# Generated by pormake.
# Topology lcy-e, (6)-cn, num edge types: 1
# Building blocks:
#     Node 0, Type 0, BuildingBlock: INOVEN_clean_sbu_0, # of connection points: 6
#     Node 1, Type 0, BuildingBlock: INOVEN_clean_sbu_0, # of connection points: 6
#     Node 2, Type 0, BuildingBlock: INOVEN_clean_sbu_0, # of connection points: 6
#     Node 3, Type 0, BuildingBlock: INOVEN_clean_sbu_0, # of connection points: 6
#     Node 4, Type 0, BuildingBlock: INOVEN_clean_sbu_0, # of connection points: 6
#     Node 5, Type 0, BuildingBlock: INOVEN_clean_sbu_0, # of connection points: 6
#     Node 6, Type 0, BuildingBlock: INOVEN_clean_sbu_0, # of connection points: 6
#     Node 7, Type 0, BuildingBlock: INOVEN_clean_sbu_0, # of connection points: 6
#     Node 8, Type 0, BuildingBlock: INOVEN_clean_sbu_0, # of connection points: 6
#     Node 9, Type 0, BuildingBlock: INOVEN_clean_sbu_0, # of connection points: 6
#     Node 10, Type 0, BuildingBlock: INOVEN_clean_sbu_0, # of connection points: 6
#     Node 11, Type 0, BuildingBlock: INOVEN_clean_sbu_0, # of connection points: 6
#     Edge 12, Type (0, 0), BuildingBlock: MIFKUJ_clean_linker_0, # of connection points: 2
#     Edge 13, Type (0, 0), BuildingBlock: MIFKUJ_clean_linker_0, # of connection points: 2
#     Edge 14, Type (0, 0), BuildingBlock: MIFKUJ_clean_linker_0, # of connection points: 2
#     Edge 15, Type (0, 0), BuildingBlock: MIFKUJ_clean_linker_0, # of connection points: 2
#     Edge 16, Type (0, 0), BuildingBlock: MIFKUJ_clean_linker_0, # of connection points: 2
#     Edge 17, Type (0, 0), BuildingBlock: MIFKUJ_clean_linker_0, # of connection points: 2
#     Edge 18, Type (0, 0), BuildingBlock: MIFKUJ_clean_linker_0, # of connection points: 2
#     Edge 19, Type (0, 0), BuildingBlock: MIFKUJ_clean_linker_0, # of connection points: 2
#     Edge 20, Type (0, 0), BuildingBlock: MIFKUJ_clean_linker_0, # of connection points: 2
#     Edge 21, Type (0, 0), BuildingBlock: MIFKUJ_clean_linker_0, # of connection points: 2
#     Edge 22, Type (0, 0), BuildingBlock: MIFKUJ_clean_linker_0, # of connection points: 2
#     Edge 23, Type (0, 0), BuildingBlock: MIFKUJ_clean_linker_0, # of connection points: 2
#     Edge 24, Type (0, 0), BuildingBlock: MIFKUJ_clean_linker_0, # of connection points: 2
#     Edge 25, Type (0, 0), BuildingBlock: MIFKUJ_clean_linker_0, # of connection points: 2
#     Edge 26, Type (0, 0), BuildingBlock: MIFKUJ_clean_linker_0, # of connection points: 2
#     Edge 27, Type (0, 0), BuildingBlock: MIFKUJ_clean_linker_0, # of connection points: 2
#     Edge 28, Type (0, 0), BuildingBlock: MIFKUJ_clean_linker_0, # of connection points: 2
#     Edge 29, Type (0, 0), BuildingBlock: MIFKUJ_clean_linker_0, # of connection points: 2
#     Edge 30, Type (0, 0), BuildingBlock: MIFKUJ_clean_linker_0, # of connection points: 2
#     Edge 31, Type (0, 0), BuildingBlock: MIFKUJ_clean_linker_0, # of connection points: 2
#     Edge 32, Type (0, 0), BuildingBlock: MIFKUJ_clean_linker_0, # of connection points: 2
#     Edge 33, Type (0, 0), BuildingBlock: MIFKUJ_clean_linker_0, # of connection points: 2
#     Edge 34, Type (0, 0), BuildingBlock: MIFKUJ_clean_linker_0, # of connection points: 2
#     Edge 35, Type (0, 0), BuildingBlock: MIFKUJ_clean_linker_0, # of connection points: 2
#     Edge 36, Type (0, 0), BuildingBlock: MIFKUJ_clean_linker_0, # of connection points: 2
#     Edge 37, Type (0, 0), BuildingBlock: MIFKUJ_clean_linker_0, # of connection points: 2
#     Edge 38, Type (0, 0), BuildingBlock: MIFKUJ_clean_linker_0, # of connection points: 2
#     Edge 39, Type (0, 0), BuildingBlock: MIFKUJ_clean_linker_0, # of connection points: 2
#     Edge 40, Type (0, 0), BuildingBlock: MIFKUJ_clean_linker_0, # of connection points: 2
#     Edge 41, Type (0, 0), BuildingBlock: MIFKUJ_clean_linker_0, # of connection points: 2
#     Edge 42, Type (0, 0), BuildingBlock: MIFKUJ_clean_linker_0, # of connection points: 2
#     Edge 43, Type (0, 0), BuildingBlock: MIFKUJ_clean_linker_0, # of connection points: 2
#     Edge 44, Type (0, 0), BuildingBlock: MIFKUJ_clean_linker_0, # of connection points: 2
#     Edge 45, Type (0, 0), BuildingBlock: MIFKUJ_clean_linker_0, # of connection points: 2
#     Edge 46, Type (0, 0), BuildingBlock: MIFKUJ_clean_linker_0, # of connection points: 2
#     Edge 47, Type (0, 0), BuildingBlock: MIFKUJ_clean_linker_0, # of connection points: 2
# Relax obj value: 0.187
# Max RMSD: 0.299
# Mean RMSD: 0.283
data_MOF--net-lcy-e--node1-INOVEN_clean_sbu_0--edge1-MIFKUJ_clean_linker_0
_symmetry_space_group_name_H-M    P1
_symmetry_Int_Tables_number       1
_symmetry_cell_setting            triclinic
loop_
_symmetry_equiv_pos_as_xyz
'x, y, z'
_cell_length_a     56.502521
_cell_length_b     53.508723
_cell_length_c     55.068752
_cell_angle_alpha  89.586652
_cell_angle_beta   90.483672
_cell_angle_gamma 88.280092
loop_
_atom_site_label
_atom_site_type_symbol
_atom_site_fract_x
_atom_site_fract_y
_atom_site_fract_z
_atom_type_partial_charge
Gd0 Gd 0.14156 0.22375 0.50574 0.0
Gd1 Gd 0.12747 0.25841 0.46024 0.0
C2 C 0.09944 0.20616 0.46943 0.0
C3 C 0.14239 0.20303 0.54824 0.0
C4 C 0.12608 0.18898 0.56348 0.0
C5 C 0.13242 0.18338 0.58758 0.0
C6 C 0.10577 0.1785 0.5534 0.0
C7 C 0.1001 0.15435 0.59047 0.0
C8 C 0.09287 0.16132 0.5668 0.0
C9 C 0.11952 0.16628 0.601 0.0
C10 C 0.17437 0.21812 0.46964 0.0
C11 C 0.16521 0.27809 0.49775 0.0
C12 C 0.12082 0.27482 0.4163 0.0
C13 C 0.13216 0.28822 0.3963 0.0
C14 C 0.11997 0.2909 0.37415 0.0
C15 C 0.15478 0.2981 0.39875 0.0
C16 C 0.15274 0.31341 0.35682 0.0
C17 C 0.16497 0.31067 0.37916 0.0
C18 C 0.13011 0.30334 0.35462 0.0
C19 C 0.10492 0.26844 0.5024 0.0
O20 O 0.11263 0.20091 0.48895 0.0
O21 O 0.1019 0.22681 0.4563 0.0
O22 O 0.14927 0.19158 0.52846 0.0
O23 O 0.13763 0.22695 0.54488 0.0
O24 O 0.17536 0.20618 0.49018 0.0
O25 O 0.15596 0.23191 0.46978 0.0
O26 O 0.15947 0.27741 0.47438 0.0
O27 O 0.15797 0.26113 0.51362 0.0
O28 O 0.11503 0.28779 0.43557 0.0
O29 O 0.12941 0.25238 0.42149 0.0
O30 O 0.10949 0.28548 0.48623 0.0
O31 O 0.11076 0.24711 0.49441 0.0
H32 H 0.14801 0.19133 0.59566 0.0
H33 H 0.1006 0.1826 0.53478 0.0
H34 H 0.07815 0.15239 0.55807 0.0
H35 H 0.1253 0.16165 0.61933 0.0
H36 H 0.10248 0.2834 0.37195 0.0
H37 H 0.1645 0.29608 0.41573 0.0
H38 H 0.1825 0.31801 0.38142 0.0
H39 H 0.12 0.30545 0.3379 0.0
Gd40 Gd 1.00386 0.87769 0.71641 0.0
Gd41 Gd 0.04512 0.89206 0.75095 0.0
C42 C 0.03304 0.92655 0.70485 0.0
C43 C 0.9646 0.87115 0.69313 0.0
C44 C 0.95432 0.87754 0.66887 0.0
C45 C 0.96647 0.87245 0.64718 0.0
C46 C 0.93199 0.88969 0.6675 0.0
C47 C 0.93381 0.89134 0.62318 0.0
C48 C 0.9219 0.89656 0.64503 0.0
C49 C 0.95631 0.87924 0.6246 0.0
C50 C 0.04801 0.86204 0.70249 0.0
C51 C 0.01371 0.84472 0.76549 0.0
C52 C 0.08394 0.8947 0.7762 0.0
C53 C 0.10323 0.88001 0.7888 0.0
C54 C 0.10625 0.88255 0.81398 0.0
C55 C 0.1203 0.86587 0.77589 0.0
C56 C 0.14352 0.85816 0.81304 0.0
C57 C 0.14018 0.85512 0.78786 0.0
C58 C 0.12605 0.87177 0.82594 0.0
C59 C 1.00284 0.9167 0.75776 0.0
O60 O 0.01187 0.91674 0.70437 0.0
O61 O 0.05042 0.91687 0.71846 0.0
O62 O 0.98175 0.85404 0.69442 0.0
O63 O 0.96802 0.89014 0.70751 0.0
O64 O 0.031 0.86858 0.68758 0.0
O65 O 0.04026 0.86272 0.72379 0.0
O66 O 0.0339 0.85632 0.76851 0.0
O67 O 0.99872 0.85043 0.74742 0.0
O68 O 0.06284 0.89537 0.78598 0.0
O69 O 0.08326 0.8944 0.75239 0.0
O70 O 0.02311 0.927 0.76132 0.0
O71 O 1.00641 0.89426 0.75238 0.0
H72 H 0.98381 0.86326 0.64763 0.0
H73 H 0.92234 0.89407 0.68394 0.0
H74 H 0.90482 0.90629 0.64486 0.0
H75 H 0.96597 0.87467 0.60825 0.0
H76 H 0.09366 0.89367 0.82438 0.0
H77 H 0.11872 0.86364 0.75644 0.0
H78 H 0.15307 0.84464 0.77727 0.0
H79 H 0.12808 0.875 0.84522 0.0
Gd80 Gd 0.37343 0.79125 1.00523 0.0
Gd81 Gd 0.38569 0.75568 0.96395 0.0
C82 C 0.41788 0.80312 0.96919 0.0
C83 C 0.37172 0.82151 0.04191 0.0
C84 C 0.383 0.84399 0.05175 0.0
C85 C 0.36853 0.86362 0.0605 0.0
C86 C 0.40773 0.84573 0.05382 0.0
C87 C 0.40314 0.88584 0.07454 0.0
C88 C 0.41768 0.86644 0.0651 0.0
C89 C 0.37843 0.88431 0.07167 0.0
C90 C 0.34287 0.79382 0.96733 0.0
C91 C 0.34599 0.74027 1.00245 0.0
C92 C 0.38594 0.72792 0.92545 0.0
C93 C 0.37171 0.71344 0.90795 0.0
C94 C 0.37619 0.68759 0.90586 0.0
C95 C 0.35622 0.72537 0.89104 0.0
C96 C 0.35196 0.68629 0.86899 0.0
C97 C 0.34639 0.71192 0.87183 0.0
C98 C 0.36642 0.67418 0.88668 0.0
C99 C 0.41251 0.7493 1.00517 0.0
O100 O 0.40687 0.80772 0.9899 0.0
O101 O 0.41132 0.78514 0.95458 0.0
O102 O 0.35851 0.82455 0.02246 0.0
O103 O 0.38429 0.8006 0.0418 0.0
O104 O 0.33688 0.79581 0.9899 0.0
O105 O 0.36523 0.79165 0.96543 0.0
O106 O 0.35197 0.74019 0.97925 0.0
O107 O 0.35499 0.75659 0.01775 0.0
O108 O 0.38935 0.71891 0.94742 0.0
O109 O 0.38367 0.75233 0.92488 0.0
O110 O 0.42067 0.74534 0.9835 0.0
O111 O 0.3908 0.75445 1.00362 0.0
H112 H 0.34943 0.86277 0.05906 0.0
H113 H 0.41936 0.83088 0.04718 0.0
H114 H 0.43675 0.86684 0.06708 0.0
H115 H 0.36665 0.89906 0.07819 0.0
H116 H 0.38809 0.67787 0.91852 0.0
H117 H 0.35245 0.7453 0.89201 0.0
H118 H 0.33539 0.72187 0.85854 0.0
H119 H 0.37071 0.65437 0.88535 0.0
Gd120 Gd 0.51743 0.1423 0.22643 0.0
Gd121 Gd 0.47743 0.12948 0.26133 0.0
C122 C 0.48349 0.09479 0.21486 0.0
C123 C 0.5543 0.14096 0.19872 0.0
C124 C 0.56258 0.1286 0.17617 0.0
C125 C 0.56976 0.14336 0.15656 0.0
C126 C 0.56429 0.1024 0.17416 0.0
C127 C 0.58059 0.10609 0.1334 0.0
C128 C 0.57324 0.09128 0.15303 0.0
C129 C 0.57859 0.13228 0.13541 0.0
C130 C 0.47827 0.17157 0.22136 0.0
C131 C 0.51079 0.17577 0.27332 0.0
C132 C 0.43996 0.12927 0.28847 0.0
C133 C 0.42187 0.14441 0.30194 0.0
C134 C 0.41979 0.141 0.32714 0.0
C135 C 0.40467 0.15958 0.28978 0.0
C136 C 0.38271 0.1658 0.32749 0.0
C137 C 0.38538 0.1702 0.30242 0.0
C138 C 0.40055 0.15157 0.33974 0.0
C139 C 0.51979 0.10449 0.26904 0.0
O140 O 0.50281 0.10717 0.20981 0.0
O141 O 0.4697 0.10091 0.23323 0.0
O142 O 0.53715 0.15783 0.19645 0.0
O143 O 0.55225 0.12688 0.21809 0.0
O144 O 0.49962 0.17919 0.21821 0.0
O145 O 0.47829 0.14818 0.22534 0.0
O146 O 0.48892 0.16752 0.27362 0.0
O147 O 0.52694 0.16594 0.25856 0.0
O148 O 0.46156 0.12732 0.29725 0.0
O149 O 0.43928 0.12997 0.26471 0.0
O150 O 0.49943 0.09453 0.27283 0.0
O151 O 0.51637 0.12692 0.26308 0.0
H152 H 0.56883 0.16358 0.1577 0.0
H153 H 0.55887 0.09045 0.18894 0.0
H154 H 0.57432 0.07108 0.15202 0.0
H155 H 0.5844 0.14428 0.12085 0.0
H156 H 0.43263 0.12932 0.33702 0.0
H157 H 0.40558 0.16251 0.27033 0.0
H158 H 0.37201 0.18092 0.2923 0.0
H159 H 0.39942 0.14815 0.3591 0.0
Gd160 Gd 0.62308 0.25447 0.54961 0.0
Gd161 Gd 0.63776 0.29816 0.51793 0.0
C162 C 0.66623 0.28995 0.56718 0.0
C163 C 0.62103 0.21509 0.57708 0.0
C164 C 0.63135 0.20562 0.60035 0.0
C165 C 0.61621 0.19917 0.61933 0.0
C166 C 0.65595 0.20228 0.60378 0.0
C167 C 0.6499 0.18547 0.64451 0.0
C168 C 0.66511 0.19221 0.6256 0.0
C169 C 0.62536 0.18932 0.64119 0.0
C170 C 0.59471 0.29546 0.55261 0.0
C171 C 0.59645 0.2627 0.49931 0.0
C172 C 0.64157 0.33839 0.49184 0.0
C173 C 0.62885 0.35736 0.47678 0.0
C174 C 0.64102 0.3786 0.46976 0.0
C175 C 0.60503 0.35521 0.46987 0.0
C176 C 0.60558 0.39612 0.44972 0.0
C177 C 0.59352 0.37439 0.45629 0.0
C178 C 0.62959 0.3977 0.45638 0.0
C179 C 0.66366 0.25483 0.51294 0.0
O180 O 0.65551 0.26841 0.56941 0.0
O181 O 0.6606 0.30613 0.54981 0.0
O182 O 0.60598 0.23407 0.57845 0.0
O183 O 0.63517 0.21665 0.55844 0.0
O184 O 0.58722 0.2728 0.55317 0.0
O185 O 0.61706 0.29563 0.55168 0.0
O186 O 0.60353 0.28602 0.50063 0.0
O187 O 0.60464 0.24524 0.51464 0.0
O188 O 0.64434 0.31583 0.48309 0.0
O189 O 0.63716 0.33855 0.51512 0.0
O190 O 0.67282 0.27676 0.51172 0.0
O191 O 0.64172 0.25728 0.51533 0.0
H192 H 0.59719 0.20146 0.61713 0.0
H193 H 0.66814 0.2072 0.58957 0.0
H194 H 0.68411 0.18968 0.62767 0.0
H195 H 0.61314 0.18404 0.65525 0.0
H196 H 0.65946 0.38052 0.47481 0.0
H197 H 0.59534 0.3389 0.47514 0.0
H198 H 0.57508 0.37243 0.45143 0.0
H199 H 0.63972 0.41369 0.45111 0.0
Gd200 Gd 0.97778 0.38234 0.74095 0.0
Gd201 Gd 0.01057 0.36407 0.78075 0.0
C202 C 0.96326 0.33416 0.77457 0.0
C203 C 0.94997 0.38733 0.70345 0.0
C204 C 0.92692 0.37795 0.69571 0.0
C205 C 0.91906 0.38205 0.67179 0.0
C206 C 0.91271 0.36482 0.71189 0.0
C207 C 0.88283 0.36008 0.68023 0.0
C208 C 0.8909 0.35584 0.70419 0.0
C209 C 0.89719 0.37327 0.66411 0.0
C210 C 0.9761 0.41081 0.78113 0.0
C211 C 0.02695 0.40883 0.74606 0.0
C212 C 0.03739 0.35892 0.81897 0.0
C213 C 0.05039 0.37351 0.83698 0.0
C214 C 0.06852 0.36148 0.85049 0.0
C215 C 0.04387 0.3984 0.8423 0.0
C216 C 0.07223 0.39821 0.87599 0.0
C217 C 0.05482 0.41072 0.86158 0.0
C218 C 0.07936 0.37368 0.86973 0.0
C219 C 0.01548 0.33945 0.73768 0.0
O220 O 0.9589 0.34816 0.75502 0.0
O221 O 0.98172 0.33785 0.78869 0.0
O222 O 0.94967 0.40279 0.72173 0.0
O223 O 0.96738 0.37069 0.70488 0.0
O224 O 0.97466 0.41952 0.75913 0.0
O225 O 0.97727 0.38709 0.78116 0.0
O226 O 0.02678 0.40041 0.76873 0.0
O227 O 0.01108 0.40136 0.73008 0.0
O228 O 0.04562 0.35811 0.79685 0.0
O229 O 0.0143 0.36096 0.81968 0.0
O230 O 0.01798 0.32855 0.75873 0.0
O231 O 0.01197 0.36239 0.74087 0.0
H232 H 0.92985 0.39207 0.65903 0.0
H233 H 0.91842 0.36167 0.7305 0.0
H234 H 0.88015 0.34599 0.71711 0.0
H235 H 0.89161 0.37659 0.64547 0.0
H236 H 0.07387 0.34231 0.84658 0.0
H237 H 0.02989 0.40804 0.83201 0.0
H238 H 0.04906 0.42967 0.86569 0.0
H239 H 0.09316 0.3637 0.87996 0.0
Gd240 Gd 0.8857 0.75786 0.034 0.0
Gd241 Gd 0.8729 0.71158 1.00462 0.0
C242 C 0.84456 0.72064 0.05334 0.0
C243 C 0.88625 0.79888 0.05886 0.0
C244 C 0.87539 0.81002 0.08074 0.0
C245 C 0.86278 0.79563 0.09736 0.0
C246 C 0.8783 0.83546 0.08537 0.0
C247 C 0.85681 0.83203 0.12351 0.0
C248 C 0.86903 0.84638 0.1064 0.0
C249 C 0.85359 0.80652 0.11855 0.0
C250 C 0.91692 0.71916 0.03797 0.0
C251 C 0.91108 0.74997 0.9831 0.0
C252 C 0.87185 0.66936 0.98165 0.0
C253 C 0.88424 0.6509 0.96583 0.0
C254 C 0.87192 0.64126 0.94593 0.0
C255 C 0.90676 0.64052 0.97175 0.0
C256 C 0.90349 0.60999 0.9391 0.0
C257 C 0.91632 0.62034 0.95845 0.0
C258 C 0.8814 0.62113 0.93272 0.0
C259 C 0.84486 0.75336 0.99752 0.0
O260 O 0.85417 0.74288 0.0543 0.0
O261 O 0.8509 0.70391 0.03702 0.0
O262 O 0.90111 0.77998 0.06248 0.0
O263 O 0.87233 0.79581 0.04005 0.0
O264 O 0.92271 0.74242 0.03773 0.0
O265 O 0.89462 0.71721 0.03761 0.0
O266 O 0.9046 0.72638 0.98466 0.0
O267 O 0.90323 0.76707 0.99865 0.0
O268 O 0.86407 0.69058 0.97212 0.0
O269 O 0.87942 0.67156 1.00404 0.0
O270 O 0.83663 0.73093 0.99757 0.0
O271 O 0.86687 0.75203 1.0 0.0
H272 H 0.86038 0.77592 0.09416 0.0
H273 H 0.88784 0.84693 0.0727 0.0
H274 H 0.87144 0.86615 0.10919 0.0
H275 H 0.8445 0.79478 0.13132 0.0
H276 H 0.85449 0.64879 0.94105 0.0
H277 H 0.91666 0.64743 0.98711 0.0
H278 H 0.93333 0.61223 0.96395 0.0
H279 H 0.8712 0.61404 0.91766 0.0
Gd280 Gd 0.54107 0.62172 0.24393 0.0
Gd281 Gd 0.50541 0.64051 0.28081 0.0
C282 C 0.55384 0.66881 0.279 0.0
C283 C 0.57224 0.61627 0.20991 0.0
C284 C 0.59434 0.62775 0.20145 0.0
C285 C 0.61579 0.61386 0.2027 0.0
C286 C 0.5942 0.65179 0.19087 0.0
C287 C 0.63642 0.6473 0.18218 0.0
C288 C 0.61501 0.66145 0.18137 0.0
C289 C 0.63657 0.62352 0.1933 0.0
C290 C 0.53815 0.59261 0.28386 0.0
C291 C 0.49105 0.59645 0.24453 0.0
C292 C 0.47558 0.64653 0.31599 0.0
C293 C 0.45977 0.63344 0.33271 0.0
C294 C 0.43877 0.64568 0.33999 0.0
C295 C 0.46621 0.61023 0.3433 0.0
C296 C 0.43209 0.61317 0.37028 0.0
C297 C 0.45242 0.60014 0.36179 0.0
C298 C 0.42504 0.63565 0.35846 0.0
C299 C 0.50507 0.6663 0.23783 0.0
O300 O 0.55861 0.65602 0.25907 0.0
O301 O 0.53495 0.66459 0.29207 0.0
O302 O 0.57335 0.60383 0.23046 0.0
O303 O 0.55243 0.62932 0.20723 0.0
O304 O 0.54119 0.58416 0.26206 0.0
O305 O 0.53781 0.61631 0.28394 0.0
O306 O 0.48947 0.60493 0.267 0.0
O307 O 0.50841 0.60322 0.2301 0.0
O308 O 0.46938 0.64823 0.29308 0.0
O309 O 0.49838 0.64278 0.31922 0.0
O310 O 0.50074 0.67662 0.25866 0.0
O311 O 0.50774 0.64318 0.24097 0.0
H312 H 0.61645 0.59527 0.21066 0.0
H313 H 0.57796 0.663 0.18947 0.0
H314 H 0.61412 0.6797 0.17273 0.0
H315 H 0.65277 0.61224 0.19463 0.0
H316 H 0.43338 0.66352 0.33194 0.0
H317 H 0.48229 0.60032 0.33787 0.0
H318 H 0.45828 0.58261 0.37001 0.0
H319 H 0.40911 0.64586 0.36376 0.0
Gd320 Gd 0.21965 0.51258 0.12918 0.0
Gd321 Gd 0.25034 0.46729 0.11483 0.0
C322 C 0.20203 0.47618 0.08592 0.0
C323 C 0.19016 0.55033 0.1328 0.0
C324 C 0.16766 0.55854 0.12084 0.0
C325 C 0.14833 0.56567 0.13531 0.0
C326 C 0.16484 0.55863 0.09543 0.0
C327 C 0.12375 0.5734 0.0993 0.0
C328 C 0.14311 0.56615 0.08476 0.0
C329 C 0.12661 0.57294 0.12469 0.0
C330 C 0.22029 0.47417 0.16119 0.0
C331 C 0.27104 0.50785 0.15183 0.0
C332 C 0.27413 0.42507 0.11294 0.0
C333 C 0.28677 0.40517 0.12698 0.0
C334 C 0.28933 0.38148 0.1165 0.0
C335 C 0.29619 0.40908 0.15027 0.0
C336 C 0.31106 0.36565 0.15209 0.0
C337 C 0.30831 0.38948 0.1627 0.0
C338 C 0.30131 0.36196 0.12885 0.0
C339 C 0.25325 0.50758 0.08452 0.0
O340 O 0.20064 0.49846 0.09601 0.0
O341 O 0.21836 0.45928 0.09237 0.0
O342 O 0.18913 0.53021 0.14628 0.0
O343 O 0.20957 0.551 0.12003 0.0
O344 O 0.22059 0.49751 0.16721 0.0
O345 O 0.21908 0.47197 0.13835 0.0
O346 O 0.26994 0.48368 0.14694 0.0
O347 O 0.25486 0.52426 0.14357 0.0
O348 O 0.28391 0.44686 0.11098 0.0
O349 O 0.25116 0.42678 0.11544 0.0
O350 O 0.25686 0.48465 0.07757 0.0
O351 O 0.25133 0.50772 0.10716 0.0
H352 H 0.15005 0.56564 0.15492 0.0
H353 H 0.17936 0.55289 0.08381 0.0
H354 H 0.14139 0.56614 0.06516 0.0
H355 H 0.11217 0.57873 0.13639 0.0
H356 H 0.28219 0.37809 0.09853 0.0
H357 H 0.29424 0.42722 0.15876 0.0
H358 H 0.31542 0.39294 0.18064 0.0
H359 H 0.30342 0.3441 0.11987 0.0
Gd360 Gd 0.72664 0.9905 0.87741 0.0
Gd361 Gd 0.75386 0.03678 0.89098 0.0
C362 C 0.70626 0.02896 0.91943 0.0
C363 C 0.70239 0.95005 0.87768 0.0
C364 C 0.6792 0.94124 0.8865 0.0
C365 C 0.66149 0.93528 0.86963 0.0
C366 C 0.67474 0.93763 0.91138 0.0
C367 C 0.63547 0.92183 0.90217 0.0
C368 C 0.65316 0.92807 0.9191 0.0
C369 C 0.63992 0.92584 0.87733 0.0
C370 C 0.72092 0.02903 0.84613 0.0
C371 C 0.77643 0.99764 0.85214 0.0
C372 C 0.77604 0.0786 0.89195 0.0
C373 C 0.79283 0.09464 0.87909 0.0
C374 C 0.80644 0.11099 0.89278 0.0
C375 C 0.7944 0.0953 0.85363 0.0
C376 C 0.82234 0.12933 0.85588 0.0
C377 C 0.80909 0.11245 0.84215 0.0
C378 C 0.82099 0.12811 0.88137 0.0
C379 C 0.76122 0.99574 0.91973 0.0
O380 O 0.70557 0.00673 0.90901 0.0
O381 O 0.72219 0.04536 0.91349 0.0
O382 O 0.70181 0.9662 0.85971 0.0
O383 O 0.71876 0.95475 0.89388 0.0
O384 O 0.72199 1.00574 0.83978 0.0
O385 O 0.72151 0.03105 0.86904 0.0
O386 O 0.77392 0.02136 0.85865 0.0
O387 O 0.76174 0.98057 0.8601 0.0
O388 O 0.7844 0.05794 0.90208 0.0
O389 O 0.75505 0.07621 0.88216 0.0
O390 O 0.7605 0.01836 0.92818 0.0
O391 O 0.7595 0.99639 0.89708 0.0
H392 H 0.66438 0.93775 0.85035 0.0
H393 H 0.68801 0.94187 0.92492 0.0
H394 H 0.6506 0.925 0.93834 0.0
H395 H 0.62669 0.92174 0.86372 0.0
H396 H 0.80536 0.11095 0.91242 0.0
H397 H 0.78404 0.08288 0.84266 0.0
H398 H 0.80995 0.11262 0.82251 0.0
H399 H 0.83065 0.14095 0.89257 0.0
Gd400 Gd 0.75147 0.97352 0.38918 0.0
Gd401 Gd 0.79282 0.00657 0.37715 0.0
C402 C 0.78659 0.95871 0.3438 0.0
C403 C 0.71309 0.94804 0.38807 0.0
C404 C 0.70389 0.92437 0.37894 0.0
C405 C 0.71896 0.90423 0.37239 0.0
C406 C 0.67936 0.9221 0.3765 0.0
C407 C 0.68476 0.87948 0.36166 0.0
C408 C 0.66989 0.89998 0.36793 0.0
C409 C 0.70947 0.88195 0.36383 0.0
C410 C 0.78897 0.96615 0.41913 0.0
C411 C 0.75743 0.02332 0.41984 0.0
C412 C 0.83141 0.03184 0.37618 0.0
C413 C 0.84957 0.04581 0.38968 0.0
C414 C 0.85658 0.06887 0.38032 0.0
C415 C 0.86201 0.03543 0.40976 0.0
C416 C 0.88901 0.07041 0.40988 0.0
C417 C 0.88148 0.04762 0.41977 0.0
C418 C 0.876 0.081 0.39024 0.0
C419 C 0.75174 0.01632 0.35158 0.0
O420 O 0.76694 0.95439 0.35589 0.0
O421 O 0.80052 0.97708 0.34966 0.0
O422 O 0.72853 0.94666 0.40591 0.0
O423 O 0.71828 0.96472 0.37166 0.0
O424 O 0.76703 0.9644 0.42545 0.0
O425 O 0.79047 0.96993 0.39634 0.0
O426 O 0.77982 0.02201 0.41294 0.0
O427 O 0.74159 0.00842 0.41016 0.0
O428 O 0.8103 0.04216 0.37299 0.0
O429 O 0.83103 0.00758 0.3792 0.0
O430 O 0.77264 0.0187 0.3423 0.0
O431 O 0.7541 0.01065 0.37354 0.0
H432 H 0.73799 0.90569 0.37398 0.0
H433 H 0.66746 0.93754 0.38121 0.0
H434 H 0.65085 0.89904 0.36602 0.0
H435 H 0.72146 0.86655 0.35932 0.0
H436 H 0.84756 0.07711 0.36463 0.0
H437 H 0.85711 0.01759 0.41735 0.0
H438 H 0.89079 0.03901 0.43508 0.0
H439 H 0.88135 0.09824 0.38178 0.0
Gd440 Gd 0.29472 0.49865 0.6288 0.0
Gd441 Gd 0.26127 0.54773 0.61812 0.0
C442 C 0.30925 0.53951 0.5874 0.0
C443 C 0.31668 0.45581 0.62603 0.0
C444 C 0.34157 0.44754 0.62348 0.0
C445 C 0.3595 0.46507 0.62196 0.0
C446 C 0.34726 0.42213 0.62038 0.0
C447 C 0.38848 0.43184 0.61296 0.0
C448 C 0.3705 0.41432 0.61521 0.0
C449 C 0.38278 0.45729 0.61681 0.0
C450 C 0.30595 0.53784 0.65804 0.0
C451 C 0.24427 0.50551 0.65591 0.0
C452 C 0.23851 0.5903 0.61915 0.0
C453 C 0.22395 0.60866 0.63284 0.0
C454 C 0.2027 0.61764 0.62224 0.0
C455 C 0.23185 0.61942 0.65458 0.0
C456 C 0.19781 0.64871 0.65409 0.0
C457 C 0.21883 0.6392 0.66515 0.0
C458 C 0.18983 0.6374 0.63265 0.0
C459 C 0.25656 0.50815 0.58789 0.0
O460 O 0.31184 0.51651 0.59635 0.0
O461 O 0.2929 0.5558 0.59514 0.0
O462 O 0.31065 0.46598 0.6468 0.0
O463 O 0.30781 0.46795 0.60715 0.0
O464 O 0.31694 0.51622 0.65885 0.0
O465 O 0.29092 0.53692 0.64128 0.0
O466 O 0.24366 0.5297 0.65031 0.0
O467 O 0.26042 0.48946 0.64718 0.0
O468 O 0.22868 0.56951 0.61242 0.0
O469 O 0.26108 0.58752 0.62473 0.0
O470 O 0.25151 0.53115 0.58151 0.0
O471 O 0.26094 0.50748 0.61027 0.0
H472 H 0.35533 0.48484 0.62406 0.0
H473 H 0.33361 0.40837 0.62138 0.0
H474 H 0.37436 0.39456 0.61272 0.0
H475 H 0.39613 0.47127 0.615 0.0
H476 H 0.19645 0.60995 0.60528 0.0
H477 H 0.24831 0.61302 0.66308 0.0
H478 H 0.22536 0.64722 0.6818 0.0
H479 H 0.17407 0.64446 0.62325 0.0
H480 H 0.19096 0.31111 0.47139 0.0
H481 H 0.20857 0.34964 0.48552 0.0
H482 H 0.18451 0.33441 0.55808 0.0
H483 H 0.16754 0.29553 0.54428 0.0
H484 H 0.18949 0.39011 0.50262 0.0
H485 H 0.21701 0.36205 0.59999 0.0
H486 H 0.23017 0.32452 0.62326 0.0
H487 H 0.26005 0.29239 0.55874 0.0
H488 H 0.24724 0.32984 0.53513 0.0
H489 H 0.21115 0.4965 0.57754 0.0
H490 H 0.19715 0.45721 0.56048 0.0
H491 H 0.2695 0.43067 0.55247 0.0
H492 H 0.28337 0.47018 0.56895 0.0
H493 H 0.24216 0.39583 0.57476 0.0
H494 H 0.23777 0.44806 0.50335 0.0
H495 H 0.22553 0.48545 0.47942 0.0
H496 H 0.15244 0.46883 0.49 0.0
H497 H 0.16425 0.43151 0.51429 0.0
C498 C 0.18973 0.31577 0.49045 0.0
C499 C 0.178 0.30009 0.50673 0.0
C500 C 0.1997 0.33791 0.4985 0.0
C501 C 0.19806 0.34501 0.52297 0.0
C502 C 0.18649 0.32923 0.53926 0.0
C503 C 0.17678 0.30692 0.53131 0.0
C504 C 0.20769 0.36929 0.53117 0.0
C505 C 0.20106 0.39127 0.51837 0.0
C506 C 0.22283 0.37104 0.55172 0.0
C507 C 0.23105 0.34867 0.56579 0.0
C508 C 0.22652 0.34703 0.59081 0.0
C509 C 0.23386 0.32576 0.60404 0.0
C510 C 0.2459 0.30606 0.59248 0.0
C511 C 0.25067 0.30763 0.56766 0.0
C512 C 0.24335 0.32886 0.55433 0.0
C513 C 0.22399 0.48241 0.57167 0.0
C514 C 0.24832 0.48614 0.57467 0.0
C515 C 0.21601 0.45996 0.56205 0.0
C516 C 0.23227 0.44091 0.55527 0.0
C517 C 0.25662 0.44497 0.55779 0.0
C518 C 0.26456 0.46745 0.56728 0.0
C519 C 0.22394 0.4165 0.54619 0.0
C520 C 0.23068 0.39457 0.55895 0.0
C521 C 0.20905 0.41477 0.52553 0.0
C522 C 0.2019 0.43712 0.51082 0.0
C523 C 0.21909 0.45248 0.50073 0.0
C524 C 0.21223 0.47364 0.48707 0.0
C525 C 0.18822 0.47954 0.48324 0.0
C526 C 0.17103 0.46425 0.493 0.0
C527 C 0.1778 0.44308 0.5067 0.0
H528 H 0.18294 0.49593 0.47266 0.0
H529 H 0.25156 0.2896 0.60275 0.0
H530 H 0.79023 0.95052 0.83712 0.0
H531 H 0.82792 0.93778 0.81868 0.0
H532 H 0.84953 0.01444 0.81874 0.0
H533 H 0.81175 0.02739 0.8363 0.0
H534 H 0.86502 0.99382 0.77947 0.0
H535 H 0.86755 0.9714 0.86343 0.0
H536 H 0.8543 0.95172 0.90139 0.0
H537 H 0.86209 0.87917 0.86911 0.0
H538 H 0.87453 0.8985 0.83067 0.0
H539 H 0.99066 0.96435 0.7727 0.0
H540 H 0.95168 0.9794 0.7872 0.0
H541 H 0.92356 0.90652 0.77479 0.0
H542 H 0.96209 0.89147 0.76049 0.0
H543 H 0.91236 0.92629 0.8209 0.0
H544 H 0.91008 0.95156 0.73595 0.0
H545 H 0.92643 0.97323 0.70044 0.0
H546 H 0.92147 0.04312 0.73814 0.0
H547 H 0.90531 0.0218 0.77401 0.0
C548 C 0.80285 0.96472 0.83286 0.0
C549 C 0.79795 0.98996 0.83838 0.0
C550 C 0.82451 0.95739 0.82247 0.0
C551 C 0.84188 0.97507 0.81774 0.0
C552 C 0.83655 1.00039 0.82225 0.0
C553 C 0.81486 0.00776 0.8324 0.0
C554 C 0.86593 0.9672 0.80912 0.0
C555 C 0.87539 0.97917 0.7887 0.0
C556 C 0.87966 0.94811 0.82107 0.0
C557 C 0.87192 0.93641 0.84411 0.0
C558 C 0.86623 0.95127 0.86435 0.0
C559 C 0.85882 0.94018 0.88595 0.0
C560 C 0.85737 0.91422 0.88767 0.0
C561 C 0.86325 0.89928 0.86776 0.0
C562 C 0.87043 0.9103 0.84604 0.0
C563 C 0.97609 0.95164 0.773 0.0
C564 C 0.97941 0.92678 0.76544 0.0
C565 C 0.95387 0.96022 0.78128 0.0
C566 C 0.93473 0.94401 0.78218 0.0
C567 C 0.93808 0.91927 0.77447 0.0
C568 C 0.96012 0.91077 0.76612 0.0
C569 C 0.9111 0.95257 0.79112 0.0
C570 C 0.90183 0.94079 0.81166 0.0
C571 C 0.89777 0.9721 0.77956 0.0
C572 C 0.90666 0.98506 0.75772 0.0
C573 C 0.91254 0.97154 0.73669 0.0
C574 C 0.92177 0.98376 0.7165 0.0
C575 C 0.92503 0.00953 0.71705 0.0
C576 C 0.91893 0.02316 0.73775 0.0
C577 C 0.9097 0.01103 0.758 0.0
H578 H 0.93225 0.01894 0.70144 0.0
H579 H 0.85173 0.90568 0.90444 0.0
H580 H 0.34949 0.71807 0.04718 0.0
H581 H 0.33276 0.67841 0.05969 0.0
H582 H 0.29493 0.67485 0.9915 0.0
H583 H 0.31268 0.71381 0.97839 0.0
H584 H 0.29333 0.65988 0.06863 0.0
H585 H 0.28988 0.61597 0.97247 0.0
H586 H 0.31032 0.61987 0.93325 0.0
H587 H 0.37218 0.64576 0.96995 0.0
H588 H 0.35227 0.64163 0.0094 0.0
H589 H 0.22828 0.55108 0.07815 0.0
H590 H 0.24282 0.59074 0.06272 0.0
H591 H 0.30978 0.55429 0.04581 0.0
H592 H 0.29492 0.51444 0.06099 0.0
H593 H 0.29943 0.58814 0.01217 0.0
H594 H 0.3024 0.58774 0.09855 0.0
H595 H 0.28707 0.58284 0.14006 0.0
H596 H 0.23637 0.64288 0.12723 0.0
H597 H 0.25109 0.64793 0.08547 0.0
C598 C 0.33729 0.70904 0.03502 0.0
C599 C 0.33244 0.719 0.01176 0.0
C600 C 0.32778 0.68629 0.04218 0.0
C601 C 0.31299 0.67318 0.02639 0.0
C602 C 0.30686 0.68408 1.00378 0.0
C603 C 0.31681 0.70651 0.99638 0.0
C604 C 0.30472 0.6478 0.03324 0.0
C605 C 0.29463 0.64427 0.0562 0.0
C606 C 0.30702 0.62702 0.01744 0.0
C607 C 0.31947 0.62872 0.99387 0.0
C608 C 0.3079 0.62233 0.97218 0.0
C609 C 0.31938 0.62461 0.94991 0.0
C610 C 0.3425 0.63314 0.9491 0.0
C611 C 0.35425 0.63923 0.97059 0.0
C612 C 0.34287 0.63691 0.99291 0.0
C613 C 0.24599 0.55156 0.07093 0.0
C614 C 0.26055 0.52988 0.07094 0.0
C615 C 0.25434 0.57421 0.06214 0.0
C616 C 0.27764 0.57574 0.05362 0.0
C617 C 0.29178 0.55368 0.05236 0.0
C618 C 0.28328 0.53091 0.06093 0.0
C619 C 0.28752 0.6005 0.04726 0.0
C620 C 0.29803 0.60383 0.02449 0.0
C621 C 0.28646 0.62087 0.06359 0.0
C622 C 0.27769 0.61805 0.08878 0.0
C623 C 0.28785 0.59977 0.10449 0.0
C624 C 0.27925 0.59693 0.12805 0.0
C625 C 0.26071 0.61244 0.13622 0.0
C626 C 0.25072 0.63085 0.12085 0.0
C627 C 0.25917 0.63372 0.09724 0.0
H628 H 0.25415 0.61026 0.1545 0.0
H629 H 0.35132 0.635 0.93184 0.0
H630 H 0.56227 0.12665 0.26481 0.0
H631 H 0.60154 0.11008 0.27641 0.0
H632 H 0.57073 0.0423 0.30223 0.0
H633 H 0.53113 0.05843 0.28961 0.0
H634 H 0.60828 0.07923 0.33417 0.0
H635 H 0.5947 0.02664 0.26182 0.0
H636 H 0.58313 0.02398 0.21863 0.0
H637 H 0.63843 0.07355 0.19936 0.0
H638 H 0.65009 0.07677 0.24252 0.0
H639 H 0.70837 0.01114 0.37121 0.0
H640 H 0.66994 0.02354 0.35466 0.0
H641 H 0.7034 0.05489 0.2917 0.0
H642 H 0.74228 0.03979 0.30733 0.0
H643 H 0.66449 0.0386 0.27682 0.0
H644 H 0.68152 0.09108 0.34282 0.0
H645 H 0.69386 0.10269 0.3842 0.0
H646 H 0.63439 0.0652 0.41385 0.0
H647 H 0.62188 0.053 0.37268 0.0
C648 C 0.56379 0.108 0.2725 0.0
C649 C 0.54353 0.09369 0.2759 0.0
C650 C 0.5863 0.09864 0.27928 0.0
C651 C 0.5891 0.07493 0.29005 0.0
C652 C 0.56895 0.06062 0.2938 0.0
C653 C 0.54636 0.06982 0.28657 0.0
C654 C 0.61311 0.06563 0.2979 0.0
C655 C 0.62046 0.06985 0.32185 0.0
C656 C 0.62946 0.05495 0.28136 0.0
C657 C 0.62313 0.05209 0.25539 0.0
C658 C 0.6043 0.03706 0.24838 0.0
C659 C 0.59774 0.03544 0.22391 0.0
C660 C 0.61 0.04864 0.20627 0.0
C661 C 0.62894 0.06335 0.21305 0.0
C662 C 0.63556 0.06504 0.2375 0.0
C663 C 0.70766 0.02002 0.35351 0.0
C664 C 0.72849 0.02408 0.34047 0.0
C665 C 0.68552 0.02767 0.34422 0.0
C666 C 0.68348 0.041 0.32219 0.0
C667 C 0.70429 0.04481 0.30881 0.0
C668 C 0.72657 0.03627 0.31779 0.0
C669 C 0.65966 0.05111 0.3137 0.0
C670 C 0.65239 0.04757 0.28946 0.0
C671 C 0.64361 0.06338 0.32981 0.0
C672 C 0.65086 0.07095 0.35464 0.0
C673 C 0.67114 0.08519 0.35817 0.0
C674 C 0.67816 0.09188 0.38159 0.0
C675 C 0.66494 0.08465 0.40163 0.0
C676 C 0.64463 0.07077 0.3983 0.0
C677 C 0.63754 0.06398 0.37492 0.0
H678 H 0.6704 0.08987 0.41974 0.0
H679 H 0.60484 0.04745 0.18734 0.0
H680 H 0.7113 0.24459 0.50718 0.0
H681 H 0.73018 0.20432 0.49605 0.0
H682 H 0.66167 0.17077 0.49404 0.0
H683 H 0.64303 0.21041 0.50575 0.0
H684 H 0.69166 0.13924 0.51388 0.0
H685 H 0.6912 0.19052 0.44153 0.0
H686 H 0.70013 0.22769 0.41689 0.0
H687 H 0.77459 0.21378 0.42883 0.0
H688 H 0.76606 0.17667 0.4538 0.0
H689 H 0.71218 0.03625 0.43387 0.0
H690 H 0.69895 0.07455 0.45436 0.0
H691 H 0.77129 0.09734 0.46053 0.0
H692 H 0.78471 0.05916 0.44019 0.0
H693 H 0.74263 0.13419 0.4411 0.0
H694 H 0.74175 0.0795 0.51047 0.0
H695 H 0.73128 0.04178 0.5335 0.0
H696 H 0.65741 0.06154 0.52531 0.0
H697 H 0.66743 0.09922 0.50193 0.0
C698 C 0.70037 0.22854 0.50447 0.0
C699 C 0.67571 0.23067 0.5072 0.0
C700 C 0.71113 0.20556 0.49803 0.0
C701 C 0.69733 0.18448 0.49386 0.0
C702 C 0.67276 0.18662 0.49716 0.0
C703 C 0.6621 0.20939 0.50379 0.0
C704 C 0.70808 0.16029 0.48542 0.0
C705 C 0.70268 0.13816 0.49786 0.0
C706 C 0.72283 0.15876 0.46478 0.0
C707 C 0.72798 0.18102 0.44975 0.0
C708 C 0.70947 0.1955 0.43904 0.0
C709 C 0.71446 0.21653 0.425 0.0
C710 C 0.73791 0.22313 0.42136 0.0
C711 C 0.75643 0.20867 0.43171 0.0
C712 C 0.75153 0.18764 0.4458 0.0
C713 C 0.72534 0.04915 0.44 0.0
C714 C 0.74953 0.04456 0.43534 0.0
C715 C 0.71773 0.07108 0.4517 0.0
C716 C 0.73413 0.08886 0.45898 0.0
C717 C 0.75831 0.08395 0.45502 0.0
C718 C 0.76595 0.062 0.44346 0.0
C719 C 0.72598 0.1132 0.4694 0.0
C720 C 0.73184 0.13533 0.45728 0.0
C721 C 0.71142 0.11468 0.49015 0.0
C722 C 0.70535 0.09209 0.50428 0.0
C723 C 0.72327 0.07571 0.51342 0.0
C724 C 0.71741 0.05435 0.52657 0.0
C725 C 0.69369 0.04924 0.53082 0.0
C726 C 0.67578 0.06552 0.52198 0.0
C727 C 0.68154 0.08689 0.50881 0.0
H728 H 0.6892 0.0327 0.541 0.0
H729 H 0.74174 0.23942 0.41048 0.0
H730 H 0.05965 0.43303 0.77367 0.0
H731 H 0.09645 0.4514 0.75971 0.0
H732 H 0.07803 0.43416 0.6857 0.0
H733 H 0.04117 0.41613 0.69937 0.0
H734 H 0.12398 0.41638 0.70095 0.0
H735 H 0.07534 0.49215 0.70149 0.0
H736 H 0.04871 0.52371 0.72023 0.0
H737 H 0.10199 0.53893 0.77373 0.0
H738 H 0.12883 0.50717 0.75551 0.0
H739 H 0.21417 0.4736 0.63581 0.0
H740 H 0.17707 0.45903 0.65224 0.0
H741 H 0.1901 0.49907 0.71867 0.0
H742 H 0.22639 0.51551 0.70104 0.0
H743 H 0.14721 0.5045 0.70991 0.0
H744 H 0.19651 0.43009 0.71047 0.0
H745 H 0.22355 0.39768 0.69368 0.0
H746 H 0.17046 0.37797 0.64158 0.0
H747 H 0.14318 0.41046 0.65785 0.0
C748 C 0.06323 0.43356 0.75438 0.0
C749 C 0.04744 0.42314 0.73763 0.0
C750 C 0.08427 0.44404 0.74645 0.0
C751 C 0.08999 0.44405 0.72168 0.0
C752 C 0.07397 0.43429 0.7049 0.0
C753 C 0.05281 0.42415 0.71275 0.0
C754 C 0.11322 0.45297 0.71332 0.0
C755 C 0.12904 0.43569 0.70265 0.0
C756 C 0.12008 0.47794 0.71639 0.0
C757 C 0.10399 0.49709 0.72729 0.0
C758 C 0.08129 0.50206 0.71739 0.0
C759 C 0.06618 0.52002 0.72788 0.0
C760 C 0.07362 0.53327 0.7482 0.0
C761 C 0.09623 0.52863 0.75802 0.0
C762 C 0.11141 0.51066 0.7476 0.0
C763 C 0.20917 0.47903 0.65403 0.0
C764 C 0.22321 0.49525 0.6674 0.0
C765 C 0.18802 0.47054 0.66354 0.0
C766 C 0.18091 0.47718 0.68712 0.0
C767 C 0.19512 0.49345 0.70053 0.0
C768 C 0.21593 0.50271 0.69059 0.0
C769 C 0.15828 0.46791 0.69727 0.0
C770 C 0.14245 0.48509 0.70832 0.0
C771 C 0.15157 0.44265 0.69494 0.0
C772 C 0.16786 0.42287 0.68528 0.0
C773 C 0.19064 0.41893 0.69536 0.0
C774 C 0.206 0.40054 0.68593 0.0
C775 C 0.19874 0.38582 0.66654 0.0
C776 C 0.17606 0.3894 0.65658 0.0
C777 C 0.16063 0.40778 0.66593 0.0
H778 H 0.21068 0.37162 0.65924 0.0
H779 H 0.0619 0.54717 0.7563 0.0
H780 H 0.80068 0.96779 0.91142 0.0
H781 H 0.81083 0.9262 0.92761 0.0
H782 H 0.74822 0.92922 0.97203 0.0
H783 H 0.73879 0.97177 0.95664 0.0
H784 H 0.78206 0.90403 0.9957 0.0
H785 H 0.74936 0.89938 0.91664 0.0
H786 H 0.74443 0.91012 0.87326 0.0
H787 H 0.81452 0.8811 0.859 0.0
H788 H 0.82013 0.87061 0.90241 0.0
H789 H 0.79763 0.76672 1.00323 0.0
H790 H 0.77821 0.80735 0.99232 0.0
H791 H 0.84413 0.83273 0.96363 0.0
H792 H 0.86355 0.79304 0.97506 0.0
H793 H 0.8005 0.84079 0.93257 0.0
H794 H 0.83282 0.85142 0.01458 0.0
H795 H 0.83551 0.84024 0.05799 0.0
H796 H 0.76109 0.85608 0.06591 0.0
H797 H 0.75781 0.86685 0.0223 0.0
C798 C 0.78947 0.95982 0.92515 0.0
C799 C 0.76912 0.97295 0.933 0.0
C800 C 0.79509 0.93592 0.9342 0.0
C801 C 0.77994 0.92414 0.95055 0.0
C802 C 0.76014 0.93778 0.95934 0.0
C803 C 0.7548 0.96209 0.95066 0.0
C804 C 0.78433 0.89726 0.95722 0.0
C805 C 0.78564 0.89015 0.98184 0.0
C806 C 0.78876 0.87886 0.93922 0.0
C807 C 0.78525 0.88441 0.9129 0.0
C808 C 0.7638 0.89541 0.90431 0.0
C809 C 0.7609 0.90149 0.87971 0.0
C810 C 0.77921 0.89643 0.86343 0.0
C811 C 0.80041 0.88511 0.87168 0.0
C812 C 0.80346 0.87907 0.89628 0.0
C813 C 0.80782 0.78099 0.99447 0.0
C814 C 0.83207 0.77676 0.99001 0.0
C815 C 0.79678 0.80414 0.98831 0.0
C816 C 0.80977 0.82302 0.97712 0.0
C817 C 0.83378 0.81844 0.97216 0.0
C818 C 0.84485 0.79574 0.9788 0.0
C819 C 0.79898 0.84796 0.9709 0.0
C820 C 0.79644 0.85465 0.94632 0.0
C821 C 0.79295 0.86574 0.98889 0.0
C822 C 0.79501 0.8596 0.01512 0.0
C823 C 0.81697 0.85226 0.0255 0.0
C824 C 0.81862 0.84605 0.05016 0.0
C825 C 0.7985 0.84738 0.06471 0.0
C826 C 0.77666 0.855 0.05461 0.0
C827 C 0.77489 0.86115 0.02992 0.0
H828 H 0.79986 0.84257 0.08382 0.0
H829 H 0.77695 0.90118 0.8444 0.0
H830 H 0.45785 0.5709 0.26964 0.0
H831 H 0.42144 0.55345 0.25345 0.0
H832 H 0.4419 0.57389 0.1809 0.0
H833 H 0.4785 0.59111 0.19688 0.0
H834 H 0.39588 0.59155 0.19455 0.0
H835 H 0.44283 0.51503 0.19463 0.0
H836 H 0.46892 0.48214 0.21291 0.0
H837 H 0.41544 0.46566 0.26509 0.0
H838 H 0.38914 0.49873 0.24734 0.0
H839 H 0.30168 0.53817 0.13025 0.0
H840 H 0.3399 0.55136 0.14574 0.0
H841 H 0.32791 0.51172 0.21296 0.0
H842 H 0.29026 0.49704 0.19649 0.0
H843 H 0.3703 0.50404 0.20243 0.0
H844 H 0.32343 0.5803 0.20446 0.0
H845 H 0.2972 0.61439 0.18853 0.0
H846 H 0.34934 0.63301 0.13565 0.0
H847 H 0.3758 0.59886 0.15109 0.0
C848 C 0.45482 0.57125 0.25019 0.0
C849 C 0.47107 0.58237 0.23453 0.0
C850 C 0.43401 0.56127 0.24098 0.0
C851 C 0.42896 0.56245 0.21599 0.0
C852 C 0.44548 0.57282 0.20024 0.0
C853 C 0.46647 0.58248 0.20939 0.0
C854 C 0.40579 0.55432 0.20651 0.0
C855 C 0.39033 0.57236 0.19593 0.0
C856 C 0.39834 0.52948 0.20916 0.0
C857 C 0.41411 0.50953 0.2198 0.0
C858 C 0.43671 0.50455 0.21014 0.0
C859 C 0.45152 0.48584 0.22038 0.0
C860 C 0.44387 0.47186 0.24019 0.0
C861 C 0.42136 0.47653 0.24977 0.0
C862 C 0.40648 0.49524 0.23961 0.0
C863 C 0.30717 0.53258 0.14846 0.0
C864 C 0.29301 0.51707 0.16245 0.0
C865 C 0.32897 0.54022 0.15739 0.0
C866 C 0.3367 0.53319 0.18087 0.0
C867 C 0.32239 0.51758 0.19486 0.0
C868 C 0.30085 0.50931 0.18558 0.0
C869 C 0.36004 0.54132 0.19041 0.0
C870 C 0.37562 0.5233 0.20104 0.0
C871 C 0.36746 0.56635 0.18818 0.0
C872 C 0.35154 0.58689 0.17884 0.0
C873 C 0.32926 0.59157 0.18935 0.0
C874 C 0.31437 0.61095 0.18045 0.0
C875 C 0.32162 0.62586 0.16112 0.0
C876 C 0.34377 0.62145 0.15064 0.0
C877 C 0.35873 0.60212 0.15949 0.0
H878 H 0.31003 0.6408 0.15421 0.0
H879 H 0.45536 0.45738 0.24809 0.0
H880 H 0.55561 0.18964 0.28589 0.0
H881 H 0.56736 0.21043 0.32339 0.0
H882 H 0.49395 0.22148 0.34239 0.0
H883 H 0.48201 0.20082 0.3051 0.0
H884 H 0.55718 0.25654 0.34854 0.0
H885 H 0.4893 0.19939 0.40002 0.0
H886 H 0.46645 0.16125 0.39413 0.0
H887 H 0.52205 0.12984 0.35012 0.0
H888 H 0.54535 0.16759 0.35606 0.0
H889 H 0.56719 0.29284 0.47133 0.0
H890 H 0.5484 0.28227 0.43269 0.0
H891 H 0.57592 0.20642 0.43991 0.0
H892 H 0.59373 0.2166 0.47899 0.0
H893 H 0.53449 0.20555 0.4199 0.0
H894 H 0.60457 0.25417 0.40614 0.0
H895 H 0.62843 0.29159 0.41189 0.0
H896 H 0.57274 0.33764 0.37997 0.0
H897 H 0.54845 0.3005 0.37428 0.0
C898 C 0.54194 0.19713 0.29768 0.0
C899 C 0.51788 0.19317 0.29269 0.0
C900 C 0.5487 0.20906 0.31909 0.0
C901 C 0.53152 0.21712 0.3358 0.0
C902 C 0.50748 0.21515 0.32983 0.0
C903 C 0.50071 0.20328 0.30849 0.0
C904 C 0.53864 0.22427 0.36072 0.0
C905 C 0.55215 0.24552 0.36418 0.0
C906 C 0.53231 0.20967 0.38105 0.0
C907 C 0.51893 0.18641 0.3783 0.0
C908 C 0.4967 0.18426 0.38924 0.0
C909 C 0.48366 0.16272 0.38586 0.0
C910 C 0.49275 0.14317 0.37169 0.0
C911 C 0.51499 0.14502 0.36103 0.0
C912 C 0.52811 0.16648 0.36439 0.0
C913 C 0.56882 0.2738 0.46486 0.0
C914 C 0.58204 0.25557 0.4781 0.0
C915 C 0.55823 0.26781 0.4427 0.0
C916 C 0.56127 0.24371 0.43302 0.0
C917 C 0.57339 0.22518 0.44689 0.0
C918 C 0.58355 0.23101 0.46928 0.0
C919 C 0.5531 0.23796 0.40796 0.0
C920 C 0.53938 0.21683 0.40439 0.0
C921 C 0.55961 0.25248 0.38753 0.0
C922 C 0.57464 0.2746 0.38994 0.0
C923 C 0.59743 0.27228 0.40035 0.0
C924 C 0.61101 0.29344 0.40363 0.0
C925 C 0.60208 0.31698 0.39635 0.0
C926 C 0.57962 0.31939 0.38561 0.0
C927 C 0.56596 0.29829 0.38232 0.0
H928 H 0.61257 0.33336 0.39901 0.0
H929 H 0.48259 0.12657 0.36902 0.0
H930 H 0.09831 0.31382 0.5239 0.0
H931 H 0.08402 0.32263 0.56481 0.0
H932 H 0.07749 0.24356 0.57821 0.0
H933 H 0.09064 0.23485 0.53673 0.0
H934 H 0.04145 0.26586 0.59658 0.0
H935 H 0.12395 0.28023 0.60259 0.0
H936 H 0.16307 0.29759 0.59439 0.0
H937 H 0.13537 0.37161 0.60843 0.0
H938 H 0.096 0.35482 0.61628 0.0
H939 H 0.02737 0.29052 0.72619 0.0
H940 H 0.04289 0.27488 0.68723 0.0
H941 H 0.03794 0.34961 0.65746 0.0
H942 H 0.02222 0.36511 0.69574 0.0
H943 H 0.08223 0.32533 0.65009 0.0
H944 H 0.99866 0.30937 0.64093 0.0
H945 H 0.96122 0.29052 0.65304 0.0
H946 H 0.9936 0.21715 0.64771 0.0
H947 H 0.03137 0.2356 0.63591 0.0
C948 C 0.09377 0.29832 0.53555 0.0
C949 C 0.09591 0.27362 0.52719 0.0
C950 C 0.08582 0.30335 0.5591 0.0
C951 C 0.08014 0.28378 0.57504 0.0
C952 C 0.08189 0.25906 0.56649 0.0
C953 C 0.08957 0.25406 0.5428 0.0
C954 C 0.07172 0.28923 0.60026 0.0
C955 C 0.05069 0.27855 0.60837 0.0
C956 C 0.0835 0.30595 0.61585 0.0
C957 C 0.10692 0.31624 0.60988 0.0
C958 C 0.1261 0.30025 0.60361 0.0
C959 C 0.14835 0.30999 0.59909 0.0
C960 C 0.1517 0.33567 0.60096 0.0
C961 C 0.13276 0.35171 0.60704 0.0
C962 C 0.11047 0.34209 0.61152 0.0
C963 C 0.02944 0.3035 0.71123 0.0
C964 C 0.02361 0.32905 0.7141 0.0
C965 C 0.0383 0.29458 0.689 0.0
C966 C 0.04167 0.31111 0.66941 0.0
C967 C 0.03563 0.33652 0.67229 0.0
C968 C 0.02654 0.34533 0.69424 0.0
C969 C 0.05191 0.30242 0.64593 0.0
C970 C 0.07326 0.31249 0.63824 0.0
C971 C 0.04064 0.28495 0.63091 0.0
C972 C 0.01791 0.27387 0.63783 0.0
C973 C 0.99786 0.28922 0.64256 0.0
C974 C 0.97657 0.27861 0.64932 0.0
C975 C 0.97505 0.25266 0.65122 0.0
C976 C 0.99481 0.23726 0.64628 0.0
C977 C 0.01616 0.24778 0.63955 0.0
H978 H 0.95855 0.24447 0.65646 0.0
H979 H 0.169 0.34316 0.59784 0.0
H980 H 0.97238 0.81907 0.76889 0.0
H981 H 0.95701 0.79866 0.80512 0.0
H982 H 0.02187 0.81319 0.84369 0.0
H983 H 0.03768 0.83261 0.80748 0.0
H984 H 1.0064 0.77112 0.85897 0.0
H985 H 0.97192 0.85334 0.84579 0.0
H986 H 0.95034 0.88631 0.82226 0.0
H987 H 0.88876 0.84127 0.81977 0.0
H988 H 0.91011 0.80782 0.84289 0.0
H989 H 0.92383 0.79733 0.97053 0.0
H990 H 0.94366 0.81052 0.93351 0.0
H991 H 0.94908 0.73384 0.91005 0.0
H992 H 0.92967 0.72043 0.94715 0.0
H993 H 0.92993 0.80744 0.88778 0.0
H994 H 0.99831 0.72519 0.87548 0.0
H995 H 0.0226 0.69606 0.90097 0.0
H996 H 0.02069 0.74873 0.95943 0.0
H997 H 0.99671 0.77829 0.93419 0.0
C998 C 0.98361 0.81737 0.78488 0.0
C999 C 1.00615 0.82785 0.7853 0.0
C1000 C 0.97472 0.80586 0.80568 0.0
C1001 C 0.98801 0.80501 0.8274 0.0
C1002 C 0.01117 0.81376 0.82727 0.0
C1003 C 0.02018 0.82495 0.80646 0.0
C1004 C 0.97734 0.79687 0.8507 0.0
C1005 C 0.9896 0.77894 0.86517 0.0
C1006 C 0.95575 0.80761 0.85924 0.0
C1007 C 0.94272 0.82794 0.84582 0.0
C1008 C 0.95382 0.8504 0.8401 0.0
C1009 C 0.94164 0.86917 0.82683 0.0
C1010 C 0.91826 0.86579 0.81941 0.0
C1011 C 0.90692 0.84378 0.82544 0.0
C1012 C 0.91905 0.82491 0.83862 0.0
C1013 C 0.92954 0.7832 0.95768 0.0
C1014 C 0.92516 0.7578 0.96188 0.0
C1015 C 0.94074 0.79081 0.93643 0.0
C1016 C 0.94792 0.77319 0.91898 0.0
C1017 C 0.94397 0.74777 0.92334 0.0
C1018 C 0.9328 0.74014 0.94459 0.0
C1019 C 0.95884 0.78147 0.89589 0.0
C1020 C 0.94664 0.79946 0.88149 0.0
C1021 C 0.98083 0.77139 0.88779 0.0
C1022 C 0.99548 0.75382 0.90301 0.0
C1023 C 1.00314 0.73058 0.89374 0.0
C1024 C 0.01685 0.71399 0.90815 0.0
C1025 C 0.02311 0.7205 0.93183 0.0
C1026 C 0.01575 0.74366 0.94112 0.0
C1027 C 1.00207 0.76032 0.92678 0.0
H1028 H 0.03371 0.70763 0.94296 0.0
H1029 H 0.9089 0.88023 0.809 0.0
H1030 H 0.51076 0.64489 0.19356 0.0
H1031 H 0.49829 0.66147 0.15388 0.0
H1032 H 0.47132 0.72873 0.18771 0.0
H1033 H 0.48483 0.71264 0.22765 0.0
H1034 H 0.43989 0.69176 0.15217 0.0
H1035 H 0.50966 0.74384 0.16041 0.0
H1036 H 0.5524 0.74795 0.16829 0.0
H1037 H 0.5684 0.69894 0.10885 0.0
H1038 H 0.52571 0.69427 0.10086 0.0
H1039 H 0.39528 0.75579 0.05054 0.0
H1040 H 0.41362 0.74452 0.08917 0.0
H1041 H 0.47379 0.71211 0.05169 0.0
H1042 H 0.45628 0.72605 0.01268 0.0
H1043 H 0.49011 0.73017 0.08948 0.0
H1044 H 0.42502 0.67743 0.07822 0.0
H1045 H 0.38419 0.66404 0.07085 0.0
H1046 H 0.36073 0.70314 0.13447 0.0
H1047 H 0.40127 0.71724 0.14195 0.0
C1048 C 0.50281 0.66351 0.19257 0.0
C1049 C 0.49911 0.67759 0.21376 0.0
C1050 C 0.49555 0.67288 0.16985 0.0
C1051 C 0.48402 0.69635 0.16785 0.0
C1052 C 0.48038 0.71062 0.1889 0.0
C1053 C 0.48812 0.70145 0.21166 0.0
C1054 C 0.47439 0.705 0.14396 0.0
C1055 C 0.45063 0.70066 0.13855 0.0
C1056 C 0.4889 0.71511 0.12582 0.0
C1057 C 0.51451 0.71853 0.13019 0.0
C1058 C 0.52229 0.7338 0.14914 0.0
C1059 C 0.5465 0.73626 0.1536 0.0
C1060 C 0.56311 0.72365 0.13913 0.0
C1061 C 0.55552 0.70867 0.12007 0.0
C1062 C 0.53132 0.70615 0.11554 0.0
C1063 C 0.41272 0.74694 0.05045 0.0
C1064 C 0.42447 0.74227 0.02848 0.0
C1065 C 0.42303 0.73989 0.07268 0.0
C1066 C 0.44489 0.72668 0.07364 0.0
C1067 C 0.45687 0.72216 0.05165 0.0
C1068 C 0.44684 0.73005 0.0293 0.0
C1069 C 0.45499 0.71774 0.09757 0.0
C1070 C 0.47902 0.7216 0.10298 0.0
C1071 C 0.44083 0.7063 0.11552 0.0
C1072 C 0.41621 0.69857 0.11054 0.0
C1073 C 0.41112 0.68343 0.09048 0.0
C1074 C 0.38802 0.67568 0.08631 0.0
C1075 C 0.36991 0.68272 0.1022 0.0
C1076 C 0.37479 0.6977 0.12218 0.0
C1077 C 0.39782 0.7056 0.12638 0.0
H1078 H 0.3521 0.67648 0.09914 0.0
H1079 H 0.58184 0.72553 0.14265 0.0
H1080 H 0.15138 0.30129 0.3085 0.0
H1081 H 0.16528 0.32572 0.27407 0.0
H1082 H 0.19175 0.38087 0.32328 0.0
H1083 H 0.17722 0.35691 0.35781 0.0
H1084 H 0.16586 0.40224 0.28705 0.0
H1085 H 0.22909 0.3395 0.2928 0.0
H1086 H 0.2445 0.29593 0.29476 0.0
H1087 H 0.21458 0.28187 0.22441 0.0
H1088 H 0.19869 0.32529 0.22218 0.0
H1089 H 0.22943 0.47664 0.20925 0.0
H1090 H 0.22084 0.44598 0.24064 0.0
H1091 H 0.19617 0.39539 0.18597 0.0
H1092 H 0.20537 0.42612 0.15413 0.0
H1093 H 0.21987 0.37012 0.22305 0.0
H1094 H 0.15666 0.43075 0.21624 0.0
H1095 H 0.13813 0.47301 0.21368 0.0
H1096 H 0.16486 0.48965 0.28479 0.0
H1097 H 0.18386 0.4476 0.28763 0.0
C1098 C 0.16016 0.31862 0.31203 0.0
C1099 C 0.16307 0.32718 0.33597 0.0
C1100 C 0.16832 0.33246 0.2923 0.0
C1101 C 0.17974 0.35507 0.29604 0.0
C1102 C 0.18305 0.36344 0.31993 0.0
C1103 C 0.1749 0.34961 0.33968 0.0
C1104 C 0.18712 0.3707 0.27508 0.0
C1105 C 0.17797 0.3953 0.27329 0.0
C1106 C 0.20213 0.36136 0.25652 0.0
C1107 C 0.21248 0.33557 0.25745 0.0
C1108 C 0.22572 0.32709 0.27779 0.0
C1109 C 0.23454 0.30242 0.27895 0.0
C1110 C 0.23038 0.2861 0.25978 0.0
C1111 C 0.2177 0.29452 0.23928 0.0
C1112 C 0.20881 0.31916 0.23805 0.0
C1113 C 0.22243 0.45887 0.20383 0.0
C1114 C 0.21771 0.4539 0.17929 0.0
C1115 C 0.21748 0.44137 0.22182 0.0
C1116 C 0.20731 0.41861 0.21576 0.0
C1117 C 0.20385 0.41291 0.1911 0.0
C1118 C 0.20906 0.43045 0.17294 0.0
C1119 C 0.19902 0.40182 0.23542 0.0
C1120 C 0.20783 0.37703 0.23688 0.0
C1121 C 0.1834 0.41082 0.25359 0.0
C1122 C 0.17186 0.43609 0.25205 0.0
C1123 C 0.15873 0.44348 0.23126 0.0
C1124 C 0.14813 0.46739 0.22977 0.0
C1125 C 0.15036 0.48402 0.24904 0.0
C1126 C 0.16316 0.47675 0.26987 0.0
C1127 C 0.17384 0.45288 0.27144 0.0
H1128 H 0.14213 0.50252 0.24785 0.0
H1129 H 0.23693 0.26691 0.26081 0.0
H1130 H 0.95511 0.90892 0.58163 0.0
H1131 H 0.93627 0.92064 0.5428 0.0
H1132 H 0.86819 0.9024 0.57177 0.0
H1133 H 0.88692 0.88955 0.61 0.0
H1134 H 0.87125 0.88537 0.52796 0.0
H1135 H 0.88866 0.96442 0.56543 0.0
H1136 H 0.9146 0.99583 0.58325 0.0
H1137 H 0.95378 0.99908 0.51688 0.0
H1138 H 0.92824 0.96743 0.49877 0.0
H1139 H 0.78452 0.95462 0.46649 0.0
H1140 H 0.81486 0.94157 0.49569 0.0
H1141 H 0.86858 0.94999 0.44137 0.0
H1142 H 0.8377 0.96311 0.41136 0.0
H1143 H 0.87939 0.96966 0.49137 0.0
H1144 H 0.85687 0.89431 0.45247 0.0
H1145 H 0.82872 0.8646 0.4355 0.0
H1146 H 0.79753 0.85561 0.50574 0.0
H1147 H 0.82525 0.88557 0.52307 0.0
C1148 C 0.93616 0.90711 0.57967 0.0
C1149 C 0.92259 0.89838 0.59919 0.0
C1150 C 0.92534 0.91413 0.55747 0.0
C1151 C 0.90068 0.91278 0.55429 0.0
C1152 C 0.88722 0.90375 0.57363 0.0
C1153 C 0.89798 0.89663 0.5957 0.0
C1154 C 0.8886 0.92052 0.53098 0.0
C1155 C 0.87307 0.90384 0.52006 0.0
C1156 C 0.89141 0.94433 0.51999 0.0
C1157 C 0.90675 0.96333 0.53087 0.0
C1158 C 0.90293 0.97168 0.55471 0.0
C1159 C 0.91754 0.98955 0.56485 0.0
C1160 C 0.93588 0.99938 0.55124 0.0
C1161 C 0.93961 0.99141 0.52742 0.0
C1162 C 0.92507 0.97351 0.51722 0.0
C1163 C 0.80275 0.95379 0.46054 0.0
C1164 C 0.80861 0.95964 0.43642 0.0
C1165 C 0.82013 0.9463 0.47738 0.0
C1166 C 0.84398 0.94448 0.47073 0.0
C1167 C 0.85023 0.95116 0.44688 0.0
C1168 C 0.83262 0.95857 0.42975 0.0
C1169 C 0.86167 0.93473 0.48899 0.0
C1170 C 0.87811 0.951 0.49899 0.0
C1171 C 0.85963 0.91059 0.49932 0.0
C1172 C 0.84309 0.89229 0.48904 0.0
C1173 C 0.84391 0.88612 0.46427 0.0
C1174 C 0.82804 0.86921 0.45459 0.0
C1175 C 0.81133 0.85824 0.46953 0.0
C1176 C 0.81049 0.86411 0.49419 0.0
C1177 C 0.82631 0.88103 0.50396 0.0
H1178 H 0.79905 0.84517 0.46199 0.0
H1179 H 0.94716 0.01322 0.55911 0.0
H1180 H 0.27275 0.57286 0.67337 0.0
H1181 H 0.27608 0.60048 0.70871 0.0
H1182 H 0.34827 0.57388 0.71997 0.0
H1183 H 0.34459 0.5459 0.68549 0.0
H1184 H 0.326 0.57193 0.76069 0.0
H1185 H 0.3298 0.63475 0.69608 0.0
H1186 H 0.31348 0.65758 0.66033 0.0
H1187 H 0.25301 0.68179 0.70164 0.0
H1188 H 0.26871 0.65867 0.73748 0.0
H1189 H 0.37821 0.65353 0.84169 0.0
H1190 H 0.36622 0.63101 0.80556 0.0
H1191 H 0.2964 0.66552 0.80934 0.0
H1192 H 0.30847 0.6885 0.84565 0.0
H1193 H 0.31049 0.66359 0.76299 0.0
H1194 H 0.30612 0.60465 0.82745 0.0
H1195 H 0.31954 0.58096 0.86385 0.0
H1196 H 0.37747 0.54846 0.8238 0.0
H1197 H 0.36461 0.57225 0.78725 0.0
C1198 C 0.28943 0.57342 0.68314 0.0
C1199 C 0.30848 0.5574 0.67665 0.0
C1200 C 0.29134 0.58915 0.70338 0.0
C1201 C 0.3125 0.58941 0.71714 0.0
C1202 C 0.33171 0.574 0.7099 0.0
C1203 C 0.32966 0.5581 0.69006 0.0
C1204 C 0.3147 0.60442 0.73983 0.0
C1205 C 0.32286 0.59203 0.76103 0.0
C1206 C 0.30944 0.63048 0.74083 0.0
C1207 C 0.30031 0.64476 0.71938 0.0
C1208 C 0.31294 0.64481 0.69749 0.0
C1209 C 0.30379 0.65778 0.6772 0.0
C1210 C 0.28215 0.67102 0.67867 0.0
C1211 C 0.26971 0.67144 0.70048 0.0
C1212 C 0.27872 0.6584 0.72078 0.0
C1213 C 0.3602 0.65618 0.83507 0.0
C1214 C 0.34421 0.67257 0.84688 0.0
C1215 C 0.35336 0.6433 0.81429 0.0
C1216 C 0.33023 0.64613 0.80487 0.0
C1217 C 0.31432 0.66291 0.81625 0.0
C1218 C 0.32123 0.67601 0.83704 0.0
C1219 C 0.32292 0.63119 0.78337 0.0
C1220 C 0.31358 0.64349 0.76259 0.0
C1221 C 0.32677 0.60492 0.78274 0.0
C1222 C 0.33448 0.59038 0.80464 0.0
C1223 C 0.32181 0.59257 0.82644 0.0
C1224 C 0.32931 0.57911 0.8471 0.0
C1225 C 0.34937 0.56325 0.84615 0.0
C1226 C 0.36194 0.56077 0.82452 0.0
C1227 C 0.35454 0.57422 0.80381 0.0
H1228 H 0.35515 0.55285 0.86216 0.0
H1229 H 0.27507 0.68101 0.66293 0.0
H1230 H 0.57267 0.11986 0.08585 0.0
H1231 H 0.5915 0.10255 0.04961 0.0
H1232 H 0.6303 0.04844 0.09404 0.0
H1233 H 0.61198 0.0661 0.13047 0.0
H1234 H 0.65904 0.06954 0.0629 0.0
H1235 H 0.58471 0.0307 0.05747 0.0
H1236 H 0.54122 0.02811 0.05691 0.0
H1237 H 0.53727 0.07493 0.99326 0.0
H1238 H 0.58074 0.07809 0.99363 0.0
H1239 H 0.67304 0.9992 0.94052 0.0
H1240 H 0.64922 0.00846 0.97658 0.0
H1241 H 0.67851 0.08183 0.98019 0.0
H1242 H 0.70232 0.07282 0.94446 0.0
H1243 H 0.61537 0.04464 0.98877 0.0
H1244 H 0.69107 0.09472 0.03889 0.0
H1245 H 0.73475 0.09347 0.0404 0.0
H1246 H 0.73595 0.01702 0.01715 0.0
H1247 H 0.69231 0.01768 0.01589 0.0
C1248 C 0.58522 0.10427 0.08794 0.0
C1249 C 0.59084 0.09444 0.11113 0.0
C1250 C 0.5958 0.09422 0.06714 0.0
C1251 C 0.61222 0.07403 0.069 0.0
C1252 C 0.61766 0.06397 0.09209 0.0
C1253 C 0.60702 0.07397 0.11291 0.0
C1254 C 0.62459 0.06434 0.04701 0.0
C1255 C 0.64944 0.06404 0.04675 0.0
C1256 C 0.61216 0.05663 0.02601 0.0
C1257 C 0.586 0.0548 0.0257 0.0
C1258 C 0.57457 0.04061 0.04346 0.0
C1259 C 0.54991 0.03901 0.04316 0.0
C1260 C 0.53649 0.05139 0.02509 0.0
C1261 C 0.5477 0.06536 0.00726 0.0
C1262 C 0.57235 0.06704 0.00749 0.0
C1263 C 0.67421 0.01742 0.94881 0.0
C1264 C 0.68979 0.03517 0.93962 0.0
C1265 C 0.66054 0.02269 0.96942 0.0
C1266 C 0.66233 0.04571 0.98132 0.0
C1267 C 0.6771 0.06379 0.97156 0.0
C1268 C 0.69069 0.05859 0.95102 0.0
C1269 C 0.6497 0.05065 1.00452 0.0
C1270 C 0.62489 0.05006 1.00499 0.0
C1271 C 0.66214 0.05707 0.02592 0.0
C1272 C 0.68841 0.05635 0.02709 0.0
C1273 C 0.70066 0.07761 0.03423 0.0
C1274 C 0.72541 0.07701 0.03502 0.0
C1275 C 0.73811 0.05521 0.02881 0.0
C1276 C 0.72609 0.03392 0.02189 0.0
C1277 C 0.70135 0.03441 0.02111 0.0
H1278 H 0.75727 0.0548 0.0294 0.0
H1279 H 0.5174 0.05011 0.02488 0.0
H1280 H 0.68389 0.1482 0.64866 0.0
H1281 H 0.69723 0.12594 0.68549 0.0
H1282 H 0.65065 0.17267 0.72849 0.0
H1283 H 0.63725 0.19518 0.69164 0.0
H1284 H 0.69704 0.16255 0.75027 0.0
H1285 H 0.63179 0.119 0.71541 0.0
H1286 H 0.60989 0.09892 0.6823 0.0
H1287 H 0.66761 0.04595 0.67276 0.0
H1288 H 0.69001 0.06597 0.70559 0.0
H1289 H 0.70151 0.07641 0.85311 0.0
H1290 H 0.6907 0.10732 0.82123 0.0
H1291 H 0.72172 0.05855 0.76727 0.0
H1292 H 0.73161 0.02765 0.79866 0.0
H1293 H 0.68009 0.07217 0.75295 0.0
H1294 H 0.74654 0.11576 0.78552 0.0
H1295 H 0.77018 0.1363 0.81698 0.0
H1296 H 0.71268 0.18852 0.83016 0.0
H1297 H 0.68858 0.16822 0.7988 0.0
C1298 C 0.67677 0.15405 0.66598 0.0
C1299 C 0.65941 0.17339 0.66719 0.0
C1300 C 0.68434 0.14124 0.68701 0.0
C1301 C 0.67482 0.14755 0.70972 0.0
C1302 C 0.65822 0.16751 0.71117 0.0
C1303 C 0.65045 0.1802 0.69008 0.0
C1304 C 0.68106 0.1321 0.73153 0.0
C1305 C 0.6931 0.14285 0.75108 0.0
C1306 C 0.67619 0.10635 0.73241 0.0
C1307 C 0.66265 0.09413 0.71281 0.0
C1308 C 0.63988 0.10319 0.70613 0.0
C1309 C 0.62737 0.0918 0.68743 0.0
C1310 C 0.63737 0.0712 0.6754 0.0
C1311 C 0.65989 0.06192 0.68208 0.0
C1312 C 0.6725 0.07327 0.70075 0.0
C1313 C 0.70625 0.07257 0.83446 0.0
C1314 C 0.71713 0.04956 0.82827 0.0
C1315 C 0.70015 0.09024 0.81625 0.0
C1316 C 0.70528 0.08528 0.79171 0.0
C1317 C 0.71727 0.06278 0.78593 0.0
C1318 C 0.72298 0.04512 0.80393 0.0
C1319 C 0.69685 0.1023 0.77163 0.0
C1320 C 0.68411 0.09186 0.75235 0.0
C1321 C 0.70132 0.12823 0.771 0.0
C1322 C 0.71566 0.14028 0.79003 0.0
C1323 C 0.73885 0.13148 0.79528 0.0
C1324 C 0.75236 0.14311 0.81307 0.0
C1325 C 0.74293 0.16361 0.82567 0.0
C1326 C 0.71996 0.17259 0.82044 0.0
C1327 C 0.70637 0.16106 0.80263 0.0
H1328 H 0.75345 0.17258 0.83941 0.0
H1329 H 0.62766 0.06241 0.66093 0.0
H1330 H 0.18033 0.50937 0.05447 0.0
H1331 H 0.15653 0.5 0.01862 0.0
H1332 H 0.16255 0.42125 0.03608 0.0
H1333 H 0.18757 0.43051 0.0711 0.0
H1334 H 0.17016 0.42652 0.99121 0.0
H1335 H 0.10871 0.46114 0.04354 0.0
H1336 H 0.09161 0.49404 0.06988 0.0
H1337 H 0.09217 0.5465 0.01055 0.0
H1338 H 0.10931 0.51391 0.98387 0.0
H1339 H 0.08156 0.37611 0.91996 0.0
H1340 H 0.10112 0.39376 0.9552 0.0
H1341 H 0.10463 0.46483 0.91827 0.0
H1342 H 0.08537 0.44706 0.88239 0.0
H1343 H 0.09269 0.46758 0.97016 0.0
H1344 H 0.15177 0.43207 0.91752 0.0
H1345 H 0.16962 0.39941 0.8915 0.0
H1346 H 0.17421 0.34882 0.95236 0.0
H1347 H 0.15602 0.38107 0.97867 0.0
C1348 C 0.17635 0.49007 0.05078 0.0
C1349 C 0.18579 0.47064 0.06559 0.0
C1350 C 0.1626 0.48473 0.03031 0.0
C1351 C 0.15735 0.4599 0.02469 0.0
C1352 C 0.16634 0.44056 0.0399 0.0
C1353 C 0.18059 0.44585 0.05998 0.0
C1354 C 0.1436 0.45374 1.00237 0.0
C1355 C 0.15307 0.43531 0.98691 0.0
C1356 C 0.12169 0.46586 0.99603 0.0
C1357 C 0.11044 0.48514 0.01177 0.0
C1358 C 0.10518 0.47969 0.03612 0.0
C1359 C 0.09549 0.49828 0.05111 0.0
C1360 C 0.09089 0.52237 0.04191 0.0
C1361 C 0.09579 0.52785 0.01766 0.0
C1362 C 0.10539 0.5093 1.00257 0.0
C1363 C 0.08658 0.39547 0.91917 0.0
C1364 C 0.08241 0.40997 0.89806 0.0
C1365 C 0.09755 0.4056 0.93946 0.0
C1366 C 0.10457 0.4305 0.93925 0.0
C1367 C 0.09935 0.44554 0.91878 0.0
C1368 C 0.08841 0.43534 0.89829 0.0
C1369 C 0.119 0.43982 0.95976 0.0
C1370 C 0.10978 0.45888 0.97466 0.0
C1371 C 0.14116 0.42829 0.96573 0.0
C1372 C 0.15235 0.40893 0.95001 0.0
C1373 C 0.15642 0.41392 0.92531 0.0
C1374 C 0.16662 0.39549 0.91052 0.0
C1375 C 0.173 0.37204 0.92026 0.0
C1376 C 0.16924 0.36699 0.94484 0.0
C1377 C 0.159 0.38535 0.9597 0.0
H1378 H 0.1809 0.35779 0.90878 0.0
H1379 H 0.08346 0.53676 0.05355 0.0
H1380 H 0.82592 0.96154 0.31537 0.0
H1381 H 0.83526 0.93823 0.27869 0.0
H1382 H 0.77108 0.89738 0.28616 0.0
H1383 H 0.76163 0.92054 0.32331 0.0
H1384 H 0.80757 0.86668 0.27181 0.0
H1385 H 0.77339 0.94464 0.24547 0.0
H1386 H 0.76778 0.99048 0.24375 0.0
H1387 H 0.8388 0.99755 0.21799 0.0
H1388 H 0.84497 0.95173 0.21991 0.0
H1389 H 0.81553 0.82315 0.14825 0.0
H1390 H 0.80163 0.84248 0.18594 0.0
H1391 H 0.86409 0.88672 0.18865 0.0
H1392 H 0.87837 0.86719 0.15147 0.0
H1393 H 0.82426 0.91502 0.19698 0.0
H1394 H 0.85837 0.83625 0.22583 0.0
H1395 H 0.86287 0.79028 0.22726 0.0
H1396 H 0.78993 0.78471 0.24732 0.0
H1397 H 0.78493 0.83068 0.24572 0.0
C1398 C 0.81377 0.94753 0.30939 0.0
C1399 C 0.79289 0.94313 0.32232 0.0
C1400 C 0.81912 0.93424 0.28827 0.0
C1401 C 0.8037 0.91631 0.27933 0.0
C1402 C 0.78322 0.91119 0.29259 0.0
C1403 C 0.77782 0.92452 0.31383 0.0
C1404 C 0.80888 0.90348 0.25587 0.0
C1405 C 0.81083 0.87724 0.25536 0.0
C1406 C 0.81336 0.91717 0.23435 0.0
C1407 C 0.80971 0.94475 0.23303 0.0
C1408 C 0.78788 0.95597 0.23961 0.0
C1409 C 0.78459 0.98195 0.23857 0.0
C1410 C 0.80294 0.99692 0.23081 0.0
C1411 C 0.82461 0.98593 0.22402 0.0
C1412 C 0.82801 0.95995 0.22506 0.0
C1413 C 0.82648 0.83677 0.15698 0.0
C1414 C 0.84809 0.8436 0.1466 0.0
C1415 C 0.81844 0.84788 0.17854 0.0
C1416 C 0.83183 0.86604 0.19024 0.0
C1417 C 0.85335 0.87288 0.17993 0.0
C1418 C 0.86144 0.86174 0.15851 0.0
C1419 C 0.82348 0.87826 0.21304 0.0
C1420 C 0.82085 0.90444 0.21339 0.0
C1421 C 0.81819 0.86448 0.23429 0.0
C1422 C 0.82121 0.83688 0.2354 0.0
C1423 C 0.84325 0.82521 0.23036 0.0
C1424 C 0.84589 0.79916 0.23124 0.0
C1425 C 0.82668 0.78458 0.23731 0.0
C1426 C 0.80479 0.79603 0.24259 0.0
C1427 C 0.80204 0.82208 0.24172 0.0
H1428 H 0.82876 0.76441 0.23797 0.0
H1429 H 0.80036 0.01704 0.23002 0.0
H1430 H 0.3145 0.58626 0.56771 0.0
H1431 H 0.33654 0.59742 0.53146 0.0
H1432 H 0.3595 0.52039 0.52304 0.0
H1433 H 0.33809 0.50918 0.55973 0.0
H1434 H 0.39445 0.54915 0.51132 0.0
H1435 H 0.31276 0.54678 0.48915 0.0
H1436 H 0.27 0.55679 0.4921 0.0
H1437 H 0.28296 0.63458 0.48026 0.0
H1438 H 0.32586 0.62507 0.47758 0.0
H1439 H 0.42433 0.56461 0.38527 0.0
H1440 H 0.40464 0.55087 0.42227 0.0
H1441 H 0.39028 0.62764 0.44178 0.0
H1442 H 0.41069 0.64163 0.40563 0.0
H1443 H 0.35079 0.59681 0.44662 0.0
H1444 H 0.43363 0.59742 0.46935 0.0
H1445 H 0.4757 0.58543 0.46383 0.0
H1446 H 0.45945 0.50798 0.47209 0.0
H1447 H 0.41717 0.5195 0.47732 0.0
C1448 C 0.32439 0.57169 0.5583 0.0
C1449 C 0.32432 0.54677 0.56661 0.0
C1450 C 0.33692 0.57809 0.53745 0.0
C1451 C 0.34931 0.55968 0.5241 0.0
C1452 C 0.35003 0.53495 0.53289 0.0
C1453 C 0.33771 0.52857 0.55391 0.0
C1454 C 0.36081 0.5661 0.50063 0.0
C1455 C 0.38477 0.55929 0.49709 0.0
C1456 C 0.34835 0.57944 0.48193 0.0
C1457 C 0.32255 0.58523 0.48339 0.0
C1458 C 0.30651 0.56604 0.48734 0.0
C1459 C 0.28225 0.57162 0.48895 0.0
C1460 C 0.27378 0.59632 0.48643 0.0
C1461 C 0.28955 0.61547 0.48224 0.0
C1462 C 0.31384 0.60999 0.48065 0.0
C1463 C 0.41719 0.57864 0.39748 0.0
C1464 C 0.41912 0.60432 0.39219 0.0
C1465 C 0.40582 0.57071 0.41859 0.0
C1466 C 0.396 0.58824 0.4348 0.0
C1467 C 0.39756 0.61378 0.42945 0.0
C1468 C 0.40913 0.62173 0.40857 0.0
C1469 C 0.38436 0.58016 0.45756 0.0
C1470 C 0.36037 0.58662 0.46089 0.0
C1471 C 0.39671 0.56622 0.47585 0.0
C1472 C 0.42221 0.55931 0.47348 0.0
C1473 C 0.43901 0.57782 0.46985 0.0
C1474 C 0.46289 0.57111 0.46677 0.0
C1475 C 0.47024 0.54596 0.4675 0.0
C1476 C 0.45373 0.52746 0.47147 0.0
C1477 C 0.4298 0.53407 0.47452 0.0
H1478 H 0.48873 0.5408 0.46503 0.0
H1479 H 0.25499 0.6006 0.48767 0.0
H1480 H 0.20399 0.17856 0.46327 0.0
H1481 H 0.23778 0.17459 0.43636 0.0
H1482 H 0.22152 0.24802 0.40672 0.0
H1483 H 0.18662 0.25165 0.4334 0.0
H1484 H 0.23884 0.21723 0.37143 0.0
H1485 H 0.26509 0.23986 0.44997 0.0
H1486 H 0.26804 0.23813 0.49464 0.0
H1487 H 0.29758 0.16337 0.49123 0.0
H1488 H 0.29448 0.1645 0.44653 0.0
H1489 H 0.35774 0.21086 0.32263 0.0
H1490 H 0.32186 0.22464 0.3441 0.0
H1491 H 0.32208 0.1545 0.38317 0.0
H1492 H 0.35777 0.14072 0.36195 0.0
H1493 H 0.31395 0.19191 0.41339 0.0
H1494 H 0.28228 0.16952 0.33353 0.0
H1495 H 0.28063 0.17372 0.28887 0.0
H1496 H 0.2639 0.25217 0.29531 0.0
H1497 H 0.26537 0.24841 0.33998 0.0
C1498 C 0.20736 0.19379 0.45081 0.0
C1499 C 0.19275 0.2155 0.45062 0.0
C1500 C 0.22684 0.19156 0.43548 0.0
C1501 C 0.23278 0.21127 0.41993 0.0
C1502 C 0.21751 0.2326 0.4187 0.0
C1503 C 0.19756 0.23468 0.43392 0.0
C1504 C 0.25554 0.20951 0.4061 0.0
C1505 C 0.25533 0.21211 0.38067 0.0
C1506 C 0.27727 0.20293 0.41797 0.0
C1507 C 0.27942 0.20223 0.44488 0.0
C1508 C 0.27209 0.223 0.45874 0.0
C1509 C 0.2738 0.22213 0.48407 0.0
C1510 C 0.28297 0.20064 0.49577 0.0
C1511 C 0.29049 0.18 0.48214 0.0
C1512 C 0.28879 0.18076 0.4568 0.0
C1513 C 0.35007 0.19831 0.33569 0.0
C1514 C 0.36087 0.17468 0.34059 0.0
C1515 C 0.32947 0.20621 0.34796 0.0
C1516 C 0.31898 0.19057 0.36521 0.0
C1517 C 0.32977 0.16704 0.37008 0.0
C1518 C 0.35034 0.1592 0.35796 0.0
C1519 C 0.29706 0.19849 0.37867 0.0
C1520 C 0.2975 0.19721 0.40414 0.0
C1521 C 0.27577 0.20666 0.36684 0.0
C1522 C 0.27407 0.20871 0.34004 0.0
C1523 C 0.27824 0.18765 0.32539 0.0
C1524 C 0.2773 0.18995 0.30009 0.0
C1525 C 0.27213 0.2132 0.28925 0.0
C1526 C 0.26778 0.23417 0.30371 0.0
C1527 C 0.2686 0.23195 0.32902 0.0
H1528 H 0.2715 0.21497 0.26966 0.0
H1529 H 0.28426 0.2 0.51538 0.0
H1530 H 0.12294 0.11669 0.61559 0.0
H1531 H 0.10627 0.0792 0.6329 0.0
H1532 H 0.03633 0.10457 0.61019 0.0
H1533 H 0.05293 0.14284 0.59324 0.0
H1534 H 0.03674 0.08181 0.65638 0.0
H1535 H 0.06182 0.06264 0.57715 0.0
H1536 H 0.08824 0.06187 0.54179 0.0
H1537 H 0.13997 0.01799 0.58233 0.0
H1538 H 0.11401 0.01885 0.61813 0.0
H1539 H 1.00025 0.95606 0.68017 0.0
H1540 H 1.00693 0.99509 0.65814 0.0
H1541 H 0.0815 0.98828 0.67514 0.0
H1542 H 0.07505 0.94929 0.69711 0.0
H1543 H 0.07221 1.00176 0.62681 0.0
H1544 H 0.04536 0.02637 0.70782 0.0
H1545 H 0.01602 0.02613 0.74075 0.0
H1546 H 0.96326 0.05863 0.69258 0.0
H1547 H 0.99224 0.05878 0.65927 0.0
C1548 C 0.10393 0.11468 0.61472 0.0
C1549 C 0.08927 0.13281 0.603 0.0
C1550 C 0.09445 0.09307 0.62444 0.0
C1551 C 0.0701 0.08892 0.62254 0.0
C1552 C 0.05518 0.10738 0.61177 0.0
C1553 C 0.06471 0.12912 0.60197 0.0
C1554 C 0.06086 0.06466 0.6309 0.0
C1555 C 0.04415 0.06429 0.64962 0.0
C1556 C 0.07035 0.04178 0.62194 0.0
C1557 C 0.08602 0.04096 0.60041 0.0
C1558 C 0.0789 0.05297 0.57861 0.0
C1559 C 0.09379 0.0525 0.55846 0.0
C1560 C 0.11579 0.03991 0.55982 0.0
C1561 C 0.12292 0.02773 0.58131 0.0
C1562 C 0.10811 0.02819 0.60154 0.0
C1563 C 0.01811 0.96277 0.67911 0.0
C1564 C 0.03712 0.94957 0.69051 0.0
C1565 C 0.02186 0.98513 0.66657 0.0
C1566 C 0.04468 0.99469 0.66518 0.0
C1567 C 0.06374 0.98124 0.67601 0.0
C1568 C 0.06 0.95899 0.68865 0.0
C1569 C 0.04888 0.01894 0.65293 0.0
C1570 C 0.06458 0.01927 0.63336 0.0
C1571 C 0.03802 0.04167 0.66075 0.0
C1572 C 0.0209 0.04239 0.68101 0.0
C1573 C 0.02748 0.03339 0.70424 0.0
C1574 C 0.01092 0.03326 0.72296 0.0
C1575 C 0.98777 0.0423 0.71874 0.0
C1576 C 0.98119 0.05162 0.69581 0.0
C1577 C 0.99768 0.05176 0.67702 0.0
H1578 H 0.97495 0.04211 0.73323 0.0
H1579 H 0.12729 0.03957 0.54421 0.0
H1580 H 0.18935 0.85593 0.79602 0.0
H1581 H 0.22544 0.84271 0.81805 0.0
H1582 H 0.184 0.82555 0.88103 0.0
H1583 H 0.14782 0.83806 0.85904 0.0
H1584 H 0.22114 0.85493 0.89217 0.0
H1585 H 0.20855 0.77982 0.84666 0.0
H1586 H 0.20286 0.75536 0.80941 0.0
H1587 H 0.27069 0.77726 0.78351 0.0
H1588 H 0.27662 0.80224 0.82044 0.0
H1589 H 0.29572 0.78978 0.97126 0.0
H1590 H 0.26512 0.79872 0.94088 0.0
H1591 H 0.31855 0.81329 0.88759 0.0
H1592 H 0.34975 0.80383 0.91832 0.0
H1593 H 0.27896 0.78818 0.86805 0.0
H1594 H 0.29259 0.86169 0.91383 0.0
H1595 H 0.29857 0.8865 0.95082 0.0
H1596 H 0.22911 0.86864 0.97536 0.0
H1597 H 0.22285 0.8434 0.93868 0.0
C1598 C 0.18778 0.84886 0.81439 0.0
C1599 C 0.1655 0.84828 0.82572 0.0
C1600 C 0.20853 0.84139 0.82701 0.0
C1601 C 0.20752 0.83314 0.85125 0.0
C1602 C 0.18531 0.83201 0.86241 0.0
C1603 C 0.16459 0.83931 0.8498 0.0
C1604 C 0.22953 0.82687 0.86554 0.0
C1605 C 0.23364 0.84018 0.88696 0.0
C1606 C 0.2464 0.80827 0.85833 0.0
C1607 C 0.2429 0.79316 0.83619 0.0
C1608 C 0.22216 0.77963 0.83292 0.0
C1609 C 0.2189 0.76563 0.81188 0.0
C1610 C 0.23637 0.76482 0.79407 0.0
C1611 C 0.25716 0.77795 0.7973 0.0
C1612 C 0.26047 0.79203 0.81828 0.0
C1613 C 0.30109 0.79467 0.95303 0.0
C1614 C 0.32518 0.79651 0.94731 0.0
C1615 C 0.28351 0.7998 0.93565 0.0
C1616 C 0.28943 0.80725 0.91205 0.0
C1617 C 0.31353 0.80776 0.90574 0.0
C1618 C 0.33133 0.80241 0.92328 0.0
C1619 C 0.27014 0.81585 0.89495 0.0
C1620 C 0.26656 0.8031 0.87307 0.0
C1621 C 0.25374 0.83514 0.90156 0.0
C1622 C 0.25732 0.85051 0.92356 0.0
C1623 C 0.27865 0.86292 0.92719 0.0
C1624 C 0.28208 0.87707 0.94809 0.0
C1625 C 0.26424 0.87911 0.96545 0.0
C1626 C 0.24291 0.86704 0.9619 0.0
C1627 C 0.2394 0.85283 0.94104 0.0
H1628 H 0.26694 0.89008 0.98162 0.0
H1629 H 0.23382 0.75396 0.77779 0.0
H1630 H 0.44474 0.06551 0.21879 0.0
H1631 H 0.43427 0.02993 0.19393 0.0
H1632 H 0.49697 0.03914 0.15107 0.0
H1633 H 0.50751 0.07514 0.17575 0.0
H1634 H 0.45951 0.02964 0.12233 0.0
H1635 H 0.49482 0.9924 0.19308 0.0
H1636 H 0.50142 0.98524 0.23693 0.0
H1637 H 0.42988 0.96156 0.24435 0.0
H1638 H 0.42274 0.96894 0.20059 0.0
H1639 H 0.44395 0.91106 0.06478 0.0
H1640 H 0.46062 0.94566 0.08751 0.0
H1641 H 0.40209 0.94398 0.13721 0.0
H1642 H 0.38593 0.90886 0.11532 0.0
H1643 H 0.44192 0.94865 0.1616 0.0
H1644 H 0.40653 0.98881 0.09043 0.0
H1645 H 0.4009 0.99593 0.04643 0.0
H1646 H 0.4742 0.01356 0.03961 0.0
H1647 H 0.48034 1.00621 0.08353 0.0
C1648 C 0.45638 0.06005 0.2041 0.0
C1649 C 0.47705 0.07323 0.19941 0.0
C1650 C 0.45038 0.03956 0.18992 0.0
C1651 C 0.46498 0.03155 0.17079 0.0
C1652 C 0.48544 0.04489 0.16575 0.0
C1653 C 0.49147 0.06546 0.17995 0.0
C1654 C 0.45872 0.00927 0.15617 0.0
C1655 C 0.45604 0.01181 0.13087 0.0
C1656 C 0.45395 0.98601 0.16725 0.0
C1657 C 0.45819 0.98142 0.19358 0.0
C1658 C 0.48044 0.98584 0.20409 0.0
C1659 C 0.48428 0.98172 0.22893 0.0
C1660 C 0.46606 0.973 0.24342 0.0
C1661 C 0.44397 0.96833 0.2331 0.0
C1662 C 0.44002 0.97246 0.20827 0.0
C1663 C 0.43472 0.91791 0.08067 0.0
C1664 C 0.41345 0.90717 0.08805 0.0
C1665 C 0.44416 0.9379 0.09352 0.0
C1666 C 0.43248 0.94774 0.11396 0.0
C1667 C 0.41143 0.93687 0.12148 0.0
C1668 C 0.40205 0.91689 0.10873 0.0
C1669 C 0.4421 0.96916 0.12781 0.0
C1670 C 0.44552 0.96642 0.153 0.0
C1671 C 0.44767 0.99215 0.11658 0.0
C1672 C 0.44395 0.99668 0.09021 0.0
C1673 C 0.42148 0.99401 0.07951 0.0
C1674 C 0.4182 0.99812 0.05459 0.0
C1675 C 0.4372 1.0051 0.04022 0.0
C1676 C 0.45951 0.00809 0.05075 0.0
C1677 C 0.4629 1.00397 0.07566 0.0
H1678 H 0.43461 0.00827 0.02093 0.0
H1679 H 0.46908 0.96981 0.26265 0.0
H1680 H 0.84921 0.38548 0.65307 0.0
H1681 H 0.81101 0.37072 0.63899 0.0
H1682 H 0.82496 0.29988 0.67498 0.0
H1683 H 0.86352 0.31446 0.68888 0.0
H1684 H 0.80761 0.29431 0.62842 0.0
H1685 H 0.78605 0.3399 0.69928 0.0
H1686 H 0.78504 0.37574 0.72717 0.0
H1687 H 0.75159 0.42184 0.67189 0.0
H1688 H 0.75271 0.38636 0.64353 0.0
H1689 H 0.68949 0.25878 0.60003 0.0
H1690 H 0.72454 0.26805 0.62454 0.0
H1691 H 0.72296 0.34342 0.59612 0.0
H1692 H 0.68803 0.33448 0.57187 0.0
H1693 H 0.73304 0.34259 0.64426 0.0
H1694 H 0.75922 0.2988 0.57225 0.0
H1695 H 0.76017 0.26335 0.54386 0.0
H1696 H 0.78504 0.21418 0.60117 0.0
H1697 H 0.78387 0.2493 0.63001 0.0
C1698 C 0.84422 0.36672 0.6579 0.0
C1699 C 0.85941 0.35113 0.67207 0.0
C1700 C 0.82229 0.35837 0.65002 0.0
C1701 C 0.81502 0.33428 0.65614 0.0
C1702 C 0.83018 0.31858 0.67014 0.0
C1703 C 0.85212 0.32699 0.67819 0.0
C1704 C 0.79175 0.32554 0.64742 0.0
C1705 C 0.79123 0.30455 0.63229 0.0
C1706 C 0.77042 0.3391 0.65219 0.0
C1707 C 0.76963 0.3605 0.66921 0.0
C1708 C 0.77864 0.35773 0.693 0.0
C1709 C 0.77802 0.37797 0.70891 0.0
C1710 C 0.7683 0.40106 0.7013 0.0
C1711 C 0.75913 0.40394 0.67776 0.0
C1712 C 0.75972 0.38376 0.66177 0.0
C1713 C 0.69644 0.27741 0.59923 0.0
C1714 C 0.68604 0.29583 0.58382 0.0
C1715 C 0.71653 0.28265 0.61318 0.0
C1716 C 0.72652 0.30636 0.61195 0.0
C1717 C 0.71558 0.325 0.59735 0.0
C1718 C 0.69563 0.31978 0.58339 0.0
C1719 C 0.74899 0.31172 0.62485 0.0
C1720 C 0.74937 0.3321 0.64074 0.0
C1721 C 0.77018 0.29764 0.62072 0.0
C1722 C 0.77118 0.2766 0.60334 0.0
C1723 C 0.76472 0.28039 0.57884 0.0
C1724 C 0.76532 0.26037 0.56266 0.0
C1725 C 0.77259 0.23651 0.57072 0.0
C1726 C 0.77936 0.23266 0.59496 0.0
C1727 C 0.77874 0.25261 0.61123 0.0
H1728 H 0.77304 0.22103 0.55817 0.0
H1729 H 0.76783 0.41672 0.71364 0.0
H1730 H 0.98825 0.45898 0.78448 0.0
H1731 H 0.97844 0.48876 0.81657 0.0
H1732 H 0.94579 0.43034 0.85752 0.0
H1733 H 0.9565 0.40002 0.82565 0.0
H1734 H 0.92498 0.49293 0.83137 0.0
H1735 H 0.96339 0.43902 0.89635 0.0
H1736 H 0.99712 0.41409 0.91337 0.0
H1737 H 0.04311 0.47523 0.90087 0.0
H1738 H 0.00965 0.50032 0.8833 0.0
H1739 H 0.87842 0.56961 0.92455 0.0
H1740 H 0.89247 0.53301 0.90209 0.0
H1741 H 0.96305 0.56147 0.90186 0.0
H1742 H 0.94907 0.59828 0.92452 0.0
H1743 H 0.96478 0.51154 0.90953 0.0
H1744 H 0.92664 0.56747 0.85179 0.0
H1745 H 0.89414 0.59439 0.83512 0.0
H1746 H 0.84898 0.53134 0.83206 0.0
H1747 H 0.88113 0.5041 0.84903 0.0
C1748 C 0.97951 0.4523 0.80062 0.0
C1749 C 0.97311 0.42719 0.80257 0.0
C1750 C 0.97397 0.46935 0.81897 0.0
C1751 C 0.96167 0.46179 0.83964 0.0
C1752 C 0.95585 0.4365 0.84207 0.0
C1753 C 0.96186 0.41921 0.8238 0.0
C1754 C 0.95245 0.48125 0.85662 0.0
C1755 C 0.93334 0.49667 0.84872 0.0
C1756 C 0.96385 0.48671 0.87882 0.0
C1757 C 0.98417 0.4713 0.88811 0.0
C1758 C 0.98079 0.44693 0.89677 0.0
C1759 C 0.99981 0.43285 0.90666 0.0
C1760 C 0.02222 0.44309 0.90823 0.0
C1761 C 0.02572 0.46734 0.89967 0.0
C1762 C 1.00676 0.48146 0.88968 0.0
C1763 C 0.89693 0.56824 0.91961 0.0
C1764 C 0.91252 0.58719 0.92609 0.0
C1765 C 0.90497 0.54718 0.90681 0.0
C1766 C 0.92879 0.54454 0.89988 0.0
C1767 C 0.94459 0.56301 0.90695 0.0
C1768 C 0.93656 0.58409 0.91991 0.0
C1769 C 0.93688 0.52301 0.88453 0.0
C1770 C 0.95603 0.50753 0.89244 0.0
C1771 C 0.92552 0.51749 0.86222 0.0
C1772 C 0.90621 0.53381 0.85191 0.0
C1773 C 0.90972 0.55939 0.84773 0.0
C1774 C 0.89137 0.57469 0.8382 0.0
C1775 C 0.86949 0.56459 0.8326 0.0
C1776 C 0.86593 0.53914 0.83644 0.0
C1777 C 0.88421 0.52376 0.846 0.0
H1778 H 0.85531 0.57647 0.82522 0.0
H1779 H 0.03685 0.43224 0.91612 0.0
H1780 H 0.82586 0.675 0.06195 0.0
H1781 H 0.79114 0.66554 0.08586 0.0
H1782 H 0.78332 0.74308 0.10595 0.0
H1783 H 0.81857 0.7527 0.08234 0.0
H1784 H 0.77314 0.71295 0.14384 0.0
H1785 H 0.74932 0.71976 0.06078 0.0
H1786 H 0.75135 0.71145 0.01685 0.0
H1787 H 0.74021 0.63354 0.03019 0.0
H1788 H 0.73847 0.64131 0.07425 0.0
H1789 H 0.653 0.69525 0.18201 0.0
H1790 H 0.68834 0.71049 0.16187 0.0
H1791 H 0.7049 0.63597 0.13654 0.0
H1792 H 0.66932 0.62084 0.15575 0.0
H1793 H 0.7092 0.66904 0.10086 0.0
H1794 H 0.73474 0.66304 0.18489 0.0
H1795 H 0.73267 0.6725 0.2286 0.0
H1796 H 0.73958 0.75067 0.213 0.0
H1797 H 0.74135 0.74171 0.16915 0.0
C1798 C 0.81693 0.69008 0.07159 0.0
C1799 C 0.82491 0.71468 0.06998 0.0
C1800 C 0.79698 0.68463 0.08522 0.0
C1801 C 0.78424 0.70368 0.09728 0.0
C1802 C 0.79275 0.72809 0.09668 0.0
C1803 C 0.81291 0.73356 0.08315 0.0
C1804 C 0.76162 0.69805 0.10965 0.0
C1805 C 0.75899 0.70368 0.13437 0.0
C1806 C 0.74317 0.68583 0.09737 0.0
C1807 C 0.74394 0.6811 0.07084 0.0
C1808 C 0.74745 0.70083 0.05436 0.0
C1809 C 0.74853 0.69621 0.02943 0.0
C1810 C 0.74595 0.67197 0.02074 0.0
C1811 C 0.74222 0.6523 0.03696 0.0
C1812 C 0.74116 0.6568 0.06191 0.0
C1813 C 0.6641 0.68213 0.17204 0.0
C1814 C 0.65829 0.65675 0.17063 0.0
C1815 C 0.68445 0.69083 0.16074 0.0
C1816 C 0.69948 0.67434 0.14787 0.0
C1817 C 0.69368 0.64906 0.14641 0.0
C1818 C 0.67338 0.64038 0.15765 0.0
C1819 C 0.72093 0.68327 0.13526 0.0
C1820 C 0.72327 0.67839 0.11036 0.0
C1821 C 0.73896 0.69636 0.14737 0.0
C1822 C 0.7379 0.70173 0.17372 0.0
C1823 C 0.73561 0.68227 0.19076 0.0
C1824 C 0.73453 0.68754 0.21557 0.0
C1825 C 0.73591 0.71218 0.22357 0.0
C1826 C 0.73846 0.7316 0.20678 0.0
C1827 C 0.73951 0.72643 0.18195 0.0
H1828 H 0.73508 0.71622 0.24278 0.0
H1829 H 0.7468 0.66844 1.00144 0.0
H1830 H 0.57244 0.39379 0.41278 0.0
H1831 H 0.55557 0.42841 0.38835 0.0
H1832 H 0.59541 0.48068 0.43028 0.0
H1833 H 0.61122 0.44646 0.45558 0.0
H1834 H 0.55427 0.50124 0.41974 0.0
H1835 H 0.61455 0.4581 0.37381 0.0
H1836 H 0.63424 0.42155 0.35475 0.0
H1837 H 0.5725 0.41038 0.31061 0.0
H1838 H 0.55232 0.4467 0.32964 0.0
H1839 H 0.55616 0.60051 0.32976 0.0
H1840 H 0.56248 0.56875 0.36184 0.0
H1841 H 0.52539 0.51544 0.31831 0.0
H1842 H 0.52031 0.54661 0.28603 0.0
H1843 H 0.56458 0.49555 0.33066 0.0
H1844 H 0.50363 0.53879 0.37933 0.0
H1845 H 0.48465 0.57403 0.4014 0.0
H1846 H 0.54954 0.58626 0.43983 0.0
H1847 H 0.56873 0.55068 0.41864 0.0
C1848 C 0.57727 0.41268 0.41713 0.0
C1849 C 0.59359 0.41718 0.43594 0.0
C1850 C 0.5678 0.43249 0.40295 0.0
C1851 C 0.57463 0.45721 0.40703 0.0
C1852 C 0.58998 0.46184 0.42654 0.0
C1853 C 0.59926 0.44212 0.44084 0.0
C1854 C 0.56679 0.4781 0.39041 0.0
C1855 C 0.55662 0.50005 0.40025 0.0
C1856 C 0.56968 0.47666 0.36494 0.0
C1857 C 0.58185 0.45496 0.35332 0.0
C1858 C 0.60513 0.44775 0.36014 0.0
C1859 C 0.61637 0.42709 0.34933 0.0
C1860 C 0.6046 0.41361 0.33153 0.0
C1861 C 0.58158 0.42082 0.32443 0.0
C1862 C 0.57023 0.44145 0.33521 0.0
C1863 C 0.54895 0.58215 0.3274 0.0
C1864 C 0.53798 0.57588 0.30537 0.0
C1865 C 0.55243 0.56398 0.34579 0.0
C1866 C 0.54446 0.53947 0.34264 0.0
C1867 C 0.53198 0.534 0.32123 0.0
C1868 C 0.52901 0.55186 0.30277 0.0
C1869 C 0.55142 0.51866 0.35984 0.0
C1870 C 0.5618 0.49673 0.3501 0.0
C1871 C 0.54889 0.52027 0.38537 0.0
C1872 C 0.53767 0.54232 0.39719 0.0
C1873 C 0.5139 0.54917 0.39231 0.0
C1874 C 0.50308 0.56912 0.40471 0.0
C1875 C 0.51594 0.58255 0.42171 0.0
C1876 C 0.53961 0.57591 0.42657 0.0
C1877 C 0.55042 0.55577 0.41451 0.0
H1878 H 0.50752 0.59801 0.43122 0.0
H1879 H 0.61334 0.39761 0.32319 0.0
H1880 H 0.30102 0.31571 0.15384 0.0
H1881 H 0.32607 0.28119 0.16971 0.0
H1882 H 0.37711 0.3338 0.19463 0.0
H1883 H 0.35252 0.36835 0.17811 0.0
H1884 H 0.39785 0.298 0.1687 0.0
H1885 H 0.34189 0.30027 0.23397 0.0
H1886 H 0.3027 0.29897 0.25327 0.0
H1887 H 0.29287 0.22541 0.225 0.0
H1888 H 0.33181 0.22641 0.20517 0.0
H1889 H 0.47748 0.22068 0.23122 0.0
H1890 H 0.44555 0.25142 0.22382 0.0
H1891 H 0.40006 0.19292 0.2 0.0
H1892 H 0.43214 0.16161 0.20839 0.0
H1893 H 0.375 0.22957 0.22424 0.0
H1894 H 0.4299 0.22722 0.15852 0.0
H1895 H 0.46931 0.22751 0.13963 0.0
H1896 H 0.48054 0.30077 0.16803 0.0
H1897 H 0.44132 0.30078 0.18738 0.0
C1898 C 0.31753 0.31997 0.1628 0.0
C1899 C 0.32482 0.34488 0.16449 0.0
C1900 C 0.33173 0.30018 0.17212 0.0
C1901 C 0.35349 0.30481 0.18349 0.0
C1902 C 0.3604 0.32971 0.18596 0.0
C1903 C 0.34621 0.3495 0.17665 0.0
C1904 C 0.37001 0.28379 0.19089 0.0
C1905 C 0.39289 0.28328 0.18114 0.0
C1906 C 0.36333 0.26392 0.20634 0.0
C1907 C 0.33969 0.26354 0.21785 0.0
C1908 C 0.33126 0.28393 0.23161 0.0
C1909 C 0.30912 0.28322 0.2427 0.0
C1910 C 0.29531 0.26214 0.24031 0.0
C1911 C 0.30358 0.24174 0.2268 0.0
C1912 C 0.32568 0.24237 0.21564 0.0
C1913 C 0.46057 0.21427 0.22471 0.0
C1914 C 0.45738 0.18884 0.21996 0.0
C1915 C 0.44233 0.23189 0.22042 0.0
C1916 C 0.42061 0.22465 0.21063 0.0
C1917 C 0.41677 0.199 0.20732 0.0
C1918 C 0.43505 0.18114 0.21208 0.0
C1919 C 0.40287 0.24421 0.20242 0.0
C1920 C 0.37984 0.24434 0.21181 0.0
C1921 C 0.40925 0.26373 0.18645 0.0
C1922 C 0.43273 0.26392 0.17455 0.0
C1923 C 0.44082 0.24333 0.16085 0.0
C1924 C 0.46312 0.24345 0.15005 0.0
C1925 C 0.47743 0.26412 0.15266 0.0
C1926 C 0.46944 0.28476 0.16603 0.0
C1927 C 0.44717 0.28473 0.17689 0.0
H1928 H 0.4947 0.26417 0.1443 0.0
H1929 H 0.27825 0.26157 0.24899 0.0
H1930 H 0.96869 0.29993 0.81149 0.0
H1931 H 0.94382 0.26489 0.82118 0.0
H1932 H 0.89702 0.28524 0.76157 0.0
H1933 H 0.92197 0.32058 0.75162 0.0
H1934 H 0.87241 0.27281 0.80306 0.0
H1935 H 0.93419 0.23643 0.75548 0.0
H1936 H 0.97537 0.22744 0.74305 0.0
H1937 H 0.99043 0.19256 0.81215 0.0
H1938 H 0.94942 0.20168 0.82516 0.0
H1939 H 0.81128 0.1583 0.81561 0.0
H1940 H 0.83419 0.19198 0.798 0.0
H1941 H 0.88896 0.1786 0.85195 0.0
H1942 H 0.86651 0.14452 0.86918 0.0
H1943 H 0.90816 0.18709 0.8086 0.0
H1944 H 0.84713 0.22676 0.85707 0.0
H1945 H 0.80593 0.23588 0.86941 0.0
H1946 H 0.78937 0.26449 0.79803 0.0
H1947 H 0.83043 0.25522 0.78516 0.0
C1948 C 0.95311 0.29711 0.80038 0.0
C1949 C 0.94744 0.31321 0.78069 0.0
C1950 C 0.93891 0.27691 0.80593 0.0
C1951 C 0.91865 0.27217 0.79197 0.0
C1952 C 0.91259 0.28845 0.77259 0.0
C1953 C 0.92692 0.30866 0.7669 0.0
C1954 C 0.90403 0.25013 0.79776 0.0
C1955 C 0.88011 0.254 0.80384 0.0
C1956 C 0.9141 0.22558 0.79914 0.0
C1957 C 0.93877 0.21993 0.79137 0.0
C1958 C 0.94633 0.22701 0.76811 0.0
C1959 C 0.96964 0.22187 0.76094 0.0
C1960 C 0.98552 0.20948 0.77682 0.0
C1961 C 0.97811 0.20217 0.79988 0.0
C1962 C 0.95483 0.2073 0.80715 0.0
C1963 C 0.82837 0.16225 0.82351 0.0
C1964 C 0.83694 0.14872 0.84395 0.0
C1965 C 0.84137 0.18173 0.81355 0.0
C1966 C 0.86321 0.18818 0.82383 0.0
C1967 C 0.87214 0.17414 0.84372 0.0
C1968 C 0.85917 0.15474 0.85368 0.0
C1969 C 0.87663 0.2098 0.81436 0.0
C1970 C 0.90036 0.20585 0.80759 0.0
C1971 C 0.86637 0.23426 0.81232 0.0
C1972 C 0.84176 0.24004 0.82008 0.0
C1973 C 0.83465 0.23483 0.84396 0.0
C1974 C 0.81134 0.24005 0.85106 0.0
C1975 C 0.79502 0.25068 0.83449 0.0
C1976 C 0.80202 0.2562 0.81082 0.0
C1977 C 0.82531 0.25099 0.80362 0.0
H1978 H 0.77698 0.2547 0.84002 0.0
H1979 H 1.00356 0.20551 0.77124 0.0
H1980 H 0.0787 0.56124 0.1121 0.0
H1981 H 0.04134 0.58061 0.09741 0.0
H1982 H 0.07985 0.62598 0.04723 0.0
H1983 H 0.11723 0.60671 0.06182 0.0
H1984 H 0.04993 0.65328 0.07811 0.0
H1985 H 0.04509 0.58242 0.02439 0.0
H1986 H 0.04452 0.53764 0.0141 0.0
H1987 H 0.98547 0.52791 0.06142 0.0
H1988 H 0.9855 0.57271 0.07179 0.0
H1989 H 0.96038 0.71934 0.0186 0.0
H1990 H 0.99297 0.68912 0.02511 0.0
H1991 H 0.94727 0.64262 0.06714 0.0
H1992 H 0.914 0.6727 0.05964 0.0
H1993 H 0.97944 0.61405 0.04207 0.0
H1994 H 0.98288 0.68345 0.09561 0.0
H1995 H 0.98229 0.7279 0.10714 0.0
H1996 H 0.04413 0.73955 0.0642 0.0
H1997 H 0.04488 0.69522 0.05212 0.0
C1998 C 0.07916 0.57513 0.09772 0.0
C1999 C 0.10094 0.58261 0.08826 0.0
C2000 C 0.05779 0.58603 0.08921 0.0
C2001 C 0.05779 0.60474 0.07121 0.0
C2002 C 0.07944 0.61153 0.06109 0.0
C2003 C 0.10078 0.60044 0.06938 0.0
C2004 C 0.03564 0.61911 0.0648 0.0
C2005 C 0.03466 0.64475 0.06987 0.0
C2006 C 0.01535 0.60779 0.05508 0.0
C2007 C 0.01544 0.58085 0.04904 0.0
C2008 C 0.0321 0.57069 0.03274 0.0
C2009 C 0.03184 0.54533 0.02685 0.0
C2010 C 0.01512 0.52991 0.03726 0.0
C2011 C 0.99846 0.53986 0.05342 0.0
C2012 C 0.99852 0.56526 0.05923 0.0
C2013 C 0.95714 0.70245 0.02887 0.0
C2014 C 0.93482 0.69849 0.03896 0.0
C2015 C 0.97581 0.68521 0.03266 0.0
C2016 C 0.97283 0.66395 0.04726 0.0
C2017 C 0.95007 0.65902 0.056 0.0
C2018 C 0.9311 0.67616 0.05175 0.0
C2019 C 0.99399 0.64837 0.05482 0.0
C2020 C 0.99473 0.62256 0.05024 0.0
C2021 C 0.01407 0.65941 0.06541 0.0
C2022 C 0.01382 0.68606 0.0728 0.0
C2023 C 0.99626 0.69553 0.0885 0.0
C2024 C 0.9959 0.7207 0.09515 0.0
C2025 C 0.01313 0.73655 0.08637 0.0
C2026 C 0.03078 0.72725 0.07097 0.0
C2027 C 0.0312 0.7021 0.06423 0.0
H2028 H 0.01282 0.75604 0.09154 0.0
H2029 H 0.015 0.51026 0.03271 0.0
H2030 H 0.70069 0.84798 0.3255 0.0
H2031 H 0.68251 0.80983 0.31095 0.0
H2032 H 0.62663 0.81958 0.36322 0.0
H2033 H 0.64517 0.85694 0.37852 0.0
H2034 H 0.64038 0.77215 0.36166 0.0
H2035 H 0.61989 0.83605 0.30157 0.0
H2036 H 0.62868 0.86842 0.27111 0.0
H2037 H 0.66834 0.81428 0.22956 0.0
H2038 H 0.66002 0.78165 0.25996 0.0
H2039 H 0.54746 0.70157 0.31641 0.0
H2040 H 0.57321 0.73472 0.32927 0.0
H2041 H 0.62253 0.71489 0.27273 0.0
H2042 H 0.59644 0.6818 0.25928 0.0
H2043 H 0.61689 0.76432 0.27511 0.0
H2044 H 0.63421 0.69949 0.33292 0.0
H2045 H 0.62536 0.66689 0.36311 0.0
H2046 H 0.59235 0.72217 0.40888 0.0
H2047 H 0.6007 0.75507 0.37881 0.0
C2048 C 0.6847 0.84183 0.33411 0.0
C2049 C 0.67432 0.85575 0.35307 0.0
C2050 C 0.67417 0.82013 0.32558 0.0
C2051 C 0.65295 0.81196 0.33571 0.0
C2052 C 0.64291 0.82549 0.355 0.0
C2053 C 0.65344 0.84706 0.36357 0.0
C2054 C 0.64091 0.78951 0.32628 0.0
C2055 C 0.63509 0.77056 0.34276 0.0
C2056 C 0.63466 0.78691 0.30147 0.0
C2057 C 0.63956 0.80649 0.28316 0.0
C2058 C 0.63063 0.8311 0.28603 0.0
C2059 C 0.6355 0.84948 0.26876 0.0
C2060 C 0.64912 0.84343 0.24845 0.0
C2061 C 0.65783 0.81895 0.24533 0.0
C2062 C 0.65303 0.80051 0.26255 0.0
C2063 C 0.56381 0.7041 0.30669 0.0
C2064 C 0.56989 0.68882 0.28686 0.0
C2065 C 0.57862 0.72307 0.31418 0.0
C2066 C 0.60008 0.72709 0.30229 0.0
C2067 C 0.60613 0.71209 0.28229 0.0
C2068 C 0.59121 0.69312 0.27466 0.0
C2069 C 0.61583 0.74728 0.31062 0.0
C2070 C 0.62239 0.76577 0.29395 0.0
C2071 C 0.62284 0.74943 0.33527 0.0
C2072 C 0.61795 0.72972 0.35351 0.0
C2073 C 0.62493 0.70468 0.34935 0.0
C2074 C 0.62002 0.68615 0.36645 0.0
C2075 C 0.60826 0.69245 0.38788 0.0
C2076 C 0.60145 0.71731 0.39227 0.0
C2077 C 0.6063 0.73591 0.37522 0.0
H2078 H 0.60447 0.67807 0.40109 0.0
H2079 H 0.65287 0.85768 0.23511 0.0
H2080 H 0.54994 0.29946 0.53585 0.0
H2081 H 0.52066 0.33287 0.54348 0.0
H2082 H 0.57325 0.3741 0.58225 0.0
H2083 H 0.60305 0.34065 0.57397 0.0
H2084 H 0.53084 0.36484 0.60872 0.0
H2085 H 0.55271 0.4014 0.53433 0.0
H2086 H 0.56329 0.40401 0.49109 0.0
H2087 H 0.49499 0.37747 0.47085 0.0
H2088 H 0.48401 0.37455 0.514 0.0
H2089 H 0.43107 0.44765 0.63078 0.0
H2090 H 0.47093 0.43361 0.61867 0.0
H2091 H 0.44066 0.38338 0.56682 0.0
H2092 H 0.40095 0.39775 0.57832 0.0
H2093 H 0.47804 0.4071 0.54772 0.0
H2094 H 0.4603 0.36282 0.62254 0.0
H2095 H 0.44977 0.36007 0.66584 0.0
H2096 H 0.51132 0.40099 0.68508 0.0
H2097 H 0.52205 0.40425 0.64183 0.0
C2098 C 0.55539 0.3159 0.54556 0.0
C2099 C 0.57863 0.31752 0.55445 0.0
C2100 C 0.53869 0.33501 0.54981 0.0
C2101 C 0.54479 0.35598 0.56337 0.0
C2102 C 0.56826 0.3581 0.57164 0.0
C2103 C 0.58522 0.3391 0.56686 0.0
C2104 C 0.52575 0.37391 0.57085 0.0
C2105 C 0.51967 0.37474 0.59548 0.0
C2106 C 0.51099 0.38641 0.5535 0.0
C2107 C 0.51757 0.38766 0.52746 0.0
C2108 C 0.54001 0.3959 0.52068 0.0
C2109 C 0.54606 0.39749 0.49617 0.0
C2110 C 0.52984 0.39087 0.47823 0.0
C2111 C 0.50753 0.38262 0.48477 0.0
C2112 C 0.50135 0.38107 0.50926 0.0
C2113 C 0.43293 0.43379 0.61664 0.0
C2114 C 0.41281 0.42364 0.60569 0.0
C2115 C 0.45572 0.4257 0.60982 0.0
C2116 C 0.45879 0.40731 0.59195 0.0
C2117 C 0.43874 0.39759 0.58065 0.0
C2118 C 0.41602 0.40561 0.58746 0.0
C2119 C 0.48273 0.39729 0.58549 0.0
C2120 C 0.4896 0.39784 0.56104 0.0
C2121 C 0.49823 0.38605 0.603 0.0
C2122 C 0.4918 0.38406 0.62896 0.0
C2123 C 0.47147 0.37141 0.636 0.0
C2124 C 0.46549 0.36972 0.66052 0.0
C2125 C 0.47982 0.38042 0.67819 0.0
C2126 C 0.50021 0.39277 0.67137 0.0
C2127 C 0.50625 0.39453 0.64686 0.0
H2128 H 0.47517 0.37909 0.69717 0.0
H2129 H 0.53451 0.39221 0.45925 0.0
H2130 H 0.14978 0.65766 0.65546 0.0
H2131 H 0.12881 0.69674 0.66538 0.0
H2132 H 0.19478 0.72961 0.68545 0.0
H2133 H 0.21622 0.69087 0.67446 0.0
H2134 H 0.15103 0.73946 0.7179 0.0
H2135 H 0.17983 0.74604 0.6357 0.0
H2136 H 0.18612 0.73047 0.59415 0.0
H2137 H 0.11098 0.72633 0.58346 0.0
H2138 H 0.10426 0.74149 0.62512 0.0
H2139 H 0.09291 0.85922 0.72073 0.0
H2140 H 0.12321 0.82644 0.71342 0.0
H2141 H 0.07551 0.79095 0.66354 0.0
H2142 H 0.0462 0.82469 0.66957 0.0
H2143 H 0.11577 0.78481 0.64681 0.0
H2144 H 0.08576 0.77533 0.7285 0.0
H2145 H 0.07788 0.78891 0.77045 0.0
H2146 H 0.15246 0.79561 0.78344 0.0
H2147 H 0.16074 0.78276 0.74135 0.0
C2148 C 0.15993 0.67314 0.66198 0.0
C2149 C 0.18479 0.67114 0.66378 0.0
C2150 C 0.14785 0.6954 0.66783 0.0
C2151 C 0.16028 0.71607 0.67596 0.0
C2152 C 0.18489 0.7138 0.67926 0.0
C2153 C 0.19709 0.69157 0.67307 0.0
C2154 C 0.14756 0.74047 0.679 0.0
C2155 C 0.14358 0.74969 0.70242 0.0
C2156 C 0.13758 0.75345 0.65878 0.0
C2157 C 0.14156 0.74469 0.6336 0.0
C2158 C 0.16466 0.74161 0.62456 0.0
C2159 C 0.1683 0.73289 0.60098 0.0
C2160 C 0.14896 0.72736 0.58619 0.0
C2161 C 0.12594 0.7306 0.59494 0.0
C2162 C 0.1222 0.73928 0.61853 0.0
C2163 C 0.08923 0.84463 0.70789 0.0
C2164 C 0.06735 0.84444 0.6957 0.0
C2165 C 0.10641 0.82572 0.70389 0.0
C2166 C 0.10152 0.80565 0.68843 0.0
C2167 C 0.07986 0.80608 0.6756 0.0
C2168 C 0.06306 0.8254 0.679 0.0
C2169 C 0.11838 0.78378 0.68592 0.0
C2170 C 0.12327 0.77492 0.66247 0.0
C2171 C 0.12884 0.77098 0.70623 0.0
C2172 C 0.12384 0.77839 0.73165 0.0
C2173 C 0.10046 0.77989 0.74024 0.0
C2174 C 0.09593 0.78749 0.76404 0.0
C2175 C 0.11465 0.79324 0.77956 0.0
C2176 C 0.13796 0.79127 0.77136 0.0
C2177 C 0.14258 0.78389 0.74751 0.0
H2178 H 0.11111 0.79917 0.79796 0.0
H2179 H 0.15182 0.72061 0.56794 0.0
H2180 H 0.43934 0.83992 0.99549 0.0
H2181 H 0.47574 0.86146 0.98572 0.0
H2182 H 0.48107 0.82073 0.91861 0.0
H2183 H 0.44499 0.79896 0.92831 0.0
H2184 H 0.52272 0.81995 0.94174 0.0
H2185 H 0.46346 0.88363 0.92055 0.0
H2186 H 0.4292 0.91197 0.92843 0.0
H2187 H 0.46776 0.9468 0.98587 0.0
H2188 H 0.50217 0.91844 0.97852 0.0
H2189 H 0.61019 0.88528 0.87977 0.0
H2190 H 0.57318 0.86724 0.89247 0.0
H2191 H 0.57238 0.91377 0.95608 0.0
H2192 H 0.60897 0.93289 0.94284 0.0
H2193 H 0.52907 0.91214 0.93788 0.0
H2194 H 0.58844 0.85055 0.95908 0.0
H2195 H 0.62297 0.82211 0.95288 0.0
H2196 H 0.58471 0.783 0.89801 0.0
H2197 H 0.55004 0.81143 0.90364 0.0
C2198 C 0.44812 0.83568 0.97854 0.0
C2199 C 0.4391 0.81765 0.9627 0.0
C2200 C 0.46896 0.84809 0.97294 0.0
C2201 C 0.48119 0.84288 0.95132 0.0
C2202 C 0.47206 0.82509 0.93542 0.0
C2203 C 0.45129 0.8127 0.94098 0.0
C2204 C 0.50386 0.85526 0.94545 0.0
C2205 C 0.52399 0.84012 0.9406 0.0
C2206 C 0.5059 0.8816 0.94482 0.0
C2207 C 0.48529 0.89875 0.94914 0.0
C2208 C 0.46457 0.89721 0.93497 0.0
C2209 C 0.44514 0.9133 0.93932 0.0
C2210 C 0.44628 0.93113 0.95768 0.0
C2211 C 0.46689 0.93296 0.97168 0.0
C2212 C 0.48637 0.9169 0.96741 0.0
C2213 C 0.60207 0.89201 0.89631 0.0
C2214 C 0.61276 0.91065 0.91021 0.0
C2215 C 0.58096 0.88138 0.90375 0.0
C2216 C 0.57003 0.88877 0.9255 0.0
C2217 C 0.58044 0.90759 0.9393 0.0
C2218 C 0.60156 0.91836 0.9318 0.0
C2219 C 0.54781 0.8768 0.93368 0.0
C2220 C 0.52782 0.89198 0.93907 0.0
C2221 C 0.54592 0.85047 0.93505 0.0
C2222 C 0.56671 0.83328 0.93164 0.0
C2223 C 0.58745 0.83601 0.94556 0.0
C2224 C 0.60704 0.81987 0.94217 0.0
C2225 C 0.60605 0.8008 0.92502 0.0
C2226 C 0.58545 0.79779 0.91127 0.0
C2227 C 0.56582 0.8139 0.91457 0.0
H2228 H 0.62124 0.78832 0.92243 0.0
H2229 H 0.43122 0.94356 0.96103 0.0
H2230 H 0.89679 0.12067 0.41486 0.0
H2231 H 0.93355 0.14068 0.426 0.0
H2232 H 0.9677 0.06842 0.43746 0.0
H2233 H 0.93107 0.04811 0.42579 0.0
H2234 H 0.98026 0.10262 0.47298 0.0
H2235 H 0.97766 0.09878 0.38619 0.0
H2236 H 0.95985 0.10483 0.34546 0.0
H2237 H 0.95487 0.18411 0.35682 0.0
H2238 H 0.97234 0.1785 0.39779 0.0
H2239 H 0.09544 0.15574 0.47816 0.0
H2240 H 0.06164 0.12969 0.46871 0.0
H2241 H 0.02339 0.19456 0.43991 0.0
H2242 H 0.05761 0.21999 0.44767 0.0
H2243 H 0.01459 0.15979 0.41234 0.0
H2244 H 0.01517 0.16322 0.50083 0.0
H2245 H 0.03292 0.1565 0.54157 0.0
H2246 H 0.04183 0.07801 0.52735 0.0
H2247 H 0.02435 0.0843 0.48646 0.0
C2248 C 0.91208 0.10892 0.41964 0.0
C2249 C 0.91086 0.08267 0.41909 0.0
C2250 C 0.93313 0.12045 0.42613 0.0
C2251 C 0.95356 0.1061 0.43227 0.0
C2252 C 0.95221 0.07993 0.43279 0.0
C2253 C 0.93115 0.06834 0.42618 0.0
C2254 C 0.97647 0.11851 0.43711 0.0
C2255 C 0.98793 0.11495 0.45966 0.0
C2256 C 0.98648 0.13473 0.41984 0.0
C2257 C 0.97612 0.13819 0.39514 0.0
C2258 C 0.97261 0.11749 0.38007 0.0
C2259 C 0.9626 0.12084 0.35693 0.0
C2260 C 0.95619 0.14484 0.34858 0.0
C2261 C 0.95983 0.16554 0.36333 0.0
C2262 C 0.9698 0.16228 0.3865 0.0
C2263 C 0.07983 0.16433 0.46966 0.0
C2264 C 0.07929 0.18991 0.46354 0.0
C2265 C 0.06034 0.14947 0.46449 0.0
C2266 C 0.03949 0.16007 0.45397 0.0
C2267 C 0.0391 0.18568 0.44792 0.0
C2268 C 0.05876 0.2003 0.4524 0.0
C2269 C 0.01815 0.14484 0.44871 0.0
C2270 C 1.007 0.14763 0.42586 0.0
C2271 C 0.00845 0.12802 0.4658 0.0
C2272 C 0.01866 0.12428 0.49051 0.0
C2273 C 0.02101 0.14456 0.50636 0.0
C2274 C 0.03101 0.14082 0.52948 0.0
C2275 C 0.03855 0.11685 0.537 0.0
C2276 C 0.03601 0.09656 0.52148 0.0
C2277 C 0.02604 0.1002 0.49835 0.0
H2278 H 0.04632 0.11396 0.55484 0.0
H2279 H 0.94844 0.1474 0.33066 0.0
loop_
_geom_bond_atom_site_label_1
_geom_bond_atom_site_label_2
_geom_bond_distance
_geom_bond_site_symmetry_2
_ccdc_geom_bond_type
Gd0 C3 2.818 . S
Gd0 O20 2.377 . S
Gd0 O22 2.448 . S
Gd0 O23 2.506 . S
Gd0 O24 2.435 . S
Gd0 O25 2.717 . S
Gd0 O27 2.395 . S
Gd0 O31 2.327 . S
Gd1 C12 2.818 . S
Gd1 O21 2.395 . S
Gd1 O25 2.327 . S
Gd1 O26 2.377 . S
Gd1 O28 2.448 . S
Gd1 O29 2.506 . S
Gd1 O30 2.435 . S
Gd1 O31 2.717 . S
C2 O20 1.240 . S
C2 O21 1.240 . S
C3 Gd0 2.818 . S
C3 C4 1.510 . S
C3 O22 1.249 . S
C3 O23 1.252 . S
C4 C3 1.510 . S
C4 C5 1.404 . S
C4 C6 1.352 . S
C5 C4 1.404 . S
C5 C9 1.389 . S
C5 H32 0.930 . S
C6 C4 1.352 . S
C6 C8 1.374 . S
C6 H33 0.931 . S
C7 C8 1.359 . S
C7 C9 1.364 . S
C8 C6 1.374 . S
C8 C7 1.359 . S
C8 H34 0.931 . S
C9 C5 1.389 . S
C9 C7 1.364 . S
C9 H35 0.931 . S
C10 O24 1.256 . S
C10 O25 1.257 . S
C11 O26 1.240 . S
C11 O27 1.240 . S
C12 Gd1 2.818 . S
C12 C13 1.510 . S
C12 O28 1.249 . S
C12 O29 1.252 . S
C13 C12 1.510 . S
C13 C14 1.404 . S
C13 C15 1.352 . S
C14 C13 1.404 . S
C14 C18 1.389 . S
C14 H36 0.930 . S
C15 C13 1.352 . S
C15 C17 1.374 . S
C15 H37 0.931 . S
C16 C17 1.359 . S
C16 C18 1.364 . S
C17 C15 1.374 . S
C17 C16 1.359 . S
C17 H38 0.931 . S
C18 C14 1.389 . S
C18 C16 1.364 . S
C18 H39 0.931 . S
C19 O30 1.256 . S
C19 O31 1.257 . S
O20 Gd0 2.377 . S
O20 C2 1.240 . S
O21 Gd1 2.395 . S
O21 C2 1.240 . S
O22 Gd0 2.448 . S
O22 C3 1.249 . S
O23 Gd0 2.506 . S
O23 C3 1.252 . S
O24 Gd0 2.435 . S
O24 C10 1.256 . S
O25 Gd0 2.717 . S
O25 Gd1 2.327 . S
O25 C10 1.257 . S
O26 Gd1 2.377 . S
O26 C11 1.240 . S
O27 Gd0 2.395 . S
O27 C11 1.240 . S
O28 Gd1 2.448 . S
O28 C12 1.249 . S
O29 Gd1 2.506 . S
O29 C12 1.252 . S
O30 Gd1 2.435 . S
O30 C19 1.256 . S
O31 Gd0 2.327 . S
O31 Gd1 2.717 . S
O31 C19 1.257 . S
H32 C5 0.930 . S
H33 C6 0.931 . S
H34 C8 0.931 . S
H35 C9 0.931 . S
H36 C14 0.930 . S
H37 C15 0.931 . S
H38 C17 0.931 . S
H39 C18 0.931 . S
Gd40 C43 2.818 . S
Gd40 O60 2.377 1_655 S
Gd40 O62 2.448 . S
Gd40 O63 2.506 . S
Gd40 O64 2.435 1_655 S
Gd40 O65 2.717 1_655 S
Gd40 O67 2.395 . S
Gd40 O71 2.327 . S
Gd41 C52 2.818 . S
Gd41 O61 2.395 . S
Gd41 O65 2.327 . S
Gd41 O66 2.377 . S
Gd41 O68 2.448 . S
Gd41 O69 2.506 . S
Gd41 O70 2.435 . S
Gd41 O71 2.717 1_455 S
C42 O60 1.240 . S
C42 O61 1.240 . S
C43 Gd40 2.818 . S
C43 C44 1.510 . S
C43 O62 1.249 . S
C43 O63 1.252 . S
C44 C43 1.510 . S
C44 C45 1.404 . S
C44 C46 1.352 . S
C45 C44 1.404 . S
C45 C49 1.389 . S
C45 H72 0.930 . S
C46 C44 1.352 . S
C46 C48 1.374 . S
C46 H73 0.931 . S
C47 C48 1.359 . S
C47 C49 1.364 . S
C48 C46 1.374 . S
C48 C47 1.359 . S
C48 H74 0.931 . S
C49 C45 1.389 . S
C49 C47 1.364 . S
C49 H75 0.931 . S
C50 O64 1.256 . S
C50 O65 1.257 . S
C51 O66 1.240 . S
C51 O67 1.240 1_455 S
C52 Gd41 2.818 . S
C52 C53 1.510 . S
C52 O68 1.249 . S
C52 O69 1.252 . S
C53 C52 1.510 . S
C53 C54 1.404 . S
C53 C55 1.352 . S
C54 C53 1.404 . S
C54 C58 1.389 . S
C54 H76 0.930 . S
C55 C53 1.352 . S
C55 C57 1.374 . S
C55 H77 0.931 . S
C56 C57 1.359 . S
C56 C58 1.364 . S
C57 C55 1.374 . S
C57 C56 1.359 . S
C57 H78 0.931 . S
C58 C54 1.389 . S
C58 C56 1.364 . S
C58 H79 0.931 . S
C59 O70 1.256 1_655 S
C59 O71 1.257 . S
O60 Gd40 2.377 1_455 S
O60 C42 1.240 . S
O61 Gd41 2.395 . S
O61 C42 1.240 . S
O62 Gd40 2.448 . S
O62 C43 1.249 . S
O63 Gd40 2.506 . S
O63 C43 1.252 . S
O64 Gd40 2.435 1_455 S
O64 C50 1.256 . S
O65 Gd40 2.717 1_455 S
O65 Gd41 2.327 . S
O65 C50 1.257 . S
O66 Gd41 2.377 . S
O66 C51 1.240 . S
O67 Gd40 2.395 . S
O67 C51 1.240 1_655 S
O68 Gd41 2.448 . S
O68 C52 1.249 . S
O69 Gd41 2.506 . S
O69 C52 1.252 . S
O70 Gd41 2.435 . S
O70 C59 1.256 1_455 S
O71 Gd40 2.327 . S
O71 Gd41 2.717 1_655 S
O71 C59 1.257 . S
H72 C45 0.930 . S
H73 C46 0.931 . S
H74 C48 0.931 . S
H75 C49 0.931 . S
H76 C54 0.930 . S
H77 C55 0.931 . S
H78 C57 0.931 . S
H79 C58 0.931 . S
Gd80 C83 2.818 . S
Gd80 O100 2.377 1_554 S
Gd80 O102 2.448 . S
Gd80 O103 2.506 . S
Gd80 O104 2.435 1_554 S
Gd80 O105 2.717 1_554 S
Gd80 O107 2.395 . S
Gd80 O111 2.328 1_554 S
Gd81 C92 2.818 . S
Gd81 O101 2.395 . S
Gd81 O105 2.327 . S
Gd81 O106 2.377 . S
Gd81 O108 2.448 . S
Gd81 O109 2.506 . S
Gd81 O110 2.435 . S
Gd81 O111 2.714 . S
C82 O100 1.240 . S
C82 O101 1.240 . S
C83 Gd80 2.818 . S
C83 C84 1.510 . S
C83 O102 1.249 . S
C83 O103 1.252 . S
C84 C83 1.510 . S
C84 C85 1.404 . S
C84 C86 1.352 . S
C85 C84 1.404 . S
C85 C89 1.389 . S
C85 H112 0.930 . S
C86 C84 1.352 . S
C86 C88 1.374 . S
C86 H113 0.931 . S
C87 C88 1.359 . S
C87 C89 1.364 . S
C88 C86 1.374 . S
C88 C87 1.359 . S
C88 H114 0.931 . S
C89 C85 1.389 . S
C89 C87 1.364 . S
C89 H115 0.931 . S
C90 O104 1.256 . S
C90 O105 1.257 . S
C91 O106 1.240 . S
C91 O107 1.240 1_556 S
C92 Gd81 2.818 . S
C92 C93 1.510 . S
C92 O108 1.249 . S
C92 O109 1.252 . S
C93 C92 1.510 . S
C93 C94 1.404 . S
C93 C95 1.352 . S
C94 C93 1.404 . S
C94 C98 1.389 . S
C94 H116 0.930 . S
C95 C93 1.352 . S
C95 C97 1.374 . S
C95 H117 0.931 . S
C96 C97 1.359 . S
C96 C98 1.364 . S
C97 C95 1.374 . S
C97 C96 1.359 . S
C97 H118 0.931 . S
C98 C94 1.389 . S
C98 C96 1.364 . S
C98 H119 0.931 . S
C99 O110 1.256 1_554 S
C99 O111 1.258 1_554 S
O100 Gd80 2.377 1_556 S
O100 C82 1.240 . S
O101 Gd81 2.395 . S
O101 C82 1.240 . S
O102 Gd80 2.448 . S
O102 C83 1.249 . S
O103 Gd80 2.506 . S
O103 C83 1.252 . S
O104 Gd80 2.435 1_556 S
O104 C90 1.256 . S
O105 Gd80 2.717 1_556 S
O105 Gd81 2.327 . S
O105 C90 1.257 . S
O106 Gd81 2.377 . S
O106 C91 1.240 . S
O107 Gd80 2.395 . S
O107 C91 1.240 1_554 S
O108 Gd81 2.448 . S
O108 C92 1.249 . S
O109 Gd81 2.506 . S
O109 C92 1.252 . S
O110 Gd81 2.435 . S
O110 C99 1.256 1_556 S
O111 Gd80 2.328 1_556 S
O111 Gd81 2.714 . S
O111 C99 1.258 1_556 S
H112 C85 0.930 . S
H113 C86 0.931 . S
H114 C88 0.931 . S
H115 C89 0.931 . S
H116 C94 0.930 . S
H117 C95 0.931 . S
H118 C97 0.931 . S
H119 C98 0.931 . S
Gd120 C123 2.818 . S
Gd120 O140 2.377 . S
Gd120 O142 2.448 . S
Gd120 O143 2.506 . S
Gd120 O144 2.435 . S
Gd120 O145 2.717 . S
Gd120 O147 2.395 . S
Gd120 O151 2.327 . S
Gd121 C132 2.818 . S
Gd121 O141 2.395 . S
Gd121 O145 2.327 . S
Gd121 O146 2.377 . S
Gd121 O148 2.448 . S
Gd121 O149 2.506 . S
Gd121 O150 2.435 . S
Gd121 O151 2.717 . S
C122 O140 1.240 . S
C122 O141 1.240 . S
C123 Gd120 2.818 . S
C123 C124 1.510 . S
C123 O142 1.249 . S
C123 O143 1.252 . S
C124 C123 1.510 . S
C124 C125 1.404 . S
C124 C126 1.352 . S
C125 C124 1.404 . S
C125 C129 1.389 . S
C125 H152 0.930 . S
C126 C124 1.352 . S
C126 C128 1.374 . S
C126 H153 0.931 . S
C127 C128 1.359 . S
C127 C129 1.364 . S
C128 C126 1.374 . S
C128 C127 1.359 . S
C128 H154 0.931 . S
C129 C125 1.389 . S
C129 C127 1.364 . S
C129 H155 0.931 . S
C130 O144 1.256 . S
C130 O145 1.257 . S
C131 O146 1.240 . S
C131 O147 1.240 . S
C132 Gd121 2.818 . S
C132 C133 1.510 . S
C132 O148 1.249 . S
C132 O149 1.252 . S
C133 C132 1.510 . S
C133 C134 1.404 . S
C133 C135 1.352 . S
C134 C133 1.404 . S
C134 C138 1.389 . S
C134 H156 0.930 . S
C135 C133 1.352 . S
C135 C137 1.374 . S
C135 H157 0.931 . S
C136 C137 1.359 . S
C136 C138 1.364 . S
C137 C135 1.374 . S
C137 C136 1.359 . S
C137 H158 0.931 . S
C138 C134 1.389 . S
C138 C136 1.364 . S
C138 H159 0.931 . S
C139 O150 1.256 . S
C139 O151 1.257 . S
O140 Gd120 2.377 . S
O140 C122 1.240 . S
O141 Gd121 2.395 . S
O141 C122 1.240 . S
O142 Gd120 2.448 . S
O142 C123 1.249 . S
O143 Gd120 2.506 . S
O143 C123 1.252 . S
O144 Gd120 2.435 . S
O144 C130 1.256 . S
O145 Gd120 2.717 . S
O145 Gd121 2.327 . S
O145 C130 1.257 . S
O146 Gd121 2.377 . S
O146 C131 1.240 . S
O147 Gd120 2.395 . S
O147 C131 1.240 . S
O148 Gd121 2.448 . S
O148 C132 1.249 . S
O149 Gd121 2.506 . S
O149 C132 1.252 . S
O150 Gd121 2.435 . S
O150 C139 1.256 . S
O151 Gd120 2.327 . S
O151 Gd121 2.717 . S
O151 C139 1.257 . S
H152 C125 0.930 . S
H153 C126 0.931 . S
H154 C128 0.931 . S
H155 C129 0.931 . S
H156 C134 0.930 . S
H157 C135 0.931 . S
H158 C137 0.931 . S
H159 C138 0.931 . S
Gd160 C163 2.818 . S
Gd160 O180 2.377 . S
Gd160 O182 2.448 . S
Gd160 O183 2.506 . S
Gd160 O184 2.435 . S
Gd160 O185 2.717 . S
Gd160 O187 2.395 . S
Gd160 O191 2.327 . S
Gd161 C172 2.818 . S
Gd161 O181 2.395 . S
Gd161 O185 2.327 . S
Gd161 O186 2.377 . S
Gd161 O188 2.448 . S
Gd161 O189 2.506 . S
Gd161 O190 2.435 . S
Gd161 O191 2.717 . S
C162 O180 1.240 . S
C162 O181 1.240 . S
C163 Gd160 2.818 . S
C163 C164 1.510 . S
C163 O182 1.249 . S
C163 O183 1.252 . S
C164 C163 1.510 . S
C164 C165 1.404 . S
C164 C166 1.352 . S
C165 C164 1.404 . S
C165 C169 1.389 . S
C165 H192 0.930 . S
C166 C164 1.352 . S
C166 C168 1.374 . S
C166 H193 0.931 . S
C167 C168 1.359 . S
C167 C169 1.364 . S
C168 C166 1.374 . S
C168 C167 1.359 . S
C168 H194 0.931 . S
C169 C165 1.389 . S
C169 C167 1.364 . S
C169 H195 0.931 . S
C170 O184 1.256 . S
C170 O185 1.257 . S
C171 O186 1.240 . S
C171 O187 1.240 . S
C172 Gd161 2.818 . S
C172 C173 1.510 . S
C172 O188 1.249 . S
C172 O189 1.252 . S
C173 C172 1.510 . S
C173 C174 1.404 . S
C173 C175 1.352 . S
C174 C173 1.404 . S
C174 C178 1.389 . S
C174 H196 0.930 . S
C175 C173 1.352 . S
C175 C177 1.374 . S
C175 H197 0.931 . S
C176 C177 1.359 . S
C176 C178 1.364 . S
C177 C175 1.374 . S
C177 C176 1.359 . S
C177 H198 0.931 . S
C178 C174 1.389 . S
C178 C176 1.364 . S
C178 H199 0.931 . S
C179 O190 1.256 . S
C179 O191 1.257 . S
O180 Gd160 2.377 . S
O180 C162 1.240 . S
O181 Gd161 2.395 . S
O181 C162 1.240 . S
O182 Gd160 2.448 . S
O182 C163 1.249 . S
O183 Gd160 2.506 . S
O183 C163 1.252 . S
O184 Gd160 2.435 . S
O184 C170 1.256 . S
O185 Gd160 2.717 . S
O185 Gd161 2.327 . S
O185 C170 1.257 . S
O186 Gd161 2.377 . S
O186 C171 1.240 . S
O187 Gd160 2.395 . S
O187 C171 1.240 . S
O188 Gd161 2.448 . S
O188 C172 1.249 . S
O189 Gd161 2.506 . S
O189 C172 1.252 . S
O190 Gd161 2.435 . S
O190 C179 1.256 . S
O191 Gd160 2.327 . S
O191 Gd161 2.717 . S
O191 C179 1.257 . S
H192 C165 0.930 . S
H193 C166 0.931 . S
H194 C168 0.931 . S
H195 C169 0.931 . S
H196 C174 0.930 . S
H197 C175 0.931 . S
H198 C177 0.931 . S
H199 C178 0.931 . S
Gd200 C203 2.818 . S
Gd200 O220 2.377 . S
Gd200 O222 2.448 . S
Gd200 O223 2.506 . S
Gd200 O224 2.435 . S
Gd200 O225 2.717 . S
Gd200 O227 2.395 . S
Gd200 O231 2.327 . S
Gd201 C212 2.818 . S
Gd201 O221 2.395 1_455 S
Gd201 O225 2.327 1_455 S
Gd201 O226 2.377 . S
Gd201 O228 2.448 . S
Gd201 O229 2.506 . S
Gd201 O230 2.435 . S
Gd201 O231 2.717 1_455 S
C202 O220 1.240 . S
C202 O221 1.240 . S
C203 Gd200 2.818 . S
C203 C204 1.510 . S
C203 O222 1.249 . S
C203 O223 1.252 . S
C204 C203 1.510 . S
C204 C205 1.404 . S
C204 C206 1.352 . S
C205 C204 1.404 . S
C205 C209 1.389 . S
C205 H232 0.930 . S
C206 C204 1.352 . S
C206 C208 1.374 . S
C206 H233 0.931 . S
C207 C208 1.359 . S
C207 C209 1.364 . S
C208 C206 1.374 . S
C208 C207 1.359 . S
C208 H234 0.931 . S
C209 C205 1.389 . S
C209 C207 1.364 . S
C209 H235 0.931 . S
C210 O224 1.256 . S
C210 O225 1.257 . S
C211 O226 1.240 . S
C211 O227 1.240 1_455 S
C212 Gd201 2.818 . S
C212 C213 1.510 . S
C212 O228 1.249 . S
C212 O229 1.252 . S
C213 C212 1.510 . S
C213 C214 1.404 . S
C213 C215 1.352 . S
C214 C213 1.404 . S
C214 C218 1.389 . S
C214 H236 0.930 . S
C215 C213 1.352 . S
C215 C217 1.374 . S
C215 H237 0.931 . S
C216 C217 1.359 . S
C216 C218 1.364 . S
C217 C215 1.374 . S
C217 C216 1.359 . S
C217 H238 0.931 . S
C218 C214 1.389 . S
C218 C216 1.364 . S
C218 H239 0.931 . S
C219 O230 1.256 . S
C219 O231 1.257 1_455 S
O220 Gd200 2.377 . S
O220 C202 1.240 . S
O221 Gd201 2.395 1_655 S
O221 C202 1.240 . S
O222 Gd200 2.448 . S
O222 C203 1.249 . S
O223 Gd200 2.506 . S
O223 C203 1.252 . S
O224 Gd200 2.435 . S
O224 C210 1.256 . S
O225 Gd200 2.717 . S
O225 Gd201 2.327 1_655 S
O225 C210 1.257 . S
O226 Gd201 2.377 . S
O226 C211 1.240 . S
O227 Gd200 2.395 . S
O227 C211 1.240 1_655 S
O228 Gd201 2.448 . S
O228 C212 1.249 . S
O229 Gd201 2.506 . S
O229 C212 1.252 . S
O230 Gd201 2.435 . S
O230 C219 1.256 . S
O231 Gd200 2.327 . S
O231 Gd201 2.717 1_655 S
O231 C219 1.257 1_655 S
H232 C205 0.930 . S
H233 C206 0.931 . S
H234 C208 0.931 . S
H235 C209 0.931 . S
H236 C214 0.930 . S
H237 C215 0.931 . S
H238 C217 0.931 . S
H239 C218 0.931 . S
Gd240 C243 2.818 . S
Gd240 O260 2.377 . S
Gd240 O262 2.448 . S
Gd240 O263 2.506 . S
Gd240 O264 2.435 . S
Gd240 O265 2.717 . S
Gd240 O267 2.395 1_554 S
Gd240 O271 2.327 . S
Gd241 C252 2.818 . S
Gd241 O261 2.395 1_556 S
Gd241 O265 2.327 1_556 S
Gd241 O266 2.377 . S
Gd241 O268 2.448 . S
Gd241 O269 2.506 . S
Gd241 O270 2.435 . S
Gd241 O271 2.717 1_556 S
C242 O260 1.240 . S
C242 O261 1.240 . S
C243 Gd240 2.818 . S
C243 C244 1.510 . S
C243 O262 1.249 . S
C243 O263 1.252 . S
C244 C243 1.510 . S
C244 C245 1.404 . S
C244 C246 1.352 . S
C245 C244 1.404 . S
C245 C249 1.389 . S
C245 H272 0.930 . S
C246 C244 1.352 . S
C246 C248 1.374 . S
C246 H273 0.931 . S
C247 C248 1.359 . S
C247 C249 1.364 . S
C248 C246 1.374 . S
C248 C247 1.359 . S
C248 H274 0.931 . S
C249 C245 1.389 . S
C249 C247 1.364 . S
C249 H275 0.931 . S
C250 O264 1.256 . S
C250 O265 1.257 . S
C251 O266 1.240 . S
C251 O267 1.240 . S
C252 Gd241 2.818 . S
C252 C253 1.510 . S
C252 O268 1.249 . S
C252 O269 1.252 . S
C253 C252 1.510 . S
C253 C254 1.404 . S
C253 C255 1.352 . S
C254 C253 1.404 . S
C254 C258 1.389 . S
C254 H276 0.930 . S
C255 C253 1.352 . S
C255 C257 1.374 . S
C255 H277 0.931 . S
C256 C257 1.359 . S
C256 C258 1.364 . S
C257 C255 1.374 . S
C257 C256 1.359 . S
C257 H278 0.931 . S
C258 C254 1.389 . S
C258 C256 1.364 . S
C258 H279 0.931 . S
C259 O270 1.256 . S
C259 O271 1.257 1_556 S
O260 Gd240 2.377 . S
O260 C242 1.240 . S
O261 Gd241 2.395 1_554 S
O261 C242 1.240 . S
O262 Gd240 2.448 . S
O262 C243 1.249 . S
O263 Gd240 2.506 . S
O263 C243 1.252 . S
O264 Gd240 2.435 . S
O264 C250 1.256 . S
O265 Gd240 2.717 . S
O265 Gd241 2.327 1_554 S
O265 C250 1.257 . S
O266 Gd241 2.377 . S
O266 C251 1.240 . S
O267 Gd240 2.395 1_556 S
O267 C251 1.240 . S
O268 Gd241 2.448 . S
O268 C252 1.249 . S
O269 Gd241 2.506 . S
O269 C252 1.252 . S
O270 Gd241 2.435 . S
O270 C259 1.256 . S
O271 Gd240 2.327 . S
O271 Gd241 2.717 1_554 S
O271 C259 1.257 1_554 S
H272 C245 0.930 . S
H273 C246 0.931 . S
H274 C248 0.931 . S
H275 C249 0.931 . S
H276 C254 0.930 . S
H277 C255 0.931 . S
H278 C257 0.931 . S
H279 C258 0.931 . S
Gd280 C283 2.818 . S
Gd280 O300 2.377 . S
Gd280 O302 2.448 . S
Gd280 O303 2.506 . S
Gd280 O304 2.435 . S
Gd280 O305 2.717 . S
Gd280 O307 2.395 . S
Gd280 O311 2.327 . S
Gd281 C292 2.818 . S
Gd281 O301 2.395 . S
Gd281 O305 2.327 . S
Gd281 O306 2.377 . S
Gd281 O308 2.448 . S
Gd281 O309 2.506 . S
Gd281 O310 2.435 . S
Gd281 O311 2.717 . S
C282 O300 1.240 . S
C282 O301 1.240 . S
C283 Gd280 2.818 . S
C283 C284 1.510 . S
C283 O302 1.249 . S
C283 O303 1.252 . S
C284 C283 1.510 . S
C284 C285 1.404 . S
C284 C286 1.352 . S
C285 C284 1.404 . S
C285 C289 1.389 . S
C285 H312 0.930 . S
C286 C284 1.352 . S
C286 C288 1.374 . S
C286 H313 0.931 . S
C287 C288 1.359 . S
C287 C289 1.364 . S
C288 C286 1.374 . S
C288 C287 1.359 . S
C288 H314 0.931 . S
C289 C285 1.389 . S
C289 C287 1.364 . S
C289 H315 0.931 . S
C290 O304 1.256 . S
C290 O305 1.257 . S
C291 O306 1.240 . S
C291 O307 1.240 . S
C292 Gd281 2.818 . S
C292 C293 1.510 . S
C292 O308 1.249 . S
C292 O309 1.252 . S
C293 C292 1.510 . S
C293 C294 1.404 . S
C293 C295 1.352 . S
C294 C293 1.404 . S
C294 C298 1.389 . S
C294 H316 0.930 . S
C295 C293 1.352 . S
C295 C297 1.374 . S
C295 H317 0.931 . S
C296 C297 1.359 . S
C296 C298 1.364 . S
C297 C295 1.374 . S
C297 C296 1.359 . S
C297 H318 0.931 . S
C298 C294 1.389 . S
C298 C296 1.364 . S
C298 H319 0.931 . S
C299 O310 1.256 . S
C299 O311 1.257 . S
O300 Gd280 2.377 . S
O300 C282 1.240 . S
O301 Gd281 2.395 . S
O301 C282 1.240 . S
O302 Gd280 2.448 . S
O302 C283 1.249 . S
O303 Gd280 2.506 . S
O303 C283 1.252 . S
O304 Gd280 2.435 . S
O304 C290 1.256 . S
O305 Gd280 2.717 . S
O305 Gd281 2.327 . S
O305 C290 1.257 . S
O306 Gd281 2.377 . S
O306 C291 1.240 . S
O307 Gd280 2.395 . S
O307 C291 1.240 . S
O308 Gd281 2.448 . S
O308 C292 1.249 . S
O309 Gd281 2.506 . S
O309 C292 1.252 . S
O310 Gd281 2.435 . S
O310 C299 1.256 . S
O311 Gd280 2.327 . S
O311 Gd281 2.717 . S
O311 C299 1.257 . S
H312 C285 0.930 . S
H313 C286 0.931 . S
H314 C288 0.931 . S
H315 C289 0.931 . S
H316 C294 0.930 . S
H317 C295 0.931 . S
H318 C297 0.931 . S
H319 C298 0.931 . S
Gd320 C323 2.818 . S
Gd320 O340 2.377 . S
Gd320 O342 2.448 . S
Gd320 O343 2.506 . S
Gd320 O344 2.435 . S
Gd320 O345 2.717 . S
Gd320 O347 2.395 . S
Gd320 O351 2.327 . S
Gd321 C332 2.818 . S
Gd321 O341 2.395 . S
Gd321 O345 2.327 . S
Gd321 O346 2.377 . S
Gd321 O348 2.448 . S
Gd321 O349 2.506 . S
Gd321 O350 2.435 . S
Gd321 O351 2.717 . S
C322 O340 1.240 . S
C322 O341 1.240 . S
C323 Gd320 2.818 . S
C323 C324 1.510 . S
C323 O342 1.249 . S
C323 O343 1.252 . S
C324 C323 1.510 . S
C324 C325 1.404 . S
C324 C326 1.352 . S
C325 C324 1.404 . S
C325 C329 1.389 . S
C325 H352 0.930 . S
C326 C324 1.352 . S
C326 C328 1.374 . S
C326 H353 0.931 . S
C327 C328 1.359 . S
C327 C329 1.364 . S
C328 C326 1.374 . S
C328 C327 1.359 . S
C328 H354 0.931 . S
C329 C325 1.389 . S
C329 C327 1.364 . S
C329 H355 0.931 . S
C330 O344 1.256 . S
C330 O345 1.257 . S
C331 O346 1.240 . S
C331 O347 1.240 . S
C332 Gd321 2.818 . S
C332 C333 1.510 . S
C332 O348 1.249 . S
C332 O349 1.252 . S
C333 C332 1.510 . S
C333 C334 1.404 . S
C333 C335 1.352 . S
C334 C333 1.404 . S
C334 C338 1.389 . S
C334 H356 0.930 . S
C335 C333 1.352 . S
C335 C337 1.374 . S
C335 H357 0.931 . S
C336 C337 1.359 . S
C336 C338 1.364 . S
C337 C335 1.374 . S
C337 C336 1.359 . S
C337 H358 0.931 . S
C338 C334 1.389 . S
C338 C336 1.364 . S
C338 H359 0.931 . S
C339 O350 1.256 . S
C339 O351 1.257 . S
O340 Gd320 2.377 . S
O340 C322 1.240 . S
O341 Gd321 2.395 . S
O341 C322 1.240 . S
O342 Gd320 2.448 . S
O342 C323 1.249 . S
O343 Gd320 2.506 . S
O343 C323 1.252 . S
O344 Gd320 2.435 . S
O344 C330 1.256 . S
O345 Gd320 2.717 . S
O345 Gd321 2.327 . S
O345 C330 1.257 . S
O346 Gd321 2.377 . S
O346 C331 1.240 . S
O347 Gd320 2.395 . S
O347 C331 1.240 . S
O348 Gd321 2.448 . S
O348 C332 1.249 . S
O349 Gd321 2.506 . S
O349 C332 1.252 . S
O350 Gd321 2.435 . S
O350 C339 1.256 . S
O351 Gd320 2.327 . S
O351 Gd321 2.717 . S
O351 C339 1.257 . S
H352 C325 0.930 . S
H353 C326 0.931 . S
H354 C328 0.931 . S
H355 C329 0.931 . S
H356 C334 0.930 . S
H357 C335 0.931 . S
H358 C337 0.931 . S
H359 C338 0.931 . S
Gd360 C363 2.818 . S
Gd360 O380 2.377 1_565 S
Gd360 O382 2.448 . S
Gd360 O383 2.506 . S
Gd360 O384 2.435 1_565 S
Gd360 O385 2.717 1_565 S
Gd360 O387 2.395 . S
Gd360 O391 2.327 . S
Gd361 C372 2.818 . S
Gd361 O381 2.395 . S
Gd361 O385 2.327 . S
Gd361 O386 2.377 . S
Gd361 O388 2.448 . S
Gd361 O389 2.506 . S
Gd361 O390 2.435 . S
Gd361 O391 2.717 1_545 S
C362 O380 1.240 . S
C362 O381 1.240 . S
C363 Gd360 2.818 . S
C363 C364 1.510 . S
C363 O382 1.249 . S
C363 O383 1.252 . S
C364 C363 1.510 . S
C364 C365 1.404 . S
C364 C366 1.352 . S
C365 C364 1.404 . S
C365 C369 1.389 . S
C365 H392 0.930 . S
C366 C364 1.352 . S
C366 C368 1.374 . S
C366 H393 0.931 . S
C367 C368 1.359 . S
C367 C369 1.364 . S
C368 C366 1.374 . S
C368 C367 1.359 . S
C368 H394 0.931 . S
C369 C365 1.389 . S
C369 C367 1.364 . S
C369 H395 0.931 . S
C370 O384 1.256 . S
C370 O385 1.257 . S
C371 O386 1.240 . S
C371 O387 1.240 1_545 S
C372 Gd361 2.818 . S
C372 C373 1.510 . S
C372 O388 1.249 . S
C372 O389 1.252 . S
C373 C372 1.510 . S
C373 C374 1.404 . S
C373 C375 1.352 . S
C374 C373 1.404 . S
C374 C378 1.389 . S
C374 H396 0.930 . S
C375 C373 1.352 . S
C375 C377 1.374 . S
C375 H397 0.931 . S
C376 C377 1.359 . S
C376 C378 1.364 . S
C377 C375 1.374 . S
C377 C376 1.359 . S
C377 H398 0.931 . S
C378 C374 1.389 . S
C378 C376 1.364 . S
C378 H399 0.931 . S
C379 O390 1.256 1_565 S
C379 O391 1.257 . S
O380 Gd360 2.377 1_545 S
O380 C362 1.240 . S
O381 Gd361 2.395 . S
O381 C362 1.240 . S
O382 Gd360 2.448 . S
O382 C363 1.249 . S
O383 Gd360 2.506 . S
O383 C363 1.252 . S
O384 Gd360 2.435 1_545 S
O384 C370 1.256 . S
O385 Gd360 2.717 1_545 S
O385 Gd361 2.327 . S
O385 C370 1.257 . S
O386 Gd361 2.377 . S
O386 C371 1.240 . S
O387 Gd360 2.395 . S
O387 C371 1.240 1_565 S
O388 Gd361 2.448 . S
O388 C372 1.249 . S
O389 Gd361 2.506 . S
O389 C372 1.252 . S
O390 Gd361 2.435 . S
O390 C379 1.256 1_545 S
O391 Gd360 2.327 . S
O391 Gd361 2.717 1_565 S
O391 C379 1.257 . S
H392 C365 0.930 . S
H393 C366 0.931 . S
H394 C368 0.931 . S
H395 C369 0.931 . S
H396 C374 0.930 . S
H397 C375 0.931 . S
H398 C377 0.931 . S
H399 C378 0.931 . S
Gd400 C403 2.818 . S
Gd400 O420 2.377 . S
Gd400 O422 2.448 . S
Gd400 O423 2.506 . S
Gd400 O424 2.435 . S
Gd400 O425 2.717 . S
Gd400 O427 2.395 . S
Gd400 O431 2.327 . S
Gd401 C412 2.818 . S
Gd401 O421 2.395 1_545 S
Gd401 O425 2.327 1_545 S
Gd401 O426 2.377 . S
Gd401 O428 2.448 . S
Gd401 O429 2.506 . S
Gd401 O430 2.435 . S
Gd401 O431 2.717 1_545 S
C402 O420 1.240 . S
C402 O421 1.240 . S
C403 Gd400 2.818 . S
C403 C404 1.510 . S
C403 O422 1.249 . S
C403 O423 1.252 . S
C404 C403 1.510 . S
C404 C405 1.404 . S
C404 C406 1.352 . S
C405 C404 1.404 . S
C405 C409 1.389 . S
C405 H432 0.930 . S
C406 C404 1.352 . S
C406 C408 1.374 . S
C406 H433 0.931 . S
C407 C408 1.359 . S
C407 C409 1.364 . S
C408 C406 1.374 . S
C408 C407 1.359 . S
C408 H434 0.931 . S
C409 C405 1.389 . S
C409 C407 1.364 . S
C409 H435 0.931 . S
C410 O424 1.256 . S
C410 O425 1.257 . S
C411 O426 1.240 . S
C411 O427 1.240 1_545 S
C412 Gd401 2.818 . S
C412 C413 1.510 . S
C412 O428 1.249 . S
C412 O429 1.252 . S
C413 C412 1.510 . S
C413 C414 1.404 . S
C413 C415 1.352 . S
C414 C413 1.404 . S
C414 C418 1.389 . S
C414 H436 0.930 . S
C415 C413 1.352 . S
C415 C417 1.374 . S
C415 H437 0.931 . S
C416 C417 1.359 . S
C416 C418 1.364 . S
C417 C415 1.374 . S
C417 C416 1.359 . S
C417 H438 0.931 . S
C418 C414 1.389 . S
C418 C416 1.364 . S
C418 H439 0.931 . S
C419 O430 1.256 . S
C419 O431 1.257 1_545 S
O420 Gd400 2.377 . S
O420 C402 1.240 . S
O421 Gd401 2.395 1_565 S
O421 C402 1.240 . S
O422 Gd400 2.448 . S
O422 C403 1.249 . S
O423 Gd400 2.506 . S
O423 C403 1.252 . S
O424 Gd400 2.435 . S
O424 C410 1.256 . S
O425 Gd400 2.717 . S
O425 Gd401 2.327 1_565 S
O425 C410 1.257 . S
O426 Gd401 2.377 . S
O426 C411 1.240 . S
O427 Gd400 2.395 . S
O427 C411 1.240 1_565 S
O428 Gd401 2.448 . S
O428 C412 1.249 . S
O429 Gd401 2.506 . S
O429 C412 1.252 . S
O430 Gd401 2.435 . S
O430 C419 1.256 . S
O431 Gd400 2.327 . S
O431 Gd401 2.717 1_565 S
O431 C419 1.257 1_565 S
H432 C405 0.930 . S
H433 C406 0.931 . S
H434 C408 0.931 . S
H435 C409 0.931 . S
H436 C414 0.930 . S
H437 C415 0.931 . S
H438 C417 0.931 . S
H439 C418 0.931 . S
Gd440 C443 2.818 . S
Gd440 O460 2.377 . S
Gd440 O462 2.448 . S
Gd440 O463 2.506 . S
Gd440 O464 2.435 . S
Gd440 O465 2.717 . S
Gd440 O467 2.395 . S
Gd440 O471 2.327 . S
Gd441 C452 2.818 . S
Gd441 O461 2.395 . S
Gd441 O465 2.327 . S
Gd441 O466 2.377 . S
Gd441 O468 2.448 . S
Gd441 O469 2.506 . S
Gd441 O470 2.435 . S
Gd441 O471 2.717 . S
C442 O460 1.240 . S
C442 O461 1.240 . S
C443 Gd440 2.818 . S
C443 C444 1.510 . S
C443 O462 1.249 . S
C443 O463 1.252 . S
C444 C443 1.510 . S
C444 C445 1.404 . S
C444 C446 1.352 . S
C445 C444 1.404 . S
C445 C449 1.389 . S
C445 H472 0.930 . S
C446 C444 1.352 . S
C446 C448 1.374 . S
C446 H473 0.931 . S
C447 C448 1.359 . S
C447 C449 1.364 . S
C448 C446 1.374 . S
C448 C447 1.359 . S
C448 H474 0.931 . S
C449 C445 1.389 . S
C449 C447 1.364 . S
C449 H475 0.931 . S
C450 O464 1.256 . S
C450 O465 1.257 . S
C451 O466 1.240 . S
C451 O467 1.240 . S
C452 Gd441 2.818 . S
C452 C453 1.510 . S
C452 O468 1.249 . S
C452 O469 1.252 . S
C453 C452 1.510 . S
C453 C454 1.404 . S
C453 C455 1.352 . S
C454 C453 1.404 . S
C454 C458 1.389 . S
C454 H476 0.930 . S
C455 C453 1.352 . S
C455 C457 1.374 . S
C455 H477 0.931 . S
C456 C457 1.359 . S
C456 C458 1.364 . S
C457 C455 1.374 . S
C457 C456 1.359 . S
C457 H478 0.931 . S
C458 C454 1.389 . S
C458 C456 1.364 . S
C458 H479 0.931 . S
C459 O470 1.256 . S
C459 O471 1.257 . S
O460 Gd440 2.377 . S
O460 C442 1.240 . S
O461 Gd441 2.395 . S
O461 C442 1.240 . S
O462 Gd440 2.448 . S
O462 C443 1.249 . S
O463 Gd440 2.506 . S
O463 C443 1.252 . S
O464 Gd440 2.435 . S
O464 C450 1.256 . S
O465 Gd440 2.717 . S
O465 Gd441 2.327 . S
O465 C450 1.257 . S
O466 Gd441 2.377 . S
O466 C451 1.240 . S
O467 Gd440 2.395 . S
O467 C451 1.240 . S
O468 Gd441 2.448 . S
O468 C452 1.249 . S
O469 Gd441 2.506 . S
O469 C452 1.252 . S
O470 Gd441 2.435 . S
O470 C459 1.256 . S
O471 Gd440 2.327 . S
O471 Gd441 2.717 . S
O471 C459 1.257 . S
H472 C445 0.930 . S
H473 C446 0.931 . S
H474 C448 0.931 . S
H475 C449 0.931 . S
H476 C454 0.930 . S
H477 C455 0.931 . S
H478 C457 0.931 . S
H479 C458 0.931 . S
H480 C498 0.951 . S
H481 C500 0.951 . S
H482 C502 0.950 . S
H483 C503 0.950 . S
H484 C505 0.950 . S
H485 C508 0.950 . S
H486 C509 0.950 . S
H487 C511 0.950 . S
H488 C512 0.950 . S
H489 C513 0.951 . S
H490 C515 0.951 . S
H491 C517 0.950 . S
H492 C518 0.950 . S
H493 C520 0.950 . S
H494 C523 0.950 . S
H495 C524 0.950 . S
H496 C526 0.950 . S
H497 C527 0.950 . S
C498 H480 0.951 . S
C498 C499 1.366 . S
C498 C500 1.388 . S
C499 C498 1.366 . S
C499 C503 1.385 . S
C500 H481 0.951 . S
C500 C498 1.388 . S
C500 C501 1.366 . S
C501 C500 1.366 . S
C501 C502 1.414 . S
C501 C504 1.499 . S
C502 H482 0.950 . S
C502 C501 1.414 . S
C502 C503 1.374 . S
C503 H483 0.950 . S
C503 C499 1.385 . S
C503 C502 1.374 . S
C504 C501 1.499 . S
C504 C505 1.373 . S
C504 C506 1.389 . S
C505 H484 0.950 . S
C505 C504 1.373 . S
C505 C521 1.377 . S
C506 C504 1.389 . S
C506 C507 1.524 . S
C506 C520 1.377 . S
C507 C506 1.524 . S
C507 C508 1.397 . S
C507 C512 1.363 . S
C508 H485 0.950 . S
C508 C507 1.397 . S
C508 C509 1.334 . S
C509 H486 0.950 . S
C509 C508 1.334 . S
C509 C510 1.287 . S
C510 C509 1.287 . S
C510 C511 1.524 . S
C510 H529 0.913 . S
C511 H487 0.950 . S
C511 C510 1.524 . S
C511 C512 1.415 . S
C512 H488 0.950 . S
C512 C507 1.363 . S
C512 C511 1.415 . S
C513 H489 0.951 . S
C513 C514 1.366 . S
C513 C515 1.388 . S
C514 C513 1.366 . S
C514 C518 1.385 . S
C515 H490 0.951 . S
C515 C513 1.388 . S
C515 C516 1.366 . S
C516 C515 1.366 . S
C516 C517 1.414 . S
C516 C519 1.499 . S
C517 H491 0.950 . S
C517 C516 1.414 . S
C517 C518 1.374 . S
C518 H492 0.950 . S
C518 C514 1.385 . S
C518 C517 1.374 . S
C519 C516 1.499 . S
C519 C520 1.373 . S
C519 C521 1.389 . S
C520 H493 0.950 . S
C520 C506 1.377 . S
C520 C519 1.373 . S
C521 C505 1.377 . S
C521 C519 1.389 . S
C521 C522 1.524 . S
C522 C521 1.524 . S
C522 C523 1.397 . S
C522 C527 1.363 . S
C523 H494 0.950 . S
C523 C522 1.397 . S
C523 C524 1.334 . S
C524 H495 0.950 . S
C524 C523 1.334 . S
C524 C525 1.287 . S
C525 C524 1.287 . S
C525 C526 1.524 . S
C525 H528 0.999 . S
C526 H496 0.950 . S
C526 C525 1.524 . S
C526 C527 1.415 . S
C527 H497 0.950 . S
C527 C522 1.363 . S
C527 C526 1.415 . S
H528 C525 0.999 . S
H529 C510 0.913 . S
H530 C548 0.951 . S
H531 C550 0.951 . S
H532 C552 0.950 . S
H533 C553 0.950 . S
H534 C555 0.950 . S
H535 C558 0.950 . S
H536 C559 0.950 . S
H537 C561 0.950 . S
H538 C562 0.950 . S
H539 C563 0.951 . S
H540 C565 0.951 . S
H541 C567 0.950 . S
H542 C568 0.950 . S
H543 C570 0.950 . S
H544 C573 0.950 . S
H545 C574 0.950 . S
H546 C576 0.950 . S
H547 C577 0.950 . S
C548 H530 0.951 . S
C548 C549 1.400 . S
C548 C550 1.388 . S
C549 C548 1.400 . S
C549 C553 1.363 1_565 S
C550 H531 0.951 . S
C550 C548 1.388 . S
C550 C551 1.366 . S
C551 C550 1.366 . S
C551 C552 1.414 1_565 S
C551 C554 1.499 . S
C552 H532 0.950 . S
C552 C551 1.414 1_545 S
C552 C553 1.374 . S
C553 H533 0.950 . S
C553 C549 1.363 1_545 S
C553 C552 1.374 . S
C554 C551 1.499 . S
C554 C555 1.373 . S
C554 C556 1.389 . S
C555 H534 0.950 . S
C555 C554 1.373 . S
C555 C571 1.377 . S
C556 C554 1.389 . S
C556 C557 1.524 . S
C556 C570 1.377 . S
C557 C556 1.524 . S
C557 C558 1.397 . S
C557 C562 1.363 . S
C558 H535 0.950 . S
C558 C557 1.397 . S
C558 C559 1.334 . S
C559 H536 0.950 . S
C559 C558 1.334 . S
C559 C560 1.287 . S
C560 C559 1.287 . S
C560 C561 1.524 . S
C560 H579 0.913 . S
C561 H537 0.950 . S
C561 C560 1.524 . S
C561 C562 1.415 . S
C562 H538 0.950 . S
C562 C557 1.363 . S
C562 C561 1.415 . S
C563 H539 0.951 . S
C563 C564 1.366 . S
C563 C565 1.388 . S
C564 C563 1.366 . S
C564 C568 1.385 . S
C565 H540 0.951 . S
C565 C563 1.388 . S
C565 C566 1.366 . S
C566 C565 1.366 . S
C566 C567 1.414 . S
C566 C569 1.499 . S
C567 H541 0.950 . S
C567 C566 1.414 . S
C567 C568 1.374 . S
C568 H542 0.950 . S
C568 C564 1.385 . S
C568 C567 1.374 . S
C569 C566 1.499 . S
C569 C570 1.373 . S
C569 C571 1.389 . S
C570 H543 0.950 . S
C570 C556 1.377 . S
C570 C569 1.373 . S
C571 C555 1.377 . S
C571 C569 1.389 . S
C571 C572 1.524 . S
C572 C571 1.524 . S
C572 C573 1.397 . S
C572 C577 1.363 1_565 S
C573 H544 0.950 . S
C573 C572 1.397 . S
C573 C574 1.334 . S
C574 H545 0.950 . S
C574 C573 1.334 . S
C574 C575 1.287 . S
C575 C574 1.287 . S
C575 C576 1.524 1_565 S
C575 H578 0.999 1_565 S
C576 H546 0.950 . S
C576 C575 1.524 1_545 S
C576 C577 1.415 . S
C577 H547 0.950 . S
C577 C572 1.363 1_545 S
C577 C576 1.415 . S
H578 C575 0.999 1_545 S
H579 C560 0.913 . S
H580 C598 0.950 1_556 S
H581 C600 0.951 . S
H582 C602 0.950 . S
H583 C603 0.950 . S
H584 C605 0.950 . S
H585 C608 0.950 . S
H586 C609 0.950 . S
H587 C611 0.950 . S
H588 C612 0.950 1_554 S
H589 C613 0.951 . S
H590 C615 0.951 . S
H591 C617 0.950 . S
H592 C618 0.950 . S
H593 C620 0.950 . S
H594 C623 0.950 . S
H595 C624 0.950 . S
H596 C626 0.950 . S
H597 C627 0.950 . S
C598 H580 0.950 1_554 S
C598 C599 1.366 1_554 S
C598 C600 1.388 . S
C599 C598 1.366 1_556 S
C599 C603 1.385 . S
C600 H581 0.951 . S
C600 C598 1.388 . S
C600 C601 1.366 . S
C601 C600 1.366 . S
C601 C602 1.414 . S
C601 C604 1.499 . S
C602 H582 0.950 . S
C602 C601 1.414 . S
C602 C603 1.374 1_554 S
C603 H583 0.950 . S
C603 C599 1.385 . S
C603 C602 1.374 1_556 S
C604 C601 1.499 . S
C604 C605 1.373 . S
C604 C606 1.389 . S
C605 H584 0.950 . S
C605 C604 1.373 . S
C605 C621 1.377 . S
C606 C604 1.389 . S
C606 C607 1.524 1_554 S
C606 C620 1.377 . S
C607 C606 1.524 1_556 S
C607 C608 1.397 . S
C607 C612 1.363 . S
C608 H585 0.950 . S
C608 C607 1.397 . S
C608 C609 1.334 . S
C609 H586 0.950 . S
C609 C608 1.334 . S
C609 C610 1.287 . S
C610 C609 1.287 . S
C610 C611 1.524 . S
C610 H629 0.913 . S
C611 H587 0.950 . S
C611 C610 1.524 . S
C611 C612 1.415 . S
C612 H588 0.950 1_556 S
C612 C607 1.363 . S
C612 C611 1.415 . S
C613 H589 0.951 . S
C613 C614 1.366 . S
C613 C615 1.388 . S
C614 C613 1.366 . S
C614 C618 1.385 . S
C615 H590 0.951 . S
C615 C613 1.388 . S
C615 C616 1.366 . S
C616 C615 1.366 . S
C616 C617 1.414 . S
C616 C619 1.499 . S
C617 H591 0.950 . S
C617 C616 1.414 . S
C617 C618 1.374 . S
C618 H592 0.950 . S
C618 C614 1.385 . S
C618 C617 1.374 . S
C619 C616 1.499 . S
C619 C620 1.373 . S
C619 C621 1.389 . S
C620 H593 0.950 . S
C620 C606 1.377 . S
C620 C619 1.373 . S
C621 C605 1.377 . S
C621 C619 1.389 . S
C621 C622 1.524 . S
C622 C621 1.524 . S
C622 C623 1.397 . S
C622 C627 1.363 . S
C623 H594 0.950 . S
C623 C622 1.397 . S
C623 C624 1.334 . S
C624 H595 0.950 . S
C624 C623 1.334 . S
C624 C625 1.287 . S
C625 C624 1.287 . S
C625 C626 1.524 . S
C625 H628 0.999 . S
C626 H596 0.950 . S
C626 C625 1.524 . S
C626 C627 1.415 . S
C627 H597 0.950 . S
C627 C622 1.363 . S
C627 C626 1.415 . S
H628 C625 0.999 . S
H629 C610 0.913 . S
H630 C648 0.951 . S
H631 C650 0.951 . S
H632 C652 0.950 . S
H633 C653 0.950 . S
H634 C655 0.950 . S
H635 C658 0.950 . S
H636 C659 0.939 1_565 S
H637 C661 0.950 . S
H638 C662 0.950 . S
H639 C663 0.951 . S
H640 C665 0.951 . S
H641 C667 0.950 . S
H642 C668 0.950 . S
H643 C670 0.950 . S
H644 C673 0.950 . S
H645 C674 0.950 . S
H646 C676 0.950 . S
H647 C677 0.950 . S
C648 H630 0.951 . S
C648 C649 1.366 . S
C648 C650 1.388 . S
C649 C648 1.366 . S
C649 C653 1.385 . S
C650 H631 0.951 . S
C650 C648 1.388 . S
C650 C651 1.366 . S
C651 C650 1.366 . S
C651 C652 1.414 . S
C651 C654 1.499 . S
C652 H632 0.950 . S
C652 C651 1.414 . S
C652 C653 1.374 . S
C653 H633 0.950 . S
C653 C649 1.385 . S
C653 C652 1.374 . S
C654 C651 1.499 . S
C654 C655 1.373 . S
C654 C656 1.389 . S
C655 H634 0.950 . S
C655 C654 1.373 . S
C655 C671 1.377 . S
C656 C654 1.389 . S
C656 C657 1.524 . S
C656 C670 1.377 . S
C657 C656 1.524 . S
C657 C658 1.397 . S
C657 C662 1.363 . S
C658 H635 0.950 . S
C658 C657 1.397 . S
C658 C659 1.347 . S
C659 H636 0.939 1_545 S
C659 C658 1.347 . S
C659 C660 1.287 . S
C660 C659 1.287 . S
C660 C661 1.522 . S
C660 H679 0.915 1_545 S
C661 H637 0.950 . S
C661 C660 1.522 . S
C661 C662 1.415 . S
C662 H638 0.950 . S
C662 C657 1.363 . S
C662 C661 1.415 . S
C663 H639 0.951 . S
C663 C664 1.366 . S
C663 C665 1.388 . S
C664 C663 1.366 . S
C664 C668 1.385 . S
C665 H640 0.951 . S
C665 C663 1.388 . S
C665 C666 1.366 . S
C666 C665 1.366 . S
C666 C667 1.414 . S
C666 C669 1.499 . S
C667 H641 0.950 . S
C667 C666 1.414 . S
C667 C668 1.374 . S
C668 H642 0.950 . S
C668 C664 1.385 . S
C668 C667 1.374 . S
C669 C666 1.499 . S
C669 C670 1.373 . S
C669 C671 1.389 . S
C670 H643 0.950 . S
C670 C656 1.377 . S
C670 C669 1.373 . S
C671 C655 1.377 . S
C671 C669 1.389 . S
C671 C672 1.524 . S
C672 C671 1.524 . S
C672 C673 1.397 . S
C672 C677 1.363 . S
C673 H644 0.950 . S
C673 C672 1.397 . S
C673 C674 1.334 . S
C674 H645 0.950 . S
C674 C673 1.334 . S
C674 C675 1.287 . S
C675 C674 1.287 . S
C675 C676 1.524 . S
C675 H678 0.999 . S
C676 H646 0.950 . S
C676 C675 1.524 . S
C676 C677 1.415 . S
C677 H647 0.950 . S
C677 C672 1.363 . S
C677 C676 1.415 . S
H678 C675 0.999 . S
H679 C660 0.915 1_565 S
H680 C698 0.951 . S
H681 C700 0.951 . S
H682 C702 0.950 . S
H683 C703 0.950 . S
H684 C705 0.950 . S
H685 C708 0.950 . S
H686 C709 0.950 . S
H687 C711 0.950 . S
H688 C712 0.950 . S
H689 C713 0.951 . S
H690 C715 0.951 . S
H691 C717 0.950 . S
H692 C718 0.950 . S
H693 C720 0.950 . S
H694 C723 0.950 . S
H695 C724 0.950 . S
H696 C726 0.950 . S
H697 C727 0.950 . S
C698 H680 0.951 . S
C698 C699 1.366 . S
C698 C700 1.388 . S
C699 C698 1.366 . S
C699 C703 1.385 . S
C700 H681 0.951 . S
C700 C698 1.388 . S
C700 C701 1.366 . S
C701 C700 1.366 . S
C701 C702 1.414 . S
C701 C704 1.499 . S
C702 H682 0.950 . S
C702 C701 1.414 . S
C702 C703 1.374 . S
C703 H683 0.950 . S
C703 C699 1.385 . S
C703 C702 1.374 . S
C704 C701 1.499 . S
C704 C705 1.373 . S
C704 C706 1.389 . S
C705 H684 0.950 . S
C705 C704 1.373 . S
C705 C721 1.377 . S
C706 C704 1.389 . S
C706 C707 1.524 . S
C706 C720 1.377 . S
C707 C706 1.524 . S
C707 C708 1.397 . S
C707 C712 1.363 . S
C708 H685 0.950 . S
C708 C707 1.397 . S
C708 C709 1.334 . S
C709 H686 0.950 . S
C709 C708 1.334 . S
C709 C710 1.287 . S
C710 C709 1.287 . S
C710 C711 1.524 . S
C710 H729 0.913 . S
C711 H687 0.950 . S
C711 C710 1.524 . S
C711 C712 1.415 . S
C712 H688 0.950 . S
C712 C707 1.363 . S
C712 C711 1.415 . S
C713 H689 0.951 . S
C713 C714 1.366 . S
C713 C715 1.388 . S
C714 C713 1.366 . S
C714 C718 1.385 . S
C715 H690 0.951 . S
C715 C713 1.388 . S
C715 C716 1.366 . S
C716 C715 1.366 . S
C716 C717 1.414 . S
C716 C719 1.499 . S
C717 H691 0.950 . S
C717 C716 1.414 . S
C717 C718 1.374 . S
C718 H692 0.950 . S
C718 C714 1.385 . S
C718 C717 1.374 . S
C719 C716 1.499 . S
C719 C720 1.373 . S
C719 C721 1.389 . S
C720 H693 0.950 . S
C720 C706 1.377 . S
C720 C719 1.373 . S
C721 C705 1.377 . S
C721 C719 1.389 . S
C721 C722 1.524 . S
C722 C721 1.524 . S
C722 C723 1.397 . S
C722 C727 1.363 . S
C723 H694 0.950 . S
C723 C722 1.397 . S
C723 C724 1.334 . S
C724 H695 0.950 . S
C724 C723 1.334 . S
C724 C725 1.287 . S
C725 C724 1.287 . S
C725 C726 1.524 . S
C725 H728 0.999 . S
C726 H696 0.950 . S
C726 C725 1.524 . S
C726 C727 1.415 . S
C727 H697 0.950 . S
C727 C722 1.363 . S
C727 C726 1.415 . S
H728 C725 0.999 . S
H729 C710 0.913 . S
H730 C748 0.951 . S
H731 C750 0.951 . S
H732 C752 0.950 . S
H733 C753 0.950 . S
H734 C755 0.950 . S
H735 C758 0.950 . S
H736 C759 0.950 . S
H737 C761 0.950 . S
H738 C762 0.950 . S
H739 C763 0.951 . S
H740 C765 0.951 . S
H741 C767 0.950 . S
H742 C768 0.950 . S
H743 C770 0.950 . S
H744 C773 0.950 . S
H745 C774 0.950 . S
H746 C776 0.950 . S
H747 C777 0.950 . S
C748 H730 0.951 . S
C748 C749 1.366 . S
C748 C750 1.388 . S
C749 C748 1.366 . S
C749 C753 1.385 . S
C750 H731 0.951 . S
C750 C748 1.388 . S
C750 C751 1.366 . S
C751 C750 1.366 . S
C751 C752 1.414 . S
C751 C754 1.499 . S
C752 H732 0.950 . S
C752 C751 1.414 . S
C752 C753 1.374 . S
C753 H733 0.950 . S
C753 C749 1.385 . S
C753 C752 1.374 . S
C754 C751 1.499 . S
C754 C755 1.373 . S
C754 C756 1.389 . S
C755 H734 0.950 . S
C755 C754 1.373 . S
C755 C771 1.377 . S
C756 C754 1.389 . S
C756 C757 1.524 . S
C756 C770 1.377 . S
C757 C756 1.524 . S
C757 C758 1.397 . S
C757 C762 1.363 . S
C758 H735 0.950 . S
C758 C757 1.397 . S
C758 C759 1.334 . S
C759 H736 0.950 . S
C759 C758 1.334 . S
C759 C760 1.287 . S
C760 C759 1.287 . S
C760 C761 1.524 . S
C760 H779 0.913 . S
C761 H737 0.950 . S
C761 C760 1.524 . S
C761 C762 1.415 . S
C762 H738 0.950 . S
C762 C757 1.363 . S
C762 C761 1.415 . S
C763 H739 0.951 . S
C763 C764 1.366 . S
C763 C765 1.388 . S
C764 C763 1.366 . S
C764 C768 1.385 . S
C765 H740 0.951 . S
C765 C763 1.388 . S
C765 C766 1.366 . S
C766 C765 1.366 . S
C766 C767 1.414 . S
C766 C769 1.499 . S
C767 H741 0.950 . S
C767 C766 1.414 . S
C767 C768 1.374 . S
C768 H742 0.950 . S
C768 C764 1.385 . S
C768 C767 1.374 . S
C769 C766 1.499 . S
C769 C770 1.373 . S
C769 C771 1.389 . S
C770 H743 0.950 . S
C770 C756 1.377 . S
C770 C769 1.373 . S
C771 C755 1.377 . S
C771 C769 1.389 . S
C771 C772 1.524 . S
C772 C771 1.524 . S
C772 C773 1.397 . S
C772 C777 1.363 . S
C773 H744 0.950 . S
C773 C772 1.397 . S
C773 C774 1.334 . S
C774 H745 0.950 . S
C774 C773 1.334 . S
C774 C775 1.287 . S
C775 C774 1.287 . S
C775 C776 1.524 . S
C775 H778 0.999 . S
C776 H746 0.950 . S
C776 C775 1.524 . S
C776 C777 1.415 . S
C777 H747 0.950 . S
C777 C772 1.363 . S
C777 C776 1.415 . S
H778 C775 0.999 . S
H779 C760 0.913 . S
H780 C798 0.951 . S
H781 C800 0.951 . S
H782 C802 0.950 . S
H783 C803 0.950 . S
H784 C805 0.950 . S
H785 C808 0.950 . S
H786 C809 0.950 . S
H787 C811 0.950 . S
H788 C812 0.950 . S
H789 C813 0.951 . S
H790 C815 0.951 . S
H791 C817 0.950 . S
H792 C818 0.950 . S
H793 C820 0.950 . S
H794 C823 0.950 . S
H795 C824 0.950 . S
H796 C826 0.950 . S
H797 C827 0.950 . S
C798 H780 0.951 . S
C798 C799 1.366 . S
C798 C800 1.388 . S
C799 C798 1.366 . S
C799 C803 1.385 . S
C800 H781 0.951 . S
C800 C798 1.388 . S
C800 C801 1.366 . S
C801 C800 1.366 . S
C801 C802 1.414 . S
C801 C804 1.499 . S
C802 H782 0.950 . S
C802 C801 1.414 . S
C802 C803 1.374 . S
C803 H783 0.950 . S
C803 C799 1.385 . S
C803 C802 1.374 . S
C804 C801 1.499 . S
C804 C805 1.373 . S
C804 C806 1.389 . S
C805 H784 0.950 . S
C805 C804 1.373 . S
C805 C821 1.377 . S
C806 C804 1.389 . S
C806 C807 1.524 . S
C806 C820 1.377 . S
C807 C806 1.524 . S
C807 C808 1.397 . S
C807 C812 1.363 . S
C808 H785 0.950 . S
C808 C807 1.397 . S
C808 C809 1.334 . S
C809 H786 0.950 . S
C809 C808 1.334 . S
C809 C810 1.287 . S
C810 C809 1.287 . S
C810 C811 1.524 . S
C810 H829 0.913 . S
C811 H787 0.950 . S
C811 C810 1.524 . S
C811 C812 1.415 . S
C812 H788 0.950 . S
C812 C807 1.363 . S
C812 C811 1.415 . S
C813 H789 0.951 . S
C813 C814 1.366 . S
C813 C815 1.388 . S
C814 C813 1.366 . S
C814 C818 1.385 . S
C815 H790 0.951 . S
C815 C813 1.388 . S
C815 C816 1.366 . S
C816 C815 1.366 . S
C816 C817 1.414 . S
C816 C819 1.499 . S
C817 H791 0.950 . S
C817 C816 1.414 . S
C817 C818 1.374 . S
C818 H792 0.950 . S
C818 C814 1.385 . S
C818 C817 1.374 . S
C819 C816 1.499 . S
C819 C820 1.373 . S
C819 C821 1.389 . S
C820 H793 0.950 . S
C820 C806 1.377 . S
C820 C819 1.373 . S
C821 C805 1.377 . S
C821 C819 1.389 . S
C821 C822 1.524 . S
C822 C821 1.524 . S
C822 C823 1.397 1_556 S
C822 C827 1.363 . S
C823 H794 0.950 . S
C823 C822 1.397 1_554 S
C823 C824 1.334 . S
C824 H795 0.950 . S
C824 C823 1.334 . S
C824 C825 1.287 . S
C825 C824 1.287 . S
C825 C826 1.524 . S
C825 H828 0.999 . S
C826 H796 0.950 . S
C826 C825 1.524 . S
C826 C827 1.415 1_554 S
C827 H797 0.950 . S
C827 C822 1.363 . S
C827 C826 1.415 1_556 S
H828 C825 0.999 . S
H829 C810 0.913 . S
H830 C848 0.951 . S
H831 C850 0.951 . S
H832 C852 0.950 . S
H833 C853 0.950 . S
H834 C855 0.950 . S
H835 C858 0.950 . S
H836 C859 0.950 . S
H837 C861 0.950 . S
H838 C862 0.950 . S
H839 C863 0.951 . S
H840 C865 0.951 . S
H841 C867 0.950 . S
H842 C868 0.950 . S
H843 C870 0.950 . S
H844 C873 0.950 . S
H845 C874 0.950 . S
H846 C876 0.950 . S
H847 C877 0.950 . S
C848 H830 0.951 . S
C848 C849 1.366 . S
C848 C850 1.388 . S
C849 C848 1.366 . S
C849 C853 1.385 . S
C850 H831 0.951 . S
C850 C848 1.388 . S
C850 C851 1.366 . S
C851 C850 1.366 . S
C851 C852 1.414 . S
C851 C854 1.499 . S
C852 H832 0.950 . S
C852 C851 1.414 . S
C852 C853 1.374 . S
C853 H833 0.950 . S
C853 C849 1.385 . S
C853 C852 1.374 . S
C854 C851 1.499 . S
C854 C855 1.373 . S
C854 C856 1.389 . S
C855 H834 0.950 . S
C855 C854 1.373 . S
C855 C871 1.377 . S
C856 C854 1.389 . S
C856 C857 1.524 . S
C856 C870 1.377 . S
C857 C856 1.524 . S
C857 C858 1.397 . S
C857 C862 1.363 . S
C858 H835 0.950 . S
C858 C857 1.397 . S
C858 C859 1.334 . S
C859 H836 0.950 . S
C859 C858 1.334 . S
C859 C860 1.287 . S
C860 C859 1.287 . S
C860 C861 1.524 . S
C860 H879 0.913 . S
C861 H837 0.950 . S
C861 C860 1.524 . S
C861 C862 1.415 . S
C862 H838 0.950 . S
C862 C857 1.363 . S
C862 C861 1.415 . S
C863 H839 0.951 . S
C863 C864 1.366 . S
C863 C865 1.388 . S
C864 C863 1.366 . S
C864 C868 1.385 . S
C865 H840 0.951 . S
C865 C863 1.388 . S
C865 C866 1.366 . S
C866 C865 1.366 . S
C866 C867 1.414 . S
C866 C869 1.499 . S
C867 H841 0.950 . S
C867 C866 1.414 . S
C867 C868 1.374 . S
C868 H842 0.950 . S
C868 C864 1.385 . S
C868 C867 1.374 . S
C869 C866 1.499 . S
C869 C870 1.373 . S
C869 C871 1.389 . S
C870 H843 0.950 . S
C870 C856 1.377 . S
C870 C869 1.373 . S
C871 C855 1.377 . S
C871 C869 1.389 . S
C871 C872 1.524 . S
C872 C871 1.524 . S
C872 C873 1.397 . S
C872 C877 1.363 . S
C873 H844 0.950 . S
C873 C872 1.397 . S
C873 C874 1.334 . S
C874 H845 0.950 . S
C874 C873 1.334 . S
C874 C875 1.287 . S
C875 C874 1.287 . S
C875 C876 1.524 . S
C875 H878 0.999 . S
C876 H846 0.950 . S
C876 C875 1.524 . S
C876 C877 1.415 . S
C877 H847 0.950 . S
C877 C872 1.363 . S
C877 C876 1.415 . S
H878 C875 0.999 . S
H879 C860 0.913 . S
H880 C898 0.951 . S
H881 C900 0.951 . S
H882 C902 0.950 . S
H883 C903 0.950 . S
H884 C905 0.950 . S
H885 C908 0.950 . S
H886 C909 0.950 . S
H887 C911 0.950 . S
H888 C912 0.950 . S
H889 C913 0.951 . S
H890 C915 0.951 . S
H891 C917 0.950 . S
H892 C918 0.950 . S
H893 C920 0.950 . S
H894 C923 0.950 . S
H895 C924 0.950 . S
H896 C926 0.950 . S
H897 C927 0.950 . S
C898 H880 0.951 . S
C898 C899 1.366 . S
C898 C900 1.388 . S
C899 C898 1.366 . S
C899 C903 1.385 . S
C900 H881 0.951 . S
C900 C898 1.388 . S
C900 C901 1.366 . S
C901 C900 1.366 . S
C901 C902 1.414 . S
C901 C904 1.499 . S
C902 H882 0.950 . S
C902 C901 1.414 . S
C902 C903 1.374 . S
C903 H883 0.950 . S
C903 C899 1.385 . S
C903 C902 1.374 . S
C904 C901 1.499 . S
C904 C905 1.373 . S
C904 C906 1.389 . S
C905 H884 0.950 . S
C905 C904 1.373 . S
C905 C921 1.377 . S
C906 C904 1.389 . S
C906 C907 1.524 . S
C906 C920 1.377 . S
C907 C906 1.524 . S
C907 C908 1.397 . S
C907 C912 1.363 . S
C908 H885 0.950 . S
C908 C907 1.397 . S
C908 C909 1.334 . S
C909 H886 0.950 . S
C909 C908 1.334 . S
C909 C910 1.287 . S
C910 C909 1.287 . S
C910 C911 1.524 . S
C910 H929 0.913 . S
C911 H887 0.950 . S
C911 C910 1.524 . S
C911 C912 1.415 . S
C912 H888 0.950 . S
C912 C907 1.363 . S
C912 C911 1.415 . S
C913 H889 0.951 . S
C913 C914 1.366 . S
C913 C915 1.388 . S
C914 C913 1.366 . S
C914 C918 1.385 . S
C915 H890 0.951 . S
C915 C913 1.388 . S
C915 C916 1.366 . S
C916 C915 1.366 . S
C916 C917 1.414 . S
C916 C919 1.499 . S
C917 H891 0.950 . S
C917 C916 1.414 . S
C917 C918 1.374 . S
C918 H892 0.950 . S
C918 C914 1.385 . S
C918 C917 1.374 . S
C919 C916 1.499 . S
C919 C920 1.373 . S
C919 C921 1.389 . S
C920 H893 0.950 . S
C920 C906 1.377 . S
C920 C919 1.373 . S
C921 C905 1.377 . S
C921 C919 1.389 . S
C921 C922 1.524 . S
C922 C921 1.524 . S
C922 C923 1.397 . S
C922 C927 1.363 . S
C923 H894 0.950 . S
C923 C922 1.397 . S
C923 C924 1.334 . S
C924 H895 0.950 . S
C924 C923 1.334 . S
C924 C925 1.287 . S
C925 C924 1.287 . S
C925 C926 1.524 . S
C925 H928 0.999 . S
C926 H896 0.950 . S
C926 C925 1.524 . S
C926 C927 1.415 . S
C927 H897 0.950 . S
C927 C922 1.363 . S
C927 C926 1.415 . S
H928 C925 0.999 . S
H929 C910 0.913 . S
H930 C948 0.951 . S
H931 C950 0.951 . S
H932 C952 0.950 . S
H933 C953 0.950 . S
H934 C955 0.950 . S
H935 C958 0.950 . S
H936 C959 0.950 . S
H937 C961 0.950 . S
H938 C962 0.950 . S
H939 C963 0.951 . S
H940 C965 0.951 . S
H941 C967 0.950 . S
H942 C968 0.950 . S
H943 C970 0.950 . S
H944 C973 0.950 . S
H945 C974 0.950 . S
H946 C976 0.950 . S
H947 C977 0.950 . S
C948 H930 0.951 . S
C948 C949 1.366 . S
C948 C950 1.388 . S
C949 C948 1.366 . S
C949 C953 1.385 . S
C950 H931 0.951 . S
C950 C948 1.388 . S
C950 C951 1.366 . S
C951 C950 1.366 . S
C951 C952 1.414 . S
C951 C954 1.499 . S
C952 H932 0.950 . S
C952 C951 1.414 . S
C952 C953 1.374 . S
C953 H933 0.950 . S
C953 C949 1.385 . S
C953 C952 1.374 . S
C954 C951 1.499 . S
C954 C955 1.373 . S
C954 C956 1.389 . S
C955 H934 0.950 . S
C955 C954 1.373 . S
C955 C971 1.377 . S
C956 C954 1.389 . S
C956 C957 1.524 . S
C956 C970 1.377 . S
C957 C956 1.524 . S
C957 C958 1.397 . S
C957 C962 1.363 . S
C958 H935 0.950 . S
C958 C957 1.397 . S
C958 C959 1.334 . S
C959 H936 0.950 . S
C959 C958 1.334 . S
C959 C960 1.287 . S
C960 C959 1.287 . S
C960 C961 1.524 . S
C960 H979 0.913 . S
C961 H937 0.950 . S
C961 C960 1.524 . S
C961 C962 1.415 . S
C962 H938 0.950 . S
C962 C957 1.363 . S
C962 C961 1.415 . S
C963 H939 0.951 . S
C963 C964 1.366 . S
C963 C965 1.388 . S
C964 C963 1.366 . S
C964 C968 1.385 . S
C965 H940 0.951 . S
C965 C963 1.388 . S
C965 C966 1.366 . S
C966 C965 1.366 . S
C966 C967 1.414 . S
C966 C969 1.499 . S
C967 H941 0.950 . S
C967 C966 1.414 . S
C967 C968 1.374 . S
C968 H942 0.950 . S
C968 C964 1.385 . S
C968 C967 1.374 . S
C969 C966 1.499 . S
C969 C970 1.373 . S
C969 C971 1.389 . S
C970 H943 0.950 . S
C970 C956 1.377 . S
C970 C969 1.373 . S
C971 C955 1.377 . S
C971 C969 1.389 . S
C971 C972 1.524 . S
C972 C971 1.524 . S
C972 C973 1.397 1_455 S
C972 C977 1.363 . S
C973 H944 0.950 . S
C973 C972 1.397 1_655 S
C973 C974 1.334 . S
C974 H945 0.950 . S
C974 C973 1.334 . S
C974 C975 1.287 . S
C975 C974 1.287 . S
C975 C976 1.524 . S
C975 H978 0.999 . S
C976 H946 0.950 . S
C976 C975 1.524 . S
C976 C977 1.415 1_655 S
C977 H947 0.950 . S
C977 C972 1.363 . S
C977 C976 1.415 1_455 S
H978 C975 0.999 . S
H979 C960 0.913 . S
H980 C998 0.951 . S
H981 C1000 0.951 . S
H982 C1002 0.950 . S
H983 C1003 0.950 . S
H984 C1005 0.950 . S
H985 C1008 0.950 . S
H986 C1009 0.950 . S
H987 C1011 0.950 . S
H988 C1012 0.950 . S
H989 C1013 0.951 . S
H990 C1015 0.951 . S
H991 C1017 0.950 . S
H992 C1018 0.950 . S
H993 C1020 0.950 . S
H994 C1023 0.950 . S
H995 C1024 0.950 . S
H996 C1026 0.950 . S
H997 C1027 0.950 . S
C998 H980 0.951 . S
C998 C999 1.366 . S
C998 C1000 1.388 . S
C999 C998 1.366 . S
C999 C1003 1.385 . S
C1000 H981 0.951 . S
C1000 C998 1.388 . S
C1000 C1001 1.366 . S
C1001 C1000 1.366 . S
C1001 C1002 1.414 . S
C1001 C1004 1.499 . S
C1002 H982 0.950 . S
C1002 C1001 1.414 . S
C1002 C1003 1.374 . S
C1003 H983 0.950 . S
C1003 C999 1.385 . S
C1003 C1002 1.374 . S
C1004 C1001 1.499 . S
C1004 C1005 1.373 . S
C1004 C1006 1.389 . S
C1005 H984 0.950 . S
C1005 C1004 1.373 . S
C1005 C1021 1.377 . S
C1006 C1004 1.389 . S
C1006 C1007 1.524 . S
C1006 C1020 1.377 . S
C1007 C1006 1.524 . S
C1007 C1008 1.397 . S
C1007 C1012 1.363 . S
C1008 H985 0.950 . S
C1008 C1007 1.397 . S
C1008 C1009 1.334 . S
C1009 H986 0.950 . S
C1009 C1008 1.334 . S
C1009 C1010 1.287 . S
C1010 C1009 1.287 . S
C1010 C1011 1.524 . S
C1010 H1029 0.913 . S
C1011 H987 0.950 . S
C1011 C1010 1.524 . S
C1011 C1012 1.415 . S
C1012 H988 0.950 . S
C1012 C1007 1.363 . S
C1012 C1011 1.415 . S
C1013 H989 0.951 . S
C1013 C1014 1.366 . S
C1013 C1015 1.388 . S
C1014 C1013 1.366 . S
C1014 C1018 1.385 . S
C1015 H990 0.951 . S
C1015 C1013 1.388 . S
C1015 C1016 1.366 . S
C1016 C1015 1.366 . S
C1016 C1017 1.414 . S
C1016 C1019 1.499 . S
C1017 H991 0.950 . S
C1017 C1016 1.414 . S
C1017 C1018 1.374 . S
C1018 H992 0.950 . S
C1018 C1014 1.385 . S
C1018 C1017 1.374 . S
C1019 C1016 1.499 . S
C1019 C1020 1.373 . S
C1019 C1021 1.389 . S
C1020 H993 0.950 . S
C1020 C1006 1.377 . S
C1020 C1019 1.373 . S
C1021 C1005 1.377 . S
C1021 C1019 1.389 . S
C1021 C1022 1.524 . S
C1022 C1021 1.524 . S
C1022 C1023 1.397 . S
C1022 C1027 1.363 . S
C1023 H994 0.950 . S
C1023 C1022 1.397 . S
C1023 C1024 1.334 1_655 S
C1024 H995 0.950 . S
C1024 C1023 1.334 1_455 S
C1024 C1025 1.287 . S
C1025 C1024 1.287 . S
C1025 C1026 1.524 . S
C1025 H1028 0.999 . S
C1026 H996 0.950 . S
C1026 C1025 1.524 . S
C1026 C1027 1.415 1_455 S
C1027 H997 0.950 . S
C1027 C1022 1.363 . S
C1027 C1026 1.415 1_655 S
H1028 C1025 0.999 . S
H1029 C1010 0.913 . S
H1030 C1048 0.951 . S
H1031 C1050 0.951 . S
H1032 C1052 0.950 . S
H1033 C1053 0.950 . S
H1034 C1055 0.950 . S
H1035 C1058 0.950 . S
H1036 C1059 0.950 . S
H1037 C1061 0.950 . S
H1038 C1062 0.950 . S
H1039 C1063 0.951 . S
H1040 C1065 0.951 . S
H1041 C1067 0.950 . S
H1042 C1068 0.950 . S
H1043 C1070 0.950 . S
H1044 C1073 0.950 . S
H1045 C1074 0.950 . S
H1046 C1076 0.950 . S
H1047 C1077 0.950 . S
C1048 H1030 0.951 . S
C1048 C1049 1.366 . S
C1048 C1050 1.388 . S
C1049 C1048 1.366 . S
C1049 C1053 1.385 . S
C1050 H1031 0.951 . S
C1050 C1048 1.388 . S
C1050 C1051 1.366 . S
C1051 C1050 1.366 . S
C1051 C1052 1.414 . S
C1051 C1054 1.499 . S
C1052 H1032 0.950 . S
C1052 C1051 1.414 . S
C1052 C1053 1.374 . S
C1053 H1033 0.950 . S
C1053 C1049 1.385 . S
C1053 C1052 1.374 . S
C1054 C1051 1.499 . S
C1054 C1055 1.373 . S
C1054 C1056 1.389 . S
C1055 H1034 0.950 . S
C1055 C1054 1.373 . S
C1055 C1071 1.377 . S
C1056 C1054 1.389 . S
C1056 C1057 1.524 . S
C1056 C1070 1.377 . S
C1057 C1056 1.524 . S
C1057 C1058 1.397 . S
C1057 C1062 1.363 . S
C1058 H1035 0.950 . S
C1058 C1057 1.397 . S
C1058 C1059 1.334 . S
C1059 H1036 0.950 . S
C1059 C1058 1.334 . S
C1059 C1060 1.287 . S
C1060 C1059 1.287 . S
C1060 C1061 1.524 . S
C1060 H1079 0.913 . S
C1061 H1037 0.950 . S
C1061 C1060 1.524 . S
C1061 C1062 1.415 . S
C1062 H1038 0.950 . S
C1062 C1057 1.363 . S
C1062 C1061 1.415 . S
C1063 H1039 0.951 . S
C1063 C1064 1.366 . S
C1063 C1065 1.388 . S
C1064 C1063 1.366 . S
C1064 C1068 1.385 . S
C1065 H1040 0.951 . S
C1065 C1063 1.388 . S
C1065 C1066 1.366 . S
C1066 C1065 1.366 . S
C1066 C1067 1.414 . S
C1066 C1069 1.499 . S
C1067 H1041 0.950 . S
C1067 C1066 1.414 . S
C1067 C1068 1.374 . S
C1068 H1042 0.950 . S
C1068 C1064 1.385 . S
C1068 C1067 1.374 . S
C1069 C1066 1.499 . S
C1069 C1070 1.373 . S
C1069 C1071 1.389 . S
C1070 H1043 0.950 . S
C1070 C1056 1.377 . S
C1070 C1069 1.373 . S
C1071 C1055 1.377 . S
C1071 C1069 1.389 . S
C1071 C1072 1.524 . S
C1072 C1071 1.524 . S
C1072 C1073 1.397 . S
C1072 C1077 1.363 . S
C1073 H1044 0.950 . S
C1073 C1072 1.397 . S
C1073 C1074 1.334 . S
C1074 H1045 0.950 . S
C1074 C1073 1.334 . S
C1074 C1075 1.287 . S
C1075 C1074 1.287 . S
C1075 C1076 1.524 . S
C1075 H1078 0.999 . S
C1076 H1046 0.950 . S
C1076 C1075 1.524 . S
C1076 C1077 1.415 . S
C1077 H1047 0.950 . S
C1077 C1072 1.363 . S
C1077 C1076 1.415 . S
H1078 C1075 0.999 . S
H1079 C1060 0.913 . S
H1080 C1098 0.951 . S
H1081 C1100 0.951 . S
H1082 C1102 0.950 . S
H1083 C1103 0.950 . S
H1084 C1105 0.950 . S
H1085 C1108 0.950 . S
H1086 C1109 0.950 . S
H1087 C1111 0.950 . S
H1088 C1112 0.950 . S
H1089 C1113 0.951 . S
H1090 C1115 0.951 . S
H1091 C1117 0.950 . S
H1092 C1118 0.950 . S
H1093 C1120 0.950 . S
H1094 C1123 0.950 . S
H1095 C1124 0.950 . S
H1096 C1126 0.950 . S
H1097 C1127 0.950 . S
C1098 H1080 0.951 . S
C1098 C1099 1.366 . S
C1098 C1100 1.388 . S
C1099 C1098 1.366 . S
C1099 C1103 1.385 . S
C1100 H1081 0.951 . S
C1100 C1098 1.388 . S
C1100 C1101 1.366 . S
C1101 C1100 1.366 . S
C1101 C1102 1.414 . S
C1101 C1104 1.499 . S
C1102 H1082 0.950 . S
C1102 C1101 1.414 . S
C1102 C1103 1.374 . S
C1103 H1083 0.950 . S
C1103 C1099 1.385 . S
C1103 C1102 1.374 . S
C1104 C1101 1.499 . S
C1104 C1105 1.373 . S
C1104 C1106 1.389 . S
C1105 H1084 0.950 . S
C1105 C1104 1.373 . S
C1105 C1121 1.377 . S
C1106 C1104 1.389 . S
C1106 C1107 1.524 . S
C1106 C1120 1.377 . S
C1107 C1106 1.524 . S
C1107 C1108 1.397 . S
C1107 C1112 1.363 . S
C1108 H1085 0.950 . S
C1108 C1107 1.397 . S
C1108 C1109 1.334 . S
C1109 H1086 0.950 . S
C1109 C1108 1.334 . S
C1109 C1110 1.287 . S
C1110 C1109 1.287 . S
C1110 C1111 1.524 . S
C1110 H1129 0.913 . S
C1111 H1087 0.950 . S
C1111 C1110 1.524 . S
C1111 C1112 1.415 . S
C1112 H1088 0.950 . S
C1112 C1107 1.363 . S
C1112 C1111 1.415 . S
C1113 H1089 0.951 . S
C1113 C1114 1.366 . S
C1113 C1115 1.388 . S
C1114 C1113 1.366 . S
C1114 C1118 1.385 . S
C1115 H1090 0.951 . S
C1115 C1113 1.388 . S
C1115 C1116 1.366 . S
C1116 C1115 1.366 . S
C1116 C1117 1.414 . S
C1116 C1119 1.499 . S
C1117 H1091 0.950 . S
C1117 C1116 1.414 . S
C1117 C1118 1.374 . S
C1118 H1092 0.950 . S
C1118 C1114 1.385 . S
C1118 C1117 1.374 . S
C1119 C1116 1.499 . S
C1119 C1120 1.373 . S
C1119 C1121 1.389 . S
C1120 H1093 0.950 . S
C1120 C1106 1.377 . S
C1120 C1119 1.373 . S
C1121 C1105 1.377 . S
C1121 C1119 1.389 . S
C1121 C1122 1.524 . S
C1122 C1121 1.524 . S
C1122 C1123 1.397 . S
C1122 C1127 1.363 . S
C1123 H1094 0.950 . S
C1123 C1122 1.397 . S
C1123 C1124 1.334 . S
C1124 H1095 0.950 . S
C1124 C1123 1.334 . S
C1124 C1125 1.287 . S
C1125 C1124 1.287 . S
C1125 C1126 1.524 . S
C1125 H1128 0.999 . S
C1126 H1096 0.950 . S
C1126 C1125 1.524 . S
C1126 C1127 1.415 . S
C1127 H1097 0.950 . S
C1127 C1122 1.363 . S
C1127 C1126 1.415 . S
H1128 C1125 0.999 . S
H1129 C1110 0.913 . S
H1130 C1148 0.951 . S
H1131 C1150 0.951 . S
H1132 C1152 0.950 . S
H1133 C1153 0.950 . S
H1134 C1155 0.950 . S
H1135 C1158 0.950 . S
H1136 C1159 0.965 . S
H1137 C1161 0.950 1_545 S
H1138 C1162 0.950 . S
H1139 C1163 0.951 . S
H1140 C1165 0.951 . S
H1141 C1167 0.950 . S
H1142 C1168 0.950 . S
H1143 C1170 0.950 . S
H1144 C1173 0.950 . S
H1145 C1174 0.950 . S
H1146 C1176 0.950 . S
H1147 C1177 0.950 . S
C1148 H1130 0.951 . S
C1148 C1149 1.366 . S
C1148 C1150 1.388 . S
C1149 C1148 1.366 . S
C1149 C1153 1.385 . S
C1150 H1131 0.951 . S
C1150 C1148 1.388 . S
C1150 C1151 1.366 . S
C1151 C1150 1.366 . S
C1151 C1152 1.414 . S
C1151 C1154 1.499 . S
C1152 H1132 0.950 . S
C1152 C1151 1.414 . S
C1152 C1153 1.374 . S
C1153 H1133 0.950 . S
C1153 C1149 1.385 . S
C1153 C1152 1.374 . S
C1154 C1151 1.499 . S
C1154 C1155 1.373 . S
C1154 C1156 1.389 . S
C1155 H1134 0.950 . S
C1155 C1154 1.373 . S
C1155 C1171 1.377 . S
C1156 C1154 1.389 . S
C1156 C1157 1.524 . S
C1156 C1170 1.377 . S
C1157 C1156 1.524 . S
C1157 C1158 1.397 . S
C1157 C1162 1.363 . S
C1158 H1135 0.950 . S
C1158 C1157 1.397 . S
C1158 C1159 1.334 . S
C1159 H1136 0.965 . S
C1159 C1158 1.334 . S
C1159 C1160 1.287 1_565 S
C1160 C1159 1.287 1_545 S
C1160 C1161 1.524 1_545 S
C1160 H1179 0.913 . S
C1161 H1137 0.950 1_565 S
C1161 C1160 1.524 1_565 S
C1161 C1162 1.415 . S
C1162 H1138 0.950 . S
C1162 C1157 1.363 . S
C1162 C1161 1.415 . S
C1163 H1139 0.951 . S
C1163 C1164 1.366 . S
C1163 C1165 1.388 . S
C1164 C1163 1.366 . S
C1164 C1168 1.385 . S
C1165 H1140 0.951 . S
C1165 C1163 1.388 . S
C1165 C1166 1.366 . S
C1166 C1165 1.366 . S
C1166 C1167 1.414 . S
C1166 C1169 1.499 . S
C1167 H1141 0.950 . S
C1167 C1166 1.414 . S
C1167 C1168 1.374 . S
C1168 H1142 0.950 . S
C1168 C1164 1.385 . S
C1168 C1167 1.374 . S
C1169 C1166 1.499 . S
C1169 C1170 1.373 . S
C1169 C1171 1.389 . S
C1170 H1143 0.950 . S
C1170 C1156 1.377 . S
C1170 C1169 1.373 . S
C1171 C1155 1.377 . S
C1171 C1169 1.389 . S
C1171 C1172 1.524 . S
C1172 C1171 1.524 . S
C1172 C1173 1.397 . S
C1172 C1177 1.363 . S
C1173 H1144 0.950 . S
C1173 C1172 1.397 . S
C1173 C1174 1.334 . S
C1174 H1145 0.950 . S
C1174 C1173 1.334 . S
C1174 C1175 1.287 . S
C1175 C1174 1.287 . S
C1175 C1176 1.524 . S
C1175 H1178 0.999 . S
C1176 H1146 0.950 . S
C1176 C1175 1.524 . S
C1176 C1177 1.415 . S
C1177 H1147 0.950 . S
C1177 C1172 1.363 . S
C1177 C1176 1.415 . S
H1178 C1175 0.999 . S
H1179 C1160 0.913 . S
H1180 C1198 0.951 . S
H1181 C1200 0.951 . S
H1182 C1202 0.950 . S
H1183 C1203 0.950 . S
H1184 C1205 0.950 . S
H1185 C1208 0.950 . S
H1186 C1209 0.950 . S
H1187 C1211 0.950 . S
H1188 C1212 0.950 . S
H1189 C1213 0.951 . S
H1190 C1215 0.951 . S
H1191 C1217 0.950 . S
H1192 C1218 0.950 . S
H1193 C1220 0.950 . S
H1194 C1223 0.950 . S
H1195 C1224 0.950 . S
H1196 C1226 0.950 . S
H1197 C1227 0.950 . S
C1198 H1180 0.951 . S
C1198 C1199 1.366 . S
C1198 C1200 1.388 . S
C1199 C1198 1.366 . S
C1199 C1203 1.385 . S
C1200 H1181 0.951 . S
C1200 C1198 1.388 . S
C1200 C1201 1.366 . S
C1201 C1200 1.366 . S
C1201 C1202 1.414 . S
C1201 C1204 1.499 . S
C1202 H1182 0.950 . S
C1202 C1201 1.414 . S
C1202 C1203 1.374 . S
C1203 H1183 0.950 . S
C1203 C1199 1.385 . S
C1203 C1202 1.374 . S
C1204 C1201 1.499 . S
C1204 C1205 1.373 . S
C1204 C1206 1.389 . S
C1205 H1184 0.950 . S
C1205 C1204 1.373 . S
C1205 C1221 1.377 . S
C1206 C1204 1.389 . S
C1206 C1207 1.524 . S
C1206 C1220 1.377 . S
C1207 C1206 1.524 . S
C1207 C1208 1.397 . S
C1207 C1212 1.363 . S
C1208 H1185 0.950 . S
C1208 C1207 1.397 . S
C1208 C1209 1.334 . S
C1209 H1186 0.950 . S
C1209 C1208 1.334 . S
C1209 C1210 1.287 . S
C1210 C1209 1.287 . S
C1210 C1211 1.524 . S
C1210 H1229 0.913 . S
C1211 H1187 0.950 . S
C1211 C1210 1.524 . S
C1211 C1212 1.415 . S
C1212 H1188 0.950 . S
C1212 C1207 1.363 . S
C1212 C1211 1.415 . S
C1213 H1189 0.951 . S
C1213 C1214 1.366 . S
C1213 C1215 1.388 . S
C1214 C1213 1.366 . S
C1214 C1218 1.385 . S
C1215 H1190 0.951 . S
C1215 C1213 1.388 . S
C1215 C1216 1.366 . S
C1216 C1215 1.366 . S
C1216 C1217 1.414 . S
C1216 C1219 1.499 . S
C1217 H1191 0.950 . S
C1217 C1216 1.414 . S
C1217 C1218 1.374 . S
C1218 H1192 0.950 . S
C1218 C1214 1.385 . S
C1218 C1217 1.374 . S
C1219 C1216 1.499 . S
C1219 C1220 1.373 . S
C1219 C1221 1.389 . S
C1220 H1193 0.950 . S
C1220 C1206 1.377 . S
C1220 C1219 1.373 . S
C1221 C1205 1.377 . S
C1221 C1219 1.389 . S
C1221 C1222 1.524 . S
C1222 C1221 1.524 . S
C1222 C1223 1.397 . S
C1222 C1227 1.363 . S
C1223 H1194 0.950 . S
C1223 C1222 1.397 . S
C1223 C1224 1.334 . S
C1224 H1195 0.950 . S
C1224 C1223 1.334 . S
C1224 C1225 1.287 . S
C1225 C1224 1.287 . S
C1225 C1226 1.524 . S
C1225 H1228 0.999 . S
C1226 H1196 0.950 . S
C1226 C1225 1.524 . S
C1226 C1227 1.415 . S
C1227 H1197 0.950 . S
C1227 C1222 1.363 . S
C1227 C1226 1.415 . S
H1228 C1225 0.999 . S
H1229 C1210 0.913 . S
H1230 C1248 0.951 . S
H1231 C1250 0.951 . S
H1232 C1252 0.950 . S
H1233 C1253 0.950 . S
H1234 C1255 0.950 . S
H1235 C1258 0.950 . S
H1236 C1259 0.950 . S
H1237 C1261 0.950 . S
H1238 C1262 0.950 . S
H1239 C1263 0.951 . S
H1240 C1265 0.951 . S
H1241 C1267 0.950 . S
H1242 C1268 0.950 . S
H1243 C1270 0.950 . S
H1244 C1273 0.950 1_556 S
H1245 C1274 0.950 1_556 S
H1246 C1276 0.950 . S
H1247 C1277 0.950 . S
C1248 H1230 0.951 . S
C1248 C1249 1.366 . S
C1248 C1250 1.388 . S
C1249 C1248 1.366 . S
C1249 C1253 1.385 . S
C1250 H1231 0.951 . S
C1250 C1248 1.388 . S
C1250 C1251 1.366 . S
C1251 C1250 1.366 . S
C1251 C1252 1.414 . S
C1251 C1254 1.499 . S
C1252 H1232 0.950 . S
C1252 C1251 1.414 . S
C1252 C1253 1.374 . S
C1253 H1233 0.950 . S
C1253 C1249 1.385 . S
C1253 C1252 1.374 . S
C1254 C1251 1.499 . S
C1254 C1255 1.373 . S
C1254 C1256 1.389 . S
C1255 H1234 0.950 . S
C1255 C1254 1.373 . S
C1255 C1271 1.377 . S
C1256 C1254 1.389 . S
C1256 C1257 1.524 . S
C1256 C1270 1.377 1_554 S
C1257 C1256 1.524 . S
C1257 C1258 1.397 . S
C1257 C1262 1.363 1_554 S
C1258 H1235 0.950 . S
C1258 C1257 1.397 . S
C1258 C1259 1.334 . S
C1259 H1236 0.950 . S
C1259 C1258 1.334 . S
C1259 C1260 1.287 . S
C1260 C1259 1.287 . S
C1260 C1261 1.524 1_554 S
C1260 H1279 0.913 1_554 S
C1261 H1237 0.950 . S
C1261 C1260 1.524 1_556 S
C1261 C1262 1.415 . S
C1262 H1238 0.950 . S
C1262 C1257 1.363 1_556 S
C1262 C1261 1.415 . S
C1263 H1239 0.951 . S
C1263 C1264 1.366 . S
C1263 C1265 1.388 . S
C1264 C1263 1.366 . S
C1264 C1268 1.385 . S
C1265 H1240 0.951 . S
C1265 C1263 1.388 . S
C1265 C1266 1.366 . S
C1266 C1265 1.366 . S
C1266 C1267 1.414 . S
C1266 C1269 1.499 . S
C1267 H1241 0.950 . S
C1267 C1266 1.414 . S
C1267 C1268 1.374 . S
C1268 H1242 0.950 . S
C1268 C1264 1.385 . S
C1268 C1267 1.374 . S
C1269 C1266 1.499 . S
C1269 C1270 1.373 . S
C1269 C1271 1.389 1_556 S
C1270 H1243 0.950 . S
C1270 C1256 1.377 1_556 S
C1270 C1269 1.373 . S
C1271 C1255 1.377 . S
C1271 C1269 1.389 1_554 S
C1271 C1272 1.524 . S
C1272 C1271 1.524 . S
C1272 C1273 1.397 . S
C1272 C1277 1.363 . S
C1273 H1244 0.950 1_554 S
C1273 C1272 1.397 . S
C1273 C1274 1.334 . S
C1274 H1245 0.950 1_554 S
C1274 C1273 1.334 . S
C1274 C1275 1.287 . S
C1275 C1274 1.287 . S
C1275 C1276 1.524 . S
C1275 H1278 0.999 . S
C1276 H1246 0.950 . S
C1276 C1275 1.524 . S
C1276 C1277 1.415 . S
C1277 H1247 0.950 . S
C1277 C1272 1.363 . S
C1277 C1276 1.415 . S
H1278 C1275 0.999 . S
H1279 C1260 0.913 1_556 S
H1280 C1298 0.951 . S
H1281 C1300 0.951 . S
H1282 C1302 0.950 . S
H1283 C1303 0.950 . S
H1284 C1305 0.950 . S
H1285 C1308 0.950 . S
H1286 C1309 0.950 . S
H1287 C1311 0.950 . S
H1288 C1312 0.950 . S
H1289 C1313 0.951 . S
H1290 C1315 0.951 . S
H1291 C1317 0.950 . S
H1292 C1318 0.950 . S
H1293 C1320 0.950 . S
H1294 C1323 0.950 . S
H1295 C1324 0.950 . S
H1296 C1326 0.950 . S
H1297 C1327 0.950 . S
C1298 H1280 0.951 . S
C1298 C1299 1.366 . S
C1298 C1300 1.388 . S
C1299 C1298 1.366 . S
C1299 C1303 1.385 . S
C1300 H1281 0.951 . S
C1300 C1298 1.388 . S
C1300 C1301 1.366 . S
C1301 C1300 1.366 . S
C1301 C1302 1.414 . S
C1301 C1304 1.499 . S
C1302 H1282 0.950 . S
C1302 C1301 1.414 . S
C1302 C1303 1.374 . S
C1303 H1283 0.950 . S
C1303 C1299 1.385 . S
C1303 C1302 1.374 . S
C1304 C1301 1.499 . S
C1304 C1305 1.373 . S
C1304 C1306 1.389 . S
C1305 H1284 0.950 . S
C1305 C1304 1.373 . S
C1305 C1321 1.377 . S
C1306 C1304 1.389 . S
C1306 C1307 1.524 . S
C1306 C1320 1.377 . S
C1307 C1306 1.524 . S
C1307 C1308 1.397 . S
C1307 C1312 1.363 . S
C1308 H1285 0.950 . S
C1308 C1307 1.397 . S
C1308 C1309 1.334 . S
C1309 H1286 0.950 . S
C1309 C1308 1.334 . S
C1309 C1310 1.287 . S
C1310 C1309 1.287 . S
C1310 C1311 1.524 . S
C1310 H1329 0.913 . S
C1311 H1287 0.950 . S
C1311 C1310 1.524 . S
C1311 C1312 1.415 . S
C1312 H1288 0.950 . S
C1312 C1307 1.363 . S
C1312 C1311 1.415 . S
C1313 H1289 0.951 . S
C1313 C1314 1.366 . S
C1313 C1315 1.388 . S
C1314 C1313 1.366 . S
C1314 C1318 1.385 . S
C1315 H1290 0.951 . S
C1315 C1313 1.388 . S
C1315 C1316 1.366 . S
C1316 C1315 1.366 . S
C1316 C1317 1.414 . S
C1316 C1319 1.499 . S
C1317 H1291 0.950 . S
C1317 C1316 1.414 . S
C1317 C1318 1.374 . S
C1318 H1292 0.950 . S
C1318 C1314 1.385 . S
C1318 C1317 1.374 . S
C1319 C1316 1.499 . S
C1319 C1320 1.373 . S
C1319 C1321 1.389 . S
C1320 H1293 0.950 . S
C1320 C1306 1.377 . S
C1320 C1319 1.373 . S
C1321 C1305 1.377 . S
C1321 C1319 1.389 . S
C1321 C1322 1.524 . S
C1322 C1321 1.524 . S
C1322 C1323 1.397 . S
C1322 C1327 1.363 . S
C1323 H1294 0.950 . S
C1323 C1322 1.397 . S
C1323 C1324 1.334 . S
C1324 H1295 0.950 . S
C1324 C1323 1.334 . S
C1324 C1325 1.287 . S
C1325 C1324 1.287 . S
C1325 C1326 1.524 . S
C1325 H1328 0.999 . S
C1326 H1296 0.950 . S
C1326 C1325 1.524 . S
C1326 C1327 1.415 . S
C1327 H1297 0.950 . S
C1327 C1322 1.363 . S
C1327 C1326 1.415 . S
H1328 C1325 0.999 . S
H1329 C1310 0.913 . S
H1330 C1348 0.951 . S
H1331 C1350 0.951 . S
H1332 C1352 0.950 . S
H1333 C1353 0.950 . S
H1334 C1355 0.950 . S
H1335 C1358 0.950 . S
H1336 C1359 0.950 . S
H1337 C1361 0.950 . S
H1338 C1362 0.950 . S
H1339 C1363 0.951 . S
H1340 C1365 0.951 . S
H1341 C1367 0.950 . S
H1342 C1368 0.950 . S
H1343 C1370 0.950 . S
H1344 C1373 0.950 . S
H1345 C1374 0.950 . S
H1346 C1376 0.950 . S
H1347 C1377 0.950 . S
C1348 H1330 0.951 . S
C1348 C1349 1.366 . S
C1348 C1350 1.388 . S
C1349 C1348 1.366 . S
C1349 C1353 1.385 . S
C1350 H1331 0.951 . S
C1350 C1348 1.388 . S
C1350 C1351 1.366 . S
C1351 C1350 1.366 . S
C1351 C1352 1.414 . S
C1351 C1354 1.499 1_554 S
C1352 H1332 0.950 . S
C1352 C1351 1.414 . S
C1352 C1353 1.374 . S
C1353 H1333 0.950 . S
C1353 C1349 1.385 . S
C1353 C1352 1.374 . S
C1354 C1351 1.499 1_556 S
C1354 C1355 1.373 . S
C1354 C1356 1.389 . S
C1355 H1334 0.950 . S
C1355 C1354 1.373 . S
C1355 C1371 1.377 . S
C1356 C1354 1.389 . S
C1356 C1357 1.524 . S
C1356 C1370 1.377 . S
C1357 C1356 1.524 . S
C1357 C1358 1.397 1_556 S
C1357 C1362 1.363 . S
C1358 H1335 0.950 . S
C1358 C1357 1.397 1_554 S
C1358 C1359 1.334 . S
C1359 H1336 0.950 . S
C1359 C1358 1.334 . S
C1359 C1360 1.287 . S
C1360 C1359 1.287 . S
C1360 C1361 1.524 1_554 S
C1360 H1379 0.913 . S
C1361 H1337 0.950 . S
C1361 C1360 1.524 1_556 S
C1361 C1362 1.415 . S
C1362 H1338 0.950 . S
C1362 C1357 1.363 . S
C1362 C1361 1.415 . S
C1363 H1339 0.951 . S
C1363 C1364 1.366 . S
C1363 C1365 1.388 . S
C1364 C1363 1.366 . S
C1364 C1368 1.385 . S
C1365 H1340 0.951 . S
C1365 C1363 1.388 . S
C1365 C1366 1.366 . S
C1366 C1365 1.366 . S
C1366 C1367 1.414 . S
C1366 C1369 1.499 . S
C1367 H1341 0.950 . S
C1367 C1366 1.414 . S
C1367 C1368 1.374 . S
C1368 H1342 0.950 . S
C1368 C1364 1.385 . S
C1368 C1367 1.374 . S
C1369 C1366 1.499 . S
C1369 C1370 1.373 . S
C1369 C1371 1.389 . S
C1370 H1343 0.950 . S
C1370 C1356 1.377 . S
C1370 C1369 1.373 . S
C1371 C1355 1.377 . S
C1371 C1369 1.389 . S
C1371 C1372 1.524 . S
C1372 C1371 1.524 . S
C1372 C1373 1.397 . S
C1372 C1377 1.363 . S
C1373 H1344 0.950 . S
C1373 C1372 1.397 . S
C1373 C1374 1.334 . S
C1374 H1345 0.950 . S
C1374 C1373 1.334 . S
C1374 C1375 1.287 . S
C1375 C1374 1.287 . S
C1375 C1376 1.524 . S
C1375 H1378 0.999 . S
C1376 H1346 0.950 . S
C1376 C1375 1.524 . S
C1376 C1377 1.415 . S
C1377 H1347 0.950 . S
C1377 C1372 1.363 . S
C1377 C1376 1.415 . S
H1378 C1375 0.999 . S
H1379 C1360 0.913 . S
H1380 C1398 0.951 . S
H1381 C1400 0.951 . S
H1382 C1402 0.950 . S
H1383 C1403 0.950 . S
H1384 C1405 0.950 . S
H1385 C1408 0.950 . S
H1386 C1409 0.950 . S
H1387 C1411 0.950 . S
H1388 C1412 0.950 . S
H1389 C1413 0.951 . S
H1390 C1415 0.951 . S
H1391 C1417 0.950 . S
H1392 C1418 0.950 . S
H1393 C1420 0.950 . S
H1394 C1423 0.950 . S
H1395 C1424 0.950 . S
H1396 C1426 0.950 . S
H1397 C1427 0.950 . S
C1398 H1380 0.951 . S
C1398 C1399 1.366 . S
C1398 C1400 1.388 . S
C1399 C1398 1.366 . S
C1399 C1403 1.385 . S
C1400 H1381 0.951 . S
C1400 C1398 1.388 . S
C1400 C1401 1.366 . S
C1401 C1400 1.366 . S
C1401 C1402 1.414 . S
C1401 C1404 1.499 . S
C1402 H1382 0.950 . S
C1402 C1401 1.414 . S
C1402 C1403 1.374 . S
C1403 H1383 0.950 . S
C1403 C1399 1.385 . S
C1403 C1402 1.374 . S
C1404 C1401 1.499 . S
C1404 C1405 1.373 . S
C1404 C1406 1.389 . S
C1405 H1384 0.950 . S
C1405 C1404 1.373 . S
C1405 C1421 1.377 . S
C1406 C1404 1.389 . S
C1406 C1407 1.524 . S
C1406 C1420 1.377 . S
C1407 C1406 1.524 . S
C1407 C1408 1.397 . S
C1407 C1412 1.363 . S
C1408 H1385 0.950 . S
C1408 C1407 1.397 . S
C1408 C1409 1.334 . S
C1409 H1386 0.950 . S
C1409 C1408 1.334 . S
C1409 C1410 1.287 . S
C1410 C1409 1.287 . S
C1410 C1411 1.524 . S
C1410 H1429 0.913 . S
C1411 H1387 0.950 . S
C1411 C1410 1.524 . S
C1411 C1412 1.415 . S
C1412 H1388 0.950 . S
C1412 C1407 1.363 . S
C1412 C1411 1.415 . S
C1413 H1389 0.951 . S
C1413 C1414 1.366 . S
C1413 C1415 1.388 . S
C1414 C1413 1.366 . S
C1414 C1418 1.385 . S
C1415 H1390 0.951 . S
C1415 C1413 1.388 . S
C1415 C1416 1.366 . S
C1416 C1415 1.366 . S
C1416 C1417 1.414 . S
C1416 C1419 1.499 . S
C1417 H1391 0.950 . S
C1417 C1416 1.414 . S
C1417 C1418 1.374 . S
C1418 H1392 0.950 . S
C1418 C1414 1.385 . S
C1418 C1417 1.374 . S
C1419 C1416 1.499 . S
C1419 C1420 1.373 . S
C1419 C1421 1.389 . S
C1420 H1393 0.950 . S
C1420 C1406 1.377 . S
C1420 C1419 1.373 . S
C1421 C1405 1.377 . S
C1421 C1419 1.389 . S
C1421 C1422 1.524 . S
C1422 C1421 1.524 . S
C1422 C1423 1.397 . S
C1422 C1427 1.363 . S
C1423 H1394 0.950 . S
C1423 C1422 1.397 . S
C1423 C1424 1.334 . S
C1424 H1395 0.950 . S
C1424 C1423 1.334 . S
C1424 C1425 1.287 . S
C1425 C1424 1.287 . S
C1425 C1426 1.524 . S
C1425 H1428 0.999 . S
C1426 H1396 0.950 . S
C1426 C1425 1.524 . S
C1426 C1427 1.415 . S
C1427 H1397 0.950 . S
C1427 C1422 1.363 . S
C1427 C1426 1.415 . S
H1428 C1425 0.999 . S
H1429 C1410 0.913 . S
H1430 C1448 0.951 . S
H1431 C1450 0.951 . S
H1432 C1452 0.950 . S
H1433 C1453 0.950 . S
H1434 C1455 0.950 . S
H1435 C1458 0.950 . S
H1436 C1459 0.950 . S
H1437 C1461 0.950 . S
H1438 C1462 0.950 . S
H1439 C1463 0.951 . S
H1440 C1465 0.951 . S
H1441 C1467 0.950 . S
H1442 C1468 0.950 . S
H1443 C1470 0.950 . S
H1444 C1473 0.950 . S
H1445 C1474 0.950 . S
H1446 C1476 0.950 . S
H1447 C1477 0.950 . S
C1448 H1430 0.951 . S
C1448 C1449 1.366 . S
C1448 C1450 1.388 . S
C1449 C1448 1.366 . S
C1449 C1453 1.385 . S
C1450 H1431 0.951 . S
C1450 C1448 1.388 . S
C1450 C1451 1.366 . S
C1451 C1450 1.366 . S
C1451 C1452 1.414 . S
C1451 C1454 1.499 . S
C1452 H1432 0.950 . S
C1452 C1451 1.414 . S
C1452 C1453 1.374 . S
C1453 H1433 0.950 . S
C1453 C1449 1.385 . S
C1453 C1452 1.374 . S
C1454 C1451 1.499 . S
C1454 C1455 1.373 . S
C1454 C1456 1.389 . S
C1455 H1434 0.950 . S
C1455 C1454 1.373 . S
C1455 C1471 1.377 . S
C1456 C1454 1.389 . S
C1456 C1457 1.524 . S
C1456 C1470 1.377 . S
C1457 C1456 1.524 . S
C1457 C1458 1.397 . S
C1457 C1462 1.363 . S
C1458 H1435 0.950 . S
C1458 C1457 1.397 . S
C1458 C1459 1.334 . S
C1459 H1436 0.950 . S
C1459 C1458 1.334 . S
C1459 C1460 1.287 . S
C1460 C1459 1.287 . S
C1460 C1461 1.524 . S
C1460 H1479 0.913 . S
C1461 H1437 0.950 . S
C1461 C1460 1.524 . S
C1461 C1462 1.415 . S
C1462 H1438 0.950 . S
C1462 C1457 1.363 . S
C1462 C1461 1.415 . S
C1463 H1439 0.951 . S
C1463 C1464 1.366 . S
C1463 C1465 1.388 . S
C1464 C1463 1.366 . S
C1464 C1468 1.385 . S
C1465 H1440 0.951 . S
C1465 C1463 1.388 . S
C1465 C1466 1.366 . S
C1466 C1465 1.366 . S
C1466 C1467 1.414 . S
C1466 C1469 1.499 . S
C1467 H1441 0.950 . S
C1467 C1466 1.414 . S
C1467 C1468 1.374 . S
C1468 H1442 0.950 . S
C1468 C1464 1.385 . S
C1468 C1467 1.374 . S
C1469 C1466 1.499 . S
C1469 C1470 1.373 . S
C1469 C1471 1.389 . S
C1470 H1443 0.950 . S
C1470 C1456 1.377 . S
C1470 C1469 1.373 . S
C1471 C1455 1.377 . S
C1471 C1469 1.389 . S
C1471 C1472 1.524 . S
C1472 C1471 1.524 . S
C1472 C1473 1.397 . S
C1472 C1477 1.363 . S
C1473 H1444 0.950 . S
C1473 C1472 1.397 . S
C1473 C1474 1.334 . S
C1474 H1445 0.950 . S
C1474 C1473 1.334 . S
C1474 C1475 1.287 . S
C1475 C1474 1.287 . S
C1475 C1476 1.524 . S
C1475 H1478 0.999 . S
C1476 H1446 0.950 . S
C1476 C1475 1.524 . S
C1476 C1477 1.415 . S
C1477 H1447 0.950 . S
C1477 C1472 1.363 . S
C1477 C1476 1.415 . S
H1478 C1475 0.999 . S
H1479 C1460 0.913 . S
H1480 C1498 0.951 . S
H1481 C1500 0.951 . S
H1482 C1502 0.950 . S
H1483 C1503 0.950 . S
H1484 C1505 0.950 . S
H1485 C1508 0.950 . S
H1486 C1509 0.950 . S
H1487 C1511 0.950 . S
H1488 C1512 0.950 . S
H1489 C1513 0.951 . S
H1490 C1515 0.951 . S
H1491 C1517 0.950 . S
H1492 C1518 0.950 . S
H1493 C1520 0.950 . S
H1494 C1523 0.950 . S
H1495 C1524 0.950 . S
H1496 C1526 0.950 . S
H1497 C1527 0.950 . S
C1498 H1480 0.951 . S
C1498 C1499 1.366 . S
C1498 C1500 1.388 . S
C1499 C1498 1.366 . S
C1499 C1503 1.385 . S
C1500 H1481 0.951 . S
C1500 C1498 1.388 . S
C1500 C1501 1.366 . S
C1501 C1500 1.366 . S
C1501 C1502 1.414 . S
C1501 C1504 1.499 . S
C1502 H1482 0.950 . S
C1502 C1501 1.414 . S
C1502 C1503 1.374 . S
C1503 H1483 0.950 . S
C1503 C1499 1.385 . S
C1503 C1502 1.374 . S
C1504 C1501 1.499 . S
C1504 C1505 1.373 . S
C1504 C1506 1.389 . S
C1505 H1484 0.950 . S
C1505 C1504 1.373 . S
C1505 C1521 1.377 . S
C1506 C1504 1.389 . S
C1506 C1507 1.524 . S
C1506 C1520 1.377 . S
C1507 C1506 1.524 . S
C1507 C1508 1.397 . S
C1507 C1512 1.363 . S
C1508 H1485 0.950 . S
C1508 C1507 1.397 . S
C1508 C1509 1.334 . S
C1509 H1486 0.950 . S
C1509 C1508 1.334 . S
C1509 C1510 1.287 . S
C1510 C1509 1.287 . S
C1510 C1511 1.524 . S
C1510 H1529 0.913 . S
C1511 H1487 0.950 . S
C1511 C1510 1.524 . S
C1511 C1512 1.415 . S
C1512 H1488 0.950 . S
C1512 C1507 1.363 . S
C1512 C1511 1.415 . S
C1513 H1489 0.951 . S
C1513 C1514 1.366 . S
C1513 C1515 1.388 . S
C1514 C1513 1.366 . S
C1514 C1518 1.385 . S
C1515 H1490 0.951 . S
C1515 C1513 1.388 . S
C1515 C1516 1.366 . S
C1516 C1515 1.366 . S
C1516 C1517 1.414 . S
C1516 C1519 1.499 . S
C1517 H1491 0.950 . S
C1517 C1516 1.414 . S
C1517 C1518 1.374 . S
C1518 H1492 0.950 . S
C1518 C1514 1.385 . S
C1518 C1517 1.374 . S
C1519 C1516 1.499 . S
C1519 C1520 1.373 . S
C1519 C1521 1.389 . S
C1520 H1493 0.950 . S
C1520 C1506 1.377 . S
C1520 C1519 1.373 . S
C1521 C1505 1.377 . S
C1521 C1519 1.389 . S
C1521 C1522 1.524 . S
C1522 C1521 1.524 . S
C1522 C1523 1.397 . S
C1522 C1527 1.363 . S
C1523 H1494 0.950 . S
C1523 C1522 1.397 . S
C1523 C1524 1.334 . S
C1524 H1495 0.950 . S
C1524 C1523 1.334 . S
C1524 C1525 1.287 . S
C1525 C1524 1.287 . S
C1525 C1526 1.524 . S
C1525 H1528 0.999 . S
C1526 H1496 0.950 . S
C1526 C1525 1.524 . S
C1526 C1527 1.415 . S
C1527 H1497 0.950 . S
C1527 C1522 1.363 . S
C1527 C1526 1.415 . S
H1528 C1525 0.999 . S
H1529 C1510 0.913 . S
H1530 C1548 0.951 . S
H1531 C1550 0.951 . S
H1532 C1552 0.950 . S
H1533 C1553 0.950 . S
H1534 C1555 0.950 . S
H1535 C1558 0.950 . S
H1536 C1559 0.950 . S
H1537 C1561 0.950 . S
H1538 C1562 0.950 . S
H1539 C1563 0.960 . S
H1540 C1565 0.951 . S
H1541 C1567 0.950 . S
H1542 C1568 0.950 . S
H1543 C1570 0.950 . S
H1544 C1573 0.950 1_565 S
H1545 C1574 0.950 1_565 S
H1546 C1576 0.950 . S
H1547 C1577 0.950 . S
C1548 H1530 0.951 . S
C1548 C1549 1.366 . S
C1548 C1550 1.388 . S
C1549 C1548 1.366 . S
C1549 C1553 1.385 . S
C1550 H1531 0.951 . S
C1550 C1548 1.388 . S
C1550 C1551 1.366 . S
C1551 C1550 1.366 . S
C1551 C1552 1.414 . S
C1551 C1554 1.499 . S
C1552 H1532 0.950 . S
C1552 C1551 1.414 . S
C1552 C1553 1.374 . S
C1553 H1533 0.950 . S
C1553 C1549 1.385 . S
C1553 C1552 1.374 . S
C1554 C1551 1.499 . S
C1554 C1555 1.373 . S
C1554 C1556 1.389 . S
C1555 H1534 0.950 . S
C1555 C1554 1.373 . S
C1555 C1571 1.377 . S
C1556 C1554 1.389 . S
C1556 C1557 1.524 . S
C1556 C1570 1.377 1_545 S
C1557 C1556 1.524 . S
C1557 C1558 1.397 . S
C1557 C1562 1.363 1_545 S
C1558 H1535 0.950 . S
C1558 C1557 1.397 . S
C1558 C1559 1.334 . S
C1559 H1536 0.950 . S
C1559 C1558 1.334 . S
C1559 C1560 1.287 . S
C1560 C1559 1.287 . S
C1560 C1561 1.524 1_545 S
C1560 H1579 0.913 . S
C1561 H1537 0.950 . S
C1561 C1560 1.524 1_565 S
C1561 C1562 1.415 . S
C1562 H1538 0.950 . S
C1562 C1557 1.363 1_565 S
C1562 C1561 1.415 . S
C1563 H1539 0.960 . S
C1563 C1564 1.366 . S
C1563 C1565 1.388 . S
C1564 C1563 1.366 . S
C1564 C1568 1.385 . S
C1565 H1540 0.951 . S
C1565 C1563 1.388 . S
C1565 C1566 1.366 . S
C1566 C1565 1.366 . S
C1566 C1567 1.414 . S
C1566 C1569 1.499 . S
C1567 H1541 0.950 . S
C1567 C1566 1.414 . S
C1567 C1568 1.374 . S
C1568 H1542 0.950 . S
C1568 C1564 1.385 . S
C1568 C1567 1.374 . S
C1569 C1566 1.499 . S
C1569 C1570 1.373 . S
C1569 C1571 1.389 1_565 S
C1570 H1543 0.950 . S
C1570 C1556 1.377 1_565 S
C1570 C1569 1.373 . S
C1571 C1555 1.377 . S
C1571 C1569 1.389 1_545 S
C1571 C1572 1.524 . S
C1572 C1571 1.524 . S
C1572 C1573 1.397 . S
C1572 C1577 1.363 . S
C1573 H1544 0.950 1_545 S
C1573 C1572 1.397 . S
C1573 C1574 1.334 . S
C1574 H1545 0.950 1_545 S
C1574 C1573 1.334 . S
C1574 C1575 1.287 . S
C1575 C1574 1.287 . S
C1575 C1576 1.524 . S
C1575 H1578 0.999 . S
C1576 H1546 0.950 . S
C1576 C1575 1.524 . S
C1576 C1577 1.415 . S
C1577 H1547 0.950 . S
C1577 C1572 1.363 . S
C1577 C1576 1.415 . S
H1578 C1575 0.999 . S
H1579 C1560 0.913 . S
H1580 C1598 0.951 . S
H1581 C1600 0.951 . S
H1582 C1602 0.950 . S
H1583 C1603 0.950 . S
H1584 C1605 0.950 . S
H1585 C1608 0.950 . S
H1586 C1609 0.950 . S
H1587 C1611 0.950 . S
H1588 C1612 0.950 . S
H1589 C1613 0.951 . S
H1590 C1615 0.951 . S
H1591 C1617 0.950 . S
H1592 C1618 0.950 . S
H1593 C1620 0.950 . S
H1594 C1623 0.950 . S
H1595 C1624 0.950 . S
H1596 C1626 0.950 1_554 S
H1597 C1627 0.950 . S
C1598 H1580 0.951 . S
C1598 C1599 1.366 . S
C1598 C1600 1.388 . S
C1599 C1598 1.366 . S
C1599 C1603 1.385 . S
C1600 H1581 0.951 . S
C1600 C1598 1.388 . S
C1600 C1601 1.366 . S
C1601 C1600 1.366 . S
C1601 C1602 1.414 . S
C1601 C1604 1.499 . S
C1602 H1582 0.950 . S
C1602 C1601 1.414 . S
C1602 C1603 1.374 . S
C1603 H1583 0.950 . S
C1603 C1599 1.385 . S
C1603 C1602 1.374 . S
C1604 C1601 1.499 . S
C1604 C1605 1.373 . S
C1604 C1606 1.389 . S
C1605 H1584 0.950 . S
C1605 C1604 1.373 . S
C1605 C1621 1.377 . S
C1606 C1604 1.389 . S
C1606 C1607 1.524 . S
C1606 C1620 1.377 . S
C1607 C1606 1.524 . S
C1607 C1608 1.397 . S
C1607 C1612 1.363 . S
C1608 H1585 0.950 . S
C1608 C1607 1.397 . S
C1608 C1609 1.334 . S
C1609 H1586 0.950 . S
C1609 C1608 1.334 . S
C1609 C1610 1.287 . S
C1610 C1609 1.287 . S
C1610 C1611 1.524 . S
C1610 H1629 0.913 . S
C1611 H1587 0.950 . S
C1611 C1610 1.524 . S
C1611 C1612 1.415 . S
C1612 H1588 0.950 . S
C1612 C1607 1.363 . S
C1612 C1611 1.415 . S
C1613 H1589 0.951 . S
C1613 C1614 1.366 . S
C1613 C1615 1.388 . S
C1614 C1613 1.366 . S
C1614 C1618 1.385 . S
C1615 H1590 0.951 . S
C1615 C1613 1.388 . S
C1615 C1616 1.366 . S
C1616 C1615 1.366 . S
C1616 C1617 1.414 . S
C1616 C1619 1.499 . S
C1617 H1591 0.950 . S
C1617 C1616 1.414 . S
C1617 C1618 1.374 . S
C1618 H1592 0.950 . S
C1618 C1614 1.385 . S
C1618 C1617 1.374 . S
C1619 C1616 1.499 . S
C1619 C1620 1.373 . S
C1619 C1621 1.389 . S
C1620 H1593 0.950 . S
C1620 C1606 1.377 . S
C1620 C1619 1.373 . S
C1621 C1605 1.377 . S
C1621 C1619 1.389 . S
C1621 C1622 1.524 . S
C1622 C1621 1.524 . S
C1622 C1623 1.397 . S
C1622 C1627 1.363 . S
C1623 H1594 0.950 . S
C1623 C1622 1.397 . S
C1623 C1624 1.334 . S
C1624 H1595 0.950 . S
C1624 C1623 1.334 . S
C1624 C1625 1.287 . S
C1625 C1624 1.287 . S
C1625 C1626 1.524 . S
C1625 H1628 0.999 1_556 S
C1626 H1596 0.950 1_556 S
C1626 C1625 1.524 . S
C1626 C1627 1.415 . S
C1627 H1597 0.950 . S
C1627 C1622 1.363 . S
C1627 C1626 1.415 . S
H1628 C1625 0.999 1_554 S
H1629 C1610 0.913 . S
H1630 C1648 0.951 . S
H1631 C1650 0.951 . S
H1632 C1652 0.950 . S
H1633 C1653 0.950 . S
H1634 C1655 0.950 . S
H1635 C1658 0.950 . S
H1636 C1659 0.950 . S
H1637 C1661 0.950 . S
H1638 C1662 0.950 . S
H1639 C1663 0.951 . S
H1640 C1665 0.951 . S
H1641 C1667 0.950 . S
H1642 C1668 0.950 . S
H1643 C1670 0.950 . S
H1644 C1673 0.950 . S
H1645 C1674 0.950 . S
H1646 C1676 0.950 . S
H1647 C1677 0.950 . S
C1648 H1630 0.951 . S
C1648 C1649 1.366 . S
C1648 C1650 1.388 . S
C1649 C1648 1.366 . S
C1649 C1653 1.385 . S
C1650 H1631 0.951 . S
C1650 C1648 1.388 . S
C1650 C1651 1.366 . S
C1651 C1650 1.366 . S
C1651 C1652 1.414 . S
C1651 C1654 1.499 . S
C1652 H1632 0.950 . S
C1652 C1651 1.414 . S
C1652 C1653 1.374 . S
C1653 H1633 0.950 . S
C1653 C1649 1.385 . S
C1653 C1652 1.374 . S
C1654 C1651 1.499 . S
C1654 C1655 1.373 . S
C1654 C1656 1.389 1_545 S
C1655 H1634 0.950 . S
C1655 C1654 1.373 . S
C1655 C1671 1.377 1_545 S
C1656 C1654 1.389 1_565 S
C1656 C1657 1.524 . S
C1656 C1670 1.377 . S
C1657 C1656 1.524 . S
C1657 C1658 1.397 . S
C1657 C1662 1.363 . S
C1658 H1635 0.950 . S
C1658 C1657 1.397 . S
C1658 C1659 1.334 . S
C1659 H1636 0.950 . S
C1659 C1658 1.334 . S
C1659 C1660 1.287 . S
C1660 C1659 1.287 . S
C1660 C1661 1.524 . S
C1660 H1679 0.913 . S
C1661 H1637 0.950 . S
C1661 C1660 1.524 . S
C1661 C1662 1.415 . S
C1662 H1638 0.950 . S
C1662 C1657 1.363 . S
C1662 C1661 1.415 . S
C1663 H1639 0.951 . S
C1663 C1664 1.366 . S
C1663 C1665 1.388 . S
C1664 C1663 1.366 . S
C1664 C1668 1.385 . S
C1665 H1640 0.951 . S
C1665 C1663 1.388 . S
C1665 C1666 1.366 . S
C1666 C1665 1.366 . S
C1666 C1667 1.414 . S
C1666 C1669 1.499 . S
C1667 H1641 0.950 . S
C1667 C1666 1.414 . S
C1667 C1668 1.374 . S
C1668 H1642 0.950 . S
C1668 C1664 1.385 . S
C1668 C1667 1.374 . S
C1669 C1666 1.499 . S
C1669 C1670 1.373 . S
C1669 C1671 1.389 . S
C1670 H1643 0.950 . S
C1670 C1656 1.377 . S
C1670 C1669 1.373 . S
C1671 C1655 1.377 1_565 S
C1671 C1669 1.389 . S
C1671 C1672 1.524 . S
C1672 C1671 1.524 . S
C1672 C1673 1.397 . S
C1672 C1677 1.363 1_565 S
C1673 H1644 0.950 . S
C1673 C1672 1.397 . S
C1673 C1674 1.334 . S
C1674 H1645 0.950 . S
C1674 C1673 1.334 . S
C1674 C1675 1.287 1_565 S
C1675 C1674 1.287 1_545 S
C1675 C1676 1.524 . S
C1675 H1678 0.999 . S
C1676 H1646 0.950 . S
C1676 C1675 1.524 . S
C1676 C1677 1.415 . S
C1677 H1647 0.950 . S
C1677 C1672 1.363 1_545 S
C1677 C1676 1.415 . S
H1678 C1675 0.999 . S
H1679 C1660 0.913 . S
H1680 C1698 0.951 . S
H1681 C1700 0.951 . S
H1682 C1702 0.950 . S
H1683 C1703 0.950 . S
H1684 C1705 0.950 . S
H1685 C1708 0.950 . S
H1686 C1709 0.950 . S
H1687 C1711 0.950 . S
H1688 C1712 0.950 . S
H1689 C1713 0.951 . S
H1690 C1715 0.951 . S
H1691 C1717 0.950 . S
H1692 C1718 0.950 . S
H1693 C1720 0.950 . S
H1694 C1723 0.950 . S
H1695 C1724 0.950 . S
H1696 C1726 0.950 . S
H1697 C1727 0.950 . S
C1698 H1680 0.951 . S
C1698 C1699 1.366 . S
C1698 C1700 1.388 . S
C1699 C1698 1.366 . S
C1699 C1703 1.385 . S
C1700 H1681 0.951 . S
C1700 C1698 1.388 . S
C1700 C1701 1.366 . S
C1701 C1700 1.366 . S
C1701 C1702 1.414 . S
C1701 C1704 1.499 . S
C1702 H1682 0.950 . S
C1702 C1701 1.414 . S
C1702 C1703 1.374 . S
C1703 H1683 0.950 . S
C1703 C1699 1.385 . S
C1703 C1702 1.374 . S
C1704 C1701 1.499 . S
C1704 C1705 1.373 . S
C1704 C1706 1.389 . S
C1705 H1684 0.950 . S
C1705 C1704 1.373 . S
C1705 C1721 1.377 . S
C1706 C1704 1.389 . S
C1706 C1707 1.524 . S
C1706 C1720 1.377 . S
C1707 C1706 1.524 . S
C1707 C1708 1.397 . S
C1707 C1712 1.363 . S
C1708 H1685 0.950 . S
C1708 C1707 1.397 . S
C1708 C1709 1.334 . S
C1709 H1686 0.950 . S
C1709 C1708 1.334 . S
C1709 C1710 1.287 . S
C1710 C1709 1.287 . S
C1710 C1711 1.524 . S
C1710 H1729 0.913 . S
C1711 H1687 0.950 . S
C1711 C1710 1.524 . S
C1711 C1712 1.415 . S
C1712 H1688 0.950 . S
C1712 C1707 1.363 . S
C1712 C1711 1.415 . S
C1713 H1689 0.951 . S
C1713 C1714 1.366 . S
C1713 C1715 1.388 . S
C1714 C1713 1.366 . S
C1714 C1718 1.385 . S
C1715 H1690 0.951 . S
C1715 C1713 1.388 . S
C1715 C1716 1.366 . S
C1716 C1715 1.366 . S
C1716 C1717 1.414 . S
C1716 C1719 1.499 . S
C1717 H1691 0.950 . S
C1717 C1716 1.414 . S
C1717 C1718 1.374 . S
C1718 H1692 0.950 . S
C1718 C1714 1.385 . S
C1718 C1717 1.374 . S
C1719 C1716 1.499 . S
C1719 C1720 1.373 . S
C1719 C1721 1.389 . S
C1720 H1693 0.950 . S
C1720 C1706 1.377 . S
C1720 C1719 1.373 . S
C1721 C1705 1.377 . S
C1721 C1719 1.389 . S
C1721 C1722 1.524 . S
C1722 C1721 1.524 . S
C1722 C1723 1.397 . S
C1722 C1727 1.363 . S
C1723 H1694 0.950 . S
C1723 C1722 1.397 . S
C1723 C1724 1.334 . S
C1724 H1695 0.950 . S
C1724 C1723 1.334 . S
C1724 C1725 1.287 . S
C1725 C1724 1.287 . S
C1725 C1726 1.524 . S
C1725 H1728 0.999 . S
C1726 H1696 0.950 . S
C1726 C1725 1.524 . S
C1726 C1727 1.415 . S
C1727 H1697 0.950 . S
C1727 C1722 1.363 . S
C1727 C1726 1.415 . S
H1728 C1725 0.999 . S
H1729 C1710 0.913 . S
H1730 C1748 0.951 . S
H1731 C1750 0.951 . S
H1732 C1752 0.950 . S
H1733 C1753 0.950 . S
H1734 C1755 0.950 . S
H1735 C1758 0.950 . S
H1736 C1759 0.950 . S
H1737 C1761 0.950 . S
H1738 C1762 0.950 . S
H1739 C1763 0.951 . S
H1740 C1765 0.951 . S
H1741 C1767 0.950 . S
H1742 C1768 0.950 . S
H1743 C1770 0.950 . S
H1744 C1773 0.950 . S
H1745 C1774 0.950 . S
H1746 C1776 0.950 . S
H1747 C1777 0.950 . S
C1748 H1730 0.951 . S
C1748 C1749 1.366 . S
C1748 C1750 1.388 . S
C1749 C1748 1.366 . S
C1749 C1753 1.385 . S
C1750 H1731 0.951 . S
C1750 C1748 1.388 . S
C1750 C1751 1.366 . S
C1751 C1750 1.366 . S
C1751 C1752 1.414 . S
C1751 C1754 1.499 . S
C1752 H1732 0.950 . S
C1752 C1751 1.414 . S
C1752 C1753 1.374 . S
C1753 H1733 0.950 . S
C1753 C1749 1.385 . S
C1753 C1752 1.374 . S
C1754 C1751 1.499 . S
C1754 C1755 1.373 . S
C1754 C1756 1.389 . S
C1755 H1734 0.950 . S
C1755 C1754 1.373 . S
C1755 C1771 1.377 . S
C1756 C1754 1.389 . S
C1756 C1757 1.524 . S
C1756 C1770 1.377 . S
C1757 C1756 1.524 . S
C1757 C1758 1.397 . S
C1757 C1762 1.363 . S
C1758 H1735 0.950 . S
C1758 C1757 1.397 . S
C1758 C1759 1.334 . S
C1759 H1736 0.950 . S
C1759 C1758 1.334 . S
C1759 C1760 1.287 . S
C1760 C1759 1.287 . S
C1760 C1761 1.524 1_655 S
C1760 H1779 0.913 1_655 S
C1761 H1737 0.950 . S
C1761 C1760 1.524 1_455 S
C1761 C1762 1.415 1_455 S
C1762 H1738 0.950 . S
C1762 C1757 1.363 . S
C1762 C1761 1.415 1_655 S
C1763 H1739 0.951 . S
C1763 C1764 1.366 . S
C1763 C1765 1.388 . S
C1764 C1763 1.366 . S
C1764 C1768 1.385 . S
C1765 H1740 0.951 . S
C1765 C1763 1.388 . S
C1765 C1766 1.366 . S
C1766 C1765 1.366 . S
C1766 C1767 1.414 . S
C1766 C1769 1.499 . S
C1767 H1741 0.950 . S
C1767 C1766 1.414 . S
C1767 C1768 1.374 . S
C1768 H1742 0.950 . S
C1768 C1764 1.385 . S
C1768 C1767 1.374 . S
C1769 C1766 1.499 . S
C1769 C1770 1.373 . S
C1769 C1771 1.389 . S
C1770 H1743 0.950 . S
C1770 C1756 1.377 . S
C1770 C1769 1.373 . S
C1771 C1755 1.377 . S
C1771 C1769 1.389 . S
C1771 C1772 1.524 . S
C1772 C1771 1.524 . S
C1772 C1773 1.397 . S
C1772 C1777 1.363 . S
C1773 H1744 0.950 . S
C1773 C1772 1.397 . S
C1773 C1774 1.334 . S
C1774 H1745 0.950 . S
C1774 C1773 1.334 . S
C1774 C1775 1.287 . S
C1775 C1774 1.287 . S
C1775 C1776 1.524 . S
C1775 H1778 0.999 . S
C1776 H1746 0.950 . S
C1776 C1775 1.524 . S
C1776 C1777 1.415 . S
C1777 H1747 0.950 . S
C1777 C1772 1.363 . S
C1777 C1776 1.415 . S
H1778 C1775 0.999 . S
H1779 C1760 0.913 1_455 S
H1780 C1798 0.951 . S
H1781 C1800 0.951 . S
H1782 C1802 0.950 . S
H1783 C1803 0.950 . S
H1784 C1805 0.950 . S
H1785 C1808 0.950 . S
H1786 C1809 0.950 . S
H1787 C1811 0.950 . S
H1788 C1812 0.950 . S
H1789 C1813 0.951 . S
H1790 C1815 0.951 . S
H1791 C1817 0.950 . S
H1792 C1818 0.950 . S
H1793 C1820 0.950 . S
H1794 C1823 0.950 . S
H1795 C1824 0.950 . S
H1796 C1826 0.950 . S
H1797 C1827 0.950 . S
C1798 H1780 0.951 . S
C1798 C1799 1.366 . S
C1798 C1800 1.388 . S
C1799 C1798 1.366 . S
C1799 C1803 1.385 . S
C1800 H1781 0.951 . S
C1800 C1798 1.388 . S
C1800 C1801 1.366 . S
C1801 C1800 1.366 . S
C1801 C1802 1.414 . S
C1801 C1804 1.499 . S
C1802 H1782 0.950 . S
C1802 C1801 1.414 . S
C1802 C1803 1.374 . S
C1803 H1783 0.950 . S
C1803 C1799 1.385 . S
C1803 C1802 1.374 . S
C1804 C1801 1.499 . S
C1804 C1805 1.373 . S
C1804 C1806 1.389 . S
C1805 H1784 0.950 . S
C1805 C1804 1.373 . S
C1805 C1821 1.377 . S
C1806 C1804 1.389 . S
C1806 C1807 1.524 . S
C1806 C1820 1.377 . S
C1807 C1806 1.524 . S
C1807 C1808 1.397 . S
C1807 C1812 1.363 . S
C1808 H1785 0.950 . S
C1808 C1807 1.397 . S
C1808 C1809 1.334 . S
C1809 H1786 0.950 . S
C1809 C1808 1.334 . S
C1809 C1810 1.287 . S
C1810 C1809 1.287 . S
C1810 C1811 1.524 . S
C1810 H1829 0.913 . S
C1811 H1787 0.950 . S
C1811 C1810 1.524 . S
C1811 C1812 1.415 . S
C1812 H1788 0.950 . S
C1812 C1807 1.363 . S
C1812 C1811 1.415 . S
C1813 H1789 0.951 . S
C1813 C1814 1.366 . S
C1813 C1815 1.388 . S
C1814 C1813 1.366 . S
C1814 C1818 1.385 . S
C1815 H1790 0.951 . S
C1815 C1813 1.388 . S
C1815 C1816 1.366 . S
C1816 C1815 1.366 . S
C1816 C1817 1.414 . S
C1816 C1819 1.499 . S
C1817 H1791 0.950 . S
C1817 C1816 1.414 . S
C1817 C1818 1.374 . S
C1818 H1792 0.950 . S
C1818 C1814 1.385 . S
C1818 C1817 1.374 . S
C1819 C1816 1.499 . S
C1819 C1820 1.373 . S
C1819 C1821 1.389 . S
C1820 H1793 0.950 . S
C1820 C1806 1.377 . S
C1820 C1819 1.373 . S
C1821 C1805 1.377 . S
C1821 C1819 1.389 . S
C1821 C1822 1.524 . S
C1822 C1821 1.524 . S
C1822 C1823 1.397 . S
C1822 C1827 1.363 . S
C1823 H1794 0.950 . S
C1823 C1822 1.397 . S
C1823 C1824 1.334 . S
C1824 H1795 0.950 . S
C1824 C1823 1.334 . S
C1824 C1825 1.287 . S
C1825 C1824 1.287 . S
C1825 C1826 1.524 . S
C1825 H1828 0.999 . S
C1826 H1796 0.950 . S
C1826 C1825 1.524 . S
C1826 C1827 1.415 . S
C1827 H1797 0.950 . S
C1827 C1822 1.363 . S
C1827 C1826 1.415 . S
H1828 C1825 0.999 . S
H1829 C1810 0.913 . S
H1830 C1848 0.951 . S
H1831 C1850 0.951 . S
H1832 C1852 0.950 . S
H1833 C1853 0.950 . S
H1834 C1855 0.950 . S
H1835 C1858 0.950 . S
H1836 C1859 0.950 . S
H1837 C1861 0.950 . S
H1838 C1862 0.950 . S
H1839 C1863 0.951 . S
H1840 C1865 0.951 . S
H1841 C1867 0.950 . S
H1842 C1868 0.950 . S
H1843 C1870 0.950 . S
H1844 C1873 0.950 . S
H1845 C1874 0.950 . S
H1846 C1876 0.950 . S
H1847 C1877 0.950 . S
C1848 H1830 0.951 . S
C1848 C1849 1.366 . S
C1848 C1850 1.388 . S
C1849 C1848 1.366 . S
C1849 C1853 1.385 . S
C1850 H1831 0.951 . S
C1850 C1848 1.388 . S
C1850 C1851 1.366 . S
C1851 C1850 1.366 . S
C1851 C1852 1.414 . S
C1851 C1854 1.499 . S
C1852 H1832 0.950 . S
C1852 C1851 1.414 . S
C1852 C1853 1.374 . S
C1853 H1833 0.950 . S
C1853 C1849 1.385 . S
C1853 C1852 1.374 . S
C1854 C1851 1.499 . S
C1854 C1855 1.373 . S
C1854 C1856 1.389 . S
C1855 H1834 0.950 . S
C1855 C1854 1.373 . S
C1855 C1871 1.377 . S
C1856 C1854 1.389 . S
C1856 C1857 1.524 . S
C1856 C1870 1.377 . S
C1857 C1856 1.524 . S
C1857 C1858 1.397 . S
C1857 C1862 1.363 . S
C1858 H1835 0.950 . S
C1858 C1857 1.397 . S
C1858 C1859 1.334 . S
C1859 H1836 0.950 . S
C1859 C1858 1.334 . S
C1859 C1860 1.287 . S
C1860 C1859 1.287 . S
C1860 C1861 1.524 . S
C1860 H1879 0.913 . S
C1861 H1837 0.950 . S
C1861 C1860 1.524 . S
C1861 C1862 1.415 . S
C1862 H1838 0.950 . S
C1862 C1857 1.363 . S
C1862 C1861 1.415 . S
C1863 H1839 0.951 . S
C1863 C1864 1.366 . S
C1863 C1865 1.388 . S
C1864 C1863 1.366 . S
C1864 C1868 1.385 . S
C1865 H1840 0.951 . S
C1865 C1863 1.388 . S
C1865 C1866 1.366 . S
C1866 C1865 1.366 . S
C1866 C1867 1.414 . S
C1866 C1869 1.499 . S
C1867 H1841 0.950 . S
C1867 C1866 1.414 . S
C1867 C1868 1.374 . S
C1868 H1842 0.950 . S
C1868 C1864 1.385 . S
C1868 C1867 1.374 . S
C1869 C1866 1.499 . S
C1869 C1870 1.373 . S
C1869 C1871 1.389 . S
C1870 H1843 0.950 . S
C1870 C1856 1.377 . S
C1870 C1869 1.373 . S
C1871 C1855 1.377 . S
C1871 C1869 1.389 . S
C1871 C1872 1.524 . S
C1872 C1871 1.524 . S
C1872 C1873 1.397 . S
C1872 C1877 1.363 . S
C1873 H1844 0.950 . S
C1873 C1872 1.397 . S
C1873 C1874 1.334 . S
C1874 H1845 0.950 . S
C1874 C1873 1.334 . S
C1874 C1875 1.287 . S
C1875 C1874 1.287 . S
C1875 C1876 1.524 . S
C1875 H1878 0.999 . S
C1876 H1846 0.950 . S
C1876 C1875 1.524 . S
C1876 C1877 1.415 . S
C1877 H1847 0.950 . S
C1877 C1872 1.363 . S
C1877 C1876 1.415 . S
H1878 C1875 0.999 . S
H1879 C1860 0.913 . S
H1880 C1898 0.951 . S
H1881 C1900 0.951 . S
H1882 C1902 0.950 . S
H1883 C1903 0.950 . S
H1884 C1905 0.950 . S
H1885 C1908 0.950 . S
H1886 C1909 0.950 . S
H1887 C1911 0.950 . S
H1888 C1912 0.950 . S
H1889 C1913 0.951 . S
H1890 C1915 0.951 . S
H1891 C1917 0.950 . S
H1892 C1918 0.950 . S
H1893 C1920 0.950 . S
H1894 C1923 0.950 . S
H1895 C1924 0.950 . S
H1896 C1926 0.950 . S
H1897 C1927 0.950 . S
C1898 H1880 0.951 . S
C1898 C1899 1.366 . S
C1898 C1900 1.388 . S
C1899 C1898 1.366 . S
C1899 C1903 1.385 . S
C1900 H1881 0.951 . S
C1900 C1898 1.388 . S
C1900 C1901 1.366 . S
C1901 C1900 1.366 . S
C1901 C1902 1.414 . S
C1901 C1904 1.499 . S
C1902 H1882 0.950 . S
C1902 C1901 1.414 . S
C1902 C1903 1.374 . S
C1903 H1883 0.950 . S
C1903 C1899 1.385 . S
C1903 C1902 1.374 . S
C1904 C1901 1.499 . S
C1904 C1905 1.373 . S
C1904 C1906 1.389 . S
C1905 H1884 0.950 . S
C1905 C1904 1.373 . S
C1905 C1921 1.377 . S
C1906 C1904 1.389 . S
C1906 C1907 1.524 . S
C1906 C1920 1.377 . S
C1907 C1906 1.524 . S
C1907 C1908 1.397 . S
C1907 C1912 1.363 . S
C1908 H1885 0.950 . S
C1908 C1907 1.397 . S
C1908 C1909 1.334 . S
C1909 H1886 0.950 . S
C1909 C1908 1.334 . S
C1909 C1910 1.287 . S
C1910 C1909 1.287 . S
C1910 C1911 1.524 . S
C1910 H1929 0.913 . S
C1911 H1887 0.950 . S
C1911 C1910 1.524 . S
C1911 C1912 1.415 . S
C1912 H1888 0.950 . S
C1912 C1907 1.363 . S
C1912 C1911 1.415 . S
C1913 H1889 0.951 . S
C1913 C1914 1.366 . S
C1913 C1915 1.388 . S
C1914 C1913 1.366 . S
C1914 C1918 1.385 . S
C1915 H1890 0.951 . S
C1915 C1913 1.388 . S
C1915 C1916 1.366 . S
C1916 C1915 1.366 . S
C1916 C1917 1.414 . S
C1916 C1919 1.499 . S
C1917 H1891 0.950 . S
C1917 C1916 1.414 . S
C1917 C1918 1.374 . S
C1918 H1892 0.950 . S
C1918 C1914 1.385 . S
C1918 C1917 1.374 . S
C1919 C1916 1.499 . S
C1919 C1920 1.373 . S
C1919 C1921 1.389 . S
C1920 H1893 0.950 . S
C1920 C1906 1.377 . S
C1920 C1919 1.373 . S
C1921 C1905 1.377 . S
C1921 C1919 1.389 . S
C1921 C1922 1.524 . S
C1922 C1921 1.524 . S
C1922 C1923 1.397 . S
C1922 C1927 1.363 . S
C1923 H1894 0.950 . S
C1923 C1922 1.397 . S
C1923 C1924 1.334 . S
C1924 H1895 0.950 . S
C1924 C1923 1.334 . S
C1924 C1925 1.287 . S
C1925 C1924 1.287 . S
C1925 C1926 1.524 . S
C1925 H1928 0.999 . S
C1926 H1896 0.950 . S
C1926 C1925 1.524 . S
C1926 C1927 1.415 . S
C1927 H1897 0.950 . S
C1927 C1922 1.363 . S
C1927 C1926 1.415 . S
H1928 C1925 0.999 . S
H1929 C1910 0.913 . S
H1930 C1948 0.951 . S
H1931 C1950 0.951 . S
H1932 C1952 0.950 . S
H1933 C1953 0.950 . S
H1934 C1955 0.950 . S
H1935 C1958 0.950 . S
H1936 C1959 0.950 . S
H1937 C1961 0.950 . S
H1938 C1962 0.950 . S
H1939 C1963 0.951 . S
H1940 C1965 0.951 . S
H1941 C1967 0.950 . S
H1942 C1968 0.950 . S
H1943 C1970 0.950 . S
H1944 C1973 0.950 . S
H1945 C1974 0.950 . S
H1946 C1976 0.950 . S
H1947 C1977 0.950 . S
C1948 H1930 0.951 . S
C1948 C1949 1.366 . S
C1948 C1950 1.388 . S
C1949 C1948 1.366 . S
C1949 C1953 1.385 . S
C1950 H1931 0.951 . S
C1950 C1948 1.388 . S
C1950 C1951 1.366 . S
C1951 C1950 1.366 . S
C1951 C1952 1.414 . S
C1951 C1954 1.499 . S
C1952 H1932 0.950 . S
C1952 C1951 1.414 . S
C1952 C1953 1.374 . S
C1953 H1933 0.950 . S
C1953 C1949 1.385 . S
C1953 C1952 1.374 . S
C1954 C1951 1.499 . S
C1954 C1955 1.373 . S
C1954 C1956 1.389 . S
C1955 H1934 0.950 . S
C1955 C1954 1.373 . S
C1955 C1971 1.377 . S
C1956 C1954 1.389 . S
C1956 C1957 1.524 . S
C1956 C1970 1.377 . S
C1957 C1956 1.524 . S
C1957 C1958 1.397 . S
C1957 C1962 1.363 . S
C1958 H1935 0.950 . S
C1958 C1957 1.397 . S
C1958 C1959 1.334 . S
C1959 H1936 0.950 . S
C1959 C1958 1.334 . S
C1959 C1960 1.287 . S
C1960 C1959 1.287 . S
C1960 C1961 1.524 . S
C1960 H1979 0.913 . S
C1961 H1937 0.950 . S
C1961 C1960 1.524 . S
C1961 C1962 1.415 . S
C1962 H1938 0.950 . S
C1962 C1957 1.363 . S
C1962 C1961 1.415 . S
C1963 H1939 0.951 . S
C1963 C1964 1.366 . S
C1963 C1965 1.388 . S
C1964 C1963 1.366 . S
C1964 C1968 1.385 . S
C1965 H1940 0.951 . S
C1965 C1963 1.388 . S
C1965 C1966 1.366 . S
C1966 C1965 1.366 . S
C1966 C1967 1.414 . S
C1966 C1969 1.499 . S
C1967 H1941 0.950 . S
C1967 C1966 1.414 . S
C1967 C1968 1.374 . S
C1968 H1942 0.950 . S
C1968 C1964 1.385 . S
C1968 C1967 1.374 . S
C1969 C1966 1.499 . S
C1969 C1970 1.373 . S
C1969 C1971 1.389 . S
C1970 H1943 0.950 . S
C1970 C1956 1.377 . S
C1970 C1969 1.373 . S
C1971 C1955 1.377 . S
C1971 C1969 1.389 . S
C1971 C1972 1.524 . S
C1972 C1971 1.524 . S
C1972 C1973 1.397 . S
C1972 C1977 1.363 . S
C1973 H1944 0.950 . S
C1973 C1972 1.397 . S
C1973 C1974 1.334 . S
C1974 H1945 0.950 . S
C1974 C1973 1.334 . S
C1974 C1975 1.287 . S
C1975 C1974 1.287 . S
C1975 C1976 1.524 . S
C1975 H1978 0.999 . S
C1976 H1946 0.950 . S
C1976 C1975 1.524 . S
C1976 C1977 1.415 . S
C1977 H1947 0.950 . S
C1977 C1972 1.363 . S
C1977 C1976 1.415 . S
H1978 C1975 0.999 . S
H1979 C1960 0.913 . S
H1980 C1998 0.951 . S
H1981 C2000 0.951 . S
H1982 C2002 0.950 . S
H1983 C2003 0.950 . S
H1984 C2005 0.950 . S
H1985 C2008 0.950 . S
H1986 C2009 0.950 . S
H1987 C2011 0.950 1_655 S
H1988 C2012 0.950 1_655 S
H1989 C2013 0.951 . S
H1990 C2015 0.951 . S
H1991 C2017 0.950 . S
H1992 C2018 0.950 . S
H1993 C2020 0.950 . S
H1994 C2023 0.950 . S
H1995 C2024 0.950 . S
H1996 C2026 0.950 . S
H1997 C2027 0.950 . S
C1998 H1980 0.951 . S
C1998 C1999 1.366 . S
C1998 C2000 1.388 . S
C1999 C1998 1.366 . S
C1999 C2003 1.385 . S
C2000 H1981 0.951 . S
C2000 C1998 1.388 . S
C2000 C2001 1.366 . S
C2001 C2000 1.366 . S
C2001 C2002 1.414 . S
C2001 C2004 1.499 . S
C2002 H1982 0.950 . S
C2002 C2001 1.414 . S
C2002 C2003 1.374 . S
C2003 H1983 0.950 . S
C2003 C1999 1.385 . S
C2003 C2002 1.374 . S
C2004 C2001 1.499 . S
C2004 C2005 1.373 . S
C2004 C2006 1.389 . S
C2005 H1984 0.950 . S
C2005 C2004 1.373 . S
C2005 C2021 1.377 . S
C2006 C2004 1.389 . S
C2006 C2007 1.524 . S
C2006 C2020 1.377 1_455 S
C2007 C2006 1.524 . S
C2007 C2008 1.397 . S
C2007 C2012 1.363 . S
C2008 H1985 0.950 . S
C2008 C2007 1.397 . S
C2008 C2009 1.334 . S
C2009 H1986 0.950 . S
C2009 C2008 1.334 . S
C2009 C2010 1.287 . S
C2010 C2009 1.287 . S
C2010 C2011 1.524 . S
C2010 H2029 0.913 . S
C2011 H1987 0.950 1_455 S
C2011 C2010 1.524 . S
C2011 C2012 1.415 . S
C2012 H1988 0.950 1_455 S
C2012 C2007 1.363 . S
C2012 C2011 1.415 . S
C2013 H1989 0.951 . S
C2013 C2014 1.366 . S
C2013 C2015 1.388 . S
C2014 C2013 1.366 . S
C2014 C2018 1.385 . S
C2015 H1990 0.951 . S
C2015 C2013 1.388 . S
C2015 C2016 1.366 . S
C2016 C2015 1.366 . S
C2016 C2017 1.414 . S
C2016 C2019 1.499 . S
C2017 H1991 0.950 . S
C2017 C2016 1.414 . S
C2017 C2018 1.374 . S
C2018 H1992 0.950 . S
C2018 C2014 1.385 . S
C2018 C2017 1.374 . S
C2019 C2016 1.499 . S
C2019 C2020 1.373 . S
C2019 C2021 1.389 1_655 S
C2020 H1993 0.950 . S
C2020 C2006 1.377 1_655 S
C2020 C2019 1.373 . S
C2021 C2005 1.377 . S
C2021 C2019 1.389 1_455 S
C2021 C2022 1.524 . S
C2022 C2021 1.524 . S
C2022 C2023 1.397 1_455 S
C2022 C2027 1.363 . S
C2023 H1994 0.950 . S
C2023 C2022 1.397 1_655 S
C2023 C2024 1.334 . S
C2024 H1995 0.950 . S
C2024 C2023 1.334 . S
C2024 C2025 1.287 1_655 S
C2025 C2024 1.287 1_455 S
C2025 C2026 1.524 . S
C2025 H2028 0.999 . S
C2026 H1996 0.950 . S
C2026 C2025 1.524 . S
C2026 C2027 1.415 . S
C2027 H1997 0.950 . S
C2027 C2022 1.363 . S
C2027 C2026 1.415 . S
H2028 C2025 0.999 . S
H2029 C2010 0.913 . S
H2030 C2048 0.951 . S
H2031 C2050 0.951 . S
H2032 C2052 0.950 . S
H2033 C2053 0.950 . S
H2034 C2055 0.950 . S
H2035 C2058 0.950 . S
H2036 C2059 0.950 . S
H2037 C2061 0.950 . S
H2038 C2062 0.950 . S
H2039 C2063 0.951 . S
H2040 C2065 0.951 . S
H2041 C2067 0.950 . S
H2042 C2068 0.950 . S
H2043 C2070 0.950 . S
H2044 C2073 0.950 . S
H2045 C2074 0.950 . S
H2046 C2076 0.950 . S
H2047 C2077 0.950 . S
C2048 H2030 0.951 . S
C2048 C2049 1.366 . S
C2048 C2050 1.388 . S
C2049 C2048 1.366 . S
C2049 C2053 1.385 . S
C2050 H2031 0.951 . S
C2050 C2048 1.388 . S
C2050 C2051 1.366 . S
C2051 C2050 1.366 . S
C2051 C2052 1.414 . S
C2051 C2054 1.499 . S
C2052 H2032 0.950 . S
C2052 C2051 1.414 . S
C2052 C2053 1.374 . S
C2053 H2033 0.950 . S
C2053 C2049 1.385 . S
C2053 C2052 1.374 . S
C2054 C2051 1.499 . S
C2054 C2055 1.373 . S
C2054 C2056 1.389 . S
C2055 H2034 0.950 . S
C2055 C2054 1.373 . S
C2055 C2071 1.377 . S
C2056 C2054 1.389 . S
C2056 C2057 1.524 . S
C2056 C2070 1.377 . S
C2057 C2056 1.524 . S
C2057 C2058 1.397 . S
C2057 C2062 1.363 . S
C2058 H2035 0.950 . S
C2058 C2057 1.397 . S
C2058 C2059 1.334 . S
C2059 H2036 0.950 . S
C2059 C2058 1.334 . S
C2059 C2060 1.287 . S
C2060 C2059 1.287 . S
C2060 C2061 1.524 . S
C2060 H2079 0.913 . S
C2061 H2037 0.950 . S
C2061 C2060 1.524 . S
C2061 C2062 1.415 . S
C2062 H2038 0.950 . S
C2062 C2057 1.363 . S
C2062 C2061 1.415 . S
C2063 H2039 0.951 . S
C2063 C2064 1.366 . S
C2063 C2065 1.388 . S
C2064 C2063 1.366 . S
C2064 C2068 1.385 . S
C2065 H2040 0.951 . S
C2065 C2063 1.388 . S
C2065 C2066 1.366 . S
C2066 C2065 1.366 . S
C2066 C2067 1.414 . S
C2066 C2069 1.499 . S
C2067 H2041 0.950 . S
C2067 C2066 1.414 . S
C2067 C2068 1.374 . S
C2068 H2042 0.950 . S
C2068 C2064 1.385 . S
C2068 C2067 1.374 . S
C2069 C2066 1.499 . S
C2069 C2070 1.373 . S
C2069 C2071 1.389 . S
C2070 H2043 0.950 . S
C2070 C2056 1.377 . S
C2070 C2069 1.373 . S
C2071 C2055 1.377 . S
C2071 C2069 1.389 . S
C2071 C2072 1.524 . S
C2072 C2071 1.524 . S
C2072 C2073 1.397 . S
C2072 C2077 1.363 . S
C2073 H2044 0.950 . S
C2073 C2072 1.397 . S
C2073 C2074 1.334 . S
C2074 H2045 0.950 . S
C2074 C2073 1.334 . S
C2074 C2075 1.287 . S
C2075 C2074 1.287 . S
C2075 C2076 1.524 . S
C2075 H2078 0.999 . S
C2076 H2046 0.950 . S
C2076 C2075 1.524 . S
C2076 C2077 1.415 . S
C2077 H2047 0.950 . S
C2077 C2072 1.363 . S
C2077 C2076 1.415 . S
H2078 C2075 0.999 . S
H2079 C2060 0.913 . S
H2080 C2098 0.951 . S
H2081 C2100 0.951 . S
H2082 C2102 0.950 . S
H2083 C2103 0.950 . S
H2084 C2105 0.950 . S
H2085 C2108 0.950 . S
H2086 C2109 0.950 . S
H2087 C2111 0.950 . S
H2088 C2112 0.950 . S
H2089 C2113 0.951 . S
H2090 C2115 0.951 . S
H2091 C2117 0.950 . S
H2092 C2118 0.950 . S
H2093 C2120 0.950 . S
H2094 C2123 0.950 . S
H2095 C2124 0.950 . S
H2096 C2126 0.950 . S
H2097 C2127 0.950 . S
C2098 H2080 0.951 . S
C2098 C2099 1.366 . S
C2098 C2100 1.388 . S
C2099 C2098 1.366 . S
C2099 C2103 1.385 . S
C2100 H2081 0.951 . S
C2100 C2098 1.388 . S
C2100 C2101 1.366 . S
C2101 C2100 1.366 . S
C2101 C2102 1.414 . S
C2101 C2104 1.499 . S
C2102 H2082 0.950 . S
C2102 C2101 1.414 . S
C2102 C2103 1.374 . S
C2103 H2083 0.950 . S
C2103 C2099 1.385 . S
C2103 C2102 1.374 . S
C2104 C2101 1.499 . S
C2104 C2105 1.373 . S
C2104 C2106 1.389 . S
C2105 H2084 0.950 . S
C2105 C2104 1.373 . S
C2105 C2121 1.377 . S
C2106 C2104 1.389 . S
C2106 C2107 1.524 . S
C2106 C2120 1.377 . S
C2107 C2106 1.524 . S
C2107 C2108 1.397 . S
C2107 C2112 1.363 . S
C2108 H2085 0.950 . S
C2108 C2107 1.397 . S
C2108 C2109 1.334 . S
C2109 H2086 0.950 . S
C2109 C2108 1.334 . S
C2109 C2110 1.287 . S
C2110 C2109 1.287 . S
C2110 C2111 1.524 . S
C2110 H2129 0.913 . S
C2111 H2087 0.950 . S
C2111 C2110 1.524 . S
C2111 C2112 1.415 . S
C2112 H2088 0.950 . S
C2112 C2107 1.363 . S
C2112 C2111 1.415 . S
C2113 H2089 0.951 . S
C2113 C2114 1.366 . S
C2113 C2115 1.388 . S
C2114 C2113 1.366 . S
C2114 C2118 1.385 . S
C2115 H2090 0.951 . S
C2115 C2113 1.388 . S
C2115 C2116 1.366 . S
C2116 C2115 1.366 . S
C2116 C2117 1.414 . S
C2116 C2119 1.499 . S
C2117 H2091 0.950 . S
C2117 C2116 1.414 . S
C2117 C2118 1.374 . S
C2118 H2092 0.950 . S
C2118 C2114 1.385 . S
C2118 C2117 1.374 . S
C2119 C2116 1.499 . S
C2119 C2120 1.373 . S
C2119 C2121 1.389 . S
C2120 H2093 0.950 . S
C2120 C2106 1.377 . S
C2120 C2119 1.373 . S
C2121 C2105 1.377 . S
C2121 C2119 1.389 . S
C2121 C2122 1.524 . S
C2122 C2121 1.524 . S
C2122 C2123 1.397 . S
C2122 C2127 1.363 . S
C2123 H2094 0.950 . S
C2123 C2122 1.397 . S
C2123 C2124 1.334 . S
C2124 H2095 0.950 . S
C2124 C2123 1.334 . S
C2124 C2125 1.287 . S
C2125 C2124 1.287 . S
C2125 C2126 1.524 . S
C2125 H2128 0.999 . S
C2126 H2096 0.950 . S
C2126 C2125 1.524 . S
C2126 C2127 1.415 . S
C2127 H2097 0.950 . S
C2127 C2122 1.363 . S
C2127 C2126 1.415 . S
H2128 C2125 0.999 . S
H2129 C2110 0.913 . S
H2130 C2148 0.951 . S
H2131 C2150 0.951 . S
H2132 C2152 0.950 . S
H2133 C2153 0.950 . S
H2134 C2155 0.950 . S
H2135 C2158 0.950 . S
H2136 C2159 0.950 . S
H2137 C2161 0.950 . S
H2138 C2162 0.950 . S
H2139 C2163 0.951 . S
H2140 C2165 0.951 . S
H2141 C2167 0.950 . S
H2142 C2168 0.950 . S
H2143 C2170 0.950 . S
H2144 C2173 0.950 . S
H2145 C2174 0.950 . S
H2146 C2176 0.950 . S
H2147 C2177 0.950 . S
C2148 H2130 0.951 . S
C2148 C2149 1.366 . S
C2148 C2150 1.388 . S
C2149 C2148 1.366 . S
C2149 C2153 1.385 . S
C2150 H2131 0.951 . S
C2150 C2148 1.388 . S
C2150 C2151 1.366 . S
C2151 C2150 1.366 . S
C2151 C2152 1.414 . S
C2151 C2154 1.499 . S
C2152 H2132 0.950 . S
C2152 C2151 1.414 . S
C2152 C2153 1.374 . S
C2153 H2133 0.950 . S
C2153 C2149 1.385 . S
C2153 C2152 1.374 . S
C2154 C2151 1.499 . S
C2154 C2155 1.373 . S
C2154 C2156 1.389 . S
C2155 H2134 0.950 . S
C2155 C2154 1.373 . S
C2155 C2171 1.377 . S
C2156 C2154 1.389 . S
C2156 C2157 1.524 . S
C2156 C2170 1.377 . S
C2157 C2156 1.524 . S
C2157 C2158 1.397 . S
C2157 C2162 1.363 . S
C2158 H2135 0.950 . S
C2158 C2157 1.397 . S
C2158 C2159 1.334 . S
C2159 H2136 0.950 . S
C2159 C2158 1.334 . S
C2159 C2160 1.287 . S
C2160 C2159 1.287 . S
C2160 C2161 1.524 . S
C2160 H2179 0.913 . S
C2161 H2137 0.950 . S
C2161 C2160 1.524 . S
C2161 C2162 1.415 . S
C2162 H2138 0.950 . S
C2162 C2157 1.363 . S
C2162 C2161 1.415 . S
C2163 H2139 0.951 . S
C2163 C2164 1.366 . S
C2163 C2165 1.388 . S
C2164 C2163 1.366 . S
C2164 C2168 1.385 . S
C2165 H2140 0.951 . S
C2165 C2163 1.388 . S
C2165 C2166 1.366 . S
C2166 C2165 1.366 . S
C2166 C2167 1.414 . S
C2166 C2169 1.499 . S
C2167 H2141 0.950 . S
C2167 C2166 1.414 . S
C2167 C2168 1.374 . S
C2168 H2142 0.950 . S
C2168 C2164 1.385 . S
C2168 C2167 1.374 . S
C2169 C2166 1.499 . S
C2169 C2170 1.373 . S
C2169 C2171 1.389 . S
C2170 H2143 0.950 . S
C2170 C2156 1.377 . S
C2170 C2169 1.373 . S
C2171 C2155 1.377 . S
C2171 C2169 1.389 . S
C2171 C2172 1.524 . S
C2172 C2171 1.524 . S
C2172 C2173 1.397 . S
C2172 C2177 1.363 . S
C2173 H2144 0.950 . S
C2173 C2172 1.397 . S
C2173 C2174 1.334 . S
C2174 H2145 0.950 . S
C2174 C2173 1.334 . S
C2174 C2175 1.287 . S
C2175 C2174 1.287 . S
C2175 C2176 1.524 . S
C2175 H2178 0.999 . S
C2176 H2146 0.950 . S
C2176 C2175 1.524 . S
C2176 C2177 1.415 . S
C2177 H2147 0.950 . S
C2177 C2172 1.363 . S
C2177 C2176 1.415 . S
H2178 C2175 0.999 . S
H2179 C2160 0.913 . S
H2180 C2198 0.951 . S
H2181 C2200 0.951 . S
H2182 C2202 0.950 . S
H2183 C2203 0.950 . S
H2184 C2205 0.950 . S
H2185 C2208 0.950 . S
H2186 C2209 0.950 . S
H2187 C2211 0.950 . S
H2188 C2212 0.950 . S
H2189 C2213 0.951 . S
H2190 C2215 0.951 . S
H2191 C2217 0.950 . S
H2192 C2218 0.950 . S
H2193 C2220 0.950 . S
H2194 C2223 0.950 . S
H2195 C2224 0.950 . S
H2196 C2226 0.950 . S
H2197 C2227 0.950 . S
C2198 H2180 0.951 . S
C2198 C2199 1.366 . S
C2198 C2200 1.388 . S
C2199 C2198 1.366 . S
C2199 C2203 1.385 . S
C2200 H2181 0.951 . S
C2200 C2198 1.388 . S
C2200 C2201 1.366 . S
C2201 C2200 1.366 . S
C2201 C2202 1.414 . S
C2201 C2204 1.499 . S
C2202 H2182 0.950 . S
C2202 C2201 1.414 . S
C2202 C2203 1.374 . S
C2203 H2183 0.950 . S
C2203 C2199 1.385 . S
C2203 C2202 1.374 . S
C2204 C2201 1.499 . S
C2204 C2205 1.373 . S
C2204 C2206 1.389 . S
C2205 H2184 0.950 . S
C2205 C2204 1.373 . S
C2205 C2221 1.377 . S
C2206 C2204 1.389 . S
C2206 C2207 1.524 . S
C2206 C2220 1.377 . S
C2207 C2206 1.524 . S
C2207 C2208 1.397 . S
C2207 C2212 1.363 . S
C2208 H2185 0.950 . S
C2208 C2207 1.397 . S
C2208 C2209 1.334 . S
C2209 H2186 0.950 . S
C2209 C2208 1.334 . S
C2209 C2210 1.287 . S
C2210 C2209 1.287 . S
C2210 C2211 1.524 . S
C2210 H2229 0.913 . S
C2211 H2187 0.950 . S
C2211 C2210 1.524 . S
C2211 C2212 1.415 . S
C2212 H2188 0.950 . S
C2212 C2207 1.363 . S
C2212 C2211 1.415 . S
C2213 H2189 0.951 . S
C2213 C2214 1.366 . S
C2213 C2215 1.388 . S
C2214 C2213 1.366 . S
C2214 C2218 1.385 . S
C2215 H2190 0.951 . S
C2215 C2213 1.388 . S
C2215 C2216 1.366 . S
C2216 C2215 1.366 . S
C2216 C2217 1.414 . S
C2216 C2219 1.499 . S
C2217 H2191 0.950 . S
C2217 C2216 1.414 . S
C2217 C2218 1.374 . S
C2218 H2192 0.950 . S
C2218 C2214 1.385 . S
C2218 C2217 1.374 . S
C2219 C2216 1.499 . S
C2219 C2220 1.373 . S
C2219 C2221 1.389 . S
C2220 H2193 0.950 . S
C2220 C2206 1.377 . S
C2220 C2219 1.373 . S
C2221 C2205 1.377 . S
C2221 C2219 1.389 . S
C2221 C2222 1.524 . S
C2222 C2221 1.524 . S
C2222 C2223 1.397 . S
C2222 C2227 1.363 . S
C2223 H2194 0.950 . S
C2223 C2222 1.397 . S
C2223 C2224 1.334 . S
C2224 H2195 0.950 . S
C2224 C2223 1.334 . S
C2224 C2225 1.287 . S
C2225 C2224 1.287 . S
C2225 C2226 1.524 . S
C2225 H2228 0.999 . S
C2226 H2196 0.950 . S
C2226 C2225 1.524 . S
C2226 C2227 1.415 . S
C2227 H2197 0.950 . S
C2227 C2222 1.363 . S
C2227 C2226 1.415 . S
H2228 C2225 0.999 . S
H2229 C2210 0.913 . S
H2230 C2248 0.951 . S
H2231 C2250 0.951 . S
H2232 C2252 0.950 . S
H2233 C2253 0.950 . S
H2234 C2255 0.950 . S
H2235 C2258 0.950 . S
H2236 C2259 0.950 . S
H2237 C2261 0.950 . S
H2238 C2262 0.950 . S
H2239 C2263 0.951 . S
H2240 C2265 0.951 . S
H2241 C2267 0.950 1_655 S
H2242 C2268 0.950 . S
H2243 C2270 0.950 . S
H2244 C2273 0.950 . S
H2245 C2274 0.950 . S
H2246 C2276 0.950 . S
H2247 C2277 0.950 . S
C2248 H2230 0.951 . S
C2248 C2249 1.366 . S
C2248 C2250 1.388 . S
C2249 C2248 1.366 . S
C2249 C2253 1.385 . S
C2250 H2231 0.951 . S
C2250 C2248 1.388 . S
C2250 C2251 1.366 . S
C2251 C2250 1.366 . S
C2251 C2252 1.414 . S
C2251 C2254 1.499 . S
C2252 H2232 0.950 . S
C2252 C2251 1.414 . S
C2252 C2253 1.374 . S
C2253 H2233 0.950 . S
C2253 C2249 1.385 . S
C2253 C2252 1.374 . S
C2254 C2251 1.499 . S
C2254 C2255 1.373 . S
C2254 C2256 1.389 . S
C2255 H2234 0.950 . S
C2255 C2254 1.373 . S
C2255 C2271 1.377 . S
C2256 C2254 1.389 . S
C2256 C2257 1.524 . S
C2256 C2270 1.377 . S
C2257 C2256 1.524 . S
C2257 C2258 1.397 . S
C2257 C2262 1.363 . S
C2258 H2235 0.950 . S
C2258 C2257 1.397 . S
C2258 C2259 1.334 . S
C2259 H2236 0.950 . S
C2259 C2258 1.334 . S
C2259 C2260 1.287 . S
C2260 C2259 1.287 . S
C2260 C2261 1.524 . S
C2260 H2279 0.913 . S
C2261 H2237 0.950 . S
C2261 C2260 1.524 . S
C2261 C2262 1.415 . S
C2262 H2238 0.950 . S
C2262 C2257 1.363 . S
C2262 C2261 1.415 . S
C2263 H2239 0.951 . S
C2263 C2264 1.366 . S
C2263 C2265 1.388 . S
C2264 C2263 1.366 . S
C2264 C2268 1.385 . S
C2265 H2240 0.951 . S
C2265 C2263 1.388 . S
C2265 C2266 1.366 . S
C2266 C2265 1.366 . S
C2266 C2267 1.414 . S
C2266 C2269 1.499 1_455 S
C2267 H2241 0.950 1_455 S
C2267 C2266 1.414 . S
C2267 C2268 1.374 . S
C2268 H2242 0.950 . S
C2268 C2264 1.385 . S
C2268 C2267 1.374 . S
C2269 C2266 1.499 1_655 S
C2269 C2270 1.373 . S
C2269 C2271 1.389 . S
C2270 H2243 0.950 . S
C2270 C2256 1.377 . S
C2270 C2269 1.373 . S
C2271 C2255 1.377 . S
C2271 C2269 1.389 . S
C2271 C2272 1.524 . S
C2272 C2271 1.524 . S
C2272 C2273 1.397 . S
C2272 C2277 1.363 . S
C2273 H2244 0.950 . S
C2273 C2272 1.397 . S
C2273 C2274 1.334 1_655 S
C2274 H2245 0.950 . S
C2274 C2273 1.334 1_455 S
C2274 C2275 1.287 . S
C2275 C2274 1.287 . S
C2275 C2276 1.524 . S
C2275 H2278 0.999 . S
C2276 H2246 0.950 . S
C2276 C2275 1.524 . S
C2276 C2277 1.415 1_455 S
C2277 H2247 0.950 . S
C2277 C2272 1.363 . S
C2277 C2276 1.415 1_655 S
H2278 C2275 0.999 . S
H2279 C2260 0.913 . S
C499 C11 1.121 . S
C514 C459 1.138 . S
C549 C371 1.785 1_565 S
C564 C59 1.847 . S
C599 C91 1.144 . S
C614 C339 1.177 . S
C649 C139 1.909 . S
C664 C419 1.902 . S
C699 C179 1.754 . S
C714 C411 1.710 . S
C749 C211 1.408 . S
C764 C451 1.419 . S
C799 C379 1.808 . S
C814 C259 1.808 . S
C849 C291 1.486 . S
C864 C331 1.514 . S
C899 C131 1.564 . S
C914 C171 1.576 . S
C949 C19 1.388 . S
C964 C219 1.385 . S
C999 C51 1.555 1_655 S
C1014 C251 1.571 . S
C1049 C299 1.729 . S
C1064 C99 1.735 . S
C1099 C16 1.795 . S
C1114 C330 1.788 . S
C1149 C47 1.212 . S
C1164 C410 1.177 . S
C1199 C450 1.829 . S
C1214 C96 1.836 . S
C1249 C127 1.537 . S
C1264 C362 1.526 . S
C1299 C167 1.072 . S
C1314 C370 1.047 . S
C1349 C322 2.070 . S
C1364 C216 1.990 . S
C1399 C402 1.392 . S
C1414 C247 1.401 . S
C1449 C442 2.145 . S
C1464 C296 2.071 . S
C1499 C10 2.371 . S
C1514 C136 2.377 . S
C1549 C7 1.768 . S
C1564 C42 1.750 . S
C1599 C56 2.121 . S
C1614 C90 2.123 . S
C1649 C122 1.612 . S
C1664 C87 1.626 . S
C1699 C207 1.492 . S
C1714 C162 1.473 . S
C1749 C210 1.123 . S
C1764 C256 1.131 . S
C1799 C242 1.376 . S
C1814 C287 1.390 . S
C1849 C176 0.890 . S
C1864 C290 0.890 . S
C1899 C336 1.310 . S
C1914 C130 1.296 . S
C1949 C202 2.081 . S
C1964 C376 2.021 . S
C1999 C327 1.309 . S
C2014 C250 1.255 . S
C2049 C407 1.854 . S
C2064 C282 1.832 . S
C2099 C170 1.218 . S
C2114 C447 1.265 . S
C2149 C456 1.269 . S
C2164 C50 1.254 . S
C2199 C82 1.683 . S
C2214 C367 1.694 . S
C2249 C416 1.901 . S
C2264 C2 1.970 . S
