# Generated by pormake.
# Topology qtz-e, (6)-cn, num edge types: 1
# Building blocks:
#     Node 0, Type 0, BuildingBlock: CIFDUS_clean_sbu_1, # of connection points: 6
#     Node 1, Type 0, BuildingBlock: CIFDUS_clean_sbu_1, # of connection points: 6
#     Node 2, Type 0, BuildingBlock: CIFDUS_clean_sbu_1, # of connection points: 6
#     Node 3, Type 0, BuildingBlock: CIFDUS_clean_sbu_1, # of connection points: 6
#     Node 4, Type 0, BuildingBlock: CIFDUS_clean_sbu_1, # of connection points: 6
#     Node 5, Type 0, BuildingBlock: CIFDUS_clean_sbu_1, # of connection points: 6
#     Edge 6, Type (0, 0), BuildingBlock: KIFKEQ_clean_linker_1, # of connection points: 2
#     Edge 7, Type (0, 0), BuildingBlock: KIFKEQ_clean_linker_1, # of connection points: 2
#     Edge 8, Type (0, 0), BuildingBlock: KIFKEQ_clean_linker_1, # of connection points: 2
#     Edge 9, Type (0, 0), BuildingBlock: KIFKEQ_clean_linker_1, # of connection points: 2
#     Edge 10, Type (0, 0), BuildingBlock: KIFKEQ_clean_linker_1, # of connection points: 2
#     Edge 11, Type (0, 0), BuildingBlock: KIFKEQ_clean_linker_1, # of connection points: 2
#     Edge 12, Type (0, 0), BuildingBlock: KIFKEQ_clean_linker_1, # of connection points: 2
#     Edge 13, Type (0, 0), BuildingBlock: KIFKEQ_clean_linker_1, # of connection points: 2
#     Edge 14, Type (0, 0), BuildingBlock: KIFKEQ_clean_linker_1, # of connection points: 2
#     Edge 15, Type (0, 0), BuildingBlock: KIFKEQ_clean_linker_1, # of connection points: 2
#     Edge 16, Type (0, 0), BuildingBlock: KIFKEQ_clean_linker_1, # of connection points: 2
#     Edge 17, Type (0, 0), BuildingBlock: KIFKEQ_clean_linker_1, # of connection points: 2
#     Edge 18, Type (0, 0), BuildingBlock: KIFKEQ_clean_linker_1, # of connection points: 2
#     Edge 19, Type (0, 0), BuildingBlock: KIFKEQ_clean_linker_1, # of connection points: 2
#     Edge 20, Type (0, 0), BuildingBlock: KIFKEQ_clean_linker_1, # of connection points: 2
#     Edge 21, Type (0, 0), BuildingBlock: KIFKEQ_clean_linker_1, # of connection points: 2
#     Edge 22, Type (0, 0), BuildingBlock: KIFKEQ_clean_linker_1, # of connection points: 2
#     Edge 23, Type (0, 0), BuildingBlock: KIFKEQ_clean_linker_1, # of connection points: 2
# Relax obj value: 0.337
# Max RMSD: 0.227
# Mean RMSD: 0.227
data_MOF--net-qtz-e--node1-CIFDUS_clean_sbu_1--edge1-KIFKEQ_clean_linker_1
_symmetry_space_group_name_H-M    P1
_symmetry_Int_Tables_number       1
_symmetry_cell_setting            triclinic
loop_
_symmetry_equiv_pos_as_xyz
'x, y, z'
_cell_length_a     28.307486
_cell_length_b     28.330676
_cell_length_c     31.316238
_cell_angle_alpha  89.900232
_cell_angle_beta   89.873594
_cell_angle_gamma 120.20724
loop_
_atom_site_label
_atom_site_type_symbol
_atom_site_fract_x
_atom_site_fract_y
_atom_site_fract_z
_atom_type_partial_charge
O0 O 0.28684 0.47502 0.01154 0.0
Mn1 Mn 0.20838 0.44588 0.98632 0.0
O2 O 0.33496 0.56026 0.98346 0.0
Mn3 Mn 0.28024 0.56204 0.95238 0.0
O4 O 0.133 0.42285 0.9606 0.0
O5 O 0.1913 0.36699 0.98624 0.0
Mn6 Mn 0.12475 0.32692 0.00882 0.0
O7 O 0.17595 0.43809 0.04921 0.0
O8 O 0.07364 0.33574 0.97703 0.0
O9 O 0.23973 0.45012 0.9245 0.0
O10 O 0.26771 0.53325 0.89834 0.0
O11 O 0.1469 0.27865 0.99354 0.0
O12 O 0.12942 0.34828 0.06468 0.0
C13 C 0.22065 0.56825 0.98918 0.0
C14 C 0.33117 0.52181 0.00736 0.0
C15 C 0.08504 0.38105 0.95966 0.0
C16 C 0.19084 0.32138 0.97974 0.0
C17 C 0.14837 0.39782 0.07526 0.0
C18 C 0.2566 0.48439 0.89349 0.0
O19 O 0.22152 0.52323 0.98373 0.0
O20 O 0.25771 0.60968 0.96787 0.0
O21 O 0.83235 0.28195 0.34848 0.0
Mn22 Mn 0.78045 0.20593 0.32085 0.0
O23 O 0.78908 0.32887 0.33126 0.0
Mn24 Mn 0.7249 0.275 0.30609 0.0
O25 O 0.72421 0.13489 0.29216 0.0
O26 O 0.84168 0.19108 0.30702 0.0
Mn27 Mn 0.81623 0.12 0.317 0.0
O28 O 0.76571 0.16489 0.38028 0.0
O29 O 0.75501 0.07736 0.28234 0.0
O30 O 0.79617 0.24388 0.26108 0.0
O31 O 0.72951 0.2624 0.24877 0.0
O32 O 0.88673 0.14896 0.29675 0.0
O33 O 0.80205 0.11022 0.37517 0.0
C34 C 0.67443 0.21141 0.35055 0.0
C35 C 0.82829 0.32555 0.34883 0.0
C36 C 0.71834 0.09045 0.27743 0.0
C37 C 0.88699 0.19472 0.2941 0.0
C38 C 0.77765 0.13015 0.39634 0.0
C39 C 0.76877 0.25648 0.23578 0.0
O40 O 0.71779 0.21752 0.3323 0.0
O41 O 0.65981 0.24522 0.33687 0.0
O42 O 0.56671 0.84887 0.70773 0.0
Mn43 Mn 0.56826 0.78578 0.67341 0.0
O44 O 0.47979 0.81322 0.73056 0.0
Mn45 Mn 0.45044 0.76586 0.68543 0.0
O46 O 0.56806 0.72288 0.64035 0.0
O47 O 0.64628 0.83622 0.65618 0.0
Mn48 Mn 0.68644 0.80549 0.66501 0.0
O49 O 0.59156 0.76166 0.72945 0.0
O50 O 0.65453 0.7411 0.63261 0.0
O51 O 0.54548 0.81012 0.6189 0.0
O52 O 0.46244 0.79974 0.63227 0.0
O53 O 0.7316 0.87369 0.64009 0.0
O54 O 0.68223 0.7937 0.72356 0.0
C55 C 0.44593 0.68799 0.69269 0.0
C56 C 0.53001 0.85025 0.73137 0.0
C57 C 0.60306 0.7103 0.62694 0.0
C58 C 0.68799 0.8775 0.63875 0.0
C59 C 0.63758 0.77073 0.74478 0.0
C60 C 0.50488 0.81595 0.60886 0.0
O61 O 0.48978 0.73399 0.68639 0.0
O62 O 0.4023 0.69179 0.69379 0.0
O63 O 0.71714 0.58251 0.04444 0.0
Mn64 Mn 0.77333 0.56486 0.01448 0.0
O65 O 0.65775 0.50504 0.079 0.0
Mn66 Mn 0.66346 0.45989 0.03963 0.0
O67 O 0.82612 0.5437 0.98521 0.0
O68 O 0.81243 0.63971 0.98732 0.0
Mn69 Mn 0.88378 0.66696 0.99306 0.0
O70 O 0.82403 0.59293 0.06936 0.0
O71 O 0.90259 0.62016 0.96588 0.0
O72 O 0.72257 0.53756 0.96142 0.0
O73 O 0.64272 0.46684 0.98458 0.0
O74 O 0.8752 0.71816 0.96311 0.0
O75 O 0.89632 0.6744 0.05111 0.0
C76 C 0.7301 0.44343 0.044 0.0
C77 C 0.67696 0.55564 0.07078 0.0
C78 C 0.87354 0.56819 0.96769 0.0
C79 C 0.82334 0.68362 0.96648 0.0
C80 C 0.86858 0.63746 0.07867 0.0
C81 C 0.67214 0.50121 0.95576 0.0
O82 O 0.73448 0.49017 0.03849 0.0
O83 O 0.68022 0.40511 0.05042 0.0
O84 O 0.16095 0.71825 0.36929 0.0
Mn85 Mn 0.23072 0.77715 0.33649 0.0
O86 O 0.18233 0.65481 0.39145 0.0
Mn87 Mn 0.24323 0.67515 0.35752 0.0
O88 O 0.30171 0.83085 0.30428 0.0
O89 O 0.18848 0.80933 0.30974 0.0
Mn90 Mn 0.23302 0.88115 0.30537 0.0
O91 O 0.25349 0.83256 0.38808 0.0
O92 O 0.29214 0.89461 0.27033 0.0
O93 O 0.20874 0.72438 0.28487 0.0
O94 O 0.22731 0.65778 0.30011 0.0
O95 O 0.16627 0.86636 0.28364 0.0
O96 O 0.25318 0.90624 0.36083 0.0
C97 C 0.31718 0.74969 0.37502 0.0
C98 C 0.15012 0.67424 0.38991 0.0
C99 C 0.31948 0.87111 0.27834 0.0
C100 C 0.15073 0.81591 0.29236 0.0
C101 C 0.26158 0.88158 0.39153 0.0
C102 C 0.21028 0.68129 0.27473 0.0
O103 O 0.27344 0.74593 0.36038 0.0
O104 O 0.31394 0.7028 0.37924 0.0
O105 O 0.44645 0.16032 0.71636 0.0
Mn106 Mn 0.45569 0.22828 0.68209 0.0
O107 O 0.52296 0.19098 0.75547 0.0
Mn108 Mn 0.56603 0.24756 0.71888 0.0
O109 O 0.46763 0.29634 0.64854 0.0
O110 O 0.38525 0.17993 0.64999 0.0
Mn111 Mn 0.34706 0.21406 0.6489 0.0
O112 O 0.4137 0.2439 0.73108 0.0
O113 O 0.38854 0.2803 0.61996 0.0
O114 O 0.4977 0.21194 0.63505 0.0
O115 O 0.57702 0.22779 0.66498 0.0
O116 O 0.30593 0.1495 0.61983 0.0
O117 O 0.33104 0.22101 0.70503 0.0
C118 C 0.56708 0.32346 0.72478 0.0
C119 C 0.47475 0.15387 0.74562 0.0
C120 C 0.43982 0.31115 0.62579 0.0
C121 C 0.34639 0.14168 0.62747 0.0
C122 C 0.36543 0.23733 0.73552 0.0
C123 C 0.54373 0.21312 0.63377 0.0
O124 O 0.52677 0.27857 0.71063 0.0
O125 O 0.6083 0.31889 0.73681 0.0
H126 H 0.18273 0.72498 0.20779 0.0
H127 H 0.19394 0.58365 0.24431 0.0
H128 H 0.15528 0.68809 0.1365 0.0
H129 H 0.17066 0.54888 0.17195 0.0
H130 H 0.13415 0.49314 0.03961 0.0
H131 H 0.11083 0.51413 0.11008 0.0
H132 H 0.2114 0.68639 0.08235 0.0
H133 H 0.23509 0.66557 0.01423 0.0
C134 C 0.17857 0.68564 0.20091 0.0
C135 C 0.19103 0.65756 0.23183 0.0
C136 C 0.1631 0.66461 0.15984 0.0
C137 C 0.16144 0.61588 0.14824 0.0
C138 C 0.17091 0.58623 0.17978 0.0
C139 C 0.18537 0.60677 0.22115 0.0
C140 C 0.15141 0.53517 0.04911 0.0
C141 C 0.18996 0.57747 0.02316 0.0
C142 C 0.13743 0.54727 0.08895 0.0
C143 C 0.16097 0.60186 0.10254 0.0
C144 C 0.19268 0.64382 0.07342 0.0
C145 C 0.20673 0.63172 0.03414 0.0
H146 H 0.49087 0.11827 0.58867 0.0
H147 H 0.63766 0.27596 0.59161 0.0
H148 H 0.52076 0.09731 0.52109 0.0
H149 H 0.66824 0.25553 0.52523 0.0
H150 H 0.73266 0.21714 0.42012 0.0
H151 H 0.69883 0.19799 0.49289 0.0
H152 H 0.53405 0.13389 0.44666 0.0
H153 H 0.56806 0.14891 0.37326 0.0
C154 C 0.52893 0.14865 0.57425 0.0
C155 C 0.56109 0.19941 0.59393 0.0
C156 C 0.54652 0.13638 0.53624 0.0
C157 C 0.59701 0.17455 0.51803 0.0
C158 C 0.62969 0.22466 0.53884 0.0
C159 C 0.61201 0.23679 0.57651 0.0
C160 C 0.68892 0.19451 0.42521 0.0
C161 C 0.65278 0.18262 0.39107 0.0
C162 C 0.66955 0.18505 0.46706 0.0
C163 C 0.61399 0.16575 0.47546 0.0
C164 C 0.57707 0.14864 0.4412 0.0
C165 C 0.59646 0.15725 0.3992 0.0
H166 H 0.22219 0.48246 0.81273 0.0
H167 H 0.34289 0.46914 0.88683 0.0
H168 H 0.28054 0.50671 0.75026 0.0
H169 H 0.40155 0.49202 0.82398 0.0
H170 H 0.49721 0.66856 0.75733 0.0
H171 H 0.45098 0.58491 0.79872 0.0
H172 H 0.33844 0.50549 0.69471 0.0
H173 H 0.38391 0.59053 0.65418 0.0
C174 C 0.25976 0.48121 0.81482 0.0
C175 C 0.27779 0.4733 0.8543 0.0
C176 C 0.29356 0.49513 0.77893 0.0
C177 C 0.34658 0.50248 0.78216 0.0
C178 C 0.36135 0.48735 0.82045 0.0
C179 C 0.3273 0.47325 0.85636 0.0
C180 C 0.46498 0.63225 0.74222 0.0
C181 C 0.44302 0.63614 0.70324 0.0
C182 C 0.43798 0.58393 0.76609 0.0
C183 C 0.3891 0.53915 0.75082 0.0
C184 C 0.37472 0.53989 0.70798 0.0
C185 C 0.40112 0.58846 0.68452 0.0
H186 H 0.71001 0.22398 0.16322 0.0
H187 H 0.87154 0.33281 0.2115 0.0
H188 H 0.73365 0.27441 0.09668 0.0
H189 H 0.89617 0.38422 0.1444 0.0
H190 H 0.81818 0.49291 0.09553 0.0
H191 H 0.85844 0.44353 0.12804 0.0
H192 H 0.78342 0.3184 0.03171 0.0
H193 H 0.74073 0.36677 0.00098 0.0
C194 C 0.75151 0.25731 0.15862 0.0
C195 C 0.78885 0.27487 0.19226 0.0
C196 C 0.76552 0.28621 0.12028 0.0
C197 C 0.81681 0.33414 0.11531 0.0
C198 C 0.85633 0.34778 0.14732 0.0
C199 C 0.84239 0.31818 0.18561 0.0
C200 C 0.81326 0.45672 0.07982 0.0
C201 C 0.77538 0.43261 0.0468 0.0
C202 C 0.83637 0.42814 0.09839 0.0
C203 C 0.82162 0.37548 0.08367 0.0
C204 C 0.79376 0.35788 0.04465 0.0
C205 C 0.7694 0.38559 0.02697 0.0
H206 H 0.48082 0.89565 0.59264 0.0
H207 H 0.53204 0.79199 0.53244 0.0
H208 H 0.46255 0.92125 0.52277 0.0
H209 H 0.51039 0.81357 0.46321 0.0
H210 H 0.42459 0.79458 0.35477 0.0
H211 H 0.49963 0.852 0.40259 0.0
H212 H 0.38493 0.86689 0.48526 0.0
H213 H 0.31232 0.81263 0.43662 0.0
C214 C 0.48884 0.87904 0.5642 0.0
C215 C 0.50573 0.8404 0.56746 0.0
C216 C 0.47851 0.89366 0.52421 0.0
C217 C 0.48228 0.8676 0.48717 0.0
C218 C 0.50626 0.83447 0.49058 0.0
C219 C 0.51809 0.82122 0.53045 0.0
C220 C 0.41658 0.81308 0.38202 0.0
C221 C 0.36302 0.79952 0.39227 0.0
C222 C 0.45933 0.84554 0.40967 0.0
C223 C 0.44811 0.86157 0.44918 0.0
C224 C 0.39583 0.85511 0.45564 0.0
C225 C 0.35355 0.82398 0.42741 0.0
H226 H 0.56892 0.42628 0.93087 0.0
H227 H 0.71549 0.56965 0.88611 0.0
H228 H 0.53128 0.41053 0.86034 0.0
H229 H 0.67593 0.55619 0.8151 0.0
H230 H 0.65483 0.42407 0.7164 0.0
H231 H 0.67134 0.49632 0.7648 0.0
H232 H 0.49852 0.41567 0.79421 0.0
H233 H 0.48306 0.34205 0.74557 0.0
C234 C 0.59276 0.45538 0.90608 0.0
C235 C 0.64633 0.49783 0.91385 0.0
C236 C 0.57049 0.44699 0.86531 0.0
C237 C 0.60106 0.48107 0.83103 0.0
C238 C 0.65187 0.52777 0.84016 0.0
C239 C 0.6747 0.53552 0.88096 0.0
C240 C 0.61992 0.42305 0.73167 0.0
C241 C 0.56835 0.37563 0.73029 0.0
C242 C 0.62928 0.46494 0.75966 0.0
C243 C 0.58689 0.45945 0.78657 0.0
C244 C 0.53286 0.4191 0.77625 0.0
C245 C 0.52368 0.37683 0.74823 0.0
H246 H 0.41674 0.62212 0.02581 0.0
H247 H 0.35923 0.45007 0.0428 0.0
H248 H 0.50462 0.64483 0.05575 0.0
H249 H 0.44813 0.47323 0.07297 0.0
H250 H 0.66397 0.63247 0.02799 0.0
H251 H 0.57755 0.63107 0.02413 0.0
H252 H 0.51687 0.5214 0.13229 0.0
H253 H 0.60368 0.5231 0.13643 0.0
C254 C 0.42264 0.58899 0.03628 0.0
C255 C 0.38128 0.53405 0.03103 0.0
C256 C 0.47306 0.60224 0.05362 0.0
C257 C 0.48342 0.56096 0.06637 0.0
C258 C 0.44105 0.50603 0.06374 0.0
C259 C 0.39028 0.49265 0.04625 0.0
C260 C 0.63344 0.61038 0.05237 0.0
C261 C 0.64003 0.57657 0.08165 0.0
C262 C 0.58355 0.60917 0.04996 0.0
C263 C 0.53986 0.5745 0.07702 0.0
C264 C 0.54939 0.54723 0.11031 0.0
C265 C 0.59937 0.54882 0.11295 0.0
H266 H 0.05459 0.65847 0.35608 0.0
H267 H 0.11966 0.60188 0.45562 0.0
H268 H 0.96905 0.57143 0.35854 0.0
H269 H 0.03443 0.51447 0.45746 0.0
H270 H 0.81674 0.41016 0.3759 0.0
H271 H 0.8873 0.49908 0.40061 0.0
H272 H 0.00523 0.44518 0.3954 0.0
H273 H 0.93429 0.35539 0.36995 0.0
C274 C 0.04965 0.62867 0.38006 0.0
C275 C 0.0941 0.63649 0.40504 0.0
C276 C 1.00083 0.57849 0.38117 0.0
C277 C 0.99601 0.53577 0.4073 0.0
C278 C 0.03771 0.54635 0.43637 0.0
C279 C 0.08617 0.5966 0.4356 0.0
C280 C 0.85759 0.41682 0.38032 0.0
C281 C 0.87022 0.37593 0.37006 0.0
C282 C 0.89784 0.46782 0.39468 0.0
C283 C 0.95159 0.47909 0.39963 0.0
C284 C 0.96378 0.43727 0.39218 0.0
C285 C 0.92335 0.38599 0.37747 0.0
H286 H 0.49565 0.12272 0.82228 0.0
H287 H 0.42739 0.06229 0.6975 0.0
H288 H 0.51696 0.04937 0.82965 0.0
H289 H 0.44934 0.98978 0.70482 0.0
H290 H 0.58488 0.95106 0.69634 0.0
H291 H 0.56079 0.02122 0.70983 0.0
H292 H 0.46962 0.93381 0.82188 0.0
H293 H 0.49304 0.86293 0.8081 0.0
C294 C 0.48262 0.0921 0.79746 0.0
C295 C 0.46067 0.09857 0.75904 0.0
C296 C 0.49553 0.05076 0.80148 0.0
C297 C 0.48659 0.01578 0.7671 0.0
C298 C 0.45771 0.01748 0.73128 0.0
C299 C 0.44413 0.05827 0.72748 0.0
C300 C 0.56236 0.94834 0.72517 0.0
C301 C 0.54038 0.90153 0.75099 0.0
C302 C 0.54763 0.98782 0.73237 0.0
C303 C 0.51192 0.98143 0.76601 0.0
C304 C 0.49655 0.93889 0.79544 0.0
C305 C 0.51062 0.89894 0.78788 0.0
H306 H 0.66047 0.66173 0.59814 0.0
H307 H 0.49618 0.63183 0.61629 0.0
H308 H 0.62364 0.56499 0.58309 0.0
H309 H 0.45992 0.53571 0.6038 0.0
H310 H 0.54565 0.39044 0.63947 0.0
H311 H 0.58671 0.48729 0.62678 0.0
H312 H 0.44028 0.45974 0.56193 0.0
H313 H 0.39771 0.36217 0.57688 0.0
C314 C 0.61655 0.63482 0.59831 0.0
C315 C 0.58149 0.65459 0.60925 0.0
C316 C 0.59538 0.57918 0.59004 0.0
C317 C 0.53875 0.54203 0.59302 0.0
C318 C 0.50363 0.56271 0.60077 0.0
C319 C 0.52467 0.6182 0.60843 0.0
C320 C 0.52223 0.40468 0.62198 0.0
C321 C 0.4678 0.3684 0.61004 0.0
C322 C 0.5462 0.46059 0.61423 0.0
C323 C 0.51676 0.48185 0.5937 0.0
C324 C 0.4638 0.44505 0.57872 0.0
C325 C 0.43945 0.38898 0.58702 0.0
H326 H 0.09091 0.44813 0.89526 0.0
H327 H 0.98175 0.33866 0.99196 0.0
H328 H 0.03206 0.48715 0.88612 0.0
H329 H 0.92351 0.37877 0.98387 0.0
H330 H 0.82173 0.45718 0.95656 0.0
H331 H 0.86391 0.4015 0.94375 0.0
H332 H 0.02178 0.54833 0.93285 0.0
H333 H 0.97983 0.60351 0.94572 0.0
C334 C 0.05332 0.4312 0.91359 0.0
C335 C 0.04105 0.39052 0.94446 0.0
C336 C 0.01992 0.45402 0.90874 0.0
C337 C 0.9738 0.43717 0.93504 0.0
C338 C 0.95862 0.39272 0.96298 0.0
C339 C 0.99188 0.36945 0.96752 0.0
C340 C 0.86539 0.47749 0.95116 0.0
C341 C 0.89746 0.53482 0.95296 0.0
C342 C 0.88955 0.44555 0.94373 0.0
C343 C 0.9463 0.47027 0.93739 0.0
C344 C 0.97784 0.52772 0.93693 0.0
C345 C 0.95375 0.55954 0.94453 0.0
H346 H 0.39282 0.84005 0.30013 0.0
H347 H 0.37522 0.95363 0.21919 0.0
H348 H 0.48962 0.88729 0.28651 0.0
H349 H 0.4723 0.99852 0.20174 0.0
H350 H 0.64703 0.11799 0.24495 0.0
H351 H 0.55107 0.05918 0.23298 0.0
H352 H 0.56964 0.91778 0.25088 0.0
H353 H 0.66659 0.97823 0.26657 0.0
C354 C 0.4095 0.87458 0.27853 0.0
C355 C 0.37632 0.89411 0.26201 0.0
C356 C 0.4655 0.90144 0.27002 0.0
C357 C 0.49009 0.94798 0.24358 0.0
C358 C 0.45575 0.96425 0.22362 0.0
C359 C 0.39972 0.93816 0.23323 0.0
C360 C 0.63099 0.07427 0.24583 0.0
C361 C 0.66436 0.05288 0.25802 0.0
C362 C 0.5754 0.04009 0.23834 0.0
C363 C 0.55125 0.98308 0.24186 0.0
C364 C 0.58597 0.96145 0.24937 0.0
C365 C 0.64192 0.99603 0.25772 0.0
H366 H 0.26197 0.20797 0.75935 0.0
H367 H 0.42834 0.2968 0.80526 0.0
H368 H 0.23101 0.23303 0.82282 0.0
H369 H 0.39652 0.32319 0.86934 0.0
H370 H 0.28937 0.39909 0.94161 0.0
H371 H 0.34052 0.38076 0.88616 0.0
H372 H 0.23247 0.20785 0.90355 0.0
H373 H 0.18183 0.22534 0.95724 0.0
C374 C 0.29222 0.233 0.78289 0.0
C375 C 0.34794 0.25061 0.77665 0.0
C376 C 0.27428 0.24737 0.81941 0.0
C377 C 0.3113 0.28021 0.85099 0.0
C378 C 0.36716 0.29818 0.84527 0.0
C379 C 0.38527 0.28288 0.80863 0.0
C380 C 0.27667 0.35737 0.93338 0.0
C381 C 0.22987 0.31393 0.95247 0.0
C382 C 0.30632 0.34689 0.90219 0.0
C383 C 0.28946 0.29291 0.88988 0.0
C384 C 0.2458 0.24987 0.91177 0.0
C385 C 0.21669 0.26016 0.94263 0.0
H386 H 0.98224 0.2034 0.2688 0.0
H387 H 0.89938 0.2961 0.27231 0.0
H388 H 0.0539 0.27296 0.22538 0.0
H389 H 0.97229 0.36706 0.22752 0.0
H390 H 0.05915 0.40689 0.08865 0.0
H391 H 1.00095 0.3723 0.15191 0.0
H392 H 0.12982 0.36355 0.21841 0.0
H393 H 0.187 0.3965 0.15441 0.0
C394 C 0.97951 0.23915 0.26074 0.0
C395 C 0.93384 0.24312 0.27315 0.0
C396 C 0.02132 0.27968 0.23597 0.0
C397 C 0.01921 0.32594 0.22254 0.0
C398 C 0.97496 0.33164 0.23677 0.0
C399 C 0.93298 0.29088 0.26225 0.0
C400 C 0.07618 0.40065 0.11765 0.0
C401 C 0.12801 0.40522 0.11675 0.0
C402 C 0.04253 0.38027 0.15395 0.0
C403 C 0.05997 0.36364 0.1901 0.0
C404 C 0.11446 0.37471 0.19085 0.0
C405 C 0.14783 0.39466 0.15444 0.0
H406 H 0.75473 0.98658 0.64747 0.0
H407 H 0.62514 0.86671 0.5694 0.0
H408 H 0.77113 0.05756 0.59524 0.0
H409 H 0.64014 0.93744 0.51743 0.0
H410 H 0.67462 0.08114 0.43128 0.0
H411 H 0.6441 0.0255 0.49681 0.0
H412 H 0.81132 0.07121 0.52386 0.0
H413 H 0.8411 0.12595 0.45884 0.0
C414 C 0.72813 0.97584 0.61998 0.0
C415 C 0.68715 0.92135 0.61338 0.0
C416 C 0.7378 0.0164 0.58981 0.0
C417 C 0.70715 0.0034 0.55189 0.0
C418 C 0.66393 0.94934 0.54653 0.0
C419 C 0.65452 0.90871 0.57673 0.0
C420 C 0.70487 0.0808 0.4522 0.0
C421 C 0.76038 0.10858 0.44033 0.0
C422 C 0.68737 0.04836 0.48942 0.0
C423 C 0.72518 0.04368 0.51576 0.0
C424 C 0.781 0.07427 0.5049 0.0
C425 C 0.79823 0.10577 0.46756 0.0
H426 H 0.60652 0.66743 0.77067 0.0
H427 H 0.67928 0.83338 0.81494 0.0
H428 H 0.63998 0.64311 0.83447 0.0
H429 H 0.71104 0.80915 0.87929 0.0
H430 H 0.84614 0.77409 0.92193 0.0
H431 H 0.78649 0.79106 0.87802 0.0
H432 H 0.64897 0.63544 0.91539 0.0
H433 H 0.70974 0.6189 0.96117 0.0
C434 C 0.62736 0.69796 0.79514 0.0
C435 C 0.64034 0.7522 0.78818 0.0
C436 C 0.64653 0.6841 0.83166 0.0
C437 C 0.67904 0.72444 0.86162 0.0
C438 C 0.68694 0.77734 0.85648 0.0
C439 C 0.66837 0.79122 0.81988 0.0
C440 C 0.8031 0.74348 0.92154 0.0
C441 C 0.78314 0.69424 0.94433 0.0
C442 C 0.76861 0.75354 0.89643 0.0
C443 C 0.71278 0.7147 0.89306 0.0
C444 C 0.69192 0.66607 0.91705 0.0
C445 C 0.72676 0.65634 0.94302 0.0
H446 H 0.11885 0.7137 0.25987 0.0
H447 H 0.05718 0.81914 0.29594 0.0
H448 H 0.03745 0.6591 0.21658 0.0
H449 H 0.97352 0.76213 0.25668 0.0
H450 H 0.8868 0.57167 0.13363 0.0
H451 H 0.9433 0.6017 0.19839 0.0
H452 H 0.96079 0.76165 0.18414 0.0
H453 H 0.90382 0.73106 0.1215 0.0
C454 C 0.0871 0.72404 0.25972 0.0
C455 C 0.09541 0.77186 0.2798 0.0
C456 C 0.03991 0.69243 0.23518 0.0
C457 C 0.99942 0.70733 0.23149 0.0
C458 C 0.00471 0.7507 0.2569 0.0
C459 C 0.05247 0.78311 0.27999 0.0
C460 C 0.90104 0.61243 0.1456 0.0
C461 C 0.89052 0.64891 0.12273 0.0
C462 C 0.93416 0.63003 0.18234 0.0
C463 C 0.95706 0.68432 0.19692 0.0
C464 C 0.94344 0.7193 0.17502 0.0
C465 C 0.9108 0.70186 0.13866 0.0
H466 H 0.42446 0.14862 0.57301 0.0
H467 H 0.26913 0.03438 0.62897 0.0
H468 H 0.41402 0.07967 0.52102 0.0
H469 H 0.25721 0.96572 0.57634 0.0
H470 H 0.25017 0.84593 0.47588 0.0
H471 H 0.28146 0.90349 0.54025 0.0
H472 H 0.35528 0.04776 0.46049 0.0
H473 H 0.32509 0.99123 0.39747 0.0
C474 C 0.38944 0.10781 0.57556 0.0
C475 C 0.34852 0.09637 0.60583 0.0
C476 C 0.38269 0.0685 0.54517 0.0
C477 C 0.33434 0.01702 0.54397 0.0
C478 C 0.29521 0.00442 0.57636 0.0
C479 C 0.30205 0.04381 0.60665 0.0
C480 C 0.27382 0.8899 0.47233 0.0
C481 C 0.28433 0.91385 0.43146 0.0
C482 C 0.2916 0.92296 0.50916 0.0
C483 C 0.32105 0.98054 0.50579 0.0
C484 C 0.33356 0.00385 0.46474 0.0
C485 C 0.31547 0.97117 0.42836 0.0
loop_
_geom_bond_atom_site_label_1
_geom_bond_atom_site_label_2
_geom_bond_distance
_geom_bond_site_symmetry_2
_ccdc_geom_bond_type
O0 Mn1 2.163 1_554 S
O0 C14 1.244 . S
Mn1 O0 2.163 1_556 S
Mn1 O4 2.160 . S
Mn1 O5 2.221 . S
Mn1 O7 2.163 1_556 S
Mn1 O9 2.160 . S
Mn1 O19 2.221 1_556 S
O2 Mn3 2.087 . S
O2 C14 1.256 . S
Mn3 O2 2.087 . S
Mn3 O10 2.089 1_554 S
Mn3 O19 2.290 . S
Mn3 O20 2.251 . S
O4 Mn1 2.160 . S
O4 C15 1.239 . S
O5 Mn1 2.221 . S
O5 Mn6 2.290 . S
O5 C16 1.278 . S
Mn6 O5 2.290 . S
Mn6 O8 2.089 . S
Mn6 O11 2.251 . S
Mn6 O12 2.087 1_556 S
O7 Mn1 2.163 1_554 S
O7 C17 1.244 . S
O8 Mn6 2.089 . S
O8 C15 1.256 . S
O9 Mn1 2.160 . S
O9 C18 1.239 . S
O10 Mn3 2.089 1_556 S
O10 C18 1.256 . S
O11 Mn6 2.251 . S
O11 C16 1.241 . S
O12 Mn6 2.087 1_554 S
O12 C17 1.256 . S
C13 O19 1.278 . S
C13 O20 1.241 . S
C14 O0 1.244 . S
C14 O2 1.256 . S
C15 O4 1.239 . S
C15 O8 1.256 . S
C16 O5 1.278 . S
C16 O11 1.241 . S
C17 O7 1.244 . S
C17 O12 1.256 . S
C18 O9 1.239 . S
C18 O10 1.256 . S
O19 Mn1 2.221 1_554 S
O19 Mn3 2.290 . S
O19 C13 1.278 . S
O20 Mn3 2.251 . S
O20 C13 1.241 . S
O21 Mn22 2.163 . S
O21 C35 1.244 . S
Mn22 O21 2.163 . S
Mn22 O25 2.160 . S
Mn22 O26 2.221 . S
Mn22 O28 2.163 . S
Mn22 O30 2.160 . S
Mn22 O40 2.221 . S
O23 Mn24 2.087 . S
O23 C35 1.256 . S
Mn24 O23 2.087 . S
Mn24 O31 2.089 . S
Mn24 O40 2.290 . S
Mn24 O41 2.251 . S
O25 Mn22 2.160 . S
O25 C36 1.239 . S
O26 Mn22 2.221 . S
O26 Mn27 2.290 . S
O26 C37 1.278 . S
Mn27 O26 2.290 . S
Mn27 O29 2.089 . S
Mn27 O32 2.251 . S
Mn27 O33 2.087 . S
O28 Mn22 2.163 . S
O28 C38 1.244 . S
O29 Mn27 2.089 . S
O29 C36 1.256 . S
O30 Mn22 2.160 . S
O30 C39 1.239 . S
O31 Mn24 2.089 . S
O31 C39 1.256 . S
O32 Mn27 2.251 . S
O32 C37 1.241 . S
O33 Mn27 2.087 . S
O33 C38 1.256 . S
C34 O40 1.278 . S
C34 O41 1.241 . S
C35 O21 1.244 . S
C35 O23 1.256 . S
C36 O25 1.239 . S
C36 O29 1.256 . S
C37 O26 1.278 . S
C37 O32 1.241 . S
C38 O28 1.244 . S
C38 O33 1.256 . S
C39 O30 1.239 . S
C39 O31 1.256 . S
O40 Mn22 2.221 . S
O40 Mn24 2.290 . S
O40 C34 1.278 . S
O41 Mn24 2.251 . S
O41 C34 1.241 . S
O42 Mn43 2.163 . S
O42 C56 1.244 . S
Mn43 O42 2.163 . S
Mn43 O46 2.160 . S
Mn43 O47 2.221 . S
Mn43 O49 2.163 . S
Mn43 O51 2.160 . S
Mn43 O61 2.221 . S
O44 Mn45 2.087 . S
O44 C56 1.256 . S
Mn45 O44 2.087 . S
Mn45 O52 2.089 . S
Mn45 O61 2.290 . S
Mn45 O62 2.251 . S
O46 Mn43 2.160 . S
O46 C57 1.239 . S
O47 Mn43 2.221 . S
O47 Mn48 2.290 . S
O47 C58 1.278 . S
Mn48 O47 2.290 . S
Mn48 O50 2.089 . S
Mn48 O53 2.251 . S
Mn48 O54 2.087 . S
O49 Mn43 2.163 . S
O49 C59 1.244 . S
O50 Mn48 2.089 . S
O50 C57 1.256 . S
O51 Mn43 2.160 . S
O51 C60 1.239 . S
O52 Mn45 2.089 . S
O52 C60 1.256 . S
O53 Mn48 2.251 . S
O53 C58 1.241 . S
O54 Mn48 2.087 . S
O54 C59 1.256 . S
C55 O61 1.278 . S
C55 O62 1.241 . S
C56 O42 1.244 . S
C56 O44 1.256 . S
C57 O46 1.239 . S
C57 O50 1.256 . S
C58 O47 1.278 . S
C58 O53 1.241 . S
C59 O49 1.244 . S
C59 O54 1.256 . S
C60 O51 1.239 . S
C60 O52 1.256 . S
O61 Mn43 2.221 . S
O61 Mn45 2.290 . S
O61 C55 1.278 . S
O62 Mn45 2.251 . S
O62 C55 1.241 . S
O63 Mn64 2.163 1_554 S
O63 C77 1.244 . S
Mn64 O63 2.163 1_556 S
Mn64 O67 2.160 . S
Mn64 O68 2.221 . S
Mn64 O70 2.163 1_556 S
Mn64 O72 2.160 . S
Mn64 O82 2.221 1_556 S
O65 Mn66 2.087 . S
O65 C77 1.256 . S
Mn66 O65 2.087 . S
Mn66 O73 2.089 1_554 S
Mn66 O82 2.290 . S
Mn66 O83 2.251 . S
O67 Mn64 2.160 . S
O67 C78 1.239 . S
O68 Mn64 2.221 . S
O68 Mn69 2.290 . S
O68 C79 1.278 . S
Mn69 O68 2.290 . S
Mn69 O71 2.089 . S
Mn69 O74 2.251 . S
Mn69 O75 2.087 1_556 S
O70 Mn64 2.163 1_554 S
O70 C80 1.244 . S
O71 Mn69 2.089 . S
O71 C78 1.256 . S
O72 Mn64 2.160 . S
O72 C81 1.239 . S
O73 Mn66 2.089 1_556 S
O73 C81 1.256 . S
O74 Mn69 2.251 . S
O74 C79 1.241 . S
O75 Mn69 2.087 1_554 S
O75 C80 1.256 . S
C76 O82 1.278 . S
C76 O83 1.241 . S
C77 O63 1.244 . S
C77 O65 1.256 . S
C78 O67 1.239 . S
C78 O71 1.256 . S
C79 O68 1.278 . S
C79 O74 1.241 . S
C80 O70 1.244 . S
C80 O75 1.256 . S
C81 O72 1.239 . S
C81 O73 1.256 . S
O82 Mn64 2.221 1_554 S
O82 Mn66 2.290 . S
O82 C76 1.278 . S
O83 Mn66 2.251 . S
O83 C76 1.241 . S
O84 Mn85 2.163 . S
O84 C98 1.244 . S
Mn85 O84 2.163 . S
Mn85 O88 2.160 . S
Mn85 O89 2.221 . S
Mn85 O91 2.163 . S
Mn85 O93 2.160 . S
Mn85 O103 2.221 . S
O86 Mn87 2.087 . S
O86 C98 1.256 . S
Mn87 O86 2.087 . S
Mn87 O94 2.089 . S
Mn87 O103 2.290 . S
Mn87 O104 2.251 . S
O88 Mn85 2.160 . S
O88 C99 1.239 . S
O89 Mn85 2.221 . S
O89 Mn90 2.290 . S
O89 C100 1.278 . S
Mn90 O89 2.290 . S
Mn90 O92 2.089 . S
Mn90 O95 2.251 . S
Mn90 O96 2.087 . S
O91 Mn85 2.163 . S
O91 C101 1.244 . S
O92 Mn90 2.089 . S
O92 C99 1.256 . S
O93 Mn85 2.160 . S
O93 C102 1.239 . S
O94 Mn87 2.089 . S
O94 C102 1.256 . S
O95 Mn90 2.251 . S
O95 C100 1.241 . S
O96 Mn90 2.087 . S
O96 C101 1.256 . S
C97 O103 1.278 . S
C97 O104 1.241 . S
C98 O84 1.244 . S
C98 O86 1.256 . S
C99 O88 1.239 . S
C99 O92 1.256 . S
C100 O89 1.278 . S
C100 O95 1.241 . S
C101 O91 1.244 . S
C101 O96 1.256 . S
C102 O93 1.239 . S
C102 O94 1.256 . S
O103 Mn85 2.221 . S
O103 Mn87 2.290 . S
O103 C97 1.278 . S
O104 Mn87 2.251 . S
O104 C97 1.241 . S
O105 Mn106 2.163 . S
O105 C119 1.244 . S
Mn106 O105 2.163 . S
Mn106 O109 2.160 . S
Mn106 O110 2.221 . S
Mn106 O112 2.163 . S
Mn106 O114 2.160 . S
Mn106 O124 2.221 . S
O107 Mn108 2.087 . S
O107 C119 1.256 . S
Mn108 O107 2.087 . S
Mn108 O115 2.089 . S
Mn108 O124 2.290 . S
Mn108 O125 2.251 . S
O109 Mn106 2.160 . S
O109 C120 1.239 . S
O110 Mn106 2.221 . S
O110 Mn111 2.290 . S
O110 C121 1.278 . S
Mn111 O110 2.290 . S
Mn111 O113 2.089 . S
Mn111 O116 2.251 . S
Mn111 O117 2.087 . S
O112 Mn106 2.163 . S
O112 C122 1.244 . S
O113 Mn111 2.089 . S
O113 C120 1.256 . S
O114 Mn106 2.160 . S
O114 C123 1.239 . S
O115 Mn108 2.089 . S
O115 C123 1.256 . S
O116 Mn111 2.251 . S
O116 C121 1.241 . S
O117 Mn111 2.087 . S
O117 C122 1.256 . S
C118 O124 1.278 . S
C118 O125 1.241 . S
C119 O105 1.244 . S
C119 O107 1.256 . S
C120 O109 1.239 . S
C120 O113 1.256 . S
C121 O110 1.278 . S
C121 O116 1.241 . S
C122 O112 1.244 . S
C122 O117 1.256 . S
C123 O114 1.239 . S
C123 O115 1.256 . S
O124 Mn106 2.221 . S
O124 Mn108 2.290 . S
O124 C118 1.278 . S
O125 Mn108 2.251 . S
O125 C118 1.241 . S
H126 C134 0.950 . S
H127 C139 0.950 . S
H128 C136 0.950 . S
H129 C138 0.950 . S
H130 C140 0.950 . S
H131 C142 0.950 . S
H132 C144 0.950 . S
H133 C145 0.950 . S
C134 H126 0.950 . S
C134 C135 1.386 . S
C134 C136 1.391 . S
C135 C134 1.386 . S
C135 C139 1.393 . S
C136 H128 0.950 . S
C136 C134 1.391 . S
C136 C137 1.400 . S
C137 C136 1.400 . S
C137 C138 1.398 . S
C137 C143 1.491 . S
C138 H129 0.950 . S
C138 C137 1.398 . S
C138 C139 1.391 . S
C139 H127 0.950 . S
C139 C135 1.393 . S
C139 C138 1.391 . S
C140 H130 0.950 . S
C140 C141 1.386 . S
C140 C142 1.391 . S
C141 C140 1.386 . S
C141 C145 1.393 . S
C142 H131 0.950 . S
C142 C140 1.391 . S
C142 C143 1.400 . S
C143 C137 1.491 . S
C143 C142 1.400 . S
C143 C144 1.398 . S
C144 H132 0.950 . S
C144 C143 1.398 . S
C144 C145 1.391 . S
C145 H133 0.950 . S
C145 C141 1.393 . S
C145 C144 1.391 . S
H146 C154 0.950 . S
H147 C159 0.950 . S
H148 C156 0.950 . S
H149 C158 0.950 . S
H150 C160 0.950 . S
H151 C162 0.950 . S
H152 C164 0.950 . S
H153 C165 0.950 . S
C154 H146 0.950 . S
C154 C155 1.386 . S
C154 C156 1.391 . S
C155 C154 1.386 . S
C155 C159 1.393 . S
C156 H148 0.950 . S
C156 C154 1.391 . S
C156 C157 1.400 . S
C157 C156 1.400 . S
C157 C158 1.398 . S
C157 C163 1.491 . S
C158 H149 0.950 . S
C158 C157 1.398 . S
C158 C159 1.391 . S
C159 H147 0.950 . S
C159 C155 1.393 . S
C159 C158 1.391 . S
C160 H150 0.950 . S
C160 C161 1.386 . S
C160 C162 1.391 . S
C161 C160 1.386 . S
C161 C165 1.393 . S
C162 H151 0.950 . S
C162 C160 1.391 . S
C162 C163 1.400 . S
C163 C157 1.491 . S
C163 C162 1.400 . S
C163 C164 1.398 . S
C164 H152 0.950 . S
C164 C163 1.398 . S
C164 C165 1.391 . S
C165 H153 0.950 . S
C165 C161 1.393 . S
C165 C164 1.391 . S
H166 C174 0.950 . S
H167 C179 0.950 . S
H168 C176 0.950 . S
H169 C178 0.950 . S
H170 C180 0.950 . S
H171 C182 0.950 . S
H172 C184 0.950 . S
H173 C185 0.950 . S
C174 H166 0.950 . S
C174 C175 1.386 . S
C174 C176 1.391 . S
C175 C174 1.386 . S
C175 C179 1.393 . S
C176 H168 0.950 . S
C176 C174 1.391 . S
C176 C177 1.400 . S
C177 C176 1.400 . S
C177 C178 1.398 . S
C177 C183 1.491 . S
C178 H169 0.950 . S
C178 C177 1.398 . S
C178 C179 1.391 . S
C179 H167 0.950 . S
C179 C175 1.393 . S
C179 C178 1.391 . S
C180 H170 0.950 . S
C180 C181 1.386 . S
C180 C182 1.391 . S
C181 C180 1.386 . S
C181 C185 1.393 . S
C182 H171 0.950 . S
C182 C180 1.391 . S
C182 C183 1.400 . S
C183 C177 1.491 . S
C183 C182 1.400 . S
C183 C184 1.398 . S
C184 H172 0.950 . S
C184 C183 1.398 . S
C184 C185 1.391 . S
C185 H173 0.950 . S
C185 C181 1.393 . S
C185 C184 1.391 . S
H186 C194 0.950 . S
H187 C199 0.950 . S
H188 C196 0.950 . S
H189 C198 0.950 . S
H190 C200 0.950 . S
H191 C202 0.950 . S
H192 C204 0.950 . S
H193 C205 0.950 . S
C194 H186 0.950 . S
C194 C195 1.386 . S
C194 C196 1.391 . S
C195 C194 1.386 . S
C195 C199 1.393 . S
C196 H188 0.950 . S
C196 C194 1.391 . S
C196 C197 1.400 . S
C197 C196 1.400 . S
C197 C198 1.398 . S
C197 C203 1.491 . S
C198 H189 0.950 . S
C198 C197 1.398 . S
C198 C199 1.391 . S
C199 H187 0.950 . S
C199 C195 1.393 . S
C199 C198 1.391 . S
C200 H190 0.950 . S
C200 C201 1.386 . S
C200 C202 1.391 . S
C201 C200 1.386 . S
C201 C205 1.393 . S
C202 H191 0.950 . S
C202 C200 1.391 . S
C202 C203 1.400 . S
C203 C197 1.491 . S
C203 C202 1.400 . S
C203 C204 1.398 . S
C204 H192 0.950 . S
C204 C203 1.398 . S
C204 C205 1.391 . S
C205 H193 0.950 . S
C205 C201 1.393 . S
C205 C204 1.391 . S
H206 C214 0.950 . S
H207 C219 0.950 . S
H208 C216 0.950 . S
H209 C218 0.950 . S
H210 C220 0.950 . S
H211 C222 0.950 . S
H212 C224 0.950 . S
H213 C225 0.950 . S
C214 H206 0.950 . S
C214 C215 1.386 . S
C214 C216 1.391 . S
C215 C214 1.386 . S
C215 C219 1.393 . S
C216 H208 0.950 . S
C216 C214 1.391 . S
C216 C217 1.400 . S
C217 C216 1.400 . S
C217 C218 1.398 . S
C217 C223 1.491 . S
C218 H209 0.950 . S
C218 C217 1.398 . S
C218 C219 1.391 . S
C219 H207 0.950 . S
C219 C215 1.393 . S
C219 C218 1.391 . S
C220 H210 0.950 . S
C220 C221 1.386 . S
C220 C222 1.391 . S
C221 C220 1.386 . S
C221 C225 1.393 . S
C222 H211 0.950 . S
C222 C220 1.391 . S
C222 C223 1.400 . S
C223 C217 1.491 . S
C223 C222 1.400 . S
C223 C224 1.398 . S
C224 H212 0.950 . S
C224 C223 1.398 . S
C224 C225 1.391 . S
C225 H213 0.950 . S
C225 C221 1.393 . S
C225 C224 1.391 . S
H226 C234 0.950 . S
H227 C239 0.950 . S
H228 C236 0.950 . S
H229 C238 0.950 . S
H230 C240 0.950 . S
H231 C242 0.950 . S
H232 C244 0.950 . S
H233 C245 0.950 . S
C234 H226 0.950 . S
C234 C235 1.386 . S
C234 C236 1.391 . S
C235 C234 1.386 . S
C235 C239 1.393 . S
C236 H228 0.950 . S
C236 C234 1.391 . S
C236 C237 1.400 . S
C237 C236 1.400 . S
C237 C238 1.398 . S
C237 C243 1.491 . S
C238 H229 0.950 . S
C238 C237 1.398 . S
C238 C239 1.391 . S
C239 H227 0.950 . S
C239 C235 1.393 . S
C239 C238 1.391 . S
C240 H230 0.950 . S
C240 C241 1.386 . S
C240 C242 1.391 . S
C241 C240 1.386 . S
C241 C245 1.393 . S
C242 H231 0.950 . S
C242 C240 1.391 . S
C242 C243 1.400 . S
C243 C237 1.491 . S
C243 C242 1.400 . S
C243 C244 1.398 . S
C244 H232 0.950 . S
C244 C243 1.398 . S
C244 C245 1.391 . S
C245 H233 0.950 . S
C245 C241 1.393 . S
C245 C244 1.391 . S
H246 C254 0.950 . S
H247 C259 0.943 1_556 S
H248 C256 0.950 . S
H249 C258 0.938 1_556 S
H250 C260 0.950 . S
H251 C262 0.950 . S
H252 C264 0.950 . S
H253 C265 0.950 . S
C254 H246 0.950 . S
C254 C255 1.386 . S
C254 C256 1.391 . S
C255 C254 1.386 . S
C255 C259 1.399 . S
C256 H248 0.950 . S
C256 C254 1.391 . S
C256 C257 1.400 . S
C257 C256 1.400 . S
C257 C258 1.411 . S
C257 C263 1.491 . S
C258 H249 0.938 1_554 S
C258 C257 1.411 . S
C258 C259 1.391 . S
C259 H247 0.943 1_554 S
C259 C255 1.399 . S
C259 C258 1.391 . S
C260 H250 0.950 . S
C260 C261 1.386 1_556 S
C260 C262 1.391 . S
C261 C260 1.386 1_554 S
C261 C265 1.393 . S
C262 H251 0.950 . S
C262 C260 1.391 . S
C262 C263 1.400 1_556 S
C263 C257 1.491 . S
C263 C262 1.400 1_554 S
C263 C264 1.398 . S
C264 H252 0.950 . S
C264 C263 1.398 . S
C264 C265 1.391 . S
C265 H253 0.950 . S
C265 C261 1.393 . S
C265 C264 1.391 . S
H266 C274 0.933 1_655 S
H267 C279 0.950 . S
H268 C276 0.950 . S
H269 C278 0.950 . S
H270 C280 0.933 1_455 S
H271 C282 0.950 . S
H272 C284 0.950 . S
H273 C285 0.950 . S
C274 H266 0.933 1_455 S
C274 C275 1.386 . S
C274 C276 1.391 1_455 S
C275 C274 1.386 . S
C275 C279 1.393 . S
C276 H268 0.950 . S
C276 C274 1.391 1_655 S
C276 C277 1.400 1_655 S
C277 C276 1.400 1_455 S
C277 C278 1.398 . S
C277 C283 1.491 1_455 S
C278 H269 0.950 . S
C278 C277 1.398 . S
C278 C279 1.391 . S
C279 H267 0.950 . S
C279 C275 1.393 . S
C279 C278 1.391 . S
C280 H270 0.933 1_655 S
C280 C281 1.386 . S
C280 C282 1.391 1_655 S
C281 C280 1.386 . S
C281 C285 1.393 . S
C282 H271 0.950 . S
C282 C280 1.391 1_455 S
C282 C283 1.400 1_455 S
C283 C277 1.491 1_655 S
C283 C282 1.400 1_655 S
C283 C284 1.398 . S
C284 H272 0.950 . S
C284 C283 1.398 . S
C284 C285 1.391 . S
C285 H273 0.950 . S
C285 C281 1.393 . S
C285 C284 1.391 . S
H286 C294 0.950 . S
H287 C299 0.950 . S
H288 C296 0.950 . S
H289 C298 0.950 1_565 S
H290 C300 0.950 . S
H291 C302 0.950 . S
H292 C304 0.950 1_545 S
H293 C305 0.950 . S
C294 H286 0.950 . S
C294 C295 1.386 . S
C294 C296 1.391 . S
C295 C294 1.386 . S
C295 C299 1.393 . S
C296 H288 0.950 . S
C296 C294 1.391 . S
C296 C297 1.400 . S
C297 C296 1.400 . S
C297 C298 1.398 . S
C297 C303 1.491 1_545 S
C298 H289 0.950 1_545 S
C298 C297 1.398 . S
C298 C299 1.391 . S
C299 H287 0.950 . S
C299 C295 1.393 . S
C299 C298 1.391 . S
C300 H290 0.950 . S
C300 C301 1.386 . S
C300 C302 1.391 . S
C301 C300 1.386 . S
C301 C305 1.393 . S
C302 H291 0.950 . S
C302 C300 1.391 . S
C302 C303 1.400 . S
C303 C297 1.491 1_565 S
C303 C302 1.400 . S
C303 C304 1.398 . S
C304 H292 0.950 1_565 S
C304 C303 1.398 . S
C304 C305 1.391 . S
C305 H293 0.950 . S
C305 C301 1.393 . S
C305 C304 1.391 . S
H306 C314 0.950 . S
H307 C319 0.950 . S
H308 C316 0.950 . S
H309 C318 0.950 . S
H310 C320 0.950 . S
H311 C322 0.950 . S
H312 C324 0.950 . S
H313 C325 0.950 . S
C314 H306 0.950 . S
C314 C315 1.386 . S
C314 C316 1.391 . S
C315 C314 1.386 . S
C315 C319 1.393 . S
C316 H308 0.950 . S
C316 C314 1.391 . S
C316 C317 1.400 . S
C317 C316 1.400 . S
C317 C318 1.398 . S
C317 C323 1.491 . S
C318 H309 0.950 . S
C318 C317 1.398 . S
C318 C319 1.391 . S
C319 H307 0.950 . S
C319 C315 1.393 . S
C319 C318 1.391 . S
C320 H310 0.950 . S
C320 C321 1.386 . S
C320 C322 1.391 . S
C321 C320 1.386 . S
C321 C325 1.393 . S
C322 H311 0.950 . S
C322 C320 1.391 . S
C322 C323 1.400 . S
C323 C317 1.491 . S
C323 C322 1.400 . S
C323 C324 1.398 . S
C324 H312 0.950 . S
C324 C323 1.398 . S
C324 C325 1.391 . S
C325 H313 0.950 . S
C325 C321 1.393 . S
C325 C324 1.391 . S
H326 C334 0.950 . S
H327 C339 0.950 1_655 S
H328 C336 0.950 . S
H329 C338 0.950 . S
H330 C340 0.950 . S
H331 C342 0.950 . S
H332 C344 0.950 . S
H333 C345 0.950 1_455 S
C334 H326 0.950 . S
C334 C335 1.386 . S
C334 C336 1.391 . S
C335 C334 1.386 . S
C335 C339 1.393 . S
C336 H328 0.950 . S
C336 C334 1.391 . S
C336 C337 1.400 . S
C337 C336 1.400 . S
C337 C338 1.398 1_455 S
C337 C343 1.491 1_455 S
C338 H329 0.950 . S
C338 C337 1.398 1_655 S
C338 C339 1.391 1_655 S
C339 H327 0.950 1_455 S
C339 C335 1.393 . S
C339 C338 1.391 1_455 S
C340 H330 0.950 . S
C340 C341 1.386 . S
C340 C342 1.391 . S
C341 C340 1.386 . S
C341 C345 1.393 . S
C342 H331 0.950 . S
C342 C340 1.391 . S
C342 C343 1.400 . S
C343 C337 1.491 1_655 S
C343 C342 1.400 . S
C343 C344 1.398 1_655 S
C344 H332 0.950 . S
C344 C343 1.398 1_455 S
C344 C345 1.391 1_455 S
C345 H333 0.950 1_655 S
C345 C341 1.393 . S
C345 C344 1.391 1_655 S
H346 C354 0.950 . S
H347 C359 0.950 . S
H348 C356 0.950 . S
H349 C358 0.950 1_545 S
H350 C360 0.950 . S
H351 C362 0.950 . S
H352 C364 0.950 1_565 S
H353 C365 0.950 . S
C354 H346 0.950 . S
C354 C355 1.386 . S
C354 C356 1.391 . S
C355 C354 1.386 . S
C355 C359 1.393 . S
C356 H348 0.950 . S
C356 C354 1.391 . S
C356 C357 1.400 . S
C357 C356 1.400 . S
C357 C358 1.398 . S
C357 C363 1.491 1_565 S
C358 H349 0.950 1_565 S
C358 C357 1.398 . S
C358 C359 1.391 . S
C359 H347 0.950 . S
C359 C355 1.393 . S
C359 C358 1.391 . S
C360 H350 0.950 . S
C360 C361 1.386 . S
C360 C362 1.391 . S
C361 C360 1.386 . S
C361 C365 1.393 . S
C362 H351 0.950 . S
C362 C360 1.391 . S
C362 C363 1.400 . S
C363 C357 1.491 1_545 S
C363 C362 1.400 . S
C363 C364 1.398 . S
C364 H352 0.950 1_545 S
C364 C363 1.398 . S
C364 C365 1.391 . S
C365 H353 0.950 . S
C365 C361 1.393 . S
C365 C364 1.391 . S
H366 C374 0.950 . S
H367 C379 0.950 . S
H368 C376 0.950 . S
H369 C378 0.950 . S
H370 C380 0.950 . S
H371 C382 0.950 . S
H372 C384 0.950 . S
H373 C385 0.950 . S
C374 H366 0.950 . S
C374 C375 1.386 . S
C374 C376 1.391 . S
C375 C374 1.386 . S
C375 C379 1.393 . S
C376 H368 0.950 . S
C376 C374 1.391 . S
C376 C377 1.400 . S
C377 C376 1.400 . S
C377 C378 1.398 . S
C377 C383 1.491 . S
C378 H369 0.950 . S
C378 C377 1.398 . S
C378 C379 1.391 . S
C379 H367 0.950 . S
C379 C375 1.393 . S
C379 C378 1.391 . S
C380 H370 0.950 . S
C380 C381 1.386 . S
C380 C382 1.391 . S
C381 C380 1.386 . S
C381 C385 1.393 . S
C382 H371 0.950 . S
C382 C380 1.391 . S
C382 C383 1.400 . S
C383 C377 1.491 . S
C383 C382 1.400 . S
C383 C384 1.398 . S
C384 H372 0.950 . S
C384 C383 1.398 . S
C384 C385 1.391 . S
C385 H373 0.950 . S
C385 C381 1.393 . S
C385 C384 1.391 . S
H386 C394 0.950 . S
H387 C399 0.950 . S
H388 C396 0.950 1_455 S
H389 C398 0.950 . S
H390 C400 0.950 . S
H391 C402 0.950 1_655 S
H392 C404 0.950 . S
H393 C405 0.950 . S
C394 H386 0.950 . S
C394 C395 1.386 . S
C394 C396 1.391 . S
C395 C394 1.386 . S
C395 C399 1.393 . S
C396 H388 0.950 1_655 S
C396 C394 1.391 . S
C396 C397 1.400 . S
C397 C396 1.400 . S
C397 C398 1.398 . S
C397 C403 1.491 1_655 S
C398 H389 0.950 . S
C398 C397 1.398 . S
C398 C399 1.391 . S
C399 H387 0.950 . S
C399 C395 1.393 . S
C399 C398 1.391 . S
C400 H390 0.950 . S
C400 C401 1.386 . S
C400 C402 1.391 . S
C401 C400 1.386 . S
C401 C405 1.393 . S
C402 H391 0.950 1_455 S
C402 C400 1.391 . S
C402 C403 1.400 . S
C403 C397 1.491 1_455 S
C403 C402 1.400 . S
C403 C404 1.398 . S
C404 H392 0.950 . S
C404 C403 1.398 . S
C404 C405 1.391 . S
C405 H393 0.950 . S
C405 C401 1.393 . S
C405 C404 1.391 . S
H406 C414 0.950 . S
H407 C419 0.950 . S
H408 C416 0.950 1_545 S
H409 C418 0.950 . S
H410 C420 0.950 . S
H411 C422 0.950 1_565 S
H412 C424 0.950 . S
H413 C425 0.950 . S
C414 H406 0.950 . S
C414 C415 1.386 . S
C414 C416 1.391 . S
C415 C414 1.386 . S
C415 C419 1.393 . S
C416 H408 0.950 1_565 S
C416 C414 1.391 . S
C416 C417 1.400 . S
C417 C416 1.400 . S
C417 C418 1.398 . S
C417 C423 1.491 1_565 S
C418 H409 0.950 . S
C418 C417 1.398 . S
C418 C419 1.391 . S
C419 H407 0.950 . S
C419 C415 1.393 . S
C419 C418 1.391 . S
C420 H410 0.950 . S
C420 C421 1.386 . S
C420 C422 1.391 . S
C421 C420 1.386 . S
C421 C425 1.393 . S
C422 H411 0.950 1_545 S
C422 C420 1.391 . S
C422 C423 1.400 . S
C423 C417 1.491 1_545 S
C423 C422 1.400 . S
C423 C424 1.398 . S
C424 H412 0.950 . S
C424 C423 1.398 . S
C424 C425 1.391 . S
C425 H413 0.950 . S
C425 C421 1.393 . S
C425 C424 1.391 . S
H426 C434 0.950 . S
H427 C439 0.950 . S
H428 C436 0.950 . S
H429 C438 0.950 . S
H430 C440 0.950 . S
H431 C442 0.950 . S
H432 C444 0.950 . S
H433 C445 0.950 . S
C434 H426 0.950 . S
C434 C435 1.386 . S
C434 C436 1.391 . S
C435 C434 1.386 . S
C435 C439 1.393 . S
C436 H428 0.950 . S
C436 C434 1.391 . S
C436 C437 1.400 . S
C437 C436 1.400 . S
C437 C438 1.398 . S
C437 C443 1.491 . S
C438 H429 0.950 . S
C438 C437 1.398 . S
C438 C439 1.391 . S
C439 H427 0.950 . S
C439 C435 1.393 . S
C439 C438 1.391 . S
C440 H430 0.950 . S
C440 C441 1.386 . S
C440 C442 1.391 . S
C441 C440 1.386 . S
C441 C445 1.393 . S
C442 H431 0.950 . S
C442 C440 1.391 . S
C442 C443 1.400 . S
C443 C437 1.491 . S
C443 C442 1.400 . S
C443 C444 1.398 . S
C444 H432 0.950 . S
C444 C443 1.398 . S
C444 C445 1.391 . S
C445 H433 0.950 . S
C445 C441 1.393 . S
C445 C444 1.391 . S
H446 C454 0.950 . S
H447 C459 0.950 . S
H448 C456 0.950 . S
H449 C458 0.950 1_655 S
H450 C460 0.950 . S
H451 C462 0.950 . S
H452 C464 0.950 1_455 S
H453 C465 0.950 . S
C454 H446 0.950 . S
C454 C455 1.386 . S
C454 C456 1.391 . S
C455 C454 1.386 . S
C455 C459 1.393 . S
C456 H448 0.950 . S
C456 C454 1.391 . S
C456 C457 1.400 . S
C457 C456 1.400 . S
C457 C458 1.398 . S
C457 C463 1.491 1_455 S
C458 H449 0.950 1_455 S
C458 C457 1.398 . S
C458 C459 1.391 . S
C459 H447 0.950 . S
C459 C455 1.393 . S
C459 C458 1.391 . S
C460 H450 0.950 . S
C460 C461 1.386 . S
C460 C462 1.391 . S
C461 C460 1.386 . S
C461 C465 1.393 . S
C462 H451 0.950 . S
C462 C460 1.391 . S
C462 C463 1.400 . S
C463 C457 1.491 1_655 S
C463 C462 1.400 . S
C463 C464 1.398 . S
C464 H452 0.950 1_655 S
C464 C463 1.398 . S
C464 C465 1.391 . S
C465 H453 0.950 . S
C465 C461 1.393 . S
C465 C464 1.391 . S
H466 C474 0.950 . S
H467 C479 0.950 . S
H468 C476 0.950 . S
H469 C478 0.950 1_565 S
H470 C480 0.950 . S
H471 C482 0.950 . S
H472 C484 0.950 1_545 S
H473 C485 0.950 . S
C474 H466 0.950 . S
C474 C475 1.386 . S
C474 C476 1.391 . S
C475 C474 1.386 . S
C475 C479 1.393 . S
C476 H468 0.950 . S
C476 C474 1.391 . S
C476 C477 1.400 . S
C477 C476 1.400 . S
C477 C478 1.398 . S
C477 C483 1.491 1_545 S
C478 H469 0.950 1_545 S
C478 C477 1.398 . S
C478 C479 1.391 . S
C479 H467 0.950 . S
C479 C475 1.393 . S
C479 C478 1.391 . S
C480 H470 0.950 . S
C480 C481 1.386 . S
C480 C482 1.391 . S
C481 C480 1.386 . S
C481 C485 1.393 . S
C482 H471 0.950 . S
C482 C480 1.391 . S
C482 C483 1.400 . S
C483 C477 1.491 1_565 S
C483 C482 1.400 . S
C483 C484 1.398 . S
C484 H472 0.950 1_565 S
C484 C483 1.398 . S
C484 C485 1.391 . S
C485 H473 0.950 . S
C485 C481 1.393 . S
C485 C484 1.391 . S
C135 C102 0.895 . S
C141 C13 0.887 . S
C155 C123 0.899 . S
C161 C34 0.890 . S
C175 C18 0.893 . S
C181 C55 0.886 . S
C195 C39 0.880 . S
C201 C76 0.860 . S
C215 C60 0.905 . S
C221 C97 0.827 . S
C235 C81 0.889 . S
C241 C118 0.821 . S
C255 C14 1.061 . S
C261 C77 1.064 . S
C275 C98 1.033 . S
C281 C35 1.029 . S
C295 C119 1.072 . S
C301 C56 1.072 . S
C315 C57 1.128 . S
C321 C120 1.129 . S
C335 C15 1.130 . S
C341 C78 1.123 . S
C355 C99 1.129 . S
C361 C36 1.128 . S
C375 C122 1.115 . S
C381 C16 1.070 . S
C395 C37 1.062 . S
C401 C17 1.104 . S
C415 C58 1.068 . S
C421 C38 1.113 . S
C435 C59 1.089 . S
C441 C79 1.083 . S
C455 C100 1.100 . S
C461 C80 1.103 . S
C475 C121 1.100 . S
C481 C101 1.105 . S
