# Generated by pormake.
# Topology wme, (6)-cn, num edge types: 1
# Building blocks:
#     Node 0, Type 0, BuildingBlock: JUFBIX_clean_sbu_0, # of connection points: 6
#     Node 1, Type 0, BuildingBlock: JUFBIX_clean_sbu_0, # of connection points: 6
#     Node 2, Type 0, BuildingBlock: JUFBIX_clean_sbu_0, # of connection points: 6
#     Node 3, Type 0, BuildingBlock: JUFBIX_clean_sbu_0, # of connection points: 6
#     Node 4, Type 0, BuildingBlock: JUFBIX_clean_sbu_0, # of connection points: 6
#     Node 5, Type 0, BuildingBlock: JUFBIX_clean_sbu_0, # of connection points: 6
#     Node 6, Type 0, BuildingBlock: JUFBIX_clean_sbu_0, # of connection points: 6
#     Node 7, Type 0, BuildingBlock: JUFBIX_clean_sbu_0, # of connection points: 6
#     Node 8, Type 0, BuildingBlock: JUFBIX_clean_sbu_0, # of connection points: 6
#     Node 9, Type 0, BuildingBlock: JUFBIX_clean_sbu_0, # of connection points: 6
#     Node 10, Type 0, BuildingBlock: JUFBIX_clean_sbu_0, # of connection points: 6
#     Node 11, Type 0, BuildingBlock: JUFBIX_clean_sbu_0, # of connection points: 6
#     Edge 12, Type (0, 0), BuildingBlock: XUDNAN_clean_linker_2, # of connection points: 2
#     Edge 13, Type (0, 0), BuildingBlock: XUDNAN_clean_linker_2, # of connection points: 2
#     Edge 14, Type (0, 0), BuildingBlock: XUDNAN_clean_linker_2, # of connection points: 2
#     Edge 15, Type (0, 0), BuildingBlock: XUDNAN_clean_linker_2, # of connection points: 2
#     Edge 16, Type (0, 0), BuildingBlock: XUDNAN_clean_linker_2, # of connection points: 2
#     Edge 17, Type (0, 0), BuildingBlock: XUDNAN_clean_linker_2, # of connection points: 2
#     Edge 18, Type (0, 0), BuildingBlock: XUDNAN_clean_linker_2, # of connection points: 2
#     Edge 19, Type (0, 0), BuildingBlock: XUDNAN_clean_linker_2, # of connection points: 2
#     Edge 20, Type (0, 0), BuildingBlock: XUDNAN_clean_linker_2, # of connection points: 2
#     Edge 21, Type (0, 0), BuildingBlock: XUDNAN_clean_linker_2, # of connection points: 2
#     Edge 22, Type (0, 0), BuildingBlock: XUDNAN_clean_linker_2, # of connection points: 2
#     Edge 23, Type (0, 0), BuildingBlock: XUDNAN_clean_linker_2, # of connection points: 2
#     Edge 24, Type (0, 0), BuildingBlock: XUDNAN_clean_linker_2, # of connection points: 2
#     Edge 25, Type (0, 0), BuildingBlock: XUDNAN_clean_linker_2, # of connection points: 2
#     Edge 26, Type (0, 0), BuildingBlock: XUDNAN_clean_linker_2, # of connection points: 2
#     Edge 27, Type (0, 0), BuildingBlock: XUDNAN_clean_linker_2, # of connection points: 2
#     Edge 28, Type (0, 0), BuildingBlock: XUDNAN_clean_linker_2, # of connection points: 2
#     Edge 29, Type (0, 0), BuildingBlock: XUDNAN_clean_linker_2, # of connection points: 2
#     Edge 30, Type (0, 0), BuildingBlock: XUDNAN_clean_linker_2, # of connection points: 2
#     Edge 31, Type (0, 0), BuildingBlock: XUDNAN_clean_linker_2, # of connection points: 2
#     Edge 32, Type (0, 0), BuildingBlock: XUDNAN_clean_linker_2, # of connection points: 2
#     Edge 33, Type (0, 0), BuildingBlock: XUDNAN_clean_linker_2, # of connection points: 2
#     Edge 34, Type (0, 0), BuildingBlock: XUDNAN_clean_linker_2, # of connection points: 2
#     Edge 35, Type (0, 0), BuildingBlock: XUDNAN_clean_linker_2, # of connection points: 2
#     Edge 36, Type (0, 0), BuildingBlock: XUDNAN_clean_linker_2, # of connection points: 2
#     Edge 37, Type (0, 0), BuildingBlock: XUDNAN_clean_linker_2, # of connection points: 2
#     Edge 38, Type (0, 0), BuildingBlock: XUDNAN_clean_linker_2, # of connection points: 2
#     Edge 39, Type (0, 0), BuildingBlock: XUDNAN_clean_linker_2, # of connection points: 2
#     Edge 40, Type (0, 0), BuildingBlock: XUDNAN_clean_linker_2, # of connection points: 2
#     Edge 41, Type (0, 0), BuildingBlock: XUDNAN_clean_linker_2, # of connection points: 2
#     Edge 42, Type (0, 0), BuildingBlock: XUDNAN_clean_linker_2, # of connection points: 2
#     Edge 43, Type (0, 0), BuildingBlock: XUDNAN_clean_linker_2, # of connection points: 2
#     Edge 44, Type (0, 0), BuildingBlock: XUDNAN_clean_linker_2, # of connection points: 2
#     Edge 45, Type (0, 0), BuildingBlock: XUDNAN_clean_linker_2, # of connection points: 2
#     Edge 46, Type (0, 0), BuildingBlock: XUDNAN_clean_linker_2, # of connection points: 2
#     Edge 47, Type (0, 0), BuildingBlock: XUDNAN_clean_linker_2, # of connection points: 2
# Relax obj value: 0.307
# Max RMSD: 0.231
# Mean RMSD: 0.231
data_MOF--net-wme--node1-JUFBIX_clean_sbu_0--edge1-XUDNAN_clean_linker_2
_symmetry_space_group_name_H-M    P1
_symmetry_Int_Tables_number       1
_symmetry_cell_setting            triclinic
loop_
_symmetry_equiv_pos_as_xyz
'x, y, z'
_cell_length_a     33.118935
_cell_length_b     33.129239
_cell_length_c     55.037817
_cell_angle_alpha  90.040029
_cell_angle_beta   90.056582
_cell_angle_gamma 120.16649
loop_
_atom_site_label
_atom_site_type_symbol
_atom_site_fract_x
_atom_site_fract_y
_atom_site_fract_z
_atom_type_partial_charge
Co0 Co 0.21372 0.34898 0.1285 0.0
C1 C 0.23178 0.29749 0.09442 0.0
Co2 Co 0.24179 0.30665 0.14454 0.0
C3 C 0.1703 0.4073 0.12587 0.0
C4 C 0.20493 0.40756 0.09303 0.0
N5 N 0.19353 0.38794 0.11528 0.0
N6 N 0.16737 0.43849 0.11117 0.0
C7 C 0.18891 0.43834 0.09045 0.0
H8 H 0.15788 0.4005 0.14443 0.0
H9 H 0.22541 0.4015 0.07979 0.0
C10 C 0.22273 0.35435 0.17931 0.0
N11 N 0.2614 0.26747 0.15738 0.0
C12 C 0.2451 0.22264 0.15066 0.0
C13 C 0.28813 0.2737 0.17712 0.0
N14 N 0.2601 0.20058 0.16547 0.0
C15 C 0.28683 0.23231 0.18234 0.0
C16 C 0.31151 0.39619 0.13288 0.0
O17 O 0.20969 0.36884 0.1611 0.0
O18 O 0.2393 0.32772 0.17577 0.0
O19 O 0.30543 0.35738 0.14098 0.0
O20 O 0.27614 0.39892 0.12637 0.0
O21 O 0.24364 0.2846 0.11342 0.0
H22 H 0.3051 0.30534 0.18786 0.0
H23 H 0.2198 0.20539 0.13626 0.0
O24 O 0.21817 0.32718 0.09617 0.0
O25 O 0.15105 0.29912 0.13104 0.0
O26 O 0.17829 0.25785 0.14828 0.0
C27 C 0.14369 0.26167 0.14132 0.0
H28 H 0.19377 0.45979 0.07467 0.0
H29 H 0.30238 0.22536 0.19792 0.0
Co30 Co 0.85731 0.17979 0.62921 0.0
C31 C 0.84581 0.20168 0.678 0.0
Co32 Co 0.8901 0.25466 0.63917 0.0
C33 C 0.83743 0.08223 0.6197 0.0
C34 C 0.77912 0.0891 0.63055 0.0
N35 N 0.82503 0.11459 0.62515 0.0
N36 N 0.80046 0.03808 0.62104 0.0
C37 C 0.76407 0.04276 0.62789 0.0
H38 H 0.87265 0.09073 0.6152 0.0
H39 H 0.75791 0.10308 0.63715 0.0
C40 C 0.90288 0.23416 0.59042 0.0
N41 N 0.9191 0.31898 0.64363 0.0
C42 C 0.89751 0.34403 0.64682 0.0
C43 C 0.96327 0.35076 0.63741 0.0
N44 N 0.92557 0.38958 0.64166 0.0
C45 C 0.96726 0.39411 0.63605 0.0
C46 C 0.94803 0.21837 0.64439 0.0
O47 O 0.88015 0.19103 0.59622 0.0
O48 O 0.90819 0.26465 0.60615 0.0
O49 O 0.94572 0.2553 0.64662 0.0
O50 O 0.91164 0.18007 0.63877 0.0
O51 O 0.87215 0.24415 0.67217 0.0
H52 H 0.98942 0.34237 0.63165 0.0
H53 H 0.86042 0.32856 0.65002 0.0
O54 O 0.83549 0.16993 0.66217 0.0
O55 O 0.80348 0.18103 0.61918 0.0
O56 O 0.83409 0.25325 0.63127 0.0
C57 C 0.79995 0.21695 0.62241 0.0
H58 H 0.72916 0.01436 0.63167 0.0
H59 H 0.99715 0.42561 0.62926 0.0
Co60 Co 0.66628 0.84839 0.1282 0.0
C61 C 0.712 0.91697 0.0929 0.0
Co62 Co 0.70648 0.92011 0.14334 0.0
C63 C 0.59413 0.74871 0.12528 0.0
C64 C 0.64677 0.77059 0.09782 0.0
N65 N 0.63232 0.78703 0.11629 0.0
N66 N 0.58494 0.70926 0.11328 0.0
C67 C 0.61802 0.72305 0.09603 0.0
H68 H 0.57519 0.74925 0.14118 0.0
H69 H 0.6778 0.79151 0.08711 0.0
C70 C 0.66356 0.85462 0.17921 0.0
N71 N 0.74279 0.98057 0.15512 0.0
C72 C 0.78746 0.01021 0.14851 0.0
C73 C 0.73564 1.00075 0.17467 0.0
N74 N 0.80872 0.04751 0.16333 0.0
C75 C 0.77645 0.04166 0.17998 0.0
C76 C 0.61431 0.89307 0.13189 0.0
O77 O 0.64958 0.82596 0.16139 0.0
O78 O 0.68806 0.89795 0.17498 0.0
O79 O 0.65251 0.92736 0.13981 0.0
O80 O 0.61305 0.8553 0.12592 0.0
O81 O 0.72561 0.9426 0.11166 0.0
H82 H 0.70413 0.98497 0.18549 0.0
H83 H 0.80549 0.0024 0.13451 0.0
O84 O 0.68426 0.87314 0.09527 0.0
O85 O 0.72002 0.84167 0.13076 0.0
O86 O 0.75878 0.91117 0.14716 0.0
C87 C 0.75713 0.87365 0.14051 0.0
H88 H 0.622 0.70006 0.08351 0.0
H89 H 0.78287 0.06377 0.1957 0.0
Co90 Co 0.82887 0.68805 0.62831 0.0
C91 C 0.81151 0.65955 0.67787 0.0
Co92 Co 0.756 0.64218 0.63889 0.0
C93 C 0.92648 0.76279 0.61638 0.0
C94 C 0.91739 0.69611 0.62577 0.0
N95 N 0.89326 0.71867 0.62231 0.0
N96 N 0.96949 0.7673 0.61534 0.0
C97 C 0.96348 0.72535 0.62122 0.0
H98 H 0.91959 0.7911 0.61353 0.0
H99 H 0.90304 0.66084 0.63243 0.0
C100 C 0.77165 0.67201 0.58984 0.0
N101 N 0.69196 0.60573 0.64458 0.0
C102 C 0.66345 0.56216 0.63586 0.0
C103 C 0.66354 0.61617 0.65725 0.0
N104 N 0.61866 0.54504 0.64257 0.0
C105 C 0.61836 0.57902 0.6559 0.0
C106 C 0.79076 0.73995 0.64113 0.0
O107 O 0.81442 0.69777 0.59584 0.0
O108 O 0.74319 0.64291 0.60523 0.0
O109 O 0.75454 0.69923 0.64233 0.0
O110 O 0.83061 0.74389 0.63767 0.0
O111 O 0.76874 0.64254 0.67245 0.0
H112 H 0.6748 0.64874 0.66672 0.0
H113 H 0.67496 0.54359 0.6242 0.0
O114 O 0.84213 0.67822 0.66124 0.0
O115 O 0.8259 0.63235 0.61805 0.0
O116 O 0.75929 0.58599 0.63518 0.0
C117 C 0.79487 0.59155 0.62379 0.0
H118 H 0.9911 0.71722 0.62359 0.0
H119 H 0.58776 0.57698 0.66418 0.0
Co120 Co 0.16288 0.79777 0.1265 0.0
C121 C 0.09114 0.77728 0.09389 0.0
Co122 Co 0.09364 0.7695 0.14412 0.0
C123 C 0.26429 0.84007 0.12255 0.0
C124 C 0.22786 0.80118 0.09091 0.0
N125 N 0.22112 0.81622 0.11249 0.0
N126 N 0.29737 0.83976 0.10825 0.0
C127 C 0.27445 0.81553 0.08827 0.0
H128 H 0.27098 0.85491 0.14063 0.0
H129 H 0.20034 0.779 0.0784 0.0
C130 C 0.16277 0.78989 0.17737 0.0
N131 N 0.03589 0.75181 0.15798 0.0
C132 C 0.00783 0.76851 0.15116 0.0
C133 C 0.01695 0.72832 0.17878 0.0
N134 N 0.97266 0.75698 0.16691 0.0
C135 C 0.97833 0.73204 0.18449 0.0
C136 C 0.11096 0.69963 0.13184 0.0
O137 O 0.18889 0.80271 0.15864 0.0
O138 O 0.11924 0.77322 0.17474 0.0
O139 O 0.0793 0.70578 0.1413 0.0
O140 O 0.14852 0.73487 0.1245 0.0
O141 O 0.06791 0.76602 0.11342 0.0
H142 H 0.03201 0.71234 0.18992 0.0
H143 H 0.01528 0.7921 0.13603 0.0
O144 O 0.13488 0.79222 0.09468 0.0
O145 O 0.17714 0.861 0.12884 0.0
O146 O 0.10954 0.83321 0.14724 0.0
C147 C 0.14741 0.86801 0.13981 0.0
H148 H 0.29 0.80747 0.0731 0.0
H149 H 0.95755 0.71957 0.20086 0.0
Co150 Co 0.29589 0.13949 0.6261 0.0
C151 C 0.33405 0.15789 0.67346 0.0
Co152 Co 0.35218 0.12485 0.63237 0.0
C153 C 0.23902 0.1782 0.61017 0.0
C154 C 0.20913 0.12886 0.63935 0.0
N155 N 0.24651 0.14949 0.62444 0.0
N156 N 0.19791 0.17499 0.61544 0.0
C157 C 0.17909 0.1442 0.63371 0.0
H158 H 0.26326 0.20134 0.59663 0.0
H159 H 0.20448 0.10516 0.65398 0.0
C160 C 0.31294 0.10319 0.58536 0.0
N161 N 0.40046 0.11294 0.6344 0.0
C162 C 0.44587 0.14321 0.63887 0.0
C163 C 0.39877 0.07317 0.62734 0.0
N164 N 0.47289 0.1243 0.63427 0.0
C165 C 0.44308 0.08 0.62724 0.0
C166 C 0.26621 0.0484 0.64046 0.0
O167 O 0.28523 0.11648 0.59301 0.0
O168 O 0.3461 0.10859 0.59911 0.0
O169 O 0.30908 0.06066 0.63973 0.0
O170 O 0.25454 0.07852 0.63632 0.0
O171 O 0.35795 0.14022 0.66586 0.0
H172 H 0.36779 0.04217 0.62098 0.0
H173 H 0.45888 0.17904 0.64425 0.0
O174 O 0.30611 0.16156 0.65901 0.0
O175 O 0.33713 0.20088 0.61579 0.0
O176 O 0.39532 0.19002 0.62481 0.0
C177 C 0.38076 0.21725 0.618 0.0
H178 H 0.14675 0.13512 0.64294 0.0
H179 H 0.45256 0.05508 0.62071 0.0
Co180 Co 0.69387 0.83113 0.40321 0.0
C181 C 0.65831 0.8049 0.35616 0.0
Co182 Co 0.6397 0.75747 0.39972 0.0
C183 C 0.76265 0.92756 0.39137 0.0
C184 C 0.74343 0.91725 0.42891 0.0
N185 N 0.73627 0.89417 0.40771 0.0
N186 N 0.7858 0.97055 0.4016 0.0
C187 C 0.77389 0.96386 0.42528 0.0
H188 H 0.76367 0.92058 0.37225 0.0
H189 H 0.72661 0.9015 0.44592 0.0
C190 C 0.6739 0.77842 0.4462 0.0
N191 N 0.5957 0.69449 0.39625 0.0
C192 C 0.55185 0.67158 0.40533 0.0
C193 C 0.60095 0.66123 0.38494 0.0
N194 N 0.52992 0.6256 0.40028 0.0
C195 C 0.56066 0.61872 0.38761 0.0
C196 C 0.7333 0.77871 0.39318 0.0
O197 O 0.70219 0.81818 0.43708 0.0
O198 O 0.64154 0.74819 0.43295 0.0
O199 O 0.69116 0.74523 0.39529 0.0
O200 O 0.74172 0.8204 0.39451 0.0
O201 O 0.63728 0.76548 0.36651 0.0
H202 H 0.63218 0.66727 0.37556 0.0
H203 H 0.53663 0.68787 0.41612 0.0
O204 O 0.68483 0.84103 0.3689 0.0
O205 O 0.64644 0.84315 0.41228 0.0
O206 O 0.59044 0.77212 0.40436 0.0
C207 C 0.60329 0.81372 0.41083 0.0
H208 H 0.7862 0.99061 0.43915 0.0
H209 H 0.55435 0.58536 0.38082 0.0
Co210 Co 0.8727 0.68763 0.89919 0.0
C211 C 0.86896 0.65377 0.85321 0.0
Co212 Co 0.89896 0.63802 0.89837 0.0
C213 C 0.85189 0.76186 0.88695 0.0
C214 C 0.82734 0.73068 0.92184 0.0
N215 N 0.85155 0.72985 0.90233 0.0
N216 N 0.82856 0.78228 0.89619 0.0
C217 C 0.81348 0.76278 0.91821 0.0
H218 H 0.86776 0.76904 0.86912 0.0
H219 H 0.81929 0.70853 0.93763 0.0
C220 C 0.90682 0.67452 0.94376 0.0
N221 N 0.91672 0.59341 0.89629 0.0
C222 C 0.8882 0.54904 0.88908 0.0
C223 C 0.95461 0.59378 0.90547 0.0
N224 N 0.90545 0.52083 0.89424 0.0
C225 C 0.94779 0.54917 0.90426 0.0
C226 C 0.96795 0.72737 0.89083 0.0
O227 O 0.88755 0.69455 0.93313 0.0
O228 O 0.91367 0.64561 0.93195 0.0
O229 O 0.95983 0.68572 0.89205 0.0
O230 O 0.93482 0.73622 0.89289 0.0
O231 O 0.88559 0.6317 0.86439 0.0
H232 H 0.98368 0.62364 0.91406 0.0
H233 H 0.85353 0.53703 0.88204 0.0
O234 O 0.8593 0.68079 0.86513 0.0
O235 O 0.8111 0.63889 0.90553 0.0
O236 O 0.83726 0.59025 0.90531 0.0
C237 C 0.80347 0.59758 0.90748 0.0
H238 H 0.79399 0.77121 0.93098 0.0
H239 H 0.97119 0.5383 0.91149 0.0
Co240 Co 0.18169 0.86802 0.39391 0.0
C241 C 0.22416 0.86207 0.35019 0.0
Co242 Co 0.25904 0.903 0.39371 0.0
C243 C 0.08003 0.838 0.39826 0.0
C244 C 0.09592 0.78899 0.38192 0.0
N245 N 0.11636 0.83242 0.39153 0.0
N246 N 0.03828 0.79927 0.39345 0.0
C247 C 0.04852 0.76876 0.38311 0.0
H248 H 0.08405 0.86912 0.40697 0.0
H249 H 0.11443 0.77249 0.37468 0.0
C250 C 0.21941 0.91107 0.43738 0.0
N251 N 0.32379 0.93348 0.3958 0.0
C252 C 0.35023 0.91308 0.39401 0.0
C253 C 0.35347 0.97729 0.40345 0.0
N254 N 0.39481 0.94168 0.401 0.0
C255 C 0.39711 0.98243 0.40669 0.0
C256 C 0.22208 0.95792 0.3782 0.0
O257 O 0.17976 0.88866 0.42676 0.0
O258 O 0.25609 0.91874 0.42616 0.0
O259 O 0.26012 0.95871 0.38321 0.0
O260 O 0.18301 0.92087 0.38138 0.0
O261 O 0.26222 0.88746 0.36131 0.0
H262 H 0.34342 0.00287 0.40785 0.0
H263 H 0.33622 0.87671 0.38939 0.0
O264 O 0.1858 0.84927 0.36118 0.0
O265 O 0.18064 0.81492 0.40637 0.0
O266 O 0.25619 0.84675 0.40401 0.0
C267 C 0.21678 0.81152 0.40862 0.0
H268 H 0.02332 0.73413 0.37672 0.0
H269 H 0.42751 0.01316 0.41377 0.0
Co270 Co 0.30236 0.17453 0.89215 0.0
C271 C 0.34495 0.21943 0.84827 0.0
Co272 Co 0.35248 0.24968 0.89513 0.0
C273 C 0.24978 0.07253 0.89397 0.0
C274 C 0.22388 0.10293 0.86847 0.0
N275 N 0.25651 0.11393 0.88589 0.0
N276 N 0.21437 0.03639 0.88203 0.0
C277 C 0.19784 0.05563 0.86622 0.0
H278 H 0.27126 0.06905 0.9077 0.0
H279 H 0.21999 0.12781 0.85748 0.0
C280 C 0.30797 0.20651 0.93873 0.0
N281 N 0.39806 0.31108 0.90008 0.0
C282 C 0.4439 0.3295 0.89551 0.0
C283 C 0.39474 0.34494 0.91197 0.0
N284 N 0.46962 0.37293 0.9046 0.0
C285 C 0.43884 0.38319 0.91473 0.0
C286 C 0.26515 0.23452 0.8876 0.0
O287 O 0.2874 0.16898 0.92622 0.0
O288 O 0.33896 0.24379 0.92868 0.0
O289 O 0.30668 0.26789 0.89056 0.0
O290 O 0.25768 0.19316 0.88705 0.0
O291 O 0.36528 0.25608 0.86122 0.0
H292 H 0.36276 0.3411 0.91939 0.0
H293 H 0.45846 0.31063 0.88652 0.0
O294 O 0.31712 0.18084 0.85834 0.0
O295 O 0.34694 0.15558 0.89752 0.0
O296 O 0.39806 0.23018 0.90005 0.0
C297 C 0.38894 0.18796 0.90033 0.0
H298 H 0.1687 0.03691 0.85392 0.0
H299 H 0.44781 0.41471 0.92479 0.0
Co300 Co 0.1303 0.30906 0.3983 0.0
C301 C 0.15328 0.35342 0.35288 0.0
Co302 Co 0.11141 0.36316 0.39377 0.0
C303 C 0.15389 0.23822 0.38627 0.0
C304 C 0.16366 0.2574 0.42389 0.0
N305 N 0.14831 0.26526 0.40269 0.0
N306 N 0.17256 0.21418 0.39643 0.0
C307 C 0.17843 0.22599 0.42012 0.0
H308 H 0.14587 0.23737 0.36714 0.0
H309 H 0.16522 0.27443 0.44093 0.0
C310 C 0.08624 0.32058 0.43875 0.0
N311 N 0.09516 0.40844 0.39071 0.0
C312 C 0.12525 0.4539 0.38637 0.0
C313 C 0.05569 0.40663 0.39837 0.0
N314 N 0.10726 0.48117 0.39223 0.0
C315 C 0.06303 0.45133 0.39937 0.0
C316 C 0.0426 0.27429 0.37949 0.0
O317 O 0.10128 0.29465 0.43052 0.0
O318 O 0.08968 0.35344 0.42562 0.0
O319 O 0.05038 0.31569 0.38273 0.0
O320 O 0.07377 0.26426 0.3848 0.0
O321 O 0.13286 0.37358 0.36191 0.0
H322 H 0.02524 0.37551 0.40503 0.0
H323 H 0.16091 0.46684 0.3807 0.0
O324 O 0.15778 0.32388 0.36579 0.0
O325 O 0.18776 0.35371 0.41172 0.0
O326 O 0.17293 0.40974 0.40481 0.0
C327 C 0.2009 0.39673 0.41221 0.0
H328 H 0.19235 0.21285 0.43381 0.0
H329 H 0.03898 0.46107 0.40692 0.0
Co330 Co 0.815 0.13445 0.8952 0.0
C331 C 0.77348 0.13558 0.85092 0.0
Co332 Co 0.73759 0.09398 0.89507 0.0
C333 C 0.91674 0.1665 0.90006 0.0
C334 C 0.89981 0.21543 0.8846 0.0
N335 N 0.88004 0.1715 0.89347 0.0
N336 N 0.95804 0.20609 0.89596 0.0
C337 C 0.94723 0.2366 0.88621 0.0
H338 H 0.91331 0.13509 0.90806 0.0
H339 H 0.88081 0.23153 0.8775 0.0
C340 C 0.77839 0.08934 0.93884 0.0
N341 N 0.67216 0.06366 0.8961 0.0
C342 C 0.64897 0.08518 0.88841 0.0
C343 C 0.64106 0.02835 0.91017 0.0
N344 N 0.60581 0.06674 0.89799 0.0
C345 C 0.60018 0.03021 0.91137 0.0
C346 C 0.7783 0.04258 0.88066 0.0
O347 O 0.81689 0.11471 0.9277 0.0
O348 O 0.74005 0.07892 0.92831 0.0
O349 O 0.73866 0.03853 0.88564 0.0
O350 O 0.81562 0.08188 0.88311 0.0
O351 O 0.73582 0.10806 0.86185 0.0
H352 H 0.64923 0.00622 0.92107 0.0
H353 H 0.66551 0.11748 0.87821 0.0
O354 O 0.81176 0.15257 0.86249 0.0
O355 O 0.81414 0.18666 0.90734 0.0
O356 O 0.73849 0.15052 0.90421 0.0
C357 C 0.7766 0.18744 0.90887 0.0
H358 H 0.97206 0.27171 0.88034 0.0
H359 H 0.57097 0.00979 0.92334 0.0
H360 H 0.20361 0.95116 0.11578 0.0
H361 H 0.11643 0.89244 0.17959 0.0
H362 H 0.13796 0.97148 0.19349 0.0
H363 H 0.29536 0.05457 0.14352 0.0
H364 H 0.30332 0.09232 0.11819 0.0
H365 H 0.28191 0.03112 0.11312 0.0
H366 H 0.20904 0.02319 0.09116 0.0
H367 H 0.23042 0.08446 0.09598 0.0
H368 H 0.17298 0.04176 0.10642 0.0
H369 H 0.17263 0.05659 0.20203 0.0
H370 H 0.2099 0.14287 0.20164 0.0
H371 H 0.26861 0.14723 0.13082 0.0
C372 C 0.189 0.95509 0.1326 0.0
C373 C 0.1585 0.9157 0.14666 0.0
C374 C 0.13967 0.9221 0.16847 0.0
C375 C 0.15191 0.96688 0.17661 0.0
C376 C 0.18233 0.00501 0.16252 0.0
C377 C 0.1999 0.99968 0.14073 0.0
C378 C 0.2303 0.04665 0.12864 0.0
C379 C 0.28071 0.05675 0.1257 0.0
C380 C 0.20943 0.04915 0.10409 0.0
C381 C 0.22751 0.07906 0.14721 0.0
C382 C 0.20021 0.05425 0.16679 0.0
C383 C 0.19373 0.0764 0.18671 0.0
C384 C 0.21514 0.12521 0.18645 0.0
C385 C 0.24192 0.15113 0.16627 0.0
C386 C 0.24816 0.12782 0.14641 0.0
H387 H 0.1188 0.14234 0.59168 0.0
H388 H 0.23195 0.26621 0.62387 0.0
H389 H 0.17929 0.29769 0.63086 0.0
H390 H 0.04349 0.19587 0.56967 0.0
H391 H 0.99175 0.14261 0.57845 0.0
H392 H 0.0414 0.14071 0.56639 0.0
H393 H 0.04074 0.09555 0.60495 0.0
H394 H 0.99361 0.1 0.61806 0.0
H395 H 0.04796 0.12243 0.63437 0.0
H396 H 0.1106 0.304 0.64493 0.0
H397 H 0.03359 0.29091 0.65848 0.0
H398 H 0.96587 0.15683 0.62158 0.0
C399 C 0.13289 0.17774 0.59825 0.0
C400 C 0.17885 0.20236 0.60696 0.0
C401 C 0.1968 0.2477 0.61659 0.0
C402 C 0.16689 0.26534 0.62095 0.0
C403 C 0.1197 0.23705 0.61526 0.0
C404 C 0.10302 0.1946 0.60344 0.0
C405 C 0.05036 0.16625 0.60381 0.0
C406 C 0.03054 0.161 0.57804 0.0
C407 C 0.03219 0.11829 0.61604 0.0
C408 C 0.04016 0.19774 0.61905 0.0
C409 C 0.08019 0.23892 0.62499 0.0
C410 C 0.07894 0.27229 0.63992 0.0
C411 C 0.03527 0.26421 0.6479 0.0
C412 C 0.99394 0.2226 0.64134 0.0
C413 C 0.99683 0.18868 0.62725 0.0
H414 H 0.86455 0.11028 0.12966 0.0
H415 H 0.86418 0.05273 0.20026 0.0
H416 H 0.95066 0.09969 0.20163 0.0
H417 H 0.96808 0.11654 0.10625 0.0
H418 H 0.98911 0.17185 0.09121 0.0
H419 H 0.92735 0.13366 0.09564 0.0
H420 H 0.92207 0.19973 0.11796 0.0
H421 H 0.98372 0.23828 0.11336 0.0
H422 H 0.95973 0.22832 0.1436 0.0
H423 H 0.03673 0.14824 0.19386 0.0
H424 H 0.11699 0.20451 0.18063 0.0
H425 H 0.06202 0.2369 0.11664 0.0
C426 C 0.88297 0.10824 0.14544 0.0
C427 C 0.85825 0.07836 0.16495 0.0
C428 C 0.88291 0.07601 0.18536 0.0
C429 C 0.93184 0.10221 0.18617 0.0
C430 C 0.9554 0.13113 0.16655 0.0
C431 C 0.93183 0.13513 0.14679 0.0
C432 C 0.96561 0.17015 0.12856 0.0
C433 C 0.96233 0.14663 0.10396 0.0
C434 C 0.95729 0.21158 0.12571 0.0
C435 C 0.01184 0.18484 0.14105 0.0
C436 C 0.00509 0.16123 0.16273 0.0
C437 C 0.04245 0.16733 0.17706 0.0
C438 C 0.0879 0.19911 0.16931 0.0
C439 C 0.09564 0.2251 0.14767 0.0
C440 C 0.05704 0.21768 0.13334 0.0
H441 H 0.85529 0.83354 0.64963 0.0
H442 H 0.71366 0.73975 0.62471 0.0
H443 H 0.70583 0.80705 0.61309 0.0
H444 H 0.82853 0.91886 0.67599 0.0
H445 H 0.88402 0.96854 0.66783 0.0
H446 H 0.87958 0.91292 0.67353 0.0
H447 H 0.91486 0.91637 0.6311 0.0
H448 H 0.91848 0.97158 0.62508 0.0
H449 H 0.88717 0.92329 0.60447 0.0
H450 H 0.71367 0.88222 0.60185 0.0
H451 H 0.72983 0.96309 0.59976 0.0
H452 H 0.86357 0.01165 0.6351 0.0
C453 C 0.82249 0.82735 0.64203 0.0
C454 C 0.785 0.78125 0.63816 0.0
C455 C 0.74264 0.77455 0.62815 0.0
C456 C 0.73803 0.81261 0.62117 0.0
C457 C 0.77577 0.85739 0.62468 0.0
C458 C 0.81674 0.86525 0.6355 0.0
C459 C 0.85043 0.91743 0.63857 0.0
C460 C 0.86126 0.93019 0.66559 0.0
C461 C 0.8954 0.93308 0.62393 0.0
C462 C 0.82172 0.93736 0.62784 0.0
C463 C 0.7793 0.90176 0.61943 0.0
C464 C 0.74647 0.9104 0.60864 0.0
C465 C 0.75602 0.95647 0.6075 0.0
C466 C 0.79761 0.99356 0.61751 0.0
C467 C 0.83169 0.98406 0.62713 0.0
H468 H 0.90752 0.74541 0.13366 0.0
H469 H 0.97263 0.81487 0.20112 0.0
H470 H 0.92724 0.85588 0.20051 0.0
H471 H 0.90041 0.83928 0.10554 0.0
H472 H 0.84352 0.80254 0.09237 0.0
H473 H 0.88181 0.77956 0.09777 0.0
H474 H 0.81784 0.71258 0.12358 0.0
H475 H 0.7792 0.73507 0.11802 0.0
H476 H 0.79218 0.72651 0.14876 0.0
H477 H 0.87816 0.89227 0.19118 0.0
H478 H 0.81974 0.91285 0.1775 0.0
H479 H 0.78077 0.81432 0.11788 0.0
C480 C 0.91167 0.76901 0.14832 0.0
C481 C 0.94317 0.77717 0.16751 0.0
C482 C 0.94815 0.80811 0.18648 0.0
C483 C 0.92286 0.83169 0.18613 0.0
C484 C 0.89225 0.82326 0.16685 0.0
C485 C 0.88577 0.79192 0.14855 0.0
C486 C 0.849 0.78754 0.13058 0.0
C487 C 0.86995 0.80317 0.10505 0.0
C488 C 0.80707 0.73745 0.13023 0.0
C489 C 0.83599 0.82145 0.14157 0.0
C490 C 0.86203 0.84232 0.16222 0.0
C491 C 0.85727 0.87586 0.17516 0.0
C492 C 0.82423 0.88755 0.16716 0.0
C493 C 0.79569 0.86511 0.14668 0.0
C494 C 0.80201 0.83191 0.13364 0.0
H495 H 0.99933 0.85261 0.63553 0.0
H496 H 0.04213 0.77299 0.59087 0.0
H497 H 0.12471 0.83416 0.5958 0.0
H498 H 0.09068 0.96914 0.61287 0.0
H499 H 0.09741 0.99579 0.64227 0.0
H500 H 0.04178 0.94713 0.63341 0.0
H501 H 0.0422 0.90349 0.67241 0.0
H502 H 0.09869 0.95127 0.68089 0.0
H503 H 0.09005 0.89328 0.67779 0.0
H504 H 0.2025 0.89952 0.60886 0.0
H505 H 0.27053 0.97478 0.62135 0.0
H506 H 0.17748 0.01284 0.65684 0.0
C507 C 0.02605 0.84907 0.6261 0.0
C508 C 0.01465 0.80823 0.61287 0.0
C509 C 0.0505 0.80416 0.60113 0.0
C510 C 0.09739 0.83842 0.604 0.0
C511 C 0.1078 0.87686 0.61845 0.0
C512 C 0.07323 0.88323 0.62868 0.0
C513 C 0.09418 0.92808 0.64322 0.0
C514 C 0.0802 0.96205 0.63228 0.0
C515 C 0.08045 0.91841 0.67017 0.0
C516 C 0.14572 0.94543 0.63973 0.0
C517 C 0.15283 0.91504 0.62568 0.0
C518 C 0.19749 0.92379 0.61982 0.0
C519 C 0.23596 0.96619 0.62733 0.0
C520 C 0.22913 0.99919 0.64024 0.0
C521 C 0.18358 0.98783 0.64725 0.0
H522 H 0.00455 0.85859 0.38714 0.0
H523 H 0.96585 0.7181 0.40904 0.0
H524 H 0.88292 0.69647 0.41029 0.0
H525 H 0.91597 0.86683 0.42427 0.0
H526 H 0.9057 0.89954 0.40138 0.0
H527 H 0.96228 0.90453 0.40389 0.0
H528 H 0.95746 0.88142 0.35853 0.0
H529 H 0.90047 0.87542 0.35604 0.0
H530 H 0.90861 0.8272 0.34808 0.0
H531 H 0.80345 0.68836 0.40655 0.0
H532 H 0.73389 0.69734 0.40234 0.0
H533 H 0.8241 0.84287 0.38289 0.0
C534 C 0.97864 0.82373 0.39278 0.0
C535 C 0.99152 0.78997 0.39795 0.0
C536 C 0.95658 0.74434 0.40484 0.0
C537 C 0.90941 0.7317 0.40558 0.0
C538 C 0.89754 0.76514 0.39946 0.0
C539 C 0.93113 0.81042 0.39355 0.0
C540 C 0.90869 0.83924 0.38728 0.0
C541 C 0.92407 0.87994 0.40529 0.0
C542 C 0.91946 0.85684 0.36092 0.0
C543 C 0.85749 0.80301 0.39042 0.0
C544 C 0.85172 0.76044 0.39736 0.0
C545 C 0.8075 0.72163 0.40122 0.0
C546 C 0.76815 0.72689 0.39857 0.0
C547 C 0.77343 0.77066 0.39223 0.0
C548 C 0.81876 0.80884 0.38773 0.0
H549 H 0.01626 0.78703 0.85431 0.0
H550 H 0.02579 0.75341 0.92927 0.0
H551 H 0.10313 0.82506 0.933 0.0
H552 H 0.14823 0.84567 0.84131 0.0
H553 H 0.14527 0.8879 0.82189 0.0
H554 H 0.09628 0.82921 0.82371 0.0
H555 H 0.04229 0.86191 0.83531 0.0
H556 H 0.09082 0.92032 0.83358 0.0
H557 H 0.05713 0.90033 0.86116 0.0
H558 H 0.16779 0.90757 0.93123 0.0
H559 H 0.2154 0.99234 0.92353 0.0
H560 H 0.16959 0.96905 0.84844 0.0
C561 C 0.03572 0.79423 0.87112 0.0
C562 C 0.01608 0.76544 0.89145 0.0
C563 C 0.04123 0.77547 0.91349 0.0
C564 C 0.08509 0.81577 0.9157 0.0
C565 C 0.10344 0.8446 0.89547 0.0
C566 C 0.07999 0.83373 0.87341 0.0
C567 C 0.1045 0.87284 0.85532 0.0
C568 C 0.12479 0.85801 0.83432 0.0
C569 C 0.07175 0.88984 0.84582 0.0
C570 C 0.14284 0.90891 0.87127 0.0
C571 C 0.14242 0.89182 0.89422 0.0
C572 C 0.1697 0.92103 0.91309 0.0
C573 C 0.19667 0.96913 0.90859 0.0
C574 C 0.19576 0.98722 0.88546 0.0
C575 C 0.17058 0.95626 0.86637 0.0
H576 H 0.24012 0.19548 0.40986 0.0
H577 H 0.12989 0.15984 0.35708 0.0
H578 H 0.14274 0.09784 0.34065 0.0
H579 H 0.31527 0.1656 0.3711 0.0
H580 H 0.33015 0.14207 0.39687 0.0
H581 H 0.31929 0.1898 0.40095 0.0
H582 H 0.25606 0.14166 0.43319 0.0
H583 H 0.26682 0.0941 0.42924 0.0
H584 H 0.20863 0.08453 0.42523 0.0
H585 H 0.15536 0.03064 0.33612 0.0
H586 H 0.16837 0.96438 0.34305 0.0
H587 H 0.27244 0.0445 0.39771 0.0
C588 C 0.2193 0.17523 0.39453 0.0
C589 C 0.1839 0.18231 0.38477 0.0
C590 C 0.15755 0.15533 0.36464 0.0
C591 C 0.16466 0.12009 0.35519 0.0
C592 C 0.19876 0.11292 0.36585 0.0
C593 C 0.22606 0.14011 0.38492 0.0
C594 C 0.25638 0.12194 0.39508 0.0
C595 C 0.30836 0.15694 0.39073 0.0
C596 C 0.24633 0.10983 0.42227 0.0
C597 C 0.23991 0.07864 0.37968 0.0
C598 C 0.20719 0.07447 0.36265 0.0
C599 C 0.18202 0.03419 0.34875 0.0
C600 C 0.18951 0.99677 0.35283 0.0
C601 C 0.22212 1.00019 0.37048 0.0
C602 C 0.24872 0.04205 0.38346 0.0
H603 H 0.17487 0.17053 0.87655 0.0
H604 H 0.26318 0.31352 0.90094 0.0
H605 H 0.19273 0.3199 0.90793 0.0
H606 H 0.08801 0.18806 0.8457 0.0
H607 H 0.04046 0.13187 0.85474 0.0
H608 H 0.09805 0.14004 0.85073 0.0
H609 H 0.09517 0.1103 0.89458 0.0
H610 H 0.03799 0.10303 0.89894 0.0
H611 H 0.0847 0.13895 0.91962 0.0
H612 H 0.11271 0.30929 0.91375 0.0
H613 H 0.02916 0.28579 0.91381 0.0
H614 H 0.99313 0.14929 0.88613 0.0
C615 C 0.17958 0.20351 0.88302 0.0
C616 C 0.22458 0.24168 0.88811 0.0
C617 C 0.22912 0.28407 0.89665 0.0
C618 C 0.1893 0.28781 0.90089 0.0
C619 C 0.14543 0.2489 0.89644 0.0
C620 C 0.1404 0.20778 0.88736 0.0
C621 C 0.08943 0.17104 0.8841 0.0
C622 C 0.07834 0.15695 0.85722 0.0
C623 C 0.07606 0.12831 0.90028 0.0
C624 C 0.06631 0.1979 0.89274 0.0
C625 C 0.09931 0.24264 0.89992 0.0
C626 C 0.08665 0.27444 0.90813 0.0
C627 C 0.03921 0.26076 0.90817 0.0
C628 C 0.00493 0.21575 0.90004 0.0
C629 C 0.01861 0.18354 0.89282 0.0
H630 H 0.96077 0.24078 0.40346 0.0
H631 H 0.02496 0.21905 0.34023 0.0
H632 H 0.95612 0.14052 0.33461 0.0
H633 H 0.92624 0.13753 0.42781 0.0
H634 H 0.87148 0.12647 0.44052 0.0
H635 H 0.91733 0.18542 0.43545 0.0
H636 H 0.86254 0.20145 0.40874 0.0
H637 H 0.81582 0.14263 0.41416 0.0
H638 H 0.83223 0.16345 0.38348 0.0
H639 H 0.89076 0.05988 0.34131 0.0
H640 H 0.83255 0.98438 0.35886 0.0
H641 H 0.81032 0.05748 0.4182 0.0
C642 C 0.95868 0.22047 0.38758 0.0
C643 C 0.99698 0.23612 0.37173 0.0
C644 C 0.995 0.20783 0.35202 0.0
C645 C 0.95616 0.1632 0.34878 0.0
C646 C 0.91982 0.14741 0.36553 0.0
C647 C 0.92039 0.17543 0.38439 0.0
C648 C 0.88119 0.14769 0.4022 0.0
C649 C 0.90022 0.14938 0.42799 0.0
C650 C 0.84584 0.16482 0.40213 0.0
C651 C 0.86032 0.09939 0.39116 0.0
C652 C 0.88237 0.10007 0.36977 0.0
C653 C 0.87228 0.05903 0.35768 0.0
C654 C 0.8391 0.01618 0.36783 0.0
C655 C 0.81664 0.01461 0.38999 0.0
C656 C 0.82686 0.05707 0.40136 0.0
H657 H 0.75808 0.7993 0.90621 0.0
H658 H 0.88275 0.84688 0.8624 0.0
H659 H 0.87496 0.91333 0.8481 0.0
H660 H 0.69519 0.83853 0.86507 0.0
H661 H 0.67267 0.85601 0.89027 0.0
H662 H 0.68323 0.80794 0.8936 0.0
H663 H 0.73647 0.84888 0.93078 0.0
H664 H 0.72602 0.89684 0.92759 0.0
H665 H 0.78502 0.90751 0.92759 0.0
H666 H 0.86112 0.98048 0.84391 0.0
H667 H 0.84254 0.04315 0.84998 0.0
H668 H 0.72669 0.95226 0.89659 0.0
C669 C 0.78351 0.82328 0.89337 0.0
C670 C 0.82121 0.81786 0.88551 0.0
C671 C 0.85332 0.8499 0.86848 0.0
C672 C 0.84916 0.88779 0.86029 0.0
C673 C 0.8124 0.89283 0.86907 0.0
C674 C 0.77992 0.86122 0.88512 0.0
C675 C 0.74646 0.87686 0.89374 0.0
C676 C 0.69642 0.8428 0.88515 0.0
C677 C 0.74867 0.88289 0.92156 0.0
C678 C 0.76639 0.92332 0.88085 0.0
C679 C 0.804 0.93152 0.86642 0.0
C680 C 0.83112 0.974 0.85467 0.0
C681 C 0.82035 0.00939 0.85827 0.0
C682 C 0.78275 1.00213 0.87344 0.0
C683 C 0.75465 0.95812 0.8843 0.0
H684 H 0.16445 0.67576 0.10476 0.0
H685 H 0.04879 0.6181 0.15557 0.0
H686 H 0.04886 0.54314 0.15543 0.0
H687 H 0.12744 0.56996 0.06964 0.0
H688 H 0.1865 0.58223 0.06534 0.0
H689 H 0.17489 0.62954 0.06875 0.0
H690 H 0.23345 0.66215 0.10466 0.0
H691 H 0.24501 0.61483 0.1015 0.0
H692 H 0.22568 0.62503 0.13026 0.0
H693 H 0.06661 0.47572 0.15148 0.0
H694 H 0.09627 0.42197 0.14202 0.0
H695 H 0.1994 0.52599 0.0938 0.0
C696 C 0.13868 0.64729 0.1157 0.0
C697 C 0.10657 0.65283 0.1302 0.0
C698 C 0.0735 0.61457 0.1442 0.0
C699 C 0.07347 0.57197 0.1443 0.0
C700 C 0.10644 0.56816 0.13014 0.0
C701 C 0.13804 0.60483 0.11591 0.0
C702 C 0.17059 0.59284 0.10262 0.0
C703 C 0.16446 0.59368 0.07495 0.0
C704 C 0.22169 0.62566 0.11023 0.0
C705 C 0.15286 0.54373 0.1117 0.0
C706 C 0.11595 0.52989 0.12761 0.0
C707 C 0.0952 0.4862 0.13886 0.0
C708 C 0.11242 0.45598 0.13351 0.0
C709 C 0.14981 0.46945 0.11696 0.0
C710 C 0.17011 0.51406 0.10608 0.0
H711 H 0.71571 0.13824 0.61828 0.0
H712 H 0.78203 0.28928 0.6214 0.0
H713 H 0.70422 0.28253 0.62361 0.0
H714 H 0.61107 0.11404 0.58421 0.0
H715 H 0.57465 0.06277 0.60204 0.0
H716 H 0.63507 0.08054 0.59707 0.0
H717 H 0.64757 0.08197 0.64366 0.0
H718 H 0.58749 0.06509 0.64884 0.0
H719 H 0.63345 0.11761 0.66257 0.0
H720 H 0.61889 0.2581 0.62803 0.0
H721 H 0.5338 0.21884 0.63341 0.0
H722 H 0.52689 0.08423 0.63184 0.0
C723 C 0.714 0.17001 0.61875 0.0
C724 C 0.75467 0.21424 0.61945 0.0
C725 C 0.75102 0.25501 0.62065 0.0
C726 C 0.7071 0.25151 0.62196 0.0
C727 C 0.66766 0.20707 0.62225 0.0
C728 C 0.67083 0.16712 0.62062 0.0
C729 C 0.62395 0.12349 0.62349 0.0
C730 C 0.61039 0.09346 0.60032 0.0
C731 C 0.6231 0.09542 0.64598 0.0
C732 C 0.59373 0.14504 0.62707 0.0
C733 C 0.6193 0.19317 0.62608 0.0
C734 C 0.59848 0.22038 0.62882 0.0
C735 C 0.54999 0.19759 0.63213 0.0
C736 C 0.52307 0.14806 0.63296 0.0
C737 C 0.54582 0.1219 0.63086 0.0
H738 H 0.49124 0.67113 0.11983 0.0
H739 H 0.60286 0.63912 0.11912 0.0
H740 H 0.54563 0.55554 0.12594 0.0
H741 H 0.41709 0.58406 0.1654 0.0
H742 H 0.3636 0.56981 0.14986 0.0
H743 H 0.41378 0.62754 0.14721 0.0
H744 H 0.40962 0.61942 0.10034 0.0
H745 H 0.35964 0.56163 0.10286 0.0
H746 H 0.41056 0.5706 0.08644 0.0
H747 H 0.47549 0.47457 0.13189 0.0
H748 H 0.39785 0.4027 0.13456 0.0
H749 H 0.33155 0.48681 0.12887 0.0
C750 C 0.50346 0.64648 0.12161 0.0
C751 C 0.55144 0.66145 0.11924 0.0
C752 C 0.56623 0.62818 0.12099 0.0
C753 C 0.534 0.58073 0.1249 0.0
C754 C 0.4868 0.56679 0.12675 0.0
C755 C 0.47149 0.59865 0.12506 0.0
C756 C 0.41857 0.57404 0.12608 0.0
C757 C 0.40232 0.5898 0.14847 0.0
C758 C 0.39843 0.58189 0.10253 0.0
C759 C 0.40664 0.52354 0.12844 0.0
C760 C 0.44644 0.52007 0.12911 0.0
C761 C 0.44406 0.47689 0.13135 0.0
C762 C 0.39983 0.43621 0.13286 0.0
C763 C 0.35854 0.4389 0.13174 0.0
C764 C 0.36236 0.48335 0.12956 0.0
H765 H 0.77692 0.51725 0.65325 0.0
H766 H 0.8383 0.58319 0.58446 0.0
H767 H 0.87537 0.5351 0.58087 0.0
H768 H 0.87199 0.51595 0.67573 0.0
H769 H 0.84225 0.45958 0.69023 0.0
H770 H 0.8125 0.49191 0.68583 0.0
H771 H 0.74599 0.42259 0.66228 0.0
H772 H 0.77483 0.38939 0.66722 0.0
H773 H 0.76015 0.39771 0.63681 0.0
H774 H 0.91666 0.49184 0.58784 0.0
H775 H 0.95054 0.44462 0.6019 0.0
H776 H 0.8623 0.40388 0.66583 0.0
C777 C 0.79625 0.51971 0.63692 0.0
C778 C 0.80439 0.55342 0.61896 0.0
C779 C 0.83137 0.55718 0.59826 0.0
C780 C 0.85272 0.53018 0.5961 0.0
C781 C 0.84644 0.49924 0.61473 0.0
C782 C 0.81796 0.4928 0.63447 0.0
C783 C 0.82018 0.45954 0.65269 0.0
C784 C 0.83778 0.48318 0.67758 0.0
C785 C 0.77245 0.41464 0.65487 0.0
C786 C 0.8557 0.45006 0.64052 0.0
C787 C 0.87025 0.47337 0.61864 0.0
C788 C 0.90499 0.47269 0.60473 0.0
C789 C 0.92456 0.44639 0.61304 0.0
C790 C 0.90926 0.42094 0.63502 0.0
C791 C 0.87445 0.42298 0.64894 0.0
H792 H 0.5333 0.83237 0.10843 0.0
H793 H 0.59674 0.95941 0.15147 0.0
H794 H 0.52236 0.96033 0.15008 0.0
H795 H 0.46525 0.86335 0.06944 0.0
H796 H 0.41659 0.80445 0.06807 0.0
H797 H 0.47491 0.81464 0.07236 0.0
H798 H 0.44832 0.76454 0.11153 0.0
H799 H 0.38998 0.75431 0.10741 0.0
H800 H 0.42071 0.77916 0.13545 0.0
H801 H 0.43831 0.9443 0.14534 0.0
H802 H 0.35513 0.91586 0.13548 0.0
H803 H 0.34924 0.80095 0.09481 0.0
C804 C 0.53178 0.8606 0.11751 0.0
C805 C 0.57095 0.89582 0.13012 0.0
C806 C 0.56731 0.93214 0.14163 0.0
C807 C 0.52513 0.93284 0.14099 0.0
C808 C 0.48704 0.89721 0.12859 0.0
C809 C 0.49028 0.86203 0.11687 0.0
C810 C 0.44466 0.82783 0.10469 0.0
C811 C 0.45073 0.82758 0.077 0.0
C812 C 0.42476 0.77856 0.11542 0.0
C813 C 0.41494 0.84896 0.11147 0.0
C814 C 0.43975 0.88881 0.12537 0.0
C815 C 0.41879 0.91335 0.1343 0.0
C816 C 0.37151 0.89687 0.12872 0.0
C817 C 0.34579 0.85653 0.11415 0.0
C818 C 0.3681 0.83244 0.10554 0.0
H819 H 0.61538 0.46139 0.64198 0.0
H820 H 0.53304 0.52758 0.62896 0.0
H821 H 0.46531 0.45109 0.61757 0.0
H822 H 0.56563 0.37332 0.59396 0.0
H823 H 0.56554 0.32812 0.61222 0.0
H824 H 0.6087 0.38841 0.61756 0.0
H825 H 0.58345 0.38011 0.66266 0.0
H826 H 0.54053 0.31979 0.65742 0.0
H827 H 0.52299 0.35895 0.6699 0.0
H828 H 0.40679 0.36813 0.60805 0.0
H829 H 0.35769 0.28274 0.60548 0.0
H830 H 0.47608 0.26815 0.62677 0.0
C831 C 0.58316 0.45964 0.63644 0.0
C832 C 0.57934 0.50032 0.63611 0.0
C833 C 0.53647 0.49676 0.62935 0.0
C834 C 0.49804 0.45358 0.62269 0.0
C835 C 0.50288 0.41412 0.62319 0.0
C836 C 0.54411 0.41654 0.6302 0.0
C837 C 0.53877 0.36821 0.63091 0.0
C838 C 0.57161 0.3643 0.61256 0.0
C839 C 0.5469 0.35606 0.65676 0.0
C840 C 0.48803 0.33828 0.6233 0.0
C841 C 0.46835 0.36568 0.61858 0.0
C842 C 0.42181 0.34631 0.61168 0.0
C843 C 0.3942 0.29762 0.6102 0.0
C844 C 0.41288 0.26847 0.61587 0.0
C845 C 0.46078 0.28933 0.62208 0.0
H846 H 0.40243 0.8715 0.37931 0.0
H847 H 0.46484 0.97998 0.43434 0.0
H848 H 0.51998 0.95354 0.44486 0.0
H849 H 0.41149 0.78234 0.41346 0.0
H850 H 0.42548 0.7592 0.38719 0.0
H851 H 0.3899 0.78589 0.38393 0.0
H852 H 0.44745 0.84323 0.35192 0.0
H853 H 0.48282 0.81634 0.35489 0.0
H854 H 0.50853 0.87835 0.35947 0.0
H855 H 0.56892 0.91713 0.44921 0.0
H856 H 0.61397 0.87693 0.44477 0.0
H857 H 0.51995 0.78983 0.38771 0.0
C858 C 0.4275 0.88956 0.39367 0.0
C859 C 0.42914 0.92801 0.40595 0.0
C860 C 0.4631 0.95102 0.42437 0.0
C861 C 0.49429 0.93585 0.43071 0.0
C862 C 0.49114 0.8975 0.41854 0.0
C863 C 0.45896 0.87482 0.40027 0.0
C864 C 0.46436 0.8355 0.38952 0.0
C865 C 0.42017 0.78791 0.39378 0.0
C866 C 0.47653 0.84388 0.36234 0.0
C867 C 0.50515 0.84021 0.4044 0.0
C868 C 0.51955 0.87596 0.42119 0.0
C869 C 0.55781 0.88885 0.43629 0.0
C870 C 0.58309 0.86573 0.43366 0.0
C871 C 0.5701 0.83001 0.4161 0.0
C872 C 0.5299 0.81623 0.40167 0.0
H873 H 0.7216 0.59951 0.9078 0.0
H874 H 0.77742 0.50592 0.91344 0.0
H875 H 0.69745 0.43856 0.91485 0.0
H876 H 0.62048 0.53307 0.94763 0.0
H877 H 0.58275 0.54529 0.92931 0.0
H878 H 0.6445 0.58663 0.93056 0.0
H879 H 0.64886 0.58399 0.88362 0.0
H880 H 0.58727 0.5424 0.88222 0.0
H881 H 0.62841 0.52865 0.86862 0.0
H882 H 0.61272 0.3815 0.91296 0.0
H883 H 0.52709 0.3375 0.90944 0.0
H884 H 0.52525 0.4673 0.90481 0.0
C885 C 0.71699 0.56491 0.90975 0.0
C886 C 0.75569 0.55795 0.91059 0.0
C887 C 0.74827 0.5121 0.91284 0.0
C888 C 0.703 0.4736 0.91366 0.0
C889 C 0.66564 0.4816 0.91231 0.0
C890 C 0.672 0.52602 0.91057 0.0
C891 C 0.62572 0.52465 0.90843 0.0
C892 C 0.61791 0.54884 0.93029 0.0
C893 C 0.62239 0.54619 0.88429 0.0
C894 C 0.59245 0.47245 0.9089 0.0
C895 C 0.61632 0.44838 0.91119 0.0
C896 C 0.59355 0.39989 0.91127 0.0
C897 C 0.54494 0.37522 0.90901 0.0
C898 C 0.51961 0.39904 0.90666 0.0
C899 C 0.54377 0.44831 0.90676 0.0
H900 H 0.13526 0.72963 0.41281 0.0
H901 H 0.28563 0.78825 0.41134 0.0
H902 H 0.27392 0.70841 0.40915 0.0
H903 H 0.10412 0.62166 0.44661 0.0
H904 H 0.05269 0.58814 0.42825 0.0
H905 H 0.0736 0.64906 0.43399 0.0
H906 H 0.07681 0.6637 0.38758 0.0
H907 H 0.0569 0.60316 0.38163 0.0
H908 H 0.11092 0.64777 0.36857 0.0
H909 H 0.24498 0.62259 0.40306 0.0
H910 H 0.2023 0.53834 0.39531 0.0
H911 H 0.07106 0.53839 0.3972 0.0
C912 C 0.1659 0.72586 0.41279 0.0
C913 C 0.21138 0.76509 0.41242 0.0
C914 C 0.25047 0.75857 0.41189 0.0
C915 C 0.24413 0.71342 0.41056 0.0
C916 C 0.1986 0.67559 0.40976 0.0
C917 C 0.16021 0.68145 0.41105 0.0
C918 C 0.11504 0.63595 0.40752 0.0
C919 C 0.08458 0.62294 0.43046 0.0
C920 C 0.08838 0.63779 0.38499 0.0
C921 C 0.13392 0.60343 0.40362 0.0
C922 C 0.18207 0.62675 0.40523 0.0
C923 C 0.20724 0.60396 0.40186 0.0
C924 C 0.18244 0.55591 0.39712 0.0
C925 C 0.13286 0.53115 0.39549 0.0
C926 C 0.10868 0.55575 0.39859 0.0
H927 H 0.51101 0.0301 0.8957 0.0
H928 H 0.64238 0.15875 0.9062 0.0
H929 H 0.6008 0.20264 0.90909 0.0
H930 H 0.45693 0.07941 0.8587 0.0
H931 H 0.39954 0.04473 0.87164 0.0
H932 H 0.43927 0.02255 0.87109 0.0
H933 H 0.43075 0.01039 0.91769 0.0
H934 H 0.39102 0.03262 0.91836 0.0
H935 H 0.44261 0.05892 0.93717 0.0
H936 H 0.54628 0.23343 0.91 0.0
H937 H 0.48143 0.24959 0.9083 0.0
H938 H 0.38352 0.1019 0.89734 0.0
C939 C 0.53074 0.06744 0.89872 0.0
C940 C 0.58008 0.09117 0.90028 0.0
C941 C 0.6048 0.14007 0.90428 0.0
C942 C 0.58142 0.16527 0.9062 0.0
C943 C 0.533 0.14118 0.9042 0.0
C944 C 0.50774 0.0934 0.90057 0.0
C945 C 0.45587 0.07669 0.89852 0.0
C946 C 0.43679 0.05454 0.8735 0.0
C947 C 0.42845 0.04264 0.91917 0.0
C948 C 0.45624 0.12256 0.90138 0.0
C949 C 0.50117 0.15917 0.90477 0.0
C950 C 0.51087 0.20502 0.90745 0.0
C951 C 0.47372 0.21387 0.90644 0.0
C952 C 0.42726 0.17714 0.90273 0.0
C953 C 0.41855 0.13078 0.90035 0.0
H954 H 0.25294 0.49047 0.4009 0.0
H955 H 0.2601 0.37808 0.43739 0.0
H956 H 0.3451 0.42824 0.44175 0.0
H957 H 0.35169 0.52818 0.36635 0.0
H958 H 0.37249 0.58988 0.36835 0.0
H959 H 0.31115 0.54859 0.37145 0.0
H960 H 0.30995 0.58386 0.4132 0.0
H961 H 0.37129 0.62586 0.41014 0.0
H962 H 0.35044 0.58879 0.43654 0.0
H963 H 0.42907 0.48382 0.43591 0.0
H964 H 0.50805 0.54637 0.42391 0.0
H965 H 0.44892 0.62549 0.39315 0.0
C966 C 0.27225 0.47711 0.41058 0.0
C967 C 0.24986 0.4304 0.41887 0.0
C968 C 0.27646 0.41374 0.43091 0.0
C969 C 0.32482 0.44199 0.43352 0.0
C970 C 0.34618 0.4871 0.42424 0.0
C971 C 0.32086 0.50505 0.4134 0.0
C972 C 0.35317 0.55355 0.40336 0.0
C973 C 0.34673 0.5551 0.37574 0.0
C974 C 0.34577 0.59019 0.41661 0.0
C975 C 0.40044 0.55911 0.40947 0.0
C976 C 0.39543 0.52029 0.42156 0.0
C977 C 0.4336 0.51496 0.42703 0.0
C978 C 0.47815 0.5503 0.42004 0.0
C979 C 0.48418 0.59058 0.408 0.0
C980 C 0.44495 0.59532 0.40288 0.0
H981 H 0.92538 0.46095 0.91877 0.0
H982 H 0.82522 0.46462 0.86899 0.0
H983 H 0.77498 0.37985 0.873 0.0
H984 H 0.91457 0.35598 0.8941 0.0
H985 H 0.92243 0.33563 0.92311 0.0
H986 H 0.9486 0.39725 0.91755 0.0
H987 H 0.90666 0.40444 0.95573 0.0
H988 H 0.87935 0.3425 0.96095 0.0
H989 H 0.84397 0.36945 0.95789 0.0
H990 H 0.73554 0.29424 0.88187 0.0
H991 H 0.71772 0.21329 0.8888 0.0
H992 H 0.84465 0.26503 0.93124 0.0
C993 C 0.89315 0.44429 0.90854 0.0
C994 C 0.87908 0.47036 0.89408 0.0
C995 C 0.8365 0.44624 0.88088 0.0
C996 C 0.80749 0.39784 0.88301 0.0
C997 C 0.82169 0.37368 0.89812 0.0
C998 C 0.86403 0.3959 0.91018 0.0
C999 C 0.87294 0.36133 0.92362 0.0
C1000 C 0.91723 0.36262 0.91401 0.0
C1001 C 0.8759 0.36996 0.95118 0.0
C1002 C 0.82926 0.31617 0.91695 0.0
C1003 C 0.79963 0.32409 0.90265 0.0
C1004 C 0.75819 0.28755 0.89325 0.0
C1005 C 0.74797 0.24165 0.89757 0.0
C1006 C 0.77942 0.23303 0.91087 0.0
C1007 C 0.81963 0.27073 0.92136 0.0
H1008 H 0.1825 0.30651 0.32212 0.0
H1009 H 0.15989 0.42471 0.32554 0.0
H1010 H 0.17859 0.43998 0.28219 0.0
H1011 H 0.28004 0.3596 0.27826 0.0
H1012 H 0.26137 0.30526 0.26255 0.0
H1013 H 0.24922 0.30509 0.29447 0.0
H1014 H 0.16113 0.24956 0.28607 0.0
H1015 H 0.17298 0.24975 0.25414 0.0
H1016 H 0.13159 0.26632 0.26426 0.0
H1017 H 0.1926 0.43882 0.23763 0.0
H1018 H 0.20624 0.42346 0.19524 0.0
H1019 H 0.22279 0.30849 0.22053 0.0
C1020 C 0.18234 0.33607 0.31382 0.0
C1021 C 0.16958 0.36425 0.32733 0.0
C1022 C 0.1693 0.40234 0.31566 0.0
C1023 C 0.17996 0.41148 0.29097 0.0
C1024 C 0.19128 0.38253 0.27803 0.0
C1025 C 0.19309 0.34589 0.28903 0.0
C1026 C 0.2049 0.31936 0.27061 0.0
C1027 C 0.25167 0.32253 0.27685 0.0
C1028 C 0.16528 0.26823 0.26866 0.0
C1029 C 0.20865 0.3464 0.24765 0.0
C1030 C 0.2006 0.38266 0.25231 0.0
C1031 C 0.19969 0.41094 0.23376 0.0
C1032 C 0.20733 0.40195 0.20975 0.0
C1033 C 0.21615 0.36525 0.2046 0.0
C1034 C 0.21699 0.3374 0.2239 0.0
H1035 H 0.88717 0.24142 0.7216 0.0
H1036 H 0.75883 0.1321 0.68952 0.0
H1037 H 0.72394 0.10839 0.73039 0.0
H1038 H 0.88673 0.17251 0.77113 0.0
H1039 H 0.91104 0.21979 0.79277 0.0
H1040 H 0.92418 0.23165 0.76096 0.0
H1041 H 0.89364 0.28993 0.76193 0.0
H1042 H 0.88024 0.27807 0.79376 0.0
H1043 H 0.83532 0.27064 0.77267 0.0
H1044 H 0.70353 0.09539 0.77444 0.0
H1045 H 0.70158 0.08787 0.81905 0.0
H1046 H 0.84512 0.2018 0.82305 0.0
C1047 C 0.85151 0.21298 0.72326 0.0
C1048 C 0.82538 0.18881 0.70252 0.0
C1049 C 0.77927 0.15101 0.70528 0.0
C1050 C 0.75911 0.13752 0.72837 0.0
C1051 C 0.7858 0.16176 0.74853 0.0
C1052 C 0.8312 0.19829 0.74628 0.0
C1053 C 0.85358 0.21557 0.77101 0.0
C1054 C 0.8964 0.2095 0.77415 0.0
C1055 C 0.86644 0.26658 0.77508 0.0
C1056 C 0.81381 0.18277 0.78746 0.0
C1057 C 0.77478 0.15266 0.77409 0.0
C1058 C 0.73384 0.1188 0.78513 0.0
C1059 C 0.73305 0.1149 0.8105 0.0
C1060 C 0.77319 0.14417 0.82455 0.0
C1061 C 0.81385 0.17895 0.81281 0.0
H1062 H 0.70419 0.90656 0.22014 0.0
H1063 H 0.60196 0.76673 0.19632 0.0
H1064 H 0.58783 0.7408 0.2392 0.0
H1065 H 0.75352 0.87148 0.26752 0.0
H1066 H 0.76289 0.91804 0.2879 0.0
H1067 H 0.76322 0.92629 0.25554 0.0
H1068 H 0.69874 0.94815 0.26012 0.0
H1069 H 0.69817 0.93997 0.29251 0.0
H1070 H 0.64492 0.90836 0.27524 0.0
H1071 H 0.58564 0.72997 0.28403 0.0
H1072 H 0.59695 0.73254 0.32805 0.0
H1073 H 0.70285 0.87949 0.32365 0.0
C1074 C 0.67845 0.87052 0.22391 0.0
C1075 C 0.65382 0.83864 0.20482 0.0
C1076 C 0.62105 0.79172 0.21058 0.0
C1077 C 0.61278 0.77677 0.23487 0.0
C1078 C 0.63776 0.8091 0.25317 0.0
C1079 C 0.67009 0.85494 0.24801 0.0
C1080 C 0.69355 0.88213 0.27103 0.0
C1081 C 0.74643 0.90056 0.27046 0.0
C1082 C 0.68321 0.92201 0.27495 0.0
C1083 C 0.66948 0.84427 0.29005 0.0
C1084 C 0.63723 0.80262 0.27922 0.0
C1085 C 0.61077 0.76235 0.29269 0.0
C1086 C 0.61765 0.76434 0.31781 0.0
C1087 C 0.65102 0.80629 0.32953 0.0
C1088 C 0.67702 0.84698 0.31536 0.0
H1089 H 0.77343 0.66714 0.72085 0.0
H1090 H 0.88208 0.64495 0.69126 0.0
H1091 H 0.90625 0.63824 0.73287 0.0
H1092 H 0.8435 0.7402 0.77056 0.0
H1093 H 0.79557 0.71843 0.79171 0.0
H1094 H 0.78484 0.71874 0.75963 0.0
H1095 H 0.72535 0.63 0.76109 0.0
H1096 H 0.73598 0.6294 0.79316 0.0
H1097 H 0.74335 0.59076 0.77294 0.0
H1098 H 0.91689 0.63124 0.77734 0.0
H1099 H 0.91968 0.6332 0.82211 0.0
H1100 H 0.80917 0.66733 0.82364 0.0
C1101 C 0.8021 0.66059 0.72323 0.0
C1102 C 0.82572 0.65613 0.70291 0.0
C1103 C 0.86362 0.64846 0.70662 0.0
C1104 C 0.87743 0.64441 0.73016 0.0
C1105 C 0.85357 0.64903 0.74983 0.0
C1106 C 0.81721 0.6577 0.74668 0.0
C1107 C 0.79937 0.66392 0.77102 0.0
C1108 C 0.80625 0.71326 0.77336 0.0
C1109 C 0.74796 0.62627 0.77477 0.0
C1110 C 0.8312 0.65709 0.78831 0.0
C1111 C 0.86165 0.6478 0.77563 0.0
C1112 C 0.89348 0.63882 0.78746 0.0
C1113 C 0.89464 0.63982 0.81291 0.0
C1114 C 0.86478 0.65057 0.82636 0.0
C1115 C 0.83264 0.65933 0.81383 0.0
H1116 H 0.11417 0.76966 0.21975 0.0
H1117 H 0.25495 0.82861 0.1914 0.0
H1118 H 0.2861 0.84801 0.23339 0.0
H1119 H 0.14001 0.85561 0.26304 0.0
H1120 H 0.09965 0.81667 0.28548 0.0
H1121 H 0.08849 0.80249 0.25372 0.0
H1122 H 0.08363 0.72299 0.26142 0.0
H1123 H 0.09451 0.73677 0.29329 0.0
H1124 H 0.1315 0.72165 0.27625 0.0
H1125 H 0.30158 0.86665 0.27835 0.0
H1126 H 0.30049 0.88324 0.32202 0.0
H1127 H 0.14905 0.81279 0.32004 0.0
C1128 C 0.15157 0.78582 0.22228 0.0
C1129 C 0.18216 0.79738 0.20227 0.0
C1130 C 0.23085 0.81914 0.20647 0.0
C1131 C 0.24881 0.83026 0.23024 0.0
C1132 C 0.21755 0.81924 0.2495 0.0
C1133 C 0.16993 0.79731 0.24571 0.0
C1134 C 0.14375 0.79207 0.26909 0.0
C1135 C 0.11639 0.81828 0.26774 0.0
C1136 C 0.11145 0.74029 0.27538 0.0
C1137 C 0.18411 0.81524 0.28671 0.0
C1138 C 0.22639 0.83035 0.27515 0.0
C1139 C 0.26865 0.85455 0.28759 0.0
C1140 C 0.26764 0.86388 0.3124 0.0
C1141 C 0.22465 0.84925 0.32447 0.0
C1142 C 0.18244 0.82415 0.31141 0.0
H1143 H 0.33654 0.14975 0.8183 0.0
H1144 H 0.36663 0.29318 0.81819 0.0
H1145 H 0.36907 0.29368 0.77323 0.0
H1146 H 0.41335 0.1635 0.76693 0.0
H1147 H 0.3744 0.10562 0.75547 0.0
H1148 H 0.37648 0.11731 0.78757 0.0
H1149 H 0.28726 0.08551 0.78747 0.0
H1150 H 0.28493 0.07406 0.75537 0.0
H1151 H 0.26318 0.11041 0.76697 0.0
H1152 H 0.35924 0.27525 0.7284 0.0
H1153 H 0.34849 0.24291 0.68677 0.0
H1154 H 0.33266 0.1143 0.71596 0.0
C1155 C 0.34418 0.18142 0.80879 0.0
C1156 C 0.35125 0.22143 0.82164 0.0
C1157 C 0.36138 0.26229 0.80865 0.0
C1158 C 0.36262 0.2628 0.78314 0.0
C1159 C 0.35468 0.22249 0.77099 0.0
C1160 C 0.34666 0.18288 0.78339 0.0
C1161 C 0.33961 0.14433 0.76601 0.0
C1162 C 0.37827 0.13198 0.76919 0.0
C1163 C 0.29085 0.10103 0.76915 0.0
C1164 C 0.34389 0.16805 0.74185 0.0
C1165 C 0.35204 0.21295 0.74514 0.0
C1166 C 0.3538 0.24053 0.72559 0.0
C1167 C 0.34744 0.22186 0.70208 0.0
C1168 C 0.34039 0.17652 0.69833 0.0
C1169 C 0.33891 0.14943 0.71844 0.0
H1170 H 0.32334 0.28548 0.96226 0.0
H1171 H 0.2546 0.13504 0.9707 0.0
H1172 H 0.22412 0.14198 1.01072 0.0
H1173 H 0.35637 0.31725 0.0244 0.0
H1174 H 0.34488 0.36496 0.02375 0.0
H1175 H 0.36181 0.34765 0.99635 0.0
H1176 H 0.28732 0.33676 0.9749 0.0
H1177 H 0.2698 0.35349 1.00233 0.0
H1178 H 0.23088 0.29832 0.98803 0.0
H1179 H 0.20405 0.1663 0.05045 0.0
H1180 H 0.19491 0.20526 0.08659 0.0
H1181 H 0.27195 0.3394 0.05076 0.0
C1182 C 0.30235 0.25389 0.97261 0.0
C1183 C 0.29194 0.20963 0.96349 0.0
C1184 C 0.26341 0.16925 0.97741 0.0
C1185 C 0.24583 0.17292 1.00009 0.0
C1186 C 0.25643 0.21711 1.00834 0.0
C1187 C 0.2839 0.25684 0.99495 0.0
C1188 C 0.28954 0.30015 1.00757 0.0
C1189 C 0.34121 0.33452 1.01337 0.0
C1190 C 0.2681 0.32355 0.99229 0.0
C1191 C 0.26157 0.27881 0.0305 0.0
C1192 C 0.24285 0.23084 0.03057 0.0
C1193 C 0.21797 0.20366 0.0504 0.0
C1194 C 0.21286 0.22608 0.07079 0.0
C1195 C 0.23188 0.27512 0.07119 0.0
C1196 C 0.2559 0.30174 0.05061 0.0
H1197 H 0.03528 0.23863 0.46581 0.0
H1198 H 0.08517 0.38757 0.46579 0.0
H1199 H 0.0402 0.37895 0.50264 0.0
H1200 H 0.9186 0.20281 0.48698 0.0
H1201 H 0.9135 0.15673 0.50644 0.0
H1202 H 0.95015 0.17308 0.47988 0.0
H1203 H 0.02043 0.18748 0.50619 0.0
H1204 H 0.98464 0.17127 0.53305 0.0
H1205 H 0.0377 0.22734 0.53147 0.0
H1206 H 0.98833 0.35613 0.5372 0.0
H1207 H 0.93889 0.32155 0.5728 0.0
H1208 H 0.92201 0.18624 0.55421 0.0
C1209 C 0.03727 0.26938 0.4739 0.0
C1210 C 0.06384 0.31385 0.46287 0.0
C1211 C 0.06502 0.35318 0.47379 0.0
C1212 C 0.0394 0.34866 0.49471 0.0
C1213 C 0.01253 0.30452 0.50472 0.0
C1214 C 0.01151 0.26552 0.49507 0.0
C1215 C 0.97966 0.2225 0.51016 0.0
C1216 C 0.938 0.18666 0.49496 0.0
C1217 C 0.00725 0.20085 0.52088 0.0
C1218 C 0.96384 0.24393 0.52989 0.0
C1219 C 0.98285 0.29119 0.52583 0.0
C1220 C 0.97353 0.31924 0.5408 0.0
C1221 C 0.94518 0.29904 0.56104 0.0
C1222 C 0.92661 0.25111 0.56657 0.0
C1223 C 0.93543 0.22288 0.55046 0.0
H1224 H 0.66396 0.91062 0.05049 0.0
H1225 H 0.80214 0.97748 0.0827 0.0
H1226 H 0.83457 0.0272 0.04642 0.0
H1227 H 0.70166 0.91563 0.98607 0.0
H1228 H 0.65834 0.92855 0.9747 0.0
H1229 H 0.6469 0.89402 1.00183 0.0
H1230 H 0.63013 0.95198 0.02514 0.0
H1231 H 0.64228 0.98704 0.99821 0.0
H1232 H 0.67395 0.01306 0.02588 0.0
H1233 H 0.85167 0.07338 1.008 0.0
H1234 H 0.85229 0.1117 0.96938 0.0
H1235 H 0.70273 0.0182 0.96239 0.0
C1236 C 0.70122 0.93463 0.04943 0.0
C1237 C 0.73081 0.93958 0.06914 0.0
C1238 C 0.7791 0.97271 0.0676 0.0
C1239 C 0.79782 1.00121 0.04711 0.0
C1240 C 0.76775 0.99663 0.02825 0.0
C1241 C 0.72051 0.96405 0.02909 0.0
C1242 C 0.69563 0.96874 1.00699 0.0
C1243 C 0.67438 0.92408 0.99148 0.0
C1244 C 0.65829 0.98094 1.01452 0.0
C1245 C 0.73606 0.00933 0.99393 0.0
C1246 C 0.7774 0.02456 1.00641 0.0
C1247 C 0.8195 0.06165 0.998 0.0
C1248 C 0.81951 0.08337 0.97608 0.0
C1249 C 0.77761 0.06837 0.96287 0.0
C1250 C 0.73535 0.03094 0.97212 0.0
H1251 H 0.81477 0.74417 0.55606 0.0
H1252 H 0.68354 0.6183 0.57255 0.0
H1253 H 0.64497 0.6368 0.54 0.0
H1254 H 0.76721 0.81687 0.54179 0.0
H1255 H 0.80529 0.84629 0.51648 0.0
H1256 H 0.82471 0.82366 0.54078 0.0
H1257 H 0.84184 0.77488 0.51008 0.0
H1258 H 0.82353 0.7982 0.48563 0.0
H1259 H 0.79649 0.73593 0.4895 0.0
H1260 H 0.61833 0.67005 0.50844 0.0
H1261 H 0.60737 0.70879 0.47318 0.0
H1262 H 0.75532 0.81213 0.47375 0.0
C1263 C 0.77819 0.72003 0.55244 0.0
C1264 C 0.75227 0.67977 0.56707 0.0
C1265 C 0.70432 0.64938 0.5618 0.0
C1266 C 0.68186 0.65972 0.54339 0.0
C1267 C 0.70774 0.70037 0.53003 0.0
C1268 C 0.75504 0.72955 0.53374 0.0
C1269 C 0.77427 0.77033 0.51598 0.0
C1270 C 0.79404 0.81706 0.52958 0.0
C1271 C 0.81122 0.76979 0.49931 0.0
C1272 C 0.73026 0.75928 0.50189 0.0
C1273 C 0.69235 0.71909 0.51075 0.0
C1274 C 0.64777 0.70131 0.50114 0.0
C1275 C 0.64189 0.72381 0.48115 0.0
C1276 C 0.68041 0.76351 0.47062 0.0
C1277 C 0.72509 0.78228 0.48158 0.0
H1278 H 0.97905 0.66853 0.96458 0.0
H1279 H 0.88228 0.71842 0.97764 0.0
H1280 H 0.92278 0.75422 0.01617 0.0
H1281 H 0.99164 0.64243 0.0273 0.0
H1282 H 0.05305 0.66245 0.02432 0.0
H1283 H 0.01513 0.63916 0.99831 0.0
H1284 H 0.06846 0.71534 0.97467 0.0
H1285 H 0.1061 0.73929 1.00077 0.0
H1286 H 0.08038 0.77058 0.98714 0.0
H1287 H 0.97295 0.78443 0.05285 0.0
H1288 H 0.02749 0.80385 0.08718 0.0
H1289 H 0.09501 0.738 0.05021 0.0
C1290 C 0.96581 0.68616 0.97581 0.0
C1291 C 0.92709 0.6902 0.96828 0.0
C1292 C 0.91159 0.71459 0.98315 0.0
C1293 C 0.93454 0.73526 1.00499 0.0
C1294 C 0.97328 0.73169 1.01156 0.0
C1295 C 0.98874 0.70758 0.99755 0.0
C1296 C 0.03176 0.70973 1.00872 0.0
C1297 C 0.02231 0.66052 1.01504 0.0
C1298 C 0.07419 0.73525 0.99181 0.0
C1299 C 0.03759 0.73821 0.03144 0.0
C1300 C 0.00348 0.75062 0.03254 0.0
C1301 C 1.00002 0.77525 0.05212 0.0
C1302 C 0.03125 0.78628 0.07147 0.0
C1303 C 0.06581 0.77306 0.07111 0.0
C1304 C 0.06972 0.74959 0.0506 0.0
H1305 H 0.18978 0.96698 0.46018 0.0
H1306 H 0.26644 0.89406 0.47129 0.0
H1307 H 0.29685 0.93522 0.51002 0.0
H1308 H 0.27459 0.07494 0.48238 0.0
H1309 H 0.23671 0.0902 0.49844 0.0
H1310 H 0.21479 0.05113 0.47281 0.0
H1311 H 0.14838 0.988 0.49905 0.0
H1312 H 0.16924 0.02724 0.52469 0.0
H1313 H 0.16246 0.96991 0.52716 0.0
H1314 H 0.32918 0.9913 0.54287 0.0
H1315 H 0.35113 0.04997 0.57463 0.0
H1316 H 0.25057 0.0863 0.54665 0.0
C1317 C 0.21126 0.95835 0.47138 0.0
C1318 C 0.22528 0.92677 0.46295 0.0
C1319 C 0.25488 0.91761 0.47759 0.0
C1320 C 0.2726 0.94107 0.49954 0.0
C1321 C 0.26013 0.97349 0.50687 0.0
C1322 C 0.22918 0.98146 0.49378 0.0
C1323 C 0.22335 0.01963 0.506 0.0
C1324 C 0.23826 0.06145 0.48888 0.0
C1325 C 0.17285 1.00002 0.51475 0.0
C1326 C 0.25694 0.0325 0.52742 0.0
C1327 C 0.27785 0.00544 0.52715 0.0
C1328 C 0.3123 0.01201 0.54368 0.0
C1329 C 0.32484 0.04603 0.56161 0.0
C1330 C 0.30254 0.07298 0.56344 0.0
C1331 C 0.26819 0.06627 0.54588 0.0
loop_
_geom_bond_atom_site_label_1
_geom_bond_atom_site_label_2
_geom_bond_distance
_geom_bond_site_symmetry_2
_ccdc_geom_bond_type
Co0 N5 2.057 . S
Co0 O17 2.021 . S
Co0 O20 2.062 . S
Co0 O24 2.117 . S
Co0 O25 2.020 . S
C1 O21 1.259 . S
C1 O24 1.258 . S
Co2 N11 2.057 . S
Co2 O18 2.117 . S
Co2 O19 2.020 . S
Co2 O21 2.021 . S
Co2 O26 2.062 . S
C3 N5 1.316 . S
C3 N6 1.347 . S
C3 H8 0.931 . S
C4 N5 1.375 . S
C4 C7 1.350 . S
C4 H9 0.930 . S
N5 Co0 2.057 . S
N5 C3 1.316 . S
N5 C4 1.375 . S
N6 C3 1.347 . S
N6 C7 1.373 . S
C7 C4 1.350 . S
C7 N6 1.373 . S
C7 H28 0.931 . S
H8 C3 0.931 . S
H9 C4 0.930 . S
C10 O17 1.259 . S
C10 O18 1.258 . S
N11 Co2 2.057 . S
N11 C12 1.316 . S
N11 C13 1.375 . S
C12 N11 1.316 . S
C12 N14 1.347 . S
C12 H23 0.931 . S
C13 N11 1.375 . S
C13 C15 1.350 . S
C13 H22 0.930 . S
N14 C12 1.347 . S
N14 C15 1.373 . S
C15 C13 1.350 . S
C15 N14 1.373 . S
C15 H29 0.931 . S
C16 O19 1.256 . S
C16 O20 1.255 . S
O17 Co0 2.021 . S
O17 C10 1.259 . S
O18 Co2 2.117 . S
O18 C10 1.258 . S
O19 Co2 2.020 . S
O19 C16 1.256 . S
O20 Co0 2.062 . S
O20 C16 1.255 . S
O21 C1 1.259 . S
O21 Co2 2.021 . S
H22 C13 0.930 . S
H23 C12 0.931 . S
O24 Co0 2.117 . S
O24 C1 1.258 . S
O25 Co0 2.020 . S
O25 C27 1.256 . S
O26 Co2 2.062 . S
O26 C27 1.255 . S
C27 O25 1.256 . S
C27 O26 1.255 . S
H28 C7 0.931 . S
H29 C15 0.931 . S
Co30 N35 2.057 . S
Co30 O47 2.021 . S
Co30 O50 2.062 . S
Co30 O54 2.117 . S
Co30 O55 2.020 . S
C31 O51 1.259 . S
C31 O54 1.258 . S
Co32 N41 2.057 . S
Co32 O48 2.117 . S
Co32 O49 2.020 . S
Co32 O51 2.021 . S
Co32 O56 2.062 . S
C33 N35 1.316 . S
C33 N36 1.347 . S
C33 H38 0.931 . S
C34 N35 1.375 . S
C34 C37 1.350 . S
C34 H39 0.930 . S
N35 Co30 2.057 . S
N35 C33 1.316 . S
N35 C34 1.375 . S
N36 C33 1.347 . S
N36 C37 1.373 . S
C37 C34 1.350 . S
C37 N36 1.373 . S
C37 H58 0.931 1_545 S
H38 C33 0.931 . S
H39 C34 0.930 . S
C40 O47 1.259 . S
C40 O48 1.258 . S
N41 Co32 2.057 . S
N41 C42 1.316 . S
N41 C43 1.375 . S
C42 N41 1.316 . S
C42 N44 1.347 . S
C42 H53 0.931 . S
C43 N41 1.375 . S
C43 C45 1.350 . S
C43 H52 0.930 . S
N44 C42 1.347 . S
N44 C45 1.373 . S
C45 C43 1.350 . S
C45 N44 1.373 . S
C45 H59 0.931 . S
C46 O49 1.256 . S
C46 O50 1.255 . S
O47 Co30 2.021 . S
O47 C40 1.259 . S
O48 Co32 2.117 . S
O48 C40 1.258 . S
O49 Co32 2.020 . S
O49 C46 1.256 . S
O50 Co30 2.062 . S
O50 C46 1.255 . S
O51 C31 1.259 . S
O51 Co32 2.021 . S
H52 C43 0.930 . S
H53 C42 0.931 . S
O54 Co30 2.117 . S
O54 C31 1.258 . S
O55 Co30 2.020 . S
O55 C57 1.256 . S
O56 Co32 2.062 . S
O56 C57 1.255 . S
C57 O55 1.256 . S
C57 O56 1.255 . S
H58 C37 0.931 1_565 S
H59 C45 0.931 . S
Co60 N65 2.057 . S
Co60 O77 2.021 . S
Co60 O80 2.062 . S
Co60 O84 2.117 . S
Co60 O85 2.020 . S
C61 O81 1.259 . S
C61 O84 1.258 . S
Co62 N71 2.057 . S
Co62 O78 2.117 . S
Co62 O79 2.020 . S
Co62 O81 2.021 . S
Co62 O86 2.062 . S
C63 N65 1.316 . S
C63 N66 1.347 . S
C63 H68 0.931 . S
C64 N65 1.375 . S
C64 C67 1.350 . S
C64 H69 0.930 . S
N65 Co60 2.057 . S
N65 C63 1.316 . S
N65 C64 1.375 . S
N66 C63 1.347 . S
N66 C67 1.373 . S
C67 C64 1.350 . S
C67 N66 1.373 . S
C67 H88 0.931 . S
H68 C63 0.931 . S
H69 C64 0.930 . S
C70 O77 1.259 . S
C70 O78 1.258 . S
N71 Co62 2.057 . S
N71 C72 1.316 1_565 S
N71 C73 1.375 . S
C72 N71 1.316 1_545 S
C72 N74 1.347 . S
C72 H83 0.931 . S
C73 N71 1.375 . S
C73 C75 1.350 1_565 S
C73 H82 0.930 . S
N74 C72 1.347 . S
N74 C75 1.373 . S
C75 C73 1.350 1_545 S
C75 N74 1.373 . S
C75 H89 0.931 . S
C76 O79 1.256 . S
C76 O80 1.255 . S
O77 Co60 2.021 . S
O77 C70 1.259 . S
O78 Co62 2.117 . S
O78 C70 1.258 . S
O79 Co62 2.020 . S
O79 C76 1.256 . S
O80 Co60 2.062 . S
O80 C76 1.255 . S
O81 C61 1.259 . S
O81 Co62 2.021 . S
H82 C73 0.930 . S
H83 C72 0.931 . S
O84 Co60 2.117 . S
O84 C61 1.258 . S
O85 Co60 2.020 . S
O85 C87 1.256 . S
O86 Co62 2.062 . S
O86 C87 1.255 . S
C87 O85 1.256 . S
C87 O86 1.255 . S
H88 C67 0.931 . S
H89 C75 0.931 . S
Co90 N95 2.057 . S
Co90 O107 2.021 . S
Co90 O110 2.062 . S
Co90 O114 2.117 . S
Co90 O115 2.020 . S
C91 O111 1.259 . S
C91 O114 1.258 . S
Co92 N101 2.057 . S
Co92 O108 2.117 . S
Co92 O109 2.020 . S
Co92 O111 2.021 . S
Co92 O116 2.062 . S
C93 N95 1.316 . S
C93 N96 1.347 . S
C93 H98 0.931 . S
C94 N95 1.375 . S
C94 C97 1.350 . S
C94 H99 0.930 . S
N95 Co90 2.057 . S
N95 C93 1.316 . S
N95 C94 1.375 . S
N96 C93 1.347 . S
N96 C97 1.373 . S
C97 C94 1.350 . S
C97 N96 1.373 . S
C97 H118 0.931 1_655 S
H98 C93 0.931 . S
H99 C94 0.930 . S
C100 O107 1.259 . S
C100 O108 1.258 . S
N101 Co92 2.057 . S
N101 C102 1.316 . S
N101 C103 1.375 . S
C102 N101 1.316 . S
C102 N104 1.347 . S
C102 H113 0.931 . S
C103 N101 1.375 . S
C103 C105 1.350 . S
C103 H112 0.930 . S
N104 C102 1.347 . S
N104 C105 1.373 . S
C105 C103 1.350 . S
C105 N104 1.373 . S
C105 H119 0.931 . S
C106 O109 1.256 . S
C106 O110 1.255 . S
O107 Co90 2.021 . S
O107 C100 1.259 . S
O108 Co92 2.117 . S
O108 C100 1.258 . S
O109 Co92 2.020 . S
O109 C106 1.256 . S
O110 Co90 2.062 . S
O110 C106 1.255 . S
O111 C91 1.259 . S
O111 Co92 2.021 . S
H112 C103 0.930 . S
H113 C102 0.931 . S
O114 Co90 2.117 . S
O114 C91 1.258 . S
O115 Co90 2.020 . S
O115 C117 1.256 . S
O116 Co92 2.062 . S
O116 C117 1.255 . S
C117 O115 1.256 . S
C117 O116 1.255 . S
H118 C97 0.931 1_455 S
H119 C105 0.931 . S
Co120 N125 2.057 . S
Co120 O137 2.021 . S
Co120 O140 2.062 . S
Co120 O144 2.117 . S
Co120 O145 2.020 . S
C121 O141 1.259 . S
C121 O144 1.258 . S
Co122 N131 2.057 . S
Co122 O138 2.117 . S
Co122 O139 2.020 . S
Co122 O141 2.021 . S
Co122 O146 2.062 . S
C123 N125 1.316 . S
C123 N126 1.347 . S
C123 H128 0.931 . S
C124 N125 1.375 . S
C124 C127 1.350 . S
C124 H129 0.930 . S
N125 Co120 2.057 . S
N125 C123 1.316 . S
N125 C124 1.375 . S
N126 C123 1.347 . S
N126 C127 1.373 . S
C127 C124 1.350 . S
C127 N126 1.373 . S
C127 H148 0.931 . S
H128 C123 0.931 . S
H129 C124 0.930 . S
C130 O137 1.259 . S
C130 O138 1.258 . S
N131 Co122 2.057 . S
N131 C132 1.316 1_455 S
N131 C133 1.375 . S
C132 N131 1.316 1_655 S
C132 N134 1.347 . S
C132 H143 0.931 . S
C133 N131 1.375 . S
C133 C135 1.350 1_455 S
C133 H142 0.930 . S
N134 C132 1.347 . S
N134 C135 1.373 . S
C135 C133 1.350 1_655 S
C135 N134 1.373 . S
C135 H149 0.931 . S
C136 O139 1.256 . S
C136 O140 1.255 . S
O137 Co120 2.021 . S
O137 C130 1.259 . S
O138 Co122 2.117 . S
O138 C130 1.258 . S
O139 Co122 2.020 . S
O139 C136 1.256 . S
O140 Co120 2.062 . S
O140 C136 1.255 . S
O141 C121 1.259 . S
O141 Co122 2.021 . S
H142 C133 0.930 . S
H143 C132 0.931 . S
O144 Co120 2.117 . S
O144 C121 1.258 . S
O145 Co120 2.020 . S
O145 C147 1.256 . S
O146 Co122 2.062 . S
O146 C147 1.255 . S
C147 O145 1.256 . S
C147 O146 1.255 . S
H148 C127 0.931 . S
H149 C135 0.931 . S
Co150 N155 2.057 . S
Co150 O167 2.021 . S
Co150 O170 2.062 . S
Co150 O174 2.117 . S
Co150 O175 2.020 . S
C151 O171 1.259 . S
C151 O174 1.258 . S
Co152 N161 2.057 . S
Co152 O168 2.117 . S
Co152 O169 2.020 . S
Co152 O171 2.021 . S
Co152 O176 2.062 . S
C153 N155 1.316 . S
C153 N156 1.347 . S
C153 H158 0.931 . S
C154 N155 1.375 . S
C154 C157 1.350 . S
C154 H159 0.930 . S
N155 Co150 2.057 . S
N155 C153 1.316 . S
N155 C154 1.375 . S
N156 C153 1.347 . S
N156 C157 1.373 . S
C157 C154 1.350 . S
C157 N156 1.373 . S
C157 H178 0.931 . S
H158 C153 0.931 . S
H159 C154 0.930 . S
C160 O167 1.259 . S
C160 O168 1.258 . S
N161 Co152 2.057 . S
N161 C162 1.316 . S
N161 C163 1.375 . S
C162 N161 1.316 . S
C162 N164 1.347 . S
C162 H173 0.931 . S
C163 N161 1.375 . S
C163 C165 1.350 . S
C163 H172 0.930 . S
N164 C162 1.347 . S
N164 C165 1.373 . S
C165 C163 1.350 . S
C165 N164 1.373 . S
C165 H179 0.931 . S
C166 O169 1.256 . S
C166 O170 1.255 . S
O167 Co150 2.021 . S
O167 C160 1.259 . S
O168 Co152 2.117 . S
O168 C160 1.258 . S
O169 Co152 2.020 . S
O169 C166 1.256 . S
O170 Co150 2.062 . S
O170 C166 1.255 . S
O171 C151 1.259 . S
O171 Co152 2.021 . S
H172 C163 0.930 . S
H173 C162 0.931 . S
O174 Co150 2.117 . S
O174 C151 1.258 . S
O175 Co150 2.020 . S
O175 C177 1.256 . S
O176 Co152 2.062 . S
O176 C177 1.255 . S
C177 O175 1.256 . S
C177 O176 1.255 . S
H178 C157 0.931 . S
H179 C165 0.931 . S
Co180 N185 2.057 . S
Co180 O197 2.021 . S
Co180 O200 2.062 . S
Co180 O204 2.117 . S
Co180 O205 2.020 . S
C181 O201 1.259 . S
C181 O204 1.258 . S
Co182 N191 2.057 . S
Co182 O198 2.117 . S
Co182 O199 2.020 . S
Co182 O201 2.021 . S
Co182 O206 2.062 . S
C183 N185 1.316 . S
C183 N186 1.347 . S
C183 H188 0.931 . S
C184 N185 1.375 . S
C184 C187 1.350 . S
C184 H189 0.930 . S
N185 Co180 2.057 . S
N185 C183 1.316 . S
N185 C184 1.375 . S
N186 C183 1.347 . S
N186 C187 1.373 . S
C187 C184 1.350 . S
C187 N186 1.373 . S
C187 H208 0.931 1_565 S
H188 C183 0.931 . S
H189 C184 0.930 . S
C190 O197 1.259 . S
C190 O198 1.258 . S
N191 Co182 2.057 . S
N191 C192 1.316 . S
N191 C193 1.375 . S
C192 N191 1.316 . S
C192 N194 1.347 . S
C192 H203 0.931 . S
C193 N191 1.375 . S
C193 C195 1.350 . S
C193 H202 0.930 . S
N194 C192 1.347 . S
N194 C195 1.373 . S
C195 C193 1.350 . S
C195 N194 1.373 . S
C195 H209 0.931 . S
C196 O199 1.256 . S
C196 O200 1.255 . S
O197 Co180 2.021 . S
O197 C190 1.259 . S
O198 Co182 2.117 . S
O198 C190 1.258 . S
O199 Co182 2.020 . S
O199 C196 1.256 . S
O200 Co180 2.062 . S
O200 C196 1.255 . S
O201 C181 1.259 . S
O201 Co182 2.021 . S
H202 C193 0.930 . S
H203 C192 0.931 . S
O204 Co180 2.117 . S
O204 C181 1.258 . S
O205 Co180 2.020 . S
O205 C207 1.256 . S
O206 Co182 2.062 . S
O206 C207 1.255 . S
C207 O205 1.256 . S
C207 O206 1.255 . S
H208 C187 0.931 1_545 S
H209 C195 0.931 . S
Co210 N215 2.057 . S
Co210 O227 2.021 . S
Co210 O230 2.062 . S
Co210 O234 2.117 . S
Co210 O235 2.020 . S
C211 O231 1.259 . S
C211 O234 1.258 . S
Co212 N221 2.057 . S
Co212 O228 2.117 . S
Co212 O229 2.020 . S
Co212 O231 2.021 . S
Co212 O236 2.062 . S
C213 N215 1.316 . S
C213 N216 1.347 . S
C213 H218 0.931 . S
C214 N215 1.375 . S
C214 C217 1.350 . S
C214 H219 0.930 . S
N215 Co210 2.057 . S
N215 C213 1.316 . S
N215 C214 1.375 . S
N216 C213 1.347 . S
N216 C217 1.373 . S
C217 C214 1.350 . S
C217 N216 1.373 . S
C217 H238 0.931 . S
H218 C213 0.931 . S
H219 C214 0.930 . S
C220 O227 1.259 . S
C220 O228 1.258 . S
N221 Co212 2.057 . S
N221 C222 1.316 . S
N221 C223 1.375 . S
C222 N221 1.316 . S
C222 N224 1.347 . S
C222 H233 0.931 . S
C223 N221 1.375 . S
C223 C225 1.350 . S
C223 H232 0.930 . S
N224 C222 1.347 . S
N224 C225 1.373 . S
C225 C223 1.350 . S
C225 N224 1.373 . S
C225 H239 0.931 . S
C226 O229 1.256 . S
C226 O230 1.255 . S
O227 Co210 2.021 . S
O227 C220 1.259 . S
O228 Co212 2.117 . S
O228 C220 1.258 . S
O229 Co212 2.020 . S
O229 C226 1.256 . S
O230 Co210 2.062 . S
O230 C226 1.255 . S
O231 C211 1.259 . S
O231 Co212 2.021 . S
H232 C223 0.930 . S
H233 C222 0.931 . S
O234 Co210 2.117 . S
O234 C211 1.258 . S
O235 Co210 2.020 . S
O235 C237 1.256 . S
O236 Co212 2.062 . S
O236 C237 1.255 . S
C237 O235 1.256 . S
C237 O236 1.255 . S
H238 C217 0.931 . S
H239 C225 0.931 . S
Co240 N245 2.057 . S
Co240 O257 2.021 . S
Co240 O260 2.062 . S
Co240 O264 2.117 . S
Co240 O265 2.020 . S
C241 O261 1.259 . S
C241 O264 1.258 . S
Co242 N251 2.057 . S
Co242 O258 2.117 . S
Co242 O259 2.020 . S
Co242 O261 2.021 . S
Co242 O266 2.062 . S
C243 N245 1.316 . S
C243 N246 1.347 . S
C243 H248 0.931 . S
C244 N245 1.375 . S
C244 C247 1.350 . S
C244 H249 0.930 . S
N245 Co240 2.057 . S
N245 C243 1.316 . S
N245 C244 1.375 . S
N246 C243 1.347 . S
N246 C247 1.373 . S
C247 C244 1.350 . S
C247 N246 1.373 . S
C247 H268 0.931 1_455 S
H248 C243 0.931 . S
H249 C244 0.930 . S
C250 O257 1.259 . S
C250 O258 1.258 . S
N251 Co242 2.057 . S
N251 C252 1.316 . S
N251 C253 1.375 . S
C252 N251 1.316 . S
C252 N254 1.347 . S
C252 H263 0.931 . S
C253 N251 1.375 . S
C253 C255 1.350 . S
C253 H262 0.930 . S
N254 C252 1.347 . S
N254 C255 1.373 . S
C255 C253 1.350 . S
C255 N254 1.373 . S
C255 H269 0.931 . S
C256 O259 1.256 . S
C256 O260 1.255 . S
O257 Co240 2.021 . S
O257 C250 1.259 . S
O258 Co242 2.117 . S
O258 C250 1.258 . S
O259 Co242 2.020 . S
O259 C256 1.256 . S
O260 Co240 2.062 . S
O260 C256 1.255 . S
O261 C241 1.259 . S
O261 Co242 2.021 . S
H262 C253 0.930 . S
H263 C252 0.931 . S
O264 Co240 2.117 . S
O264 C241 1.258 . S
O265 Co240 2.020 . S
O265 C267 1.256 . S
O266 Co242 2.062 . S
O266 C267 1.255 . S
C267 O265 1.256 . S
C267 O266 1.255 . S
H268 C247 0.931 1_655 S
H269 C255 0.931 . S
Co270 N275 2.057 . S
Co270 O287 2.021 . S
Co270 O290 2.062 . S
Co270 O294 2.117 . S
Co270 O295 2.020 . S
C271 O291 1.259 . S
C271 O294 1.258 . S
Co272 N281 2.057 . S
Co272 O288 2.117 . S
Co272 O289 2.020 . S
Co272 O291 2.021 . S
Co272 O296 2.062 . S
C273 N275 1.316 . S
C273 N276 1.347 . S
C273 H278 0.931 . S
C274 N275 1.375 . S
C274 C277 1.350 . S
C274 H279 0.930 . S
N275 Co270 2.057 . S
N275 C273 1.316 . S
N275 C274 1.375 . S
N276 C273 1.347 . S
N276 C277 1.373 . S
C277 C274 1.350 . S
C277 N276 1.373 . S
C277 H298 0.931 1_545 S
H278 C273 0.931 . S
H279 C274 0.930 . S
C280 O287 1.259 . S
C280 O288 1.258 . S
N281 Co272 2.057 . S
N281 C282 1.316 . S
N281 C283 1.375 . S
C282 N281 1.316 . S
C282 N284 1.347 . S
C282 H293 0.931 . S
C283 N281 1.375 . S
C283 C285 1.350 . S
C283 H292 0.930 . S
N284 C282 1.347 . S
N284 C285 1.373 . S
C285 C283 1.350 . S
C285 N284 1.373 . S
C285 H299 0.931 . S
C286 O289 1.256 . S
C286 O290 1.255 . S
O287 Co270 2.021 . S
O287 C280 1.259 . S
O288 Co272 2.117 . S
O288 C280 1.258 . S
O289 Co272 2.020 . S
O289 C286 1.256 . S
O290 Co270 2.062 . S
O290 C286 1.255 . S
O291 C271 1.259 . S
O291 Co272 2.021 . S
H292 C283 0.930 . S
H293 C282 0.931 . S
O294 Co270 2.117 . S
O294 C271 1.258 . S
O295 Co270 2.020 . S
O295 C297 1.256 . S
O296 Co272 2.062 . S
O296 C297 1.255 . S
C297 O295 1.256 . S
C297 O296 1.255 . S
H298 C277 0.931 1_565 S
H299 C285 0.931 . S
Co300 N305 2.057 . S
Co300 O317 2.021 . S
Co300 O320 2.062 . S
Co300 O324 2.117 . S
Co300 O325 2.020 . S
C301 O321 1.259 . S
C301 O324 1.258 . S
Co302 N311 2.057 . S
Co302 O318 2.117 . S
Co302 O319 2.020 . S
Co302 O321 2.021 . S
Co302 O326 2.062 . S
C303 N305 1.316 . S
C303 N306 1.347 . S
C303 H308 0.931 . S
C304 N305 1.375 . S
C304 C307 1.350 . S
C304 H309 0.930 . S
N305 Co300 2.057 . S
N305 C303 1.316 . S
N305 C304 1.375 . S
N306 C303 1.347 . S
N306 C307 1.373 . S
C307 C304 1.350 . S
C307 N306 1.373 . S
C307 H328 0.931 . S
H308 C303 0.931 . S
H309 C304 0.930 . S
C310 O317 1.259 . S
C310 O318 1.258 . S
N311 Co302 2.057 . S
N311 C312 1.316 . S
N311 C313 1.375 . S
C312 N311 1.316 . S
C312 N314 1.347 . S
C312 H323 0.931 . S
C313 N311 1.375 . S
C313 C315 1.350 . S
C313 H322 0.930 . S
N314 C312 1.347 . S
N314 C315 1.373 . S
C315 C313 1.350 . S
C315 N314 1.373 . S
C315 H329 0.931 . S
C316 O319 1.256 . S
C316 O320 1.255 . S
O317 Co300 2.021 . S
O317 C310 1.259 . S
O318 Co302 2.117 . S
O318 C310 1.258 . S
O319 Co302 2.020 . S
O319 C316 1.256 . S
O320 Co300 2.062 . S
O320 C316 1.255 . S
O321 C301 1.259 . S
O321 Co302 2.021 . S
H322 C313 0.930 . S
H323 C312 0.931 . S
O324 Co300 2.117 . S
O324 C301 1.258 . S
O325 Co300 2.020 . S
O325 C327 1.256 . S
O326 Co302 2.062 . S
O326 C327 1.255 . S
C327 O325 1.256 . S
C327 O326 1.255 . S
H328 C307 0.931 . S
H329 C315 0.931 . S
Co330 N335 2.057 . S
Co330 O347 2.021 . S
Co330 O350 2.062 . S
Co330 O354 2.117 . S
Co330 O355 2.020 . S
C331 O351 1.259 . S
C331 O354 1.258 . S
Co332 N341 2.057 . S
Co332 O348 2.117 . S
Co332 O349 2.020 . S
Co332 O351 2.021 . S
Co332 O356 2.062 . S
C333 N335 1.316 . S
C333 N336 1.347 . S
C333 H338 0.931 . S
C334 N335 1.375 . S
C334 C337 1.350 . S
C334 H339 0.930 . S
N335 Co330 2.057 . S
N335 C333 1.316 . S
N335 C334 1.375 . S
N336 C333 1.347 . S
N336 C337 1.373 . S
C337 C334 1.350 . S
C337 N336 1.373 . S
C337 H358 0.931 1_655 S
H338 C333 0.931 . S
H339 C334 0.930 . S
C340 O347 1.259 . S
C340 O348 1.258 . S
N341 Co332 2.057 . S
N341 C342 1.316 . S
N341 C343 1.375 . S
C342 N341 1.316 . S
C342 N344 1.347 . S
C342 H353 0.931 . S
C343 N341 1.375 . S
C343 C345 1.350 . S
C343 H352 0.930 . S
N344 C342 1.347 . S
N344 C345 1.373 . S
C345 C343 1.350 . S
C345 N344 1.373 . S
C345 H359 0.931 . S
C346 O349 1.256 . S
C346 O350 1.255 . S
O347 Co330 2.021 . S
O347 C340 1.259 . S
O348 Co332 2.117 . S
O348 C340 1.258 . S
O349 Co332 2.020 . S
O349 C346 1.256 . S
O350 Co330 2.062 . S
O350 C346 1.255 . S
O351 C331 1.259 . S
O351 Co332 2.021 . S
H352 C343 0.930 . S
H353 C342 0.931 . S
O354 Co330 2.117 . S
O354 C331 1.258 . S
O355 Co330 2.020 . S
O355 C357 1.256 . S
O356 Co332 2.062 . S
O356 C357 1.255 . S
C357 O355 1.256 . S
C357 O356 1.255 . S
H358 C337 0.931 1_455 S
H359 C345 0.931 . S
H360 C372 0.930 . S
H361 C374 0.930 . S
H362 C375 0.930 . S
H363 C379 0.959 . S
H364 C379 0.959 . S
H365 C379 0.961 . S
H366 C380 0.960 . S
H367 C380 0.961 . S
H368 C380 0.959 . S
H369 C383 0.929 . S
H370 C384 0.931 . S
H371 C386 0.930 . S
C372 H360 0.930 . S
C372 C373 1.399 . S
C372 C377 1.399 1_565 S
C373 C372 1.399 . S
C373 C374 1.376 . S
C374 H361 0.930 . S
C374 C373 1.376 . S
C374 C375 1.388 . S
C375 H362 0.930 . S
C375 C374 1.388 . S
C375 C376 1.390 1_565 S
C376 C375 1.390 1_545 S
C376 C377 1.394 . S
C376 C382 1.465 . S
C377 C372 1.399 1_545 S
C377 C376 1.394 . S
C377 C378 1.516 . S
C378 C377 1.516 . S
C378 C379 1.502 . S
C378 C380 1.561 . S
C378 C381 1.526 . S
C379 H363 0.959 . S
C379 H364 0.959 . S
C379 H365 0.961 . S
C379 C378 1.502 . S
C380 H366 0.960 . S
C380 H367 0.961 . S
C380 H368 0.959 . S
C380 C378 1.561 . S
C381 C378 1.526 . S
C381 C382 1.396 . S
C381 C386 1.390 . S
C382 C376 1.465 . S
C382 C381 1.396 . S
C382 C383 1.399 . S
C383 H369 0.929 . S
C383 C382 1.399 . S
C383 C384 1.385 . S
C384 H370 0.931 . S
C384 C383 1.385 . S
C384 C385 1.389 . S
C385 C384 1.389 . S
C385 C386 1.387 . S
C386 H371 0.930 . S
C386 C381 1.390 . S
C386 C385 1.387 . S
H387 C399 0.930 . S
H388 C401 0.930 . S
H389 C402 0.930 . S
H390 C406 0.959 . S
H391 C406 0.959 1_655 S
H392 C406 0.961 . S
H393 C407 0.960 . S
H394 C407 0.961 1_655 S
H395 C407 0.959 . S
H396 C410 0.929 . S
H397 C411 0.931 . S
H398 C413 0.930 . S
C399 H387 0.930 . S
C399 C400 1.399 . S
C399 C404 1.399 . S
C400 C399 1.399 . S
C400 C401 1.376 . S
C401 H388 0.930 . S
C401 C400 1.376 . S
C401 C402 1.388 . S
C402 H389 0.930 . S
C402 C401 1.388 . S
C402 C403 1.390 . S
C403 C402 1.390 . S
C403 C404 1.394 . S
C403 C409 1.465 . S
C404 C399 1.399 . S
C404 C403 1.394 . S
C404 C405 1.516 . S
C405 C404 1.516 . S
C405 C406 1.502 . S
C405 C407 1.561 . S
C405 C408 1.526 . S
C406 H390 0.959 . S
C406 H391 0.959 1_455 S
C406 H392 0.961 . S
C406 C405 1.502 . S
C407 H393 0.960 . S
C407 H394 0.961 1_455 S
C407 H395 0.959 . S
C407 C405 1.561 . S
C408 C405 1.526 . S
C408 C409 1.396 . S
C408 C413 1.390 1_455 S
C409 C403 1.465 . S
C409 C408 1.396 . S
C409 C410 1.399 . S
C410 H396 0.929 . S
C410 C409 1.399 . S
C410 C411 1.385 . S
C411 H397 0.931 . S
C411 C410 1.385 . S
C411 C412 1.389 1_455 S
C412 C411 1.389 1_655 S
C412 C413 1.387 . S
C413 H398 0.930 . S
C413 C408 1.390 1_655 S
C413 C412 1.387 . S
H414 C426 0.930 . S
H415 C428 0.930 . S
H416 C429 0.930 . S
H417 C433 0.959 . S
H418 C433 0.959 . S
H419 C433 0.961 . S
H420 C434 0.960 . S
H421 C434 0.961 . S
H422 C434 0.959 . S
H423 C437 0.929 . S
H424 C438 0.931 . S
H425 C440 0.930 . S
C426 H414 0.930 . S
C426 C427 1.399 . S
C426 C431 1.399 . S
C427 C426 1.399 . S
C427 C428 1.376 . S
C428 H415 0.930 . S
C428 C427 1.376 . S
C428 C429 1.388 . S
C429 H416 0.930 . S
C429 C428 1.388 . S
C429 C430 1.390 . S
C430 C429 1.390 . S
C430 C431 1.394 . S
C430 C436 1.465 . S
C431 C426 1.399 . S
C431 C430 1.394 . S
C431 C432 1.516 . S
C432 C431 1.516 . S
C432 C433 1.502 . S
C432 C434 1.561 . S
C432 C435 1.526 . S
C433 H417 0.959 . S
C433 H418 0.959 . S
C433 H419 0.961 . S
C433 C432 1.502 . S
C434 H420 0.960 . S
C434 H421 0.961 . S
C434 H422 0.959 . S
C434 C432 1.561 . S
C435 C432 1.526 . S
C435 C436 1.396 . S
C435 C440 1.390 1_655 S
C436 C430 1.465 . S
C436 C435 1.396 . S
C436 C437 1.399 1_655 S
C437 H423 0.929 . S
C437 C436 1.399 1_455 S
C437 C438 1.385 . S
C438 H424 0.931 . S
C438 C437 1.385 . S
C438 C439 1.389 . S
C439 C438 1.389 . S
C439 C440 1.387 . S
C440 H425 0.930 . S
C440 C435 1.390 1_455 S
C440 C439 1.387 . S
H441 C453 0.930 . S
H442 C455 0.930 . S
H443 C456 0.930 . S
H444 C460 0.959 . S
H445 C460 0.959 . S
H446 C460 0.961 . S
H447 C461 0.960 . S
H448 C461 0.961 . S
H449 C461 0.959 . S
H450 C464 0.929 . S
H451 C465 0.931 . S
H452 C467 0.930 . S
C453 H441 0.930 . S
C453 C454 1.399 . S
C453 C458 1.399 . S
C454 C453 1.399 . S
C454 C455 1.376 . S
C455 H442 0.930 . S
C455 C454 1.376 . S
C455 C456 1.388 . S
C456 H443 0.930 . S
C456 C455 1.388 . S
C456 C457 1.390 . S
C457 C456 1.390 . S
C457 C458 1.394 . S
C457 C463 1.465 . S
C458 C453 1.399 . S
C458 C457 1.394 . S
C458 C459 1.516 . S
C459 C458 1.516 . S
C459 C460 1.502 . S
C459 C461 1.561 . S
C459 C462 1.526 . S
C460 H444 0.959 . S
C460 H445 0.959 . S
C460 H446 0.961 . S
C460 C459 1.502 . S
C461 H447 0.960 . S
C461 H448 0.961 . S
C461 H449 0.959 . S
C461 C459 1.561 . S
C462 C459 1.526 . S
C462 C463 1.396 . S
C462 C467 1.390 . S
C463 C457 1.465 . S
C463 C462 1.396 . S
C463 C464 1.399 . S
C464 H450 0.929 . S
C464 C463 1.399 . S
C464 C465 1.385 . S
C465 H451 0.931 . S
C465 C464 1.385 . S
C465 C466 1.389 . S
C466 C465 1.389 . S
C466 C467 1.387 . S
C467 H452 0.930 . S
C467 C462 1.390 . S
C467 C466 1.387 . S
H468 C480 0.930 . S
H469 C482 0.930 . S
H470 C483 0.930 . S
H471 C487 0.959 . S
H472 C487 0.959 . S
H473 C487 0.961 . S
H474 C488 0.960 . S
H475 C488 0.961 . S
H476 C488 0.959 . S
H477 C491 0.929 . S
H478 C492 0.931 . S
H479 C494 0.930 . S
C480 H468 0.930 . S
C480 C481 1.399 . S
C480 C485 1.399 . S
C481 C480 1.399 . S
C481 C482 1.376 . S
C482 H469 0.930 . S
C482 C481 1.376 . S
C482 C483 1.388 . S
C483 H470 0.930 . S
C483 C482 1.388 . S
C483 C484 1.390 . S
C484 C483 1.390 . S
C484 C485 1.394 . S
C484 C490 1.465 . S
C485 C480 1.399 . S
C485 C484 1.394 . S
C485 C486 1.516 . S
C486 C485 1.516 . S
C486 C487 1.502 . S
C486 C488 1.561 . S
C486 C489 1.526 . S
C487 H471 0.959 . S
C487 H472 0.959 . S
C487 H473 0.961 . S
C487 C486 1.502 . S
C488 H474 0.960 . S
C488 H475 0.961 . S
C488 H476 0.959 . S
C488 C486 1.561 . S
C489 C486 1.526 . S
C489 C490 1.396 . S
C489 C494 1.390 . S
C490 C484 1.465 . S
C490 C489 1.396 . S
C490 C491 1.399 . S
C491 H477 0.929 . S
C491 C490 1.399 . S
C491 C492 1.385 . S
C492 H478 0.931 . S
C492 C491 1.385 . S
C492 C493 1.389 . S
C493 C492 1.389 . S
C493 C494 1.387 . S
C494 H479 0.930 . S
C494 C489 1.390 . S
C494 C493 1.387 . S
H495 C507 0.930 . S
H496 C509 0.930 . S
H497 C510 0.930 . S
H498 C514 0.959 . S
H499 C514 0.959 . S
H500 C514 0.961 . S
H501 C515 0.960 . S
H502 C515 0.961 . S
H503 C515 0.959 . S
H504 C518 0.929 . S
H505 C519 0.931 . S
H506 C521 0.930 . S
C507 H495 0.930 . S
C507 C508 1.399 . S
C507 C512 1.399 . S
C508 C507 1.399 . S
C508 C509 1.376 . S
C509 H496 0.930 . S
C509 C508 1.376 . S
C509 C510 1.388 . S
C510 H497 0.930 . S
C510 C509 1.388 . S
C510 C511 1.390 . S
C511 C510 1.390 . S
C511 C512 1.394 . S
C511 C517 1.465 . S
C512 C507 1.399 . S
C512 C511 1.394 . S
C512 C513 1.516 . S
C513 C512 1.516 . S
C513 C514 1.502 . S
C513 C515 1.561 . S
C513 C516 1.526 . S
C514 H498 0.959 . S
C514 H499 0.959 . S
C514 H500 0.961 . S
C514 C513 1.502 . S
C515 H501 0.960 . S
C515 H502 0.961 . S
C515 H503 0.959 . S
C515 C513 1.561 . S
C516 C513 1.526 . S
C516 C517 1.396 . S
C516 C521 1.390 . S
C517 C511 1.465 . S
C517 C516 1.396 . S
C517 C518 1.399 1_565 S
C518 H504 0.929 . S
C518 C517 1.399 1_545 S
C518 C519 1.385 . S
C519 H505 0.931 . S
C519 C518 1.385 . S
C519 C520 1.389 . S
C520 C519 1.389 . S
C520 C521 1.387 1_545 S
C521 H506 0.930 . S
C521 C516 1.390 . S
C521 C520 1.387 1_565 S
H522 C534 0.930 . S
H523 C536 0.930 . S
H524 C537 0.930 . S
H525 C541 0.959 . S
H526 C541 0.959 . S
H527 C541 0.961 . S
H528 C542 0.960 . S
H529 C542 0.961 . S
H530 C542 0.959 . S
H531 C545 0.929 . S
H532 C546 0.931 . S
H533 C548 0.930 . S
C534 H522 0.930 . S
C534 C535 1.399 . S
C534 C539 1.399 . S
C535 C534 1.399 . S
C535 C536 1.376 . S
C536 H523 0.930 . S
C536 C535 1.376 . S
C536 C537 1.388 . S
C537 H524 0.930 . S
C537 C536 1.388 . S
C537 C538 1.390 . S
C538 C537 1.390 . S
C538 C539 1.394 . S
C538 C544 1.465 . S
C539 C534 1.399 . S
C539 C538 1.394 . S
C539 C540 1.516 . S
C540 C539 1.516 . S
C540 C541 1.502 . S
C540 C542 1.561 . S
C540 C543 1.526 . S
C541 H525 0.959 . S
C541 H526 0.959 . S
C541 H527 0.961 . S
C541 C540 1.502 . S
C542 H528 0.960 . S
C542 H529 0.961 . S
C542 H530 0.959 . S
C542 C540 1.561 . S
C543 C540 1.526 . S
C543 C544 1.396 . S
C543 C548 1.390 . S
C544 C538 1.465 . S
C544 C543 1.396 . S
C544 C545 1.399 . S
C545 H531 0.929 . S
C545 C544 1.399 . S
C545 C546 1.385 . S
C546 H532 0.931 . S
C546 C545 1.385 . S
C546 C547 1.389 . S
C547 C546 1.389 . S
C547 C548 1.387 . S
C548 H533 0.930 . S
C548 C543 1.390 . S
C548 C547 1.387 . S
H549 C561 0.930 . S
H550 C563 0.930 . S
H551 C564 0.930 . S
H552 C568 0.959 . S
H553 C568 0.959 . S
H554 C568 0.961 . S
H555 C569 0.960 . S
H556 C569 0.961 . S
H557 C569 0.959 . S
H558 C572 0.929 . S
H559 C573 0.931 . S
H560 C575 0.930 . S
C561 H549 0.930 . S
C561 C562 1.399 1_455 S
C561 C566 1.399 . S
C562 C561 1.399 1_655 S
C562 C563 1.376 . S
C563 H550 0.930 . S
C563 C562 1.376 . S
C563 C564 1.388 . S
C564 H551 0.930 . S
C564 C563 1.388 . S
C564 C565 1.390 1_655 S
C565 C564 1.390 1_455 S
C565 C566 1.394 . S
C565 C571 1.465 . S
C566 C561 1.399 . S
C566 C565 1.394 . S
C566 C567 1.516 . S
C567 C566 1.516 . S
C567 C568 1.502 . S
C567 C569 1.561 . S
C567 C570 1.526 . S
C568 H552 0.959 . S
C568 H553 0.959 . S
C568 H554 0.961 . S
C568 C567 1.502 . S
C569 H555 0.960 . S
C569 H556 0.961 . S
C569 H557 0.959 . S
C569 C567 1.561 . S
C570 C567 1.526 . S
C570 C571 1.396 . S
C570 C575 1.390 . S
C571 C565 1.465 . S
C571 C570 1.396 . S
C571 C572 1.399 . S
C572 H558 0.929 . S
C572 C571 1.399 . S
C572 C573 1.385 . S
C573 H559 0.931 . S
C573 C572 1.385 . S
C573 C574 1.389 . S
C574 C573 1.389 . S
C574 C575 1.387 . S
C575 H560 0.930 . S
C575 C570 1.390 . S
C575 C574 1.387 . S
H576 C588 0.930 . S
H577 C590 0.930 . S
H578 C591 0.930 . S
H579 C595 0.959 . S
H580 C595 0.959 . S
H581 C595 0.961 . S
H582 C596 0.960 . S
H583 C596 0.961 . S
H584 C596 0.959 . S
H585 C599 0.929 . S
H586 C600 0.931 . S
H587 C602 0.930 . S
C588 H576 0.930 . S
C588 C589 1.399 . S
C588 C593 1.399 . S
C589 C588 1.399 . S
C589 C590 1.376 . S
C590 H577 0.930 . S
C590 C589 1.376 . S
C590 C591 1.388 . S
C591 H578 0.930 . S
C591 C590 1.388 . S
C591 C592 1.390 . S
C592 C591 1.390 . S
C592 C593 1.394 . S
C592 C598 1.465 . S
C593 C588 1.399 . S
C593 C592 1.394 . S
C593 C594 1.516 . S
C594 C593 1.516 . S
C594 C595 1.502 . S
C594 C596 1.561 . S
C594 C597 1.526 . S
C595 H579 0.959 . S
C595 H580 0.959 . S
C595 H581 0.961 . S
C595 C594 1.502 . S
C596 H582 0.960 . S
C596 H583 0.961 . S
C596 H584 0.959 . S
C596 C594 1.561 . S
C597 C594 1.526 . S
C597 C598 1.396 . S
C597 C602 1.390 . S
C598 C592 1.465 . S
C598 C597 1.396 . S
C598 C599 1.399 1_545 S
C599 H585 0.929 . S
C599 C598 1.399 1_565 S
C599 C600 1.385 . S
C600 H586 0.931 . S
C600 C599 1.385 . S
C600 C601 1.389 . S
C601 C600 1.389 . S
C601 C602 1.387 1_565 S
C602 H587 0.930 . S
C602 C597 1.390 . S
C602 C601 1.387 1_545 S
H603 C615 0.930 . S
H604 C617 0.930 . S
H605 C618 0.930 . S
H606 C622 0.959 . S
H607 C622 0.959 . S
H608 C622 0.961 . S
H609 C623 0.960 . S
H610 C623 0.961 . S
H611 C623 0.959 . S
H612 C626 0.929 . S
H613 C627 0.931 . S
H614 C629 0.930 . S
C615 H603 0.930 . S
C615 C616 1.399 . S
C615 C620 1.399 . S
C616 C615 1.399 . S
C616 C617 1.376 . S
C617 H604 0.930 . S
C617 C616 1.376 . S
C617 C618 1.388 . S
C618 H605 0.930 . S
C618 C617 1.388 . S
C618 C619 1.390 . S
C619 C618 1.390 . S
C619 C620 1.394 . S
C619 C625 1.465 . S
C620 C615 1.399 . S
C620 C619 1.394 . S
C620 C621 1.516 . S
C621 C620 1.516 . S
C621 C622 1.502 . S
C621 C623 1.561 . S
C621 C624 1.526 . S
C622 H606 0.959 . S
C622 H607 0.959 . S
C622 H608 0.961 . S
C622 C621 1.502 . S
C623 H609 0.960 . S
C623 H610 0.961 . S
C623 H611 0.959 . S
C623 C621 1.561 . S
C624 C621 1.526 . S
C624 C625 1.396 . S
C624 C629 1.390 . S
C625 C619 1.465 . S
C625 C624 1.396 . S
C625 C626 1.399 . S
C626 H612 0.929 . S
C626 C625 1.399 . S
C626 C627 1.385 . S
C627 H613 0.931 . S
C627 C626 1.385 . S
C627 C628 1.389 . S
C628 C627 1.389 . S
C628 C629 1.387 . S
C629 H614 0.930 . S
C629 C624 1.390 . S
C629 C628 1.387 . S
H630 C642 0.930 . S
H631 C644 0.930 . S
H632 C645 0.930 . S
H633 C649 0.959 . S
H634 C649 0.959 . S
H635 C649 0.961 . S
H636 C650 0.960 . S
H637 C650 0.961 . S
H638 C650 0.959 . S
H639 C653 0.929 . S
H640 C654 0.931 1_565 S
H641 C656 0.930 . S
C642 H630 0.930 . S
C642 C643 1.399 1_655 S
C642 C647 1.399 . S
C643 C642 1.399 1_455 S
C643 C644 1.376 . S
C644 H631 0.930 . S
C644 C643 1.376 . S
C644 C645 1.388 . S
C645 H632 0.930 . S
C645 C644 1.388 . S
C645 C646 1.390 1_455 S
C646 C645 1.390 1_655 S
C646 C647 1.394 . S
C646 C652 1.465 . S
C647 C642 1.399 . S
C647 C646 1.394 . S
C647 C648 1.516 . S
C648 C647 1.516 . S
C648 C649 1.502 . S
C648 C650 1.561 . S
C648 C651 1.526 . S
C649 H633 0.959 . S
C649 H634 0.959 . S
C649 H635 0.961 . S
C649 C648 1.502 . S
C650 H636 0.960 . S
C650 H637 0.961 . S
C650 H638 0.959 . S
C650 C648 1.561 . S
C651 C648 1.526 . S
C651 C652 1.396 . S
C651 C656 1.390 . S
C652 C646 1.465 . S
C652 C651 1.396 . S
C652 C653 1.399 . S
C653 H639 0.929 . S
C653 C652 1.399 . S
C653 C654 1.385 . S
C654 H640 0.931 1_545 S
C654 C653 1.385 . S
C654 C655 1.389 . S
C655 C654 1.389 . S
C655 C656 1.387 . S
C656 H641 0.930 . S
C656 C651 1.390 . S
C656 C655 1.387 . S
H657 C669 0.930 . S
H658 C671 0.930 . S
H659 C672 0.930 . S
H660 C676 0.959 . S
H661 C676 0.959 . S
H662 C676 0.961 . S
H663 C677 0.960 . S
H664 C677 0.961 . S
H665 C677 0.959 . S
H666 C680 0.929 . S
H667 C681 0.931 . S
H668 C683 0.930 . S
C669 H657 0.930 . S
C669 C670 1.399 . S
C669 C674 1.399 . S
C670 C669 1.399 . S
C670 C671 1.376 . S
C671 H658 0.930 . S
C671 C670 1.376 . S
C671 C672 1.388 . S
C672 H659 0.930 . S
C672 C671 1.388 . S
C672 C673 1.390 . S
C673 C672 1.390 . S
C673 C674 1.394 . S
C673 C679 1.465 . S
C674 C669 1.399 . S
C674 C673 1.394 . S
C674 C675 1.516 . S
C675 C674 1.516 . S
C675 C676 1.502 . S
C675 C677 1.561 . S
C675 C678 1.526 . S
C676 H660 0.959 . S
C676 H661 0.959 . S
C676 H662 0.961 . S
C676 C675 1.502 . S
C677 H663 0.960 . S
C677 H664 0.961 . S
C677 H665 0.959 . S
C677 C675 1.561 . S
C678 C675 1.526 . S
C678 C679 1.396 . S
C678 C683 1.390 . S
C679 C673 1.465 . S
C679 C678 1.396 . S
C679 C680 1.399 1_565 S
C680 H666 0.929 . S
C680 C679 1.399 1_545 S
C680 C681 1.385 . S
C681 H667 0.931 . S
C681 C680 1.385 . S
C681 C682 1.389 . S
C682 C681 1.389 . S
C682 C683 1.387 1_545 S
C683 H668 0.930 . S
C683 C678 1.390 . S
C683 C682 1.387 1_565 S
H684 C696 0.930 . S
H685 C698 0.930 . S
H686 C699 0.930 . S
H687 C703 0.959 . S
H688 C703 0.959 . S
H689 C703 0.961 . S
H690 C704 0.960 . S
H691 C704 0.961 . S
H692 C704 0.959 . S
H693 C707 0.929 . S
H694 C708 0.931 . S
H695 C710 0.930 . S
C696 H684 0.930 . S
C696 C697 1.399 . S
C696 C701 1.399 . S
C697 C696 1.399 . S
C697 C698 1.376 . S
C698 H685 0.930 . S
C698 C697 1.376 . S
C698 C699 1.388 . S
C699 H686 0.930 . S
C699 C698 1.388 . S
C699 C700 1.390 . S
C700 C699 1.390 . S
C700 C701 1.394 . S
C700 C706 1.465 . S
C701 C696 1.399 . S
C701 C700 1.394 . S
C701 C702 1.516 . S
C702 C701 1.516 . S
C702 C703 1.502 . S
C702 C704 1.561 . S
C702 C705 1.526 . S
C703 H687 0.959 . S
C703 H688 0.959 . S
C703 H689 0.961 . S
C703 C702 1.502 . S
C704 H690 0.960 . S
C704 H691 0.961 . S
C704 H692 0.959 . S
C704 C702 1.561 . S
C705 C702 1.526 . S
C705 C706 1.396 . S
C705 C710 1.390 . S
C706 C700 1.465 . S
C706 C705 1.396 . S
C706 C707 1.399 . S
C707 H693 0.929 . S
C707 C706 1.399 . S
C707 C708 1.385 . S
C708 H694 0.931 . S
C708 C707 1.385 . S
C708 C709 1.389 . S
C709 C708 1.389 . S
C709 C710 1.387 . S
C710 H695 0.930 . S
C710 C705 1.390 . S
C710 C709 1.387 . S
H711 C723 0.930 . S
H712 C725 0.930 . S
H713 C726 0.930 . S
H714 C730 0.959 . S
H715 C730 0.959 . S
H716 C730 0.961 . S
H717 C731 0.960 . S
H718 C731 0.961 . S
H719 C731 0.959 . S
H720 C734 0.929 . S
H721 C735 0.931 . S
H722 C737 0.930 . S
C723 H711 0.930 . S
C723 C724 1.399 . S
C723 C728 1.399 . S
C724 C723 1.399 . S
C724 C725 1.376 . S
C725 H712 0.930 . S
C725 C724 1.376 . S
C725 C726 1.388 . S
C726 H713 0.930 . S
C726 C725 1.388 . S
C726 C727 1.390 . S
C727 C726 1.390 . S
C727 C728 1.394 . S
C727 C733 1.465 . S
C728 C723 1.399 . S
C728 C727 1.394 . S
C728 C729 1.516 . S
C729 C728 1.516 . S
C729 C730 1.502 . S
C729 C731 1.561 . S
C729 C732 1.526 . S
C730 H714 0.959 . S
C730 H715 0.959 . S
C730 H716 0.961 . S
C730 C729 1.502 . S
C731 H717 0.960 . S
C731 H718 0.961 . S
C731 H719 0.959 . S
C731 C729 1.561 . S
C732 C729 1.526 . S
C732 C733 1.396 . S
C732 C737 1.390 . S
C733 C727 1.465 . S
C733 C732 1.396 . S
C733 C734 1.399 . S
C734 H720 0.929 . S
C734 C733 1.399 . S
C734 C735 1.385 . S
C735 H721 0.931 . S
C735 C734 1.385 . S
C735 C736 1.389 . S
C736 C735 1.389 . S
C736 C737 1.387 . S
C737 H722 0.930 . S
C737 C732 1.390 . S
C737 C736 1.387 . S
H738 C750 0.930 . S
H739 C752 0.930 . S
H740 C753 0.930 . S
H741 C757 0.959 . S
H742 C757 0.959 . S
H743 C757 0.961 . S
H744 C758 0.960 . S
H745 C758 0.961 . S
H746 C758 0.959 . S
H747 C761 0.929 . S
H748 C762 0.931 . S
H749 C764 0.930 . S
C750 H738 0.930 . S
C750 C751 1.399 . S
C750 C755 1.399 . S
C751 C750 1.399 . S
C751 C752 1.376 . S
C752 H739 0.930 . S
C752 C751 1.376 . S
C752 C753 1.388 . S
C753 H740 0.930 . S
C753 C752 1.388 . S
C753 C754 1.390 . S
C754 C753 1.390 . S
C754 C755 1.394 . S
C754 C760 1.465 . S
C755 C750 1.399 . S
C755 C754 1.394 . S
C755 C756 1.516 . S
C756 C755 1.516 . S
C756 C757 1.502 . S
C756 C758 1.561 . S
C756 C759 1.526 . S
C757 H741 0.959 . S
C757 H742 0.959 . S
C757 H743 0.961 . S
C757 C756 1.502 . S
C758 H744 0.960 . S
C758 H745 0.961 . S
C758 H746 0.959 . S
C758 C756 1.561 . S
C759 C756 1.526 . S
C759 C760 1.396 . S
C759 C764 1.390 . S
C760 C754 1.465 . S
C760 C759 1.396 . S
C760 C761 1.399 . S
C761 H747 0.929 . S
C761 C760 1.399 . S
C761 C762 1.385 . S
C762 H748 0.931 . S
C762 C761 1.385 . S
C762 C763 1.389 . S
C763 C762 1.389 . S
C763 C764 1.387 . S
C764 H749 0.930 . S
C764 C759 1.390 . S
C764 C763 1.387 . S
H765 C777 0.930 . S
H766 C779 0.930 . S
H767 C780 0.930 . S
H768 C784 0.959 . S
H769 C784 0.959 . S
H770 C784 0.961 . S
H771 C785 0.960 . S
H772 C785 0.961 . S
H773 C785 0.959 . S
H774 C788 0.929 . S
H775 C789 0.931 . S
H776 C791 0.930 . S
C777 H765 0.930 . S
C777 C778 1.399 . S
C777 C782 1.399 . S
C778 C777 1.399 . S
C778 C779 1.376 . S
C779 H766 0.930 . S
C779 C778 1.376 . S
C779 C780 1.388 . S
C780 H767 0.930 . S
C780 C779 1.388 . S
C780 C781 1.390 . S
C781 C780 1.390 . S
C781 C782 1.394 . S
C781 C787 1.465 . S
C782 C777 1.399 . S
C782 C781 1.394 . S
C782 C783 1.516 . S
C783 C782 1.516 . S
C783 C784 1.502 . S
C783 C785 1.561 . S
C783 C786 1.526 . S
C784 H768 0.959 . S
C784 H769 0.959 . S
C784 H770 0.961 . S
C784 C783 1.502 . S
C785 H771 0.960 . S
C785 H772 0.961 . S
C785 H773 0.959 . S
C785 C783 1.561 . S
C786 C783 1.526 . S
C786 C787 1.396 . S
C786 C791 1.390 . S
C787 C781 1.465 . S
C787 C786 1.396 . S
C787 C788 1.399 . S
C788 H774 0.929 . S
C788 C787 1.399 . S
C788 C789 1.385 . S
C789 H775 0.931 . S
C789 C788 1.385 . S
C789 C790 1.389 . S
C790 C789 1.389 . S
C790 C791 1.387 . S
C791 H776 0.930 . S
C791 C786 1.390 . S
C791 C790 1.387 . S
H792 C804 0.930 . S
H793 C806 0.930 . S
H794 C807 0.930 . S
H795 C811 0.959 . S
H796 C811 0.959 . S
H797 C811 0.961 . S
H798 C812 0.960 . S
H799 C812 0.961 . S
H800 C812 0.959 . S
H801 C815 0.929 . S
H802 C816 0.931 . S
H803 C818 0.930 . S
C804 H792 0.930 . S
C804 C805 1.399 . S
C804 C809 1.399 . S
C805 C804 1.399 . S
C805 C806 1.376 . S
C806 H793 0.930 . S
C806 C805 1.376 . S
C806 C807 1.388 . S
C807 H794 0.930 . S
C807 C806 1.388 . S
C807 C808 1.390 . S
C808 C807 1.390 . S
C808 C809 1.394 . S
C808 C814 1.465 . S
C809 C804 1.399 . S
C809 C808 1.394 . S
C809 C810 1.516 . S
C810 C809 1.516 . S
C810 C811 1.502 . S
C810 C812 1.561 . S
C810 C813 1.526 . S
C811 H795 0.959 . S
C811 H796 0.959 . S
C811 H797 0.961 . S
C811 C810 1.502 . S
C812 H798 0.960 . S
C812 H799 0.961 . S
C812 H800 0.959 . S
C812 C810 1.561 . S
C813 C810 1.526 . S
C813 C814 1.396 . S
C813 C818 1.390 . S
C814 C808 1.465 . S
C814 C813 1.396 . S
C814 C815 1.399 . S
C815 H801 0.929 . S
C815 C814 1.399 . S
C815 C816 1.385 . S
C816 H802 0.931 . S
C816 C815 1.385 . S
C816 C817 1.389 . S
C817 C816 1.389 . S
C817 C818 1.387 . S
C818 H803 0.930 . S
C818 C813 1.390 . S
C818 C817 1.387 . S
H819 C831 0.930 . S
H820 C833 0.930 . S
H821 C834 0.930 . S
H822 C838 0.959 . S
H823 C838 0.959 . S
H824 C838 0.961 . S
H825 C839 0.960 . S
H826 C839 0.961 . S
H827 C839 0.959 . S
H828 C842 0.929 . S
H829 C843 0.931 . S
H830 C845 0.930 . S
C831 H819 0.930 . S
C831 C832 1.399 . S
C831 C836 1.399 . S
C832 C831 1.399 . S
C832 C833 1.376 . S
C833 H820 0.930 . S
C833 C832 1.376 . S
C833 C834 1.388 . S
C834 H821 0.930 . S
C834 C833 1.388 . S
C834 C835 1.390 . S
C835 C834 1.390 . S
C835 C836 1.394 . S
C835 C841 1.465 . S
C836 C831 1.399 . S
C836 C835 1.394 . S
C836 C837 1.516 . S
C837 C836 1.516 . S
C837 C838 1.502 . S
C837 C839 1.561 . S
C837 C840 1.526 . S
C838 H822 0.959 . S
C838 H823 0.959 . S
C838 H824 0.961 . S
C838 C837 1.502 . S
C839 H825 0.960 . S
C839 H826 0.961 . S
C839 H827 0.959 . S
C839 C837 1.561 . S
C840 C837 1.526 . S
C840 C841 1.396 . S
C840 C845 1.390 . S
C841 C835 1.465 . S
C841 C840 1.396 . S
C841 C842 1.399 . S
C842 H828 0.929 . S
C842 C841 1.399 . S
C842 C843 1.385 . S
C843 H829 0.931 . S
C843 C842 1.385 . S
C843 C844 1.389 . S
C844 C843 1.389 . S
C844 C845 1.387 . S
C845 H830 0.930 . S
C845 C840 1.390 . S
C845 C844 1.387 . S
H846 C858 0.930 . S
H847 C860 0.930 . S
H848 C861 0.930 . S
H849 C865 0.959 . S
H850 C865 0.959 . S
H851 C865 0.961 . S
H852 C866 0.960 . S
H853 C866 0.961 . S
H854 C866 0.959 . S
H855 C869 0.929 . S
H856 C870 0.931 . S
H857 C872 0.930 . S
C858 H846 0.930 . S
C858 C859 1.399 . S
C858 C863 1.399 . S
C859 C858 1.399 . S
C859 C860 1.376 . S
C860 H847 0.930 . S
C860 C859 1.376 . S
C860 C861 1.388 . S
C861 H848 0.930 . S
C861 C860 1.388 . S
C861 C862 1.390 . S
C862 C861 1.390 . S
C862 C863 1.394 . S
C862 C868 1.465 . S
C863 C858 1.399 . S
C863 C862 1.394 . S
C863 C864 1.516 . S
C864 C863 1.516 . S
C864 C865 1.502 . S
C864 C866 1.561 . S
C864 C867 1.526 . S
C865 H849 0.959 . S
C865 H850 0.959 . S
C865 H851 0.961 . S
C865 C864 1.502 . S
C866 H852 0.960 . S
C866 H853 0.961 . S
C866 H854 0.959 . S
C866 C864 1.561 . S
C867 C864 1.526 . S
C867 C868 1.396 . S
C867 C872 1.390 . S
C868 C862 1.465 . S
C868 C867 1.396 . S
C868 C869 1.399 . S
C869 H855 0.929 . S
C869 C868 1.399 . S
C869 C870 1.385 . S
C870 H856 0.931 . S
C870 C869 1.385 . S
C870 C871 1.389 . S
C871 C870 1.389 . S
C871 C872 1.387 . S
C872 H857 0.930 . S
C872 C867 1.390 . S
C872 C871 1.387 . S
H873 C885 0.930 . S
H874 C887 0.930 . S
H875 C888 0.930 . S
H876 C892 0.959 . S
H877 C892 0.959 . S
H878 C892 0.961 . S
H879 C893 0.960 . S
H880 C893 0.961 . S
H881 C893 0.959 . S
H882 C896 0.929 . S
H883 C897 0.931 . S
H884 C899 0.930 . S
C885 H873 0.930 . S
C885 C886 1.399 . S
C885 C890 1.399 . S
C886 C885 1.399 . S
C886 C887 1.376 . S
C887 H874 0.930 . S
C887 C886 1.376 . S
C887 C888 1.388 . S
C888 H875 0.930 . S
C888 C887 1.388 . S
C888 C889 1.390 . S
C889 C888 1.390 . S
C889 C890 1.394 . S
C889 C895 1.465 . S
C890 C885 1.399 . S
C890 C889 1.394 . S
C890 C891 1.516 . S
C891 C890 1.516 . S
C891 C892 1.502 . S
C891 C893 1.561 . S
C891 C894 1.526 . S
C892 H876 0.959 . S
C892 H877 0.959 . S
C892 H878 0.961 . S
C892 C891 1.502 . S
C893 H879 0.960 . S
C893 H880 0.961 . S
C893 H881 0.959 . S
C893 C891 1.561 . S
C894 C891 1.526 . S
C894 C895 1.396 . S
C894 C899 1.390 . S
C895 C889 1.465 . S
C895 C894 1.396 . S
C895 C896 1.399 . S
C896 H882 0.929 . S
C896 C895 1.399 . S
C896 C897 1.385 . S
C897 H883 0.931 . S
C897 C896 1.385 . S
C897 C898 1.389 . S
C898 C897 1.389 . S
C898 C899 1.387 . S
C899 H884 0.930 . S
C899 C894 1.390 . S
C899 C898 1.387 . S
H900 C912 0.930 . S
H901 C914 0.930 . S
H902 C915 0.930 . S
H903 C919 0.959 . S
H904 C919 0.959 . S
H905 C919 0.961 . S
H906 C920 0.960 . S
H907 C920 0.961 . S
H908 C920 0.959 . S
H909 C923 0.929 . S
H910 C924 0.931 . S
H911 C926 0.930 . S
C912 H900 0.930 . S
C912 C913 1.399 . S
C912 C917 1.399 . S
C913 C912 1.399 . S
C913 C914 1.376 . S
C914 H901 0.930 . S
C914 C913 1.376 . S
C914 C915 1.388 . S
C915 H902 0.930 . S
C915 C914 1.388 . S
C915 C916 1.390 . S
C916 C915 1.390 . S
C916 C917 1.394 . S
C916 C922 1.465 . S
C917 C912 1.399 . S
C917 C916 1.394 . S
C917 C918 1.516 . S
C918 C917 1.516 . S
C918 C919 1.502 . S
C918 C920 1.561 . S
C918 C921 1.526 . S
C919 H903 0.959 . S
C919 H904 0.959 . S
C919 H905 0.961 . S
C919 C918 1.502 . S
C920 H906 0.960 . S
C920 H907 0.961 . S
C920 H908 0.959 . S
C920 C918 1.561 . S
C921 C918 1.526 . S
C921 C922 1.396 . S
C921 C926 1.390 . S
C922 C916 1.465 . S
C922 C921 1.396 . S
C922 C923 1.399 . S
C923 H909 0.929 . S
C923 C922 1.399 . S
C923 C924 1.385 . S
C924 H910 0.931 . S
C924 C923 1.385 . S
C924 C925 1.389 . S
C925 C924 1.389 . S
C925 C926 1.387 . S
C926 H911 0.930 . S
C926 C921 1.390 . S
C926 C925 1.387 . S
H927 C939 0.930 . S
H928 C941 0.930 . S
H929 C942 0.930 . S
H930 C946 0.959 . S
H931 C946 0.959 . S
H932 C946 0.961 . S
H933 C947 0.960 . S
H934 C947 0.961 . S
H935 C947 0.959 . S
H936 C950 0.929 . S
H937 C951 0.931 . S
H938 C953 0.930 . S
C939 H927 0.930 . S
C939 C940 1.399 . S
C939 C944 1.399 . S
C940 C939 1.399 . S
C940 C941 1.376 . S
C941 H928 0.930 . S
C941 C940 1.376 . S
C941 C942 1.388 . S
C942 H929 0.930 . S
C942 C941 1.388 . S
C942 C943 1.390 . S
C943 C942 1.390 . S
C943 C944 1.394 . S
C943 C949 1.465 . S
C944 C939 1.399 . S
C944 C943 1.394 . S
C944 C945 1.516 . S
C945 C944 1.516 . S
C945 C946 1.502 . S
C945 C947 1.561 . S
C945 C948 1.526 . S
C946 H930 0.959 . S
C946 H931 0.959 . S
C946 H932 0.961 . S
C946 C945 1.502 . S
C947 H933 0.960 . S
C947 H934 0.961 . S
C947 H935 0.959 . S
C947 C945 1.561 . S
C948 C945 1.526 . S
C948 C949 1.396 . S
C948 C953 1.390 . S
C949 C943 1.465 . S
C949 C948 1.396 . S
C949 C950 1.399 . S
C950 H936 0.929 . S
C950 C949 1.399 . S
C950 C951 1.385 . S
C951 H937 0.931 . S
C951 C950 1.385 . S
C951 C952 1.389 . S
C952 C951 1.389 . S
C952 C953 1.387 . S
C953 H938 0.930 . S
C953 C948 1.390 . S
C953 C952 1.387 . S
H954 C966 0.930 . S
H955 C968 0.930 . S
H956 C969 0.930 . S
H957 C973 0.959 . S
H958 C973 0.959 . S
H959 C973 0.961 . S
H960 C974 0.960 . S
H961 C974 0.961 . S
H962 C974 0.959 . S
H963 C977 0.929 . S
H964 C978 0.931 . S
H965 C980 0.930 . S
C966 H954 0.930 . S
C966 C967 1.399 . S
C966 C971 1.399 . S
C967 C966 1.399 . S
C967 C968 1.376 . S
C968 H955 0.930 . S
C968 C967 1.376 . S
C968 C969 1.388 . S
C969 H956 0.930 . S
C969 C968 1.388 . S
C969 C970 1.390 . S
C970 C969 1.390 . S
C970 C971 1.394 . S
C970 C976 1.465 . S
C971 C966 1.399 . S
C971 C970 1.394 . S
C971 C972 1.516 . S
C972 C971 1.516 . S
C972 C973 1.502 . S
C972 C974 1.561 . S
C972 C975 1.526 . S
C973 H957 0.959 . S
C973 H958 0.959 . S
C973 H959 0.961 . S
C973 C972 1.502 . S
C974 H960 0.960 . S
C974 H961 0.961 . S
C974 H962 0.959 . S
C974 C972 1.561 . S
C975 C972 1.526 . S
C975 C976 1.396 . S
C975 C980 1.390 . S
C976 C970 1.465 . S
C976 C975 1.396 . S
C976 C977 1.399 . S
C977 H963 0.929 . S
C977 C976 1.399 . S
C977 C978 1.385 . S
C978 H964 0.931 . S
C978 C977 1.385 . S
C978 C979 1.389 . S
C979 C978 1.389 . S
C979 C980 1.387 . S
C980 H965 0.930 . S
C980 C975 1.390 . S
C980 C979 1.387 . S
H981 C993 0.930 . S
H982 C995 0.930 . S
H983 C996 0.930 . S
H984 C1000 0.959 . S
H985 C1000 0.959 . S
H986 C1000 0.961 . S
H987 C1001 0.960 . S
H988 C1001 0.961 . S
H989 C1001 0.959 . S
H990 C1004 0.929 . S
H991 C1005 0.931 . S
H992 C1007 0.930 . S
C993 H981 0.930 . S
C993 C994 1.399 . S
C993 C998 1.399 . S
C994 C993 1.399 . S
C994 C995 1.376 . S
C995 H982 0.930 . S
C995 C994 1.376 . S
C995 C996 1.388 . S
C996 H983 0.930 . S
C996 C995 1.388 . S
C996 C997 1.390 . S
C997 C996 1.390 . S
C997 C998 1.394 . S
C997 C1003 1.465 . S
C998 C993 1.399 . S
C998 C997 1.394 . S
C998 C999 1.516 . S
C999 C998 1.516 . S
C999 C1000 1.502 . S
C999 C1001 1.561 . S
C999 C1002 1.526 . S
C1000 H984 0.959 . S
C1000 H985 0.959 . S
C1000 H986 0.961 . S
C1000 C999 1.502 . S
C1001 H987 0.960 . S
C1001 H988 0.961 . S
C1001 H989 0.959 . S
C1001 C999 1.561 . S
C1002 C999 1.526 . S
C1002 C1003 1.396 . S
C1002 C1007 1.390 . S
C1003 C997 1.465 . S
C1003 C1002 1.396 . S
C1003 C1004 1.399 . S
C1004 H990 0.929 . S
C1004 C1003 1.399 . S
C1004 C1005 1.385 . S
C1005 H991 0.931 . S
C1005 C1004 1.385 . S
C1005 C1006 1.389 . S
C1006 C1005 1.389 . S
C1006 C1007 1.387 . S
C1007 H992 0.930 . S
C1007 C1002 1.390 . S
C1007 C1006 1.387 . S
H1008 C1020 0.930 . S
H1009 C1022 0.930 . S
H1010 C1023 0.930 . S
H1011 C1027 0.959 . S
H1012 C1027 0.959 . S
H1013 C1027 0.961 . S
H1014 C1028 0.960 . S
H1015 C1028 0.961 . S
H1016 C1028 0.959 . S
H1017 C1031 0.929 . S
H1018 C1032 0.931 . S
H1019 C1034 0.930 . S
C1020 H1008 0.930 . S
C1020 C1021 1.399 . S
C1020 C1025 1.399 . S
C1021 C1020 1.399 . S
C1021 C1022 1.376 . S
C1022 H1009 0.930 . S
C1022 C1021 1.376 . S
C1022 C1023 1.388 . S
C1023 H1010 0.930 . S
C1023 C1022 1.388 . S
C1023 C1024 1.390 . S
C1024 C1023 1.390 . S
C1024 C1025 1.394 . S
C1024 C1030 1.465 . S
C1025 C1020 1.399 . S
C1025 C1024 1.394 . S
C1025 C1026 1.516 . S
C1026 C1025 1.516 . S
C1026 C1027 1.502 . S
C1026 C1028 1.561 . S
C1026 C1029 1.526 . S
C1027 H1011 0.959 . S
C1027 H1012 0.959 . S
C1027 H1013 0.961 . S
C1027 C1026 1.502 . S
C1028 H1014 0.960 . S
C1028 H1015 0.961 . S
C1028 H1016 0.959 . S
C1028 C1026 1.561 . S
C1029 C1026 1.526 . S
C1029 C1030 1.396 . S
C1029 C1034 1.390 . S
C1030 C1024 1.465 . S
C1030 C1029 1.396 . S
C1030 C1031 1.399 . S
C1031 H1017 0.929 . S
C1031 C1030 1.399 . S
C1031 C1032 1.385 . S
C1032 H1018 0.931 . S
C1032 C1031 1.385 . S
C1032 C1033 1.389 . S
C1033 C1032 1.389 . S
C1033 C1034 1.387 . S
C1034 H1019 0.930 . S
C1034 C1029 1.390 . S
C1034 C1033 1.387 . S
H1035 C1047 0.930 . S
H1036 C1049 0.930 . S
H1037 C1050 0.930 . S
H1038 C1054 0.959 . S
H1039 C1054 0.959 . S
H1040 C1054 0.961 . S
H1041 C1055 0.960 . S
H1042 C1055 0.961 . S
H1043 C1055 0.959 . S
H1044 C1058 0.929 . S
H1045 C1059 0.931 . S
H1046 C1061 0.930 . S
C1047 H1035 0.930 . S
C1047 C1048 1.399 . S
C1047 C1052 1.399 . S
C1048 C1047 1.399 . S
C1048 C1049 1.376 . S
C1049 H1036 0.930 . S
C1049 C1048 1.376 . S
C1049 C1050 1.388 . S
C1050 H1037 0.930 . S
C1050 C1049 1.388 . S
C1050 C1051 1.390 . S
C1051 C1050 1.390 . S
C1051 C1052 1.394 . S
C1051 C1057 1.465 . S
C1052 C1047 1.399 . S
C1052 C1051 1.394 . S
C1052 C1053 1.516 . S
C1053 C1052 1.516 . S
C1053 C1054 1.502 . S
C1053 C1055 1.561 . S
C1053 C1056 1.526 . S
C1054 H1038 0.959 . S
C1054 H1039 0.959 . S
C1054 H1040 0.961 . S
C1054 C1053 1.502 . S
C1055 H1041 0.960 . S
C1055 H1042 0.961 . S
C1055 H1043 0.959 . S
C1055 C1053 1.561 . S
C1056 C1053 1.526 . S
C1056 C1057 1.396 . S
C1056 C1061 1.390 . S
C1057 C1051 1.465 . S
C1057 C1056 1.396 . S
C1057 C1058 1.399 . S
C1058 H1044 0.929 . S
C1058 C1057 1.399 . S
C1058 C1059 1.385 . S
C1059 H1045 0.931 . S
C1059 C1058 1.385 . S
C1059 C1060 1.389 . S
C1060 C1059 1.389 . S
C1060 C1061 1.387 . S
C1061 H1046 0.930 . S
C1061 C1056 1.390 . S
C1061 C1060 1.387 . S
H1062 C1074 0.930 . S
H1063 C1076 0.930 . S
H1064 C1077 0.930 . S
H1065 C1081 0.959 . S
H1066 C1081 0.959 . S
H1067 C1081 0.961 . S
H1068 C1082 0.960 . S
H1069 C1082 0.961 . S
H1070 C1082 0.959 . S
H1071 C1085 0.929 . S
H1072 C1086 0.931 . S
H1073 C1088 0.930 . S
C1074 H1062 0.930 . S
C1074 C1075 1.399 . S
C1074 C1079 1.399 . S
C1075 C1074 1.399 . S
C1075 C1076 1.376 . S
C1076 H1063 0.930 . S
C1076 C1075 1.376 . S
C1076 C1077 1.388 . S
C1077 H1064 0.930 . S
C1077 C1076 1.388 . S
C1077 C1078 1.390 . S
C1078 C1077 1.390 . S
C1078 C1079 1.394 . S
C1078 C1084 1.465 . S
C1079 C1074 1.399 . S
C1079 C1078 1.394 . S
C1079 C1080 1.516 . S
C1080 C1079 1.516 . S
C1080 C1081 1.502 . S
C1080 C1082 1.561 . S
C1080 C1083 1.526 . S
C1081 H1065 0.959 . S
C1081 H1066 0.959 . S
C1081 H1067 0.961 . S
C1081 C1080 1.502 . S
C1082 H1068 0.960 . S
C1082 H1069 0.961 . S
C1082 H1070 0.959 . S
C1082 C1080 1.561 . S
C1083 C1080 1.526 . S
C1083 C1084 1.396 . S
C1083 C1088 1.390 . S
C1084 C1078 1.465 . S
C1084 C1083 1.396 . S
C1084 C1085 1.399 . S
C1085 H1071 0.929 . S
C1085 C1084 1.399 . S
C1085 C1086 1.385 . S
C1086 H1072 0.931 . S
C1086 C1085 1.385 . S
C1086 C1087 1.389 . S
C1087 C1086 1.389 . S
C1087 C1088 1.387 . S
C1088 H1073 0.930 . S
C1088 C1083 1.390 . S
C1088 C1087 1.387 . S
H1089 C1101 0.930 . S
H1090 C1103 0.930 . S
H1091 C1104 0.930 . S
H1092 C1108 0.959 . S
H1093 C1108 0.959 . S
H1094 C1108 0.961 . S
H1095 C1109 0.960 . S
H1096 C1109 0.961 . S
H1097 C1109 0.959 . S
H1098 C1112 0.929 . S
H1099 C1113 0.931 . S
H1100 C1115 0.930 . S
C1101 H1089 0.930 . S
C1101 C1102 1.399 . S
C1101 C1106 1.399 . S
C1102 C1101 1.399 . S
C1102 C1103 1.376 . S
C1103 H1090 0.930 . S
C1103 C1102 1.376 . S
C1103 C1104 1.388 . S
C1104 H1091 0.930 . S
C1104 C1103 1.388 . S
C1104 C1105 1.390 . S
C1105 C1104 1.390 . S
C1105 C1106 1.394 . S
C1105 C1111 1.465 . S
C1106 C1101 1.399 . S
C1106 C1105 1.394 . S
C1106 C1107 1.516 . S
C1107 C1106 1.516 . S
C1107 C1108 1.502 . S
C1107 C1109 1.561 . S
C1107 C1110 1.526 . S
C1108 H1092 0.959 . S
C1108 H1093 0.959 . S
C1108 H1094 0.961 . S
C1108 C1107 1.502 . S
C1109 H1095 0.960 . S
C1109 H1096 0.961 . S
C1109 H1097 0.959 . S
C1109 C1107 1.561 . S
C1110 C1107 1.526 . S
C1110 C1111 1.396 . S
C1110 C1115 1.390 . S
C1111 C1105 1.465 . S
C1111 C1110 1.396 . S
C1111 C1112 1.399 . S
C1112 H1098 0.929 . S
C1112 C1111 1.399 . S
C1112 C1113 1.385 . S
C1113 H1099 0.931 . S
C1113 C1112 1.385 . S
C1113 C1114 1.389 . S
C1114 C1113 1.389 . S
C1114 C1115 1.387 . S
C1115 H1100 0.930 . S
C1115 C1110 1.390 . S
C1115 C1114 1.387 . S
H1116 C1128 0.930 . S
H1117 C1130 0.930 . S
H1118 C1131 0.930 . S
H1119 C1135 0.959 . S
H1120 C1135 0.959 . S
H1121 C1135 0.961 . S
H1122 C1136 0.960 . S
H1123 C1136 0.961 . S
H1124 C1136 0.959 . S
H1125 C1139 0.929 . S
H1126 C1140 0.931 . S
H1127 C1142 0.930 . S
C1128 H1116 0.930 . S
C1128 C1129 1.399 . S
C1128 C1133 1.399 . S
C1129 C1128 1.399 . S
C1129 C1130 1.376 . S
C1130 H1117 0.930 . S
C1130 C1129 1.376 . S
C1130 C1131 1.388 . S
C1131 H1118 0.930 . S
C1131 C1130 1.388 . S
C1131 C1132 1.390 . S
C1132 C1131 1.390 . S
C1132 C1133 1.394 . S
C1132 C1138 1.465 . S
C1133 C1128 1.399 . S
C1133 C1132 1.394 . S
C1133 C1134 1.516 . S
C1134 C1133 1.516 . S
C1134 C1135 1.502 . S
C1134 C1136 1.561 . S
C1134 C1137 1.526 . S
C1135 H1119 0.959 . S
C1135 H1120 0.959 . S
C1135 H1121 0.961 . S
C1135 C1134 1.502 . S
C1136 H1122 0.960 . S
C1136 H1123 0.961 . S
C1136 H1124 0.959 . S
C1136 C1134 1.561 . S
C1137 C1134 1.526 . S
C1137 C1138 1.396 . S
C1137 C1142 1.390 . S
C1138 C1132 1.465 . S
C1138 C1137 1.396 . S
C1138 C1139 1.399 . S
C1139 H1125 0.929 . S
C1139 C1138 1.399 . S
C1139 C1140 1.385 . S
C1140 H1126 0.931 . S
C1140 C1139 1.385 . S
C1140 C1141 1.389 . S
C1141 C1140 1.389 . S
C1141 C1142 1.387 . S
C1142 H1127 0.930 . S
C1142 C1137 1.390 . S
C1142 C1141 1.387 . S
H1143 C1155 0.930 . S
H1144 C1157 0.930 . S
H1145 C1158 0.930 . S
H1146 C1162 0.959 . S
H1147 C1162 0.959 . S
H1148 C1162 0.961 . S
H1149 C1163 0.960 . S
H1150 C1163 0.961 . S
H1151 C1163 0.959 . S
H1152 C1166 0.929 . S
H1153 C1167 0.931 . S
H1154 C1169 0.930 . S
C1155 H1143 0.930 . S
C1155 C1156 1.399 . S
C1155 C1160 1.399 . S
C1156 C1155 1.399 . S
C1156 C1157 1.376 . S
C1157 H1144 0.930 . S
C1157 C1156 1.376 . S
C1157 C1158 1.388 . S
C1158 H1145 0.930 . S
C1158 C1157 1.388 . S
C1158 C1159 1.390 . S
C1159 C1158 1.390 . S
C1159 C1160 1.394 . S
C1159 C1165 1.465 . S
C1160 C1155 1.399 . S
C1160 C1159 1.394 . S
C1160 C1161 1.516 . S
C1161 C1160 1.516 . S
C1161 C1162 1.502 . S
C1161 C1163 1.561 . S
C1161 C1164 1.526 . S
C1162 H1146 0.959 . S
C1162 H1147 0.959 . S
C1162 H1148 0.961 . S
C1162 C1161 1.502 . S
C1163 H1149 0.960 . S
C1163 H1150 0.961 . S
C1163 H1151 0.959 . S
C1163 C1161 1.561 . S
C1164 C1161 1.526 . S
C1164 C1165 1.396 . S
C1164 C1169 1.390 . S
C1165 C1159 1.465 . S
C1165 C1164 1.396 . S
C1165 C1166 1.399 . S
C1166 H1152 0.929 . S
C1166 C1165 1.399 . S
C1166 C1167 1.385 . S
C1167 H1153 0.931 . S
C1167 C1166 1.385 . S
C1167 C1168 1.389 . S
C1168 C1167 1.389 . S
C1168 C1169 1.387 . S
C1169 H1154 0.930 . S
C1169 C1164 1.390 . S
C1169 C1168 1.387 . S
H1170 C1182 0.930 . S
H1171 C1184 0.930 . S
H1172 C1185 0.930 . S
H1173 C1189 0.959 . S
H1174 C1189 0.959 . S
H1175 C1189 0.961 1_556 S
H1176 C1190 0.960 . S
H1177 C1190 0.961 . S
H1178 C1190 0.959 . S
H1179 C1193 0.929 . S
H1180 C1194 0.931 . S
H1181 C1196 0.930 . S
C1182 H1170 0.930 . S
C1182 C1183 1.399 . S
C1182 C1187 1.399 . S
C1183 C1182 1.399 . S
C1183 C1184 1.376 . S
C1184 H1171 0.930 . S
C1184 C1183 1.376 . S
C1184 C1185 1.388 . S
C1185 H1172 0.930 . S
C1185 C1184 1.388 . S
C1185 C1186 1.390 . S
C1186 C1185 1.390 . S
C1186 C1187 1.394 . S
C1186 C1192 1.465 1_556 S
C1187 C1182 1.399 . S
C1187 C1186 1.394 . S
C1187 C1188 1.516 . S
C1188 C1187 1.516 . S
C1188 C1189 1.502 1_556 S
C1188 C1190 1.561 . S
C1188 C1191 1.526 1_556 S
C1189 H1173 0.959 . S
C1189 H1174 0.959 . S
C1189 H1175 0.961 1_554 S
C1189 C1188 1.502 1_554 S
C1190 H1176 0.960 . S
C1190 H1177 0.961 . S
C1190 H1178 0.959 . S
C1190 C1188 1.561 . S
C1191 C1188 1.526 1_554 S
C1191 C1192 1.396 . S
C1191 C1196 1.390 . S
C1192 C1186 1.465 1_554 S
C1192 C1191 1.396 . S
C1192 C1193 1.399 . S
C1193 H1179 0.929 . S
C1193 C1192 1.399 . S
C1193 C1194 1.385 . S
C1194 H1180 0.931 . S
C1194 C1193 1.385 . S
C1194 C1195 1.389 . S
C1195 C1194 1.389 . S
C1195 C1196 1.387 . S
C1196 H1181 0.930 . S
C1196 C1191 1.390 . S
C1196 C1195 1.387 . S
H1197 C1209 0.930 . S
H1198 C1211 0.930 . S
H1199 C1212 0.930 . S
H1200 C1216 0.959 1_655 S
H1201 C1216 0.959 . S
H1202 C1216 0.961 . S
H1203 C1217 0.960 . S
H1204 C1217 0.961 . S
H1205 C1217 0.959 . S
H1206 C1220 0.929 . S
H1207 C1221 0.931 . S
H1208 C1223 0.930 . S
C1209 H1197 0.930 . S
C1209 C1210 1.399 . S
C1209 C1214 1.399 . S
C1210 C1209 1.399 . S
C1210 C1211 1.376 . S
C1211 H1198 0.930 . S
C1211 C1210 1.376 . S
C1211 C1212 1.388 . S
C1212 H1199 0.930 . S
C1212 C1211 1.388 . S
C1212 C1213 1.390 . S
C1213 C1212 1.390 . S
C1213 C1214 1.394 . S
C1213 C1219 1.465 1_455 S
C1214 C1209 1.399 . S
C1214 C1213 1.394 . S
C1214 C1215 1.516 . S
C1215 C1214 1.516 . S
C1215 C1216 1.502 . S
C1215 C1217 1.561 . S
C1215 C1218 1.526 1_455 S
C1216 H1200 0.959 1_455 S
C1216 H1201 0.959 . S
C1216 H1202 0.961 . S
C1216 C1215 1.502 . S
C1217 H1203 0.960 . S
C1217 H1204 0.961 . S
C1217 H1205 0.959 . S
C1217 C1215 1.561 . S
C1218 C1215 1.526 1_655 S
C1218 C1219 1.396 . S
C1218 C1223 1.390 . S
C1219 C1213 1.465 1_655 S
C1219 C1218 1.396 . S
C1219 C1220 1.399 . S
C1220 H1206 0.929 . S
C1220 C1219 1.399 . S
C1220 C1221 1.385 . S
C1221 H1207 0.931 . S
C1221 C1220 1.385 . S
C1221 C1222 1.389 . S
C1222 C1221 1.389 . S
C1222 C1223 1.387 . S
C1223 H1208 0.930 . S
C1223 C1218 1.390 . S
C1223 C1222 1.387 . S
H1224 C1236 0.930 . S
H1225 C1238 0.930 . S
H1226 C1239 0.949 . S
H1227 C1243 0.959 . S
H1228 C1243 0.959 . S
H1229 C1243 0.961 . S
H1230 C1244 0.960 . S
H1231 C1244 0.961 . S
H1232 C1244 0.959 . S
H1233 C1247 0.951 . S
H1234 C1248 0.931 . S
H1235 C1250 0.930 . S
C1236 H1224 0.930 . S
C1236 C1237 1.399 . S
C1236 C1241 1.399 . S
C1237 C1236 1.399 . S
C1237 C1238 1.376 . S
C1238 H1225 0.930 . S
C1238 C1237 1.376 . S
C1238 C1239 1.372 1_565 S
C1239 H1226 0.949 . S
C1239 C1238 1.372 1_545 S
C1239 C1240 1.387 1_545 S
C1240 C1239 1.387 1_565 S
C1240 C1241 1.394 . S
C1240 C1246 1.465 1_564 S
C1241 C1236 1.399 . S
C1241 C1240 1.394 . S
C1241 C1242 1.516 1_554 S
C1242 C1241 1.516 1_556 S
C1242 C1243 1.502 . S
C1242 C1244 1.561 . S
C1242 C1245 1.526 1_565 S
C1243 H1227 0.959 . S
C1243 H1228 0.959 . S
C1243 H1229 0.961 . S
C1243 C1242 1.502 . S
C1244 H1230 0.960 . S
C1244 H1231 0.961 . S
C1244 H1232 0.959 . S
C1244 C1242 1.561 . S
C1245 C1242 1.526 1_545 S
C1245 C1246 1.396 . S
C1245 C1250 1.390 . S
C1246 C1240 1.465 1_546 S
C1246 C1245 1.396 . S
C1246 C1247 1.397 1_556 S
C1247 H1233 0.951 . S
C1247 C1246 1.397 1_554 S
C1247 C1248 1.365 1_554 S
C1248 H1234 0.931 . S
C1248 C1247 1.365 1_556 S
C1248 C1249 1.389 . S
C1249 C1248 1.389 . S
C1249 C1250 1.387 . S
C1250 H1235 0.930 . S
C1250 C1245 1.390 . S
C1250 C1249 1.387 . S
H1251 C1263 0.930 . S
H1252 C1265 0.930 . S
H1253 C1266 0.930 . S
H1254 C1270 0.959 . S
H1255 C1270 0.959 . S
H1256 C1270 0.961 . S
H1257 C1271 0.960 . S
H1258 C1271 0.961 . S
H1259 C1271 0.959 . S
H1260 C1274 0.929 . S
H1261 C1275 0.931 . S
H1262 C1277 0.930 . S
C1263 H1251 0.930 . S
C1263 C1264 1.399 . S
C1263 C1268 1.399 . S
C1264 C1263 1.399 . S
C1264 C1265 1.376 . S
C1265 H1252 0.930 . S
C1265 C1264 1.376 . S
C1265 C1266 1.388 . S
C1266 H1253 0.930 . S
C1266 C1265 1.388 . S
C1266 C1267 1.390 . S
C1267 C1266 1.390 . S
C1267 C1268 1.394 . S
C1267 C1273 1.465 . S
C1268 C1263 1.399 . S
C1268 C1267 1.394 . S
C1268 C1269 1.516 . S
C1269 C1268 1.516 . S
C1269 C1270 1.502 . S
C1269 C1271 1.561 . S
C1269 C1272 1.526 . S
C1270 H1254 0.959 . S
C1270 H1255 0.959 . S
C1270 H1256 0.961 . S
C1270 C1269 1.502 . S
C1271 H1257 0.960 . S
C1271 H1258 0.961 . S
C1271 H1259 0.959 . S
C1271 C1269 1.561 . S
C1272 C1269 1.526 . S
C1272 C1273 1.396 . S
C1272 C1277 1.390 . S
C1273 C1267 1.465 . S
C1273 C1272 1.396 . S
C1273 C1274 1.399 . S
C1274 H1260 0.929 . S
C1274 C1273 1.399 . S
C1274 C1275 1.385 . S
C1275 H1261 0.931 . S
C1275 C1274 1.385 . S
C1275 C1276 1.389 . S
C1276 C1275 1.389 . S
C1276 C1277 1.387 . S
C1277 H1262 0.930 . S
C1277 C1272 1.390 . S
C1277 C1276 1.387 . S
H1278 C1290 0.930 . S
H1279 C1292 0.930 . S
H1280 C1293 0.930 . S
H1281 C1297 0.959 . S
H1282 C1297 0.959 . S
H1283 C1297 0.961 . S
H1284 C1298 0.960 . S
H1285 C1298 0.983 . S
H1286 C1298 0.959 . S
H1287 C1301 0.929 . S
H1288 C1302 0.931 . S
H1289 C1304 0.930 . S
C1290 H1278 0.930 . S
C1290 C1291 1.399 . S
C1290 C1295 1.399 . S
C1291 C1290 1.399 . S
C1291 C1292 1.376 . S
C1292 H1279 0.930 . S
C1292 C1291 1.376 . S
C1292 C1293 1.388 . S
C1293 H1280 0.930 . S
C1293 C1292 1.388 . S
C1293 C1294 1.390 . S
C1294 C1293 1.390 . S
C1294 C1295 1.394 . S
C1294 C1300 1.465 1_656 S
C1295 C1290 1.399 . S
C1295 C1294 1.394 . S
C1295 C1296 1.516 1_556 S
C1296 C1295 1.516 1_554 S
C1296 C1297 1.502 . S
C1296 C1298 1.561 1_654 S
C1296 C1299 1.526 1_655 S
C1297 H1281 0.959 . S
C1297 H1282 0.959 . S
C1297 H1283 0.961 . S
C1297 C1296 1.502 . S
C1298 H1284 0.960 . S
C1298 H1285 0.983 . S
C1298 H1286 0.959 . S
C1298 C1296 1.561 1_456 S
C1299 C1296 1.526 1_455 S
C1299 C1300 1.396 . S
C1299 C1304 1.390 . S
C1300 C1294 1.465 1_454 S
C1300 C1299 1.396 . S
C1300 C1301 1.399 . S
C1301 H1287 0.929 . S
C1301 C1300 1.399 . S
C1301 C1302 1.385 . S
C1302 H1288 0.931 . S
C1302 C1301 1.385 . S
C1302 C1303 1.389 . S
C1303 C1302 1.389 . S
C1303 C1304 1.387 . S
C1304 H1289 0.930 . S
C1304 C1299 1.390 . S
C1304 C1303 1.387 . S
H1305 C1317 0.930 . S
H1306 C1319 0.930 . S
H1307 C1320 0.930 . S
H1308 C1324 0.959 . S
H1309 C1324 0.959 . S
H1310 C1324 0.961 . S
H1311 C1325 0.960 . S
H1312 C1325 0.961 . S
H1313 C1325 0.959 1_565 S
H1314 C1328 0.929 1_565 S
H1315 C1329 0.931 . S
H1316 C1331 0.930 . S
C1317 H1305 0.930 . S
C1317 C1318 1.399 . S
C1317 C1322 1.399 . S
C1318 C1317 1.399 . S
C1318 C1319 1.376 . S
C1319 H1306 0.930 . S
C1319 C1318 1.376 . S
C1319 C1320 1.388 . S
C1320 H1307 0.930 . S
C1320 C1319 1.388 . S
C1320 C1321 1.390 . S
C1321 C1320 1.390 . S
C1321 C1322 1.394 . S
C1321 C1327 1.465 1_565 S
C1322 C1317 1.399 . S
C1322 C1321 1.394 . S
C1322 C1323 1.516 1_565 S
C1323 C1322 1.516 1_545 S
C1323 C1324 1.502 . S
C1323 C1325 1.561 . S
C1323 C1326 1.526 . S
C1324 H1308 0.959 . S
C1324 H1309 0.959 . S
C1324 H1310 0.961 . S
C1324 C1323 1.502 . S
C1325 H1311 0.960 . S
C1325 H1312 0.961 . S
C1325 H1313 0.959 1_545 S
C1325 C1323 1.561 . S
C1326 C1323 1.526 . S
C1326 C1327 1.396 . S
C1326 C1331 1.390 . S
C1327 C1321 1.465 1_545 S
C1327 C1326 1.396 . S
C1327 C1328 1.399 . S
C1328 H1314 0.929 1_545 S
C1328 C1327 1.399 . S
C1328 C1329 1.385 . S
C1329 H1315 0.931 . S
C1329 C1328 1.385 . S
C1329 C1330 1.389 . S
C1330 C1329 1.389 . S
C1330 C1331 1.387 . S
C1331 H1316 0.930 . S
C1331 C1326 1.390 . S
C1331 C1330 1.387 . S
C373 C147 0.923 . S
C385 N14 0.916 . S
C400 N156 0.735 . S
C412 C46 0.861 . S
C427 N74 0.948 . S
C439 C27 0.908 . S
C454 C106 0.756 . S
C466 N36 0.880 1_565 S
C481 N134 0.942 . S
C493 C87 0.909 . S
C508 N96 0.882 1_455 S
C520 C166 0.756 . S
C535 N246 0.802 1_655 S
C547 C196 0.819 . S
C562 C226 0.754 . S
C574 N276 0.880 1_565 S
C589 N306 0.863 . S
C601 C256 0.769 . S
C616 C286 0.758 . S
C628 N336 0.877 1_455 S
C643 C316 0.822 . S
C655 N186 0.790 1_545 S
C670 N216 0.824 . S
C682 C346 0.797 . S
C697 C136 1.163 . S
C709 N6 1.168 . S
C724 C57 1.260 . S
C736 N164 1.162 . S
C751 N66 1.156 . S
C763 C16 1.126 . S
C778 C117 1.250 . S
C790 N44 1.195 . S
C805 C76 1.141 . S
C817 N126 1.176 . S
C832 N104 1.185 . S
C844 C177 1.254 . S
C859 N254 1.203 . S
C871 C207 1.244 . S
C886 C237 1.260 . S
C898 N284 1.164 . S
C913 C267 1.246 . S
C925 N314 1.181 . S
C940 N344 1.229 . S
C952 C297 1.223 . S
C967 C327 1.261 . S
C979 N194 1.168 . S
C994 N224 1.224 . S
C1006 C357 1.225 . S
C1021 C301 1.601 . S
C1033 C10 1.625 . S
C1048 C31 1.626 . S
C1060 C331 1.599 . S
C1075 C70 1.626 . S
C1087 C181 1.608 . S
C1102 C91 1.623 . S
C1114 C211 1.601 . S
C1129 C130 1.622 . S
C1141 C241 1.596 . S
C1156 C271 1.595 . S
C1168 C151 1.629 . S
C1183 C280 1.889 . S
C1195 C1 1.844 . S
C1210 C310 1.907 . S
C1222 C40 1.923 . S
C1237 C61 1.807 . S
C1249 C340 1.932 . S
C1264 C100 1.888 . S
C1276 C190 1.932 . S
C1291 C220 1.883 . S
C1303 C121 1.856 . S
C1318 C250 1.932 . S
C1330 C160 1.887 . S
