# Generated by pormake.
# Topology ukm, (4)-cn, num edge types: 1
# Building blocks:
#     Node 0, Type 0, BuildingBlock: GALJAG_clean_sbu_0, # of connection points: 4
#     Node 1, Type 0, BuildingBlock: GALJAG_clean_sbu_0, # of connection points: 4
#     Node 2, Type 0, BuildingBlock: GALJAG_clean_sbu_0, # of connection points: 4
#     Node 3, Type 0, BuildingBlock: GALJAG_clean_sbu_0, # of connection points: 4
#     Node 4, Type 0, BuildingBlock: GALJAG_clean_sbu_0, # of connection points: 4
#     Node 5, Type 0, BuildingBlock: GALJAG_clean_sbu_0, # of connection points: 4
#     Node 6, Type 0, BuildingBlock: GALJAG_clean_sbu_0, # of connection points: 4
#     Node 7, Type 0, BuildingBlock: GALJAG_clean_sbu_0, # of connection points: 4
#     Node 8, Type 0, BuildingBlock: GALJAG_clean_sbu_0, # of connection points: 4
#     Node 9, Type 0, BuildingBlock: GALJAG_clean_sbu_0, # of connection points: 4
#     Node 10, Type 0, BuildingBlock: GALJAG_clean_sbu_0, # of connection points: 4
#     Node 11, Type 0, BuildingBlock: GALJAG_clean_sbu_0, # of connection points: 4
#     Node 12, Type 0, BuildingBlock: GALJAG_clean_sbu_0, # of connection points: 4
#     Node 13, Type 0, BuildingBlock: GALJAG_clean_sbu_0, # of connection points: 4
#     Node 14, Type 0, BuildingBlock: GALJAG_clean_sbu_0, # of connection points: 4
#     Node 15, Type 0, BuildingBlock: GALJAG_clean_sbu_0, # of connection points: 4
#     Node 16, Type 0, BuildingBlock: GALJAG_clean_sbu_0, # of connection points: 4
#     Node 17, Type 0, BuildingBlock: GALJAG_clean_sbu_0, # of connection points: 4
#     Node 18, Type 0, BuildingBlock: GALJAG_clean_sbu_0, # of connection points: 4
#     Node 19, Type 0, BuildingBlock: GALJAG_clean_sbu_0, # of connection points: 4
#     Node 20, Type 0, BuildingBlock: GALJAG_clean_sbu_0, # of connection points: 4
#     Node 21, Type 0, BuildingBlock: GALJAG_clean_sbu_0, # of connection points: 4
#     Node 22, Type 0, BuildingBlock: GALJAG_clean_sbu_0, # of connection points: 4
#     Node 23, Type 0, BuildingBlock: GALJAG_clean_sbu_0, # of connection points: 4
#     Node 24, Type 0, BuildingBlock: GALJAG_clean_sbu_0, # of connection points: 4
#     Node 25, Type 0, BuildingBlock: GALJAG_clean_sbu_0, # of connection points: 4
#     Node 26, Type 0, BuildingBlock: GALJAG_clean_sbu_0, # of connection points: 4
#     Node 27, Type 0, BuildingBlock: GALJAG_clean_sbu_0, # of connection points: 4
#     Node 28, Type 0, BuildingBlock: GALJAG_clean_sbu_0, # of connection points: 4
#     Node 29, Type 0, BuildingBlock: GALJAG_clean_sbu_0, # of connection points: 4
#     Node 30, Type 0, BuildingBlock: GALJAG_clean_sbu_0, # of connection points: 4
#     Node 31, Type 0, BuildingBlock: GALJAG_clean_sbu_0, # of connection points: 4
#     Edge 32, Type (0, 0), BuildingBlock: CIFDUS_clean_linker_0, # of connection points: 2
#     Edge 33, Type (0, 0), BuildingBlock: CIFDUS_clean_linker_0, # of connection points: 2
#     Edge 34, Type (0, 0), BuildingBlock: CIFDUS_clean_linker_0, # of connection points: 2
#     Edge 35, Type (0, 0), BuildingBlock: CIFDUS_clean_linker_0, # of connection points: 2
#     Edge 36, Type (0, 0), BuildingBlock: CIFDUS_clean_linker_0, # of connection points: 2
#     Edge 37, Type (0, 0), BuildingBlock: CIFDUS_clean_linker_0, # of connection points: 2
#     Edge 38, Type (0, 0), BuildingBlock: CIFDUS_clean_linker_0, # of connection points: 2
#     Edge 39, Type (0, 0), BuildingBlock: CIFDUS_clean_linker_0, # of connection points: 2
#     Edge 40, Type (0, 0), BuildingBlock: CIFDUS_clean_linker_0, # of connection points: 2
#     Edge 41, Type (0, 0), BuildingBlock: CIFDUS_clean_linker_0, # of connection points: 2
#     Edge 42, Type (0, 0), BuildingBlock: CIFDUS_clean_linker_0, # of connection points: 2
#     Edge 43, Type (0, 0), BuildingBlock: CIFDUS_clean_linker_0, # of connection points: 2
#     Edge 44, Type (0, 0), BuildingBlock: CIFDUS_clean_linker_0, # of connection points: 2
#     Edge 45, Type (0, 0), BuildingBlock: CIFDUS_clean_linker_0, # of connection points: 2
#     Edge 46, Type (0, 0), BuildingBlock: CIFDUS_clean_linker_0, # of connection points: 2
#     Edge 47, Type (0, 0), BuildingBlock: CIFDUS_clean_linker_0, # of connection points: 2
#     Edge 48, Type (0, 0), BuildingBlock: CIFDUS_clean_linker_0, # of connection points: 2
#     Edge 49, Type (0, 0), BuildingBlock: CIFDUS_clean_linker_0, # of connection points: 2
#     Edge 50, Type (0, 0), BuildingBlock: CIFDUS_clean_linker_0, # of connection points: 2
#     Edge 51, Type (0, 0), BuildingBlock: CIFDUS_clean_linker_0, # of connection points: 2
#     Edge 52, Type (0, 0), BuildingBlock: CIFDUS_clean_linker_0, # of connection points: 2
#     Edge 53, Type (0, 0), BuildingBlock: CIFDUS_clean_linker_0, # of connection points: 2
#     Edge 54, Type (0, 0), BuildingBlock: CIFDUS_clean_linker_0, # of connection points: 2
#     Edge 55, Type (0, 0), BuildingBlock: CIFDUS_clean_linker_0, # of connection points: 2
#     Edge 56, Type (0, 0), BuildingBlock: CIFDUS_clean_linker_0, # of connection points: 2
#     Edge 57, Type (0, 0), BuildingBlock: CIFDUS_clean_linker_0, # of connection points: 2
#     Edge 58, Type (0, 0), BuildingBlock: CIFDUS_clean_linker_0, # of connection points: 2
#     Edge 59, Type (0, 0), BuildingBlock: CIFDUS_clean_linker_0, # of connection points: 2
#     Edge 60, Type (0, 0), BuildingBlock: CIFDUS_clean_linker_0, # of connection points: 2
#     Edge 61, Type (0, 0), BuildingBlock: CIFDUS_clean_linker_0, # of connection points: 2
#     Edge 62, Type (0, 0), BuildingBlock: CIFDUS_clean_linker_0, # of connection points: 2
#     Edge 63, Type (0, 0), BuildingBlock: CIFDUS_clean_linker_0, # of connection points: 2
#     Edge 64, Type (0, 0), BuildingBlock: CIFDUS_clean_linker_0, # of connection points: 2
#     Edge 65, Type (0, 0), BuildingBlock: CIFDUS_clean_linker_0, # of connection points: 2
#     Edge 66, Type (0, 0), BuildingBlock: CIFDUS_clean_linker_0, # of connection points: 2
#     Edge 67, Type (0, 0), BuildingBlock: CIFDUS_clean_linker_0, # of connection points: 2
#     Edge 68, Type (0, 0), BuildingBlock: CIFDUS_clean_linker_0, # of connection points: 2
#     Edge 69, Type (0, 0), BuildingBlock: CIFDUS_clean_linker_0, # of connection points: 2
#     Edge 70, Type (0, 0), BuildingBlock: CIFDUS_clean_linker_0, # of connection points: 2
#     Edge 71, Type (0, 0), BuildingBlock: CIFDUS_clean_linker_0, # of connection points: 2
#     Edge 72, Type (0, 0), BuildingBlock: CIFDUS_clean_linker_0, # of connection points: 2
#     Edge 73, Type (0, 0), BuildingBlock: CIFDUS_clean_linker_0, # of connection points: 2
#     Edge 74, Type (0, 0), BuildingBlock: CIFDUS_clean_linker_0, # of connection points: 2
#     Edge 75, Type (0, 0), BuildingBlock: CIFDUS_clean_linker_0, # of connection points: 2
#     Edge 76, Type (0, 0), BuildingBlock: CIFDUS_clean_linker_0, # of connection points: 2
#     Edge 77, Type (0, 0), BuildingBlock: CIFDUS_clean_linker_0, # of connection points: 2
#     Edge 78, Type (0, 0), BuildingBlock: CIFDUS_clean_linker_0, # of connection points: 2
#     Edge 79, Type (0, 0), BuildingBlock: CIFDUS_clean_linker_0, # of connection points: 2
#     Edge 80, Type (0, 0), BuildingBlock: CIFDUS_clean_linker_0, # of connection points: 2
#     Edge 81, Type (0, 0), BuildingBlock: CIFDUS_clean_linker_0, # of connection points: 2
#     Edge 82, Type (0, 0), BuildingBlock: CIFDUS_clean_linker_0, # of connection points: 2
#     Edge 83, Type (0, 0), BuildingBlock: CIFDUS_clean_linker_0, # of connection points: 2
#     Edge 84, Type (0, 0), BuildingBlock: CIFDUS_clean_linker_0, # of connection points: 2
#     Edge 85, Type (0, 0), BuildingBlock: CIFDUS_clean_linker_0, # of connection points: 2
#     Edge 86, Type (0, 0), BuildingBlock: CIFDUS_clean_linker_0, # of connection points: 2
#     Edge 87, Type (0, 0), BuildingBlock: CIFDUS_clean_linker_0, # of connection points: 2
#     Edge 88, Type (0, 0), BuildingBlock: CIFDUS_clean_linker_0, # of connection points: 2
#     Edge 89, Type (0, 0), BuildingBlock: CIFDUS_clean_linker_0, # of connection points: 2
#     Edge 90, Type (0, 0), BuildingBlock: CIFDUS_clean_linker_0, # of connection points: 2
#     Edge 91, Type (0, 0), BuildingBlock: CIFDUS_clean_linker_0, # of connection points: 2
#     Edge 92, Type (0, 0), BuildingBlock: CIFDUS_clean_linker_0, # of connection points: 2
#     Edge 93, Type (0, 0), BuildingBlock: CIFDUS_clean_linker_0, # of connection points: 2
#     Edge 94, Type (0, 0), BuildingBlock: CIFDUS_clean_linker_0, # of connection points: 2
#     Edge 95, Type (0, 0), BuildingBlock: CIFDUS_clean_linker_0, # of connection points: 2
# Relax obj value: 0.098
# Max RMSD: 0.122
# Mean RMSD: 0.122
data_MOF--net-ukm--node1-GALJAG_clean_sbu_0--edge1-CIFDUS_clean_linker_0
_symmetry_space_group_name_H-M    P1
_symmetry_Int_Tables_number       1
_symmetry_cell_setting            triclinic
loop_
_symmetry_equiv_pos_as_xyz
'x, y, z'
_cell_length_a     22.03465
_cell_length_b     90.044311
_cell_length_c     39.527112
_cell_angle_alpha  89.958344
_cell_angle_beta   89.962537
_cell_angle_gamma 89.961798
loop_
_atom_site_label
_atom_site_type_symbol
_atom_site_fract_x
_atom_site_fract_y
_atom_site_fract_z
_atom_type_partial_charge
In0 In 0.10502 0.31342 0.28942 0.0
O1 O 0.04818 0.32563 0.32919 0.0
O2 O 0.09078 0.33828 0.29043 0.0
C3 C 0.0528 0.28649 0.28304 0.0
C4 C 0.20584 0.31094 0.32781 0.0
C5 C 0.10667 0.32007 0.2234 0.0
O6 O 0.02394 0.29763 0.29392 0.0
O7 O 0.10812 0.28884 0.27705 0.0
O8 O 0.1548 0.31789 0.24011 0.0
O9 O 0.05806 0.31903 0.24019 0.0
C10 C 0.05835 0.3383 0.31666 0.0
O11 O 0.20779 0.3138 0.29657 0.0
O12 O 0.15315 0.30904 0.33951 0.0
In13 In 0.09805 0.93354 0.27843 0.0
O14 O 0.99468 0.93364 0.27712 0.0
O15 O 0.03753 0.93732 0.32452 0.0
C16 C 0.10184 0.92288 0.21501 0.0
C17 C 0.15318 0.91316 0.31804 0.0
C18 C 0.14196 0.96115 0.2673 0.0
O19 O 0.05431 0.92247 0.23283 0.0
O20 O 0.14777 0.92824 0.22962 0.0
O21 O 0.17526 0.95044 0.27614 0.0
O22 O 0.08633 0.95808 0.26544 0.0
C23 C 0.98844 0.93604 0.30836 0.0
O24 O 0.15152 0.92677 0.32553 0.0
O25 O 0.12788 0.9099 0.29044 0.0
In26 In 0.12891 0.93374 0.95236 0.0
O27 O 0.07263 0.92358 0.90965 0.0
O28 O 0.11259 0.90902 0.94559 0.0
C29 C 0.07199 0.95977 0.96454 0.0
C30 C 0.22857 0.93808 0.91383 0.0
C31 C 0.14059 0.92502 0.01691 0.0
O32 O 0.04441 0.94856 0.95319 0.0
O33 O 0.1282 0.95797 0.96852 0.0
O34 O 0.18543 0.92889 -0.00096 0.0
O35 O 0.08994 0.92531 0.00195 0.0
C36 C 0.08125 0.91036 0.91912 0.0
O37 O 0.23108 0.9331 0.9436 0.0
O38 O 0.17582 0.94113 0.90359 0.0
In39 In 0.1472 0.3138 0.95949 0.0
O40 O 0.04388 0.31377 0.96113 0.0
O41 O 0.08608 0.30929 0.91391 0.0
C42 C 0.15473 0.32126 0.025 0.0
C43 C 0.19168 0.33732 0.92517 0.0
C44 C 0.19786 0.28658 0.96464 0.0
O45 O 0.10501 0.32087 0.00915 0.0
O46 O 0.20109 0.31828 0.00747 0.0
O47 O 0.22696 0.29769 0.95386 0.0
O48 O 0.1429 0.2891 0.97124 0.0
C49 C 0.0372 0.3109 0.93015 0.0
O50 O 0.19608 0.32421 0.91419 0.0
O51 O 0.16627 0.33846 0.95361 0.0
In52 In 0.90044 0.68398 0.69427 0.0
O53 O 0.7972 0.68517 0.69158 0.0
O54 O 0.84635 0.68756 0.64566 0.0
C55 C 0.90259 0.67787 0.76059 0.0
C56 C 0.94372 0.65871 0.66688 0.0
C57 C 0.95541 0.71071 0.69782 0.0
O58 O 0.85358 0.67895 0.74413 0.0
O59 O 0.95035 0.67969 0.74339 0.0
O60 O 0.98278 0.69926 0.68747 0.0
O61 O 0.90013 0.70876 0.70455 0.0
C62 C 0.79521 0.68705 0.65997 0.0
O63 O 0.95054 0.67116 0.65266 0.0
O64 O 0.91608 0.65912 0.69474 0.0
In65 In 0.85594 0.06619 0.70612 0.0
O66 O 0.79459 0.07889 0.66919 0.0
O67 O 0.84436 0.09118 0.70575 0.0
C68 C 0.80716 0.03879 0.71088 0.0
C69 C 0.95509 0.06372 0.6661 0.0
C70 C 0.85424 0.0719 0.7727 0.0
O71 O 0.77742 0.04977 0.6998 0.0
O72 O 0.86173 0.04156 0.71797 0.0
O73 O 0.90324 0.07114 0.75606 0.0
O74 O 0.80654 0.06999 0.75556 0.0
C75 C 0.80783 0.09147 0.68126 0.0
O76 O 0.95878 0.06583 0.69762 0.0
O77 O 0.90164 0.06269 0.65497 0.0
In78 In 0.90294 0.06512 0.03773 0.0
O79 O 0.8177 0.07739 0.05494 0.0
O80 O 0.82491 0.05453 0.06752 0.0
C81 C 0.90191 0.07248 0.97166 0.0
C82 C 0.96387 0.08483 0.07586 0.0
C83 C 0.95245 0.03787 0.03175 0.0
O84 O 0.85388 0.06993 0.98808 0.0
O85 O 0.95002 0.07164 0.98877 0.0
O86 O 0.97964 0.04844 0.04627 0.0
O87 O 0.89968 0.04093 0.02161 0.0
C88 C 0.79423 0.06634 0.06949 0.0
O89 O 0.94893 0.07218 0.08694 0.0
O90 O 0.95019 0.08716 0.04534 0.0
In91 In 0.85989 0.67914 0.02639 0.0
O92 O 0.96322 0.67863 0.02969 0.0
O93 O 0.91405 0.6822 0.07519 0.0
C94 C 0.85634 0.67443 0.9595 0.0
C95 C 0.81232 0.65396 0.05223 0.0
C96 C 0.81038 0.70658 0.02482 0.0
O97 O 0.90556 0.67491 0.97587 0.0
O98 O 0.8089 0.67604 0.97707 0.0
O99 O 0.78083 0.69533 0.03446 0.0
O100 O 0.86508 0.70403 0.01762 0.0
C101 C 0.96521 0.68077 0.0612 0.0
O102 O 0.80495 0.66643 0.06626 0.0
O103 O 0.84269 0.6543 0.02525 0.0
In104 In 0.14032 0.81282 0.78502 0.0
O105 O 0.09654 0.8206 0.83442 0.0
O106 O 0.1092 0.83645 0.79523 0.0
C107 C 0.08174 0.78721 0.77007 0.0
C108 C 0.24664 0.80725 0.81643 0.0
C109 C 0.15299 0.82625 0.72484 0.0
O110 O 0.05514 0.79824 0.78287 0.0
O111 O 0.13792 0.7889 0.76605 0.0
O112 O 0.19701 0.82431 0.74478 0.0
O113 O 0.10235 0.82169 0.73565 0.0
C114 C 0.09104 0.83391 0.8249 0.0
O115 O 0.24222 0.80849 0.78478 0.0
O116 O 0.19716 0.80845 0.83225 0.0
In117 In 0.11684 0.43563 0.79626 0.0
O118 O 0.16414 0.42776 0.84477 0.0
O119 O 0.15112 0.4122 0.80512 0.0
C120 C 0.16176 0.46333 0.78781 0.0
C121 C 0.00426 0.43773 0.82234 0.0
C122 C 0.12024 0.4253 0.73271 0.0
O123 O 0.19526 0.45229 0.79395 0.0
O124 O 0.10584 0.46051 0.78778 0.0
O125 O 0.07438 0.42368 0.7515 0.0
O126 O 0.1646 0.43184 0.74629 0.0
C127 C 0.17061 0.41457 0.83455 0.0
O128 O 0.01435 0.4371 0.79097 0.0
O129 O 0.05114 0.43745 0.8407 0.0
In130 In 0.13404 0.42946 0.46799 0.0
O131 O 0.23247 0.42281 0.4605 0.0
O132 O 0.19232 0.43639 0.42262 0.0
C133 C 0.15039 0.42409 0.53397 0.0
C134 C 0.07827 0.40631 0.43815 0.0
C135 C 0.07559 0.45574 0.47424 0.0
O136 O 0.19209 0.42905 0.51521 0.0
O137 O 0.10042 0.42172 0.5193 0.0
O138 O 0.04906 0.44403 0.46508 0.0
O139 O 0.13183 0.45434 0.47881 0.0
C140 C 0.23898 0.42959 0.43284 0.0
O141 O 0.08581 0.41859 0.42336 0.0
O142 O 0.09816 0.40581 0.468 0.0
In143 In 0.14159 0.81915 0.46664 0.0
O144 O 0.18835 0.82682 0.418 0.0
O145 O 0.1641 0.84316 0.45435 0.0
C146 C 0.19672 0.79289 0.47945 0.0
C147 C 0.03396 0.81336 0.43706 0.0
C148 C 0.13607 0.83158 0.52818 0.0
O149 O 0.22543 0.80392 0.46797 0.0
O150 O 0.1407 0.79501 0.48311 0.0
O151 O 0.0905 0.83066 0.50897 0.0
O152 O 0.18501 0.82668 0.51577 0.0
C153 C 0.18647 0.84042 0.42566 0.0
O154 O 0.04023 0.81409 0.4687 0.0
O155 O 0.08204 0.81536 0.42036 0.0
In156 In 0.88887 0.18115 0.20495 0.0
O157 O 0.93652 0.17299 0.15714 0.0
O158 O 0.93392 0.15857 0.19962 0.0
C159 C 0.93979 0.20812 0.21422 0.0
C160 C 0.78092 0.18047 0.17297 0.0
C161 C 0.8748 0.17406 0.2704 0.0
O162 O 0.96929 0.19714 0.20322 0.0
O163 O 0.8842 0.20567 0.21908 0.0
O164 O 0.83101 0.17745 0.25141 0.0
O165 O 0.92619 0.17405 0.25625 0.0
C166 C 0.95015 0.16047 0.16935 0.0
O167 O 0.79558 0.17147 0.19598 0.0
O168 O 0.82134 0.18986 0.16541 0.0
In169 In 0.86593 0.55975 0.1957 0.0
O170 O 0.9685 0.56198 0.19042 0.0
O171 O 0.91698 0.55775 0.14589 0.0
C172 C 0.86234 0.56551 0.26211 0.0
C173 C 0.81178 0.58373 0.16833 0.0
C174 C 0.82707 0.5314 0.20014 0.0
O175 O 0.91181 0.56481 0.24593 0.0
O176 O 0.81518 0.5635 0.24461 0.0
O177 O 0.79129 0.54206 0.19427 0.0
O178 O 0.88219 0.53498 0.20181 0.0
C179 C 0.96858 0.55999 0.15878 0.0
O180 O 0.80654 0.57096 0.15539 0.0
O181 O 0.84301 0.58422 0.19497 0.0
In182 In 0.89008 0.56141 0.52846 0.0
O183 O 0.94055 0.57468 0.569 0.0
O184 O 0.90414 0.58634 0.52686 0.0
C185 C 0.94474 0.53458 0.52926 0.0
C186 C 0.78212 0.55891 0.56046 0.0
C187 C 0.89807 0.56633 0.46174 0.0
O188 O 0.97124 0.54622 0.53916 0.0
O189 O 0.89022 0.53643 0.52069 0.0
O190 O 0.84789 0.5661 0.47723 0.0
O191 O 0.94424 0.56431 0.48008 0.0
C192 C 0.93285 0.58701 0.55435 0.0
O193 O 0.7868 0.55963 0.5287 0.0
O194 O 0.83195 0.55928 0.57613 0.0
In195 In 0.86875 0.1835 0.53477 0.0
O196 O 0.80798 0.17339 0.57597 0.0
O197 O 0.83642 0.15958 0.53547 0.0
C198 C 0.82834 0.21157 0.52508 0.0
C199 C 0.96693 0.18391 0.57515 0.0
C200 C 0.88454 0.17567 0.47007 0.0
O201 O 0.7927 0.20075 0.52913 0.0
O202 O 0.88368 0.20832 0.5276 0.0
O203 O 0.92821 0.17629 0.49072 0.0
O204 O 0.83315 0.17881 0.4823 0.0
C205 C 0.80761 0.16061 0.56286 0.0
O206 O 0.97035 0.18174 0.54367 0.0
O207 O 0.9139 0.18601 0.58628 0.0
In208 In 0.62716 0.30929 0.78778 0.0
O209 O 0.73016 0.31118 0.78582 0.0
O210 O 0.68918 0.30707 0.83367 0.0
C211 C 0.6126 0.31653 0.72242 0.0
C212 C 0.57244 0.33158 0.82163 0.0
C213 C 0.59046 0.28075 0.78339 0.0
O214 O 0.66351 0.31716 0.73703 0.0
O215 O 0.56907 0.31247 0.74097 0.0
O216 O 0.55473 0.29118 0.79107 0.0
O217 O 0.64491 0.28463 0.77959 0.0
C218 C 0.73755 0.30907 0.81713 0.0
O219 O 0.57084 0.31831 0.83199 0.0
O220 O 0.60124 0.33348 0.79443 0.0
In221 In 0.64706 0.93184 0.7809 0.0
O222 O 0.54492 0.93389 0.78927 0.0
O223 O 0.60254 0.93603 0.83207 0.0
C224 C 0.64174 0.92432 0.71545 0.0
C225 C 0.69154 0.90661 0.80808 0.0
C226 C 0.69993 0.95866 0.77276 0.0
O227 O 0.59459 0.9262 0.7332 0.0
O228 O 0.69137 0.92611 0.73091 0.0
O229 O 0.7289 0.94757 0.78388 0.0
O230 O 0.64454 0.95629 0.7672 0.0
C231 C 0.54903 0.93589 0.82077 0.0
O232 O 0.70608 0.91926 0.81932 0.0
O233 O 0.6558 0.90683 0.78324 0.0
In234 In 0.58273 0.9299 0.45349 0.0
O235 O 0.68602 0.93019 0.45421 0.0
O236 O 0.6424 0.93554 0.40789 0.0
C237 C 0.5795 0.92174 0.51866 0.0
C238 C 0.53912 0.9065 0.41836 0.0
C239 C 0.53078 0.95686 0.4612 0.0
O240 O 0.6281 0.92228 0.50175 0.0
O241 O 0.53192 0.92487 0.50228 0.0
O242 O 0.50191 0.9459 0.44948 0.0
O243 O 0.58585 0.95433 0.46739 0.0
C244 C 0.69176 0.93376 0.42354 0.0
O245 O 0.53544 0.91964 0.40743 0.0
O246 O 0.56303 0.9053 0.44716 0.0
In247 In 0.63022 0.31434 0.45634 0.0
O248 O 0.52751 0.31539 0.44943 0.0
O249 O 0.58232 0.31149 0.40591 0.0
C250 C 0.63536 0.32023 0.52267 0.0
C251 C 0.68024 0.33886 0.42926 0.0
C252 C 0.67067 0.28613 0.46101 0.0
O253 O 0.58538 0.31899 0.50718 0.0
O254 O 0.68208 0.31869 0.50452 0.0
O255 O 0.7059 0.29683 0.45446 0.0
O256 O 0.61553 0.28963 0.46347 0.0
C257 C 0.52961 0.31314 0.41788 0.0
O258 O 0.69205 0.32603 0.418 0.0
O259 O 0.64429 0.33916 0.45407 0.0
In260 In 0.35217 0.68089 0.22265 0.0
O261 O 0.24899 0.67915 0.22003 0.0
O262 O 0.29683 0.68362 0.17437 0.0
C263 C 0.35965 0.67549 0.28932 0.0
C264 C 0.40384 0.65691 0.19379 0.0
C265 C 0.39728 0.70876 0.22501 0.0
O266 O 0.30925 0.67671 0.27431 0.0
O267 O 0.40565 0.67676 0.27055 0.0
O268 O 0.43022 0.69754 0.21967 0.0
O269 O 0.34142 0.706 0.22738 0.0
C270 C 0.2462 0.68151 0.18856 0.0
O271 O 0.41058 0.66983 0.18189 0.0
O272 O 0.37131 0.65618 0.21997 0.0
In273 In 0.37127 0.06039 0.19966 0.0
O274 O 0.46718 0.06889 0.18836 0.0
O275 O 0.43802 0.04912 0.16394 0.0
C276 C 0.36408 0.06811 0.26521 0.0
C277 C 0.31693 0.08135 0.16141 0.0
C278 C 0.32571 0.03304 0.2096 0.0
O279 O 0.41442 0.06591 0.25065 0.0
O280 O 0.31815 0.06672 0.24649 0.0
O281 O 0.29446 0.04334 0.19652 0.0
O282 O 0.37983 0.03647 0.21633 0.0
C283 C 0.47975 0.05852 0.16804 0.0
O284 O 0.32173 0.06806 0.15155 0.0
O285 O 0.33804 0.0838 0.19045 0.0
In286 In 0.37572 0.0637 0.53194 0.0
O287 O 0.27256 0.06454 0.53963 0.0
O288 O 0.32804 0.0599 0.58229 0.0
C289 C 0.38502 0.0694 0.46556 0.0
C290 C 0.42527 0.08855 0.55758 0.0
C291 C 0.4215 0.03603 0.52754 0.0
O292 O 0.33409 0.06847 0.48027 0.0
O293 O 0.43056 0.06771 0.48453 0.0
O294 O 0.451 0.04663 0.54046 0.0
O295 O 0.36826 0.03927 0.51851 0.0
C296 C 0.27514 0.06186 0.57098 0.0
O297 O 0.4387 0.07581 0.56875 0.0
O298 O 0.38744 0.08865 0.53367 0.0
In299 In 0.3507 0.68647 0.55461 0.0
O300 O 0.4543 0.68564 0.55602 0.0
O301 O 0.40779 0.69139 0.60127 0.0
C302 C 0.33835 0.67899 0.48936 0.0
C303 C 0.30617 0.66265 0.58762 0.0
C304 C 0.30369 0.714 0.54877 0.0
O305 O 0.38965 0.68014 0.50344 0.0
O306 O 0.29339 0.68135 0.50845 0.0
O307 O 0.27393 0.70335 0.56131 0.0
O308 O 0.3575 0.71087 0.5407 0.0
C309 C 0.45804 0.68908 0.5869 0.0
O310 O 0.29777 0.67574 0.59815 0.0
O311 O 0.3356 0.66171 0.56038 0.0
In312 In 0.62654 0.80813 0.29343 0.0
O313 O 0.57654 0.81624 0.34071 0.0
O314 O 0.58489 0.83109 0.29928 0.0
C315 C 0.5752 0.78108 0.28503 0.0
C316 C 0.73427 0.81013 0.32506 0.0
C317 C 0.6475 0.81406 0.22799 0.0
O318 O 0.5451 0.79296 0.28314 0.0
O319 O 0.63013 0.78283 0.29275 0.0
O320 O 0.68518 0.80737 0.24654 0.0
O321 O 0.5987 0.8178 0.24248 0.0
C322 C 0.56651 0.82907 0.32911 0.0
O323 O 0.72249 0.81684 0.29784 0.0
O324 O 0.69122 0.80244 0.33684 0.0
In325 In 0.62791 0.42902 0.2734 0.0
O326 O 0.52476 0.42975 0.27574 0.0
O327 O 0.57332 0.43033 0.32226 0.0
C328 C 0.62534 0.42034 0.20869 0.0
C329 C 0.68281 0.40618 0.30518 0.0
C330 C 0.66972 0.45708 0.26563 0.0
O331 O 0.57798 0.42101 0.22665 0.0
O332 O 0.67385 0.42391 0.22356 0.0
O333 O 0.70491 0.44621 0.27031 0.0
O334 O 0.61426 0.45386 0.26668 0.0
C335 C 0.52241 0.43041 0.3076 0.0
O336 O 0.68391 0.41921 0.31702 0.0
O337 O 0.65508 0.40485 0.27751 0.0
In338 In 0.57908 0.43103 0.94881 0.0
O339 O 0.53906 0.42213 0.89913 0.0
O340 O 0.55019 0.40718 0.9401 0.0
C341 C 0.53377 0.45859 0.95862 0.0
C342 C 0.69218 0.43385 0.92369 0.0
C343 C 0.57042 0.42105 0.01232 0.0
O344 O 0.50235 0.4483 0.9458 0.0
O345 O 0.58786 0.45508 0.96489 0.0
O346 O 0.61982 0.42127 0.99611 0.0
O347 O 0.52457 0.42556 0.99607 0.0
C348 C 0.53464 0.40895 0.90976 0.0
O349 O 0.68161 0.42963 0.95352 0.0
O350 O 0.64554 0.43674 0.90635 0.0
In351 In 0.64917 0.81448 0.96316 0.0
O352 O 0.54602 0.81509 0.96309 0.0
O353 O 0.58992 0.80837 0.91778 0.0
C354 C 0.64378 0.82179 0.02869 0.0
C355 C 0.69896 0.83797 0.93046 0.0
C356 C 0.70175 0.78749 0.96946 0.0
O357 O 0.59921 0.82347 0.00897 0.0
O358 O 0.69152 0.81683 0.01502 0.0
O359 O 0.73072 0.79871 0.95917 0.0
O360 O 0.64636 0.78981 0.97522 0.0
C361 C 0.54048 0.81083 0.9329 0.0
O362 O 0.69153 0.82553 0.91647 0.0
O363 O 0.68292 0.83841 0.96098 0.0
In364 In 0.38454 0.17909 0.70905 0.0
O365 O 0.44307 0.16924 0.66667 0.0
O366 O 0.41544 0.15508 0.70675 0.0
C367 C 0.42797 0.20666 0.7212 0.0
C368 C 0.28694 0.18091 0.6684 0.0
C369 C 0.36529 0.17053 0.77296 0.0
O370 O 0.46263 0.19572 0.7162 0.0
O371 O 0.37237 0.20376 0.7186 0.0
O372 O 0.32237 0.17252 0.75227 0.0
O373 O 0.41787 0.17266 0.76115 0.0
C374 C 0.44317 0.15632 0.67906 0.0
O375 O 0.28324 0.17736 0.69921 0.0
O376 O 0.34002 0.18356 0.658 0.0
In377 In 0.37952 0.56237 0.70945 0.0
O378 O 0.32771 0.5711 0.66319 0.0
O379 O 0.35254 0.58642 0.70159 0.0
C380 C 0.33651 0.53458 0.71864 0.0
C381 C 0.48865 0.56091 0.6787 0.0
C382 C 0.37185 0.57087 0.77432 0.0
O383 O 0.30275 0.54526 0.71013 0.0
O384 O 0.392 0.53776 0.72072 0.0
O385 O 0.42201 0.56976 0.75901 0.0
O386 O 0.3257 0.56794 0.75666 0.0
C387 C 0.32745 0.58439 0.67337 0.0
O388 O 0.48229 0.5651 0.70897 0.0
O389 O 0.43992 0.55738 0.66396 0.0
In390 In 0.40065 0.56607 0.03869 0.0
O391 O 0.2975 0.56689 0.0439 0.0
O392 O 0.34937 0.56116 0.08736 0.0
C393 C 0.40619 0.57349 0.97325 0.0
C394 C 0.44689 0.59016 0.06964 0.0
C395 C 0.44549 0.53843 0.03054 0.0
O396 O 0.35628 0.57217 0.98883 0.0
O397 O 0.45309 0.57138 0.99101 0.0
O398 O 0.47732 0.54886 0.04251 0.0
O399 O 0.39121 0.54186 0.0244 0.0
C400 C 0.29752 0.56343 0.07487 0.0
O401 O 0.4551 0.5772 0.08108 0.0
O402 O 0.41733 0.5908 0.04243 0.0
In403 In 0.36677 0.1806 0.03516 0.0
O404 O 0.46644 0.18751 0.03542 0.0
O405 O 0.42825 0.18004 0.08168 0.0
C406 C 0.37436 0.17014 0.97177 0.0
C407 C 0.31468 0.15825 0.06989 0.0
C408 C 0.31149 0.20727 0.02798 0.0
O409 O 0.4184 0.16963 0.99212 0.0
O410 O 0.32617 0.17561 0.98372 0.0
O411 O 0.28319 0.19587 0.03772 0.0
O412 O 0.36739 0.2053 0.02343 0.0
C413 C 0.47462 0.18471 0.0663 0.0
O414 O 0.31581 0.17141 0.08102 0.0
O415 O 0.33874 0.15653 0.0412 0.0
H416 H 0.05682 0.40314 0.37116 0.0
H417 H 0.04922 0.37959 0.46615 0.0
H418 H 0.03036 0.35631 0.43627 0.0
H419 H 0.03298 0.34223 0.38308 0.0
H420 H 0.04966 0.36566 0.28833 0.0
H421 H 0.04675 0.38941 0.31803 0.0
C422 C 0.04971 0.39296 0.38533 0.0
C423 C 0.05529 0.393 0.42069 0.0
C424 C 0.04099 0.37957 0.36796 0.0
C425 C 0.04582 0.37977 0.43881 0.0
C426 C 0.03517 0.36646 0.42176 0.0
C427 C 0.03425 0.35255 0.36894 0.0
C428 C 0.04214 0.35226 0.33372 0.0
C429 C 0.03515 0.36614 0.3863 0.0
C430 C 0.04411 0.36567 0.31557 0.0
C431 C 0.04272 0.37924 0.33253 0.0
H432 H 0.17857 0.88441 0.30355 0.0
H433 H 0.17877 0.91625 0.38505 0.0
H434 H 0.19822 0.8964 0.4258 0.0
H435 H 0.20018 0.86972 0.4388 0.0
H436 H 0.1998 0.83786 0.35736 0.0
H437 H 0.1967 0.858 0.31595 0.0
C438 C 0.18393 0.88701 0.33017 0.0
C439 C 0.17615 0.9017 0.34142 0.0
C440 C 0.19473 0.87554 0.35344 0.0
C441 C 0.18415 0.905 0.37585 0.0
C442 C 0.19501 0.89365 0.39917 0.0
C443 C 0.20074 0.86721 0.41196 0.0
C444 C 0.19919 0.85236 0.4011 0.0
C445 C 0.19815 0.87883 0.38836 0.0
C446 C 0.20073 0.84922 0.36631 0.0
C447 C 0.1985 0.86073 0.34263 0.0
H448 H 0.07715 0.88165 0.93917 0.0
H449 H 0.04689 0.9101 0.85295 0.0
H450 H 0.03906 0.88839 0.81616 0.0
H451 H 0.05619 0.86169 0.80755 0.0
H452 H 0.08656 0.83323 0.89374 0.0
H453 H 0.07798 0.85456 0.93167 0.0
C454 C 0.06767 0.88306 0.91243 0.0
C455 C 0.0637 0.89741 0.89861 0.0
C456 C 0.0638 0.87055 0.89144 0.0
C457 C 0.05047 0.89914 0.86408 0.0
C458 C 0.04635 0.88674 0.84302 0.0
C459 C 0.05973 0.86014 0.8347 0.0
C460 C 0.07304 0.84601 0.84787 0.0
C461 C 0.0553 0.87245 0.85625 0.0
C462 C 0.07663 0.84405 0.88305 0.0
C463 C 0.0721 0.85624 0.90471 0.0
H464 H 0.2045 0.38702 0.81506 0.0
H465 H 0.18227 0.41469 0.90326 0.0
H466 H 0.19549 0.39305 0.93994 0.0
H467 H 0.19786 0.36589 0.94625 0.0
H468 H 0.2187 0.33823 0.8579 0.0
H469 H 0.22255 0.36028 0.82191 0.0
C470 C 0.20372 0.38835 0.84233 0.0
C471 C 0.19137 0.40234 0.85649 0.0
C472 C 0.21054 0.37585 0.86317 0.0
C473 C 0.19136 0.40399 0.89181 0.0
C474 C 0.19856 0.39161 0.91277 0.0
C475 C 0.20441 0.36472 0.91918 0.0
C476 C 0.20687 0.35049 0.90463 0.0
C477 C 0.20578 0.37742 0.89865 0.0
C478 C 0.21626 0.34909 0.86964 0.0
C479 C 0.21814 0.36168 0.84904 0.0
H480 H 0.95951 0.5925 0.62004 0.0
H481 H 0.94363 0.61362 0.52248 0.0
H482 H 0.95599 0.638 0.54865 0.0
H483 H 0.95717 0.65336 0.59994 0.0
H484 H 0.96329 0.63223 0.69781 0.0
H485 H 0.96998 0.60784 0.67098 0.0
C486 C 0.96003 0.60243 0.60449 0.0
C487 C 0.9502 0.60133 0.56951 0.0
C488 C 0.96496 0.61642 0.61984 0.0
C489 C 0.95062 0.61425 0.54957 0.0
C490 C 0.95759 0.62818 0.5645 0.0
C491 C 0.96145 0.64342 0.6153 0.0
C492 C 0.95943 0.64451 0.65069 0.0
C493 C 0.96272 0.62942 0.59972 0.0
C494 C 0.96439 0.63159 0.67044 0.0
C495 C 0.968 0.61766 0.65514 0.0
H496 H 0.77261 0.09604 0.61641 0.0
H497 H 0.80283 0.11857 0.71112 0.0
H498 H 0.7928 0.14261 0.68303 0.0
H499 H 0.79309 0.15698 0.63029 0.0
H500 H 0.77422 0.13431 0.53486 0.0
H501 H 0.76085 0.11066 0.56429 0.0
C502 C 0.77537 0.10622 0.63097 0.0
C503 C 0.78897 0.10559 0.66563 0.0
C504 C 0.77221 0.12 0.61438 0.0
C505 C 0.7929 0.11883 0.68428 0.0
C506 C 0.78734 0.13257 0.66823 0.0
C507 C 0.78425 0.14692 0.61605 0.0
C508 C 0.785 0.14731 0.58055 0.0
C509 C 0.77959 0.13328 0.63308 0.0
C510 C 0.77414 0.13421 0.56227 0.0
C511 C 0.76682 0.12068 0.57907 0.0
H512 H 0.97461 0.13234 0.18956 0.0
H513 H 0.97981 0.1612 0.10238 0.0
H514 H 0.99744 0.13985 0.06561 0.0
H515 H 0.99207 0.11293 0.05753 0.0
H516 H 0.98002 0.084 0.14434 0.0
H517 H 0.98595 0.10543 0.18205 0.0
C518 C 0.98095 0.13399 0.1626 0.0
C519 C 0.97458 0.14826 0.14857 0.0
C520 C 0.98929 0.12163 0.14153 0.0
C521 C 0.98372 0.15028 0.1137 0.0
C522 C 0.99358 0.13808 0.09265 0.0
C523 C 0.99227 0.11128 0.08472 0.0
C524 C 0.98428 0.09696 0.09817 0.0
C525 C 0.99351 0.12367 0.10615 0.0
C526 C 0.98547 0.09495 0.1334 0.0
C527 C 0.98843 0.10721 0.15496 0.0
H528 H 0.79351 0.58808 0.10131 0.0
H529 H 0.7866 0.61018 0.19795 0.0
H530 H 0.7752 0.63419 0.1698 0.0
H531 H 0.78409 0.64907 0.11802 0.0
H532 H 0.80136 0.62707 0.02161 0.0
H533 H 0.79096 0.6029 0.04912 0.0
C534 C 0.78778 0.59812 0.11612 0.0
C535 C 0.79122 0.59744 0.15154 0.0
C536 C 0.78401 0.61193 0.09975 0.0
C537 C 0.78441 0.61051 0.17057 0.0
C538 C 0.77817 0.62422 0.1545 0.0
C539 C 0.78409 0.63899 0.103 0.0
C540 C 0.79407 0.6398 0.06797 0.0
C541 C 0.7805 0.62513 0.11913 0.0
C542 C 0.79429 0.62668 0.04873 0.0
C543 C 0.78849 0.61286 0.06443 0.0
H544 H 0.51261 0.3806 0.92872 0.0
H545 H 0.53257 0.40856 0.84073 0.0
H546 H 0.53877 0.3866 0.80457 0.0
H547 H 0.55424 0.35966 0.79945 0.0
H548 H 0.53615 0.33173 0.88761 0.0
H549 H 0.51288 0.35349 0.92228 0.0
C550 C 0.51697 0.38188 0.90153 0.0
C551 C 0.52314 0.39615 0.88742 0.0
C552 C 0.52171 0.36923 0.88106 0.0
C553 C 0.52799 0.39769 0.85217 0.0
C554 C 0.53203 0.38513 0.83153 0.0
C555 C 0.54425 0.35833 0.82616 0.0
C556 C 0.54801 0.34419 0.84115 0.0
C557 C 0.53149 0.37088 0.84591 0.0
C558 C 0.53399 0.34254 0.8756 0.0
C559 C 0.5209 0.35497 0.89543 0.0
H560 H 0.70447 0.84147 0.86248 0.0
H561 H 0.73101 0.86485 0.9565 0.0
H562 H 0.74093 0.8883 0.92585 0.0
H563 H 0.72725 0.90252 0.87316 0.0
H564 H 0.69215 0.87916 0.78 0.0
H565 H 0.70124 0.85538 0.80925 0.0
C566 C 0.71377 0.85165 0.87618 0.0
C567 C 0.71645 0.85147 0.91166 0.0
C568 C 0.71727 0.86515 0.85851 0.0
C569 C 0.72832 0.86474 0.92914 0.0
C570 C 0.7338 0.87816 0.91165 0.0
C571 C 0.72307 0.8922 0.8592 0.0
C572 C 0.70863 0.89255 0.82461 0.0
C573 C 0.72614 0.87857 0.87644 0.0
C574 C 0.70282 0.87914 0.80675 0.0
C575 C 0.70785 0.86554 0.82346 0.0
H576 H 0.53473 0.8567 0.30831 0.0
H577 H 0.54869 0.82916 0.39736 0.0
H578 H 0.53268 0.85085 0.43336 0.0
H579 H 0.53022 0.87798 0.43937 0.0
H580 H 0.51795 0.9056 0.3504 0.0
H581 H 0.51677 0.88351 0.31448 0.0
C582 C 0.53303 0.85541 0.33558 0.0
C583 C 0.54389 0.84142 0.3502 0.0
C584 C 0.52469 0.86795 0.35611 0.0
C585 C 0.54084 0.83985 0.38552 0.0
C586 C 0.53202 0.85226 0.40612 0.0
C587 C 0.52607 0.87914 0.41215 0.0
C588 C 0.5252 0.89337 0.39748 0.0
C589 C 0.52629 0.86642 0.39169 0.0
C590 C 0.51901 0.89475 0.36226 0.0
C591 C 0.5187 0.88213 0.3417 0.0
H592 H 0.71473 0.34232 0.36391 0.0
H593 H 0.68722 0.36637 0.45694 0.0
H594 H 0.69745 0.38994 0.42687 0.0
H595 H 0.6968 0.40351 0.37297 0.0
H596 H 0.71387 0.3793 0.27939 0.0
H597 H 0.72631 0.35608 0.31064 0.0
C598 C 0.71264 0.35273 0.37766 0.0
C599 C 0.69971 0.35267 0.41243 0.0
C600 C 0.71599 0.36623 0.35997 0.0
C601 C 0.69664 0.3662 0.43004 0.0
C602 C 0.70229 0.37967 0.41286 0.0
C603 C 0.70495 0.3932 0.35953 0.0
C604 C 0.70394 0.39304 0.32404 0.0
C605 C 0.70936 0.37982 0.37763 0.0
C606 C 0.71402 0.37963 0.30679 0.0
C607 C 0.72089 0.36635 0.32462 0.0
H608 H 0.45211 0.59295 0.1376 0.0
H609 H 0.4688 0.61773 0.04472 0.0
H610 H 0.4664 0.64107 0.07625 0.0
H611 H 0.44317 0.65429 0.12904 0.0
H612 H 0.41593 0.62935 0.221 0.0
H613 H 0.43922 0.60627 0.19128 0.0
C614 C 0.45707 0.60347 0.12445 0.0
C615 C 0.46051 0.6037 0.08901 0.0
C616 C 0.45256 0.61682 0.14258 0.0
C617 C 0.46598 0.61735 0.07207 0.0
C618 C 0.46421 0.63068 0.09006 0.0
C619 C 0.44358 0.64382 0.14266 0.0
C620 C 0.42727 0.64346 0.17699 0.0
C621 C 0.45492 0.63055 0.12514 0.0
C622 C 0.42774 0.62985 0.19441 0.0
C623 C 0.44103 0.61666 0.17745 0.0
H624 H 0.29935 0.12984 0.04909 0.0
H625 H 0.28683 0.158 0.13712 0.0
H626 H 0.27634 0.13616 0.17334 0.0
H627 H 0.28766 0.10924 0.18054 0.0
H628 H 0.30294 0.08103 0.09277 0.0
H629 H 0.29417 0.10272 0.05576 0.0
C630 C 0.29311 0.13119 0.07614 0.0
C631 C 0.29508 0.14547 0.09054 0.0
C632 C 0.28814 0.11859 0.09683 0.0
C633 C 0.28599 0.14711 0.1255 0.0
C634 C 0.2803 0.13462 0.14623 0.0
C635 C 0.28776 0.10781 0.15328 0.0
C636 C 0.29708 0.09363 0.13933 0.0
C637 C 0.28391 0.12033 0.13228 0.0
C638 C 0.29619 0.09187 0.10406 0.0
C639 C 0.29162 0.10427 0.08292 0.0
H640 H 0.46702 0.09224 0.62146 0.0
H641 H 0.42886 0.11595 0.52907 0.0
H642 H 0.44421 0.13962 0.55796 0.0
H643 H 0.4511 0.1534 0.61125 0.0
H644 H 0.47752 0.12962 0.70479 0.0
H645 H 0.48566 0.10621 0.6738 0.0
C646 C 0.46361 0.10259 0.60754 0.0
C647 C 0.44627 0.10242 0.57338 0.0
C648 C 0.46994 0.11615 0.62466 0.0
C649 C 0.44159 0.11587 0.55554 0.0
C650 C 0.45026 0.12939 0.57204 0.0
C651 C 0.46051 0.14314 0.62468 0.0
C652 C 0.46341 0.14314 0.66014 0.0
C653 C 0.46193 0.12967 0.60688 0.0
C654 C 0.47488 0.1298 0.67742 0.0
C655 C 0.47916 0.11642 0.65975 0.0
H656 H 0.29767 0.6344 0.56501 0.0
H657 H 0.28145 0.66113 0.65508 0.0
H658 H 0.27872 0.63869 0.68993 0.0
H659 H 0.2966 0.61183 0.69501 0.0
H660 H 0.31239 0.58507 0.60497 0.0
H661 H 0.29869 0.60717 0.56973 0.0
C662 C 0.2923 0.63528 0.59222 0.0
C663 C 0.29085 0.64935 0.60759 0.0
C664 C 0.2913 0.62236 0.61204 0.0
C665 C 0.28294 0.6504 0.64275 0.0
C666 C 0.28179 0.63758 0.66268 0.0
C667 C 0.29586 0.61082 0.66766 0.0
C668 C 0.30654 0.59695 0.65251 0.0
C669 C 0.28836 0.62356 0.64766 0.0
C670 C 0.30453 0.59568 0.61714 0.0
C671 C 0.29708 0.60831 0.59701 0.0
H672 H 0.41217 0.31143 0.43847 0.0
H673 H 0.52444 0.3134 0.34911 0.0
H674 H 0.43421 0.31269 0.31329 0.0
H675 H 0.32334 0.31186 0.30733 0.0
H676 H 0.21101 0.30922 0.39658 0.0
H677 H 0.30127 0.30976 0.43245 0.0
C678 C 0.4168 0.31171 0.41116 0.0
C679 C 0.47479 0.31253 0.39645 0.0
C680 C 0.36476 0.31114 0.3907 0.0
C681 C 0.48023 0.31276 0.36103 0.0
C682 C 0.42869 0.31237 0.34053 0.0
C683 C 0.31867 0.31135 0.33463 0.0
C684 C 0.26065 0.31053 0.34929 0.0
C685 C 0.37073 0.31159 0.35508 0.0
C686 C 0.25524 0.30982 0.38468 0.0
C687 C 0.3068 0.31017 0.40521 0.0
H688 H 0.9645 0.93626 0.37565 0.0
H689 H 0.87773 0.93729 0.27786 0.0
H690 H 0.77799 0.93743 0.30494 0.0
H691 H 0.71544 0.93634 0.3564 0.0
H692 H 0.80242 0.93425 0.45406 0.0
H693 H 0.90205 0.93549 0.42707 0.0
C694 C 0.92374 0.93662 0.36029 0.0
C695 C 0.92839 0.93677 0.32484 0.0
C696 C 0.86661 0.93646 0.37601 0.0
C697 C 0.87526 0.93714 0.30523 0.0
C698 C 0.81824 0.93722 0.32068 0.0
C699 C 0.75623 0.93627 0.37175 0.0
C700 C 0.75165 0.93521 0.40713 0.0
C701 C 0.81337 0.93675 0.35604 0.0
C702 C 0.80482 0.93503 0.42674 0.0
C703 C 0.86179 0.93573 0.41134 0.0
H704 H 0.43205 0.94033 0.80177 0.0
H705 H 0.54601 0.93453 0.88952 0.0
H706 H 0.45686 0.93519 0.92626 0.0
H707 H 0.34625 0.93632 0.9332 0.0
H708 H 0.23222 0.94276 0.84572 0.0
H709 H 0.3217 0.94305 0.8091 0.0
C710 C 0.43731 0.93929 0.82895 0.0
C711 C 0.49538 0.93728 0.84292 0.0
C712 C 0.3859 0.93978 0.84993 0.0
C713 C 0.50171 0.93608 0.87818 0.0
C714 C 0.45078 0.93642 0.89919 0.0
C715 C 0.34106 0.93788 0.90614 0.0
C716 C 0.28281 0.93942 0.89213 0.0
C717 C 0.39263 0.9381 0.88531 0.0
C718 C 0.27668 0.94155 0.85708 0.0
C719 C 0.32777 0.94167 0.83613 0.0
H720 H 0.76321 0.30897 0.88424 0.0
H721 H 0.84768 0.30905 0.78573 0.0
H722 H 0.94805 0.30909 0.812 0.0
H723 H 0.01183 0.30951 0.86301 0.0
H724 H 0.92715 0.31034 0.96145 0.0
H725 H 0.82689 0.3095 0.93519 0.0
C726 C 0.80362 0.30895 0.86854 0.0
C727 C 0.79809 0.30899 0.83313 0.0
C728 C 0.86112 0.30914 0.88381 0.0
C729 C 0.85078 0.30905 0.81308 0.0
C730 C 0.90818 0.30906 0.82807 0.0
C731 C 0.9714 0.30943 0.87869 0.0
C732 C 0.97684 0.30994 0.91409 0.0
C733 C 0.91389 0.30915 0.86341 0.0
C734 C 0.92412 0.30995 0.93412 0.0
C735 C 0.86678 0.30947 0.91913 0.0
H736 H 0.68206 0.69008 0.68604 0.0
H737 H 0.77913 0.68632 0.5916 0.0
H738 H 0.6833 0.68686 0.56047 0.0
H739 H 0.57165 0.68769 0.56026 0.0
H740 H 0.47506 0.69202 0.65475 0.0
H741 H 0.57095 0.69201 0.68567 0.0
C742 C 0.68221 0.68943 0.65864 0.0
C743 C 0.73749 0.68809 0.64115 0.0
C744 C 0.62705 0.68982 0.64092 0.0
C745 C 0.7371 0.68736 0.60564 0.0
C746 C 0.68234 0.68764 0.58783 0.0
C747 C 0.57167 0.68869 0.58761 0.0
C748 C 0.51639 0.68979 0.60521 0.0
C749 C 0.62701 0.68876 0.60523 0.0
C750 C 0.51705 0.69116 0.64061 0.0
C751 C 0.57184 0.69113 0.65833 0.0
H752 H 0.07367 0.06205 0.6847 0.0
H753 H 0.95693 0.06361 0.59719 0.0
H754 H 0.0454 0.06307 0.55991 0.0
H755 H 0.15629 0.06259 0.55213 0.0
H756 H 0.27271 0.0604 0.63972 0.0
H757 H 0.18422 0.06071 0.6769 0.0
C758 C 0.06764 0.06224 0.65747 0.0
C759 C 0.00887 0.06292 0.64374 0.0
C760 C 0.1187 0.06182 0.63616 0.0
C761 C 0.00172 0.06307 0.6084 0.0
C762 C 0.05229 0.06279 0.58705 0.0
C763 C 0.16221 0.06215 0.57935 0.0
C764 C 0.22097 0.06152 0.59312 0.0
C765 C 0.11104 0.06223 0.60063 0.0
C766 C 0.22795 0.06087 0.62845 0.0
C767 C 0.17737 0.06107 0.64976 0.0
H768 H 0.55746 0.08097 0.15319 0.0
H769 H 0.5321 0.03376 0.14179 0.0
H770 H 0.62801 0.03189 0.11092 0.0
H771 H 0.71883 0.04374 0.08671 0.0
H772 H 0.74041 0.09121 0.09444 0.0
H773 H 0.64634 0.09296 0.12704 0.0
C774 C 0.57322 0.07028 0.14407 0.0
C775 C 0.53819 0.0575 0.14993 0.0
C776 C 0.62757 0.06935 0.12555 0.0
C777 C 0.55845 0.04374 0.13757 0.0
C778 C 0.61324 0.04266 0.11994 0.0
C779 C 0.70284 0.05445 0.09556 0.0
C780 C 0.73647 0.06731 0.08832 0.0
C781 C 0.6481 0.0554 0.11369 0.0
C782 C 0.71508 0.08115 0.09962 0.0
C783 C 0.66143 0.08216 0.11834 0.0
H784 H 0.98004 0.68103 0.12943 0.0
H785 H 0.07983 0.68167 0.03547 0.0
H786 H 0.17554 0.68227 0.0666 0.0
H787 H 0.23097 0.68233 0.12048 0.0
H788 H 0.13149 0.68087 0.21448 0.0
H789 H 0.0356 0.68088 0.18339 0.0
C790 C 0.02276 0.68135 0.11579 0.0
C791 C 0.02288 0.68134 0.08022 0.0
C792 C 0.07765 0.68152 0.13385 0.0
C793 C 0.07854 0.68166 0.06287 0.0
C794 C 0.13329 0.68201 0.08064 0.0
C795 C 0.18828 0.68206 0.13415 0.0
C796 C 0.18829 0.68164 0.16971 0.0
C797 C 0.1334 0.68191 0.11612 0.0
C798 C 0.13267 0.68119 0.18709 0.0
C799 C 0.07783 0.6812 0.16934 0.0
H800 H 0.51762 0.80477 0.86683 0.0
H801 H 0.42932 0.81344 0.96229 0.0
H802 H 0.33016 0.81202 0.935 0.0
H803 H 0.26878 0.80955 0.8836 0.0
H804 H 0.3569 0.80184 0.7877 0.0
H805 H 0.45586 0.80151 0.8156 0.0
C806 C 0.47663 0.80625 0.88166 0.0
C807 C 0.48074 0.80925 0.91646 0.0
C808 C 0.41977 0.8056 0.86574 0.0
C809 C 0.42732 0.81117 0.9354 0.0
C810 C 0.3706 0.81036 0.91984 0.0
C811 C 0.30961 0.80763 0.86888 0.0
C812 C 0.30564 0.80573 0.83369 0.0
C813 C 0.36632 0.80774 0.88497 0.0
C814 C 0.35888 0.80335 0.81486 0.0
C815 C 0.41545 0.80319 0.83077 0.0
H816 H 0.72568 0.43898 0.85864 0.0
H817 H 0.79808 0.43115 0.95849 0.0
H818 H 0.90131 0.43226 0.93615 0.0
H819 H 0.97093 0.43477 0.88802 0.0
H820 H 0.89861 0.44176 0.78784 0.0
H821 H 0.79545 0.44171 0.81053 0.0
C822 C 0.7641 0.43759 0.8755 0.0
C823 C 0.75436 0.43499 0.91012 0.0
C824 C 0.8233 0.43807 0.86243 0.0
C825 C 0.80447 0.43314 0.9317 0.0
C826 C 0.86349 0.43377 0.91896 0.0
C827 C 0.93258 0.43638 0.87121 0.0
C828 C 0.94227 0.43828 0.83636 0.0
C829 C 0.87343 0.43614 0.88435 0.0
C830 C 0.89222 0.44025 0.8148 0.0
C831 C 0.83325 0.44022 0.82774 0.0
H832 H 0.50411 0.42478 0.37407 0.0
H833 H 0.41111 0.43774 0.28271 0.0
H834 H 0.31511 0.43918 0.31364 0.0
H835 H 0.25746 0.4365 0.36672 0.0
H836 H 0.35005 0.42214 0.45716 0.0
H837 H 0.44634 0.42151 0.4266 0.0
C838 C 0.46282 0.42796 0.361 0.0
C839 C 0.46457 0.43121 0.32627 0.0
C840 C 0.40776 0.4285 0.37878 0.0
C841 C 0.41075 0.43516 0.30948 0.0
C842 C 0.35591 0.43601 0.32715 0.0
C843 C 0.29883 0.4333 0.3797 0.0
C844 C 0.29685 0.42944 0.41412 0.0
C845 C 0.35386 0.43268 0.3618 0.0
C846 C 0.35052 0.42515 0.43062 0.0
C847 C 0.40558 0.4248 0.41319 0.0
H848 H 0.76456 0.80236 0.38936 0.0
H849 H 0.83854 0.82018 0.29673 0.0
H850 H 0.93854 0.82205 0.3228 0.0
H851 H 0.00455 0.81911 0.3721 0.0
H852 H 0.93033 0.8027 0.46593 0.0
H853 H 0.83086 0.79972 0.43923 0.0
C854 C 0.8027 0.8066 0.37493 0.0
C855 C 0.79434 0.81111 0.34123 0.0
C856 C 0.85993 0.80789 0.39026 0.0
C857 C 0.84388 0.81669 0.3228 0.0
C858 C 0.90109 0.81774 0.33764 0.0
C859 C 0.96667 0.81478 0.38661 0.0
C860 C 0.97461 0.81105 0.4208 0.0
C861 C 0.90957 0.81342 0.37136 0.0
C862 C 0.92512 0.80564 0.4395 0.0
C863 C 0.86832 0.80394 0.42428 0.0
H864 H 0.74371 0.19486 0.11596 0.0
H865 H 0.68227 0.1652 0.19463 0.0
H866 H 0.58138 0.16446 0.16944 0.0
H867 H 0.51078 0.17192 0.12475 0.0
H868 H 0.5726 0.20043 0.0441 0.0
H869 H 0.67296 0.20203 0.07039 0.0
C870 C 0.70813 0.18827 0.12755 0.0
C871 C 0.72035 0.18012 0.1571 0.0
C872 C 0.65027 0.18772 0.11263 0.0
C873 C 0.67402 0.17154 0.1718 0.0
C874 C 0.61625 0.17114 0.15747 0.0
C875 C 0.54614 0.17857 0.11308 0.0
C876 C 0.5344 0.18612 0.08272 0.0
C877 C 0.6039 0.17915 0.12789 0.0
C878 C 0.58073 0.19452 0.06756 0.0
C879 C 0.63805 0.19543 0.08254 0.0
H880 H 0.1813 0.56329 0.05211 0.0
H881 H 0.28839 0.56124 0.14334 0.0
H882 H 0.19604 0.56009 0.17745 0.0
H883 H 0.08479 0.55987 0.18139 0.0
H884 H 0.97763 0.56108 0.09011 0.0
H885 H 0.06999 0.56233 0.05598 0.0
C886 C 0.18433 0.56258 0.07945 0.0
C887 C 0.24147 0.56239 0.0952 0.0
C888 C 0.13107 0.56178 0.09889 0.0
C889 C 0.24486 0.56138 0.13063 0.0
C890 C 0.1921 0.56074 0.15015 0.0
C891 C 0.08172 0.56041 0.15403 0.0
C892 C 0.02457 0.56043 0.13828 0.0
C893 C 0.13497 0.56097 0.13456 0.0
C894 C 0.02118 0.56103 0.10281 0.0
C895 C 0.07394 0.56176 0.08328 0.0
H896 H 0.76003 0.5621 0.62763 0.0
H897 H 0.67118 0.55412 0.53213 0.0
H898 H 0.57258 0.55358 0.56044 0.0
H899 H 0.51139 0.55594 0.61216 0.0
H900 H 0.59994 0.56481 0.70735 0.0
H901 H 0.69884 0.56443 0.67936 0.0
C902 C 0.71909 0.56017 0.61306 0.0
C903 C 0.72285 0.55813 0.57787 0.0
C904 C 0.66251 0.56008 0.62944 0.0
C905 C 0.66944 0.55573 0.55927 0.0
C906 C 0.61305 0.55543 0.57543 0.0
C907 C 0.55237 0.55773 0.62678 0.0
C908 C 0.54839 0.56038 0.66175 0.0
C909 C 0.60901 0.55767 0.61046 0.0
C910 C 0.60182 0.56276 0.68036 0.0
C911 C 0.65838 0.56254 0.66439 0.0
H912 H 0.08488 0.18428 0.55589 0.0
H913 H 0.9693 0.18306 0.64401 0.0
H914 H 0.05842 0.18192 0.68071 0.0
H915 H 0.16905 0.18097 0.68763 0.0
H916 H 0.28475 0.18303 0.59965 0.0
H917 H 0.19561 0.18416 0.56291 0.0
C918 C 0.07927 0.18379 0.58313 0.0
C919 C 0.02074 0.1837 0.59726 0.0
C920 C 0.13063 0.18327 0.60403 0.0
C921 C 0.01399 0.18316 0.63258 0.0
C922 C 0.06487 0.18248 0.65355 0.0
C923 C 0.17469 0.18166 0.66041 0.0
C924 C 0.23323 0.18185 0.6463 0.0
C925 C 0.12336 0.18247 0.63954 0.0
C926 C 0.24004 0.18288 0.61105 0.0
C927 C 0.18915 0.1835 0.59006 0.0
H928 H 0.88867 0.23134 0.24741 0.0
H929 H 0.05682 0.21645 0.20276 0.0
H930 H 0.10717 0.23915 0.22156 0.0
H931 H 0.10349 0.26311 0.25076 0.0
H932 H 0.93555 0.27818 0.29527 0.0
H933 H 0.88511 0.25537 0.27686 0.0
C934 C 0.93622 0.23312 0.24158 0.0
C935 C 0.96895 0.22228 0.22357 0.0
C936 C 0.965 0.24612 0.25278 0.0
C937 C 0.03063 0.22466 0.21646 0.0
C938 C 0.05949 0.23761 0.22732 0.0
C939 C 0.05596 0.26136 0.2567 0.0
C940 C 0.02332 0.27227 0.27448 0.0
C941 C 0.02719 0.24836 0.24564 0.0
C942 C 0.96168 0.2699 0.28173 0.0
C943 C 0.93278 0.25691 0.27108 0.0
H944 H 0.26027 0.96906 0.26263 0.0
H945 H 0.07858 0.98576 0.24802 0.0
H946 H 0.11929 0.00931 0.2272 0.0
H947 H 0.20678 0.02515 0.21303 0.0
H948 H 0.3882 0.00838 0.22837 0.0
H949 H 0.34735 0.98481 0.24857 0.0
C950 C 0.22959 0.97789 0.25511 0.0
C951 C 0.16658 0.97571 0.25699 0.0
C952 C 0.25326 0.99133 0.24293 0.0
C953 C 0.12735 0.98721 0.24694 0.0
C954 C 0.15056 0.00065 0.23489 0.0
C955 C 0.23727 0.01627 0.22048 0.0
C956 C 0.30034 0.01846 0.21907 0.0
C957 C 0.21346 0.00281 0.2326 0.0
C958 C 0.33942 0.00694 0.22917 0.0
C959 C 0.31613 0.99348 0.24084 0.0
H960 H 0.90392 0.0145 -0.00185 0.0
H961 H 0.06751 0.02921 0.04786 0.0
H962 H 0.11919 0.00637 0.03086 0.0
H963 H 0.11864 0.9826 0.00055 0.0
H964 H 0.95486 0.96774 0.95135 0.0
H965 H 0.90249 0.99038 0.96924 0.0
C966 C 0.95073 0.01265 0.00551 0.0
C967 C 0.98189 0.02352 0.02422 0.0
C968 C 0.98023 -0.00043 0.99542 0.0
C969 C 0.04253 0.02099 0.03352 0.0
C970 C 0.07217 0.00798 0.02368 0.0
C971 C 0.07155 0.98435 0.99361 0.0
C972 C 0.04074 0.9736 0.97443 0.0
C973 C 0.04165 0.99728 0.00432 0.0
C974 C 0.97957 0.97591 0.96597 0.0
C975 C 0.94961 0.98882 0.97626 0.0
H976 H 0.36189 0.23108 -0.0028 0.0
H977 H 0.19313 0.21503 0.03884 0.0
H978 H 0.14239 0.23801 0.02155 0.0
H979 H 0.1463 0.2626 0.99457 0.0
H980 H 0.3152 0.27847 0.9527 0.0
H981 H 0.36553 0.25546 0.9697 0.0
C982 C 0.31407 0.23264 0.0027 0.0
C983 C 0.28133 0.22143 0.01947 0.0
C984 C 0.28518 0.24575 0.99231 0.0
C985 C 0.21932 0.22355 0.02612 0.0
C986 C 0.19029 0.23664 0.01612 0.0
C987 C 0.19401 0.26097 0.98891 0.0
C988 C 0.22698 0.27219 0.9723 0.0
C989 C 0.22275 0.24778 -0.00093 0.0
C990 C 0.28881 0.26997 0.96533 0.0
C991 C 0.31766 0.25685 0.97519 0.0
H992 H 0.90763 0.73482 0.7287 0.0
H993 H 0.07389 0.71793 0.68562 0.0
H994 H 0.1279 0.74016 0.70452 0.0
H995 H 0.12838 0.76393 0.73512 0.0
H996 H 0.96209 0.78056 0.77873 0.0
H997 H 0.90757 0.75875 0.75808 0.0
C998 C 0.95556 0.73607 0.7231 0.0
C999 C 0.98674 0.72477 0.70573 0.0
C1000 C 0.98639 0.74872 0.73454 0.0
C1001 C 0.04888 0.7265 0.69886 0.0
C1002 C 0.07981 0.73917 0.70982 0.0
C1003 C 0.08025 0.76275 0.74021 0.0
C1004 C 0.04934 0.77378 0.75863 0.0
C1005 C 0.04917 0.75024 0.72808 0.0
C1006 C 0.98692 0.77217 0.76477 0.0
C1007 C 0.9557 0.75974 0.75288 0.0
H1008 H 0.64826 0.98211 0.74097 0.0
H1009 H 0.81691 0.96723 0.78493 0.0
H1010 H 0.8656 0.99054 0.76833 0.0
H1011 H 0.85997 0.01512 0.74144 0.0
H1012 H 0.69119 0.02993 0.69748 0.0
H1013 H 0.6429 0.00653 0.7136 0.0
C1014 C 0.69561 0.98399 0.7471 0.0
C1015 C 0.7289 0.973 0.76433 0.0
C1016 C 0.72335 0.99732 0.73718 0.0
C1017 C 0.79029 0.97555 0.77182 0.0
C1018 C 0.81817 0.98885 0.76223 0.0
C1019 C 0.81274 0.01318 0.73514 0.0
C1020 C 0.77922 0.02422 0.71818 0.0
C1021 C 0.78516 -0.00022 0.74481 0.0
C1022 C 0.718 0.02159 0.7104 0.0
C1023 C 0.69032 0.00824 0.71974 0.0
H1024 H 0.65024 0.76353 -0.00066 0.0
H1025 H 0.8189 0.77924 0.9569 0.0
H1026 H 0.86806 0.75577 0.97181 0.0
H1027 H 0.86284 0.73081 -0.00335 0.0
H1028 H 0.69409 0.71507 0.03893 0.0
H1029 H 0.6453 0.73867 0.02474 0.0
C1030 C 0.69769 0.76179 0.99318 0.0
C1031 C 0.73085 0.77306 0.97686 0.0
C1032 C 0.7257 0.74835 0.00211 0.0
C1033 C 0.79237 0.7707 0.96931 0.0
C1034 C 0.82053 0.75731 0.97794 0.0
C1035 C 0.81551 0.73259 0.00303 0.0
C1036 C 0.78213 0.72123 0.01893 0.0
C1037 C 0.78765 0.74609 0.99442 0.0
C1038 C 0.72078 0.72366 0.02682 0.0
C1039 C 0.69282 0.73712 0.01857 0.0
H1040 H 0.21961 0.52745 0.73258 0.0
H1041 H 0.40062 0.5092 0.72983 0.0
H1042 H 0.36303 0.4857 0.75264 0.0
H1043 H 0.27882 0.47043 0.77386 0.0
H1044 H 0.09796 0.48879 0.77704 0.0
H1045 H 0.13555 0.51224 0.75413 0.0
C1046 C 0.25066 0.51827 0.73663 0.0
C1047 C 0.31266 0.52 0.72931 0.0
C1048 C 0.22894 0.5049 0.75032 0.0
C1049 C 0.35258 0.50809 0.73511 0.0
C1050 C 0.3312 0.49469 0.74832 0.0
C1051 C 0.24779 0.47962 0.76988 0.0
C1052 C 0.18581 0.47791 0.77729 0.0
C1053 C 0.26956 0.49301 0.75628 0.0
C1054 C 0.14598 0.48986 0.77168 0.0
C1055 C 0.16735 0.50324 0.7584 0.0
H1056 H 0.12001 0.48026 0.50525 0.0
H1057 H 0.95726 0.46222 0.46069 0.0
H1058 H 0.90156 0.48477 0.47558 0.0
H1059 H 0.89943 0.50963 0.50075 0.0
H1060 H 0.06202 0.52776 0.54533 0.0
H1061 H 0.11735 0.50501 0.53144 0.0
C1062 C 0.07244 0.48132 0.49862 0.0
C1063 C 0.04284 0.46966 0.48168 0.0
C1064 C 0.04059 0.49423 0.5076 0.0
C1065 C 0.98107 0.47108 0.47358 0.0
C1066 C 0.94917 0.48394 0.4822 0.0
C1067 C 0.94683 0.50855 0.50774 0.0
C1068 C 0.9766 0.52034 0.52412 0.0
C1069 C 0.97845 0.49556 0.49926 0.0
C1070 C 0.03807 0.51881 0.53282 0.0
C1071 C 0.06978 0.50585 0.52473 0.0
H1072 H 0.35732 0.73727 0.51711 0.0
H1073 H 0.18805 0.72322 0.56183 0.0
H1074 H 0.14001 0.74638 0.54378 0.0
H1075 H 0.14537 0.7702 0.51391 0.0
H1076 H 0.3145 0.7844 0.46934 0.0
H1077 H 0.36338 0.76146 0.48848 0.0
C1078 C 0.31005 0.73933 0.52318 0.0
C1079 C 0.27625 0.72856 0.5408 0.0
C1080 C 0.28263 0.75259 0.51243 0.0
C1081 C 0.21504 0.73136 0.54838 0.0
C1082 C 0.1875 0.74456 0.53793 0.0
C1083 C 0.19289 0.76826 0.50825 0.0
C1084 C 0.22622 0.77891 0.49 0.0
C1085 C 0.22069 0.75516 0.51962 0.0
C1086 C 0.28787 0.77632 0.4832 0.0
C1087 C 0.31582 0.76324 0.49421 0.0
H1088 H 0.78403 0.46541 0.24789 0.0
H1089 H 0.60193 0.48219 0.26034 0.0
H1090 H 0.63358 0.50643 0.23902 0.0
H1091 H 0.71283 0.52287 0.21662 0.0
H1092 H 0.89526 0.50626 0.20472 0.0
H1093 H 0.86348 0.4819 0.22543 0.0
C1094 C 0.7515 0.47442 0.24626 0.0
C1095 C 0.69087 0.47204 0.25585 0.0
C1096 C 0.76982 0.4883 0.23356 0.0
C1097 C 0.64899 0.48377 0.25325 0.0
C1098 C 0.66693 0.49761 0.24089 0.0
C1099 C 0.74539 0.51385 0.21814 0.0
C1100 C 0.80613 0.51631 0.20893 0.0
C1101 C 0.7271 0.49997 0.23072 0.0
C1102 C 0.8481 0.5046 0.21151 0.0
C1103 C 0.83007 0.4907 0.22353 0.0
H1104 H 0.71448 0.22001 0.50716 0.0
H1105 H 0.89691 0.23657 0.51903 0.0
H1106 H 0.86529 0.26089 0.498 0.0
H1107 H 0.78555 0.27753 0.47648 0.0
H1108 H 0.60295 0.261 0.4653 0.0
H1109 H 0.63506 0.23655 0.48521 0.0
C1110 C 0.74716 0.22898 0.5054 0.0
C1111 C 0.80779 0.22653 0.51484 0.0
C1112 C 0.72883 0.24289 0.49295 0.0
C1113 C 0.84982 0.23821 0.51208 0.0
C1114 C 0.83188 0.2521 0.4999 0.0
C1115 C 0.75305 0.26851 0.47798 0.0
C1116 C 0.69211 0.27103 0.46927 0.0
C1117 C 0.77157 0.25455 0.4901 0.0
C1118 C 0.65023 0.25931 0.47177 0.0
C1119 C 0.66845 0.24535 0.48332 0.0
H1120 H 0.47491 0.27193 0.77213 0.0
H1121 H 0.65929 0.25586 0.77499 0.0
H1122 H 0.62565 0.23147 0.75534 0.0
H1123 H 0.54389 0.21492 0.73577 0.0
H1124 H 0.36007 0.23141 0.73167 0.0
H1125 H 0.39354 0.25546 0.75294 0.0
C1126 C 0.50759 0.26303 0.76887 0.0
C1127 C 0.56936 0.26564 0.77518 0.0
C1128 C 0.48815 0.24917 0.75685 0.0
C1129 C 0.61138 0.25408 0.77041 0.0
C1130 C 0.59224 0.24016 0.75901 0.0
C1131 C 0.51131 0.22382 0.73934 0.0
C1132 C 0.4497 0.22142 0.732 0.0
C1133 C 0.53082 0.23764 0.75174 0.0
C1134 C 0.40785 0.233 0.73698 0.0
C1135 C 0.42686 0.24674 0.74929 0.0
H1136 H 0.37042 0.01317 0.49323 0.0
H1137 H 0.53492 0.02634 0.54425 0.0
H1138 H 0.58366 0.00312 0.52724 0.0
H1139 H 0.58018 0.9794 0.49692 0.0
H1140 H 0.41573 0.96608 0.44613 0.0
H1141 H 0.36639 0.9892 0.46367 0.0
C1142 C 0.41676 0.0109 0.5009 0.0
C1143 C 0.44901 0.02144 0.52005 0.0
C1144 C 0.44466 -0.00238 0.49071 0.0
C1145 C 0.5091 0.01838 0.52961 0.0
C1146 C 0.53707 0.00515 0.51976 0.0
C1147 C 0.53365 0.9816 0.48949 0.0
C1148 C 0.50173 0.97112 0.47004 0.0
C1149 C 0.50547 0.99477 0.50003 0.0
C1150 C 0.4413 0.97403 0.46094 0.0
C1151 C 0.41304 0.9872 0.47107 0.0
H1152 H 0.4604 0.77482 0.26423 0.0
H1153 H 0.63418 0.75453 0.28441 0.0
H1154 H 0.59558 0.73058 0.26527 0.0
H1155 H 0.51252 0.71534 0.24302 0.0
H1156 H 0.33755 0.73527 0.22473 0.0
H1157 H 0.37677 0.75947 0.24236 0.0
C1158 C 0.48965 0.76513 0.26464 0.0
C1159 C 0.54997 0.76644 0.27582 0.0
C1160 C 0.4672 0.75138 0.25352 0.0
C1161 C 0.58745 0.75381 0.27607 0.0
C1162 C 0.56555 0.74011 0.26496 0.0
C1163 C 0.48324 0.72503 0.24248 0.0
C1164 C 0.42246 0.72359 0.23231 0.0
C1165 C 0.50562 0.73879 0.25349 0.0
C1166 C 0.38465 0.73615 0.2323 0.0
C1167 C 0.40695 0.74996 0.24253 0.0
H1168 H 0.59148 0.48056 0.99243 0.0
H1169 H 0.41913 0.46914 0.94766 0.0
H1170 H 0.37613 0.49267 0.9673 0.0
H1171 H 0.38755 0.51634 -0.00268 0.0
H1172 H 0.55997 0.52781 0.04193 0.0
H1173 H 0.60286 0.50422 0.02257 0.0
C1174 C 0.54459 0.48325 0.98677 0.0
C1175 C 0.50856 0.47316 0.96847 0.0
C1176 C 0.52012 0.4967 -0.00158 0.0
C1177 C 0.44782 0.47676 0.96155 0.0
C1178 C 0.42319 0.49017 0.9729 0.0
C1179 C 0.43442 0.51364 0.00305 0.0
C1180 C 0.47052 0.52377 0.02118 0.0
C1181 C 0.45885 0.50018 0.99148 0.0
C1182 C 0.53123 0.52016 0.02816 0.0
C1183 C 0.5558 0.50672 0.01697 0.0
H1184 H 0.20416 0.32114 0.1815 0.0
H1185 H 0.00894 0.32516 0.18307 0.0
H1186 H 0.00739 0.32738 0.12157 0.0
H1187 H 0.06047 0.32608 0.06733 0.0
H1188 H 0.2553 0.32126 0.06526 0.0
H1189 H 0.25814 0.32166 0.12708 0.0
C1190 C 0.16138 0.32266 0.16837 0.0
C1191 C 0.10673 0.32285 0.18669 0.0
C1192 C 0.16074 0.32375 0.13298 0.0
C1193 C 0.05161 0.32488 0.16946 0.0
C1194 C 0.05065 0.32615 0.13431 0.0
C1195 C 0.10364 0.32532 0.0804 0.0
C1196 C 0.15751 0.32353 0.06186 0.0
C1197 C 0.10479 0.32528 0.11581 0.0
C1198 C 0.21316 0.32259 0.07906 0.0
C1199 C 0.2148 0.32277 0.11437 0.0
H1200 H 0.05126 0.91643 0.05981 0.0
H1201 H 0.24252 0.92659 0.05567 0.0
H1202 H 0.24888 0.92498 0.11722 0.0
H1203 H 0.19764 0.9236 0.17216 0.0
H1204 H 0.00583 0.91411 0.17644 0.0
H1205 H 0.00232 0.9123 0.11481 0.0
C1206 C 0.09449 0.91808 0.07237 0.0
C1207 C 0.14613 0.92183 0.05334 0.0
C1208 C 0.09764 0.91733 0.10775 0.0
C1209 C 0.202 0.92379 0.06984 0.0
C1210 C 0.20566 0.92291 0.10502 0.0
C1211 C 0.15529 0.92089 0.15963 0.0
C1212 C 0.10194 0.91919 0.1787 0.0
C1213 C 0.1534 0.92013 0.12424 0.0
C1214 C 0.04746 0.91556 0.16223 0.0
C1215 C 0.04536 0.91459 0.127 0.0
H1216 H 0.80643 0.67511 0.80289 0.0
H1217 H 0.00228 0.67511 0.80073 0.0
H1218 H 0.00514 0.67294 0.86227 0.0
H1219 H 0.95211 0.67269 0.91677 0.0
H1220 H 0.7563 0.67333 0.91911 0.0
H1221 H 0.75329 0.67348 0.85734 0.0
C1222 C 0.8497 0.67451 0.81589 0.0
C1223 C 0.90402 0.67536 0.7974 0.0
C1224 C 0.85102 0.67343 0.85126 0.0
C1225 C 0.95981 0.67453 0.81449 0.0
C1226 C 0.96151 0.67331 0.84965 0.0
C1227 C 0.90879 0.67272 0.90374 0.0
C1228 C 0.85455 0.67309 0.92238 0.0
C1229 C 0.90741 0.673 0.86831 0.0
C1230 C 0.79871 0.6731 0.90525 0.0
C1231 C 0.79694 0.67321 0.86996 0.0
H1232 H 0.94982 0.07601 0.81499 0.0
H1233 H 0.75455 0.07234 0.81335 0.0
H1234 H 0.75166 0.0734 0.87501 0.0
H1235 H 0.80508 0.07348 0.92942 0.0
H1236 H 0.00042 0.07677 0.93118 0.0
H1237 H 0.00274 0.07791 0.86948 0.0
C1238 C 0.90663 0.07558 0.82814 0.0
C1239 C 0.85258 0.07397 0.8097 0.0
C1240 C 0.9053 0.07608 0.86361 0.0
C1241 C 0.79688 0.07351 0.82702 0.0
C1242 C 0.79514 0.0741 0.86227 0.0
C1243 C 0.84807 0.07462 0.9163 0.0
C1244 C 0.90247 0.07492 0.93476 0.0
C1245 C 0.84914 0.0751 0.88084 0.0
C1246 C 0.95788 0.07646 0.91748 0.0
C1247 C 0.95929 0.07707 0.8822 0.0
H1248 H 0.06514 0.83407 0.68051 0.0
H1249 H 0.25945 0.83044 0.69118 0.0
H1250 H 0.27221 0.83429 0.63044 0.0
H1251 H 0.22696 0.83456 0.57375 0.0
H1252 H 0.03244 0.83761 0.56309 0.0
H1253 H 0.02099 0.83844 0.62445 0.0
C1254 C 0.11031 0.83442 0.66959 0.0
C1255 C 0.16117 0.83167 0.69002 0.0
C1256 C 0.11722 0.83642 0.63466 0.0
C1257 C 0.21955 0.83239 0.67581 0.0
C1258 C 0.22687 0.83452 0.64108 0.0
C1259 C 0.1822 0.83574 0.58487 0.0
C1260 C 0.13057 0.83571 0.56407 0.0
C1261 C 0.17587 0.83592 0.62014 0.0
C1262 C 0.07286 0.83746 0.57867 0.0
C1263 C 0.06623 0.83785 0.61374 0.0
H1264 H 0.21253 0.42832 0.68827 0.0
H1265 H 0.02703 0.41337 0.69644 0.0
H1266 H 0.02201 0.41022 0.6351 0.0
H1267 H 0.0669 0.41432 0.57905 0.0
H1268 H 0.25143 0.43001 0.57108 0.0
H1269 H 0.26046 0.43015 0.63261 0.0
C1270 C 0.17129 0.42417 0.67666 0.0
C1271 C 0.12002 0.42125 0.69667 0.0
C1272 C 0.16841 0.42265 0.64147 0.0
C1273 C 0.067 0.41578 0.68143 0.0
C1274 C 0.06402 0.41403 0.6464 0.0
C1275 C 0.1093 0.41758 0.5908 0.0
C1276 C 0.15814 0.42233 0.57069 0.0
C1277 C 0.11389 0.41784 0.62614 0.0
C1278 C 0.21303 0.42642 0.58613 0.0
C1279 C 0.21821 0.42653 0.62127 0.0
H1280 H 0.9626 0.17026 0.31773 0.0
H1281 H 0.76829 0.17256 0.30479 0.0
H1282 H 0.75413 0.17183 0.36594 0.0
H1283 H 0.79708 0.17298 0.42279 0.0
H1284 H 0.9913 0.17145 0.43631 0.0
H1285 H 0.00542 0.16927 0.37514 0.0
C1286 C 0.91718 0.17038 0.32834 0.0
C1287 C 0.86661 0.17162 0.30691 0.0
C1288 C 0.90939 0.17021 0.36354 0.0
C1289 C 0.80796 0.17173 0.32086 0.0
C1290 C 0.7998 0.17134 0.35579 0.0
C1291 C 0.84248 0.172 0.41237 0.0
C1292 C 0.89309 0.17254 0.43386 0.0
C1293 C 0.85022 0.17097 0.37733 0.0
C1294 C 0.95164 0.17114 0.42015 0.0
C1295 C 0.95974 0.16994 0.38522 0.0
H1296 H 0.80518 0.56933 0.41758 0.0
H1297 H 0.00054 0.56696 0.4231 0.0
H1298 H 0.00705 0.56757 0.36141 0.0
H1299 H 0.95675 0.56709 0.30597 0.0
H1300 H 0.76119 0.56874 0.30081 0.0
H1301 H 0.75526 0.5702 0.36234 0.0
C1302 C 0.84919 0.56908 0.40528 0.0
C1303 C 0.90224 0.56801 0.42476 0.0
C1304 C 0.85254 0.56924 0.3699 0.0
C1305 C 0.959 0.56773 0.40856 0.0
C1306 C 0.96277 0.56805 0.37332 0.0
C1307 C 0.91292 0.56792 0.31834 0.0
C1308 C 0.85952 0.56771 0.29898 0.0
C1309 C 0.90978 0.56855 0.35374 0.0
C1310 C 0.80297 0.5688 0.31524 0.0
C1311 C 0.7995 0.56962 0.3504 0.0
H1312 H 0.54337 0.31947 0.56829 0.0
H1313 H 0.73709 0.32543 0.55959 0.0
H1314 H 0.7464 0.32613 0.62106 0.0
H1315 H 0.70079 0.32297 0.67707 0.0
H1316 H 0.50766 0.31605 0.686 0.0
H1317 H 0.49673 0.31794 0.62465 0.0
C1318 C 0.58746 0.32111 0.57989 0.0
C1319 C 0.63948 0.32228 0.55954 0.0
C1320 C 0.59265 0.32124 0.61525 0.0
C1321 C 0.69639 0.3244 0.5748 0.0
C1322 C 0.7018 0.32478 0.60993 0.0
C1323 C 0.65623 0.32204 0.66561 0.0
C1324 C 0.60521 0.31927 0.68592 0.0
C1325 C 0.65043 0.32289 0.63037 0.0
C1326 C 0.5477 0.31812 0.6708 0.0
C1327 C 0.54141 0.31917 0.63575 0.0
H1328 H 0.67696 0.91723 0.55878 0.0
H1329 H 0.48182 0.92122 0.56115 0.0
H1330 H 0.4835 0.92103 0.62299 0.0
H1331 H 0.5414 0.92223 0.67603 0.0
H1332 H 0.73687 0.91926 0.67312 0.0
H1333 H 0.73406 0.91648 0.61175 0.0
C1334 C 0.63471 0.91784 0.57282 0.0
C1335 C 0.57941 0.91936 0.55552 0.0
C1336 C 0.63615 0.91806 0.60823 0.0
C1337 C 0.525 0.92009 0.57398 0.0
C1338 C 0.52595 0.92005 0.6093 0.0
C1339 C 0.58329 0.92081 0.66197 0.0
C1340 C 0.63926 0.9211 0.67896 0.0
C1341 C 0.58141 0.91944 0.62666 0.0
C1342 C 0.69322 0.91918 0.66053 0.0
C1343 C 0.69168 0.9176 0.62546 0.0
H1344 H 0.42794 0.6746 0.44357 0.0
H1345 H 0.23316 0.67722 0.45335 0.0
H1346 H 0.22213 0.67519 0.39203 0.0
H1347 H 0.26836 0.67463 0.33545 0.0
H1348 H 0.46335 0.67261 0.32594 0.0
H1349 H 0.47372 0.67233 0.38736 0.0
C1350 C 0.38306 0.67457 0.4323 0.0
C1351 C 0.33151 0.67618 0.45285 0.0
C1352 C 0.3771 0.67358 0.39708 0.0
C1353 C 0.2736 0.67606 0.43798 0.0
C1354 C 0.26724 0.67493 0.40293 0.0
C1355 C 0.31304 0.67396 0.34686 0.0
C1356 C 0.36499 0.67376 0.32626 0.0
C1357 C 0.31875 0.67399 0.3822 0.0
C1358 C 0.42264 0.67285 0.34131 0.0
C1359 C 0.42866 0.67272 0.37642 0.0
H1360 H 0.29496 0.0726 0.41925 0.0
H1361 H 0.48978 0.07032 0.42919 0.0
H1362 H 0.50092 0.0709 0.3678 0.0
H1363 H 0.45503 0.07011 0.31128 0.0
H1364 H 0.26016 0.07203 0.30132 0.0
H1365 H 0.2494 0.07368 0.36263 0.0
C1366 C 0.33983 0.07239 0.40795 0.0
C1367 C 0.39137 0.07129 0.42867 0.0
C1368 C 0.34593 0.0726 0.37262 0.0
C1369 C 0.4493 0.0711 0.41375 0.0
C1370 C 0.45576 0.0714 0.37864 0.0
C1371 C 0.41029 0.07107 0.32253 0.0
C1372 C 0.35851 0.07083 0.30187 0.0
C1373 C 0.40436 0.07186 0.35783 0.0
C1374 C 0.30078 0.07213 0.31674 0.0
C1375 C 0.29453 0.07304 0.3518 0.0
H1376 H 0.7286 0.81552 0.07584 0.0
H1377 H 0.54676 0.83255 0.0639 0.0
H1378 H 0.53338 0.83277 0.1253 0.0
H1379 H 0.57032 0.82598 0.1819 0.0
H1380 H 0.75088 0.80802 0.19315 0.0
H1381 H 0.76788 0.81035 0.13241 0.0
C1382 C 0.68635 0.81948 0.08669 0.0
C1383 C 0.6386 0.82391 0.06549 0.0
C1384 C 0.67855 0.81927 0.12183 0.0
C1385 C 0.58411 0.82903 0.07981 0.0
C1386 C 0.57635 0.82911 0.11487 0.0
C1387 C 0.61355 0.82272 0.17105 0.0
C1388 C 0.65904 0.81671 0.19182 0.0
C1389 C 0.62275 0.8239 0.13606 0.0
C1390 C 0.71497 0.81257 0.17757 0.0
C1391 C 0.72476 0.8139 0.14287 0.0
H1392 H 0.66533 0.41456 0.05268 0.0
H1393 H 0.47066 0.41986 0.05328 0.0
H1394 H 0.46987 0.41813 0.11503 0.0
H1395 H 0.52607 0.41829 0.16867 0.0
H1396 H 0.72142 0.41475 0.16751 0.0
H1397 H 0.7204 0.41248 0.106 0.0
C1398 C 0.62259 0.41508 0.06628 0.0
C1399 C 0.56823 0.4175 0.04862 0.0
C1400 C 0.62274 0.41454 0.10163 0.0
C1401 C 0.51316 0.4181 0.06646 0.0
C1402 C 0.51271 0.41717 0.10171 0.0
C1403 C 0.56827 0.41677 0.15495 0.0
C1404 C 0.62376 0.41685 0.1724 0.0
C1405 C 0.56746 0.41588 0.11957 0.0
C1406 C 0.67819 0.41487 0.15447 0.0
C1407 C 0.67765 0.41358 0.11935 0.0
H1408 H 0.44954 0.16346 0.81997 0.0
H1409 H 0.25735 0.17058 0.80656 0.0
H1410 H 0.24204 0.16925 0.86769 0.0
H1411 H 0.28521 0.16917 0.92484 0.0
H1412 H 0.4777 0.1625 0.93821 0.0
H1413 H 0.49088 0.16032 0.87707 0.0
C1414 C 0.40421 0.1645 0.83043 0.0
C1415 C 0.3548 0.16735 0.80898 0.0
C1416 C 0.39588 0.1639 0.86552 0.0
C1417 C 0.29616 0.16849 0.82269 0.0
C1418 C 0.2874 0.16778 0.85761 0.0
C1419 C 0.32987 0.167 0.91437 0.0
C1420 C 0.38054 0.16623 0.93582 0.0
C1421 C 0.33722 0.16597 0.87926 0.0
C1422 C 0.43806 0.16324 0.92209 0.0
C1423 C 0.44568 0.16206 0.88716 0.0
H1424 H 0.31235 0.57556 0.92925 0.0
H1425 H 0.5079 0.57679 0.93484 0.0
H1426 H 0.5143 0.57758 0.87321 0.0
H1427 H 0.4647 0.57545 0.81794 0.0
H1428 H 0.26929 0.57331 0.81239 0.0
H1429 H 0.26244 0.57549 0.87384 0.0
C1430 C 0.35632 0.57621 0.91697 0.0
C1431 C 0.40955 0.57597 0.93647 0.0
C1432 C 0.3597 0.57639 0.88157 0.0
C1433 C 0.46624 0.57687 0.9203 0.0
C1434 C 0.46997 0.57728 0.88508 0.0
C1435 C 0.42061 0.57566 0.83016 0.0
C1436 C 0.36764 0.57408 0.81078 0.0
C1437 C 0.41705 0.57667 0.86548 0.0
C1438 C 0.31077 0.57443 0.82686 0.0
C1439 C 0.3068 0.57564 0.86197 0.0
loop_
_geom_bond_atom_site_label_1
_geom_bond_atom_site_label_2
_geom_bond_distance
_geom_bond_site_symmetry_2
_ccdc_geom_bond_type
In0 O1 2.294 . S
In0 O2 2.326 . S
In0 O6 2.266 . S
In0 O7 2.326 . S
In0 O8 2.266 . S
In0 O9 2.326 . S
In0 O11 2.294 . S
In0 O12 2.326 . S
O1 In0 2.294 . S
O1 C10 1.240 . S
O2 In0 2.326 . S
O2 C10 1.252 . S
C3 O6 1.252 . S
C3 O7 1.260 . S
C4 O11 1.240 . S
C4 O12 1.252 . S
C5 O8 1.252 . S
C5 O9 1.260 . S
O6 In0 2.266 . S
O6 C3 1.252 . S
O7 In0 2.326 . S
O7 C3 1.260 . S
O8 In0 2.266 . S
O8 C5 1.252 . S
O9 In0 2.326 . S
O9 C5 1.260 . S
C10 O1 1.240 . S
C10 O2 1.252 . S
O11 In0 2.294 . S
O11 C4 1.240 . S
O12 In0 2.326 . S
O12 C4 1.252 . S
In13 O14 2.294 . S
In13 O15 2.326 . S
In13 O19 2.266 . S
In13 O20 2.326 . S
In13 O21 2.266 . S
In13 O22 2.326 . S
In13 O24 2.294 . S
In13 O25 2.326 . S
O14 In13 2.294 . S
O14 C23 1.240 . S
O15 In13 2.326 . S
O15 C23 1.252 . S
C16 O19 1.252 . S
C16 O20 1.260 . S
C17 O24 1.240 . S
C17 O25 1.252 . S
C18 O21 1.252 . S
C18 O22 1.260 . S
O19 In13 2.266 . S
O19 C16 1.252 . S
O20 In13 2.326 . S
O20 C16 1.260 . S
O21 In13 2.266 . S
O21 C18 1.252 . S
O22 In13 2.326 . S
O22 C18 1.260 . S
C23 O14 1.240 . S
C23 O15 1.252 . S
O24 In13 2.294 . S
O24 C17 1.240 . S
O25 In13 2.326 . S
O25 C17 1.252 . S
In26 O27 2.294 . S
In26 O28 2.326 . S
In26 O32 2.266 . S
In26 O33 2.326 . S
In26 O34 2.266 1_556 S
In26 O35 2.326 1_556 S
In26 O37 2.294 . S
In26 O38 2.326 . S
O27 In26 2.294 . S
O27 C36 1.240 . S
O28 In26 2.326 . S
O28 C36 1.252 . S
C29 O32 1.252 . S
C29 O33 1.260 . S
C30 O37 1.240 . S
C30 O38 1.252 . S
C31 O34 1.252 . S
C31 O35 1.260 . S
O32 In26 2.266 . S
O32 C29 1.252 . S
O33 In26 2.326 . S
O33 C29 1.260 . S
O34 In26 2.266 1_554 S
O34 C31 1.252 . S
O35 In26 2.326 1_554 S
O35 C31 1.260 . S
C36 O27 1.240 . S
C36 O28 1.252 . S
O37 In26 2.294 . S
O37 C30 1.240 . S
O38 In26 2.326 . S
O38 C30 1.252 . S
In39 O40 2.294 . S
In39 O41 2.326 . S
In39 O45 2.266 1_556 S
In39 O46 2.326 1_556 S
In39 O47 2.266 . S
In39 O48 2.326 . S
In39 O50 2.294 . S
In39 O51 2.326 . S
O40 In39 2.294 . S
O40 C49 1.240 . S
O41 In39 2.326 . S
O41 C49 1.252 . S
C42 O45 1.252 . S
C42 O46 1.260 . S
C43 O50 1.240 . S
C43 O51 1.252 . S
C44 O47 1.252 . S
C44 O48 1.260 . S
O45 In39 2.266 1_554 S
O45 C42 1.252 . S
O46 In39 2.326 1_554 S
O46 C42 1.260 . S
O47 In39 2.266 . S
O47 C44 1.252 . S
O48 In39 2.326 . S
O48 C44 1.260 . S
C49 O40 1.240 . S
C49 O41 1.252 . S
O50 In39 2.294 . S
O50 C43 1.240 . S
O51 In39 2.326 . S
O51 C43 1.252 . S
In52 O53 2.294 . S
In52 O54 2.326 . S
In52 O58 2.266 . S
In52 O59 2.326 . S
In52 O60 2.266 . S
In52 O61 2.326 . S
In52 O63 2.294 . S
In52 O64 2.326 . S
O53 In52 2.294 . S
O53 C62 1.240 . S
O54 In52 2.326 . S
O54 C62 1.252 . S
C55 O58 1.252 . S
C55 O59 1.260 . S
C56 O63 1.240 . S
C56 O64 1.252 . S
C57 O60 1.252 . S
C57 O61 1.260 . S
O58 In52 2.266 . S
O58 C55 1.252 . S
O59 In52 2.326 . S
O59 C55 1.260 . S
O60 In52 2.266 . S
O60 C57 1.252 . S
O61 In52 2.326 . S
O61 C57 1.260 . S
C62 O53 1.240 . S
C62 O54 1.252 . S
O63 In52 2.294 . S
O63 C56 1.240 . S
O64 In52 2.326 . S
O64 C56 1.252 . S
In65 O66 2.294 . S
In65 O67 2.326 . S
In65 O71 2.266 . S
In65 O72 2.326 . S
In65 O73 2.266 . S
In65 O74 2.326 . S
In65 O76 2.294 . S
In65 O77 2.326 . S
O66 In65 2.294 . S
O66 C75 1.240 . S
O67 In65 2.326 . S
O67 C75 1.252 . S
C68 O71 1.252 . S
C68 O72 1.260 . S
C69 O76 1.240 . S
C69 O77 1.252 . S
C70 O73 1.252 . S
C70 O74 1.260 . S
O71 In65 2.266 . S
O71 C68 1.252 . S
O72 In65 2.326 . S
O72 C68 1.260 . S
O73 In65 2.266 . S
O73 C70 1.252 . S
O74 In65 2.326 . S
O74 C70 1.260 . S
C75 O66 1.240 . S
C75 O67 1.252 . S
O76 In65 2.294 . S
O76 C69 1.240 . S
O77 In65 2.326 . S
O77 C69 1.252 . S
In78 O79 2.294 . S
In78 O80 2.326 . S
In78 O84 2.266 1_554 S
In78 O85 2.326 1_554 S
In78 O86 2.266 . S
In78 O87 2.326 . S
In78 O89 2.294 . S
In78 O90 2.326 . S
O79 In78 2.294 . S
O79 C88 1.240 . S
O80 In78 2.326 . S
O80 C88 1.252 . S
C81 O84 1.252 . S
C81 O85 1.260 . S
C82 O89 1.240 . S
C82 O90 1.252 . S
C83 O86 1.252 . S
C83 O87 1.260 . S
O84 In78 2.266 1_556 S
O84 C81 1.252 . S
O85 In78 2.326 1_556 S
O85 C81 1.260 . S
O86 In78 2.266 . S
O86 C83 1.252 . S
O87 In78 2.326 . S
O87 C83 1.260 . S
C88 O79 1.240 . S
C88 O80 1.252 . S
O89 In78 2.294 . S
O89 C82 1.240 . S
O90 In78 2.326 . S
O90 C82 1.252 . S
In91 O92 2.294 . S
In91 O93 2.326 . S
In91 O97 2.266 1_554 S
In91 O98 2.326 1_554 S
In91 O99 2.266 . S
In91 O100 2.326 . S
In91 O102 2.294 . S
In91 O103 2.326 . S
O92 In91 2.294 . S
O92 C101 1.240 . S
O93 In91 2.326 . S
O93 C101 1.252 . S
C94 O97 1.252 . S
C94 O98 1.260 . S
C95 O102 1.240 . S
C95 O103 1.252 . S
C96 O99 1.252 . S
C96 O100 1.260 . S
O97 In91 2.266 1_556 S
O97 C94 1.252 . S
O98 In91 2.326 1_556 S
O98 C94 1.260 . S
O99 In91 2.266 . S
O99 C96 1.252 . S
O100 In91 2.326 . S
O100 C96 1.260 . S
C101 O92 1.240 . S
C101 O93 1.252 . S
O102 In91 2.294 . S
O102 C95 1.240 . S
O103 In91 2.326 . S
O103 C95 1.252 . S
In104 O105 2.294 . S
In104 O106 2.326 . S
In104 O110 2.266 . S
In104 O111 2.326 . S
In104 O112 2.266 . S
In104 O113 2.326 . S
In104 O115 2.294 . S
In104 O116 2.326 . S
O105 In104 2.294 . S
O105 C114 1.240 . S
O106 In104 2.326 . S
O106 C114 1.252 . S
C107 O110 1.252 . S
C107 O111 1.260 . S
C108 O115 1.240 . S
C108 O116 1.252 . S
C109 O112 1.252 . S
C109 O113 1.260 . S
O110 In104 2.266 . S
O110 C107 1.252 . S
O111 In104 2.326 . S
O111 C107 1.260 . S
O112 In104 2.266 . S
O112 C109 1.252 . S
O113 In104 2.326 . S
O113 C109 1.260 . S
C114 O105 1.240 . S
C114 O106 1.252 . S
O115 In104 2.294 . S
O115 C108 1.240 . S
O116 In104 2.326 . S
O116 C108 1.252 . S
In117 O118 2.294 . S
In117 O119 2.326 . S
In117 O123 2.266 . S
In117 O124 2.326 . S
In117 O125 2.266 . S
In117 O126 2.326 . S
In117 O128 2.294 . S
In117 O129 2.326 . S
O118 In117 2.294 . S
O118 C127 1.240 . S
O119 In117 2.326 . S
O119 C127 1.252 . S
C120 O123 1.252 . S
C120 O124 1.260 . S
C121 O128 1.240 . S
C121 O129 1.252 . S
C122 O125 1.252 . S
C122 O126 1.260 . S
O123 In117 2.266 . S
O123 C120 1.252 . S
O124 In117 2.326 . S
O124 C120 1.260 . S
O125 In117 2.266 . S
O125 C122 1.252 . S
O126 In117 2.326 . S
O126 C122 1.260 . S
C127 O118 1.240 . S
C127 O119 1.252 . S
O128 In117 2.294 . S
O128 C121 1.240 . S
O129 In117 2.326 . S
O129 C121 1.252 . S
In130 O131 2.294 . S
In130 O132 2.326 . S
In130 O136 2.266 . S
In130 O137 2.326 . S
In130 O138 2.266 . S
In130 O139 2.326 . S
In130 O141 2.294 . S
In130 O142 2.326 . S
O131 In130 2.294 . S
O131 C140 1.240 . S
O132 In130 2.326 . S
O132 C140 1.252 . S
C133 O136 1.252 . S
C133 O137 1.260 . S
C134 O141 1.240 . S
C134 O142 1.252 . S
C135 O138 1.252 . S
C135 O139 1.260 . S
O136 In130 2.266 . S
O136 C133 1.252 . S
O137 In130 2.326 . S
O137 C133 1.260 . S
O138 In130 2.266 . S
O138 C135 1.252 . S
O139 In130 2.326 . S
O139 C135 1.260 . S
C140 O131 1.240 . S
C140 O132 1.252 . S
O141 In130 2.294 . S
O141 C134 1.240 . S
O142 In130 2.326 . S
O142 C134 1.252 . S
In143 O144 2.294 . S
In143 O145 2.326 . S
In143 O149 2.266 . S
In143 O150 2.326 . S
In143 O151 2.266 . S
In143 O152 2.326 . S
In143 O154 2.294 . S
In143 O155 2.326 . S
O144 In143 2.294 . S
O144 C153 1.240 . S
O145 In143 2.326 . S
O145 C153 1.252 . S
C146 O149 1.252 . S
C146 O150 1.260 . S
C147 O154 1.240 . S
C147 O155 1.252 . S
C148 O151 1.252 . S
C148 O152 1.260 . S
O149 In143 2.266 . S
O149 C146 1.252 . S
O150 In143 2.326 . S
O150 C146 1.260 . S
O151 In143 2.266 . S
O151 C148 1.252 . S
O152 In143 2.326 . S
O152 C148 1.260 . S
C153 O144 1.240 . S
C153 O145 1.252 . S
O154 In143 2.294 . S
O154 C147 1.240 . S
O155 In143 2.326 . S
O155 C147 1.252 . S
In156 O157 2.294 . S
In156 O158 2.326 . S
In156 O162 2.266 . S
In156 O163 2.326 . S
In156 O164 2.266 . S
In156 O165 2.326 . S
In156 O167 2.294 . S
In156 O168 2.326 . S
O157 In156 2.294 . S
O157 C166 1.240 . S
O158 In156 2.326 . S
O158 C166 1.252 . S
C159 O162 1.252 . S
C159 O163 1.260 . S
C160 O167 1.240 . S
C160 O168 1.252 . S
C161 O164 1.252 . S
C161 O165 1.260 . S
O162 In156 2.266 . S
O162 C159 1.252 . S
O163 In156 2.326 . S
O163 C159 1.260 . S
O164 In156 2.266 . S
O164 C161 1.252 . S
O165 In156 2.326 . S
O165 C161 1.260 . S
C166 O157 1.240 . S
C166 O158 1.252 . S
O167 In156 2.294 . S
O167 C160 1.240 . S
O168 In156 2.326 . S
O168 C160 1.252 . S
In169 O170 2.294 . S
In169 O171 2.326 . S
In169 O175 2.266 . S
In169 O176 2.326 . S
In169 O177 2.266 . S
In169 O178 2.326 . S
In169 O180 2.294 . S
In169 O181 2.326 . S
O170 In169 2.294 . S
O170 C179 1.240 . S
O171 In169 2.326 . S
O171 C179 1.252 . S
C172 O175 1.252 . S
C172 O176 1.260 . S
C173 O180 1.240 . S
C173 O181 1.252 . S
C174 O177 1.252 . S
C174 O178 1.260 . S
O175 In169 2.266 . S
O175 C172 1.252 . S
O176 In169 2.326 . S
O176 C172 1.260 . S
O177 In169 2.266 . S
O177 C174 1.252 . S
O178 In169 2.326 . S
O178 C174 1.260 . S
C179 O170 1.240 . S
C179 O171 1.252 . S
O180 In169 2.294 . S
O180 C173 1.240 . S
O181 In169 2.326 . S
O181 C173 1.252 . S
In182 O183 2.294 . S
In182 O184 2.326 . S
In182 O188 2.266 . S
In182 O189 2.326 . S
In182 O190 2.266 . S
In182 O191 2.326 . S
In182 O193 2.294 . S
In182 O194 2.326 . S
O183 In182 2.294 . S
O183 C192 1.240 . S
O184 In182 2.326 . S
O184 C192 1.252 . S
C185 O188 1.252 . S
C185 O189 1.260 . S
C186 O193 1.240 . S
C186 O194 1.252 . S
C187 O190 1.252 . S
C187 O191 1.260 . S
O188 In182 2.266 . S
O188 C185 1.252 . S
O189 In182 2.326 . S
O189 C185 1.260 . S
O190 In182 2.266 . S
O190 C187 1.252 . S
O191 In182 2.326 . S
O191 C187 1.260 . S
C192 O183 1.240 . S
C192 O184 1.252 . S
O193 In182 2.294 . S
O193 C186 1.240 . S
O194 In182 2.326 . S
O194 C186 1.252 . S
In195 O196 2.294 . S
In195 O197 2.326 . S
In195 O201 2.266 . S
In195 O202 2.326 . S
In195 O203 2.266 . S
In195 O204 2.326 . S
In195 O206 2.294 . S
In195 O207 2.326 . S
O196 In195 2.294 . S
O196 C205 1.240 . S
O197 In195 2.326 . S
O197 C205 1.252 . S
C198 O201 1.252 . S
C198 O202 1.260 . S
C199 O206 1.240 . S
C199 O207 1.252 . S
C200 O203 1.252 . S
C200 O204 1.260 . S
O201 In195 2.266 . S
O201 C198 1.252 . S
O202 In195 2.326 . S
O202 C198 1.260 . S
O203 In195 2.266 . S
O203 C200 1.252 . S
O204 In195 2.326 . S
O204 C200 1.260 . S
C205 O196 1.240 . S
C205 O197 1.252 . S
O206 In195 2.294 . S
O206 C199 1.240 . S
O207 In195 2.326 . S
O207 C199 1.252 . S
In208 O209 2.294 . S
In208 O210 2.326 . S
In208 O214 2.266 . S
In208 O215 2.326 . S
In208 O216 2.266 . S
In208 O217 2.326 . S
In208 O219 2.294 . S
In208 O220 2.326 . S
O209 In208 2.294 . S
O209 C218 1.240 . S
O210 In208 2.326 . S
O210 C218 1.252 . S
C211 O214 1.252 . S
C211 O215 1.260 . S
C212 O219 1.240 . S
C212 O220 1.252 . S
C213 O216 1.252 . S
C213 O217 1.260 . S
O214 In208 2.266 . S
O214 C211 1.252 . S
O215 In208 2.326 . S
O215 C211 1.260 . S
O216 In208 2.266 . S
O216 C213 1.252 . S
O217 In208 2.326 . S
O217 C213 1.260 . S
C218 O209 1.240 . S
C218 O210 1.252 . S
O219 In208 2.294 . S
O219 C212 1.240 . S
O220 In208 2.326 . S
O220 C212 1.252 . S
In221 O222 2.294 . S
In221 O223 2.326 . S
In221 O227 2.266 . S
In221 O228 2.326 . S
In221 O229 2.266 . S
In221 O230 2.326 . S
In221 O232 2.294 . S
In221 O233 2.326 . S
O222 In221 2.294 . S
O222 C231 1.240 . S
O223 In221 2.326 . S
O223 C231 1.252 . S
C224 O227 1.252 . S
C224 O228 1.260 . S
C225 O232 1.240 . S
C225 O233 1.252 . S
C226 O229 1.252 . S
C226 O230 1.260 . S
O227 In221 2.266 . S
O227 C224 1.252 . S
O228 In221 2.326 . S
O228 C224 1.260 . S
O229 In221 2.266 . S
O229 C226 1.252 . S
O230 In221 2.326 . S
O230 C226 1.260 . S
C231 O222 1.240 . S
C231 O223 1.252 . S
O232 In221 2.294 . S
O232 C225 1.240 . S
O233 In221 2.326 . S
O233 C225 1.252 . S
In234 O235 2.294 . S
In234 O236 2.326 . S
In234 O240 2.266 . S
In234 O241 2.326 . S
In234 O242 2.266 . S
In234 O243 2.326 . S
In234 O245 2.294 . S
In234 O246 2.326 . S
O235 In234 2.294 . S
O235 C244 1.240 . S
O236 In234 2.326 . S
O236 C244 1.252 . S
C237 O240 1.252 . S
C237 O241 1.260 . S
C238 O245 1.240 . S
C238 O246 1.252 . S
C239 O242 1.252 . S
C239 O243 1.260 . S
O240 In234 2.266 . S
O240 C237 1.252 . S
O241 In234 2.326 . S
O241 C237 1.260 . S
O242 In234 2.266 . S
O242 C239 1.252 . S
O243 In234 2.326 . S
O243 C239 1.260 . S
C244 O235 1.240 . S
C244 O236 1.252 . S
O245 In234 2.294 . S
O245 C238 1.240 . S
O246 In234 2.326 . S
O246 C238 1.252 . S
In247 O248 2.294 . S
In247 O249 2.326 . S
In247 O253 2.266 . S
In247 O254 2.326 . S
In247 O255 2.266 . S
In247 O256 2.326 . S
In247 O258 2.294 . S
In247 O259 2.326 . S
O248 In247 2.294 . S
O248 C257 1.240 . S
O249 In247 2.326 . S
O249 C257 1.252 . S
C250 O253 1.252 . S
C250 O254 1.260 . S
C251 O258 1.240 . S
C251 O259 1.252 . S
C252 O255 1.252 . S
C252 O256 1.260 . S
O253 In247 2.266 . S
O253 C250 1.252 . S
O254 In247 2.326 . S
O254 C250 1.260 . S
O255 In247 2.266 . S
O255 C252 1.252 . S
O256 In247 2.326 . S
O256 C252 1.260 . S
C257 O248 1.240 . S
C257 O249 1.252 . S
O258 In247 2.294 . S
O258 C251 1.240 . S
O259 In247 2.326 . S
O259 C251 1.252 . S
In260 O261 2.294 . S
In260 O262 2.326 . S
In260 O266 2.266 . S
In260 O267 2.326 . S
In260 O268 2.266 . S
In260 O269 2.326 . S
In260 O271 2.294 . S
In260 O272 2.326 . S
O261 In260 2.294 . S
O261 C270 1.240 . S
O262 In260 2.326 . S
O262 C270 1.252 . S
C263 O266 1.252 . S
C263 O267 1.260 . S
C264 O271 1.240 . S
C264 O272 1.252 . S
C265 O268 1.252 . S
C265 O269 1.260 . S
O266 In260 2.266 . S
O266 C263 1.252 . S
O267 In260 2.326 . S
O267 C263 1.260 . S
O268 In260 2.266 . S
O268 C265 1.252 . S
O269 In260 2.326 . S
O269 C265 1.260 . S
C270 O261 1.240 . S
C270 O262 1.252 . S
O271 In260 2.294 . S
O271 C264 1.240 . S
O272 In260 2.326 . S
O272 C264 1.252 . S
In273 O274 2.294 . S
In273 O275 2.326 . S
In273 O279 2.266 . S
In273 O280 2.326 . S
In273 O281 2.266 . S
In273 O282 2.326 . S
In273 O284 2.294 . S
In273 O285 2.326 . S
O274 In273 2.294 . S
O274 C283 1.240 . S
O275 In273 2.326 . S
O275 C283 1.252 . S
C276 O279 1.252 . S
C276 O280 1.260 . S
C277 O284 1.240 . S
C277 O285 1.252 . S
C278 O281 1.252 . S
C278 O282 1.260 . S
O279 In273 2.266 . S
O279 C276 1.252 . S
O280 In273 2.326 . S
O280 C276 1.260 . S
O281 In273 2.266 . S
O281 C278 1.252 . S
O282 In273 2.326 . S
O282 C278 1.260 . S
C283 O274 1.240 . S
C283 O275 1.252 . S
O284 In273 2.294 . S
O284 C277 1.240 . S
O285 In273 2.326 . S
O285 C277 1.252 . S
In286 O287 2.294 . S
In286 O288 2.326 . S
In286 O292 2.266 . S
In286 O293 2.326 . S
In286 O294 2.266 . S
In286 O295 2.326 . S
In286 O297 2.294 . S
In286 O298 2.326 . S
O287 In286 2.294 . S
O287 C296 1.240 . S
O288 In286 2.326 . S
O288 C296 1.252 . S
C289 O292 1.252 . S
C289 O293 1.260 . S
C290 O297 1.240 . S
C290 O298 1.252 . S
C291 O294 1.252 . S
C291 O295 1.260 . S
O292 In286 2.266 . S
O292 C289 1.252 . S
O293 In286 2.326 . S
O293 C289 1.260 . S
O294 In286 2.266 . S
O294 C291 1.252 . S
O295 In286 2.326 . S
O295 C291 1.260 . S
C296 O287 1.240 . S
C296 O288 1.252 . S
O297 In286 2.294 . S
O297 C290 1.240 . S
O298 In286 2.326 . S
O298 C290 1.252 . S
In299 O300 2.294 . S
In299 O301 2.326 . S
In299 O305 2.266 . S
In299 O306 2.326 . S
In299 O307 2.266 . S
In299 O308 2.326 . S
In299 O310 2.294 . S
In299 O311 2.326 . S
O300 In299 2.294 . S
O300 C309 1.240 . S
O301 In299 2.326 . S
O301 C309 1.252 . S
C302 O305 1.252 . S
C302 O306 1.260 . S
C303 O310 1.240 . S
C303 O311 1.252 . S
C304 O307 1.252 . S
C304 O308 1.260 . S
O305 In299 2.266 . S
O305 C302 1.252 . S
O306 In299 2.326 . S
O306 C302 1.260 . S
O307 In299 2.266 . S
O307 C304 1.252 . S
O308 In299 2.326 . S
O308 C304 1.260 . S
C309 O300 1.240 . S
C309 O301 1.252 . S
O310 In299 2.294 . S
O310 C303 1.240 . S
O311 In299 2.326 . S
O311 C303 1.252 . S
In312 O313 2.294 . S
In312 O314 2.326 . S
In312 O318 2.266 . S
In312 O319 2.326 . S
In312 O320 2.266 . S
In312 O321 2.326 . S
In312 O323 2.294 . S
In312 O324 2.326 . S
O313 In312 2.294 . S
O313 C322 1.240 . S
O314 In312 2.326 . S
O314 C322 1.252 . S
C315 O318 1.252 . S
C315 O319 1.260 . S
C316 O323 1.240 . S
C316 O324 1.252 . S
C317 O320 1.252 . S
C317 O321 1.260 . S
O318 In312 2.266 . S
O318 C315 1.252 . S
O319 In312 2.326 . S
O319 C315 1.260 . S
O320 In312 2.266 . S
O320 C317 1.252 . S
O321 In312 2.326 . S
O321 C317 1.260 . S
C322 O313 1.240 . S
C322 O314 1.252 . S
O323 In312 2.294 . S
O323 C316 1.240 . S
O324 In312 2.326 . S
O324 C316 1.252 . S
In325 O326 2.294 . S
In325 O327 2.326 . S
In325 O331 2.266 . S
In325 O332 2.326 . S
In325 O333 2.266 . S
In325 O334 2.326 . S
In325 O336 2.294 . S
In325 O337 2.326 . S
O326 In325 2.294 . S
O326 C335 1.240 . S
O327 In325 2.326 . S
O327 C335 1.252 . S
C328 O331 1.252 . S
C328 O332 1.260 . S
C329 O336 1.240 . S
C329 O337 1.252 . S
C330 O333 1.252 . S
C330 O334 1.260 . S
O331 In325 2.266 . S
O331 C328 1.252 . S
O332 In325 2.326 . S
O332 C328 1.260 . S
O333 In325 2.266 . S
O333 C330 1.252 . S
O334 In325 2.326 . S
O334 C330 1.260 . S
C335 O326 1.240 . S
C335 O327 1.252 . S
O336 In325 2.294 . S
O336 C329 1.240 . S
O337 In325 2.326 . S
O337 C329 1.252 . S
In338 O339 2.294 . S
In338 O340 2.326 . S
In338 O344 2.266 . S
In338 O345 2.326 . S
In338 O346 2.266 1_556 S
In338 O347 2.326 1_556 S
In338 O349 2.294 . S
In338 O350 2.326 . S
O339 In338 2.294 . S
O339 C348 1.240 . S
O340 In338 2.326 . S
O340 C348 1.252 . S
C341 O344 1.252 . S
C341 O345 1.260 . S
C342 O349 1.240 . S
C342 O350 1.252 . S
C343 O346 1.252 . S
C343 O347 1.260 . S
O344 In338 2.266 . S
O344 C341 1.252 . S
O345 In338 2.326 . S
O345 C341 1.260 . S
O346 In338 2.266 1_554 S
O346 C343 1.252 . S
O347 In338 2.326 1_554 S
O347 C343 1.260 . S
C348 O339 1.240 . S
C348 O340 1.252 . S
O349 In338 2.294 . S
O349 C342 1.240 . S
O350 In338 2.326 . S
O350 C342 1.252 . S
In351 O352 2.294 . S
In351 O353 2.326 . S
In351 O357 2.266 1_556 S
In351 O358 2.326 1_556 S
In351 O359 2.266 . S
In351 O360 2.326 . S
In351 O362 2.294 . S
In351 O363 2.326 . S
O352 In351 2.294 . S
O352 C361 1.240 . S
O353 In351 2.326 . S
O353 C361 1.252 . S
C354 O357 1.252 . S
C354 O358 1.260 . S
C355 O362 1.240 . S
C355 O363 1.252 . S
C356 O359 1.252 . S
C356 O360 1.260 . S
O357 In351 2.266 1_554 S
O357 C354 1.252 . S
O358 In351 2.326 1_554 S
O358 C354 1.260 . S
O359 In351 2.266 . S
O359 C356 1.252 . S
O360 In351 2.326 . S
O360 C356 1.260 . S
C361 O352 1.240 . S
C361 O353 1.252 . S
O362 In351 2.294 . S
O362 C355 1.240 . S
O363 In351 2.326 . S
O363 C355 1.252 . S
In364 O365 2.294 . S
In364 O366 2.326 . S
In364 O370 2.266 . S
In364 O371 2.326 . S
In364 O372 2.266 . S
In364 O373 2.326 . S
In364 O375 2.294 . S
In364 O376 2.326 . S
O365 In364 2.294 . S
O365 C374 1.240 . S
O366 In364 2.326 . S
O366 C374 1.252 . S
C367 O370 1.252 . S
C367 O371 1.260 . S
C368 O375 1.240 . S
C368 O376 1.252 . S
C369 O372 1.252 . S
C369 O373 1.260 . S
O370 In364 2.266 . S
O370 C367 1.252 . S
O371 In364 2.326 . S
O371 C367 1.260 . S
O372 In364 2.266 . S
O372 C369 1.252 . S
O373 In364 2.326 . S
O373 C369 1.260 . S
C374 O365 1.240 . S
C374 O366 1.252 . S
O375 In364 2.294 . S
O375 C368 1.240 . S
O376 In364 2.326 . S
O376 C368 1.252 . S
In377 O378 2.294 . S
In377 O379 2.326 . S
In377 O383 2.266 . S
In377 O384 2.326 . S
In377 O385 2.266 . S
In377 O386 2.326 . S
In377 O388 2.294 . S
In377 O389 2.326 . S
O378 In377 2.294 . S
O378 C387 1.240 . S
O379 In377 2.326 . S
O379 C387 1.252 . S
C380 O383 1.252 . S
C380 O384 1.260 . S
C381 O388 1.240 . S
C381 O389 1.252 . S
C382 O385 1.252 . S
C382 O386 1.260 . S
O383 In377 2.266 . S
O383 C380 1.252 . S
O384 In377 2.326 . S
O384 C380 1.260 . S
O385 In377 2.266 . S
O385 C382 1.252 . S
O386 In377 2.326 . S
O386 C382 1.260 . S
C387 O378 1.240 . S
C387 O379 1.252 . S
O388 In377 2.294 . S
O388 C381 1.240 . S
O389 In377 2.326 . S
O389 C381 1.252 . S
In390 O391 2.294 . S
In390 O392 2.326 . S
In390 O396 2.266 1_554 S
In390 O397 2.326 1_554 S
In390 O398 2.266 . S
In390 O399 2.326 . S
In390 O401 2.294 . S
In390 O402 2.326 . S
O391 In390 2.294 . S
O391 C400 1.240 . S
O392 In390 2.326 . S
O392 C400 1.252 . S
C393 O396 1.252 . S
C393 O397 1.260 . S
C394 O401 1.240 . S
C394 O402 1.252 . S
C395 O398 1.252 . S
C395 O399 1.260 . S
O396 In390 2.266 1_556 S
O396 C393 1.252 . S
O397 In390 2.326 1_556 S
O397 C393 1.260 . S
O398 In390 2.266 . S
O398 C395 1.252 . S
O399 In390 2.326 . S
O399 C395 1.260 . S
C400 O391 1.240 . S
C400 O392 1.252 . S
O401 In390 2.294 . S
O401 C394 1.240 . S
O402 In390 2.326 . S
O402 C394 1.252 . S
In403 O404 2.294 . S
In403 O405 2.326 . S
In403 O409 2.266 1_554 S
In403 O410 2.326 1_554 S
In403 O411 2.266 . S
In403 O412 2.326 . S
In403 O414 2.294 . S
In403 O415 2.326 . S
O404 In403 2.294 . S
O404 C413 1.240 . S
O405 In403 2.326 . S
O405 C413 1.252 . S
C406 O409 1.252 . S
C406 O410 1.260 . S
C407 O414 1.240 . S
C407 O415 1.252 . S
C408 O411 1.252 . S
C408 O412 1.260 . S
O409 In403 2.266 1_556 S
O409 C406 1.252 . S
O410 In403 2.326 1_556 S
O410 C406 1.260 . S
O411 In403 2.266 . S
O411 C408 1.252 . S
O412 In403 2.326 . S
O412 C408 1.260 . S
C413 O404 1.240 . S
C413 O405 1.252 . S
O414 In403 2.294 . S
O414 C407 1.240 . S
O415 In403 2.326 . S
O415 C407 1.252 . S
H416 C422 0.930 . S
H417 C425 0.930 . S
H418 C426 0.930 . S
H419 C427 0.930 . S
H420 C430 0.930 . S
H421 C431 0.930 . S
C422 H416 0.930 . S
C422 C423 1.355 . S
C422 C424 1.415 . S
C423 C422 1.355 . S
C423 C425 1.419 . S
C424 C422 1.415 . S
C424 C429 1.425 . S
C424 C431 1.409 . S
C425 H417 0.930 . S
C425 C423 1.419 . S
C425 C426 1.362 . S
C426 H418 0.930 . S
C426 C425 1.362 . S
C426 C429 1.409 . S
C427 H419 0.930 . S
C427 C428 1.355 . S
C427 C429 1.415 . S
C428 C427 1.355 . S
C428 C430 1.419 . S
C429 C424 1.425 . S
C429 C426 1.409 . S
C429 C427 1.415 . S
C430 H420 0.930 . S
C430 C428 1.419 . S
C430 C431 1.362 . S
C431 H421 0.930 . S
C431 C424 1.409 . S
C431 C430 1.362 . S
H432 C438 0.930 . S
H433 C441 0.930 . S
H434 C442 0.930 . S
H435 C443 0.930 . S
H436 C446 0.930 . S
H437 C447 0.930 . S
C438 H432 0.930 . S
C438 C439 1.355 . S
C438 C440 1.415 . S
C439 C438 1.355 . S
C439 C441 1.419 . S
C440 C438 1.415 . S
C440 C445 1.425 . S
C440 C447 1.409 . S
C441 H433 0.930 . S
C441 C439 1.419 . S
C441 C442 1.362 . S
C442 H434 0.930 . S
C442 C441 1.362 . S
C442 C445 1.409 . S
C443 H435 0.930 . S
C443 C444 1.355 . S
C443 C445 1.415 . S
C444 C443 1.355 . S
C444 C446 1.419 . S
C445 C440 1.425 . S
C445 C442 1.409 . S
C445 C443 1.415 . S
C446 H436 0.930 . S
C446 C444 1.419 . S
C446 C447 1.362 . S
C447 H437 0.930 . S
C447 C440 1.409 . S
C447 C446 1.362 . S
H448 C454 0.930 . S
H449 C457 0.930 . S
H450 C458 0.930 1_655 S
H451 C459 0.930 . S
H452 C462 0.930 . S
H453 C463 0.930 . S
C454 H448 0.930 . S
C454 C455 1.355 . S
C454 C456 1.415 . S
C455 C454 1.355 . S
C455 C457 1.419 . S
C456 C454 1.415 . S
C456 C461 1.425 . S
C456 C463 1.409 . S
C457 H449 0.930 . S
C457 C455 1.419 . S
C457 C458 1.362 . S
C458 H450 0.930 1_455 S
C458 C457 1.362 . S
C458 C461 1.409 . S
C459 H451 0.930 . S
C459 C460 1.355 . S
C459 C461 1.415 . S
C460 C459 1.355 . S
C460 C462 1.419 . S
C461 C456 1.425 . S
C461 C458 1.409 . S
C461 C459 1.415 . S
C462 H452 0.930 . S
C462 C460 1.419 . S
C462 C463 1.362 . S
C463 H453 0.930 . S
C463 C456 1.409 . S
C463 C462 1.362 . S
H464 C470 0.930 . S
H465 C473 0.930 . S
H466 C474 0.930 . S
H467 C475 0.930 . S
H468 C478 0.930 . S
H469 C479 0.930 . S
C470 H464 0.930 . S
C470 C471 1.355 . S
C470 C472 1.415 . S
C471 C470 1.355 . S
C471 C473 1.419 . S
C472 C470 1.415 . S
C472 C477 1.425 . S
C472 C479 1.409 . S
C473 H465 0.930 . S
C473 C471 1.419 . S
C473 C474 1.362 . S
C474 H466 0.930 . S
C474 C473 1.362 . S
C474 C477 1.409 . S
C475 H467 0.930 . S
C475 C476 1.355 . S
C475 C477 1.415 . S
C476 C475 1.355 . S
C476 C478 1.419 . S
C477 C472 1.425 . S
C477 C474 1.409 . S
C477 C475 1.415 . S
C478 H468 0.930 . S
C478 C476 1.419 . S
C478 C479 1.362 . S
C479 H469 0.930 . S
C479 C472 1.409 . S
C479 C478 1.362 . S
H480 C486 0.930 . S
H481 C489 0.930 . S
H482 C490 0.930 . S
H483 C491 0.930 . S
H484 C494 0.930 . S
H485 C495 0.930 1_455 S
C486 H480 0.930 . S
C486 C487 1.355 . S
C486 C488 1.415 . S
C487 C486 1.355 . S
C487 C489 1.419 . S
C488 C486 1.415 . S
C488 C493 1.425 . S
C488 C495 1.409 . S
C489 H481 0.930 . S
C489 C487 1.419 . S
C489 C490 1.362 . S
C490 H482 0.930 . S
C490 C489 1.362 . S
C490 C493 1.409 . S
C491 H483 0.930 . S
C491 C492 1.355 . S
C491 C493 1.415 . S
C492 C491 1.355 . S
C492 C494 1.419 . S
C493 C488 1.425 . S
C493 C490 1.409 . S
C493 C491 1.415 . S
C494 H484 0.930 . S
C494 C492 1.419 . S
C494 C495 1.362 . S
C495 H485 0.930 1_655 S
C495 C488 1.409 . S
C495 C494 1.362 . S
H496 C502 0.930 . S
H497 C505 0.930 . S
H498 C506 0.930 . S
H499 C507 0.930 . S
H500 C510 0.930 . S
H501 C511 0.930 . S
C502 H496 0.930 . S
C502 C503 1.355 . S
C502 C504 1.415 . S
C503 C502 1.355 . S
C503 C505 1.419 . S
C504 C502 1.415 . S
C504 C509 1.425 . S
C504 C511 1.409 . S
C505 H497 0.930 . S
C505 C503 1.419 . S
C505 C506 1.362 . S
C506 H498 0.930 . S
C506 C505 1.362 . S
C506 C509 1.409 . S
C507 H499 0.930 . S
C507 C508 1.355 . S
C507 C509 1.415 . S
C508 C507 1.355 . S
C508 C510 1.419 . S
C509 C504 1.425 . S
C509 C506 1.409 . S
C509 C507 1.415 . S
C510 H500 0.930 . S
C510 C508 1.419 . S
C510 C511 1.362 . S
C511 H501 0.930 . S
C511 C504 1.409 . S
C511 C510 1.362 . S
H512 C518 0.930 . S
H513 C521 0.930 . S
H514 C522 0.930 . S
H515 C523 0.930 . S
H516 C526 0.930 . S
H517 C527 0.930 . S
C518 H512 0.930 . S
C518 C519 1.355 . S
C518 C520 1.415 . S
C519 C518 1.355 . S
C519 C521 1.419 . S
C520 C518 1.415 . S
C520 C525 1.425 . S
C520 C527 1.409 . S
C521 H513 0.930 . S
C521 C519 1.419 . S
C521 C522 1.362 . S
C522 H514 0.930 . S
C522 C521 1.362 . S
C522 C525 1.409 . S
C523 H515 0.930 . S
C523 C524 1.355 . S
C523 C525 1.415 . S
C524 C523 1.355 . S
C524 C526 1.419 . S
C525 C520 1.425 . S
C525 C522 1.409 . S
C525 C523 1.415 . S
C526 H516 0.930 . S
C526 C524 1.419 . S
C526 C527 1.362 . S
C527 H517 0.930 . S
C527 C520 1.409 . S
C527 C526 1.362 . S
H528 C534 0.930 . S
H529 C537 0.930 . S
H530 C538 0.930 . S
H531 C539 0.930 . S
H532 C542 0.930 . S
H533 C543 0.930 . S
C534 H528 0.930 . S
C534 C535 1.355 . S
C534 C536 1.415 . S
C535 C534 1.355 . S
C535 C537 1.419 . S
C536 C534 1.415 . S
C536 C541 1.425 . S
C536 C543 1.409 . S
C537 H529 0.930 . S
C537 C535 1.419 . S
C537 C538 1.362 . S
C538 H530 0.930 . S
C538 C537 1.362 . S
C538 C541 1.409 . S
C539 H531 0.930 . S
C539 C540 1.355 . S
C539 C541 1.415 . S
C540 C539 1.355 . S
C540 C542 1.419 . S
C541 C536 1.425 . S
C541 C538 1.409 . S
C541 C539 1.415 . S
C542 H532 0.930 . S
C542 C540 1.419 . S
C542 C543 1.362 . S
C543 H533 0.930 . S
C543 C536 1.409 . S
C543 C542 1.362 . S
H544 C550 0.930 . S
H545 C553 0.930 . S
H546 C554 0.930 . S
H547 C555 0.930 . S
H548 C558 0.930 . S
H549 C559 0.930 . S
C550 H544 0.930 . S
C550 C551 1.355 . S
C550 C552 1.415 . S
C551 C550 1.355 . S
C551 C553 1.419 . S
C552 C550 1.415 . S
C552 C557 1.425 . S
C552 C559 1.409 . S
C553 H545 0.930 . S
C553 C551 1.419 . S
C553 C554 1.362 . S
C554 H546 0.930 . S
C554 C553 1.362 . S
C554 C557 1.409 . S
C555 H547 0.930 . S
C555 C556 1.355 . S
C555 C557 1.415 . S
C556 C555 1.355 . S
C556 C558 1.419 . S
C557 C552 1.425 . S
C557 C554 1.409 . S
C557 C555 1.415 . S
C558 H548 0.930 . S
C558 C556 1.419 . S
C558 C559 1.362 . S
C559 H549 0.930 . S
C559 C552 1.409 . S
C559 C558 1.362 . S
H560 C566 0.930 . S
H561 C569 0.930 . S
H562 C570 0.930 . S
H563 C571 0.930 . S
H564 C574 0.930 . S
H565 C575 0.930 . S
C566 H560 0.930 . S
C566 C567 1.355 . S
C566 C568 1.415 . S
C567 C566 1.355 . S
C567 C569 1.419 . S
C568 C566 1.415 . S
C568 C573 1.425 . S
C568 C575 1.409 . S
C569 H561 0.930 . S
C569 C567 1.419 . S
C569 C570 1.362 . S
C570 H562 0.930 . S
C570 C569 1.362 . S
C570 C573 1.409 . S
C571 H563 0.930 . S
C571 C572 1.355 . S
C571 C573 1.415 . S
C572 C571 1.355 . S
C572 C574 1.419 . S
C573 C568 1.425 . S
C573 C570 1.409 . S
C573 C571 1.415 . S
C574 H564 0.930 . S
C574 C572 1.419 . S
C574 C575 1.362 . S
C575 H565 0.930 . S
C575 C568 1.409 . S
C575 C574 1.362 . S
H576 C582 0.930 . S
H577 C585 0.930 . S
H578 C586 0.930 . S
H579 C587 0.930 . S
H580 C590 0.930 . S
H581 C591 0.930 . S
C582 H576 0.930 . S
C582 C583 1.355 . S
C582 C584 1.415 . S
C583 C582 1.355 . S
C583 C585 1.419 . S
C584 C582 1.415 . S
C584 C589 1.425 . S
C584 C591 1.409 . S
C585 H577 0.930 . S
C585 C583 1.419 . S
C585 C586 1.362 . S
C586 H578 0.930 . S
C586 C585 1.362 . S
C586 C589 1.409 . S
C587 H579 0.930 . S
C587 C588 1.355 . S
C587 C589 1.415 . S
C588 C587 1.355 . S
C588 C590 1.419 . S
C589 C584 1.425 . S
C589 C586 1.409 . S
C589 C587 1.415 . S
C590 H580 0.930 . S
C590 C588 1.419 . S
C590 C591 1.362 . S
C591 H581 0.930 . S
C591 C584 1.409 . S
C591 C590 1.362 . S
H592 C598 0.930 . S
H593 C601 0.930 . S
H594 C602 0.930 . S
H595 C603 0.930 . S
H596 C606 0.930 . S
H597 C607 0.930 . S
C598 H592 0.930 . S
C598 C599 1.355 . S
C598 C600 1.415 . S
C599 C598 1.355 . S
C599 C601 1.419 . S
C600 C598 1.415 . S
C600 C605 1.425 . S
C600 C607 1.409 . S
C601 H593 0.930 . S
C601 C599 1.419 . S
C601 C602 1.362 . S
C602 H594 0.930 . S
C602 C601 1.362 . S
C602 C605 1.409 . S
C603 H595 0.930 . S
C603 C604 1.355 . S
C603 C605 1.415 . S
C604 C603 1.355 . S
C604 C606 1.419 . S
C605 C600 1.425 . S
C605 C602 1.409 . S
C605 C603 1.415 . S
C606 H596 0.930 . S
C606 C604 1.419 . S
C606 C607 1.362 . S
C607 H597 0.930 . S
C607 C600 1.409 . S
C607 C606 1.362 . S
H608 C614 0.930 . S
H609 C617 0.930 . S
H610 C618 0.930 . S
H611 C619 0.930 . S
H612 C622 0.930 . S
H613 C623 0.930 . S
C614 H608 0.930 . S
C614 C615 1.355 . S
C614 C616 1.415 . S
C615 C614 1.355 . S
C615 C617 1.419 . S
C616 C614 1.415 . S
C616 C621 1.425 . S
C616 C623 1.409 . S
C617 H609 0.930 . S
C617 C615 1.419 . S
C617 C618 1.362 . S
C618 H610 0.930 . S
C618 C617 1.362 . S
C618 C621 1.409 . S
C619 H611 0.930 . S
C619 C620 1.355 . S
C619 C621 1.415 . S
C620 C619 1.355 . S
C620 C622 1.419 . S
C621 C616 1.425 . S
C621 C618 1.409 . S
C621 C619 1.415 . S
C622 H612 0.930 . S
C622 C620 1.419 . S
C622 C623 1.362 . S
C623 H613 0.930 . S
C623 C616 1.409 . S
C623 C622 1.362 . S
H624 C630 0.930 . S
H625 C633 0.930 . S
H626 C634 0.930 . S
H627 C635 0.930 . S
H628 C638 0.930 . S
H629 C639 0.930 . S
C630 H624 0.930 . S
C630 C631 1.355 . S
C630 C632 1.415 . S
C631 C630 1.355 . S
C631 C633 1.419 . S
C632 C630 1.415 . S
C632 C637 1.425 . S
C632 C639 1.409 . S
C633 H625 0.930 . S
C633 C631 1.419 . S
C633 C634 1.362 . S
C634 H626 0.930 . S
C634 C633 1.362 . S
C634 C637 1.409 . S
C635 H627 0.930 . S
C635 C636 1.355 . S
C635 C637 1.415 . S
C636 C635 1.355 . S
C636 C638 1.419 . S
C637 C632 1.425 . S
C637 C634 1.409 . S
C637 C635 1.415 . S
C638 H628 0.930 . S
C638 C636 1.419 . S
C638 C639 1.362 . S
C639 H629 0.930 . S
C639 C632 1.409 . S
C639 C638 1.362 . S
H640 C646 0.930 . S
H641 C649 0.930 . S
H642 C650 0.930 . S
H643 C651 0.930 . S
H644 C654 0.930 . S
H645 C655 0.930 . S
C646 H640 0.930 . S
C646 C647 1.355 . S
C646 C648 1.415 . S
C647 C646 1.355 . S
C647 C649 1.419 . S
C648 C646 1.415 . S
C648 C653 1.425 . S
C648 C655 1.409 . S
C649 H641 0.930 . S
C649 C647 1.419 . S
C649 C650 1.362 . S
C650 H642 0.930 . S
C650 C649 1.362 . S
C650 C653 1.409 . S
C651 H643 0.930 . S
C651 C652 1.355 . S
C651 C653 1.415 . S
C652 C651 1.355 . S
C652 C654 1.419 . S
C653 C648 1.425 . S
C653 C650 1.409 . S
C653 C651 1.415 . S
C654 H644 0.930 . S
C654 C652 1.419 . S
C654 C655 1.362 . S
C655 H645 0.930 . S
C655 C648 1.409 . S
C655 C654 1.362 . S
H656 C662 0.930 . S
H657 C665 0.930 . S
H658 C666 0.930 . S
H659 C667 0.930 . S
H660 C670 0.930 . S
H661 C671 0.930 . S
C662 H656 0.930 . S
C662 C663 1.355 . S
C662 C664 1.415 . S
C663 C662 1.355 . S
C663 C665 1.419 . S
C664 C662 1.415 . S
C664 C669 1.425 . S
C664 C671 1.409 . S
C665 H657 0.930 . S
C665 C663 1.419 . S
C665 C666 1.362 . S
C666 H658 0.930 . S
C666 C665 1.362 . S
C666 C669 1.409 . S
C667 H659 0.930 . S
C667 C668 1.355 . S
C667 C669 1.415 . S
C668 C667 1.355 . S
C668 C670 1.419 . S
C669 C664 1.425 . S
C669 C666 1.409 . S
C669 C667 1.415 . S
C670 H660 0.930 . S
C670 C668 1.419 . S
C670 C671 1.362 . S
C671 H661 0.930 . S
C671 C664 1.409 . S
C671 C670 1.362 . S
H672 C678 0.930 . S
H673 C681 0.930 . S
H674 C682 0.930 . S
H675 C683 0.930 . S
H676 C686 0.930 . S
H677 C687 0.930 . S
C678 H672 0.930 . S
C678 C679 1.355 . S
C678 C680 1.415 . S
C679 C678 1.355 . S
C679 C681 1.419 . S
C680 C678 1.415 . S
C680 C685 1.425 . S
C680 C687 1.409 . S
C681 H673 0.930 . S
C681 C679 1.419 . S
C681 C682 1.362 . S
C682 H674 0.930 . S
C682 C681 1.362 . S
C682 C685 1.409 . S
C683 H675 0.930 . S
C683 C684 1.355 . S
C683 C685 1.415 . S
C684 C683 1.355 . S
C684 C686 1.419 . S
C685 C680 1.425 . S
C685 C682 1.409 . S
C685 C683 1.415 . S
C686 H676 0.930 . S
C686 C684 1.419 . S
C686 C687 1.362 . S
C687 H677 0.930 . S
C687 C680 1.409 . S
C687 C686 1.362 . S
H688 C694 0.930 . S
H689 C697 0.930 . S
H690 C698 0.930 . S
H691 C699 0.930 . S
H692 C702 0.930 . S
H693 C703 0.930 . S
C694 H688 0.930 . S
C694 C695 1.355 . S
C694 C696 1.415 . S
C695 C694 1.355 . S
C695 C697 1.419 . S
C696 C694 1.415 . S
C696 C701 1.425 . S
C696 C703 1.409 . S
C697 H689 0.930 . S
C697 C695 1.419 . S
C697 C698 1.362 . S
C698 H690 0.930 . S
C698 C697 1.362 . S
C698 C701 1.409 . S
C699 H691 0.930 . S
C699 C700 1.355 . S
C699 C701 1.415 . S
C700 C699 1.355 . S
C700 C702 1.419 . S
C701 C696 1.425 . S
C701 C698 1.409 . S
C701 C699 1.415 . S
C702 H692 0.930 . S
C702 C700 1.419 . S
C702 C703 1.362 . S
C703 H693 0.930 . S
C703 C696 1.409 . S
C703 C702 1.362 . S
H704 C710 0.930 . S
H705 C713 0.930 . S
H706 C714 0.930 . S
H707 C715 0.930 . S
H708 C718 0.930 . S
H709 C719 0.930 . S
C710 H704 0.930 . S
C710 C711 1.355 . S
C710 C712 1.415 . S
C711 C710 1.355 . S
C711 C713 1.419 . S
C712 C710 1.415 . S
C712 C717 1.425 . S
C712 C719 1.409 . S
C713 H705 0.930 . S
C713 C711 1.419 . S
C713 C714 1.362 . S
C714 H706 0.930 . S
C714 C713 1.362 . S
C714 C717 1.409 . S
C715 H707 0.930 . S
C715 C716 1.355 . S
C715 C717 1.415 . S
C716 C715 1.355 . S
C716 C718 1.419 . S
C717 C712 1.425 . S
C717 C714 1.409 . S
C717 C715 1.415 . S
C718 H708 0.930 . S
C718 C716 1.419 . S
C718 C719 1.362 . S
C719 H709 0.930 . S
C719 C712 1.409 . S
C719 C718 1.362 . S
H720 C726 0.930 . S
H721 C729 0.930 . S
H722 C730 0.930 . S
H723 C731 0.930 . S
H724 C734 0.930 . S
H725 C735 0.930 . S
C726 H720 0.930 . S
C726 C727 1.355 . S
C726 C728 1.415 . S
C727 C726 1.355 . S
C727 C729 1.419 . S
C728 C726 1.415 . S
C728 C733 1.425 . S
C728 C735 1.409 . S
C729 H721 0.930 . S
C729 C727 1.419 . S
C729 C730 1.362 . S
C730 H722 0.930 . S
C730 C729 1.362 . S
C730 C733 1.409 . S
C731 H723 0.930 . S
C731 C732 1.355 . S
C731 C733 1.415 . S
C732 C731 1.355 . S
C732 C734 1.419 . S
C733 C728 1.425 . S
C733 C730 1.409 . S
C733 C731 1.415 . S
C734 H724 0.930 . S
C734 C732 1.419 . S
C734 C735 1.362 . S
C735 H725 0.930 . S
C735 C728 1.409 . S
C735 C734 1.362 . S
H736 C742 0.930 . S
H737 C745 0.930 . S
H738 C746 0.930 . S
H739 C747 0.930 . S
H740 C750 0.930 . S
H741 C751 0.930 . S
C742 H736 0.930 . S
C742 C743 1.355 . S
C742 C744 1.415 . S
C743 C742 1.355 . S
C743 C745 1.419 . S
C744 C742 1.415 . S
C744 C749 1.425 . S
C744 C751 1.409 . S
C745 H737 0.930 . S
C745 C743 1.419 . S
C745 C746 1.362 . S
C746 H738 0.930 . S
C746 C745 1.362 . S
C746 C749 1.409 . S
C747 H739 0.930 . S
C747 C748 1.355 . S
C747 C749 1.415 . S
C748 C747 1.355 . S
C748 C750 1.419 . S
C749 C744 1.425 . S
C749 C746 1.409 . S
C749 C747 1.415 . S
C750 H740 0.930 . S
C750 C748 1.419 . S
C750 C751 1.362 . S
C751 H741 0.930 . S
C751 C744 1.409 . S
C751 C750 1.362 . S
H752 C758 0.930 . S
H753 C761 0.930 1_655 S
H754 C762 0.930 . S
H755 C763 0.930 . S
H756 C766 0.930 . S
H757 C767 0.930 . S
C758 H752 0.930 . S
C758 C759 1.355 . S
C758 C760 1.415 . S
C759 C758 1.355 . S
C759 C761 1.419 . S
C760 C758 1.415 . S
C760 C765 1.425 . S
C760 C767 1.409 . S
C761 H753 0.930 1_455 S
C761 C759 1.419 . S
C761 C762 1.362 . S
C762 H754 0.930 . S
C762 C761 1.362 . S
C762 C765 1.409 . S
C763 H755 0.930 . S
C763 C764 1.355 . S
C763 C765 1.415 . S
C764 C763 1.355 . S
C764 C766 1.419 . S
C765 C760 1.425 . S
C765 C762 1.409 . S
C765 C763 1.415 . S
C766 H756 0.930 . S
C766 C764 1.419 . S
C766 C767 1.362 . S
C767 H757 0.930 . S
C767 C760 1.409 . S
C767 C766 1.362 . S
H768 C774 0.930 . S
H769 C777 0.930 . S
H770 C778 0.930 . S
H771 C779 0.930 . S
H772 C782 0.930 . S
H773 C783 0.930 . S
C774 H768 0.930 . S
C774 C775 1.355 . S
C774 C776 1.415 . S
C775 C774 1.355 . S
C775 C777 1.419 . S
C776 C774 1.415 . S
C776 C781 1.425 . S
C776 C783 1.409 . S
C777 H769 0.930 . S
C777 C775 1.419 . S
C777 C778 1.362 . S
C778 H770 0.930 . S
C778 C777 1.362 . S
C778 C781 1.409 . S
C779 H771 0.930 . S
C779 C780 1.355 . S
C779 C781 1.415 . S
C780 C779 1.355 . S
C780 C782 1.419 . S
C781 C776 1.425 . S
C781 C778 1.409 . S
C781 C779 1.415 . S
C782 H772 0.930 . S
C782 C780 1.419 . S
C782 C783 1.362 . S
C783 H773 0.930 . S
C783 C776 1.409 . S
C783 C782 1.362 . S
H784 C790 0.930 . S
H785 C793 0.930 . S
H786 C794 0.930 . S
H787 C795 0.930 . S
H788 C798 0.930 . S
H789 C799 0.930 . S
C790 H784 0.930 . S
C790 C791 1.355 . S
C790 C792 1.415 . S
C791 C790 1.355 . S
C791 C793 1.419 . S
C792 C790 1.415 . S
C792 C797 1.425 . S
C792 C799 1.409 . S
C793 H785 0.930 . S
C793 C791 1.419 . S
C793 C794 1.362 . S
C794 H786 0.930 . S
C794 C793 1.362 . S
C794 C797 1.409 . S
C795 H787 0.930 . S
C795 C796 1.355 . S
C795 C797 1.415 . S
C796 C795 1.355 . S
C796 C798 1.419 . S
C797 C792 1.425 . S
C797 C794 1.409 . S
C797 C795 1.415 . S
C798 H788 0.930 . S
C798 C796 1.419 . S
C798 C799 1.362 . S
C799 H789 0.930 . S
C799 C792 1.409 . S
C799 C798 1.362 . S
H800 C806 0.930 . S
H801 C809 0.930 . S
H802 C810 0.930 . S
H803 C811 0.930 . S
H804 C814 0.930 . S
H805 C815 0.930 . S
C806 H800 0.930 . S
C806 C807 1.355 . S
C806 C808 1.415 . S
C807 C806 1.355 . S
C807 C809 1.419 . S
C808 C806 1.415 . S
C808 C813 1.425 . S
C808 C815 1.409 . S
C809 H801 0.930 . S
C809 C807 1.419 . S
C809 C810 1.362 . S
C810 H802 0.930 . S
C810 C809 1.362 . S
C810 C813 1.409 . S
C811 H803 0.930 . S
C811 C812 1.355 . S
C811 C813 1.415 . S
C812 C811 1.355 . S
C812 C814 1.419 . S
C813 C808 1.425 . S
C813 C810 1.409 . S
C813 C811 1.415 . S
C814 H804 0.930 . S
C814 C812 1.419 . S
C814 C815 1.362 . S
C815 H805 0.930 . S
C815 C808 1.409 . S
C815 C814 1.362 . S
H816 C822 0.930 . S
H817 C825 0.930 . S
H818 C826 0.930 . S
H819 C827 0.930 . S
H820 C830 0.930 . S
H821 C831 0.930 . S
C822 H816 0.930 . S
C822 C823 1.355 . S
C822 C824 1.415 . S
C823 C822 1.355 . S
C823 C825 1.419 . S
C824 C822 1.415 . S
C824 C829 1.425 . S
C824 C831 1.409 . S
C825 H817 0.930 . S
C825 C823 1.419 . S
C825 C826 1.362 . S
C826 H818 0.930 . S
C826 C825 1.362 . S
C826 C829 1.409 . S
C827 H819 0.930 . S
C827 C828 1.355 . S
C827 C829 1.415 . S
C828 C827 1.355 . S
C828 C830 1.419 . S
C829 C824 1.425 . S
C829 C826 1.409 . S
C829 C827 1.415 . S
C830 H820 0.930 . S
C830 C828 1.419 . S
C830 C831 1.362 . S
C831 H821 0.930 . S
C831 C824 1.409 . S
C831 C830 1.362 . S
H832 C838 0.930 . S
H833 C841 0.930 . S
H834 C842 0.930 . S
H835 C843 0.930 . S
H836 C846 0.930 . S
H837 C847 0.930 . S
C838 H832 0.930 . S
C838 C839 1.355 . S
C838 C840 1.415 . S
C839 C838 1.355 . S
C839 C841 1.419 . S
C840 C838 1.415 . S
C840 C845 1.425 . S
C840 C847 1.409 . S
C841 H833 0.930 . S
C841 C839 1.419 . S
C841 C842 1.362 . S
C842 H834 0.930 . S
C842 C841 1.362 . S
C842 C845 1.409 . S
C843 H835 0.930 . S
C843 C844 1.355 . S
C843 C845 1.415 . S
C844 C843 1.355 . S
C844 C846 1.419 . S
C845 C840 1.425 . S
C845 C842 1.409 . S
C845 C843 1.415 . S
C846 H836 0.930 . S
C846 C844 1.419 . S
C846 C847 1.362 . S
C847 H837 0.930 . S
C847 C840 1.409 . S
C847 C846 1.362 . S
H848 C854 0.930 . S
H849 C857 0.930 . S
H850 C858 0.930 . S
H851 C859 0.930 . S
H852 C862 0.930 . S
H853 C863 0.930 . S
C854 H848 0.930 . S
C854 C855 1.355 . S
C854 C856 1.415 . S
C855 C854 1.355 . S
C855 C857 1.419 . S
C856 C854 1.415 . S
C856 C861 1.425 . S
C856 C863 1.409 . S
C857 H849 0.930 . S
C857 C855 1.419 . S
C857 C858 1.362 . S
C858 H850 0.930 . S
C858 C857 1.362 . S
C858 C861 1.409 . S
C859 H851 0.930 . S
C859 C860 1.355 . S
C859 C861 1.415 . S
C860 C859 1.355 . S
C860 C862 1.419 . S
C861 C856 1.425 . S
C861 C858 1.409 . S
C861 C859 1.415 . S
C862 H852 0.930 . S
C862 C860 1.419 . S
C862 C863 1.362 . S
C863 H853 0.930 . S
C863 C856 1.409 . S
C863 C862 1.362 . S
H864 C870 0.930 . S
H865 C873 0.930 . S
H866 C874 0.930 . S
H867 C875 0.930 . S
H868 C878 0.930 . S
H869 C879 0.930 . S
C870 H864 0.930 . S
C870 C871 1.355 . S
C870 C872 1.415 . S
C871 C870 1.355 . S
C871 C873 1.419 . S
C872 C870 1.415 . S
C872 C877 1.425 . S
C872 C879 1.409 . S
C873 H865 0.930 . S
C873 C871 1.419 . S
C873 C874 1.362 . S
C874 H866 0.930 . S
C874 C873 1.362 . S
C874 C877 1.409 . S
C875 H867 0.930 . S
C875 C876 1.355 . S
C875 C877 1.415 . S
C876 C875 1.355 . S
C876 C878 1.419 . S
C877 C872 1.425 . S
C877 C874 1.409 . S
C877 C875 1.415 . S
C878 H868 0.930 . S
C878 C876 1.419 . S
C878 C879 1.362 . S
C879 H869 0.930 . S
C879 C872 1.409 . S
C879 C878 1.362 . S
H880 C886 0.930 . S
H881 C889 0.930 . S
H882 C890 0.930 . S
H883 C891 0.930 . S
H884 C894 0.930 1_655 S
H885 C895 0.930 . S
C886 H880 0.930 . S
C886 C887 1.355 . S
C886 C888 1.415 . S
C887 C886 1.355 . S
C887 C889 1.419 . S
C888 C886 1.415 . S
C888 C893 1.425 . S
C888 C895 1.409 . S
C889 H881 0.930 . S
C889 C887 1.419 . S
C889 C890 1.362 . S
C890 H882 0.930 . S
C890 C889 1.362 . S
C890 C893 1.409 . S
C891 H883 0.930 . S
C891 C892 1.355 . S
C891 C893 1.415 . S
C892 C891 1.355 . S
C892 C894 1.419 . S
C893 C888 1.425 . S
C893 C890 1.409 . S
C893 C891 1.415 . S
C894 H884 0.930 1_455 S
C894 C892 1.419 . S
C894 C895 1.362 . S
C895 H885 0.930 . S
C895 C888 1.409 . S
C895 C894 1.362 . S
H896 C902 0.930 . S
H897 C905 0.930 . S
H898 C906 0.930 . S
H899 C907 0.930 . S
H900 C910 0.930 . S
H901 C911 0.930 . S
C902 H896 0.930 . S
C902 C903 1.355 . S
C902 C904 1.415 . S
C903 C902 1.355 . S
C903 C905 1.419 . S
C904 C902 1.415 . S
C904 C909 1.425 . S
C904 C911 1.409 . S
C905 H897 0.930 . S
C905 C903 1.419 . S
C905 C906 1.362 . S
C906 H898 0.930 . S
C906 C905 1.362 . S
C906 C909 1.409 . S
C907 H899 0.930 . S
C907 C908 1.355 . S
C907 C909 1.415 . S
C908 C907 1.355 . S
C908 C910 1.419 . S
C909 C904 1.425 . S
C909 C906 1.409 . S
C909 C907 1.415 . S
C910 H900 0.930 . S
C910 C908 1.419 . S
C910 C911 1.362 . S
C911 H901 0.930 . S
C911 C904 1.409 . S
C911 C910 1.362 . S
H912 C918 0.930 . S
H913 C921 0.930 1_655 S
H914 C922 0.930 . S
H915 C923 0.930 . S
H916 C926 0.930 . S
H917 C927 0.930 . S
C918 H912 0.930 . S
C918 C919 1.355 . S
C918 C920 1.415 . S
C919 C918 1.355 . S
C919 C921 1.419 . S
C920 C918 1.415 . S
C920 C925 1.425 . S
C920 C927 1.409 . S
C921 H913 0.930 1_455 S
C921 C919 1.419 . S
C921 C922 1.362 . S
C922 H914 0.930 . S
C922 C921 1.362 . S
C922 C925 1.409 . S
C923 H915 0.930 . S
C923 C924 1.355 . S
C923 C925 1.415 . S
C924 C923 1.355 . S
C924 C926 1.419 . S
C925 C920 1.425 . S
C925 C922 1.409 . S
C925 C923 1.415 . S
C926 H916 0.930 . S
C926 C924 1.419 . S
C926 C927 1.362 . S
C927 H917 0.930 . S
C927 C920 1.409 . S
C927 C926 1.362 . S
H928 C934 0.930 . S
H929 C937 0.930 . S
H930 C938 0.930 . S
H931 C939 0.930 . S
H932 C942 0.930 . S
H933 C943 0.930 . S
C934 H928 0.930 . S
C934 C935 1.355 . S
C934 C936 1.415 . S
C935 C934 1.355 . S
C935 C937 1.419 1_655 S
C936 C934 1.415 . S
C936 C941 1.425 1_655 S
C936 C943 1.409 . S
C937 H929 0.930 . S
C937 C935 1.419 1_455 S
C937 C938 1.362 . S
C938 H930 0.930 . S
C938 C937 1.362 . S
C938 C941 1.409 . S
C939 H931 0.930 . S
C939 C940 1.355 . S
C939 C941 1.415 . S
C940 C939 1.355 . S
C940 C942 1.419 1_455 S
C941 C936 1.425 1_455 S
C941 C938 1.409 . S
C941 C939 1.415 . S
C942 H932 0.930 . S
C942 C940 1.419 1_655 S
C942 C943 1.362 . S
C943 H933 0.930 . S
C943 C936 1.409 . S
C943 C942 1.362 . S
H944 C950 0.930 . S
H945 C953 0.930 . S
H946 C954 0.930 . S
H947 C955 0.930 . S
H948 C958 0.930 . S
H949 C959 0.930 . S
C950 H944 0.930 . S
C950 C951 1.355 . S
C950 C952 1.415 . S
C951 C950 1.355 . S
C951 C953 1.419 . S
C952 C950 1.415 . S
C952 C957 1.425 1_565 S
C952 C959 1.409 . S
C953 H945 0.930 . S
C953 C951 1.419 . S
C953 C954 1.362 1_565 S
C954 H946 0.930 . S
C954 C953 1.362 1_545 S
C954 C957 1.409 . S
C955 H947 0.930 . S
C955 C956 1.355 . S
C955 C957 1.415 . S
C956 C955 1.355 . S
C956 C958 1.419 . S
C957 C952 1.425 1_545 S
C957 C954 1.409 . S
C957 C955 1.415 . S
C958 H948 0.930 . S
C958 C956 1.419 . S
C958 C959 1.362 1_545 S
C959 H949 0.930 . S
C959 C952 1.409 . S
C959 C958 1.362 1_565 S
H960 C966 0.930 . S
H961 C969 0.930 . S
H962 C970 0.930 . S
H963 C971 0.930 . S
H964 C974 0.930 . S
H965 C975 0.930 . S
C966 H960 0.930 . S
C966 C967 1.355 . S
C966 C968 1.415 1_545 S
C967 C966 1.355 . S
C967 C969 1.419 1_554 S
C968 C966 1.415 1_565 S
C968 C973 1.425 1_664 S
C968 C975 1.409 . S
C969 H961 0.930 . S
C969 C967 1.419 1_556 S
C969 C970 1.362 1_655 S
C970 H962 0.930 . S
C970 C969 1.362 1_455 S
C970 C973 1.409 . S
C971 H963 0.930 . S
C971 C972 1.355 . S
C971 C973 1.415 1_565 S
C972 C971 1.355 . S
C972 C974 1.419 1_556 S
C973 C968 1.425 1_446 S
C973 C970 1.409 . S
C973 C971 1.415 1_545 S
C974 H964 0.930 . S
C974 C972 1.419 1_554 S
C974 C975 1.362 1_455 S
C975 H965 0.930 . S
C975 C968 1.409 . S
C975 C974 1.362 1_655 S
H976 C982 0.930 . S
H977 C985 0.930 . S
H978 C986 0.930 . S
H979 C987 0.930 . S
H980 C990 0.930 . S
H981 C991 0.930 . S
C982 H976 0.930 . S
C982 C983 1.355 . S
C982 C984 1.415 . S
C983 C982 1.355 . S
C983 C985 1.419 1_554 S
C984 C982 1.415 . S
C984 C989 1.425 1_554 S
C984 C991 1.409 . S
C985 H977 0.930 . S
C985 C983 1.419 1_556 S
C985 C986 1.362 . S
C986 H978 0.930 . S
C986 C985 1.362 . S
C986 C989 1.409 . S
C987 H979 0.930 . S
C987 C988 1.355 . S
C987 C989 1.415 . S
C988 C987 1.355 . S
C988 C990 1.419 1_556 S
C989 C984 1.425 1_556 S
C989 C986 1.409 . S
C989 C987 1.415 . S
C990 H980 0.930 . S
C990 C988 1.419 1_554 S
C990 C991 1.362 . S
C991 H981 0.930 . S
C991 C984 1.409 . S
C991 C990 1.362 . S
H992 C998 0.930 . S
H993 C1001 0.930 . S
H994 C1002 0.930 . S
H995 C1003 0.930 . S
H996 C1006 0.930 . S
H997 C1007 0.930 . S
C998 H992 0.930 . S
C998 C999 1.355 . S
C998 C1000 1.415 . S
C999 C998 1.355 . S
C999 C1001 1.419 1_655 S
C1000 C998 1.415 . S
C1000 C1005 1.425 1_655 S
C1000 C1007 1.409 . S
C1001 H993 0.930 . S
C1001 C999 1.419 1_455 S
C1001 C1002 1.362 . S
C1002 H994 0.930 . S
C1002 C1001 1.362 . S
C1002 C1005 1.409 . S
C1003 H995 0.930 . S
C1003 C1004 1.355 . S
C1003 C1005 1.415 . S
C1004 C1003 1.355 . S
C1004 C1006 1.419 1_455 S
C1005 C1000 1.425 1_455 S
C1005 C1002 1.409 . S
C1005 C1003 1.415 . S
C1006 H996 0.930 . S
C1006 C1004 1.419 1_655 S
C1006 C1007 1.362 . S
C1007 H997 0.930 . S
C1007 C1000 1.409 . S
C1007 C1006 1.362 . S
H1008 C1014 0.930 . S
H1009 C1017 0.930 . S
H1010 C1018 0.930 . S
H1011 C1019 0.930 . S
H1012 C1022 0.930 . S
H1013 C1023 0.930 . S
C1014 H1008 0.930 . S
C1014 C1015 1.355 . S
C1014 C1016 1.454 . S
C1015 C1014 1.355 . S
C1015 C1017 1.419 . S
C1016 C1014 1.454 . S
C1016 C1021 1.421 1_565 S
C1016 C1023 1.374 1_565 S
C1017 H1009 0.930 . S
C1017 C1015 1.419 . S
C1017 C1018 1.362 . S
C1018 H1010 0.930 . S
C1018 C1017 1.362 . S
C1018 C1021 1.374 1_565 S
C1019 H1011 0.930 . S
C1019 C1020 1.355 . S
C1019 C1021 1.454 . S
C1020 C1019 1.355 . S
C1020 C1022 1.419 . S
C1021 C1016 1.421 1_545 S
C1021 C1018 1.374 1_545 S
C1021 C1019 1.454 . S
C1022 H1012 0.930 . S
C1022 C1020 1.419 . S
C1022 C1023 1.362 . S
C1023 H1013 0.930 . S
C1023 C1016 1.374 1_545 S
C1023 C1022 1.362 . S
H1024 C1030 0.930 . S
H1025 C1033 0.930 . S
H1026 C1034 0.930 1_554 S
H1027 C1035 0.930 . S
H1028 C1038 0.930 . S
H1029 C1039 0.930 1_556 S
C1030 H1024 0.930 . S
C1030 C1031 1.355 . S
C1030 C1032 1.415 . S
C1031 C1030 1.355 . S
C1031 C1033 1.419 . S
C1032 C1030 1.415 . S
C1032 C1037 1.425 1_556 S
C1032 C1039 1.409 1_556 S
C1033 H1025 0.930 . S
C1033 C1031 1.419 . S
C1033 C1034 1.362 . S
C1034 H1026 0.930 1_556 S
C1034 C1033 1.362 . S
C1034 C1037 1.409 1_556 S
C1035 H1027 0.930 . S
C1035 C1036 1.355 . S
C1035 C1037 1.415 . S
C1036 C1035 1.355 . S
C1036 C1038 1.419 . S
C1037 C1032 1.425 1_554 S
C1037 C1034 1.409 1_554 S
C1037 C1035 1.415 . S
C1038 H1028 0.930 . S
C1038 C1036 1.419 . S
C1038 C1039 1.362 . S
C1039 H1029 0.930 1_554 S
C1039 C1032 1.409 1_554 S
C1039 C1038 1.362 . S
H1040 C1046 0.930 . S
H1041 C1049 0.930 . S
H1042 C1050 0.930 . S
H1043 C1051 0.930 . S
H1044 C1054 0.930 . S
H1045 C1055 0.930 . S
C1046 H1040 0.930 . S
C1046 C1047 1.355 . S
C1046 C1048 1.415 . S
C1047 C1046 1.355 . S
C1047 C1049 1.419 . S
C1048 C1046 1.415 . S
C1048 C1053 1.425 . S
C1048 C1055 1.409 . S
C1049 H1041 0.930 . S
C1049 C1047 1.419 . S
C1049 C1050 1.362 . S
C1050 H1042 0.930 . S
C1050 C1049 1.362 . S
C1050 C1053 1.409 . S
C1051 H1043 0.930 . S
C1051 C1052 1.355 . S
C1051 C1053 1.415 . S
C1052 C1051 1.355 . S
C1052 C1054 1.419 . S
C1053 C1048 1.425 . S
C1053 C1050 1.409 . S
C1053 C1051 1.415 . S
C1054 H1044 0.930 . S
C1054 C1052 1.419 . S
C1054 C1055 1.362 . S
C1055 H1045 0.930 . S
C1055 C1048 1.409 . S
C1055 C1054 1.362 . S
H1056 C1062 0.930 . S
H1057 C1065 0.930 . S
H1058 C1066 0.930 . S
H1059 C1067 0.930 . S
H1060 C1070 0.930 . S
H1061 C1071 0.930 . S
C1062 H1056 0.930 . S
C1062 C1063 1.355 . S
C1062 C1064 1.415 . S
C1063 C1062 1.355 . S
C1063 C1065 1.419 . S
C1064 C1062 1.415 . S
C1064 C1069 1.425 1_455 S
C1064 C1071 1.409 . S
C1065 H1057 0.930 . S
C1065 C1063 1.419 . S
C1065 C1066 1.362 1_455 S
C1066 H1058 0.930 . S
C1066 C1065 1.362 1_655 S
C1066 C1069 1.409 . S
C1067 H1059 0.930 . S
C1067 C1068 1.355 . S
C1067 C1069 1.415 . S
C1068 C1067 1.355 . S
C1068 C1070 1.419 . S
C1069 C1064 1.425 1_655 S
C1069 C1066 1.409 . S
C1069 C1067 1.415 . S
C1070 H1060 0.930 . S
C1070 C1068 1.419 . S
C1070 C1071 1.362 1_655 S
C1071 H1061 0.930 . S
C1071 C1064 1.409 . S
C1071 C1070 1.362 1_455 S
H1072 C1078 0.930 . S
H1073 C1081 0.930 . S
H1074 C1082 0.930 . S
H1075 C1083 0.930 . S
H1076 C1086 0.930 . S
H1077 C1087 0.930 . S
C1078 H1072 0.930 . S
C1078 C1079 1.355 . S
C1078 C1080 1.415 . S
C1079 C1078 1.355 . S
C1079 C1081 1.419 . S
C1080 C1078 1.415 . S
C1080 C1085 1.425 . S
C1080 C1087 1.409 . S
C1081 H1073 0.930 . S
C1081 C1079 1.419 . S
C1081 C1082 1.362 . S
C1082 H1074 0.930 . S
C1082 C1081 1.362 . S
C1082 C1085 1.409 . S
C1083 H1075 0.930 . S
C1083 C1084 1.355 . S
C1083 C1085 1.415 . S
C1084 C1083 1.355 . S
C1084 C1086 1.419 . S
C1085 C1080 1.425 . S
C1085 C1082 1.409 . S
C1085 C1083 1.415 . S
C1086 H1076 0.930 . S
C1086 C1084 1.419 . S
C1086 C1087 1.362 . S
C1087 H1077 0.930 . S
C1087 C1080 1.409 . S
C1087 C1086 1.362 . S
H1088 C1094 0.930 . S
H1089 C1097 0.930 . S
H1090 C1098 0.930 . S
H1091 C1099 0.930 . S
H1092 C1102 0.930 . S
H1093 C1103 0.930 . S
C1094 H1088 0.930 . S
C1094 C1095 1.355 . S
C1094 C1096 1.415 . S
C1095 C1094 1.355 . S
C1095 C1097 1.419 . S
C1096 C1094 1.415 . S
C1096 C1101 1.425 . S
C1096 C1103 1.409 . S
C1097 H1089 0.930 . S
C1097 C1095 1.419 . S
C1097 C1098 1.362 . S
C1098 H1090 0.930 . S
C1098 C1097 1.362 . S
C1098 C1101 1.409 . S
C1099 H1091 0.930 . S
C1099 C1100 1.355 . S
C1099 C1101 1.415 . S
C1100 C1099 1.355 . S
C1100 C1102 1.419 . S
C1101 C1096 1.425 . S
C1101 C1098 1.409 . S
C1101 C1099 1.415 . S
C1102 H1092 0.930 . S
C1102 C1100 1.419 . S
C1102 C1103 1.362 . S
C1103 H1093 0.930 . S
C1103 C1096 1.409 . S
C1103 C1102 1.362 . S
H1104 C1110 0.930 . S
H1105 C1113 0.930 . S
H1106 C1114 0.930 . S
H1107 C1115 0.930 . S
H1108 C1118 0.930 . S
H1109 C1119 0.930 . S
C1110 H1104 0.930 . S
C1110 C1111 1.355 . S
C1110 C1112 1.415 . S
C1111 C1110 1.355 . S
C1111 C1113 1.419 . S
C1112 C1110 1.415 . S
C1112 C1117 1.425 . S
C1112 C1119 1.409 . S
C1113 H1105 0.930 . S
C1113 C1111 1.419 . S
C1113 C1114 1.362 . S
C1114 H1106 0.930 . S
C1114 C1113 1.362 . S
C1114 C1117 1.409 . S
C1115 H1107 0.930 . S
C1115 C1116 1.355 . S
C1115 C1117 1.415 . S
C1116 C1115 1.355 . S
C1116 C1118 1.419 . S
C1117 C1112 1.425 . S
C1117 C1114 1.409 . S
C1117 C1115 1.415 . S
C1118 H1108 0.930 . S
C1118 C1116 1.419 . S
C1118 C1119 1.362 . S
C1119 H1109 0.930 . S
C1119 C1112 1.409 . S
C1119 C1118 1.362 . S
H1120 C1126 0.930 . S
H1121 C1129 0.930 . S
H1122 C1130 0.930 . S
H1123 C1131 0.930 . S
H1124 C1134 0.930 . S
H1125 C1135 0.930 . S
C1126 H1120 0.930 . S
C1126 C1127 1.355 . S
C1126 C1128 1.415 . S
C1127 C1126 1.355 . S
C1127 C1129 1.419 . S
C1128 C1126 1.415 . S
C1128 C1133 1.425 . S
C1128 C1135 1.409 . S
C1129 H1121 0.930 . S
C1129 C1127 1.419 . S
C1129 C1130 1.362 . S
C1130 H1122 0.930 . S
C1130 C1129 1.362 . S
C1130 C1133 1.409 . S
C1131 H1123 0.930 . S
C1131 C1132 1.355 . S
C1131 C1133 1.415 . S
C1132 C1131 1.355 . S
C1132 C1134 1.419 . S
C1133 C1128 1.425 . S
C1133 C1130 1.409 . S
C1133 C1131 1.415 . S
C1134 H1124 0.930 . S
C1134 C1132 1.419 . S
C1134 C1135 1.362 . S
C1135 H1125 0.930 . S
C1135 C1128 1.409 . S
C1135 C1134 1.362 . S
H1136 C1142 0.930 . S
H1137 C1145 0.930 . S
H1138 C1146 0.930 . S
H1139 C1147 0.930 . S
H1140 C1150 0.930 . S
H1141 C1151 0.930 . S
C1142 H1136 0.930 . S
C1142 C1143 1.355 . S
C1142 C1144 1.415 1_545 S
C1143 C1142 1.355 . S
C1143 C1145 1.419 . S
C1144 C1142 1.415 1_565 S
C1144 C1149 1.425 1_565 S
C1144 C1151 1.409 . S
C1145 H1137 0.930 . S
C1145 C1143 1.419 . S
C1145 C1146 1.362 . S
C1146 H1138 0.930 . S
C1146 C1145 1.362 . S
C1146 C1149 1.409 . S
C1147 H1139 0.930 . S
C1147 C1148 1.355 . S
C1147 C1149 1.415 1_565 S
C1148 C1147 1.355 . S
C1148 C1150 1.419 . S
C1149 C1144 1.425 1_545 S
C1149 C1146 1.409 . S
C1149 C1147 1.415 1_545 S
C1150 H1140 0.930 . S
C1150 C1148 1.419 . S
C1150 C1151 1.362 . S
C1151 H1141 0.930 . S
C1151 C1144 1.409 . S
C1151 C1150 1.362 . S
H1152 C1158 0.930 . S
H1153 C1161 0.930 . S
H1154 C1162 0.930 . S
H1155 C1163 0.930 . S
H1156 C1166 0.930 . S
H1157 C1167 0.930 . S
C1158 H1152 0.930 . S
C1158 C1159 1.355 . S
C1158 C1160 1.415 . S
C1159 C1158 1.355 . S
C1159 C1161 1.419 . S
C1160 C1158 1.415 . S
C1160 C1165 1.425 . S
C1160 C1167 1.409 . S
C1161 H1153 0.930 . S
C1161 C1159 1.419 . S
C1161 C1162 1.362 . S
C1162 H1154 0.930 . S
C1162 C1161 1.362 . S
C1162 C1165 1.409 . S
C1163 H1155 0.930 . S
C1163 C1164 1.355 . S
C1163 C1165 1.415 . S
C1164 C1163 1.355 . S
C1164 C1166 1.419 . S
C1165 C1160 1.425 . S
C1165 C1162 1.409 . S
C1165 C1163 1.415 . S
C1166 H1156 0.930 . S
C1166 C1164 1.419 . S
C1166 C1167 1.362 . S
C1167 H1157 0.930 . S
C1167 C1160 1.409 . S
C1167 C1166 1.362 . S
H1168 C1174 0.930 1_554 S
H1169 C1177 0.930 . S
H1170 C1178 0.930 . S
H1171 C1179 0.930 1_556 S
H1172 C1182 0.930 . S
H1173 C1183 0.930 . S
C1174 H1168 0.930 1_556 S
C1174 C1175 1.355 . S
C1174 C1176 1.415 1_556 S
C1175 C1174 1.355 . S
C1175 C1177 1.419 . S
C1176 C1174 1.415 1_554 S
C1176 C1181 1.425 1_554 S
C1176 C1183 1.409 . S
C1177 H1169 0.930 . S
C1177 C1175 1.419 . S
C1177 C1178 1.362 . S
C1178 H1170 0.930 . S
C1178 C1177 1.362 . S
C1178 C1181 1.409 . S
C1179 H1171 0.930 1_554 S
C1179 C1180 1.355 . S
C1179 C1181 1.415 1_554 S
C1180 C1179 1.355 . S
C1180 C1182 1.419 . S
C1181 C1176 1.425 1_556 S
C1181 C1178 1.409 . S
C1181 C1179 1.415 1_556 S
C1182 H1172 0.930 . S
C1182 C1180 1.419 . S
C1182 C1183 1.362 . S
C1183 H1173 0.930 . S
C1183 C1176 1.409 . S
C1183 C1182 1.362 . S
H1184 C1190 0.930 . S
H1185 C1193 0.930 . S
H1186 C1194 0.930 . S
H1187 C1195 0.930 . S
H1188 C1198 0.930 . S
H1189 C1199 0.930 . S
C1190 H1184 0.930 . S
C1190 C1191 1.355 . S
C1190 C1192 1.415 . S
C1191 C1190 1.355 . S
C1191 C1193 1.419 . S
C1192 C1190 1.415 . S
C1192 C1197 1.425 . S
C1192 C1199 1.409 . S
C1193 H1185 0.930 . S
C1193 C1191 1.419 . S
C1193 C1194 1.362 . S
C1194 H1186 0.930 . S
C1194 C1193 1.362 . S
C1194 C1197 1.409 . S
C1195 H1187 0.930 . S
C1195 C1196 1.355 . S
C1195 C1197 1.415 . S
C1196 C1195 1.355 . S
C1196 C1198 1.419 . S
C1197 C1192 1.425 . S
C1197 C1194 1.409 . S
C1197 C1195 1.415 . S
C1198 H1188 0.930 . S
C1198 C1196 1.419 . S
C1198 C1199 1.362 . S
C1199 H1189 0.930 . S
C1199 C1192 1.409 . S
C1199 C1198 1.362 . S
H1200 C1206 0.930 . S
H1201 C1209 0.930 . S
H1202 C1210 0.930 . S
H1203 C1211 0.930 . S
H1204 C1214 0.930 . S
H1205 C1215 0.930 . S
C1206 H1200 0.930 . S
C1206 C1207 1.355 . S
C1206 C1208 1.415 . S
C1207 C1206 1.355 . S
C1207 C1209 1.419 . S
C1208 C1206 1.415 . S
C1208 C1213 1.425 . S
C1208 C1215 1.409 . S
C1209 H1201 0.930 . S
C1209 C1207 1.419 . S
C1209 C1210 1.362 . S
C1210 H1202 0.930 . S
C1210 C1209 1.362 . S
C1210 C1213 1.409 . S
C1211 H1203 0.930 . S
C1211 C1212 1.355 . S
C1211 C1213 1.415 . S
C1212 C1211 1.355 . S
C1212 C1214 1.419 . S
C1213 C1208 1.425 . S
C1213 C1210 1.409 . S
C1213 C1211 1.415 . S
C1214 H1204 0.930 . S
C1214 C1212 1.419 . S
C1214 C1215 1.362 . S
C1215 H1205 0.930 . S
C1215 C1208 1.409 . S
C1215 C1214 1.362 . S
H1216 C1222 0.930 . S
H1217 C1225 0.930 . S
H1218 C1226 0.930 . S
H1219 C1227 0.930 . S
H1220 C1230 0.930 . S
H1221 C1231 0.930 . S
C1222 H1216 0.930 . S
C1222 C1223 1.355 . S
C1222 C1224 1.415 . S
C1223 C1222 1.355 . S
C1223 C1225 1.419 . S
C1224 C1222 1.415 . S
C1224 C1229 1.425 . S
C1224 C1231 1.409 . S
C1225 H1217 0.930 . S
C1225 C1223 1.419 . S
C1225 C1226 1.362 . S
C1226 H1218 0.930 . S
C1226 C1225 1.362 . S
C1226 C1229 1.409 . S
C1227 H1219 0.930 . S
C1227 C1228 1.355 . S
C1227 C1229 1.415 . S
C1228 C1227 1.355 . S
C1228 C1230 1.419 . S
C1229 C1224 1.425 . S
C1229 C1226 1.409 . S
C1229 C1227 1.415 . S
C1230 H1220 0.930 . S
C1230 C1228 1.419 . S
C1230 C1231 1.362 . S
C1231 H1221 0.930 . S
C1231 C1224 1.409 . S
C1231 C1230 1.362 . S
H1232 C1238 0.930 . S
H1233 C1241 0.930 . S
H1234 C1242 0.930 . S
H1235 C1243 0.930 . S
H1236 C1246 0.930 . S
H1237 C1247 0.930 . S
C1238 H1232 0.930 . S
C1238 C1239 1.355 . S
C1238 C1240 1.415 . S
C1239 C1238 1.355 . S
C1239 C1241 1.419 . S
C1240 C1238 1.415 . S
C1240 C1245 1.425 . S
C1240 C1247 1.409 . S
C1241 H1233 0.930 . S
C1241 C1239 1.419 . S
C1241 C1242 1.362 . S
C1242 H1234 0.930 . S
C1242 C1241 1.362 . S
C1242 C1245 1.409 . S
C1243 H1235 0.930 . S
C1243 C1244 1.355 . S
C1243 C1245 1.415 . S
C1244 C1243 1.355 . S
C1244 C1246 1.419 . S
C1245 C1240 1.425 . S
C1245 C1242 1.409 . S
C1245 C1243 1.415 . S
C1246 H1236 0.930 . S
C1246 C1244 1.419 . S
C1246 C1247 1.362 . S
C1247 H1237 0.930 . S
C1247 C1240 1.409 . S
C1247 C1246 1.362 . S
H1248 C1254 0.930 . S
H1249 C1257 0.930 . S
H1250 C1258 0.930 . S
H1251 C1259 0.930 . S
H1252 C1262 0.930 . S
H1253 C1263 0.930 . S
C1254 H1248 0.930 . S
C1254 C1255 1.355 . S
C1254 C1256 1.415 . S
C1255 C1254 1.355 . S
C1255 C1257 1.419 . S
C1256 C1254 1.415 . S
C1256 C1261 1.425 . S
C1256 C1263 1.409 . S
C1257 H1249 0.930 . S
C1257 C1255 1.419 . S
C1257 C1258 1.362 . S
C1258 H1250 0.930 . S
C1258 C1257 1.362 . S
C1258 C1261 1.409 . S
C1259 H1251 0.930 . S
C1259 C1260 1.355 . S
C1259 C1261 1.415 . S
C1260 C1259 1.355 . S
C1260 C1262 1.419 . S
C1261 C1256 1.425 . S
C1261 C1258 1.409 . S
C1261 C1259 1.415 . S
C1262 H1252 0.930 . S
C1262 C1260 1.419 . S
C1262 C1263 1.362 . S
C1263 H1253 0.930 . S
C1263 C1256 1.409 . S
C1263 C1262 1.362 . S
H1264 C1270 0.930 . S
H1265 C1273 0.930 . S
H1266 C1274 0.930 . S
H1267 C1275 0.930 . S
H1268 C1278 0.930 . S
H1269 C1279 0.930 . S
C1270 H1264 0.930 . S
C1270 C1271 1.355 . S
C1270 C1272 1.415 . S
C1271 C1270 1.355 . S
C1271 C1273 1.419 . S
C1272 C1270 1.415 . S
C1272 C1277 1.425 . S
C1272 C1279 1.409 . S
C1273 H1265 0.930 . S
C1273 C1271 1.419 . S
C1273 C1274 1.362 . S
C1274 H1266 0.930 . S
C1274 C1273 1.362 . S
C1274 C1277 1.409 . S
C1275 H1267 0.930 . S
C1275 C1276 1.355 . S
C1275 C1277 1.415 . S
C1276 C1275 1.355 . S
C1276 C1278 1.419 . S
C1277 C1272 1.425 . S
C1277 C1274 1.409 . S
C1277 C1275 1.415 . S
C1278 H1268 0.930 . S
C1278 C1276 1.419 . S
C1278 C1279 1.362 . S
C1279 H1269 0.930 . S
C1279 C1272 1.409 . S
C1279 C1278 1.362 . S
H1280 C1286 0.930 . S
H1281 C1289 0.930 . S
H1282 C1290 0.930 . S
H1283 C1291 0.930 . S
H1284 C1294 0.930 . S
H1285 C1295 0.930 . S
C1286 H1280 0.930 . S
C1286 C1287 1.355 . S
C1286 C1288 1.415 . S
C1287 C1286 1.355 . S
C1287 C1289 1.419 . S
C1288 C1286 1.415 . S
C1288 C1293 1.425 . S
C1288 C1295 1.409 . S
C1289 H1281 0.930 . S
C1289 C1287 1.419 . S
C1289 C1290 1.362 . S
C1290 H1282 0.930 . S
C1290 C1289 1.362 . S
C1290 C1293 1.409 . S
C1291 H1283 0.930 . S
C1291 C1292 1.355 . S
C1291 C1293 1.415 . S
C1292 C1291 1.355 . S
C1292 C1294 1.419 . S
C1293 C1288 1.425 . S
C1293 C1290 1.409 . S
C1293 C1291 1.415 . S
C1294 H1284 0.930 . S
C1294 C1292 1.419 . S
C1294 C1295 1.362 . S
C1295 H1285 0.930 . S
C1295 C1288 1.409 . S
C1295 C1294 1.362 . S
H1296 C1302 0.930 . S
H1297 C1305 0.930 . S
H1298 C1306 0.930 . S
H1299 C1307 0.930 . S
H1300 C1310 0.930 . S
H1301 C1311 0.930 . S
C1302 H1296 0.930 . S
C1302 C1303 1.355 . S
C1302 C1304 1.415 . S
C1303 C1302 1.355 . S
C1303 C1305 1.419 . S
C1304 C1302 1.415 . S
C1304 C1309 1.425 . S
C1304 C1311 1.409 . S
C1305 H1297 0.930 . S
C1305 C1303 1.419 . S
C1305 C1306 1.362 . S
C1306 H1298 0.930 . S
C1306 C1305 1.362 . S
C1306 C1309 1.409 . S
C1307 H1299 0.930 . S
C1307 C1308 1.355 . S
C1307 C1309 1.415 . S
C1308 C1307 1.355 . S
C1308 C1310 1.419 . S
C1309 C1304 1.425 . S
C1309 C1306 1.409 . S
C1309 C1307 1.415 . S
C1310 H1300 0.930 . S
C1310 C1308 1.419 . S
C1310 C1311 1.362 . S
C1311 H1301 0.930 . S
C1311 C1304 1.409 . S
C1311 C1310 1.362 . S
H1312 C1318 0.930 . S
H1313 C1321 0.930 . S
H1314 C1322 0.930 . S
H1315 C1323 0.930 . S
H1316 C1326 0.930 . S
H1317 C1327 0.930 . S
C1318 H1312 0.930 . S
C1318 C1319 1.355 . S
C1318 C1320 1.415 . S
C1319 C1318 1.355 . S
C1319 C1321 1.419 . S
C1320 C1318 1.415 . S
C1320 C1325 1.425 . S
C1320 C1327 1.409 . S
C1321 H1313 0.930 . S
C1321 C1319 1.419 . S
C1321 C1322 1.362 . S
C1322 H1314 0.930 . S
C1322 C1321 1.362 . S
C1322 C1325 1.409 . S
C1323 H1315 0.930 . S
C1323 C1324 1.355 . S
C1323 C1325 1.415 . S
C1324 C1323 1.355 . S
C1324 C1326 1.419 . S
C1325 C1320 1.425 . S
C1325 C1322 1.409 . S
C1325 C1323 1.415 . S
C1326 H1316 0.930 . S
C1326 C1324 1.419 . S
C1326 C1327 1.362 . S
C1327 H1317 0.930 . S
C1327 C1320 1.409 . S
C1327 C1326 1.362 . S
H1328 C1334 0.930 . S
H1329 C1337 0.930 . S
H1330 C1338 0.930 . S
H1331 C1339 0.930 . S
H1332 C1342 0.930 . S
H1333 C1343 0.930 . S
C1334 H1328 0.930 . S
C1334 C1335 1.355 . S
C1334 C1336 1.415 . S
C1335 C1334 1.355 . S
C1335 C1337 1.419 . S
C1336 C1334 1.415 . S
C1336 C1341 1.425 . S
C1336 C1343 1.409 . S
C1337 H1329 0.930 . S
C1337 C1335 1.419 . S
C1337 C1338 1.362 . S
C1338 H1330 0.930 . S
C1338 C1337 1.362 . S
C1338 C1341 1.409 . S
C1339 H1331 0.930 . S
C1339 C1340 1.355 . S
C1339 C1341 1.415 . S
C1340 C1339 1.355 . S
C1340 C1342 1.419 . S
C1341 C1336 1.425 . S
C1341 C1338 1.409 . S
C1341 C1339 1.415 . S
C1342 H1332 0.930 . S
C1342 C1340 1.419 . S
C1342 C1343 1.362 . S
C1343 H1333 0.930 . S
C1343 C1336 1.409 . S
C1343 C1342 1.362 . S
H1344 C1350 0.930 . S
H1345 C1353 0.930 . S
H1346 C1354 0.930 . S
H1347 C1355 0.930 . S
H1348 C1358 0.930 . S
H1349 C1359 0.930 . S
C1350 H1344 0.930 . S
C1350 C1351 1.355 . S
C1350 C1352 1.415 . S
C1351 C1350 1.355 . S
C1351 C1353 1.419 . S
C1352 C1350 1.415 . S
C1352 C1357 1.425 . S
C1352 C1359 1.409 . S
C1353 H1345 0.930 . S
C1353 C1351 1.419 . S
C1353 C1354 1.362 . S
C1354 H1346 0.930 . S
C1354 C1353 1.362 . S
C1354 C1357 1.409 . S
C1355 H1347 0.930 . S
C1355 C1356 1.355 . S
C1355 C1357 1.415 . S
C1356 C1355 1.355 . S
C1356 C1358 1.419 . S
C1357 C1352 1.425 . S
C1357 C1354 1.409 . S
C1357 C1355 1.415 . S
C1358 H1348 0.930 . S
C1358 C1356 1.419 . S
C1358 C1359 1.362 . S
C1359 H1349 0.930 . S
C1359 C1352 1.409 . S
C1359 C1358 1.362 . S
H1360 C1366 0.930 . S
H1361 C1369 0.930 . S
H1362 C1370 0.930 . S
H1363 C1371 0.930 . S
H1364 C1374 0.930 . S
H1365 C1375 0.930 . S
C1366 H1360 0.930 . S
C1366 C1367 1.355 . S
C1366 C1368 1.415 . S
C1367 C1366 1.355 . S
C1367 C1369 1.419 . S
C1368 C1366 1.415 . S
C1368 C1373 1.425 . S
C1368 C1375 1.409 . S
C1369 H1361 0.930 . S
C1369 C1367 1.419 . S
C1369 C1370 1.362 . S
C1370 H1362 0.930 . S
C1370 C1369 1.362 . S
C1370 C1373 1.409 . S
C1371 H1363 0.930 . S
C1371 C1372 1.355 . S
C1371 C1373 1.415 . S
C1372 C1371 1.355 . S
C1372 C1374 1.419 . S
C1373 C1368 1.425 . S
C1373 C1370 1.409 . S
C1373 C1371 1.415 . S
C1374 H1364 0.930 . S
C1374 C1372 1.419 . S
C1374 C1375 1.362 . S
C1375 H1365 0.930 . S
C1375 C1368 1.409 . S
C1375 C1374 1.362 . S
H1376 C1382 0.930 . S
H1377 C1385 0.930 . S
H1378 C1386 0.930 . S
H1379 C1387 0.930 . S
H1380 C1390 0.930 . S
H1381 C1391 0.930 . S
C1382 H1376 0.930 . S
C1382 C1383 1.355 . S
C1382 C1384 1.415 . S
C1383 C1382 1.355 . S
C1383 C1385 1.419 . S
C1384 C1382 1.415 . S
C1384 C1389 1.425 . S
C1384 C1391 1.409 . S
C1385 H1377 0.930 . S
C1385 C1383 1.419 . S
C1385 C1386 1.362 . S
C1386 H1378 0.930 . S
C1386 C1385 1.362 . S
C1386 C1389 1.409 . S
C1387 H1379 0.930 . S
C1387 C1388 1.355 . S
C1387 C1389 1.415 . S
C1388 C1387 1.355 . S
C1388 C1390 1.419 . S
C1389 C1384 1.425 . S
C1389 C1386 1.409 . S
C1389 C1387 1.415 . S
C1390 H1380 0.930 . S
C1390 C1388 1.419 . S
C1390 C1391 1.362 . S
C1391 H1381 0.930 . S
C1391 C1384 1.409 . S
C1391 C1390 1.362 . S
H1392 C1398 0.930 . S
H1393 C1401 0.930 . S
H1394 C1402 0.930 . S
H1395 C1403 0.930 . S
H1396 C1406 0.930 . S
H1397 C1407 0.930 . S
C1398 H1392 0.930 . S
C1398 C1399 1.355 . S
C1398 C1400 1.415 . S
C1399 C1398 1.355 . S
C1399 C1401 1.419 . S
C1400 C1398 1.415 . S
C1400 C1405 1.425 . S
C1400 C1407 1.409 . S
C1401 H1393 0.930 . S
C1401 C1399 1.419 . S
C1401 C1402 1.362 . S
C1402 H1394 0.930 . S
C1402 C1401 1.362 . S
C1402 C1405 1.409 . S
C1403 H1395 0.930 . S
C1403 C1404 1.355 . S
C1403 C1405 1.415 . S
C1404 C1403 1.355 . S
C1404 C1406 1.419 . S
C1405 C1400 1.425 . S
C1405 C1402 1.409 . S
C1405 C1403 1.415 . S
C1406 H1396 0.930 . S
C1406 C1404 1.419 . S
C1406 C1407 1.362 . S
C1407 H1397 0.930 . S
C1407 C1400 1.409 . S
C1407 C1406 1.362 . S
H1408 C1414 0.930 . S
H1409 C1417 0.930 . S
H1410 C1418 0.930 . S
H1411 C1419 0.930 . S
H1412 C1422 0.930 . S
H1413 C1423 0.930 . S
C1414 H1408 0.930 . S
C1414 C1415 1.355 . S
C1414 C1416 1.415 . S
C1415 C1414 1.355 . S
C1415 C1417 1.419 . S
C1416 C1414 1.415 . S
C1416 C1421 1.425 . S
C1416 C1423 1.409 . S
C1417 H1409 0.930 . S
C1417 C1415 1.419 . S
C1417 C1418 1.362 . S
C1418 H1410 0.930 . S
C1418 C1417 1.362 . S
C1418 C1421 1.409 . S
C1419 H1411 0.930 . S
C1419 C1420 1.355 . S
C1419 C1421 1.415 . S
C1420 C1419 1.355 . S
C1420 C1422 1.419 . S
C1421 C1416 1.425 . S
C1421 C1418 1.409 . S
C1421 C1419 1.415 . S
C1422 H1412 0.930 . S
C1422 C1420 1.419 . S
C1422 C1423 1.362 . S
C1423 H1413 0.930 . S
C1423 C1416 1.409 . S
C1423 C1422 1.362 . S
H1424 C1430 0.930 . S
H1425 C1433 0.930 . S
H1426 C1434 0.930 . S
H1427 C1435 0.930 . S
H1428 C1438 0.930 . S
H1429 C1439 0.930 . S
C1430 H1424 0.930 . S
C1430 C1431 1.355 . S
C1430 C1432 1.415 . S
C1431 C1430 1.355 . S
C1431 C1433 1.419 . S
C1432 C1430 1.415 . S
C1432 C1437 1.425 . S
C1432 C1439 1.409 . S
C1433 H1425 0.930 . S
C1433 C1431 1.419 . S
C1433 C1434 1.362 . S
C1434 H1426 0.930 . S
C1434 C1433 1.362 . S
C1434 C1437 1.409 . S
C1435 H1427 0.930 . S
C1435 C1436 1.355 . S
C1435 C1437 1.415 . S
C1436 C1435 1.355 . S
C1436 C1438 1.419 . S
C1437 C1432 1.425 . S
C1437 C1434 1.409 . S
C1437 C1435 1.415 . S
C1438 H1428 0.930 . S
C1438 C1436 1.419 . S
C1438 C1439 1.362 . S
C1439 H1429 0.930 . S
C1439 C1432 1.409 . S
C1439 C1438 1.362 . S
C423 C134 1.403 . S
C428 C10 1.378 . S
C439 C17 1.363 . S
C444 C153 1.372 . S
C455 C36 1.387 . S
C460 C114 1.360 . S
C471 C127 1.363 . S
C476 C43 1.373 . S
C487 C192 1.367 . S
C492 C56 1.399 . S
C503 C75 1.383 . S
C508 C205 1.402 . S
C519 C166 1.379 . S
C524 C82 1.360 . S
C535 C173 1.396 . S
C540 C95 1.395 . S
C551 C348 1.362 . S
C556 C212 1.374 . S
C567 C355 1.399 . S
C572 C225 1.392 . S
C583 C322 1.381 . S
C588 C238 1.360 . S
C599 C251 1.401 . S
C604 C329 1.388 . S
C615 C394 1.403 . S
C620 C264 1.378 . S
C631 C407 1.360 . S
C636 C277 1.380 . S
C647 C290 1.362 . S
C652 C374 1.393 . S
C663 C303 1.360 . S
C668 C387 1.379 . S
C679 C257 1.368 . S
C684 C4 1.361 . S
C695 C23 1.331 1_655 S
C700 C244 1.353 . S
C711 C231 1.370 . S
C716 C30 1.350 . S
C727 C218 1.346 . S
C732 C49 1.331 1_655 S
C743 C62 1.365 . S
C748 C309 1.365 . S
C759 C69 1.358 1_455 S
C764 C296 1.369 . S
C775 C283 1.369 . S
C780 C88 1.345 . S
C791 C101 1.354 1_455 S
C796 C270 1.331 . S
C807 C361 1.330 . S
C812 C108 1.348 . S
C823 C342 1.331 . S
C828 C121 1.343 1_655 S
C839 C335 1.335 . S
C844 C140 1.336 . S
C855 C316 1.332 . S
C860 C147 1.340 1_655 S
C871 C160 1.331 . S
C876 C413 1.350 . S
C887 C400 1.358 . S
C892 C179 1.369 1_455 S
C903 C186 1.360 . S
C908 C381 1.335 . S
C919 C199 1.360 1_455 S
C924 C368 1.369 . S
C935 C159 1.412 . S
C940 C3 1.412 . S
C951 C18 1.391 . S
C956 C278 1.391 . S
C967 C83 1.378 . S
C972 C29 1.378 . S
C983 C408 1.374 . S
C988 C44 1.374 . S
C999 C57 1.383 . S
C1004 C107 1.383 . S
C1015 C226 1.397 . S
C1020 C68 1.397 . S
C1031 C356 1.384 . S
C1036 C96 1.384 . S
C1047 C380 1.381 . S
C1052 C120 1.381 . S
C1063 C135 1.412 . S
C1068 C185 1.412 . S
C1079 C304 1.405 . S
C1084 C146 1.405 . S
C1095 C330 1.362 . S
C1100 C174 1.362 . S
C1111 C198 1.388 . S
C1116 C252 1.388 . S
C1127 C213 1.388 . S
C1132 C367 1.388 . S
C1143 C291 1.395 . S
C1148 C239 1.395 . S
C1159 C315 1.411 . S
C1164 C265 1.411 . S
C1175 C341 1.402 . S
C1180 C395 1.402 . S
C1191 C5 1.328 . S
C1196 C42 1.325 . S
C1207 C31 1.292 . S
C1212 C16 1.312 . S
C1223 C55 1.320 . S
C1228 C94 1.329 . S
C1239 C70 1.328 . S
C1244 C81 1.324 . S
C1255 C109 1.288 . S
C1260 C148 1.296 . S
C1271 C122 1.303 . S
C1276 C133 1.288 . S
C1287 C161 1.289 . S
C1292 C200 1.292 . S
C1303 C187 1.327 . S
C1308 C172 1.326 . S
C1319 C250 1.322 . S
C1324 C211 1.329 . S
C1335 C237 1.320 . S
C1340 C224 1.299 . S
C1351 C302 1.329 . S
C1356 C263 1.321 . S
C1367 C289 1.317 . S
C1372 C276 1.329 . S
C1383 C354 1.307 . S
C1388 C317 1.289 . S
C1399 C343 1.326 . S
C1404 C328 1.308 . S
C1415 C369 1.292 . S
C1420 C406 1.289 . S
C1431 C393 1.322 . S
C1436 C382 1.329 . S
