# Generated by pormake.
# Topology uom, (4)-cn, num edge types: 1
# Building blocks:
#     Node 0, Type 0, BuildingBlock: ESEHIV_clean_sbu_0, # of connection points: 4
#     Node 1, Type 0, BuildingBlock: ESEHIV_clean_sbu_0, # of connection points: 4
#     Node 2, Type 0, BuildingBlock: ESEHIV_clean_sbu_0, # of connection points: 4
#     Node 3, Type 0, BuildingBlock: ESEHIV_clean_sbu_0, # of connection points: 4
#     Node 4, Type 0, BuildingBlock: ESEHIV_clean_sbu_0, # of connection points: 4
#     Node 5, Type 0, BuildingBlock: ESEHIV_clean_sbu_0, # of connection points: 4
#     Edge 6, Type (0, 0), BuildingBlock: XUDNAN_clean_linker_2, # of connection points: 2
#     Edge 7, Type (0, 0), BuildingBlock: XUDNAN_clean_linker_2, # of connection points: 2
#     Edge 8, Type (0, 0), BuildingBlock: XUDNAN_clean_linker_2, # of connection points: 2
#     Edge 9, Type (0, 0), BuildingBlock: XUDNAN_clean_linker_2, # of connection points: 2
#     Edge 10, Type (0, 0), BuildingBlock: XUDNAN_clean_linker_2, # of connection points: 2
#     Edge 11, Type (0, 0), BuildingBlock: XUDNAN_clean_linker_2, # of connection points: 2
#     Edge 12, Type (0, 0), BuildingBlock: XUDNAN_clean_linker_2, # of connection points: 2
#     Edge 13, Type (0, 0), BuildingBlock: XUDNAN_clean_linker_2, # of connection points: 2
#     Edge 14, Type (0, 0), BuildingBlock: XUDNAN_clean_linker_2, # of connection points: 2
#     Edge 15, Type (0, 0), BuildingBlock: XUDNAN_clean_linker_2, # of connection points: 2
#     Edge 16, Type (0, 0), BuildingBlock: XUDNAN_clean_linker_2, # of connection points: 2
#     Edge 17, Type (0, 0), BuildingBlock: XUDNAN_clean_linker_2, # of connection points: 2
# Relax obj value: 0.100
# Max RMSD: 0.201
# Mean RMSD: 0.159
data_MOF--net-uom--node1-ESEHIV_clean_sbu_0--edge1-XUDNAN_clean_linker_2
_symmetry_space_group_name_H-M    P1
_symmetry_Int_Tables_number       1
_symmetry_cell_setting            triclinic
loop_
_symmetry_equiv_pos_as_xyz
'x, y, z'
_cell_length_a     29.722053
_cell_length_b     28.695745
_cell_length_c     46.672169
_cell_angle_alpha  90.48334
_cell_angle_beta   89.410938
_cell_angle_gamma 126.30328
loop_
_atom_site_label
_atom_site_type_symbol
_atom_site_fract_x
_atom_site_fract_y
_atom_site_fract_z
_atom_type_partial_charge
Cu0 Cu 0.34224 0.98741 0.04677 0.0
N1 N 0.36427 0.03307 1.01392 0.0
N2 N 0.37817 0.05666 0.96743 0.0
C3 C 0.35917 0.014 0.98682 0.0
C4 C 0.39594 0.10445 0.98311 0.0
C5 C 0.38736 0.08975 1.01176 0.0
O6 O 0.38271 0.95261 0.04608 0.0
C7 C 0.22811 0.91673 0.06569 0.0
O8 O 0.24867 0.92661 0.09164 0.0
H9 H 0.3408 0.96933 0.98152 0.0
H10 H 0.39717 0.11827 1.02975 0.0
N11 N 0.36191 0.03254 0.08032 0.0
N12 N 0.35667 0.0758 0.1193 0.0
C13 C 0.33584 0.05322 0.09293 0.0
C14 C 0.40089 0.04306 0.09913 0.0
C15 C 0.39793 0.06965 0.12297 0.0
C16 C 0.43524 0.98839 0.04175 0.0
O17 O 0.45635 0.04321 0.03835 0.0
H18 H 0.3007 0.04926 0.0834 0.0
H19 H 0.42774 0.02951 0.09645 0.0
O20 O 0.26093 0.93343 0.0442 0.0
H21 H 0.41421 0.14714 0.97457 0.0
H22 H 0.42238 0.0804 0.14217 0.0
Cu23 Cu 0.30004 0.24186 0.37544 0.0
N24 N 0.28018 0.23436 0.33663 0.0
N25 N 0.27146 0.21284 0.28976 0.0
C26 C 0.29529 0.215 0.31477 0.0
C27 C 0.24127 0.23284 0.29609 0.0
C28 C 0.24707 0.24644 0.32485 0.0
O29 O 0.36051 0.3227 0.38235 0.0
C30 C 0.29755 0.14217 0.38957 0.0
O31 O 0.32268 0.11872 0.39664 0.0
H32 H 0.32141 0.2006 0.31745 0.0
H33 H 0.22815 0.26363 0.33642 0.0
N34 N 0.24045 0.22067 0.40059 0.0
N35 N 0.19271 0.20763 0.44118 0.0
C36 C 0.24261 0.22581 0.42945 0.0
C37 C 0.18737 0.19851 0.39384 0.0
C38 C 0.15793 0.19017 0.41866 0.0
C39 C 0.41153 0.34315 0.37828 0.0
O40 O 0.4241 0.30862 0.36929 0.0
H41 H 0.28025 0.24263 0.4415 0.0
H42 H 0.17094 0.18891 0.37235 0.0
O43 O 0.32701 0.19561 0.38305 0.0
H44 H 0.21677 0.23749 0.28099 0.0
H45 H 0.11453 0.17385 0.41982 0.0
Cu46 Cu 0.02436 0.21983 0.7136 0.0
N47 N 0.96212 0.18787 0.73806 0.0
N48 N 0.92281 0.1653 0.78178 0.0
C49 C 0.96914 0.20204 0.76607 0.0
C50 C 0.88451 0.12641 0.76285 0.0
C51 C 0.90878 0.1407 0.73577 0.0
O52 O 0.06664 0.30326 0.71879 0.0
C53 C 0.03259 0.1346 0.73027 0.0
O54 O 0.97989 0.1047 0.72294 0.0
H55 H 1.00918 0.23588 0.77512 0.0
H56 H 0.89029 0.11574 0.71634 0.0
N57 N 1.0109 0.19946 0.67453 0.0
N58 N 0.0328 0.19267 0.62915 0.0
C59 C 0.05026 0.20611 0.65663 0.0
C60 C 0.96631 0.18032 0.65793 0.0
C61 C 0.97965 0.17596 0.62995 0.0
C62 C 0.07983 0.3391 0.69869 0.0
O63 O 0.07041 0.32122 0.67197 0.0
H64 H 0.09148 0.22168 0.6638 0.0
H65 H 0.92751 0.17171 0.66544 0.0
O66 O 0.06345 0.18936 0.72742 0.0
H67 H 0.84291 0.08909 0.76833 0.0
H68 H 0.95293 0.16358 0.61153 0.0
Cu69 Cu 0.8523 0.98075 0.05191 0.0
N70 N 0.89407 0.04345 1.02648 0.0
N71 N 0.9195 0.09718 0.98669 0.0
C72 C 0.87987 0.04647 0.99947 0.0
C73 C 0.96028 0.12678 1.00636 0.0
C74 C 0.94469 0.09353 1.0307 0.0
O75 O 0.77318 0.94558 0.04519 0.0
C76 C 0.92594 0.95332 0.05737 0.0
O77 O 0.95238 0.00371 0.07033 0.0
H78 H 0.84099 0.01239 0.98954 0.0
H79 H 0.96904 0.10489 0.04996 0.0
N80 N 0.86529 0.00317 0.09076 0.0
N81 N 0.87 -0.00555 0.13809 0.0
C82 C 0.85015 0.96643 0.11281 0.0
C83 C 0.89512 0.05636 0.10261 0.0
C84 C 0.89842 0.05111 0.1318 0.0
C85 C 0.76174 0.98188 0.04766 0.0
O86 O 0.80255 0.03573 0.05402 0.0
H87 H 0.82702 0.92011 0.11014 0.0
H88 H 0.91417 0.09625 0.09087 0.0
O89 O 0.87824 0.93226 0.04635 0.0
H90 H 0.99922 0.16911 1.00321 0.0
H91 H 0.92014 0.08616 0.14717 0.0
Cu92 Cu 0.87235 0.81011 0.40844 0.0
N93 N 0.8995 0.8448 0.37235 0.0
N94 N 0.90355 0.87512 0.32766 0.0
C95 C 0.87108 0.84807 0.35106 0.0
C96 C 0.95417 0.88903 0.33447 0.0
C97 C 0.95139 0.86981 0.36187 0.0
O98 O 0.79859 0.73773 0.40342 0.0
C99 C 0.90208 0.91046 0.44147 0.0
O100 O 0.89103 0.93578 0.46089 0.0
H101 H 0.82751 0.83102 0.35272 0.0
H102 H 0.98498 0.87405 0.37345 0.0
N103 N 0.91935 0.79387 0.42422 0.0
N104 N 0.96842 0.78088 0.45491 0.0
C105 C 0.93925 0.80285 0.45118 0.0
C106 C 0.93692 0.76589 0.41054 0.0
C107 C 0.96709 0.75782 0.42933 0.0
C108 C 0.75591 0.73791 0.40234 0.0
O109 O 0.76282 0.78748 0.40429 0.0
H110 H 0.93092 0.82317 0.46793 0.0
H111 H 0.92748 0.75145 0.38849 0.0
O112 O 0.86474 0.85787 0.43497 0.0
H113 H 0.99029 0.9104 0.32042 0.0
H114 H 0.98642 0.73638 0.42457 0.0
Cu115 Cu 0.21462 0.84557 0.70801 0.0
N116 N 0.28106 0.88825 0.7291 0.0
N117 N 0.33363 0.93751 0.76731 0.0
C118 C 0.29097 0.92481 0.75062 0.0
C119 C 0.35145 0.90761 0.75604 0.0
C120 C 0.31898 0.87732 0.73239 0.0
O121 O 0.1797 0.76397 0.7147 0.0
C122 C 0.18923 0.92182 0.71685 0.0
O123 O 0.23699 0.9543 0.70302 0.0
H124 H 0.26414 0.93756 0.75577 0.0
H125 H 0.32008 0.84605 0.71993 0.0
N126 N 0.22275 0.85992 0.66842 0.0
N127 N 0.19357 0.85388 0.62365 0.0
C128 C 0.18122 0.828 0.64944 0.0
C129 C 0.26312 0.90744 0.65395 0.0
C130 C 0.24498 0.90397 0.6263 0.0
C131 C 0.19417 0.73803 0.69925 0.0
O132 O 0.231 0.7666 0.67863 0.0
H133 H 0.14134 0.78812 0.65492 0.0
H134 H 0.30158 0.94352 0.6633 0.0
O135 O 0.16936 0.86933 0.7219 0.0
H136 H 0.38365 0.90557 0.76506 0.0
H137 H 0.26721 0.93612 0.60964 0.0
H138 H 0.40948 0.13864 0.16787 0.0
H139 H 0.25525 0.05781 0.12014 0.0
H140 H 0.21797 0.08681 0.15796 0.0
H141 H 0.34541 0.09259 0.23675 0.0
H142 H 0.39969 0.15808 0.25471 0.0
H143 H 0.41586 0.1345 0.22293 0.0
H144 H 0.45679 0.23324 0.19889 0.0
H145 H 0.44092 0.25723 0.23064 0.0
H146 H 0.41446 0.25903 0.19641 0.0
H147 H 0.19618 0.12239 0.20213 0.0
H148 H 0.19154 0.16052 0.2488 0.0
H149 H 0.35839 0.2146 0.26856 0.0
C150 C 0.36781 0.12671 0.16517 0.0
C151 C 0.33563 0.09567 0.14066 0.0
C152 C 0.28144 0.08206 0.13826 0.0
C153 C 0.25963 0.09813 0.15983 0.0
C154 C 0.29227 0.12777 0.18381 0.0
C155 C 0.34521 0.1419 0.18658 0.0
C156 C 0.37119 0.17231 0.21486 0.0
C157 C 0.38376 0.13726 0.23341 0.0
C158 C 0.42396 0.23412 0.20989 0.0
C159 C 0.3244 0.17273 0.22774 0.0
C160 C 0.2794 0.14722 0.20939 0.0
C161 C 0.23131 0.14264 0.21657 0.0
C162 C 0.22917 0.16472 0.24312 0.0
C163 C 0.27464 0.19081 0.2624 0.0
C164 C 0.32278 0.19457 0.25447 0.0
H165 H 0.08941 0.14645 0.46702 0.0
H166 H 0.26613 0.27399 0.48379 0.0
H167 H 0.24409 0.28075 0.53395 0.0
H168 H 0.04068 0.2118 0.5095 0.0
H169 H 0.97924 0.14452 0.52245 0.0
H170 H 1.00885 0.14701 0.48814 0.0
H171 H 1.01695 0.06605 0.50408 0.0
H172 H 0.9871 0.06304 0.53844 0.0
H173 H 0.05389 0.07516 0.53648 0.0
H174 H 0.20287 0.27769 0.58183 0.0
H175 H 0.14611 0.26413 0.62399 0.0
H176 H 0.99533 0.13814 0.57693 0.0
C177 C 0.12366 0.17597 0.48111 0.0
C178 C 0.17978 0.20968 0.47107 0.0
C179 C 0.22296 0.24703 0.49069 0.0
C180 C 0.2108 0.25143 0.51933 0.0
C181 C 0.15518 0.21806 0.52832 0.0
C182 C 0.11229 0.18081 0.50985 0.0
C183 C 0.05599 0.15037 0.5249 0.0
C184 C 1.01902 0.16428 0.51038 0.0
C185 C 0.02676 0.08476 0.52605 0.0
C186 C 0.07387 0.17745 0.55457 0.0
C187 C 0.13133 0.21602 0.55607 0.0
C188 C 0.15787 0.24716 0.58098 0.0
C189 C 0.12503 0.23882 0.60498 0.0
C190 C 0.06588 0.19962 0.60418 0.0
C191 C 0.04024 0.16858 0.57843 0.0
H192 H 0.87133 0.0312 0.93835 0.0
H193 H 0.96755 0.2075 0.97023 0.0
H194 H 0.97248 0.24268 0.92148 0.0
H195 H 0.94643 0.06325 0.87302 0.0
H196 H 0.88653 0.01137 0.8517 0.0
H197 H 0.88677 -0.00088 0.88945 0.0
H198 H 0.79513 0.98978 0.89608 0.0
H199 H 0.79465 0.00209 0.85831 0.0
H200 H 0.79203 0.04743 0.88418 0.0
H201 H 0.97263 0.25999 0.86924 0.0
H202 H 0.96856 0.25824 0.81637 0.0
H203 H 0.87138 0.07129 0.81717 0.0
C204 C 0.89256 0.07706 0.93512 0.0
C205 C 0.91915 0.11662 0.95823 0.0
C206 C 0.94742 0.17643 0.95293 0.0
C207 C 0.95011 0.19682 0.9253 0.0
C208 C 0.92425 0.15695 0.90298 0.0
C209 C 0.89592 0.0983 0.90748 0.0
C210 C 0.87433 0.06521 0.87933 0.0
C211 C 0.90006 0.03284 0.87301 0.0
C212 C 0.81022 0.02367 0.87949 0.0
C213 C 0.89556 0.11452 0.85834 0.0
C214 C 0.92401 0.167 0.87257 0.0
C215 C 0.94997 0.21912 0.8579 0.0
C216 C 0.94757 0.21777 0.82789 0.0
C217 C 0.91929 0.16475 0.81269 0.0
C218 C 0.89222 0.11236 0.82824 0.0
H219 H 0.94795 0.03668 0.18012 0.0
H220 H 0.77852 0.89402 0.15837 0.0
H221 H 0.76766 0.84902 0.2054 0.0
H222 H 0.98137 0.95016 0.21558 0.0
H223 H 0.02402 0.00369 0.24258 0.0
H224 H 1.01751 0.02591 0.20784 0.0
H225 H 0.98381 0.08216 0.2317 0.0
H226 H 0.99025 0.06012 0.26652 0.0
H227 H 0.92468 0.04493 0.25579 0.0
H228 H 0.77499 0.82031 0.25519 0.0
H229 H 0.80208 0.8063 0.30247 0.0
H230 H 0.96821 0.96543 0.29114 0.0
C231 C 0.90842 -0.0037 0.18545 0.0
C232 C 0.86382 0.96896 0.16572 0.0
C233 C 0.81314 0.91551 0.17317 0.0
C234 C 0.80657 0.88982 0.19986 0.0
C235 C 0.85135 0.91777 0.2188 0.0
C236 C 0.90151 0.96957 0.21184 0.0
C237 C 0.94389 0.9893 0.23554 0.0
C238 C 0.99469 0.99242 0.22473 0.0
C239 C 0.96168 0.04758 0.24813 0.0
C240 C 0.90966 0.94067 0.25696 0.0
C241 C 0.85623 0.90015 0.247 0.0
C242 C 0.81675 0.85173 0.26317 0.0
C243 C 0.83239 0.84428 0.29008 0.0
C244 C 0.88724 0.88463 0.30052 0.0
C245 C 0.92617 0.93351 0.28363 0.0
H246 H 0.16445 0.91202 0.59266 0.0
H247 H 0.14051 0.74837 0.59991 0.0
H248 H 0.07766 0.71074 0.55795 0.0
H249 H 1.02018 0.84876 0.574 0.0
H250 H 0.03797 0.90593 0.54969 0.0
H251 H 0.08262 0.92092 0.5796 0.0
H252 H 0.16687 0.96181 0.54495 0.0
H253 H 0.12224 0.9474 0.51516 0.0
H254 H 0.16143 0.91783 0.51543 0.0
H255 H 0.02278 0.69338 0.51372 0.0
H256 H 0.97292 0.69405 0.47196 0.0
H257 H 1.02137 0.86394 0.49657 0.0
C258 C 0.1461 0.86846 0.58515 0.0
C259 C 0.15763 0.83304 0.59909 0.0
C260 C 0.13216 0.77589 0.58928 0.0
C261 C 0.09657 0.75434 0.56554 0.0
C262 C 0.08584 0.79014 0.55224 0.0
C263 C 0.10914 0.84571 0.56188 0.0
C264 C 0.08876 0.87413 0.54429 0.0
C265 C 0.05539 0.88825 0.56302 0.0
C266 C 0.13775 0.9285 0.52906 0.0
C267 C 0.05125 0.82622 0.52298 0.0
C268 C 0.05084 0.77851 0.5278 0.0
C269 C 0.02235 0.73026 0.5099 0.0
C270 C 0.99431 0.73111 0.48618 0.0
C271 C 0.99395 0.77939 0.48071 0.0
C272 C 0.0215 0.8268 0.49995 0.0
H273 H 0.37859 0.97626 0.93582 0.0
H274 H 0.37544 0.12502 0.92858 0.0
H275 H 0.37103 0.11471 0.87601 0.0
H276 H 0.46234 0.00454 0.87165 0.0
H277 H 0.42376 0.92915 0.86214 0.0
H278 H 0.43001 0.9501 0.89922 0.0
H279 H 0.3223 0.88403 0.90458 0.0
H280 H 0.31573 0.86271 0.86759 0.0
H281 H 0.28093 0.89316 0.88057 0.0
H282 H 0.35957 0.08399 0.82453 0.0
H283 H 0.34348 0.03562 0.77767 0.0
H284 H 0.35577 0.90797 0.81773 0.0
C285 C 0.37705 0.00676 0.92324 0.0
C286 C 0.37752 0.05163 0.93653 0.0
C287 C 0.37596 0.09084 0.91907 0.0
C288 C 0.37322 0.08519 0.88912 0.0
C289 C 0.37246 0.04033 0.87679 0.0
C290 C 0.37456 0.00191 0.89327 0.0
C291 C 0.37139 0.95639 0.87468 0.0
C292 C 0.42508 0.96031 0.87707 0.0
C293 C 0.3195 0.89548 0.88231 0.0
C294 C 0.36626 0.97469 0.84521 0.0
C295 C 0.36705 0.0233 0.84695 0.0
C296 C 0.35965 0.0464 0.82286 0.0
C297 C 0.35049 0.01871 0.79638 0.0
C298 C 0.34919 0.9687 0.79406 0.0
C299 C 0.35801 0.94699 0.81878 0.0
H300 H 0.16703 0.93172 0.10337 0.0
H301 H 0.16192 0.86852 1.01792 0.0
H302 H 0.07328 0.85589 1.00883 0.0
H303 H 1.01328 0.84363 0.11722 0.0
H304 H 1.01994 0.90337 0.13507 0.0
H305 H 0.076 0.89596 0.13667 0.0
H306 H 0.14449 -0.00048 0.11662 0.0
H307 H 0.08893 0.0073 0.11471 0.0
H308 H 0.12926 0.01797 0.08306 0.0
H309 H 0.98988 0.8606 1.00748 0.0
H310 H 0.92648 0.8899 1.01273 0.0
H311 H 0.99119 0.95516 0.09786 0.0
C312 C 0.14619 0.91306 0.08313 0.0
C313 C 0.17077 0.89988 0.06157 0.0
C314 C 0.14337 0.87804 1.03491 0.0
C315 C 0.09294 0.87064 1.02959 0.0
C316 C 0.07059 0.88566 0.05108 0.0
C317 C 0.09661 0.90655 0.07733 0.0
C318 C 0.06892 0.92704 0.09548 0.0
C319 C 0.04298 0.89029 0.12272 0.0
C320 C 0.11036 0.99177 0.10287 0.0
C321 C 0.02427 0.91607 0.0751 0.0
C322 C 0.02474 0.89087 0.04984 0.0
C323 C 0.98877 0.87965 1.02734 0.0
C324 C 0.95267 0.89608 1.0305 0.0
C325 C 0.95386 0.92447 0.05572 0.0
C326 C 0.98918 0.93313 0.07841 0.0
H327 H 0.99849 0.93649 0.46388 0.0
H328 H 0.92952 0.96185 0.38947 0.0
H329 H 0.02343 0.02082 0.36677 0.0
H330 H 0.12352 0.07815 0.46623 0.0
H331 H 0.16697 0.0571 0.47737 0.0
H332 H 0.09387 0.01286 0.4866 0.0
H333 H 0.08108 0.92411 0.46174 0.0
H334 H 0.15441 0.96824 0.45336 0.0
H335 H 0.10363 0.92985 0.42528 0.0
H336 H 0.12354 0.07069 0.35117 0.0
H337 H 0.22586 0.12427 0.3475 0.0
H338 H 0.23111 0.07629 0.43429 0.0
C339 C 1.00332 0.95376 0.44261 0.0
C340 C 0.95716 0.94334 0.42776 0.0
C341 C 0.96466 0.96837 0.4006 0.0
C342 C 1.01763 0.00177 0.38764 0.0
C343 C 0.06234 0.01008 0.40246 0.0
C344 C 0.05595 0.98755 0.42952 0.0
C345 C 0.11145 0.00629 0.4416 0.0
C346 C 0.12473 0.04065 0.46962 0.0
C347 C 0.11276 0.95404 0.44573 0.0
C348 C 0.15017 0.04416 0.41751 0.0
C349 C 0.12081 0.04414 0.39474 0.0
C350 C 0.14713 0.07254 0.36922 0.0
C351 C 0.20531 0.10375 0.36744 0.0
C352 C 0.23635 0.10733 0.39116 0.0
C353 C 0.20828 0.07575 0.41618 0.0
H354 H 0.13568 0.16109 0.71877 0.0
H355 H 0.97744 0.03506 0.76048 0.0
H356 H 1.00589 0.97081 0.76746 0.0
H357 H 0.13896 0.06433 0.67866 0.0
H358 H 0.21304 0.09924 0.68045 0.0
H359 H 0.18658 0.1413 0.6845 0.0
H360 H 0.23575 0.17983 0.73357 0.0
H361 H 0.26323 0.1385 0.72949 0.0
H362 H 0.22316 0.12941 0.76098 0.0
H363 H 0.04412 0.91381 0.76266 0.0
H364 H 0.09157 0.86989 0.74786 0.0
H365 H 0.22386 0.03224 0.70843 0.0
C366 C 0.10824 0.12109 0.73046 0.0
C367 C 0.05479 0.10306 0.73939 0.0
C368 C 1.01879 0.04954 0.75365 0.0
C369 C 0.03461 0.01288 0.75779 0.0
C370 C 0.08658 0.03049 0.74753 0.0
C371 C 0.12318 0.08361 0.73442 0.0
C372 C 0.17334 0.089 0.72212 0.0
C373 C 0.1782 0.09902 0.68951 0.0
C374 C 0.22705 0.13703 0.73747 0.0
C375 C 0.15798 0.02985 0.72928 0.0
C376 C 0.1083 -0.00296 0.74434 0.0
C377 C 0.08368 0.93943 0.75137 0.0
C378 C 0.11067 0.91473 0.74273 0.0
C379 C 0.16135 0.94762 0.72706 0.0
C380 C 0.18536 0.00602 0.72061 0.0
H381 H 0.73502 0.05564 0.03813 0.0
H382 H 0.65934 0.87336 0.04948 0.0
H383 H 0.5652 0.85229 0.04771 0.0
H384 H 0.64282 0.06243 0.08199 0.0
H385 H 0.64317 0.11353 0.05962 0.0
H386 H 0.70293 0.11226 0.06002 0.0
H387 H 0.69676 0.09783 1.00489 0.0
H388 H 0.63713 0.09945 1.00428 0.0
H389 H 0.63228 0.03861 0.98917 0.0
H390 H 0.47802 0.85443 0.04776 0.0
H391 H 0.41045 0.87888 0.04751 0.0
H392 H 0.54799 0.05961 1.03559 0.0
C393 C 0.6988 0.01105 0.04004 0.0
C394 C 0.70461 0.96615 0.04405 0.0
C395 C 0.6559 0.90846 0.04626 0.0
C396 C 0.60232 0.89621 0.04537 0.0
C397 C 0.59831 0.94207 0.04196 0.0
C398 C 0.64565 -0.00175 0.03904 0.0
C399 C 0.63149 0.04059 1.03618 0.0
C400 C 0.65658 0.08478 0.06093 0.0
C401 C 0.65053 0.07088 1.00689 0.0
C402 C 0.56866 -7e-05 0.03837 0.0
C403 C 0.54972 0.94317 0.04166 0.0
C404 C 0.4927 0.89877 0.04495 0.0
C405 C 0.45457 0.91301 0.04483 0.0
C406 C 0.47368 0.97114 0.04146 0.0
C407 C 0.53155 0.01464 1.03809 0.0
H408 H 0.72585 0.628 0.39224 0.0
H409 H 0.65686 0.7241 0.40599 0.0
H410 H 0.56173 0.63378 0.40185 0.0
H411 H 0.62523 0.5293 0.33967 0.0
H412 H 0.62217 0.46827 0.35228 0.0
H413 H 0.68507 0.54045 0.35673 0.0
H414 H 0.68219 0.52339 0.41136 0.0
H415 H 0.61922 0.45118 0.40708 0.0
H416 H 0.62043 0.5007 0.43166 0.0
H417 H 0.47389 0.53302 0.3969 0.0
H418 H 0.39944 0.42904 0.38964 0.0
H419 H 0.52505 0.39832 0.37796 0.0
C420 C 0.69075 0.63005 0.39442 0.0
C421 C 0.69894 0.68325 0.39952 0.0
C422 C 0.6518 0.684 0.40207 0.0
C423 C 0.5975 0.63286 0.3998 0.0
C424 C 0.59088 0.58121 0.39483 0.0
C425 C 0.63614 0.57938 0.39203 0.0
C426 C 0.61736 0.51819 0.38633 0.0
C427 C 0.63873 0.51382 0.35701 0.0
C428 C 0.6359 0.49714 0.41055 0.0
C429 C 0.55451 0.48601 0.38639 0.0
C430 C 0.54014 0.52316 0.39148 0.0
C431 C 0.48461 0.50351 0.39282 0.0
C432 C 0.4426 0.44432 0.38871 0.0
C433 C 0.45629 0.40544 0.38315 0.0
C434 C 0.51312 0.42686 0.38204 0.0
H435 H 0.19293 0.66278 0.66249 0.0
H436 H 0.14647 0.67639 0.7489 0.0
H437 H 0.11571 0.57686 0.75899 0.0
H438 H 0.07627 0.51375 0.65154 0.0
H439 H 0.11649 0.49716 0.63063 0.0
H440 H 0.13536 0.56947 0.63073 0.0
H441 H 0.23534 0.60908 0.64682 0.0
H442 H 0.21661 0.53681 0.64707 0.0
H443 H 0.24464 0.58106 0.67886 0.0
H444 H 0.09346 0.47674 0.75991 0.0
H445 H 0.07161 0.38056 0.75012 0.0
H446 H 0.12893 0.4318 0.66234 0.0
C447 C 0.17626 0.64485 0.68355 0.0
C448 C 0.17237 0.67738 0.705 0.0
C449 C 0.14969 0.65213 0.73215 0.0
C450 C 0.13243 0.5958 0.73811 0.0
C451 C 0.13756 0.56518 0.71656 0.0
C452 C 0.15816 0.58857 0.68969 0.0
C453 C 0.15762 0.54612 0.66993 0.0
C454 C 0.11913 0.53071 0.64419 0.0
C455 C 0.21709 0.56969 0.6601 0.0
C456 C 0.13377 0.49517 0.68989 0.0
C457 C 0.12304 0.50718 0.71679 0.0
C458 C 0.10148 0.46682 0.73889 0.0
C459 C 0.08952 0.41242 0.73316 0.0
C460 C 0.09853 0.39861 0.70546 0.0
C461 C 0.12148 0.44095 0.68372 0.0
loop_
_geom_bond_atom_site_label_1
_geom_bond_atom_site_label_2
_geom_bond_distance
_geom_bond_site_symmetry_2
_ccdc_geom_bond_type
Cu0 N1 1.999 1_554 S
Cu0 O6 1.974 . S
Cu0 N11 1.985 . S
Cu0 O20 1.959 . S
N1 Cu0 1.999 1_556 S
N1 C3 1.263 . S
N1 C5 1.389 . S
N2 C3 1.358 . S
N2 C4 1.400 . S
C3 N1 1.263 . S
C3 N2 1.358 . S
C3 H9 0.930 1_545 S
C4 N2 1.400 . S
C4 C5 1.351 . S
C4 H21 0.930 . S
C5 N1 1.389 . S
C5 C4 1.351 . S
C5 H10 0.930 . S
O6 Cu0 1.974 . S
O6 C16 1.282 . S
C7 O8 1.261 1_545 S
C7 O20 1.251 . S
O8 C7 1.261 1_565 S
H9 C3 0.930 1_565 S
H10 C5 0.930 . S
N11 Cu0 1.985 . S
N11 C13 1.335 . S
N11 C14 1.390 . S
N12 C13 1.345 . S
N12 C15 1.336 . S
C13 N11 1.335 . S
C13 N12 1.345 . S
C13 H18 0.930 . S
C14 N11 1.390 . S
C14 C15 1.346 . S
C14 H19 0.930 . S
C15 N12 1.336 . S
C15 C14 1.346 . S
C15 H22 0.929 . S
C16 O6 1.282 . S
C16 O17 1.216 1_545 S
O17 C16 1.216 1_565 S
H18 C13 0.930 . S
H19 C14 0.930 . S
O20 Cu0 1.959 . S
O20 C7 1.251 . S
H21 C4 0.930 . S
H22 C15 0.929 . S
Cu23 N24 1.999 . S
Cu23 O29 1.974 . S
Cu23 N34 1.985 . S
Cu23 O43 1.959 . S
N24 Cu23 1.999 . S
N24 C26 1.263 . S
N24 C28 1.389 . S
N25 C26 1.358 . S
N25 C27 1.400 . S
C26 N24 1.263 . S
C26 N25 1.358 . S
C26 H32 0.930 . S
C27 N25 1.400 . S
C27 C28 1.351 . S
C27 H44 0.930 . S
C28 N24 1.389 . S
C28 C27 1.351 . S
C28 H33 0.930 . S
O29 Cu23 1.974 . S
O29 C39 1.282 . S
C30 O31 1.261 . S
C30 O43 1.251 . S
O31 C30 1.261 . S
H32 C26 0.930 . S
H33 C28 0.930 . S
N34 Cu23 1.985 . S
N34 C36 1.335 . S
N34 C37 1.390 . S
N35 C36 1.345 . S
N35 C38 1.336 . S
C36 N34 1.335 . S
C36 N35 1.345 . S
C36 H41 0.930 . S
C37 N34 1.390 . S
C37 C38 1.346 . S
C37 H42 0.930 . S
C38 N35 1.336 . S
C38 C37 1.346 . S
C38 H45 0.929 . S
C39 O29 1.282 . S
C39 O40 1.216 . S
O40 C39 1.216 . S
H41 C36 0.930 . S
H42 C37 0.930 . S
O43 Cu23 1.959 . S
O43 C30 1.251 . S
H44 C27 0.930 . S
H45 C38 0.929 . S
Cu46 N47 1.999 . S
Cu46 O52 1.974 . S
Cu46 N57 1.985 . S
Cu46 O66 1.959 . S
N47 Cu46 1.999 . S
N47 C49 1.263 1_455 S
N47 C51 1.389 . S
N48 C49 1.358 . S
N48 C50 1.410 . S
C49 N47 1.263 1_655 S
C49 N48 1.358 . S
C49 H55 0.930 . S
C50 N48 1.410 . S
C50 C51 1.346 1_655 S
C50 H67 0.926 1_655 S
C51 N47 1.389 . S
C51 C50 1.346 1_455 S
C51 H56 0.930 . S
O52 Cu46 1.974 . S
O52 C62 1.282 1_455 S
C53 O54 1.261 . S
C53 O66 1.251 1_655 S
O54 C53 1.261 . S
H55 C49 0.930 . S
H56 C51 0.930 . S
N57 Cu46 1.985 . S
N57 C59 1.335 . S
N57 C60 1.390 . S
N58 C59 1.345 . S
N58 C61 1.336 . S
C59 N57 1.335 . S
C59 N58 1.345 . S
C59 H64 0.930 . S
C60 N57 1.390 . S
C60 C61 1.346 . S
C60 H65 0.930 . S
C61 N58 1.336 . S
C61 C60 1.346 . S
C61 H68 0.929 . S
C62 O52 1.282 1_655 S
C62 O63 1.216 . S
O63 C62 1.216 . S
H64 C59 0.930 . S
H65 C60 0.930 . S
O66 Cu46 1.959 . S
O66 C53 1.251 1_455 S
H67 C50 0.926 1_455 S
H68 C61 0.929 . S
Cu69 N70 1.999 1_554 S
Cu69 O75 1.974 . S
Cu69 N80 1.985 1_545 S
Cu69 O89 1.954 1_545 S
N70 Cu69 1.999 1_556 S
N70 C72 1.263 . S
N70 C74 1.390 . S
N71 C72 1.358 . S
N71 C73 1.400 . S
C72 N70 1.263 . S
C72 N71 1.358 . S
C72 H78 0.930 . S
C73 N71 1.400 . S
C73 C74 1.351 . S
C73 H90 0.930 . S
C74 N70 1.390 . S
C74 C73 1.351 . S
C74 H79 0.928 1_545 S
O75 Cu69 1.974 . S
O75 C85 1.282 . S
C76 O77 1.261 . S
C76 O89 1.248 1_545 S
O77 C76 1.261 . S
H78 C72 0.930 . S
H79 C74 0.928 1_565 S
N80 Cu69 1.985 1_565 S
N80 C82 1.335 . S
N80 C83 1.390 1_565 S
N81 C82 1.345 . S
N81 C84 1.336 . S
C82 N80 1.335 . S
C82 N81 1.345 . S
C82 H87 0.930 . S
C83 N80 1.390 1_545 S
C83 C84 1.346 1_545 S
C83 H88 0.930 . S
C84 N81 1.336 . S
C84 C83 1.346 1_565 S
C84 H91 0.929 . S
C85 O75 1.282 . S
C85 O86 1.216 . S
O86 C85 1.216 . S
H87 C82 0.930 . S
H88 C83 0.930 . S
O89 Cu69 1.954 1_565 S
O89 C76 1.248 1_565 S
H90 C73 0.930 . S
H91 C84 0.929 . S
Cu92 N93 1.999 . S
Cu92 O98 1.974 . S
Cu92 N103 1.985 . S
Cu92 O112 1.959 . S
N93 Cu92 1.999 . S
N93 C95 1.263 . S
N93 C97 1.389 . S
N94 C95 1.358 . S
N94 C96 1.400 . S
C95 N93 1.263 . S
C95 N94 1.358 . S
C95 H101 0.930 . S
C96 N94 1.400 . S
C96 C97 1.351 . S
C96 H113 0.930 . S
C97 N93 1.389 . S
C97 C96 1.351 . S
C97 H102 0.930 . S
O98 Cu92 1.974 . S
O98 C108 1.282 . S
C99 O100 1.261 . S
C99 O112 1.251 . S
O100 C99 1.261 . S
H101 C95 0.930 . S
H102 C97 0.930 . S
N103 Cu92 1.985 . S
N103 C105 1.335 . S
N103 C106 1.390 . S
N104 C105 1.345 . S
N104 C107 1.336 . S
C105 N103 1.335 . S
C105 N104 1.345 . S
C105 H110 0.930 . S
C106 N103 1.390 . S
C106 C107 1.346 . S
C106 H111 0.930 . S
C107 N104 1.336 . S
C107 C106 1.346 . S
C107 H114 0.929 . S
C108 O98 1.282 . S
C108 O109 1.216 . S
O109 C108 1.216 . S
H110 C105 0.930 . S
H111 C106 0.930 . S
O112 Cu92 1.959 . S
O112 C99 1.251 . S
H113 C96 0.930 . S
H114 C107 0.929 . S
Cu115 N116 1.999 . S
Cu115 O121 1.974 . S
Cu115 N126 1.985 . S
Cu115 O135 1.959 . S
N116 Cu115 1.999 . S
N116 C118 1.263 . S
N116 C120 1.389 . S
N117 C118 1.358 . S
N117 C119 1.400 . S
C118 N116 1.263 . S
C118 N117 1.358 . S
C118 H124 0.930 . S
C119 N117 1.400 . S
C119 C120 1.351 . S
C119 H136 0.930 . S
C120 N116 1.389 . S
C120 C119 1.351 . S
C120 H125 0.930 . S
O121 Cu115 1.974 . S
O121 C131 1.282 . S
C122 O123 1.261 . S
C122 O135 1.251 . S
O123 C122 1.261 . S
H124 C118 0.930 . S
H125 C120 0.930 . S
N126 Cu115 1.985 . S
N126 C128 1.335 . S
N126 C129 1.390 . S
N127 C128 1.345 . S
N127 C130 1.336 . S
C128 N126 1.335 . S
C128 N127 1.345 . S
C128 H133 0.930 . S
C129 N126 1.390 . S
C129 C130 1.346 . S
C129 H134 0.930 . S
C130 N127 1.336 . S
C130 C129 1.346 . S
C130 H137 0.929 . S
C131 O121 1.282 . S
C131 O132 1.216 . S
O132 C131 1.216 . S
H133 C128 0.930 . S
H134 C129 0.930 . S
O135 Cu115 1.959 . S
O135 C122 1.251 . S
H136 C119 0.930 . S
H137 C130 0.929 . S
H138 C150 0.930 . S
H139 C152 0.930 . S
H140 C153 0.930 . S
H141 C157 0.959 . S
H142 C157 0.959 . S
H143 C157 0.961 . S
H144 C158 0.960 . S
H145 C158 0.961 . S
H146 C158 0.959 . S
H147 C161 0.929 . S
H148 C162 0.931 . S
H149 C164 0.930 . S
C150 H138 0.930 . S
C150 C151 1.399 . S
C150 C155 1.399 . S
C151 C150 1.399 . S
C151 C152 1.376 . S
C152 H139 0.930 . S
C152 C151 1.376 . S
C152 C153 1.388 . S
C153 H140 0.930 . S
C153 C152 1.388 . S
C153 C154 1.390 . S
C154 C153 1.390 . S
C154 C155 1.394 . S
C154 C160 1.465 . S
C155 C150 1.399 . S
C155 C154 1.394 . S
C155 C156 1.516 . S
C156 C155 1.516 . S
C156 C157 1.502 . S
C156 C158 1.561 . S
C156 C159 1.526 . S
C157 H141 0.959 . S
C157 H142 0.959 . S
C157 H143 0.961 . S
C157 C156 1.502 . S
C158 H144 0.960 . S
C158 H145 0.961 . S
C158 H146 0.959 . S
C158 C156 1.561 . S
C159 C156 1.526 . S
C159 C160 1.396 . S
C159 C164 1.390 . S
C160 C154 1.465 . S
C160 C159 1.396 . S
C160 C161 1.399 . S
C161 H147 0.929 . S
C161 C160 1.399 . S
C161 C162 1.385 . S
C162 H148 0.931 . S
C162 C161 1.385 . S
C162 C163 1.389 . S
C163 C162 1.389 . S
C163 C164 1.387 . S
C164 H149 0.930 . S
C164 C159 1.390 . S
C164 C163 1.387 . S
H165 C177 0.930 . S
H166 C179 0.930 . S
H167 C180 0.930 . S
H168 C184 0.959 . S
H169 C184 0.959 . S
H170 C184 0.961 . S
H171 C185 0.960 . S
H172 C185 0.961 . S
H173 C185 0.959 . S
H174 C188 0.929 . S
H175 C189 0.931 . S
H176 C191 0.930 . S
C177 H165 0.930 . S
C177 C178 1.399 . S
C177 C182 1.399 . S
C178 C177 1.399 . S
C178 C179 1.376 . S
C179 H166 0.930 . S
C179 C178 1.376 . S
C179 C180 1.388 . S
C180 H167 0.930 . S
C180 C179 1.388 . S
C180 C181 1.390 . S
C181 C180 1.390 . S
C181 C182 1.394 . S
C181 C187 1.465 . S
C182 C177 1.399 . S
C182 C181 1.394 . S
C182 C183 1.516 . S
C183 C182 1.516 . S
C183 C184 1.502 . S
C183 C185 1.561 . S
C183 C186 1.526 . S
C184 H168 0.959 . S
C184 H169 0.959 . S
C184 H170 0.961 . S
C184 C183 1.502 . S
C185 H171 0.960 . S
C185 H172 0.961 . S
C185 H173 0.959 . S
C185 C183 1.561 . S
C186 C183 1.526 . S
C186 C187 1.396 . S
C186 C191 1.390 . S
C187 C181 1.465 . S
C187 C186 1.396 . S
C187 C188 1.399 . S
C188 H174 0.929 . S
C188 C187 1.399 . S
C188 C189 1.385 . S
C189 H175 0.931 . S
C189 C188 1.385 . S
C189 C190 1.389 . S
C190 C189 1.389 . S
C190 C191 1.387 . S
C191 H176 0.930 . S
C191 C186 1.390 . S
C191 C190 1.387 . S
H192 C204 0.930 . S
H193 C206 0.930 . S
H194 C207 0.930 . S
H195 C211 0.959 . S
H196 C211 0.959 . S
H197 C211 0.961 . S
H198 C212 0.960 1_565 S
H199 C212 0.961 . S
H200 C212 0.959 . S
H201 C215 0.929 . S
H202 C216 0.931 . S
H203 C218 0.930 . S
C204 H192 0.930 . S
C204 C205 1.399 . S
C204 C209 1.399 . S
C205 C204 1.399 . S
C205 C206 1.376 . S
C206 H193 0.930 . S
C206 C205 1.376 . S
C206 C207 1.388 . S
C207 H194 0.930 . S
C207 C206 1.388 . S
C207 C208 1.390 . S
C208 C207 1.390 . S
C208 C209 1.394 . S
C208 C214 1.465 . S
C209 C204 1.399 . S
C209 C208 1.394 . S
C209 C210 1.516 . S
C210 C209 1.516 . S
C210 C211 1.502 . S
C210 C212 1.561 . S
C210 C213 1.526 . S
C211 H195 0.959 . S
C211 H196 0.959 . S
C211 H197 0.961 . S
C211 C210 1.502 . S
C212 H198 0.960 1_545 S
C212 H199 0.961 . S
C212 H200 0.959 . S
C212 C210 1.561 . S
C213 C210 1.526 . S
C213 C214 1.396 . S
C213 C218 1.390 . S
C214 C208 1.465 . S
C214 C213 1.396 . S
C214 C215 1.399 . S
C215 H201 0.929 . S
C215 C214 1.399 . S
C215 C216 1.385 . S
C216 H202 0.931 . S
C216 C215 1.385 . S
C216 C217 1.389 . S
C217 C216 1.389 . S
C217 C218 1.387 . S
C218 H203 0.930 . S
C218 C213 1.390 . S
C218 C217 1.387 . S
H219 C231 0.930 . S
H220 C233 0.930 . S
H221 C234 0.930 . S
H222 C238 0.959 . S
H223 C238 0.959 . S
H224 C238 0.961 . S
H225 C239 0.960 1_545 S
H226 C239 0.961 1_545 S
H227 C239 0.959 . S
H228 C242 0.929 . S
H229 C243 0.931 . S
H230 C245 0.930 . S
C231 H219 0.930 . S
C231 C232 1.399 . S
C231 C236 1.399 . S
C232 C231 1.399 . S
C232 C233 1.376 . S
C233 H220 0.930 . S
C233 C232 1.376 . S
C233 C234 1.388 . S
C234 H221 0.930 . S
C234 C233 1.388 . S
C234 C235 1.390 . S
C235 C234 1.390 . S
C235 C236 1.394 . S
C235 C241 1.465 . S
C236 C231 1.399 . S
C236 C235 1.394 . S
C236 C237 1.516 . S
C237 C236 1.516 . S
C237 C238 1.502 . S
C237 C239 1.561 . S
C237 C240 1.526 . S
C238 H222 0.959 . S
C238 H223 0.959 . S
C238 H224 0.961 . S
C238 C237 1.502 . S
C239 H225 0.960 1_565 S
C239 H226 0.961 1_565 S
C239 H227 0.959 . S
C239 C237 1.561 . S
C240 C237 1.526 . S
C240 C241 1.396 . S
C240 C245 1.390 . S
C241 C235 1.465 . S
C241 C240 1.396 . S
C241 C242 1.399 . S
C242 H228 0.929 . S
C242 C241 1.399 . S
C242 C243 1.385 . S
C243 H229 0.931 . S
C243 C242 1.385 . S
C243 C244 1.389 . S
C244 C243 1.389 . S
C244 C245 1.387 . S
C245 H230 0.930 . S
C245 C240 1.390 . S
C245 C244 1.387 . S
H246 C258 0.930 . S
H247 C260 0.930 . S
H248 C261 0.930 . S
H249 C265 0.959 1_655 S
H250 C265 0.959 1_655 S
H251 C265 0.961 . S
H252 C266 0.960 . S
H253 C266 0.961 . S
H254 C266 0.959 . S
H255 C269 0.929 . S
H256 C270 0.931 . S
H257 C272 0.930 . S
C258 H246 0.930 . S
C258 C259 1.399 . S
C258 C263 1.399 . S
C259 C258 1.399 . S
C259 C260 1.376 . S
C260 H247 0.930 . S
C260 C259 1.376 . S
C260 C261 1.388 . S
C261 H248 0.930 . S
C261 C260 1.388 . S
C261 C262 1.390 . S
C262 C261 1.390 . S
C262 C263 1.394 . S
C262 C268 1.465 1_455 S
C263 C258 1.399 . S
C263 C262 1.394 . S
C263 C264 1.516 . S
C264 C263 1.516 . S
C264 C265 1.502 . S
C264 C266 1.561 . S
C264 C267 1.526 1_455 S
C265 H249 0.959 1_455 S
C265 H250 0.959 1_455 S
C265 H251 0.961 . S
C265 C264 1.502 . S
C266 H252 0.960 . S
C266 H253 0.961 . S
C266 H254 0.959 . S
C266 C264 1.561 . S
C267 C264 1.526 1_655 S
C267 C268 1.396 . S
C267 C272 1.390 . S
C268 C262 1.465 1_655 S
C268 C267 1.396 . S
C268 C269 1.399 . S
C269 H255 0.929 . S
C269 C268 1.399 . S
C269 C270 1.385 . S
C270 H256 0.931 . S
C270 C269 1.385 . S
C270 C271 1.389 . S
C271 C270 1.389 . S
C271 C272 1.387 . S
C272 H257 0.930 . S
C272 C267 1.390 . S
C272 C271 1.387 . S
H273 C285 0.930 . S
H274 C287 0.930 . S
H275 C288 0.930 1_545 S
H276 C292 0.959 . S
H277 C292 0.959 . S
H278 C292 0.961 . S
H279 C293 0.960 . S
H280 C293 0.961 . S
H281 C293 0.959 . S
H282 C296 0.929 . S
H283 C297 0.931 . S
H284 C299 0.930 . S
C285 H273 0.930 . S
C285 C286 1.399 . S
C285 C290 1.399 . S
C286 C285 1.399 . S
C286 C287 1.376 1_565 S
C287 H274 0.930 . S
C287 C286 1.376 1_545 S
C287 C288 1.388 1_545 S
C288 H275 0.930 1_565 S
C288 C287 1.388 1_565 S
C288 C289 1.390 . S
C289 C288 1.390 . S
C289 C290 1.394 . S
C289 C295 1.465 . S
C290 C285 1.399 . S
C290 C289 1.394 . S
C290 C291 1.516 . S
C291 C290 1.516 . S
C291 C292 1.502 . S
C291 C293 1.561 . S
C291 C294 1.526 . S
C292 H276 0.959 . S
C292 H277 0.959 . S
C292 H278 0.961 . S
C292 C291 1.502 . S
C293 H279 0.960 . S
C293 H280 0.961 . S
C293 H281 0.959 . S
C293 C291 1.561 . S
C294 C291 1.526 . S
C294 C295 1.396 . S
C294 C299 1.390 . S
C295 C289 1.465 . S
C295 C294 1.396 . S
C295 C296 1.399 . S
C296 H282 0.929 . S
C296 C295 1.399 . S
C296 C297 1.385 . S
C297 H283 0.931 . S
C297 C296 1.385 . S
C297 C298 1.389 . S
C298 C297 1.389 . S
C298 C299 1.387 . S
C299 H284 0.930 . S
C299 C294 1.390 . S
C299 C298 1.387 . S
H300 C312 0.930 1_565 S
H301 C314 0.930 . S
H302 C315 0.930 . S
H303 C319 0.959 . S
H304 C319 0.959 . S
H305 C319 0.961 . S
H306 C320 0.960 . S
H307 C320 0.961 . S
H308 C320 0.959 . S
H309 C323 0.929 . S
H310 C324 0.931 1_655 S
H311 C326 0.930 1_655 S
C312 H300 0.930 1_545 S
C312 C313 1.399 . S
C312 C317 1.399 . S
C313 C312 1.399 . S
C313 C314 1.376 1_554 S
C314 H301 0.930 . S
C314 C313 1.376 1_556 S
C314 C315 1.388 . S
C315 H302 0.930 . S
C315 C314 1.388 . S
C315 C316 1.390 1_556 S
C316 C315 1.390 1_554 S
C316 C317 1.394 . S
C316 C322 1.465 . S
C317 C312 1.399 . S
C317 C316 1.394 . S
C317 C318 1.516 . S
C318 C317 1.516 . S
C318 C319 1.502 1_545 S
C318 C320 1.561 . S
C318 C321 1.526 . S
C319 H303 0.959 . S
C319 H304 0.959 . S
C319 H305 0.961 . S
C319 C318 1.502 1_565 S
C320 H306 0.960 . S
C320 H307 0.961 . S
C320 H308 0.959 . S
C320 C318 1.561 . S
C321 C318 1.526 . S
C321 C322 1.396 . S
C321 C326 1.390 . S
C322 C316 1.465 . S
C322 C321 1.396 . S
C322 C323 1.399 1_554 S
C323 H309 0.929 . S
C323 C322 1.399 1_556 S
C323 C324 1.385 . S
C324 H310 0.931 1_455 S
C324 C323 1.385 . S
C324 C325 1.389 1_456 S
C325 C324 1.389 1_654 S
C325 C326 1.387 1_655 S
C326 H311 0.930 1_455 S
C326 C321 1.390 . S
C326 C325 1.387 1_455 S
H327 C339 0.930 . S
H328 C341 0.930 . S
H329 C342 0.930 . S
H330 C346 0.959 . S
H331 C346 0.959 . S
H332 C346 0.961 . S
H333 C347 0.960 1_565 S
H334 C347 0.961 . S
H335 C347 0.959 1_565 S
H336 C350 0.929 . S
H337 C351 0.931 . S
H338 C353 0.930 . S
C339 H327 0.930 . S
C339 C340 1.399 . S
C339 C344 1.399 1_655 S
C340 C339 1.399 . S
C340 C341 1.376 . S
C341 H328 0.930 . S
C341 C340 1.376 . S
C341 C342 1.388 1_655 S
C342 H329 0.930 . S
C342 C341 1.388 1_455 S
C342 C343 1.390 . S
C343 C342 1.390 . S
C343 C344 1.394 . S
C343 C349 1.465 1_565 S
C344 C339 1.399 1_455 S
C344 C343 1.394 . S
C344 C345 1.516 1_565 S
C345 C344 1.516 1_545 S
C345 C346 1.502 . S
C345 C347 1.561 . S
C345 C348 1.526 . S
C346 H330 0.959 . S
C346 H331 0.959 . S
C346 H332 0.961 . S
C346 C345 1.502 . S
C347 H333 0.960 1_545 S
C347 H334 0.961 . S
C347 H335 0.959 1_545 S
C347 C345 1.561 . S
C348 C345 1.526 . S
C348 C349 1.396 . S
C348 C353 1.390 . S
C349 C343 1.465 1_545 S
C349 C348 1.396 . S
C349 C350 1.399 . S
C350 H336 0.929 . S
C350 C349 1.399 . S
C350 C351 1.385 . S
C351 H337 0.931 . S
C351 C350 1.385 . S
C351 C352 1.389 . S
C352 C351 1.389 . S
C352 C353 1.387 . S
C353 H338 0.930 . S
C353 C348 1.390 . S
C353 C352 1.387 . S
H354 C366 0.930 1_655 S
H355 C368 0.930 . S
H356 C369 0.930 . S
H357 C373 0.959 1_655 S
H358 C373 0.959 . S
H359 C373 0.961 1_655 S
H360 C374 0.960 . S
H361 C374 0.961 1_565 S
H362 C374 0.959 . S
H363 C377 0.929 . S
H364 C378 0.931 . S
H365 C380 0.930 . S
C366 H354 0.930 1_455 S
C366 C367 1.399 . S
C366 C371 1.399 . S
C367 C366 1.399 . S
C367 C368 1.376 . S
C368 H355 0.930 . S
C368 C367 1.376 . S
C368 C369 1.388 . S
C369 H356 0.930 . S
C369 C368 1.388 . S
C369 C370 1.390 . S
C370 C369 1.390 . S
C370 C371 1.394 . S
C370 C376 1.465 . S
C371 C366 1.399 . S
C371 C370 1.394 . S
C371 C372 1.516 1_545 S
C372 C371 1.516 1_565 S
C372 C373 1.502 . S
C372 C374 1.561 1_565 S
C372 C375 1.521 . S
C373 H357 0.959 1_455 S
C373 H358 0.959 . S
C373 H359 0.961 1_455 S
C373 C372 1.502 . S
C374 H360 0.960 . S
C374 H361 0.961 1_545 S
C374 H362 0.959 . S
C374 C372 1.561 1_545 S
C375 C372 1.521 . S
C375 C376 1.390 1_565 S
C375 C380 1.399 . S
C376 C370 1.465 . S
C376 C375 1.390 1_545 S
C376 C377 1.399 . S
C377 H363 0.929 . S
C377 C376 1.399 . S
C377 C378 1.385 . S
C378 H364 0.931 . S
C378 C377 1.385 . S
C378 C379 1.389 1_545 S
C379 C378 1.389 1_565 S
C379 C380 1.387 . S
C380 H365 0.930 . S
C380 C375 1.399 . S
C380 C379 1.387 . S
H381 C393 0.956 . S
H382 C395 0.930 . S
H383 C396 0.930 . S
H384 C400 0.959 1_554 S
H385 C400 0.959 . S
H386 C400 0.961 . S
H387 C401 0.960 . S
H388 C401 0.961 . S
H389 C401 0.959 . S
H390 C404 0.929 . S
H391 C405 0.931 . S
H392 C407 0.952 . S
C393 H381 0.956 . S
C393 C394 1.378 1_556 S
C393 C398 1.395 1_556 S
C394 C393 1.378 1_554 S
C394 C395 1.376 1_545 S
C395 H382 0.930 . S
C395 C394 1.376 1_565 S
C395 C396 1.388 . S
C396 H383 0.930 . S
C396 C395 1.388 . S
C396 C397 1.390 1_565 S
C397 C396 1.390 1_545 S
C397 C398 1.394 . S
C397 C403 1.454 . S
C398 C393 1.395 1_554 S
C398 C397 1.394 . S
C398 C399 1.516 1_554 S
C399 C398 1.516 1_556 S
C399 C400 1.502 . S
C399 C401 1.561 . S
C399 C402 1.526 1_556 S
C400 H384 0.959 1_556 S
C400 H385 0.959 . S
C400 H386 0.961 . S
C400 C399 1.502 . S
C401 H387 0.960 . S
C401 H388 0.961 . S
C401 H389 0.959 . S
C401 C399 1.561 . S
C402 C399 1.526 1_554 S
C402 C403 1.412 . S
C402 C407 1.386 1_554 S
C403 C397 1.454 . S
C403 C402 1.412 . S
C403 C404 1.396 1_545 S
C404 H390 0.929 . S
C404 C403 1.396 1_565 S
C404 C405 1.385 . S
C405 H391 0.931 . S
C405 C404 1.385 . S
C405 C406 1.389 1_565 S
C406 C405 1.389 1_545 S
C406 C407 1.369 1_554 S
C407 H392 0.952 . S
C407 C402 1.386 1_556 S
C407 C406 1.369 1_556 S
H408 C420 0.930 . S
H409 C422 0.930 . S
H410 C423 0.930 . S
H411 C427 0.959 . S
H412 C427 0.959 . S
H413 C427 0.961 . S
H414 C428 0.960 . S
H415 C428 0.961 . S
H416 C428 0.959 . S
H417 C431 0.929 . S
H418 C432 0.931 . S
H419 C434 0.930 . S
C420 H408 0.930 . S
C420 C421 1.399 . S
C420 C425 1.399 . S
C421 C420 1.399 . S
C421 C422 1.376 . S
C422 H409 0.930 . S
C422 C421 1.376 . S
C422 C423 1.388 . S
C423 H410 0.930 . S
C423 C422 1.388 . S
C423 C424 1.390 . S
C424 C423 1.390 . S
C424 C425 1.394 . S
C424 C430 1.465 . S
C425 C420 1.399 . S
C425 C424 1.394 . S
C425 C426 1.516 . S
C426 C425 1.516 . S
C426 C427 1.502 . S
C426 C428 1.561 . S
C426 C429 1.526 . S
C427 H411 0.959 . S
C427 H412 0.959 . S
C427 H413 0.961 . S
C427 C426 1.502 . S
C428 H414 0.960 . S
C428 H415 0.961 . S
C428 H416 0.959 . S
C428 C426 1.561 . S
C429 C426 1.526 . S
C429 C430 1.396 . S
C429 C434 1.390 . S
C430 C424 1.465 . S
C430 C429 1.396 . S
C430 C431 1.399 . S
C431 H417 0.929 . S
C431 C430 1.399 . S
C431 C432 1.385 . S
C432 H418 0.931 . S
C432 C431 1.385 . S
C432 C433 1.389 . S
C433 C432 1.389 . S
C433 C434 1.387 . S
C434 H419 0.930 . S
C434 C429 1.390 . S
C434 C433 1.387 . S
H435 C447 0.930 . S
H436 C449 0.930 . S
H437 C450 0.930 . S
H438 C454 0.951 1_655 S
H439 C454 0.959 1_655 S
H440 C454 0.961 . S
H441 C455 0.960 . S
H442 C455 0.961 . S
H443 C455 0.959 . S
H444 C458 0.929 . S
H445 C459 0.931 . S
H446 C461 0.920 1_655 S
C447 H435 0.930 . S
C447 C448 1.399 . S
C447 C452 1.399 . S
C448 C447 1.399 . S
C448 C449 1.376 . S
C449 H436 0.930 . S
C449 C448 1.376 . S
C449 C450 1.388 . S
C450 H437 0.930 . S
C450 C449 1.388 . S
C450 C451 1.390 . S
C451 C450 1.390 . S
C451 C452 1.394 . S
C451 C457 1.465 . S
C452 C447 1.399 . S
C452 C451 1.394 . S
C452 C453 1.516 . S
C453 C452 1.516 . S
C453 C454 1.502 . S
C453 C455 1.561 . S
C453 C456 1.526 . S
C454 H438 0.951 1_455 S
C454 H439 0.959 1_455 S
C454 H440 0.961 . S
C454 C453 1.502 . S
C455 H441 0.960 . S
C455 H442 0.961 . S
C455 H443 0.959 . S
C455 C453 1.561 . S
C456 C453 1.526 . S
C456 C457 1.396 . S
C456 C461 1.390 . S
C457 C451 1.465 . S
C457 C456 1.396 . S
C457 C458 1.399 . S
C458 H444 0.929 . S
C458 C457 1.399 . S
C458 C459 1.385 . S
C459 H445 0.931 . S
C459 C458 1.385 . S
C459 C460 1.389 . S
C460 C459 1.389 . S
C460 C461 1.387 . S
C461 H446 0.920 1_455 S
C461 C456 1.390 . S
C461 C460 1.387 . S
C151 N12 1.718 . S
C163 N25 1.559 . S
C178 N35 1.639 . S
C190 N58 1.626 . S
C205 N71 1.740 . S
C217 N48 1.711 . S
C232 N81 1.679 . S
C244 N94 1.649 . S
C259 N127 1.623 . S
C271 N104 1.652 . S
C286 N2 1.664 1_565 S
C298 N117 1.634 . S
C313 C7 1.737 . S
C325 C76 1.739 . S
C340 C99 0.085 . S
C352 C30 0.097 . S
C367 C53 1.528 1_455 S
C379 C122 1.581 . S
C394 C85 1.780 . S
C406 C16 1.773 . S
C421 C108 1.251 . S
C433 C39 1.257 . S
C448 C131 2.079 . S
C460 C62 2.051 1_455 S
