# Generated by pormake.
# Topology zfe, (5)-cn, num edge types: 1
# Building blocks:
#     Node 0, Type 0, BuildingBlock: BEQFEK_clean_sbu_0, # of connection points: 5
#     Node 1, Type 0, BuildingBlock: BEQFEK_clean_sbu_0, # of connection points: 5
#     Node 2, Type 0, BuildingBlock: BEQFEK_clean_sbu_0, # of connection points: 5
#     Node 3, Type 0, BuildingBlock: BEQFEK_clean_sbu_0, # of connection points: 5
#     Node 4, Type 0, BuildingBlock: BEQFEK_clean_sbu_0, # of connection points: 5
#     Node 5, Type 0, BuildingBlock: BEQFEK_clean_sbu_0, # of connection points: 5
#     Node 6, Type 0, BuildingBlock: BEQFEK_clean_sbu_0, # of connection points: 5
#     Node 7, Type 0, BuildingBlock: BEQFEK_clean_sbu_0, # of connection points: 5
#     Node 8, Type 0, BuildingBlock: BEQFEK_clean_sbu_0, # of connection points: 5
#     Node 9, Type 0, BuildingBlock: BEQFEK_clean_sbu_0, # of connection points: 5
#     Node 10, Type 0, BuildingBlock: BEQFEK_clean_sbu_0, # of connection points: 5
#     Node 11, Type 0, BuildingBlock: BEQFEK_clean_sbu_0, # of connection points: 5
#     Node 12, Type 0, BuildingBlock: BEQFEK_clean_sbu_0, # of connection points: 5
#     Node 13, Type 0, BuildingBlock: BEQFEK_clean_sbu_0, # of connection points: 5
#     Node 14, Type 0, BuildingBlock: BEQFEK_clean_sbu_0, # of connection points: 5
#     Node 15, Type 0, BuildingBlock: BEQFEK_clean_sbu_0, # of connection points: 5
#     Edge 16, Type (0, 0), BuildingBlock: UVAHIK_clean_linker_0, # of connection points: 2
#     Edge 17, Type (0, 0), BuildingBlock: UVAHIK_clean_linker_0, # of connection points: 2
#     Edge 18, Type (0, 0), BuildingBlock: UVAHIK_clean_linker_0, # of connection points: 2
#     Edge 19, Type (0, 0), BuildingBlock: UVAHIK_clean_linker_0, # of connection points: 2
#     Edge 20, Type (0, 0), BuildingBlock: UVAHIK_clean_linker_0, # of connection points: 2
#     Edge 21, Type (0, 0), BuildingBlock: UVAHIK_clean_linker_0, # of connection points: 2
#     Edge 22, Type (0, 0), BuildingBlock: UVAHIK_clean_linker_0, # of connection points: 2
#     Edge 23, Type (0, 0), BuildingBlock: UVAHIK_clean_linker_0, # of connection points: 2
#     Edge 24, Type (0, 0), BuildingBlock: UVAHIK_clean_linker_0, # of connection points: 2
#     Edge 25, Type (0, 0), BuildingBlock: UVAHIK_clean_linker_0, # of connection points: 2
#     Edge 26, Type (0, 0), BuildingBlock: UVAHIK_clean_linker_0, # of connection points: 2
#     Edge 27, Type (0, 0), BuildingBlock: UVAHIK_clean_linker_0, # of connection points: 2
#     Edge 28, Type (0, 0), BuildingBlock: UVAHIK_clean_linker_0, # of connection points: 2
#     Edge 29, Type (0, 0), BuildingBlock: UVAHIK_clean_linker_0, # of connection points: 2
#     Edge 30, Type (0, 0), BuildingBlock: UVAHIK_clean_linker_0, # of connection points: 2
#     Edge 31, Type (0, 0), BuildingBlock: UVAHIK_clean_linker_0, # of connection points: 2
#     Edge 32, Type (0, 0), BuildingBlock: UVAHIK_clean_linker_0, # of connection points: 2
#     Edge 33, Type (0, 0), BuildingBlock: UVAHIK_clean_linker_0, # of connection points: 2
#     Edge 34, Type (0, 0), BuildingBlock: UVAHIK_clean_linker_0, # of connection points: 2
#     Edge 35, Type (0, 0), BuildingBlock: UVAHIK_clean_linker_0, # of connection points: 2
#     Edge 36, Type (0, 0), BuildingBlock: UVAHIK_clean_linker_0, # of connection points: 2
#     Edge 37, Type (0, 0), BuildingBlock: UVAHIK_clean_linker_0, # of connection points: 2
#     Edge 38, Type (0, 0), BuildingBlock: UVAHIK_clean_linker_0, # of connection points: 2
#     Edge 39, Type (0, 0), BuildingBlock: UVAHIK_clean_linker_0, # of connection points: 2
#     Edge 40, Type (0, 0), BuildingBlock: UVAHIK_clean_linker_0, # of connection points: 2
#     Edge 41, Type (0, 0), BuildingBlock: UVAHIK_clean_linker_0, # of connection points: 2
#     Edge 42, Type (0, 0), BuildingBlock: UVAHIK_clean_linker_0, # of connection points: 2
#     Edge 43, Type (0, 0), BuildingBlock: UVAHIK_clean_linker_0, # of connection points: 2
#     Edge 44, Type (0, 0), BuildingBlock: UVAHIK_clean_linker_0, # of connection points: 2
#     Edge 45, Type (0, 0), BuildingBlock: UVAHIK_clean_linker_0, # of connection points: 2
#     Edge 46, Type (0, 0), BuildingBlock: UVAHIK_clean_linker_0, # of connection points: 2
#     Edge 47, Type (0, 0), BuildingBlock: UVAHIK_clean_linker_0, # of connection points: 2
#     Edge 48, Type (0, 0), BuildingBlock: UVAHIK_clean_linker_0, # of connection points: 2
#     Edge 49, Type (0, 0), BuildingBlock: UVAHIK_clean_linker_0, # of connection points: 2
#     Edge 50, Type (0, 0), BuildingBlock: UVAHIK_clean_linker_0, # of connection points: 2
#     Edge 51, Type (0, 0), BuildingBlock: UVAHIK_clean_linker_0, # of connection points: 2
#     Edge 52, Type (0, 0), BuildingBlock: UVAHIK_clean_linker_0, # of connection points: 2
#     Edge 53, Type (0, 0), BuildingBlock: UVAHIK_clean_linker_0, # of connection points: 2
#     Edge 54, Type (0, 0), BuildingBlock: UVAHIK_clean_linker_0, # of connection points: 2
#     Edge 55, Type (0, 0), BuildingBlock: UVAHIK_clean_linker_0, # of connection points: 2
# Relax obj value: 0.096
# Max RMSD: 0.101
# Mean RMSD: 0.101
data_MOF--net-zfe--node1-BEQFEK_clean_sbu_0--edge1-UVAHIK_clean_linker_0
_symmetry_space_group_name_H-M    P1
_symmetry_Int_Tables_number       1
_symmetry_cell_setting            triclinic
loop_
_symmetry_equiv_pos_as_xyz
'x, y, z'
_cell_length_a     69.085384
_cell_length_b     69.081444
_cell_length_c     39.402167
_cell_angle_alpha  90.00635
_cell_angle_beta   90.004715
_cell_angle_gamma 90.014237
loop_
_atom_site_label
_atom_site_type_symbol
_atom_site_fract_x
_atom_site_fract_y
_atom_site_fract_z
_atom_type_partial_charge
Co0 Co 0.01127 0.19894 0.04098 0.0
Co1 Co 0.04604 0.22779 0.03582 0.0
C2 C 0.01935 0.22824 0.09541 0.0
O3 O 0.00918 0.2147 0.08269 0.0
O4 O 0.03432 0.23472 0.08037 0.0
C5 C 0.97149 0.1879 0.04794 0.0
O6 O 0.96938 0.20575 0.05886 0.0
C7 C 0.06667 0.26483 0.03207 0.0
C8 C 0.09295 0.2566 0.00351 0.0
C9 C 0.08362 0.27219 0.01836 0.0
N10 N 0.06598 0.24576 0.02543 0.0
N11 N 0.08179 0.24091 0.00859 0.0
C12 C 0.05068 0.27578 0.04897 0.0
H13 H 0.03656 0.26869 0.04378 0.0
H14 H 0.0503 0.29102 0.04009 0.0
H15 H 0.0531 0.27568 0.07681 0.0
C16 C 0.00328 0.21468 0.97267 0.0
N17 N 0.01303 0.21494 0.00223 0.0
N18 N 0.02749 0.22727 -3e-05 0.0
C19 C 0.02736 0.2353 0.96873 0.0
C20 C 0.01205 0.22752 0.95036 0.0
C21 C 0.98655 0.20154 0.96545 0.0
H22 H 0.97476 0.20465 0.98371 0.0
H23 H 0.98083 0.20353 0.93938 0.0
H24 H 0.99108 0.18627 0.96907 0.0
O25 O 0.03417 0.18158 0.04315 0.0
O26 O 0.0587 0.20222 0.03947 0.0
H27 H 0.05702 0.23987 0.95579 0.0
H28 H 0.04039 0.25269 0.92883 0.0
C29 C 0.04318 0.24796 0.95524 0.0
H30 H 0.04466 0.26091 0.97163 0.0
H31 H 0.08481 0.22691 0.00011 0.0
O32 O 0.98811 0.18215 0.03852 0.0
C33 C 0.05229 0.18501 0.04213 0.0
Co34 Co 0.79944 0.01206 0.03963 0.0
Co35 Co 0.76955 0.0461 0.03734 0.0
C36 C 0.77091 0.01928 0.09612 0.0
O37 O 0.78436 0.00945 0.08227 0.0
O38 O 0.76382 0.03421 0.08188 0.0
C39 C 0.81032 0.972 0.04053 0.0
O40 O 0.7918 0.96918 0.04631 0.0
C41 C 0.73287 0.06772 0.03859 0.0
C42 C 0.73952 0.09187 0.00366 0.0
C43 C 0.72496 0.08407 0.02358 0.0
N44 N 0.75125 0.06593 0.02786 0.0
N45 N 0.75517 0.08048 0.00721 0.0
C46 C 0.72282 0.05315 0.06044 0.0
H47 H 0.72576 0.05653 0.08748 0.0
H48 H 0.72849 0.03844 0.05505 0.0
H49 H 0.70694 0.05341 0.05616 0.0
C50 C 0.7825 0.00455 0.97172 0.0
N51 N 0.78279 0.0139 0.00172 0.0
N52 N 0.76948 0.02752 0.0016 0.0
C53 C 0.75989 0.02687 0.97183 0.0
C54 C 0.76794 0.01245 0.95174 0.0
C55 C 0.79753 0.99019 0.96095 0.0
H56 H 0.81172 0.99394 0.97231 0.0
H57 H 0.79326 0.9756 0.97003 0.0
H58 H 0.79907 0.98972 0.93294 0.0
O59 O 0.81634 0.03513 0.0415 0.0
O60 O 0.79508 0.05917 0.03963 0.0
H61 H 0.74915 0.05439 0.95574 0.0
H62 H 0.73511 0.03409 0.94074 0.0
C63 C 0.74342 0.03991 0.96257 0.0
H64 H 0.73351 0.04147 0.9845 0.0
H65 H 0.76847 0.08244 0.99508 0.0
O66 O 0.81652 0.98915 0.03635 0.0
C67 C 0.81248 0.05315 0.04115 0.0
Co68 Co 0.9861 0.79868 0.04457 0.0
Co69 Co 0.95141 0.77015 0.03445 0.0
C70 C 0.97562 0.76892 0.09719 0.0
O71 O 0.98631 0.78256 0.08615 0.0
O72 O 0.96133 0.76258 0.08 0.0
C73 C 0.0258 0.8097 0.05546 0.0
O74 O 0.0279 0.79173 0.06576 0.0
C75 C 0.92993 0.73369 0.02606 0.0
C76 C 0.90584 0.74316 0.99304 0.0
C77 C 0.9138 0.72708 0.00864 0.0
N78 N 0.93153 0.75283 0.02067 0.0
N79 N 0.91696 0.75843 0.00128 0.0
C80 C 0.94445 0.72193 0.0452 0.0
H81 H 0.95901 0.72863 0.04314 0.0
H82 H 0.94489 0.70684 0.03558 0.0
H83 H 0.9403 0.72163 0.07241 0.0
C84 C 0.99669 0.78329 0.9769 0.0
N85 N 0.98573 0.78304 0.00515 0.0
N86 N 0.97134 0.77079 0.00095 0.0
C87 C 0.97277 0.76277 0.96981 0.0
C88 C 0.98886 0.77047 0.95349 0.0
C89 C 0.01381 0.79628 0.97197 0.0
H90 H 0.02495 0.79271 0.99122 0.0
H91 H 0.02035 0.79458 0.94644 0.0
H92 H 0.00939 0.81156 0.97586 0.0
O93 O 0.96337 0.81627 0.04467 0.0
O94 O 0.93894 0.79583 0.03771 0.0
H95 H 0.9438 0.75826 0.95269 0.0
H96 H 0.96151 0.7452 0.92845 0.0
C97 C 0.95757 0.7501 0.9543 0.0
H98 H 0.95528 0.73724 0.97061 0.0
H99 H 0.91489 0.77263 0.99296 0.0
O100 O 0.00934 0.81539 0.04512 0.0
C101 C 0.94532 0.81296 0.04163 0.0
Co102 Co 0.19776 0.98571 0.04004 0.0
Co103 Co 0.22737 0.95157 0.03504 0.0
C104 C 0.22688 0.9775 0.09521 0.0
O105 O 0.21326 0.98761 0.08249 0.0
O106 O 0.23376 0.9629 0.07966 0.0
C107 C 0.18708 0.02581 0.04287 0.0
O108 O 0.20558 0.02845 0.04903 0.0
C109 C 0.26398 0.92997 0.03405 0.0
C110 C 0.25676 0.90587 -0.00064 0.0
C111 C 0.27164 0.91364 0.01859 0.0
N112 N 0.24544 0.93178 0.02424 0.0
N113 N 0.24118 0.91727 0.00371 0.0
C114 C 0.27438 0.94454 0.05544 0.0
H115 H 0.2685 0.95923 0.0506 0.0
H116 H 0.29016 0.9444 0.05016 0.0
H117 H 0.27202 0.94104 0.08261 0.0
C118 C 0.21379 0.9939 0.97157 0.0
N119 N 0.21389 0.98425 0.0013 0.0
N120 N 0.22707 0.97052 7e-05 0.0
C121 C 0.2362 0.9714 0.96989 0.0
C122 C 0.22795 0.98606 0.95062 0.0
C123 C 0.19872 0.00849 0.96198 0.0
H124 H 0.18461 0.00455 0.97347 0.0
H125 H 0.20309 0.02288 0.97183 0.0
H126 H 0.19696 0.00949 0.93406 0.0
O127 O 0.18071 0.96272 0.04184 0.0
O128 O 0.20182 0.93861 0.03814 0.0
H129 H 0.24643 0.94389 0.95271 0.0
H130 H 0.26033 0.96419 0.93725 0.0
C131 C 0.25239 0.9583 0.95944 0.0
H132 H 0.26269 0.95655 0.98074 0.0
H133 H 0.22769 0.91532 0.99226 0.0
O134 O 0.1808 0.00875 0.03793 0.0
C135 C 0.18449 0.94469 0.04076 0.0
Co136 Co 0.01105 0.79855 0.50337 0.0
Co137 Co 0.04555 0.76927 0.50394 0.0
C138 C 0.01756 0.77001 0.44657 0.0
O139 O 0.00788 0.78343 0.46084 0.0
O140 O 0.0328 0.76311 0.46013 0.0
C141 C 0.97088 0.80876 0.50345 0.0
O142 O 0.96842 0.79037 0.49612 0.0
C143 C 0.06731 0.73266 0.50334 0.0
C144 C 0.09279 0.7405 0.53439 0.0
C145 C 0.08424 0.72527 0.51712 0.0
N146 N 0.06589 0.75138 0.5123 0.0
N147 N 0.08125 0.75601 0.53056 0.0
C148 C 0.05188 0.72187 0.48458 0.0
H149 H 0.03747 0.7282 0.49023 0.0
H150 H 0.05196 0.70629 0.49148 0.0
H151 H 0.05454 0.72322 0.45691 0.0
C152 C 0.00521 0.78195 0.57201 0.0
N153 N 0.0138 0.782 0.5413 0.0
N154 N 0.02781 0.76909 0.54102 0.0
C155 C 0.0283 0.76013 0.5714 0.0
C156 C 0.01414 0.76807 0.59217 0.0
C157 C 0.99071 0.79676 0.58312 0.0
H158 H 0.99456 0.81112 0.57252 0.0
H159 H 0.97625 0.79265 0.57322 0.0
H160 H 0.98989 0.79785 0.61116 0.0
O161 O 0.03383 0.81593 0.50036 0.0
O162 O 0.05816 0.79499 0.50082 0.0
H163 H 0.05697 0.75148 0.58497 0.0
H164 H 0.03816 0.73725 0.60467 0.0
C165 C 0.04256 0.74478 0.58103 0.0
H166 H 0.04367 0.73398 0.56036 0.0
H167 H 0.08364 0.7697 0.54103 0.0
O168 O 0.98791 0.81518 0.50811 0.0
C169 C 0.0519 0.81231 0.49974 0.0
Co170 Co 0.19686 0.01191 0.50058 0.0
Co171 Co 0.22625 0.0464 0.50334 0.0
C172 C 0.22631 0.01929 0.44517 0.0
O173 O 0.21269 0.00947 0.45861 0.0
O174 O 0.23312 0.03437 0.45944 0.0
C175 C 0.18674 0.97157 0.49951 0.0
O176 O 0.20525 0.96909 0.49316 0.0
C177 C 0.2624 0.06906 0.50669 0.0
C178 C 0.25354 0.0925 0.54164 0.0
C179 C 0.26922 0.08513 0.52403 0.0
N180 N 0.24354 0.06689 0.51414 0.0
N181 N 0.23827 0.08113 0.53455 0.0
C182 C 0.27393 0.05491 0.48628 0.0
H183 H 0.26801 0.04009 0.48959 0.0
H184 H 0.28942 0.05519 0.49373 0.0
H185 H 0.27279 0.0588 0.45903 0.0
C186 C 0.2126 0.00549 0.56972 0.0
N187 N 0.21284 0.01437 0.53927 0.0
N188 N 0.22606 0.02808 0.5395 0.0
C189 C 0.23512 0.02791 0.5698 0.0
C190 C 0.22672 0.01382 0.59016 0.0
C191 C 0.19747 0.99118 0.58025 0.0
H192 H 0.18342 0.99482 0.56825 0.0
H193 H 0.20186 0.97654 0.57157 0.0
H194 H 0.19561 0.99088 0.6082 0.0
O195 O 0.17945 0.03457 0.49749 0.0
O196 O 0.20049 0.0588 0.49933 0.0
H197 H 0.2457 0.05562 0.58533 0.0
H198 H 0.25939 0.03549 0.60184 0.0
C199 C 0.25147 0.04104 0.57935 0.0
H200 H 0.26176 0.04222 0.55793 0.0
H201 H 0.22439 0.08264 0.54469 0.0
O202 O 0.18028 0.98861 0.50389 0.0
C203 C 0.18317 0.05262 0.49738 0.0
Co204 Co 0.98466 0.19845 0.49897 0.0
Co205 Co 0.95007 0.22741 0.50461 0.0
C206 C 0.97589 0.22789 0.44437 0.0
O207 O 0.98605 0.21423 0.45683 0.0
O208 O 0.9612 0.23458 0.46 0.0
C209 C 0.0249 0.18825 0.49464 0.0
O210 O 0.02732 0.20666 0.48738 0.0
C211 C 0.92769 0.26357 0.50984 0.0
C212 C 0.90447 0.25452 0.54507 0.0
C213 C 0.91181 0.27032 0.52774 0.0
N214 N 0.92979 0.24463 0.5167 0.0
N215 N 0.91569 0.23926 0.53731 0.0
C216 C 0.94177 0.27518 0.48941 0.0
H217 H 0.95656 0.2691 0.49213 0.0
H218 H 0.9417 0.29059 0.49735 0.0
H219 H 0.93763 0.27435 0.46223 0.0
C220 C 0.99288 0.2142 0.56755 0.0
N221 N 0.98315 0.2144 0.5379 0.0
N222 N 0.96913 0.22724 0.53961 0.0
C223 C 0.96982 0.23598 0.57019 0.0
C224 C 0.98472 0.22788 0.58906 0.0
C225 C 0.00785 0.19939 0.57653 0.0
H226 H 0.00368 0.18509 0.56604 0.0
H227 H 0.02188 0.20368 0.56507 0.0
H228 H 0.00976 0.1981 0.60439 0.0
O229 O 0.96205 0.18084 0.49756 0.0
O230 O 0.93766 0.20158 0.5012 0.0
H231 H 0.94187 0.24478 0.58757 0.0
H232 H 0.96156 0.25878 0.60492 0.0
C233 C 0.95612 0.25138 0.58181 0.0
H234 H 0.95426 0.2623 0.56151 0.0
H235 H 0.91415 0.22529 0.54706 0.0
O236 O 0.00798 0.18195 0.5007 0.0
C237 C 0.94398 0.18433 0.49873 0.0
Co238 Co 0.79874 0.98478 0.5031 0.0
Co239 Co 0.76904 0.9506 0.50638 0.0
C240 C 0.77047 0.97667 0.4465 0.0
O241 O 0.78391 0.98674 0.45992 0.0
O242 O 0.76337 0.96202 0.46159 0.0
C243 C 0.80931 0.02492 0.50078 0.0
O244 O 0.79087 0.02744 0.49388 0.0
C245 C 0.73227 0.92925 0.50583 0.0
C246 C 0.73904 0.90476 0.53993 0.0
C247 C 0.72435 0.91285 0.52068 0.0
N248 N 0.75077 0.93079 0.51603 0.0
N249 N 0.75477 0.91603 0.53616 0.0
C250 C 0.72213 0.94411 0.48471 0.0
H251 H 0.72823 0.95868 0.48986 0.0
H252 H 0.70634 0.94417 0.48992 0.0
H253 H 0.72447 0.94075 0.45747 0.0
C254 C 0.78195 0.99246 0.57114 0.0
N255 N 0.782 0.98319 0.54104 0.0
N256 N 0.76877 0.96949 0.54147 0.0
C257 C 0.75945 0.97002 0.57148 0.0
C258 C 0.76765 0.98438 0.59152 0.0
C259 C 0.79711 0.00675 0.58165 0.0
H260 H 0.81129 0.00272 0.57052 0.0
H261 H 0.79307 0.02129 0.57199 0.0
H262 H 0.79857 0.00752 0.60965 0.0
O263 O 0.81585 0.9618 0.50227 0.0
O264 O 0.79466 0.93769 0.50483 0.0
H265 H 0.74932 0.94223 0.5874 0.0
H266 H 0.73531 0.96223 0.60367 0.0
C267 C 0.74331 0.95669 0.58126 0.0
H268 H 0.73305 0.9552 0.55984 0.0
H269 H 0.76817 0.91386 0.54782 0.0
O270 O 0.8156 0.0079 0.50607 0.0
C271 C 0.81204 0.94377 0.50327 0.0
Co272 Co 0.5113 0.69789 0.54311 0.0
Co273 Co 0.54598 0.72676 0.53613 0.0
C274 C 0.51988 0.72793 0.59631 0.0
O275 O 0.50968 0.7142 0.58429 0.0
O276 O 0.53472 0.73433 0.58073 0.0
C277 C 0.47146 0.6868 0.55096 0.0
O278 O 0.46915 0.70484 0.56067 0.0
C279 C 0.56744 0.76336 0.52927 0.0
C280 C 0.5922 0.75401 0.49771 0.0
C281 C 0.58382 0.77006 0.51273 0.0
N282 N 0.56608 0.7442 0.5239 0.0
N283 N 0.58107 0.73867 0.50545 0.0
C284 C 0.55248 0.77508 0.54743 0.0
H285 H 0.53798 0.76839 0.54424 0.0
H286 H 0.55227 0.79021 0.53794 0.0
H287 H 0.55597 0.7753 0.57491 0.0
C288 C 0.50263 0.71294 0.47454 0.0
N289 N 0.51269 0.71345 0.50378 0.0
N290 N 0.52701 0.72589 0.50086 0.0
C291 C 0.52642 0.73382 0.46956 0.0
C292 C 0.511 0.7258 0.45181 0.0
C293 C 0.48595 0.69961 0.46806 0.0
H294 H 0.47415 0.70302 0.48614 0.0
H295 H 0.48022 0.7011 0.4419 0.0
H296 H 0.49054 0.68443 0.47256 0.0
O297 O 0.53414 0.68051 0.54509 0.0
O298 O 0.55855 0.70118 0.54039 0.0
H299 H 0.5557 0.73866 0.45447 0.0
H300 H 0.5384 0.75175 0.42938 0.0
C301 C 0.54185 0.74671 0.45537 0.0
H302 H 0.54368 0.75948 0.47207 0.0
H303 H 0.58338 0.72448 0.49729 0.0
O304 O 0.48815 0.68103 0.54194 0.0
C305 C 0.55222 0.68398 0.54359 0.0
Co306 Co 0.29884 0.51096 0.54257 0.0
Co307 Co 0.2696 0.54538 0.53553 0.0
C308 C 0.26904 0.52019 0.59648 0.0
O309 O 0.28275 0.5099 0.58448 0.0
O310 O 0.26236 0.53469 0.58031 0.0
C311 C 0.30919 0.47064 0.54679 0.0
O312 O 0.29065 0.46806 0.55266 0.0
C313 C 0.23357 0.56809 0.53022 0.0
C314 C 0.24234 0.5903 0.49282 0.0
C315 C 0.22675 0.5837 0.51159 0.0
N316 N 0.25234 0.56547 0.52245 0.0
N317 N 0.25754 0.57896 0.50048 0.0
C318 C 0.22214 0.55478 0.55247 0.0
H319 H 0.22764 0.53976 0.54999 0.0
H320 H 0.20652 0.55522 0.54595 0.0
H321 H 0.22395 0.55934 0.57929 0.0
C322 C 0.28365 0.50235 0.47369 0.0
N323 N 0.28322 0.51222 0.5032 0.0
N324 N 0.27007 0.52595 0.50123 0.0
C325 C 0.26124 0.52481 0.47079 0.0
C326 C 0.26972 0.51004 0.4521 0.0
C327 C 0.29879 0.48767 0.46495 0.0
H328 H 0.31277 0.49165 0.4769 0.0
H329 H 0.29427 0.47335 0.47492 0.0
H330 H 0.30087 0.48649 0.43712 0.0
O331 O 0.31623 0.53368 0.54407 0.0
O332 O 0.29536 0.55791 0.53923 0.0
H333 H 0.25093 0.55191 0.45189 0.0
H334 H 0.23712 0.53129 0.43773 0.0
C335 C 0.24502 0.53765 0.45957 0.0
H336 H 0.23469 0.53977 0.48072 0.0
H337 H 0.27135 0.58003 0.48988 0.0
O338 O 0.31552 0.48766 0.54168 0.0
C339 C 0.31262 0.55172 0.54241 0.0
Co340 Co 0.48551 0.29831 0.53847 0.0
Co341 Co 0.45117 0.2689 0.53762 0.0
C342 C 0.47908 0.26965 0.59511 0.0
O343 O 0.48871 0.28312 0.58091 0.0
O344 O 0.46388 0.26268 0.58148 0.0
C345 C 0.52561 0.3086 0.53869 0.0
O346 O 0.52805 0.29022 0.54609 0.0
C347 C 0.42954 0.23222 0.53774 0.0
C348 C 0.4042 0.24001 0.50631 0.0
C349 C 0.41273 0.22478 0.52358 0.0
N350 N 0.43091 0.25097 0.52897 0.0
N351 N 0.41563 0.25558 0.51049 0.0
C352 C 0.44492 0.22145 0.55662 0.0
H353 H 0.45934 0.22784 0.55121 0.0
H354 H 0.44492 0.20589 0.54962 0.0
H355 H 0.44214 0.22273 0.58427 0.0
C356 C 0.49157 0.28183 0.46978 0.0
N357 N 0.48287 0.28185 0.5004 0.0
N358 N 0.46894 0.26886 0.50057 0.0
C359 C 0.46861 0.25987 0.4702 0.0
C360 C 0.48281 0.26788 0.44956 0.0
C361 C 0.50606 0.29669 0.45883 0.0
H362 H 0.5022 0.31102 0.46954 0.0
H363 H 0.52053 0.29257 0.46869 0.0
H364 H 0.50688 0.29786 0.43079 0.0
O365 O 0.46268 0.31561 0.54166 0.0
O366 O 0.43844 0.29456 0.54099 0.0
H367 H 0.44009 0.25086 0.45637 0.0
H368 H 0.45912 0.23678 0.437 0.0
C369 C 0.45456 0.24434 0.46053 0.0
H370 H 0.45348 0.23358 0.48127 0.0
H371 H 0.41325 0.26927 0.50008 0.0
O372 O 0.50859 0.315 0.5339 0.0
C373 C 0.44463 0.3119 0.54227 0.0
Co374 Co 0.69745 0.48494 0.53767 0.0
Co375 Co 0.72709 0.45075 0.53772 0.0
C376 C 0.72517 0.4781 0.59565 0.0
O377 O 0.71193 0.48782 0.58096 0.0
O378 O 0.73241 0.46304 0.58207 0.0
C379 C 0.68712 0.52506 0.5377 0.0
O380 O 0.70553 0.52757 0.5448 0.0
C381 C 0.7638 0.42928 0.53953 0.0
C382 C 0.75679 0.40421 0.50686 0.0
C383 C 0.77161 0.41265 0.52534 0.0
N384 N 0.74524 0.43065 0.52961 0.0
N385 N 0.74109 0.41553 0.5104 0.0
C386 C 0.77411 0.44455 0.55948 0.0
H387 H 0.76773 0.45897 0.55415 0.0
H388 H 0.78979 0.44473 0.55337 0.0
H389 H 0.77234 0.44148 0.58695 0.0
C390 C 0.71499 0.4913 0.46986 0.0
N391 N 0.71455 0.48257 0.50043 0.0
N392 N 0.72776 0.46887 0.50131 0.0
C393 C 0.73743 0.46883 0.4716 0.0
C394 C 0.72953 0.48285 0.45049 0.0
C395 C 0.70004 0.50547 0.45805 0.0
H396 H 0.68574 0.50178 0.46905 0.0
H397 H 0.70413 0.52016 0.46687 0.0
H398 H 0.69883 0.50564 0.42998 0.0
O399 O 0.68025 0.46205 0.53943 0.0
O400 O 0.70144 0.43794 0.53928 0.0
H401 H 0.74779 0.44074 0.45791 0.0
H402 H 0.7619 0.46041 0.44066 0.0
C403 C 0.7537 0.45535 0.46319 0.0
H404 H 0.76377 0.4544 0.48498 0.0
H405 H 0.72763 0.41318 0.49905 0.0
O406 O 0.68074 0.50802 0.53301 0.0
C407 C 0.68405 0.44402 0.53977 0.0
Co408 Co 0.51166 0.29872 0.99742 0.0
Co409 Co 0.54673 0.27057 0.00665 0.0
C410 C 0.52205 0.26912 0.94446 0.0
O411 O 0.51134 0.28266 0.95577 0.0
O412 O 0.5365 0.26288 0.96133 0.0
C413 C 0.47192 0.30965 0.98638 0.0
O414 O 0.47002 0.29192 0.9748 0.0
C415 C 0.56855 0.23431 0.01498 0.0
C416 C 0.59291 0.24416 0.04703 0.0
C417 C 0.58488 0.22792 0.03205 0.0
N418 N 0.5669 0.25348 0.01998 0.0
N419 N 0.58164 0.25931 0.03876 0.0
C420 C 0.55389 0.22231 0.99661 0.0
H421 H 0.53935 0.22903 -0.00126 0.0
H422 H 0.55353 0.20734 0.00681 0.0
H423 H 0.55785 0.22166 0.96934 0.0
C424 C 0.50166 0.28313 0.06517 0.0
N425 N 0.51248 0.28305 0.03675 0.0
N426 N 0.52707 0.27103 0.0407 0.0
C427 C 0.52596 0.26301 0.07189 0.0
C428 C 0.50984 0.27047 0.08848 0.0
C429 C 0.48433 0.29578 0.0703 0.0
H430 H 0.4734 0.29237 0.0506 0.0
H431 H 0.47764 0.29359 0.09559 0.0
H432 H 0.48858 0.31118 0.06726 0.0
O433 O 0.5342 0.31657 0.99691 0.0
O434 O 0.5589 0.29638 0.00302 0.0
H435 H 0.55518 0.25888 0.08795 0.0
H436 H 0.53789 0.24593 0.11328 0.0
C437 C 0.54145 0.2506 0.08713 0.0
H438 H 0.54362 0.23761 0.0711 0.0
H439 H 0.58371 0.27358 0.04673 0.0
O440 O 0.48827 0.31522 0.99749 0.0
C441 C 0.55232 0.31345 -0.00061 0.0
Co442 Co 0.69784 0.51301 0.00355 0.0
Co443 Co 0.72815 0.54662 0.00748 0.0
C444 C 0.72586 0.52127 0.94669 0.0
O445 O 0.71237 0.51128 0.96009 0.0
O446 O 0.73332 0.53565 0.96208 0.0
C447 C 0.68666 0.47312 0.00028 0.0
O448 O 0.70508 0.47042 0.99343 0.0
C449 C 0.76511 0.56768 0.00636 0.0
C450 C 0.75914 0.59149 0.04234 0.0
C451 C 0.77339 0.58375 0.0217 0.0
N452 N 0.74681 0.566 0.01757 0.0
N453 N 0.7433 0.58034 0.03888 0.0
C454 C 0.77473 0.55324 0.98364 0.0
H455 H 0.77164 0.55705 0.95682 0.0
H456 H 0.76883 0.53856 0.98853 0.0
H457 H 0.79064 0.55317 0.98755 0.0
C458 C 0.71522 0.50391 0.07063 0.0
N459 N 0.71487 0.51381 0.04117 0.0
N460 N 0.72832 0.5273 0.04188 0.0
C461 C 0.73805 0.52601 0.07142 0.0
C462 C 0.72996 0.51132 0.09084 0.0
C463 C 0.70007 0.48954 0.08086 0.0
H464 H 0.68583 0.49376 0.07021 0.0
H465 H 0.70401 0.47511 0.07059 0.0
H466 H 0.69881 0.48844 0.10885 0.0
O467 O 0.68118 0.53629 0.00373 0.0
O468 O 0.70276 0.56002 0.00675 0.0
H469 H 0.74902 0.5532 0.08878 0.0
H470 H 0.76295 0.53257 0.10269 0.0
C471 C 0.75463 0.53879 0.08121 0.0
H472 H 0.7645 0.54064 0.0593 0.0
H473 H 0.73014 0.58235 0.05143 0.0
O474 O 0.68058 0.49018 0.00592 0.0
C475 C 0.68528 0.55425 0.00521 0.0
Co476 Co 0.48596 0.69856 -0.00025 0.0
Co477 Co 0.4512 0.72735 0.00514 0.0
C478 C 0.47722 0.72805 0.94517 0.0
O479 O 0.48741 0.71442 0.95765 0.0
O480 O 0.46246 0.73465 0.96073 0.0
C481 C 0.52638 0.68894 0.9969 0.0
O482 O 0.52862 0.70745 0.99034 0.0
C483 C 0.42835 0.76326 0.00982 0.0
C484 C 0.40502 0.75398 0.04466 0.0
C485 C 0.4122 0.76982 0.02724 0.0
N486 N 0.43072 0.74438 0.017 0.0
N487 N 0.41657 0.73888 0.03741 0.0
C488 C 0.44234 0.77498 0.98941 0.0
H489 H 0.45721 0.76916 0.99248 0.0
H490 H 0.44198 0.79043 0.99709 0.0
H491 H 0.43836 0.77393 0.96218 0.0
C492 C 0.49365 0.71411 0.06867 0.0
N493 N 0.48416 0.71442 0.03878 0.0
N494 N 0.47009 0.72722 0.04036 0.0
C495 C 0.47052 0.73581 0.07107 0.0
C496 C 0.48529 0.72766 0.09017 0.0
C497 C 0.50853 0.69925 0.07788 0.0
H498 H 0.50452 0.68502 0.06688 0.0
H499 H 0.5227 0.70365 0.06713 0.0
H500 H 0.51006 0.69773 0.10577 0.0
O501 O 0.46347 0.68078 0.99798 0.0
O502 O 0.43902 0.70146 0.00146 0.0
H503 H 0.44242 0.74426 0.08827 0.0
H504 H 0.4619 0.75845 0.10586 0.0
C505 C 0.45661 0.75104 0.08265 0.0
H506 H 0.45466 0.76196 0.06239 0.0
H507 H 0.41518 0.72492 0.04728 0.0
O508 O 0.50946 0.6823 0.00184 0.0
C509 C 0.44538 0.68423 -0.00101 0.0
Co510 Co 0.29952 0.48518 0.00099 0.0
Co511 Co 0.27002 0.45079 0.00348 0.0
C512 C 0.26974 0.47843 0.94595 0.0
O513 O 0.28346 0.48811 0.95938 0.0
O514 O 0.26298 0.46327 0.96 0.0
C515 C 0.31005 0.5254 0.00051 0.0
O516 O 0.29153 0.52811 0.99458 0.0
C517 C 0.23371 0.42841 0.00588 0.0
C518 C 0.24208 0.40476 0.04078 0.0
C519 C 0.22663 0.41231 0.02278 0.0
N520 N 0.25252 0.43042 0.01391 0.0
N521 N 0.25748 0.41607 0.03432 0.0
C522 C 0.22251 0.44269 0.9852 0.0
H523 H 0.22794 0.45755 0.99005 0.0
H524 H 0.20681 0.44191 0.99099 0.0
H525 H 0.2247 0.43942 0.95789 0.0
C526 C 0.28429 0.49115 0.0706 0.0
N527 N 0.28381 0.48249 0.03996 0.0
N528 N 0.27057 0.46879 0.04018 0.0
C529 C 0.26175 0.46875 0.0707 0.0
C530 C 0.27032 0.48269 0.09119 0.0
C531 C 0.29951 0.50538 0.08108 0.0
H532 H 0.31348 0.50176 0.06879 0.0
H533 H 0.2951 0.52006 0.07268 0.0
H534 H 0.30153 0.50554 0.109 0.0
O535 O 0.31672 0.46243 0.99694 0.0
O536 O 0.29567 0.43819 -0.00141 0.0
H537 H 0.25126 0.44102 0.08623 0.0
H538 H 0.23759 0.4611 0.1029 0.0
C539 C 0.24544 0.45559 0.08032 0.0
H540 H 0.2351 0.45439 0.05897 0.0
H541 H 0.27126 0.4144 0.04481 0.0
O542 O 0.31635 0.50828 0.0045 0.0
C543 C 0.31298 0.44439 0.99641 0.0
C544 C 0.10064 0.29977 0.99091 0.0
C545 C 0.09119 0.29213 0.01944 0.0
C546 C 0.11014 0.31756 0.99285 0.0
C547 C 0.13751 0.34472 0.05353 0.0
H548 H 0.13934 0.38419 0.98365 0.0
C549 C 0.19812 0.40078 0.05532 0.0
C550 C 0.20672 0.40483 0.02391 0.0
C551 C 0.18018 0.39156 0.05682 0.0
C552 C 0.13909 0.37325 0.00331 0.0
H553 H 0.08388 0.29715 0.07219 0.0
H554 H 0.10079 0.32823 0.07576 0.0
H555 H 0.11405 0.35944 0.98198 0.0
H556 H 0.20335 0.40313 0.96945 0.0
H557 H 0.17245 0.38605 0.97177 0.0
H558 H 0.16318 0.35729 0.07362 0.0
C559 C 0.10054 0.32057 0.05177 0.0
C560 C 0.12452 0.35919 0.00245 0.0
C561 C 0.09078 0.30288 0.04966 0.0
C562 C 0.19684 0.40022 0.99394 0.0
C563 C 0.17907 0.39055 0.99538 0.0
C564 C 0.15222 0.35852 0.0541 0.0
C565 C 0.11066 0.32784 0.02358 0.0
C566 C 0.12387 0.34457 0.02718 0.0
C567 C 0.17074 0.38564 0.02689 0.0
C568 C 0.1535 0.37273 0.02858 0.0
H569 H 0.10116 0.29171 0.96734 0.0
H570 H 0.11803 0.32271 0.97087 0.0
H571 H 0.13753 0.33342 0.07261 0.0
H572 H 0.20547 0.40445 0.07876 0.0
H573 H 0.17401 0.38857 0.08152 0.0
C574 C 0.69684 0.09399 0.05964 0.0
C575 C 0.70541 0.09231 0.02747 0.0
C576 C 0.6795 0.10416 0.06358 0.0
C577 C 0.63778 0.12533 0.01822 0.0
H578 H 0.64374 0.16773 0.08177 0.0
C579 C 0.59558 0.19678 0.00596 0.0
C580 C 0.59261 0.20814 0.03495 0.0
C581 C 0.60555 0.17922 0.00838 0.0
C582 C 0.64143 0.15574 0.06453 0.0
H583 H 0.70231 0.09908 0.97408 0.0
H584 H 0.67191 0.11669 0.98088 0.0
H585 H 0.66774 0.14219 0.08031 0.0
H586 H 0.59634 0.20973 0.08939 0.0
H587 H 0.61285 0.17867 0.09407 0.0
H588 H 0.61156 0.13901 0.0021 0.0
C589 C 0.67849 0.11009 0.00299 0.0
C590 C 0.6553 0.1411 0.06367 0.0
C591 C 0.69594 0.10018 -0.00086 0.0
C592 C 0.59869 0.20123 0.06664 0.0
C593 C 0.60825 0.18351 0.06922 0.0
C594 C 0.6237 0.13986 0.01941 0.0
C595 C 0.67038 0.11263 0.03536 0.0
C596 C 0.6539 0.12606 0.03989 0.0
C597 C 0.61246 0.1726 0.03997 0.0
C598 C 0.62565 0.15557 0.04191 0.0
H599 H 0.70403 0.08834 0.08196 0.0
H600 H 0.67353 0.10596 0.08881 0.0
H601 H 0.63632 0.11377 -0.00019 0.0
H602 H 0.59119 0.20197 0.98118 0.0
H603 H 0.60871 0.17143 0.9852 0.0
C604 C 0.80275 0.59964 0.04536 0.0
C605 C 0.79297 0.59188 0.01728 0.0
C606 C 0.82023 0.60947 0.04104 0.0
C607 C 0.84314 0.64026 0.97945 0.0
H608 H 0.88715 0.63833 0.04044 0.0
C609 C 0.90002 0.7001 0.97468 0.0
C610 C 0.90609 0.70726 0.00621 0.0
C611 C 0.89043 0.68237 0.97253 0.0
C612 C 0.87494 0.63912 0.02327 0.0
H613 H 0.79379 0.58803 0.96271 0.0
H614 H 0.82434 0.60541 0.95507 0.0
H615 H 0.86229 0.61319 0.04347 0.0
H616 H 0.90747 0.70152 0.06013 0.0
H617 H 0.88995 0.67095 0.05682 0.0
H618 H 0.85476 0.66672 0.96072 0.0
C619 C 0.81861 0.60362 0.98046 0.0
C620 C 0.8608 0.62466 0.0249 0.0
C621 C 0.80123 0.59357 0.98487 0.0
C622 C 0.9031 0.69613 0.03547 0.0
C623 C 0.89313 0.67856 0.03347 0.0
C624 C 0.85708 0.65483 0.97813 0.0
C625 C 0.82805 0.612 0.00844 0.0
C626 C 0.84457 0.62535 0.00347 0.0
C627 C 0.8862 0.6717 0.00204 0.0
C628 C 0.87295 0.65471 0.00054 0.0
H629 H 0.79663 0.59854 0.0706 0.0
H630 H 0.82706 0.616 0.06298 0.0
H631 H 0.83062 0.64133 0.96298 0.0
H632 H 0.90236 0.70841 0.95173 0.0
H633 H 0.8858 0.67734 0.9478 0.0
C634 C 0.30013 0.89714 0.99307 0.0
C635 C 0.29122 0.90534 0.02165 0.0
C636 C 0.31761 0.88719 0.99628 0.0
C637 C 0.34192 0.85698 0.05709 0.0
H638 H 0.38426 0.85772 0.99249 0.0
C639 C 0.39892 0.79726 0.06056 0.0
C640 C 0.40422 0.78953 0.02902 0.0
C641 C 0.38928 0.81496 0.06242 0.0
C642 C 0.37252 0.85727 0.01066 0.0
H643 H 0.2936 0.90983 0.07593 0.0
H644 H 0.32416 0.89226 0.08162 0.0
H645 H 0.35951 0.88299 0.99038 0.0
H646 H 0.4042 0.79421 0.97474 0.0
H647 H 0.38656 0.82476 0.97762 0.0
H648 H 0.35389 0.83074 0.07606 0.0
C649 C 0.31774 0.89379 0.05668 0.0
C650 C 0.35844 0.8718 0.00955 0.0
C651 C 0.30035 0.90395 0.05338 0.0
C652 C 0.40039 0.80005 -0.00063 0.0
C653 C 0.39037 0.8176 0.00113 0.0
C654 C 0.3558 0.84235 0.05793 0.0
C655 C 0.3263 0.88498 0.02826 0.0
C656 C 0.34281 0.87154 0.03235 0.0
C657 C 0.38425 0.82504 0.03266 0.0
C658 C 0.37106 0.84205 0.03428 0.0
H659 H 0.29333 0.89801 0.96834 0.0
H660 H 0.32376 0.88033 0.97403 0.0
H661 H 0.32986 0.85624 0.07462 0.0
H662 H 0.40194 0.78943 0.08379 0.0
H663 H 0.38529 0.82046 0.08718 0.0
C664 C 0.09251 0.69549 0.48393 0.0
C665 C 0.09219 0.70551 0.51492 0.0
C666 C 0.1024 0.6779 0.48121 0.0
C667 C 0.12523 0.63825 0.52988 0.0
H668 H 0.1649 0.64068 0.46049 0.0
C669 C 0.19702 0.59646 0.53982 0.0
C670 C 0.20705 0.59173 0.51005 0.0
C671 C 0.17946 0.60647 0.53805 0.0
C672 C 0.15366 0.63935 0.47949 0.0
H673 H 0.10106 0.70476 0.56762 0.0
H674 H 0.11818 0.67397 0.56298 0.0
H675 H 0.13949 0.66484 0.4614 0.0
H676 H 0.20627 0.59245 0.45517 0.0
H677 H 0.17522 0.60908 0.45184 0.0
H678 H 0.13957 0.6129 0.54833 0.0
C679 C 0.11075 0.67959 0.54087 0.0
C680 C 0.13908 0.6533 0.48 0.0
C681 C 0.10111 0.69727 0.54346 0.0
C682 C 0.19882 0.59616 0.47848 0.0
C683 C 0.1811 0.60579 0.47664 0.0
C684 C 0.13969 0.62409 0.5291 0.0
C685 C 0.11194 0.67 0.50952 0.0
C686 C 0.12507 0.65322 0.50576 0.0
C687 C 0.1715 0.61168 0.5064 0.0
C688 C 0.15444 0.62481 0.50449 0.0
H689 H 0.086 0.7017 0.46142 0.0
H690 H 0.10314 0.67078 0.45674 0.0
H691 H 0.11446 0.63781 0.54985 0.0
H692 H 0.20324 0.59334 0.56446 0.0
H693 H 0.1727 0.61097 0.56154 0.0
C694 C 0.39625 0.19675 0.49658 0.0
C695 C 0.40489 0.20497 0.52541 0.0
C696 C 0.38664 0.17904 0.4988 0.0
C697 C 0.35768 0.1529 0.55873 0.0
H698 H 0.35748 0.11253 0.49034 0.0
C699 C 0.29705 0.09687 0.5581 0.0
C700 C 0.28911 0.0926 0.52624 0.0
C701 C 0.31497 0.10606 0.56057 0.0
C702 C 0.35729 0.12372 0.50958 0.0
H703 H 0.41068 0.20105 0.57901 0.0
H704 H 0.39358 0.17008 0.58305 0.0
H705 H 0.38286 0.13719 0.48966 0.0
H706 H 0.29364 0.09389 0.472 0.0
H707 H 0.32454 0.11088 0.47598 0.0
H708 H 0.33152 0.14059 0.57734 0.0
C709 C 0.39452 0.17725 0.55865 0.0
C710 C 0.3719 0.13773 0.5093 0.0
C711 C 0.40438 0.19487 0.5563 0.0
C712 C 0.29963 0.09696 0.49683 0.0
C713 C 0.31739 0.10658 0.49923 0.0
C714 C 0.34295 0.13912 0.55874 0.0
C715 C 0.38522 0.16939 0.53005 0.0
C716 C 0.37196 0.15269 0.53344 0.0
C717 C 0.32505 0.11171 0.53115 0.0
C718 C 0.34227 0.12459 0.53368 0.0
H719 H 0.39647 0.2043 0.47247 0.0
H720 H 0.37939 0.17345 0.47647 0.0
H721 H 0.3572 0.16445 0.57732 0.0
H722 H 0.28922 0.09339 0.58113 0.0
H723 H 0.32062 0.10925 0.58558 0.0
C724 C 0.80105 0.40434 0.55939 0.0
C725 C 0.79145 0.40499 0.52801 0.0
C726 C 0.81876 0.39472 0.56238 0.0
C727 C 0.85929 0.373 0.51429 0.0
H728 H 0.85596 0.33209 0.58129 0.0
C729 C 0.90019 0.30097 0.50112 0.0
C730 C 0.90435 0.2902 0.53034 0.0
C731 C 0.89059 0.31872 0.50377 0.0
C732 C 0.85756 0.34368 0.56301 0.0
H733 H 0.79309 0.39702 0.47492 0.0
H734 H 0.82407 0.38033 0.48005 0.0
H735 H 0.83189 0.35755 0.58096 0.0
H736 H 0.90321 0.28986 0.58521 0.0
H737 H 0.88734 0.32123 0.59013 0.0
H738 H 0.88481 0.35892 0.4959 0.0
C739 C 0.81803 0.38731 0.50227 0.0
C740 C 0.84366 0.35829 0.56283 0.0
C741 C 0.80024 0.39669 0.4994 0.0
C742 C 0.89989 0.29788 0.56231 0.0
C743 C 0.89071 0.31579 0.56505 0.0
C744 C 0.87341 0.3585 0.51475 0.0
C745 C 0.8272 0.38577 0.53396 0.0
C746 C 0.84403 0.37273 0.53783 0.0
C747 C 0.88527 0.32612 0.53578 0.0
C748 C 0.87235 0.34329 0.53844 0.0
H749 H 0.79442 0.41037 0.58193 0.0
H750 H 0.82554 0.39368 0.5871 0.0
H751 H 0.85996 0.38411 0.49491 0.0
H752 H 0.90338 0.29518 0.47619 0.0
H753 H 0.88645 0.32606 0.48062 0.0
C754 C 0.59449 0.80101 0.53943 0.0
C755 C 0.59122 0.78996 0.51018 0.0
C756 C 0.60434 0.81865 0.53722 0.0
C757 C 0.63946 0.84272 0.48036 0.0
H758 H 0.6357 0.88376 0.54714 0.0
C759 C 0.69561 0.90375 0.48546 0.0
C760 C 0.70465 0.90488 0.5173 0.0
C761 C 0.67807 0.89387 0.48186 0.0
C762 C 0.63677 0.87247 0.52816 0.0
H763 H 0.59417 0.78902 0.45555 0.0
H764 H 0.6104 0.82025 0.45126 0.0
H765 H 0.61069 0.85875 0.54489 0.0
H766 H 0.70222 0.89742 0.57052 0.0
H767 H 0.67149 0.88029 0.56432 0.0
H768 H 0.66563 0.8563 0.46397 0.0
C769 C 0.60618 0.8151 0.47614 0.0
C770 C 0.62255 0.85807 0.52698 0.0
C771 C 0.59677 0.79729 0.47849 0.0
C772 C 0.69548 0.89675 0.5457 0.0
C773 C 0.67785 0.88711 0.54221 0.0
C774 C 0.65346 0.85724 0.48122 0.0
C775 C 0.6108 0.82567 0.50559 0.0
C776 C 0.62404 0.84266 0.50372 0.0
C777 C 0.66924 0.88513 0.51011 0.0
C778 C 0.65256 0.87193 0.50573 0.0
H779 H 0.59046 0.7955 0.56418 0.0
H780 H 0.60781 0.82618 0.56054 0.0
H781 H 0.64143 0.83097 0.4625 0.0
H782 H 0.70254 0.9096 0.46305 0.0
H783 H 0.67172 0.8925 0.45684 0.0
C784 C 0.15362 0.03936 0.03752 0.0
C785 C 0.17357 0.04243 0.04187 0.0
C786 C 0.14076 0.05494 0.03722 0.0
C787 C 0.13622 0.10606 0.06392 0.0
H788 H 0.09255 0.10589 0.00205 0.0
C789 C 0.08624 0.1723 0.0449 0.0
C790 C 0.06622 0.16871 0.0432 0.0
C791 C 0.09945 0.15699 0.04497 0.0
C792 C 0.10457 0.10605 0.01971 0.0
H793 H 0.19571 0.06434 0.04884 0.0
H794 H 0.17328 0.09161 0.04776 0.0
H795 H 0.11563 0.07922 0.00083 0.0
H796 H 0.04441 0.14615 0.04043 0.0
H797 H 0.06751 0.11944 0.04056 0.0
H798 H 0.12518 0.13301 0.08256 0.0
C799 C 0.16753 0.07709 0.04518 0.0
C800 C 0.1178 0.09077 0.01903 0.0
C801 C 0.18041 0.06147 0.04561 0.0
C802 C 0.05972 0.14944 0.04177 0.0
C803 C 0.07295 0.13413 0.04162 0.0
C804 C 0.12303 0.1214 0.06447 0.0
C805 C 0.14754 0.074 0.0411 0.0
C806 C 0.13374 0.09053 0.04124 0.0
C807 C 0.09296 0.13775 0.04312 0.0
C808 C 0.10702 0.12151 0.04247 0.0
H809 H 0.14785 0.02487 0.03469 0.0
H810 H 0.12543 0.052 0.03454 0.0
H811 H 0.14815 0.1062 0.08174 0.0
H812 H 0.09177 0.18696 0.04599 0.0
H813 H 0.11478 0.16024 0.04582 0.0
C814 C 0.95738 0.15504 0.03788 0.0
C815 C 0.95471 0.17463 0.04627 0.0
C816 C 0.94165 0.14238 0.03676 0.0
C817 C 0.89127 0.13669 0.06714 0.0
H818 H 0.88943 0.09659 0.99832 0.0
C819 C 0.82467 0.08724 0.04611 0.0
C820 C 0.8285 0.06738 0.04199 0.0
C821 C 0.83979 0.10068 0.04646 0.0
C822 C 0.88983 0.10763 0.01783 0.0
H823 H 0.93338 0.19636 0.05963 0.0
H824 H 0.90582 0.17433 0.05699 0.0
H825 H 0.91613 0.11965 0.99854 0.0
H826 H 0.85128 0.0461 0.03498 0.0
H827 H 0.87761 0.0696 0.03544 0.0
H828 H 0.8648 0.12469 0.08614 0.0
C829 C 0.92015 0.16867 0.05193 0.0
C830 C 0.90514 0.12082 0.01803 0.0
C831 C 0.93593 0.18132 0.05326 0.0
C832 C 0.8478 0.06128 0.03823 0.0
C833 C 0.86289 0.07474 0.03828 0.0
C834 C 0.87588 0.12357 0.06678 0.0
C835 C 0.92283 0.14903 0.04376 0.0
C836 C 0.90614 0.13543 0.04285 0.0
C837 C 0.85904 0.09457 0.04237 0.0
C838 C 0.87509 0.10881 0.04228 0.0
H839 H 0.97168 0.14939 0.03251 0.0
H840 H 0.9443 0.1273 0.03094 0.0
H841 H 0.89172 0.14756 0.08693 0.0
H842 H 0.80997 0.09244 0.04907 0.0
H843 H 0.83639 0.11589 0.04939 0.0
C844 C 0.91138 0.82577 0.04167 0.0
C845 C 0.93143 0.8293 0.04216 0.0
C846 C 0.89822 0.84112 0.04159 0.0
C847 C 0.89407 0.89344 0.06083 0.0
H848 H 0.84796 0.88994 0.00497 0.0
C849 C 0.84399 0.95878 0.03702 0.0
C850 C 0.82396 0.9555 0.03956 0.0
C851 C 0.85698 0.9433 0.03714 0.0
C852 C 0.86069 0.89104 0.02093 0.0
H853 H 0.95333 0.85181 0.0429 0.0
H854 H 0.93038 0.87858 0.04218 0.0
H855 H 0.871 0.86319 0.00562 0.0
H856 H 0.80184 0.93333 0.04372 0.0
H857 H 0.82458 0.90625 0.04382 0.0
H858 H 0.88382 0.9214 0.0758 0.0
C859 C 0.92482 0.86392 0.04245 0.0
C860 C 0.87388 0.87571 0.02137 0.0
C861 C 0.938 0.84856 0.04268 0.0
C862 C 0.81718 0.93635 0.04175 0.0
C863 C 0.83019 0.92084 0.04165 0.0
C864 C 0.88094 0.90881 0.06023 0.0
C865 C 0.90477 0.86039 0.04184 0.0
C866 C 0.89073 0.87671 0.04134 0.0
C867 C 0.85023 0.92416 0.03959 0.0
C868 C 0.86411 0.90778 0.04027 0.0
H869 H 0.90578 0.81112 0.04142 0.0
H870 H 0.88289 0.83786 0.04168 0.0
H871 H 0.90672 0.89457 0.07695 0.0
H872 H 0.8497 0.97335 0.03521 0.0
H873 H 0.87232 0.9463 0.03508 0.0
C874 C 0.14909 0.93667 0.04109 0.0
C875 C 0.16845 0.93049 0.04269 0.0
C876 C 0.13397 0.92329 0.04299 0.0
C877 C 0.12305 0.87102 0.03321 0.0
H878 H 0.07651 0.88462 0.08281 0.0
C879 C 0.06135 0.81641 0.06115 0.0
C880 C 0.04247 0.82313 0.05492 0.0
C881 C 0.07705 0.82919 0.06025 0.0
C882 C 0.08938 0.88068 0.06869 0.0
H883 H 0.18708 0.90536 0.04769 0.0
H884 H 0.16072 0.88209 0.05176 0.0
H885 H 0.10332 0.9075 0.08024 0.0
H886 H 0.02527 0.84853 0.043 0.0
H887 H 0.05263 0.87076 0.04168 0.0
H888 H 0.10906 0.84408 0.02202 0.0
C889 C 0.15721 0.89724 0.04837 0.0
C890 C 0.10472 0.8938 0.0671 0.0
C891 C 0.17234 0.91062 0.04623 0.0
C892 C 0.03962 0.84288 0.04795 0.0
C893 C 0.05527 0.85565 0.04736 0.0
C894 C 0.10774 0.85783 0.03502 0.0
C895 C 0.13783 0.90341 0.04679 0.0
C896 C 0.1217 0.88921 0.04912 0.0
C897 C 0.07414 0.84895 0.05346 0.0
C898 C 0.09069 0.8626 0.05256 0.0
H899 H 0.14557 0.95186 0.03812 0.0
H900 H 0.11924 0.92853 0.04108 0.0
H901 H 0.13578 0.86711 0.01874 0.0
H902 H 0.06402 0.80127 0.06654 0.0
H903 H 0.09144 0.82366 0.06527 0.0
C904 C 0.15349 0.95768 0.50621 0.0
C905 C 0.17341 0.95481 0.50099 0.0
C906 C 0.14076 0.94198 0.50673 0.0
C907 C 0.13617 0.89114 0.4787 0.0
H908 H 0.0932 0.89048 0.54203 0.0
C909 C 0.08594 0.82481 0.49603 0.0
C910 C 0.06598 0.82851 0.49879 0.0
C911 C 0.09928 0.84002 0.49626 0.0
C912 C 0.10502 0.89055 0.52397 0.0
H913 H 0.19562 0.93312 0.49276 0.0
H914 H 0.17341 0.90566 0.49415 0.0
H915 H 0.1163 0.91715 0.54351 0.0
H916 H 0.04442 0.85119 0.50368 0.0
H917 H 0.06772 0.8777 0.50401 0.0
H918 H 0.12489 0.86445 0.45932 0.0
C919 C 0.1676 0.92011 0.49728 0.0
C920 C 0.11826 0.90583 0.5248 0.0
C921 C 0.18035 0.93584 0.49669 0.0
C922 C 0.05967 0.8478 0.50153 0.0
C923 C 0.07303 0.863 0.50194 0.0
C924 C 0.12296 0.8758 0.47797 0.0
C925 C 0.14763 0.923 0.50217 0.0
C926 C 0.13393 0.90638 0.50204 0.0
C927 C 0.09299 0.85927 0.49945 0.0
C928 C 0.10718 0.87541 0.50046 0.0
H929 H 0.14764 0.9721 0.50953 0.0
H930 H 0.12545 0.94478 0.51006 0.0
H931 H 0.1479 0.89124 0.46047 0.0
H932 H 0.09133 0.81013 0.49393 0.0
H933 H 0.11457 0.83667 0.4946 0.0
C934 C 0.06053 0.18165 0.49044 0.0
C935 C 0.04159 0.17486 0.49566 0.0
C936 C 0.0762 0.16882 0.49102 0.0
C937 C 0.09034 0.11984 0.5204 0.0
H938 H 0.1314 0.12527 0.45397 0.0
C939 C 0.14775 0.06059 0.49855 0.0
C940 C 0.16708 0.06677 0.49586 0.0
C941 C 0.13265 0.07404 0.49845 0.0
C942 C 0.12012 0.12368 0.47286 0.0
H943 H 0.02424 0.14928 0.50561 0.0
H944 H 0.05142 0.12697 0.50604 0.0
H945 H 0.10475 0.14846 0.45452 0.0
H946 H 0.18566 0.09195 0.49043 0.0
H947 H 0.15926 0.11536 0.49013 0.0
H948 H 0.10561 0.09493 0.53844 0.0
C949 C 0.05428 0.14221 0.50208 0.0
C950 C 0.10489 0.13699 0.47325 0.0
C951 C 0.03866 0.15501 0.50161 0.0
C952 C 0.17094 0.08668 0.49255 0.0
C953 C 0.15582 0.1001 0.49221 0.0
C954 C 0.10551 0.1065 0.51988 0.0
C955 C 0.07324 0.14894 0.49677 0.0
C956 C 0.08977 0.13517 0.49694 0.0
C957 C 0.13653 0.09394 0.49542 0.0
C958 C 0.12052 0.10823 0.49603 0.0
H959 H 0.06329 0.19687 0.48592 0.0
H960 H 0.09065 0.17452 0.48727 0.0
H961 H 0.07913 0.11822 0.5394 0.0
H962 H 0.14426 0.04538 0.50112 0.0
H963 H 0.1179 0.06886 0.50056 0.0
C964 C 0.81589 0.06059 0.49734 0.0
C965 C 0.82275 0.04161 0.50181 0.0
C966 C 0.82872 0.07625 0.49755 0.0
C967 C 0.8783 0.09037 0.5241 0.0
H968 H 0.87113 0.13193 0.45915 0.0
C969 C 0.93646 0.14879 0.50005 0.0
C970 C 0.92999 0.16806 0.49804 0.0
C971 C 0.9232 0.1335 0.50054 0.0
C972 C 0.87321 0.12051 0.47764 0.0
H973 H 0.84847 0.02421 0.51013 0.0
H974 H 0.87081 0.05142 0.50991 0.0
H975 H 0.8482 0.10507 0.4605 0.0
H976 H 0.90448 0.18631 0.49455 0.0
H977 H 0.88142 0.1596 0.49527 0.0
H978 H 0.90346 0.10572 0.54091 0.0
C979 C 0.8555 0.05428 0.50681 0.0
C980 C 0.86005 0.10514 0.47849 0.0
C981 C 0.84268 0.03865 0.50672 0.0
C982 C 0.90998 0.17165 0.4961 0.0
C983 C 0.89675 0.15635 0.49635 0.0
C984 C 0.89151 0.10567 0.52311 0.0
C985 C 0.8487 0.07328 0.50214 0.0
C986 C 0.86246 0.08985 0.50168 0.0
C987 C 0.90321 0.13712 0.4988 0.0
C988 C 0.88913 0.12089 0.49983 0.0
H989 H 0.80061 0.06337 0.49364 0.0
H990 H 0.82295 0.09071 0.49437 0.0
H991 H 0.88041 0.07902 0.54269 0.0
H992 H 0.95176 0.14549 0.50158 0.0
H993 H 0.92862 0.11881 0.50205 0.0
C994 C 0.93515 0.81508 0.5013 0.0
C995 C 0.95412 0.82204 0.50549 0.0
C996 C 0.91941 0.82779 0.50223 0.0
C997 C 0.90517 0.87709 0.53006 0.0
H998 H 0.86368 0.87044 0.46479 0.0
C999 C 0.84744 0.93579 0.50579 0.0
C1000 C 0.82811 0.92957 0.50326 0.0
C1001 C 0.86255 0.92235 0.50663 0.0
C1002 C 0.87507 0.87236 0.48339 0.0
H1003 H 0.97141 0.84779 0.51419 0.0
H1004 H 0.94407 0.86993 0.51523 0.0
H1005 H 0.89046 0.84743 0.46581 0.0
H1006 H 0.80956 0.90429 0.49932 0.0
H1007 H 0.83596 0.88089 0.50066 0.0
H1008 H 0.88989 0.90219 0.54727 0.0
C1009 C 0.94128 0.85463 0.51178 0.0
C1010 C 0.89039 0.85916 0.48405 0.0
C1011 C 0.95699 0.84193 0.51097 0.0
C1012 C 0.82427 0.9096 0.50126 0.0
C1013 C 0.83939 0.89618 0.50187 0.0
C1014 C 0.88991 0.89034 0.52928 0.0
C1015 C 0.9223 0.84774 0.50728 0.0
C1016 C 0.90567 0.86141 0.5073 0.0
C1017 C 0.85868 0.90241 0.50473 0.0
C1018 C 0.87474 0.88816 0.50585 0.0
H1019 H 0.93244 0.79981 0.49718 0.0
H1020 H 0.90496 0.82196 0.49916 0.0
H1021 H 0.91652 0.87907 0.5487 0.0
H1022 H 0.85093 0.95105 0.50737 0.0
H1023 H 0.87729 0.92759 0.50845 0.0
C1024 C 0.65378 0.53879 0.53168 0.0
C1025 C 0.67372 0.54176 0.53639 0.0
C1026 C 0.64096 0.55441 0.53185 0.0
C1027 C 0.63654 0.60505 0.56114 0.0
H1028 H 0.59253 0.60581 0.50004 0.0
C1029 C 0.58622 0.67138 0.54591 0.0
C1030 C 0.56621 0.66773 0.54438 0.0
C1031 C 0.59949 0.65613 0.54526 0.0
C1032 C 0.60465 0.6057 0.51747 0.0
H1033 H 0.69591 0.56353 0.54424 0.0
H1034 H 0.67355 0.59085 0.54391 0.0
H1035 H 0.61571 0.57926 0.49694 0.0
H1036 H 0.54447 0.64511 0.5413 0.0
H1037 H 0.56768 0.6185 0.54013 0.0
H1038 H 0.62551 0.63161 0.58141 0.0
C1039 C 0.66778 0.57639 0.54074 0.0
C1040 C 0.61794 0.59049 0.51573 0.0
C1041 C 0.68061 0.56074 0.54071 0.0
C1042 C 0.55977 0.64845 0.54252 0.0
C1043 C 0.57306 0.6332 0.54162 0.0
C1044 C 0.62331 0.62032 0.56274 0.0
C1045 C 0.64778 0.57339 0.53655 0.0
C1046 C 0.63399 0.58992 0.53766 0.0
C1047 C 0.59306 0.63689 0.54281 0.0
C1048 C 0.60717 0.62075 0.54104 0.0
H1049 H 0.64797 0.52434 0.52839 0.0
H1050 H 0.62563 0.55152 0.52902 0.0
H1051 H 0.64856 0.60491 0.57878 0.0
H1052 H 0.5917 0.68605 0.54734 0.0
H1053 H 0.61481 0.65943 0.54593 0.0
C1054 C 0.32503 0.58576 0.54653 0.0
C1055 C 0.32877 0.56581 0.54394 0.0
C1056 C 0.34025 0.59906 0.54782 0.0
C1057 C 0.39287 0.60261 0.56537 0.0
H1058 H 0.38835 0.6515 0.51762 0.0
C1059 C 0.45784 0.65349 0.54386 0.0
C1060 C 0.45485 0.6733 0.55014 0.0
C1061 C 0.44225 0.64062 0.54353 0.0
C1062 C 0.38973 0.63798 0.53133 0.0
H1063 H 0.35149 0.54422 0.54037 0.0
H1064 H 0.37799 0.56742 0.54186 0.0
H1065 H 0.3616 0.62845 0.51601 0.0
H1066 H 0.43313 0.69517 0.5606 0.0
H1067 H 0.40585 0.67263 0.55976 0.0
H1068 H 0.42116 0.61205 0.58016 0.0
C1069 C 0.3633 0.57279 0.54364 0.0
C1070 C 0.3744 0.62478 0.53049 0.0
C1071 C 0.34809 0.55947 0.54259 0.0
C1072 C 0.43591 0.67999 0.55574 0.0
C1073 C 0.42028 0.66712 0.5551 0.0
C1074 C 0.40824 0.61574 0.56598 0.0
C1075 C 0.35958 0.59275 0.54632 0.0
C1076 C 0.3758 0.60691 0.54746 0.0
C1077 C 0.42332 0.64729 0.54917 0.0
C1078 C 0.40685 0.63353 0.54892 0.0
H1079 H 0.31032 0.59114 0.54779 0.0
H1080 H 0.33684 0.61429 0.5504 0.0
H1081 H 0.39432 0.58916 0.57926 0.0
H1082 H 0.47225 0.64786 0.5394 0.0
H1083 H 0.445 0.62545 0.53849 0.0
C1084 C 0.34259 0.457 0.54111 0.0
C1085 C 0.32266 0.45398 0.54589 0.0
C1086 C 0.35541 0.44138 0.54048 0.0
C1087 C 0.3602 0.39021 0.56668 0.0
H1088 H 0.40307 0.3905 0.50312 0.0
C1089 C 0.41054 0.32425 0.54638 0.0
C1090 C 0.4305 0.32804 0.54367 0.0
C1091 C 0.39717 0.33942 0.54682 0.0
C1092 C 0.39128 0.3903 0.52124 0.0
H1093 H 0.30053 0.43212 0.55347 0.0
H1094 H 0.3229 0.4048 0.5519 0.0
H1095 H 0.37993 0.41712 0.50286 0.0
H1096 H 0.45199 0.35084 0.53953 0.0
H1097 H 0.42863 0.37728 0.54035 0.0
H1098 H 0.37156 0.36329 0.58487 0.0
C1099 C 0.32866 0.4193 0.54916 0.0
C1100 C 0.37801 0.40556 0.52112 0.0
C1101 C 0.31582 0.43496 0.54988 0.0
C1102 C 0.43675 0.34738 0.54161 0.0
C1103 C 0.42335 0.36254 0.54186 0.0
C1104 C 0.37344 0.3749 0.5667 0.0
C1105 C 0.34862 0.42233 0.54448 0.0
C1106 C 0.36238 0.40577 0.54398 0.0
C1107 C 0.40341 0.35873 0.54436 0.0
C1108 C 0.38919 0.37484 0.54411 0.0
H1109 H 0.34838 0.47147 0.53807 0.0
H1110 H 0.37071 0.44429 0.53737 0.0
H1111 H 0.34849 0.39004 0.58495 0.0
H1112 H 0.4052 0.30953 0.54797 0.0
H1113 H 0.38189 0.33601 0.54844 0.0
C1114 C 0.5395 0.34173 0.53068 0.0
C1115 C 0.54236 0.32189 0.53671 0.0
C1116 C 0.55519 0.35446 0.52995 0.0
C1117 C 0.60572 0.35938 0.55911 0.0
H1118 H 0.60684 0.4018 0.49466 0.0
C1119 C 0.67186 0.40987 0.54285 0.0
C1120 C 0.668 0.4298 0.53993 0.0
C1121 C 0.65678 0.39641 0.54217 0.0
C1122 C 0.60664 0.39012 0.513 0.0
H1123 H 0.564 0.29977 0.54605 0.0
H1124 H 0.59146 0.32198 0.54426 0.0
H1125 H 0.58029 0.37856 0.49295 0.0
H1126 H 0.6452 0.45117 0.53416 0.0
H1127 H 0.61891 0.42763 0.53301 0.0
H1128 H 0.63214 0.37095 0.57903 0.0
C1129 C 0.57702 0.32774 0.54068 0.0
C1130 C 0.59143 0.3768 0.51205 0.0
C1131 C 0.5613 0.315 0.54151 0.0
C1132 C 0.6487 0.43594 0.53647 0.0
C1133 C 0.63364 0.42245 0.53558 0.0
C1134 C 0.62098 0.37265 0.55996 0.0
C1135 C 0.57413 0.34764 0.53509 0.0
C1136 C 0.59072 0.36135 0.53524 0.0
C1137 C 0.63752 0.40255 0.53833 0.0
C1138 C 0.62152 0.38824 0.53706 0.0
H1139 H 0.52509 0.34753 0.52696 0.0
H1140 H 0.5524 0.36972 0.52606 0.0
H1141 H 0.60547 0.34782 0.57767 0.0
H1142 H 0.68656 0.40463 0.54552 0.0
H1143 H 0.66023 0.38115 0.54405 0.0
C1144 C 0.67975 0.43753 0.99703 0.0
C1145 C 0.67304 0.45659 0.00104 0.0
C1146 C 0.66678 0.42199 0.99713 0.0
C1147 C 0.61686 0.40845 0.0226 0.0
H1148 H 0.62459 0.36618 0.95926 0.0
C1149 C 0.5593 0.34913 -0.00045 0.0
C1150 C 0.56604 0.32994 -0.00142 0.0
C1151 C 0.57234 0.36461 -0.0003 0.0
C1152 C 0.62234 0.37781 0.97728 0.0
H1153 H 0.64742 0.47428 0.00836 0.0
H1154 H 0.62482 0.44728 0.00791 0.0
H1155 H 0.64746 0.39307 0.96023 0.0
H1156 H 0.59183 0.312 0.99665 0.0
H1157 H 0.61451 0.33901 0.99677 0.0
H1158 H 0.59159 0.39323 0.03932 0.0
C1159 C 0.64012 0.44425 0.00528 0.0
C1160 C 0.63547 0.39319 0.97792 0.0
C1161 C 0.65309 0.45977 0.00534 0.0
C1162 C 0.58612 0.3266 0.9974 0.0
C1163 C 0.59913 0.34207 0.99729 0.0
C1164 C 0.60367 0.39312 0.0218 0.0
C1165 C 0.64679 0.42517 0.00111 0.0
C1166 C 0.63291 0.4087 0.00062 0.0
C1167 C 0.5924 0.36124 -0.00139 0.0
C1168 C 0.60628 0.37763 -0.00084 0.0
H1169 H 0.69504 0.43458 0.99384 0.0
H1170 H 0.67245 0.40746 0.99438 0.0
H1171 H 0.61461 0.41998 0.04079 0.0
H1172 H 0.54394 0.35223 0.00048 0.0
H1173 H 0.56673 0.37925 0.00039 0.0
C1174 C 0.54064 0.65597 0.00465 0.0
C1175 C 0.54331 0.67588 -0.00097 0.0
C1176 C 0.5565 0.64352 0.00651 0.0
C1177 C 0.60795 0.63934 0.98222 0.0
H1178 H 0.6075 0.5971 0.04708 0.0
C1179 C 0.67356 0.58861 0.00334 0.0
C1180 C 0.66944 0.5687 0.00532 0.0
C1181 C 0.6586 0.60223 0.00344 0.0
C1182 C 0.60776 0.60875 0.02867 0.0
H1183 H 0.56477 0.69836 0.99125 0.0
H1184 H 0.59254 0.67662 0.99496 0.0
H1185 H 0.58077 0.62011 0.04617 0.0
H1186 H 0.64631 0.54753 0.00912 0.0
H1187 H 0.62027 0.57131 0.00932 0.0
H1188 H 0.63502 0.62792 0.96483 0.0
C1189 C 0.57813 0.67061 0.99743 0.0
C1190 C 0.59245 0.62192 0.0281 0.0
C1191 C 0.56222 0.68308 0.99546 0.0
C1192 C 0.65002 0.56274 0.00754 0.0
C1193 C 0.63509 0.57636 0.00788 0.0
C1194 C 0.62333 0.6262 0.98291 0.0
C1195 C 0.57545 0.65067 0.00296 0.0
C1196 C 0.59224 0.63725 0.00463 0.0
C1197 C 0.63922 0.59625 0.0058 0.0
C1198 C 0.62329 0.61065 0.00591 0.0
H1199 H 0.52626 0.64992 0.00739 0.0
H1200 H 0.55388 0.62821 0.01022 0.0
H1201 H 0.60814 0.65083 0.96353 0.0
H1202 H 0.68836 0.59372 0.00163 0.0
H1203 H 0.66223 0.61747 0.0021 0.0
C1204 C 0.34353 0.53887 0.00615 0.0
C1205 C 0.32358 0.542 0.00179 0.0
C1206 C 0.35645 0.55442 0.00634 0.0
C1207 C 0.36114 0.60538 0.97889 0.0
H1208 H 0.40498 0.60538 0.04038 0.0
C1209 C 0.41139 0.67156 0.99644 0.0
C1210 C 0.43141 0.66794 0.99816 0.0
C1211 C 0.39814 0.65628 0.99667 0.0
C1212 C 0.39292 0.60549 0.02283 0.0
H1213 H 0.30152 0.56397 0.9948 0.0
H1214 H 0.32406 0.59116 0.99568 0.0
H1215 H 0.38179 0.5788 0.04224 0.0
H1216 H 0.45316 0.64535 0.00122 0.0
H1217 H 0.42999 0.61868 0.0016 0.0
H1218 H 0.37225 0.63217 0.95969 0.0
C1219 C 0.32975 0.57664 0.99835 0.0
C1220 C 0.37962 0.59026 0.02387 0.0
C1221 C 0.31681 0.56106 0.99806 0.0
C1222 C 0.43786 0.64866 -0.00013 0.0
C1223 C 0.42458 0.63338 0.00031 0.0
C1224 C 0.3744 0.62065 0.97797 0.0
C1225 C 0.34974 0.57349 0.00232 0.0
C1226 C 0.36361 0.58997 0.00182 0.0
C1227 C 0.40458 0.63703 -0.00118 0.0
C1228 C 0.39047 0.62084 -0.00017 0.0
H1229 H 0.34926 0.52437 0.00901 0.0
H1230 H 0.37177 0.55143 0.00898 0.0
H1231 H 0.34916 0.60547 0.96117 0.0
H1232 H 0.4059 0.68623 0.99513 0.0
H1233 H 0.38282 0.65956 0.99581 0.0
C1234 C 0.4365 0.31647 0.97908 0.0
C1235 C 0.4552 0.323 0.98721 0.0
C1236 C 0.42075 0.32919 0.9801 0.0
C1237 C 0.4056 0.3766 0.01562 0.0
H1238 H 0.36568 0.37379 0.94659 0.0
C1239 C 0.34837 0.4364 0.99782 0.0
C1240 C 0.32907 0.43029 0.99405 0.0
C1241 C 0.3635 0.42301 0.99681 0.0
C1242 C 0.37665 0.37462 0.96618 0.0
H1243 H 0.47207 0.34804 0.00245 0.0
H1244 H 0.44479 0.37023 0.00348 0.0
H1245 H 0.39257 0.35087 0.94531 0.0
H1246 H 0.31059 0.40531 0.98571 0.0
H1247 H 0.33708 0.38197 0.98369 0.0
H1248 H 0.38982 0.40057 0.03609 0.0
C1249 C 0.44215 0.35522 0.99704 0.0
C1250 C 0.39203 0.36147 0.96554 0.0
C1251 C 0.45783 0.3425 0.99623 0.0
C1252 C 0.32529 0.41051 0.98874 0.0
C1253 C 0.34045 0.39714 0.98741 0.0
C1254 C 0.39033 0.38982 0.01608 0.0
C1255 C 0.42339 0.34872 0.98911 0.0
C1256 C 0.40674 0.36235 0.99018 0.0
C1257 C 0.35968 0.40324 0.99171 0.0
C1258 C 0.37575 0.38902 0.99131 0.0
H1259 H 0.43398 0.30151 0.97217 0.0
H1260 H 0.40647 0.32363 0.97427 0.0
H1261 H 0.41645 0.37746 0.03541 0.0
H1262 H 0.3518 0.45152 0.00197 0.0
H1263 H 0.37822 0.42813 -0.00016 0.0
C1264 C 0.96601 0.24339 0.38961 0.0
C1265 C 0.9805 0.23506 0.40994 0.0
C1266 C 0.96967 0.24771 0.35554 0.0
C1267 C 0.00684 0.25666 0.29156 0.0
H1268 H 0.97425 0.22664 0.23123 0.0
C1269 C 0.02864 0.24019 0.15302 0.0
C1270 C 0.01418 0.23556 0.12937 0.0
C1271 C 0.02377 0.24421 0.18676 0.0
C1272 C 0.98323 0.23561 0.24733 0.0
H1273 H 0.01054 0.22596 0.41124 0.0
H1274 H 0.01703 0.234 0.35187 0.0
H1275 H 0.96718 0.22733 0.29148 0.0
H1276 H 0.98328 0.23307 0.12145 0.0
H1277 H 0.97461 0.24137 0.17949 0.0
H1278 H 0.02278 0.26523 0.24754 0.0
C1279 C 0.00282 0.23696 0.36226 0.0
C1280 C 0.97919 0.23586 0.28201 0.0
C1281 C -0.00094 0.23225 0.39612 0.0
C1282 C 0.99472 0.23633 0.13938 0.0
C1283 C 0.9898 0.24089 0.17281 0.0
C1284 C 0.01065 0.25679 0.25666 0.0
C1285 C 0.98801 0.2442 0.34146 0.0
C1286 C 0.99116 0.24606 0.30449 0.0
C1287 C 0.00427 0.24416 0.19735 0.0
C1288 C -0.00086 0.24592 0.23408 0.0
H1289 H 0.95157 0.24571 0.39953 0.0
H1290 H 0.95804 0.25331 0.33992 0.0
H1291 H 0.01622 0.26469 0.3085 0.0
H1292 H 0.04378 0.23959 0.14592 0.0
H1293 H 0.03541 0.2464 0.20473 0.0
C1294 C 0.76731 -0.00032 0.39771 0.0
C1295 C 0.76403 0.98124 0.41166 0.0
C1296 C 0.76306 0.00334 0.36362 0.0
C1297 C 0.7654 0.97998 0.28395 0.0
H1298 H 0.7339 0.02157 0.24781 0.0
C1299 C 0.76483 0.99446 0.14087 0.0
C1300 C 0.76437 0.01386 0.13044 0.0
C1301 C 0.76057 0.98952 0.17441 0.0
C1302 C 0.74296 0.01003 0.25741 0.0
H1303 H 0.75309 0.95239 0.40121 0.0
H1304 H 0.74636 0.95868 0.34127 0.0
H1305 H 0.73431 0.01547 0.30893 0.0
H1306 H 0.75856 0.04328 0.14641 0.0
H1307 H 0.75231 0.03494 0.20533 0.0
H1308 H 0.77533 0.97523 0.23352 0.0
C1309 C 0.75192 0.9703 0.35696 0.0
C1310 C 0.74301 0.00647 0.29237 0.0
C1311 C 0.75576 0.96675 0.3912 0.0
C1312 C 0.75894 0.02818 0.15381 0.0
C1313 C 0.75522 0.02332 0.18762 0.0
C1314 C 0.76574 0.98379 0.2492 0.0
C1315 C 0.75583 0.98852 0.34283 0.0
C1316 C 0.75434 0.99149 0.30584 0.0
C1317 C 0.75637 0.00394 0.1986 0.0
C1318 C 0.75466 -0.00101 0.23537 0.0
H1319 H 0.77356 0.01116 0.41292 0.0
H1320 H 0.7663 0.01747 0.3531 0.0
H1321 H 0.77446 0.9685 0.29393 0.0
H1322 H 0.76872 0.98311 0.12315 0.0
H1323 H 0.76099 0.97438 0.18142 0.0
C1324 C 0.99762 0.7629 0.14642 0.0
C1325 C 0.9791 0.76151 0.13184 0.0
C1326 C 0.00048 0.75832 0.18058 0.0
C1327 C 0.97632 0.7629 0.25968 0.0
H1328 H 0.01676 0.73031 0.29687 0.0
C1329 C 0.99206 0.76432 0.40268 0.0
C1330 C 0.01154 0.76324 0.41261 0.0
C1331 C 0.98659 0.75971 0.3695 0.0
C1332 C 0.00553 0.73966 0.28699 0.0
H1333 H 0.94921 0.75354 0.1412 0.0
H1334 H 0.95415 0.7462 0.20145 0.0
H1335 H 0.01046 0.73005 0.23586 0.0
H1336 H 0.04052 0.75601 0.39598 0.0
H1337 H 0.0313 0.74908 0.33771 0.0
H1338 H 0.9722 0.77377 0.30972 0.0
C1339 C 0.96644 0.75054 0.18615 0.0
C1340 C 0.00183 0.73932 0.25207 0.0
C1341 C 0.96365 0.75468 0.15174 0.0
C1342 C 0.02537 0.75688 0.38904 0.0
C1343 C 0.02 0.75276 0.35559 0.0
C1344 C 0.98029 0.7636 0.2944 0.0
C1345 C 0.98481 0.75266 0.20095 0.0
C1346 C 0.98734 0.75111 0.23812 0.0
C1347 C 0.00056 0.75447 0.34512 0.0
C1348 C 0.99515 0.7522 0.30858 0.0
H1349 H 0.0098 0.76804 0.13163 0.0
H1350 H 0.01475 0.76019 0.19152 0.0
H1351 H 0.96525 0.77233 0.2494 0.0
H1352 H 0.98104 0.76893 0.42051 0.0
H1353 H 0.97141 0.76064 0.36291 0.0
C1354 C 0.23281 0.99438 0.40073 0.0
C1355 C 0.23323 0.01379 0.41111 0.0
C1356 C 0.23728 0.98939 0.36729 0.0
C1357 C 0.25526 0.00985 0.28444 0.0
H1358 H 0.22366 0.9685 0.24751 0.0
C1359 C 0.23066 0.00028 0.14421 0.0
C1360 C 0.23369 0.98188 0.12992 0.0
C1361 C 0.23509 0.00372 0.1783 0.0
C1362 C 0.23276 0.97992 0.2576 0.0
H1363 H 0.2392 0.04318 0.39514 0.0
H1364 H 0.24582 0.03476 0.33641 0.0
H1365 H 0.22278 0.97507 0.30797 0.0
H1366 H 0.2444 0.95288 0.13975 0.0
H1367 H 0.25144 0.95879 0.19971 0.0
H1368 H 0.26394 0.01543 0.23298 0.0
C1369 C 0.2428 0.02317 0.35409 0.0
C1370 C 0.2324 0.98365 0.29238 0.0
C1371 C 0.23886 0.02807 0.3878 0.0
C1372 C 0.24193 0.96721 0.15002 0.0
C1373 C 0.24594 0.97054 0.18428 0.0
C1374 C 0.25522 0.00639 0.24944 0.0
C1375 C 0.24166 0.00378 0.34313 0.0
C1376 C 0.24349 -0.00119 0.30637 0.0
C1377 C 0.24225 0.98872 0.19877 0.0
C1378 C 0.24385 0.99148 0.23581 0.0
H1379 H 0.22876 0.98305 0.41839 0.0
H1380 H 0.23685 0.97424 0.3603 0.0
H1381 H 0.26433 0.02136 0.29415 0.0
H1382 H 0.22443 0.01187 0.12928 0.0
H1383 H 0.23201 0.01781 0.18909 0.0
C1384 C 0.99728 0.75101 0.90199 0.0
C1385 C 0.9935 0.76903 0.917 0.0
C1386 C 0.00045 0.74965 0.86699 0.0
C1387 C 0.01456 0.77866 0.7925 0.0
H1388 H 0.98806 0.73892 0.7407 0.0
C1389 C 0.02868 0.76799 0.65005 0.0
C1390 C 0.01232 0.76579 0.62932 0.0
C1391 C 0.027 0.76695 0.68528 0.0
C1392 C 0.9955 0.75012 0.75485 0.0
H1393 H 0.98995 0.7997 0.90771 0.0
H1394 H 0.99573 0.79745 0.84671 0.0
H1395 H 0.98431 0.74006 0.80242 0.0
H1396 H 0.98145 0.76057 0.62874 0.0
H1397 H 0.97839 0.75884 0.69071 0.0
H1398 H 0.02545 0.78899 0.74507 0.0
C1399 C 0.99645 0.78438 0.86184 0.0
C1400 C 0.99352 0.75065 0.79017 0.0
C1401 C 0.99316 0.78569 0.89669 0.0
C1402 C 0.99425 0.76226 0.64433 0.0
C1403 C 0.99256 0.76116 0.67968 0.0
C1404 C 0.01662 0.77807 0.75729 0.0
C1405 C 1e-05 0.76634 0.84656 0.0
C1406 C 0.00289 0.76504 0.80932 0.0
C1407 C 0.0089 0.76373 0.70052 0.0
C1408 C 0.00703 0.76388 0.73804 0.0
H1409 H 0.99761 0.73799 0.9173 0.0
H1410 H 0.00333 0.73559 0.85595 0.0
H1411 H 0.02209 0.78983 0.8066 0.0
H1412 H 0.04274 0.77097 0.63904 0.0
H1413 H 0.03988 0.7688 0.70062 0.0
C1414 C 0.23131 0.99283 0.64139 0.0
C1415 C 0.22935 0.01132 0.62713 0.0
C1416 C 0.23308 0.99063 0.67655 0.0
C1417 C 0.22258 0.01643 0.75676 0.0
H1418 H 0.25583 0.97722 0.79621 0.0
C1419 C 0.23277 0.00863 0.9016 0.0
C1420 C 0.23079 0.9897 0.914 0.0
C1421 C 0.23444 0.01196 0.86671 0.0
C1422 C 0.24645 0.9882 0.78549 0.0
H1423 H 0.22753 0.04199 0.63818 0.0
H1424 H 0.23135 0.0383 0.69919 0.0
H1425 H 0.25525 0.98159 0.73471 0.0
H1426 H 0.22882 0.95943 0.89993 0.0
H1427 H 0.23207 0.96518 0.83918 0.0
H1428 H 0.21377 0.02299 0.80754 0.0
C1429 C 0.23125 0.02543 0.6835 0.0
C1430 C 0.24605 0.99065 0.7503 0.0
C1431 C 0.22935 0.02758 0.64849 0.0
C1432 C 0.23077 0.97415 0.89107 0.0
C1433 C 0.2326 0.97744 0.85631 0.0
C1434 C 0.22308 0.01406 0.79192 0.0
C1435 C 0.23295 0.00693 0.69803 0.0
C1436 C 0.23397 0.00468 0.73549 0.0
C1437 C 0.23427 0.99638 0.84372 0.0
C1438 C 0.23487 -0.00021 0.80662 0.0
H1439 H 0.23135 0.98009 0.62535 0.0
H1440 H 0.23411 0.97616 0.68692 0.0
H1441 H 0.21285 0.02715 0.74622 0.0
H1442 H 0.23289 0.02083 0.91887 0.0
H1443 H 0.23583 0.0267 0.85769 0.0
C1444 C 0.01029 0.21189 0.89355 0.0
C1445 C 0.00905 0.22871 0.91333 0.0
C1446 C 0.00776 0.21279 0.85849 0.0
C1447 C 0.00993 0.24567 0.78532 0.0
H1448 H 0.97818 0.2063 0.74256 0.0
C1449 C 0.00616 0.23344 0.63945 0.0
C1450 C 0.98772 0.22977 0.62602 0.0
C1451 C 0.00884 0.23452 0.67463 0.0
C1452 C 0.98698 0.21747 0.75412 0.0
H1453 H 0.00449 0.25968 0.91241 0.0
H1454 H 2e-05 0.26136 0.85063 0.0
H1455 H 0.98235 0.20609 0.8039 0.0
H1456 H 0.95767 0.22425 0.63835 0.0
H1457 H 0.96223 0.22636 0.69956 0.0
H1458 H 0.01442 0.25709 0.7353 0.0
C1459 C 0.00301 0.24748 0.86228 0.0
C1460 C 0.98952 0.21724 0.78922 0.0
C1461 C 0.00546 0.24654 0.8975 0.0
C1462 C 0.972 0.22732 0.64813 0.0
C1463 C 0.97465 0.22834 0.68315 0.0
C1464 C 0.00746 0.24584 0.75006 0.0
C1465 C 0.00404 0.23058 0.84246 0.0
C1466 C 0.00106 0.23129 0.80521 0.0
C1467 C 0.99312 0.23177 0.69682 0.0
C1468 C 0.99594 0.23174 0.73413 0.0
H1469 H 0.0134 0.19803 0.90523 0.0
H1470 H 0.00895 0.19957 0.84385 0.0
H1471 H 0.01901 0.25659 0.79695 0.0
H1472 H 0.01847 0.23533 0.62275 0.0
H1473 H 0.02327 0.23701 0.68446 0.0
C1474 C 0.76529 0.97095 0.65007 0.0
C1475 C 0.765 0.98708 0.62844 0.0
C1476 C 0.76348 0.97328 0.68506 0.0
C1477 C 0.74855 0.00816 0.75156 0.0
H1478 H 0.78153 0.97643 0.80861 0.0
C1479 C 0.764 0.02466 0.89253 0.0
C1480 C 0.7645 0.009 0.91522 0.0
C1481 C 0.76196 0.02149 0.85776 0.0
C1482 C 0.77203 0.98519 0.79305 0.0
H1483 H 0.76261 0.01827 0.62611 0.0
H1484 H 0.75999 0.02253 0.68766 0.0
H1485 H 0.78233 0.9722 0.74733 0.0
H1486 H 0.76293 0.97782 0.91969 0.0
H1487 H 0.75958 0.97217 0.85855 0.0
H1488 H 0.73869 0.02149 0.79753 0.0
C1489 C 0.76117 0.00801 0.67752 0.0
C1490 C 0.77246 0.98278 0.75791 0.0
C1491 C 0.76284 0.00563 0.64237 0.0
C1492 C 0.76267 0.9901 0.90261 0.0
C1493 C 0.76078 0.9869 0.86773 0.0
C1494 C 0.74822 0.01066 0.78676 0.0
C1495 C 0.76162 0.99184 0.69928 0.0
C1496 C 0.76078 0.99427 0.73671 0.0
C1497 C 0.76058 0.00257 0.84495 0.0
C1498 C 0.76002 -0.00075 0.80783 0.0
H1499 H 0.76728 0.9565 0.64001 0.0
H1500 H 0.76363 0.9605 0.70097 0.0
H1501 H 0.73916 0.01704 0.73601 0.0
H1502 H 0.7658 0.03936 0.90155 0.0
H1503 H 0.76217 0.03382 0.84078 0.0
C1504 C 0.50036 0.73239 0.89686 0.0
C1505 C 0.48185 0.73528 0.91078 0.0
C1506 C 0.5041 0.73715 0.86301 0.0
C1507 C 0.48025 0.73642 0.7829 0.0
H1508 H 0.52411 0.7653 0.74822 0.0
C1509 C 0.49547 0.73664 0.64024 0.0
C1510 C 0.5149 0.73557 0.63013 0.0
C1511 C 0.49068 0.74137 0.67365 0.0
C1512 C 0.5119 0.757 0.7574 0.0
H1513 H 0.45297 0.74616 0.90056 0.0
H1514 H 0.4594 0.75386 0.84101 0.0
H1515 H 0.51769 0.76476 0.80924 0.0
H1516 H 0.54458 0.73926 0.64644 0.0
H1517 H 0.53641 0.74635 0.70526 0.0
H1518 H 0.47508 0.72732 0.73213 0.0
C1519 C 0.47102 0.74815 0.85653 0.0
C1520 C 0.50816 0.75686 0.79233 0.0
C1521 C 0.46738 0.74377 0.89057 0.0
C1522 C 0.52946 0.74009 0.65363 0.0
C1523 C 0.52471 0.74427 0.68737 0.0
C1524 C 0.4842 0.73617 0.74819 0.0
C1525 C 0.48931 0.74455 0.84233 0.0
C1526 C 0.49239 0.74643 0.80534 0.0
C1527 C 0.50524 0.74449 0.69809 0.0
C1528 C 0.5002 0.74629 0.73486 0.0
H1529 H 0.51183 0.72599 0.91187 0.0
H1530 H 0.51828 0.73413 0.85253 0.0
H1531 H 0.46817 0.72801 0.79241 0.0
H1532 H 0.48395 0.73346 0.62241 0.0
H1533 H 0.47551 0.74206 0.68042 0.0
C1534 C 0.25666 0.47008 0.88872 0.0
C1535 C 0.26266 0.48418 0.9121 0.0
C1536 C 0.25258 0.47517 0.85514 0.0
C1537 C 0.26316 0.51475 0.79363 0.0
H1538 H 0.23101 0.48345 0.73446 0.0
C1539 C 0.25408 0.53108 0.65105 0.0
C1540 C 0.26192 0.51613 0.63113 0.0
C1541 C 0.24994 0.52798 0.68535 0.0
C1542 C 0.2399 0.49237 0.75085 0.0
H1543 H 0.26763 0.51483 0.91963 0.0
H1544 H 0.2593 0.52398 0.8618 0.0
H1545 H 0.23075 0.47747 0.79559 0.0
H1546 H 0.27034 0.48589 0.63082 0.0
H1547 H 0.26252 0.48035 0.69063 0.0
H1548 H 0.27197 0.52982 0.74871 0.0
C1549 C 0.25869 0.50881 0.86862 0.0
C1550 C 0.23994 0.48887 0.78584 0.0
C1551 C 0.26329 0.50363 0.90193 0.0
C1552 C 0.26441 0.4977 0.64561 0.0
C1553 C 0.25984 0.49449 0.67971 0.0
C1554 C 0.26274 0.51853 0.75886 0.0
C1555 C 0.25394 0.49458 0.84437 0.0
C1556 C 0.25195 0.49971 0.80768 0.0
C1557 C 0.2531 0.50975 0.70004 0.0
C1558 C 0.25145 0.50712 0.73712 0.0
H1559 H 0.25614 0.45495 0.89588 0.0
H1560 H 0.24927 0.46369 0.83739 0.0
H1561 H 0.27297 0.52318 0.80915 0.0
H1562 H 0.25205 0.54545 0.64062 0.0
H1563 H 0.24477 0.53994 0.70065 0.0
C1564 C 0.53373 0.25493 0.88966 0.0
C1565 C 0.51838 0.26171 0.90985 0.0
C1566 C 0.53075 0.2508 0.85528 0.0
C1567 C 0.49495 0.23961 0.78994 0.0
H1568 H 0.52458 0.27375 0.73173 0.0
C1569 C 0.47125 0.25669 0.65277 0.0
C1570 C 0.48509 0.26292 0.6291 0.0
C1571 C 0.47663 0.25271 0.68627 0.0
C1572 C 0.51648 0.26366 0.74721 0.0
H1573 H 0.48768 0.26819 0.91059 0.0
H1574 H 0.4824 0.26038 0.85077 0.0
H1575 H 0.53171 0.27245 0.79198 0.0
H1576 H 0.5156 0.26848 0.62106 0.0
H1577 H 0.52524 0.26039 0.67873 0.0
H1578 H 0.47983 0.23054 0.74535 0.0
C1579 C 0.49673 0.25852 0.86146 0.0
C1580 C 0.52056 0.26304 0.78189 0.0
C1581 C 0.49978 0.26308 0.89559 0.0
C1582 C 0.50458 0.26397 0.63897 0.0
C1583 C 0.51006 0.25949 0.6722 0.0
C1584 C 0.49114 0.23987 0.75505 0.0
C1585 C 0.51229 0.25291 0.84079 0.0
C1586 C 0.50956 0.25135 0.80365 0.0
C1587 C 0.49609 0.2544 0.69669 0.0
C1588 C 0.50153 0.25228 0.73324 0.0
H1589 H 0.54823 0.2538 0.89995 0.0
H1590 H 0.54295 0.24649 0.83977 0.0
H1591 H 0.48633 0.23041 0.8063 0.0
H1592 H 0.45609 0.25585 0.64587 0.0
H1593 H 0.46534 0.24914 0.70423 0.0
C1594 C 0.73701 0.46967 0.65367 0.0
C1595 C 0.73127 0.48378 0.63012 0.0
C1596 C 0.7405 0.47471 0.68747 0.0
C1597 C 0.72903 0.51409 0.74893 0.0
H1598 H 0.76165 0.48348 0.80841 0.0
C1599 C 0.73977 0.53156 0.89095 0.0
C1600 C 0.73196 0.5169 0.91158 0.0
C1601 C 0.7433 0.52813 0.85655 0.0
C1602 C 0.75261 0.49218 0.79193 0.0
H1603 H 0.72602 0.51438 0.62263 0.0
H1604 H 0.73328 0.52345 0.68095 0.0
H1605 H 0.76194 0.47724 0.74736 0.0
H1606 H 0.72286 0.48686 0.91296 0.0
H1607 H 0.72964 0.48074 0.8529 0.0
H1608 H 0.72011 0.52925 0.7937 0.0
C1609 C 0.73417 0.50831 0.67402 0.0
C1610 C 0.7526 0.48854 0.757 0.0
C1611 C 0.73016 0.50318 0.64045 0.0
C1612 C 0.72878 0.49845 0.89761 0.0
C1613 C 0.73274 0.49491 0.86339 0.0
C1614 C 0.72943 0.51801 0.78365 0.0
C1615 C 0.73879 0.49408 0.69832 0.0
C1616 C 0.74048 0.49917 0.73504 0.0
C1617 C 0.73956 0.50986 0.84246 0.0
C1618 C 0.74093 0.50687 0.80547 0.0
H1619 H 0.73788 0.45457 0.64638 0.0
H1620 H 0.74371 0.46323 0.70527 0.0
H1621 H 0.71915 0.52234 0.7333 0.0
H1622 H 0.74232 0.54594 0.90099 0.0
H1623 H 0.74854 0.53985 0.84076 0.0
C1624 C 0.50202 0.25076 0.14003 0.0
C1625 C 0.50532 0.26888 0.12501 0.0
C1626 C 0.4988 0.24932 0.17501 0.0
C1627 C 0.48351 0.27801 0.24918 0.0
H1628 H 0.51055 0.23893 0.30162 0.0
C1629 C 0.46864 0.26729 0.39137 0.0
C1630 C 0.4849 0.26545 0.41246 0.0
C1631 C 0.47058 0.26617 0.35618 0.0
C1632 C 0.50295 0.24994 0.28729 0.0
H1633 H 0.50799 0.29964 0.13433 0.0
H1634 H 0.50213 0.29724 0.19528 0.0
H1635 H 0.51473 0.24014 0.23998 0.0
H1636 H 0.51585 0.26077 0.41371 0.0
H1637 H 0.51936 0.25895 0.35183 0.0
H1638 H 0.47203 0.28809 0.29635 0.0
C1639 C 0.50182 0.28415 0.18016 0.0
C1640 C 0.50518 0.25051 0.25201 0.0
C1641 C 0.50516 0.28554 0.14533 0.0
C1642 C 0.50312 0.26219 0.39784 0.0
C1643 C 0.50507 0.26103 0.36254 0.0
C1644 C 0.4812 0.27738 0.28434 0.0
C1645 C 0.4987 0.26602 0.19544 0.0
C1646 C 0.49561 0.26468 0.23263 0.0
C1647 C 0.48884 0.26326 0.34133 0.0
C1648 C 0.49097 0.26342 0.30383 0.0
H1649 H 0.50208 0.23773 0.12472 0.0
H1650 H 0.49627 0.23519 0.18603 0.0
H1651 H 0.47581 0.28898 0.23491 0.0
H1652 H 0.45446 0.27005 0.40205 0.0
H1653 H 0.45777 0.26775 0.34056 0.0
C1654 C 0.73292 0.4688 0.39248 0.0
C1655 C 0.73282 0.48514 0.41365 0.0
C1656 C 0.73513 0.47082 0.35748 0.0
C1657 C 0.75027 0.50536 0.29046 0.0
H1658 H 0.71737 0.4735 0.23345 0.0
C1659 C 0.73398 0.52279 0.15045 0.0
C1660 C 0.7334 0.5074 0.12722 0.0
C1661 C 0.73624 0.51924 0.18506 0.0
C1662 C 0.72687 0.48229 0.24898 0.0
H1663 H 0.73505 0.51636 0.41514 0.0
H1664 H 0.73838 0.52006 0.35364 0.0
H1665 H 0.71675 0.46916 0.29473 0.0
H1666 H 0.7349 0.47627 0.12164 0.0
H1667 H 0.73864 0.46994 0.18255 0.0
H1668 H 0.75993 0.51886 0.24452 0.0
C1669 C 0.73718 0.50562 0.36413 0.0
C1670 C 0.72654 0.47981 0.28413 0.0
C1671 C 0.7351 0.50356 0.39925 0.0
C1672 C 0.73526 0.48836 0.13916 0.0
C1673 C 0.73737 0.48477 0.17389 0.0
C1674 C 0.75052 0.50792 0.25527 0.0
C1675 C 0.73705 0.48926 0.3428 0.0
C1676 C 0.73811 0.49142 0.30533 0.0
C1677 C 0.73776 0.50019 0.1972 0.0
C1678 C 0.73868 0.49652 0.23422 0.0
H1679 H 0.73087 0.45444 0.40289 0.0
H1680 H 0.7352 0.4579 0.3419 0.0
H1681 H 0.7596 0.51432 0.30599 0.0
H1682 H 0.73213 0.53759 0.14198 0.0
H1683 H 0.73613 0.53139 0.20244 0.0
C1684 C 0.50898 0.71016 0.39502 0.0
C1685 C 0.50755 0.72693 0.4149 0.0
C1686 C 0.50642 0.7111 0.35996 0.0
C1687 C 0.50868 0.74431 0.28732 0.0
H1688 H 0.47778 0.70479 0.24309 0.0
C1689 C 0.50627 0.73298 0.14121 0.0
C1690 C 0.48796 0.72931 0.12724 0.0
C1691 C 0.50866 0.73378 0.17647 0.0
C1692 C 0.48635 0.71601 0.25507 0.0
H1693 H 0.50246 0.75782 0.4142 0.0
H1694 H 0.49797 0.75958 0.35246 0.0
H1695 H 0.48146 0.70429 0.30455 0.0
H1696 H 0.45786 0.72346 0.13867 0.0
H1697 H 0.46192 0.72508 0.20005 0.0
H1698 H 0.51346 0.75606 0.23764 0.0
C1699 C 0.50114 0.74571 0.36401 0.0
C1700 C 0.4886 0.71561 0.29023 0.0
C1701 C 0.5036 0.74472 0.39922 0.0
C1702 C 0.47208 0.72655 0.14889 0.0
C1703 C 0.47445 0.72728 0.18399 0.0
C1704 C 0.50651 0.74465 0.25202 0.0
C1705 C 0.5025 0.72889 0.34405 0.0
C1706 C 0.49981 0.72972 0.30675 0.0
C1707 C 0.49278 0.73074 0.1982 0.0
C1708 C 0.49529 0.7305 0.23557 0.0
H1709 H 0.51235 0.69634 0.4066 0.0
H1710 H 0.50784 0.69795 0.3452 0.0
H1711 H 0.51753 0.75529 0.29936 0.0
H1712 H 0.5187 0.73509 0.12487 0.0
H1713 H 0.52298 0.73631 0.18673 0.0
C1714 C 0.26607 0.50349 0.14275 0.0
C1715 C 0.26788 0.48504 0.12824 0.0
C1716 C 0.26451 0.50556 0.17796 0.0
C1717 C 0.27527 0.47949 0.25784 0.0
H1718 H 0.24236 0.51876 0.29793 0.0
C1719 C 0.26545 0.48733 0.40302 0.0
C1720 C 0.26732 0.50628 0.41539 0.0
C1721 C 0.2639 0.48396 0.3681 0.0
C1722 C 0.25165 0.50777 0.28705 0.0
H1723 H 0.26965 0.45432 0.1389 0.0
H1724 H 0.26621 0.45781 0.20005 0.0
H1725 H 0.24264 0.51448 0.23644 0.0
H1726 H 0.26938 0.53652 0.40121 0.0
H1727 H 0.26632 0.53071 0.34048 0.0
H1728 H 0.28429 0.47282 0.30848 0.0
C1729 C 0.26626 0.47074 0.1845 0.0
C1730 C 0.25188 0.50537 0.25184 0.0
C1731 C 0.26795 0.46871 0.14941 0.0
C1732 C 0.26749 0.52179 0.39239 0.0
C1733 C 0.26577 0.51847 0.35762 0.0
C1734 C 0.27495 0.48181 0.29303 0.0
C1735 C 0.2647 0.48919 0.19927 0.0
C1736 C 0.26384 0.49132 0.23678 0.0
C1737 C 0.26407 0.49952 0.34508 0.0
C1738 C 0.2633 0.49612 0.30797 0.0
H1739 H 0.26599 0.51629 0.12688 0.0
H1740 H 0.26358 0.52 0.18851 0.0
H1741 H 0.2849 0.46875 0.2471 0.0
H1742 H 0.26524 0.47515 0.42034 0.0
H1743 H 0.2625 0.46921 0.35911 0.0
loop_
_geom_bond_atom_site_label_1
_geom_bond_atom_site_label_2
_geom_bond_distance
_geom_bond_site_symmetry_2
_ccdc_geom_bond_type
Co0 O3 1.970 . S
Co0 N17 1.989 . S
Co0 O25 1.967 . S
Co0 O32 1.920 1_455 S
Co1 O4 1.966 . S
Co1 N10 2.022 . S
Co1 N18 1.993 . S
Co1 O26 1.941 . S
C2 O3 1.258 . S
C2 O4 1.263 . S
O3 Co0 1.970 . S
O3 C2 1.258 . S
O4 Co1 1.966 . S
O4 C2 1.263 . S
C5 O6 1.235 . S
C5 O32 1.289 . S
O6 C5 1.235 . S
C7 C9 1.400 . S
C7 N10 1.351 . S
C7 C12 1.501 . S
C8 C9 1.387 . S
C8 N11 1.341 . S
C9 C7 1.400 . S
C9 C8 1.387 . S
N10 Co1 2.022 . S
N10 C7 1.351 . S
N10 N11 1.365 . S
N11 C8 1.341 . S
N11 N10 1.365 . S
N11 H31 0.862 1_554 S
C12 C7 1.501 . S
C12 H13 0.961 . S
C12 H14 0.961 . S
C12 H15 0.960 . S
H13 C12 0.961 . S
H14 C12 0.961 . S
H15 C12 0.960 . S
C16 N17 1.342 1_556 S
C16 C20 1.401 . S
C16 C21 1.499 1_455 S
N17 Co0 1.989 . S
N17 C16 1.342 1_554 S
N17 N18 1.388 . S
N18 Co1 1.993 . S
N18 N17 1.388 . S
N18 C19 1.346 1_554 S
C19 N18 1.346 1_556 S
C19 C20 1.396 . S
C19 C29 1.510 . S
C20 C16 1.401 . S
C20 C19 1.396 . S
C21 C16 1.499 1_655 S
C21 H22 0.959 . S
C21 H23 0.960 . S
C21 H24 0.961 . S
H22 C21 0.959 . S
H23 C21 0.960 . S
H24 C21 0.961 . S
O25 Co0 1.967 . S
O25 C33 1.258 . S
O26 Co1 1.941 . S
O26 C33 1.266 . S
H27 C29 0.959 . S
H28 C29 0.961 . S
C29 C19 1.510 . S
C29 H27 0.959 . S
C29 H28 0.961 . S
C29 H30 0.960 . S
H30 C29 0.960 . S
H31 N11 0.862 1_556 S
O32 Co0 1.920 1_655 S
O32 C5 1.289 . S
C33 O25 1.258 . S
C33 O26 1.266 . S
Co34 O37 1.970 . S
Co34 N51 1.989 . S
Co34 O59 1.967 . S
Co34 O66 1.920 1_545 S
Co35 O38 1.966 . S
Co35 N44 2.022 . S
Co35 N52 1.993 . S
Co35 O60 1.941 . S
C36 O37 1.258 . S
C36 O38 1.263 . S
O37 Co34 1.970 . S
O37 C36 1.258 . S
O38 Co35 1.966 . S
O38 C36 1.263 . S
C39 O40 1.235 . S
C39 O66 1.289 . S
O40 C39 1.235 . S
C41 C43 1.400 . S
C41 N44 1.351 . S
C41 C46 1.501 . S
C42 C43 1.387 . S
C42 N45 1.341 . S
C43 C41 1.400 . S
C43 C42 1.387 . S
N44 Co35 2.022 . S
N44 C41 1.351 . S
N44 N45 1.365 . S
N45 C42 1.341 . S
N45 N44 1.365 . S
N45 H65 0.862 1_554 S
C46 C41 1.501 . S
C46 H47 0.961 . S
C46 H48 0.961 . S
C46 H49 0.960 . S
H47 C46 0.961 . S
H48 C46 0.961 . S
H49 C46 0.960 . S
C50 N51 1.342 1_556 S
C50 C54 1.401 . S
C50 C55 1.499 1_545 S
N51 Co34 1.989 . S
N51 C50 1.342 1_554 S
N51 N52 1.388 . S
N52 Co35 1.993 . S
N52 N51 1.388 . S
N52 C53 1.346 1_554 S
C53 N52 1.346 1_556 S
C53 C54 1.396 . S
C53 C63 1.510 . S
C54 C50 1.401 . S
C54 C53 1.396 . S
C55 C50 1.499 1_565 S
C55 H56 0.959 . S
C55 H57 0.960 . S
C55 H58 0.961 . S
H56 C55 0.959 . S
H57 C55 0.960 . S
H58 C55 0.961 . S
O59 Co34 1.967 . S
O59 C67 1.258 . S
O60 Co35 1.941 . S
O60 C67 1.266 . S
H61 C63 0.959 . S
H62 C63 0.961 . S
C63 C53 1.510 . S
C63 H61 0.959 . S
C63 H62 0.961 . S
C63 H64 0.960 . S
H64 C63 0.960 . S
H65 N45 0.862 1_556 S
O66 Co34 1.920 1_565 S
O66 C39 1.289 . S
C67 O59 1.258 . S
C67 O60 1.266 . S
Co68 O71 1.970 . S
Co68 N85 1.989 . S
Co68 O93 1.967 . S
Co68 O100 1.920 1_655 S
Co69 O72 1.966 . S
Co69 N78 2.022 . S
Co69 N86 1.993 . S
Co69 O94 1.941 . S
C70 O71 1.258 . S
C70 O72 1.263 . S
O71 Co68 1.970 . S
O71 C70 1.258 . S
O72 Co69 1.966 . S
O72 C70 1.263 . S
C73 O74 1.235 . S
C73 O100 1.289 . S
O74 C73 1.235 . S
C75 C77 1.400 . S
C75 N78 1.351 . S
C75 C80 1.501 . S
C76 C77 1.387 . S
C76 N79 1.341 . S
C77 C75 1.400 . S
C77 C76 1.387 . S
N78 Co69 2.022 . S
N78 C75 1.351 . S
N78 N79 1.365 . S
N79 C76 1.341 . S
N79 N78 1.365 . S
N79 H99 0.862 1_554 S
C80 C75 1.501 . S
C80 H81 0.961 . S
C80 H82 0.961 . S
C80 H83 0.960 . S
H81 C80 0.961 . S
H82 C80 0.961 . S
H83 C80 0.960 . S
C84 N85 1.342 1_556 S
C84 C88 1.401 . S
C84 C89 1.499 1_655 S
N85 Co68 1.989 . S
N85 C84 1.342 1_554 S
N85 N86 1.388 . S
N86 Co69 1.993 . S
N86 N85 1.388 . S
N86 C87 1.346 1_554 S
C87 N86 1.346 1_556 S
C87 C88 1.396 . S
C87 C97 1.510 . S
C88 C84 1.401 . S
C88 C87 1.396 . S
C89 C84 1.499 1_455 S
C89 H90 0.959 . S
C89 H91 0.960 . S
C89 H92 0.961 . S
H90 C89 0.959 . S
H91 C89 0.960 . S
H92 C89 0.961 . S
O93 Co68 1.967 . S
O93 C101 1.258 . S
O94 Co69 1.941 . S
O94 C101 1.266 . S
H95 C97 0.959 . S
H96 C97 0.961 . S
C97 C87 1.510 . S
C97 H95 0.959 . S
C97 H96 0.961 . S
C97 H98 0.960 . S
H98 C97 0.960 . S
H99 N79 0.862 1_556 S
O100 Co68 1.920 1_455 S
O100 C73 1.289 . S
C101 O93 1.258 . S
C101 O94 1.266 . S
Co102 O105 1.970 . S
Co102 N119 1.989 . S
Co102 O127 1.967 . S
Co102 O134 1.920 1_565 S
Co103 O106 1.966 . S
Co103 N112 2.022 . S
Co103 N120 1.993 . S
Co103 O128 1.941 . S
C104 O105 1.258 . S
C104 O106 1.263 . S
O105 Co102 1.970 . S
O105 C104 1.258 . S
O106 Co103 1.966 . S
O106 C104 1.263 . S
C107 O108 1.235 . S
C107 O134 1.289 . S
O108 C107 1.235 . S
C109 C111 1.400 . S
C109 N112 1.351 . S
C109 C114 1.501 . S
C110 C111 1.387 . S
C110 N113 1.341 . S
C111 C109 1.400 . S
C111 C110 1.387 . S
N112 Co103 2.022 . S
N112 C109 1.351 . S
N112 N113 1.365 . S
N113 C110 1.341 . S
N113 N112 1.365 . S
N113 H133 0.862 1_554 S
C114 C109 1.501 . S
C114 H115 0.961 . S
C114 H116 0.961 . S
C114 H117 0.960 . S
H115 C114 0.961 . S
H116 C114 0.961 . S
H117 C114 0.960 . S
C118 N119 1.342 1_556 S
C118 C122 1.401 . S
C118 C123 1.499 1_565 S
N119 Co102 1.989 . S
N119 C118 1.342 1_554 S
N119 N120 1.388 . S
N120 Co103 1.993 . S
N120 N119 1.388 . S
N120 C121 1.346 1_554 S
C121 N120 1.346 1_556 S
C121 C122 1.396 . S
C121 C131 1.510 . S
C122 C118 1.401 . S
C122 C121 1.396 . S
C123 C118 1.499 1_545 S
C123 H124 0.959 . S
C123 H125 0.960 . S
C123 H126 0.961 . S
H124 C123 0.959 . S
H125 C123 0.960 . S
H126 C123 0.961 . S
O127 Co102 1.967 . S
O127 C135 1.258 . S
O128 Co103 1.941 . S
O128 C135 1.266 . S
H129 C131 0.959 . S
H130 C131 0.961 . S
C131 C121 1.510 . S
C131 H129 0.959 . S
C131 H130 0.961 . S
C131 H132 0.960 . S
H132 C131 0.960 . S
H133 N113 0.862 1_556 S
O134 Co102 1.920 1_545 S
O134 C107 1.289 . S
C135 O127 1.258 . S
C135 O128 1.266 . S
Co136 O139 1.970 . S
Co136 N153 1.989 . S
Co136 O161 1.967 . S
Co136 O168 1.920 1_455 S
Co137 O140 1.966 . S
Co137 N146 2.022 . S
Co137 N154 1.993 . S
Co137 O162 1.941 . S
C138 O139 1.258 . S
C138 O140 1.263 . S
O139 Co136 1.970 . S
O139 C138 1.258 . S
O140 Co137 1.966 . S
O140 C138 1.263 . S
C141 O142 1.235 . S
C141 O168 1.289 . S
O142 C141 1.235 . S
C143 C145 1.400 . S
C143 N146 1.351 . S
C143 C148 1.501 . S
C144 C145 1.387 . S
C144 N147 1.341 . S
C145 C143 1.400 . S
C145 C144 1.387 . S
N146 Co137 2.022 . S
N146 C143 1.351 . S
N146 N147 1.365 . S
N147 C144 1.341 . S
N147 N146 1.365 . S
N147 H167 0.862 . S
C148 C143 1.501 . S
C148 H149 0.961 . S
C148 H150 0.961 . S
C148 H151 0.960 . S
H149 C148 0.961 . S
H150 C148 0.961 . S
H151 C148 0.960 . S
C152 N153 1.342 . S
C152 C156 1.401 . S
C152 C157 1.499 1_455 S
N153 Co136 1.989 . S
N153 C152 1.342 . S
N153 N154 1.388 . S
N154 Co137 1.993 . S
N154 N153 1.388 . S
N154 C155 1.346 . S
C155 N154 1.346 . S
C155 C156 1.396 . S
C155 C165 1.510 . S
C156 C152 1.401 . S
C156 C155 1.396 . S
C157 C152 1.499 1_655 S
C157 H158 0.959 . S
C157 H159 0.960 . S
C157 H160 0.961 . S
H158 C157 0.959 . S
H159 C157 0.960 . S
H160 C157 0.961 . S
O161 Co136 1.967 . S
O161 C169 1.258 . S
O162 Co137 1.941 . S
O162 C169 1.266 . S
H163 C165 0.959 . S
H164 C165 0.961 . S
C165 C155 1.510 . S
C165 H163 0.959 . S
C165 H164 0.961 . S
C165 H166 0.960 . S
H166 C165 0.960 . S
H167 N147 0.862 . S
O168 Co136 1.920 1_655 S
O168 C141 1.289 . S
C169 O161 1.258 . S
C169 O162 1.266 . S
Co170 O173 1.970 . S
Co170 N187 1.989 . S
Co170 O195 1.967 . S
Co170 O202 1.920 1_545 S
Co171 O174 1.966 . S
Co171 N180 2.022 . S
Co171 N188 1.993 . S
Co171 O196 1.941 . S
C172 O173 1.258 . S
C172 O174 1.263 . S
O173 Co170 1.970 . S
O173 C172 1.258 . S
O174 Co171 1.966 . S
O174 C172 1.263 . S
C175 O176 1.235 . S
C175 O202 1.289 . S
O176 C175 1.235 . S
C177 C179 1.400 . S
C177 N180 1.351 . S
C177 C182 1.501 . S
C178 C179 1.387 . S
C178 N181 1.341 . S
C179 C177 1.400 . S
C179 C178 1.387 . S
N180 Co171 2.022 . S
N180 C177 1.351 . S
N180 N181 1.365 . S
N181 C178 1.341 . S
N181 N180 1.365 . S
N181 H201 0.862 . S
C182 C177 1.501 . S
C182 H183 0.961 . S
C182 H184 0.961 . S
C182 H185 0.960 . S
H183 C182 0.961 . S
H184 C182 0.961 . S
H185 C182 0.960 . S
C186 N187 1.342 . S
C186 C190 1.401 . S
C186 C191 1.499 1_545 S
N187 Co170 1.989 . S
N187 C186 1.342 . S
N187 N188 1.388 . S
N188 Co171 1.993 . S
N188 N187 1.388 . S
N188 C189 1.346 . S
C189 N188 1.346 . S
C189 C190 1.396 . S
C189 C199 1.510 . S
C190 C186 1.401 . S
C190 C189 1.396 . S
C191 C186 1.499 1_565 S
C191 H192 0.959 . S
C191 H193 0.960 . S
C191 H194 0.961 . S
H192 C191 0.959 . S
H193 C191 0.960 . S
H194 C191 0.961 . S
O195 Co170 1.967 . S
O195 C203 1.258 . S
O196 Co171 1.941 . S
O196 C203 1.266 . S
H197 C199 0.959 . S
H198 C199 0.961 . S
C199 C189 1.510 . S
C199 H197 0.959 . S
C199 H198 0.961 . S
C199 H200 0.960 . S
H200 C199 0.960 . S
H201 N181 0.862 . S
O202 Co170 1.920 1_565 S
O202 C175 1.289 . S
C203 O195 1.258 . S
C203 O196 1.266 . S
Co204 O207 1.970 . S
Co204 N221 1.989 . S
Co204 O229 1.967 . S
Co204 O236 1.920 1_655 S
Co205 O208 1.966 . S
Co205 N214 2.022 . S
Co205 N222 1.993 . S
Co205 O230 1.941 . S
C206 O207 1.258 . S
C206 O208 1.263 . S
O207 Co204 1.970 . S
O207 C206 1.258 . S
O208 Co205 1.966 . S
O208 C206 1.263 . S
C209 O210 1.235 . S
C209 O236 1.289 . S
O210 C209 1.235 . S
C211 C213 1.400 . S
C211 N214 1.351 . S
C211 C216 1.501 . S
C212 C213 1.387 . S
C212 N215 1.341 . S
C213 C211 1.400 . S
C213 C212 1.387 . S
N214 Co205 2.022 . S
N214 C211 1.351 . S
N214 N215 1.365 . S
N215 C212 1.341 . S
N215 N214 1.365 . S
N215 H235 0.862 . S
C216 C211 1.501 . S
C216 H217 0.961 . S
C216 H218 0.961 . S
C216 H219 0.960 . S
H217 C216 0.961 . S
H218 C216 0.961 . S
H219 C216 0.960 . S
C220 N221 1.342 . S
C220 C224 1.401 . S
C220 C225 1.499 1_655 S
N221 Co204 1.989 . S
N221 C220 1.342 . S
N221 N222 1.388 . S
N222 Co205 1.993 . S
N222 N221 1.388 . S
N222 C223 1.346 . S
C223 N222 1.346 . S
C223 C224 1.396 . S
C223 C233 1.510 . S
C224 C220 1.401 . S
C224 C223 1.396 . S
C225 C220 1.499 1_455 S
C225 H226 0.959 . S
C225 H227 0.960 . S
C225 H228 0.961 . S
H226 C225 0.959 . S
H227 C225 0.960 . S
H228 C225 0.961 . S
O229 Co204 1.967 . S
O229 C237 1.258 . S
O230 Co205 1.941 . S
O230 C237 1.266 . S
H231 C233 0.959 . S
H232 C233 0.961 . S
C233 C223 1.510 . S
C233 H231 0.959 . S
C233 H232 0.961 . S
C233 H234 0.960 . S
H234 C233 0.960 . S
H235 N215 0.862 . S
O236 Co204 1.920 1_455 S
O236 C209 1.289 . S
C237 O229 1.258 . S
C237 O230 1.266 . S
Co238 O241 1.970 . S
Co238 N255 1.989 . S
Co238 O263 1.967 . S
Co238 O270 1.920 1_565 S
Co239 O242 1.966 . S
Co239 N248 2.022 . S
Co239 N256 1.993 . S
Co239 O264 1.941 . S
C240 O241 1.258 . S
C240 O242 1.263 . S
O241 Co238 1.970 . S
O241 C240 1.258 . S
O242 Co239 1.966 . S
O242 C240 1.263 . S
C243 O244 1.235 . S
C243 O270 1.289 . S
O244 C243 1.235 . S
C245 C247 1.400 . S
C245 N248 1.351 . S
C245 C250 1.501 . S
C246 C247 1.387 . S
C246 N249 1.341 . S
C247 C245 1.400 . S
C247 C246 1.387 . S
N248 Co239 2.022 . S
N248 C245 1.351 . S
N248 N249 1.365 . S
N249 C246 1.341 . S
N249 N248 1.365 . S
N249 H269 0.862 . S
C250 C245 1.501 . S
C250 H251 0.961 . S
C250 H252 0.961 . S
C250 H253 0.960 . S
H251 C250 0.961 . S
H252 C250 0.961 . S
H253 C250 0.960 . S
C254 N255 1.342 . S
C254 C258 1.401 . S
C254 C259 1.499 1_565 S
N255 Co238 1.989 . S
N255 C254 1.342 . S
N255 N256 1.388 . S
N256 Co239 1.993 . S
N256 N255 1.388 . S
N256 C257 1.346 . S
C257 N256 1.346 . S
C257 C258 1.396 . S
C257 C267 1.510 . S
C258 C254 1.401 . S
C258 C257 1.396 . S
C259 C254 1.499 1_545 S
C259 H260 0.959 . S
C259 H261 0.960 . S
C259 H262 0.961 . S
H260 C259 0.959 . S
H261 C259 0.960 . S
H262 C259 0.961 . S
O263 Co238 1.967 . S
O263 C271 1.258 . S
O264 Co239 1.941 . S
O264 C271 1.266 . S
H265 C267 0.959 . S
H266 C267 0.961 . S
C267 C257 1.510 . S
C267 H265 0.959 . S
C267 H266 0.961 . S
C267 H268 0.960 . S
H268 C267 0.960 . S
H269 N249 0.862 . S
O270 Co238 1.920 1_545 S
O270 C243 1.289 . S
C271 O263 1.258 . S
C271 O264 1.266 . S
Co272 O275 1.970 . S
Co272 N289 1.989 . S
Co272 O297 1.967 . S
Co272 O304 1.920 . S
Co273 O276 1.966 . S
Co273 N282 2.022 . S
Co273 N290 1.993 . S
Co273 O298 1.941 . S
C274 O275 1.258 . S
C274 O276 1.263 . S
O275 Co272 1.970 . S
O275 C274 1.258 . S
O276 Co273 1.966 . S
O276 C274 1.263 . S
C277 O278 1.235 . S
C277 O304 1.289 . S
O278 C277 1.235 . S
C279 C281 1.400 . S
C279 N282 1.351 . S
C279 C284 1.501 . S
C280 C281 1.387 . S
C280 N283 1.341 . S
C281 C279 1.400 . S
C281 C280 1.387 . S
N282 Co273 2.022 . S
N282 C279 1.351 . S
N282 N283 1.365 . S
N283 C280 1.341 . S
N283 N282 1.365 . S
N283 H303 0.862 . S
C284 C279 1.501 . S
C284 H285 0.961 . S
C284 H286 0.961 . S
C284 H287 0.960 . S
H285 C284 0.961 . S
H286 C284 0.961 . S
H287 C284 0.960 . S
C288 N289 1.342 . S
C288 C292 1.401 . S
C288 C293 1.499 . S
N289 Co272 1.989 . S
N289 C288 1.342 . S
N289 N290 1.388 . S
N290 Co273 1.993 . S
N290 N289 1.388 . S
N290 C291 1.346 . S
C291 N290 1.346 . S
C291 C292 1.396 . S
C291 C301 1.510 . S
C292 C288 1.401 . S
C292 C291 1.396 . S
C293 C288 1.499 . S
C293 H294 0.959 . S
C293 H295 0.960 . S
C293 H296 0.961 . S
H294 C293 0.959 . S
H295 C293 0.960 . S
H296 C293 0.961 . S
O297 Co272 1.967 . S
O297 C305 1.258 . S
O298 Co273 1.941 . S
O298 C305 1.266 . S
H299 C301 0.959 . S
H300 C301 0.961 . S
C301 C291 1.510 . S
C301 H299 0.959 . S
C301 H300 0.961 . S
C301 H302 0.960 . S
H302 C301 0.960 . S
H303 N283 0.862 . S
O304 Co272 1.920 . S
O304 C277 1.289 . S
C305 O297 1.258 . S
C305 O298 1.266 . S
Co306 O309 1.970 . S
Co306 N323 1.989 . S
Co306 O331 1.967 . S
Co306 O338 1.920 . S
Co307 O310 1.966 . S
Co307 N316 2.022 . S
Co307 N324 1.993 . S
Co307 O332 1.941 . S
C308 O309 1.258 . S
C308 O310 1.263 . S
O309 Co306 1.970 . S
O309 C308 1.258 . S
O310 Co307 1.966 . S
O310 C308 1.263 . S
C311 O312 1.235 . S
C311 O338 1.289 . S
O312 C311 1.235 . S
C313 C315 1.400 . S
C313 N316 1.351 . S
C313 C318 1.501 . S
C314 C315 1.387 . S
C314 N317 1.341 . S
C315 C313 1.400 . S
C315 C314 1.387 . S
N316 Co307 2.022 . S
N316 C313 1.351 . S
N316 N317 1.365 . S
N317 C314 1.341 . S
N317 N316 1.365 . S
N317 H337 0.862 . S
C318 C313 1.501 . S
C318 H319 0.961 . S
C318 H320 0.961 . S
C318 H321 0.960 . S
H319 C318 0.961 . S
H320 C318 0.961 . S
H321 C318 0.960 . S
C322 N323 1.342 . S
C322 C326 1.401 . S
C322 C327 1.499 . S
N323 Co306 1.989 . S
N323 C322 1.342 . S
N323 N324 1.388 . S
N324 Co307 1.993 . S
N324 N323 1.388 . S
N324 C325 1.346 . S
C325 N324 1.346 . S
C325 C326 1.396 . S
C325 C335 1.510 . S
C326 C322 1.401 . S
C326 C325 1.396 . S
C327 C322 1.499 . S
C327 H328 0.959 . S
C327 H329 0.960 . S
C327 H330 0.961 . S
H328 C327 0.959 . S
H329 C327 0.960 . S
H330 C327 0.961 . S
O331 Co306 1.967 . S
O331 C339 1.258 . S
O332 Co307 1.941 . S
O332 C339 1.266 . S
H333 C335 0.959 . S
H334 C335 0.961 . S
C335 C325 1.510 . S
C335 H333 0.959 . S
C335 H334 0.961 . S
C335 H336 0.960 . S
H336 C335 0.960 . S
H337 N317 0.862 . S
O338 Co306 1.920 . S
O338 C311 1.289 . S
C339 O331 1.258 . S
C339 O332 1.266 . S
Co340 O343 1.970 . S
Co340 N357 1.989 . S
Co340 O365 1.967 . S
Co340 O372 1.920 . S
Co341 O344 1.966 . S
Co341 N350 2.022 . S
Co341 N358 1.993 . S
Co341 O366 1.941 . S
C342 O343 1.258 . S
C342 O344 1.263 . S
O343 Co340 1.970 . S
O343 C342 1.258 . S
O344 Co341 1.966 . S
O344 C342 1.263 . S
C345 O346 1.235 . S
C345 O372 1.289 . S
O346 C345 1.235 . S
C347 C349 1.400 . S
C347 N350 1.351 . S
C347 C352 1.501 . S
C348 C349 1.387 . S
C348 N351 1.341 . S
C349 C347 1.400 . S
C349 C348 1.387 . S
N350 Co341 2.022 . S
N350 C347 1.351 . S
N350 N351 1.365 . S
N351 C348 1.341 . S
N351 N350 1.365 . S
N351 H371 0.862 . S
C352 C347 1.501 . S
C352 H353 0.961 . S
C352 H354 0.961 . S
C352 H355 0.960 . S
H353 C352 0.961 . S
H354 C352 0.961 . S
H355 C352 0.960 . S
C356 N357 1.342 . S
C356 C360 1.401 . S
C356 C361 1.499 . S
N357 Co340 1.989 . S
N357 C356 1.342 . S
N357 N358 1.388 . S
N358 Co341 1.993 . S
N358 N357 1.388 . S
N358 C359 1.346 . S
C359 N358 1.346 . S
C359 C360 1.396 . S
C359 C369 1.510 . S
C360 C356 1.401 . S
C360 C359 1.396 . S
C361 C356 1.499 . S
C361 H362 0.959 . S
C361 H363 0.960 . S
C361 H364 0.961 . S
H362 C361 0.959 . S
H363 C361 0.960 . S
H364 C361 0.961 . S
O365 Co340 1.967 . S
O365 C373 1.258 . S
O366 Co341 1.941 . S
O366 C373 1.266 . S
H367 C369 0.959 . S
H368 C369 0.961 . S
C369 C359 1.510 . S
C369 H367 0.959 . S
C369 H368 0.961 . S
C369 H370 0.960 . S
H370 C369 0.960 . S
H371 N351 0.862 . S
O372 Co340 1.920 . S
O372 C345 1.289 . S
C373 O365 1.258 . S
C373 O366 1.266 . S
Co374 O377 1.970 . S
Co374 N391 1.989 . S
Co374 O399 1.967 . S
Co374 O406 1.920 . S
Co375 O378 1.966 . S
Co375 N384 2.022 . S
Co375 N392 1.993 . S
Co375 O400 1.941 . S
C376 O377 1.258 . S
C376 O378 1.263 . S
O377 Co374 1.970 . S
O377 C376 1.258 . S
O378 Co375 1.966 . S
O378 C376 1.263 . S
C379 O380 1.235 . S
C379 O406 1.289 . S
O380 C379 1.235 . S
C381 C383 1.400 . S
C381 N384 1.351 . S
C381 C386 1.501 . S
C382 C383 1.387 . S
C382 N385 1.341 . S
C383 C381 1.400 . S
C383 C382 1.387 . S
N384 Co375 2.022 . S
N384 C381 1.351 . S
N384 N385 1.365 . S
N385 C382 1.341 . S
N385 N384 1.365 . S
N385 H405 0.862 . S
C386 C381 1.501 . S
C386 H387 0.961 . S
C386 H388 0.961 . S
C386 H389 0.960 . S
H387 C386 0.961 . S
H388 C386 0.961 . S
H389 C386 0.960 . S
C390 N391 1.342 . S
C390 C394 1.401 . S
C390 C395 1.499 . S
N391 Co374 1.989 . S
N391 C390 1.342 . S
N391 N392 1.388 . S
N392 Co375 1.993 . S
N392 N391 1.388 . S
N392 C393 1.346 . S
C393 N392 1.346 . S
C393 C394 1.396 . S
C393 C403 1.510 . S
C394 C390 1.401 . S
C394 C393 1.396 . S
C395 C390 1.499 . S
C395 H396 0.959 . S
C395 H397 0.960 . S
C395 H398 0.961 . S
H396 C395 0.959 . S
H397 C395 0.960 . S
H398 C395 0.961 . S
O399 Co374 1.967 . S
O399 C407 1.258 . S
O400 Co375 1.941 . S
O400 C407 1.266 . S
H401 C403 0.959 . S
H402 C403 0.961 . S
C403 C393 1.510 . S
C403 H401 0.959 . S
C403 H402 0.961 . S
C403 H404 0.960 . S
H404 C403 0.960 . S
H405 N385 0.862 . S
O406 Co374 1.920 . S
O406 C379 1.289 . S
C407 O399 1.258 . S
C407 O400 1.266 . S
Co408 O411 1.970 1_554 S
Co408 N425 1.989 . S
Co408 O433 1.967 1_554 S
Co408 O440 1.920 . S
Co409 O412 1.966 1_554 S
Co409 N418 2.022 . S
Co409 N426 1.993 . S
Co409 O434 1.941 . S
C410 O411 1.258 . S
C410 O412 1.263 . S
O411 Co408 1.970 1_556 S
O411 C410 1.258 . S
O412 Co409 1.966 1_556 S
O412 C410 1.263 . S
C413 O414 1.235 . S
C413 O440 1.289 . S
O414 C413 1.235 . S
C415 C417 1.400 1_556 S
C415 N418 1.351 1_556 S
C415 C420 1.501 . S
C416 C417 1.387 . S
C416 N419 1.341 . S
C417 C415 1.400 1_554 S
C417 C416 1.387 . S
N418 Co409 2.022 . S
N418 C415 1.351 1_554 S
N418 N419 1.365 . S
N419 C416 1.341 . S
N419 N418 1.365 . S
N419 H439 0.862 . S
C420 C415 1.501 . S
C420 H421 0.961 . S
C420 H422 0.961 . S
C420 H423 0.960 . S
H421 C420 0.961 . S
H422 C420 0.961 . S
H423 C420 0.960 . S
C424 N425 1.342 . S
C424 C428 1.401 . S
C424 C429 1.499 . S
N425 Co408 1.989 . S
N425 C424 1.342 . S
N425 N426 1.388 . S
N426 Co409 1.993 . S
N426 N425 1.388 . S
N426 C427 1.346 . S
C427 N426 1.346 . S
C427 C428 1.396 . S
C427 C437 1.510 . S
C428 C424 1.401 . S
C428 C427 1.396 . S
C429 C424 1.499 . S
C429 H430 0.959 . S
C429 H431 0.960 . S
C429 H432 0.961 . S
H430 C429 0.959 . S
H431 C429 0.960 . S
H432 C429 0.961 . S
O433 Co408 1.967 1_556 S
O433 C441 1.258 . S
O434 Co409 1.941 . S
O434 C441 1.266 1_554 S
H435 C437 0.959 . S
H436 C437 0.961 . S
C437 C427 1.510 . S
C437 H435 0.959 . S
C437 H436 0.961 . S
C437 H438 0.960 . S
H438 C437 0.960 . S
H439 N419 0.862 . S
O440 Co408 1.920 . S
O440 C413 1.289 . S
C441 O433 1.258 . S
C441 O434 1.266 1_556 S
Co442 O445 1.970 1_554 S
Co442 N459 1.989 . S
Co442 O467 1.967 1_554 S
Co442 O474 1.920 . S
Co443 O446 1.966 1_554 S
Co443 N452 2.022 . S
Co443 N460 1.993 . S
Co443 O468 1.941 . S
C444 O445 1.258 . S
C444 O446 1.263 . S
O445 Co442 1.970 1_556 S
O445 C444 1.258 . S
O446 Co443 1.966 1_556 S
O446 C444 1.263 . S
C447 O448 1.235 . S
C447 O474 1.289 . S
O448 C447 1.235 . S
C449 C451 1.400 1_556 S
C449 N452 1.351 1_556 S
C449 C454 1.501 . S
C450 C451 1.387 . S
C450 N453 1.341 . S
C451 C449 1.400 1_554 S
C451 C450 1.387 . S
N452 Co443 2.022 . S
N452 C449 1.351 1_554 S
N452 N453 1.365 . S
N453 C450 1.341 . S
N453 N452 1.365 . S
N453 H473 0.862 . S
C454 C449 1.501 . S
C454 H455 0.961 . S
C454 H456 0.961 . S
C454 H457 0.960 . S
H455 C454 0.961 . S
H456 C454 0.961 . S
H457 C454 0.960 . S
C458 N459 1.342 . S
C458 C462 1.401 . S
C458 C463 1.499 . S
N459 Co442 1.989 . S
N459 C458 1.342 . S
N459 N460 1.388 . S
N460 Co443 1.993 . S
N460 N459 1.388 . S
N460 C461 1.346 . S
C461 N460 1.346 . S
C461 C462 1.396 . S
C461 C471 1.510 . S
C462 C458 1.401 . S
C462 C461 1.396 . S
C463 C458 1.499 . S
C463 H464 0.959 . S
C463 H465 0.960 . S
C463 H466 0.961 . S
H464 C463 0.959 . S
H465 C463 0.960 . S
H466 C463 0.961 . S
O467 Co442 1.967 1_556 S
O467 C475 1.258 . S
O468 Co443 1.941 . S
O468 C475 1.266 1_554 S
H469 C471 0.959 . S
H470 C471 0.961 . S
C471 C461 1.510 . S
C471 H469 0.959 . S
C471 H470 0.961 . S
C471 H472 0.960 . S
H472 C471 0.960 . S
H473 N453 0.862 . S
O474 Co442 1.920 . S
O474 C447 1.289 . S
C475 O467 1.258 . S
C475 O468 1.266 1_556 S
Co476 O479 1.970 1_554 S
Co476 N493 1.989 . S
Co476 O501 1.967 1_554 S
Co476 O508 1.920 . S
Co477 O480 1.966 1_554 S
Co477 N486 2.022 . S
Co477 N494 1.993 . S
Co477 O502 1.941 . S
C478 O479 1.258 . S
C478 O480 1.263 . S
O479 Co476 1.970 1_556 S
O479 C478 1.258 . S
O480 Co477 1.966 1_556 S
O480 C478 1.263 . S
C481 O482 1.235 . S
C481 O508 1.289 . S
O482 C481 1.235 . S
C483 C485 1.400 1_556 S
C483 N486 1.351 1_556 S
C483 C488 1.501 . S
C484 C485 1.387 . S
C484 N487 1.341 . S
C485 C483 1.400 1_554 S
C485 C484 1.387 . S
N486 Co477 2.022 . S
N486 C483 1.351 1_554 S
N486 N487 1.365 . S
N487 C484 1.341 . S
N487 N486 1.365 . S
N487 H507 0.862 . S
C488 C483 1.501 . S
C488 H489 0.961 . S
C488 H490 0.961 . S
C488 H491 0.960 . S
H489 C488 0.961 . S
H490 C488 0.961 . S
H491 C488 0.960 . S
C492 N493 1.342 . S
C492 C496 1.401 . S
C492 C497 1.499 . S
N493 Co476 1.989 . S
N493 C492 1.342 . S
N493 N494 1.388 . S
N494 Co477 1.993 . S
N494 N493 1.388 . S
N494 C495 1.346 . S
C495 N494 1.346 . S
C495 C496 1.396 . S
C495 C505 1.510 . S
C496 C492 1.401 . S
C496 C495 1.396 . S
C497 C492 1.499 . S
C497 H498 0.959 . S
C497 H499 0.960 . S
C497 H500 0.961 . S
H498 C497 0.959 . S
H499 C497 0.960 . S
H500 C497 0.961 . S
O501 Co476 1.967 1_556 S
O501 C509 1.258 . S
O502 Co477 1.941 . S
O502 C509 1.266 1_554 S
H503 C505 0.959 . S
H504 C505 0.961 . S
C505 C495 1.510 . S
C505 H503 0.959 . S
C505 H504 0.961 . S
C505 H506 0.960 . S
H506 C505 0.960 . S
H507 N487 0.862 . S
O508 Co476 1.920 . S
O508 C481 1.289 . S
C509 O501 1.258 . S
C509 O502 1.266 1_556 S
Co510 O513 1.970 1_554 S
Co510 N527 1.989 . S
Co510 O535 1.967 1_554 S
Co510 O542 1.920 . S
Co511 O514 1.966 1_554 S
Co511 N520 2.022 . S
Co511 N528 1.993 . S
Co511 O536 1.941 . S
C512 O513 1.258 . S
C512 O514 1.263 . S
O513 Co510 1.970 1_556 S
O513 C512 1.258 . S
O514 Co511 1.966 1_556 S
O514 C512 1.263 . S
C515 O516 1.235 . S
C515 O542 1.289 . S
O516 C515 1.235 . S
C517 C519 1.400 1_556 S
C517 N520 1.351 1_556 S
C517 C522 1.501 . S
C518 C519 1.387 . S
C518 N521 1.341 . S
C519 C517 1.400 1_554 S
C519 C518 1.387 . S
N520 Co511 2.022 . S
N520 C517 1.351 1_554 S
N520 N521 1.365 . S
N521 C518 1.341 . S
N521 N520 1.365 . S
N521 H541 0.862 . S
C522 C517 1.501 . S
C522 H523 0.961 . S
C522 H524 0.961 . S
C522 H525 0.960 . S
H523 C522 0.961 . S
H524 C522 0.961 . S
H525 C522 0.960 . S
C526 N527 1.342 . S
C526 C530 1.401 . S
C526 C531 1.499 . S
N527 Co510 1.989 . S
N527 C526 1.342 . S
N527 N528 1.388 . S
N528 Co511 1.993 . S
N528 N527 1.388 . S
N528 C529 1.346 . S
C529 N528 1.346 . S
C529 C530 1.396 . S
C529 C539 1.510 . S
C530 C526 1.401 . S
C530 C529 1.396 . S
C531 C526 1.499 . S
C531 H532 0.959 . S
C531 H533 0.960 . S
C531 H534 0.961 . S
H532 C531 0.959 . S
H533 C531 0.960 . S
H534 C531 0.961 . S
O535 Co510 1.967 1_556 S
O535 C543 1.258 . S
O536 Co511 1.941 . S
O536 C543 1.266 1_554 S
H537 C539 0.959 . S
H538 C539 0.961 . S
C539 C529 1.510 . S
C539 H537 0.959 . S
C539 H538 0.961 . S
C539 H540 0.960 . S
H540 C539 0.960 . S
H541 N521 0.862 . S
O542 Co510 1.920 . S
O542 C515 1.289 . S
C543 O535 1.258 . S
C543 O536 1.266 1_556 S
C544 C545 1.349 . S
C544 C546 1.327 . S
C544 H569 0.950 1_554 S
C545 C544 1.349 . S
C545 C561 1.349 . S
C546 C544 1.327 . S
C546 C565 1.429 . S
C546 H570 0.950 1_554 S
C547 C564 1.574 . S
C547 C566 1.368 . S
C547 H571 0.949 . S
H548 C552 0.949 . S
C549 C550 1.349 . S
C549 C551 1.327 . S
C549 H572 0.950 . S
C550 C549 1.349 . S
C550 C562 1.349 1_554 S
C551 C549 1.327 . S
C551 C567 1.429 . S
C551 H573 0.950 . S
C552 H548 0.949 . S
C552 C560 1.574 . S
C552 C568 1.368 1_556 S
H553 C561 0.950 . S
H554 C559 0.950 . S
H555 C560 0.949 . S
H556 C562 0.950 . S
H557 C563 0.950 . S
H558 C564 0.949 . S
C559 H554 0.950 . S
C559 C561 1.327 . S
C559 C565 1.429 . S
C560 C552 1.574 . S
C560 H555 0.949 . S
C560 C566 1.368 1_556 S
C561 C545 1.349 . S
C561 H553 0.950 . S
C561 C559 1.327 . S
C562 C550 1.349 1_556 S
C562 H556 0.950 . S
C562 C563 1.327 . S
C563 H557 0.950 . S
C563 C562 1.327 . S
C563 C567 1.429 1_556 S
C564 C547 1.574 . S
C564 H558 0.949 . S
C564 C568 1.368 . S
C565 C546 1.429 . S
C565 C559 1.429 . S
C565 C566 1.523 . S
C566 C547 1.368 . S
C566 C560 1.368 1_554 S
C566 C565 1.523 . S
C567 C551 1.429 . S
C567 C563 1.429 1_554 S
C567 C568 1.523 . S
C568 C552 1.368 1_554 S
C568 C564 1.368 . S
C568 C567 1.523 . S
H569 C544 0.950 1_556 S
H570 C546 0.950 1_556 S
H571 C547 0.949 . S
H572 C549 0.950 . S
H573 C551 0.950 . S
C574 C575 1.349 . S
C574 C576 1.327 . S
C574 H599 0.950 . S
C575 C574 1.349 . S
C575 C591 1.349 . S
C576 C574 1.327 . S
C576 C595 1.429 . S
C576 H600 0.950 . S
C577 C594 1.572 1_554 S
C577 C596 1.368 . S
C577 H601 0.949 1_554 S
H578 C582 0.949 . S
C579 C580 1.349 1_556 S
C579 C581 1.327 . S
C579 H602 0.950 . S
C580 C579 1.349 1_554 S
C580 C592 1.349 . S
C581 C579 1.327 . S
C581 C597 1.429 1_556 S
C581 H603 0.950 . S
C582 H578 0.949 . S
C582 C590 1.574 . S
C582 C598 1.368 . S
H583 C591 0.950 1_556 S
H584 C589 0.950 1_556 S
H585 C590 0.949 . S
H586 C592 0.950 . S
H587 C593 0.950 . S
H588 C594 0.966 . S
C589 H584 0.950 1_554 S
C589 C591 1.327 . S
C589 C595 1.429 . S
C590 C582 1.574 . S
C590 H585 0.949 . S
C590 C596 1.368 . S
C591 C575 1.349 . S
C591 H583 0.950 1_554 S
C591 C589 1.327 . S
C592 C580 1.349 . S
C592 H586 0.950 . S
C592 C593 1.327 . S
C593 H587 0.950 . S
C593 C592 1.327 . S
C593 C597 1.429 . S
C594 C577 1.572 1_556 S
C594 H588 0.966 . S
C594 C598 1.352 1_556 S
C595 C576 1.429 . S
C595 C589 1.429 . S
C595 C596 1.523 . S
C596 C577 1.368 . S
C596 C590 1.368 . S
C596 C595 1.523 . S
C597 C581 1.429 1_554 S
C597 C593 1.429 . S
C597 C598 1.523 . S
C598 C582 1.368 . S
C598 C594 1.352 1_554 S
C598 C597 1.523 . S
H599 C574 0.950 . S
H600 C576 0.950 . S
H601 C577 0.949 1_556 S
H602 C579 0.950 . S
H603 C581 0.950 . S
C604 C605 1.349 . S
C604 C606 1.327 . S
C604 H629 0.950 . S
C605 C604 1.349 . S
C605 C621 1.349 1_554 S
C606 C604 1.327 . S
C606 C625 1.429 . S
C606 H630 0.950 . S
C607 C624 1.576 . S
C607 C626 1.368 1_556 S
C607 H631 0.949 . S
H608 C612 0.949 . S
C609 C610 1.349 . S
C609 C611 1.327 . S
C609 H632 0.950 1_554 S
C610 C609 1.349 . S
C610 C622 1.349 . S
C611 C609 1.327 . S
C611 C627 1.429 . S
C611 H633 0.950 1_554 S
C612 H608 0.949 . S
C612 C620 1.574 . S
C612 C628 1.368 . S
H613 C621 0.950 . S
H614 C619 0.950 . S
H615 C620 0.949 . S
H616 C622 0.950 . S
H617 C623 0.950 . S
H618 C624 0.967 . S
C619 H614 0.950 . S
C619 C621 1.327 . S
C619 C625 1.429 1_556 S
C620 C612 1.574 . S
C620 H615 0.949 . S
C620 C626 1.368 . S
C621 C605 1.349 1_556 S
C621 H613 0.950 . S
C621 C619 1.327 . S
C622 C610 1.349 . S
C622 H616 0.950 . S
C622 C623 1.327 . S
C623 H617 0.950 . S
C623 C622 1.327 . S
C623 C627 1.429 . S
C624 C607 1.576 . S
C624 H618 0.967 . S
C624 C628 1.348 1_556 S
C625 C606 1.429 . S
C625 C619 1.429 1_554 S
C625 C626 1.523 . S
C626 C607 1.368 1_554 S
C626 C620 1.368 . S
C626 C625 1.523 . S
C627 C611 1.429 . S
C627 C623 1.429 . S
C627 C628 1.523 . S
C628 C612 1.368 . S
C628 C624 1.348 1_554 S
C628 C627 1.523 . S
H629 C604 0.950 . S
H630 C606 0.950 . S
H631 C607 0.949 . S
H632 C609 0.950 1_556 S
H633 C611 0.950 1_556 S
C634 C635 1.349 . S
C634 C636 1.327 . S
C634 H659 0.950 1_554 S
C635 C634 1.349 . S
C635 C651 1.349 . S
C636 C634 1.327 . S
C636 C655 1.429 . S
C636 H660 0.950 1_554 S
C637 C654 1.574 . S
C637 C656 1.368 . S
C637 H661 0.949 . S
H638 C642 0.962 . S
C639 C640 1.349 . S
C639 C641 1.327 . S
C639 H662 0.950 . S
C640 C639 1.349 . S
C640 C652 1.349 1_554 S
C641 C639 1.327 . S
C641 C657 1.429 . S
C641 H663 0.950 . S
C642 H638 0.962 . S
C642 C650 1.572 1_556 S
C642 C658 1.356 1_556 S
H643 C651 0.950 . S
H644 C649 0.950 . S
H645 C650 0.949 1_556 S
H646 C652 0.950 . S
H647 C653 0.950 . S
H648 C654 0.949 . S
C649 H644 0.950 . S
C649 C651 1.327 . S
C649 C655 1.429 . S
C650 C642 1.572 1_554 S
C650 H645 0.949 1_554 S
C650 C656 1.368 . S
C651 C635 1.349 . S
C651 H643 0.950 . S
C651 C649 1.327 . S
C652 C640 1.349 1_556 S
C652 H646 0.950 . S
C652 C653 1.327 . S
C653 H647 0.950 . S
C653 C652 1.327 . S
C653 C657 1.429 1_556 S
C654 C637 1.574 . S
C654 H648 0.949 . S
C654 C658 1.368 . S
C655 C636 1.429 . S
C655 C649 1.429 . S
C655 C656 1.523 . S
C656 C637 1.368 . S
C656 C650 1.368 . S
C656 C655 1.523 . S
C657 C641 1.429 . S
C657 C653 1.429 1_554 S
C657 C658 1.523 . S
C658 C642 1.356 1_554 S
C658 C654 1.368 . S
C658 C657 1.523 . S
H659 C634 0.950 1_556 S
H660 C636 0.950 1_556 S
H661 C637 0.949 . S
H662 C639 0.950 . S
H663 C641 0.950 . S
C664 C665 1.349 . S
C664 C666 1.327 . S
C664 H689 0.950 . S
C665 C664 1.349 . S
C665 C681 1.349 . S
C666 C664 1.327 . S
C666 C685 1.429 . S
C666 H690 0.950 . S
C667 C684 1.574 . S
C667 C686 1.368 . S
C667 H691 0.949 . S
H668 C672 0.949 . S
C669 C670 1.349 . S
C669 C671 1.327 . S
C669 H692 0.950 . S
C670 C669 1.349 . S
C670 C682 1.349 . S
C671 C669 1.327 . S
C671 C687 1.429 . S
C671 H693 0.950 . S
C672 H668 0.949 . S
C672 C680 1.574 . S
C672 C688 1.368 . S
H673 C681 0.950 . S
H674 C679 0.950 . S
H675 C680 0.949 . S
H676 C682 0.950 . S
H677 C683 0.950 . S
H678 C684 0.949 . S
C679 H674 0.950 . S
C679 C681 1.327 . S
C679 C685 1.429 . S
C680 C672 1.574 . S
C680 H675 0.949 . S
C680 C686 1.368 . S
C681 C665 1.349 . S
C681 H673 0.950 . S
C681 C679 1.327 . S
C682 C670 1.349 . S
C682 H676 0.950 . S
C682 C683 1.327 . S
C683 H677 0.950 . S
C683 C682 1.327 . S
C683 C687 1.429 . S
C684 C667 1.574 . S
C684 H678 0.949 . S
C684 C688 1.368 . S
C685 C666 1.429 . S
C685 C679 1.429 . S
C685 C686 1.523 . S
C686 C667 1.368 . S
C686 C680 1.368 . S
C686 C685 1.523 . S
C687 C671 1.429 . S
C687 C683 1.429 . S
C687 C688 1.523 . S
C688 C672 1.368 . S
C688 C684 1.368 . S
C688 C687 1.523 . S
H689 C664 0.950 . S
H690 C666 0.950 . S
H691 C667 0.949 . S
H692 C669 0.950 . S
H693 C671 0.950 . S
C694 C695 1.349 . S
C694 C696 1.327 . S
C694 H719 0.950 . S
C695 C694 1.349 . S
C695 C711 1.349 . S
C696 C694 1.327 . S
C696 C715 1.429 . S
C696 H720 0.950 . S
C697 C714 1.574 . S
C697 C716 1.368 . S
C697 H721 0.949 . S
H698 C702 0.949 . S
C699 C700 1.349 . S
C699 C701 1.327 . S
C699 H722 0.950 . S
C700 C699 1.349 . S
C700 C712 1.349 . S
C701 C699 1.327 . S
C701 C717 1.429 . S
C701 H723 0.950 . S
C702 H698 0.949 . S
C702 C710 1.574 . S
C702 C718 1.368 . S
H703 C711 0.950 . S
H704 C709 0.950 . S
H705 C710 0.949 . S
H706 C712 0.950 . S
H707 C713 0.950 . S
H708 C714 0.949 . S
C709 H704 0.950 . S
C709 C711 1.327 . S
C709 C715 1.429 . S
C710 C702 1.574 . S
C710 H705 0.949 . S
C710 C716 1.368 . S
C711 C695 1.349 . S
C711 H703 0.950 . S
C711 C709 1.327 . S
C712 C700 1.349 . S
C712 H706 0.950 . S
C712 C713 1.327 . S
C713 H707 0.950 . S
C713 C712 1.327 . S
C713 C717 1.429 . S
C714 C697 1.574 . S
C714 H708 0.949 . S
C714 C718 1.368 . S
C715 C696 1.429 . S
C715 C709 1.429 . S
C715 C716 1.523 . S
C716 C697 1.368 . S
C716 C710 1.368 . S
C716 C715 1.523 . S
C717 C701 1.429 . S
C717 C713 1.429 . S
C717 C718 1.523 . S
C718 C702 1.368 . S
C718 C714 1.368 . S
C718 C717 1.523 . S
H719 C694 0.950 . S
H720 C696 0.950 . S
H721 C697 0.949 . S
H722 C699 0.950 . S
H723 C701 0.950 . S
C724 C725 1.349 . S
C724 C726 1.327 . S
C724 H749 0.950 . S
C725 C724 1.349 . S
C725 C741 1.349 . S
C726 C724 1.327 . S
C726 C745 1.429 . S
C726 H750 0.950 . S
C727 C744 1.574 . S
C727 C746 1.368 . S
C727 H751 0.949 . S
H728 C732 0.949 . S
C729 C730 1.349 . S
C729 C731 1.327 . S
C729 H752 0.950 . S
C730 C729 1.349 . S
C730 C742 1.349 . S
C731 C729 1.327 . S
C731 C747 1.429 . S
C731 H753 0.950 . S
C732 H728 0.949 . S
C732 C740 1.574 . S
C732 C748 1.368 . S
H733 C741 0.950 . S
H734 C739 0.950 . S
H735 C740 0.949 . S
H736 C742 0.950 . S
H737 C743 0.950 . S
H738 C744 0.949 . S
C739 H734 0.950 . S
C739 C741 1.327 . S
C739 C745 1.429 . S
C740 C732 1.574 . S
C740 H735 0.949 . S
C740 C746 1.368 . S
C741 C725 1.349 . S
C741 H733 0.950 . S
C741 C739 1.327 . S
C742 C730 1.349 . S
C742 H736 0.950 . S
C742 C743 1.327 . S
C743 H737 0.950 . S
C743 C742 1.327 . S
C743 C747 1.429 . S
C744 C727 1.574 . S
C744 H738 0.949 . S
C744 C748 1.368 . S
C745 C726 1.429 . S
C745 C739 1.429 . S
C745 C746 1.523 . S
C746 C727 1.368 . S
C746 C740 1.368 . S
C746 C745 1.523 . S
C747 C731 1.429 . S
C747 C743 1.429 . S
C747 C748 1.523 . S
C748 C732 1.368 . S
C748 C744 1.368 . S
C748 C747 1.523 . S
H749 C724 0.950 . S
H750 C726 0.950 . S
H751 C727 0.949 . S
H752 C729 0.950 . S
H753 C731 0.950 . S
C754 C755 1.349 . S
C754 C756 1.327 . S
C754 H779 0.950 . S
C755 C754 1.349 . S
C755 C771 1.349 . S
C756 C754 1.327 . S
C756 C775 1.429 . S
C756 H780 0.950 . S
C757 C774 1.574 . S
C757 C776 1.368 . S
C757 H781 0.949 . S
H758 C762 0.949 . S
C759 C760 1.349 . S
C759 C761 1.327 . S
C759 H782 0.950 . S
C760 C759 1.349 . S
C760 C772 1.349 . S
C761 C759 1.327 . S
C761 C777 1.429 . S
C761 H783 0.950 . S
C762 H758 0.949 . S
C762 C770 1.574 . S
C762 C778 1.368 . S
H763 C771 0.950 . S
H764 C769 0.950 . S
H765 C770 0.949 . S
H766 C772 0.950 . S
H767 C773 0.950 . S
H768 C774 0.949 . S
C769 H764 0.950 . S
C769 C771 1.327 . S
C769 C775 1.429 . S
C770 C762 1.574 . S
C770 H765 0.949 . S
C770 C776 1.368 . S
C771 C755 1.349 . S
C771 H763 0.950 . S
C771 C769 1.327 . S
C772 C760 1.349 . S
C772 H766 0.950 . S
C772 C773 1.327 . S
C773 H767 0.950 . S
C773 C772 1.327 . S
C773 C777 1.429 . S
C774 C757 1.574 . S
C774 H768 0.949 . S
C774 C778 1.368 . S
C775 C756 1.429 . S
C775 C769 1.429 . S
C775 C776 1.523 . S
C776 C757 1.368 . S
C776 C770 1.368 . S
C776 C775 1.523 . S
C777 C761 1.429 . S
C777 C773 1.429 . S
C777 C778 1.523 . S
C778 C762 1.368 . S
C778 C774 1.368 . S
C778 C777 1.523 . S
H779 C754 0.950 . S
H780 C756 0.950 . S
H781 C757 0.949 . S
H782 C759 0.950 . S
H783 C761 0.950 . S
C784 C785 1.349 . S
C784 C786 1.327 . S
C784 H809 0.950 . S
C785 C784 1.349 . S
C785 C801 1.349 . S
C786 C784 1.327 . S
C786 C805 1.429 . S
C786 H810 0.950 . S
C787 C804 1.574 . S
C787 C806 1.368 . S
C787 H811 0.949 . S
H788 C792 0.949 . S
C789 C790 1.349 . S
C789 C791 1.327 . S
C789 H812 0.950 . S
C790 C789 1.349 . S
C790 C802 1.349 . S
C791 C789 1.327 . S
C791 C807 1.429 . S
C791 H813 0.950 . S
C792 H788 0.949 . S
C792 C800 1.574 . S
C792 C808 1.368 . S
H793 C801 0.950 . S
H794 C799 0.950 . S
H795 C800 0.949 . S
H796 C802 0.950 . S
H797 C803 0.950 . S
H798 C804 0.949 . S
C799 H794 0.950 . S
C799 C801 1.327 . S
C799 C805 1.429 . S
C800 C792 1.574 . S
C800 H795 0.949 . S
C800 C806 1.368 . S
C801 C785 1.349 . S
C801 H793 0.950 . S
C801 C799 1.327 . S
C802 C790 1.349 . S
C802 H796 0.950 . S
C802 C803 1.327 . S
C803 H797 0.950 . S
C803 C802 1.327 . S
C803 C807 1.429 . S
C804 C787 1.574 . S
C804 H798 0.949 . S
C804 C808 1.368 . S
C805 C786 1.429 . S
C805 C799 1.429 . S
C805 C806 1.523 . S
C806 C787 1.368 . S
C806 C800 1.368 . S
C806 C805 1.523 . S
C807 C791 1.429 . S
C807 C803 1.429 . S
C807 C808 1.523 . S
C808 C792 1.368 . S
C808 C804 1.368 . S
C808 C807 1.523 . S
H809 C784 0.950 . S
H810 C786 0.950 . S
H811 C787 0.949 . S
H812 C789 0.950 . S
H813 C791 0.950 . S
C814 C815 1.349 . S
C814 C816 1.327 . S
C814 H839 0.950 1_554 S
C815 C814 1.349 . S
C815 C831 1.349 . S
C816 C814 1.327 . S
C816 C835 1.429 . S
C816 H840 0.949 1_554 S
C817 C834 1.574 . S
C817 C836 1.368 . S
C817 H841 0.949 . S
H818 C822 0.949 . S
C819 C820 1.349 . S
C819 C821 1.327 . S
C819 H842 0.950 . S
C820 C819 1.349 . S
C820 C832 1.349 . S
C821 C819 1.327 . S
C821 C837 1.429 . S
C821 H843 0.950 . S
C822 H818 0.949 . S
C822 C830 1.574 . S
C822 C838 1.368 . S
H823 C831 0.950 . S
H824 C829 0.950 . S
H825 C830 0.949 . S
H826 C832 0.950 . S
H827 C833 0.950 . S
H828 C834 0.949 . S
C829 H824 0.950 . S
C829 C831 1.327 . S
C829 C835 1.429 . S
C830 C822 1.574 . S
C830 H825 0.949 . S
C830 C836 1.368 . S
C831 C815 1.349 . S
C831 H823 0.950 . S
C831 C829 1.327 . S
C832 C820 1.349 . S
C832 H826 0.950 . S
C832 C833 1.327 . S
C833 H827 0.950 . S
C833 C832 1.327 . S
C833 C837 1.429 . S
C834 C817 1.574 . S
C834 H828 0.949 . S
C834 C838 1.368 . S
C835 C816 1.429 . S
C835 C829 1.429 . S
C835 C836 1.523 . S
C836 C817 1.368 . S
C836 C830 1.368 . S
C836 C835 1.523 . S
C837 C821 1.429 . S
C837 C833 1.429 . S
C837 C838 1.523 . S
C838 C822 1.368 . S
C838 C834 1.368 . S
C838 C837 1.523 . S
H839 C814 0.950 1_556 S
H840 C816 0.949 1_556 S
H841 C817 0.949 . S
H842 C819 0.950 . S
H843 C821 0.950 . S
C844 C845 1.349 . S
C844 C846 1.327 . S
C844 H869 0.974 . S
C845 C844 1.349 . S
C845 C861 1.349 . S
C846 C844 1.327 . S
C846 C865 1.429 . S
C846 H870 0.950 1_554 S
C847 C864 1.574 . S
C847 C866 1.368 . S
C847 H871 0.949 . S
H848 C852 0.949 1_556 S
C849 C850 1.349 . S
C849 C851 1.327 . S
C849 H872 0.950 . S
C850 C849 1.349 . S
C850 C862 1.349 . S
C851 C849 1.327 . S
C851 C867 1.429 . S
C851 H873 0.950 . S
C852 H848 0.949 1_554 S
C852 C860 1.574 . S
C852 C868 1.368 . S
H853 C861 0.950 . S
H854 C859 0.950 . S
H855 C860 0.949 1_556 S
H856 C862 0.950 1_556 S
H857 C863 0.950 1_556 S
H858 C864 0.949 . S
C859 H854 0.950 . S
C859 C861 1.327 . S
C859 C865 1.429 . S
C860 C852 1.574 . S
C860 H855 0.949 1_554 S
C860 C866 1.368 . S
C861 C845 1.349 . S
C861 H853 0.950 . S
C861 C859 1.327 . S
C862 C850 1.349 . S
C862 H856 0.950 1_554 S
C862 C863 1.327 . S
C863 H857 0.950 1_554 S
C863 C862 1.327 . S
C863 C867 1.429 . S
C864 C847 1.574 . S
C864 H858 0.949 . S
C864 C868 1.368 . S
C865 C846 1.429 . S
C865 C859 1.429 . S
C865 C866 1.523 . S
C866 C847 1.368 . S
C866 C860 1.368 . S
C866 C865 1.523 . S
C867 C851 1.429 . S
C867 C863 1.429 . S
C867 C868 1.523 . S
C868 C852 1.368 . S
C868 C864 1.368 . S
C868 C867 1.523 . S
H869 C844 0.974 . S
H870 C846 0.950 1_556 S
H871 C847 0.949 . S
H872 C849 0.950 . S
H873 C851 0.950 . S
C874 C875 1.349 . S
C874 C876 1.327 . S
C874 H899 0.950 . S
C875 C874 1.349 . S
C875 C891 1.349 . S
C876 C874 1.327 . S
C876 C895 1.429 . S
C876 H900 0.950 . S
C877 C894 1.574 . S
C877 C896 1.368 . S
C877 H901 0.949 . S
H878 C882 0.949 . S
C879 C880 1.349 . S
C879 C881 1.327 . S
C879 H902 0.950 . S
C880 C879 1.349 . S
C880 C892 1.349 . S
C881 C879 1.327 . S
C881 C897 1.429 . S
C881 H903 0.950 . S
C882 H878 0.949 . S
C882 C890 1.574 . S
C882 C898 1.368 . S
H883 C891 0.950 . S
H884 C889 0.950 . S
H885 C890 0.949 . S
H886 C892 0.950 . S
H887 C893 0.950 . S
H888 C894 0.949 . S
C889 H884 0.950 . S
C889 C891 1.327 . S
C889 C895 1.429 . S
C890 C882 1.574 . S
C890 H885 0.949 . S
C890 C896 1.368 . S
C891 C875 1.349 . S
C891 H883 0.950 . S
C891 C889 1.327 . S
C892 C880 1.349 . S
C892 H886 0.950 . S
C892 C893 1.327 . S
C893 H887 0.950 . S
C893 C892 1.327 . S
C893 C897 1.429 . S
C894 C877 1.574 . S
C894 H888 0.949 . S
C894 C898 1.368 . S
C895 C876 1.429 . S
C895 C889 1.429 . S
C895 C896 1.523 . S
C896 C877 1.368 . S
C896 C890 1.368 . S
C896 C895 1.523 . S
C897 C881 1.429 . S
C897 C893 1.429 . S
C897 C898 1.523 . S
C898 C882 1.368 . S
C898 C894 1.368 . S
C898 C897 1.523 . S
H899 C874 0.950 . S
H900 C876 0.950 . S
H901 C877 0.949 . S
H902 C879 0.950 . S
H903 C881 0.950 . S
C904 C905 1.349 . S
C904 C906 1.327 . S
C904 H929 0.950 . S
C905 C904 1.349 . S
C905 C921 1.349 . S
C906 C904 1.327 . S
C906 C925 1.429 . S
C906 H930 0.950 . S
C907 C924 1.574 . S
C907 C926 1.368 . S
C907 H931 0.949 . S
H908 C912 0.949 . S
C909 C910 1.349 . S
C909 C911 1.327 . S
C909 H932 0.950 . S
C910 C909 1.349 . S
C910 C922 1.349 . S
C911 C909 1.327 . S
C911 C927 1.429 . S
C911 H933 0.950 . S
C912 H908 0.949 . S
C912 C920 1.574 . S
C912 C928 1.368 . S
H913 C921 0.950 . S
H914 C919 0.950 . S
H915 C920 0.949 . S
H916 C922 0.950 . S
H917 C923 0.950 . S
H918 C924 0.949 . S
C919 H914 0.950 . S
C919 C921 1.327 . S
C919 C925 1.429 . S
C920 C912 1.574 . S
C920 H915 0.949 . S
C920 C926 1.368 . S
C921 C905 1.349 . S
C921 H913 0.950 . S
C921 C919 1.327 . S
C922 C910 1.349 . S
C922 H916 0.950 . S
C922 C923 1.327 . S
C923 H917 0.950 . S
C923 C922 1.327 . S
C923 C927 1.429 . S
C924 C907 1.574 . S
C924 H918 0.949 . S
C924 C928 1.368 . S
C925 C906 1.429 . S
C925 C919 1.429 . S
C925 C926 1.523 . S
C926 C907 1.368 . S
C926 C920 1.368 . S
C926 C925 1.523 . S
C927 C911 1.429 . S
C927 C923 1.429 . S
C927 C928 1.523 . S
C928 C912 1.368 . S
C928 C924 1.368 . S
C928 C927 1.523 . S
H929 C904 0.950 . S
H930 C906 0.950 . S
H931 C907 0.949 . S
H932 C909 0.950 . S
H933 C911 0.950 . S
C934 C935 1.349 . S
C934 C936 1.327 . S
C934 H959 0.950 . S
C935 C934 1.349 . S
C935 C951 1.349 . S
C936 C934 1.327 . S
C936 C955 1.429 . S
C936 H960 0.950 . S
C937 C954 1.574 . S
C937 C956 1.368 . S
C937 H961 0.949 . S
H938 C942 0.949 . S
C939 C940 1.349 . S
C939 C941 1.327 . S
C939 H962 0.950 . S
C940 C939 1.349 . S
C940 C952 1.349 . S
C941 C939 1.327 . S
C941 C957 1.429 . S
C941 H963 0.950 . S
C942 H938 0.949 . S
C942 C950 1.574 . S
C942 C958 1.368 . S
H943 C951 0.950 . S
H944 C949 0.950 . S
H945 C950 0.949 . S
H946 C952 0.950 . S
H947 C953 0.950 . S
H948 C954 0.949 . S
C949 H944 0.950 . S
C949 C951 1.327 . S
C949 C955 1.429 . S
C950 C942 1.574 . S
C950 H945 0.949 . S
C950 C956 1.368 . S
C951 C935 1.349 . S
C951 H943 0.950 . S
C951 C949 1.327 . S
C952 C940 1.349 . S
C952 H946 0.950 . S
C952 C953 1.327 . S
C953 H947 0.950 . S
C953 C952 1.327 . S
C953 C957 1.429 . S
C954 C937 1.574 . S
C954 H948 0.949 . S
C954 C958 1.368 . S
C955 C936 1.429 . S
C955 C949 1.429 . S
C955 C956 1.523 . S
C956 C937 1.368 . S
C956 C950 1.368 . S
C956 C955 1.523 . S
C957 C941 1.429 . S
C957 C953 1.429 . S
C957 C958 1.523 . S
C958 C942 1.368 . S
C958 C954 1.368 . S
C958 C957 1.523 . S
H959 C934 0.950 . S
H960 C936 0.950 . S
H961 C937 0.949 . S
H962 C939 0.950 . S
H963 C941 0.950 . S
C964 C965 1.349 . S
C964 C966 1.327 . S
C964 H989 0.950 . S
C965 C964 1.349 . S
C965 C981 1.349 . S
C966 C964 1.327 . S
C966 C985 1.429 . S
C966 H990 0.950 . S
C967 C984 1.574 . S
C967 C986 1.368 . S
C967 H991 0.949 . S
H968 C972 0.949 . S
C969 C970 1.349 . S
C969 C971 1.327 . S
C969 H992 0.950 . S
C970 C969 1.349 . S
C970 C982 1.349 . S
C971 C969 1.327 . S
C971 C987 1.429 . S
C971 H993 0.950 . S
C972 H968 0.949 . S
C972 C980 1.574 . S
C972 C988 1.368 . S
H973 C981 0.950 . S
H974 C979 0.950 . S
H975 C980 0.949 . S
H976 C982 0.950 . S
H977 C983 0.950 . S
H978 C984 0.949 . S
C979 H974 0.950 . S
C979 C981 1.327 . S
C979 C985 1.429 . S
C980 C972 1.574 . S
C980 H975 0.949 . S
C980 C986 1.368 . S
C981 C965 1.349 . S
C981 H973 0.950 . S
C981 C979 1.327 . S
C982 C970 1.349 . S
C982 H976 0.950 . S
C982 C983 1.327 . S
C983 H977 0.950 . S
C983 C982 1.327 . S
C983 C987 1.429 . S
C984 C967 1.574 . S
C984 H978 0.949 . S
C984 C988 1.368 . S
C985 C966 1.429 . S
C985 C979 1.429 . S
C985 C986 1.523 . S
C986 C967 1.368 . S
C986 C980 1.368 . S
C986 C985 1.523 . S
C987 C971 1.429 . S
C987 C983 1.429 . S
C987 C988 1.523 . S
C988 C972 1.368 . S
C988 C984 1.368 . S
C988 C987 1.523 . S
H989 C964 0.950 . S
H990 C966 0.950 . S
H991 C967 0.949 . S
H992 C969 0.950 . S
H993 C971 0.950 . S
C994 C995 1.349 . S
C994 C996 1.327 . S
C994 H1019 0.950 . S
C995 C994 1.349 . S
C995 C1011 1.349 . S
C996 C994 1.327 . S
C996 C1015 1.429 . S
C996 H1020 0.950 . S
C997 C1014 1.574 . S
C997 C1016 1.368 . S
C997 H1021 0.949 . S
H998 C1002 0.949 . S
C999 C1000 1.349 . S
C999 C1001 1.327 . S
C999 H1022 0.950 . S
C1000 C999 1.349 . S
C1000 C1012 1.349 . S
C1001 C999 1.327 . S
C1001 C1017 1.429 . S
C1001 H1023 0.950 . S
C1002 H998 0.949 . S
C1002 C1010 1.574 . S
C1002 C1018 1.368 . S
H1003 C1011 0.950 . S
H1004 C1009 0.950 . S
H1005 C1010 0.949 . S
H1006 C1012 0.950 . S
H1007 C1013 0.950 . S
H1008 C1014 0.949 . S
C1009 H1004 0.950 . S
C1009 C1011 1.327 . S
C1009 C1015 1.429 . S
C1010 C1002 1.574 . S
C1010 H1005 0.949 . S
C1010 C1016 1.368 . S
C1011 C995 1.349 . S
C1011 H1003 0.950 . S
C1011 C1009 1.327 . S
C1012 C1000 1.349 . S
C1012 H1006 0.950 . S
C1012 C1013 1.327 . S
C1013 H1007 0.950 . S
C1013 C1012 1.327 . S
C1013 C1017 1.429 . S
C1014 C997 1.574 . S
C1014 H1008 0.949 . S
C1014 C1018 1.368 . S
C1015 C996 1.429 . S
C1015 C1009 1.429 . S
C1015 C1016 1.523 . S
C1016 C997 1.368 . S
C1016 C1010 1.368 . S
C1016 C1015 1.523 . S
C1017 C1001 1.429 . S
C1017 C1013 1.429 . S
C1017 C1018 1.523 . S
C1018 C1002 1.368 . S
C1018 C1014 1.368 . S
C1018 C1017 1.523 . S
H1019 C994 0.950 . S
H1020 C996 0.950 . S
H1021 C997 0.949 . S
H1022 C999 0.950 . S
H1023 C1001 0.950 . S
C1024 C1025 1.349 . S
C1024 C1026 1.327 . S
C1024 H1049 0.950 . S
C1025 C1024 1.349 . S
C1025 C1041 1.349 . S
C1026 C1024 1.327 . S
C1026 C1045 1.429 . S
C1026 H1050 0.950 . S
C1027 C1044 1.574 . S
C1027 C1046 1.368 . S
C1027 H1051 0.949 . S
H1028 C1032 0.949 . S
C1029 C1030 1.349 . S
C1029 C1031 1.327 . S
C1029 H1052 0.950 . S
C1030 C1029 1.349 . S
C1030 C1042 1.349 . S
C1031 C1029 1.327 . S
C1031 C1047 1.429 . S
C1031 H1053 0.950 . S
C1032 H1028 0.949 . S
C1032 C1040 1.574 . S
C1032 C1048 1.368 . S
H1033 C1041 0.950 . S
H1034 C1039 0.950 . S
H1035 C1040 0.949 . S
H1036 C1042 0.950 . S
H1037 C1043 0.950 . S
H1038 C1044 0.949 . S
C1039 H1034 0.950 . S
C1039 C1041 1.327 . S
C1039 C1045 1.429 . S
C1040 C1032 1.574 . S
C1040 H1035 0.949 . S
C1040 C1046 1.368 . S
C1041 C1025 1.349 . S
C1041 H1033 0.950 . S
C1041 C1039 1.327 . S
C1042 C1030 1.349 . S
C1042 H1036 0.950 . S
C1042 C1043 1.327 . S
C1043 H1037 0.950 . S
C1043 C1042 1.327 . S
C1043 C1047 1.429 . S
C1044 C1027 1.574 . S
C1044 H1038 0.949 . S
C1044 C1048 1.368 . S
C1045 C1026 1.429 . S
C1045 C1039 1.429 . S
C1045 C1046 1.523 . S
C1046 C1027 1.368 . S
C1046 C1040 1.368 . S
C1046 C1045 1.523 . S
C1047 C1031 1.429 . S
C1047 C1043 1.429 . S
C1047 C1048 1.523 . S
C1048 C1032 1.368 . S
C1048 C1044 1.368 . S
C1048 C1047 1.523 . S
H1049 C1024 0.950 . S
H1050 C1026 0.950 . S
H1051 C1027 0.949 . S
H1052 C1029 0.950 . S
H1053 C1031 0.950 . S
C1054 C1055 1.349 . S
C1054 C1056 1.327 . S
C1054 H1079 0.950 . S
C1055 C1054 1.349 . S
C1055 C1071 1.349 . S
C1056 C1054 1.327 . S
C1056 C1075 1.429 . S
C1056 H1080 0.950 . S
C1057 C1074 1.574 . S
C1057 C1076 1.368 . S
C1057 H1081 0.949 . S
H1058 C1062 0.949 . S
C1059 C1060 1.349 . S
C1059 C1061 1.327 . S
C1059 H1082 0.950 . S
C1060 C1059 1.349 . S
C1060 C1072 1.349 . S
C1061 C1059 1.327 . S
C1061 C1077 1.429 . S
C1061 H1083 0.950 . S
C1062 H1058 0.949 . S
C1062 C1070 1.574 . S
C1062 C1078 1.368 . S
H1063 C1071 0.950 . S
H1064 C1069 0.950 . S
H1065 C1070 0.949 . S
H1066 C1072 0.950 . S
H1067 C1073 0.950 . S
H1068 C1074 0.949 . S
C1069 H1064 0.950 . S
C1069 C1071 1.327 . S
C1069 C1075 1.429 . S
C1070 C1062 1.574 . S
C1070 H1065 0.949 . S
C1070 C1076 1.368 . S
C1071 C1055 1.349 . S
C1071 H1063 0.950 . S
C1071 C1069 1.327 . S
C1072 C1060 1.349 . S
C1072 H1066 0.950 . S
C1072 C1073 1.327 . S
C1073 H1067 0.950 . S
C1073 C1072 1.327 . S
C1073 C1077 1.429 . S
C1074 C1057 1.574 . S
C1074 H1068 0.949 . S
C1074 C1078 1.368 . S
C1075 C1056 1.429 . S
C1075 C1069 1.429 . S
C1075 C1076 1.523 . S
C1076 C1057 1.368 . S
C1076 C1070 1.368 . S
C1076 C1075 1.523 . S
C1077 C1061 1.429 . S
C1077 C1073 1.429 . S
C1077 C1078 1.523 . S
C1078 C1062 1.368 . S
C1078 C1074 1.368 . S
C1078 C1077 1.523 . S
H1079 C1054 0.950 . S
H1080 C1056 0.950 . S
H1081 C1057 0.949 . S
H1082 C1059 0.950 . S
H1083 C1061 0.950 . S
C1084 C1085 1.349 . S
C1084 C1086 1.327 . S
C1084 H1109 0.950 . S
C1085 C1084 1.349 . S
C1085 C1101 1.349 . S
C1086 C1084 1.327 . S
C1086 C1105 1.429 . S
C1086 H1110 0.950 . S
C1087 C1104 1.574 . S
C1087 C1106 1.368 . S
C1087 H1111 0.949 . S
H1088 C1092 0.949 . S
C1089 C1090 1.349 . S
C1089 C1091 1.327 . S
C1089 H1112 0.950 . S
C1090 C1089 1.349 . S
C1090 C1102 1.349 . S
C1091 C1089 1.327 . S
C1091 C1107 1.429 . S
C1091 H1113 0.950 . S
C1092 H1088 0.949 . S
C1092 C1100 1.574 . S
C1092 C1108 1.368 . S
H1093 C1101 0.950 . S
H1094 C1099 0.950 . S
H1095 C1100 0.949 . S
H1096 C1102 0.950 . S
H1097 C1103 0.950 . S
H1098 C1104 0.949 . S
C1099 H1094 0.950 . S
C1099 C1101 1.327 . S
C1099 C1105 1.429 . S
C1100 C1092 1.574 . S
C1100 H1095 0.949 . S
C1100 C1106 1.368 . S
C1101 C1085 1.349 . S
C1101 H1093 0.950 . S
C1101 C1099 1.327 . S
C1102 C1090 1.349 . S
C1102 H1096 0.950 . S
C1102 C1103 1.327 . S
C1103 H1097 0.950 . S
C1103 C1102 1.327 . S
C1103 C1107 1.429 . S
C1104 C1087 1.574 . S
C1104 H1098 0.949 . S
C1104 C1108 1.368 . S
C1105 C1086 1.429 . S
C1105 C1099 1.429 . S
C1105 C1106 1.523 . S
C1106 C1087 1.368 . S
C1106 C1100 1.368 . S
C1106 C1105 1.523 . S
C1107 C1091 1.429 . S
C1107 C1103 1.429 . S
C1107 C1108 1.523 . S
C1108 C1092 1.368 . S
C1108 C1104 1.368 . S
C1108 C1107 1.523 . S
H1109 C1084 0.950 . S
H1110 C1086 0.950 . S
H1111 C1087 0.949 . S
H1112 C1089 0.950 . S
H1113 C1091 0.950 . S
C1114 C1115 1.349 . S
C1114 C1116 1.327 . S
C1114 H1139 0.950 . S
C1115 C1114 1.349 . S
C1115 C1131 1.349 . S
C1116 C1114 1.327 . S
C1116 C1135 1.429 . S
C1116 H1140 0.950 . S
C1117 C1134 1.574 . S
C1117 C1136 1.368 . S
C1117 H1141 0.949 . S
H1118 C1122 0.949 . S
C1119 C1120 1.349 . S
C1119 C1121 1.327 . S
C1119 H1142 0.950 . S
C1120 C1119 1.349 . S
C1120 C1132 1.349 . S
C1121 C1119 1.327 . S
C1121 C1137 1.429 . S
C1121 H1143 0.950 . S
C1122 H1118 0.949 . S
C1122 C1130 1.574 . S
C1122 C1138 1.368 . S
H1123 C1131 0.950 . S
H1124 C1129 0.950 . S
H1125 C1130 0.949 . S
H1126 C1132 0.950 . S
H1127 C1133 0.950 . S
H1128 C1134 0.949 . S
C1129 H1124 0.950 . S
C1129 C1131 1.327 . S
C1129 C1135 1.429 . S
C1130 C1122 1.574 . S
C1130 H1125 0.949 . S
C1130 C1136 1.368 . S
C1131 C1115 1.349 . S
C1131 H1123 0.950 . S
C1131 C1129 1.327 . S
C1132 C1120 1.349 . S
C1132 H1126 0.950 . S
C1132 C1133 1.327 . S
C1133 H1127 0.950 . S
C1133 C1132 1.327 . S
C1133 C1137 1.429 . S
C1134 C1117 1.574 . S
C1134 H1128 0.949 . S
C1134 C1138 1.368 . S
C1135 C1116 1.429 . S
C1135 C1129 1.429 . S
C1135 C1136 1.523 . S
C1136 C1117 1.368 . S
C1136 C1130 1.368 . S
C1136 C1135 1.523 . S
C1137 C1121 1.429 . S
C1137 C1133 1.429 . S
C1137 C1138 1.523 . S
C1138 C1122 1.368 . S
C1138 C1134 1.368 . S
C1138 C1137 1.523 . S
H1139 C1114 0.950 . S
H1140 C1116 0.950 . S
H1141 C1117 0.949 . S
H1142 C1119 0.950 . S
H1143 C1121 0.950 . S
C1144 C1145 1.349 1_556 S
C1144 C1146 1.327 . S
C1144 H1169 0.950 . S
C1145 C1144 1.349 1_554 S
C1145 C1161 1.349 . S
C1146 C1144 1.327 . S
C1146 C1165 1.429 1_556 S
C1146 H1170 0.950 . S
C1147 C1164 1.574 . S
C1147 C1166 1.368 . S
C1147 H1171 0.949 . S
H1148 C1152 0.949 . S
C1149 C1150 1.349 1_554 S
C1149 C1151 1.327 . S
C1149 H1172 0.950 . S
C1150 C1149 1.349 1_556 S
C1150 C1162 1.349 . S
C1151 C1149 1.327 . S
C1151 C1167 1.429 1_554 S
C1151 H1173 0.950 . S
C1152 H1148 0.949 . S
C1152 C1160 1.574 . S
C1152 C1168 1.383 . S
H1153 C1161 0.950 . S
H1154 C1159 0.950 . S
H1155 C1160 0.949 . S
H1156 C1162 0.950 . S
H1157 C1163 0.950 . S
H1158 C1164 0.949 . S
C1159 H1154 0.950 . S
C1159 C1161 1.327 . S
C1159 C1165 1.429 . S
C1160 C1152 1.574 . S
C1160 H1155 0.949 . S
C1160 C1166 1.368 1_556 S
C1161 C1145 1.349 . S
C1161 H1153 0.950 . S
C1161 C1159 1.327 . S
C1162 C1150 1.349 . S
C1162 H1156 0.950 . S
C1162 C1163 1.327 . S
C1163 H1157 0.950 . S
C1163 C1162 1.327 . S
C1163 C1167 1.429 . S
C1164 C1147 1.574 . S
C1164 H1158 0.949 . S
C1164 C1168 1.353 1_554 S
C1165 C1146 1.429 1_554 S
C1165 C1159 1.429 . S
C1165 C1166 1.523 . S
C1166 C1147 1.368 . S
C1166 C1160 1.368 1_554 S
C1166 C1165 1.523 . S
C1167 C1151 1.429 1_556 S
C1167 C1163 1.429 . S
C1167 C1168 1.524 . S
C1168 C1152 1.383 . S
C1168 C1164 1.353 1_556 S
C1168 C1167 1.524 . S
H1169 C1144 0.950 . S
H1170 C1146 0.950 . S
H1171 C1147 0.949 . S
H1172 C1149 0.950 . S
H1173 C1151 0.950 . S
C1174 C1175 1.349 . S
C1174 C1176 1.327 . S
C1174 H1199 0.950 . S
C1175 C1174 1.349 . S
C1175 C1191 1.349 1_554 S
C1176 C1174 1.327 . S
C1176 C1195 1.429 . S
C1176 H1200 0.950 . S
C1177 C1194 1.574 . S
C1177 C1196 1.368 1_556 S
C1177 H1201 0.949 . S
H1178 C1182 0.949 . S
C1179 C1180 1.349 . S
C1179 C1181 1.327 . S
C1179 H1202 0.950 . S
C1180 C1179 1.349 . S
C1180 C1192 1.349 1_556 S
C1181 C1179 1.327 . S
C1181 C1197 1.429 . S
C1181 H1203 0.950 . S
C1182 H1178 0.949 . S
C1182 C1190 1.574 . S
C1182 C1198 1.354 1_554 S
H1183 C1191 0.950 . S
H1184 C1189 0.950 . S
H1185 C1190 0.949 . S
H1186 C1192 0.950 . S
H1187 C1193 0.950 . S
H1188 C1194 0.949 . S
C1189 H1184 0.950 . S
C1189 C1191 1.327 . S
C1189 C1195 1.429 1_556 S
C1190 C1182 1.574 . S
C1190 H1185 0.949 . S
C1190 C1196 1.368 . S
C1191 C1175 1.349 1_556 S
C1191 H1183 0.950 . S
C1191 C1189 1.327 . S
C1192 C1180 1.349 1_554 S
C1192 H1186 0.950 . S
C1192 C1193 1.327 . S
C1193 H1187 0.950 . S
C1193 C1192 1.327 . S
C1193 C1197 1.429 1_554 S
C1194 C1177 1.574 . S
C1194 H1188 0.949 . S
C1194 C1198 1.382 . S
C1195 C1176 1.429 . S
C1195 C1189 1.429 1_554 S
C1195 C1196 1.523 . S
C1196 C1177 1.368 1_554 S
C1196 C1190 1.368 . S
C1196 C1195 1.523 . S
C1197 C1181 1.429 . S
C1197 C1193 1.429 1_556 S
C1197 C1198 1.524 . S
C1198 C1182 1.354 1_556 S
C1198 C1194 1.382 . S
C1198 C1197 1.524 . S
H1199 C1174 0.950 . S
H1200 C1176 0.950 . S
H1201 C1177 0.949 . S
H1202 C1179 0.950 . S
H1203 C1181 0.950 . S
C1204 C1205 1.349 . S
C1204 C1206 1.327 . S
C1204 H1229 0.950 . S
C1205 C1204 1.349 . S
C1205 C1221 1.349 1_554 S
C1206 C1204 1.327 . S
C1206 C1225 1.429 . S
C1206 H1230 0.950 . S
C1207 C1224 1.574 . S
C1207 C1226 1.368 1_556 S
C1207 H1231 0.949 . S
H1208 C1212 0.949 . S
C1209 C1210 1.349 . S
C1209 C1211 1.327 . S
C1209 H1232 0.950 . S
C1210 C1209 1.349 . S
C1210 C1222 1.349 1_556 S
C1211 C1209 1.327 . S
C1211 C1227 1.429 . S
C1211 H1233 0.950 . S
C1212 H1208 0.949 . S
C1212 C1220 1.574 . S
C1212 C1228 1.353 1_554 S
H1213 C1221 0.950 . S
H1214 C1219 0.950 . S
H1215 C1220 0.949 . S
H1216 C1222 0.950 . S
H1217 C1223 0.950 . S
H1218 C1224 0.949 . S
C1219 H1214 0.950 . S
C1219 C1221 1.327 . S
C1219 C1225 1.429 1_556 S
C1220 C1212 1.574 . S
C1220 H1215 0.949 . S
C1220 C1226 1.368 . S
C1221 C1205 1.349 1_556 S
C1221 H1213 0.950 . S
C1221 C1219 1.327 . S
C1222 C1210 1.349 1_554 S
C1222 H1216 0.950 . S
C1222 C1223 1.327 . S
C1223 H1217 0.950 . S
C1223 C1222 1.327 . S
C1223 C1227 1.429 1_554 S
C1224 C1207 1.574 . S
C1224 H1218 0.949 . S
C1224 C1228 1.383 . S
C1225 C1206 1.429 . S
C1225 C1219 1.429 1_554 S
C1225 C1226 1.523 . S
C1226 C1207 1.368 1_554 S
C1226 C1220 1.368 . S
C1226 C1225 1.523 . S
C1227 C1211 1.429 . S
C1227 C1223 1.429 1_556 S
C1227 C1228 1.524 . S
C1228 C1212 1.353 1_556 S
C1228 C1224 1.383 . S
C1228 C1227 1.524 . S
H1229 C1204 0.950 . S
H1230 C1206 0.950 . S
H1231 C1207 0.949 . S
H1232 C1209 0.950 . S
H1233 C1211 0.950 . S
C1234 C1235 1.349 1_556 S
C1234 C1236 1.327 . S
C1234 H1259 0.950 . S
C1235 C1234 1.349 1_554 S
C1235 C1251 1.349 . S
C1236 C1234 1.327 . S
C1236 C1255 1.429 1_556 S
C1236 H1260 0.950 . S
C1237 C1254 1.574 . S
C1237 C1256 1.368 . S
C1237 H1261 0.949 . S
H1238 C1242 0.949 . S
C1239 C1240 1.349 1_554 S
C1239 C1241 1.327 . S
C1239 H1262 0.950 . S
C1240 C1239 1.349 1_556 S
C1240 C1252 1.349 . S
C1241 C1239 1.327 . S
C1241 C1257 1.429 1_554 S
C1241 H1263 0.950 . S
C1242 H1238 0.949 . S
C1242 C1250 1.574 . S
C1242 C1258 1.383 . S
H1243 C1251 0.950 . S
H1244 C1249 0.950 . S
H1245 C1250 0.949 . S
H1246 C1252 0.950 . S
H1247 C1253 0.950 . S
H1248 C1254 0.949 . S
C1249 H1244 0.950 . S
C1249 C1251 1.327 . S
C1249 C1255 1.429 . S
C1250 C1242 1.574 . S
C1250 H1245 0.949 . S
C1250 C1256 1.368 1_556 S
C1251 C1235 1.349 . S
C1251 H1243 0.950 . S
C1251 C1249 1.327 . S
C1252 C1240 1.349 . S
C1252 H1246 0.950 . S
C1252 C1253 1.327 . S
C1253 H1247 0.950 . S
C1253 C1252 1.327 . S
C1253 C1257 1.429 . S
C1254 C1237 1.574 . S
C1254 H1248 0.949 . S
C1254 C1258 1.354 1_554 S
C1255 C1236 1.429 1_554 S
C1255 C1249 1.429 . S
C1255 C1256 1.523 . S
C1256 C1237 1.368 . S
C1256 C1250 1.368 1_554 S
C1256 C1255 1.523 . S
C1257 C1241 1.429 1_556 S
C1257 C1253 1.429 . S
C1257 C1258 1.524 . S
C1258 C1242 1.383 . S
C1258 C1254 1.354 1_556 S
C1258 C1257 1.524 . S
H1259 C1234 0.950 . S
H1260 C1236 0.950 . S
H1261 C1237 0.949 . S
H1262 C1239 0.950 . S
H1263 C1241 0.950 . S
C1264 C1265 1.349 . S
C1264 C1266 1.327 . S
C1264 H1289 0.950 . S
C1265 C1264 1.349 . S
C1265 C1281 1.349 . S
C1266 C1264 1.327 . S
C1266 C1285 1.429 . S
C1266 H1290 0.950 . S
C1267 C1284 1.574 . S
C1267 C1286 1.368 1_455 S
C1267 H1291 0.949 . S
H1268 C1272 0.949 . S
C1269 C1270 1.349 . S
C1269 C1271 1.327 . S
C1269 H1292 0.950 . S
C1270 C1269 1.349 . S
C1270 C1282 1.349 . S
C1271 C1269 1.327 . S
C1271 C1287 1.429 . S
C1271 H1293 0.950 . S
C1272 H1268 0.949 . S
C1272 C1280 1.574 . S
C1272 C1288 1.368 1_655 S
H1273 C1281 0.930 1_455 S
H1274 C1279 0.937 1_455 S
H1275 C1280 0.949 . S
H1276 C1282 0.930 1_655 S
H1277 C1283 0.937 1_655 S
H1278 C1284 0.949 . S
C1279 H1274 0.937 1_655 S
C1279 C1281 1.332 . S
C1279 C1285 1.437 . S
C1280 C1272 1.574 . S
C1280 H1275 0.949 . S
C1280 C1286 1.368 . S
C1281 C1265 1.349 . S
C1281 H1273 0.930 1_655 S
C1281 C1279 1.332 . S
C1282 C1270 1.349 . S
C1282 H1276 0.930 1_455 S
C1282 C1283 1.332 . S
C1283 H1277 0.937 1_455 S
C1283 C1282 1.332 . S
C1283 C1287 1.437 . S
C1284 C1267 1.574 . S
C1284 H1278 0.949 . S
C1284 C1288 1.368 . S
C1285 C1266 1.429 . S
C1285 C1279 1.437 . S
C1285 C1286 1.523 . S
C1286 C1267 1.368 1_655 S
C1286 C1280 1.368 . S
C1286 C1285 1.523 . S
C1287 C1271 1.429 . S
C1287 C1283 1.437 . S
C1287 C1288 1.523 . S
C1288 C1272 1.368 1_455 S
C1288 C1284 1.368 . S
C1288 C1287 1.523 . S
H1289 C1264 0.950 . S
H1290 C1266 0.950 . S
H1291 C1267 0.949 . S
H1292 C1269 0.950 . S
H1293 C1271 0.950 . S
C1294 C1295 1.349 1_545 S
C1294 C1296 1.327 . S
C1294 H1319 0.950 . S
C1295 C1294 1.349 1_565 S
C1295 C1311 1.349 . S
C1296 C1294 1.327 . S
C1296 C1315 1.429 1_545 S
C1296 H1320 0.950 . S
C1297 C1314 1.574 . S
C1297 C1316 1.368 . S
C1297 H1321 0.949 . S
H1298 C1302 0.949 . S
C1299 C1300 1.349 1_565 S
C1299 C1301 1.327 . S
C1299 H1322 0.950 . S
C1300 C1299 1.349 1_545 S
C1300 C1312 1.349 . S
C1301 C1299 1.327 . S
C1301 C1317 1.429 1_565 S
C1301 H1323 0.950 . S
C1302 H1298 0.949 . S
C1302 C1310 1.574 . S
C1302 C1318 1.368 . S
H1303 C1311 0.950 . S
H1304 C1309 0.950 . S
H1305 C1310 0.949 . S
H1306 C1312 0.950 . S
H1307 C1313 0.950 . S
H1308 C1314 0.949 . S
C1309 H1304 0.950 . S
C1309 C1311 1.327 . S
C1309 C1315 1.429 . S
C1310 C1302 1.574 . S
C1310 H1305 0.949 . S
C1310 C1316 1.368 1_545 S
C1311 C1295 1.349 . S
C1311 H1303 0.950 . S
C1311 C1309 1.327 . S
C1312 C1300 1.349 . S
C1312 H1306 0.950 . S
C1312 C1313 1.327 . S
C1313 H1307 0.950 . S
C1313 C1312 1.327 . S
C1313 C1317 1.429 . S
C1314 C1297 1.574 . S
C1314 H1308 0.949 . S
C1314 C1318 1.368 1_565 S
C1315 C1296 1.429 1_565 S
C1315 C1309 1.429 . S
C1315 C1316 1.523 . S
C1316 C1297 1.368 . S
C1316 C1310 1.368 1_565 S
C1316 C1315 1.523 . S
C1317 C1301 1.429 1_545 S
C1317 C1313 1.429 . S
C1317 C1318 1.523 . S
C1318 C1302 1.368 . S
C1318 C1314 1.368 1_545 S
C1318 C1317 1.523 . S
H1319 C1294 0.950 . S
H1320 C1296 0.950 . S
H1321 C1297 0.949 . S
H1322 C1299 0.950 . S
H1323 C1301 0.950 . S
C1324 C1325 1.349 . S
C1324 C1326 1.332 . S
C1324 H1349 0.930 1_655 S
C1325 C1324 1.349 . S
C1325 C1341 1.349 . S
C1326 C1324 1.332 . S
C1326 C1345 1.437 . S
C1326 H1350 0.937 1_655 S
C1327 C1344 1.574 . S
C1327 C1346 1.368 . S
C1327 H1351 0.949 . S
H1328 C1332 0.949 . S
C1329 C1330 1.349 . S
C1329 C1331 1.332 . S
C1329 H1352 0.930 1_455 S
C1330 C1329 1.349 . S
C1330 C1342 1.349 . S
C1331 C1329 1.332 . S
C1331 C1347 1.437 . S
C1331 H1353 0.937 1_455 S
C1332 H1328 0.949 . S
C1332 C1340 1.574 . S
C1332 C1348 1.368 . S
H1333 C1341 0.950 . S
H1334 C1339 0.950 . S
H1335 C1340 0.949 . S
H1336 C1342 0.950 . S
H1337 C1343 0.950 . S
H1338 C1344 0.949 . S
C1339 H1334 0.950 . S
C1339 C1341 1.327 . S
C1339 C1345 1.429 . S
C1340 C1332 1.574 . S
C1340 H1335 0.949 . S
C1340 C1346 1.368 1_455 S
C1341 C1325 1.349 . S
C1341 H1333 0.950 . S
C1341 C1339 1.327 . S
C1342 C1330 1.349 . S
C1342 H1336 0.950 . S
C1342 C1343 1.327 . S
C1343 H1337 0.950 . S
C1343 C1342 1.327 . S
C1343 C1347 1.429 . S
C1344 C1327 1.574 . S
C1344 H1338 0.949 . S
C1344 C1348 1.368 1_655 S
C1345 C1326 1.437 . S
C1345 C1339 1.429 . S
C1345 C1346 1.523 . S
C1346 C1327 1.368 . S
C1346 C1340 1.368 1_655 S
C1346 C1345 1.523 . S
C1347 C1331 1.437 . S
C1347 C1343 1.429 . S
C1347 C1348 1.523 . S
C1348 C1332 1.368 . S
C1348 C1344 1.368 1_455 S
C1348 C1347 1.523 . S
H1349 C1324 0.930 1_455 S
H1350 C1326 0.937 1_455 S
H1351 C1327 0.949 . S
H1352 C1329 0.930 1_655 S
H1353 C1331 0.937 1_655 S
C1354 C1355 1.344 1_565 S
C1354 C1356 1.328 . S
C1354 H1379 0.954 . S
C1355 C1354 1.344 1_545 S
C1355 C1371 1.349 . S
C1356 C1354 1.328 . S
C1356 C1375 1.429 1_565 S
C1356 H1380 0.950 . S
C1357 C1374 1.574 . S
C1357 C1376 1.368 . S
C1357 H1381 0.949 . S
H1358 C1362 0.949 . S
C1359 C1360 1.344 1_545 S
C1359 C1361 1.328 . S
C1359 H1382 0.954 . S
C1360 C1359 1.344 1_565 S
C1360 C1372 1.349 . S
C1361 C1359 1.328 . S
C1361 C1377 1.429 1_545 S
C1361 H1383 0.950 . S
C1362 H1358 0.949 . S
C1362 C1370 1.574 . S
C1362 C1378 1.368 . S
H1363 C1371 0.950 . S
H1364 C1369 0.950 . S
H1365 C1370 0.949 . S
H1366 C1372 0.950 . S
H1367 C1373 0.950 . S
H1368 C1374 0.949 . S
C1369 H1364 0.950 . S
C1369 C1371 1.327 . S
C1369 C1375 1.429 . S
C1370 C1362 1.574 . S
C1370 H1365 0.949 . S
C1370 C1376 1.368 1_565 S
C1371 C1355 1.349 . S
C1371 H1363 0.950 . S
C1371 C1369 1.327 . S
C1372 C1360 1.349 . S
C1372 H1366 0.950 . S
C1372 C1373 1.327 . S
C1373 H1367 0.950 . S
C1373 C1372 1.327 . S
C1373 C1377 1.429 . S
C1374 C1357 1.574 . S
C1374 H1368 0.949 . S
C1374 C1378 1.368 1_545 S
C1375 C1356 1.429 1_545 S
C1375 C1369 1.429 . S
C1375 C1376 1.523 . S
C1376 C1357 1.368 . S
C1376 C1370 1.368 1_545 S
C1376 C1375 1.523 . S
C1377 C1361 1.429 1_565 S
C1377 C1373 1.429 . S
C1377 C1378 1.523 . S
C1378 C1362 1.368 . S
C1378 C1374 1.368 1_565 S
C1378 C1377 1.523 . S
H1379 C1354 0.954 . S
H1380 C1356 0.950 . S
H1381 C1357 0.949 . S
H1382 C1359 0.954 . S
H1383 C1361 0.950 . S
C1384 C1385 1.349 . S
C1384 C1386 1.327 . S
C1384 H1409 0.950 . S
C1385 C1384 1.349 . S
C1385 C1401 1.349 1_655 S
C1386 C1384 1.327 . S
C1386 C1405 1.429 . S
C1386 H1410 0.950 . S
C1387 C1404 1.574 . S
C1387 C1406 1.368 1_455 S
C1387 H1411 0.949 . S
H1388 C1392 0.949 . S
C1389 C1390 1.349 . S
C1389 C1391 1.327 . S
C1389 H1412 0.950 . S
C1390 C1389 1.349 . S
C1390 C1402 1.349 1_455 S
C1391 C1389 1.327 . S
C1391 C1407 1.429 . S
C1391 H1413 0.950 . S
C1392 H1388 0.949 . S
C1392 C1400 1.574 . S
C1392 C1408 1.368 1_655 S
H1393 C1401 0.950 . S
H1394 C1399 0.950 . S
H1395 C1400 0.949 . S
H1396 C1402 0.950 . S
H1397 C1403 0.950 . S
H1398 C1404 0.949 . S
C1399 H1394 0.950 . S
C1399 C1401 1.327 . S
C1399 C1405 1.429 1_455 S
C1400 C1392 1.574 . S
C1400 H1395 0.949 . S
C1400 C1406 1.368 . S
C1401 C1385 1.349 1_455 S
C1401 H1393 0.950 . S
C1401 C1399 1.327 . S
C1402 C1390 1.349 1_655 S
C1402 H1396 0.950 . S
C1402 C1403 1.327 . S
C1403 H1397 0.950 . S
C1403 C1402 1.327 . S
C1403 C1407 1.429 1_655 S
C1404 C1387 1.574 . S
C1404 H1398 0.949 . S
C1404 C1408 1.368 . S
C1405 C1386 1.429 . S
C1405 C1399 1.429 1_655 S
C1405 C1406 1.523 . S
C1406 C1387 1.368 1_655 S
C1406 C1400 1.368 . S
C1406 C1405 1.523 . S
C1407 C1391 1.429 . S
C1407 C1403 1.429 1_455 S
C1407 C1408 1.523 . S
C1408 C1392 1.368 1_455 S
C1408 C1404 1.368 . S
C1408 C1407 1.523 . S
H1409 C1384 0.950 . S
H1410 C1386 0.950 . S
H1411 C1387 0.949 . S
H1412 C1389 0.950 . S
H1413 C1391 0.950 . S
C1414 C1415 1.349 1_565 S
C1414 C1416 1.327 . S
C1414 H1439 0.950 . S
C1415 C1414 1.349 1_545 S
C1415 C1431 1.349 . S
C1416 C1414 1.327 . S
C1416 C1435 1.429 1_565 S
C1416 H1440 0.950 . S
C1417 C1434 1.574 . S
C1417 C1436 1.368 . S
C1417 H1441 0.949 . S
H1418 C1422 0.949 . S
C1419 C1420 1.349 1_545 S
C1419 C1421 1.327 . S
C1419 H1442 0.950 . S
C1420 C1419 1.349 1_565 S
C1420 C1432 1.349 . S
C1421 C1419 1.327 . S
C1421 C1437 1.429 1_545 S
C1421 H1443 0.950 . S
C1422 H1418 0.949 . S
C1422 C1430 1.574 . S
C1422 C1438 1.368 . S
H1423 C1431 0.950 . S
H1424 C1429 0.950 . S
H1425 C1430 0.949 . S
H1426 C1432 0.950 . S
H1427 C1433 0.950 . S
H1428 C1434 0.949 . S
C1429 H1424 0.950 . S
C1429 C1431 1.327 . S
C1429 C1435 1.429 . S
C1430 C1422 1.574 . S
C1430 H1425 0.949 . S
C1430 C1436 1.368 1_565 S
C1431 C1415 1.349 . S
C1431 H1423 0.950 . S
C1431 C1429 1.327 . S
C1432 C1420 1.349 . S
C1432 H1426 0.950 . S
C1432 C1433 1.327 . S
C1433 H1427 0.950 . S
C1433 C1432 1.327 . S
C1433 C1437 1.429 . S
C1434 C1417 1.574 . S
C1434 H1428 0.949 . S
C1434 C1438 1.368 1_545 S
C1435 C1416 1.429 1_545 S
C1435 C1429 1.429 . S
C1435 C1436 1.523 . S
C1436 C1417 1.368 . S
C1436 C1430 1.368 1_545 S
C1436 C1435 1.523 . S
C1437 C1421 1.429 1_565 S
C1437 C1433 1.429 . S
C1437 C1438 1.523 . S
C1438 C1422 1.368 . S
C1438 C1434 1.368 1_565 S
C1438 C1437 1.523 . S
H1439 C1414 0.950 . S
H1440 C1416 0.950 . S
H1441 C1417 0.949 . S
H1442 C1419 0.950 . S
H1443 C1421 0.950 . S
C1444 C1445 1.349 1_655 S
C1444 C1446 1.327 . S
C1444 H1469 0.950 . S
C1445 C1444 1.349 1_455 S
C1445 C1461 1.349 . S
C1446 C1444 1.327 . S
C1446 C1465 1.429 1_655 S
C1446 H1470 0.950 . S
C1447 C1464 1.574 . S
C1447 C1466 1.368 . S
C1447 H1471 0.949 . S
H1448 C1452 0.949 . S
C1449 C1450 1.349 1_455 S
C1449 C1451 1.327 . S
C1449 H1472 0.950 . S
C1450 C1449 1.349 1_655 S
C1450 C1462 1.349 . S
C1451 C1449 1.327 . S
C1451 C1467 1.429 1_455 S
C1451 H1473 0.950 . S
C1452 H1448 0.949 . S
C1452 C1460 1.574 . S
C1452 C1468 1.368 . S
H1453 C1461 0.950 . S
H1454 C1459 0.950 . S
H1455 C1460 0.949 . S
H1456 C1462 0.950 . S
H1457 C1463 0.950 . S
H1458 C1464 0.949 . S
C1459 H1454 0.950 . S
C1459 C1461 1.327 . S
C1459 C1465 1.429 . S
C1460 C1452 1.574 . S
C1460 H1455 0.949 . S
C1460 C1466 1.368 1_655 S
C1461 C1445 1.349 . S
C1461 H1453 0.950 . S
C1461 C1459 1.327 . S
C1462 C1450 1.349 . S
C1462 H1456 0.950 . S
C1462 C1463 1.327 . S
C1463 H1457 0.950 . S
C1463 C1462 1.327 . S
C1463 C1467 1.429 . S
C1464 C1447 1.574 . S
C1464 H1458 0.949 . S
C1464 C1468 1.368 1_455 S
C1465 C1446 1.429 1_455 S
C1465 C1459 1.429 . S
C1465 C1466 1.523 . S
C1466 C1447 1.368 . S
C1466 C1460 1.368 1_455 S
C1466 C1465 1.523 . S
C1467 C1451 1.429 1_655 S
C1467 C1463 1.429 . S
C1467 C1468 1.523 . S
C1468 C1452 1.368 . S
C1468 C1464 1.368 1_655 S
C1468 C1467 1.523 . S
H1469 C1444 0.950 . S
H1470 C1446 0.950 . S
H1471 C1447 0.949 . S
H1472 C1449 0.950 . S
H1473 C1451 0.950 . S
C1474 C1475 1.349 . S
C1474 C1476 1.327 . S
C1474 H1499 0.950 . S
C1475 C1474 1.349 . S
C1475 C1491 1.349 1_565 S
C1476 C1474 1.327 . S
C1476 C1495 1.429 . S
C1476 H1500 0.950 . S
C1477 C1494 1.574 . S
C1477 C1496 1.368 1_545 S
C1477 H1501 0.949 . S
H1478 C1482 0.949 . S
C1479 C1480 1.349 . S
C1479 C1481 1.327 . S
C1479 H1502 0.950 . S
C1480 C1479 1.349 . S
C1480 C1492 1.349 1_545 S
C1481 C1479 1.327 . S
C1481 C1497 1.429 . S
C1481 H1503 0.950 . S
C1482 H1478 0.949 . S
C1482 C1490 1.574 . S
C1482 C1498 1.368 1_565 S
H1483 C1491 0.950 . S
H1484 C1489 0.950 . S
H1485 C1490 0.949 . S
H1486 C1492 0.950 . S
H1487 C1493 0.950 . S
H1488 C1494 0.949 . S
C1489 H1484 0.950 . S
C1489 C1491 1.327 . S
C1489 C1495 1.429 1_545 S
C1490 C1482 1.574 . S
C1490 H1485 0.949 . S
C1490 C1496 1.368 . S
C1491 C1475 1.349 1_545 S
C1491 H1483 0.950 . S
C1491 C1489 1.327 . S
C1492 C1480 1.349 1_565 S
C1492 H1486 0.950 . S
C1492 C1493 1.327 . S
C1493 H1487 0.950 . S
C1493 C1492 1.327 . S
C1493 C1497 1.429 1_565 S
C1494 C1477 1.574 . S
C1494 H1488 0.949 . S
C1494 C1498 1.368 . S
C1495 C1476 1.429 . S
C1495 C1489 1.429 1_565 S
C1495 C1496 1.523 . S
C1496 C1477 1.368 1_565 S
C1496 C1490 1.368 . S
C1496 C1495 1.523 . S
C1497 C1481 1.429 . S
C1497 C1493 1.429 1_545 S
C1497 C1498 1.523 . S
C1498 C1482 1.368 1_545 S
C1498 C1494 1.368 . S
C1498 C1497 1.523 . S
H1499 C1474 0.950 . S
H1500 C1476 0.950 . S
H1501 C1477 0.949 . S
H1502 C1479 0.950 . S
H1503 C1481 0.950 . S
C1504 C1505 1.349 . S
C1504 C1506 1.327 . S
C1504 H1529 0.950 . S
C1505 C1504 1.349 . S
C1505 C1521 1.349 . S
C1506 C1504 1.327 . S
C1506 C1525 1.429 . S
C1506 H1530 0.950 . S
C1507 C1524 1.574 . S
C1507 C1526 1.368 . S
C1507 H1531 0.949 . S
H1508 C1512 0.949 . S
C1509 C1510 1.349 . S
C1509 C1511 1.327 . S
C1509 H1532 0.950 . S
C1510 C1509 1.349 . S
C1510 C1522 1.349 . S
C1511 C1509 1.327 . S
C1511 C1527 1.429 . S
C1511 H1533 0.950 . S
C1512 H1508 0.949 . S
C1512 C1520 1.574 . S
C1512 C1528 1.368 . S
H1513 C1521 0.950 . S
H1514 C1519 0.950 . S
H1515 C1520 0.949 . S
H1516 C1522 0.950 . S
H1517 C1523 0.950 . S
H1518 C1524 0.949 . S
C1519 H1514 0.950 . S
C1519 C1521 1.327 . S
C1519 C1525 1.429 . S
C1520 C1512 1.574 . S
C1520 H1515 0.949 . S
C1520 C1526 1.368 . S
C1521 C1505 1.349 . S
C1521 H1513 0.950 . S
C1521 C1519 1.327 . S
C1522 C1510 1.349 . S
C1522 H1516 0.950 . S
C1522 C1523 1.327 . S
C1523 H1517 0.950 . S
C1523 C1522 1.327 . S
C1523 C1527 1.429 . S
C1524 C1507 1.574 . S
C1524 H1518 0.949 . S
C1524 C1528 1.368 . S
C1525 C1506 1.429 . S
C1525 C1519 1.429 . S
C1525 C1526 1.523 . S
C1526 C1507 1.368 . S
C1526 C1520 1.368 . S
C1526 C1525 1.523 . S
C1527 C1511 1.429 . S
C1527 C1523 1.429 . S
C1527 C1528 1.523 . S
C1528 C1512 1.368 . S
C1528 C1524 1.368 . S
C1528 C1527 1.523 . S
H1529 C1504 0.950 . S
H1530 C1506 0.950 . S
H1531 C1507 0.949 . S
H1532 C1509 0.950 . S
H1533 C1511 0.950 . S
C1534 C1535 1.349 . S
C1534 C1536 1.327 . S
C1534 H1559 0.950 . S
C1535 C1534 1.349 . S
C1535 C1551 1.349 . S
C1536 C1534 1.327 . S
C1536 C1555 1.429 . S
C1536 H1560 0.950 . S
C1537 C1554 1.574 . S
C1537 C1556 1.368 . S
C1537 H1561 0.949 . S
H1538 C1542 0.949 . S
C1539 C1540 1.349 . S
C1539 C1541 1.327 . S
C1539 H1562 0.950 . S
C1540 C1539 1.349 . S
C1540 C1552 1.349 . S
C1541 C1539 1.327 . S
C1541 C1557 1.429 . S
C1541 H1563 0.950 . S
C1542 H1538 0.949 . S
C1542 C1550 1.574 . S
C1542 C1558 1.368 . S
H1543 C1551 0.950 . S
H1544 C1549 0.950 . S
H1545 C1550 0.949 . S
H1546 C1552 0.950 . S
H1547 C1553 0.950 . S
H1548 C1554 0.949 . S
C1549 H1544 0.950 . S
C1549 C1551 1.327 . S
C1549 C1555 1.429 . S
C1550 C1542 1.574 . S
C1550 H1545 0.949 . S
C1550 C1556 1.368 . S
C1551 C1535 1.349 . S
C1551 H1543 0.950 . S
C1551 C1549 1.327 . S
C1552 C1540 1.349 . S
C1552 H1546 0.950 . S
C1552 C1553 1.327 . S
C1553 H1547 0.950 . S
C1553 C1552 1.327 . S
C1553 C1557 1.429 . S
C1554 C1537 1.574 . S
C1554 H1548 0.949 . S
C1554 C1558 1.368 . S
C1555 C1536 1.429 . S
C1555 C1549 1.429 . S
C1555 C1556 1.523 . S
C1556 C1537 1.368 . S
C1556 C1550 1.368 . S
C1556 C1555 1.523 . S
C1557 C1541 1.429 . S
C1557 C1553 1.429 . S
C1557 C1558 1.523 . S
C1558 C1542 1.368 . S
C1558 C1554 1.368 . S
C1558 C1557 1.523 . S
H1559 C1534 0.950 . S
H1560 C1536 0.950 . S
H1561 C1537 0.949 . S
H1562 C1539 0.950 . S
H1563 C1541 0.950 . S
C1564 C1565 1.349 . S
C1564 C1566 1.327 . S
C1564 H1589 0.950 . S
C1565 C1564 1.349 . S
C1565 C1581 1.349 . S
C1566 C1564 1.327 . S
C1566 C1585 1.429 . S
C1566 H1590 0.950 . S
C1567 C1584 1.574 . S
C1567 C1586 1.368 . S
C1567 H1591 0.949 . S
H1568 C1572 0.949 . S
C1569 C1570 1.349 . S
C1569 C1571 1.327 . S
C1569 H1592 0.950 . S
C1570 C1569 1.349 . S
C1570 C1582 1.349 . S
C1571 C1569 1.327 . S
C1571 C1587 1.429 . S
C1571 H1593 0.950 . S
C1572 H1568 0.949 . S
C1572 C1580 1.574 . S
C1572 C1588 1.368 . S
H1573 C1581 0.950 . S
H1574 C1579 0.950 . S
H1575 C1580 0.949 . S
H1576 C1582 0.950 . S
H1577 C1583 0.950 . S
H1578 C1584 0.949 . S
C1579 H1574 0.950 . S
C1579 C1581 1.327 . S
C1579 C1585 1.429 . S
C1580 C1572 1.574 . S
C1580 H1575 0.949 . S
C1580 C1586 1.368 . S
C1581 C1565 1.349 . S
C1581 H1573 0.950 . S
C1581 C1579 1.327 . S
C1582 C1570 1.349 . S
C1582 H1576 0.950 . S
C1582 C1583 1.327 . S
C1583 H1577 0.950 . S
C1583 C1582 1.327 . S
C1583 C1587 1.429 . S
C1584 C1567 1.574 . S
C1584 H1578 0.949 . S
C1584 C1588 1.368 . S
C1585 C1566 1.429 . S
C1585 C1579 1.429 . S
C1585 C1586 1.523 . S
C1586 C1567 1.368 . S
C1586 C1580 1.368 . S
C1586 C1585 1.523 . S
C1587 C1571 1.429 . S
C1587 C1583 1.429 . S
C1587 C1588 1.523 . S
C1588 C1572 1.368 . S
C1588 C1584 1.368 . S
C1588 C1587 1.523 . S
H1589 C1564 0.950 . S
H1590 C1566 0.950 . S
H1591 C1567 0.949 . S
H1592 C1569 0.950 . S
H1593 C1571 0.950 . S
C1594 C1595 1.349 . S
C1594 C1596 1.327 . S
C1594 H1619 0.950 . S
C1595 C1594 1.349 . S
C1595 C1611 1.349 . S
C1596 C1594 1.327 . S
C1596 C1615 1.429 . S
C1596 H1620 0.950 . S
C1597 C1614 1.574 . S
C1597 C1616 1.368 . S
C1597 H1621 0.949 . S
H1598 C1602 0.949 . S
C1599 C1600 1.349 . S
C1599 C1601 1.327 . S
C1599 H1622 0.950 . S
C1600 C1599 1.349 . S
C1600 C1612 1.349 . S
C1601 C1599 1.327 . S
C1601 C1617 1.429 . S
C1601 H1623 0.950 . S
C1602 H1598 0.949 . S
C1602 C1610 1.574 . S
C1602 C1618 1.368 . S
H1603 C1611 0.950 . S
H1604 C1609 0.950 . S
H1605 C1610 0.949 . S
H1606 C1612 0.950 . S
H1607 C1613 0.950 . S
H1608 C1614 0.949 . S
C1609 H1604 0.950 . S
C1609 C1611 1.327 . S
C1609 C1615 1.429 . S
C1610 C1602 1.574 . S
C1610 H1605 0.949 . S
C1610 C1616 1.368 . S
C1611 C1595 1.349 . S
C1611 H1603 0.950 . S
C1611 C1609 1.327 . S
C1612 C1600 1.349 . S
C1612 H1606 0.950 . S
C1612 C1613 1.327 . S
C1613 H1607 0.950 . S
C1613 C1612 1.327 . S
C1613 C1617 1.429 . S
C1614 C1597 1.574 . S
C1614 H1608 0.949 . S
C1614 C1618 1.368 . S
C1615 C1596 1.429 . S
C1615 C1609 1.429 . S
C1615 C1616 1.523 . S
C1616 C1597 1.368 . S
C1616 C1610 1.368 . S
C1616 C1615 1.523 . S
C1617 C1601 1.429 . S
C1617 C1613 1.429 . S
C1617 C1618 1.523 . S
C1618 C1602 1.368 . S
C1618 C1614 1.368 . S
C1618 C1617 1.523 . S
H1619 C1594 0.950 . S
H1620 C1596 0.950 . S
H1621 C1597 0.949 . S
H1622 C1599 0.950 . S
H1623 C1601 0.950 . S
C1624 C1625 1.349 . S
C1624 C1626 1.327 . S
C1624 H1649 0.950 . S
C1625 C1624 1.349 . S
C1625 C1641 1.349 . S
C1626 C1624 1.327 . S
C1626 C1645 1.429 . S
C1626 H1650 0.950 . S
C1627 C1644 1.574 . S
C1627 C1646 1.368 . S
C1627 H1651 0.949 . S
H1628 C1632 0.949 . S
C1629 C1630 1.349 . S
C1629 C1631 1.327 . S
C1629 H1652 0.950 . S
C1630 C1629 1.349 . S
C1630 C1642 1.349 . S
C1631 C1629 1.327 . S
C1631 C1647 1.429 . S
C1631 H1653 0.950 . S
C1632 H1628 0.949 . S
C1632 C1640 1.574 . S
C1632 C1648 1.368 . S
H1633 C1641 0.950 . S
H1634 C1639 0.950 . S
H1635 C1640 0.949 . S
H1636 C1642 0.950 . S
H1637 C1643 0.950 . S
H1638 C1644 0.949 . S
C1639 H1634 0.950 . S
C1639 C1641 1.327 . S
C1639 C1645 1.429 . S
C1640 C1632 1.574 . S
C1640 H1635 0.949 . S
C1640 C1646 1.368 . S
C1641 C1625 1.349 . S
C1641 H1633 0.950 . S
C1641 C1639 1.327 . S
C1642 C1630 1.349 . S
C1642 H1636 0.950 . S
C1642 C1643 1.327 . S
C1643 H1637 0.950 . S
C1643 C1642 1.327 . S
C1643 C1647 1.429 . S
C1644 C1627 1.574 . S
C1644 H1638 0.949 . S
C1644 C1648 1.368 . S
C1645 C1626 1.429 . S
C1645 C1639 1.429 . S
C1645 C1646 1.523 . S
C1646 C1627 1.368 . S
C1646 C1640 1.368 . S
C1646 C1645 1.523 . S
C1647 C1631 1.429 . S
C1647 C1643 1.429 . S
C1647 C1648 1.523 . S
C1648 C1632 1.368 . S
C1648 C1644 1.368 . S
C1648 C1647 1.523 . S
H1649 C1624 0.950 . S
H1650 C1626 0.950 . S
H1651 C1627 0.949 . S
H1652 C1629 0.950 . S
H1653 C1631 0.950 . S
C1654 C1655 1.349 . S
C1654 C1656 1.327 . S
C1654 H1679 0.950 . S
C1655 C1654 1.349 . S
C1655 C1671 1.349 . S
C1656 C1654 1.327 . S
C1656 C1675 1.429 . S
C1656 H1680 0.950 . S
C1657 C1674 1.574 . S
C1657 C1676 1.368 . S
C1657 H1681 0.949 . S
H1658 C1662 0.949 . S
C1659 C1660 1.349 . S
C1659 C1661 1.327 . S
C1659 H1682 0.950 . S
C1660 C1659 1.349 . S
C1660 C1672 1.349 . S
C1661 C1659 1.327 . S
C1661 C1677 1.429 . S
C1661 H1683 0.950 . S
C1662 H1658 0.949 . S
C1662 C1670 1.574 . S
C1662 C1678 1.368 . S
H1663 C1671 0.950 . S
H1664 C1669 0.950 . S
H1665 C1670 0.949 . S
H1666 C1672 0.950 . S
H1667 C1673 0.950 . S
H1668 C1674 0.949 . S
C1669 H1664 0.950 . S
C1669 C1671 1.327 . S
C1669 C1675 1.429 . S
C1670 C1662 1.574 . S
C1670 H1665 0.949 . S
C1670 C1676 1.368 . S
C1671 C1655 1.349 . S
C1671 H1663 0.950 . S
C1671 C1669 1.327 . S
C1672 C1660 1.349 . S
C1672 H1666 0.950 . S
C1672 C1673 1.327 . S
C1673 H1667 0.950 . S
C1673 C1672 1.327 . S
C1673 C1677 1.429 . S
C1674 C1657 1.574 . S
C1674 H1668 0.949 . S
C1674 C1678 1.368 . S
C1675 C1656 1.429 . S
C1675 C1669 1.429 . S
C1675 C1676 1.523 . S
C1676 C1657 1.368 . S
C1676 C1670 1.368 . S
C1676 C1675 1.523 . S
C1677 C1661 1.429 . S
C1677 C1673 1.429 . S
C1677 C1678 1.523 . S
C1678 C1662 1.368 . S
C1678 C1674 1.368 . S
C1678 C1677 1.523 . S
H1679 C1654 0.950 . S
H1680 C1656 0.950 . S
H1681 C1657 0.949 . S
H1682 C1659 0.950 . S
H1683 C1661 0.950 . S
C1684 C1685 1.349 . S
C1684 C1686 1.327 . S
C1684 H1709 0.950 . S
C1685 C1684 1.349 . S
C1685 C1701 1.349 . S
C1686 C1684 1.327 . S
C1686 C1705 1.429 . S
C1686 H1710 0.950 . S
C1687 C1704 1.574 . S
C1687 C1706 1.368 . S
C1687 H1711 0.949 . S
H1688 C1692 0.949 . S
C1689 C1690 1.349 . S
C1689 C1691 1.327 . S
C1689 H1712 0.950 . S
C1690 C1689 1.349 . S
C1690 C1702 1.349 . S
C1691 C1689 1.327 . S
C1691 C1707 1.429 . S
C1691 H1713 0.950 . S
C1692 H1688 0.949 . S
C1692 C1700 1.574 . S
C1692 C1708 1.368 . S
H1693 C1701 0.950 . S
H1694 C1699 0.950 . S
H1695 C1700 0.949 . S
H1696 C1702 0.950 . S
H1697 C1703 0.950 . S
H1698 C1704 0.949 . S
C1699 H1694 0.950 . S
C1699 C1701 1.327 . S
C1699 C1705 1.429 . S
C1700 C1692 1.574 . S
C1700 H1695 0.949 . S
C1700 C1706 1.368 . S
C1701 C1685 1.349 . S
C1701 H1693 0.950 . S
C1701 C1699 1.327 . S
C1702 C1690 1.349 . S
C1702 H1696 0.950 . S
C1702 C1703 1.327 . S
C1703 H1697 0.950 . S
C1703 C1702 1.327 . S
C1703 C1707 1.429 . S
C1704 C1687 1.574 . S
C1704 H1698 0.949 . S
C1704 C1708 1.368 . S
C1705 C1686 1.429 . S
C1705 C1699 1.429 . S
C1705 C1706 1.523 . S
C1706 C1687 1.368 . S
C1706 C1700 1.368 . S
C1706 C1705 1.523 . S
C1707 C1691 1.429 . S
C1707 C1703 1.429 . S
C1707 C1708 1.523 . S
C1708 C1692 1.368 . S
C1708 C1704 1.368 . S
C1708 C1707 1.523 . S
H1709 C1684 0.950 . S
H1710 C1686 0.950 . S
H1711 C1687 0.949 . S
H1712 C1689 0.950 . S
H1713 C1691 0.950 . S
C1714 C1715 1.349 . S
C1714 C1716 1.327 . S
C1714 H1739 0.950 . S
C1715 C1714 1.349 . S
C1715 C1731 1.349 . S
C1716 C1714 1.327 . S
C1716 C1735 1.429 . S
C1716 H1740 0.950 . S
C1717 C1734 1.574 . S
C1717 C1736 1.368 . S
C1717 H1741 0.949 . S
H1718 C1722 0.949 . S
C1719 C1720 1.349 . S
C1719 C1721 1.327 . S
C1719 H1742 0.950 . S
C1720 C1719 1.349 . S
C1720 C1732 1.349 . S
C1721 C1719 1.327 . S
C1721 C1737 1.429 . S
C1721 H1743 0.950 . S
C1722 H1718 0.949 . S
C1722 C1730 1.574 . S
C1722 C1738 1.368 . S
H1723 C1731 0.950 . S
H1724 C1729 0.950 . S
H1725 C1730 0.949 . S
H1726 C1732 0.950 . S
H1727 C1733 0.950 . S
H1728 C1734 0.949 . S
C1729 H1724 0.950 . S
C1729 C1731 1.327 . S
C1729 C1735 1.429 . S
C1730 C1722 1.574 . S
C1730 H1725 0.949 . S
C1730 C1736 1.368 . S
C1731 C1715 1.349 . S
C1731 H1723 0.950 . S
C1731 C1729 1.327 . S
C1732 C1720 1.349 . S
C1732 H1726 0.950 . S
C1732 C1733 1.327 . S
C1733 H1727 0.950 . S
C1733 C1732 1.327 . S
C1733 C1737 1.429 . S
C1734 C1717 1.574 . S
C1734 H1728 0.949 . S
C1734 C1738 1.368 . S
C1735 C1716 1.429 . S
C1735 C1729 1.429 . S
C1735 C1736 1.523 . S
C1736 C1717 1.368 . S
C1736 C1730 1.368 . S
C1736 C1735 1.523 . S
C1737 C1721 1.429 . S
C1737 C1733 1.429 . S
C1737 C1738 1.523 . S
C1738 C1722 1.368 . S
C1738 C1734 1.368 . S
C1738 C1737 1.523 . S
H1739 C1714 0.950 . S
H1740 C1716 0.950 . S
H1741 C1717 0.949 . S
H1742 C1719 0.950 . S
H1743 C1721 0.950 . S
C545 C9 1.388 . S
C550 C519 1.388 . S
C575 C43 1.388 . S
C580 C417 1.388 . S
C605 C451 1.388 . S
C610 C77 1.388 . S
C635 C111 1.388 . S
C640 C485 1.388 . S
C665 C145 1.388 . S
C670 C315 1.388 . S
C695 C349 1.388 . S
C700 C179 1.388 . S
C725 C383 1.388 . S
C730 C213 1.388 . S
C755 C281 1.388 . S
C760 C247 1.388 . S
C785 C107 1.521 . S
C790 C33 1.525 . S
C815 C5 1.521 . S
C820 C67 1.525 . S
C845 C101 1.525 . S
C850 C39 1.521 . S
C875 C135 1.525 . S
C880 C73 1.521 . S
C905 C175 1.521 . S
C910 C169 1.525 . S
C935 C209 1.521 . S
C940 C203 1.525 . S
C965 C243 1.521 . S
C970 C237 1.525 . S
C995 C141 1.521 . S
C1000 C271 1.525 . S
C1025 C379 1.521 . S
C1030 C305 1.525 . S
C1055 C339 1.525 . S
C1060 C277 1.521 . S
C1085 C311 1.521 . S
C1090 C373 1.525 . S
C1115 C345 1.521 . S
C1120 C407 1.525 . S
C1145 C447 1.521 . S
C1150 C441 1.525 . S
C1175 C481 1.521 . S
C1180 C475 1.525 . S
C1205 C515 1.521 . S
C1210 C509 1.525 . S
C1235 C413 1.521 . S
C1240 C543 1.525 . S
C1265 C206 1.343 . S
C1270 C2 1.343 . S
C1295 C240 1.343 . S
C1300 C36 1.343 . S
C1325 C70 1.343 . S
C1330 C138 1.343 . S
C1355 C172 1.343 . S
C1360 C104 1.343 . S
C1385 C88 1.479 . S
C1390 C156 1.479 . S
C1415 C190 1.479 . S
C1420 C122 1.479 . S
C1445 C20 1.479 . S
C1450 C224 1.479 . S
C1475 C258 1.479 . S
C1480 C54 1.479 . S
C1505 C478 1.343 . S
C1510 C274 1.343 . S
C1535 C512 1.343 . S
C1540 C308 1.343 . S
C1565 C410 1.343 . S
C1570 C342 1.343 . S
C1595 C376 1.343 . S
C1600 C444 1.343 . S
C1625 C428 1.480 . S
C1630 C360 1.480 . S
C1655 C394 1.480 . S
C1660 C462 1.480 . S
C1685 C292 1.480 . S
C1690 C496 1.480 . S
C1715 C530 1.480 . S
C1720 C326 1.480 . S
