# Generated by pormake.
# Topology wiu, (6)-cn, num edge types: 1
# Building blocks:
#     Node 0, Type 0, BuildingBlock: UKALOJ_clean_sbu_0, # of connection points: 6
#     Node 1, Type 0, BuildingBlock: UKALOJ_clean_sbu_0, # of connection points: 6
#     Node 2, Type 0, BuildingBlock: UKALOJ_clean_sbu_0, # of connection points: 6
#     Node 3, Type 0, BuildingBlock: UKALOJ_clean_sbu_0, # of connection points: 6
#     Node 4, Type 0, BuildingBlock: UKALOJ_clean_sbu_0, # of connection points: 6
#     Node 5, Type 0, BuildingBlock: UKALOJ_clean_sbu_0, # of connection points: 6
#     Node 6, Type 0, BuildingBlock: UKALOJ_clean_sbu_0, # of connection points: 6
#     Node 7, Type 0, BuildingBlock: UKALOJ_clean_sbu_0, # of connection points: 6
#     Node 8, Type 0, BuildingBlock: UKALOJ_clean_sbu_0, # of connection points: 6
#     Node 9, Type 0, BuildingBlock: UKALOJ_clean_sbu_0, # of connection points: 6
#     Node 10, Type 0, BuildingBlock: UKALOJ_clean_sbu_0, # of connection points: 6
#     Node 11, Type 0, BuildingBlock: UKALOJ_clean_sbu_0, # of connection points: 6
#     Node 12, Type 0, BuildingBlock: UKALOJ_clean_sbu_0, # of connection points: 6
#     Node 13, Type 0, BuildingBlock: UKALOJ_clean_sbu_0, # of connection points: 6
#     Node 14, Type 0, BuildingBlock: UKALOJ_clean_sbu_0, # of connection points: 6
#     Node 15, Type 0, BuildingBlock: UKALOJ_clean_sbu_0, # of connection points: 6
#     Edge 16, Type (0, 0), BuildingBlock: KIFKEQ_clean_linker_1, # of connection points: 2
#     Edge 17, Type (0, 0), BuildingBlock: KIFKEQ_clean_linker_1, # of connection points: 2
#     Edge 18, Type (0, 0), BuildingBlock: KIFKEQ_clean_linker_1, # of connection points: 2
#     Edge 19, Type (0, 0), BuildingBlock: KIFKEQ_clean_linker_1, # of connection points: 2
#     Edge 20, Type (0, 0), BuildingBlock: KIFKEQ_clean_linker_1, # of connection points: 2
#     Edge 21, Type (0, 0), BuildingBlock: KIFKEQ_clean_linker_1, # of connection points: 2
#     Edge 22, Type (0, 0), BuildingBlock: KIFKEQ_clean_linker_1, # of connection points: 2
#     Edge 23, Type (0, 0), BuildingBlock: KIFKEQ_clean_linker_1, # of connection points: 2
#     Edge 24, Type (0, 0), BuildingBlock: KIFKEQ_clean_linker_1, # of connection points: 2
#     Edge 25, Type (0, 0), BuildingBlock: KIFKEQ_clean_linker_1, # of connection points: 2
#     Edge 26, Type (0, 0), BuildingBlock: KIFKEQ_clean_linker_1, # of connection points: 2
#     Edge 27, Type (0, 0), BuildingBlock: KIFKEQ_clean_linker_1, # of connection points: 2
#     Edge 28, Type (0, 0), BuildingBlock: KIFKEQ_clean_linker_1, # of connection points: 2
#     Edge 29, Type (0, 0), BuildingBlock: KIFKEQ_clean_linker_1, # of connection points: 2
#     Edge 30, Type (0, 0), BuildingBlock: KIFKEQ_clean_linker_1, # of connection points: 2
#     Edge 31, Type (0, 0), BuildingBlock: KIFKEQ_clean_linker_1, # of connection points: 2
#     Edge 32, Type (0, 0), BuildingBlock: KIFKEQ_clean_linker_1, # of connection points: 2
#     Edge 33, Type (0, 0), BuildingBlock: KIFKEQ_clean_linker_1, # of connection points: 2
#     Edge 34, Type (0, 0), BuildingBlock: KIFKEQ_clean_linker_1, # of connection points: 2
#     Edge 35, Type (0, 0), BuildingBlock: KIFKEQ_clean_linker_1, # of connection points: 2
#     Edge 36, Type (0, 0), BuildingBlock: KIFKEQ_clean_linker_1, # of connection points: 2
#     Edge 37, Type (0, 0), BuildingBlock: KIFKEQ_clean_linker_1, # of connection points: 2
#     Edge 38, Type (0, 0), BuildingBlock: KIFKEQ_clean_linker_1, # of connection points: 2
#     Edge 39, Type (0, 0), BuildingBlock: KIFKEQ_clean_linker_1, # of connection points: 2
#     Edge 40, Type (0, 0), BuildingBlock: KIFKEQ_clean_linker_1, # of connection points: 2
#     Edge 41, Type (0, 0), BuildingBlock: KIFKEQ_clean_linker_1, # of connection points: 2
#     Edge 42, Type (0, 0), BuildingBlock: KIFKEQ_clean_linker_1, # of connection points: 2
#     Edge 43, Type (0, 0), BuildingBlock: KIFKEQ_clean_linker_1, # of connection points: 2
#     Edge 44, Type (0, 0), BuildingBlock: KIFKEQ_clean_linker_1, # of connection points: 2
#     Edge 45, Type (0, 0), BuildingBlock: KIFKEQ_clean_linker_1, # of connection points: 2
#     Edge 46, Type (0, 0), BuildingBlock: KIFKEQ_clean_linker_1, # of connection points: 2
#     Edge 47, Type (0, 0), BuildingBlock: KIFKEQ_clean_linker_1, # of connection points: 2
#     Edge 48, Type (0, 0), BuildingBlock: KIFKEQ_clean_linker_1, # of connection points: 2
#     Edge 49, Type (0, 0), BuildingBlock: KIFKEQ_clean_linker_1, # of connection points: 2
#     Edge 50, Type (0, 0), BuildingBlock: KIFKEQ_clean_linker_1, # of connection points: 2
#     Edge 51, Type (0, 0), BuildingBlock: KIFKEQ_clean_linker_1, # of connection points: 2
#     Edge 52, Type (0, 0), BuildingBlock: KIFKEQ_clean_linker_1, # of connection points: 2
#     Edge 53, Type (0, 0), BuildingBlock: KIFKEQ_clean_linker_1, # of connection points: 2
#     Edge 54, Type (0, 0), BuildingBlock: KIFKEQ_clean_linker_1, # of connection points: 2
#     Edge 55, Type (0, 0), BuildingBlock: KIFKEQ_clean_linker_1, # of connection points: 2
#     Edge 56, Type (0, 0), BuildingBlock: KIFKEQ_clean_linker_1, # of connection points: 2
#     Edge 57, Type (0, 0), BuildingBlock: KIFKEQ_clean_linker_1, # of connection points: 2
#     Edge 58, Type (0, 0), BuildingBlock: KIFKEQ_clean_linker_1, # of connection points: 2
#     Edge 59, Type (0, 0), BuildingBlock: KIFKEQ_clean_linker_1, # of connection points: 2
#     Edge 60, Type (0, 0), BuildingBlock: KIFKEQ_clean_linker_1, # of connection points: 2
#     Edge 61, Type (0, 0), BuildingBlock: KIFKEQ_clean_linker_1, # of connection points: 2
#     Edge 62, Type (0, 0), BuildingBlock: KIFKEQ_clean_linker_1, # of connection points: 2
#     Edge 63, Type (0, 0), BuildingBlock: KIFKEQ_clean_linker_1, # of connection points: 2
# Relax obj value: 0.323
# Max RMSD: 0.198
# Mean RMSD: 0.198
data_MOF--net-wiu--node1-UKALOJ_clean_sbu_0--edge1-KIFKEQ_clean_linker_1
_symmetry_space_group_name_H-M    P1
_symmetry_Int_Tables_number       1
_symmetry_cell_setting            triclinic
loop_
_symmetry_equiv_pos_as_xyz
'x, y, z'
_cell_length_a     27.99612
_cell_length_b     28.033995
_cell_length_c     71.850654
_cell_angle_alpha  90.049
_cell_angle_beta   90.043893
_cell_angle_gamma 90.231597
loop_
_atom_site_label
_atom_site_type_symbol
_atom_site_fract_x
_atom_site_fract_y
_atom_site_fract_z
_atom_type_partial_charge
Zn0 Zn 0.35831 0.13103 0.0873 0.0
O1 O 0.33291 0.19377 0.10229 0.0
C2 C 0.2626 0.08534 0.09429 0.0
Zn3 Zn 0.30712 0.15257 0.06561 0.0
C4 C 0.29884 0.22089 0.09727 0.0
O5 O 0.27711 0.21092 0.08212 0.0
C6 C 0.38108 0.07265 0.05386 0.0
O7 O 0.35345 0.1999 0.05381 0.0
O8 O 0.40839 0.1731 0.07288 0.0
N9 N 0.25874 0.16475 0.04483 0.0
C10 C 0.26468 0.17284 0.02649 0.0
C11 C 0.18971 0.17351 0.03186 0.0
N12 N 0.21217 0.1652 0.04814 0.0
N13 N 0.22194 0.17828 0.0181 0.0
C14 C 0.40456 0.1249 0.12637 0.0
C15 C 0.47498 0.10062 0.1203 0.0
N16 N 0.40726 0.11898 0.1078 0.0
N17 N 0.45104 0.1039 0.10404 0.0
N18 N 0.4466 0.11423 0.13442 0.0
H19 H 0.3637 0.1755 0.14184 0.0
H20 H 0.3566 0.11519 0.1494 0.0
H21 H 0.32775 0.13492 0.12835 0.0
C22 C 0.36032 0.1382 0.13692 0.0
C23 C 0.31219 0.18124 0.0173 0.0
H24 H 0.32297 0.21877 0.01981 0.0
H25 H 0.31108 0.17607 1.00207 0.0
H26 H 0.33985 0.15768 0.02318 0.0
O27 O 0.34522 0.09708 0.04817 0.0
O28 O 0.38906 0.07238 0.07135 0.0
C29 C 0.39665 0.19749 0.0587 0.0
O30 O 0.3043 0.08718 0.10145 0.0
O31 O 0.25621 0.10487 0.07849 0.0
Zn32 Zn 0.6468 0.55662 0.31546 0.0
O33 O 0.59661 0.59797 0.30293 0.0
C34 C 0.72294 0.63461 0.3041 0.0
Zn35 Zn 0.66133 0.61086 0.33688 0.0
C36 C 0.59404 0.64121 0.30751 0.0
O37 O 0.61751 0.65712 0.32135 0.0
C38 C 0.71332 0.51885 0.34529 0.0
O39 O 0.5995 0.58409 0.3513 0.0
O40 O 0.58894 0.52407 0.3323 0.0
N41 N 0.67015 0.66192 0.35689 0.0
C42 C 0.66465 0.66035 0.3755 0.0
C43 C 0.68766 0.73081 0.36865 0.0
N44 N 0.68435 0.70577 0.35265 0.0
N45 N 0.67483 0.70311 0.38309 0.0
C46 C 0.62431 0.50996 0.27722 0.0
C47 C 0.62914 0.43573 0.28339 0.0
N48 N 0.63691 0.50612 0.29527 0.0
N49 N 0.63993 0.45998 0.29907 0.0
N50 N 0.61864 0.46637 0.26958 0.0
H51 H 0.58226 0.56844 0.26746 0.0
H52 H 0.62949 0.55127 0.25192 0.0
H53 H 0.64305 0.5841 0.27279 0.0
C54 C 0.61983 0.55611 0.26678 0.0
C55 C 0.65261 0.61654 0.38656 0.0
H56 H 0.61594 0.61999 0.39219 0.0
H57 H 0.67724 0.61354 0.39862 0.0
H58 H 0.65472 0.58362 0.3782 0.0
O59 O 0.70588 0.56007 0.35227 0.0
O60 O 0.69769 0.51044 0.32896 0.0
C61 C 0.57562 0.54724 0.34672 0.0
O62 O 0.70133 0.59725 0.29797 0.0
O63 O 0.71983 0.64305 0.3215 0.0
Zn64 Zn 0.19011 0.90681 0.58644 0.0
O65 O 0.21986 0.84803 0.60105 0.0
C66 C 0.28015 0.9636 0.59479 0.0
Zn67 Zn 0.24481 0.89693 0.56464 0.0
C68 C 0.25653 0.82488 0.59605 0.0
O69 O 0.2783 0.83849 0.58131 0.0
C70 C 0.16443 0.96936 0.55354 0.0
O71 O 0.20495 0.84684 0.5516 0.0
O72 O 0.14651 0.85832 0.57153 0.0
N73 N 0.29605 0.88933 0.54463 0.0
C74 C 0.29289 0.87714 0.52652 0.0
C75 C 0.36698 0.88316 0.53311 0.0
N76 N 0.3421 0.89312 0.54869 0.0
N77 N 0.33682 0.87246 0.5191 0.0
C78 C 0.14157 0.90889 0.6252 0.0
C79 C 0.06947 0.9263 0.61853 0.0
N80 N 0.139 0.9131 0.60655 0.0
N81 N 0.09411 0.92376 0.60242 0.0
N82 N 0.09848 0.91629 0.63292 0.0
H83 H 0.1844 0.86548 0.64303 0.0
H84 H 0.18913 0.928 0.64744 0.0
H85 H 0.21891 0.90266 0.62759 0.0
C86 C 0.18641 0.9009 0.63622 0.0
C87 C 0.24707 0.87203 0.51581 0.0
H88 H 0.235 0.83431 0.51637 0.0
H89 H 0.25232 0.8819 0.501 0.0
H90 H 0.21869 0.89474 0.52173 0.0
O91 O 0.20358 0.95132 0.54746 0.0
O92 O 0.15462 0.96274 0.57068 0.0
C93 C 0.16319 0.83816 0.55708 0.0
O94 O 0.23881 0.95501 0.60154 0.0
O95 O 0.28953 0.94802 0.57857 0.0
Zn96 Zn 0.87526 0.44048 0.83876 0.0
O97 O 0.93547 0.4684 0.85433 0.0
C98 C 0.82771 0.53585 0.84494 0.0
Zn99 Zn 0.89371 0.49071 0.81629 0.0
C100 C 0.96262 0.50184 0.84864 0.0
O101 O 0.95308 0.5209 0.83293 0.0
C102 C 0.81566 0.41577 0.80503 0.0
O103 O 0.94049 0.44329 0.80473 0.0
O104 O 0.91813 0.39004 0.82543 0.0
N105 N 0.90803 0.53836 0.79551 0.0
C106 C 0.91975 0.53262 0.77744 0.0
C107 C 0.91946 0.6074 0.78294 0.0
N108 N 0.90793 0.58483 0.79888 0.0
N109 N 0.92758 0.57534 0.76936 0.0
C110 C 0.88709 0.37494 0.87304 0.0
C111 C 0.81471 0.36249 0.88064 0.0
N112 N 0.85955 0.39461 0.85977 0.0
N113 N 0.81454 0.38616 0.86435 0.0
N114 N 0.85984 0.35511 0.88647 0.0
H115 H 0.95352 0.37267 0.85791 0.0
H116 H 0.95357 0.34087 0.87988 0.0
H117 H 0.95577 0.40473 0.8795 0.0
C118 C 0.94057 0.37304 0.87247 0.0
C119 C 0.92113 0.48564 0.76742 0.0
H120 H 0.89786 0.45885 0.77414 0.0
H121 H 0.95829 0.47212 0.76749 0.0
H122 H 0.90976 0.48991 0.75272 0.0
O123 O 0.83765 0.45282 0.79889 0.0
O124 O 0.81805 0.40787 0.82249 0.0
C125 C 0.94066 0.40089 0.81066 0.0
O126 O 0.83152 0.49461 0.85226 0.0
O127 O 0.84581 0.54239 0.82887 0.0
Zn128 Zn 0.68657 0.92171 0.93179 0.0
O129 O 0.71207 0.85941 0.91715 0.0
C130 C 0.78097 0.97027 0.92408 0.0
Zn131 Zn 0.73891 0.90456 0.95368 0.0
C132 C 0.74727 0.83387 0.92214 0.0
O133 O 0.76937 0.84554 0.93704 0.0
C134 C 0.66362 0.98254 0.96489 0.0
O135 O 0.69392 0.85672 0.96614 0.0
O136 O 0.6379 0.87966 0.94675 0.0
N137 N 0.78836 0.89283 0.97413 0.0
C138 C 0.78376 0.8812 0.99225 0.0
C139 C 0.85831 0.88305 0.9862 0.0
N140 N 0.83472 0.89396 0.97041 0.0
N141 N 0.82705 0.87435 1.00002 0.0
C142 C 0.63876 0.92594 0.89292 0.0
C143 C 0.56787 0.94818 0.89936 0.0
N144 N 0.63662 0.93203 0.9115 0.0
N145 N 0.59253 0.94585 0.91548 0.0
N146 N 0.59611 0.93523 0.88511 0.0
H147 H 0.67933 0.87745 0.87631 0.0
H148 H 0.68657 0.9387 0.87012 0.0
H149 H 0.7156 0.91584 0.89063 0.0
C150 C 0.68292 0.91393 0.88209 0.0
C151 C 0.7373 0.87885 1.00263 0.0
H152 H 0.71005 0.90206 0.99625 0.0
H153 H 0.72385 0.84159 1.00245 0.0
H154 H 0.74232 0.88974 0.01736 0.0
O155 O 0.70046 0.96027 0.97097 0.0
O156 O 0.6555 0.98038 0.94742 0.0
C157 C 0.65066 0.85698 0.96123 0.0
O158 O 0.73944 0.96514 0.91698 0.0
O159 O 0.78833 0.95338 0.94028 0.0
Zn160 Zn 0.39985 0.4889 0.70266 0.0
O161 O 0.45153 0.44812 0.71487 0.0
C162 C 0.32466 0.40928 0.7137 0.0
Zn163 Zn 0.38744 0.43377 0.68165 0.0
C164 C 0.45363 0.40438 0.71097 0.0
O165 O 0.42965 0.3873 0.6975 0.0
C166 C 0.33503 0.5261 0.67287 0.0
O167 O 0.45073 0.46072 0.66835 0.0
O168 O 0.45608 0.52414 0.68597 0.0
N169 N 0.38052 0.38365 0.66119 0.0
C170 C 0.38969 0.38607 0.6428 0.0
C171 C 0.36179 0.31657 0.64825 0.0
N172 N 0.36335 0.34038 0.66456 0.0
N173 N 0.37882 0.34433 0.63447 0.0
C174 C 0.41572 0.5328 0.74178 0.0
C175 C 0.4117 0.60759 0.73646 0.0
N176 N 0.40749 0.53828 0.72341 0.0
N177 N 0.405 0.58473 0.72014 0.0
N178 N 0.41831 0.57573 0.75021 0.0
H179 H 0.46465 0.4769 0.74827 0.0
H180 H 0.4223 0.48701 0.76627 0.0
H181 H 0.40404 0.45699 0.74538 0.0
C182 C 0.42676 0.48593 0.751 0.0
C183 C 0.40637 0.43001 0.63273 0.0
H184 H 0.39737 0.46289 0.64038 0.0
H185 H 0.44574 0.42843 0.63107 0.0
H186 H 0.39015 0.43196 0.61866 0.0
O187 O 0.34432 0.48535 0.6658 0.0
O188 O 0.34811 0.53402 0.68955 0.0
C189 C 0.47201 0.49949 0.67237 0.0
O190 O 0.34639 0.44648 0.71986 0.0
O191 O 0.3276 0.4011 0.69626 0.0
Zn192 Zn 0.86274 0.13707 0.43237 0.0
O193 O 0.83567 0.19924 0.41807 0.0
C194 C 0.77013 0.08505 0.42429 0.0
Zn195 Zn 0.80853 0.15236 0.45363 0.0
C196 C 0.79862 0.22277 0.4225 0.0
O197 O 0.77523 0.20929 0.43684 0.0
C198 C 0.88643 0.07569 0.46505 0.0
O199 O 0.85018 0.20353 0.46573 0.0
O200 O 0.90961 0.1809 0.44784 0.0
N201 N 0.75899 0.16204 0.47414 0.0
C202 C 0.76304 0.16255 0.49284 0.0
C203 C 0.69073 0.17939 0.4863 0.0
N204 N 0.71403 0.17245 0.47011 0.0
N205 N 0.72063 0.17303 0.50077 0.0
C206 C 0.91015 0.13463 0.3934 0.0
C207 C 0.9812 0.11233 0.39951 0.0
N208 N 0.91295 0.12875 0.41198 0.0
N209 N 0.95717 0.11497 0.41576 0.0
N210 N 0.95249 0.12514 0.38537 0.0
H211 H 0.86849 0.18294 0.37713 0.0
H212 H 0.86178 0.12171 0.37071 0.0
H213 H 0.83309 0.1438 0.39139 0.0
C214 C 0.86552 0.14626 0.38276 0.0
C215 C 0.80892 0.15557 0.50335 0.0
H216 H 0.84061 0.16341 0.4948 0.0
H217 H 0.81008 0.17867 0.51588 0.0
H218 H 0.81116 0.11784 0.50788 0.0
O219 O 0.84977 0.09847 0.47102 0.0
O220 O 0.89512 0.0781 0.44765 0.0
C221 C 0.89368 0.20541 0.46136 0.0
O222 O 0.81131 0.09252 0.41723 0.0
O223 O 0.76193 0.10092 0.44059 0.0
Zn224 Zn 0.16542 0.60965 0.18292 0.0
O225 O 0.10375 0.58327 0.16812 0.0
C226 C 0.21676 0.51698 0.17512 0.0
Zn227 Zn 0.14953 0.55617 0.20443 0.0
C228 C 0.07932 0.54686 0.17274 0.0
O229 O 0.09196 0.5241 0.18733 0.0
C230 C 0.22593 0.63341 0.2161 0.0
O231 O 0.09935 0.59852 0.21664 0.0
O232 O 0.12166 0.65668 0.19801 0.0
N233 N 0.13761 0.50611 0.22447 0.0
C234 C 0.13341 0.50963 0.24311 0.0
C235 C 0.11794 0.43741 0.23574 0.0
N236 N 0.12805 0.46124 0.21993 0.0
N237 N 0.12088 0.46712 0.25041 0.0
C238 C 0.17015 0.658 0.1442 0.0
C239 C 0.19284 0.72874 0.15084 0.0
N240 N 0.17549 0.6601 0.16281 0.0
N241 N 0.18954 0.70411 0.16692 0.0
N242 N 0.18022 0.70058 0.13648 0.0
H243 H 0.12159 0.61719 0.12755 0.0
H244 H 0.1829 0.61067 0.12124 0.0
H245 H 0.16032 0.58118 0.1417 0.0
C246 C 0.15821 0.61391 0.13325 0.0
C247 C 0.14604 0.55322 0.25427 0.0
H248 H 0.13169 0.58588 0.24778 0.0
H249 H 0.13296 0.55085 0.26879 0.0
H250 H 0.18549 0.55665 0.25478 0.0
O251 O 0.20366 0.59645 0.22221 0.0
O252 O 0.22359 0.64151 0.19866 0.0
C253 C 0.09764 0.64168 0.21183 0.0
O254 O 0.21006 0.55817 0.16803 0.0
O255 O 0.20031 0.50894 0.19135 0.0
Zn256 Zn 0.85896 0.6328 0.58627 0.0
O257 O 0.83469 0.6959 0.60144 0.0
C258 C 0.76366 0.58769 0.59352 0.0
Zn259 Zn 0.80786 0.65461 0.56457 0.0
C260 C 0.80069 0.72312 0.59643 0.0
O261 O 0.77896 0.71321 0.58129 0.0
C262 C 0.87992 0.57304 0.55276 0.0
O263 O 0.85417 0.70181 0.5524 0.0
O264 O 0.90884 0.67427 0.57151 0.0
N265 N 0.75853 0.66813 0.54435 0.0
C266 C 0.7628 0.68023 0.52627 0.0
C267 C 0.68836 0.67823 0.53256 0.0
N268 N 0.71227 0.66698 0.54822 0.0
N269 N 0.71933 0.68723 0.51867 0.0
C270 C 0.90575 0.62509 0.62523 0.0
C271 C 0.97516 0.59834 0.61903 0.0
N272 N 0.90827 0.61986 0.60662 0.0
N273 N 0.95145 0.60326 0.60279 0.0
N274 N 0.94728 0.61241 0.63324 0.0
H275 H 0.86669 0.67669 0.64088 0.0
H276 H 0.85764 0.6165 0.64831 0.0
H277 H 0.82929 0.63749 0.62736 0.0
C278 C 0.86203 0.63958 0.63588 0.0
C279 C 0.80913 0.68277 0.51582 0.0
H280 H 0.83607 0.65875 0.52194 0.0
H281 H 0.82312 0.71983 0.51643 0.0
H282 H 0.80389 0.67297 0.50099 0.0
O283 O 0.84469 0.59825 0.54695 0.0
O284 O 0.88825 0.57352 0.57022 0.0
C285 C 0.89721 0.69914 0.55744 0.0
O286 O 0.80541 0.58955 0.6006 0.0
O287 O 0.75701 0.60725 0.57775 0.0
Zn288 Zn 0.14946 0.05517 0.81503 0.0
O289 O 0.10108 0.09974 0.80275 0.0
C290 C 0.22891 0.1297 0.80317 0.0
Zn291 Zn 0.16882 0.10814 0.83635 0.0
C292 C 0.10311 0.14326 0.80715 0.0
O293 O 0.12753 0.1565 0.82115 0.0
C294 C 0.21612 1.01408 0.84458 0.0
O295 O 0.10557 0.08336 0.85103 0.0
O296 O 0.09102 0.02466 0.83178 0.0
N297 N 0.17972 0.15871 0.85632 0.0
C298 C 0.1739 0.15736 0.87491 0.0
C299 C 0.19828 0.22737 0.86804 0.0
N300 N 0.19475 0.20228 0.85206 0.0
N301 N 0.18459 0.20001 0.88246 0.0
C302 C 0.12936 1.01046 0.77618 0.0
C303 C 0.13122 0.93583 0.78198 0.0
N304 N 0.13826 1.00553 0.79453 0.0
N305 N 0.13939 0.95917 0.79809 0.0
N306 N 0.125 0.96726 0.76805 0.0
H307 H 0.08237 0.06812 0.77011 0.0
H308 H 0.12201 0.05539 0.75147 0.0
H309 H 0.14409 0.0853 0.77188 0.0
C310 C 0.11944 0.05729 0.76679 0.0
C311 C 0.16095 0.11391 0.88602 0.0
H312 H 0.12488 0.11875 0.89207 0.0
H313 H 0.18626 0.10991 0.89782 0.0
H314 H 0.16133 0.08099 0.87761 0.0
O315 O 0.21149 0.05573 0.85151 0.0
O316 O 0.19876 1.00632 0.82844 0.0
C317 C 0.07964 0.04783 0.84643 0.0
O318 O 0.20458 0.0936 0.79748 0.0
O319 O 0.2285 0.13822 0.82062 0.0
Zn320 Zn 0.68638 0.4167 0.08773 0.0
O321 O 0.71038 0.3538 0.10261 0.0
C322 C 0.78038 0.4651 0.09597 0.0
Zn323 Zn 0.73961 0.39863 0.06644 0.0
C324 C 0.74619 0.3286 0.09805 0.0
O325 O 0.76941 0.34071 0.08352 0.0
C326 C 0.66498 0.47677 0.05434 0.0
O327 O 0.69587 0.35025 0.05366 0.0
O328 O 0.63851 0.37499 0.07214 0.0
N329 N 0.79069 0.38537 0.04699 0.0
C330 C 0.79054 0.38637 0.02826 0.0
C331 C 0.85847 0.35976 0.03678 0.0
N332 N 0.83291 0.36888 0.05225 0.0
N333 N 0.83265 0.37065 0.02159 0.0
C334 C 0.63745 0.42103 0.12632 0.0
C335 C 0.56732 0.44536 0.11979 0.0
N336 N 0.63568 0.42742 0.10775 0.0
N337 N 0.59205 0.44251 0.10371 0.0
N338 N 0.595 0.43139 0.13408 0.0
H339 H 0.71421 0.4107 0.12897 0.0
H340 H 0.67739 0.37041 0.14216 0.0
H341 H 0.68437 0.43077 0.14972 0.0
C342 C 0.68116 0.40766 0.13722 0.0
C343 C 0.74842 0.39995 0.01652 0.0
H344 H 0.71453 0.38941 0.02329 0.0
H345 H 0.75015 0.38294 1.00259 0.0
H346 H 0.74839 0.43923 0.01465 0.0
O347 O 0.70142 0.45324 0.04859 0.0
O348 O 0.65654 0.47602 0.0718 0.0
C349 C 0.65219 0.3516 0.05794 0.0
O350 O 0.73882 0.45981 0.10298 0.0
O351 O 0.78803 0.44809 0.07982 0.0
Zn352 Zn 0.38606 0.9376 0.33732 0.0
O353 O 0.44865 0.96402 0.35167 0.0
C354 C 0.33542 0.03009 0.34577 0.0
Zn355 Zn 0.40221 0.9918 0.31615 0.0
C356 C 0.47275 1.00085 0.34726 0.0
O357 O 0.45964 0.02435 0.33293 0.0
C358 C 0.32468 0.91472 0.30452 0.0
O359 O 0.45252 0.95 0.30377 0.0
O360 O 0.42919 0.89086 0.32169 0.0
N361 N 0.41229 0.0421 0.296 0.0
C362 C 0.42477 0.03825 0.27795 0.0
C363 C 0.41927 0.11247 0.28409 0.0
N364 N 0.4089 0.08823 0.29979 0.0
N365 N 0.42992 0.08184 0.27029 0.0
C366 C 0.38402 0.88921 0.37604 0.0
C367 C 0.36169 0.81821 0.36966 0.0
N368 N 0.37749 0.88696 0.35748 0.0
N369 N 0.36368 0.84279 0.35353 0.0
N370 N 0.37498 0.84656 0.38388 0.0
H371 H 0.43273 0.93065 0.39242 0.0
H372 H 0.37154 0.93672 0.39897 0.0
H373 H 0.39337 0.96618 0.37839 0.0
C374 C 0.39593 0.93354 0.38686 0.0
C375 C 0.42952 0.99206 0.26752 0.0
H376 H 0.46727 0.98023 0.26808 0.0
H377 H 0.41938 0.99662 0.2527 0.0
H378 H 0.40685 0.96385 0.27365 0.0
O379 O 0.3478 0.95142 0.29865 0.0
O380 O 0.3267 0.90593 0.32192 0.0
C381 C 0.45371 0.90653 0.30811 0.0
O382 O 0.34216 0.98877 0.35272 0.0
O383 O 0.35143 0.03832 0.32951 0.0
Zn384 Zn 0.18671 0.41097 0.43259 0.0
O385 O 0.21427 0.34947 0.41847 0.0
C386 C 0.27807 0.46446 0.42393 0.0
Zn387 Zn 0.24126 0.39829 0.45403 0.0
C388 C 0.25155 0.32657 0.42302 0.0
O389 O 0.2747 0.34068 0.43736 0.0
C390 C 0.16196 0.4731 0.46513 0.0
O391 O 0.20089 0.34771 0.46684 0.0
O392 O 0.14116 0.36656 0.44841 0.0
N393 N 0.29244 0.39038 0.47404 0.0
C394 C 0.28963 0.37789 0.49212 0.0
C395 C 0.36357 0.38484 0.48547 0.0
N396 N 0.3384 0.39473 0.46995 0.0
N397 N 0.33371 0.37364 0.49948 0.0
C398 C 0.13837 0.4124 0.39378 0.0
C399 C 0.06705 0.43332 0.40013 0.0
N400 N 0.1358 0.41783 0.41239 0.0
N401 N 0.0914 0.43071 0.41632 0.0
N402 N 0.09574 0.4213 0.38589 0.0
H403 H 0.21546 0.40307 0.39161 0.0
H404 H 0.17978 0.36615 0.37651 0.0
H405 H 0.1868 0.42812 0.37145 0.0
C406 C 0.18298 0.40196 0.38295 0.0
C407 C 0.24394 0.37215 0.50283 0.0
H408 H 0.23213 0.33436 0.50208 0.0
H409 H 0.24923 0.38164 0.51768 0.0
H410 H 0.21537 0.39482 0.49701 0.0
O411 O 0.19963 0.45241 0.47137 0.0
O412 O 0.15358 0.46922 0.44773 0.0
C413 C 0.15761 0.34394 0.46233 0.0
O414 O 0.2369 0.45609 0.41698 0.0
O415 O 0.28657 0.44961 0.44033 0.0
Zn416 Zn 0.89775 0.9936 0.20385 0.0
O417 O 0.94948 0.95166 0.21561 0.0
C418 C 0.82124 0.91613 0.2159 0.0
Zn419 Zn 0.882 0.93879 0.18301 0.0
C420 C 0.94999 0.90787 0.21162 0.0
O421 O 0.92441 0.89156 0.19844 0.0
C422 C 0.83051 0.03177 0.17483 0.0
O423 O 0.94531 0.96408 0.16887 0.0
O424 O 0.95349 0.02723 0.18644 0.0
N425 N 0.872 0.8888 0.16263 0.0
C426 C 0.88005 0.89106 0.14416 0.0
C427 C 0.8497 0.82268 0.14976 0.0
N428 N 0.85324 0.84623 0.16609 0.0
N429 N 0.86693 0.84992 0.13587 0.0
C430 C 0.92241 0.03976 0.24207 0.0
C431 C 0.91576 0.11397 0.23614 0.0
N432 N 0.90892 0.04367 0.22411 0.0
N433 N 0.90485 0.0898 0.22046 0.0
N434 N 0.92744 0.08334 0.24981 0.0
H435 H 0.96606 0.98208 0.25142 0.0
H436 H 0.91883 0.99772 0.26722 0.0
H437 H 0.90556 0.96513 0.24626 0.0
C438 C 0.92823 0.9935 0.25232 0.0
C439 C 0.89783 0.9344 0.13397 0.0
H440 H 0.93713 0.93175 0.13228 0.0
H441 H 0.8816 0.93661 0.11991 0.0
H442 H 0.88971 0.96759 0.14158 0.0
O443 O 0.83869 0.99091 0.16767 0.0
O444 O 0.84562 0.03978 0.19125 0.0
C445 C 0.96798 1.00223 0.1727 0.0
O446 O 0.84492 0.95251 0.22176 0.0
O447 O 0.82224 0.90785 0.19843 0.0
Zn448 Zn 0.30656 0.64864 0.95475 0.0
O449 O 0.35199 0.69632 0.96705 0.0
C450 C 0.38143 0.57004 0.96601 0.0
Zn451 Zn 0.35803 0.63031 0.93278 0.0
C452 C 0.39514 0.69544 0.96203 0.0
O453 O 0.40732 0.67232 0.94757 0.0
C454 C 0.26306 0.58252 0.92543 0.0
O455 O 0.33279 0.69265 0.91804 0.0
O456 O 0.27618 0.70756 0.93807 0.0
N457 N 0.40743 0.61925 0.91241 0.0
C458 C 0.40469 0.62445 0.89382 0.0
C459 C 0.47535 0.60109 0.90005 0.0
N460 N 0.4514 0.60484 0.91627 0.0
N461 N 0.44684 0.614 0.88586 0.0
C462 C 0.26178 0.67297 0.99319 0.0
C463 C 0.18726 0.67098 0.98701 0.0
N464 N 0.2573 0.66098 0.9751 0.0
N465 N 0.21098 0.65978 0.9713 0.0
N466 N 0.21843 0.67995 1.00086 0.0
H467 H 0.32166 0.71273 1.00337 0.0
H468 H 0.30305 0.66494 0.01839 0.0
H469 H 0.3354 0.65208 0.99735 0.0
C470 C 0.30817 0.67549 1.00364 0.0
C471 C 0.36039 0.63665 0.88308 0.0
H472 H 0.36484 0.67245 0.87676 0.0
H473 H 0.35553 0.61087 0.87149 0.0
H474 H 0.32802 0.6364 0.8918 0.0
O475 O 0.30444 0.58678 0.91814 0.0
O476 O 0.25657 0.60009 0.94158 0.0
C477 C 0.29798 0.71867 0.92306 0.0
O478 O 0.345 0.59292 0.97214 0.0
O479 O 0.38906 0.57164 0.9485 0.0
Zn480 Zn 0.66297 0.10998 0.68303 0.0
O481 O 0.60079 0.08372 0.66833 0.0
C482 C 0.71436 1.01745 0.67478 0.0
Zn483 Zn 0.64624 0.05562 0.70404 0.0
C484 C 0.57654 0.04687 0.6726 0.0
O485 O 0.58934 1.0232 0.68693 0.0
C486 C 0.72305 0.1329 0.71622 0.0
O487 O 0.59546 0.09751 0.71616 0.0
O488 O 0.61932 0.15674 0.69839 0.0
N489 N 0.63526 1.00523 0.72408 0.0
C490 C 0.62185 1.00897 0.74203 0.0
C491 C 0.62734 0.93477 0.73582 0.0
N492 N 0.63864 0.95911 0.72025 0.0
N493 N 0.61608 0.96533 0.74958 0.0
C494 C 0.66753 0.15809 0.6443 0.0
C495 C 0.6906 0.22879 0.65077 0.0
N496 N 0.67254 0.16055 0.66293 0.0
N497 N 0.68675 0.20457 0.66693 0.0
N498 N 0.67792 0.20042 0.63648 0.0
H499 H 0.61963 0.11802 0.62711 0.0
H500 H 0.68131 0.10972 0.62177 0.0
H501 H 0.65608 0.08136 0.64197 0.0
C502 C 0.65556 0.11393 0.63339 0.0
C503 C 0.61677 0.05508 0.75248 0.0
H504 H 0.63987 0.08325 0.74656 0.0
H505 H 0.57911 0.06708 0.75166 0.0
H506 H 0.62616 0.05034 0.76737 0.0
O507 O 0.69991 0.09604 0.72193 0.0
O508 O 0.7217 0.14167 0.6988 0.0
C509 C 0.59438 0.14101 0.71184 0.0
O510 O 0.70759 0.05879 0.66784 0.0
O511 O 0.69767 1.00899 0.69093 0.0
H512 H 0.4865 0.16462 0.05498 0.0
H513 H 0.38728 0.26715 0.03249 0.0
H514 H 0.55002 0.19951 0.03691 0.0
H515 H 0.45115 0.30188 0.01376 0.0
H516 H 0.66382 0.27959 0.03278 0.0
H517 H 0.60023 0.24139 0.0147 0.0
H518 H 0.50136 0.34896 0.03395 0.0
H519 H 0.5641 0.3861 0.05177 0.0
C520 C 0.47834 0.19452 0.04598 0.0
C521 C 0.4332 0.21572 0.04611 0.0
C522 C 0.51438 0.21358 0.03503 0.0
C523 C 0.50604 0.25519 0.02458 0.0
C524 C 0.45879 0.27075 0.02216 0.0
C525 C 0.42259 0.25166 0.03319 0.0
C526 C 0.62846 0.29515 0.0328 0.0
C527 C 0.61718 0.33291 0.04482 0.0
C528 C 0.59253 0.27417 0.0221 0.0
C529 C 0.54526 0.29033 0.02385 0.0
C530 C 0.53692 0.3342 0.0328 0.0
C531 C 0.57247 0.35472 0.04359 0.0
H532 H 0.49962 0.6542 0.30256 0.0
H533 H 0.63842 0.6976 0.28286 0.0
H534 H 0.46337 0.72014 0.28614 0.0
H535 H 0.60243 0.76307 0.26544 0.0
H536 H 0.5478 0.89418 0.30156 0.0
H537 H 0.58263 0.82781 0.2848 0.0
H538 H 0.44163 0.78351 0.26661 0.0
H539 H 0.40725 0.84859 0.28465 0.0
C540 C 0.52193 0.67742 0.29418 0.0
C541 C 0.57146 0.67377 0.29475 0.0
C542 C 0.50133 0.71466 0.28434 0.0
C543 C 0.53056 0.7486 0.27525 0.0
C544 C 0.57936 0.73872 0.27297 0.0
C545 C 0.59999 0.70201 0.28314 0.0
C546 C 0.52472 0.87047 0.29368 0.0
C547 C 0.47525 0.87362 0.29517 0.0
C548 C 0.54446 0.83304 0.28364 0.0
C549 C 0.51443 0.79865 0.27519 0.0
C550 C 0.46539 0.80819 0.27368 0.0
C551 C 0.44567 0.84475 0.28418 0.0
H552 H 0.12247 0.86205 0.52456 0.0
H553 H 0.14006 0.74705 0.56372 0.0
H554 H 0.05992 0.81667 0.50837 0.0
H555 H 0.07923 0.70129 0.54775 0.0
H556 H 0.96107 0.64156 0.54158 0.0
H557 H 0.03029 0.66486 0.52334 0.0
H558 H 0.98416 0.81177 0.52599 0.0
H559 H 0.91232 0.78712 0.5426 0.0
C560 C 0.11363 0.82635 0.52925 0.0
C561 C 0.13342 0.8081 0.54567 0.0
C562 C 0.07876 0.80023 0.51985 0.0
C563 C 0.06378 0.75606 0.527 0.0
C564 C 0.08949 0.73533 0.54183 0.0
C565 C 0.1236 0.76171 0.55133 0.0
C566 C 0.96495 0.67847 0.53751 0.0
C567 C 0.93376 0.71331 0.54429 0.0
C568 C 1.00389 0.69167 0.52674 0.0
C569 C 1.01409 0.74027 0.52438 0.0
C570 C 0.97807 0.77399 0.52814 0.0
C571 C 0.9377 0.76036 0.53816 0.0
H572 H 0.13626 0.23209 0.80109 0.0
H573 H 0.02708 0.13228 0.78374 0.0
H574 H 0.0951 0.2957 0.78532 0.0
H575 H 0.98524 0.19656 0.76765 0.0
H576 H 1.00815 0.41003 0.78354 0.0
H577 H 0.04437 0.34537 0.7657 0.0
H578 H 0.94846 0.24493 0.79228 0.0
H579 H 0.91259 0.30894 0.80966 0.0
C580 C 0.10363 0.22383 0.7936 0.0
C581 C 0.08251 0.17863 0.79474 0.0
C582 C 0.08073 0.25993 0.78399 0.0
C583 C 0.0355 0.25145 0.7761 0.0
C584 C 1.01935 0.20415 0.77416 0.0
C585 C 0.04258 0.16775 0.78371 0.0
C586 C 0.99451 0.37408 0.78523 0.0
C587 C 0.95999 0.36354 0.79878 0.0
C588 C 1.01441 0.33741 0.77473 0.0
C589 C 1.00036 0.28999 0.778 0.0
C590 C 0.96073 0.28092 0.78952 0.0
C591 C 0.94117 0.31736 0.80002 0.0
H592 H 0.66217 0.78651 0.98697 0.0
H593 H 0.56036 0.88776 0.96539 0.0
H594 H 0.59863 0.7478 1.00479 0.0
H595 H 0.49748 0.84968 0.98285 0.0
H596 H 0.4855 0.66437 0.96581 0.0
H597 H 0.54913 0.70252 0.98289 0.0
H598 H 0.44907 0.80492 1.00524 0.0
H599 H 0.38476 0.76613 0.9878 0.0
C600 C 0.62636 0.8009 0.98634 0.0
C601 C 0.61488 0.8375 0.97383 0.0
C602 C 0.59038 0.77959 0.99687 0.0
C603 C 0.54279 0.79421 0.99453 0.0
C604 C 0.5335 0.83651 0.98466 0.0
C605 C 0.56919 0.85746 0.97408 0.0
C606 C 0.47707 0.69479 0.97452 0.0
C607 C 0.43143 0.71488 0.97446 0.0
C608 C 0.51321 0.71578 0.98488 0.0
C609 C 0.50438 0.75825 0.99472 0.0
C610 C 0.45693 0.77299 0.99732 0.0
C611 C 0.42051 0.75164 0.987 0.0
H612 H 0.50012 0.153 0.71816 0.0
H613 H 0.64017 0.19929 0.73538 0.0
H614 H 0.46475 0.21931 0.73474 0.0
H615 H 0.60524 0.26426 0.7533 0.0
H616 H 0.54795 0.39296 0.71698 0.0
H617 H 0.58388 0.32781 0.73399 0.0
H618 H 0.44409 0.28418 0.75371 0.0
H619 H 0.4085 0.34866 0.73565 0.0
C620 C 0.52298 0.17685 0.72607 0.0
C621 C 0.57248 0.1739 0.72471 0.0
C622 C 0.50292 0.21428 0.73601 0.0
C623 C 0.53264 0.24889 0.74451 0.0
C624 C 0.58169 0.2395 0.74617 0.0
C625 C 0.60174 0.20297 0.73574 0.0
C626 C 0.52539 0.36978 0.72528 0.0
C627 C 0.47586 0.37283 0.72423 0.0
C628 C 0.54578 0.33298 0.73545 0.0
C629 C 0.51633 0.29892 0.74437 0.0
C630 C 0.46737 0.30851 0.74626 0.0
C631 C 0.44697 0.34467 0.73574 0.0
H632 H 0.14397 0.24968 0.46758 0.0
H633 H 0.10305 0.38872 0.48738 0.0
H634 H 0.07825 0.21398 0.48454 0.0
H635 H 0.03768 0.35332 0.5052 0.0
H636 H 0.90774 0.29947 0.46747 0.0
H637 H 0.9734 0.33409 0.48494 0.0
H638 H 1.01364 0.19344 0.50423 0.0
H639 H 0.94898 0.15922 0.48568 0.0
C640 C 0.12136 0.27217 0.47609 0.0
C641 C 0.12549 0.32162 0.47539 0.0
C642 C 0.08431 0.25189 0.48624 0.0
C643 C 0.05092 0.2814 0.4954 0.0
C644 C 0.06161 0.33006 0.49763 0.0
C645 C 0.09818 0.35037 0.48719 0.0
C646 C 0.93038 0.27643 0.47573 0.0
C647 C 0.92637 0.22702 0.47445 0.0
C648 C 0.96732 0.29607 0.48619 0.0
C649 C 1.00049 0.26599 0.49518 0.0
C650 C 0.98987 0.21718 0.49681 0.0
C651 C 0.95369 0.19755 0.48596 0.0
H652 H 0.1424 0.70203 0.23499 0.0
H653 H 1.00328 0.65334 0.21747 0.0
H654 H 0.10614 0.7683 0.25183 0.0
H655 H 0.96667 0.7203 0.23318 0.0
H656 H 0.90693 0.84831 0.23546 0.0
H657 H 0.94454 0.78342 0.25259 0.0
H658 H 0.0827 0.83183 0.23282 0.0
H659 H 0.04477 0.89796 0.21702 0.0
C660 C 0.10387 0.70552 0.23504 0.0
C661 C 0.07519 0.67523 0.22426 0.0
C662 C 0.0831 0.74279 0.24485 0.0
C663 C 0.03389 0.75119 0.24304 0.0
C664 C 1.00486 0.71583 0.23467 0.0
C665 C 0.02563 0.67794 0.22525 0.0
C666 C 0.94547 0.84541 0.2354 0.0
C667 C 0.97335 0.87551 0.22428 0.0
C668 C 0.96704 0.80888 0.24535 0.0
C669 C 1.01618 0.80072 0.24318 0.0
C670 C 0.04455 0.83609 0.23454 0.0
C671 C 1.023 0.87347 0.22507 0.0
H672 H 0.46152 1.01711 0.06086 0.0
H673 H 0.39107 0.08952 0.01585 0.0
H674 H 0.52789 0.9974 0.04033 0.0
H675 H 0.45811 0.07241 0.99549 0.0
H676 H 0.5728 1.01439 0.95626 0.0
H677 H 0.50597 0.03189 0.97653 0.0
H678 H 0.59623 1.00953 0.02449 0.0
H679 H 0.66261 0.98956 1.00387 0.0
C680 C 0.45968 0.02856 0.04649 0.0
C681 C 0.4194 0.05444 0.04027 0.0
C682 C 0.49879 1.01782 0.03454 0.0
C683 C 0.50042 0.03306 0.0157 0.0
C684 C 0.45962 0.05863 1.00952 0.0
C685 C 0.42028 0.06874 0.0214 0.0
C686 C 0.57898 1.01386 0.97113 0.0
C687 C 0.62449 1.00103 0.97807 0.0
C688 C 0.53985 0.02411 0.98305 0.0
C689 C 0.54374 1.02265 1.00274 0.0
C690 C 0.58982 1.01071 1.00966 0.0
C691 C 0.62892 0.99983 0.99767 0.0
H692 H 0.73237 0.63536 0.26516 0.0
H693 H 0.75479 0.72533 0.31295 0.0
H694 H 0.75419 0.70159 0.24472 0.0
H695 H 0.77399 0.79197 0.29286 0.0
H696 H 0.83447 0.9071 0.25417 0.0
H697 H 0.81532 0.84031 0.27442 0.0
H698 H 0.74437 0.76943 0.22864 0.0
H699 H 0.76615 0.83547 0.20829 0.0
C700 C 0.74249 0.66906 0.27144 0.0
C701 C 0.74243 0.67359 0.29104 0.0
C702 C 0.75443 0.70808 0.25955 0.0
C703 C 0.76623 0.75416 0.26657 0.0
C704 C 0.76642 0.75813 0.28626 0.0
C705 C 0.75513 0.71909 0.29808 0.0
C706 C 0.81403 0.87772 0.24841 0.0
C707 C 0.80166 0.87808 0.22933 0.0
C708 C 0.8028 0.83848 0.26021 0.0
C709 C 0.77782 0.79741 0.25372 0.0
C710 C 0.76431 0.79868 0.23467 0.0
C711 C 0.77625 0.83762 0.22282 0.0
H712 H 0.0726 0.99769 0.56216 0.0
H713 H 0.16583 0.98457 0.51486 0.0
H714 H 1.00691 1.01891 0.5419 0.0
H715 H 0.10046 1.00841 0.49431 0.0
H716 H 0.96789 1.02281 0.45703 0.0
H717 H 0.03318 0.99921 0.47744 0.0
H718 H 0.95977 0.06313 0.524 0.0
H719 H 0.89382 0.0842 0.50362 0.0
C720 C 0.07973 1.00043 0.54739 0.0
C721 C 0.12585 0.9897 0.54053 0.0
C722 C 0.04126 1.01296 0.53548 0.0
C723 C 0.04644 1.01602 0.51588 0.0
C724 C 0.0931 1.00614 0.50905 0.0
C725 C 0.13159 0.99299 0.52102 0.0
C726 C 0.96501 0.03099 0.47171 0.0
C727 C 0.92408 0.05503 0.4784 0.0
C728 C 1.0035 1.01797 0.48362 0.0
C729 C 1.00379 0.02892 0.50292 0.0
C730 C 0.9623 0.05255 0.50957 0.0
C731 C 0.92354 0.0649 0.49769 0.0
H732 H 0.78585 0.32429 0.81378 0.0
H733 H 0.80628 0.41482 0.7661 0.0
H734 H 0.76812 0.25728 0.79359 0.0
H735 H 0.78587 0.34829 0.74558 0.0
H736 H 0.77576 0.21509 0.70878 0.0
H737 H 0.79625 0.28124 0.72927 0.0
H738 H 0.72901 0.20736 0.77509 0.0
H739 H 0.71121 0.14044 0.75466 0.0
C740 C 0.78535 0.33055 0.79891 0.0
C741 C 0.79705 0.37634 0.79193 0.0
C742 C 0.77495 0.29129 0.78704 0.0
C743 C 0.77504 0.2953 0.76734 0.0
C744 C 0.7858 0.34168 0.76039 0.0
C745 C 0.79693 0.3809 0.77233 0.0
C746 C 0.76623 0.21229 0.72334 0.0
C747 C 0.74222 0.17097 0.72978 0.0
C748 C 0.7774 0.25132 0.73529 0.0
C749 C 0.76444 0.25186 0.7544 0.0
C750 C 0.74099 0.20988 0.76084 0.0
C751 C 0.73056 0.17053 0.74893 0.0
H752 H 0.29328 0.31804 0.70514 0.0
H753 H 0.31534 0.4094 0.75255 0.0
H754 H 0.27447 0.25178 0.72559 0.0
H755 H 0.29416 0.34361 0.7733 0.0
H756 H 0.28513 0.21007 0.81015 0.0
H757 H 0.30623 0.2757 0.78943 0.0
H758 H 0.23189 0.20488 0.74448 0.0
H759 H 0.21328 0.13858 0.76505 0.0
C760 C 0.29294 0.32465 0.71999 0.0
C761 C 0.30539 0.3704 0.72684 0.0
C762 C 0.28193 0.28589 0.732 0.0
C763 C 0.28226 0.29045 0.75167 0.0
C764 C 0.29384 0.33674 0.75849 0.0
C765 C 0.30541 0.37548 0.74643 0.0
C766 C 0.2741 0.20784 0.79572 0.0
C767 C 0.24796 0.16752 0.78953 0.0
C768 C 0.28566 0.24651 0.78367 0.0
C769 C 0.27102 0.24759 0.76474 0.0
C770 C 0.24523 0.20674 0.75858 0.0
C771 C 0.23427 0.16784 0.77058 0.0
H772 H 0.33533 0.90697 0.26607 0.0
H773 H 0.27111 0.83326 0.31226 0.0
H774 H 0.31607 0.8403 0.24574 0.0
H775 H 0.24909 0.76737 0.29187 0.0
H776 H 0.23632 0.63398 0.25502 0.0
H777 H 0.25807 0.70019 0.27549 0.0
H778 H 0.27572 0.7911 0.22744 0.0
H779 H 0.25667 0.72444 0.20731 0.0
C780 C 0.31573 0.87714 0.27189 0.0
C781 C 0.30463 0.87687 0.29108 0.0
C782 C 0.30444 0.83795 0.26004 0.0
C783 C 0.28058 0.79632 0.26659 0.0
C784 C 0.26819 0.79703 0.28576 0.0
C785 C 0.28025 0.83589 0.29765 0.0
C786 C 0.24589 0.66781 0.24877 0.0
C787 C 0.24531 0.67247 0.22918 0.0
C788 C 0.25782 0.70683 0.26068 0.0
C789 C 0.26902 0.75308 0.2537 0.0
C790 C 0.26864 0.75718 0.23402 0.0
C791 C 0.25744 0.71811 0.22218 0.0
H792 H 0.16053 0.48306 0.50407 0.0
H793 H 0.07138 0.50465 0.45602 0.0
H794 H 0.09397 0.50501 0.52432 0.0
H795 H 1.00444 0.52413 0.47595 0.0
H796 H 0.88946 0.58594 0.51445 0.0
H797 H 0.95642 0.56637 0.49432 0.0
H798 H 0.02532 0.49446 0.54013 0.0
H799 H 0.95915 0.51649 0.56035 0.0
C800 C 0.12697 0.49303 0.49769 0.0
C801 C 0.12277 0.49265 0.47807 0.0
C802 C 0.08775 0.50505 0.50947 0.0
C803 C 0.0418 0.51671 0.50232 0.0
C804 C 0.03817 0.51664 0.48262 0.0
C805 C 0.07739 0.50519 0.47091 0.0
C806 C 0.91835 0.56511 0.52023 0.0
C807 C 0.91739 0.55254 0.53929 0.0
C808 C 0.95771 0.55369 0.50851 0.0
C809 C 0.99834 0.52839 0.51506 0.0
C810 C 0.99643 0.51464 0.53406 0.0
C811 C 0.95737 0.52669 0.54583 0.0
H812 H 0.65311 0.45813 0.01652 0.0
H813 H 0.58603 0.53442 0.06133 0.0
H814 H 0.58591 0.47621 0.99629 0.0
H815 H 0.51949 0.55485 0.04096 0.0
H816 H 0.38376 0.56466 1.00503 0.0
H817 H 0.45033 0.54389 0.02547 0.0
H818 H 0.5383 0.51715 0.97726 0.0
H819 H 0.47123 0.53558 0.95717 0.0
C820 C 0.62471 0.48007 0.02202 0.0
C821 C 0.6266 0.49523 0.04079 0.0
C822 C 0.58522 0.49066 0.01023 0.0
C823 C 0.54525 0.51752 0.01642 0.0
C824 C 0.54788 0.53348 0.03517 0.0
C825 C 0.58712 0.5223 0.04702 0.0
C826 C 0.41696 0.55329 0.99874 0.0
C827 C 0.42064 0.55117 0.97912 0.0
C828 C 0.4562 0.54192 0.01062 0.0
C829 C 0.50173 0.52849 1.00358 0.0
C830 C 0.50488 0.52611 0.98388 0.0
C831 C 0.46559 0.53691 0.97207 0.0
H832 H 0.23277 0.2922 0.09003 0.0
H833 H 0.33896 0.25036 0.13026 0.0
H834 H 0.21648 0.36429 0.10832 0.0
H835 H 0.32272 0.3217 0.14845 0.0
H836 H 0.24403 0.42788 0.18698 0.0
H837 H 0.26337 0.35793 0.16827 0.0
H838 H 0.24984 0.44175 0.11823 0.0
H839 H 0.23034 0.51198 0.13704 0.0
C840 C 0.25251 0.29804 0.1028 0.0
C841 C 0.28689 0.2646 0.10865 0.0
C842 C 0.24343 0.33978 0.11327 0.0
C843 C 0.26811 0.34934 0.13004 0.0
C844 C 0.30232 0.31573 0.13585 0.0
C845 C 0.31168 0.27443 0.12533 0.0
C846 C 0.24597 0.43181 0.17201 0.0
C847 C 0.23596 0.47618 0.16367 0.0
C848 C 0.25708 0.3914 0.16119 0.0
C849 C 0.25805 0.39353 0.14157 0.0
C850 C 0.24894 0.43817 0.13323 0.0
C851 C 0.23835 0.47882 0.14408 0.0
H852 H 0.54349 0.5885 0.37886 0.0
H853 H 0.50651 0.47752 0.33975 0.0
H854 H 0.47161 0.57184 0.39657 0.0
H855 H 0.43365 0.46054 0.35771 0.0
H856 H 0.28378 0.47332 0.3856 0.0
H857 H 0.35447 0.4921 0.36677 0.0
H858 H 0.43648 0.51391 0.41695 0.0
H859 H 0.36623 0.49552 0.43562 0.0
C860 C 0.52034 0.56004 0.37407 0.0
C861 C 0.53171 0.53412 0.35784 0.0
C862 C 0.47872 0.55041 0.38434 0.0
C863 C 0.44625 0.51463 0.37877 0.0
C864 C 0.45731 0.48867 0.36246 0.0
C865 C 0.49947 0.49812 0.3522 0.0
C866 C 0.31664 0.48308 0.39263 0.0
C867 C 0.3187 0.48337 0.41226 0.0
C868 C 0.35755 0.49319 0.38179 0.0
C869 C 0.40181 0.50445 0.39019 0.0
C870 C 0.40332 0.50598 0.40981 0.0
C871 C 0.3627 0.49544 0.42061 0.0
H872 H 0.21791 0.79381 0.62875 0.0
H873 H 0.32481 0.75497 0.58834 0.0
H874 H 0.23369 0.72173 0.64614 0.0
H875 H 0.3414 0.68189 0.60617 0.0
H876 H 0.32729 0.5324 0.63445 0.0
H877 H 0.31028 0.60345 0.61568 0.0
H878 H 0.28976 0.68507 0.66598 0.0
H879 H 0.30589 0.61448 0.68454 0.0
C880 C 0.24541 0.77023 0.62361 0.0
C881 C 0.2703 0.78114 0.60707 0.0
C882 C 0.25461 0.72845 0.63374 0.0
C883 C 0.28911 0.69535 0.62781 0.0
C884 C 0.31423 0.70602 0.61122 0.0
C885 C 0.30509 0.74833 0.60104 0.0
C886 C 0.31813 0.56527 0.64151 0.0
C887 C 0.3174 0.56706 0.66114 0.0
C888 C 0.30908 0.60641 0.63069 0.0
C889 C 0.29864 0.65069 0.63914 0.0
C890 C 0.29694 0.65195 0.65876 0.0
C891 C 0.30621 0.6111 0.66952 0.0
H892 H 0.04341 0.55247 0.83776 0.0
H893 H 0.98128 0.48248 0.88538 0.0
H894 H 0.11581 0.56926 0.85591 0.0
H895 H 0.05366 0.49707 0.90316 0.0
H896 H 0.17051 0.57042 0.93724 0.0
H897 H 0.09955 0.55326 0.91891 0.0
H898 H 0.18667 0.53798 0.86972 0.0
H899 H 0.258 0.55665 0.88817 0.0
C900 C 0.04502 0.54066 0.85209 0.0
C901 C 1.00612 0.51568 0.85993 0.0
C902 C 0.08702 0.54977 0.86251 0.0
C903 C 0.09157 0.53445 0.88119 0.0
C904 C 0.05216 0.51013 0.88901 0.0
C905 C 1.01039 0.50113 0.87863 0.0
C906 C 0.17491 0.56272 0.92256 0.0
C907 C 0.22065 0.5646 0.91438 0.0
C908 C 0.13378 0.55271 0.91193 0.0
C909 C 0.13646 0.54408 0.89259 0.0
C910 C 0.18242 0.545 0.88444 0.0
C911 C 0.22373 0.55507 0.89513 0.0
H912 H 0.81052 0.54158 0.88272 0.0
H913 H 0.80698 0.62667 0.83276 0.0
H914 H 0.79246 0.61251 0.90133 0.0
H915 H 0.78881 0.69738 0.8513 0.0
H916 H 0.71068 0.8059 0.88843 0.0
H917 H 0.72742 0.73472 0.87027 0.0
H918 H 0.82845 0.68915 0.91191 0.0
H919 H 0.81175 0.76134 0.93018 0.0
C920 C 0.80509 0.57518 0.87561 0.0
C921 C 0.80981 0.57782 0.85608 0.0
C922 C 0.79533 0.61619 0.88637 0.0
C923 C 0.78932 0.66127 0.87798 0.0
C924 C 0.79275 0.66356 0.85839 0.0
C925 C 0.80313 0.62273 0.84768 0.0
C926 C 0.73693 0.78122 0.89373 0.0
C927 C 0.76009 0.79025 0.91083 0.0
C928 C 0.7466 0.74002 0.88321 0.0
C929 C 0.77944 0.70561 0.88944 0.0
C930 C 0.80261 0.71437 0.90661 0.0
C931 C 0.79331 0.75613 0.91708 0.0
H932 H 0.50924 0.58954 0.66499 0.0
H933 H 0.53485 0.44002 0.65513 0.0
H934 H 0.57976 0.60955 0.64594 0.0
H935 H 0.60586 0.45996 0.63686 0.0
H936 H 0.76126 0.52693 0.62399 0.0
H937 H 0.69192 0.50603 0.64347 0.0
H938 H 0.60155 0.59281 0.60884 0.0
H939 H 0.66986 0.6121 0.589 0.0
C940 C 0.53007 0.56096 0.65897 0.0
C941 C 0.51604 0.51315 0.66161 0.0
C942 C 0.57043 0.5724 0.648 0.0
C943 C 0.59868 0.53632 0.63989 0.0
C944 C 0.58524 0.48861 0.64295 0.0
C945 C 0.54429 0.47727 0.65339 0.0
C946 C 0.72649 0.54092 0.62034 0.0
C947 C 0.72139 0.5707 0.60468 0.0
C948 C 0.68676 0.52915 0.63158 0.0
C949 C 0.64113 0.54812 0.62785 0.0
C950 C 0.63611 0.57789 0.61224 0.0
C951 C 0.67538 0.5885 0.60073 0.0
H952 H 0.84029 0.25574 0.39048 0.0
H953 H 0.72815 0.29054 0.42924 0.0
H954 H 0.82284 0.32713 0.37264 0.0
H955 H 0.71059 0.36294 0.41124 0.0
H956 H 0.7229 0.51304 0.38356 0.0
H957 H 0.74238 0.44268 0.40234 0.0
H958 H 0.76364 0.36106 0.35211 0.0
H959 H 0.74428 0.43101 0.33347 0.0
C960 C 0.81143 0.27828 0.39516 0.0
C961 C 0.78538 0.26643 0.41133 0.0
C962 C 0.80137 0.31962 0.38483 0.0
C963 C 0.76511 0.35136 0.3903 0.0
C964 C 0.73908 0.33985 0.40656 0.0
C965 C 0.74888 0.29795 0.41685 0.0
C966 C 0.73262 0.48035 0.3765 0.0
C967 C 0.73244 0.4783 0.35687 0.0
C968 C 0.74316 0.43962 0.38732 0.0
C969 C 0.75449 0.39557 0.37889 0.0
C970 C 0.75561 0.39408 0.35926 0.0
C971 C 0.74451 0.4345 0.34849 0.0
H972 H 0.7864 0.47782 0.1341 0.0
H973 H 0.86981 0.49126 0.08392 0.0
H974 H 0.85757 0.49629 0.15274 0.0
H975 H 0.94058 0.50956 0.10243 0.0
H976 H 0.04885 0.58607 0.13994 0.0
H977 H 0.97691 0.56937 0.12215 0.0
H978 H 0.93583 0.46241 0.16225 0.0
H979 H 1.00875 0.47925 0.18022 0.0
C980 C 0.81962 0.48556 0.12698 0.0
C981 C 0.8218 0.48348 0.10737 0.0
C982 C 0.86077 0.49552 0.13772 0.0
C983 C 0.90541 0.50432 0.12923 0.0
C984 C 0.90711 0.5035 0.10961 0.0
C985 C 0.86624 0.49301 0.09891 0.0
C986 C 0.02501 0.55853 0.14497 0.0
C987 C 0.0355 0.53376 0.16155 0.0
C988 C 0.98337 0.54889 0.13466 0.0
C989 C 0.95 0.51438 0.14058 0.0
C990 C 0.96021 0.48957 0.15723 0.0
C991 C 1.0024 0.49892 0.1675 0.0
H992 H 0.83956 0.75201 0.62978 0.0
H993 H 0.73509 0.79466 0.589 0.0
H994 H 0.82246 0.82303 0.64809 0.0
H995 H 0.71789 0.8663 0.6074 0.0
H996 H 0.74188 0.92826 0.68647 0.0
H997 H 0.76249 0.85887 0.66766 0.0
H998 H 0.74998 0.9436 0.61781 0.0
H999 H 0.72916 1.01327 0.63673 0.0
C1000 C 0.81254 0.77623 0.62473 0.0
C1001 C 0.78849 0.76672 0.60786 0.0
C1002 C 0.80264 0.81732 0.63533 0.0
C1003 C 0.7686 0.85102 0.62941 0.0
C1004 C 0.74469 0.84176 0.61245 0.0
C1005 C 0.75431 0.80026 0.60191 0.0
C1006 C 0.74429 0.93252 0.67152 0.0
C1007 C 0.73417 0.97699 0.66328 0.0
C1008 C 0.75616 0.89242 0.66065 0.0
C1009 C 0.75782 0.89494 0.64104 0.0
C1010 C 0.74858 0.93968 0.63279 0.0
C1011 C 0.73722 0.98003 0.64371 0.0
H1012 H 0.87124 0.99467 0.93602 0.0
H1013 H 0.78654 0.98395 0.88601 0.0
H1014 H 0.9419 1.01246 0.91737 0.0
H1015 H 0.85751 1.00181 0.86727 0.0
H1016 H 1.00695 0.98253 0.83903 0.0
H1017 H 0.93441 0.96693 0.85729 0.0
H1018 H 0.97958 0.07164 0.89773 0.0
H1019 H 0.05132 0.08713 0.87961 0.0
C1020 C 0.86736 0.99691 0.92104 0.0
C1021 C 0.82257 0.98827 0.91268 0.0
C1022 C 0.90818 1.0071 0.91026 0.0
C1023 C 0.90607 1.00847 0.89064 0.0
C1024 C 0.86108 1.00059 0.88226 0.0
C1025 C 0.82002 0.99095 0.89308 0.0
C1026 C 1.00158 1.00203 0.85187 0.0
C1027 C 0.03577 0.03589 0.8578 0.0
C1028 C 0.95959 0.99337 0.86232 0.0
C1029 C 0.95058 1.01789 0.87915 0.0
C1030 C 0.98503 0.05143 0.88506 0.0
C1031 C 0.02653 0.06041 0.87456 0.0
H1032 H 0.82042 0.03798 0.13661 0.0
H1033 H 0.79942 0.1194 0.18689 0.0
H1034 H 0.80051 0.10843 0.11801 0.0
H1035 H 0.77966 0.18952 0.16839 0.0
H1036 H 0.70379 0.29598 0.13007 0.0
H1037 H 0.72071 0.22433 0.14792 0.0
H1038 H 0.83249 0.18763 0.10924 0.0
H1039 H 0.81551 0.26009 0.09129 0.0
C1040 C 0.8107 0.07056 0.14375 0.0
C1041 C 0.81115 0.07241 0.16338 0.0
C1042 C 0.79989 0.11135 0.13303 0.0
C1043 C 0.78859 0.15529 0.14155 0.0
C1044 C 0.78767 0.15659 0.16118 0.0
C1045 C 0.79901 0.11608 0.17187 0.0
C1046 C 0.7324 0.27314 0.12539 0.0
C1047 C 0.75853 0.28472 0.10922 0.0
C1048 C 0.74216 0.23167 0.13571 0.0
C1049 C 0.77814 0.19962 0.1302 0.0
C1050 C 0.80418 0.21091 0.11394 0.0
C1051 C 0.7947 0.25285 0.10367 0.0
H1052 H 0.68203 0.05431 0.43622 0.0
H1053 H 0.76417 0.07498 0.38608 0.0
H1054 H 0.61168 0.03503 0.4176 0.0
H1055 H 0.69344 0.05562 0.36735 0.0
H1056 H 0.54115 0.07114 0.34063 0.0
H1057 H 0.61392 0.08829 0.35863 0.0
H1058 H 0.57729 0.97565 0.39699 0.0
H1059 H 0.50553 0.95856 0.37913 0.0
C1060 C 0.68545 0.05393 0.4212 0.0
C1061 C 0.72936 0.06581 0.41278 0.0
C1062 C 0.64482 0.0429 0.41045 0.0
C1063 C 0.64629 0.0439 0.39082 0.0
C1064 C 0.69045 0.05496 0.38237 0.0
C1065 C 0.73137 0.06543 0.39316 0.0
C1066 C 0.54846 0.05023 0.35296 0.0
C1067 C 0.51663 1.01375 0.35843 0.0
C1068 C 0.59055 0.0598 0.36325 0.0
C1069 C 0.6019 0.03353 0.37943 0.0
C1070 C 0.56986 0.99727 0.38485 0.0
C1071 C 0.52833 0.98743 0.37451 0.0
H1072 H 0.21181 0.29481 0.39049 0.0
H1073 H 0.32093 0.25786 0.43029 0.0
H1074 H 0.22909 0.22336 0.37271 0.0
H1075 H 0.33846 0.18534 0.41227 0.0
H1076 H 0.32456 0.0356 0.384 0.0
H1077 H 0.30587 0.10616 0.40283 0.0
H1078 H 0.28856 0.18884 0.35268 0.0
H1079 H 0.30701 0.11871 0.33399 0.0
C1080 C 0.23998 0.27174 0.39543 0.0
C1081 C 0.2652 0.28299 0.41188 0.0
C1082 C 0.24997 0.23038 0.38511 0.0
C1083 C 0.28537 0.19803 0.39085 0.0
C1084 C 0.31065 0.20895 0.40738 0.0
C1085 C 0.3009 0.2509 0.41768 0.0
C1086 C 0.31587 0.0686 0.37697 0.0
C1087 C 0.31682 0.07088 0.35735 0.0
C1088 C 0.3058 0.10942 0.38782 0.0
C1089 C 0.29578 0.15379 0.37942 0.0
C1090 C 0.29555 0.15556 0.3598 0.0
C1091 C 0.30611 0.11504 0.34899 0.0
H1092 H 0.02784 0.94138 0.15442 0.0
H1093 H 1.00868 0.09109 0.16593 0.0
H1094 H 0.09968 0.95966 0.1363 0.0
H1095 H 0.07985 0.10949 0.14701 0.0
H1096 H 0.16903 0.11009 0.08936 0.0
H1097 H 0.10005 0.09167 0.10895 0.0
H1098 H 0.18873 1.0049 0.14422 0.0
H1099 H 0.25887 0.02503 0.12499 0.0
C1100 C 0.03879 0.97831 0.15305 0.0
C1101 C 1.0121 1.01474 0.16171 0.0
C1102 C 0.08024 0.9887 0.1427 0.0
C1103 C 0.09575 0.03601 0.14018 0.0
C1104 C 0.06897 0.07262 0.14867 0.0
C1105 C 0.02818 0.06209 0.15954 0.0
C1106 C 0.17409 0.08667 0.10117 0.0
C1107 C 0.21992 0.0687 0.10536 0.0
C1108 C 0.13439 0.07653 0.11253 0.0
C1109 C 0.13869 0.04702 0.12825 0.0
C1110 C 0.1841 0.02782 0.13223 0.0
C1111 C 0.22431 0.03916 0.12114 0.0
H1112 H 0.23177 1.00984 0.88257 0.0
H1113 H 0.23909 0.92343 0.83297 0.0
H1114 H 0.25053 0.93975 0.90156 0.0
H1115 H 0.2577 0.85364 0.85186 0.0
H1116 H 0.33473 0.74614 0.88934 0.0
H1117 H 0.31802 0.81704 0.87105 0.0
H1118 H 0.2166 0.86311 0.91244 0.0
H1119 H 0.23348 0.79136 0.93089 0.0
C1120 C 0.23817 0.97616 0.87563 0.0
C1121 C 0.23432 0.97289 0.85608 0.0
C1122 C 0.24833 0.9356 0.8866 0.0
C1123 C 0.25556 0.89039 0.87842 0.0
C1124 C 0.25291 0.88755 0.85882 0.0
C1125 C 0.24223 0.92787 0.8479 0.0
C1126 C 0.30847 0.77094 0.89457 0.0
C1127 C 0.28526 0.76217 0.91167 0.0
C1128 C 0.29877 0.81196 0.88397 0.0
C1129 C 0.26577 0.84642 0.89007 0.0
C1130 C 0.24258 0.83791 0.90724 0.0
C1131 C 0.25198 0.79638 0.91781 0.0
H1132 H 0.54468 0.08925 0.6406 0.0
H1133 H 0.50746 0.97717 0.67909 0.0
H1134 H 0.47269 0.07313 0.62274 0.0
H1135 H 0.4347 0.96071 0.66101 0.0
H1136 H 0.28528 0.97267 0.63312 0.0
H1137 H 0.35563 0.99216 0.65208 0.0
H1138 H 0.43755 1.01574 0.60206 0.0
H1139 H 0.36761 0.99663 0.58327 0.0
C1140 C 0.52144 0.06071 0.64522 0.0
C1141 C 0.53273 0.03429 0.66132 0.0
C1142 C 0.47979 0.05138 0.63487 0.0
C1143 C 0.4473 1.01544 0.64024 0.0
C1144 C 0.45833 0.98901 0.65642 0.0
C1145 C 0.50045 0.99814 0.66675 0.0
C1146 C 0.318 0.98303 0.62616 0.0
C1147 C 0.32018 0.98349 0.60654 0.0
C1148 C 0.35874 0.99354 0.63708 0.0
C1149 C 0.40291 1.00539 0.62875 0.0
C1150 C 0.40445 1.00732 0.60914 0.0
C1151 C 0.36403 0.99636 0.59827 0.0
H1152 H 0.1684 0.24813 1.00312 0.0
H1153 H 0.25139 0.12359 0.98978 0.0
H1154 H 0.15634 0.26346 0.96962 0.0
H1155 H 0.24134 0.1398 0.95654 0.0
H1156 H 0.2638 0.21893 0.90193 0.0
H1157 H 0.27032 0.21977 0.93603 0.0
H1158 H 0.11716 0.20569 0.94045 0.0
H1159 H 0.11109 0.20397 0.9063 0.0
C1160 C 0.18398 0.22426 0.99297 0.0
C1161 C 0.21202 0.18564 0.99877 0.0
C1162 C 0.17733 0.23306 0.97397 0.0
C1163 C 0.19906 0.20344 0.96071 0.0
C1164 C 0.22537 0.16375 0.96659 0.0
C1165 C 0.23116 0.15454 0.98548 0.0
C1166 C 0.23165 0.21761 0.91029 0.0
C1167 C 0.18704 0.2114 0.90181 0.0
C1168 C 0.23528 0.21781 0.92964 0.0
C1169 C 0.19418 0.21262 0.94067 0.0
C1170 C 0.14917 0.21006 0.93215 0.0
C1171 C 0.14569 0.20904 0.91277 0.0
H1172 H 0.56673 0.50615 0.15454 0.0
H1173 H 0.59816 0.35612 0.15706 0.0
H1174 H 0.56343 0.50953 0.18854 0.0
H1175 H 0.59388 0.35852 0.19107 0.0
H1176 H 0.66363 0.40507 0.24698 0.0
H1177 H 0.64711 0.39139 0.21402 0.0
H1178 H 0.52588 0.48616 0.21735 0.0
H1179 H 0.54339 0.50006 0.25029 0.0
C1180 C 0.5714 0.47367 0.16248 0.0
C1181 C 0.58328 0.43108 0.15346 0.0
C1182 C 0.5695 0.47541 0.18189 0.0
C1183 C 0.57912 0.43437 0.19253 0.0
C1184 C 0.5874 0.39096 0.1833 0.0
C1185 C 0.5896 0.38941 0.16392 0.0
C1186 C 0.63315 0.42228 0.24063 0.0
C1187 C 0.60544 0.45439 0.25087 0.0
C1188 C 0.62341 0.41435 0.22182 0.0
C1189 C 0.58534 0.43804 0.213 0.0
C1190 C 0.556 0.46814 0.22363 0.0
C1191 C 0.56597 0.47618 0.24241 0.0
H1192 H 0.39808 0.91834 0.49663 0.0
H1193 H 0.30474 0.79614 0.49995 0.0
H1194 H 0.41286 0.90138 0.46377 0.0
H1195 H 0.3198 0.77814 0.46716 0.0
H1196 H 0.44992 0.85219 0.40707 0.0
H1197 H 0.44701 0.84865 0.44109 0.0
H1198 H 0.29641 0.8143 0.43818 0.0
H1199 H 0.30034 0.81687 0.40419 0.0
C1200 C 0.38149 0.88735 0.4903 0.0
C1201 C 0.3495 0.85918 0.50049 0.0
C1202 C 0.39005 0.87735 0.47156 0.0
C1203 C 0.36714 0.83856 0.46279 0.0
C1204 C 0.33721 0.80881 0.47339 0.0
C1205 C 0.32851 0.81905 0.49209 0.0
C1206 C 0.41663 0.84294 0.41386 0.0
C1207 C 0.37521 0.83529 0.40329 0.0
C1208 C 0.41479 0.84115 0.43324 0.0
C1209 C 0.37131 0.83198 0.44236 0.0
C1210 C 0.33058 0.82108 0.43163 0.0
C1211 C 0.33263 0.82255 0.41222 0.0
H1212 H 0.94622 0.68621 0.657 0.0
H1213 H 0.97155 0.5352 0.65307 0.0
H1214 H 0.95082 0.68175 0.69095 0.0
H1215 H 0.97478 0.52971 0.68704 0.0
H1216 H 0.99828 0.53628 0.74896 0.0
H1217 H 1.01375 0.54928 0.71583 0.0
H1218 H 0.89804 0.65098 0.71405 0.0
H1219 H 0.88371 0.63828 0.74718 0.0
C1220 C 0.95335 0.65219 0.66354 0.0
C1221 C 0.95809 0.61094 0.65269 0.0
C1222 C 0.9557 0.64947 0.6829 0.0
C1223 C 0.96236 0.60524 0.69174 0.0
C1224 C 0.97001 0.56442 0.68071 0.0
C1225 C 0.96811 0.56736 0.66131 0.0
C1226 C 0.97639 0.56137 0.74137 0.0
C1227 C 0.93922 0.58563 0.75035 0.0
C1228 C 0.98519 0.5689 0.72246 0.0
C1229 C 0.95693 0.60091 0.71223 0.0
C1230 C 0.92097 0.62657 0.72152 0.0
C1231 C 0.91247 0.6192 0.74043 0.0
H1232 H 0.78989 0.82502 0.11586 0.0
H1233 H 0.94087 0.85307 0.11209 0.0
H1234 H 0.78427 0.82289 0.08192 0.0
H1235 H 0.93624 0.84963 0.07809 0.0
H1236 H 0.78972 0.80192 0.02005 0.0
H1237 H 0.80396 0.78521 0.053 0.0
H1238 H 0.90463 0.90255 0.05518 0.0
H1239 H 0.89066 0.91817 0.02219 0.0
C1240 C 0.82206 0.82926 0.10765 0.0
C1241 C 0.86563 0.83975 0.11634 0.0
C1242 C 0.81903 0.828 0.08825 0.0
C1243 C 0.85975 0.83675 0.07725 0.0
C1244 C 0.90402 0.84386 0.08612 0.0
C1245 C 0.90686 0.84551 0.10551 0.0
C1246 C 0.81487 0.8239 0.02768 0.0
C1247 C 0.83839 0.86195 0.01887 0.0
C1248 C 0.82312 0.81438 0.04648 0.0
C1249 C 0.85511 0.84278 0.0568 0.0
C1250 C 0.8802 0.87954 0.04764 0.0
C1251 C 0.8721 0.88878 0.02882 0.0
H1252 H 0.46337 0.53469 0.86627 0.0
H1253 H 0.44984 0.68721 0.86192 0.0
H1254 H 0.46163 0.52796 0.83219 0.0
H1255 H 0.44888 0.68096 0.82777 0.0
H1256 H 0.48616 0.63282 0.76494 0.0
H1257 H 0.50252 0.64497 0.79836 0.0
H1258 H 0.38312 0.55352 0.81192 0.0
H1259 H 0.36597 0.54317 0.77875 0.0
C1260 C 0.46176 0.56675 0.8579 0.0
C1261 C 0.45681 0.61137 0.86641 0.0
C1262 C 0.46042 0.563 0.83855 0.0
C1263 C 0.45484 0.60399 0.82754 0.0
C1264 C 0.45347 0.649 0.83604 0.0
C1265 C 0.45402 0.6526 0.85542 0.0
C1266 C 0.46339 0.6159 0.77518 0.0
C1267 C 0.42576 0.58601 0.76952 0.0
C1268 C 0.47278 0.62259 0.79414 0.0
C1269 C 0.44476 0.59908 0.80752 0.0
C1270 C 0.40592 0.57092 0.80179 0.0
C1271 C 0.39611 0.56503 0.78294 0.0
H1272 H 0.7588 0.21349 0.61741 0.0
H1273 H 0.60578 0.20615 0.61206 0.0
H1274 H 0.7668 0.21134 0.58337 0.0
H1275 H 0.61334 0.20506 0.57794 0.0
H1276 H 0.66798 0.24374 0.51569 0.0
H1277 H 0.65508 0.25923 0.54903 0.0
H1278 H 0.73626 0.13344 0.56256 0.0
H1279 H 0.74681 0.11668 0.52947 0.0
C1280 C 0.72698 0.21322 0.60882 0.0
C1281 C 0.68176 0.21031 0.61704 0.0
C1282 C 0.73145 0.21162 0.5895 0.0
C1283 C 0.69062 0.20785 0.57821 0.0
C1284 C 0.64519 0.20828 0.58643 0.0
C1285 C 0.64084 0.20901 0.60579 0.0
C1286 C 0.68249 0.21926 0.52585 0.0
C1287 C 0.70976 0.17994 0.52011 0.0
C1288 C 0.67536 0.22823 0.54481 0.0
C1289 C 0.69584 0.19814 0.55818 0.0
C1290 C 0.72133 0.1578 0.55242 0.0
C1291 C 0.72761 0.1484 0.53355 0.0
H1292 H 0.07038 0.49894 0.36665 0.0
H1293 H 0.0994 0.34888 0.36155 0.0
H1294 H 0.06929 0.50659 0.33276 0.0
H1295 H 0.09677 0.35537 0.3276 0.0
H1296 H 0.16513 0.40336 0.27209 0.0
H1297 H 0.1496 0.38813 0.30506 0.0
H1298 H 0.03302 0.48898 0.30361 0.0
H1299 H 0.05037 0.50495 0.27078 0.0
C1300 C 0.0749 0.46738 0.35813 0.0
C1301 C 0.08525 0.42349 0.36643 0.0
C1302 C 0.0743 0.47156 0.33877 0.0
C1303 C 0.08359 0.43165 0.32743 0.0
C1304 C 0.0906 0.387 0.3359 0.0
C1305 C 0.09169 0.38307 0.35525 0.0
C1306 C 0.1361 0.42176 0.27894 0.0
C1307 C 0.10942 0.45579 0.26929 0.0
C1308 C 0.12681 0.41292 0.29772 0.0
C1309 C 0.09011 0.43752 0.30704 0.0
C1310 C 0.06207 0.47009 0.29698 0.0
C1311 C 0.07177 0.47918 0.27826 0.0
H1312 H 0.60181 0.70031 0.40719 0.0
H1313 H 0.75197 0.7313 0.40232 0.0
H1314 H 0.60739 0.70653 0.4411 0.0
H1315 H 0.7587 0.73599 0.43621 0.0
H1316 H 0.6556 0.64181 0.49714 0.0
H1317 H 0.64037 0.65573 0.46416 0.0
H1318 H 0.73985 0.77423 0.465 0.0
H1319 H 0.75558 0.75898 0.49797 0.0
C1320 C 0.63585 0.70909 0.41352 0.0
C1321 C 0.67658 0.71495 0.40244 0.0
C1322 C 0.63924 0.71235 0.43285 0.0
C1323 C 0.68366 0.72094 0.44141 0.0
C1324 C 0.72385 0.72975 0.43012 0.0
C1325 C 0.7202 0.72701 0.41076 0.0
C1326 C 0.67362 0.67109 0.49022 0.0
C1327 C 0.7074 0.69869 0.4998 0.0
C1328 C 0.66478 0.67939 0.4714 0.0
C1329 C 0.68912 0.71601 0.46187 0.0
C1330 C 0.72122 0.74517 0.47181 0.0
C1331 C 0.73029 0.73653 0.49062 0.0
H1332 H 0.07726 0.99637 0.65129 0.0
H1333 H 0.09934 0.84546 0.65796 0.0
H1334 H 0.07809 1.00655 0.68525 0.0
H1335 H 0.09924 0.85512 0.692 0.0
H1336 H 0.05755 0.90848 0.75403 0.0
H1337 H 0.04157 0.89288 0.7208 0.0
H1338 H 0.15914 0.98533 0.70597 0.0
H1339 H 0.1762 0.99888 0.73897 0.0
C1340 C 0.08049 0.9653 0.66014 0.0
C1341 C 0.08805 0.92023 0.65231 0.0
C1342 C 0.08129 0.97104 0.67943 0.0
C1343 C 0.08889 0.93156 0.69106 0.0
C1344 C 0.093 0.8859 0.68324 0.0
C1345 C 0.09304 0.88036 0.66392 0.0
C1346 C 0.07993 0.92503 0.74356 0.0
C1347 C 0.117 0.9561 0.74882 0.0
C1348 C 0.07076 0.91634 0.7247 0.0
C1349 C 0.09843 0.93899 0.711 0.0
C1350 C 0.13659 0.96855 0.71634 0.0
C1351 C 0.14625 0.97639 0.7351 0.0
H1352 H 0.91757 0.40929 0.90793 0.0
H1353 H 0.82613 0.28512 0.90849 0.0
H1354 H 0.9226 0.40735 0.94162 0.0
H1355 H 0.82993 0.28393 0.9426 0.0
H1356 H 0.86441 0.29019 1.00552 0.0
H1357 H 0.88335 0.27893 0.97234 0.0
H1358 H 0.85217 0.42756 0.96233 0.0
H1359 H 0.83321 0.4382 0.99528 0.0
C1360 C 0.90052 0.38008 0.91518 0.0
C1361 C 0.87223 0.34665 0.90556 0.0
C1362 C 0.90271 0.37951 0.93453 0.0
C1363 C 0.87632 0.3458 0.94466 0.0
C1364 C 0.85093 0.31009 0.93507 0.0
C1365 C 0.84866 0.31075 0.91563 0.0
C1366 C 0.86232 0.32029 0.99612 0.0
C1367 C 0.84709 0.36489 1.00264 0.0
C1368 C 0.87292 0.3139 0.97727 0.0
C1369 C 0.86942 0.35242 0.96487 0.0
C1370 C 0.85579 0.39742 0.97165 0.0
C1371 C 0.84456 0.40352 0.99037 0.0
H1372 H 0.50466 0.04912 0.25047 0.0
H1373 H 0.38257 0.14191 0.24798 0.0
H1374 H 0.51982 0.06253 0.21734 0.0
H1375 H 0.39668 0.15502 0.21484 0.0
H1376 H 0.47623 0.04029 0.155 0.0
H1377 H 0.48101 0.03773 0.18899 0.0
H1378 H 0.44754 0.18814 0.19129 0.0
H1379 H 0.44173 0.18968 0.15732 0.0
C1380 C 0.4812 0.07246 0.24273 0.0
C1381 C 0.4419 0.09377 0.25147 0.0
C1382 C 0.4898 0.08018 0.22384 0.0
C1383 C 0.4592 0.10944 0.21339 0.0
C1384 C 0.42132 0.13271 0.22249 0.0
C1385 C 0.41297 0.12513 0.2414 0.0
C1386 C 0.47103 0.07279 0.16289 0.0
C1387 C 0.4579 0.11493 0.15384 0.0
C1388 C 0.47384 0.07154 0.18229 0.0
C1389 C 0.46397 0.11265 0.19287 0.0
C1390 C 0.45423 0.15564 0.18358 0.0
C1391 C 0.45107 0.15667 0.16422 0.0
H1392 H 0.45258 0.35214 0.61069 0.0
H1393 H 0.30361 0.31464 0.61443 0.0
H1394 H 0.44788 0.34963 0.57668 0.0
H1395 H 0.29793 0.31316 0.58052 0.0
H1396 H 0.3026 0.29708 0.51868 0.0
H1397 H 0.31969 0.27842 0.55126 0.0
H1398 H 0.41215 0.40218 0.55441 0.0
H1399 H 0.39547 0.4197 0.52175 0.0
C1400 C 0.41906 0.34267 0.60411 0.0
C1401 C 0.37827 0.33419 0.61494 0.0
C1402 C 0.41619 0.34148 0.58472 0.0
C1403 C 0.37234 0.33199 0.57587 0.0
C1404 C 0.33236 0.32021 0.58684 0.0
C1405 C 0.33543 0.32109 0.60623 0.0
C1406 C 0.32662 0.32 0.52644 0.0
C1407 C 0.34695 0.36039 0.51803 0.0
C1408 C 0.33651 0.30937 0.54502 0.0
C1409 C 0.36692 0.33905 0.55551 0.0
C1410 C 0.38903 0.3782 0.54671 0.0
C1411 C 0.37934 0.38854 0.52809 0.0
H1412 H 0.98114 0.04953 0.36548 0.0
H1413 H 0.94655 0.19865 0.36161 0.0
H1414 H 0.98342 0.04391 0.33151 0.0
H1415 H 0.94993 0.19408 0.32762 0.0
H1416 H 1.00255 0.05042 0.26948 0.0
H1417 H 1.01969 0.0657 0.30237 0.0
H1418 H 0.89743 0.1593 0.30506 0.0
H1419 H 0.88132 0.14431 0.27217 0.0
C1420 C 0.9755 0.08135 0.35724 0.0
C1421 C 0.96309 0.1243 0.36589 0.0
C1422 C 0.97682 0.07833 0.33783 0.0
C1423 C 0.96613 0.11845 0.32683 0.0
C1424 C 0.9572 0.16228 0.33567 0.0
C1425 C 0.95551 0.16508 0.35504 0.0
C1426 C 0.9796 0.07426 0.27721 0.0
C1427 C 0.94005 0.09545 0.26858 0.0
C1428 C 0.98936 0.0831 0.29597 0.0
C1429 C 0.95973 0.1134 0.3064 0.0
C1430 C 0.9214 0.13625 0.29742 0.0
C1431 C 0.91189 0.12755 0.27865 0.0
H1432 H 0.10591 0.69758 0.11297 0.0
H1433 H 0.2564 0.72814 0.11659 0.0
H1434 H 0.1097 0.70263 0.07901 0.0
H1435 H 0.26131 0.73178 0.08264 0.0
H1436 H 0.15551 0.63536 0.02296 0.0
H1437 H 0.14166 0.65063 0.05596 0.0
H1438 H 0.24061 0.76944 0.05384 0.0
H1439 H 0.25488 0.75291 0.02087 0.0
C1440 C 0.13962 0.70607 0.10635 0.0
C1441 C 0.18097 0.71211 0.1171 0.0
C1442 C 0.14198 0.70866 0.087 0.0
C1443 C 0.18596 0.71681 0.07807 0.0
C1444 C 0.22677 0.72587 0.08902 0.0
C1445 C 0.22417 0.72375 0.10841 0.0
C1446 C 0.17367 0.66501 0.02961 0.0
C1447 C 0.20694 0.69232 0.01968 0.0
C1448 C 0.16564 0.67407 0.04844 0.0
C1449 C 0.19031 0.71114 0.05761 0.0
C1450 C 0.22178 0.74005 0.04731 0.0
C1451 C 0.23002 0.73066 0.0285 0.0
H1452 H 0.5666 1.00869 0.86427 0.0
H1453 H 0.59985 0.85898 0.86262 0.0
H1454 H 0.56195 1.01032 0.83027 0.0
H1455 H 0.59417 0.85958 0.82863 0.0
H1456 H 0.54041 0.99824 0.76879 0.0
H1457 H 0.52364 0.98507 0.80182 0.0
H1458 H 0.64615 0.89194 0.80525 0.0
H1459 H 0.66188 0.90484 0.77221 0.0
C1460 C 0.57144 0.9759 0.85653 0.0
C1461 C 0.5842 0.93393 0.86576 0.0
C1462 C 0.56873 0.97662 0.83712 0.0
C1463 C 0.57838 0.93515 0.82672 0.0
C1464 C 0.58761 0.89232 0.83621 0.0
C1465 C 0.59066 0.89182 0.85558 0.0
C1466 C 0.56335 0.97479 0.77671 0.0
C1467 C 0.60299 0.9533 0.76827 0.0
C1468 C 0.55383 0.96719 0.79554 0.0
C1469 C 0.58383 0.93788 0.80622 0.0
C1470 C 0.62196 0.91432 0.79741 0.0
C1471 C 0.63124 0.92178 0.77856 0.0
loop_
_geom_bond_atom_site_label_1
_geom_bond_atom_site_label_2
_geom_bond_distance
_geom_bond_site_symmetry_2
_ccdc_geom_bond_type
Zn0 O1 2.055 . S
Zn0 O8 2.046 . S
Zn0 N16 2.036 . S
Zn0 O28 2.053 . S
Zn0 O30 2.066 . S
O1 Zn0 2.055 . S
O1 C4 1.259 . S
C2 O30 1.256 . S
C2 O31 1.244 . S
Zn3 O5 2.046 . S
Zn3 O7 2.055 . S
Zn3 N9 2.036 . S
Zn3 O27 2.066 . S
Zn3 O31 2.053 . S
C4 O1 1.259 . S
C4 O5 1.254 . S
O5 Zn3 2.046 . S
O5 C4 1.254 . S
C6 O27 1.256 . S
C6 O28 1.244 . S
O7 Zn3 2.055 . S
O7 C29 1.259 . S
O8 Zn0 2.046 . S
O8 C29 1.254 . S
N9 Zn3 2.036 . S
N9 C10 1.298 . S
N9 N12 1.398 . S
C10 N9 1.298 . S
C10 N13 1.367 . S
C10 C23 1.481 . S
C11 N12 1.299 . S
C11 N13 1.379 . S
N12 N9 1.398 . S
N12 C11 1.299 . S
N13 C10 1.367 . S
N13 C11 1.379 . S
C14 N16 1.298 . S
C14 N18 1.367 . S
C14 C22 1.481 . S
C15 N17 1.299 . S
C15 N18 1.379 . S
N16 Zn0 2.036 . S
N16 C14 1.298 . S
N16 N17 1.398 . S
N17 C15 1.299 . S
N17 N16 1.398 . S
N18 C14 1.367 . S
N18 C15 1.379 . S
H19 C22 0.980 . S
H20 C22 0.981 . S
H21 C22 0.981 . S
C22 C14 1.481 . S
C22 H19 0.980 . S
C22 H20 0.981 . S
C22 H21 0.981 . S
C23 C10 1.481 . S
C23 H24 0.980 . S
C23 H25 0.981 . S
C23 H26 0.981 . S
H24 C23 0.980 . S
H25 C23 0.981 . S
H26 C23 0.981 . S
O27 Zn3 2.066 . S
O27 C6 1.256 . S
O28 Zn0 2.053 . S
O28 C6 1.244 . S
C29 O7 1.259 . S
C29 O8 1.254 . S
O30 Zn0 2.066 . S
O30 C2 1.256 . S
O31 C2 1.244 . S
O31 Zn3 2.053 . S
Zn32 O33 2.055 . S
Zn32 O40 2.046 . S
Zn32 N48 2.036 . S
Zn32 O60 2.053 . S
Zn32 O62 2.066 . S
O33 Zn32 2.055 . S
O33 C36 1.259 . S
C34 O62 1.256 . S
C34 O63 1.244 . S
Zn35 O37 2.046 . S
Zn35 O39 2.055 . S
Zn35 N41 2.036 . S
Zn35 O59 2.066 . S
Zn35 O63 2.053 . S
C36 O33 1.259 . S
C36 O37 1.254 . S
O37 Zn35 2.046 . S
O37 C36 1.254 . S
C38 O59 1.256 . S
C38 O60 1.244 . S
O39 Zn35 2.055 . S
O39 C61 1.259 . S
O40 Zn32 2.046 . S
O40 C61 1.254 . S
N41 Zn35 2.036 . S
N41 C42 1.298 . S
N41 N44 1.398 . S
C42 N41 1.298 . S
C42 N45 1.367 . S
C42 C55 1.481 . S
C43 N44 1.299 . S
C43 N45 1.379 . S
N44 N41 1.398 . S
N44 C43 1.299 . S
N45 C42 1.367 . S
N45 C43 1.379 . S
C46 N48 1.298 . S
C46 N50 1.367 . S
C46 C54 1.481 . S
C47 N49 1.299 . S
C47 N50 1.379 . S
N48 Zn32 2.036 . S
N48 C46 1.298 . S
N48 N49 1.398 . S
N49 C47 1.299 . S
N49 N48 1.398 . S
N50 C46 1.367 . S
N50 C47 1.379 . S
H51 C54 0.980 . S
H52 C54 0.981 . S
H53 C54 0.981 . S
C54 C46 1.481 . S
C54 H51 0.980 . S
C54 H52 0.981 . S
C54 H53 0.981 . S
C55 C42 1.481 . S
C55 H56 0.980 . S
C55 H57 0.981 . S
C55 H58 0.981 . S
H56 C55 0.980 . S
H57 C55 0.981 . S
H58 C55 0.981 . S
O59 Zn35 2.066 . S
O59 C38 1.256 . S
O60 Zn32 2.053 . S
O60 C38 1.244 . S
C61 O39 1.259 . S
C61 O40 1.254 . S
O62 Zn32 2.066 . S
O62 C34 1.256 . S
O63 C34 1.244 . S
O63 Zn35 2.053 . S
Zn64 O65 2.055 . S
Zn64 O72 2.046 . S
Zn64 N80 2.036 . S
Zn64 O92 2.053 . S
Zn64 O94 2.066 . S
O65 Zn64 2.055 . S
O65 C68 1.259 . S
C66 O94 1.256 . S
C66 O95 1.244 . S
Zn67 O69 2.046 . S
Zn67 O71 2.055 . S
Zn67 N73 2.036 . S
Zn67 O91 2.066 . S
Zn67 O95 2.053 . S
C68 O65 1.259 . S
C68 O69 1.254 . S
O69 Zn67 2.046 . S
O69 C68 1.254 . S
C70 O91 1.256 . S
C70 O92 1.244 . S
O71 Zn67 2.055 . S
O71 C93 1.259 . S
O72 Zn64 2.046 . S
O72 C93 1.254 . S
N73 Zn67 2.036 . S
N73 C74 1.298 . S
N73 N76 1.398 . S
C74 N73 1.298 . S
C74 N77 1.367 . S
C74 C87 1.481 . S
C75 N76 1.299 . S
C75 N77 1.379 . S
N76 N73 1.398 . S
N76 C75 1.299 . S
N77 C74 1.367 . S
N77 C75 1.379 . S
C78 N80 1.298 . S
C78 N82 1.367 . S
C78 C86 1.481 . S
C79 N81 1.299 . S
C79 N82 1.379 . S
N80 Zn64 2.036 . S
N80 C78 1.298 . S
N80 N81 1.398 . S
N81 C79 1.299 . S
N81 N80 1.398 . S
N82 C78 1.367 . S
N82 C79 1.379 . S
H83 C86 0.980 . S
H84 C86 0.981 . S
H85 C86 0.981 . S
C86 C78 1.481 . S
C86 H83 0.980 . S
C86 H84 0.981 . S
C86 H85 0.981 . S
C87 C74 1.481 . S
C87 H88 0.980 . S
C87 H89 0.981 . S
C87 H90 0.981 . S
H88 C87 0.980 . S
H89 C87 0.981 . S
H90 C87 0.981 . S
O91 Zn67 2.066 . S
O91 C70 1.256 . S
O92 Zn64 2.053 . S
O92 C70 1.244 . S
C93 O71 1.259 . S
C93 O72 1.254 . S
O94 Zn64 2.066 . S
O94 C66 1.256 . S
O95 C66 1.244 . S
O95 Zn67 2.053 . S
Zn96 O97 2.055 . S
Zn96 O104 2.046 . S
Zn96 N112 2.036 . S
Zn96 O124 2.053 . S
Zn96 O126 2.066 . S
O97 Zn96 2.055 . S
O97 C100 1.259 . S
C98 O126 1.256 . S
C98 O127 1.244 . S
Zn99 O101 2.046 . S
Zn99 O103 2.055 . S
Zn99 N105 2.036 . S
Zn99 O123 2.066 . S
Zn99 O127 2.053 . S
C100 O97 1.259 . S
C100 O101 1.254 . S
O101 Zn99 2.046 . S
O101 C100 1.254 . S
C102 O123 1.256 . S
C102 O124 1.244 . S
O103 Zn99 2.055 . S
O103 C125 1.259 . S
O104 Zn96 2.046 . S
O104 C125 1.254 . S
N105 Zn99 2.036 . S
N105 C106 1.298 . S
N105 N108 1.398 . S
C106 N105 1.298 . S
C106 N109 1.367 . S
C106 C119 1.481 . S
C107 N108 1.299 . S
C107 N109 1.379 . S
N108 N105 1.398 . S
N108 C107 1.299 . S
N109 C106 1.367 . S
N109 C107 1.379 . S
C110 N112 1.298 . S
C110 N114 1.367 . S
C110 C118 1.481 . S
C111 N113 1.299 . S
C111 N114 1.379 . S
N112 Zn96 2.036 . S
N112 C110 1.298 . S
N112 N113 1.398 . S
N113 C111 1.299 . S
N113 N112 1.398 . S
N114 C110 1.367 . S
N114 C111 1.379 . S
H115 C118 0.980 . S
H116 C118 0.981 . S
H117 C118 0.981 . S
C118 C110 1.481 . S
C118 H115 0.980 . S
C118 H116 0.981 . S
C118 H117 0.981 . S
C119 C106 1.481 . S
C119 H120 0.980 . S
C119 H121 0.981 . S
C119 H122 0.981 . S
H120 C119 0.980 . S
H121 C119 0.981 . S
H122 C119 0.981 . S
O123 Zn99 2.066 . S
O123 C102 1.256 . S
O124 Zn96 2.053 . S
O124 C102 1.244 . S
C125 O103 1.259 . S
C125 O104 1.254 . S
O126 Zn96 2.066 . S
O126 C98 1.256 . S
O127 C98 1.244 . S
O127 Zn99 2.053 . S
Zn128 O129 2.055 . S
Zn128 O136 2.046 . S
Zn128 N144 2.036 . S
Zn128 O156 2.053 . S
Zn128 O158 2.066 . S
O129 Zn128 2.055 . S
O129 C132 1.259 . S
C130 O158 1.256 . S
C130 O159 1.244 . S
Zn131 O133 2.046 . S
Zn131 O135 2.055 . S
Zn131 N137 2.036 . S
Zn131 O155 2.066 . S
Zn131 O159 2.053 . S
C132 O129 1.259 . S
C132 O133 1.254 . S
O133 Zn131 2.046 . S
O133 C132 1.254 . S
C134 O155 1.256 . S
C134 O156 1.244 . S
O135 Zn131 2.055 . S
O135 C157 1.259 . S
O136 Zn128 2.046 . S
O136 C157 1.254 . S
N137 Zn131 2.036 . S
N137 C138 1.298 . S
N137 N140 1.398 . S
C138 N137 1.298 . S
C138 N141 1.367 . S
C138 C151 1.481 . S
C139 N140 1.299 . S
C139 N141 1.379 . S
N140 N137 1.398 . S
N140 C139 1.299 . S
N141 C138 1.367 . S
N141 C139 1.379 . S
C142 N144 1.298 . S
C142 N146 1.367 . S
C142 C150 1.481 . S
C143 N145 1.299 . S
C143 N146 1.379 . S
N144 Zn128 2.036 . S
N144 C142 1.298 . S
N144 N145 1.398 . S
N145 C143 1.299 . S
N145 N144 1.398 . S
N146 C142 1.367 . S
N146 C143 1.379 . S
H147 C150 0.980 . S
H148 C150 0.981 . S
H149 C150 0.981 . S
C150 C142 1.481 . S
C150 H147 0.980 . S
C150 H148 0.981 . S
C150 H149 0.981 . S
C151 C138 1.481 . S
C151 H152 0.980 . S
C151 H153 0.981 . S
C151 H154 0.981 . S
H152 C151 0.980 . S
H153 C151 0.981 . S
H154 C151 0.981 . S
O155 Zn131 2.066 . S
O155 C134 1.256 . S
O156 Zn128 2.053 . S
O156 C134 1.244 . S
C157 O135 1.259 . S
C157 O136 1.254 . S
O158 Zn128 2.066 . S
O158 C130 1.256 . S
O159 C130 1.244 . S
O159 Zn131 2.053 . S
Zn160 O161 2.055 . S
Zn160 O168 2.046 . S
Zn160 N176 2.036 . S
Zn160 O188 2.053 . S
Zn160 O190 2.066 . S
O161 Zn160 2.055 . S
O161 C164 1.259 . S
C162 O190 1.256 . S
C162 O191 1.244 . S
Zn163 O165 2.046 . S
Zn163 O167 2.055 . S
Zn163 N169 2.036 . S
Zn163 O187 2.066 . S
Zn163 O191 2.053 . S
C164 O161 1.259 . S
C164 O165 1.254 . S
O165 Zn163 2.046 . S
O165 C164 1.254 . S
C166 O187 1.256 . S
C166 O188 1.244 . S
O167 Zn163 2.055 . S
O167 C189 1.259 . S
O168 Zn160 2.046 . S
O168 C189 1.254 . S
N169 Zn163 2.036 . S
N169 C170 1.298 . S
N169 N172 1.398 . S
C170 N169 1.298 . S
C170 N173 1.367 . S
C170 C183 1.481 . S
C171 N172 1.299 . S
C171 N173 1.379 . S
N172 N169 1.398 . S
N172 C171 1.299 . S
N173 C170 1.367 . S
N173 C171 1.379 . S
C174 N176 1.298 . S
C174 N178 1.367 . S
C174 C182 1.481 . S
C175 N177 1.299 . S
C175 N178 1.379 . S
N176 Zn160 2.036 . S
N176 C174 1.298 . S
N176 N177 1.398 . S
N177 C175 1.299 . S
N177 N176 1.398 . S
N178 C174 1.367 . S
N178 C175 1.379 . S
H179 C182 0.980 . S
H180 C182 0.981 . S
H181 C182 0.981 . S
C182 C174 1.481 . S
C182 H179 0.980 . S
C182 H180 0.981 . S
C182 H181 0.981 . S
C183 C170 1.481 . S
C183 H184 0.980 . S
C183 H185 0.981 . S
C183 H186 0.981 . S
H184 C183 0.980 . S
H185 C183 0.981 . S
H186 C183 0.981 . S
O187 Zn163 2.066 . S
O187 C166 1.256 . S
O188 Zn160 2.053 . S
O188 C166 1.244 . S
C189 O167 1.259 . S
C189 O168 1.254 . S
O190 Zn160 2.066 . S
O190 C162 1.256 . S
O191 C162 1.244 . S
O191 Zn163 2.053 . S
Zn192 O193 2.055 . S
Zn192 O200 2.046 . S
Zn192 N208 2.036 . S
Zn192 O220 2.053 . S
Zn192 O222 2.066 . S
O193 Zn192 2.055 . S
O193 C196 1.259 . S
C194 O222 1.256 . S
C194 O223 1.244 . S
Zn195 O197 2.046 . S
Zn195 O199 2.055 . S
Zn195 N201 2.036 . S
Zn195 O219 2.066 . S
Zn195 O223 2.053 . S
C196 O193 1.259 . S
C196 O197 1.254 . S
O197 Zn195 2.046 . S
O197 C196 1.254 . S
C198 O219 1.256 . S
C198 O220 1.244 . S
O199 Zn195 2.055 . S
O199 C221 1.259 . S
O200 Zn192 2.046 . S
O200 C221 1.254 . S
N201 Zn195 2.036 . S
N201 C202 1.298 . S
N201 N204 1.398 . S
C202 N201 1.298 . S
C202 N205 1.367 . S
C202 C215 1.481 . S
C203 N204 1.299 . S
C203 N205 1.379 . S
N204 N201 1.398 . S
N204 C203 1.299 . S
N205 C202 1.367 . S
N205 C203 1.379 . S
C206 N208 1.298 . S
C206 N210 1.367 . S
C206 C214 1.481 . S
C207 N209 1.299 . S
C207 N210 1.379 . S
N208 Zn192 2.036 . S
N208 C206 1.298 . S
N208 N209 1.398 . S
N209 C207 1.299 . S
N209 N208 1.398 . S
N210 C206 1.367 . S
N210 C207 1.379 . S
H211 C214 0.980 . S
H212 C214 0.981 . S
H213 C214 0.981 . S
C214 C206 1.481 . S
C214 H211 0.980 . S
C214 H212 0.981 . S
C214 H213 0.981 . S
C215 C202 1.481 . S
C215 H216 0.980 . S
C215 H217 0.981 . S
C215 H218 0.981 . S
H216 C215 0.980 . S
H217 C215 0.981 . S
H218 C215 0.981 . S
O219 Zn195 2.066 . S
O219 C198 1.256 . S
O220 Zn192 2.053 . S
O220 C198 1.244 . S
C221 O199 1.259 . S
C221 O200 1.254 . S
O222 Zn192 2.066 . S
O222 C194 1.256 . S
O223 C194 1.244 . S
O223 Zn195 2.053 . S
Zn224 O225 2.055 . S
Zn224 O232 2.046 . S
Zn224 N240 2.036 . S
Zn224 O252 2.053 . S
Zn224 O254 2.066 . S
O225 Zn224 2.055 . S
O225 C228 1.259 . S
C226 O254 1.256 . S
C226 O255 1.244 . S
Zn227 O229 2.046 . S
Zn227 O231 2.055 . S
Zn227 N233 2.036 . S
Zn227 O251 2.066 . S
Zn227 O255 2.053 . S
C228 O225 1.259 . S
C228 O229 1.254 . S
O229 Zn227 2.046 . S
O229 C228 1.254 . S
C230 O251 1.256 . S
C230 O252 1.244 . S
O231 Zn227 2.055 . S
O231 C253 1.259 . S
O232 Zn224 2.046 . S
O232 C253 1.254 . S
N233 Zn227 2.036 . S
N233 C234 1.298 . S
N233 N236 1.398 . S
C234 N233 1.298 . S
C234 N237 1.367 . S
C234 C247 1.481 . S
C235 N236 1.299 . S
C235 N237 1.379 . S
N236 N233 1.398 . S
N236 C235 1.299 . S
N237 C234 1.367 . S
N237 C235 1.379 . S
C238 N240 1.298 . S
C238 N242 1.367 . S
C238 C246 1.481 . S
C239 N241 1.299 . S
C239 N242 1.379 . S
N240 Zn224 2.036 . S
N240 C238 1.298 . S
N240 N241 1.398 . S
N241 C239 1.299 . S
N241 N240 1.398 . S
N242 C238 1.367 . S
N242 C239 1.379 . S
H243 C246 0.980 . S
H244 C246 0.981 . S
H245 C246 0.981 . S
C246 C238 1.481 . S
C246 H243 0.980 . S
C246 H244 0.981 . S
C246 H245 0.981 . S
C247 C234 1.481 . S
C247 H248 0.980 . S
C247 H249 0.981 . S
C247 H250 0.981 . S
H248 C247 0.980 . S
H249 C247 0.981 . S
H250 C247 0.981 . S
O251 Zn227 2.066 . S
O251 C230 1.256 . S
O252 Zn224 2.053 . S
O252 C230 1.244 . S
C253 O231 1.259 . S
C253 O232 1.254 . S
O254 Zn224 2.066 . S
O254 C226 1.256 . S
O255 C226 1.244 . S
O255 Zn227 2.053 . S
Zn256 O257 2.055 . S
Zn256 O264 2.046 . S
Zn256 N272 2.036 . S
Zn256 O284 2.053 . S
Zn256 O286 2.066 . S
O257 Zn256 2.055 . S
O257 C260 1.259 . S
C258 O286 1.256 . S
C258 O287 1.244 . S
Zn259 O261 2.046 . S
Zn259 O263 2.055 . S
Zn259 N265 2.036 . S
Zn259 O283 2.066 . S
Zn259 O287 2.053 . S
C260 O257 1.259 . S
C260 O261 1.254 . S
O261 Zn259 2.046 . S
O261 C260 1.254 . S
C262 O283 1.256 . S
C262 O284 1.244 . S
O263 Zn259 2.055 . S
O263 C285 1.259 . S
O264 Zn256 2.046 . S
O264 C285 1.254 . S
N265 Zn259 2.036 . S
N265 C266 1.298 . S
N265 N268 1.398 . S
C266 N265 1.298 . S
C266 N269 1.367 . S
C266 C279 1.481 . S
C267 N268 1.299 . S
C267 N269 1.379 . S
N268 N265 1.398 . S
N268 C267 1.299 . S
N269 C266 1.367 . S
N269 C267 1.379 . S
C270 N272 1.298 . S
C270 N274 1.367 . S
C270 C278 1.481 . S
C271 N273 1.299 . S
C271 N274 1.379 . S
N272 Zn256 2.036 . S
N272 C270 1.298 . S
N272 N273 1.398 . S
N273 C271 1.299 . S
N273 N272 1.398 . S
N274 C270 1.367 . S
N274 C271 1.379 . S
H275 C278 0.980 . S
H276 C278 0.981 . S
H277 C278 0.981 . S
C278 C270 1.481 . S
C278 H275 0.980 . S
C278 H276 0.981 . S
C278 H277 0.981 . S
C279 C266 1.481 . S
C279 H280 0.980 . S
C279 H281 0.981 . S
C279 H282 0.981 . S
H280 C279 0.980 . S
H281 C279 0.981 . S
H282 C279 0.981 . S
O283 Zn259 2.066 . S
O283 C262 1.256 . S
O284 Zn256 2.053 . S
O284 C262 1.244 . S
C285 O263 1.259 . S
C285 O264 1.254 . S
O286 Zn256 2.066 . S
O286 C258 1.256 . S
O287 C258 1.244 . S
O287 Zn259 2.053 . S
Zn288 O289 2.055 . S
Zn288 O296 2.046 . S
Zn288 N304 2.036 . S
Zn288 O316 2.053 . S
Zn288 O318 2.066 . S
O289 Zn288 2.055 . S
O289 C292 1.259 . S
C290 O318 1.256 . S
C290 O319 1.244 . S
Zn291 O293 2.046 . S
Zn291 O295 2.055 . S
Zn291 N297 2.036 . S
Zn291 O315 2.066 . S
Zn291 O319 2.053 . S
C292 O289 1.259 . S
C292 O293 1.254 . S
O293 Zn291 2.046 . S
O293 C292 1.254 . S
C294 O315 1.256 . S
C294 O316 1.244 . S
O295 Zn291 2.055 . S
O295 C317 1.259 . S
O296 Zn288 2.046 . S
O296 C317 1.254 . S
N297 Zn291 2.036 . S
N297 C298 1.298 . S
N297 N300 1.398 . S
C298 N297 1.298 . S
C298 N301 1.367 . S
C298 C311 1.481 . S
C299 N300 1.299 . S
C299 N301 1.379 . S
N300 N297 1.398 . S
N300 C299 1.299 . S
N301 C298 1.367 . S
N301 C299 1.379 . S
C302 N304 1.298 . S
C302 N306 1.367 . S
C302 C310 1.481 . S
C303 N305 1.299 . S
C303 N306 1.379 1_565 S
N304 Zn288 2.036 . S
N304 C302 1.298 . S
N304 N305 1.398 1_545 S
N305 C303 1.299 . S
N305 N304 1.398 1_565 S
N306 C302 1.367 . S
N306 C303 1.379 1_545 S
H307 C310 0.980 . S
H308 C310 0.981 . S
H309 C310 0.981 . S
C310 C302 1.481 . S
C310 H307 0.980 . S
C310 H308 0.981 . S
C310 H309 0.981 . S
C311 C298 1.481 . S
C311 H312 0.980 . S
C311 H313 0.981 . S
C311 H314 0.981 . S
H312 C311 0.980 . S
H313 C311 0.981 . S
H314 C311 0.981 . S
O315 Zn291 2.066 . S
O315 C294 1.256 . S
O316 Zn288 2.053 . S
O316 C294 1.244 . S
C317 O295 1.259 . S
C317 O296 1.254 . S
O318 Zn288 2.066 . S
O318 C290 1.256 . S
O319 C290 1.244 . S
O319 Zn291 2.053 . S
Zn320 O321 2.055 . S
Zn320 O328 2.046 . S
Zn320 N336 2.036 . S
Zn320 O348 2.053 . S
Zn320 O350 2.066 . S
O321 Zn320 2.055 . S
O321 C324 1.259 . S
C322 O350 1.256 . S
C322 O351 1.244 . S
Zn323 O325 2.046 . S
Zn323 O327 2.055 . S
Zn323 N329 2.036 . S
Zn323 O347 2.066 . S
Zn323 O351 2.053 . S
C324 O321 1.259 . S
C324 O325 1.254 . S
O325 Zn323 2.046 . S
O325 C324 1.254 . S
C326 O347 1.256 . S
C326 O348 1.244 . S
O327 Zn323 2.055 . S
O327 C349 1.259 . S
O328 Zn320 2.046 . S
O328 C349 1.254 . S
N329 Zn323 2.036 . S
N329 C330 1.298 . S
N329 N332 1.398 . S
C330 N329 1.298 . S
C330 N333 1.367 . S
C330 C343 1.481 . S
C331 N332 1.299 . S
C331 N333 1.379 . S
N332 N329 1.398 . S
N332 C331 1.299 . S
N333 C330 1.367 . S
N333 C331 1.379 . S
C334 N336 1.298 . S
C334 N338 1.367 . S
C334 C342 1.481 . S
C335 N337 1.299 . S
C335 N338 1.379 . S
N336 Zn320 2.036 . S
N336 C334 1.298 . S
N336 N337 1.398 . S
N337 C335 1.299 . S
N337 N336 1.398 . S
N338 C334 1.367 . S
N338 C335 1.379 . S
H339 C342 0.980 . S
H340 C342 0.981 . S
H341 C342 0.981 . S
C342 C334 1.481 . S
C342 H339 0.980 . S
C342 H340 0.981 . S
C342 H341 0.981 . S
C343 C330 1.481 . S
C343 H344 0.980 . S
C343 H345 0.981 . S
C343 H346 0.981 . S
H344 C343 0.980 . S
H345 C343 0.981 . S
H346 C343 0.981 . S
O347 Zn323 2.066 . S
O347 C326 1.256 . S
O348 Zn320 2.053 . S
O348 C326 1.244 . S
C349 O327 1.259 . S
C349 O328 1.254 . S
O350 Zn320 2.066 . S
O350 C322 1.256 . S
O351 C322 1.244 . S
O351 Zn323 2.053 . S
Zn352 O353 2.055 . S
Zn352 O360 2.046 . S
Zn352 N368 2.036 . S
Zn352 O380 2.053 . S
Zn352 O382 2.066 . S
O353 Zn352 2.055 . S
O353 C356 1.259 . S
C354 O382 1.256 . S
C354 O383 1.244 . S
Zn355 O357 2.046 . S
Zn355 O359 2.055 . S
Zn355 N361 2.036 . S
Zn355 O379 2.066 . S
Zn355 O383 2.053 . S
C356 O353 1.259 . S
C356 O357 1.254 . S
O357 Zn355 2.046 . S
O357 C356 1.254 . S
C358 O379 1.256 . S
C358 O380 1.244 . S
O359 Zn355 2.055 . S
O359 C381 1.259 . S
O360 Zn352 2.046 . S
O360 C381 1.254 . S
N361 Zn355 2.036 . S
N361 C362 1.298 . S
N361 N364 1.398 1_565 S
C362 N361 1.298 . S
C362 N365 1.367 . S
C362 C375 1.481 . S
C363 N364 1.299 . S
C363 N365 1.379 1_545 S
N364 N361 1.398 1_545 S
N364 C363 1.299 . S
N365 C362 1.367 . S
N365 C363 1.379 1_565 S
C366 N368 1.298 . S
C366 N370 1.367 . S
C366 C374 1.481 . S
C367 N369 1.299 . S
C367 N370 1.379 . S
N368 Zn352 2.036 . S
N368 C366 1.298 . S
N368 N369 1.398 . S
N369 C367 1.299 . S
N369 N368 1.398 . S
N370 C366 1.367 . S
N370 C367 1.379 . S
H371 C374 0.980 . S
H372 C374 0.981 . S
H373 C374 0.981 . S
C374 C366 1.481 . S
C374 H371 0.980 . S
C374 H372 0.981 . S
C374 H373 0.981 . S
C375 C362 1.481 . S
C375 H376 0.980 . S
C375 H377 0.981 . S
C375 H378 0.981 . S
H376 C375 0.980 . S
H377 C375 0.981 . S
H378 C375 0.981 . S
O379 Zn355 2.066 . S
O379 C358 1.256 . S
O380 Zn352 2.053 . S
O380 C358 1.244 . S
C381 O359 1.259 . S
C381 O360 1.254 . S
O382 Zn352 2.066 . S
O382 C354 1.256 . S
O383 C354 1.244 . S
O383 Zn355 2.053 . S
Zn384 O385 2.055 . S
Zn384 O392 2.046 . S
Zn384 N400 2.036 . S
Zn384 O412 2.053 . S
Zn384 O414 2.066 . S
O385 Zn384 2.055 . S
O385 C388 1.259 . S
C386 O414 1.256 . S
C386 O415 1.244 . S
Zn387 O389 2.046 . S
Zn387 O391 2.055 . S
Zn387 N393 2.036 . S
Zn387 O411 2.066 . S
Zn387 O415 2.053 . S
C388 O385 1.259 . S
C388 O389 1.254 . S
O389 Zn387 2.046 . S
O389 C388 1.254 . S
C390 O411 1.256 . S
C390 O412 1.244 . S
O391 Zn387 2.055 . S
O391 C413 1.259 . S
O392 Zn384 2.046 . S
O392 C413 1.254 . S
N393 Zn387 2.036 . S
N393 C394 1.298 . S
N393 N396 1.398 . S
C394 N393 1.298 . S
C394 N397 1.367 . S
C394 C407 1.481 . S
C395 N396 1.299 . S
C395 N397 1.379 . S
N396 N393 1.398 . S
N396 C395 1.299 . S
N397 C394 1.367 . S
N397 C395 1.379 . S
C398 N400 1.298 . S
C398 N402 1.367 . S
C398 C406 1.481 . S
C399 N401 1.299 . S
C399 N402 1.379 . S
N400 Zn384 2.036 . S
N400 C398 1.298 . S
N400 N401 1.398 . S
N401 C399 1.299 . S
N401 N400 1.398 . S
N402 C398 1.367 . S
N402 C399 1.379 . S
H403 C406 0.980 . S
H404 C406 0.981 . S
H405 C406 0.981 . S
C406 C398 1.481 . S
C406 H403 0.980 . S
C406 H404 0.981 . S
C406 H405 0.981 . S
C407 C394 1.481 . S
C407 H408 0.980 . S
C407 H409 0.981 . S
C407 H410 0.981 . S
H408 C407 0.980 . S
H409 C407 0.981 . S
H410 C407 0.981 . S
O411 Zn387 2.066 . S
O411 C390 1.256 . S
O412 Zn384 2.053 . S
O412 C390 1.244 . S
C413 O391 1.259 . S
C413 O392 1.254 . S
O414 Zn384 2.066 . S
O414 C386 1.256 . S
O415 C386 1.244 . S
O415 Zn387 2.053 . S
Zn416 O417 2.055 . S
Zn416 O424 2.046 . S
Zn416 N432 2.036 . S
Zn416 O444 2.053 . S
Zn416 O446 2.066 . S
O417 Zn416 2.055 . S
O417 C420 1.259 . S
C418 O446 1.256 . S
C418 O447 1.244 . S
Zn419 O421 2.046 . S
Zn419 O423 2.055 . S
Zn419 N425 2.036 . S
Zn419 O443 2.066 . S
Zn419 O447 2.053 . S
C420 O417 1.259 . S
C420 O421 1.254 . S
O421 Zn419 2.046 . S
O421 C420 1.254 . S
C422 O443 1.256 . S
C422 O444 1.244 . S
O423 Zn419 2.055 . S
O423 C445 1.259 . S
O424 Zn416 2.046 . S
O424 C445 1.254 . S
N425 Zn419 2.036 . S
N425 C426 1.298 . S
N425 N428 1.398 . S
C426 N425 1.298 . S
C426 N429 1.367 . S
C426 C439 1.481 . S
C427 N428 1.299 . S
C427 N429 1.379 . S
N428 N425 1.398 . S
N428 C427 1.299 . S
N429 C426 1.367 . S
N429 C427 1.379 . S
C430 N432 1.298 . S
C430 N434 1.367 . S
C430 C438 1.481 . S
C431 N433 1.299 . S
C431 N434 1.379 1_545 S
N432 Zn416 2.036 . S
N432 C430 1.298 . S
N432 N433 1.398 1_565 S
N433 C431 1.299 . S
N433 N432 1.398 1_545 S
N434 C430 1.367 . S
N434 C431 1.379 1_565 S
H435 C438 0.980 . S
H436 C438 0.981 . S
H437 C438 0.981 . S
C438 C430 1.481 . S
C438 H435 0.980 . S
C438 H436 0.981 . S
C438 H437 0.981 . S
C439 C426 1.481 . S
C439 H440 0.980 . S
C439 H441 0.981 . S
C439 H442 0.981 . S
H440 C439 0.980 . S
H441 C439 0.981 . S
H442 C439 0.981 . S
O443 Zn419 2.066 . S
O443 C422 1.256 . S
O444 Zn416 2.053 . S
O444 C422 1.244 . S
C445 O423 1.259 . S
C445 O424 1.254 . S
O446 Zn416 2.066 . S
O446 C418 1.256 . S
O447 C418 1.244 . S
O447 Zn419 2.053 . S
Zn448 O449 2.055 . S
Zn448 O456 2.046 . S
Zn448 N464 2.036 . S
Zn448 O476 2.053 . S
Zn448 O478 2.066 . S
O449 Zn448 2.055 . S
O449 C452 1.259 . S
C450 O478 1.256 . S
C450 O479 1.244 . S
Zn451 O453 2.046 . S
Zn451 O455 2.055 . S
Zn451 N457 2.036 . S
Zn451 O475 2.066 . S
Zn451 O479 2.053 . S
C452 O449 1.259 . S
C452 O453 1.254 . S
O453 Zn451 2.046 . S
O453 C452 1.254 . S
C454 O475 1.256 . S
C454 O476 1.244 . S
O455 Zn451 2.055 . S
O455 C477 1.259 . S
O456 Zn448 2.046 . S
O456 C477 1.254 . S
N457 Zn451 2.036 . S
N457 C458 1.298 . S
N457 N460 1.398 . S
C458 N457 1.298 . S
C458 N461 1.367 . S
C458 C471 1.481 . S
C459 N460 1.299 . S
C459 N461 1.379 . S
N460 N457 1.398 . S
N460 C459 1.299 . S
N461 C458 1.367 . S
N461 C459 1.379 . S
C462 N464 1.298 . S
C462 N466 1.367 . S
C462 C470 1.481 . S
C463 N465 1.299 . S
C463 N466 1.379 . S
N464 Zn448 2.036 . S
N464 C462 1.298 . S
N464 N465 1.398 . S
N465 C463 1.299 . S
N465 N464 1.398 . S
N466 C462 1.367 . S
N466 C463 1.379 . S
H467 C470 0.980 . S
H468 C470 0.981 . S
H469 C470 0.981 . S
C470 C462 1.481 . S
C470 H467 0.980 . S
C470 H468 0.981 . S
C470 H469 0.981 . S
C471 C458 1.481 . S
C471 H472 0.980 . S
C471 H473 0.981 . S
C471 H474 0.981 . S
H472 C471 0.980 . S
H473 C471 0.981 . S
H474 C471 0.981 . S
O475 Zn451 2.066 . S
O475 C454 1.256 . S
O476 Zn448 2.053 . S
O476 C454 1.244 . S
C477 O455 1.259 . S
C477 O456 1.254 . S
O478 Zn448 2.066 . S
O478 C450 1.256 . S
O479 C450 1.244 . S
O479 Zn451 2.053 . S
Zn480 O481 2.055 . S
Zn480 O488 2.046 . S
Zn480 N496 2.036 . S
Zn480 O508 2.053 . S
Zn480 O510 2.066 . S
O481 Zn480 2.055 . S
O481 C484 1.259 . S
C482 O510 1.256 . S
C482 O511 1.244 . S
Zn483 O485 2.046 . S
Zn483 O487 2.055 . S
Zn483 N489 2.036 . S
Zn483 O507 2.066 . S
Zn483 O511 2.053 . S
C484 O481 1.259 . S
C484 O485 1.254 . S
O485 Zn483 2.046 . S
O485 C484 1.254 . S
C486 O507 1.256 . S
C486 O508 1.244 . S
O487 Zn483 2.055 . S
O487 C509 1.259 . S
O488 Zn480 2.046 . S
O488 C509 1.254 . S
N489 Zn483 2.036 . S
N489 C490 1.298 . S
N489 N492 1.398 1_545 S
C490 N489 1.298 . S
C490 N493 1.367 . S
C490 C503 1.481 . S
C491 N492 1.299 . S
C491 N493 1.379 1_565 S
N492 N489 1.398 1_565 S
N492 C491 1.299 . S
N493 C490 1.367 . S
N493 C491 1.379 1_545 S
C494 N496 1.298 . S
C494 N498 1.367 . S
C494 C502 1.481 . S
C495 N497 1.299 . S
C495 N498 1.379 . S
N496 Zn480 2.036 . S
N496 C494 1.298 . S
N496 N497 1.398 . S
N497 C495 1.299 . S
N497 N496 1.398 . S
N498 C494 1.367 . S
N498 C495 1.379 . S
H499 C502 0.980 . S
H500 C502 0.981 . S
H501 C502 0.981 . S
C502 C494 1.481 . S
C502 H499 0.980 . S
C502 H500 0.981 . S
C502 H501 0.981 . S
C503 C490 1.481 . S
C503 H504 0.980 . S
C503 H505 0.981 . S
C503 H506 0.981 . S
H504 C503 0.980 . S
H505 C503 0.981 . S
H506 C503 0.981 . S
O507 Zn483 2.066 . S
O507 C486 1.256 . S
O508 Zn480 2.053 . S
O508 C486 1.244 . S
C509 O487 1.259 . S
C509 O488 1.254 . S
O510 Zn480 2.066 . S
O510 C482 1.256 . S
O511 C482 1.244 . S
O511 Zn483 2.053 . S
H512 C520 0.950 . S
H513 C525 0.950 . S
H514 C522 0.950 . S
H515 C524 0.950 . S
H516 C526 0.950 . S
H517 C528 0.950 . S
H518 C530 0.950 . S
H519 C531 0.950 . S
C520 H512 0.950 . S
C520 C521 1.386 . S
C520 C522 1.391 . S
C521 C520 1.386 . S
C521 C525 1.393 . S
C522 H514 0.950 . S
C522 C520 1.391 . S
C522 C523 1.400 . S
C523 C522 1.400 . S
C523 C524 1.398 . S
C523 C529 1.491 . S
C524 H515 0.950 . S
C524 C523 1.398 . S
C524 C525 1.391 . S
C525 H513 0.950 . S
C525 C521 1.393 . S
C525 C524 1.391 . S
C526 H516 0.950 . S
C526 C527 1.386 . S
C526 C528 1.391 . S
C527 C526 1.386 . S
C527 C531 1.393 . S
C528 H517 0.950 . S
C528 C526 1.391 . S
C528 C529 1.400 . S
C529 C523 1.491 . S
C529 C528 1.400 . S
C529 C530 1.398 . S
C530 H518 0.950 . S
C530 C529 1.398 . S
C530 C531 1.391 . S
C531 H519 0.950 . S
C531 C527 1.393 . S
C531 C530 1.391 . S
H532 C540 0.950 . S
H533 C545 0.950 . S
H534 C542 0.950 . S
H535 C544 0.950 . S
H536 C546 0.950 . S
H537 C548 0.950 . S
H538 C550 0.950 . S
H539 C551 0.950 . S
C540 H532 0.950 . S
C540 C541 1.386 . S
C540 C542 1.391 . S
C541 C540 1.386 . S
C541 C545 1.393 . S
C542 H534 0.950 . S
C542 C540 1.391 . S
C542 C543 1.400 . S
C543 C542 1.400 . S
C543 C544 1.398 . S
C543 C549 1.491 . S
C544 H535 0.950 . S
C544 C543 1.398 . S
C544 C545 1.391 . S
C545 H533 0.950 . S
C545 C541 1.393 . S
C545 C544 1.391 . S
C546 H536 0.950 . S
C546 C547 1.386 . S
C546 C548 1.391 . S
C547 C546 1.386 . S
C547 C551 1.393 . S
C548 H537 0.950 . S
C548 C546 1.391 . S
C548 C549 1.400 . S
C549 C543 1.491 . S
C549 C548 1.400 . S
C549 C550 1.398 . S
C550 H538 0.950 . S
C550 C549 1.398 . S
C550 C551 1.391 . S
C551 H539 0.950 . S
C551 C547 1.393 . S
C551 C550 1.391 . S
H552 C560 0.950 . S
H553 C565 0.950 . S
H554 C562 0.950 . S
H555 C564 0.950 . S
H556 C566 0.950 . S
H557 C568 0.950 . S
H558 C570 0.950 . S
H559 C571 0.950 . S
C560 H552 0.950 . S
C560 C561 1.386 . S
C560 C562 1.391 . S
C561 C560 1.386 . S
C561 C565 1.393 . S
C562 H554 0.950 . S
C562 C560 1.391 . S
C562 C563 1.400 . S
C563 C562 1.400 . S
C563 C564 1.398 . S
C563 C569 1.491 1_455 S
C564 H555 0.950 . S
C564 C563 1.398 . S
C564 C565 1.391 . S
C565 H553 0.950 . S
C565 C561 1.393 . S
C565 C564 1.391 . S
C566 H556 0.950 . S
C566 C567 1.386 . S
C566 C568 1.391 . S
C567 C566 1.386 . S
C567 C571 1.393 . S
C568 H557 0.950 . S
C568 C566 1.391 . S
C568 C569 1.400 . S
C569 C563 1.491 1_655 S
C569 C568 1.400 . S
C569 C570 1.398 . S
C570 H558 0.950 . S
C570 C569 1.398 . S
C570 C571 1.391 . S
C571 H559 0.950 . S
C571 C567 1.393 . S
C571 C570 1.391 . S
H572 C580 0.950 . S
H573 C585 0.950 . S
H574 C582 0.950 . S
H575 C584 0.950 . S
H576 C586 0.950 . S
H577 C588 0.950 . S
H578 C590 0.950 . S
H579 C591 0.950 . S
C580 H572 0.950 . S
C580 C581 1.386 . S
C580 C582 1.391 1_455 S
C581 C580 1.386 . S
C581 C585 1.393 . S
C582 H574 0.950 . S
C582 C580 1.391 1_655 S
C582 C583 1.400 1_655 S
C583 C582 1.400 1_455 S
C583 C584 1.398 . S
C583 C589 1.491 1_455 S
C584 H575 0.950 . S
C584 C583 1.398 . S
C584 C585 1.391 . S
C585 H573 0.950 . S
C585 C581 1.393 . S
C585 C584 1.391 . S
C586 H576 0.950 . S
C586 C587 1.386 . S
C586 C588 1.391 1_655 S
C587 C586 1.386 . S
C587 C591 1.393 . S
C588 H577 0.950 . S
C588 C586 1.391 1_455 S
C588 C589 1.400 1_455 S
C589 C583 1.491 1_655 S
C589 C588 1.400 1_655 S
C589 C590 1.398 . S
C590 H578 0.950 . S
C590 C589 1.398 . S
C590 C591 1.391 . S
C591 H579 0.950 . S
C591 C587 1.393 . S
C591 C590 1.391 . S
H592 C600 0.950 . S
H593 C605 0.950 . S
H594 C602 0.950 . S
H595 C604 0.950 . S
H596 C606 0.950 . S
H597 C608 0.950 . S
H598 C610 0.950 . S
H599 C611 0.950 . S
C600 H592 0.950 . S
C600 C601 1.386 . S
C600 C602 1.391 . S
C601 C600 1.386 . S
C601 C605 1.393 . S
C602 H594 0.950 . S
C602 C600 1.391 . S
C602 C603 1.400 . S
C603 C602 1.400 . S
C603 C604 1.398 . S
C603 C609 1.491 . S
C604 H595 0.950 . S
C604 C603 1.398 . S
C604 C605 1.391 . S
C605 H593 0.950 . S
C605 C601 1.393 . S
C605 C604 1.391 . S
C606 H596 0.950 . S
C606 C607 1.386 . S
C606 C608 1.391 . S
C607 C606 1.386 . S
C607 C611 1.393 . S
C608 H597 0.950 . S
C608 C606 1.391 . S
C608 C609 1.400 . S
C609 C603 1.491 . S
C609 C608 1.400 . S
C609 C610 1.398 . S
C610 H598 0.950 . S
C610 C609 1.398 . S
C610 C611 1.391 . S
C611 H599 0.950 . S
C611 C607 1.393 . S
C611 C610 1.391 . S
H612 C620 0.950 . S
H613 C625 0.950 . S
H614 C622 0.950 . S
H615 C624 0.950 . S
H616 C626 0.950 . S
H617 C628 0.950 . S
H618 C630 0.950 . S
H619 C631 0.950 . S
C620 H612 0.950 . S
C620 C621 1.386 . S
C620 C622 1.391 . S
C621 C620 1.386 . S
C621 C625 1.393 . S
C622 H614 0.950 . S
C622 C620 1.391 . S
C622 C623 1.400 . S
C623 C622 1.400 . S
C623 C624 1.398 . S
C623 C629 1.491 . S
C624 H615 0.950 . S
C624 C623 1.398 . S
C624 C625 1.391 . S
C625 H613 0.950 . S
C625 C621 1.393 . S
C625 C624 1.391 . S
C626 H616 0.950 . S
C626 C627 1.386 . S
C626 C628 1.391 . S
C627 C626 1.386 . S
C627 C631 1.393 . S
C628 H617 0.950 . S
C628 C626 1.391 . S
C628 C629 1.400 . S
C629 C623 1.491 . S
C629 C628 1.400 . S
C629 C630 1.398 . S
C630 H618 0.950 . S
C630 C629 1.398 . S
C630 C631 1.391 . S
C631 H619 0.950 . S
C631 C627 1.393 . S
C631 C630 1.391 . S
H632 C640 0.950 . S
H633 C645 0.950 . S
H634 C642 0.950 . S
H635 C644 0.950 . S
H636 C646 0.950 . S
H637 C648 0.950 . S
H638 C650 0.950 . S
H639 C651 0.950 . S
C640 H632 0.950 . S
C640 C641 1.386 . S
C640 C642 1.391 . S
C641 C640 1.386 . S
C641 C645 1.393 . S
C642 H634 0.950 . S
C642 C640 1.391 . S
C642 C643 1.400 . S
C643 C642 1.400 . S
C643 C644 1.398 . S
C643 C649 1.491 1_455 S
C644 H635 0.950 . S
C644 C643 1.398 . S
C644 C645 1.391 . S
C645 H633 0.950 . S
C645 C641 1.393 . S
C645 C644 1.391 . S
C646 H636 0.950 . S
C646 C647 1.386 . S
C646 C648 1.391 . S
C647 C646 1.386 . S
C647 C651 1.393 . S
C648 H637 0.950 . S
C648 C646 1.391 . S
C648 C649 1.400 . S
C649 C643 1.491 1_655 S
C649 C648 1.400 . S
C649 C650 1.398 . S
C650 H638 0.950 . S
C650 C649 1.398 . S
C650 C651 1.391 . S
C651 H639 0.950 . S
C651 C647 1.393 . S
C651 C650 1.391 . S
H652 C660 0.950 . S
H653 C665 0.950 1_655 S
H654 C662 0.950 . S
H655 C664 0.950 . S
H656 C666 0.950 . S
H657 C668 0.950 . S
H658 C670 0.950 . S
H659 C671 0.950 1_455 S
C660 H652 0.950 . S
C660 C661 1.386 . S
C660 C662 1.391 . S
C661 C660 1.386 . S
C661 C665 1.393 . S
C662 H654 0.950 . S
C662 C660 1.391 . S
C662 C663 1.400 . S
C663 C662 1.400 . S
C663 C664 1.398 1_455 S
C663 C669 1.491 1_455 S
C664 H655 0.950 . S
C664 C663 1.398 1_655 S
C664 C665 1.391 1_655 S
C665 H653 0.950 1_455 S
C665 C661 1.393 . S
C665 C664 1.391 1_455 S
C666 H656 0.950 . S
C666 C667 1.386 . S
C666 C668 1.391 . S
C667 C666 1.386 . S
C667 C671 1.393 . S
C668 H657 0.950 . S
C668 C666 1.391 . S
C668 C669 1.400 . S
C669 C663 1.491 1_655 S
C669 C668 1.400 . S
C669 C670 1.398 1_655 S
C670 H658 0.950 . S
C670 C669 1.398 1_455 S
C670 C671 1.391 1_455 S
C671 H659 0.950 1_655 S
C671 C667 1.393 . S
C671 C670 1.391 1_655 S
H672 C680 0.950 1_565 S
H673 C685 0.950 . S
H674 C682 0.950 . S
H675 C684 0.950 1_556 S
H676 C686 0.950 1_545 S
H677 C688 0.950 . S
H678 C690 0.950 1_554 S
H679 C691 0.950 . S
C680 H672 0.950 1_545 S
C680 C681 1.386 . S
C680 C682 1.391 1_545 S
C681 C680 1.386 . S
C681 C685 1.393 . S
C682 H674 0.950 . S
C682 C680 1.391 1_565 S
C682 C683 1.400 1_565 S
C683 C682 1.400 1_545 S
C683 C684 1.398 . S
C683 C689 1.491 1_544 S
C684 H675 0.950 1_554 S
C684 C683 1.398 . S
C684 C685 1.391 . S
C685 H673 0.950 . S
C685 C681 1.393 . S
C685 C684 1.391 . S
C686 H676 0.950 1_565 S
C686 C687 1.386 . S
C686 C688 1.391 1_565 S
C687 C686 1.386 . S
C687 C691 1.393 . S
C688 H677 0.950 . S
C688 C686 1.391 1_545 S
C688 C689 1.400 1_545 S
C689 C683 1.491 1_566 S
C689 C688 1.400 1_565 S
C689 C690 1.398 . S
C690 H678 0.950 1_556 S
C690 C689 1.398 . S
C690 C691 1.391 . S
C691 H679 0.950 . S
C691 C687 1.393 . S
C691 C690 1.391 . S
H692 C700 0.950 . S
H693 C705 0.950 . S
H694 C702 0.950 . S
H695 C704 0.950 . S
H696 C706 0.950 . S
H697 C708 0.950 . S
H698 C710 0.950 . S
H699 C711 0.950 . S
C700 H692 0.950 . S
C700 C701 1.386 . S
C700 C702 1.391 . S
C701 C700 1.386 . S
C701 C705 1.393 . S
C702 H694 0.950 . S
C702 C700 1.391 . S
C702 C703 1.400 . S
C703 C702 1.400 . S
C703 C704 1.398 . S
C703 C709 1.491 . S
C704 H695 0.950 . S
C704 C703 1.398 . S
C704 C705 1.391 . S
C705 H693 0.950 . S
C705 C701 1.393 . S
C705 C704 1.391 . S
C706 H696 0.950 . S
C706 C707 1.386 . S
C706 C708 1.391 . S
C707 C706 1.386 . S
C707 C711 1.393 . S
C708 H697 0.950 . S
C708 C706 1.391 . S
C708 C709 1.400 . S
C709 C703 1.491 . S
C709 C708 1.400 . S
C709 C710 1.398 . S
C710 H698 0.950 . S
C710 C709 1.398 . S
C710 C711 1.391 . S
C711 H699 0.950 . S
C711 C707 1.393 . S
C711 C710 1.391 . S
H712 C720 0.950 1_545 S
H713 C725 0.950 . S
H714 C722 0.950 . S
H715 C724 0.950 . S
H716 C726 0.950 1_565 S
H717 C728 0.950 . S
H718 C730 0.950 . S
H719 C731 0.950 . S
C720 H712 0.950 1_565 S
C720 C721 1.386 . S
C720 C722 1.391 1_565 S
C721 C720 1.386 . S
C721 C725 1.393 . S
C722 H714 0.950 . S
C722 C720 1.391 1_545 S
C722 C723 1.400 1_545 S
C723 C722 1.400 1_565 S
C723 C724 1.398 . S
C723 C729 1.491 1_465 S
C724 H715 0.950 . S
C724 C723 1.398 . S
C724 C725 1.391 . S
C725 H713 0.950 . S
C725 C721 1.393 . S
C725 C724 1.391 . S
C726 H716 0.950 1_545 S
C726 C727 1.386 . S
C726 C728 1.391 1_545 S
C727 C726 1.386 . S
C727 C731 1.393 . S
C728 H717 0.950 . S
C728 C726 1.391 1_565 S
C728 C729 1.400 1_565 S
C729 C723 1.491 1_645 S
C729 C728 1.400 1_545 S
C729 C730 1.398 . S
C730 H718 0.950 . S
C730 C729 1.398 . S
C730 C731 1.391 . S
C731 H719 0.950 . S
C731 C727 1.393 . S
C731 C730 1.391 . S
H732 C740 0.950 . S
H733 C745 0.950 . S
H734 C742 0.950 . S
H735 C744 0.950 . S
H736 C746 0.950 . S
H737 C748 0.950 . S
H738 C750 0.950 . S
H739 C751 0.950 . S
C740 H732 0.950 . S
C740 C741 1.386 . S
C740 C742 1.391 . S
C741 C740 1.386 . S
C741 C745 1.393 . S
C742 H734 0.950 . S
C742 C740 1.391 . S
C742 C743 1.400 . S
C743 C742 1.400 . S
C743 C744 1.398 . S
C743 C749 1.491 . S
C744 H735 0.950 . S
C744 C743 1.398 . S
C744 C745 1.391 . S
C745 H733 0.950 . S
C745 C741 1.393 . S
C745 C744 1.391 . S
C746 H736 0.950 . S
C746 C747 1.386 . S
C746 C748 1.391 . S
C747 C746 1.386 . S
C747 C751 1.393 . S
C748 H737 0.950 . S
C748 C746 1.391 . S
C748 C749 1.400 . S
C749 C743 1.491 . S
C749 C748 1.400 . S
C749 C750 1.398 . S
C750 H738 0.950 . S
C750 C749 1.398 . S
C750 C751 1.391 . S
C751 H739 0.950 . S
C751 C747 1.393 . S
C751 C750 1.391 . S
H752 C760 0.950 . S
H753 C765 0.950 . S
H754 C762 0.950 . S
H755 C764 0.950 . S
H756 C766 0.950 . S
H757 C768 0.950 . S
H758 C770 0.950 . S
H759 C771 0.950 . S
C760 H752 0.950 . S
C760 C761 1.386 . S
C760 C762 1.391 . S
C761 C760 1.386 . S
C761 C765 1.393 . S
C762 H754 0.950 . S
C762 C760 1.391 . S
C762 C763 1.400 . S
C763 C762 1.400 . S
C763 C764 1.398 . S
C763 C769 1.491 . S
C764 H755 0.950 . S
C764 C763 1.398 . S
C764 C765 1.391 . S
C765 H753 0.950 . S
C765 C761 1.393 . S
C765 C764 1.391 . S
C766 H756 0.950 . S
C766 C767 1.386 . S
C766 C768 1.391 . S
C767 C766 1.386 . S
C767 C771 1.393 . S
C768 H757 0.950 . S
C768 C766 1.391 . S
C768 C769 1.400 . S
C769 C763 1.491 . S
C769 C768 1.400 . S
C769 C770 1.398 . S
C770 H758 0.950 . S
C770 C769 1.398 . S
C770 C771 1.391 . S
C771 H759 0.950 . S
C771 C767 1.393 . S
C771 C770 1.391 . S
H772 C780 0.950 . S
H773 C785 0.950 . S
H774 C782 0.950 . S
H775 C784 0.950 . S
H776 C786 0.950 . S
H777 C788 0.950 . S
H778 C790 0.950 . S
H779 C791 0.950 . S
C780 H772 0.950 . S
C780 C781 1.386 . S
C780 C782 1.391 . S
C781 C780 1.386 . S
C781 C785 1.393 . S
C782 H774 0.950 . S
C782 C780 1.391 . S
C782 C783 1.400 . S
C783 C782 1.400 . S
C783 C784 1.398 . S
C783 C789 1.491 . S
C784 H775 0.950 . S
C784 C783 1.398 . S
C784 C785 1.391 . S
C785 H773 0.950 . S
C785 C781 1.393 . S
C785 C784 1.391 . S
C786 H776 0.950 . S
C786 C787 1.386 . S
C786 C788 1.391 . S
C787 C786 1.386 . S
C787 C791 1.393 . S
C788 H777 0.950 . S
C788 C786 1.391 . S
C788 C789 1.400 . S
C789 C783 1.491 . S
C789 C788 1.400 . S
C789 C790 1.398 . S
C790 H778 0.950 . S
C790 C789 1.398 . S
C790 C791 1.391 . S
C791 H779 0.950 . S
C791 C787 1.393 . S
C791 C790 1.391 . S
H792 C800 0.950 . S
H793 C805 0.950 . S
H794 C802 0.950 . S
H795 C804 0.950 . S
H796 C806 0.950 . S
H797 C808 0.950 . S
H798 C810 0.950 . S
H799 C811 0.950 . S
C800 H792 0.950 . S
C800 C801 1.386 . S
C800 C802 1.391 . S
C801 C800 1.386 . S
C801 C805 1.393 . S
C802 H794 0.950 . S
C802 C800 1.391 . S
C802 C803 1.400 . S
C803 C802 1.400 . S
C803 C804 1.398 1_455 S
C803 C809 1.491 1_455 S
C804 H795 0.950 . S
C804 C803 1.398 1_655 S
C804 C805 1.391 1_655 S
C805 H793 0.950 . S
C805 C801 1.393 . S
C805 C804 1.391 1_455 S
C806 H796 0.950 . S
C806 C807 1.386 . S
C806 C808 1.391 . S
C807 C806 1.386 . S
C807 C811 1.393 . S
C808 H797 0.950 . S
C808 C806 1.391 . S
C808 C809 1.400 . S
C809 C803 1.491 1_655 S
C809 C808 1.400 . S
C809 C810 1.398 1_655 S
C810 H798 0.950 . S
C810 C809 1.398 1_455 S
C810 C811 1.391 1_455 S
C811 H799 0.950 . S
C811 C807 1.393 . S
C811 C810 1.391 1_655 S
H812 C820 0.950 . S
H813 C825 0.950 . S
H814 C822 0.950 . S
H815 C824 0.950 . S
H816 C826 0.950 . S
H817 C828 0.950 . S
H818 C830 0.950 . S
H819 C831 0.950 . S
C820 H812 0.950 . S
C820 C821 1.386 . S
C820 C822 1.391 . S
C821 C820 1.386 . S
C821 C825 1.393 . S
C822 H814 0.950 . S
C822 C820 1.391 . S
C822 C823 1.400 . S
C823 C822 1.400 . S
C823 C824 1.398 . S
C823 C829 1.491 1_554 S
C824 H815 0.950 . S
C824 C823 1.398 . S
C824 C825 1.391 . S
C825 H813 0.950 . S
C825 C821 1.393 . S
C825 C824 1.391 . S
C826 H816 0.950 . S
C826 C827 1.386 . S
C826 C828 1.391 . S
C827 C826 1.386 . S
C827 C831 1.393 . S
C828 H817 0.950 . S
C828 C826 1.391 . S
C828 C829 1.400 . S
C829 C823 1.491 1_556 S
C829 C828 1.400 . S
C829 C830 1.398 . S
C830 H818 0.950 . S
C830 C829 1.398 . S
C830 C831 1.391 . S
C831 H819 0.950 . S
C831 C827 1.393 . S
C831 C830 1.391 . S
H832 C840 0.950 . S
H833 C845 0.950 . S
H834 C842 0.950 . S
H835 C844 0.950 . S
H836 C846 0.950 . S
H837 C848 0.950 . S
H838 C850 0.950 . S
H839 C851 0.950 . S
C840 H832 0.950 . S
C840 C841 1.386 . S
C840 C842 1.391 . S
C841 C840 1.386 . S
C841 C845 1.393 . S
C842 H834 0.950 . S
C842 C840 1.391 . S
C842 C843 1.400 . S
C843 C842 1.400 . S
C843 C844 1.398 . S
C843 C849 1.491 . S
C844 H835 0.950 . S
C844 C843 1.398 . S
C844 C845 1.391 . S
C845 H833 0.950 . S
C845 C841 1.393 . S
C845 C844 1.391 . S
C846 H836 0.950 . S
C846 C847 1.386 . S
C846 C848 1.391 . S
C847 C846 1.386 . S
C847 C851 1.393 . S
C848 H837 0.950 . S
C848 C846 1.391 . S
C848 C849 1.400 . S
C849 C843 1.491 . S
C849 C848 1.400 . S
C849 C850 1.398 . S
C850 H838 0.950 . S
C850 C849 1.398 . S
C850 C851 1.391 . S
C851 H839 0.950 . S
C851 C847 1.393 . S
C851 C850 1.391 . S
H852 C860 0.950 . S
H853 C865 0.950 . S
H854 C862 0.950 . S
H855 C864 0.950 . S
H856 C866 0.950 . S
H857 C868 0.950 . S
H858 C870 0.950 . S
H859 C871 0.950 . S
C860 H852 0.950 . S
C860 C861 1.386 . S
C860 C862 1.391 . S
C861 C860 1.386 . S
C861 C865 1.393 . S
C862 H854 0.950 . S
C862 C860 1.391 . S
C862 C863 1.400 . S
C863 C862 1.400 . S
C863 C864 1.398 . S
C863 C869 1.491 . S
C864 H855 0.950 . S
C864 C863 1.398 . S
C864 C865 1.391 . S
C865 H853 0.950 . S
C865 C861 1.393 . S
C865 C864 1.391 . S
C866 H856 0.950 . S
C866 C867 1.386 . S
C866 C868 1.391 . S
C867 C866 1.386 . S
C867 C871 1.393 . S
C868 H857 0.950 . S
C868 C866 1.391 . S
C868 C869 1.400 . S
C869 C863 1.491 . S
C869 C868 1.400 . S
C869 C870 1.398 . S
C870 H858 0.950 . S
C870 C869 1.398 . S
C870 C871 1.391 . S
C871 H859 0.950 . S
C871 C867 1.393 . S
C871 C870 1.391 . S
H872 C880 0.950 . S
H873 C885 0.950 . S
H874 C882 0.950 . S
H875 C884 0.950 . S
H876 C886 0.950 . S
H877 C888 0.950 . S
H878 C890 0.950 . S
H879 C891 0.950 . S
C880 H872 0.950 . S
C880 C881 1.386 . S
C880 C882 1.391 . S
C881 C880 1.386 . S
C881 C885 1.393 . S
C882 H874 0.950 . S
C882 C880 1.391 . S
C882 C883 1.400 . S
C883 C882 1.400 . S
C883 C884 1.398 . S
C883 C889 1.491 . S
C884 H875 0.950 . S
C884 C883 1.398 . S
C884 C885 1.391 . S
C885 H873 0.950 . S
C885 C881 1.393 . S
C885 C884 1.391 . S
C886 H876 0.950 . S
C886 C887 1.386 . S
C886 C888 1.391 . S
C887 C886 1.386 . S
C887 C891 1.393 . S
C888 H877 0.950 . S
C888 C886 1.391 . S
C888 C889 1.400 . S
C889 C883 1.491 . S
C889 C888 1.400 . S
C889 C890 1.398 . S
C890 H878 0.950 . S
C890 C889 1.398 . S
C890 C891 1.391 . S
C891 H879 0.950 . S
C891 C887 1.393 . S
C891 C890 1.391 . S
H892 C900 0.950 . S
H893 C905 0.950 1_655 S
H894 C902 0.950 . S
H895 C904 0.950 . S
H896 C906 0.950 . S
H897 C908 0.950 . S
H898 C910 0.950 . S
H899 C911 0.950 . S
C900 H892 0.950 . S
C900 C901 1.386 . S
C900 C902 1.391 . S
C901 C900 1.386 . S
C901 C905 1.393 . S
C902 H894 0.950 . S
C902 C900 1.391 . S
C902 C903 1.400 . S
C903 C902 1.400 . S
C903 C904 1.398 . S
C903 C909 1.491 . S
C904 H895 0.950 . S
C904 C903 1.398 . S
C904 C905 1.391 . S
C905 H893 0.950 1_455 S
C905 C901 1.393 . S
C905 C904 1.391 . S
C906 H896 0.950 . S
C906 C907 1.386 . S
C906 C908 1.391 . S
C907 C906 1.386 . S
C907 C911 1.393 . S
C908 H897 0.950 . S
C908 C906 1.391 . S
C908 C909 1.400 . S
C909 C903 1.491 . S
C909 C908 1.400 . S
C909 C910 1.398 . S
C910 H898 0.950 . S
C910 C909 1.398 . S
C910 C911 1.391 . S
C911 H899 0.950 . S
C911 C907 1.393 . S
C911 C910 1.391 . S
H912 C920 0.950 . S
H913 C925 0.950 . S
H914 C922 0.950 . S
H915 C924 0.950 . S
H916 C926 0.950 . S
H917 C928 0.950 . S
H918 C930 0.950 . S
H919 C931 0.950 . S
C920 H912 0.950 . S
C920 C921 1.386 . S
C920 C922 1.391 . S
C921 C920 1.386 . S
C921 C925 1.393 . S
C922 H914 0.950 . S
C922 C920 1.391 . S
C922 C923 1.400 . S
C923 C922 1.400 . S
C923 C924 1.398 . S
C923 C929 1.491 . S
C924 H915 0.950 . S
C924 C923 1.398 . S
C924 C925 1.391 . S
C925 H913 0.950 . S
C925 C921 1.393 . S
C925 C924 1.391 . S
C926 H916 0.950 . S
C926 C927 1.386 . S
C926 C928 1.391 . S
C927 C926 1.386 . S
C927 C931 1.393 . S
C928 H917 0.950 . S
C928 C926 1.391 . S
C928 C929 1.400 . S
C929 C923 1.491 . S
C929 C928 1.400 . S
C929 C930 1.398 . S
C930 H918 0.950 . S
C930 C929 1.398 . S
C930 C931 1.391 . S
C931 H919 0.950 . S
C931 C927 1.393 . S
C931 C930 1.391 . S
H932 C940 0.950 . S
H933 C945 0.950 . S
H934 C942 0.950 . S
H935 C944 0.950 . S
H936 C946 0.950 . S
H937 C948 0.950 . S
H938 C950 0.950 . S
H939 C951 0.950 . S
C940 H932 0.950 . S
C940 C941 1.386 . S
C940 C942 1.391 . S
C941 C940 1.386 . S
C941 C945 1.393 . S
C942 H934 0.950 . S
C942 C940 1.391 . S
C942 C943 1.400 . S
C943 C942 1.400 . S
C943 C944 1.398 . S
C943 C949 1.491 . S
C944 H935 0.950 . S
C944 C943 1.398 . S
C944 C945 1.391 . S
C945 H933 0.950 . S
C945 C941 1.393 . S
C945 C944 1.391 . S
C946 H936 0.950 . S
C946 C947 1.386 . S
C946 C948 1.391 . S
C947 C946 1.386 . S
C947 C951 1.393 . S
C948 H937 0.950 . S
C948 C946 1.391 . S
C948 C949 1.400 . S
C949 C943 1.491 . S
C949 C948 1.400 . S
C949 C950 1.398 . S
C950 H938 0.950 . S
C950 C949 1.398 . S
C950 C951 1.391 . S
C951 H939 0.950 . S
C951 C947 1.393 . S
C951 C950 1.391 . S
H952 C960 0.950 . S
H953 C965 0.950 . S
H954 C962 0.950 . S
H955 C964 0.950 . S
H956 C966 0.950 . S
H957 C968 0.950 . S
H958 C970 0.950 . S
H959 C971 0.950 . S
C960 H952 0.950 . S
C960 C961 1.386 . S
C960 C962 1.391 . S
C961 C960 1.386 . S
C961 C965 1.393 . S
C962 H954 0.950 . S
C962 C960 1.391 . S
C962 C963 1.400 . S
C963 C962 1.400 . S
C963 C964 1.398 . S
C963 C969 1.491 . S
C964 H955 0.950 . S
C964 C963 1.398 . S
C964 C965 1.391 . S
C965 H953 0.950 . S
C965 C961 1.393 . S
C965 C964 1.391 . S
C966 H956 0.950 . S
C966 C967 1.386 . S
C966 C968 1.391 . S
C967 C966 1.386 . S
C967 C971 1.393 . S
C968 H957 0.950 . S
C968 C966 1.391 . S
C968 C969 1.400 . S
C969 C963 1.491 . S
C969 C968 1.400 . S
C969 C970 1.398 . S
C970 H958 0.950 . S
C970 C969 1.398 . S
C970 C971 1.391 . S
C971 H959 0.950 . S
C971 C967 1.393 . S
C971 C970 1.391 . S
H972 C980 0.950 . S
H973 C985 0.950 . S
H974 C982 0.950 . S
H975 C984 0.950 . S
H976 C986 0.950 1_455 S
H977 C988 0.950 . S
H978 C990 0.950 . S
H979 C991 0.950 . S
C980 H972 0.950 . S
C980 C981 1.386 . S
C980 C982 1.391 . S
C981 C980 1.386 . S
C981 C985 1.393 . S
C982 H974 0.950 . S
C982 C980 1.391 . S
C982 C983 1.400 . S
C983 C982 1.400 . S
C983 C984 1.398 . S
C983 C989 1.491 . S
C984 H975 0.950 . S
C984 C983 1.398 . S
C984 C985 1.391 . S
C985 H973 0.950 . S
C985 C981 1.393 . S
C985 C984 1.391 . S
C986 H976 0.950 1_655 S
C986 C987 1.386 . S
C986 C988 1.391 . S
C987 C986 1.386 . S
C987 C991 1.393 . S
C988 H977 0.950 . S
C988 C986 1.391 . S
C988 C989 1.400 . S
C989 C983 1.491 . S
C989 C988 1.400 . S
C989 C990 1.398 . S
C990 H978 0.950 . S
C990 C989 1.398 . S
C990 C991 1.391 . S
C991 H979 0.950 . S
C991 C987 1.393 . S
C991 C990 1.391 . S
H992 C1000 0.950 . S
H993 C1005 0.950 . S
H994 C1002 0.950 . S
H995 C1004 0.950 . S
H996 C1006 0.950 . S
H997 C1008 0.950 . S
H998 C1010 0.950 . S
H999 C1011 0.950 . S
C1000 H992 0.950 . S
C1000 C1001 1.386 . S
C1000 C1002 1.391 . S
C1001 C1000 1.386 . S
C1001 C1005 1.393 . S
C1002 H994 0.950 . S
C1002 C1000 1.391 . S
C1002 C1003 1.400 . S
C1003 C1002 1.400 . S
C1003 C1004 1.398 . S
C1003 C1009 1.491 . S
C1004 H995 0.950 . S
C1004 C1003 1.398 . S
C1004 C1005 1.391 . S
C1005 H993 0.950 . S
C1005 C1001 1.393 . S
C1005 C1004 1.391 . S
C1006 H996 0.950 . S
C1006 C1007 1.386 . S
C1006 C1008 1.391 . S
C1007 C1006 1.386 . S
C1007 C1011 1.393 . S
C1008 H997 0.950 . S
C1008 C1006 1.391 . S
C1008 C1009 1.400 . S
C1009 C1003 1.491 . S
C1009 C1008 1.400 . S
C1009 C1010 1.398 . S
C1010 H998 0.950 . S
C1010 C1009 1.398 . S
C1010 C1011 1.391 . S
C1011 H999 0.950 . S
C1011 C1007 1.393 . S
C1011 C1010 1.391 . S
H1012 C1020 0.950 . S
H1013 C1025 0.950 . S
H1014 C1022 0.950 1_545 S
H1015 C1024 0.950 . S
H1016 C1026 0.950 . S
H1017 C1028 0.950 . S
H1018 C1030 0.950 . S
H1019 C1031 0.950 . S
C1020 H1012 0.950 . S
C1020 C1021 1.386 . S
C1020 C1022 1.391 . S
C1021 C1020 1.386 . S
C1021 C1025 1.393 . S
C1022 H1014 0.950 1_565 S
C1022 C1020 1.391 . S
C1022 C1023 1.400 . S
C1023 C1022 1.400 . S
C1023 C1024 1.398 . S
C1023 C1029 1.491 . S
C1024 H1015 0.950 . S
C1024 C1023 1.398 . S
C1024 C1025 1.391 . S
C1025 H1013 0.950 . S
C1025 C1021 1.393 . S
C1025 C1024 1.391 . S
C1026 H1016 0.950 . S
C1026 C1027 1.386 1_565 S
C1026 C1028 1.391 . S
C1027 C1026 1.386 1_545 S
C1027 C1031 1.393 . S
C1028 H1017 0.950 . S
C1028 C1026 1.391 . S
C1028 C1029 1.400 . S
C1029 C1023 1.491 . S
C1029 C1028 1.400 . S
C1029 C1030 1.398 1_565 S
C1030 H1018 0.950 . S
C1030 C1029 1.398 1_545 S
C1030 C1031 1.391 . S
C1031 H1019 0.950 . S
C1031 C1027 1.393 . S
C1031 C1030 1.391 . S
H1032 C1040 0.950 . S
H1033 C1045 0.950 . S
H1034 C1042 0.950 . S
H1035 C1044 0.950 . S
H1036 C1046 0.950 . S
H1037 C1048 0.950 . S
H1038 C1050 0.950 . S
H1039 C1051 0.950 . S
C1040 H1032 0.950 . S
C1040 C1041 1.386 . S
C1040 C1042 1.391 . S
C1041 C1040 1.386 . S
C1041 C1045 1.393 . S
C1042 H1034 0.950 . S
C1042 C1040 1.391 . S
C1042 C1043 1.400 . S
C1043 C1042 1.400 . S
C1043 C1044 1.398 . S
C1043 C1049 1.491 . S
C1044 H1035 0.950 . S
C1044 C1043 1.398 . S
C1044 C1045 1.391 . S
C1045 H1033 0.950 . S
C1045 C1041 1.393 . S
C1045 C1044 1.391 . S
C1046 H1036 0.950 . S
C1046 C1047 1.386 . S
C1046 C1048 1.391 . S
C1047 C1046 1.386 . S
C1047 C1051 1.393 . S
C1048 H1037 0.950 . S
C1048 C1046 1.391 . S
C1048 C1049 1.400 . S
C1049 C1043 1.491 . S
C1049 C1048 1.400 . S
C1049 C1050 1.398 . S
C1050 H1038 0.950 . S
C1050 C1049 1.398 . S
C1050 C1051 1.391 . S
C1051 H1039 0.950 . S
C1051 C1047 1.393 . S
C1051 C1050 1.391 . S
H1052 C1060 0.950 . S
H1053 C1065 0.950 . S
H1054 C1062 0.950 . S
H1055 C1064 0.950 . S
H1056 C1066 0.950 . S
H1057 C1068 0.950 . S
H1058 C1070 0.950 . S
H1059 C1071 0.950 . S
C1060 H1052 0.950 . S
C1060 C1061 1.386 . S
C1060 C1062 1.391 . S
C1061 C1060 1.386 . S
C1061 C1065 1.393 . S
C1062 H1054 0.950 . S
C1062 C1060 1.391 . S
C1062 C1063 1.400 . S
C1063 C1062 1.400 . S
C1063 C1064 1.398 . S
C1063 C1069 1.491 . S
C1064 H1055 0.950 . S
C1064 C1063 1.398 . S
C1064 C1065 1.391 . S
C1065 H1053 0.950 . S
C1065 C1061 1.393 . S
C1065 C1064 1.391 . S
C1066 H1056 0.950 . S
C1066 C1067 1.386 1_545 S
C1066 C1068 1.391 . S
C1067 C1066 1.386 1_565 S
C1067 C1071 1.393 . S
C1068 H1057 0.950 . S
C1068 C1066 1.391 . S
C1068 C1069 1.400 . S
C1069 C1063 1.491 . S
C1069 C1068 1.400 . S
C1069 C1070 1.398 . S
C1070 H1058 0.950 . S
C1070 C1069 1.398 . S
C1070 C1071 1.391 1_545 S
C1071 H1059 0.950 . S
C1071 C1067 1.393 . S
C1071 C1070 1.391 1_565 S
H1072 C1080 0.950 . S
H1073 C1085 0.950 . S
H1074 C1082 0.950 . S
H1075 C1084 0.950 . S
H1076 C1086 0.950 . S
H1077 C1088 0.950 . S
H1078 C1090 0.950 . S
H1079 C1091 0.950 . S
C1080 H1072 0.950 . S
C1080 C1081 1.386 . S
C1080 C1082 1.391 . S
C1081 C1080 1.386 . S
C1081 C1085 1.393 . S
C1082 H1074 0.950 . S
C1082 C1080 1.391 . S
C1082 C1083 1.400 . S
C1083 C1082 1.400 . S
C1083 C1084 1.398 . S
C1083 C1089 1.491 . S
C1084 H1075 0.950 . S
C1084 C1083 1.398 . S
C1084 C1085 1.391 . S
C1085 H1073 0.950 . S
C1085 C1081 1.393 . S
C1085 C1084 1.391 . S
C1086 H1076 0.950 . S
C1086 C1087 1.386 . S
C1086 C1088 1.391 . S
C1087 C1086 1.386 . S
C1087 C1091 1.393 . S
C1088 H1077 0.950 . S
C1088 C1086 1.391 . S
C1088 C1089 1.400 . S
C1089 C1083 1.491 . S
C1089 C1088 1.400 . S
C1089 C1090 1.398 . S
C1090 H1078 0.950 . S
C1090 C1089 1.398 . S
C1090 C1091 1.391 . S
C1091 H1079 0.950 . S
C1091 C1087 1.393 . S
C1091 C1090 1.391 . S
H1092 C1100 0.950 . S
H1093 C1105 0.950 . S
H1094 C1102 0.950 . S
H1095 C1104 0.950 . S
H1096 C1106 0.950 . S
H1097 C1108 0.950 . S
H1098 C1110 0.950 1_565 S
H1099 C1111 0.950 . S
C1100 H1092 0.950 . S
C1100 C1101 1.386 . S
C1100 C1102 1.391 . S
C1101 C1100 1.386 . S
C1101 C1105 1.393 1_565 S
C1102 H1094 0.950 . S
C1102 C1100 1.391 . S
C1102 C1103 1.400 1_565 S
C1103 C1102 1.400 1_545 S
C1103 C1104 1.398 . S
C1103 C1109 1.491 . S
C1104 H1095 0.950 . S
C1104 C1103 1.398 . S
C1104 C1105 1.391 . S
C1105 H1093 0.950 . S
C1105 C1101 1.393 1_545 S
C1105 C1104 1.391 . S
C1106 H1096 0.950 . S
C1106 C1107 1.386 . S
C1106 C1108 1.391 . S
C1107 C1106 1.386 . S
C1107 C1111 1.393 . S
C1108 H1097 0.950 . S
C1108 C1106 1.391 . S
C1108 C1109 1.400 . S
C1109 C1103 1.491 . S
C1109 C1108 1.400 . S
C1109 C1110 1.398 . S
C1110 H1098 0.950 1_545 S
C1110 C1109 1.398 . S
C1110 C1111 1.391 . S
C1111 H1099 0.950 . S
C1111 C1107 1.393 . S
C1111 C1110 1.391 . S
H1112 C1120 0.952 1_545 S
H1113 C1125 0.950 . S
H1114 C1122 0.950 . S
H1115 C1124 0.950 . S
H1116 C1126 0.950 . S
H1117 C1128 0.950 . S
H1118 C1130 0.950 . S
H1119 C1131 0.950 . S
C1120 H1112 0.952 1_565 S
C1120 C1121 1.386 . S
C1120 C1122 1.391 . S
C1121 C1120 1.386 . S
C1121 C1125 1.393 . S
C1122 H1114 0.950 . S
C1122 C1120 1.391 . S
C1122 C1123 1.400 . S
C1123 C1122 1.400 . S
C1123 C1124 1.398 . S
C1123 C1129 1.491 . S
C1124 H1115 0.950 . S
C1124 C1123 1.398 . S
C1124 C1125 1.391 . S
C1125 H1113 0.950 . S
C1125 C1121 1.393 . S
C1125 C1124 1.391 . S
C1126 H1116 0.950 . S
C1126 C1127 1.386 . S
C1126 C1128 1.391 . S
C1127 C1126 1.386 . S
C1127 C1131 1.393 . S
C1128 H1117 0.950 . S
C1128 C1126 1.391 . S
C1128 C1129 1.400 . S
C1129 C1123 1.491 . S
C1129 C1128 1.400 . S
C1129 C1130 1.398 . S
C1130 H1118 0.950 . S
C1130 C1129 1.398 . S
C1130 C1131 1.391 . S
C1131 H1119 0.950 . S
C1131 C1127 1.393 . S
C1131 C1130 1.391 . S
H1132 C1140 0.950 . S
H1133 C1145 0.950 . S
H1134 C1142 0.950 . S
H1135 C1144 0.950 1_545 S
H1136 C1146 0.950 . S
H1137 C1148 0.950 . S
H1138 C1150 0.950 . S
H1139 C1151 0.950 . S
C1140 H1132 0.950 . S
C1140 C1141 1.386 1_565 S
C1140 C1142 1.391 . S
C1141 C1140 1.386 1_545 S
C1141 C1145 1.393 . S
C1142 H1134 0.950 . S
C1142 C1140 1.391 . S
C1142 C1143 1.400 . S
C1143 C1142 1.400 . S
C1143 C1144 1.398 . S
C1143 C1149 1.491 . S
C1144 H1135 0.950 1_565 S
C1144 C1143 1.398 . S
C1144 C1145 1.391 1_565 S
C1145 H1133 0.950 . S
C1145 C1141 1.393 . S
C1145 C1144 1.391 1_545 S
C1146 H1136 0.950 . S
C1146 C1147 1.386 . S
C1146 C1148 1.391 . S
C1147 C1146 1.386 . S
C1147 C1151 1.393 . S
C1148 H1137 0.950 . S
C1148 C1146 1.391 . S
C1148 C1149 1.400 . S
C1149 C1143 1.491 . S
C1149 C1148 1.400 . S
C1149 C1150 1.398 . S
C1150 H1138 0.950 . S
C1150 C1149 1.398 . S
C1150 C1151 1.391 . S
C1151 H1139 0.950 . S
C1151 C1147 1.393 . S
C1151 C1150 1.391 . S
H1152 C1160 0.949 . S
H1153 C1165 0.950 . S
H1154 C1162 0.950 . S
H1155 C1164 0.950 . S
H1156 C1166 0.950 . S
H1157 C1168 0.950 . S
H1158 C1170 0.950 . S
H1159 C1171 0.950 . S
C1160 H1152 0.949 . S
C1160 C1161 1.386 . S
C1160 C1162 1.391 . S
C1161 C1160 1.386 . S
C1161 C1165 1.393 . S
C1162 H1154 0.950 . S
C1162 C1160 1.391 . S
C1162 C1163 1.400 . S
C1163 C1162 1.400 . S
C1163 C1164 1.398 . S
C1163 C1169 1.491 . S
C1164 H1155 0.950 . S
C1164 C1163 1.398 . S
C1164 C1165 1.391 . S
C1165 H1153 0.950 . S
C1165 C1161 1.393 . S
C1165 C1164 1.391 . S
C1166 H1156 0.950 . S
C1166 C1167 1.386 . S
C1166 C1168 1.391 . S
C1167 C1166 1.386 . S
C1167 C1171 1.393 . S
C1168 H1157 0.950 . S
C1168 C1166 1.391 . S
C1168 C1169 1.400 . S
C1169 C1163 1.491 . S
C1169 C1168 1.400 . S
C1169 C1170 1.398 . S
C1170 H1158 0.950 . S
C1170 C1169 1.398 . S
C1170 C1171 1.391 . S
C1171 H1159 0.950 . S
C1171 C1167 1.393 . S
C1171 C1170 1.391 . S
H1172 C1180 0.950 . S
H1173 C1185 0.950 . S
H1174 C1182 0.950 . S
H1175 C1184 0.950 . S
H1176 C1186 0.950 . S
H1177 C1188 0.950 . S
H1178 C1190 0.950 . S
H1179 C1191 0.950 . S
C1180 H1172 0.950 . S
C1180 C1181 1.386 . S
C1180 C1182 1.391 . S
C1181 C1180 1.386 . S
C1181 C1185 1.393 . S
C1182 H1174 0.950 . S
C1182 C1180 1.391 . S
C1182 C1183 1.400 . S
C1183 C1182 1.400 . S
C1183 C1184 1.398 . S
C1183 C1189 1.491 . S
C1184 H1175 0.950 . S
C1184 C1183 1.398 . S
C1184 C1185 1.391 . S
C1185 H1173 0.950 . S
C1185 C1181 1.393 . S
C1185 C1184 1.391 . S
C1186 H1176 0.950 . S
C1186 C1187 1.386 . S
C1186 C1188 1.391 . S
C1187 C1186 1.386 . S
C1187 C1191 1.393 . S
C1188 H1177 0.950 . S
C1188 C1186 1.391 . S
C1188 C1189 1.400 . S
C1189 C1183 1.491 . S
C1189 C1188 1.400 . S
C1189 C1190 1.398 . S
C1190 H1178 0.950 . S
C1190 C1189 1.398 . S
C1190 C1191 1.391 . S
C1191 H1179 0.950 . S
C1191 C1187 1.393 . S
C1191 C1190 1.391 . S
H1192 C1200 0.950 . S
H1193 C1205 0.950 . S
H1194 C1202 0.950 . S
H1195 C1204 0.950 . S
H1196 C1206 0.950 . S
H1197 C1208 0.950 . S
H1198 C1210 0.950 . S
H1199 C1211 0.950 . S
C1200 H1192 0.950 . S
C1200 C1201 1.386 . S
C1200 C1202 1.391 . S
C1201 C1200 1.386 . S
C1201 C1205 1.393 . S
C1202 H1194 0.950 . S
C1202 C1200 1.391 . S
C1202 C1203 1.400 . S
C1203 C1202 1.400 . S
C1203 C1204 1.398 . S
C1203 C1209 1.491 . S
C1204 H1195 0.950 . S
C1204 C1203 1.398 . S
C1204 C1205 1.391 . S
C1205 H1193 0.950 . S
C1205 C1201 1.393 . S
C1205 C1204 1.391 . S
C1206 H1196 0.950 . S
C1206 C1207 1.386 . S
C1206 C1208 1.391 . S
C1207 C1206 1.386 . S
C1207 C1211 1.393 . S
C1208 H1197 0.950 . S
C1208 C1206 1.391 . S
C1208 C1209 1.400 . S
C1209 C1203 1.491 . S
C1209 C1208 1.400 . S
C1209 C1210 1.398 . S
C1210 H1198 0.950 . S
C1210 C1209 1.398 . S
C1210 C1211 1.391 . S
C1211 H1199 0.950 . S
C1211 C1207 1.393 . S
C1211 C1210 1.391 . S
H1212 C1220 0.950 . S
H1213 C1225 0.950 . S
H1214 C1222 0.950 . S
H1215 C1224 0.950 . S
H1216 C1226 0.950 . S
H1217 C1228 0.950 . S
H1218 C1230 0.950 . S
H1219 C1231 0.950 . S
C1220 H1212 0.950 . S
C1220 C1221 1.386 . S
C1220 C1222 1.391 . S
C1221 C1220 1.386 . S
C1221 C1225 1.393 . S
C1222 H1214 0.950 . S
C1222 C1220 1.391 . S
C1222 C1223 1.400 . S
C1223 C1222 1.400 . S
C1223 C1224 1.398 . S
C1223 C1229 1.491 . S
C1224 H1215 0.950 . S
C1224 C1223 1.398 . S
C1224 C1225 1.391 . S
C1225 H1213 0.950 . S
C1225 C1221 1.393 . S
C1225 C1224 1.391 . S
C1226 H1216 0.950 . S
C1226 C1227 1.386 . S
C1226 C1228 1.391 . S
C1227 C1226 1.386 . S
C1227 C1231 1.393 . S
C1228 H1217 0.950 . S
C1228 C1226 1.391 . S
C1228 C1229 1.400 . S
C1229 C1223 1.491 . S
C1229 C1228 1.400 . S
C1229 C1230 1.398 . S
C1230 H1218 0.950 . S
C1230 C1229 1.398 . S
C1230 C1231 1.391 . S
C1231 H1219 0.950 . S
C1231 C1227 1.393 . S
C1231 C1230 1.391 . S
H1232 C1240 0.950 . S
H1233 C1245 0.950 . S
H1234 C1242 0.950 . S
H1235 C1244 0.950 . S
H1236 C1246 0.950 . S
H1237 C1248 0.950 . S
H1238 C1250 0.950 . S
H1239 C1251 0.950 . S
C1240 H1232 0.950 . S
C1240 C1241 1.386 . S
C1240 C1242 1.391 . S
C1241 C1240 1.386 . S
C1241 C1245 1.393 . S
C1242 H1234 0.950 . S
C1242 C1240 1.391 . S
C1242 C1243 1.400 . S
C1243 C1242 1.400 . S
C1243 C1244 1.398 . S
C1243 C1249 1.491 . S
C1244 H1235 0.950 . S
C1244 C1243 1.398 . S
C1244 C1245 1.391 . S
C1245 H1233 0.950 . S
C1245 C1241 1.393 . S
C1245 C1244 1.391 . S
C1246 H1236 0.950 . S
C1246 C1247 1.386 . S
C1246 C1248 1.391 . S
C1247 C1246 1.386 . S
C1247 C1251 1.393 . S
C1248 H1237 0.950 . S
C1248 C1246 1.391 . S
C1248 C1249 1.400 . S
C1249 C1243 1.491 . S
C1249 C1248 1.400 . S
C1249 C1250 1.398 . S
C1250 H1238 0.950 . S
C1250 C1249 1.398 . S
C1250 C1251 1.391 . S
C1251 H1239 0.950 . S
C1251 C1247 1.393 . S
C1251 C1250 1.391 . S
H1252 C1260 0.950 . S
H1253 C1265 0.950 . S
H1254 C1262 0.950 . S
H1255 C1264 0.950 . S
H1256 C1266 0.950 . S
H1257 C1268 0.950 . S
H1258 C1270 0.950 . S
H1259 C1271 0.950 . S
C1260 H1252 0.950 . S
C1260 C1261 1.386 . S
C1260 C1262 1.391 . S
C1261 C1260 1.386 . S
C1261 C1265 1.393 . S
C1262 H1254 0.950 . S
C1262 C1260 1.391 . S
C1262 C1263 1.400 . S
C1263 C1262 1.400 . S
C1263 C1264 1.398 . S
C1263 C1269 1.491 . S
C1264 H1255 0.950 . S
C1264 C1263 1.398 . S
C1264 C1265 1.391 . S
C1265 H1253 0.950 . S
C1265 C1261 1.393 . S
C1265 C1264 1.391 . S
C1266 H1256 0.950 . S
C1266 C1267 1.386 . S
C1266 C1268 1.391 . S
C1267 C1266 1.386 . S
C1267 C1271 1.393 . S
C1268 H1257 0.950 . S
C1268 C1266 1.391 . S
C1268 C1269 1.400 . S
C1269 C1263 1.491 . S
C1269 C1268 1.400 . S
C1269 C1270 1.398 . S
C1270 H1258 0.950 . S
C1270 C1269 1.398 . S
C1270 C1271 1.391 . S
C1271 H1259 0.950 . S
C1271 C1267 1.393 . S
C1271 C1270 1.391 . S
H1272 C1280 0.950 . S
H1273 C1285 0.950 . S
H1274 C1282 0.950 . S
H1275 C1284 0.950 . S
H1276 C1286 0.950 . S
H1277 C1288 0.950 . S
H1278 C1290 0.950 . S
H1279 C1291 0.950 . S
C1280 H1272 0.950 . S
C1280 C1281 1.386 . S
C1280 C1282 1.391 . S
C1281 C1280 1.386 . S
C1281 C1285 1.393 . S
C1282 H1274 0.950 . S
C1282 C1280 1.391 . S
C1282 C1283 1.400 . S
C1283 C1282 1.400 . S
C1283 C1284 1.398 . S
C1283 C1289 1.491 . S
C1284 H1275 0.950 . S
C1284 C1283 1.398 . S
C1284 C1285 1.391 . S
C1285 H1273 0.950 . S
C1285 C1281 1.393 . S
C1285 C1284 1.391 . S
C1286 H1276 0.950 . S
C1286 C1287 1.386 . S
C1286 C1288 1.391 . S
C1287 C1286 1.386 . S
C1287 C1291 1.393 . S
C1288 H1277 0.950 . S
C1288 C1286 1.391 . S
C1288 C1289 1.400 . S
C1289 C1283 1.491 . S
C1289 C1288 1.400 . S
C1289 C1290 1.398 . S
C1290 H1278 0.950 . S
C1290 C1289 1.398 . S
C1290 C1291 1.391 . S
C1291 H1279 0.950 . S
C1291 C1287 1.393 . S
C1291 C1290 1.391 . S
H1292 C1300 0.950 . S
H1293 C1305 0.950 . S
H1294 C1302 0.950 . S
H1295 C1304 0.950 . S
H1296 C1306 0.950 . S
H1297 C1308 0.950 . S
H1298 C1310 0.950 . S
H1299 C1311 0.950 . S
C1300 H1292 0.950 . S
C1300 C1301 1.386 . S
C1300 C1302 1.391 . S
C1301 C1300 1.386 . S
C1301 C1305 1.393 . S
C1302 H1294 0.950 . S
C1302 C1300 1.391 . S
C1302 C1303 1.400 . S
C1303 C1302 1.400 . S
C1303 C1304 1.398 . S
C1303 C1309 1.491 . S
C1304 H1295 0.950 . S
C1304 C1303 1.398 . S
C1304 C1305 1.391 . S
C1305 H1293 0.950 . S
C1305 C1301 1.393 . S
C1305 C1304 1.391 . S
C1306 H1296 0.950 . S
C1306 C1307 1.386 . S
C1306 C1308 1.391 . S
C1307 C1306 1.386 . S
C1307 C1311 1.393 . S
C1308 H1297 0.950 . S
C1308 C1306 1.391 . S
C1308 C1309 1.400 . S
C1309 C1303 1.491 . S
C1309 C1308 1.400 . S
C1309 C1310 1.398 . S
C1310 H1298 0.950 . S
C1310 C1309 1.398 . S
C1310 C1311 1.391 . S
C1311 H1299 0.950 . S
C1311 C1307 1.393 . S
C1311 C1310 1.391 . S
H1312 C1320 0.950 . S
H1313 C1325 0.950 . S
H1314 C1322 0.950 . S
H1315 C1324 0.950 . S
H1316 C1326 0.950 . S
H1317 C1328 0.950 . S
H1318 C1330 0.950 . S
H1319 C1331 0.950 . S
C1320 H1312 0.950 . S
C1320 C1321 1.386 . S
C1320 C1322 1.391 . S
C1321 C1320 1.386 . S
C1321 C1325 1.393 . S
C1322 H1314 0.950 . S
C1322 C1320 1.391 . S
C1322 C1323 1.400 . S
C1323 C1322 1.400 . S
C1323 C1324 1.398 . S
C1323 C1329 1.491 . S
C1324 H1315 0.950 . S
C1324 C1323 1.398 . S
C1324 C1325 1.391 . S
C1325 H1313 0.950 . S
C1325 C1321 1.393 . S
C1325 C1324 1.391 . S
C1326 H1316 0.950 . S
C1326 C1327 1.386 . S
C1326 C1328 1.391 . S
C1327 C1326 1.386 . S
C1327 C1331 1.393 . S
C1328 H1317 0.950 . S
C1328 C1326 1.391 . S
C1328 C1329 1.400 . S
C1329 C1323 1.491 . S
C1329 C1328 1.400 . S
C1329 C1330 1.398 . S
C1330 H1318 0.950 . S
C1330 C1329 1.398 . S
C1330 C1331 1.391 . S
C1331 H1319 0.950 . S
C1331 C1327 1.393 . S
C1331 C1330 1.391 . S
H1332 C1340 0.950 . S
H1333 C1345 0.950 . S
H1334 C1342 0.950 1_545 S
H1335 C1344 0.950 . S
H1336 C1346 0.950 . S
H1337 C1348 0.950 . S
H1338 C1350 0.950 . S
H1339 C1351 0.950 . S
C1340 H1332 0.950 . S
C1340 C1341 1.386 . S
C1340 C1342 1.391 . S
C1341 C1340 1.386 . S
C1341 C1345 1.393 . S
C1342 H1334 0.950 1_565 S
C1342 C1340 1.391 . S
C1342 C1343 1.400 . S
C1343 C1342 1.400 . S
C1343 C1344 1.398 . S
C1343 C1349 1.491 . S
C1344 H1335 0.950 . S
C1344 C1343 1.398 . S
C1344 C1345 1.391 . S
C1345 H1333 0.950 . S
C1345 C1341 1.393 . S
C1345 C1344 1.391 . S
C1346 H1336 0.950 . S
C1346 C1347 1.386 1_565 S
C1346 C1348 1.391 . S
C1347 C1346 1.386 1_545 S
C1347 C1351 1.393 . S
C1348 H1337 0.950 . S
C1348 C1346 1.391 . S
C1348 C1349 1.400 . S
C1349 C1343 1.491 . S
C1349 C1348 1.400 . S
C1349 C1350 1.398 1_565 S
C1350 H1338 0.950 . S
C1350 C1349 1.398 1_545 S
C1350 C1351 1.391 . S
C1351 H1339 0.950 . S
C1351 C1347 1.393 . S
C1351 C1350 1.391 . S
H1352 C1360 0.950 . S
H1353 C1365 0.950 . S
H1354 C1362 0.950 . S
H1355 C1364 0.950 . S
H1356 C1366 0.950 . S
H1357 C1368 0.950 . S
H1358 C1370 0.950 . S
H1359 C1371 0.932 1_554 S
C1360 H1352 0.950 . S
C1360 C1361 1.386 . S
C1360 C1362 1.391 . S
C1361 C1360 1.386 . S
C1361 C1365 1.393 . S
C1362 H1354 0.950 . S
C1362 C1360 1.391 . S
C1362 C1363 1.400 . S
C1363 C1362 1.400 . S
C1363 C1364 1.398 . S
C1363 C1369 1.491 . S
C1364 H1355 0.950 . S
C1364 C1363 1.398 . S
C1364 C1365 1.391 . S
C1365 H1353 0.950 . S
C1365 C1361 1.393 . S
C1365 C1364 1.391 . S
C1366 H1356 0.950 . S
C1366 C1367 1.386 . S
C1366 C1368 1.391 . S
C1367 C1366 1.386 . S
C1367 C1371 1.393 . S
C1368 H1357 0.950 . S
C1368 C1366 1.391 . S
C1368 C1369 1.400 . S
C1369 C1363 1.491 . S
C1369 C1368 1.400 . S
C1369 C1370 1.398 . S
C1370 H1358 0.950 . S
C1370 C1369 1.398 . S
C1370 C1371 1.391 . S
C1371 H1359 0.932 1_556 S
C1371 C1367 1.393 . S
C1371 C1370 1.391 . S
H1372 C1380 0.950 . S
H1373 C1385 0.950 . S
H1374 C1382 0.950 . S
H1375 C1384 0.950 . S
H1376 C1386 0.950 . S
H1377 C1388 0.950 . S
H1378 C1390 0.950 . S
H1379 C1391 0.950 . S
C1380 H1372 0.950 . S
C1380 C1381 1.386 . S
C1380 C1382 1.391 1_565 S
C1381 C1380 1.386 . S
C1381 C1385 1.393 . S
C1382 H1374 0.950 . S
C1382 C1380 1.391 1_545 S
C1382 C1383 1.400 . S
C1383 C1382 1.400 . S
C1383 C1384 1.398 . S
C1383 C1389 1.491 . S
C1384 H1375 0.950 . S
C1384 C1383 1.398 . S
C1384 C1385 1.391 1_545 S
C1385 H1373 0.950 . S
C1385 C1381 1.393 . S
C1385 C1384 1.391 1_565 S
C1386 H1376 0.950 . S
C1386 C1387 1.386 . S
C1386 C1388 1.391 . S
C1387 C1386 1.386 . S
C1387 C1391 1.393 . S
C1388 H1377 0.950 . S
C1388 C1386 1.391 . S
C1388 C1389 1.400 . S
C1389 C1383 1.491 . S
C1389 C1388 1.400 . S
C1389 C1390 1.398 . S
C1390 H1378 0.950 . S
C1390 C1389 1.398 . S
C1390 C1391 1.391 . S
C1391 H1379 0.950 . S
C1391 C1387 1.393 . S
C1391 C1390 1.391 . S
H1392 C1400 0.950 . S
H1393 C1405 0.950 . S
H1394 C1402 0.950 . S
H1395 C1404 0.950 . S
H1396 C1406 0.950 . S
H1397 C1408 0.950 . S
H1398 C1410 0.950 . S
H1399 C1411 0.950 . S
C1400 H1392 0.950 . S
C1400 C1401 1.386 . S
C1400 C1402 1.391 . S
C1401 C1400 1.386 . S
C1401 C1405 1.393 . S
C1402 H1394 0.950 . S
C1402 C1400 1.391 . S
C1402 C1403 1.400 . S
C1403 C1402 1.400 . S
C1403 C1404 1.398 . S
C1403 C1409 1.491 . S
C1404 H1395 0.950 . S
C1404 C1403 1.398 . S
C1404 C1405 1.391 . S
C1405 H1393 0.950 . S
C1405 C1401 1.393 . S
C1405 C1404 1.391 . S
C1406 H1396 0.950 . S
C1406 C1407 1.386 . S
C1406 C1408 1.391 . S
C1407 C1406 1.386 . S
C1407 C1411 1.393 . S
C1408 H1397 0.950 . S
C1408 C1406 1.391 . S
C1408 C1409 1.400 . S
C1409 C1403 1.491 . S
C1409 C1408 1.400 . S
C1409 C1410 1.398 . S
C1410 H1398 0.950 . S
C1410 C1409 1.398 . S
C1410 C1411 1.391 . S
C1411 H1399 0.950 . S
C1411 C1407 1.393 . S
C1411 C1410 1.391 . S
H1412 C1420 0.950 . S
H1413 C1425 0.950 . S
H1414 C1422 0.950 . S
H1415 C1424 0.950 . S
H1416 C1426 0.950 1_455 S
H1417 C1428 0.950 . S
H1418 C1430 0.950 . S
H1419 C1431 0.950 . S
C1420 H1412 0.950 . S
C1420 C1421 1.386 . S
C1420 C1422 1.391 . S
C1421 C1420 1.386 . S
C1421 C1425 1.393 . S
C1422 H1414 0.950 . S
C1422 C1420 1.391 . S
C1422 C1423 1.400 . S
C1423 C1422 1.400 . S
C1423 C1424 1.398 . S
C1423 C1429 1.491 . S
C1424 H1415 0.950 . S
C1424 C1423 1.398 . S
C1424 C1425 1.391 . S
C1425 H1413 0.950 . S
C1425 C1421 1.393 . S
C1425 C1424 1.391 . S
C1426 H1416 0.950 1_655 S
C1426 C1427 1.386 . S
C1426 C1428 1.391 1_565 S
C1427 C1426 1.386 . S
C1427 C1431 1.393 . S
C1428 H1417 0.950 . S
C1428 C1426 1.391 1_545 S
C1428 C1429 1.400 . S
C1429 C1423 1.491 . S
C1429 C1428 1.400 . S
C1429 C1430 1.398 . S
C1430 H1418 0.950 . S
C1430 C1429 1.398 . S
C1430 C1431 1.391 1_545 S
C1431 H1419 0.950 . S
C1431 C1427 1.393 . S
C1431 C1430 1.391 1_565 S
H1432 C1440 0.950 . S
H1433 C1445 0.950 . S
H1434 C1442 0.950 . S
H1435 C1444 0.950 . S
H1436 C1446 0.950 . S
H1437 C1448 0.950 . S
H1438 C1450 0.950 . S
H1439 C1451 0.950 . S
C1440 H1432 0.950 . S
C1440 C1441 1.386 . S
C1440 C1442 1.391 . S
C1441 C1440 1.386 . S
C1441 C1445 1.393 . S
C1442 H1434 0.950 . S
C1442 C1440 1.391 . S
C1442 C1443 1.400 . S
C1443 C1442 1.400 . S
C1443 C1444 1.398 . S
C1443 C1449 1.491 . S
C1444 H1435 0.950 . S
C1444 C1443 1.398 . S
C1444 C1445 1.391 . S
C1445 H1433 0.950 . S
C1445 C1441 1.393 . S
C1445 C1444 1.391 . S
C1446 H1436 0.950 . S
C1446 C1447 1.386 . S
C1446 C1448 1.391 . S
C1447 C1446 1.386 . S
C1447 C1451 1.393 . S
C1448 H1437 0.950 . S
C1448 C1446 1.391 . S
C1448 C1449 1.400 . S
C1449 C1443 1.491 . S
C1449 C1448 1.400 . S
C1449 C1450 1.398 . S
C1450 H1438 0.950 . S
C1450 C1449 1.398 . S
C1450 C1451 1.391 . S
C1451 H1439 0.950 . S
C1451 C1447 1.393 . S
C1451 C1450 1.391 . S
H1452 C1460 0.950 . S
H1453 C1465 0.950 . S
H1454 C1462 0.950 . S
H1455 C1464 0.950 . S
H1456 C1466 0.950 . S
H1457 C1468 0.950 . S
H1458 C1470 0.950 . S
H1459 C1471 0.950 . S
C1460 H1452 0.950 . S
C1460 C1461 1.386 . S
C1460 C1462 1.391 . S
C1461 C1460 1.386 . S
C1461 C1465 1.393 . S
C1462 H1454 0.950 . S
C1462 C1460 1.391 . S
C1462 C1463 1.400 . S
C1463 C1462 1.400 . S
C1463 C1464 1.398 . S
C1463 C1469 1.491 . S
C1464 H1455 0.950 . S
C1464 C1463 1.398 . S
C1464 C1465 1.391 . S
C1465 H1453 0.950 . S
C1465 C1461 1.393 . S
C1465 C1464 1.391 . S
C1466 H1456 0.950 . S
C1466 C1467 1.386 . S
C1466 C1468 1.391 1_545 S
C1467 C1466 1.386 . S
C1467 C1471 1.393 . S
C1468 H1457 0.950 . S
C1468 C1466 1.391 1_565 S
C1468 C1469 1.400 . S
C1469 C1463 1.491 . S
C1469 C1468 1.400 . S
C1469 C1470 1.398 . S
C1470 H1458 0.950 . S
C1470 C1469 1.398 . S
C1470 C1471 1.391 1_565 S
C1471 H1459 0.950 . S
C1471 C1467 1.393 . S
C1471 C1470 1.391 1_545 S
C521 C29 0.633 . S
C527 C349 0.598 . S
C541 C36 0.597 . S
C547 C381 0.633 . S
C561 C93 0.627 . S
C567 C285 0.602 . S
C581 C292 0.606 . S
C587 C125 0.626 . S
C601 C157 0.626 . S
C607 C452 0.607 . S
C621 C509 0.627 . S
C627 C164 0.605 . S
C641 C413 0.633 . S
C647 C221 0.598 . S
C661 C253 0.597 . S
C667 C420 0.632 . S
C681 C6 2.768 . S
C687 C134 2.768 . S
C701 C34 2.766 . S
C707 C418 2.766 . S
C721 C70 2.769 . S
C727 C198 2.769 . S
C741 C102 2.768 . S
C747 C486 2.768 . S
C761 C162 2.766 . S
C767 C290 2.766 . S
C781 C358 2.771 . S
C787 C230 2.771 . S
C801 C390 2.776 . S
C807 C262 2.776 . S
C821 C326 2.773 . S
C827 C450 2.773 . S
C841 C4 1.983 . S
C847 C226 1.977 . S
C861 C61 1.972 . S
C867 C386 1.974 . S
C881 C68 1.972 . S
C887 C166 1.974 . S
C901 C100 1.983 1_455 S
C907 C454 1.976 . S
C921 C98 1.978 . S
C927 C132 1.974 . S
C941 C189 1.979 . S
C947 C258 1.980 . S
C961 C196 1.982 . S
C967 C38 1.976 . S
C981 C322 1.972 . S
C987 C228 1.973 1_655 S
C1001 C260 1.977 . S
C1007 C482 1.980 1_565 S
C1021 C130 1.979 . S
C1027 C317 1.975 1_655 S
C1041 C422 1.972 1_545 S
C1047 C324 1.981 . S
C1061 C194 1.974 . S
C1067 C356 1.972 . S
C1081 C388 1.981 . S
C1087 C354 1.971 1_545 S
C1101 C445 1.978 1_455 S
C1107 C2 1.970 . S
C1121 C294 1.972 1_565 S
C1127 C477 1.973 . S
C1141 C484 1.981 . S
C1147 C66 1.980 . S
C1161 N13 0.908 1_556 S
C1167 N301 0.925 . S
C1181 N338 0.907 . S
C1187 N50 0.908 . S
C1201 N77 0.873 . S
C1207 N370 0.902 . S
C1221 N274 0.917 . S
C1227 N109 0.891 . S
C1241 N429 0.920 . S
C1247 N141 0.918 1_554 S
C1261 N461 0.925 . S
C1267 N178 0.912 . S
C1281 N498 0.923 . S
C1287 N205 0.903 . S
C1301 N402 0.917 . S
C1307 N237 0.892 . S
C1321 N45 0.915 . S
C1327 N269 0.915 . S
C1341 N82 0.891 . S
C1347 N306 0.881 . S
C1361 N114 0.907 . S
C1367 N333 0.878 1_556 S
C1381 N365 0.916 . S
C1387 N18 0.916 . S
C1401 N173 0.903 . S
C1407 N397 0.903 . S
C1421 N210 0.916 . S
C1427 N434 0.916 . S
C1441 N242 0.908 . S
C1447 N466 0.879 1_554 S
C1461 N146 0.915 . S
C1467 N493 0.916 . S
