# Generated by pormake.
# Topology uoc, (4)-cn, num edge types: 1
# Building blocks:
#     Node 0, Type 0, BuildingBlock: ESEHIV_clean_sbu_0, # of connection points: 4
#     Node 1, Type 0, BuildingBlock: ESEHIV_clean_sbu_0, # of connection points: 4
#     Node 2, Type 0, BuildingBlock: ESEHIV_clean_sbu_0, # of connection points: 4
#     Node 3, Type 0, BuildingBlock: ESEHIV_clean_sbu_0, # of connection points: 4
#     Node 4, Type 0, BuildingBlock: ESEHIV_clean_sbu_0, # of connection points: 4
#     Node 5, Type 0, BuildingBlock: ESEHIV_clean_sbu_0, # of connection points: 4
#     Node 6, Type 0, BuildingBlock: ESEHIV_clean_sbu_0, # of connection points: 4
#     Node 7, Type 0, BuildingBlock: ESEHIV_clean_sbu_0, # of connection points: 4
#     Edge 8, Type (0, 0), BuildingBlock: AJUNOK_clean_linker_0, # of connection points: 2
#     Edge 9, Type (0, 0), BuildingBlock: AJUNOK_clean_linker_0, # of connection points: 2
#     Edge 10, Type (0, 0), BuildingBlock: AJUNOK_clean_linker_0, # of connection points: 2
#     Edge 11, Type (0, 0), BuildingBlock: AJUNOK_clean_linker_0, # of connection points: 2
#     Edge 12, Type (0, 0), BuildingBlock: AJUNOK_clean_linker_0, # of connection points: 2
#     Edge 13, Type (0, 0), BuildingBlock: AJUNOK_clean_linker_0, # of connection points: 2
#     Edge 14, Type (0, 0), BuildingBlock: AJUNOK_clean_linker_0, # of connection points: 2
#     Edge 15, Type (0, 0), BuildingBlock: AJUNOK_clean_linker_0, # of connection points: 2
#     Edge 16, Type (0, 0), BuildingBlock: AJUNOK_clean_linker_0, # of connection points: 2
#     Edge 17, Type (0, 0), BuildingBlock: AJUNOK_clean_linker_0, # of connection points: 2
#     Edge 18, Type (0, 0), BuildingBlock: AJUNOK_clean_linker_0, # of connection points: 2
#     Edge 19, Type (0, 0), BuildingBlock: AJUNOK_clean_linker_0, # of connection points: 2
#     Edge 20, Type (0, 0), BuildingBlock: AJUNOK_clean_linker_0, # of connection points: 2
#     Edge 21, Type (0, 0), BuildingBlock: AJUNOK_clean_linker_0, # of connection points: 2
#     Edge 22, Type (0, 0), BuildingBlock: AJUNOK_clean_linker_0, # of connection points: 2
#     Edge 23, Type (0, 0), BuildingBlock: AJUNOK_clean_linker_0, # of connection points: 2
# Relax obj value: 0.063
# Max RMSD: 0.277
# Mean RMSD: 0.277
data_MOF--net-uoc--node1-ESEHIV_clean_sbu_0--edge1-AJUNOK_clean_linker_0
_symmetry_space_group_name_H-M    P1
_symmetry_Int_Tables_number       1
_symmetry_cell_setting            triclinic
loop_
_symmetry_equiv_pos_as_xyz
'x, y, z'
_cell_length_a     25.729306
_cell_length_b     25.666717
_cell_length_c     36.29125
_cell_angle_alpha  90.234063
_cell_angle_beta   90.083985
_cell_angle_gamma 91.636362
loop_
_atom_site_label
_atom_site_type_symbol
_atom_site_fract_x
_atom_site_fract_y
_atom_site_fract_z
_atom_type_partial_charge
Cu0 Cu 0.09636 0.27023 0.16642 0.0
N1 N 0.05075 0.21363 0.1724 0.0
N2 N 0.0186 0.13219 0.17577 0.0
C3 C 0.05927 0.16311 0.1654 0.0
C4 C 0.98339 0.16464 0.19004 0.0
C5 C 1.0033 0.21485 0.18778 0.0
O6 O 0.13804 0.2595 0.1226 0.0
C7 C 0.16992 0.31319 0.21888 0.0
O8 O 0.18717 0.34236 0.1916 0.0
H9 H 0.09498 0.14916 0.15374 0.0
H10 H 0.98535 0.24972 0.19789 0.0
N11 N 0.05639 0.32783 0.15729 0.0
N12 N 0.02557 0.40813 0.15725 0.0
C13 C 0.05979 0.37564 0.17259 0.0
C14 C 0.01909 0.3301 0.13143 0.0
C15 C 1.00012 0.37963 0.13121 0.0
C16 C 0.17408 0.22706 0.11882 0.0
O17 O 0.18892 0.20028 0.14755 0.0
H18 H 0.08724 0.38664 0.19405 0.0
H19 H 1.00766 0.29823 0.11329 0.0
O20 O 0.13375 0.27953 0.21266 0.0
H21 H 0.94711 0.15287 0.203 0.0
H22 H 0.97162 0.39409 0.11214 0.0
Cu23 Cu 0.76209 0.59178 0.43397 0.0
N24 N 0.70459 0.54774 0.42685 0.0
N25 N 0.62284 0.51683 0.42426 0.0
C26 C 0.65507 0.55538 0.43679 0.0
C27 C 0.65337 0.48398 0.40556 0.0
C28 C 0.7038 0.5031 0.40734 0.0
O29 O 0.75231 0.6333 0.4781 0.0
C30 C 0.80552 0.66651 0.38286 0.0
O31 O 0.83458 0.68343 0.41047 0.0
H32 H 0.64271 0.58906 0.45211 0.0
H33 H 0.73736 0.48678 0.39416 0.0
N34 N 0.8185 0.54998 0.44235 0.0
N35 N 0.89844 0.51873 0.44302 0.0
C36 C 0.86726 0.55542 0.42934 0.0
C37 C 0.81876 0.50871 0.46502 0.0
C38 C 0.86808 0.48944 0.46564 0.0
C39 C 0.7206 0.67007 0.4815 0.0
O40 O 0.69436 0.68492 0.45248 0.0
H41 H 0.87985 0.58606 0.41072 0.0
H42 H 0.78563 0.49466 0.4808 0.0
O43 O 0.772 0.63015 0.38847 0.0
H44 H 0.63998 0.45013 0.39 0.0
H45 H 0.88104 0.45794 0.48279 0.0
Cu46 Cu 0.44494 0.2709 0.6705 0.0
N47 N 0.49154 0.32706 0.67752 0.0
N48 N 0.52321 0.40782 0.68699 0.0
C49 C 0.48209 0.37836 0.67532 0.0
C50 C 0.55993 0.37401 0.69664 0.0
C51 C 0.54027 0.3242 0.69075 0.0
O52 O 0.40461 0.28123 0.626 0.0
C53 C 0.36769 0.23076 0.72102 0.0
O54 O 0.34981 0.20294 0.69303 0.0
H55 H 0.44506 0.39372 0.66721 0.0
H56 H 0.55938 0.2883 0.69702 0.0
N57 N 0.48262 0.2111 0.66207 0.0
N58 N 0.50492 0.12767 0.6592 0.0
C59 C 0.47291 0.16247 0.67463 0.0
C60 C 0.52221 0.20709 0.6382 0.0
C61 C 0.53623 0.1558 0.6365 0.0
C62 C 0.36755 0.31215 0.62123 0.0
O63 O 0.35112 0.33967 0.64928 0.0
H64 H 0.44285 0.1529 0.69444 0.0
H65 H 0.53857 0.23908 0.62228 0.0
O66 O 0.40553 0.2628 0.71586 0.0
H67 H 0.59772 0.38463 0.70799 0.0
H68 H 0.56591 0.14008 0.61887 0.0
Cu69 Cu 0.75893 0.93571 0.93732 0.0
N70 N 0.8151 0.98072 0.92731 0.0
N71 N 0.89618 1.01328 0.92176 0.0
C72 C 0.86582 0.97318 0.93403 0.0
C73 C 0.86314 0.047 0.90648 0.0
C74 C 0.8132 0.0269 0.91009 0.0
O75 O 0.77267 0.89915 0.98286 0.0
C76 C 0.70826 0.8599 0.89066 0.0
O77 O 0.67406 0.85568 0.91738 0.0
H78 H 0.8802 0.93872 0.94726 0.0
H79 H 0.778 0.04402 0.90003 0.0
N80 N 0.70061 0.97564 0.94598 0.0
N81 N 0.61894 1.00303 0.94563 0.0
C82 C 0.65452 0.97399 0.92833 0.0
C83 C 0.69437 1.00786 0.97487 0.0
C84 C 0.64409 0.02496 0.97467 0.0
C85 C 0.80207 0.86052 0.98636 0.0
O86 O 0.82383 0.84087 0.95688 0.0
H87 H 0.64697 0.95133 0.90373 0.0
H88 H 0.72376 0.01643 0.99553 0.0
O89 O 0.74784 0.89026 0.89457 0.0
H90 H 0.87426 0.08255 0.89224 0.0
H91 H 0.62658 0.04936 0.99535 0.0
Cu92 Cu 0.59034 0.77402 0.68257 0.0
N93 N 0.55602 0.71313 0.69821 0.0
N94 N 0.53259 0.6295 0.70555 0.0
C95 C 0.55862 0.66449 0.68431 0.0
C96 C 0.51246 0.65711 0.73352 0.0
C97 C 0.52694 0.70872 0.72888 0.0
O98 O 0.62603 0.76305 0.63616 0.0
C99 C 0.65731 0.77378 0.7462 0.0
O100 O 0.66115 0.72337 0.74102 0.0
H101 H 0.58087 0.65455 0.66012 0.0
H102 H 0.51832 0.74072 0.74716 0.0
N103 N 0.54194 0.82502 0.67406 0.0
N104 N 0.5094 0.90446 0.66905 0.0
C105 C 0.54938 0.87616 0.68113 0.0
C106 C 0.49568 0.82046 0.65691 0.0
C107 C 0.4755 0.8695 0.65368 0.0
C108 C 0.66272 0.73186 0.63062 0.0
O109 O 0.68128 0.70586 0.65859 0.0
H110 H 0.58418 0.89239 0.69407 0.0
H111 H 0.47888 0.78433 0.64625 0.0
O112 O 0.63346 0.80094 0.72267 0.0
H113 H 0.48968 0.64093 0.75601 0.0
H114 H 0.44007 0.87881 0.63935 0.0
Cu115 Cu 0.26363 0.08883 0.91746 0.0
N116 N 0.20238 0.04982 0.90961 0.0
N117 N 0.11863 0.02418 0.90912 0.0
C118 C 0.15482 0.05747 0.92378 0.0
C119 C 0.14477 0.99415 0.88525 0.0
C120 C 0.19627 1.01019 0.88552 0.0
O121 O 0.25854 0.12778 0.96328 0.0
C122 C 0.3082 0.1679 0.86993 0.0
O123 O 0.33475 0.1841 0.89894 0.0
H124 H 0.14707 0.08691 0.94427 0.0
H125 H 0.22701 0.995 0.86863 0.0
N126 N 0.31795 0.04312 0.92302 0.0
N127 N 0.39786 1.01182 0.92741 0.0
C128 C 0.36916 0.05309 0.91818 0.0
C129 C 0.31406 0.99418 0.93597 0.0
C130 C 0.36323 0.97479 0.93881 0.0
C131 C 0.22868 0.16553 0.96905 0.0
O132 O 0.20103 0.1832 0.94155 0.0
H133 H 0.38513 0.09016 0.9088 0.0
H134 H 0.27805 0.97468 0.94403 0.0
O135 O 0.2756 0.13009 0.87335 0.0
H136 H 0.12754 0.96397 0.86784 0.0
H137 H 0.37275 0.93734 0.95018 0.0
Cu138 Cu 0.94417 0.76632 0.1844 0.0
N139 N 0.98454 0.82654 0.19147 0.0
N140 N 1.01069 0.91008 0.19065 0.0
C141 C 0.97862 0.87323 0.17562 0.0
C142 C 0.0385 0.88516 0.21639 0.0
C143 C 0.02212 0.83365 0.21691 0.0
O144 O 0.90325 0.77258 0.13972 0.0
C145 C 0.86588 0.72403 0.23316 0.0
O146 O 0.84762 0.69855 0.20424 0.0
H147 H 0.95093 0.88 0.15386 0.0
H148 H 0.03522 0.80382 0.23543 0.0
N149 N 0.98812 0.71113 0.17747 0.0
N150 N 0.01569 0.6299 0.17192 0.0
C151 C 0.97713 0.66043 0.18369 0.0
C152 C 0.03536 0.71305 0.16169 0.0
C153 C 0.0526 0.66295 0.15835 0.0
C154 C 0.86723 0.80473 0.13491 0.0
O155 O 0.85291 0.83389 0.16274 0.0
H156 H 0.94135 0.64643 0.19627 0.0
H157 H 0.05504 0.74829 0.15219 0.0
O158 O 0.90474 0.75518 0.22931 0.0
H159 H 0.06694 0.90339 0.23469 0.0
H160 H 0.08852 0.65155 0.14553 0.0
Cu161 Cu 0.25867 0.44285 0.42522 0.0
N162 N 0.31714 0.4859 0.41954 0.0
N163 N 0.40039 0.51237 0.41895 0.0
C164 C 0.365 0.47805 0.4329 0.0
C165 C 0.37336 0.5437 0.39662 0.0
C166 C 0.322 0.52709 0.39693 0.0
O167 O 0.26732 0.40114 0.46924 0.0
C168 C 0.21862 0.36764 0.37175 0.0
O169 O 0.18901 0.3485 0.39818 0.0
H170 H 0.3737 0.44716 0.45187 0.0
H171 H 0.29077 0.54237 0.38058 0.0
N172 N 0.20207 0.48466 0.43293 0.0
N173 N 0.12044 0.51101 0.43694 0.0
C174 C 0.15223 0.47452 0.42355 0.0
C175 C 0.20211 0.52927 0.45245 0.0
C176 C 0.15179 0.54576 0.45488 0.0
C177 C 0.29988 0.36515 0.47271 0.0
O178 O 0.32653 0.35076 0.44373 0.0
H179 H 0.13971 0.44086 0.40752 0.0
H180 H 0.23618 0.54754 0.46502 0.0
O181 O 0.25045 0.40505 0.379 0.0
H182 H 0.39 0.57464 0.3798 0.0
H183 H 0.13899 0.57952 0.46996 0.0
C184 C 0.16944 0.23705 1.05013 0.0
C185 C 0.1935 0.21502 0.0811 0.0
C186 C 0.18244 0.22226 1.01413 0.0
C187 C 0.22024 0.18486 1.00734 0.0
H188 H 0.13895 0.26489 1.0536 0.0
H189 H 0.16145 0.23932 0.9915 0.0
S190 S 0.29902 0.11935 0.07857 0.0
N191 N 0.26001 0.15672 0.10236 0.0
N192 N 0.28469 0.12908 1.03484 0.0
C193 C 0.24649 0.16434 1.03798 0.0
C194 C 0.23308 0.17934 0.07474 0.0
C195 C 0.85751 0.7204 0.33783 0.0
C196 C 0.81605 0.68483 0.34459 0.0
C197 C 0.87199 0.7341 0.30183 0.0
C198 C 0.84578 0.71274 0.27087 0.0
H199 H 0.88009 0.73688 0.36047 0.0
H200 H 0.90512 0.76061 0.29835 0.0
S201 S 0.73108 0.62168 0.27335 0.0
N202 N 0.74629 0.63143 0.31708 0.0
N203 N 0.77374 0.65701 0.24957 0.0
C204 C 0.8028 0.67883 0.2772 0.0
C205 C 0.78789 0.66496 0.31394 0.0
C206 C 0.30932 0.3586 0.57733 0.0
C207 C 0.34676 0.32065 0.58337 0.0
C208 C 0.29284 0.37104 0.54162 0.0
C209 C 0.3132 0.34623 0.51026 0.0
H210 H 0.29348 0.38006 0.60028 0.0
H211 H 0.26509 0.4017 0.53864 0.0
S212 S 0.40838 0.24017 0.51095 0.0
N213 N 0.40082 0.25534 0.55481 0.0
N214 N 0.37009 0.27901 0.48793 0.0
C215 C 0.34896 0.30657 0.51595 0.0
C216 C 0.36565 0.29372 0.55237 0.0
C217 C 0.72845 0.80271 0.83655 0.0
C218 C 0.6956 0.83815 0.85389 0.0
C219 C 0.71607 0.78181 0.80155 0.0
C220 C 0.67155 0.7973 0.78231 0.0
H221 H 0.76333 0.79042 0.85039 0.0
H222 H 0.74166 0.75375 0.78936 0.0
S223 S 0.57407 0.89036 0.81563 0.0
N224 N 0.61707 0.88786 0.84933 0.0
N225 N 0.59485 0.85059 0.78334 0.0
C226 C 0.63911 0.83353 0.79924 0.0
C227 C 0.6509 0.85346 0.8351 0.0
C228 C 0.17075 0.31398 0.32385 0.0
C229 C 0.21098 0.35015 0.3328 0.0
C230 C 0.15915 0.30091 0.28709 0.0
C231 C 0.18712 0.32356 0.25754 0.0
H232 H 0.14689 0.29656 0.34534 0.0
H233 H 0.12678 0.27397 0.28188 0.0
S234 S 0.29989 0.41641 0.26594 0.0
N235 N 0.28169 0.40535 0.30886 0.0
N236 N 0.2596 0.381 0.23999 0.0
C237 C 0.22892 0.35807 0.2661 0.0
C238 C 0.24091 0.37127 0.30359 0.0
C239 C 0.7174 0.68248 0.58603 0.0
C240 C 0.68054 0.72097 0.59234 0.0
C241 C 0.73137 0.6678 0.5502 0.0
C242 C 0.70904 0.69082 0.51895 0.0
H243 H 0.73482 0.6624 0.60894 0.0
H244 H 0.75893 0.63697 0.54711 0.0
S245 S 0.61408 0.7971 0.52012 0.0
N246 N 0.62459 0.78458 0.56402 0.0
N247 N 0.65072 0.7568 0.49683 0.0
C248 C 0.6737 0.73089 0.52479 0.0
C249 C 0.65951 0.74598 0.56137 0.0
C250 C 0.31226 0.17907 0.76536 0.0
C251 C 0.34884 0.2199 0.75916 0.0
C252 C 0.2981 0.16397 0.80116 0.0
C253 C 0.31996 0.18886 0.83249 0.0
H254 H 0.29539 0.1574 0.74241 0.0
H255 H 0.27085 0.13131 0.80417 0.0
S256 S 0.41359 0.30169 0.83158 0.0
N257 N 0.40368 0.28779 0.78764 0.0
N258 N 0.37723 0.25919 0.85476 0.0
C259 C 0.35487 0.23128 0.82674 0.0
C260 C 0.36922 0.24683 0.7902 0.0
C261 C 0.81357 0.85584 0.0909 0.0
C262 C 0.84681 0.81416 0.09712 0.0
C263 C 0.79814 0.86931 0.05518 0.0
C264 C 0.8153 0.84181 1.02398 0.0
H265 H 0.80039 0.87939 0.11369 0.0
H266 H 0.77361 0.90262 1.05207 0.0
S267 S 0.89879 0.72615 1.02525 0.0
N268 N 0.8934 0.74292 0.069 0.0
N269 N 0.86457 0.76843 1.00201 0.0
C270 C 0.84684 0.79869 1.02985 0.0
C271 C 0.8625 0.78483 0.06631 0.0
C272 C 0.0615 0.0482 0.18343 0.0
C273 C 0.01633 0.07606 0.17623 0.0
C274 C 0.05946 0.99392 0.18714 0.0
C275 C 1.01225 0.96533 0.18366 0.0
H276 H 0.09848 0.0686 0.18747 0.0
H277 H 0.09506 0.97416 0.19323 0.0
S278 S 0.88333 0.01968 0.16258 0.0
N279 N 0.92362 0.07088 0.16337 0.0
N280 N 0.91928 0.96906 0.17169 0.0
C281 C 0.96697 0.99259 0.17542 0.0
C282 C 0.96914 0.0479 0.17147 0.0
C283 C 0.03915 0.55936 0.43417 0.0
C284 C 0.06448 0.51155 0.43534 0.0
C285 C 0.98486 0.56134 0.4355 0.0
C286 C 0.9538 0.51556 0.43822 0.0
H287 H 0.06155 0.59564 0.43265 0.0
H288 H 0.9672 0.59912 0.43567 0.0
S289 S 1.00046 0.38021 0.44 0.0
N290 N 0.05402 0.41708 0.43837 0.0
N291 N 0.95193 0.42089 0.43953 0.0
C292 C 0.97844 0.46739 0.43814 0.0
C293 C 0.03377 0.46533 0.43694 0.0
C294 C 0.5132 0.49667 0.66269 0.0
C295 C 0.52547 0.46342 0.69194 0.0
C296 C 0.51638 0.55112 0.66706 0.0
C297 C 0.53049 0.57379 0.70112 0.0
H298 H 0.50187 0.48035 0.63621 0.0
H299 H 0.50703 0.57572 0.64395 0.0
S300 S 0.56537 0.50351 0.78624 0.0
N301 N 0.55199 0.45684 0.75592 0.0
N302 N 0.55699 0.55896 0.76436 0.0
C303 C 0.54232 0.54086 0.73058 0.0
C304 C 0.54006 0.48568 0.72593 0.0
C305 C 0.53784 0.05203 0.9437 0.0
C306 C 0.56403 1.00534 0.93797 0.0
C307 C 0.4838 0.05429 0.9391 0.0
C308 C 0.45382 1.00979 0.92891 0.0
H309 H 0.5593 0.08694 0.95221 0.0
H310 H 0.46519 0.09075 0.94477 0.0
S311 S 0.50374 0.87825 0.90968 0.0
N312 N 0.55582 0.91357 0.92141 0.0
N313 N 0.45472 0.91829 0.91146 0.0
C314 C 0.47972 0.96318 0.92219 0.0
C315 C 0.53469 0.96084 0.92698 0.0
C316 C 0.06376 0.54828 0.17502 0.0
C317 C 0.0164 0.57376 0.17104 0.0
C318 C 0.06623 0.49402 0.17168 0.0
C319 C 0.02144 0.46318 0.16402 0.0
H320 H 0.09934 0.57057 0.1804 0.0
H321 H 0.10378 0.47631 0.17389 0.0
S322 S 0.88732 0.51014 0.15308 0.0
N323 N 0.92333 0.56358 0.15984 0.0
N324 N 0.92783 0.46151 0.15493 0.0
C325 C 0.97356 0.48789 0.16117 0.0
C326 C 0.97103 0.54317 0.16441 0.0
C327 C 0.48471 0.56005 0.42255 0.0
C328 C 0.45605 0.5126 0.42334 0.0
C329 C 0.5391 0.56124 0.42398 0.0
C330 C 0.56693 0.51496 0.42608 0.0
H331 H 0.46487 0.59655 0.4204 0.0
H332 H 0.55951 0.5986 0.4222 0.0
S333 S 0.51055 0.38056 0.43079 0.0
N334 N 0.45977 0.41805 0.42708 0.0
N335 N 0.5619 0.4206 0.43117 0.0
C336 C 0.5388 0.46733 0.42805 0.0
C337 C 0.48339 0.46605 0.42642 0.0
C338 C 0.552 0.04544 0.66182 0.0
C339 C 0.50494 0.07184 0.66394 0.0
C340 C 0.55314 0.99104 0.66411 0.0
C341 C 0.50721 0.96061 0.6685 0.0
H342 H 0.58836 0.06706 0.65818 0.0
H343 H 0.59028 0.97265 0.66147 0.0
S344 S 0.37378 1.01051 0.67677 0.0
N345 N 0.41105 0.06328 0.67104 0.0
N346 N 0.41345 0.96107 0.6765 0.0
C347 C 0.4599 0.98647 0.6714 0.0
C348 C 0.4587 0.04203 0.66897 0.0
C349 C 0.98113 0.97147 0.91633 0.0
C350 C 0.95227 0.01665 0.92148 0.0
C351 C 0.03543 0.97424 0.91321 0.0
C352 C 0.06318 0.02222 0.91531 0.0
H353 H 0.96151 0.93379 0.91355 0.0
H354 H 0.05588 0.93847 0.90877 0.0
S355 S 1.00612 0.15173 0.93088 0.0
N356 N 0.95568 0.11051 0.93084 0.0
N357 N 0.05751 0.11598 0.92383 0.0
C358 C 0.03491 0.0676 0.92148 0.0
C359 C 0.97955 0.06474 0.92475 0.0
loop_
_geom_bond_atom_site_label_1
_geom_bond_atom_site_label_2
_geom_bond_distance
_geom_bond_site_symmetry_2
_ccdc_geom_bond_type
Cu0 N1 1.999 . S
Cu0 O6 1.974 . S
Cu0 N11 1.985 . S
Cu0 O20 1.959 . S
N1 Cu0 1.999 . S
N1 C3 1.263 . S
N1 C5 1.389 . S
N2 C3 1.358 . S
N2 C4 1.400 . S
C3 N1 1.263 . S
C3 N2 1.358 . S
C3 H9 0.930 . S
C4 N2 1.400 . S
C4 C5 1.351 . S
C4 H21 0.930 . S
C5 N1 1.389 . S
C5 C4 1.351 . S
C5 H10 0.930 . S
O6 Cu0 1.974 . S
O6 C16 1.282 . S
C7 O8 1.261 . S
C7 O20 1.251 . S
O8 C7 1.261 . S
H9 C3 0.930 . S
H10 C5 0.930 . S
N11 Cu0 1.985 . S
N11 C13 1.335 . S
N11 C14 1.390 . S
N12 C13 1.345 . S
N12 C15 1.336 . S
C13 N11 1.335 . S
C13 N12 1.345 . S
C13 H18 0.930 . S
C14 N11 1.390 . S
C14 C15 1.346 . S
C14 H19 0.930 . S
C15 N12 1.336 . S
C15 C14 1.346 . S
C15 H22 0.929 . S
C16 O6 1.282 . S
C16 O17 1.216 . S
O17 C16 1.216 . S
H18 C13 0.930 . S
H19 C14 0.930 . S
O20 Cu0 1.959 . S
O20 C7 1.251 . S
H21 C4 0.930 . S
H22 C15 0.929 . S
Cu23 N24 1.999 . S
Cu23 O29 1.974 . S
Cu23 N34 1.985 . S
Cu23 O43 1.959 . S
N24 Cu23 1.999 . S
N24 C26 1.263 . S
N24 C28 1.389 . S
N25 C26 1.358 . S
N25 C27 1.400 . S
C26 N24 1.263 . S
C26 N25 1.358 . S
C26 H32 0.930 . S
C27 N25 1.400 . S
C27 C28 1.351 . S
C27 H44 0.930 . S
C28 N24 1.389 . S
C28 C27 1.351 . S
C28 H33 0.930 . S
O29 Cu23 1.974 . S
O29 C39 1.282 . S
C30 O31 1.261 . S
C30 O43 1.251 . S
O31 C30 1.261 . S
H32 C26 0.930 . S
H33 C28 0.930 . S
N34 Cu23 1.985 . S
N34 C36 1.335 . S
N34 C37 1.390 . S
N35 C36 1.345 . S
N35 C38 1.336 . S
C36 N34 1.335 . S
C36 N35 1.345 . S
C36 H41 0.930 . S
C37 N34 1.390 . S
C37 C38 1.346 . S
C37 H42 0.930 . S
C38 N35 1.336 . S
C38 C37 1.346 . S
C38 H45 0.929 . S
C39 O29 1.282 . S
C39 O40 1.216 . S
O40 C39 1.216 . S
H41 C36 0.930 . S
H42 C37 0.930 . S
O43 Cu23 1.959 . S
O43 C30 1.251 . S
H44 C27 0.930 . S
H45 C38 0.929 . S
Cu46 N47 1.999 . S
Cu46 O52 1.974 . S
Cu46 N57 1.985 . S
Cu46 O66 1.959 . S
N47 Cu46 1.999 . S
N47 C49 1.263 . S
N47 C51 1.389 . S
N48 C49 1.358 . S
N48 C50 1.400 . S
C49 N47 1.263 . S
C49 N48 1.358 . S
C49 H55 0.930 . S
C50 N48 1.400 . S
C50 C51 1.351 . S
C50 H67 0.930 . S
C51 N47 1.389 . S
C51 C50 1.351 . S
C51 H56 0.930 . S
O52 Cu46 1.974 . S
O52 C62 1.282 . S
C53 O54 1.261 . S
C53 O66 1.251 . S
O54 C53 1.261 . S
H55 C49 0.930 . S
H56 C51 0.930 . S
N57 Cu46 1.985 . S
N57 C59 1.335 . S
N57 C60 1.390 . S
N58 C59 1.345 . S
N58 C61 1.336 . S
C59 N57 1.335 . S
C59 N58 1.345 . S
C59 H64 0.930 . S
C60 N57 1.390 . S
C60 C61 1.346 . S
C60 H65 0.930 . S
C61 N58 1.336 . S
C61 C60 1.346 . S
C61 H68 0.929 . S
C62 O52 1.282 . S
C62 O63 1.216 . S
O63 C62 1.216 . S
H64 C59 0.930 . S
H65 C60 0.930 . S
O66 Cu46 1.959 . S
O66 C53 1.251 . S
H67 C50 0.930 . S
H68 C61 0.929 . S
Cu69 N70 1.999 . S
Cu69 O75 1.974 . S
Cu69 N80 1.985 . S
Cu69 O89 1.959 . S
N70 Cu69 1.999 . S
N70 C72 1.263 . S
N70 C74 1.389 . S
N71 C72 1.358 . S
N71 C73 1.400 . S
C72 N70 1.263 . S
C72 N71 1.358 . S
C72 H78 0.930 . S
C73 N71 1.400 . S
C73 C74 1.351 . S
C73 H90 0.930 . S
C74 N70 1.389 . S
C74 C73 1.351 . S
C74 H79 0.930 . S
O75 Cu69 1.974 . S
O75 C85 1.282 . S
C76 O77 1.261 . S
C76 O89 1.251 . S
O77 C76 1.261 . S
H78 C72 0.930 . S
H79 C74 0.930 . S
N80 Cu69 1.985 . S
N80 C82 1.335 . S
N80 C83 1.390 . S
N81 C82 1.345 . S
N81 C84 1.336 . S
C82 N80 1.335 . S
C82 N81 1.345 . S
C82 H87 0.930 . S
C83 N80 1.390 . S
C83 C84 1.346 . S
C83 H88 0.930 . S
C84 N81 1.336 . S
C84 C83 1.346 . S
C84 H91 0.929 . S
C85 O75 1.282 . S
C85 O86 1.216 . S
O86 C85 1.216 . S
H87 C82 0.930 . S
H88 C83 0.930 . S
O89 Cu69 1.959 . S
O89 C76 1.251 . S
H90 C73 0.930 . S
H91 C84 0.929 . S
Cu92 N93 1.999 . S
Cu92 O98 1.974 . S
Cu92 N103 1.985 . S
Cu92 O112 1.959 . S
N93 Cu92 1.999 . S
N93 C95 1.263 . S
N93 C97 1.389 . S
N94 C95 1.358 . S
N94 C96 1.400 . S
C95 N93 1.263 . S
C95 N94 1.358 . S
C95 H101 0.930 . S
C96 N94 1.400 . S
C96 C97 1.351 . S
C96 H113 0.930 . S
C97 N93 1.389 . S
C97 C96 1.351 . S
C97 H102 0.930 . S
O98 Cu92 1.974 . S
O98 C108 1.282 . S
C99 O100 1.261 . S
C99 O112 1.251 . S
O100 C99 1.261 . S
H101 C95 0.930 . S
H102 C97 0.930 . S
N103 Cu92 1.985 . S
N103 C105 1.335 . S
N103 C106 1.390 . S
N104 C105 1.345 . S
N104 C107 1.336 . S
C105 N103 1.335 . S
C105 N104 1.345 . S
C105 H110 0.930 . S
C106 N103 1.390 . S
C106 C107 1.346 . S
C106 H111 0.930 . S
C107 N104 1.336 . S
C107 C106 1.346 . S
C107 H114 0.929 . S
C108 O98 1.282 . S
C108 O109 1.216 . S
O109 C108 1.216 . S
H110 C105 0.930 . S
H111 C106 0.930 . S
O112 Cu92 1.959 . S
O112 C99 1.251 . S
H113 C96 0.930 . S
H114 C107 0.929 . S
Cu115 N116 1.999 . S
Cu115 O121 1.974 . S
Cu115 N126 1.985 . S
Cu115 O135 1.959 . S
N116 Cu115 1.999 . S
N116 C118 1.263 . S
N116 C120 1.389 . S
N117 C118 1.358 . S
N117 C119 1.400 . S
C118 N116 1.263 . S
C118 N117 1.358 . S
C118 H124 0.930 . S
C119 N117 1.400 . S
C119 C120 1.351 . S
C119 H136 0.930 . S
C120 N116 1.389 . S
C120 C119 1.351 . S
C120 H125 0.930 . S
O121 Cu115 1.974 . S
O121 C131 1.282 . S
C122 O123 1.261 . S
C122 O135 1.251 . S
O123 C122 1.261 . S
H124 C118 0.930 . S
H125 C120 0.930 . S
N126 Cu115 1.985 . S
N126 C128 1.335 . S
N126 C129 1.390 . S
N127 C128 1.345 . S
N127 C130 1.336 . S
C128 N126 1.335 . S
C128 N127 1.345 . S
C128 H133 0.930 . S
C129 N126 1.390 . S
C129 C130 1.346 . S
C129 H134 0.930 . S
C130 N127 1.336 . S
C130 C129 1.346 . S
C130 H137 0.929 . S
C131 O121 1.282 . S
C131 O132 1.216 . S
O132 C131 1.216 . S
H133 C128 0.930 . S
H134 C129 0.930 . S
O135 Cu115 1.959 . S
O135 C122 1.251 . S
H136 C119 0.930 . S
H137 C130 0.929 . S
Cu138 N139 1.999 . S
Cu138 O144 1.974 . S
Cu138 N149 1.985 . S
Cu138 O158 1.959 . S
N139 Cu138 1.999 . S
N139 C141 1.263 . S
N139 C143 1.389 . S
N140 C141 1.358 . S
N140 C142 1.400 . S
C141 N139 1.263 . S
C141 N140 1.358 . S
C141 H147 0.930 . S
C142 N140 1.400 . S
C142 C143 1.351 . S
C142 H159 0.930 . S
C143 N139 1.389 . S
C143 C142 1.351 . S
C143 H148 0.930 . S
O144 Cu138 1.974 . S
O144 C154 1.282 . S
C145 O146 1.261 . S
C145 O158 1.251 . S
O146 C145 1.261 . S
H147 C141 0.930 . S
H148 C143 0.930 . S
N149 Cu138 1.985 . S
N149 C151 1.335 . S
N149 C152 1.390 . S
N150 C151 1.345 . S
N150 C153 1.336 . S
C151 N149 1.335 . S
C151 N150 1.345 . S
C151 H156 0.930 . S
C152 N149 1.390 . S
C152 C153 1.346 . S
C152 H157 0.930 . S
C153 N150 1.336 . S
C153 C152 1.346 . S
C153 H160 0.929 . S
C154 O144 1.282 . S
C154 O155 1.216 . S
O155 C154 1.216 . S
H156 C151 0.930 . S
H157 C152 0.930 . S
O158 Cu138 1.959 . S
O158 C145 1.251 . S
H159 C142 0.930 . S
H160 C153 0.929 . S
Cu161 N162 1.999 . S
Cu161 O167 1.974 . S
Cu161 N172 1.985 . S
Cu161 O181 1.959 . S
N162 Cu161 1.999 . S
N162 C164 1.263 . S
N162 C166 1.389 . S
N163 C164 1.358 . S
N163 C165 1.400 . S
C164 N162 1.263 . S
C164 N163 1.358 . S
C164 H170 0.930 . S
C165 N163 1.400 . S
C165 C166 1.351 . S
C165 H182 0.930 . S
C166 N162 1.389 . S
C166 C165 1.351 . S
C166 H171 0.930 . S
O167 Cu161 1.974 . S
O167 C177 1.282 . S
C168 O169 1.261 . S
C168 O181 1.251 . S
O169 C168 1.261 . S
H170 C164 0.930 . S
H171 C166 0.930 . S
N172 Cu161 1.985 . S
N172 C174 1.335 . S
N172 C175 1.390 . S
N173 C174 1.345 . S
N173 C176 1.336 . S
C174 N172 1.335 . S
C174 N173 1.345 . S
C174 H179 0.930 . S
C175 N172 1.390 . S
C175 C176 1.346 . S
C175 H180 0.930 . S
C176 N173 1.336 . S
C176 C175 1.346 . S
C176 H183 0.929 . S
C177 O167 1.282 . S
C177 O178 1.216 . S
O178 C177 1.216 . S
H179 C174 0.930 . S
H180 C175 0.930 . S
O181 Cu161 1.959 . S
O181 C168 1.251 . S
H182 C165 0.930 . S
H183 C176 0.929 . S
C184 C185 1.369 1_556 S
C184 C186 1.419 . S
C184 H188 0.930 . S
C185 C184 1.369 1_554 S
C185 C194 1.429 . S
C186 C184 1.419 . S
C186 C187 1.363 . S
C186 H189 0.929 . S
C187 C186 1.363 . S
C187 C193 1.428 1_556 S
H188 C184 0.930 . S
H189 C186 0.929 . S
S190 N191 1.613 . S
S190 N192 1.610 . S
N191 S190 1.613 . S
N191 C194 1.350 . S
N192 S190 1.610 . S
N192 C193 1.351 . S
C193 C187 1.428 1_554 S
C193 N192 1.351 . S
C193 C194 1.434 . S
C194 C185 1.429 . S
C194 N191 1.350 . S
C194 C193 1.434 . S
C195 C196 1.369 . S
C195 C197 1.419 . S
C195 H199 0.930 . S
C196 C195 1.369 . S
C196 C205 1.429 . S
C197 C195 1.419 . S
C197 C198 1.363 . S
C197 H200 0.929 . S
C198 C197 1.363 . S
C198 C204 1.428 . S
H199 C195 0.930 . S
H200 C197 0.929 . S
S201 N202 1.613 . S
S201 N203 1.610 . S
N202 S201 1.613 . S
N202 C205 1.350 . S
N203 S201 1.610 . S
N203 C204 1.351 . S
C204 C198 1.428 . S
C204 N203 1.351 . S
C204 C205 1.434 . S
C205 C196 1.429 . S
C205 N202 1.350 . S
C205 C204 1.434 . S
C206 C207 1.369 . S
C206 C208 1.419 . S
C206 H210 0.930 . S
C207 C206 1.369 . S
C207 C216 1.429 . S
C208 C206 1.419 . S
C208 C209 1.363 . S
C208 H211 0.929 . S
C209 C208 1.363 . S
C209 C215 1.428 . S
H210 C206 0.930 . S
H211 C208 0.929 . S
S212 N213 1.613 . S
S212 N214 1.610 . S
N213 S212 1.613 . S
N213 C216 1.350 . S
N214 S212 1.610 . S
N214 C215 1.351 . S
C215 C209 1.428 . S
C215 N214 1.351 . S
C215 C216 1.434 . S
C216 C207 1.429 . S
C216 N213 1.350 . S
C216 C215 1.434 . S
C217 C218 1.369 . S
C217 C219 1.419 . S
C217 H221 0.930 . S
C218 C217 1.369 . S
C218 C227 1.429 . S
C219 C217 1.419 . S
C219 C220 1.363 . S
C219 H222 0.929 . S
C220 C219 1.363 . S
C220 C226 1.428 . S
H221 C217 0.930 . S
H222 C219 0.929 . S
S223 N224 1.613 . S
S223 N225 1.610 . S
N224 S223 1.613 . S
N224 C227 1.350 . S
N225 S223 1.610 . S
N225 C226 1.351 . S
C226 C220 1.428 . S
C226 N225 1.351 . S
C226 C227 1.434 . S
C227 C218 1.429 . S
C227 N224 1.350 . S
C227 C226 1.434 . S
C228 C229 1.369 . S
C228 C230 1.419 . S
C228 H232 0.930 . S
C229 C228 1.369 . S
C229 C238 1.429 . S
C230 C228 1.419 . S
C230 C231 1.363 . S
C230 H233 0.929 . S
C231 C230 1.363 . S
C231 C237 1.428 . S
H232 C228 0.930 . S
H233 C230 0.929 . S
S234 N235 1.613 . S
S234 N236 1.610 . S
N235 S234 1.613 . S
N235 C238 1.350 . S
N236 S234 1.610 . S
N236 C237 1.351 . S
C237 C231 1.428 . S
C237 N236 1.351 . S
C237 C238 1.434 . S
C238 C229 1.429 . S
C238 N235 1.350 . S
C238 C237 1.434 . S
C239 C240 1.369 . S
C239 C241 1.419 . S
C239 H243 0.930 . S
C240 C239 1.369 . S
C240 C249 1.429 . S
C241 C239 1.419 . S
C241 C242 1.363 . S
C241 H244 0.929 . S
C242 C241 1.363 . S
C242 C248 1.428 . S
H243 C239 0.930 . S
H244 C241 0.929 . S
S245 N246 1.613 . S
S245 N247 1.610 . S
N246 S245 1.613 . S
N246 C249 1.350 . S
N247 S245 1.610 . S
N247 C248 1.351 . S
C248 C242 1.428 . S
C248 N247 1.351 . S
C248 C249 1.434 . S
C249 C240 1.429 . S
C249 N246 1.350 . S
C249 C248 1.434 . S
C250 C251 1.369 . S
C250 C252 1.419 . S
C250 H254 0.930 . S
C251 C250 1.369 . S
C251 C260 1.429 . S
C252 C250 1.419 . S
C252 C253 1.363 . S
C252 H255 0.929 . S
C253 C252 1.363 . S
C253 C259 1.428 . S
H254 C250 0.930 . S
H255 C252 0.929 . S
S256 N257 1.613 . S
S256 N258 1.610 . S
N257 S256 1.613 . S
N257 C260 1.350 . S
N258 S256 1.610 . S
N258 C259 1.351 . S
C259 C253 1.428 . S
C259 N258 1.351 . S
C259 C260 1.434 . S
C260 C251 1.429 . S
C260 N257 1.350 . S
C260 C259 1.434 . S
C261 C262 1.369 . S
C261 C263 1.419 1_554 S
C261 H265 0.930 . S
C262 C261 1.369 . S
C262 C271 1.442 . S
C263 C261 1.419 1_556 S
C263 C264 1.363 . S
C263 H266 0.929 . S
C264 C263 1.363 . S
C264 C270 1.428 . S
H265 C261 0.930 . S
H266 C263 0.929 . S
S267 N268 1.613 . S
S267 N269 1.610 . S
N268 S267 1.613 . S
N268 C271 1.348 1_556 S
N269 S267 1.610 . S
N269 C270 1.351 . S
C270 C264 1.428 . S
C270 N269 1.351 . S
C270 C271 1.420 1_556 S
C271 C262 1.442 . S
C271 N268 1.348 1_554 S
C271 C270 1.420 1_554 S
C272 C273 1.369 . S
C272 C274 1.419 1_445 S
C272 H276 0.930 . S
C273 C272 1.369 . S
C273 C282 1.429 . S
C274 C272 1.419 1_665 S
C274 C275 1.363 . S
C274 H277 0.929 . S
C275 C274 1.363 . S
C275 C281 1.439 . S
H276 C272 0.930 . S
H277 C274 0.929 . S
S278 N279 1.613 1_655 S
S278 N280 1.610 . S
N279 S278 1.613 1_455 S
N279 C282 1.350 . S
N280 S278 1.610 . S
N280 C281 1.349 1_545 S
C281 C275 1.439 . S
C281 N280 1.349 1_565 S
C281 C282 1.423 1_665 S
C282 C273 1.429 . S
C282 N279 1.350 . S
C282 C281 1.423 1_445 S
C283 C284 1.369 . S
C283 C285 1.419 . S
C283 H287 0.930 . S
C284 C283 1.369 . S
C284 C293 1.429 1_455 S
C285 C283 1.419 . S
C285 C286 1.363 1_455 S
C285 H288 0.929 . S
C286 C285 1.363 1_655 S
C286 C292 1.428 . S
H287 C283 0.930 . S
H288 C285 0.929 . S
S289 N290 1.613 . S
S289 N291 1.610 . S
N290 S289 1.613 . S
N290 C293 1.350 . S
N291 S289 1.610 . S
N291 C292 1.351 . S
C292 C286 1.428 . S
C292 N291 1.351 . S
C292 C293 1.434 . S
C293 C284 1.429 1_655 S
C293 N290 1.350 . S
C293 C292 1.434 . S
C294 C295 1.369 . S
C294 C296 1.419 . S
C294 H298 0.930 . S
C295 C294 1.369 . S
C295 C304 1.429 . S
C296 C294 1.419 . S
C296 C297 1.363 . S
C296 H299 0.929 . S
C297 C296 1.363 . S
C297 C303 1.428 . S
H298 C294 0.930 . S
H299 C296 0.929 . S
S300 N301 1.613 . S
S300 N302 1.610 . S
N301 S300 1.613 . S
N301 C304 1.350 . S
N302 S300 1.610 . S
N302 C303 1.351 . S
C303 C297 1.428 . S
C303 N302 1.351 . S
C303 C304 1.434 . S
C304 C295 1.429 . S
C304 N301 1.350 . S
C304 C303 1.434 . S
C305 C306 1.369 . S
C305 C307 1.419 1_565 S
C305 H309 0.930 . S
C306 C305 1.369 . S
C306 C315 1.429 . S
C307 C305 1.419 1_545 S
C307 C308 1.363 . S
C307 H310 0.929 . S
C308 C307 1.363 . S
C308 C314 1.428 . S
H309 C305 0.930 . S
H310 C307 0.929 . S
S311 N312 1.613 1_545 S
S311 N313 1.610 . S
N312 S311 1.613 1_565 S
N312 C315 1.350 . S
N313 S311 1.610 . S
N313 C314 1.351 . S
C314 C308 1.428 . S
C314 N313 1.351 . S
C314 C315 1.434 1_545 S
C315 C306 1.429 . S
C315 N312 1.350 . S
C315 C314 1.434 1_565 S
C316 C317 1.369 1_455 S
C316 C318 1.419 . S
C316 H320 0.930 . S
C317 C316 1.369 1_655 S
C317 C326 1.429 . S
C318 C316 1.419 . S
C318 C319 1.363 . S
C318 H321 0.929 . S
C319 C318 1.363 . S
C319 C325 1.428 1_455 S
H320 C316 0.930 . S
H321 C318 0.929 . S
S322 N323 1.613 . S
S322 N324 1.610 . S
N323 S322 1.613 . S
N323 C326 1.350 . S
N324 S322 1.610 . S
N324 C325 1.351 . S
C325 C319 1.428 1_655 S
C325 N324 1.351 . S
C325 C326 1.434 . S
C326 C317 1.429 . S
C326 N323 1.350 . S
C326 C325 1.434 . S
C327 C328 1.369 . S
C327 C329 1.419 . S
C327 H331 0.930 . S
C328 C327 1.369 . S
C328 C337 1.429 . S
C329 C327 1.419 . S
C329 C330 1.363 . S
C329 H332 0.929 . S
C330 C329 1.363 . S
C330 C336 1.428 . S
H331 C327 0.930 . S
H332 C329 0.929 . S
S333 N334 1.613 . S
S333 N335 1.610 . S
N334 S333 1.613 . S
N334 C337 1.350 . S
N335 S333 1.610 . S
N335 C336 1.351 . S
C336 C330 1.428 . S
C336 N335 1.351 . S
C336 C337 1.434 . S
C337 C328 1.429 . S
C337 N334 1.350 . S
C337 C336 1.434 . S
C338 C339 1.369 . S
C338 C340 1.419 . S
C338 H342 0.930 . S
C339 C338 1.369 . S
C339 C348 1.429 1_545 S
C340 C338 1.419 . S
C340 C341 1.363 1_545 S
C340 H343 0.929 . S
C341 C340 1.363 1_565 S
C341 C347 1.428 . S
H342 C338 0.930 . S
H343 C340 0.929 . S
S344 N345 1.613 . S
S344 N346 1.610 . S
N345 S344 1.613 . S
N345 C348 1.350 . S
N346 S344 1.610 . S
N346 C347 1.351 . S
C347 C341 1.428 . S
C347 N346 1.351 . S
C347 C348 1.434 . S
C348 C339 1.429 1_565 S
C348 N345 1.350 . S
C348 C347 1.434 . S
C349 C350 1.369 1_455 S
C349 C351 1.419 . S
C349 H353 0.930 . S
C350 C349 1.369 1_655 S
C350 C359 1.429 1_565 S
C351 C349 1.419 . S
C351 C352 1.363 1_565 S
C351 H354 0.929 . S
C352 C351 1.363 1_545 S
C352 C358 1.428 1_455 S
H353 C349 0.930 . S
H354 C351 0.929 . S
S355 N356 1.613 . S
S355 N357 1.610 . S
N356 S355 1.613 . S
N356 C359 1.350 . S
N357 S355 1.610 . S
N357 C358 1.351 . S
C358 C352 1.428 1_655 S
C358 N357 1.351 . S
C358 C359 1.434 . S
C359 C350 1.429 1_545 S
C359 N356 1.350 . S
C359 C358 1.434 . S
C185 C16 1.822 . S
C187 C131 1.829 . S
C196 C30 1.884 . S
C198 C145 1.881 . S
C207 C62 1.829 . S
C209 C177 1.822 . S
C218 C76 1.884 . S
C220 C99 1.885 . S
C229 C168 1.887 . S
C231 C7 1.882 . S
C240 C108 1.824 . S
C242 C39 1.822 . S
C251 C53 1.887 . S
C253 C122 1.881 . S
C262 C154 1.826 . S
C264 C85 1.822 . S
C273 N2 1.726 . S
C275 N140 1.735 . S
C284 N173 1.926 . S
C286 N35 1.923 . S
C295 N48 1.733 . S
C297 N94 1.726 . S
C306 N81 1.922 . S
C308 N127 1.926 . S
C317 N150 1.927 . S
C319 N12 1.919 . S
C328 N163 1.737 . S
C330 N25 1.725 . S
C339 N58 1.927 . S
C341 N104 1.921 . S
C350 N71 1.725 . S
C352 N117 1.733 . S
