# Generated by pormake.
# Topology atn, (4)-cn, num edge types: 1
# Building blocks:
#     Node 0, Type 0, BuildingBlock: QUQFOY_clean_sbu_3, # of connection points: 4
#     Node 1, Type 0, BuildingBlock: QUQFOY_clean_sbu_3, # of connection points: 4
#     Node 2, Type 0, BuildingBlock: QUQFOY_clean_sbu_3, # of connection points: 4
#     Node 3, Type 0, BuildingBlock: QUQFOY_clean_sbu_3, # of connection points: 4
#     Node 4, Type 0, BuildingBlock: QUQFOY_clean_sbu_3, # of connection points: 4
#     Node 5, Type 0, BuildingBlock: QUQFOY_clean_sbu_3, # of connection points: 4
#     Node 6, Type 0, BuildingBlock: QUQFOY_clean_sbu_3, # of connection points: 4
#     Node 7, Type 0, BuildingBlock: QUQFOY_clean_sbu_3, # of connection points: 4
#     Node 8, Type 0, BuildingBlock: QUQFOY_clean_sbu_3, # of connection points: 4
#     Node 9, Type 0, BuildingBlock: QUQFOY_clean_sbu_3, # of connection points: 4
#     Node 10, Type 0, BuildingBlock: QUQFOY_clean_sbu_3, # of connection points: 4
#     Node 11, Type 0, BuildingBlock: QUQFOY_clean_sbu_3, # of connection points: 4
#     Node 12, Type 0, BuildingBlock: QUQFOY_clean_sbu_3, # of connection points: 4
#     Node 13, Type 0, BuildingBlock: QUQFOY_clean_sbu_3, # of connection points: 4
#     Node 14, Type 0, BuildingBlock: QUQFOY_clean_sbu_3, # of connection points: 4
#     Node 15, Type 0, BuildingBlock: QUQFOY_clean_sbu_3, # of connection points: 4
#     Edge 16, Type (0, 0), BuildingBlock: XIVTED_clean_linker_0, # of connection points: 2
#     Edge 17, Type (0, 0), BuildingBlock: XIVTED_clean_linker_0, # of connection points: 2
#     Edge 18, Type (0, 0), BuildingBlock: XIVTED_clean_linker_0, # of connection points: 2
#     Edge 19, Type (0, 0), BuildingBlock: XIVTED_clean_linker_0, # of connection points: 2
#     Edge 20, Type (0, 0), BuildingBlock: XIVTED_clean_linker_0, # of connection points: 2
#     Edge 21, Type (0, 0), BuildingBlock: XIVTED_clean_linker_0, # of connection points: 2
#     Edge 22, Type (0, 0), BuildingBlock: XIVTED_clean_linker_0, # of connection points: 2
#     Edge 23, Type (0, 0), BuildingBlock: XIVTED_clean_linker_0, # of connection points: 2
#     Edge 24, Type (0, 0), BuildingBlock: XIVTED_clean_linker_0, # of connection points: 2
#     Edge 25, Type (0, 0), BuildingBlock: XIVTED_clean_linker_0, # of connection points: 2
#     Edge 26, Type (0, 0), BuildingBlock: XIVTED_clean_linker_0, # of connection points: 2
#     Edge 27, Type (0, 0), BuildingBlock: XIVTED_clean_linker_0, # of connection points: 2
#     Edge 28, Type (0, 0), BuildingBlock: XIVTED_clean_linker_0, # of connection points: 2
#     Edge 29, Type (0, 0), BuildingBlock: XIVTED_clean_linker_0, # of connection points: 2
#     Edge 30, Type (0, 0), BuildingBlock: XIVTED_clean_linker_0, # of connection points: 2
#     Edge 31, Type (0, 0), BuildingBlock: XIVTED_clean_linker_0, # of connection points: 2
#     Edge 32, Type (0, 0), BuildingBlock: XIVTED_clean_linker_0, # of connection points: 2
#     Edge 33, Type (0, 0), BuildingBlock: XIVTED_clean_linker_0, # of connection points: 2
#     Edge 34, Type (0, 0), BuildingBlock: XIVTED_clean_linker_0, # of connection points: 2
#     Edge 35, Type (0, 0), BuildingBlock: XIVTED_clean_linker_0, # of connection points: 2
#     Edge 36, Type (0, 0), BuildingBlock: XIVTED_clean_linker_0, # of connection points: 2
#     Edge 37, Type (0, 0), BuildingBlock: XIVTED_clean_linker_0, # of connection points: 2
#     Edge 38, Type (0, 0), BuildingBlock: XIVTED_clean_linker_0, # of connection points: 2
#     Edge 39, Type (0, 0), BuildingBlock: XIVTED_clean_linker_0, # of connection points: 2
#     Edge 40, Type (0, 0), BuildingBlock: XIVTED_clean_linker_0, # of connection points: 2
#     Edge 41, Type (0, 0), BuildingBlock: XIVTED_clean_linker_0, # of connection points: 2
#     Edge 42, Type (0, 0), BuildingBlock: XIVTED_clean_linker_0, # of connection points: 2
#     Edge 43, Type (0, 0), BuildingBlock: XIVTED_clean_linker_0, # of connection points: 2
#     Edge 44, Type (0, 0), BuildingBlock: XIVTED_clean_linker_0, # of connection points: 2
#     Edge 45, Type (0, 0), BuildingBlock: XIVTED_clean_linker_0, # of connection points: 2
#     Edge 46, Type (0, 0), BuildingBlock: XIVTED_clean_linker_0, # of connection points: 2
#     Edge 47, Type (0, 0), BuildingBlock: XIVTED_clean_linker_0, # of connection points: 2
# Relax obj value: 0.028
# Max RMSD: 0.057
# Mean RMSD: 0.057
data_MOF--net-atn--node1-QUQFOY_clean_sbu_3--edge1-XIVTED_clean_linker_0
_symmetry_space_group_name_H-M    P1
_symmetry_Int_Tables_number       1
_symmetry_cell_setting            triclinic
loop_
_symmetry_equiv_pos_as_xyz
'x, y, z'
_cell_length_a     62.305843
_cell_length_b     62.165004
_cell_length_c     28.172791
_cell_angle_alpha  90.040583
_cell_angle_beta   90.108835
_cell_angle_gamma 89.884258
loop_
_atom_site_label
_atom_site_type_symbol
_atom_site_fract_x
_atom_site_fract_y
_atom_site_fract_z
_atom_type_partial_charge
C0 C 0.1736 0.35634 0.91361 0.0
O1 O 0.16111 0.34633 0.94151 0.0
Cd2 Cd 0.16421 0.34611 0.02629 0.0
O3 O 0.18903 0.36765 0.92976 0.0
Cd4 Cd 0.20487 0.37863 0.00663 0.0
C5 C 0.21609 0.32669 0.03457 0.0
O6 O 0.17027 0.38293 0.04477 0.0
O7 O 0.19776 0.38805 0.08944 0.0
O8 O 0.21242 0.41175 0.96447 0.0
C9 C 0.17754 0.38771 0.08535 0.0
O10 O 0.19603 0.32412 0.04121 0.0
C11 C 0.2299 0.41557 0.9861 0.0
O12 O 0.22349 0.34458 0.01993 0.0
O13 O 0.23638 0.40156 0.01561 0.0
C14 C 0.63726 0.16995 0.90805 0.0
O15 O 0.65129 0.16438 0.93846 0.0
Cd16 Cd 0.64914 0.17318 0.0211 0.0
O17 O 0.6205 0.18027 0.92056 0.0
Cd18 Cd 0.60342 0.1944 -0.00697 0.0
C19 C 0.64484 0.22816 0.00933 0.0
O20 O 0.61339 0.1642 0.04175 0.0
O21 O 0.6003 0.19112 0.07998 0.0
O22 O 0.57008 0.18241 0.95871 0.0
C23 C 0.60736 0.17198 0.08096 0.0
O24 O 0.65524 0.21201 0.02516 0.0
C25 C 0.55946 0.19921 0.96911 0.0
O26 O 0.62613 0.2261 -0.00821 0.0
O27 O 0.56959 0.21439 -0.01064 0.0
C28 C 0.83686 0.63705 0.89804 0.0
O29 O 0.84373 0.65304 0.92154 0.0
Cd30 Cd 0.82774 0.66523 -0.00711 0.0
O31 O 0.82151 0.62558 0.91379 0.0
Cd32 Cd 0.79977 0.62274 0.98723 0.0
C33 C 0.77398 0.66815 0.96016 0.0
O34 O 0.8265 0.63466 0.043 0.0
O35 O 0.79376 0.63576 0.06808 0.0
O36 O 0.81037 0.58592 -0.00465 0.0
C37 C 0.81363 0.6374 0.07713 0.0
O38 O 0.7916 0.67721 0.97145 0.0
C39 C 0.79164 0.57808 -0.00253 0.0
O40 O 0.77221 0.64774 0.96051 0.0
O41 O 0.776 0.59108 -0.00714 0.0
C42 C 0.34527 0.83357 0.92574 0.0
O43 O 0.33164 0.84193 0.95378 0.0
Cd44 Cd 0.32689 0.83225 0.03492 0.0
O45 O 0.35808 0.81886 0.93994 0.0
Cd46 Cd 0.36664 0.79884 0.01395 0.0
C47 C 0.31598 0.77856 0.01796 0.0
O48 O 0.3633 0.83101 0.06109 0.0
O49 O 0.37054 0.80243 0.10073 0.0
O50 O 0.40247 0.79596 0.97993 0.0
C51 C 0.36727 0.82252 0.10085 0.0
O52 O 0.30922 0.79712 0.03003 0.0
C53 C 0.40648 0.77774 -0.00165 0.0
O54 O 0.33573 0.77536 0.00897 0.0
O55 O 0.39175 0.76911 0.02279 0.0
C56 C 0.16336 0.62435 0.0772 0.0
O57 O 0.15209 0.63607 0.04977 0.0
Cd58 Cd 0.15799 0.64105 0.96672 0.0
O59 O 0.1791 0.61337 0.06129 0.0
Cd60 Cd 0.19742 0.60559 0.98527 0.0
C61 C 0.21039 0.65865 0.97578 0.0
O62 O 0.16427 0.60516 0.94124 0.0
O63 O 0.19266 0.60037 0.89948 0.0
O64 O 0.20384 0.57023 0.019 0.0
C65 C 0.17241 0.60198 0.90082 0.0
O66 O 0.19078 0.66268 0.96625 0.0
C67 C 0.22231 0.56794 0.00061 0.0
O68 O 0.21661 0.63959 0.98515 0.0
O69 O 0.22958 0.58358 0.97659 0.0
C70 C 0.34039 0.13411 0.07964 0.0
O71 O 0.32449 0.12802 0.05487 0.0
Cd72 Cd 0.31428 0.14473 0.98241 0.0
O73 O 0.35263 0.14911 0.06508 0.0
Cd74 Cd 0.3569 0.17172 -0.00658 0.0
C75 C 0.31129 0.19805 0.01756 0.0
O76 O 0.34585 0.1456 0.93499 0.0
O77 O 0.34592 0.17868 0.91161 0.0
O78 O 0.39421 0.16231 -0.01105 0.0
C79 C 0.34418 0.15891 0.90123 0.0
O80 O 0.30195 0.18091 0.00379 0.0
C81 C 0.40133 0.18139 -0.01135 0.0
O82 O 0.33167 0.19905 0.01977 0.0
O83 O 0.38767 0.19649 -0.00748 0.0
C84 C 0.81505 0.33962 0.08079 0.0
O85 O 0.81716 0.32476 0.05018 0.0
Cd86 Cd 0.81072 0.32901 0.96674 0.0
O87 O 0.8078 0.35807 0.06928 0.0
Cd88 Cd 0.79314 0.37512 -0.00266 0.0
C89 C 0.757 0.33559 0.97695 0.0
O90 O 0.82298 0.36432 0.94827 0.0
O91 O 0.79692 0.37941 0.91085 0.0
O92 O 0.80434 0.40914 0.03121 0.0
C93 C 0.8157 0.37157 0.90958 0.0
O94 O 0.77209 0.32489 0.95771 0.0
C95 C 0.78705 0.41905 0.02136 0.0
O96 O 0.76068 0.35329 -0.00193 0.0
O97 O 0.77227 0.40827 0.00147 0.0
C98 C 0.62692 0.81388 0.08133 0.0
O99 O 0.63756 0.82555 0.0528 0.0
Cd100 Cd 0.63682 0.82304 0.96789 0.0
O101 O 0.61391 0.79967 0.06589 0.0
Cd102 Cd 0.60029 0.7858 -0.01098 0.0
C103 C 0.65017 0.76914 0.9581 0.0
O104 O 0.59986 0.8204 0.94915 0.0
O105 O 0.59216 0.7931 0.90568 0.0
O106 O 0.56594 0.78279 0.02874 0.0
C107 C 0.59478 0.81324 0.90863 0.0
O108 O 0.65463 0.7889 0.95135 0.0
C109 C 0.56074 0.7652 0.0089 0.0
O110 O 0.63194 0.76349 0.97426 0.0
O111 O 0.57456 0.75649 0.98191 0.0
C112 C 0.65437 0.83105 0.43017 0.0
O113 O 0.64703 0.81721 0.459 0.0
Cd114 Cd 0.65323 0.81883 0.54305 0.0
O115 O 0.66521 0.84703 0.4452 0.0
Cd116 Cd 0.67782 0.86269 0.52087 0.0
C117 C 0.70865 0.8195 0.54477 0.0
O118 O 0.64552 0.85496 0.56575 0.0
O119 O 0.67252 0.86655 0.60636 0.0
O120 O 0.66727 0.89711 0.48924 0.0
C121 C 0.65291 0.86118 0.60534 0.0
O122 O 0.69106 0.81008 0.55451 0.0
C123 C 0.68474 0.90664 0.49879 0.0
O124 O 0.70873 0.83859 0.52845 0.0
O125 O 0.69966 0.89538 0.51703 0.0
C126 C 0.14791 0.64876 0.425 0.0
O127 O 0.16096 0.63981 0.45357 0.0
Cd128 Cd 0.16315 0.64921 0.53571 0.0
O129 O 0.13481 0.66313 0.43937 0.0
Cd130 Cd 0.12292 0.68233 0.51154 0.0
C131 C 0.17274 0.70374 0.52215 0.0
O132 O 0.12621 0.65018 0.55758 0.0
O133 O 0.11694 0.67813 0.59761 0.0
O134 O 0.08892 0.67992 0.47132 0.0
C135 C 0.12104 0.65815 0.59719 0.0
O136 O 0.17941 0.68502 0.53336 0.0
C137 C 0.08188 0.69811 0.48463 0.0
O138 O 0.15313 0.70703 0.51156 0.0
O139 O 0.09426 0.70955 0.51007 0.0
C140 C 0.31755 0.11604 0.41655 0.0
O141 O 0.32711 0.12885 0.44453 0.0
Cd142 Cd 0.3112 0.14032 0.51685 0.0
O143 O 0.29938 0.10808 0.42752 0.0
Cd144 Cd 0.27293 0.10703 0.49308 0.0
C145 C 0.26189 0.15885 0.47419 0.0
O146 O 0.29991 0.10809 0.55494 0.0
O147 O 0.26743 0.11474 0.5768 0.0
O148 O 0.27096 0.06987 0.46824 0.0
C149 C 0.28686 0.1118 0.58835 0.0
O150 O 0.2804 0.16228 0.49204 0.0
C151 C 0.25197 0.06672 0.48258 0.0
O152 O 0.25502 0.13977 0.46789 0.0
O153 O 0.24211 0.08263 0.50055 0.0
C154 C 0.84066 0.31268 0.42453 0.0
O155 O 0.82476 0.31365 0.4526 0.0
Cd156 Cd 0.82659 0.30725 0.53649 0.0
O157 O 0.8591 0.30675 0.43904 0.0
Cd158 Cd 0.87421 0.29295 0.51386 0.0
C159 C 0.8367 0.25407 0.52571 0.0
O160 O 0.85998 0.3218 0.56206 0.0
O161 O 0.8748 0.29578 0.6007 0.0
O162 O 0.90821 0.30829 0.49117 0.0
C163 C 0.86653 0.31444 0.60133 0.0
O164 O 0.82465 0.26837 0.54401 0.0
C165 C 0.91918 0.29143 0.49901 0.0
O166 O 0.85471 0.25896 0.50749 0.0
O167 O 0.90903 0.27476 0.51206 0.0
C168 C 0.66589 0.14533 0.56323 0.0
O169 O 0.66251 0.16062 0.53425 0.0
Cd170 Cd 0.67178 0.1595 0.45189 0.0
O171 O 0.67444 0.12778 0.54941 0.0
Cd172 Cd 0.68786 0.11202 0.47477 0.0
C173 C 0.72564 0.15043 0.4646 0.0
O174 O 0.65883 0.12542 0.42637 0.0
O175 O 0.68505 0.1114 0.38742 0.0
O176 O 0.67336 0.0776 0.49845 0.0
C177 C 0.66629 0.11935 0.38691 0.0
O178 O 0.71087 0.16271 0.44888 0.0
C179 C 0.69049 0.06706 0.49084 0.0
O180 O 0.72142 0.1317 0.47999 0.0
O181 O 0.70677 0.07764 0.4773 0.0
C182 C 0.86209 0.65674 0.5623 0.0
O183 O 0.84777 0.64969 0.53431 0.0
Cd184 Cd 0.83833 0.6685 0.46414 0.0
O185 O 0.87321 0.67321 0.55135 0.0
Cd186 Cd 0.87907 0.69825 0.48393 0.0
C187 C 0.83192 0.72051 0.50926 0.0
O188 O 0.87058 0.67361 0.42121 0.0
O189 O 0.86905 0.70726 0.40226 0.0
O190 O 0.91574 0.68756 0.48149 0.0
C191 C 0.86856 0.68773 0.38923 0.0
O192 O 0.8245 0.70282 0.49337 0.0
C193 C 0.92389 0.70614 0.48467 0.0
O194 O 0.85206 0.72389 0.51146 0.0
O195 O 0.91103 0.72188 0.49003 0.0
C196 C 0.32815 0.85815 0.57936 0.0
O197 O 0.33835 0.8461 0.55069 0.0
Cd198 Cd 0.3301 0.84106 0.46863 0.0
O199 O 0.31219 0.86942 0.56539 0.0
Cd200 Cd 0.29186 0.87719 0.4915 0.0
C201 C 0.27773 0.82437 0.48361 0.0
O202 O 0.32386 0.87707 0.44387 0.0
O203 O 0.29466 0.88218 0.40501 0.0
O204 O 0.2857 0.91279 0.52506 0.0
C205 C 0.31488 0.88026 0.40427 0.0
O206 O 0.29698 0.81993 0.4719 0.0
C207 C 0.26683 0.91462 0.5083 0.0
O208 O 0.27215 0.84355 0.49365 0.0
O209 O 0.25938 0.89871 0.48538 0.0
C210 C 0.15217 0.33983 0.56281 0.0
O211 O 0.16532 0.34859 0.53439 0.0
Cd212 Cd 0.16423 0.34321 0.45004 0.0
O213 O 0.13693 0.32814 0.54722 0.0
Cd214 Cd 0.12153 0.31542 0.47156 0.0
C215 C 0.16714 0.28779 0.44795 0.0
O216 O 0.1276 0.34837 0.42775 0.0
O217 O 0.11637 0.32126 0.38684 0.0
O218 O 0.08692 0.3231 0.5053 0.0
C219 C 0.12148 0.34098 0.38805 0.0
O220 O 0.17579 0.30595 0.43962 0.0
C221 C 0.07857 0.30508 0.49508 0.0
O222 O 0.14777 0.28658 0.46207 0.0
O223 O 0.09061 0.29122 0.47526 0.0
H224 H 0.2498 0.55139 0.93477 0.0
H225 H 0.23039 0.44288 0.91043 0.0
H226 H 0.21941 0.53681 0.06838 0.0
H227 H 0.25072 0.43712 0.05629 0.0
H228 H 0.23798 0.48147 0.9137 0.0
H229 H 0.2611 0.51364 0.92831 0.0
C230 C 0.24606 0.54039 0.96337 0.0
C231 C 0.23336 0.54702 0.00181 0.0
C232 C 0.24156 0.47161 0.94441 0.0
C233 C 0.24623 0.50424 -0.00534 0.0
C234 C 0.23714 0.44965 0.9426 0.0
C235 C 0.23986 0.43694 0.98321 0.0
C236 C 0.24807 0.48089 0.98754 0.0
C237 C 0.24847 0.44644 0.0242 0.0
C238 C 0.25239 0.51892 0.95946 0.0
C239 C 0.2289 0.53219 0.03786 0.0
N240 N 0.25159 0.46804 0.02586 0.0
N241 N 0.23521 0.51138 0.03325 0.0
H242 H 0.43172 0.15261 0.96176 0.0
H243 H 0.53112 0.23046 -0.00192 0.0
H244 H 0.42334 0.21946 -0.00077 0.0
H245 H 0.53439 0.16929 0.9257 0.0
H246 H 0.49185 0.22787 -0.00206 0.0
H247 H 0.4697 0.15903 0.94942 0.0
C248 C 0.43791 0.16868 0.96753 0.0
C249 C 0.4244 0.18551 0.98186 0.0
C250 C 0.5012 0.2152 0.98151 0.0
C251 C 0.46804 0.19302 0.96761 0.0
C252 C 0.52358 0.21668 0.98147 0.0
C253 C 0.53601 0.19991 0.96243 0.0
C254 C 0.49135 0.19677 0.96271 0.0
C255 C 0.52546 0.18247 0.94128 0.0
C256 C 0.45961 0.17237 0.96012 0.0
C257 C 0.43328 0.20604 0.98833 0.0
N258 N 0.50376 0.18124 0.9425 0.0
N259 N 0.45466 0.20921 0.98152 0.0
H260 H 0.81579 0.44576 0.06427 0.0
H261 H 0.75477 0.55394 -0.01077 0.0
H262 H 0.75398 0.44562 -0.00529 0.0
H263 H 0.8218 0.54969 0.02738 0.0
H264 H 0.75132 0.51508 0.00367 0.0
H265 H 0.8149 0.48491 0.06563 0.0
C266 C 0.8019 0.45397 0.04976 0.0
C267 C 0.78509 0.44245 0.0287 0.0
C268 C 0.76671 0.52277 0.00904 0.0
C269 C 0.78406 0.4873 0.02963 0.0
C270 C 0.76869 0.54486 0.00077 0.0
C271 C 0.78865 0.55494 0.00658 0.0
C272 C 0.78477 0.5109 0.02372 0.0
C273 C 0.80616 0.54253 0.02186 0.0
C274 C 0.80143 0.47634 0.05039 0.0
C275 C 0.76738 0.45393 0.01089 0.0
N276 N 0.80381 0.5212 0.02982 0.0
N277 N 0.76742 0.47579 0.01126 0.0
H278 H 0.53925 0.74259 0.94108 0.0
H279 H 0.43515 0.78062 0.92568 0.0
H280 H 0.53146 0.77114 0.07966 0.0
H281 H 0.4268 0.75383 0.0656 0.0
H282 H 0.47286 0.76923 0.92738 0.0
H283 H 0.50015 0.73865 0.93527 0.0
C284 C 0.52937 0.74737 0.97091 0.0
C285 C 0.53846 0.75749 0.01067 0.0
C286 C 0.46257 0.76533 0.9571 0.0
C287 C 0.49414 0.753 0.00415 0.0
C288 C 0.44119 0.77196 0.95629 0.0
C289 C 0.42801 0.76814 -0.00444 0.0
C290 C 0.47085 0.75545 -0.00196 0.0
C291 C 0.43652 0.75694 0.03455 0.0
C292 C 0.50714 0.74527 0.96733 0.0
C293 C 0.52498 0.7635 0.0482 0.0
N294 N 0.45765 0.75151 0.03541 0.0
N295 N 0.50339 0.76131 0.0439 0.0
H296 H 0.7254 0.04017 0.48701 0.0
H297 H 0.6534 0.93473 0.47241 0.0
H298 H 0.65642 0.04018 0.50151 0.0
H299 H 0.72032 0.93197 0.51226 0.0
H300 H 0.6555 0.97382 0.47072 0.0
H301 H 0.72496 0.00069 0.4866 0.0
C302 C 0.71021 0.03187 0.4904 0.0
C303 C 0.69091 0.04342 0.49429 0.0
C304 C 0.66975 0.96467 0.4797 0.0
C305 C 0.69031 -0.00144 0.49299 0.0
C306 C 0.66862 0.94234 0.48035 0.0
C307 C 0.6867 0.9301 0.49275 0.0
C308 C 0.68914 0.97487 0.49112 0.0
C309 C 0.70599 0.94084 0.50269 0.0
C310 C 0.70999 0.00941 0.49013 0.0
C311 C 0.67167 0.03193 0.49855 0.0
N312 N 0.70671 0.9627 0.50172 0.0
N313 N 0.67185 0.01013 0.49742 0.0
H314 H 0.94947 0.74004 0.51346 0.0
H315 H 0.05506 0.68048 0.41939 0.0
H316 H 0.9513 0.67837 0.44303 0.0
H317 H 0.05785 0.72992 0.52687 0.0
H318 H 0.01658 0.68629 0.41232 0.0
H319 H 0.98885 0.7423 0.50563 0.0
C320 C 0.95812 0.72711 0.49615 0.0
C321 C 0.94724 0.70886 0.47946 0.0
C322 C 0.0256 0.69605 0.43717 0.0
C323 C -0.00828 0.71153 0.46958 0.0
C324 C 0.04759 0.69278 0.44111 0.0
C325 C 0.05955 0.70446 0.4744 0.0
C326 C 0.0154 0.71097 0.46704 0.0
C327 C 0.04911 0.72044 0.50108 0.0
C328 C 0.98049 0.72841 0.49169 0.0
C329 C 0.95908 0.69258 0.45709 0.0
N330 N 0.02746 0.72303 0.49739 0.0
N331 N 0.98062 0.69431 0.45286 0.0
H332 H 0.23299 0.04725 0.55767 0.0
H333 H 0.239 0.93053 0.44262 0.0
H334 H 0.25292 0.03639 0.41318 0.0
H335 H 0.26918 0.94583 0.57638 0.0
H336 H 0.22651 0.9679 0.43661 0.0
H337 H 0.22855 0.0082 0.56781 0.0
C338 C 0.23554 0.0367 0.52757 0.0
C339 C 0.24339 0.04482 0.48459 0.0
C340 C 0.2353 0.9628 0.46787 0.0
C341 C 0.23809 0.00072 0.49571 0.0
C342 C 0.24238 0.94157 0.47145 0.0
C343 C 0.25535 0.93529 0.5098 0.0
C344 C 0.24076 0.97753 0.50351 0.0
C345 C 0.25942 0.9502 0.54602 0.0
C346 C 0.23314 0.01454 0.53349 0.0
C347 C 0.24689 0.03059 0.44684 0.0
N348 N 0.25226 0.97076 0.54186 0.0
N349 N 0.24433 0.00912 0.45334 0.0
H350 H 0.04902 0.33368 0.52771 0.0
H351 H 0.9473 0.25735 0.50239 0.0
H352 H 0.05538 0.26836 0.47723 0.0
H353 H 0.94475 0.3266 0.49161 0.0
H354 H 0.9867 0.25933 0.50485 0.0
H355 H 0.01023 0.32929 0.52943 0.0
C356 C 0.04227 0.31831 0.51747 0.0
C357 C 0.05542 0.30141 0.50189 0.0
C358 C 0.97741 0.27401 0.50172 0.0
C359 C 0.01099 0.29637 0.50353 0.0
C360 C 0.95502 0.27292 0.50025 0.0
C361 C 0.94279 0.29185 0.49673 0.0
C362 C 0.98746 0.29419 0.50055 0.0
C363 C 0.95354 0.3116 0.49416 0.0
C364 C 0.02012 0.31588 0.51816 0.0
C365 C 0.04577 0.28183 0.48921 0.0
N366 N 0.97524 0.31226 0.49651 0.0
N367 N 0.02403 0.27983 0.49016 0.0
H368 H 0.20552 0.28547 0.05897 0.0
H369 H 0.32481 0.23969 0.02965 0.0
H370 H 0.25997 0.32553 0.02526 0.0
H371 H 0.26792 0.20013 0.03107 0.0
H372 H 0.30225 0.27152 0.04157 0.0
H373 H 0.2293 0.25436 0.06271 0.0
C374 C 0.2225 0.28779 0.05271 0.0
C375 C 0.23071 0.30814 0.04123 0.0
C376 C 0.29476 0.25584 0.03958 0.0
C377 C 0.25803 0.27248 0.04541 0.0
C378 C 0.30761 0.23766 0.03294 0.0
C379 C 0.29821 0.21723 0.0289 0.0
C380 C 0.27239 0.25352 0.04257 0.0
C381 C 0.27585 0.21557 0.03348 0.0
C382 C 0.23607 0.26997 0.05476 0.0
C383 C 0.2529 0.31012 0.0338 0.0
N384 N 0.26371 0.23348 0.03989 0.0
N385 N 0.26579 0.29247 0.03574 0.0
H386 H 0.72934 0.33656 0.05148 0.0
H387 H 0.64402 0.25695 0.93667 0.0
H388 H 0.7365 0.31202 0.9091 0.0
H389 H 0.67084 0.24626 0.07595 0.0
H390 H 0.6675 0.28844 0.92754 0.0
H391 H 0.69698 0.31444 0.06087 0.0
C392 C 0.72372 0.32701 0.02178 0.0
C393 C 0.73557 0.32588 0.97958 0.0
C394 C 0.66777 0.27943 0.96044 0.0
C395 C 0.69872 0.30114 -0.01016 0.0
C396 C 0.65441 0.26162 0.96578 0.0
C397 C 0.65573 0.24905 0.00699 0.0
C398 C 0.68197 0.2849 -0.00287 0.0
C399 C 0.66955 0.25553 0.04354 0.0
C400 C 0.70541 0.3144 0.02728 0.0
C401 C 0.72783 0.31312 0.94229 0.0
N402 N 0.68223 0.27307 0.03775 0.0
N403 N 0.70984 0.30114 0.94831 0.0
H404 H 0.77387 0.7104 0.93476 0.0
H405 H 0.6482 0.72539 0.97244 0.0
H406 H 0.73133 0.65705 0.96143 0.0
H407 H 0.6906 0.77562 0.92376 0.0
H408 H 0.67761 0.69948 0.96425 0.0
H409 H 0.74287 0.73393 0.92592 0.0
C410 C 0.75796 0.70359 0.93838 0.0
C411 C 0.75518 0.68178 0.94931 0.0
C412 C 0.68036 0.71614 0.95492 0.0
C413 C 0.71951 0.70873 0.93971 0.0
C414 C 0.6636 0.73095 0.95965 0.0
C415 C 0.66699 0.75279 0.94935 0.0
C416 C 0.70065 0.72327 0.94006 0.0
C417 C 0.68725 0.75903 0.93263 0.0
C418 C 0.74024 0.71704 0.93324 0.0
C419 C 0.73419 0.6738 0.95311 0.0
N420 N 0.70332 0.74439 0.92894 0.0
N421 N 0.71712 0.68735 0.94894 0.0
H422 H 0.20214 0.70193 0.97225 0.0
H423 H 0.32498 0.73596 0.00338 0.0
H424 H 0.25403 0.65619 0.98652 0.0
H425 H 0.27201 0.78031 0.01924 0.0
H426 H 0.2994 0.7068 -0.00895 0.0
H427 H 0.22783 0.7312 0.98224 0.0
C428 C 0.21894 0.69802 0.97716 0.0
C429 C 0.22592 0.67655 0.97868 0.0
C430 C 0.29338 0.7229 -0.00264 0.0
C431 C 0.25538 0.71 -0.00969 0.0
C432 C 0.30797 0.73958 0.0044 0.0
C433 C 0.30063 0.76063 0.01242 0.0
C434 C 0.27128 0.72731 -0.00205 0.0
C435 C 0.2784 0.76433 0.01337 0.0
C436 C 0.23358 0.71475 0.98311 0.0
C437 C 0.2479 0.67249 0.98527 0.0
N438 N 0.26451 0.74783 0.00603 0.0
N439 N 0.26184 0.68906 -0.00914 0.0
H440 H 0.83574 0.76456 0.50425 0.0
H441 H 0.7148 0.78167 0.59156 0.0
H442 H 0.79299 0.714 0.54891 0.0
H443 H 0.74879 0.82964 0.51048 0.0
H444 H 0.74698 0.75951 0.59252 0.0
H445 H 0.80739 0.79111 0.52163 0.0
C446 C 0.82054 0.75912 0.51845 0.0
C447 C 0.81653 0.7371 0.52474 0.0
C448 C 0.74749 0.77495 0.57476 0.0
C449 C 0.78439 0.76711 0.54486 0.0
C450 C 0.72909 0.78763 0.57418 0.0
C451 C 0.72896 0.80738 0.55015 0.0
C452 C 0.76596 0.78191 0.5509 0.0
C453 C 0.74813 0.81441 0.52903 0.0
C454 C 0.8044 0.77421 0.52811 0.0
C455 C 0.79661 0.73081 0.54299 0.0
N456 N 0.76584 0.80154 0.52937 0.0
N457 N 0.7813 0.74572 0.55226 0.0
H458 H 0.23427 0.82794 0.49609 0.0
H459 H 0.21655 0.70158 0.5278 0.0
H460 H 0.28495 0.78092 0.48123 0.0
H461 H 0.16439 0.74663 0.50851 0.0
H462 H 0.24202 0.73099 0.51795 0.0
H463 H 0.20854 0.79874 0.50668 0.0
C464 C 0.23999 0.81148 0.4949 0.0
C465 C 0.26182 0.80688 0.48775 0.0
C466 C 0.225 0.73443 0.5159 0.0
C467 C 0.23247 0.77342 0.50027 0.0
C468 C 0.21043 0.71767 0.52178 0.0
C469 C 0.18827 0.72163 0.51889 0.0
C470 C 0.2174 0.75535 0.50743 0.0
C471 C 0.18131 0.74282 0.51087 0.0
C472 C 0.22528 0.79483 0.50092 0.0
C473 C 0.26828 0.78524 0.48649 0.0
N474 N 0.19584 0.75889 0.50546 0.0
N475 N 0.25369 0.76932 0.49293 0.0
H476 H 0.27377 0.20083 0.46435 0.0
H477 H 0.15425 0.24576 0.45746 0.0
H478 H 0.21847 0.15917 0.45761 0.0
H479 H 0.21008 0.28477 0.4293 0.0
H480 H 0.17712 0.21372 0.45702 0.0
H481 H 0.25042 0.23174 0.45109 0.0
C482 C 0.25671 0.19817 0.45982 0.0
C483 C 0.24804 0.1774 0.46242 0.0
C484 C 0.18429 0.22928 0.45049 0.0
C485 C 0.22116 0.21279 0.44754 0.0
C486 C 0.17126 0.24759 0.45083 0.0
C487 C 0.18028 0.26803 0.44382 0.0
C488 C 0.2065 0.23148 0.44357 0.0
C489 C 0.20241 0.26939 0.43514 0.0
C490 C 0.24339 0.21583 0.45209 0.0
C491 C 0.22583 0.17491 0.45591 0.0
N492 N 0.21477 0.2514 0.43572 0.0
N493 N 0.2131 0.19245 0.44927 0.0
H494 H 0.83905 0.22912 0.44664 0.0
H495 H 0.75347 0.14374 0.53771 0.0
H496 H 0.81336 0.23057 0.58864 0.0
H497 H 0.74688 0.17726 0.40445 0.0
H498 H 0.7867 0.1638 0.55335 0.0
H499 H 0.81641 0.19776 0.42906 0.0
C500 C 0.82925 0.22232 0.47459 0.0
C501 C 0.82784 0.2324 0.51902 0.0
C502 C 0.77821 0.16625 0.52019 0.0
C503 C 0.80242 0.19674 0.49939 0.0
C504 C 0.75937 0.15484 0.51116 0.0
C505 C 0.74743 0.15911 0.46996 0.0
C506 C 0.78531 0.18148 0.48714 0.0
C507 C 0.75559 0.17375 0.43683 0.0
C508 C 0.81632 0.20461 0.46443 0.0
C509 C 0.81471 0.22325 0.55388 0.0
N510 N 0.77406 0.18452 0.44622 0.0
N511 N 0.80235 0.20594 0.54325 0.0
H512 H 0.14152 0.37966 0.37653 0.0
H513 H 0.1369 0.37169 0.09425 0.0
H514 H 0.10654 0.33086 0.29962 0.0
H515 H 0.1871 0.40367 0.17281 0.0
H516 H 0.11759 0.36567 0.16869 0.0
H517 H 0.15 0.39725 0.30129 0.0
C518 C 0.13532 0.37286 0.34391 0.0
C519 C 0.12373 0.35355 0.3441 0.0
C520 C 0.13263 0.37437 0.16941 0.0
C521 C 0.13327 0.37357 0.25828 0.0
C522 C 0.1436 0.37788 0.12702 0.0
C523 C 0.1638 0.3878 0.12772 0.0
C524 C 0.14188 0.38102 0.21244 0.0
C525 C 0.17174 0.3956 0.171 0.0
C526 C 0.14017 0.38289 0.30104 0.0
C527 C 0.1159 0.34555 0.30087 0.0
N528 N 0.16086 0.39182 0.21179 0.0
N529 N 0.12103 0.35547 0.25954 0.0
H530 H 0.6295 0.14266 0.37598 0.0
H531 H 0.63042 0.13505 0.09318 0.0
H532 H 0.67712 0.1072 0.29669 0.0
H533 H 0.59642 0.1843 0.17099 0.0
H534 H 0.64241 0.11948 0.16823 0.0
H535 H 0.61219 0.15286 0.30152 0.0
C536 C 0.63624 0.13688 0.34288 0.0
C537 C 0.65493 0.12425 0.34236 0.0
C538 C 0.6322 0.13359 0.16883 0.0
C539 C 0.63514 0.13582 0.2573 0.0
C540 C 0.62528 0.14245 0.12608 0.0
C541 C 0.61261 0.16115 0.12596 0.0
C542 C 0.62627 0.1434 0.21169 0.0
C543 C 0.60634 0.17 0.16956 0.0
C544 C 0.62635 0.14275 0.30047 0.0
C545 C 0.66288 0.11712 0.29858 0.0
N546 N 0.61335 0.1611 0.21078 0.0
N547 N 0.65297 0.12309 0.25767 0.0
H548 H 0.87931 0.65107 0.34314 0.0
H549 H 0.79236 0.66202 0.14222 0.0
H550 H 0.84302 0.70983 0.32724 0.0
H551 H 0.85279 0.63014 0.11591 0.0
H552 H 0.80684 0.6757 0.21758 0.0
H553 H 0.86614 0.63908 0.26557 0.0
C554 C 0.86868 0.66147 0.32304 0.0
C555 C 0.86222 0.68145 0.34116 0.0
C556 C 0.81685 0.66573 0.19509 0.0
C557 C 0.84684 0.6677 0.25375 0.0
C558 C 0.80859 0.65781 0.15254 0.0
C559 C 0.82148 0.64499 0.12318 0.0
C560 C 0.83785 0.66027 0.2085 0.0
C561 C 0.84243 0.64006 0.13769 0.0
C562 C 0.86123 0.65466 0.27901 0.0
C563 C 0.84844 0.69439 0.31408 0.0
N564 N 0.84995 0.64757 0.1797 0.0
N565 N 0.84091 0.68715 0.27175 0.0
H566 H 0.302 0.89183 0.31536 0.0
H567 H 0.37975 0.81069 0.19003 0.0
H568 H 0.35375 0.86084 0.39119 0.0
H569 H 0.34794 0.86155 0.11274 0.0
H570 H 0.37086 0.82895 0.26443 0.0
H571 H 0.31883 0.88145 0.2404 0.0
C572 C 0.31706 0.8831 0.31615 0.0
C573 C 0.3264 0.87695 0.35935 0.0
C574 C 0.36614 0.83627 0.23113 0.0
C575 C 0.3455 0.86478 0.27414 0.0
C576 C 0.37111 0.82582 0.18876 0.0
C577 C 0.36434 0.83453 0.14537 0.0
C578 C 0.35396 0.8553 0.22995 0.0
C579 C 0.35335 0.85424 0.14554 0.0
C580 C 0.32669 0.87724 0.27345 0.0
C581 C 0.34599 0.86578 0.35856 0.0
N582 N 0.34817 0.86381 0.18729 0.0
N583 N 0.35472 0.85969 0.31653 0.0
H584 H 0.13881 0.61835 0.60791 0.0
H585 H 0.13343 0.62167 0.89069 0.0
H586 H 0.10851 0.66965 0.68671 0.0
H587 H 0.18312 0.58919 0.81154 0.0
H588 H 0.116 0.63157 0.81577 0.0
H589 H 0.14674 0.59998 0.68257 0.0
C590 C 0.13355 0.62559 0.64088 0.0
C591 C 0.12333 0.64572 0.64133 0.0
C592 C 0.13053 0.62198 0.81499 0.0
C593 C 0.13224 0.62476 0.72645 0.0
C594 C 0.14042 0.61626 0.85758 0.0
C595 C 0.1599 0.6049 0.85704 0.0
C596 C 0.14007 0.61601 0.77188 0.0
C597 C 0.16828 0.59824 0.81332 0.0
C598 C 0.13811 0.61511 0.68338 0.0
C599 C 0.11672 0.6543 0.68497 0.0
N600 N 0.15838 0.60403 0.77235 0.0
N601 N 0.12145 0.64383 0.72597 0.0
H602 H 0.26757 0.13794 0.65309 0.0
H603 H 0.35085 0.11993 0.86008 0.0
H604 H 0.32397 0.09879 0.63093 0.0
H605 H 0.321 0.18171 0.83634 0.0
H606 H 0.33687 0.10759 0.78326 0.0
H607 H 0.28232 0.14962 0.72945 0.0
C608 C 0.28293 0.13161 0.66461 0.0
C609 C 0.29465 0.11742 0.6359 0.0
C610 C 0.33353 0.12386 0.79494 0.0
C611 C 0.31138 0.13057 0.72266 0.0
C612 C 0.34141 0.13087 0.83856 0.0
C613 C 0.33703 0.15183 0.8542 0.0
C614 C 0.32077 0.13776 0.76774 0.0
C615 C 0.32479 0.16547 0.82523 0.0
C616 C 0.29137 0.13842 0.70782 0.0
C617 C 0.31454 0.10981 0.65216 0.0
N618 N 0.31682 0.15809 0.78346 0.0
N619 N 0.32228 0.1164 0.69481 0.0
H620 H 0.85245 0.34846 0.89606 0.0
H621 H 0.84319 0.3512 0.61343 0.0
H622 H 0.80364 0.38399 0.82028 0.0
H623 H 0.87978 0.30368 0.69085 0.0
H624 H 0.83369 0.36844 0.68843 0.0
H625 H 0.86785 0.33726 0.82033 0.0
C626 C 0.84511 0.35411 0.86346 0.0
C627 C 0.82656 0.36694 0.86434 0.0
C628 C 0.84391 0.35432 0.68894 0.0
C629 C 0.84407 0.35415 0.77781 0.0
C630 C 0.84936 0.34448 0.6462 0.0
C631 C 0.86208 0.32583 0.64606 0.0
C632 C 0.85134 0.3455 0.73176 0.0
C633 C 0.86975 0.3179 0.68947 0.0
C634 C 0.85387 0.34765 0.82031 0.0
C635 C 0.8178 0.37391 0.82112 0.0
N636 N 0.86416 0.32774 0.73068 0.0
N637 N 0.82655 0.36728 0.7795 0.0
H638 H 0.6166 0.85112 0.89851 0.0
H639 H 0.6131 0.84353 0.61575 0.0
H640 H 0.57954 0.80441 0.82022 0.0
H641 H 0.66365 0.87494 0.69449 0.0
H642 H 0.59407 0.83707 0.69011 0.0
H643 H 0.62695 0.86797 0.82341 0.0
C644 C 0.61024 0.84472 0.86559 0.0
C645 C 0.59751 0.82614 0.86532 0.0
C646 C 0.6092 0.8456 0.69099 0.0
C647 C 0.60927 0.84522 0.77981 0.0
C648 C 0.62007 0.8493 0.64863 0.0
C649 C 0.64016 0.85943 0.64915 0.0
C650 C 0.61845 0.85217 0.73407 0.0
C651 C 0.64835 0.86676 0.69265 0.0
C652 C 0.61625 0.85426 0.82283 0.0
C653 C 0.58967 0.81852 0.8218 0.0
N654 N 0.63754 0.8628 0.73352 0.0
N655 N 0.59587 0.82797 0.78068 0.0
H656 H 0.89129 0.66689 0.63148 0.0
H657 H 0.82159 0.6096 0.82965 0.0
H658 H 0.83796 0.62465 0.60176 0.0
H659 H 0.87235 0.65509 0.85786 0.0
H660 H 0.833 0.60795 0.7468 0.0
H661 H 0.8903 0.65561 0.71428 0.0
C662 C 0.87957 0.655 0.64219 0.0
C663 C 0.86433 0.64712 0.60992 0.0
C664 C 0.84185 0.61802 0.77133 0.0
C665 C 0.86297 0.63432 0.7047 0.0
C666 C 0.83535 0.61896 0.81863 0.0
C667 C 0.8457 0.63293 0.85038 0.0
C668 C 0.85875 0.63118 0.75583 0.0
C669 C 0.86359 0.64448 0.83433 0.0
C670 C 0.87901 0.64856 0.68951 0.0
C671 C 0.84977 0.63146 0.62562 0.0
N672 N 0.86934 0.64359 0.78801 0.0
N673 N 0.84919 0.62586 0.67214 0.0
H674 H 0.36067 0.83569 0.62226 0.0
H675 H 0.32093 0.86488 0.88359 0.0
H676 H 0.309 0.88006 0.6524 0.0
H677 H 0.37031 0.81796 0.85347 0.0
H678 H 0.31954 0.87401 0.79957 0.0
H679 H 0.36763 0.83253 0.70715 0.0
C680 C 0.3509 0.84493 0.64667 0.0
C681 C 0.33403 0.85795 0.63017 0.0
C682 C 0.33079 0.86182 0.81136 0.0
C683 C 0.34189 0.85431 0.72746 0.0
C684 C 0.33159 0.85658 0.85938 0.0
C685 C 0.34558 0.84043 0.87557 0.0
C686 C 0.34402 0.85081 0.77919 0.0
C687 C 0.35915 0.83038 0.84255 0.0
C688 C 0.35489 0.84309 0.69518 0.0
C689 C 0.32204 0.86967 0.66349 0.0
N690 N 0.35789 0.83561 0.79584 0.0
N691 N 0.32608 0.86742 0.71059 0.0
H692 H 0.1272 0.32339 0.6338 0.0
H693 H 0.19715 0.37517 0.8429 0.0
H694 H 0.18279 0.36332 0.60983 0.0
H695 H 0.14246 0.3339 0.86608 0.0
H696 H 0.19159 0.37188 0.75743 0.0
H697 H 0.13199 0.32798 0.71907 0.0
C698 C 0.1404 0.33317 0.64642 0.0
C699 C 0.15465 0.34295 0.61454 0.0
C700 C 0.1808 0.36357 0.78123 0.0
C701 C 0.16023 0.34825 0.71231 0.0
C702 C 0.18396 0.36543 0.83007 0.0
C703 C 0.17028 0.35475 0.86177 0.0
C704 C 0.16384 0.35094 0.76392 0.0
C705 C 0.15343 0.3424 0.84303 0.0
C706 C 0.14313 0.33577 0.69518 0.0
C707 C 0.17144 0.35545 0.63306 0.0
N708 N 0.15072 0.34081 0.79534 0.0
N709 N 0.17378 0.35772 0.68075 0.0
H710 H 0.66691 0.14259 0.86914 0.0
H711 H 0.64095 0.17676 0.60299 0.0
H712 H 0.61523 0.18582 0.8317 0.0
H713 H 0.67811 0.12026 0.63839 0.0
H714 H 0.63293 0.18177 0.68707 0.0
H715 H 0.67289 0.13552 0.78483 0.0
C716 C 0.65679 0.15055 0.84322 0.0
C717 C 0.64059 0.16487 0.85745 0.0
C718 C 0.64274 0.16821 0.67637 0.0
C719 C 0.64743 0.15695 0.76113 0.0
C720 C 0.64739 0.16539 0.62843 0.0
C721 C 0.66027 0.14811 0.6137 0.0
C722 C 0.65125 0.15381 0.70986 0.0
C723 C 0.6681 0.13379 0.64818 0.0
C724 C 0.66017 0.14645 0.79515 0.0
C725 C 0.6279 0.17466 0.82234 0.0
N726 N 0.66358 0.13706 0.69476 0.0
N727 N 0.63169 0.17063 0.77576 0.0
H728 H 0.86834 0.33288 0.36446 0.0
H729 H 0.80869 0.30234 0.12908 0.0
H730 H 0.80599 0.30294 0.37011 0.0
H731 H 0.83267 0.36699 0.1456 0.0
H732 H 0.81529 0.29597 0.21391 0.0
H733 H 0.86283 0.33978 0.27923 0.0
C734 C 0.85354 0.32778 0.34767 0.0
C735 C 0.83751 0.31747 0.374 0.0
C736 C 0.81918 0.31147 0.19866 0.0
C737 C 0.83152 0.32465 0.27749 0.0
C738 C 0.81557 0.31507 0.15051 0.0
C739 C 0.82012 0.33522 0.13073 0.0
C740 C 0.82797 0.32793 0.22654 0.0
C741 C 0.82886 0.35129 0.15986 0.0
C742 C 0.85043 0.33174 0.29942 0.0
C743 C 0.81861 0.31112 0.35092 0.0
N744 N 0.83271 0.34724 0.20648 0.0
N745 N 0.81622 0.31457 0.30365 0.0
H746 H 0.60926 0.7902 0.15347 0.0
H747 H 0.66845 0.85696 0.35822 0.0
H748 H 0.65172 0.84371 0.12715 0.0
H749 H 0.63061 0.80009 0.3848 0.0
H750 H 0.6612 0.85314 0.2736 0.0
H751 H 0.6155 0.79447 0.2386 0.0
C752 C 0.61984 0.80289 0.16554 0.0
C753 C 0.63002 0.81659 0.13304 0.0
C754 C 0.65448 0.84148 0.29791 0.0
C755 C 0.63724 0.82153 0.23044 0.0
C756 C 0.65862 0.84365 0.34631 0.0
C757 C 0.65015 0.8288 0.37874 0.0
C758 C 0.64175 0.82437 0.2817 0.0
C759 C 0.6375 0.8119 0.36112 0.0
C760 C 0.62343 0.80528 0.21417 0.0
C761 C 0.64357 0.83273 0.15081 0.0
N762 N 0.63368 0.81015 0.31377 0.0
N763 N 0.64679 0.83473 0.19827 0.0
H764 H 0.12118 0.66316 0.35473 0.0
H765 H 0.18508 0.60311 0.1478 0.0
H766 H 0.17499 0.62068 0.37966 0.0
H767 H 0.13164 0.6462 0.124 0.0
H768 H 0.17954 0.60658 0.23322 0.0
H769 H 0.12285 0.65453 0.27049 0.0
C770 C 0.13332 0.65195 0.34255 0.0
C771 C 0.14811 0.64278 0.37428 0.0
C772 C 0.16894 0.61514 0.20927 0.0
C773 C 0.1501 0.63284 0.27773 0.0
C774 C 0.17207 0.61315 0.16047 0.0
C775 C 0.15895 0.62456 0.12866 0.0
C776 C 0.15261 0.62868 0.22635 0.0
C777 C 0.14227 0.63724 0.14716 0.0
C778 C 0.13423 0.647 0.29439 0.0
C779 C 0.16335 0.62823 0.35644 0.0
N780 N 0.13969 0.63908 0.19478 0.0
N781 N 0.16404 0.62382 0.30926 0.0
H782 H 0.30275 0.08817 0.3488 0.0
H783 H 0.36955 0.1463 0.14751 0.0
H784 H 0.35297 0.1344 0.37596 0.0
H785 H 0.31804 0.10139 0.1213 0.0
H786 H 0.36956 0.13572 0.23093 0.0
H787 H 0.31401 0.08637 0.2661 0.0
C788 C 0.31634 0.09773 0.33754 0.0
C789 C 0.32658 0.11189 0.36903 0.0
C790 C 0.35849 0.12793 0.20675 0.0
C791 C 0.33942 0.11004 0.27434 0.0
C792 C 0.35848 0.13396 0.15909 0.0
C793 C 0.34338 0.12512 0.12766 0.0
C794 C 0.34323 0.11307 0.223 0.0
C795 C 0.32965 0.10898 0.14449 0.0
C796 C 0.32278 0.09668 0.29029 0.0
C797 C 0.34435 0.12356 0.35269 0.0
N798 N 0.32967 0.10374 0.1912 0.0
N799 N 0.34996 0.12268 0.30621 0.0
loop_
_geom_bond_atom_site_label_1
_geom_bond_atom_site_label_2
_geom_bond_distance
_geom_bond_site_symmetry_2
_ccdc_geom_bond_type
C0 O1 1.306 . S
C0 O3 1.160 . S
O1 C0 1.306 . S
O1 Cd2 2.228 1_556 S
Cd2 O1 2.228 1_554 S
Cd2 O6 2.273 . S
Cd2 O10 2.277 . S
O3 C0 1.160 . S
O3 Cd4 2.203 1_556 S
Cd4 O3 2.203 1_554 S
Cd4 O6 2.411 . S
Cd4 O7 2.333 . S
Cd4 O8 2.352 . S
Cd4 O12 2.277 . S
Cd4 O13 2.356 . S
C5 O10 1.209 . S
C5 O12 1.226 . S
O6 Cd2 2.273 . S
O6 Cd4 2.411 . S
O6 C9 1.320 . S
O7 Cd4 2.333 . S
O7 C9 1.214 . S
O8 Cd4 2.352 . S
O8 C11 1.258 . S
C9 O6 1.320 . S
C9 O7 1.214 . S
O10 Cd2 2.277 . S
O10 C5 1.209 . S
C11 O8 1.258 . S
C11 O13 1.282 . S
O12 Cd4 2.277 . S
O12 C5 1.226 . S
O13 Cd4 2.356 . S
O13 C11 1.282 . S
C14 O15 1.306 . S
C14 O17 1.160 . S
O15 C14 1.306 . S
O15 Cd16 2.228 1_556 S
Cd16 O15 2.228 1_554 S
Cd16 O20 2.273 . S
Cd16 O24 2.277 . S
O17 C14 1.160 . S
O17 Cd18 2.203 1_556 S
Cd18 O17 2.203 1_554 S
Cd18 O20 2.411 . S
Cd18 O21 2.333 . S
Cd18 O22 2.352 . S
Cd18 O26 2.277 . S
Cd18 O27 2.356 . S
C19 O24 1.209 . S
C19 O26 1.226 . S
O20 Cd16 2.273 . S
O20 Cd18 2.411 . S
O20 C23 1.320 . S
O21 Cd18 2.333 . S
O21 C23 1.214 . S
O22 Cd18 2.352 . S
O22 C25 1.258 . S
C23 O20 1.320 . S
C23 O21 1.214 . S
O24 Cd16 2.277 . S
O24 C19 1.209 . S
C25 O22 1.258 . S
C25 O27 1.282 . S
O26 Cd18 2.277 . S
O26 C19 1.226 . S
O27 Cd18 2.356 . S
O27 C25 1.282 . S
C28 O29 1.306 . S
C28 O31 1.160 . S
O29 C28 1.306 . S
O29 Cd30 2.228 1_556 S
Cd30 O29 2.228 1_554 S
Cd30 O34 2.273 . S
Cd30 O38 2.277 . S
O31 C28 1.160 . S
O31 Cd32 2.203 1_556 S
Cd32 O31 2.203 1_554 S
Cd32 O34 2.411 . S
Cd32 O35 2.333 . S
Cd32 O36 2.352 . S
Cd32 O40 2.277 . S
Cd32 O41 2.356 . S
C33 O38 1.209 . S
C33 O40 1.226 . S
O34 Cd30 2.273 . S
O34 Cd32 2.411 . S
O34 C37 1.320 . S
O35 Cd32 2.333 . S
O35 C37 1.214 . S
O36 Cd32 2.352 . S
O36 C39 1.258 . S
C37 O34 1.320 . S
C37 O35 1.214 . S
O38 Cd30 2.277 . S
O38 C33 1.209 . S
C39 O36 1.258 . S
C39 O41 1.282 . S
O40 Cd32 2.277 . S
O40 C33 1.226 . S
O41 Cd32 2.356 . S
O41 C39 1.282 . S
C42 O43 1.306 . S
C42 O45 1.160 . S
O43 C42 1.306 . S
O43 Cd44 2.228 1_556 S
Cd44 O43 2.228 1_554 S
Cd44 O48 2.273 . S
Cd44 O52 2.277 . S
O45 C42 1.160 . S
O45 Cd46 2.203 1_556 S
Cd46 O45 2.203 1_554 S
Cd46 O48 2.411 . S
Cd46 O49 2.333 . S
Cd46 O50 2.352 . S
Cd46 O54 2.277 . S
Cd46 O55 2.356 . S
C47 O52 1.209 . S
C47 O54 1.226 . S
O48 Cd44 2.273 . S
O48 Cd46 2.411 . S
O48 C51 1.320 . S
O49 Cd46 2.333 . S
O49 C51 1.214 . S
O50 Cd46 2.352 . S
O50 C53 1.258 . S
C51 O48 1.320 . S
C51 O49 1.214 . S
O52 Cd44 2.277 . S
O52 C47 1.209 . S
C53 O50 1.258 . S
C53 O55 1.282 . S
O54 Cd46 2.277 . S
O54 C47 1.226 . S
O55 Cd46 2.356 . S
O55 C53 1.282 . S
C56 O57 1.306 . S
C56 O59 1.160 . S
O57 C56 1.306 . S
O57 Cd58 2.228 1_554 S
Cd58 O57 2.228 1_556 S
Cd58 O62 2.273 . S
Cd58 O66 2.277 1_556 S
O59 C56 1.160 . S
O59 Cd60 2.203 . S
Cd60 O59 2.203 . S
Cd60 O62 2.411 1_554 S
Cd60 O63 2.333 1_554 S
Cd60 O64 2.352 . S
Cd60 O68 2.277 . S
Cd60 O69 2.356 1_554 S
C61 O66 1.209 . S
C61 O68 1.226 . S
O62 Cd58 2.273 . S
O62 Cd60 2.411 1_556 S
O62 C65 1.320 . S
O63 Cd60 2.333 1_556 S
O63 C65 1.214 . S
O64 Cd60 2.352 . S
O64 C67 1.258 . S
C65 O62 1.320 . S
C65 O63 1.214 . S
O66 Cd58 2.277 1_554 S
O66 C61 1.209 . S
C67 O64 1.258 . S
C67 O69 1.282 1_554 S
O68 Cd60 2.277 . S
O68 C61 1.226 . S
O69 Cd60 2.356 1_556 S
O69 C67 1.282 1_556 S
C70 O71 1.306 . S
C70 O73 1.160 . S
O71 C70 1.306 . S
O71 Cd72 2.228 1_554 S
Cd72 O71 2.228 1_556 S
Cd72 O76 2.273 . S
Cd72 O80 2.277 1_556 S
O73 C70 1.160 . S
O73 Cd74 2.203 . S
Cd74 O73 2.203 . S
Cd74 O76 2.411 1_554 S
Cd74 O77 2.333 1_554 S
Cd74 O78 2.352 . S
Cd74 O82 2.277 . S
Cd74 O83 2.356 1_554 S
C75 O80 1.209 . S
C75 O82 1.226 . S
O76 Cd72 2.273 . S
O76 Cd74 2.411 1_556 S
O76 C79 1.320 . S
O77 Cd74 2.333 1_556 S
O77 C79 1.214 . S
O78 Cd74 2.352 . S
O78 C81 1.258 . S
C79 O76 1.320 . S
C79 O77 1.214 . S
O80 Cd72 2.277 1_554 S
O80 C75 1.209 . S
C81 O78 1.258 . S
C81 O83 1.282 1_554 S
O82 Cd74 2.277 . S
O82 C75 1.226 . S
O83 Cd74 2.356 1_556 S
O83 C81 1.282 1_556 S
C84 O85 1.306 . S
C84 O87 1.160 . S
O85 C84 1.306 . S
O85 Cd86 2.228 1_554 S
Cd86 O85 2.228 1_556 S
Cd86 O90 2.273 . S
Cd86 O94 2.277 1_556 S
O87 C84 1.160 . S
O87 Cd88 2.203 . S
Cd88 O87 2.203 . S
Cd88 O90 2.411 1_554 S
Cd88 O91 2.333 1_554 S
Cd88 O92 2.352 . S
Cd88 O96 2.277 . S
Cd88 O97 2.356 1_554 S
C89 O94 1.209 . S
C89 O96 1.226 . S
O90 Cd86 2.273 . S
O90 Cd88 2.411 1_556 S
O90 C93 1.320 . S
O91 Cd88 2.333 1_556 S
O91 C93 1.214 . S
O92 Cd88 2.352 . S
O92 C95 1.258 . S
C93 O90 1.320 . S
C93 O91 1.214 . S
O94 Cd86 2.277 1_554 S
O94 C89 1.209 . S
C95 O92 1.258 . S
C95 O97 1.282 1_554 S
O96 Cd88 2.277 . S
O96 C89 1.226 . S
O97 Cd88 2.356 1_556 S
O97 C95 1.282 1_556 S
C98 O99 1.306 . S
C98 O101 1.160 . S
O99 C98 1.306 . S
O99 Cd100 2.228 1_554 S
Cd100 O99 2.228 1_556 S
Cd100 O104 2.273 . S
Cd100 O108 2.277 1_556 S
O101 C98 1.160 . S
O101 Cd102 2.203 . S
Cd102 O101 2.203 . S
Cd102 O104 2.411 1_554 S
Cd102 O105 2.333 1_554 S
Cd102 O106 2.352 . S
Cd102 O110 2.277 . S
Cd102 O111 2.356 1_554 S
C103 O108 1.209 . S
C103 O110 1.226 . S
O104 Cd100 2.273 . S
O104 Cd102 2.411 1_556 S
O104 C107 1.320 . S
O105 Cd102 2.333 1_556 S
O105 C107 1.214 . S
O106 Cd102 2.352 . S
O106 C109 1.258 . S
C107 O104 1.320 . S
C107 O105 1.214 . S
O108 Cd100 2.277 1_554 S
O108 C103 1.209 . S
C109 O106 1.258 . S
C109 O111 1.282 1_554 S
O110 Cd102 2.277 . S
O110 C103 1.226 . S
O111 Cd102 2.356 1_556 S
O111 C109 1.282 1_556 S
C112 O113 1.306 . S
C112 O115 1.160 . S
O113 C112 1.306 . S
O113 Cd114 2.228 . S
Cd114 O113 2.228 . S
Cd114 O118 2.273 . S
Cd114 O122 2.277 . S
O115 C112 1.160 . S
O115 Cd116 2.203 . S
Cd116 O115 2.203 . S
Cd116 O118 2.411 . S
Cd116 O119 2.333 . S
Cd116 O120 2.352 . S
Cd116 O124 2.277 . S
Cd116 O125 2.356 . S
C117 O122 1.209 . S
C117 O124 1.226 . S
O118 Cd114 2.273 . S
O118 Cd116 2.411 . S
O118 C121 1.320 . S
O119 Cd116 2.333 . S
O119 C121 1.214 . S
O120 Cd116 2.352 . S
O120 C123 1.258 . S
C121 O118 1.320 . S
C121 O119 1.214 . S
O122 Cd114 2.277 . S
O122 C117 1.209 . S
C123 O120 1.258 . S
C123 O125 1.282 . S
O124 Cd116 2.277 . S
O124 C117 1.226 . S
O125 Cd116 2.356 . S
O125 C123 1.282 . S
C126 O127 1.306 . S
C126 O129 1.160 . S
O127 C126 1.306 . S
O127 Cd128 2.228 . S
Cd128 O127 2.228 . S
Cd128 O132 2.273 . S
Cd128 O136 2.277 . S
O129 C126 1.160 . S
O129 Cd130 2.203 . S
Cd130 O129 2.203 . S
Cd130 O132 2.411 . S
Cd130 O133 2.333 . S
Cd130 O134 2.352 . S
Cd130 O138 2.277 . S
Cd130 O139 2.356 . S
C131 O136 1.209 . S
C131 O138 1.226 . S
O132 Cd128 2.273 . S
O132 Cd130 2.411 . S
O132 C135 1.320 . S
O133 Cd130 2.333 . S
O133 C135 1.214 . S
O134 Cd130 2.352 . S
O134 C137 1.258 . S
C135 O132 1.320 . S
C135 O133 1.214 . S
O136 Cd128 2.277 . S
O136 C131 1.209 . S
C137 O134 1.258 . S
C137 O139 1.282 . S
O138 Cd130 2.277 . S
O138 C131 1.226 . S
O139 Cd130 2.356 . S
O139 C137 1.282 . S
C140 O141 1.306 . S
C140 O143 1.160 . S
O141 C140 1.306 . S
O141 Cd142 2.228 . S
Cd142 O141 2.228 . S
Cd142 O146 2.273 . S
Cd142 O150 2.277 . S
O143 C140 1.160 . S
O143 Cd144 2.203 . S
Cd144 O143 2.203 . S
Cd144 O146 2.411 . S
Cd144 O147 2.333 . S
Cd144 O148 2.352 . S
Cd144 O152 2.277 . S
Cd144 O153 2.356 . S
C145 O150 1.209 . S
C145 O152 1.226 . S
O146 Cd142 2.273 . S
O146 Cd144 2.411 . S
O146 C149 1.320 . S
O147 Cd144 2.333 . S
O147 C149 1.214 . S
O148 Cd144 2.352 . S
O148 C151 1.258 . S
C149 O146 1.320 . S
C149 O147 1.214 . S
O150 Cd142 2.277 . S
O150 C145 1.209 . S
C151 O148 1.258 . S
C151 O153 1.282 . S
O152 Cd144 2.277 . S
O152 C145 1.226 . S
O153 Cd144 2.356 . S
O153 C151 1.282 . S
C154 O155 1.306 . S
C154 O157 1.160 . S
O155 C154 1.306 . S
O155 Cd156 2.228 . S
Cd156 O155 2.228 . S
Cd156 O160 2.273 . S
Cd156 O164 2.277 . S
O157 C154 1.160 . S
O157 Cd158 2.203 . S
Cd158 O157 2.203 . S
Cd158 O160 2.411 . S
Cd158 O161 2.333 . S
Cd158 O162 2.352 . S
Cd158 O166 2.277 . S
Cd158 O167 2.356 . S
C159 O164 1.209 . S
C159 O166 1.226 . S
O160 Cd156 2.273 . S
O160 Cd158 2.411 . S
O160 C163 1.320 . S
O161 Cd158 2.333 . S
O161 C163 1.214 . S
O162 Cd158 2.352 . S
O162 C165 1.258 . S
C163 O160 1.320 . S
C163 O161 1.214 . S
O164 Cd156 2.277 . S
O164 C159 1.209 . S
C165 O162 1.258 . S
C165 O167 1.282 . S
O166 Cd158 2.277 . S
O166 C159 1.226 . S
O167 Cd158 2.356 . S
O167 C165 1.282 . S
C168 O169 1.306 . S
C168 O171 1.160 . S
O169 C168 1.306 . S
O169 Cd170 2.228 . S
Cd170 O169 2.228 . S
Cd170 O174 2.273 . S
Cd170 O178 2.277 . S
O171 C168 1.160 . S
O171 Cd172 2.203 . S
Cd172 O171 2.203 . S
Cd172 O174 2.411 . S
Cd172 O175 2.333 . S
Cd172 O176 2.352 . S
Cd172 O180 2.277 . S
Cd172 O181 2.356 . S
C173 O178 1.209 . S
C173 O180 1.226 . S
O174 Cd170 2.273 . S
O174 Cd172 2.411 . S
O174 C177 1.320 . S
O175 Cd172 2.333 . S
O175 C177 1.214 . S
O176 Cd172 2.352 . S
O176 C179 1.258 . S
C177 O174 1.320 . S
C177 O175 1.214 . S
O178 Cd170 2.277 . S
O178 C173 1.209 . S
C179 O176 1.258 . S
C179 O181 1.282 . S
O180 Cd172 2.277 . S
O180 C173 1.226 . S
O181 Cd172 2.356 . S
O181 C179 1.282 . S
C182 O183 1.306 . S
C182 O185 1.160 . S
O183 C182 1.306 . S
O183 Cd184 2.228 . S
Cd184 O183 2.228 . S
Cd184 O188 2.273 . S
Cd184 O192 2.277 . S
O185 C182 1.160 . S
O185 Cd186 2.203 . S
Cd186 O185 2.203 . S
Cd186 O188 2.411 . S
Cd186 O189 2.333 . S
Cd186 O190 2.352 . S
Cd186 O194 2.277 . S
Cd186 O195 2.356 . S
C187 O192 1.209 . S
C187 O194 1.226 . S
O188 Cd184 2.273 . S
O188 Cd186 2.411 . S
O188 C191 1.320 . S
O189 Cd186 2.333 . S
O189 C191 1.214 . S
O190 Cd186 2.352 . S
O190 C193 1.258 . S
C191 O188 1.320 . S
C191 O189 1.214 . S
O192 Cd184 2.277 . S
O192 C187 1.209 . S
C193 O190 1.258 . S
C193 O195 1.282 . S
O194 Cd186 2.277 . S
O194 C187 1.226 . S
O195 Cd186 2.356 . S
O195 C193 1.282 . S
C196 O197 1.306 . S
C196 O199 1.160 . S
O197 C196 1.306 . S
O197 Cd198 2.228 . S
Cd198 O197 2.228 . S
Cd198 O202 2.273 . S
Cd198 O206 2.277 . S
O199 C196 1.160 . S
O199 Cd200 2.203 . S
Cd200 O199 2.203 . S
Cd200 O202 2.411 . S
Cd200 O203 2.333 . S
Cd200 O204 2.352 . S
Cd200 O208 2.277 . S
Cd200 O209 2.356 . S
C201 O206 1.209 . S
C201 O208 1.226 . S
O202 Cd198 2.273 . S
O202 Cd200 2.411 . S
O202 C205 1.320 . S
O203 Cd200 2.333 . S
O203 C205 1.214 . S
O204 Cd200 2.352 . S
O204 C207 1.258 . S
C205 O202 1.320 . S
C205 O203 1.214 . S
O206 Cd198 2.277 . S
O206 C201 1.209 . S
C207 O204 1.258 . S
C207 O209 1.282 . S
O208 Cd200 2.277 . S
O208 C201 1.226 . S
O209 Cd200 2.356 . S
O209 C207 1.282 . S
C210 O211 1.306 . S
C210 O213 1.160 . S
O211 C210 1.306 . S
O211 Cd212 2.228 . S
Cd212 O211 2.228 . S
Cd212 O216 2.273 . S
Cd212 O220 2.277 . S
O213 C210 1.160 . S
O213 Cd214 2.203 . S
Cd214 O213 2.203 . S
Cd214 O216 2.411 . S
Cd214 O217 2.333 . S
Cd214 O218 2.352 . S
Cd214 O222 2.277 . S
Cd214 O223 2.356 . S
C215 O220 1.209 . S
C215 O222 1.226 . S
O216 Cd212 2.273 . S
O216 Cd214 2.411 . S
O216 C219 1.320 . S
O217 Cd214 2.333 . S
O217 C219 1.214 . S
O218 Cd214 2.352 . S
O218 C221 1.258 . S
C219 O216 1.320 . S
C219 O217 1.214 . S
O220 Cd212 2.277 . S
O220 C215 1.209 . S
C221 O218 1.258 . S
C221 O223 1.282 . S
O222 Cd214 2.277 . S
O222 C215 1.226 . S
O223 Cd214 2.356 . S
O223 C221 1.282 . S
H224 C230 0.930 . S
H225 C234 0.930 . S
H226 C239 0.929 . S
H227 C237 0.929 . S
H228 C232 0.929 . S
H229 C238 0.929 . S
C230 H224 0.930 . S
C230 C231 1.367 1_556 S
C230 C238 1.378 . S
C231 C230 1.367 1_554 S
C231 C239 1.433 . S
C232 H228 0.929 . S
C232 C234 1.378 . S
C232 C236 1.350 . S
C233 C236 1.463 . S
C233 C238 1.350 1_554 S
C233 N241 1.427 . S
C234 H225 0.930 . S
C234 C232 1.378 . S
C234 C235 1.367 . S
C235 C234 1.367 . S
C235 C237 1.433 1_554 S
C236 C232 1.350 . S
C236 C233 1.463 . S
C236 N240 1.427 1_554 S
C237 H227 0.929 . S
C237 C235 1.433 1_556 S
C237 N240 1.384 . S
C238 H229 0.929 . S
C238 C230 1.378 . S
C238 C233 1.350 1_556 S
C239 H226 0.929 . S
C239 C231 1.433 . S
C239 N241 1.384 . S
N240 C236 1.427 1_556 S
N240 C237 1.384 . S
N241 C233 1.427 . S
N241 C239 1.384 . S
H242 C248 0.930 . S
H243 C252 0.930 . S
H244 C257 0.929 . S
H245 C255 0.929 . S
H246 C250 0.929 . S
H247 C256 0.929 . S
C248 H242 0.930 . S
C248 C249 1.367 1_556 S
C248 C256 1.378 . S
C249 C248 1.367 1_554 S
C249 C257 1.433 . S
C250 H246 0.929 . S
C250 C252 1.378 . S
C250 C254 1.350 . S
C251 C254 1.463 . S
C251 C256 1.350 1_554 S
C251 N259 1.427 . S
C252 H243 0.930 . S
C252 C250 1.378 . S
C252 C253 1.367 . S
C253 C252 1.367 . S
C253 C255 1.433 1_554 S
C254 C250 1.350 . S
C254 C251 1.463 . S
C254 N258 1.427 1_554 S
C255 H245 0.929 . S
C255 C253 1.433 1_556 S
C255 N258 1.384 . S
C256 H247 0.929 . S
C256 C248 1.378 . S
C256 C251 1.350 1_556 S
C257 H244 0.929 . S
C257 C249 1.433 . S
C257 N259 1.384 . S
N258 C254 1.427 1_556 S
N258 C255 1.384 . S
N259 C251 1.427 . S
N259 C257 1.384 . S
H260 C266 0.930 . S
H261 C270 0.930 . S
H262 C275 0.929 . S
H263 C273 0.929 . S
H264 C268 0.929 . S
H265 C274 0.929 . S
C266 H260 0.930 . S
C266 C267 1.367 . S
C266 C274 1.378 . S
C267 C266 1.367 . S
C267 C275 1.433 1_554 S
C268 H264 0.929 . S
C268 C270 1.378 . S
C268 C272 1.350 1_556 S
C269 C272 1.463 . S
C269 C274 1.350 . S
C269 N277 1.427 1_554 S
C270 H261 0.930 . S
C270 C268 1.378 . S
C270 C271 1.367 1_556 S
C271 C270 1.367 1_554 S
C271 C273 1.433 . S
C272 C268 1.350 1_554 S
C272 C269 1.463 . S
C272 N276 1.427 . S
C273 H263 0.929 . S
C273 C271 1.433 . S
C273 N276 1.384 . S
C274 H265 0.929 . S
C274 C266 1.378 . S
C274 C269 1.350 . S
C275 H262 0.929 . S
C275 C267 1.433 1_556 S
C275 N277 1.384 . S
N276 C272 1.427 . S
N276 C273 1.384 . S
N277 C269 1.427 1_556 S
N277 C275 1.384 . S
H278 C284 0.930 . S
H279 C288 0.930 . S
H280 C293 0.929 . S
H281 C291 0.929 . S
H282 C286 0.929 . S
H283 C292 0.929 . S
C284 H278 0.930 . S
C284 C285 1.367 . S
C284 C292 1.378 . S
C285 C284 1.367 . S
C285 C293 1.433 1_554 S
C286 H282 0.929 . S
C286 C288 1.378 . S
C286 C290 1.350 1_556 S
C287 C290 1.463 . S
C287 C292 1.350 . S
C287 N295 1.427 1_554 S
C288 H279 0.930 . S
C288 C286 1.378 . S
C288 C289 1.367 1_556 S
C289 C288 1.367 1_554 S
C289 C291 1.433 . S
C290 C286 1.350 1_554 S
C290 C287 1.463 . S
C290 N294 1.427 . S
C291 H281 0.929 . S
C291 C289 1.433 . S
C291 N294 1.384 . S
C292 H283 0.929 . S
C292 C284 1.378 . S
C292 C287 1.350 . S
C293 H280 0.929 . S
C293 C285 1.433 1_556 S
C293 N295 1.384 . S
N294 C290 1.427 . S
N294 C291 1.384 . S
N295 C287 1.427 1_556 S
N295 C293 1.384 . S
H296 C302 0.930 . S
H297 C306 0.930 . S
H298 C311 0.929 . S
H299 C309 0.929 . S
H300 C304 0.929 . S
H301 C310 0.929 . S
C302 H296 0.930 . S
C302 C303 1.367 . S
C302 C310 1.378 . S
C303 C302 1.367 . S
C303 C311 1.433 . S
C304 H300 0.929 . S
C304 C306 1.378 . S
C304 C308 1.350 . S
C305 C308 1.463 1_545 S
C305 C310 1.350 . S
C305 N313 1.427 . S
C306 H297 0.930 . S
C306 C304 1.378 . S
C306 C307 1.367 . S
C307 C306 1.367 . S
C307 C309 1.433 . S
C308 C304 1.350 . S
C308 C305 1.463 1_565 S
C308 N312 1.427 . S
C309 H299 0.929 . S
C309 C307 1.433 . S
C309 N312 1.384 . S
C310 H301 0.929 . S
C310 C302 1.378 . S
C310 C305 1.350 . S
C311 H298 0.929 . S
C311 C303 1.433 . S
C311 N313 1.384 . S
N312 C308 1.427 . S
N312 C309 1.384 . S
N313 C305 1.427 . S
N313 C311 1.384 . S
H314 C320 0.930 . S
H315 C324 0.930 . S
H316 C329 0.929 . S
H317 C327 0.929 . S
H318 C322 0.929 . S
H319 C328 0.929 . S
C320 H314 0.930 . S
C320 C321 1.367 . S
C320 C328 1.378 . S
C321 C320 1.367 . S
C321 C329 1.433 . S
C322 H318 0.929 . S
C322 C324 1.378 . S
C322 C326 1.350 . S
C323 C326 1.463 1_655 S
C323 C328 1.350 . S
C323 N331 1.427 . S
C324 H315 0.930 . S
C324 C322 1.378 . S
C324 C325 1.367 . S
C325 C324 1.367 . S
C325 C327 1.433 . S
C326 C322 1.350 . S
C326 C323 1.463 1_455 S
C326 N330 1.427 . S
C327 H317 0.929 . S
C327 C325 1.433 . S
C327 N330 1.384 . S
C328 H319 0.929 . S
C328 C320 1.378 . S
C328 C323 1.350 . S
C329 H316 0.929 . S
C329 C321 1.433 . S
C329 N331 1.384 . S
N330 C326 1.427 . S
N330 C327 1.384 . S
N331 C323 1.427 . S
N331 C329 1.384 . S
H332 C338 0.930 . S
H333 C342 0.930 . S
H334 C347 0.929 . S
H335 C345 0.929 . S
H336 C340 0.929 . S
H337 C346 0.929 . S
C338 H332 0.930 . S
C338 C339 1.367 . S
C338 C346 1.378 . S
C339 C338 1.367 . S
C339 C347 1.433 . S
C340 H336 0.929 . S
C340 C342 1.378 . S
C340 C344 1.350 . S
C341 C344 1.463 1_545 S
C341 C346 1.350 . S
C341 N349 1.427 . S
C342 H333 0.930 . S
C342 C340 1.378 . S
C342 C343 1.367 . S
C343 C342 1.367 . S
C343 C345 1.433 . S
C344 C340 1.350 . S
C344 C341 1.463 1_565 S
C344 N348 1.427 . S
C345 H335 0.929 . S
C345 C343 1.433 . S
C345 N348 1.384 . S
C346 H337 0.929 . S
C346 C338 1.378 . S
C346 C341 1.350 . S
C347 H334 0.929 . S
C347 C339 1.433 . S
C347 N349 1.384 . S
N348 C344 1.427 . S
N348 C345 1.384 . S
N349 C341 1.427 . S
N349 C347 1.384 . S
H350 C356 0.930 . S
H351 C360 0.930 . S
H352 C365 0.929 . S
H353 C363 0.929 . S
H354 C358 0.929 . S
H355 C364 0.929 . S
C356 H350 0.930 . S
C356 C357 1.367 . S
C356 C364 1.378 . S
C357 C356 1.367 . S
C357 C365 1.433 . S
C358 H354 0.929 . S
C358 C360 1.378 . S
C358 C362 1.350 . S
C359 C362 1.463 1_455 S
C359 C364 1.350 . S
C359 N367 1.427 . S
C360 H351 0.930 . S
C360 C358 1.378 . S
C360 C361 1.367 . S
C361 C360 1.367 . S
C361 C363 1.433 . S
C362 C358 1.350 . S
C362 C359 1.463 1_655 S
C362 N366 1.427 . S
C363 H353 0.929 . S
C363 C361 1.433 . S
C363 N366 1.384 . S
C364 H355 0.929 . S
C364 C356 1.378 . S
C364 C359 1.350 . S
C365 H352 0.929 . S
C365 C357 1.433 . S
C365 N367 1.384 . S
N366 C362 1.427 . S
N366 C363 1.384 . S
N367 C359 1.427 . S
N367 C365 1.384 . S
H368 C374 0.930 . S
H369 C378 0.930 1_556 S
H370 C383 0.929 1_556 S
H371 C381 0.929 . S
H372 C376 0.929 1_556 S
H373 C382 0.929 . S
C374 H368 0.930 . S
C374 C375 1.367 . S
C374 C382 1.378 . S
C375 C374 1.367 . S
C375 C383 1.433 . S
C376 H372 0.929 1_554 S
C376 C378 1.378 . S
C376 C380 1.350 . S
C377 C380 1.463 . S
C377 C382 1.350 . S
C377 N385 1.427 . S
C378 H369 0.930 1_554 S
C378 C376 1.378 . S
C378 C379 1.367 . S
C379 C378 1.367 . S
C379 C381 1.433 . S
C380 C376 1.350 . S
C380 C377 1.463 . S
C380 N384 1.427 . S
C381 H371 0.929 . S
C381 C379 1.433 . S
C381 N384 1.384 . S
C382 H373 0.929 . S
C382 C374 1.378 . S
C382 C377 1.350 . S
C383 H370 0.929 1_554 S
C383 C375 1.433 . S
C383 N385 1.384 . S
N384 C380 1.427 . S
N384 C381 1.384 . S
N385 C377 1.427 . S
N385 C383 1.384 . S
H386 C392 0.930 . S
H387 C396 0.930 . S
H388 C401 0.929 . S
H389 C399 0.929 . S
H390 C394 0.929 . S
H391 C400 0.929 . S
C392 H386 0.930 . S
C392 C393 1.367 . S
C392 C400 1.378 . S
C393 C392 1.367 . S
C393 C401 1.433 1_554 S
C394 H390 0.929 . S
C394 C396 1.378 . S
C394 C398 1.350 1_556 S
C395 C398 1.463 . S
C395 C400 1.350 . S
C395 N403 1.427 1_554 S
C396 H387 0.930 . S
C396 C394 1.378 . S
C396 C397 1.367 1_556 S
C397 C396 1.367 1_554 S
C397 C399 1.433 . S
C398 C394 1.350 1_554 S
C398 C395 1.463 . S
C398 N402 1.427 . S
C399 H389 0.929 . S
C399 C397 1.433 . S
C399 N402 1.384 . S
C400 H391 0.929 . S
C400 C392 1.378 . S
C400 C395 1.350 . S
C401 H388 0.929 . S
C401 C393 1.433 1_556 S
C401 N403 1.384 . S
N402 C398 1.427 . S
N402 C399 1.384 . S
N403 C395 1.427 1_556 S
N403 C401 1.384 . S
H404 C410 0.930 . S
H405 C414 0.930 . S
H406 C419 0.929 . S
H407 C417 0.929 . S
H408 C412 0.929 . S
H409 C418 0.929 . S
C410 H404 0.930 . S
C410 C411 1.367 . S
C410 C418 1.378 . S
C411 C410 1.367 . S
C411 C419 1.433 1_554 S
C412 H408 0.929 . S
C412 C414 1.378 . S
C412 C416 1.350 1_556 S
C413 C416 1.463 . S
C413 C418 1.350 . S
C413 N421 1.427 1_554 S
C414 H405 0.930 . S
C414 C412 1.378 . S
C414 C415 1.367 1_556 S
C415 C414 1.367 1_554 S
C415 C417 1.433 . S
C416 C412 1.350 1_554 S
C416 C413 1.463 . S
C416 N420 1.427 . S
C417 H407 0.929 . S
C417 C415 1.433 . S
C417 N420 1.384 . S
C418 H409 0.929 . S
C418 C410 1.378 . S
C418 C413 1.350 . S
C419 H406 0.929 . S
C419 C411 1.433 1_556 S
C419 N421 1.384 . S
N420 C416 1.427 . S
N420 C417 1.384 . S
N421 C413 1.427 1_556 S
N421 C419 1.384 . S
H422 C428 0.930 . S
H423 C432 0.930 . S
H424 C437 0.929 . S
H425 C435 0.929 . S
H426 C430 0.929 . S
H427 C436 0.929 . S
C428 H422 0.930 . S
C428 C429 1.367 1_556 S
C428 C436 1.378 . S
C429 C428 1.367 1_554 S
C429 C437 1.433 . S
C430 H426 0.929 . S
C430 C432 1.378 . S
C430 C434 1.350 . S
C431 C434 1.463 . S
C431 C436 1.350 1_554 S
C431 N439 1.427 . S
C432 H423 0.930 . S
C432 C430 1.378 . S
C432 C433 1.367 . S
C433 C432 1.367 . S
C433 C435 1.433 1_554 S
C434 C430 1.350 . S
C434 C431 1.463 . S
C434 N438 1.427 1_554 S
C435 H425 0.929 . S
C435 C433 1.433 1_556 S
C435 N438 1.384 . S
C436 H427 0.929 . S
C436 C428 1.378 . S
C436 C431 1.350 1_556 S
C437 H424 0.929 . S
C437 C429 1.433 . S
C437 N439 1.384 . S
N438 C434 1.427 1_556 S
N438 C435 1.384 . S
N439 C431 1.427 . S
N439 C437 1.384 . S
H440 C446 0.930 . S
H441 C450 0.930 . S
H442 C455 0.929 . S
H443 C453 0.929 . S
H444 C448 0.929 . S
H445 C454 0.929 . S
C446 H440 0.930 . S
C446 C447 1.367 . S
C446 C454 1.378 . S
C447 C446 1.367 . S
C447 C455 1.433 . S
C448 H444 0.929 . S
C448 C450 1.378 . S
C448 C452 1.350 . S
C449 C452 1.463 . S
C449 C454 1.350 . S
C449 N457 1.427 . S
C450 H441 0.930 . S
C450 C448 1.378 . S
C450 C451 1.367 . S
C451 C450 1.367 . S
C451 C453 1.433 . S
C452 C448 1.350 . S
C452 C449 1.463 . S
C452 N456 1.427 . S
C453 H443 0.929 . S
C453 C451 1.433 . S
C453 N456 1.384 . S
C454 H445 0.929 . S
C454 C446 1.378 . S
C454 C449 1.350 . S
C455 H442 0.929 . S
C455 C447 1.433 . S
C455 N457 1.384 . S
N456 C452 1.427 . S
N456 C453 1.384 . S
N457 C449 1.427 . S
N457 C455 1.384 . S
H458 C464 0.930 . S
H459 C468 0.930 . S
H460 C473 0.929 . S
H461 C471 0.929 . S
H462 C466 0.929 . S
H463 C472 0.929 . S
C464 H458 0.930 . S
C464 C465 1.367 . S
C464 C472 1.378 . S
C465 C464 1.367 . S
C465 C473 1.433 . S
C466 H462 0.929 . S
C466 C468 1.378 . S
C466 C470 1.350 . S
C467 C470 1.463 . S
C467 C472 1.350 . S
C467 N475 1.427 . S
C468 H459 0.930 . S
C468 C466 1.378 . S
C468 C469 1.367 . S
C469 C468 1.367 . S
C469 C471 1.433 . S
C470 C466 1.350 . S
C470 C467 1.463 . S
C470 N474 1.427 . S
C471 H461 0.929 . S
C471 C469 1.433 . S
C471 N474 1.384 . S
C472 H463 0.929 . S
C472 C464 1.378 . S
C472 C467 1.350 . S
C473 H460 0.929 . S
C473 C465 1.433 . S
C473 N475 1.384 . S
N474 C470 1.427 . S
N474 C471 1.384 . S
N475 C467 1.427 . S
N475 C473 1.384 . S
H476 C482 0.930 . S
H477 C486 0.930 . S
H478 C491 0.929 . S
H479 C489 0.929 . S
H480 C484 0.929 . S
H481 C490 0.929 . S
C482 H476 0.930 . S
C482 C483 1.367 . S
C482 C490 1.378 . S
C483 C482 1.367 . S
C483 C491 1.433 . S
C484 H480 0.929 . S
C484 C486 1.378 . S
C484 C488 1.350 . S
C485 C488 1.463 . S
C485 C490 1.350 . S
C485 N493 1.427 . S
C486 H477 0.930 . S
C486 C484 1.378 . S
C486 C487 1.367 . S
C487 C486 1.367 . S
C487 C489 1.433 . S
C488 C484 1.350 . S
C488 C485 1.463 . S
C488 N492 1.427 . S
C489 H479 0.929 . S
C489 C487 1.433 . S
C489 N492 1.384 . S
C490 H481 0.929 . S
C490 C482 1.378 . S
C490 C485 1.350 . S
C491 H478 0.929 . S
C491 C483 1.433 . S
C491 N493 1.384 . S
N492 C488 1.427 . S
N492 C489 1.384 . S
N493 C485 1.427 . S
N493 C491 1.384 . S
H494 C500 0.930 . S
H495 C504 0.930 . S
H496 C509 0.929 . S
H497 C507 0.929 . S
H498 C502 0.929 . S
H499 C508 0.929 . S
C500 H494 0.930 . S
C500 C501 1.367 . S
C500 C508 1.378 . S
C501 C500 1.367 . S
C501 C509 1.433 . S
C502 H498 0.929 . S
C502 C504 1.378 . S
C502 C506 1.350 . S
C503 C506 1.463 . S
C503 C508 1.350 . S
C503 N511 1.427 . S
C504 H495 0.930 . S
C504 C502 1.378 . S
C504 C505 1.367 . S
C505 C504 1.367 . S
C505 C507 1.433 . S
C506 C502 1.350 . S
C506 C503 1.463 . S
C506 N510 1.427 . S
C507 H497 0.929 . S
C507 C505 1.433 . S
C507 N510 1.384 . S
C508 H499 0.929 . S
C508 C500 1.378 . S
C508 C503 1.350 . S
C509 H496 0.929 . S
C509 C501 1.433 . S
C509 N511 1.384 . S
N510 C506 1.427 . S
N510 C507 1.384 . S
N511 C503 1.427 . S
N511 C509 1.384 . S
H512 C518 0.930 . S
H513 C522 0.930 . S
H514 C527 0.929 . S
H515 C525 0.929 . S
H516 C520 0.929 . S
H517 C526 0.929 . S
C518 H512 0.930 . S
C518 C519 1.367 . S
C518 C526 1.378 . S
C519 C518 1.367 . S
C519 C527 1.433 . S
C520 H516 0.929 . S
C520 C522 1.378 . S
C520 C524 1.350 . S
C521 C524 1.463 . S
C521 C526 1.350 . S
C521 N529 1.427 . S
C522 H513 0.930 . S
C522 C520 1.378 . S
C522 C523 1.367 . S
C523 C522 1.367 . S
C523 C525 1.433 . S
C524 C520 1.350 . S
C524 C521 1.463 . S
C524 N528 1.427 . S
C525 H515 0.929 . S
C525 C523 1.433 . S
C525 N528 1.384 . S
C526 H517 0.929 . S
C526 C518 1.378 . S
C526 C521 1.350 . S
C527 H514 0.929 . S
C527 C519 1.433 . S
C527 N529 1.384 . S
N528 C524 1.427 . S
N528 C525 1.384 . S
N529 C521 1.427 . S
N529 C527 1.384 . S
H530 C536 0.930 . S
H531 C540 0.930 . S
H532 C545 0.929 . S
H533 C543 0.929 . S
H534 C538 0.929 . S
H535 C544 0.929 . S
C536 H530 0.930 . S
C536 C537 1.367 . S
C536 C544 1.378 . S
C537 C536 1.367 . S
C537 C545 1.433 . S
C538 H534 0.929 . S
C538 C540 1.378 . S
C538 C542 1.350 . S
C539 C542 1.463 . S
C539 C544 1.350 . S
C539 N547 1.427 . S
C540 H531 0.930 . S
C540 C538 1.378 . S
C540 C541 1.367 . S
C541 C540 1.367 . S
C541 C543 1.433 . S
C542 C538 1.350 . S
C542 C539 1.463 . S
C542 N546 1.427 . S
C543 H533 0.929 . S
C543 C541 1.433 . S
C543 N546 1.384 . S
C544 H535 0.929 . S
C544 C536 1.378 . S
C544 C539 1.350 . S
C545 H532 0.929 . S
C545 C537 1.433 . S
C545 N547 1.384 . S
N546 C542 1.427 . S
N546 C543 1.384 . S
N547 C539 1.427 . S
N547 C545 1.384 . S
H548 C554 0.930 . S
H549 C558 0.930 . S
H550 C563 0.929 . S
H551 C561 0.929 . S
H552 C556 0.929 . S
H553 C562 0.929 . S
C554 H548 0.930 . S
C554 C555 1.367 . S
C554 C562 1.378 . S
C555 C554 1.367 . S
C555 C563 1.433 . S
C556 H552 0.929 . S
C556 C558 1.378 . S
C556 C560 1.350 . S
C557 C560 1.463 . S
C557 C562 1.350 . S
C557 N565 1.427 . S
C558 H549 0.930 . S
C558 C556 1.378 . S
C558 C559 1.367 . S
C559 C558 1.367 . S
C559 C561 1.433 . S
C560 C556 1.350 . S
C560 C557 1.463 . S
C560 N564 1.427 . S
C561 H551 0.929 . S
C561 C559 1.433 . S
C561 N564 1.384 . S
C562 H553 0.929 . S
C562 C554 1.378 . S
C562 C557 1.350 . S
C563 H550 0.929 . S
C563 C555 1.433 . S
C563 N565 1.384 . S
N564 C560 1.427 . S
N564 C561 1.384 . S
N565 C557 1.427 . S
N565 C563 1.384 . S
H566 C572 0.930 . S
H567 C576 0.930 . S
H568 C581 0.929 . S
H569 C579 0.929 . S
H570 C574 0.929 . S
H571 C580 0.929 . S
C572 H566 0.930 . S
C572 C573 1.367 . S
C572 C580 1.378 . S
C573 C572 1.367 . S
C573 C581 1.433 . S
C574 H570 0.929 . S
C574 C576 1.378 . S
C574 C578 1.350 . S
C575 C578 1.463 . S
C575 C580 1.350 . S
C575 N583 1.427 . S
C576 H567 0.930 . S
C576 C574 1.378 . S
C576 C577 1.367 . S
C577 C576 1.367 . S
C577 C579 1.433 . S
C578 C574 1.350 . S
C578 C575 1.463 . S
C578 N582 1.427 . S
C579 H569 0.929 . S
C579 C577 1.433 . S
C579 N582 1.384 . S
C580 H571 0.929 . S
C580 C572 1.378 . S
C580 C575 1.350 . S
C581 H568 0.929 . S
C581 C573 1.433 . S
C581 N583 1.384 . S
N582 C578 1.427 . S
N582 C579 1.384 . S
N583 C575 1.427 . S
N583 C581 1.384 . S
H584 C590 0.930 . S
H585 C594 0.930 . S
H586 C599 0.929 . S
H587 C597 0.929 . S
H588 C592 0.929 . S
H589 C598 0.929 . S
C590 H584 0.930 . S
C590 C591 1.367 . S
C590 C598 1.378 . S
C591 C590 1.367 . S
C591 C599 1.433 . S
C592 H588 0.929 . S
C592 C594 1.378 . S
C592 C596 1.350 . S
C593 C596 1.463 . S
C593 C598 1.350 . S
C593 N601 1.427 . S
C594 H585 0.930 . S
C594 C592 1.378 . S
C594 C595 1.367 . S
C595 C594 1.367 . S
C595 C597 1.433 . S
C596 C592 1.350 . S
C596 C593 1.463 . S
C596 N600 1.427 . S
C597 H587 0.929 . S
C597 C595 1.433 . S
C597 N600 1.384 . S
C598 H589 0.929 . S
C598 C590 1.378 . S
C598 C593 1.350 . S
C599 H586 0.929 . S
C599 C591 1.433 . S
C599 N601 1.384 . S
N600 C596 1.427 . S
N600 C597 1.384 . S
N601 C593 1.427 . S
N601 C599 1.384 . S
H602 C608 0.930 . S
H603 C612 0.930 . S
H604 C617 0.929 . S
H605 C615 0.929 . S
H606 C610 0.929 . S
H607 C616 0.929 . S
C608 H602 0.930 . S
C608 C609 1.367 . S
C608 C616 1.378 . S
C609 C608 1.367 . S
C609 C617 1.433 . S
C610 H606 0.929 . S
C610 C612 1.378 . S
C610 C614 1.350 . S
C611 C614 1.463 . S
C611 C616 1.350 . S
C611 N619 1.427 . S
C612 H603 0.930 . S
C612 C610 1.378 . S
C612 C613 1.367 . S
C613 C612 1.367 . S
C613 C615 1.433 . S
C614 C610 1.350 . S
C614 C611 1.463 . S
C614 N618 1.427 . S
C615 H605 0.929 . S
C615 C613 1.433 . S
C615 N618 1.384 . S
C616 H607 0.929 . S
C616 C608 1.378 . S
C616 C611 1.350 . S
C617 H604 0.929 . S
C617 C609 1.433 . S
C617 N619 1.384 . S
N618 C614 1.427 . S
N618 C615 1.384 . S
N619 C611 1.427 . S
N619 C617 1.384 . S
H620 C626 0.930 . S
H621 C630 0.930 . S
H622 C635 0.929 . S
H623 C633 0.929 . S
H624 C628 0.929 . S
H625 C634 0.929 . S
C626 H620 0.930 . S
C626 C627 1.367 . S
C626 C634 1.378 . S
C627 C626 1.367 . S
C627 C635 1.433 . S
C628 H624 0.929 . S
C628 C630 1.378 . S
C628 C632 1.350 . S
C629 C632 1.463 . S
C629 C634 1.350 . S
C629 N637 1.427 . S
C630 H621 0.930 . S
C630 C628 1.378 . S
C630 C631 1.367 . S
C631 C630 1.367 . S
C631 C633 1.433 . S
C632 C628 1.350 . S
C632 C629 1.463 . S
C632 N636 1.427 . S
C633 H623 0.929 . S
C633 C631 1.433 . S
C633 N636 1.384 . S
C634 H625 0.929 . S
C634 C626 1.378 . S
C634 C629 1.350 . S
C635 H622 0.929 . S
C635 C627 1.433 . S
C635 N637 1.384 . S
N636 C632 1.427 . S
N636 C633 1.384 . S
N637 C629 1.427 . S
N637 C635 1.384 . S
H638 C644 0.930 . S
H639 C648 0.930 . S
H640 C653 0.929 . S
H641 C651 0.929 . S
H642 C646 0.929 . S
H643 C652 0.929 . S
C644 H638 0.930 . S
C644 C645 1.367 . S
C644 C652 1.378 . S
C645 C644 1.367 . S
C645 C653 1.433 . S
C646 H642 0.929 . S
C646 C648 1.378 . S
C646 C650 1.350 . S
C647 C650 1.463 . S
C647 C652 1.350 . S
C647 N655 1.427 . S
C648 H639 0.930 . S
C648 C646 1.378 . S
C648 C649 1.367 . S
C649 C648 1.367 . S
C649 C651 1.433 . S
C650 C646 1.350 . S
C650 C647 1.463 . S
C650 N654 1.427 . S
C651 H641 0.929 . S
C651 C649 1.433 . S
C651 N654 1.384 . S
C652 H643 0.929 . S
C652 C644 1.378 . S
C652 C647 1.350 . S
C653 H640 0.929 . S
C653 C645 1.433 . S
C653 N655 1.384 . S
N654 C650 1.427 . S
N654 C651 1.384 . S
N655 C647 1.427 . S
N655 C653 1.384 . S
H656 C662 0.930 . S
H657 C666 0.930 . S
H658 C671 0.929 . S
H659 C669 0.929 . S
H660 C664 0.929 . S
H661 C670 0.929 . S
C662 H656 0.930 . S
C662 C663 1.367 . S
C662 C670 1.378 . S
C663 C662 1.367 . S
C663 C671 1.433 . S
C664 H660 0.929 . S
C664 C666 1.378 . S
C664 C668 1.350 . S
C665 C668 1.463 . S
C665 C670 1.350 . S
C665 N673 1.427 . S
C666 H657 0.930 . S
C666 C664 1.378 . S
C666 C667 1.367 . S
C667 C666 1.367 . S
C667 C669 1.433 . S
C668 C664 1.350 . S
C668 C665 1.463 . S
C668 N672 1.427 . S
C669 H659 0.929 . S
C669 C667 1.433 . S
C669 N672 1.384 . S
C670 H661 0.929 . S
C670 C662 1.378 . S
C670 C665 1.350 . S
C671 H658 0.929 . S
C671 C663 1.433 . S
C671 N673 1.384 . S
N672 C668 1.427 . S
N672 C669 1.384 . S
N673 C665 1.427 . S
N673 C671 1.384 . S
H674 C680 0.930 . S
H675 C684 0.930 . S
H676 C689 0.929 . S
H677 C687 0.929 . S
H678 C682 0.929 . S
H679 C688 0.929 . S
C680 H674 0.930 . S
C680 C681 1.367 . S
C680 C688 1.378 . S
C681 C680 1.367 . S
C681 C689 1.433 . S
C682 H678 0.929 . S
C682 C684 1.378 . S
C682 C686 1.350 . S
C683 C686 1.463 . S
C683 C688 1.350 . S
C683 N691 1.427 . S
C684 H675 0.930 . S
C684 C682 1.378 . S
C684 C685 1.367 . S
C685 C684 1.367 . S
C685 C687 1.433 . S
C686 C682 1.350 . S
C686 C683 1.463 . S
C686 N690 1.427 . S
C687 H677 0.929 . S
C687 C685 1.433 . S
C687 N690 1.384 . S
C688 H679 0.929 . S
C688 C680 1.378 . S
C688 C683 1.350 . S
C689 H676 0.929 . S
C689 C681 1.433 . S
C689 N691 1.384 . S
N690 C686 1.427 . S
N690 C687 1.384 . S
N691 C683 1.427 . S
N691 C689 1.384 . S
H692 C698 0.930 . S
H693 C702 0.930 . S
H694 C707 0.929 . S
H695 C705 0.929 . S
H696 C700 0.929 . S
H697 C706 0.929 . S
C698 H692 0.930 . S
C698 C699 1.367 . S
C698 C706 1.378 . S
C699 C698 1.367 . S
C699 C707 1.433 . S
C700 H696 0.929 . S
C700 C702 1.378 . S
C700 C704 1.350 . S
C701 C704 1.463 . S
C701 C706 1.350 . S
C701 N709 1.427 . S
C702 H693 0.930 . S
C702 C700 1.378 . S
C702 C703 1.367 . S
C703 C702 1.367 . S
C703 C705 1.433 . S
C704 C700 1.350 . S
C704 C701 1.463 . S
C704 N708 1.427 . S
C705 H695 0.929 . S
C705 C703 1.433 . S
C705 N708 1.384 . S
C706 H697 0.929 . S
C706 C698 1.378 . S
C706 C701 1.350 . S
C707 H694 0.929 . S
C707 C699 1.433 . S
C707 N709 1.384 . S
N708 C704 1.427 . S
N708 C705 1.384 . S
N709 C701 1.427 . S
N709 C707 1.384 . S
H710 C716 0.930 . S
H711 C720 0.930 . S
H712 C725 0.929 . S
H713 C723 0.929 . S
H714 C718 0.929 . S
H715 C724 0.929 . S
C716 H710 0.930 . S
C716 C717 1.367 . S
C716 C724 1.378 . S
C717 C716 1.367 . S
C717 C725 1.433 . S
C718 H714 0.929 . S
C718 C720 1.378 . S
C718 C722 1.350 . S
C719 C722 1.463 . S
C719 C724 1.350 . S
C719 N727 1.427 . S
C720 H711 0.930 . S
C720 C718 1.378 . S
C720 C721 1.367 . S
C721 C720 1.367 . S
C721 C723 1.433 . S
C722 C718 1.350 . S
C722 C719 1.463 . S
C722 N726 1.427 . S
C723 H713 0.929 . S
C723 C721 1.433 . S
C723 N726 1.384 . S
C724 H715 0.929 . S
C724 C716 1.378 . S
C724 C719 1.350 . S
C725 H712 0.929 . S
C725 C717 1.433 . S
C725 N727 1.384 . S
N726 C722 1.427 . S
N726 C723 1.384 . S
N727 C719 1.427 . S
N727 C725 1.384 . S
H728 C734 0.930 . S
H729 C738 0.930 . S
H730 C743 0.929 . S
H731 C741 0.929 . S
H732 C736 0.929 . S
H733 C742 0.929 . S
C734 H728 0.930 . S
C734 C735 1.367 . S
C734 C742 1.378 . S
C735 C734 1.367 . S
C735 C743 1.433 . S
C736 H732 0.929 . S
C736 C738 1.378 . S
C736 C740 1.350 . S
C737 C740 1.463 . S
C737 C742 1.350 . S
C737 N745 1.427 . S
C738 H729 0.930 . S
C738 C736 1.378 . S
C738 C739 1.367 . S
C739 C738 1.367 . S
C739 C741 1.433 . S
C740 C736 1.350 . S
C740 C737 1.463 . S
C740 N744 1.427 . S
C741 H731 0.929 . S
C741 C739 1.433 . S
C741 N744 1.384 . S
C742 H733 0.929 . S
C742 C734 1.378 . S
C742 C737 1.350 . S
C743 H730 0.929 . S
C743 C735 1.433 . S
C743 N745 1.384 . S
N744 C740 1.427 . S
N744 C741 1.384 . S
N745 C737 1.427 . S
N745 C743 1.384 . S
H746 C752 0.930 . S
H747 C756 0.930 . S
H748 C761 0.929 . S
H749 C759 0.929 . S
H750 C754 0.929 . S
H751 C760 0.929 . S
C752 H746 0.930 . S
C752 C753 1.367 . S
C752 C760 1.378 . S
C753 C752 1.367 . S
C753 C761 1.433 . S
C754 H750 0.929 . S
C754 C756 1.378 . S
C754 C758 1.350 . S
C755 C758 1.463 . S
C755 C760 1.350 . S
C755 N763 1.427 . S
C756 H747 0.930 . S
C756 C754 1.378 . S
C756 C757 1.367 . S
C757 C756 1.367 . S
C757 C759 1.433 . S
C758 C754 1.350 . S
C758 C755 1.463 . S
C758 N762 1.427 . S
C759 H749 0.929 . S
C759 C757 1.433 . S
C759 N762 1.384 . S
C760 H751 0.929 . S
C760 C752 1.378 . S
C760 C755 1.350 . S
C761 H748 0.929 . S
C761 C753 1.433 . S
C761 N763 1.384 . S
N762 C758 1.427 . S
N762 C759 1.384 . S
N763 C755 1.427 . S
N763 C761 1.384 . S
H764 C770 0.930 . S
H765 C774 0.930 . S
H766 C779 0.929 . S
H767 C777 0.929 . S
H768 C772 0.929 . S
H769 C778 0.929 . S
C770 H764 0.930 . S
C770 C771 1.367 . S
C770 C778 1.378 . S
C771 C770 1.367 . S
C771 C779 1.433 . S
C772 H768 0.929 . S
C772 C774 1.378 . S
C772 C776 1.350 . S
C773 C776 1.463 . S
C773 C778 1.350 . S
C773 N781 1.427 . S
C774 H765 0.930 . S
C774 C772 1.378 . S
C774 C775 1.367 . S
C775 C774 1.367 . S
C775 C777 1.433 . S
C776 C772 1.350 . S
C776 C773 1.463 . S
C776 N780 1.427 . S
C777 H767 0.929 . S
C777 C775 1.433 . S
C777 N780 1.384 . S
C778 H769 0.929 . S
C778 C770 1.378 . S
C778 C773 1.350 . S
C779 H766 0.929 . S
C779 C771 1.433 . S
C779 N781 1.384 . S
N780 C776 1.427 . S
N780 C777 1.384 . S
N781 C773 1.427 . S
N781 C779 1.384 . S
H782 C788 0.930 . S
H783 C792 0.930 . S
H784 C797 0.929 . S
H785 C795 0.929 . S
H786 C790 0.929 . S
H787 C796 0.929 . S
C788 H782 0.930 . S
C788 C789 1.367 . S
C788 C796 1.378 . S
C789 C788 1.367 . S
C789 C797 1.433 . S
C790 H786 0.929 . S
C790 C792 1.378 . S
C790 C794 1.350 . S
C791 C794 1.463 . S
C791 C796 1.350 . S
C791 N799 1.427 . S
C792 H783 0.930 . S
C792 C790 1.378 . S
C792 C793 1.367 . S
C793 C792 1.367 . S
C793 C795 1.433 . S
C794 C790 1.350 . S
C794 C791 1.463 . S
C794 N798 1.427 . S
C795 H785 0.929 . S
C795 C793 1.433 . S
C795 N798 1.384 . S
C796 H787 0.929 . S
C796 C788 1.378 . S
C796 C791 1.350 . S
C797 H784 0.929 . S
C797 C789 1.433 . S
C797 N799 1.384 . S
N798 C794 1.427 . S
N798 C795 1.384 . S
N799 C791 1.427 . S
N799 C797 1.384 . S
C231 C67 1.405 . S
C235 C11 1.408 . S
C249 C81 1.407 . S
C253 C25 1.405 . S
C267 C95 1.408 . S
C271 C39 1.406 . S
C285 C109 1.406 . S
C289 C53 1.408 . S
C303 C179 1.405 . S
C307 C123 1.408 . S
C321 C193 1.405 . S
C325 C137 1.408 . S
C339 C151 1.406 . S
C343 C207 1.406 . S
C357 C221 1.407 . S
C361 C165 1.405 . S
C375 C5 1.466 . S
C379 C75 1.469 . S
C393 C89 1.468 . S
C397 C19 1.467 . S
C411 C33 1.467 . S
C415 C103 1.469 . S
C429 C61 1.467 . S
C433 C47 1.469 . S
C447 C187 1.468 . S
C451 C117 1.467 . S
C465 C201 1.469 . S
C469 C131 1.466 . S
C483 C145 1.466 . S
C487 C215 1.469 . S
C501 C159 1.468 . S
C505 C173 1.468 . S
C519 C219 1.448 . S
C523 C9 1.449 . S
C537 C177 1.447 . S
C541 C23 1.449 . S
C555 C191 1.447 . S
C559 C37 1.445 . S
C573 C205 1.443 . S
C577 C51 1.445 . S
C591 C135 1.449 . S
C595 C65 1.449 . S
C609 C149 1.444 . S
C613 C79 1.447 . S
C627 C93 1.449 . S
C631 C163 1.449 . S
C645 C107 1.448 . S
C649 C121 1.446 . S
C663 C182 1.370 . S
C667 C28 1.363 . S
C681 C196 1.365 . S
C685 C42 1.366 . S
C699 C210 1.364 . S
C703 C0 1.370 . S
C717 C14 1.369 . S
C721 C168 1.363 . S
C735 C154 1.370 . S
C739 C84 1.363 . S
C753 C98 1.363 . S
C757 C112 1.370 . S
C771 C126 1.367 . S
C775 C56 1.368 . S
C789 C140 1.366 . S
C793 C70 1.368 . S
