# Generated by pormake.
# Topology wke, (5)-cn, num edge types: 1
# Building blocks:
#     Node 0, Type 0, BuildingBlock: BEQFEK_clean_sbu_0, # of connection points: 5
#     Node 1, Type 0, BuildingBlock: BEQFEK_clean_sbu_0, # of connection points: 5
#     Node 2, Type 0, BuildingBlock: BEQFEK_clean_sbu_0, # of connection points: 5
#     Node 3, Type 0, BuildingBlock: BEQFEK_clean_sbu_0, # of connection points: 5
#     Node 4, Type 0, BuildingBlock: BEQFEK_clean_sbu_0, # of connection points: 5
#     Node 5, Type 0, BuildingBlock: BEQFEK_clean_sbu_0, # of connection points: 5
#     Node 6, Type 0, BuildingBlock: BEQFEK_clean_sbu_0, # of connection points: 5
#     Node 7, Type 0, BuildingBlock: BEQFEK_clean_sbu_0, # of connection points: 5
#     Node 8, Type 0, BuildingBlock: BEQFEK_clean_sbu_0, # of connection points: 5
#     Node 9, Type 0, BuildingBlock: BEQFEK_clean_sbu_0, # of connection points: 5
#     Node 10, Type 0, BuildingBlock: BEQFEK_clean_sbu_0, # of connection points: 5
#     Node 11, Type 0, BuildingBlock: BEQFEK_clean_sbu_0, # of connection points: 5
#     Edge 12, Type (0, 0), BuildingBlock: MIFKUJ_clean_linker_0, # of connection points: 2
#     Edge 13, Type (0, 0), BuildingBlock: MIFKUJ_clean_linker_0, # of connection points: 2
#     Edge 14, Type (0, 0), BuildingBlock: MIFKUJ_clean_linker_0, # of connection points: 2
#     Edge 15, Type (0, 0), BuildingBlock: MIFKUJ_clean_linker_0, # of connection points: 2
#     Edge 16, Type (0, 0), BuildingBlock: MIFKUJ_clean_linker_0, # of connection points: 2
#     Edge 17, Type (0, 0), BuildingBlock: MIFKUJ_clean_linker_0, # of connection points: 2
#     Edge 18, Type (0, 0), BuildingBlock: MIFKUJ_clean_linker_0, # of connection points: 2
#     Edge 19, Type (0, 0), BuildingBlock: MIFKUJ_clean_linker_0, # of connection points: 2
#     Edge 20, Type (0, 0), BuildingBlock: MIFKUJ_clean_linker_0, # of connection points: 2
#     Edge 21, Type (0, 0), BuildingBlock: MIFKUJ_clean_linker_0, # of connection points: 2
#     Edge 22, Type (0, 0), BuildingBlock: MIFKUJ_clean_linker_0, # of connection points: 2
#     Edge 23, Type (0, 0), BuildingBlock: MIFKUJ_clean_linker_0, # of connection points: 2
#     Edge 24, Type (0, 0), BuildingBlock: MIFKUJ_clean_linker_0, # of connection points: 2
#     Edge 25, Type (0, 0), BuildingBlock: MIFKUJ_clean_linker_0, # of connection points: 2
#     Edge 26, Type (0, 0), BuildingBlock: MIFKUJ_clean_linker_0, # of connection points: 2
#     Edge 27, Type (0, 0), BuildingBlock: MIFKUJ_clean_linker_0, # of connection points: 2
#     Edge 28, Type (0, 0), BuildingBlock: MIFKUJ_clean_linker_0, # of connection points: 2
#     Edge 29, Type (0, 0), BuildingBlock: MIFKUJ_clean_linker_0, # of connection points: 2
#     Edge 30, Type (0, 0), BuildingBlock: MIFKUJ_clean_linker_0, # of connection points: 2
#     Edge 31, Type (0, 0), BuildingBlock: MIFKUJ_clean_linker_0, # of connection points: 2
#     Edge 32, Type (0, 0), BuildingBlock: MIFKUJ_clean_linker_0, # of connection points: 2
#     Edge 33, Type (0, 0), BuildingBlock: MIFKUJ_clean_linker_0, # of connection points: 2
#     Edge 34, Type (0, 0), BuildingBlock: MIFKUJ_clean_linker_0, # of connection points: 2
#     Edge 35, Type (0, 0), BuildingBlock: MIFKUJ_clean_linker_0, # of connection points: 2
#     Edge 36, Type (0, 0), BuildingBlock: MIFKUJ_clean_linker_0, # of connection points: 2
#     Edge 37, Type (0, 0), BuildingBlock: MIFKUJ_clean_linker_0, # of connection points: 2
#     Edge 38, Type (0, 0), BuildingBlock: MIFKUJ_clean_linker_0, # of connection points: 2
#     Edge 39, Type (0, 0), BuildingBlock: MIFKUJ_clean_linker_0, # of connection points: 2
#     Edge 40, Type (0, 0), BuildingBlock: MIFKUJ_clean_linker_0, # of connection points: 2
#     Edge 41, Type (0, 0), BuildingBlock: MIFKUJ_clean_linker_0, # of connection points: 2
# Relax obj value: 0.203
# Max RMSD: 0.170
# Mean RMSD: 0.170
data_MOF--net-wke--node1-BEQFEK_clean_sbu_0--edge1-MIFKUJ_clean_linker_0
_symmetry_space_group_name_H-M    P1
_symmetry_Int_Tables_number       1
_symmetry_cell_setting            triclinic
loop_
_symmetry_equiv_pos_as_xyz
'x, y, z'
_cell_length_a     92.838022
_cell_length_b     92.82859
_cell_length_c     22.934226
_cell_angle_alpha  89.989084
_cell_angle_beta   89.978416
_cell_angle_gamma 119.98912
loop_
_atom_site_label
_atom_site_type_symbol
_atom_site_fract_x
_atom_site_fract_y
_atom_site_fract_z
_atom_type_partial_charge
Co0 Co 0.10856 0.45034 0.27046 0.0
Co1 Co 0.12092 0.46249 0.3962 0.0
C2 C 0.08541 0.43558 0.36838 0.0
O3 O 0.08786 0.43538 0.31386 0.0
O4 O 0.09705 0.44552 0.40192 0.0
C5 C 0.09571 0.43088 0.16338 0.0
O6 O 0.08484 0.4184 0.19528 0.0
C7 C 0.12409 0.45344 0.51256 0.0
C8 C 0.13685 0.47734 0.5597 0.0
C9 C 0.12909 0.46023 0.56782 0.0
N10 N 0.12839 0.46587 0.47432 0.0
N11 N 0.13617 0.48017 0.50243 0.0
C12 C 0.11569 0.43552 0.49488 0.0
H13 H 0.11855 0.43438 0.44872 0.0
H14 H 0.11971 0.42847 0.52314 0.0
H15 H 0.10202 0.43001 0.49861 0.0
C16 C 0.13768 0.44518 0.27185 0.0
N17 N 0.12718 0.44916 0.29836 0.0
N18 N 0.13288 0.455 0.35067 0.0
C19 C 0.14735 0.45518 0.3589 0.0
C20 C 0.15081 0.44885 0.30933 0.0
C21 C 0.13605 0.43968 0.20965 0.0
H22 H 0.13633 0.44943 0.18094 0.0
H23 H 0.12391 0.42815 0.20354 0.0
H24 H 0.14619 0.43733 0.19642 0.0
O25 O 0.1132 0.47373 0.27432 0.0
O26 O 0.12298 0.48311 0.36303 0.0
H27 H 0.1594 0.4741 0.42374 0.0
H28 H 0.17019 0.46282 0.40695 0.0
C29 C 0.15783 0.46177 0.41254 0.0
H30 H 0.15138 0.45324 0.44947 0.0
H31 H 0.14041 0.49177 0.48297 0.0
O32 O 0.10581 0.44459 0.18746 0.0
C33 C 0.11896 0.48536 0.31213 0.0
Co34 Co 0.66103 0.10781 0.78198 0.0
Co35 Co 0.66192 0.11974 0.90968 0.0
C36 C 0.65354 0.08463 0.88186 0.0
O37 O 0.65548 0.0874 0.82724 0.0
O38 O 0.65558 0.09601 0.9174 0.0
C39 C 0.67165 0.09761 0.67817 0.0
O40 O 0.68054 0.09387 0.713 0.0
C41 C 0.67349 0.12558 0.02998 0.0
C42 C 0.66105 0.13862 0.06595 0.0
C43 C 0.67076 0.13172 0.0814 0.0
N44 N 0.66568 0.12862 0.98646 0.0
N45 N 0.65854 0.1367 0.008 0.0
C46 C 0.68188 0.11548 0.02302 0.0
H47 H 0.6814 0.11154 0.97715 0.0
H48 H 0.69514 0.12303 0.03561 0.0
H49 H 0.67593 0.10444 0.05205 0.0
C50 C 0.69467 0.13821 0.78077 0.0
N51 N 0.68075 0.12692 0.80855 0.0
N52 N 0.68118 0.13183 0.86268 0.0
C53 C 0.69548 0.14628 0.87126 0.0
C54 C 0.70449 0.15078 0.81967 0.0
C55 C 0.69822 0.13732 0.71759 0.0
H56 H 0.68721 0.13476 0.69106 0.0
H57 H 0.70078 0.12698 0.71119 0.0
H58 H 0.7092 0.14893 0.70209 0.0
O59 O 0.64227 0.11222 0.78569 0.0
O60 O 0.64278 0.12096 0.87617 0.0
H61 H 0.6889 0.15792 0.93856 0.0
H62 H 0.71079 0.16885 0.92035 0.0
C63 C 0.69959 0.1564 0.92587 0.0
H64 H 0.70187 0.14973 0.96158 0.0
H65 H 0.65121 0.14012 0.98372 0.0
O66 O 0.66301 0.1035 0.69921 0.0
C67 C 0.6364 0.11743 0.82535 0.0
Co68 Co 0.55497 0.65831 0.28313 0.0
Co69 Co 0.54354 0.66131 0.40807 0.0
C70 C 0.57011 0.65188 0.38551 0.0
O71 O 0.57017 0.65387 0.33054 0.0
O72 O 0.56024 0.65397 0.41839 0.0
C73 C 0.57429 0.66666 0.17461 0.0
O74 O 0.58779 0.67543 0.20579 0.0
C75 C 0.5495 0.67317 0.52818 0.0
C76 C 0.52441 0.66707 0.55764 0.0
C77 C 0.54068 0.67354 0.57653 0.0
N78 N 0.53891 0.66679 0.48309 0.0
N79 N 0.52399 0.6634 0.50068 0.0
C80 C 0.56716 0.67687 0.52569 0.0
H81 H 0.56762 0.66566 0.53956 0.0
H82 H 0.57199 0.68014 0.48053 0.0
H83 H 0.57538 0.68721 0.55485 0.0
C84 C 0.55913 0.69236 0.27389 0.0
N85 N 0.5559 0.67862 0.30442 0.0
N86 N 0.55129 0.6799 0.35755 0.0
C87 C 0.55153 0.69449 0.36261 0.0
C88 C 0.55654 0.70288 0.30984 0.0
C89 C 0.56271 0.69453 0.20983 0.0
H90 H 0.55419 0.68286 0.18655 0.0
H91 H 0.57569 0.69744 0.20225 0.0
H92 H 0.56122 0.70477 0.19155 0.0
O93 O 0.53189 0.63938 0.29095 0.0
O94 O 0.5227 0.64249 0.37675 0.0
H95 H 0.53331 0.69134 0.42603 0.0
H96 H 0.54867 0.71285 0.41192 0.0
C97 C 0.54662 0.70006 0.41652 0.0
H98 H 0.55406 0.6998 0.45389 0.0
H99 H 0.51341 0.65802 0.47434 0.0
O100 O 0.56025 0.65884 0.19981 0.0
C101 C 0.52036 0.63474 0.32876 0.0
Co102 Co 0.89545 0.55472 0.78648 0.0
Co103 Co 0.88264 0.53964 0.90878 0.0
C104 C 0.91819 0.56711 0.88768 0.0
O105 O 0.91573 0.56827 0.8337 0.0
O106 O 0.90654 0.55657 0.92015 0.0
C107 C 0.91137 0.56663 0.67529 0.0
O108 O 0.92334 0.56451 0.69635 0.0
C109 C 0.87772 0.54182 0.03138 0.0
C110 C 0.86092 0.51576 0.05753 0.0
C111 C 0.87013 0.53179 0.07895 0.0
N112 N 0.87336 0.53227 0.98364 0.0
N113 N 0.86311 0.51669 -0.00079 0.0
C114 C 0.88922 0.56023 0.03155 0.0
H115 H 0.88923 0.56559 0.98829 0.0
H116 H 0.88548 0.56616 0.06583 0.0
H117 H 0.90199 0.56288 0.04162 0.0
C118 C 0.86603 0.55931 0.79326 0.0
N119 N 0.87655 0.55492 0.81703 0.0
N120 N 0.87104 0.54852 0.8689 0.0
C121 C 0.85682 0.54864 0.87995 0.0
C122 C 0.85317 0.55548 0.83224 0.0
C123 C 0.86807 0.56663 0.73365 0.0
H124 H 0.88093 0.57719 0.7285 0.0
H125 H 0.85917 0.57111 0.72581 0.0
H126 H 0.86605 0.55706 0.70065 0.0
O127 O 0.89127 0.53152 0.77952 0.0
O128 O 0.88113 0.52046 0.86614 0.0
H129 H 0.83407 0.54049 0.92923 0.0
H130 H 0.85284 0.54795 0.97187 0.0
C131 C 0.84615 0.54081 0.93248 0.0
H132 H 0.84382 0.52794 0.93758 0.0
H133 H 0.85815 0.50664 0.97043 0.0
O134 O 0.89904 0.56362 0.70731 0.0
C135 C 0.88539 0.51919 0.81447 0.0
Co136 Co 0.34771 0.89663 0.27891 0.0
Co137 Co 0.34405 0.88346 0.40688 0.0
C138 C 0.35284 0.91889 0.37987 0.0
O139 O 0.35246 0.91671 0.32488 0.0
O140 O 0.34981 0.90714 0.41538 0.0
C141 C 0.34083 0.9083 0.16876 0.0
O142 O 0.33372 0.91507 0.19902 0.0
C143 C 0.33409 0.87772 0.53015 0.0
C144 C 0.33445 0.85457 0.54932 0.0
C145 C 0.33115 0.86623 0.57391 0.0
N146 N 0.33852 0.87283 0.48153 0.0
N147 N 0.33876 0.85901 0.49332 0.0
C148 C 0.33487 0.89417 0.5357 0.0
H149 H 0.34783 0.90414 0.52713 0.0
H150 H 0.32669 0.89507 0.50239 0.0
H151 H 0.3314 0.89636 0.57956 0.0
C152 C 0.31367 0.86713 0.27039 0.0
N153 N 0.32739 0.87754 0.30105 0.0
N154 N 0.32569 0.87209 0.35504 0.0
C155 C 0.31063 0.85827 0.36071 0.0
C156 C 0.30259 0.85465 0.30721 0.0
C157 C 0.31126 0.86905 0.20693 0.0
H158 H 0.3108 0.88064 0.20046 0.0
H159 H 0.29953 0.8585 0.19012 0.0
H160 H 0.32191 0.87003 0.18165 0.0
O161 O 0.36616 0.89206 0.28775 0.0
O162 O 0.36392 0.88261 0.37803 0.0
H163 H 0.29137 0.83807 0.41147 0.0
H164 H 0.3059 0.85617 0.45259 0.0
C165 C 0.30455 0.84804 0.41512 0.0
H166 H 0.31221 0.84217 0.42356 0.0
H167 H 0.342 0.85268 0.4632 0.0
O168 O 0.34716 0.90075 0.195 0.0
C169 C 0.37126 0.88653 0.32879 0.0
Co170 Co 0.44676 0.33949 0.77997 0.0
Co171 Co 0.46243 0.34428 0.9025 0.0
C172 C 0.43451 0.35144 0.87622 0.0
O173 O 0.43295 0.34673 0.82334 0.0
O174 O 0.44539 0.35114 0.9091 0.0
C175 C 0.4292 0.33702 0.6718 0.0
O176 O 0.42464 0.34707 0.69499 0.0
C177 C 0.45859 0.3381 0.02492 0.0
C178 C 0.48417 0.34777 0.0576 0.0
C179 C 0.46773 0.34077 0.07523 0.0
N180 N 0.46906 0.34347 0.97956 0.0
N181 N 0.48436 0.34916 -0.00099 0.0
C182 C 0.44007 0.32986 0.01932 0.0
H183 H 0.43602 0.32363 0.9763 0.0
H184 H 0.43383 0.32063 0.05473 0.0
H185 H 0.43625 0.3394 0.02248 0.0
C186 C 0.44238 0.30579 0.7959 0.0
N187 N 0.44677 0.3211 0.81584 0.0
N188 N 0.45397 0.32326 0.8669 0.0
C189 C 0.45467 0.3095 0.88074 0.0
C190 C 0.44725 0.29793 0.83631 0.0
C191 C 0.43547 0.29963 0.73635 0.0
H192 H 0.42447 0.30112 0.72915 0.0
H193 H 0.43187 0.28641 0.73017 0.0
H194 H 0.44504 0.30727 0.70345 0.0
O195 O 0.47 0.35859 0.77111 0.0
O196 O 0.48145 0.36147 0.85846 0.0
H197 H 0.47592 0.3184 0.93638 0.0
H198 H 0.46307 0.29592 0.93451 0.0
C199 C 0.46298 0.30782 0.93412 0.0
H200 H 0.45627 0.30836 0.97332 0.0
H201 H 0.49492 0.35429 0.97255 0.0
O202 O 0.43808 0.33277 0.70098 0.0
C203 C 0.48242 0.36593 0.80543 0.0
Co204 Co 0.5561 0.89371 0.20476 0.0
Co205 Co 0.54088 0.88325 0.08159 0.0
C206 C 0.5689 0.91816 0.10899 0.0
O207 O 0.57002 0.91488 0.16213 0.0
O208 O 0.55823 0.90709 0.07526 0.0
C209 C 0.57435 0.90841 0.31245 0.0
O210 O 0.58004 0.92315 0.28864 0.0
C211 C 0.54502 0.8805 0.95966 0.0
C212 C 0.51942 0.86577 0.92569 0.0
C213 C 0.53599 0.87442 0.90894 0.0
N214 N 0.53438 0.87593 0.00443 0.0
N215 N 0.51906 0.867 0.98421 0.0
C216 C 0.56355 0.88988 0.96623 0.0
H217 H 0.56714 0.88776 0.0102 0.0
H218 H 0.56947 0.88602 0.93228 0.0
H219 H 0.5682 0.90336 0.96113 0.0
C220 C 0.5606 0.86445 0.18819 0.0
N221 N 0.55618 0.87537 0.16854 0.0
N222 N 0.54913 0.87048 0.1172 0.0
C223 C 0.54856 0.85612 0.10286 0.0
C224 C 0.55595 0.8519 0.1472 0.0
C225 C 0.5673 0.86498 0.24796 0.0
H226 H 0.55763 0.86296 0.28051 0.0
H227 H 0.57829 0.87743 0.25583 0.0
H228 H 0.57084 0.8553 0.25404 0.0
O229 O 0.53285 0.88953 0.21317 0.0
O230 O 0.52175 0.88142 0.12519 0.0
H231 H 0.52772 0.84445 0.04505 0.0
H232 H 0.53982 0.83404 0.0494 0.0
C233 C 0.54044 0.84629 0.04902 0.0
H234 H 0.54767 0.85337 0.01032 0.0
H235 H 0.50839 0.86211 0.01009 0.0
O236 O 0.5646 0.89544 0.28391 0.0
C237 C 0.52056 0.88463 0.17836 0.0
Co238 Co 0.65537 0.55092 0.7306 0.0
Co239 Co 0.66033 0.54337 0.60165 0.0
C240 C 0.65184 0.56984 0.63102 0.0
O241 O 0.65154 0.56711 0.68561 0.0
O242 O 0.65516 0.56162 0.5943 0.0
C243 C 0.66405 0.56956 0.83878 0.0
O244 O 0.67301 0.58281 0.8066 0.0
C245 C 0.67004 0.54767 0.47798 0.0
C246 C 0.67224 0.5254 0.46101 0.0
C247 C 0.67411 0.53973 0.43525 0.0
N248 N 0.66637 0.53868 0.52727 0.0
N249 N 0.66763 0.52535 0.51676 0.0
C250 C 0.66791 0.56253 0.47098 0.0
H251 H 0.65509 0.55911 0.48406 0.0
H252 H 0.67675 0.57261 0.50022 0.0
H253 H 0.66979 0.56714 0.42552 0.0
C254 C 0.68864 0.5536 0.74241 0.0
N255 N 0.67559 0.55163 0.71032 0.0
N256 N 0.67811 0.54944 0.6554 0.0
C257 C 0.69322 0.55079 0.65035 0.0
C258 C 0.70034 0.55327 0.70544 0.0
C259 C 0.68903 0.5538 0.80771 0.0
H260 H 0.67638 0.54563 0.8254 0.0
H261 H 0.69362 0.56668 0.82331 0.0
H262 H 0.69738 0.54944 0.82462 0.0
O263 O 0.63662 0.52833 0.71848 0.0
O264 O 0.63986 0.52254 0.62724 0.0
H265 H 0.69658 0.53754 0.58042 0.0
H266 H 0.71483 0.55714 0.59723 0.0
C267 C 0.70108 0.55061 0.59355 0.0
H268 H 0.69765 0.55677 0.5593 0.0
H269 H 0.66533 0.5162 0.5477 0.0
O270 O 0.65558 0.55549 0.81433 0.0
C271 C 0.63187 0.51841 0.67529 0.0
Co272 Co 0.10795 0.65967 0.21812 0.0
Co273 Co 0.11923 0.66125 0.0893 0.0
C274 C 0.08408 0.65169 0.11947 0.0
O275 O 0.0872 0.65352 0.17387 0.0
O276 O 0.09535 0.65427 0.08263 0.0
C277 C 0.09871 0.67131 0.32057 0.0
O278 O 0.09668 0.68124 0.28493 0.0
C279 C 0.12414 0.67225 0.96829 0.0
C280 C 0.13942 0.66205 0.93371 0.0
C281 C 0.13121 0.67046 0.91759 0.0
N282 N 0.12803 0.66527 0.01236 0.0
N283 N 0.13739 0.65943 0.99163 0.0
C284 C 0.11249 0.67893 0.97391 0.0
H285 H 0.10969 0.6798 0.0203 0.0
H286 H 0.11809 0.69152 0.95449 0.0
H287 H 0.10082 0.67073 0.94993 0.0
C288 C 0.13803 0.69365 0.21906 0.0
N289 N 0.12669 0.67973 0.19136 0.0
N290 N 0.13106 0.68058 0.13633 0.0
C291 C 0.14505 0.69525 0.12686 0.0
C292 C 0.14999 0.70403 0.17905 0.0
C293 C 0.13873 0.69597 0.28382 0.0
H294 H 0.13408 0.68387 0.30619 0.0
H295 H 0.13081 0.7013 0.29626 0.0
H296 H 0.15161 0.70459 0.29875 0.0
O297 O 0.113 0.6414 0.21371 0.0
O298 O 0.12118 0.64238 0.12209 0.0
H299 H 0.15832 0.69245 0.05558 0.0
H300 H 0.1637 0.7138 0.06929 0.0
C301 C 0.15344 0.7007 0.06878 0.0
H302 H 0.14423 0.69959 0.03581 0.0
H303 H 0.14174 0.65298 0.0165 0.0
O304 O 0.10337 0.66154 0.30058 0.0
C305 C 0.11819 0.63589 0.17281 0.0
Co306 Co 0.44935 0.1047 0.73086 0.0
Co307 Co 0.46124 0.11787 0.60467 0.0
C308 C 0.43463 0.08231 0.62909 0.0
O309 O 0.43462 0.0846 0.68384 0.0
O310 O 0.44443 0.09405 0.59548 0.0
C311 C 0.42858 0.09448 0.83535 0.0
O312 O 0.41604 0.09162 0.8013 0.0
C313 C 0.45533 0.12311 0.48417 0.0
C314 C 0.48079 0.13815 0.44927 0.0
C315 C 0.46417 0.12996 0.43318 0.0
N316 N 0.46621 0.12705 0.52818 0.0
N317 N 0.48141 0.1363 0.5073 0.0
C318 C 0.43704 0.11131 0.4902 0.0
H319 H 0.43329 0.10964 0.53672 0.0
H320 H 0.42983 0.11602 0.46656 0.0
H321 H 0.43394 0.09911 0.47107 0.0
C322 C 0.44533 0.13474 0.73392 0.0
N323 N 0.44853 0.12387 0.7058 0.0
N324 N 0.45343 0.12928 0.65233 0.0
C325 C 0.45341 0.14367 0.64464 0.0
C326 C 0.44821 0.14756 0.696 0.0
C327 C 0.44164 0.13405 0.79774 0.0
H328 H 0.44936 0.13012 0.82242 0.0
H329 H 0.42834 0.12488 0.80527 0.0
H330 H 0.44413 0.1463 0.81444 0.0
O331 O 0.47268 0.10935 0.72715 0.0
O332 O 0.48166 0.11956 0.63857 0.0
H333 H 0.47176 0.15721 0.57944 0.0
H334 H 0.45764 0.16502 0.59283 0.0
C335 C 0.45871 0.15367 0.58959 0.0
H336 H 0.45077 0.14594 0.55315 0.0
H337 H 0.49222 0.14059 0.53206 0.0
O338 O 0.44294 0.0998 0.81357 0.0
C339 C 0.48416 0.11536 0.68882 0.0
Co340 Co 0.34421 0.45086 0.20274 0.0
Co341 Co 0.3464 0.46538 0.07943 0.0
C342 C 0.35538 0.43854 0.10561 0.0
O343 O 0.35101 0.43684 0.15888 0.0
O344 O 0.3545 0.44924 0.07345 0.0
C345 C 0.34281 0.43357 0.31077 0.0
O346 O 0.35085 0.42724 0.28372 0.0
C347 C 0.33822 0.45873 0.95904 0.0
C348 C 0.34703 0.4834 0.91924 0.0
C349 C 0.3402 0.46665 0.90619 0.0
N350 N 0.34386 0.4702 0.00135 0.0
N351 N 0.34897 0.48496 0.97764 0.0
C352 C 0.33064 0.44045 0.96988 0.0
H353 H 0.32484 0.43722 0.01378 0.0
H354 H 0.32119 0.43318 0.93617 0.0
H355 H 0.34049 0.43702 0.96824 0.0
C356 C 0.30976 0.44498 0.19365 0.0
N357 N 0.32486 0.44976 0.17068 0.0
N358 N 0.32588 0.45633 0.11905 0.0
C359 C 0.31158 0.45622 0.10777 0.0
C360 C 0.30084 0.44894 0.15461 0.0
C361 C 0.30482 0.4386 0.25454 0.0
H362 H 0.31275 0.44863 0.28557 0.0
H363 H 0.30697 0.42801 0.26177 0.0
H364 H 0.29161 0.43458 0.26357 0.0
O365 O 0.363 0.47439 0.20551 0.0
O366 O 0.36335 0.48556 0.11943 0.0
H367 H 0.31872 0.47669 0.04951 0.0
H368 H 0.2964 0.46304 0.05567 0.0
C369 C 0.30861 0.46359 0.05425 0.0
H370 H 0.30894 0.45665 0.01542 0.0
H371 H 0.35428 0.49609 0.00096 0.0
O372 O 0.33928 0.44335 0.28386 0.0
C373 C 0.369 0.48682 0.17091 0.0
Co374 Co 0.89759 0.34596 0.7107 0.0
Co375 Co 0.88584 0.34399 0.58212 0.0
C376 C 0.92077 0.35281 0.60949 0.0
O377 O 0.91794 0.35178 0.66409 0.0
O378 O 0.90938 0.34994 0.57279 0.0
C379 C 0.90582 0.33303 0.81242 0.0
O380 O 0.90501 0.32135 0.77794 0.0
C381 C 0.88156 0.33779 0.45657 0.0
C382 C 0.85811 0.33765 0.43879 0.0
C383 C 0.87078 0.33629 0.41249 0.0
N384 N 0.87568 0.34005 0.50713 0.0
N385 N 0.86161 0.33989 0.49628 0.0
C386 C 0.89706 0.33676 0.45066 0.0
H387 H 0.89791 0.32939 0.48721 0.0
H388 H 0.89732 0.33094 0.4087 0.0
H389 H 0.90797 0.34952 0.45243 0.0
C390 C 0.86691 0.31242 0.71416 0.0
N391 N 0.87843 0.32604 0.68549 0.0
N392 N 0.8741 0.32484 0.63028 0.0
C393 C 0.8602 0.31004 0.62153 0.0
C394 C 0.85512 0.30169 0.67448 0.0
C395 C 0.86563 0.31082 0.77918 0.0
H396 H 0.87172 0.32325 0.80002 0.0
H397 H 0.8717 0.3038 0.79411 0.0
H398 H 0.85242 0.30386 0.79319 0.0
O399 O 0.89264 0.36421 0.70796 0.0
O400 O 0.88496 0.36343 0.61572 0.0
H401 H 0.84412 0.30946 0.55386 0.0
H402 H 0.84416 0.29018 0.56311 0.0
C403 C 0.85205 0.30394 0.56347 0.0
H404 H 0.86162 0.30776 0.5289 0.0
H405 H 0.8545 0.34153 0.52803 0.0
O406 O 0.90301 0.34412 0.7922 0.0
C407 C 0.88778 0.36984 0.66651 0.0
H408 H 0.05719 0.41178 0.3132 0.0
H409 H 0.02936 0.39517 0.35515 0.0
H410 H 0.04791 0.41847 0.52227 0.0
H411 H 0.07572 0.43472 0.48135 0.0
H412 H 0.02678 0.38676 0.53761 0.0
H413 H 0.02699 0.43109 0.42916 0.0
H414 H 0.03094 0.44843 0.3425 0.0
H415 H 0.99404 0.40561 0.24992 0.0
H416 H 0.99004 0.38797 0.33583 0.0
H417 H 0.95021 0.3711 0.66764 0.0
H418 H 0.97833 0.38277 0.62803 0.0
H419 H 0.95796 0.35854 0.46355 0.0
H420 H 0.9299 0.34717 0.50253 0.0
H421 H 0.97997 0.38971 0.44575 0.0
H422 H 0.97878 0.34578 0.56155 0.0
H423 H 0.97522 0.32969 0.6513 0.0
H424 H 0.01429 0.3732 0.73413 0.0
H425 H 0.01792 0.38962 0.64519 0.0
C426 C 0.05537 0.41328 0.35896 0.0
C427 C 0.06868 0.4247 0.3937 0.0
C428 C 0.03944 0.40382 0.38286 0.0
C429 C 0.03648 0.40576 0.44169 0.0
C430 C 0.04986 0.41676 0.47679 0.0
C431 C 0.06577 0.4261 0.45314 0.0
C432 C 0.0194 0.39681 0.46649 0.0
C433 C 0.01655 0.38749 0.51779 0.0
C434 C 0.006 0.3976 0.44032 0.0
C435 C 0.00835 0.40818 0.38868 0.0
C436 C 0.01981 0.42535 0.39016 0.0
C437 C 0.02204 0.43524 0.34121 0.0
C438 C 0.01278 0.42812 0.29068 0.0
C439 C 1.00123 0.4111 0.28905 0.0
C440 C 0.99897 0.40116 0.33787 0.0
C441 C 0.95174 0.36808 0.62329 0.0
C442 C 0.93781 0.35835 0.58799 0.0
C443 C 0.96784 0.37472 0.60072 0.0
C444 C 0.97031 0.37148 0.54279 0.0
C445 C 0.95639 0.3613 0.50822 0.0
C446 C 0.94033 0.35483 0.53053 0.0
C447 C 0.98726 0.37953 0.51681 0.0
C448 C 0.99012 0.38878 0.46534 0.0
C449 C 1.00068 0.37883 0.54331 0.0
C450 C 0.9985 0.36896 0.59683 0.0
C451 C 0.98652 0.35195 0.59905 0.0
C452 C 0.98451 0.34276 0.64977 0.0
C453 C 0.99449 0.35043 0.69843 0.0
C454 C 0.00654 0.36728 0.69644 0.0
C455 C 0.00859 0.37653 0.64587 0.0
H456 H 0.99292 0.34329 0.73764 0.0
H457 H 0.01453 0.43579 0.25283 0.0
H458 H 0.64042 0.05548 0.8203 0.0
H459 H 0.62821 0.02725 0.85956 0.0
H460 H 0.64132 0.04704 0.03376 0.0
H461 H 0.65347 0.07531 0.99507 0.0
H462 H 0.64688 0.01995 0.01136 0.0
H463 H 0.60372 0.03412 0.99283 0.0
H464 H 0.58707 0.04397 0.94042 0.0
H465 H 0.57131 0.00395 0.81765 0.0
H466 H 0.58807 0.99401 0.86888 0.0
H467 H 0.5912 0.94623 0.16879 0.0
H468 H 0.60758 0.97454 0.13061 0.0
H469 H 0.58762 0.95694 0.95876 0.0
H470 H 0.5708 0.92889 0.99681 0.0
H471 H 0.58622 0.98341 0.98096 0.0
H472 H 0.62871 0.96866 -0.00166 0.0
H473 H 0.64566 0.95876 0.04827 0.0
H474 H 0.66303 0.99926 0.16969 0.0
H475 H 0.646 0.00929 0.12092 0.0
C476 C 0.64092 0.05386 0.86689 0.0
C477 C 0.6478 0.06765 0.90458 0.0
C478 C 0.6339 0.03772 0.88924 0.0
C479 C 0.63374 0.03508 0.94959 0.0
C480 C 0.64131 0.04882 0.98707 0.0
C481 C 0.64818 0.06496 0.96485 0.0
C482 C 0.62473 0.01798 0.97383 0.0
C483 C 0.63359 0.01198 0.0053 0.0
C484 C 0.60745 0.00753 0.96496 0.0
C485 C 0.59729 0.01343 0.93432 0.0
C486 C 0.59681 0.02751 0.95437 0.0
C487 C 0.58734 0.03309 0.92493 0.0
C488 C 0.57818 0.02462 0.87563 0.0
C489 C 0.57843 0.01052 0.85578 0.0
C490 C 0.58791 0.0049 0.88502 0.0
C491 C 0.59039 0.94837 0.12278 0.0
C492 C 0.57972 0.93522 0.08588 0.0
C493 C 0.59984 0.96457 0.10092 0.0
C494 C 0.59899 0.96789 0.04158 0.0
C495 C 0.58851 0.95473 0.00466 0.0
C496 C 0.57895 0.93862 0.02652 0.0
C497 C 0.60836 0.98513 0.0181 0.0
C498 C 0.59953 0.99126 0.98695 0.0
C499 C 0.62568 0.99561 0.02696 0.0
C500 C 0.63595 0.98962 0.05633 0.0
C501 C 0.63604 0.97538 0.03597 0.0
C502 C 0.64568 0.96976 0.06401 0.0
C503 C 0.65538 0.97835 0.11222 0.0
C504 C 0.65549 0.99261 0.13239 0.0
C505 C 0.64586 0.99827 0.10453 0.0
H506 H 0.66284 0.97398 0.13387 0.0
H507 H 0.57085 0.02896 0.8529 0.0
H508 H 0.63339 0.58118 0.68701 0.0
H509 H 0.62225 0.5979 0.64562 0.0
H510 H 0.6484 0.60263 0.4848 0.0
H511 H 0.65927 0.58569 0.52548 0.0
H512 H 0.63401 0.62817 0.60278 0.0
H513 H 0.62433 0.60126 0.36867 0.0
H514 H 0.6197 0.57582 0.31836 0.0
H515 H 0.59934 0.54757 0.47526 0.0
H516 H 0.60338 0.57274 0.52605 0.0
H517 H 0.59497 0.64885 0.33246 0.0
H518 H 0.61205 0.6383 0.37527 0.0
H519 H 0.5869 0.6313 0.53993 0.0
H520 H 0.57003 0.64204 0.49795 0.0
H521 H 0.6024 0.60834 0.41779 0.0
H522 H 0.61204 0.63457 0.65233 0.0
H523 H 0.61502 0.65932 0.70332 0.0
H524 H 0.63407 0.68822 0.54694 0.0
H525 H 0.63143 0.66372 0.49524 0.0
C526 C 0.63693 0.58595 0.64308 0.0
C527 C 0.64698 0.58184 0.60914 0.0
C528 C 0.63055 0.59552 0.61946 0.0
C529 C 0.63417 0.60123 0.56162 0.0
C530 C 0.64507 0.59802 0.529 0.0
C531 C 0.65129 0.58831 0.55233 0.0
C532 C 0.62592 0.60979 0.53461 0.0
C533 C 0.62699 0.62376 0.56257 0.0
C534 C 0.61699 0.60423 0.48151 0.0
C535 C 0.61439 0.58896 0.45137 0.0
C536 C 0.6188 0.58961 0.39237 0.0
C537 C 0.61624 0.57523 0.36374 0.0
C538 C 0.60932 0.56011 0.39369 0.0
C539 C 0.60478 0.55931 0.4522 0.0
C540 C 0.60718 0.57363 0.48091 0.0
C541 C 0.59319 0.64523 0.37796 0.0
C542 C 0.58116 0.64637 0.41178 0.0
C543 C 0.60296 0.63919 0.40236 0.0
C544 C 0.60091 0.63418 0.46103 0.0
C545 C 0.58899 0.63542 0.49495 0.0
C546 C 0.57929 0.64153 0.47073 0.0
C547 C 0.6105 0.62673 0.48586 0.0
C548 C 0.6096 0.6129 0.45761 0.0
C549 C 0.61946 0.63234 0.53884 0.0
C550 C 0.6214 0.64725 0.56978 0.0
C551 C 0.61695 0.64623 0.6289 0.0
C552 C 0.61856 0.66021 0.65791 0.0
C553 C 0.62468 0.67531 0.62834 0.0
C554 C 0.62927 0.67649 0.56974 0.0
C555 C 0.6277 0.66256 0.54054 0.0
H556 H 0.6259 0.68611 0.65085 0.0
H557 H 0.60743 0.54901 0.3715 0.0
H558 H 0.07391 0.65204 0.00788 0.0
H559 H 0.04542 0.63972 0.97175 0.0
H560 H 0.02672 0.62469 0.14649 0.0
H561 H 0.05524 0.63712 0.18325 0.0
H562 H 0.0122 0.59894 0.06397 0.0
H563 H 0.02365 0.65512 0.08672 0.0
H564 H 0.03972 0.68552 0.07321 0.0
H565 H 0.03382 0.67923 0.88764 0.0
H566 H 0.01791 0.64875 0.89999 0.0
H567 H 0.92781 0.56824 0.00113 0.0
H568 H 0.95557 0.58455 0.04215 0.0
H569 H 0.97478 0.60567 0.87279 0.0
H570 H 0.94679 0.5898 0.83159 0.0
H571 H 0.98908 0.62887 0.95422 0.0
H572 H 0.97923 0.57357 0.92797 0.0
H573 H 0.96398 0.54302 0.93732 0.0
H574 H 0.96796 0.54736 0.12378 0.0
H575 H 0.98305 0.57797 0.11556 0.0
C576 C 0.06377 0.64628 0.03881 0.0
C577 C 0.06687 0.64554 0.09848 0.0
C578 C 0.04748 0.6393 0.01806 0.0
C579 C 0.03397 0.63134 0.05647 0.0
C580 C 0.037 0.6308 0.11617 0.0
C581 C 0.0533 0.63797 0.1371 0.0
C582 C 0.0167 0.62279 0.03373 0.0
C583 C 0.00702 0.60551 0.04086 0.0
C584 C 0.01021 0.63132 0.00183 0.0
C585 C 0.01972 0.64964 0.99427 0.0
C586 C 0.0259 0.66021 0.043 0.0
C587 C 0.03496 0.67746 0.03555 0.0
C588 C 0.03783 0.6843 0.97959 0.0
C589 C 0.03161 0.67391 0.93096 0.0
C590 C 0.02255 0.65664 0.93816 0.0
C591 C 0.93784 0.5765 0.97258 0.0
C592 C 0.935 0.57768 0.91296 0.0
C593 C 0.95379 0.58574 0.9961 0.0
C594 C 0.96735 0.59613 0.96041 0.0
C595 C 0.96452 0.5977 0.90119 0.0
C596 C 0.94851 0.58857 0.87766 0.0
C597 C 0.9845 0.60498 0.98468 0.0
C598 C 0.9942 0.62229 0.97762 0.0
C599 C 0.99113 0.59646 0.01604 0.0
C600 C 0.98212 0.57806 0.02116 0.0
C601 C 0.97674 0.56801 0.97099 0.0
C602 C 0.96815 0.55069 0.97608 0.0
C603 C 0.96497 0.54325 0.03112 0.0
C604 C 0.97042 0.55314 0.08118 0.0
C605 C 0.979 0.57047 0.07633 0.0
H606 H 0.95831 0.52984 0.03497 0.0
H607 H 0.04484 0.69766 0.97392 0.0
H608 H 0.43426 0.07236 0.51678 0.0
H609 H 0.41748 0.04467 0.47577 0.0
H610 H 0.39303 0.02665 0.64163 0.0
H611 H 0.41019 0.05438 0.68374 0.0
H612 H 0.40204 0.00611 0.59865 0.0
H613 H 0.37309 0.03253 0.52137 0.0
H614 H 0.37056 0.05452 0.47019 0.0
H615 H 0.38994 0.04509 0.31381 0.0
H616 H 0.39278 0.02317 0.36426 0.0
H617 H 0.34542 0.92676 0.48643 0.0
H618 H 0.35633 0.95435 0.52915 0.0
H619 H 0.38291 0.9766 0.36971 0.0
H620 H 0.37175 0.94896 0.32639 0.0
H621 H 0.37081 0.99468 0.41294 0.0
H622 H 0.40145 0.96983 0.49041 0.0
H623 H 0.40541 0.94867 0.54133 0.0
H624 H 0.38427 0.95603 0.6972 0.0
H625 H 0.37975 0.9769 0.64675 0.0
C626 C 0.42522 0.06258 0.5446 0.0
C627 C 0.42359 0.06563 0.60368 0.0
C628 C 0.41554 0.04672 0.52087 0.0
C629 C 0.40378 0.03358 0.55529 0.0
C630 C 0.40198 0.03661 0.61414 0.0
C631 C 0.41178 0.05247 0.63814 0.0
C632 C 0.39409 0.01653 0.53054 0.0
C633 C 0.39492 0.00354 0.55869 0.0
C634 C 0.38519 0.01326 0.47746 0.0
C635 C 0.38325 0.02627 0.44675 0.0
C636 C 0.37689 0.0352 0.47616 0.0
C637 C 0.37539 0.04765 0.44727 0.0
C638 C 0.38011 0.05122 0.38882 0.0
C639 C 0.38629 0.04231 0.35909 0.0
C640 C 0.38782 0.02985 0.38778 0.0
C641 C 0.35357 0.9375 0.46044 0.0
C642 C 0.35796 0.93564 0.4034 0.0
C643 C 0.3598 0.9533 0.4849 0.0
C644 C 0.37077 0.96757 0.45317 0.0
C645 C 0.37454 0.96578 0.39521 0.0
C646 C 0.36815 0.94997 0.37047 0.0
C647 C 0.37882 0.98428 0.48099 0.0
C648 C 0.37775 0.99721 0.45332 0.0
C649 C 0.38758 0.98754 0.53443 0.0
C650 C 0.39009 0.9748 0.56456 0.0
C651 C 0.39747 0.9668 0.53534 0.0
C652 C 0.39982 0.95486 0.56414 0.0
C653 C 0.39505 0.95097 0.62241 0.0
C654 C 0.38793 0.95903 0.65202 0.0
C655 C 0.38543 0.97088 0.62331 0.0
H656 H 0.3969 0.94174 0.64466 0.0
H657 H 0.37896 0.06088 0.36656 0.0
H658 H 0.40895 0.35317 0.82233 0.0
H659 H 0.39371 0.36653 0.85942 0.0
H660 H 0.42162 0.37849 0.01969 0.0
H661 H 0.4369 0.36534 0.98329 0.0
H662 H 0.37409 0.36155 0.96041 0.0
H663 H 0.43211 0.4183 0.0555 0.0
H664 H 0.46247 0.43399 0.04012 0.0
H665 H 0.4556 0.41964 0.85981 0.0
H666 H 0.42518 0.40407 0.87391 0.0
H667 H 0.35471 0.41096 0.1526 0.0
H668 H 0.36631 0.39465 0.11032 0.0
H669 H 0.38268 0.42675 0.95968 0.0
H670 H 0.37106 0.44297 0.00098 0.0
H671 H 0.40741 0.42166 0.00793 0.0
H672 H 0.3506 0.39 0.94456 0.0
H673 H 0.32017 0.37445 0.95773 0.0
H674 H 0.3243 0.33925 0.06774 0.0
H675 H 0.3548 0.35474 0.0559 0.0
C676 C 0.41174 0.35851 0.86567 0.0
C677 C 0.42423 0.35824 0.89964 0.0
C678 C 0.40297 0.36608 0.88686 0.0
C679 C 0.40667 0.37363 0.94203 0.0
C680 C 0.41869 0.37287 0.97676 0.0
C681 C 0.42739 0.36529 0.95583 0.0
C682 C 0.39864 0.38308 0.9624 0.0
C683 C 0.38135 0.37469 0.97082 0.0
C684 C 0.40812 0.40026 0.9754 0.0
C685 C 0.42638 0.4099 0.96595 0.0
C686 C 0.43707 0.41857 0.01251 0.0
C687 C 0.45429 0.42742 0.00402 0.0
C688 C 0.46096 0.42776 0.94908 0.0
C689 C 0.45042 0.41931 0.9024 0.0
C690 C 0.43319 0.41046 0.91063 0.0
C691 C 0.36072 0.4145 0.11038 0.0
C692 C 0.36197 0.42829 0.08025 0.0
C693 C 0.36728 0.40514 0.08623 0.0
C694 C 0.37531 0.40949 0.03184 0.0
C695 C 0.37654 0.4232 0.00171 0.0
C696 C 0.36984 0.43243 0.02541 0.0
C697 C 0.38288 0.40009 0.00685 0.0
C698 C 0.40013 0.40852 -0.0024 0.0
C699 C 0.37333 0.383 0.99281 0.0
C700 C 0.355 0.37363 -0.00019 0.0
C701 C 0.34504 0.37902 0.97197 0.0
C702 C 0.32777 0.3702 0.97911 0.0
C703 C 0.32031 0.35589 0.01367 0.0
C704 C 0.3301 0.35035 0.04104 0.0
C705 C 0.34738 0.35914 0.03409 0.0
H706 H 0.30694 0.34907 0.01914 0.0
H707 H 0.47429 0.43459 0.9427 0.0
H708 H 0.12065 0.6239 0.27877 0.0
H709 H 0.12288 0.59924 0.29878 0.0
H710 H 0.12259 0.59019 0.11428 0.0
H711 H 0.12054 0.61503 0.09365 0.0
H712 H 0.09959 0.56208 0.18116 0.0
H713 H 0.15747 0.60376 0.18187 0.0
H714 H 0.18202 0.63016 0.21131 0.0
H715 H 0.17444 0.61399 0.38975 0.0
H716 H 0.14968 0.58757 0.36149 0.0
H717 H 0.11636 0.49619 0.20393 0.0
H718 H 0.11806 0.52248 0.17827 0.0
H719 H 0.1267 0.5376 0.35869 0.0
H720 H 0.12546 0.51143 0.38463 0.0
H721 H 0.14611 0.56304 0.29098 0.0
H722 H 0.08813 0.52261 0.29488 0.0
H723 H 0.06276 0.49634 0.27003 0.0
H724 H 0.0693 0.5102 0.0892 0.0
H725 H 0.09486 0.53647 0.11289 0.0
C726 C 0.12116 0.61674 0.24235 0.0
C727 C 0.12039 0.62141 0.18458 0.0
C728 C 0.1225 0.60269 0.25391 0.0
C729 C 0.12296 0.59295 0.20801 0.0
C730 C 0.12228 0.59759 0.15027 0.0
C731 C 0.12117 0.6118 0.13859 0.0
C732 C 0.12351 0.57758 0.22066 0.0
C733 C 0.10988 0.56227 0.20425 0.0
C734 C 0.1367 0.57788 0.25251 0.0
C735 C 0.15162 0.59374 0.26961 0.0
C736 C 0.16094 0.60589 0.22746 0.0
C737 C 0.17492 0.62085 0.24392 0.0
C738 C 0.17977 0.62377 0.30238 0.0
C739 C 0.17066 0.61172 0.34449 0.0
C740 C 0.15666 0.59674 0.32826 0.0
C741 C 0.11867 0.5051 0.23824 0.0
C742 C 0.12064 0.50163 0.29647 0.0
C743 C 0.11958 0.52013 0.22348 0.0
C744 C 0.1222 0.53191 0.26668 0.0
C745 C 0.12461 0.52868 0.32463 0.0
C746 C 0.12386 0.51369 0.33941 0.0
C747 C 0.12217 0.54745 0.25144 0.0
C748 C 0.13585 0.56281 0.26755 0.0
C749 C 0.1089 0.5472 0.21999 0.0
C750 C 0.09351 0.53143 0.20559 0.0
C751 C 0.08423 0.52 0.24975 0.0
C752 C 0.06981 0.50512 0.23589 0.0
C753 C 0.06445 0.50158 0.17806 0.0
C754 C 0.07349 0.51294 0.13398 0.0
C755 C 0.08794 0.52784 0.1476 0.0
H756 H 0.05328 0.49005 0.16741 0.0
H757 H 0.19059 0.63536 0.31504 0.0
H758 H 0.51003 0.12267 0.6143 0.0
H759 H 0.53666 0.12459 0.63769 0.0
H760 H 0.52216 0.11427 0.8183 0.0
H761 H 0.49552 0.11229 0.79549 0.0
H762 H 0.55498 0.1402 0.803 0.0
H763 H 0.51916 0.08393 0.73628 0.0
H764 H 0.50025 0.06257 0.66673 0.0
H765 H 0.5386 0.08197 0.53639 0.0
H766 H 0.55768 0.10361 0.60496 0.0
H767 H 0.61456 0.11895 0.90204 0.0
H768 H 0.58943 0.12006 0.87883 0.0
H769 H 0.60019 0.12129 0.69517 0.0
H770 H 0.62489 0.11948 0.71805 0.0
H771 H 0.56934 0.10064 0.7109 0.0
H772 H 0.60556 0.1565 0.77494 0.0
H773 H 0.6248 0.1786 0.84166 0.0
H774 H 0.5867 0.16141 0.97267 0.0
H775 H 0.56728 0.13906 0.907 0.0
C776 C 0.51252 0.12089 0.65907 0.0
C777 C 0.50058 0.11722 0.70296 0.0
C778 C 0.52773 0.12196 0.6723 0.0
C779 C 0.53131 0.11945 0.72965 0.0
C780 C 0.51963 0.11624 0.77379 0.0
C781 C 0.50437 0.11503 0.76055 0.0
C782 C 0.54703 0.11969 0.74343 0.0
C783 C 0.5581 0.13146 0.78337 0.0
C784 C 0.55121 0.10855 0.71667 0.0
C785 C 0.53979 0.09549 0.67555 0.0
C786 C 0.52352 0.08372 0.69264 0.0
C787 C 0.51278 0.07155 0.65343 0.0
C788 C 0.51821 0.07094 0.59712 0.0
C789 C 0.53441 0.08247 0.57998 0.0
C790 C 0.54519 0.09468 0.61901 0.0
C791 C 0.61162 0.11957 0.85674 0.0
C792 C 0.6217 0.1191 0.81189 0.0
C793 C 0.59729 0.1203 0.84349 0.0
C794 C 0.59297 0.12097 0.78518 0.0
C795 C 0.60319 0.12074 0.74046 0.0
C796 C 0.61734 0.11973 0.75363 0.0
C797 C 0.5775 0.12125 0.77048 0.0
C798 C 0.56638 0.1095 0.73042 0.0
C799 C 0.57338 0.13255 0.79669 0.0
C800 C 0.58501 0.14601 0.83623 0.0
C801 C 0.60132 0.15736 0.81813 0.0
C802 C 0.61225 0.16994 0.85574 0.0
C803 C 0.60699 0.17138 0.91142 0.0
C804 C 0.59076 0.16027 0.92956 0.0
C805 C 0.57978 0.14765 0.89214 0.0
H806 H 0.61547 0.18113 0.94047 0.0
H807 H 0.50987 0.06151 0.56683 0.0
H808 H 0.51393 0.60853 0.25887 0.0
H809 H 0.48699 0.58446 0.23581 0.0
H810 H 0.46271 0.60395 0.34452 0.0
H811 H 0.48986 0.62767 0.37039 0.0
H812 H 0.44777 0.57279 0.35918 0.0
H813 H 0.46354 0.60647 0.18911 0.0
H814 H 0.48178 0.62328 0.10842 0.0
H815 H 0.48256 0.58045 0.04177 0.0
H816 H 0.4645 0.56343 0.12252 0.0
H817 H 0.37954 0.51773 0.12517 0.0
H818 H 0.40333 0.54414 0.15601 0.0
H819 H 0.41473 0.51849 0.28923 0.0
H820 H 0.39054 0.49224 0.26038 0.0
H821 H 0.43413 0.55512 0.15291 0.0
H822 H 0.43488 0.54282 0.40221 0.0
H823 H 0.4148 0.52838 0.48161 0.0
H824 H 0.37724 0.53276 0.38721 0.0
H825 H 0.39714 0.54742 0.30763 0.0
C826 C 0.50285 0.60767 0.27794 0.0
C827 C 0.50398 0.62004 0.31607 0.0
C828 C 0.48742 0.59395 0.26442 0.0
C829 C 0.47271 0.59254 0.28713 0.0
C830 C 0.47384 0.60475 0.32617 0.0
C831 C 0.48935 0.61832 0.34086 0.0
C832 C 0.45623 0.5783 0.27016 0.0
C833 C 0.44476 0.56898 0.31405 0.0
C834 C 0.452 0.57355 0.21112 0.0
C835 C 0.46276 0.5837 0.16214 0.0
C836 C 0.46767 0.60066 0.15743 0.0
C837 C 0.47797 0.61022 0.11167 0.0
C838 C 0.48335 0.60294 0.07006 0.0
C839 C 0.47839 0.58607 0.07405 0.0
C840 C 0.46811 0.57645 0.11977 0.0
C841 C 0.38703 0.51776 0.16142 0.0
C842 C 0.38312 0.50291 0.19049 0.0
C843 C 0.40066 0.53287 0.17896 0.0
C844 C 0.41078 0.53341 0.22547 0.0
C845 C 0.40691 0.51854 0.25428 0.0
C846 C 0.39311 0.50349 0.23749 0.0
C847 C 0.42581 0.54936 0.24203 0.0
C848 C 0.43703 0.559 0.19802 0.0
C849 C 0.4295 0.55476 0.30072 0.0
C850 C 0.41748 0.54609 0.34871 0.0
C851 C 0.42236 0.54077 0.39851 0.0
C852 C 0.411 0.53253 0.44353 0.0
C853 C 0.39474 0.52962 0.43938 0.0
C854 C 0.38982 0.53498 0.39028 0.0
C855 C 0.40113 0.54323 0.34517 0.0
H856 H 0.38597 0.52323 0.47425 0.0
H857 H 0.49133 0.61037 0.03468 0.0
H858 H 0.89595 0.51243 0.71165 0.0
H859 H 0.895 0.48657 0.6835 0.0
H860 H 0.8707 0.46402 0.84587 0.0
H861 H 0.87185 0.48987 0.87485 0.0
H862 H 0.8957 0.4584 0.82471 0.0
H863 H 0.84937 0.45408 0.71485 0.0
H864 H 0.83574 0.4637 0.64518 0.0
H865 H 0.86864 0.46589 0.50941 0.0
H866 H 0.88261 0.45648 0.57847 0.0
H867 H 0.87634 0.37657 0.76587 0.0
H868 H 0.87387 0.401 0.78725 0.0
H869 H 0.89286 0.4206 0.61586 0.0
H870 H 0.89416 0.39549 0.59296 0.0
H871 H 0.87071 0.42806 0.64066 0.0
H872 H 0.91772 0.43345 0.74841 0.0
H873 H 0.93189 0.42401 0.81644 0.0
H874 H 0.89903 0.42067 0.95424 0.0
H875 H 0.88456 0.42994 0.88688 0.0
C876 C 0.89029 0.50194 0.74123 0.0
C877 C 0.88399 0.50326 0.79558 0.0
C878 C 0.8897 0.48713 0.72495 0.0
C879 C 0.88266 0.4733 0.76238 0.0
C880 C 0.87621 0.47453 0.81631 0.0
C881 C 0.87684 0.48933 0.83273 0.0
C882 C 0.88254 0.45773 0.74651 0.0
C883 C 0.89004 0.45164 0.78481 0.0
C884 C 0.87561 0.44919 0.69363 0.0
C885 C 0.86713 0.45472 0.65198 0.0
C886 C 0.85377 0.45672 0.67024 0.0
C887 C 0.84597 0.46212 0.63084 0.0
C888 C 0.85135 0.46545 0.57294 0.0
C889 C 0.8645 0.46333 0.55428 0.0
C890 C 0.87235 0.45794 0.59352 0.0
C891 C 0.87986 0.38605 0.73266 0.0
C892 C 0.88557 0.38426 0.67796 0.0
C893 C 0.87857 0.40009 0.74503 0.0
C894 C 0.88368 0.41297 0.70389 0.0
C895 C 0.88894 0.41093 0.64853 0.0
C896 C 0.88972 0.39661 0.63547 0.0
C897 C 0.88383 0.42866 0.71899 0.0
C898 C 0.87639 0.4348 0.68055 0.0
C899 C 0.89099 0.43739 0.77151 0.0
C900 C 0.89999 0.43228 0.81249 0.0
C901 C 0.9135 0.43067 0.79319 0.0
C902 C 0.92158 0.42534 0.83163 0.0
C903 C 0.91634 0.42171 0.8896 0.0
C904 C 0.90307 0.42349 0.90934 0.0
C905 C 0.89495 0.42881 0.87108 0.0
H906 H 0.92257 0.41753 0.91923 0.0
H907 H 0.8453 0.46963 0.54251 0.0
H908 H 0.49382 0.87961 0.11313 0.0
H909 H 0.46863 0.87917 0.14644 0.0
H910 H 0.4862 0.8861 0.32384 0.0
H911 H 0.51162 0.88667 0.29093 0.0
H912 H 0.45149 0.86165 0.30931 0.0
H913 H 0.49039 0.91839 0.25888 0.0
H914 H 0.51062 0.94086 0.19539 0.0
H915 H 0.47302 0.92775 0.0645 0.0
H916 H 0.45262 0.90503 0.12689 0.0
H917 H 0.39109 0.8829 0.40966 0.0
H918 H 0.41654 0.88184 0.39117 0.0
H919 H 0.41013 0.88489 0.20606 0.0
H920 H 0.38514 0.8865 0.22423 0.0
H921 H 0.44065 0.90536 0.23293 0.0
H922 H 0.40215 0.84795 0.27779 0.0
H923 H 0.38158 0.8246 0.33757 0.0
H924 H 0.41757 0.83784 0.47451 0.0
H925 H 0.43829 0.86141 0.41579 0.0
C926 C 0.49233 0.88093 0.15933 0.0
C927 C 0.50482 0.88329 0.19931 0.0
C928 C 0.47792 0.88069 0.17824 0.0
C929 C 0.47564 0.88274 0.2375 0.0
C930 C 0.48776 0.88452 0.2779 0.0
C931 C 0.50229 0.88491 0.25895 0.0
C932 C 0.46088 0.8837 0.25644 0.0
C933 C 0.44919 0.87133 0.29343 0.0
C934 C 0.4578 0.89616 0.23479 0.0
C935 C 0.47001 0.90992 0.19737 0.0
C936 C 0.48647 0.92022 0.21637 0.0
C937 C 0.49796 0.93301 0.18062 0.0
C938 C 0.49312 0.93571 0.12589 0.0
C939 C 0.47676 0.92564 0.10688 0.0
C940 C 0.46522 0.91281 0.14245 0.0
C941 C 0.39507 0.88324 0.36504 0.0
C942 C 0.38612 0.88486 0.31845 0.0
C943 C 0.40959 0.88257 0.35449 0.0
C944 C 0.41524 0.88318 0.29713 0.0
C945 C 0.40612 0.88449 0.25069 0.0
C946 C 0.39178 0.88538 0.26119 0.0
C947 C 0.43092 0.88305 0.28488 0.0
C948 C 0.44289 0.89567 0.24923 0.0
C949 C 0.43414 0.87071 0.30736 0.0
C950 C 0.4217 0.85655 0.34267 0.0
C951 C 0.40563 0.84596 0.32084 0.0
C952 C 0.39396 0.83267 0.35449 0.0
C953 C 0.39825 0.82977 0.40988 0.0
C954 C 0.41425 0.84012 0.43165 0.0
C955 C 0.42597 0.85344 0.39819 0.0
H956 H 0.3892 0.81947 0.43586 0.0
H957 H 0.50204 0.94562 0.09827 0.0
H958 H 0.50831 0.38876 0.87095 0.0
H959 H 0.53313 0.41383 0.83742 0.0
H960 H 0.51693 0.40128 0.65919 0.0
H961 H 0.49179 0.37613 0.69238 0.0
H962 H 0.55263 0.41303 0.68264 0.0
H963 H 0.51106 0.42864 0.70952 0.0
H964 H 0.48874 0.4302 0.76235 0.0
H965 H 0.52266 0.45714 0.9011 0.0
H966 H 0.54513 0.45549 0.84953 0.0
H967 H 0.61429 0.49541 0.58989 0.0
H968 H 0.58845 0.46876 0.60166 0.0
H969 H 0.58949 0.47744 0.78683 0.0
H970 H 0.6149 0.50406 0.77538 0.0
H971 H 0.55958 0.46721 0.7466 0.0
H972 H 0.60033 0.44969 0.72587 0.0
H973 H 0.6228 0.44756 0.67653 0.0
H974 H 0.5909 0.42401 0.52961 0.0
H975 H 0.5683 0.42621 0.57782 0.0
C976 C 0.51004 0.3912 0.82454 0.0
C977 C 0.49801 0.38047 0.78435 0.0
C978 C 0.52422 0.40556 0.80551 0.0
C979 C 0.52677 0.40942 0.74594 0.0
C980 C 0.51514 0.39848 0.70537 0.0
C981 C 0.50078 0.38418 0.72445 0.0
C982 C 0.5413 0.42528 0.72698 0.0
C983 C 0.55408 0.42493 0.69556 0.0
C984 C 0.5432 0.44072 0.74478 0.0
C985 C 0.52975 0.44182 0.77584 0.0
C986 C 0.51373 0.43476 0.75153 0.0
C987 C 0.50106 0.43569 0.78121 0.0
C988 C 0.50428 0.44374 0.83507 0.0
C989 C 0.52019 0.4509 0.85937 0.0
C990 C 0.5329 0.44998 0.82991 0.0
C991 C 0.60903 0.49159 0.63312 0.0
C992 C 0.61666 0.50191 0.68164 0.0
C993 C 0.59429 0.47633 0.6398 0.0
C994 C 0.58705 0.47104 0.69521 0.0
C995 C 0.59477 0.48127 0.74361 0.0
C996 C 0.60936 0.49651 0.73695 0.0
C997 C 0.57126 0.45507 0.70345 0.0
C998 C 0.55815 0.45538 0.73288 0.0
C999 C 0.56914 0.43962 0.68412 0.0
C1000 C 0.5827 0.4383 0.65513 0.0
C1001 C 0.59816 0.44419 0.68283 0.0
C1002 C 0.61091 0.44294 0.65512 0.0
C1003 C 0.6083 0.4357 0.59988 0.0
C1004 C 0.59292 0.42965 0.57233 0.0
C1005 C 0.58013 0.43088 0.59984 0.0
H1006 H 0.61818 0.43475 0.5785 0.0
H1007 H 0.49447 0.44448 0.85787 0.0
H1008 H 0.10222 0.42986 0.59954 0.0
H1009 H 0.09562 0.41731 0.69545 0.0
H1010 H 0.13933 0.45987 0.76521 0.0
H1011 H 0.14693 0.47186 0.66765 0.0
H1012 H 0.13467 0.43292 0.81856 0.0
H1013 H 0.09859 0.45534 0.76386 0.0
H1014 H 0.07772 0.4567 0.70105 0.0
H1015 H 0.04367 0.40483 0.73132 0.0
H1016 H 0.06442 0.40314 0.7939 0.0
H1017 H 0.11962 0.45318 0.09113 0.0
H1018 H 0.12308 0.45039 0.98774 0.0
H1019 H 0.07929 0.40166 0.98775 0.0
H1020 H 0.07565 0.40433 0.09274 0.0
H1021 H 0.0804 0.42253 0.89642 0.0
H1022 H 0.1148 0.40297 0.97296 0.0
H1023 H 0.13569 0.4028 0.03881 0.0
H1024 H 0.17301 0.44981 0.96981 0.0
H1025 H 0.15229 0.45042 0.9042 0.0
C1026 C 0.11095 0.43626 0.63422 0.0
C1027 C 0.12542 0.45174 0.62517 0.0
C1028 C 0.1069 0.42917 0.68971 0.0
C1029 C 0.11681 0.43775 0.73776 0.0
C1030 C 0.13148 0.45298 0.72874 0.0
C1031 C 0.13575 0.45989 0.67301 0.0
C1032 C 0.11142 0.43164 0.79801 0.0
C1033 C 0.12281 0.43063 0.8356 0.0
C1034 C 0.09564 0.42797 0.81974 0.0
C1035 C 0.0831 0.42908 0.78294 0.0
C1036 C 0.08667 0.44422 0.75689 0.0
C1037 C 0.07487 0.44505 0.72136 0.0
C1038 C 0.0594 0.43085 0.71204 0.0
C1039 C 0.05567 0.4158 0.73848 0.0
C1040 C 0.06744 0.41491 0.774 0.0
C1041 C 0.11068 0.44181 0.06953 0.0
C1042 C 0.09734 0.42895 0.10024 0.0
C1043 C 0.11277 0.4402 0.01038 0.0
C1044 C 0.10161 0.42571 0.98048 0.0
C1045 C 0.08811 0.41287 0.01045 0.0
C1046 C 0.08605 0.41442 0.07021 0.0
C1047 C 0.104 0.42469 0.91728 0.0
C1048 C 0.09206 0.42431 0.87907 0.0
C1049 C 0.1193 0.42717 0.89506 0.0
C1050 C 0.13194 0.42674 0.93365 0.0
C1051 C 0.12744 0.41331 0.97198 0.0
C1052 C 0.13926 0.41314 0.00929 0.0
C1053 C 0.15566 0.42629 0.00851 0.0
C1054 C 0.1603 0.43962 0.97031 0.0
C1055 C 0.14852 0.43987 0.93295 0.0
H1056 H 0.16479 0.42614 0.03749 0.0
H1057 H 0.05029 0.4315 0.68445 0.0
H1058 H 0.64896 0.0948 0.59822 0.0
H1059 H 0.65219 0.09718 0.49265 0.0
H1060 H 0.70067 0.10186 0.50771 0.0
H1061 H 0.69743 0.09934 0.61431 0.0
H1062 H 0.70035 0.12714 0.44172 0.0
H1063 H 0.67184 0.06832 0.44423 0.0
H1064 H 0.6504 0.04 0.47305 0.0
H1065 H 0.61245 0.04794 0.39908 0.0
H1066 H 0.63362 0.0764 0.37057 0.0
H1067 H 0.69909 0.13379 0.12775 0.0
H1068 H 0.70237 0.12512 0.22544 0.0
H1069 H 0.65255 0.11369 0.26917 0.0
H1070 H 0.64902 0.12178 0.17128 0.0
H1071 H 0.6583 0.08867 0.30015 0.0
H1072 H 0.68617 0.1489 0.317 0.0
H1073 H 0.70727 0.17762 0.29077 0.0
H1074 H 0.74621 0.16695 0.32985 0.0
H1075 H 0.72532 0.13808 0.35561 0.0
C1076 C 0.6602 0.09606 0.57906 0.0
C1077 C 0.67296 0.09691 0.61434 0.0
C1078 C 0.662 0.09733 0.51873 0.0
C1079 C 0.67662 0.09957 0.49244 0.0
C1080 C 0.68926 0.10003 0.52733 0.0
C1081 C 0.68736 0.09852 0.58799 0.0
C1082 C 0.67895 0.10283 0.42906 0.0
C1083 C 0.69146 0.11856 0.41033 0.0
C1084 C 0.66718 0.0917 0.38853 0.0
C1085 C 0.65435 0.07455 0.40544 0.0
C1086 C 0.65891 0.06408 0.43445 0.0
C1087 C 0.64681 0.04799 0.45069 0.0
C1088 C 0.63008 0.04218 0.43795 0.0
C1089 C 0.62542 0.05245 0.40889 0.0
C1090 C 0.63748 0.06856 0.39258 0.0
C1091 C 0.68878 0.1292 0.15791 0.0
C1092 C 0.67367 0.12811 0.14156 0.0
C1093 C 0.69073 0.12443 0.21389 0.0
C1094 C 0.67765 0.11865 0.25432 0.0
C1095 C 0.66274 0.11797 0.2384 0.0
C1096 C 0.6608 0.12274 0.18268 0.0
C1097 C 0.67925 0.11322 0.31344 0.0
C1098 C 0.66748 0.09707 0.33119 0.0
C1099 C 0.69166 0.12397 0.35306 0.0
C1100 C 0.70419 0.14129 0.33743 0.0
C1101 C 0.69923 0.15264 0.31945 0.0
C1102 C 0.71115 0.16895 0.30479 0.0
C1103 C 0.72807 0.17409 0.30842 0.0
C1104 C 0.7331 0.16294 0.3269 0.0
C1105 C 0.72123 0.14661 0.34155 0.0
H1106 H 0.73728 0.18672 0.29709 0.0
H1107 H 0.62072 0.02972 0.45056 0.0
H1108 H 0.5244 0.65429 0.66925 0.0
H1109 H 0.53384 0.65785 0.77041 0.0
H1110 H 0.57864 0.70307 0.72397 0.0
H1111 H 0.56878 0.70007 0.62298 0.0
H1112 H 0.58329 0.67859 0.79021 0.0
H1113 H 0.55441 0.70877 0.79978 0.0
H1114 H 0.5313 0.71419 0.78326 0.0
H1115 H 0.49891 0.6714 0.88612 0.0
H1116 H 0.52175 0.66557 0.90253 0.0
H1117 H 0.59968 0.68916 0.10467 0.0
H1118 H 0.59787 0.69406 0.00032 0.0
H1119 H 0.54767 0.65264 0.99635 0.0
H1120 H 0.54933 0.64766 0.09957 0.0
H1121 H 0.5503 0.68174 0.95485 0.0
H1122 H 0.57801 0.64954 0.93358 0.0
H1123 H 0.6007 0.64337 0.94778 0.0
H1124 H 0.63513 0.68962 0.86603 0.0
H1125 H 0.61267 0.69619 0.85216 0.0
C1126 C 0.53617 0.66509 0.6807 0.0
C1127 C 0.54614 0.67659 0.63794 0.0
C1128 C 0.54156 0.66708 0.73836 0.0
C1129 C 0.557 0.68062 0.75427 0.0
C1130 C 0.56681 0.69241 0.71211 0.0
C1131 C 0.56128 0.69055 0.65441 0.0
C1132 C 0.56281 0.68201 0.81499 0.0
C1133 C 0.57636 0.67968 0.8264 0.0
C1134 C 0.5536 0.68324 0.86178 0.0
C1135 C 0.53978 0.68667 0.85204 0.0
C1136 C 0.54232 0.70043 0.81846 0.0
C1137 C 0.52927 0.70359 0.8092 0.0
C1138 C 0.51364 0.69313 0.83354 0.0
C1139 C 0.51102 0.67949 0.86728 0.0
C1140 C 0.52403 0.67626 0.87663 0.0
C1141 C 0.58841 0.6809 0.08117 0.0
C1142 C 0.5746 0.66813 0.11043 0.0
C1143 C 0.58738 0.68375 0.0217 0.0
C1144 C 0.57257 0.67381 0.99098 0.0
C1145 C 0.55914 0.66055 0.01951 0.0
C1146 C 0.56015 0.6577 0.07851 0.0
C1147 C 0.57037 0.67764 0.93019 0.0
C1148 C 0.55749 0.68102 0.91881 0.0
C1149 C 0.58019 0.67733 0.8836 0.0
C1150 C 0.59372 0.67348 0.89269 0.0
C1151 C 0.59046 0.6585 0.91932 0.0
C1152 C 0.60327 0.6549 0.92714 0.0
C1153 C 0.61936 0.66613 0.90805 0.0
C1154 C 0.62267 0.68096 0.88097 0.0
C1155 C 0.60991 0.68463 0.87313 0.0
H1156 H 0.62925 0.66331 0.91406 0.0
H1157 H 0.50356 0.69561 0.82635 0.0
H1158 H 0.93218 0.56783 0.58808 0.0
H1159 H 0.92671 0.56636 0.48305 0.0
H1160 H 0.88271 0.56964 0.51585 0.0
H1161 H 0.88816 0.57144 0.62015 0.0
H1162 H 0.87819 0.53969 0.4578 0.0
H1163 H 0.91061 0.59952 0.44764 0.0
H1164 H 0.93568 0.62691 0.46222 0.0
H1165 H 0.96387 0.61229 0.35367 0.0
H1166 H 0.93902 0.58471 0.33913 0.0
H1167 H 0.8498 0.53084 0.16612 0.0
H1168 H 0.85788 0.54027 0.26711 0.0
H1169 H 0.90823 0.55217 0.2288 0.0
H1170 H 0.90028 0.54349 0.12776 0.0
H1171 H 0.90946 0.57569 0.29058 0.0
H1172 H 0.87989 0.51628 0.30538 0.0
H1173 H 0.85647 0.48771 0.29276 0.0
H1174 H 0.82505 0.4997 0.3945 0.0
H1175 H 0.84824 0.52842 0.4071 0.0
C1176 C 0.92162 0.56872 0.57281 0.0
C1177 C 0.91041 0.5694 0.61243 0.0
C1178 C 0.91853 0.5679 0.51291 0.0
C1179 C 0.90424 0.56775 0.49224 0.0
C1180 C 0.89375 0.56968 0.53131 0.0
C1181 C 0.89689 0.57065 0.5909 0.0
C1182 C 0.89891 0.56321 0.43135 0.0
C1183 C 0.88483 0.54765 0.42109 0.0
C1184 C 0.90803 0.5734 0.38402 0.0
C1185 C 0.92299 0.58998 0.39281 0.0
C1186 C 0.9222 0.60208 0.42737 0.0
C1187 C 0.93636 0.61766 0.43551 0.0
C1188 C 0.95137 0.62132 0.40903 0.0
C1189 C 0.95224 0.60943 0.37423 0.0
C1190 C 0.93811 0.59382 0.36598 0.0
C1191 C 0.86254 0.53544 0.17978 0.0
C1192 C 0.87447 0.53652 0.14001 0.0
C1193 C 0.86715 0.54078 0.2372 0.0
C1194 C 0.88364 0.54678 0.25564 0.0
C1195 C 0.89548 0.54769 0.21554 0.0
C1196 C 0.89094 0.54267 0.15809 0.0
C1197 C 0.88865 0.55207 0.31667 0.0
C1198 C 0.90271 0.56774 0.32711 0.0
C1199 C 0.87975 0.54179 0.36436 0.0
C1200 C 0.86575 0.52455 0.3566 0.0
C1201 C 0.86795 0.51286 0.32463 0.0
C1202 C 0.85472 0.49663 0.31757 0.0
C1203 C 0.83927 0.49191 0.34266 0.0
C1204 C 0.83702 0.50339 0.37499 0.0
C1205 C 0.8502 0.51964 0.38214 0.0
H1206 H 0.82905 0.47933 0.33718 0.0
H1207 H 0.96232 0.63339 0.41536 0.0
H1208 H 0.30758 0.87267 0.61801 0.0
H1209 H 0.30449 0.87859 0.72006 0.0
H1210 H 0.34175 0.86622 0.77088 0.0
H1211 H 0.34526 0.86084 0.66879 0.0
H1212 H 0.31429 0.85529 0.85085 0.0
H1213 H 0.35367 0.90388 0.74084 0.0
H1214 H 0.36088 0.92283 0.65698 0.0
H1215 H 0.32509 0.93642 0.71233 0.0
H1216 H 0.31712 0.91694 0.79528 0.0
H1217 H 0.35674 0.89797 0.09527 0.0
H1218 H 0.35069 0.89062 0.99289 0.0
H1219 H 0.3148 0.90718 0.9939 0.0
H1220 H 0.32075 0.91461 0.09752 0.0
H1221 H 0.33606 0.91542 0.88815 0.0
H1222 H 0.29829 0.86898 0.00334 0.0
H1223 H 0.29023 0.84929 0.08543 0.0
H1224 H 0.32249 0.83212 0.02148 0.0
H1225 H 0.33084 0.85181 0.93911 0.0
C1226 C 0.31509 0.87122 0.65111 0.0
C1227 C 0.32715 0.867 0.63564 0.0
C1228 C 0.31318 0.87442 0.70923 0.0
C1229 C 0.3231 0.8731 0.7526 0.0
C1230 C 0.33404 0.86737 0.73784 0.0
C1231 C 0.33606 0.86435 0.67964 0.0
C1232 C 0.32357 0.87945 0.81198 0.0
C1233 C 0.31899 0.86841 0.85907 0.0
C1234 C 0.32936 0.89654 0.82229 0.0
C1235 C 0.33463 0.90877 0.77386 0.0
C1236 C 0.34722 0.91079 0.73489 0.0
C1237 C 0.35144 0.92162 0.68746 0.0
C1238 C 0.34347 0.93085 0.67932 0.0
C1239 C 0.33124 0.92924 0.71863 0.0
C1240 C 0.32681 0.91825 0.76575 0.0
C1241 C 0.34772 0.90031 0.07374 0.0
C1242 C 0.33906 0.90668 0.10472 0.0
C1243 C 0.34429 0.89609 0.0152 0.0
C1244 C 0.33213 0.89812 0.98636 0.0
C1245 C 0.32419 0.90548 0.01575 0.0
C1246 C 0.32761 0.90972 0.07479 0.0
C1247 C 0.32709 0.89129 0.92696 0.0
C1248 C 0.33091 0.90224 0.87988 0.0
C1249 C 0.32049 0.8741 0.91653 0.0
C1250 C 0.31526 0.86195 0.96522 0.0
C1251 C 0.30373 0.86107 0.00693 0.0
C1252 C 0.29911 0.8499 0.05351 0.0
C1253 C 0.3059 0.83951 0.05884 0.0
C1254 C 0.31725 0.84019 0.01733 0.0
C1255 C 0.3219 0.85131 0.97057 0.0
H1256 H 0.30233 0.83091 0.09505 0.0
H1257 H 0.34678 0.93926 0.64261 0.0
H1258 H 0.41822 0.35001 0.58654 0.0
H1259 H 0.41992 0.34682 0.48091 0.0
H1260 H 0.43624 0.31137 0.51121 0.0
H1261 H 0.43433 0.3142 0.61589 0.0
H1262 H 0.45921 0.34322 0.45095 0.0
H1263 H 0.40323 0.29638 0.44953 0.0
H1264 H 0.37302 0.28224 0.46742 0.0
H1265 H 0.36889 0.31692 0.3546 0.0
H1266 H 0.39914 0.33143 0.33673 0.0
H1267 H 0.47565 0.32711 0.16573 0.0
H1268 H 0.46531 0.32345 0.26623 0.0
H1269 H 0.43636 0.34649 0.22043 0.0
H1270 H 0.44648 0.34993 0.12034 0.0
H1271 H 0.41862 0.32056 0.28845 0.0
H1272 H 0.47322 0.36819 0.29148 0.0
H1273 H 0.50348 0.38431 0.27446 0.0
H1274 H 0.51044 0.35106 0.38561 0.0
H1275 H 0.48018 0.33459 0.40265 0.0
C1276 C 0.42167 0.34117 0.57063 0.0
C1277 C 0.4265 0.33263 0.60944 0.0
C1278 C 0.4226 0.33934 0.51043 0.0
C1279 C 0.42833 0.32897 0.48884 0.0
C1280 C 0.43184 0.31946 0.5274 0.0
C1281 C 0.4308 0.32117 0.5872 0.0
C1282 C 0.43329 0.33 0.42745 0.0
C1283 C 0.45036 0.33807 0.41534 0.0
C1284 C 0.42167 0.32379 0.38148 0.0
C1285 C 0.40349 0.31512 0.39238 0.0
C1286 C 0.39592 0.30111 0.42908 0.0
C1287 C 0.37878 0.293 0.43908 0.0
C1288 C 0.36905 0.29871 0.41233 0.0
C1289 C 0.37644 0.31253 0.37539 0.0
C1290 C 0.39359 0.32069 0.36528 0.0
C1291 C 0.46704 0.33131 0.17737 0.0
C1292 C 0.46163 0.33854 0.13549 0.0
C1293 C 0.46115 0.32924 0.23452 0.0
C1294 C 0.45011 0.33476 0.25069 0.0
C1295 C 0.44471 0.34198 0.20869 0.0
C1296 C 0.45047 0.34389 0.15157 0.0
C1297 C 0.44462 0.33359 0.31183 0.0
C1298 C 0.42749 0.32564 0.32397 0.0
C1299 C 0.45621 0.3402 0.35805 0.0
C1300 C 0.47441 0.35005 0.34782 0.0
C1301 C 0.48119 0.36423 0.3119 0.0
C1302 C 0.49834 0.37345 0.30231 0.0
C1303 C 0.50887 0.36869 0.3288 0.0
C1304 C 0.50227 0.35472 0.36503 0.0
C1305 C 0.48512 0.34544 0.3747 0.0
H1306 H 0.52215 0.37585 0.32135 0.0
H1307 H 0.35578 0.2924 0.42009 0.0
H1308 H 0.58677 0.93251 0.39731 0.0
H1309 H 0.5852 0.92769 0.50301 0.0
H1310 H 0.56609 0.87538 0.4731 0.0
H1311 H 0.5678 0.88002 0.36842 0.0
H1312 H 0.54462 0.88592 0.5343 0.0
H1313 H 0.59957 0.89223 0.53309 0.0
H1314 H 0.62974 0.90715 0.51413 0.0
H1315 H 0.63609 0.94663 0.62794 0.0
H1316 H 0.60589 0.93205 0.64691 0.0
H1317 H 0.52734 0.85286 0.81813 0.0
H1318 H 0.53783 0.85936 0.71776 0.0
H1319 H 0.5688 0.91102 0.7648 0.0
H1320 H 0.55854 0.90452 0.86473 0.0
H1321 H 0.58549 0.90185 0.69521 0.0
H1322 H 0.5321 0.89772 0.69515 0.0
H1323 H 0.50199 0.88488 0.71337 0.0
H1324 H 0.49264 0.84418 0.60063 0.0
H1325 H 0.52274 0.85667 0.58239 0.0
C1326 C 0.58272 0.92009 0.41332 0.0
C1327 C 0.57706 0.90658 0.37467 0.0
C1328 C 0.58187 0.91737 0.47354 0.0
C1329 C 0.57541 0.90117 0.49528 0.0
C1330 C 0.57106 0.88795 0.4568 0.0
C1331 C 0.57198 0.89064 0.397 0.0
C1332 C 0.57057 0.89747 0.55684 0.0
C1333 C 0.55352 0.88918 0.56955 0.0
C1334 C 0.58229 0.90234 0.60236 0.0
C1335 C 0.60043 0.91114 0.59084 0.0
C1336 C 0.60736 0.90418 0.55354 0.0
C1337 C 0.62448 0.91256 0.54293 0.0
C1338 C 0.63482 0.92786 0.56965 0.0
C1339 C 0.62806 0.93479 0.60718 0.0
C1340 C 0.61095 0.92647 0.61791 0.0
C1341 C 0.53645 0.86555 0.80682 0.0
C1342 C 0.54236 0.87814 0.84898 0.0
C1343 C 0.54243 0.86926 0.74974 0.0
C1344 C 0.55404 0.8857 0.73393 0.0
C1345 C 0.55999 0.89824 0.77627 0.0
C1346 C 0.55416 0.8945 0.83332 0.0
C1347 C 0.55947 0.88998 0.67274 0.0
C1348 C 0.57657 0.8985 0.66003 0.0
C1349 C 0.54781 0.88561 0.62699 0.0
C1350 C 0.52969 0.87804 0.63792 0.0
C1351 C 0.52364 0.88596 0.67464 0.0
C1352 C 0.50657 0.87876 0.6849 0.0
C1353 C 0.49541 0.8637 0.65831 0.0
C1354 C 0.5013 0.85583 0.62129 0.0
C1355 C 0.51836 0.86297 0.61094 0.0
H1356 H 0.4822 0.85815 0.66628 0.0
H1357 H 0.64808 0.93432 0.56141 0.0
H1358 H 0.6962 0.57039 0.39215 0.0
H1359 H 0.69958 0.57925 0.28991 0.0
H1360 H 0.66539 0.52873 0.23783 0.0
H1361 H 0.66179 0.5199 0.34005 0.0
H1362 H 0.6921 0.54594 0.15954 0.0
H1363 H 0.651 0.55351 0.26476 0.0
H1364 H 0.64251 0.56471 0.34685 0.0
H1365 H 0.67765 0.61451 0.29338 0.0
H1366 H 0.68678 0.60356 0.21197 0.0
H1367 H 0.64807 0.54396 0.91514 0.0
H1368 H 0.65447 0.54341 0.01763 0.0
H1369 H 0.69104 0.59561 0.01103 0.0
H1370 H 0.68485 0.59631 0.90721 0.0
H1371 H 0.66862 0.58265 0.11814 0.0
H1372 H 0.70742 0.57489 0.00489 0.0
H1373 H 0.71578 0.56321 0.92379 0.0
H1374 H 0.68478 0.51397 0.99151 0.0
H1375 H 0.67602 0.52534 0.07257 0.0
C1376 C 0.68949 0.5612 0.3587 0.0
C1377 C 0.67828 0.5446 0.37372 0.0
C1378 C 0.69154 0.56624 0.30049 0.0
C1379 C 0.6825 0.55468 0.25665 0.0
C1380 C 0.67241 0.53783 0.27119 0.0
C1381 C 0.67033 0.53281 0.32945 0.0
C1382 C 0.68199 0.5603 0.1968 0.0
C1383 C 0.68704 0.55401 0.15044 0.0
C1384 C 0.67568 0.57111 0.18528 0.0
C1385 C 0.66973 0.57771 0.23271 0.0
C1386 C 0.657 0.56685 0.27071 0.0
C1387 C 0.65208 0.57315 0.31716 0.0
C1388 C 0.65954 0.59032 0.32539 0.0
C1389 C 0.67191 0.60121 0.28703 0.0
C1390 C 0.677 0.59497 0.2408 0.0
C1391 C 0.65731 0.55543 0.9354 0.0
C1392 C 0.6661 0.57015 0.90279 0.0
C1393 C 0.66094 0.55507 0.99402 0.0
C1394 C 0.67335 0.56941 0.02136 0.0
C1395 C 0.68145 0.58442 0.99032 0.0
C1396 C 0.6779 0.58478 0.93115 0.0
C1397 C 0.67847 0.56805 0.08104 0.0
C1398 C 0.67416 0.575 0.12733 0.0
C1399 C 0.68549 0.55788 0.09258 0.0
C1400 C 0.69098 0.55097 0.04464 0.0
C1401 C 0.7023 0.56156 0.00231 0.0
C1402 C 0.70713 0.555 0.95637 0.0
C1403 C 0.70079 0.53786 0.95245 0.0
C1404 C 0.68967 0.52725 0.9946 0.0
C1405 C 0.68479 0.53375 0.04063 0.0
H1406 H 0.70452 0.5328 0.91678 0.0
H1407 H 0.65572 0.59518 0.36143 0.0
H1408 H 0.09389 0.64808 0.40156 0.0
H1409 H 0.09589 0.65138 0.50704 0.0
H1410 H 0.10368 0.70107 0.48964 0.0
H1411 H 0.10165 0.69781 0.3831 0.0
H1412 H 0.12763 0.69969 0.55666 0.0
H1413 H 0.06895 0.6728 0.55361 0.0
H1414 H 0.04037 0.652 0.52511 0.0
H1415 H 0.04658 0.61319 0.60122 0.0
H1416 H 0.0753 0.63371 0.62942 0.0
H1417 H 0.13373 0.6988 0.87074 0.0
H1418 H 0.12525 0.70213 0.77266 0.0
H1419 H 0.11304 0.65198 0.73036 0.0
H1420 H 0.121 0.64847 0.82867 0.0
H1421 H 0.08833 0.65848 0.69883 0.0
H1422 H 0.14851 0.68484 0.68236 0.0
H1423 H 0.17739 0.70542 0.70871 0.0
H1424 H 0.16809 0.74521 0.66811 0.0
H1425 H 0.13907 0.72484 0.64223 0.0
C1426 C 0.09574 0.65962 0.42015 0.0
C1427 C 0.09767 0.67271 0.38422 0.0
C1428 C 0.09678 0.66145 0.48046 0.0
C1429 C 0.0998 0.67642 0.50611 0.0
C1430 C 0.10124 0.68939 0.47054 0.0
C1431 C 0.10002 0.68748 0.40988 0.0
C1432 C 0.10301 0.67877 0.56949 0.0
C1433 C 0.11887 0.69099 0.58814 0.0
C1434 C 0.09164 0.66727 0.61021 0.0
C1435 C 0.07433 0.65482 0.59346 0.0
C1436 C 0.06427 0.65981 0.56393 0.0
C1437 C 0.04803 0.64807 0.54788 0.0
C1438 C 0.04167 0.63129 0.5613 0.0
C1439 C 0.05153 0.62621 0.59088 0.0
C1440 C 0.06778 0.63789 0.60701 0.0
C1441 C 0.12901 0.68845 0.84068 0.0
C1442 C 0.12767 0.67326 0.85739 0.0
C1443 C 0.12435 0.69042 0.7846 0.0
C1444 C 0.11841 0.67725 0.74452 0.0
C1445 C 0.11745 0.66223 0.76089 0.0
C1446 C 0.12213 0.66029 0.81675 0.0
C1447 C 0.11315 0.67892 0.68525 0.0
C1448 C 0.0969 0.66746 0.66761 0.0
C1449 C 0.12416 0.69111 0.64549 0.0
C1450 C 0.14158 0.70333 0.66115 0.0
C1451 C 0.15258 0.69798 0.6796 0.0
C1452 C 0.16898 0.7096 0.69432 0.0
C1453 C 0.17455 0.72661 0.6903 0.0
C1454 C 0.16374 0.73203 0.67136 0.0
C1455 C 0.14733 0.72046 0.65664 0.0
H1456 H 0.18725 0.73559 0.70169 0.0
H1457 H 0.02909 0.62222 0.54884 0.0
H1458 H 0.44831 0.09087 0.91406 0.0
H1459 H 0.4481 0.09355 0.0197 0.0
H1460 H 0.4052 0.09984 0.00753 0.0
H1461 H 0.40529 0.09707 0.90095 0.0
H1462 H 0.43118 0.12474 0.07119 0.0
H1463 H 0.40022 0.06588 0.07146 0.0
H1464 H 0.39292 0.03734 0.0441 0.0
H1465 H 0.43882 0.04501 0.11695 0.0
H1466 H 0.44654 0.07368 0.144 0.0
H1467 H 0.43835 0.13215 0.38431 0.0
H1468 H 0.42676 0.12326 0.28619 0.0
H1469 H 0.46486 0.11098 0.24741 0.0
H1470 H 0.47605 0.11928 0.34588 0.0
H1471 H 0.43433 0.08633 0.21429 0.0
H1472 H 0.46713 0.14642 0.19664 0.0
H1473 H 0.47505 0.17528 0.22182 0.0
H1474 H 0.42578 0.16523 0.18024 0.0
H1475 H 0.41751 0.13623 0.15552 0.0
C1476 C 0.43864 0.09253 0.93388 0.0
C1477 C 0.42683 0.09379 0.89936 0.0
C1478 C 0.43849 0.09397 0.99428 0.0
C1479 C 0.42658 0.09679 0.02142 0.0
C1480 C 0.41444 0.09759 0.9873 0.0
C1481 C 0.41445 0.09592 0.92661 0.0
C1482 C 0.42797 0.10034 0.08471 0.0
C1483 C 0.43142 0.11619 0.10288 0.0
C1484 C 0.42855 0.08925 0.12567 0.0
C1485 C 0.42399 0.07199 0.10951 0.0
C1486 C 0.40883 0.06153 0.08127 0.0
C1487 C 0.4046 0.04532 0.06588 0.0
C1488 C 0.41541 0.03937 0.07872 0.0
C1489 C 0.43046 0.04963 0.10705 0.0
C1490 C 0.43475 0.06586 0.12251 0.0
C1491 C 0.44405 0.12731 0.35507 0.0
C1492 C 0.45785 0.12604 0.37289 0.0
C1493 C 0.43756 0.12242 0.29889 0.0
C1494 C 0.44491 0.11637 0.25967 0.0
C1495 C 0.45892 0.11547 0.27718 0.0
C1496 C 0.46539 0.12035 0.33317 0.0
C1497 C 0.43815 0.11094 0.20018 0.0
C1498 C 0.43368 0.09473 0.18288 0.0
C1499 C 0.43668 0.1217 0.16001 0.0
C1500 C 0.44164 0.13911 0.17501 0.0
C1501 C 0.45794 0.15032 0.19341 0.0
C1502 C 0.46251 0.16671 0.20748 0.0
C1503 C 0.45091 0.17207 0.20285 0.0
C1504 C 0.43474 0.16105 0.18396 0.0
C1505 C 0.43011 0.14464 0.1699 0.0
H1506 H 0.45447 0.18476 0.21372 0.0
H1507 H 0.41211 0.02681 0.06677 0.0
H1508 H 0.34959 0.44467 0.86973 0.0
H1509 H 0.34675 0.43298 0.77244 0.0
H1510 H 0.32444 0.46137 0.71185 0.0
H1511 H 0.3269 0.47286 0.81028 0.0
H1512 H 0.3084 0.42788 0.67066 0.0
H1513 H 0.36392 0.47589 0.68742 0.0
H1514 H 0.39142 0.4924 0.73361 0.0
H1515 H 0.40099 0.45205 0.70994 0.0
H1516 H 0.37342 0.43522 0.66426 0.0
H1517 H 0.32408 0.44277 0.37449 0.0
H1518 H 0.32044 0.44142 0.47927 0.0
H1519 H 0.3488 0.41632 0.49515 0.0
H1520 H 0.35282 0.41792 0.38908 0.0
H1521 H 0.36057 0.44238 0.56487 0.0
H1522 H 0.30718 0.39622 0.53155 0.0
H1523 H 0.2798 0.37962 0.48473 0.0
H1524 H 0.26587 0.41525 0.53893 0.0
H1525 H 0.29325 0.43221 0.58536 0.0
C1526 C 0.34365 0.44808 0.83618 0.0
C1527 C 0.33809 0.45937 0.84765 0.0
C1528 C 0.3422 0.44152 0.78051 0.0
C1529 C 0.33537 0.4463 0.73523 0.0
C1530 C 0.32964 0.45745 0.74657 0.0
C1531 C 0.33114 0.46408 0.80242 0.0
C1532 C 0.3351 0.44044 0.67528 0.0
C1533 C 0.31976 0.43108 0.64719 0.0
C1534 C 0.34995 0.44408 0.64596 0.0
C1535 C 0.36655 0.45423 0.67309 0.0
C1536 C 0.37183 0.47049 0.69251 0.0
C1537 C 0.38744 0.47992 0.71851 0.0
C1538 C 0.39793 0.47326 0.72488 0.0
C1539 C 0.39284 0.45718 0.70508 0.0
C1540 C 0.37724 0.44769 0.67911 0.0
C1541 C 0.32934 0.4367 0.3999 0.0
C1542 C 0.33889 0.43059 0.37348 0.0
C1543 C 0.32709 0.43579 0.45996 0.0
C1544 C 0.33418 0.4286 0.49502 0.0
C1545 C 0.34315 0.42184 0.46872 0.0
C1546 C 0.34543 0.42276 0.40823 0.0
C1547 C 0.33384 0.43016 0.5591 0.0
C1548 C 0.34911 0.43877 0.58835 0.0
C1549 C 0.3189 0.42572 0.58945 0.0
C1550 C 0.30234 0.41553 0.56179 0.0
C1551 C 0.29833 0.40058 0.53318 0.0
C1552 C 0.28279 0.39109 0.50675 0.0
C1553 C 0.27111 0.39638 0.50881 0.0
C1554 C 0.27493 0.41116 0.5374 0.0
C1555 C 0.29045 0.4207 0.5639 0.0
H1556 H 0.25909 0.38902 0.4883 0.0
H1557 H 0.41001 0.48057 0.74501 0.0
H1558 H 0.85094 0.31194 0.33616 0.0
H1559 H 0.85705 0.30979 0.23293 0.0
H1560 H 0.90253 0.35697 0.24591 0.0
H1561 H 0.89667 0.35891 0.34892 0.0
H1562 H 0.88097 0.35178 0.14313 0.0
H1563 H 0.90712 0.32644 0.25525 0.0
H1564 H 0.90654 0.3062 0.32618 0.0
H1565 H 0.87094 0.26591 0.22046 0.0
H1566 H 0.87109 0.28595 0.14937 0.0
H1567 H 0.92297 0.35784 0.88943 0.0
H1568 H 0.91825 0.35678 0.99456 0.0
H1569 H 0.88334 0.30411 0.9825 0.0
H1570 H 0.88905 0.30496 0.87791 0.0
H1571 H 0.8973 0.31042 0.08454 0.0
H1572 H 0.87091 0.33385 0.97108 0.0
H1573 H 0.86961 0.35283 0.89876 0.0
H1574 H 0.9022 0.39483 0.00438 0.0
H1575 H 0.90392 0.3761 0.0769 0.0
C1576 C 0.86212 0.32186 0.31646 0.0
C1577 C 0.8734 0.33554 0.34977 0.0
C1578 C 0.86562 0.32061 0.25797 0.0
C1579 C 0.88026 0.3332 0.23232 0.0
C1580 C 0.89119 0.34716 0.26517 0.0
C1581 C 0.88786 0.34825 0.32371 0.0
C1582 C 0.88459 0.33174 0.17166 0.0
C1583 C 0.88465 0.34284 0.1302 0.0
C1584 C 0.88889 0.31972 0.15498 0.0
C1585 C 0.88896 0.30769 0.19737 0.0
C1586 C 0.89904 0.31327 0.24741 0.0
C1587 C 0.89882 0.30184 0.28759 0.0
C1588 C 0.88868 0.28478 0.27792 0.0
C1589 C 0.87877 0.27913 0.22795 0.0
C1590 C 0.87892 0.29052 0.1877 0.0
C1591 C 0.91475 0.34596 0.90975 0.0
C1592 C 0.90621 0.33152 0.87593 0.0
C1593 C 0.91192 0.34537 0.96957 0.0
C1594 C 0.89992 0.3305 0.99587 0.0
C1595 C 0.89249 0.31577 0.96297 0.0
C1596 C 0.89576 0.31625 0.90329 0.0
C1597 C 0.89401 0.33071 0.05572 0.0
C1598 C 0.89354 0.31933 0.09707 0.0
C1599 C 0.88898 0.34228 0.0721 0.0
C1600 C 0.88764 0.35357 0.02924 0.0
C1601 C 0.87785 0.34713 0.97879 0.0
C1602 C 0.87704 0.35785 0.93773 0.0
C1603 C 0.88584 0.37503 0.94691 0.0
C1604 C 0.8954 0.38152 -0.00271 0.0
C1605 C 0.89629 0.37086 0.03842 0.0
H1606 H 0.88522 0.38331 0.91502 0.0
H1607 H 0.88852 0.27594 0.30907 0.0
H1608 H 0.15352 0.42169 0.2844 0.0
H1609 H 0.17881 0.42108 0.25685 0.0
H1610 H 0.20755 0.47446 0.27413 0.0
H1611 H 0.18227 0.47504 0.30175 0.0
H1612 H 0.21394 0.46266 0.17077 0.0
H1613 H 0.21023 0.45118 0.37684 0.0
H1614 H 0.19636 0.43602 0.46678 0.0
H1615 H 0.19071 0.39088 0.39382 0.0
H1616 H 0.20433 0.40573 0.30303 0.0
H1617 H 0.29562 0.4751 0.16402 0.0
H1618 H 0.2696 0.4744 0.18862 0.0
H1619 H 0.24426 0.42074 0.19485 0.0
H1620 H 0.27051 0.42156 0.1719 0.0
H1621 H 0.23533 0.43178 0.28419 0.0
H1622 H 0.23921 0.44253 0.07953 0.0
H1623 H 0.25247 0.45694 0.98783 0.0
H1624 H 0.25686 0.5022 0.0543 0.0
H1625 H 0.24385 0.48813 0.14679 0.0
C1626 C 0.1653 0.43323 0.28268 0.0
C1627 C 0.16611 0.44839 0.2956 0.0
C1628 C 0.17969 0.43289 0.26703 0.0
C1629 C 0.19506 0.44773 0.26377 0.0
C1630 C 0.19582 0.46289 0.27647 0.0
C1631 C 0.18146 0.4632 0.29258 0.0
C1632 C 0.21032 0.44748 0.2464 0.0
C1633 C 0.21876 0.45608 0.19587 0.0
C1634 C 0.21626 0.43846 0.27824 0.0
C1635 C 0.20814 0.42953 0.33291 0.0
C1636 C 0.2059 0.43799 0.37977 0.0
C1637 C 0.19811 0.42946 0.43095 0.0
C1638 C 0.19262 0.41248 0.43596 0.0
C1639 C 0.19495 0.40402 0.38984 0.0
C1640 C 0.20271 0.41249 0.33853 0.0
C1641 C 0.28441 0.46318 0.17007 0.0
C1642 C 0.28491 0.44837 0.16568 0.0
C1643 C 0.26956 0.46277 0.18397 0.0
C1644 C 0.25487 0.4475 0.19277 0.0
C1645 C 0.2554 0.43267 0.18815 0.0
C1646 C 0.27032 0.43311 0.17483 0.0
C1647 C 0.2391 0.44705 0.2085 0.0
C1648 C 0.23053 0.43831 0.25877 0.0
C1649 C 0.23294 0.45582 0.17605 0.0
C1650 C 0.24068 0.4643 0.12031 0.0
C1651 C 0.24311 0.45559 0.07477 0.0
C1652 C 0.25057 0.46369 0.02262 0.0
C1653 C 0.25554 0.48048 0.01529 0.0
C1654 C 0.25302 0.4892 0.06006 0.0
C1655 C 0.24559 0.48116 0.11234 0.0
H1656 H 0.26131 0.48674 0.97488 0.0
H1657 H 0.18659 0.4059 0.47562 0.0
H1658 H 0.82344 0.29158 0.63784 0.0
H1659 H 0.79802 0.26573 0.66256 0.0
H1660 H 0.82659 0.25054 0.7681 0.0
H1661 H 0.85214 0.27609 0.7413 0.0
H1662 H 0.80394 0.22491 0.70728 0.0
H1663 H 0.80389 0.26666 0.82944 0.0
H1664 H 0.80542 0.29336 0.852 0.0
H1665 H 0.76192 0.27933 0.74807 0.0
H1666 H 0.76026 0.25263 0.72417 0.0
H1667 H 0.73512 0.16177 0.86661 0.0
H1668 H 0.761 0.18756 0.84282 0.0
H1669 H 0.73418 0.20087 0.72094 0.0
H1670 H 0.70838 0.17508 0.74461 0.0
H1671 H 0.756 0.22733 0.79205 0.0
H1672 H 0.75657 0.18547 0.66988 0.0
H1673 H 0.75511 0.15868 0.64985 0.0
H1674 H 0.79795 0.17299 0.75777 0.0
H1675 H 0.79951 0.19978 0.77921 0.0
C1676 C 0.82432 0.28259 0.66547 0.0
C1677 C 0.83976 0.28579 0.68754 0.0
C1678 C 0.80977 0.26792 0.68018 0.0
C1679 C 0.81035 0.25629 0.71793 0.0
C1680 C 0.82581 0.25934 0.7391 0.0
C1681 C 0.84038 0.27397 0.7241 0.0
C1682 C 0.79482 0.24102 0.73571 0.0
C1683 C 0.79356 0.22547 0.72656 0.0
C1684 C 0.78114 0.24169 0.76005 0.0
C1685 C 0.78205 0.25771 0.77457 0.0
C1686 C 0.79472 0.26932 0.81104 0.0
C1687 C 0.7956 0.28445 0.82412 0.0
C1688 C 0.7838 0.28806 0.80137 0.0
C1689 C 0.77107 0.27653 0.7656 0.0
C1690 C 0.77014 0.26139 0.75231 0.0
C1691 C 0.73484 0.17027 0.83488 0.0
C1692 C 0.71994 0.16649 0.80685 0.0
C1693 C 0.74957 0.18493 0.82124 0.0
C1694 C 0.74952 0.19604 0.77972 0.0
C1695 C 0.73449 0.19245 0.75295 0.0
C1696 C 0.71982 0.17773 0.76622 0.0
C1697 C 0.76517 0.2113 0.76344 0.0
C1698 C 0.76643 0.22682 0.77289 0.0
C1699 C 0.77889 0.21061 0.73978 0.0
C1700 C 0.77804 0.19456 0.72664 0.0
C1701 C 0.76559 0.18285 0.68975 0.0
C1702 C 0.76476 0.16767 0.67806 0.0
C1703 C 0.77641 0.16412 0.70264 0.0
C1704 C 0.78893 0.17575 0.73884 0.0
C1705 C 0.78979 0.19094 0.75074 0.0
H1706 H 0.77575 0.15236 0.69354 0.0
H1707 H 0.78451 0.29978 0.81155 0.0
H1708 H 0.5294 0.82092 0.16074 0.0
H1709 H 0.52981 0.79529 0.18403 0.0
H1710 H 0.5834 0.82221 0.17504 0.0
H1711 H 0.58298 0.84791 0.15243 0.0
H1712 H 0.56723 0.78943 0.12033 0.0
H1713 H 0.56786 0.81655 0.30062 0.0
H1714 H 0.55736 0.82965 0.36904 0.0
H1715 H 0.51049 0.78418 0.37901 0.0
H1716 H 0.52062 0.77091 0.30966 0.0
H1717 H 0.58266 0.73116 0.26663 0.0
H1718 H 0.58294 0.75662 0.23599 0.0
H1719 H 0.53104 0.73442 0.28205 0.0
H1720 H 0.53098 0.70922 0.31434 0.0
H1721 H 0.54656 0.76515 0.31634 0.0
H1722 H 0.54482 0.73761 0.13796 0.0
H1723 H 0.55399 0.72395 0.06671 0.0
H1724 H 0.60102 0.76896 0.04945 0.0
H1725 H 0.59223 0.78281 0.12134 0.0
C1726 C 0.54122 0.82124 0.16288 0.0
C1727 C 0.55616 0.83623 0.15477 0.0
C1728 C 0.54145 0.80667 0.17629 0.0
C1729 C 0.55664 0.80691 0.18146 0.0
C1730 C 0.57157 0.82178 0.17104 0.0
C1731 C 0.57133 0.8364 0.1583 0.0
C1732 C 0.55697 0.79189 0.20135 0.0
C1733 C 0.56291 0.78419 0.16338 0.0
C1734 C 0.55095 0.7849 0.25702 0.0
C1735 C 0.54494 0.79279 0.29949 0.0
C1736 C 0.55527 0.80939 0.31702 0.0
C1737 C 0.54939 0.81684 0.35602 0.0
C1738 C 0.53326 0.80777 0.37828 0.0
C1739 C 0.52298 0.7912 0.36168 0.0
C1740 C 0.52878 0.78371 0.32253 0.0
C1741 C 0.57138 0.73184 0.27034 0.0
C1742 C 0.55683 0.71837 0.29291 0.0
C1743 C 0.57149 0.7463 0.25255 0.0
C1744 C 0.55693 0.74738 0.25584 0.0
C1745 C 0.54242 0.73392 0.27908 0.0
C1746 C 0.54238 0.71955 0.29751 0.0
C1747 C 0.55678 0.76251 0.23525 0.0
C1748 C 0.55089 0.77029 0.27317 0.0
C1749 C 0.56266 0.76944 0.17921 0.0
C1750 C 0.56792 0.7612 0.13547 0.0
C1751 C 0.55716 0.74456 0.11927 0.0
C1752 C 0.56229 0.73679 0.07874 0.0
C1753 C 0.57809 0.74557 0.05367 0.0
C1754 C 0.58879 0.76216 0.06896 0.0
C1755 C 0.58374 0.76999 0.10958 0.0
H1756 H 0.58204 0.73953 0.02231 0.0
H1757 H 0.52872 0.81356 0.40848 0.0
H1758 H 0.841 0.57198 0.89499 0.0
H1759 H 0.8155 0.57302 0.87615 0.0
H1760 H 0.80511 0.54078 0.72736 0.0
H1761 H 0.83087 0.54029 0.74515 0.0
H1762 H 0.79884 0.56393 0.69955 0.0
H1763 H 0.78486 0.52714 0.86329 0.0
H1764 H 0.78813 0.51871 0.96211 0.0
H1765 H 0.78247 0.5581 0.03595 0.0
H1766 H 0.77943 0.56694 0.93743 0.0
H1767 H 0.71239 0.53356 0.6664 0.0
H1768 H 0.73894 0.53545 0.69067 0.0
H1769 H 0.75035 0.57614 0.80766 0.0
H1770 H 0.72404 0.57475 0.78163 0.0
H1771 H 0.75646 0.55052 0.85373 0.0
H1772 H 0.76899 0.58589 0.68572 0.0
H1773 H 0.76448 0.5925 0.58564 0.0
H1774 H 0.77153 0.55327 0.51862 0.0
H1775 H 0.77582 0.54624 0.61847 0.0
C1776 C 0.83321 0.56516 0.85834 0.0
C1777 C 0.83779 0.55608 0.82143 0.0
C1778 C 0.81863 0.56567 0.8477 0.0
C1779 C 0.80821 0.55679 0.80071 0.0
C1780 C 0.81291 0.54776 0.76378 0.0
C1781 C 0.82758 0.54745 0.77396 0.0
C1782 C 0.79246 0.5569 0.78956 0.0
C1783 C 0.78953 0.56082 0.73323 0.0
C1784 C 0.78038 0.55317 0.83365 0.0
C1785 C 0.7821 0.54782 0.89295 0.0
C1786 C 0.78444 0.53409 0.90057 0.0
C1787 C 0.78624 0.52922 0.95653 0.0
C1788 C 0.78556 0.53789 0.00527 0.0
C1789 C 0.78303 0.55142 -0.00186 0.0
C1790 C 0.78126 0.55636 0.94226 0.0
C1791 C 0.72066 0.54307 0.69663 0.0
C1792 C 0.71625 0.55415 0.72154 0.0
C1793 C 0.73574 0.54404 0.71081 0.0
C1794 C 0.74663 0.556 0.75065 0.0
C1795 C 0.7421 0.56681 0.77684 0.0
C1796 C 0.72708 0.56599 0.76203 0.0
C1797 C 0.76289 0.55734 0.76383 0.0
C1798 C 0.76587 0.55371 0.82038 0.0
C1799 C 0.77492 0.56109 0.71982 0.0
C1800 C 0.77258 0.56544 0.65965 0.0
C1801 C 0.76946 0.57859 0.6497 0.0
C1802 C 0.76695 0.58242 0.593 0.0
C1803 C 0.76768 0.57329 0.54581 0.0
C1804 C 0.77096 0.56033 0.55522 0.0
C1805 C 0.77344 0.55642 0.61186 0.0
H1806 H 0.76574 0.57627 0.50195 0.0
H1807 H 0.78695 0.53411 0.04856 0.0
H1808 H 0.27192 0.84595 0.34927 0.0
H1809 H 0.24543 0.82097 0.32562 0.0
H1810 H 0.27101 0.80509 0.20751 0.0
H1811 H 0.29739 0.83031 0.23014 0.0
H1812 H 0.24288 0.79916 0.16061 0.0
H1813 H 0.25904 0.78871 0.34685 0.0
H1814 H 0.26781 0.7945 0.44969 0.0
H1815 H 0.22217 0.79309 0.49382 0.0
H1816 H 0.21325 0.78758 0.39098 0.0
H1817 H 0.18178 0.71305 0.14764 0.0
H1818 H 0.2072 0.73944 0.16758 0.0
H1819 H 0.17853 0.75691 0.26079 0.0
H1820 H 0.15296 0.73068 0.23935 0.0
H1821 H 0.20756 0.76221 0.32003 0.0
H1822 H 0.19147 0.77154 0.13073 0.0
H1823 H 0.18324 0.76485 0.02772 0.0
H1824 H 0.22962 0.7671 0.98969 0.0
H1825 H 0.23802 0.77354 0.09275 0.0
C1826 C 0.27179 0.83709 0.31818 0.0
C1827 C 0.28657 0.83988 0.29168 0.0
C1828 C 0.25671 0.82283 0.30483 0.0
C1829 C 0.25624 0.81098 0.2655 0.0
C1830 C 0.27104 0.81401 0.23805 0.0
C1831 C 0.28608 0.82835 0.25103 0.0
C1832 C 0.24041 0.79532 0.2536 0.0
C1833 C 0.23527 0.79101 0.19549 0.0
C1834 C 0.2303 0.78476 0.29909 0.0
C1835 C 0.23555 0.7879 0.36109 0.0
C1836 C 0.25093 0.78976 0.3784 0.0
C1837 C 0.25592 0.79298 0.4367 0.0
C1838 C 0.24557 0.7942 0.47824 0.0
C1839 C 0.23019 0.79216 0.46157 0.0
C1840 C 0.22515 0.78899 0.40329 0.0
C1841 C 0.18088 0.72264 0.17151 0.0
C1842 C 0.16539 0.71997 0.19114 0.0
C1843 C 0.1954 0.73764 0.18318 0.0
C1844 C 0.19472 0.75017 0.21521 0.0
C1845 C 0.17931 0.7474 0.23591 0.0
C1846 C 0.16475 0.73245 0.22368 0.0
C1847 C 0.21013 0.76612 0.22723 0.0
C1848 C 0.21517 0.77044 0.2853 0.0
C1849 C 0.22026 0.77657 0.18173 0.0
C1850 C 0.2153 0.77287 0.1196 0.0
C1851 C 0.19986 0.77048 0.10051 0.0
C1852 C 0.19517 0.76675 0.04209 0.0
C1853 C 0.20588 0.76551 0.00221 0.0
C1854 C 0.22133 0.76804 0.02065 0.0
C1855 C 0.22606 0.77174 0.07905 0.0
H1856 H 0.20223 0.76262 0.957 0.0
H1857 H 0.24946 0.79669 0.52336 0.0
H1858 H 0.42059 0.26669 0.83055 0.0
H1859 H 0.42073 0.24076 0.80981 0.0
H1860 H 0.47431 0.26827 0.80005 0.0
H1861 H 0.47414 0.29413 0.8215 0.0
H1862 H 0.45846 0.24657 0.70429 0.0
H1863 H 0.45763 0.24553 0.91419 0.0
H1864 H 0.44679 0.24649 0.01139 0.0
H1865 H 0.40003 0.20329 0.96984 0.0
H1866 H 0.41051 0.20222 0.87197 0.0
H1867 H 0.4739 0.17938 0.69065 0.0
H1868 H 0.47362 0.20481 0.71706 0.0
H1869 H 0.42142 0.17558 0.75956 0.0
H1870 H 0.42192 0.1501 0.73491 0.0
H1871 H 0.43624 0.19827 0.83876 0.0
H1872 H 0.43593 0.19879 0.63045 0.0
H1873 H 0.44559 0.19749 0.53147 0.0
H1874 H 0.49262 0.24114 0.56626 0.0
H1875 H 0.48334 0.24255 0.66584 0.0
C1876 C 0.43235 0.26707 0.82463 0.0
C1877 C 0.44736 0.28223 0.82794 0.0
C1878 C 0.43244 0.25234 0.81282 0.0
C1879 C 0.44754 0.25262 0.80358 0.0
C1880 C 0.46254 0.2678 0.8071 0.0
C1881 C 0.46246 0.2825 0.81962 0.0
C1882 C 0.44765 0.23715 0.7886 0.0
C1883 C 0.45381 0.23607 0.73391 0.0
C1884 C 0.4411 0.22331 0.82662 0.0
C1885 C 0.4348 0.2239 0.88552 0.0
C1886 C 0.44498 0.23632 0.92557 0.0
C1887 C 0.43892 0.23687 0.98083 0.0
C1888 C 0.42272 0.22499 0.99673 0.0
C1889 C 0.41257 0.2125 0.95743 0.0
C1890 C 0.41857 0.21191 0.90208 0.0
C1891 C 0.46237 0.17847 0.7052 0.0
C1892 C 0.44787 0.16292 0.71007 0.0
C1893 C 0.46219 0.19297 0.72018 0.0
C1894 C 0.44741 0.19218 0.73932 0.0
C1895 C 0.43295 0.17654 0.74474 0.0
C1896 C 0.4332 0.16202 0.73045 0.0
C1897 C 0.44711 0.20762 0.75426 0.0
C1898 C 0.44089 0.20872 0.80893 0.0
C1899 C 0.45341 0.22142 0.71585 0.0
C1900 C 0.45899 0.22068 0.65582 0.0
C1901 C 0.44838 0.20804 0.61715 0.0
C1902 C 0.45378 0.20729 0.56092 0.0
C1903 C 0.46972 0.2192 0.54264 0.0
C1904 C 0.48028 0.23191 0.58051 0.0
C1905 C 0.47495 0.2327 0.63684 0.0
H1906 H 0.47388 0.2186 0.49908 0.0
H1907 H 0.41805 0.22543 0.03954 0.0
loop_
_geom_bond_atom_site_label_1
_geom_bond_atom_site_label_2
_geom_bond_distance
_geom_bond_site_symmetry_2
_ccdc_geom_bond_type
Co0 O3 1.970 . S
Co0 N17 1.989 . S
Co0 O25 1.967 . S
Co0 O32 1.920 . S
Co1 O4 1.966 . S
Co1 N10 2.022 . S
Co1 N18 1.993 . S
Co1 O26 1.941 . S
C2 O3 1.258 . S
C2 O4 1.263 . S
O3 Co0 1.970 . S
O3 C2 1.258 . S
O4 Co1 1.966 . S
O4 C2 1.263 . S
C5 O6 1.235 . S
C5 O32 1.289 . S
O6 C5 1.235 . S
C7 C9 1.400 . S
C7 N10 1.351 . S
C7 C12 1.501 . S
C8 C9 1.387 . S
C8 N11 1.341 . S
C9 C7 1.400 . S
C9 C8 1.387 . S
N10 Co1 2.022 . S
N10 C7 1.351 . S
N10 N11 1.365 . S
N11 C8 1.341 . S
N11 N10 1.365 . S
N11 H31 0.862 . S
C12 C7 1.501 . S
C12 H13 0.961 . S
C12 H14 0.961 . S
C12 H15 0.960 . S
H13 C12 0.961 . S
H14 C12 0.961 . S
H15 C12 0.960 . S
C16 N17 1.342 . S
C16 C20 1.401 . S
C16 C21 1.499 . S
N17 Co0 1.989 . S
N17 C16 1.342 . S
N17 N18 1.388 . S
N18 Co1 1.993 . S
N18 N17 1.388 . S
N18 C19 1.346 . S
C19 N18 1.346 . S
C19 C20 1.396 . S
C19 C29 1.510 . S
C20 C16 1.401 . S
C20 C19 1.396 . S
C21 C16 1.499 . S
C21 H22 0.959 . S
C21 H23 0.960 . S
C21 H24 0.961 . S
H22 C21 0.959 . S
H23 C21 0.960 . S
H24 C21 0.961 . S
O25 Co0 1.967 . S
O25 C33 1.258 . S
O26 Co1 1.941 . S
O26 C33 1.266 . S
H27 C29 0.959 . S
H28 C29 0.961 . S
C29 C19 1.510 . S
C29 H27 0.959 . S
C29 H28 0.961 . S
C29 H30 0.960 . S
H30 C29 0.960 . S
H31 N11 0.862 . S
O32 Co0 1.920 . S
O32 C5 1.289 . S
C33 O25 1.258 . S
C33 O26 1.266 . S
Co34 O37 1.970 . S
Co34 N51 1.989 . S
Co34 O59 1.967 . S
Co34 O66 1.920 . S
Co35 O38 1.966 . S
Co35 N44 2.022 1_556 S
Co35 N52 1.993 . S
Co35 O60 1.941 . S
C36 O37 1.258 . S
C36 O38 1.263 . S
O37 Co34 1.970 . S
O37 C36 1.258 . S
O38 Co35 1.966 . S
O38 C36 1.263 . S
C39 O40 1.235 . S
C39 O66 1.289 . S
O40 C39 1.235 . S
C41 C43 1.400 . S
C41 N44 1.351 . S
C41 C46 1.501 . S
C42 C43 1.387 . S
C42 N45 1.341 . S
C43 C41 1.400 . S
C43 C42 1.387 . S
N44 Co35 2.022 1_554 S
N44 C41 1.351 . S
N44 N45 1.365 . S
N45 C42 1.341 . S
N45 N44 1.365 . S
N45 H65 0.862 . S
C46 C41 1.501 . S
C46 H47 0.961 . S
C46 H48 0.961 . S
C46 H49 0.960 . S
H47 C46 0.961 . S
H48 C46 0.961 . S
H49 C46 0.960 . S
C50 N51 1.342 . S
C50 C54 1.401 . S
C50 C55 1.499 . S
N51 Co34 1.989 . S
N51 C50 1.342 . S
N51 N52 1.388 . S
N52 Co35 1.993 . S
N52 N51 1.388 . S
N52 C53 1.346 . S
C53 N52 1.346 . S
C53 C54 1.396 . S
C53 C63 1.510 . S
C54 C50 1.401 . S
C54 C53 1.396 . S
C55 C50 1.499 . S
C55 H56 0.959 . S
C55 H57 0.960 . S
C55 H58 0.961 . S
H56 C55 0.959 . S
H57 C55 0.960 . S
H58 C55 0.961 . S
O59 Co34 1.967 . S
O59 C67 1.258 . S
O60 Co35 1.941 . S
O60 C67 1.266 . S
H61 C63 0.959 . S
H62 C63 0.961 . S
C63 C53 1.510 . S
C63 H61 0.959 . S
C63 H62 0.961 . S
C63 H64 0.960 . S
H64 C63 0.960 . S
H65 N45 0.862 . S
O66 Co34 1.920 . S
O66 C39 1.289 . S
C67 O59 1.258 . S
C67 O60 1.266 . S
Co68 O71 1.970 . S
Co68 N85 1.989 . S
Co68 O93 1.967 . S
Co68 O100 1.920 . S
Co69 O72 1.966 . S
Co69 N78 2.022 . S
Co69 N86 1.993 . S
Co69 O94 1.941 . S
C70 O71 1.258 . S
C70 O72 1.263 . S
O71 Co68 1.970 . S
O71 C70 1.258 . S
O72 Co69 1.966 . S
O72 C70 1.263 . S
C73 O74 1.235 . S
C73 O100 1.289 . S
O74 C73 1.235 . S
C75 C77 1.400 . S
C75 N78 1.351 . S
C75 C80 1.501 . S
C76 C77 1.387 . S
C76 N79 1.341 . S
C77 C75 1.400 . S
C77 C76 1.387 . S
N78 Co69 2.022 . S
N78 C75 1.351 . S
N78 N79 1.365 . S
N79 C76 1.341 . S
N79 N78 1.365 . S
N79 H99 0.862 . S
C80 C75 1.501 . S
C80 H81 0.961 . S
C80 H82 0.961 . S
C80 H83 0.960 . S
H81 C80 0.961 . S
H82 C80 0.961 . S
H83 C80 0.960 . S
C84 N85 1.342 . S
C84 C88 1.401 . S
C84 C89 1.499 . S
N85 Co68 1.989 . S
N85 C84 1.342 . S
N85 N86 1.388 . S
N86 Co69 1.993 . S
N86 N85 1.388 . S
N86 C87 1.346 . S
C87 N86 1.346 . S
C87 C88 1.396 . S
C87 C97 1.510 . S
C88 C84 1.401 . S
C88 C87 1.396 . S
C89 C84 1.499 . S
C89 H90 0.959 . S
C89 H91 0.960 . S
C89 H92 0.961 . S
H90 C89 0.959 . S
H91 C89 0.960 . S
H92 C89 0.961 . S
O93 Co68 1.967 . S
O93 C101 1.258 . S
O94 Co69 1.941 . S
O94 C101 1.266 . S
H95 C97 0.959 . S
H96 C97 0.961 . S
C97 C87 1.510 . S
C97 H95 0.959 . S
C97 H96 0.961 . S
C97 H98 0.960 . S
H98 C97 0.960 . S
H99 N79 0.862 . S
O100 Co68 1.920 . S
O100 C73 1.289 . S
C101 O93 1.258 . S
C101 O94 1.266 . S
Co102 O105 1.970 . S
Co102 N119 1.989 . S
Co102 O127 1.967 . S
Co102 O134 1.920 . S
Co103 O106 1.966 . S
Co103 N112 2.022 1_556 S
Co103 N120 1.993 . S
Co103 O128 1.941 . S
C104 O105 1.258 . S
C104 O106 1.263 . S
O105 Co102 1.970 . S
O105 C104 1.258 . S
O106 Co103 1.966 . S
O106 C104 1.263 . S
C107 O108 1.235 . S
C107 O134 1.289 . S
O108 C107 1.235 . S
C109 C111 1.400 . S
C109 N112 1.351 . S
C109 C114 1.501 . S
C110 C111 1.387 . S
C110 N113 1.341 . S
C111 C109 1.400 . S
C111 C110 1.387 . S
N112 Co103 2.022 1_554 S
N112 C109 1.351 . S
N112 N113 1.365 . S
N113 C110 1.341 . S
N113 N112 1.365 . S
N113 H133 0.862 . S
C114 C109 1.501 . S
C114 H115 0.961 . S
C114 H116 0.961 . S
C114 H117 0.960 . S
H115 C114 0.961 . S
H116 C114 0.961 . S
H117 C114 0.960 . S
C118 N119 1.342 . S
C118 C122 1.401 . S
C118 C123 1.499 . S
N119 Co102 1.989 . S
N119 C118 1.342 . S
N119 N120 1.388 . S
N120 Co103 1.993 . S
N120 N119 1.388 . S
N120 C121 1.346 . S
C121 N120 1.346 . S
C121 C122 1.396 . S
C121 C131 1.510 . S
C122 C118 1.401 . S
C122 C121 1.396 . S
C123 C118 1.499 . S
C123 H124 0.959 . S
C123 H125 0.960 . S
C123 H126 0.961 . S
H124 C123 0.959 . S
H125 C123 0.960 . S
H126 C123 0.961 . S
O127 Co102 1.967 . S
O127 C135 1.258 . S
O128 Co103 1.941 . S
O128 C135 1.266 . S
H129 C131 0.959 . S
H130 C131 0.961 . S
C131 C121 1.510 . S
C131 H129 0.959 . S
C131 H130 0.961 . S
C131 H132 0.960 . S
H132 C131 0.960 . S
H133 N113 0.862 . S
O134 Co102 1.920 . S
O134 C107 1.289 . S
C135 O127 1.258 . S
C135 O128 1.266 . S
Co136 O139 1.970 . S
Co136 N153 1.989 . S
Co136 O161 1.967 . S
Co136 O168 1.920 . S
Co137 O140 1.966 . S
Co137 N146 2.022 . S
Co137 N154 1.993 . S
Co137 O162 1.941 . S
C138 O139 1.258 . S
C138 O140 1.263 . S
O139 Co136 1.970 . S
O139 C138 1.258 . S
O140 Co137 1.966 . S
O140 C138 1.263 . S
C141 O142 1.235 . S
C141 O168 1.289 . S
O142 C141 1.235 . S
C143 C145 1.400 . S
C143 N146 1.351 . S
C143 C148 1.501 . S
C144 C145 1.387 . S
C144 N147 1.341 . S
C145 C143 1.400 . S
C145 C144 1.387 . S
N146 Co137 2.022 . S
N146 C143 1.351 . S
N146 N147 1.365 . S
N147 C144 1.341 . S
N147 N146 1.365 . S
N147 H167 0.862 . S
C148 C143 1.501 . S
C148 H149 0.961 . S
C148 H150 0.961 . S
C148 H151 0.960 . S
H149 C148 0.961 . S
H150 C148 0.961 . S
H151 C148 0.960 . S
C152 N153 1.342 . S
C152 C156 1.401 . S
C152 C157 1.499 . S
N153 Co136 1.989 . S
N153 C152 1.342 . S
N153 N154 1.388 . S
N154 Co137 1.993 . S
N154 N153 1.388 . S
N154 C155 1.346 . S
C155 N154 1.346 . S
C155 C156 1.396 . S
C155 C165 1.510 . S
C156 C152 1.401 . S
C156 C155 1.396 . S
C157 C152 1.499 . S
C157 H158 0.959 . S
C157 H159 0.960 . S
C157 H160 0.961 . S
H158 C157 0.959 . S
H159 C157 0.960 . S
H160 C157 0.961 . S
O161 Co136 1.967 . S
O161 C169 1.258 . S
O162 Co137 1.941 . S
O162 C169 1.266 . S
H163 C165 0.959 . S
H164 C165 0.961 . S
C165 C155 1.510 . S
C165 H163 0.959 . S
C165 H164 0.961 . S
C165 H166 0.960 . S
H166 C165 0.960 . S
H167 N147 0.862 . S
O168 Co136 1.920 . S
O168 C141 1.289 . S
C169 O161 1.258 . S
C169 O162 1.266 . S
Co170 O173 1.970 . S
Co170 N187 1.989 . S
Co170 O195 1.967 . S
Co170 O202 1.920 . S
Co171 O174 1.966 . S
Co171 N180 2.022 1_556 S
Co171 N188 1.993 . S
Co171 O196 1.941 . S
C172 O173 1.258 . S
C172 O174 1.263 . S
O173 Co170 1.970 . S
O173 C172 1.258 . S
O174 Co171 1.966 . S
O174 C172 1.263 . S
C175 O176 1.235 . S
C175 O202 1.289 . S
O176 C175 1.235 . S
C177 C179 1.400 . S
C177 N180 1.351 . S
C177 C182 1.501 . S
C178 C179 1.387 . S
C178 N181 1.341 . S
C179 C177 1.400 . S
C179 C178 1.387 . S
N180 Co171 2.022 1_554 S
N180 C177 1.351 . S
N180 N181 1.365 . S
N181 C178 1.341 . S
N181 N180 1.365 . S
N181 H201 0.862 . S
C182 C177 1.501 . S
C182 H183 0.961 . S
C182 H184 0.961 . S
C182 H185 0.960 . S
H183 C182 0.961 . S
H184 C182 0.961 . S
H185 C182 0.960 . S
C186 N187 1.342 . S
C186 C190 1.401 . S
C186 C191 1.499 . S
N187 Co170 1.989 . S
N187 C186 1.342 . S
N187 N188 1.388 . S
N188 Co171 1.993 . S
N188 N187 1.388 . S
N188 C189 1.346 . S
C189 N188 1.346 . S
C189 C190 1.396 . S
C189 C199 1.510 . S
C190 C186 1.401 . S
C190 C189 1.396 . S
C191 C186 1.499 . S
C191 H192 0.959 . S
C191 H193 0.960 . S
C191 H194 0.961 . S
H192 C191 0.959 . S
H193 C191 0.960 . S
H194 C191 0.961 . S
O195 Co170 1.967 . S
O195 C203 1.258 . S
O196 Co171 1.941 . S
O196 C203 1.266 . S
H197 C199 0.959 . S
H198 C199 0.961 . S
C199 C189 1.510 . S
C199 H197 0.959 . S
C199 H198 0.961 . S
C199 H200 0.960 . S
H200 C199 0.960 . S
H201 N181 0.862 . S
O202 Co170 1.920 . S
O202 C175 1.289 . S
C203 O195 1.258 . S
C203 O196 1.266 . S
Co204 O207 1.970 . S
Co204 N221 1.989 . S
Co204 O229 1.967 . S
Co204 O236 1.920 . S
Co205 O208 1.966 . S
Co205 N214 2.022 1_554 S
Co205 N222 1.993 . S
Co205 O230 1.941 . S
C206 O207 1.258 . S
C206 O208 1.263 . S
O207 Co204 1.970 . S
O207 C206 1.258 . S
O208 Co205 1.966 . S
O208 C206 1.263 . S
C209 O210 1.235 . S
C209 O236 1.289 . S
O210 C209 1.235 . S
C211 C213 1.400 . S
C211 N214 1.351 . S
C211 C216 1.501 . S
C212 C213 1.387 . S
C212 N215 1.341 . S
C213 C211 1.400 . S
C213 C212 1.387 . S
N214 Co205 2.022 1_556 S
N214 C211 1.351 . S
N214 N215 1.365 . S
N215 C212 1.341 . S
N215 N214 1.365 . S
N215 H235 0.862 . S
C216 C211 1.501 . S
C216 H217 0.961 . S
C216 H218 0.961 . S
C216 H219 0.960 . S
H217 C216 0.961 . S
H218 C216 0.961 . S
H219 C216 0.960 . S
C220 N221 1.342 . S
C220 C224 1.401 . S
C220 C225 1.499 . S
N221 Co204 1.989 . S
N221 C220 1.342 . S
N221 N222 1.388 . S
N222 Co205 1.993 . S
N222 N221 1.388 . S
N222 C223 1.346 . S
C223 N222 1.346 . S
C223 C224 1.396 . S
C223 C233 1.510 . S
C224 C220 1.401 . S
C224 C223 1.396 . S
C225 C220 1.499 . S
C225 H226 0.959 . S
C225 H227 0.960 . S
C225 H228 0.961 . S
H226 C225 0.959 . S
H227 C225 0.960 . S
H228 C225 0.961 . S
O229 Co204 1.967 . S
O229 C237 1.258 . S
O230 Co205 1.941 . S
O230 C237 1.266 . S
H231 C233 0.959 . S
H232 C233 0.961 . S
C233 C223 1.510 . S
C233 H231 0.959 . S
C233 H232 0.961 . S
C233 H234 0.960 . S
H234 C233 0.960 . S
H235 N215 0.862 . S
O236 Co204 1.920 . S
O236 C209 1.289 . S
C237 O229 1.258 . S
C237 O230 1.266 . S
Co238 O241 1.970 . S
Co238 N255 1.989 . S
Co238 O263 1.967 . S
Co238 O270 1.920 . S
Co239 O242 1.966 . S
Co239 N248 2.022 . S
Co239 N256 1.993 . S
Co239 O264 1.941 . S
C240 O241 1.258 . S
C240 O242 1.263 . S
O241 Co238 1.970 . S
O241 C240 1.258 . S
O242 Co239 1.966 . S
O242 C240 1.263 . S
C243 O244 1.235 . S
C243 O270 1.289 . S
O244 C243 1.235 . S
C245 C247 1.400 . S
C245 N248 1.351 . S
C245 C250 1.501 . S
C246 C247 1.387 . S
C246 N249 1.341 . S
C247 C245 1.400 . S
C247 C246 1.387 . S
N248 Co239 2.022 . S
N248 C245 1.351 . S
N248 N249 1.365 . S
N249 C246 1.341 . S
N249 N248 1.365 . S
N249 H269 0.862 . S
C250 C245 1.501 . S
C250 H251 0.961 . S
C250 H252 0.961 . S
C250 H253 0.960 . S
H251 C250 0.961 . S
H252 C250 0.961 . S
H253 C250 0.960 . S
C254 N255 1.342 . S
C254 C258 1.401 . S
C254 C259 1.499 . S
N255 Co238 1.989 . S
N255 C254 1.342 . S
N255 N256 1.388 . S
N256 Co239 1.993 . S
N256 N255 1.388 . S
N256 C257 1.346 . S
C257 N256 1.346 . S
C257 C258 1.396 . S
C257 C267 1.510 . S
C258 C254 1.401 . S
C258 C257 1.396 . S
C259 C254 1.499 . S
C259 H260 0.959 . S
C259 H261 0.960 . S
C259 H262 0.961 . S
H260 C259 0.959 . S
H261 C259 0.960 . S
H262 C259 0.961 . S
O263 Co238 1.967 . S
O263 C271 1.258 . S
O264 Co239 1.941 . S
O264 C271 1.266 . S
H265 C267 0.959 . S
H266 C267 0.961 . S
C267 C257 1.510 . S
C267 H265 0.959 . S
C267 H266 0.961 . S
C267 H268 0.960 . S
H268 C267 0.960 . S
H269 N249 0.862 . S
O270 Co238 1.920 . S
O270 C243 1.289 . S
C271 O263 1.258 . S
C271 O264 1.266 . S
Co272 O275 1.970 . S
Co272 N289 1.989 . S
Co272 O297 1.967 . S
Co272 O304 1.920 . S
Co273 O276 1.966 . S
Co273 N282 2.022 1_554 S
Co273 N290 1.993 . S
Co273 O298 1.941 . S
C274 O275 1.258 . S
C274 O276 1.263 . S
O275 Co272 1.970 . S
O275 C274 1.258 . S
O276 Co273 1.966 . S
O276 C274 1.263 . S
C277 O278 1.235 . S
C277 O304 1.289 . S
O278 C277 1.235 . S
C279 C281 1.400 . S
C279 N282 1.351 . S
C279 C284 1.501 . S
C280 C281 1.387 . S
C280 N283 1.341 . S
C281 C279 1.400 . S
C281 C280 1.387 . S
N282 Co273 2.022 1_556 S
N282 C279 1.351 . S
N282 N283 1.365 . S
N283 C280 1.341 . S
N283 N282 1.365 . S
N283 H303 0.862 . S
C284 C279 1.501 . S
C284 H285 0.961 . S
C284 H286 0.961 . S
C284 H287 0.960 . S
H285 C284 0.961 . S
H286 C284 0.961 . S
H287 C284 0.960 . S
C288 N289 1.342 . S
C288 C292 1.401 . S
C288 C293 1.499 . S
N289 Co272 1.989 . S
N289 C288 1.342 . S
N289 N290 1.388 . S
N290 Co273 1.993 . S
N290 N289 1.388 . S
N290 C291 1.346 . S
C291 N290 1.346 . S
C291 C292 1.396 . S
C291 C301 1.510 . S
C292 C288 1.401 . S
C292 C291 1.396 . S
C293 C288 1.499 . S
C293 H294 0.959 . S
C293 H295 0.960 . S
C293 H296 0.961 . S
H294 C293 0.959 . S
H295 C293 0.960 . S
H296 C293 0.961 . S
O297 Co272 1.967 . S
O297 C305 1.258 . S
O298 Co273 1.941 . S
O298 C305 1.266 . S
H299 C301 0.959 . S
H300 C301 0.961 . S
C301 C291 1.510 . S
C301 H299 0.959 . S
C301 H300 0.961 . S
C301 H302 0.960 . S
H302 C301 0.960 . S
H303 N283 0.862 . S
O304 Co272 1.920 . S
O304 C277 1.289 . S
C305 O297 1.258 . S
C305 O298 1.266 . S
Co306 O309 1.970 . S
Co306 N323 1.989 . S
Co306 O331 1.967 . S
Co306 O338 1.920 . S
Co307 O310 1.966 . S
Co307 N316 2.022 . S
Co307 N324 1.993 . S
Co307 O332 1.941 . S
C308 O309 1.258 . S
C308 O310 1.263 . S
O309 Co306 1.970 . S
O309 C308 1.258 . S
O310 Co307 1.966 . S
O310 C308 1.263 . S
C311 O312 1.235 . S
C311 O338 1.289 . S
O312 C311 1.235 . S
C313 C315 1.400 . S
C313 N316 1.351 . S
C313 C318 1.501 . S
C314 C315 1.387 . S
C314 N317 1.341 . S
C315 C313 1.400 . S
C315 C314 1.387 . S
N316 Co307 2.022 . S
N316 C313 1.351 . S
N316 N317 1.365 . S
N317 C314 1.341 . S
N317 N316 1.365 . S
N317 H337 0.862 . S
C318 C313 1.501 . S
C318 H319 0.961 . S
C318 H320 0.961 . S
C318 H321 0.960 . S
H319 C318 0.961 . S
H320 C318 0.961 . S
H321 C318 0.960 . S
C322 N323 1.342 . S
C322 C326 1.401 . S
C322 C327 1.499 . S
N323 Co306 1.989 . S
N323 C322 1.342 . S
N323 N324 1.388 . S
N324 Co307 1.993 . S
N324 N323 1.388 . S
N324 C325 1.346 . S
C325 N324 1.346 . S
C325 C326 1.396 . S
C325 C335 1.510 . S
C326 C322 1.401 . S
C326 C325 1.396 . S
C327 C322 1.499 . S
C327 H328 0.959 . S
C327 H329 0.960 . S
C327 H330 0.961 . S
H328 C327 0.959 . S
H329 C327 0.960 . S
H330 C327 0.961 . S
O331 Co306 1.967 . S
O331 C339 1.258 . S
O332 Co307 1.941 . S
O332 C339 1.266 . S
H333 C335 0.959 . S
H334 C335 0.961 . S
C335 C325 1.510 . S
C335 H333 0.959 . S
C335 H334 0.961 . S
C335 H336 0.960 . S
H336 C335 0.960 . S
H337 N317 0.862 . S
O338 Co306 1.920 . S
O338 C311 1.289 . S
C339 O331 1.258 . S
C339 O332 1.266 . S
Co340 O343 1.970 . S
Co340 N357 1.989 . S
Co340 O365 1.967 . S
Co340 O372 1.920 . S
Co341 O344 1.966 . S
Co341 N350 2.022 1_554 S
Co341 N358 1.993 . S
Co341 O366 1.941 . S
C342 O343 1.258 . S
C342 O344 1.263 . S
O343 Co340 1.970 . S
O343 C342 1.258 . S
O344 Co341 1.966 . S
O344 C342 1.263 . S
C345 O346 1.235 . S
C345 O372 1.289 . S
O346 C345 1.235 . S
C347 C349 1.400 . S
C347 N350 1.351 . S
C347 C352 1.501 . S
C348 C349 1.387 . S
C348 N351 1.341 . S
C349 C347 1.400 . S
C349 C348 1.387 . S
N350 Co341 2.022 1_556 S
N350 C347 1.351 . S
N350 N351 1.365 . S
N351 C348 1.341 . S
N351 N350 1.365 . S
N351 H371 0.862 . S
C352 C347 1.501 . S
C352 H353 0.961 . S
C352 H354 0.961 . S
C352 H355 0.960 . S
H353 C352 0.961 . S
H354 C352 0.961 . S
H355 C352 0.960 . S
C356 N357 1.342 . S
C356 C360 1.401 . S
C356 C361 1.499 . S
N357 Co340 1.989 . S
N357 C356 1.342 . S
N357 N358 1.388 . S
N358 Co341 1.993 . S
N358 N357 1.388 . S
N358 C359 1.346 . S
C359 N358 1.346 . S
C359 C360 1.396 . S
C359 C369 1.510 . S
C360 C356 1.401 . S
C360 C359 1.396 . S
C361 C356 1.499 . S
C361 H362 0.959 . S
C361 H363 0.960 . S
C361 H364 0.961 . S
H362 C361 0.959 . S
H363 C361 0.960 . S
H364 C361 0.961 . S
O365 Co340 1.967 . S
O365 C373 1.258 . S
O366 Co341 1.941 . S
O366 C373 1.266 . S
H367 C369 0.959 . S
H368 C369 0.961 . S
C369 C359 1.510 . S
C369 H367 0.959 . S
C369 H368 0.961 . S
C369 H370 0.960 . S
H370 C369 0.960 . S
H371 N351 0.862 . S
O372 Co340 1.920 . S
O372 C345 1.289 . S
C373 O365 1.258 . S
C373 O366 1.266 . S
Co374 O377 1.970 . S
Co374 N391 1.989 . S
Co374 O399 1.967 . S
Co374 O406 1.920 . S
Co375 O378 1.966 . S
Co375 N384 2.022 . S
Co375 N392 1.993 . S
Co375 O400 1.941 . S
C376 O377 1.258 . S
C376 O378 1.263 . S
O377 Co374 1.970 . S
O377 C376 1.258 . S
O378 Co375 1.966 . S
O378 C376 1.263 . S
C379 O380 1.235 . S
C379 O406 1.289 . S
O380 C379 1.235 . S
C381 C383 1.400 . S
C381 N384 1.351 . S
C381 C386 1.501 . S
C382 C383 1.387 . S
C382 N385 1.341 . S
C383 C381 1.400 . S
C383 C382 1.387 . S
N384 Co375 2.022 . S
N384 C381 1.351 . S
N384 N385 1.365 . S
N385 C382 1.341 . S
N385 N384 1.365 . S
N385 H405 0.862 . S
C386 C381 1.501 . S
C386 H387 0.961 . S
C386 H388 0.961 . S
C386 H389 0.960 . S
H387 C386 0.961 . S
H388 C386 0.961 . S
H389 C386 0.960 . S
C390 N391 1.342 . S
C390 C394 1.401 . S
C390 C395 1.499 . S
N391 Co374 1.989 . S
N391 C390 1.342 . S
N391 N392 1.388 . S
N392 Co375 1.993 . S
N392 N391 1.388 . S
N392 C393 1.346 . S
C393 N392 1.346 . S
C393 C394 1.396 . S
C393 C403 1.510 . S
C394 C390 1.401 . S
C394 C393 1.396 . S
C395 C390 1.499 . S
C395 H396 0.959 . S
C395 H397 0.960 . S
C395 H398 0.961 . S
H396 C395 0.959 . S
H397 C395 0.960 . S
H398 C395 0.961 . S
O399 Co374 1.967 . S
O399 C407 1.258 . S
O400 Co375 1.941 . S
O400 C407 1.266 . S
H401 C403 0.959 . S
H402 C403 0.961 . S
C403 C393 1.510 . S
C403 H401 0.959 . S
C403 H402 0.961 . S
C403 H404 0.960 . S
H404 C403 0.960 . S
H405 N385 0.862 . S
O406 Co374 1.920 . S
O406 C379 1.289 . S
C407 O399 1.258 . S
C407 O400 1.266 . S
H408 C426 0.951 . S
H409 C428 0.951 . S
H410 C430 0.950 . S
H411 C431 0.950 . S
H412 C433 0.950 . S
H413 C436 0.950 . S
H414 C437 0.950 . S
H415 C439 0.950 . S
H416 C440 0.950 . S
H417 C441 0.951 . S
H418 C443 0.951 . S
H419 C445 0.950 . S
H420 C446 0.950 . S
H421 C448 0.950 . S
H422 C451 0.950 . S
H423 C452 0.950 . S
H424 C454 0.950 . S
H425 C455 0.950 . S
C426 H408 0.951 . S
C426 C427 1.366 . S
C426 C428 1.388 . S
C427 C426 1.366 . S
C427 C431 1.385 . S
C428 H409 0.951 . S
C428 C426 1.388 . S
C428 C429 1.366 . S
C429 C428 1.366 . S
C429 C430 1.414 . S
C429 C432 1.499 . S
C430 H410 0.950 . S
C430 C429 1.414 . S
C430 C431 1.374 . S
C431 H411 0.950 . S
C431 C427 1.385 . S
C431 C430 1.374 . S
C432 C429 1.499 . S
C432 C433 1.373 . S
C432 C434 1.389 . S
C433 H412 0.950 . S
C433 C432 1.373 . S
C433 C449 1.377 1_455 S
C434 C432 1.389 . S
C434 C435 1.524 . S
C434 C448 1.377 1_455 S
C435 C434 1.524 . S
C435 C436 1.397 . S
C435 C440 1.363 1_455 S
C436 H413 0.950 . S
C436 C435 1.397 . S
C436 C437 1.334 . S
C437 H414 0.950 . S
C437 C436 1.334 . S
C437 C438 1.287 . S
C438 C437 1.287 . S
C438 C439 1.524 1_455 S
C438 H457 0.913 . S
C439 H415 0.950 . S
C439 C438 1.524 1_655 S
C439 C440 1.415 . S
C440 H416 0.950 . S
C440 C435 1.363 1_655 S
C440 C439 1.415 . S
C441 H417 0.951 . S
C441 C442 1.366 . S
C441 C443 1.388 . S
C442 C441 1.366 . S
C442 C446 1.385 . S
C443 H418 0.951 . S
C443 C441 1.388 . S
C443 C444 1.366 . S
C444 C443 1.366 . S
C444 C445 1.414 . S
C444 C447 1.499 . S
C445 H419 0.950 . S
C445 C444 1.414 . S
C445 C446 1.374 . S
C446 H420 0.950 . S
C446 C442 1.385 . S
C446 C445 1.374 . S
C447 C444 1.499 . S
C447 C448 1.373 . S
C447 C449 1.389 . S
C448 H421 0.950 . S
C448 C434 1.377 1_655 S
C448 C447 1.373 . S
C449 C433 1.377 1_655 S
C449 C447 1.389 . S
C449 C450 1.524 . S
C450 C449 1.524 . S
C450 C451 1.397 . S
C450 C455 1.363 1_655 S
C451 H422 0.950 . S
C451 C450 1.397 . S
C451 C452 1.334 . S
C452 H423 0.950 . S
C452 C451 1.334 . S
C452 C453 1.287 . S
C453 C452 1.287 . S
C453 C454 1.524 1_655 S
C453 H456 0.999 . S
C454 H424 0.950 . S
C454 C453 1.524 1_455 S
C454 C455 1.415 . S
C455 H425 0.950 . S
C455 C450 1.363 1_455 S
C455 C454 1.415 . S
H456 C453 0.999 . S
H457 C438 0.913 . S
H458 C476 0.951 . S
H459 C478 0.951 . S
H460 C480 0.950 . S
H461 C481 0.950 . S
H462 C483 0.950 . S
H463 C486 0.950 . S
H464 C487 0.950 . S
H465 C489 0.950 . S
H466 C490 0.950 1_565 S
H467 C491 0.951 . S
H468 C493 0.951 . S
H469 C495 0.950 . S
H470 C496 0.950 . S
H471 C498 0.950 . S
H472 C501 0.950 . S
H473 C502 0.950 . S
H474 C504 0.950 . S
H475 C505 0.950 1_545 S
C476 H458 0.951 . S
C476 C477 1.366 . S
C476 C478 1.388 . S
C477 C476 1.366 . S
C477 C481 1.385 . S
C478 H459 0.951 . S
C478 C476 1.388 . S
C478 C479 1.366 . S
C479 C478 1.366 . S
C479 C480 1.414 . S
C479 C482 1.499 . S
C480 H460 0.950 . S
C480 C479 1.414 . S
C480 C481 1.374 . S
C481 H461 0.950 . S
C481 C477 1.385 . S
C481 C480 1.374 . S
C482 C479 1.499 . S
C482 C483 1.373 . S
C482 C484 1.389 . S
C483 H462 0.950 . S
C483 C482 1.373 . S
C483 C499 1.377 1_546 S
C484 C482 1.389 . S
C484 C485 1.524 . S
C484 C498 1.377 1_546 S
C485 C484 1.524 . S
C485 C486 1.397 1_556 S
C485 C490 1.363 . S
C486 H463 0.950 . S
C486 C485 1.397 1_554 S
C486 C487 1.334 . S
C487 H464 0.950 . S
C487 C486 1.334 . S
C487 C488 1.287 . S
C488 C487 1.287 . S
C488 C489 1.524 1_554 S
C488 H507 0.913 . S
C489 H465 0.950 . S
C489 C488 1.524 1_556 S
C489 C490 1.415 . S
C490 H466 0.950 1_545 S
C490 C485 1.363 . S
C490 C489 1.415 . S
C491 H467 0.951 . S
C491 C492 1.366 . S
C491 C493 1.388 . S
C492 C491 1.366 . S
C492 C496 1.385 . S
C493 H468 0.951 . S
C493 C491 1.388 . S
C493 C494 1.366 . S
C494 C493 1.366 . S
C494 C495 1.414 . S
C494 C497 1.499 . S
C495 H469 0.950 . S
C495 C494 1.414 . S
C495 C496 1.374 . S
C496 H470 0.950 . S
C496 C492 1.385 . S
C496 C495 1.374 . S
C497 C494 1.499 . S
C497 C498 1.373 . S
C497 C499 1.389 . S
C498 H471 0.950 . S
C498 C484 1.377 1_564 S
C498 C497 1.373 . S
C499 C483 1.377 1_564 S
C499 C497 1.389 . S
C499 C500 1.524 . S
C500 C499 1.524 . S
C500 C501 1.397 1_554 S
C500 C505 1.363 . S
C501 H472 0.950 . S
C501 C500 1.397 1_556 S
C501 C502 1.334 . S
C502 H473 0.950 . S
C502 C501 1.334 . S
C502 C503 1.287 . S
C503 C502 1.287 . S
C503 C504 1.524 1_556 S
C503 H506 0.999 . S
C504 H474 0.950 . S
C504 C503 1.524 1_554 S
C504 C505 1.415 . S
C505 H475 0.950 1_565 S
C505 C500 1.363 . S
C505 C504 1.415 . S
H506 C503 0.999 . S
H507 C488 0.913 . S
H508 C526 0.951 . S
H509 C528 0.951 . S
H510 C530 0.950 . S
H511 C531 0.950 . S
H512 C533 0.950 . S
H513 C536 0.950 . S
H514 C537 0.950 . S
H515 C539 0.950 . S
H516 C540 0.950 . S
H517 C541 0.951 . S
H518 C543 0.951 . S
H519 C545 0.950 . S
H520 C546 0.950 . S
H521 C548 0.950 . S
H522 C551 0.950 . S
H523 C552 0.950 . S
H524 C554 0.950 . S
H525 C555 0.950 . S
C526 H508 0.951 . S
C526 C527 1.366 . S
C526 C528 1.388 . S
C527 C526 1.366 . S
C527 C531 1.385 . S
C528 H509 0.951 . S
C528 C526 1.388 . S
C528 C529 1.366 . S
C529 C528 1.366 . S
C529 C530 1.414 . S
C529 C532 1.499 . S
C530 H510 0.950 . S
C530 C529 1.414 . S
C530 C531 1.374 . S
C531 H511 0.950 . S
C531 C527 1.385 . S
C531 C530 1.374 . S
C532 C529 1.499 . S
C532 C533 1.373 . S
C532 C534 1.389 . S
C533 H512 0.950 . S
C533 C532 1.373 . S
C533 C549 1.377 . S
C534 C532 1.389 . S
C534 C535 1.524 . S
C534 C548 1.377 . S
C535 C534 1.524 . S
C535 C536 1.397 . S
C535 C540 1.363 . S
C536 H513 0.950 . S
C536 C535 1.397 . S
C536 C537 1.334 . S
C537 H514 0.950 . S
C537 C536 1.334 . S
C537 C538 1.287 . S
C538 C537 1.287 . S
C538 C539 1.524 . S
C538 H557 0.913 . S
C539 H515 0.950 . S
C539 C538 1.524 . S
C539 C540 1.415 . S
C540 H516 0.950 . S
C540 C535 1.363 . S
C540 C539 1.415 . S
C541 H517 0.951 . S
C541 C542 1.366 . S
C541 C543 1.388 . S
C542 C541 1.366 . S
C542 C546 1.385 . S
C543 H518 0.951 . S
C543 C541 1.388 . S
C543 C544 1.366 . S
C544 C543 1.366 . S
C544 C545 1.414 . S
C544 C547 1.499 . S
C545 H519 0.950 . S
C545 C544 1.414 . S
C545 C546 1.374 . S
C546 H520 0.950 . S
C546 C542 1.385 . S
C546 C545 1.374 . S
C547 C544 1.499 . S
C547 C548 1.373 . S
C547 C549 1.389 . S
C548 H521 0.950 . S
C548 C534 1.377 . S
C548 C547 1.373 . S
C549 C533 1.377 . S
C549 C547 1.389 . S
C549 C550 1.524 . S
C550 C549 1.524 . S
C550 C551 1.397 . S
C550 C555 1.363 . S
C551 H522 0.950 . S
C551 C550 1.397 . S
C551 C552 1.334 . S
C552 H523 0.950 . S
C552 C551 1.334 . S
C552 C553 1.287 . S
C553 C552 1.287 . S
C553 C554 1.524 . S
C553 H556 0.999 . S
C554 H524 0.950 . S
C554 C553 1.524 . S
C554 C555 1.415 . S
C555 H525 0.950 . S
C555 C550 1.363 . S
C555 C554 1.415 . S
H556 C553 0.999 . S
H557 C538 0.913 . S
H558 C576 0.951 . S
H559 C578 0.951 . S
H560 C580 0.950 . S
H561 C581 0.950 . S
H562 C583 0.950 . S
H563 C586 0.950 . S
H564 C587 0.950 . S
H565 C589 0.950 . S
H566 C590 0.950 1_556 S
H567 C591 0.951 . S
H568 C593 0.951 . S
H569 C595 0.950 . S
H570 C596 0.950 . S
H571 C598 0.950 . S
H572 C601 0.950 . S
H573 C602 0.950 . S
H574 C604 0.950 . S
H575 C605 0.950 1_554 S
C576 H558 0.951 . S
C576 C577 1.366 . S
C576 C578 1.388 . S
C577 C576 1.366 . S
C577 C581 1.385 . S
C578 H559 0.951 . S
C578 C576 1.388 . S
C578 C579 1.366 . S
C579 C578 1.366 . S
C579 C580 1.414 . S
C579 C582 1.499 . S
C580 H560 0.950 . S
C580 C579 1.414 . S
C580 C581 1.374 . S
C581 H561 0.950 . S
C581 C577 1.385 . S
C581 C580 1.374 . S
C582 C579 1.499 . S
C582 C583 1.373 . S
C582 C584 1.389 . S
C583 H562 0.950 . S
C583 C582 1.373 . S
C583 C599 1.377 1_454 S
C584 C582 1.389 . S
C584 C585 1.524 . S
C584 C598 1.377 1_454 S
C585 C584 1.524 . S
C585 C586 1.397 . S
C585 C590 1.363 . S
C586 H563 0.950 . S
C586 C585 1.397 . S
C586 C587 1.334 . S
C587 H564 0.950 . S
C587 C586 1.334 . S
C587 C588 1.287 . S
C588 C587 1.287 . S
C588 C589 1.524 . S
C588 H607 0.913 . S
C589 H565 0.950 . S
C589 C588 1.524 . S
C589 C590 1.415 . S
C590 H566 0.950 1_554 S
C590 C585 1.363 . S
C590 C589 1.415 . S
C591 H567 0.951 . S
C591 C592 1.366 . S
C591 C593 1.388 . S
C592 C591 1.366 . S
C592 C596 1.385 . S
C593 H568 0.951 . S
C593 C591 1.388 . S
C593 C594 1.366 . S
C594 C593 1.366 . S
C594 C595 1.414 . S
C594 C597 1.499 . S
C595 H569 0.950 . S
C595 C594 1.414 . S
C595 C596 1.374 . S
C596 H570 0.950 . S
C596 C592 1.385 . S
C596 C595 1.374 . S
C597 C594 1.499 . S
C597 C598 1.373 . S
C597 C599 1.389 . S
C598 H571 0.950 . S
C598 C584 1.377 1_656 S
C598 C597 1.373 . S
C599 C583 1.377 1_656 S
C599 C597 1.389 . S
C599 C600 1.524 . S
C600 C599 1.524 . S
C600 C601 1.397 . S
C600 C605 1.363 . S
C601 H572 0.950 . S
C601 C600 1.397 . S
C601 C602 1.334 . S
C602 H573 0.950 . S
C602 C601 1.334 . S
C602 C603 1.287 . S
C603 C602 1.287 . S
C603 C604 1.524 . S
C603 H606 0.999 . S
C604 H574 0.950 . S
C604 C603 1.524 . S
C604 C605 1.415 . S
C605 H575 0.950 1_556 S
C605 C600 1.363 . S
C605 C604 1.415 . S
H606 C603 0.999 . S
H607 C588 0.913 . S
H608 C626 0.951 . S
H609 C628 0.951 . S
H610 C630 0.950 . S
H611 C631 0.950 . S
H612 C633 0.950 . S
H613 C636 0.950 . S
H614 C637 0.950 . S
H615 C639 0.950 . S
H616 C640 0.950 . S
H617 C641 0.951 . S
H618 C643 0.951 . S
H619 C645 0.950 . S
H620 C646 0.950 . S
H621 C648 0.950 . S
H622 C651 0.950 . S
H623 C652 0.950 . S
H624 C654 0.950 . S
H625 C655 0.950 . S
C626 H608 0.951 . S
C626 C627 1.366 . S
C626 C628 1.388 . S
C627 C626 1.366 . S
C627 C631 1.385 . S
C628 H609 0.951 . S
C628 C626 1.388 . S
C628 C629 1.366 . S
C629 C628 1.366 . S
C629 C630 1.414 . S
C629 C632 1.499 . S
C630 H610 0.950 . S
C630 C629 1.414 . S
C630 C631 1.374 . S
C631 H611 0.950 . S
C631 C627 1.385 . S
C631 C630 1.374 . S
C632 C629 1.499 . S
C632 C633 1.373 . S
C632 C634 1.389 . S
C633 H612 0.950 . S
C633 C632 1.373 . S
C633 C649 1.377 1_545 S
C634 C632 1.389 . S
C634 C635 1.524 . S
C634 C648 1.377 1_545 S
C635 C634 1.524 . S
C635 C636 1.397 . S
C635 C640 1.363 . S
C636 H613 0.950 . S
C636 C635 1.397 . S
C636 C637 1.334 . S
C637 H614 0.950 . S
C637 C636 1.334 . S
C637 C638 1.287 . S
C638 C637 1.287 . S
C638 C639 1.524 . S
C638 H657 0.913 . S
C639 H615 0.950 . S
C639 C638 1.524 . S
C639 C640 1.415 . S
C640 H616 0.950 . S
C640 C635 1.363 . S
C640 C639 1.415 . S
C641 H617 0.951 . S
C641 C642 1.366 . S
C641 C643 1.388 . S
C642 C641 1.366 . S
C642 C646 1.385 . S
C643 H618 0.951 . S
C643 C641 1.388 . S
C643 C644 1.366 . S
C644 C643 1.366 . S
C644 C645 1.414 . S
C644 C647 1.499 . S
C645 H619 0.950 . S
C645 C644 1.414 . S
C645 C646 1.374 . S
C646 H620 0.950 . S
C646 C642 1.385 . S
C646 C645 1.374 . S
C647 C644 1.499 . S
C647 C648 1.373 . S
C647 C649 1.389 . S
C648 H621 0.950 . S
C648 C634 1.377 1_565 S
C648 C647 1.373 . S
C649 C633 1.377 1_565 S
C649 C647 1.389 . S
C649 C650 1.524 . S
C650 C649 1.524 . S
C650 C651 1.397 . S
C650 C655 1.363 . S
C651 H622 0.950 . S
C651 C650 1.397 . S
C651 C652 1.334 . S
C652 H623 0.950 . S
C652 C651 1.334 . S
C652 C653 1.287 . S
C653 C652 1.287 . S
C653 C654 1.524 . S
C653 H656 0.999 . S
C654 H624 0.950 . S
C654 C653 1.524 . S
C654 C655 1.415 . S
C655 H625 0.950 . S
C655 C650 1.363 . S
C655 C654 1.415 . S
H656 C653 0.999 . S
H657 C638 0.913 . S
H658 C676 0.951 . S
H659 C678 0.951 . S
H660 C680 0.950 . S
H661 C681 0.950 . S
H662 C683 0.950 . S
H663 C686 0.950 . S
H664 C687 0.950 . S
H665 C689 0.950 . S
H666 C690 0.950 1_556 S
H667 C691 0.951 . S
H668 C693 0.951 . S
H669 C695 0.950 . S
H670 C696 0.950 . S
H671 C698 0.950 . S
H672 C701 0.950 . S
H673 C702 0.950 . S
H674 C704 0.950 . S
H675 C705 0.950 1_554 S
C676 H658 0.951 . S
C676 C677 1.366 . S
C676 C678 1.388 . S
C677 C676 1.366 . S
C677 C681 1.385 . S
C678 H659 0.951 . S
C678 C676 1.388 . S
C678 C679 1.366 . S
C679 C678 1.366 . S
C679 C680 1.414 . S
C679 C682 1.499 . S
C680 H660 0.950 . S
C680 C679 1.414 . S
C680 C681 1.374 . S
C681 H661 0.950 . S
C681 C677 1.385 . S
C681 C680 1.374 . S
C682 C679 1.499 . S
C682 C683 1.373 . S
C682 C684 1.389 1_556 S
C683 H662 0.950 . S
C683 C682 1.373 . S
C683 C699 1.377 . S
C684 C682 1.389 1_554 S
C684 C685 1.524 . S
C684 C698 1.377 . S
C685 C684 1.524 . S
C685 C686 1.397 . S
C685 C690 1.363 . S
C686 H663 0.950 . S
C686 C685 1.397 . S
C686 C687 1.334 . S
C687 H664 0.950 . S
C687 C686 1.334 . S
C687 C688 1.287 . S
C688 C687 1.287 . S
C688 C689 1.524 . S
C688 H707 0.913 . S
C689 H665 0.950 . S
C689 C688 1.524 . S
C689 C690 1.415 . S
C690 H666 0.950 1_554 S
C690 C685 1.363 . S
C690 C689 1.415 . S
C691 H667 0.951 . S
C691 C692 1.366 . S
C691 C693 1.388 . S
C692 C691 1.366 . S
C692 C696 1.385 . S
C693 H668 0.951 . S
C693 C691 1.388 . S
C693 C694 1.366 . S
C694 C693 1.366 . S
C694 C695 1.414 . S
C694 C697 1.499 . S
C695 H669 0.950 . S
C695 C694 1.414 . S
C695 C696 1.374 . S
C696 H670 0.950 . S
C696 C692 1.385 . S
C696 C695 1.374 . S
C697 C694 1.499 . S
C697 C698 1.373 . S
C697 C699 1.389 1_554 S
C698 H671 0.950 . S
C698 C684 1.377 . S
C698 C697 1.373 . S
C699 C683 1.377 . S
C699 C697 1.389 1_556 S
C699 C700 1.524 . S
C700 C699 1.524 . S
C700 C701 1.397 . S
C700 C705 1.363 . S
C701 H672 0.950 . S
C701 C700 1.397 . S
C701 C702 1.334 . S
C702 H673 0.950 . S
C702 C701 1.334 . S
C702 C703 1.287 . S
C703 C702 1.287 . S
C703 C704 1.524 . S
C703 H706 0.999 . S
C704 H674 0.950 . S
C704 C703 1.524 . S
C704 C705 1.415 . S
C705 H675 0.950 1_556 S
C705 C700 1.363 . S
C705 C704 1.415 . S
H706 C703 0.999 . S
H707 C688 0.913 . S
H708 C726 0.951 . S
H709 C728 0.951 . S
H710 C730 0.950 . S
H711 C731 0.950 . S
H712 C733 0.950 . S
H713 C736 0.950 . S
H714 C737 0.950 . S
H715 C739 0.950 . S
H716 C740 0.950 . S
H717 C741 0.951 . S
H718 C743 0.951 . S
H719 C745 0.950 . S
H720 C746 0.950 . S
H721 C748 0.950 . S
H722 C751 0.950 . S
H723 C752 0.950 . S
H724 C754 0.950 . S
H725 C755 0.950 . S
C726 H708 0.951 . S
C726 C727 1.366 . S
C726 C728 1.388 . S
C727 C726 1.366 . S
C727 C731 1.385 . S
C728 H709 0.951 . S
C728 C726 1.388 . S
C728 C729 1.366 . S
C729 C728 1.366 . S
C729 C730 1.414 . S
C729 C732 1.499 . S
C730 H710 0.950 . S
C730 C729 1.414 . S
C730 C731 1.374 . S
C731 H711 0.950 . S
C731 C727 1.385 . S
C731 C730 1.374 . S
C732 C729 1.499 . S
C732 C733 1.373 . S
C732 C734 1.389 . S
C733 H712 0.950 . S
C733 C732 1.373 . S
C733 C749 1.377 . S
C734 C732 1.389 . S
C734 C735 1.524 . S
C734 C748 1.377 . S
C735 C734 1.524 . S
C735 C736 1.397 . S
C735 C740 1.363 . S
C736 H713 0.950 . S
C736 C735 1.397 . S
C736 C737 1.334 . S
C737 H714 0.950 . S
C737 C736 1.334 . S
C737 C738 1.287 . S
C738 C737 1.287 . S
C738 C739 1.524 . S
C738 H757 0.913 . S
C739 H715 0.950 . S
C739 C738 1.524 . S
C739 C740 1.415 . S
C740 H716 0.950 . S
C740 C735 1.363 . S
C740 C739 1.415 . S
C741 H717 0.951 . S
C741 C742 1.366 . S
C741 C743 1.388 . S
C742 C741 1.366 . S
C742 C746 1.385 . S
C743 H718 0.951 . S
C743 C741 1.388 . S
C743 C744 1.366 . S
C744 C743 1.366 . S
C744 C745 1.414 . S
C744 C747 1.499 . S
C745 H719 0.950 . S
C745 C744 1.414 . S
C745 C746 1.374 . S
C746 H720 0.950 . S
C746 C742 1.385 . S
C746 C745 1.374 . S
C747 C744 1.499 . S
C747 C748 1.373 . S
C747 C749 1.389 . S
C748 H721 0.950 . S
C748 C734 1.377 . S
C748 C747 1.373 . S
C749 C733 1.377 . S
C749 C747 1.389 . S
C749 C750 1.524 . S
C750 C749 1.524 . S
C750 C751 1.397 . S
C750 C755 1.363 . S
C751 H722 0.950 . S
C751 C750 1.397 . S
C751 C752 1.334 . S
C752 H723 0.950 . S
C752 C751 1.334 . S
C752 C753 1.287 . S
C753 C752 1.287 . S
C753 C754 1.524 . S
C753 H756 0.999 . S
C754 H724 0.950 . S
C754 C753 1.524 . S
C754 C755 1.415 . S
C755 H725 0.950 . S
C755 C750 1.363 . S
C755 C754 1.415 . S
H756 C753 0.999 . S
H757 C738 0.913 . S
H758 C776 0.951 . S
H759 C778 0.951 . S
H760 C780 0.950 . S
H761 C781 0.950 . S
H762 C783 0.950 . S
H763 C786 0.950 . S
H764 C787 0.950 . S
H765 C789 0.950 . S
H766 C790 0.950 . S
H767 C791 0.951 . S
H768 C793 0.951 . S
H769 C795 0.950 . S
H770 C796 0.950 . S
H771 C798 0.950 . S
H772 C801 0.950 . S
H773 C802 0.950 . S
H774 C804 0.950 1_554 S
H775 C805 0.950 . S
C776 H758 0.951 . S
C776 C777 1.366 . S
C776 C778 1.388 . S
C777 C776 1.366 . S
C777 C781 1.385 . S
C778 H759 0.951 . S
C778 C776 1.388 . S
C778 C779 1.366 . S
C779 C778 1.366 . S
C779 C780 1.414 . S
C779 C782 1.499 . S
C780 H760 0.950 . S
C780 C779 1.414 . S
C780 C781 1.374 . S
C781 H761 0.950 . S
C781 C777 1.385 . S
C781 C780 1.374 . S
C782 C779 1.499 . S
C782 C783 1.373 . S
C782 C784 1.389 . S
C783 H762 0.950 . S
C783 C782 1.373 . S
C783 C799 1.377 . S
C784 C782 1.389 . S
C784 C785 1.524 . S
C784 C798 1.377 . S
C785 C784 1.524 . S
C785 C786 1.397 . S
C785 C790 1.363 . S
C786 H763 0.950 . S
C786 C785 1.397 . S
C786 C787 1.334 . S
C787 H764 0.950 . S
C787 C786 1.334 . S
C787 C788 1.287 . S
C788 C787 1.287 . S
C788 C789 1.524 . S
C788 H807 0.913 . S
C789 H765 0.950 . S
C789 C788 1.524 . S
C789 C790 1.415 . S
C790 H766 0.950 . S
C790 C785 1.363 . S
C790 C789 1.415 . S
C791 H767 0.951 . S
C791 C792 1.366 . S
C791 C793 1.388 . S
C792 C791 1.366 . S
C792 C796 1.385 . S
C793 H768 0.951 . S
C793 C791 1.388 . S
C793 C794 1.366 . S
C794 C793 1.366 . S
C794 C795 1.414 . S
C794 C797 1.499 . S
C795 H769 0.950 . S
C795 C794 1.414 . S
C795 C796 1.374 . S
C796 H770 0.950 . S
C796 C792 1.385 . S
C796 C795 1.374 . S
C797 C794 1.499 . S
C797 C798 1.373 . S
C797 C799 1.389 . S
C798 H771 0.950 . S
C798 C784 1.377 . S
C798 C797 1.373 . S
C799 C783 1.377 . S
C799 C797 1.389 . S
C799 C800 1.524 . S
C800 C799 1.524 . S
C800 C801 1.397 . S
C800 C805 1.363 . S
C801 H772 0.950 . S
C801 C800 1.397 . S
C801 C802 1.334 . S
C802 H773 0.950 . S
C802 C801 1.334 . S
C802 C803 1.287 . S
C803 C802 1.287 . S
C803 C804 1.524 . S
C803 H806 0.999 1_556 S
C804 H774 0.950 1_556 S
C804 C803 1.524 . S
C804 C805 1.415 . S
C805 H775 0.950 . S
C805 C800 1.363 . S
C805 C804 1.415 . S
H806 C803 0.999 1_554 S
H807 C788 0.913 . S
H808 C826 0.951 . S
H809 C828 0.951 . S
H810 C830 0.950 . S
H811 C831 0.950 . S
H812 C833 0.950 . S
H813 C836 0.950 . S
H814 C837 0.950 . S
H815 C839 0.950 . S
H816 C840 0.950 . S
H817 C841 0.951 . S
H818 C843 0.951 . S
H819 C845 0.950 . S
H820 C846 0.950 . S
H821 C848 0.950 . S
H822 C851 0.950 . S
H823 C852 0.950 . S
H824 C854 0.950 . S
H825 C855 0.950 . S
C826 H808 0.951 . S
C826 C827 1.366 . S
C826 C828 1.388 . S
C827 C826 1.366 . S
C827 C831 1.385 . S
C828 H809 0.951 . S
C828 C826 1.388 . S
C828 C829 1.366 . S
C829 C828 1.366 . S
C829 C830 1.414 . S
C829 C832 1.499 . S
C830 H810 0.950 . S
C830 C829 1.414 . S
C830 C831 1.374 . S
C831 H811 0.950 . S
C831 C827 1.385 . S
C831 C830 1.374 . S
C832 C829 1.499 . S
C832 C833 1.373 . S
C832 C834 1.389 . S
C833 H812 0.950 . S
C833 C832 1.373 . S
C833 C849 1.377 . S
C834 C832 1.389 . S
C834 C835 1.524 . S
C834 C848 1.377 . S
C835 C834 1.524 . S
C835 C836 1.397 . S
C835 C840 1.363 . S
C836 H813 0.950 . S
C836 C835 1.397 . S
C836 C837 1.334 . S
C837 H814 0.950 . S
C837 C836 1.334 . S
C837 C838 1.287 . S
C838 C837 1.287 . S
C838 C839 1.524 . S
C838 H857 0.913 . S
C839 H815 0.950 . S
C839 C838 1.524 . S
C839 C840 1.415 . S
C840 H816 0.950 . S
C840 C835 1.363 . S
C840 C839 1.415 . S
C841 H817 0.951 . S
C841 C842 1.366 . S
C841 C843 1.388 . S
C842 C841 1.366 . S
C842 C846 1.385 . S
C843 H818 0.951 . S
C843 C841 1.388 . S
C843 C844 1.366 . S
C844 C843 1.366 . S
C844 C845 1.414 . S
C844 C847 1.499 . S
C845 H819 0.950 . S
C845 C844 1.414 . S
C845 C846 1.374 . S
C846 H820 0.950 . S
C846 C842 1.385 . S
C846 C845 1.374 . S
C847 C844 1.499 . S
C847 C848 1.373 . S
C847 C849 1.389 . S
C848 H821 0.950 . S
C848 C834 1.377 . S
C848 C847 1.373 . S
C849 C833 1.377 . S
C849 C847 1.389 . S
C849 C850 1.524 . S
C850 C849 1.524 . S
C850 C851 1.397 . S
C850 C855 1.363 . S
C851 H822 0.950 . S
C851 C850 1.397 . S
C851 C852 1.334 . S
C852 H823 0.950 . S
C852 C851 1.334 . S
C852 C853 1.287 . S
C853 C852 1.287 . S
C853 C854 1.524 . S
C853 H856 0.999 . S
C854 H824 0.950 . S
C854 C853 1.524 . S
C854 C855 1.415 . S
C855 H825 0.950 . S
C855 C850 1.363 . S
C855 C854 1.415 . S
H856 C853 0.999 . S
H857 C838 0.913 . S
H858 C876 0.951 . S
H859 C878 0.951 . S
H860 C880 0.950 . S
H861 C881 0.950 . S
H862 C883 0.950 . S
H863 C886 0.950 . S
H864 C887 0.950 . S
H865 C889 0.950 . S
H866 C890 0.950 . S
H867 C891 0.951 . S
H868 C893 0.951 . S
H869 C895 0.950 . S
H870 C896 0.950 . S
H871 C898 0.950 . S
H872 C901 0.950 . S
H873 C902 0.950 . S
H874 C904 0.950 . S
H875 C905 0.950 . S
C876 H858 0.951 . S
C876 C877 1.366 . S
C876 C878 1.388 . S
C877 C876 1.366 . S
C877 C881 1.385 . S
C878 H859 0.951 . S
C878 C876 1.388 . S
C878 C879 1.366 . S
C879 C878 1.366 . S
C879 C880 1.414 . S
C879 C882 1.499 . S
C880 H860 0.950 . S
C880 C879 1.414 . S
C880 C881 1.374 . S
C881 H861 0.950 . S
C881 C877 1.385 . S
C881 C880 1.374 . S
C882 C879 1.499 . S
C882 C883 1.373 . S
C882 C884 1.389 . S
C883 H862 0.950 . S
C883 C882 1.373 . S
C883 C899 1.377 . S
C884 C882 1.389 . S
C884 C885 1.524 . S
C884 C898 1.377 . S
C885 C884 1.524 . S
C885 C886 1.397 . S
C885 C890 1.363 . S
C886 H863 0.950 . S
C886 C885 1.397 . S
C886 C887 1.334 . S
C887 H864 0.950 . S
C887 C886 1.334 . S
C887 C888 1.287 . S
C888 C887 1.287 . S
C888 C889 1.524 . S
C888 H907 0.913 . S
C889 H865 0.950 . S
C889 C888 1.524 . S
C889 C890 1.415 . S
C890 H866 0.950 . S
C890 C885 1.363 . S
C890 C889 1.415 . S
C891 H867 0.951 . S
C891 C892 1.366 . S
C891 C893 1.388 . S
C892 C891 1.366 . S
C892 C896 1.385 . S
C893 H868 0.951 . S
C893 C891 1.388 . S
C893 C894 1.366 . S
C894 C893 1.366 . S
C894 C895 1.414 . S
C894 C897 1.499 . S
C895 H869 0.950 . S
C895 C894 1.414 . S
C895 C896 1.374 . S
C896 H870 0.950 . S
C896 C892 1.385 . S
C896 C895 1.374 . S
C897 C894 1.499 . S
C897 C898 1.373 . S
C897 C899 1.389 . S
C898 H871 0.950 . S
C898 C884 1.377 . S
C898 C897 1.373 . S
C899 C883 1.377 . S
C899 C897 1.389 . S
C899 C900 1.524 . S
C900 C899 1.524 . S
C900 C901 1.397 . S
C900 C905 1.363 . S
C901 H872 0.950 . S
C901 C900 1.397 . S
C901 C902 1.334 . S
C902 H873 0.950 . S
C902 C901 1.334 . S
C902 C903 1.287 . S
C903 C902 1.287 . S
C903 C904 1.524 . S
C903 H906 0.999 . S
C904 H874 0.950 . S
C904 C903 1.524 . S
C904 C905 1.415 . S
C905 H875 0.950 . S
C905 C900 1.363 . S
C905 C904 1.415 . S
H906 C903 0.999 . S
H907 C888 0.913 . S
H908 C926 0.951 . S
H909 C928 0.951 . S
H910 C930 0.950 . S
H911 C931 0.950 . S
H912 C933 0.950 . S
H913 C936 0.950 . S
H914 C937 0.950 . S
H915 C939 0.950 . S
H916 C940 0.950 . S
H917 C941 0.951 . S
H918 C943 0.951 . S
H919 C945 0.950 . S
H920 C946 0.950 . S
H921 C948 0.950 . S
H922 C951 0.950 . S
H923 C952 0.950 . S
H924 C954 0.950 . S
H925 C955 0.950 . S
C926 H908 0.951 . S
C926 C927 1.366 . S
C926 C928 1.388 . S
C927 C926 1.366 . S
C927 C931 1.385 . S
C928 H909 0.951 . S
C928 C926 1.388 . S
C928 C929 1.366 . S
C929 C928 1.366 . S
C929 C930 1.414 . S
C929 C932 1.499 . S
C930 H910 0.950 . S
C930 C929 1.414 . S
C930 C931 1.374 . S
C931 H911 0.950 . S
C931 C927 1.385 . S
C931 C930 1.374 . S
C932 C929 1.499 . S
C932 C933 1.373 . S
C932 C934 1.389 . S
C933 H912 0.950 . S
C933 C932 1.373 . S
C933 C949 1.377 . S
C934 C932 1.389 . S
C934 C935 1.524 . S
C934 C948 1.377 . S
C935 C934 1.524 . S
C935 C936 1.397 . S
C935 C940 1.363 . S
C936 H913 0.950 . S
C936 C935 1.397 . S
C936 C937 1.334 . S
C937 H914 0.950 . S
C937 C936 1.334 . S
C937 C938 1.287 . S
C938 C937 1.287 . S
C938 C939 1.524 . S
C938 H957 0.913 . S
C939 H915 0.950 . S
C939 C938 1.524 . S
C939 C940 1.415 . S
C940 H916 0.950 . S
C940 C935 1.363 . S
C940 C939 1.415 . S
C941 H917 0.951 . S
C941 C942 1.366 . S
C941 C943 1.388 . S
C942 C941 1.366 . S
C942 C946 1.385 . S
C943 H918 0.951 . S
C943 C941 1.388 . S
C943 C944 1.366 . S
C944 C943 1.366 . S
C944 C945 1.414 . S
C944 C947 1.499 . S
C945 H919 0.950 . S
C945 C944 1.414 . S
C945 C946 1.374 . S
C946 H920 0.950 . S
C946 C942 1.385 . S
C946 C945 1.374 . S
C947 C944 1.499 . S
C947 C948 1.373 . S
C947 C949 1.389 . S
C948 H921 0.950 . S
C948 C934 1.377 . S
C948 C947 1.373 . S
C949 C933 1.377 . S
C949 C947 1.389 . S
C949 C950 1.524 . S
C950 C949 1.524 . S
C950 C951 1.397 . S
C950 C955 1.363 . S
C951 H922 0.950 . S
C951 C950 1.397 . S
C951 C952 1.334 . S
C952 H923 0.950 . S
C952 C951 1.334 . S
C952 C953 1.287 . S
C953 C952 1.287 . S
C953 C954 1.524 . S
C953 H956 0.999 . S
C954 H924 0.950 . S
C954 C953 1.524 . S
C954 C955 1.415 . S
C955 H925 0.950 . S
C955 C950 1.363 . S
C955 C954 1.415 . S
H956 C953 0.999 . S
H957 C938 0.913 . S
H958 C976 0.951 . S
H959 C978 0.951 . S
H960 C980 0.950 . S
H961 C981 0.950 . S
H962 C983 0.950 . S
H963 C986 0.950 . S
H964 C987 0.950 . S
H965 C989 0.950 . S
H966 C990 0.950 . S
H967 C991 0.951 . S
H968 C993 0.951 . S
H969 C995 0.950 . S
H970 C996 0.950 . S
H971 C998 0.950 . S
H972 C1001 0.950 . S
H973 C1002 0.950 . S
H974 C1004 0.950 . S
H975 C1005 0.950 . S
C976 H958 0.951 . S
C976 C977 1.366 . S
C976 C978 1.388 . S
C977 C976 1.366 . S
C977 C981 1.385 . S
C978 H959 0.951 . S
C978 C976 1.388 . S
C978 C979 1.366 . S
C979 C978 1.366 . S
C979 C980 1.414 . S
C979 C982 1.499 . S
C980 H960 0.950 . S
C980 C979 1.414 . S
C980 C981 1.374 . S
C981 H961 0.950 . S
C981 C977 1.385 . S
C981 C980 1.374 . S
C982 C979 1.499 . S
C982 C983 1.373 . S
C982 C984 1.389 . S
C983 H962 0.950 . S
C983 C982 1.373 . S
C983 C999 1.377 . S
C984 C982 1.389 . S
C984 C985 1.524 . S
C984 C998 1.377 . S
C985 C984 1.524 . S
C985 C986 1.397 . S
C985 C990 1.363 . S
C986 H963 0.950 . S
C986 C985 1.397 . S
C986 C987 1.334 . S
C987 H964 0.950 . S
C987 C986 1.334 . S
C987 C988 1.287 . S
C988 C987 1.287 . S
C988 C989 1.524 . S
C988 H1007 0.913 . S
C989 H965 0.950 . S
C989 C988 1.524 . S
C989 C990 1.415 . S
C990 H966 0.950 . S
C990 C985 1.363 . S
C990 C989 1.415 . S
C991 H967 0.951 . S
C991 C992 1.366 . S
C991 C993 1.388 . S
C992 C991 1.366 . S
C992 C996 1.385 . S
C993 H968 0.951 . S
C993 C991 1.388 . S
C993 C994 1.366 . S
C994 C993 1.366 . S
C994 C995 1.414 . S
C994 C997 1.499 . S
C995 H969 0.950 . S
C995 C994 1.414 . S
C995 C996 1.374 . S
C996 H970 0.950 . S
C996 C992 1.385 . S
C996 C995 1.374 . S
C997 C994 1.499 . S
C997 C998 1.373 . S
C997 C999 1.389 . S
C998 H971 0.950 . S
C998 C984 1.377 . S
C998 C997 1.373 . S
C999 C983 1.377 . S
C999 C997 1.389 . S
C999 C1000 1.524 . S
C1000 C999 1.524 . S
C1000 C1001 1.397 . S
C1000 C1005 1.363 . S
C1001 H972 0.950 . S
C1001 C1000 1.397 . S
C1001 C1002 1.334 . S
C1002 H973 0.950 . S
C1002 C1001 1.334 . S
C1002 C1003 1.287 . S
C1003 C1002 1.287 . S
C1003 C1004 1.524 . S
C1003 H1006 0.999 . S
C1004 H974 0.950 . S
C1004 C1003 1.524 . S
C1004 C1005 1.415 . S
C1005 H975 0.950 . S
C1005 C1000 1.363 . S
C1005 C1004 1.415 . S
H1006 C1003 0.999 . S
H1007 C988 0.913 . S
H1008 C1026 0.951 . S
H1009 C1028 0.951 . S
H1010 C1030 0.950 . S
H1011 C1031 0.950 . S
H1012 C1033 0.950 . S
H1013 C1036 0.950 . S
H1014 C1037 0.950 . S
H1015 C1039 0.950 . S
H1016 C1040 0.950 . S
H1017 C1041 0.951 . S
H1018 C1043 0.951 . S
H1019 C1045 0.950 . S
H1020 C1046 0.950 . S
H1021 C1048 0.950 . S
H1022 C1051 0.950 . S
H1023 C1052 0.950 . S
H1024 C1054 0.950 . S
H1025 C1055 0.950 . S
C1026 H1008 0.951 . S
C1026 C1027 1.366 . S
C1026 C1028 1.388 . S
C1027 C1026 1.366 . S
C1027 C1031 1.385 . S
C1028 H1009 0.951 . S
C1028 C1026 1.388 . S
C1028 C1029 1.366 . S
C1029 C1028 1.366 . S
C1029 C1030 1.414 . S
C1029 C1032 1.499 . S
C1030 H1010 0.950 . S
C1030 C1029 1.414 . S
C1030 C1031 1.374 . S
C1031 H1011 0.950 . S
C1031 C1027 1.385 . S
C1031 C1030 1.374 . S
C1032 C1029 1.499 . S
C1032 C1033 1.373 . S
C1032 C1034 1.389 . S
C1033 H1012 0.950 . S
C1033 C1032 1.373 . S
C1033 C1049 1.377 . S
C1034 C1032 1.389 . S
C1034 C1035 1.524 . S
C1034 C1048 1.377 . S
C1035 C1034 1.524 . S
C1035 C1036 1.397 . S
C1035 C1040 1.363 . S
C1036 H1013 0.950 . S
C1036 C1035 1.397 . S
C1036 C1037 1.334 . S
C1037 H1014 0.950 . S
C1037 C1036 1.334 . S
C1037 C1038 1.287 . S
C1038 C1037 1.287 . S
C1038 C1039 1.524 . S
C1038 H1057 0.913 . S
C1039 H1015 0.950 . S
C1039 C1038 1.524 . S
C1039 C1040 1.415 . S
C1040 H1016 0.950 . S
C1040 C1035 1.363 . S
C1040 C1039 1.415 . S
C1041 H1017 0.951 . S
C1041 C1042 1.366 . S
C1041 C1043 1.388 . S
C1042 C1041 1.366 . S
C1042 C1046 1.385 . S
C1043 H1018 0.951 . S
C1043 C1041 1.388 . S
C1043 C1044 1.366 . S
C1044 C1043 1.366 . S
C1044 C1045 1.414 . S
C1044 C1047 1.499 1_554 S
C1045 H1019 0.950 . S
C1045 C1044 1.414 . S
C1045 C1046 1.374 . S
C1046 H1020 0.950 . S
C1046 C1042 1.385 . S
C1046 C1045 1.374 . S
C1047 C1044 1.499 1_556 S
C1047 C1048 1.373 . S
C1047 C1049 1.389 . S
C1048 H1021 0.950 . S
C1048 C1034 1.377 . S
C1048 C1047 1.373 . S
C1049 C1033 1.377 . S
C1049 C1047 1.389 . S
C1049 C1050 1.524 . S
C1050 C1049 1.524 . S
C1050 C1051 1.397 . S
C1050 C1055 1.363 . S
C1051 H1022 0.950 . S
C1051 C1050 1.397 . S
C1051 C1052 1.334 1_556 S
C1052 H1023 0.950 . S
C1052 C1051 1.334 1_554 S
C1052 C1053 1.287 . S
C1053 C1052 1.287 . S
C1053 C1054 1.524 1_554 S
C1053 H1056 0.999 . S
C1054 H1024 0.950 . S
C1054 C1053 1.524 1_556 S
C1054 C1055 1.415 . S
C1055 H1025 0.950 . S
C1055 C1050 1.363 . S
C1055 C1054 1.415 . S
H1056 C1053 0.999 . S
H1057 C1038 0.913 . S
H1058 C1076 0.951 . S
H1059 C1078 0.951 . S
H1060 C1080 0.950 . S
H1061 C1081 0.950 . S
H1062 C1083 0.950 . S
H1063 C1086 0.950 . S
H1064 C1087 0.950 . S
H1065 C1089 0.950 . S
H1066 C1090 0.950 . S
H1067 C1091 0.951 . S
H1068 C1093 0.951 . S
H1069 C1095 0.950 . S
H1070 C1096 0.950 . S
H1071 C1098 0.950 . S
H1072 C1101 0.950 . S
H1073 C1102 0.950 . S
H1074 C1104 0.950 . S
H1075 C1105 0.950 . S
C1076 H1058 0.951 . S
C1076 C1077 1.366 . S
C1076 C1078 1.388 . S
C1077 C1076 1.366 . S
C1077 C1081 1.385 . S
C1078 H1059 0.951 . S
C1078 C1076 1.388 . S
C1078 C1079 1.366 . S
C1079 C1078 1.366 . S
C1079 C1080 1.414 . S
C1079 C1082 1.499 . S
C1080 H1060 0.950 . S
C1080 C1079 1.414 . S
C1080 C1081 1.374 . S
C1081 H1061 0.950 . S
C1081 C1077 1.385 . S
C1081 C1080 1.374 . S
C1082 C1079 1.499 . S
C1082 C1083 1.373 . S
C1082 C1084 1.389 . S
C1083 H1062 0.950 . S
C1083 C1082 1.373 . S
C1083 C1099 1.377 . S
C1084 C1082 1.389 . S
C1084 C1085 1.524 . S
C1084 C1098 1.377 . S
C1085 C1084 1.524 . S
C1085 C1086 1.397 . S
C1085 C1090 1.363 . S
C1086 H1063 0.950 . S
C1086 C1085 1.397 . S
C1086 C1087 1.334 . S
C1087 H1064 0.950 . S
C1087 C1086 1.334 . S
C1087 C1088 1.287 . S
C1088 C1087 1.287 . S
C1088 C1089 1.524 . S
C1088 H1107 0.913 . S
C1089 H1065 0.950 . S
C1089 C1088 1.524 . S
C1089 C1090 1.415 . S
C1090 H1066 0.950 . S
C1090 C1085 1.363 . S
C1090 C1089 1.415 . S
C1091 H1067 0.951 . S
C1091 C1092 1.366 . S
C1091 C1093 1.388 . S
C1092 C1091 1.366 . S
C1092 C1096 1.385 . S
C1093 H1068 0.951 . S
C1093 C1091 1.388 . S
C1093 C1094 1.366 . S
C1094 C1093 1.366 . S
C1094 C1095 1.414 . S
C1094 C1097 1.499 . S
C1095 H1069 0.950 . S
C1095 C1094 1.414 . S
C1095 C1096 1.374 . S
C1096 H1070 0.950 . S
C1096 C1092 1.385 . S
C1096 C1095 1.374 . S
C1097 C1094 1.499 . S
C1097 C1098 1.373 . S
C1097 C1099 1.389 . S
C1098 H1071 0.950 . S
C1098 C1084 1.377 . S
C1098 C1097 1.373 . S
C1099 C1083 1.377 . S
C1099 C1097 1.389 . S
C1099 C1100 1.524 . S
C1100 C1099 1.524 . S
C1100 C1101 1.397 . S
C1100 C1105 1.363 . S
C1101 H1072 0.950 . S
C1101 C1100 1.397 . S
C1101 C1102 1.334 . S
C1102 H1073 0.950 . S
C1102 C1101 1.334 . S
C1102 C1103 1.287 . S
C1103 C1102 1.287 . S
C1103 C1104 1.524 . S
C1103 H1106 0.999 . S
C1104 H1074 0.950 . S
C1104 C1103 1.524 . S
C1104 C1105 1.415 . S
C1105 H1075 0.950 . S
C1105 C1100 1.363 . S
C1105 C1104 1.415 . S
H1106 C1103 0.999 . S
H1107 C1088 0.913 . S
H1108 C1126 0.951 . S
H1109 C1128 0.951 . S
H1110 C1130 0.950 . S
H1111 C1131 0.950 . S
H1112 C1133 0.950 . S
H1113 C1136 0.950 . S
H1114 C1137 0.950 . S
H1115 C1139 0.950 . S
H1116 C1140 0.950 . S
H1117 C1141 0.951 . S
H1118 C1143 0.951 . S
H1119 C1145 0.950 . S
H1120 C1146 0.950 . S
H1121 C1148 0.950 . S
H1122 C1151 0.950 . S
H1123 C1152 0.950 . S
H1124 C1154 0.950 . S
H1125 C1155 0.950 . S
C1126 H1108 0.951 . S
C1126 C1127 1.366 . S
C1126 C1128 1.388 . S
C1127 C1126 1.366 . S
C1127 C1131 1.385 . S
C1128 H1109 0.951 . S
C1128 C1126 1.388 . S
C1128 C1129 1.366 . S
C1129 C1128 1.366 . S
C1129 C1130 1.414 . S
C1129 C1132 1.499 . S
C1130 H1110 0.950 . S
C1130 C1129 1.414 . S
C1130 C1131 1.374 . S
C1131 H1111 0.950 . S
C1131 C1127 1.385 . S
C1131 C1130 1.374 . S
C1132 C1129 1.499 . S
C1132 C1133 1.373 . S
C1132 C1134 1.389 . S
C1133 H1112 0.950 . S
C1133 C1132 1.373 . S
C1133 C1149 1.377 . S
C1134 C1132 1.389 . S
C1134 C1135 1.524 . S
C1134 C1148 1.377 . S
C1135 C1134 1.524 . S
C1135 C1136 1.397 . S
C1135 C1140 1.363 . S
C1136 H1113 0.950 . S
C1136 C1135 1.397 . S
C1136 C1137 1.334 . S
C1137 H1114 0.950 . S
C1137 C1136 1.334 . S
C1137 C1138 1.287 . S
C1138 C1137 1.287 . S
C1138 C1139 1.524 . S
C1138 H1157 0.913 . S
C1139 H1115 0.950 . S
C1139 C1138 1.524 . S
C1139 C1140 1.415 . S
C1140 H1116 0.950 . S
C1140 C1135 1.363 . S
C1140 C1139 1.415 . S
C1141 H1117 0.951 . S
C1141 C1142 1.366 . S
C1141 C1143 1.388 . S
C1142 C1141 1.366 . S
C1142 C1146 1.385 . S
C1143 H1118 0.951 . S
C1143 C1141 1.388 . S
C1143 C1144 1.366 . S
C1144 C1143 1.366 . S
C1144 C1145 1.414 . S
C1144 C1147 1.499 1_554 S
C1145 H1119 0.950 . S
C1145 C1144 1.414 . S
C1145 C1146 1.374 . S
C1146 H1120 0.950 . S
C1146 C1142 1.385 . S
C1146 C1145 1.374 . S
C1147 C1144 1.499 1_556 S
C1147 C1148 1.373 . S
C1147 C1149 1.389 . S
C1148 H1121 0.950 . S
C1148 C1134 1.377 . S
C1148 C1147 1.373 . S
C1149 C1133 1.377 . S
C1149 C1147 1.389 . S
C1149 C1150 1.524 . S
C1150 C1149 1.524 . S
C1150 C1151 1.397 . S
C1150 C1155 1.363 . S
C1151 H1122 0.950 . S
C1151 C1150 1.397 . S
C1151 C1152 1.334 . S
C1152 H1123 0.950 . S
C1152 C1151 1.334 . S
C1152 C1153 1.287 . S
C1153 C1152 1.287 . S
C1153 C1154 1.524 . S
C1153 H1156 0.999 . S
C1154 H1124 0.950 . S
C1154 C1153 1.524 . S
C1154 C1155 1.415 . S
C1155 H1125 0.950 . S
C1155 C1150 1.363 . S
C1155 C1154 1.415 . S
H1156 C1153 0.999 . S
H1157 C1138 0.913 . S
H1158 C1176 0.951 . S
H1159 C1178 0.951 . S
H1160 C1180 0.950 . S
H1161 C1181 0.950 . S
H1162 C1183 0.950 . S
H1163 C1186 0.950 . S
H1164 C1187 0.950 . S
H1165 C1189 0.950 . S
H1166 C1190 0.950 . S
H1167 C1191 0.951 . S
H1168 C1193 0.951 . S
H1169 C1195 0.950 . S
H1170 C1196 0.950 . S
H1171 C1198 0.950 . S
H1172 C1201 0.950 . S
H1173 C1202 0.950 . S
H1174 C1204 0.950 . S
H1175 C1205 0.950 . S
C1176 H1158 0.951 . S
C1176 C1177 1.366 . S
C1176 C1178 1.388 . S
C1177 C1176 1.366 . S
C1177 C1181 1.385 . S
C1178 H1159 0.951 . S
C1178 C1176 1.388 . S
C1178 C1179 1.366 . S
C1179 C1178 1.366 . S
C1179 C1180 1.414 . S
C1179 C1182 1.499 . S
C1180 H1160 0.950 . S
C1180 C1179 1.414 . S
C1180 C1181 1.374 . S
C1181 H1161 0.950 . S
C1181 C1177 1.385 . S
C1181 C1180 1.374 . S
C1182 C1179 1.499 . S
C1182 C1183 1.373 . S
C1182 C1184 1.389 . S
C1183 H1162 0.950 . S
C1183 C1182 1.373 . S
C1183 C1199 1.377 . S
C1184 C1182 1.389 . S
C1184 C1185 1.524 . S
C1184 C1198 1.377 . S
C1185 C1184 1.524 . S
C1185 C1186 1.397 . S
C1185 C1190 1.363 . S
C1186 H1163 0.950 . S
C1186 C1185 1.397 . S
C1186 C1187 1.334 . S
C1187 H1164 0.950 . S
C1187 C1186 1.334 . S
C1187 C1188 1.287 . S
C1188 C1187 1.287 . S
C1188 C1189 1.524 . S
C1188 H1207 0.913 . S
C1189 H1165 0.950 . S
C1189 C1188 1.524 . S
C1189 C1190 1.415 . S
C1190 H1166 0.950 . S
C1190 C1185 1.363 . S
C1190 C1189 1.415 . S
C1191 H1167 0.951 . S
C1191 C1192 1.366 . S
C1191 C1193 1.388 . S
C1192 C1191 1.366 . S
C1192 C1196 1.385 . S
C1193 H1168 0.951 . S
C1193 C1191 1.388 . S
C1193 C1194 1.366 . S
C1194 C1193 1.366 . S
C1194 C1195 1.414 . S
C1194 C1197 1.499 . S
C1195 H1169 0.950 . S
C1195 C1194 1.414 . S
C1195 C1196 1.374 . S
C1196 H1170 0.950 . S
C1196 C1192 1.385 . S
C1196 C1195 1.374 . S
C1197 C1194 1.499 . S
C1197 C1198 1.373 . S
C1197 C1199 1.389 . S
C1198 H1171 0.950 . S
C1198 C1184 1.377 . S
C1198 C1197 1.373 . S
C1199 C1183 1.377 . S
C1199 C1197 1.389 . S
C1199 C1200 1.524 . S
C1200 C1199 1.524 . S
C1200 C1201 1.397 . S
C1200 C1205 1.363 . S
C1201 H1172 0.950 . S
C1201 C1200 1.397 . S
C1201 C1202 1.334 . S
C1202 H1173 0.950 . S
C1202 C1201 1.334 . S
C1202 C1203 1.287 . S
C1203 C1202 1.287 . S
C1203 C1204 1.524 . S
C1203 H1206 0.999 . S
C1204 H1174 0.950 . S
C1204 C1203 1.524 . S
C1204 C1205 1.415 . S
C1205 H1175 0.950 . S
C1205 C1200 1.363 . S
C1205 C1204 1.415 . S
H1206 C1203 0.999 . S
H1207 C1188 0.913 . S
H1208 C1226 0.951 . S
H1209 C1228 0.951 . S
H1210 C1230 0.950 . S
H1211 C1231 0.950 . S
H1212 C1233 0.950 . S
H1213 C1236 0.950 . S
H1214 C1237 0.950 . S
H1215 C1239 0.950 . S
H1216 C1240 0.950 . S
H1217 C1241 0.951 . S
H1218 C1243 0.951 . S
H1219 C1245 0.950 . S
H1220 C1246 0.950 . S
H1221 C1248 0.950 . S
H1222 C1251 0.950 . S
H1223 C1252 0.950 . S
H1224 C1254 0.950 . S
H1225 C1255 0.950 . S
C1226 H1208 0.951 . S
C1226 C1227 1.366 . S
C1226 C1228 1.388 . S
C1227 C1226 1.366 . S
C1227 C1231 1.385 . S
C1228 H1209 0.951 . S
C1228 C1226 1.388 . S
C1228 C1229 1.366 . S
C1229 C1228 1.366 . S
C1229 C1230 1.414 . S
C1229 C1232 1.499 . S
C1230 H1210 0.950 . S
C1230 C1229 1.414 . S
C1230 C1231 1.374 . S
C1231 H1211 0.950 . S
C1231 C1227 1.385 . S
C1231 C1230 1.374 . S
C1232 C1229 1.499 . S
C1232 C1233 1.373 . S
C1232 C1234 1.389 . S
C1233 H1212 0.950 . S
C1233 C1232 1.373 . S
C1233 C1249 1.377 . S
C1234 C1232 1.389 . S
C1234 C1235 1.524 . S
C1234 C1248 1.377 . S
C1235 C1234 1.524 . S
C1235 C1236 1.397 . S
C1235 C1240 1.363 . S
C1236 H1213 0.950 . S
C1236 C1235 1.397 . S
C1236 C1237 1.334 . S
C1237 H1214 0.950 . S
C1237 C1236 1.334 . S
C1237 C1238 1.287 . S
C1238 C1237 1.287 . S
C1238 C1239 1.524 . S
C1238 H1257 0.913 . S
C1239 H1215 0.950 . S
C1239 C1238 1.524 . S
C1239 C1240 1.415 . S
C1240 H1216 0.950 . S
C1240 C1235 1.363 . S
C1240 C1239 1.415 . S
C1241 H1217 0.951 . S
C1241 C1242 1.366 . S
C1241 C1243 1.388 . S
C1242 C1241 1.366 . S
C1242 C1246 1.385 . S
C1243 H1218 0.951 . S
C1243 C1241 1.388 . S
C1243 C1244 1.366 . S
C1244 C1243 1.366 . S
C1244 C1245 1.414 . S
C1244 C1247 1.499 1_554 S
C1245 H1219 0.950 . S
C1245 C1244 1.414 . S
C1245 C1246 1.374 . S
C1246 H1220 0.950 . S
C1246 C1242 1.385 . S
C1246 C1245 1.374 . S
C1247 C1244 1.499 1_556 S
C1247 C1248 1.373 . S
C1247 C1249 1.389 . S
C1248 H1221 0.950 . S
C1248 C1234 1.377 . S
C1248 C1247 1.373 . S
C1249 C1233 1.377 . S
C1249 C1247 1.389 . S
C1249 C1250 1.524 . S
C1250 C1249 1.524 . S
C1250 C1251 1.397 . S
C1250 C1255 1.363 . S
C1251 H1222 0.950 . S
C1251 C1250 1.397 . S
C1251 C1252 1.334 1_556 S
C1252 H1223 0.950 . S
C1252 C1251 1.334 1_554 S
C1252 C1253 1.287 . S
C1253 C1252 1.287 . S
C1253 C1254 1.524 1_554 S
C1253 H1256 0.999 . S
C1254 H1224 0.950 . S
C1254 C1253 1.524 1_556 S
C1254 C1255 1.415 . S
C1255 H1225 0.950 . S
C1255 C1250 1.363 . S
C1255 C1254 1.415 . S
H1256 C1253 0.999 . S
H1257 C1238 0.913 . S
H1258 C1276 0.951 . S
H1259 C1278 0.951 . S
H1260 C1280 0.950 . S
H1261 C1281 0.950 . S
H1262 C1283 0.950 . S
H1263 C1286 0.950 . S
H1264 C1287 0.950 . S
H1265 C1289 0.950 . S
H1266 C1290 0.950 . S
H1267 C1291 0.951 . S
H1268 C1293 0.951 . S
H1269 C1295 0.950 . S
H1270 C1296 0.950 . S
H1271 C1298 0.950 . S
H1272 C1301 0.950 . S
H1273 C1302 0.950 . S
H1274 C1304 0.950 . S
H1275 C1305 0.950 . S
C1276 H1258 0.951 . S
C1276 C1277 1.366 . S
C1276 C1278 1.388 . S
C1277 C1276 1.366 . S
C1277 C1281 1.385 . S
C1278 H1259 0.951 . S
C1278 C1276 1.388 . S
C1278 C1279 1.366 . S
C1279 C1278 1.366 . S
C1279 C1280 1.414 . S
C1279 C1282 1.499 . S
C1280 H1260 0.950 . S
C1280 C1279 1.414 . S
C1280 C1281 1.374 . S
C1281 H1261 0.950 . S
C1281 C1277 1.385 . S
C1281 C1280 1.374 . S
C1282 C1279 1.499 . S
C1282 C1283 1.373 . S
C1282 C1284 1.389 . S
C1283 H1262 0.950 . S
C1283 C1282 1.373 . S
C1283 C1299 1.377 . S
C1284 C1282 1.389 . S
C1284 C1285 1.524 . S
C1284 C1298 1.377 . S
C1285 C1284 1.524 . S
C1285 C1286 1.397 . S
C1285 C1290 1.363 . S
C1286 H1263 0.950 . S
C1286 C1285 1.397 . S
C1286 C1287 1.334 . S
C1287 H1264 0.950 . S
C1287 C1286 1.334 . S
C1287 C1288 1.287 . S
C1288 C1287 1.287 . S
C1288 C1289 1.524 . S
C1288 H1307 0.913 . S
C1289 H1265 0.950 . S
C1289 C1288 1.524 . S
C1289 C1290 1.415 . S
C1290 H1266 0.950 . S
C1290 C1285 1.363 . S
C1290 C1289 1.415 . S
C1291 H1267 0.951 . S
C1291 C1292 1.366 . S
C1291 C1293 1.388 . S
C1292 C1291 1.366 . S
C1292 C1296 1.385 . S
C1293 H1268 0.951 . S
C1293 C1291 1.388 . S
C1293 C1294 1.366 . S
C1294 C1293 1.366 . S
C1294 C1295 1.414 . S
C1294 C1297 1.499 . S
C1295 H1269 0.950 . S
C1295 C1294 1.414 . S
C1295 C1296 1.374 . S
C1296 H1270 0.950 . S
C1296 C1292 1.385 . S
C1296 C1295 1.374 . S
C1297 C1294 1.499 . S
C1297 C1298 1.373 . S
C1297 C1299 1.389 . S
C1298 H1271 0.950 . S
C1298 C1284 1.377 . S
C1298 C1297 1.373 . S
C1299 C1283 1.377 . S
C1299 C1297 1.389 . S
C1299 C1300 1.524 . S
C1300 C1299 1.524 . S
C1300 C1301 1.397 . S
C1300 C1305 1.363 . S
C1301 H1272 0.950 . S
C1301 C1300 1.397 . S
C1301 C1302 1.334 . S
C1302 H1273 0.950 . S
C1302 C1301 1.334 . S
C1302 C1303 1.287 . S
C1303 C1302 1.287 . S
C1303 C1304 1.524 . S
C1303 H1306 0.999 . S
C1304 H1274 0.950 . S
C1304 C1303 1.524 . S
C1304 C1305 1.415 . S
C1305 H1275 0.950 . S
C1305 C1300 1.363 . S
C1305 C1304 1.415 . S
H1306 C1303 0.999 . S
H1307 C1288 0.913 . S
H1308 C1326 0.951 . S
H1309 C1328 0.951 . S
H1310 C1330 0.950 . S
H1311 C1331 0.950 . S
H1312 C1333 0.950 . S
H1313 C1336 0.950 . S
H1314 C1337 0.950 . S
H1315 C1339 0.950 . S
H1316 C1340 0.950 . S
H1317 C1341 0.951 . S
H1318 C1343 0.951 . S
H1319 C1345 0.950 . S
H1320 C1346 0.950 . S
H1321 C1348 0.950 . S
H1322 C1351 0.950 . S
H1323 C1352 0.950 . S
H1324 C1354 0.950 . S
H1325 C1355 0.950 . S
C1326 H1308 0.951 . S
C1326 C1327 1.366 . S
C1326 C1328 1.388 . S
C1327 C1326 1.366 . S
C1327 C1331 1.385 . S
C1328 H1309 0.951 . S
C1328 C1326 1.388 . S
C1328 C1329 1.366 . S
C1329 C1328 1.366 . S
C1329 C1330 1.414 . S
C1329 C1332 1.499 . S
C1330 H1310 0.950 . S
C1330 C1329 1.414 . S
C1330 C1331 1.374 . S
C1331 H1311 0.950 . S
C1331 C1327 1.385 . S
C1331 C1330 1.374 . S
C1332 C1329 1.499 . S
C1332 C1333 1.373 . S
C1332 C1334 1.389 . S
C1333 H1312 0.950 . S
C1333 C1332 1.373 . S
C1333 C1349 1.377 . S
C1334 C1332 1.389 . S
C1334 C1335 1.524 . S
C1334 C1348 1.377 . S
C1335 C1334 1.524 . S
C1335 C1336 1.397 . S
C1335 C1340 1.363 . S
C1336 H1313 0.950 . S
C1336 C1335 1.397 . S
C1336 C1337 1.334 . S
C1337 H1314 0.950 . S
C1337 C1336 1.334 . S
C1337 C1338 1.287 . S
C1338 C1337 1.287 . S
C1338 C1339 1.524 . S
C1338 H1357 0.913 . S
C1339 H1315 0.950 . S
C1339 C1338 1.524 . S
C1339 C1340 1.415 . S
C1340 H1316 0.950 . S
C1340 C1335 1.363 . S
C1340 C1339 1.415 . S
C1341 H1317 0.951 . S
C1341 C1342 1.366 . S
C1341 C1343 1.388 . S
C1342 C1341 1.366 . S
C1342 C1346 1.385 . S
C1343 H1318 0.951 . S
C1343 C1341 1.388 . S
C1343 C1344 1.366 . S
C1344 C1343 1.366 . S
C1344 C1345 1.414 . S
C1344 C1347 1.499 . S
C1345 H1319 0.950 . S
C1345 C1344 1.414 . S
C1345 C1346 1.374 . S
C1346 H1320 0.950 . S
C1346 C1342 1.385 . S
C1346 C1345 1.374 . S
C1347 C1344 1.499 . S
C1347 C1348 1.373 . S
C1347 C1349 1.389 . S
C1348 H1321 0.950 . S
C1348 C1334 1.377 . S
C1348 C1347 1.373 . S
C1349 C1333 1.377 . S
C1349 C1347 1.389 . S
C1349 C1350 1.524 . S
C1350 C1349 1.524 . S
C1350 C1351 1.397 . S
C1350 C1355 1.363 . S
C1351 H1322 0.950 . S
C1351 C1350 1.397 . S
C1351 C1352 1.334 . S
C1352 H1323 0.950 . S
C1352 C1351 1.334 . S
C1352 C1353 1.287 . S
C1353 C1352 1.287 . S
C1353 C1354 1.524 . S
C1353 H1356 0.999 . S
C1354 H1324 0.950 . S
C1354 C1353 1.524 . S
C1354 C1355 1.415 . S
C1355 H1325 0.950 . S
C1355 C1350 1.363 . S
C1355 C1354 1.415 . S
H1356 C1353 0.999 . S
H1357 C1338 0.913 . S
H1358 C1376 0.951 . S
H1359 C1378 0.951 . S
H1360 C1380 0.950 . S
H1361 C1381 0.950 . S
H1362 C1383 0.950 . S
H1363 C1386 0.950 . S
H1364 C1387 0.950 . S
H1365 C1389 0.950 . S
H1366 C1390 0.950 . S
H1367 C1391 0.951 . S
H1368 C1393 0.951 . S
H1369 C1395 0.950 . S
H1370 C1396 0.950 . S
H1371 C1398 0.950 . S
H1372 C1401 0.950 . S
H1373 C1402 0.950 . S
H1374 C1404 0.950 . S
H1375 C1405 0.950 . S
C1376 H1358 0.951 . S
C1376 C1377 1.366 . S
C1376 C1378 1.388 . S
C1377 C1376 1.366 . S
C1377 C1381 1.385 . S
C1378 H1359 0.951 . S
C1378 C1376 1.388 . S
C1378 C1379 1.366 . S
C1379 C1378 1.366 . S
C1379 C1380 1.414 . S
C1379 C1382 1.499 . S
C1380 H1360 0.950 . S
C1380 C1379 1.414 . S
C1380 C1381 1.374 . S
C1381 H1361 0.950 . S
C1381 C1377 1.385 . S
C1381 C1380 1.374 . S
C1382 C1379 1.499 . S
C1382 C1383 1.373 . S
C1382 C1384 1.389 . S
C1383 H1362 0.950 . S
C1383 C1382 1.373 . S
C1383 C1399 1.377 . S
C1384 C1382 1.389 . S
C1384 C1385 1.524 . S
C1384 C1398 1.377 . S
C1385 C1384 1.524 . S
C1385 C1386 1.397 . S
C1385 C1390 1.363 . S
C1386 H1363 0.950 . S
C1386 C1385 1.397 . S
C1386 C1387 1.334 . S
C1387 H1364 0.950 . S
C1387 C1386 1.334 . S
C1387 C1388 1.287 . S
C1388 C1387 1.287 . S
C1388 C1389 1.524 . S
C1388 H1407 0.913 . S
C1389 H1365 0.950 . S
C1389 C1388 1.524 . S
C1389 C1390 1.415 . S
C1390 H1366 0.950 . S
C1390 C1385 1.363 . S
C1390 C1389 1.415 . S
C1391 H1367 0.951 . S
C1391 C1392 1.366 . S
C1391 C1393 1.388 . S
C1392 C1391 1.366 . S
C1392 C1396 1.385 . S
C1393 H1368 0.951 . S
C1393 C1391 1.388 . S
C1393 C1394 1.366 . S
C1394 C1393 1.366 . S
C1394 C1395 1.414 . S
C1394 C1397 1.499 1_556 S
C1395 H1369 0.950 . S
C1395 C1394 1.414 . S
C1395 C1396 1.374 . S
C1396 H1370 0.950 . S
C1396 C1392 1.385 . S
C1396 C1395 1.374 . S
C1397 C1394 1.499 1_554 S
C1397 C1398 1.373 . S
C1397 C1399 1.389 . S
C1398 H1371 0.950 . S
C1398 C1384 1.377 . S
C1398 C1397 1.373 . S
C1399 C1383 1.377 . S
C1399 C1397 1.389 . S
C1399 C1400 1.524 . S
C1400 C1399 1.524 . S
C1400 C1401 1.397 . S
C1400 C1405 1.363 . S
C1401 H1372 0.950 . S
C1401 C1400 1.397 . S
C1401 C1402 1.334 1_554 S
C1402 H1373 0.950 . S
C1402 C1401 1.334 1_556 S
C1402 C1403 1.287 . S
C1403 C1402 1.287 . S
C1403 C1404 1.524 1_556 S
C1403 H1406 0.999 . S
C1404 H1374 0.950 . S
C1404 C1403 1.524 1_554 S
C1404 C1405 1.415 . S
C1405 H1375 0.950 . S
C1405 C1400 1.363 . S
C1405 C1404 1.415 . S
H1406 C1403 0.999 . S
H1407 C1388 0.913 . S
H1408 C1426 0.951 . S
H1409 C1428 0.951 . S
H1410 C1430 0.950 . S
H1411 C1431 0.950 . S
H1412 C1433 0.950 . S
H1413 C1436 0.950 . S
H1414 C1437 0.950 . S
H1415 C1439 0.950 . S
H1416 C1440 0.950 . S
H1417 C1441 0.951 . S
H1418 C1443 0.951 . S
H1419 C1445 0.950 . S
H1420 C1446 0.950 . S
H1421 C1448 0.950 . S
H1422 C1451 0.950 . S
H1423 C1452 0.950 . S
H1424 C1454 0.950 . S
H1425 C1455 0.950 . S
C1426 H1408 0.951 . S
C1426 C1427 1.366 . S
C1426 C1428 1.388 . S
C1427 C1426 1.366 . S
C1427 C1431 1.385 . S
C1428 H1409 0.951 . S
C1428 C1426 1.388 . S
C1428 C1429 1.366 . S
C1429 C1428 1.366 . S
C1429 C1430 1.414 . S
C1429 C1432 1.499 . S
C1430 H1410 0.950 . S
C1430 C1429 1.414 . S
C1430 C1431 1.374 . S
C1431 H1411 0.950 . S
C1431 C1427 1.385 . S
C1431 C1430 1.374 . S
C1432 C1429 1.499 . S
C1432 C1433 1.373 . S
C1432 C1434 1.389 . S
C1433 H1412 0.950 . S
C1433 C1432 1.373 . S
C1433 C1449 1.377 . S
C1434 C1432 1.389 . S
C1434 C1435 1.524 . S
C1434 C1448 1.377 . S
C1435 C1434 1.524 . S
C1435 C1436 1.397 . S
C1435 C1440 1.363 . S
C1436 H1413 0.950 . S
C1436 C1435 1.397 . S
C1436 C1437 1.334 . S
C1437 H1414 0.950 . S
C1437 C1436 1.334 . S
C1437 C1438 1.287 . S
C1438 C1437 1.287 . S
C1438 C1439 1.524 . S
C1438 H1457 0.913 . S
C1439 H1415 0.950 . S
C1439 C1438 1.524 . S
C1439 C1440 1.415 . S
C1440 H1416 0.950 . S
C1440 C1435 1.363 . S
C1440 C1439 1.415 . S
C1441 H1417 0.951 . S
C1441 C1442 1.366 . S
C1441 C1443 1.388 . S
C1442 C1441 1.366 . S
C1442 C1446 1.385 . S
C1443 H1418 0.951 . S
C1443 C1441 1.388 . S
C1443 C1444 1.366 . S
C1444 C1443 1.366 . S
C1444 C1445 1.414 . S
C1444 C1447 1.499 . S
C1445 H1419 0.950 . S
C1445 C1444 1.414 . S
C1445 C1446 1.374 . S
C1446 H1420 0.950 . S
C1446 C1442 1.385 . S
C1446 C1445 1.374 . S
C1447 C1444 1.499 . S
C1447 C1448 1.373 . S
C1447 C1449 1.389 . S
C1448 H1421 0.950 . S
C1448 C1434 1.377 . S
C1448 C1447 1.373 . S
C1449 C1433 1.377 . S
C1449 C1447 1.389 . S
C1449 C1450 1.524 . S
C1450 C1449 1.524 . S
C1450 C1451 1.397 . S
C1450 C1455 1.363 . S
C1451 H1422 0.950 . S
C1451 C1450 1.397 . S
C1451 C1452 1.334 . S
C1452 H1423 0.950 . S
C1452 C1451 1.334 . S
C1452 C1453 1.287 . S
C1453 C1452 1.287 . S
C1453 C1454 1.524 . S
C1453 H1456 0.999 . S
C1454 H1424 0.950 . S
C1454 C1453 1.524 . S
C1454 C1455 1.415 . S
C1455 H1425 0.950 . S
C1455 C1450 1.363 . S
C1455 C1454 1.415 . S
H1456 C1453 0.999 . S
H1457 C1438 0.913 . S
H1458 C1476 0.951 . S
H1459 C1478 0.951 . S
H1460 C1480 0.950 . S
H1461 C1481 0.950 . S
H1462 C1483 0.950 . S
H1463 C1486 0.950 . S
H1464 C1487 0.950 . S
H1465 C1489 0.950 . S
H1466 C1490 0.950 . S
H1467 C1491 0.951 . S
H1468 C1493 0.951 . S
H1469 C1495 0.950 . S
H1470 C1496 0.950 . S
H1471 C1498 0.950 . S
H1472 C1501 0.950 . S
H1473 C1502 0.950 . S
H1474 C1504 0.950 . S
H1475 C1505 0.950 . S
C1476 H1458 0.951 . S
C1476 C1477 1.366 . S
C1476 C1478 1.388 . S
C1477 C1476 1.366 . S
C1477 C1481 1.385 . S
C1478 H1459 0.951 . S
C1478 C1476 1.388 . S
C1478 C1479 1.366 . S
C1479 C1478 1.366 . S
C1479 C1480 1.414 . S
C1479 C1482 1.499 1_556 S
C1480 H1460 0.950 . S
C1480 C1479 1.414 . S
C1480 C1481 1.374 . S
C1481 H1461 0.950 . S
C1481 C1477 1.385 . S
C1481 C1480 1.374 . S
C1482 C1479 1.499 1_554 S
C1482 C1483 1.373 . S
C1482 C1484 1.389 . S
C1483 H1462 0.950 . S
C1483 C1482 1.373 . S
C1483 C1499 1.377 . S
C1484 C1482 1.389 . S
C1484 C1485 1.524 . S
C1484 C1498 1.377 . S
C1485 C1484 1.524 . S
C1485 C1486 1.397 . S
C1485 C1490 1.363 . S
C1486 H1463 0.950 . S
C1486 C1485 1.397 . S
C1486 C1487 1.334 . S
C1487 H1464 0.950 . S
C1487 C1486 1.334 . S
C1487 C1488 1.287 . S
C1488 C1487 1.287 . S
C1488 C1489 1.524 . S
C1488 H1507 0.913 . S
C1489 H1465 0.950 . S
C1489 C1488 1.524 . S
C1489 C1490 1.415 . S
C1490 H1466 0.950 . S
C1490 C1485 1.363 . S
C1490 C1489 1.415 . S
C1491 H1467 0.951 . S
C1491 C1492 1.366 . S
C1491 C1493 1.388 . S
C1492 C1491 1.366 . S
C1492 C1496 1.385 . S
C1493 H1468 0.951 . S
C1493 C1491 1.388 . S
C1493 C1494 1.366 . S
C1494 C1493 1.366 . S
C1494 C1495 1.414 . S
C1494 C1497 1.499 . S
C1495 H1469 0.950 . S
C1495 C1494 1.414 . S
C1495 C1496 1.374 . S
C1496 H1470 0.950 . S
C1496 C1492 1.385 . S
C1496 C1495 1.374 . S
C1497 C1494 1.499 . S
C1497 C1498 1.373 . S
C1497 C1499 1.389 . S
C1498 H1471 0.950 . S
C1498 C1484 1.377 . S
C1498 C1497 1.373 . S
C1499 C1483 1.377 . S
C1499 C1497 1.389 . S
C1499 C1500 1.524 . S
C1500 C1499 1.524 . S
C1500 C1501 1.397 . S
C1500 C1505 1.363 . S
C1501 H1472 0.950 . S
C1501 C1500 1.397 . S
C1501 C1502 1.334 . S
C1502 H1473 0.950 . S
C1502 C1501 1.334 . S
C1502 C1503 1.287 . S
C1503 C1502 1.287 . S
C1503 C1504 1.524 . S
C1503 H1506 0.999 . S
C1504 H1474 0.950 . S
C1504 C1503 1.524 . S
C1504 C1505 1.415 . S
C1505 H1475 0.950 . S
C1505 C1500 1.363 . S
C1505 C1504 1.415 . S
H1506 C1503 0.999 . S
H1507 C1488 0.913 . S
H1508 C1526 0.951 . S
H1509 C1528 0.951 . S
H1510 C1530 0.950 . S
H1511 C1531 0.950 . S
H1512 C1533 0.950 . S
H1513 C1536 0.950 . S
H1514 C1537 0.950 . S
H1515 C1539 0.950 . S
H1516 C1540 0.950 . S
H1517 C1541 0.951 . S
H1518 C1543 0.951 . S
H1519 C1545 0.950 . S
H1520 C1546 0.950 . S
H1521 C1548 0.950 . S
H1522 C1551 0.950 . S
H1523 C1552 0.950 . S
H1524 C1554 0.950 . S
H1525 C1555 0.950 . S
C1526 H1508 0.951 . S
C1526 C1527 1.366 . S
C1526 C1528 1.388 . S
C1527 C1526 1.366 . S
C1527 C1531 1.385 . S
C1528 H1509 0.951 . S
C1528 C1526 1.388 . S
C1528 C1529 1.366 . S
C1529 C1528 1.366 . S
C1529 C1530 1.414 . S
C1529 C1532 1.499 . S
C1530 H1510 0.950 . S
C1530 C1529 1.414 . S
C1530 C1531 1.374 . S
C1531 H1511 0.950 . S
C1531 C1527 1.385 . S
C1531 C1530 1.374 . S
C1532 C1529 1.499 . S
C1532 C1533 1.373 . S
C1532 C1534 1.389 . S
C1533 H1512 0.950 . S
C1533 C1532 1.373 . S
C1533 C1549 1.377 . S
C1534 C1532 1.389 . S
C1534 C1535 1.524 . S
C1534 C1548 1.377 . S
C1535 C1534 1.524 . S
C1535 C1536 1.397 . S
C1535 C1540 1.363 . S
C1536 H1513 0.950 . S
C1536 C1535 1.397 . S
C1536 C1537 1.334 . S
C1537 H1514 0.950 . S
C1537 C1536 1.334 . S
C1537 C1538 1.287 . S
C1538 C1537 1.287 . S
C1538 C1539 1.524 . S
C1538 H1557 0.913 . S
C1539 H1515 0.950 . S
C1539 C1538 1.524 . S
C1539 C1540 1.415 . S
C1540 H1516 0.950 . S
C1540 C1535 1.363 . S
C1540 C1539 1.415 . S
C1541 H1517 0.951 . S
C1541 C1542 1.366 . S
C1541 C1543 1.388 . S
C1542 C1541 1.366 . S
C1542 C1546 1.385 . S
C1543 H1518 0.951 . S
C1543 C1541 1.388 . S
C1543 C1544 1.366 . S
C1544 C1543 1.366 . S
C1544 C1545 1.414 . S
C1544 C1547 1.499 . S
C1545 H1519 0.950 . S
C1545 C1544 1.414 . S
C1545 C1546 1.374 . S
C1546 H1520 0.950 . S
C1546 C1542 1.385 . S
C1546 C1545 1.374 . S
C1547 C1544 1.499 . S
C1547 C1548 1.373 . S
C1547 C1549 1.389 . S
C1548 H1521 0.950 . S
C1548 C1534 1.377 . S
C1548 C1547 1.373 . S
C1549 C1533 1.377 . S
C1549 C1547 1.389 . S
C1549 C1550 1.524 . S
C1550 C1549 1.524 . S
C1550 C1551 1.397 . S
C1550 C1555 1.363 . S
C1551 H1522 0.950 . S
C1551 C1550 1.397 . S
C1551 C1552 1.334 . S
C1552 H1523 0.950 . S
C1552 C1551 1.334 . S
C1552 C1553 1.287 . S
C1553 C1552 1.287 . S
C1553 C1554 1.524 . S
C1553 H1556 0.999 . S
C1554 H1524 0.950 . S
C1554 C1553 1.524 . S
C1554 C1555 1.415 . S
C1555 H1525 0.950 . S
C1555 C1550 1.363 . S
C1555 C1554 1.415 . S
H1556 C1553 0.999 . S
H1557 C1538 0.913 . S
H1558 C1576 0.951 . S
H1559 C1578 0.951 . S
H1560 C1580 0.950 . S
H1561 C1581 0.950 . S
H1562 C1583 0.950 . S
H1563 C1586 0.950 . S
H1564 C1587 0.950 . S
H1565 C1589 0.950 . S
H1566 C1590 0.950 . S
H1567 C1591 0.951 . S
H1568 C1593 0.951 . S
H1569 C1595 0.950 . S
H1570 C1596 0.950 . S
H1571 C1598 0.950 . S
H1572 C1601 0.950 . S
H1573 C1602 0.950 . S
H1574 C1604 0.950 . S
H1575 C1605 0.950 . S
C1576 H1558 0.951 . S
C1576 C1577 1.366 . S
C1576 C1578 1.388 . S
C1577 C1576 1.366 . S
C1577 C1581 1.385 . S
C1578 H1559 0.951 . S
C1578 C1576 1.388 . S
C1578 C1579 1.366 . S
C1579 C1578 1.366 . S
C1579 C1580 1.414 . S
C1579 C1582 1.499 . S
C1580 H1560 0.950 . S
C1580 C1579 1.414 . S
C1580 C1581 1.374 . S
C1581 H1561 0.950 . S
C1581 C1577 1.385 . S
C1581 C1580 1.374 . S
C1582 C1579 1.499 . S
C1582 C1583 1.373 . S
C1582 C1584 1.389 . S
C1583 H1562 0.950 . S
C1583 C1582 1.373 . S
C1583 C1599 1.377 . S
C1584 C1582 1.389 . S
C1584 C1585 1.524 . S
C1584 C1598 1.377 . S
C1585 C1584 1.524 . S
C1585 C1586 1.397 . S
C1585 C1590 1.363 . S
C1586 H1563 0.950 . S
C1586 C1585 1.397 . S
C1586 C1587 1.334 . S
C1587 H1564 0.950 . S
C1587 C1586 1.334 . S
C1587 C1588 1.287 . S
C1588 C1587 1.287 . S
C1588 C1589 1.524 . S
C1588 H1607 0.913 . S
C1589 H1565 0.950 . S
C1589 C1588 1.524 . S
C1589 C1590 1.415 . S
C1590 H1566 0.950 . S
C1590 C1585 1.363 . S
C1590 C1589 1.415 . S
C1591 H1567 0.951 . S
C1591 C1592 1.366 . S
C1591 C1593 1.388 . S
C1592 C1591 1.366 . S
C1592 C1596 1.385 . S
C1593 H1568 0.951 . S
C1593 C1591 1.388 . S
C1593 C1594 1.366 . S
C1594 C1593 1.366 . S
C1594 C1595 1.414 . S
C1594 C1597 1.499 1_556 S
C1595 H1569 0.950 . S
C1595 C1594 1.414 . S
C1595 C1596 1.374 . S
C1596 H1570 0.950 . S
C1596 C1592 1.385 . S
C1596 C1595 1.374 . S
C1597 C1594 1.499 1_554 S
C1597 C1598 1.373 . S
C1597 C1599 1.389 . S
C1598 H1571 0.950 . S
C1598 C1584 1.377 . S
C1598 C1597 1.373 . S
C1599 C1583 1.377 . S
C1599 C1597 1.389 . S
C1599 C1600 1.524 . S
C1600 C1599 1.524 . S
C1600 C1601 1.397 . S
C1600 C1605 1.363 . S
C1601 H1572 0.950 . S
C1601 C1600 1.397 . S
C1601 C1602 1.334 1_554 S
C1602 H1573 0.950 . S
C1602 C1601 1.334 1_556 S
C1602 C1603 1.287 1_556 S
C1603 C1602 1.287 1_554 S
C1603 C1604 1.524 . S
C1603 H1606 0.999 1_554 S
C1604 H1574 0.950 . S
C1604 C1603 1.524 . S
C1604 C1605 1.415 . S
C1605 H1575 0.950 . S
C1605 C1600 1.363 . S
C1605 C1604 1.415 . S
H1606 C1603 0.999 1_556 S
H1607 C1588 0.913 . S
H1608 C1626 0.951 . S
H1609 C1628 0.951 . S
H1610 C1630 0.950 . S
H1611 C1631 0.950 . S
H1612 C1633 0.950 . S
H1613 C1636 0.950 . S
H1614 C1637 0.950 . S
H1615 C1639 0.950 . S
H1616 C1640 0.950 . S
H1617 C1641 0.951 . S
H1618 C1643 0.951 . S
H1619 C1645 0.950 . S
H1620 C1646 0.950 . S
H1621 C1648 0.950 . S
H1622 C1651 0.950 . S
H1623 C1652 0.950 . S
H1624 C1654 0.950 . S
H1625 C1655 0.950 . S
C1626 H1608 0.951 . S
C1626 C1627 1.366 . S
C1626 C1628 1.388 . S
C1627 C1626 1.366 . S
C1627 C1631 1.385 . S
C1628 H1609 0.951 . S
C1628 C1626 1.388 . S
C1628 C1629 1.366 . S
C1629 C1628 1.366 . S
C1629 C1630 1.414 . S
C1629 C1632 1.499 . S
C1630 H1610 0.950 . S
C1630 C1629 1.414 . S
C1630 C1631 1.374 . S
C1631 H1611 0.950 . S
C1631 C1627 1.385 . S
C1631 C1630 1.374 . S
C1632 C1629 1.499 . S
C1632 C1633 1.373 . S
C1632 C1634 1.389 . S
C1633 H1612 0.950 . S
C1633 C1632 1.373 . S
C1633 C1649 1.377 . S
C1634 C1632 1.389 . S
C1634 C1635 1.524 . S
C1634 C1648 1.377 . S
C1635 C1634 1.524 . S
C1635 C1636 1.397 . S
C1635 C1640 1.363 . S
C1636 H1613 0.950 . S
C1636 C1635 1.397 . S
C1636 C1637 1.334 . S
C1637 H1614 0.950 . S
C1637 C1636 1.334 . S
C1637 C1638 1.287 . S
C1638 C1637 1.287 . S
C1638 C1639 1.524 . S
C1638 H1657 0.913 . S
C1639 H1615 0.950 . S
C1639 C1638 1.524 . S
C1639 C1640 1.415 . S
C1640 H1616 0.950 . S
C1640 C1635 1.363 . S
C1640 C1639 1.415 . S
C1641 H1617 0.951 . S
C1641 C1642 1.366 . S
C1641 C1643 1.388 . S
C1642 C1641 1.366 . S
C1642 C1646 1.385 . S
C1643 H1618 0.951 . S
C1643 C1641 1.388 . S
C1643 C1644 1.366 . S
C1644 C1643 1.366 . S
C1644 C1645 1.414 . S
C1644 C1647 1.499 . S
C1645 H1619 0.950 . S
C1645 C1644 1.414 . S
C1645 C1646 1.374 . S
C1646 H1620 0.950 . S
C1646 C1642 1.385 . S
C1646 C1645 1.374 . S
C1647 C1644 1.499 . S
C1647 C1648 1.373 . S
C1647 C1649 1.389 . S
C1648 H1621 0.950 . S
C1648 C1634 1.377 . S
C1648 C1647 1.373 . S
C1649 C1633 1.377 . S
C1649 C1647 1.389 . S
C1649 C1650 1.524 . S
C1650 C1649 1.524 . S
C1650 C1651 1.397 . S
C1650 C1655 1.363 . S
C1651 H1622 0.950 . S
C1651 C1650 1.397 . S
C1651 C1652 1.334 . S
C1652 H1623 0.950 . S
C1652 C1651 1.334 . S
C1652 C1653 1.287 . S
C1653 C1652 1.287 . S
C1653 C1654 1.524 . S
C1653 H1656 0.999 . S
C1654 H1624 0.950 . S
C1654 C1653 1.524 . S
C1654 C1655 1.415 . S
C1655 H1625 0.950 . S
C1655 C1650 1.363 . S
C1655 C1654 1.415 . S
H1656 C1653 0.999 . S
H1657 C1638 0.913 . S
H1658 C1676 0.951 . S
H1659 C1678 0.951 . S
H1660 C1680 0.950 . S
H1661 C1681 0.950 . S
H1662 C1683 0.950 . S
H1663 C1686 0.950 . S
H1664 C1687 0.950 . S
H1665 C1689 0.950 . S
H1666 C1690 0.950 . S
H1667 C1691 0.951 . S
H1668 C1693 0.951 . S
H1669 C1695 0.950 . S
H1670 C1696 0.950 . S
H1671 C1698 0.950 . S
H1672 C1701 0.950 . S
H1673 C1702 0.950 . S
H1674 C1704 0.950 . S
H1675 C1705 0.950 . S
C1676 H1658 0.951 . S
C1676 C1677 1.366 . S
C1676 C1678 1.388 . S
C1677 C1676 1.366 . S
C1677 C1681 1.385 . S
C1678 H1659 0.951 . S
C1678 C1676 1.388 . S
C1678 C1679 1.366 . S
C1679 C1678 1.366 . S
C1679 C1680 1.414 . S
C1679 C1682 1.499 . S
C1680 H1660 0.950 . S
C1680 C1679 1.414 . S
C1680 C1681 1.374 . S
C1681 H1661 0.950 . S
C1681 C1677 1.385 . S
C1681 C1680 1.374 . S
C1682 C1679 1.499 . S
C1682 C1683 1.373 . S
C1682 C1684 1.389 . S
C1683 H1662 0.950 . S
C1683 C1682 1.373 . S
C1683 C1699 1.377 . S
C1684 C1682 1.389 . S
C1684 C1685 1.524 . S
C1684 C1698 1.377 . S
C1685 C1684 1.524 . S
C1685 C1686 1.397 . S
C1685 C1690 1.363 . S
C1686 H1663 0.950 . S
C1686 C1685 1.397 . S
C1686 C1687 1.334 . S
C1687 H1664 0.950 . S
C1687 C1686 1.334 . S
C1687 C1688 1.287 . S
C1688 C1687 1.287 . S
C1688 C1689 1.524 . S
C1688 H1707 0.913 . S
C1689 H1665 0.950 . S
C1689 C1688 1.524 . S
C1689 C1690 1.415 . S
C1690 H1666 0.950 . S
C1690 C1685 1.363 . S
C1690 C1689 1.415 . S
C1691 H1667 0.951 . S
C1691 C1692 1.366 . S
C1691 C1693 1.388 . S
C1692 C1691 1.366 . S
C1692 C1696 1.385 . S
C1693 H1668 0.951 . S
C1693 C1691 1.388 . S
C1693 C1694 1.366 . S
C1694 C1693 1.366 . S
C1694 C1695 1.414 . S
C1694 C1697 1.499 . S
C1695 H1669 0.950 . S
C1695 C1694 1.414 . S
C1695 C1696 1.374 . S
C1696 H1670 0.950 . S
C1696 C1692 1.385 . S
C1696 C1695 1.374 . S
C1697 C1694 1.499 . S
C1697 C1698 1.373 . S
C1697 C1699 1.389 . S
C1698 H1671 0.950 . S
C1698 C1684 1.377 . S
C1698 C1697 1.373 . S
C1699 C1683 1.377 . S
C1699 C1697 1.389 . S
C1699 C1700 1.524 . S
C1700 C1699 1.524 . S
C1700 C1701 1.397 . S
C1700 C1705 1.363 . S
C1701 H1672 0.950 . S
C1701 C1700 1.397 . S
C1701 C1702 1.334 . S
C1702 H1673 0.950 . S
C1702 C1701 1.334 . S
C1702 C1703 1.287 . S
C1703 C1702 1.287 . S
C1703 C1704 1.524 . S
C1703 H1706 0.999 . S
C1704 H1674 0.950 . S
C1704 C1703 1.524 . S
C1704 C1705 1.415 . S
C1705 H1675 0.950 . S
C1705 C1700 1.363 . S
C1705 C1704 1.415 . S
H1706 C1703 0.999 . S
H1707 C1688 0.913 . S
H1708 C1726 0.951 . S
H1709 C1728 0.951 . S
H1710 C1730 0.950 . S
H1711 C1731 0.950 . S
H1712 C1733 0.950 . S
H1713 C1736 0.950 . S
H1714 C1737 0.950 . S
H1715 C1739 0.950 . S
H1716 C1740 0.950 . S
H1717 C1741 0.951 . S
H1718 C1743 0.951 . S
H1719 C1745 0.950 . S
H1720 C1746 0.950 . S
H1721 C1748 0.950 . S
H1722 C1751 0.950 . S
H1723 C1752 0.950 . S
H1724 C1754 0.950 . S
H1725 C1755 0.950 . S
C1726 H1708 0.951 . S
C1726 C1727 1.366 . S
C1726 C1728 1.388 . S
C1727 C1726 1.366 . S
C1727 C1731 1.385 . S
C1728 H1709 0.951 . S
C1728 C1726 1.388 . S
C1728 C1729 1.366 . S
C1729 C1728 1.366 . S
C1729 C1730 1.414 . S
C1729 C1732 1.499 . S
C1730 H1710 0.950 . S
C1730 C1729 1.414 . S
C1730 C1731 1.374 . S
C1731 H1711 0.950 . S
C1731 C1727 1.385 . S
C1731 C1730 1.374 . S
C1732 C1729 1.499 . S
C1732 C1733 1.373 . S
C1732 C1734 1.389 . S
C1733 H1712 0.950 . S
C1733 C1732 1.373 . S
C1733 C1749 1.377 . S
C1734 C1732 1.389 . S
C1734 C1735 1.524 . S
C1734 C1748 1.377 . S
C1735 C1734 1.524 . S
C1735 C1736 1.397 . S
C1735 C1740 1.363 . S
C1736 H1713 0.950 . S
C1736 C1735 1.397 . S
C1736 C1737 1.334 . S
C1737 H1714 0.950 . S
C1737 C1736 1.334 . S
C1737 C1738 1.287 . S
C1738 C1737 1.287 . S
C1738 C1739 1.524 . S
C1738 H1757 0.913 . S
C1739 H1715 0.950 . S
C1739 C1738 1.524 . S
C1739 C1740 1.415 . S
C1740 H1716 0.950 . S
C1740 C1735 1.363 . S
C1740 C1739 1.415 . S
C1741 H1717 0.951 . S
C1741 C1742 1.366 . S
C1741 C1743 1.388 . S
C1742 C1741 1.366 . S
C1742 C1746 1.385 . S
C1743 H1718 0.951 . S
C1743 C1741 1.388 . S
C1743 C1744 1.366 . S
C1744 C1743 1.366 . S
C1744 C1745 1.414 . S
C1744 C1747 1.499 . S
C1745 H1719 0.950 . S
C1745 C1744 1.414 . S
C1745 C1746 1.374 . S
C1746 H1720 0.950 . S
C1746 C1742 1.385 . S
C1746 C1745 1.374 . S
C1747 C1744 1.499 . S
C1747 C1748 1.373 . S
C1747 C1749 1.389 . S
C1748 H1721 0.950 . S
C1748 C1734 1.377 . S
C1748 C1747 1.373 . S
C1749 C1733 1.377 . S
C1749 C1747 1.389 . S
C1749 C1750 1.524 . S
C1750 C1749 1.524 . S
C1750 C1751 1.397 . S
C1750 C1755 1.363 . S
C1751 H1722 0.950 . S
C1751 C1750 1.397 . S
C1751 C1752 1.334 . S
C1752 H1723 0.950 . S
C1752 C1751 1.334 . S
C1752 C1753 1.287 . S
C1753 C1752 1.287 . S
C1753 C1754 1.524 . S
C1753 H1756 0.999 . S
C1754 H1724 0.950 . S
C1754 C1753 1.524 . S
C1754 C1755 1.415 . S
C1755 H1725 0.950 . S
C1755 C1750 1.363 . S
C1755 C1754 1.415 . S
H1756 C1753 0.999 . S
H1757 C1738 0.913 . S
H1758 C1776 0.951 . S
H1759 C1778 0.951 . S
H1760 C1780 0.950 . S
H1761 C1781 0.950 . S
H1762 C1783 0.950 . S
H1763 C1786 0.950 . S
H1764 C1787 0.950 . S
H1765 C1789 0.950 . S
H1766 C1790 0.950 . S
H1767 C1791 0.951 . S
H1768 C1793 0.951 . S
H1769 C1795 0.950 . S
H1770 C1796 0.950 . S
H1771 C1798 0.950 . S
H1772 C1801 0.950 . S
H1773 C1802 0.950 . S
H1774 C1804 0.950 . S
H1775 C1805 0.950 . S
C1776 H1758 0.951 . S
C1776 C1777 1.366 . S
C1776 C1778 1.388 . S
C1777 C1776 1.366 . S
C1777 C1781 1.385 . S
C1778 H1759 0.951 . S
C1778 C1776 1.388 . S
C1778 C1779 1.366 . S
C1779 C1778 1.366 . S
C1779 C1780 1.414 . S
C1779 C1782 1.499 . S
C1780 H1760 0.950 . S
C1780 C1779 1.414 . S
C1780 C1781 1.374 . S
C1781 H1761 0.950 . S
C1781 C1777 1.385 . S
C1781 C1780 1.374 . S
C1782 C1779 1.499 . S
C1782 C1783 1.373 . S
C1782 C1784 1.389 . S
C1783 H1762 0.950 . S
C1783 C1782 1.373 . S
C1783 C1799 1.377 . S
C1784 C1782 1.389 . S
C1784 C1785 1.524 . S
C1784 C1798 1.377 . S
C1785 C1784 1.524 . S
C1785 C1786 1.397 . S
C1785 C1790 1.363 . S
C1786 H1763 0.950 . S
C1786 C1785 1.397 . S
C1786 C1787 1.334 . S
C1787 H1764 0.950 . S
C1787 C1786 1.334 . S
C1787 C1788 1.287 . S
C1788 C1787 1.287 . S
C1788 C1789 1.524 . S
C1788 H1807 0.913 . S
C1789 H1765 0.950 . S
C1789 C1788 1.524 . S
C1789 C1790 1.415 . S
C1790 H1766 0.950 . S
C1790 C1785 1.363 . S
C1790 C1789 1.415 . S
C1791 H1767 0.951 . S
C1791 C1792 1.366 . S
C1791 C1793 1.388 . S
C1792 C1791 1.366 . S
C1792 C1796 1.385 . S
C1793 H1768 0.951 . S
C1793 C1791 1.388 . S
C1793 C1794 1.366 . S
C1794 C1793 1.366 . S
C1794 C1795 1.414 . S
C1794 C1797 1.499 . S
C1795 H1769 0.950 . S
C1795 C1794 1.414 . S
C1795 C1796 1.374 . S
C1796 H1770 0.950 . S
C1796 C1792 1.385 . S
C1796 C1795 1.374 . S
C1797 C1794 1.499 . S
C1797 C1798 1.373 . S
C1797 C1799 1.389 . S
C1798 H1771 0.950 . S
C1798 C1784 1.377 . S
C1798 C1797 1.373 . S
C1799 C1783 1.377 . S
C1799 C1797 1.389 . S
C1799 C1800 1.524 . S
C1800 C1799 1.524 . S
C1800 C1801 1.397 . S
C1800 C1805 1.363 . S
C1801 H1772 0.950 . S
C1801 C1800 1.397 . S
C1801 C1802 1.334 . S
C1802 H1773 0.950 . S
C1802 C1801 1.334 . S
C1802 C1803 1.287 . S
C1803 C1802 1.287 . S
C1803 C1804 1.524 . S
C1803 H1806 0.999 . S
C1804 H1774 0.950 . S
C1804 C1803 1.524 . S
C1804 C1805 1.415 . S
C1805 H1775 0.950 . S
C1805 C1800 1.363 . S
C1805 C1804 1.415 . S
H1806 C1803 0.999 . S
H1807 C1788 0.913 . S
H1808 C1826 0.951 . S
H1809 C1828 0.951 . S
H1810 C1830 0.950 . S
H1811 C1831 0.950 . S
H1812 C1833 0.950 . S
H1813 C1836 0.950 . S
H1814 C1837 0.950 . S
H1815 C1839 0.950 . S
H1816 C1840 0.950 . S
H1817 C1841 0.951 . S
H1818 C1843 0.951 . S
H1819 C1845 0.950 . S
H1820 C1846 0.950 . S
H1821 C1848 0.950 . S
H1822 C1851 0.950 . S
H1823 C1852 0.950 . S
H1824 C1854 0.950 . S
H1825 C1855 0.950 . S
C1826 H1808 0.951 . S
C1826 C1827 1.366 . S
C1826 C1828 1.388 . S
C1827 C1826 1.366 . S
C1827 C1831 1.385 . S
C1828 H1809 0.951 . S
C1828 C1826 1.388 . S
C1828 C1829 1.366 . S
C1829 C1828 1.366 . S
C1829 C1830 1.414 . S
C1829 C1832 1.499 . S
C1830 H1810 0.950 . S
C1830 C1829 1.414 . S
C1830 C1831 1.374 . S
C1831 H1811 0.950 . S
C1831 C1827 1.385 . S
C1831 C1830 1.374 . S
C1832 C1829 1.499 . S
C1832 C1833 1.373 . S
C1832 C1834 1.389 . S
C1833 H1812 0.950 . S
C1833 C1832 1.373 . S
C1833 C1849 1.377 . S
C1834 C1832 1.389 . S
C1834 C1835 1.524 . S
C1834 C1848 1.377 . S
C1835 C1834 1.524 . S
C1835 C1836 1.397 . S
C1835 C1840 1.363 . S
C1836 H1813 0.950 . S
C1836 C1835 1.397 . S
C1836 C1837 1.334 . S
C1837 H1814 0.950 . S
C1837 C1836 1.334 . S
C1837 C1838 1.287 . S
C1838 C1837 1.287 . S
C1838 C1839 1.524 . S
C1838 H1857 0.913 . S
C1839 H1815 0.950 . S
C1839 C1838 1.524 . S
C1839 C1840 1.415 . S
C1840 H1816 0.950 . S
C1840 C1835 1.363 . S
C1840 C1839 1.415 . S
C1841 H1817 0.951 . S
C1841 C1842 1.366 . S
C1841 C1843 1.388 . S
C1842 C1841 1.366 . S
C1842 C1846 1.385 . S
C1843 H1818 0.951 . S
C1843 C1841 1.388 . S
C1843 C1844 1.366 . S
C1844 C1843 1.366 . S
C1844 C1845 1.414 . S
C1844 C1847 1.499 . S
C1845 H1819 0.950 . S
C1845 C1844 1.414 . S
C1845 C1846 1.374 . S
C1846 H1820 0.950 . S
C1846 C1842 1.385 . S
C1846 C1845 1.374 . S
C1847 C1844 1.499 . S
C1847 C1848 1.373 . S
C1847 C1849 1.389 . S
C1848 H1821 0.950 . S
C1848 C1834 1.377 . S
C1848 C1847 1.373 . S
C1849 C1833 1.377 . S
C1849 C1847 1.389 . S
C1849 C1850 1.524 . S
C1850 C1849 1.524 . S
C1850 C1851 1.397 . S
C1850 C1855 1.363 . S
C1851 H1822 0.950 . S
C1851 C1850 1.397 . S
C1851 C1852 1.334 . S
C1852 H1823 0.950 . S
C1852 C1851 1.334 . S
C1852 C1853 1.287 . S
C1853 C1852 1.287 . S
C1853 C1854 1.524 . S
C1853 H1856 0.999 . S
C1854 H1824 0.950 . S
C1854 C1853 1.524 . S
C1854 C1855 1.415 . S
C1855 H1825 0.950 . S
C1855 C1850 1.363 . S
C1855 C1854 1.415 . S
H1856 C1853 0.999 . S
H1857 C1838 0.913 . S
H1858 C1876 0.951 . S
H1859 C1878 0.951 . S
H1860 C1880 0.950 . S
H1861 C1881 0.950 . S
H1862 C1883 0.950 . S
H1863 C1886 0.950 . S
H1864 C1887 0.950 . S
H1865 C1889 0.950 . S
H1866 C1890 0.950 . S
H1867 C1891 0.951 . S
H1868 C1893 0.951 . S
H1869 C1895 0.950 . S
H1870 C1896 0.950 . S
H1871 C1898 0.950 . S
H1872 C1901 0.950 . S
H1873 C1902 0.950 . S
H1874 C1904 0.950 . S
H1875 C1905 0.950 . S
C1876 H1858 0.951 . S
C1876 C1877 1.366 . S
C1876 C1878 1.388 . S
C1877 C1876 1.366 . S
C1877 C1881 1.385 . S
C1878 H1859 0.951 . S
C1878 C1876 1.388 . S
C1878 C1879 1.366 . S
C1879 C1878 1.366 . S
C1879 C1880 1.414 . S
C1879 C1882 1.499 . S
C1880 H1860 0.950 . S
C1880 C1879 1.414 . S
C1880 C1881 1.374 . S
C1881 H1861 0.950 . S
C1881 C1877 1.385 . S
C1881 C1880 1.374 . S
C1882 C1879 1.499 . S
C1882 C1883 1.373 . S
C1882 C1884 1.389 . S
C1883 H1862 0.950 . S
C1883 C1882 1.373 . S
C1883 C1899 1.377 . S
C1884 C1882 1.389 . S
C1884 C1885 1.524 . S
C1884 C1898 1.377 . S
C1885 C1884 1.524 . S
C1885 C1886 1.397 . S
C1885 C1890 1.363 . S
C1886 H1863 0.950 . S
C1886 C1885 1.397 . S
C1886 C1887 1.334 . S
C1887 H1864 0.950 . S
C1887 C1886 1.334 . S
C1887 C1888 1.287 . S
C1888 C1887 1.287 . S
C1888 C1889 1.524 . S
C1888 H1907 0.913 1_556 S
C1889 H1865 0.950 . S
C1889 C1888 1.524 . S
C1889 C1890 1.415 . S
C1890 H1866 0.950 . S
C1890 C1885 1.363 . S
C1890 C1889 1.415 . S
C1891 H1867 0.951 . S
C1891 C1892 1.366 . S
C1891 C1893 1.388 . S
C1892 C1891 1.366 . S
C1892 C1896 1.385 . S
C1893 H1868 0.951 . S
C1893 C1891 1.388 . S
C1893 C1894 1.366 . S
C1894 C1893 1.366 . S
C1894 C1895 1.414 . S
C1894 C1897 1.499 . S
C1895 H1869 0.950 . S
C1895 C1894 1.414 . S
C1895 C1896 1.374 . S
C1896 H1870 0.950 . S
C1896 C1892 1.385 . S
C1896 C1895 1.374 . S
C1897 C1894 1.499 . S
C1897 C1898 1.373 . S
C1897 C1899 1.389 . S
C1898 H1871 0.950 . S
C1898 C1884 1.377 . S
C1898 C1897 1.373 . S
C1899 C1883 1.377 . S
C1899 C1897 1.389 . S
C1899 C1900 1.524 . S
C1900 C1899 1.524 . S
C1900 C1901 1.397 . S
C1900 C1905 1.363 . S
C1901 H1872 0.950 . S
C1901 C1900 1.397 . S
C1901 C1902 1.334 . S
C1902 H1873 0.950 . S
C1902 C1901 1.334 . S
C1902 C1903 1.287 . S
C1903 C1902 1.287 . S
C1903 C1904 1.524 . S
C1903 H1906 0.999 . S
C1904 H1874 0.950 . S
C1904 C1903 1.524 . S
C1904 C1905 1.415 . S
C1905 H1875 0.950 . S
C1905 C1900 1.363 . S
C1905 C1904 1.415 . S
H1906 C1903 0.999 . S
H1907 C1888 0.913 1_554 S
C427 C2 1.551 . S
C442 C376 1.551 . S
C477 C36 1.551 . S
C492 C206 1.551 . S
C527 C240 1.552 . S
C542 C70 1.551 . S
C577 C274 1.551 . S
C592 C104 1.551 . S
C627 C308 1.551 . S
C642 C138 1.552 . S
C677 C172 1.551 . S
C692 C342 1.551 . S
C727 C305 1.615 . S
C742 C33 1.615 . S
C777 C339 1.615 . S
C792 C67 1.614 . S
C827 C101 1.615 . S
C842 C373 1.615 . S
C877 C135 1.615 . S
C892 C407 1.615 . S
C927 C237 1.615 . S
C942 C169 1.614 . S
C977 C203 1.615 . S
C992 C271 1.615 . S
C1027 C9 0.987 . S
C1042 C5 1.010 . S
C1077 C39 1.009 . S
C1092 C43 0.986 . S
C1127 C77 0.986 . S
C1142 C73 1.009 . S
C1177 C107 1.009 . S
C1192 C111 0.987 . S
C1227 C145 0.986 . S
C1242 C141 1.010 . S
C1277 C175 1.010 . S
C1292 C179 0.987 . S
C1327 C209 1.010 . S
C1342 C213 0.987 . S
C1377 C247 0.986 . S
C1392 C243 1.010 . S
C1427 C277 1.009 . S
C1442 C281 0.986 . S
C1477 C311 1.009 . S
C1492 C315 0.986 . S
C1527 C349 0.987 . S
C1542 C345 1.010 . S
C1577 C383 0.985 . S
C1592 C379 1.010 . S
C1627 C20 1.562 . S
C1642 C360 1.562 . S
C1677 C394 1.562 . S
C1692 C54 1.562 . S
C1727 C224 1.562 . S
C1742 C88 1.562 . S
C1777 C122 1.562 . S
C1792 C258 1.562 . S
C1827 C156 1.562 . S
C1842 C292 1.562 . S
C1877 C190 1.562 . S
C1892 C326 1.562 . S
