# Generated by pormake.
# Topology wgq, (5)-cn, num edge types: 1
# Building blocks:
#     Node 0, Type 0, BuildingBlock: XOMCOT_clean_sbu_0, # of connection points: 5
#     Node 1, Type 0, BuildingBlock: XOMCOT_clean_sbu_0, # of connection points: 5
#     Node 2, Type 0, BuildingBlock: XOMCOT_clean_sbu_0, # of connection points: 5
#     Node 3, Type 0, BuildingBlock: XOMCOT_clean_sbu_0, # of connection points: 5
#     Node 4, Type 0, BuildingBlock: XOMCOT_clean_sbu_0, # of connection points: 5
#     Node 5, Type 0, BuildingBlock: XOMCOT_clean_sbu_0, # of connection points: 5
#     Node 6, Type 0, BuildingBlock: XOMCOT_clean_sbu_0, # of connection points: 5
#     Node 7, Type 0, BuildingBlock: XOMCOT_clean_sbu_0, # of connection points: 5
#     Node 8, Type 0, BuildingBlock: XOMCOT_clean_sbu_0, # of connection points: 5
#     Node 9, Type 0, BuildingBlock: XOMCOT_clean_sbu_0, # of connection points: 5
#     Node 10, Type 0, BuildingBlock: XOMCOT_clean_sbu_0, # of connection points: 5
#     Node 11, Type 0, BuildingBlock: XOMCOT_clean_sbu_0, # of connection points: 5
#     Node 12, Type 0, BuildingBlock: XOMCOT_clean_sbu_0, # of connection points: 5
#     Node 13, Type 0, BuildingBlock: XOMCOT_clean_sbu_0, # of connection points: 5
#     Node 14, Type 0, BuildingBlock: XOMCOT_clean_sbu_0, # of connection points: 5
#     Node 15, Type 0, BuildingBlock: XOMCOT_clean_sbu_0, # of connection points: 5
#     Node 16, Type 0, BuildingBlock: XOMCOT_clean_sbu_0, # of connection points: 5
#     Node 17, Type 0, BuildingBlock: XOMCOT_clean_sbu_0, # of connection points: 5
#     Node 18, Type 0, BuildingBlock: XOMCOT_clean_sbu_0, # of connection points: 5
#     Node 19, Type 0, BuildingBlock: XOMCOT_clean_sbu_0, # of connection points: 5
#     Node 20, Type 0, BuildingBlock: XOMCOT_clean_sbu_0, # of connection points: 5
#     Node 21, Type 0, BuildingBlock: XOMCOT_clean_sbu_0, # of connection points: 5
#     Node 22, Type 0, BuildingBlock: XOMCOT_clean_sbu_0, # of connection points: 5
#     Node 23, Type 0, BuildingBlock: XOMCOT_clean_sbu_0, # of connection points: 5
#     Node 24, Type 0, BuildingBlock: XOMCOT_clean_sbu_0, # of connection points: 5
#     Node 25, Type 0, BuildingBlock: XOMCOT_clean_sbu_0, # of connection points: 5
#     Node 26, Type 0, BuildingBlock: XOMCOT_clean_sbu_0, # of connection points: 5
#     Node 27, Type 0, BuildingBlock: XOMCOT_clean_sbu_0, # of connection points: 5
#     Node 28, Type 0, BuildingBlock: XOMCOT_clean_sbu_0, # of connection points: 5
#     Node 29, Type 0, BuildingBlock: XOMCOT_clean_sbu_0, # of connection points: 5
#     Node 30, Type 0, BuildingBlock: XOMCOT_clean_sbu_0, # of connection points: 5
#     Node 31, Type 0, BuildingBlock: XOMCOT_clean_sbu_0, # of connection points: 5
#     Edge 32, Type (0, 0), BuildingBlock: KIFKEQ_clean_linker_1, # of connection points: 2
#     Edge 33, Type (0, 0), BuildingBlock: KIFKEQ_clean_linker_1, # of connection points: 2
#     Edge 34, Type (0, 0), BuildingBlock: KIFKEQ_clean_linker_1, # of connection points: 2
#     Edge 35, Type (0, 0), BuildingBlock: KIFKEQ_clean_linker_1, # of connection points: 2
#     Edge 36, Type (0, 0), BuildingBlock: KIFKEQ_clean_linker_1, # of connection points: 2
#     Edge 37, Type (0, 0), BuildingBlock: KIFKEQ_clean_linker_1, # of connection points: 2
#     Edge 38, Type (0, 0), BuildingBlock: KIFKEQ_clean_linker_1, # of connection points: 2
#     Edge 39, Type (0, 0), BuildingBlock: KIFKEQ_clean_linker_1, # of connection points: 2
#     Edge 40, Type (0, 0), BuildingBlock: KIFKEQ_clean_linker_1, # of connection points: 2
#     Edge 41, Type (0, 0), BuildingBlock: KIFKEQ_clean_linker_1, # of connection points: 2
#     Edge 42, Type (0, 0), BuildingBlock: KIFKEQ_clean_linker_1, # of connection points: 2
#     Edge 43, Type (0, 0), BuildingBlock: KIFKEQ_clean_linker_1, # of connection points: 2
#     Edge 44, Type (0, 0), BuildingBlock: KIFKEQ_clean_linker_1, # of connection points: 2
#     Edge 45, Type (0, 0), BuildingBlock: KIFKEQ_clean_linker_1, # of connection points: 2
#     Edge 46, Type (0, 0), BuildingBlock: KIFKEQ_clean_linker_1, # of connection points: 2
#     Edge 47, Type (0, 0), BuildingBlock: KIFKEQ_clean_linker_1, # of connection points: 2
#     Edge 48, Type (0, 0), BuildingBlock: KIFKEQ_clean_linker_1, # of connection points: 2
#     Edge 49, Type (0, 0), BuildingBlock: KIFKEQ_clean_linker_1, # of connection points: 2
#     Edge 50, Type (0, 0), BuildingBlock: KIFKEQ_clean_linker_1, # of connection points: 2
#     Edge 51, Type (0, 0), BuildingBlock: KIFKEQ_clean_linker_1, # of connection points: 2
#     Edge 52, Type (0, 0), BuildingBlock: KIFKEQ_clean_linker_1, # of connection points: 2
#     Edge 53, Type (0, 0), BuildingBlock: KIFKEQ_clean_linker_1, # of connection points: 2
#     Edge 54, Type (0, 0), BuildingBlock: KIFKEQ_clean_linker_1, # of connection points: 2
#     Edge 55, Type (0, 0), BuildingBlock: KIFKEQ_clean_linker_1, # of connection points: 2
#     Edge 56, Type (0, 0), BuildingBlock: KIFKEQ_clean_linker_1, # of connection points: 2
#     Edge 57, Type (0, 0), BuildingBlock: KIFKEQ_clean_linker_1, # of connection points: 2
#     Edge 58, Type (0, 0), BuildingBlock: KIFKEQ_clean_linker_1, # of connection points: 2
#     Edge 59, Type (0, 0), BuildingBlock: KIFKEQ_clean_linker_1, # of connection points: 2
#     Edge 60, Type (0, 0), BuildingBlock: KIFKEQ_clean_linker_1, # of connection points: 2
#     Edge 61, Type (0, 0), BuildingBlock: KIFKEQ_clean_linker_1, # of connection points: 2
#     Edge 62, Type (0, 0), BuildingBlock: KIFKEQ_clean_linker_1, # of connection points: 2
#     Edge 63, Type (0, 0), BuildingBlock: KIFKEQ_clean_linker_1, # of connection points: 2
#     Edge 64, Type (0, 0), BuildingBlock: KIFKEQ_clean_linker_1, # of connection points: 2
#     Edge 65, Type (0, 0), BuildingBlock: KIFKEQ_clean_linker_1, # of connection points: 2
#     Edge 66, Type (0, 0), BuildingBlock: KIFKEQ_clean_linker_1, # of connection points: 2
#     Edge 67, Type (0, 0), BuildingBlock: KIFKEQ_clean_linker_1, # of connection points: 2
#     Edge 68, Type (0, 0), BuildingBlock: KIFKEQ_clean_linker_1, # of connection points: 2
#     Edge 69, Type (0, 0), BuildingBlock: KIFKEQ_clean_linker_1, # of connection points: 2
#     Edge 70, Type (0, 0), BuildingBlock: KIFKEQ_clean_linker_1, # of connection points: 2
#     Edge 71, Type (0, 0), BuildingBlock: KIFKEQ_clean_linker_1, # of connection points: 2
#     Edge 72, Type (0, 0), BuildingBlock: KIFKEQ_clean_linker_1, # of connection points: 2
#     Edge 73, Type (0, 0), BuildingBlock: KIFKEQ_clean_linker_1, # of connection points: 2
#     Edge 74, Type (0, 0), BuildingBlock: KIFKEQ_clean_linker_1, # of connection points: 2
#     Edge 75, Type (0, 0), BuildingBlock: KIFKEQ_clean_linker_1, # of connection points: 2
#     Edge 76, Type (0, 0), BuildingBlock: KIFKEQ_clean_linker_1, # of connection points: 2
#     Edge 77, Type (0, 0), BuildingBlock: KIFKEQ_clean_linker_1, # of connection points: 2
#     Edge 78, Type (0, 0), BuildingBlock: KIFKEQ_clean_linker_1, # of connection points: 2
#     Edge 79, Type (0, 0), BuildingBlock: KIFKEQ_clean_linker_1, # of connection points: 2
#     Edge 80, Type (0, 0), BuildingBlock: KIFKEQ_clean_linker_1, # of connection points: 2
#     Edge 81, Type (0, 0), BuildingBlock: KIFKEQ_clean_linker_1, # of connection points: 2
#     Edge 82, Type (0, 0), BuildingBlock: KIFKEQ_clean_linker_1, # of connection points: 2
#     Edge 83, Type (0, 0), BuildingBlock: KIFKEQ_clean_linker_1, # of connection points: 2
#     Edge 84, Type (0, 0), BuildingBlock: KIFKEQ_clean_linker_1, # of connection points: 2
#     Edge 85, Type (0, 0), BuildingBlock: KIFKEQ_clean_linker_1, # of connection points: 2
#     Edge 86, Type (0, 0), BuildingBlock: KIFKEQ_clean_linker_1, # of connection points: 2
#     Edge 87, Type (0, 0), BuildingBlock: KIFKEQ_clean_linker_1, # of connection points: 2
#     Edge 88, Type (0, 0), BuildingBlock: KIFKEQ_clean_linker_1, # of connection points: 2
#     Edge 89, Type (0, 0), BuildingBlock: KIFKEQ_clean_linker_1, # of connection points: 2
#     Edge 90, Type (0, 0), BuildingBlock: KIFKEQ_clean_linker_1, # of connection points: 2
#     Edge 91, Type (0, 0), BuildingBlock: KIFKEQ_clean_linker_1, # of connection points: 2
#     Edge 92, Type (0, 0), BuildingBlock: KIFKEQ_clean_linker_1, # of connection points: 2
#     Edge 93, Type (0, 0), BuildingBlock: KIFKEQ_clean_linker_1, # of connection points: 2
#     Edge 94, Type (0, 0), BuildingBlock: KIFKEQ_clean_linker_1, # of connection points: 2
#     Edge 95, Type (0, 0), BuildingBlock: KIFKEQ_clean_linker_1, # of connection points: 2
#     Edge 96, Type (0, 0), BuildingBlock: KIFKEQ_clean_linker_1, # of connection points: 2
#     Edge 97, Type (0, 0), BuildingBlock: KIFKEQ_clean_linker_1, # of connection points: 2
#     Edge 98, Type (0, 0), BuildingBlock: KIFKEQ_clean_linker_1, # of connection points: 2
#     Edge 99, Type (0, 0), BuildingBlock: KIFKEQ_clean_linker_1, # of connection points: 2
#     Edge 100, Type (0, 0), BuildingBlock: KIFKEQ_clean_linker_1, # of connection points: 2
#     Edge 101, Type (0, 0), BuildingBlock: KIFKEQ_clean_linker_1, # of connection points: 2
#     Edge 102, Type (0, 0), BuildingBlock: KIFKEQ_clean_linker_1, # of connection points: 2
#     Edge 103, Type (0, 0), BuildingBlock: KIFKEQ_clean_linker_1, # of connection points: 2
#     Edge 104, Type (0, 0), BuildingBlock: KIFKEQ_clean_linker_1, # of connection points: 2
#     Edge 105, Type (0, 0), BuildingBlock: KIFKEQ_clean_linker_1, # of connection points: 2
#     Edge 106, Type (0, 0), BuildingBlock: KIFKEQ_clean_linker_1, # of connection points: 2
#     Edge 107, Type (0, 0), BuildingBlock: KIFKEQ_clean_linker_1, # of connection points: 2
#     Edge 108, Type (0, 0), BuildingBlock: KIFKEQ_clean_linker_1, # of connection points: 2
#     Edge 109, Type (0, 0), BuildingBlock: KIFKEQ_clean_linker_1, # of connection points: 2
#     Edge 110, Type (0, 0), BuildingBlock: KIFKEQ_clean_linker_1, # of connection points: 2
#     Edge 111, Type (0, 0), BuildingBlock: KIFKEQ_clean_linker_1, # of connection points: 2
# Relax obj value: 0.339
# Max RMSD: 0.243
# Mean RMSD: 0.242
data_MOF--net-wgq--node1-XOMCOT_clean_sbu_0--edge1-KIFKEQ_clean_linker_1
_symmetry_space_group_name_H-M    P1
_symmetry_Int_Tables_number       1
_symmetry_cell_setting            triclinic
loop_
_symmetry_equiv_pos_as_xyz
'x, y, z'
_cell_length_a     30.486098
_cell_length_b     30.45413
_cell_length_c     142.68838
_cell_angle_alpha  89.970794
_cell_angle_beta   90.035397
_cell_angle_gamma 90.065723
loop_
_atom_site_label
_atom_site_type_symbol
_atom_site_fract_x
_atom_site_fract_y
_atom_site_fract_z
_atom_type_partial_charge
Co0 Co 0.2294 0.04942 0.19458 0.0
C1 C 0.24205 0.0413 0.1734 0.0
C2 C 0.21702 0.98363 0.18009 0.0
C3 C 0.22125 0.97511 0.1707 0.0
N4 N 0.22832 0.02567 0.18183 0.0
N5 N 0.23691 1.01136 0.16643 0.0
H6 H 0.25774 0.0726 0.17236 0.0
H7 H 0.20624 0.96047 0.18535 0.0
C8 C 0.13665 0.01757 0.19196 0.0
O9 O 0.1406 0.03575 0.18366 0.0
N10 N 0.23224 0.0697 0.20744 0.0
C11 C 0.24402 0.10998 0.2104 0.0
C12 C 0.24574 0.10976 0.22005 0.0
C13 C 0.22746 0.04536 0.21529 0.0
N14 N 0.23555 0.06905 0.22315 0.0
C15 C 0.20267 0.12815 0.18423 0.0
C16 C 0.12989 0.14358 0.19527 0.0
C17 C 0.13652 0.16942 0.18732 0.0
C18 C 0.17376 0.16212 0.1818 0.0
C19 C 0.15885 0.10987 0.1973 0.0
N20 N 0.19331 0.10051 0.1915 0.0
H21 H 0.23274 0.12497 0.1804 0.0
H22 H 0.15283 0.09045 0.2035 0.0
H23 H 0.25145 0.13739 0.20585 0.0
H24 H 0.21982 1.01067 0.2152 0.0
O25 O 0.287 0.07503 0.19242 0.0
O26 O 0.27759 1.00757 0.19746 0.0
O27 O 0.17066 0.01629 0.19748 0.0
C28 C 0.30512 0.03894 0.19524 0.0
H29 H 0.21292 0.94444 0.16732 0.0
H30 H 0.25411 0.13759 0.2244 0.0
H31 H 0.10187 0.14875 0.19981 0.0
H32 H 0.18078 0.18285 0.17582 0.0
Co33 Co 0.23529 0.98635 0.44409 0.0
C34 C 0.24598 0.99451 0.42343 0.0
C35 C 0.30385 0.96924 0.43013 0.0
C36 C 0.31055 0.96946 0.42058 0.0
N37 N 0.26323 0.98442 0.4319 0.0
N38 N 0.27419 0.98529 0.41638 0.0
H39 H 0.21291 1.00658 0.42243 0.0
H40 H 0.32665 0.95783 0.4354 0.0
C41 C 0.24823 0.89602 0.45205 0.0
O42 O 0.20858 0.90181 0.45543 0.0
N43 N 0.20946 0.9904 0.45663 0.0
C44 C 0.1741 1.01392 0.45931 0.0
C45 C 0.17297 0.01629 0.46894 0.0
C46 C 0.23053 0.98105 0.46477 0.0
N47 N 0.20854 0.99562 0.4724 0.0
C48 C 0.14514 0.95768 0.44051 0.0
C49 C 0.16946 0.88055 0.43172 0.0
C50 C 0.12548 0.88663 0.43412 0.0
C51 C 0.11299 0.92666 0.43818 0.0
C52 C 0.20024 0.91218 0.43417 0.0
N53 N 0.18853 0.94872 0.43916 0.0
H54 H 0.13493 0.98832 0.44348 0.0
H55 H 0.23416 0.90577 0.4325 0.0
H56 H 0.15253 0.03188 0.4547 0.0
H57 H 0.2627 0.96616 0.46505 0.0
O58 O 0.21075 0.04334 0.441 0.0
O59 O 0.27488 0.03514 0.4478 0.0
O60 O 0.26752 0.92866 0.44789 0.0
C61 C 0.24503 0.06213 0.44459 0.0
H62 H 0.33988 0.95866 0.41699 0.0
H63 H 0.14864 0.0336 0.47303 0.0
H64 H 0.18032 0.8509 0.42824 0.0
H65 H 0.07902 0.93326 0.43988 0.0
Co66 Co 0.28582 0.98274 0.69492 0.0
C67 C 0.27903 0.9939 0.67419 0.0
C68 C 0.29127 0.05475 0.68133 0.0
C69 C 0.29073 0.06258 0.67183 0.0
N70 N 0.28442 1.01169 0.68281 0.0
N71 N 0.28344 0.02427 0.6673 0.0
H72 H 0.27402 0.95916 0.67302 0.0
H73 H 0.29706 0.07864 0.6868 0.0
C74 C 0.37603 0.99877 0.70257 0.0
O75 O 0.37126 0.95883 0.70589 0.0
N76 N 0.28459 0.9564 0.70745 0.0
C77 C 0.26433 0.91928 0.71029 0.0
C78 C 0.26271 0.91854 0.71994 0.0
C79 C 0.29247 0.97873 0.71551 0.0
N80 N 0.28038 0.95609 0.72327 0.0
C81 C 0.32157 0.89495 0.69116 0.0
C82 C 0.39348 0.92657 0.68144 0.0
C83 C 0.39259 0.8824 0.68402 0.0
C84 C 0.35512 0.86599 0.68855 0.0
C85 C 0.35998 0.95413 0.6843 0.0
N86 N 0.32587 0.939 0.68965 0.0
H87 H 0.29304 0.88187 0.69455 0.0
H88 H 0.36315 0.98858 0.68265 0.0
H89 H 0.24801 0.89599 0.70578 0.0
H90 H 0.3045 1.01215 0.71561 0.0
O91 O 0.23024 0.95466 0.692 0.0
O92 O 0.23477 0.01875 0.69895 0.0
O93 O 0.34261 0.01755 0.69854 0.0
C94 C 0.20951 0.98737 0.69572 0.0
H95 H 0.29551 0.09424 0.66854 0.0
H96 H 0.24775 0.89294 0.72411 0.0
H97 H 0.42096 0.94034 0.67763 0.0
H98 H 0.35261 0.83165 0.69045 0.0
Co99 Co 0.28833 0.03705 0.94466 0.0
C100 C 0.27945 0.02957 0.92391 0.0
C101 C 0.22117 0.05485 0.93042 0.0
C102 C 0.2153 0.05517 0.92084 0.0
N103 N 0.26152 0.03933 0.93234 0.0
N104 N 0.25192 0.03935 0.91676 0.0
H105 H 0.31254 0.0174 0.92303 0.0
H106 H 0.19801 0.0662 0.93562 0.0
C107 C 0.27576 0.12728 0.9527 0.0
O108 O 0.315 0.12081 0.95625 0.0
N109 N 0.31275 0.03275 0.95734 0.0
C110 C 0.34838 1.01019 0.96022 0.0
C111 C 0.34823 1.00755 0.96985 0.0
C112 C 0.29027 0.04111 0.96535 0.0
N113 N 0.31152 0.02689 0.97313 0.0
C114 C 0.37913 0.06419 0.94125 0.0
C115 C 0.35627 0.142 0.93253 0.0
C116 C 0.40011 0.13506 0.93495 0.0
C117 C 0.41187 0.09468 0.93896 0.0
C118 C 0.32492 0.11093 0.93495 0.0
N119 N 0.33592 0.07407 0.93992 0.0
H120 H 0.38874 0.03314 0.94412 0.0
H121 H 0.29116 0.11791 0.93323 0.0
H122 H 0.37101 0.99292 0.95575 0.0
H123 H 0.25769 0.05511 0.96539 0.0
O124 O 0.31238 0.97952 0.94171 0.0
O125 O 0.24781 0.98906 0.94824 0.0
O126 O 0.25652 0.09515 0.94835 0.0
C127 C 0.27747 0.96148 0.94519 0.0
H128 H 0.18636 0.06639 0.91716 0.0
H129 H 0.37262 0.99075 0.97401 0.0
H130 H 0.34596 0.17187 0.92905 0.0
H131 H 0.44572 0.08736 0.94065 0.0
Co132 Co 0.23869 0.98884 0.31879 0.0
C133 C 0.24739 0.99739 0.33952 0.0
C134 C 0.22147 0.05568 0.33309 0.0
C135 C 0.22163 0.06147 0.34266 0.0
N136 N 0.23705 0.01537 0.33113 0.0
N137 N 0.23785 0.02486 0.3467 0.0
H138 H 0.25972 0.96431 0.34038 0.0
H139 H 0.2097 0.07883 0.32792 0.0
C140 C 0.14733 1.00018 0.31122 0.0
O141 O 0.15375 0.96086 0.30769 0.0
N142 N 0.24222 0.96482 0.30609 0.0
C143 C 0.26598 0.9303 0.30301 0.0
C144 C 0.26682 0.93062 0.29336 0.0
C145 C 0.23144 0.987 0.29818 0.0
N146 N 0.24505 0.96635 0.2903 0.0
C147 C 0.21252 0.89739 0.32185 0.0
C148 C 0.13561 0.91872 0.33103 0.0
C149 C 0.14215 0.87535 0.32818 0.0
C150 C 0.18215 0.86427 0.32395 0.0
C151 C 0.16655 0.95049 0.32879 0.0
N152 N 0.2029 0.94037 0.32359 0.0
H153 H 0.24309 0.88832 0.31869 0.0
H154 H 0.15956 0.98402 0.33073 0.0
H155 H 0.28514 0.90856 0.30736 0.0
H156 H 0.21521 0.01855 0.29822 0.0
O157 O 0.29689 0.96572 0.3215 0.0
O158 O 0.28566 0.03035 0.3151 0.0
O159 O 0.17972 0.01984 0.31539 0.0
C160 C 0.31402 1.00112 0.31802 0.0
H161 H 0.21042 0.09032 0.34638 0.0
H162 H 0.28485 0.90797 0.28898 0.0
H163 H 0.10598 0.92842 0.33467 0.0
H164 H 0.18911 0.83076 0.3219 0.0
Co165 Co 0.28879 0.99214 0.56863 0.0
C166 C 0.28728 0.99473 0.59011 0.0
C167 C 0.22457 0.9995 0.5834 0.0
C168 C 0.21824 1.00079 0.5929 0.0
N169 N 0.26769 0.99515 0.58155 0.0
N170 N 0.25754 0.99752 0.59718 0.0
H171 H 0.322 0.99176 0.59129 0.0
H172 H 0.19919 1.00123 0.57811 0.0
C173 C 0.24483 0.90487 0.57223 0.0
O174 O 0.26084 0.90965 0.58071 0.0
N175 N 0.3072 0.99115 0.55564 0.0
C176 C 0.34801 0.99848 0.5524 0.0
C177 C 0.34719 0.99685 0.54276 0.0
C178 C 0.28194 0.98566 0.54794 0.0
N179 N 0.30565 0.98881 0.53993 0.0
C180 C 0.37063 0.96044 0.57722 0.0
C181 C 0.36877 0.88178 0.5676 0.0
C182 C 0.40379 0.88966 0.57369 0.0
C183 C 0.40472 0.92981 0.57857 0.0
C184 C 0.33741 0.91359 0.56617 0.0
N185 N 0.33614 0.95092 0.57144 0.0
H186 H 0.37302 0.99232 0.58049 0.0
H187 H 0.31446 0.90834 0.56056 0.0
H188 H 0.37629 1.00512 0.55676 0.0
H189 H 0.24699 0.97962 0.54822 0.0
O190 O 0.32045 0.0472 0.57038 0.0
O191 O 0.25194 0.04433 0.56574 0.0
O192 O 0.24844 0.93731 0.56634 0.0
C193 C 0.2859 0.06883 0.5678 0.0
H194 H 0.18693 1.00439 0.59638 0.0
H195 H 0.37497 1.00247 0.5382 0.0
H196 H 0.36594 0.8516 0.56363 0.0
H197 H 0.43209 0.93813 0.58307 0.0
Co198 Co 0.29085 0.03826 0.81906 0.0
C199 C 0.28208 0.03029 0.83984 0.0
C200 C 0.30677 0.97141 0.83345 0.0
C201 C 0.3064 0.96569 0.84302 0.0
N202 N 0.29211 1.01205 0.83146 0.0
N203 N 0.29096 1.00266 0.84704 0.0
H204 H 0.27036 0.0636 0.84067 0.0
H205 H 0.31799 0.94794 0.8283 0.0
C206 C 0.38146 0.02483 0.81134 0.0
O207 O 0.37539 0.06395 0.80768 0.0
N208 N 0.28742 0.06175 0.80629 0.0
C209 C 0.26472 0.09694 0.80317 0.0
C210 C 0.2631 0.09606 0.79352 0.0
C211 C 0.29667 0.03865 0.79839 0.0
N212 N 0.28318 0.05932 0.7905 0.0
C213 C 0.32093 0.1291 0.82176 0.0
C214 C 0.39659 0.10484 0.83112 0.0
C215 C 0.39244 0.14809 0.828 0.0
C216 C 0.35306 0.16083 0.8237 0.0
C217 C 0.36406 0.0745 0.82902 0.0
N218 N 0.32828 0.08586 0.82374 0.0
H219 H 0.29098 0.1394 0.81849 0.0
H220 H 0.36957 0.04086 0.83108 0.0
H221 H 0.2467 0.11961 0.80751 0.0
H222 H 0.31166 1.00648 0.79847 0.0
O223 O 0.23333 0.06294 0.82179 0.0
O224 O 0.24279 0.9978 0.8155 0.0
O225 O 0.34899 1.00588 0.81563 0.0
C226 C 0.21525 0.0278 0.81841 0.0
H227 H 0.31687 0.93658 0.84676 0.0
H228 H 0.24559 0.1191 0.78912 0.0
H229 H 0.42578 0.09395 0.83477 0.0
H230 H 0.34801 0.1944 0.82143 0.0
Co231 Co 0.23557 0.03627 0.06886 0.0
C232 C 0.24651 0.02928 0.08961 0.0
C233 C 0.30582 0.04875 0.08261 0.0
C234 C 0.31324 0.049 0.09213 0.0
N235 N 0.26393 0.03693 0.08103 0.0
N236 N 0.27592 0.03701 0.09654 0.0
H237 H 0.21257 0.0203 0.09074 0.0
H238 H 0.32908 0.05759 0.07721 0.0
C239 C 0.24845 0.12681 0.06108 0.0
O240 O 0.20876 0.12089 0.05772 0.0
N241 N 0.21004 0.03335 0.05627 0.0
C242 C 0.17414 1.0112 0.05334 0.0
C243 C 0.17385 1.00977 0.04368 0.0
C244 C 0.23232 0.04239 0.04827 0.0
N245 N 0.21056 0.02937 0.04048 0.0
C246 C 0.14585 0.06803 0.07216 0.0
C247 C 0.17316 0.14254 0.08159 0.0
C248 C 0.12956 0.13969 0.07867 0.0
C249 C 0.11528 0.10086 0.07433 0.0
C250 C 0.20235 0.10953 0.0792 0.0
N251 N 0.18944 0.07425 0.07393 0.0
H252 H 0.13442 0.03857 0.06885 0.0
H253 H 0.23636 0.11432 0.08105 0.0
H254 H 0.1517 0.99343 0.0578 0.0
H255 H 0.26473 0.05687 0.04819 0.0
O256 O 0.21063 0.97895 0.07175 0.0
O257 O 0.27471 0.98785 0.06496 0.0
O258 O 0.26792 0.09423 0.06523 0.0
C259 C 0.24492 0.96057 0.0681 0.0
H260 H 0.34377 0.05759 0.09554 0.0
H261 H 0.15006 0.99269 0.03938 0.0
H262 H 0.18528 0.17121 0.08527 0.0
H263 H 0.08141 0.09681 0.0722 0.0
Co264 Co 0.79061 0.98543 0.81941 0.0
C265 C 0.78108 1.00046 0.83986 0.0
C266 C 0.80186 0.05867 0.8326 0.0
C267 C 0.80048 0.06755 0.84207 0.0
N268 N 0.7902 0.01652 0.83125 0.0
N269 N 0.78758 0.03089 0.84663 0.0
H270 H 0.77196 0.96664 0.84115 0.0
H271 H 0.81168 0.08105 0.8271 0.0
C272 C 0.88171 0.9965 0.81182 0.0
O273 O 0.87604 0.95599 0.8089 0.0
N274 N 0.78863 0.95674 0.80716 0.0
C275 C 0.767 0.91988 0.80459 0.0
C276 C 0.76624 0.91705 0.79495 0.0
C277 C 0.79795 0.97706 0.79894 0.0
N278 N 0.78563 0.95315 0.7914 0.0
C279 C 0.82219 0.89653 0.82386 0.0
C280 C 0.89581 0.92633 0.83325 0.0
C281 C 0.89341 0.88205 0.83079 0.0
C282 C 0.85496 0.86662 0.82647 0.0
C283 C 0.86298 0.95484 0.83041 0.0
N284 N 0.82818 0.94056 0.82514 0.0
H285 H 0.793 0.88416 0.82061 0.0
H286 H 0.86754 0.9893 0.83188 0.0
H287 H 0.74902 0.89851 0.80925 0.0
H288 H 0.81204 1.00962 0.7985 0.0
O289 O 0.73301 0.96127 0.82235 0.0
O290 O 0.74262 0.02371 0.81491 0.0
O291 O 0.84888 0.01693 0.81564 0.0
C292 C 0.71501 0.9948 0.81828 0.0
H293 H 0.80867 0.09856 0.84534 0.0
H294 H 0.74968 0.89207 0.79087 0.0
H295 H 0.92406 0.93944 0.83692 0.0
H296 H 0.85115 0.83226 0.82469 0.0
Co297 Co 0.7868 0.0394 0.56758 0.0
C298 C 0.78864 0.03438 0.58897 0.0
C299 C 0.72456 0.04072 0.58292 0.0
C300 C 0.72028 0.04078 0.5925 0.0
N301 N 0.76745 0.03819 0.58064 0.0
N302 N 0.76047 0.0368 0.59629 0.0
H303 H 0.82346 0.03024 0.58983 0.0
H304 H 0.69811 0.04351 0.5779 0.0
C305 C 0.74536 0.1279 0.57099 0.0
O306 O 0.76443 0.12447 0.57921 0.0
N307 N 0.80345 0.03871 0.55448 0.0
C308 C 0.84417 0.03265 0.55106 0.0
C309 C 0.84239 0.03437 0.54143 0.0
C310 C 0.77724 0.04316 0.5469 0.0
N311 N 0.80034 0.04089 0.53881 0.0
C312 C 0.86922 0.07243 0.57575 0.0
C313 C 0.8667 0.14966 0.5656 0.0
C314 C 0.90128 0.14344 0.57191 0.0
C315 C 0.90271 0.10381 0.57698 0.0
C316 C 0.83597 0.11707 0.5643 0.0
N317 N 0.83479 0.08068 0.56987 0.0
H318 H 0.87214 0.04101 0.57916 0.0
H319 H 0.81276 0.12133 0.55869 0.0
H320 H 0.87315 0.02744 0.5553 0.0
H321 H 0.74217 0.0483 0.5473 0.0
O322 O 0.81843 0.98459 0.56943 0.0
O323 O 0.74925 0.98702 0.56524 0.0
O324 O 0.74676 0.0945 0.56529 0.0
C325 C 0.78352 0.96274 0.56717 0.0
H326 H 0.68997 0.0434 0.59641 0.0
H327 H 0.86983 0.0303 0.5367 0.0
H328 H 0.86323 0.17934 0.5615 0.0
H329 H 0.92989 0.09654 0.58161 0.0
Co330 Co 0.73849 0.04706 0.31853 0.0
C331 C 0.74571 0.03587 0.3392 0.0
C332 C 0.72292 0.97747 0.33229 0.0
C333 C 0.72376 0.96983 0.34179 0.0
N334 N 0.73622 0.01893 0.33068 0.0
N335 N 0.73794 1.00656 0.34615 0.0
H336 H 0.75662 0.06931 0.3403 0.0
H337 H 0.71281 0.95457 0.32691 0.0
C338 C 0.64746 0.03641 0.31072 0.0
O339 O 0.65416 0.07591 0.3073 0.0
N340 N 0.74288 0.0727 0.306 0.0
C341 C 0.76823 0.10671 0.3032 0.0
C342 C 0.77115 0.10672 0.29358 0.0
C343 C 0.73282 0.05134 0.29794 0.0
N344 N 0.74889 0.0718 0.29025 0.0
C345 C 0.71175 0.13805 0.32182 0.0
C346 C 0.63469 0.11555 0.33085 0.0
C347 C 0.64104 0.15915 0.32812 0.0
C348 C 0.6811 0.17078 0.32395 0.0
C349 C 0.66593 0.08416 0.32858 0.0
N350 N 0.70242 0.0949 0.32348 0.0
H351 H 0.74225 0.14757 0.31868 0.0
H352 H 0.65906 0.05044 0.33041 0.0
H353 H 0.78712 0.12776 0.30776 0.0
H354 H 0.71671 0.01968 0.29776 0.0
O355 O 0.79656 0.06986 0.32153 0.0
O356 O 0.78562 1.00607 0.31474 0.0
O357 O 0.67971 0.01639 0.31485 0.0
C358 C 0.81384 0.03491 0.31791 0.0
H359 H 0.71477 0.93943 0.34523 0.0
H360 H 0.79006 0.12957 0.2894 0.0
H361 H 0.60499 0.10539 0.33442 0.0
H362 H 0.6879 0.20443 0.32197 0.0
Co363 Co 0.72668 0.97524 0.0682 0.0
C364 C 0.7341 0.98646 0.08928 0.0
C365 C 0.78171 0.9424 0.08354 0.0
C366 C 0.78678 0.94307 0.09307 0.0
N367 N 0.7478 0.96845 0.08108 0.0
N368 N 0.75666 0.97037 0.09673 0.0
H369 H 0.70816 1.01045 0.08987 0.0
H370 H 0.80209 0.92405 0.07878 0.0
C371 C 0.78474 0.89303 0.0615 0.0
O372 O 0.8179 0.91407 0.05771 0.0
N373 N 0.70788 0.982 0.05532 0.0
C374 C 0.66844 0.99579 0.05227 0.0
C375 C 0.66935 0.99793 0.04262 0.0
C376 C 0.73243 0.97659 0.04754 0.0
N377 N 0.70965 0.98588 0.03964 0.0
C378 C 0.64691 0.95188 0.07822 0.0
C379 C 0.62676 0.88139 0.06679 0.0
C380 C 0.60114 0.88916 0.07472 0.0
C381 C 0.61099 0.92514 0.08044 0.0
C382 C 0.66262 0.90814 0.06496 0.0
N383 N 0.67361 0.94182 0.07085 0.0
H384 H 0.65281 0.98069 0.08238 0.0
H385 H 0.68178 0.90136 0.05877 0.0
H386 H 0.64113 1.00418 0.05676 0.0
H387 H 0.76633 0.96634 0.04769 0.0
O388 O 0.70482 0.03363 0.07089 0.0
O389 O 0.77176 0.02184 0.06597 0.0
O390 O 0.75323 0.91466 0.06523 0.0
C391 C 0.74182 0.05059 0.06838 0.0
H392 H 0.81108 0.92496 0.09703 0.0
H393 H 0.64268 1.0087 0.03818 0.0
H394 H 0.61972 0.85417 0.06214 0.0
H395 H 0.59087 0.93276 0.08648 0.0
Co396 Co 0.78574 0.03078 0.69479 0.0
C397 C 0.78214 0.03353 0.6734 0.0
C398 C 0.78983 0.96925 0.67931 0.0
C399 C 0.79081 0.96551 0.66973 0.0
N400 N 0.78584 1.01196 0.6817 0.0
N401 N 0.78598 1.00583 0.66603 0.0
H402 H 0.77716 0.0683 0.67262 0.0
H403 H 0.79305 0.94259 0.68428 0.0
C404 C 0.87533 0.99226 0.69147 0.0
O405 O 0.87195 1.01222 0.68334 0.0
N406 N 0.78383 0.04709 0.70792 0.0
C407 C 0.77584 0.08759 0.71129 0.0
C408 C 0.77767 0.08615 0.72093 0.0
C409 C 0.78953 0.02126 0.71553 0.0
N410 N 0.7862 0.04451 0.72359 0.0
C411 C 0.81664 0.11499 0.68687 0.0
C412 C 0.89322 0.11405 0.69723 0.0
C413 C 0.88655 0.14878 0.69099 0.0
C414 C 0.84725 0.1494 0.68579 0.0
C415 C 0.86146 0.08232 0.69836 0.0
N416 N 0.82542 0.08045 0.6927 0.0
H417 H 0.78541 0.11722 0.68336 0.0
H418 H 0.86619 0.05883 0.70391 0.0
H419 H 0.76937 0.11624 0.70703 0.0
H420 H 0.79643 0.98645 0.71517 0.0
O421 O 0.72936 0.05993 0.69291 0.0
O422 O 0.73566 0.9907 0.69699 0.0
O423 O 0.84182 0.99248 0.69711 0.0
C424 C 0.70957 0.02363 0.69511 0.0
H425 H 0.79467 0.93549 0.66575 0.0
H426 H 0.77241 0.11353 0.72563 0.0
H427 H 0.92269 0.11116 0.70142 0.0
H428 H 0.83967 0.17659 0.68118 0.0
Co429 Co 0.73238 0.04257 0.44327 0.0
C430 C 0.74602 0.03218 0.42278 0.0
C431 C 0.80438 0.05391 0.42983 0.0
C432 C 0.81281 0.05162 0.42036 0.0
N433 N 0.76246 0.04212 0.43132 0.0
N434 N 0.77606 0.0381 0.4159 0.0
H435 H 0.71252 0.02164 0.42168 0.0
H436 H 0.82691 0.06448 0.43524 0.0
C437 C 0.74351 0.13397 0.45072 0.0
O438 O 0.70327 0.12833 0.45378 0.0
N439 N 0.70475 0.04063 0.45562 0.0
C440 C 0.66854 0.01841 0.45835 0.0
C441 C 0.66666 0.01768 0.46801 0.0
C442 C 0.72568 0.05035 0.46375 0.0
N443 N 0.70275 0.03768 0.47139 0.0
C444 C 0.64288 0.07382 0.43924 0.0
C445 C 0.67157 0.14734 0.42965 0.0
C446 C 0.62774 0.14521 0.43243 0.0
C447 C 0.61277 0.10678 0.43684 0.0
C448 C 0.7003 0.11433 0.43229 0.0
N449 N 0.68668 0.07959 0.43766 0.0
H450 H 0.63089 0.04475 0.44262 0.0
H451 H 0.73452 0.1189 0.43062 0.0
H452 H 0.64707 1.00002 0.45379 0.0
H453 H 0.75805 0.06489 0.46403 0.0
O454 O 0.70902 0.98431 0.44049 0.0
O455 O 0.77175 0.99568 0.44773 0.0
O456 O 0.76365 0.10112 0.44684 0.0
C457 C 0.7433 0.96731 0.44448 0.0
H458 H 0.84339 0.06066 0.41704 0.0
H459 H 0.64239 1.0007 0.4722 0.0
H460 H 0.68425 0.17561 0.42591 0.0
H461 H 0.57873 0.10321 0.43886 0.0
Co462 Co 0.72576 0.98748 0.19462 0.0
C463 C 0.73487 0.99152 0.17336 0.0
C464 C 0.71384 0.0514 0.17981 0.0
C465 C 0.71441 0.05754 0.17028 0.0
N466 N 0.72579 1.00983 0.18181 0.0
N467 N 0.72739 0.01988 0.1662 0.0
H468 H 0.74627 0.95843 0.17233 0.0
H469 H 0.70485 0.07575 0.18497 0.0
C470 C 0.64137 0.03539 0.20259 0.0
O471 O 0.6566 0.04096 0.2111 0.0
N472 N 0.72617 0.96739 0.20757 0.0
C473 C 0.72513 0.9256 0.21067 0.0
C474 C 0.72848 0.92567 0.22029 0.0
C475 C 0.73226 0.99206 0.21534 0.0
N476 N 0.73265 0.96756 0.22327 0.0
C477 C 0.70717 0.90512 0.18523 0.0
C478 C 0.62421 0.89456 0.19269 0.0
C479 C 0.63935 0.86434 0.18613 0.0
C480 C 0.68159 0.86912 0.18246 0.0
C481 C 0.65056 0.92984 0.1952 0.0
N482 N 0.69059 0.93641 0.1911 0.0
H483 H 0.74062 0.90717 0.18283 0.0
H484 H 0.63917 0.95057 0.20078 0.0
H485 H 0.72285 0.89681 0.20627 0.0
H486 H 0.73619 0.02734 0.21515 0.0
O487 O 0.78364 0.96203 0.19302 0.0
O488 O 0.77392 0.0298 0.19766 0.0
O489 O 0.66654 0.02038 0.1961 0.0
C490 C 0.80171 0.99839 0.19564 0.0
H491 H 0.70608 0.08758 0.16664 0.0
H492 H 0.72871 0.89681 0.22472 0.0
H493 H 0.59242 0.89051 0.19599 0.0
H494 H 0.6949 0.84493 0.17769 0.0
Co495 Co 0.79924 0.97587 0.94433 0.0
C496 C 0.78897 0.9892 0.92344 0.0
C497 C 0.74896 0.93696 0.92875 0.0
C498 C 0.7434 0.93908 0.91924 0.0
N499 N 0.77843 0.96753 0.93146 0.0
N500 N 0.76882 0.97154 0.91585 0.0
H501 H 0.81152 0.0166 0.9231 0.0
H502 H 0.73201 0.91429 0.93325 0.0
C503 C 0.74399 0.89189 0.95076 0.0
O504 O 0.70835 0.91268 0.95338 0.0
N505 N 0.81795 0.98437 0.95716 0.0
C506 C 0.85607 1.00195 0.9601 0.0
C507 C 0.85505 1.0051 0.96973 0.0
C508 C 0.79407 0.9775 0.96499 0.0
N509 N 0.81599 0.98981 0.97282 0.0
C510 C 0.87873 0.9553 0.93387 0.0
C511 C 0.90438 0.88855 0.94582 0.0
C512 C 0.92795 0.89553 0.93757 0.0
C513 C 0.91533 0.92968 0.93158 0.0
C514 C 0.86775 0.91399 0.94771 0.0
N515 N 0.85414 0.94584 0.94161 0.0
H516 H 0.87028 0.98243 0.9294 0.0
H517 H 0.84978 0.90729 0.95408 0.0
H518 H 0.88253 1.01216 0.95555 0.0
H519 H 0.76081 0.96514 0.96491 0.0
O520 O 0.8168 0.03598 0.94149 0.0
O521 O 0.75131 0.01868 0.94668 0.0
O522 O 0.77667 0.91374 0.94755 0.0
C523 C 0.7787 0.04969 0.94414 0.0
H524 H 0.72206 0.91823 0.91511 0.0
H525 H 0.88118 0.01771 0.97411 0.0
H526 H 0.91334 0.86258 0.95065 0.0
H527 H 0.93361 0.93651 0.92523 0.0
Co528 Co 0.73211 0.5545 0.69402 0.0
C529 C 0.74426 0.54696 0.67297 0.0
C530 C 0.69984 0.49933 0.67864 0.0
C531 C 0.70015 0.49486 0.66909 0.0
N532 N 0.72629 0.53293 0.68115 0.0
N533 N 0.72775 0.52491 0.66551 0.0
H534 H 0.76823 0.57299 0.67239 0.0
H535 H 0.68112 0.479 0.68336 0.0
C536 C 0.64932 0.49622 0.70069 0.0
O537 O 0.66968 0.46394 0.70497 0.0
N538 N 0.73774 0.57382 0.70689 0.0
C539 C 0.74899 0.61416 0.70993 0.0
C540 C 0.74988 0.61376 0.71959 0.0
C541 C 0.73285 0.54923 0.71469 0.0
N542 N 0.7398 0.5729 0.72257 0.0
C543 C 0.7097 0.63406 0.68392 0.0
C544 C 0.63767 0.65371 0.69489 0.0
C545 C 0.64684 0.67975 0.68709 0.0
C546 C 0.68351 0.67014 0.68158 0.0
C547 C 0.66393 0.6177 0.69684 0.0
N548 N 0.69844 0.60702 0.69116 0.0
H549 H 0.73914 0.62837 0.67997 0.0
H550 H 0.65634 0.59841 0.70298 0.0
H551 H 0.75613 0.64186 0.70543 0.0
H552 H 0.72437 0.51477 0.71459 0.0
O553 O 0.79017 0.57744 0.69145 0.0
O554 O 0.77951 0.51037 0.69644 0.0
O555 O 0.67159 0.5271 0.69685 0.0
C556 C 0.80777 0.5409 0.69404 0.0
H557 H 0.68134 0.47135 0.66505 0.0
H558 H 0.75822 0.64123 0.72406 0.0
H559 H 0.60986 0.66069 0.69938 0.0
H560 H 0.69211 0.69061 0.67565 0.0
Co561 Co 0.73112 0.47766 0.94382 0.0
C562 C 0.7438 0.48743 0.92325 0.0
C563 C 0.80028 0.45991 0.9301 0.0
C564 C 0.80769 0.46022 0.92057 0.0
N565 N 0.76007 0.4764 0.93175 0.0
N566 N 0.77219 0.47744 0.91629 0.0
H567 H 0.71115 0.50039 0.92216 0.0
H568 H 0.82213 0.44727 0.93542 0.0
C569 C 0.73755 0.3855 0.95121 0.0
O570 O 0.69822 0.39462 0.95441 0.0
N571 N 0.705 0.48083 0.95629 0.0
C572 C 0.66948 0.50339 0.95927 0.0
C573 C 0.66919 0.50408 0.96894 0.0
C574 C 0.72706 0.47079 0.96425 0.0
N575 N 0.70557 0.4837 0.97204 0.0
C576 C 0.64017 0.45295 0.93981 0.0
C577 C 0.66234 0.37596 0.93072 0.0
C578 C 0.61871 0.38263 0.93334 0.0
C579 C 0.60722 0.42278 0.93748 0.0
C580 C 0.69392 0.40666 0.93322 0.0
N581 N 0.68328 0.44285 0.93843 0.0
H582 H 0.63086 0.48366 0.94288 0.0
H583 H 0.72767 0.39934 0.93154 0.0
H584 H 0.64753 0.52208 0.95489 0.0
H585 H 0.75921 0.45577 0.9643 0.0
O586 O 0.70883 0.53615 0.94108 0.0
O587 O 0.77199 0.52492 0.948 0.0
O588 O 0.75999 0.41719 0.94737 0.0
C589 C 0.74315 0.55343 0.94495 0.0
H590 H 0.83676 0.44829 0.91705 0.0
H591 H 0.64587 0.52128 0.97332 0.0
H592 H 0.67239 0.34623 0.92715 0.0
H593 H 0.57352 0.42994 0.93932 0.0
Co594 Co 0.78843 0.48489 0.1939 0.0
C595 C 0.78206 0.48925 0.17254 0.0
C596 C 0.79644 0.55052 0.17924 0.0
C597 C 0.7967 0.55713 0.16972 0.0
N598 N 0.78875 0.50769 0.18108 0.0
N599 N 0.7877 0.51864 0.16552 0.0
H600 H 0.77358 0.45551 0.17129 0.0
H601 H 0.80265 0.5752 0.18453 0.0
C602 C 0.88003 0.51834 0.19078 0.0
O603 O 0.8755 0.49994 0.18252 0.0
N604 N 0.78689 0.46547 0.20681 0.0
C605 C 0.77831 0.42478 0.21004 0.0
C606 C 0.77955 0.42562 0.2197 0.0
C607 C 0.79236 0.49067 0.21451 0.0
N608 N 0.78822 0.46708 0.2225 0.0
C609 C 0.81005 0.40279 0.18445 0.0
C610 C 0.88788 0.39038 0.19401 0.0
C611 C 0.87699 0.36178 0.18674 0.0
C612 C 0.83717 0.36743 0.18201 0.0
C613 C 0.86043 0.4253 0.19606 0.0
N614 N 0.82366 0.43331 0.19084 0.0
H615 H 0.77778 0.4048 0.18142 0.0
H616 H 0.86894 0.44608 0.20191 0.0
H617 H 0.77143 0.39657 0.20567 0.0
H618 H 0.79926 0.52552 0.21425 0.0
O619 O 0.73051 0.45972 0.19192 0.0
O620 O 0.74109 0.52723 0.19684 0.0
O621 O 0.84688 0.51858 0.1965 0.0
C622 C 0.71306 0.49632 0.19462 0.0
H623 H 0.80295 0.58785 0.16614 0.0
H624 H 0.77346 0.39807 0.22432 0.0
H625 H 0.91768 0.38596 0.19805 0.0
H626 H 0.82676 0.3443 0.17669 0.0
Co627 Co 0.79534 0.54182 0.44292 0.0
C628 C 0.78381 0.53388 0.42229 0.0
C629 C 0.72574 0.5575 0.42914 0.0
C630 C 0.71811 0.55608 0.41963 0.0
N631 N 0.76696 0.54391 0.43078 0.0
N632 N 0.75465 0.54132 0.41529 0.0
H633 H 0.81687 0.52191 0.4213 0.0
H634 H 0.7031 0.56847 0.43447 0.0
C635 C 0.78824 0.63313 0.45045 0.0
O636 O 0.82729 0.62415 0.45384 0.0
N637 N 0.82119 0.53752 0.45544 0.0
C638 C 0.85635 0.51401 0.45829 0.0
C639 C 0.85739 0.51297 0.46794 0.0
C640 C 0.79991 0.54771 0.46349 0.0
N641 N 0.8218 0.53412 0.47121 0.0
C642 C 0.88666 0.56684 0.43923 0.0
C643 C 0.86485 0.64408 0.43018 0.0
C644 C 0.90839 0.63736 0.43287 0.0
C645 C 0.91969 0.59712 0.43701 0.0
C646 C 0.83317 0.61328 0.43257 0.0
N647 N 0.8436 0.57686 0.43775 0.0
H648 H 0.89592 0.53608 0.44229 0.0
H649 H 0.79948 0.62064 0.43083 0.0
H650 H 0.8776 0.49506 0.45381 0.0
H651 H 0.7682 0.56361 0.46368 0.0
O652 O 0.8171 0.48339 0.44003 0.0
O653 O 0.75372 0.49549 0.44689 0.0
O654 O 0.76613 0.60154 0.44656 0.0
C655 C 0.78205 0.46676 0.44375 0.0
H656 H 0.68819 0.56639 0.4162 0.0
H657 H 0.88078 0.4952 0.47221 0.0
H658 H 0.85491 0.67387 0.42661 0.0
H659 H 0.95332 0.58992 0.43891 0.0
Co660 Co 0.73378 0.48373 0.81813 0.0
C661 C 0.74226 0.48641 0.83946 0.0
C662 C 0.72438 0.54757 0.83311 0.0
C663 C 0.72568 0.55341 0.84265 0.0
N664 N 0.73305 0.50519 0.83105 0.0
N665 N 0.73684 0.51498 0.84663 0.0
H666 H 0.75306 0.45314 0.84047 0.0
H667 H 0.71689 0.57259 0.82797 0.0
C668 C 0.6426 0.51783 0.82112 0.0
O669 O 0.64614 0.4978 0.82923 0.0
N670 N 0.7361 0.46545 0.80516 0.0
C671 C 0.74586 0.42515 0.80189 0.0
C672 C 0.74559 0.42643 0.79224 0.0
C673 C 0.73078 0.4909 0.79749 0.0
N674 N 0.73623 0.46779 0.78948 0.0
C675 C 0.70865 0.40158 0.82723 0.0
C676 C 0.63311 0.39027 0.81678 0.0
C677 C 0.6422 0.36085 0.82401 0.0
C678 C 0.68079 0.36613 0.82922 0.0
C679 C 0.66119 0.42537 0.81519 0.0
N680 N 0.69699 0.43256 0.82078 0.0
H681 H 0.74009 0.40306 0.83063 0.0
H682 H 0.65402 0.44691 0.80938 0.0
H683 H 0.75305 0.39693 0.80623 0.0
H684 H 0.72317 0.52557 0.79779 0.0
O685 O 0.79077 0.45712 0.8202 0.0
O686 O 0.78252 0.5254 0.81558 0.0
O687 O 0.67619 0.5187 0.81552 0.0
C688 C 0.80951 0.49353 0.81774 0.0
H689 H 0.71933 0.58368 0.84638 0.0
H690 H 0.75292 0.39926 0.78761 0.0
H691 H 0.60426 0.38635 0.81242 0.0
H692 H 0.68984 0.34249 0.83455 0.0
Co693 Co 0.79731 0.47858 0.06732 0.0
C694 C 0.79339 0.48789 0.08866 0.0
C695 C 0.73265 0.4704 0.08208 0.0
C696 C 0.72607 0.47148 0.09159 0.0
N697 N 0.77517 0.47909 0.08017 0.0
N698 N 0.7642 0.48243 0.09571 0.0
H699 H 0.82675 0.49798 0.08983 0.0
H700 H 0.70812 0.46275 0.07684 0.0
C701 C 0.7653 0.3865 0.07085 0.0
O702 O 0.78437 0.39198 0.07902 0.0
N703 N 0.81588 0.47937 0.05437 0.0
C704 C 0.85631 0.48779 0.051 0.0
C705 C 0.85464 0.48672 0.04134 0.0
C706 C 0.79002 0.47423 0.04677 0.0
N707 N 0.81293 0.47839 0.03871 0.0
C708 C 0.87951 0.45741 0.07669 0.0
C709 C 0.89293 0.38003 0.067 0.0
C710 C 0.92175 0.39139 0.07419 0.0
C711 C 0.91549 0.43092 0.079 0.0
C712 C 0.85729 0.40684 0.06509 0.0
N713 N 0.84904 0.44352 0.07033 0.0
H714 H 0.8771 0.48954 0.07978 0.0
H715 H 0.83624 0.39799 0.0593 0.0
H716 H 0.88485 0.49463 0.05526 0.0
H717 H 0.75514 0.46777 0.04715 0.0
O718 O 0.82292 0.53655 0.06901 0.0
O719 O 0.7551 0.52658 0.06437 0.0
O720 O 0.76382 0.4194 0.06503 0.0
C721 C 0.78655 0.55446 0.06634 0.0
H722 H 0.69558 0.46491 0.09522 0.0
H723 H 0.88174 0.49286 0.03662 0.0
H724 H 0.89773 0.35039 0.06293 0.0
H725 H 0.93868 0.44165 0.08428 0.0
Co726 Co 0.79565 0.54616 0.31789 0.0
C727 C 0.78749 0.53607 0.33859 0.0
C728 C 0.80901 0.47688 0.33182 0.0
C729 C 0.80783 0.46972 0.34135 0.0
N730 N 0.79669 0.51851 0.33011 0.0
N731 N 0.79446 0.50695 0.34561 0.0
H732 H 0.77741 0.56981 0.3396 0.0
H733 H 0.81874 0.45353 0.32651 0.0
C734 C 0.88667 0.53426 0.31022 0.0
O735 O 0.88039 0.57374 0.30676 0.0
N736 N 0.79266 0.57123 0.30529 0.0
C737 C 0.77139 0.60752 0.30228 0.0
C738 C 0.77041 0.60764 0.29263 0.0
C739 C 0.80159 0.54857 0.29735 0.0
N740 N 0.78931 0.57044 0.28953 0.0
C741 C 0.82236 0.63691 0.32161 0.0
C742 C 0.89989 0.61367 0.33036 0.0
C743 C 0.89336 0.65753 0.32786 0.0
C744 C 0.85304 0.66952 0.32387 0.0
C745 C 0.8686 0.58245 0.32797 0.0
N746 N 0.83205 0.59362 0.32293 0.0
H747 H 0.79137 0.64665 0.31874 0.0
H748 H 0.87531 0.5486 0.32971 0.0
H749 H 0.75376 0.63035 0.30665 0.0
H750 H 0.81549 0.5159 0.29732 0.0
O751 O 0.73772 0.56987 0.32063 0.0
O752 O 0.74817 0.50565 0.314 0.0
O753 O 0.85425 0.51468 0.3144 0.0
C754 C 0.72017 0.53498 0.31701 0.0
H755 H 0.81606 0.43931 0.34485 0.0
H756 H 0.75407 0.63161 0.28824 0.0
H757 H 0.92971 0.60322 0.33384 0.0
H758 H 0.84598 0.70342 0.32214 0.0
Co759 Co 0.74077 0.5398 0.5673 0.0
C760 C 0.74205 0.53744 0.58874 0.0
C761 C 0.8052 0.53592 0.58215 0.0
C762 C 0.81131 0.53636 0.59168 0.0
N763 N 0.7619 0.53757 0.58022 0.0
N764 N 0.77169 0.53746 0.59582 0.0
H765 H 0.70719 0.5382 0.58987 0.0
H766 H 0.83079 0.53548 0.5769 0.0
C767 C 0.78425 0.62736 0.57076 0.0
O768 O 0.76727 0.62312 0.57916 0.0
N769 N 0.72254 0.54006 0.5543 0.0
C770 C 0.68137 0.5353 0.55102 0.0
C771 C 0.68246 0.53681 0.54138 0.0
C772 C 0.74828 0.54353 0.54663 0.0
N773 N 0.72451 0.54187 0.53862 0.0
C774 C 0.65931 0.5728 0.57589 0.0
C775 C 0.66205 0.65108 0.56612 0.0
C776 C 0.62769 0.64448 0.57246 0.0
C777 C 0.62618 0.60433 0.57735 0.0
C778 C 0.69234 0.61836 0.56459 0.0
N779 N 0.69351 0.58138 0.56998 0.0
H780 H 0.65644 0.54107 0.57921 0.0
H781 H 0.71499 0.62286 0.55889 0.0
H782 H 0.65258 0.53093 0.55535 0.0
H783 H 0.78355 0.54738 0.54692 0.0
O784 O 0.70889 0.485 0.56919 0.0
O785 O 0.7775 0.4873 0.56462 0.0
O786 O 0.78116 0.5946 0.56493 0.0
C787 C 0.74338 0.46307 0.56671 0.0
H788 H 0.84253 0.53581 0.59529 0.0
H789 H 0.65456 0.53345 0.53674 0.0
H790 H 0.66557 0.68111 0.56214 0.0
H791 H 0.59917 0.59678 0.58201 0.0
Co792 Co 0.2959 0.48995 0.31769 0.0
C793 C 0.28813 0.49932 0.3384 0.0
C794 C 0.31351 0.55747 0.3318 0.0
C795 C 0.31397 0.56365 0.34135 0.0
N796 N 0.29787 0.51701 0.32996 0.0
N797 N 0.29807 0.52713 0.34549 0.0
H798 H 0.27596 0.46621 0.33936 0.0
H799 H 0.32495 0.58044 0.32655 0.0
C800 C 0.38653 0.5022 0.3098 0.0
O801 O 0.37994 0.46301 0.30622 0.0
N802 N 0.29222 0.46557 0.30504 0.0
C803 C 0.27206 0.4287 0.30198 0.0
C804 C 0.27098 0.42899 0.29232 0.0
C805 C 0.30031 0.4889 0.29713 0.0
N806 N 0.28865 0.46695 0.28929 0.0
C807 C 0.32189 0.39894 0.32136 0.0
C808 C 0.40045 0.42145 0.32978 0.0
C809 C 0.39314 0.3776 0.32736 0.0
C810 C 0.35231 0.366 0.32354 0.0
C811 C 0.36942 0.45297 0.32747 0.0
N812 N 0.33235 0.44216 0.32256 0.0
H813 H 0.29039 0.38951 0.31869 0.0
H814 H 0.37664 0.48674 0.32918 0.0
H815 H 0.25534 0.40501 0.3063 0.0
H816 H 0.31336 0.52197 0.29714 0.0
O817 O 0.23802 0.46617 0.3205 0.0
O818 O 0.24837 0.53072 0.31399 0.0
O819 O 0.35439 0.52151 0.31411 0.0
C820 C 0.22041 0.50124 0.317 0.0
H821 H 0.3254 0.59266 0.345 0.0
H822 H 0.25552 0.40463 0.28788 0.0
H823 H 0.43061 0.43163 0.33317 0.0
H824 H 0.34456 0.33214 0.32191 0.0
Co825 Co 0.28489 0.53608 0.06889 0.0
C826 C 0.27409 0.52615 0.08951 0.0
C827 C 0.21567 0.55023 0.08282 0.0
C828 C 0.20894 0.54972 0.09237 0.0
N829 N 0.25666 0.53607 0.08105 0.0
N830 N 0.24565 0.53467 0.09656 0.0
H831 H 0.30751 0.51512 0.09051 0.0
H832 H 0.19277 0.56148 0.07756 0.0
C833 C 0.27202 0.62685 0.06123 0.0
O834 O 0.31173 0.62109 0.05789 0.0
N835 N 0.31037 0.53391 0.05632 0.0
C836 C 0.34731 0.5138 0.05332 0.0
C837 C 0.34768 0.51328 0.04366 0.0
C838 C 0.2876 0.54237 0.04836 0.0
N839 N 0.31001 0.53115 0.04055 0.0
C840 C 0.37463 0.5671 0.07258 0.0
C841 C 0.34733 0.64172 0.08193 0.0
C842 C 0.39116 0.63852 0.07921 0.0
C843 C 0.40539 0.59958 0.07492 0.0
C844 C 0.31797 0.60908 0.07937 0.0
N845 N 0.33095 0.57387 0.07409 0.0
H846 H 0.38606 0.53735 0.06942 0.0
H847 H 0.2839 0.61401 0.08111 0.0
H848 H 0.37053 0.4967 0.0577 0.0
H849 H 0.25453 0.55525 0.04829 0.0
O850 O 0.30993 0.47876 0.07165 0.0
O851 O 0.24578 0.48773 0.06489 0.0
O852 O 0.25253 0.59414 0.06535 0.0
C853 C 0.27562 0.46043 0.06797 0.0
H854 H 0.17949 0.5601 0.09597 0.0
H855 H 0.37224 0.49799 0.03926 0.0
H856 H 0.33522 0.67036 0.08561 0.0
H857 H 0.43941 0.59513 0.07297 0.0
Co858 Co 0.23381 0.55234 0.81937 0.0
C859 C 0.24147 0.54432 0.84067 0.0
C860 C 0.22908 0.48387 0.83347 0.0
C861 C 0.23095 0.47528 0.84291 0.0
N862 N 0.23447 0.5273 0.832 0.0
N863 N 0.23862 0.51328 0.84744 0.0
H864 H 0.24854 0.57817 0.84215 0.0
H865 H 0.22365 0.45996 0.82798 0.0
C866 C 0.14313 0.51637 0.82233 0.0
O867 O 0.14768 0.53295 0.83077 0.0
N868 N 0.2346 0.57434 0.80667 0.0
C869 C 0.24626 0.61482 0.80382 0.0
C870 C 0.24552 0.61584 0.79416 0.0
C871 C 0.22727 0.55118 0.79877 0.0
N872 N 0.23366 0.57575 0.79097 0.0
C873 C 0.21151 0.63266 0.82934 0.0
C874 C 0.13367 0.64614 0.81984 0.0
C875 C 0.14502 0.67446 0.82712 0.0
C876 C 0.18474 0.66815 0.83185 0.0
C877 C 0.16081 0.61103 0.81772 0.0
N878 N 0.19775 0.60265 0.82286 0.0
H879 H 0.24383 0.63038 0.83235 0.0
H880 H 0.15222 0.59076 0.8118 0.0
H881 H 0.25559 0.64141 0.80843 0.0
H882 H 0.218 0.51689 0.79878 0.0
O883 O 0.29114 0.57829 0.82148 0.0
O884 O 0.2821 0.51152 0.81601 0.0
O885 O 0.17604 0.51798 0.81657 0.0
C886 C 0.30944 0.54271 0.81843 0.0
H887 H 0.22753 0.44338 0.84618 0.0
H888 H 0.25462 0.64363 0.78985 0.0
H889 H 0.10396 0.65114 0.8158 0.0
H890 H 0.1955 0.69106 0.83718 0.0
Co891 Co 0.23959 0.49255 0.56809 0.0
C892 C 0.23902 0.49551 0.58945 0.0
C893 C 0.30292 0.49156 0.58323 0.0
C894 C 0.30773 0.49051 0.59279 0.0
N895 N 0.25985 0.49337 0.58106 0.0
N896 N 0.26764 0.49297 0.59668 0.0
H897 H 0.20414 0.49824 0.5904 0.0
H898 H 0.3291 0.48985 0.57813 0.0
C899 C 0.2811 0.40396 0.57137 0.0
O900 O 0.26242 0.40729 0.57962 0.0
N901 N 0.22184 0.49357 0.55507 0.0
C902 C 0.18111 0.50132 0.55182 0.0
C903 C 0.18192 0.49956 0.54218 0.0
C904 C 0.2471 0.48786 0.54739 0.0
N905 N 0.22338 0.49114 0.53939 0.0
C906 C 0.15701 0.46057 0.5763 0.0
C907 C 0.15835 0.38321 0.56621 0.0
C908 C 0.12367 0.39025 0.57243 0.0
C909 C 0.1229 0.42984 0.5775 0.0
C910 C 0.18981 0.41513 0.56495 0.0
N911 N 0.19145 0.45162 0.57048 0.0
H912 H 0.15455 0.49211 0.57969 0.0
H913 H 0.21292 0.41046 0.55935 0.0
H914 H 0.15281 0.50784 0.55616 0.0
H915 H 0.28193 0.48117 0.54767 0.0
O916 O 0.20849 0.54758 0.57008 0.0
O917 O 0.27731 0.54476 0.56568 0.0
O918 O 0.27927 0.43734 0.56566 0.0
C919 C 0.2434 0.56925 0.56775 0.0
H920 H 0.33832 0.48816 0.59662 0.0
H921 H 0.15424 0.50498 0.53757 0.0
H922 H 0.16111 0.35351 0.56209 0.0
H923 H 0.09567 0.43765 0.58208 0.0
Co924 Co 0.28985 0.54399 0.19385 0.0
C925 C 0.27918 0.53252 0.17324 0.0
C926 C 0.30365 0.47437 0.17999 0.0
C927 C 0.30237 0.46708 0.17047 0.0
N928 N 0.28971 0.51552 0.18171 0.0
N929 N 0.28705 0.5036 0.16625 0.0
H930 H 0.26788 0.56585 0.17219 0.0
H931 H 0.31503 0.45163 0.18528 0.0
C932 C 0.38025 0.53013 0.20154 0.0
O933 O 0.37486 0.57 0.20485 0.0
N934 N 0.2878 0.56967 0.2064 0.0
C935 C 0.26803 0.60683 0.20939 0.0
C936 C 0.26754 0.60726 0.21905 0.0
C937 C 0.29606 0.54684 0.21436 0.0
N938 N 0.28507 0.5694 0.22216 0.0
C939 C 0.32194 0.63334 0.19015 0.0
C940 C 0.39601 0.60549 0.18071 0.0
C941 C 0.39307 0.64956 0.18334 0.0
C942 C 0.35442 0.66393 0.18773 0.0
C943 C 0.36339 0.57625 0.18338 0.0
N944 N 0.32835 0.58956 0.18866 0.0
H945 H 0.29236 0.64503 0.19333 0.0
H946 H 0.36804 0.54207 0.18166 0.0
H947 H 0.25116 0.63022 0.20501 0.0
H948 H 0.30865 0.51363 0.21443 0.0
O949 O 0.23327 0.57003 0.19102 0.0
O950 O 0.24045 0.5057 0.1978 0.0
O951 O 0.34736 0.51086 0.19745 0.0
C952 C 0.21397 0.5362 0.19467 0.0
H953 H 0.3122 0.43729 0.16691 0.0
H954 H 0.25249 0.63199 0.22345 0.0
H955 H 0.42424 0.59314 0.17694 0.0
H956 H 0.35003 0.69805 0.18964 0.0
Co957 Co 0.23647 0.53695 0.94491 0.0
C958 C 0.24833 0.52786 0.92429 0.0
C959 C 0.30748 0.54767 0.93129 0.0
C960 C 0.31525 0.54659 0.9218 0.0
N961 N 0.26548 0.53639 0.93284 0.0
N962 N 0.27802 0.5343 0.91734 0.0
H963 H 0.21452 0.51827 0.92323 0.0
H964 H 0.33048 0.55731 0.93669 0.0
C965 C 0.24926 0.62791 0.95245 0.0
O966 O 0.20944 0.62221 0.95574 0.0
N967 N 0.2103 0.53517 0.95742 0.0
C968 C 0.17333 0.51485 0.96035 0.0
C969 C 0.17264 0.51423 0.97002 0.0
C970 C 0.23279 0.54367 0.96542 0.0
N971 N 0.21018 0.53224 0.97318 0.0
C972 C 0.14715 0.56942 0.94114 0.0
C973 C 0.17613 0.64261 0.93147 0.0
C974 C 0.13228 0.64072 0.93424 0.0
C975 C 0.11718 0.60249 0.93871 0.0
C976 C 0.20471 0.60956 0.93415 0.0
N977 N 0.19096 0.57494 0.93954 0.0
H978 H 0.135 0.54034 0.94448 0.0
H979 H 0.2389 0.6138 0.93243 0.0
H980 H 0.15035 0.49762 0.95593 0.0
H981 H 0.26588 0.55657 0.96553 0.0
O982 O 0.21145 0.47944 0.94218 0.0
O983 O 0.27522 0.48871 0.9491 0.0
O984 O 0.26887 0.59508 0.94843 0.0
C985 C 0.24557 0.46125 0.94597 0.0
H986 H 0.34578 0.55575 0.91847 0.0
H987 H 0.14804 0.49868 0.97437 0.0
H988 H 0.18894 0.6706 0.92766 0.0
H989 H 0.08311 0.59904 0.94073 0.0
Co990 Co 0.23427 0.48926 0.69501 0.0
C991 C 0.23973 0.48723 0.67367 0.0
C992 C 0.22723 0.55071 0.67959 0.0
C993 C 0.22699 0.55465 0.67001 0.0
N994 N 0.23361 0.50825 0.68195 0.0
N995 N 0.23483 0.51484 0.66632 0.0
H996 H 0.24753 0.45297 0.6729 0.0
H997 H 0.22204 0.57701 0.68455 0.0
C998 C 0.14341 0.52489 0.69163 0.0
O999 O 0.14726 0.50407 0.68362 0.0
N1000 N 0.23688 0.47286 0.7081 0.0
C1001 C 0.24871 0.43319 0.7114 0.0
C1002 C 0.24987 0.43496 0.72103 0.0
C1003 C 0.23118 0.49842 0.71573 0.0
N1004 N 0.23902 0.47598 0.72376 0.0
C1005 C 0.2042 0.40504 0.68695 0.0
C1006 C 0.12882 0.40366 0.69769 0.0
C1007 C 0.13527 0.36978 0.69123 0.0
C1008 C 0.17398 0.37032 0.68585 0.0
C1009 C 0.16015 0.43585 0.69879 0.0
N1010 N 0.19554 0.43882 0.69297 0.0
H1011 H 0.235 0.40364 0.68328 0.0
H1012 H 0.15536 0.45912 0.70438 0.0
H1013 H 0.25644 0.40505 0.70709 0.0
H1014 H 0.22284 0.53292 0.7154 0.0
O1015 O 0.29106 0.46099 0.69315 0.0
O1016 O 0.2842 0.53013 0.69716 0.0
O1017 O 0.17702 0.52623 0.69728 0.0
C1018 C 0.31064 0.49735 0.69536 0.0
H1019 H 0.22167 0.58446 0.66603 0.0
H1020 H 0.25809 0.40802 0.72565 0.0
H1021 H 0.09973 0.40566 0.70201 0.0
H1022 H 0.1814 0.34379 0.68106 0.0
Co1023 Co 0.30019 0.48827 0.44355 0.0
C1024 C 0.29432 0.49687 0.42226 0.0
C1025 C 0.23436 0.47785 0.42895 0.0
C1026 C 0.22733 0.47896 0.41944 0.0
N1027 N 0.27677 0.48744 0.43077 0.0
N1028 N 0.26501 0.49084 0.41525 0.0
H1029 H 0.32728 0.5081 0.42106 0.0
H1030 H 0.21021 0.46976 0.43423 0.0
C1031 C 0.26794 0.39609 0.44062 0.0
O1032 O 0.28647 0.40047 0.43236 0.0
N1033 N 0.32063 0.49052 0.45638 0.0
C1034 C 0.36105 0.50178 0.45934 0.0
C1035 C 0.36152 0.50108 0.469 0.0
C1036 C 0.29685 0.4838 0.46423 0.0
N1037 N 0.32113 0.48989 0.47207 0.0
C1038 C 0.38173 0.46658 0.43387 0.0
C1039 C 0.3961 0.39012 0.44385 0.0
C1040 C 0.42408 0.40062 0.43645 0.0
C1041 C 0.41737 0.43972 0.4315 0.0
C1042 C 0.36078 0.41722 0.44581 0.0
N1043 N 0.35194 0.45338 0.44044 0.0
H1044 H 0.37909 0.49842 0.43066 0.0
H1045 H 0.34034 0.40891 0.45173 0.0
H1046 H 0.38811 0.51037 0.4548 0.0
H1047 H 0.2625 0.4748 0.46417 0.0
O1048 O 0.32433 0.54667 0.44146 0.0
O1049 O 0.25735 0.53492 0.44657 0.0
O1050 O 0.26735 0.42945 0.44629 0.0
C1051 C 0.28763 0.5635 0.44429 0.0
H1052 H 0.19676 0.47193 0.41588 0.0
H1053 H 0.38917 0.50943 0.47342 0.0
H1054 H 0.40125 0.36086 0.44803 0.0
H1055 H 0.43997 0.44985 0.42606 0.0
H1056 H 0.24561 0.9159 0.27463 0.0
H1057 H 0.23523 0.05026 0.28401 0.0
H1058 H 0.24222 0.94053 0.25838 0.0
H1059 H 0.23048 0.07476 0.26778 0.0
H1060 H 0.27802 0.10579 0.238 0.0
H1061 H 0.27791 0.08105 0.25417 0.0
H1062 H 0.19349 0.97274 0.24665 0.0
H1063 H 0.19328 0.99772 0.23039 0.0
C1064 C 0.24253 0.9507 0.27324 0.0
C1065 C 0.24096 0.98102 0.28068 0.0
C1066 C 0.24009 0.9648 0.2639 0.0
C1067 C 0.2362 1.00969 0.26173 0.0
C1068 C 0.234 0.03998 0.26917 0.0
C1069 C 0.23624 0.02585 0.27851 0.0
C1070 C 0.25891 0.07702 0.23975 0.0
C1071 C 0.23548 0.05399 0.2328 0.0
C1072 C 0.25888 0.06278 0.24908 0.0
C1073 C 0.23555 0.02496 0.25177 0.0
C1074 C 0.21223 1.00173 0.24483 0.0
C1075 C 0.21214 0.01608 0.23548 0.0
H1076 H 0.18558 0.05047 0.48663 0.0
H1077 H 0.26196 0.93477 0.48042 0.0
H1078 H 0.20763 0.04602 0.50296 0.0
H1079 H 0.28407 0.93024 0.49685 0.0
H1080 H 0.35305 0.96681 0.52451 0.0
H1081 H 0.32898 0.96735 0.50826 0.0
H1082 H 0.1986 1.00384 0.51713 0.0
H1083 H 0.22321 1.00495 0.5334 0.0
C1084 C 0.20669 0.02372 0.48874 0.0
C1085 C 0.22187 0.99293 0.48214 0.0
C1086 C 0.21933 0.02114 0.49816 0.0
C1087 C 0.24757 0.98769 0.50129 0.0
C1088 C 0.26275 0.95682 0.4947 0.0
C1089 C 0.25009 0.95942 0.48525 0.0
C1090 C 0.31929 0.97521 0.52302 0.0
C1091 C 0.29026 0.98625 0.53033 0.0
C1092 C 0.30531 0.97499 0.51367 0.0
C1093 C 0.26183 0.98579 0.51132 0.0
C1094 C 0.2325 0.99593 0.51864 0.0
C1095 C 0.2465 0.99609 0.52801 0.0
H1096 H 0.2353 0.923 0.73827 0.0
H1097 H 0.33047 0.02205 0.73062 0.0
H1098 H 0.23867 0.9472 0.75445 0.0
H1099 H 0.33317 0.04661 0.74687 0.0
H1100 H 0.28591 0.10903 0.77474 0.0
H1101 H 0.28667 0.08369 0.75852 0.0
H1102 H 0.28771 0.94924 0.76812 0.0
H1103 H 0.28607 0.97465 0.78435 0.0
C1104 C 0.25727 0.94968 0.73998 0.0
C1105 C 0.28254 0.97044 0.73298 0.0
C1106 C 0.25918 0.9636 0.74933 0.0
C1107 C 0.28619 0.99889 0.75201 0.0
C1108 C 0.31155 0.01967 0.74506 0.0
C1109 C 0.3099 1.00556 0.7357 0.0
C1110 C 0.28618 0.07405 0.7734 0.0
C1111 C 0.28574 0.04396 0.78089 0.0
C1112 C 0.28706 0.0595 0.76408 0.0
C1113 C 0.28717 0.01437 0.76197 0.0
C1114 C 0.2872 0.98423 0.76947 0.0
C1115 C 0.28672 0.99882 0.7788 0.0
H1116 H 0.34214 0.97925 0.98801 0.0
H1117 H 0.24693 0.07849 0.98056 0.0
H1118 H 0.31803 0.9825 1.00416 0.0
H1119 H 0.22233 0.08094 0.99682 0.0
H1120 H 0.15971 0.03351 0.0249 0.0
H1121 H 0.18395 0.03442 0.00857 0.0
H1122 H 0.31886 0.0322 0.01776 0.0
H1123 H 0.29462 0.03051 0.03406 0.0
C1124 C 0.31632 1.0021 0.98975 0.0
C1125 C 0.29674 0.02868 0.98282 0.0
C1126 C 0.30244 1.0039 0.99909 0.0
C1127 C 0.2683 0.03206 1.00184 0.0
C1128 C 0.24843 0.05851 0.99495 0.0
C1129 C 0.26258 0.05701 0.98558 0.0
C1130 C 0.19454 0.03312 0.02343 0.0
C1131 C 0.22514 0.03178 0.03082 0.0
C1132 C 0.20846 0.03407 0.01407 0.0
C1133 C 0.25339 0.03326 0.01182 0.0
C1134 C 0.28399 0.03241 0.01922 0.0
C1135 C 0.27008 0.03188 0.02858 0.0
H1136 H 0.79659 0.89912 0.77654 0.0
H1137 H 0.77981 0.03511 0.78408 0.0
H1138 H 0.79999 0.91952 0.76 0.0
H1139 H 0.78141 0.05567 0.76761 0.0
H1140 H 0.82238 0.08775 0.73817 0.0
H1141 H 0.82517 0.0645 0.75447 0.0
H1142 H 0.75953 0.94344 0.74704 0.0
H1143 H 0.75871 0.96642 0.73062 0.0
C1144 C 0.79332 0.93338 0.77464 0.0
C1145 C 0.78816 0.96549 0.78163 0.0
C1146 C 0.79505 0.94516 0.76514 0.0
C1147 C 0.79106 0.98938 0.76236 0.0
C1148 C 0.78569 0.0214 0.76941 0.0
C1149 C 0.7846 1.00965 0.7789 0.0
C1150 C 0.80871 0.0561 0.74003 0.0
C1151 C 0.79011 0.02902 0.73312 0.0
C1152 C 0.81 0.04279 0.74941 0.0
C1153 C 0.79203 1.00221 0.75221 0.0
C1154 C 0.77421 0.97466 0.74522 0.0
C1155 C 0.77358 0.98779 0.73578 0.0
H1156 H 0.65019 0.0476 0.48651 0.0
H1157 H 0.78548 0.03324 0.47831 0.0
H1158 H 0.67227 0.0513 0.50294 0.0
H1159 H 0.80774 0.0352 0.49467 0.0
H1160 H 0.8417 0.07742 0.52401 0.0
H1161 H 0.81704 0.07931 0.50779 0.0
H1162 H 0.69834 1.01093 0.51574 0.0
H1163 H 0.7227 1.0109 0.53206 0.0
C1164 C 0.68466 0.04493 0.48824 0.0
C1165 C 0.71606 0.04036 0.4811 0.0
C1166 C 0.69741 0.04683 0.49768 0.0
C1167 C 0.74194 0.04361 0.50024 0.0
C1168 C 0.77326 0.03884 0.49304 0.0
C1169 C 0.76053 0.03757 0.48362 0.0
C1170 C 0.8103 0.0629 0.52228 0.0
C1171 C 0.78425 0.04383 0.52931 0.0
C1172 C 0.79617 0.0637 0.51295 0.0
C1173 C 0.75578 0.0448 0.51033 0.0
C1174 C 0.72934 0.02637 0.51743 0.0
C1175 C 0.74328 0.02619 0.52681 0.0
H1176 H 0.68446 0.02311 0.28224 0.0
H1177 H 0.80795 0.08679 0.27634 0.0
H1178 H 0.68015 0.99846 0.26599 0.0
H1179 H 0.80407 0.06181 0.26017 0.0
H1180 H 0.76367 0.04633 0.22957 0.0
H1181 H 0.76627 0.07218 0.24569 0.0
H1182 H 0.71234 0.94862 0.25512 0.0
H1183 H 0.70768 0.92363 0.23901 0.0
C1184 C 0.71087 0.03155 0.2775 0.0
C1185 C 0.74646 0.05705 0.28063 0.0
C1186 C 0.70848 0.01736 0.26817 0.0
C1187 C 0.74176 0.02809 0.26171 0.0
C1188 C 0.77739 0.05354 0.26486 0.0
C1189 C 0.77966 0.06788 0.27417 0.0
C1190 C 0.75196 0.02473 0.23504 0.0
C1191 C 0.73549 0.98272 0.23288 0.0
C1192 C 0.75392 0.03943 0.24434 0.0
C1193 C 0.73955 1.01256 0.25177 0.0
C1194 C 0.7232 0.97055 0.24961 0.0
C1195 C 0.72112 0.95591 0.24033 0.0
H1196 H 0.75317 0.93635 0.98015 0.0
H1197 H 0.84364 0.04018 0.9874 0.0
H1198 H 0.72765 0.93396 0.99635 0.0
H1199 H 0.81823 0.03776 1.00354 0.0
H1200 H 0.79394 0.99309 0.03355 0.0
H1201 H 0.81979 0.99212 0.01741 0.0
H1202 H 0.6865 0.97655 0.00768 0.0
H1203 H 0.66083 0.97588 0.02384 0.0
C1204 C 0.76744 0.9589 0.98516 0.0
C1205 C 0.80063 0.98838 0.98242 0.0
C1206 C 0.75279 0.95752 0.99447 0.0
C1207 C 0.77094 0.98557 1.00129 0.0
C1208 C 0.80404 0.01508 0.99854 0.0
C1209 C 0.81865 0.01648 0.98924 0.0
C1210 C 0.77014 0.98892 0.028 0.0
C1211 C 0.7252 0.98466 0.03006 0.0
C1212 C 0.78494 0.98888 0.01871 0.0
C1213 C 0.75526 0.98446 0.01121 0.0
C1214 C 0.71039 0.97965 0.01326 0.0
C1215 C 0.69558 0.97979 0.02255 0.0
H1216 H 0.71716 0.6204 0.73787 0.0
H1217 H 0.75771 0.49118 0.72908 0.0
H1218 H 0.71419 0.59545 0.75408 0.0
H1219 H 0.756 0.46626 0.74531 0.0
H1220 H 0.71076 0.42247 0.7741 0.0
H1221 H 0.70979 0.44808 0.75793 0.0
H1222 H 0.7578 0.57476 0.767 0.0
H1223 H 0.75748 0.5492 0.7832 0.0
C1224 C 0.72584 0.58672 0.73942 0.0
C1225 C 0.73768 0.55781 0.73217 0.0
C1226 C 0.72428 0.57237 0.74874 0.0
C1227 C 0.73492 0.52875 0.75109 0.0
C1228 C 0.74675 0.49985 0.7438 0.0
C1229 C 0.74787 0.51413 0.73447 0.0
C1230 C 0.72115 0.45577 0.77263 0.0
C1231 C 0.7343 0.48374 0.77994 0.0
C1232 C 0.72078 0.47048 0.76333 0.0
C1233 C 0.73399 0.51352 0.76107 0.0
C1234 C 0.74674 0.54164 0.76843 0.0
C1235 C 0.74666 0.527 0.77775 0.0
H1236 H 0.78922 0.49032 0.97826 0.0
H1237 H 0.65599 0.47126 0.9875 0.0
H1238 H 0.81448 0.48816 0.99443 0.0
H1239 H 0.68107 0.46699 1.00372 0.0
H1240 H 0.73401 0.50674 0.03247 0.0
H1241 H 0.70769 0.50735 0.01633 0.0
H1242 H 0.82778 0.44447 0.00741 0.0
H1243 H 0.85447 0.44596 0.02351 0.0
C1244 C 0.76541 0.4849 0.98376 0.0
C1245 C 0.72063 0.4809 0.98161 0.0
C1246 C 0.77986 0.48347 0.99307 0.0
C1247 C 0.74998 0.47725 1.00049 0.0
C1248 C 0.70513 0.47269 0.99828 0.0
C1249 C 0.69065 0.47488 0.98897 0.0
C1250 C 0.75453 0.49282 0.02705 0.0
C1251 C 0.79635 0.47648 0.02924 0.0
C1252 C 0.73944 0.49297 0.01777 0.0
C1253 C 0.76553 0.47609 0.01046 0.0
C1254 C 0.80703 0.45877 0.01275 0.0
C1255 C 0.82234 0.45933 0.022 0.0
H1256 H 0.80243 0.62027 0.27412 0.0
H1257 H 0.78096 0.48696 0.28319 0.0
H1258 H 0.80496 0.59588 0.25785 0.0
H1259 H 0.78145 0.46239 0.26694 0.0
H1260 H 0.82015 0.42334 0.23751 0.0
H1261 H 0.82318 0.44865 0.25369 0.0
H1262 H 0.76305 0.57117 0.24534 0.0
H1263 H 0.76205 0.54617 0.22911 0.0
C1264 C 0.79792 0.58573 0.2726 0.0
C1265 C 0.79162 0.55556 0.27993 0.0
C1266 C 0.79909 0.57165 0.26326 0.0
C1267 C 0.79326 0.52701 0.26097 0.0
C1268 C 0.787 0.49687 0.26836 0.0
C1269 C 0.78654 0.51092 0.27771 0.0
C1270 C 0.80767 0.45569 0.23916 0.0
C1271 C 0.79087 0.48274 0.23203 0.0
C1272 C 0.80913 0.47023 0.24846 0.0
C1273 C 0.79313 0.51204 0.25095 0.0
C1274 C 0.77648 0.53914 0.24376 0.0
C1275 C 0.77571 0.5248 0.23442 0.0
H1276 H 0.80082 0.50927 0.53182 0.0
H1277 H 0.68347 0.57853 0.52377 0.0
H1278 H 0.82474 0.50815 0.51549 0.0
H1279 H 0.70779 0.57928 0.50752 0.0
H1280 H 0.73873 0.53255 0.47799 0.0
H1281 H 0.71614 0.53539 0.49435 0.0
H1282 H 0.85191 0.54774 0.50276 0.0
H1283 H 0.87419 0.54307 0.48638 0.0
C1284 C 0.78051 0.52491 0.52656 0.0
C1285 C 0.74016 0.54374 0.52907 0.0
C1286 C 0.79421 0.52444 0.51718 0.0
C1287 C 0.7682 0.54342 0.51007 0.0
C1288 C 0.72834 0.5633 0.51269 0.0
C1289 C 0.7144 0.56315 0.52203 0.0
C1290 C 0.76366 0.53621 0.48334 0.0
C1291 C 0.80825 0.53757 0.48089 0.0
C1292 C 0.75076 0.538 0.49276 0.0
C1293 C 0.78208 0.54189 0.49999 0.0
C1294 C 0.82673 0.54387 0.49748 0.0
C1295 C 0.83961 0.54142 0.48807 0.0
H1296 H 0.27232 0.54911 0.28296 0.0
H1297 H 0.3088 0.4192 0.27399 0.0
H1298 H 0.27155 0.5739 0.26672 0.0
H1299 H 0.31087 0.44403 0.25776 0.0
H1300 H 0.26894 0.48756 0.22869 0.0
H1301 H 0.27006 0.46317 0.24494 0.0
H1302 H 0.31014 0.59339 0.25359 0.0
H1303 H 0.30619 0.61786 0.23733 0.0
C1304 C 0.28097 0.52608 0.27749 0.0
C1305 C 0.29053 0.48223 0.27972 0.0
C1306 C 0.28078 0.54026 0.26814 0.0
C1307 C 0.2911 0.51115 0.26077 0.0
C1308 C 0.30164 0.4674 0.26311 0.0
C1309 C 0.30084 0.45307 0.27244 0.0
C1310 C 0.27813 0.51079 0.23409 0.0
C1311 C 0.28745 0.55459 0.23175 0.0
C1312 C 0.27907 0.49682 0.24345 0.0
C1313 C 0.29031 0.52609 0.25073 0.0
C1314 C 0.30034 0.56988 0.2483 0.0
C1315 C 0.29843 0.584 0.23896 0.0
H1316 H 0.22822 0.51526 0.03397 0.0
H1317 H 0.3586 0.55202 0.0254 0.0
H1318 H 0.20422 0.51573 0.01768 0.0
H1319 H 0.33456 0.55537 0.00912 0.0
H1320 H 0.29189 0.51629 0.97978 0.0
H1321 H 0.31577 0.51624 0.99607 0.0
H1322 H 0.18533 0.55511 1.00466 0.0
H1323 H 0.1614 0.55229 0.98836 0.0
C1324 C 0.25154 0.52423 0.02858 0.0
C1325 C 0.29528 0.53353 0.03095 0.0
C1326 C 0.23781 0.52477 0.0192 0.0
C1327 C 0.26725 0.53561 0.01192 0.0
C1328 C 0.31092 0.54579 0.01439 0.0
C1329 C 0.3248 0.54425 0.02375 0.0
C1330 C 0.26851 0.52499 0.98517 0.0
C1331 C 0.22479 0.53426 0.9828 0.0
C1332 C 0.28218 0.52523 0.99456 0.0
C1333 C 0.25269 0.53572 1.00184 0.0
C1334 C 0.20902 0.54582 0.99938 0.0
C1335 C 0.1952 0.54458 0.99001 0.0
H1336 H 0.18815 0.54145 0.73078 0.0
H1337 H 0.28745 0.44706 0.73841 0.0
H1338 H 0.18431 0.56596 0.7471 0.0
H1339 H 0.28412 0.4716 0.75458 0.0
H1340 H 0.23869 0.4922 0.78426 0.0
H1341 H 0.2375 0.46902 0.76798 0.0
H1342 H 0.22436 0.6041 0.75919 0.0
H1343 H 0.22336 0.62719 0.77551 0.0
C1344 C 0.20942 0.52622 0.73592 0.0
C1345 C 0.23778 0.492 0.73329 0.0
C1346 C 0.20726 0.54024 0.74527 0.0
C1347 C 0.23358 0.52047 0.75221 0.0
C1348 C 0.26252 0.48686 0.74951 0.0
C1349 C 0.26451 0.4728 0.7402 0.0
C1350 C 0.23487 0.51703 0.7789 0.0
C1351 C 0.23137 0.56171 0.78128 0.0
C1352 C 0.23476 0.50372 0.76951 0.0
C1353 C 0.23131 0.53468 0.76222 0.0
C1354 C 0.22683 0.57926 0.76459 0.0
C1355 C 0.22682 0.59258 0.77399 0.0
H1356 H 0.30371 0.51282 0.53261 0.0
H1357 H 0.17742 0.4615 0.52445 0.0
H1358 H 0.32753 0.51106 0.51628 0.0
H1359 H 0.20125 0.45867 0.50818 0.0
H1360 H 0.23973 0.50603 0.47892 0.0
H1361 H 0.21676 0.50475 0.49527 0.0
H1362 H 0.34741 0.46547 0.5035 0.0
H1363 H 0.37039 0.46776 0.48716 0.0
C1364 C 0.28127 0.50056 0.52734 0.0
C1365 C 0.23858 0.48761 0.52983 0.0
C1366 C 0.29489 0.49946 0.51796 0.0
C1367 C 0.26628 0.48496 0.51084 0.0
C1368 C 0.22393 0.471 0.5134 0.0
C1369 C 0.21025 0.47248 0.52275 0.0
C1370 C 0.2634 0.49671 0.48421 0.0
C1371 C 0.30693 0.48713 0.48171 0.0
C1372 C 0.25025 0.49589 0.49361 0.0
C1373 C 0.28019 0.48506 0.50078 0.0
C1374 C 0.32359 0.4748 0.49824 0.0
C1375 C 0.33679 0.47598 0.48885 0.0
H1376 H 0.10986 0.23575 0.19847 0.0
H1377 H 0.08829 0.17771 0.17127 0.0
H1378 H 0.04352 0.27951 0.19665 0.0
H1379 H 0.0212 0.22185 0.16942 0.0
H1380 H 0.9253 0.35142 0.17083 0.0
H1381 H 0.99123 0.30537 0.1693 0.0
H1382 H 0.96446 0.24823 0.19641 0.0
H1383 H 0.89935 0.29416 0.19792 0.0
C1384 C 0.09137 0.23328 0.192 0.0
C1385 C 0.10376 0.20332 0.18503 0.0
C1386 C 0.0533 0.25792 0.19099 0.0
C1387 C 0.02681 0.25303 0.183 0.0
C1388 C 0.04104 0.22585 0.17566 0.0
C1389 C 0.0794 0.20095 0.17669 0.0
C1390 C 0.93284 0.32773 0.17626 0.0
C1391 C 0.90765 0.32607 0.18449 0.0
C1392 C 0.97053 0.30172 0.17542 0.0
C1393 C 0.98325 0.27419 0.18284 0.0
C1394 C 0.95574 0.26992 0.19068 0.0
C1395 C 0.91834 0.29574 0.19151 0.0
H1396 H 0.04127 0.89017 0.42736 0.0
H1397 H 0.13833 0.80061 0.43835 0.0
H1398 H 0.98913 0.82945 0.42596 0.0
H1399 H 0.08641 0.74032 0.43707 0.0
H1400 H 0.89511 0.72334 0.43702 0.0
H1401 H 0.94744 0.78331 0.43638 0.0
H1402 H 0.04684 0.69408 0.42624 0.0
H1403 H 0.99415 0.63353 0.42701 0.0
C1404 C 0.05139 0.85756 0.42948 0.0
C1405 C 0.09386 0.8501 0.43292 0.0
C1406 C 0.02162 0.8228 0.42868 0.0
C1407 C 0.03366 0.78 0.43139 0.0
C1408 C 0.07633 0.77263 0.43475 0.0
C1409 C 0.10606 0.80724 0.4355 0.0
C1410 C 0.92794 0.71656 0.43451 0.0
C1411 C 0.94049 0.67371 0.43202 0.0
C1412 C 0.95794 0.75104 0.43412 0.0
C1413 C 1.00128 0.74358 0.43122 0.0
C1414 C 0.01378 0.7008 0.42861 0.0
C1415 C 0.98369 0.66614 0.42904 0.0
H1416 H 0.39871 0.79667 0.67814 0.0
H1417 H 0.47667 0.90732 0.68731 0.0
H1418 H 0.46531 0.75185 0.67728 0.0
H1419 H 0.54272 0.86325 0.68615 0.0
H1420 H 0.62701 0.74873 0.69816 0.0
H1421 H 0.5674 0.80099 0.69596 0.0
H1422 H 0.53878 0.7437 0.66893 0.0
H1423 H 0.5989 0.69109 0.67121 0.0
C1424 C 0.43002 0.81148 0.67985 0.0
C1425 C 0.43247 0.85543 0.68277 0.0
C1426 C 0.46811 0.78609 0.67925 0.0
C1427 C 0.50907 0.80423 0.68164 0.0
C1428 C 0.51155 0.84846 0.6843 0.0
C1429 C 0.47371 0.87373 0.68489 0.0
C1430 C 0.60862 0.74816 0.69166 0.0
C1431 C 0.61727 0.71628 0.68484 0.0
C1432 C 0.57461 0.77799 0.69039 0.0
C1433 C 0.5484 0.77615 0.68229 0.0
C1434 C 0.55837 0.74548 0.67526 0.0
C1435 C 0.59287 0.71585 0.6765 0.0
H1436 H 0.38858 0.22121 0.93915 0.0
H1437 H 0.48436 0.13018 0.92823 0.0
H1438 H 0.44109 0.28084 0.93772 0.0
H1439 H 0.53719 0.19029 0.92671 0.0
H1440 H 0.53335 0.38631 0.92724 0.0
H1441 H 0.48053 0.32584 0.92656 0.0
H1442 H 0.5794 0.23691 0.93709 0.0
H1443 H 0.63188 0.29687 0.93768 0.0
C1444 C 0.42071 0.2141 0.93629 0.0
C1445 C 0.43234 0.17104 0.93376 0.0
C1446 C 0.45077 0.24834 0.93545 0.0
C1447 C 0.49323 0.24039 0.93206 0.0
C1448 C 0.50482 0.19737 0.92944 0.0
C1449 C 0.47467 0.16296 0.93031 0.0
C1450 C 0.54367 0.35377 0.92937 0.0
C1451 C 0.58673 0.34626 0.93245 0.0
C1452 C 0.51353 0.31918 0.92899 0.0
C1453 C 0.52584 0.27654 0.93175 0.0
C1454 C 0.56909 0.26909 0.93472 0.0
C1455 C 0.59915 0.30352 0.93507 0.0
H1456 H 0.05622 0.88853 0.32406 0.0
H1457 H 0.14628 0.78956 0.33405 0.0
H1458 H 0.99626 0.83612 0.32487 0.0
H1459 H 0.08582 0.73684 0.33498 0.0
H1460 H 0.88998 0.74229 0.33437 0.0
H1461 H 0.95061 0.79472 0.33544 0.0
H1462 H 0.03912 0.69691 0.32435 0.0
H1463 H 0.97896 0.64474 0.3234 0.0
C1464 C 0.06304 0.85568 0.32659 0.0
C1465 C 0.10592 0.84316 0.32904 0.0
C1466 C 0.0286 0.82566 0.32708 0.0
C1467 C 0.03616 0.78234 0.33003 0.0
C1468 C 0.07902 0.76987 0.33258 0.0
C1469 C 0.11362 0.79997 0.33205 0.0
C1470 C 0.92244 0.73213 0.33218 0.0
C1471 C 0.92978 0.68942 0.32885 0.0
C1472 C 0.95715 0.76206 0.33279 0.0
C1473 C 0.99975 0.74994 0.33 0.0
C1474 C 1.00698 0.70707 0.32674 0.0
C1475 C 0.97244 0.67719 0.32618 0.0
H1476 H 0.57841 0.66916 0.58797 0.0
H1477 H 0.59734 0.69781 0.55855 0.0
H1478 H 0.52502 0.7292 0.58887 0.0
H1479 H 0.55198 0.7607 0.55984 0.0
H1480 H 0.45429 0.8636 0.58892 0.0
H1481 H 0.50905 0.80454 0.58923 0.0
H1482 H 0.48303 0.77948 0.55987 0.0
H1483 H 0.43578 0.84131 0.55926 0.0
C1484 C 0.57164 0.68829 0.58174 0.0
C1485 C 0.59309 0.67885 0.57324 0.0
C1486 C 0.54172 0.72334 0.5823 0.0
C1487 C 0.53349 0.7501 0.57441 0.0
C1488 C 0.5556 0.7405 0.56602 0.0
C1489 C 0.58324 0.70467 0.56536 0.0
C1490 C 0.46162 0.8461 0.58251 0.0
C1491 C 0.43985 0.8568 0.57412 0.0
C1492 C 0.49235 0.81165 0.58272 0.0
C1493 C 0.50112 0.7869 0.57457 0.0
C1494 C 0.479 0.79811 0.56626 0.0
C1495 C 0.45042 0.8333 0.56597 0.0
H1496 H 0.47643 0.12877 0.82338 0.0
H1497 H 0.39499 0.2345 0.83356 0.0
H1498 H 0.54007 0.17708 0.8236 0.0
H1499 H 0.45915 0.28334 0.83367 0.0
H1500 H 0.59517 0.34525 0.83988 0.0
H1501 H 0.5351 0.29202 0.84178 0.0
H1502 H 0.55922 0.24348 0.81382 0.0
H1503 H 0.61859 0.29666 0.81194 0.0
C1504 C 0.47226 0.16226 0.82579 0.0
C1505 C 0.43078 0.17789 0.8285 0.0
C1506 C 0.50866 0.18992 0.82585 0.0
C1507 C 0.50449 0.23383 0.82866 0.0
C1508 C 0.46325 0.24942 0.83156 0.0
C1509 C 0.42656 0.22172 0.83141 0.0
C1510 C 0.58802 0.32245 0.83426 0.0
C1511 C 0.61137 0.32456 0.8258 0.0
C1512 C 0.55352 0.29247 0.8353 0.0
C1513 C 0.54252 0.26384 0.82793 0.0
C1514 C 0.56723 0.26493 0.81963 0.0
C1515 C 0.60113 0.29523 0.81855 0.0
H1516 H 0.15169 0.2237 0.07448 0.0
H1517 H 0.04326 0.14428 0.0842 0.0
H1518 H 0.1055 0.28864 0.0749 0.0
H1519 H 0.99643 0.20975 0.0844 0.0
H1520 H 0.93484 0.34472 0.09019 0.0
H1521 H 0.98768 0.28472 0.09245 0.0
H1522 H 0.0416 0.31045 0.06499 0.0
H1523 H 0.98889 0.36983 0.06278 0.0
C1524 C 0.11808 0.22022 0.07684 0.0
C1525 C 0.10108 0.1789 0.07936 0.0
C1526 C 0.09161 0.2574 0.07701 0.0
C1527 C 0.04748 0.25419 0.07969 0.0
C1528 C 0.03055 0.21313 0.08241 0.0
C1529 C 0.0571 0.17568 0.0822 0.0
C1530 C 0.95887 0.33805 0.08478 0.0
C1531 C 0.95838 0.36175 0.07635 0.0
C1532 C 0.98861 0.30358 0.08602 0.0
C1533 C 0.01851 0.29291 0.07888 0.0
C1534 C 0.0192 0.31821 0.07064 0.0
C1535 C 0.9892 0.35214 0.06937 0.0
H1536 H 0.12467 0.74274 0.81591 0.0
H1537 H 0.09741 0.68647 0.84303 0.0
H1538 H 0.06547 0.79554 0.81809 0.0
H1539 H 0.03762 0.73954 0.84529 0.0
H1540 H 0.89804 0.79608 0.8367 0.0
H1541 H 0.96352 0.74945 0.83723 0.0
H1542 H 0.04274 0.85862 0.82787 0.0
H1543 H 0.97781 0.90449 0.82705 0.0
C1544 C 0.10657 0.7426 0.82244 0.0
C1545 C 0.1155 0.71111 0.82934 0.0
C1546 C 0.07274 0.77269 0.82371 0.0
C1547 C 0.04688 0.77149 0.83185 0.0
C1548 C 0.05691 0.74091 0.83892 0.0
C1549 C 0.09126 0.71102 0.83769 0.0
C1550 C 0.92951 0.81002 0.8348 0.0
C1551 C 0.93275 0.85392 0.83186 0.0
C1552 C 0.96699 0.78357 0.83521 0.0
C1553 C 1.00816 0.80052 0.8326 0.0
C1554 C 1.01143 0.84466 0.82989 0.0
C1555 C 0.97421 0.871 0.8295 0.0
H1556 H 0.9509 0.16919 0.58728 0.0
H1557 H 0.93156 0.19543 0.55777 0.0
H1558 H 1.00423 0.22935 0.58795 0.0
H1559 H 0.97679 0.25861 0.55882 0.0
H1560 H 0.09156 0.34136 0.55804 0.0
H1561 H 0.04513 0.27889 0.55877 0.0
H1562 H 0.01983 0.30426 0.58815 0.0
H1563 H 0.07404 0.36377 0.58773 0.0
C1564 C 0.9576 0.18782 0.58098 0.0
C1565 C 0.93603 0.17771 0.57253 0.0
C1566 C 0.98748 0.22296 0.5814 0.0
C1567 C 0.99549 0.2492 0.57343 0.0
C1568 C 0.97336 0.23885 0.56507 0.0
C1569 C 0.94579 0.20287 0.56454 0.0
C1570 C 0.07734 0.33324 0.56477 0.0
C1571 C 0.08799 0.35697 0.5729 0.0
C1572 C 0.04916 0.29769 0.56514 0.0
C1573 C 0.02747 0.28637 0.57349 0.0
C1574 C 0.03625 0.31139 0.5816 0.0
C1575 C 0.06664 0.34613 0.58133 0.0
H1576 H 0.38886 0.29288 0.33394 0.0
H1577 H 0.47878 0.38933 0.32277 0.0
H1578 H 0.44902 0.24004 0.33513 0.0
H1579 H 0.53843 0.33682 0.32386 0.0
H1580 H 0.55502 0.1455 0.32402 0.0
H1581 H 0.49502 0.19783 0.3247 0.0
H1582 H 0.5844 0.29751 0.33477 0.0
H1583 H 0.64482 0.2449 0.33399 0.0
C1584 C 0.4214 0.30271 0.33173 0.0
C1585 C 0.42915 0.34527 0.32833 0.0
C1586 C 0.45584 0.27254 0.33241 0.0
C1587 C 0.49859 0.28431 0.32963 0.0
C1588 C 0.50619 0.32696 0.32625 0.0
C1589 C 0.47192 0.35704 0.32561 0.0
C1590 C 0.56178 0.1784 0.32653 0.0
C1591 C 0.60463 0.19109 0.32899 0.0
C1592 C 0.52732 0.20839 0.32693 0.0
C1593 C 0.53485 0.25182 0.32981 0.0
C1594 C 0.57763 0.26439 0.33241 0.0
C1595 C 0.61222 0.23435 0.33197 0.0
H1596 H 0.5332 0.86757 0.06343 0.0
H1597 H 0.58905 0.84144 0.09065 0.0
H1598 H 0.48032 0.80843 0.06573 0.0
H1599 H 0.53583 0.78179 0.09301 0.0
H1600 H 0.47752 0.6421 0.08481 0.0
H1601 H 0.52522 0.70701 0.08504 0.0
H1602 H 0.41696 0.78736 0.07574 0.0
H1603 H 0.36996 0.72299 0.07525 0.0
C1604 C 0.53342 0.84961 0.06999 0.0
C1605 C 0.56486 0.85888 0.07688 0.0
C1606 C 0.50321 0.81587 0.07132 0.0
C1607 C 0.50417 0.79046 0.07954 0.0
C1608 C 0.53469 0.80074 0.08659 0.0
C1609 C 0.56468 0.83501 0.0853 0.0
C1610 C 0.46402 0.6737 0.08286 0.0
C1611 C 0.42005 0.67746 0.08004 0.0
C1612 C 0.49109 0.71084 0.08309 0.0
C1613 C 0.47466 0.75213 0.08041 0.0
C1614 C 0.43049 0.75592 0.0778 0.0
C1615 C 0.40353 0.71905 0.0776 0.0
H1616 H 0.93609 0.18019 0.70538 0.0
H1617 H 0.91329 0.19889 0.67574 0.0
H1618 H 0.99959 0.22483 0.70461 0.0
H1619 H 0.97363 0.25202 0.67531 0.0
H1620 H 0.10738 0.32187 0.67576 0.0
H1621 H 0.04722 0.26857 0.67522 0.0
H1622 H 0.02416 0.29089 0.70481 0.0
H1623 H 0.08751 0.33577 0.70561 0.0
C1624 C 0.94431 0.19436 0.69864 0.0
C1625 C 0.92017 0.18429 0.69054 0.0
C1626 C 0.98053 0.2217 0.69826 0.0
C1627 C 0.99214 0.24347 0.68993 0.0
C1628 C 0.96652 0.23552 0.68185 0.0
C1629 C 0.9312 0.20576 0.68213 0.0
C1630 C 0.09017 0.31388 0.68218 0.0
C1631 C 0.10193 0.33405 0.69069 0.0
C1632 C 0.05494 0.28402 0.68184 0.0
C1633 C 0.03016 0.27468 0.68996 0.0
C1634 C 0.04256 0.29512 0.6984 0.0
C1635 C 0.07869 0.32257 0.69882 0.0
H1636 H 0.4351 0.35237 0.4206 0.0
H1637 H 0.49221 0.37935 0.44765 0.0
H1638 H 0.48682 0.29136 0.4184 0.0
H1639 H 0.54371 0.31893 0.44551 0.0
H1640 H 0.65124 0.22924 0.43629 0.0
H1641 H 0.60617 0.29485 0.43567 0.0
H1642 H 0.49553 0.21709 0.42656 0.0
H1643 H 0.54131 0.1509 0.42693 0.0
C1644 C 0.45958 0.3459 0.42593 0.0
C1645 C 0.46025 0.37045 0.43425 0.0
C1646 C 0.48868 0.31084 0.42474 0.0
C1647 C 0.51909 0.30036 0.4318 0.0
C1648 C 0.52095 0.32649 0.43991 0.0
C1649 C 0.49162 0.36104 0.44114 0.0
C1650 C 0.61755 0.22611 0.43395 0.0
C1651 C 0.59985 0.18487 0.43159 0.0
C1652 C 0.59168 0.26371 0.43368 0.0
C1653 C 0.54741 0.26106 0.43107 0.0
C1654 C 0.52976 0.22008 0.4285 0.0
C1655 C 0.55574 0.1822 0.42881 0.0
H1656 H 0.58518 0.8566 0.17114 0.0
H1657 H 0.62825 0.79035 0.1962 0.0
H1658 H 0.52701 0.80166 0.16905 0.0
H1659 H 0.57016 0.73592 0.19429 0.0
H1660 H 0.47904 0.62876 0.186 0.0
H1661 H 0.54259 0.67638 0.18481 0.0
H1662 H 0.45844 0.78518 0.17746 0.0
H1663 H 0.39455 0.73672 0.1782 0.0
C1664 C 0.58279 0.82947 0.17603 0.0
C1665 C 0.6112 0.8269 0.18374 0.0
C1666 C 0.54931 0.79846 0.17492 0.0
C1667 C 0.54386 0.76458 0.18153 0.0
C1668 C 0.57381 0.76118 0.189 0.0
C1669 C 0.60708 0.79219 0.19011 0.0
C1670 C 0.47401 0.66257 0.1839 0.0
C1671 C 0.43161 0.67889 0.18215 0.0
C1672 C 0.5105 0.68999 0.18332 0.0
C1673 C 0.50558 0.73457 0.18108 0.0
C1674 C 0.46336 0.75081 0.17911 0.0
C1675 C 0.42669 0.72324 0.17965 0.0
H1676 H 0.99886 0.87742 0.9483 0.0
H1677 H 0.93706 0.84471 0.922 0.0
H1678 H 0.05048 0.8172 0.94625 0.0
H1679 H 0.98919 0.78413 0.91986 0.0
H1680 H 0.04555 0.64576 0.92893 0.0
H1681 H 0.99979 0.71183 0.92828 0.0
H1682 H 0.11109 0.79083 0.93651 0.0
H1683 H 0.15605 0.72533 0.9375 0.0
C1684 C 0.99719 0.85789 0.94196 0.0
C1685 C 0.96428 0.86555 0.93529 0.0
C1686 C 0.02669 0.82347 0.94077 0.0
C1687 C 0.02365 0.79581 0.93292 0.0
C1688 C 0.99194 0.80473 0.92602 0.0
C1689 C 0.96258 0.83959 0.92717 0.0
C1690 C 0.06012 0.67728 0.93057 0.0
C1691 C 0.10438 0.68029 0.93323 0.0
C1692 C 0.03415 0.71511 0.93009 0.0
C1693 C 0.05197 0.75644 0.93233 0.0
C1694 C 0.09642 0.75943 0.93478 0.0
C1695 C 0.12225 0.72185 0.93526 0.0
H1696 H 0.361 0.96613 0.19488 0.0
H1697 H 0.36167 0.10684 0.19814 0.0
H1698 H 0.4418 0.96567 0.19622 0.0
H1699 H 0.44136 0.1062 0.19974 0.0
H1700 H 0.57896 0.07777 0.21327 0.0
H1701 H 0.49904 0.07709 0.21152 0.0
H1702 H 0.51115 0.99671 0.18682 0.0
H1703 H 0.5913 0.99874 0.18834 0.0
C1704 C 0.37816 0.99688 0.19595 0.0
C1705 C 0.35437 0.03651 0.19638 0.0
C1706 C 0.42461 0.99669 0.19666 0.0
C1707 C 0.44854 0.03596 0.1981 0.0
C1708 C 0.42447 0.07528 0.19869 0.0
C1709 C 0.3785 0.07559 0.19773 0.0
C1710 C 0.56483 0.06038 0.20738 0.0
C1711 C 0.59232 0.03851 0.20095 0.0
C1712 C 0.51873 0.05986 0.20639 0.0
C1713 C 0.49813 0.03648 0.19907 0.0
C1714 C 0.5255 0.01466 0.19261 0.0
C1715 C 0.57173 0.01618 0.19345 0.0
H1716 H 0.2221 0.33882 0.43004 0.0
H1717 H 0.28897 0.34758 0.45657 0.0
H1718 H 0.21708 0.25964 0.43166 0.0
H1719 H 0.28374 0.26718 0.45831 0.0
H1720 H 0.31177 0.11656 0.4515 0.0
H1721 H 0.31329 0.19749 0.45183 0.0
H1722 H 0.18403 0.20035 0.43951 0.0
H1723 H 0.18301 0.12086 0.439 0.0
C1724 C 0.23444 0.3239 0.43642 0.0
C1725 C 0.25496 0.35011 0.44326 0.0
C1726 C 0.23178 0.27806 0.43734 0.0
C1727 C 0.25 0.25611 0.44513 0.0
C1728 C 0.26955 0.28243 0.45216 0.0
C1729 C 0.2718 0.3288 0.45127 0.0
C1730 C 0.28376 0.13455 0.44885 0.0
C1731 C 0.24752 0.11163 0.44511 0.0
C1732 C 0.28442 0.18115 0.44911 0.0
C1733 C 0.24891 0.20623 0.44562 0.0
C1734 C 0.21251 0.18292 0.44209 0.0
C1735 C 0.21188 0.13682 0.44183 0.0
H1736 H 0.935 0.95086 0.68069 0.0
H1737 H 0.92198 1.00972 0.70799 0.0
H1738 H 0.01417 0.94983 0.68242 0.0
H1739 H 1.0023 1.00907 0.70976 0.0
H1740 H 0.15094 0.04921 0.70319 0.0
H1741 H 0.07011 0.04534 0.70351 0.0
H1742 H 0.07536 0.9186 0.69007 0.0
H1743 H 0.15467 0.92279 0.68961 0.0
C1744 C 0.94897 0.96229 0.68724 0.0
C1745 C 0.92141 0.97977 0.69422 0.0
C1746 C 0.99484 0.96202 0.68822 0.0
C1747 C 0.01556 0.97968 0.69621 0.0
C1748 C 0.98801 0.99565 0.70343 0.0
C1749 C 0.94164 0.99535 0.70248 0.0
C1750 C 0.13476 0.02058 0.7003 0.0
C1751 C 0.15992 0.9866 0.69628 0.0
C1752 C 0.08823 0.01813 0.70055 0.0
C1753 C 0.06541 0.98173 0.69674 0.0
C1754 C 0.09096 0.94762 0.69292 0.0
C1755 C 0.13698 0.95002 0.69269 0.0
H1756 H 0.29519 0.67141 0.9383 0.0
H1757 H 0.23435 0.6921 0.96517 0.0
H1758 H 0.30164 0.75132 0.93624 0.0
H1759 H 0.24126 0.77109 0.96326 0.0
H1760 H 0.21206 0.91062 0.95335 0.0
H1761 H 0.20955 0.83059 0.95504 0.0
H1762 H 0.33372 0.82011 0.94069 0.0
H1763 H 0.33562 0.89966 0.93886 0.0
C1764 C 0.28454 0.69281 0.94391 0.0
C1765 C 0.26464 0.67486 0.95195 0.0
C1766 C 0.2878 0.73893 0.9427 0.0
C1767 C 0.27118 0.76851 0.9495 0.0
C1768 C 0.25339 0.75012 0.95772 0.0
C1769 C 0.25011 0.70442 0.9589 0.0
C1770 C 0.23869 0.89126 0.9505 0.0
C1771 C 0.274 0.91213 0.94597 0.0
C1772 C 0.23755 0.84509 0.95154 0.0
C1773 C 0.27168 0.81804 0.94808 0.0
C1774 C 0.30654 0.8391 0.9434 0.0
C1775 C 0.30771 0.88514 0.94239 0.0
H1776 H 0.37739 0.94302 0.32369 0.0
H1777 H 0.36311 0.06911 0.3103 0.0
H1778 H 0.45671 0.94715 0.32181 0.0
H1779 H 0.44291 0.07393 0.30859 0.0
H1780 H 0.60439 0.987 0.32441 0.0
H1781 H 0.52472 0.97883 0.32642 0.0
H1782 H 0.50356 0.04685 0.30026 0.0
H1783 H 0.58229 0.05552 0.29841 0.0
C1784 C 0.39113 0.97196 0.32039 0.0
C1785 C 0.36324 1.00572 0.31714 0.0
C1786 C 0.43707 0.97443 0.31935 0.0
C1787 C 0.45721 1.01075 0.31499 0.0
C1788 C 0.42924 0.04486 0.31183 0.0
C1789 C 0.38315 0.04237 0.31289 0.0
C1790 C 0.58273 0.99915 0.31898 0.0
C1791 C 0.60026 0.02164 0.3112 0.0
C1792 C 0.53672 0.99482 0.32015 0.0
C1793 C 0.50674 1.01284 0.31359 0.0
C1794 C 0.52475 0.03349 0.30564 0.0
C1795 C 0.57036 0.03788 0.30449 0.0
H1796 H 0.22232 0.12767 0.56125 0.0
H1797 H 0.3524 0.12372 0.57308 0.0
H1798 H 0.22634 0.20849 0.56072 0.0
H1799 H 0.35654 0.20336 0.57251 0.0
H1800 H 0.32538 0.34516 0.58192 0.0
H1801 H 0.32675 0.2657 0.58042 0.0
H1802 H 0.26194 0.27549 0.55363 0.0
H1803 H 0.26141 0.35597 0.5551 0.0
C1804 C 0.25178 0.14382 0.56372 0.0
C1805 C 0.28685 0.11855 0.56728 0.0
C1806 C 0.25429 0.19037 0.56335 0.0
C1807 C 0.29177 0.21326 0.56661 0.0
C1808 C 0.3268 0.18767 0.57005 0.0
C1809 C 0.32443 0.14151 0.57035 0.0
C1810 C 0.3128 0.33069 0.57552 0.0
C1811 C 0.29376 0.35777 0.56862 0.0
C1812 C 0.31324 0.28465 0.57469 0.0
C1813 C 0.29401 0.26325 0.56694 0.0
C1814 C 0.27655 0.29029 0.55978 0.0
C1815 C 0.27683 0.3368 0.56056 0.0
H1816 H 0.1533 0.08693 0.8243 0.0
H1817 H 0.16453 0.96104 0.81072 0.0
H1818 H 0.07378 0.08432 0.82257 0.0
H1819 H 0.08458 0.95782 0.80914 0.0
H1820 H 0.92547 0.04539 0.82549 0.0
H1821 H 1.00533 0.05284 0.82734 0.0
H1822 H 0.02446 0.98726 0.80084 0.0
H1823 H 0.94554 0.97935 0.79915 0.0
C1824 C 0.13885 0.05838 0.82099 0.0
C1825 C 0.16592 0.0242 0.81764 0.0
C1826 C 0.09282 0.0568 0.82004 0.0
C1827 C 0.07182 0.02103 0.81565 0.0
C1828 C 0.09898 0.9865 0.81241 0.0
C1829 C 0.14513 0.98806 0.81338 0.0
C1830 C 0.94671 0.03379 0.81994 0.0
C1831 C 0.9286 1.01216 0.81211 0.0
C1832 C 0.99282 0.03764 0.82102 0.0
C1833 C 0.02225 0.01991 0.81433 0.0
C1834 C 1.00366 1.00033 0.80632 0.0
C1835 C 0.95797 0.99646 0.80526 0.0
H1836 H 0.22642 0.67073 0.07536 0.0
H1837 H 0.28652 0.6906 0.04837 0.0
H1838 H 0.21993 0.7507 0.07727 0.0
H1839 H 0.27955 0.76964 0.05013 0.0
H1840 H 0.18638 0.89904 0.0745 0.0
H1841 H 0.18785 0.81941 0.07275 0.0
H1842 H 0.31159 0.82936 0.05821 0.0
H1843 H 0.30951 0.90939 0.05982 0.0
C1844 C 0.2369 0.69196 0.06969 0.0
C1845 C 0.25663 0.67378 0.06166 0.0
C1846 C 0.23361 0.73811 0.07081 0.0
C1847 C 0.25002 0.76749 0.06394 0.0
C1848 C 0.26759 0.74884 0.05573 0.0
C1849 C 0.27091 0.70311 0.05464 0.0
C1850 C 0.21408 0.88437 0.07094 0.0
C1851 C 0.24782 0.91121 0.06729 0.0
C1852 C 0.215 0.83829 0.06997 0.0
C1853 C 0.24964 0.81707 0.06527 0.0
C1854 C 0.28376 0.84398 0.06172 0.0
C1855 C 0.28286 0.89016 0.06271 0.0
H1856 H 0.44532 0.0387 0.79846 0.0
H1857 H 0.42532 0.97993 0.8256 0.0
H1858 H 0.5242 0.03091 0.80019 0.0
H1859 H 0.50516 0.97269 0.82748 0.0
H1860 H 0.66466 0.059 0.8096 0.0
H1861 H 0.58476 0.06203 0.80799 0.0
H1862 H 0.57327 0.9398 0.82313 0.0
H1863 H 0.65279 0.93747 0.8249 0.0
C1864 C 0.45775 0.02328 0.80477 0.0
C1865 C 0.42841 1.00955 0.81184 0.0
C1866 C 0.50343 0.01946 0.80584 0.0
C1867 C 0.52206 1.00196 0.81407 0.0
C1868 C 0.49263 0.98624 0.821 0.0
C1869 C 0.44654 0.98999 0.8199 0.0
C1870 C 0.64513 0.03285 0.81262 0.0
C1871 C 0.66573 0.99802 0.81738 0.0
C1872 C 0.59899 0.0343 0.81164 0.0
C1873 C 0.57164 1.00094 0.81536 0.0
C1874 C 0.59245 0.96644 0.82022 0.0
C1875 C 0.63848 0.96499 0.82119 0.0
H1876 H 0.82647 0.68724 0.58144 0.0
H1877 H 0.76456 0.67521 0.55441 0.0
H1878 H 0.82609 0.76667 0.57998 0.0
H1879 H 0.76318 0.75573 0.553 0.0
H1880 H 0.72038 0.90291 0.56071 0.0
H1881 H 0.72553 0.8221 0.56019 0.0
H1882 H 0.85555 0.82933 0.57202 0.0
H1883 H 0.85034 0.90883 0.57257 0.0
C1884 C 0.81385 0.70145 0.57502 0.0
C1885 C 0.79577 0.67399 0.56806 0.0
C1886 C 0.81329 0.74748 0.57421 0.0
C1887 C 0.79407 0.7685 0.56642 0.0
C1888 C 0.77766 0.74117 0.5592 0.0
C1889 C 0.77899 0.69466 0.55995 0.0
C1890 C 0.75 0.88721 0.56321 0.0
C1891 C 0.78473 0.91301 0.56676 0.0
C1892 C 0.75318 0.84069 0.56284 0.0
C1893 C 0.79099 0.81842 0.56609 0.0
C1894 C 0.82561 0.84454 0.56955 0.0
C1895 C 0.8226 0.89063 0.56984 0.0
H1896 H 0.87698 0.09217 0.32412 0.0
H1897 H 0.8632 0.96808 0.30989 0.0
H1898 H 0.9564 0.0883 0.32241 0.0
H1899 H 0.94307 0.96351 0.30835 0.0
H1900 H 0.08286 0.98341 0.2986 0.0
H1901 H 1.00408 0.99201 0.30031 0.0
H1902 H 0.02411 0.05576 0.327 0.0
H1903 H 0.10386 0.04768 0.32512 0.0
C1904 C 0.89085 0.06372 0.32067 0.0
C1905 C 0.86308 0.03044 0.31714 0.0
C1906 C 0.93684 0.0614 0.31973 0.0
C1907 C 0.95713 0.02573 0.31518 0.0
C1908 C 0.92927 0.99209 0.31174 0.0
C1909 C 0.88314 0.99442 0.3127 0.0
C1910 C 0.07067 1.00013 0.30477 0.0
C1911 C 0.10027 0.01521 0.31167 0.0
C1912 C 0.02503 1.00446 0.30583 0.0
C1913 C 1.0067 0.02385 0.31389 0.0
C1914 C 0.03639 0.04076 0.32064 0.0
C1915 C 0.08244 0.0365 0.31955 0.0
H1916 H 0.81064 0.10394 0.06161 0.0
H1917 H 0.68212 0.11097 0.07413 0.0
H1918 H 0.81312 0.18502 0.06102 0.0
H1919 H 0.68407 0.19017 0.07335 0.0
H1920 H 0.72028 0.32996 0.08177 0.0
H1921 H 0.71672 0.25049 0.08077 0.0
H1922 H 0.78364 0.25472 0.05415 0.0
H1923 H 0.78739 0.33548 0.05527 0.0
C1924 C 0.78301 0.12248 0.06426 0.0
C1925 C 0.74641 0.10019 0.06802 0.0
C1926 C 0.78417 0.16919 0.06383 0.0
C1927 C 0.74889 0.19505 0.0672 0.0
C1928 C 0.71241 0.17231 0.07084 0.0
C1929 C 0.71125 0.12624 0.07126 0.0
C1930 C 0.73297 0.31424 0.07553 0.0
C1931 C 0.75299 0.33981 0.0685 0.0
C1932 C 0.73122 0.26817 0.07496 0.0
C1933 C 0.74987 0.24515 0.06737 0.0
C1934 C 0.76911 0.27073 0.06016 0.0
C1935 C 0.77048 0.31733 0.0607 0.0
H1936 H 0.65678 0.95698 0.70209 0.0
H1937 H 0.64927 0.08578 0.68966 0.0
H1938 H 0.5768 0.95609 0.7038 0.0
H1939 H 0.56943 0.08504 0.69138 0.0
H1940 H 0.44084 0.98382 0.71513 0.0
H1941 H 0.51966 0.99007 0.713 0.0
H1942 H 0.49888 0.05256 0.68623 0.0
H1943 H 0.41892 0.04609 0.68841 0.0
C1944 C 0.63818 0.98508 0.69968 0.0
C1945 C 0.66006 0.02145 0.69576 0.0
C1946 C 0.59205 0.98479 0.70072 0.0
C1947 C 0.5659 0.02073 0.69781 0.0
C1948 C 0.58782 0.0566 0.69368 0.0
C1949 C 0.63396 0.05706 0.69273 0.0
C1950 C 0.45281 0.99988 0.70885 0.0
C1951 C 0.42287 0.01477 0.702 0.0
C1952 C 0.49842 1.00282 0.70756 0.0
C1953 C 0.51647 0.02095 0.69934 0.0
C1954 C 0.48664 0.0383 0.69267 0.0
C1955 C 0.44053 0.03509 0.69396 0.0
H1956 H 0.70796 0.67584 0.44655 0.0
H1957 H 0.84514 0.70129 0.45171 0.0
H1958 H 0.69522 0.75564 0.44538 0.0
H1959 H 0.83329 0.7787 0.45013 0.0
H1960 H 0.8021 0.92055 0.45528 0.0
H1961 H 0.80873 0.84124 0.45702 0.0
H1962 H 0.70296 0.82262 0.43724 0.0
H1963 H 0.69522 0.90221 0.4359 0.0
C1964 C 0.73535 0.69812 0.44742 0.0
C1965 C 0.77739 0.68139 0.44943 0.0
C1966 C 0.72822 0.74415 0.4467 0.0
C1967 C 0.76303 0.77477 0.44783 0.0
C1968 C 0.80499 0.75738 0.44956 0.0
C1969 C 0.81187 0.71212 0.4504 0.0
C1970 C 0.7803 0.89959 0.45129 0.0
C1971 C 0.74839 0.91824 0.4454 0.0
C1972 C 0.78419 0.85364 0.45222 0.0
C1973 C 0.75677 0.82434 0.44718 0.0
C1974 C 0.72455 0.84327 0.44134 0.0
C1975 C 0.72034 0.88929 0.4405 0.0
H1976 H 0.86075 0.93418 0.19163 0.0
H1977 H 0.85639 0.06849 0.20114 0.0
H1978 H 0.94005 0.93526 0.1922 0.0
H1979 H 0.93738 0.06986 0.20158 0.0
H1980 H 0.08754 0.04575 0.2073 0.0
H1981 H 1.00707 0.04261 0.20888 0.0
H1982 H 0.99999 0.96419 0.18374 0.0
H1983 H 0.07934 0.96748 0.18225 0.0
C1984 C 0.87662 0.96429 0.19383 0.0
C1985 C 0.85132 1.0014 0.19625 0.0
C1986 C 0.9227 0.96492 0.19412 0.0
C1987 C 0.94612 1.00273 0.19684 0.0
C1988 C 0.921 0.03987 0.19948 0.0
C1989 C 0.87434 0.03926 0.19917 0.0
C1990 C 0.06888 0.02649 0.20232 0.0
C1991 C 0.09052 1.00569 0.19479 0.0
C1992 C 0.02242 0.02542 0.20311 0.0
C1993 C 0.99613 1.00316 0.19644 0.0
C1994 C 0.01831 0.98116 0.18914 0.0
C1995 C 0.06428 0.98271 0.18831 0.0
H1996 H 0.80814 0.34139 0.94238 0.0
H1997 H 0.69068 0.3175 0.95843 0.0
H1998 H 0.8184 0.2617 0.9408 0.0
H1999 H 0.69842 0.24019 0.95629 0.0
H2000 H 0.72853 0.09524 0.95704 0.0
H2001 H 0.72356 0.17425 0.95927 0.0
H2002 H 0.80434 0.1946 0.93472 0.0
H2003 H 0.81157 0.11535 0.93305 0.0
C2004 C 0.78465 0.31946 0.94563 0.0
C2005 C 0.74882 0.33692 0.95062 0.0
C2006 C 0.79002 0.27322 0.94461 0.0
C2007 C 0.75936 0.24269 0.94841 0.0
C2008 C 0.72388 0.26085 0.9534 0.0
C2009 C 0.71912 0.30635 0.95457 0.0
C2010 C 0.74467 0.11663 0.95205 0.0
C2011 C 0.76994 0.09844 0.94479 0.0
C2012 C 0.74187 0.16266 0.95328 0.0
C2013 C 0.76327 0.1927 0.94716 0.0
C2014 C 0.78782 0.17394 0.93978 0.0
C2015 C 0.79151 0.12794 0.93871 0.0
H2016 H 0.08653 0.57012 0.68086 0.0
H2017 H 0.09324 0.50347 0.70744 0.0
H2018 H 1.00712 0.57195 0.68186 0.0
H2019 H 1.01263 0.50524 0.70852 0.0
H2020 H 0.86284 0.47365 0.70097 0.0
H2021 H 0.94389 0.47362 0.70165 0.0
H2022 H 0.94571 0.60261 0.68915 0.0
H2023 H 0.86666 0.60216 0.68828 0.0
C2024 C 0.07111 0.55727 0.68713 0.0
C2025 C 0.09708 0.5377 0.69415 0.0
C2026 C 0.02505 0.55794 0.68769 0.0
C2027 C 1.00238 0.5386 0.69527 0.0
C2028 C 0.02832 0.52014 0.7025 0.0
C2029 C 0.07491 0.5199 0.70198 0.0
C2030 C 0.88065 0.50178 0.69831 0.0
C2031 C 0.85744 0.53765 0.69447 0.0
C2032 C 0.92734 0.50204 0.69878 0.0
C2033 C 0.95229 0.53805 0.69539 0.0
C2034 C 0.92863 0.57376 0.69168 0.0
C2035 C 0.88261 0.57351 0.69122 0.0
H2036 H 0.67997 0.61425 0.94109 0.0
H2037 H 0.81248 0.60585 0.9515 0.0
H2038 H 0.68132 0.69349 0.9429 0.0
H2039 H 0.81392 0.68633 0.95334 0.0
H2040 H 0.81298 0.83714 0.94591 0.0
H2041 H 0.81469 0.75707 0.94497 0.0
H2042 H 0.68 0.75197 0.95414 0.0
H2043 H 0.67833 0.8321 0.95508 0.0
C2044 C 0.70965 0.62921 0.94379 0.0
C2045 C 0.74617 0.60287 0.94612 0.0
C2046 C 0.71026 0.67516 0.9449 0.0
C2047 C 0.74757 0.69726 0.94835 0.0
C2048 C 0.78449 0.67105 0.95062 0.0
C2049 C 0.78369 0.62463 0.94959 0.0
C2050 C 0.7837 0.81916 0.94782 0.0
C2051 C 0.74547 0.84198 0.95059 0.0
C2052 C 0.78478 0.77277 0.9473 0.0
C2053 C 0.74748 0.74713 0.94943 0.0
C2054 C 0.7094 0.76998 0.9523 0.0
C2055 C 0.70846 0.81633 0.9529 0.0
H2056 H 0.42301 0.48152 0.1877 0.0
H2057 H 0.44482 0.54654 0.21411 0.0
H2058 H 0.50279 0.47359 0.18571 0.0
H2059 H 0.5236 0.53848 0.21223 0.0
H2060 H 0.66318 0.56468 0.20188 0.0
H2061 H 0.58321 0.56858 0.2035 0.0
H2062 H 0.57102 0.44066 0.19075 0.0
H2063 H 0.6505 0.43718 0.18904 0.0
C2064 C 0.44459 0.49286 0.19322 0.0
C2065 C 0.42702 0.51435 0.20111 0.0
C2066 C 0.49061 0.48876 0.19205 0.0
C2067 C 0.52043 0.50618 0.19872 0.0
C2068 C 0.50241 0.52564 0.20679 0.0
C2069 C 0.45682 0.52964 0.20794 0.0
C2070 C 0.64346 0.53751 0.19938 0.0
C2071 C 0.66382 0.50063 0.19534 0.0
C2072 C 0.59735 0.53948 0.20037 0.0
C2073 C 0.56987 0.50473 0.19733 0.0
C2074 C 0.5904 0.46831 0.19313 0.0
C2075 C 0.63638 0.46625 0.19219 0.0
H2076 H 0.72664 0.19848 0.46328 0.0
H2077 H 0.79274 0.17669 0.43701 0.0
H2078 H 0.73608 0.27729 0.46153 0.0
H2079 H 0.80158 0.25638 0.43509 0.0
H2080 H 0.7142 0.41826 0.45167 0.0
H2081 H 0.70876 0.33837 0.45333 0.0
H2082 H 0.83432 0.32372 0.43971 0.0
H2083 H 0.83901 0.40304 0.43786 0.0
C2084 C 0.744 0.21051 0.45717 0.0
C2085 C 0.75937 0.18075 0.45035 0.0
C2086 C 0.74878 0.25613 0.45608 0.0
C2087 C 0.76888 0.27419 0.44807 0.0
C2088 C 0.78607 0.24429 0.4414 0.0
C2089 C 0.78139 0.19828 0.44253 0.0
C2090 C 0.74052 0.398 0.44899 0.0
C2091 C 0.77699 0.41762 0.44463 0.0
C2092 C 0.73768 0.35189 0.45001 0.0
C2093 C 0.77128 0.32369 0.44673 0.0
C2094 C 0.80743 0.34357 0.44226 0.0
C2095 C 0.81022 0.3895 0.44124 0.0
H2096 H 0.86387 0.56272 0.81198 0.0
H2097 H 0.86826 0.43019 0.82261 0.0
H2098 H 0.94476 0.56456 0.81178 0.0
H2099 H 0.94773 0.43176 0.82229 0.0
H2100 H 0.08557 0.46909 0.83257 0.0
H2101 H 1.00643 0.46429 0.83084 0.0
H2102 H 0.01449 0.53512 0.80469 0.0
H2103 H 0.0948 0.53974 0.80649 0.0
C2104 C 0.88186 0.53399 0.81425 0.0
C2105 C 0.85898 0.49648 0.8174 0.0
C2106 C 0.92841 0.53486 0.81407 0.0
C2107 C 0.95347 0.49837 0.81708 0.0
C2108 C 0.93024 0.46087 0.82006 0.0
C2109 C 0.88418 0.45996 0.82021 0.0
C2110 C 0.07078 0.48245 0.82628 0.0
C2111 C 0.09711 0.50396 0.8196 0.0
C2112 C 0.02499 0.47994 0.8253 0.0
C2113 C 1.00325 0.49943 0.81763 0.0
C2114 C 0.02965 0.51999 0.81075 0.0
C2115 C 0.07595 0.52196 0.81169 0.0
H2116 H 0.72146 0.83823 0.0691 0.0
H2117 H 0.84593 0.83345 0.0548 0.0
H2118 H 0.71977 0.75818 0.06981 0.0
H2119 H 0.84438 0.75323 0.05555 0.0
H2120 H 0.85311 0.61402 0.06783 0.0
H2121 H 0.85162 0.69344 0.0664 0.0
H2122 H 0.71234 0.68877 0.06114 0.0
H2123 H 0.71391 0.60815 0.06261 0.0
C2124 C 0.74844 0.82031 0.06601 0.0
C2125 C 0.7838 0.84318 0.06184 0.0
C2126 C 0.74736 0.77394 0.06641 0.0
C2127 C 0.7819 0.74835 0.06276 0.0
C2128 C 0.81724 0.77123 0.05857 0.0
C2129 C 0.8181 0.81762 0.05809 0.0
C2130 C 0.82193 0.62959 0.06635 0.0
C2131 C 0.78359 0.60393 0.06535 0.0
C2132 C 0.82119 0.67562 0.06546 0.0
C2133 C 0.78197 0.69843 0.06359 0.0
C2134 C 0.74331 0.67289 0.06264 0.0
C2135 C 0.74416 0.62641 0.06344 0.0
H2136 H 0.43004 0.54995 0.3237 0.0
H2137 H 0.45126 0.48485 0.29729 0.0
H2138 H 0.50979 0.55763 0.32569 0.0
H2139 H 0.53005 0.49304 0.29912 0.0
H2140 H 0.67041 0.46832 0.30899 0.0
H2141 H 0.59056 0.46429 0.30731 0.0
H2142 H 0.57796 0.58964 0.32115 0.0
H2143 H 0.65737 0.59299 0.323 0.0
C2144 C 0.45151 0.53847 0.31818 0.0
C2145 C 0.43372 0.51703 0.3103 0.0
C2146 C 0.49757 0.54251 0.31934 0.0
C2147 C 0.52731 0.52524 0.31265 0.0
C2148 C 0.50904 0.50575 0.30459 0.0
C2149 C 0.4634 0.50165 0.30347 0.0
C2150 C 0.65063 0.49491 0.31172 0.0
C2151 C 0.6709 0.53094 0.31613 0.0
C2152 C 0.60452 0.49289 0.31068 0.0
C2153 C 0.57687 0.52684 0.31402 0.0
C2154 C 0.59736 0.56252 0.31855 0.0
C2155 C 0.64334 0.56454 0.31957 0.0
H2156 H 0.80606 0.4034 0.5601 0.0
H2157 H 0.67703 0.40893 0.57239 0.0
H2158 H 0.80134 0.32256 0.55978 0.0
H2159 H 0.67224 0.32931 0.57203 0.0
H2160 H 0.70328 0.18772 0.58168 0.0
H2161 H 0.70266 0.26714 0.58002 0.0
H2162 H 0.7639 0.25556 0.5529 0.0
H2163 H 0.76356 0.17512 0.55451 0.0
C2164 C 0.7767 0.3876 0.56273 0.0
C2165 C 0.74213 0.41332 0.56634 0.0
C2166 C 0.77377 0.34104 0.56247 0.0
C2167 C 0.73638 0.31862 0.56592 0.0
C2168 C 0.70188 0.34465 0.56942 0.0
C2169 C 0.70463 0.3908 0.5696 0.0
C2170 C 0.71523 0.20179 0.57518 0.0
C2171 C 0.73305 0.17421 0.56822 0.0
C2172 C 0.71524 0.2478 0.57426 0.0
C2173 C 0.73372 0.26867 0.56637 0.0
C2174 C 0.74994 0.24116 0.55917 0.0
C2175 C 0.74916 0.19468 0.56003 0.0
H2176 H 0.15766 0.44325 0.3231 0.0
H2177 H 0.1705 0.56794 0.30905 0.0
H2178 H 0.07818 0.44658 0.32137 0.0
H2179 H 0.0906 0.57192 0.30748 0.0
H2180 H 0.95106 0.55121 0.29761 0.0
H2181 H 0.02988 0.54298 0.29935 0.0
H2182 H 1.01011 0.47869 0.32599 0.0
H2183 H 0.93032 0.48646 0.3241 0.0
C2184 C 0.14358 0.47171 0.31969 0.0
C2185 C 0.1711 0.50532 0.31621 0.0
C2186 C 0.09756 0.47371 0.31874 0.0
C2187 C 0.07699 0.50937 0.31422 0.0
C2188 C 0.10461 0.54334 0.31084 0.0
C2189 C 0.15076 0.54134 0.31182 0.0
C2190 C 0.96331 0.53444 0.30378 0.0
C2191 C 0.93375 0.51916 0.31066 0.0
C2192 C 1.00897 0.53033 0.30486 0.0
C2193 C 0.0274 0.51093 0.31291 0.0
C2194 C 0.99776 0.49374 0.31964 0.0
C2195 C 0.95168 0.49781 0.31854 0.0
H2196 H 0.29413 0.1708 0.07519 0.0
H2197 H 0.23376 0.19047 0.0482 0.0
H2198 H 0.30059 0.25077 0.07709 0.0
H2199 H 0.24071 0.26953 0.04997 0.0
H2200 H 0.33426 0.39901 0.07431 0.0
H2201 H 0.33273 0.31942 0.07254 0.0
H2202 H 0.20873 0.32919 0.05807 0.0
H2203 H 0.21087 0.40923 0.05969 0.0
C2204 C 0.28359 0.19199 0.06952 0.0
C2205 C 0.26379 0.17376 0.0615 0.0
C2206 C 0.28687 0.23814 0.07064 0.0
C2207 C 0.27039 0.26745 0.06377 0.0
C2208 C 0.25273 0.24877 0.05556 0.0
C2209 C 0.24943 0.20303 0.05447 0.0
C2210 C 0.30649 0.38432 0.07075 0.0
C2211 C 0.2727 0.4111 0.06713 0.0
C2212 C 0.30554 0.33826 0.06978 0.0
C2213 C 0.2708 0.317 0.0651 0.0
C2214 C 0.23663 0.34385 0.06157 0.0
C2215 C 0.23757 0.39003 0.06256 0.0
H2216 H 0.36885 0.60596 0.82305 0.0
H2217 H 0.3629 0.47417 0.81207 0.0
H2218 H 0.44821 0.60464 0.8222 0.0
H2219 H 0.44369 0.47248 0.81136 0.0
H2220 H 0.59271 0.49567 0.80548 0.0
H2221 H 0.51237 0.50121 0.80408 0.0
H2222 H 0.50824 0.57266 0.83018 0.0
H2223 H 0.58751 0.56703 0.8315 0.0
C2224 C 0.38441 0.57639 0.82047 0.0
C2225 C 0.35882 0.54 0.81771 0.0
C2226 C 0.43043 0.57561 0.82001 0.0
C2227 C 0.45321 0.53835 0.81678 0.0
C2228 C 0.42771 0.50202 0.81382 0.0
C2229 C 0.38122 0.50279 0.8143 0.0
C2230 C 0.57474 0.51396 0.81072 0.0
C2231 C 0.59705 0.53193 0.81849 0.0
C2232 C 0.5284 0.5164 0.81003 0.0
C2233 C 0.50305 0.53729 0.81703 0.0
C2234 C 0.52594 0.55682 0.82454 0.0
C2235 C 0.57181 0.55391 0.82528 0.0
H2236 H 0.20454 0.84403 0.58305 0.0
H2237 H 0.26331 0.85765 0.55574 0.0
H2238 H 0.20448 0.7647 0.58137 0.0
H2239 H 0.2642 0.77718 0.55411 0.0
H2240 H 0.30653 0.6289 0.5612 0.0
H2241 H 0.30219 0.7098 0.56095 0.0
H2242 H 0.17325 0.70305 0.57328 0.0
H2243 H 0.17764 0.62346 0.57356 0.0
C2244 C 0.21648 0.8302 0.57653 0.0
C2245 C 0.23377 0.85807 0.56955 0.0
C2246 C 0.21673 0.78423 0.57559 0.0
C2247 C 0.23484 0.76364 0.56764 0.0
C2248 C 0.25057 0.79139 0.56042 0.0
C2249 C 0.24954 0.83787 0.5613 0.0
C2250 C 0.27731 0.64472 0.56386 0.0
C2251 C 0.24264 0.61902 0.56747 0.0
C2252 C 0.2746 0.6913 0.56365 0.0
C2253 C 0.23735 0.71372 0.56713 0.0
C2254 C 0.20278 0.6877 0.57064 0.0
C2255 C 0.20531 0.64156 0.57078 0.0
H2256 H 0.15854 0.47047 0.20168 0.0
H2257 H 0.15627 0.59931 0.18914 0.0
H2258 H 0.07768 0.47029 0.20205 0.0
H2259 H 0.07685 0.59958 0.18966 0.0
H2260 H 0.93798 0.56311 0.18016 0.0
H2261 H 0.01714 0.56705 0.1818 0.0
H2262 H 1.00851 0.50137 0.20855 0.0
H2263 H 0.92814 0.49735 0.2068 0.0
C2264 C 0.14101 0.49879 0.19904 0.0
C2265 C 0.16448 0.53465 0.19528 0.0
C2266 C 0.09446 0.4989 0.19931 0.0
C2267 C 0.06996 0.53481 0.19581 0.0
C2268 C 0.09382 0.57083 0.19226 0.0
C2269 C 0.13988 0.57072 0.19199 0.0
C2270 C 0.95267 0.55076 0.18656 0.0
C2271 C 0.92613 0.53084 0.19343 0.0
C2272 C 0.99849 0.55279 0.18749 0.0
C2273 C 0.02011 0.53448 0.19531 0.0
C2274 C 0.9935 0.51558 0.20237 0.0
C2275 C 0.94716 0.514 0.20147 0.0
H2276 H 0.18696 0.39915 0.93981 0.0
H2277 H 0.3109 0.41069 0.95416 0.0
H2278 H 0.18936 0.31953 0.94156 0.0
H2279 H 0.31394 0.33072 0.95577 0.0
H2280 H 0.22883 0.17136 0.93877 0.0
H2281 H 0.22141 0.25129 0.93696 0.0
H2282 H 0.28394 0.27021 0.96381 0.0
H2283 H 0.29189 0.19123 0.96547 0.0
C2284 C 0.21502 0.38475 0.94331 0.0
C2285 C 0.24872 0.41191 0.94686 0.0
C2286 C 0.21649 0.33867 0.94427 0.0
C2287 C 0.25169 0.31775 0.94887 0.0
C2288 C 0.2857 0.34503 0.95233 0.0
C2289 C 0.28423 0.39121 0.95135 0.0
C2290 C 0.23988 0.19257 0.94439 0.0
C2291 C 0.26071 0.17438 0.95231 0.0
C2292 C 0.23599 0.23871 0.94333 0.0
C2293 C 0.25283 0.26812 0.95015 0.0
C2294 C 0.2716 0.24944 0.95824 0.0
C2295 C 0.27555 0.20371 0.95927 0.0
H2296 H 0.58869 0.43628 0.7076 0.0
H2297 H 0.59557 0.55803 0.69223 0.0
H2298 H 0.50861 0.43801 0.70652 0.0
H2299 H 0.51566 0.55999 0.69123 0.0
H2300 H 0.36598 0.56939 0.69828 0.0
H2301 H 0.44644 0.56988 0.6997 0.0
H2302 H 0.44842 0.42949 0.69574 0.0
H2303 H 0.36885 0.42911 0.69433 0.0
C2304 C 0.57336 0.46355 0.704 0.0
C2305 C 0.5995 0.49709 0.70006 0.0
C2306 C 0.52703 0.4645 0.70334 0.0
C2307 C 0.50473 0.49922 0.69878 0.0
C2308 C 0.53091 0.53291 0.69491 0.0
C2309 C 0.57722 0.5317 0.69548 0.0
C2310 C 0.38358 0.53865 0.6977 0.0
C2311 C 0.36025 0.49926 0.69617 0.0
C2312 C 0.43002 0.53887 0.69848 0.0
C2313 C 0.45481 0.49963 0.6979 0.0
C2314 C 0.4312 0.46041 0.69639 0.0
C2315 C 0.38511 0.46027 0.6955 0.0
H2316 H 0.22919 0.82995 0.46415 0.0
H2317 H 0.29941 0.85447 0.43847 0.0
H2318 H 0.23878 0.75137 0.46212 0.0
H2319 H 0.30874 0.77492 0.4363 0.0
H2320 H 0.21777 0.61171 0.45135 0.0
H2321 H 0.21216 0.69148 0.45318 0.0
H2322 H 0.34128 0.7069 0.44122 0.0
H2323 H 0.34637 0.62755 0.43925 0.0
C2324 C 0.24742 0.8186 0.45811 0.0
C2325 C 0.26378 0.84911 0.45153 0.0
C2326 C 0.25236 0.77311 0.45686 0.0
C2327 C 0.27381 0.75586 0.44894 0.0
C2328 C 0.29208 0.78643 0.44253 0.0
C2329 C 0.2871 0.83233 0.4438 0.0
C2330 C 0.24486 0.63209 0.44906 0.0
C2331 C 0.2825 0.61266 0.44516 0.0
C2332 C 0.24189 0.67812 0.45018 0.0
C2333 C 0.27643 0.70648 0.44743 0.0
C2334 C 0.31371 0.68687 0.44337 0.0
C2335 C 0.31671 0.64095 0.44228 0.0
H2336 H 0.31522 0.08714 0.10982 0.0
H2337 H 0.22078 0.98299 0.10606 0.0
H2338 H 0.30625 0.08216 0.12678 0.0
H2339 H 0.21138 0.97827 0.12307 0.0
H2340 H 0.24944 0.9466 0.15354 0.0
H2341 H 0.25683 0.95444 0.13669 0.0
H2342 H 0.25111 0.09538 0.13948 0.0
H2343 H 0.24256 0.08767 0.15644 0.0
C2344 C 0.29256 0.06311 0.11261 0.0
C2345 C 0.26899 0.03517 0.10657 0.0
C2346 C 0.2871 0.06058 0.12235 0.0
C2347 C 0.25825 0.02971 0.12631 0.0
C2348 C 0.23423 1.00213 0.12026 0.0
C2349 C 0.23932 1.00503 0.1105 0.0
C2350 C 0.24926 0.97937 0.15063 0.0
C2351 C 0.24488 0.01649 0.15645 0.0
C2352 C 0.25353 0.9838 0.14091 0.0
C2353 C 0.25408 0.02548 0.1367 0.0
C2354 C 0.25097 0.06275 0.1425 0.0
C2355 C 0.24625 0.05832 0.15225 0.0
H2356 H 0.30343 0.98222 0.35568 0.0
H2357 H 0.18081 0.04904 0.36019 0.0
H2358 H 0.312 0.97254 0.37257 0.0
H2359 H 0.18754 0.03748 0.377 0.0
H2360 H 0.23098 0.05041 0.40737 0.0
H2361 H 0.22225 0.05948 0.39048 0.0
H2362 H 0.29054 0.9368 0.386 0.0
H2363 H 0.30111 0.92957 0.40284 0.0
C2364 C 0.27798 0.99419 0.36031 0.0
C2365 C 0.24167 0.01664 0.35663 0.0
C2366 C 0.28264 0.98852 0.37002 0.0
C2367 C 0.25057 1.00434 0.37631 0.0
C2368 C 0.21364 0.02579 0.37252 0.0
C2369 C 0.20952 0.03221 0.36284 0.0
C2370 C 0.2439 0.02544 0.40274 0.0
C2371 C 0.26692 0.98947 0.40642 0.0
C2372 C 0.23877 0.03039 0.39302 0.0
C2373 C 0.25571 0.99893 0.38672 0.0
C2374 C 0.27791 0.9624 0.3905 0.0
C2375 C 0.28378 0.958 0.40019 0.0
H2376 H 0.33087 0.02316 0.60669 0.0
H2377 H 0.20076 0.97014 0.61058 0.0
H2378 H 0.34056 0.02595 0.62371 0.0
H2379 H 0.20953 0.97469 0.62743 0.0
H2380 H 0.24713 0.95578 0.65772 0.0
H2381 H 0.24526 0.94514 0.64081 0.0
H2382 H 0.31517 0.06723 0.63694 0.0
H2383 H 0.3189 0.0768 0.6538 0.0
C2384 C 0.30444 1.01189 0.61115 0.0
C2385 C 0.26486 0.9969 0.60721 0.0
C2386 C 0.30977 1.01391 0.62093 0.0
C2387 C 0.27572 1.00081 0.62701 0.0
C2388 C 0.2367 0.98469 0.62304 0.0
C2389 C 0.23142 0.98268 0.61331 0.0
C2390 C 0.26259 0.98012 0.6533 0.0
C2391 C 0.2828 0.01738 0.65723 0.0
C2392 C 0.26116 0.97423 0.64355 0.0
C2393 C 0.27984 1.00544 0.63743 0.0
C2394 C 0.30078 0.04222 0.64138 0.0
C2395 C 0.3023 0.04806 0.65111 0.0
H2396 H 0.2953 0.97449 0.90771 0.0
H2397 H 0.22654 0.09621 0.90327 0.0
H2398 H 0.30486 0.96631 0.89082 0.0
H2399 H 0.23795 0.08989 0.88645 0.0
H2400 H 0.22594 0.04635 0.85597 0.0
H2401 H 0.21693 0.05547 0.87287 0.0
H2402 H 0.34007 0.9882 0.87742 0.0
H2403 H 0.34719 0.97722 0.8606 0.0
C2404 C 0.28287 0.99985 0.9031 0.0
C2405 C 0.25996 0.0358 0.90681 0.0
C2406 C 0.28848 0.99542 0.89338 0.0
C2407 C 0.27214 0.02737 0.8871 0.0
C2408 C 0.25012 0.0639 0.89092 0.0
C2409 C 0.24377 0.06779 0.90061 0.0
C2410 C 0.25102 0.03378 0.86063 0.0
C2411 C 0.28705 1.01083 0.85698 0.0
C2412 C 0.24611 0.03911 0.87035 0.0
C2413 C 0.27764 0.02244 0.87667 0.0
C2414 C 0.31434 1.00055 0.87291 0.0
C2415 C 0.3187 0.99447 0.86323 0.0
H2416 H 0.78328 0.05174 0.90797 0.0
H2417 H 0.76801 0.91428 0.90148 0.0
H2418 H 0.78727 0.06847 0.89115 0.0
H2419 H 0.7728 0.9304 0.88487 0.0
H2420 H 0.7344 0.9743 0.85589 0.0
H2421 H 0.73044 0.96221 0.87274 0.0
H2422 H 0.83035 0.06091 0.87706 0.0
H2423 H 0.83363 0.07344 0.86019 0.0
C2424 C 0.78126 0.02513 0.90296 0.0
C2425 C 0.77463 0.98182 0.90605 0.0
C2426 C 0.78355 0.03461 0.89333 0.0
C2427 C 0.7796 1.00086 0.8866 0.0
C2428 C 0.77459 0.95746 0.88978 0.0
C2429 C 0.772 0.94814 0.89934 0.0
C2430 C 0.7556 0.99331 0.86043 0.0
C2431 C 0.78442 0.02469 0.85666 0.0
C2432 C 0.75345 0.98636 0.87011 0.0
C2433 C 0.7804 1.01029 0.87631 0.0
C2434 C 0.80874 0.04221 0.87255 0.0
C2435 C 0.81066 0.04936 0.86285 0.0
H2436 H 0.73439 0.09637 0.60896 0.0
H2437 H 0.8072 0.97638 0.60586 0.0
H2438 H 0.74495 0.09392 0.62589 0.0
H2439 H 0.81529 0.97127 0.62285 0.0
H2440 H 0.84671 0.98111 0.65348 0.0
H2441 H 0.84561 0.99303 0.63659 0.0
H2442 H 0.72224 0.06216 0.6394 0.0
H2443 H 0.72595 0.05271 0.65637 0.0
C2444 C 0.75268 0.06937 0.61198 0.0
C2445 C 0.77014 0.03665 0.60616 0.0
C2446 C 0.75835 0.06752 0.62171 0.0
C2447 C 0.78058 0.03207 0.62593 0.0
C2448 C 0.79868 0.99964 0.62 0.0
C2449 C 0.79397 1.00225 0.61023 0.0
C2450 C 0.81982 0.99939 0.65042 0.0
C2451 C 0.78649 0.01612 0.65618 0.0
C2452 C 0.81876 1.00586 0.64071 0.0
C2453 C 0.78354 0.02819 0.63643 0.0
C2454 C 0.75047 0.04552 0.64231 0.0
C2455 C 0.75227 0.04001 0.65207 0.0
H2456 H 0.83933 0.02905 0.40256 0.0
H2457 H 0.69881 0.03696 0.40622 0.0
H2458 H 0.82932 0.02371 0.38569 0.0
H2459 H 0.68899 0.03076 0.38933 0.0
H2460 H 0.69009 0.9678 0.35984 0.0
H2461 H 0.69907 0.97594 0.37673 0.0
H2462 H 0.8042 0.0686 0.37214 0.0
H2463 H 0.79562 0.05981 0.35518 0.0
C2464 C 0.80628 0.02996 0.39981 0.0
C2465 C 0.76993 0.03357 0.40586 0.0
C2466 C 0.80059 0.0269 0.3901 0.0
C2467 C 0.75838 0.02695 0.38614 0.0
C2468 C 0.72197 0.03017 0.39215 0.0
C2469 C 0.72765 0.03358 0.40187 0.0
C2470 C 0.71528 0.98976 0.36242 0.0
C2471 C 0.74235 1.01294 0.35615 0.0
C2472 C 0.72012 0.99477 0.37211 0.0
C2473 C 0.7524 0.02286 0.3758 0.0
C2474 C 0.77928 0.04637 0.36953 0.0
C2475 C 0.77413 0.04166 0.35982 0.0
H2476 H 0.78446 0.96616 0.15719 0.0
H2477 H 0.67709 0.0557 0.15257 0.0
H2478 H 0.79093 0.95508 0.1403 0.0
H2479 H 0.68246 0.04392 0.13575 0.0
H2480 H 0.73148 0.04598 0.1053 0.0
H2481 H 0.72447 0.0584 0.1222 0.0
H2482 H 0.75703 0.92233 0.12731 0.0
H2483 H 0.7652 0.91076 0.11057 0.0
C2484 C 0.76193 0.98307 0.15257 0.0
C2485 C 0.73046 1.01195 0.15623 0.0
C2486 C 0.76548 0.97672 0.14286 0.0
C2487 C 0.73722 0.99864 0.13657 0.0
C2488 C 0.70544 0.02714 0.1403 0.0
C2489 C 0.70223 0.0338 0.14997 0.0
C2490 C 0.73684 0.01884 0.11007 0.0
C2491 C 0.74939 0.97759 0.10661 0.0
C2492 C 0.73279 0.02581 0.11976 0.0
C2493 C 0.74064 0.99147 0.12621 0.0
C2494 C 0.75192 0.94995 0.12265 0.0
C2495 C 0.75641 0.9432 0.11302 0.0
H2496 H 0.70634 0.49781 0.6055 0.0
H2497 H 0.81936 0.58158 0.6087 0.0
H2498 H 0.69614 0.49729 0.62246 0.0
H2499 H 0.80841 0.58305 0.62561 0.0
H2500 H 0.80467 0.53809 0.6564 0.0
H2501 H 0.81509 0.5428 0.6394 0.0
H2502 H 0.67446 0.53651 0.6355 0.0
H2503 H 0.66495 0.52952 0.65236 0.0
C2504 C 0.72853 0.51672 0.60984 0.0
C2505 C 0.76373 0.5395 0.60578 0.0
C2506 C 0.7227 0.51667 0.61959 0.0
C2507 C 0.75148 0.54014 0.62552 0.0
C2508 C 0.7861 0.56377 0.62137 0.0
C2509 C 0.79229 0.56317 0.61165 0.0
C2510 C 0.77622 0.53816 0.65186 0.0
C2511 C 0.73411 0.53306 0.65565 0.0
C2512 C 0.78199 0.54095 0.64211 0.0
C2513 C 0.74562 0.53949 0.63596 0.0
C2514 C 0.70342 0.53639 0.63989 0.0
C2515 C 0.69784 0.5328 0.64958 0.0
H2516 H 0.73317 0.54448 0.90711 0.0
H2517 H 0.79601 0.41943 0.90295 0.0
H2518 H 0.72489 0.55295 0.89021 0.0
H2519 H 0.78562 0.42602 0.88608 0.0
H2520 H 0.79981 0.46834 0.85556 0.0
H2521 H 0.80845 0.45914 0.87248 0.0
H2522 H 0.68849 0.53212 0.87692 0.0
H2523 H 0.68204 0.54326 0.86009 0.0
C2524 C 0.74457 0.51851 0.90255 0.0
C2525 C 0.76541 0.48147 0.90632 0.0
C2526 C 0.73965 0.52308 0.89283 0.0
C2527 C 0.75453 0.49017 0.88663 0.0
C2528 C 0.77462 0.45267 0.89051 0.0
C2529 C 0.78037 0.44864 0.9002 0.0
C2530 C 0.77539 0.48215 0.86021 0.0
C2531 C 0.74048 0.50673 0.85655 0.0
C2532 C 0.78007 0.47679 0.86993 0.0
C2533 C 0.74931 0.49506 0.87621 0.0
C2534 C 0.71365 0.51854 0.87243 0.0
C2535 C 0.70962 0.52469 0.86276 0.0
H2536 H 0.80515 0.54793 0.10502 0.0
H2537 H 0.73941 0.42406 0.10879 0.0
H2538 H 0.81137 0.55621 0.122 0.0
H2539 H 0.74809 0.43001 0.1257 0.0
H2540 H 0.72729 0.47194 0.1559 0.0
H2541 H 0.72277 0.46288 0.13893 0.0
H2542 H 0.84337 0.5367 0.13582 0.0
H2543 H 0.84546 0.54797 0.15271 0.0
C2544 C 0.79289 0.52208 0.10953 0.0
C2545 C 0.77163 0.48554 0.10565 0.0
C2546 C 0.79657 0.52652 0.11928 0.0
C2547 C 0.78003 0.4939 0.12539 0.0
C2548 C 0.76016 0.45657 0.12137 0.0
C2549 C 0.75552 0.45279 0.11165 0.0
C2550 C 0.75273 0.486 0.15153 0.0
C2551 C 0.78653 0.51081 0.15557 0.0
C2552 C 0.75047 0.48065 0.14178 0.0
C2553 C 0.78271 0.49905 0.13584 0.0
C2554 C 0.81721 0.52291 0.14002 0.0
C2555 C 0.81874 0.52914 0.14973 0.0
H2556 H 0.73841 0.56235 0.35449 0.0
H2557 H 0.84077 0.46736 0.35945 0.0
H2558 H 0.7297 0.57201 0.37142 0.0
H2559 H 0.83159 0.47633 0.37631 0.0
H2560 H 0.83236 0.53711 0.40583 0.0
H2561 H 0.84286 0.53042 0.38896 0.0
H2562 H 0.70256 0.52874 0.38494 0.0
H2563 H 0.69186 0.53465 0.40176 0.0
C2564 C 0.75919 0.54373 0.35918 0.0
C2565 C 0.79008 0.5139 0.3556 0.0
C2566 C 0.75396 0.54894 0.36888 0.0
C2567 C 0.77985 0.52482 0.37524 0.0
C2568 C 0.81131 0.49566 0.37163 0.0
C2569 C 0.81624 0.49017 0.36196 0.0
C2570 C 0.80366 0.53486 0.4014 0.0
C2571 C 0.7612 0.53654 0.40527 0.0
C2572 C 0.80973 0.53115 0.39169 0.0
C2573 C 0.77355 0.52928 0.38557 0.0
C2574 C 0.73117 0.5309 0.38942 0.0
C2575 C 0.72508 0.53428 0.39911 0.0
H2576 H 0.35696 0.55005 0.35872 0.0
H2577 H 0.23192 0.48684 0.35473 0.0
H2578 H 0.35126 0.53918 0.37558 0.0
H2579 H 0.22428 0.47812 0.37165 0.0
H2580 H 0.23512 0.43607 0.40188 0.0
H2581 H 0.24515 0.44227 0.38501 0.0
H2582 H 0.31884 0.56228 0.38918 0.0
H2583 H 0.31076 0.5539 0.40611 0.0
C2584 C 0.32797 0.53415 0.36151 0.0
C2585 C 0.29484 0.51932 0.35544 0.0
C2586 C 0.32442 0.52817 0.3712 0.0
C2587 C 0.2871 0.50801 0.37514 0.0
C2588 C 0.25399 0.49301 0.36899 0.0
C2589 C 0.2581 0.49815 0.35926 0.0
C2590 C 0.25357 0.46363 0.39914 0.0
C2591 C 0.27211 0.49454 0.40528 0.0
C2592 C 0.25911 0.4675 0.38945 0.0
C2593 C 0.28257 0.50303 0.38557 0.0
C2594 C 0.30126 0.53393 0.39179 0.0
C2595 C 0.29651 0.52942 0.40153 0.0
H2596 H 0.34263 0.47685 0.15272 0.0
H2597 H 0.22112 0.54554 0.15728 0.0
H2598 H 0.33465 0.48628 0.13587 0.0
H2599 H 0.21113 0.55294 0.14037 0.0
H2600 H 0.21971 0.59191 0.10986 0.0
H2601 H 0.23157 0.58668 0.1267 0.0
H2602 H 0.29892 0.4631 0.12264 0.0
H2603 H 0.28905 0.47033 0.10574 0.0
C2604 C 0.3139 0.49362 0.15006 0.0
C2605 C 0.28245 0.5104 0.15629 0.0
C2606 C 0.30903 0.4988 0.14037 0.0
C2607 C 0.27199 0.52011 0.1366 0.0
C2608 C 0.24057 0.53706 0.14291 0.0
C2609 C 0.24603 0.53269 0.15262 0.0
C2610 C 0.2371 0.56372 0.11261 0.0
C2611 C 0.2534 0.53147 0.10651 0.0
C2612 C 0.24371 0.56045 0.1223 0.0
C2613 C 0.26604 0.52427 0.12619 0.0
C2614 C 0.28234 0.49197 0.12 0.0
C2615 C 0.27653 0.49583 0.11029 0.0
H2616 H 0.29038 0.57114 0.85682 0.0
H2617 H 0.19526 0.46783 0.86083 0.0
H2618 H 0.29879 0.57768 0.87385 0.0
H2619 H 0.20381 0.47406 0.87779 0.0
H2620 H 0.20004 0.52974 0.90786 0.0
H2621 H 0.18931 0.52658 0.89096 0.0
H2622 H 0.32938 0.53059 0.88681 0.0
H2623 H 0.34054 0.5326 0.90364 0.0
C2624 C 0.27104 0.55011 0.86134 0.0
C2625 C 0.24237 0.5188 0.85747 0.0
C2626 C 0.27608 0.55358 0.87108 0.0
C2627 C 0.25205 0.52628 0.87718 0.0
C2628 C 0.2226 0.49575 0.8733 0.0
C2629 C 0.21802 0.49191 0.86358 0.0
C2630 C 0.22872 0.52951 0.90341 0.0
C2631 C 0.27125 0.53157 0.90727 0.0
C2632 C 0.22247 0.52785 0.89368 0.0
C2633 C 0.25849 0.52865 0.88753 0.0
C2634 C 0.3009 0.5307 0.89134 0.0
C2635 C 0.30722 0.53185 0.90106 0.0
H2636 H 0.30067 0.47614 0.65681 0.0
H2637 H 0.17216 0.53243 0.65368 0.0
H2638 H 0.30668 0.46861 0.63982 0.0
H2639 H 0.17588 0.52215 0.63676 0.0
H2640 H 0.21482 0.54745 0.60639 0.0
H2641 H 0.20524 0.54979 0.62336 0.0
H2642 H 0.2883 0.43522 0.62611 0.0
H2643 H 0.29997 0.43563 0.60922 0.0
C2644 C 0.27326 0.48575 0.65244 0.0
C2645 C 0.23606 0.50488 0.65648 0.0
C2646 C 0.27641 0.48134 0.64268 0.0
C2647 C 0.24186 0.49502 0.63675 0.0
C2648 C 0.2038 0.51235 0.64095 0.0
C2649 C 0.20127 0.51779 0.65067 0.0
C2650 C 0.23062 0.52275 0.61068 0.0
C2651 C 0.25825 0.49156 0.60656 0.0
C2652 C 0.22504 0.52375 0.62043 0.0
C2653 C 0.24611 0.49276 0.62627 0.0
C2654 C 0.27241 0.46046 0.62199 0.0
C2655 C 0.27884 0.46029 0.61229 0.0
loop_
_geom_bond_atom_site_label_1
_geom_bond_atom_site_label_2
_geom_bond_distance
_geom_bond_site_symmetry_2
_ccdc_geom_bond_type
Co0 N4 2.148 . S
Co0 N10 2.128 . S
Co0 N20 2.194 . S
Co0 O25 2.351 . S
Co0 O26 2.155 1_545 S
Co0 O27 2.096 1_545 S
C1 N4 1.301 . S
C1 N5 1.328 . S
C1 H6 0.930 . S
C2 C3 1.333 . S
C2 N4 1.317 . S
C2 H7 0.930 1_545 S
C3 C2 1.333 . S
C3 N5 1.350 . S
C3 H29 0.939 . S
N4 Co0 2.148 . S
N4 C1 1.301 . S
N4 C2 1.317 . S
N5 C1 1.328 . S
N5 C3 1.350 . S
H6 C1 0.930 . S
H7 C2 0.930 1_565 S
C8 O9 1.224 1_465 S
C8 O27 1.247 . S
O9 C8 1.224 1_645 S
N10 Co0 2.128 . S
N10 C11 1.355 . S
N10 C13 1.309 . S
C11 N10 1.355 . S
C11 C12 1.363 . S
C11 H23 0.929 . S
C12 C11 1.363 . S
C12 N14 1.375 . S
C12 H30 0.931 . S
C13 N10 1.309 . S
C13 N14 1.347 . S
C13 H24 0.931 1_545 S
N14 C12 1.375 . S
N14 C13 1.347 . S
C15 C18 1.365 . S
C15 N20 1.328 . S
C15 H21 0.929 . S
C16 C17 1.362 . S
C16 C19 1.378 . S
C16 H31 0.929 1_455 S
C17 C16 1.362 . S
C17 C18 1.366 . S
C18 C15 1.365 . S
C18 C17 1.366 . S
C18 H32 0.930 . S
C19 C16 1.378 . S
C19 N20 1.315 . S
C19 H22 0.930 . S
N20 Co0 2.194 . S
N20 C15 1.328 . S
N20 C19 1.315 . S
H21 C15 0.929 . S
H22 C19 0.930 . S
H23 C11 0.929 . S
H24 C13 0.931 1_565 S
O25 Co0 2.351 . S
O25 C28 1.244 . S
O26 Co0 2.155 1_565 S
O26 C28 1.240 1_565 S
O27 Co0 2.096 1_565 S
O27 C8 1.247 . S
C28 O25 1.244 . S
C28 O26 1.240 1_545 S
H29 C3 0.939 . S
H30 C12 0.931 . S
H31 C16 0.929 1_655 S
H32 C18 0.930 . S
Co33 N37 2.148 . S
Co33 N43 2.128 . S
Co33 N53 2.194 . S
Co33 O58 2.351 . S
Co33 O59 2.155 . S
Co33 O60 2.096 . S
C34 N37 1.301 . S
C34 N38 1.328 . S
C34 H39 0.930 . S
C35 C36 1.333 . S
C35 N37 1.317 . S
C35 H40 0.930 . S
C36 C35 1.333 . S
C36 N38 1.350 . S
C36 H62 0.931 . S
N37 Co33 2.148 . S
N37 C34 1.301 . S
N37 C35 1.317 . S
N38 C34 1.328 . S
N38 C36 1.350 . S
H39 C34 0.930 . S
H40 C35 0.930 . S
C41 O42 1.224 . S
C41 O60 1.247 . S
O42 C41 1.224 . S
N43 Co33 2.128 . S
N43 C44 1.355 . S
N43 C46 1.311 . S
C44 N43 1.355 . S
C44 C45 1.363 . S
C44 H56 0.929 . S
C45 C44 1.363 . S
C45 N47 1.375 . S
C45 H63 0.931 . S
C46 N43 1.311 . S
C46 N47 1.347 . S
C46 H57 0.929 . S
N47 C45 1.375 . S
N47 C46 1.347 . S
C48 C51 1.365 . S
C48 N53 1.328 . S
C48 H54 0.929 . S
C49 C50 1.362 . S
C49 C52 1.378 . S
C49 H64 0.929 . S
C50 C49 1.362 . S
C50 C51 1.366 . S
C51 C48 1.365 . S
C51 C50 1.366 . S
C51 H65 0.930 . S
C52 C49 1.378 . S
C52 N53 1.315 . S
C52 H55 0.930 . S
N53 Co33 2.194 . S
N53 C48 1.328 . S
N53 C52 1.315 . S
H54 C48 0.929 . S
H55 C52 0.930 . S
H56 C44 0.929 . S
H57 C46 0.929 . S
O58 Co33 2.351 . S
O58 C61 1.244 . S
O59 Co33 2.155 . S
O59 C61 1.240 . S
O60 Co33 2.096 . S
O60 C41 1.247 . S
C61 O58 1.244 . S
C61 O59 1.240 . S
H62 C36 0.931 . S
H63 C45 0.931 . S
H64 C49 0.929 . S
H65 C51 0.930 . S
Co66 N70 2.148 . S
Co66 N76 2.128 . S
Co66 N86 2.194 . S
Co66 O91 2.351 . S
Co66 O92 2.155 1_565 S
Co66 O93 2.096 1_565 S
C67 N70 1.301 . S
C67 N71 1.328 . S
C67 H72 0.930 . S
C68 C69 1.333 . S
C68 N70 1.317 . S
C68 H73 0.930 1_565 S
C69 C68 1.333 . S
C69 N71 1.350 . S
C69 H95 0.939 . S
N70 Co66 2.148 . S
N70 C67 1.301 . S
N70 C68 1.317 . S
N71 C67 1.328 . S
N71 C69 1.350 . S
H72 C67 0.930 . S
H73 C68 0.930 1_545 S
C74 O75 1.224 1_545 S
C74 O93 1.247 . S
O75 C74 1.224 1_565 S
N76 Co66 2.128 . S
N76 C77 1.355 . S
N76 C79 1.309 . S
C77 N76 1.355 . S
C77 C78 1.363 . S
C77 H89 0.929 . S
C78 C77 1.363 . S
C78 N80 1.375 . S
C78 H96 0.931 . S
C79 N76 1.309 . S
C79 N80 1.347 . S
C79 H90 0.931 1_565 S
N80 C78 1.375 . S
N80 C79 1.347 . S
C81 C84 1.365 . S
C81 N86 1.328 . S
C81 H87 0.929 . S
C82 C83 1.362 . S
C82 C85 1.378 . S
C82 H97 0.929 . S
C83 C82 1.362 . S
C83 C84 1.366 . S
C84 C81 1.365 . S
C84 C83 1.366 . S
C84 H98 0.930 . S
C85 C82 1.378 . S
C85 N86 1.315 . S
C85 H88 0.930 . S
N86 Co66 2.194 . S
N86 C81 1.328 . S
N86 C85 1.315 . S
H87 C81 0.929 . S
H88 C85 0.930 . S
H89 C77 0.929 . S
H90 C79 0.931 1_545 S
O91 Co66 2.351 . S
O91 C94 1.244 . S
O92 Co66 2.155 1_545 S
O92 C94 1.240 1_545 S
O93 Co66 2.096 1_545 S
O93 C74 1.247 . S
C94 O91 1.244 . S
C94 O92 1.240 1_565 S
H95 C69 0.939 . S
H96 C78 0.931 . S
H97 C82 0.929 . S
H98 C84 0.930 . S
Co99 N103 2.148 . S
Co99 N109 2.128 . S
Co99 N119 2.194 . S
Co99 O124 2.351 . S
Co99 O125 2.155 . S
Co99 O126 2.096 . S
C100 N103 1.301 . S
C100 N104 1.328 . S
C100 H105 0.930 . S
C101 C102 1.333 . S
C101 N103 1.317 . S
C101 H106 0.930 . S
C102 C101 1.333 . S
C102 N104 1.350 . S
C102 H128 0.931 . S
N103 Co99 2.148 . S
N103 C100 1.301 . S
N103 C101 1.317 . S
N104 C100 1.328 . S
N104 C102 1.350 . S
H105 C100 0.930 . S
H106 C101 0.930 . S
C107 O108 1.224 . S
C107 O126 1.247 . S
O108 C107 1.224 . S
N109 Co99 2.128 . S
N109 C110 1.355 . S
N109 C112 1.311 . S
C110 N109 1.355 . S
C110 C111 1.363 . S
C110 H122 0.929 . S
C111 C110 1.363 . S
C111 N113 1.375 . S
C111 H129 0.931 . S
C112 N109 1.311 . S
C112 N113 1.347 . S
C112 H123 0.929 . S
N113 C111 1.375 . S
N113 C112 1.347 . S
C114 C117 1.365 . S
C114 N119 1.328 . S
C114 H120 0.929 . S
C115 C116 1.362 . S
C115 C118 1.378 . S
C115 H130 0.929 . S
C116 C115 1.362 . S
C116 C117 1.366 . S
C117 C114 1.365 . S
C117 C116 1.366 . S
C117 H131 0.930 . S
C118 C115 1.378 . S
C118 N119 1.315 . S
C118 H121 0.930 . S
N119 Co99 2.194 . S
N119 C114 1.328 . S
N119 C118 1.315 . S
H120 C114 0.929 . S
H121 C118 0.930 . S
H122 C110 0.929 . S
H123 C112 0.929 . S
O124 Co99 2.351 . S
O124 C127 1.244 . S
O125 Co99 2.155 . S
O125 C127 1.240 . S
O126 Co99 2.096 . S
O126 C107 1.247 . S
C127 O124 1.244 . S
C127 O125 1.240 . S
H128 C102 0.931 . S
H129 C111 0.931 . S
H130 C115 0.929 . S
H131 C117 0.930 . S
Co132 N136 2.148 . S
Co132 N142 2.128 . S
Co132 N152 2.194 . S
Co132 O157 2.351 . S
Co132 O158 2.155 1_565 S
Co132 O159 2.096 1_565 S
C133 N136 1.301 . S
C133 N137 1.328 . S
C133 H138 0.930 . S
C134 C135 1.333 . S
C134 N136 1.317 . S
C134 H139 0.930 1_565 S
C135 C134 1.333 . S
C135 N137 1.350 . S
C135 H161 0.939 . S
N136 Co132 2.148 . S
N136 C133 1.301 . S
N136 C134 1.317 . S
N137 C133 1.328 . S
N137 C135 1.350 . S
H138 C133 0.930 . S
H139 C134 0.930 1_545 S
C140 O141 1.224 1_445 S
C140 O159 1.247 . S
O141 C140 1.224 1_665 S
N142 Co132 2.128 . S
N142 C143 1.355 . S
N142 C145 1.309 . S
C143 N142 1.355 . S
C143 C144 1.363 . S
C143 H155 0.929 . S
C144 C143 1.363 . S
C144 N146 1.375 . S
C144 H162 0.931 . S
C145 N142 1.309 . S
C145 N146 1.347 . S
C145 H156 0.931 1_565 S
N146 C144 1.375 . S
N146 C145 1.347 . S
C147 C150 1.365 . S
C147 N152 1.328 . S
C147 H153 0.929 . S
C148 C149 1.362 . S
C148 C151 1.378 . S
C148 H163 0.929 1_455 S
C149 C148 1.362 . S
C149 C150 1.366 . S
C150 C147 1.365 . S
C150 C149 1.366 . S
C150 H164 0.930 . S
C151 C148 1.378 . S
C151 N152 1.315 . S
C151 H154 0.930 . S
N152 Co132 2.194 . S
N152 C147 1.328 . S
N152 C151 1.315 . S
H153 C147 0.929 . S
H154 C151 0.930 . S
H155 C143 0.929 . S
H156 C145 0.931 1_545 S
O157 Co132 2.351 . S
O157 C160 1.244 . S
O158 Co132 2.155 1_545 S
O158 C160 1.240 1_545 S
O159 Co132 2.096 1_545 S
O159 C140 1.247 . S
C160 O157 1.244 . S
C160 O158 1.240 1_565 S
H161 C135 0.939 . S
H162 C144 0.931 . S
H163 C148 0.929 1_655 S
H164 C150 0.930 . S
Co165 N169 2.148 . S
Co165 N175 2.128 . S
Co165 N185 2.194 . S
Co165 O190 2.351 . S
Co165 O191 2.155 . S
Co165 O192 2.096 . S
C166 N169 1.301 . S
C166 N170 1.328 . S
C166 H171 0.930 . S
C167 C168 1.333 . S
C167 N169 1.317 . S
C167 H172 0.930 . S
C168 C167 1.333 . S
C168 N170 1.350 . S
C168 H194 0.931 . S
N169 Co165 2.148 . S
N169 C166 1.301 . S
N169 C167 1.317 . S
N170 C166 1.328 . S
N170 C168 1.350 . S
H171 C166 0.930 . S
H172 C167 0.930 . S
C173 O174 1.224 . S
C173 O192 1.247 . S
O174 C173 1.224 . S
N175 Co165 2.128 . S
N175 C176 1.355 . S
N175 C178 1.311 . S
C176 N175 1.355 . S
C176 C177 1.363 . S
C176 H188 0.929 . S
C177 C176 1.363 . S
C177 N179 1.375 . S
C177 H195 0.931 . S
C178 N175 1.311 . S
C178 N179 1.347 . S
C178 H189 0.929 . S
N179 C177 1.375 . S
N179 C178 1.347 . S
C180 C183 1.365 . S
C180 N185 1.328 . S
C180 H186 0.929 . S
C181 C182 1.362 . S
C181 C184 1.378 . S
C181 H196 0.929 . S
C182 C181 1.362 . S
C182 C183 1.366 . S
C183 C180 1.365 . S
C183 C182 1.366 . S
C183 H197 0.930 . S
C184 C181 1.378 . S
C184 N185 1.315 . S
C184 H187 0.930 . S
N185 Co165 2.194 . S
N185 C180 1.328 . S
N185 C184 1.315 . S
H186 C180 0.929 . S
H187 C184 0.930 . S
H188 C176 0.929 . S
H189 C178 0.929 . S
O190 Co165 2.351 . S
O190 C193 1.244 . S
O191 Co165 2.155 . S
O191 C193 1.240 . S
O192 Co165 2.096 . S
O192 C173 1.247 . S
C193 O190 1.244 . S
C193 O191 1.240 . S
H194 C168 0.931 . S
H195 C177 0.931 . S
H196 C181 0.929 . S
H197 C183 0.930 . S
Co198 N202 2.148 . S
Co198 N208 2.128 . S
Co198 N218 2.194 . S
Co198 O223 2.351 . S
Co198 O224 2.155 1_545 S
Co198 O225 2.096 1_545 S
C199 N202 1.301 . S
C199 N203 1.328 . S
C199 H204 0.930 . S
C200 C201 1.333 . S
C200 N202 1.317 . S
C200 H205 0.930 1_545 S
C201 C200 1.333 . S
C201 N203 1.350 . S
C201 H227 0.939 . S
N202 Co198 2.148 . S
N202 C199 1.301 . S
N202 C200 1.317 . S
N203 C199 1.328 . S
N203 C201 1.350 . S
H204 C199 0.930 . S
H205 C200 0.930 1_565 S
C206 O207 1.224 1_565 S
C206 O225 1.247 . S
O207 C206 1.224 1_545 S
N208 Co198 2.128 . S
N208 C209 1.355 . S
N208 C211 1.309 . S
C209 N208 1.355 . S
C209 C210 1.363 . S
C209 H221 0.929 . S
C210 C209 1.363 . S
C210 N212 1.375 . S
C210 H228 0.931 . S
C211 N208 1.309 . S
C211 N212 1.347 . S
C211 H222 0.931 1_545 S
N212 C210 1.375 . S
N212 C211 1.347 . S
C213 C216 1.365 . S
C213 N218 1.328 . S
C213 H219 0.929 . S
C214 C215 1.362 . S
C214 C217 1.378 . S
C214 H229 0.929 . S
C215 C214 1.362 . S
C215 C216 1.366 . S
C216 C213 1.365 . S
C216 C215 1.366 . S
C216 H230 0.930 . S
C217 C214 1.378 . S
C217 N218 1.315 . S
C217 H220 0.930 . S
N218 Co198 2.194 . S
N218 C213 1.328 . S
N218 C217 1.315 . S
H219 C213 0.929 . S
H220 C217 0.930 . S
H221 C209 0.929 . S
H222 C211 0.931 1_565 S
O223 Co198 2.351 . S
O223 C226 1.244 . S
O224 Co198 2.155 1_565 S
O224 C226 1.240 1_565 S
O225 Co198 2.096 1_565 S
O225 C206 1.247 . S
C226 O223 1.244 . S
C226 O224 1.240 1_545 S
H227 C201 0.939 . S
H228 C210 0.931 . S
H229 C214 0.929 . S
H230 C216 0.930 . S
Co231 N235 2.148 . S
Co231 N241 2.128 . S
Co231 N251 2.194 . S
Co231 O256 2.351 . S
Co231 O257 2.155 . S
Co231 O258 2.096 . S
C232 N235 1.301 . S
C232 N236 1.328 . S
C232 H237 0.930 . S
C233 C234 1.333 . S
C233 N235 1.317 . S
C233 H238 0.930 . S
C234 C233 1.333 . S
C234 N236 1.350 . S
C234 H260 0.931 . S
N235 Co231 2.148 . S
N235 C232 1.301 . S
N235 C233 1.317 . S
N236 C232 1.328 . S
N236 C234 1.350 . S
H237 C232 0.930 . S
H238 C233 0.930 . S
C239 O240 1.224 . S
C239 O258 1.247 . S
O240 C239 1.224 . S
N241 Co231 2.128 . S
N241 C242 1.355 . S
N241 C244 1.311 . S
C242 N241 1.355 . S
C242 C243 1.363 . S
C242 H254 0.929 . S
C243 C242 1.363 . S
C243 N245 1.375 . S
C243 H261 0.931 . S
C244 N241 1.311 . S
C244 N245 1.347 . S
C244 H255 0.929 . S
N245 C243 1.375 . S
N245 C244 1.347 . S
C246 C249 1.365 . S
C246 N251 1.328 . S
C246 H252 0.929 . S
C247 C248 1.362 . S
C247 C250 1.378 . S
C247 H262 0.929 . S
C248 C247 1.362 . S
C248 C249 1.366 . S
C249 C246 1.365 . S
C249 C248 1.366 . S
C249 H263 0.930 . S
C250 C247 1.378 . S
C250 N251 1.315 . S
C250 H253 0.930 . S
N251 Co231 2.194 . S
N251 C246 1.328 . S
N251 C250 1.315 . S
H252 C246 0.929 . S
H253 C250 0.930 . S
H254 C242 0.929 . S
H255 C244 0.929 . S
O256 Co231 2.351 . S
O256 C259 1.244 . S
O257 Co231 2.155 . S
O257 C259 1.240 . S
O258 Co231 2.096 . S
O258 C239 1.247 . S
C259 O256 1.244 . S
C259 O257 1.240 . S
H260 C234 0.931 . S
H261 C243 0.931 . S
H262 C247 0.929 . S
H263 C249 0.930 . S
Co264 N268 2.148 . S
Co264 N274 2.128 . S
Co264 N284 2.194 . S
Co264 O289 2.351 . S
Co264 O290 2.155 1_565 S
Co264 O291 2.096 1_565 S
C265 N268 1.301 . S
C265 N269 1.328 . S
C265 H270 0.930 . S
C266 C267 1.333 . S
C266 N268 1.317 . S
C266 H271 0.930 1_565 S
C267 C266 1.333 . S
C267 N269 1.350 . S
C267 H293 0.939 . S
N268 Co264 2.148 . S
N268 C265 1.301 . S
N268 C266 1.317 . S
N269 C265 1.328 . S
N269 C267 1.350 . S
H270 C265 0.930 . S
H271 C266 0.930 1_545 S
C272 O273 1.224 1_645 S
C272 O291 1.247 . S
O273 C272 1.224 1_465 S
N274 Co264 2.128 . S
N274 C275 1.355 . S
N274 C277 1.309 . S
C275 N274 1.355 . S
C275 C276 1.363 . S
C275 H287 0.929 . S
C276 C275 1.363 . S
C276 N278 1.375 . S
C276 H294 0.931 . S
C277 N274 1.309 . S
C277 N278 1.347 . S
C277 H288 0.931 1_565 S
N278 C276 1.375 . S
N278 C277 1.347 . S
C279 C282 1.365 . S
C279 N284 1.328 . S
C279 H285 0.929 . S
C280 C281 1.362 . S
C280 C283 1.378 . S
C280 H295 0.929 1_655 S
C281 C280 1.362 . S
C281 C282 1.366 . S
C282 C279 1.365 . S
C282 C281 1.366 . S
C282 H296 0.930 . S
C283 C280 1.378 . S
C283 N284 1.315 . S
C283 H286 0.930 . S
N284 Co264 2.194 . S
N284 C279 1.328 . S
N284 C283 1.315 . S
H285 C279 0.929 . S
H286 C283 0.930 . S
H287 C275 0.929 . S
H288 C277 0.931 1_545 S
O289 Co264 2.351 . S
O289 C292 1.244 . S
O290 Co264 2.155 1_545 S
O290 C292 1.240 1_545 S
O291 Co264 2.096 1_545 S
O291 C272 1.247 . S
C292 O289 1.244 . S
C292 O290 1.240 1_565 S
H293 C267 0.939 . S
H294 C276 0.931 . S
H295 C280 0.929 1_455 S
H296 C282 0.930 . S
Co297 N301 2.148 . S
Co297 N307 2.128 . S
Co297 N317 2.194 . S
Co297 O322 2.351 . S
Co297 O323 2.155 . S
Co297 O324 2.096 . S
C298 N301 1.301 . S
C298 N302 1.328 . S
C298 H303 0.930 . S
C299 C300 1.333 . S
C299 N301 1.317 . S
C299 H304 0.930 . S
C300 C299 1.333 . S
C300 N302 1.350 . S
C300 H326 0.931 . S
N301 Co297 2.148 . S
N301 C298 1.301 . S
N301 C299 1.317 . S
N302 C298 1.328 . S
N302 C300 1.350 . S
H303 C298 0.930 . S
H304 C299 0.930 . S
C305 O306 1.224 . S
C305 O324 1.247 . S
O306 C305 1.224 . S
N307 Co297 2.128 . S
N307 C308 1.355 . S
N307 C310 1.311 . S
C308 N307 1.355 . S
C308 C309 1.363 . S
C308 H320 0.929 . S
C309 C308 1.363 . S
C309 N311 1.375 . S
C309 H327 0.931 . S
C310 N307 1.311 . S
C310 N311 1.347 . S
C310 H321 0.929 . S
N311 C309 1.375 . S
N311 C310 1.347 . S
C312 C315 1.365 . S
C312 N317 1.328 . S
C312 H318 0.929 . S
C313 C314 1.362 . S
C313 C316 1.378 . S
C313 H328 0.929 . S
C314 C313 1.362 . S
C314 C315 1.366 . S
C315 C312 1.365 . S
C315 C314 1.366 . S
C315 H329 0.930 . S
C316 C313 1.378 . S
C316 N317 1.315 . S
C316 H319 0.930 . S
N317 Co297 2.194 . S
N317 C312 1.328 . S
N317 C316 1.315 . S
H318 C312 0.929 . S
H319 C316 0.930 . S
H320 C308 0.929 . S
H321 C310 0.929 . S
O322 Co297 2.351 . S
O322 C325 1.244 . S
O323 Co297 2.155 . S
O323 C325 1.240 . S
O324 Co297 2.096 . S
O324 C305 1.247 . S
C325 O322 1.244 . S
C325 O323 1.240 . S
H326 C300 0.931 . S
H327 C309 0.931 . S
H328 C313 0.929 . S
H329 C315 0.930 . S
Co330 N334 2.148 . S
Co330 N340 2.128 . S
Co330 N350 2.194 . S
Co330 O355 2.351 . S
Co330 O356 2.155 1_545 S
Co330 O357 2.096 1_545 S
C331 N334 1.301 . S
C331 N335 1.328 . S
C331 H336 0.930 . S
C332 C333 1.333 . S
C332 N334 1.317 . S
C332 H337 0.930 1_545 S
C333 C332 1.333 . S
C333 N335 1.350 . S
C333 H359 0.939 . S
N334 Co330 2.148 . S
N334 C331 1.301 . S
N334 C332 1.317 . S
N335 C331 1.328 . S
N335 C333 1.350 . S
H336 C331 0.930 . S
H337 C332 0.930 1_565 S
C338 O339 1.224 1_565 S
C338 O357 1.247 . S
O339 C338 1.224 1_545 S
N340 Co330 2.128 . S
N340 C341 1.355 . S
N340 C343 1.309 . S
C341 N340 1.355 . S
C341 C342 1.363 . S
C341 H353 0.929 . S
C342 C341 1.363 . S
C342 N344 1.375 . S
C342 H360 0.931 . S
C343 N340 1.309 . S
C343 N344 1.347 . S
C343 H354 0.931 1_545 S
N344 C342 1.375 . S
N344 C343 1.347 . S
C345 C348 1.365 . S
C345 N350 1.328 . S
C345 H351 0.929 . S
C346 C347 1.362 . S
C346 C349 1.378 . S
C346 H361 0.929 . S
C347 C346 1.362 . S
C347 C348 1.366 . S
C348 C345 1.365 . S
C348 C347 1.366 . S
C348 H362 0.930 . S
C349 C346 1.378 . S
C349 N350 1.315 . S
C349 H352 0.930 . S
N350 Co330 2.194 . S
N350 C345 1.328 . S
N350 C349 1.315 . S
H351 C345 0.929 . S
H352 C349 0.930 . S
H353 C341 0.929 . S
H354 C343 0.931 1_565 S
O355 Co330 2.351 . S
O355 C358 1.244 . S
O356 Co330 2.155 1_565 S
O356 C358 1.240 1_565 S
O357 Co330 2.096 1_565 S
O357 C338 1.247 . S
C358 O355 1.244 . S
C358 O356 1.240 1_545 S
H359 C333 0.939 . S
H360 C342 0.931 . S
H361 C346 0.929 . S
H362 C348 0.930 . S
Co363 N367 2.148 . S
Co363 N373 2.128 . S
Co363 N383 2.194 . S
Co363 O388 2.351 . S
Co363 O389 2.155 . S
Co363 O390 2.096 . S
C364 N367 1.301 . S
C364 N368 1.328 . S
C364 H369 0.930 . S
C365 C366 1.333 . S
C365 N367 1.317 . S
C365 H370 0.930 . S
C366 C365 1.333 . S
C366 N368 1.350 . S
C366 H392 0.931 . S
N367 Co363 2.148 . S
N367 C364 1.301 . S
N367 C365 1.317 . S
N368 C364 1.328 . S
N368 C366 1.350 . S
H369 C364 0.930 . S
H370 C365 0.930 . S
C371 O372 1.224 . S
C371 O390 1.247 . S
O372 C371 1.224 . S
N373 Co363 2.128 . S
N373 C374 1.355 . S
N373 C376 1.311 . S
C374 N373 1.355 . S
C374 C375 1.363 . S
C374 H386 0.929 . S
C375 C374 1.363 . S
C375 N377 1.375 . S
C375 H393 0.931 . S
C376 N373 1.311 . S
C376 N377 1.347 . S
C376 H387 0.929 . S
N377 C375 1.375 . S
N377 C376 1.347 . S
C378 C381 1.365 . S
C378 N383 1.328 . S
C378 H384 0.929 . S
C379 C380 1.362 . S
C379 C382 1.378 . S
C379 H394 0.929 . S
C380 C379 1.362 . S
C380 C381 1.366 . S
C381 C378 1.365 . S
C381 C380 1.366 . S
C381 H395 0.930 . S
C382 C379 1.378 . S
C382 N383 1.315 . S
C382 H385 0.930 . S
N383 Co363 2.194 . S
N383 C378 1.328 . S
N383 C382 1.315 . S
H384 C378 0.929 . S
H385 C382 0.930 . S
H386 C374 0.929 . S
H387 C376 0.929 . S
O388 Co363 2.351 . S
O388 C391 1.244 . S
O389 Co363 2.155 . S
O389 C391 1.240 . S
O390 Co363 2.096 . S
O390 C371 1.247 . S
C391 O388 1.244 . S
C391 O389 1.240 . S
H392 C366 0.931 . S
H393 C375 0.931 . S
H394 C379 0.929 . S
H395 C381 0.930 . S
Co396 N400 2.148 . S
Co396 N406 2.128 . S
Co396 N416 2.194 . S
Co396 O421 2.351 . S
Co396 O422 2.155 1_545 S
Co396 O423 2.096 1_545 S
C397 N400 1.301 . S
C397 N401 1.328 . S
C397 H402 0.930 . S
C398 C399 1.333 . S
C398 N400 1.317 . S
C398 H403 0.930 1_545 S
C399 C398 1.333 . S
C399 N401 1.350 . S
C399 H425 0.939 . S
N400 Co396 2.148 . S
N400 C397 1.301 . S
N400 C398 1.317 . S
N401 C397 1.328 . S
N401 C399 1.350 . S
H402 C397 0.930 . S
H403 C398 0.930 1_565 S
C404 O405 1.224 1_665 S
C404 O423 1.247 . S
O405 C404 1.224 1_445 S
N406 Co396 2.128 . S
N406 C407 1.355 . S
N406 C409 1.309 . S
C407 N406 1.355 . S
C407 C408 1.363 . S
C407 H419 0.929 . S
C408 C407 1.363 . S
C408 N410 1.375 . S
C408 H426 0.931 . S
C409 N406 1.309 . S
C409 N410 1.347 . S
C409 H420 0.931 1_545 S
N410 C408 1.375 . S
N410 C409 1.347 . S
C411 C414 1.365 . S
C411 N416 1.328 . S
C411 H417 0.929 . S
C412 C413 1.362 . S
C412 C415 1.378 . S
C412 H427 0.929 1_655 S
C413 C412 1.362 . S
C413 C414 1.366 . S
C414 C411 1.365 . S
C414 C413 1.366 . S
C414 H428 0.930 . S
C415 C412 1.378 . S
C415 N416 1.315 . S
C415 H418 0.930 . S
N416 Co396 2.194 . S
N416 C411 1.328 . S
N416 C415 1.315 . S
H417 C411 0.929 . S
H418 C415 0.930 . S
H419 C407 0.929 . S
H420 C409 0.931 1_565 S
O421 Co396 2.351 . S
O421 C424 1.244 . S
O422 Co396 2.155 1_565 S
O422 C424 1.240 1_565 S
O423 Co396 2.096 1_565 S
O423 C404 1.247 . S
C424 O421 1.244 . S
C424 O422 1.240 1_545 S
H425 C399 0.939 . S
H426 C408 0.931 . S
H427 C412 0.929 1_455 S
H428 C414 0.930 . S
Co429 N433 2.148 . S
Co429 N439 2.128 . S
Co429 N449 2.194 . S
Co429 O454 2.351 . S
Co429 O455 2.155 . S
Co429 O456 2.096 . S
C430 N433 1.301 . S
C430 N434 1.328 . S
C430 H435 0.930 . S
C431 C432 1.333 . S
C431 N433 1.317 . S
C431 H436 0.930 . S
C432 C431 1.333 . S
C432 N434 1.350 . S
C432 H458 0.931 . S
N433 Co429 2.148 . S
N433 C430 1.301 . S
N433 C431 1.317 . S
N434 C430 1.328 . S
N434 C432 1.350 . S
H435 C430 0.930 . S
H436 C431 0.930 . S
C437 O438 1.224 . S
C437 O456 1.247 . S
O438 C437 1.224 . S
N439 Co429 2.128 . S
N439 C440 1.355 . S
N439 C442 1.311 . S
C440 N439 1.355 . S
C440 C441 1.363 . S
C440 H452 0.929 . S
C441 C440 1.363 . S
C441 N443 1.375 . S
C441 H459 0.931 . S
C442 N439 1.311 . S
C442 N443 1.347 . S
C442 H453 0.929 . S
N443 C441 1.375 . S
N443 C442 1.347 . S
C444 C447 1.365 . S
C444 N449 1.328 . S
C444 H450 0.929 . S
C445 C446 1.362 . S
C445 C448 1.378 . S
C445 H460 0.929 . S
C446 C445 1.362 . S
C446 C447 1.366 . S
C447 C444 1.365 . S
C447 C446 1.366 . S
C447 H461 0.930 . S
C448 C445 1.378 . S
C448 N449 1.315 . S
C448 H451 0.930 . S
N449 Co429 2.194 . S
N449 C444 1.328 . S
N449 C448 1.315 . S
H450 C444 0.929 . S
H451 C448 0.930 . S
H452 C440 0.929 . S
H453 C442 0.929 . S
O454 Co429 2.351 . S
O454 C457 1.244 . S
O455 Co429 2.155 . S
O455 C457 1.240 . S
O456 Co429 2.096 . S
O456 C437 1.247 . S
C457 O454 1.244 . S
C457 O455 1.240 . S
H458 C432 0.931 . S
H459 C441 0.931 . S
H460 C445 0.929 . S
H461 C447 0.930 . S
Co462 N466 2.148 . S
Co462 N472 2.128 . S
Co462 N482 2.194 . S
Co462 O487 2.351 . S
Co462 O488 2.155 1_565 S
Co462 O489 2.096 1_565 S
C463 N466 1.301 . S
C463 N467 1.328 . S
C463 H468 0.930 . S
C464 C465 1.333 . S
C464 N466 1.317 . S
C464 H469 0.930 1_565 S
C465 C464 1.333 . S
C465 N467 1.350 . S
C465 H491 0.939 . S
N466 Co462 2.148 . S
N466 C463 1.301 . S
N466 C464 1.317 . S
N467 C463 1.328 . S
N467 C465 1.350 . S
H468 C463 0.930 . S
H469 C464 0.930 1_545 S
C470 O471 1.224 1_545 S
C470 O489 1.247 . S
O471 C470 1.224 1_565 S
N472 Co462 2.128 . S
N472 C473 1.355 . S
N472 C475 1.309 . S
C473 N472 1.355 . S
C473 C474 1.363 . S
C473 H485 0.929 . S
C474 C473 1.363 . S
C474 N476 1.375 . S
C474 H492 0.931 . S
C475 N472 1.309 . S
C475 N476 1.347 . S
C475 H486 0.931 1_565 S
N476 C474 1.375 . S
N476 C475 1.347 . S
C477 C480 1.365 . S
C477 N482 1.328 . S
C477 H483 0.929 . S
C478 C479 1.362 . S
C478 C481 1.378 . S
C478 H493 0.929 . S
C479 C478 1.362 . S
C479 C480 1.366 . S
C480 C477 1.365 . S
C480 C479 1.366 . S
C480 H494 0.930 . S
C481 C478 1.378 . S
C481 N482 1.315 . S
C481 H484 0.930 . S
N482 Co462 2.194 . S
N482 C477 1.328 . S
N482 C481 1.315 . S
H483 C477 0.929 . S
H484 C481 0.930 . S
H485 C473 0.929 . S
H486 C475 0.931 1_545 S
O487 Co462 2.351 . S
O487 C490 1.244 . S
O488 Co462 2.155 1_545 S
O488 C490 1.240 1_545 S
O489 Co462 2.096 1_545 S
O489 C470 1.247 . S
C490 O487 1.244 . S
C490 O488 1.240 1_565 S
H491 C465 0.939 . S
H492 C474 0.931 . S
H493 C478 0.929 . S
H494 C480 0.930 . S
Co495 N499 2.148 . S
Co495 N505 2.128 . S
Co495 N515 2.194 . S
Co495 O520 2.351 . S
Co495 O521 2.155 . S
Co495 O522 2.096 . S
C496 N499 1.301 . S
C496 N500 1.328 . S
C496 H501 0.930 . S
C497 C498 1.333 . S
C497 N499 1.317 . S
C497 H502 0.930 . S
C498 C497 1.333 . S
C498 N500 1.350 . S
C498 H524 0.931 . S
N499 Co495 2.148 . S
N499 C496 1.301 . S
N499 C497 1.317 . S
N500 C496 1.328 . S
N500 C498 1.350 . S
H501 C496 0.930 . S
H502 C497 0.930 . S
C503 O504 1.224 . S
C503 O522 1.247 . S
O504 C503 1.224 . S
N505 Co495 2.128 . S
N505 C506 1.355 . S
N505 C508 1.311 . S
C506 N505 1.355 . S
C506 C507 1.363 . S
C506 H518 0.929 . S
C507 C506 1.363 . S
C507 N509 1.375 . S
C507 H525 0.931 . S
C508 N505 1.311 . S
C508 N509 1.347 . S
C508 H519 0.929 . S
N509 C507 1.375 . S
N509 C508 1.347 . S
C510 C513 1.365 . S
C510 N515 1.328 . S
C510 H516 0.929 . S
C511 C512 1.362 . S
C511 C514 1.378 . S
C511 H526 0.929 . S
C512 C511 1.362 . S
C512 C513 1.366 . S
C513 C510 1.365 . S
C513 C512 1.366 . S
C513 H527 0.930 . S
C514 C511 1.378 . S
C514 N515 1.315 . S
C514 H517 0.930 . S
N515 Co495 2.194 . S
N515 C510 1.328 . S
N515 C514 1.315 . S
H516 C510 0.929 . S
H517 C514 0.930 . S
H518 C506 0.929 . S
H519 C508 0.929 . S
O520 Co495 2.351 . S
O520 C523 1.244 . S
O521 Co495 2.155 . S
O521 C523 1.240 . S
O522 Co495 2.096 . S
O522 C503 1.247 . S
C523 O520 1.244 . S
C523 O521 1.240 . S
H524 C498 0.931 . S
H525 C507 0.931 . S
H526 C511 0.929 . S
H527 C513 0.930 . S
Co528 N532 2.148 . S
Co528 N538 2.128 . S
Co528 N548 2.194 . S
Co528 O553 2.351 . S
Co528 O554 2.155 . S
Co528 O555 2.096 . S
C529 N532 1.301 . S
C529 N533 1.328 . S
C529 H534 0.930 . S
C530 C531 1.333 . S
C530 N532 1.317 . S
C530 H535 0.930 . S
C531 C530 1.333 . S
C531 N533 1.350 . S
C531 H557 0.931 . S
N532 Co528 2.148 . S
N532 C529 1.301 . S
N532 C530 1.317 . S
N533 C529 1.328 . S
N533 C531 1.350 . S
H534 C529 0.930 . S
H535 C530 0.930 . S
C536 O537 1.224 . S
C536 O555 1.247 . S
O537 C536 1.224 . S
N538 Co528 2.128 . S
N538 C539 1.355 . S
N538 C541 1.311 . S
C539 N538 1.355 . S
C539 C540 1.363 . S
C539 H551 0.929 . S
C540 C539 1.363 . S
C540 N542 1.375 . S
C540 H558 0.931 . S
C541 N538 1.311 . S
C541 N542 1.347 . S
C541 H552 0.929 . S
N542 C540 1.375 . S
N542 C541 1.347 . S
C543 C546 1.365 . S
C543 N548 1.328 . S
C543 H549 0.929 . S
C544 C545 1.362 . S
C544 C547 1.378 . S
C544 H559 0.929 . S
C545 C544 1.362 . S
C545 C546 1.366 . S
C546 C543 1.365 . S
C546 C545 1.366 . S
C546 H560 0.930 . S
C547 C544 1.378 . S
C547 N548 1.315 . S
C547 H550 0.930 . S
N548 Co528 2.194 . S
N548 C543 1.328 . S
N548 C547 1.315 . S
H549 C543 0.929 . S
H550 C547 0.930 . S
H551 C539 0.929 . S
H552 C541 0.929 . S
O553 Co528 2.351 . S
O553 C556 1.244 . S
O554 Co528 2.155 . S
O554 C556 1.240 . S
O555 Co528 2.096 . S
O555 C536 1.247 . S
C556 O553 1.244 . S
C556 O554 1.240 . S
H557 C531 0.931 . S
H558 C540 0.931 . S
H559 C544 0.929 . S
H560 C546 0.930 . S
Co561 N565 2.148 . S
Co561 N571 2.128 . S
Co561 N581 2.194 . S
Co561 O586 2.351 . S
Co561 O587 2.155 . S
Co561 O588 2.096 . S
C562 N565 1.301 . S
C562 N566 1.328 . S
C562 H567 0.930 . S
C563 C564 1.333 . S
C563 N565 1.317 . S
C563 H568 0.930 . S
C564 C563 1.333 . S
C564 N566 1.350 . S
C564 H590 0.931 . S
N565 Co561 2.148 . S
N565 C562 1.301 . S
N565 C563 1.317 . S
N566 C562 1.328 . S
N566 C564 1.350 . S
H567 C562 0.930 . S
H568 C563 0.930 . S
C569 O570 1.224 . S
C569 O588 1.247 . S
O570 C569 1.224 . S
N571 Co561 2.128 . S
N571 C572 1.355 . S
N571 C574 1.311 . S
C572 N571 1.355 . S
C572 C573 1.363 . S
C572 H584 0.929 . S
C573 C572 1.363 . S
C573 N575 1.375 . S
C573 H591 0.931 . S
C574 N571 1.311 . S
C574 N575 1.347 . S
C574 H585 0.929 . S
N575 C573 1.375 . S
N575 C574 1.347 . S
C576 C579 1.365 . S
C576 N581 1.328 . S
C576 H582 0.929 . S
C577 C578 1.362 . S
C577 C580 1.378 . S
C577 H592 0.929 . S
C578 C577 1.362 . S
C578 C579 1.366 . S
C579 C576 1.365 . S
C579 C578 1.366 . S
C579 H593 0.930 . S
C580 C577 1.378 . S
C580 N581 1.315 . S
C580 H583 0.930 . S
N581 Co561 2.194 . S
N581 C576 1.328 . S
N581 C580 1.315 . S
H582 C576 0.929 . S
H583 C580 0.930 . S
H584 C572 0.929 . S
H585 C574 0.929 . S
O586 Co561 2.351 . S
O586 C589 1.244 . S
O587 Co561 2.155 . S
O587 C589 1.240 . S
O588 Co561 2.096 . S
O588 C569 1.247 . S
C589 O586 1.244 . S
C589 O587 1.240 . S
H590 C564 0.931 . S
H591 C573 0.931 . S
H592 C577 0.929 . S
H593 C579 0.930 . S
Co594 N598 2.148 . S
Co594 N604 2.128 . S
Co594 N614 2.194 . S
Co594 O619 2.351 . S
Co594 O620 2.155 . S
Co594 O621 2.096 . S
C595 N598 1.301 . S
C595 N599 1.328 . S
C595 H600 0.930 . S
C596 C597 1.333 . S
C596 N598 1.317 . S
C596 H601 0.930 . S
C597 C596 1.333 . S
C597 N599 1.350 . S
C597 H623 0.931 . S
N598 Co594 2.148 . S
N598 C595 1.301 . S
N598 C596 1.317 . S
N599 C595 1.328 . S
N599 C597 1.350 . S
H600 C595 0.930 . S
H601 C596 0.930 . S
C602 O603 1.224 1_655 S
C602 O621 1.247 . S
O603 C602 1.224 1_455 S
N604 Co594 2.128 . S
N604 C605 1.355 . S
N604 C607 1.311 . S
C605 N604 1.355 . S
C605 C606 1.363 . S
C605 H617 0.929 . S
C606 C605 1.363 . S
C606 N608 1.375 . S
C606 H624 0.931 . S
C607 N604 1.311 . S
C607 N608 1.347 . S
C607 H618 0.929 . S
N608 C606 1.375 . S
N608 C607 1.347 . S
C609 C612 1.365 . S
C609 N614 1.328 . S
C609 H615 0.929 . S
C610 C611 1.362 . S
C610 C613 1.378 . S
C610 H625 0.929 1_655 S
C611 C610 1.362 . S
C611 C612 1.366 . S
C612 C609 1.365 . S
C612 C611 1.366 . S
C612 H626 0.930 . S
C613 C610 1.378 . S
C613 N614 1.315 . S
C613 H616 0.930 . S
N614 Co594 2.194 . S
N614 C609 1.328 . S
N614 C613 1.315 . S
H615 C609 0.929 . S
H616 C613 0.930 . S
H617 C605 0.929 . S
H618 C607 0.929 . S
O619 Co594 2.351 . S
O619 C622 1.244 . S
O620 Co594 2.155 . S
O620 C622 1.240 . S
O621 Co594 2.096 . S
O621 C602 1.247 . S
C622 O619 1.244 . S
C622 O620 1.240 . S
H623 C597 0.931 . S
H624 C606 0.931 . S
H625 C610 0.929 1_455 S
H626 C612 0.930 . S
Co627 N631 2.148 . S
Co627 N637 2.128 . S
Co627 N647 2.194 . S
Co627 O652 2.351 . S
Co627 O653 2.155 . S
Co627 O654 2.096 . S
C628 N631 1.301 . S
C628 N632 1.328 . S
C628 H633 0.930 . S
C629 C630 1.333 . S
C629 N631 1.317 . S
C629 H634 0.930 . S
C630 C629 1.333 . S
C630 N632 1.350 . S
C630 H656 0.931 . S
N631 Co627 2.148 . S
N631 C628 1.301 . S
N631 C629 1.317 . S
N632 C628 1.328 . S
N632 C630 1.350 . S
H633 C628 0.930 . S
H634 C629 0.930 . S
C635 O636 1.224 . S
C635 O654 1.247 . S
O636 C635 1.224 . S
N637 Co627 2.128 . S
N637 C638 1.355 . S
N637 C640 1.311 . S
C638 N637 1.355 . S
C638 C639 1.363 . S
C638 H650 0.929 . S
C639 C638 1.363 . S
C639 N641 1.375 . S
C639 H657 0.931 . S
C640 N637 1.311 . S
C640 N641 1.347 . S
C640 H651 0.929 . S
N641 C639 1.375 . S
N641 C640 1.347 . S
C642 C645 1.365 . S
C642 N647 1.328 . S
C642 H648 0.929 . S
C643 C644 1.362 . S
C643 C646 1.378 . S
C643 H658 0.929 . S
C644 C643 1.362 . S
C644 C645 1.366 . S
C645 C642 1.365 . S
C645 C644 1.366 . S
C645 H659 0.930 . S
C646 C643 1.378 . S
C646 N647 1.315 . S
C646 H649 0.930 . S
N647 Co627 2.194 . S
N647 C642 1.328 . S
N647 C646 1.315 . S
H648 C642 0.929 . S
H649 C646 0.930 . S
H650 C638 0.929 . S
H651 C640 0.929 . S
O652 Co627 2.351 . S
O652 C655 1.244 . S
O653 Co627 2.155 . S
O653 C655 1.240 . S
O654 Co627 2.096 . S
O654 C635 1.247 . S
C655 O652 1.244 . S
C655 O653 1.240 . S
H656 C630 0.931 . S
H657 C639 0.931 . S
H658 C643 0.929 . S
H659 C645 0.930 . S
Co660 N664 2.148 . S
Co660 N670 2.128 . S
Co660 N680 2.194 . S
Co660 O685 2.351 . S
Co660 O686 2.155 . S
Co660 O687 2.096 . S
C661 N664 1.301 . S
C661 N665 1.328 . S
C661 H666 0.930 . S
C662 C663 1.333 . S
C662 N664 1.317 . S
C662 H667 0.930 . S
C663 C662 1.333 . S
C663 N665 1.350 . S
C663 H689 0.931 . S
N664 Co660 2.148 . S
N664 C661 1.301 . S
N664 C662 1.317 . S
N665 C661 1.328 . S
N665 C663 1.350 . S
H666 C661 0.930 . S
H667 C662 0.930 . S
C668 O669 1.224 . S
C668 O687 1.247 . S
O669 C668 1.224 . S
N670 Co660 2.128 . S
N670 C671 1.355 . S
N670 C673 1.311 . S
C671 N670 1.355 . S
C671 C672 1.363 . S
C671 H683 0.929 . S
C672 C671 1.363 . S
C672 N674 1.375 . S
C672 H690 0.931 . S
C673 N670 1.311 . S
C673 N674 1.347 . S
C673 H684 0.929 . S
N674 C672 1.375 . S
N674 C673 1.347 . S
C675 C678 1.365 . S
C675 N680 1.328 . S
C675 H681 0.929 . S
C676 C677 1.362 . S
C676 C679 1.378 . S
C676 H691 0.929 . S
C677 C676 1.362 . S
C677 C678 1.366 . S
C678 C675 1.365 . S
C678 C677 1.366 . S
C678 H692 0.930 . S
C679 C676 1.378 . S
C679 N680 1.315 . S
C679 H682 0.930 . S
N680 Co660 2.194 . S
N680 C675 1.328 . S
N680 C679 1.315 . S
H681 C675 0.929 . S
H682 C679 0.930 . S
H683 C671 0.929 . S
H684 C673 0.929 . S
O685 Co660 2.351 . S
O685 C688 1.244 . S
O686 Co660 2.155 . S
O686 C688 1.240 . S
O687 Co660 2.096 . S
O687 C668 1.247 . S
C688 O685 1.244 . S
C688 O686 1.240 . S
H689 C663 0.931 . S
H690 C672 0.931 . S
H691 C676 0.929 . S
H692 C678 0.930 . S
Co693 N697 2.148 . S
Co693 N703 2.128 . S
Co693 N713 2.194 . S
Co693 O718 2.351 . S
Co693 O719 2.155 . S
Co693 O720 2.096 . S
C694 N697 1.301 . S
C694 N698 1.328 . S
C694 H699 0.930 . S
C695 C696 1.333 . S
C695 N697 1.317 . S
C695 H700 0.930 . S
C696 C695 1.333 . S
C696 N698 1.350 . S
C696 H722 0.931 . S
N697 Co693 2.148 . S
N697 C694 1.301 . S
N697 C695 1.317 . S
N698 C694 1.328 . S
N698 C696 1.350 . S
H699 C694 0.930 . S
H700 C695 0.930 . S
C701 O702 1.224 . S
C701 O720 1.247 . S
O702 C701 1.224 . S
N703 Co693 2.128 . S
N703 C704 1.355 . S
N703 C706 1.311 . S
C704 N703 1.355 . S
C704 C705 1.363 . S
C704 H716 0.929 . S
C705 C704 1.363 . S
C705 N707 1.375 . S
C705 H723 0.931 . S
C706 N703 1.311 . S
C706 N707 1.347 . S
C706 H717 0.929 . S
N707 C705 1.375 . S
N707 C706 1.347 . S
C708 C711 1.365 . S
C708 N713 1.328 . S
C708 H714 0.929 . S
C709 C710 1.362 . S
C709 C712 1.378 . S
C709 H724 0.929 . S
C710 C709 1.362 . S
C710 C711 1.366 . S
C711 C708 1.365 . S
C711 C710 1.366 . S
C711 H725 0.930 . S
C712 C709 1.378 . S
C712 N713 1.315 . S
C712 H715 0.930 . S
N713 Co693 2.194 . S
N713 C708 1.328 . S
N713 C712 1.315 . S
H714 C708 0.929 . S
H715 C712 0.930 . S
H716 C704 0.929 . S
H717 C706 0.929 . S
O718 Co693 2.351 . S
O718 C721 1.244 . S
O719 Co693 2.155 . S
O719 C721 1.240 . S
O720 Co693 2.096 . S
O720 C701 1.247 . S
C721 O718 1.244 . S
C721 O719 1.240 . S
H722 C696 0.931 . S
H723 C705 0.931 . S
H724 C709 0.929 . S
H725 C711 0.930 . S
Co726 N730 2.148 . S
Co726 N736 2.128 . S
Co726 N746 2.194 . S
Co726 O751 2.351 . S
Co726 O752 2.155 . S
Co726 O753 2.096 . S
C727 N730 1.301 . S
C727 N731 1.328 . S
C727 H732 0.930 . S
C728 C729 1.333 . S
C728 N730 1.317 . S
C728 H733 0.930 . S
C729 C728 1.333 . S
C729 N731 1.350 . S
C729 H755 0.931 . S
N730 Co726 2.148 . S
N730 C727 1.301 . S
N730 C728 1.317 . S
N731 C727 1.328 . S
N731 C729 1.350 . S
H732 C727 0.930 . S
H733 C728 0.930 . S
C734 O735 1.224 1_655 S
C734 O753 1.247 . S
O735 C734 1.224 1_455 S
N736 Co726 2.128 . S
N736 C737 1.355 . S
N736 C739 1.311 . S
C737 N736 1.355 . S
C737 C738 1.363 . S
C737 H749 0.929 . S
C738 C737 1.363 . S
C738 N740 1.375 . S
C738 H756 0.931 . S
C739 N736 1.311 . S
C739 N740 1.347 . S
C739 H750 0.929 . S
N740 C738 1.375 . S
N740 C739 1.347 . S
C741 C744 1.365 . S
C741 N746 1.328 . S
C741 H747 0.929 . S
C742 C743 1.362 . S
C742 C745 1.378 . S
C742 H757 0.929 1_655 S
C743 C742 1.362 . S
C743 C744 1.366 . S
C744 C741 1.365 . S
C744 C743 1.366 . S
C744 H758 0.930 . S
C745 C742 1.378 . S
C745 N746 1.315 . S
C745 H748 0.930 . S
N746 Co726 2.194 . S
N746 C741 1.328 . S
N746 C745 1.315 . S
H747 C741 0.929 . S
H748 C745 0.930 . S
H749 C737 0.929 . S
H750 C739 0.929 . S
O751 Co726 2.351 . S
O751 C754 1.244 . S
O752 Co726 2.155 . S
O752 C754 1.240 . S
O753 Co726 2.096 . S
O753 C734 1.247 . S
C754 O751 1.244 . S
C754 O752 1.240 . S
H755 C729 0.931 . S
H756 C738 0.931 . S
H757 C742 0.929 1_455 S
H758 C744 0.930 . S
Co759 N763 2.148 . S
Co759 N769 2.128 . S
Co759 N779 2.194 . S
Co759 O784 2.351 . S
Co759 O785 2.155 . S
Co759 O786 2.096 . S
C760 N763 1.301 . S
C760 N764 1.328 . S
C760 H765 0.930 . S
C761 C762 1.333 . S
C761 N763 1.317 . S
C761 H766 0.930 . S
C762 C761 1.333 . S
C762 N764 1.350 . S
C762 H788 0.931 . S
N763 Co759 2.148 . S
N763 C760 1.301 . S
N763 C761 1.317 . S
N764 C760 1.328 . S
N764 C762 1.350 . S
H765 C760 0.930 . S
H766 C761 0.930 . S
C767 O768 1.224 . S
C767 O786 1.247 . S
O768 C767 1.224 . S
N769 Co759 2.128 . S
N769 C770 1.355 . S
N769 C772 1.311 . S
C770 N769 1.355 . S
C770 C771 1.363 . S
C770 H782 0.929 . S
C771 C770 1.363 . S
C771 N773 1.375 . S
C771 H789 0.931 . S
C772 N769 1.311 . S
C772 N773 1.347 . S
C772 H783 0.929 . S
N773 C771 1.375 . S
N773 C772 1.347 . S
C774 C777 1.365 . S
C774 N779 1.328 . S
C774 H780 0.929 . S
C775 C776 1.362 . S
C775 C778 1.378 . S
C775 H790 0.929 . S
C776 C775 1.362 . S
C776 C777 1.366 . S
C777 C774 1.365 . S
C777 C776 1.366 . S
C777 H791 0.930 . S
C778 C775 1.378 . S
C778 N779 1.315 . S
C778 H781 0.930 . S
N779 Co759 2.194 . S
N779 C774 1.328 . S
N779 C778 1.315 . S
H780 C774 0.929 . S
H781 C778 0.930 . S
H782 C770 0.929 . S
H783 C772 0.929 . S
O784 Co759 2.351 . S
O784 C787 1.244 . S
O785 Co759 2.155 . S
O785 C787 1.240 . S
O786 Co759 2.096 . S
O786 C767 1.247 . S
C787 O784 1.244 . S
C787 O785 1.240 . S
H788 C762 0.931 . S
H789 C771 0.931 . S
H790 C775 0.929 . S
H791 C777 0.930 . S
Co792 N796 2.148 . S
Co792 N802 2.128 . S
Co792 N812 2.194 . S
Co792 O817 2.351 . S
Co792 O818 2.155 . S
Co792 O819 2.096 . S
C793 N796 1.301 . S
C793 N797 1.328 . S
C793 H798 0.930 . S
C794 C795 1.333 . S
C794 N796 1.317 . S
C794 H799 0.930 . S
C795 C794 1.333 . S
C795 N797 1.350 . S
C795 H821 0.931 . S
N796 Co792 2.148 . S
N796 C793 1.301 . S
N796 C794 1.317 . S
N797 C793 1.328 . S
N797 C795 1.350 . S
H798 C793 0.930 . S
H799 C794 0.930 . S
C800 O801 1.224 . S
C800 O819 1.247 . S
O801 C800 1.224 . S
N802 Co792 2.128 . S
N802 C803 1.355 . S
N802 C805 1.311 . S
C803 N802 1.355 . S
C803 C804 1.363 . S
C803 H815 0.929 . S
C804 C803 1.363 . S
C804 N806 1.375 . S
C804 H822 0.931 . S
C805 N802 1.311 . S
C805 N806 1.347 . S
C805 H816 0.929 . S
N806 C804 1.375 . S
N806 C805 1.347 . S
C807 C810 1.365 . S
C807 N812 1.328 . S
C807 H813 0.929 . S
C808 C809 1.362 . S
C808 C811 1.378 . S
C808 H823 0.929 . S
C809 C808 1.362 . S
C809 C810 1.366 . S
C810 C807 1.365 . S
C810 C809 1.366 . S
C810 H824 0.930 . S
C811 C808 1.378 . S
C811 N812 1.315 . S
C811 H814 0.930 . S
N812 Co792 2.194 . S
N812 C807 1.328 . S
N812 C811 1.315 . S
H813 C807 0.929 . S
H814 C811 0.930 . S
H815 C803 0.929 . S
H816 C805 0.929 . S
O817 Co792 2.351 . S
O817 C820 1.244 . S
O818 Co792 2.155 . S
O818 C820 1.240 . S
O819 Co792 2.096 . S
O819 C800 1.247 . S
C820 O817 1.244 . S
C820 O818 1.240 . S
H821 C795 0.931 . S
H822 C804 0.931 . S
H823 C808 0.929 . S
H824 C810 0.930 . S
Co825 N829 2.148 . S
Co825 N835 2.128 . S
Co825 N845 2.194 . S
Co825 O850 2.351 . S
Co825 O851 2.155 . S
Co825 O852 2.096 . S
C826 N829 1.301 . S
C826 N830 1.328 . S
C826 H831 0.930 . S
C827 C828 1.333 . S
C827 N829 1.317 . S
C827 H832 0.930 . S
C828 C827 1.333 . S
C828 N830 1.350 . S
C828 H854 0.931 . S
N829 Co825 2.148 . S
N829 C826 1.301 . S
N829 C827 1.317 . S
N830 C826 1.328 . S
N830 C828 1.350 . S
H831 C826 0.930 . S
H832 C827 0.930 . S
C833 O834 1.224 . S
C833 O852 1.247 . S
O834 C833 1.224 . S
N835 Co825 2.128 . S
N835 C836 1.355 . S
N835 C838 1.311 . S
C836 N835 1.355 . S
C836 C837 1.363 . S
C836 H848 0.929 . S
C837 C836 1.363 . S
C837 N839 1.375 . S
C837 H855 0.931 . S
C838 N835 1.311 . S
C838 N839 1.347 . S
C838 H849 0.929 . S
N839 C837 1.375 . S
N839 C838 1.347 . S
C840 C843 1.365 . S
C840 N845 1.328 . S
C840 H846 0.929 . S
C841 C842 1.362 . S
C841 C844 1.378 . S
C841 H856 0.929 . S
C842 C841 1.362 . S
C842 C843 1.366 . S
C843 C840 1.365 . S
C843 C842 1.366 . S
C843 H857 0.930 . S
C844 C841 1.378 . S
C844 N845 1.315 . S
C844 H847 0.930 . S
N845 Co825 2.194 . S
N845 C840 1.328 . S
N845 C844 1.315 . S
H846 C840 0.929 . S
H847 C844 0.930 . S
H848 C836 0.929 . S
H849 C838 0.929 . S
O850 Co825 2.351 . S
O850 C853 1.244 . S
O851 Co825 2.155 . S
O851 C853 1.240 . S
O852 Co825 2.096 . S
O852 C833 1.247 . S
C853 O850 1.244 . S
C853 O851 1.240 . S
H854 C828 0.931 . S
H855 C837 0.931 . S
H856 C841 0.929 . S
H857 C843 0.930 . S
Co858 N862 2.148 . S
Co858 N868 2.128 . S
Co858 N878 2.194 . S
Co858 O883 2.351 . S
Co858 O884 2.155 . S
Co858 O885 2.096 . S
C859 N862 1.301 . S
C859 N863 1.328 . S
C859 H864 0.930 . S
C860 C861 1.333 . S
C860 N862 1.317 . S
C860 H865 0.930 . S
C861 C860 1.333 . S
C861 N863 1.350 . S
C861 H887 0.931 . S
N862 Co858 2.148 . S
N862 C859 1.301 . S
N862 C860 1.317 . S
N863 C859 1.328 . S
N863 C861 1.350 . S
H864 C859 0.930 . S
H865 C860 0.930 . S
C866 O867 1.224 1_455 S
C866 O885 1.247 . S
O867 C866 1.224 1_655 S
N868 Co858 2.128 . S
N868 C869 1.355 . S
N868 C871 1.311 . S
C869 N868 1.355 . S
C869 C870 1.363 . S
C869 H881 0.929 . S
C870 C869 1.363 . S
C870 N872 1.375 . S
C870 H888 0.931 . S
C871 N868 1.311 . S
C871 N872 1.347 . S
C871 H882 0.929 . S
N872 C870 1.375 . S
N872 C871 1.347 . S
C873 C876 1.365 . S
C873 N878 1.328 . S
C873 H879 0.929 . S
C874 C875 1.362 . S
C874 C877 1.378 . S
C874 H889 0.929 1_455 S
C875 C874 1.362 . S
C875 C876 1.366 . S
C876 C873 1.365 . S
C876 C875 1.366 . S
C876 H890 0.930 . S
C877 C874 1.378 . S
C877 N878 1.315 . S
C877 H880 0.930 . S
N878 Co858 2.194 . S
N878 C873 1.328 . S
N878 C877 1.315 . S
H879 C873 0.929 . S
H880 C877 0.930 . S
H881 C869 0.929 . S
H882 C871 0.929 . S
O883 Co858 2.351 . S
O883 C886 1.244 . S
O884 Co858 2.155 . S
O884 C886 1.240 . S
O885 Co858 2.096 . S
O885 C866 1.247 . S
C886 O883 1.244 . S
C886 O884 1.240 . S
H887 C861 0.931 . S
H888 C870 0.931 . S
H889 C874 0.929 1_655 S
H890 C876 0.930 . S
Co891 N895 2.148 . S
Co891 N901 2.128 . S
Co891 N911 2.194 . S
Co891 O916 2.351 . S
Co891 O917 2.155 . S
Co891 O918 2.096 . S
C892 N895 1.301 . S
C892 N896 1.328 . S
C892 H897 0.930 . S
C893 C894 1.333 . S
C893 N895 1.317 . S
C893 H898 0.930 . S
C894 C893 1.333 . S
C894 N896 1.350 . S
C894 H920 0.931 . S
N895 Co891 2.148 . S
N895 C892 1.301 . S
N895 C893 1.317 . S
N896 C892 1.328 . S
N896 C894 1.350 . S
H897 C892 0.930 . S
H898 C893 0.930 . S
C899 O900 1.224 . S
C899 O918 1.247 . S
O900 C899 1.224 . S
N901 Co891 2.128 . S
N901 C902 1.355 . S
N901 C904 1.311 . S
C902 N901 1.355 . S
C902 C903 1.363 . S
C902 H914 0.929 . S
C903 C902 1.363 . S
C903 N905 1.375 . S
C903 H921 0.931 . S
C904 N901 1.311 . S
C904 N905 1.347 . S
C904 H915 0.929 . S
N905 C903 1.375 . S
N905 C904 1.347 . S
C906 C909 1.365 . S
C906 N911 1.328 . S
C906 H912 0.929 . S
C907 C908 1.362 . S
C907 C910 1.378 . S
C907 H922 0.929 . S
C908 C907 1.362 . S
C908 C909 1.366 . S
C909 C906 1.365 . S
C909 C908 1.366 . S
C909 H923 0.930 . S
C910 C907 1.378 . S
C910 N911 1.315 . S
C910 H913 0.930 . S
N911 Co891 2.194 . S
N911 C906 1.328 . S
N911 C910 1.315 . S
H912 C906 0.929 . S
H913 C910 0.930 . S
H914 C902 0.929 . S
H915 C904 0.929 . S
O916 Co891 2.351 . S
O916 C919 1.244 . S
O917 Co891 2.155 . S
O917 C919 1.240 . S
O918 Co891 2.096 . S
O918 C899 1.247 . S
C919 O916 1.244 . S
C919 O917 1.240 . S
H920 C894 0.931 . S
H921 C903 0.931 . S
H922 C907 0.929 . S
H923 C909 0.930 . S
Co924 N928 2.148 . S
Co924 N934 2.128 . S
Co924 N944 2.194 . S
Co924 O949 2.351 . S
Co924 O950 2.155 . S
Co924 O951 2.096 . S
C925 N928 1.301 . S
C925 N929 1.328 . S
C925 H930 0.930 . S
C926 C927 1.333 . S
C926 N928 1.317 . S
C926 H931 0.930 . S
C927 C926 1.333 . S
C927 N929 1.350 . S
C927 H953 0.931 . S
N928 Co924 2.148 . S
N928 C925 1.301 . S
N928 C926 1.317 . S
N929 C925 1.328 . S
N929 C927 1.350 . S
H930 C925 0.930 . S
H931 C926 0.930 . S
C932 O933 1.224 . S
C932 O951 1.247 . S
O933 C932 1.224 . S
N934 Co924 2.128 . S
N934 C935 1.355 . S
N934 C937 1.311 . S
C935 N934 1.355 . S
C935 C936 1.363 . S
C935 H947 0.929 . S
C936 C935 1.363 . S
C936 N938 1.375 . S
C936 H954 0.931 . S
C937 N934 1.311 . S
C937 N938 1.347 . S
C937 H948 0.929 . S
N938 C936 1.375 . S
N938 C937 1.347 . S
C939 C942 1.365 . S
C939 N944 1.328 . S
C939 H945 0.929 . S
C940 C941 1.362 . S
C940 C943 1.378 . S
C940 H955 0.929 . S
C941 C940 1.362 . S
C941 C942 1.366 . S
C942 C939 1.365 . S
C942 C941 1.366 . S
C942 H956 0.930 . S
C943 C940 1.378 . S
C943 N944 1.315 . S
C943 H946 0.930 . S
N944 Co924 2.194 . S
N944 C939 1.328 . S
N944 C943 1.315 . S
H945 C939 0.929 . S
H946 C943 0.930 . S
H947 C935 0.929 . S
H948 C937 0.929 . S
O949 Co924 2.351 . S
O949 C952 1.244 . S
O950 Co924 2.155 . S
O950 C952 1.240 . S
O951 Co924 2.096 . S
O951 C932 1.247 . S
C952 O949 1.244 . S
C952 O950 1.240 . S
H953 C927 0.931 . S
H954 C936 0.931 . S
H955 C940 0.929 . S
H956 C942 0.930 . S
Co957 N961 2.148 . S
Co957 N967 2.128 . S
Co957 N977 2.194 . S
Co957 O982 2.351 . S
Co957 O983 2.155 . S
Co957 O984 2.096 . S
C958 N961 1.301 . S
C958 N962 1.328 . S
C958 H963 0.930 . S
C959 C960 1.333 . S
C959 N961 1.317 . S
C959 H964 0.930 . S
C960 C959 1.333 . S
C960 N962 1.350 . S
C960 H986 0.931 . S
N961 Co957 2.148 . S
N961 C958 1.301 . S
N961 C959 1.317 . S
N962 C958 1.328 . S
N962 C960 1.350 . S
H963 C958 0.930 . S
H964 C959 0.930 . S
C965 O966 1.224 . S
C965 O984 1.247 . S
O966 C965 1.224 . S
N967 Co957 2.128 . S
N967 C968 1.355 . S
N967 C970 1.311 . S
C968 N967 1.355 . S
C968 C969 1.363 . S
C968 H980 0.929 . S
C969 C968 1.363 . S
C969 N971 1.375 . S
C969 H987 0.931 . S
C970 N967 1.311 . S
C970 N971 1.347 . S
C970 H981 0.929 . S
N971 C969 1.375 . S
N971 C970 1.347 . S
C972 C975 1.365 . S
C972 N977 1.328 . S
C972 H978 0.929 . S
C973 C974 1.362 . S
C973 C976 1.378 . S
C973 H988 0.929 . S
C974 C973 1.362 . S
C974 C975 1.366 . S
C975 C972 1.365 . S
C975 C974 1.366 . S
C975 H989 0.930 . S
C976 C973 1.378 . S
C976 N977 1.315 . S
C976 H979 0.930 . S
N977 Co957 2.194 . S
N977 C972 1.328 . S
N977 C976 1.315 . S
H978 C972 0.929 . S
H979 C976 0.930 . S
H980 C968 0.929 . S
H981 C970 0.929 . S
O982 Co957 2.351 . S
O982 C985 1.244 . S
O983 Co957 2.155 . S
O983 C985 1.240 . S
O984 Co957 2.096 . S
O984 C965 1.247 . S
C985 O982 1.244 . S
C985 O983 1.240 . S
H986 C960 0.931 . S
H987 C969 0.931 . S
H988 C973 0.929 . S
H989 C975 0.930 . S
Co990 N994 2.148 . S
Co990 N1000 2.128 . S
Co990 N1010 2.194 . S
Co990 O1015 2.351 . S
Co990 O1016 2.155 . S
Co990 O1017 2.096 . S
C991 N994 1.301 . S
C991 N995 1.328 . S
C991 H996 0.930 . S
C992 C993 1.333 . S
C992 N994 1.317 . S
C992 H997 0.930 . S
C993 C992 1.333 . S
C993 N995 1.350 . S
C993 H1019 0.931 . S
N994 Co990 2.148 . S
N994 C991 1.301 . S
N994 C992 1.317 . S
N995 C991 1.328 . S
N995 C993 1.350 . S
H996 C991 0.930 . S
H997 C992 0.930 . S
C998 O999 1.224 1_455 S
C998 O1017 1.247 . S
O999 C998 1.224 1_655 S
N1000 Co990 2.128 . S
N1000 C1001 1.355 . S
N1000 C1003 1.311 . S
C1001 N1000 1.355 . S
C1001 C1002 1.363 . S
C1001 H1013 0.929 . S
C1002 C1001 1.363 . S
C1002 N1004 1.375 . S
C1002 H1020 0.931 . S
C1003 N1000 1.311 . S
C1003 N1004 1.347 . S
C1003 H1014 0.929 . S
N1004 C1002 1.375 . S
N1004 C1003 1.347 . S
C1005 C1008 1.365 . S
C1005 N1010 1.328 . S
C1005 H1011 0.929 . S
C1006 C1007 1.362 . S
C1006 C1009 1.378 . S
C1006 H1021 0.929 1_455 S
C1007 C1006 1.362 . S
C1007 C1008 1.366 . S
C1008 C1005 1.365 . S
C1008 C1007 1.366 . S
C1008 H1022 0.930 . S
C1009 C1006 1.378 . S
C1009 N1010 1.315 . S
C1009 H1012 0.930 . S
N1010 Co990 2.194 . S
N1010 C1005 1.328 . S
N1010 C1009 1.315 . S
H1011 C1005 0.929 . S
H1012 C1009 0.930 . S
H1013 C1001 0.929 . S
H1014 C1003 0.929 . S
O1015 Co990 2.351 . S
O1015 C1018 1.244 . S
O1016 Co990 2.155 . S
O1016 C1018 1.240 . S
O1017 Co990 2.096 . S
O1017 C998 1.247 . S
C1018 O1015 1.244 . S
C1018 O1016 1.240 . S
H1019 C993 0.931 . S
H1020 C1002 0.931 . S
H1021 C1006 0.929 1_655 S
H1022 C1008 0.930 . S
Co1023 N1027 2.148 . S
Co1023 N1033 2.128 . S
Co1023 N1043 2.194 . S
Co1023 O1048 2.351 . S
Co1023 O1049 2.155 . S
Co1023 O1050 2.096 . S
C1024 N1027 1.301 . S
C1024 N1028 1.328 . S
C1024 H1029 0.930 . S
C1025 C1026 1.333 . S
C1025 N1027 1.317 . S
C1025 H1030 0.930 . S
C1026 C1025 1.333 . S
C1026 N1028 1.350 . S
C1026 H1052 0.931 . S
N1027 Co1023 2.148 . S
N1027 C1024 1.301 . S
N1027 C1025 1.317 . S
N1028 C1024 1.328 . S
N1028 C1026 1.350 . S
H1029 C1024 0.930 . S
H1030 C1025 0.930 . S
C1031 O1032 1.224 . S
C1031 O1050 1.247 . S
O1032 C1031 1.224 . S
N1033 Co1023 2.128 . S
N1033 C1034 1.355 . S
N1033 C1036 1.311 . S
C1034 N1033 1.355 . S
C1034 C1035 1.363 . S
C1034 H1046 0.929 . S
C1035 C1034 1.363 . S
C1035 N1037 1.375 . S
C1035 H1053 0.931 . S
C1036 N1033 1.311 . S
C1036 N1037 1.347 . S
C1036 H1047 0.929 . S
N1037 C1035 1.375 . S
N1037 C1036 1.347 . S
C1038 C1041 1.365 . S
C1038 N1043 1.328 . S
C1038 H1044 0.929 . S
C1039 C1040 1.362 . S
C1039 C1042 1.378 . S
C1039 H1054 0.929 . S
C1040 C1039 1.362 . S
C1040 C1041 1.366 . S
C1041 C1038 1.365 . S
C1041 C1040 1.366 . S
C1041 H1055 0.930 . S
C1042 C1039 1.378 . S
C1042 N1043 1.315 . S
C1042 H1045 0.930 . S
N1043 Co1023 2.194 . S
N1043 C1038 1.328 . S
N1043 C1042 1.315 . S
H1044 C1038 0.929 . S
H1045 C1042 0.930 . S
H1046 C1034 0.929 . S
H1047 C1036 0.929 . S
O1048 Co1023 2.351 . S
O1048 C1051 1.244 . S
O1049 Co1023 2.155 . S
O1049 C1051 1.240 . S
O1050 Co1023 2.096 . S
O1050 C1031 1.247 . S
C1051 O1048 1.244 . S
C1051 O1049 1.240 . S
H1052 C1026 0.931 . S
H1053 C1035 0.931 . S
H1054 C1039 0.929 . S
H1055 C1041 0.930 . S
H1056 C1064 0.950 . S
H1057 C1069 0.950 . S
H1058 C1066 0.950 . S
H1059 C1068 0.950 . S
H1060 C1070 0.950 . S
H1061 C1072 0.950 . S
H1062 C1074 0.950 . S
H1063 C1075 0.950 . S
C1064 H1056 0.950 . S
C1064 C1065 1.386 . S
C1064 C1066 1.391 . S
C1065 C1064 1.386 . S
C1065 C1069 1.393 1_565 S
C1066 H1058 0.950 . S
C1066 C1064 1.391 . S
C1066 C1067 1.400 . S
C1067 C1066 1.400 . S
C1067 C1068 1.398 1_565 S
C1067 C1073 1.491 1_565 S
C1068 H1059 0.950 . S
C1068 C1067 1.398 1_545 S
C1068 C1069 1.391 . S
C1069 H1057 0.950 . S
C1069 C1065 1.393 1_545 S
C1069 C1068 1.391 . S
C1070 H1060 0.950 . S
C1070 C1071 1.386 . S
C1070 C1072 1.391 . S
C1071 C1070 1.386 . S
C1071 C1075 1.393 1_545 S
C1072 H1061 0.950 . S
C1072 C1070 1.391 . S
C1072 C1073 1.400 . S
C1073 C1067 1.491 1_545 S
C1073 C1072 1.400 . S
C1073 C1074 1.398 1_545 S
C1074 H1062 0.950 . S
C1074 C1073 1.398 1_565 S
C1074 C1075 1.391 . S
C1075 H1063 0.950 . S
C1075 C1071 1.393 1_565 S
C1075 C1074 1.391 . S
H1076 C1084 0.950 . S
H1077 C1089 0.950 . S
H1078 C1086 0.950 . S
H1079 C1088 0.950 . S
H1080 C1090 0.950 . S
H1081 C1092 0.950 . S
H1082 C1094 0.950 . S
H1083 C1095 0.950 . S
C1084 H1076 0.950 . S
C1084 C1085 1.386 . S
C1084 C1086 1.391 . S
C1085 C1084 1.386 . S
C1085 C1089 1.393 . S
C1086 H1078 0.950 . S
C1086 C1084 1.391 . S
C1086 C1087 1.400 . S
C1087 C1086 1.400 . S
C1087 C1088 1.398 . S
C1087 C1093 1.491 . S
C1088 H1079 0.950 . S
C1088 C1087 1.398 . S
C1088 C1089 1.391 . S
C1089 H1077 0.950 . S
C1089 C1085 1.393 . S
C1089 C1088 1.391 . S
C1090 H1080 0.950 . S
C1090 C1091 1.386 . S
C1090 C1092 1.391 . S
C1091 C1090 1.386 . S
C1091 C1095 1.393 . S
C1092 H1081 0.950 . S
C1092 C1090 1.391 . S
C1092 C1093 1.400 . S
C1093 C1087 1.491 . S
C1093 C1092 1.400 . S
C1093 C1094 1.398 . S
C1094 H1082 0.950 . S
C1094 C1093 1.398 . S
C1094 C1095 1.391 . S
C1095 H1083 0.950 . S
C1095 C1091 1.393 . S
C1095 C1094 1.391 . S
H1096 C1104 0.950 . S
H1097 C1109 0.950 . S
H1098 C1106 0.950 . S
H1099 C1108 0.950 . S
H1100 C1110 0.950 . S
H1101 C1112 0.950 . S
H1102 C1114 0.950 . S
H1103 C1115 0.950 . S
C1104 H1096 0.950 . S
C1104 C1105 1.386 . S
C1104 C1106 1.391 . S
C1105 C1104 1.386 . S
C1105 C1109 1.393 1_565 S
C1106 H1098 0.950 . S
C1106 C1104 1.391 . S
C1106 C1107 1.401 1_565 S
C1107 C1106 1.401 1_545 S
C1107 C1108 1.398 . S
C1107 C1113 1.491 1_545 S
C1108 H1099 0.950 . S
C1108 C1107 1.398 . S
C1108 C1109 1.391 . S
C1109 H1097 0.950 . S
C1109 C1105 1.393 1_545 S
C1109 C1108 1.391 . S
C1110 H1100 0.950 . S
C1110 C1111 1.386 . S
C1110 C1112 1.391 . S
C1111 C1110 1.386 . S
C1111 C1115 1.393 1_545 S
C1112 H1101 0.950 . S
C1112 C1110 1.391 . S
C1112 C1113 1.401 1_545 S
C1113 C1107 1.491 1_565 S
C1113 C1112 1.401 1_565 S
C1113 C1114 1.398 . S
C1114 H1102 0.950 . S
C1114 C1113 1.398 . S
C1114 C1115 1.391 . S
C1115 H1103 0.950 . S
C1115 C1111 1.393 1_565 S
C1115 C1114 1.391 . S
H1116 C1124 0.950 . S
H1117 C1129 0.950 . S
H1118 C1126 0.950 . S
H1119 C1128 0.950 . S
H1120 C1130 0.950 . S
H1121 C1132 0.950 . S
H1122 C1134 0.950 . S
H1123 C1135 0.950 . S
C1124 H1116 0.950 . S
C1124 C1125 1.386 . S
C1124 C1126 1.391 . S
C1125 C1124 1.386 . S
C1125 C1129 1.393 . S
C1126 H1118 0.950 . S
C1126 C1124 1.391 . S
C1126 C1127 1.400 . S
C1127 C1126 1.400 . S
C1127 C1128 1.398 . S
C1127 C1133 1.491 1_556 S
C1128 H1119 0.950 . S
C1128 C1127 1.398 . S
C1128 C1129 1.391 . S
C1129 H1117 0.950 . S
C1129 C1125 1.393 . S
C1129 C1128 1.391 . S
C1130 H1120 0.950 . S
C1130 C1131 1.386 . S
C1130 C1132 1.391 . S
C1131 C1130 1.386 . S
C1131 C1135 1.393 . S
C1132 H1121 0.950 . S
C1132 C1130 1.391 . S
C1132 C1133 1.400 . S
C1133 C1127 1.491 1_554 S
C1133 C1132 1.400 . S
C1133 C1134 1.398 . S
C1134 H1122 0.950 . S
C1134 C1133 1.398 . S
C1134 C1135 1.391 . S
C1135 H1123 0.950 . S
C1135 C1131 1.393 . S
C1135 C1134 1.391 . S
H1136 C1144 0.950 . S
H1137 C1149 0.950 . S
H1138 C1146 0.950 . S
H1139 C1148 0.950 . S
H1140 C1150 0.950 . S
H1141 C1152 0.950 . S
H1142 C1154 0.950 . S
H1143 C1155 0.950 . S
C1144 H1136 0.950 . S
C1144 C1145 1.386 . S
C1144 C1146 1.391 . S
C1145 C1144 1.386 . S
C1145 C1149 1.393 1_565 S
C1146 H1138 0.950 . S
C1146 C1144 1.391 . S
C1146 C1147 1.403 . S
C1147 C1146 1.403 . S
C1147 C1148 1.396 1_565 S
C1147 C1153 1.491 1_565 S
C1148 H1139 0.950 . S
C1148 C1147 1.396 1_545 S
C1148 C1149 1.391 . S
C1149 H1137 0.950 . S
C1149 C1145 1.393 1_545 S
C1149 C1148 1.391 . S
C1150 H1140 0.950 . S
C1150 C1151 1.386 . S
C1150 C1152 1.391 . S
C1151 C1150 1.386 . S
C1151 C1155 1.393 1_545 S
C1152 H1141 0.950 . S
C1152 C1150 1.391 . S
C1152 C1153 1.403 . S
C1153 C1147 1.491 1_545 S
C1153 C1152 1.403 . S
C1153 C1154 1.396 1_545 S
C1154 H1142 0.950 . S
C1154 C1153 1.396 1_565 S
C1154 C1155 1.391 . S
C1155 H1143 0.950 . S
C1155 C1151 1.393 1_565 S
C1155 C1154 1.391 . S
H1156 C1164 0.950 . S
H1157 C1169 0.950 . S
H1158 C1166 0.950 . S
H1159 C1168 0.950 . S
H1160 C1170 0.950 . S
H1161 C1172 0.950 . S
H1162 C1174 0.950 . S
H1163 C1175 0.950 . S
C1164 H1156 0.950 . S
C1164 C1165 1.386 . S
C1164 C1166 1.391 . S
C1165 C1164 1.386 . S
C1165 C1169 1.393 . S
C1166 H1158 0.950 . S
C1166 C1164 1.391 . S
C1166 C1167 1.400 . S
C1167 C1166 1.400 . S
C1167 C1168 1.398 . S
C1167 C1173 1.491 . S
C1168 H1159 0.950 . S
C1168 C1167 1.398 . S
C1168 C1169 1.391 . S
C1169 H1157 0.950 . S
C1169 C1165 1.393 . S
C1169 C1168 1.391 . S
C1170 H1160 0.950 . S
C1170 C1171 1.386 . S
C1170 C1172 1.391 . S
C1171 C1170 1.386 . S
C1171 C1175 1.393 . S
C1172 H1161 0.950 . S
C1172 C1170 1.391 . S
C1172 C1173 1.400 . S
C1173 C1167 1.491 . S
C1173 C1172 1.400 . S
C1173 C1174 1.398 . S
C1174 H1162 0.950 . S
C1174 C1173 1.398 . S
C1174 C1175 1.391 . S
C1175 H1163 0.950 . S
C1175 C1171 1.393 . S
C1175 C1174 1.391 . S
H1176 C1184 0.950 . S
H1177 C1189 0.950 . S
H1178 C1186 0.950 . S
H1179 C1188 0.950 . S
H1180 C1190 0.950 . S
H1181 C1192 0.950 . S
H1182 C1194 0.950 . S
H1183 C1195 0.950 . S
C1184 H1176 0.950 . S
C1184 C1185 1.386 1_565 S
C1184 C1186 1.391 . S
C1185 C1184 1.386 1_545 S
C1185 C1189 1.393 . S
C1186 H1178 0.950 . S
C1186 C1184 1.391 . S
C1186 C1187 1.400 1_565 S
C1187 C1186 1.400 1_545 S
C1187 C1188 1.398 . S
C1187 C1193 1.491 1_545 S
C1188 H1179 0.950 . S
C1188 C1187 1.398 . S
C1188 C1189 1.391 . S
C1189 H1177 0.950 . S
C1189 C1185 1.393 . S
C1189 C1188 1.391 . S
C1190 H1180 0.950 . S
C1190 C1191 1.386 1_545 S
C1190 C1192 1.391 . S
C1191 C1190 1.386 1_565 S
C1191 C1195 1.393 . S
C1192 H1181 0.950 . S
C1192 C1190 1.391 . S
C1192 C1193 1.400 1_545 S
C1193 C1187 1.491 1_565 S
C1193 C1192 1.400 1_565 S
C1193 C1194 1.398 . S
C1194 H1182 0.950 . S
C1194 C1193 1.398 . S
C1194 C1195 1.391 . S
C1195 H1183 0.950 . S
C1195 C1191 1.393 . S
C1195 C1194 1.391 . S
H1196 C1204 0.950 . S
H1197 C1209 0.950 . S
H1198 C1206 0.950 . S
H1199 C1208 0.950 . S
H1200 C1210 0.950 . S
H1201 C1212 0.950 . S
H1202 C1214 0.950 . S
H1203 C1215 0.950 . S
C1204 H1196 0.950 . S
C1204 C1205 1.386 . S
C1204 C1206 1.391 . S
C1205 C1204 1.386 . S
C1205 C1209 1.393 . S
C1206 H1198 0.950 . S
C1206 C1204 1.391 . S
C1206 C1207 1.400 . S
C1207 C1206 1.400 . S
C1207 C1208 1.398 . S
C1207 C1213 1.491 1_556 S
C1208 H1199 0.950 . S
C1208 C1207 1.398 . S
C1208 C1209 1.391 . S
C1209 H1197 0.950 . S
C1209 C1205 1.393 . S
C1209 C1208 1.391 . S
C1210 H1200 0.950 . S
C1210 C1211 1.386 . S
C1210 C1212 1.391 . S
C1211 C1210 1.386 . S
C1211 C1215 1.393 . S
C1212 H1201 0.950 . S
C1212 C1210 1.391 . S
C1212 C1213 1.400 . S
C1213 C1207 1.491 1_554 S
C1213 C1212 1.400 . S
C1213 C1214 1.398 . S
C1214 H1202 0.950 . S
C1214 C1213 1.398 . S
C1214 C1215 1.391 . S
C1215 H1203 0.950 . S
C1215 C1211 1.393 . S
C1215 C1214 1.391 . S
H1216 C1224 0.950 . S
H1217 C1229 0.950 . S
H1218 C1226 0.950 . S
H1219 C1228 0.950 . S
H1220 C1230 0.950 . S
H1221 C1232 0.950 . S
H1222 C1234 0.950 . S
H1223 C1235 0.950 . S
C1224 H1216 0.950 . S
C1224 C1225 1.386 . S
C1224 C1226 1.391 . S
C1225 C1224 1.386 . S
C1225 C1229 1.393 . S
C1226 H1218 0.950 . S
C1226 C1224 1.391 . S
C1226 C1227 1.400 . S
C1227 C1226 1.400 . S
C1227 C1228 1.398 . S
C1227 C1233 1.491 . S
C1228 H1219 0.950 . S
C1228 C1227 1.398 . S
C1228 C1229 1.391 . S
C1229 H1217 0.950 . S
C1229 C1225 1.393 . S
C1229 C1228 1.391 . S
C1230 H1220 0.950 . S
C1230 C1231 1.386 . S
C1230 C1232 1.391 . S
C1231 C1230 1.386 . S
C1231 C1235 1.393 . S
C1232 H1221 0.950 . S
C1232 C1230 1.391 . S
C1232 C1233 1.400 . S
C1233 C1227 1.491 . S
C1233 C1232 1.400 . S
C1233 C1234 1.398 . S
C1234 H1222 0.950 . S
C1234 C1233 1.398 . S
C1234 C1235 1.391 . S
C1235 H1223 0.950 . S
C1235 C1231 1.393 . S
C1235 C1234 1.391 . S
H1236 C1244 0.950 . S
H1237 C1249 0.950 . S
H1238 C1246 0.950 . S
H1239 C1248 0.950 . S
H1240 C1250 0.950 . S
H1241 C1252 0.950 . S
H1242 C1254 0.950 . S
H1243 C1255 0.950 . S
C1244 H1236 0.950 . S
C1244 C1245 1.386 . S
C1244 C1246 1.391 . S
C1245 C1244 1.386 . S
C1245 C1249 1.393 . S
C1246 H1238 0.950 . S
C1246 C1244 1.391 . S
C1246 C1247 1.400 . S
C1247 C1246 1.400 . S
C1247 C1248 1.398 . S
C1247 C1253 1.491 1_556 S
C1248 H1239 0.950 . S
C1248 C1247 1.398 . S
C1248 C1249 1.391 . S
C1249 H1237 0.950 . S
C1249 C1245 1.393 . S
C1249 C1248 1.391 . S
C1250 H1240 0.950 . S
C1250 C1251 1.386 . S
C1250 C1252 1.391 . S
C1251 C1250 1.386 . S
C1251 C1255 1.393 . S
C1252 H1241 0.950 . S
C1252 C1250 1.391 . S
C1252 C1253 1.400 . S
C1253 C1247 1.491 1_554 S
C1253 C1252 1.400 . S
C1253 C1254 1.398 . S
C1254 H1242 0.950 . S
C1254 C1253 1.398 . S
C1254 C1255 1.391 . S
C1255 H1243 0.950 . S
C1255 C1251 1.393 . S
C1255 C1254 1.391 . S
H1256 C1264 0.950 . S
H1257 C1269 0.950 . S
H1258 C1266 0.950 . S
H1259 C1268 0.950 . S
H1260 C1270 0.950 . S
H1261 C1272 0.950 . S
H1262 C1274 0.950 . S
H1263 C1275 0.950 . S
C1264 H1256 0.950 . S
C1264 C1265 1.386 . S
C1264 C1266 1.391 . S
C1265 C1264 1.386 . S
C1265 C1269 1.393 . S
C1266 H1258 0.950 . S
C1266 C1264 1.391 . S
C1266 C1267 1.400 . S
C1267 C1266 1.400 . S
C1267 C1268 1.398 . S
C1267 C1273 1.491 . S
C1268 H1259 0.950 . S
C1268 C1267 1.398 . S
C1268 C1269 1.391 . S
C1269 H1257 0.950 . S
C1269 C1265 1.393 . S
C1269 C1268 1.391 . S
C1270 H1260 0.950 . S
C1270 C1271 1.386 . S
C1270 C1272 1.391 . S
C1271 C1270 1.386 . S
C1271 C1275 1.393 . S
C1272 H1261 0.950 . S
C1272 C1270 1.391 . S
C1272 C1273 1.400 . S
C1273 C1267 1.491 . S
C1273 C1272 1.400 . S
C1273 C1274 1.398 . S
C1274 H1262 0.950 . S
C1274 C1273 1.398 . S
C1274 C1275 1.391 . S
C1275 H1263 0.950 . S
C1275 C1271 1.393 . S
C1275 C1274 1.391 . S
H1276 C1284 0.950 . S
H1277 C1289 0.950 . S
H1278 C1286 0.950 . S
H1279 C1288 0.950 . S
H1280 C1290 0.950 . S
H1281 C1292 0.950 . S
H1282 C1294 0.950 . S
H1283 C1295 0.950 . S
C1284 H1276 0.950 . S
C1284 C1285 1.386 . S
C1284 C1286 1.391 . S
C1285 C1284 1.386 . S
C1285 C1289 1.393 . S
C1286 H1278 0.950 . S
C1286 C1284 1.391 . S
C1286 C1287 1.400 . S
C1287 C1286 1.400 . S
C1287 C1288 1.398 . S
C1287 C1293 1.491 . S
C1288 H1279 0.950 . S
C1288 C1287 1.398 . S
C1288 C1289 1.391 . S
C1289 H1277 0.950 . S
C1289 C1285 1.393 . S
C1289 C1288 1.391 . S
C1290 H1280 0.950 . S
C1290 C1291 1.386 . S
C1290 C1292 1.391 . S
C1291 C1290 1.386 . S
C1291 C1295 1.393 . S
C1292 H1281 0.950 . S
C1292 C1290 1.391 . S
C1292 C1293 1.400 . S
C1293 C1287 1.491 . S
C1293 C1292 1.400 . S
C1293 C1294 1.398 . S
C1294 H1282 0.950 . S
C1294 C1293 1.398 . S
C1294 C1295 1.391 . S
C1295 H1283 0.950 . S
C1295 C1291 1.393 . S
C1295 C1294 1.391 . S
H1296 C1304 0.950 . S
H1297 C1309 0.950 . S
H1298 C1306 0.950 . S
H1299 C1308 0.950 . S
H1300 C1310 0.950 . S
H1301 C1312 0.950 . S
H1302 C1314 0.950 . S
H1303 C1315 0.950 . S
C1304 H1296 0.950 . S
C1304 C1305 1.386 . S
C1304 C1306 1.391 . S
C1305 C1304 1.386 . S
C1305 C1309 1.393 . S
C1306 H1298 0.950 . S
C1306 C1304 1.391 . S
C1306 C1307 1.400 . S
C1307 C1306 1.400 . S
C1307 C1308 1.398 . S
C1307 C1313 1.491 . S
C1308 H1299 0.950 . S
C1308 C1307 1.398 . S
C1308 C1309 1.391 . S
C1309 H1297 0.950 . S
C1309 C1305 1.393 . S
C1309 C1308 1.391 . S
C1310 H1300 0.950 . S
C1310 C1311 1.386 . S
C1310 C1312 1.391 . S
C1311 C1310 1.386 . S
C1311 C1315 1.393 . S
C1312 H1301 0.950 . S
C1312 C1310 1.391 . S
C1312 C1313 1.400 . S
C1313 C1307 1.491 . S
C1313 C1312 1.400 . S
C1313 C1314 1.398 . S
C1314 H1302 0.950 . S
C1314 C1313 1.398 . S
C1314 C1315 1.391 . S
C1315 H1303 0.950 . S
C1315 C1311 1.393 . S
C1315 C1314 1.391 . S
H1316 C1324 0.950 . S
H1317 C1329 0.950 . S
H1318 C1326 0.950 . S
H1319 C1328 0.950 . S
H1320 C1330 0.950 . S
H1321 C1332 0.950 . S
H1322 C1334 0.950 . S
H1323 C1335 0.950 . S
C1324 H1316 0.950 . S
C1324 C1325 1.386 . S
C1324 C1326 1.391 . S
C1325 C1324 1.386 . S
C1325 C1329 1.393 . S
C1326 H1318 0.950 . S
C1326 C1324 1.391 . S
C1326 C1327 1.400 . S
C1327 C1326 1.400 . S
C1327 C1328 1.398 . S
C1327 C1333 1.491 1_554 S
C1328 H1319 0.950 . S
C1328 C1327 1.398 . S
C1328 C1329 1.391 . S
C1329 H1317 0.950 . S
C1329 C1325 1.393 . S
C1329 C1328 1.391 . S
C1330 H1320 0.950 . S
C1330 C1331 1.386 . S
C1330 C1332 1.391 . S
C1331 C1330 1.386 . S
C1331 C1335 1.393 . S
C1332 H1321 0.950 . S
C1332 C1330 1.391 . S
C1332 C1333 1.400 . S
C1333 C1327 1.491 1_556 S
C1333 C1332 1.400 . S
C1333 C1334 1.398 . S
C1334 H1322 0.950 . S
C1334 C1333 1.398 . S
C1334 C1335 1.391 . S
C1335 H1323 0.950 . S
C1335 C1331 1.393 . S
C1335 C1334 1.391 . S
H1336 C1344 0.950 1_655 S
H1337 C1349 0.950 . S
H1338 C1346 0.950 1_655 S
H1339 C1348 0.950 . S
H1340 C1350 0.950 . S
H1341 C1352 0.950 . S
H1342 C1354 0.950 1_655 S
H1343 C1355 0.950 1_655 S
C1344 H1336 0.950 1_455 S
C1344 C1345 1.386 . S
C1344 C1346 1.391 . S
C1345 C1344 1.386 . S
C1345 C1349 1.393 . S
C1346 H1338 0.950 1_455 S
C1346 C1344 1.391 . S
C1346 C1347 1.400 . S
C1347 C1346 1.400 . S
C1347 C1348 1.398 . S
C1347 C1353 1.491 . S
C1348 H1339 0.950 . S
C1348 C1347 1.398 . S
C1348 C1349 1.391 . S
C1349 H1337 0.950 . S
C1349 C1345 1.393 . S
C1349 C1348 1.391 . S
C1350 H1340 0.950 . S
C1350 C1351 1.386 . S
C1350 C1352 1.391 . S
C1351 C1350 1.386 . S
C1351 C1355 1.393 . S
C1352 H1341 0.950 . S
C1352 C1350 1.391 . S
C1352 C1353 1.400 . S
C1353 C1347 1.491 . S
C1353 C1352 1.400 . S
C1353 C1354 1.398 . S
C1354 H1342 0.950 1_455 S
C1354 C1353 1.398 . S
C1354 C1355 1.391 . S
C1355 H1343 0.950 1_455 S
C1355 C1351 1.393 . S
C1355 C1354 1.391 . S
H1356 C1364 0.950 . S
H1357 C1369 0.950 . S
H1358 C1366 0.950 . S
H1359 C1368 0.950 . S
H1360 C1370 0.950 . S
H1361 C1372 0.950 . S
H1362 C1374 0.950 . S
H1363 C1375 0.950 . S
C1364 H1356 0.950 . S
C1364 C1365 1.386 . S
C1364 C1366 1.391 . S
C1365 C1364 1.386 . S
C1365 C1369 1.393 . S
C1366 H1358 0.950 . S
C1366 C1364 1.391 . S
C1366 C1367 1.400 . S
C1367 C1366 1.400 . S
C1367 C1368 1.398 . S
C1367 C1373 1.491 . S
C1368 H1359 0.950 . S
C1368 C1367 1.398 . S
C1368 C1369 1.391 . S
C1369 H1357 0.950 . S
C1369 C1365 1.393 . S
C1369 C1368 1.391 . S
C1370 H1360 0.950 . S
C1370 C1371 1.386 . S
C1370 C1372 1.391 . S
C1371 C1370 1.386 . S
C1371 C1375 1.393 . S
C1372 H1361 0.950 . S
C1372 C1370 1.391 . S
C1372 C1373 1.400 . S
C1373 C1367 1.491 . S
C1373 C1372 1.400 . S
C1373 C1374 1.398 . S
C1374 H1362 0.950 . S
C1374 C1373 1.398 . S
C1374 C1375 1.391 . S
C1375 H1363 0.950 . S
C1375 C1371 1.393 . S
C1375 C1374 1.391 . S
H1376 C1384 0.950 . S
H1377 C1389 0.950 . S
H1378 C1386 0.950 1_655 S
H1379 C1388 0.950 . S
H1380 C1390 0.950 . S
H1381 C1392 0.950 1_455 S
H1382 C1394 0.950 . S
H1383 C1395 0.950 . S
C1384 H1376 0.950 . S
C1384 C1385 1.386 . S
C1384 C1386 1.391 . S
C1385 C1384 1.386 . S
C1385 C1389 1.393 . S
C1386 H1378 0.950 1_455 S
C1386 C1384 1.391 . S
C1386 C1387 1.400 . S
C1387 C1386 1.400 . S
C1387 C1388 1.398 . S
C1387 C1393 1.491 1_455 S
C1388 H1379 0.950 . S
C1388 C1387 1.398 . S
C1388 C1389 1.391 . S
C1389 H1377 0.950 . S
C1389 C1385 1.393 . S
C1389 C1388 1.391 . S
C1390 H1380 0.950 . S
C1390 C1391 1.386 . S
C1390 C1392 1.391 . S
C1391 C1390 1.386 . S
C1391 C1395 1.393 . S
C1392 H1381 0.950 1_655 S
C1392 C1390 1.391 . S
C1392 C1393 1.400 . S
C1393 C1387 1.491 1_655 S
C1393 C1392 1.400 . S
C1393 C1394 1.398 . S
C1394 H1382 0.950 . S
C1394 C1393 1.398 . S
C1394 C1395 1.391 . S
C1395 H1383 0.950 . S
C1395 C1391 1.393 . S
C1395 C1394 1.391 . S
H1396 C1404 0.950 . S
H1397 C1409 0.950 . S
H1398 C1406 0.950 1_655 S
H1399 C1408 0.950 . S
H1400 C1410 0.950 . S
H1401 C1412 0.950 1_455 S
H1402 C1414 0.950 . S
H1403 C1415 0.950 . S
C1404 H1396 0.950 . S
C1404 C1405 1.386 . S
C1404 C1406 1.391 . S
C1405 C1404 1.386 . S
C1405 C1409 1.393 . S
C1406 H1398 0.950 1_455 S
C1406 C1404 1.391 . S
C1406 C1407 1.400 . S
C1407 C1406 1.400 . S
C1407 C1408 1.398 . S
C1407 C1413 1.491 1_455 S
C1408 H1399 0.950 . S
C1408 C1407 1.398 . S
C1408 C1409 1.391 . S
C1409 H1397 0.950 . S
C1409 C1405 1.393 . S
C1409 C1408 1.391 . S
C1410 H1400 0.950 . S
C1410 C1411 1.386 . S
C1410 C1412 1.391 . S
C1411 C1410 1.386 . S
C1411 C1415 1.393 . S
C1412 H1401 0.950 1_655 S
C1412 C1410 1.391 . S
C1412 C1413 1.400 . S
C1413 C1407 1.491 1_655 S
C1413 C1412 1.400 . S
C1413 C1414 1.398 . S
C1414 H1402 0.950 . S
C1414 C1413 1.398 . S
C1414 C1415 1.391 . S
C1415 H1403 0.950 . S
C1415 C1411 1.393 . S
C1415 C1414 1.391 . S
H1416 C1424 0.950 . S
H1417 C1429 0.950 . S
H1418 C1426 0.950 . S
H1419 C1428 0.950 . S
H1420 C1430 0.950 . S
H1421 C1432 0.950 . S
H1422 C1434 0.950 . S
H1423 C1435 0.950 . S
C1424 H1416 0.950 . S
C1424 C1425 1.386 . S
C1424 C1426 1.391 . S
C1425 C1424 1.386 . S
C1425 C1429 1.393 . S
C1426 H1418 0.950 . S
C1426 C1424 1.391 . S
C1426 C1427 1.400 . S
C1427 C1426 1.400 . S
C1427 C1428 1.398 . S
C1427 C1433 1.491 . S
C1428 H1419 0.950 . S
C1428 C1427 1.398 . S
C1428 C1429 1.391 . S
C1429 H1417 0.950 . S
C1429 C1425 1.393 . S
C1429 C1428 1.391 . S
C1430 H1420 0.950 . S
C1430 C1431 1.386 . S
C1430 C1432 1.391 . S
C1431 C1430 1.386 . S
C1431 C1435 1.393 . S
C1432 H1421 0.950 . S
C1432 C1430 1.391 . S
C1432 C1433 1.400 . S
C1433 C1427 1.491 . S
C1433 C1432 1.400 . S
C1433 C1434 1.398 . S
C1434 H1422 0.950 . S
C1434 C1433 1.398 . S
C1434 C1435 1.391 . S
C1435 H1423 0.950 . S
C1435 C1431 1.393 . S
C1435 C1434 1.391 . S
H1436 C1444 0.950 . S
H1437 C1449 0.950 . S
H1438 C1446 0.950 . S
H1439 C1448 0.950 . S
H1440 C1450 0.950 . S
H1441 C1452 0.950 . S
H1442 C1454 0.950 . S
H1443 C1455 0.950 . S
C1444 H1436 0.950 . S
C1444 C1445 1.386 . S
C1444 C1446 1.391 . S
C1445 C1444 1.386 . S
C1445 C1449 1.393 . S
C1446 H1438 0.950 . S
C1446 C1444 1.391 . S
C1446 C1447 1.400 . S
C1447 C1446 1.400 . S
C1447 C1448 1.398 . S
C1447 C1453 1.491 . S
C1448 H1439 0.950 . S
C1448 C1447 1.398 . S
C1448 C1449 1.391 . S
C1449 H1437 0.950 . S
C1449 C1445 1.393 . S
C1449 C1448 1.391 . S
C1450 H1440 0.950 . S
C1450 C1451 1.386 . S
C1450 C1452 1.391 . S
C1451 C1450 1.386 . S
C1451 C1455 1.393 . S
C1452 H1441 0.950 . S
C1452 C1450 1.391 . S
C1452 C1453 1.400 . S
C1453 C1447 1.491 . S
C1453 C1452 1.400 . S
C1453 C1454 1.398 . S
C1454 H1442 0.950 . S
C1454 C1453 1.398 . S
C1454 C1455 1.391 . S
C1455 H1443 0.950 . S
C1455 C1451 1.393 . S
C1455 C1454 1.391 . S
H1456 C1464 0.950 . S
H1457 C1469 0.950 . S
H1458 C1466 0.950 . S
H1459 C1468 0.950 . S
H1460 C1470 0.950 . S
H1461 C1472 0.950 . S
H1462 C1474 0.950 . S
H1463 C1475 0.950 . S
C1464 H1456 0.950 . S
C1464 C1465 1.386 . S
C1464 C1466 1.391 . S
C1465 C1464 1.386 . S
C1465 C1469 1.393 . S
C1466 H1458 0.950 . S
C1466 C1464 1.391 . S
C1466 C1467 1.400 . S
C1467 C1466 1.400 . S
C1467 C1468 1.398 . S
C1467 C1473 1.491 1_455 S
C1468 H1459 0.950 . S
C1468 C1467 1.398 . S
C1468 C1469 1.391 . S
C1469 H1457 0.950 . S
C1469 C1465 1.393 . S
C1469 C1468 1.391 . S
C1470 H1460 0.950 . S
C1470 C1471 1.386 . S
C1470 C1472 1.391 . S
C1471 C1470 1.386 . S
C1471 C1475 1.393 . S
C1472 H1461 0.950 . S
C1472 C1470 1.391 . S
C1472 C1473 1.400 . S
C1473 C1467 1.491 1_655 S
C1473 C1472 1.400 . S
C1473 C1474 1.398 . S
C1474 H1462 0.950 . S
C1474 C1473 1.398 . S
C1474 C1475 1.391 . S
C1475 H1463 0.950 . S
C1475 C1471 1.393 . S
C1475 C1474 1.391 . S
H1476 C1484 0.950 . S
H1477 C1489 0.950 . S
H1478 C1486 0.950 . S
H1479 C1488 0.950 . S
H1480 C1490 0.950 . S
H1481 C1492 0.950 . S
H1482 C1494 0.950 . S
H1483 C1495 0.950 . S
C1484 H1476 0.950 . S
C1484 C1485 1.386 . S
C1484 C1486 1.391 . S
C1485 C1484 1.386 . S
C1485 C1489 1.393 . S
C1486 H1478 0.950 . S
C1486 C1484 1.391 . S
C1486 C1487 1.400 . S
C1487 C1486 1.400 . S
C1487 C1488 1.398 . S
C1487 C1493 1.491 . S
C1488 H1479 0.950 . S
C1488 C1487 1.398 . S
C1488 C1489 1.391 . S
C1489 H1477 0.950 . S
C1489 C1485 1.393 . S
C1489 C1488 1.391 . S
C1490 H1480 0.950 . S
C1490 C1491 1.386 . S
C1490 C1492 1.391 . S
C1491 C1490 1.386 . S
C1491 C1495 1.393 . S
C1492 H1481 0.950 . S
C1492 C1490 1.391 . S
C1492 C1493 1.400 . S
C1493 C1487 1.491 . S
C1493 C1492 1.400 . S
C1493 C1494 1.398 . S
C1494 H1482 0.950 . S
C1494 C1493 1.398 . S
C1494 C1495 1.391 . S
C1495 H1483 0.950 . S
C1495 C1491 1.393 . S
C1495 C1494 1.391 . S
H1496 C1504 0.950 . S
H1497 C1509 0.950 . S
H1498 C1506 0.950 . S
H1499 C1508 0.950 . S
H1500 C1510 0.950 . S
H1501 C1512 0.950 . S
H1502 C1514 0.950 . S
H1503 C1515 0.950 . S
C1504 H1496 0.950 . S
C1504 C1505 1.386 . S
C1504 C1506 1.391 . S
C1505 C1504 1.386 . S
C1505 C1509 1.393 . S
C1506 H1498 0.950 . S
C1506 C1504 1.391 . S
C1506 C1507 1.400 . S
C1507 C1506 1.400 . S
C1507 C1508 1.398 . S
C1507 C1513 1.491 . S
C1508 H1499 0.950 . S
C1508 C1507 1.398 . S
C1508 C1509 1.391 . S
C1509 H1497 0.950 . S
C1509 C1505 1.393 . S
C1509 C1508 1.391 . S
C1510 H1500 0.950 . S
C1510 C1511 1.386 . S
C1510 C1512 1.391 . S
C1511 C1510 1.386 . S
C1511 C1515 1.393 . S
C1512 H1501 0.950 . S
C1512 C1510 1.391 . S
C1512 C1513 1.400 . S
C1513 C1507 1.491 . S
C1513 C1512 1.400 . S
C1513 C1514 1.398 . S
C1514 H1502 0.950 . S
C1514 C1513 1.398 . S
C1514 C1515 1.391 . S
C1515 H1503 0.950 . S
C1515 C1511 1.393 . S
C1515 C1514 1.391 . S
H1516 C1524 0.950 . S
H1517 C1529 0.950 . S
H1518 C1526 0.950 1_655 S
H1519 C1528 0.950 . S
H1520 C1530 0.950 . S
H1521 C1532 0.950 1_455 S
H1522 C1534 0.950 . S
H1523 C1535 0.950 . S
C1524 H1516 0.950 . S
C1524 C1525 1.386 . S
C1524 C1526 1.391 . S
C1525 C1524 1.386 . S
C1525 C1529 1.393 . S
C1526 H1518 0.950 1_455 S
C1526 C1524 1.391 . S
C1526 C1527 1.400 . S
C1527 C1526 1.400 . S
C1527 C1528 1.398 . S
C1527 C1533 1.491 1_455 S
C1528 H1519 0.950 . S
C1528 C1527 1.398 . S
C1528 C1529 1.391 . S
C1529 H1517 0.950 . S
C1529 C1525 1.393 . S
C1529 C1528 1.391 . S
C1530 H1520 0.950 . S
C1530 C1531 1.386 . S
C1530 C1532 1.391 . S
C1531 C1530 1.386 . S
C1531 C1535 1.393 . S
C1532 H1521 0.950 1_655 S
C1532 C1530 1.391 . S
C1532 C1533 1.400 . S
C1533 C1527 1.491 1_655 S
C1533 C1532 1.400 . S
C1533 C1534 1.398 . S
C1534 H1522 0.950 . S
C1534 C1533 1.398 . S
C1534 C1535 1.391 . S
C1535 H1523 0.950 . S
C1535 C1531 1.393 . S
C1535 C1534 1.391 . S
H1536 C1544 0.950 . S
H1537 C1549 0.950 . S
H1538 C1546 0.950 . S
H1539 C1548 0.950 1_655 S
H1540 C1550 0.950 . S
H1541 C1552 0.950 . S
H1542 C1554 0.950 1_455 S
H1543 C1555 0.950 . S
C1544 H1536 0.950 . S
C1544 C1545 1.386 . S
C1544 C1546 1.391 . S
C1545 C1544 1.386 . S
C1545 C1549 1.393 . S
C1546 H1538 0.950 . S
C1546 C1544 1.391 . S
C1546 C1547 1.400 . S
C1547 C1546 1.400 . S
C1547 C1548 1.398 . S
C1547 C1553 1.491 1_455 S
C1548 H1539 0.950 1_455 S
C1548 C1547 1.398 . S
C1548 C1549 1.391 . S
C1549 H1537 0.950 . S
C1549 C1545 1.393 . S
C1549 C1548 1.391 . S
C1550 H1540 0.950 . S
C1550 C1551 1.386 . S
C1550 C1552 1.391 . S
C1551 C1550 1.386 . S
C1551 C1555 1.393 . S
C1552 H1541 0.950 . S
C1552 C1550 1.391 . S
C1552 C1553 1.400 . S
C1553 C1547 1.491 1_655 S
C1553 C1552 1.400 . S
C1553 C1554 1.398 . S
C1554 H1542 0.950 1_655 S
C1554 C1553 1.398 . S
C1554 C1555 1.391 . S
C1555 H1543 0.950 . S
C1555 C1551 1.393 . S
C1555 C1554 1.391 . S
H1556 C1564 0.950 . S
H1557 C1569 0.950 . S
H1558 C1566 0.950 . S
H1559 C1568 0.950 . S
H1560 C1570 0.950 . S
H1561 C1572 0.950 . S
H1562 C1574 0.950 . S
H1563 C1575 0.950 . S
C1564 H1556 0.950 . S
C1564 C1565 1.386 . S
C1564 C1566 1.391 . S
C1565 C1564 1.386 . S
C1565 C1569 1.393 . S
C1566 H1558 0.950 . S
C1566 C1564 1.391 . S
C1566 C1567 1.400 . S
C1567 C1566 1.400 . S
C1567 C1568 1.398 . S
C1567 C1573 1.491 1_655 S
C1568 H1559 0.950 . S
C1568 C1567 1.398 . S
C1568 C1569 1.391 . S
C1569 H1557 0.950 . S
C1569 C1565 1.393 . S
C1569 C1568 1.391 . S
C1570 H1560 0.950 . S
C1570 C1571 1.386 . S
C1570 C1572 1.391 . S
C1571 C1570 1.386 . S
C1571 C1575 1.393 . S
C1572 H1561 0.950 . S
C1572 C1570 1.391 . S
C1572 C1573 1.400 . S
C1573 C1567 1.491 1_455 S
C1573 C1572 1.400 . S
C1573 C1574 1.398 . S
C1574 H1562 0.950 . S
C1574 C1573 1.398 . S
C1574 C1575 1.391 . S
C1575 H1563 0.950 . S
C1575 C1571 1.393 . S
C1575 C1574 1.391 . S
H1576 C1584 0.950 . S
H1577 C1589 0.950 . S
H1578 C1586 0.950 . S
H1579 C1588 0.950 . S
H1580 C1590 0.950 . S
H1581 C1592 0.950 . S
H1582 C1594 0.950 . S
H1583 C1595 0.950 . S
C1584 H1576 0.950 . S
C1584 C1585 1.386 . S
C1584 C1586 1.391 . S
C1585 C1584 1.386 . S
C1585 C1589 1.393 . S
C1586 H1578 0.950 . S
C1586 C1584 1.391 . S
C1586 C1587 1.400 . S
C1587 C1586 1.400 . S
C1587 C1588 1.398 . S
C1587 C1593 1.491 . S
C1588 H1579 0.950 . S
C1588 C1587 1.398 . S
C1588 C1589 1.391 . S
C1589 H1577 0.950 . S
C1589 C1585 1.393 . S
C1589 C1588 1.391 . S
C1590 H1580 0.950 . S
C1590 C1591 1.386 . S
C1590 C1592 1.391 . S
C1591 C1590 1.386 . S
C1591 C1595 1.393 . S
C1592 H1581 0.950 . S
C1592 C1590 1.391 . S
C1592 C1593 1.400 . S
C1593 C1587 1.491 . S
C1593 C1592 1.400 . S
C1593 C1594 1.398 . S
C1594 H1582 0.950 . S
C1594 C1593 1.398 . S
C1594 C1595 1.391 . S
C1595 H1583 0.950 . S
C1595 C1591 1.393 . S
C1595 C1594 1.391 . S
H1596 C1604 0.950 . S
H1597 C1609 0.950 . S
H1598 C1606 0.950 . S
H1599 C1608 0.950 . S
H1600 C1610 0.950 . S
H1601 C1612 0.950 . S
H1602 C1614 0.950 . S
H1603 C1615 0.950 . S
C1604 H1596 0.950 . S
C1604 C1605 1.386 . S
C1604 C1606 1.391 . S
C1605 C1604 1.386 . S
C1605 C1609 1.393 . S
C1606 H1598 0.950 . S
C1606 C1604 1.391 . S
C1606 C1607 1.400 . S
C1607 C1606 1.400 . S
C1607 C1608 1.398 . S
C1607 C1613 1.491 . S
C1608 H1599 0.950 . S
C1608 C1607 1.398 . S
C1608 C1609 1.391 . S
C1609 H1597 0.950 . S
C1609 C1605 1.393 . S
C1609 C1608 1.391 . S
C1610 H1600 0.950 . S
C1610 C1611 1.386 . S
C1610 C1612 1.391 . S
C1611 C1610 1.386 . S
C1611 C1615 1.393 . S
C1612 H1601 0.950 . S
C1612 C1610 1.391 . S
C1612 C1613 1.400 . S
C1613 C1607 1.491 . S
C1613 C1612 1.400 . S
C1613 C1614 1.398 . S
C1614 H1602 0.950 . S
C1614 C1613 1.398 . S
C1614 C1615 1.391 . S
C1615 H1603 0.950 . S
C1615 C1611 1.393 . S
C1615 C1614 1.391 . S
H1616 C1624 0.950 . S
H1617 C1629 0.950 . S
H1618 C1626 0.950 . S
H1619 C1628 0.950 . S
H1620 C1630 0.950 . S
H1621 C1632 0.950 . S
H1622 C1634 0.950 . S
H1623 C1635 0.950 . S
C1624 H1616 0.950 . S
C1624 C1625 1.386 . S
C1624 C1626 1.391 . S
C1625 C1624 1.386 . S
C1625 C1629 1.393 . S
C1626 H1618 0.950 . S
C1626 C1624 1.391 . S
C1626 C1627 1.400 . S
C1627 C1626 1.400 . S
C1627 C1628 1.398 . S
C1627 C1633 1.491 1_655 S
C1628 H1619 0.950 . S
C1628 C1627 1.398 . S
C1628 C1629 1.391 . S
C1629 H1617 0.950 . S
C1629 C1625 1.393 . S
C1629 C1628 1.391 . S
C1630 H1620 0.950 . S
C1630 C1631 1.386 . S
C1630 C1632 1.391 . S
C1631 C1630 1.386 . S
C1631 C1635 1.393 . S
C1632 H1621 0.950 . S
C1632 C1630 1.391 . S
C1632 C1633 1.400 . S
C1633 C1627 1.491 1_455 S
C1633 C1632 1.400 . S
C1633 C1634 1.398 . S
C1634 H1622 0.950 . S
C1634 C1633 1.398 . S
C1634 C1635 1.391 . S
C1635 H1623 0.950 . S
C1635 C1631 1.393 . S
C1635 C1634 1.391 . S
H1636 C1644 0.950 . S
H1637 C1649 0.950 . S
H1638 C1646 0.950 . S
H1639 C1648 0.950 . S
H1640 C1650 0.950 . S
H1641 C1652 0.950 . S
H1642 C1654 0.950 . S
H1643 C1655 0.950 . S
C1644 H1636 0.950 . S
C1644 C1645 1.386 . S
C1644 C1646 1.391 . S
C1645 C1644 1.386 . S
C1645 C1649 1.393 . S
C1646 H1638 0.950 . S
C1646 C1644 1.391 . S
C1646 C1647 1.400 . S
C1647 C1646 1.400 . S
C1647 C1648 1.398 . S
C1647 C1653 1.491 . S
C1648 H1639 0.950 . S
C1648 C1647 1.398 . S
C1648 C1649 1.391 . S
C1649 H1637 0.950 . S
C1649 C1645 1.393 . S
C1649 C1648 1.391 . S
C1650 H1640 0.950 . S
C1650 C1651 1.386 . S
C1650 C1652 1.391 . S
C1651 C1650 1.386 . S
C1651 C1655 1.393 . S
C1652 H1641 0.950 . S
C1652 C1650 1.391 . S
C1652 C1653 1.400 . S
C1653 C1647 1.491 . S
C1653 C1652 1.400 . S
C1653 C1654 1.398 . S
C1654 H1642 0.950 . S
C1654 C1653 1.398 . S
C1654 C1655 1.391 . S
C1655 H1643 0.950 . S
C1655 C1651 1.393 . S
C1655 C1654 1.391 . S
H1656 C1664 0.950 . S
H1657 C1669 0.950 . S
H1658 C1666 0.950 . S
H1659 C1668 0.950 . S
H1660 C1670 0.950 . S
H1661 C1672 0.950 . S
H1662 C1674 0.950 . S
H1663 C1675 0.950 . S
C1664 H1656 0.950 . S
C1664 C1665 1.386 . S
C1664 C1666 1.391 . S
C1665 C1664 1.386 . S
C1665 C1669 1.393 . S
C1666 H1658 0.950 . S
C1666 C1664 1.391 . S
C1666 C1667 1.400 . S
C1667 C1666 1.400 . S
C1667 C1668 1.398 . S
C1667 C1673 1.491 . S
C1668 H1659 0.950 . S
C1668 C1667 1.398 . S
C1668 C1669 1.391 . S
C1669 H1657 0.950 . S
C1669 C1665 1.393 . S
C1669 C1668 1.391 . S
C1670 H1660 0.950 . S
C1670 C1671 1.386 . S
C1670 C1672 1.391 . S
C1671 C1670 1.386 . S
C1671 C1675 1.393 . S
C1672 H1661 0.950 . S
C1672 C1670 1.391 . S
C1672 C1673 1.400 . S
C1673 C1667 1.491 . S
C1673 C1672 1.400 . S
C1673 C1674 1.398 . S
C1674 H1662 0.950 . S
C1674 C1673 1.398 . S
C1674 C1675 1.391 . S
C1675 H1663 0.950 . S
C1675 C1671 1.393 . S
C1675 C1674 1.391 . S
H1676 C1684 0.950 . S
H1677 C1689 0.950 . S
H1678 C1686 0.950 1_455 S
H1679 C1688 0.950 . S
H1680 C1690 0.950 . S
H1681 C1692 0.950 1_655 S
H1682 C1694 0.950 . S
H1683 C1695 0.950 . S
C1684 H1676 0.950 . S
C1684 C1685 1.386 . S
C1684 C1686 1.391 . S
C1685 C1684 1.386 . S
C1685 C1689 1.393 . S
C1686 H1678 0.950 1_655 S
C1686 C1684 1.391 . S
C1686 C1687 1.400 . S
C1687 C1686 1.400 . S
C1687 C1688 1.398 . S
C1687 C1693 1.491 1_655 S
C1688 H1679 0.950 . S
C1688 C1687 1.398 . S
C1688 C1689 1.391 . S
C1689 H1677 0.950 . S
C1689 C1685 1.393 . S
C1689 C1688 1.391 . S
C1690 H1680 0.950 . S
C1690 C1691 1.386 . S
C1690 C1692 1.391 . S
C1691 C1690 1.386 . S
C1691 C1695 1.393 . S
C1692 H1681 0.950 1_455 S
C1692 C1690 1.391 . S
C1692 C1693 1.400 . S
C1693 C1687 1.491 1_455 S
C1693 C1692 1.400 . S
C1693 C1694 1.398 . S
C1694 H1682 0.950 . S
C1694 C1693 1.398 . S
C1694 C1695 1.391 . S
C1695 H1683 0.950 . S
C1695 C1691 1.393 . S
C1695 C1694 1.391 . S
H1696 C1704 0.950 . S
H1697 C1709 0.950 . S
H1698 C1706 0.950 . S
H1699 C1708 0.950 . S
H1700 C1710 0.950 . S
H1701 C1712 0.950 . S
H1702 C1714 0.950 . S
H1703 C1715 0.950 . S
C1704 H1696 0.950 . S
C1704 C1705 1.375 1_565 S
C1704 C1706 1.391 . S
C1705 C1704 1.375 1_545 S
C1705 C1709 1.406 . S
C1706 H1698 0.950 . S
C1706 C1704 1.391 . S
C1706 C1707 1.400 1_565 S
C1707 C1706 1.400 1_545 S
C1707 C1708 1.398 . S
C1707 C1713 1.491 . S
C1708 H1699 0.950 . S
C1708 C1707 1.398 . S
C1708 C1709 1.391 . S
C1709 H1697 0.950 . S
C1709 C1705 1.406 . S
C1709 C1708 1.391 . S
C1710 H1700 0.950 . S
C1710 C1711 1.386 . S
C1710 C1712 1.391 . S
C1711 C1710 1.386 . S
C1711 C1715 1.393 1_545 S
C1712 H1701 0.950 . S
C1712 C1710 1.391 . S
C1712 C1713 1.400 . S
C1713 C1707 1.491 . S
C1713 C1712 1.400 . S
C1713 C1714 1.398 1_545 S
C1714 H1702 0.950 . S
C1714 C1713 1.398 1_565 S
C1714 C1715 1.391 . S
C1715 H1703 0.950 . S
C1715 C1711 1.393 1_565 S
C1715 C1714 1.391 . S
H1716 C1724 0.950 . S
H1717 C1729 0.950 . S
H1718 C1726 0.950 . S
H1719 C1728 0.950 . S
H1720 C1730 0.950 . S
H1721 C1732 0.950 . S
H1722 C1734 0.950 . S
H1723 C1735 0.950 . S
C1724 H1716 0.950 . S
C1724 C1725 1.386 . S
C1724 C1726 1.391 . S
C1725 C1724 1.386 . S
C1725 C1729 1.393 . S
C1726 H1718 0.950 . S
C1726 C1724 1.391 . S
C1726 C1727 1.400 . S
C1727 C1726 1.400 . S
C1727 C1728 1.398 . S
C1727 C1733 1.491 . S
C1728 H1719 0.950 . S
C1728 C1727 1.398 . S
C1728 C1729 1.391 . S
C1729 H1717 0.950 . S
C1729 C1725 1.393 . S
C1729 C1728 1.391 . S
C1730 H1720 0.950 . S
C1730 C1731 1.386 . S
C1730 C1732 1.391 1_565 S
C1731 C1730 1.386 . S
C1731 C1735 1.393 . S
C1732 H1721 0.950 . S
C1732 C1730 1.391 1_545 S
C1732 C1733 1.400 . S
C1733 C1727 1.491 . S
C1733 C1732 1.400 . S
C1733 C1734 1.398 . S
C1734 H1722 0.950 . S
C1734 C1733 1.398 . S
C1734 C1735 1.391 1_545 S
C1735 H1723 0.950 . S
C1735 C1731 1.393 . S
C1735 C1734 1.391 1_565 S
H1736 C1744 0.950 . S
H1737 C1749 0.950 . S
H1738 C1746 0.950 . S
H1739 C1748 0.950 . S
H1740 C1750 0.950 . S
H1741 C1752 0.950 . S
H1742 C1754 0.950 . S
H1743 C1755 0.950 . S
C1744 H1736 0.950 . S
C1744 C1745 1.386 . S
C1744 C1746 1.391 . S
C1745 C1744 1.386 . S
C1745 C1749 1.393 1_565 S
C1746 H1738 0.950 . S
C1746 C1744 1.391 . S
C1746 C1747 1.400 . S
C1747 C1746 1.400 . S
C1747 C1748 1.398 1_565 S
C1747 C1753 1.491 . S
C1748 H1739 0.950 . S
C1748 C1747 1.398 1_545 S
C1748 C1749 1.391 . S
C1749 H1737 0.950 . S
C1749 C1745 1.393 1_545 S
C1749 C1748 1.391 . S
C1750 H1740 0.950 . S
C1750 C1751 1.386 1_545 S
C1750 C1752 1.391 . S
C1751 C1750 1.386 1_565 S
C1751 C1755 1.393 . S
C1752 H1741 0.950 . S
C1752 C1750 1.391 . S
C1752 C1753 1.400 1_545 S
C1753 C1747 1.491 . S
C1753 C1752 1.400 1_565 S
C1753 C1754 1.398 . S
C1754 H1742 0.950 . S
C1754 C1753 1.398 . S
C1754 C1755 1.391 . S
C1755 H1743 0.950 . S
C1755 C1751 1.393 . S
C1755 C1754 1.391 . S
H1756 C1764 0.950 . S
H1757 C1769 0.950 . S
H1758 C1766 0.950 . S
H1759 C1768 0.950 . S
H1760 C1770 0.959 . S
H1761 C1772 0.950 . S
H1762 C1774 0.950 . S
H1763 C1775 0.950 . S
C1764 H1756 0.950 . S
C1764 C1765 1.386 . S
C1764 C1766 1.391 . S
C1765 C1764 1.386 . S
C1765 C1769 1.393 . S
C1766 H1758 0.950 . S
C1766 C1764 1.391 . S
C1766 C1767 1.400 . S
C1767 C1766 1.400 . S
C1767 C1768 1.398 . S
C1767 C1773 1.491 . S
C1768 H1759 0.950 . S
C1768 C1767 1.398 . S
C1768 C1769 1.391 . S
C1769 H1757 0.950 . S
C1769 C1765 1.393 . S
C1769 C1768 1.391 . S
C1770 H1760 0.959 . S
C1770 C1771 1.400 . S
C1770 C1772 1.367 1_545 S
C1771 C1770 1.400 . S
C1771 C1775 1.393 . S
C1772 H1761 0.950 . S
C1772 C1770 1.367 1_565 S
C1772 C1773 1.400 . S
C1773 C1767 1.491 . S
C1773 C1772 1.400 . S
C1773 C1774 1.398 . S
C1774 H1762 0.950 . S
C1774 C1773 1.398 . S
C1774 C1775 1.391 1_565 S
C1775 H1763 0.950 . S
C1775 C1771 1.393 . S
C1775 C1774 1.391 1_545 S
H1776 C1784 0.950 . S
H1777 C1789 0.950 . S
H1778 C1786 0.950 . S
H1779 C1788 0.950 . S
H1780 C1790 0.950 . S
H1781 C1792 0.950 . S
H1782 C1794 0.950 . S
H1783 C1795 0.950 . S
C1784 H1776 0.950 . S
C1784 C1785 1.386 1_565 S
C1784 C1786 1.391 . S
C1785 C1784 1.386 1_545 S
C1785 C1789 1.393 . S
C1786 H1778 0.950 . S
C1786 C1784 1.391 . S
C1786 C1787 1.400 . S
C1787 C1786 1.400 . S
C1787 C1788 1.398 1_565 S
C1787 C1793 1.491 . S
C1788 H1779 0.950 . S
C1788 C1787 1.398 1_545 S
C1788 C1789 1.391 . S
C1789 H1777 0.950 . S
C1789 C1785 1.393 . S
C1789 C1788 1.391 . S
C1790 H1780 0.950 . S
C1790 C1791 1.386 1_545 S
C1790 C1792 1.391 . S
C1791 C1790 1.386 1_565 S
C1791 C1795 1.393 . S
C1792 H1781 0.950 . S
C1792 C1790 1.391 . S
C1792 C1793 1.400 1_545 S
C1793 C1787 1.491 . S
C1793 C1792 1.400 1_565 S
C1793 C1794 1.398 . S
C1794 H1782 0.950 . S
C1794 C1793 1.398 . S
C1794 C1795 1.391 . S
C1795 H1783 0.950 . S
C1795 C1791 1.393 . S
C1795 C1794 1.391 . S
H1796 C1804 0.950 . S
H1797 C1809 0.950 . S
H1798 C1806 0.950 . S
H1799 C1808 0.950 . S
H1800 C1810 0.950 . S
H1801 C1812 0.950 . S
H1802 C1814 0.950 . S
H1803 C1815 0.950 . S
C1804 H1796 0.950 . S
C1804 C1805 1.386 . S
C1804 C1806 1.391 1_565 S
C1805 C1804 1.386 . S
C1805 C1809 1.393 . S
C1806 H1798 0.950 . S
C1806 C1804 1.391 1_545 S
C1806 C1807 1.400 . S
C1807 C1806 1.400 . S
C1807 C1808 1.398 . S
C1807 C1813 1.491 . S
C1808 H1799 0.950 . S
C1808 C1807 1.398 . S
C1808 C1809 1.391 1_545 S
C1809 H1797 0.950 . S
C1809 C1805 1.393 . S
C1809 C1808 1.391 1_565 S
C1810 H1800 0.950 . S
C1810 C1811 1.386 . S
C1810 C1812 1.391 . S
C1811 C1810 1.386 . S
C1811 C1815 1.393 . S
C1812 H1801 0.950 . S
C1812 C1810 1.391 . S
C1812 C1813 1.400 . S
C1813 C1807 1.491 . S
C1813 C1812 1.400 . S
C1813 C1814 1.398 . S
C1814 H1802 0.950 . S
C1814 C1813 1.398 . S
C1814 C1815 1.391 . S
C1815 H1803 0.950 . S
C1815 C1811 1.393 . S
C1815 C1814 1.391 . S
H1816 C1824 0.950 . S
H1817 C1829 0.950 . S
H1818 C1826 0.950 . S
H1819 C1828 0.950 . S
H1820 C1830 0.950 . S
H1821 C1832 0.950 . S
H1822 C1834 0.950 . S
H1823 C1835 0.950 . S
C1824 H1816 0.950 . S
C1824 C1825 1.386 1_545 S
C1824 C1826 1.391 . S
C1825 C1824 1.386 1_565 S
C1825 C1829 1.393 . S
C1826 H1818 0.950 . S
C1826 C1824 1.391 . S
C1826 C1827 1.400 . S
C1827 C1826 1.400 . S
C1827 C1828 1.398 1_545 S
C1827 C1833 1.491 . S
C1828 H1819 0.950 . S
C1828 C1827 1.398 1_565 S
C1828 C1829 1.391 . S
C1829 H1817 0.950 . S
C1829 C1825 1.393 . S
C1829 C1828 1.391 . S
C1830 H1820 0.950 . S
C1830 C1831 1.386 1_565 S
C1830 C1832 1.391 . S
C1831 C1830 1.386 1_545 S
C1831 C1835 1.393 . S
C1832 H1821 0.950 . S
C1832 C1830 1.391 . S
C1832 C1833 1.400 1_565 S
C1833 C1827 1.491 . S
C1833 C1832 1.400 1_545 S
C1833 C1834 1.398 . S
C1834 H1822 0.950 . S
C1834 C1833 1.398 . S
C1834 C1835 1.391 . S
C1835 H1823 0.950 . S
C1835 C1831 1.393 . S
C1835 C1834 1.391 . S
H1836 C1844 0.950 . S
H1837 C1849 0.950 . S
H1838 C1846 0.950 . S
H1839 C1848 0.950 . S
H1840 C1850 0.950 . S
H1841 C1852 0.950 . S
H1842 C1854 0.950 . S
H1843 C1855 0.949 1_545 S
C1844 H1836 0.950 . S
C1844 C1845 1.386 . S
C1844 C1846 1.391 . S
C1845 C1844 1.386 . S
C1845 C1849 1.393 . S
C1846 H1838 0.950 . S
C1846 C1844 1.391 . S
C1846 C1847 1.400 . S
C1847 C1846 1.400 . S
C1847 C1848 1.398 . S
C1847 C1853 1.491 . S
C1848 H1839 0.950 . S
C1848 C1847 1.398 . S
C1848 C1849 1.391 . S
C1849 H1837 0.950 . S
C1849 C1845 1.393 . S
C1849 C1848 1.391 . S
C1850 H1840 0.950 . S
C1850 C1851 1.386 . S
C1850 C1852 1.391 1_545 S
C1851 C1850 1.386 . S
C1851 C1855 1.391 1_545 S
C1852 H1841 0.950 . S
C1852 C1850 1.391 1_565 S
C1852 C1853 1.400 . S
C1853 C1847 1.491 . S
C1853 C1852 1.400 . S
C1853 C1854 1.398 . S
C1854 H1842 0.950 . S
C1854 C1853 1.398 . S
C1854 C1855 1.393 . S
C1855 H1843 0.949 1_565 S
C1855 C1851 1.391 1_565 S
C1855 C1854 1.393 . S
H1856 C1864 0.950 . S
H1857 C1869 0.950 1_545 S
H1858 C1866 0.950 . S
H1859 C1868 0.950 . S
H1860 C1870 0.950 . S
H1861 C1872 0.950 . S
H1862 C1874 0.950 . S
H1863 C1875 0.950 . S
C1864 H1856 0.950 . S
C1864 C1865 1.386 . S
C1864 C1866 1.391 . S
C1865 C1864 1.386 . S
C1865 C1869 1.393 . S
C1866 H1858 0.950 . S
C1866 C1864 1.391 . S
C1866 C1867 1.400 . S
C1867 C1866 1.400 . S
C1867 C1868 1.398 1_565 S
C1867 C1873 1.491 . S
C1868 H1859 0.950 . S
C1868 C1867 1.398 1_545 S
C1868 C1869 1.391 1_545 S
C1869 H1857 0.950 1_565 S
C1869 C1865 1.393 . S
C1869 C1868 1.391 1_565 S
C1870 H1860 0.950 . S
C1870 C1871 1.386 1_545 S
C1870 C1872 1.391 . S
C1871 C1870 1.386 1_565 S
C1871 C1875 1.393 . S
C1872 H1861 0.950 . S
C1872 C1870 1.391 . S
C1872 C1873 1.400 1_545 S
C1873 C1867 1.491 . S
C1873 C1872 1.400 1_565 S
C1873 C1874 1.398 . S
C1874 H1862 0.950 . S
C1874 C1873 1.398 . S
C1874 C1875 1.391 . S
C1875 H1863 0.950 . S
C1875 C1871 1.393 . S
C1875 C1874 1.391 . S
H1876 C1884 0.950 . S
H1877 C1889 0.950 . S
H1878 C1886 0.950 . S
H1879 C1888 0.950 . S
H1880 C1890 0.961 . S
H1881 C1892 0.950 . S
H1882 C1894 0.950 . S
H1883 C1895 0.950 . S
C1884 H1876 0.950 . S
C1884 C1885 1.386 . S
C1884 C1886 1.391 . S
C1885 C1884 1.386 . S
C1885 C1889 1.393 . S
C1886 H1878 0.950 . S
C1886 C1884 1.391 . S
C1886 C1887 1.400 . S
C1887 C1886 1.400 . S
C1887 C1888 1.398 . S
C1887 C1893 1.491 . S
C1888 H1879 0.950 . S
C1888 C1887 1.398 . S
C1888 C1889 1.391 . S
C1889 H1877 0.950 . S
C1889 C1885 1.393 . S
C1889 C1888 1.391 . S
C1890 H1880 0.961 . S
C1890 C1891 1.402 . S
C1890 C1892 1.365 1_545 S
C1891 C1890 1.402 . S
C1891 C1895 1.393 . S
C1892 H1881 0.950 . S
C1892 C1890 1.365 1_565 S
C1892 C1893 1.400 . S
C1893 C1887 1.491 . S
C1893 C1892 1.400 . S
C1893 C1894 1.398 . S
C1894 H1882 0.950 . S
C1894 C1893 1.398 . S
C1894 C1895 1.391 1_565 S
C1895 H1883 0.950 . S
C1895 C1891 1.393 . S
C1895 C1894 1.391 1_545 S
H1896 C1904 0.950 . S
H1897 C1909 0.950 . S
H1898 C1906 0.950 . S
H1899 C1908 0.950 . S
H1900 C1910 0.950 . S
H1901 C1912 0.950 . S
H1902 C1914 0.950 . S
H1903 C1915 0.950 . S
C1904 H1896 0.950 . S
C1904 C1905 1.386 1_545 S
C1904 C1906 1.391 . S
C1905 C1904 1.386 1_565 S
C1905 C1909 1.393 . S
C1906 H1898 0.950 . S
C1906 C1904 1.391 . S
C1906 C1907 1.400 . S
C1907 C1906 1.400 . S
C1907 C1908 1.398 . S
C1907 C1913 1.491 . S
C1908 H1899 0.950 . S
C1908 C1907 1.398 . S
C1908 C1909 1.391 1_545 S
C1909 H1897 0.950 . S
C1909 C1905 1.393 . S
C1909 C1908 1.391 1_565 S
C1910 H1900 0.950 . S
C1910 C1911 1.386 . S
C1910 C1912 1.391 . S
C1911 C1910 1.386 . S
C1911 C1915 1.393 . S
C1912 H1901 0.950 . S
C1912 C1910 1.391 . S
C1912 C1913 1.400 . S
C1913 C1907 1.491 . S
C1913 C1912 1.400 . S
C1913 C1914 1.398 . S
C1914 H1902 0.950 . S
C1914 C1913 1.398 . S
C1914 C1915 1.391 . S
C1915 H1903 0.950 . S
C1915 C1911 1.393 . S
C1915 C1914 1.391 . S
H1916 C1924 0.950 . S
H1917 C1929 0.950 . S
H1918 C1926 0.950 . S
H1919 C1928 0.950 . S
H1920 C1930 0.950 . S
H1921 C1932 0.950 . S
H1922 C1934 0.950 . S
H1923 C1935 0.950 . S
C1924 H1916 0.950 . S
C1924 C1925 1.386 . S
C1924 C1926 1.391 1_565 S
C1925 C1924 1.386 . S
C1925 C1929 1.393 . S
C1926 H1918 0.950 . S
C1926 C1924 1.391 1_545 S
C1926 C1927 1.400 . S
C1927 C1926 1.400 . S
C1927 C1928 1.398 . S
C1927 C1933 1.491 . S
C1928 H1919 0.950 . S
C1928 C1927 1.398 . S
C1928 C1929 1.391 1_545 S
C1929 H1917 0.950 . S
C1929 C1925 1.393 . S
C1929 C1928 1.391 1_565 S
C1930 H1920 0.950 . S
C1930 C1931 1.386 . S
C1930 C1932 1.391 . S
C1931 C1930 1.386 . S
C1931 C1935 1.393 . S
C1932 H1921 0.950 . S
C1932 C1930 1.391 . S
C1932 C1933 1.400 . S
C1933 C1927 1.491 . S
C1933 C1932 1.400 . S
C1933 C1934 1.398 . S
C1934 H1922 0.950 . S
C1934 C1933 1.398 . S
C1934 C1935 1.391 . S
C1935 H1923 0.950 . S
C1935 C1931 1.393 . S
C1935 C1934 1.391 . S
H1936 C1944 0.950 . S
H1937 C1949 0.950 . S
H1938 C1946 0.950 . S
H1939 C1948 0.950 . S
H1940 C1950 0.950 . S
H1941 C1952 0.950 . S
H1942 C1954 0.946 1_565 S
H1943 C1955 0.950 1_565 S
C1944 H1936 0.950 . S
C1944 C1945 1.386 . S
C1944 C1946 1.391 . S
C1945 C1944 1.386 . S
C1945 C1949 1.393 1_565 S
C1946 H1938 0.950 . S
C1946 C1944 1.391 . S
C1946 C1947 1.400 1_565 S
C1947 C1946 1.400 1_545 S
C1947 C1948 1.398 . S
C1947 C1953 1.491 . S
C1948 H1939 0.950 . S
C1948 C1947 1.398 . S
C1948 C1949 1.391 . S
C1949 H1937 0.950 . S
C1949 C1945 1.393 1_545 S
C1949 C1948 1.391 . S
C1950 H1940 0.950 . S
C1950 C1951 1.386 . S
C1950 C1952 1.391 . S
C1951 C1950 1.386 . S
C1951 C1955 1.393 . S
C1952 H1941 0.950 . S
C1952 C1950 1.391 . S
C1952 C1953 1.400 . S
C1953 C1947 1.491 . S
C1953 C1952 1.400 . S
C1953 C1954 1.401 . S
C1954 H1942 0.946 1_545 S
C1954 C1953 1.401 . S
C1954 C1955 1.392 . S
C1955 H1943 0.950 1_545 S
C1955 C1951 1.393 . S
C1955 C1954 1.392 . S
H1956 C1964 0.950 . S
H1957 C1969 0.950 . S
H1958 C1966 0.950 . S
H1959 C1968 0.950 . S
H1960 C1970 0.954 . S
H1961 C1972 0.950 . S
H1962 C1974 0.950 . S
H1963 C1975 0.950 . S
C1964 H1956 0.950 . S
C1964 C1965 1.386 . S
C1964 C1966 1.391 . S
C1965 C1964 1.386 . S
C1965 C1969 1.393 . S
C1966 H1958 0.950 . S
C1966 C1964 1.391 . S
C1966 C1967 1.400 . S
C1967 C1966 1.400 . S
C1967 C1968 1.398 . S
C1967 C1973 1.491 . S
C1968 H1959 0.950 . S
C1968 C1967 1.398 . S
C1968 C1969 1.391 . S
C1969 H1957 0.950 . S
C1969 C1965 1.393 . S
C1969 C1968 1.391 . S
C1970 H1960 0.954 . S
C1970 C1971 1.392 . S
C1970 C1972 1.381 1_545 S
C1971 C1970 1.392 . S
C1971 C1975 1.393 . S
C1972 H1961 0.950 . S
C1972 C1970 1.381 1_565 S
C1972 C1973 1.400 . S
C1973 C1967 1.491 . S
C1973 C1972 1.400 . S
C1973 C1974 1.398 . S
C1974 H1962 0.950 . S
C1974 C1973 1.398 . S
C1974 C1975 1.391 1_565 S
C1975 H1963 0.950 . S
C1975 C1971 1.393 . S
C1975 C1974 1.391 1_545 S
H1976 C1984 0.950 . S
H1977 C1989 0.950 . S
H1978 C1986 0.950 . S
H1979 C1988 0.950 . S
H1980 C1990 0.950 . S
H1981 C1992 0.950 . S
H1982 C1994 0.950 . S
H1983 C1995 0.950 . S
C1984 H1976 0.950 . S
C1984 C1985 1.373 1_565 S
C1984 C1986 1.391 . S
C1985 C1984 1.373 1_545 S
C1985 C1989 1.403 . S
C1986 H1978 0.950 . S
C1986 C1984 1.391 . S
C1986 C1987 1.400 . S
C1987 C1986 1.400 . S
C1987 C1988 1.398 1_565 S
C1987 C1993 1.491 . S
C1988 H1979 0.950 . S
C1988 C1987 1.398 1_545 S
C1988 C1989 1.391 . S
C1989 H1977 0.950 . S
C1989 C1985 1.403 . S
C1989 C1988 1.391 . S
C1990 H1980 0.950 . S
C1990 C1991 1.386 1_545 S
C1990 C1992 1.391 . S
C1991 C1990 1.386 1_565 S
C1991 C1995 1.393 . S
C1992 H1981 0.950 . S
C1992 C1990 1.391 . S
C1992 C1993 1.400 1_545 S
C1993 C1987 1.491 . S
C1993 C1992 1.400 1_565 S
C1993 C1994 1.398 . S
C1994 H1982 0.950 . S
C1994 C1993 1.398 . S
C1994 C1995 1.391 . S
C1995 H1983 0.950 . S
C1995 C1991 1.393 . S
C1995 C1994 1.391 . S
H1996 C2004 0.950 . S
H1997 C2009 0.950 . S
H1998 C2006 0.950 . S
H1999 C2008 0.950 . S
H2000 C2010 0.950 . S
H2001 C2012 0.950 . S
H2002 C2014 0.950 . S
H2003 C2015 0.949 1_565 S
C2004 H1996 0.950 . S
C2004 C2005 1.386 . S
C2004 C2006 1.391 . S
C2005 C2004 1.386 . S
C2005 C2009 1.393 . S
C2006 H1998 0.950 . S
C2006 C2004 1.391 . S
C2006 C2007 1.400 . S
C2007 C2006 1.400 . S
C2007 C2008 1.398 . S
C2007 C2013 1.491 . S
C2008 H1999 0.950 . S
C2008 C2007 1.398 . S
C2008 C2009 1.391 . S
C2009 H1997 0.950 . S
C2009 C2005 1.393 . S
C2009 C2008 1.391 . S
C2010 H2000 0.950 . S
C2010 C2011 1.386 . S
C2010 C2012 1.391 1_565 S
C2011 C2010 1.386 . S
C2011 C2015 1.391 1_565 S
C2012 H2001 0.950 . S
C2012 C2010 1.391 1_545 S
C2012 C2013 1.400 . S
C2013 C2007 1.491 . S
C2013 C2012 1.400 . S
C2013 C2014 1.398 . S
C2014 H2002 0.950 . S
C2014 C2013 1.398 . S
C2014 C2015 1.394 . S
C2015 H2003 0.949 1_545 S
C2015 C2011 1.391 1_545 S
C2015 C2014 1.394 . S
H2016 C2024 0.950 . S
H2017 C2029 0.950 . S
H2018 C2026 0.950 . S
H2019 C2028 0.950 . S
H2020 C2030 0.950 . S
H2021 C2032 0.950 . S
H2022 C2034 0.950 . S
H2023 C2035 0.950 . S
C2024 H2016 0.950 . S
C2024 C2025 1.386 . S
C2024 C2026 1.391 . S
C2025 C2024 1.386 . S
C2025 C2029 1.393 . S
C2026 H2018 0.950 . S
C2026 C2024 1.391 . S
C2026 C2027 1.400 . S
C2027 C2026 1.400 . S
C2027 C2028 1.398 . S
C2027 C2033 1.491 . S
C2028 H2019 0.950 . S
C2028 C2027 1.398 . S
C2028 C2029 1.391 . S
C2029 H2017 0.950 . S
C2029 C2025 1.393 . S
C2029 C2028 1.391 . S
C2030 H2020 0.950 . S
C2030 C2031 1.386 . S
C2030 C2032 1.391 . S
C2031 C2030 1.386 . S
C2031 C2035 1.393 . S
C2032 H2021 0.950 . S
C2032 C2030 1.391 . S
C2032 C2033 1.400 . S
C2033 C2027 1.491 . S
C2033 C2032 1.400 . S
C2033 C2034 1.398 . S
C2034 H2022 0.950 . S
C2034 C2033 1.398 . S
C2034 C2035 1.391 . S
C2035 H2023 0.950 . S
C2035 C2031 1.393 . S
C2035 C2034 1.391 . S
H2036 C2044 0.950 . S
H2037 C2049 0.950 . S
H2038 C2046 0.950 . S
H2039 C2048 0.950 . S
H2040 C2050 0.950 . S
H2041 C2052 0.950 . S
H2042 C2054 0.950 . S
H2043 C2055 0.950 . S
C2044 H2036 0.950 . S
C2044 C2045 1.386 . S
C2044 C2046 1.391 . S
C2045 C2044 1.386 . S
C2045 C2049 1.393 . S
C2046 H2038 0.950 . S
C2046 C2044 1.391 . S
C2046 C2047 1.400 . S
C2047 C2046 1.400 . S
C2047 C2048 1.398 . S
C2047 C2053 1.491 . S
C2048 H2039 0.950 . S
C2048 C2047 1.398 . S
C2048 C2049 1.391 . S
C2049 H2037 0.950 . S
C2049 C2045 1.393 . S
C2049 C2048 1.391 . S
C2050 H2040 0.950 . S
C2050 C2051 1.386 . S
C2050 C2052 1.391 . S
C2051 C2050 1.386 . S
C2051 C2055 1.393 . S
C2052 H2041 0.950 . S
C2052 C2050 1.391 . S
C2052 C2053 1.400 . S
C2053 C2047 1.491 . S
C2053 C2052 1.400 . S
C2053 C2054 1.398 . S
C2054 H2042 0.950 . S
C2054 C2053 1.398 . S
C2054 C2055 1.391 . S
C2055 H2043 0.950 . S
C2055 C2051 1.393 . S
C2055 C2054 1.391 . S
H2056 C2064 0.950 . S
H2057 C2069 0.950 . S
H2058 C2066 0.950 . S
H2059 C2068 0.950 . S
H2060 C2070 0.950 . S
H2061 C2072 0.950 . S
H2062 C2074 0.950 . S
H2063 C2075 0.950 . S
C2064 H2056 0.950 . S
C2064 C2065 1.386 . S
C2064 C2066 1.391 . S
C2065 C2064 1.386 . S
C2065 C2069 1.393 . S
C2066 H2058 0.950 . S
C2066 C2064 1.391 . S
C2066 C2067 1.400 . S
C2067 C2066 1.400 . S
C2067 C2068 1.398 . S
C2067 C2073 1.491 . S
C2068 H2059 0.950 . S
C2068 C2067 1.398 . S
C2068 C2069 1.391 . S
C2069 H2057 0.950 . S
C2069 C2065 1.393 . S
C2069 C2068 1.391 . S
C2070 H2060 0.950 . S
C2070 C2071 1.386 . S
C2070 C2072 1.391 . S
C2071 C2070 1.386 . S
C2071 C2075 1.393 . S
C2072 H2061 0.950 . S
C2072 C2070 1.391 . S
C2072 C2073 1.400 . S
C2073 C2067 1.491 . S
C2073 C2072 1.400 . S
C2073 C2074 1.398 . S
C2074 H2062 0.950 . S
C2074 C2073 1.398 . S
C2074 C2075 1.391 . S
C2075 H2063 0.950 . S
C2075 C2071 1.393 . S
C2075 C2074 1.391 . S
H2076 C2084 0.950 . S
H2077 C2089 0.950 . S
H2078 C2086 0.950 . S
H2079 C2088 0.950 . S
H2080 C2090 0.950 . S
H2081 C2092 0.950 . S
H2082 C2094 0.950 . S
H2083 C2095 0.950 . S
C2084 H2076 0.950 . S
C2084 C2085 1.386 . S
C2084 C2086 1.391 . S
C2085 C2084 1.386 . S
C2085 C2089 1.393 . S
C2086 H2078 0.950 . S
C2086 C2084 1.391 . S
C2086 C2087 1.400 . S
C2087 C2086 1.400 . S
C2087 C2088 1.398 . S
C2087 C2093 1.491 . S
C2088 H2079 0.950 . S
C2088 C2087 1.398 . S
C2088 C2089 1.391 . S
C2089 H2077 0.950 . S
C2089 C2085 1.393 . S
C2089 C2088 1.391 . S
C2090 H2080 0.950 . S
C2090 C2091 1.386 . S
C2090 C2092 1.391 . S
C2091 C2090 1.386 . S
C2091 C2095 1.393 . S
C2092 H2081 0.950 . S
C2092 C2090 1.391 . S
C2092 C2093 1.400 . S
C2093 C2087 1.491 . S
C2093 C2092 1.400 . S
C2093 C2094 1.398 . S
C2094 H2082 0.950 . S
C2094 C2093 1.398 . S
C2094 C2095 1.391 . S
C2095 H2083 0.950 . S
C2095 C2091 1.393 . S
C2095 C2094 1.391 . S
H2096 C2104 0.950 . S
H2097 C2109 0.950 . S
H2098 C2106 0.950 . S
H2099 C2108 0.950 . S
H2100 C2110 0.950 . S
H2101 C2112 0.950 . S
H2102 C2114 0.950 . S
H2103 C2115 0.950 . S
C2104 H2096 0.950 . S
C2104 C2105 1.386 . S
C2104 C2106 1.391 . S
C2105 C2104 1.386 . S
C2105 C2109 1.393 . S
C2106 H2098 0.950 . S
C2106 C2104 1.391 . S
C2106 C2107 1.400 . S
C2107 C2106 1.400 . S
C2107 C2108 1.398 . S
C2107 C2113 1.491 . S
C2108 H2099 0.950 . S
C2108 C2107 1.398 . S
C2108 C2109 1.391 . S
C2109 H2097 0.950 . S
C2109 C2105 1.393 . S
C2109 C2108 1.391 . S
C2110 H2100 0.950 . S
C2110 C2111 1.386 . S
C2110 C2112 1.391 . S
C2111 C2110 1.386 . S
C2111 C2115 1.393 . S
C2112 H2101 0.950 . S
C2112 C2110 1.391 . S
C2112 C2113 1.400 . S
C2113 C2107 1.491 . S
C2113 C2112 1.400 . S
C2113 C2114 1.398 . S
C2114 H2102 0.950 . S
C2114 C2113 1.398 . S
C2114 C2115 1.391 . S
C2115 H2103 0.950 . S
C2115 C2111 1.393 . S
C2115 C2114 1.391 . S
H2116 C2124 0.950 . S
H2117 C2129 0.950 . S
H2118 C2126 0.950 . S
H2119 C2128 0.950 . S
H2120 C2130 0.950 . S
H2121 C2132 0.950 . S
H2122 C2134 0.950 . S
H2123 C2135 0.950 . S
C2124 H2116 0.950 . S
C2124 C2125 1.386 . S
C2124 C2126 1.391 . S
C2125 C2124 1.386 . S
C2125 C2129 1.393 . S
C2126 H2118 0.950 . S
C2126 C2124 1.391 . S
C2126 C2127 1.400 . S
C2127 C2126 1.400 . S
C2127 C2128 1.398 . S
C2127 C2133 1.491 . S
C2128 H2119 0.950 . S
C2128 C2127 1.398 . S
C2128 C2129 1.391 . S
C2129 H2117 0.950 . S
C2129 C2125 1.393 . S
C2129 C2128 1.391 . S
C2130 H2120 0.950 . S
C2130 C2131 1.386 . S
C2130 C2132 1.391 . S
C2131 C2130 1.386 . S
C2131 C2135 1.393 . S
C2132 H2121 0.950 . S
C2132 C2130 1.391 . S
C2132 C2133 1.400 . S
C2133 C2127 1.491 . S
C2133 C2132 1.400 . S
C2133 C2134 1.398 . S
C2134 H2122 0.950 . S
C2134 C2133 1.398 . S
C2134 C2135 1.391 . S
C2135 H2123 0.950 . S
C2135 C2131 1.393 . S
C2135 C2134 1.391 . S
H2136 C2144 0.950 . S
H2137 C2149 0.950 . S
H2138 C2146 0.950 . S
H2139 C2148 0.950 . S
H2140 C2150 0.950 . S
H2141 C2152 0.950 . S
H2142 C2154 0.950 . S
H2143 C2155 0.950 . S
C2144 H2136 0.950 . S
C2144 C2145 1.386 . S
C2144 C2146 1.391 . S
C2145 C2144 1.386 . S
C2145 C2149 1.393 . S
C2146 H2138 0.950 . S
C2146 C2144 1.391 . S
C2146 C2147 1.400 . S
C2147 C2146 1.400 . S
C2147 C2148 1.398 . S
C2147 C2153 1.491 . S
C2148 H2139 0.950 . S
C2148 C2147 1.398 . S
C2148 C2149 1.391 . S
C2149 H2137 0.950 . S
C2149 C2145 1.393 . S
C2149 C2148 1.391 . S
C2150 H2140 0.950 . S
C2150 C2151 1.386 . S
C2150 C2152 1.391 . S
C2151 C2150 1.386 . S
C2151 C2155 1.393 . S
C2152 H2141 0.950 . S
C2152 C2150 1.391 . S
C2152 C2153 1.400 . S
C2153 C2147 1.491 . S
C2153 C2152 1.400 . S
C2153 C2154 1.398 . S
C2154 H2142 0.950 . S
C2154 C2153 1.398 . S
C2154 C2155 1.391 . S
C2155 H2143 0.950 . S
C2155 C2151 1.393 . S
C2155 C2154 1.391 . S
H2156 C2164 0.950 . S
H2157 C2169 0.950 . S
H2158 C2166 0.950 . S
H2159 C2168 0.950 . S
H2160 C2170 0.950 . S
H2161 C2172 0.950 . S
H2162 C2174 0.950 . S
H2163 C2175 0.950 . S
C2164 H2156 0.950 . S
C2164 C2165 1.386 . S
C2164 C2166 1.391 . S
C2165 C2164 1.386 . S
C2165 C2169 1.393 . S
C2166 H2158 0.950 . S
C2166 C2164 1.391 . S
C2166 C2167 1.400 . S
C2167 C2166 1.400 . S
C2167 C2168 1.398 . S
C2167 C2173 1.491 . S
C2168 H2159 0.950 . S
C2168 C2167 1.398 . S
C2168 C2169 1.391 . S
C2169 H2157 0.950 . S
C2169 C2165 1.393 . S
C2169 C2168 1.391 . S
C2170 H2160 0.950 . S
C2170 C2171 1.386 . S
C2170 C2172 1.391 . S
C2171 C2170 1.386 . S
C2171 C2175 1.393 . S
C2172 H2161 0.950 . S
C2172 C2170 1.391 . S
C2172 C2173 1.400 . S
C2173 C2167 1.491 . S
C2173 C2172 1.400 . S
C2173 C2174 1.398 . S
C2174 H2162 0.950 . S
C2174 C2173 1.398 . S
C2174 C2175 1.391 . S
C2175 H2163 0.950 . S
C2175 C2171 1.393 . S
C2175 C2174 1.391 . S
H2176 C2184 0.950 . S
H2177 C2189 0.950 . S
H2178 C2186 0.950 . S
H2179 C2188 0.950 . S
H2180 C2190 0.950 . S
H2181 C2192 0.950 . S
H2182 C2194 0.950 . S
H2183 C2195 0.950 . S
C2184 H2176 0.950 . S
C2184 C2185 1.386 . S
C2184 C2186 1.391 . S
C2185 C2184 1.386 . S
C2185 C2189 1.393 . S
C2186 H2178 0.950 . S
C2186 C2184 1.391 . S
C2186 C2187 1.400 . S
C2187 C2186 1.400 . S
C2187 C2188 1.398 . S
C2187 C2193 1.491 . S
C2188 H2179 0.950 . S
C2188 C2187 1.398 . S
C2188 C2189 1.391 . S
C2189 H2177 0.950 . S
C2189 C2185 1.393 . S
C2189 C2188 1.391 . S
C2190 H2180 0.950 . S
C2190 C2191 1.386 . S
C2190 C2192 1.391 . S
C2191 C2190 1.386 . S
C2191 C2195 1.393 . S
C2192 H2181 0.950 . S
C2192 C2190 1.391 . S
C2192 C2193 1.400 . S
C2193 C2187 1.491 . S
C2193 C2192 1.400 . S
C2193 C2194 1.398 . S
C2194 H2182 0.950 . S
C2194 C2193 1.398 . S
C2194 C2195 1.391 . S
C2195 H2183 0.950 . S
C2195 C2191 1.393 . S
C2195 C2194 1.391 . S
H2196 C2204 0.950 . S
H2197 C2209 0.950 . S
H2198 C2206 0.950 . S
H2199 C2208 0.950 . S
H2200 C2210 0.950 . S
H2201 C2212 0.950 . S
H2202 C2214 0.950 . S
H2203 C2215 0.950 . S
C2204 H2196 0.950 . S
C2204 C2205 1.386 . S
C2204 C2206 1.391 . S
C2205 C2204 1.386 . S
C2205 C2209 1.393 . S
C2206 H2198 0.950 . S
C2206 C2204 1.391 . S
C2206 C2207 1.400 . S
C2207 C2206 1.400 . S
C2207 C2208 1.398 . S
C2207 C2213 1.491 . S
C2208 H2199 0.950 . S
C2208 C2207 1.398 . S
C2208 C2209 1.391 . S
C2209 H2197 0.950 . S
C2209 C2205 1.393 . S
C2209 C2208 1.391 . S
C2210 H2200 0.950 . S
C2210 C2211 1.386 . S
C2210 C2212 1.391 . S
C2211 C2210 1.386 . S
C2211 C2215 1.393 . S
C2212 H2201 0.950 . S
C2212 C2210 1.391 . S
C2212 C2213 1.400 . S
C2213 C2207 1.491 . S
C2213 C2212 1.400 . S
C2213 C2214 1.398 . S
C2214 H2202 0.950 . S
C2214 C2213 1.398 . S
C2214 C2215 1.391 . S
C2215 H2203 0.950 . S
C2215 C2211 1.393 . S
C2215 C2214 1.391 . S
H2216 C2224 0.950 . S
H2217 C2229 0.950 . S
H2218 C2226 0.950 . S
H2219 C2228 0.950 . S
H2220 C2230 0.950 . S
H2221 C2232 0.950 . S
H2222 C2234 0.950 . S
H2223 C2235 0.950 . S
C2224 H2216 0.950 . S
C2224 C2225 1.386 . S
C2224 C2226 1.391 . S
C2225 C2224 1.386 . S
C2225 C2229 1.393 . S
C2226 H2218 0.950 . S
C2226 C2224 1.391 . S
C2226 C2227 1.400 . S
C2227 C2226 1.400 . S
C2227 C2228 1.398 . S
C2227 C2233 1.491 . S
C2228 H2219 0.950 . S
C2228 C2227 1.398 . S
C2228 C2229 1.391 . S
C2229 H2217 0.950 . S
C2229 C2225 1.393 . S
C2229 C2228 1.391 . S
C2230 H2220 0.950 . S
C2230 C2231 1.386 . S
C2230 C2232 1.391 . S
C2231 C2230 1.386 . S
C2231 C2235 1.393 . S
C2232 H2221 0.950 . S
C2232 C2230 1.391 . S
C2232 C2233 1.400 . S
C2233 C2227 1.491 . S
C2233 C2232 1.400 . S
C2233 C2234 1.398 . S
C2234 H2222 0.950 . S
C2234 C2233 1.398 . S
C2234 C2235 1.391 . S
C2235 H2223 0.950 . S
C2235 C2231 1.393 . S
C2235 C2234 1.391 . S
H2236 C2244 0.950 . S
H2237 C2249 0.950 . S
H2238 C2246 0.950 . S
H2239 C2248 0.950 . S
H2240 C2250 0.950 . S
H2241 C2252 0.950 . S
H2242 C2254 0.950 . S
H2243 C2255 0.950 . S
C2244 H2236 0.950 . S
C2244 C2245 1.386 . S
C2244 C2246 1.391 . S
C2245 C2244 1.386 . S
C2245 C2249 1.393 . S
C2246 H2238 0.950 . S
C2246 C2244 1.391 . S
C2246 C2247 1.400 . S
C2247 C2246 1.400 . S
C2247 C2248 1.398 . S
C2247 C2253 1.491 . S
C2248 H2239 0.950 . S
C2248 C2247 1.398 . S
C2248 C2249 1.391 . S
C2249 H2237 0.950 . S
C2249 C2245 1.393 . S
C2249 C2248 1.391 . S
C2250 H2240 0.950 . S
C2250 C2251 1.386 . S
C2250 C2252 1.391 . S
C2251 C2250 1.386 . S
C2251 C2255 1.393 . S
C2252 H2241 0.950 . S
C2252 C2250 1.391 . S
C2252 C2253 1.400 . S
C2253 C2247 1.491 . S
C2253 C2252 1.400 . S
C2253 C2254 1.398 . S
C2254 H2242 0.950 . S
C2254 C2253 1.398 . S
C2254 C2255 1.391 . S
C2255 H2243 0.950 . S
C2255 C2251 1.393 . S
C2255 C2254 1.391 . S
H2256 C2264 0.950 . S
H2257 C2269 0.950 . S
H2258 C2266 0.950 . S
H2259 C2268 0.950 . S
H2260 C2270 0.950 . S
H2261 C2272 0.950 . S
H2262 C2274 0.950 . S
H2263 C2275 0.950 . S
C2264 H2256 0.950 . S
C2264 C2265 1.386 . S
C2264 C2266 1.391 . S
C2265 C2264 1.386 . S
C2265 C2269 1.393 . S
C2266 H2258 0.950 . S
C2266 C2264 1.391 . S
C2266 C2267 1.400 . S
C2267 C2266 1.400 . S
C2267 C2268 1.398 . S
C2267 C2273 1.491 . S
C2268 H2259 0.950 . S
C2268 C2267 1.398 . S
C2268 C2269 1.391 . S
C2269 H2257 0.950 . S
C2269 C2265 1.393 . S
C2269 C2268 1.391 . S
C2270 H2260 0.950 . S
C2270 C2271 1.386 . S
C2270 C2272 1.391 . S
C2271 C2270 1.386 . S
C2271 C2275 1.393 . S
C2272 H2261 0.950 . S
C2272 C2270 1.391 . S
C2272 C2273 1.400 . S
C2273 C2267 1.491 . S
C2273 C2272 1.400 . S
C2273 C2274 1.398 . S
C2274 H2262 0.950 . S
C2274 C2273 1.398 . S
C2274 C2275 1.391 . S
C2275 H2263 0.950 . S
C2275 C2271 1.393 . S
C2275 C2274 1.391 . S
H2276 C2284 0.950 . S
H2277 C2289 0.950 . S
H2278 C2286 0.950 . S
H2279 C2288 0.950 . S
H2280 C2290 0.950 . S
H2281 C2292 0.950 . S
H2282 C2294 0.950 . S
H2283 C2295 0.950 . S
C2284 H2276 0.950 . S
C2284 C2285 1.386 . S
C2284 C2286 1.391 . S
C2285 C2284 1.386 . S
C2285 C2289 1.393 . S
C2286 H2278 0.950 . S
C2286 C2284 1.391 . S
C2286 C2287 1.400 . S
C2287 C2286 1.400 . S
C2287 C2288 1.398 . S
C2287 C2293 1.491 . S
C2288 H2279 0.950 . S
C2288 C2287 1.398 . S
C2288 C2289 1.391 . S
C2289 H2277 0.950 . S
C2289 C2285 1.393 . S
C2289 C2288 1.391 . S
C2290 H2280 0.950 . S
C2290 C2291 1.386 . S
C2290 C2292 1.391 . S
C2291 C2290 1.386 . S
C2291 C2295 1.393 . S
C2292 H2281 0.950 . S
C2292 C2290 1.391 . S
C2292 C2293 1.400 . S
C2293 C2287 1.491 . S
C2293 C2292 1.400 . S
C2293 C2294 1.398 . S
C2294 H2282 0.950 . S
C2294 C2293 1.398 . S
C2294 C2295 1.391 . S
C2295 H2283 0.950 . S
C2295 C2291 1.393 . S
C2295 C2294 1.391 . S
H2296 C2304 0.950 . S
H2297 C2309 0.950 . S
H2298 C2306 0.950 . S
H2299 C2308 0.950 . S
H2300 C2310 0.950 . S
H2301 C2312 0.950 . S
H2302 C2314 0.950 . S
H2303 C2315 0.950 . S
C2304 H2296 0.950 . S
C2304 C2305 1.386 . S
C2304 C2306 1.391 . S
C2305 C2304 1.386 . S
C2305 C2309 1.393 . S
C2306 H2298 0.950 . S
C2306 C2304 1.391 . S
C2306 C2307 1.400 . S
C2307 C2306 1.400 . S
C2307 C2308 1.398 . S
C2307 C2313 1.491 . S
C2308 H2299 0.950 . S
C2308 C2307 1.398 . S
C2308 C2309 1.391 . S
C2309 H2297 0.950 . S
C2309 C2305 1.393 . S
C2309 C2308 1.391 . S
C2310 H2300 0.950 . S
C2310 C2311 1.386 . S
C2310 C2312 1.391 . S
C2311 C2310 1.386 . S
C2311 C2315 1.393 . S
C2312 H2301 0.950 . S
C2312 C2310 1.391 . S
C2312 C2313 1.400 . S
C2313 C2307 1.491 . S
C2313 C2312 1.400 . S
C2313 C2314 1.398 . S
C2314 H2302 0.950 . S
C2314 C2313 1.398 . S
C2314 C2315 1.391 . S
C2315 H2303 0.950 . S
C2315 C2311 1.393 . S
C2315 C2314 1.391 . S
H2316 C2324 0.950 . S
H2317 C2329 0.950 . S
H2318 C2326 0.950 . S
H2319 C2328 0.950 . S
H2320 C2330 0.950 . S
H2321 C2332 0.950 . S
H2322 C2334 0.950 . S
H2323 C2335 0.950 . S
C2324 H2316 0.950 . S
C2324 C2325 1.386 . S
C2324 C2326 1.391 . S
C2325 C2324 1.386 . S
C2325 C2329 1.393 . S
C2326 H2318 0.950 . S
C2326 C2324 1.391 . S
C2326 C2327 1.400 . S
C2327 C2326 1.400 . S
C2327 C2328 1.398 . S
C2327 C2333 1.491 . S
C2328 H2319 0.950 . S
C2328 C2327 1.398 . S
C2328 C2329 1.391 . S
C2329 H2317 0.950 . S
C2329 C2325 1.393 . S
C2329 C2328 1.391 . S
C2330 H2320 0.950 . S
C2330 C2331 1.386 . S
C2330 C2332 1.391 . S
C2331 C2330 1.386 . S
C2331 C2335 1.393 . S
C2332 H2321 0.950 . S
C2332 C2330 1.391 . S
C2332 C2333 1.400 . S
C2333 C2327 1.491 . S
C2333 C2332 1.400 . S
C2333 C2334 1.398 . S
C2334 H2322 0.950 . S
C2334 C2333 1.398 . S
C2334 C2335 1.391 . S
C2335 H2323 0.950 . S
C2335 C2331 1.393 . S
C2335 C2334 1.391 . S
H2336 C2344 0.950 . S
H2337 C2349 0.950 . S
H2338 C2346 0.950 . S
H2339 C2348 0.950 . S
H2340 C2350 0.950 . S
H2341 C2352 0.950 . S
H2342 C2354 0.950 . S
H2343 C2355 0.950 . S
C2344 H2336 0.950 . S
C2344 C2345 1.386 . S
C2344 C2346 1.391 . S
C2345 C2344 1.386 . S
C2345 C2349 1.393 . S
C2346 H2338 0.950 . S
C2346 C2344 1.391 . S
C2346 C2347 1.400 . S
C2347 C2346 1.400 . S
C2347 C2348 1.398 . S
C2347 C2353 1.491 . S
C2348 H2339 0.950 . S
C2348 C2347 1.398 . S
C2348 C2349 1.391 . S
C2349 H2337 0.950 . S
C2349 C2345 1.393 . S
C2349 C2348 1.391 . S
C2350 H2340 0.950 . S
C2350 C2351 1.386 . S
C2350 C2352 1.391 . S
C2351 C2350 1.386 . S
C2351 C2355 1.393 . S
C2352 H2341 0.950 . S
C2352 C2350 1.391 . S
C2352 C2353 1.400 . S
C2353 C2347 1.491 . S
C2353 C2352 1.400 . S
C2353 C2354 1.398 . S
C2354 H2342 0.950 . S
C2354 C2353 1.398 . S
C2354 C2355 1.391 . S
C2355 H2343 0.950 . S
C2355 C2351 1.393 . S
C2355 C2354 1.391 . S
H2356 C2364 0.950 . S
H2357 C2369 0.950 . S
H2358 C2366 0.950 . S
H2359 C2368 0.950 . S
H2360 C2370 0.950 . S
H2361 C2372 0.950 . S
H2362 C2374 0.950 . S
H2363 C2375 0.950 . S
C2364 H2356 0.950 . S
C2364 C2365 1.386 . S
C2364 C2366 1.391 . S
C2365 C2364 1.386 . S
C2365 C2369 1.393 . S
C2366 H2358 0.950 . S
C2366 C2364 1.391 . S
C2366 C2367 1.400 . S
C2367 C2366 1.400 . S
C2367 C2368 1.398 . S
C2367 C2373 1.491 . S
C2368 H2359 0.950 . S
C2368 C2367 1.398 . S
C2368 C2369 1.391 . S
C2369 H2357 0.950 . S
C2369 C2365 1.393 . S
C2369 C2368 1.391 . S
C2370 H2360 0.950 . S
C2370 C2371 1.386 . S
C2370 C2372 1.391 . S
C2371 C2370 1.386 . S
C2371 C2375 1.393 . S
C2372 H2361 0.950 . S
C2372 C2370 1.391 . S
C2372 C2373 1.400 . S
C2373 C2367 1.491 . S
C2373 C2372 1.400 . S
C2373 C2374 1.398 . S
C2374 H2362 0.950 . S
C2374 C2373 1.398 . S
C2374 C2375 1.391 . S
C2375 H2363 0.950 . S
C2375 C2371 1.393 . S
C2375 C2374 1.391 . S
H2376 C2384 0.950 . S
H2377 C2389 0.950 . S
H2378 C2386 0.950 . S
H2379 C2388 0.950 . S
H2380 C2390 0.950 . S
H2381 C2392 0.950 . S
H2382 C2394 0.950 . S
H2383 C2395 0.950 1_545 S
C2384 H2376 0.950 . S
C2384 C2385 1.386 . S
C2384 C2386 1.391 . S
C2385 C2384 1.386 . S
C2385 C2389 1.393 . S
C2386 H2378 0.950 . S
C2386 C2384 1.391 . S
C2386 C2387 1.400 . S
C2387 C2386 1.400 . S
C2387 C2388 1.398 . S
C2387 C2393 1.491 . S
C2388 H2379 0.950 . S
C2388 C2387 1.398 . S
C2388 C2389 1.391 . S
C2389 H2377 0.950 . S
C2389 C2385 1.393 . S
C2389 C2388 1.391 . S
C2390 H2380 0.950 . S
C2390 C2391 1.386 . S
C2390 C2392 1.391 . S
C2391 C2390 1.386 . S
C2391 C2395 1.393 . S
C2392 H2381 0.950 . S
C2392 C2390 1.391 . S
C2392 C2393 1.400 . S
C2393 C2387 1.491 . S
C2393 C2392 1.400 . S
C2393 C2394 1.398 . S
C2394 H2382 0.950 . S
C2394 C2393 1.398 . S
C2394 C2395 1.391 . S
C2395 H2383 0.950 1_565 S
C2395 C2391 1.393 . S
C2395 C2394 1.391 . S
H2396 C2404 0.950 . S
H2397 C2409 0.950 . S
H2398 C2406 0.950 . S
H2399 C2408 0.950 . S
H2400 C2410 0.950 . S
H2401 C2412 0.950 . S
H2402 C2414 0.950 . S
H2403 C2415 0.950 . S
C2404 H2396 0.950 . S
C2404 C2405 1.386 . S
C2404 C2406 1.391 . S
C2405 C2404 1.386 . S
C2405 C2409 1.393 . S
C2406 H2398 0.950 . S
C2406 C2404 1.391 . S
C2406 C2407 1.400 . S
C2407 C2406 1.400 . S
C2407 C2408 1.398 . S
C2407 C2413 1.491 . S
C2408 H2399 0.950 . S
C2408 C2407 1.398 . S
C2408 C2409 1.391 . S
C2409 H2397 0.950 . S
C2409 C2405 1.393 . S
C2409 C2408 1.391 . S
C2410 H2400 0.950 . S
C2410 C2411 1.386 . S
C2410 C2412 1.391 . S
C2411 C2410 1.386 . S
C2411 C2415 1.393 . S
C2412 H2401 0.950 . S
C2412 C2410 1.391 . S
C2412 C2413 1.400 . S
C2413 C2407 1.491 . S
C2413 C2412 1.400 . S
C2413 C2414 1.398 . S
C2414 H2402 0.950 . S
C2414 C2413 1.398 . S
C2414 C2415 1.391 . S
C2415 H2403 0.950 . S
C2415 C2411 1.393 . S
C2415 C2414 1.391 . S
H2416 C2424 0.950 . S
H2417 C2429 0.950 . S
H2418 C2426 0.950 . S
H2419 C2428 0.950 . S
H2420 C2430 0.950 . S
H2421 C2432 0.950 . S
H2422 C2434 0.950 . S
H2423 C2435 0.950 1_545 S
C2424 H2416 0.950 . S
C2424 C2425 1.386 . S
C2424 C2426 1.391 . S
C2425 C2424 1.386 . S
C2425 C2429 1.393 . S
C2426 H2418 0.950 . S
C2426 C2424 1.391 . S
C2426 C2427 1.400 . S
C2427 C2426 1.400 . S
C2427 C2428 1.398 . S
C2427 C2433 1.491 . S
C2428 H2419 0.950 . S
C2428 C2427 1.398 . S
C2428 C2429 1.391 . S
C2429 H2417 0.950 . S
C2429 C2425 1.393 . S
C2429 C2428 1.391 . S
C2430 H2420 0.950 . S
C2430 C2431 1.386 . S
C2430 C2432 1.391 . S
C2431 C2430 1.386 . S
C2431 C2435 1.393 . S
C2432 H2421 0.950 . S
C2432 C2430 1.391 . S
C2432 C2433 1.400 . S
C2433 C2427 1.491 . S
C2433 C2432 1.400 . S
C2433 C2434 1.398 . S
C2434 H2422 0.950 . S
C2434 C2433 1.398 . S
C2434 C2435 1.391 . S
C2435 H2423 0.950 1_565 S
C2435 C2431 1.393 . S
C2435 C2434 1.391 . S
H2436 C2444 0.950 . S
H2437 C2449 0.950 . S
H2438 C2446 0.950 . S
H2439 C2448 0.950 . S
H2440 C2450 0.926 1_565 S
H2441 C2452 0.950 . S
H2442 C2454 0.950 . S
H2443 C2455 0.950 . S
C2444 H2436 0.950 . S
C2444 C2445 1.386 . S
C2444 C2446 1.391 . S
C2445 C2444 1.386 . S
C2445 C2449 1.393 . S
C2446 H2438 0.950 . S
C2446 C2444 1.391 . S
C2446 C2447 1.400 . S
C2447 C2446 1.400 . S
C2447 C2448 1.398 . S
C2447 C2453 1.491 . S
C2448 H2439 0.950 . S
C2448 C2447 1.398 . S
C2448 C2449 1.391 . S
C2449 H2437 0.950 . S
C2449 C2445 1.393 . S
C2449 C2448 1.391 . S
C2450 H2440 0.926 1_545 S
C2450 C2451 1.386 . S
C2450 C2452 1.391 . S
C2451 C2450 1.386 . S
C2451 C2455 1.393 . S
C2452 H2441 0.950 . S
C2452 C2450 1.391 . S
C2452 C2453 1.400 . S
C2453 C2447 1.491 . S
C2453 C2452 1.400 . S
C2453 C2454 1.398 . S
C2454 H2442 0.950 . S
C2454 C2453 1.398 . S
C2454 C2455 1.391 . S
C2455 H2443 0.950 . S
C2455 C2451 1.393 . S
C2455 C2454 1.391 . S
H2456 C2464 0.950 . S
H2457 C2469 0.950 . S
H2458 C2466 0.950 . S
H2459 C2468 0.950 . S
H2460 C2470 0.950 . S
H2461 C2472 0.950 . S
H2462 C2474 0.950 . S
H2463 C2475 0.950 . S
C2464 H2456 0.950 . S
C2464 C2465 1.386 . S
C2464 C2466 1.391 . S
C2465 C2464 1.386 . S
C2465 C2469 1.393 . S
C2466 H2458 0.950 . S
C2466 C2464 1.391 . S
C2466 C2467 1.400 . S
C2467 C2466 1.400 . S
C2467 C2468 1.398 . S
C2467 C2473 1.491 . S
C2468 H2459 0.950 . S
C2468 C2467 1.398 . S
C2468 C2469 1.391 . S
C2469 H2457 0.950 . S
C2469 C2465 1.393 . S
C2469 C2468 1.391 . S
C2470 H2460 0.950 . S
C2470 C2471 1.386 . S
C2470 C2472 1.391 . S
C2471 C2470 1.386 . S
C2471 C2475 1.393 . S
C2472 H2461 0.950 . S
C2472 C2470 1.391 . S
C2472 C2473 1.400 . S
C2473 C2467 1.491 . S
C2473 C2472 1.400 . S
C2473 C2474 1.398 . S
C2474 H2462 0.950 . S
C2474 C2473 1.398 . S
C2474 C2475 1.391 . S
C2475 H2463 0.950 . S
C2475 C2471 1.393 . S
C2475 C2474 1.391 . S
H2476 C2484 0.950 . S
H2477 C2489 0.950 1_545 S
H2478 C2486 0.950 . S
H2479 C2488 0.950 . S
H2480 C2490 0.950 . S
H2481 C2492 0.950 . S
H2482 C2494 0.950 . S
H2483 C2495 0.950 . S
C2484 H2476 0.950 . S
C2484 C2485 1.386 . S
C2484 C2486 1.391 . S
C2485 C2484 1.386 . S
C2485 C2489 1.393 . S
C2486 H2478 0.950 . S
C2486 C2484 1.391 . S
C2486 C2487 1.400 . S
C2487 C2486 1.400 . S
C2487 C2488 1.398 . S
C2487 C2493 1.491 . S
C2488 H2479 0.950 . S
C2488 C2487 1.398 . S
C2488 C2489 1.391 . S
C2489 H2477 0.950 1_565 S
C2489 C2485 1.393 . S
C2489 C2488 1.391 . S
C2490 H2480 0.950 . S
C2490 C2491 1.386 . S
C2490 C2492 1.391 . S
C2491 C2490 1.386 . S
C2491 C2495 1.393 . S
C2492 H2481 0.950 . S
C2492 C2490 1.391 . S
C2492 C2493 1.400 . S
C2493 C2487 1.491 . S
C2493 C2492 1.400 . S
C2493 C2494 1.398 . S
C2494 H2482 0.950 . S
C2494 C2493 1.398 . S
C2494 C2495 1.391 . S
C2495 H2483 0.950 . S
C2495 C2491 1.393 . S
C2495 C2494 1.391 . S
H2496 C2504 0.950 . S
H2497 C2509 0.950 . S
H2498 C2506 0.950 . S
H2499 C2508 0.950 . S
H2500 C2510 0.950 . S
H2501 C2512 0.950 . S
H2502 C2514 0.950 . S
H2503 C2515 0.950 . S
C2504 H2496 0.950 . S
C2504 C2505 1.386 . S
C2504 C2506 1.391 . S
C2505 C2504 1.386 . S
C2505 C2509 1.393 . S
C2506 H2498 0.950 . S
C2506 C2504 1.391 . S
C2506 C2507 1.400 . S
C2507 C2506 1.400 . S
C2507 C2508 1.398 . S
C2507 C2513 1.491 . S
C2508 H2499 0.950 . S
C2508 C2507 1.398 . S
C2508 C2509 1.391 . S
C2509 H2497 0.950 . S
C2509 C2505 1.393 . S
C2509 C2508 1.391 . S
C2510 H2500 0.950 . S
C2510 C2511 1.386 . S
C2510 C2512 1.391 . S
C2511 C2510 1.386 . S
C2511 C2515 1.393 . S
C2512 H2501 0.950 . S
C2512 C2510 1.391 . S
C2512 C2513 1.400 . S
C2513 C2507 1.491 . S
C2513 C2512 1.400 . S
C2513 C2514 1.398 . S
C2514 H2502 0.950 . S
C2514 C2513 1.398 . S
C2514 C2515 1.391 . S
C2515 H2503 0.950 . S
C2515 C2511 1.393 . S
C2515 C2514 1.391 . S
H2516 C2524 0.950 . S
H2517 C2529 0.950 . S
H2518 C2526 0.950 . S
H2519 C2528 0.950 . S
H2520 C2530 0.950 . S
H2521 C2532 0.950 . S
H2522 C2534 0.950 . S
H2523 C2535 0.950 . S
C2524 H2516 0.950 . S
C2524 C2525 1.386 . S
C2524 C2526 1.391 . S
C2525 C2524 1.386 . S
C2525 C2529 1.393 . S
C2526 H2518 0.950 . S
C2526 C2524 1.391 . S
C2526 C2527 1.400 . S
C2527 C2526 1.400 . S
C2527 C2528 1.398 . S
C2527 C2533 1.491 . S
C2528 H2519 0.950 . S
C2528 C2527 1.398 . S
C2528 C2529 1.391 . S
C2529 H2517 0.950 . S
C2529 C2525 1.393 . S
C2529 C2528 1.391 . S
C2530 H2520 0.950 . S
C2530 C2531 1.386 . S
C2530 C2532 1.391 . S
C2531 C2530 1.386 . S
C2531 C2535 1.393 . S
C2532 H2521 0.950 . S
C2532 C2530 1.391 . S
C2532 C2533 1.400 . S
C2533 C2527 1.491 . S
C2533 C2532 1.400 . S
C2533 C2534 1.398 . S
C2534 H2522 0.950 . S
C2534 C2533 1.398 . S
C2534 C2535 1.391 . S
C2535 H2523 0.950 . S
C2535 C2531 1.393 . S
C2535 C2534 1.391 . S
H2536 C2544 0.950 . S
H2537 C2549 0.950 . S
H2538 C2546 0.950 . S
H2539 C2548 0.950 . S
H2540 C2550 0.950 . S
H2541 C2552 0.950 . S
H2542 C2554 0.950 . S
H2543 C2555 0.950 . S
C2544 H2536 0.950 . S
C2544 C2545 1.386 . S
C2544 C2546 1.391 . S
C2545 C2544 1.386 . S
C2545 C2549 1.393 . S
C2546 H2538 0.950 . S
C2546 C2544 1.391 . S
C2546 C2547 1.400 . S
C2547 C2546 1.400 . S
C2547 C2548 1.398 . S
C2547 C2553 1.491 . S
C2548 H2539 0.950 . S
C2548 C2547 1.398 . S
C2548 C2549 1.391 . S
C2549 H2537 0.950 . S
C2549 C2545 1.393 . S
C2549 C2548 1.391 . S
C2550 H2540 0.950 . S
C2550 C2551 1.386 . S
C2550 C2552 1.391 . S
C2551 C2550 1.386 . S
C2551 C2555 1.393 . S
C2552 H2541 0.950 . S
C2552 C2550 1.391 . S
C2552 C2553 1.400 . S
C2553 C2547 1.491 . S
C2553 C2552 1.400 . S
C2553 C2554 1.398 . S
C2554 H2542 0.950 . S
C2554 C2553 1.398 . S
C2554 C2555 1.391 . S
C2555 H2543 0.950 . S
C2555 C2551 1.393 . S
C2555 C2554 1.391 . S
H2556 C2564 0.950 . S
H2557 C2569 0.950 . S
H2558 C2566 0.950 . S
H2559 C2568 0.950 . S
H2560 C2570 0.950 . S
H2561 C2572 0.950 . S
H2562 C2574 0.950 . S
H2563 C2575 0.950 . S
C2564 H2556 0.950 . S
C2564 C2565 1.386 . S
C2564 C2566 1.391 . S
C2565 C2564 1.386 . S
C2565 C2569 1.393 . S
C2566 H2558 0.950 . S
C2566 C2564 1.391 . S
C2566 C2567 1.400 . S
C2567 C2566 1.400 . S
C2567 C2568 1.398 . S
C2567 C2573 1.491 . S
C2568 H2559 0.950 . S
C2568 C2567 1.398 . S
C2568 C2569 1.391 . S
C2569 H2557 0.950 . S
C2569 C2565 1.393 . S
C2569 C2568 1.391 . S
C2570 H2560 0.950 . S
C2570 C2571 1.386 . S
C2570 C2572 1.391 . S
C2571 C2570 1.386 . S
C2571 C2575 1.393 . S
C2572 H2561 0.950 . S
C2572 C2570 1.391 . S
C2572 C2573 1.400 . S
C2573 C2567 1.491 . S
C2573 C2572 1.400 . S
C2573 C2574 1.398 . S
C2574 H2562 0.950 . S
C2574 C2573 1.398 . S
C2574 C2575 1.391 . S
C2575 H2563 0.950 . S
C2575 C2571 1.393 . S
C2575 C2574 1.391 . S
H2576 C2584 0.950 . S
H2577 C2589 0.950 . S
H2578 C2586 0.950 . S
H2579 C2588 0.950 . S
H2580 C2590 0.950 . S
H2581 C2592 0.950 . S
H2582 C2594 0.950 . S
H2583 C2595 0.950 . S
C2584 H2576 0.950 . S
C2584 C2585 1.386 . S
C2584 C2586 1.391 . S
C2585 C2584 1.386 . S
C2585 C2589 1.393 . S
C2586 H2578 0.950 . S
C2586 C2584 1.391 . S
C2586 C2587 1.400 . S
C2587 C2586 1.400 . S
C2587 C2588 1.398 . S
C2587 C2593 1.491 . S
C2588 H2579 0.950 . S
C2588 C2587 1.398 . S
C2588 C2589 1.391 . S
C2589 H2577 0.950 . S
C2589 C2585 1.393 . S
C2589 C2588 1.391 . S
C2590 H2580 0.950 . S
C2590 C2591 1.386 . S
C2590 C2592 1.391 . S
C2591 C2590 1.386 . S
C2591 C2595 1.393 . S
C2592 H2581 0.950 . S
C2592 C2590 1.391 . S
C2592 C2593 1.400 . S
C2593 C2587 1.491 . S
C2593 C2592 1.400 . S
C2593 C2594 1.398 . S
C2594 H2582 0.950 . S
C2594 C2593 1.398 . S
C2594 C2595 1.391 . S
C2595 H2583 0.950 . S
C2595 C2591 1.393 . S
C2595 C2594 1.391 . S
H2596 C2604 0.950 . S
H2597 C2609 0.950 . S
H2598 C2606 0.950 . S
H2599 C2608 0.950 . S
H2600 C2610 0.950 . S
H2601 C2612 0.950 . S
H2602 C2614 0.950 . S
H2603 C2615 0.950 . S
C2604 H2596 0.950 . S
C2604 C2605 1.386 . S
C2604 C2606 1.391 . S
C2605 C2604 1.386 . S
C2605 C2609 1.393 . S
C2606 H2598 0.950 . S
C2606 C2604 1.391 . S
C2606 C2607 1.400 . S
C2607 C2606 1.400 . S
C2607 C2608 1.398 . S
C2607 C2613 1.491 . S
C2608 H2599 0.950 . S
C2608 C2607 1.398 . S
C2608 C2609 1.391 . S
C2609 H2597 0.950 . S
C2609 C2605 1.393 . S
C2609 C2608 1.391 . S
C2610 H2600 0.950 . S
C2610 C2611 1.386 . S
C2610 C2612 1.391 . S
C2611 C2610 1.386 . S
C2611 C2615 1.393 . S
C2612 H2601 0.950 . S
C2612 C2610 1.391 . S
C2612 C2613 1.400 . S
C2613 C2607 1.491 . S
C2613 C2612 1.400 . S
C2613 C2614 1.398 . S
C2614 H2602 0.950 . S
C2614 C2613 1.398 . S
C2614 C2615 1.391 . S
C2615 H2603 0.950 . S
C2615 C2611 1.393 . S
C2615 C2614 1.391 . S
H2616 C2624 0.950 . S
H2617 C2629 0.950 . S
H2618 C2626 0.950 . S
H2619 C2628 0.950 . S
H2620 C2630 0.950 . S
H2621 C2632 0.950 . S
H2622 C2634 0.950 . S
H2623 C2635 0.950 . S
C2624 H2616 0.950 . S
C2624 C2625 1.386 . S
C2624 C2626 1.391 . S
C2625 C2624 1.386 . S
C2625 C2629 1.393 . S
C2626 H2618 0.950 . S
C2626 C2624 1.391 . S
C2626 C2627 1.400 . S
C2627 C2626 1.400 . S
C2627 C2628 1.398 . S
C2627 C2633 1.491 . S
C2628 H2619 0.950 . S
C2628 C2627 1.398 . S
C2628 C2629 1.391 . S
C2629 H2617 0.950 . S
C2629 C2625 1.393 . S
C2629 C2628 1.391 . S
C2630 H2620 0.950 . S
C2630 C2631 1.386 . S
C2630 C2632 1.391 . S
C2631 C2630 1.386 . S
C2631 C2635 1.393 . S
C2632 H2621 0.950 . S
C2632 C2630 1.391 . S
C2632 C2633 1.400 . S
C2633 C2627 1.491 . S
C2633 C2632 1.400 . S
C2633 C2634 1.398 . S
C2634 H2622 0.950 . S
C2634 C2633 1.398 . S
C2634 C2635 1.391 . S
C2635 H2623 0.950 . S
C2635 C2631 1.393 . S
C2635 C2634 1.391 . S
H2636 C2644 0.950 . S
H2637 C2649 0.950 . S
H2638 C2646 0.950 . S
H2639 C2648 0.950 . S
H2640 C2650 0.950 . S
H2641 C2652 0.950 . S
H2642 C2654 0.950 . S
H2643 C2655 0.950 . S
C2644 H2636 0.950 . S
C2644 C2645 1.386 . S
C2644 C2646 1.391 . S
C2645 C2644 1.386 . S
C2645 C2649 1.393 . S
C2646 H2638 0.950 . S
C2646 C2644 1.391 . S
C2646 C2647 1.400 . S
C2647 C2646 1.400 . S
C2647 C2648 1.398 . S
C2647 C2653 1.491 . S
C2648 H2639 0.950 . S
C2648 C2647 1.398 . S
C2648 C2649 1.391 . S
C2649 H2637 0.950 . S
C2649 C2645 1.393 . S
C2649 C2648 1.391 . S
C2650 H2640 0.950 . S
C2650 C2651 1.386 . S
C2650 C2652 1.391 . S
C2651 C2650 1.386 . S
C2651 C2655 1.393 . S
C2652 H2641 0.950 . S
C2652 C2650 1.391 . S
C2652 C2653 1.400 . S
C2653 C2647 1.491 . S
C2653 C2652 1.400 . S
C2653 C2654 1.398 . S
C2654 H2642 0.950 . S
C2654 C2653 1.398 . S
C2654 C2655 1.391 . S
C2655 H2643 0.950 . S
C2655 C2651 1.393 . S
C2655 C2654 1.391 . S
C1065 N146 1.553 . S
C1071 N14 1.538 . S
C1085 N47 1.544 . S
C1091 N179 1.526 . S
C1105 N80 1.551 . S
C1111 N212 1.543 . S
C1125 N113 1.541 . S
C1131 N245 1.525 . S
C1145 N278 1.536 . S
C1151 N410 1.553 . S
C1165 N443 1.528 . S
C1171 N311 1.550 . S
C1185 N344 1.539 . S
C1191 N476 1.526 . S
C1205 N509 1.536 . S
C1211 N377 1.527 . S
C1225 N542 1.553 . S
C1231 N674 1.535 . S
C1245 N575 1.529 . S
C1251 N707 1.551 . S
C1265 N740 1.550 . S
C1271 N608 1.528 . S
C1285 N773 1.528 . S
C1291 N641 1.550 . S
C1305 N806 1.549 . S
C1311 N938 1.527 . S
C1325 N839 1.552 . S
C1331 N971 1.531 . S
C1345 N1004 1.532 . S
C1351 N872 1.529 . S
C1365 N905 1.552 . S
C1371 N1037 1.531 . S
C1385 C17 0.910 . S
C1391 C611 0.896 . S
C1405 C50 0.879 . S
C1411 C644 0.893 . S
C1425 C83 0.879 . S
C1431 C545 0.893 . S
C1445 C116 0.909 . S
C1451 C578 0.919 . S
C1465 C149 0.921 . S
C1471 C743 0.917 . S
C1485 C776 0.885 . S
C1491 C182 0.900 . S
C1505 C215 0.917 . S
C1511 C677 0.906 . S
C1525 C248 0.892 . S
C1531 C710 0.907 . S
C1545 C875 0.884 . S
C1551 C281 0.874 . S
C1565 C314 0.916 . S
C1571 C908 0.920 . S
C1585 C809 0.903 . S
C1591 C347 0.916 . S
C1605 C380 0.879 . S
C1611 C842 0.872 . S
C1625 C413 0.873 . S
C1631 C1007 0.875 . S
C1645 C1040 0.917 . S
C1651 C446 0.921 . S
C1665 C479 0.920 . S
C1671 C941 0.913 . S
C1685 C512 0.894 . S
C1691 C974 0.880 . S
C1705 C28 1.871 . S
C1711 C470 1.753 . S
C1725 C1031 1.749 . S
C1731 C61 1.863 . S
C1745 C404 1.746 1_455 S
C1751 C94 1.862 . S
C1765 C965 1.751 . S
C1771 C127 1.864 . S
C1785 C160 1.874 1_545 S
C1791 C338 1.769 . S
C1805 C193 1.878 . S
C1811 C899 1.770 . S
C1825 C226 1.874 1_565 S
C1831 C272 1.769 1_455 S
C1845 C833 1.755 . S
C1851 C259 1.871 . S
C1865 C206 1.744 . S
C1871 C292 1.864 . S
C1885 C767 1.762 . S
C1891 C325 1.875 . S
C1905 C358 1.878 1_565 S
C1911 C140 1.773 1_655 S
C1925 C391 1.861 . S
C1931 C701 1.743 . S
C1945 C424 1.874 1_565 S
C1951 C74 1.769 . S
C1965 C635 1.747 . S
C1971 C457 1.866 . S
C1985 C490 1.875 1_545 S
C1991 C8 1.763 1_655 S
C2005 C569 1.764 . S
C2011 C523 1.871 . S
C2025 C998 1.747 1_655 S
C2031 C556 1.862 . S
C2045 C589 1.867 . S
C2051 C503 1.757 . S
C2065 C932 1.742 . S
C2071 C622 1.862 . S
C2085 C437 1.763 . S
C2091 C655 1.870 . S
C2105 C688 1.875 . S
C2111 C866 1.762 1_655 S
C2125 C371 1.760 . S
C2131 C721 1.874 . S
C2145 C800 1.742 . S
C2151 C754 1.861 . S
C2165 C787 1.876 . S
C2171 C305 1.766 . S
C2185 C820 1.875 . S
C2191 C734 1.771 1_455 S
C2205 C239 1.757 . S
C2211 C853 1.867 . S
C2225 C886 1.876 . S
C2231 C668 1.765 . S
C2245 C173 1.763 . S
C2251 C919 1.875 . S
C2265 C952 1.864 . S
C2271 C602 1.752 1_455 S
C2285 C985 1.870 . S
C2291 C107 1.753 . S
C2305 C536 1.754 . S
C2311 C1018 1.871 . S
C2325 C41 1.747 . S
C2331 C1051 1.866 . S
C2345 N236 1.688 . S
C2351 N5 1.690 . S
C2365 N137 1.687 . S
C2371 N38 1.685 . S
C2385 N170 1.687 . S
C2391 N71 1.685 . S
C2405 N104 1.688 . S
C2411 N203 1.684 . S
C2425 N500 1.687 . S
C2431 N269 1.690 . S
C2445 N302 1.688 . S
C2451 N401 1.685 . S
C2465 N434 1.689 . S
C2471 N335 1.689 . S
C2485 N467 1.685 . S
C2491 N368 1.686 . S
C2505 N764 1.690 . S
C2511 N533 1.687 . S
C2525 N566 1.688 . S
C2531 N665 1.684 . S
C2545 N698 1.690 . S
C2551 N599 1.687 . S
C2565 N731 1.686 . S
C2571 N632 1.685 . S
C2585 N797 1.689 . S
C2591 N1028 1.685 . S
C2605 N929 1.689 . S
C2611 N830 1.685 . S
C2625 N863 1.688 . S
C2631 N962 1.690 . S
C2645 N995 1.685 . S
C2651 N896 1.688 . S
