# Generated by pormake.
# Topology wkf, (6)-cn, num edge types: 1
# Building blocks:
#     Node 0, Type 0, BuildingBlock: CUKXOW_clean_sbu_0, # of connection points: 6
#     Node 1, Type 0, BuildingBlock: CUKXOW_clean_sbu_0, # of connection points: 6
#     Node 2, Type 0, BuildingBlock: CUKXOW_clean_sbu_0, # of connection points: 6
#     Node 3, Type 0, BuildingBlock: CUKXOW_clean_sbu_0, # of connection points: 6
#     Node 4, Type 0, BuildingBlock: CUKXOW_clean_sbu_0, # of connection points: 6
#     Node 5, Type 0, BuildingBlock: CUKXOW_clean_sbu_0, # of connection points: 6
#     Node 6, Type 0, BuildingBlock: CUKXOW_clean_sbu_0, # of connection points: 6
#     Node 7, Type 0, BuildingBlock: CUKXOW_clean_sbu_0, # of connection points: 6
#     Node 8, Type 0, BuildingBlock: CUKXOW_clean_sbu_0, # of connection points: 6
#     Node 9, Type 0, BuildingBlock: CUKXOW_clean_sbu_0, # of connection points: 6
#     Node 10, Type 0, BuildingBlock: CUKXOW_clean_sbu_0, # of connection points: 6
#     Node 11, Type 0, BuildingBlock: CUKXOW_clean_sbu_0, # of connection points: 6
#     Edge 12, Type (0, 0), BuildingBlock: MIFKUJ_clean_linker_0, # of connection points: 2
#     Edge 13, Type (0, 0), BuildingBlock: MIFKUJ_clean_linker_0, # of connection points: 2
#     Edge 14, Type (0, 0), BuildingBlock: MIFKUJ_clean_linker_0, # of connection points: 2
#     Edge 15, Type (0, 0), BuildingBlock: MIFKUJ_clean_linker_0, # of connection points: 2
#     Edge 16, Type (0, 0), BuildingBlock: MIFKUJ_clean_linker_0, # of connection points: 2
#     Edge 17, Type (0, 0), BuildingBlock: MIFKUJ_clean_linker_0, # of connection points: 2
#     Edge 18, Type (0, 0), BuildingBlock: MIFKUJ_clean_linker_0, # of connection points: 2
#     Edge 19, Type (0, 0), BuildingBlock: MIFKUJ_clean_linker_0, # of connection points: 2
#     Edge 20, Type (0, 0), BuildingBlock: MIFKUJ_clean_linker_0, # of connection points: 2
#     Edge 21, Type (0, 0), BuildingBlock: MIFKUJ_clean_linker_0, # of connection points: 2
#     Edge 22, Type (0, 0), BuildingBlock: MIFKUJ_clean_linker_0, # of connection points: 2
#     Edge 23, Type (0, 0), BuildingBlock: MIFKUJ_clean_linker_0, # of connection points: 2
#     Edge 24, Type (0, 0), BuildingBlock: MIFKUJ_clean_linker_0, # of connection points: 2
#     Edge 25, Type (0, 0), BuildingBlock: MIFKUJ_clean_linker_0, # of connection points: 2
#     Edge 26, Type (0, 0), BuildingBlock: MIFKUJ_clean_linker_0, # of connection points: 2
#     Edge 27, Type (0, 0), BuildingBlock: MIFKUJ_clean_linker_0, # of connection points: 2
#     Edge 28, Type (0, 0), BuildingBlock: MIFKUJ_clean_linker_0, # of connection points: 2
#     Edge 29, Type (0, 0), BuildingBlock: MIFKUJ_clean_linker_0, # of connection points: 2
#     Edge 30, Type (0, 0), BuildingBlock: MIFKUJ_clean_linker_0, # of connection points: 2
#     Edge 31, Type (0, 0), BuildingBlock: MIFKUJ_clean_linker_0, # of connection points: 2
#     Edge 32, Type (0, 0), BuildingBlock: MIFKUJ_clean_linker_0, # of connection points: 2
#     Edge 33, Type (0, 0), BuildingBlock: MIFKUJ_clean_linker_0, # of connection points: 2
#     Edge 34, Type (0, 0), BuildingBlock: MIFKUJ_clean_linker_0, # of connection points: 2
#     Edge 35, Type (0, 0), BuildingBlock: MIFKUJ_clean_linker_0, # of connection points: 2
#     Edge 36, Type (0, 0), BuildingBlock: MIFKUJ_clean_linker_0, # of connection points: 2
#     Edge 37, Type (0, 0), BuildingBlock: MIFKUJ_clean_linker_0, # of connection points: 2
#     Edge 38, Type (0, 0), BuildingBlock: MIFKUJ_clean_linker_0, # of connection points: 2
#     Edge 39, Type (0, 0), BuildingBlock: MIFKUJ_clean_linker_0, # of connection points: 2
#     Edge 40, Type (0, 0), BuildingBlock: MIFKUJ_clean_linker_0, # of connection points: 2
#     Edge 41, Type (0, 0), BuildingBlock: MIFKUJ_clean_linker_0, # of connection points: 2
#     Edge 42, Type (0, 0), BuildingBlock: MIFKUJ_clean_linker_0, # of connection points: 2
#     Edge 43, Type (0, 0), BuildingBlock: MIFKUJ_clean_linker_0, # of connection points: 2
#     Edge 44, Type (0, 0), BuildingBlock: MIFKUJ_clean_linker_0, # of connection points: 2
#     Edge 45, Type (0, 0), BuildingBlock: MIFKUJ_clean_linker_0, # of connection points: 2
#     Edge 46, Type (0, 0), BuildingBlock: MIFKUJ_clean_linker_0, # of connection points: 2
#     Edge 47, Type (0, 0), BuildingBlock: MIFKUJ_clean_linker_0, # of connection points: 2
# Relax obj value: 0.113
# Max RMSD: 0.281
# Mean RMSD: 0.281
data_MOF--net-wkf--node1-CUKXOW_clean_sbu_0--edge1-MIFKUJ_clean_linker_0
_symmetry_space_group_name_H-M    P1
_symmetry_Int_Tables_number       1
_symmetry_cell_setting            triclinic
loop_
_symmetry_equiv_pos_as_xyz
'x, y, z'
_cell_length_a     34.69146
_cell_length_b     34.69842
_cell_length_c     98.769439
_cell_angle_alpha  90.047163
_cell_angle_beta   89.930467
_cell_angle_gamma 120.00308
loop_
_atom_site_label
_atom_site_type_symbol
_atom_site_fract_x
_atom_site_fract_y
_atom_site_fract_z
_atom_type_partial_charge
Tb0 Tb 0.37245 0.15498 0.39653 0.0
C1 C 0.33966 0.05378 0.39841 0.0
Tb2 Tb 0.42139 0.11728 0.37935 0.0
O3 O 0.31043 0.11512 0.38472 0.0
O4 O 0.3724 0.13508 0.37634 0.0
O5 O 0.34332 0.08864 0.40504 0.0
C6 C 0.44504 0.06381 0.36702 0.0
O7 O 0.36271 0.05786 0.38725 0.0
C8 C 0.46759 0.16715 0.39957 0.0
C9 C 0.44542 0.21643 0.37452 0.0
O10 O 0.44279 0.06829 0.37996 0.0
O11 O 0.4344 0.09025 0.36074 0.0
O12 O 0.48481 0.15969 0.38896 0.0
O13 O 0.42559 0.14189 0.39934 0.0
O14 O 0.44548 0.18123 0.36899 0.0
O15 O 0.42235 0.2138 0.38565 0.0
C16 C 0.35327 0.19521 0.41652 0.0
O17 O 0.3375 0.18897 0.40426 0.0
O18 O 0.37991 0.17926 0.41738 0.0
C19 C 0.33141 0.11161 0.37426 0.0
Tb20 Tb 0.20444 0.34981 0.56203 0.0
C21 C 0.2874 0.34184 0.57148 0.0
Tb22 Tb 0.29532 0.4096 0.54879 0.0
O23 O 0.18056 0.30711 0.54396 0.0
O24 O 0.24812 0.34127 0.54909 0.0
O25 O 0.24858 0.33769 0.57498 0.0
C26 C 0.37242 0.44988 0.53517 0.0
O27 O 0.30868 0.36375 0.56038 0.0
C28 C 0.27552 0.4448 0.56971 0.0
C29 C 0.20843 0.40994 0.53758 0.0
O30 O 0.36621 0.45778 0.54755 0.0
O31 O 0.33442 0.41998 0.53012 0.0
O32 O 0.3153 0.45324 0.56661 0.0
O33 O 0.2501 0.4189 0.56077 0.0
O34 O 0.25122 0.42208 0.53541 0.0
O35 O 0.18516 0.38516 0.54808 0.0
C36 C 0.14191 0.32126 0.5814 0.0
O37 O 0.17494 0.36152 0.58002 0.0
O38 O 0.14346 0.29678 0.57165 0.0
C39 C 0.22071 0.31807 0.54005 0.0
Tb40 Tb 0.85731 0.19776 0.72982 0.0
C41 C 0.95275 0.27923 0.73705 0.0
Tb42 Tb 0.8911 0.28576 0.7146 0.0
O43 O 0.87341 0.16752 0.71269 0.0
O44 O 0.90876 0.23614 0.71598 0.0
O45 O 0.9182 0.2414 0.74129 0.0
C46 C 0.92793 0.35924 0.69939 0.0
O47 O 0.9511 0.29905 0.72574 0.0
C48 C 0.83838 0.27358 0.73566 0.0
C49 C 0.80051 0.20011 0.70522 0.0
O50 O 0.91497 0.35642 0.71181 0.0
O51 O 0.91883 0.31999 0.69523 0.0
O52 O 0.87094 0.3117 0.73178 0.0
O53 O 0.83664 0.24527 0.7274 0.0
O54 O 0.83321 0.24095 0.70194 0.0
O55 O 0.80089 0.17933 0.71652 0.0
C56 C 0.82328 0.14285 0.75106 0.0
O57 O 0.83586 0.13316 0.73974 0.0
O58 O 0.82981 0.18297 0.75028 0.0
C59 C 0.90268 0.20603 0.7077 0.0
Tb60 Tb 0.65765 0.85462 0.89807 0.0
C61 C 0.66202 0.94538 0.90659 0.0
Tb62 Tb 0.60926 0.89016 0.88082 0.0
O63 O 0.70759 0.87231 0.88183 0.0
O64 O 0.67547 0.90869 0.88501 0.0
O65 O 0.66739 0.91151 0.9102 0.0
C66 C 0.58462 0.93033 0.86246 0.0
O67 O 0.64247 0.94553 0.89505 0.0
C68 C 0.56182 0.83714 0.90093 0.0
C69 C 0.61017 0.80169 0.87201 0.0
O70 O 0.55768 0.89626 0.86975 0.0
O71 O 0.62517 0.94069 0.86522 0.0
O72 O 0.55868 0.87074 0.8965 0.0
O73 O 0.59026 0.83454 0.89365 0.0
O74 O 0.60567 0.83599 0.8679 0.0
O75 O 0.62415 0.79955 0.88434 0.0
C76 C 0.67867 0.82011 0.9191 0.0
O77 O 0.64109 0.819 0.91736 0.0
O78 O 0.70461 0.84039 0.90887 0.0
C79 C 0.70187 0.90439 0.87734 0.0
Tb80 Tb 0.78334 0.64525 0.06774 0.0
C81 C 0.70347 0.66186 0.07524 0.0
Tb82 Tb 0.69473 0.59388 0.05225 0.0
O83 O 0.81499 0.69128 0.05067 0.0
O84 O 0.74651 0.6605 0.05388 0.0
O85 O 0.74172 0.6652 0.07905 0.0
C86 C 0.62407 0.56394 0.03583 0.0
O87 O 0.68227 0.63994 0.06411 0.0
C88 C 0.70351 0.55235 0.07368 0.0
C89 C 0.77631 0.57998 0.04436 0.0
O90 O 0.62341 0.55356 0.04845 0.0
O91 O 0.66515 0.59046 0.0322 0.0
O92 O 0.66578 0.54564 0.06895 0.0
O93 O 0.73265 0.57849 0.06559 0.0
O94 O 0.73859 0.57764 0.04007 0.0
O95 O 0.79564 0.59925 0.05602 0.0
C96 C 0.83978 0.66947 0.08861 0.0
O97 O 0.85109 0.68258 0.07615 0.0
O98 O 0.79709 0.64282 0.08919 0.0
C99 C 0.77712 0.68378 0.04567 0.0
Tb100 Tb 0.16209 0.80316 0.22976 0.0
C101 C 0.07185 0.71879 0.23819 0.0
Tb102 Tb 0.13139 0.71396 0.21533 0.0
O103 O 0.14625 0.83056 0.21202 0.0
O104 O 0.11079 0.76202 0.21608 0.0
O105 O 0.10771 0.75495 0.24266 0.0
C106 C 0.09252 0.637 0.20162 0.0
O107 O 0.07184 0.70175 0.2262 0.0
C108 C 0.18419 0.73027 0.23681 0.0
C109 C 0.21951 0.80143 0.20519 0.0
O110 O 0.09818 0.64166 0.21458 0.0
O111 O 0.11 0.67633 0.19608 0.0
O112 O 0.15484 0.69114 0.23254 0.0
O113 O 0.18404 0.75668 0.22824 0.0
O114 O 0.18917 0.75891 0.20263 0.0
O115 O 0.21729 0.82426 0.21572 0.0
C116 C 0.19113 0.86465 0.24947 0.0
O117 O 0.21062 0.84299 0.24545 0.0
O118 O 0.15591 0.85262 0.24209 0.0
C119 C 0.11714 0.79135 0.20747 0.0
Tb120 Tb 0.8537 0.65621 0.45229 0.0
C121 C 0.94847 0.67152 0.44324 0.0
Tb122 Tb 0.89288 0.60346 0.46671 0.0
O123 O 0.86458 0.6981 0.47026 0.0
O124 O 0.9035 0.66864 0.4666 0.0
O125 O 0.9144 0.67755 0.44062 0.0
C126 C 0.94055 0.57892 0.48212 0.0
O127 O 0.94792 0.64559 0.45319 0.0
C128 C 0.84407 0.56507 0.44486 0.0
C129 C 0.79953 0.59241 0.47611 0.0
O130 O 0.95442 0.61804 0.47704 0.0
O131 O 0.89891 0.55337 0.47887 0.0
O132 O 0.87585 0.55868 0.44918 0.0
O133 O 0.84025 0.58971 0.4534 0.0
O134 O 0.83572 0.59068 0.47995 0.0
O135 O 0.79762 0.61174 0.46471 0.0
C136 C 0.81826 0.68087 0.43244 0.0
O137 O 0.81748 0.64317 0.43321 0.0
O138 O 0.83844 0.7047 0.44305 0.0
C139 C 0.89431 0.68957 0.47526 0.0
Tb140 Tb 0.20531 0.85378 0.61815 0.0
C141 C 0.28332 0.94927 0.61387 0.0
Tb142 Tb 0.29213 0.88312 0.63406 0.0
O143 O 0.18912 0.89641 0.63093 0.0
O144 O 0.22776 0.87125 0.63825 0.0
O145 O 0.25111 0.91443 0.60753 0.0
C146 C 0.36892 0.92867 0.64753 0.0
O147 O 0.30033 0.94495 0.6254 0.0
C148 C 0.28103 0.83317 0.61304 0.0
C149 C 0.2104 0.788 0.63994 0.0
O150 O 0.3645 0.91408 0.63523 0.0
O151 O 0.32979 0.91681 0.65245 0.0
O152 O 0.30379 0.83496 0.62365 0.0
O153 O 0.26914 0.86227 0.61385 0.0
O154 O 0.24905 0.82056 0.64476 0.0
O155 O 0.18911 0.79324 0.6295 0.0
C156 C 0.13822 0.81653 0.60024 0.0
O157 O 0.1635 0.80067 0.60382 0.0
O158 O 0.1502 0.85295 0.60694 0.0
C159 C 0.21421 0.89772 0.64087 0.0
Tb160 Tb 0.35978 0.20994 0.78423 0.0
C161 C 0.34636 0.29011 0.78127 0.0
Tb162 Tb 0.42142 0.29442 0.80031 0.0
O163 O 0.30174 0.19875 0.79657 0.0
O164 O 0.36545 0.23203 0.8045 0.0
O165 O 0.34896 0.25922 0.77414 0.0
C166 C 0.45465 0.37322 0.81248 0.0
O167 O 0.36705 0.30388 0.79303 0.0
C168 C 0.45837 0.28136 0.77922 0.0
C169 C 0.42847 0.20846 0.80572 0.0
O170 O 0.45014 0.36612 0.79956 0.0
O171 O 0.44133 0.33563 0.8188 0.0
O172 O 0.48031 0.30446 0.78967 0.0
O173 O 0.41801 0.27165 0.78005 0.0
O174 O 0.43979 0.24919 0.81017 0.0
O175 O 0.39901 0.18791 0.79582 0.0
C176 C 0.32761 0.14502 0.76555 0.0
O177 O 0.36874 0.16776 0.76943 0.0
O178 O 0.30435 0.15805 0.77245 0.0
C179 C 0.32587 0.22161 0.80681 0.0
Tb180 Tb 0.14862 0.37715 0.94703 0.0
C181 C 0.04645 0.34123 0.94721 0.0
Tb182 Tb 0.11107 0.42176 0.96661 0.0
O183 O 0.11195 0.31287 0.95814 0.0
O184 O 0.12986 0.37296 0.96745 0.0
O185 O 0.08066 0.34649 0.93983 0.0
C186 C 0.05741 0.44073 0.98101 0.0
O187 O 0.05147 0.36307 0.95872 0.0
C188 C 0.15839 0.47124 0.94626 0.0
C189 C 0.21106 0.44524 0.96971 0.0
O190 O 0.05641 0.43527 0.96802 0.0
O191 O 0.0895 0.43606 0.98613 0.0
O192 O 0.15133 0.48663 0.95738 0.0
O193 O 0.13366 0.42938 0.94634 0.0
O194 O 0.17573 0.44224 0.97623 0.0
O195 O 0.20826 0.4271 0.95757 0.0
C196 C 0.18647 0.36419 0.92514 0.0
O197 O 0.19118 0.35418 0.93752 0.0
O198 O 0.161 0.38162 0.92524 0.0
C199 C 0.10788 0.33169 0.96907 0.0
Tb200 Tb 0.80401 0.14868 0.11414 0.0
C201 C 0.71574 0.05974 0.10703 0.0
Tb202 Tb 0.72029 0.12071 0.13126 0.0
O203 O 0.83554 0.13298 0.13099 0.0
O204 O 0.76661 0.09904 0.12855 0.0
O205 O 0.75235 0.09435 0.1022 0.0
C206 C 0.65311 0.08629 0.1492 0.0
O207 O 0.69917 0.06096 0.11904 0.0
C208 C 0.72741 0.16732 0.10923 0.0
C209 C 0.81174 0.21004 0.13859 0.0
O210 O 0.65771 0.11278 0.13929 0.0
O211 O 0.6874 0.08072 0.14934 0.0
O212 O 0.69002 0.13656 0.11431 0.0
O213 O 0.758 0.17134 0.11697 0.0
O214 O 0.77115 0.17909 0.14283 0.0
O215 O 0.82951 0.20627 0.12711 0.0
C216 C 0.86123 0.17598 0.0933 0.0
O217 O 0.84228 0.19698 0.09826 0.0
O218 O 0.84866 0.13985 0.10025 0.0
C219 C 0.79748 0.10425 0.13633 0.0
Tb220 Tb 0.66837 0.8016 0.28214 0.0
C221 C 0.68101 0.7189 0.27607 0.0
Tb222 Tb 0.61531 0.71517 0.29949 0.0
O223 O 0.71285 0.83556 0.29958 0.0
O224 O 0.68125 0.76691 0.29719 0.0
O225 O 0.68832 0.75844 0.27191 0.0
C226 C 0.58617 0.63919 0.31297 0.0
O227 O 0.65523 0.69739 0.28659 0.0
C228 C 0.56774 0.73294 0.28288 0.0
C229 C 0.61492 0.80263 0.30775 0.0
O230 O 0.57593 0.64287 0.30058 0.0
O231 O 0.61236 0.67863 0.31796 0.0
O232 O 0.55256 0.71026 0.29394 0.0
O233 O 0.607 0.74078 0.28087 0.0
O234 O 0.61232 0.76521 0.31234 0.0
O235 O 0.62984 0.81915 0.29547 0.0
C236 C 0.69251 0.85869 0.2614 0.0
O237 O 0.65184 0.83092 0.26505 0.0
O238 O 0.71973 0.85482 0.2696 0.0
C239 C 0.70501 0.79815 0.30508 0.0
H240 H 0.13941 0.88894 0.26384 0.0
H241 H 0.15734 0.92955 0.2853 0.0
H242 H 0.28918 0.94602 0.28401 0.0
H243 H 0.27021 0.90313 0.26296 0.0
H244 H 0.26269 0.92665 0.30793 0.0
H245 H 0.26257 0.03342 0.27721 0.0
H246 H 0.2326 0.062 0.25973 0.0
H247 H 0.12446 0.03878 0.28605 0.0
H248 H 0.15351 0.00955 0.30364 0.0
H249 H 0.37563 0.11047 0.35182 0.0
H250 H 0.34519 0.06766 0.33107 0.0
H251 H 0.21219 0.01507 0.34673 0.0
H252 H 0.24287 0.05724 0.3679 0.0
H253 H 0.23276 0.05005 0.31686 0.0
H254 H 0.2411 0.9461 0.34819 0.0
H255 H 0.28203 0.92919 0.36538 0.0
H256 H 0.38582 0.95827 0.33658 0.0
H257 H 0.34591 0.97581 0.31931 0.0
C258 C 0.17236 0.90168 0.26809 0.0
C259 C 0.20354 0.89317 0.26169 0.0
C260 C 0.18271 0.9251 0.28036 0.0
C261 C 0.22496 0.94167 0.28631 0.0
C262 C 0.25632 0.93366 0.27974 0.0
C263 C 0.24561 0.9094 0.26763 0.0
C264 C 0.23623 0.96613 0.29954 0.0
C265 C 0.25621 0.95373 0.30975 0.0
C266 C 0.22747 1.00128 0.30222 0.0
C267 C 0.20994 0.01884 0.29168 0.0
C268 C 0.23221 0.0341 0.27923 0.0
C269 C 0.21543 0.05047 0.26931 0.0
C270 C 0.17658 0.05207 0.27176 0.0
C271 C 0.1545 0.03743 0.28416 0.0
C272 C 0.17113 0.021 0.29411 0.0
C273 C 0.33992 0.08953 0.35093 0.0
C274 C 0.31168 0.08661 0.36158 0.0
C275 C 0.32255 0.0654 0.339 0.0
C276 C 0.27647 0.03817 0.33736 0.0
C277 C 0.24788 0.03605 0.3478 0.0
C278 C 0.2654 0.05994 0.35988 0.0
C279 C 0.25909 0.01046 0.32495 0.0
C280 C 0.23829 0.02239 0.31497 0.0
C281 C 0.26787 0.97556 0.32233 0.0
C282 C 0.29064 0.96249 0.33249 0.0
C283 C 0.27275 0.94899 0.34555 0.0
C284 C 0.29587 0.93943 0.35533 0.0
C285 C 0.33685 0.94316 0.35214 0.0
C286 C 0.35446 0.95596 0.33912 0.0
C287 C 0.33146 0.96541 0.3293 0.0
H288 H 0.35483 0.93587 0.35972 0.0
H289 H 0.16363 0.06475 0.26407 0.0
H290 H 0.16822 0.28134 0.51774 0.0
H291 H 0.18961 0.26363 0.49593 0.0
H292 H 0.32215 0.30968 0.51118 0.0
H293 H 0.30103 0.32805 0.53285 0.0
H294 H 0.3277 0.33908 0.48655 0.0
H295 H 0.24344 0.19699 0.50787 0.0
H296 H 0.17863 0.1356 0.51931 0.0
H297 H 0.09727 0.11861 0.48458 0.0
H298 H 0.16151 0.18039 0.47299 0.0
H299 H 0.39728 0.22587 0.44034 0.0
H300 H 0.3739 0.25111 0.46029 0.0
H301 H 0.25623 0.22965 0.43907 0.0
H302 H 0.28013 0.20533 0.41891 0.0
H303 H 0.24087 0.18953 0.4657 0.0
H304 H 0.3322 0.32906 0.44369 0.0
H305 H 0.40006 0.38879 0.43301 0.0
H306 H 0.47199 0.40942 0.47014 0.0
H307 H 0.40477 0.34903 0.48099 0.0
C308 C 0.20183 0.28748 0.51643 0.0
C309 C 0.23294 0.30606 0.52698 0.0
C310 C 0.21405 0.27727 0.50397 0.0
C311 C 0.25746 0.28486 0.50189 0.0
C312 C 0.28852 0.30356 0.51247 0.0
C313 C 0.27638 0.31397 0.52487 0.0
C314 C 0.27067 0.27347 0.48873 0.0
C315 C 0.30895 0.3062 0.48208 0.0
C316 C 0.24583 0.23085 0.4827 0.0
C317 C 0.20716 0.19365 0.48962 0.0
C318 C 0.21164 0.18041 0.50271 0.0
C319 C 0.17503 0.1455 0.50922 0.0
C320 C 0.13383 0.1233 0.50269 0.0
C321 C 0.12919 0.1359 0.48963 0.0
C322 C 0.16569 0.17084 0.48308 0.0
C323 C 0.36669 0.22706 0.43988 0.0
C324 C 0.34054 0.21374 0.42808 0.0
C325 C 0.3534 0.24151 0.45127 0.0
C326 C 0.31333 0.24231 0.45117 0.0
C327 C 0.28728 0.22933 0.43936 0.0
C328 C 0.30104 0.21567 0.42784 0.0
C329 C 0.29801 0.25502 0.46362 0.0
C330 C 0.2594 0.22248 0.47014 0.0
C331 C 0.32302 0.29759 0.46963 0.0
C332 C 0.36357 0.33384 0.46309 0.0
C333 C 0.36263 0.34579 0.44954 0.0
C334 C 0.40097 0.37988 0.44346 0.0
C335 C 0.4404 0.40266 0.45087 0.0
C336 C 0.44151 0.39152 0.46439 0.0
C337 C 0.40331 0.35733 0.47051 0.0
H338 H 0.47003 0.42911 0.44616 0.0
H339 H 0.10552 0.09627 0.50774 0.0
H340 H 0.96938 0.28427 0.69765 0.0
H341 H 1.00214 0.29898 0.67496 0.0
H342 H 0.92002 0.16016 0.66483 0.0
H343 H 0.88577 0.14562 0.68743 0.0
H344 H 0.00946 0.19581 0.6572 0.0
H345 H 0.89417 0.23105 0.65356 0.0
H346 H 0.84986 0.26705 0.65829 0.0
H347 H 0.96137 0.3942 0.64789 0.0
H348 H 0.00721 0.35951 0.6438 0.0
H349 H 0.07653 0.23601 0.58753 0.0
H350 H 0.02928 0.21107 0.60787 0.0
H351 H 0.09115 0.34678 0.62199 0.0
H352 H 0.13766 0.3717 0.60171 0.0
H353 H 1.00376 0.30551 0.62633 0.0
H354 H 0.12172 0.27252 0.63407 0.0
H355 H 0.16683 0.23784 0.62847 0.0
H356 H 0.05005 0.10828 0.63025 0.0
H357 H 1.00412 0.14227 0.63568 0.0
C358 C 0.95781 0.25699 0.69053 0.0
C359 C 0.92436 0.21396 0.69423 0.0
C360 C 0.97671 0.26541 0.67757 0.0
C361 C 0.96316 0.2308 0.6681 0.0
C362 C 0.93081 0.18744 0.67193 0.0
C363 C 0.91132 0.17914 0.68485 0.0
C364 C 0.98338 0.24 0.65432 0.0
C365 C 0.00761 0.21932 0.65038 0.0
C366 C 0.98157 0.27123 0.64546 0.0
C367 C 0.95448 0.29257 0.64854 0.0
C368 C 0.90967 0.26683 0.65257 0.0
C369 C 0.8842 0.28705 0.65512 0.0
C370 C 0.90281 0.33292 0.65342 0.0
C371 C 0.94696 0.35868 0.64919 0.0
C372 C 0.97284 0.33878 0.64687 0.0
C373 C 0.07963 0.26046 0.59493 0.0
C374 C 0.11081 0.30577 0.59305 0.0
C375 C 0.05283 0.24619 0.60658 0.0
C376 C 0.05694 0.27697 0.61658 0.0
C377 C 0.08725 0.32234 0.61447 0.0
C378 C 0.11393 0.33655 0.60287 0.0
C379 C 0.03078 0.26236 0.62943 0.0
C380 C 1.00537 0.28192 0.63318 0.0
C381 C 0.03174 0.23046 0.63816 0.0
C382 C 0.05942 0.20995 0.63513 0.0
C383 C 0.10562 0.23665 0.63319 0.0
C384 C 0.13134 0.21712 0.63005 0.0
C385 C 0.1113 0.17089 0.62896 0.0
C386 C 0.06552 0.14409 0.63107 0.0
C387 C 0.03962 0.16346 0.63419 0.0
H388 H 0.13125 0.15584 0.6265 0.0
H389 H 0.88301 0.34852 0.65534 0.0
H390 H 0.8008 0.16429 0.77507 0.0
H391 H 0.77911 0.1212 0.79606 0.0
H392 H 0.7871 0.01496 0.77602 0.0
H393 H 0.80914 0.05829 0.75486 0.0
H394 H 0.71053 0.98616 0.79383 0.0
H395 H 0.87047 0.0808 0.79449 0.0
H396 H 0.94061 0.15241 0.79261 0.0
H397 H 0.89966 0.2056 0.82528 0.0
H398 H 0.82894 0.13448 0.82722 0.0
H399 H 0.72096 0.87569 0.85377 0.0
H400 H 0.74073 0.91458 0.83183 0.0
H401 H 0.73943 0.02683 0.85015 0.0
H402 H 0.71912 0.9879 0.87193 0.0
H403 H 0.81278 0.05141 0.83299 0.0
H404 H 0.65388 0.96307 0.83204 0.0
H405 H 0.58172 0.89384 0.8346 0.0
H406 H 0.61816 0.8317 0.80343 0.0
H407 H 0.69074 0.90051 0.80073 0.0
C408 C 0.79769 0.13162 0.77509 0.0
C409 C 0.80704 0.11477 0.76336 0.0
C410 C 0.78529 0.10706 0.7871 0.0
C411 C 0.78193 0.06507 0.78765 0.0
C412 C 0.78956 0.04733 0.77581 0.0
C413 C 0.80227 0.07211 0.76376 0.0
C414 C 0.77269 0.04101 0.80077 0.0
C415 C 0.73325 1.00002 0.80231 0.0
C416 C 0.80162 0.05978 0.81199 0.0
C417 C 0.84425 0.10245 0.81091 0.0
C418 C 0.87627 0.10789 0.8012 0.0
C419 C 0.91615 0.14836 0.80013 0.0
C420 C 0.92454 0.18357 0.80879 0.0
C421 C 0.8931 0.17832 0.81856 0.0
C422 C 0.85313 0.13792 0.81966 0.0
C423 C 0.72555 0.90889 0.85311 0.0
C424 C 0.71857 0.92889 0.86449 0.0
C425 C 0.73647 0.93092 0.84058 0.0
C426 C 0.74122 0.97348 0.83934 0.0
C427 C 0.73591 0.99406 0.85086 0.0
C428 C 0.72433 0.97181 0.86328 0.0
C429 C 0.75093 0.99633 0.82601 0.0
C430 C 0.79029 0.03729 0.82446 0.0
C431 C 0.72168 0.97785 0.81486 0.0
C432 C 0.67789 0.93671 0.81629 0.0
C433 C 0.64662 0.93453 0.82579 0.0
C434 C 0.60564 0.89542 0.82726 0.0
C435 C 0.59547 0.85835 0.81924 0.0
C436 C 0.62614 0.86042 0.80966 0.0
C437 C 0.66717 0.89948 0.80814 0.0
H438 H 0.56377 0.82806 0.82042 0.0
H439 H 0.95544 0.21488 0.80796 0.0
H440 H 0.75852 0.82608 0.92519 0.0
H441 H 0.77918 0.80431 0.94643 0.0
H442 H 0.64655 0.75681 0.96188 0.0
H443 H 0.62604 0.77885 0.9408 0.0
H444 H 0.7087 0.80986 0.97987 0.0
H445 H 0.68209 0.68481 0.95177 0.0
H446 H 0.69314 0.64895 0.93174 0.0
H447 H 0.83168 0.70626 0.94153 0.0
H448 H 0.82157 0.74294 0.96154 0.0
H449 H 0.70183 0.68178 0.03676 0.0
H450 H 0.69053 0.7098 0.01528 0.0
H451 H 0.82676 0.75481 1.00407 0.0
H452 H 0.83827 0.72688 0.02565 0.0
H453 H 0.769 0.70745 0.98377 0.0
H454 H 0.80075 0.83649 0.00973 0.0
H455 H 0.79718 0.88379 0.0278 0.0
H456 H 0.65647 0.82552 0.02153 0.0
H457 H 0.65939 0.77839 1.00326 0.0
C458 C 0.73374 0.81056 0.93308 0.0
C459 C 0.69072 0.80416 0.93137 0.0
C460 C 0.7455 0.79803 0.94519 0.0
C461 C 0.71434 0.77872 0.95574 0.0
C462 C 0.67117 0.7717 0.9539 0.0
C463 C 0.65945 0.78419 0.94184 0.0
C464 C 0.72693 0.7676 0.96896 0.0
C465 C 0.72124 0.78691 0.98073 0.0
C466 C 0.74513 0.73919 0.97006 0.0
C467 C 0.75116 0.71698 0.95807 0.0
C468 C 0.71498 0.69005 0.94959 0.0
C469 C 0.72106 0.66952 0.93825 0.0
C470 C 0.76311 0.67542 0.93534 0.0
C471 C 0.79914 0.70176 0.94379 0.0
C472 C 0.79325 0.72239 0.95513 0.0
C473 C 0.7294 0.69769 0.02973 0.0
C474 C 0.77089 0.70197 0.03284 0.0
C475 C 0.72302 0.71409 0.01751 0.0
C476 C 0.75791 0.73477 0.0081 0.0
C477 C 0.79944 0.73915 0.0112 0.0
C478 C 0.80598 0.72321 0.02352 0.0
C479 C 0.74994 0.74911 0.9947 0.0
C480 C 0.75647 0.7304 0.98291 0.0
C481 C 0.73302 0.77853 0.99353 0.0
C482 C 0.73022 0.80365 1.00525 0.0
C483 C 0.76899 0.83346 0.01231 0.0
C484 C 0.76718 0.86064 0.02246 0.0
C485 C 0.72666 0.85783 0.02576 0.0
C486 C 0.68785 0.82779 0.01892 0.0
C487 C 0.68959 0.80097 0.00864 0.0
H488 H 0.72528 0.87864 0.0337 0.0
H489 H 0.76775 0.65951 0.92656 0.0
H490 H 0.02722 0.75023 0.20642 0.0
H491 H 0.98055 0.73457 0.18632 0.0
H492 H 0.09828 0.79439 0.16115 0.0
H493 H 0.14494 0.81399 0.18151 0.0
H494 H 0.04304 0.81339 0.15087 0.0
H495 H 0.02431 0.67306 0.16808 0.0
H496 H 1.00473 0.61712 0.18606 0.0
H497 H 0.87297 0.59817 0.18831 0.0
H498 H 0.89187 0.65485 0.17055 0.0
H499 H 0.93107 0.7146 0.08896 0.0
H500 H 0.97962 0.73685 0.10893 0.0
H501 H 0.86394 0.67962 0.1349 0.0
H502 H 0.81573 0.65575 0.11504 0.0
H503 H 0.91884 0.65892 0.14453 0.0
H504 H 0.93322 0.79656 0.12898 0.0
H505 H 0.94917 0.85626 0.11257 0.0
H506 H 0.08336 0.88243 0.10833 0.0
H507 H 0.06803 0.82248 0.1246 0.0
C508 C 0.04293 0.7604 0.19657 0.0
C509 C 0.08941 0.78308 0.19539 0.0
C510 C 0.01631 0.75103 0.18506 0.0
C511 C 0.03562 0.76177 0.17207 0.0
C512 C 0.08236 0.78538 0.17099 0.0
C513 C 0.10904 0.79646 0.18258 0.0
C514 C 0.00737 0.74777 0.15961 0.0
C515 C 0.0163 0.77942 0.14942 0.0
C516 C 0.9714 0.70378 0.15779 0.0
C517 C 0.95961 0.66839 0.16804 0.0
C518 C 0.9912 0.65706 0.17243 0.0
C519 C 0.98027 0.62532 0.18261 0.0
C520 C 0.93777 0.60413 0.18835 0.0
C521 C 0.90594 0.61464 0.18389 0.0
C522 C 0.91671 0.64659 0.17376 0.0
C523 C 0.91618 0.70681 0.09895 0.0
C524 C 0.8697 0.68353 0.10047 0.0
C525 C 0.94389 0.71976 0.11037 0.0
C526 C 0.92558 0.71054 0.1235 0.0
C527 C 0.87905 0.68713 0.12494 0.0
C528 C 0.85146 0.6736 0.11356 0.0
C529 C 0.95445 0.72458 0.1358 0.0
C530 C 0.94571 0.69286 0.14594 0.0
C531 C 0.99003 0.76865 0.13767 0.0
C532 C 0.99933 0.80472 0.1279 0.0
C533 C 0.96603 0.81483 0.12447 0.0
C534 C 0.97497 0.84874 0.11521 0.0
C535 C 0.01721 0.87303 0.10938 0.0
C536 C 0.05063 0.86353 0.11283 0.0
C537 C 0.04185 0.82961 0.12208 0.0
H538 H 0.02407 0.89928 0.10221 0.0
H539 H 0.92948 0.57947 0.1962 0.0
H540 H 0.10318 0.73593 0.58767 0.0
H541 H 0.05469 0.71052 0.56776 0.0
H542 H 0.05376 0.83445 0.56711 0.0
H543 H 0.10039 0.85888 0.58742 0.0
H544 H 0.97525 0.77054 0.56024 0.0
H545 H 0.12526 0.81127 0.5466 0.0
H546 H 0.19407 0.80689 0.54714 0.0
H547 H 0.11981 0.6685 0.53641 0.0
H548 H 0.05052 0.67195 0.53596 0.0
H549 H 0.91648 0.76448 0.49008 0.0
H550 H 0.95216 0.7838 0.5125 0.0
H551 H 0.94707 0.65704 0.51413 0.0
H552 H 0.91117 0.638 0.49204 0.0
H553 H 0.02746 0.72137 0.52058 0.0
H554 H 0.87866 0.6791 0.53343 0.0
H555 H 0.80844 0.6807 0.53282 0.0
H556 H 0.87791 0.81798 0.5449 0.0
H557 H 0.94874 0.81742 0.54537 0.0
C558 C 0.09208 0.75742 0.58337 0.0
C559 C 0.10569 0.79944 0.58902 0.0
C560 C 0.06464 0.74306 0.57192 0.0
C561 C 0.05137 0.77099 0.56566 0.0
C562 C 0.06362 0.8123 0.57166 0.0
C563 C 0.09035 0.8263 0.58327 0.0
C564 C 0.02629 0.7581 0.55262 0.0
C565 C 0.98699 0.7603 0.55152 0.0
C566 C 0.04081 0.74361 0.54128 0.0
C567 C 0.08263 0.74176 0.54141 0.0
C568 C 0.12359 0.77985 0.54444 0.0
C569 C 0.16268 0.77754 0.54472 0.0
C570 C 0.1613 0.73742 0.54186 0.0
C571 C 0.12084 0.69954 0.53866 0.0
C572 C 0.08166 0.70166 0.53838 0.0
C573 C 0.92284 0.7408 0.49531 0.0
C574 C 0.91262 0.70033 0.48913 0.0
C575 C 0.94309 0.75175 0.50811 0.0
C576 C 0.95267 0.72199 0.51499 0.0
C577 C 0.94082 0.68092 0.50897 0.0
C578 C 0.92085 0.67022 0.49622 0.0
C579 C 0.97657 0.73391 0.5282 0.0
C580 C 0.01569 0.73159 0.5293 0.0
C581 C 0.9617 0.74794 0.53953 0.0
C582 C 0.91911 0.74834 0.5393 0.0
C583 C 0.87905 0.70975 0.53584 0.0
C584 C 0.83911 0.71045 0.53554 0.0
C585 C 0.83873 0.74945 0.53879 0.0
C586 C 0.87827 0.78781 0.54237 0.0
C587 C 0.91833 0.78731 0.54266 0.0
H588 H 0.80779 0.74993 0.53858 0.0
H589 H 0.1916 0.7357 0.54209 0.0
H590 H 0.25359 0.8885 0.66334 0.0
H591 H 0.27044 0.92991 0.68445 0.0
H592 H 0.20496 0.99953 0.66964 0.0
H593 H 0.1913 0.96031 0.64787 0.0
H594 H 0.27513 0.05564 0.68253 0.0
H595 H 0.15651 0.91083 0.69384 0.0
H596 H 0.11659 0.82884 0.69487 0.0
H597 H 0.22242 0.83314 0.71853 0.0
H598 H 0.26327 0.91517 0.7175 0.0
H599 H 0.25123 0.11793 0.75122 0.0
H600 H 0.22866 0.07417 0.73021 0.0
H601 H 0.34487 0.05972 0.73236 0.0
H602 H 0.36851 0.10485 0.75312 0.0
H603 H 0.24441 0.9758 0.7264 0.0
H604 H 0.36518 0.12252 0.71222 0.0
H605 H 0.40148 0.20438 0.71138 0.0
H606 H 0.28405 0.19452 0.69353 0.0
H607 H 0.24684 0.11251 0.69447 0.0
C608 C 0.24356 0.91327 0.66445 0.0
C609 C 0.22188 0.92177 0.65386 0.0
C610 C 0.25244 0.93638 0.67667 0.0
C611 C 0.23823 0.96736 0.67885 0.0
C612 C 0.21621 0.97575 0.66827 0.0
C613 C 0.20817 0.95318 0.65587 0.0
C614 C 0.24712 0.99123 0.69207 0.0
C615 C 0.26771 0.03791 0.69208 0.0
C616 C 0.23793 0.96851 0.70466 0.0
C617 C 0.21309 0.91917 0.70551 0.0
C618 C 0.17137 0.89429 0.69921 0.0
C619 C 0.14857 0.84781 0.6998 0.0
C620 C 0.167 0.8258 0.70674 0.0
C621 C 0.20819 0.85024 0.71316 0.0
C622 C 0.23115 0.89673 0.71259 0.0
C623 C 0.27169 0.105 0.74729 0.0
C624 C 0.31156 0.11464 0.75379 0.0
C625 C 0.25884 0.08018 0.73529 0.0
C626 C 0.28519 0.0639 0.72976 0.0
C627 C 0.32414 0.07205 0.7365 0.0
C628 C 0.33755 0.09774 0.74833 0.0
C629 C 0.27281 0.03965 0.71669 0.0
C630 C 0.25145 0.99309 0.71678 0.0
C631 C 0.28068 0.0623 0.70422 0.0
C632 C 0.30305 0.11148 0.70359 0.0
C633 C 0.34694 0.13783 0.70827 0.0
C634 C 0.36773 0.18423 0.70774 0.0
C635 C 0.34503 0.20464 0.70245 0.0
C636 C 0.30155 0.17867 0.69765 0.0
C637 C 0.28061 0.13223 0.69817 0.0
H638 H 0.36117 0.24057 0.70204 0.0
H639 H 0.14934 0.7898 0.70716 0.0
H640 H 0.25279 0.34324 0.92271 0.0
H641 H 0.27813 0.32388 0.90181 0.0
H642 H 0.18255 0.34132 0.87874 0.0
H643 H 0.1582 0.36194 0.89941 0.0
H644 H 0.18155 0.25797 0.87411 0.0
H645 H 0.27911 0.41495 0.87416 0.0
H646 H 0.33499 0.48875 0.88274 0.0
H647 H 0.42887 0.44348 0.88762 0.0
H648 H 0.37338 0.36919 0.87913 0.0
H649 H 0.25127 0.22915 0.80884 0.0
H650 H 0.22857 0.25823 0.82802 0.0
H651 H 0.34455 0.27909 0.85027 0.0
H652 H 0.36813 0.25209 0.83087 0.0
H653 H 0.33352 0.34559 0.85487 0.0
H654 H 0.2324 0.18595 0.85562 0.0
H655 H 0.17671 0.11431 0.8456 0.0
H656 H 0.0889 0.16601 0.83868 0.0
H657 H 0.14428 0.23811 0.84853 0.0
C658 C 0.23748 0.3432 0.91315 0.0
C659 C 0.20348 0.35398 0.91268 0.0
C660 C 0.25199 0.33225 0.90124 0.0
C661 C 0.23211 0.33105 0.88872 0.0
C662 C 0.19827 0.34193 0.88827 0.0
C663 C 0.1845 0.35383 0.90009 0.0
C664 C 0.24559 0.31716 0.87615 0.0
C665 C 0.21466 0.27731 0.86982 0.0
C666 C 0.28884 0.34218 0.87063 0.0
C667 C 0.3218 0.38624 0.87622 0.0
C668 C 0.3114 0.42046 0.87727 0.0
C669 C 0.34312 0.4625 0.88203 0.0
C670 C 0.38538 0.47073 0.8858 0.0
C671 C 0.39606 0.437 0.88475 0.0
C672 C 0.36452 0.39494 0.87993 0.0
C673 C 0.27162 0.2397 0.81788 0.0
C674 C 0.31106 0.23779 0.81847 0.0
C675 C 0.25866 0.25628 0.82887 0.0
C676 C 0.28427 0.2701 0.84081 0.0
C677 C 0.32403 0.26864 0.84126 0.0
C678 C 0.3374 0.25294 0.83019 0.0
C679 C 0.2698 0.28566 0.85292 0.0
C680 C 0.30047 0.32599 0.85917 0.0
C681 C 0.22623 0.26105 0.85839 0.0
C682 C 0.19257 0.21745 0.85273 0.0
C683 C 0.20125 0.18204 0.85193 0.0
C684 C 0.16975 0.14137 0.84628 0.0
C685 C 0.12931 0.13563 0.84149 0.0
C686 C 0.12021 0.17049 0.8424 0.0
C687 C 0.15161 0.21124 0.84803 0.0
H688 H 0.10502 0.10416 0.83709 0.0
H689 H 0.40985 0.50329 0.8895 0.0
H690 H 0.87804 0.12302 0.07673 0.0
H691 H 0.91669 0.143 0.05489 0.0
H692 H 0.94523 0.27837 0.06012 0.0
H693 H 0.90425 0.25761 0.08152 0.0
H694 H 0.92083 0.25706 0.03613 0.0
H695 H 0.02587 0.24058 0.06364 0.0
H696 H 0.05162 0.20214 0.07902 0.0
H697 H 0.01714 0.09917 0.04945 0.0
H698 H 0.99067 0.13676 0.03395 0.0
H699 H 0.1041 0.3722 0.99193 0.0
H700 H 0.05755 0.33912 0.01184 0.0
H701 H 1.00542 0.20862 0.99429 0.0
H702 H 0.05096 0.24221 0.97381 0.0
H703 H 0.03581 0.21934 0.02272 0.0
H704 H 0.94407 0.24925 0.99389 0.0
H705 H 0.91846 0.28995 0.9796 0.0
H706 H 0.93554 0.37716 0.01275 0.0
H707 H 0.96114 0.33674 0.02729 0.0
C708 C 0.893 0.15711 0.07324 0.0
C709 C 0.88838 0.18885 0.08082 0.0
C710 C 0.91529 0.16862 0.06077 0.0
C711 C 0.93458 0.21246 0.05582 0.0
C712 C 0.93061 0.24429 0.0636 0.0
C713 C 0.90743 0.23252 0.07589 0.0
C714 C 0.95753 0.22515 0.04238 0.0
C715 C 0.94647 0.24936 0.03332 0.0
C716 C 0.98997 0.21386 0.03841 0.0
C717 C 1.00583 0.19121 0.04771 0.0
C718 C 0.02347 0.20956 0.06046 0.0
C719 C 0.03825 0.18797 0.06919 0.0
C720 C 0.03589 0.14817 0.06523 0.0
C721 C 0.01886 0.12996 0.05252 0.0
C722 C 1.004 0.1514 0.04375 0.0
C723 C 0.0822 0.33654 0.99216 0.0
C724 C 0.0806 0.30989 0.98122 0.0
C725 C 0.0558 0.31765 1.0036 0.0
C726 C 0.02768 0.27151 1.00448 0.0
C727 C 0.02677 0.24439 0.99374 0.0
C728 C 0.05276 0.26352 0.98209 0.0
C729 C 0.99995 0.2523 0.01678 0.0
C730 C 0.01006 0.22685 0.02557 0.0
C731 C 0.9675 0.26355 0.02067 0.0
C732 C 0.95446 0.28964 0.01172 0.0
C733 C 0.94266 0.27717 0.99813 0.0
C734 C 0.92813 0.30026 0.98997 0.0
C735 C 0.92541 0.33616 0.99525 0.0
C736 C 0.9376 0.34929 0.00867 0.0
C737 C 0.952 0.32617 0.01689 0.0
H738 H 0.91364 0.35363 0.98895 0.0
H739 H 0.04735 0.1315 0.07201 0.0
H740 H 0.77573 0.92432 0.25395 0.0
H741 H 0.79715 0.968 0.23292 0.0
H742 H 0.66014 0.89912 0.21995 0.0
H743 H 0.63849 0.85603 0.24102 0.0
H744 H 0.72185 0.90213 0.20025 0.0
H745 H 0.70186 1.00082 0.23019 0.0
H746 H 0.71551 0.04581 0.25084 0.0
H747 H 0.85432 0.12303 0.2408 0.0
H748 H 0.84159 0.07802 0.22018 0.0
H749 H 0.72255 0.02929 0.14431 0.0
H750 H 0.70909 0.98879 0.1656 0.0
H751 H 0.84401 0.07976 0.17809 0.0
H752 H 0.85713 0.12131 0.15682 0.0
H753 H 0.78885 0.06614 0.19832 0.0
H754 H 0.81019 0.97373 0.1677 0.0
H755 H 0.8009 0.9272 0.14775 0.0
H756 H 0.66583 0.83633 0.15933 0.0
H757 H 0.67367 0.88314 0.17909 0.0
C758 C 0.75018 0.91885 0.24666 0.0
C759 C 0.70545 0.88688 0.24912 0.0
C760 C 0.76244 0.9438 0.23466 0.0
C761 C 0.73023 0.93683 0.22487 0.0
C762 C 0.68553 0.90501 0.22736 0.0
C763 C 0.67319 0.88056 0.23942 0.0
C764 C 0.74311 0.9618 0.21186 0.0
C765 C 0.73593 0.93793 0.19976 0.0
C766 C 0.76318 0.00867 0.21133 0.0
C767 C 0.77086 0.0357 0.22373 0.0
C768 C 0.73538 0.02709 0.23245 0.0
C769 C 0.74293 0.05266 0.24414 0.0
C770 C 0.78578 0.08716 0.24715 0.0
C771 C 0.82116 0.09623 0.23847 0.0
C772 C 0.81379 0.07072 0.22678 0.0
C773 C 0.7493 0.04082 0.15162 0.0
C774 C 0.79075 0.07875 0.14898 0.0
C775 C 0.74172 0.01732 0.16375 0.0
C776 C 0.77563 0.03085 0.17345 0.0
C777 C 0.8173 0.06859 0.17077 0.0
C778 C 0.82487 0.0922 0.1586 0.0
C779 C 0.76687 0.00641 0.18655 0.0
C780 C 0.77488 0.03034 0.19871 0.0
C781 C 0.74802 0.95951 0.18713 0.0
C782 C 0.74244 0.93232 0.17485 0.0
C783 C 0.77824 0.94425 0.16589 0.0
C784 C 0.77327 0.91773 0.15463 0.0
C785 C 0.73285 0.87878 0.1523 0.0
C786 C 0.69719 0.86643 0.16118 0.0
C787 C 0.70181 0.8931 0.17237 0.0
H788 H 0.72908 0.85825 0.14358 0.0
H789 H 0.79156 0.10694 0.2562 0.0
H790 H 0.83269 0.76444 0.42694 0.0
H791 H 0.81546 0.79006 0.40584 0.0
H792 H 0.75389 0.65638 0.38995 0.0
H793 H 0.77199 0.63109 0.41081 0.0
H794 H 0.80846 0.71226 0.37199 0.0
H795 H 0.69306 0.70664 0.40046 0.0
H796 H 0.66241 0.72463 0.42047 0.0
H797 H 0.73697 0.86354 0.41044 0.0
H798 H 0.76854 0.84643 0.39046 0.0
H799 H 0.69728 0.7219 0.31466 0.0
H800 H 0.71652 0.70733 0.33695 0.0
H801 H 0.77062 0.8456 0.34763 0.0
H802 H 0.74742 0.85942 0.32544 0.0
H803 H 0.72691 0.79536 0.3684 0.0
H804 H 0.83854 0.79823 0.3387 0.0
H805 H 0.86463 0.77716 0.31825 0.0
H806 H 0.79358 0.64007 0.33048 0.0
H807 H 0.76672 0.66024 0.35093 0.0
C808 C 0.81495 0.74052 0.41899 0.0
C809 C 0.80367 0.69582 0.42049 0.0
C810 C 0.80505 0.75514 0.40695 0.0
C811 C 0.78323 0.72514 0.39628 0.0
C812 C 0.77092 0.68023 0.39798 0.0
C813 C 0.78108 0.66575 0.40994 0.0
C814 C 0.77496 0.74047 0.38308 0.0
C815 C 0.79028 0.7301 0.37122 0.0
C816 C 0.75244 0.76496 0.38204 0.0
C817 C 0.73357 0.7753 0.39406 0.0
C818 C 0.70323 0.74106 0.40259 0.0
C819 C 0.68563 0.75109 0.41391 0.0
C820 C 0.69785 0.79521 0.41675 0.0
C821 C 0.72761 0.82939 0.40824 0.0
C822 C 0.74535 0.81955 0.39692 0.0
C823 C 0.71255 0.74911 0.32183 0.0
C824 C 0.72019 0.79162 0.31841 0.0
C825 C 0.72434 0.74091 0.33452 0.0
C826 C 0.74607 0.77553 0.34394 0.0
C827 C 0.75412 0.81835 0.34052 0.0
C828 C 0.74118 0.82634 0.32784 0.0
C829 C 0.75967 0.76636 0.35732 0.0
C830 C 0.74555 0.77799 0.36919 0.0
C831 C 0.78312 0.74275 0.3584 0.0
C832 C 0.80052 0.73077 0.34633 0.0
C833 C 0.82846 0.7636 0.33702 0.0
C834 C 0.84336 0.7518 0.32542 0.0
C835 C 0.83073 0.7073 0.32306 0.0
C836 C 0.80337 0.67453 0.33233 0.0
C837 C 0.78841 0.68614 0.34394 0.0
H838 H 0.84216 0.69823 0.31405 0.0
H839 H 0.68418 0.80291 0.42551 0.0
H840 H 0.64514 0.89122 0.30766 0.0
H841 H 0.61308 0.93088 0.31921 0.0
H842 H 0.51479 0.80839 0.33789 0.0
H843 H 0.54727 0.76829 0.32639 0.0
H844 H 0.47933 0.85797 0.32493 0.0
H845 H 0.59067 0.87911 0.3573 0.0
H846 H 0.66601 0.89923 0.36501 0.0
H847 H 0.71617 0.0331 0.35101 0.0
H848 H 0.64122 0.0136 0.34301 0.0
H849 H 0.45832 1.00348 0.38025 0.0
H850 H 0.48237 0.95375 0.37099 0.0
H851 H 0.48421 1.00344 0.33086 0.0
H852 H 0.46013 0.05405 0.34017 0.0
H853 H 0.56452 0.98546 0.35597 0.0
H854 H 0.44666 0.91055 0.3113 0.0
H855 H 0.36822 0.88189 0.30478 0.0
H856 H 0.32762 0.84647 0.34614 0.0
H857 H 0.40594 0.87582 0.35291 0.0
C858 C 0.61706 0.87279 0.31437 0.0
C859 C 0.59873 0.82672 0.31618 0.0
C860 C 0.59881 0.8955 0.32096 0.0
C861 C 0.56159 0.87254 0.32937 0.0
C862 C 0.54355 0.82662 0.33141 0.0
C863 C 0.56233 0.80389 0.32497 0.0
C864 C 0.5411 0.89676 0.33565 0.0
C865 C 0.49791 0.88576 0.33175 0.0
C866 C 0.56527 0.93282 0.34459 0.0
C867 C 0.61037 0.94477 0.34945 0.0
C868 C 0.61783 0.91275 0.35576 0.0
C869 C 0.66046 0.92406 0.3602 0.0
C870 C 0.69588 0.96739 0.35847 0.0
C871 C 0.68871 0.99953 0.35233 0.0
C872 C 0.64615 0.98838 0.34785 0.0
C873 C 0.46364 1.0038 0.36943 0.0
C874 C 0.45764 0.03282 0.36092 0.0
C875 C 0.47724 0.97523 0.36417 0.0
C876 C 0.48482 0.97479 0.35027 0.0
C877 C 0.47816 1.00314 0.34163 0.0
C878 C 0.46465 0.03208 0.34694 0.0
C879 C 0.50304 0.9471 0.34509 0.0
C880 C 0.546 0.95769 0.34914 0.0
C881 C 0.4785 0.91037 0.33644 0.0
C882 C 0.432 0.89566 0.3326 0.0
C883 C 0.42096 0.89698 0.319 0.0
C884 C 0.37658 0.88062 0.31527 0.0
C885 C 0.34295 0.86227 0.32504 0.0
C886 C 0.35369 0.86061 0.33858 0.0
C887 C 0.3981 0.87754 0.34239 0.0
H888 H 0.3086 0.84952 0.32213 0.0
H889 H 0.72886 0.97609 0.36192 0.0
H890 H 0.39349 0.43414 0.50967 0.0
H891 H 0.46804 0.45589 0.501 0.0
H892 H 0.52558 0.52104 0.53897 0.0
H893 H 0.45192 0.50139 0.5473 0.0
H894 H 0.57754 0.56903 0.52062 0.0
H895 H 0.50527 0.41358 0.52973 0.0
H896 H 0.44719 0.33452 0.52835 0.0
H897 H 0.47245 0.3337 0.48582 0.0
H898 H 0.52974 0.4131 0.48685 0.0
H899 H 0.78835 0.58496 0.50388 0.0
H900 H 0.71717 0.55632 0.51619 0.0
H901 H 0.64647 0.52191 0.47822 0.0
H902 H 0.71636 0.54967 0.46604 0.0
H903 H 0.6052 0.45553 0.49939 0.0
H904 H 0.67066 0.61601 0.49102 0.0
H905 H 0.73195 0.69345 0.49349 0.0
H906 H 0.72263 0.68034 0.53677 0.0
H907 H 0.66162 0.60257 0.53454 0.0
C908 C 0.42222 0.45372 0.51603 0.0
C909 C 0.41694 0.4661 0.52914 0.0
C910 C 0.46479 0.46573 0.51115 0.0
C911 C 0.50262 0.48939 0.51943 0.0
C912 C 0.49719 0.50279 0.53236 0.0
C913 C 0.45492 0.49146 0.53713 0.0
C914 C 0.54785 0.49997 0.51478 0.0
C915 C 0.58343 0.54387 0.51615 0.0
C916 C 0.55616 0.46737 0.50899 0.0
C917 C 0.5215 0.41955 0.50834 0.0
C918 C 0.49812 0.39671 0.52005 0.0
C919 C 0.4653 0.3518 0.51933 0.0
C920 C 0.45598 0.32915 0.50699 0.0
C921 C 0.47959 0.35131 0.49536 0.0
C922 C 0.51216 0.3963 0.496 0.0
C923 C 0.75743 0.57029 0.49825 0.0
C924 C 0.75783 0.5698 0.48403 0.0
C925 C 0.71694 0.5542 0.50525 0.0
C926 C 0.67659 0.53699 0.49808 0.0
C927 C 0.6771 0.53476 0.48394 0.0
C928 C 0.71717 0.55095 0.477 0.0
C929 C 0.63381 0.52436 0.50493 0.0
C930 C 0.59888 0.48023 0.50398 0.0
C931 C 0.62618 0.5564 0.51129 0.0
C932 C 0.66192 0.60345 0.51261 0.0
C933 C 0.68184 0.6296 0.50106 0.0
C934 C 0.71651 0.67354 0.50241 0.0
C935 C 0.73125 0.69178 0.51528 0.0
C936 C 0.71121 0.66616 0.52681 0.0
C937 C 0.67657 0.62218 0.52551 0.0
H938 H 0.75813 0.72577 0.5163 0.0
H939 H 0.43058 0.29438 0.50646 0.0
H940 H 0.19067 0.76949 0.66676 0.0
H941 H 0.14389 0.69595 0.67689 0.0
H942 H 0.13479 0.63466 0.63801 0.0
H943 H 0.17843 0.70788 0.62789 0.0
H944 H 0.06097 0.5942 0.64715 0.0
H945 H 0.2002 0.63307 0.66834 0.0
H946 H 0.26883 0.67995 0.68128 0.0
H947 H 0.19091 0.67489 0.71576 0.0
H948 H 0.12182 0.62849 0.70292 0.0
H949 H 0.97606 0.37402 0.67615 0.0
H950 H 0.02644 0.44647 0.66558 0.0
H951 H 0.99486 0.51258 0.69702 0.0
H952 H 0.94365 0.44058 0.70725 0.0
H953 H 0.08965 0.54766 0.69169 0.0
H954 H 0.94976 0.50357 0.66864 0.0
H955 H 0.88505 0.45213 0.65484 0.0
H956 H 0.97205 0.46196 0.62241 0.0
H957 H 0.03738 0.51272 0.63614 0.0
C958 C 0.17916 0.7401 0.66051 0.0
C959 C 0.18828 0.74418 0.64659 0.0
C960 C 0.15258 0.69795 0.66628 0.0
C961 C 0.13616 0.65912 0.65832 0.0
C962 C 0.14654 0.66368 0.64445 0.0
C963 C 0.17186 0.70566 0.63864 0.0
C964 C 0.1063 0.61391 0.66412 0.0
C965 C 0.06806 0.58404 0.65678 0.0
C966 C 0.1145 0.60016 0.6768 0.0
C967 C 0.15591 0.62776 0.6846 0.0
C968 C 0.19775 0.64228 0.67863 0.0
C969 C 0.23672 0.6687 0.68596 0.0
C970 C 0.23424 0.68051 0.69933 0.0
C971 C 0.19278 0.66577 0.7054 0.0
C972 C 0.15371 0.63938 0.6981 0.0
C973 C 0.97903 0.404 0.68052 0.0
C974 C 0.95532 0.40178 0.69229 0.0
C975 C 0.00812 0.44527 0.67461 0.0
C976 C 0.01428 0.48476 0.68056 0.0
C977 C 0.99061 0.48247 0.69232 0.0
C978 C 0.9612 0.44134 0.69809 0.0
C979 C 0.04544 0.52873 0.67461 0.0
C980 C 0.08347 0.55816 0.68198 0.0
C981 C 0.03787 0.54158 0.66178 0.0
C982 C 0.99849 0.51157 0.65348 0.0
C983 C 0.95513 0.49444 0.65861 0.0
C984 C 0.91833 0.46545 0.6508 0.0
C985 C 0.92443 0.45373 0.63777 0.0
C986 C 0.96737 0.47107 0.63251 0.0
C987 C 1.00429 0.49991 0.64031 0.0
H988 H 0.8959 0.43123 0.63174 0.0
H989 H 0.26444 0.70098 0.70499 0.0
H990 H 0.39403 0.11881 0.80608 0.0
H991 H 0.4271 0.0769 0.81534 0.0
H992 H 0.54188 0.19896 0.82832 0.0
H993 H 0.50846 0.24164 0.81916 0.0
H994 H 0.55757 0.12853 0.81379 0.0
H995 H 0.48232 0.15005 0.8517 0.0
H996 H 0.41903 0.15011 0.86306 0.0
H997 H 0.33702 0.01017 0.85533 0.0
H998 H 0.39968 0.00943 0.84373 0.0
H999 H 0.63836 0.01642 0.85524 0.0
H1000 H 0.61613 0.06739 0.84593 0.0
H1001 H 0.48046 0.95956 0.84277 0.0
H1002 H 0.50227 0.90903 0.85311 0.0
H1003 H 0.48078 0.02884 0.85277 0.0
H1004 H 0.54809 0.00907 0.8116 0.0
H1005 H 0.6095 1.00186 0.80162 0.0
H1006 H 0.70426 0.1311 0.81677 0.0
H1007 H 0.64319 0.13985 0.82635 0.0
C1008 C 0.42632 0.13695 0.8109 0.0
C1009 C 0.44848 0.18363 0.81196 0.0
C1010 C 0.44523 0.11287 0.81615 0.0
C1011 C 0.48701 0.13481 0.82244 0.0
C1012 C 0.5097 0.18146 0.82341 0.0
C1013 C 0.49037 0.20571 0.81832 0.0
C1014 C 0.5051 0.10809 0.82859 0.0
C1015 C 0.54131 0.10732 0.82245 0.0
C1016 C 0.48325 0.07955 0.83967 0.0
C1017 C 0.44558 0.07979 0.84673 0.0
C1018 C 0.45068 0.11937 0.85232 0.0
C1019 C 0.41494 0.11952 0.85882 0.0
C1020 C 0.37399 0.08019 0.85989 0.0
C1021 C 0.36875 0.04062 0.85448 0.0
C1022 C 0.40438 0.04031 0.84795 0.0
C1023 C 0.60391 1.00345 0.85236 0.0
C1024 C 0.57201 0.95879 0.85482 0.0
C1025 C 0.59124 0.0326 0.84693 0.0
C1026 C 0.54671 0.01733 0.84334 0.0
C1027 C 0.51502 0.97224 0.84543 0.0
C1028 C 0.5275 0.9433 0.85123 0.0
C1029 C 0.53287 0.04868 0.83792 0.0
C1030 C 0.49732 0.05024 0.84417 0.0
C1031 C 0.55505 0.07753 0.8269 0.0
C1032 C 0.59114 0.07523 0.81958 0.0
C1033 C 0.58198 0.03635 0.81252 0.0
C1034 C 0.61669 0.03202 0.80694 0.0
C1035 C 0.66073 0.06621 0.80846 0.0
C1036 C 0.67008 0.105 0.81542 0.0
C1037 C 0.63541 0.10991 0.82078 0.0
H1038 H 0.68763 0.06255 0.8043 0.0
H1039 H 0.34636 0.08037 0.86493 0.0
H1040 H 0.23074 0.45551 0.99684 0.0
H1041 H 0.30378 0.48173 0.00723 0.0
H1042 H 0.36468 0.51082 0.96762 0.0
H1043 H 0.29182 0.48313 0.95725 0.0
H1044 H 0.39496 0.46878 0.98084 0.0
H1045 H 0.37918 0.59412 0.99122 0.0
H1046 H 0.34281 0.63468 0.9999 0.0
H1047 H 0.3407 0.58563 0.03995 0.0
H1048 H 0.37651 0.54423 0.03148 0.0
H1049 H 0.61812 0.58274 0.00911 0.0
H1050 H 0.55025 0.56773 0.9968 0.0
H1051 H 0.47188 0.50665 0.03258 0.0
H1052 H 0.53889 0.52068 0.04475 0.0
H1053 H 0.45468 0.57066 0.02021 0.0
H1054 H 0.46786 0.44215 0.00847 0.0
H1055 H 0.50624 0.40443 0.99911 0.0
H1056 H 0.51635 0.46522 0.96043 0.0
H1057 H 0.47857 0.50384 0.96962 0.0
C1058 C 0.25983 0.46825 0.99039 0.0
C1059 C 0.25545 0.46711 0.97624 0.0
C1060 C 0.30168 0.48334 0.99633 0.0
C1061 C 0.34007 0.49855 0.98824 0.0
C1062 C 0.33576 0.49904 0.97411 0.0
C1063 C 0.29399 0.48333 0.96819 0.0
C1064 C 0.38419 0.51135 0.99438 0.0
C1065 C 0.40827 0.49175 0.98929 0.0
C1066 C 0.40167 0.54087 1.00553 0.0
C1067 C 0.38018 0.56575 0.01069 0.0
C1068 C 0.37066 0.5917 1.00186 0.0
C1069 C 0.35019 0.61489 1.00675 0.0
C1070 C 0.33936 0.61265 0.02047 0.0
C1071 C 0.34907 0.58729 0.02933 0.0
C1072 C 0.3695 0.56399 0.02449 0.0
C1073 C 0.58629 0.56566 0.01426 0.0
C1074 C 0.58371 0.55265 0.02785 0.0
C1075 C 0.54764 0.55724 0.00725 0.0
C1076 C 0.50605 0.5362 0.01381 0.0
C1077 C 0.5036 0.52309 0.02735 0.0
C1078 C 0.54193 0.5309 0.03426 0.0
C1079 C 0.4648 0.5278 1.00671 0.0
C1080 C 0.44136 0.54816 0.01165 0.0
C1081 C 0.44823 0.49954 0.99531 0.0
C1082 C 0.47093 0.47634 0.98978 0.0
C1083 C 0.47868 0.44784 0.99801 0.0
C1084 C 0.50023 0.42621 0.99272 0.0
C1085 C 0.51388 0.43255 0.97919 0.0
C1086 C 0.50587 0.46043 0.97091 0.0
C1087 C 0.48437 0.48218 0.97615 0.0
H1088 H 0.53054 0.41575 0.97512 0.0
H1089 H 0.32352 0.63063 0.02423 0.0
H1090 H 0.09155 0.61324 0.17491 0.0
H1091 H 0.04213 0.54031 0.16463 0.0
H1092 H 0.97664 0.49169 0.20318 0.0
H1093 H 0.02782 0.5629 0.21352 0.0
H1094 H 0.9836 0.43046 0.19366 0.0
H1095 H 0.92073 0.51408 0.17245 0.0
H1096 H 0.9189 0.57306 0.15897 0.0
H1097 H 0.98608 0.54957 0.12628 0.0
H1098 H 0.98646 0.48902 0.13931 0.0
H1099 H 0.79684 0.23359 0.16415 0.0
H1100 H 0.84242 0.30526 0.17581 0.0
H1101 H 0.93172 0.35348 0.14163 0.0
H1102 H 0.88723 0.28346 0.13006 0.0
H1103 H 0.90969 0.41324 0.14945 0.0
H1104 H 0.95983 0.32091 0.17076 0.0
H1105 H 0.94979 0.25587 0.18377 0.0
H1106 H 0.89885 0.2952 0.21745 0.0
H1107 H 0.90803 0.36018 0.20456 0.0
C1108 C 0.06675 0.58672 0.18113 0.0
C1109 C 0.0638 0.59354 0.19501 0.0
C1110 C 0.03796 0.54516 0.17524 0.0
C1111 C 1.00473 0.51019 0.18303 0.0
C1112 C 1.00187 0.51758 0.19689 0.0
C1113 C 0.03128 0.55846 0.20281 0.0
C1114 C 0.97407 0.46536 0.17705 0.0
C1115 C 0.96675 0.42694 0.18411 0.0
C1116 C 0.95235 0.45991 0.16447 0.0
C1117 C 0.9543 0.49766 0.15692 0.0
C1118 C 0.93549 0.52183 0.16244 0.0
C1119 C 0.93449 0.55534 0.15486 0.0
C1120 C 0.95306 0.56562 0.1419 0.0
C1121 C 0.97199 0.54182 0.13637 0.0
C1122 C 0.97224 0.50764 0.14378 0.0
C1123 C 0.82628 0.25946 0.15918 0.0
C1124 C 0.8383 0.2524 0.14619 0.0
C1125 C 0.85241 0.30031 0.16586 0.0
C1126 C 0.89074 0.33472 0.15961 0.0
C1127 C 0.90242 0.32759 0.14667 0.0
C1128 C 0.87677 0.28713 0.14008 0.0
C1129 C 0.91861 0.37889 0.16616 0.0
C1130 C 0.92577 0.41704 0.15913 0.0
C1131 C 0.93928 0.38393 0.17886 0.0
C1132 C 0.93416 0.34512 0.18665 0.0
C1133 C 0.94617 0.3155 0.1809 0.0
C1134 C 0.94069 0.27868 0.18826 0.0
C1135 C 0.92357 0.27134 0.20142 0.0
C1136 C 0.91203 0.30089 0.20725 0.0
C1137 C 0.91739 0.33773 0.19993 0.0
H1138 H 0.91933 0.2428 0.2071 0.0
H1139 H 0.95244 0.59177 0.1361 0.0
H1140 H 0.91744 0.49863 0.49388 0.0
H1141 H 0.96809 0.47497 0.50314 0.0
H1142 H 0.0805 0.60398 0.49401 0.0
H1143 H 0.03019 0.62793 0.48499 0.0
H1144 H 0.09141 0.53304 0.48495 0.0
H1145 H 0.05524 0.58306 0.5254 0.0
H1146 H 0.00628 0.58895 0.54238 0.0
H1147 H 0.94457 0.44885 0.55037 0.0
H1148 H 0.9928 0.44197 0.53331 0.0
H1149 H 0.24477 0.48795 0.52278 0.0
H1150 H 0.20359 0.52109 0.51235 0.0
H1151 H 0.07947 0.40504 0.52331 0.0
H1152 H 0.1198 0.3719 0.53349 0.0
H1153 H 0.08114 0.4785 0.53195 0.0
H1154 H 0.1164 0.42915 0.49017 0.0
H1155 H 0.1671 0.42542 0.47337 0.0
H1156 H 0.23297 0.56718 0.46819 0.0
H1157 H 0.18297 0.5718 0.48509 0.0
C1158 C 0.95289 0.52201 0.49401 0.0
C1159 C 0.96988 0.56507 0.48875 0.0
C1160 C 0.98179 0.50852 0.49927 0.0
C1161 C 0.0281 0.53774 0.49922 0.0
C1162 C 0.04497 0.58088 0.49409 0.0
C1163 C 0.01612 0.59454 0.48901 0.0
C1164 C 0.0589 0.52293 0.50428 0.0
C1165 C 0.08962 0.52163 0.49528 0.0
C1166 C 0.05649 0.50799 0.51772 0.0
C1167 C 0.02732 0.51191 0.52797 0.0
C1168 C 0.03095 0.55342 0.53068 0.0
C1169 C 1.00341 0.55697 0.54034 0.0
C1170 C 0.97226 0.51929 0.54742 0.0
C1171 C 0.96867 0.47799 0.54487 0.0
C1172 C 0.99614 0.47426 0.53522 0.0
C1173 C 0.20873 0.46917 0.52265 0.0
C1174 C 0.18555 0.42748 0.52905 0.0
C1175 C 0.18526 0.48825 0.51679 0.0
C1176 C 0.13843 0.46587 0.51725 0.0
C1177 C 0.11553 0.42329 0.523 0.0
C1178 C 0.13874 0.40432 0.52878 0.0
C1179 C 0.11271 0.48708 0.51249 0.0
C1180 C 0.0831 0.48996 0.52162 0.0
C1181 C 0.11639 0.50366 0.49919 0.0
C1182 C 0.14626 0.50086 0.48899 0.0
C1183 C 0.14191 0.45956 0.48552 0.0
C1184 C 0.17048 0.45728 0.47597 0.0
C1185 C 0.20332 0.49605 0.46974 0.0
C1186 C 0.20756 0.53718 0.47303 0.0
C1187 C 0.1791 0.53965 0.48259 0.0
H1188 H 0.2254 0.49422 0.46235 0.0
H1189 H 0.95096 0.5221 0.55489 0.0
H1190 H 0.38438 0.97637 0.67096 0.0
H1191 H 0.45698 0.03081 0.68043 0.0
H1192 H 0.52287 1.00166 0.64826 0.0
H1193 H 0.45073 0.94856 0.63861 0.0
H1194 H 0.52311 0.02714 0.69056 0.0
H1195 H 0.6183 0.09171 0.63896 0.0
H1196 H 0.6017 0.10516 0.61574 0.0
H1197 H 0.491 0.11595 0.63049 0.0
H1198 H 0.50747 0.10355 0.65381 0.0
H1199 H 0.74636 0.11151 0.70212 0.0
H1200 H 0.67276 0.07305 0.69185 0.0
H1201 H 0.68662 0.19903 0.68 0.0
H1202 H 0.76154 0.23798 0.69006 0.0
H1203 H 0.64281 0.13827 0.66092 0.0
H1204 H 0.6235 0.1466 0.70782 0.0
H1205 H 0.63506 0.14227 0.73224 0.0
H1206 H 0.58761 1.00227 0.72862 0.0
H1207 H 0.57549 0.00573 0.70413 0.0
C1208 C 0.41445 0.98154 0.66598 0.0
C1209 C 0.41206 0.95844 0.65405 0.0
C1210 C 0.45588 0.01267 0.67137 0.0
C1211 C 0.49552 0.02108 0.66491 0.0
C1212 C 0.4929 0.99675 0.65324 0.0
C1213 C 0.45163 0.96607 0.6478 0.0
C1214 C 0.53973 0.05454 0.67043 0.0
C1215 C 0.54912 0.0515 0.68407 0.0
C1216 C 0.57337 0.08777 0.66215 0.0
C1217 C 0.56393 0.09627 0.64814 0.0
C1218 C 0.59062 0.09726 0.63727 0.0
C1219 C 0.58121 0.10469 0.62408 0.0
C1220 C 0.54527 0.11131 0.62163 0.0
C1221 C 0.51879 0.11075 0.63238 0.0
C1222 C 0.52814 0.1035 0.64559 0.0
C1223 C 0.73405 0.13108 0.69717 0.0
C1224 C 0.75949 0.17776 0.697 0.0
C1225 C 0.69182 0.10905 0.69137 0.0
C1226 C 0.67356 0.13316 0.68549 0.0
C1227 C 0.69987 0.17976 0.68459 0.0
C1228 C 0.74268 0.20195 0.69028 0.0
C1229 C 0.6265 0.10913 0.68082 0.0
C1230 C 0.61658 0.11408 0.66739 0.0
C1231 C 0.59175 0.07901 0.68943 0.0
C1232 C 0.59888 0.0765 0.70413 0.0
C1233 C 0.61577 0.11494 0.71222 0.0
C1234 C 0.62238 0.11263 0.72608 0.0
C1235 C 0.61237 0.07209 0.73198 0.0
C1236 C 0.59541 0.03367 0.72403 0.0
C1237 C 0.58847 0.03574 0.71017 0.0
H1238 H 0.61761 0.07041 0.74271 0.0
H1239 H 0.53796 0.11692 0.61141 0.0
H1240 H 0.63423 0.73927 0.87517 0.0
H1241 H 0.60656 0.66941 0.86335 0.0
H1242 H 0.52891 0.70347 0.83703 0.0
H1243 H 0.5559 0.7743 0.84933 0.0
H1244 H 0.48013 0.61862 0.84629 0.0
H1245 H 0.62038 0.70258 0.82491 0.0
H1246 H 0.70131 0.7538 0.82327 0.0
H1247 H 0.72536 0.66257 0.84605 0.0
H1248 H 0.64454 0.61106 0.84801 0.0
H1249 H 0.45228 0.44203 0.80072 0.0
H1250 H 0.47673 0.51589 0.81012 0.0
H1251 H 0.51503 0.47825 0.84712 0.0
H1252 H 0.48886 0.40306 0.8379 0.0
H1253 H 0.58204 0.56628 0.83044 0.0
H1254 H 0.43741 0.4831 0.85179 0.0
H1255 H 0.35652 0.43186 0.851 0.0
H1256 H 0.34031 0.52429 0.82622 0.0
H1257 H 0.42157 0.57518 0.8262 0.0
C1258 C 0.61148 0.73238 0.86682 0.0
C1259 C 0.59703 0.76237 0.86326 0.0
C1260 C 0.59589 0.69232 0.85998 0.0
C1261 C 0.566 0.68125 0.84921 0.0
C1262 C 0.5521 0.71144 0.84532 0.0
C1263 C 0.56775 0.75197 0.85226 0.0
C1264 C 0.54852 0.63716 0.84259 0.0
C1265 C 0.50239 0.60748 0.84259 0.0
C1266 C 0.57757 0.62233 0.83792 0.0
C1267 C 0.62631 0.65304 0.83667 0.0
C1268 C 0.6429 0.69354 0.82965 0.0
C1269 C 0.68877 0.72263 0.82865 0.0
C1270 C 0.71845 0.71147 0.83457 0.0
C1271 C 0.70232 0.67116 0.84147 0.0
C1272 C 0.65647 0.64197 0.84251 0.0
C1273 C 0.4657 0.44936 0.8109 0.0
C1274 C 0.46891 0.41703 0.8186 0.0
C1275 C 0.4795 0.49148 0.81624 0.0
C1276 C 0.49754 0.50231 0.82927 0.0
C1277 C 0.50103 0.47023 0.83703 0.0
C1278 C 0.48609 0.42748 0.83179 0.0
C1279 C 0.51405 0.54782 0.83449 0.0
C1280 C 0.55994 0.57768 0.83411 0.0
C1281 C 0.48475 0.5629 0.83857 0.0
C1282 C 0.43577 0.53271 0.83882 0.0
C1283 C 0.41677 0.49227 0.84598 0.0
C1284 C 0.37078 0.46331 0.84572 0.0
C1285 C 0.34323 0.47486 0.83863 0.0
C1286 C 0.36168 0.51536 0.83171 0.0
C1287 C 0.40775 0.5442 0.83178 0.0
H1288 H 0.30761 0.45242 0.83849 0.0
H1289 H 0.75396 0.73405 0.83379 0.0
H1290 H 0.78807 0.57652 0.01698 0.0
H1291 H 0.83058 0.54602 1.00573 0.0
H1292 H 0.8498 0.49969 0.04426 0.0
H1293 H 0.80865 0.53085 0.05548 0.0
H1294 H 0.92277 0.57434 0.01304 0.0
H1295 H 0.84964 0.40452 0.03837 0.0
H1296 H 0.77775 0.34328 0.04665 0.0
H1297 H 0.70851 0.37546 0.01676 0.0
H1298 H 0.7799 0.43735 0.00849 0.0
H1299 H 0.06345 0.47225 0.007 0.0
H1300 H 0.01135 0.49136 0.01808 0.0
H1301 H 0.92774 0.44761 0.98266 0.0
H1302 H 0.97987 0.43005 0.97145 0.0
H1303 H 0.88593 0.41647 0.01209 0.0
H1304 H 0.97714 0.54246 0.98159 0.0
H1305 H 0.04979 0.60236 0.97339 0.0
H1306 H 0.08269 0.65732 0.01348 0.0
H1307 H 0.01043 0.59728 0.02194 0.0
C1308 C 0.80074 0.55911 0.02295 0.0
C1309 C 0.79544 0.55627 0.03707 0.0
C1310 C 0.82512 0.54192 0.01657 0.0
C1311 C 0.84336 0.52065 0.02418 0.0
C1312 C 0.83594 0.5158 0.03819 0.0
C1313 C 0.81258 0.53378 0.04458 0.0
C1314 C 0.87327 0.50673 0.01782 0.0
C1315 C 0.91453 0.53978 0.01277 0.0
C1316 C 0.86307 0.46183 0.01773 0.0
C1317 C 0.82 0.42554 0.02286 0.0
C1318 C 0.81902 0.39852 0.0336 0.0
C1319 C 0.7784 0.36379 0.03831 0.0
C1320 C 0.73862 0.35539 0.03221 0.0
C1321 C 0.73935 0.38198 0.02147 0.0
C1322 C 0.77984 0.41712 0.01685 0.0
C1323 C 0.03385 0.46663 1.00165 0.0
C1324 C 0.02578 0.44996 0.98836 0.0
C1325 C 1.00421 0.47749 0.00796 0.0
C1326 C 0.96578 0.47082 1.00115 0.0
C1327 C 0.95717 0.45294 0.98806 0.0
C1328 C 0.98711 0.44312 0.98167 0.0
C1329 C 0.93516 0.48406 0.00729 0.0
C1330 C 0.89405 0.45099 0.0124 0.0
C1331 C 0.94557 0.52896 0.00752 0.0
C1332 C 0.98871 0.56515 1.00242 0.0
C1333 C 1.00008 0.56707 0.98867 0.0
C1334 C 0.04112 0.60109 0.98397 0.0
C1335 C 0.0709 0.63355 0.99292 0.0
C1336 C 0.05963 0.63212 1.00657 0.0
C1337 C 0.01864 0.59812 0.01132 0.0
H1338 H 0.10266 0.65987 0.98926 0.0
H1339 H 0.70721 0.32841 0.03583 0.0
H1340 H 0.58067 0.09708 0.1502 0.0
H1341 H 0.50781 0.04642 0.16014 0.0
H1342 H 0.55734 0.96211 0.17465 0.0
H1343 H 0.63056 0.01301 0.16478 0.0
H1344 H 0.47646 0.915 0.16097 0.0
H1345 H 0.53752 0.02117 0.19695 0.0
H1346 H 0.57473 0.09593 0.20724 0.0
H1347 H 0.4694 0.11702 0.19342 0.0
H1348 H 0.43185 0.04258 0.18287 0.0
H1349 H 0.28035 0.77549 0.19991 0.0
H1350 H 0.35503 0.82178 0.19044 0.0
H1351 H 0.32457 0.92603 0.1824 0.0
H1352 H 0.25115 0.88071 0.19265 0.0
H1353 H 0.3988 0.96177 0.19352 0.0
H1354 H 0.33893 0.8576 0.15668 0.0
H1355 H 0.30175 0.78361 0.14586 0.0
H1356 H 0.40379 0.75898 0.16066 0.0
H1357 H 0.4413 0.83264 0.17171 0.0
C1358 C 0.57625 0.06819 0.15573 0.0
C1359 C 0.61131 0.05913 0.1568 0.0
C1360 C 0.53459 0.03921 0.16138 0.0
C1361 C 0.52709 1.00046 0.16816 0.0
C1362 C 0.56235 0.99177 0.16946 0.0
C1363 C 0.60423 0.02105 0.16392 0.0
C1364 C 0.48194 0.96845 0.17342 0.0
C1365 C 0.45963 0.92489 0.16827 0.0
C1366 C 0.45963 0.98168 0.18267 0.0
C1367 C 0.48209 0.02645 0.18901 0.0
C1368 C 0.52248 0.04189 0.196 0.0
C1369 C 0.5436 0.08418 0.20191 0.0
C1370 C 0.5245 0.11125 0.20096 0.0
C1371 C 0.48418 0.09603 0.19414 0.0
C1372 C 0.46294 0.05378 0.18821 0.0
C1373 C 0.28936 0.80781 0.19576 0.0
C1374 C 0.25998 0.82443 0.19681 0.0
C1375 C 0.3321 0.83437 0.19033 0.0
C1376 C 0.34575 0.87758 0.18554 0.0
C1377 C 0.31527 0.89308 0.18606 0.0
C1378 C 0.27312 0.86703 0.19179 0.0
C1379 C 0.39251 0.90805 0.18094 0.0
C1380 C 0.41534 0.95151 0.18624 0.0
C1381 C 0.41513 0.89469 0.17177 0.0
C1382 C 0.39268 0.85045 0.16513 0.0
C1383 C 0.35326 0.83628 0.15771 0.0
C1384 C 0.33216 0.79442 0.15152 0.0
C1385 C 0.35033 0.76657 0.15261 0.0
C1386 C 0.38972 0.78057 0.15985 0.0
C1387 C 0.41094 0.82238 0.16606 0.0
H1388 H 0.33394 0.73418 0.14781 0.0
H1389 H 0.5409 0.14398 0.20554 0.0
H1390 H 0.62168 0.62475 0.33582 0.0
H1391 H 0.60318 0.5524 0.34566 0.0
H1392 H 0.50375 0.48539 0.31477 0.0
H1393 H 0.52237 0.55724 0.30486 0.0
H1394 H 0.4736 0.4527 0.34067 0.0
H1395 H 0.59764 0.48691 0.31149 0.0
H1396 H 0.67384 0.53485 0.30287 0.0
H1397 H 0.72718 0.53287 0.34191 0.0
H1398 H 0.65116 0.48541 0.35082 0.0
H1399 H 0.47694 0.23658 0.34833 0.0
H1400 H 0.50846 0.30954 0.33714 0.0
H1401 H 0.5 0.36843 0.37466 0.0
H1402 H 0.46927 0.29661 0.38588 0.0
H1403 H 0.58475 0.40268 0.34381 0.0
H1404 H 0.44216 0.42126 0.36605 0.0
H1405 H 0.36544 0.37385 0.37443 0.0
H1406 H 0.34813 0.26915 0.3475 0.0
H1407 H 0.42443 0.3162 0.33882 0.0
C1408 C 0.59564 0.59452 0.33123 0.0
C1409 C 0.5733 0.59642 0.31962 0.0
C1410 C 0.58534 0.55331 0.33679 0.0
C1411 C 0.55232 0.51358 0.33087 0.0
C1412 C 0.52936 0.51564 0.31947 0.0
C1413 C 0.54001 0.55666 0.31383 0.0
C1414 C 0.54126 0.46969 0.33655 0.0
C1415 C 0.49792 0.44182 0.34134 0.0
C1416 C 0.57289 0.4553 0.33725 0.0
C1417 C 0.61868 0.48289 0.33185 0.0
C1418 C 0.6256 0.49689 0.31826 0.0
C1419 C 0.66876 0.52393 0.31331 0.0
C1420 C 0.70534 0.53693 0.32184 0.0
C1421 C 0.69881 0.52276 0.33531 0.0
C1422 C 0.65568 0.49574 0.34031 0.0
C1423 C 0.48261 0.26527 0.35423 0.0
C1424 C 0.46978 0.2606 0.36792 0.0
C1425 C 0.50077 0.30689 0.34785 0.0
C1426 C 0.5061 0.34415 0.35507 0.0
C1427 C 0.49583 0.33999 0.3689 0.0
C1428 C 0.47789 0.29874 0.37525 0.0
C1429 C 0.51728 0.38616 0.34803 0.0
C1430 C 0.56053 0.41365 0.34306 0.0
C1431 C 0.48551 0.40023 0.34702 0.0
C1432 C 0.43913 0.37211 0.35189 0.0
C1433 C 0.42187 0.38821 0.36187 0.0
C1434 C 0.37848 0.36139 0.36668 0.0
C1435 C 0.35198 0.31846 0.36153 0.0
C1436 C 0.36873 0.30234 0.35152 0.0
C1437 C 0.41207 0.32905 0.34666 0.0
H1438 H 0.31843 0.29773 0.36528 0.0
H1439 H 0.73872 0.55791 0.31799 0.0
H1440 H 0.96564 0.73563 0.4243 0.0
H1441 H 0.03753 0.79025 0.41515 0.0
H1442 H 0.09988 0.72671 0.43613 0.0
H1443 H 0.02785 0.67242 0.44574 0.0
H1444 H 0.14478 0.81067 0.44077 0.0
H1445 H 0.09199 0.72605 0.40058 0.0
H1446 H 0.0394 0.68473 0.38217 0.0
H1447 H 0.04138 0.804 0.36945 0.0
H1448 H 0.09348 0.84594 0.3879 0.0
H1449 H 0.32007 0.9736 0.38724 0.0
H1450 H 0.2603 0.89953 0.3937 0.0
H1451 H 0.22184 0.9574 0.42595 0.0
H1452 H 0.28166 0.03127 0.4197 0.0
H1453 H 0.17366 0.86585 0.39344 0.0
H1454 H 0.17883 0.88786 0.45214 0.0
H1455 H 0.23486 0.92503 0.47009 0.0
H1456 H 0.33453 0.92243 0.44492 0.0
H1457 H 0.279 0.88467 0.42689 0.0
C1458 C 0.99438 0.73257 0.42681 0.0
C1459 C 0.99082 0.69962 0.43585 0.0
C1460 C 0.03564 0.76386 0.42148 0.0
C1461 C 0.0743 0.76258 0.42484 0.0
C1462 C 0.07059 0.72849 0.43338 0.0
C1463 C 0.02928 0.69731 0.43883 0.0
C1464 C 0.11873 0.79924 0.42045 0.0
C1465 C 0.15119 0.82242 0.43039 0.0
C1466 C 0.12778 0.81413 0.40685 0.0
C1467 C 0.09651 0.7891 0.39569 0.0
C1468 C 0.08099 0.74343 0.39392 0.0
C1469 C 0.05129 0.71989 0.38346 0.0
C1470 C 0.03701 0.74171 0.37466 0.0
C1471 C 0.05247 0.78714 0.37627 0.0
C1472 C 0.08216 0.81083 0.38672 0.0
C1473 C 0.29921 0.97056 0.3958 0.0
C1474 C 0.30575 0.00851 0.40295 0.0
C1475 C 0.26495 0.92814 0.39946 0.0
C1476 C 0.23676 0.92275 0.41039 0.0
C1477 C 0.24362 0.96053 0.41764 0.0
C1478 C 0.27783 1.00288 0.414 0.0
C1479 C 0.19869 0.87812 0.41387 0.0
C1480 C 0.16747 0.85358 0.40377 0.0
C1481 C 0.19122 0.86135 0.42726 0.0
C1482 C 0.22476 0.88369 0.43812 0.0
C1483 C 0.21264 0.895 0.45046 0.0
C1484 C 0.24434 0.91623 0.46064 0.0
C1485 C 0.28825 0.92619 0.45863 0.0
C1486 C 0.30054 0.91483 0.44644 0.0
C1487 C 0.26898 0.89357 0.43623 0.0
H1488 H 0.31273 0.94264 0.46653 0.0
H1489 H 0.01401 0.72343 0.36657 0.0
H1490 H 0.3538 0.32527 0.56386 0.0
H1491 H 0.36479 0.26486 0.57192 0.0
H1492 H 0.26424 0.23212 0.60248 0.0
H1493 H 0.25255 0.29196 0.59442 0.0
H1494 H 0.38409 0.23468 0.59561 0.0
H1495 H 0.19436 0.12231 0.60141 0.0
H1496 H 0.12551 0.11781 0.59274 0.0
H1497 H 0.19322 0.18373 0.55612 0.0
H1498 H 0.26225 0.18814 0.56451 0.0
H1499 H 0.32902 0.02832 0.62743 0.0
H1500 H 0.34111 0.10087 0.62031 0.0
H1501 H 0.28081 0.04548 0.58167 0.0
H1502 H 0.26726 0.97244 0.58891 0.0
H1503 H 0.24523 0.08881 0.59124 0.0
H1504 H 0.39597 0.12232 0.58595 0.0
H1505 H 0.46749 0.12875 0.59258 0.0
H1506 H 0.48206 0.21951 0.62438 0.0
H1507 H 0.41033 0.21316 0.61807 0.0
C1508 C 0.33479 0.30601 0.57252 0.0
C1509 C 0.30169 0.31301 0.57833 0.0
C1510 C 0.34122 0.27149 0.57713 0.0
C1511 C 0.31471 0.24344 0.58761 0.0
C1512 C 0.28457 0.25294 0.59423 0.0
C1513 C 0.27798 0.28727 0.58961 0.0
C1514 C 0.3145 0.20133 0.59051 0.0
C1515 C 0.3538 0.20272 0.59472 0.0
C1516 C 0.27525 0.15962 0.58895 0.0
C1517 C 0.2335 0.15584 0.58364 0.0
C1518 C 0.19444 0.13558 0.59148 0.0
C1519 C 0.15541 0.13312 0.58662 0.0
C1520 C 0.15501 0.15056 0.5739 0.0
C1521 C 0.19358 0.17034 0.56599 0.0
C1522 C 0.23267 0.17285 0.57079 0.0
C1523 C 0.31909 0.03172 0.61732 0.0
C1524 C 0.297 0.99448 0.60876 0.0
C1525 C 0.32617 0.07338 0.61323 0.0
C1526 C 0.31206 0.07889 0.60042 0.0
C1527 C 0.29182 0.04212 0.59164 0.0
C1528 C 0.28422 1.00036 0.59577 0.0
C1529 C 0.31482 0.12173 0.59659 0.0
C1530 C 0.27575 0.12056 0.59218 0.0
C1531 C 0.35459 0.16343 0.5977 0.0
C1532 C 0.39757 0.167 0.60159 0.0
C1533 C 0.41423 0.14336 0.59443 0.0
C1534 C 0.45485 0.14705 0.59812 0.0
C1535 C 0.47929 0.17453 0.60889 0.0
C1536 C 0.46311 0.19827 0.61603 0.0
C1537 C 0.42249 0.19467 0.61239 0.0
H1538 H 0.51084 0.17755 0.61168 0.0
H1539 H 0.1248 0.1487 0.57017 0.0
H1540 H 0.30854 0.32657 0.79722 0.0
H1541 H 0.24646 0.33807 0.79144 0.0
H1542 H 0.24778 0.29538 0.75053 0.0
H1543 H 0.30947 0.28302 0.75626 0.0
H1544 H 0.23516 0.37508 0.7544 0.0
H1545 H 0.17962 0.22078 0.77044 0.0
H1546 H 0.17716 0.16939 0.78812 0.0
H1547 H 0.13003 0.22903 0.81697 0.0
H1548 H 0.13268 0.28109 0.79948 0.0
H1549 H 0.03042 0.30707 0.72383 0.0
H1550 H 0.10077 0.32027 0.73312 0.0
H1551 H 0.0456 0.29837 0.7735 0.0
H1552 H 0.97338 0.28089 0.76391 0.0
H1553 H 0.08936 0.26177 0.77328 0.0
H1554 H 0.13204 0.40739 0.75951 0.0
H1555 H 0.13964 0.46856 0.74499 0.0
H1556 H 0.21601 0.4412 0.71631 0.0
H1557 H 0.20837 0.37944 0.73057 0.0
C1558 C 0.29632 0.32053 0.7869 0.0
C1559 C 0.3139 0.30379 0.77718 0.0
C1560 C 0.26074 0.32701 0.78365 0.0
C1561 C 0.2425 0.31741 0.77058 0.0
C1562 C 0.26153 0.30308 0.76066 0.0
C1563 C 0.29667 0.29592 0.76396 0.0
C1564 C 0.20122 0.31844 0.76751 0.0
C1565 C 0.20311 0.35028 0.75842 0.0
C1566 C 0.15998 0.28758 0.77338 0.0
C1567 C 0.1566 0.25496 0.78368 0.0
C1568 C 0.16881 0.22296 0.78056 0.0
C1569 C 0.16735 0.1937 0.79055 0.0
C1570 C 0.15343 0.19593 0.80366 0.0
C1571 C 0.14073 0.22728 0.80681 0.0
C1572 C 0.14214 0.25661 0.79686 0.0
C1573 C 0.03354 0.30587 0.73472 0.0
C1574 C 0.99667 0.29354 0.74318 0.0
C1575 C 0.07407 0.3138 0.74008 0.0
C1576 C 0.07949 0.31167 0.75413 0.0
C1577 C 0.04272 0.30043 0.76264 0.0
C1578 C 1.00151 0.29077 0.7572 0.0
C1579 C 0.12241 0.31788 0.75967 0.0
C1580 C 0.12109 0.28732 0.7693 0.0
C1581 C 0.16449 0.35131 0.75472 0.0
C1582 C 0.16938 0.38855 0.74609 0.0
C1583 C 0.15023 0.41423 0.75007 0.0
C1584 C 0.15457 0.44903 0.74189 0.0
C1585 C 0.17823 0.45871 0.72972 0.0
C1586 C 0.19769 0.43366 0.72574 0.0
C1587 C 0.19343 0.39879 0.73388 0.0
H1588 H 0.18154 0.48566 0.7234 0.0
H1589 H 0.15257 0.17343 0.8114 0.0
H1590 H 0.66248 0.02427 0.90295 0.0
H1591 H 0.71725 0.09711 0.91198 0.0
H1592 H 0.77584 0.03504 0.93565 0.0
H1593 H 0.72015 0.9626 0.92737 0.0
H1594 H 0.7873 0.1012 0.94871 0.0
H1595 H 0.81259 0.07875 0.90226 0.0
H1596 H 0.79329 0.06272 0.87808 0.0
H1597 H 0.77794 0.17778 0.87505 0.0
H1598 H 0.79688 0.19429 0.89926 0.0
H1599 H 0.0232 0.28223 0.92622 0.0
H1600 H 0.94967 0.22021 0.92089 0.0
H1601 H 0.89291 0.2587 0.95346 0.0
H1602 H 0.96683 0.32067 0.95903 0.0
H1603 H 0.87499 0.20979 0.91275 0.0
H1604 H 0.80788 0.16473 0.9681 0.0
H1605 H 0.83492 0.16431 0.99119 0.0
H1606 H 0.95045 0.16626 0.9747 0.0
H1607 H 0.92398 0.16633 0.95157 0.0
C1608 C 0.68621 0.02605 0.91039 0.0
C1609 C 0.68731 0.98758 0.91424 0.0
C1610 C 0.7178 0.0678 0.91546 0.0
C1611 C 0.7517 0.07189 0.92418 0.0
C1612 C 0.75036 0.03307 0.92889 0.0
C1613 C 0.71835 0.99142 0.92407 0.0
C1614 C 0.79103 0.11605 0.92742 0.0
C1615 C 0.80608 0.12525 0.94087 0.0
C1616 C 0.81655 0.14694 0.91716 0.0
C1617 C 0.80559 0.13744 0.90258 0.0
C1618 C 0.80487 0.10049 0.89644 0.0
C1619 C 0.794 0.09132 0.88274 0.0
C1620 C 0.78417 0.11908 0.87505 0.0
C1621 C 0.78543 0.15623 0.88103 0.0
C1622 C 0.79627 0.16554 0.89474 0.0
C1623 C 0.99511 0.27788 0.9322 0.0
C1624 C 1.00107 0.30631 0.94314 0.0
C1625 C 0.95294 0.24236 0.92911 0.0
C1626 C 0.91569 0.2344 0.93685 0.0
C1627 C 0.92121 0.26369 0.94747 0.0
C1628 C 0.9635 0.29921 0.95062 0.0
C1629 C 0.87162 0.1945 0.93402 0.0
C1630 C 0.85563 0.1863 0.92066 0.0
C1631 C 0.84667 0.16316 0.94423 0.0
C1632 C 0.86417 0.1661 0.95812 0.0
C1633 C 0.83916 0.16531 0.96942 0.0
C1634 C 0.85429 0.16492 0.98251 0.0
C1635 C 0.8942 0.16492 0.98441 0.0
C1636 C 0.91949 0.16614 0.97323 0.0
C1637 C 0.90453 0.16654 0.96013 0.0
H1638 H 0.90572 0.16432 0.99455 0.0
H1639 H 0.77572 0.1119 0.86445 0.0
H1640 H 0.63333 0.98462 0.10884 0.0
H1641 H 0.61443 0.90894 0.10239 0.0
H1642 H 0.74617 0.96013 0.08564 0.0
H1643 H 0.76365 0.03535 0.09104 0.0
H1644 H 0.69818 0.89298 0.07239 0.0
H1645 H 0.71448 0.92215 0.12001 0.0
H1646 H 0.69733 0.94512 0.14175 0.0
H1647 H 0.56418 0.83385 0.14036 0.0
H1648 H 0.58021 0.81079 0.11839 0.0
H1649 H 0.7493 0.72784 0.09381 0.0
H1650 H 0.73342 0.78619 0.10054 0.0
H1651 H 0.60926 0.72022 0.07881 0.0
H1652 H 0.62513 0.66195 0.07173 0.0
H1653 H 0.64367 0.78791 0.11122 0.0
H1654 H 0.64271 0.77474 0.05818 0.0
H1655 H 0.67813 0.75209 0.04056 0.0
H1656 H 0.80682 0.84035 0.05746 0.0
H1657 H 0.772 0.86255 0.07535 0.0
C1658 C 0.65761 0.9797 0.10337 0.0
C1659 C 0.70005 0.01592 0.10054 0.0
C1660 C 0.647 0.93639 0.09981 0.0
C1661 C 0.67938 0.92839 0.09394 0.0
C1662 C 0.72052 0.965 0.0902 0.0
C1663 C 0.73055 0.00827 0.09333 0.0
C1664 C 0.67261 0.88246 0.09286 0.0
C1665 C 0.68544 0.87001 0.08085 0.0
C1666 C 0.65756 0.85243 0.104 0.0
C1667 C 0.64833 0.86512 0.11746 0.0
C1668 C 0.68143 0.90275 0.12429 0.0
C1669 C 0.67184 0.91596 0.13661 0.0
C1670 C 0.62958 0.89122 0.14238 0.0
C1671 C 0.59685 0.8531 0.13585 0.0
C1672 C 0.60612 0.84 0.12344 0.0
C1673 C 0.71792 0.72484 0.09078 0.0
C1674 C 0.68887 0.69061 0.082 0.0
C1675 C 0.70879 0.75814 0.09474 0.0
C1676 C 0.67027 0.75749 0.09014 0.0
C1677 C 0.6391 0.72112 0.0825 0.0
C1678 C 0.64841 0.68803 0.07839 0.0
C1679 C 0.66785 0.79884 0.09074 0.0
C1680 C 0.65437 0.81055 0.10267 0.0
C1681 C 0.68402 0.82907 0.07981 0.0
C1682 C 0.70486 0.8204 0.068 0.0
C1683 C 0.67858 0.78956 0.05802 0.0
C1684 C 0.69848 0.77639 0.04812 0.0
C1685 C 0.74465 0.79449 0.04799 0.0
C1686 C 0.77106 0.82621 0.05763 0.0
C1687 C 0.75128 0.83909 0.06764 0.0
H1688 H 0.76013 0.78451 0.04031 0.0
H1689 H 0.62233 0.90139 0.15197 0.0
H1690 H 0.71882 0.73243 0.25089 0.0
H1691 H 0.77771 0.71721 0.24392 0.0
H1692 H 0.77161 0.65921 0.28311 0.0
H1693 H 0.71109 0.67134 0.28965 0.0
H1694 H 0.85497 0.7529 0.25292 0.0
H1695 H 0.81773 0.59675 0.28419 0.0
H1696 H 0.75275 0.52671 0.29189 0.0
H1697 H 0.67715 0.52928 0.25786 0.0
H1698 H 0.74178 0.59916 0.2499 0.0
H1699 H 0.05437 0.7556 0.26025 0.0
H1700 H 0.98123 0.74169 0.26759 0.0
H1701 H 0.91823 0.63508 0.23856 0.0
H1702 H 0.99103 0.64818 0.23128 0.0
H1703 H 0.86717 0.61866 0.26186 0.0
H1704 H 0.94179 0.73396 0.22863 0.0
H1705 H 1.00561 0.80229 0.21951 0.0
H1706 H 1.00125 0.87639 0.25374 0.0
H1707 H 0.93772 0.80832 0.26316 0.0
C1708 C 0.7291 0.71503 0.25779 0.0
C1709 C 0.71011 0.70273 0.27074 0.0
C1710 C 0.76295 0.70661 0.25386 0.0
C1711 C 0.77913 0.68673 0.26293 0.0
C1712 C 0.75908 0.67327 0.27572 0.0
C1713 C 0.72442 0.68044 0.27948 0.0
C1714 C 0.81985 0.68451 0.25962 0.0
C1715 C 0.85722 0.72329 0.25479 0.0
C1716 C 0.82326 0.646 0.26201 0.0
C1717 C 0.78457 0.6033 0.26649 0.0
C1718 C 0.78736 0.58219 0.27829 0.0
C1719 C 0.75055 0.54258 0.28272 0.0
C1720 C 0.71085 0.52358 0.27537 0.0
C1721 C 0.7079 0.54409 0.26356 0.0
C1722 C 0.74459 0.58374 0.25909 0.0
C1723 C 0.02498 0.7283 0.25571 0.0
C1724 C 0.02859 0.7036 0.24499 0.0
C1725 C 0.98319 0.72046 0.25989 0.0
C1726 C 0.94446 0.68799 0.2534 0.0
C1727 C 0.94773 0.66043 0.24365 0.0
C1728 C 0.98948 0.66817 0.23946 0.0
C1729 C 0.90167 0.68703 0.25538 0.0
C1730 C 0.8643 0.64791 0.25994 0.0
C1731 C 0.89775 0.7248 0.25244 0.0
C1732 C 0.93525 0.766 0.24665 0.0
C1733 C 0.95458 0.76479 0.23424 0.0
C1734 C 0.9907 0.80345 0.22902 0.0
C1735 C 0.00755 0.84362 0.23606 0.0
C1736 C 0.98819 0.84524 0.24831 0.0
C1737 C 0.95209 0.80664 0.25359 0.0
H1738 H 0.03554 0.87351 0.23201 0.0
H1739 H 0.68237 0.49297 0.27883 0.0
H1740 H 0.76181 0.55671 0.44265 0.0
H1741 H 0.69297 0.4908 0.43556 0.0
H1742 H 0.76717 0.42622 0.42448 0.0
H1743 H 0.83636 0.49221 0.43163 0.0
H1744 H 0.70175 0.40806 0.40644 0.0
H1745 H 0.71655 0.40647 0.45431 0.0
H1746 H 0.72481 0.43161 0.47801 0.0
H1747 H 0.60193 0.43287 0.47537 0.0
H1748 H 0.59351 0.40892 0.45156 0.0
H1749 H 0.5452 0.18298 0.40983 0.0
H1750 H 0.60475 0.2541 0.41823 0.0
H1751 H 0.51577 0.30702 0.41778 0.0
H1752 H 0.45602 0.23582 0.40915 0.0
H1753 H 0.58398 0.33351 0.44132 0.0
H1754 H 0.57257 0.33451 0.39218 0.0
H1755 H 0.56617 0.30343 0.36927 0.0
H1756 H 0.68452 0.29607 0.37581 0.0
H1757 H 0.69193 0.3274 0.39873 0.0
C1758 C 0.76369 0.52888 0.43844 0.0
C1759 C 0.80457 0.52956 0.43779 0.0
C1760 C 0.72418 0.49104 0.4345 0.0
C1761 C 0.72476 0.4532 0.42976 0.0
C1762 C 0.76589 0.45493 0.42821 0.0
C1763 C 0.80544 0.49272 0.43224 0.0
C1764 C 0.68248 0.41123 0.42696 0.0
C1765 C 0.67614 0.39184 0.4141 0.0
C1766 C 0.64868 0.39008 0.43691 0.0
C1767 C 0.6547 0.40646 0.45107 0.0
C1768 C 0.69165 0.41282 0.45871 0.0
C1769 C 0.69628 0.4267 0.47219 0.0
C1770 C 0.66387 0.4337 0.47822 0.0
C1771 C 0.62698 0.42732 0.47073 0.0
C1772 C 0.62233 0.41376 0.45721 0.0
C1773 C 0.53772 0.20915 0.41205 0.0
C1774 C 0.49564 0.20346 0.409 0.0
C1775 C 0.57192 0.24989 0.41673 0.0
C1776 C 0.56479 0.28591 0.41844 0.0
C1777 C 0.52183 0.27947 0.41654 0.0
C1778 C 0.48742 0.23846 0.41177 0.0
C1779 C 0.60352 0.33085 0.42085 0.0
C1780 C 0.6093 0.35049 0.43363 0.0
C1781 C 0.63717 0.352 0.41093 0.0
C1782 C 0.6326 0.33295 0.3972 0.0
C1783 C 0.59703 0.32595 0.38877 0.0
C1784 C 0.59325 0.30837 0.37578 0.0
C1785 C 0.62466 0.29748 0.37113 0.0
C1786 C 0.66015 0.30443 0.37943 0.0
C1787 C 0.66428 0.32226 0.3924 0.0
H1788 H 0.62159 0.28383 0.36107 0.0
H1789 H 0.66737 0.4441 0.48869 0.0
H1790 H 0.20178 0.75697 0.60952 0.0
H1791 H 0.1936 0.68821 0.60021 0.0
H1792 H 0.3274 0.76071 0.58458 0.0
H1793 H 0.33614 0.82947 0.59446 0.0
H1794 H 0.26093 0.6835 0.56785 0.0
H1795 H 0.31963 0.72847 0.61315 0.0
H1796 H 0.31874 0.74902 0.63697 0.0
H1797 H 0.20344 0.62133 0.64438 0.0
H1798 H 0.20191 0.60118 0.62043 0.0
H1799 H 0.33147 0.51341 0.58617 0.0
H1800 H 0.32561 0.57892 0.59219 0.0
H1801 H 0.19827 0.52152 0.57222 0.0
H1802 H 0.20342 0.45571 0.56642 0.0
H1803 H 0.26081 0.59111 0.60625 0.0
H1804 H 0.20275 0.60878 0.55316 0.0
H1805 H 0.20801 0.58946 0.52942 0.0
H1806 H 0.33067 0.59258 0.53831 0.0
H1807 H 0.32637 0.61233 0.56203 0.0
C1808 C 0.22863 0.7588 0.60356 0.0
C1809 C 0.26936 0.79875 0.60261 0.0
C1810 C 0.22405 0.71927 0.59831 0.0
C1811 C 0.26009 0.7193 0.59186 0.0
C1812 C 0.29913 0.76001 0.58951 0.0
C1813 C 0.30397 0.79936 0.59505 0.0
C1814 C 0.25973 0.67689 0.58954 0.0
C1815 C 0.26041 0.66307 0.57624 0.0
C1816 C 0.2599 0.65064 0.60052 0.0
C1817 C 0.2601 0.66366 0.61487 0.0
C1818 C 0.29336 0.70522 0.61975 0.0
C1819 C 0.29333 0.71681 0.63331 0.0
C1820 C 0.2609 0.68665 0.64219 0.0
C1821 C 0.22841 0.64488 0.63751 0.0
C1822 C 0.22772 0.63351 0.6239 0.0
C1823 C 0.30174 0.5143 0.58337 0.0
C1824 C 0.26806 0.47955 0.57577 0.0
C1825 C 0.2985 0.55177 0.58676 0.0
C1826 C 0.26186 0.55534 0.58244 0.0
C1827 C 0.22706 0.51962 0.5755 0.0
C1828 C 0.22996 0.48191 0.57228 0.0
C1829 C 0.26111 0.5973 0.5846 0.0
C1830 C 0.26049 0.61116 0.59787 0.0
C1831 C 0.26122 0.62363 0.57363 0.0
C1832 C 0.264 0.61166 0.55939 0.0
C1833 C 0.23086 0.60542 0.55003 0.0
C1834 C 0.23369 0.59441 0.53658 0.0
C1835 C 0.26972 0.58991 0.53237 0.0
C1836 C 0.3028 0.59607 0.5416 0.0
C1837 C 0.30012 0.60706 0.55505 0.0
H1838 H 0.27215 0.5818 0.52194 0.0
H1839 H 0.26103 0.69561 0.6527 0.0
H1840 H 0.51937 0.33589 0.76125 0.0
H1841 H 0.57604 0.32373 0.75073 0.0
H1842 H 0.5064 0.18728 0.76435 0.0
H1843 H 0.45095 0.20028 0.77535 0.0
H1844 H 0.58684 0.22472 0.77287 0.0
H1845 H 0.52468 0.21609 0.72967 0.0
H1846 H 0.49225 0.23677 0.71078 0.0
H1847 H 0.61393 0.36137 0.7065 0.0
H1848 H 0.64692 0.34177 0.7255 0.0
H1849 H 0.76251 0.19767 0.74288 0.0
H1850 H 0.69006 0.19002 0.74832 0.0
H1851 H 0.74711 0.33219 0.74529 0.0
H1852 H 0.82002 0.34033 0.74046 0.0
H1853 H 0.66706 0.28041 0.72931 0.0
H1854 H 0.72194 0.29069 0.77522 0.0
H1855 H 0.75453 0.26726 0.79338 0.0
H1856 H 0.64341 0.13405 0.79109 0.0
H1857 H 0.61037 0.15674 0.77288 0.0
C1858 C 0.51494 0.30268 0.76135 0.0
C1859 C 0.4798 0.26859 0.76869 0.0
C1860 C 0.5475 0.29572 0.75538 0.0
C1861 C 0.54556 0.25442 0.75664 0.0
C1862 C 0.50859 0.21935 0.76314 0.0
C1863 C 0.47619 0.22649 0.7692 0.0
C1864 C 0.58514 0.25032 0.75309 0.0
C1865 C 0.6036 0.2359 0.76319 0.0
C1866 C 0.60779 0.26554 0.74057 0.0
C1867 C 0.5882 0.27754 0.72909 0.0
C1868 C 0.54444 0.24805 0.72477 0.0
C1869 C 0.52596 0.25956 0.71403 0.0
C1870 C 0.55099 0.30039 0.70746 0.0
C1871 C 0.59458 0.32975 0.71161 0.0
C1872 C 0.61322 0.31842 0.72235 0.0
C1873 C 0.75986 0.22737 0.74373 0.0
C1874 C 0.79705 0.2696 0.74134 0.0
C1875 C 0.71832 0.22289 0.74664 0.0
C1876 C 0.71305 0.26046 0.74691 0.0
C1877 C 0.75039 0.30275 0.74495 0.0
C1878 C 0.79213 0.30736 0.74235 0.0
C1879 C 0.66859 0.25579 0.74917 0.0
C1880 C 0.64949 0.26857 0.73885 0.0
C1881 C 0.645 0.23859 0.76138 0.0
C1882 C 0.66393 0.22529 0.77265 0.0
C1883 C 0.70456 0.25639 0.77859 0.0
C1884 C 0.72309 0.24328 0.78889 0.0
C1885 C 0.70114 0.19921 0.79338 0.0
C1886 C 0.66041 0.16821 0.78764 0.0
C1887 C 0.64171 0.18119 0.77734 0.0
H1888 H 0.71584 0.18926 0.80128 0.0
H1889 H 0.53662 0.30924 0.69915 0.0
H1890 H 0.48242 0.8018 0.88846 0.0
H1891 H 0.41538 0.73109 0.89311 0.0
H1892 H 0.48156 0.70827 0.92655 0.0
H1893 H 0.55007 0.7786 0.92133 0.0
H1894 H 0.43167 0.63267 0.9146 0.0
H1895 H 0.40548 0.74632 0.93109 0.0
H1896 H 0.4018 0.81546 0.93074 0.0
H1897 H 0.30503 0.76262 0.89881 0.0
H1898 H 0.30858 0.69332 0.89885 0.0
H1899 H 0.23673 0.52944 0.95741 0.0
H1900 H 0.30606 0.57994 0.94608 0.0
H1901 H 0.2457 0.52586 0.90739 0.0
H1902 H 0.17577 0.4723 0.91894 0.0
H1903 H 0.28958 0.63349 0.91897 0.0
H1904 H 0.31365 0.5119 0.90637 0.0
H1905 H 0.31446 0.44304 0.91192 0.0
H1906 H 0.41387 0.51281 0.94232 0.0
H1907 H 0.41301 0.58193 0.93714 0.0
C1908 C 0.48249 0.78193 0.89691 0.0
C1909 C 0.52089 0.79609 0.9048 0.0
C1910 C 0.44418 0.74141 0.89954 0.0
C1911 C 0.44286 0.71462 0.91039 0.0
C1912 C 0.4816 0.72839 0.91816 0.0
C1913 C 0.52052 0.7687 0.9153 0.0
C1914 C 0.40055 0.67317 0.91374 0.0
C1915 C 0.40067 0.63297 0.91554 0.0
C1916 C 0.3598 0.67316 0.91497 0.0
C1917 C 0.35772 0.71486 0.91486 0.0
C1918 C 0.38371 0.7496 0.92391 0.0
C1919 C 0.3816 0.78878 0.92379 0.0
C1920 C 0.35332 0.79349 0.91473 0.0
C1921 C 0.327 0.75896 0.9058 0.0
C1922 C 0.32903 0.71971 0.90587 0.0
C1923 C 0.23843 0.52711 0.94651 0.0
C1924 C 0.20102 0.49672 0.93903 0.0
C1925 C 0.27813 0.55606 0.94007 0.0
C1926 C 0.28097 0.55639 0.92596 0.0
C1927 C 0.24411 0.5255 0.91835 0.0
C1928 C 0.20438 0.4951 0.9249 0.0
C1929 C 0.32076 0.59338 0.91957 0.0
C1930 C 0.32041 0.63311 0.91751 0.0
C1931 C 0.36124 0.59313 0.9186 0.0
C1932 C 0.3631 0.55207 0.9214 0.0
C1933 C 0.33549 0.51252 0.9143 0.0
C1934 C 0.33596 0.47343 0.91737 0.0
C1935 C 0.36422 0.47356 0.92746 0.0
C1936 C 0.39209 0.51279 0.93448 0.0
C1937 C 0.39165 0.55195 0.93147 0.0
H1938 H 0.36453 0.44326 0.92982 0.0
H1939 H 0.3517 0.82384 0.91466 0.0
H1940 H 0.80144 0.24811 0.10447 0.0
H1941 H 0.80326 0.3163 0.09708 0.0
H1942 H 0.66125 0.24258 0.09076 0.0
H1943 H 0.65939 0.17416 0.09786 0.0
H1944 H 0.70205 0.30796 0.07193 0.0
H1945 H 0.70943 0.29403 0.12083 0.0
H1946 H 0.74291 0.28867 0.14227 0.0
H1947 H 0.86037 0.41386 0.13389 0.0
H1948 H 0.82845 0.41903 0.11226 0.0
H1949 H 0.63743 0.46839 0.08018 0.0
H1950 H 0.64696 0.40499 0.08583 0.0
H1951 H 0.78923 0.49179 0.08749 0.0
H1952 H 0.77998 0.55535 0.08172 0.0
H1953 H 0.75507 0.42406 0.10767 0.0
H1954 H 0.75124 0.44156 0.06005 0.0
H1955 H 0.71996 0.45317 0.03909 0.0
H1956 H 0.60106 0.32685 0.04452 0.0
H1957 H 0.63103 0.31511 0.06579 0.0
C1958 C 0.7708 0.24618 0.10114 0.0
C1959 C 0.73016 0.20584 0.1019 0.0
C1960 C 0.77184 0.28528 0.09701 0.0
C1961 C 0.73222 0.2848 0.09369 0.0
C1962 C 0.6922 0.24388 0.09337 0.0
C1963 C 0.69117 0.20475 0.09744 0.0
C1964 C 0.73151 0.32699 0.09177 0.0
C1965 C 0.71339 0.33313 0.07979 0.0
C1966 C 0.74743 0.36063 0.10186 0.0
C1967 C 0.76676 0.35664 0.11482 0.0
C1968 C 0.74268 0.32006 0.12348 0.0
C1969 C 0.76143 0.31701 0.13568 0.0
C1970 C 0.80387 0.35074 0.13944 0.0
C1971 C 0.82771 0.38747 0.13098 0.0
C1972 C 0.80936 0.39042 0.11872 0.0
C1973 C 0.67064 0.47422 0.08212 0.0
C1974 C 0.708 0.51678 0.08042 0.0
C1975 C 0.67606 0.43791 0.08525 0.0
C1976 C 0.71884 0.44363 0.08684 0.0
C1977 C 0.75596 0.48666 0.08625 0.0
C1978 C 0.7506 0.52293 0.08299 0.0
C1979 C 0.72489 0.40434 0.08803 0.0
C1980 C 0.74403 0.39889 0.09981 0.0
C1981 C 0.71055 0.37172 0.07771 0.0
C1982 C 0.69314 0.37772 0.06463 0.0
C1983 C 0.71821 0.41648 0.05687 0.0
C1984 C 0.70066 0.42317 0.04496 0.0
C1985 C 0.65842 0.39092 0.04053 0.0
C1986 C 0.63371 0.35187 0.048 0.0
C1987 C 0.65093 0.34521 0.06 0.0
H1988 H 0.64498 0.39605 0.03127 0.0
H1989 H 0.8181 0.34861 0.14895 0.0
H1990 H 0.52922 0.77354 0.29541 0.0
H1991 H 0.47358 0.78893 0.28606 0.0
H1992 H 0.49477 0.75066 0.24641 0.0
H1993 H 0.55284 0.73712 0.25577 0.0
H1994 H 0.46678 0.81897 0.24689 0.0
H1995 H 0.42252 0.67195 0.2643 0.0
H1996 H 0.42234 0.62045 0.28152 0.0
H1997 H 0.36573 0.67027 0.31056 0.0
H1998 H 0.36627 0.7226 0.29355 0.0
H1999 H 0.2477 0.72947 0.22165 0.0
H2000 H 0.32078 0.74289 0.22884 0.0
H2001 H 0.29072 0.76107 0.26999 0.0
H2002 H 0.21689 0.74728 0.26268 0.0
H2003 H 0.32544 0.70691 0.26862 0.0
H2004 H 0.36343 0.84932 0.25143 0.0
H2005 H 0.36453 0.90317 0.23497 0.0
H2006 H 0.43245 0.86521 0.20623 0.0
H2007 H 0.4311 0.81042 0.22245 0.0
C2008 C 0.52368 0.77048 0.28458 0.0
C2009 C 0.54517 0.75415 0.27628 0.0
C2010 C 0.49169 0.77911 0.27926 0.0
C2011 C 0.47943 0.76999 0.26563 0.0
C2012 C 0.50383 0.75783 0.25698 0.0
C2013 C 0.53689 0.7501 0.2623 0.0
C2014 C 0.43648 0.76536 0.26128 0.0
C2015 C 0.43576 0.79415 0.25147 0.0
C2016 C 0.39621 0.73366 0.26755 0.0
C2017 C 0.39476 0.7014 0.27768 0.0
C2018 C 0.41025 0.67207 0.27438 0.0
C2019 C 0.41009 0.64274 0.2841 0.0
C2020 C 0.39411 0.64215 0.29714 0.0
C2021 C 0.37813 0.67079 0.30046 0.0
C2022 C 0.37832 0.70026 0.29078 0.0
C2023 C 0.25685 0.73635 0.23223 0.0
C2024 C 0.22705 0.73719 0.24168 0.0
C2025 C 0.29862 0.74435 0.2363 0.0
C2026 C 0.31145 0.75361 0.24991 0.0
C2027 C 0.28146 0.75417 0.25942 0.0
C2028 C 0.23946 0.74621 0.2553 0.0
C2029 C 0.3554 0.76053 0.2542 0.0
C2030 C 0.35633 0.73191 0.26401 0.0
C2031 C 0.39566 0.79247 0.24794 0.0
C2032 C 0.39687 0.8255 0.23814 0.0
C2033 C 0.3783 0.85216 0.24156 0.0
C2034 C 0.37901 0.88288 0.23228 0.0
C2035 C 0.39857 0.88758 0.21958 0.0
C2036 C 0.4174 0.86152 0.2161 0.0
C2037 C 0.41668 0.83063 0.22534 0.0
H2038 H 0.3992 0.91152 0.21247 0.0
H2039 H 0.39405 0.61944 0.30466 0.0
loop_
_geom_bond_atom_site_label_1
_geom_bond_atom_site_label_2
_geom_bond_distance
_geom_bond_site_symmetry_2
_ccdc_geom_bond_type
Tb0 O3 2.453 . S
Tb0 O4 2.596 . S
Tb0 O5 2.374 . S
Tb0 O13 2.343 . S
Tb0 O15 2.353 . S
Tb0 O17 2.427 . S
Tb0 O18 2.513 . S
C1 O5 1.251 . S
C1 O7 1.263 . S
Tb2 O4 2.343 . S
Tb2 O7 2.353 . S
Tb2 O10 2.427 . S
Tb2 O11 2.513 . S
Tb2 O12 2.453 . S
Tb2 O13 2.596 . S
Tb2 O14 2.374 . S
O3 Tb0 2.453 . S
O3 C19 1.245 . S
O4 Tb0 2.596 . S
O4 Tb2 2.343 . S
O4 C19 1.259 . S
O5 Tb0 2.374 . S
O5 C1 1.251 . S
C6 O10 1.275 . S
C6 O11 1.246 . S
O7 C1 1.263 . S
O7 Tb2 2.353 . S
C8 O12 1.245 . S
C8 O13 1.259 . S
C9 O14 1.250 . S
C9 O15 1.263 . S
O10 Tb2 2.427 . S
O10 C6 1.275 . S
O11 Tb2 2.513 . S
O11 C6 1.246 . S
O12 Tb2 2.453 . S
O12 C8 1.245 . S
O13 Tb0 2.343 . S
O13 Tb2 2.596 . S
O13 C8 1.259 . S
O14 Tb2 2.374 . S
O14 C9 1.250 . S
O15 Tb0 2.353 . S
O15 C9 1.263 . S
C16 O17 1.275 . S
C16 O18 1.246 . S
O17 Tb0 2.427 . S
O17 C16 1.275 . S
O18 Tb0 2.513 . S
O18 C16 1.246 . S
C19 O3 1.245 . S
C19 O4 1.259 . S
Tb20 O23 2.453 . S
Tb20 O24 2.596 . S
Tb20 O25 2.374 . S
Tb20 O33 2.343 . S
Tb20 O35 2.353 . S
Tb20 O37 2.427 . S
Tb20 O38 2.513 . S
C21 O25 1.251 . S
C21 O27 1.263 . S
Tb22 O24 2.343 . S
Tb22 O27 2.353 . S
Tb22 O30 2.427 . S
Tb22 O31 2.513 . S
Tb22 O32 2.453 . S
Tb22 O33 2.596 . S
Tb22 O34 2.374 . S
O23 Tb20 2.453 . S
O23 C39 1.245 . S
O24 Tb20 2.596 . S
O24 Tb22 2.343 . S
O24 C39 1.259 . S
O25 Tb20 2.374 . S
O25 C21 1.251 . S
C26 O30 1.275 . S
C26 O31 1.246 . S
O27 C21 1.263 . S
O27 Tb22 2.353 . S
C28 O32 1.245 . S
C28 O33 1.259 . S
C29 O34 1.250 . S
C29 O35 1.263 . S
O30 Tb22 2.427 . S
O30 C26 1.275 . S
O31 Tb22 2.513 . S
O31 C26 1.246 . S
O32 Tb22 2.453 . S
O32 C28 1.245 . S
O33 Tb20 2.343 . S
O33 Tb22 2.596 . S
O33 C28 1.259 . S
O34 Tb22 2.374 . S
O34 C29 1.250 . S
O35 Tb20 2.353 . S
O35 C29 1.263 . S
C36 O37 1.275 . S
C36 O38 1.246 . S
O37 Tb20 2.427 . S
O37 C36 1.275 . S
O38 Tb20 2.513 . S
O38 C36 1.246 . S
C39 O23 1.245 . S
C39 O24 1.259 . S
Tb40 O43 2.453 . S
Tb40 O44 2.596 . S
Tb40 O45 2.374 . S
Tb40 O53 2.343 . S
Tb40 O55 2.353 . S
Tb40 O57 2.427 . S
Tb40 O58 2.513 . S
C41 O45 1.251 . S
C41 O47 1.263 . S
Tb42 O44 2.343 . S
Tb42 O47 2.353 . S
Tb42 O50 2.427 . S
Tb42 O51 2.513 . S
Tb42 O52 2.453 . S
Tb42 O53 2.596 . S
Tb42 O54 2.374 . S
O43 Tb40 2.453 . S
O43 C59 1.245 . S
O44 Tb40 2.596 . S
O44 Tb42 2.343 . S
O44 C59 1.259 . S
O45 Tb40 2.374 . S
O45 C41 1.251 . S
C46 O50 1.275 . S
C46 O51 1.246 . S
O47 C41 1.263 . S
O47 Tb42 2.353 . S
C48 O52 1.245 . S
C48 O53 1.259 . S
C49 O54 1.250 . S
C49 O55 1.263 . S
O50 Tb42 2.427 . S
O50 C46 1.275 . S
O51 Tb42 2.513 . S
O51 C46 1.246 . S
O52 Tb42 2.453 . S
O52 C48 1.245 . S
O53 Tb40 2.343 . S
O53 Tb42 2.596 . S
O53 C48 1.259 . S
O54 Tb42 2.374 . S
O54 C49 1.250 . S
O55 Tb40 2.353 . S
O55 C49 1.263 . S
C56 O57 1.275 . S
C56 O58 1.246 . S
O57 Tb40 2.427 . S
O57 C56 1.275 . S
O58 Tb40 2.513 . S
O58 C56 1.246 . S
C59 O43 1.245 . S
C59 O44 1.259 . S
Tb60 O63 2.453 . S
Tb60 O64 2.596 . S
Tb60 O65 2.374 . S
Tb60 O73 2.343 . S
Tb60 O75 2.353 . S
Tb60 O77 2.427 . S
Tb60 O78 2.513 . S
C61 O65 1.251 . S
C61 O67 1.263 . S
Tb62 O64 2.343 . S
Tb62 O67 2.353 . S
Tb62 O70 2.427 . S
Tb62 O71 2.513 . S
Tb62 O72 2.453 . S
Tb62 O73 2.596 . S
Tb62 O74 2.374 . S
O63 Tb60 2.453 . S
O63 C79 1.245 . S
O64 Tb60 2.596 . S
O64 Tb62 2.343 . S
O64 C79 1.259 . S
O65 Tb60 2.374 . S
O65 C61 1.251 . S
C66 O70 1.275 . S
C66 O71 1.246 . S
O67 C61 1.263 . S
O67 Tb62 2.353 . S
C68 O72 1.245 . S
C68 O73 1.259 . S
C69 O74 1.250 . S
C69 O75 1.263 . S
O70 Tb62 2.427 . S
O70 C66 1.275 . S
O71 Tb62 2.513 . S
O71 C66 1.246 . S
O72 Tb62 2.453 . S
O72 C68 1.245 . S
O73 Tb60 2.343 . S
O73 Tb62 2.596 . S
O73 C68 1.259 . S
O74 Tb62 2.374 . S
O74 C69 1.250 . S
O75 Tb60 2.353 . S
O75 C69 1.263 . S
C76 O77 1.275 . S
C76 O78 1.246 . S
O77 Tb60 2.427 . S
O77 C76 1.275 . S
O78 Tb60 2.513 . S
O78 C76 1.246 . S
C79 O63 1.245 . S
C79 O64 1.259 . S
Tb80 O83 2.453 . S
Tb80 O84 2.596 . S
Tb80 O85 2.374 . S
Tb80 O93 2.343 . S
Tb80 O95 2.353 . S
Tb80 O97 2.427 . S
Tb80 O98 2.513 . S
C81 O85 1.251 . S
C81 O87 1.263 . S
Tb82 O84 2.343 . S
Tb82 O87 2.353 . S
Tb82 O90 2.427 . S
Tb82 O91 2.513 . S
Tb82 O92 2.453 . S
Tb82 O93 2.596 . S
Tb82 O94 2.374 . S
O83 Tb80 2.453 . S
O83 C99 1.245 . S
O84 Tb80 2.596 . S
O84 Tb82 2.343 . S
O84 C99 1.259 . S
O85 Tb80 2.374 . S
O85 C81 1.251 . S
C86 O90 1.275 . S
C86 O91 1.246 . S
O87 C81 1.263 . S
O87 Tb82 2.353 . S
C88 O92 1.245 . S
C88 O93 1.259 . S
C89 O94 1.250 . S
C89 O95 1.263 . S
O90 Tb82 2.427 . S
O90 C86 1.275 . S
O91 Tb82 2.513 . S
O91 C86 1.246 . S
O92 Tb82 2.453 . S
O92 C88 1.245 . S
O93 Tb80 2.343 . S
O93 Tb82 2.596 . S
O93 C88 1.259 . S
O94 Tb82 2.374 . S
O94 C89 1.250 . S
O95 Tb80 2.353 . S
O95 C89 1.263 . S
C96 O97 1.275 . S
C96 O98 1.246 . S
O97 Tb80 2.427 . S
O97 C96 1.275 . S
O98 Tb80 2.513 . S
O98 C96 1.246 . S
C99 O83 1.245 . S
C99 O84 1.259 . S
Tb100 O103 2.453 . S
Tb100 O104 2.596 . S
Tb100 O105 2.374 . S
Tb100 O113 2.343 . S
Tb100 O115 2.353 . S
Tb100 O117 2.427 . S
Tb100 O118 2.513 . S
C101 O105 1.251 . S
C101 O107 1.263 . S
Tb102 O104 2.343 . S
Tb102 O107 2.353 . S
Tb102 O110 2.427 . S
Tb102 O111 2.513 . S
Tb102 O112 2.453 . S
Tb102 O113 2.596 . S
Tb102 O114 2.374 . S
O103 Tb100 2.453 . S
O103 C119 1.245 . S
O104 Tb100 2.596 . S
O104 Tb102 2.343 . S
O104 C119 1.259 . S
O105 Tb100 2.374 . S
O105 C101 1.251 . S
C106 O110 1.275 . S
C106 O111 1.246 . S
O107 C101 1.263 . S
O107 Tb102 2.353 . S
C108 O112 1.245 . S
C108 O113 1.259 . S
C109 O114 1.250 . S
C109 O115 1.263 . S
O110 Tb102 2.427 . S
O110 C106 1.275 . S
O111 Tb102 2.513 . S
O111 C106 1.246 . S
O112 Tb102 2.453 . S
O112 C108 1.245 . S
O113 Tb100 2.343 . S
O113 Tb102 2.596 . S
O113 C108 1.259 . S
O114 Tb102 2.374 . S
O114 C109 1.250 . S
O115 Tb100 2.353 . S
O115 C109 1.263 . S
C116 O117 1.275 . S
C116 O118 1.246 . S
O117 Tb100 2.427 . S
O117 C116 1.275 . S
O118 Tb100 2.513 . S
O118 C116 1.246 . S
C119 O103 1.245 . S
C119 O104 1.259 . S
Tb120 O123 2.453 . S
Tb120 O124 2.596 . S
Tb120 O125 2.374 . S
Tb120 O133 2.343 . S
Tb120 O135 2.353 . S
Tb120 O137 2.427 . S
Tb120 O138 2.513 . S
C121 O125 1.251 . S
C121 O127 1.263 . S
Tb122 O124 2.343 . S
Tb122 O127 2.353 . S
Tb122 O130 2.427 . S
Tb122 O131 2.513 . S
Tb122 O132 2.453 . S
Tb122 O133 2.596 . S
Tb122 O134 2.374 . S
O123 Tb120 2.453 . S
O123 C139 1.245 . S
O124 Tb120 2.596 . S
O124 Tb122 2.343 . S
O124 C139 1.259 . S
O125 Tb120 2.374 . S
O125 C121 1.251 . S
C126 O130 1.275 . S
C126 O131 1.246 . S
O127 C121 1.263 . S
O127 Tb122 2.353 . S
C128 O132 1.245 . S
C128 O133 1.259 . S
C129 O134 1.250 . S
C129 O135 1.263 . S
O130 Tb122 2.427 . S
O130 C126 1.275 . S
O131 Tb122 2.513 . S
O131 C126 1.246 . S
O132 Tb122 2.453 . S
O132 C128 1.245 . S
O133 Tb120 2.343 . S
O133 Tb122 2.596 . S
O133 C128 1.259 . S
O134 Tb122 2.374 . S
O134 C129 1.250 . S
O135 Tb120 2.353 . S
O135 C129 1.263 . S
C136 O137 1.275 . S
C136 O138 1.246 . S
O137 Tb120 2.427 . S
O137 C136 1.275 . S
O138 Tb120 2.513 . S
O138 C136 1.246 . S
C139 O123 1.245 . S
C139 O124 1.259 . S
Tb140 O143 2.453 . S
Tb140 O144 2.596 . S
Tb140 O145 2.374 . S
Tb140 O153 2.343 . S
Tb140 O155 2.353 . S
Tb140 O157 2.427 . S
Tb140 O158 2.513 . S
C141 O145 1.251 . S
C141 O147 1.263 . S
Tb142 O144 2.343 . S
Tb142 O147 2.353 . S
Tb142 O150 2.427 . S
Tb142 O151 2.513 . S
Tb142 O152 2.453 . S
Tb142 O153 2.596 . S
Tb142 O154 2.374 . S
O143 Tb140 2.453 . S
O143 C159 1.245 . S
O144 Tb140 2.596 . S
O144 Tb142 2.343 . S
O144 C159 1.259 . S
O145 Tb140 2.374 . S
O145 C141 1.251 . S
C146 O150 1.275 . S
C146 O151 1.246 . S
O147 C141 1.263 . S
O147 Tb142 2.353 . S
C148 O152 1.245 . S
C148 O153 1.259 . S
C149 O154 1.250 . S
C149 O155 1.263 . S
O150 Tb142 2.427 . S
O150 C146 1.275 . S
O151 Tb142 2.513 . S
O151 C146 1.246 . S
O152 Tb142 2.453 . S
O152 C148 1.245 . S
O153 Tb140 2.343 . S
O153 Tb142 2.596 . S
O153 C148 1.259 . S
O154 Tb142 2.374 . S
O154 C149 1.250 . S
O155 Tb140 2.353 . S
O155 C149 1.263 . S
C156 O157 1.275 . S
C156 O158 1.246 . S
O157 Tb140 2.427 . S
O157 C156 1.275 . S
O158 Tb140 2.513 . S
O158 C156 1.246 . S
C159 O143 1.245 . S
C159 O144 1.259 . S
Tb160 O163 2.453 . S
Tb160 O164 2.596 . S
Tb160 O165 2.374 . S
Tb160 O173 2.343 . S
Tb160 O175 2.353 . S
Tb160 O177 2.427 . S
Tb160 O178 2.513 . S
C161 O165 1.251 . S
C161 O167 1.263 . S
Tb162 O164 2.343 . S
Tb162 O167 2.353 . S
Tb162 O170 2.427 . S
Tb162 O171 2.513 . S
Tb162 O172 2.453 . S
Tb162 O173 2.596 . S
Tb162 O174 2.374 . S
O163 Tb160 2.453 . S
O163 C179 1.245 . S
O164 Tb160 2.596 . S
O164 Tb162 2.343 . S
O164 C179 1.259 . S
O165 Tb160 2.374 . S
O165 C161 1.251 . S
C166 O170 1.275 . S
C166 O171 1.246 . S
O167 C161 1.263 . S
O167 Tb162 2.353 . S
C168 O172 1.245 . S
C168 O173 1.259 . S
C169 O174 1.250 . S
C169 O175 1.263 . S
O170 Tb162 2.427 . S
O170 C166 1.275 . S
O171 Tb162 2.513 . S
O171 C166 1.246 . S
O172 Tb162 2.453 . S
O172 C168 1.245 . S
O173 Tb160 2.343 . S
O173 Tb162 2.596 . S
O173 C168 1.259 . S
O174 Tb162 2.374 . S
O174 C169 1.250 . S
O175 Tb160 2.353 . S
O175 C169 1.263 . S
C176 O177 1.275 . S
C176 O178 1.246 . S
O177 Tb160 2.427 . S
O177 C176 1.275 . S
O178 Tb160 2.513 . S
O178 C176 1.246 . S
C179 O163 1.245 . S
C179 O164 1.259 . S
Tb180 O183 2.453 . S
Tb180 O184 2.596 . S
Tb180 O185 2.374 . S
Tb180 O193 2.343 . S
Tb180 O195 2.353 . S
Tb180 O197 2.427 . S
Tb180 O198 2.513 . S
C181 O185 1.251 . S
C181 O187 1.263 . S
Tb182 O184 2.343 . S
Tb182 O187 2.353 . S
Tb182 O190 2.427 . S
Tb182 O191 2.513 . S
Tb182 O192 2.453 . S
Tb182 O193 2.596 . S
Tb182 O194 2.374 . S
O183 Tb180 2.453 . S
O183 C199 1.245 . S
O184 Tb180 2.596 . S
O184 Tb182 2.343 . S
O184 C199 1.259 . S
O185 Tb180 2.374 . S
O185 C181 1.251 . S
C186 O190 1.275 . S
C186 O191 1.246 . S
O187 C181 1.263 . S
O187 Tb182 2.353 . S
C188 O192 1.245 . S
C188 O193 1.259 . S
C189 O194 1.250 . S
C189 O195 1.263 . S
O190 Tb182 2.427 . S
O190 C186 1.275 . S
O191 Tb182 2.513 . S
O191 C186 1.246 . S
O192 Tb182 2.453 . S
O192 C188 1.245 . S
O193 Tb180 2.343 . S
O193 Tb182 2.596 . S
O193 C188 1.259 . S
O194 Tb182 2.374 . S
O194 C189 1.250 . S
O195 Tb180 2.353 . S
O195 C189 1.263 . S
C196 O197 1.275 . S
C196 O198 1.246 . S
O197 Tb180 2.427 . S
O197 C196 1.275 . S
O198 Tb180 2.513 . S
O198 C196 1.246 . S
C199 O183 1.245 . S
C199 O184 1.259 . S
Tb200 O203 2.453 . S
Tb200 O204 2.596 . S
Tb200 O205 2.374 . S
Tb200 O213 2.343 . S
Tb200 O215 2.353 . S
Tb200 O217 2.427 . S
Tb200 O218 2.513 . S
C201 O205 1.251 . S
C201 O207 1.263 . S
Tb202 O204 2.343 . S
Tb202 O207 2.353 . S
Tb202 O210 2.427 . S
Tb202 O211 2.513 . S
Tb202 O212 2.453 . S
Tb202 O213 2.596 . S
Tb202 O214 2.374 . S
O203 Tb200 2.453 . S
O203 C219 1.245 . S
O204 Tb200 2.596 . S
O204 Tb202 2.343 . S
O204 C219 1.259 . S
O205 Tb200 2.374 . S
O205 C201 1.251 . S
C206 O210 1.275 . S
C206 O211 1.246 . S
O207 C201 1.263 . S
O207 Tb202 2.353 . S
C208 O212 1.245 . S
C208 O213 1.259 . S
C209 O214 1.250 . S
C209 O215 1.263 . S
O210 Tb202 2.427 . S
O210 C206 1.275 . S
O211 Tb202 2.513 . S
O211 C206 1.246 . S
O212 Tb202 2.453 . S
O212 C208 1.245 . S
O213 Tb200 2.343 . S
O213 Tb202 2.596 . S
O213 C208 1.259 . S
O214 Tb202 2.374 . S
O214 C209 1.250 . S
O215 Tb200 2.353 . S
O215 C209 1.263 . S
C216 O217 1.275 . S
C216 O218 1.246 . S
O217 Tb200 2.427 . S
O217 C216 1.275 . S
O218 Tb200 2.513 . S
O218 C216 1.246 . S
C219 O203 1.245 . S
C219 O204 1.259 . S
Tb220 O223 2.453 . S
Tb220 O224 2.596 . S
Tb220 O225 2.374 . S
Tb220 O233 2.343 . S
Tb220 O235 2.353 . S
Tb220 O237 2.427 . S
Tb220 O238 2.513 . S
C221 O225 1.251 . S
C221 O227 1.263 . S
Tb222 O224 2.343 . S
Tb222 O227 2.353 . S
Tb222 O230 2.427 . S
Tb222 O231 2.513 . S
Tb222 O232 2.453 . S
Tb222 O233 2.596 . S
Tb222 O234 2.374 . S
O223 Tb220 2.453 . S
O223 C239 1.245 . S
O224 Tb220 2.596 . S
O224 Tb222 2.343 . S
O224 C239 1.259 . S
O225 Tb220 2.374 . S
O225 C221 1.251 . S
C226 O230 1.275 . S
C226 O231 1.246 . S
O227 C221 1.263 . S
O227 Tb222 2.353 . S
C228 O232 1.245 . S
C228 O233 1.259 . S
C229 O234 1.250 . S
C229 O235 1.263 . S
O230 Tb222 2.427 . S
O230 C226 1.275 . S
O231 Tb222 2.513 . S
O231 C226 1.246 . S
O232 Tb222 2.453 . S
O232 C228 1.245 . S
O233 Tb220 2.343 . S
O233 Tb222 2.596 . S
O233 C228 1.259 . S
O234 Tb222 2.374 . S
O234 C229 1.250 . S
O235 Tb220 2.353 . S
O235 C229 1.263 . S
C236 O237 1.275 . S
C236 O238 1.246 . S
O237 Tb220 2.427 . S
O237 C236 1.275 . S
O238 Tb220 2.513 . S
O238 C236 1.246 . S
C239 O223 1.245 . S
C239 O224 1.259 . S
H240 C258 0.951 . S
H241 C260 0.951 . S
H242 C262 0.950 . S
H243 C263 0.950 . S
H244 C265 0.950 . S
H245 C268 0.950 . S
H246 C269 0.950 . S
H247 C271 0.950 . S
H248 C272 0.950 . S
H249 C273 0.951 . S
H250 C275 0.951 . S
H251 C277 0.950 . S
H252 C278 0.950 . S
H253 C280 0.950 . S
H254 C283 0.950 . S
H255 C284 0.950 . S
H256 C286 0.950 . S
H257 C287 0.950 . S
C258 H240 0.951 . S
C258 C259 1.366 . S
C258 C260 1.388 . S
C259 C258 1.366 . S
C259 C263 1.385 . S
C260 H241 0.951 . S
C260 C258 1.388 . S
C260 C261 1.366 . S
C261 C260 1.366 . S
C261 C262 1.414 . S
C261 C264 1.499 . S
C262 H242 0.950 . S
C262 C261 1.414 . S
C262 C263 1.374 . S
C263 H243 0.950 . S
C263 C259 1.385 . S
C263 C262 1.374 . S
C264 C261 1.499 . S
C264 C265 1.373 . S
C264 C266 1.389 . S
C265 H244 0.950 . S
C265 C264 1.373 . S
C265 C281 1.377 . S
C266 C264 1.389 . S
C266 C267 1.524 . S
C266 C280 1.377 . S
C267 C266 1.524 . S
C267 C268 1.397 . S
C267 C272 1.363 . S
C268 H245 0.950 . S
C268 C267 1.397 . S
C268 C269 1.334 . S
C269 H246 0.950 . S
C269 C268 1.334 . S
C269 C270 1.287 . S
C270 C269 1.287 . S
C270 C271 1.524 . S
C270 H289 0.913 . S
C271 H247 0.950 . S
C271 C270 1.524 . S
C271 C272 1.415 . S
C272 H248 0.950 . S
C272 C267 1.363 . S
C272 C271 1.415 . S
C273 H249 0.951 . S
C273 C274 1.366 . S
C273 C275 1.388 1_545 S
C274 C273 1.366 . S
C274 C278 1.385 1_545 S
C275 H250 0.951 . S
C275 C273 1.388 1_565 S
C275 C276 1.366 . S
C276 C275 1.366 . S
C276 C277 1.414 . S
C276 C279 1.499 . S
C277 H251 0.950 . S
C277 C276 1.414 . S
C277 C278 1.374 . S
C278 H252 0.950 . S
C278 C274 1.385 1_565 S
C278 C277 1.374 . S
C279 C276 1.499 . S
C279 C280 1.373 . S
C279 C281 1.389 . S
C280 H253 0.950 . S
C280 C266 1.377 . S
C280 C279 1.373 . S
C281 C265 1.377 . S
C281 C279 1.389 . S
C281 C282 1.524 . S
C282 C281 1.524 . S
C282 C283 1.397 . S
C282 C287 1.363 . S
C283 H254 0.950 . S
C283 C282 1.397 . S
C283 C284 1.334 . S
C284 H255 0.950 . S
C284 C283 1.334 . S
C284 C285 1.287 . S
C285 C284 1.287 . S
C285 C286 1.524 . S
C285 H288 0.999 . S
C286 H256 0.950 . S
C286 C285 1.524 . S
C286 C287 1.415 . S
C287 H257 0.950 . S
C287 C282 1.363 . S
C287 C286 1.415 . S
H288 C285 0.999 . S
H289 C270 0.913 . S
H290 C308 0.951 . S
H291 C310 0.951 . S
H292 C312 0.950 . S
H293 C313 0.950 . S
H294 C315 0.950 . S
H295 C318 0.950 . S
H296 C319 0.950 . S
H297 C321 0.950 . S
H298 C322 0.950 . S
H299 C323 0.951 . S
H300 C325 0.951 . S
H301 C327 0.950 . S
H302 C328 0.950 . S
H303 C330 0.950 . S
H304 C333 0.950 . S
H305 C334 0.950 . S
H306 C336 0.950 . S
H307 C337 0.950 . S
C308 H290 0.951 . S
C308 C309 1.366 . S
C308 C310 1.388 . S
C309 C308 1.366 . S
C309 C313 1.385 . S
C310 H291 0.951 . S
C310 C308 1.388 . S
C310 C311 1.366 . S
C311 C310 1.366 . S
C311 C312 1.414 . S
C311 C314 1.499 . S
C312 H292 0.950 . S
C312 C311 1.414 . S
C312 C313 1.374 . S
C313 H293 0.950 . S
C313 C309 1.385 . S
C313 C312 1.374 . S
C314 C311 1.499 . S
C314 C315 1.373 . S
C314 C316 1.389 . S
C315 H294 0.950 . S
C315 C314 1.373 . S
C315 C331 1.377 . S
C316 C314 1.389 . S
C316 C317 1.524 . S
C316 C330 1.377 . S
C317 C316 1.524 . S
C317 C318 1.397 . S
C317 C322 1.363 . S
C318 H295 0.950 . S
C318 C317 1.397 . S
C318 C319 1.334 . S
C319 H296 0.950 . S
C319 C318 1.334 . S
C319 C320 1.287 . S
C320 C319 1.287 . S
C320 C321 1.524 . S
C320 H339 0.913 . S
C321 H297 0.950 . S
C321 C320 1.524 . S
C321 C322 1.415 . S
C322 H298 0.950 . S
C322 C317 1.363 . S
C322 C321 1.415 . S
C323 H299 0.951 . S
C323 C324 1.366 . S
C323 C325 1.388 . S
C324 C323 1.366 . S
C324 C328 1.385 . S
C325 H300 0.951 . S
C325 C323 1.388 . S
C325 C326 1.366 . S
C326 C325 1.366 . S
C326 C327 1.414 . S
C326 C329 1.499 . S
C327 H301 0.950 . S
C327 C326 1.414 . S
C327 C328 1.374 . S
C328 H302 0.950 . S
C328 C324 1.385 . S
C328 C327 1.374 . S
C329 C326 1.499 . S
C329 C330 1.373 . S
C329 C331 1.389 . S
C330 H303 0.950 . S
C330 C316 1.377 . S
C330 C329 1.373 . S
C331 C315 1.377 . S
C331 C329 1.389 . S
C331 C332 1.524 . S
C332 C331 1.524 . S
C332 C333 1.397 . S
C332 C337 1.363 . S
C333 H304 0.950 . S
C333 C332 1.397 . S
C333 C334 1.334 . S
C334 H305 0.950 . S
C334 C333 1.334 . S
C334 C335 1.287 . S
C335 C334 1.287 . S
C335 C336 1.524 . S
C335 H338 0.999 . S
C336 H306 0.950 . S
C336 C335 1.524 . S
C336 C337 1.415 . S
C337 H307 0.950 . S
C337 C332 1.363 . S
C337 C336 1.415 . S
H338 C335 0.999 . S
H339 C320 0.913 . S
H340 C358 0.951 . S
H341 C360 0.951 . S
H342 C362 0.950 . S
H343 C363 0.955 1_655 S
H344 C365 0.950 . S
H345 C368 0.950 . S
H346 C369 0.950 . S
H347 C371 0.950 . S
H348 C372 0.950 . S
H349 C373 0.951 . S
H350 C375 0.951 . S
H351 C377 0.950 . S
H352 C378 0.950 . S
H353 C380 0.950 . S
H354 C383 0.950 . S
H355 C384 0.950 . S
H356 C386 0.950 . S
H357 C387 0.950 . S
C358 H340 0.951 . S
C358 C359 1.366 1_455 S
C358 C360 1.388 . S
C359 C358 1.366 1_655 S
C359 C363 1.385 1_655 S
C360 H341 0.951 . S
C360 C358 1.388 . S
C360 C361 1.366 . S
C361 C360 1.366 . S
C361 C362 1.414 . S
C361 C364 1.499 . S
C362 H342 0.950 . S
C362 C361 1.414 . S
C362 C363 1.374 . S
C363 H343 0.955 1_455 S
C363 C359 1.385 1_455 S
C363 C362 1.374 . S
C364 C361 1.499 . S
C364 C365 1.373 . S
C364 C366 1.389 . S
C365 H344 0.950 . S
C365 C364 1.373 . S
C365 C381 1.377 . S
C366 C364 1.389 . S
C366 C367 1.524 . S
C366 C380 1.377 . S
C367 C366 1.524 . S
C367 C368 1.397 1_455 S
C367 C372 1.363 . S
C368 H345 0.950 . S
C368 C367 1.397 1_655 S
C368 C369 1.334 . S
C369 H346 0.950 . S
C369 C368 1.334 . S
C369 C370 1.287 . S
C370 C369 1.287 . S
C370 C371 1.524 . S
C370 H389 0.913 . S
C371 H347 0.950 . S
C371 C370 1.524 . S
C371 C372 1.415 1_655 S
C372 H348 0.950 . S
C372 C367 1.363 . S
C372 C371 1.415 1_455 S
C373 H349 0.951 . S
C373 C374 1.366 . S
C373 C375 1.388 . S
C374 C373 1.366 . S
C374 C378 1.385 . S
C375 H350 0.951 . S
C375 C373 1.388 . S
C375 C376 1.366 . S
C376 C375 1.366 . S
C376 C377 1.414 . S
C376 C379 1.499 . S
C377 H351 0.950 . S
C377 C376 1.414 . S
C377 C378 1.374 . S
C378 H352 0.950 . S
C378 C374 1.385 . S
C378 C377 1.374 . S
C379 C376 1.499 . S
C379 C380 1.373 . S
C379 C381 1.389 . S
C380 H353 0.950 . S
C380 C366 1.377 . S
C380 C379 1.373 . S
C381 C365 1.377 . S
C381 C379 1.389 . S
C381 C382 1.524 . S
C382 C381 1.524 . S
C382 C383 1.397 . S
C382 C387 1.363 . S
C383 H354 0.950 . S
C383 C382 1.397 . S
C383 C384 1.334 . S
C384 H355 0.950 . S
C384 C383 1.334 . S
C384 C385 1.287 . S
C385 C384 1.287 . S
C385 C386 1.524 . S
C385 H388 0.999 . S
C386 H356 0.950 . S
C386 C385 1.524 . S
C386 C387 1.415 . S
C387 H357 0.950 . S
C387 C382 1.363 . S
C387 C386 1.415 . S
H388 C385 0.999 . S
H389 C370 0.913 . S
H390 C408 0.951 . S
H391 C410 0.951 . S
H392 C412 0.950 . S
H393 C413 0.950 . S
H394 C415 0.950 . S
H395 C418 0.950 . S
H396 C419 0.950 . S
H397 C421 0.950 . S
H398 C422 0.950 . S
H399 C423 0.951 . S
H400 C425 0.951 . S
H401 C427 0.950 . S
H402 C428 0.950 . S
H403 C430 0.950 . S
H404 C433 0.950 . S
H405 C434 0.950 . S
H406 C436 0.950 . S
H407 C437 0.950 1_565 S
C408 H390 0.951 . S
C408 C409 1.366 . S
C408 C410 1.388 . S
C409 C408 1.366 . S
C409 C413 1.385 . S
C410 H391 0.951 . S
C410 C408 1.388 . S
C410 C411 1.366 . S
C411 C410 1.366 . S
C411 C412 1.414 . S
C411 C414 1.499 . S
C412 H392 0.950 . S
C412 C411 1.414 . S
C412 C413 1.374 . S
C413 H393 0.950 . S
C413 C409 1.385 . S
C413 C412 1.374 . S
C414 C411 1.499 . S
C414 C415 1.373 . S
C414 C416 1.389 . S
C415 H394 0.950 . S
C415 C414 1.373 . S
C415 C431 1.377 . S
C416 C414 1.389 . S
C416 C417 1.524 . S
C416 C430 1.377 . S
C417 C416 1.524 . S
C417 C418 1.397 . S
C417 C422 1.363 . S
C418 H395 0.950 . S
C418 C417 1.397 . S
C418 C419 1.334 . S
C419 H396 0.950 . S
C419 C418 1.334 . S
C419 C420 1.287 . S
C420 C419 1.287 . S
C420 C421 1.524 . S
C420 H439 0.913 . S
C421 H397 0.950 . S
C421 C420 1.524 . S
C421 C422 1.415 . S
C422 H398 0.950 . S
C422 C417 1.363 . S
C422 C421 1.415 . S
C423 H399 0.951 . S
C423 C424 1.366 . S
C423 C425 1.388 . S
C424 C423 1.366 . S
C424 C428 1.385 1_565 S
C425 H400 0.951 . S
C425 C423 1.388 . S
C425 C426 1.366 1_565 S
C426 C425 1.366 1_545 S
C426 C427 1.414 . S
C426 C429 1.499 . S
C427 H401 0.950 . S
C427 C426 1.414 . S
C427 C428 1.374 . S
C428 H402 0.950 . S
C428 C424 1.385 1_545 S
C428 C427 1.374 . S
C429 C426 1.499 . S
C429 C430 1.373 . S
C429 C431 1.389 . S
C430 H403 0.950 . S
C430 C416 1.377 . S
C430 C429 1.373 . S
C431 C415 1.377 . S
C431 C429 1.389 . S
C431 C432 1.524 . S
C432 C431 1.524 . S
C432 C433 1.397 . S
C432 C437 1.363 . S
C433 H404 0.950 . S
C433 C432 1.397 . S
C433 C434 1.334 . S
C434 H405 0.950 . S
C434 C433 1.334 . S
C434 C435 1.287 1_545 S
C435 C434 1.287 1_565 S
C435 C436 1.524 . S
C435 H438 0.999 . S
C436 H406 0.950 . S
C436 C435 1.524 . S
C436 C437 1.415 1_565 S
C437 H407 0.950 1_545 S
C437 C432 1.363 . S
C437 C436 1.415 1_545 S
H438 C435 0.999 . S
H439 C420 0.913 . S
H440 C458 0.951 . S
H441 C460 0.951 . S
H442 C462 0.950 . S
H443 C463 0.950 . S
H444 C465 0.950 . S
H445 C468 0.950 . S
H446 C469 0.950 . S
H447 C471 0.950 . S
H448 C472 0.950 . S
H449 C473 0.951 . S
H450 C475 0.951 . S
H451 C477 0.930 1_556 S
H452 C478 0.950 . S
H453 C480 0.950 . S
H454 C483 0.941 1_554 S
H455 C484 0.950 . S
H456 C486 0.950 . S
H457 C487 0.950 . S
C458 H440 0.951 . S
C458 C459 1.366 . S
C458 C460 1.388 . S
C459 C458 1.366 . S
C459 C463 1.385 . S
C460 H441 0.951 . S
C460 C458 1.388 . S
C460 C461 1.366 . S
C461 C460 1.366 . S
C461 C462 1.414 . S
C461 C464 1.499 . S
C462 H442 0.950 . S
C462 C461 1.414 . S
C462 C463 1.374 . S
C463 H443 0.950 . S
C463 C459 1.385 . S
C463 C462 1.374 . S
C464 C461 1.499 . S
C464 C465 1.373 . S
C464 C466 1.389 . S
C465 H444 0.950 . S
C465 C464 1.373 . S
C465 C481 1.377 . S
C466 C464 1.389 . S
C466 C467 1.524 . S
C466 C480 1.377 . S
C467 C466 1.524 . S
C467 C468 1.397 . S
C467 C472 1.363 . S
C468 H445 0.950 . S
C468 C467 1.397 . S
C468 C469 1.334 . S
C469 H446 0.950 . S
C469 C468 1.334 . S
C469 C470 1.287 . S
C470 C469 1.287 . S
C470 C471 1.524 . S
C470 H489 0.913 . S
C471 H447 0.950 . S
C471 C470 1.524 . S
C471 C472 1.415 . S
C472 H448 0.950 . S
C472 C467 1.363 . S
C472 C471 1.415 . S
C473 H449 0.951 . S
C473 C474 1.366 . S
C473 C475 1.388 1_554 S
C474 C473 1.366 . S
C474 C478 1.385 . S
C475 H450 0.951 . S
C475 C473 1.388 1_556 S
C475 C476 1.366 . S
C476 C475 1.366 . S
C476 C477 1.414 1_556 S
C476 C479 1.499 . S
C477 H451 0.930 1_554 S
C477 C476 1.414 1_554 S
C477 C478 1.374 . S
C478 H452 0.950 . S
C478 C474 1.385 . S
C478 C477 1.374 . S
C479 C476 1.499 . S
C479 C480 1.373 . S
C479 C481 1.389 . S
C480 H453 0.950 . S
C480 C466 1.377 . S
C480 C479 1.373 . S
C481 C465 1.377 . S
C481 C479 1.389 . S
C481 C482 1.524 . S
C482 C481 1.524 . S
C482 C483 1.435 . S
C482 C487 1.363 . S
C483 H454 0.941 1_556 S
C483 C482 1.435 . S
C483 C484 1.306 1_556 S
C484 H455 0.950 . S
C484 C483 1.306 1_554 S
C484 C485 1.287 . S
C485 C484 1.287 . S
C485 C486 1.524 1_554 S
C485 H488 0.999 . S
C486 H456 0.950 . S
C486 C485 1.524 1_556 S
C486 C487 1.415 . S
C487 H457 0.950 . S
C487 C482 1.363 . S
C487 C486 1.415 . S
H488 C485 0.999 . S
H489 C470 0.913 . S
H490 C508 0.951 . S
H491 C510 0.951 . S
H492 C512 0.950 . S
H493 C513 0.950 . S
H494 C515 0.950 . S
H495 C518 0.950 . S
H496 C519 0.950 . S
H497 C521 0.950 . S
H498 C522 0.950 . S
H499 C523 0.951 . S
H500 C525 0.951 . S
H501 C527 0.950 . S
H502 C528 0.950 . S
H503 C530 0.950 . S
H504 C533 0.950 . S
H505 C534 0.950 . S
H506 C536 0.950 . S
H507 C537 0.950 . S
C508 H490 0.951 . S
C508 C509 1.366 1_655 S
C508 C510 1.388 . S
C509 C508 1.366 1_455 S
C509 C513 1.385 . S
C510 H491 0.951 . S
C510 C508 1.388 . S
C510 C511 1.366 . S
C511 C510 1.366 . S
C511 C512 1.414 . S
C511 C514 1.499 . S
C512 H492 0.950 . S
C512 C511 1.414 . S
C512 C513 1.374 1_655 S
C513 H493 0.950 . S
C513 C509 1.385 . S
C513 C512 1.374 1_455 S
C514 C511 1.499 . S
C514 C515 1.373 . S
C514 C516 1.389 . S
C515 H494 0.950 . S
C515 C514 1.373 . S
C515 C531 1.377 . S
C516 C514 1.389 . S
C516 C517 1.524 . S
C516 C530 1.377 . S
C517 C516 1.524 . S
C517 C518 1.397 . S
C517 C522 1.363 . S
C518 H495 0.950 . S
C518 C517 1.397 . S
C518 C519 1.334 . S
C519 H496 0.950 . S
C519 C518 1.334 . S
C519 C520 1.287 . S
C520 C519 1.287 . S
C520 C521 1.524 . S
C520 H539 0.913 . S
C521 H497 0.950 . S
C521 C520 1.524 . S
C521 C522 1.415 . S
C522 H498 0.950 . S
C522 C517 1.363 . S
C522 C521 1.415 . S
C523 H499 0.951 . S
C523 C524 1.366 . S
C523 C525 1.388 . S
C524 C523 1.366 . S
C524 C528 1.385 . S
C525 H500 0.951 . S
C525 C523 1.388 . S
C525 C526 1.366 . S
C526 C525 1.366 . S
C526 C527 1.414 . S
C526 C529 1.499 . S
C527 H501 0.950 . S
C527 C526 1.414 . S
C527 C528 1.374 . S
C528 H502 0.950 . S
C528 C524 1.385 . S
C528 C527 1.374 . S
C529 C526 1.499 . S
C529 C530 1.373 . S
C529 C531 1.389 . S
C530 H503 0.950 . S
C530 C516 1.377 . S
C530 C529 1.373 . S
C531 C515 1.377 . S
C531 C529 1.389 . S
C531 C532 1.524 . S
C532 C531 1.524 . S
C532 C533 1.397 . S
C532 C537 1.363 . S
C533 H504 0.950 . S
C533 C532 1.397 . S
C533 C534 1.334 . S
C534 H505 0.950 . S
C534 C533 1.334 . S
C534 C535 1.287 1_655 S
C535 C534 1.287 1_455 S
C535 C536 1.524 . S
C535 H538 0.999 . S
C536 H506 0.950 . S
C536 C535 1.524 . S
C536 C537 1.415 1_455 S
C537 H507 0.950 . S
C537 C532 1.363 . S
C537 C536 1.415 1_655 S
H538 C535 0.999 . S
H539 C520 0.913 . S
H540 C558 0.951 . S
H541 C560 0.951 . S
H542 C562 0.950 . S
H543 C563 0.950 . S
H544 C565 0.950 . S
H545 C568 0.950 . S
H546 C569 0.950 . S
H547 C571 0.950 . S
H548 C572 0.950 . S
H549 C573 0.951 . S
H550 C575 0.951 . S
H551 C577 0.950 . S
H552 C578 0.950 . S
H553 C580 0.950 . S
H554 C583 0.950 . S
H555 C584 0.950 . S
H556 C586 0.950 . S
H557 C587 0.950 . S
C558 H540 0.951 . S
C558 C559 1.366 . S
C558 C560 1.388 . S
C559 C558 1.366 . S
C559 C563 1.385 . S
C560 H541 0.951 . S
C560 C558 1.388 . S
C560 C561 1.366 . S
C561 C560 1.366 . S
C561 C562 1.414 . S
C561 C564 1.499 . S
C562 H542 0.950 . S
C562 C561 1.414 . S
C562 C563 1.374 . S
C563 H543 0.950 . S
C563 C559 1.385 . S
C563 C562 1.374 . S
C564 C561 1.499 . S
C564 C565 1.373 . S
C564 C566 1.389 . S
C565 H544 0.950 . S
C565 C564 1.373 . S
C565 C581 1.377 . S
C566 C564 1.389 . S
C566 C567 1.524 . S
C566 C580 1.377 . S
C567 C566 1.524 . S
C567 C568 1.397 . S
C567 C572 1.363 . S
C568 H545 0.950 . S
C568 C567 1.397 . S
C568 C569 1.334 . S
C569 H546 0.950 . S
C569 C568 1.334 . S
C569 C570 1.287 . S
C570 C569 1.287 . S
C570 C571 1.524 . S
C570 H589 0.913 . S
C571 H547 0.950 . S
C571 C570 1.524 . S
C571 C572 1.415 . S
C572 H548 0.950 . S
C572 C567 1.363 . S
C572 C571 1.415 . S
C573 H549 0.951 . S
C573 C574 1.366 1_455 S
C573 C575 1.388 . S
C574 C573 1.366 1_655 S
C574 C578 1.385 . S
C575 H550 0.951 . S
C575 C573 1.388 . S
C575 C576 1.366 . S
C576 C575 1.366 . S
C576 C577 1.414 . S
C576 C579 1.499 . S
C577 H551 0.950 . S
C577 C576 1.414 . S
C577 C578 1.374 1_455 S
C578 H552 0.950 . S
C578 C574 1.385 . S
C578 C577 1.374 1_655 S
C579 C576 1.499 . S
C579 C580 1.373 . S
C579 C581 1.389 . S
C580 H553 0.950 . S
C580 C566 1.377 . S
C580 C579 1.373 . S
C581 C565 1.377 . S
C581 C579 1.389 . S
C581 C582 1.524 . S
C582 C581 1.524 . S
C582 C583 1.397 1_455 S
C582 C587 1.363 . S
C583 H554 0.950 . S
C583 C582 1.397 1_655 S
C583 C584 1.334 . S
C584 H555 0.950 . S
C584 C583 1.334 . S
C584 C585 1.287 . S
C585 C584 1.287 . S
C585 C586 1.524 1_655 S
C585 H588 0.999 . S
C586 H556 0.950 . S
C586 C585 1.524 1_455 S
C586 C587 1.415 . S
C587 H557 0.950 . S
C587 C582 1.363 . S
C587 C586 1.415 . S
H588 C585 0.999 . S
H589 C570 0.913 . S
H590 C608 0.951 1_565 S
H591 C610 0.951 . S
H592 C612 0.950 . S
H593 C613 0.950 . S
H594 C615 0.950 . S
H595 C618 0.950 . S
H596 C619 0.950 . S
H597 C621 0.950 . S
H598 C622 0.946 1_545 S
H599 C623 0.951 . S
H600 C625 0.951 . S
H601 C627 0.950 . S
H602 C628 0.950 . S
H603 C630 0.950 . S
H604 C633 0.950 . S
H605 C634 0.950 . S
H606 C636 0.950 . S
H607 C637 0.950 . S
C608 H590 0.951 1_545 S
C608 C609 1.366 1_545 S
C608 C610 1.388 . S
C609 C608 1.366 1_565 S
C609 C613 1.385 1_565 S
C610 H591 0.951 . S
C610 C608 1.388 . S
C610 C611 1.366 . S
C611 C610 1.366 . S
C611 C612 1.414 . S
C611 C614 1.499 . S
C612 H592 0.950 . S
C612 C611 1.414 . S
C612 C613 1.374 . S
C613 H593 0.950 . S
C613 C609 1.385 1_545 S
C613 C612 1.374 . S
C614 C611 1.499 . S
C614 C615 1.373 . S
C614 C616 1.389 . S
C615 H594 0.950 . S
C615 C614 1.373 . S
C615 C631 1.377 . S
C616 C614 1.389 . S
C616 C617 1.524 . S
C616 C630 1.377 . S
C617 C616 1.524 . S
C617 C618 1.397 1_545 S
C617 C622 1.358 1_545 S
C618 H595 0.950 . S
C618 C617 1.397 1_565 S
C618 C619 1.334 . S
C619 H596 0.950 . S
C619 C618 1.334 . S
C619 C620 1.287 . S
C620 C619 1.287 . S
C620 C621 1.524 . S
C620 H639 0.913 . S
C621 H597 0.950 . S
C621 C620 1.524 . S
C621 C622 1.424 . S
C622 H598 0.946 1_565 S
C622 C617 1.358 1_565 S
C622 C621 1.424 . S
C623 H599 0.951 . S
C623 C624 1.366 . S
C623 C625 1.388 . S
C624 C623 1.366 . S
C624 C628 1.385 . S
C625 H600 0.951 . S
C625 C623 1.388 . S
C625 C626 1.366 . S
C626 C625 1.366 . S
C626 C627 1.414 . S
C626 C629 1.499 . S
C627 H601 0.950 . S
C627 C626 1.414 . S
C627 C628 1.374 . S
C628 H602 0.950 . S
C628 C624 1.385 . S
C628 C627 1.374 . S
C629 C626 1.499 . S
C629 C630 1.373 . S
C629 C631 1.389 . S
C630 H603 0.950 . S
C630 C616 1.377 . S
C630 C629 1.373 . S
C631 C615 1.377 . S
C631 C629 1.389 . S
C631 C632 1.524 . S
C632 C631 1.524 . S
C632 C633 1.397 . S
C632 C637 1.363 . S
C633 H604 0.950 . S
C633 C632 1.397 . S
C633 C634 1.334 . S
C634 H605 0.950 . S
C634 C633 1.334 . S
C634 C635 1.287 . S
C635 C634 1.287 . S
C635 C636 1.524 . S
C635 H638 0.999 . S
C636 H606 0.950 . S
C636 C635 1.524 . S
C636 C637 1.415 . S
C637 H607 0.950 . S
C637 C632 1.363 . S
C637 C636 1.415 . S
H638 C635 0.999 . S
H639 C620 0.913 . S
H640 C658 0.951 . S
H641 C660 0.951 . S
H642 C662 0.950 . S
H643 C663 0.950 . S
H644 C665 0.950 . S
H645 C668 0.950 . S
H646 C669 0.950 . S
H647 C671 0.950 . S
H648 C672 0.950 . S
H649 C673 0.951 . S
H650 C675 0.951 . S
H651 C677 0.950 . S
H652 C678 0.950 . S
H653 C680 0.950 . S
H654 C683 0.950 . S
H655 C684 0.950 . S
H656 C686 0.950 . S
H657 C687 0.950 . S
C658 H640 0.951 . S
C658 C659 1.366 . S
C658 C660 1.388 . S
C659 C658 1.366 . S
C659 C663 1.385 . S
C660 H641 0.951 . S
C660 C658 1.388 . S
C660 C661 1.366 . S
C661 C660 1.366 . S
C661 C662 1.414 . S
C661 C664 1.499 . S
C662 H642 0.950 . S
C662 C661 1.414 . S
C662 C663 1.374 . S
C663 H643 0.950 . S
C663 C659 1.385 . S
C663 C662 1.374 . S
C664 C661 1.499 . S
C664 C665 1.373 . S
C664 C666 1.389 . S
C665 H644 0.950 . S
C665 C664 1.373 . S
C665 C681 1.377 . S
C666 C664 1.389 . S
C666 C667 1.524 . S
C666 C680 1.377 . S
C667 C666 1.524 . S
C667 C668 1.397 . S
C667 C672 1.363 . S
C668 H645 0.950 . S
C668 C667 1.397 . S
C668 C669 1.334 . S
C669 H646 0.950 . S
C669 C668 1.334 . S
C669 C670 1.287 . S
C670 C669 1.287 . S
C670 C671 1.524 . S
C670 H689 0.913 . S
C671 H647 0.950 . S
C671 C670 1.524 . S
C671 C672 1.415 . S
C672 H648 0.950 . S
C672 C667 1.363 . S
C672 C671 1.415 . S
C673 H649 0.951 . S
C673 C674 1.366 . S
C673 C675 1.388 . S
C674 C673 1.366 . S
C674 C678 1.385 . S
C675 H650 0.951 . S
C675 C673 1.388 . S
C675 C676 1.366 . S
C676 C675 1.366 . S
C676 C677 1.414 . S
C676 C679 1.499 . S
C677 H651 0.950 . S
C677 C676 1.414 . S
C677 C678 1.374 . S
C678 H652 0.950 . S
C678 C674 1.385 . S
C678 C677 1.374 . S
C679 C676 1.499 . S
C679 C680 1.373 . S
C679 C681 1.389 . S
C680 H653 0.950 . S
C680 C666 1.377 . S
C680 C679 1.373 . S
C681 C665 1.377 . S
C681 C679 1.389 . S
C681 C682 1.524 . S
C682 C681 1.524 . S
C682 C683 1.397 . S
C682 C687 1.363 . S
C683 H654 0.950 . S
C683 C682 1.397 . S
C683 C684 1.334 . S
C684 H655 0.950 . S
C684 C683 1.334 . S
C684 C685 1.287 . S
C685 C684 1.287 . S
C685 C686 1.524 . S
C685 H688 0.999 . S
C686 H656 0.950 . S
C686 C685 1.524 . S
C686 C687 1.415 . S
C687 H657 0.950 . S
C687 C682 1.363 . S
C687 C686 1.415 . S
H688 C685 0.999 . S
H689 C670 0.913 . S
H690 C708 0.951 . S
H691 C710 0.951 . S
H692 C712 0.950 . S
H693 C713 0.950 . S
H694 C715 0.950 . S
H695 C718 0.950 . S
H696 C719 0.950 . S
H697 C721 0.950 . S
H698 C722 0.950 . S
H699 C723 0.951 . S
H700 C725 0.951 . S
H701 C727 0.950 . S
H702 C728 0.950 . S
H703 C730 0.950 . S
H704 C733 0.950 . S
H705 C734 0.950 . S
H706 C736 0.950 . S
H707 C737 0.950 . S
C708 H690 0.951 . S
C708 C709 1.366 . S
C708 C710 1.388 . S
C709 C708 1.366 . S
C709 C713 1.385 . S
C710 H691 0.951 . S
C710 C708 1.388 . S
C710 C711 1.366 . S
C711 C710 1.366 . S
C711 C712 1.414 . S
C711 C714 1.499 . S
C712 H692 0.950 . S
C712 C711 1.414 . S
C712 C713 1.374 . S
C713 H693 0.950 . S
C713 C709 1.385 . S
C713 C712 1.374 . S
C714 C711 1.499 . S
C714 C715 1.373 . S
C714 C716 1.389 . S
C715 H694 0.950 . S
C715 C714 1.373 . S
C715 C731 1.377 . S
C716 C714 1.389 . S
C716 C717 1.524 . S
C716 C730 1.377 . S
C717 C716 1.524 . S
C717 C718 1.397 . S
C717 C722 1.363 . S
C718 H695 0.950 . S
C718 C717 1.397 . S
C718 C719 1.334 . S
C719 H696 0.950 . S
C719 C718 1.334 . S
C719 C720 1.287 . S
C720 C719 1.287 . S
C720 C721 1.524 . S
C720 H739 0.913 . S
C721 H697 0.950 . S
C721 C720 1.524 . S
C721 C722 1.415 . S
C722 H698 0.950 . S
C722 C717 1.363 . S
C722 C721 1.415 . S
C723 H699 0.951 . S
C723 C724 1.366 . S
C723 C725 1.388 1_456 S
C724 C723 1.366 . S
C724 C728 1.385 1_455 S
C725 H700 0.951 . S
C725 C723 1.388 1_654 S
C725 C726 1.366 . S
C726 C725 1.366 . S
C726 C727 1.414 1_554 S
C726 C729 1.499 . S
C727 H701 0.950 . S
C727 C726 1.414 1_556 S
C727 C728 1.374 . S
C728 H702 0.950 . S
C728 C724 1.385 1_655 S
C728 C727 1.374 . S
C729 C726 1.499 . S
C729 C730 1.373 . S
C729 C731 1.389 . S
C730 H703 0.950 . S
C730 C716 1.377 . S
C730 C729 1.373 . S
C731 C715 1.377 . S
C731 C729 1.389 . S
C731 C732 1.524 . S
C732 C731 1.524 . S
C732 C733 1.397 . S
C732 C737 1.363 . S
C733 H704 0.950 . S
C733 C732 1.397 . S
C733 C734 1.334 1_554 S
C734 H705 0.950 . S
C734 C733 1.334 1_556 S
C734 C735 1.287 1_556 S
C735 C734 1.287 1_554 S
C735 C736 1.524 . S
C735 H738 0.999 . S
C736 H706 0.950 . S
C736 C735 1.524 . S
C736 C737 1.415 . S
C737 H707 0.950 . S
C737 C732 1.363 . S
C737 C736 1.415 . S
H738 C735 0.999 . S
H739 C720 0.913 . S
H740 C758 0.951 . S
H741 C760 0.951 . S
H742 C762 0.950 . S
H743 C763 0.950 . S
H744 C765 0.950 . S
H745 C768 0.950 . S
H746 C769 0.950 . S
H747 C771 0.950 . S
H748 C772 0.950 . S
H749 C773 0.951 . S
H750 C775 0.951 . S
H751 C777 0.950 . S
H752 C778 0.950 . S
H753 C780 0.950 . S
H754 C783 0.950 . S
H755 C784 0.950 . S
H756 C786 0.950 . S
H757 C787 0.950 . S
C758 H740 0.951 . S
C758 C759 1.366 . S
C758 C760 1.388 . S
C759 C758 1.366 . S
C759 C763 1.385 . S
C760 H741 0.951 . S
C760 C758 1.388 . S
C760 C761 1.366 . S
C761 C760 1.366 . S
C761 C762 1.414 . S
C761 C764 1.499 . S
C762 H742 0.950 . S
C762 C761 1.414 . S
C762 C763 1.374 . S
C763 H743 0.950 . S
C763 C759 1.385 . S
C763 C762 1.374 . S
C764 C761 1.499 . S
C764 C765 1.373 . S
C764 C766 1.389 . S
C765 H744 0.950 . S
C765 C764 1.373 . S
C765 C781 1.377 . S
C766 C764 1.389 . S
C766 C767 1.524 . S
C766 C780 1.377 . S
C767 C766 1.524 . S
C767 C768 1.397 . S
C767 C772 1.363 . S
C768 H745 0.950 . S
C768 C767 1.397 . S
C768 C769 1.334 . S
C769 H746 0.950 . S
C769 C768 1.334 . S
C769 C770 1.287 1_565 S
C770 C769 1.287 1_545 S
C770 C771 1.524 . S
C770 H789 0.913 . S
C771 H747 0.950 . S
C771 C770 1.524 . S
C771 C772 1.415 1_545 S
C772 H748 0.950 . S
C772 C767 1.363 . S
C772 C771 1.415 1_565 S
C773 H749 0.951 . S
C773 C774 1.366 1_565 S
C773 C775 1.388 . S
C774 C773 1.366 1_545 S
C774 C778 1.385 . S
C775 H750 0.951 . S
C775 C773 1.388 . S
C775 C776 1.366 . S
C776 C775 1.366 . S
C776 C777 1.414 . S
C776 C779 1.499 . S
C777 H751 0.950 . S
C777 C776 1.414 . S
C777 C778 1.374 1_565 S
C778 H752 0.950 . S
C778 C774 1.385 . S
C778 C777 1.374 1_545 S
C779 C776 1.499 . S
C779 C780 1.373 . S
C779 C781 1.389 . S
C780 H753 0.950 . S
C780 C766 1.377 . S
C780 C779 1.373 . S
C781 C765 1.377 . S
C781 C779 1.389 . S
C781 C782 1.524 . S
C782 C781 1.524 . S
C782 C783 1.397 . S
C782 C787 1.363 . S
C783 H754 0.950 . S
C783 C782 1.397 . S
C783 C784 1.334 . S
C784 H755 0.950 . S
C784 C783 1.334 . S
C784 C785 1.287 . S
C785 C784 1.287 . S
C785 C786 1.524 . S
C785 H788 0.999 . S
C786 H756 0.950 . S
C786 C785 1.524 . S
C786 C787 1.415 . S
C787 H757 0.950 . S
C787 C782 1.363 . S
C787 C786 1.415 . S
H788 C785 0.999 . S
H789 C770 0.913 . S
H790 C808 0.951 . S
H791 C810 0.951 . S
H792 C812 0.950 . S
H793 C813 0.950 . S
H794 C815 0.950 . S
H795 C818 0.950 . S
H796 C819 0.950 . S
H797 C821 0.950 . S
H798 C822 0.950 . S
H799 C823 0.951 . S
H800 C825 0.951 . S
H801 C827 0.950 . S
H802 C828 0.950 . S
H803 C830 0.950 . S
H804 C833 0.950 . S
H805 C834 0.950 . S
H806 C836 0.950 . S
H807 C837 0.950 . S
C808 H790 0.951 . S
C808 C809 1.366 . S
C808 C810 1.388 . S
C809 C808 1.366 . S
C809 C813 1.385 . S
C810 H791 0.951 . S
C810 C808 1.388 . S
C810 C811 1.366 . S
C811 C810 1.366 . S
C811 C812 1.414 . S
C811 C814 1.499 . S
C812 H792 0.950 . S
C812 C811 1.414 . S
C812 C813 1.374 . S
C813 H793 0.950 . S
C813 C809 1.385 . S
C813 C812 1.374 . S
C814 C811 1.499 . S
C814 C815 1.373 . S
C814 C816 1.389 . S
C815 H794 0.950 . S
C815 C814 1.373 . S
C815 C831 1.377 . S
C816 C814 1.389 . S
C816 C817 1.524 . S
C816 C830 1.377 . S
C817 C816 1.524 . S
C817 C818 1.397 . S
C817 C822 1.363 . S
C818 H795 0.950 . S
C818 C817 1.397 . S
C818 C819 1.334 . S
C819 H796 0.950 . S
C819 C818 1.334 . S
C819 C820 1.287 . S
C820 C819 1.287 . S
C820 C821 1.524 . S
C820 H839 0.913 . S
C821 H797 0.950 . S
C821 C820 1.524 . S
C821 C822 1.415 . S
C822 H798 0.950 . S
C822 C817 1.363 . S
C822 C821 1.415 . S
C823 H799 0.951 . S
C823 C824 1.366 . S
C823 C825 1.388 . S
C824 C823 1.366 . S
C824 C828 1.385 . S
C825 H800 0.951 . S
C825 C823 1.388 . S
C825 C826 1.366 . S
C826 C825 1.366 . S
C826 C827 1.414 . S
C826 C829 1.499 . S
C827 H801 0.950 . S
C827 C826 1.414 . S
C827 C828 1.374 . S
C828 H802 0.950 . S
C828 C824 1.385 . S
C828 C827 1.374 . S
C829 C826 1.499 . S
C829 C830 1.373 . S
C829 C831 1.389 . S
C830 H803 0.950 . S
C830 C816 1.377 . S
C830 C829 1.373 . S
C831 C815 1.377 . S
C831 C829 1.389 . S
C831 C832 1.524 . S
C832 C831 1.524 . S
C832 C833 1.397 . S
C832 C837 1.363 . S
C833 H804 0.950 . S
C833 C832 1.397 . S
C833 C834 1.334 . S
C834 H805 0.950 . S
C834 C833 1.334 . S
C834 C835 1.287 . S
C835 C834 1.287 . S
C835 C836 1.524 . S
C835 H838 0.999 . S
C836 H806 0.950 . S
C836 C835 1.524 . S
C836 C837 1.415 . S
C837 H807 0.950 . S
C837 C832 1.363 . S
C837 C836 1.415 . S
H838 C835 0.999 . S
H839 C820 0.913 . S
H840 C858 0.951 . S
H841 C860 0.951 . S
H842 C862 0.950 . S
H843 C863 0.950 . S
H844 C865 0.950 . S
H845 C868 0.950 . S
H846 C869 0.950 . S
H847 C871 0.950 . S
H848 C872 0.950 . S
H849 C873 0.951 . S
H850 C875 0.951 . S
H851 C877 0.950 . S
H852 C878 0.950 . S
H853 C880 0.950 . S
H854 C883 0.950 . S
H855 C884 0.950 . S
H856 C886 0.950 . S
H857 C887 0.950 . S
C858 H840 0.951 . S
C858 C859 1.366 . S
C858 C860 1.388 . S
C859 C858 1.366 . S
C859 C863 1.385 . S
C860 H841 0.951 . S
C860 C858 1.388 . S
C860 C861 1.366 . S
C861 C860 1.366 . S
C861 C862 1.414 . S
C861 C864 1.499 . S
C862 H842 0.950 . S
C862 C861 1.414 . S
C862 C863 1.374 . S
C863 H843 0.950 . S
C863 C859 1.385 . S
C863 C862 1.374 . S
C864 C861 1.499 . S
C864 C865 1.373 . S
C864 C866 1.389 . S
C865 H844 0.950 . S
C865 C864 1.373 . S
C865 C881 1.377 . S
C866 C864 1.389 . S
C866 C867 1.524 . S
C866 C880 1.377 . S
C867 C866 1.524 . S
C867 C868 1.397 . S
C867 C872 1.363 . S
C868 H845 0.950 . S
C868 C867 1.397 . S
C868 C869 1.334 . S
C869 H846 0.950 . S
C869 C868 1.334 . S
C869 C870 1.287 . S
C870 C869 1.287 . S
C870 C871 1.524 . S
C870 H889 0.913 . S
C871 H847 0.950 . S
C871 C870 1.524 . S
C871 C872 1.415 . S
C872 H848 0.950 . S
C872 C867 1.363 . S
C872 C871 1.415 . S
C873 H849 0.951 . S
C873 C874 1.366 . S
C873 C875 1.388 . S
C874 C873 1.366 . S
C874 C878 1.385 1_565 S
C875 H850 0.951 . S
C875 C873 1.388 . S
C875 C876 1.366 . S
C876 C875 1.366 . S
C876 C877 1.414 . S
C876 C879 1.499 . S
C877 H851 0.950 . S
C877 C876 1.414 . S
C877 C878 1.374 1_565 S
C878 H852 0.950 . S
C878 C874 1.385 1_545 S
C878 C877 1.374 1_545 S
C879 C876 1.499 . S
C879 C880 1.373 . S
C879 C881 1.389 . S
C880 H853 0.950 . S
C880 C866 1.377 . S
C880 C879 1.373 . S
C881 C865 1.377 . S
C881 C879 1.389 . S
C881 C882 1.524 . S
C882 C881 1.524 . S
C882 C883 1.397 . S
C882 C887 1.363 . S
C883 H854 0.950 . S
C883 C882 1.397 . S
C883 C884 1.334 . S
C884 H855 0.950 . S
C884 C883 1.334 . S
C884 C885 1.287 . S
C885 C884 1.287 . S
C885 C886 1.524 . S
C885 H888 0.999 . S
C886 H856 0.950 . S
C886 C885 1.524 . S
C886 C887 1.415 . S
C887 H857 0.950 . S
C887 C882 1.363 . S
C887 C886 1.415 . S
H888 C885 0.999 . S
H889 C870 0.913 . S
H890 C908 0.951 . S
H891 C910 0.951 . S
H892 C912 0.950 . S
H893 C913 0.950 . S
H894 C915 0.950 . S
H895 C918 0.950 . S
H896 C919 0.950 . S
H897 C921 0.950 . S
H898 C922 0.950 . S
H899 C923 0.951 . S
H900 C925 0.951 . S
H901 C927 0.950 . S
H902 C928 0.950 . S
H903 C930 0.950 . S
H904 C933 0.950 . S
H905 C934 0.950 . S
H906 C936 0.950 . S
H907 C937 0.950 . S
C908 H890 0.951 . S
C908 C909 1.366 . S
C908 C910 1.388 . S
C909 C908 1.366 . S
C909 C913 1.385 . S
C910 H891 0.951 . S
C910 C908 1.388 . S
C910 C911 1.366 . S
C911 C910 1.366 . S
C911 C912 1.414 . S
C911 C914 1.499 . S
C912 H892 0.950 . S
C912 C911 1.414 . S
C912 C913 1.374 . S
C913 H893 0.950 . S
C913 C909 1.385 . S
C913 C912 1.374 . S
C914 C911 1.499 . S
C914 C915 1.373 . S
C914 C916 1.389 . S
C915 H894 0.950 . S
C915 C914 1.373 . S
C915 C931 1.377 . S
C916 C914 1.389 . S
C916 C917 1.524 . S
C916 C930 1.377 . S
C917 C916 1.524 . S
C917 C918 1.397 . S
C917 C922 1.363 . S
C918 H895 0.950 . S
C918 C917 1.397 . S
C918 C919 1.334 . S
C919 H896 0.950 . S
C919 C918 1.334 . S
C919 C920 1.287 . S
C920 C919 1.287 . S
C920 C921 1.524 . S
C920 H939 0.913 . S
C921 H897 0.950 . S
C921 C920 1.524 . S
C921 C922 1.415 . S
C922 H898 0.950 . S
C922 C917 1.363 . S
C922 C921 1.415 . S
C923 H899 0.951 . S
C923 C924 1.366 . S
C923 C925 1.388 . S
C924 C923 1.366 . S
C924 C928 1.385 . S
C925 H900 0.951 . S
C925 C923 1.388 . S
C925 C926 1.366 . S
C926 C925 1.366 . S
C926 C927 1.414 . S
C926 C929 1.499 . S
C927 H901 0.950 . S
C927 C926 1.414 . S
C927 C928 1.374 . S
C928 H902 0.950 . S
C928 C924 1.385 . S
C928 C927 1.374 . S
C929 C926 1.499 . S
C929 C930 1.373 . S
C929 C931 1.389 . S
C930 H903 0.950 . S
C930 C916 1.377 . S
C930 C929 1.373 . S
C931 C915 1.377 . S
C931 C929 1.389 . S
C931 C932 1.524 . S
C932 C931 1.524 . S
C932 C933 1.397 . S
C932 C937 1.363 . S
C933 H904 0.950 . S
C933 C932 1.397 . S
C933 C934 1.334 . S
C934 H905 0.950 . S
C934 C933 1.334 . S
C934 C935 1.287 . S
C935 C934 1.287 . S
C935 C936 1.524 . S
C935 H938 0.999 . S
C936 H906 0.950 . S
C936 C935 1.524 . S
C936 C937 1.415 . S
C937 H907 0.950 . S
C937 C932 1.363 . S
C937 C936 1.415 . S
H938 C935 0.999 . S
H939 C920 0.913 . S
H940 C958 0.951 . S
H941 C960 0.951 . S
H942 C962 0.950 . S
H943 C963 0.950 . S
H944 C965 0.950 . S
H945 C968 0.950 . S
H946 C969 0.950 . S
H947 C971 0.950 . S
H948 C972 0.950 . S
H949 C973 0.951 . S
H950 C975 0.951 . S
H951 C977 0.950 . S
H952 C978 0.964 . S
H953 C980 0.950 . S
H954 C983 0.950 . S
H955 C984 0.967 . S
H956 C986 0.950 . S
H957 C987 0.950 . S
C958 H940 0.951 . S
C958 C959 1.366 . S
C958 C960 1.388 . S
C959 C958 1.366 . S
C959 C963 1.385 . S
C960 H941 0.951 . S
C960 C958 1.388 . S
C960 C961 1.366 . S
C961 C960 1.366 . S
C961 C962 1.414 . S
C961 C964 1.499 . S
C962 H942 0.950 . S
C962 C961 1.414 . S
C962 C963 1.374 . S
C963 H943 0.950 . S
C963 C959 1.385 . S
C963 C962 1.374 . S
C964 C961 1.499 . S
C964 C965 1.373 . S
C964 C966 1.389 . S
C965 H944 0.950 . S
C965 C964 1.373 . S
C965 C981 1.377 . S
C966 C964 1.389 . S
C966 C967 1.524 . S
C966 C980 1.377 . S
C967 C966 1.524 . S
C967 C968 1.397 . S
C967 C972 1.363 . S
C968 H945 0.950 . S
C968 C967 1.397 . S
C968 C969 1.334 . S
C969 H946 0.950 . S
C969 C968 1.334 . S
C969 C970 1.287 . S
C970 C969 1.287 . S
C970 C971 1.524 . S
C970 H989 0.913 . S
C971 H947 0.950 . S
C971 C970 1.524 . S
C971 C972 1.415 . S
C972 H948 0.950 . S
C972 C967 1.363 . S
C972 C971 1.415 . S
C973 H949 0.951 . S
C973 C974 1.366 . S
C973 C975 1.388 . S
C974 C973 1.366 . S
C974 C978 1.385 . S
C975 H950 0.951 . S
C975 C973 1.388 . S
C975 C976 1.366 . S
C976 C975 1.366 . S
C976 C977 1.414 . S
C976 C979 1.499 . S
C977 H951 0.950 . S
C977 C976 1.414 . S
C977 C978 1.374 . S
C978 H952 0.964 . S
C978 C974 1.385 . S
C978 C977 1.374 . S
C979 C976 1.499 . S
C979 C980 1.373 . S
C979 C981 1.389 . S
C980 H953 0.950 . S
C980 C966 1.377 . S
C980 C979 1.373 . S
C981 C965 1.377 . S
C981 C979 1.389 . S
C981 C982 1.524 . S
C982 C981 1.524 . S
C982 C983 1.397 . S
C982 C987 1.363 . S
C983 H954 0.950 . S
C983 C982 1.397 . S
C983 C984 1.325 1_455 S
C984 H955 0.967 . S
C984 C983 1.325 1_655 S
C984 C985 1.279 1_655 S
C985 C984 1.279 1_455 S
C985 C986 1.524 . S
C985 H988 0.999 1_455 S
C986 H956 0.950 . S
C986 C985 1.524 . S
C986 C987 1.415 . S
C987 H957 0.950 . S
C987 C982 1.363 . S
C987 C986 1.415 . S
H988 C985 0.999 1_655 S
H989 C970 0.913 . S
H990 C1008 0.951 . S
H991 C1010 0.951 . S
H992 C1012 0.950 . S
H993 C1013 0.950 . S
H994 C1015 0.950 . S
H995 C1018 0.950 . S
H996 C1019 0.950 . S
H997 C1021 0.950 . S
H998 C1022 0.950 . S
H999 C1023 0.951 . S
H1000 C1025 0.951 . S
H1001 C1027 0.950 . S
H1002 C1028 0.950 1_565 S
H1003 C1030 0.950 . S
H1004 C1033 0.950 . S
H1005 C1034 0.950 . S
H1006 C1036 0.950 . S
H1007 C1037 0.950 . S
C1008 H990 0.951 . S
C1008 C1009 1.366 . S
C1008 C1010 1.388 . S
C1009 C1008 1.366 . S
C1009 C1013 1.385 . S
C1010 H991 0.951 . S
C1010 C1008 1.388 . S
C1010 C1011 1.366 . S
C1011 C1010 1.366 . S
C1011 C1012 1.414 . S
C1011 C1014 1.499 . S
C1012 H992 0.950 . S
C1012 C1011 1.414 . S
C1012 C1013 1.374 . S
C1013 H993 0.950 . S
C1013 C1009 1.385 . S
C1013 C1012 1.374 . S
C1014 C1011 1.499 . S
C1014 C1015 1.373 . S
C1014 C1016 1.389 . S
C1015 H994 0.950 . S
C1015 C1014 1.373 . S
C1015 C1031 1.377 . S
C1016 C1014 1.389 . S
C1016 C1017 1.524 . S
C1016 C1030 1.377 . S
C1017 C1016 1.524 . S
C1017 C1018 1.397 . S
C1017 C1022 1.363 . S
C1018 H995 0.950 . S
C1018 C1017 1.397 . S
C1018 C1019 1.334 . S
C1019 H996 0.950 . S
C1019 C1018 1.334 . S
C1019 C1020 1.287 . S
C1020 C1019 1.287 . S
C1020 C1021 1.524 . S
C1020 H1039 0.913 . S
C1021 H997 0.950 . S
C1021 C1020 1.524 . S
C1021 C1022 1.415 . S
C1022 H998 0.950 . S
C1022 C1017 1.363 . S
C1022 C1021 1.415 . S
C1023 H999 0.951 . S
C1023 C1024 1.366 . S
C1023 C1025 1.388 . S
C1024 C1023 1.366 . S
C1024 C1028 1.385 . S
C1025 H1000 0.951 . S
C1025 C1023 1.388 . S
C1025 C1026 1.366 . S
C1026 C1025 1.366 . S
C1026 C1027 1.414 . S
C1026 C1029 1.499 . S
C1027 H1001 0.950 . S
C1027 C1026 1.414 . S
C1027 C1028 1.374 . S
C1028 H1002 0.950 1_545 S
C1028 C1024 1.385 . S
C1028 C1027 1.374 . S
C1029 C1026 1.499 . S
C1029 C1030 1.373 . S
C1029 C1031 1.389 . S
C1030 H1003 0.950 . S
C1030 C1016 1.377 . S
C1030 C1029 1.373 . S
C1031 C1015 1.377 . S
C1031 C1029 1.389 . S
C1031 C1032 1.524 . S
C1032 C1031 1.524 . S
C1032 C1033 1.397 . S
C1032 C1037 1.363 . S
C1033 H1004 0.950 . S
C1033 C1032 1.397 . S
C1033 C1034 1.334 . S
C1034 H1005 0.950 . S
C1034 C1033 1.334 . S
C1034 C1035 1.287 . S
C1035 C1034 1.287 . S
C1035 C1036 1.524 . S
C1035 H1038 0.999 . S
C1036 H1006 0.950 . S
C1036 C1035 1.524 . S
C1036 C1037 1.415 . S
C1037 H1007 0.950 . S
C1037 C1032 1.363 . S
C1037 C1036 1.415 . S
H1038 C1035 0.999 . S
H1039 C1020 0.913 . S
H1040 C1058 0.951 . S
H1041 C1060 0.946 1_554 S
H1042 C1062 0.950 . S
H1043 C1063 0.950 . S
H1044 C1065 0.950 . S
H1045 C1068 0.950 . S
H1046 C1069 0.950 . S
H1047 C1071 0.950 . S
H1048 C1072 0.950 . S
H1049 C1073 0.951 1_556 S
H1050 C1075 0.951 . S
H1051 C1077 0.950 . S
H1052 C1078 0.950 . S
H1053 C1080 0.950 . S
H1054 C1083 0.950 1_554 S
H1055 C1084 0.950 1_554 S
H1056 C1086 0.950 . S
H1057 C1087 0.950 . S
C1058 H1040 0.951 . S
C1058 C1059 1.366 . S
C1058 C1060 1.388 . S
C1059 C1058 1.366 . S
C1059 C1063 1.385 . S
C1060 H1041 0.946 1_556 S
C1060 C1058 1.388 . S
C1060 C1061 1.366 . S
C1061 C1060 1.366 . S
C1061 C1062 1.414 . S
C1061 C1064 1.499 . S
C1062 H1042 0.950 . S
C1062 C1061 1.414 . S
C1062 C1063 1.374 . S
C1063 H1043 0.950 . S
C1063 C1059 1.385 . S
C1063 C1062 1.374 . S
C1064 C1061 1.499 . S
C1064 C1065 1.373 . S
C1064 C1066 1.389 . S
C1065 H1044 0.950 . S
C1065 C1064 1.373 . S
C1065 C1081 1.377 . S
C1066 C1064 1.389 . S
C1066 C1067 1.526 . S
C1066 C1080 1.377 1_556 S
C1067 C1066 1.526 . S
C1067 C1068 1.402 . S
C1067 C1072 1.357 1_556 S
C1068 H1045 0.950 . S
C1068 C1067 1.402 . S
C1068 C1069 1.334 . S
C1069 H1046 0.950 . S
C1069 C1068 1.334 . S
C1069 C1070 1.287 1_556 S
C1070 C1069 1.287 1_554 S
C1070 C1071 1.524 . S
C1070 H1089 0.913 . S
C1071 H1047 0.950 . S
C1071 C1070 1.524 . S
C1071 C1072 1.415 . S
C1072 H1048 0.950 . S
C1072 C1067 1.357 1_554 S
C1072 C1071 1.415 . S
C1073 H1049 0.951 1_554 S
C1073 C1074 1.366 . S
C1073 C1075 1.388 1_554 S
C1074 C1073 1.366 . S
C1074 C1078 1.385 . S
C1075 H1050 0.951 . S
C1075 C1073 1.388 1_556 S
C1075 C1076 1.366 1_556 S
C1076 C1075 1.366 1_554 S
C1076 C1077 1.414 . S
C1076 C1079 1.475 1_554 S
C1077 H1051 0.950 . S
C1077 C1076 1.414 . S
C1077 C1078 1.374 . S
C1078 H1052 0.950 . S
C1078 C1074 1.385 . S
C1078 C1077 1.374 . S
C1079 C1076 1.475 1_556 S
C1079 C1080 1.358 1_556 S
C1079 C1081 1.438 . S
C1080 H1053 0.950 . S
C1080 C1066 1.377 1_554 S
C1080 C1079 1.358 1_554 S
C1081 C1065 1.377 . S
C1081 C1079 1.438 . S
C1081 C1082 1.524 . S
C1082 C1081 1.524 . S
C1082 C1083 1.397 . S
C1082 C1087 1.363 . S
C1083 H1054 0.950 1_556 S
C1083 C1082 1.397 . S
C1083 C1084 1.334 . S
C1084 H1055 0.950 1_556 S
C1084 C1083 1.334 . S
C1084 C1085 1.287 . S
C1085 C1084 1.287 . S
C1085 C1086 1.524 . S
C1085 H1088 0.999 . S
C1086 H1056 0.950 . S
C1086 C1085 1.524 . S
C1086 C1087 1.415 . S
C1087 H1057 0.950 . S
C1087 C1082 1.363 . S
C1087 C1086 1.415 . S
H1088 C1085 0.999 . S
H1089 C1070 0.913 . S
H1090 C1108 0.975 . S
H1091 C1110 0.951 . S
H1092 C1112 0.950 . S
H1093 C1113 0.950 . S
H1094 C1115 0.950 . S
H1095 C1118 0.950 . S
H1096 C1119 0.950 . S
H1097 C1121 0.950 . S
H1098 C1122 0.950 . S
H1099 C1123 0.951 . S
H1100 C1125 0.951 . S
H1101 C1127 0.950 . S
H1102 C1128 0.950 . S
H1103 C1130 0.950 . S
H1104 C1133 0.950 . S
H1105 C1134 0.950 . S
H1106 C1136 0.950 . S
H1107 C1137 0.950 . S
C1108 H1090 0.975 . S
C1108 C1109 1.349 1_455 S
C1108 C1110 1.380 1_455 S
C1109 C1108 1.349 1_655 S
C1109 C1113 1.385 . S
C1110 H1091 0.951 . S
C1110 C1108 1.380 1_655 S
C1110 C1111 1.366 . S
C1111 C1110 1.366 . S
C1111 C1112 1.414 . S
C1111 C1114 1.499 . S
C1112 H1092 0.950 . S
C1112 C1111 1.414 . S
C1112 C1113 1.374 . S
C1113 H1093 0.950 . S
C1113 C1109 1.385 . S
C1113 C1112 1.374 . S
C1114 C1111 1.499 . S
C1114 C1115 1.373 . S
C1114 C1116 1.389 . S
C1115 H1094 0.950 . S
C1115 C1114 1.373 . S
C1115 C1131 1.377 . S
C1116 C1114 1.389 . S
C1116 C1117 1.524 . S
C1116 C1130 1.377 . S
C1117 C1116 1.524 . S
C1117 C1118 1.397 . S
C1117 C1122 1.363 . S
C1118 H1095 0.950 . S
C1118 C1117 1.397 . S
C1118 C1119 1.334 . S
C1119 H1096 0.950 . S
C1119 C1118 1.334 . S
C1119 C1120 1.287 . S
C1120 C1119 1.287 . S
C1120 C1121 1.524 . S
C1120 H1139 0.913 . S
C1121 H1097 0.950 . S
C1121 C1120 1.524 . S
C1121 C1122 1.415 . S
C1122 H1098 0.950 . S
C1122 C1117 1.363 . S
C1122 C1121 1.415 . S
C1123 H1099 0.951 . S
C1123 C1124 1.366 . S
C1123 C1125 1.388 . S
C1124 C1123 1.366 . S
C1124 C1128 1.385 . S
C1125 H1100 0.951 . S
C1125 C1123 1.388 . S
C1125 C1126 1.366 . S
C1126 C1125 1.366 . S
C1126 C1127 1.414 . S
C1126 C1129 1.499 . S
C1127 H1101 0.950 . S
C1127 C1126 1.414 . S
C1127 C1128 1.374 . S
C1128 H1102 0.950 . S
C1128 C1124 1.385 . S
C1128 C1127 1.374 . S
C1129 C1126 1.499 . S
C1129 C1130 1.373 . S
C1129 C1131 1.389 . S
C1130 H1103 0.950 . S
C1130 C1116 1.377 . S
C1130 C1129 1.373 . S
C1131 C1115 1.377 . S
C1131 C1129 1.389 . S
C1131 C1132 1.524 . S
C1132 C1131 1.524 . S
C1132 C1133 1.397 . S
C1132 C1137 1.363 . S
C1133 H1104 0.950 . S
C1133 C1132 1.397 . S
C1133 C1134 1.334 . S
C1134 H1105 0.950 . S
C1134 C1133 1.334 . S
C1134 C1135 1.287 . S
C1135 C1134 1.287 . S
C1135 C1136 1.524 . S
C1135 H1138 0.999 . S
C1136 H1106 0.950 . S
C1136 C1135 1.524 . S
C1136 C1137 1.415 . S
C1137 H1107 0.950 . S
C1137 C1132 1.363 . S
C1137 C1136 1.415 . S
H1138 C1135 0.999 . S
H1139 C1120 0.913 . S
H1140 C1158 0.951 1_655 S
H1141 C1160 0.951 . S
H1142 C1162 0.950 . S
H1143 C1163 0.950 . S
H1144 C1165 0.950 . S
H1145 C1168 0.950 . S
H1146 C1169 0.950 . S
H1147 C1171 0.950 . S
H1148 C1172 0.950 . S
H1149 C1173 0.951 . S
H1150 C1175 0.951 . S
H1151 C1177 0.950 . S
H1152 C1178 0.950 . S
H1153 C1180 0.950 . S
H1154 C1183 0.950 . S
H1155 C1184 0.950 . S
H1156 C1186 0.950 . S
H1157 C1187 0.950 . S
C1158 H1140 0.951 1_455 S
C1158 C1159 1.366 . S
C1158 C1160 1.388 . S
C1159 C1158 1.366 . S
C1159 C1163 1.385 . S
C1160 H1141 0.951 . S
C1160 C1158 1.388 . S
C1160 C1161 1.366 . S
C1161 C1160 1.366 . S
C1161 C1162 1.414 . S
C1161 C1164 1.499 . S
C1162 H1142 0.950 . S
C1162 C1161 1.414 . S
C1162 C1163 1.374 . S
C1163 H1143 0.950 . S
C1163 C1159 1.385 . S
C1163 C1162 1.374 . S
C1164 C1161 1.499 . S
C1164 C1165 1.373 . S
C1164 C1166 1.389 . S
C1165 H1144 0.950 . S
C1165 C1164 1.373 . S
C1165 C1181 1.377 . S
C1166 C1164 1.389 . S
C1166 C1167 1.524 . S
C1166 C1180 1.377 . S
C1167 C1166 1.524 . S
C1167 C1168 1.397 . S
C1167 C1172 1.363 . S
C1168 H1145 0.950 . S
C1168 C1167 1.397 . S
C1168 C1169 1.334 . S
C1169 H1146 0.950 . S
C1169 C1168 1.334 . S
C1169 C1170 1.287 1_455 S
C1170 C1169 1.287 1_655 S
C1170 C1171 1.524 . S
C1170 H1189 0.913 . S
C1171 H1147 0.950 . S
C1171 C1170 1.524 . S
C1171 C1172 1.415 1_655 S
C1172 H1148 0.950 . S
C1172 C1167 1.363 . S
C1172 C1171 1.415 1_455 S
C1173 H1149 0.951 . S
C1173 C1174 1.366 . S
C1173 C1175 1.388 . S
C1174 C1173 1.366 . S
C1174 C1178 1.385 . S
C1175 H1150 0.951 . S
C1175 C1173 1.388 . S
C1175 C1176 1.366 . S
C1176 C1175 1.366 . S
C1176 C1177 1.414 . S
C1176 C1179 1.499 . S
C1177 H1151 0.950 . S
C1177 C1176 1.414 . S
C1177 C1178 1.374 . S
C1178 H1152 0.950 . S
C1178 C1174 1.385 . S
C1178 C1177 1.374 . S
C1179 C1176 1.499 . S
C1179 C1180 1.373 . S
C1179 C1181 1.389 . S
C1180 H1153 0.950 . S
C1180 C1166 1.377 . S
C1180 C1179 1.373 . S
C1181 C1165 1.377 . S
C1181 C1179 1.389 . S
C1181 C1182 1.524 . S
C1182 C1181 1.524 . S
C1182 C1183 1.397 . S
C1182 C1187 1.363 . S
C1183 H1154 0.950 . S
C1183 C1182 1.397 . S
C1183 C1184 1.334 . S
C1184 H1155 0.950 . S
C1184 C1183 1.334 . S
C1184 C1185 1.287 . S
C1185 C1184 1.287 . S
C1185 C1186 1.524 . S
C1185 H1188 0.999 . S
C1186 H1156 0.950 . S
C1186 C1185 1.524 . S
C1186 C1187 1.415 . S
C1187 H1157 0.950 . S
C1187 C1182 1.363 . S
C1187 C1186 1.415 . S
H1188 C1185 0.999 . S
H1189 C1170 0.913 . S
H1190 C1208 0.951 . S
H1191 C1210 0.951 . S
H1192 C1212 0.950 . S
H1193 C1213 0.950 1_565 S
H1194 C1215 0.950 . S
H1195 C1218 0.950 . S
H1196 C1219 0.950 . S
H1197 C1221 0.950 . S
H1198 C1222 0.950 . S
H1199 C1223 0.951 . S
H1200 C1225 0.951 . S
H1201 C1227 0.950 . S
H1202 C1228 0.950 . S
H1203 C1230 0.950 . S
H1204 C1233 0.950 . S
H1205 C1234 0.950 . S
H1206 C1236 0.950 . S
H1207 C1237 0.950 . S
C1208 H1190 0.951 . S
C1208 C1209 1.366 . S
C1208 C1210 1.388 . S
C1209 C1208 1.366 . S
C1209 C1213 1.385 . S
C1210 H1191 0.951 . S
C1210 C1208 1.388 . S
C1210 C1211 1.366 . S
C1211 C1210 1.366 . S
C1211 C1212 1.414 . S
C1211 C1214 1.499 . S
C1212 H1192 0.950 . S
C1212 C1211 1.414 . S
C1212 C1213 1.374 . S
C1213 H1193 0.950 1_545 S
C1213 C1209 1.385 . S
C1213 C1212 1.374 . S
C1214 C1211 1.499 . S
C1214 C1215 1.373 . S
C1214 C1216 1.389 . S
C1215 H1194 0.950 . S
C1215 C1214 1.373 . S
C1215 C1231 1.377 . S
C1216 C1214 1.389 . S
C1216 C1217 1.524 . S
C1216 C1230 1.377 . S
C1217 C1216 1.524 . S
C1217 C1218 1.397 . S
C1217 C1222 1.363 . S
C1218 H1195 0.950 . S
C1218 C1217 1.397 . S
C1218 C1219 1.334 . S
C1219 H1196 0.950 . S
C1219 C1218 1.334 . S
C1219 C1220 1.287 . S
C1220 C1219 1.287 . S
C1220 C1221 1.524 . S
C1220 H1239 0.913 . S
C1221 H1197 0.950 . S
C1221 C1220 1.524 . S
C1221 C1222 1.415 . S
C1222 H1198 0.950 . S
C1222 C1217 1.363 . S
C1222 C1221 1.415 . S
C1223 H1199 0.951 . S
C1223 C1224 1.366 . S
C1223 C1225 1.388 . S
C1224 C1223 1.366 . S
C1224 C1228 1.385 . S
C1225 H1200 0.951 . S
C1225 C1223 1.388 . S
C1225 C1226 1.366 . S
C1226 C1225 1.366 . S
C1226 C1227 1.414 . S
C1226 C1229 1.499 . S
C1227 H1201 0.950 . S
C1227 C1226 1.414 . S
C1227 C1228 1.374 . S
C1228 H1202 0.950 . S
C1228 C1224 1.385 . S
C1228 C1227 1.374 . S
C1229 C1226 1.499 . S
C1229 C1230 1.373 . S
C1229 C1231 1.389 . S
C1230 H1203 0.950 . S
C1230 C1216 1.377 . S
C1230 C1229 1.373 . S
C1231 C1215 1.377 . S
C1231 C1229 1.389 . S
C1231 C1232 1.524 . S
C1232 C1231 1.524 . S
C1232 C1233 1.397 . S
C1232 C1237 1.363 . S
C1233 H1204 0.950 . S
C1233 C1232 1.397 . S
C1233 C1234 1.334 . S
C1234 H1205 0.950 . S
C1234 C1233 1.334 . S
C1234 C1235 1.287 . S
C1235 C1234 1.287 . S
C1235 C1236 1.524 . S
C1235 H1238 0.999 . S
C1236 H1206 0.950 . S
C1236 C1235 1.524 . S
C1236 C1237 1.415 . S
C1237 H1207 0.950 . S
C1237 C1232 1.363 . S
C1237 C1236 1.415 . S
H1238 C1235 0.999 . S
H1239 C1220 0.913 . S
H1240 C1258 0.951 . S
H1241 C1260 0.951 . S
H1242 C1262 0.950 . S
H1243 C1263 0.950 . S
H1244 C1265 0.950 . S
H1245 C1268 0.950 . S
H1246 C1269 0.950 . S
H1247 C1271 0.950 . S
H1248 C1272 0.950 . S
H1249 C1273 0.951 . S
H1250 C1275 0.951 . S
H1251 C1277 0.950 . S
H1252 C1278 0.950 . S
H1253 C1280 0.950 . S
H1254 C1283 0.950 . S
H1255 C1284 0.950 . S
H1256 C1286 0.950 . S
H1257 C1287 0.950 . S
C1258 H1240 0.951 . S
C1258 C1259 1.366 . S
C1258 C1260 1.388 . S
C1259 C1258 1.366 . S
C1259 C1263 1.385 . S
C1260 H1241 0.951 . S
C1260 C1258 1.388 . S
C1260 C1261 1.366 . S
C1261 C1260 1.366 . S
C1261 C1262 1.414 . S
C1261 C1264 1.499 . S
C1262 H1242 0.950 . S
C1262 C1261 1.414 . S
C1262 C1263 1.374 . S
C1263 H1243 0.950 . S
C1263 C1259 1.385 . S
C1263 C1262 1.374 . S
C1264 C1261 1.499 . S
C1264 C1265 1.373 . S
C1264 C1266 1.389 . S
C1265 H1244 0.950 . S
C1265 C1264 1.373 . S
C1265 C1281 1.377 . S
C1266 C1264 1.389 . S
C1266 C1267 1.524 . S
C1266 C1280 1.377 . S
C1267 C1266 1.524 . S
C1267 C1268 1.397 . S
C1267 C1272 1.363 . S
C1268 H1245 0.950 . S
C1268 C1267 1.397 . S
C1268 C1269 1.334 . S
C1269 H1246 0.950 . S
C1269 C1268 1.334 . S
C1269 C1270 1.287 . S
C1270 C1269 1.287 . S
C1270 C1271 1.524 . S
C1270 H1289 0.913 . S
C1271 H1247 0.950 . S
C1271 C1270 1.524 . S
C1271 C1272 1.415 . S
C1272 H1248 0.950 . S
C1272 C1267 1.363 . S
C1272 C1271 1.415 . S
C1273 H1249 0.951 . S
C1273 C1274 1.366 . S
C1273 C1275 1.388 . S
C1274 C1273 1.366 . S
C1274 C1278 1.385 . S
C1275 H1250 0.951 . S
C1275 C1273 1.388 . S
C1275 C1276 1.366 . S
C1276 C1275 1.366 . S
C1276 C1277 1.414 . S
C1276 C1279 1.499 . S
C1277 H1251 0.950 . S
C1277 C1276 1.414 . S
C1277 C1278 1.374 . S
C1278 H1252 0.950 . S
C1278 C1274 1.385 . S
C1278 C1277 1.374 . S
C1279 C1276 1.499 . S
C1279 C1280 1.373 . S
C1279 C1281 1.389 . S
C1280 H1253 0.950 . S
C1280 C1266 1.377 . S
C1280 C1279 1.373 . S
C1281 C1265 1.377 . S
C1281 C1279 1.389 . S
C1281 C1282 1.524 . S
C1282 C1281 1.524 . S
C1282 C1283 1.397 . S
C1282 C1287 1.363 . S
C1283 H1254 0.950 . S
C1283 C1282 1.397 . S
C1283 C1284 1.334 . S
C1284 H1255 0.950 . S
C1284 C1283 1.334 . S
C1284 C1285 1.287 . S
C1285 C1284 1.287 . S
C1285 C1286 1.524 . S
C1285 H1288 0.999 . S
C1286 H1256 0.950 . S
C1286 C1285 1.524 . S
C1286 C1287 1.415 . S
C1287 H1257 0.950 . S
C1287 C1282 1.363 . S
C1287 C1286 1.415 . S
H1288 C1285 0.999 . S
H1289 C1270 0.913 . S
H1290 C1308 0.951 . S
H1291 C1310 0.951 . S
H1292 C1312 0.950 . S
H1293 C1313 0.950 . S
H1294 C1315 0.950 . S
H1295 C1318 0.950 . S
H1296 C1319 0.950 . S
H1297 C1321 0.950 . S
H1298 C1322 0.950 1_556 S
H1299 C1323 0.961 1_455 S
H1300 C1325 0.998 . S
H1301 C1327 0.950 . S
H1302 C1328 0.950 . S
H1303 C1330 0.950 . S
H1304 C1333 0.950 . S
H1305 C1334 0.950 . S
H1306 C1336 0.950 . S
H1307 C1337 0.950 . S
C1308 H1290 0.951 . S
C1308 C1309 1.366 . S
C1308 C1310 1.388 . S
C1309 C1308 1.366 . S
C1309 C1313 1.385 . S
C1310 H1291 0.951 . S
C1310 C1308 1.388 . S
C1310 C1311 1.366 . S
C1311 C1310 1.366 . S
C1311 C1312 1.414 . S
C1311 C1314 1.499 . S
C1312 H1292 0.950 . S
C1312 C1311 1.414 . S
C1312 C1313 1.374 . S
C1313 H1293 0.950 . S
C1313 C1309 1.385 . S
C1313 C1312 1.374 . S
C1314 C1311 1.499 . S
C1314 C1315 1.373 . S
C1314 C1316 1.389 . S
C1315 H1294 0.950 . S
C1315 C1314 1.373 . S
C1315 C1331 1.377 . S
C1316 C1314 1.389 . S
C1316 C1317 1.524 . S
C1316 C1330 1.377 . S
C1317 C1316 1.524 . S
C1317 C1318 1.397 . S
C1317 C1322 1.363 . S
C1318 H1295 0.950 . S
C1318 C1317 1.397 . S
C1318 C1319 1.334 . S
C1319 H1296 0.950 . S
C1319 C1318 1.334 . S
C1319 C1320 1.287 . S
C1320 C1319 1.287 . S
C1320 C1321 1.524 . S
C1320 H1339 0.913 . S
C1321 H1297 0.950 . S
C1321 C1320 1.524 . S
C1321 C1322 1.415 . S
C1322 H1298 0.950 1_554 S
C1322 C1317 1.363 . S
C1322 C1321 1.415 . S
C1323 H1299 0.961 1_655 S
C1323 C1324 1.366 . S
C1323 C1325 1.367 1_556 S
C1324 C1323 1.366 . S
C1324 C1328 1.385 . S
C1325 H1300 0.998 . S
C1325 C1323 1.367 1_554 S
C1325 C1326 1.343 1_554 S
C1326 C1325 1.343 1_556 S
C1326 C1327 1.414 . S
C1326 C1329 1.483 1_556 S
C1327 H1301 0.950 . S
C1327 C1326 1.414 . S
C1327 C1328 1.374 . S
C1328 H1302 0.950 . S
C1328 C1324 1.385 . S
C1328 C1327 1.374 . S
C1329 C1326 1.483 1_554 S
C1329 C1330 1.386 . S
C1329 C1331 1.398 . S
C1330 H1303 0.950 . S
C1330 C1316 1.377 . S
C1330 C1329 1.386 . S
C1331 C1315 1.377 . S
C1331 C1329 1.398 . S
C1331 C1332 1.524 1_554 S
C1332 C1331 1.524 1_556 S
C1332 C1333 1.397 . S
C1332 C1337 1.363 1_556 S
C1333 H1304 0.950 . S
C1333 C1332 1.397 . S
C1333 C1334 1.334 . S
C1334 H1305 0.950 . S
C1334 C1333 1.334 . S
C1334 C1335 1.287 1_655 S
C1335 C1334 1.287 1_455 S
C1335 C1336 1.524 1_556 S
C1335 H1338 0.999 . S
C1336 H1306 0.950 . S
C1336 C1335 1.524 1_554 S
C1336 C1337 1.415 1_455 S
C1337 H1307 0.950 . S
C1337 C1332 1.363 1_554 S
C1337 C1336 1.415 1_655 S
H1338 C1335 0.999 . S
H1339 C1320 0.913 . S
H1340 C1358 0.951 1_545 S
H1341 C1360 0.951 . S
H1342 C1362 0.950 . S
H1343 C1363 0.950 . S
H1344 C1365 0.950 . S
H1345 C1368 0.950 . S
H1346 C1369 0.950 . S
H1347 C1371 0.950 . S
H1348 C1372 0.950 . S
H1349 C1373 0.951 . S
H1350 C1375 0.951 . S
H1351 C1377 0.950 . S
H1352 C1378 0.950 . S
H1353 C1380 0.950 . S
H1354 C1383 0.950 . S
H1355 C1384 0.950 . S
H1356 C1386 0.950 . S
H1357 C1387 0.950 . S
C1358 H1340 0.951 1_565 S
C1358 C1359 1.366 . S
C1358 C1360 1.388 . S
C1359 C1358 1.366 . S
C1359 C1363 1.385 . S
C1360 H1341 0.951 . S
C1360 C1358 1.388 . S
C1360 C1361 1.366 . S
C1361 C1360 1.366 . S
C1361 C1362 1.414 . S
C1361 C1364 1.499 . S
C1362 H1342 0.950 . S
C1362 C1361 1.414 . S
C1362 C1363 1.374 . S
C1363 H1343 0.950 . S
C1363 C1359 1.385 . S
C1363 C1362 1.374 . S
C1364 C1361 1.499 . S
C1364 C1365 1.373 . S
C1364 C1366 1.389 . S
C1365 H1344 0.950 . S
C1365 C1364 1.373 . S
C1365 C1381 1.377 . S
C1366 C1364 1.389 . S
C1366 C1367 1.524 . S
C1366 C1380 1.377 . S
C1367 C1366 1.524 . S
C1367 C1368 1.397 . S
C1367 C1372 1.363 . S
C1368 H1345 0.950 . S
C1368 C1367 1.397 . S
C1368 C1369 1.334 1_565 S
C1369 H1346 0.950 . S
C1369 C1368 1.334 1_545 S
C1369 C1370 1.287 . S
C1370 C1369 1.287 . S
C1370 C1371 1.524 . S
C1370 H1389 0.913 . S
C1371 H1347 0.950 . S
C1371 C1370 1.524 . S
C1371 C1372 1.415 1_545 S
C1372 H1348 0.950 . S
C1372 C1367 1.363 . S
C1372 C1371 1.415 1_565 S
C1373 H1349 0.951 . S
C1373 C1374 1.366 . S
C1373 C1375 1.388 . S
C1374 C1373 1.366 . S
C1374 C1378 1.385 . S
C1375 H1350 0.951 . S
C1375 C1373 1.388 . S
C1375 C1376 1.366 . S
C1376 C1375 1.366 . S
C1376 C1377 1.414 . S
C1376 C1379 1.499 . S
C1377 H1351 0.950 . S
C1377 C1376 1.414 . S
C1377 C1378 1.374 . S
C1378 H1352 0.950 . S
C1378 C1374 1.385 . S
C1378 C1377 1.374 . S
C1379 C1376 1.499 . S
C1379 C1380 1.373 . S
C1379 C1381 1.389 . S
C1380 H1353 0.950 . S
C1380 C1366 1.377 . S
C1380 C1379 1.373 . S
C1381 C1365 1.377 . S
C1381 C1379 1.389 . S
C1381 C1382 1.524 . S
C1382 C1381 1.524 . S
C1382 C1383 1.397 . S
C1382 C1387 1.363 . S
C1383 H1354 0.950 . S
C1383 C1382 1.397 . S
C1383 C1384 1.334 . S
C1384 H1355 0.950 . S
C1384 C1383 1.334 . S
C1384 C1385 1.287 . S
C1385 C1384 1.287 . S
C1385 C1386 1.524 . S
C1385 H1388 0.999 . S
C1386 H1356 0.950 . S
C1386 C1385 1.524 . S
C1386 C1387 1.415 . S
C1387 H1357 0.950 . S
C1387 C1382 1.363 . S
C1387 C1386 1.415 . S
H1388 C1385 0.999 . S
H1389 C1370 0.913 . S
H1390 C1408 0.951 . S
H1391 C1410 0.951 . S
H1392 C1412 0.950 . S
H1393 C1413 0.950 . S
H1394 C1415 0.950 . S
H1395 C1418 0.950 . S
H1396 C1419 0.950 . S
H1397 C1421 0.950 . S
H1398 C1422 0.950 . S
H1399 C1423 0.951 . S
H1400 C1425 0.951 . S
H1401 C1427 0.950 . S
H1402 C1428 0.950 . S
H1403 C1430 0.950 . S
H1404 C1433 0.950 . S
H1405 C1434 0.950 . S
H1406 C1436 0.950 . S
H1407 C1437 0.950 . S
C1408 H1390 0.951 . S
C1408 C1409 1.366 . S
C1408 C1410 1.388 . S
C1409 C1408 1.366 . S
C1409 C1413 1.385 . S
C1410 H1391 0.951 . S
C1410 C1408 1.388 . S
C1410 C1411 1.366 . S
C1411 C1410 1.366 . S
C1411 C1412 1.414 . S
C1411 C1414 1.499 . S
C1412 H1392 0.950 . S
C1412 C1411 1.414 . S
C1412 C1413 1.374 . S
C1413 H1393 0.950 . S
C1413 C1409 1.385 . S
C1413 C1412 1.374 . S
C1414 C1411 1.499 . S
C1414 C1415 1.373 . S
C1414 C1416 1.389 . S
C1415 H1394 0.950 . S
C1415 C1414 1.373 . S
C1415 C1431 1.377 . S
C1416 C1414 1.389 . S
C1416 C1417 1.524 . S
C1416 C1430 1.377 . S
C1417 C1416 1.524 . S
C1417 C1418 1.397 . S
C1417 C1422 1.363 . S
C1418 H1395 0.950 . S
C1418 C1417 1.397 . S
C1418 C1419 1.334 . S
C1419 H1396 0.950 . S
C1419 C1418 1.334 . S
C1419 C1420 1.287 . S
C1420 C1419 1.287 . S
C1420 C1421 1.524 . S
C1420 H1439 0.913 . S
C1421 H1397 0.950 . S
C1421 C1420 1.524 . S
C1421 C1422 1.415 . S
C1422 H1398 0.950 . S
C1422 C1417 1.363 . S
C1422 C1421 1.415 . S
C1423 H1399 0.951 . S
C1423 C1424 1.366 . S
C1423 C1425 1.388 . S
C1424 C1423 1.366 . S
C1424 C1428 1.385 . S
C1425 H1400 0.951 . S
C1425 C1423 1.388 . S
C1425 C1426 1.366 . S
C1426 C1425 1.366 . S
C1426 C1427 1.414 . S
C1426 C1429 1.499 . S
C1427 H1401 0.950 . S
C1427 C1426 1.414 . S
C1427 C1428 1.374 . S
C1428 H1402 0.950 . S
C1428 C1424 1.385 . S
C1428 C1427 1.374 . S
C1429 C1426 1.499 . S
C1429 C1430 1.373 . S
C1429 C1431 1.389 . S
C1430 H1403 0.950 . S
C1430 C1416 1.377 . S
C1430 C1429 1.373 . S
C1431 C1415 1.377 . S
C1431 C1429 1.389 . S
C1431 C1432 1.524 . S
C1432 C1431 1.524 . S
C1432 C1433 1.397 . S
C1432 C1437 1.363 . S
C1433 H1404 0.950 . S
C1433 C1432 1.397 . S
C1433 C1434 1.334 . S
C1434 H1405 0.950 . S
C1434 C1433 1.334 . S
C1434 C1435 1.287 . S
C1435 C1434 1.287 . S
C1435 C1436 1.524 . S
C1435 H1438 0.999 . S
C1436 H1406 0.950 . S
C1436 C1435 1.524 . S
C1436 C1437 1.415 . S
C1437 H1407 0.950 . S
C1437 C1432 1.363 . S
C1437 C1436 1.415 . S
H1438 C1435 0.999 . S
H1439 C1420 0.913 . S
H1440 C1458 0.951 . S
H1441 C1460 0.951 . S
H1442 C1462 0.950 . S
H1443 C1463 0.950 . S
H1444 C1465 0.950 . S
H1445 C1468 0.950 . S
H1446 C1469 0.950 . S
H1447 C1471 0.950 . S
H1448 C1472 0.950 . S
H1449 C1473 0.951 . S
H1450 C1475 0.951 . S
H1451 C1477 0.950 . S
H1452 C1478 0.950 1_545 S
H1453 C1480 0.950 . S
H1454 C1483 0.950 . S
H1455 C1484 0.950 . S
H1456 C1486 0.950 . S
H1457 C1487 0.950 . S
C1458 H1440 0.951 . S
C1458 C1459 1.366 . S
C1458 C1460 1.388 . S
C1459 C1458 1.366 . S
C1459 C1463 1.385 . S
C1460 H1441 0.951 . S
C1460 C1458 1.388 . S
C1460 C1461 1.366 . S
C1461 C1460 1.366 . S
C1461 C1462 1.414 . S
C1461 C1464 1.499 . S
C1462 H1442 0.950 . S
C1462 C1461 1.414 . S
C1462 C1463 1.374 . S
C1463 H1443 0.950 . S
C1463 C1459 1.385 . S
C1463 C1462 1.374 . S
C1464 C1461 1.499 . S
C1464 C1465 1.373 . S
C1464 C1466 1.389 . S
C1465 H1444 0.950 . S
C1465 C1464 1.373 . S
C1465 C1481 1.377 . S
C1466 C1464 1.389 . S
C1466 C1467 1.524 . S
C1466 C1480 1.377 . S
C1467 C1466 1.524 . S
C1467 C1468 1.397 . S
C1467 C1472 1.363 . S
C1468 H1445 0.950 . S
C1468 C1467 1.397 . S
C1468 C1469 1.334 . S
C1469 H1446 0.950 . S
C1469 C1468 1.334 . S
C1469 C1470 1.287 . S
C1470 C1469 1.287 . S
C1470 C1471 1.524 . S
C1470 H1489 0.913 1_455 S
C1471 H1447 0.950 . S
C1471 C1470 1.524 . S
C1471 C1472 1.415 . S
C1472 H1448 0.950 . S
C1472 C1467 1.363 . S
C1472 C1471 1.415 . S
C1473 H1449 0.951 . S
C1473 C1474 1.366 . S
C1473 C1475 1.388 . S
C1474 C1473 1.366 . S
C1474 C1478 1.385 . S
C1475 H1450 0.951 . S
C1475 C1473 1.388 . S
C1475 C1476 1.366 . S
C1476 C1475 1.366 . S
C1476 C1477 1.414 . S
C1476 C1479 1.499 . S
C1477 H1451 0.950 . S
C1477 C1476 1.414 . S
C1477 C1478 1.374 . S
C1478 H1452 0.950 1_565 S
C1478 C1474 1.385 . S
C1478 C1477 1.374 . S
C1479 C1476 1.499 . S
C1479 C1480 1.373 . S
C1479 C1481 1.389 . S
C1480 H1453 0.950 . S
C1480 C1466 1.377 . S
C1480 C1479 1.373 . S
C1481 C1465 1.377 . S
C1481 C1479 1.389 . S
C1481 C1482 1.524 . S
C1482 C1481 1.524 . S
C1482 C1483 1.397 . S
C1482 C1487 1.363 . S
C1483 H1454 0.950 . S
C1483 C1482 1.397 . S
C1483 C1484 1.334 . S
C1484 H1455 0.950 . S
C1484 C1483 1.334 . S
C1484 C1485 1.287 . S
C1485 C1484 1.287 . S
C1485 C1486 1.524 . S
C1485 H1488 0.999 . S
C1486 H1456 0.950 . S
C1486 C1485 1.524 . S
C1486 C1487 1.415 . S
C1487 H1457 0.950 . S
C1487 C1482 1.363 . S
C1487 C1486 1.415 . S
H1488 C1485 0.999 . S
H1489 C1470 0.913 1_655 S
H1490 C1508 0.951 . S
H1491 C1510 0.951 . S
H1492 C1512 0.950 . S
H1493 C1513 0.950 . S
H1494 C1515 0.950 . S
H1495 C1518 0.950 . S
H1496 C1519 0.950 . S
H1497 C1521 0.950 . S
H1498 C1522 0.950 . S
H1499 C1523 0.951 . S
H1500 C1525 0.951 . S
H1501 C1527 0.950 . S
H1502 C1528 0.950 . S
H1503 C1530 0.950 . S
H1504 C1533 0.950 . S
H1505 C1534 0.950 . S
H1506 C1536 0.950 . S
H1507 C1537 0.950 . S
C1508 H1490 0.951 . S
C1508 C1509 1.366 . S
C1508 C1510 1.388 . S
C1509 C1508 1.366 . S
C1509 C1513 1.385 . S
C1510 H1491 0.951 . S
C1510 C1508 1.388 . S
C1510 C1511 1.366 . S
C1511 C1510 1.366 . S
C1511 C1512 1.414 . S
C1511 C1514 1.499 . S
C1512 H1492 0.950 . S
C1512 C1511 1.414 . S
C1512 C1513 1.374 . S
C1513 H1493 0.950 . S
C1513 C1509 1.385 . S
C1513 C1512 1.374 . S
C1514 C1511 1.499 . S
C1514 C1515 1.373 . S
C1514 C1516 1.389 . S
C1515 H1494 0.950 . S
C1515 C1514 1.373 . S
C1515 C1531 1.377 . S
C1516 C1514 1.389 . S
C1516 C1517 1.524 . S
C1516 C1530 1.377 . S
C1517 C1516 1.524 . S
C1517 C1518 1.397 . S
C1517 C1522 1.363 . S
C1518 H1495 0.950 . S
C1518 C1517 1.397 . S
C1518 C1519 1.334 . S
C1519 H1496 0.950 . S
C1519 C1518 1.334 . S
C1519 C1520 1.287 . S
C1520 C1519 1.287 . S
C1520 C1521 1.524 . S
C1520 H1539 0.913 . S
C1521 H1497 0.950 . S
C1521 C1520 1.524 . S
C1521 C1522 1.415 . S
C1522 H1498 0.950 . S
C1522 C1517 1.363 . S
C1522 C1521 1.415 . S
C1523 H1499 0.951 . S
C1523 C1524 1.366 . S
C1523 C1525 1.388 . S
C1524 C1523 1.366 . S
C1524 C1528 1.385 . S
C1525 H1500 0.951 . S
C1525 C1523 1.388 . S
C1525 C1526 1.366 . S
C1526 C1525 1.366 . S
C1526 C1527 1.414 . S
C1526 C1529 1.499 . S
C1527 H1501 0.950 . S
C1527 C1526 1.414 . S
C1527 C1528 1.374 . S
C1528 H1502 0.950 . S
C1528 C1524 1.385 . S
C1528 C1527 1.374 . S
C1529 C1526 1.499 . S
C1529 C1530 1.373 . S
C1529 C1531 1.389 . S
C1530 H1503 0.950 . S
C1530 C1516 1.377 . S
C1530 C1529 1.373 . S
C1531 C1515 1.377 . S
C1531 C1529 1.389 . S
C1531 C1532 1.524 . S
C1532 C1531 1.524 . S
C1532 C1533 1.397 . S
C1532 C1537 1.363 . S
C1533 H1504 0.950 . S
C1533 C1532 1.397 . S
C1533 C1534 1.334 . S
C1534 H1505 0.950 . S
C1534 C1533 1.334 . S
C1534 C1535 1.287 . S
C1535 C1534 1.287 . S
C1535 C1536 1.524 . S
C1535 H1538 0.999 . S
C1536 H1506 0.950 . S
C1536 C1535 1.524 . S
C1536 C1537 1.415 . S
C1537 H1507 0.950 . S
C1537 C1532 1.363 . S
C1537 C1536 1.415 . S
H1538 C1535 0.999 . S
H1539 C1520 0.913 . S
H1540 C1558 0.951 . S
H1541 C1560 0.951 . S
H1542 C1562 0.950 . S
H1543 C1563 0.950 . S
H1544 C1565 0.950 . S
H1545 C1568 0.950 . S
H1546 C1569 0.950 . S
H1547 C1571 0.950 . S
H1548 C1572 0.950 . S
H1549 C1573 0.951 . S
H1550 C1575 0.951 . S
H1551 C1577 0.950 . S
H1552 C1578 0.950 . S
H1553 C1580 0.950 . S
H1554 C1583 0.950 . S
H1555 C1584 0.950 . S
H1556 C1586 0.950 . S
H1557 C1587 0.950 . S
C1558 H1540 0.951 . S
C1558 C1559 1.366 . S
C1558 C1560 1.388 . S
C1559 C1558 1.366 . S
C1559 C1563 1.385 . S
C1560 H1541 0.951 . S
C1560 C1558 1.388 . S
C1560 C1561 1.366 . S
C1561 C1560 1.366 . S
C1561 C1562 1.414 . S
C1561 C1564 1.499 . S
C1562 H1542 0.950 . S
C1562 C1561 1.414 . S
C1562 C1563 1.374 . S
C1563 H1543 0.950 . S
C1563 C1559 1.385 . S
C1563 C1562 1.374 . S
C1564 C1561 1.499 . S
C1564 C1565 1.373 . S
C1564 C1566 1.389 . S
C1565 H1544 0.950 . S
C1565 C1564 1.373 . S
C1565 C1581 1.377 . S
C1566 C1564 1.389 . S
C1566 C1567 1.524 . S
C1566 C1580 1.377 . S
C1567 C1566 1.524 . S
C1567 C1568 1.397 . S
C1567 C1572 1.363 . S
C1568 H1545 0.950 . S
C1568 C1567 1.397 . S
C1568 C1569 1.334 . S
C1569 H1546 0.950 . S
C1569 C1568 1.334 . S
C1569 C1570 1.287 . S
C1570 C1569 1.287 . S
C1570 C1571 1.524 . S
C1570 H1589 0.913 . S
C1571 H1547 0.950 . S
C1571 C1570 1.524 . S
C1571 C1572 1.415 . S
C1572 H1548 0.950 . S
C1572 C1567 1.363 . S
C1572 C1571 1.415 . S
C1573 H1549 0.951 . S
C1573 C1574 1.366 . S
C1573 C1575 1.388 . S
C1574 C1573 1.366 . S
C1574 C1578 1.385 . S
C1575 H1550 0.951 . S
C1575 C1573 1.388 . S
C1575 C1576 1.366 . S
C1576 C1575 1.366 . S
C1576 C1577 1.414 . S
C1576 C1579 1.499 . S
C1577 H1551 0.950 . S
C1577 C1576 1.414 . S
C1577 C1578 1.374 . S
C1578 H1552 0.950 . S
C1578 C1574 1.385 . S
C1578 C1577 1.374 . S
C1579 C1576 1.499 . S
C1579 C1580 1.373 . S
C1579 C1581 1.389 . S
C1580 H1553 0.950 . S
C1580 C1566 1.377 . S
C1580 C1579 1.373 . S
C1581 C1565 1.377 . S
C1581 C1579 1.389 . S
C1581 C1582 1.524 . S
C1582 C1581 1.524 . S
C1582 C1583 1.397 . S
C1582 C1587 1.363 . S
C1583 H1554 0.950 . S
C1583 C1582 1.397 . S
C1583 C1584 1.334 . S
C1584 H1555 0.950 . S
C1584 C1583 1.334 . S
C1584 C1585 1.287 . S
C1585 C1584 1.287 . S
C1585 C1586 1.524 . S
C1585 H1588 0.999 . S
C1586 H1556 0.950 . S
C1586 C1585 1.524 . S
C1586 C1587 1.415 . S
C1587 H1557 0.950 . S
C1587 C1582 1.363 . S
C1587 C1586 1.415 . S
H1588 C1585 0.999 . S
H1589 C1570 0.913 . S
H1590 C1608 0.951 . S
H1591 C1610 0.951 . S
H1592 C1612 0.950 . S
H1593 C1613 0.950 . S
H1594 C1615 0.950 . S
H1595 C1618 0.950 . S
H1596 C1619 0.950 . S
H1597 C1621 0.950 . S
H1598 C1622 0.950 . S
H1599 C1623 0.951 1_455 S
H1600 C1625 0.951 . S
H1601 C1627 0.950 . S
H1602 C1628 0.950 . S
H1603 C1630 0.950 . S
H1604 C1633 0.950 . S
H1605 C1634 0.950 . S
H1606 C1636 0.950 . S
H1607 C1637 0.950 . S
C1608 H1590 0.951 . S
C1608 C1609 1.366 . S
C1608 C1610 1.388 . S
C1609 C1608 1.366 . S
C1609 C1613 1.385 . S
C1610 H1591 0.951 . S
C1610 C1608 1.388 . S
C1610 C1611 1.366 . S
C1611 C1610 1.366 . S
C1611 C1612 1.414 . S
C1611 C1614 1.499 . S
C1612 H1592 0.950 . S
C1612 C1611 1.414 . S
C1612 C1613 1.374 . S
C1613 H1593 0.950 . S
C1613 C1609 1.385 . S
C1613 C1612 1.374 . S
C1614 C1611 1.499 . S
C1614 C1615 1.373 . S
C1614 C1616 1.389 . S
C1615 H1594 0.950 . S
C1615 C1614 1.373 . S
C1615 C1631 1.377 . S
C1616 C1614 1.389 . S
C1616 C1617 1.524 . S
C1616 C1630 1.377 . S
C1617 C1616 1.524 . S
C1617 C1618 1.397 . S
C1617 C1622 1.363 . S
C1618 H1595 0.950 . S
C1618 C1617 1.397 . S
C1618 C1619 1.334 . S
C1619 H1596 0.950 . S
C1619 C1618 1.334 . S
C1619 C1620 1.287 . S
C1620 C1619 1.287 . S
C1620 C1621 1.524 . S
C1620 H1639 0.913 . S
C1621 H1597 0.950 . S
C1621 C1620 1.524 . S
C1621 C1622 1.415 . S
C1622 H1598 0.950 . S
C1622 C1617 1.363 . S
C1622 C1621 1.415 . S
C1623 H1599 0.951 1_655 S
C1623 C1624 1.366 . S
C1623 C1625 1.388 . S
C1624 C1623 1.366 . S
C1624 C1628 1.385 . S
C1625 H1600 0.951 . S
C1625 C1623 1.388 . S
C1625 C1626 1.366 . S
C1626 C1625 1.366 . S
C1626 C1627 1.414 . S
C1626 C1629 1.499 . S
C1627 H1601 0.950 . S
C1627 C1626 1.414 . S
C1627 C1628 1.374 . S
C1628 H1602 0.950 . S
C1628 C1624 1.385 . S
C1628 C1627 1.374 . S
C1629 C1626 1.499 . S
C1629 C1630 1.373 . S
C1629 C1631 1.389 . S
C1630 H1603 0.950 . S
C1630 C1616 1.377 . S
C1630 C1629 1.373 . S
C1631 C1615 1.377 . S
C1631 C1629 1.389 . S
C1631 C1632 1.524 . S
C1632 C1631 1.524 . S
C1632 C1633 1.397 . S
C1632 C1637 1.363 . S
C1633 H1604 0.950 . S
C1633 C1632 1.397 . S
C1633 C1634 1.334 . S
C1634 H1605 0.950 . S
C1634 C1633 1.334 . S
C1634 C1635 1.287 . S
C1635 C1634 1.287 . S
C1635 C1636 1.524 . S
C1635 H1638 0.999 . S
C1636 H1606 0.950 . S
C1636 C1635 1.524 . S
C1636 C1637 1.415 . S
C1637 H1607 0.950 . S
C1637 C1632 1.363 . S
C1637 C1636 1.415 . S
H1638 C1635 0.999 . S
H1639 C1620 0.913 . S
H1640 C1658 0.951 . S
H1641 C1660 0.951 . S
H1642 C1662 0.950 . S
H1643 C1663 0.950 . S
H1644 C1665 0.950 . S
H1645 C1668 0.950 . S
H1646 C1669 0.950 . S
H1647 C1671 0.950 . S
H1648 C1672 0.950 . S
H1649 C1673 0.951 . S
H1650 C1675 0.951 . S
H1651 C1677 0.950 . S
H1652 C1678 0.950 . S
H1653 C1680 0.950 . S
H1654 C1683 0.950 . S
H1655 C1684 0.950 . S
H1656 C1686 0.950 . S
H1657 C1687 0.950 . S
C1658 H1640 0.951 . S
C1658 C1659 1.366 . S
C1658 C1660 1.388 . S
C1659 C1658 1.366 . S
C1659 C1663 1.385 . S
C1660 H1641 0.951 . S
C1660 C1658 1.388 . S
C1660 C1661 1.366 . S
C1661 C1660 1.366 . S
C1661 C1662 1.414 . S
C1661 C1664 1.499 . S
C1662 H1642 0.950 . S
C1662 C1661 1.414 . S
C1662 C1663 1.374 . S
C1663 H1643 0.950 . S
C1663 C1659 1.385 . S
C1663 C1662 1.374 . S
C1664 C1661 1.499 . S
C1664 C1665 1.373 . S
C1664 C1666 1.389 . S
C1665 H1644 0.950 . S
C1665 C1664 1.373 . S
C1665 C1681 1.377 . S
C1666 C1664 1.389 . S
C1666 C1667 1.524 . S
C1666 C1680 1.377 . S
C1667 C1666 1.524 . S
C1667 C1668 1.397 . S
C1667 C1672 1.363 . S
C1668 H1645 0.950 . S
C1668 C1667 1.397 . S
C1668 C1669 1.334 . S
C1669 H1646 0.950 . S
C1669 C1668 1.334 . S
C1669 C1670 1.287 . S
C1670 C1669 1.287 . S
C1670 C1671 1.524 . S
C1670 H1689 0.913 . S
C1671 H1647 0.950 . S
C1671 C1670 1.524 . S
C1671 C1672 1.415 . S
C1672 H1648 0.950 . S
C1672 C1667 1.363 . S
C1672 C1671 1.415 . S
C1673 H1649 0.951 . S
C1673 C1674 1.366 . S
C1673 C1675 1.388 . S
C1674 C1673 1.366 . S
C1674 C1678 1.385 . S
C1675 H1650 0.951 . S
C1675 C1673 1.388 . S
C1675 C1676 1.366 . S
C1676 C1675 1.366 . S
C1676 C1677 1.414 . S
C1676 C1679 1.499 . S
C1677 H1651 0.950 . S
C1677 C1676 1.414 . S
C1677 C1678 1.374 . S
C1678 H1652 0.950 . S
C1678 C1674 1.385 . S
C1678 C1677 1.374 . S
C1679 C1676 1.499 . S
C1679 C1680 1.373 . S
C1679 C1681 1.389 . S
C1680 H1653 0.950 . S
C1680 C1666 1.377 . S
C1680 C1679 1.373 . S
C1681 C1665 1.377 . S
C1681 C1679 1.389 . S
C1681 C1682 1.524 . S
C1682 C1681 1.524 . S
C1682 C1683 1.397 . S
C1682 C1687 1.363 . S
C1683 H1654 0.950 . S
C1683 C1682 1.397 . S
C1683 C1684 1.334 . S
C1684 H1655 0.950 . S
C1684 C1683 1.334 . S
C1684 C1685 1.287 . S
C1685 C1684 1.287 . S
C1685 C1686 1.524 . S
C1685 H1688 0.999 . S
C1686 H1656 0.950 . S
C1686 C1685 1.524 . S
C1686 C1687 1.415 . S
C1687 H1657 0.950 . S
C1687 C1682 1.363 . S
C1687 C1686 1.415 . S
H1688 C1685 0.999 . S
H1689 C1670 0.913 . S
H1690 C1708 0.951 . S
H1691 C1710 0.951 . S
H1692 C1712 0.950 . S
H1693 C1713 0.950 . S
H1694 C1715 0.950 . S
H1695 C1718 0.950 . S
H1696 C1719 0.950 . S
H1697 C1721 0.950 . S
H1698 C1722 0.950 . S
H1699 C1723 0.951 . S
H1700 C1725 0.951 . S
H1701 C1727 0.950 . S
H1702 C1728 0.950 . S
H1703 C1730 0.950 . S
H1704 C1733 0.950 . S
H1705 C1734 0.950 . S
H1706 C1736 0.950 . S
H1707 C1737 0.950 . S
C1708 H1690 0.951 . S
C1708 C1709 1.366 . S
C1708 C1710 1.388 . S
C1709 C1708 1.366 . S
C1709 C1713 1.385 . S
C1710 H1691 0.951 . S
C1710 C1708 1.388 . S
C1710 C1711 1.366 . S
C1711 C1710 1.366 . S
C1711 C1712 1.414 . S
C1711 C1714 1.499 . S
C1712 H1692 0.950 . S
C1712 C1711 1.414 . S
C1712 C1713 1.374 . S
C1713 H1693 0.950 . S
C1713 C1709 1.385 . S
C1713 C1712 1.374 . S
C1714 C1711 1.499 . S
C1714 C1715 1.373 . S
C1714 C1716 1.389 . S
C1715 H1694 0.950 . S
C1715 C1714 1.373 . S
C1715 C1731 1.377 . S
C1716 C1714 1.389 . S
C1716 C1717 1.524 . S
C1716 C1730 1.377 . S
C1717 C1716 1.524 . S
C1717 C1718 1.397 . S
C1717 C1722 1.363 . S
C1718 H1695 0.950 . S
C1718 C1717 1.397 . S
C1718 C1719 1.334 . S
C1719 H1696 0.950 . S
C1719 C1718 1.334 . S
C1719 C1720 1.287 . S
C1720 C1719 1.287 . S
C1720 C1721 1.524 . S
C1720 H1739 0.913 . S
C1721 H1697 0.950 . S
C1721 C1720 1.524 . S
C1721 C1722 1.415 . S
C1722 H1698 0.950 . S
C1722 C1717 1.363 . S
C1722 C1721 1.415 . S
C1723 H1699 0.951 . S
C1723 C1724 1.366 . S
C1723 C1725 1.388 . S
C1724 C1723 1.366 . S
C1724 C1728 1.385 . S
C1725 H1700 0.951 . S
C1725 C1723 1.388 . S
C1725 C1726 1.366 . S
C1726 C1725 1.366 . S
C1726 C1727 1.414 . S
C1726 C1729 1.499 . S
C1727 H1701 0.950 . S
C1727 C1726 1.414 . S
C1727 C1728 1.374 . S
C1728 H1702 0.950 . S
C1728 C1724 1.385 . S
C1728 C1727 1.374 . S
C1729 C1726 1.499 . S
C1729 C1730 1.373 . S
C1729 C1731 1.389 . S
C1730 H1703 0.950 . S
C1730 C1716 1.377 . S
C1730 C1729 1.373 . S
C1731 C1715 1.377 . S
C1731 C1729 1.389 . S
C1731 C1732 1.524 . S
C1732 C1731 1.524 . S
C1732 C1733 1.397 . S
C1732 C1737 1.363 . S
C1733 H1704 0.950 . S
C1733 C1732 1.397 . S
C1733 C1734 1.334 . S
C1734 H1705 0.950 . S
C1734 C1733 1.334 . S
C1734 C1735 1.287 . S
C1735 C1734 1.287 . S
C1735 C1736 1.524 . S
C1735 H1738 0.999 1_655 S
C1736 H1706 0.950 . S
C1736 C1735 1.524 . S
C1736 C1737 1.415 . S
C1737 H1707 0.950 . S
C1737 C1732 1.363 . S
C1737 C1736 1.415 . S
H1738 C1735 0.999 1_455 S
H1739 C1720 0.913 . S
H1740 C1758 0.951 . S
H1741 C1760 0.951 . S
H1742 C1762 0.950 . S
H1743 C1763 0.950 . S
H1744 C1765 0.950 . S
H1745 C1768 0.950 . S
H1746 C1769 0.950 . S
H1747 C1771 0.950 . S
H1748 C1772 0.950 . S
H1749 C1773 0.951 . S
H1750 C1775 0.951 . S
H1751 C1777 0.950 . S
H1752 C1778 0.950 . S
H1753 C1780 0.950 . S
H1754 C1783 0.950 . S
H1755 C1784 0.950 . S
H1756 C1786 0.950 . S
H1757 C1787 0.950 . S
C1758 H1740 0.951 . S
C1758 C1759 1.366 . S
C1758 C1760 1.388 . S
C1759 C1758 1.366 . S
C1759 C1763 1.385 . S
C1760 H1741 0.951 . S
C1760 C1758 1.388 . S
C1760 C1761 1.366 . S
C1761 C1760 1.366 . S
C1761 C1762 1.414 . S
C1761 C1764 1.499 . S
C1762 H1742 0.950 . S
C1762 C1761 1.414 . S
C1762 C1763 1.374 . S
C1763 H1743 0.950 . S
C1763 C1759 1.385 . S
C1763 C1762 1.374 . S
C1764 C1761 1.499 . S
C1764 C1765 1.373 . S
C1764 C1766 1.389 . S
C1765 H1744 0.950 . S
C1765 C1764 1.373 . S
C1765 C1781 1.377 . S
C1766 C1764 1.389 . S
C1766 C1767 1.524 . S
C1766 C1780 1.377 . S
C1767 C1766 1.524 . S
C1767 C1768 1.397 . S
C1767 C1772 1.363 . S
C1768 H1745 0.950 . S
C1768 C1767 1.397 . S
C1768 C1769 1.334 . S
C1769 H1746 0.950 . S
C1769 C1768 1.334 . S
C1769 C1770 1.287 . S
C1770 C1769 1.287 . S
C1770 C1771 1.524 . S
C1770 H1789 0.913 . S
C1771 H1747 0.950 . S
C1771 C1770 1.524 . S
C1771 C1772 1.415 . S
C1772 H1748 0.950 . S
C1772 C1767 1.363 . S
C1772 C1771 1.415 . S
C1773 H1749 0.951 . S
C1773 C1774 1.366 . S
C1773 C1775 1.388 . S
C1774 C1773 1.366 . S
C1774 C1778 1.385 . S
C1775 H1750 0.951 . S
C1775 C1773 1.388 . S
C1775 C1776 1.366 . S
C1776 C1775 1.366 . S
C1776 C1777 1.414 . S
C1776 C1779 1.499 . S
C1777 H1751 0.950 . S
C1777 C1776 1.414 . S
C1777 C1778 1.374 . S
C1778 H1752 0.950 . S
C1778 C1774 1.385 . S
C1778 C1777 1.374 . S
C1779 C1776 1.499 . S
C1779 C1780 1.373 . S
C1779 C1781 1.389 . S
C1780 H1753 0.950 . S
C1780 C1766 1.377 . S
C1780 C1779 1.373 . S
C1781 C1765 1.377 . S
C1781 C1779 1.389 . S
C1781 C1782 1.524 . S
C1782 C1781 1.524 . S
C1782 C1783 1.397 . S
C1782 C1787 1.363 . S
C1783 H1754 0.950 . S
C1783 C1782 1.397 . S
C1783 C1784 1.334 . S
C1784 H1755 0.950 . S
C1784 C1783 1.334 . S
C1784 C1785 1.287 . S
C1785 C1784 1.287 . S
C1785 C1786 1.524 . S
C1785 H1788 0.999 . S
C1786 H1756 0.950 . S
C1786 C1785 1.524 . S
C1786 C1787 1.415 . S
C1787 H1757 0.950 . S
C1787 C1782 1.363 . S
C1787 C1786 1.415 . S
H1788 C1785 0.999 . S
H1789 C1770 0.913 . S
H1790 C1808 0.951 . S
H1791 C1810 0.951 . S
H1792 C1812 0.950 . S
H1793 C1813 0.950 . S
H1794 C1815 0.950 . S
H1795 C1818 0.950 . S
H1796 C1819 0.950 . S
H1797 C1821 0.950 . S
H1798 C1822 0.950 . S
H1799 C1823 0.951 . S
H1800 C1825 0.951 . S
H1801 C1827 0.950 . S
H1802 C1828 0.950 . S
H1803 C1830 0.950 . S
H1804 C1833 0.950 . S
H1805 C1834 0.950 . S
H1806 C1836 0.950 . S
H1807 C1837 0.950 . S
C1808 H1790 0.951 . S
C1808 C1809 1.366 . S
C1808 C1810 1.388 . S
C1809 C1808 1.366 . S
C1809 C1813 1.385 . S
C1810 H1791 0.951 . S
C1810 C1808 1.388 . S
C1810 C1811 1.366 . S
C1811 C1810 1.366 . S
C1811 C1812 1.414 . S
C1811 C1814 1.499 . S
C1812 H1792 0.950 . S
C1812 C1811 1.414 . S
C1812 C1813 1.374 . S
C1813 H1793 0.950 . S
C1813 C1809 1.385 . S
C1813 C1812 1.374 . S
C1814 C1811 1.499 . S
C1814 C1815 1.373 . S
C1814 C1816 1.389 . S
C1815 H1794 0.950 . S
C1815 C1814 1.373 . S
C1815 C1831 1.377 . S
C1816 C1814 1.389 . S
C1816 C1817 1.524 . S
C1816 C1830 1.377 . S
C1817 C1816 1.524 . S
C1817 C1818 1.397 . S
C1817 C1822 1.363 . S
C1818 H1795 0.950 . S
C1818 C1817 1.397 . S
C1818 C1819 1.334 . S
C1819 H1796 0.950 . S
C1819 C1818 1.334 . S
C1819 C1820 1.287 . S
C1820 C1819 1.287 . S
C1820 C1821 1.524 . S
C1820 H1839 0.913 . S
C1821 H1797 0.950 . S
C1821 C1820 1.524 . S
C1821 C1822 1.415 . S
C1822 H1798 0.950 . S
C1822 C1817 1.363 . S
C1822 C1821 1.415 . S
C1823 H1799 0.951 . S
C1823 C1824 1.366 . S
C1823 C1825 1.388 . S
C1824 C1823 1.366 . S
C1824 C1828 1.385 . S
C1825 H1800 0.951 . S
C1825 C1823 1.388 . S
C1825 C1826 1.366 . S
C1826 C1825 1.366 . S
C1826 C1827 1.414 . S
C1826 C1829 1.499 . S
C1827 H1801 0.950 . S
C1827 C1826 1.414 . S
C1827 C1828 1.374 . S
C1828 H1802 0.950 . S
C1828 C1824 1.385 . S
C1828 C1827 1.374 . S
C1829 C1826 1.499 . S
C1829 C1830 1.373 . S
C1829 C1831 1.389 . S
C1830 H1803 0.950 . S
C1830 C1816 1.377 . S
C1830 C1829 1.373 . S
C1831 C1815 1.377 . S
C1831 C1829 1.389 . S
C1831 C1832 1.524 . S
C1832 C1831 1.524 . S
C1832 C1833 1.397 . S
C1832 C1837 1.363 . S
C1833 H1804 0.950 . S
C1833 C1832 1.397 . S
C1833 C1834 1.334 . S
C1834 H1805 0.950 . S
C1834 C1833 1.334 . S
C1834 C1835 1.287 . S
C1835 C1834 1.287 . S
C1835 C1836 1.524 . S
C1835 H1838 0.999 . S
C1836 H1806 0.950 . S
C1836 C1835 1.524 . S
C1836 C1837 1.415 . S
C1837 H1807 0.950 . S
C1837 C1832 1.363 . S
C1837 C1836 1.415 . S
H1838 C1835 0.999 . S
H1839 C1820 0.913 . S
H1840 C1858 0.951 . S
H1841 C1860 0.951 . S
H1842 C1862 0.950 . S
H1843 C1863 0.950 . S
H1844 C1865 0.950 . S
H1845 C1868 0.950 . S
H1846 C1869 0.950 . S
H1847 C1871 0.950 . S
H1848 C1872 0.950 . S
H1849 C1873 0.951 . S
H1850 C1875 0.951 . S
H1851 C1877 0.950 . S
H1852 C1878 0.950 . S
H1853 C1880 0.950 . S
H1854 C1883 0.950 . S
H1855 C1884 0.950 . S
H1856 C1886 0.950 . S
H1857 C1887 0.950 . S
C1858 H1840 0.951 . S
C1858 C1859 1.366 . S
C1858 C1860 1.388 . S
C1859 C1858 1.366 . S
C1859 C1863 1.385 . S
C1860 H1841 0.951 . S
C1860 C1858 1.388 . S
C1860 C1861 1.366 . S
C1861 C1860 1.366 . S
C1861 C1862 1.414 . S
C1861 C1864 1.499 . S
C1862 H1842 0.950 . S
C1862 C1861 1.414 . S
C1862 C1863 1.374 . S
C1863 H1843 0.950 . S
C1863 C1859 1.385 . S
C1863 C1862 1.374 . S
C1864 C1861 1.499 . S
C1864 C1865 1.373 . S
C1864 C1866 1.389 . S
C1865 H1844 0.950 . S
C1865 C1864 1.373 . S
C1865 C1881 1.377 . S
C1866 C1864 1.389 . S
C1866 C1867 1.524 . S
C1866 C1880 1.377 . S
C1867 C1866 1.524 . S
C1867 C1868 1.397 . S
C1867 C1872 1.363 . S
C1868 H1845 0.950 . S
C1868 C1867 1.397 . S
C1868 C1869 1.334 . S
C1869 H1846 0.950 . S
C1869 C1868 1.334 . S
C1869 C1870 1.287 . S
C1870 C1869 1.287 . S
C1870 C1871 1.524 . S
C1870 H1889 0.913 . S
C1871 H1847 0.950 . S
C1871 C1870 1.524 . S
C1871 C1872 1.415 . S
C1872 H1848 0.950 . S
C1872 C1867 1.363 . S
C1872 C1871 1.415 . S
C1873 H1849 0.951 . S
C1873 C1874 1.366 . S
C1873 C1875 1.388 . S
C1874 C1873 1.366 . S
C1874 C1878 1.385 . S
C1875 H1850 0.951 . S
C1875 C1873 1.388 . S
C1875 C1876 1.366 . S
C1876 C1875 1.366 . S
C1876 C1877 1.414 . S
C1876 C1879 1.499 . S
C1877 H1851 0.950 . S
C1877 C1876 1.414 . S
C1877 C1878 1.374 . S
C1878 H1852 0.950 . S
C1878 C1874 1.385 . S
C1878 C1877 1.374 . S
C1879 C1876 1.499 . S
C1879 C1880 1.373 . S
C1879 C1881 1.389 . S
C1880 H1853 0.950 . S
C1880 C1866 1.377 . S
C1880 C1879 1.373 . S
C1881 C1865 1.377 . S
C1881 C1879 1.389 . S
C1881 C1882 1.524 . S
C1882 C1881 1.524 . S
C1882 C1883 1.397 . S
C1882 C1887 1.363 . S
C1883 H1854 0.950 . S
C1883 C1882 1.397 . S
C1883 C1884 1.334 . S
C1884 H1855 0.950 . S
C1884 C1883 1.334 . S
C1884 C1885 1.287 . S
C1885 C1884 1.287 . S
C1885 C1886 1.524 . S
C1885 H1888 0.999 . S
C1886 H1856 0.950 . S
C1886 C1885 1.524 . S
C1886 C1887 1.415 . S
C1887 H1857 0.950 . S
C1887 C1882 1.363 . S
C1887 C1886 1.415 . S
H1888 C1885 0.999 . S
H1889 C1870 0.913 . S
H1890 C1908 0.951 . S
H1891 C1910 0.951 . S
H1892 C1912 0.950 . S
H1893 C1913 0.950 . S
H1894 C1915 0.950 . S
H1895 C1918 0.950 . S
H1896 C1919 0.950 . S
H1897 C1921 0.950 . S
H1898 C1922 0.950 . S
H1899 C1923 0.951 . S
H1900 C1925 0.951 . S
H1901 C1927 0.950 . S
H1902 C1928 0.950 . S
H1903 C1930 0.950 . S
H1904 C1933 0.950 . S
H1905 C1934 0.950 . S
H1906 C1936 0.950 . S
H1907 C1937 0.950 . S
C1908 H1890 0.951 . S
C1908 C1909 1.366 . S
C1908 C1910 1.388 . S
C1909 C1908 1.366 . S
C1909 C1913 1.385 . S
C1910 H1891 0.951 . S
C1910 C1908 1.388 . S
C1910 C1911 1.366 . S
C1911 C1910 1.366 . S
C1911 C1912 1.414 . S
C1911 C1914 1.499 . S
C1912 H1892 0.950 . S
C1912 C1911 1.414 . S
C1912 C1913 1.374 . S
C1913 H1893 0.950 . S
C1913 C1909 1.385 . S
C1913 C1912 1.374 . S
C1914 C1911 1.499 . S
C1914 C1915 1.373 . S
C1914 C1916 1.389 . S
C1915 H1894 0.950 . S
C1915 C1914 1.373 . S
C1915 C1931 1.377 . S
C1916 C1914 1.389 . S
C1916 C1917 1.524 . S
C1916 C1930 1.377 . S
C1917 C1916 1.524 . S
C1917 C1918 1.397 . S
C1917 C1922 1.363 . S
C1918 H1895 0.950 . S
C1918 C1917 1.397 . S
C1918 C1919 1.334 . S
C1919 H1896 0.950 . S
C1919 C1918 1.334 . S
C1919 C1920 1.287 . S
C1920 C1919 1.287 . S
C1920 C1921 1.524 . S
C1920 H1939 0.913 . S
C1921 H1897 0.950 . S
C1921 C1920 1.524 . S
C1921 C1922 1.415 . S
C1922 H1898 0.950 . S
C1922 C1917 1.363 . S
C1922 C1921 1.415 . S
C1923 H1899 0.951 . S
C1923 C1924 1.366 . S
C1923 C1925 1.388 . S
C1924 C1923 1.366 . S
C1924 C1928 1.385 . S
C1925 H1900 0.951 . S
C1925 C1923 1.388 . S
C1925 C1926 1.366 . S
C1926 C1925 1.366 . S
C1926 C1927 1.414 . S
C1926 C1929 1.499 . S
C1927 H1901 0.950 . S
C1927 C1926 1.414 . S
C1927 C1928 1.374 . S
C1928 H1902 0.950 . S
C1928 C1924 1.385 . S
C1928 C1927 1.374 . S
C1929 C1926 1.499 . S
C1929 C1930 1.373 . S
C1929 C1931 1.389 . S
C1930 H1903 0.950 . S
C1930 C1916 1.377 . S
C1930 C1929 1.373 . S
C1931 C1915 1.377 . S
C1931 C1929 1.389 . S
C1931 C1932 1.524 . S
C1932 C1931 1.524 . S
C1932 C1933 1.397 . S
C1932 C1937 1.363 . S
C1933 H1904 0.950 . S
C1933 C1932 1.397 . S
C1933 C1934 1.334 . S
C1934 H1905 0.950 . S
C1934 C1933 1.334 . S
C1934 C1935 1.287 . S
C1935 C1934 1.287 . S
C1935 C1936 1.524 . S
C1935 H1938 0.999 . S
C1936 H1906 0.950 . S
C1936 C1935 1.524 . S
C1936 C1937 1.415 . S
C1937 H1907 0.950 . S
C1937 C1932 1.363 . S
C1937 C1936 1.415 . S
H1938 C1935 0.999 . S
H1939 C1920 0.913 . S
H1940 C1958 0.951 . S
H1941 C1960 0.951 . S
H1942 C1962 0.950 . S
H1943 C1963 0.950 . S
H1944 C1965 0.950 . S
H1945 C1968 0.950 . S
H1946 C1969 0.950 . S
H1947 C1971 0.950 . S
H1948 C1972 0.950 . S
H1949 C1973 0.951 . S
H1950 C1975 0.951 . S
H1951 C1977 0.950 . S
H1952 C1978 0.950 . S
H1953 C1980 0.950 . S
H1954 C1983 0.950 . S
H1955 C1984 0.950 . S
H1956 C1986 0.950 . S
H1957 C1987 0.950 . S
C1958 H1940 0.951 . S
C1958 C1959 1.366 . S
C1958 C1960 1.388 . S
C1959 C1958 1.366 . S
C1959 C1963 1.385 . S
C1960 H1941 0.951 . S
C1960 C1958 1.388 . S
C1960 C1961 1.366 . S
C1961 C1960 1.366 . S
C1961 C1962 1.414 . S
C1961 C1964 1.499 . S
C1962 H1942 0.950 . S
C1962 C1961 1.414 . S
C1962 C1963 1.374 . S
C1963 H1943 0.950 . S
C1963 C1959 1.385 . S
C1963 C1962 1.374 . S
C1964 C1961 1.499 . S
C1964 C1965 1.373 . S
C1964 C1966 1.389 . S
C1965 H1944 0.950 . S
C1965 C1964 1.373 . S
C1965 C1981 1.377 . S
C1966 C1964 1.389 . S
C1966 C1967 1.524 . S
C1966 C1980 1.377 . S
C1967 C1966 1.524 . S
C1967 C1968 1.397 . S
C1967 C1972 1.363 . S
C1968 H1945 0.950 . S
C1968 C1967 1.397 . S
C1968 C1969 1.334 . S
C1969 H1946 0.950 . S
C1969 C1968 1.334 . S
C1969 C1970 1.287 . S
C1970 C1969 1.287 . S
C1970 C1971 1.524 . S
C1970 H1989 0.913 . S
C1971 H1947 0.950 . S
C1971 C1970 1.524 . S
C1971 C1972 1.415 . S
C1972 H1948 0.950 . S
C1972 C1967 1.363 . S
C1972 C1971 1.415 . S
C1973 H1949 0.951 . S
C1973 C1974 1.366 . S
C1973 C1975 1.388 . S
C1974 C1973 1.366 . S
C1974 C1978 1.385 . S
C1975 H1950 0.951 . S
C1975 C1973 1.388 . S
C1975 C1976 1.366 . S
C1976 C1975 1.366 . S
C1976 C1977 1.414 . S
C1976 C1979 1.499 . S
C1977 H1951 0.950 . S
C1977 C1976 1.414 . S
C1977 C1978 1.374 . S
C1978 H1952 0.950 . S
C1978 C1974 1.385 . S
C1978 C1977 1.374 . S
C1979 C1976 1.499 . S
C1979 C1980 1.373 . S
C1979 C1981 1.389 . S
C1980 H1953 0.950 . S
C1980 C1966 1.377 . S
C1980 C1979 1.373 . S
C1981 C1965 1.377 . S
C1981 C1979 1.389 . S
C1981 C1982 1.524 . S
C1982 C1981 1.524 . S
C1982 C1983 1.397 . S
C1982 C1987 1.363 . S
C1983 H1954 0.950 . S
C1983 C1982 1.397 . S
C1983 C1984 1.334 . S
C1984 H1955 0.950 . S
C1984 C1983 1.334 . S
C1984 C1985 1.287 . S
C1985 C1984 1.287 . S
C1985 C1986 1.524 . S
C1985 H1988 0.999 . S
C1986 H1956 0.950 . S
C1986 C1985 1.524 . S
C1986 C1987 1.415 . S
C1987 H1957 0.950 . S
C1987 C1982 1.363 . S
C1987 C1986 1.415 . S
H1988 C1985 0.999 . S
H1989 C1970 0.913 . S
H1990 C2008 0.951 . S
H1991 C2010 0.951 . S
H1992 C2012 0.950 . S
H1993 C2013 0.950 . S
H1994 C2015 0.950 . S
H1995 C2018 0.950 . S
H1996 C2019 0.950 . S
H1997 C2021 0.950 . S
H1998 C2022 0.950 . S
H1999 C2023 0.951 . S
H2000 C2025 0.951 . S
H2001 C2027 0.950 . S
H2002 C2028 0.950 . S
H2003 C2030 0.950 . S
H2004 C2033 0.950 . S
H2005 C2034 0.950 . S
H2006 C2036 0.950 . S
H2007 C2037 0.950 . S
C2008 H1990 0.951 . S
C2008 C2009 1.366 . S
C2008 C2010 1.388 . S
C2009 C2008 1.366 . S
C2009 C2013 1.385 . S
C2010 H1991 0.951 . S
C2010 C2008 1.388 . S
C2010 C2011 1.366 . S
C2011 C2010 1.366 . S
C2011 C2012 1.414 . S
C2011 C2014 1.499 . S
C2012 H1992 0.950 . S
C2012 C2011 1.414 . S
C2012 C2013 1.374 . S
C2013 H1993 0.950 . S
C2013 C2009 1.385 . S
C2013 C2012 1.374 . S
C2014 C2011 1.499 . S
C2014 C2015 1.373 . S
C2014 C2016 1.389 . S
C2015 H1994 0.950 . S
C2015 C2014 1.373 . S
C2015 C2031 1.377 . S
C2016 C2014 1.389 . S
C2016 C2017 1.524 . S
C2016 C2030 1.377 . S
C2017 C2016 1.524 . S
C2017 C2018 1.397 . S
C2017 C2022 1.363 . S
C2018 H1995 0.950 . S
C2018 C2017 1.397 . S
C2018 C2019 1.334 . S
C2019 H1996 0.950 . S
C2019 C2018 1.334 . S
C2019 C2020 1.287 . S
C2020 C2019 1.287 . S
C2020 C2021 1.524 . S
C2020 H2039 0.913 . S
C2021 H1997 0.950 . S
C2021 C2020 1.524 . S
C2021 C2022 1.415 . S
C2022 H1998 0.950 . S
C2022 C2017 1.363 . S
C2022 C2021 1.415 . S
C2023 H1999 0.951 . S
C2023 C2024 1.366 . S
C2023 C2025 1.388 . S
C2024 C2023 1.366 . S
C2024 C2028 1.385 . S
C2025 H2000 0.951 . S
C2025 C2023 1.388 . S
C2025 C2026 1.366 . S
C2026 C2025 1.366 . S
C2026 C2027 1.414 . S
C2026 C2029 1.499 . S
C2027 H2001 0.950 . S
C2027 C2026 1.414 . S
C2027 C2028 1.374 . S
C2028 H2002 0.950 . S
C2028 C2024 1.385 . S
C2028 C2027 1.374 . S
C2029 C2026 1.499 . S
C2029 C2030 1.373 . S
C2029 C2031 1.389 . S
C2030 H2003 0.950 . S
C2030 C2016 1.377 . S
C2030 C2029 1.373 . S
C2031 C2015 1.377 . S
C2031 C2029 1.389 . S
C2031 C2032 1.524 . S
C2032 C2031 1.524 . S
C2032 C2033 1.397 . S
C2032 C2037 1.363 . S
C2033 H2004 0.950 . S
C2033 C2032 1.397 . S
C2033 C2034 1.334 . S
C2034 H2005 0.950 . S
C2034 C2033 1.334 . S
C2034 C2035 1.287 . S
C2035 C2034 1.287 . S
C2035 C2036 1.524 . S
C2035 H2038 0.999 . S
C2036 H2006 0.950 . S
C2036 C2035 1.524 . S
C2036 C2037 1.415 . S
C2037 H2007 0.950 . S
C2037 C2032 1.363 . S
C2037 C2036 1.415 . S
H2038 C2035 0.999 . S
H2039 C2020 0.913 . S
C259 C116 1.800 . S
C274 C19 1.762 . S
C309 C39 1.762 . S
C324 C16 1.800 . S
C359 C59 1.763 . S
C374 C36 1.800 . S
C409 C56 1.800 . S
C424 C79 1.762 . S
C459 C76 1.800 . S
C474 C99 1.762 . S
C509 C119 1.762 . S
C524 C96 1.800 . S
C559 C156 1.800 . S
C574 C139 1.763 . S
C609 C159 1.763 . S
C624 C176 1.800 . S
C659 C196 1.800 . S
C674 C179 1.763 . S
C709 C216 1.800 . S
C724 C199 1.762 . S
C759 C236 1.800 . S
C774 C219 1.762 . S
C809 C136 1.800 . S
C824 C239 1.762 . S
C859 C229 1.330 . S
C874 C6 1.317 1_565 S
C909 C26 1.317 . S
C924 C129 1.330 . S
C959 C149 1.329 . S
C974 C46 1.317 1_455 S
C1009 C169 1.330 . S
C1024 C66 1.317 1_545 S
C1059 C189 1.329 . S
C1074 C86 1.318 . S
C1109 C106 1.317 1_655 S
C1124 C209 1.330 . S
C1159 C126 1.317 1_455 S
C1174 C29 1.329 . S
C1209 C146 1.318 1_545 S
C1224 C49 1.330 . S
C1259 C69 1.330 . S
C1274 C166 1.317 . S
C1309 C89 1.329 . S
C1324 C186 1.318 1_655 S
C1359 C206 1.317 1_565 S
C1374 C109 1.329 . S
C1409 C226 1.318 . S
C1424 C9 1.330 . S
C1459 C121 1.416 1_455 S
C1474 C1 1.415 1_565 S
C1509 C21 1.416 . S
C1524 C141 1.415 1_545 S
C1559 C161 1.416 . S
C1574 C41 1.415 1_455 S
C1609 C61 1.415 1_545 S
C1624 C181 1.416 1_655 S
C1659 C201 1.415 1_565 S
C1674 C81 1.416 . S
C1709 C221 1.415 . S
C1724 C101 1.416 1_655 S
C1759 C128 1.437 . S
C1774 C8 1.437 . S
C1809 C148 1.437 . S
C1824 C28 1.437 . S
C1859 C168 1.436 . S
C1874 C48 1.436 . S
C1909 C68 1.437 . S
C1924 C188 1.436 . S
C1959 C208 1.438 . S
C1974 C88 1.437 . S
C2009 C228 1.438 . S
C2024 C108 1.437 . S
