# Generated by pormake.
# Topology lcy-e, (6)-cn, num edge types: 1
# Building blocks:
#     Node 0, Type 0, BuildingBlock: CUWYAW_clean_sbu_0, # of connection points: 6
#     Node 1, Type 0, BuildingBlock: CUWYAW_clean_sbu_0, # of connection points: 6
#     Node 2, Type 0, BuildingBlock: CUWYAW_clean_sbu_0, # of connection points: 6
#     Node 3, Type 0, BuildingBlock: CUWYAW_clean_sbu_0, # of connection points: 6
#     Node 4, Type 0, BuildingBlock: CUWYAW_clean_sbu_0, # of connection points: 6
#     Node 5, Type 0, BuildingBlock: CUWYAW_clean_sbu_0, # of connection points: 6
#     Node 6, Type 0, BuildingBlock: CUWYAW_clean_sbu_0, # of connection points: 6
#     Node 7, Type 0, BuildingBlock: CUWYAW_clean_sbu_0, # of connection points: 6
#     Node 8, Type 0, BuildingBlock: CUWYAW_clean_sbu_0, # of connection points: 6
#     Node 9, Type 0, BuildingBlock: CUWYAW_clean_sbu_0, # of connection points: 6
#     Node 10, Type 0, BuildingBlock: CUWYAW_clean_sbu_0, # of connection points: 6
#     Node 11, Type 0, BuildingBlock: CUWYAW_clean_sbu_0, # of connection points: 6
#     Edge 12, Type (0, 0), BuildingBlock: TEMPAE_clean_linker_10, # of connection points: 2
#     Edge 13, Type (0, 0), BuildingBlock: TEMPAE_clean_linker_10, # of connection points: 2
#     Edge 14, Type (0, 0), BuildingBlock: TEMPAE_clean_linker_10, # of connection points: 2
#     Edge 15, Type (0, 0), BuildingBlock: TEMPAE_clean_linker_10, # of connection points: 2
#     Edge 16, Type (0, 0), BuildingBlock: TEMPAE_clean_linker_10, # of connection points: 2
#     Edge 17, Type (0, 0), BuildingBlock: TEMPAE_clean_linker_10, # of connection points: 2
#     Edge 18, Type (0, 0), BuildingBlock: TEMPAE_clean_linker_10, # of connection points: 2
#     Edge 19, Type (0, 0), BuildingBlock: TEMPAE_clean_linker_10, # of connection points: 2
#     Edge 20, Type (0, 0), BuildingBlock: TEMPAE_clean_linker_10, # of connection points: 2
#     Edge 21, Type (0, 0), BuildingBlock: TEMPAE_clean_linker_10, # of connection points: 2
#     Edge 22, Type (0, 0), BuildingBlock: TEMPAE_clean_linker_10, # of connection points: 2
#     Edge 23, Type (0, 0), BuildingBlock: TEMPAE_clean_linker_10, # of connection points: 2
#     Edge 24, Type (0, 0), BuildingBlock: TEMPAE_clean_linker_10, # of connection points: 2
#     Edge 25, Type (0, 0), BuildingBlock: TEMPAE_clean_linker_10, # of connection points: 2
#     Edge 26, Type (0, 0), BuildingBlock: TEMPAE_clean_linker_10, # of connection points: 2
#     Edge 27, Type (0, 0), BuildingBlock: TEMPAE_clean_linker_10, # of connection points: 2
#     Edge 28, Type (0, 0), BuildingBlock: TEMPAE_clean_linker_10, # of connection points: 2
#     Edge 29, Type (0, 0), BuildingBlock: TEMPAE_clean_linker_10, # of connection points: 2
#     Edge 30, Type (0, 0), BuildingBlock: TEMPAE_clean_linker_10, # of connection points: 2
#     Edge 31, Type (0, 0), BuildingBlock: TEMPAE_clean_linker_10, # of connection points: 2
#     Edge 32, Type (0, 0), BuildingBlock: TEMPAE_clean_linker_10, # of connection points: 2
#     Edge 33, Type (0, 0), BuildingBlock: TEMPAE_clean_linker_10, # of connection points: 2
#     Edge 34, Type (0, 0), BuildingBlock: TEMPAE_clean_linker_10, # of connection points: 2
#     Edge 35, Type (0, 0), BuildingBlock: TEMPAE_clean_linker_10, # of connection points: 2
#     Edge 36, Type (0, 0), BuildingBlock: TEMPAE_clean_linker_10, # of connection points: 2
#     Edge 37, Type (0, 0), BuildingBlock: TEMPAE_clean_linker_10, # of connection points: 2
#     Edge 38, Type (0, 0), BuildingBlock: TEMPAE_clean_linker_10, # of connection points: 2
#     Edge 39, Type (0, 0), BuildingBlock: TEMPAE_clean_linker_10, # of connection points: 2
#     Edge 40, Type (0, 0), BuildingBlock: TEMPAE_clean_linker_10, # of connection points: 2
#     Edge 41, Type (0, 0), BuildingBlock: TEMPAE_clean_linker_10, # of connection points: 2
#     Edge 42, Type (0, 0), BuildingBlock: TEMPAE_clean_linker_10, # of connection points: 2
#     Edge 43, Type (0, 0), BuildingBlock: TEMPAE_clean_linker_10, # of connection points: 2
#     Edge 44, Type (0, 0), BuildingBlock: TEMPAE_clean_linker_10, # of connection points: 2
#     Edge 45, Type (0, 0), BuildingBlock: TEMPAE_clean_linker_10, # of connection points: 2
#     Edge 46, Type (0, 0), BuildingBlock: TEMPAE_clean_linker_10, # of connection points: 2
#     Edge 47, Type (0, 0), BuildingBlock: TEMPAE_clean_linker_10, # of connection points: 2
# Relax obj value: 0.182
# Max RMSD: 0.288
# Mean RMSD: 0.269
data_MOF--net-lcy-e--node1-CUWYAW_clean_sbu_0--edge1-TEMPAE_clean_linker_10
_symmetry_space_group_name_H-M    P1
_symmetry_Int_Tables_number       1
_symmetry_cell_setting            triclinic
loop_
_symmetry_equiv_pos_as_xyz
'x, y, z'
_cell_length_a     42.742209
_cell_length_b     45.596911
_cell_length_c     45.622206
_cell_angle_alpha  90.901331
_cell_angle_beta   90.417972
_cell_angle_gamma 88.491762
loop_
_atom_site_label
_atom_site_type_symbol
_atom_site_fract_x
_atom_site_fract_y
_atom_site_fract_z
_atom_type_partial_charge
C0 C 0.10592 0.31457 0.45691 0.0
Eu1 Eu 0.11424 0.29281 0.50896 0.0
C2 C 0.12384 0.32918 0.43387 0.0
C3 C 0.11619 0.35833 0.42666 0.0
C4 C 0.1311 0.37184 0.40348 0.0
C5 C 0.15378 0.35638 0.38676 0.0
C6 C 0.16187 0.32735 0.39426 0.0
C7 C 0.14715 0.3139 0.41763 0.0
C8 C 0.08247 0.305 0.55943 0.0
C9 C 0.16253 0.31849 0.55338 0.0
C10 C 0.14444 0.22581 0.6077 0.0
Eu11 Eu 0.13249 0.25402 0.5594 0.0
C12 C 0.13346 0.19752 0.61824 0.0
C13 C 0.11935 0.17767 0.59871 0.0
C14 C 0.10781 0.15128 0.6088 0.0
C15 C 0.11004 0.14424 0.63867 0.0
C16 C 0.12417 0.16428 0.65816 0.0
C17 C 0.13574 0.1907 0.64801 0.0
C18 C 0.16395 0.24255 0.50848 0.0
C19 C 0.07789 0.23089 0.51763 0.0
O20 O 0.11266 0.28686 0.46163 0.0
O21 O 0.10015 0.32951 0.48112 0.0
O22 O 0.08987 0.32482 0.54077 0.0
O23 O 0.08979 0.27991 0.54932 0.0
O24 O 0.15664 0.31621 0.52507 0.0
O25 O 0.15226 0.2988 0.57183 0.0
O26 O 0.12295 0.24652 0.60558 0.0
O27 O 0.16276 0.22456 0.58488 0.0
O28 O 0.15335 0.22257 0.52538 0.0
O29 O 0.15778 0.26764 0.51926 0.0
O30 O 0.09077 0.22869 0.54391 0.0
O31 O 0.08532 0.25222 0.49979 0.0
H32 H 0.09816 0.37052 0.4386 0.0
H33 H 0.12414 0.39412 0.39803 0.0
H34 H 0.17948 0.315 0.38194 0.0
H35 H 0.15369 0.2914 0.42259 0.0
H36 H 0.11706 0.18268 0.57565 0.0
H37 H 0.09668 0.1366 0.59327 0.0
H38 H 0.12656 0.15941 0.68124 0.0
H39 H 0.14635 0.20585 0.66343 0.0
C40 C 0.08981 0.91417 0.81927 0.0
Eu41 Eu 0.04126 0.91678 0.78443 0.0
C42 C 0.11249 0.89394 0.83404 0.0
C43 C 0.11039 0.88955 0.86437 0.0
C44 C 0.13417 0.87424 0.87943 0.0
C45 C 0.16078 0.8631 0.86457 0.0
C46 C 0.16227 0.86647 0.83402 0.0
C47 C 0.13846 0.88176 0.81894 0.0
C48 C 0.98626 0.9485 0.78924 0.0
C49 C 0.99315 0.86476 0.79553 0.0
C50 C 0.9362 0.90966 0.70463 0.0
Eu51 Eu 0.98632 0.90366 0.73687 0.0
C52 C 0.92839 0.91683 0.67369 0.0
C53 C 0.91166 0.89691 0.65627 0.0
C54 C 0.90257 0.90399 0.6276 0.0
C55 C 0.90978 0.93129 0.61572 0.0
C56 C 0.92699 0.95104 0.63302 0.0
C57 C 0.93628 0.94388 0.6616 0.0
C58 C 0.04012 0.87149 0.72536 0.0
C59 C 0.03692 0.95612 0.72681 0.0
O60 O 0.0917 0.91648 0.79071 0.0
O61 O 0.06089 0.91563 0.82878 0.0
O62 O 0.01317 0.95871 0.79745 0.0
O63 O 0.98993 0.92218 0.78152 0.0
O64 O 0.02271 0.8728 0.79697 0.0
O65 O 0.97306 0.876 0.77595 0.0
O66 O 0.94754 0.93085 0.721 0.0
O67 O 0.94985 0.88402 0.70957 0.0
O68 O 0.01457 0.86931 0.70996 0.0
O69 O 0.03522 0.8914 0.74415 0.0
O70 O 0.00935 0.9448 0.72032 0.0
O71 O 0.05501 0.94646 0.7484 0.0
H72 H 0.09094 0.89898 0.87671 0.0
H73 H 0.13239 0.87241 0.903 0.0
H74 H 0.1822 0.85783 0.82182 0.0
H75 H 0.14095 0.88475 0.79558 0.0
H76 H 0.90511 0.87601 0.66502 0.0
H77 H 0.88898 0.88841 0.61506 0.0
H78 H 0.93317 0.97214 0.62449 0.0
H79 H 0.94929 0.95975 0.67432 0.0
C80 C 0.39276 0.74351 0.93696 0.0
Eu81 Eu 0.38788 0.75797 0.99224 0.0
C82 C 0.37692 0.73187 0.91068 0.0
C83 C 0.38882 0.73883 0.8832 0.0
C84 C 0.37616 0.72666 0.85763 0.0
C85 C 0.35125 0.70722 0.859 0.0
C86 C 0.33843 0.70122 0.88658 0.0
C87 C 0.35124 0.71342 0.91229 0.0
C88 C 0.41921 0.74106 0.04111 0.0
C89 C 0.34201 0.73415 0.03974 0.0
C90 C 0.37851 0.82116 0.10316 0.0
Eu91 Eu 0.37488 0.79721 0.05107 0.0
C92 C 0.38388 0.85104 0.11421 0.0
C93 C 0.38117 0.85751 0.14419 0.0
C94 C 0.38847 0.88536 0.1551 0.0
C95 C 0.39879 0.90718 0.13618 0.0
C96 C 0.40086 0.90067 0.10599 0.0
C97 C 0.39341 0.87287 0.09512 0.0
C98 C 0.33308 0.8102 1.00692 0.0
C99 C 0.42634 0.81887 1.00502 0.0
O100 O 0.38396 0.76974 0.94623 0.0
O101 O 0.39942 0.72537 0.95829 0.0
O102 O 0.41204 0.72294 0.01987 0.0
O103 O 0.41233 0.76711 0.03394 0.0
O104 O 0.34579 0.73683 1.01104 0.0
O105 O 0.35425 0.75269 0.05924 0.0
O106 O 0.40227 0.80862 0.08963 0.0
O107 O 0.3519 0.81691 0.08954 0.0
O108 O 0.33363 0.82438 0.03182 0.0
O109 O 0.35486 0.79137 1.00756 0.0
O110 O 0.40922 0.82575 0.02836 0.0
O111 O 0.42332 0.79403 0.98978 0.0
H112 H 0.40849 0.75322 0.88153 0.0
H113 H 0.38627 0.73206 0.83676 0.0
H114 H 0.31935 0.6862 0.88837 0.0
H115 H 0.3416 0.70797 0.93335 0.0
H116 H 0.37384 0.84089 0.15922 0.0
H117 H 0.38613 0.88977 0.17839 0.0
H118 H 0.40906 0.91678 0.09085 0.0
H119 H 0.39571 0.86821 0.07187 0.0
C120 C 0.4042 0.13761 0.31232 0.0
Eu121 Eu 0.45982 0.13892 0.28895 0.0
C122 C 0.38057 0.15441 0.32969 0.0
C123 C 0.38874 0.17644 0.35 0.0
C124 C 0.36561 0.19056 0.36732 0.0
C125 C 0.33392 0.18292 0.36463 0.0
C126 C 0.32602 0.16116 0.34382 0.0
C127 C 0.34905 0.14716 0.3266 0.0
C128 C 0.51206 0.10683 0.3037 0.0
C129 C 0.51027 0.18181 0.31094 0.0
C130 C 0.56949 0.14707 0.22148 0.0
Eu131 Eu 0.51605 0.14522 0.24882 0.0
C132 C 0.58111 0.13819 0.19215 0.0
C133 C 0.56115 0.12577 0.17101 0.0
C134 C 0.57265 0.11711 0.14337 0.0
C135 C 0.60434 0.12074 0.13629 0.0
C136 C 0.62416 0.13316 0.15769 0.0
C137 C 0.61265 0.14178 0.18527 0.0
C138 C 0.46462 0.1786 0.23447 0.0
C139 C 0.46615 0.09734 0.22977 0.0
O140 O 0.40914 0.14605 0.28549 0.0
O141 O 0.42987 0.12878 0.32573 0.0
O142 O 0.49324 0.11897 0.32282 0.0
O143 O 0.50134 0.11072 0.27828 0.0
O144 O 0.47975 0.17954 0.30805 0.0
O145 O 0.52963 0.16787 0.2924 0.0
O146 O 0.56199 0.12577 0.23874 0.0
O147 O 0.54916 0.169 0.22246 0.0
O148 O 0.48255 0.16506 0.21552 0.0
O149 O 0.47501 0.17433 0.26001 0.0
O150 O 0.49486 0.10646 0.22579 0.0
O151 O 0.44814 0.10824 0.25097 0.0
H152 H 0.41295 0.18247 0.35271 0.0
H153 H 0.37258 0.2074 0.38285 0.0
H154 H 0.30209 0.15424 0.34138 0.0
H155 H 0.34225 0.13013 0.31117 0.0
H156 H 0.53669 0.12276 0.17592 0.0
H157 H 0.55663 0.10785 0.12745 0.0
H158 H 0.64879 0.1358 0.15335 0.0
H159 H 0.62848 0.15112 0.20133 0.0
C160 C 0.6469 0.34283 0.48694 0.0
Eu161 Eu 0.64601 0.29726 0.521 0.0
C162 C 0.62879 0.36825 0.47526 0.0
C163 C 0.64232 0.39593 0.47684 0.0
C164 C 0.62729 0.4204 0.46448 0.0
C165 C 0.59819 0.41789 0.45017 0.0
C166 C 0.58434 0.39014 0.449 0.0
C167 C 0.59949 0.36554 0.46143 0.0
C168 C 0.67562 0.24371 0.51261 0.0
C169 C 0.58898 0.25573 0.50705 0.0
C170 C 0.63376 0.20531 0.60097 0.0
Eu171 Eu 0.6302 0.24975 0.56552 0.0
C172 C 0.64766 0.19766 0.62995 0.0
C173 C 0.63397 0.20736 0.65645 0.0
C174 C 0.64678 0.19864 0.68346 0.0
C175 C 0.67351 0.17993 0.68462 0.0
C176 C 0.68741 0.17069 0.65806 0.0
C177 C 0.67459 0.17932 0.63114 0.0
C178 C 0.59472 0.29913 0.57077 0.0
C179 C 0.69058 0.29209 0.57712 0.0
O180 O 0.65412 0.34374 0.51482 0.0
O181 O 0.64049 0.31637 0.4775 0.0
O182 O 0.68796 0.26822 0.50519 0.0
O183 O 0.64836 0.24901 0.52104 0.0
O184 O 0.59716 0.28349 0.5086 0.0
O185 O 0.60182 0.23628 0.52526 0.0
O186 O 0.65352 0.20938 0.57975 0.0
O187 O 0.60982 0.22387 0.60023 0.0
O188 O 0.58494 0.27302 0.57608 0.0
O189 O 0.6238 0.29855 0.56521 0.0
O190 O 0.67417 0.26945 0.58528 0.0
O191 O 0.68337 0.30734 0.55368 0.0
H192 H 0.66501 0.39855 0.48717 0.0
H193 H 0.63903 0.44115 0.4654 0.0
H194 H 0.56183 0.38742 0.4384 0.0
H195 H 0.58848 0.34444 0.45992 0.0
H196 H 0.61309 0.22134 0.65639 0.0
H197 H 0.63518 0.20589 0.70341 0.0
H198 H 0.70823 0.15663 0.65803 0.0
H199 H 0.68565 0.17134 0.61116 0.0
C200 C 0.05783 0.36431 0.87747 0.0
Eu201 Eu 0.03124 0.37625 0.82726 0.0
C202 C 0.07238 0.3794 0.90266 0.0
C203 C 0.08835 0.40569 0.89955 0.0
C204 C 0.10179 0.41944 0.92411 0.0
C205 C 0.09918 0.40727 0.95215 0.0
C206 C 0.08281 0.38114 0.95505 0.0
C207 C 0.0696 0.36736 0.93055 0.0
C208 C 0.04189 0.34996 0.77407 0.0
C209 C 0.0522 0.42757 0.78824 0.0
C210 C 0.95381 0.40768 0.73354 0.0
Eu211 Eu 0.98579 0.39441 0.78063 0.0
C212 C 0.92817 0.39353 0.71755 0.0
C213 C 0.90712 0.41061 0.70096 0.0
C214 C 0.88142 0.39774 0.68725 0.0
C215 C 0.87645 0.36751 0.68984 0.0
C216 C 0.89785 0.35038 0.70622 0.0
C217 C 0.92337 0.36333 0.72016 0.0
C218 C 0.97614 0.42169 0.83364 0.0
C219 C 0.96678 0.33995 0.81853 0.0
O220 O 0.0277 0.36893 0.87416 0.0
O221 O 0.0729 0.36384 0.85257 0.0
O222 O 0.06397 0.35693 0.79233 0.0
O223 O 0.01562 0.35485 0.7857 0.0
O224 O 0.05275 0.41844 0.81546 0.0
O225 O 0.03033 0.41871 0.7696 0.0
O226 O 0.98105 0.394 0.73298 0.0
O227 O 0.94677 0.41785 0.75963 0.0
O228 O 0.95415 0.41163 0.81693 0.0
O229 O 1.00226 0.41687 0.82163 0.0
O230 O 0.96257 0.35245 0.79285 0.0
O231 O 0.98953 0.34809 0.83637 0.0
H232 H 0.09043 0.41555 0.87822 0.0
H233 H 0.11404 0.43968 0.92122 0.0
H234 H 0.08074 0.37098 0.97623 0.0
H235 H 0.05726 0.34715 0.93338 0.0
H236 H 0.91034 0.43398 0.69891 0.0
H237 H 0.86546 0.4114 0.67453 0.0
H238 H 0.89444 0.3271 0.7088 0.0
H239 H 0.9391 0.34984 0.73328 0.0
C240 C 0.87072 0.67827 0.99181 0.0
Eu241 Eu 0.87302 0.73228 1.01138 0.0
C242 C 0.88882 0.65496 0.97577 0.0
C243 C 0.87838 0.64545 0.94805 0.0
C244 C 0.89269 0.62121 0.93396 0.0
C245 C 0.91772 0.60571 0.94733 0.0
C246 C 0.92871 0.61567 0.97479 0.0
C247 C 0.91442 0.64001 0.98887 0.0
C248 C 0.83603 0.77985 0.99892 0.0
C249 C 0.91565 0.77946 0.98399 0.0
C250 C 0.88909 0.83777 0.07596 0.0
Eu251 Eu 0.88458 0.78696 0.04935 0.0
C252 C 0.87705 0.85066 0.10398 0.0
C253 C 0.89726 0.85419 0.12815 0.0
C254 C 0.88601 0.86568 0.15484 0.0
C255 C 0.85431 0.87418 0.15795 0.0
C256 C 0.83416 0.87094 0.13367 0.0
C257 C 0.84536 0.85929 0.10705 0.0
C258 C 0.92106 0.739 0.06166 0.0
C259 C 0.83531 0.74188 0.0736 0.0
O260 O 0.8802 0.6855 0.01826 0.0
O261 O 0.86005 0.70084 0.97698 0.0
O262 O 0.84549 0.76081 0.97922 0.0
O263 O 0.84428 0.77144 0.02401 0.0
O264 O 0.91213 0.75091 0.98603 0.0
O265 O 0.90463 0.79798 1.00446 0.0
O266 O 0.86856 0.83244 0.05528 0.0
O267 O 0.91047 0.81682 0.07794 0.0
O268 O 0.90936 0.75679 0.08138 0.0
O269 O 0.91396 0.74778 0.03637 0.0
O270 O 0.84512 0.76908 0.07556 0.0
O271 O 0.84465 0.72376 0.05225 0.0
H272 H 0.85844 0.65622 0.93761 0.0
H273 H 0.88332 0.61394 0.91304 0.0
H274 H 0.94814 0.60443 0.98557 0.0
H275 H 0.92299 0.6466 1.01031 0.0
H276 H 0.92183 0.84799 0.12646 0.0
H277 H 0.90227 0.86826 0.17297 0.0
H278 H 0.80957 0.87703 0.13535 0.0
H279 H 0.82908 0.85689 0.08896 0.0
C280 C 0.5975 0.619 0.25097 0.0
Eu281 Eu 0.54055 0.62757 0.26992 0.0
C282 C 0.62103 0.6345 0.2343 0.0
C283 C 0.64901 0.61973 0.22674 0.0
C284 C 0.6721 0.63411 0.21145 0.0
C285 C 0.66764 0.66361 0.20343 0.0
C286 C 0.63938 0.67834 0.21096 0.0
C287 C 0.61626 0.66389 0.22635 0.0
C288 C 0.4886 0.59682 0.25689 0.0
C289 C 0.49265 0.67126 0.24005 0.0
C290 C 0.43135 0.6568 0.33189 0.0
Eu291 Eu 0.48448 0.64519 0.30586 0.0
C292 C 0.41909 0.64719 0.36013 0.0
C293 C 0.43959 0.63581 0.38155 0.0
C294 C 0.42806 0.62612 0.40819 0.0
C295 C 0.39576 0.62748 0.41388 0.0
C296 C 0.37526 0.63866 0.39222 0.0
C297 C 0.38687 0.64844 0.36555 0.0
C298 C 0.53695 0.67606 0.31798 0.0
C299 C 0.52897 0.59441 0.33215 0.0
O300 O 0.5908 0.62999 0.27692 0.0
O301 O 0.57271 0.61057 0.23646 0.0
O302 O 0.50923 0.60351 0.23753 0.0
O303 O 0.49766 0.60451 0.28211 0.0
O304 O 0.52278 0.66474 0.24256 0.0
O305 O 0.47264 0.66356 0.26048 0.0
O306 O 0.43501 0.63623 0.31191 0.0
O307 O 0.45526 0.67405 0.33341 0.0
O308 O 0.51859 0.66591 0.33767 0.0
O309 O 0.527 0.66921 0.29275 0.0
O310 O 0.5006 0.60657 0.33306 0.0
O311 O 0.54894 0.60126 0.31147 0.0
H312 H 0.65302 0.59702 0.2327 0.0
H313 H 0.69333 0.62199 0.20556 0.0
H314 H 0.63533 0.70111 0.20528 0.0
H315 H 0.59477 0.67565 0.23216 0.0
H316 H 0.46456 0.63432 0.37763 0.0
H317 H 0.44441 0.61722 0.4242 0.0
H318 H 0.35029 0.64019 0.39603 0.0
H319 H 0.3707 0.65696 0.34919 0.0
C320 C 0.16056 0.54644 0.17321 0.0
Eu321 Eu 0.21734 0.52414 0.17124 0.0
C322 C 0.13858 0.56449 0.15519 0.0
C323 C 0.13478 0.59472 0.16107 0.0
C324 C 0.11247 0.61158 0.14579 0.0
C325 C 0.09316 0.59861 0.12441 0.0
C326 C 0.09721 0.56844 0.1182 0.0
C327 C 0.11968 0.55156 0.1334 0.0
C328 C 0.26881 0.53959 0.20246 0.0
C329 C 0.2664 0.54722 0.12692 0.0
C330 C 0.3287 0.45723 0.15353 0.0
Eu331 Eu 0.27499 0.48498 0.16054 0.0
C332 C 0.34083 0.42823 0.16254 0.0
C333 C 0.32339 0.41092 0.18127 0.0
C334 C 0.33485 0.38328 0.18972 0.0
C335 C 0.36396 0.37238 0.17952 0.0
C336 C 0.3813 0.38987 0.16068 0.0
C337 C 0.36982 0.41755 0.15229 0.0
C338 C 0.22312 0.47088 0.12907 0.0
C339 C 0.22816 0.46471 0.21012 0.0
O340 O 0.16724 0.51967 0.16397 0.0
O341 O 0.18487 0.55946 0.18459 0.0
O342 O 0.24806 0.5584 0.19271 0.0
O343 O 0.26013 0.5138 0.19727 0.0
O344 O 0.2361 0.54563 0.13164 0.0
O345 O 0.28659 0.52819 0.13879 0.0
O346 O 0.32307 0.47613 0.17475 0.0
O347 O 0.3063 0.45712 0.1339 0.0
O348 O 0.24188 0.45176 0.1412 0.0
O349 O 0.23279 0.49637 0.13377 0.0
O350 O 0.25698 0.46191 0.20002 0.0
O351 O 0.20838 0.48528 0.20047 0.0
H352 H 0.14862 0.6053 0.17796 0.0
H353 H 0.10964 0.63465 0.15145 0.0
H354 H 0.08287 0.55783 0.10171 0.0
H355 H 0.12183 0.5283 0.12838 0.0
H356 H 0.30092 0.4188 0.1894 0.0
H357 H 0.32106 0.37062 0.20452 0.0
H358 H 0.40359 0.382 0.15209 0.0
H359 H 0.38352 0.43056 0.13771 0.0
C360 C 0.67202 0.99157 0.89143 0.0
Eu361 Eu 0.72358 0.01978 0.90098 0.0
C362 C 0.64899 0.97375 0.90623 0.0
C363 C 0.62471 0.9618 0.88956 0.0
C364 C 0.60097 0.9467 0.90312 0.0
C365 C 0.60101 0.94329 0.9337 0.0
C366 C 0.62588 0.95472 0.95036 0.0
C367 C 0.64969 0.96996 0.9367 0.0
C368 C 0.77675 0.01414 0.86797 0.0
C369 C 0.76899 0.98679 0.94746 0.0
C370 C 0.82862 0.08274 0.93068 0.0
Eu371 Eu 0.77903 0.05128 0.92425 0.0
C372 C 0.84061 0.10855 0.91561 0.0
C373 C 0.84992 0.13292 0.93231 0.0
C374 C 0.85971 0.15826 0.9186 0.0
C375 C 0.8606 0.15967 0.88785 0.0
C376 C 0.85152 0.13515 0.87108 0.0
C377 C 0.84141 0.10988 0.88483 0.0
C378 C 0.73033 0.0529 0.96173 0.0
C379 C 0.7344 0.08087 0.87291 0.0
O380 O 0.67278 0.01914 0.89956 0.0
O381 O 0.6999 0.97988 0.8872 0.0
O382 O 0.74902 0.01701 0.85641 0.0
O383 O 0.77448 0.01338 0.89518 0.0
O384 O 0.73963 0.99147 0.93897 0.0
O385 O 0.79081 1.00591 0.94147 0.0
O386 O 0.82849 0.0579 0.91588 0.0
O387 O 0.80304 0.08741 0.94577 0.0
O388 O 0.75946 0.04971 0.96942 0.0
O389 O 0.72773 0.05619 0.93417 0.0
O390 O 0.76258 0.07893 0.88508 0.0
O391 O 0.71281 0.06214 0.87924 0.0
H392 H 0.62385 0.96454 0.86601 0.0
H393 H 0.58251 0.93768 0.88961 0.0
H394 H 0.62651 0.95253 0.97396 0.0
H395 H 0.66827 0.97922 0.94991 0.0
H396 H 0.84935 0.13245 0.95604 0.0
H397 H 0.86693 0.17669 0.93207 0.0
H398 H 0.85178 0.13572 0.84736 0.0
H399 H 0.83394 0.09154 0.87136 0.0
C400 C 0.83181 0.05682 0.39701 0.0
Eu401 Eu 0.78269 0.02397 0.39336 0.0
C402 C 0.85657 0.07012 0.41523 0.0
C403 C 0.88668 0.07131 0.40344 0.0
C404 C 0.91042 0.08591 0.41841 0.0
C405 C 0.90473 0.09967 0.44575 0.0
C406 C 0.87459 0.09786 0.45793 0.0
C407 C 0.85068 0.08323 0.44278 0.0
C408 C 0.72941 0.03619 0.36111 0.0
C409 C 0.73328 0.03868 0.44267 0.0
C410 C 0.67921 0.95005 0.39308 0.0
Eu411 Eu 0.72877 0.98175 0.40099 0.0
C412 C 0.66942 0.9204 0.38346 0.0
C413 C 0.68063 0.89467 0.39704 0.0
C414 C 0.66942 0.86717 0.38832 0.0
C415 C 0.64674 0.86479 0.36588 0.0
C416 C 0.63617 0.89059 0.35198 0.0
C417 C 0.64729 0.91799 0.36072 0.0
C418 C 0.77651 0.97173 0.43881 0.0
C419 C 0.77988 0.96992 0.34797 0.0
O420 O 0.83343 0.02845 0.39238 0.0
O421 O 0.80304 0.06711 0.39932 0.0
O422 O 0.75728 0.0421 0.35218 0.0
O423 O 0.7315 0.02683 0.38658 0.0
O424 O 0.76366 0.0354 0.43837 0.0
O425 O 0.71345 0.02304 0.42661 0.0
O426 O 0.69067 0.96671 0.37291 0.0
O427 O 0.69364 0.95284 0.41837 0.0
O428 O 0.74739 0.96676 0.44415 0.0
O429 O 0.78 0.97901 0.41224 0.0
O430 O 0.75347 0.96255 0.36059 0.0
O431 O 0.79649 0.99197 0.35777 0.0
H432 H 0.89168 0.06157 0.3821 0.0
H433 H 0.933 0.08723 0.40797 0.0
H434 H 0.8694 0.10789 0.47907 0.0
H435 H 0.8276 0.08258 0.45236 0.0
H436 H 0.6977 0.89579 0.41465 0.0
H437 H 0.67792 0.84786 0.39972 0.0
H438 H 0.61916 0.88967 0.33429 0.0
H439 H 0.63828 0.93745 0.34986 0.0
C440 C 0.21183 0.61416 0.65673 0.0
Eu441 Eu 0.24847 0.56754 0.65227 0.0
C442 C 0.19837 0.63761 0.67609 0.0
C443 C 0.16589 0.64282 0.67574 0.0
C444 C 0.15275 0.66794 0.68927 0.0
C445 C 0.17181 0.68861 0.70344 0.0
C446 C 0.20427 0.68263 0.70504 0.0
C447 C 0.21742 0.65739 0.69152 0.0
C448 C 0.23838 0.51651 0.6215 0.0
C449 C 0.23995 0.5216 0.70371 0.0
C450 C 0.33697 0.47339 0.65436 0.0
Eu451 Eu 0.29844 0.51833 0.66077 0.0
C452 C 0.36855 0.46584 0.64273 0.0
C453 C 0.39592 0.47298 0.65831 0.0
C454 C 0.42535 0.46329 0.6482 0.0
C455 C 0.42808 0.44623 0.62232 0.0
C456 C 0.40073 0.43986 0.60637 0.0
C457 C 0.37136 0.44946 0.61651 0.0
C458 C 0.30535 0.56526 0.6966 0.0
C459 C 0.30423 0.56377 0.60583 0.0
O460 O 0.24174 0.61484 0.651 0.0
O461 O 0.20162 0.58744 0.65876 0.0
O462 O 0.22919 0.54218 0.61227 0.0
O463 O 0.24943 0.51928 0.64679 0.0
O464 O 0.23844 0.54982 0.69732 0.0
O465 O 0.25865 0.50319 0.68878 0.0
O466 O 0.31524 0.48044 0.63516 0.0
O467 O 0.33506 0.48932 0.67846 0.0
O468 O 0.31329 0.5386 0.70352 0.0
O469 O 0.29707 0.56653 0.66992 0.0
O470 O 0.3149 0.53998 0.61925 0.0
O471 O 0.27973 0.57916 0.61533 0.0
H472 H 0.15071 0.62816 0.66372 0.0
H473 H 0.12775 0.67192 0.68721 0.0
H474 H 0.21962 0.69783 0.71609 0.0
H475 H 0.24258 0.65402 0.69219 0.0
H476 H 0.39463 0.48551 0.67865 0.0
H477 H 0.44595 0.46874 0.66091 0.0
H478 H 0.40185 0.42634 0.58665 0.0
H479 H 0.35071 0.44333 0.60418 0.0
C480 C 0.19964 0.35953 0.54833 0.0
C481 C 0.17663 0.34581 0.56454 0.0
C482 C 0.21068 0.38719 0.55686 0.0
C483 C 0.19747 0.40204 0.58153 0.0
C484 C 0.17411 0.38822 0.59796 0.0
C485 C 0.16436 0.36006 0.58953 0.0
C486 C 0.23645 0.40055 0.53943 0.0
C487 C 0.15875 0.40351 0.62392 0.0
C488 C 0.24185 0.46193 0.62155 0.0
C489 C 0.22896 0.48764 0.60935 0.0
C490 C 0.23253 0.43407 0.61205 0.0
C491 C 0.20863 0.43167 0.59061 0.0
C492 C 0.19526 0.45756 0.57827 0.0
C493 C 0.20594 0.48527 0.58748 0.0
C494 C 0.24812 0.4072 0.62526 0.0
C495 C 0.1691 0.45599 0.55597 0.0
H496 H 0.209 0.34858 0.5289 0.0
H497 H 0.14604 0.34977 0.60172 0.0
H498 H 0.22785 0.42133 0.52952 0.0
H499 H 0.25634 0.40599 0.55414 0.0
H500 H 0.24518 0.38563 0.52165 0.0
H501 H 0.14044 0.39007 0.6339 0.0
H502 H 0.17652 0.4086 0.64095 0.0
H503 H 0.14787 0.42468 0.61699 0.0
H504 H 0.25912 0.46353 0.63891 0.0
H505 H 0.19556 0.50506 0.57828 0.0
H506 H 0.25669 0.39201 0.60766 0.0
H507 H 0.23092 0.39523 0.63829 0.0
H508 H 0.26815 0.4128 0.63976 0.0
H509 H 0.17689 0.44297 0.5365 0.0
H510 H 0.16097 0.47806 0.54869 0.0
H511 H 0.14898 0.44462 0.56546 0.0
C512 C 0.81115 0.01385 0.82309 0.0
C513 C 0.8067 1.00755 0.85271 0.0
C514 C 0.84025 1.00763 0.80952 0.0
C515 C 0.86504 0.99425 0.82584 0.0
C516 C 0.86045 0.98798 0.85576 0.0
C517 C 0.8316 0.99498 0.8688 0.0
C518 C 0.84444 0.01517 0.77775 0.0
C519 C 0.8858 0.97316 0.87396 0.0
C520 C 0.92821 0.94539 0.79117 0.0
C521 C 0.95498 0.96227 0.79495 0.0
C522 C 0.89852 0.95619 0.79957 0.0
C523 C 0.89524 0.98486 0.81171 0.0
C524 C 0.92189 1.00272 0.81389 0.0
C525 C 0.95155 0.99112 0.80572 0.0
C526 C 0.87105 0.93609 0.79728 0.0
C527 C 0.91933 0.03359 0.8262 0.0
H528 H 0.79209 0.02387 0.81069 0.0
H529 H 0.82836 0.98999 0.89172 0.0
H530 H 0.86548 0.02864 0.77525 0.0
H531 H 0.84831 0.9948 0.76451 0.0
H532 H 0.82381 0.02738 0.7687 0.0
H533 H 0.87852 0.97001 0.89701 0.0
H534 H 0.89208 0.95137 0.86419 0.0
H535 H 0.90721 0.98637 0.87408 0.0
H536 H 0.93059 0.9231 0.78274 0.0
H537 H 0.9721 1.00434 0.80847 0.0
H538 H 0.85084 0.94735 0.78652 0.0
H539 H 0.86359 0.93009 0.8196 0.0
H540 H 0.87682 0.91558 0.78476 0.0
H541 H 0.89905 0.04559 0.81629 0.0
H542 H 0.94086 0.04606 0.82233 0.0
H543 H 0.91532 0.0329 0.85017 0.0
C544 C 0.32163 0.7043 0.08068 0.0
C545 C 0.32785 0.70712 0.05071 0.0
C546 C 0.31173 0.67767 0.09199 0.0
C547 C 0.30825 0.65314 0.07294 0.0
C548 C 0.3141 0.6559 0.04263 0.0
C549 C 0.32362 0.6829 0.03184 0.0
C550 C 0.30535 0.67571 0.12442 0.0
C551 C 0.31102 0.63013 0.02171 0.0
C552 C 0.30969 0.57822 0.10867 0.0
C553 C 0.27765 0.57259 0.1104 0.0
C554 C 0.3201 0.60405 0.09588 0.0
C555 C 0.29792 0.62475 0.08473 0.0
C556 C 0.26564 0.61881 0.08574 0.0
C557 C 0.25594 0.59279 0.0984 0.0
C558 C 0.35476 0.60959 0.09507 0.0
C559 C 0.24124 0.64043 0.07438 0.0
H560 H 0.32493 0.72282 0.09546 0.0
H561 H 0.32874 0.68469 1.00872 0.0
H562 H 0.28113 0.66835 0.12792 0.0
H563 H 0.32147 0.65918 0.13443 0.0
H564 H 0.30829 0.69702 0.13611 0.0
H565 H 0.31641 0.63589 0.99875 0.0
H566 H 0.32714 0.61197 0.02851 0.0
H567 H 0.28691 0.62177 0.02238 0.0
H568 H 0.32664 0.56286 0.11801 0.0
H569 H 0.23111 0.58871 0.09958 0.0
H570 H 0.36016 0.62867 0.10944 0.0
H571 H 0.3619 0.61508 0.07252 0.0
H572 H 0.36905 0.59037 0.10252 0.0
H573 H 0.24245 0.66134 0.08706 0.0
H574 H 0.21712 0.63211 0.07599 0.0
H575 H 0.24588 0.64548 0.05113 0.0
C576 C 0.56029 0.07709 0.2915 0.0
C577 C 0.54484 0.09752 0.30993 0.0
C578 C 0.5914 0.0679 0.29719 0.0
C579 C 0.60782 0.08021 0.32134 0.0
C580 C 0.59261 0.10186 0.33927 0.0
C581 C 0.56115 0.10984 0.33366 0.0
C582 C 0.60624 0.04414 0.27809 0.0
C583 C 0.6094 0.11626 0.3647 0.0
C584 C 0.67137 0.03567 0.36022 0.0
C585 C 0.69899 0.04639 0.34845 0.0
C586 C 0.64181 0.0457 0.35072 0.0
C587 C 0.63949 0.06822 0.3298 0.0
C588 C 0.66727 0.07942 0.31784 0.0
C589 C 0.69678 0.06803 0.32699 0.0
C590 C 0.61304 0.03242 0.36358 0.0
C591 C 0.66581 0.10413 0.29623 0.0
H592 H 0.54771 0.0677 0.27304 0.0
H593 H 0.54942 0.12609 0.34762 0.0
H594 H 0.62893 0.05138 0.26949 0.0
H595 H 0.61118 0.02434 0.29137 0.0
H596 H 0.59099 0.03793 0.25929 0.0
H597 H 0.59554 0.13491 0.37438 0.0
H598 H 0.61415 0.09995 0.38206 0.0
H599 H 0.63231 0.12439 0.35751 0.0
H600 H 0.67278 0.01958 0.37737 0.0
H601 H 0.71802 0.07681 0.31822 0.0
H602 H 0.59687 0.0254 0.34582 0.0
H603 H 0.60031 0.04906 0.37727 0.0
H604 H 0.61889 0.01316 0.3774 0.0
H605 H 0.65086 0.09824 0.27717 0.0
H606 H 0.68935 0.10972 0.28817 0.0
H607 H 0.65493 0.12394 0.30679 0.0
C608 C 0.66935 0.18975 0.51412 0.0
C609 C 0.68669 0.21352 0.50468 0.0
C610 C 0.67763 0.16079 0.50631 0.0
C611 C 0.70302 0.15528 0.48718 0.0
C612 C 0.72063 0.17915 0.47725 0.0
C613 C 0.71254 0.20804 0.48652 0.0
C614 C 0.6587 0.13613 0.51815 0.0
C615 C 0.74725 0.17424 0.45605 0.0
C616 C 0.73874 0.07793 0.48102 0.0
C617 C 0.72242 0.06641 0.4569 0.0
C618 C 0.73232 0.10664 0.49147 0.0
C619 C 0.70998 0.12464 0.47665 0.0
C620 C 0.69334 0.11299 0.45232 0.0
C621 C 0.69938 0.08385 0.44307 0.0
C622 C 0.74963 0.11779 0.51818 0.0
C623 C 0.66986 0.13156 0.43542 0.0
H624 H 0.64875 0.19373 0.52735 0.0
H625 H 0.72572 0.22633 0.47877 0.0
H626 H 0.64499 0.12594 0.50014 0.0
H627 H 0.67442 0.11879 0.52736 0.0
H628 H 0.64219 0.14386 0.5355 0.0
H629 H 0.7589 0.19497 0.45071 0.0
H630 H 0.76495 0.15869 0.46529 0.0
H631 H 0.7383 0.16418 0.43542 0.0
H632 H 0.75687 0.06459 0.49145 0.0
H633 H 0.68733 0.0753 0.42389 0.0
H634 H 0.7327 0.12588 0.53497 0.0
H635 H 0.76416 0.13656 0.51223 0.0
H636 H 0.76508 0.10057 0.52806 0.0
H637 H 0.64989 0.13806 0.44969 0.0
H638 H 0.66062 0.11986 0.41578 0.0
H639 H 0.68082 0.15203 0.42825 0.0
C640 C 0.0815 0.45201 0.74844 0.0
C641 C 0.07813 0.44573 0.77821 0.0
C642 C 0.10821 0.46593 0.73837 0.0
C643 C 0.13209 0.47366 0.75855 0.0
C644 C 0.1283 0.46832 0.78874 0.0
C645 C 0.10135 0.45451 0.79821 0.0
C646 C 0.11135 0.47148 0.70598 0.0
C647 C 0.15327 0.47615 0.81091 0.0
C648 C 0.21317 0.4794 0.72613 0.0
C649 C 0.2152 0.50976 0.72238 0.0
C650 C 0.18665 0.46742 0.73882 0.0
C651 C 0.16156 0.48626 0.74787 0.0
C652 C 0.16415 0.517 0.74557 0.0
C653 C 0.19102 0.52839 0.733 0.0
C654 C 0.18491 0.43452 0.7413 0.0
C655 C 0.13787 0.53778 0.75495 0.0
H656 H 0.06375 0.44524 0.73284 0.0
H657 H 0.09897 0.44983 0.8213 0.0
H658 H 0.11639 0.49489 0.70234 0.0
H659 H 0.13133 0.45822 0.69704 0.0
H660 H 0.0899 0.46583 0.69345 0.0
H661 H 0.14596 0.47203 0.83377 0.0
H662 H 0.17496 0.463 0.80635 0.0
H663 H 0.15915 0.4996 0.80911 0.0
H664 H 0.23172 0.46482 0.71806 0.0
H665 H 0.19231 0.5519 0.73025 0.0
H666 H 0.16624 0.42629 0.72654 0.0
H667 H 0.1787 0.42856 0.76398 0.0
H668 H 0.20733 0.42311 0.7354 0.0
H669 H 0.11713 0.53436 0.74066 0.0
H670 H 0.14445 0.56113 0.75368 0.0
H671 H 0.13078 0.53326 0.77774 0.0
C672 C 0.80859 0.95127 0.96911 0.0
C673 C 0.77786 0.95768 0.95972 0.0
C674 C 0.81786 0.92262 0.9772 0.0
C675 C 0.79605 0.89976 0.97534 0.0
C676 C 0.76482 0.9063 0.96669 0.0
C677 C 0.75605 0.93513 0.95927 0.0
C678 C 0.85118 0.91666 0.98703 0.0
C679 C 0.74084 0.88261 0.96433 0.0
C680 C 0.82712 0.8213 0.96436 0.0
C681 C 0.8243 0.80992 0.99253 0.0
C682 C 0.81814 0.85053 0.95852 0.0
C683 C 0.80601 0.86879 0.98141 0.0
C684 C 0.80266 0.85719 1.00982 0.0
C685 C 0.81181 0.82788 0.015 0.0
C686 C 0.82175 0.86188 0.92784 0.0
C687 C 0.79016 0.87585 0.03495 0.0
H688 H 0.8256 0.96849 0.96958 0.0
H689 H 0.73225 0.93969 0.95199 0.0
H690 H 0.85148 0.90554 1.00851 0.0
H691 H 0.86316 0.90166 0.97108 0.0
H692 H 0.86472 0.93706 0.98911 0.0
H693 H 0.71733 0.89139 0.9579 0.0
H694 H 0.74847 0.86583 0.94782 0.0
H695 H 0.73884 0.87136 0.9856 0.0
H696 H 0.83691 0.80752 0.94697 0.0
H697 H 0.80949 0.81907 0.03679 0.0
H698 H 0.83761 0.88076 0.92811 0.0
H699 H 0.79873 0.86989 0.91935 0.0
H700 H 0.83133 0.84483 0.91247 0.0
H701 H 0.80821 0.8916 0.04195 0.0
H702 H 0.78404 0.86244 0.05409 0.0
H703 H 0.76908 0.88882 0.02819 0.0
C704 C 0.4478 0.58091 0.22076 0.0
C705 C 0.45716 0.58553 0.24994 0.0
C706 C 0.41725 0.57221 0.21384 0.0
C707 C 0.39526 0.56898 0.2366 0.0
C708 C 0.40477 0.57331 0.26613 0.0
C709 C 0.43584 0.5807 0.27244 0.0
C710 C 0.40843 0.56681 0.18213 0.0
C711 C 0.38192 0.57107 0.29104 0.0
C712 C 0.30953 0.57661 0.21386 0.0
C713 C 0.30028 0.54733 0.21345 0.0
C714 C 0.34008 0.58404 0.22222 0.0
C715 C 0.36221 0.56156 0.22945 0.0
C716 C 0.35281 0.53199 0.22942 0.0
C717 C 0.32173 0.52537 0.22222 0.0
C718 C 0.34876 0.61594 0.22298 0.0
C719 C 0.3758 0.50723 0.2361 0.0
H720 H 0.46429 0.58433 0.20327 0.0
H721 H 0.44327 0.58333 0.29505 0.0
H722 H 0.39772 0.545 0.17948 0.0
H723 H 0.39073 0.5835 0.17505 0.0
H724 H 0.42891 0.56773 0.16735 0.0
H725 H 0.39274 0.57631 0.31265 0.0
H726 H 0.36168 0.5864 0.28749 0.0
H727 H 0.37265 0.54862 0.29173 0.0
H728 H 0.29294 0.59374 0.20739 0.0
H729 H 0.31435 0.50286 0.22292 0.0
H730 H 0.3663 0.61998 0.20581 0.0
H731 H 0.35961 0.62161 0.24444 0.0
H732 H 0.32819 0.63086 0.21931 0.0
H733 H 0.39585 0.5078 0.22081 0.0
H734 H 0.36501 0.48538 0.23411 0.0
H735 H 0.38532 0.50988 0.25862 0.0
C736 C 0.50056 0.20655 0.35931 0.0
C737 C 0.52209 0.19582 0.33833 0.0
C738 C 0.51033 0.21594 0.38721 0.0
C739 C 0.54258 0.21533 0.39429 0.0
C740 C 0.56463 0.20541 0.37301 0.0
C741 C 0.55411 0.19553 0.34532 0.0
C742 C 0.48598 0.22581 0.40937 0.0
C743 C 0.5993 0.20496 0.37959 0.0
C744 C 0.56753 0.26546 0.45697 0.0
C745 C 0.57295 0.24563 0.47986 0.0
C746 C 0.55808 0.25582 0.42903 0.0
C747 C 0.55303 0.22565 0.42387 0.0
C748 C 0.5571 0.20561 0.44713 0.0
C749 C 0.5673 0.2158 0.47479 0.0
C750 C 0.55445 0.27787 0.40478 0.0
C751 C 0.5512 0.17334 0.44265 0.0
H752 H 0.47571 0.20678 0.35436 0.0
H753 H 0.5709 0.18704 0.32943 0.0
H754 H 0.48815 0.21219 0.42927 0.0
H755 H 0.48983 0.24887 0.41628 0.0
H756 H 0.46174 0.22423 0.40063 0.0
H757 H 0.61342 0.19707 0.36056 0.0
H758 H 0.60674 0.22733 0.38594 0.0
H759 H 0.60456 0.1905 0.39842 0.0
H760 H 0.57196 0.28855 0.46044 0.0
H761 H 0.57159 0.20027 0.49221 0.0
H762 H 0.53015 0.27801 0.39609 0.0
H763 H 0.57018 0.27156 0.38636 0.0
H764 H 0.55996 0.30048 0.41224 0.0
H765 H 0.55403 0.16086 0.46325 0.0
H766 H 0.56768 0.16385 0.42616 0.0
H767 H 0.52716 0.17029 0.43398 0.0
C768 C 0.07217 0.34005 0.60141 0.0
C769 C 0.07307 0.31121 0.59023 0.0
C770 C 0.06578 0.34596 0.63119 0.0
C771 C 0.06095 0.32242 0.65046 0.0
C772 C 0.06142 0.29328 0.63912 0.0
C773 C 0.06666 0.28815 0.60904 0.0
C774 C 0.06452 0.3774 0.64209 0.0
C775 C 0.05734 0.26743 0.65889 0.0
C776 C 0.0771 0.3378 0.73159 0.0
C777 C 0.04678 0.34103 0.74294 0.0
C778 C 0.08203 0.33103 0.70173 0.0
C779 C 0.05601 0.32822 0.68252 0.0
C780 C 0.02533 0.33119 0.69398 0.0
C781 C 0.02113 0.33691 0.72412 0.0
C782 C 0.11512 0.32705 0.6907 0.0
C783 C 0.9969 0.32926 0.67426 0.0
H784 H 0.07688 0.35802 0.58695 0.0
H785 H 0.06645 0.26591 0.60034 0.0
H786 H 0.04187 0.38221 0.65314 0.0
H787 H 0.08332 0.38097 0.65855 0.0
H788 H 0.06729 0.39324 0.6241 0.0
H789 H 0.05929 0.24612 0.6468 0.0
H790 H 0.07539 0.26763 0.67651 0.0
H791 H 0.03417 0.26901 0.66964 0.0
H792 H 0.09706 0.34071 0.74605 0.0
H793 H 0.99767 0.33878 0.73286 0.0
H794 H 0.12021 0.34438 0.67476 0.0
H795 H 0.11791 0.30561 0.67902 0.0
H796 H 0.1327 0.32802 0.70872 0.0
H797 H 0.99698 0.34735 0.65827 0.0
H798 H 0.97468 0.33079 0.68673 0.0
H799 H 0.99751 0.30835 0.66152 0.0
C800 C 1.00283 0.83734 0.84192 0.0
C801 C 0.98161 0.84719 0.82028 0.0
C802 C 0.99245 0.8257 0.8683 0.0
C803 C 0.95998 0.82322 0.87316 0.0
C804 C 0.93842 0.83168 0.85087 0.0
C805 C 0.94947 0.84371 0.82475 0.0
C806 C 0.01626 0.81716 0.89149 0.0
C807 C 0.90363 0.82887 0.855 0.0
C808 C 0.93619 0.77138 0.93313 0.0
C809 C 0.92897 0.79083 0.95648 0.0
C810 C 0.94582 0.78164 0.90586 0.0
C811 C 0.94878 0.81213 0.90177 0.0
C812 C 0.94199 0.8319 0.92532 0.0
C813 C 0.932 0.82104 0.95232 0.0
C814 C 0.95245 0.75983 0.88128 0.0
C815 C 0.9452 0.86457 0.92197 0.0
H816 H 0.02774 0.8398 0.83883 0.0
H817 H 0.93284 0.85134 0.80834 0.0
H818 H 0.01237 0.83081 0.91156 0.0
H819 H 0.01348 0.79395 0.89765 0.0
H820 H 0.0407 0.81997 0.88411 0.0
H821 H 0.89009 0.83457 0.83492 0.0
H822 H 0.89824 0.80611 0.86117 0.0
H823 H 0.89558 0.84357 0.87319 0.0
H824 H 0.93368 0.748 0.93587 0.0
H825 H 0.92626 0.83628 0.97007 0.0
H826 H 0.97711 0.76133 0.87416 0.0
H827 H 0.93739 0.76505 0.86204 0.0
H828 H 0.94831 0.73688 0.88777 0.0
H829 H 0.96954 0.86947 0.91575 0.0
H830 H 0.93928 0.87701 0.94241 0.0
H831 H 0.92961 0.87256 0.9041 0.0
C832 C 0.45013 0.69501 0.20915 0.0
C833 C 0.48114 0.68458 0.21228 0.0
C834 C 0.43883 0.7055 0.18205 0.0
C835 C 0.4588 0.70493 0.15735 0.0
C836 C 0.49014 0.69459 0.16048 0.0
C837 C 0.50097 0.68488 0.18786 0.0
C838 C 0.40545 0.71693 0.17976 0.0
C839 C 0.51209 0.69299 0.13466 0.0
C840 C 0.42433 0.70322 0.08005 0.0
C841 C 0.42922 0.73191 0.07082 0.0
C842 C 0.43329 0.69427 0.10834 0.0
C843 C 0.4471 0.71464 0.12801 0.0
C844 C 0.45168 0.74376 0.11882 0.0
C845 C 0.44322 0.75184 0.09017 0.0
C846 C 0.42836 0.66291 0.11699 0.0
C847 C 0.46587 0.76631 0.13914 0.0
H848 H 0.43461 0.69483 0.22783 0.0
H849 H 0.52489 0.67661 0.18983 0.0
H850 H 0.40487 0.73933 0.17056 0.0
H851 H 0.39201 0.70275 0.16454 0.0
H852 H 0.39354 0.71767 0.20133 0.0
H853 H 0.53575 0.68428 0.14071 0.0
H854 H 0.50229 0.67865 0.11719 0.0
H855 H 0.51454 0.71508 0.12525 0.0
H856 H 0.41343 0.68773 0.06516 0.0
H857 H 0.44802 0.77369 0.08273 0.0
H858 H 0.41253 0.66235 0.13611 0.0
H859 H 0.45099 0.65246 0.12368 0.0
H860 H 0.41811 0.64963 0.09888 0.0
H861 H 0.45342 0.767 0.16041 0.0
H862 H 0.46494 0.78864 0.12971 0.0
H863 H 0.49068 0.76015 0.14374 0.0
C864 C 0.16944 0.35501 0.33387 0.0
C865 C 0.16785 0.37019 0.36083 0.0
C866 C 0.18046 0.36857 0.30864 0.0
C867 C 0.19042 0.39793 0.31047 0.0
C868 C 0.18981 0.41303 0.33785 0.0
C869 C 0.17836 0.39904 0.36265 0.0
C870 C 0.18045 0.35183 0.27983 0.0
C871 C 0.20061 0.4442 0.34084 0.0
C872 C 0.24038 0.42879 0.25003 0.0
C873 C 0.21829 0.44589 0.23447 0.0
C874 C 0.23162 0.41268 0.27455 0.0
C875 C 0.19996 0.41344 0.28356 0.0
C876 C 0.17742 0.42991 0.26739 0.0
C877 C 0.18687 0.44601 0.24316 0.0
C878 C 0.25638 0.39552 0.29129 0.0
C879 C 0.14336 0.431 0.27603 0.0
H880 H 0.16105 0.33281 0.33229 0.0
H881 H 0.17749 0.41074 0.38351 0.0
H882 H 0.16388 0.36266 0.26432 0.0
H883 H 0.20399 0.35201 0.26977 0.0
H884 H 0.17357 0.32868 0.28237 0.0
H885 H 0.2004 0.45224 0.36395 0.0
H886 H 0.22469 0.44585 0.33218 0.0
H887 H 0.18519 0.45892 0.32765 0.0
H888 H 0.26474 0.42857 0.24354 0.0
H889 H 0.16957 0.45896 0.23119 0.0
H890 H 0.24957 0.37233 0.29326 0.0
H891 H 0.25849 0.40472 0.31386 0.0
H892 H 0.27966 0.39603 0.28066 0.0
H893 H 0.13441 0.40844 0.27734 0.0
H894 H 0.12851 0.44361 0.26031 0.0
H895 H 0.14083 0.44134 0.29809 0.0
C896 C 0.88365 0.9674 0.58168 0.0
C897 C 0.89779 0.93966 0.58607 0.0
C898 C 0.86868 0.97433 0.55501 0.0
C899 C 0.86791 0.95309 0.53201 0.0
C900 C 0.88404 0.92581 0.53561 0.0
C901 C 0.89859 0.91937 0.56261 0.0
C902 C 0.85162 1.00359 0.55233 0.0
C903 C 0.88417 0.90264 0.51163 0.0
C904 C 0.79296 0.95245 0.48711 0.0
C905 C 0.80138 0.96606 0.46105 0.0
C906 C 0.81452 0.94789 0.50991 0.0
C907 C 0.84561 0.95721 0.50687 0.0
C908 C 0.85458 0.97068 0.48045 0.0
C909 C 0.8323 0.97492 0.45772 0.0
C910 C 0.80371 0.93344 0.53755 0.0
C911 C 0.88749 0.98098 0.47641 0.0
H912 H 0.88274 0.9832 0.59968 0.0
H913 H 0.90997 0.89808 0.5656 0.0
H914 H 0.85645 0.01359 0.53088 0.0
H915 H 0.82602 1.00032 0.55347 0.0
H916 H 0.85827 0.01921 0.5701 0.0
H917 H 0.90173 0.88478 0.51586 0.0
H918 H 0.86071 0.89285 0.51005 0.0
H919 H 0.88914 0.91245 0.49011 0.0
H920 H 0.76914 0.94545 0.48992 0.0
H921 H 0.83888 0.9856 0.43772 0.0
H922 H 0.80665 0.94855 0.55661 0.0
H923 H 0.8182 0.9134 0.5418 0.0
H924 H 0.77878 0.92722 0.53627 0.0
H925 H 0.89272 0.99824 0.49301 0.0
H926 H 0.89111 0.99 0.45425 0.0
H927 H 0.9045 0.96255 0.47991 0.0
C928 C 0.30436 0.61923 0.70977 0.0
C929 C 0.30577 0.58979 0.71815 0.0
C930 C 0.30788 0.64193 0.73082 0.0
C931 C 0.31268 0.63483 0.76073 0.0
C932 C 0.31223 0.60516 0.76929 0.0
C933 C 0.30889 0.58311 0.74793 0.0
C934 C 0.30778 0.67334 0.72096 0.0
C935 C 0.31691 0.59647 0.80089 0.0
C936 C 0.36288 0.67928 0.8126 0.0
C937 C 0.34063 0.69154 0.83199 0.0
C938 C 0.35386 0.66235 0.78821 0.0
C939 C 0.32171 0.65752 0.78289 0.0
C940 C 0.29898 0.67102 0.80151 0.0
C941 C 0.30872 0.68769 0.82601 0.0
C942 C 0.37894 0.64812 0.76918 0.0
C943 C 0.26448 0.66669 0.7964 0.0
H944 H 0.30163 0.62444 0.68678 0.0
H945 H 0.30942 0.56038 0.75459 0.0
H946 H 0.29146 0.68702 0.73454 0.0
H947 H 0.33149 0.68231 0.72399 0.0
H948 H 0.30089 0.67544 0.69754 0.0
H949 H 0.31342 0.57269 0.80417 0.0
H950 H 0.341 0.60171 0.80813 0.0
H951 H 0.30042 0.60908 0.81525 0.0
H952 H 0.38758 0.68183 0.81721 0.0
H953 H 0.2914 0.69742 0.84071 0.0
H954 H 0.37378 0.65204 0.74568 0.0
H955 H 0.37937 0.62403 0.77239 0.0
H956 H 0.40258 0.65641 0.77441 0.0
H957 H 0.2584 0.66928 0.77288 0.0
H958 H 0.24985 0.6824 0.80959 0.0
H959 H 0.25849 0.64408 0.80253 0.0
C960 C 0.60801 0.08479 0.09359 0.0
C961 C 0.61705 0.11124 0.10701 0.0
C962 C 0.6219 0.07453 0.0673 0.0
C963 C 0.64554 0.09097 0.0541 0.0
C964 C 0.65367 0.11831 0.0668 0.0
C965 C 0.63933 0.1281 0.09295 0.0
C966 C 0.61236 0.04535 0.05449 0.0
C967 C 0.67868 0.13665 0.05354 0.0
C968 C 0.71227 0.0524 0.01325 0.0
C969 C 0.70581 0.05943 0.98396 0.0
C970 C 0.69217 0.06151 0.03597 0.0
C971 C 0.66464 0.07812 0.02941 0.0
C972 C 0.65704 0.08401 0.99968 0.0
C973 C 0.67775 0.07456 0.97721 0.0
C974 C 0.70127 0.05447 0.0672 0.0
C975 C 0.62775 0.10134 0.99171 0.0
H976 H 0.59096 0.07146 0.10423 0.0
H977 H 0.64599 0.14888 0.10267 0.0
H978 H 0.60841 0.04699 0.03051 0.0
H979 H 0.63149 0.02882 0.05793 0.0
H980 H 0.59078 0.03732 0.06476 0.0
H981 H 0.68037 0.15849 0.0645 0.0
H982 H 0.70172 0.125 0.05546 0.0
H983 H 0.67392 0.13989 0.02987 0.0
H984 H 0.73374 0.04041 0.0186 0.0
H985 H 0.6726 0.08 0.95461 0.0
H986 H 0.68176 0.04374 0.07837 0.0
H987 H 0.70606 0.07508 0.0795 0.0
H988 H 0.72242 0.03983 0.06845 0.0
H989 H 0.6072 0.09257 1.00305 0.0
H990 H 0.62318 0.10098 0.96771 0.0
H991 H 0.63011 0.12448 0.99909 0.0
C992 C 0.69611 0.13955 0.71589 0.0
C993 C 0.68603 0.16897 0.71326 0.0
C994 C 0.70649 0.12832 0.74288 0.0
C995 C 0.70678 0.14684 0.7681 0.0
C996 C 0.69752 0.17676 0.7655 0.0
C997 C 0.68721 0.18744 0.73817 0.0
C998 C 0.71601 0.09625 0.74459 0.0
C999 C 0.69764 0.19728 0.79177 0.0
C1000 C 0.69646 0.10597 0.83909 0.0
C1001 C 0.72745 0.10194 0.84899 0.0
C1002 C 0.68939 0.12174 0.81362 0.0
C1003 C 0.71386 0.13398 0.79747 0.0
C1004 C 0.74503 0.13153 0.80824 0.0
C1005 C 0.75148 0.11552 0.83389 0.0
C1006 C 0.6558 0.12388 0.80316 0.0
C1007 C 0.77179 0.14447 0.79187 0.0
H1008 H 0.69494 0.12493 0.69699 0.0
H1009 H 0.67995 0.2103 0.73634 0.0
H1010 H 0.73946 0.09376 0.75497 0.0
H1011 H 0.69922 0.08472 0.75851 0.0
H1012 H 0.71663 0.0853 0.72267 0.0
H1013 H 0.69258 0.22043 0.78567 0.0
H1014 H 0.67974 0.19059 0.80766 0.0
H1015 H 0.72066 0.196 0.80313 0.0
H1016 H 0.67763 0.09587 0.85072 0.0
H1017 H 0.7755 0.11254 0.84131 0.0
H1018 H 0.65325 0.11125 0.78233 0.0
H1019 H 0.64898 0.14702 0.79866 0.0
H1020 H 0.63926 0.11521 0.81937 0.0
H1021 H 0.77608 0.13157 0.7714 0.0
H1022 H 0.79375 0.14434 0.80507 0.0
H1023 H 0.76591 0.16735 0.78549 0.0
C1024 C 0.18362 0.48551 0.09088 0.0
C1025 C 0.20049 0.46339 0.10563 0.0
C1026 C 0.16458 0.47877 0.06655 0.0
C1027 C 0.16262 0.44925 0.05668 0.0
C1028 C 0.17871 0.42676 0.07226 0.0
C1029 C 0.19733 0.4341 0.09661 0.0
C1030 C 0.14744 0.50334 0.05086 0.0
C1031 C 0.17715 0.395 0.06258 0.0
C1032 C 0.09849 0.4231 1.00513 0.0
C1033 C 0.11429 0.421 0.97828 0.0
C1034 C 0.11347 0.43346 0.03062 0.0
C1035 C 0.14511 0.44175 0.0293 0.0
C1036 C 0.16081 0.44072 1.00204 0.0
C1037 C 0.1452 0.43043 0.97686 0.0
C1038 C 0.09579 0.43458 0.05916 0.0
C1039 C 0.19457 0.4493 0.9997 0.0
H1040 H 0.18586 0.50819 0.09793 0.0
H1041 H 0.21023 0.41692 0.10804 0.0
H1042 H 0.15794 0.50617 0.02895 0.0
H1043 H 0.12252 0.49793 0.04735 0.0
H1044 H 0.14853 0.52451 0.06318 0.0
H1045 H 0.1899 0.38005 0.07782 0.0
H1046 H 0.15243 0.38828 0.06103 0.0
H1047 H 0.18746 0.39216 0.04043 0.0
H1048 H 0.07443 0.41627 1.00628 0.0
H1049 H 0.15763 0.42865 0.95626 0.0
H1050 H 0.09787 0.45645 0.06989 0.0
H1051 H 0.10609 0.41815 0.07436 0.0
H1052 H 0.07058 0.42997 0.05602 0.0
H1053 H 0.19772 0.47156 1.00924 0.0
H1054 H 0.20279 0.44907 0.97665 0.0
H1055 H 0.20965 0.43387 1.01243 0.0
C1056 C 0.77305 0.93131 0.30844 0.0
C1057 C 0.79095 0.95352 0.32133 0.0
C1058 C 0.78264 0.91694 0.28232 0.0
C1059 C 0.8108 0.92496 0.26871 0.0
C1060 C 0.82922 0.94697 0.28189 0.0
C1061 C 0.81912 0.96092 0.30795 0.0
C1062 C 0.76238 0.89353 0.26903 0.0
C1063 C 0.85941 0.95619 0.26818 0.0
C1064 C 0.8515 0.87397 0.21305 0.0
C1065 C 0.84237 0.88658 0.18633 0.0
C1066 C 0.84086 0.8858 0.23997 0.0
C1067 C 0.82074 0.91099 0.24028 0.0
C1068 C 0.81117 0.92363 0.21338 0.0
C1069 C 0.82201 0.91125 0.18679 0.0
C1070 C 0.85145 0.87152 0.26811 0.0
C1071 C 0.78995 0.95062 0.21269 0.0
H1072 H 0.75126 0.92538 0.31849 0.0
H1073 H 0.83325 0.97797 0.31763 0.0
H1074 H 0.75382 0.90048 0.24713 0.0
H1075 H 0.77629 0.87287 0.2658 0.0
H1076 H 0.74185 0.88898 0.28289 0.0
H1077 H 0.87145 0.97312 0.28154 0.0
H1078 H 0.87555 0.93691 0.26536 0.0
H1079 H 0.8546 0.9651 0.24606 0.0
H1080 H 0.86685 0.85467 0.2129 0.0
H1081 H 0.81509 0.92133 0.1663 0.0
H1082 H 0.83085 0.86569 0.28126 0.0
H1083 H 0.8652 0.88718 0.28148 0.0
H1084 H 0.86608 0.85137 0.26411 0.0
H1085 H 0.76806 0.94666 0.22476 0.0
H1086 H 0.78376 0.95717 0.18998 0.0
H1087 H 0.8016 0.96921 0.22387 0.0
C1088 C 0.31081 0.5999 0.56566 0.0
C1089 C 0.31978 0.57324 0.57866 0.0
C1090 C 0.32407 0.60861 0.53923 0.0
C1091 C 0.3468 0.59019 0.52528 0.0
C1092 C 0.35632 0.56345 0.53844 0.0
C1093 C 0.34276 0.55532 0.56501 0.0
C1094 C 0.31344 0.63741 0.52603 0.0
C1095 C 0.38045 0.54319 0.52421 0.0
C1096 C 0.35684 0.60023 0.4433 0.0
C1097 C 0.38358 0.61737 0.44238 0.0
C1098 C 0.34497 0.59079 0.47008 0.0
C1099 C 0.3601 0.59879 0.49665 0.0
C1100 C 0.38726 0.61587 0.49586 0.0
C1101 C 0.39869 0.6249 0.46876 0.0
C1102 C 0.31607 0.57243 0.46998 0.0
C1103 C 0.40394 0.62502 0.52369 0.0
H1104 H 0.29319 0.61401 0.57603 0.0
H1105 H 0.34982 0.53465 0.57479 0.0
H1106 H 0.33385 0.65148 0.52263 0.0
H1107 H 0.30257 0.63338 0.50423 0.0
H1108 H 0.29623 0.64961 0.54005 0.0
H1109 H 0.38589 0.52353 0.5376 0.0
H1110 H 0.37186 0.53581 0.50237 0.0
H1111 H 0.40241 0.55503 0.52066 0.0
H1112 H 0.34531 0.59398 0.42299 0.0
H1113 H 0.41917 0.6384 0.46825 0.0
H1114 H 0.29699 0.58421 0.48205 0.0
H1115 H 0.32098 0.55153 0.48147 0.0
H1116 H 0.30765 0.56731 0.44743 0.0
H1117 H 0.38799 0.63892 0.53745 0.0
H1118 H 0.42534 0.63748 0.51928 0.0
H1119 H 0.41062 0.60542 0.53665 0.0
C1120 C 0.20223 0.25918 0.47098 0.0
C1121 C 0.18695 0.23636 0.48479 0.0
C1122 C 0.22585 0.25319 0.45014 0.0
C1123 C 0.23432 0.22367 0.44291 0.0
C1124 C 0.21817 0.20064 0.45615 0.0
C1125 C 0.19477 0.20726 0.4769 0.0
C1126 C 0.24226 0.27842 0.43646 0.0
C1127 C 0.22603 0.16889 0.44885 0.0
C1128 C 0.27891 0.20262 0.37324 0.0
C1129 C 0.30921 0.19643 0.38412 0.0
C1130 C 0.25461 0.21252 0.39187 0.0
C1131 C 0.26061 0.21656 0.42222 0.0
C1132 C 0.2914 0.21161 0.43314 0.0
C1133 C 0.31524 0.20156 0.41404 0.0
C1134 C 0.2222 0.21759 0.37923 0.0
C1135 C 0.29893 0.21583 0.46529 0.0
H1136 H 0.19618 0.28173 0.47688 0.0
H1137 H 0.18291 0.18952 0.48735 0.0
H1138 H 0.26724 0.27795 0.44327 0.0
H1139 H 0.24161 0.27629 0.41222 0.0
H1140 H 0.23159 0.30002 0.44292 0.0
H1141 H 0.21045 0.1536 0.46012 0.0
H1142 H 0.22411 0.16494 0.42485 0.0
H1143 H 0.25059 0.16363 0.45534 0.0
H1144 H 0.27404 0.19933 0.3501 0.0
H1145 H 0.33837 0.19665 0.42284 0.0
H1146 H 0.21285 0.23963 0.38578 0.0
H1147 H 0.20615 0.20123 0.3881 0.0
H1148 H 0.22186 0.21573 0.35492 0.0
H1149 H 0.29066 0.23789 0.47297 0.0
H1150 H 0.32441 0.21342 0.46995 0.0
H1151 H 0.28648 0.19942 0.47824 0.0
C1152 C 0.08111 0.11542 0.67582 0.0
C1153 C 0.09772 0.11611 0.64943 0.0
C1154 C 0.07006 0.08896 0.68662 0.0
C1155 C 0.07577 0.06245 0.67071 0.0
C1156 C 0.092 0.06305 0.64379 0.0
C1157 C 0.10277 0.08984 0.63348 0.0
C1158 C 0.05274 0.0893 0.71536 0.0
C1159 C 0.09868 0.03528 0.62622 0.0
C1160 C 0.07749 0.9929 0.71552 0.0
C1161 C 0.04752 0.98192 0.71034 0.0
C1162 C 0.08715 0.01864 0.70221 0.0
C1163 C 0.06639 0.03396 0.6832 0.0
C1164 C 0.03644 0.0226 0.67714 0.0
C1165 C 0.02737 0.9967 0.69075 0.0
C1166 C 0.11936 0.02987 0.70914 0.0
C1167 C 0.01367 0.03824 0.65692 0.0
H1168 H 0.07664 0.13566 0.68803 0.0
H1169 H 0.11583 0.09011 0.61322 0.0
H1170 H 0.02966 0.07901 0.71245 0.0
H1171 H 0.06616 0.07621 0.7317 0.0
H1172 H 0.04895 0.11188 0.72437 0.0
H1173 H 0.10987 0.03967 0.60489 0.0
H1174 H 0.11444 0.02042 0.63893 0.0
H1175 H 0.07669 0.02347 0.62201 0.0
H1176 H 0.0934 0.98164 0.73043 0.0
H1177 H 1.00417 0.98847 0.68657 0.0
H1178 H 0.11725 0.05153 0.72048 0.0
H1179 H 0.13247 0.03307 0.68859 0.0
H1180 H 0.13321 0.0147 0.72331 0.0
H1181 H 0.00696 0.05999 0.66651 0.0
H1182 H 0.99208 0.02565 0.65303 0.0
H1183 H 0.02483 0.04218 0.63551 0.0
C1184 C 0.18289 0.83173 0.9051 0.0
C1185 C 0.1878 0.85017 0.88131 0.0
C1186 C 0.20787 0.82232 0.92317 0.0
C1187 C 0.23857 0.83165 0.91745 0.0
C1188 C 0.24392 0.84901 0.8926 0.0
C1189 C 0.21852 0.85805 0.87486 0.0
C1190 C 0.20113 0.80361 0.94926 0.0
C1191 C 0.27621 0.85951 0.88571 0.0
C1192 C 0.29114 0.84115 0.98422 0.0
C1193 C 0.31059 0.81597 0.98276 0.0
C1194 C 0.26811 0.84664 0.96282 0.0
C1195 C 0.26415 0.82632 0.93937 0.0
C1196 C 0.28409 0.80099 0.9375 0.0
C1197 C 0.30714 0.79611 0.95927 0.0
C1198 C 0.24764 0.87406 0.96561 0.0
C1199 C 0.28061 0.77876 0.91291 0.0
H1200 H 0.15933 0.82515 0.90998 0.0
H1201 H 0.2226 0.87251 0.85673 0.0
H1202 H 0.21764 0.78444 0.94998 0.0
H1203 H 0.20458 0.81659 0.96975 0.0
H1204 H 0.17681 0.79558 0.9489 0.0
H1205 H 0.27717 0.86979 0.86383 0.0
H1206 H 0.2833 0.87593 0.90253 0.0
H1207 H 0.2936 0.84103 0.88641 0.0
H1208 H 0.29375 0.85656 1.00237 0.0
H1209 H 0.32187 0.77642 0.95831 0.0
H1210 H 0.22285 0.86801 0.9682 0.0
H1211 H 0.24906 0.88716 0.9454 0.0
H1212 H 0.25439 0.88809 0.98463 0.0
H1213 H 0.25743 0.76849 0.91434 0.0
H1214 H 0.2991 0.76119 0.9136 0.0
H1215 H 0.28153 0.78969 0.8914 0.0
C1216 C 0.47413 0.058 0.19123 0.0
C1217 C 0.45474 0.07218 0.21204 0.0
C1218 C 0.46478 0.03224 0.1767 0.0
C1219 C 0.43537 0.02038 0.18315 0.0
C1220 C 0.41517 0.03525 0.20319 0.0
C1221 C 0.42506 0.06097 0.21733 0.0
C1222 C 0.48687 0.01713 0.15528 0.0
C1223 C 0.38359 0.02336 0.21063 0.0
C1224 C 0.40036 0.96217 0.13302 0.0
C1225 C 0.40821 0.9363 0.148 0.0
C1226 C 0.40937 0.98969 0.14395 0.0
C1227 C 0.42653 0.99141 0.17055 0.0
C1228 C 0.43464 0.9654 0.18569 0.0
C1229 C 0.42548 0.9382 0.17421 0.0
C1230 C 0.40031 0.01694 0.12719 0.0
C1231 C 0.45291 0.96629 0.21415 0.0
H1232 H 0.49704 0.06652 0.18685 0.0
H1233 H 0.40977 0.07179 0.23322 0.0
H1234 H 0.49503 0.99575 0.16421 0.0
H1235 H 0.47462 1.0125 0.13425 0.0
H1236 H 0.50766 0.03044 0.15079 0.0
H1237 H 0.36979 0.03858 0.22508 0.0
H1238 H 0.36987 0.01915 0.19034 0.0
H1239 H 0.3868 1.00209 0.22191 0.0
H1240 H 0.38676 0.96095 0.11292 0.0
H1241 H 0.43217 0.91832 0.18564 0.0
H1242 H 0.42147 0.02944 0.12212 0.0
H1243 H 0.38491 0.03148 0.14084 0.0
H1244 H 0.38788 1.01179 0.10634 0.0
H1245 H 0.4756 0.97698 0.21081 0.0
H1246 H 0.45759 0.94406 0.22307 0.0
H1247 H 0.43977 0.9796 0.23075 0.0
C1248 C 0.81913 0.36757 0.67824 0.0
C1249 C 0.84884 0.35404 0.67565 0.0
C1250 C 0.79299 0.35583 0.66398 0.0
C1251 C 0.79671 0.33009 0.64645 0.0
C1252 C 0.82652 0.31592 0.64432 0.0
C1253 C 0.85222 0.328 0.65908 0.0
C1254 C 0.76154 0.3714 0.66707 0.0
C1255 C 0.83149 0.28863 0.6256 0.0
C1256 C 0.72377 0.28943 0.62279 0.0
C1257 C 0.71803 0.30103 0.59489 0.0
C1258 C 0.74942 0.29848 0.63984 0.0
C1259 C 0.76993 0.31939 0.62857 0.0
C1260 C 0.76453 0.33077 0.60026 0.0
C1261 C 0.73863 0.32156 0.58386 0.0
C1262 C 0.75433 0.28602 0.67003 0.0
C1263 C 0.78599 0.3529 0.58732 0.0
H1264 H 0.81636 0.38745 0.69142 0.0
H1265 H 0.87519 0.31758 0.65691 0.0
H1266 H 0.75392 0.38019 0.64555 0.0
H1267 H 0.74365 0.35577 0.67398 0.0
H1268 H 0.76212 0.38986 0.68323 0.0
H1269 H 0.8556 0.27917 0.62781 0.0
H1270 H 0.81459 0.27172 0.63161 0.0
H1271 H 0.82718 0.29391 0.60223 0.0
H1272 H 0.70798 0.27357 0.63152 0.0
H1273 H 0.73461 0.33051 0.56224 0.0
H1274 H 0.75289 0.30396 0.68673 0.0
H1275 H 0.77805 0.2757 0.67182 0.0
H1276 H 0.73675 0.26941 0.67531 0.0
H1277 H 0.78581 0.37315 0.60112 0.0
H1278 H 0.7791 0.35888 0.56462 0.0
H1279 H 0.8104 0.344 0.58704 0.0
C1280 C 0.99496 0.46208 0.86677 0.0
C1281 C 0.97024 0.44564 0.85542 0.0
C1282 C 0.98913 0.48742 0.88412 0.0
C1283 C 0.95785 0.49648 0.89024 0.0
C1284 C 0.93293 0.47906 0.88004 0.0
C1285 C 0.93943 0.45387 0.86281 0.0
C1286 C 0.01639 0.50517 0.89476 0.0
C1287 C 0.89924 0.48775 0.88621 0.0
C1288 C 0.93727 0.55322 0.94976 0.0
C1289 C 0.93107 0.57845 0.93319 0.0
C1290 C 0.94709 0.52661 0.93626 0.0
C1291 C 0.95083 0.52514 0.90545 0.0
C1292 C 0.94575 0.55081 0.88877 0.0
C1293 C 0.93594 0.57708 0.90281 0.0
C1294 C 0.95228 0.4998 0.95485 0.0
C1295 C 0.9497 0.55031 0.8559 0.0
H1296 H 0.01885 0.45575 0.86124 0.0
H1297 H 0.92023 0.44115 0.85426 0.0
H1298 H 0.01638 0.52636 0.88314 0.0
H1299 H 0.01418 0.51028 0.91852 0.0
H1300 H 0.03922 0.49357 0.89091 0.0
H1301 H 0.88273 0.47081 0.87851 0.0
H1302 H 0.89583 0.49156 0.91006 0.0
H1303 H 0.89319 0.50863 0.87509 0.0
H1304 H 0.9333 0.55395 0.9732 0.0
H1305 H 0.93171 0.59656 0.8899 0.0
H1306 H 0.97533 0.48916 0.94994 0.0
H1307 H 0.93411 0.48356 0.94959 0.0
H1308 H 0.95125 0.50514 0.97867 0.0
H1309 H 0.97326 0.54136 0.85006 0.0
H1310 H 0.94665 0.57247 0.84633 0.0
H1311 H 0.93226 0.53566 0.84566 0.0
C1312 C 0.7986 0.70402 0.09082 0.0
C1313 C 0.81152 0.73184 0.09449 0.0
C1314 C 0.77523 0.69446 0.10958 0.0
C1315 C 0.76455 0.71306 0.13276 0.0
C1316 C 0.77769 0.74103 0.13685 0.0
C1317 C 0.80098 0.75012 0.11762 0.0
C1318 C 0.7618 0.66448 0.10444 0.0
C1319 C 0.76702 0.76139 0.16142 0.0
C1320 C 0.68438 0.69587 0.16261 0.0
C1321 C 0.6923 0.67855 0.18683 0.0
C1322 C 0.70766 0.70813 0.14538 0.0
C1323 C 0.73961 0.70298 0.15259 0.0
C1324 C 0.7477 0.68642 0.17764 0.0
C1325 C 0.72397 0.67441 0.19443 0.0
C1326 C 0.69808 0.72563 0.11882 0.0
C1327 C 0.78147 0.6806 0.18617 0.0
H1328 H 0.80648 0.6897 0.07304 0.0
H1329 H 0.81082 0.77163 0.12069 0.0
H1330 H 0.76534 0.65091 0.12421 0.0
H1331 H 0.7362 0.6666 0.10048 0.0
H1332 H 0.77265 0.6527 0.08543 0.0
H1333 H 0.77989 0.78225 0.16189 0.0
H1334 H 0.74165 0.76661 0.15902 0.0
H1335 H 0.77041 0.75047 0.18281 0.0
H1336 H 0.65998 0.69899 0.15647 0.0
H1337 H 0.73023 0.66147 0.21342 0.0
H1338 H 0.70588 0.71376 0.09864 0.0
H1339 H 0.70958 0.74716 0.11925 0.0
H1340 H 0.67234 0.72947 0.11744 0.0
H1341 H 0.79319 0.6669 0.16897 0.0
H1342 H 0.78379 0.6691 0.2074 0.0
H1343 H 0.7941 0.70151 0.18784 0.0
C1344 C 0.58513 0.47208 0.44847 0.0
C1345 C 0.58344 0.44399 0.43551 0.0
C1346 C 0.57448 0.49726 0.4336 0.0
C1347 C 0.56154 0.49443 0.40507 0.0
C1348 C 0.55845 0.46606 0.39237 0.0
C1349 C 0.56947 0.44124 0.40768 0.0
C1350 C 0.57815 0.52701 0.44802 0.0
C1351 C 0.54463 0.462 0.36208 0.0
C1352 C 0.51541 0.55854 0.37124 0.0
C1353 C 0.53769 0.57032 0.35258 0.0
C1354 C 0.52285 0.53409 0.38873 0.0
C1355 C 0.55335 0.52115 0.38768 0.0
C1356 C 0.57614 0.53345 0.36949 0.0
C1357 C 0.56805 0.55777 0.35219 0.0
C1358 C 0.49786 0.52168 0.40779 0.0
C1359 C 0.60902 0.52058 0.36788 0.0
H1360 H 0.59529 0.47446 0.47018 0.0
H1361 H 0.56826 0.41976 0.39729 0.0
H1362 H 0.5951 0.53982 0.43549 0.0
H1363 H 0.55553 0.5395 0.44783 0.0
H1364 H 0.58661 0.5254 0.47104 0.0
H1365 H 0.54148 0.4385 0.35628 0.0
H1366 H 0.52161 0.47371 0.36049 0.0
H1367 H 0.56021 0.47162 0.34565 0.0
H1368 H 0.49187 0.56797 0.37173 0.0
H1369 H 0.58553 0.56669 0.338 0.0
H1370 H 0.50624 0.52032 0.43081 0.0
H1371 H 0.49272 0.49904 0.40029 0.0
H1372 H 0.47579 0.53509 0.40729 0.0
H1373 H 0.61972 0.52002 0.39009 0.0
H1374 H 0.62426 0.53323 0.35336 0.0
H1375 H 0.60842 0.49762 0.35951 0.0
C1376 C 0.408 0.33864 0.19553 0.0
C1377 C 0.37622 0.34292 0.18849 0.0
C1378 C 0.42005 0.31095 0.20358 0.0
C1379 C 0.39985 0.28687 0.20472 0.0
C1380 C 0.36767 0.29107 0.19801 0.0
C1381 C 0.35625 0.31901 0.18993 0.0
C1382 C 0.45451 0.30743 0.21065 0.0
C1383 C 0.34539 0.26596 0.19898 0.0
C1384 C 0.44041 0.212 0.19734 0.0
C1385 C 0.44419 0.20405 0.22674 0.0
C1386 C 0.42491 0.23838 0.1898 0.0
C1387 C 0.41279 0.25721 0.21221 0.0
C1388 C 0.41507 0.2485 0.24184 0.0
C1389 C 0.43077 0.222 0.24876 0.0
C1390 C 0.42287 0.24676 0.15794 0.0
C1391 C 0.40218 0.26777 0.26635 0.0
H1392 H 0.4235 0.35705 0.19497 0.0
H1393 H 0.33173 0.32201 0.18422 0.0
H1394 H 0.45771 0.29887 0.23313 0.0
H1395 H 0.4656 0.2912 0.19532 0.0
H1396 H 0.46699 0.32841 0.20912 0.0
H1397 H 0.32084 0.27308 0.19428 0.0
H1398 H 0.3525 0.24878 0.18268 0.0
H1399 H 0.34637 0.25571 0.22087 0.0
H1400 H 0.4506 0.19812 0.18023 0.0
H1401 H 0.43348 0.21585 0.27152 0.0
H1402 H 0.43726 0.26626 0.15428 0.0
H1403 H 0.39839 0.25285 0.15191 0.0
H1404 H 0.43123 0.22874 0.14307 0.0
H1405 H 0.4159 0.28806 0.26813 0.0
H1406 H 0.40314 0.25662 0.28783 0.0
H1407 H 0.37757 0.27452 0.2616 0.0
C1408 C 0.92223 0.3057 0.80975 0.0
C1409 C 0.94777 0.31464 0.82689 0.0
C1410 C 0.90514 0.28094 0.8173 0.0
C1411 C 0.91407 0.26462 0.84233 0.0
C1412 C 0.93971 0.27368 0.85972 0.0
C1413 C 0.95606 0.29859 0.85191 0.0
C1414 C 0.87768 0.27216 0.79845 0.0
C1415 C 0.95022 0.25682 0.88647 0.0
C1416 C 0.86048 0.21433 0.88289 0.0
C1417 C 0.8716 0.18654 0.87355 0.0
C1418 C 0.87274 0.24002 0.87152 0.0
C1419 C 0.89704 0.23789 0.85061 0.0
C1420 C 0.90744 0.20988 0.84019 0.0
C1421 C 0.89445 0.18453 0.85167 0.0
C1422 C 0.86065 0.26943 0.88288 0.0
C1423 C 0.93353 0.20661 0.81816 0.0
H1424 H 0.91562 0.31796 0.79041 0.0
H1425 H 0.97579 0.30516 0.86531 0.0
H1426 H 0.88196 0.24982 0.78912 0.0
H1427 H 0.85627 0.27137 0.81199 0.0
H1428 H 0.87324 0.28755 0.78015 0.0
H1429 H 0.97078 0.26664 0.89752 0.0
H1430 H 0.93085 0.25615 0.90248 0.0
H1431 H 0.95643 0.23382 0.88015 0.0
H1432 H 0.84246 0.21595 0.89949 0.0
H1433 H 0.9032 0.1631 0.84449 0.0
H1434 H 0.8553 0.28433 0.86441 0.0
H1435 H 0.87894 0.27984 0.89661 0.0
H1436 H 0.83926 0.26746 0.89632 0.0
H1437 H 0.92878 0.22086 0.79907 0.0
H1438 H 0.93681 0.1836 0.81018 0.0
H1439 H 0.95577 0.21374 0.82838 0.0
C1440 C 0.07368 0.64492 0.10056 0.0
C1441 C 0.06795 0.61639 0.10985 0.0
C1442 C 0.04938 0.66311 0.08969 0.0
C1443 C 0.01851 0.6526 0.08814 0.0
C1444 C 0.01282 0.62335 0.09618 0.0
C1445 C 0.0376 0.60559 0.10692 0.0
C1446 C 0.05653 0.69406 0.0811 0.0
C1447 C 0.98027 0.6113 0.09491 0.0
C1448 C 0.95393 0.71075 0.09718 0.0
C1449 C 0.94441 0.71542 0.06814 0.0
C1450 C 0.97752 0.68993 0.10393 0.0
C1451 C 0.9919 0.67319 0.08108 0.0
C1452 C 0.98169 0.67715 0.05174 0.0
C1453 C 0.95806 0.69831 0.0456 0.0
C1454 C 0.98761 0.6864 0.13552 0.0
C1455 C 0.9961 0.65944 0.02684 0.0
H1456 H 0.09715 0.65324 0.10229 0.0
H1457 H 0.03291 0.58365 0.11425 0.0
H1458 H 0.04693 0.69871 0.05894 0.0
H1459 H 0.0451 0.70984 0.09666 0.0
H1460 H 0.08206 0.69804 0.08113 0.0
H1461 H 0.98032 0.58727 0.09857 0.0
H1462 H 0.96558 0.62231 0.11197 0.0
H1463 H 0.9691 0.61587 0.07338 0.0
H1464 H 0.94335 0.72383 0.1147 0.0
H1465 H 0.95057 0.70173 0.02313 0.0
H1466 H 0.01247 0.69242 0.13812 0.0
H1467 H 0.98585 0.66316 0.142 0.0
H1468 H 0.97326 0.70029 0.15078 0.0
H1469 H 0.02157 0.66338 0.02582 0.0
H1470 H 0.98532 0.66494 1.00531 0.0
H1471 H 0.99335 0.63568 0.03065 0.0
C1472 C 0.65228 0.81016 0.35589 0.0
C1473 C 0.63331 0.83578 0.35756 0.0
C1474 C 0.63958 0.78278 0.34849 0.0
C1475 C 0.60708 0.78084 0.34261 0.0
C1476 C 0.5879 0.80663 0.344 0.0
C1477 C 0.60117 0.83364 0.35149 0.0
C1478 C 0.66087 0.75586 0.34721 0.0
C1479 C 0.55313 0.80565 0.33804 0.0
C1480 C 0.57172 0.71605 0.30126 0.0
C1481 C 0.55837 0.70057 0.32415 0.0
C1482 C 0.58882 0.74156 0.30696 0.0
C1483 C 0.59265 0.75182 0.33625 0.0
C1484 C 0.58047 0.7354 0.35948 0.0
C1485 C 0.56354 0.71002 0.35315 0.0
C1486 C 0.60155 0.75821 0.28153 0.0
C1487 C 0.58414 0.74532 0.39102 0.0
H1488 H 0.67718 0.81154 0.36018 0.0
H1489 H 0.58613 0.8531 0.35317 0.0
H1490 H 0.65351 0.73986 0.36371 0.0
H1491 H 0.65902 0.74496 0.32537 0.0
H1492 H 0.68575 0.76113 0.35141 0.0
H1493 H 0.54162 0.82777 0.33898 0.0
H1494 H 0.54876 0.79574 0.31607 0.0
H1495 H 0.54194 0.79159 0.35437 0.0
H1496 H 0.56794 0.7088 0.27879 0.0
H1497 H 0.55347 0.69806 0.37097 0.0
H1498 H 0.62641 0.7635 0.28552 0.0
H1499 H 0.58827 0.77931 0.27929 0.0
H1500 H 0.59977 0.74569 0.26052 0.0
H1501 H 0.60908 0.74944 0.3961 0.0
H1502 H 0.57553 0.72894 0.40662 0.0
H1503 H 0.57087 0.76629 0.39465 0.0
C1504 C 0.5419 0.32167 0.57676 0.0
C1505 C 0.57417 0.32555 0.57419 0.0
C1506 C 0.52134 0.34537 0.58261 0.0
C1507 C 0.53325 0.37389 0.58607 0.0
C1508 C 0.56572 0.37825 0.58225 0.0
C1509 C 0.58591 0.35392 0.57629 0.0
C1510 C 0.4869 0.3396 0.58611 0.0
C1511 C 0.57925 0.40835 0.58552 0.0
C1512 C 0.46692 0.43054 0.58353 0.0
C1513 C 0.45875 0.43277 0.61326 0.0
C1514 C 0.49311 0.41355 0.57439 0.0
C1515 C 0.51144 0.39827 0.59547 0.0
C1516 C 0.50478 0.40238 0.62565 0.0
C1517 C 0.47854 0.41954 0.63417 0.0
C1518 C 0.49963 0.41014 0.54203 0.0
C1519 C 0.52372 0.38657 0.64889 0.0
H1520 H 0.53262 0.29982 0.57473 0.0
H1521 H 0.61085 0.35698 0.57415 0.0
H1522 H 0.47957 0.34515 0.60885 0.0
H1523 H 0.47277 0.3537 0.57116 0.0
H1524 H 0.48128 0.31633 0.58142 0.0
H1525 H 0.60382 0.40877 0.5778 0.0
H1526 H 0.56499 0.42469 0.57312 0.0
H1527 H 0.57875 0.41526 0.60894 0.0
H1528 H 0.45214 0.44119 0.56725 0.0
H1529 H 0.47242 0.42097 0.65717 0.0
H1530 H 0.49153 0.38845 0.53417 0.0
H1531 H 0.5251 0.41092 0.53773 0.0
H1532 H 0.48735 0.42743 0.52908 0.0
H1533 H 0.5182 0.36292 0.64823 0.0
H1534 H 0.51862 0.39536 0.67125 0.0
H1535 H 0.54913 0.38832 0.64472 0.0
C1536 C 0.12844 0.71842 0.7275 0.0
C1537 C 0.15791 0.71724 0.71408 0.0
C1538 C 0.11276 0.74537 0.73324 0.0
C1539 C 0.12679 0.77191 0.72538 0.0
C1540 C 0.15751 0.77099 0.71392 0.0
C1541 C 0.17267 0.74371 0.70833 0.0
C1542 C 0.08035 0.74535 0.74617 0.0
C1543 C 0.17356 0.79877 0.70583 0.0
C1544 C 0.0686 0.83061 0.70005 0.0
C1545 C 0.06573 0.84899 0.72481 0.0
C1546 C 0.08929 0.80625 0.69973 0.0
C1547 C 0.1075 0.79976 0.72499 0.0
C1548 C 0.1055 0.81885 0.74985 0.0
C1549 C 0.08482 0.84351 0.74935 0.0
C1550 C 0.09063 0.78673 0.67266 0.0
C1551 C 0.12467 0.81309 0.77716 0.0
H1552 H 0.11713 0.69816 0.73268 0.0
H1553 H 0.19538 0.74315 0.69792 0.0
H1554 H 0.07857 0.76127 0.76477 0.0
H1555 H 0.06293 0.75233 0.72934 0.0
H1556 H 0.07408 0.72333 0.754 0.0
H1557 H 0.19865 0.79471 0.70055 0.0
H1558 H 0.16173 0.80855 0.68644 0.0
H1559 H 0.17181 0.81511 0.72406 0.0
H1560 H 0.05392 0.83486 0.68101 0.0
H1561 H 0.08263 0.85767 0.76856 0.0
H1562 H 0.08206 0.76468 0.67792 0.0
H1563 H 0.11515 0.78387 0.66511 0.0
H1564 H 0.07624 0.7957 0.65434 0.0
H1565 H 0.11469 0.82489 0.79657 0.0
H1566 H 0.14877 0.8208 0.77382 0.0
H1567 H 0.12635 0.78932 0.78197 0.0
C1568 C 0.46985 0.83211 0.97168 0.0
C1569 C 0.45129 0.83897 0.99624 0.0
C1570 C 0.49414 0.85025 0.96339 0.0
C1571 C 0.50012 0.87601 0.97998 0.0
C1572 C 0.48148 0.88321 1.00474 0.0
C1573 C 0.45728 0.86461 1.01258 0.0
C1574 C 0.51343 0.84181 0.93679 0.0
C1575 C 0.48711 0.91053 0.02293 0.0
C1576 C 0.58098 0.90689 0.96937 0.0
C1577 C 0.57494 0.92796 0.94785 0.0
C1578 C 0.55663 0.89058 0.98096 0.0
C1579 C 0.52556 0.89554 0.97082 0.0
C1580 C 0.51919 0.91765 0.95003 0.0
C1581 C 0.54393 0.93358 0.93882 0.0
C1582 C 0.56436 0.8672 1.00312 0.0
C1583 C 0.48638 0.92376 0.93878 0.0
H1584 H 0.46553 0.81242 0.95884 0.0
H1585 H 0.44318 0.87013 0.03163 0.0
H1586 H 0.51141 0.85934 0.92024 0.0
H1587 H 0.5385 0.83953 0.94302 0.0
H1588 H 0.50601 0.82087 0.92645 0.0
H1589 H 0.4707 0.91292 0.04164 0.0
H1590 H 0.51143 0.91005 0.03161 0.0
H1591 H 0.48448 0.93021 1.00905 0.0
H1592 H 0.60489 0.90236 0.97635 0.0
H1593 H 0.53904 0.95026 0.92262 0.0
H1594 H 0.56016 0.84524 0.99326 0.0
H1595 H 0.54888 0.8698 0.02245 0.0
H1596 H 0.58911 0.86783 1.01067 0.0
H1597 H 0.47814 0.90442 0.92615 0.0
H1598 H 0.48501 0.94317 0.92436 0.0
H1599 H 0.47008 0.9275 0.95735 0.0
C1600 C 0.96136 0.10713 0.45899 0.0
C1601 C 0.92992 0.11687 0.46046 0.0
C1602 C 0.98571 0.12453 0.46975 0.0
C1603 C 0.97859 0.1523 0.48272 0.0
C1604 C 0.94687 0.16172 0.4855 0.0
C1605 C 0.92297 0.144 0.47425 0.0
C1606 C 0.01915 0.11359 0.46631 0.0
C1607 C 0.93821 0.19104 0.49944 0.0
C1608 C 0.04156 0.18991 0.52844 0.0
C1609 C 0.05309 0.21017 0.50857 0.0
C1610 C 0.01732 0.171 0.52042 0.0
C1611 C 0.00437 0.17216 0.49177 0.0
C1612 C 0.01618 0.1923 0.47153 0.0
C1613 C 0.04026 0.21107 0.48018 0.0
C1614 C 0.00535 0.14998 0.54271 0.0
C1615 C 1.00332 0.19407 0.44067 0.0
H1616 H 0.96705 0.08597 0.44897 0.0
H1617 H 0.89889 0.15196 0.47531 0.0
H1618 H 0.03174 0.12828 0.45154 0.0
H1619 H 0.03147 0.11404 0.4878 0.0
H1620 H 0.02073 0.0909 0.45711 0.0
H1621 H 0.91252 0.19414 0.50213 0.0
H1622 H 0.94962 0.19321 0.52126 0.0
H1623 H 0.94679 0.20894 0.48567 0.0
H1624 H 0.05121 0.18901 0.55045 0.0
H1625 H 0.04899 0.22652 0.4646 0.0
H1626 H 0.00758 0.12711 0.53418 0.0
H1627 H 0.98011 0.15463 0.54671 0.0
H1628 H 0.01816 0.15148 0.56394 0.0
H1629 H 0.00596 0.17239 0.42945 0.0
H1630 H 0.01526 0.21066 0.42747 0.0
H1631 H 0.97794 0.1998 0.44123 0.0
loop_
_geom_bond_atom_site_label_1
_geom_bond_atom_site_label_2
_geom_bond_distance
_geom_bond_site_symmetry_2
_ccdc_geom_bond_type
C0 Eu1 2.835 . S
C0 C2 1.500 . S
C0 O20 1.257 . S
C0 O21 1.260 . S
Eu1 C0 2.835 . S
Eu1 O20 2.473 . S
Eu1 O21 2.480 . S
Eu1 O22 2.430 . S
Eu1 O23 2.670 . S
Eu1 O24 2.394 . S
Eu1 O29 2.355 . S
Eu1 O31 2.374 . S
C2 C0 1.500 . S
C2 C3 1.377 . S
C2 C7 1.377 . S
C3 C2 1.377 . S
C3 C4 1.395 . S
C3 H32 0.931 . S
C4 C3 1.395 . S
C4 C5 1.383 . S
C4 H33 0.931 . S
C5 C4 1.383 . S
C5 C6 1.394 . S
C6 C5 1.394 . S
C6 C7 1.378 . S
C6 H34 0.931 . S
C7 C2 1.377 . S
C7 C6 1.378 . S
C7 H35 0.931 . S
C8 O22 1.259 . S
C8 O23 1.270 . S
C9 O24 1.251 . S
C9 O25 1.251 . S
C10 Eu11 2.835 . S
C10 C12 1.500 . S
C10 O26 1.257 . S
C10 O27 1.260 . S
Eu11 C10 2.835 . S
Eu11 O23 2.355 . S
Eu11 O25 2.374 . S
Eu11 O26 2.473 . S
Eu11 O27 2.480 . S
Eu11 O28 2.430 . S
Eu11 O29 2.670 . S
Eu11 O30 2.394 . S
C12 C10 1.500 . S
C12 C13 1.377 . S
C12 C17 1.377 . S
C13 C12 1.377 . S
C13 C14 1.395 . S
C13 H36 0.931 . S
C14 C13 1.395 . S
C14 C15 1.383 . S
C14 H37 0.931 . S
C15 C14 1.383 . S
C15 C16 1.394 . S
C16 C15 1.394 . S
C16 C17 1.378 . S
C16 H38 0.931 . S
C17 C12 1.377 . S
C17 C16 1.378 . S
C17 H39 0.931 . S
C18 O28 1.259 . S
C18 O29 1.270 . S
C19 O30 1.251 . S
C19 O31 1.251 . S
O20 C0 1.257 . S
O20 Eu1 2.473 . S
O21 C0 1.260 . S
O21 Eu1 2.480 . S
O22 Eu1 2.430 . S
O22 C8 1.259 . S
O23 Eu1 2.670 . S
O23 C8 1.270 . S
O23 Eu11 2.355 . S
O24 Eu1 2.394 . S
O24 C9 1.251 . S
O25 C9 1.251 . S
O25 Eu11 2.374 . S
O26 C10 1.257 . S
O26 Eu11 2.473 . S
O27 C10 1.260 . S
O27 Eu11 2.480 . S
O28 Eu11 2.430 . S
O28 C18 1.259 . S
O29 Eu1 2.355 . S
O29 Eu11 2.670 . S
O29 C18 1.270 . S
O30 Eu11 2.394 . S
O30 C19 1.251 . S
O31 Eu1 2.374 . S
O31 C19 1.251 . S
H32 C3 0.931 . S
H33 C4 0.931 . S
H34 C6 0.931 . S
H35 C7 0.931 . S
H36 C13 0.931 . S
H37 C14 0.931 . S
H38 C16 0.931 . S
H39 C17 0.931 . S
C40 Eu41 2.835 . S
C40 C42 1.500 . S
C40 O60 1.257 . S
C40 O61 1.260 . S
Eu41 C40 2.835 . S
Eu41 O60 2.473 . S
Eu41 O61 2.480 . S
Eu41 O62 2.430 1_455 S
Eu41 O63 2.670 1_455 S
Eu41 O64 2.394 1_455 S
Eu41 O69 2.355 . S
Eu41 O71 2.374 . S
C42 C40 1.500 . S
C42 C43 1.377 . S
C42 C47 1.377 . S
C43 C42 1.377 . S
C43 C44 1.395 . S
C43 H72 0.931 . S
C44 C43 1.395 . S
C44 C45 1.383 . S
C44 H73 0.931 . S
C45 C44 1.383 . S
C45 C46 1.394 . S
C46 C45 1.394 . S
C46 C47 1.378 . S
C46 H74 0.931 . S
C47 C42 1.377 . S
C47 C46 1.378 . S
C47 H75 0.931 . S
C48 O62 1.259 . S
C48 O63 1.270 . S
C49 O64 1.251 . S
C49 O65 1.251 . S
C50 Eu51 2.835 . S
C50 C52 1.500 . S
C50 O66 1.257 . S
C50 O67 1.260 . S
Eu51 C50 2.835 . S
Eu51 O63 2.355 . S
Eu51 O65 2.374 . S
Eu51 O66 2.473 . S
Eu51 O67 2.480 . S
Eu51 O68 2.430 1_655 S
Eu51 O69 2.670 1_655 S
Eu51 O70 2.394 1_655 S
C52 C50 1.500 . S
C52 C53 1.377 . S
C52 C57 1.377 . S
C53 C52 1.377 . S
C53 C54 1.395 . S
C53 H76 0.931 . S
C54 C53 1.395 . S
C54 C55 1.383 . S
C54 H77 0.931 . S
C55 C54 1.383 . S
C55 C56 1.394 . S
C56 C55 1.394 . S
C56 C57 1.378 . S
C56 H78 0.931 . S
C57 C52 1.377 . S
C57 C56 1.378 . S
C57 H79 0.931 . S
C58 O68 1.259 . S
C58 O69 1.270 . S
C59 O70 1.251 . S
C59 O71 1.251 . S
O60 C40 1.257 . S
O60 Eu41 2.473 . S
O61 C40 1.260 . S
O61 Eu41 2.480 . S
O62 Eu41 2.430 1_655 S
O62 C48 1.259 . S
O63 Eu41 2.670 1_655 S
O63 C48 1.270 . S
O63 Eu51 2.355 . S
O64 Eu41 2.394 1_655 S
O64 C49 1.251 . S
O65 C49 1.251 . S
O65 Eu51 2.374 . S
O66 C50 1.257 . S
O66 Eu51 2.473 . S
O67 C50 1.260 . S
O67 Eu51 2.480 . S
O68 Eu51 2.430 1_455 S
O68 C58 1.259 . S
O69 Eu41 2.355 . S
O69 Eu51 2.670 1_455 S
O69 C58 1.270 . S
O70 Eu51 2.394 1_455 S
O70 C59 1.251 . S
O71 Eu41 2.374 . S
O71 C59 1.251 . S
H72 C43 0.931 . S
H73 C44 0.931 . S
H74 C46 0.931 . S
H75 C47 0.931 . S
H76 C53 0.931 . S
H77 C54 0.931 . S
H78 C56 0.931 . S
H79 C57 0.931 . S
C80 Eu81 2.835 . S
C80 C82 1.500 . S
C80 O100 1.257 . S
C80 O101 1.260 . S
Eu81 C80 2.835 . S
Eu81 O100 2.473 . S
Eu81 O101 2.480 . S
Eu81 O102 2.430 1_556 S
Eu81 O103 2.670 1_556 S
Eu81 O104 2.394 1_556 S
Eu81 O109 2.355 . S
Eu81 O111 2.374 . S
C82 C80 1.500 . S
C82 C83 1.377 . S
C82 C87 1.377 . S
C83 C82 1.377 . S
C83 C84 1.395 . S
C83 H112 0.931 . S
C84 C83 1.395 . S
C84 C85 1.383 . S
C84 H113 0.931 . S
C85 C84 1.383 . S
C85 C86 1.394 . S
C86 C85 1.394 . S
C86 C87 1.378 . S
C86 H114 0.931 . S
C87 C82 1.377 . S
C87 C86 1.378 . S
C87 H115 0.931 . S
C88 O102 1.259 . S
C88 O103 1.270 . S
C89 O104 1.251 . S
C89 O105 1.251 . S
C90 Eu91 2.835 . S
C90 C92 1.500 . S
C90 O106 1.257 . S
C90 O107 1.260 . S
Eu91 C90 2.835 . S
Eu91 O103 2.355 . S
Eu91 O105 2.374 . S
Eu91 O106 2.473 . S
Eu91 O107 2.480 . S
Eu91 O108 2.430 1_554 S
Eu91 O109 2.670 1_554 S
Eu91 O110 2.394 1_554 S
C92 C90 1.500 . S
C92 C93 1.377 . S
C92 C97 1.377 . S
C93 C92 1.377 . S
C93 C94 1.395 . S
C93 H116 0.931 . S
C94 C93 1.395 . S
C94 C95 1.383 . S
C94 H117 0.931 . S
C95 C94 1.383 . S
C95 C96 1.394 . S
C96 C95 1.394 . S
C96 C97 1.378 . S
C96 H118 0.931 . S
C97 C92 1.377 . S
C97 C96 1.378 . S
C97 H119 0.931 . S
C98 O108 1.259 . S
C98 O109 1.270 . S
C99 O110 1.251 . S
C99 O111 1.251 . S
O100 C80 1.257 . S
O100 Eu81 2.473 . S
O101 C80 1.260 . S
O101 Eu81 2.480 . S
O102 Eu81 2.430 1_554 S
O102 C88 1.259 . S
O103 Eu81 2.670 1_554 S
O103 C88 1.270 . S
O103 Eu91 2.355 . S
O104 Eu81 2.394 1_554 S
O104 C89 1.251 . S
O105 C89 1.251 . S
O105 Eu91 2.374 . S
O106 C90 1.257 . S
O106 Eu91 2.473 . S
O107 C90 1.260 . S
O107 Eu91 2.480 . S
O108 Eu91 2.430 1_556 S
O108 C98 1.259 . S
O109 Eu81 2.355 . S
O109 Eu91 2.670 1_556 S
O109 C98 1.270 . S
O110 Eu91 2.394 1_556 S
O110 C99 1.251 . S
O111 Eu81 2.374 . S
O111 C99 1.251 . S
H112 C83 0.931 . S
H113 C84 0.931 . S
H114 C86 0.931 . S
H115 C87 0.931 . S
H116 C93 0.931 . S
H117 C94 0.931 . S
H118 C96 0.931 . S
H119 C97 0.931 . S
C120 Eu121 2.835 . S
C120 C122 1.500 . S
C120 O140 1.257 . S
C120 O141 1.260 . S
Eu121 C120 2.835 . S
Eu121 O140 2.473 . S
Eu121 O141 2.480 . S
Eu121 O142 2.430 . S
Eu121 O143 2.670 . S
Eu121 O144 2.394 . S
Eu121 O149 2.355 . S
Eu121 O151 2.374 . S
C122 C120 1.500 . S
C122 C123 1.377 . S
C122 C127 1.377 . S
C123 C122 1.377 . S
C123 C124 1.395 . S
C123 H152 0.931 . S
C124 C123 1.395 . S
C124 C125 1.383 . S
C124 H153 0.931 . S
C125 C124 1.383 . S
C125 C126 1.394 . S
C126 C125 1.394 . S
C126 C127 1.378 . S
C126 H154 0.931 . S
C127 C122 1.377 . S
C127 C126 1.378 . S
C127 H155 0.931 . S
C128 O142 1.259 . S
C128 O143 1.270 . S
C129 O144 1.251 . S
C129 O145 1.251 . S
C130 Eu131 2.835 . S
C130 C132 1.500 . S
C130 O146 1.257 . S
C130 O147 1.260 . S
Eu131 C130 2.835 . S
Eu131 O143 2.355 . S
Eu131 O145 2.374 . S
Eu131 O146 2.473 . S
Eu131 O147 2.480 . S
Eu131 O148 2.430 . S
Eu131 O149 2.670 . S
Eu131 O150 2.394 . S
C132 C130 1.500 . S
C132 C133 1.377 . S
C132 C137 1.377 . S
C133 C132 1.377 . S
C133 C134 1.395 . S
C133 H156 0.931 . S
C134 C133 1.395 . S
C134 C135 1.383 . S
C134 H157 0.931 . S
C135 C134 1.383 . S
C135 C136 1.394 . S
C136 C135 1.394 . S
C136 C137 1.378 . S
C136 H158 0.931 . S
C137 C132 1.377 . S
C137 C136 1.378 . S
C137 H159 0.931 . S
C138 O148 1.259 . S
C138 O149 1.270 . S
C139 O150 1.251 . S
C139 O151 1.251 . S
O140 C120 1.257 . S
O140 Eu121 2.473 . S
O141 C120 1.260 . S
O141 Eu121 2.480 . S
O142 Eu121 2.430 . S
O142 C128 1.259 . S
O143 Eu121 2.670 . S
O143 C128 1.270 . S
O143 Eu131 2.355 . S
O144 Eu121 2.394 . S
O144 C129 1.251 . S
O145 C129 1.251 . S
O145 Eu131 2.374 . S
O146 C130 1.257 . S
O146 Eu131 2.473 . S
O147 C130 1.260 . S
O147 Eu131 2.480 . S
O148 Eu131 2.430 . S
O148 C138 1.259 . S
O149 Eu121 2.355 . S
O149 Eu131 2.670 . S
O149 C138 1.270 . S
O150 Eu131 2.394 . S
O150 C139 1.251 . S
O151 Eu121 2.374 . S
O151 C139 1.251 . S
H152 C123 0.931 . S
H153 C124 0.931 . S
H154 C126 0.931 . S
H155 C127 0.931 . S
H156 C133 0.931 . S
H157 C134 0.931 . S
H158 C136 0.931 . S
H159 C137 0.931 . S
C160 Eu161 2.835 . S
C160 C162 1.500 . S
C160 O180 1.257 . S
C160 O181 1.260 . S
Eu161 C160 2.835 . S
Eu161 O180 2.473 . S
Eu161 O181 2.480 . S
Eu161 O182 2.430 . S
Eu161 O183 2.670 . S
Eu161 O184 2.394 . S
Eu161 O189 2.355 . S
Eu161 O191 2.374 . S
C162 C160 1.500 . S
C162 C163 1.377 . S
C162 C167 1.377 . S
C163 C162 1.377 . S
C163 C164 1.395 . S
C163 H192 0.931 . S
C164 C163 1.395 . S
C164 C165 1.383 . S
C164 H193 0.931 . S
C165 C164 1.383 . S
C165 C166 1.394 . S
C166 C165 1.394 . S
C166 C167 1.378 . S
C166 H194 0.931 . S
C167 C162 1.377 . S
C167 C166 1.378 . S
C167 H195 0.931 . S
C168 O182 1.259 . S
C168 O183 1.270 . S
C169 O184 1.251 . S
C169 O185 1.251 . S
C170 Eu171 2.835 . S
C170 C172 1.500 . S
C170 O186 1.257 . S
C170 O187 1.260 . S
Eu171 C170 2.835 . S
Eu171 O183 2.355 . S
Eu171 O185 2.374 . S
Eu171 O186 2.473 . S
Eu171 O187 2.480 . S
Eu171 O188 2.430 . S
Eu171 O189 2.670 . S
Eu171 O190 2.394 . S
C172 C170 1.500 . S
C172 C173 1.377 . S
C172 C177 1.377 . S
C173 C172 1.377 . S
C173 C174 1.395 . S
C173 H196 0.931 . S
C174 C173 1.395 . S
C174 C175 1.383 . S
C174 H197 0.931 . S
C175 C174 1.383 . S
C175 C176 1.394 . S
C176 C175 1.394 . S
C176 C177 1.378 . S
C176 H198 0.931 . S
C177 C172 1.377 . S
C177 C176 1.378 . S
C177 H199 0.931 . S
C178 O188 1.259 . S
C178 O189 1.270 . S
C179 O190 1.251 . S
C179 O191 1.251 . S
O180 C160 1.257 . S
O180 Eu161 2.473 . S
O181 C160 1.260 . S
O181 Eu161 2.480 . S
O182 Eu161 2.430 . S
O182 C168 1.259 . S
O183 Eu161 2.670 . S
O183 C168 1.270 . S
O183 Eu171 2.355 . S
O184 Eu161 2.394 . S
O184 C169 1.251 . S
O185 C169 1.251 . S
O185 Eu171 2.374 . S
O186 C170 1.257 . S
O186 Eu171 2.473 . S
O187 C170 1.260 . S
O187 Eu171 2.480 . S
O188 Eu171 2.430 . S
O188 C178 1.259 . S
O189 Eu161 2.355 . S
O189 Eu171 2.670 . S
O189 C178 1.270 . S
O190 Eu171 2.394 . S
O190 C179 1.251 . S
O191 Eu161 2.374 . S
O191 C179 1.251 . S
H192 C163 0.931 . S
H193 C164 0.931 . S
H194 C166 0.931 . S
H195 C167 0.931 . S
H196 C173 0.931 . S
H197 C174 0.931 . S
H198 C176 0.931 . S
H199 C177 0.931 . S
C200 Eu201 2.835 . S
C200 C202 1.500 . S
C200 O220 1.257 . S
C200 O221 1.260 . S
Eu201 C200 2.835 . S
Eu201 O220 2.473 . S
Eu201 O221 2.480 . S
Eu201 O222 2.430 . S
Eu201 O223 2.670 . S
Eu201 O224 2.394 . S
Eu201 O229 2.355 1_455 S
Eu201 O231 2.374 1_455 S
C202 C200 1.500 . S
C202 C203 1.377 . S
C202 C207 1.377 . S
C203 C202 1.377 . S
C203 C204 1.395 . S
C203 H232 0.931 . S
C204 C203 1.395 . S
C204 C205 1.383 . S
C204 H233 0.931 . S
C205 C204 1.383 . S
C205 C206 1.394 . S
C206 C205 1.394 . S
C206 C207 1.378 . S
C206 H234 0.931 . S
C207 C202 1.377 . S
C207 C206 1.378 . S
C207 H235 0.931 . S
C208 O222 1.259 . S
C208 O223 1.270 . S
C209 O224 1.251 . S
C209 O225 1.251 . S
C210 Eu211 2.835 . S
C210 C212 1.500 . S
C210 O226 1.257 . S
C210 O227 1.260 . S
Eu211 C210 2.835 . S
Eu211 O223 2.355 1_655 S
Eu211 O225 2.374 1_655 S
Eu211 O226 2.473 . S
Eu211 O227 2.480 . S
Eu211 O228 2.430 . S
Eu211 O229 2.670 . S
Eu211 O230 2.394 . S
C212 C210 1.500 . S
C212 C213 1.377 . S
C212 C217 1.377 . S
C213 C212 1.377 . S
C213 C214 1.395 . S
C213 H236 0.931 . S
C214 C213 1.395 . S
C214 C215 1.383 . S
C214 H237 0.931 . S
C215 C214 1.383 . S
C215 C216 1.394 . S
C216 C215 1.394 . S
C216 C217 1.378 . S
C216 H238 0.931 . S
C217 C212 1.377 . S
C217 C216 1.378 . S
C217 H239 0.931 . S
C218 O228 1.259 . S
C218 O229 1.270 . S
C219 O230 1.251 . S
C219 O231 1.251 . S
O220 C200 1.257 . S
O220 Eu201 2.473 . S
O221 C200 1.260 . S
O221 Eu201 2.480 . S
O222 Eu201 2.430 . S
O222 C208 1.259 . S
O223 Eu201 2.670 . S
O223 C208 1.270 . S
O223 Eu211 2.355 1_455 S
O224 Eu201 2.394 . S
O224 C209 1.251 . S
O225 C209 1.251 . S
O225 Eu211 2.374 1_455 S
O226 C210 1.257 . S
O226 Eu211 2.473 . S
O227 C210 1.260 . S
O227 Eu211 2.480 . S
O228 Eu211 2.430 . S
O228 C218 1.259 . S
O229 Eu201 2.355 1_655 S
O229 Eu211 2.670 . S
O229 C218 1.270 . S
O230 Eu211 2.394 . S
O230 C219 1.251 . S
O231 Eu201 2.374 1_655 S
O231 C219 1.251 . S
H232 C203 0.931 . S
H233 C204 0.931 . S
H234 C206 0.931 . S
H235 C207 0.931 . S
H236 C213 0.931 . S
H237 C214 0.931 . S
H238 C216 0.931 . S
H239 C217 0.931 . S
C240 Eu241 2.835 . S
C240 C242 1.500 . S
C240 O260 1.257 . S
C240 O261 1.260 . S
Eu241 C240 2.835 . S
Eu241 O260 2.473 . S
Eu241 O261 2.480 . S
Eu241 O262 2.430 . S
Eu241 O263 2.670 1_556 S
Eu241 O264 2.394 . S
Eu241 O269 2.355 1_556 S
Eu241 O271 2.374 1_556 S
C242 C240 1.500 . S
C242 C243 1.377 . S
C242 C247 1.377 . S
C243 C242 1.377 . S
C243 C244 1.395 . S
C243 H272 0.931 . S
C244 C243 1.395 . S
C244 C245 1.383 . S
C244 H273 0.931 . S
C245 C244 1.383 . S
C245 C246 1.394 . S
C246 C245 1.394 . S
C246 C247 1.378 . S
C246 H274 0.931 . S
C247 C242 1.377 . S
C247 C246 1.378 . S
C247 H275 0.931 . S
C248 O262 1.259 . S
C248 O263 1.270 1_556 S
C249 O264 1.251 . S
C249 O265 1.251 . S
C250 Eu251 2.835 . S
C250 C252 1.500 . S
C250 O266 1.257 . S
C250 O267 1.260 . S
Eu251 C250 2.835 . S
Eu251 O263 2.355 . S
Eu251 O265 2.374 1_554 S
Eu251 O266 2.473 . S
Eu251 O267 2.480 . S
Eu251 O268 2.430 . S
Eu251 O269 2.670 . S
Eu251 O270 2.394 . S
C252 C250 1.500 . S
C252 C253 1.377 . S
C252 C257 1.377 . S
C253 C252 1.377 . S
C253 C254 1.395 . S
C253 H276 0.931 . S
C254 C253 1.395 . S
C254 C255 1.383 . S
C254 H277 0.931 . S
C255 C254 1.383 . S
C255 C256 1.394 . S
C256 C255 1.394 . S
C256 C257 1.378 . S
C256 H278 0.931 . S
C257 C252 1.377 . S
C257 C256 1.378 . S
C257 H279 0.931 . S
C258 O268 1.259 . S
C258 O269 1.270 . S
C259 O270 1.251 . S
C259 O271 1.251 . S
O260 C240 1.257 . S
O260 Eu241 2.473 . S
O261 C240 1.260 . S
O261 Eu241 2.480 . S
O262 Eu241 2.430 . S
O262 C248 1.259 . S
O263 Eu241 2.670 1_554 S
O263 C248 1.270 1_554 S
O263 Eu251 2.355 . S
O264 Eu241 2.394 . S
O264 C249 1.251 . S
O265 C249 1.251 . S
O265 Eu251 2.374 1_556 S
O266 C250 1.257 . S
O266 Eu251 2.473 . S
O267 C250 1.260 . S
O267 Eu251 2.480 . S
O268 Eu251 2.430 . S
O268 C258 1.259 . S
O269 Eu241 2.355 1_554 S
O269 Eu251 2.670 . S
O269 C258 1.270 . S
O270 Eu251 2.394 . S
O270 C259 1.251 . S
O271 Eu241 2.374 1_554 S
O271 C259 1.251 . S
H272 C243 0.931 . S
H273 C244 0.931 . S
H274 C246 0.931 . S
H275 C247 0.931 . S
H276 C253 0.931 . S
H277 C254 0.931 . S
H278 C256 0.931 . S
H279 C257 0.931 . S
C280 Eu281 2.835 . S
C280 C282 1.500 . S
C280 O300 1.257 . S
C280 O301 1.260 . S
Eu281 C280 2.835 . S
Eu281 O300 2.473 . S
Eu281 O301 2.480 . S
Eu281 O302 2.430 . S
Eu281 O303 2.670 . S
Eu281 O304 2.394 . S
Eu281 O309 2.355 . S
Eu281 O311 2.374 . S
C282 C280 1.500 . S
C282 C283 1.377 . S
C282 C287 1.377 . S
C283 C282 1.377 . S
C283 C284 1.395 . S
C283 H312 0.931 . S
C284 C283 1.395 . S
C284 C285 1.383 . S
C284 H313 0.931 . S
C285 C284 1.383 . S
C285 C286 1.394 . S
C286 C285 1.394 . S
C286 C287 1.378 . S
C286 H314 0.931 . S
C287 C282 1.377 . S
C287 C286 1.378 . S
C287 H315 0.931 . S
C288 O302 1.259 . S
C288 O303 1.270 . S
C289 O304 1.251 . S
C289 O305 1.251 . S
C290 Eu291 2.835 . S
C290 C292 1.500 . S
C290 O306 1.257 . S
C290 O307 1.260 . S
Eu291 C290 2.835 . S
Eu291 O303 2.355 . S
Eu291 O305 2.374 . S
Eu291 O306 2.473 . S
Eu291 O307 2.480 . S
Eu291 O308 2.430 . S
Eu291 O309 2.670 . S
Eu291 O310 2.394 . S
C292 C290 1.500 . S
C292 C293 1.377 . S
C292 C297 1.377 . S
C293 C292 1.377 . S
C293 C294 1.395 . S
C293 H316 0.931 . S
C294 C293 1.395 . S
C294 C295 1.383 . S
C294 H317 0.931 . S
C295 C294 1.383 . S
C295 C296 1.394 . S
C296 C295 1.394 . S
C296 C297 1.378 . S
C296 H318 0.931 . S
C297 C292 1.377 . S
C297 C296 1.378 . S
C297 H319 0.931 . S
C298 O308 1.259 . S
C298 O309 1.270 . S
C299 O310 1.251 . S
C299 O311 1.251 . S
O300 C280 1.257 . S
O300 Eu281 2.473 . S
O301 C280 1.260 . S
O301 Eu281 2.480 . S
O302 Eu281 2.430 . S
O302 C288 1.259 . S
O303 Eu281 2.670 . S
O303 C288 1.270 . S
O303 Eu291 2.355 . S
O304 Eu281 2.394 . S
O304 C289 1.251 . S
O305 C289 1.251 . S
O305 Eu291 2.374 . S
O306 C290 1.257 . S
O306 Eu291 2.473 . S
O307 C290 1.260 . S
O307 Eu291 2.480 . S
O308 Eu291 2.430 . S
O308 C298 1.259 . S
O309 Eu281 2.355 . S
O309 Eu291 2.670 . S
O309 C298 1.270 . S
O310 Eu291 2.394 . S
O310 C299 1.251 . S
O311 Eu281 2.374 . S
O311 C299 1.251 . S
H312 C283 0.931 . S
H313 C284 0.931 . S
H314 C286 0.931 . S
H315 C287 0.931 . S
H316 C293 0.931 . S
H317 C294 0.931 . S
H318 C296 0.931 . S
H319 C297 0.931 . S
C320 Eu321 2.835 . S
C320 C322 1.500 . S
C320 O340 1.257 . S
C320 O341 1.260 . S
Eu321 C320 2.835 . S
Eu321 O340 2.473 . S
Eu321 O341 2.480 . S
Eu321 O342 2.430 . S
Eu321 O343 2.670 . S
Eu321 O344 2.394 . S
Eu321 O349 2.355 . S
Eu321 O351 2.374 . S
C322 C320 1.500 . S
C322 C323 1.377 . S
C322 C327 1.377 . S
C323 C322 1.377 . S
C323 C324 1.395 . S
C323 H352 0.931 . S
C324 C323 1.395 . S
C324 C325 1.383 . S
C324 H353 0.931 . S
C325 C324 1.383 . S
C325 C326 1.394 . S
C326 C325 1.394 . S
C326 C327 1.378 . S
C326 H354 0.931 . S
C327 C322 1.377 . S
C327 C326 1.378 . S
C327 H355 0.931 . S
C328 O342 1.259 . S
C328 O343 1.270 . S
C329 O344 1.251 . S
C329 O345 1.251 . S
C330 Eu331 2.835 . S
C330 C332 1.500 . S
C330 O346 1.257 . S
C330 O347 1.260 . S
Eu331 C330 2.835 . S
Eu331 O343 2.355 . S
Eu331 O345 2.374 . S
Eu331 O346 2.473 . S
Eu331 O347 2.480 . S
Eu331 O348 2.430 . S
Eu331 O349 2.670 . S
Eu331 O350 2.394 . S
C332 C330 1.500 . S
C332 C333 1.377 . S
C332 C337 1.377 . S
C333 C332 1.377 . S
C333 C334 1.395 . S
C333 H356 0.931 . S
C334 C333 1.395 . S
C334 C335 1.383 . S
C334 H357 0.931 . S
C335 C334 1.383 . S
C335 C336 1.394 . S
C336 C335 1.394 . S
C336 C337 1.378 . S
C336 H358 0.931 . S
C337 C332 1.377 . S
C337 C336 1.378 . S
C337 H359 0.931 . S
C338 O348 1.259 . S
C338 O349 1.270 . S
C339 O350 1.251 . S
C339 O351 1.251 . S
O340 C320 1.257 . S
O340 Eu321 2.473 . S
O341 C320 1.260 . S
O341 Eu321 2.480 . S
O342 Eu321 2.430 . S
O342 C328 1.259 . S
O343 Eu321 2.670 . S
O343 C328 1.270 . S
O343 Eu331 2.355 . S
O344 Eu321 2.394 . S
O344 C329 1.251 . S
O345 C329 1.251 . S
O345 Eu331 2.374 . S
O346 C330 1.257 . S
O346 Eu331 2.473 . S
O347 C330 1.260 . S
O347 Eu331 2.480 . S
O348 Eu331 2.430 . S
O348 C338 1.259 . S
O349 Eu321 2.355 . S
O349 Eu331 2.670 . S
O349 C338 1.270 . S
O350 Eu331 2.394 . S
O350 C339 1.251 . S
O351 Eu321 2.374 . S
O351 C339 1.251 . S
H352 C323 0.931 . S
H353 C324 0.931 . S
H354 C326 0.931 . S
H355 C327 0.931 . S
H356 C333 0.931 . S
H357 C334 0.931 . S
H358 C336 0.931 . S
H359 C337 0.931 . S
C360 Eu361 2.835 . S
C360 C362 1.500 . S
C360 O380 1.257 . S
C360 O381 1.260 . S
Eu361 C360 2.835 . S
Eu361 O380 2.473 . S
Eu361 O381 2.480 . S
Eu361 O382 2.430 . S
Eu361 O383 2.670 1_565 S
Eu361 O384 2.394 . S
Eu361 O389 2.355 1_565 S
Eu361 O391 2.374 1_565 S
C362 C360 1.500 . S
C362 C363 1.377 . S
C362 C367 1.377 . S
C363 C362 1.377 . S
C363 C364 1.395 . S
C363 H392 0.931 . S
C364 C363 1.395 . S
C364 C365 1.383 . S
C364 H393 0.931 . S
C365 C364 1.383 . S
C365 C366 1.394 . S
C366 C365 1.394 . S
C366 C367 1.378 . S
C366 H394 0.931 . S
C367 C362 1.377 . S
C367 C366 1.378 . S
C367 H395 0.931 . S
C368 O382 1.259 . S
C368 O383 1.270 1_565 S
C369 O384 1.251 . S
C369 O385 1.251 1_565 S
C370 Eu371 2.835 . S
C370 C372 1.500 . S
C370 O386 1.257 . S
C370 O387 1.260 . S
Eu371 C370 2.835 . S
Eu371 O383 2.355 . S
Eu371 O385 2.374 . S
Eu371 O386 2.473 . S
Eu371 O387 2.480 . S
Eu371 O388 2.430 . S
Eu371 O389 2.670 . S
Eu371 O390 2.394 . S
C372 C370 1.500 . S
C372 C373 1.377 . S
C372 C377 1.377 . S
C373 C372 1.377 . S
C373 C374 1.395 . S
C373 H396 0.931 . S
C374 C373 1.395 . S
C374 C375 1.383 . S
C374 H397 0.931 . S
C375 C374 1.383 . S
C375 C376 1.394 . S
C376 C375 1.394 . S
C376 C377 1.378 . S
C376 H398 0.931 . S
C377 C372 1.377 . S
C377 C376 1.378 . S
C377 H399 0.931 . S
C378 O388 1.259 . S
C378 O389 1.270 . S
C379 O390 1.251 . S
C379 O391 1.251 . S
O380 C360 1.257 . S
O380 Eu361 2.473 . S
O381 C360 1.260 . S
O381 Eu361 2.480 . S
O382 Eu361 2.430 . S
O382 C368 1.259 . S
O383 Eu361 2.670 1_545 S
O383 C368 1.270 1_545 S
O383 Eu371 2.355 . S
O384 Eu361 2.394 . S
O384 C369 1.251 . S
O385 C369 1.251 1_545 S
O385 Eu371 2.374 . S
O386 C370 1.257 . S
O386 Eu371 2.473 . S
O387 C370 1.260 . S
O387 Eu371 2.480 . S
O388 Eu371 2.430 . S
O388 C378 1.259 . S
O389 Eu361 2.355 1_545 S
O389 Eu371 2.670 . S
O389 C378 1.270 . S
O390 Eu371 2.394 . S
O390 C379 1.251 . S
O391 Eu361 2.374 1_545 S
O391 C379 1.251 . S
H392 C363 0.931 . S
H393 C364 0.931 . S
H394 C366 0.931 . S
H395 C367 0.931 . S
H396 C373 0.931 . S
H397 C374 0.931 . S
H398 C376 0.931 . S
H399 C377 0.931 . S
C400 Eu401 2.835 . S
C400 C402 1.500 . S
C400 O420 1.257 . S
C400 O421 1.260 . S
Eu401 C400 2.835 . S
Eu401 O420 2.473 . S
Eu401 O421 2.480 . S
Eu401 O422 2.430 . S
Eu401 O423 2.670 1_545 S
Eu401 O424 2.394 . S
Eu401 O429 2.355 1_545 S
Eu401 O431 2.374 1_545 S
C402 C400 1.500 . S
C402 C403 1.377 . S
C402 C407 1.377 . S
C403 C402 1.377 . S
C403 C404 1.395 . S
C403 H432 0.931 . S
C404 C403 1.395 . S
C404 C405 1.383 . S
C404 H433 0.931 . S
C405 C404 1.383 . S
C405 C406 1.394 . S
C406 C405 1.394 . S
C406 C407 1.378 . S
C406 H434 0.931 . S
C407 C402 1.377 . S
C407 C406 1.378 . S
C407 H435 0.931 . S
C408 O422 1.259 . S
C408 O423 1.270 1_545 S
C409 O424 1.251 . S
C409 O425 1.251 . S
C410 Eu411 2.835 . S
C410 C412 1.500 . S
C410 O426 1.257 . S
C410 O427 1.260 . S
Eu411 C410 2.835 . S
Eu411 O423 2.355 . S
Eu411 O425 2.374 1_565 S
Eu411 O426 2.473 . S
Eu411 O427 2.480 . S
Eu411 O428 2.430 . S
Eu411 O429 2.670 . S
Eu411 O430 2.394 . S
C412 C410 1.500 . S
C412 C413 1.377 . S
C412 C417 1.377 . S
C413 C412 1.377 . S
C413 C414 1.395 . S
C413 H436 0.931 . S
C414 C413 1.395 . S
C414 C415 1.383 . S
C414 H437 0.931 . S
C415 C414 1.383 . S
C415 C416 1.394 . S
C416 C415 1.394 . S
C416 C417 1.378 . S
C416 H438 0.931 . S
C417 C412 1.377 . S
C417 C416 1.378 . S
C417 H439 0.931 . S
C418 O428 1.259 . S
C418 O429 1.270 . S
C419 O430 1.251 . S
C419 O431 1.251 . S
O420 C400 1.257 . S
O420 Eu401 2.473 . S
O421 C400 1.260 . S
O421 Eu401 2.480 . S
O422 Eu401 2.430 . S
O422 C408 1.259 . S
O423 Eu401 2.670 1_565 S
O423 C408 1.270 1_565 S
O423 Eu411 2.355 . S
O424 Eu401 2.394 . S
O424 C409 1.251 . S
O425 C409 1.251 . S
O425 Eu411 2.374 1_545 S
O426 C410 1.257 . S
O426 Eu411 2.473 . S
O427 C410 1.260 . S
O427 Eu411 2.480 . S
O428 Eu411 2.430 . S
O428 C418 1.259 . S
O429 Eu401 2.355 1_565 S
O429 Eu411 2.670 . S
O429 C418 1.270 . S
O430 Eu411 2.394 . S
O430 C419 1.251 . S
O431 Eu401 2.374 1_565 S
O431 C419 1.251 . S
H432 C403 0.931 . S
H433 C404 0.931 . S
H434 C406 0.931 . S
H435 C407 0.931 . S
H436 C413 0.931 . S
H437 C414 0.931 . S
H438 C416 0.931 . S
H439 C417 0.931 . S
C440 Eu441 2.835 . S
C440 C442 1.500 . S
C440 O460 1.257 . S
C440 O461 1.260 . S
Eu441 C440 2.835 . S
Eu441 O460 2.473 . S
Eu441 O461 2.480 . S
Eu441 O462 2.430 . S
Eu441 O463 2.670 . S
Eu441 O464 2.394 . S
Eu441 O469 2.355 . S
Eu441 O471 2.374 . S
C442 C440 1.500 . S
C442 C443 1.377 . S
C442 C447 1.377 . S
C443 C442 1.377 . S
C443 C444 1.395 . S
C443 H472 0.931 . S
C444 C443 1.395 . S
C444 C445 1.383 . S
C444 H473 0.931 . S
C445 C444 1.383 . S
C445 C446 1.394 . S
C446 C445 1.394 . S
C446 C447 1.378 . S
C446 H474 0.931 . S
C447 C442 1.377 . S
C447 C446 1.378 . S
C447 H475 0.931 . S
C448 O462 1.259 . S
C448 O463 1.270 . S
C449 O464 1.251 . S
C449 O465 1.251 . S
C450 Eu451 2.835 . S
C450 C452 1.500 . S
C450 O466 1.257 . S
C450 O467 1.260 . S
Eu451 C450 2.835 . S
Eu451 O463 2.355 . S
Eu451 O465 2.374 . S
Eu451 O466 2.473 . S
Eu451 O467 2.480 . S
Eu451 O468 2.430 . S
Eu451 O469 2.670 . S
Eu451 O470 2.394 . S
C452 C450 1.500 . S
C452 C453 1.377 . S
C452 C457 1.377 . S
C453 C452 1.377 . S
C453 C454 1.395 . S
C453 H476 0.931 . S
C454 C453 1.395 . S
C454 C455 1.383 . S
C454 H477 0.931 . S
C455 C454 1.383 . S
C455 C456 1.394 . S
C456 C455 1.394 . S
C456 C457 1.378 . S
C456 H478 0.931 . S
C457 C452 1.377 . S
C457 C456 1.378 . S
C457 H479 0.931 . S
C458 O468 1.259 . S
C458 O469 1.270 . S
C459 O470 1.251 . S
C459 O471 1.251 . S
O460 C440 1.257 . S
O460 Eu441 2.473 . S
O461 C440 1.260 . S
O461 Eu441 2.480 . S
O462 Eu441 2.430 . S
O462 C448 1.259 . S
O463 Eu441 2.670 . S
O463 C448 1.270 . S
O463 Eu451 2.355 . S
O464 Eu441 2.394 . S
O464 C449 1.251 . S
O465 C449 1.251 . S
O465 Eu451 2.374 . S
O466 C450 1.257 . S
O466 Eu451 2.473 . S
O467 C450 1.260 . S
O467 Eu451 2.480 . S
O468 Eu451 2.430 . S
O468 C458 1.259 . S
O469 Eu441 2.355 . S
O469 Eu451 2.670 . S
O469 C458 1.270 . S
O470 Eu451 2.394 . S
O470 C459 1.251 . S
O471 Eu441 2.374 . S
O471 C459 1.251 . S
H472 C443 0.931 . S
H473 C444 0.931 . S
H474 C446 0.931 . S
H475 C447 0.931 . S
H476 C453 0.931 . S
H477 C454 0.931 . S
H478 C456 0.931 . S
H479 C457 0.931 . S
C480 C481 1.391 . S
C480 C482 1.394 . S
C480 H496 0.931 . S
C481 C480 1.391 . S
C481 C485 1.376 . S
C482 C480 1.394 . S
C482 C483 1.369 . S
C482 C486 1.531 . S
C483 C482 1.369 . S
C483 C484 1.410 . S
C483 C491 1.503 . S
C484 C483 1.410 . S
C484 C485 1.392 . S
C484 C487 1.511 . S
C485 C481 1.376 . S
C485 C484 1.392 . S
C485 H497 0.929 . S
C486 C482 1.531 . S
C486 H498 0.960 . S
C486 H499 0.962 . S
C486 H500 0.960 . S
C487 C484 1.511 . S
C487 H501 0.961 . S
C487 H502 0.961 . S
C487 H503 0.961 . S
C488 C489 1.370 . S
C488 C490 1.363 . S
C488 H504 0.931 . S
C489 C488 1.370 . S
C489 C493 1.408 . S
C490 C488 1.363 . S
C490 C491 1.370 . S
C490 C494 1.524 . S
C491 C483 1.503 . S
C491 C490 1.370 . S
C491 C492 1.403 . S
C492 C491 1.403 . S
C492 C493 1.404 . S
C492 C495 1.539 . S
C493 C489 1.408 . S
C493 C492 1.404 . S
C493 H505 0.930 . S
C494 C490 1.524 . S
C494 H506 0.956 . S
C494 H507 0.961 . S
C494 H508 0.961 . S
C495 C492 1.539 . S
C495 H509 0.958 . S
C495 H510 0.961 . S
C495 H511 0.960 . S
H496 C480 0.931 . S
H497 C485 0.929 . S
H498 C486 0.960 . S
H499 C486 0.962 . S
H500 C486 0.960 . S
H501 C487 0.961 . S
H502 C487 0.961 . S
H503 C487 0.961 . S
H504 C488 0.931 . S
H505 C493 0.930 . S
H506 C494 0.956 . S
H507 C494 0.961 . S
H508 C494 0.961 . S
H509 C495 0.958 . S
H510 C495 0.961 . S
H511 C495 0.960 . S
C512 C513 1.391 . S
C512 C514 1.394 . S
C512 H528 0.931 1_565 S
C513 C512 1.391 . S
C513 C517 1.376 . S
C514 C512 1.394 . S
C514 C515 1.369 . S
C514 C518 1.531 . S
C515 C514 1.369 . S
C515 C516 1.410 . S
C515 C523 1.503 . S
C516 C515 1.410 . S
C516 C517 1.392 . S
C516 C519 1.511 . S
C517 C513 1.376 . S
C517 C516 1.392 . S
C517 H529 0.929 . S
C518 C514 1.531 . S
C518 H530 0.960 . S
C518 H531 0.962 . S
C518 H532 0.960 1_565 S
C519 C516 1.511 . S
C519 H533 0.961 . S
C519 H534 0.961 . S
C519 H535 0.961 . S
C520 C521 1.370 . S
C520 C522 1.363 . S
C520 H536 0.931 . S
C521 C520 1.370 . S
C521 C525 1.408 . S
C522 C520 1.363 . S
C522 C523 1.370 . S
C522 C526 1.524 . S
C523 C515 1.503 . S
C523 C522 1.370 . S
C523 C524 1.403 . S
C524 C523 1.403 . S
C524 C525 1.404 . S
C524 C527 1.539 . S
C525 C521 1.408 . S
C525 C524 1.404 . S
C525 H537 0.930 . S
C526 C522 1.524 . S
C526 H538 0.956 . S
C526 H539 0.961 . S
C526 H540 0.961 . S
C527 C524 1.539 . S
C527 H541 0.958 1_565 S
C527 H542 0.961 . S
C527 H543 0.960 . S
H528 C512 0.931 1_545 S
H529 C517 0.929 . S
H530 C518 0.960 . S
H531 C518 0.962 . S
H532 C518 0.960 1_545 S
H533 C519 0.961 . S
H534 C519 0.961 . S
H535 C519 0.961 . S
H536 C520 0.931 . S
H537 C525 0.930 . S
H538 C526 0.956 . S
H539 C526 0.961 . S
H540 C526 0.961 . S
H541 C527 0.958 1_545 S
H542 C527 0.961 . S
H543 C527 0.960 . S
C544 C545 1.391 . S
C544 C546 1.394 . S
C544 H560 0.931 . S
C545 C544 1.391 . S
C545 C549 1.376 . S
C546 C544 1.394 . S
C546 C547 1.369 . S
C546 C550 1.531 . S
C547 C546 1.369 . S
C547 C548 1.410 . S
C547 C555 1.503 . S
C548 C547 1.410 . S
C548 C549 1.392 . S
C548 C551 1.511 . S
C549 C545 1.376 . S
C549 C548 1.392 . S
C549 H561 0.909 1_554 S
C550 C546 1.531 . S
C550 H562 0.960 . S
C550 H563 0.962 . S
C550 H564 0.960 . S
C551 C548 1.511 . S
C551 H565 0.961 1_554 S
C551 H566 0.961 . S
C551 H567 0.961 . S
C552 C553 1.370 . S
C552 C554 1.363 . S
C552 H568 0.931 . S
C553 C552 1.370 . S
C553 C557 1.408 . S
C554 C552 1.363 . S
C554 C555 1.370 . S
C554 C558 1.524 . S
C555 C547 1.503 . S
C555 C554 1.370 . S
C555 C556 1.403 . S
C556 C555 1.403 . S
C556 C557 1.404 . S
C556 C559 1.539 . S
C557 C553 1.408 . S
C557 C556 1.404 . S
C557 H569 0.930 . S
C558 C554 1.524 . S
C558 H570 0.956 . S
C558 H571 0.961 . S
C558 H572 0.961 . S
C559 C556 1.539 . S
C559 H573 0.958 . S
C559 H574 0.961 . S
C559 H575 0.960 . S
H560 C544 0.931 . S
H561 C549 0.909 1_556 S
H562 C550 0.960 . S
H563 C550 0.962 . S
H564 C550 0.960 . S
H565 C551 0.961 1_556 S
H566 C551 0.961 . S
H567 C551 0.961 . S
H568 C552 0.931 . S
H569 C557 0.930 . S
H570 C558 0.956 . S
H571 C558 0.961 . S
H572 C558 0.961 . S
H573 C559 0.958 . S
H574 C559 0.961 . S
H575 C559 0.960 . S
C576 C577 1.391 . S
C576 C578 1.394 . S
C576 H592 0.931 . S
C577 C576 1.391 . S
C577 C581 1.376 . S
C578 C576 1.394 . S
C578 C579 1.369 . S
C578 C582 1.531 . S
C579 C578 1.369 . S
C579 C580 1.410 . S
C579 C587 1.503 . S
C580 C579 1.410 . S
C580 C581 1.392 . S
C580 C583 1.511 . S
C581 C577 1.376 . S
C581 C580 1.392 . S
C581 H593 0.929 . S
C582 C578 1.531 . S
C582 H594 0.960 . S
C582 H595 0.962 . S
C582 H596 0.960 . S
C583 C580 1.511 . S
C583 H597 0.961 . S
C583 H598 0.961 . S
C583 H599 0.961 . S
C584 C585 1.370 . S
C584 C586 1.363 . S
C584 H600 0.931 1_545 S
C585 C584 1.370 . S
C585 C589 1.408 . S
C586 C584 1.363 . S
C586 C587 1.370 . S
C586 C590 1.524 . S
C587 C579 1.503 . S
C587 C586 1.370 . S
C587 C588 1.403 . S
C588 C587 1.403 . S
C588 C589 1.404 . S
C588 C591 1.539 . S
C589 C585 1.408 . S
C589 C588 1.404 . S
C589 H601 0.930 . S
C590 C586 1.524 . S
C590 H602 0.956 . S
C590 H603 0.961 . S
C590 H604 0.961 1_545 S
C591 C588 1.539 . S
C591 H605 0.958 . S
C591 H606 0.961 . S
C591 H607 0.960 . S
H592 C576 0.931 . S
H593 C581 0.929 . S
H594 C582 0.960 . S
H595 C582 0.962 . S
H596 C582 0.960 . S
H597 C583 0.961 . S
H598 C583 0.961 . S
H599 C583 0.961 . S
H600 C584 0.931 1_565 S
H601 C589 0.930 . S
H602 C590 0.956 . S
H603 C590 0.961 . S
H604 C590 0.961 1_565 S
H605 C591 0.958 . S
H606 C591 0.961 . S
H607 C591 0.960 . S
C608 C609 1.391 . S
C608 C610 1.394 . S
C608 H624 0.931 . S
C609 C608 1.391 . S
C609 C613 1.376 . S
C610 C608 1.394 . S
C610 C611 1.369 . S
C610 C614 1.531 . S
C611 C610 1.369 . S
C611 C612 1.410 . S
C611 C619 1.503 . S
C612 C611 1.410 . S
C612 C613 1.392 . S
C612 C615 1.511 . S
C613 C609 1.376 . S
C613 C612 1.392 . S
C613 H625 0.929 . S
C614 C610 1.531 . S
C614 H626 0.960 . S
C614 H627 0.962 . S
C614 H628 0.960 . S
C615 C612 1.511 . S
C615 H629 0.961 . S
C615 H630 0.961 . S
C615 H631 0.961 . S
C616 C617 1.370 . S
C616 C618 1.363 . S
C616 H632 0.931 . S
C617 C616 1.370 . S
C617 C621 1.408 . S
C618 C616 1.363 . S
C618 C619 1.370 . S
C618 C622 1.524 . S
C619 C611 1.503 . S
C619 C618 1.370 . S
C619 C620 1.403 . S
C620 C619 1.403 . S
C620 C621 1.404 . S
C620 C623 1.539 . S
C621 C617 1.408 . S
C621 C620 1.404 . S
C621 H633 0.930 . S
C622 C618 1.524 . S
C622 H634 0.956 . S
C622 H635 0.961 . S
C622 H636 0.961 . S
C623 C620 1.539 . S
C623 H637 0.958 . S
C623 H638 0.961 . S
C623 H639 0.960 . S
H624 C608 0.931 . S
H625 C613 0.929 . S
H626 C614 0.960 . S
H627 C614 0.962 . S
H628 C614 0.960 . S
H629 C615 0.961 . S
H630 C615 0.961 . S
H631 C615 0.961 . S
H632 C616 0.931 . S
H633 C621 0.930 . S
H634 C622 0.956 . S
H635 C622 0.961 . S
H636 C622 0.961 . S
H637 C623 0.958 . S
H638 C623 0.961 . S
H639 C623 0.960 . S
C640 C641 1.391 . S
C640 C642 1.394 . S
C640 H656 0.931 . S
C641 C640 1.391 . S
C641 C645 1.376 . S
C642 C640 1.394 . S
C642 C643 1.369 . S
C642 C646 1.531 . S
C643 C642 1.369 . S
C643 C644 1.410 . S
C643 C651 1.503 . S
C644 C643 1.410 . S
C644 C645 1.392 . S
C644 C647 1.511 . S
C645 C641 1.376 . S
C645 C644 1.392 . S
C645 H657 0.929 . S
C646 C642 1.531 . S
C646 H658 0.960 . S
C646 H659 0.962 . S
C646 H660 0.960 . S
C647 C644 1.511 . S
C647 H661 0.961 . S
C647 H662 0.961 . S
C647 H663 0.961 . S
C648 C649 1.370 . S
C648 C650 1.363 . S
C648 H664 0.931 . S
C649 C648 1.370 . S
C649 C653 1.408 . S
C650 C648 1.363 . S
C650 C651 1.370 . S
C650 C654 1.524 . S
C651 C643 1.503 . S
C651 C650 1.370 . S
C651 C652 1.403 . S
C652 C651 1.403 . S
C652 C653 1.404 . S
C652 C655 1.539 . S
C653 C649 1.408 . S
C653 C652 1.404 . S
C653 H665 0.930 . S
C654 C650 1.524 . S
C654 H666 0.956 . S
C654 H667 0.961 . S
C654 H668 0.961 . S
C655 C652 1.539 . S
C655 H669 0.958 . S
C655 H670 0.961 . S
C655 H671 0.960 . S
H656 C640 0.931 . S
H657 C645 0.929 . S
H658 C646 0.960 . S
H659 C646 0.962 . S
H660 C646 0.960 . S
H661 C647 0.961 . S
H662 C647 0.961 . S
H663 C647 0.961 . S
H664 C648 0.931 . S
H665 C653 0.930 . S
H666 C654 0.956 . S
H667 C654 0.961 . S
H668 C654 0.961 . S
H669 C655 0.958 . S
H670 C655 0.961 . S
H671 C655 0.960 . S
C672 C673 1.391 . S
C672 C674 1.394 . S
C672 H688 0.931 . S
C673 C672 1.391 . S
C673 C677 1.376 . S
C674 C672 1.394 . S
C674 C675 1.369 . S
C674 C678 1.531 . S
C675 C674 1.369 . S
C675 C676 1.410 . S
C675 C683 1.503 . S
C676 C675 1.410 . S
C676 C677 1.392 . S
C676 C679 1.511 . S
C677 C673 1.376 . S
C677 C676 1.392 . S
C677 H689 0.929 . S
C678 C674 1.531 . S
C678 H690 0.960 . S
C678 H691 0.962 . S
C678 H692 0.960 . S
C679 C676 1.511 . S
C679 H693 0.961 . S
C679 H694 0.961 . S
C679 H695 0.961 . S
C680 C681 1.370 . S
C680 C682 1.363 . S
C680 H696 0.931 . S
C681 C680 1.370 . S
C681 C685 1.408 1_556 S
C682 C680 1.363 . S
C682 C683 1.370 . S
C682 C686 1.524 . S
C683 C675 1.503 . S
C683 C682 1.370 . S
C683 C684 1.403 1_556 S
C684 C683 1.403 1_554 S
C684 C685 1.404 . S
C684 C687 1.539 . S
C685 C681 1.408 1_554 S
C685 C684 1.404 . S
C685 H697 0.930 . S
C686 C682 1.524 . S
C686 H698 0.956 . S
C686 H699 0.961 . S
C686 H700 0.961 . S
C687 C684 1.539 . S
C687 H701 0.958 . S
C687 H702 0.961 . S
C687 H703 0.960 . S
H688 C672 0.931 . S
H689 C677 0.929 . S
H690 C678 0.960 . S
H691 C678 0.962 . S
H692 C678 0.960 . S
H693 C679 0.961 . S
H694 C679 0.961 . S
H695 C679 0.961 . S
H696 C680 0.931 . S
H697 C685 0.930 . S
H698 C686 0.956 . S
H699 C686 0.961 . S
H700 C686 0.961 . S
H701 C687 0.958 . S
H702 C687 0.961 . S
H703 C687 0.960 . S
C704 C705 1.391 . S
C704 C706 1.394 . S
C704 H720 0.931 . S
C705 C704 1.391 . S
C705 C709 1.376 . S
C706 C704 1.394 . S
C706 C707 1.369 . S
C706 C710 1.531 . S
C707 C706 1.369 . S
C707 C708 1.410 . S
C707 C715 1.503 . S
C708 C707 1.410 . S
C708 C709 1.392 . S
C708 C711 1.511 . S
C709 C705 1.376 . S
C709 C708 1.392 . S
C709 H721 0.929 . S
C710 C706 1.531 . S
C710 H722 0.960 . S
C710 H723 0.962 . S
C710 H724 0.960 . S
C711 C708 1.511 . S
C711 H725 0.961 . S
C711 H726 0.961 . S
C711 H727 0.961 . S
C712 C713 1.370 . S
C712 C714 1.363 . S
C712 H728 0.931 . S
C713 C712 1.370 . S
C713 C717 1.408 . S
C714 C712 1.363 . S
C714 C715 1.370 . S
C714 C718 1.524 . S
C715 C707 1.503 . S
C715 C714 1.370 . S
C715 C716 1.403 . S
C716 C715 1.403 . S
C716 C717 1.404 . S
C716 C719 1.539 . S
C717 C713 1.408 . S
C717 C716 1.404 . S
C717 H729 0.930 . S
C718 C714 1.524 . S
C718 H730 0.956 . S
C718 H731 0.961 . S
C718 H732 0.961 . S
C719 C716 1.539 . S
C719 H733 0.958 . S
C719 H734 0.961 . S
C719 H735 0.960 . S
H720 C704 0.931 . S
H721 C709 0.929 . S
H722 C710 0.960 . S
H723 C710 0.962 . S
H724 C710 0.960 . S
H725 C711 0.961 . S
H726 C711 0.961 . S
H727 C711 0.961 . S
H728 C712 0.931 . S
H729 C717 0.930 . S
H730 C718 0.956 . S
H731 C718 0.961 . S
H732 C718 0.961 . S
H733 C719 0.958 . S
H734 C719 0.961 . S
H735 C719 0.960 . S
C736 C737 1.391 . S
C736 C738 1.394 . S
C736 H752 0.931 . S
C737 C736 1.391 . S
C737 C741 1.376 . S
C738 C736 1.394 . S
C738 C739 1.369 . S
C738 C742 1.531 . S
C739 C738 1.369 . S
C739 C740 1.410 . S
C739 C747 1.503 . S
C740 C739 1.410 . S
C740 C741 1.392 . S
C740 C743 1.511 . S
C741 C737 1.376 . S
C741 C740 1.392 . S
C741 H753 0.929 . S
C742 C738 1.531 . S
C742 H754 0.960 . S
C742 H755 0.962 . S
C742 H756 0.960 . S
C743 C740 1.511 . S
C743 H757 0.961 . S
C743 H758 0.961 . S
C743 H759 0.961 . S
C744 C745 1.370 . S
C744 C746 1.363 . S
C744 H760 0.931 . S
C745 C744 1.370 . S
C745 C749 1.408 . S
C746 C744 1.363 . S
C746 C747 1.370 . S
C746 C750 1.524 . S
C747 C739 1.503 . S
C747 C746 1.370 . S
C747 C748 1.403 . S
C748 C747 1.403 . S
C748 C749 1.404 . S
C748 C751 1.539 . S
C749 C745 1.408 . S
C749 C748 1.404 . S
C749 H761 0.930 . S
C750 C746 1.524 . S
C750 H762 0.956 . S
C750 H763 0.961 . S
C750 H764 0.961 . S
C751 C748 1.539 . S
C751 H765 0.958 . S
C751 H766 0.961 . S
C751 H767 0.960 . S
H752 C736 0.931 . S
H753 C741 0.929 . S
H754 C742 0.960 . S
H755 C742 0.962 . S
H756 C742 0.960 . S
H757 C743 0.961 . S
H758 C743 0.961 . S
H759 C743 0.961 . S
H760 C744 0.931 . S
H761 C749 0.930 . S
H762 C750 0.956 . S
H763 C750 0.961 . S
H764 C750 0.961 . S
H765 C751 0.958 . S
H766 C751 0.961 . S
H767 C751 0.960 . S
C768 C769 1.391 . S
C768 C770 1.394 . S
C768 H784 0.931 . S
C769 C768 1.391 . S
C769 C773 1.376 . S
C770 C768 1.394 . S
C770 C771 1.369 . S
C770 C774 1.531 . S
C771 C770 1.369 . S
C771 C772 1.410 . S
C771 C779 1.503 . S
C772 C771 1.410 . S
C772 C773 1.392 . S
C772 C775 1.511 . S
C773 C769 1.376 . S
C773 C772 1.392 . S
C773 H785 0.929 . S
C774 C770 1.531 . S
C774 H786 0.960 . S
C774 H787 0.962 . S
C774 H788 0.960 . S
C775 C772 1.511 . S
C775 H789 0.961 . S
C775 H790 0.961 . S
C775 H791 0.961 . S
C776 C777 1.370 . S
C776 C778 1.363 . S
C776 H792 0.931 . S
C777 C776 1.370 . S
C777 C781 1.408 . S
C778 C776 1.363 . S
C778 C779 1.370 . S
C778 C782 1.524 . S
C779 C771 1.503 . S
C779 C778 1.370 . S
C779 C780 1.403 . S
C780 C779 1.403 . S
C780 C781 1.404 . S
C780 C783 1.539 1_455 S
C781 C777 1.408 . S
C781 C780 1.404 . S
C781 H793 0.930 1_455 S
C782 C778 1.524 . S
C782 H794 0.956 . S
C782 H795 0.961 . S
C782 H796 0.961 . S
C783 C780 1.539 1_655 S
C783 H797 0.958 . S
C783 H798 0.961 . S
C783 H799 0.960 . S
H784 C768 0.931 . S
H785 C773 0.929 . S
H786 C774 0.960 . S
H787 C774 0.962 . S
H788 C774 0.960 . S
H789 C775 0.961 . S
H790 C775 0.961 . S
H791 C775 0.961 . S
H792 C776 0.931 . S
H793 C781 0.930 1_655 S
H794 C782 0.956 . S
H795 C782 0.961 . S
H796 C782 0.961 . S
H797 C783 0.958 . S
H798 C783 0.961 . S
H799 C783 0.960 . S
C800 C801 1.391 . S
C800 C802 1.394 . S
C800 H816 0.931 1_655 S
C801 C800 1.391 . S
C801 C805 1.376 . S
C802 C800 1.394 . S
C802 C803 1.369 . S
C802 C806 1.531 1_655 S
C803 C802 1.369 . S
C803 C804 1.410 . S
C803 C811 1.503 . S
C804 C803 1.410 . S
C804 C805 1.392 . S
C804 C807 1.511 . S
C805 C801 1.376 . S
C805 C804 1.392 . S
C805 H817 0.929 . S
C806 C802 1.531 1_455 S
C806 H818 0.960 . S
C806 H819 0.962 . S
C806 H820 0.960 . S
C807 C804 1.511 . S
C807 H821 0.961 . S
C807 H822 0.961 . S
C807 H823 0.961 . S
C808 C809 1.370 . S
C808 C810 1.363 . S
C808 H824 0.931 . S
C809 C808 1.370 . S
C809 C813 1.408 . S
C810 C808 1.363 . S
C810 C811 1.370 . S
C810 C814 1.524 . S
C811 C803 1.503 . S
C811 C810 1.370 . S
C811 C812 1.403 . S
C812 C811 1.403 . S
C812 C813 1.404 . S
C812 C815 1.539 . S
C813 C809 1.408 . S
C813 C812 1.404 . S
C813 H825 0.930 . S
C814 C810 1.524 . S
C814 H826 0.956 . S
C814 H827 0.961 . S
C814 H828 0.961 . S
C815 C812 1.539 . S
C815 H829 0.958 . S
C815 H830 0.961 . S
C815 H831 0.960 . S
H816 C800 0.931 1_455 S
H817 C805 0.929 . S
H818 C806 0.960 . S
H819 C806 0.962 . S
H820 C806 0.960 . S
H821 C807 0.961 . S
H822 C807 0.961 . S
H823 C807 0.961 . S
H824 C808 0.931 . S
H825 C813 0.930 . S
H826 C814 0.956 . S
H827 C814 0.961 . S
H828 C814 0.961 . S
H829 C815 0.958 . S
H830 C815 0.961 . S
H831 C815 0.960 . S
C832 C833 1.391 . S
C832 C834 1.394 . S
C832 H848 0.931 . S
C833 C832 1.391 . S
C833 C837 1.376 . S
C834 C832 1.394 . S
C834 C835 1.369 . S
C834 C838 1.531 . S
C835 C834 1.369 . S
C835 C836 1.410 . S
C835 C843 1.503 . S
C836 C835 1.410 . S
C836 C837 1.392 . S
C836 C839 1.511 . S
C837 C833 1.376 . S
C837 C836 1.392 . S
C837 H849 0.929 . S
C838 C834 1.531 . S
C838 H850 0.960 . S
C838 H851 0.962 . S
C838 H852 0.960 . S
C839 C836 1.511 . S
C839 H853 0.961 . S
C839 H854 0.961 . S
C839 H855 0.961 . S
C840 C841 1.370 . S
C840 C842 1.363 . S
C840 H856 0.931 . S
C841 C840 1.370 . S
C841 C845 1.408 . S
C842 C840 1.363 . S
C842 C843 1.370 . S
C842 C846 1.524 . S
C843 C835 1.503 . S
C843 C842 1.370 . S
C843 C844 1.403 . S
C844 C843 1.403 . S
C844 C845 1.404 . S
C844 C847 1.539 . S
C845 C841 1.408 . S
C845 C844 1.404 . S
C845 H857 0.930 . S
C846 C842 1.524 . S
C846 H858 0.956 . S
C846 H859 0.961 . S
C846 H860 0.961 . S
C847 C844 1.539 . S
C847 H861 0.958 . S
C847 H862 0.961 . S
C847 H863 0.960 . S
H848 C832 0.931 . S
H849 C837 0.929 . S
H850 C838 0.960 . S
H851 C838 0.962 . S
H852 C838 0.960 . S
H853 C839 0.961 . S
H854 C839 0.961 . S
H855 C839 0.961 . S
H856 C840 0.931 . S
H857 C845 0.930 . S
H858 C846 0.956 . S
H859 C846 0.961 . S
H860 C846 0.961 . S
H861 C847 0.958 . S
H862 C847 0.961 . S
H863 C847 0.960 . S
C864 C865 1.391 . S
C864 C866 1.394 . S
C864 H880 0.931 . S
C865 C864 1.391 . S
C865 C869 1.376 . S
C866 C864 1.394 . S
C866 C867 1.369 . S
C866 C870 1.531 . S
C867 C866 1.369 . S
C867 C868 1.410 . S
C867 C875 1.503 . S
C868 C867 1.410 . S
C868 C869 1.392 . S
C868 C871 1.511 . S
C869 C865 1.376 . S
C869 C868 1.392 . S
C869 H881 0.929 . S
C870 C866 1.531 . S
C870 H882 0.960 . S
C870 H883 0.962 . S
C870 H884 0.960 . S
C871 C868 1.511 . S
C871 H885 0.961 . S
C871 H886 0.961 . S
C871 H887 0.961 . S
C872 C873 1.370 . S
C872 C874 1.363 . S
C872 H888 0.931 . S
C873 C872 1.370 . S
C873 C877 1.408 . S
C874 C872 1.363 . S
C874 C875 1.370 . S
C874 C878 1.524 . S
C875 C867 1.503 . S
C875 C874 1.370 . S
C875 C876 1.403 . S
C876 C875 1.403 . S
C876 C877 1.404 . S
C876 C879 1.539 . S
C877 C873 1.408 . S
C877 C876 1.404 . S
C877 H889 0.930 . S
C878 C874 1.524 . S
C878 H890 0.956 . S
C878 H891 0.961 . S
C878 H892 0.961 . S
C879 C876 1.539 . S
C879 H893 0.958 . S
C879 H894 0.961 . S
C879 H895 0.960 . S
H880 C864 0.931 . S
H881 C869 0.929 . S
H882 C870 0.960 . S
H883 C870 0.962 . S
H884 C870 0.960 . S
H885 C871 0.961 . S
H886 C871 0.961 . S
H887 C871 0.961 . S
H888 C872 0.931 . S
H889 C877 0.930 . S
H890 C878 0.956 . S
H891 C878 0.961 . S
H892 C878 0.961 . S
H893 C879 0.958 . S
H894 C879 0.961 . S
H895 C879 0.960 . S
C896 C897 1.391 . S
C896 C898 1.394 . S
C896 H912 0.931 . S
C897 C896 1.391 . S
C897 C901 1.376 . S
C898 C896 1.394 . S
C898 C899 1.369 . S
C898 C902 1.531 . S
C899 C898 1.369 . S
C899 C900 1.410 . S
C899 C907 1.503 . S
C900 C899 1.410 . S
C900 C901 1.392 . S
C900 C903 1.511 . S
C901 C897 1.376 . S
C901 C900 1.392 . S
C901 H913 0.929 . S
C902 C898 1.531 . S
C902 H914 0.960 . S
C902 H915 0.962 . S
C902 H916 0.960 . S
C903 C900 1.511 . S
C903 H917 0.961 . S
C903 H918 0.961 . S
C903 H919 0.961 . S
C904 C905 1.370 . S
C904 C906 1.363 . S
C904 H920 0.931 . S
C905 C904 1.370 . S
C905 C909 1.408 . S
C906 C904 1.363 . S
C906 C907 1.370 . S
C906 C910 1.524 . S
C907 C899 1.503 . S
C907 C906 1.370 . S
C907 C908 1.403 . S
C908 C907 1.403 . S
C908 C909 1.404 . S
C908 C911 1.539 . S
C909 C905 1.408 . S
C909 C908 1.404 . S
C909 H921 0.930 . S
C910 C906 1.524 . S
C910 H922 0.956 . S
C910 H923 0.961 . S
C910 H924 0.961 . S
C911 C908 1.539 . S
C911 H925 0.958 1_565 S
C911 H926 0.958 1_565 S
C911 H927 0.960 . S
H912 C896 0.931 . S
H913 C901 0.929 . S
H914 C902 0.960 . S
H915 C902 0.962 . S
H916 C902 0.960 . S
H917 C903 0.961 . S
H918 C903 0.961 . S
H919 C903 0.961 . S
H920 C904 0.931 . S
H921 C909 0.930 . S
H922 C910 0.956 . S
H923 C910 0.961 . S
H924 C910 0.961 . S
H925 C911 0.958 1_545 S
H926 C911 0.958 1_545 S
H927 C911 0.960 . S
C928 C929 1.391 . S
C928 C930 1.394 . S
C928 H944 0.931 . S
C929 C928 1.391 . S
C929 C933 1.376 . S
C930 C928 1.394 . S
C930 C931 1.369 . S
C930 C934 1.531 . S
C931 C930 1.369 . S
C931 C932 1.410 . S
C931 C939 1.503 . S
C932 C931 1.410 . S
C932 C933 1.392 . S
C932 C935 1.511 . S
C933 C929 1.376 . S
C933 C932 1.392 . S
C933 H945 0.929 . S
C934 C930 1.531 . S
C934 H946 0.960 . S
C934 H947 0.962 . S
C934 H948 0.960 . S
C935 C932 1.511 . S
C935 H949 0.961 . S
C935 H950 0.961 . S
C935 H951 0.961 . S
C936 C937 1.370 . S
C936 C938 1.363 . S
C936 H952 0.931 . S
C937 C936 1.370 . S
C937 C941 1.408 . S
C938 C936 1.363 . S
C938 C939 1.370 . S
C938 C942 1.524 . S
C939 C931 1.503 . S
C939 C938 1.370 . S
C939 C940 1.403 . S
C940 C939 1.403 . S
C940 C941 1.404 . S
C940 C943 1.539 . S
C941 C937 1.408 . S
C941 C940 1.404 . S
C941 H953 0.930 . S
C942 C938 1.524 . S
C942 H954 0.956 . S
C942 H955 0.961 . S
C942 H956 0.961 . S
C943 C940 1.539 . S
C943 H957 0.958 . S
C943 H958 0.961 . S
C943 H959 0.960 . S
H944 C928 0.931 . S
H945 C933 0.929 . S
H946 C934 0.960 . S
H947 C934 0.962 . S
H948 C934 0.960 . S
H949 C935 0.961 . S
H950 C935 0.961 . S
H951 C935 0.961 . S
H952 C936 0.931 . S
H953 C941 0.930 . S
H954 C942 0.956 . S
H955 C942 0.961 . S
H956 C942 0.961 . S
H957 C943 0.958 . S
H958 C943 0.961 . S
H959 C943 0.960 . S
C960 C961 1.391 . S
C960 C962 1.394 . S
C960 H976 0.931 . S
C961 C960 1.391 . S
C961 C965 1.376 . S
C962 C960 1.394 . S
C962 C963 1.369 . S
C962 C966 1.531 . S
C963 C962 1.369 . S
C963 C964 1.410 . S
C963 C971 1.503 . S
C964 C963 1.410 . S
C964 C965 1.392 . S
C964 C967 1.511 . S
C965 C961 1.376 . S
C965 C964 1.392 . S
C965 H977 0.929 . S
C966 C962 1.531 . S
C966 H978 0.960 1_554 S
C966 H979 0.962 . S
C966 H980 0.960 . S
C967 C964 1.511 . S
C967 H981 0.961 . S
C967 H982 0.961 . S
C967 H983 0.961 . S
C968 C969 1.370 . S
C968 C970 1.363 1_556 S
C968 H984 0.931 . S
C969 C968 1.370 . S
C969 C973 1.408 . S
C970 C968 1.363 1_554 S
C970 C971 1.370 . S
C970 C974 1.524 . S
C971 C963 1.503 . S
C971 C970 1.370 . S
C971 C972 1.403 1_554 S
C972 C971 1.403 1_556 S
C972 C973 1.404 . S
C972 C975 1.539 . S
C973 C969 1.408 . S
C973 C972 1.404 . S
C973 H985 0.930 . S
C974 C970 1.524 . S
C974 H986 0.956 . S
C974 H987 0.961 . S
C974 H988 0.961 . S
C975 C972 1.539 . S
C975 H989 0.958 . S
C975 H990 0.961 . S
C975 H991 0.960 1_556 S
H976 C960 0.931 . S
H977 C965 0.929 . S
H978 C966 0.960 1_556 S
H979 C966 0.962 . S
H980 C966 0.960 . S
H981 C967 0.961 . S
H982 C967 0.961 . S
H983 C967 0.961 . S
H984 C968 0.931 . S
H985 C973 0.930 . S
H986 C974 0.956 . S
H987 C974 0.961 . S
H988 C974 0.961 . S
H989 C975 0.958 . S
H990 C975 0.961 . S
H991 C975 0.960 1_554 S
C992 C993 1.391 . S
C992 C994 1.394 . S
C992 H1008 0.931 . S
C993 C992 1.391 . S
C993 C997 1.376 . S
C994 C992 1.394 . S
C994 C995 1.369 . S
C994 C998 1.531 . S
C995 C994 1.369 . S
C995 C996 1.410 . S
C995 C1003 1.503 . S
C996 C995 1.410 . S
C996 C997 1.392 . S
C996 C999 1.511 . S
C997 C993 1.376 . S
C997 C996 1.392 . S
C997 H1009 0.929 . S
C998 C994 1.531 . S
C998 H1010 0.960 . S
C998 H1011 0.962 . S
C998 H1012 0.960 . S
C999 C996 1.511 . S
C999 H1013 0.961 . S
C999 H1014 0.961 . S
C999 H1015 0.961 . S
C1000 C1001 1.370 . S
C1000 C1002 1.363 . S
C1000 H1016 0.931 . S
C1001 C1000 1.370 . S
C1001 C1005 1.408 . S
C1002 C1000 1.363 . S
C1002 C1003 1.370 . S
C1002 C1006 1.524 . S
C1003 C995 1.503 . S
C1003 C1002 1.370 . S
C1003 C1004 1.403 . S
C1004 C1003 1.403 . S
C1004 C1005 1.404 . S
C1004 C1007 1.539 . S
C1005 C1001 1.408 . S
C1005 C1004 1.404 . S
C1005 H1017 0.930 . S
C1006 C1002 1.524 . S
C1006 H1018 0.956 . S
C1006 H1019 0.961 . S
C1006 H1020 0.961 . S
C1007 C1004 1.539 . S
C1007 H1021 0.958 . S
C1007 H1022 0.961 . S
C1007 H1023 0.960 . S
H1008 C992 0.931 . S
H1009 C997 0.929 . S
H1010 C998 0.960 . S
H1011 C998 0.962 . S
H1012 C998 0.960 . S
H1013 C999 0.961 . S
H1014 C999 0.961 . S
H1015 C999 0.961 . S
H1016 C1000 0.931 . S
H1017 C1005 0.930 . S
H1018 C1006 0.956 . S
H1019 C1006 0.961 . S
H1020 C1006 0.961 . S
H1021 C1007 0.958 . S
H1022 C1007 0.961 . S
H1023 C1007 0.960 . S
C1024 C1025 1.391 . S
C1024 C1026 1.394 . S
C1024 H1040 0.931 . S
C1025 C1024 1.391 . S
C1025 C1029 1.376 . S
C1026 C1024 1.394 . S
C1026 C1027 1.369 . S
C1026 C1030 1.531 . S
C1027 C1026 1.369 . S
C1027 C1028 1.410 . S
C1027 C1035 1.503 1_554 S
C1028 C1027 1.410 . S
C1028 C1029 1.392 . S
C1028 C1031 1.511 . S
C1029 C1025 1.376 . S
C1029 C1028 1.392 . S
C1029 H1041 0.929 . S
C1030 C1026 1.531 . S
C1030 H1042 0.960 1_554 S
C1030 H1043 0.962 1_554 S
C1030 H1044 0.960 . S
C1031 C1028 1.511 . S
C1031 H1045 0.961 . S
C1031 H1046 0.961 . S
C1031 H1047 0.961 . S
C1032 C1033 1.370 . S
C1032 C1034 1.363 . S
C1032 H1048 0.931 . S
C1033 C1032 1.370 . S
C1033 C1037 1.408 . S
C1034 C1032 1.363 . S
C1034 C1035 1.370 . S
C1034 C1038 1.524 . S
C1035 C1027 1.503 1_556 S
C1035 C1034 1.370 . S
C1035 C1036 1.403 . S
C1036 C1035 1.403 . S
C1036 C1037 1.404 . S
C1036 C1039 1.539 . S
C1037 C1033 1.408 . S
C1037 C1036 1.404 . S
C1037 H1049 0.930 . S
C1038 C1034 1.524 . S
C1038 H1050 0.956 . S
C1038 H1051 0.961 . S
C1038 H1052 0.961 . S
C1039 C1036 1.539 . S
C1039 H1053 0.958 . S
C1039 H1054 0.961 . S
C1039 H1055 0.960 1_556 S
H1040 C1024 0.931 . S
H1041 C1029 0.929 . S
H1042 C1030 0.960 1_556 S
H1043 C1030 0.962 1_556 S
H1044 C1030 0.960 . S
H1045 C1031 0.961 . S
H1046 C1031 0.961 . S
H1047 C1031 0.961 . S
H1048 C1032 0.931 . S
H1049 C1037 0.930 . S
H1050 C1038 0.956 . S
H1051 C1038 0.961 . S
H1052 C1038 0.961 . S
H1053 C1039 0.958 . S
H1054 C1039 0.961 . S
H1055 C1039 0.960 1_554 S
C1056 C1057 1.391 . S
C1056 C1058 1.394 . S
C1056 H1072 0.931 . S
C1057 C1056 1.391 . S
C1057 C1061 1.376 . S
C1058 C1056 1.394 . S
C1058 C1059 1.369 . S
C1058 C1062 1.531 . S
C1059 C1058 1.369 . S
C1059 C1060 1.410 . S
C1059 C1067 1.503 . S
C1060 C1059 1.410 . S
C1060 C1061 1.392 . S
C1060 C1063 1.511 . S
C1061 C1057 1.376 . S
C1061 C1060 1.392 . S
C1061 H1073 0.929 . S
C1062 C1058 1.531 . S
C1062 H1074 0.960 . S
C1062 H1075 0.962 . S
C1062 H1076 0.960 . S
C1063 C1060 1.511 . S
C1063 H1077 0.961 . S
C1063 H1078 0.961 . S
C1063 H1079 0.961 . S
C1064 C1065 1.370 . S
C1064 C1066 1.363 . S
C1064 H1080 0.931 . S
C1065 C1064 1.370 . S
C1065 C1069 1.408 . S
C1066 C1064 1.363 . S
C1066 C1067 1.370 . S
C1066 C1070 1.524 . S
C1067 C1059 1.503 . S
C1067 C1066 1.370 . S
C1067 C1068 1.403 . S
C1068 C1067 1.403 . S
C1068 C1069 1.404 . S
C1068 C1071 1.539 . S
C1069 C1065 1.408 . S
C1069 C1068 1.404 . S
C1069 H1081 0.930 . S
C1070 C1066 1.524 . S
C1070 H1082 0.956 . S
C1070 H1083 0.961 . S
C1070 H1084 0.961 . S
C1071 C1068 1.539 . S
C1071 H1085 0.958 . S
C1071 H1086 0.961 . S
C1071 H1087 0.960 . S
H1072 C1056 0.931 . S
H1073 C1061 0.929 . S
H1074 C1062 0.960 . S
H1075 C1062 0.962 . S
H1076 C1062 0.960 . S
H1077 C1063 0.961 . S
H1078 C1063 0.961 . S
H1079 C1063 0.961 . S
H1080 C1064 0.931 . S
H1081 C1069 0.930 . S
H1082 C1070 0.956 . S
H1083 C1070 0.961 . S
H1084 C1070 0.961 . S
H1085 C1071 0.958 . S
H1086 C1071 0.961 . S
H1087 C1071 0.960 . S
C1088 C1089 1.391 . S
C1088 C1090 1.394 . S
C1088 H1104 0.931 . S
C1089 C1088 1.391 . S
C1089 C1093 1.376 . S
C1090 C1088 1.394 . S
C1090 C1091 1.369 . S
C1090 C1094 1.531 . S
C1091 C1090 1.369 . S
C1091 C1092 1.410 . S
C1091 C1099 1.503 . S
C1092 C1091 1.410 . S
C1092 C1093 1.392 . S
C1092 C1095 1.511 . S
C1093 C1089 1.376 . S
C1093 C1092 1.392 . S
C1093 H1105 0.929 . S
C1094 C1090 1.531 . S
C1094 H1106 0.960 . S
C1094 H1107 0.962 . S
C1094 H1108 0.960 . S
C1095 C1092 1.511 . S
C1095 H1109 0.961 . S
C1095 H1110 0.961 . S
C1095 H1111 0.961 . S
C1096 C1097 1.370 . S
C1096 C1098 1.363 . S
C1096 H1112 0.931 . S
C1097 C1096 1.370 . S
C1097 C1101 1.408 . S
C1098 C1096 1.363 . S
C1098 C1099 1.370 . S
C1098 C1102 1.524 . S
C1099 C1091 1.503 . S
C1099 C1098 1.370 . S
C1099 C1100 1.403 . S
C1100 C1099 1.403 . S
C1100 C1101 1.404 . S
C1100 C1103 1.539 . S
C1101 C1097 1.408 . S
C1101 C1100 1.404 . S
C1101 H1113 0.930 . S
C1102 C1098 1.524 . S
C1102 H1114 0.956 . S
C1102 H1115 0.961 . S
C1102 H1116 0.961 . S
C1103 C1100 1.539 . S
C1103 H1117 0.958 . S
C1103 H1118 0.961 . S
C1103 H1119 0.960 . S
H1104 C1088 0.931 . S
H1105 C1093 0.929 . S
H1106 C1094 0.960 . S
H1107 C1094 0.962 . S
H1108 C1094 0.960 . S
H1109 C1095 0.961 . S
H1110 C1095 0.961 . S
H1111 C1095 0.961 . S
H1112 C1096 0.931 . S
H1113 C1101 0.930 . S
H1114 C1102 0.956 . S
H1115 C1102 0.961 . S
H1116 C1102 0.961 . S
H1117 C1103 0.958 . S
H1118 C1103 0.961 . S
H1119 C1103 0.960 . S
C1120 C1121 1.391 . S
C1120 C1122 1.394 . S
C1120 H1136 0.931 . S
C1121 C1120 1.391 . S
C1121 C1125 1.376 . S
C1122 C1120 1.394 . S
C1122 C1123 1.369 . S
C1122 C1126 1.531 . S
C1123 C1122 1.369 . S
C1123 C1124 1.410 . S
C1123 C1131 1.503 . S
C1124 C1123 1.410 . S
C1124 C1125 1.392 . S
C1124 C1127 1.511 . S
C1125 C1121 1.376 . S
C1125 C1124 1.392 . S
C1125 H1137 0.929 . S
C1126 C1122 1.531 . S
C1126 H1138 0.960 . S
C1126 H1139 0.962 . S
C1126 H1140 0.960 . S
C1127 C1124 1.511 . S
C1127 H1141 0.961 . S
C1127 H1142 0.961 . S
C1127 H1143 0.961 . S
C1128 C1129 1.370 . S
C1128 C1130 1.363 . S
C1128 H1144 0.931 . S
C1129 C1128 1.370 . S
C1129 C1133 1.408 . S
C1130 C1128 1.363 . S
C1130 C1131 1.370 . S
C1130 C1134 1.524 . S
C1131 C1123 1.503 . S
C1131 C1130 1.370 . S
C1131 C1132 1.403 . S
C1132 C1131 1.403 . S
C1132 C1133 1.404 . S
C1132 C1135 1.539 . S
C1133 C1129 1.408 . S
C1133 C1132 1.404 . S
C1133 H1145 0.930 . S
C1134 C1130 1.524 . S
C1134 H1146 0.956 . S
C1134 H1147 0.961 . S
C1134 H1148 0.961 . S
C1135 C1132 1.539 . S
C1135 H1149 0.958 . S
C1135 H1150 0.961 . S
C1135 H1151 0.960 . S
H1136 C1120 0.931 . S
H1137 C1125 0.929 . S
H1138 C1126 0.960 . S
H1139 C1126 0.962 . S
H1140 C1126 0.960 . S
H1141 C1127 0.961 . S
H1142 C1127 0.961 . S
H1143 C1127 0.961 . S
H1144 C1128 0.931 . S
H1145 C1133 0.930 . S
H1146 C1134 0.956 . S
H1147 C1134 0.961 . S
H1148 C1134 0.961 . S
H1149 C1135 0.958 . S
H1150 C1135 0.961 . S
H1151 C1135 0.960 . S
C1152 C1153 1.391 . S
C1152 C1154 1.394 . S
C1152 H1168 0.931 . S
C1153 C1152 1.391 . S
C1153 C1157 1.376 . S
C1154 C1152 1.394 . S
C1154 C1155 1.369 . S
C1154 C1158 1.531 . S
C1155 C1154 1.369 . S
C1155 C1156 1.410 . S
C1155 C1163 1.503 1_545 S
C1156 C1155 1.410 . S
C1156 C1157 1.392 . S
C1156 C1159 1.511 . S
C1157 C1153 1.376 . S
C1157 C1156 1.392 . S
C1157 H1169 0.929 . S
C1158 C1154 1.531 . S
C1158 H1170 0.960 . S
C1158 H1171 0.962 1_455 S
C1158 H1172 0.960 . S
C1159 C1156 1.511 . S
C1159 H1173 0.961 . S
C1159 H1174 0.961 1_545 S
C1159 H1175 0.961 1_545 S
C1160 C1161 1.370 . S
C1160 C1162 1.363 . S
C1160 H1176 0.931 . S
C1161 C1160 1.370 . S
C1161 C1165 1.408 . S
C1162 C1160 1.363 . S
C1162 C1163 1.370 . S
C1162 C1166 1.524 1_565 S
C1163 C1155 1.503 1_565 S
C1163 C1162 1.370 . S
C1163 C1164 1.403 . S
C1164 C1163 1.403 . S
C1164 C1165 1.404 . S
C1164 C1167 1.539 . S
C1165 C1161 1.408 . S
C1165 C1164 1.404 . S
C1165 H1177 0.930 . S
C1166 C1162 1.524 1_545 S
C1166 H1178 0.956 . S
C1166 H1179 0.961 . S
C1166 H1180 0.961 . S
C1167 C1164 1.539 . S
C1167 H1181 0.958 . S
C1167 H1182 0.961 . S
C1167 H1183 0.960 . S
H1168 C1152 0.931 . S
H1169 C1157 0.929 . S
H1170 C1158 0.960 . S
H1171 C1158 0.962 1_655 S
H1172 C1158 0.960 . S
H1173 C1159 0.961 . S
H1174 C1159 0.961 1_565 S
H1175 C1159 0.961 1_565 S
H1176 C1160 0.931 . S
H1177 C1165 0.930 . S
H1178 C1166 0.956 . S
H1179 C1166 0.961 . S
H1180 C1166 0.961 . S
H1181 C1167 0.958 . S
H1182 C1167 0.961 . S
H1183 C1167 0.960 . S
C1184 C1185 1.391 . S
C1184 C1186 1.394 . S
C1184 H1200 0.931 . S
C1185 C1184 1.391 . S
C1185 C1189 1.376 . S
C1186 C1184 1.394 . S
C1186 C1187 1.369 . S
C1186 C1190 1.531 . S
C1187 C1186 1.369 . S
C1187 C1188 1.410 . S
C1187 C1195 1.503 . S
C1188 C1187 1.410 . S
C1188 C1189 1.392 . S
C1188 C1191 1.511 . S
C1189 C1185 1.376 . S
C1189 C1188 1.392 . S
C1189 H1201 0.929 . S
C1190 C1186 1.531 . S
C1190 H1202 0.960 . S
C1190 H1203 0.962 . S
C1190 H1204 0.960 . S
C1191 C1188 1.511 . S
C1191 H1205 0.961 . S
C1191 H1206 0.961 . S
C1191 H1207 0.961 . S
C1192 C1193 1.370 . S
C1192 C1194 1.363 . S
C1192 H1208 0.931 . S
C1193 C1192 1.370 . S
C1193 C1197 1.408 . S
C1194 C1192 1.363 . S
C1194 C1195 1.370 . S
C1194 C1198 1.524 . S
C1195 C1187 1.503 . S
C1195 C1194 1.370 . S
C1195 C1196 1.403 . S
C1196 C1195 1.403 . S
C1196 C1197 1.404 . S
C1196 C1199 1.539 . S
C1197 C1193 1.408 . S
C1197 C1196 1.404 . S
C1197 H1209 0.930 . S
C1198 C1194 1.524 . S
C1198 H1210 0.956 . S
C1198 H1211 0.961 . S
C1198 H1212 0.961 . S
C1199 C1196 1.539 . S
C1199 H1213 0.958 . S
C1199 H1214 0.961 . S
C1199 H1215 0.960 . S
H1200 C1184 0.931 . S
H1201 C1189 0.929 . S
H1202 C1190 0.960 . S
H1203 C1190 0.962 . S
H1204 C1190 0.960 . S
H1205 C1191 0.961 . S
H1206 C1191 0.961 . S
H1207 C1191 0.961 . S
H1208 C1192 0.931 . S
H1209 C1197 0.930 . S
H1210 C1198 0.956 . S
H1211 C1198 0.961 . S
H1212 C1198 0.961 . S
H1213 C1199 0.958 . S
H1214 C1199 0.961 . S
H1215 C1199 0.960 . S
C1216 C1217 1.391 . S
C1216 C1218 1.394 . S
C1216 H1232 0.931 . S
C1217 C1216 1.391 . S
C1217 C1221 1.376 . S
C1218 C1216 1.394 . S
C1218 C1219 1.369 . S
C1218 C1222 1.531 1_545 S
C1219 C1218 1.369 . S
C1219 C1220 1.410 . S
C1219 C1227 1.503 1_545 S
C1220 C1219 1.410 . S
C1220 C1221 1.392 . S
C1220 C1223 1.511 . S
C1221 C1217 1.376 . S
C1221 C1220 1.392 . S
C1221 H1233 0.929 . S
C1222 C1218 1.531 1_565 S
C1222 H1234 0.960 . S
C1222 H1235 0.962 . S
C1222 H1236 0.960 . S
C1223 C1220 1.511 . S
C1223 H1237 0.961 . S
C1223 H1238 0.961 . S
C1223 H1239 0.961 . S
C1224 C1225 1.370 . S
C1224 C1226 1.363 . S
C1224 H1240 0.931 . S
C1225 C1224 1.370 . S
C1225 C1229 1.408 . S
C1226 C1224 1.363 . S
C1226 C1227 1.370 . S
C1226 C1230 1.542 . S
C1227 C1219 1.503 1_565 S
C1227 C1226 1.370 . S
C1227 C1228 1.403 . S
C1228 C1227 1.403 . S
C1228 C1229 1.404 . S
C1228 C1231 1.539 . S
C1229 C1225 1.408 . S
C1229 C1228 1.404 . S
C1229 H1241 0.930 . S
C1230 C1226 1.542 . S
C1230 H1242 0.956 . S
C1230 H1243 0.930 1_565 S
C1230 H1244 0.974 . S
C1231 C1228 1.539 . S
C1231 H1245 0.958 . S
C1231 H1246 0.961 . S
C1231 H1247 0.960 1_565 S
H1232 C1216 0.931 . S
H1233 C1221 0.929 . S
H1234 C1222 0.960 . S
H1235 C1222 0.962 . S
H1236 C1222 0.960 . S
H1237 C1223 0.961 . S
H1238 C1223 0.961 . S
H1239 C1223 0.961 . S
H1240 C1224 0.931 . S
H1241 C1229 0.930 . S
H1242 C1230 0.956 . S
H1243 C1230 0.930 1_545 S
H1244 C1230 0.974 . S
H1245 C1231 0.958 . S
H1246 C1231 0.961 . S
H1247 C1231 0.960 1_545 S
C1248 C1249 1.391 . S
C1248 C1250 1.394 . S
C1248 H1264 0.931 . S
C1249 C1248 1.391 . S
C1249 C1253 1.376 . S
C1250 C1248 1.394 . S
C1250 C1251 1.369 . S
C1250 C1254 1.531 . S
C1251 C1250 1.369 . S
C1251 C1252 1.410 . S
C1251 C1259 1.503 . S
C1252 C1251 1.410 . S
C1252 C1253 1.392 . S
C1252 C1255 1.511 . S
C1253 C1249 1.376 . S
C1253 C1252 1.392 . S
C1253 H1265 0.929 . S
C1254 C1250 1.531 . S
C1254 H1266 0.960 . S
C1254 H1267 0.962 . S
C1254 H1268 0.960 . S
C1255 C1252 1.511 . S
C1255 H1269 0.961 . S
C1255 H1270 0.961 . S
C1255 H1271 0.961 . S
C1256 C1257 1.370 . S
C1256 C1258 1.363 . S
C1256 H1272 0.931 . S
C1257 C1256 1.370 . S
C1257 C1261 1.408 . S
C1258 C1256 1.363 . S
C1258 C1259 1.370 . S
C1258 C1262 1.524 . S
C1259 C1251 1.503 . S
C1259 C1258 1.370 . S
C1259 C1260 1.403 . S
C1260 C1259 1.403 . S
C1260 C1261 1.404 . S
C1260 C1263 1.539 . S
C1261 C1257 1.408 . S
C1261 C1260 1.404 . S
C1261 H1273 0.930 . S
C1262 C1258 1.524 . S
C1262 H1274 0.956 . S
C1262 H1275 0.961 . S
C1262 H1276 0.961 . S
C1263 C1260 1.539 . S
C1263 H1277 0.958 . S
C1263 H1278 0.961 . S
C1263 H1279 0.960 . S
H1264 C1248 0.931 . S
H1265 C1253 0.929 . S
H1266 C1254 0.960 . S
H1267 C1254 0.962 . S
H1268 C1254 0.960 . S
H1269 C1255 0.961 . S
H1270 C1255 0.961 . S
H1271 C1255 0.961 . S
H1272 C1256 0.931 . S
H1273 C1261 0.930 . S
H1274 C1262 0.956 . S
H1275 C1262 0.961 . S
H1276 C1262 0.961 . S
H1277 C1263 0.958 . S
H1278 C1263 0.961 . S
H1279 C1263 0.960 . S
C1280 C1281 1.391 . S
C1280 C1282 1.394 . S
C1280 H1296 0.931 . S
C1281 C1280 1.391 . S
C1281 C1285 1.376 . S
C1282 C1280 1.394 . S
C1282 C1283 1.369 . S
C1282 C1286 1.531 . S
C1283 C1282 1.369 . S
C1283 C1284 1.410 . S
C1283 C1291 1.503 . S
C1284 C1283 1.410 . S
C1284 C1285 1.392 . S
C1284 C1287 1.511 . S
C1285 C1281 1.376 . S
C1285 C1284 1.392 . S
C1285 H1297 0.929 . S
C1286 C1282 1.531 . S
C1286 H1298 0.960 . S
C1286 H1299 0.962 1_655 S
C1286 H1300 0.960 1_655 S
C1287 C1284 1.511 . S
C1287 H1301 0.961 . S
C1287 H1302 0.961 . S
C1287 H1303 0.961 . S
C1288 C1289 1.370 . S
C1288 C1290 1.363 . S
C1288 H1304 0.931 . S
C1289 C1288 1.370 . S
C1289 C1293 1.408 . S
C1290 C1288 1.363 . S
C1290 C1291 1.370 . S
C1290 C1294 1.524 . S
C1291 C1283 1.503 . S
C1291 C1290 1.370 . S
C1291 C1292 1.403 . S
C1292 C1291 1.403 . S
C1292 C1293 1.404 . S
C1292 C1295 1.539 . S
C1293 C1289 1.408 . S
C1293 C1292 1.404 . S
C1293 H1305 0.930 . S
C1294 C1290 1.524 . S
C1294 H1306 0.956 . S
C1294 H1307 0.961 . S
C1294 H1308 0.961 . S
C1295 C1292 1.539 . S
C1295 H1309 0.958 . S
C1295 H1310 0.961 . S
C1295 H1311 0.960 . S
H1296 C1280 0.931 . S
H1297 C1285 0.929 . S
H1298 C1286 0.960 . S
H1299 C1286 0.962 1_455 S
H1300 C1286 0.960 1_455 S
H1301 C1287 0.961 . S
H1302 C1287 0.961 . S
H1303 C1287 0.961 . S
H1304 C1288 0.931 . S
H1305 C1293 0.930 . S
H1306 C1294 0.956 . S
H1307 C1294 0.961 . S
H1308 C1294 0.961 . S
H1309 C1295 0.958 . S
H1310 C1295 0.961 . S
H1311 C1295 0.960 . S
C1312 C1313 1.391 . S
C1312 C1314 1.394 . S
C1312 H1328 0.931 . S
C1313 C1312 1.391 . S
C1313 C1317 1.376 . S
C1314 C1312 1.394 . S
C1314 C1315 1.369 . S
C1314 C1318 1.531 . S
C1315 C1314 1.369 . S
C1315 C1316 1.410 . S
C1315 C1323 1.503 . S
C1316 C1315 1.410 . S
C1316 C1317 1.392 . S
C1316 C1319 1.511 . S
C1317 C1313 1.376 . S
C1317 C1316 1.392 . S
C1317 H1329 0.929 . S
C1318 C1314 1.531 . S
C1318 H1330 0.960 . S
C1318 H1331 0.962 . S
C1318 H1332 0.960 . S
C1319 C1316 1.511 . S
C1319 H1333 0.961 . S
C1319 H1334 0.961 . S
C1319 H1335 0.961 . S
C1320 C1321 1.370 . S
C1320 C1322 1.363 . S
C1320 H1336 0.931 . S
C1321 C1320 1.370 . S
C1321 C1325 1.408 . S
C1322 C1320 1.363 . S
C1322 C1323 1.370 . S
C1322 C1326 1.524 . S
C1323 C1315 1.503 . S
C1323 C1322 1.370 . S
C1323 C1324 1.403 . S
C1324 C1323 1.403 . S
C1324 C1325 1.404 . S
C1324 C1327 1.539 . S
C1325 C1321 1.408 . S
C1325 C1324 1.404 . S
C1325 H1337 0.930 . S
C1326 C1322 1.524 . S
C1326 H1338 0.956 . S
C1326 H1339 0.961 . S
C1326 H1340 0.961 . S
C1327 C1324 1.539 . S
C1327 H1341 0.958 . S
C1327 H1342 0.961 . S
C1327 H1343 0.960 . S
H1328 C1312 0.931 . S
H1329 C1317 0.929 . S
H1330 C1318 0.960 . S
H1331 C1318 0.962 . S
H1332 C1318 0.960 . S
H1333 C1319 0.961 . S
H1334 C1319 0.961 . S
H1335 C1319 0.961 . S
H1336 C1320 0.931 . S
H1337 C1325 0.930 . S
H1338 C1326 0.956 . S
H1339 C1326 0.961 . S
H1340 C1326 0.961 . S
H1341 C1327 0.958 . S
H1342 C1327 0.961 . S
H1343 C1327 0.960 . S
C1344 C1345 1.391 . S
C1344 C1346 1.394 . S
C1344 H1360 0.931 . S
C1345 C1344 1.391 . S
C1345 C1349 1.376 . S
C1346 C1344 1.394 . S
C1346 C1347 1.369 . S
C1346 C1350 1.531 . S
C1347 C1346 1.369 . S
C1347 C1348 1.410 . S
C1347 C1355 1.503 . S
C1348 C1347 1.410 . S
C1348 C1349 1.392 . S
C1348 C1351 1.511 . S
C1349 C1345 1.376 . S
C1349 C1348 1.392 . S
C1349 H1361 0.929 . S
C1350 C1346 1.531 . S
C1350 H1362 0.960 . S
C1350 H1363 0.962 . S
C1350 H1364 0.960 . S
C1351 C1348 1.511 . S
C1351 H1365 0.961 . S
C1351 H1366 0.961 . S
C1351 H1367 0.961 . S
C1352 C1353 1.370 . S
C1352 C1354 1.363 . S
C1352 H1368 0.931 . S
C1353 C1352 1.370 . S
C1353 C1357 1.408 . S
C1354 C1352 1.363 . S
C1354 C1355 1.370 . S
C1354 C1358 1.524 . S
C1355 C1347 1.503 . S
C1355 C1354 1.370 . S
C1355 C1356 1.403 . S
C1356 C1355 1.403 . S
C1356 C1357 1.404 . S
C1356 C1359 1.539 . S
C1357 C1353 1.408 . S
C1357 C1356 1.404 . S
C1357 H1369 0.930 . S
C1358 C1354 1.524 . S
C1358 H1370 0.956 . S
C1358 H1371 0.961 . S
C1358 H1372 0.961 . S
C1359 C1356 1.539 . S
C1359 H1373 0.958 . S
C1359 H1374 0.961 . S
C1359 H1375 0.960 . S
H1360 C1344 0.931 . S
H1361 C1349 0.929 . S
H1362 C1350 0.960 . S
H1363 C1350 0.962 . S
H1364 C1350 0.960 . S
H1365 C1351 0.961 . S
H1366 C1351 0.961 . S
H1367 C1351 0.961 . S
H1368 C1352 0.931 . S
H1369 C1357 0.930 . S
H1370 C1358 0.956 . S
H1371 C1358 0.961 . S
H1372 C1358 0.961 . S
H1373 C1359 0.958 . S
H1374 C1359 0.961 . S
H1375 C1359 0.960 . S
C1376 C1377 1.391 . S
C1376 C1378 1.394 . S
C1376 H1392 0.931 . S
C1377 C1376 1.391 . S
C1377 C1381 1.376 . S
C1378 C1376 1.394 . S
C1378 C1379 1.369 . S
C1378 C1382 1.531 . S
C1379 C1378 1.369 . S
C1379 C1380 1.410 . S
C1379 C1387 1.503 . S
C1380 C1379 1.410 . S
C1380 C1381 1.392 . S
C1380 C1383 1.511 . S
C1381 C1377 1.376 . S
C1381 C1380 1.392 . S
C1381 H1393 0.929 . S
C1382 C1378 1.531 . S
C1382 H1394 0.960 . S
C1382 H1395 0.962 . S
C1382 H1396 0.960 . S
C1383 C1380 1.511 . S
C1383 H1397 0.961 . S
C1383 H1398 0.961 . S
C1383 H1399 0.961 . S
C1384 C1385 1.370 . S
C1384 C1386 1.363 . S
C1384 H1400 0.931 . S
C1385 C1384 1.370 . S
C1385 C1389 1.408 . S
C1386 C1384 1.363 . S
C1386 C1387 1.370 . S
C1386 C1390 1.524 . S
C1387 C1379 1.503 . S
C1387 C1386 1.370 . S
C1387 C1388 1.403 . S
C1388 C1387 1.403 . S
C1388 C1389 1.404 . S
C1388 C1391 1.539 . S
C1389 C1385 1.408 . S
C1389 C1388 1.404 . S
C1389 H1401 0.930 . S
C1390 C1386 1.524 . S
C1390 H1402 0.956 . S
C1390 H1403 0.961 . S
C1390 H1404 0.961 . S
C1391 C1388 1.539 . S
C1391 H1405 0.958 . S
C1391 H1406 0.961 . S
C1391 H1407 0.960 . S
H1392 C1376 0.931 . S
H1393 C1381 0.929 . S
H1394 C1382 0.960 . S
H1395 C1382 0.962 . S
H1396 C1382 0.960 . S
H1397 C1383 0.961 . S
H1398 C1383 0.961 . S
H1399 C1383 0.961 . S
H1400 C1384 0.931 . S
H1401 C1389 0.930 . S
H1402 C1390 0.956 . S
H1403 C1390 0.961 . S
H1404 C1390 0.961 . S
H1405 C1391 0.958 . S
H1406 C1391 0.961 . S
H1407 C1391 0.960 . S
C1408 C1409 1.391 . S
C1408 C1410 1.394 . S
C1408 H1424 0.931 . S
C1409 C1408 1.391 . S
C1409 C1413 1.376 . S
C1410 C1408 1.394 . S
C1410 C1411 1.369 . S
C1410 C1414 1.531 . S
C1411 C1410 1.369 . S
C1411 C1412 1.410 . S
C1411 C1419 1.503 . S
C1412 C1411 1.410 . S
C1412 C1413 1.392 . S
C1412 C1415 1.511 . S
C1413 C1409 1.376 . S
C1413 C1412 1.392 . S
C1413 H1425 0.929 . S
C1414 C1410 1.531 . S
C1414 H1426 0.960 . S
C1414 H1427 0.962 . S
C1414 H1428 0.960 . S
C1415 C1412 1.511 . S
C1415 H1429 0.961 . S
C1415 H1430 0.961 . S
C1415 H1431 0.961 . S
C1416 C1417 1.370 . S
C1416 C1418 1.363 . S
C1416 H1432 0.931 . S
C1417 C1416 1.370 . S
C1417 C1421 1.408 . S
C1418 C1416 1.363 . S
C1418 C1419 1.370 . S
C1418 C1422 1.524 . S
C1419 C1411 1.503 . S
C1419 C1418 1.370 . S
C1419 C1420 1.403 . S
C1420 C1419 1.403 . S
C1420 C1421 1.404 . S
C1420 C1423 1.539 . S
C1421 C1417 1.408 . S
C1421 C1420 1.404 . S
C1421 H1433 0.930 . S
C1422 C1418 1.524 . S
C1422 H1434 0.956 . S
C1422 H1435 0.961 . S
C1422 H1436 0.961 . S
C1423 C1420 1.539 . S
C1423 H1437 0.958 . S
C1423 H1438 0.961 . S
C1423 H1439 0.960 . S
H1424 C1408 0.931 . S
H1425 C1413 0.929 . S
H1426 C1414 0.960 . S
H1427 C1414 0.962 . S
H1428 C1414 0.960 . S
H1429 C1415 0.961 . S
H1430 C1415 0.961 . S
H1431 C1415 0.961 . S
H1432 C1416 0.931 . S
H1433 C1421 0.930 . S
H1434 C1422 0.956 . S
H1435 C1422 0.961 . S
H1436 C1422 0.961 . S
H1437 C1423 0.958 . S
H1438 C1423 0.961 . S
H1439 C1423 0.960 . S
C1440 C1441 1.391 . S
C1440 C1442 1.394 . S
C1440 H1456 0.931 . S
C1441 C1440 1.391 . S
C1441 C1445 1.376 . S
C1442 C1440 1.394 . S
C1442 C1443 1.369 . S
C1442 C1446 1.531 . S
C1443 C1442 1.369 . S
C1443 C1444 1.410 . S
C1443 C1451 1.503 . S
C1444 C1443 1.410 . S
C1444 C1445 1.392 . S
C1444 C1447 1.511 . S
C1445 C1441 1.376 . S
C1445 C1444 1.392 . S
C1445 H1457 0.929 . S
C1446 C1442 1.531 . S
C1446 H1458 0.960 . S
C1446 H1459 0.962 . S
C1446 H1460 0.960 . S
C1447 C1444 1.511 . S
C1447 H1461 0.961 . S
C1447 H1462 0.961 . S
C1447 H1463 0.961 . S
C1448 C1449 1.370 . S
C1448 C1450 1.363 . S
C1448 H1464 0.931 . S
C1449 C1448 1.370 . S
C1449 C1453 1.408 . S
C1450 C1448 1.363 . S
C1450 C1451 1.370 1_655 S
C1450 C1454 1.535 . S
C1451 C1443 1.503 . S
C1451 C1450 1.370 1_455 S
C1451 C1452 1.403 1_455 S
C1452 C1451 1.403 1_655 S
C1452 C1453 1.404 . S
C1452 C1455 1.539 1_655 S
C1453 C1449 1.408 . S
C1453 C1452 1.404 . S
C1453 H1465 0.930 . S
C1454 C1450 1.535 . S
C1454 H1466 0.937 1_655 S
C1454 H1467 0.947 1_655 S
C1454 H1468 0.984 . S
C1455 C1452 1.539 1_455 S
C1455 H1469 0.958 1_554 S
C1455 H1470 0.961 1_554 S
C1455 H1471 0.960 . S
H1456 C1440 0.931 . S
H1457 C1445 0.929 . S
H1458 C1446 0.960 . S
H1459 C1446 0.962 . S
H1460 C1446 0.960 . S
H1461 C1447 0.961 . S
H1462 C1447 0.961 . S
H1463 C1447 0.961 . S
H1464 C1448 0.931 . S
H1465 C1453 0.930 . S
H1466 C1454 0.937 1_455 S
H1467 C1454 0.947 1_455 S
H1468 C1454 0.984 . S
H1469 C1455 0.958 1_556 S
H1470 C1455 0.961 1_556 S
H1471 C1455 0.960 . S
C1472 C1473 1.391 . S
C1472 C1474 1.394 . S
C1472 H1488 0.931 . S
C1473 C1472 1.391 . S
C1473 C1477 1.376 . S
C1474 C1472 1.394 . S
C1474 C1475 1.369 . S
C1474 C1478 1.531 . S
C1475 C1474 1.369 . S
C1475 C1476 1.410 . S
C1475 C1483 1.503 . S
C1476 C1475 1.410 . S
C1476 C1477 1.392 . S
C1476 C1479 1.511 . S
C1477 C1473 1.376 . S
C1477 C1476 1.392 . S
C1477 H1489 0.929 . S
C1478 C1474 1.531 . S
C1478 H1490 0.960 . S
C1478 H1491 0.962 . S
C1478 H1492 0.960 . S
C1479 C1476 1.511 . S
C1479 H1493 0.961 . S
C1479 H1494 0.961 . S
C1479 H1495 0.961 . S
C1480 C1481 1.370 . S
C1480 C1482 1.363 . S
C1480 H1496 0.931 . S
C1481 C1480 1.370 . S
C1481 C1485 1.408 . S
C1482 C1480 1.363 . S
C1482 C1483 1.370 . S
C1482 C1486 1.524 . S
C1483 C1475 1.503 . S
C1483 C1482 1.370 . S
C1483 C1484 1.403 . S
C1484 C1483 1.403 . S
C1484 C1485 1.404 . S
C1484 C1487 1.539 . S
C1485 C1481 1.408 . S
C1485 C1484 1.404 . S
C1485 H1497 0.930 . S
C1486 C1482 1.524 . S
C1486 H1498 0.956 . S
C1486 H1499 0.961 . S
C1486 H1500 0.961 . S
C1487 C1484 1.539 . S
C1487 H1501 0.958 . S
C1487 H1502 0.961 . S
C1487 H1503 0.960 . S
H1488 C1472 0.931 . S
H1489 C1477 0.929 . S
H1490 C1478 0.960 . S
H1491 C1478 0.962 . S
H1492 C1478 0.960 . S
H1493 C1479 0.961 . S
H1494 C1479 0.961 . S
H1495 C1479 0.961 . S
H1496 C1480 0.931 . S
H1497 C1485 0.930 . S
H1498 C1486 0.956 . S
H1499 C1486 0.961 . S
H1500 C1486 0.961 . S
H1501 C1487 0.958 . S
H1502 C1487 0.961 . S
H1503 C1487 0.960 . S
C1504 C1505 1.391 . S
C1504 C1506 1.394 . S
C1504 H1520 0.931 . S
C1505 C1504 1.391 . S
C1505 C1509 1.376 . S
C1506 C1504 1.394 . S
C1506 C1507 1.369 . S
C1506 C1510 1.531 . S
C1507 C1506 1.369 . S
C1507 C1508 1.410 . S
C1507 C1515 1.503 . S
C1508 C1507 1.410 . S
C1508 C1509 1.392 . S
C1508 C1511 1.511 . S
C1509 C1505 1.376 . S
C1509 C1508 1.392 . S
C1509 H1521 0.929 . S
C1510 C1506 1.531 . S
C1510 H1522 0.960 . S
C1510 H1523 0.962 . S
C1510 H1524 0.960 . S
C1511 C1508 1.511 . S
C1511 H1525 0.961 . S
C1511 H1526 0.961 . S
C1511 H1527 0.961 . S
C1512 C1513 1.370 . S
C1512 C1514 1.363 . S
C1512 H1528 0.931 . S
C1513 C1512 1.370 . S
C1513 C1517 1.408 . S
C1514 C1512 1.363 . S
C1514 C1515 1.370 . S
C1514 C1518 1.524 . S
C1515 C1507 1.503 . S
C1515 C1514 1.370 . S
C1515 C1516 1.403 . S
C1516 C1515 1.403 . S
C1516 C1517 1.404 . S
C1516 C1519 1.539 . S
C1517 C1513 1.408 . S
C1517 C1516 1.404 . S
C1517 H1529 0.930 . S
C1518 C1514 1.524 . S
C1518 H1530 0.956 . S
C1518 H1531 0.961 . S
C1518 H1532 0.961 . S
C1519 C1516 1.539 . S
C1519 H1533 0.958 . S
C1519 H1534 0.961 . S
C1519 H1535 0.960 . S
H1520 C1504 0.931 . S
H1521 C1509 0.929 . S
H1522 C1510 0.960 . S
H1523 C1510 0.962 . S
H1524 C1510 0.960 . S
H1525 C1511 0.961 . S
H1526 C1511 0.961 . S
H1527 C1511 0.961 . S
H1528 C1512 0.931 . S
H1529 C1517 0.930 . S
H1530 C1518 0.956 . S
H1531 C1518 0.961 . S
H1532 C1518 0.961 . S
H1533 C1519 0.958 . S
H1534 C1519 0.961 . S
H1535 C1519 0.960 . S
C1536 C1537 1.391 . S
C1536 C1538 1.394 . S
C1536 H1552 0.931 . S
C1537 C1536 1.391 . S
C1537 C1541 1.376 . S
C1538 C1536 1.394 . S
C1538 C1539 1.369 . S
C1538 C1542 1.531 . S
C1539 C1538 1.369 . S
C1539 C1540 1.410 . S
C1539 C1547 1.503 . S
C1540 C1539 1.410 . S
C1540 C1541 1.392 . S
C1540 C1543 1.511 . S
C1541 C1537 1.376 . S
C1541 C1540 1.392 . S
C1541 H1553 0.929 . S
C1542 C1538 1.531 . S
C1542 H1554 0.960 . S
C1542 H1555 0.962 . S
C1542 H1556 0.960 . S
C1543 C1540 1.511 . S
C1543 H1557 0.961 . S
C1543 H1558 0.961 . S
C1543 H1559 0.961 . S
C1544 C1545 1.370 . S
C1544 C1546 1.363 . S
C1544 H1560 0.931 . S
C1545 C1544 1.370 . S
C1545 C1549 1.408 . S
C1546 C1544 1.363 . S
C1546 C1547 1.370 . S
C1546 C1550 1.524 . S
C1547 C1539 1.503 . S
C1547 C1546 1.370 . S
C1547 C1548 1.403 . S
C1548 C1547 1.403 . S
C1548 C1549 1.404 . S
C1548 C1551 1.539 . S
C1549 C1545 1.408 . S
C1549 C1548 1.404 . S
C1549 H1561 0.930 . S
C1550 C1546 1.524 . S
C1550 H1562 0.956 . S
C1550 H1563 0.961 . S
C1550 H1564 0.961 . S
C1551 C1548 1.539 . S
C1551 H1565 0.958 . S
C1551 H1566 0.961 . S
C1551 H1567 0.960 . S
H1552 C1536 0.931 . S
H1553 C1541 0.929 . S
H1554 C1542 0.960 . S
H1555 C1542 0.962 . S
H1556 C1542 0.960 . S
H1557 C1543 0.961 . S
H1558 C1543 0.961 . S
H1559 C1543 0.961 . S
H1560 C1544 0.931 . S
H1561 C1549 0.930 . S
H1562 C1550 0.956 . S
H1563 C1550 0.961 . S
H1564 C1550 0.961 . S
H1565 C1551 0.958 . S
H1566 C1551 0.961 . S
H1567 C1551 0.960 . S
C1568 C1569 1.391 . S
C1568 C1570 1.394 . S
C1568 H1584 0.931 . S
C1569 C1568 1.391 . S
C1569 C1573 1.376 . S
C1570 C1568 1.394 . S
C1570 C1571 1.369 . S
C1570 C1574 1.531 . S
C1571 C1570 1.369 . S
C1571 C1572 1.410 . S
C1571 C1579 1.503 . S
C1572 C1571 1.410 . S
C1572 C1573 1.392 . S
C1572 C1575 1.511 . S
C1573 C1569 1.376 . S
C1573 C1572 1.392 . S
C1573 H1585 0.929 . S
C1574 C1570 1.531 . S
C1574 H1586 0.960 . S
C1574 H1587 0.962 . S
C1574 H1588 0.960 . S
C1575 C1572 1.511 . S
C1575 H1589 0.961 1_556 S
C1575 H1590 0.961 . S
C1575 H1591 0.961 . S
C1576 C1577 1.370 . S
C1576 C1578 1.363 . S
C1576 H1592 0.931 . S
C1577 C1576 1.370 . S
C1577 C1581 1.408 . S
C1578 C1576 1.363 . S
C1578 C1579 1.370 . S
C1578 C1582 1.524 . S
C1579 C1571 1.503 . S
C1579 C1578 1.370 . S
C1579 C1580 1.403 . S
C1580 C1579 1.403 . S
C1580 C1581 1.404 . S
C1580 C1583 1.539 . S
C1581 C1577 1.408 . S
C1581 C1580 1.404 . S
C1581 H1593 0.930 . S
C1582 C1578 1.524 . S
C1582 H1594 0.956 . S
C1582 H1595 0.961 1_556 S
C1582 H1596 0.961 1_556 S
C1583 C1580 1.539 . S
C1583 H1597 0.958 . S
C1583 H1598 0.961 . S
C1583 H1599 0.960 . S
H1584 C1568 0.931 . S
H1585 C1573 0.929 . S
H1586 C1574 0.960 . S
H1587 C1574 0.962 . S
H1588 C1574 0.960 . S
H1589 C1575 0.961 1_554 S
H1590 C1575 0.961 . S
H1591 C1575 0.961 . S
H1592 C1576 0.931 . S
H1593 C1581 0.930 . S
H1594 C1582 0.956 . S
H1595 C1582 0.961 1_554 S
H1596 C1582 0.961 1_554 S
H1597 C1583 0.958 . S
H1598 C1583 0.961 . S
H1599 C1583 0.960 . S
C1600 C1601 1.391 . S
C1600 C1602 1.394 . S
C1600 H1616 0.931 . S
C1601 C1600 1.391 . S
C1601 C1605 1.376 . S
C1602 C1600 1.394 . S
C1602 C1603 1.369 . S
C1602 C1606 1.531 . S
C1603 C1602 1.369 . S
C1603 C1604 1.410 . S
C1603 C1611 1.503 . S
C1604 C1603 1.410 . S
C1604 C1605 1.392 . S
C1604 C1607 1.511 . S
C1605 C1601 1.376 . S
C1605 C1604 1.392 . S
C1605 H1617 0.929 . S
C1606 C1602 1.531 . S
C1606 H1618 0.960 . S
C1606 H1619 0.962 . S
C1606 H1620 0.960 . S
C1607 C1604 1.511 . S
C1607 H1621 0.961 . S
C1607 H1622 0.961 . S
C1607 H1623 0.961 . S
C1608 C1609 1.370 . S
C1608 C1610 1.363 . S
C1608 H1624 0.931 . S
C1609 C1608 1.370 . S
C1609 C1613 1.408 . S
C1610 C1608 1.363 . S
C1610 C1611 1.370 1_455 S
C1610 C1614 1.524 1_455 S
C1611 C1603 1.503 . S
C1611 C1610 1.370 1_655 S
C1611 C1612 1.403 . S
C1612 C1611 1.403 . S
C1612 C1613 1.404 1_655 S
C1612 C1615 1.539 . S
C1613 C1609 1.408 . S
C1613 C1612 1.404 1_455 S
C1613 H1625 0.930 . S
C1614 C1610 1.524 1_655 S
C1614 H1626 0.956 . S
C1614 H1627 0.961 . S
C1614 H1628 0.961 1_655 S
C1615 C1612 1.539 . S
C1615 H1629 0.958 . S
C1615 H1630 0.961 . S
C1615 H1631 0.960 . S
H1616 C1600 0.931 . S
H1617 C1605 0.929 . S
H1618 C1606 0.960 . S
H1619 C1606 0.962 . S
H1620 C1606 0.960 . S
H1621 C1607 0.961 . S
H1622 C1607 0.961 . S
H1623 C1607 0.961 . S
H1624 C1608 0.931 . S
H1625 C1613 0.930 . S
H1626 C1614 0.956 . S
H1627 C1614 0.961 . S
H1628 C1614 0.961 1_455 S
H1629 C1615 0.958 . S
H1630 C1615 0.961 . S
H1631 C1615 0.960 . S
C481 C9 1.586 . S
C489 C448 1.672 . S
C513 C368 1.662 . S
C521 C48 1.659 . S
C545 C89 1.386 . S
C553 C329 1.390 . S
C577 C128 1.632 . S
C585 C408 1.635 . S
C609 C168 1.989 . S
C617 C409 1.898 . S
C641 C209 1.352 . S
C649 C449 1.328 . S
C673 C369 1.761 . S
C681 C248 1.825 . S
C705 C288 1.411 . S
C713 C328 1.410 . S
C737 C129 1.795 . S
C745 C169 1.793 . S
C769 C8 1.781 . S
C777 C208 1.787 . S
C801 C49 1.406 . S
C809 C249 1.446 . S
C833 C289 1.701 . S
C841 C88 1.745 . S
C865 C5 2.503 . S
C873 C339 2.600 . S
C897 C55 1.117 . S
C905 C418 1.090 . S
C929 C458 1.602 . S
C937 C85 1.659 . S
C961 C135 1.391 . S
C969 C378 1.330 . S
C993 C175 1.460 . S
C1001 C379 1.461 . S
C1025 C338 1.635 . S
C1033 C205 1.749 . S
C1057 C419 1.877 . S
C1065 C255 1.899 . S
C1089 C459 1.729 . S
C1097 C295 1.751 . S
C1121 C18 1.477 . S
C1129 C125 1.575 . S
C1153 C15 2.116 . S
C1161 C59 2.113 . S
C1185 C45 1.925 . S
C1193 C98 1.858 . S
C1217 C139 1.830 . S
C1225 C95 1.856 . S
C1249 C215 1.077 . S
C1257 C179 1.047 . S
C1281 C218 1.609 . S
C1289 C245 1.772 . S
C1313 C259 1.314 . S
C1321 C285 1.326 . S
C1345 C165 1.728 . S
C1353 C299 1.738 . S
C1377 C335 1.223 . S
C1385 C138 1.186 . S
C1409 C219 1.626 . S
C1417 C375 1.641 . S
C1441 C325 1.914 . S
C1449 C258 1.818 . S
C1473 C415 1.600 . S
C1481 C298 1.463 . S
C1505 C178 0.716 . S
C1513 C455 0.795 . S
C1537 C445 1.531 . S
C1545 C58 1.485 . S
C1569 C99 1.355 . S
C1577 C365 1.331 . S
C1601 C405 1.827 . S
C1609 C19 1.834 . S
