# Generated by pormake.
# Topology wlh, (5)-cn, num edge types: 1
# Building blocks:
#     Node 0, Type 0, BuildingBlock: BEQFEK_clean_sbu_0, # of connection points: 5
#     Node 1, Type 0, BuildingBlock: BEQFEK_clean_sbu_0, # of connection points: 5
#     Node 2, Type 0, BuildingBlock: BEQFEK_clean_sbu_0, # of connection points: 5
#     Node 3, Type 0, BuildingBlock: BEQFEK_clean_sbu_0, # of connection points: 5
#     Node 4, Type 0, BuildingBlock: BEQFEK_clean_sbu_0, # of connection points: 5
#     Node 5, Type 0, BuildingBlock: BEQFEK_clean_sbu_0, # of connection points: 5
#     Node 6, Type 0, BuildingBlock: BEQFEK_clean_sbu_0, # of connection points: 5
#     Node 7, Type 0, BuildingBlock: BEQFEK_clean_sbu_0, # of connection points: 5
#     Node 8, Type 0, BuildingBlock: BEQFEK_clean_sbu_0, # of connection points: 5
#     Node 9, Type 0, BuildingBlock: BEQFEK_clean_sbu_0, # of connection points: 5
#     Node 10, Type 0, BuildingBlock: BEQFEK_clean_sbu_0, # of connection points: 5
#     Node 11, Type 0, BuildingBlock: BEQFEK_clean_sbu_0, # of connection points: 5
#     Node 12, Type 0, BuildingBlock: BEQFEK_clean_sbu_0, # of connection points: 5
#     Node 13, Type 0, BuildingBlock: BEQFEK_clean_sbu_0, # of connection points: 5
#     Node 14, Type 0, BuildingBlock: BEQFEK_clean_sbu_0, # of connection points: 5
#     Node 15, Type 0, BuildingBlock: BEQFEK_clean_sbu_0, # of connection points: 5
#     Node 16, Type 0, BuildingBlock: BEQFEK_clean_sbu_0, # of connection points: 5
#     Node 17, Type 0, BuildingBlock: BEQFEK_clean_sbu_0, # of connection points: 5
#     Node 18, Type 0, BuildingBlock: BEQFEK_clean_sbu_0, # of connection points: 5
#     Node 19, Type 0, BuildingBlock: BEQFEK_clean_sbu_0, # of connection points: 5
#     Node 20, Type 0, BuildingBlock: BEQFEK_clean_sbu_0, # of connection points: 5
#     Node 21, Type 0, BuildingBlock: BEQFEK_clean_sbu_0, # of connection points: 5
#     Node 22, Type 0, BuildingBlock: BEQFEK_clean_sbu_0, # of connection points: 5
#     Node 23, Type 0, BuildingBlock: BEQFEK_clean_sbu_0, # of connection points: 5
#     Node 24, Type 0, BuildingBlock: BEQFEK_clean_sbu_0, # of connection points: 5
#     Node 25, Type 0, BuildingBlock: BEQFEK_clean_sbu_0, # of connection points: 5
#     Node 26, Type 0, BuildingBlock: BEQFEK_clean_sbu_0, # of connection points: 5
#     Node 27, Type 0, BuildingBlock: BEQFEK_clean_sbu_0, # of connection points: 5
#     Node 28, Type 0, BuildingBlock: BEQFEK_clean_sbu_0, # of connection points: 5
#     Node 29, Type 0, BuildingBlock: BEQFEK_clean_sbu_0, # of connection points: 5
#     Node 30, Type 0, BuildingBlock: BEQFEK_clean_sbu_0, # of connection points: 5
#     Node 31, Type 0, BuildingBlock: BEQFEK_clean_sbu_0, # of connection points: 5
#     Node 32, Type 0, BuildingBlock: BEQFEK_clean_sbu_0, # of connection points: 5
#     Node 33, Type 0, BuildingBlock: BEQFEK_clean_sbu_0, # of connection points: 5
#     Node 34, Type 0, BuildingBlock: BEQFEK_clean_sbu_0, # of connection points: 5
#     Node 35, Type 0, BuildingBlock: BEQFEK_clean_sbu_0, # of connection points: 5
#     Edge 36, Type (0, 0), BuildingBlock: CIFDUS_clean_linker_0, # of connection points: 2
#     Edge 37, Type (0, 0), BuildingBlock: CIFDUS_clean_linker_0, # of connection points: 2
#     Edge 38, Type (0, 0), BuildingBlock: CIFDUS_clean_linker_0, # of connection points: 2
#     Edge 39, Type (0, 0), BuildingBlock: CIFDUS_clean_linker_0, # of connection points: 2
#     Edge 40, Type (0, 0), BuildingBlock: CIFDUS_clean_linker_0, # of connection points: 2
#     Edge 41, Type (0, 0), BuildingBlock: CIFDUS_clean_linker_0, # of connection points: 2
#     Edge 42, Type (0, 0), BuildingBlock: CIFDUS_clean_linker_0, # of connection points: 2
#     Edge 43, Type (0, 0), BuildingBlock: CIFDUS_clean_linker_0, # of connection points: 2
#     Edge 44, Type (0, 0), BuildingBlock: CIFDUS_clean_linker_0, # of connection points: 2
#     Edge 45, Type (0, 0), BuildingBlock: CIFDUS_clean_linker_0, # of connection points: 2
#     Edge 46, Type (0, 0), BuildingBlock: CIFDUS_clean_linker_0, # of connection points: 2
#     Edge 47, Type (0, 0), BuildingBlock: CIFDUS_clean_linker_0, # of connection points: 2
#     Edge 48, Type (0, 0), BuildingBlock: CIFDUS_clean_linker_0, # of connection points: 2
#     Edge 49, Type (0, 0), BuildingBlock: CIFDUS_clean_linker_0, # of connection points: 2
#     Edge 50, Type (0, 0), BuildingBlock: CIFDUS_clean_linker_0, # of connection points: 2
#     Edge 51, Type (0, 0), BuildingBlock: CIFDUS_clean_linker_0, # of connection points: 2
#     Edge 52, Type (0, 0), BuildingBlock: CIFDUS_clean_linker_0, # of connection points: 2
#     Edge 53, Type (0, 0), BuildingBlock: CIFDUS_clean_linker_0, # of connection points: 2
#     Edge 54, Type (0, 0), BuildingBlock: CIFDUS_clean_linker_0, # of connection points: 2
#     Edge 55, Type (0, 0), BuildingBlock: CIFDUS_clean_linker_0, # of connection points: 2
#     Edge 56, Type (0, 0), BuildingBlock: CIFDUS_clean_linker_0, # of connection points: 2
#     Edge 57, Type (0, 0), BuildingBlock: CIFDUS_clean_linker_0, # of connection points: 2
#     Edge 58, Type (0, 0), BuildingBlock: CIFDUS_clean_linker_0, # of connection points: 2
#     Edge 59, Type (0, 0), BuildingBlock: CIFDUS_clean_linker_0, # of connection points: 2
#     Edge 60, Type (0, 0), BuildingBlock: CIFDUS_clean_linker_0, # of connection points: 2
#     Edge 61, Type (0, 0), BuildingBlock: CIFDUS_clean_linker_0, # of connection points: 2
#     Edge 62, Type (0, 0), BuildingBlock: CIFDUS_clean_linker_0, # of connection points: 2
#     Edge 63, Type (0, 0), BuildingBlock: CIFDUS_clean_linker_0, # of connection points: 2
#     Edge 64, Type (0, 0), BuildingBlock: CIFDUS_clean_linker_0, # of connection points: 2
#     Edge 65, Type (0, 0), BuildingBlock: CIFDUS_clean_linker_0, # of connection points: 2
#     Edge 66, Type (0, 0), BuildingBlock: CIFDUS_clean_linker_0, # of connection points: 2
#     Edge 67, Type (0, 0), BuildingBlock: CIFDUS_clean_linker_0, # of connection points: 2
#     Edge 68, Type (0, 0), BuildingBlock: CIFDUS_clean_linker_0, # of connection points: 2
#     Edge 69, Type (0, 0), BuildingBlock: CIFDUS_clean_linker_0, # of connection points: 2
#     Edge 70, Type (0, 0), BuildingBlock: CIFDUS_clean_linker_0, # of connection points: 2
#     Edge 71, Type (0, 0), BuildingBlock: CIFDUS_clean_linker_0, # of connection points: 2
#     Edge 72, Type (0, 0), BuildingBlock: CIFDUS_clean_linker_0, # of connection points: 2
#     Edge 73, Type (0, 0), BuildingBlock: CIFDUS_clean_linker_0, # of connection points: 2
#     Edge 74, Type (0, 0), BuildingBlock: CIFDUS_clean_linker_0, # of connection points: 2
#     Edge 75, Type (0, 0), BuildingBlock: CIFDUS_clean_linker_0, # of connection points: 2
#     Edge 76, Type (0, 0), BuildingBlock: CIFDUS_clean_linker_0, # of connection points: 2
#     Edge 77, Type (0, 0), BuildingBlock: CIFDUS_clean_linker_0, # of connection points: 2
#     Edge 78, Type (0, 0), BuildingBlock: CIFDUS_clean_linker_0, # of connection points: 2
#     Edge 79, Type (0, 0), BuildingBlock: CIFDUS_clean_linker_0, # of connection points: 2
#     Edge 80, Type (0, 0), BuildingBlock: CIFDUS_clean_linker_0, # of connection points: 2
#     Edge 81, Type (0, 0), BuildingBlock: CIFDUS_clean_linker_0, # of connection points: 2
#     Edge 82, Type (0, 0), BuildingBlock: CIFDUS_clean_linker_0, # of connection points: 2
#     Edge 83, Type (0, 0), BuildingBlock: CIFDUS_clean_linker_0, # of connection points: 2
#     Edge 84, Type (0, 0), BuildingBlock: CIFDUS_clean_linker_0, # of connection points: 2
#     Edge 85, Type (0, 0), BuildingBlock: CIFDUS_clean_linker_0, # of connection points: 2
#     Edge 86, Type (0, 0), BuildingBlock: CIFDUS_clean_linker_0, # of connection points: 2
#     Edge 87, Type (0, 0), BuildingBlock: CIFDUS_clean_linker_0, # of connection points: 2
#     Edge 88, Type (0, 0), BuildingBlock: CIFDUS_clean_linker_0, # of connection points: 2
#     Edge 89, Type (0, 0), BuildingBlock: CIFDUS_clean_linker_0, # of connection points: 2
#     Edge 90, Type (0, 0), BuildingBlock: CIFDUS_clean_linker_0, # of connection points: 2
#     Edge 91, Type (0, 0), BuildingBlock: CIFDUS_clean_linker_0, # of connection points: 2
#     Edge 92, Type (0, 0), BuildingBlock: CIFDUS_clean_linker_0, # of connection points: 2
#     Edge 93, Type (0, 0), BuildingBlock: CIFDUS_clean_linker_0, # of connection points: 2
#     Edge 94, Type (0, 0), BuildingBlock: CIFDUS_clean_linker_0, # of connection points: 2
#     Edge 95, Type (0, 0), BuildingBlock: CIFDUS_clean_linker_0, # of connection points: 2
#     Edge 96, Type (0, 0), BuildingBlock: CIFDUS_clean_linker_0, # of connection points: 2
#     Edge 97, Type (0, 0), BuildingBlock: CIFDUS_clean_linker_0, # of connection points: 2
#     Edge 98, Type (0, 0), BuildingBlock: CIFDUS_clean_linker_0, # of connection points: 2
#     Edge 99, Type (0, 0), BuildingBlock: CIFDUS_clean_linker_0, # of connection points: 2
#     Edge 100, Type (0, 0), BuildingBlock: CIFDUS_clean_linker_0, # of connection points: 2
#     Edge 101, Type (0, 0), BuildingBlock: CIFDUS_clean_linker_0, # of connection points: 2
#     Edge 102, Type (0, 0), BuildingBlock: CIFDUS_clean_linker_0, # of connection points: 2
#     Edge 103, Type (0, 0), BuildingBlock: CIFDUS_clean_linker_0, # of connection points: 2
#     Edge 104, Type (0, 0), BuildingBlock: CIFDUS_clean_linker_0, # of connection points: 2
#     Edge 105, Type (0, 0), BuildingBlock: CIFDUS_clean_linker_0, # of connection points: 2
#     Edge 106, Type (0, 0), BuildingBlock: CIFDUS_clean_linker_0, # of connection points: 2
#     Edge 107, Type (0, 0), BuildingBlock: CIFDUS_clean_linker_0, # of connection points: 2
#     Edge 108, Type (0, 0), BuildingBlock: CIFDUS_clean_linker_0, # of connection points: 2
#     Edge 109, Type (0, 0), BuildingBlock: CIFDUS_clean_linker_0, # of connection points: 2
#     Edge 110, Type (0, 0), BuildingBlock: CIFDUS_clean_linker_0, # of connection points: 2
#     Edge 111, Type (0, 0), BuildingBlock: CIFDUS_clean_linker_0, # of connection points: 2
#     Edge 112, Type (0, 0), BuildingBlock: CIFDUS_clean_linker_0, # of connection points: 2
#     Edge 113, Type (0, 0), BuildingBlock: CIFDUS_clean_linker_0, # of connection points: 2
#     Edge 114, Type (0, 0), BuildingBlock: CIFDUS_clean_linker_0, # of connection points: 2
#     Edge 115, Type (0, 0), BuildingBlock: CIFDUS_clean_linker_0, # of connection points: 2
#     Edge 116, Type (0, 0), BuildingBlock: CIFDUS_clean_linker_0, # of connection points: 2
#     Edge 117, Type (0, 0), BuildingBlock: CIFDUS_clean_linker_0, # of connection points: 2
#     Edge 118, Type (0, 0), BuildingBlock: CIFDUS_clean_linker_0, # of connection points: 2
#     Edge 119, Type (0, 0), BuildingBlock: CIFDUS_clean_linker_0, # of connection points: 2
#     Edge 120, Type (0, 0), BuildingBlock: CIFDUS_clean_linker_0, # of connection points: 2
#     Edge 121, Type (0, 0), BuildingBlock: CIFDUS_clean_linker_0, # of connection points: 2
#     Edge 122, Type (0, 0), BuildingBlock: CIFDUS_clean_linker_0, # of connection points: 2
#     Edge 123, Type (0, 0), BuildingBlock: CIFDUS_clean_linker_0, # of connection points: 2
#     Edge 124, Type (0, 0), BuildingBlock: CIFDUS_clean_linker_0, # of connection points: 2
#     Edge 125, Type (0, 0), BuildingBlock: CIFDUS_clean_linker_0, # of connection points: 2
# Relax obj value: 0.224
# Max RMSD: 0.168
# Mean RMSD: 0.168
data_MOF--net-wlh--node1-BEQFEK_clean_sbu_0--edge1-CIFDUS_clean_linker_0
_symmetry_space_group_name_H-M    P1
_symmetry_Int_Tables_number       1
_symmetry_cell_setting            triclinic
loop_
_symmetry_equiv_pos_as_xyz
'x, y, z'
_cell_length_a     39.387744
_cell_length_b     39.377139
_cell_length_c     117.88939
_cell_angle_alpha  90.003818
_cell_angle_beta   90.006593
_cell_angle_gamma 119.97566
loop_
_atom_site_label
_atom_site_type_symbol
_atom_site_fract_x
_atom_site_fract_y
_atom_site_fract_z
_atom_type_partial_charge
Co0 Co 0.10488 0.21804 0.21019 0.0
Co1 Co 0.06712 0.26721 0.20152 0.0
C2 C 0.02429 0.18395 0.19832 0.0
O3 O 0.05167 0.18347 0.20393 0.0
O4 O 0.02642 0.21604 0.1953 0.0
C5 C 0.12955 0.16933 0.201 0.0
O6 O 0.11317 0.17617 0.19224 0.0
C7 C 0.0403 0.31702 0.18963 0.0
C8 C 0.06028 0.36544 0.20201 0.0
C9 C 0.04165 0.35245 0.19167 0.0
N10 N 0.05777 0.30965 0.19836 0.0
N11 N 0.06964 0.33883 0.20569 0.0
C12 C 0.02061 0.28968 0.1799 0.0
H13 H 0.99199 0.28763 0.17808 0.0
H14 H 0.01625 0.26019 0.18173 0.0
H15 H 0.03903 0.30126 0.1722 0.0
C16 C 0.17075 0.2758 0.19648 0.0
N17 N 0.13467 0.26177 0.20087 0.0
N18 N 0.11826 0.28064 0.19643 0.0
C19 C 0.14304 0.30652 0.18871 0.0
C20 C 0.17712 0.30407 0.18844 0.0
C21 C 0.19936 0.26362 0.20031 0.0
H22 H 0.19355 0.25351 0.20925 0.0
H23 H 0.1965 0.23929 0.19491 0.0
H24 H 0.22987 0.28839 0.19953 0.0
O25 O 0.09593 0.23353 0.22524 0.0
O26 O 0.0614 0.25971 0.21844 0.0
H27 H 0.13252 0.35411 0.18606 0.0
H28 H 0.15325 0.34302 0.17389 0.0
C29 C 0.13255 0.33021 0.18109 0.0
H30 H 0.10262 0.31126 0.17772 0.0
H31 H 0.08409 0.3405 0.21327 0.0
O32 O 0.13003 0.18503 0.21049 0.0
C33 C 0.07357 0.24788 0.22676 0.0
Co34 Co 0.79366 0.8865 0.20662 0.0
Co35 Co 0.73525 0.79968 0.19911 0.0
C36 C 0.81848 0.84018 0.19192 0.0
O37 O 0.82372 0.87133 0.19671 0.0
O38 O 0.78536 0.80869 0.19216 0.0
C39 C 0.84519 0.96549 0.20057 0.0
O40 O 0.83593 0.95044 0.19032 0.0
C41 C 0.69075 0.72558 0.18649 0.0
C42 C 0.63292 0.69939 0.1949 0.0
C43 C 0.65339 0.69302 0.18642 0.0
N44 N 0.69236 0.75009 0.19467 0.0
N45 N 0.65773 0.73418 0.19969 0.0
C46 C 0.72376 0.73445 0.17853 0.0
H47 H 0.73796 0.76559 0.17585 0.0
H48 H 0.71341 0.71535 0.17092 0.0
H49 H 0.74599 0.72996 0.18301 0.0
C50 C 0.73186 0.89881 0.19651 0.0
N51 N 0.74608 0.87546 0.19969 0.0
N52 N 0.72367 0.84012 0.1955 0.0
C53 C 0.69547 0.84046 0.18907 0.0
C54 C 0.69957 0.87755 0.1896 0.0
C55 C 0.75059 0.94154 0.19925 0.0
H56 H 0.76655 0.94796 0.20742 0.0
H57 H 0.77139 0.95879 0.1924 0.0
H58 H 0.72831 0.95083 0.1998 0.0
O59 O 0.78601 0.85682 0.22082 0.0
O60 O 0.74197 0.79601 0.21569 0.0
H61 H 0.64311 0.78489 0.188 0.0
H62 H 0.65163 0.81547 0.17581 0.0
C63 C 0.66605 0.80636 0.18224 0.0
H64 H 0.68048 0.79178 0.17799 0.0
H65 H 0.65101 0.74722 0.20636 0.0
O66 O 0.82908 0.94342 0.20911 0.0
C67 C 0.76426 0.82055 0.2231 0.0
Co68 Co 0.10967 0.91784 0.19987 0.0
Co69 Co 0.19814 0.9438 0.19473 0.0
C70 C 0.16733 0.99601 0.18915 0.0
O71 O 0.13435 0.9703 0.19304 0.0
O72 O 0.19658 0.99059 0.1889 0.0
C73 C 0.04144 0.90461 0.18924 0.0
O74 O 0.06756 0.92246 0.18122 0.0
C75 C 0.27216 0.96465 0.18295 0.0
C76 C 0.29379 0.93218 0.19312 0.0
C77 C 0.30154 0.95493 0.18347 0.0
N78 N 0.24757 0.94743 0.19171 0.0
N79 N 0.26097 0.92851 0.19783 0.0
C80 C 0.26778 0.99058 0.17449 0.0
H81 H 0.26093 0.01118 0.17896 0.0
H82 H 0.24301 0.97243 0.16871 0.0
H83 H 0.29491 0.0079 0.16947 0.0
C84 C 0.09729 0.84758 0.18769 0.0
N85 N 0.12118 0.88378 0.19178 0.0
N86 N 0.15742 0.89545 0.1887 0.0
C87 C 0.15753 0.86726 0.18219 0.0
C88 C 0.11936 0.83588 0.18136 0.0
C89 C 0.05463 0.82364 0.19056 0.0
H90 H 0.04909 0.83148 0.19913 0.0
H91 H 0.03735 0.82971 0.18429 0.0
H92 H 0.04463 0.79183 0.19035 0.0
O93 O 0.13095 0.92752 0.21548 0.0
O94 O 0.19327 0.946 0.21155 0.0
H95 H 0.2115 0.86671 0.18252 0.0
H96 H 0.18514 0.85002 0.16928 0.0
C97 C 0.19307 0.87138 0.17631 0.0
H98 H 0.21038 0.90128 0.17277 0.0
H99 H 0.24702 0.91207 0.20505 0.0
O100 O 0.05237 0.89831 0.1988 0.0
C101 C 0.1663 0.94008 0.21862 0.0
Co102 Co 0.2012 0.09071 0.297 0.0
Co103 Co 0.26253 0.06209 0.29896 0.0
C104 C 0.18335 0.01684 0.3093 0.0
O105 O 0.17523 0.04293 0.30625 0.0
O106 O 0.21617 0.01949 0.30697 0.0
C107 C 0.14877 0.11323 0.30635 0.0
O108 O 0.15268 0.09626 0.31546 0.0
C109 C 0.31465 0.03784 0.3094 0.0
C110 C 0.36636 0.06548 0.29812 0.0
C111 C 0.35222 0.04395 0.308 0.0
N112 N 0.30687 0.05511 0.30075 0.0
N113 N 0.33769 0.07113 0.29395 0.0
C114 C 0.28803 0.01933 0.31934 0.0
H115 H 0.27347 0.03633 0.32159 0.0
H116 H 0.30425 0.0176 0.32681 0.0
H117 H 0.26493 0.98925 0.31697 0.0
C118 C 0.26541 0.16169 0.30734 0.0
N119 N 0.2511 0.12577 0.30278 0.0
N120 N 0.27601 0.11324 0.30446 0.0
C121 C 0.3066 0.14061 0.31054 0.0
C122 C 0.30091 0.17221 0.31251 0.0
C123 C 0.24328 0.18345 0.30789 0.0
H124 H 0.2278 0.18024 0.29977 0.0
H125 H 0.22148 0.17112 0.31485 0.0
H126 H 0.26277 0.21507 0.30961 0.0
O127 O 0.20326 0.07369 0.28143 0.0
O128 O 0.24722 0.05416 0.28256 0.0
H129 H 0.35585 0.13299 0.30756 0.0
H130 H 0.3607 0.1617 0.31997 0.0
C131 C 0.33983 0.13605 0.31485 0.0
H132 H 0.32817 0.10916 0.32009 0.0
H133 H 0.33972 0.08724 0.2867 0.0
O134 O 0.16707 0.11424 0.29735 0.0
C135 C 0.22219 0.05878 0.2769 0.0
Co136 Co 0.90376 0.11002 0.2957 0.0
Co137 Co 0.92966 0.19311 0.30601 0.0
C138 C 0.97585 0.15666 0.31087 0.0
O139 O 0.95288 0.12902 0.30432 0.0
O140 O 0.9706 0.18523 0.31322 0.0
C141 C 0.88192 0.03294 0.30179 0.0
O142 O 0.8876 0.04879 0.31192 0.0
C143 C 0.94909 0.26317 0.31998 0.0
C144 C 0.91751 0.28757 0.31058 0.0
C145 C 0.94018 0.29317 0.32013 0.0
N146 N 0.93179 0.2405 0.31085 0.0
N147 N 0.91315 0.25539 0.30527 0.0
C148 C 0.97524 0.25716 0.32794 0.0
H149 H 0.99589 0.25153 0.32302 0.0
H150 H 0.95721 0.23105 0.3333 0.0
H151 H 0.99241 0.28308 0.33344 0.0
C152 C 0.8306 0.09038 0.30765 0.0
N153 N 0.86698 0.11645 0.30414 0.0
N154 N 0.87859 0.15021 0.30922 0.0
C155 C 0.85037 0.14621 0.3165 0.0
C156 C 0.81904 0.10804 0.31577 0.0
C157 C 0.80687 0.04955 0.30312 0.0
H158 H 0.81614 0.0479 0.29435 0.0
H159 H 0.81106 0.029 0.30857 0.0
H160 H 0.77521 0.04022 0.30318 0.0
O161 O 0.91797 0.14029 0.28153 0.0
O162 O 0.94269 0.19945 0.28938 0.0
H163 H 0.85108 0.19945 0.32049 0.0
H164 H 0.83412 0.16441 0.33196 0.0
C165 C 0.85537 0.17695 0.32487 0.0
H166 H 0.8855 0.19146 0.32837 0.0
H167 H 0.89705 0.24327 0.29786 0.0
O168 O 0.88581 0.05382 0.29311 0.0
C169 C 0.93617 0.17751 0.28074 0.0
Co170 Co 0.90111 0.78628 0.29474 0.0
Co171 Co 0.81204 0.73511 0.30109 0.0
C172 C 0.85206 0.81827 0.30578 0.0
O173 O 0.8819 0.82018 0.30098 0.0
O174 O 0.82113 0.78555 0.30761 0.0
C175 C 0.97436 0.83548 0.30429 0.0
O176 O 0.95134 0.83091 0.31292 0.0
C177 C 0.73178 0.69188 0.31054 0.0
C178 C 0.70992 0.63338 0.30283 0.0
C179 C 0.69953 0.6543 0.31008 0.0
N180 N 0.75998 0.69311 0.30383 0.0
N181 N 0.7466 0.6581 0.2992 0.0
C182 C 0.737 0.72528 0.31781 0.0
H183 H 0.7661 0.73891 0.322 0.0
H184 H 0.71381 0.71557 0.32438 0.0
H185 H 0.73615 0.74785 0.31238 0.0
C186 C 0.90515 0.72444 0.30759 0.0
N187 N 0.88479 0.74047 0.30325 0.0
N188 N 0.84832 0.72069 0.3068 0.0
C189 C 0.84483 0.69242 0.31399 0.0
C190 C 0.88065 0.69367 0.31459 0.0
C191 C 0.94791 0.73969 0.3056 0.0
H192 H 0.95633 0.75252 0.29699 0.0
H193 H 0.96512 0.76266 0.31198 0.0
H194 H 0.95531 0.71612 0.30653 0.0
O195 O 0.87986 0.77463 0.27936 0.0
O196 O 0.81691 0.7444 0.28424 0.0
H197 H 0.81494 0.65304 0.32794 0.0
H198 H 0.79273 0.68104 0.32293 0.0
C199 C 0.80829 0.66533 0.32035 0.0
H200 H 0.78871 0.64065 0.31472 0.0
H201 H 0.7628 0.65095 0.29369 0.0
O202 O 0.95907 0.81831 0.29497 0.0
C203 C 0.84381 0.75959 0.27672 0.0
Co204 Co 0.90476 0.7922 0.79513 0.0
Co205 Co 0.94063 0.73899 0.80103 0.0
C206 C 0.98665 0.82293 0.80493 0.0
O207 O 0.95878 0.8257 0.80049 0.0
O208 O 0.98387 0.78981 0.80681 0.0
C209 C 0.88668 0.84663 0.80414 0.0
O210 O 0.90851 0.84517 0.81233 0.0
C211 C 0.96907 0.69236 0.81308 0.0
C212 C 0.94548 0.6395 0.80227 0.0
C213 C 0.96572 0.65559 0.81226 0.0
N214 N 0.95079 0.69726 0.80413 0.0
N215 N 0.93713 0.66574 0.79765 0.0
C216 C 0.99095 0.72331 0.82184 0.0
H217 H 0.00938 0.75191 0.81762 0.0
H218 H 0.96983 0.72623 0.8274 0.0
H219 H 0.01024 0.71657 0.82707 0.0
C220 C 0.84039 0.73436 0.80932 0.0
N221 N 0.87549 0.74789 0.80428 0.0
N222 N 0.89068 0.72615 0.80727 0.0
C223 C 0.86583 0.6984 0.8146 0.0
C224 C 0.83314 0.7027 0.81611 0.0
C225 C 0.8159 0.75359 0.80835 0.0
H226 H 0.81706 0.76407 0.79956 0.0
H227 H 0.82759 0.77897 0.81422 0.0
H228 H 0.78491 0.73358 0.81065 0.0
O229 O 0.91125 0.77803 0.77971 0.0
O230 O 0.94318 0.74654 0.78411 0.0
H231 H 0.84781 0.64753 0.82533 0.0
H232 H 0.89962 0.68306 0.82541 0.0
C233 C 0.87303 0.66826 0.82004 0.0
H234 H 0.87815 0.65147 0.81338 0.0
H235 H 0.92129 0.66177 0.79019 0.0
O236 O 0.88064 0.82571 0.79532 0.0
C237 C 0.93108 0.76195 0.77677 0.0
Co238 Co 0.21653 0.11238 0.78856 0.0
Co239 Co 0.26416 0.19314 0.80105 0.0
C240 C 0.18103 0.15458 0.8021 0.0
O241 O 0.18203 0.12988 0.79536 0.0
O242 O 0.21209 0.18165 0.80667 0.0
C243 C 0.16413 0.037 0.79512 0.0
O244 O 0.1728 0.05638 0.80475 0.0
C245 C 0.31115 0.26179 0.81634 0.0
C246 C 0.36513 0.29363 0.80611 0.0
C247 C 0.3483 0.29488 0.81628 0.0
N248 N 0.3065 0.24165 0.80667 0.0
N249 N 0.33894 0.26097 0.80063 0.0
C250 C 0.28002 0.25096 0.82515 0.0
H251 H 0.25063 0.231 0.82161 0.0
H252 H 0.28532 0.23593 0.8323 0.0
H253 H 0.28093 0.2777 0.82855 0.0
C254 C 0.26743 0.09393 0.80215 0.0
N255 N 0.25678 0.11955 0.79846 0.0
N256 N 0.27435 0.15169 0.80457 0.0
C257 C 0.29572 0.14685 0.8127 0.0
C258 C 0.29168 0.10979 0.81149 0.0
C259 C 0.25533 0.05518 0.79668 0.0
H260 H 0.24782 0.05563 0.78764 0.0
H261 H 0.22939 0.03168 0.80111 0.0
H262 H 0.2793 0.04819 0.79733 0.0
O263 O 0.23694 0.14388 0.77479 0.0
O264 O 0.26107 0.20043 0.78416 0.0
H265 H 0.34169 0.20195 0.81868 0.0
H266 H 0.3254 0.16284 0.82898 0.0
C267 C 0.31582 0.17542 0.82212 0.0
H268 H 0.29551 0.18443 0.82569 0.0
H269 H 0.34324 0.25174 0.79273 0.0
O270 O 0.18079 0.05549 0.78606 0.0
C271 C 0.25163 0.18097 0.77489 0.0
Co272 Co 0.88548 0.08826 0.79182 0.0
Co273 Co 0.8035 0.06002 0.80303 0.0
C274 C 0.84556 0.02031 0.80884 0.0
O275 O 0.87156 0.04275 0.80179 0.0
O276 O 0.81542 0.02315 0.81092 0.0
C277 C 0.96316 0.11489 0.79751 0.0
O278 O 0.94717 0.10892 0.80763 0.0
C279 C 0.72997 0.03126 0.81594 0.0
C280 C 0.70757 0.06856 0.80905 0.0
C281 C 0.69896 0.03851 0.81665 0.0
N282 N 0.75548 0.05562 0.80816 0.0
N283 N 0.74195 0.07787 0.8041 0.0
C284 C 0.73696 0.0039 0.82307 0.0
H285 H 0.76754 0.01941 0.82626 0.0
H286 H 0.71679 0.99272 0.83043 0.0
H287 H 0.73308 0.97891 0.81777 0.0
C288 C 0.90313 0.16232 0.80254 0.0
N289 N 0.87732 0.12542 0.79939 0.0
N290 N 0.84481 0.11277 0.80523 0.0
C291 C 0.84971 0.14072 0.81275 0.0
C292 C 0.88708 0.17307 0.81135 0.0
C293 C 0.94248 0.18702 0.79716 0.0
H294 H 0.94231 0.17725 0.78832 0.0
H295 H 0.96521 0.18456 0.80203 0.0
H296 H 0.9504 0.21833 0.79719 0.0
O297 O 0.8531 0.06755 0.77814 0.0
O298 O 0.79522 0.04168 0.78679 0.0
H299 H 0.79991 0.1426 0.81906 0.0
H300 H 0.8366 0.15227 0.82966 0.0
C301 C 0.82138 0.13423 0.8221 0.0
H302 H 0.80518 0.10283 0.82454 0.0
H303 H 0.75625 0.09947 0.79795 0.0
O304 O 0.94184 0.10918 0.7888 0.0
C305 C 0.8159 0.04647 0.77795 0.0
Co306 Co 0.80218 0.90903 0.70286 0.0
Co307 Co 0.74381 0.9345 0.69314 0.0
C308 C 0.82481 0.98771 0.69067 0.0
O309 O 0.82869 0.96301 0.69667 0.0
O310 O 0.79155 0.98012 0.68678 0.0
C311 C 0.86175 0.9015 0.69329 0.0
O312 O 0.85227 0.91816 0.6852 0.0
C313 C 0.6849 0.95068 0.68196 0.0
C314 C 0.63555 0.91993 0.69394 0.0
C315 C 0.64663 0.94197 0.6841 0.0
N316 N 0.69574 0.93419 0.69017 0.0
N317 N 0.66593 0.91571 0.69723 0.0
C318 C 0.71132 0.97616 0.6727 0.0
H319 H 0.74245 0.98767 0.67495 0.0
H320 H 0.70492 0.95862 0.66481 0.0
H321 H 0.70607 0.00089 0.67099 0.0
C322 C 0.75312 0.83952 0.6892 0.0
N323 N 0.76093 0.8743 0.69348 0.0
N324 N 0.7387 0.88591 0.68849 0.0
C325 C 0.71667 0.85921 0.68054 0.0
C326 C 0.72531 0.8289 0.68067 0.0
C327 C 0.77143 0.81654 0.69345 0.0
H328 H 0.77956 0.82329 0.70252 0.0
H329 H 0.79837 0.82457 0.68852 0.0
H330 H 0.75101 0.7846 0.69243 0.0
O331 O 0.78431 0.91587 0.71788 0.0
O332 O 0.75303 0.94369 0.70991 0.0
H333 H 0.66185 0.8547 0.67639 0.0
H334 H 0.68648 0.84775 0.66445 0.0
C335 C 0.69079 0.8647 0.67236 0.0
H336 H 0.70381 0.8962 0.67026 0.0
H337 H 0.66655 0.90056 0.70442 0.0
O338 O 0.84336 0.89347 0.70269 0.0
C339 C 0.76692 0.93578 0.71866 0.0
Co340 Co 0.10078 0.89356 0.70598 0.0
Co341 Co 0.07373 0.80728 0.69814 0.0
C342 C 0.02708 0.84475 0.69228 0.0
O343 O 0.05312 0.87595 0.697 0.0
O344 O 0.03006 0.81397 0.6919 0.0
C345 C 0.12445 0.97084 0.69931 0.0
O346 O 0.11818 0.95439 0.68925 0.0
C347 C 0.045 0.73191 0.68611 0.0
C348 C 0.08266 0.7108 0.69355 0.0
C349 C 0.05294 0.70132 0.68577 0.0
N350 N 0.06901 0.75836 0.69375 0.0
N351 N 0.09127 0.74542 0.6982 0.0
C352 C 0.0167 0.73714 0.6789 0.0
H353 H 0.03088 0.76775 0.67573 0.0
H354 H 0.00642 0.71666 0.67159 0.0
H355 H 0.99113 0.73189 0.68414 0.0
C356 C 0.17436 0.90817 0.69494 0.0
N357 N 0.13713 0.88405 0.69828 0.0
N358 N 0.12464 0.84898 0.69394 0.0
C359 C 0.15312 0.85028 0.68725 0.0
C360 C 0.18563 0.8877 0.68778 0.0
C361 C 0.19798 0.95066 0.698 0.0
H362 H 0.18838 0.95618 0.70629 0.0
H363 H 0.19404 0.96835 0.69136 0.0
H364 H 0.22964 0.96028 0.69843 0.0
O365 O 0.08243 0.86448 0.72041 0.0
O366 O 0.06556 0.804 0.71486 0.0
H367 H 0.1546 0.79702 0.68593 0.0
H368 H 0.17082 0.8266 0.67336 0.0
C369 C 0.1492 0.81656 0.68038 0.0
H370 H 0.11914 0.79959 0.67685 0.0
H371 H 0.11261 0.76046 0.70438 0.0
O372 O 0.12045 0.95031 0.70808 0.0
C373 C 0.06869 0.82819 0.72253 0.0
Co374 Co 0.11052 0.22058 0.70796 0.0
Co375 Co 0.19454 0.26886 0.69747 0.0
C376 C 0.15377 0.18547 0.69491 0.0
O377 O 0.12754 0.1856 0.70117 0.0
O378 O 0.18259 0.21724 0.69126 0.0
C379 C 0.03473 0.171 0.70038 0.0
O380 O 0.05451 0.18033 0.69082 0.0
C381 C 0.26648 0.31458 0.68361 0.0
C382 C 0.29573 0.36968 0.69348 0.0
C383 C 0.29908 0.35212 0.6837 0.0
N384 N 0.24456 0.31064 0.69281 0.0
N385 N 0.26241 0.34359 0.69869 0.0
C386 C 0.25718 0.28232 0.67531 0.0
H387 H 0.24346 0.25368 0.67971 0.0
H388 H 0.23612 0.28153 0.66892 0.0
H389 H 0.28399 0.28671 0.67092 0.0
C390 C 0.09914 0.27861 0.69509 0.0
N391 N 0.12153 0.26366 0.6986 0.0
N392 N 0.15567 0.28206 0.69346 0.0
C393 C 0.15548 0.30834 0.68614 0.0
C394 C 0.11969 0.30709 0.68698 0.0
C395 C 0.05795 0.26431 0.69894 0.0
H396 H 0.05303 0.2506 0.70744 0.0
H397 H 0.03732 0.24249 0.69277 0.0
H398 H 0.05156 0.28867 0.69934 0.0
O399 O 0.13929 0.23749 0.72243 0.0
O400 O 0.19811 0.26344 0.71431 0.0
H401 H 0.21392 0.35549 0.68375 0.0
H402 H 0.18098 0.35058 0.67247 0.0
C403 C 0.18894 0.33413 0.67852 0.0
H404 H 0.1985 0.31606 0.67378 0.0
H405 H 0.25145 0.34848 0.70619 0.0
O406 O 0.05303 0.18613 0.70959 0.0
C407 C 0.17634 0.25222 0.72312 0.0
Co408 Co 0.74958 0.52993 0.53442 0.0
Co409 Co 0.72993 0.5985 0.53266 0.0
C410 C 0.6741 0.51863 0.52446 0.0
O411 O 0.69824 0.50776 0.52728 0.0
O412 O 0.68149 0.55367 0.52599 0.0
C413 C 0.75514 0.47014 0.52305 0.0
O414 O 0.73415 0.4768 0.51568 0.0
C415 C 0.71182 0.65464 0.52216 0.0
C416 C 0.73901 0.70519 0.53387 0.0
C417 C 0.71855 0.69237 0.52376 0.0
N418 N 0.72751 0.64544 0.53091 0.0
N419 N 0.74346 0.67564 0.53794 0.0
C420 C 0.69389 0.6289 0.51201 0.0
H421 H 0.7077 0.61067 0.51055 0.0
H422 H 0.69724 0.64659 0.50433 0.0
H423 H 0.66217 0.60905 0.51361 0.0
C424 C 0.82076 0.58811 0.52256 0.0
N425 N 0.78586 0.57727 0.5274 0.0
N426 N 0.7774 0.60543 0.52615 0.0
C427 C 0.80685 0.6352 0.52038 0.0
C428 C 0.83525 0.62518 0.51793 0.0
C429 C 0.83811 0.56193 0.52164 0.0
H430 H 0.83694 0.54856 0.53001 0.0
H431 H 0.82056 0.53811 0.51553 0.0
H432 H 0.86875 0.57759 0.51857 0.0
O433 O 0.73958 0.53705 0.55059 0.0
O434 O 0.72716 0.58632 0.54906 0.0
H435 H 0.80562 0.68663 0.52549 0.0
H436 H 0.8364 0.69405 0.51339 0.0
C437 C 0.80847 0.67305 0.51758 0.0
H438 H 0.78366 0.66723 0.51192 0.0
H439 H 0.75818 0.67641 0.54538 0.0
O440 O 0.76607 0.48992 0.53221 0.0
C441 C 0.7301 0.56081 0.555 0.0
Co442 Co 0.45462 0.23254 0.5422 0.0
Co443 Co 0.3999 0.14622 0.53369 0.0
C444 C 0.48337 0.18291 0.52972 0.0
O445 O 0.48663 0.21236 0.53515 0.0
O446 O 0.44999 0.15339 0.52742 0.0
C447 C 0.50508 0.30684 0.53384 0.0
O448 O 0.49871 0.285 0.52478 0.0
C449 C 0.35032 0.07103 0.52157 0.0
C450 C 0.29366 0.05087 0.53025 0.0
C451 C 0.31132 0.0412 0.52168 0.0
N452 N 0.35532 0.09699 0.52974 0.0
N453 N 0.32138 0.08458 0.53492 0.0
C454 C 0.38144 0.0767 0.51325 0.0
H455 H 0.40206 0.10837 0.51188 0.0
H456 H 0.36838 0.06257 0.50501 0.0
H457 H 0.39824 0.06332 0.51672 0.0
C458 C 0.39985 0.2458 0.52867 0.0
N459 N 0.41059 0.22144 0.53335 0.0
N460 N 0.39051 0.1867 0.52865 0.0
C461 C 0.36762 0.1884 0.52039 0.0
C462 C 0.3731 0.22617 0.52008 0.0
C463 C 0.41395 0.28695 0.53256 0.0
H464 H 0.42327 0.29052 0.54157 0.0
H465 H 0.43901 0.3078 0.52728 0.0
H466 H 0.39032 0.29431 0.5316 0.0
O467 O 0.44089 0.20692 0.55699 0.0
O468 O 0.40626 0.14554 0.55067 0.0
H469 H 0.31699 0.13376 0.51628 0.0
H470 H 0.33742 0.16666 0.50437 0.0
C471 C 0.34464 0.15587 0.51218 0.0
H472 H 0.36158 0.14135 0.50987 0.0
H473 H 0.31696 0.09966 0.54151 0.0
O474 O 0.48894 0.29023 0.54315 0.0
C475 C 0.42261 0.17006 0.55875 0.0
Co476 Co 0.77732 0.24057 0.53666 0.0
Co477 Co 0.86413 0.2709 0.52864 0.0
C478 C 0.82263 0.3136 0.52254 0.0
O479 O 0.79205 0.28708 0.5274 0.0
O480 O 0.85433 0.31232 0.52228 0.0
C481 C 0.698 0.21258 0.53086 0.0
O482 O 0.71279 0.21918 0.52058 0.0
C483 C 0.93854 0.3023 0.51589 0.0
C484 C 0.96313 0.26738 0.52313 0.0
C485 C 0.9703 0.2962 0.51523 0.0
N486 N 0.91376 0.2782 0.52385 0.0
N487 N 0.92876 0.25757 0.52818 0.0
C488 C 0.93028 0.32832 0.50855 0.0
H489 H 0.89917 0.31232 0.50581 0.0
H490 H 0.94943 0.33833 0.50095 0.0
H491 H 0.93504 0.35422 0.51355 0.0
C492 C 0.76522 0.1683 0.52557 0.0
N493 N 0.78857 0.20555 0.52897 0.0
N494 N 0.82377 0.21903 0.52465 0.0
C495 C 0.82346 0.19101 0.51796 0.0
C496 C 0.78632 0.15786 0.51835 0.0
C497 C 0.72396 0.14267 0.52955 0.0
H498 H 0.72011 0.15169 0.53815 0.0
H499 H 0.70355 0.14536 0.52364 0.0
H500 H 0.71641 0.11148 0.52974 0.0
O501 O 0.80703 0.26044 0.55092 0.0
O502 O 0.86806 0.27968 0.54539 0.0
H503 H 0.87723 0.19119 0.51543 0.0
H504 H 0.84631 0.17731 0.50306 0.0
C505 C 0.85682 0.19721 0.5105 0.0
H506 H 0.87294 0.22795 0.50747 0.0
H507 H 0.91524 0.2364 0.53449 0.0
O508 O 0.72037 0.21814 0.53931 0.0
C509 C 0.84349 0.27572 0.55305 0.0
Co510 Co 0.87707 0.43562 0.62894 0.0
Co511 Co 0.93517 0.40344 0.63245 0.0
C512 C 0.85454 0.35973 0.6413 0.0
O513 O 0.84808 0.38617 0.63749 0.0
O514 O 0.88763 0.36175 0.64014 0.0
C515 C 0.82909 0.46068 0.63922 0.0
O516 O 0.83528 0.44373 0.64795 0.0
C517 C 0.98524 0.37615 0.64291 0.0
C518 C 0.03445 0.39807 0.63073 0.0
C519 C 0.0209 0.37806 0.64088 0.0
N520 N 0.97836 0.39468 0.63441 0.0
N521 N 0.00782 0.40761 0.62715 0.0
C522 C 0.95664 0.35483 0.65225 0.0
H523 H 0.92942 0.33062 0.64852 0.0
H524 H 0.94866 0.37494 0.65654 0.0
H525 H 0.96817 0.34219 0.65853 0.0
C526 C 0.94117 0.50496 0.63969 0.0
N527 N 0.92621 0.46862 0.63543 0.0
N528 N 0.94941 0.45467 0.63794 0.0
C529 C 0.97937 0.48143 0.64434 0.0
C530 C 0.97487 0.51414 0.64574 0.0
C531 C 0.92435 0.53113 0.6376 0.0
H532 H 0.91027 0.52506 0.62912 0.0
H533 H 0.90202 0.52573 0.64415 0.0
H534 H 0.94753 0.56245 0.63804 0.0
O535 O 0.88152 0.42067 0.61335 0.0
O536 O 0.92148 0.39667 0.61589 0.0
H537 H 0.02975 0.47461 0.64321 0.0
H538 H 0.02648 0.49641 0.65638 0.0
C539 C 0.00945 0.47418 0.64981 0.0
H540 H 0.99483 0.4448 0.6538 0.0
H541 H 0.00982 0.42313 0.61977 0.0
O542 O 0.84449 0.46099 0.6297 0.0
C543 C 0.8996 0.40382 0.60951 0.0
Co544 Co 0.57701 0.43681 0.6329 0.0
Co545 Co 0.60686 0.52738 0.63489 0.0
C546 C 0.65136 0.49337 0.64532 0.0
O547 O 0.62546 0.45953 0.64194 0.0
O548 O 0.64884 0.52381 0.64327 0.0
C549 C 0.55554 0.36341 0.6432 0.0
O550 O 0.57556 0.38611 0.65172 0.0
C551 C 0.6317 0.60596 0.6441 0.0
C552 C 0.60327 0.62742 0.63218 0.0
C553 C 0.62553 0.63711 0.64198 0.0
N554 N 0.61376 0.57893 0.63593 0.0
N555 N 0.59725 0.59218 0.62876 0.0
C556 C 0.6512 0.60026 0.65423 0.0
H557 H 0.63495 0.56915 0.65696 0.0
H558 H 0.6529 0.61942 0.66137 0.0
H559 H 0.68134 0.60748 0.65186 0.0
C560 C 0.50639 0.43172 0.64302 0.0
N561 N 0.54257 0.45277 0.63857 0.0
N562 N 0.5556 0.49032 0.64022 0.0
C563 C 0.5283 0.49423 0.64609 0.0
C564 C 0.49621 0.45725 0.648 0.0
C565 C 0.48407 0.38786 0.64364 0.0
H566 H 0.48671 0.37528 0.6355 0.0
H567 H 0.49652 0.37823 0.65053 0.0
H568 H 0.45262 0.37625 0.6455 0.0
O569 O 0.59372 0.4546 0.61712 0.0
O570 O 0.61517 0.51842 0.61874 0.0
H571 H 0.50816 0.52831 0.65542 0.0
H572 H 0.56068 0.54797 0.65527 0.0
C573 C 0.53338 0.53245 0.65021 0.0
H574 H 0.53602 0.55099 0.64282 0.0
H575 H 0.5807 0.57653 0.62173 0.0
O576 O 0.55253 0.3789 0.63405 0.0
C577 C 0.60989 0.48896 0.61286 0.0
Co578 Co 0.56444 0.13053 0.63102 0.0
Co579 Co 0.47451 0.07139 0.63534 0.0
C580 C 0.51487 0.14959 0.64631 0.0
O581 O 0.54697 0.1567 0.64175 0.0
O582 O 0.48322 0.11736 0.64465 0.0
C583 C 0.6411 0.18005 0.63942 0.0
O584 O 0.62147 0.17435 0.6489 0.0
C585 C 0.39763 0.02022 0.64625 0.0
C586 C 0.3688 0.97361 0.63335 0.0
C587 C 0.3631 0.98551 0.64389 0.0
N588 N 0.42261 0.02803 0.63755 0.0
N589 N 0.40515 4e-05 0.62989 0.0
C590 C 0.4059 0.04749 0.65604 0.0
H591 H 0.41376 0.07691 0.65277 0.0
H592 H 0.43146 0.05045 0.66086 0.0
H593 H 0.38039 0.03755 0.66177 0.0
C594 C 0.57076 0.06275 0.63842 0.0
N595 N 0.54916 0.07944 0.63582 0.0
N596 N 0.51226 0.05537 0.63845 0.0
C597 C 0.50954 0.02286 0.6432 0.0
C598 C 0.5465 0.02638 0.64322 0.0
C599 C 0.61447 0.08303 0.63735 0.0
H600 H 0.62376 0.09942 0.62924 0.0
H601 H 0.62786 0.10406 0.64446 0.0
H602 H 0.62555 0.06215 0.63769 0.0
O603 O 0.54071 0.13087 0.6163 0.0
O604 O 0.47742 0.0891 0.61928 0.0
H605 H 0.45162 0.97469 0.64088 0.0
H606 H 0.47801 0.96804 0.65237 0.0
C607 C 0.47256 0.98968 0.64792 0.0
H608 H 0.45897 0.00132 0.65385 0.0
H609 H 0.41803 0.99913 0.62224 0.0
O610 O 0.62253 0.16346 0.63037 0.0
C611 C 0.50518 0.11349 0.61294 0.0
Co612 Co 0.577 0.12615 0.13084 0.0
Co613 Co 0.60663 0.06594 0.13488 0.0
C614 C 0.65154 0.14803 0.14332 0.0
O615 O 0.62512 0.15487 0.13976 0.0
O616 O 0.64926 0.11489 0.14192 0.0
C617 C 0.55415 0.17898 0.13934 0.0
O618 O 0.57235 0.17651 0.14837 0.0
C619 C 0.62914 0.01289 0.14641 0.0
C620 C 0.61618 0.96922 0.13288 0.0
C621 C 0.62983 0.97872 0.1439 0.0
N622 N 0.61526 0.02275 0.1373 0.0
N623 N 0.60755 0.99645 0.12927 0.0
C624 C 0.64356 0.03692 0.15701 0.0
H625 H 0.6493 0.06707 0.15558 0.0
H626 H 0.621 0.02344 0.16374 0.0
H627 H 0.67064 0.0378 0.16008 0.0
C628 C 0.50647 0.06323 0.14196 0.0
N629 N 0.54267 0.07728 0.1376 0.0
N630 N 0.55546 0.05295 0.13997 0.0
C631 C 0.52782 0.02285 0.14611 0.0
C632 C 0.49596 0.02843 0.14759 0.0
C633 C 0.48432 0.08501 0.14178 0.0
H634 H 0.48733 0.09874 0.13336 0.0
H635 H 0.49653 0.10822 0.14836 0.0
H636 H 0.45278 0.06576 0.1436 0.0
O637 O 0.59429 0.12103 0.11545 0.0
O638 O 0.61257 0.07659 0.11832 0.0
H639 H 0.50413 0.96664 0.1545 0.0
H640 H 0.55515 0.00107 0.15728 0.0
C641 C 0.53196 0.9897 0.1507 0.0
H642 H 0.54074 0.97658 0.1438 0.0
H643 H 0.59652 0.99718 0.12128 0.0
O644 O 0.55251 0.15967 0.13049 0.0
C645 C 0.60828 0.10002 0.11182 0.0
Co646 Co 0.87204 0.43774 0.12908 0.0
Co647 Co 0.92918 0.5259 0.13575 0.0
C648 C 0.84598 0.48607 0.1426 0.0
O649 O 0.84087 0.45472 0.13798 0.0
O650 O 0.87918 0.51742 0.14254 0.0
C651 C 0.82397 0.3626 0.13751 0.0
O652 O 0.83078 0.3837 0.14675 0.0
C653 C 0.97291 0.60394 0.14648 0.0
C654 C 0.03153 0.62697 0.13877 0.0
C655 C 0.01042 0.63628 0.14627 0.0
N656 N 0.97185 0.57673 0.13937 0.0
N657 N 0.00695 0.59078 0.13476 0.0
C658 C 0.93921 0.59793 0.15374 0.0
H659 H 0.92545 0.56838 0.15766 0.0
H660 H 0.94865 0.62036 0.16053 0.0
H661 H 0.91688 0.5994 0.14835 0.0
C662 C 0.93501 0.42875 0.13971 0.0
N663 N 0.91993 0.45113 0.13629 0.0
N664 N 0.94174 0.48691 0.14023 0.0
C665 C 0.97033 0.48784 0.14678 0.0
C666 C 0.96719 0.45109 0.14655 0.0
C667 C 0.91746 0.38599 0.13713 0.0
H668 H 0.90266 0.37905 0.12876 0.0
H669 H 0.89586 0.36867 0.14381 0.0
H670 H 0.94012 0.37716 0.13705 0.0
O671 O 0.87935 0.46369 0.11421 0.0
O672 O 0.92118 0.5256 0.11905 0.0
H673 H 0.0237 0.54258 0.14756 0.0
H674 H 0.01239 0.51447 0.16039 0.0
C675 C 0.99956 0.52293 0.15332 0.0
H676 H 0.98553 0.53922 0.1567 0.0
H677 H 0.01415 0.57552 0.1289 0.0
O678 O 0.83916 0.37987 0.12819 0.0
C679 C 0.9001 0.49992 0.11169 0.0
Co680 Co 0.55551 0.42261 0.129 0.0
Co681 Co 0.46714 0.3923 0.13556 0.0
C682 C 0.5063 0.34872 0.14269 0.0
O683 O 0.53762 0.37456 0.13796 0.0
O684 O 0.47492 0.35055 0.14253 0.0
C685 C 0.63099 0.44756 0.13732 0.0
O686 O 0.61019 0.433 0.14659 0.0
C687 C 0.39124 0.36309 0.14726 0.0
C688 C 0.36765 0.39675 0.13863 0.0
C689 C 0.35956 0.3694 0.14709 0.0
N690 N 0.41681 0.38557 0.13922 0.0
N691 N 0.40243 0.40547 0.13406 0.0
C692 C 0.39894 0.33894 0.15556 0.0
H693 H 0.39278 0.31112 0.15142 0.0
H694 H 0.43023 0.35486 0.15811 0.0
H695 H 0.38036 0.33216 0.16323 0.0
C696 C 0.56542 0.4938 0.14011 0.0
N697 N 0.54248 0.45698 0.13633 0.0
N698 N 0.50665 0.44339 0.14015 0.0
C699 C 0.50604 0.47074 0.14692 0.0
C700 C 0.54336 0.50369 0.14712 0.0
C701 C 0.60734 0.51951 0.1367 0.0
H702 H 0.61219 0.51192 0.12802 0.0
H703 H 0.62659 0.51515 0.14267 0.0
H704 H 0.61553 0.55088 0.13694 0.0
O705 O 0.52972 0.40499 0.11407 0.0
O706 O 0.46772 0.38489 0.11879 0.0
H707 H 0.45158 0.46968 0.14875 0.0
H708 H 0.48067 0.48314 0.16152 0.0
C709 C 0.47151 0.46377 0.15396 0.0
H710 H 0.45528 0.43284 0.15682 0.0
H711 H 0.41672 0.42555 0.12753 0.0
O712 O 0.61352 0.44683 0.12815 0.0
C713 C 0.49358 0.38977 0.11145 0.0
Co714 Co 0.46467 0.24413 0.0326 0.0
Co715 Co 0.4038 0.2737 0.0307 0.0
C716 C 0.48306 0.32078 0.02134 0.0
O717 O 0.49079 0.29473 0.02466 0.0
O718 O 0.44957 0.31742 0.02292 0.0
C719 C 0.51193 0.22462 0.01993 0.0
O720 O 0.50159 0.24171 0.0122 0.0
C721 C 0.35083 0.29891 0.0213 0.0
C722 C 0.30368 0.27708 0.03415 0.0
C723 C 0.31532 0.29659 0.02387 0.0
N724 N 0.35947 0.28109 0.02962 0.0
N725 N 0.33122 0.26817 0.03728 0.0
C726 C 0.37783 0.32009 0.01162 0.0
H727 H 0.40484 0.34555 0.01501 0.0
H728 H 0.38664 0.30051 0.00739 0.0
H729 H 0.3646 0.33104 0.00536 0.0
C730 C 0.40048 0.17432 0.02228 0.0
N731 N 0.41516 0.21063 0.02651 0.0
N732 N 0.39052 0.22334 0.02467 0.0
C733 C 0.35961 0.19563 0.01875 0.0
C734 C 0.36519 0.16373 0.01696 0.0
C735 C 0.41885 0.14929 0.02393 0.0
H736 H 0.43494 0.15651 0.03209 0.0
H737 H 0.43976 0.1547 0.01693 0.0
H738 H 0.39627 0.1177 0.02389 0.0
O739 O 0.46165 0.25675 0.0486 0.0
O740 O 0.4199 0.27913 0.04708 0.0
H741 H 0.30827 0.19991 0.02146 0.0
H742 H 0.30875 0.17794 0.00802 0.0
C743 C 0.32697 0.20088 0.01429 0.0
H744 H 0.33928 0.22997 0.01019 0.0
H745 H 0.3307 0.25317 0.04463 0.0
O746 O 0.49916 0.22148 0.03002 0.0
C747 C 0.44308 0.27234 0.05299 0.0
Co748 Co 0.74792 0.22721 0.03282 0.0
Co749 Co 0.7236 0.13781 0.03113 0.0
C750 C 0.67191 0.16516 0.0221 0.0
O751 O 0.69699 0.19959 0.02522 0.0
O752 O 0.67739 0.13629 0.02368 0.0
C753 C 0.7571 0.29421 0.02145 0.0
O754 O 0.73653 0.26745 0.01381 0.0
C755 C 0.70302 0.06151 0.02149 0.0
C756 C 0.73093 0.03954 0.03342 0.0
C757 C 0.70961 0.03057 0.02344 0.0
N758 N 0.71964 0.08763 0.02992 0.0
N759 N 0.73598 0.0742 0.03709 0.0
C760 C 0.68451 0.06806 0.01126 0.0
H761 H 0.69902 0.09981 0.00926 0.0
H762 H 0.6864 0.0519 0.0038 0.0
H763 H 0.65317 0.05753 0.01309 0.0
C764 C 0.81828 0.23672 0.02137 0.0
N765 N 0.78313 0.21402 0.02625 0.0
N766 N 0.77257 0.17687 0.02487 0.0
C767 C 0.8007 0.17485 0.01885 0.0
C768 C 0.83055 0.21268 0.01648 0.0
C769 C 0.8377 0.28044 0.0205 0.0
H770 H 0.83579 0.29287 0.02875 0.0
H771 H 0.8222 0.28807 0.01402 0.0
H772 H 0.86885 0.29398 0.01795 0.0
O773 O 0.73688 0.21103 0.04895 0.0
O774 O 0.71857 0.1478 0.04742 0.0
H775 H 0.79658 0.12013 0.02303 0.0
H776 H 0.82566 0.14311 0.01061 0.0
C777 C 0.79908 0.13753 0.01537 0.0
H778 H 0.77284 0.12011 0.01002 0.0
H779 H 0.7515 0.0892 0.04433 0.0
O780 O 0.76653 0.28411 0.03066 0.0
C781 C 0.72366 0.1771 0.05335 0.0
Co782 Co 0.76969 0.54235 0.03796 0.0
Co783 Co 0.86052 0.59809 0.0342 0.0
C784 C 0.82017 0.51696 0.02534 0.0
O785 O 0.78795 0.51215 0.02921 0.0
O786 O 0.85197 0.54946 0.02643 0.0
C787 C 0.69562 0.4944 0.02819 0.0
O788 O 0.71801 0.49945 0.01936 0.0
C789 C 0.93742 0.64929 0.02315 0.0
C790 C 0.9705 0.68866 0.03735 0.0
C791 C 0.97378 0.68084 0.02607 0.0
N792 N 0.91372 0.63927 0.03227 0.0
N793 N 0.93374 0.66304 0.0407 0.0
C794 C 0.92628 0.6275 0.01212 0.0
H795 H 0.89915 0.59882 0.01299 0.0
H796 H 0.92095 0.64477 0.00567 0.0
H797 H 0.95051 0.62324 0.00902 0.0
C798 C 0.76696 0.60873 0.02743 0.0
N799 N 0.78726 0.59225 0.03155 0.0
N800 N 0.82478 0.61505 0.02935 0.0
C801 C 0.82933 0.64662 0.02352 0.0
C802 C 0.79285 0.6436 0.02207 0.0
C803 C 0.72311 0.58909 0.02757 0.0
H804 H 0.71164 0.57366 0.03574 0.0
H805 H 0.71115 0.56757 0.02054 0.0
H806 H 0.71239 0.60998 0.02642 0.0
O807 O 0.7899 0.54546 0.05349 0.0
O808 O 0.85391 0.5836 0.0506 0.0
H809 H 0.88984 0.6891 0.02606 0.0
H810 H 0.86503 0.70394 0.01604 0.0
C811 C 0.86768 0.67881 0.01919 0.0
H812 H 0.87781 0.66737 0.01217 0.0
H813 H 0.92236 0.66154 0.04879 0.0
O814 O 0.71157 0.51062 0.03755 0.0
C815 C 0.82514 0.56223 0.0571 0.0
Co816 Co 0.42659 0.87141 0.8745 0.0
Co817 Co 0.39503 0.92575 0.86546 0.0
C818 C 0.35122 0.84262 0.86048 0.0
O819 O 0.37719 0.8398 0.86615 0.0
O820 O 0.35331 0.87563 0.85882 0.0
C821 C 0.45255 0.81931 0.8678 0.0
O822 O 0.44553 0.82865 0.85772 0.0
C823 C 0.37279 0.97735 0.85288 0.0
C824 C 0.40708 0.03247 0.8625 0.0
C825 C 0.38266 0.01655 0.85322 0.0
N826 N 0.39079 0.97061 0.86156 0.0
N827 N 0.41085 0.0036 0.86733 0.0
C828 C 0.34996 0.94789 0.84388 0.0
H829 H 0.3605 0.92665 0.84296 0.0
H830 H 0.35242 0.96249 0.83562 0.0
H831 H 0.31863 0.9315 0.84638 0.0
C832 C 0.49762 0.92926 0.86247 0.0
N833 N 0.4606 0.91569 0.86602 0.0
N834 N 0.4466 0.93658 0.86142 0.0
C835 C 0.47408 0.96348 0.85445 0.0
C836 C 0.50736 0.95974 0.8549 0.0
C837 C 0.52373 0.91439 0.86662 0.0
H838 H 0.51496 0.90206 0.87528 0.0
H839 H 0.52131 0.89104 0.86085 0.0
H840 H 0.55479 0.93832 0.8667 0.0
O841 O 0.41277 0.88572 0.88913 0.0
O842 O 0.38534 0.91878 0.88212 0.0
H843 H 0.47135 0.01562 0.8516 0.0
H844 H 0.48794 0.99992 0.83949 0.0
C845 C 0.46728 0.98971 0.84675 0.0
H846 H 0.43689 0.97384 0.84345 0.0
H847 H 0.42818 0.00667 0.87438 0.0
O848 O 0.44786 0.83556 0.87654 0.0
C849 C 0.39363 0.90364 0.89045 0.0
Co850 Co 0.13353 0.55047 0.8697 0.0
Co851 Co 0.0743 0.46276 0.86312 0.0
C852 C 0.1566 0.49204 0.86 0.0
O853 O 0.16157 0.52327 0.86469 0.0
O854 O 0.12258 0.46399 0.85751 0.0
C855 C 0.19469 0.61751 0.86002 0.0
O856 O 0.18964 0.59067 0.85254 0.0
C857 C 0.02025 0.3879 0.8518 0.0
C858 C 0.96635 0.36834 0.86192 0.0
C859 C 0.98114 0.35877 0.85257 0.0
N860 N 0.02811 0.41356 0.8603 0.0
N861 N 0.99588 0.40144 0.86638 0.0
C862 C 0.04864 0.39343 0.84257 0.0
H863 H 0.07025 0.42502 0.84146 0.0
H864 H 0.03311 0.38103 0.83444 0.0
H865 H 0.06473 0.37806 0.84496 0.0
C866 C 0.0812 0.564 0.85498 0.0
N867 N 0.09124 0.53975 0.86011 0.0
N868 N 0.06758 0.50356 0.85676 0.0
C869 C 0.04213 0.50381 0.84912 0.0
C870 C 0.0499 0.54209 0.84778 0.0
C871 C 0.10321 0.60766 0.85633 0.0
H872 H 0.11303 0.61552 0.86524 0.0
H873 H 0.12939 0.62023 0.85075 0.0
H874 H 0.08525 0.62095 0.8539 0.0
O875 O 0.11612 0.53049 0.88521 0.0
O876 O 0.08156 0.46786 0.87996 0.0
H877 H 0.99004 0.44775 0.84971 0.0
H878 H 0.99408 0.4755 0.83716 0.0
C879 C 0.01075 0.46812 0.8433 0.0
H880 H 0.02413 0.45298 0.8388 0.0
H881 H 0.99371 0.41652 0.87336 0.0
O882 O 0.17304 0.60751 0.86882 0.0
C883 C 0.09708 0.49405 0.88766 0.0
Co884 Co 0.44819 0.56075 0.87646 0.0
Co885 Co 0.53364 0.59838 0.86666 0.0
C886 C 0.49139 0.63989 0.86388 0.0
O887 O 0.46473 0.61288 0.86988 0.0
O888 O 0.52104 0.63784 0.8605 0.0
C889 C 0.37197 0.53468 0.86903 0.0
O890 O 0.39178 0.54795 0.85954 0.0
C891 C 0.60611 0.62455 0.85288 0.0
C892 C 0.6377 0.60363 0.86374 0.0
C893 C 0.6398 0.62148 0.85344 0.0
N894 N 0.58479 0.60841 0.86232 0.0
N895 N 0.6041 0.59633 0.86879 0.0
C896 C 0.59526 0.6441 0.84383 0.0
H897 H 0.57827 0.6569 0.84749 0.0
H898 H 0.57681 0.62218 0.83736 0.0
H899 H 0.62184 0.6676 0.83962 0.0
C900 C 0.43825 0.49334 0.86273 0.0
N901 N 0.46053 0.52981 0.86694 0.0
N902 N 0.49556 0.54605 0.86232 0.0
C903 C 0.49626 0.52065 0.85475 0.0
C904 C 0.45989 0.48651 0.85469 0.0
C905 C 0.39599 0.46683 0.86568 0.0
H906 H 0.38964 0.47366 0.87426 0.0
H907 H 0.37733 0.47059 0.85933 0.0
H908 H 0.38817 0.43567 0.86554 0.0
O909 O 0.47608 0.57216 0.89109 0.0
O910 O 0.53564 0.60649 0.88351 0.0
H911 H 0.55661 0.53707 0.85311 0.0
H912 H 0.52551 0.50323 0.84241 0.0
C913 C 0.53093 0.529 0.84758 0.0
H914 H 0.53791 0.55407 0.84191 0.0
H915 H 0.59389 0.58232 0.87659 0.0
O916 O 0.39046 0.53655 0.87809 0.0
C917 C 0.51293 0.59499 0.89212 0.0
Co918 Co 0.54044 0.76716 0.95901 0.0
Co919 Co 0.592 0.73725 0.97088 0.0
C920 C 0.50919 0.68916 0.97223 0.0
O921 O 0.50826 0.71441 0.96569 0.0
O922 O 0.54114 0.69454 0.97655 0.0
C923 C 0.48468 0.78773 0.96517 0.0
O924 O 0.49335 0.77897 0.97512 0.0
C925 C 0.64174 0.71675 0.98524 0.0
C926 C 0.69849 0.7505 0.97637 0.0
C927 C 0.68093 0.72659 0.98566 0.0
N928 N 0.63667 0.73469 0.97621 0.0
N929 N 0.67071 0.75463 0.97094 0.0
C930 C 0.60936 0.6894 0.99295 0.0
H931 H 0.58154 0.6733 0.98817 0.0
H932 H 0.6053 0.70652 -0.00025 0.0
H933 H 0.61629 0.66803 0.99693 0.0
C934 C 0.58934 0.83663 0.97296 0.0
N935 N 0.57997 0.80097 0.96901 0.0
N936 N 0.59905 0.78734 0.9748 0.0
C937 C 0.62002 0.81334 0.98302 0.0
C938 C 0.61438 0.84547 0.98216 0.0
C939 C 0.57578 0.86245 0.96771 0.0
H940 H 0.56861 0.85495 0.95862 0.0
H941 H 0.54919 0.85838 0.97214 0.0
H942 H 0.59877 0.89374 0.96852 0.0
O943 O 0.56193 0.75817 0.94507 0.0
O944 O 0.58917 0.72785 0.95399 0.0
H945 H 0.67056 0.81204 0.98895 0.0
H946 H 0.64552 0.82348 -0.00017 0.0
C947 C 0.64141 0.80541 0.99218 0.0
H948 H 0.62484 0.77403 0.99456 0.0
H949 H 0.67507 0.77149 0.96369 0.0
O950 O 0.50255 0.78579 0.9564 0.0
C951 C 0.57852 0.73747 0.94488 0.0
Co952 Co 0.22367 0.77603 0.95886 0.0
Co953 Co 0.25735 0.85963 0.96934 0.0
C954 C 0.30362 0.82283 0.97115 0.0
O955 O 0.27699 0.79592 0.9651 0.0
O956 O 0.29981 0.85089 0.97509 0.0
C957 C 0.20111 0.69979 0.96573 0.0
O958 O 0.21005 0.71768 0.9756 0.0
C959 C 0.2895 0.93787 0.98017 0.0
C960 C 0.24589 0.95411 0.97455 0.0
C961 C 0.27975 0.9672 0.98087 0.0
N962 N 0.26254 0.90875 0.9737 0.0
N963 N 0.23674 0.91879 0.97033 0.0
C964 C 0.32242 0.93632 0.98601 0.0
H965 H 0.31164 0.90669 0.98963 0.0
H966 H 0.33526 0.95848 0.99287 0.0
H967 H 0.34548 0.94173 0.97969 0.0
C968 C 0.15475 0.76153 0.97251 0.0
N969 N 0.1915 0.78498 0.96871 0.0
N970 N 0.20681 0.81894 0.97394 0.0
C971 C 0.18083 0.81746 0.98168 0.0
C972 C 0.14688 0.78118 0.98092 0.0
C973 C 0.12831 0.72042 0.96853 0.0
H974 H 0.13666 0.71623 0.95989 0.0
H975 H 0.13064 0.69977 0.97446 0.0
H976 H 0.09732 0.71338 0.96849 0.0
O977 O 0.2319 0.80378 0.94444 0.0
O978 O 0.26497 0.86268 0.95246 0.0
H979 H 0.17944 0.86971 0.98549 0.0
H980 H 0.17094 0.83867 0.99754 0.0
C981 C 0.18833 0.85008 0.98964 0.0
H982 H 0.21995 0.86731 0.99178 0.0
H983 H 0.21261 0.90129 0.9652 0.0
O984 O 0.20336 0.71924 0.95686 0.0
C985 C 0.25365 0.84081 0.94368 0.0
Co986 Co 0.21974 0.45404 0.95851 0.0
Co987 Co 0.13559 0.40388 0.96871 0.0
C988 C 0.17477 0.48716 0.9715 0.0
O989 O 0.20161 0.48802 0.96531 0.0
O990 O 0.14622 0.45495 0.975 0.0
C991 C 0.29608 0.50562 0.96552 0.0
O992 O 0.27776 0.49679 0.97532 0.0
C993 C 0.06276 0.35813 0.98212 0.0
C994 C 0.03635 0.30138 0.97307 0.0
C995 C 0.03106 0.32005 0.98228 0.0
N996 N 0.08602 0.36135 0.97334 0.0
N997 N 0.06987 0.32741 0.96794 0.0
C998 C 0.06993 0.39158 0.9897 0.0
H999 H 0.09251 0.39607 0.99608 0.0
H1000 H 0.04277 0.38613 0.99408 0.0
H1001 H 0.08107 0.4188 0.98465 0.0
C1002 C 0.23258 0.39696 0.97137 0.0
N1003 N 0.20962 0.41119 0.96782 0.0
N1004 N 0.17531 0.39194 0.97283 0.0
C1005 C 0.17597 0.36588 0.98015 0.0
C1006 C 0.21222 0.36807 0.97939 0.0
C1007 C 0.274 0.41218 0.9676 0.0
H1008 H 0.27869 0.4255 0.95905 0.0
H1009 H 0.29415 0.43461 0.97373 0.0
H1010 H 0.28131 0.38842 0.96737 0.0
O1011 O 0.19146 0.43712 0.94407 0.0
O1012 O 0.132 0.40952 0.95185 0.0
H1013 H 0.11902 0.31619 0.98248 0.0
H1014 H 0.15163 0.32535 0.99424 0.0
C1015 C 0.14257 0.33948 0.9877 0.0
H1016 H 0.13053 0.35647 0.99186 0.0
H1017 H 0.08211 0.32188 0.96082 0.0
O1018 O 0.27672 0.48926 0.95656 0.0
C1019 C 0.15441 0.42144 0.94319 0.0
Co1020 Co 0.24434 0.46383 0.45791 0.0
Co1021 Co 0.26906 0.40135 0.46395 0.0
C1022 C 0.31875 0.48422 0.47068 0.0
O1023 O 0.29355 0.49172 0.46645 0.0
O1024 O 0.31418 0.4498 0.47049 0.0
C1025 C 0.2209 0.51596 0.46618 0.0
O1026 O 0.2293 0.50531 0.47587 0.0
C1027 C 0.29023 0.3487 0.47599 0.0
C1028 C 0.25411 0.29304 0.46677 0.0
C1029 C 0.27965 0.30935 0.47581 0.0
N1030 N 0.27168 0.35529 0.46743 0.0
N1031 N 0.25049 0.322 0.46189 0.0
C1032 C 0.31398 0.37853 0.48482 0.0
H1033 H 0.30192 0.39826 0.48634 0.0
H1034 H 0.31437 0.36434 0.49291 0.0
H1035 H 0.34451 0.39656 0.48171 0.0
C1036 C 0.17128 0.40546 0.46906 0.0
N1037 N 0.20784 0.41755 0.46531 0.0
N1038 N 0.21938 0.3934 0.46894 0.0
C1039 C 0.19097 0.366 0.4756 0.0
C1040 C 0.15944 0.3727 0.47588 0.0
C1041 C 0.14722 0.42351 0.46561 0.0
H1042 H 0.1564 0.43727 0.45712 0.0
H1043 H 0.15128 0.44631 0.47185 0.0
H1044 H 0.11561 0.40106 0.46539 0.0
O1045 O 0.25998 0.45421 0.44293 0.0
O1046 O 0.27607 0.4089 0.44714 0.0
H1047 H 0.18922 0.31104 0.47692 0.0
H1048 H 0.17532 0.3259 0.48976 0.0
C1049 C 0.19553 0.33643 0.4824 0.0
H1050 H 0.22598 0.34958 0.48557 0.0
H1051 H 0.23249 0.31876 0.455 0.0
O1052 O 0.22453 0.50103 0.457 0.0
C1053 C 0.27294 0.4316 0.44004 0.0
Co1054 Co 0.54782 0.77311 0.45658 0.0
Co1055 Co 0.59644 0.85668 0.46751 0.0
C1056 C 0.51347 0.81726 0.46965 0.0
O1057 O 0.51322 0.791 0.46328 0.0
O1058 O 0.54524 0.84553 0.47349 0.0
C1059 C 0.49531 0.69779 0.46381 0.0
O1060 O 0.50064 0.71864 0.47303 0.0
C1061 C 0.6382 0.93173 0.48007 0.0
C1062 C 0.69874 0.95472 0.47385 0.0
C1063 C 0.67616 0.96323 0.48103 0.0
N1064 N 0.6384 0.90605 0.47258 0.0
N1065 N 0.67468 0.92 0.46892 0.0
C1066 C 0.60291 0.92442 0.48678 0.0
H1067 H 0.58343 0.93033 0.48134 0.0
H1068 H 0.58636 0.89327 0.48944 0.0
H1069 H 0.61115 0.94328 0.49443 0.0
C1070 C 0.60046 0.75859 0.47076 0.0
N1071 N 0.58959 0.78316 0.46632 0.0
N1072 N 0.60733 0.81663 0.4718 0.0
C1073 C 0.62876 0.81381 0.4803 0.0
C1074 C 0.62491 0.77668 0.47996 0.0
C1075 C 0.58825 0.71869 0.46611 0.0
H1076 H 0.58164 0.71749 0.45692 0.0
H1077 H 0.56164 0.69636 0.47057 0.0
H1078 H 0.61177 0.71137 0.46745 0.0
O1079 O 0.56565 0.8023 0.44226 0.0
O1080 O 0.59105 0.86073 0.45063 0.0
H1081 H 0.67837 0.86592 0.48647 0.0
H1082 H 0.65053 0.83098 0.49741 0.0
C1083 C 0.64836 0.84424 0.48933 0.0
H1084 H 0.63188 0.85986 0.4908 0.0
H1085 H 0.68305 0.90562 0.46308 0.0
O1086 O 0.51363 0.71533 0.45481 0.0
C1087 C 0.58013 0.83933 0.44173 0.0
Co1088 Co 0.22483 0.7701 0.46031 0.0
Co1089 Co 0.14503 0.73927 0.47286 0.0
C1090 C 0.18221 0.69352 0.47429 0.0
O1091 O 0.20684 0.71866 0.46743 0.0
O1092 O 0.1555 0.69818 0.47885 0.0
C1093 C 0.30088 0.7914 0.46566 0.0
O1094 O 0.28441 0.78352 0.47574 0.0
C1095 C 0.07205 0.71199 0.48626 0.0
C1096 C 0.05252 0.75208 0.47972 0.0
C1097 C 0.04289 0.72189 0.48735 0.0
N1098 N 0.09792 0.7357 0.47844 0.0
N1099 N 0.08598 0.75948 0.47457 0.0
C1100 C 0.0742 0.67912 0.49194 0.0
H1101 H 0.08448 0.66485 0.48582 0.0
H1102 H 0.09567 0.69115 0.499 0.0
H1103 H 0.04527 0.6568 0.49533 0.0
C1104 C 0.24527 0.84076 0.47371 0.0
N1105 N 0.21939 0.80439 0.47014 0.0
N1106 N 0.18716 0.79058 0.47616 0.0
C1107 C 0.192 0.8174 0.48408 0.0
C1108 C 0.22913 0.85013 0.4828 0.0
C1109 C 0.28435 0.86646 0.46831 0.0
H1110 H 0.2839 0.85812 0.4593 0.0
H1111 H 0.30717 0.86316 0.47285 0.0
H1112 H 0.29223 0.89771 0.46884 0.0
O1113 O 0.19281 0.75817 0.4467 0.0
O1114 O 0.13643 0.72745 0.45614 0.0
H1115 H 0.14181 0.81867 0.49033 0.0
H1116 H 0.17809 0.82768 0.50101 0.0
C1117 C 0.1632 0.81015 0.49335 0.0
H1118 H 0.14699 0.77858 0.4956 0.0
H1119 H 0.10082 0.78089 0.4684 0.0
O1120 O 0.28047 0.78915 0.45703 0.0
C1121 C 0.15571 0.73656 0.44687 0.0
Co1122 Co 0.11863 0.56365 0.37558 0.0
Co1123 Co 0.06345 0.59833 0.37001 0.0
C1124 C 0.14641 0.64235 0.36379 0.0
O1125 O 0.15019 0.61489 0.36815 0.0
O1126 O 0.11324 0.64054 0.36337 0.0
C1127 C 0.1684 0.54109 0.36549 0.0
O1128 O 0.16134 0.55809 0.35695 0.0
C1129 C 0.01152 0.62261 0.35867 0.0
C1130 C 0.96836 0.61056 0.37229 0.0
C1131 C 0.97781 0.62401 0.36126 0.0
N1132 N 0.02119 0.60843 0.36774 0.0
N1133 N 0.99522 0.60132 0.37583 0.0
C1134 C 0.03543 0.63683 0.34805 0.0
H1135 H 0.06467 0.63985 0.34925 0.0
H1136 H 0.02036 0.61564 0.34108 0.0
H1137 H 0.0386 0.66537 0.34544 0.0
C1138 C 0.0563 0.49575 0.3633 0.0
N1139 N 0.07136 0.53207 0.36768 0.0
N1140 N 0.04926 0.54694 0.36471 0.0
C1141 C 0.01976 0.5206 0.35812 0.0
C1142 C 0.02335 0.48741 0.35697 0.0
C1143 C 0.07525 0.47103 0.36436 0.0
H1144 H 0.08996 0.47598 0.37269 0.0
H1145 H 0.09721 0.47899 0.3575 0.0
H1146 H 0.05382 0.43941 0.36353 0.0
O1147 O 0.10917 0.57581 0.39122 0.0
O1148 O 0.07374 0.60344 0.38655 0.0
H1149 H 0.9754 0.53662 0.35956 0.0
H1150 H 0.96531 0.4998 0.34894 0.0
C1151 C 0.98871 0.52696 0.35295 0.0
H1152 H 0.00222 0.55024 0.34644 0.0
H1153 H 0.99588 0.59017 0.38381 0.0
O1154 O 0.1525 0.53936 0.37505 0.0
C1155 C 0.09147 0.59435 0.39394 0.0
Co1156 Co 0.42166 0.56117 0.36367 0.0
Co1157 Co 0.39203 0.47161 0.35955 0.0
C1158 C 0.34256 0.50473 0.35319 0.0
O1159 O 0.36915 0.53765 0.35688 0.0
O1160 O 0.34659 0.47461 0.3533 0.0
C1161 C 0.43714 0.62962 0.35279 0.0
O1162 O 0.419 0.60359 0.34476 0.0
C1163 C 0.36829 0.39626 0.34829 0.0
C1164 C 0.39981 0.37361 0.35847 0.0
C1165 C 0.37698 0.36615 0.34885 0.0
N1166 N 0.38621 0.42097 0.35698 0.0
N1167 N 0.40451 0.40694 0.36312 0.0
C1168 C 0.34281 0.40136 0.33983 0.0
H1169 H 0.32208 0.40793 0.34433 0.0
H1170 H 0.36126 0.42659 0.33422 0.0
H1171 H 0.32559 0.37462 0.33464 0.0
C1172 C 0.49019 0.56987 0.35153 0.0
N1173 N 0.45418 0.54729 0.35588 0.0
N1174 N 0.44129 0.51044 0.35323 0.0
C1175 C 0.46853 0.50864 0.34667 0.0
C1176 C 0.50048 0.54636 0.34537 0.0
C1177 C 0.51531 0.61275 0.35399 0.0
H1178 H 0.50855 0.61956 0.36254 0.0
H1179 H 0.50932 0.62981 0.34762 0.0
H1180 H 0.54689 0.62189 0.35361 0.0
O1181 O 0.41266 0.54224 0.3794 0.0
O1182 O 0.38891 0.47847 0.37634 0.0
H1183 H 0.46672 0.45357 0.34756 0.0
H1184 H 0.48404 0.47845 0.33413 0.0
C1185 C 0.46291 0.47198 0.34114 0.0
H1186 H 0.43287 0.45523 0.33765 0.0
H1187 H 0.42142 0.42091 0.37027 0.0
O1188 O 0.44291 0.61843 0.36236 0.0
C1189 C 0.39713 0.50709 0.38305 0.0
Co1190 Co 0.43735 0.86769 0.37208 0.0
Co1191 Co 0.52305 0.9301 0.36456 0.0
C1192 C 0.49366 0.84926 0.35877 0.0
O1193 O 0.4627 0.84203 0.3641 0.0
O1194 O 0.52217 0.88402 0.35761 0.0
C1195 C 0.36866 0.8089 0.36261 0.0
O1196 O 0.39324 0.81861 0.35409 0.0
C1197 C 0.59768 0.98415 0.35326 0.0
C1198 C 0.61283 0.04045 0.36149 0.0
C1199 C 0.62533 0.02384 0.35333 0.0
N1200 N 0.57023 0.97758 0.36108 0.0
N1201 N 0.57955 0.01133 0.36599 0.0
C1202 C 0.59513 0.95358 0.34519 0.0
H1203 H 0.56429 0.93428 0.34253 0.0
H1204 H 0.61338 0.96694 0.33753 0.0
H1205 H 0.6052 0.93523 0.34956 0.0
C1206 C 0.41834 0.91926 0.35916 0.0
N1207 N 0.44484 0.91153 0.36385 0.0
N1208 N 0.47963 0.93521 0.35958 0.0
C1209 C 0.47605 0.95788 0.35161 0.0
C1210 C 0.43689 0.94835 0.35103 0.0
C1211 C 0.37602 0.89923 0.36251 0.0
H1212 H 0.37263 0.88998 0.37152 0.0
H1213 H 0.35904 0.87281 0.35718 0.0
H1214 H 0.36386 0.91903 0.36125 0.0
O1215 O 0.46178 0.88153 0.38728 0.0
O1216 O 0.52295 0.92069 0.38129 0.0
H1217 H 0.52656 0.0132 0.34798 0.0
H1218 H 0.497 0.98892 0.33569 0.0
C1219 C 0.5085 0.98439 0.34379 0.0
H1220 H 0.52751 0.97177 0.34195 0.0
H1221 H 0.56272 0.01457 0.37227 0.0
O1222 O 0.38051 0.82716 0.372 0.0
C1223 C 0.49849 0.9021 0.38921 0.0
H1224 H 0.12739 0.12799 0.18231 0.0
H1225 H 0.17084 0.15326 0.21669 0.0
H1226 H 0.19463 0.10684 0.21492 0.0
H1227 H 0.19529 0.05314 0.20448 0.0
H1228 H 0.14585 0.02327 0.17094 0.0
H1229 H 0.13328 0.07831 0.17129 0.0
C1230 C 0.14245 0.12372 0.18939 0.0
C1231 C 0.14684 0.14369 0.19968 0.0
C1232 C 0.15537 0.09646 0.18837 0.0
C1233 C 0.16664 0.13793 0.20873 0.0
C1234 C 0.18037 0.11148 0.20771 0.0
C1235 C 0.18333 0.05989 0.19709 0.0
C1236 C 0.17249 0.0352 0.18757 0.0
C1237 C 0.17403 0.08992 0.19767 0.0
C1238 C 0.15544 0.0428 0.17819 0.0
C1239 C 0.14768 0.07379 0.17849 0.0
H1240 H 0.99036 0.12766 0.21387 0.0
H1241 H 0.97613 0.15656 0.1796 0.0
H1242 H 0.91786 0.09117 0.17733 0.0
H1243 H 0.87341 0.02463 0.18498 0.0
H1244 H 0.88718 0.9987 0.21972 0.0
H1245 H 0.94319 0.06446 0.22197 0.0
C1246 C 0.97445 0.11962 0.2059 0.0
C1247 C 0.9877 0.14633 0.19683 0.0
C1248 C 0.94101 0.08266 0.20478 0.0
C1249 C 0.96644 0.13618 0.18665 0.0
C1250 C 0.93329 0.09888 0.18537 0.0
C1251 C 0.88855 0.03353 0.19306 0.0
C1252 C 0.87641 0.00667 0.20214 0.0
C1253 C 0.92065 0.07168 0.19434 0.0
C1254 C 0.89591 0.01874 0.2126 0.0
C1255 C 0.92806 0.05629 0.21389 0.0
H1256 H 0.88087 0.8978 0.18113 0.0
H1257 H 0.8364 0.78266 0.19551 0.0
H1258 H 0.90268 0.7919 0.1958 0.0
H1259 H 0.97453 0.83697 0.19448 0.0
H1260 H 0.01785 0.95092 0.17933 0.0
H1261 H 0.95089 0.93824 0.17693 0.0
C1262 C 0.8856 0.87424 0.18395 0.0
C1263 C 0.85403 0.83973 0.18832 0.0
C1264 C 0.9237 0.88007 0.18428 0.0
C1265 C 0.86029 0.80934 0.19198 0.0
C1266 C 0.89826 0.8149 0.19233 0.0
C1267 C 0.96905 0.85877 0.1906 0.0
C1268 C 0.00076 0.89512 0.18731 0.0
C1269 C 0.93038 0.85084 0.18896 0.0
C1270 C 0.99368 0.92291 0.18203 0.0
C1271 C 0.95549 0.91565 0.18062 0.0
H1272 H 0.03705 0.18115 0.29724 0.0
H1273 H 0.99442 0.132 0.33031 0.0
H1274 H 0.04783 0.11722 0.33232 0.0
H1275 H 0.10078 0.11041 0.32342 0.0
H1276 H 0.13975 0.15592 0.28966 0.0
H1277 H 0.09365 0.18009 0.28913 0.0
C1278 C 0.04045 0.16845 0.30504 0.0
C1279 C 0.01271 0.15824 0.31372 0.0
C1280 C 0.06992 0.1586 0.30586 0.0
C1281 C 0.01623 0.14081 0.32367 0.0
C1282 C 0.04636 0.13192 0.32472 0.0
C1283 C 0.0995 0.12601 0.316 0.0
C1284 C 0.12325 0.1308 0.30652 0.0
C1285 C 0.07246 0.13938 0.31568 0.0
C1286 C 0.12143 0.15133 0.297 0.0
C1287 C 0.09516 0.16529 0.2967 0.0
H1288 H 0.8737 0.87349 0.29001 0.0
H1289 H 0.82843 0.84496 0.32407 0.0
H1290 H 0.83255 0.9093 0.32577 0.0
H1291 H 0.8524 0.97481 0.31766 0.0
H1292 H 0.89392 6e-05 0.28309 0.0
H1293 H 0.88751 0.9354 0.28142 0.0
C1294 C 0.86474 0.88141 0.29782 0.0
C1295 C 0.85157 0.8552 0.307 0.0
C1296 C 0.86646 0.91766 0.29859 0.0
C1297 C 0.83898 0.86505 0.31695 0.0
C1298 C 0.84141 0.90172 0.3179 0.0
C1299 C 0.85978 0.96598 0.30975 0.0
C1300 C 0.87402 0.99232 0.30054 0.0
C1301 C 0.8556 0.92847 0.3088 0.0
C1302 C 0.88293 0.98037 0.29029 0.0
C1303 C 0.87945 0.94348 0.28934 0.0
H1304 H 0.15559 0.9483 0.29859 0.0
H1305 H 0.13515 0.00346 0.32727 0.0
H1306 H 0.06847 0.9478 0.32917 0.0
H1307 H 0.01326 0.88974 0.3206 0.0
H1308 H 0.03154 0.83934 0.29032 0.0
H1309 H 0.1017 0.88681 0.29102 0.0
C1310 C 0.13697 0.94718 0.30554 0.0
C1311 C 0.15018 0.97927 0.31294 0.0
C1312 C 0.09793 0.91655 0.30603 0.0
C1313 C 0.12559 0.97852 0.32165 0.0
C1314 C 0.08737 0.94704 0.32261 0.0
C1315 C 0.03268 0.88875 0.31425 0.0
C1316 C 0.01719 0.86143 0.30533 0.0
C1317 C 0.07271 0.91686 0.31452 0.0
C1318 C 0.0427 0.86049 0.29717 0.0
C1319 C 0.08282 0.88752 0.2976 0.0
H1320 H 0.80627 0.94934 0.79973 0.0
H1321 H 0.89231 0.01675 0.82515 0.0
H1322 H 0.90992 0.96535 0.82684 0.0
H1323 H 0.90731 0.90636 0.81897 0.0
H1324 H 0.82632 0.84315 0.79188 0.0
H1325 H 0.80022 0.88779 0.79285 0.0
C1326 C 0.82775 0.95183 0.80594 0.0
C1327 C 0.84737 0.98589 0.81254 0.0
C1328 C 0.83931 0.92351 0.80629 0.0
C1329 C 0.87627 0.99006 0.82025 0.0
C1330 C 0.88666 0.96102 0.82107 0.0
C1331 C 0.88361 0.90207 0.81338 0.0
C1332 C 0.86907 0.87185 0.80526 0.0
C1333 C 0.86947 0.92841 0.8138 0.0
C1334 C 0.83839 0.8666 0.79807 0.0
C1335 C 0.82333 0.89197 0.79866 0.0
H1336 H 0.13549 0.98761 0.81316 0.0
H1337 H 0.12685 0.99158 0.77672 0.0
H1338 H 0.07323 0.92371 0.77666 0.0
H1339 H 0.02509 0.86575 0.78708 0.0
H1340 H 0.03273 0.8606 0.82342 0.0
H1341 H 0.09104 0.92662 0.82346 0.0
C1342 C 0.12205 0.97352 0.8052 0.0
C1343 C 0.13471 0.99477 0.79496 0.0
C1344 C 0.09119 0.93449 0.80524 0.0
C1345 C 0.11751 0.97595 0.7847 0.0
C1346 C 0.08681 0.9372 0.78467 0.0
C1347 C 0.04004 0.87897 0.79498 0.0
C1348 C 0.02498 0.8589 0.80524 0.0
C1349 C 0.07293 0.9166 0.79489 0.0
C1350 C 0.04422 0.87575 0.81545 0.0
C1351 C 0.07724 0.91345 0.81545 0.0
H1352 H 0.12869 0.13812 0.78563 0.0
H1353 H 0.14955 0.16966 0.821 0.0
H1354 H 0.08374 0.16194 0.82259 0.0
H1355 H 0.01904 0.14197 0.81401 0.0
H1356 H 0.00056 0.11251 0.77839 0.0
H1357 H 0.0672 0.12406 0.77677 0.0
C1358 C 0.11883 0.14333 0.7937 0.0
C1359 C 0.14335 0.15362 0.80325 0.0
C1360 C 0.08157 0.13922 0.79447 0.0
C1361 C 0.13088 0.16141 0.81357 0.0
C1362 C 0.09333 0.1569 0.81447 0.0
C1363 C 0.02972 0.13833 0.80588 0.0
C1364 C 0.00473 0.12591 0.79635 0.0
C1365 C 0.0682 0.14515 0.805 0.0
C1366 C 0.01912 0.1219 0.78584 0.0
C1367 C 0.05716 0.12836 0.78492 0.0
H1368 H 0.01868 0.90253 0.68306 0.0
H1369 H 0.9527 0.78511 0.69629 0.0
H1370 H 0.89446 0.79211 0.69799 0.0
H1371 H 0.86498 0.83518 0.69788 0.0
H1372 H 0.93136 0.95167 0.68396 0.0
H1373 H 0.98705 0.94191 0.68056 0.0
C1374 C 0.99115 0.87803 0.68596 0.0
C1375 C 0.98989 0.8434 0.68954 0.0
C1376 C 0.95828 0.88263 0.68714 0.0
C1377 C 0.95419 0.81187 0.69333 0.0
C1378 C 0.92111 0.81615 0.6945 0.0
C1379 C 0.89172 0.85827 0.69412 0.0
C1380 C 0.89463 0.8944 0.6914 0.0
C1381 C 0.92329 0.85199 0.69186 0.0
C1382 C 0.92884 0.92383 0.68624 0.0
C1383 C 0.96055 0.91821 0.68424 0.0
H1384 H 0.1504 0.02736 0.68295 0.0
H1385 H 0.11611 0.00559 0.71818 0.0
H1386 H 0.12258 0.07026 0.71974 0.0
H1387 H 0.13473 0.13131 0.71098 0.0
H1388 H 0.17271 0.1564 0.67618 0.0
H1389 H 0.16813 0.09189 0.67451 0.0
C1390 C 0.14461 0.03694 0.69098 0.0
C1391 C 0.13243 0.01156 0.70041 0.0
C1392 C 0.14875 0.07446 0.69185 0.0
C1393 C 0.12552 0.02451 0.7108 0.0
C1394 C 0.12903 0.06141 0.71168 0.0
C1395 C 0.1419 0.1226 0.703 0.0
C1396 C 0.15319 0.14797 0.69362 0.0
C1397 C 0.14 0.08627 0.70223 0.0
C1398 C 0.16357 0.13702 0.68345 0.0
C1399 C 0.16092 0.10024 0.68252 0.0
H1400 H 0.86503 0.03015 0.70839 0.0
H1401 H 0.8615 0.03301 0.67191 0.0
H1402 H 0.92618 0.09314 0.67176 0.0
H1403 H 0.98632 0.13999 0.68211 0.0
H1404 H 0.98822 0.13553 0.71872 0.0
H1405 H 0.921 0.08094 0.71874 0.0
C1406 C 0.8781 0.0445 0.70042 0.0
C1407 C 0.85896 0.02745 0.69017 0.0
C1408 C 0.91499 0.07835 0.70045 0.0
C1409 C 0.87583 0.04598 0.67988 0.0
C1410 C 0.91284 0.08004 0.67982 0.0
C1411 C 0.97187 0.12734 0.6901 0.0
C1412 C 0.99251 0.14139 0.7004 0.0
C1413 C 0.93316 0.09575 0.69005 0.0
C1414 C 0.97319 0.1251 0.71068 0.0
C1415 C 0.93477 0.09384 0.7107 0.0
H1416 H 0.82399 0.47161 0.52703 0.0
H1417 H 0.70786 0.40007 0.51332 0.0
H1418 H 0.72117 0.34662 0.50996 0.0
H1419 H 0.76311 0.31796 0.51289 0.0
H1420 H 0.88006 0.38925 0.52601 0.0
H1421 H 0.86993 0.44569 0.52719 0.0
C1422 C 0.80181 0.44431 0.52328 0.0
C1423 C 0.76474 0.43922 0.52066 0.0
C1424 C 0.81003 0.41402 0.5211 0.0
C1425 C 0.73644 0.4043 0.51551 0.0
C1426 C 0.74406 0.37383 0.51356 0.0
C1427 C 0.78681 0.34626 0.51564 0.0
C1428 C 0.82215 0.34954 0.5194 0.0
C1429 C 0.78044 0.37811 0.51653 0.0
C1430 C 0.85272 0.38621 0.52295 0.0
C1431 C 0.84667 0.41826 0.52382 0.0
H1432 H 0.54454 0.34951 0.51538 0.0
H1433 H 0.51924 0.36124 0.55033 0.0
H1434 H 0.56308 0.43209 0.54928 0.0
H1435 H 0.61577 0.48865 0.53935 0.0
H1436 H 0.64649 0.47535 0.50527 0.0
H1437 H 0.59217 0.40754 0.50481 0.0
C1438 C 0.54825 0.36757 0.52274 0.0
C1439 C 0.52921 0.35001 0.53299 0.0
C1440 C 0.57405 0.40816 0.52213 0.0
C1441 C 0.53405 0.37392 0.5424 0.0
C1442 C 0.55896 0.41447 0.54178 0.0
C1443 C 0.60918 0.47136 0.53164 0.0
C1444 C 0.63418 0.48694 0.52224 0.0
C1445 C 0.57993 0.43172 0.5318 0.0
C1446 C 0.62675 0.46409 0.51245 0.0
C1447 C 0.59626 0.42515 0.5123 0.0
H1448 H 0.63904 0.18598 0.51522 0.0
H1449 H 0.66486 0.21764 0.55054 0.0
H1450 H 0.59986 0.20941 0.55321 0.0
H1451 H 0.53784 0.19803 0.54531 0.0
H1452 H 0.50915 0.16356 0.51037 0.0
H1453 H 0.57322 0.16782 0.5077 0.0
C1454 C 0.63026 0.19072 0.52352 0.0
C1455 C 0.65695 0.20288 0.53264 0.0
C1456 C 0.59258 0.1857 0.52502 0.0
C1457 C 0.645 0.20838 0.54338 0.0
C1458 C 0.60788 0.20384 0.54491 0.0
C1459 C 0.54562 0.19128 0.53712 0.0
C1460 C 0.51947 0.18121 0.52797 0.0
C1461 C 0.58185 0.19332 0.53575 0.0
C1462 C 0.52915 0.1716 0.51747 0.0
C1463 C 0.56571 0.17417 0.51597 0.0
H1464 H 0.71936 0.53302 0.63438 0.0
H1465 H 0.66478 0.4584 0.66325 0.0
H1466 H 0.71953 0.44577 0.66481 0.0
H1467 H 0.7763 0.44683 0.65586 0.0
H1468 H 0.82556 0.51427 0.62534 0.0
H1469 H 0.77952 0.53872 0.62641 0.0
C1470 C 0.72048 0.51542 0.6413 0.0
C1471 C 0.6888 0.4973 0.64886 0.0
C1472 C 0.75043 0.50598 0.64157 0.0
C1473 C 0.68947 0.47327 0.65753 0.0
C1474 C 0.72039 0.46558 0.65829 0.0
C1475 C 0.77735 0.46736 0.64955 0.0
C1476 C 0.80389 0.47834 0.64045 0.0
C1477 C 0.75 0.48027 0.65002 0.0
C1478 C 0.80494 0.50491 0.63232 0.0
C1479 C 0.77876 0.51904 0.63296 0.0
H1480 H 0.47395 0.18062 0.6377 0.0
H1481 H 0.55699 0.19665 0.66384 0.0
H1482 H 0.57351 0.26504 0.66621 0.0
H1483 H 0.57269 0.32248 0.65841 0.0
H1484 H 0.49605 0.30783 0.63038 0.0
H1485 H 0.46883 0.23688 0.63106 0.0
C1486 C 0.49432 0.19872 0.64426 0.0
C1487 C 0.51365 0.1837 0.65078 0.0
C1488 C 0.5058 0.23862 0.64491 0.0
C1489 C 0.54118 0.20758 0.65894 0.0
C1490 C 0.55107 0.24678 0.66014 0.0
C1491 C 0.54962 0.30369 0.65256 0.0
C1492 C 0.53677 0.32037 0.64426 0.0
C1493 C 0.53497 0.26305 0.65278 0.0
C1494 C 0.50689 0.29571 0.63673 0.0
C1495 C 0.49116 0.25513 0.63715 0.0
H1496 H 0.68559 0.23355 0.65537 0.0
H1497 H 0.69287 0.18624 0.62302 0.0
H1498 H 0.7629 0.23392 0.622 0.0
H1499 H 0.81998 0.29379 0.62922 0.0
H1500 H 0.81065 0.34567 0.66035 0.0
H1501 H 0.74382 0.29089 0.66318 0.0
C1502 C 0.70261 0.23331 0.64817 0.0
C1503 C 0.68402 0.20662 0.63924 0.0
C1504 C 0.74258 0.26149 0.6475 0.0
C1505 C 0.70642 0.20677 0.62995 0.0
C1506 C 0.74648 0.23393 0.62938 0.0
C1507 C 0.80366 0.29215 0.63682 0.0
C1508 C 0.82015 0.32283 0.64474 0.0
C1509 C 0.76463 0.26198 0.63797 0.0
C1510 C 0.79857 0.32166 0.65433 0.0
C1511 C 0.7603 0.29069 0.65584 0.0
H1512 H 0.56248 0.23208 0.15538 0.0
H1513 H 0.50321 0.18035 0.12388 0.0
H1514 H 0.47569 0.22385 0.12361 0.0
H1515 H 0.4753 0.2819 0.13105 0.0
H1516 H 0.54018 0.33803 0.16134 0.0
H1517 H 0.5577 0.28679 0.16363 0.0
C1518 C 0.54317 0.23 0.14852 0.0
C1519 C 0.53532 0.20338 0.13958 0.0
C1520 C 0.52813 0.25565 0.1483 0.0
C1521 C 0.51018 0.20098 0.13077 0.0
C1522 C 0.49428 0.22571 0.13064 0.0
C1523 C 0.4919 0.28181 0.13839 0.0
C1524 C 0.50565 0.31278 0.1462 0.0
C1525 C 0.50382 0.25377 0.13921 0.0
C1526 C 0.52851 0.31369 0.15544 0.0
C1527 C 0.53899 0.2848 0.15662 0.0
H1528 H 0.77496 0.31983 0.15452 0.0
H1529 H 0.8174 0.30873 0.12176 0.0
H1530 H 0.77267 0.2379 0.12213 0.0
H1531 H 0.71579 0.18093 0.13059 0.0
H1532 H 0.66797 0.19373 0.16207 0.0
H1533 H 0.72136 0.26182 0.16366 0.0
C1534 C 0.77479 0.30185 0.14752 0.0
C1535 C 0.79908 0.31952 0.13806 0.0
C1536 C 0.7483 0.26137 0.14767 0.0
C1537 C 0.79854 0.29587 0.12906 0.0
C1538 C 0.77313 0.25537 0.1293 0.0
C1539 C 0.71819 0.1983 0.13802 0.0
C1540 C 0.68892 0.18244 0.14637 0.0
C1541 C 0.74721 0.23798 0.13842 0.0
C1542 C 0.69097 0.20532 0.15573 0.0
C1543 C 0.72107 0.24432 0.15653 0.0
H1544 H 0.67351 0.43848 0.15393 0.0
H1545 H 0.68492 0.49354 0.1214 0.0
H1546 H 0.75531 0.51712 0.12141 0.0
H1547 H 0.81197 0.51591 0.12967 0.0
H1548 H 0.79908 0.45484 0.16107 0.0
H1549 H 0.7311 0.44064 0.16273 0.0
C1550 C 0.69146 0.45604 0.1469 0.0
C1551 C 0.67395 0.46398 0.13763 0.0
C1552 C 0.7317 0.46871 0.14685 0.0
C1553 C 0.6976 0.48666 0.12857 0.0
C1554 C 0.73786 0.50028 0.1286 0.0
C1555 C 0.79455 0.50078 0.13707 0.0
C1556 C 0.81044 0.48736 0.14542 0.0
C1557 C 0.75505 0.49081 0.13757 0.0
C1558 C 0.7875 0.46632 0.15475 0.0
C1559 C 0.74859 0.45777 0.15559 0.0
H1560 H 0.65734 0.20835 0.00741 0.0
H1561 H 0.60101 0.11055 0.03037 0.0
H1562 H 0.54333 0.11864 0.03123 0.0
H1563 H 0.51487 0.16158 0.02816 0.0
H1564 H 0.57163 0.25889 0.00496 0.0
H1565 H 0.62341 0.24327 0.00152 0.0
C1566 C 0.63171 0.18785 0.01222 0.0
C1567 C 0.63328 0.1591 0.01886 0.0
C1568 C 0.59937 0.19346 0.01292 0.0
C1569 C 0.60015 0.13263 0.02509 0.0
C1570 C 0.56752 0.13776 0.02576 0.0
C1571 C 0.53839 0.17895 0.02226 0.0
C1572 C 0.54013 0.21183 0.01702 0.0
C1573 C 0.56777 0.16941 0.02018 0.0
C1574 C 0.57003 0.23367 0.00917 0.0
C1575 C 0.59959 0.22475 0.00719 0.0
H1576 H 0.76321 0.45486 0.01418 0.0
H1577 H 0.87745 0.49874 0.02916 0.0
H1578 H 0.86876 0.43269 0.02894 0.0
H1579 H 0.82436 0.36102 0.02699 0.0
H1580 H 0.71112 0.3182 0.01141 0.0
H1581 H 0.72346 0.38519 0.00945 0.0
C1582 C 0.78667 0.4501 0.01707 0.0
C1583 C 0.82075 0.48141 0.02175 0.0
C1584 C 0.78117 0.41209 0.01709 0.0
C1585 C 0.85106 0.47508 0.02543 0.0
C1586 C 0.84584 0.43721 0.02547 0.0
C1587 C 0.80265 0.36658 0.0231 0.0
C1588 C 0.76662 0.33496 0.01955 0.0
C1589 C 0.81031 0.40528 0.02177 0.0
C1590 C 0.73895 0.34225 0.01427 0.0
C1591 C 0.74599 0.38047 0.01314 0.0
H1592 H 0.65464 0.44513 0.011 0.0
H1593 H 0.63999 0.48889 0.04312 0.0
H1594 H 0.56928 0.44401 0.04222 0.0
H1595 H 0.51347 0.38614 0.03368 0.0
H1596 H 0.52987 0.33729 0.0029 0.0
H1597 H 0.59771 0.39119 0.0016 0.0
C1598 C 0.63592 0.44526 0.01773 0.0
C1599 C 0.65257 0.46991 0.02719 0.0
C1600 C 0.5955 0.41869 0.01729 0.0
C1601 C 0.62794 0.46977 0.03582 0.0
C1602 C 0.58749 0.44425 0.03529 0.0
C1603 C 0.53153 0.38845 0.02644 0.0
C1604 C 0.51678 0.35862 0.01823 0.0
C1605 C 0.57113 0.41783 0.02623 0.0
C1606 C 0.54059 0.36066 0.00912 0.0
C1607 C 0.57947 0.39105 0.0085 0.0
H1608 H 0.47145 0.67429 0.87992 0.0
H1609 H 0.50887 0.68738 0.84507 0.0
H1610 H 0.50131 0.74557 0.84325 0.0
H1611 H 0.48063 0.7904 0.85153 0.0
H1612 H 0.44668 0.77765 0.8868 0.0
H1613 H 0.45667 0.72162 0.88854 0.0
C1614 C 0.47795 0.6899 0.87191 0.0
C1615 C 0.48992 0.67634 0.86256 0.0
C1616 C 0.4742 0.72329 0.87104 0.0
C1617 C 0.49932 0.69728 0.85233 0.0
C1618 C 0.49491 0.73039 0.85131 0.0
C1619 C 0.47568 0.77547 0.85961 0.0
C1620 C 0.46253 0.78794 0.869 0.0
C1621 C 0.48186 0.74334 0.86059 0.0
C1622 C 0.45676 0.76868 0.87945 0.0
C1623 C 0.4623 0.73652 0.88044 0.0
H1624 H 0.34882 0.7782 0.85206 0.0
H1625 H 0.27488 0.82356 0.86307 0.0
H1626 H 0.21849 0.75679 0.86392 0.0
H1627 H 0.19255 0.68481 0.86371 0.0
H1628 H 0.267 0.64081 0.85196 0.0
H1629 H 0.32109 0.70767 0.84935 0.0
C1630 C 0.32003 0.77347 0.8543 0.0
C1631 C 0.31583 0.80552 0.85749 0.0
C1632 C 0.2882 0.73519 0.85495 0.0
C1633 C 0.27858 0.79926 0.86042 0.0
C1634 C 0.24655 0.76106 0.86109 0.0
C1635 C 0.22066 0.69009 0.86057 0.0
C1636 C 0.22626 0.6582 0.85825 0.0
C1637 C 0.25139 0.72872 0.85878 0.0
C1638 C 0.26231 0.66507 0.8539 0.0
C1639 C 0.29316 0.70321 0.85237 0.0
H1640 H 0.32366 0.51749 0.85079 0.0
H1641 H 0.32375 0.51551 0.88742 0.0
H1642 H 0.25431 0.49564 0.88761 0.0
H1643 H 0.19607 0.48668 0.87749 0.0
H1644 H 0.19558 0.49036 0.84099 0.0
H1645 H 0.26262 0.50095 0.84056 0.0
C1646 C 0.30841 0.51236 0.85882 0.0
C1647 C 0.32904 0.51864 0.8691 0.0
C1648 C 0.26847 0.50111 0.85886 0.0
C1649 C 0.3087 0.51125 0.87941 0.0
C1650 C 0.26899 0.49989 0.87952 0.0
C1651 C 0.21037 0.48863 0.86944 0.0
C1652 C 0.19123 0.48744 0.85928 0.0
C1653 C 0.24893 0.49574 0.86933 0.0
C1654 C 0.20978 0.49054 0.84888 0.0
C1655 C 0.24818 0.49709 0.84867 0.0
H1656 H 0.33984 0.80843 0.95431 0.0
H1657 H 0.3514 0.83855 0.98979 0.0
H1658 H 0.41022 0.83188 0.99098 0.0
H1659 H 0.45534 0.813 0.98202 0.0
H1660 H 0.44397 0.78555 0.94627 0.0
H1661 H 0.38801 0.79601 0.94504 0.0
C1662 C 0.35537 0.81367 0.96231 0.0
C1663 C 0.34114 0.82323 0.97202 0.0
C1664 C 0.38898 0.81018 0.96284 0.0
C1665 C 0.36185 0.83094 0.98225 0.0
C1666 C 0.39528 0.82698 0.98291 0.0
C1667 C 0.44072 0.80954 0.97395 0.0
C1668 C 0.45344 0.79799 0.96426 0.0
C1669 C 0.40866 0.8159 0.97329 0.0
C1670 C 0.4347 0.79428 0.95383 0.0
C1671 C 0.40262 0.80012 0.95314 0.0
H1672 H 0.1802 0.64634 0.98282 0.0
H1673 H 0.20171 0.66097 0.94673 0.0
H1674 H 0.19393 0.59568 0.94549 0.0
H1675 H 0.1855 0.53663 0.95474 0.0
H1676 H 0.1611 0.51908 0.99055 0.0
H1677 H 0.16536 0.58355 0.99187 0.0
C1678 C 0.18289 0.63508 0.97468 0.0
C1679 C 0.192 0.65866 0.9649 0.0
C1680 C 0.17816 0.5973 0.97401 0.0
C1681 C 0.19482 0.6435 0.95438 0.0
C1682 C 0.19054 0.60624 0.95367 0.0
C1683 C 0.18106 0.54696 0.96284 0.0
C1684 C 0.17383 0.52387 0.97259 0.0
C1685 C 0.183 0.58332 0.96344 0.0
C1686 C 0.16704 0.53676 0.98298 0.0
C1687 C 0.16956 0.57351 0.98371 0.0
H1688 H 0.46259 0.64871 0.95511 0.0
H1689 H 0.47523 0.64457 0.99131 0.0
H1690 H 0.41027 0.58499 0.99236 0.0
H1691 H 0.34805 0.53771 0.98296 0.0
H1692 H 0.33773 0.54251 0.94659 0.0
H1693 H 0.40411 0.59828 0.9456 0.0
C1694 C 0.45115 0.63456 0.96323 0.0
C1695 C 0.47298 0.65106 0.97316 0.0
C1696 C 0.41435 0.6007 0.96371 0.0
C1697 C 0.4586 0.63226 0.98359 0.0
C1698 C 0.42153 0.59843 0.98418 0.0
C1699 C 0.36048 0.55078 0.97482 0.0
C1700 C 0.33778 0.53634 0.96487 0.0
C1701 C 0.39881 0.58292 0.9743 0.0
C1702 C 0.35446 0.55316 0.95436 0.0
C1703 C 0.39237 0.58513 0.95379 0.0
H1704 H 0.1881 0.65383 0.45697 0.0
H1705 H 0.17568 0.64979 0.49333 0.0
H1706 H 0.1847 0.59221 0.49401 0.0
H1707 H 0.20155 0.54685 0.48414 0.0
H1708 H 0.21269 0.5522 0.44763 0.0
H1709 H 0.19837 0.60557 0.44711 0.0
C1710 C 0.18702 0.6401 0.46505 0.0
C1711 C 0.18186 0.65608 0.47511 0.0
C1712 C 0.19222 0.60756 0.46532 0.0
C1713 C 0.17974 0.63784 0.48551 0.0
C1714 C 0.18512 0.60519 0.48587 0.0
C1715 C 0.20061 0.55956 0.47607 0.0
C1716 C 0.20876 0.54592 0.46594 0.0
C1717 C 0.19228 0.59038 0.47583 0.0
C1718 C 0.20683 0.56227 0.45554 0.0
C1719 C 0.1987 0.59284 0.45523 0.0
H1720 H 0.44978 0.65423 0.48138 0.0
H1721 H 0.48111 0.64456 0.44692 0.0
H1722 H 0.43366 0.57434 0.44705 0.0
H1723 H 0.37808 0.51768 0.45615 0.0
H1724 H 0.34257 0.52882 0.48982 0.0
H1725 H 0.39768 0.59627 0.49101 0.0
C1726 C 0.44657 0.63674 0.47392 0.0
C1727 C 0.46865 0.65477 0.4641 0.0
C1728 C 0.41877 0.59655 0.474 0.0
C1729 C 0.4642 0.63156 0.45454 0.0
C1730 C 0.43716 0.59137 0.45463 0.0
C1731 C 0.38352 0.53451 0.4639 0.0
C1732 C 0.35729 0.5183 0.47303 0.0
C1733 C 0.41373 0.57377 0.46421 0.0
C1734 C 0.36325 0.54056 0.48287 0.0
C1735 C 0.39432 0.57922 0.48345 0.0
H1736 H 0.35679 0.81511 0.48201 0.0
H1737 H 0.33582 0.78578 0.44643 0.0
H1738 H 0.40037 0.79197 0.44467 0.0
H1739 H 0.46071 0.80178 0.45341 0.0
H1740 H 0.48446 0.83438 0.48864 0.0
H1741 H 0.42053 0.83087 0.49043 0.0
C1742 C 0.36652 0.81034 0.47386 0.0
C1743 C 0.34147 0.79955 0.46439 0.0
C1744 C 0.40379 0.81418 0.4729 0.0
C1745 C 0.35457 0.79406 0.45384 0.0
C1746 C 0.39135 0.79739 0.45284 0.0
C1747 C 0.45178 0.80801 0.46149 0.0
C1748 C 0.47648 0.8174 0.47097 0.0
C1749 C 0.41578 0.80669 0.46235 0.0
C1750 C 0.46546 0.82666 0.4813 0.0
C1751 C 0.42905 0.82464 0.4823 0.0
H1752 H 0.28232 0.47223 0.36754 0.0
H1753 H 0.3197 0.53351 0.33571 0.0
H1754 H 0.26529 0.54696 0.33625 0.0
H1755 H 0.2137 0.54961 0.34718 0.0
H1756 H 0.18102 0.49445 0.38009 0.0
H1757 H 0.22713 0.47044 0.37782 0.0
C1758 C 0.27737 0.48704 0.36051 0.0
C1759 C 0.30399 0.50092 0.35143 0.0
C1760 C 0.2477 0.49681 0.36129 0.0
C1761 C 0.2987 0.52163 0.34259 0.0
C1762 C 0.26805 0.52984 0.34301 0.0
C1763 C 0.21629 0.53194 0.35381 0.0
C1764 C 0.19426 0.52421 0.36386 0.0
C1765 C 0.24341 0.51896 0.35255 0.0
C1766 C 0.19797 0.50124 0.37235 0.0
C1767 C 0.22421 0.48736 0.37103 0.0
H1768 H 0.44216 0.7896 0.34595 0.0
H1769 H 0.55062 0.83247 0.36423 0.0
H1770 H 0.54389 0.7671 0.36356 0.0
H1771 H 0.50167 0.69578 0.36015 0.0
H1772 H 0.39435 0.65431 0.34125 0.0
H1773 H 0.40584 0.72109 0.33979 0.0
C1774 C 0.46492 0.78479 0.34943 0.0
C1775 C 0.49678 0.81538 0.35511 0.0
C1776 C 0.4605 0.74727 0.34914 0.0
C1777 C 0.52615 0.80922 0.35967 0.0
C1778 C 0.52196 0.77178 0.35944 0.0
C1779 C 0.48117 0.70165 0.35562 0.0
C1780 C 0.4469 0.67042 0.351 0.0
C1781 C 0.48839 0.74026 0.35461 0.0
C1782 C 0.4208 0.67807 0.34493 0.0
C1783 C 0.42733 0.71616 0.34409 0.0
H1784 H 0.2996 0.80586 0.36744 0.0
H1785 H 0.34914 0.7379 0.35432 0.0
H1786 H 0.28361 0.68102 0.35204 0.0
H1787 H 0.21283 0.64941 0.35511 0.0
H1788 H 0.16199 0.7173 0.36732 0.0
H1789 H 0.22717 0.7759 0.36821 0.0
C1790 C 0.29578 0.7785 0.3641 0.0
C1791 C 0.32881 0.77547 0.36129 0.0
C1792 C 0.2579 0.74627 0.36247 0.0
C1793 C 0.3239 0.74046 0.35666 0.0
C1794 C 0.28653 0.70808 0.35531 0.0
C1795 C 0.21597 0.67731 0.35769 0.0
C1796 C 0.18282 0.67912 0.36117 0.0
C1797 C 0.2534 0.71053 0.35831 0.0
C1798 C 0.18711 0.71535 0.36447 0.0
C1799 C 0.22442 0.74869 0.36515 0.0
H1800 H 0.32541 0.40595 0.15759 0.0
H1801 H 0.31408 0.29233 0.15242 0.0
H1802 H 0.25549 0.26208 0.16435 0.0
H1803 H 0.20792 0.268 0.17627 0.0
H1804 H 0.22084 0.38163 0.18264 0.0
H1805 H 0.27779 0.41193 0.16993 0.0
C1806 C 0.30998 0.37458 0.1591 0.0
C1807 C 0.32419 0.35138 0.1543 0.0
C1808 C 0.27657 0.3575 0.16607 0.0
C1809 C 0.30406 0.3108 0.15624 0.0
C1810 C 0.27048 0.2935 0.16298 0.0
C1811 C 0.22352 0.29947 0.175 0.0
C1812 C 0.21051 0.32265 0.18043 0.0
C1813 C 0.25667 0.3166 0.168 0.0
C1814 C 0.23024 0.36322 0.17846 0.0
C1815 C 0.26289 0.38051 0.17127 0.0
H1816 H 0.70327 0.88539 0.16689 0.0
H1817 H 0.65364 0.90673 0.19671 0.0
H1818 H 0.62665 0.93952 0.18517 0.0
H1819 H 0.61885 0.96337 0.16663 0.0
H1820 H 0.67008 0.94338 0.13685 0.0
H1821 H 0.69407 0.90792 0.14826 0.0
C1822 C 0.68605 0.89681 0.17078 0.0
C1823 C 0.6801 0.8937 0.18255 0.0
C1824 C 0.67117 0.91592 0.16412 0.0
C1825 C 0.65832 0.90888 0.18762 0.0
C1826 C 0.64305 0.92764 0.18104 0.0
C1827 C 0.63593 0.952 0.16267 0.0
C1828 C 0.64363 0.95696 0.15097 0.0
C1829 C 0.64977 0.93181 0.1693 0.0
C1830 C 0.6641 0.94024 0.14588 0.0
C1831 C 0.67786 0.92002 0.15239 0.0
H1832 H 0.05467 0.79922 0.16811 0.0
H1833 H 0.15152 0.78838 0.18078 0.0
H1834 H 0.12715 0.72625 0.17064 0.0
H1835 H 0.07721 0.67417 0.15849 0.0
H1836 H 0.97754 0.68261 0.14728 0.0
H1837 H 0.00339 0.74604 0.15679 0.0
C1838 C 0.07016 0.78301 0.16877 0.0
C1839 C 0.10493 0.79843 0.17513 0.0
C1840 C 0.05522 0.74673 0.16327 0.0
C1841 C 0.12508 0.77746 0.17575 0.0
C1842 C 0.11097 0.74178 0.17005 0.0
C1843 C 0.06124 0.68999 0.15818 0.0
C1844 C 0.02546 0.67385 0.15232 0.0
C1845 C 0.07599 0.72608 0.16382 0.0
C1846 C 0.00485 0.69436 0.15192 0.0
C1847 C 0.01972 0.73065 0.15729 0.0
H1848 H 0.35642 0.29077 0.35324 0.0
H1849 H 0.38021 0.3719 0.32576 0.0
H1850 H 0.36254 0.31943 0.31197 0.0
H1851 H 0.33601 0.24946 0.30776 0.0
H1852 H 0.31118 0.16793 0.33512 0.0
H1853 H 0.33485 0.22156 0.34893 0.0
C1854 C 0.35782 0.29686 0.34423 0.0
C1855 C 0.36797 0.33469 0.34052 0.0
C1856 C 0.3479 0.26656 0.33634 0.0
C1857 C 0.37062 0.34256 0.32883 0.0
C1858 C 0.36104 0.3127 0.32093 0.0
C1859 C 0.33644 0.24374 0.31675 0.0
C1860 C 0.32191 0.20512 0.32049 0.0
C1861 C 0.34893 0.27446 0.3246 0.0
C1862 C 0.32256 0.19766 0.3321 0.0
C1863 C 0.33569 0.22821 0.33998 0.0
H1864 H 0.67838 0.00169 0.34821 0.0
H1865 H 0.65187 0.09424 0.34289 0.0
H1866 H 0.70983 0.12909 0.33076 0.0
H1867 H 0.76726 0.13209 0.32126 0.0
H1868 H 0.79426 0.04017 0.32733 0.0
H1869 H 0.73644 0.00567 0.33933 0.0
C1870 C 0.68507 0.02924 0.34426 0.0
C1871 C 0.6606 0.04504 0.34619 0.0
C1872 C 0.71834 0.04902 0.33738 0.0
C1873 C 0.67027 0.08145 0.34142 0.0
C1874 C 0.70328 0.10129 0.33448 0.0
C1875 C 0.76044 0.10461 0.32528 0.0
C1876 C 0.78446 0.08828 0.32327 0.0
C1877 C 0.72743 0.08523 0.33234 0.0
C1878 C 0.77554 0.05273 0.32851 0.0
C1879 C 0.7427 0.03317 0.33545 0.0
H1880 H 0.88889 0.70035 0.33729 0.0
H1881 H 0.90097 0.63993 0.30851 0.0
H1882 H 0.93142 0.61172 0.32053 0.0
H1883 H 0.95782 0.60747 0.33902 0.0
H1884 H 0.94724 0.66921 0.36777 0.0
H1885 H 0.91237 0.69329 0.35607 0.0
C1886 C 0.89753 0.68034 0.33377 0.0
C1887 C 0.89267 0.67181 0.32214 0.0
C1888 C 0.91564 0.66498 0.34068 0.0
C1889 C 0.90433 0.64644 0.31751 0.0
C1890 C 0.92192 0.63061 0.32434 0.0
C1891 C 0.9485 0.62674 0.34266 0.0
C1892 C 0.9561 0.63759 0.35413 0.0
C1893 C 0.92851 0.64039 0.33589 0.0
C1894 C 0.94208 0.66092 0.3589 0.0
C1895 C 0.92216 0.67466 0.35223 0.0
H1896 H 0.75522 0.66327 0.81185 0.0
H1897 H 0.83952 0.69903 0.83896 0.0
H1898 H 0.78667 0.67555 0.85301 0.0
H1899 H 0.71694 0.64978 0.85749 0.0
H1900 H 0.63292 0.61567 0.83028 0.0
H1901 H 0.68514 0.63465 0.81635 0.0
C1902 C 0.76182 0.66565 0.82085 0.0
C1903 C 0.80098 0.68305 0.82443 0.0
C1904 C 0.73146 0.65332 0.82882 0.0
C1905 C 0.80944 0.68554 0.83606 0.0
C1906 C 0.77931 0.6725 0.84407 0.0
C1907 C 0.71011 0.64651 0.84851 0.0
C1908 C 0.6713 0.63264 0.84492 0.0
C1909 C 0.7403 0.65719 0.84054 0.0
C1910 C 0.66274 0.62792 0.83327 0.0
C1911 C 0.69253 0.63822 0.82529 0.0
H1912 H 0.36404 0.1327 0.82022 0.0
H1913 H 0.24395 0.03878 0.82092 0.0
H1914 H 0.26162 0.00061 0.83336 0.0
H1915 H 0.31106 0.99406 0.84428 0.0
H1916 H 0.43056 0.08917 0.84467 0.0
H1917 H 0.41338 0.12701 0.83177 0.0
C1918 C 0.34185 0.104 0.82319 0.0
C1919 C 0.30295 0.08825 0.81952 0.0
C1920 C 0.35212 0.08246 0.83055 0.0
C1921 C 0.27432 0.05105 0.82339 0.0
C1922 C 0.28432 0.02932 0.83058 0.0
C1923 C 0.33337 0.02284 0.8414 0.0
C1924 C 0.37207 0.0386 0.84522 0.0
C1925 C 0.32315 0.04461 0.83417 0.0
C1926 C 0.40055 0.07643 0.84175 0.0
C1927 C 0.39077 0.09804 0.83439 0.0
H1928 H 0.86444 0.22321 0.81982 0.0
H1929 H 0.95789 0.19629 0.82099 0.0
H1930 H 0.99599 0.25227 0.83332 0.0
H1931 H 0.00276 0.30862 0.84402 0.0
H1932 H 0.90806 0.33364 0.8442 0.0
H1933 H 0.8701 0.27841 0.83136 0.0
C1934 C 0.8931 0.22969 0.82282 0.0
C1935 C 0.90886 0.20644 0.81921 0.0
C1936 C 0.91453 0.26147 0.83021 0.0
C1937 C 0.94581 0.21473 0.82325 0.0
C1938 C 0.96745 0.24647 0.83043 0.0
C1939 C 0.97401 0.3022 0.84113 0.0
C1940 C 0.95844 0.32542 0.84484 0.0
C1941 C 0.95224 0.27018 0.83391 0.0
C1942 C 0.92064 0.31614 0.84137 0.0
C1943 C 0.89899 0.28466 0.83402 0.0
H1944 H 0.69885 0.68886 0.64885 0.0
H1945 H 0.5795 0.66444 0.65039 0.0
H1946 H 0.59948 0.72211 0.66248 0.0
H1947 H 0.65114 0.77839 0.67317 0.0
H1948 H 0.77119 0.80551 0.66993 0.0
H1949 H 0.75086 0.74786 0.6581 0.0
C1950 C 0.67734 0.69629 0.65187 0.0
C1951 C 0.63783 0.67247 0.64893 0.0
C1952 C 0.68917 0.7298 0.65857 0.0
C1953 C 0.61013 0.68253 0.65264 0.0
C1954 C 0.62152 0.71537 0.65955 0.0
C1955 C 0.6728 0.77187 0.66975 0.0
C1956 C 0.71247 0.79559 0.67268 0.0
C1957 C 0.66099 0.73914 0.66263 0.0
C1958 C 0.74029 0.78691 0.66816 0.0
C1959 C 0.72876 0.75413 0.66129 0.0
H1960 H 0.19314 0.89707 0.66508 0.0
H1961 H 0.25954 0.91549 0.69574 0.0
H1962 H 0.32086 0.94713 0.68488 0.0
H1963 H 0.35541 0.97045 0.66662 0.0
H1964 H 0.28873 0.95309 0.63601 0.0
H1965 H 0.22761 0.91935 0.64679 0.0
C1966 C 0.22112 0.90768 0.66931 0.0
C1967 C 0.22218 0.90401 0.68112 0.0
C1968 C 0.25606 0.92607 0.66302 0.0
C1969 C 0.25834 0.91813 0.68662 0.0
C1970 C 0.29327 0.9362 0.68042 0.0
C1971 C 0.3275 0.9599 0.66236 0.0
C1972 C 0.32653 0.96518 0.6506 0.0
C1973 C 0.29251 0.94071 0.66863 0.0
C1974 C 0.29015 0.94975 0.64509 0.0
C1975 C 0.25523 0.93051 0.65124 0.0
H1976 H 0.11007 0.30093 0.66425 0.0
H1977 H 0.09421 0.35664 0.69361 0.0
H1978 H 0.06193 0.3837 0.68192 0.0
H1979 H 0.03654 0.38977 0.66338 0.0
H1980 H 0.05333 0.33496 0.63395 0.0
H1981 H 0.08755 0.30974 0.64553 0.0
C1982 C 0.09995 0.31946 0.66801 0.0
C1983 C 0.10412 0.32673 0.67973 0.0
C1984 C 0.08147 0.33479 0.66124 0.0
C1985 C 0.09083 0.35047 0.6846 0.0
C1986 C 0.07245 0.36591 0.67793 0.0
C1987 C 0.04732 0.37189 0.65957 0.0
C1988 C 0.04162 0.36322 0.64794 0.0
C1989 C 0.0671 0.35778 0.66627 0.0
C1990 C 0.05701 0.34143 0.64295 0.0
C1991 C 0.07654 0.32707 0.64955 0.0
H1992 H 0.90924 0.64654 0.52426 0.0
H1993 H 0.84147 0.65281 0.49649 0.0
H1994 H 0.90038 0.68471 0.48464 0.0
H1995 H 0.9704 0.70748 0.48193 0.0
H1996 H 0.03787 0.69941 0.50953 0.0
H1997 H 0.97972 0.67062 0.52166 0.0
C1998 C 0.90757 0.65496 0.5156 0.0
C1999 C 0.87133 0.64729 0.51117 0.0
C2000 C 0.94127 0.67227 0.50879 0.0
C2001 C 0.86926 0.65869 0.50004 0.0
C2002 C 0.90281 0.67662 0.49326 0.0
C2003 C 0.9723 0.69942 0.49061 0.0
C2004 C 0.00801 0.70457 0.49476 0.0
C2005 C 0.93883 0.68302 0.49751 0.0
C2006 C 0.01033 0.69444 0.50604 0.0
C2007 C 0.97722 0.67841 0.513 0.0
H2008 H 0.35229 0.33079 0.48343 0.0
H2009 H 0.23158 0.23936 0.48595 0.0
H2010 H 0.24946 0.20451 0.49981 0.0
H2011 H 0.29973 0.20154 0.51175 0.0
H2012 H 0.42075 0.29151 0.50807 0.0
H2013 H 0.40258 0.32571 0.49428 0.0
C2014 C 0.32996 0.30336 0.48709 0.0
C2015 C 0.2907 0.28792 0.48389 0.0
C2016 C 0.34052 0.2834 0.4949 0.0
C2017 C 0.26203 0.25182 0.48838 0.0
C2018 C 0.27222 0.23197 0.49631 0.0
C2019 C 0.32199 0.22846 0.50784 0.0
C2020 C 0.36133 0.24458 0.51113 0.0
C2021 C 0.31139 0.24764 0.4997 0.0
C2022 C 0.39008 0.27929 0.50596 0.0
C2023 C 0.37979 0.29869 0.498 0.0
H2024 H 0.74425 0.00059 0.49273 0.0
H2025 H 0.64152 0.00766 0.48417 0.0
H2026 H 0.66669 0.06849 0.49498 0.0
H2027 H 0.71859 0.12042 0.50644 0.0
H2028 H 0.8207 0.11301 0.51552 0.0
H2029 H 0.79569 0.05205 0.50467 0.0
C2030 C 0.72738 0.01545 0.49329 0.0
C2031 C 0.69075 0.99932 0.48787 0.0
C2032 C 0.74213 0.05048 0.49949 0.0
C2033 C 0.66925 0.0189 0.48855 0.0
C2034 C 0.68381 0.05388 0.49463 0.0
C2035 C 0.73506 0.10512 0.5062 0.0
C2036 C 0.7713 0.12098 0.51181 0.0
C2037 C 0.72019 0.0699 0.50013 0.0
C2038 C 0.79286 0.10146 0.51117 0.0
C2039 C 0.77847 0.06654 0.50503 0.0
H2040 H 0.94363 0.54227 0.66078 0.0
H2041 H 0.05442 0.56282 0.64764 0.0
H2042 H 0.08886 0.62195 0.65941 0.0
H2043 H 0.08669 0.66954 0.67277 0.0
H2044 H 0.97479 0.65127 0.68417 0.0
H2045 H 0.94118 0.59 0.67345 0.0
C2046 C 0.9753 0.55997 0.66037 0.0
C2047 C 0.99649 0.54847 0.6533 0.0
C2048 C 0.9945 0.59451 0.66674 0.0
C2049 C 0.03755 0.57097 0.65311 0.0
C2050 C 0.05715 0.6049 0.65975 0.0
C2051 C 0.05496 0.65201 0.67286 0.0
C2052 C 0.03306 0.66484 0.6791 0.0
C2053 C 0.03585 0.61721 0.66649 0.0
C2054 C 0.99205 0.64213 0.67924 0.0
C2055 C 0.9729 0.60707 0.67318 0.0
H2056 H 0.41906 0.41569 0.64293 0.0
H2057 H 0.49959 0.47336 0.67046 0.0
H2058 H 0.44508 0.44707 0.68397 0.0
H2059 H 0.3752 0.40341 0.68806 0.0
H2060 H 0.29454 0.34535 0.66051 0.0
H2061 H 0.34837 0.37527 0.6469 0.0
C2062 C 0.4244 0.42274 0.65188 0.0
C2063 C 0.46295 0.44624 0.65577 0.0
C2064 C 0.39308 0.40673 0.65959 0.0
C2065 C 0.46993 0.45551 0.66733 0.0
C2066 C 0.43888 0.44022 0.67504 0.0
C2067 C 0.36943 0.39743 0.67907 0.0
C2068 C 0.33122 0.37106 0.67534 0.0
C2069 C 0.40045 0.4151 0.67129 0.0
C2070 C 0.32398 0.36408 0.66366 0.0
C2071 C 0.35466 0.38163 0.65585 0.0
H2072 H 0.54405 0.01203 0.66567 0.0
H2073 H 0.57987 0.98753 0.63365 0.0
H2074 H 0.6136 0.95791 0.64346 0.0
H2075 H 0.63699 0.94372 0.66124 0.0
H2076 H 0.60114 0.96843 0.69328 0.0
H2077 H 0.56296 0.99284 0.68344 0.0
C2078 C 0.55848 0.99929 0.66088 0.0
C2079 C 0.55964 0.00175 0.64901 0.0
C2080 C 0.57825 0.98297 0.66659 0.0
C2081 C 0.57867 0.98568 0.64282 0.0
C2082 C 0.59814 0.96908 0.64842 0.0
C2083 C 0.62109 0.95477 0.66604 0.0
C2084 C 0.62264 0.95526 0.67795 0.0
C2085 C 0.59902 0.96853 0.66032 0.0
C2086 C 0.60066 0.96818 0.68409 0.0
C2087 C 0.57884 0.98213 0.67848 0.0
H2088 H 0.37636 0.97416 0.18802 0.0
H2089 H 0.29634 0.95232 0.16037 0.0
H2090 H 0.34897 0.96916 0.14669 0.0
H2091 H 0.41879 0.99423 0.14264 0.0
H2092 H 0.4993 0.01791 0.17022 0.0
H2093 H 0.44537 0.99476 0.18388 0.0
C2094 C 0.37053 0.973 0.17899 0.0
C2095 C 0.333 0.96355 0.1752 0.0
C2096 C 0.40093 0.98257 0.17118 0.0
C2097 C 0.32547 0.96128 0.16349 0.0
C2098 C 0.35541 0.9704 0.15567 0.0
C2099 C 0.42425 0.99384 0.15164 0.0
C2100 C 0.4627 0.00795 0.15549 0.0
C2101 C 0.39339 0.98179 0.15942 0.0
C2102 C 0.46974 0.00699 0.16712 0.0
C2103 C 0.43903 0.99416 0.17492 0.0
H2104 H 0.96566 0.44444 0.16934 0.0
H2105 H 0.01394 0.42324 0.13919 0.0
H2106 H 0.04119 0.39015 0.15046 0.0
H2107 H 0.04924 0.36543 0.16887 0.0
H2108 H 0.00134 0.38724 0.19906 0.0
H2109 H 0.97627 0.42229 0.18787 0.0
C2110 C 0.98279 0.43314 0.16532 0.0
C2111 C 0.98808 0.43623 0.15352 0.0
C2112 C 0.99796 0.41394 0.17184 0.0
C2113 C 0.00975 0.42114 0.1483 0.0
C2114 C 0.0251 0.40212 0.15472 0.0
C2115 C 0.03275 0.37729 0.17295 0.0
C2116 C 0.02623 0.37295 0.18471 0.0
C2117 C 0.01883 0.39777 0.16648 0.0
C2118 C 0.00631 0.38992 0.18998 0.0
C2119 C 0.99204 0.40999 0.1836 0.0
H2120 H 0.60984 0.5385 0.1596 0.0
H2121 H 0.50914 0.54857 0.15061 0.0
H2122 H 0.5337 0.60765 0.16233 0.0
H2123 H 0.58485 0.65717 0.17488 0.0
H2124 H 0.68767 0.64913 0.18247 0.0
H2125 H 0.66191 0.58904 0.17125 0.0
C2126 C 0.59363 0.55403 0.16001 0.0
C2127 C 0.55789 0.5394 0.15419 0.0
C2128 C 0.6085 0.58844 0.16644 0.0
C2129 C 0.53658 0.55913 0.15511 0.0
C2130 C 0.55073 0.593 0.16174 0.0
C2131 C 0.60152 0.64219 0.17401 0.0
C2132 C 0.63819 0.65753 0.17935 0.0
C2133 C 0.58675 0.60799 0.16742 0.0
C2134 C 0.65968 0.63808 0.17825 0.0
C2135 C 0.64487 0.60367 0.1719 0.0
H2136 H 0.24892 0.00057 0.99436 0.0
H2137 H 0.35764 0.01985 0.97986 0.0
H2138 H 0.39282 0.08414 0.98898 0.0
H2139 H 0.39274 0.13411 0.00123 0.0
H2140 H 0.28576 0.1131 0.01736 0.0
H2141 H 0.24924 0.05079 0.00709 0.0
C2142 C 0.28033 0.01896 0.99325 0.0
C2143 C 0.30091 0.00548 0.98663 0.0
C2144 C 0.30039 0.05561 0.99866 0.0
C2145 C 0.34147 0.02939 0.98514 0.0
C2146 C 0.36147 0.0662 0.99027 0.0
C2147 C 0.36147 0.11572 0.00258 0.0
C2148 C 0.34195 0.12795 0.01008 0.0
C2149 C 0.34126 0.07942 0.9971 0.0
C2150 C 0.30129 0.10442 0.01152 0.0
C2151 C 0.28056 0.06868 0.00576 0.0
H2152 H 0.90677 0.25904 0.02197 0.0
H2153 H 0.83017 0.19439 0.9943 0.0
H2154 H 0.88605 0.2211 0.98125 0.0
H2155 H 0.95597 0.26628 0.97756 0.0
H2156 H 0.03278 0.33045 0.00532 0.0
H2157 H 0.97755 0.30121 0.01848 0.0
C2158 C 0.90259 0.2507 0.01309 0.0
C2159 C 0.86475 0.22509 0.00901 0.0
C2160 C 0.93468 0.26668 0.00565 0.0
C2161 C 0.85928 0.21401 0.99756 0.0
C2162 C 0.8911 0.22947 0.99011 0.0
C2163 C 0.96058 0.27376 0.9865 0.0
C2164 C 0.99808 0.30161 0.99039 0.0
C2165 C 0.92881 0.25638 0.99403 0.0
C2166 C 0.00386 0.31052 0.00202 0.0
C2167 C 0.9724 0.29338 0.00958 0.0
H2168 H 0.75026 0.67862 0.02694 0.0
H2169 H 0.81081 0.6582 -0.00029 0.0
H2170 H 0.78331 0.68469 0.98603 0.0
H2171 H 0.73664 0.70721 0.98162 0.0
H2172 H 0.67225 0.72292 0.00871 0.0
H2173 H 0.70541 0.70346 0.02261 0.0
C2174 C 0.75743 0.68015 0.018 0.0
C2175 C 0.78203 0.66611 0.01428 0.0
C2176 C 0.74 0.69358 0.01015 0.0
C2177 C 0.79202 0.66903 0.00275 0.0
C2178 C 0.77594 0.68371 0.99493 0.0
C2179 C 0.73 0.70645 0.99058 0.0
C2180 C 0.7013 0.71541 0.99412 0.0
C2181 C 0.749 0.69499 0.99849 0.0
C2182 C 0.69322 0.71479 0.00575 0.0
C2183 C 0.71251 0.70412 0.0137 0.0
H2184 H 0.6631 0.07122 0.82818 0.0
H2185 H 0.6533 0.95989 0.82005 0.0
H2186 H 0.59312 0.92584 0.83119 0.0
H2187 H 0.54284 0.92767 0.84297 0.0
H2188 H 0.55263 0.03861 0.85153 0.0
H2189 H 0.61283 0.07302 0.84027 0.0
C2190 C 0.64775 0.03952 0.8289 0.0
C2191 C 0.66297 0.01809 0.82355 0.0
C2192 C 0.6131 0.02016 0.8353 0.0
C2193 C 0.64274 0.97704 0.8244 0.0
C2194 C 0.60817 0.95756 0.83068 0.0
C2195 C 0.5585 0.95941 0.84251 0.0
C2196 C 0.54363 0.98068 0.8481 0.0
C2197 C 0.59317 0.97882 0.83618 0.0
C2198 C 0.56353 0.0217 0.84721 0.0
C2199 C 0.59796 0.04132 0.84083 0.0
H2200 H 0.99612 0.60906 0.80741 0.0
H2201 H 0.96075 0.65497 0.83538 0.0
H2202 H 0.98223 0.62243 0.84885 0.0
H2203 H 0.01264 0.58213 0.8527 0.0
H2204 H 0.04796 0.53602 0.82484 0.0
H2205 H 0.02398 0.5664 0.81126 0.0
C2206 C 0.99317 0.61189 0.81646 0.0
C2207 C 0.97823 0.6355 0.82042 0.0
C2208 C 0.00518 0.59271 0.82415 0.0
C2209 C 0.9738 0.63838 0.83214 0.0
C2210 C 0.98559 0.61936 0.83985 0.0
C2211 C 0.01489 0.57875 0.84364 0.0
C2212 C 0.03208 0.55723 0.83969 0.0
C2213 C 0.00169 0.5968 0.83595 0.0
C2214 C 0.0346 0.55245 0.82799 0.0
C2215 C 0.02116 0.56998 0.82026 0.0
H2216 H 0.42252 0.40769 0.85839 0.0
H2217 H 0.46257 0.49432 0.83181 0.0
H2218 H 0.43267 0.44254 0.81752 0.0
H2219 H 0.3923 0.37274 0.81267 0.0
H2220 H 0.34831 0.28622 0.83932 0.0
H2221 H 0.38114 0.33774 0.85355 0.0
C2222 C 0.42421 0.41515 0.84948 0.0
C2223 C 0.44441 0.45468 0.84614 0.0
C2224 C 0.40567 0.38527 0.84136 0.0
C2225 C 0.44747 0.46401 0.83455 0.0
C2226 C 0.43009 0.43447 0.8264 0.0
C2227 C 0.3899 0.36526 0.8216 0.0
C2228 C 0.36731 0.32589 0.82497 0.0
C2229 C 0.40869 0.39504 0.82972 0.0
C2230 C 0.36454 0.31643 0.83654 0.0
C2231 C 0.38369 0.34584 0.84467 0.0
H2232 H 0.68671 0.89215 0.9914 0.0
H2233 H 0.5684 0.87157 0.99131 0.0
H2234 H 0.58757 0.92744 0.00382 0.0
H2235 H 0.63792 0.98246 0.01477 0.0
H2236 H 0.75517 0.00083 0.01628 0.0
H2237 H 0.73643 0.94493 0.00354 0.0
C2238 C 0.66517 0.89979 0.99422 0.0
C2239 C 0.62645 0.8784 0.99021 0.0
C2240 C 0.67617 0.93137 0.00173 0.0
C2241 C 0.59872 0.88846 0.99394 0.0
C2242 C 0.60953 0.92013 0.00121 0.0
C2243 C 0.65931 0.97422 0.01225 0.0
C2244 C 0.69791 0.99584 0.01625 0.0
C2245 C 0.6482 0.94195 0.00508 0.0
C2246 C 0.72527 0.98448 0.01322 0.0
C2247 C 0.7146 0.9527 0.00593 0.0
H2248 H 0.9803 0.70254 0.00382 0.0
H2249 H 0.04851 0.70714 0.03299 0.0
H2250 H 0.10861 0.7405 0.02175 0.0
H2251 H 0.1415 0.76591 0.00337 0.0
H2252 H 0.07318 0.7603 0.97418 0.0
H2253 H 0.01313 0.72903 0.98558 0.0
C2254 C 0.00815 0.71003 0.00766 0.0
C2255 C 0.00982 0.70137 0.01914 0.0
C2256 C 0.04252 0.72908 0.00113 0.0
C2257 C 0.04646 0.71319 0.02413 0.0
C2258 C 0.08081 0.7322 0.01771 0.0
C2259 C 0.11342 0.75819 0.9996 0.0
C2260 C 0.11141 0.76528 0.98803 0.0
C2261 C 0.07917 0.74004 0.00619 0.0
C2262 C 0.07509 0.75492 0.9831 0.0
C2263 C 0.04089 0.73707 0.98961 0.0
H2264 H 0.22359 0.37375 0.00207 0.0
H2265 H 0.23643 0.31818 0.97221 0.0
H2266 H 0.26915 0.29039 0.98339 0.0
H2267 H 0.29621 0.28403 0.00157 0.0
H2268 H 0.28346 0.33953 0.03148 0.0
H2269 H 0.24794 0.36472 0.02049 0.0
C2270 C 0.23312 0.35507 0.9981 0.0
C2271 C 0.2279 0.34797 0.98639 0.0
C2272 C 0.25206 0.33948 0.00458 0.0
C2273 C 0.24049 0.32407 0.98123 0.0
C2274 C 0.25916 0.30827 0.98761 0.0
C2275 C 0.28601 0.30205 0.00562 0.0
C2276 C 0.29328 0.31095 0.01721 0.0
C2277 C 0.26566 0.3163 0.99925 0.0
C2278 C 0.27858 0.33286 0.02251 0.0
C2279 C 0.25833 0.34723 0.01624 0.0
H2280 H 0.00361 0.26261 0.50291 0.0
H2281 H 0.01611 0.37459 0.51167 0.0
H2282 H 0.0761 0.4081 0.50036 0.0
H2283 H 0.12581 0.4055 0.48849 0.0
H2284 H 0.11136 0.29367 0.47854 0.0
H2285 H 0.05177 0.25998 0.49005 0.0
C2286 C 0.01949 0.29434 0.50227 0.0
C2287 C 0.00544 0.31619 0.50798 0.0
C2288 C 0.05369 0.31331 0.49567 0.0
C2289 C 0.02609 0.35723 0.50716 0.0
C2290 C 0.06048 0.37636 0.50077 0.0
C2291 C 0.10923 0.37375 0.48865 0.0
C2292 C 0.12293 0.35209 0.48267 0.0
C2293 C 0.07455 0.35469 0.49501 0.0
C2294 C 0.10166 0.31097 0.48321 0.0
C2295 C 0.06749 0.29173 0.48972 0.0
H2296 H 0.69656 0.80447 0.48997 0.0
H2297 H 0.5786 0.70617 0.48989 0.0
H2298 H 0.59727 0.6713 0.50326 0.0
H2299 H 0.64721 0.66798 0.51476 0.0
H2300 H 0.76422 0.76722 0.51618 0.0
H2301 H 0.74583 0.80301 0.50277 0.0
C2302 C 0.67502 0.77555 0.49297 0.0
C2303 C 0.6366 0.75739 0.48868 0.0
C2304 C 0.68575 0.75597 0.50093 0.0
C2305 C 0.60876 0.7201 0.4927 0.0
C2306 C 0.61928 0.70029 0.50045 0.0
C2307 C 0.66864 0.6974 0.51208 0.0
C2308 C 0.70707 0.71482 0.51623 0.0
C2309 C 0.65774 0.71773 0.50452 0.0
C2310 C 0.73445 0.7533 0.513 0.0
C2311 C 0.72398 0.77364 0.50533 0.0
H2312 H 0.20174 0.89716 0.49038 0.0
H2313 H 0.3015 0.88007 0.49217 0.0
H2314 H 0.33642 0.93838 0.504 0.0
H2315 H 0.33831 0.99377 0.5141 0.0
H2316 H 0.23806 0.0102 0.5129 0.0
H2317 H 0.20326 0.95226 0.50082 0.0
C2318 C 0.23103 0.90621 0.49343 0.0
C2319 C 0.24929 0.88482 0.49028 0.0
C2320 C 0.25078 0.93957 0.50036 0.0
C2321 C 0.28725 0.89671 0.49425 0.0
C2322 C 0.30712 0.92986 0.50109 0.0
C2323 C 0.30915 0.98507 0.51102 0.0
C2324 C 0.29107 0.00663 0.51417 0.0
C2325 C 0.28927 0.95163 0.50416 0.0
C2326 C 0.25265 0.99413 0.5105 0.0
C2327 C 0.23276 0.96106 0.50359 0.0
H2328 H 0.96474 0.36939 0.31598 0.0
H2329 H 0.93835 0.28683 0.34321 0.0
H2330 H 0.9581 0.33941 0.35716 0.0
H2331 H 0.98569 0.40949 0.36154 0.0
H2332 H 0.01562 0.49249 0.33427 0.0
H2333 H 0.99016 0.4391 0.32039 0.0
C2334 C 0.96326 0.36301 0.32497 0.0
C2335 C 0.95122 0.32465 0.32858 0.0
C2336 C 0.97483 0.3934 0.33291 0.0
C2337 C 0.94885 0.31647 0.34024 0.0
C2338 C 0.95974 0.34641 0.34821 0.0
C2339 C 0.98661 0.41573 0.35255 0.0
C2340 C 0.00286 0.45468 0.34887 0.0
C2341 C 0.97333 0.38507 0.34463 0.0
C2342 C 0.00306 0.46258 0.33726 0.0
C2343 C 0.98888 0.43215 0.32933 0.0
H2344 H 0.53577 0.60914 0.33141 0.0
H2345 H 0.54732 0.51333 0.34464 0.0
H2346 H 0.60919 0.53725 0.33436 0.0
H2347 H 0.66144 0.58728 0.32223 0.0
H2348 H 0.6524 0.68629 0.31066 0.0
H2349 H 0.58859 0.66003 0.31997 0.0
C2350 C 0.55204 0.59373 0.33216 0.0
C2351 C 0.53701 0.55952 0.33877 0.0
C2352 C 0.58823 0.60856 0.32663 0.0
C2353 C 0.55798 0.53938 0.33945 0.0
C2354 C 0.59352 0.55327 0.33367 0.0
C2355 C 0.64537 0.60299 0.32178 0.0
C2356 C 0.66149 0.63875 0.3159 0.0
C2357 C 0.6091 0.58804 0.32733 0.0
C2358 C 0.64066 0.65901 0.31532 0.0
C2359 C 0.60417 0.64389 0.32057 0.0
H2360 H 0.33071 0.97116 0.31526 0.0
H2361 H 0.42263 0.09156 0.31794 0.0
H2362 H 0.45743 0.07304 0.33167 0.0
H2363 H 0.46019 0.02227 0.34338 0.0
H2364 H 0.3711 0.90119 0.33893 0.0
H2365 H 0.33636 0.92014 0.32561 0.0
C2366 C 0.35841 0.99319 0.31886 0.0
C2367 C 0.37407 0.03256 0.31577 0.0
C2368 C 0.37846 0.98221 0.32652 0.0
C2369 C 0.4102 0.06102 0.32028 0.0
C2370 C 0.42995 0.05046 0.32813 0.0
C2371 C 0.43339 0.00011 0.3394 0.0
C2372 C 0.41764 0.96051 0.34241 0.0
C2373 C 0.41421 0.01111 0.33137 0.0
C2374 C 0.38301 0.93202 0.33713 0.0
C2375 C 0.36333 0.94276 0.32939 0.0
H2376 H 0.01366 0.215 0.2773 0.0
H2377 H 0.90375 0.17788 0.26035 0.0
H2378 H 0.93816 0.20193 0.2422 0.0
H2379 H 0.99877 0.22813 0.23103 0.0
H2380 H 0.10748 0.25689 0.24762 0.0
H2381 H 0.0746 0.24191 0.26611 0.0
C2382 C 0.9975 0.21293 0.26963 0.0
C2383 C 0.95648 0.19542 0.27007 0.0
C2384 C 0.01731 0.22513 0.25922 0.0
C2385 C 0.93541 0.19171 0.26013 0.0
C2386 C 0.95506 0.20532 0.24979 0.0
C2387 C 0.01542 0.23193 0.23873 0.0
C2388 C 0.0556 0.24413 0.23802 0.0
C2389 C 0.99592 0.22142 0.24921 0.0
C2390 C 0.07662 0.24785 0.248 0.0
C2391 C 0.05779 0.23914 0.25854 0.0
H2392 H 0.83372 0.83409 0.23068 0.0
H2393 H 0.71048 0.77059 0.23852 0.0
H2394 H 0.72371 0.74263 0.25547 0.0
H2395 H 0.77115 0.73856 0.2683 0.0
H2396 H 0.89403 0.79932 0.25938 0.0
H2397 H 0.8799 0.82498 0.24237 0.0
C2398 C 0.80986 0.81447 0.23621 0.0
C2399 C 0.77139 0.80527 0.23367 0.0
C2400 C 0.81756 0.79746 0.24557 0.0
C2401 C 0.74041 0.77864 0.24054 0.0
C2402 C 0.74798 0.7625 0.25014 0.0
C2403 C 0.79478 0.75681 0.26254 0.0
C2404 C 0.8337 0.76726 0.26524 0.0
C2405 C 0.78653 0.77183 0.25275 0.0
C2406 C 0.86383 0.7908 0.25759 0.0
C2407 C 0.85587 0.80586 0.24789 0.0
H2408 H 0.13991 0.98016 0.23066 0.0
H2409 H 0.22177 0.93785 0.23205 0.0
H2410 H 0.24786 0.9724 0.25006 0.0
H2411 H 0.24799 0.01581 0.2652 0.0
H2412 H 0.16854 0.06127 0.2628 0.0
H2413 H 0.14169 0.02513 0.24526 0.0
C2414 C 0.1629 0.97783 0.23504 0.0
C2415 C 0.17825 0.95572 0.23022 0.0
C2416 C 0.17883 0.99913 0.24507 0.0
C2417 C 0.20904 0.95414 0.23574 0.0
C2418 C 0.22418 0.97419 0.24596 0.0
C2419 C 0.22514 0.01822 0.26078 0.0
C2420 C 0.21038 0.04131 0.26539 0.0
C2421 C 0.2096 0.99718 0.25064 0.0
C2422 C 0.18064 0.04388 0.25951 0.0
C2423 C 0.16496 0.02294 0.24949 0.0
H2424 H 0.98554 0.74497 0.76823 0.0
H2425 H 0.91512 0.79695 0.75921 0.0
H2426 H 0.95325 0.82353 0.74196 0.0
H2427 H 0.00954 0.83641 0.73013 0.0
H2428 H 0.07789 0.78184 0.73814 0.0
H2429 H 0.03814 0.75247 0.75526 0.0
C2430 C 0.97794 0.7614 0.76239 0.0
C2431 C 0.94764 0.76923 0.76513 0.0
C2432 C 0.00035 0.77709 0.75248 0.0
C2433 C 0.93828 0.79052 0.75739 0.0
C2434 C 0.96034 0.80611 0.74755 0.0
C2435 C 0.01593 0.81843 0.73573 0.0
C2436 C 0.04723 0.81223 0.73319 0.0
C2437 C 0.99211 0.80058 0.7452 0.0
C2438 C 0.05444 0.78765 0.74016 0.0
C2439 C 0.03154 0.77068 0.74985 0.0
H2440 H 0.21657 0.22396 0.77266 0.0
H2441 H 0.27865 0.17833 0.75376 0.0
H2442 H 0.26525 0.20222 0.73604 0.0
H2443 H 0.23 0.22972 0.72587 0.0
H2444 H 0.15939 0.26591 0.74456 0.0
H2445 H 0.18207 0.25242 0.76249 0.0
C2446 C 0.22795 0.22019 0.76466 0.0
C2447 C 0.24921 0.20021 0.76446 0.0
C2448 C 0.21818 0.23197 0.75452 0.0
C2449 C 0.26269 0.19413 0.75407 0.0
C2450 C 0.25484 0.20759 0.74397 0.0
C2451 C 0.22031 0.23548 0.73389 0.0
C2452 C 0.19355 0.24933 0.73395 0.0
C2453 C 0.23183 0.2257 0.74408 0.0
C2454 C 0.18022 0.25557 0.74435 0.0
C2455 C 0.19309 0.24773 0.75457 0.0
H2456 H 0.82756 0.06785 0.75581 0.0
H2457 H 0.76408 0.9685 0.77787 0.0
H2458 H 0.74252 0.92416 0.76153 0.0
H2459 H 0.74604 0.9134 0.74086 0.0
H2460 H 0.80393 0.01397 0.71888 0.0
H2461 H 0.82333 0.05793 0.73516 0.0
C2462 C 0.80837 0.03657 0.75697 0.0
C2463 C 0.79738 0.02139 0.76796 0.0
C2464 C 0.79546 0.01139 0.74754 0.0
C2465 C 0.77249 0.98083 0.76943 0.0
C2466 C 0.76047 0.95543 0.76011 0.0
C2467 C 0.76247 0.94492 0.7397 0.0
C2468 C 0.77394 0.96052 0.72875 0.0
C2469 C 0.77241 0.97028 0.74911 0.0
C2470 C 0.79491 0.00141 0.72727 0.0
C2471 C 0.80606 0.02658 0.73656 0.0
H2472 H 0.65604 0.55905 0.60241 0.0
H2473 H 0.6059 0.43423 0.59773 0.0
H2474 H 0.6422 0.44584 0.58003 0.0
H2475 H 0.68804 0.49137 0.5658 0.0
H2476 H 0.73596 0.61582 0.5701 0.0
H2477 H 0.70149 0.60443 0.5882 0.0
C2478 C 0.65266 0.53428 0.59748 0.0
C2479 C 0.62803 0.49578 0.60143 0.0
C2480 C 0.67394 0.54114 0.58736 0.0
C2481 C 0.62439 0.46418 0.59491 0.0
C2482 C 0.64541 0.47078 0.58482 0.0
C2483 C 0.69163 0.51601 0.57084 0.0
C2484 C 0.71509 0.55444 0.56675 0.0
C2485 C 0.67054 0.50913 0.58101 0.0
C2486 C 0.71849 0.58604 0.57317 0.0
C2487 C 0.6985 0.5795 0.58345 0.0
H2488 H 0.43419 0.08154 0.60201 0.0
H2489 H 0.55449 0.17542 0.59974 0.0
H2490 H 0.53804 0.20276 0.58359 0.0
H2491 H 0.49003 0.20102 0.57024 0.0
H2492 H 0.37103 0.10502 0.57095 0.0
H2493 H 0.38618 0.07791 0.58774 0.0
C2494 C 0.45688 0.10775 0.59791 0.0
C2495 C 0.49556 0.12634 0.60216 0.0
C2496 C 0.44729 0.12341 0.5885 0.0
C2497 C 0.52455 0.16025 0.59668 0.0
C2498 C 0.51514 0.1762 0.58748 0.0
C2499 C 0.46717 0.17456 0.57421 0.0
C2500 C 0.42918 0.15561 0.56961 0.0
C2501 C 0.4766 0.15834 0.58342 0.0
C2502 C 0.40026 0.12049 0.57453 0.0
C2503 C 0.40905 0.10488 0.58404 0.0
H2504 H 0.92749 0.36121 0.59856 0.0
H2505 H 0.84839 0.40657 0.59449 0.0
H2506 H 0.82286 0.36898 0.57713 0.0
H2507 H 0.82037 0.32095 0.56356 0.0
H2508 H 0.90181 0.2785 0.56643 0.0
H2509 H 0.92862 0.31669 0.58393 0.0
C2510 C 0.90508 0.36335 0.5938 0.0
C2511 C 0.88974 0.38656 0.59794 0.0
C2512 C 0.89032 0.34149 0.58375 0.0
C2513 C 0.8608 0.389 0.59158 0.0
C2514 C 0.84587 0.36723 0.58167 0.0
C2515 C 0.84366 0.31968 0.56811 0.0
C2516 C 0.85842 0.29618 0.56395 0.0
C2517 C 0.8598 0.34278 0.57782 0.0
C2518 C 0.88958 0.29588 0.56964 0.0
C2519 C 0.90501 0.31789 0.57958 0.0
H2520 H 0.68871 0.10795 0.06494 0.0
H2521 H 0.72154 0.22992 0.06805 0.0
H2522 H 0.68615 0.21601 0.08598 0.0
H2523 H 0.64425 0.16897 0.10053 0.0
H2524 H 0.61354 0.0477 0.09783 0.0
H2525 H 0.64899 0.06145 0.07982 0.0
C2526 C 0.6886 0.13167 0.06958 0.0
C2527 C 0.70781 0.16996 0.06508 0.0
C2528 C 0.6678 0.12342 0.07984 0.0
C2529 C 0.70721 0.2002 0.07128 0.0
C2530 C 0.68665 0.19222 0.0815 0.0
C2531 C 0.64478 0.14544 0.09589 0.0
C2532 C 0.62566 0.10721 0.10036 0.0
C2533 C 0.6663 0.15385 0.08576 0.0
C2534 C 0.62761 0.07724 0.09446 0.0
C2535 C 0.64811 0.08516 0.08422 0.0
H2536 H 0.89641 0.58418 0.06665 0.0
H2537 H 0.77192 0.51425 0.0729 0.0
H2538 H 0.78454 0.48679 0.08983 0.0
H2539 H 0.83056 0.48046 0.10247 0.0
H2540 H 0.95487 0.55281 0.0971 0.0
H2541 H 0.94272 0.58081 0.08001 0.0
C2542 C 0.87199 0.56335 0.07178 0.0
C2543 C 0.83321 0.55121 0.06842 0.0
C2544 C 0.87941 0.54733 0.08149 0.0
C2545 C 0.80205 0.52419 0.07524 0.0
C2546 C 0.80921 0.50816 0.08488 0.0
C2547 C 0.85493 0.50186 0.09742 0.0
C2548 C 0.89351 0.5138 0.10077 0.0
C2549 C 0.84767 0.51889 0.08795 0.0
C2550 C 0.92495 0.54268 0.09449 0.0
C2551 C 0.91797 0.55888 0.0848 0.0
H2552 H 0.41226 0.30978 0.06516 0.0
H2553 H 0.4983 0.27242 0.06702 0.0
H2554 H 0.52301 0.30782 0.08478 0.0
H2555 H 0.52196 0.35114 0.09951 0.0
H2556 H 0.4339 0.38554 0.09855 0.0
H2557 H 0.4087 0.35018 0.0806 0.0
C2558 C 0.43609 0.30893 0.06951 0.0
C2559 C 0.45342 0.28849 0.06467 0.0
C2560 C 0.45037 0.32953 0.07977 0.0
C2561 C 0.48424 0.28775 0.07049 0.0
C2562 C 0.49869 0.30829 0.08064 0.0
C2563 C 0.49762 0.35136 0.09527 0.0
C2564 C 0.48036 0.37164 0.10017 0.0
C2565 C 0.48245 0.32981 0.08524 0.0
C2566 C 0.44799 0.3706 0.09482 0.0
C2567 C 0.43345 0.35019 0.08462 0.0
H2568 H 0.33106 0.87926 0.94056 0.0
H2569 H 0.22163 0.83676 0.92279 0.0
H2570 H 0.25693 0.85792 0.90466 0.0
H2571 H 0.31841 0.88312 0.89388 0.0
H2572 H 0.42632 0.91595 0.91154 0.0
H2573 H 0.39241 0.90426 0.92981 0.0
C2574 C 0.31514 0.87546 0.93271 0.0
C2575 C 0.27404 0.85733 0.93292 0.0
C2576 C 0.33542 0.88569 0.92237 0.0
C2577 C 0.25334 0.85118 0.92275 0.0
C2578 C 0.2735 0.8631 0.91243 0.0
C2579 C 0.33455 0.88842 0.90176 0.0
C2580 C 0.37482 0.90094 0.90146 0.0
C2581 C 0.31445 0.87968 0.91213 0.0
C2582 C 0.39537 0.90663 0.91164 0.0
C2583 C 0.37598 0.89985 0.92204 0.0
H2584 H 0.10254 0.43077 0.89342 0.0
H2585 H 0.10014 0.53031 0.90778 0.0
H2586 H 0.11401 0.51363 0.92661 0.0
H2587 H 0.13221 0.47386 0.9386 0.0
H2588 H 0.14218 0.37931 0.92373 0.0
H2589 H 0.11983 0.39067 0.90539 0.0
C2590 C 0.10417 0.44831 0.90072 0.0
C2591 C 0.09976 0.48143 0.89927 0.0
C2592 C 0.11393 0.43959 0.91135 0.0
C2593 C 0.1031 0.50454 0.90873 0.0
C2594 C 0.1112 0.4951 0.91946 0.0
C2595 C 0.12888 0.45548 0.93133 0.0
C2596 C 0.13822 0.42554 0.9324 0.0
C2597 C 0.11747 0.46319 0.92081 0.0
C2598 C 0.13476 0.40227 0.92301 0.0
C2599 C 0.12209 0.40884 0.91258 0.0
H2600 H 0.54684 0.65994 0.9421 0.0
H2601 H 0.60492 0.76943 0.92392 0.0
H2602 H 0.59432 0.73392 0.90596 0.0
H2603 H 0.56285 0.67178 0.89539 0.0
H2604 H 0.49597 0.56266 0.91335 0.0
H2605 H 0.51578 0.59769 0.93152 0.0
C2606 C 0.55794 0.67592 0.93421 0.0
C2607 C 0.57732 0.71715 0.93427 0.0
C2608 C 0.54978 0.65527 0.92393 0.0
C2609 C 0.59041 0.73771 0.92402 0.0
C2610 C 0.58417 0.7174 0.91379 0.0
C2611 C 0.55337 0.65564 0.90331 0.0
C2612 C 0.52855 0.61467 0.9031 0.0
C2613 C 0.56316 0.67619 0.91363 0.0
C2614 C 0.51538 0.59413 0.91336 0.0
C2615 C 0.5266 0.61418 0.92371 0.0
H2616 H 0.35288 0.43554 0.39323 0.0
H2617 H 0.40559 0.56002 0.39933 0.0
H2618 H 0.36984 0.54705 0.41711 0.0
H2619 H 0.32098 0.5009 0.4304 0.0
H2620 H 0.27083 0.37659 0.42533 0.0
H2621 H 0.30767 0.38891 0.40752 0.0
C2622 C 0.35711 0.45986 0.39853 0.0
C2623 C 0.38176 0.49876 0.39484 0.0
C2624 C 0.33617 0.45224 0.40877 0.0
C2625 C 0.38683 0.52981 0.40188 0.0
C2626 C 0.36611 0.52246 0.41203 0.0
C2627 C 0.31771 0.4765 0.4253 0.0
C2628 C 0.2924 0.43789 0.42893 0.0
C2629 C 0.34002 0.48388 0.4154 0.0
C2630 C 0.28958 0.40652 0.42253 0.0
C2631 C 0.31084 0.41361 0.41243 0.0
H2632 H 0.55945 0.89051 0.39277 0.0
H2633 H 0.47011 0.90271 0.41032 0.0
H2634 H 0.49117 0.88848 0.42842 0.0
H2635 H 0.53163 0.86759 0.43895 0.0
H2636 H 0.61451 0.84638 0.42103 0.0
H2637 H 0.5997 0.86928 0.4033 0.0
C2638 C 0.54518 0.89085 0.40061 0.0
C2639 C 0.51375 0.89833 0.4003 0.0
C2640 C 0.55617 0.88072 0.41085 0.0
C2641 C 0.4946 0.89744 0.41042 0.0
C2642 C 0.50656 0.88917 0.42073 0.0
C2643 C 0.54686 0.86868 0.43117 0.0
C2644 C 0.57459 0.85612 0.43122 0.0
C2645 C 0.53682 0.8801 0.421 0.0
C2646 C 0.59343 0.85641 0.42112 0.0
C2647 C 0.58485 0.86937 0.41103 0.0
H2648 H 0.14621 0.66603 0.44274 0.0
H2649 H 0.12396 0.75394 0.42866 0.0
H2650 H 0.09697 0.71419 0.41141 0.0
H2651 H 0.08493 0.65721 0.39995 0.0
H2652 H 0.1126 0.57201 0.4135 0.0
H2653 H 0.13183 0.60764 0.43152 0.0
C2654 C 0.135 0.67612 0.4359 0.0
C2655 C 0.13675 0.71251 0.43683 0.0
C2656 C 0.12061 0.65363 0.426 0.0
C2657 C 0.12264 0.72586 0.42802 0.0
C2658 C 0.10733 0.70318 0.41821 0.0
C2659 C 0.09441 0.64591 0.40691 0.0
C2660 C 0.09718 0.61183 0.40539 0.0
C2661 C 0.10679 0.66734 0.41705 0.0
C2662 C 0.11014 0.59806 0.41445 0.0
C2663 C 0.12129 0.61852 0.42473 0.0
loop_
_geom_bond_atom_site_label_1
_geom_bond_atom_site_label_2
_geom_bond_distance
_geom_bond_site_symmetry_2
_ccdc_geom_bond_type
Co0 O3 1.970 . S
Co0 N17 1.989 . S
Co0 O25 1.967 . S
Co0 O32 1.920 . S
Co1 O4 1.966 . S
Co1 N10 2.022 . S
Co1 N18 1.993 . S
Co1 O26 1.941 . S
C2 O3 1.258 . S
C2 O4 1.263 . S
O3 Co0 1.970 . S
O3 C2 1.258 . S
O4 Co1 1.966 . S
O4 C2 1.263 . S
C5 O6 1.235 . S
C5 O32 1.289 . S
O6 C5 1.235 . S
C7 C9 1.400 . S
C7 N10 1.351 . S
C7 C12 1.501 . S
C8 C9 1.387 . S
C8 N11 1.341 . S
C9 C7 1.400 . S
C9 C8 1.387 . S
N10 Co1 2.022 . S
N10 C7 1.351 . S
N10 N11 1.365 . S
N11 C8 1.341 . S
N11 N10 1.365 . S
N11 H31 0.862 . S
C12 C7 1.501 . S
C12 H13 0.961 . S
C12 H14 0.961 . S
C12 H15 0.960 1_455 S
H13 C12 0.961 . S
H14 C12 0.961 . S
H15 C12 0.960 1_655 S
C16 N17 1.342 . S
C16 C20 1.401 . S
C16 C21 1.499 . S
N17 Co0 1.989 . S
N17 C16 1.342 . S
N17 N18 1.388 . S
N18 Co1 1.993 . S
N18 N17 1.388 . S
N18 C19 1.346 . S
C19 N18 1.346 . S
C19 C20 1.396 . S
C19 C29 1.510 . S
C20 C16 1.401 . S
C20 C19 1.396 . S
C21 C16 1.499 . S
C21 H22 0.959 . S
C21 H23 0.960 . S
C21 H24 0.961 . S
H22 C21 0.959 . S
H23 C21 0.960 . S
H24 C21 0.961 . S
O25 Co0 1.967 . S
O25 C33 1.258 . S
O26 Co1 1.941 . S
O26 C33 1.266 . S
H27 C29 0.959 . S
H28 C29 0.961 . S
C29 C19 1.510 . S
C29 H27 0.959 . S
C29 H28 0.961 . S
C29 H30 0.960 . S
H30 C29 0.960 . S
H31 N11 0.862 . S
O32 Co0 1.920 . S
O32 C5 1.289 . S
C33 O25 1.258 . S
C33 O26 1.266 . S
Co34 O37 1.970 . S
Co34 N51 1.989 . S
Co34 O59 1.967 . S
Co34 O66 1.920 . S
Co35 O38 1.966 . S
Co35 N44 2.022 . S
Co35 N52 1.993 . S
Co35 O60 1.941 . S
C36 O37 1.258 . S
C36 O38 1.263 . S
O37 Co34 1.970 . S
O37 C36 1.258 . S
O38 Co35 1.966 . S
O38 C36 1.263 . S
C39 O40 1.235 . S
C39 O66 1.289 . S
O40 C39 1.235 . S
C41 C43 1.400 . S
C41 N44 1.351 . S
C41 C46 1.501 . S
C42 C43 1.387 . S
C42 N45 1.341 . S
C43 C41 1.400 . S
C43 C42 1.387 . S
N44 Co35 2.022 . S
N44 C41 1.351 . S
N44 N45 1.365 . S
N45 C42 1.341 . S
N45 N44 1.365 . S
N45 H65 0.862 . S
C46 C41 1.501 . S
C46 H47 0.961 . S
C46 H48 0.961 . S
C46 H49 0.960 . S
H47 C46 0.961 . S
H48 C46 0.961 . S
H49 C46 0.960 . S
C50 N51 1.342 . S
C50 C54 1.401 . S
C50 C55 1.499 . S
N51 Co34 1.989 . S
N51 C50 1.342 . S
N51 N52 1.388 . S
N52 Co35 1.993 . S
N52 N51 1.388 . S
N52 C53 1.346 . S
C53 N52 1.346 . S
C53 C54 1.396 . S
C53 C63 1.510 . S
C54 C50 1.401 . S
C54 C53 1.396 . S
C55 C50 1.499 . S
C55 H56 0.959 . S
C55 H57 0.960 . S
C55 H58 0.961 . S
H56 C55 0.959 . S
H57 C55 0.960 . S
H58 C55 0.961 . S
O59 Co34 1.967 . S
O59 C67 1.258 . S
O60 Co35 1.941 . S
O60 C67 1.266 . S
H61 C63 0.959 . S
H62 C63 0.961 . S
C63 C53 1.510 . S
C63 H61 0.959 . S
C63 H62 0.961 . S
C63 H64 0.960 . S
H64 C63 0.960 . S
H65 N45 0.862 . S
O66 Co34 1.920 . S
O66 C39 1.289 . S
C67 O59 1.258 . S
C67 O60 1.266 . S
Co68 O71 1.970 . S
Co68 N85 1.989 . S
Co68 O93 1.967 . S
Co68 O100 1.920 . S
Co69 O72 1.966 . S
Co69 N78 2.022 . S
Co69 N86 1.993 . S
Co69 O94 1.941 . S
C70 O71 1.258 . S
C70 O72 1.263 . S
O71 Co68 1.970 . S
O71 C70 1.258 . S
O72 Co69 1.966 . S
O72 C70 1.263 . S
C73 O74 1.235 . S
C73 O100 1.289 . S
O74 C73 1.235 . S
C75 C77 1.400 . S
C75 N78 1.351 . S
C75 C80 1.501 . S
C76 C77 1.387 . S
C76 N79 1.341 . S
C77 C75 1.400 . S
C77 C76 1.387 . S
N78 Co69 2.022 . S
N78 C75 1.351 . S
N78 N79 1.365 . S
N79 C76 1.341 . S
N79 N78 1.365 . S
N79 H99 0.862 . S
C80 C75 1.501 . S
C80 H81 0.961 . S
C80 H82 0.961 . S
C80 H83 0.960 1_565 S
H81 C80 0.961 . S
H82 C80 0.961 . S
H83 C80 0.960 1_545 S
C84 N85 1.342 . S
C84 C88 1.401 . S
C84 C89 1.499 . S
N85 Co68 1.989 . S
N85 C84 1.342 . S
N85 N86 1.388 . S
N86 Co69 1.993 . S
N86 N85 1.388 . S
N86 C87 1.346 . S
C87 N86 1.346 . S
C87 C88 1.396 . S
C87 C97 1.510 . S
C88 C84 1.401 . S
C88 C87 1.396 . S
C89 C84 1.499 . S
C89 H90 0.959 . S
C89 H91 0.960 . S
C89 H92 0.961 . S
H90 C89 0.959 . S
H91 C89 0.960 . S
H92 C89 0.961 . S
O93 Co68 1.967 . S
O93 C101 1.258 . S
O94 Co69 1.941 . S
O94 C101 1.266 . S
H95 C97 0.959 . S
H96 C97 0.961 . S
C97 C87 1.510 . S
C97 H95 0.959 . S
C97 H96 0.961 . S
C97 H98 0.960 . S
H98 C97 0.960 . S
H99 N79 0.862 . S
O100 Co68 1.920 . S
O100 C73 1.289 . S
C101 O93 1.258 . S
C101 O94 1.266 . S
Co102 O105 1.970 . S
Co102 N119 1.989 . S
Co102 O127 1.967 . S
Co102 O134 1.920 . S
Co103 O106 1.966 . S
Co103 N112 2.022 . S
Co103 N120 1.993 . S
Co103 O128 1.941 . S
C104 O105 1.258 . S
C104 O106 1.263 . S
O105 Co102 1.970 . S
O105 C104 1.258 . S
O106 Co103 1.966 . S
O106 C104 1.263 . S
C107 O108 1.235 . S
C107 O134 1.289 . S
O108 C107 1.235 . S
C109 C111 1.400 . S
C109 N112 1.351 . S
C109 C114 1.501 . S
C110 C111 1.387 . S
C110 N113 1.341 . S
C111 C109 1.400 . S
C111 C110 1.387 . S
N112 Co103 2.022 . S
N112 C109 1.351 . S
N112 N113 1.365 . S
N113 C110 1.341 . S
N113 N112 1.365 . S
N113 H133 0.862 . S
C114 C109 1.501 . S
C114 H115 0.961 . S
C114 H116 0.961 . S
C114 H117 0.960 1_545 S
H115 C114 0.961 . S
H116 C114 0.961 . S
H117 C114 0.960 1_565 S
C118 N119 1.342 . S
C118 C122 1.401 . S
C118 C123 1.499 . S
N119 Co102 1.989 . S
N119 C118 1.342 . S
N119 N120 1.388 . S
N120 Co103 1.993 . S
N120 N119 1.388 . S
N120 C121 1.346 . S
C121 N120 1.346 . S
C121 C122 1.396 . S
C121 C131 1.510 . S
C122 C118 1.401 . S
C122 C121 1.396 . S
C123 C118 1.499 . S
C123 H124 0.959 . S
C123 H125 0.960 . S
C123 H126 0.961 . S
H124 C123 0.959 . S
H125 C123 0.960 . S
H126 C123 0.961 . S
O127 Co102 1.967 . S
O127 C135 1.258 . S
O128 Co103 1.941 . S
O128 C135 1.266 . S
H129 C131 0.959 . S
H130 C131 0.961 . S
C131 C121 1.510 . S
C131 H129 0.959 . S
C131 H130 0.961 . S
C131 H132 0.960 . S
H132 C131 0.960 . S
H133 N113 0.862 . S
O134 Co102 1.920 . S
O134 C107 1.289 . S
C135 O127 1.258 . S
C135 O128 1.266 . S
Co136 O139 1.970 . S
Co136 N153 1.989 . S
Co136 O161 1.967 . S
Co136 O168 1.920 . S
Co137 O140 1.966 . S
Co137 N146 2.022 . S
Co137 N154 1.993 . S
Co137 O162 1.941 . S
C138 O139 1.258 . S
C138 O140 1.263 . S
O139 Co136 1.970 . S
O139 C138 1.258 . S
O140 Co137 1.966 . S
O140 C138 1.263 . S
C141 O142 1.235 . S
C141 O168 1.289 . S
O142 C141 1.235 . S
C143 C145 1.400 . S
C143 N146 1.351 . S
C143 C148 1.501 . S
C144 C145 1.387 . S
C144 N147 1.341 . S
C145 C143 1.400 . S
C145 C144 1.387 . S
N146 Co137 2.022 . S
N146 C143 1.351 . S
N146 N147 1.365 . S
N147 C144 1.341 . S
N147 N146 1.365 . S
N147 H167 0.862 . S
C148 C143 1.501 . S
C148 H149 0.961 . S
C148 H150 0.961 . S
C148 H151 0.960 1_655 S
H149 C148 0.961 . S
H150 C148 0.961 . S
H151 C148 0.960 1_455 S
C152 N153 1.342 . S
C152 C156 1.401 . S
C152 C157 1.499 . S
N153 Co136 1.989 . S
N153 C152 1.342 . S
N153 N154 1.388 . S
N154 Co137 1.993 . S
N154 N153 1.388 . S
N154 C155 1.346 . S
C155 N154 1.346 . S
C155 C156 1.396 . S
C155 C165 1.510 . S
C156 C152 1.401 . S
C156 C155 1.396 . S
C157 C152 1.499 . S
C157 H158 0.959 . S
C157 H159 0.960 . S
C157 H160 0.961 . S
H158 C157 0.959 . S
H159 C157 0.960 . S
H160 C157 0.961 . S
O161 Co136 1.967 . S
O161 C169 1.258 . S
O162 Co137 1.941 . S
O162 C169 1.266 . S
H163 C165 0.959 . S
H164 C165 0.961 . S
C165 C155 1.510 . S
C165 H163 0.959 . S
C165 H164 0.961 . S
C165 H166 0.960 . S
H166 C165 0.960 . S
H167 N147 0.862 . S
O168 Co136 1.920 . S
O168 C141 1.289 . S
C169 O161 1.258 . S
C169 O162 1.266 . S
Co170 O173 1.970 . S
Co170 N187 1.989 . S
Co170 O195 1.967 . S
Co170 O202 1.920 . S
Co171 O174 1.966 . S
Co171 N180 2.022 . S
Co171 N188 1.993 . S
Co171 O196 1.941 . S
C172 O173 1.258 . S
C172 O174 1.263 . S
O173 Co170 1.970 . S
O173 C172 1.258 . S
O174 Co171 1.966 . S
O174 C172 1.263 . S
C175 O176 1.235 . S
C175 O202 1.289 . S
O176 C175 1.235 . S
C177 C179 1.400 . S
C177 N180 1.351 . S
C177 C182 1.501 . S
C178 C179 1.387 . S
C178 N181 1.341 . S
C179 C177 1.400 . S
C179 C178 1.387 . S
N180 Co171 2.022 . S
N180 C177 1.351 . S
N180 N181 1.365 . S
N181 C178 1.341 . S
N181 N180 1.365 . S
N181 H201 0.862 . S
C182 C177 1.501 . S
C182 H183 0.961 . S
C182 H184 0.961 . S
C182 H185 0.960 . S
H183 C182 0.961 . S
H184 C182 0.961 . S
H185 C182 0.960 . S
C186 N187 1.342 . S
C186 C190 1.401 . S
C186 C191 1.499 . S
N187 Co170 1.989 . S
N187 C186 1.342 . S
N187 N188 1.388 . S
N188 Co171 1.993 . S
N188 N187 1.388 . S
N188 C189 1.346 . S
C189 N188 1.346 . S
C189 C190 1.396 . S
C189 C199 1.510 . S
C190 C186 1.401 . S
C190 C189 1.396 . S
C191 C186 1.499 . S
C191 H192 0.959 . S
C191 H193 0.960 . S
C191 H194 0.961 . S
H192 C191 0.959 . S
H193 C191 0.960 . S
H194 C191 0.961 . S
O195 Co170 1.967 . S
O195 C203 1.258 . S
O196 Co171 1.941 . S
O196 C203 1.266 . S
H197 C199 0.959 . S
H198 C199 0.961 . S
C199 C189 1.510 . S
C199 H197 0.959 . S
C199 H198 0.961 . S
C199 H200 0.960 . S
H200 C199 0.960 . S
H201 N181 0.862 . S
O202 Co170 1.920 . S
O202 C175 1.289 . S
C203 O195 1.258 . S
C203 O196 1.266 . S
Co204 O207 1.970 . S
Co204 N221 1.989 . S
Co204 O229 1.967 . S
Co204 O236 1.920 . S
Co205 O208 1.966 . S
Co205 N214 2.022 . S
Co205 N222 1.993 . S
Co205 O230 1.941 . S
C206 O207 1.258 . S
C206 O208 1.263 . S
O207 Co204 1.970 . S
O207 C206 1.258 . S
O208 Co205 1.966 . S
O208 C206 1.263 . S
C209 O210 1.235 . S
C209 O236 1.289 . S
O210 C209 1.235 . S
C211 C213 1.400 . S
C211 N214 1.351 . S
C211 C216 1.501 . S
C212 C213 1.387 . S
C212 N215 1.341 . S
C213 C211 1.400 . S
C213 C212 1.387 . S
N214 Co205 2.022 . S
N214 C211 1.351 . S
N214 N215 1.365 . S
N215 C212 1.341 . S
N215 N214 1.365 . S
N215 H235 0.862 . S
C216 C211 1.501 . S
C216 H217 0.961 . S
C216 H218 0.961 . S
C216 H219 0.960 1_655 S
H217 C216 0.961 . S
H218 C216 0.961 . S
H219 C216 0.960 1_455 S
C220 N221 1.342 . S
C220 C224 1.401 . S
C220 C225 1.499 . S
N221 Co204 1.989 . S
N221 C220 1.342 . S
N221 N222 1.388 . S
N222 Co205 1.993 . S
N222 N221 1.388 . S
N222 C223 1.346 . S
C223 N222 1.346 . S
C223 C224 1.396 . S
C223 C233 1.510 . S
C224 C220 1.401 . S
C224 C223 1.396 . S
C225 C220 1.499 . S
C225 H226 0.959 . S
C225 H227 0.960 . S
C225 H228 0.961 . S
H226 C225 0.959 . S
H227 C225 0.960 . S
H228 C225 0.961 . S
O229 Co204 1.967 . S
O229 C237 1.258 . S
O230 Co205 1.941 . S
O230 C237 1.266 . S
H231 C233 0.959 . S
H232 C233 0.961 . S
C233 C223 1.510 . S
C233 H231 0.959 . S
C233 H232 0.961 . S
C233 H234 0.960 . S
H234 C233 0.960 . S
H235 N215 0.862 . S
O236 Co204 1.920 . S
O236 C209 1.289 . S
C237 O229 1.258 . S
C237 O230 1.266 . S
Co238 O241 1.970 . S
Co238 N255 1.989 . S
Co238 O263 1.967 . S
Co238 O270 1.920 . S
Co239 O242 1.966 . S
Co239 N248 2.022 . S
Co239 N256 1.993 . S
Co239 O264 1.941 . S
C240 O241 1.258 . S
C240 O242 1.263 . S
O241 Co238 1.970 . S
O241 C240 1.258 . S
O242 Co239 1.966 . S
O242 C240 1.263 . S
C243 O244 1.235 . S
C243 O270 1.289 . S
O244 C243 1.235 . S
C245 C247 1.400 . S
C245 N248 1.351 . S
C245 C250 1.501 . S
C246 C247 1.387 . S
C246 N249 1.341 . S
C247 C245 1.400 . S
C247 C246 1.387 . S
N248 Co239 2.022 . S
N248 C245 1.351 . S
N248 N249 1.365 . S
N249 C246 1.341 . S
N249 N248 1.365 . S
N249 H269 0.862 . S
C250 C245 1.501 . S
C250 H251 0.961 . S
C250 H252 0.961 . S
C250 H253 0.960 . S
H251 C250 0.961 . S
H252 C250 0.961 . S
H253 C250 0.960 . S
C254 N255 1.342 . S
C254 C258 1.401 . S
C254 C259 1.499 . S
N255 Co238 1.989 . S
N255 C254 1.342 . S
N255 N256 1.388 . S
N256 Co239 1.993 . S
N256 N255 1.388 . S
N256 C257 1.346 . S
C257 N256 1.346 . S
C257 C258 1.396 . S
C257 C267 1.510 . S
C258 C254 1.401 . S
C258 C257 1.396 . S
C259 C254 1.499 . S
C259 H260 0.959 . S
C259 H261 0.960 . S
C259 H262 0.961 . S
H260 C259 0.959 . S
H261 C259 0.960 . S
H262 C259 0.961 . S
O263 Co238 1.967 . S
O263 C271 1.258 . S
O264 Co239 1.941 . S
O264 C271 1.266 . S
H265 C267 0.959 . S
H266 C267 0.961 . S
C267 C257 1.510 . S
C267 H265 0.959 . S
C267 H266 0.961 . S
C267 H268 0.960 . S
H268 C267 0.960 . S
H269 N249 0.862 . S
O270 Co238 1.920 . S
O270 C243 1.289 . S
C271 O263 1.258 . S
C271 O264 1.266 . S
Co272 O275 1.970 . S
Co272 N289 1.989 . S
Co272 O297 1.967 . S
Co272 O304 1.920 . S
Co273 O276 1.966 . S
Co273 N282 2.022 . S
Co273 N290 1.993 . S
Co273 O298 1.941 . S
C274 O275 1.258 . S
C274 O276 1.263 . S
O275 Co272 1.970 . S
O275 C274 1.258 . S
O276 Co273 1.966 . S
O276 C274 1.263 . S
C277 O278 1.235 . S
C277 O304 1.289 . S
O278 C277 1.235 . S
C279 C281 1.400 . S
C279 N282 1.351 . S
C279 C284 1.501 . S
C280 C281 1.387 . S
C280 N283 1.341 . S
C281 C279 1.400 . S
C281 C280 1.387 . S
N282 Co273 2.022 . S
N282 C279 1.351 . S
N282 N283 1.365 . S
N283 C280 1.341 . S
N283 N282 1.365 . S
N283 H303 0.862 . S
C284 C279 1.501 . S
C284 H285 0.961 . S
C284 H286 0.961 . S
C284 H287 0.960 1_545 S
H285 C284 0.961 . S
H286 C284 0.961 . S
H287 C284 0.960 1_565 S
C288 N289 1.342 . S
C288 C292 1.401 . S
C288 C293 1.499 . S
N289 Co272 1.989 . S
N289 C288 1.342 . S
N289 N290 1.388 . S
N290 Co273 1.993 . S
N290 N289 1.388 . S
N290 C291 1.346 . S
C291 N290 1.346 . S
C291 C292 1.396 . S
C291 C301 1.510 . S
C292 C288 1.401 . S
C292 C291 1.396 . S
C293 C288 1.499 . S
C293 H294 0.959 . S
C293 H295 0.960 . S
C293 H296 0.961 . S
H294 C293 0.959 . S
H295 C293 0.960 . S
H296 C293 0.961 . S
O297 Co272 1.967 . S
O297 C305 1.258 . S
O298 Co273 1.941 . S
O298 C305 1.266 . S
H299 C301 0.959 . S
H300 C301 0.961 . S
C301 C291 1.510 . S
C301 H299 0.959 . S
C301 H300 0.961 . S
C301 H302 0.960 . S
H302 C301 0.960 . S
H303 N283 0.862 . S
O304 Co272 1.920 . S
O304 C277 1.289 . S
C305 O297 1.258 . S
C305 O298 1.266 . S
Co306 O309 1.970 . S
Co306 N323 1.989 . S
Co306 O331 1.967 . S
Co306 O338 1.920 . S
Co307 O310 1.966 . S
Co307 N316 2.022 . S
Co307 N324 1.993 . S
Co307 O332 1.941 . S
C308 O309 1.258 . S
C308 O310 1.263 . S
O309 Co306 1.970 . S
O309 C308 1.258 . S
O310 Co307 1.966 . S
O310 C308 1.263 . S
C311 O312 1.235 . S
C311 O338 1.289 . S
O312 C311 1.235 . S
C313 C315 1.400 . S
C313 N316 1.351 . S
C313 C318 1.501 . S
C314 C315 1.387 . S
C314 N317 1.341 . S
C315 C313 1.400 . S
C315 C314 1.387 . S
N316 Co307 2.022 . S
N316 C313 1.351 . S
N316 N317 1.365 . S
N317 C314 1.341 . S
N317 N316 1.365 . S
N317 H337 0.862 . S
C318 C313 1.501 . S
C318 H319 0.961 . S
C318 H320 0.961 . S
C318 H321 0.960 1_565 S
H319 C318 0.961 . S
H320 C318 0.961 . S
H321 C318 0.960 1_545 S
C322 N323 1.342 . S
C322 C326 1.401 . S
C322 C327 1.499 . S
N323 Co306 1.989 . S
N323 C322 1.342 . S
N323 N324 1.388 . S
N324 Co307 1.993 . S
N324 N323 1.388 . S
N324 C325 1.346 . S
C325 N324 1.346 . S
C325 C326 1.396 . S
C325 C335 1.510 . S
C326 C322 1.401 . S
C326 C325 1.396 . S
C327 C322 1.499 . S
C327 H328 0.959 . S
C327 H329 0.960 . S
C327 H330 0.961 . S
H328 C327 0.959 . S
H329 C327 0.960 . S
H330 C327 0.961 . S
O331 Co306 1.967 . S
O331 C339 1.258 . S
O332 Co307 1.941 . S
O332 C339 1.266 . S
H333 C335 0.959 . S
H334 C335 0.961 . S
C335 C325 1.510 . S
C335 H333 0.959 . S
C335 H334 0.961 . S
C335 H336 0.960 . S
H336 C335 0.960 . S
H337 N317 0.862 . S
O338 Co306 1.920 . S
O338 C311 1.289 . S
C339 O331 1.258 . S
C339 O332 1.266 . S
Co340 O343 1.970 . S
Co340 N357 1.989 . S
Co340 O365 1.967 . S
Co340 O372 1.920 . S
Co341 O344 1.966 . S
Co341 N350 2.022 . S
Co341 N358 1.993 . S
Co341 O366 1.941 . S
C342 O343 1.258 . S
C342 O344 1.263 . S
O343 Co340 1.970 . S
O343 C342 1.258 . S
O344 Co341 1.966 . S
O344 C342 1.263 . S
C345 O346 1.235 . S
C345 O372 1.289 . S
O346 C345 1.235 . S
C347 C349 1.400 . S
C347 N350 1.351 . S
C347 C352 1.501 . S
C348 C349 1.387 . S
C348 N351 1.341 . S
C349 C347 1.400 . S
C349 C348 1.387 . S
N350 Co341 2.022 . S
N350 C347 1.351 . S
N350 N351 1.365 . S
N351 C348 1.341 . S
N351 N350 1.365 . S
N351 H371 0.862 . S
C352 C347 1.501 . S
C352 H353 0.961 . S
C352 H354 0.961 . S
C352 H355 0.960 1_455 S
H353 C352 0.961 . S
H354 C352 0.961 . S
H355 C352 0.960 1_655 S
C356 N357 1.342 . S
C356 C360 1.401 . S
C356 C361 1.499 . S
N357 Co340 1.989 . S
N357 C356 1.342 . S
N357 N358 1.388 . S
N358 Co341 1.993 . S
N358 N357 1.388 . S
N358 C359 1.346 . S
C359 N358 1.346 . S
C359 C360 1.396 . S
C359 C369 1.510 . S
C360 C356 1.401 . S
C360 C359 1.396 . S
C361 C356 1.499 . S
C361 H362 0.959 . S
C361 H363 0.960 . S
C361 H364 0.961 . S
H362 C361 0.959 . S
H363 C361 0.960 . S
H364 C361 0.961 . S
O365 Co340 1.967 . S
O365 C373 1.258 . S
O366 Co341 1.941 . S
O366 C373 1.266 . S
H367 C369 0.959 . S
H368 C369 0.961 . S
C369 C359 1.510 . S
C369 H367 0.959 . S
C369 H368 0.961 . S
C369 H370 0.960 . S
H370 C369 0.960 . S
H371 N351 0.862 . S
O372 Co340 1.920 . S
O372 C345 1.289 . S
C373 O365 1.258 . S
C373 O366 1.266 . S
Co374 O377 1.970 . S
Co374 N391 1.989 . S
Co374 O399 1.967 . S
Co374 O406 1.920 . S
Co375 O378 1.966 . S
Co375 N384 2.022 . S
Co375 N392 1.993 . S
Co375 O400 1.941 . S
C376 O377 1.258 . S
C376 O378 1.263 . S
O377 Co374 1.970 . S
O377 C376 1.258 . S
O378 Co375 1.966 . S
O378 C376 1.263 . S
C379 O380 1.235 . S
C379 O406 1.289 . S
O380 C379 1.235 . S
C381 C383 1.400 . S
C381 N384 1.351 . S
C381 C386 1.501 . S
C382 C383 1.387 . S
C382 N385 1.341 . S
C383 C381 1.400 . S
C383 C382 1.387 . S
N384 Co375 2.022 . S
N384 C381 1.351 . S
N384 N385 1.365 . S
N385 C382 1.341 . S
N385 N384 1.365 . S
N385 H405 0.862 . S
C386 C381 1.501 . S
C386 H387 0.961 . S
C386 H388 0.961 . S
C386 H389 0.960 . S
H387 C386 0.961 . S
H388 C386 0.961 . S
H389 C386 0.960 . S
C390 N391 1.342 . S
C390 C394 1.401 . S
C390 C395 1.499 . S
N391 Co374 1.989 . S
N391 C390 1.342 . S
N391 N392 1.388 . S
N392 Co375 1.993 . S
N392 N391 1.388 . S
N392 C393 1.346 . S
C393 N392 1.346 . S
C393 C394 1.396 . S
C393 C403 1.510 . S
C394 C390 1.401 . S
C394 C393 1.396 . S
C395 C390 1.499 . S
C395 H396 0.959 . S
C395 H397 0.960 . S
C395 H398 0.961 . S
H396 C395 0.959 . S
H397 C395 0.960 . S
H398 C395 0.961 . S
O399 Co374 1.967 . S
O399 C407 1.258 . S
O400 Co375 1.941 . S
O400 C407 1.266 . S
H401 C403 0.959 . S
H402 C403 0.961 . S
C403 C393 1.510 . S
C403 H401 0.959 . S
C403 H402 0.961 . S
C403 H404 0.960 . S
H404 C403 0.960 . S
H405 N385 0.862 . S
O406 Co374 1.920 . S
O406 C379 1.289 . S
C407 O399 1.258 . S
C407 O400 1.266 . S
Co408 O411 1.970 . S
Co408 N425 1.989 . S
Co408 O433 1.967 . S
Co408 O440 1.920 . S
Co409 O412 1.966 . S
Co409 N418 2.022 . S
Co409 N426 1.993 . S
Co409 O434 1.941 . S
C410 O411 1.258 . S
C410 O412 1.263 . S
O411 Co408 1.970 . S
O411 C410 1.258 . S
O412 Co409 1.966 . S
O412 C410 1.263 . S
C413 O414 1.235 . S
C413 O440 1.289 . S
O414 C413 1.235 . S
C415 C417 1.400 . S
C415 N418 1.351 . S
C415 C420 1.501 . S
C416 C417 1.387 . S
C416 N419 1.341 . S
C417 C415 1.400 . S
C417 C416 1.387 . S
N418 Co409 2.022 . S
N418 C415 1.351 . S
N418 N419 1.365 . S
N419 C416 1.341 . S
N419 N418 1.365 . S
N419 H439 0.862 . S
C420 C415 1.501 . S
C420 H421 0.961 . S
C420 H422 0.961 . S
C420 H423 0.960 . S
H421 C420 0.961 . S
H422 C420 0.961 . S
H423 C420 0.960 . S
C424 N425 1.342 . S
C424 C428 1.401 . S
C424 C429 1.499 . S
N425 Co408 1.989 . S
N425 C424 1.342 . S
N425 N426 1.388 . S
N426 Co409 1.993 . S
N426 N425 1.388 . S
N426 C427 1.346 . S
C427 N426 1.346 . S
C427 C428 1.396 . S
C427 C437 1.510 . S
C428 C424 1.401 . S
C428 C427 1.396 . S
C429 C424 1.499 . S
C429 H430 0.959 . S
C429 H431 0.960 . S
C429 H432 0.961 . S
H430 C429 0.959 . S
H431 C429 0.960 . S
H432 C429 0.961 . S
O433 Co408 1.967 . S
O433 C441 1.258 . S
O434 Co409 1.941 . S
O434 C441 1.266 . S
H435 C437 0.959 . S
H436 C437 0.961 . S
C437 C427 1.510 . S
C437 H435 0.959 . S
C437 H436 0.961 . S
C437 H438 0.960 . S
H438 C437 0.960 . S
H439 N419 0.862 . S
O440 Co408 1.920 . S
O440 C413 1.289 . S
C441 O433 1.258 . S
C441 O434 1.266 . S
Co442 O445 1.970 . S
Co442 N459 1.989 . S
Co442 O467 1.967 . S
Co442 O474 1.920 . S
Co443 O446 1.966 . S
Co443 N452 2.022 . S
Co443 N460 1.993 . S
Co443 O468 1.941 . S
C444 O445 1.258 . S
C444 O446 1.263 . S
O445 Co442 1.970 . S
O445 C444 1.258 . S
O446 Co443 1.966 . S
O446 C444 1.263 . S
C447 O448 1.235 . S
C447 O474 1.289 . S
O448 C447 1.235 . S
C449 C451 1.400 . S
C449 N452 1.351 . S
C449 C454 1.501 . S
C450 C451 1.387 . S
C450 N453 1.341 . S
C451 C449 1.400 . S
C451 C450 1.387 . S
N452 Co443 2.022 . S
N452 C449 1.351 . S
N452 N453 1.365 . S
N453 C450 1.341 . S
N453 N452 1.365 . S
N453 H473 0.862 . S
C454 C449 1.501 . S
C454 H455 0.961 . S
C454 H456 0.961 . S
C454 H457 0.960 . S
H455 C454 0.961 . S
H456 C454 0.961 . S
H457 C454 0.960 . S
C458 N459 1.342 . S
C458 C462 1.401 . S
C458 C463 1.499 . S
N459 Co442 1.989 . S
N459 C458 1.342 . S
N459 N460 1.388 . S
N460 Co443 1.993 . S
N460 N459 1.388 . S
N460 C461 1.346 . S
C461 N460 1.346 . S
C461 C462 1.396 . S
C461 C471 1.510 . S
C462 C458 1.401 . S
C462 C461 1.396 . S
C463 C458 1.499 . S
C463 H464 0.959 . S
C463 H465 0.960 . S
C463 H466 0.961 . S
H464 C463 0.959 . S
H465 C463 0.960 . S
H466 C463 0.961 . S
O467 Co442 1.967 . S
O467 C475 1.258 . S
O468 Co443 1.941 . S
O468 C475 1.266 . S
H469 C471 0.959 . S
H470 C471 0.961 . S
C471 C461 1.510 . S
C471 H469 0.959 . S
C471 H470 0.961 . S
C471 H472 0.960 . S
H472 C471 0.960 . S
H473 N453 0.862 . S
O474 Co442 1.920 . S
O474 C447 1.289 . S
C475 O467 1.258 . S
C475 O468 1.266 . S
Co476 O479 1.970 . S
Co476 N493 1.989 . S
Co476 O501 1.967 . S
Co476 O508 1.920 . S
Co477 O480 1.966 . S
Co477 N486 2.022 . S
Co477 N494 1.993 . S
Co477 O502 1.941 . S
C478 O479 1.258 . S
C478 O480 1.263 . S
O479 Co476 1.970 . S
O479 C478 1.258 . S
O480 Co477 1.966 . S
O480 C478 1.263 . S
C481 O482 1.235 . S
C481 O508 1.289 . S
O482 C481 1.235 . S
C483 C485 1.400 . S
C483 N486 1.351 . S
C483 C488 1.501 . S
C484 C485 1.387 . S
C484 N487 1.341 . S
C485 C483 1.400 . S
C485 C484 1.387 . S
N486 Co477 2.022 . S
N486 C483 1.351 . S
N486 N487 1.365 . S
N487 C484 1.341 . S
N487 N486 1.365 . S
N487 H507 0.862 . S
C488 C483 1.501 . S
C488 H489 0.961 . S
C488 H490 0.961 . S
C488 H491 0.960 . S
H489 C488 0.961 . S
H490 C488 0.961 . S
H491 C488 0.960 . S
C492 N493 1.342 . S
C492 C496 1.401 . S
C492 C497 1.499 . S
N493 Co476 1.989 . S
N493 C492 1.342 . S
N493 N494 1.388 . S
N494 Co477 1.993 . S
N494 N493 1.388 . S
N494 C495 1.346 . S
C495 N494 1.346 . S
C495 C496 1.396 . S
C495 C505 1.510 . S
C496 C492 1.401 . S
C496 C495 1.396 . S
C497 C492 1.499 . S
C497 H498 0.959 . S
C497 H499 0.960 . S
C497 H500 0.961 . S
H498 C497 0.959 . S
H499 C497 0.960 . S
H500 C497 0.961 . S
O501 Co476 1.967 . S
O501 C509 1.258 . S
O502 Co477 1.941 . S
O502 C509 1.266 . S
H503 C505 0.959 . S
H504 C505 0.961 . S
C505 C495 1.510 . S
C505 H503 0.959 . S
C505 H504 0.961 . S
C505 H506 0.960 . S
H506 C505 0.960 . S
H507 N487 0.862 . S
O508 Co476 1.920 . S
O508 C481 1.289 . S
C509 O501 1.258 . S
C509 O502 1.266 . S
Co510 O513 1.970 . S
Co510 N527 1.989 . S
Co510 O535 1.967 . S
Co510 O542 1.920 . S
Co511 O514 1.966 . S
Co511 N520 2.022 . S
Co511 N528 1.993 . S
Co511 O536 1.941 . S
C512 O513 1.258 . S
C512 O514 1.263 . S
O513 Co510 1.970 . S
O513 C512 1.258 . S
O514 Co511 1.966 . S
O514 C512 1.263 . S
C515 O516 1.235 . S
C515 O542 1.289 . S
O516 C515 1.235 . S
C517 C519 1.400 1_655 S
C517 N520 1.351 . S
C517 C522 1.501 . S
C518 C519 1.387 . S
C518 N521 1.341 . S
C519 C517 1.400 1_455 S
C519 C518 1.387 . S
N520 Co511 2.022 . S
N520 C517 1.351 . S
N520 N521 1.365 1_655 S
N521 C518 1.341 . S
N521 N520 1.365 1_455 S
N521 H541 0.862 . S
C522 C517 1.501 . S
C522 H523 0.961 . S
C522 H524 0.961 . S
C522 H525 0.960 . S
H523 C522 0.961 . S
H524 C522 0.961 . S
H525 C522 0.960 . S
C526 N527 1.342 . S
C526 C530 1.401 . S
C526 C531 1.499 . S
N527 Co510 1.989 . S
N527 C526 1.342 . S
N527 N528 1.388 . S
N528 Co511 1.993 . S
N528 N527 1.388 . S
N528 C529 1.346 . S
C529 N528 1.346 . S
C529 C530 1.396 . S
C529 C539 1.503 1_655 S
C530 C526 1.401 . S
C530 C529 1.396 . S
C531 C526 1.499 . S
C531 H532 0.959 . S
C531 H533 0.960 . S
C531 H534 0.961 . S
H532 C531 0.959 . S
H533 C531 0.960 . S
H534 C531 0.961 . S
O535 Co510 1.967 . S
O535 C543 1.258 . S
O536 Co511 1.941 . S
O536 C543 1.266 . S
H537 C539 0.965 . S
H538 C539 0.959 1_655 S
C539 C529 1.503 1_455 S
C539 H537 0.965 . S
C539 H538 0.959 1_455 S
C539 H540 0.963 1_455 S
H540 C539 0.963 1_655 S
H541 N521 0.862 . S
O542 Co510 1.920 . S
O542 C515 1.289 . S
C543 O535 1.258 . S
C543 O536 1.266 . S
Co544 O547 1.970 . S
Co544 N561 1.989 . S
Co544 O569 1.967 . S
Co544 O576 1.920 . S
Co545 O548 1.966 . S
Co545 N554 2.022 . S
Co545 N562 1.993 . S
Co545 O570 1.941 . S
C546 O547 1.258 . S
C546 O548 1.263 . S
O547 Co544 1.970 . S
O547 C546 1.258 . S
O548 Co545 1.966 . S
O548 C546 1.263 . S
C549 O550 1.235 . S
C549 O576 1.289 . S
O550 C549 1.235 . S
C551 C553 1.400 . S
C551 N554 1.351 . S
C551 C556 1.501 . S
C552 C553 1.387 . S
C552 N555 1.341 . S
C553 C551 1.400 . S
C553 C552 1.387 . S
N554 Co545 2.022 . S
N554 C551 1.351 . S
N554 N555 1.365 . S
N555 C552 1.341 . S
N555 N554 1.365 . S
N555 H575 0.862 . S
C556 C551 1.501 . S
C556 H557 0.961 . S
C556 H558 0.961 . S
C556 H559 0.960 . S
H557 C556 0.961 . S
H558 C556 0.961 . S
H559 C556 0.960 . S
C560 N561 1.342 . S
C560 C564 1.401 . S
C560 C565 1.499 . S
N561 Co544 1.989 . S
N561 C560 1.342 . S
N561 N562 1.388 . S
N562 Co545 1.993 . S
N562 N561 1.388 . S
N562 C563 1.346 . S
C563 N562 1.346 . S
C563 C564 1.396 . S
C563 C573 1.510 . S
C564 C560 1.401 . S
C564 C563 1.396 . S
C565 C560 1.499 . S
C565 H566 0.959 . S
C565 H567 0.960 . S
C565 H568 0.961 . S
H566 C565 0.959 . S
H567 C565 0.960 . S
H568 C565 0.961 . S
O569 Co544 1.967 . S
O569 C577 1.258 . S
O570 Co545 1.941 . S
O570 C577 1.266 . S
H571 C573 0.959 . S
H572 C573 0.961 . S
C573 C563 1.510 . S
C573 H571 0.959 . S
C573 H572 0.961 . S
C573 H574 0.960 . S
H574 C573 0.960 . S
H575 N555 0.862 . S
O576 Co544 1.920 . S
O576 C549 1.289 . S
C577 O569 1.258 . S
C577 O570 1.266 . S
Co578 O581 1.970 . S
Co578 N595 1.989 . S
Co578 O603 1.967 . S
Co578 O610 1.920 . S
Co579 O582 1.966 . S
Co579 N588 2.022 . S
Co579 N596 1.993 . S
Co579 O604 1.941 . S
C580 O581 1.258 . S
C580 O582 1.263 . S
O581 Co578 1.970 . S
O581 C580 1.258 . S
O582 Co579 1.966 . S
O582 C580 1.263 . S
C583 O584 1.235 . S
C583 O610 1.289 . S
O584 C583 1.235 . S
C585 C587 1.400 1_545 S
C585 N588 1.351 . S
C585 C590 1.501 . S
C586 C587 1.387 . S
C586 N589 1.341 . S
C587 C585 1.400 1_565 S
C587 C586 1.387 . S
N588 Co579 2.022 . S
N588 C585 1.351 . S
N588 N589 1.365 1_545 S
N589 C586 1.341 . S
N589 N588 1.365 1_565 S
N589 H609 0.862 . S
C590 C585 1.501 . S
C590 H591 0.961 . S
C590 H592 0.961 . S
C590 H593 0.960 . S
H591 C590 0.961 . S
H592 C590 0.961 . S
H593 C590 0.960 . S
C594 N595 1.342 . S
C594 C598 1.401 . S
C594 C599 1.499 . S
N595 Co578 1.989 . S
N595 C594 1.342 . S
N595 N596 1.388 . S
N596 Co579 1.993 . S
N596 N595 1.388 . S
N596 C597 1.346 . S
C597 N596 1.346 . S
C597 C598 1.396 . S
C597 C607 1.507 1_545 S
C598 C594 1.401 . S
C598 C597 1.396 . S
C599 C594 1.499 . S
C599 H600 0.959 . S
C599 H601 0.960 . S
C599 H602 0.961 . S
H600 C599 0.959 . S
H601 C599 0.960 . S
H602 C599 0.961 . S
O603 Co578 1.967 . S
O603 C611 1.258 . S
O604 Co579 1.941 . S
O604 C611 1.266 . S
H605 C607 0.967 . S
H606 C607 0.962 1_545 S
C607 C597 1.507 1_565 S
C607 H605 0.967 . S
C607 H606 0.962 1_565 S
C607 H608 0.954 1_565 S
H608 C607 0.954 1_545 S
H609 N589 0.862 . S
O610 Co578 1.920 . S
O610 C583 1.289 . S
C611 O603 1.258 . S
C611 O604 1.266 . S
Co612 O615 1.970 . S
Co612 N629 1.989 . S
Co612 O637 1.967 . S
Co612 O644 1.920 . S
Co613 O616 1.966 . S
Co613 N622 2.022 . S
Co613 N630 1.993 . S
Co613 O638 1.941 . S
C614 O615 1.258 . S
C614 O616 1.263 . S
O615 Co612 1.970 . S
O615 C614 1.258 . S
O616 Co613 1.966 . S
O616 C614 1.263 . S
C617 O618 1.235 . S
C617 O644 1.289 . S
O618 C617 1.235 . S
C619 C621 1.400 1_545 S
C619 N622 1.351 . S
C619 C624 1.501 . S
C620 C621 1.387 . S
C620 N623 1.341 . S
C621 C619 1.400 1_565 S
C621 C620 1.387 . S
N622 Co613 2.022 . S
N622 C619 1.351 . S
N622 N623 1.365 1_545 S
N623 C620 1.341 . S
N623 N622 1.365 1_565 S
N623 H643 0.862 . S
C624 C619 1.501 . S
C624 H625 0.961 . S
C624 H626 0.961 . S
C624 H627 0.960 . S
H625 C624 0.961 . S
H626 C624 0.961 . S
H627 C624 0.960 . S
C628 N629 1.342 . S
C628 C632 1.401 . S
C628 C633 1.499 . S
N629 Co612 1.989 . S
N629 C628 1.342 . S
N629 N630 1.388 . S
N630 Co613 1.993 . S
N630 N629 1.388 . S
N630 C631 1.346 . S
C631 N630 1.346 . S
C631 C632 1.396 . S
C631 C641 1.503 1_545 S
C632 C628 1.401 . S
C632 C631 1.396 . S
C633 C628 1.499 . S
C633 H634 0.959 . S
C633 H635 0.960 . S
C633 H636 0.961 . S
H634 C633 0.959 . S
H635 C633 0.960 . S
H636 C633 0.961 . S
O637 Co612 1.967 . S
O637 C645 1.258 . S
O638 Co613 1.941 . S
O638 C645 1.266 . S
H639 C641 0.965 . S
H640 C641 0.959 1_545 S
C641 C631 1.503 1_565 S
C641 H639 0.965 . S
C641 H640 0.959 1_565 S
C641 H642 0.963 1_565 S
H642 C641 0.963 1_545 S
H643 N623 0.862 . S
O644 Co612 1.920 . S
O644 C617 1.289 . S
C645 O637 1.258 . S
C645 O638 1.266 . S
Co646 O649 1.970 . S
Co646 N663 1.989 . S
Co646 O671 1.967 . S
Co646 O678 1.920 . S
Co647 O650 1.966 . S
Co647 N656 2.022 . S
Co647 N664 1.993 . S
Co647 O672 1.941 . S
C648 O649 1.258 . S
C648 O650 1.263 . S
O649 Co646 1.970 . S
O649 C648 1.258 . S
O650 Co647 1.966 . S
O650 C648 1.263 . S
C651 O652 1.235 . S
C651 O678 1.289 . S
O652 C651 1.235 . S
C653 C655 1.400 1_655 S
C653 N656 1.351 . S
C653 C658 1.501 . S
C654 C655 1.387 . S
C654 N657 1.341 . S
C655 C653 1.400 1_455 S
C655 C654 1.387 . S
N656 Co647 2.022 . S
N656 C653 1.351 . S
N656 N657 1.365 1_655 S
N657 C654 1.341 . S
N657 N656 1.365 1_455 S
N657 H677 0.862 . S
C658 C653 1.501 . S
C658 H659 0.961 . S
C658 H660 0.961 . S
C658 H661 0.960 . S
H659 C658 0.961 . S
H660 C658 0.961 . S
H661 C658 0.960 . S
C662 N663 1.342 . S
C662 C666 1.401 . S
C662 C667 1.499 . S
N663 Co646 1.989 . S
N663 C662 1.342 . S
N663 N664 1.388 . S
N664 Co647 1.993 . S
N664 N663 1.388 . S
N664 C665 1.346 . S
C665 N664 1.346 . S
C665 C666 1.396 . S
C665 C675 1.507 1_655 S
C666 C662 1.401 . S
C666 C665 1.396 . S
C667 C662 1.499 . S
C667 H668 0.959 . S
C667 H669 0.960 . S
C667 H670 0.961 . S
H668 C667 0.959 . S
H669 C667 0.960 . S
H670 C667 0.961 . S
O671 Co646 1.967 . S
O671 C679 1.258 . S
O672 Co647 1.941 . S
O672 C679 1.266 . S
H673 C675 0.967 . S
H674 C675 0.962 1_655 S
C675 C665 1.507 1_455 S
C675 H673 0.967 . S
C675 H674 0.962 1_455 S
C675 H676 0.955 1_455 S
H676 C675 0.955 1_655 S
H677 N657 0.862 . S
O678 Co646 1.920 . S
O678 C651 1.289 . S
C679 O671 1.258 . S
C679 O672 1.266 . S
Co680 O683 1.970 . S
Co680 N697 1.989 . S
Co680 O705 1.967 . S
Co680 O712 1.920 . S
Co681 O684 1.966 . S
Co681 N690 2.022 . S
Co681 N698 1.993 . S
Co681 O706 1.941 . S
C682 O683 1.258 . S
C682 O684 1.263 . S
O683 Co680 1.970 . S
O683 C682 1.258 . S
O684 Co681 1.966 . S
O684 C682 1.263 . S
C685 O686 1.235 . S
C685 O712 1.289 . S
O686 C685 1.235 . S
C687 C689 1.400 . S
C687 N690 1.351 . S
C687 C692 1.501 . S
C688 C689 1.387 . S
C688 N691 1.341 . S
C689 C687 1.400 . S
C689 C688 1.387 . S
N690 Co681 2.022 . S
N690 C687 1.351 . S
N690 N691 1.365 . S
N691 C688 1.341 . S
N691 N690 1.365 . S
N691 H711 0.862 . S
C692 C687 1.501 . S
C692 H693 0.961 . S
C692 H694 0.961 . S
C692 H695 0.960 . S
H693 C692 0.961 . S
H694 C692 0.961 . S
H695 C692 0.960 . S
C696 N697 1.342 . S
C696 C700 1.401 . S
C696 C701 1.499 . S
N697 Co680 1.989 . S
N697 C696 1.342 . S
N697 N698 1.388 . S
N698 Co681 1.993 . S
N698 N697 1.388 . S
N698 C699 1.346 . S
C699 N698 1.346 . S
C699 C700 1.396 . S
C699 C709 1.510 . S
C700 C696 1.401 . S
C700 C699 1.396 . S
C701 C696 1.499 . S
C701 H702 0.959 . S
C701 H703 0.960 . S
C701 H704 0.961 . S
H702 C701 0.959 . S
H703 C701 0.960 . S
H704 C701 0.961 . S
O705 Co680 1.967 . S
O705 C713 1.258 . S
O706 Co681 1.941 . S
O706 C713 1.266 . S
H707 C709 0.959 . S
H708 C709 0.961 . S
C709 C699 1.510 . S
C709 H707 0.959 . S
C709 H708 0.961 . S
C709 H710 0.960 . S
H710 C709 0.960 . S
H711 N691 0.862 . S
O712 Co680 1.920 . S
O712 C685 1.289 . S
C713 O705 1.258 . S
C713 O706 1.266 . S
Co714 O717 1.970 . S
Co714 N731 1.989 . S
Co714 O739 1.967 . S
Co714 O746 1.920 . S
Co715 O718 1.966 . S
Co715 N724 2.022 . S
Co715 N732 1.993 . S
Co715 O740 1.941 . S
C716 O717 1.258 . S
C716 O718 1.263 . S
O717 Co714 1.970 . S
O717 C716 1.258 . S
O718 Co715 1.966 . S
O718 C716 1.263 . S
C719 O720 1.235 . S
C719 O746 1.289 . S
O720 C719 1.235 . S
C721 C723 1.400 . S
C721 N724 1.351 . S
C721 C726 1.501 . S
C722 C723 1.387 . S
C722 N725 1.341 . S
C723 C721 1.400 . S
C723 C722 1.387 . S
N724 Co715 2.022 . S
N724 C721 1.351 . S
N724 N725 1.365 . S
N725 C722 1.341 . S
N725 N724 1.365 . S
N725 H745 0.862 . S
C726 C721 1.501 . S
C726 H727 0.961 . S
C726 H728 0.961 . S
C726 H729 0.960 . S
H727 C726 0.961 . S
H728 C726 0.961 . S
H729 C726 0.960 . S
C730 N731 1.342 . S
C730 C734 1.401 . S
C730 C735 1.499 . S
N731 Co714 1.989 . S
N731 C730 1.342 . S
N731 N732 1.388 . S
N732 Co715 1.993 . S
N732 N731 1.388 . S
N732 C733 1.346 . S
C733 N732 1.346 . S
C733 C734 1.396 . S
C733 C743 1.510 . S
C734 C730 1.401 . S
C734 C733 1.396 . S
C735 C730 1.499 . S
C735 H736 0.959 . S
C735 H737 0.960 . S
C735 H738 0.961 . S
H736 C735 0.959 . S
H737 C735 0.960 . S
H738 C735 0.961 . S
O739 Co714 1.967 . S
O739 C747 1.258 . S
O740 Co715 1.941 . S
O740 C747 1.266 . S
H741 C743 0.959 . S
H742 C743 0.961 . S
C743 C733 1.510 . S
C743 H741 0.959 . S
C743 H742 0.961 . S
C743 H744 0.960 . S
H744 C743 0.960 . S
H745 N725 0.862 . S
O746 Co714 1.920 . S
O746 C719 1.289 . S
C747 O739 1.258 . S
C747 O740 1.266 . S
Co748 O751 1.970 . S
Co748 N765 1.989 . S
Co748 O773 1.967 . S
Co748 O780 1.920 . S
Co749 O752 1.966 . S
Co749 N758 2.022 . S
Co749 N766 1.993 . S
Co749 O774 1.941 . S
C750 O751 1.258 . S
C750 O752 1.263 . S
O751 Co748 1.970 . S
O751 C750 1.258 . S
O752 Co749 1.966 . S
O752 C750 1.263 . S
C753 O754 1.235 . S
C753 O780 1.289 . S
O754 C753 1.235 . S
C755 C757 1.400 . S
C755 N758 1.351 . S
C755 C760 1.501 . S
C756 C757 1.387 . S
C756 N759 1.341 . S
C757 C755 1.400 . S
C757 C756 1.387 . S
N758 Co749 2.022 . S
N758 C755 1.351 . S
N758 N759 1.365 . S
N759 C756 1.341 . S
N759 N758 1.365 . S
N759 H779 0.862 . S
C760 C755 1.501 . S
C760 H761 0.961 . S
C760 H762 0.961 . S
C760 H763 0.960 . S
H761 C760 0.961 . S
H762 C760 0.961 . S
H763 C760 0.960 . S
C764 N765 1.342 . S
C764 C768 1.401 . S
C764 C769 1.499 . S
N765 Co748 1.989 . S
N765 C764 1.342 . S
N765 N766 1.388 . S
N766 Co749 1.993 . S
N766 N765 1.388 . S
N766 C767 1.346 . S
C767 N766 1.346 . S
C767 C768 1.396 . S
C767 C777 1.510 . S
C768 C764 1.401 . S
C768 C767 1.396 . S
C769 C764 1.499 . S
C769 H770 0.959 . S
C769 H771 0.960 . S
C769 H772 0.961 . S
H770 C769 0.959 . S
H771 C769 0.960 . S
H772 C769 0.961 . S
O773 Co748 1.967 . S
O773 C781 1.258 . S
O774 Co749 1.941 . S
O774 C781 1.266 . S
H775 C777 0.959 . S
H776 C777 0.961 . S
C777 C767 1.510 . S
C777 H775 0.959 . S
C777 H776 0.961 . S
C777 H778 0.960 . S
H778 C777 0.960 . S
H779 N759 0.862 . S
O780 Co748 1.920 . S
O780 C753 1.289 . S
C781 O773 1.258 . S
C781 O774 1.266 . S
Co782 O785 1.970 . S
Co782 N799 1.989 . S
Co782 O807 1.967 . S
Co782 O814 1.920 . S
Co783 O786 1.966 . S
Co783 N792 2.022 . S
Co783 N800 1.993 . S
Co783 O808 1.941 . S
C784 O785 1.258 . S
C784 O786 1.263 . S
O785 Co782 1.970 . S
O785 C784 1.258 . S
O786 Co783 1.966 . S
O786 C784 1.263 . S
C787 O788 1.235 . S
C787 O814 1.289 . S
O788 C787 1.235 . S
C789 C791 1.400 . S
C789 N792 1.351 . S
C789 C794 1.501 . S
C790 C791 1.387 . S
C790 N793 1.341 . S
C791 C789 1.400 . S
C791 C790 1.387 . S
N792 Co783 2.022 . S
N792 C789 1.351 . S
N792 N793 1.365 . S
N793 C790 1.341 . S
N793 N792 1.365 . S
N793 H813 0.862 . S
C794 C789 1.501 . S
C794 H795 0.961 . S
C794 H796 0.961 . S
C794 H797 0.960 . S
H795 C794 0.961 . S
H796 C794 0.961 . S
H797 C794 0.960 . S
C798 N799 1.342 . S
C798 C802 1.401 . S
C798 C803 1.499 . S
N799 Co782 1.989 . S
N799 C798 1.342 . S
N799 N800 1.388 . S
N800 Co783 1.993 . S
N800 N799 1.388 . S
N800 C801 1.346 . S
C801 N800 1.346 . S
C801 C802 1.396 . S
C801 C811 1.510 . S
C802 C798 1.401 . S
C802 C801 1.396 . S
C803 C798 1.499 . S
C803 H804 0.959 . S
C803 H805 0.960 . S
C803 H806 0.961 . S
H804 C803 0.959 . S
H805 C803 0.960 . S
H806 C803 0.961 . S
O807 Co782 1.967 . S
O807 C815 1.258 . S
O808 Co783 1.941 . S
O808 C815 1.266 . S
H809 C811 0.959 . S
H810 C811 0.961 . S
C811 C801 1.510 . S
C811 H809 0.959 . S
C811 H810 0.961 . S
C811 H812 0.960 . S
H812 C811 0.960 . S
H813 N793 0.862 . S
O814 Co782 1.920 . S
O814 C787 1.289 . S
C815 O807 1.258 . S
C815 O808 1.266 . S
Co816 O819 1.970 . S
Co816 N833 1.989 . S
Co816 O841 1.967 . S
Co816 O848 1.920 . S
Co817 O820 1.966 . S
Co817 N826 2.022 . S
Co817 N834 1.993 . S
Co817 O842 1.941 . S
C818 O819 1.258 . S
C818 O820 1.263 . S
O819 Co816 1.970 . S
O819 C818 1.258 . S
O820 Co817 1.966 . S
O820 C818 1.263 . S
C821 O822 1.235 . S
C821 O848 1.289 . S
O822 C821 1.235 . S
C823 C825 1.400 1_565 S
C823 N826 1.351 . S
C823 C828 1.501 . S
C824 C825 1.387 . S
C824 N827 1.341 . S
C825 C823 1.400 1_545 S
C825 C824 1.387 . S
N826 Co817 2.022 . S
N826 C823 1.351 . S
N826 N827 1.365 1_565 S
N827 C824 1.341 . S
N827 N826 1.365 1_545 S
N827 H847 0.862 . S
C828 C823 1.501 . S
C828 H829 0.961 . S
C828 H830 0.961 . S
C828 H831 0.960 . S
H829 C828 0.961 . S
H830 C828 0.961 . S
H831 C828 0.960 . S
C832 N833 1.342 . S
C832 C836 1.401 . S
C832 C837 1.499 . S
N833 Co816 1.989 . S
N833 C832 1.342 . S
N833 N834 1.388 . S
N834 Co817 1.993 . S
N834 N833 1.388 . S
N834 C835 1.346 . S
C835 N834 1.346 . S
C835 C836 1.396 . S
C835 C845 1.503 1_565 S
C836 C832 1.401 . S
C836 C835 1.396 . S
C837 C832 1.499 . S
C837 H838 0.959 . S
C837 H839 0.960 . S
C837 H840 0.961 . S
H838 C837 0.959 . S
H839 C837 0.960 . S
H840 C837 0.961 . S
O841 Co816 1.967 . S
O841 C849 1.258 . S
O842 Co817 1.941 . S
O842 C849 1.266 . S
H843 C845 0.965 . S
H844 C845 0.959 1_565 S
C845 C835 1.503 1_545 S
C845 H843 0.965 . S
C845 H844 0.959 1_545 S
C845 H846 0.963 1_545 S
H846 C845 0.963 1_565 S
H847 N827 0.862 . S
O848 Co816 1.920 . S
O848 C821 1.289 . S
C849 O841 1.258 . S
C849 O842 1.266 . S
Co850 O853 1.970 . S
Co850 N867 1.989 . S
Co850 O875 1.967 . S
Co850 O882 1.920 . S
Co851 O854 1.966 . S
Co851 N860 2.022 . S
Co851 N868 1.993 . S
Co851 O876 1.941 . S
C852 O853 1.258 . S
C852 O854 1.263 . S
O853 Co850 1.970 . S
O853 C852 1.258 . S
O854 Co851 1.966 . S
O854 C852 1.263 . S
C855 O856 1.235 . S
C855 O882 1.289 . S
O856 C855 1.235 . S
C857 C859 1.400 1_455 S
C857 N860 1.351 . S
C857 C862 1.501 . S
C858 C859 1.387 . S
C858 N861 1.341 . S
C859 C857 1.400 1_655 S
C859 C858 1.387 . S
N860 Co851 2.022 . S
N860 C857 1.351 . S
N860 N861 1.365 1_455 S
N861 C858 1.341 . S
N861 N860 1.365 1_655 S
N861 H881 0.862 . S
C862 C857 1.501 . S
C862 H863 0.961 . S
C862 H864 0.961 . S
C862 H865 0.960 . S
H863 C862 0.961 . S
H864 C862 0.961 . S
H865 C862 0.960 . S
C866 N867 1.342 . S
C866 C870 1.401 . S
C866 C871 1.499 . S
N867 Co850 1.989 . S
N867 C866 1.342 . S
N867 N868 1.388 . S
N868 Co851 1.993 . S
N868 N867 1.388 . S
N868 C869 1.346 . S
C869 N868 1.346 . S
C869 C870 1.396 . S
C869 C879 1.507 1_455 S
C870 C866 1.401 . S
C870 C869 1.396 . S
C871 C866 1.499 . S
C871 H872 0.959 . S
C871 H873 0.960 . S
C871 H874 0.961 . S
H872 C871 0.959 . S
H873 C871 0.960 . S
H874 C871 0.961 . S
O875 Co850 1.967 . S
O875 C883 1.258 . S
O876 Co851 1.941 . S
O876 C883 1.266 . S
H877 C879 0.967 . S
H878 C879 0.962 1_455 S
C879 C869 1.507 1_655 S
C879 H877 0.967 . S
C879 H878 0.962 1_655 S
C879 H880 0.955 1_655 S
H880 C879 0.955 1_455 S
H881 N861 0.862 . S
O882 Co850 1.920 . S
O882 C855 1.289 . S
C883 O875 1.258 . S
C883 O876 1.266 . S
Co884 O887 1.970 . S
Co884 N901 1.989 . S
Co884 O909 1.967 . S
Co884 O916 1.920 . S
Co885 O888 1.966 . S
Co885 N894 2.022 . S
Co885 N902 1.993 . S
Co885 O910 1.941 . S
C886 O887 1.258 . S
C886 O888 1.263 . S
O887 Co884 1.970 . S
O887 C886 1.258 . S
O888 Co885 1.966 . S
O888 C886 1.263 . S
C889 O890 1.235 . S
C889 O916 1.289 . S
O890 C889 1.235 . S
C891 C893 1.400 . S
C891 N894 1.351 . S
C891 C896 1.501 . S
C892 C893 1.387 . S
C892 N895 1.341 . S
C893 C891 1.400 . S
C893 C892 1.387 . S
N894 Co885 2.022 . S
N894 C891 1.351 . S
N894 N895 1.365 . S
N895 C892 1.341 . S
N895 N894 1.365 . S
N895 H915 0.862 . S
C896 C891 1.501 . S
C896 H897 0.961 . S
C896 H898 0.961 . S
C896 H899 0.960 . S
H897 C896 0.961 . S
H898 C896 0.961 . S
H899 C896 0.960 . S
C900 N901 1.342 . S
C900 C904 1.401 . S
C900 C905 1.499 . S
N901 Co884 1.989 . S
N901 C900 1.342 . S
N901 N902 1.388 . S
N902 Co885 1.993 . S
N902 N901 1.388 . S
N902 C903 1.346 . S
C903 N902 1.346 . S
C903 C904 1.396 . S
C903 C913 1.510 . S
C904 C900 1.401 . S
C904 C903 1.396 . S
C905 C900 1.499 . S
C905 H906 0.959 . S
C905 H907 0.960 . S
C905 H908 0.961 . S
H906 C905 0.959 . S
H907 C905 0.960 . S
H908 C905 0.961 . S
O909 Co884 1.967 . S
O909 C917 1.258 . S
O910 Co885 1.941 . S
O910 C917 1.266 . S
H911 C913 0.959 . S
H912 C913 0.961 . S
C913 C903 1.510 . S
C913 H911 0.959 . S
C913 H912 0.961 . S
C913 H914 0.960 . S
H914 C913 0.960 . S
H915 N895 0.862 . S
O916 Co884 1.920 . S
O916 C889 1.289 . S
C917 O909 1.258 . S
C917 O910 1.266 . S
Co918 O921 1.970 . S
Co918 N935 1.989 . S
Co918 O943 1.967 . S
Co918 O950 1.920 . S
Co919 O922 1.966 . S
Co919 N928 2.022 . S
Co919 N936 1.993 . S
Co919 O944 1.941 . S
C920 O921 1.258 . S
C920 O922 1.263 . S
O921 Co918 1.970 . S
O921 C920 1.258 . S
O922 Co919 1.966 . S
O922 C920 1.263 . S
C923 O924 1.235 . S
C923 O950 1.289 . S
O924 C923 1.235 . S
C925 C927 1.400 . S
C925 N928 1.351 . S
C925 C930 1.501 . S
C926 C927 1.387 . S
C926 N929 1.341 . S
C927 C925 1.400 . S
C927 C926 1.387 . S
N928 Co919 2.022 . S
N928 C925 1.351 . S
N928 N929 1.365 . S
N929 C926 1.341 . S
N929 N928 1.365 . S
N929 H949 0.862 . S
C930 C925 1.501 . S
C930 H931 0.961 . S
C930 H932 0.961 . S
C930 H933 0.960 . S
H931 C930 0.961 . S
H932 C930 0.961 . S
H933 C930 0.960 . S
C934 N935 1.342 . S
C934 C938 1.401 . S
C934 C939 1.499 . S
N935 Co918 1.989 . S
N935 C934 1.342 . S
N935 N936 1.388 . S
N936 Co919 1.993 . S
N936 N935 1.388 . S
N936 C937 1.346 . S
C937 N936 1.346 . S
C937 C938 1.396 . S
C937 C947 1.510 . S
C938 C934 1.401 . S
C938 C937 1.396 . S
C939 C934 1.499 . S
C939 H940 0.959 . S
C939 H941 0.960 . S
C939 H942 0.961 . S
H940 C939 0.959 . S
H941 C939 0.960 . S
H942 C939 0.961 . S
O943 Co918 1.967 . S
O943 C951 1.258 . S
O944 Co919 1.941 . S
O944 C951 1.266 . S
H945 C947 0.959 . S
H946 C947 0.961 . S
C947 C937 1.510 . S
C947 H945 0.959 . S
C947 H946 0.961 . S
C947 H948 0.960 . S
H948 C947 0.960 . S
H949 N929 0.862 . S
O950 Co918 1.920 . S
O950 C923 1.289 . S
C951 O943 1.258 . S
C951 O944 1.266 . S
Co952 O955 1.970 . S
Co952 N969 1.989 . S
Co952 O977 1.967 . S
Co952 O984 1.920 . S
Co953 O956 1.966 . S
Co953 N962 2.022 . S
Co953 N970 1.993 . S
Co953 O978 1.941 . S
C954 O955 1.258 . S
C954 O956 1.263 . S
O955 Co952 1.970 . S
O955 C954 1.258 . S
O956 Co953 1.966 . S
O956 C954 1.263 . S
C957 O958 1.235 . S
C957 O984 1.289 . S
O958 C957 1.235 . S
C959 C961 1.400 . S
C959 N962 1.351 . S
C959 C964 1.501 . S
C960 C961 1.387 . S
C960 N963 1.341 . S
C961 C959 1.400 . S
C961 C960 1.387 . S
N962 Co953 2.022 . S
N962 C959 1.351 . S
N962 N963 1.365 . S
N963 C960 1.341 . S
N963 N962 1.365 . S
N963 H983 0.862 . S
C964 C959 1.501 . S
C964 H965 0.961 . S
C964 H966 0.961 . S
C964 H967 0.960 . S
H965 C964 0.961 . S
H966 C964 0.961 . S
H967 C964 0.960 . S
C968 N969 1.342 . S
C968 C972 1.401 . S
C968 C973 1.499 . S
N969 Co952 1.989 . S
N969 C968 1.342 . S
N969 N970 1.388 . S
N970 Co953 1.993 . S
N970 N969 1.388 . S
N970 C971 1.346 . S
C971 N970 1.346 . S
C971 C972 1.396 . S
C971 C981 1.510 . S
C972 C968 1.401 . S
C972 C971 1.396 . S
C973 C968 1.499 . S
C973 H974 0.959 . S
C973 H975 0.960 . S
C973 H976 0.961 . S
H974 C973 0.959 . S
H975 C973 0.960 . S
H976 C973 0.961 . S
O977 Co952 1.967 . S
O977 C985 1.258 . S
O978 Co953 1.941 . S
O978 C985 1.266 . S
H979 C981 0.959 . S
H980 C981 0.961 . S
C981 C971 1.510 . S
C981 H979 0.959 . S
C981 H980 0.961 . S
C981 H982 0.960 . S
H982 C981 0.960 . S
H983 N963 0.862 . S
O984 Co952 1.920 . S
O984 C957 1.289 . S
C985 O977 1.258 . S
C985 O978 1.266 . S
Co986 O989 1.970 . S
Co986 N1003 1.989 . S
Co986 O1011 1.967 . S
Co986 O1018 1.920 . S
Co987 O990 1.966 . S
Co987 N996 2.022 . S
Co987 N1004 1.993 . S
Co987 O1012 1.941 . S
C988 O989 1.258 . S
C988 O990 1.263 . S
O989 Co986 1.970 . S
O989 C988 1.258 . S
O990 Co987 1.966 . S
O990 C988 1.263 . S
C991 O992 1.235 . S
C991 O1018 1.289 . S
O992 C991 1.235 . S
C993 C995 1.400 . S
C993 N996 1.351 . S
C993 C998 1.501 . S
C994 C995 1.387 . S
C994 N997 1.341 . S
C995 C993 1.400 . S
C995 C994 1.387 . S
N996 Co987 2.022 . S
N996 C993 1.351 . S
N996 N997 1.365 . S
N997 C994 1.341 . S
N997 N996 1.365 . S
N997 H1017 0.862 . S
C998 C993 1.501 . S
C998 H999 0.961 . S
C998 H1000 0.961 . S
C998 H1001 0.960 . S
H999 C998 0.961 . S
H1000 C998 0.961 . S
H1001 C998 0.960 . S
C1002 N1003 1.342 . S
C1002 C1006 1.401 . S
C1002 C1007 1.499 . S
N1003 Co986 1.989 . S
N1003 C1002 1.342 . S
N1003 N1004 1.388 . S
N1004 Co987 1.993 . S
N1004 N1003 1.388 . S
N1004 C1005 1.346 . S
C1005 N1004 1.346 . S
C1005 C1006 1.396 . S
C1005 C1015 1.510 . S
C1006 C1002 1.401 . S
C1006 C1005 1.396 . S
C1007 C1002 1.499 . S
C1007 H1008 0.959 . S
C1007 H1009 0.960 . S
C1007 H1010 0.961 . S
H1008 C1007 0.959 . S
H1009 C1007 0.960 . S
H1010 C1007 0.961 . S
O1011 Co986 1.967 . S
O1011 C1019 1.258 . S
O1012 Co987 1.941 . S
O1012 C1019 1.266 . S
H1013 C1015 0.959 . S
H1014 C1015 0.961 . S
C1015 C1005 1.510 . S
C1015 H1013 0.959 . S
C1015 H1014 0.961 . S
C1015 H1016 0.960 . S
H1016 C1015 0.960 . S
H1017 N997 0.862 . S
O1018 Co986 1.920 . S
O1018 C991 1.289 . S
C1019 O1011 1.258 . S
C1019 O1012 1.266 . S
Co1020 O1023 1.970 . S
Co1020 N1037 1.989 . S
Co1020 O1045 1.967 . S
Co1020 O1052 1.920 . S
Co1021 O1024 1.966 . S
Co1021 N1030 2.022 . S
Co1021 N1038 1.993 . S
Co1021 O1046 1.941 . S
C1022 O1023 1.258 . S
C1022 O1024 1.263 . S
O1023 Co1020 1.970 . S
O1023 C1022 1.258 . S
O1024 Co1021 1.966 . S
O1024 C1022 1.263 . S
C1025 O1026 1.235 . S
C1025 O1052 1.289 . S
O1026 C1025 1.235 . S
C1027 C1029 1.400 . S
C1027 N1030 1.351 . S
C1027 C1032 1.501 . S
C1028 C1029 1.387 . S
C1028 N1031 1.341 . S
C1029 C1027 1.400 . S
C1029 C1028 1.387 . S
N1030 Co1021 2.022 . S
N1030 C1027 1.351 . S
N1030 N1031 1.365 . S
N1031 C1028 1.341 . S
N1031 N1030 1.365 . S
N1031 H1051 0.862 . S
C1032 C1027 1.501 . S
C1032 H1033 0.961 . S
C1032 H1034 0.961 . S
C1032 H1035 0.960 . S
H1033 C1032 0.961 . S
H1034 C1032 0.961 . S
H1035 C1032 0.960 . S
C1036 N1037 1.342 . S
C1036 C1040 1.401 . S
C1036 C1041 1.499 . S
N1037 Co1020 1.989 . S
N1037 C1036 1.342 . S
N1037 N1038 1.388 . S
N1038 Co1021 1.993 . S
N1038 N1037 1.388 . S
N1038 C1039 1.346 . S
C1039 N1038 1.346 . S
C1039 C1040 1.396 . S
C1039 C1049 1.510 . S
C1040 C1036 1.401 . S
C1040 C1039 1.396 . S
C1041 C1036 1.499 . S
C1041 H1042 0.959 . S
C1041 H1043 0.960 . S
C1041 H1044 0.961 . S
H1042 C1041 0.959 . S
H1043 C1041 0.960 . S
H1044 C1041 0.961 . S
O1045 Co1020 1.967 . S
O1045 C1053 1.258 . S
O1046 Co1021 1.941 . S
O1046 C1053 1.266 . S
H1047 C1049 0.959 . S
H1048 C1049 0.961 . S
C1049 C1039 1.510 . S
C1049 H1047 0.959 . S
C1049 H1048 0.961 . S
C1049 H1050 0.960 . S
H1050 C1049 0.960 . S
H1051 N1031 0.862 . S
O1052 Co1020 1.920 . S
O1052 C1025 1.289 . S
C1053 O1045 1.258 . S
C1053 O1046 1.266 . S
Co1054 O1057 1.970 . S
Co1054 N1071 1.989 . S
Co1054 O1079 1.967 . S
Co1054 O1086 1.920 . S
Co1055 O1058 1.966 . S
Co1055 N1064 2.022 . S
Co1055 N1072 1.993 . S
Co1055 O1080 1.941 . S
C1056 O1057 1.258 . S
C1056 O1058 1.263 . S
O1057 Co1054 1.970 . S
O1057 C1056 1.258 . S
O1058 Co1055 1.966 . S
O1058 C1056 1.263 . S
C1059 O1060 1.235 . S
C1059 O1086 1.289 . S
O1060 C1059 1.235 . S
C1061 C1063 1.400 . S
C1061 N1064 1.351 . S
C1061 C1066 1.501 . S
C1062 C1063 1.387 . S
C1062 N1065 1.341 . S
C1063 C1061 1.400 . S
C1063 C1062 1.387 . S
N1064 Co1055 2.022 . S
N1064 C1061 1.351 . S
N1064 N1065 1.365 . S
N1065 C1062 1.341 . S
N1065 N1064 1.365 . S
N1065 H1085 0.862 . S
C1066 C1061 1.501 . S
C1066 H1067 0.961 . S
C1066 H1068 0.961 . S
C1066 H1069 0.960 . S
H1067 C1066 0.961 . S
H1068 C1066 0.961 . S
H1069 C1066 0.960 . S
C1070 N1071 1.342 . S
C1070 C1074 1.401 . S
C1070 C1075 1.499 . S
N1071 Co1054 1.989 . S
N1071 C1070 1.342 . S
N1071 N1072 1.388 . S
N1072 Co1055 1.993 . S
N1072 N1071 1.388 . S
N1072 C1073 1.346 . S
C1073 N1072 1.346 . S
C1073 C1074 1.396 . S
C1073 C1083 1.510 . S
C1074 C1070 1.401 . S
C1074 C1073 1.396 . S
C1075 C1070 1.499 . S
C1075 H1076 0.959 . S
C1075 H1077 0.960 . S
C1075 H1078 0.961 . S
H1076 C1075 0.959 . S
H1077 C1075 0.960 . S
H1078 C1075 0.961 . S
O1079 Co1054 1.967 . S
O1079 C1087 1.258 . S
O1080 Co1055 1.941 . S
O1080 C1087 1.266 . S
H1081 C1083 0.959 . S
H1082 C1083 0.961 . S
C1083 C1073 1.510 . S
C1083 H1081 0.959 . S
C1083 H1082 0.961 . S
C1083 H1084 0.960 . S
H1084 C1083 0.960 . S
H1085 N1065 0.862 . S
O1086 Co1054 1.920 . S
O1086 C1059 1.289 . S
C1087 O1079 1.258 . S
C1087 O1080 1.266 . S
Co1088 O1091 1.970 . S
Co1088 N1105 1.989 . S
Co1088 O1113 1.967 . S
Co1088 O1120 1.920 . S
Co1089 O1092 1.966 . S
Co1089 N1098 2.022 . S
Co1089 N1106 1.993 . S
Co1089 O1114 1.941 . S
C1090 O1091 1.258 . S
C1090 O1092 1.263 . S
O1091 Co1088 1.970 . S
O1091 C1090 1.258 . S
O1092 Co1089 1.966 . S
O1092 C1090 1.263 . S
C1093 O1094 1.235 . S
C1093 O1120 1.289 . S
O1094 C1093 1.235 . S
C1095 C1097 1.400 . S
C1095 N1098 1.351 . S
C1095 C1100 1.501 . S
C1096 C1097 1.387 . S
C1096 N1099 1.341 . S
C1097 C1095 1.400 . S
C1097 C1096 1.387 . S
N1098 Co1089 2.022 . S
N1098 C1095 1.351 . S
N1098 N1099 1.365 . S
N1099 C1096 1.341 . S
N1099 N1098 1.365 . S
N1099 H1119 0.862 . S
C1100 C1095 1.501 . S
C1100 H1101 0.961 . S
C1100 H1102 0.961 . S
C1100 H1103 0.960 . S
H1101 C1100 0.961 . S
H1102 C1100 0.961 . S
H1103 C1100 0.960 . S
C1104 N1105 1.342 . S
C1104 C1108 1.401 . S
C1104 C1109 1.499 . S
N1105 Co1088 1.989 . S
N1105 C1104 1.342 . S
N1105 N1106 1.388 . S
N1106 Co1089 1.993 . S
N1106 N1105 1.388 . S
N1106 C1107 1.346 . S
C1107 N1106 1.346 . S
C1107 C1108 1.396 . S
C1107 C1117 1.510 . S
C1108 C1104 1.401 . S
C1108 C1107 1.396 . S
C1109 C1104 1.499 . S
C1109 H1110 0.959 . S
C1109 H1111 0.960 . S
C1109 H1112 0.961 . S
H1110 C1109 0.959 . S
H1111 C1109 0.960 . S
H1112 C1109 0.961 . S
O1113 Co1088 1.967 . S
O1113 C1121 1.258 . S
O1114 Co1089 1.941 . S
O1114 C1121 1.266 . S
H1115 C1117 0.959 . S
H1116 C1117 0.961 . S
C1117 C1107 1.510 . S
C1117 H1115 0.959 . S
C1117 H1116 0.961 . S
C1117 H1118 0.960 . S
H1118 C1117 0.960 . S
H1119 N1099 0.862 . S
O1120 Co1088 1.920 . S
O1120 C1093 1.289 . S
C1121 O1113 1.258 . S
C1121 O1114 1.266 . S
Co1122 O1125 1.970 . S
Co1122 N1139 1.989 . S
Co1122 O1147 1.967 . S
Co1122 O1154 1.920 . S
Co1123 O1126 1.966 . S
Co1123 N1132 2.022 . S
Co1123 N1140 1.993 . S
Co1123 O1148 1.941 . S
C1124 O1125 1.258 . S
C1124 O1126 1.263 . S
O1125 Co1122 1.970 . S
O1125 C1124 1.258 . S
O1126 Co1123 1.966 . S
O1126 C1124 1.263 . S
C1127 O1128 1.235 . S
C1127 O1154 1.289 . S
O1128 C1127 1.235 . S
C1129 C1131 1.400 1_455 S
C1129 N1132 1.351 . S
C1129 C1134 1.501 . S
C1130 C1131 1.387 . S
C1130 N1133 1.341 . S
C1131 C1129 1.400 1_655 S
C1131 C1130 1.387 . S
N1132 Co1123 2.022 . S
N1132 C1129 1.351 . S
N1132 N1133 1.365 1_455 S
N1133 C1130 1.341 . S
N1133 N1132 1.365 1_655 S
N1133 H1153 0.862 . S
C1134 C1129 1.501 . S
C1134 H1135 0.961 . S
C1134 H1136 0.961 . S
C1134 H1137 0.960 . S
H1135 C1134 0.961 . S
H1136 C1134 0.961 . S
H1137 C1134 0.960 . S
C1138 N1139 1.342 . S
C1138 C1142 1.401 . S
C1138 C1143 1.499 . S
N1139 Co1122 1.989 . S
N1139 C1138 1.342 . S
N1139 N1140 1.388 . S
N1140 Co1123 1.993 . S
N1140 N1139 1.388 . S
N1140 C1141 1.346 . S
C1141 N1140 1.346 . S
C1141 C1142 1.396 . S
C1141 C1151 1.503 1_455 S
C1142 C1138 1.401 . S
C1142 C1141 1.396 . S
C1143 C1138 1.499 . S
C1143 H1144 0.959 . S
C1143 H1145 0.960 . S
C1143 H1146 0.961 . S
H1144 C1143 0.959 . S
H1145 C1143 0.960 . S
H1146 C1143 0.961 . S
O1147 Co1122 1.967 . S
O1147 C1155 1.258 . S
O1148 Co1123 1.941 . S
O1148 C1155 1.266 . S
H1149 C1151 0.965 . S
H1150 C1151 0.959 1_455 S
C1151 C1141 1.503 1_655 S
C1151 H1149 0.965 . S
C1151 H1150 0.959 1_655 S
C1151 H1152 0.963 1_655 S
H1152 C1151 0.963 1_455 S
H1153 N1133 0.862 . S
O1154 Co1122 1.920 . S
O1154 C1127 1.289 . S
C1155 O1147 1.258 . S
C1155 O1148 1.266 . S
Co1156 O1159 1.970 . S
Co1156 N1173 1.989 . S
Co1156 O1181 1.967 . S
Co1156 O1188 1.920 . S
Co1157 O1160 1.966 . S
Co1157 N1166 2.022 . S
Co1157 N1174 1.993 . S
Co1157 O1182 1.941 . S
C1158 O1159 1.258 . S
C1158 O1160 1.263 . S
O1159 Co1156 1.970 . S
O1159 C1158 1.258 . S
O1160 Co1157 1.966 . S
O1160 C1158 1.263 . S
C1161 O1162 1.235 . S
C1161 O1188 1.289 . S
O1162 C1161 1.235 . S
C1163 C1165 1.400 . S
C1163 N1166 1.351 . S
C1163 C1168 1.501 . S
C1164 C1165 1.387 . S
C1164 N1167 1.341 . S
C1165 C1163 1.400 . S
C1165 C1164 1.387 . S
N1166 Co1157 2.022 . S
N1166 C1163 1.351 . S
N1166 N1167 1.365 . S
N1167 C1164 1.341 . S
N1167 N1166 1.365 . S
N1167 H1187 0.862 . S
C1168 C1163 1.501 . S
C1168 H1169 0.961 . S
C1168 H1170 0.961 . S
C1168 H1171 0.960 . S
H1169 C1168 0.961 . S
H1170 C1168 0.961 . S
H1171 C1168 0.960 . S
C1172 N1173 1.342 . S
C1172 C1176 1.401 . S
C1172 C1177 1.499 . S
N1173 Co1156 1.989 . S
N1173 C1172 1.342 . S
N1173 N1174 1.388 . S
N1174 Co1157 1.993 . S
N1174 N1173 1.388 . S
N1174 C1175 1.346 . S
C1175 N1174 1.346 . S
C1175 C1176 1.396 . S
C1175 C1185 1.510 . S
C1176 C1172 1.401 . S
C1176 C1175 1.396 . S
C1177 C1172 1.499 . S
C1177 H1178 0.959 . S
C1177 H1179 0.960 . S
C1177 H1180 0.961 . S
H1178 C1177 0.959 . S
H1179 C1177 0.960 . S
H1180 C1177 0.961 . S
O1181 Co1156 1.967 . S
O1181 C1189 1.258 . S
O1182 Co1157 1.941 . S
O1182 C1189 1.266 . S
H1183 C1185 0.959 . S
H1184 C1185 0.961 . S
C1185 C1175 1.510 . S
C1185 H1183 0.959 . S
C1185 H1184 0.961 . S
C1185 H1186 0.960 . S
H1186 C1185 0.960 . S
H1187 N1167 0.862 . S
O1188 Co1156 1.920 . S
O1188 C1161 1.289 . S
C1189 O1181 1.258 . S
C1189 O1182 1.266 . S
Co1190 O1193 1.970 . S
Co1190 N1207 1.989 . S
Co1190 O1215 1.967 . S
Co1190 O1222 1.920 . S
Co1191 O1194 1.966 . S
Co1191 N1200 2.022 . S
Co1191 N1208 1.993 . S
Co1191 O1216 1.941 . S
C1192 O1193 1.258 . S
C1192 O1194 1.263 . S
O1193 Co1190 1.970 . S
O1193 C1192 1.258 . S
O1194 Co1191 1.966 . S
O1194 C1192 1.263 . S
C1195 O1196 1.235 . S
C1195 O1222 1.289 . S
O1196 C1195 1.235 . S
C1197 C1199 1.400 1_565 S
C1197 N1200 1.351 . S
C1197 C1202 1.501 . S
C1198 C1199 1.387 . S
C1198 N1201 1.341 . S
C1199 C1197 1.400 1_545 S
C1199 C1198 1.387 . S
N1200 Co1191 2.022 . S
N1200 C1197 1.351 . S
N1200 N1201 1.365 1_565 S
N1201 C1198 1.341 . S
N1201 N1200 1.365 1_545 S
N1201 H1221 0.862 . S
C1202 C1197 1.501 . S
C1202 H1203 0.961 . S
C1202 H1204 0.961 . S
C1202 H1205 0.960 . S
H1203 C1202 0.961 . S
H1204 C1202 0.961 . S
H1205 C1202 0.960 . S
C1206 N1207 1.342 . S
C1206 C1210 1.401 . S
C1206 C1211 1.499 . S
N1207 Co1190 1.989 . S
N1207 C1206 1.342 . S
N1207 N1208 1.388 . S
N1208 Co1191 1.993 . S
N1208 N1207 1.388 . S
N1208 C1209 1.346 . S
C1209 N1208 1.346 . S
C1209 C1210 1.396 . S
C1209 C1219 1.507 1_565 S
C1210 C1206 1.401 . S
C1210 C1209 1.396 . S
C1211 C1206 1.499 . S
C1211 H1212 0.959 . S
C1211 H1213 0.960 . S
C1211 H1214 0.961 . S
H1212 C1211 0.959 . S
H1213 C1211 0.960 . S
H1214 C1211 0.961 . S
O1215 Co1190 1.967 . S
O1215 C1223 1.258 . S
O1216 Co1191 1.941 . S
O1216 C1223 1.266 . S
H1217 C1219 0.967 . S
H1218 C1219 0.962 1_565 S
C1219 C1209 1.507 1_545 S
C1219 H1217 0.967 . S
C1219 H1218 0.962 1_545 S
C1219 H1220 0.954 1_545 S
H1220 C1219 0.954 1_565 S
H1221 N1201 0.862 . S
O1222 Co1190 1.920 . S
O1222 C1195 1.289 . S
C1223 O1215 1.258 . S
C1223 O1216 1.266 . S
H1224 C1230 0.930 . S
H1225 C1233 0.930 . S
H1226 C1234 0.930 . S
H1227 C1235 0.930 1_565 S
H1228 C1238 0.930 . S
H1229 C1239 0.930 . S
C1230 H1224 0.930 . S
C1230 C1231 1.355 . S
C1230 C1232 1.415 . S
C1231 C1230 1.355 . S
C1231 C1233 1.419 . S
C1232 C1230 1.415 . S
C1232 C1237 1.425 . S
C1232 C1239 1.409 . S
C1233 H1225 0.930 . S
C1233 C1231 1.419 . S
C1233 C1234 1.362 . S
C1234 H1226 0.930 . S
C1234 C1233 1.362 . S
C1234 C1237 1.409 . S
C1235 H1227 0.930 1_545 S
C1235 C1236 1.355 . S
C1235 C1237 1.415 . S
C1236 C1235 1.355 . S
C1236 C1238 1.419 . S
C1237 C1232 1.425 . S
C1237 C1234 1.409 . S
C1237 C1235 1.415 . S
C1238 H1228 0.930 . S
C1238 C1236 1.419 . S
C1238 C1239 1.362 . S
C1239 H1229 0.930 . S
C1239 C1232 1.409 . S
C1239 C1238 1.362 . S
H1240 C1246 0.930 . S
H1241 C1249 0.930 . S
H1242 C1250 0.930 . S
H1243 C1251 0.930 . S
H1244 C1254 0.930 . S
H1245 C1255 0.930 . S
C1246 H1240 0.930 . S
C1246 C1247 1.355 . S
C1246 C1248 1.415 . S
C1247 C1246 1.355 . S
C1247 C1249 1.419 . S
C1248 C1246 1.415 . S
C1248 C1253 1.425 . S
C1248 C1255 1.409 . S
C1249 H1241 0.930 . S
C1249 C1247 1.419 . S
C1249 C1250 1.362 . S
C1250 H1242 0.930 . S
C1250 C1249 1.362 . S
C1250 C1253 1.409 . S
C1251 H1243 0.930 . S
C1251 C1252 1.355 . S
C1251 C1253 1.415 . S
C1252 C1251 1.355 . S
C1252 C1254 1.419 . S
C1253 C1248 1.425 . S
C1253 C1250 1.409 . S
C1253 C1251 1.415 . S
C1254 H1244 0.930 . S
C1254 C1252 1.419 . S
C1254 C1255 1.362 . S
C1255 H1245 0.930 . S
C1255 C1248 1.409 . S
C1255 C1254 1.362 . S
H1256 C1262 0.930 . S
H1257 C1265 0.930 . S
H1258 C1266 0.930 . S
H1259 C1267 0.930 . S
H1260 C1270 0.930 1_455 S
H1261 C1271 0.930 . S
C1262 H1256 0.930 . S
C1262 C1263 1.355 . S
C1262 C1264 1.415 . S
C1263 C1262 1.355 . S
C1263 C1265 1.419 . S
C1264 C1262 1.415 . S
C1264 C1269 1.425 . S
C1264 C1271 1.409 . S
C1265 H1257 0.930 . S
C1265 C1263 1.419 . S
C1265 C1266 1.362 . S
C1266 H1258 0.930 . S
C1266 C1265 1.362 . S
C1266 C1269 1.409 . S
C1267 H1259 0.930 . S
C1267 C1268 1.355 . S
C1267 C1269 1.415 . S
C1268 C1267 1.355 . S
C1268 C1270 1.419 . S
C1269 C1264 1.425 . S
C1269 C1266 1.409 . S
C1269 C1267 1.415 . S
C1270 H1260 0.930 1_655 S
C1270 C1268 1.419 . S
C1270 C1271 1.362 . S
C1271 H1261 0.930 . S
C1271 C1264 1.409 . S
C1271 C1270 1.362 . S
H1272 C1278 0.930 1_655 S
H1273 C1281 0.930 . S
H1274 C1282 0.930 . S
H1275 C1283 0.930 . S
H1276 C1286 0.930 . S
H1277 C1287 0.930 . S
C1278 H1272 0.930 1_455 S
C1278 C1279 1.355 . S
C1278 C1280 1.415 . S
C1279 C1278 1.355 . S
C1279 C1281 1.419 . S
C1280 C1278 1.415 . S
C1280 C1285 1.425 . S
C1280 C1287 1.409 . S
C1281 H1273 0.930 . S
C1281 C1279 1.419 . S
C1281 C1282 1.362 . S
C1282 H1274 0.930 . S
C1282 C1281 1.362 . S
C1282 C1285 1.409 . S
C1283 H1275 0.930 . S
C1283 C1284 1.355 . S
C1283 C1285 1.415 . S
C1284 C1283 1.355 . S
C1284 C1286 1.419 . S
C1285 C1280 1.425 . S
C1285 C1282 1.409 . S
C1285 C1283 1.415 . S
C1286 H1276 0.930 . S
C1286 C1284 1.419 . S
C1286 C1287 1.362 . S
C1287 H1277 0.930 . S
C1287 C1280 1.409 . S
C1287 C1286 1.362 . S
H1288 C1294 0.930 . S
H1289 C1297 0.930 . S
H1290 C1298 0.930 . S
H1291 C1299 0.930 . S
H1292 C1302 0.930 1_545 S
H1293 C1303 0.930 . S
C1294 H1288 0.930 . S
C1294 C1295 1.355 . S
C1294 C1296 1.415 . S
C1295 C1294 1.355 . S
C1295 C1297 1.419 . S
C1296 C1294 1.415 . S
C1296 C1301 1.425 . S
C1296 C1303 1.409 . S
C1297 H1289 0.930 . S
C1297 C1295 1.419 . S
C1297 C1298 1.362 . S
C1298 H1290 0.930 . S
C1298 C1297 1.362 . S
C1298 C1301 1.409 . S
C1299 H1291 0.930 . S
C1299 C1300 1.355 . S
C1299 C1301 1.415 . S
C1300 C1299 1.355 . S
C1300 C1302 1.419 . S
C1301 C1296 1.425 . S
C1301 C1298 1.409 . S
C1301 C1299 1.415 . S
C1302 H1292 0.930 1_565 S
C1302 C1300 1.419 . S
C1302 C1303 1.362 . S
C1303 H1293 0.930 . S
C1303 C1296 1.409 . S
C1303 C1302 1.362 . S
H1304 C1310 0.930 1_545 S
H1305 C1313 0.930 . S
H1306 C1314 0.930 . S
H1307 C1315 0.930 . S
H1308 C1318 0.930 . S
H1309 C1319 0.930 . S
C1310 H1304 0.930 1_565 S
C1310 C1311 1.355 . S
C1310 C1312 1.415 . S
C1311 C1310 1.355 . S
C1311 C1313 1.419 . S
C1312 C1310 1.415 . S
C1312 C1317 1.425 . S
C1312 C1319 1.409 . S
C1313 H1305 0.930 . S
C1313 C1311 1.419 . S
C1313 C1314 1.362 . S
C1314 H1306 0.930 . S
C1314 C1313 1.362 . S
C1314 C1317 1.409 . S
C1315 H1307 0.930 . S
C1315 C1316 1.355 . S
C1315 C1317 1.415 . S
C1316 C1315 1.355 . S
C1316 C1318 1.419 . S
C1317 C1312 1.425 . S
C1317 C1314 1.409 . S
C1317 C1315 1.415 . S
C1318 H1308 0.930 . S
C1318 C1316 1.419 . S
C1318 C1319 1.362 . S
C1319 H1309 0.930 . S
C1319 C1312 1.409 . S
C1319 C1318 1.362 . S
H1320 C1326 0.930 . S
H1321 C1329 0.930 . S
H1322 C1330 0.930 . S
H1323 C1331 0.930 . S
H1324 C1334 0.930 . S
H1325 C1335 0.930 . S
C1326 H1320 0.930 . S
C1326 C1327 1.355 . S
C1326 C1328 1.415 . S
C1327 C1326 1.355 . S
C1327 C1329 1.419 1_565 S
C1328 C1326 1.415 . S
C1328 C1333 1.425 . S
C1328 C1335 1.409 . S
C1329 H1321 0.930 . S
C1329 C1327 1.419 1_545 S
C1329 C1330 1.362 1_545 S
C1330 H1322 0.930 . S
C1330 C1329 1.362 1_565 S
C1330 C1333 1.409 . S
C1331 H1323 0.930 . S
C1331 C1332 1.355 . S
C1331 C1333 1.415 . S
C1332 C1331 1.355 . S
C1332 C1334 1.419 . S
C1333 C1328 1.425 . S
C1333 C1330 1.409 . S
C1333 C1331 1.415 . S
C1334 H1324 0.930 . S
C1334 C1332 1.419 . S
C1334 C1335 1.362 . S
C1335 H1325 0.930 . S
C1335 C1328 1.409 . S
C1335 C1334 1.362 . S
H1336 C1342 0.930 . S
H1337 C1345 0.930 1_545 S
H1338 C1346 0.930 . S
H1339 C1347 0.930 1_655 S
H1340 C1350 0.930 . S
H1341 C1351 0.930 . S
C1342 H1336 0.930 . S
C1342 C1343 1.355 . S
C1342 C1344 1.415 . S
C1343 C1342 1.355 . S
C1343 C1345 1.419 . S
C1344 C1342 1.415 . S
C1344 C1349 1.425 . S
C1344 C1351 1.409 . S
C1345 H1337 0.930 1_565 S
C1345 C1343 1.419 . S
C1345 C1346 1.362 . S
C1346 H1338 0.930 . S
C1346 C1345 1.362 . S
C1346 C1349 1.409 . S
C1347 H1339 0.930 1_455 S
C1347 C1348 1.355 . S
C1347 C1349 1.415 . S
C1348 C1347 1.355 . S
C1348 C1350 1.419 . S
C1349 C1344 1.425 . S
C1349 C1346 1.409 . S
C1349 C1347 1.415 . S
C1350 H1340 0.930 . S
C1350 C1348 1.419 . S
C1350 C1351 1.362 . S
C1351 H1341 0.930 . S
C1351 C1344 1.409 . S
C1351 C1350 1.362 . S
H1352 C1358 0.930 . S
H1353 C1361 0.930 . S
H1354 C1362 0.930 . S
H1355 C1363 0.930 . S
H1356 C1366 0.930 . S
H1357 C1367 0.930 . S
C1358 H1352 0.930 . S
C1358 C1359 1.355 . S
C1358 C1360 1.415 . S
C1359 C1358 1.355 . S
C1359 C1361 1.419 . S
C1360 C1358 1.415 . S
C1360 C1365 1.425 . S
C1360 C1367 1.409 . S
C1361 H1353 0.930 . S
C1361 C1359 1.419 . S
C1361 C1362 1.362 . S
C1362 H1354 0.930 . S
C1362 C1361 1.362 . S
C1362 C1365 1.409 . S
C1363 H1355 0.930 . S
C1363 C1364 1.355 . S
C1363 C1365 1.415 . S
C1364 C1363 1.355 . S
C1364 C1366 1.419 . S
C1365 C1360 1.425 . S
C1365 C1362 1.409 . S
C1365 C1363 1.415 . S
C1366 H1356 0.930 . S
C1366 C1364 1.419 . S
C1366 C1367 1.362 . S
C1367 H1357 0.930 . S
C1367 C1360 1.409 . S
C1367 C1366 1.362 . S
H1368 C1374 0.930 . S
H1369 C1377 0.930 . S
H1370 C1378 0.930 . S
H1371 C1379 0.930 . S
H1372 C1382 0.930 . S
H1373 C1383 0.930 . S
C1374 H1368 0.930 . S
C1374 C1375 1.355 . S
C1374 C1376 1.415 . S
C1375 C1374 1.355 . S
C1375 C1377 1.419 . S
C1376 C1374 1.415 . S
C1376 C1381 1.425 . S
C1376 C1383 1.409 . S
C1377 H1369 0.930 . S
C1377 C1375 1.419 . S
C1377 C1378 1.362 . S
C1378 H1370 0.930 . S
C1378 C1377 1.362 . S
C1378 C1381 1.409 . S
C1379 H1371 0.930 . S
C1379 C1380 1.355 . S
C1379 C1381 1.415 . S
C1380 C1379 1.355 . S
C1380 C1382 1.419 . S
C1381 C1376 1.425 . S
C1381 C1378 1.409 . S
C1381 C1379 1.415 . S
C1382 H1372 0.930 . S
C1382 C1380 1.419 . S
C1382 C1383 1.362 . S
C1383 H1373 0.930 . S
C1383 C1376 1.409 . S
C1383 C1382 1.362 . S
H1384 C1390 0.930 . S
H1385 C1393 0.930 1_565 S
H1386 C1394 0.930 . S
H1387 C1395 0.930 . S
H1388 C1398 0.930 . S
H1389 C1399 0.930 . S
C1390 H1384 0.930 . S
C1390 C1391 1.355 . S
C1390 C1392 1.415 . S
C1391 C1390 1.355 . S
C1391 C1393 1.419 . S
C1392 C1390 1.415 . S
C1392 C1397 1.425 . S
C1392 C1399 1.409 . S
C1393 H1385 0.930 1_545 S
C1393 C1391 1.419 . S
C1393 C1394 1.362 . S
C1394 H1386 0.930 . S
C1394 C1393 1.362 . S
C1394 C1397 1.409 . S
C1395 H1387 0.930 . S
C1395 C1396 1.355 . S
C1395 C1397 1.415 . S
C1396 C1395 1.355 . S
C1396 C1398 1.419 . S
C1397 C1392 1.425 . S
C1397 C1394 1.409 . S
C1397 C1395 1.415 . S
C1398 H1388 0.930 . S
C1398 C1396 1.419 . S
C1398 C1399 1.362 . S
C1399 H1389 0.930 . S
C1399 C1392 1.409 . S
C1399 C1398 1.362 . S
H1400 C1406 0.930 1_565 S
H1401 C1409 0.930 . S
H1402 C1410 0.930 . S
H1403 C1411 0.930 . S
H1404 C1414 0.930 1_455 S
H1405 C1415 0.930 . S
C1406 H1400 0.930 1_545 S
C1406 C1407 1.355 . S
C1406 C1408 1.415 . S
C1407 C1406 1.355 . S
C1407 C1409 1.419 . S
C1408 C1406 1.415 . S
C1408 C1413 1.425 . S
C1408 C1415 1.409 . S
C1409 H1401 0.930 . S
C1409 C1407 1.419 . S
C1409 C1410 1.362 . S
C1410 H1402 0.930 . S
C1410 C1409 1.362 . S
C1410 C1413 1.409 . S
C1411 H1403 0.930 . S
C1411 C1412 1.355 . S
C1411 C1413 1.415 . S
C1412 C1411 1.355 . S
C1412 C1414 1.419 . S
C1413 C1408 1.425 . S
C1413 C1410 1.409 . S
C1413 C1411 1.415 . S
C1414 H1404 0.930 1_655 S
C1414 C1412 1.419 . S
C1414 C1415 1.362 . S
C1415 H1405 0.930 . S
C1415 C1408 1.409 . S
C1415 C1414 1.362 . S
H1416 C1422 0.930 . S
H1417 C1425 0.930 . S
H1418 C1426 0.930 . S
H1419 C1427 0.930 . S
H1420 C1430 0.930 . S
H1421 C1431 0.930 . S
C1422 H1416 0.930 . S
C1422 C1423 1.355 . S
C1422 C1424 1.415 . S
C1423 C1422 1.355 . S
C1423 C1425 1.419 . S
C1424 C1422 1.415 . S
C1424 C1429 1.425 . S
C1424 C1431 1.409 . S
C1425 H1417 0.930 . S
C1425 C1423 1.419 . S
C1425 C1426 1.362 . S
C1426 H1418 0.930 . S
C1426 C1425 1.362 . S
C1426 C1429 1.409 . S
C1427 H1419 0.930 . S
C1427 C1428 1.355 . S
C1427 C1429 1.415 . S
C1428 C1427 1.355 . S
C1428 C1430 1.419 . S
C1429 C1424 1.425 . S
C1429 C1426 1.409 . S
C1429 C1427 1.415 . S
C1430 H1420 0.930 . S
C1430 C1428 1.419 . S
C1430 C1431 1.362 . S
C1431 H1421 0.930 . S
C1431 C1424 1.409 . S
C1431 C1430 1.362 . S
H1432 C1438 0.930 . S
H1433 C1441 0.930 . S
H1434 C1442 0.930 . S
H1435 C1443 0.930 . S
H1436 C1446 0.930 . S
H1437 C1447 0.930 . S
C1438 H1432 0.930 . S
C1438 C1439 1.355 . S
C1438 C1440 1.415 . S
C1439 C1438 1.355 . S
C1439 C1441 1.419 . S
C1440 C1438 1.415 . S
C1440 C1445 1.425 . S
C1440 C1447 1.409 . S
C1441 H1433 0.930 . S
C1441 C1439 1.419 . S
C1441 C1442 1.362 . S
C1442 H1434 0.930 . S
C1442 C1441 1.362 . S
C1442 C1445 1.409 . S
C1443 H1435 0.930 . S
C1443 C1444 1.355 . S
C1443 C1445 1.415 . S
C1444 C1443 1.355 . S
C1444 C1446 1.419 . S
C1445 C1440 1.425 . S
C1445 C1442 1.409 . S
C1445 C1443 1.415 . S
C1446 H1436 0.930 . S
C1446 C1444 1.419 . S
C1446 C1447 1.362 . S
C1447 H1437 0.930 . S
C1447 C1440 1.409 . S
C1447 C1446 1.362 . S
H1448 C1454 0.930 . S
H1449 C1457 0.930 . S
H1450 C1458 0.930 . S
H1451 C1459 0.930 . S
H1452 C1462 0.930 . S
H1453 C1463 0.930 . S
C1454 H1448 0.930 . S
C1454 C1455 1.355 . S
C1454 C1456 1.415 . S
C1455 C1454 1.355 . S
C1455 C1457 1.419 . S
C1456 C1454 1.415 . S
C1456 C1461 1.425 . S
C1456 C1463 1.409 . S
C1457 H1449 0.930 . S
C1457 C1455 1.419 . S
C1457 C1458 1.362 . S
C1458 H1450 0.930 . S
C1458 C1457 1.362 . S
C1458 C1461 1.409 . S
C1459 H1451 0.930 . S
C1459 C1460 1.355 . S
C1459 C1461 1.415 . S
C1460 C1459 1.355 . S
C1460 C1462 1.419 . S
C1461 C1456 1.425 . S
C1461 C1458 1.409 . S
C1461 C1459 1.415 . S
C1462 H1452 0.930 . S
C1462 C1460 1.419 . S
C1462 C1463 1.362 . S
C1463 H1453 0.930 . S
C1463 C1456 1.409 . S
C1463 C1462 1.362 . S
H1464 C1470 0.930 . S
H1465 C1473 0.930 . S
H1466 C1474 0.930 . S
H1467 C1475 0.930 . S
H1468 C1478 0.930 . S
H1469 C1479 0.930 . S
C1470 H1464 0.930 . S
C1470 C1471 1.355 . S
C1470 C1472 1.415 . S
C1471 C1470 1.355 . S
C1471 C1473 1.419 . S
C1472 C1470 1.415 . S
C1472 C1477 1.425 . S
C1472 C1479 1.409 . S
C1473 H1465 0.930 . S
C1473 C1471 1.419 . S
C1473 C1474 1.362 . S
C1474 H1466 0.930 . S
C1474 C1473 1.362 . S
C1474 C1477 1.409 . S
C1475 H1467 0.930 . S
C1475 C1476 1.355 . S
C1475 C1477 1.415 . S
C1476 C1475 1.355 . S
C1476 C1478 1.419 . S
C1477 C1472 1.425 . S
C1477 C1474 1.409 . S
C1477 C1475 1.415 . S
C1478 H1468 0.930 . S
C1478 C1476 1.419 . S
C1478 C1479 1.362 . S
C1479 H1469 0.930 . S
C1479 C1472 1.409 . S
C1479 C1478 1.362 . S
H1480 C1486 0.930 . S
H1481 C1489 0.930 . S
H1482 C1490 0.930 . S
H1483 C1491 0.930 . S
H1484 C1494 0.930 . S
H1485 C1495 0.930 . S
C1486 H1480 0.930 . S
C1486 C1487 1.355 . S
C1486 C1488 1.415 . S
C1487 C1486 1.355 . S
C1487 C1489 1.419 . S
C1488 C1486 1.415 . S
C1488 C1493 1.425 . S
C1488 C1495 1.409 . S
C1489 H1481 0.930 . S
C1489 C1487 1.419 . S
C1489 C1490 1.362 . S
C1490 H1482 0.930 . S
C1490 C1489 1.362 . S
C1490 C1493 1.409 . S
C1491 H1483 0.930 . S
C1491 C1492 1.355 . S
C1491 C1493 1.415 . S
C1492 C1491 1.355 . S
C1492 C1494 1.419 . S
C1493 C1488 1.425 . S
C1493 C1490 1.409 . S
C1493 C1491 1.415 . S
C1494 H1484 0.930 . S
C1494 C1492 1.419 . S
C1494 C1495 1.362 . S
C1495 H1485 0.930 . S
C1495 C1488 1.409 . S
C1495 C1494 1.362 . S
H1496 C1502 0.930 . S
H1497 C1505 0.930 . S
H1498 C1506 0.930 . S
H1499 C1507 0.930 . S
H1500 C1510 0.930 . S
H1501 C1511 0.930 . S
C1502 H1496 0.930 . S
C1502 C1503 1.355 . S
C1502 C1504 1.415 . S
C1503 C1502 1.355 . S
C1503 C1505 1.419 . S
C1504 C1502 1.415 . S
C1504 C1509 1.425 . S
C1504 C1511 1.409 . S
C1505 H1497 0.930 . S
C1505 C1503 1.419 . S
C1505 C1506 1.362 . S
C1506 H1498 0.930 . S
C1506 C1505 1.362 . S
C1506 C1509 1.409 . S
C1507 H1499 0.930 . S
C1507 C1508 1.355 . S
C1507 C1509 1.415 . S
C1508 C1507 1.355 . S
C1508 C1510 1.419 . S
C1509 C1504 1.425 . S
C1509 C1506 1.409 . S
C1509 C1507 1.415 . S
C1510 H1500 0.930 . S
C1510 C1508 1.419 . S
C1510 C1511 1.362 . S
C1511 H1501 0.930 . S
C1511 C1504 1.409 . S
C1511 C1510 1.362 . S
H1512 C1518 0.930 . S
H1513 C1521 0.930 . S
H1514 C1522 0.930 . S
H1515 C1523 0.930 . S
H1516 C1526 0.930 . S
H1517 C1527 0.930 . S
C1518 H1512 0.930 . S
C1518 C1519 1.355 . S
C1518 C1520 1.415 . S
C1519 C1518 1.355 . S
C1519 C1521 1.419 . S
C1520 C1518 1.415 . S
C1520 C1525 1.425 . S
C1520 C1527 1.409 . S
C1521 H1513 0.930 . S
C1521 C1519 1.419 . S
C1521 C1522 1.362 . S
C1522 H1514 0.930 . S
C1522 C1521 1.362 . S
C1522 C1525 1.409 . S
C1523 H1515 0.930 . S
C1523 C1524 1.355 . S
C1523 C1525 1.415 . S
C1524 C1523 1.355 . S
C1524 C1526 1.419 . S
C1525 C1520 1.425 . S
C1525 C1522 1.409 . S
C1525 C1523 1.415 . S
C1526 H1516 0.930 . S
C1526 C1524 1.419 . S
C1526 C1527 1.362 . S
C1527 H1517 0.930 . S
C1527 C1520 1.409 . S
C1527 C1526 1.362 . S
H1528 C1534 0.930 . S
H1529 C1537 0.930 . S
H1530 C1538 0.930 . S
H1531 C1539 0.930 . S
H1532 C1542 0.930 . S
H1533 C1543 0.930 . S
C1534 H1528 0.930 . S
C1534 C1535 1.355 . S
C1534 C1536 1.415 . S
C1535 C1534 1.355 . S
C1535 C1537 1.419 . S
C1536 C1534 1.415 . S
C1536 C1541 1.425 . S
C1536 C1543 1.409 . S
C1537 H1529 0.930 . S
C1537 C1535 1.419 . S
C1537 C1538 1.362 . S
C1538 H1530 0.930 . S
C1538 C1537 1.362 . S
C1538 C1541 1.409 . S
C1539 H1531 0.930 . S
C1539 C1540 1.355 . S
C1539 C1541 1.415 . S
C1540 C1539 1.355 . S
C1540 C1542 1.419 . S
C1541 C1536 1.425 . S
C1541 C1538 1.409 . S
C1541 C1539 1.415 . S
C1542 H1532 0.930 . S
C1542 C1540 1.419 . S
C1542 C1543 1.362 . S
C1543 H1533 0.930 . S
C1543 C1536 1.409 . S
C1543 C1542 1.362 . S
H1544 C1550 0.930 . S
H1545 C1553 0.930 . S
H1546 C1554 0.930 . S
H1547 C1555 0.930 . S
H1548 C1558 0.930 . S
H1549 C1559 0.930 . S
C1550 H1544 0.930 . S
C1550 C1551 1.355 . S
C1550 C1552 1.415 . S
C1551 C1550 1.355 . S
C1551 C1553 1.419 . S
C1552 C1550 1.415 . S
C1552 C1557 1.425 . S
C1552 C1559 1.409 . S
C1553 H1545 0.930 . S
C1553 C1551 1.419 . S
C1553 C1554 1.362 . S
C1554 H1546 0.930 . S
C1554 C1553 1.362 . S
C1554 C1557 1.409 . S
C1555 H1547 0.930 . S
C1555 C1556 1.355 . S
C1555 C1557 1.415 . S
C1556 C1555 1.355 . S
C1556 C1558 1.419 . S
C1557 C1552 1.425 . S
C1557 C1554 1.409 . S
C1557 C1555 1.415 . S
C1558 H1548 0.930 . S
C1558 C1556 1.419 . S
C1558 C1559 1.362 . S
C1559 H1549 0.930 . S
C1559 C1552 1.409 . S
C1559 C1558 1.362 . S
H1560 C1566 0.930 . S
H1561 C1569 0.930 . S
H1562 C1570 0.930 . S
H1563 C1571 0.930 . S
H1564 C1574 0.930 . S
H1565 C1575 0.930 . S
C1566 H1560 0.930 . S
C1566 C1567 1.355 . S
C1566 C1568 1.415 . S
C1567 C1566 1.355 . S
C1567 C1569 1.419 . S
C1568 C1566 1.415 . S
C1568 C1573 1.425 . S
C1568 C1575 1.409 . S
C1569 H1561 0.930 . S
C1569 C1567 1.419 . S
C1569 C1570 1.362 . S
C1570 H1562 0.930 . S
C1570 C1569 1.362 . S
C1570 C1573 1.409 . S
C1571 H1563 0.930 . S
C1571 C1572 1.355 . S
C1571 C1573 1.415 . S
C1572 C1571 1.355 . S
C1572 C1574 1.419 . S
C1573 C1568 1.425 . S
C1573 C1570 1.409 . S
C1573 C1571 1.415 . S
C1574 H1564 0.930 . S
C1574 C1572 1.419 . S
C1574 C1575 1.362 . S
C1575 H1565 0.930 . S
C1575 C1568 1.409 . S
C1575 C1574 1.362 . S
H1576 C1582 0.930 . S
H1577 C1585 0.930 . S
H1578 C1586 0.930 . S
H1579 C1587 0.930 . S
H1580 C1590 0.930 . S
H1581 C1591 0.930 . S
C1582 H1576 0.930 . S
C1582 C1583 1.355 . S
C1582 C1584 1.415 . S
C1583 C1582 1.355 . S
C1583 C1585 1.419 . S
C1584 C1582 1.415 . S
C1584 C1589 1.425 . S
C1584 C1591 1.409 . S
C1585 H1577 0.930 . S
C1585 C1583 1.419 . S
C1585 C1586 1.362 . S
C1586 H1578 0.930 . S
C1586 C1585 1.362 . S
C1586 C1589 1.409 . S
C1587 H1579 0.930 . S
C1587 C1588 1.355 . S
C1587 C1589 1.415 . S
C1588 C1587 1.355 . S
C1588 C1590 1.419 . S
C1589 C1584 1.425 . S
C1589 C1586 1.409 . S
C1589 C1587 1.415 . S
C1590 H1580 0.930 . S
C1590 C1588 1.419 . S
C1590 C1591 1.362 . S
C1591 H1581 0.930 . S
C1591 C1584 1.409 . S
C1591 C1590 1.362 . S
H1592 C1598 0.930 . S
H1593 C1601 0.930 . S
H1594 C1602 0.930 . S
H1595 C1603 0.930 . S
H1596 C1606 0.930 . S
H1597 C1607 0.930 . S
C1598 H1592 0.930 . S
C1598 C1599 1.355 . S
C1598 C1600 1.415 . S
C1599 C1598 1.355 . S
C1599 C1601 1.419 . S
C1600 C1598 1.415 . S
C1600 C1605 1.425 . S
C1600 C1607 1.409 . S
C1601 H1593 0.930 . S
C1601 C1599 1.419 . S
C1601 C1602 1.362 . S
C1602 H1594 0.930 . S
C1602 C1601 1.362 . S
C1602 C1605 1.409 . S
C1603 H1595 0.930 . S
C1603 C1604 1.355 . S
C1603 C1605 1.415 . S
C1604 C1603 1.355 . S
C1604 C1606 1.419 . S
C1605 C1600 1.425 . S
C1605 C1602 1.409 . S
C1605 C1603 1.415 . S
C1606 H1596 0.930 . S
C1606 C1604 1.419 . S
C1606 C1607 1.362 . S
C1607 H1597 0.930 . S
C1607 C1600 1.409 . S
C1607 C1606 1.362 . S
H1608 C1614 0.930 . S
H1609 C1617 0.930 . S
H1610 C1618 0.930 . S
H1611 C1619 0.930 . S
H1612 C1622 0.930 . S
H1613 C1623 0.930 . S
C1614 H1608 0.930 . S
C1614 C1615 1.355 . S
C1614 C1616 1.415 . S
C1615 C1614 1.355 . S
C1615 C1617 1.419 . S
C1616 C1614 1.415 . S
C1616 C1621 1.425 . S
C1616 C1623 1.409 . S
C1617 H1609 0.930 . S
C1617 C1615 1.419 . S
C1617 C1618 1.362 . S
C1618 H1610 0.930 . S
C1618 C1617 1.362 . S
C1618 C1621 1.409 . S
C1619 H1611 0.930 . S
C1619 C1620 1.355 . S
C1619 C1621 1.415 . S
C1620 C1619 1.355 . S
C1620 C1622 1.419 . S
C1621 C1616 1.425 . S
C1621 C1618 1.409 . S
C1621 C1619 1.415 . S
C1622 H1612 0.930 . S
C1622 C1620 1.419 . S
C1622 C1623 1.362 . S
C1623 H1613 0.930 . S
C1623 C1616 1.409 . S
C1623 C1622 1.362 . S
H1624 C1630 0.930 . S
H1625 C1633 0.930 . S
H1626 C1634 0.930 . S
H1627 C1635 0.930 . S
H1628 C1638 0.930 . S
H1629 C1639 0.930 . S
C1630 H1624 0.930 . S
C1630 C1631 1.355 . S
C1630 C1632 1.415 . S
C1631 C1630 1.355 . S
C1631 C1633 1.419 . S
C1632 C1630 1.415 . S
C1632 C1637 1.425 . S
C1632 C1639 1.409 . S
C1633 H1625 0.930 . S
C1633 C1631 1.419 . S
C1633 C1634 1.362 . S
C1634 H1626 0.930 . S
C1634 C1633 1.362 . S
C1634 C1637 1.409 . S
C1635 H1627 0.930 . S
C1635 C1636 1.355 . S
C1635 C1637 1.415 . S
C1636 C1635 1.355 . S
C1636 C1638 1.419 . S
C1637 C1632 1.425 . S
C1637 C1634 1.409 . S
C1637 C1635 1.415 . S
C1638 H1628 0.930 . S
C1638 C1636 1.419 . S
C1638 C1639 1.362 . S
C1639 H1629 0.930 . S
C1639 C1632 1.409 . S
C1639 C1638 1.362 . S
H1640 C1646 0.930 . S
H1641 C1649 0.930 . S
H1642 C1650 0.930 . S
H1643 C1651 0.930 . S
H1644 C1654 0.930 . S
H1645 C1655 0.930 . S
C1646 H1640 0.930 . S
C1646 C1647 1.355 . S
C1646 C1648 1.415 . S
C1647 C1646 1.355 . S
C1647 C1649 1.419 . S
C1648 C1646 1.415 . S
C1648 C1653 1.425 . S
C1648 C1655 1.409 . S
C1649 H1641 0.930 . S
C1649 C1647 1.419 . S
C1649 C1650 1.362 . S
C1650 H1642 0.930 . S
C1650 C1649 1.362 . S
C1650 C1653 1.409 . S
C1651 H1643 0.930 . S
C1651 C1652 1.355 . S
C1651 C1653 1.415 . S
C1652 C1651 1.355 . S
C1652 C1654 1.419 . S
C1653 C1648 1.425 . S
C1653 C1650 1.409 . S
C1653 C1651 1.415 . S
C1654 H1644 0.930 . S
C1654 C1652 1.419 . S
C1654 C1655 1.362 . S
C1655 H1645 0.930 . S
C1655 C1648 1.409 . S
C1655 C1654 1.362 . S
H1656 C1662 0.930 . S
H1657 C1665 0.930 . S
H1658 C1666 0.930 . S
H1659 C1667 0.930 . S
H1660 C1670 0.930 . S
H1661 C1671 0.930 . S
C1662 H1656 0.930 . S
C1662 C1663 1.355 . S
C1662 C1664 1.415 . S
C1663 C1662 1.355 . S
C1663 C1665 1.419 . S
C1664 C1662 1.415 . S
C1664 C1669 1.425 . S
C1664 C1671 1.409 . S
C1665 H1657 0.930 . S
C1665 C1663 1.419 . S
C1665 C1666 1.362 . S
C1666 H1658 0.930 . S
C1666 C1665 1.362 . S
C1666 C1669 1.409 . S
C1667 H1659 0.930 . S
C1667 C1668 1.355 . S
C1667 C1669 1.415 . S
C1668 C1667 1.355 . S
C1668 C1670 1.419 . S
C1669 C1664 1.425 . S
C1669 C1666 1.409 . S
C1669 C1667 1.415 . S
C1670 H1660 0.930 . S
C1670 C1668 1.419 . S
C1670 C1671 1.362 . S
C1671 H1661 0.930 . S
C1671 C1664 1.409 . S
C1671 C1670 1.362 . S
H1672 C1678 0.930 . S
H1673 C1681 0.930 . S
H1674 C1682 0.930 . S
H1675 C1683 0.930 . S
H1676 C1686 0.930 . S
H1677 C1687 0.930 . S
C1678 H1672 0.930 . S
C1678 C1679 1.355 . S
C1678 C1680 1.415 . S
C1679 C1678 1.355 . S
C1679 C1681 1.419 . S
C1680 C1678 1.415 . S
C1680 C1685 1.425 . S
C1680 C1687 1.409 . S
C1681 H1673 0.930 . S
C1681 C1679 1.419 . S
C1681 C1682 1.362 . S
C1682 H1674 0.930 . S
C1682 C1681 1.362 . S
C1682 C1685 1.409 . S
C1683 H1675 0.930 . S
C1683 C1684 1.355 . S
C1683 C1685 1.415 . S
C1684 C1683 1.355 . S
C1684 C1686 1.419 . S
C1685 C1680 1.425 . S
C1685 C1682 1.409 . S
C1685 C1683 1.415 . S
C1686 H1676 0.930 . S
C1686 C1684 1.419 . S
C1686 C1687 1.362 . S
C1687 H1677 0.930 . S
C1687 C1680 1.409 . S
C1687 C1686 1.362 . S
H1688 C1694 0.930 . S
H1689 C1697 0.930 . S
H1690 C1698 0.930 . S
H1691 C1699 0.930 . S
H1692 C1702 0.930 . S
H1693 C1703 0.930 . S
C1694 H1688 0.930 . S
C1694 C1695 1.355 . S
C1694 C1696 1.415 . S
C1695 C1694 1.355 . S
C1695 C1697 1.419 . S
C1696 C1694 1.415 . S
C1696 C1701 1.425 . S
C1696 C1703 1.409 . S
C1697 H1689 0.930 . S
C1697 C1695 1.419 . S
C1697 C1698 1.362 . S
C1698 H1690 0.930 . S
C1698 C1697 1.362 . S
C1698 C1701 1.409 . S
C1699 H1691 0.930 . S
C1699 C1700 1.355 . S
C1699 C1701 1.415 . S
C1700 C1699 1.355 . S
C1700 C1702 1.419 . S
C1701 C1696 1.425 . S
C1701 C1698 1.409 . S
C1701 C1699 1.415 . S
C1702 H1692 0.930 . S
C1702 C1700 1.419 . S
C1702 C1703 1.362 . S
C1703 H1693 0.930 . S
C1703 C1696 1.409 . S
C1703 C1702 1.362 . S
H1704 C1710 0.930 . S
H1705 C1713 0.930 . S
H1706 C1714 0.930 . S
H1707 C1715 0.930 . S
H1708 C1718 0.930 . S
H1709 C1719 0.930 . S
C1710 H1704 0.930 . S
C1710 C1711 1.355 . S
C1710 C1712 1.415 . S
C1711 C1710 1.355 . S
C1711 C1713 1.419 . S
C1712 C1710 1.415 . S
C1712 C1717 1.425 . S
C1712 C1719 1.409 . S
C1713 H1705 0.930 . S
C1713 C1711 1.419 . S
C1713 C1714 1.362 . S
C1714 H1706 0.930 . S
C1714 C1713 1.362 . S
C1714 C1717 1.409 . S
C1715 H1707 0.930 . S
C1715 C1716 1.355 . S
C1715 C1717 1.415 . S
C1716 C1715 1.355 . S
C1716 C1718 1.419 . S
C1717 C1712 1.425 . S
C1717 C1714 1.409 . S
C1717 C1715 1.415 . S
C1718 H1708 0.930 . S
C1718 C1716 1.419 . S
C1718 C1719 1.362 . S
C1719 H1709 0.930 . S
C1719 C1712 1.409 . S
C1719 C1718 1.362 . S
H1720 C1726 0.930 . S
H1721 C1729 0.930 . S
H1722 C1730 0.930 . S
H1723 C1731 0.930 . S
H1724 C1734 0.930 . S
H1725 C1735 0.930 . S
C1726 H1720 0.930 . S
C1726 C1727 1.355 . S
C1726 C1728 1.415 . S
C1727 C1726 1.355 . S
C1727 C1729 1.419 . S
C1728 C1726 1.415 . S
C1728 C1733 1.425 . S
C1728 C1735 1.409 . S
C1729 H1721 0.930 . S
C1729 C1727 1.419 . S
C1729 C1730 1.362 . S
C1730 H1722 0.930 . S
C1730 C1729 1.362 . S
C1730 C1733 1.409 . S
C1731 H1723 0.930 . S
C1731 C1732 1.355 . S
C1731 C1733 1.415 . S
C1732 C1731 1.355 . S
C1732 C1734 1.419 . S
C1733 C1728 1.425 . S
C1733 C1730 1.409 . S
C1733 C1731 1.415 . S
C1734 H1724 0.930 . S
C1734 C1732 1.419 . S
C1734 C1735 1.362 . S
C1735 H1725 0.930 . S
C1735 C1728 1.409 . S
C1735 C1734 1.362 . S
H1736 C1742 0.930 . S
H1737 C1745 0.930 . S
H1738 C1746 0.930 . S
H1739 C1747 0.930 . S
H1740 C1750 0.930 . S
H1741 C1751 0.930 . S
C1742 H1736 0.930 . S
C1742 C1743 1.355 . S
C1742 C1744 1.415 . S
C1743 C1742 1.355 . S
C1743 C1745 1.419 . S
C1744 C1742 1.415 . S
C1744 C1749 1.425 . S
C1744 C1751 1.409 . S
C1745 H1737 0.930 . S
C1745 C1743 1.419 . S
C1745 C1746 1.362 . S
C1746 H1738 0.930 . S
C1746 C1745 1.362 . S
C1746 C1749 1.409 . S
C1747 H1739 0.930 . S
C1747 C1748 1.355 . S
C1747 C1749 1.415 . S
C1748 C1747 1.355 . S
C1748 C1750 1.419 . S
C1749 C1744 1.425 . S
C1749 C1746 1.409 . S
C1749 C1747 1.415 . S
C1750 H1740 0.930 . S
C1750 C1748 1.419 . S
C1750 C1751 1.362 . S
C1751 H1741 0.930 . S
C1751 C1744 1.409 . S
C1751 C1750 1.362 . S
H1752 C1758 0.930 . S
H1753 C1761 0.930 . S
H1754 C1762 0.930 . S
H1755 C1763 0.930 . S
H1756 C1766 0.930 . S
H1757 C1767 0.930 . S
C1758 H1752 0.930 . S
C1758 C1759 1.355 . S
C1758 C1760 1.415 . S
C1759 C1758 1.355 . S
C1759 C1761 1.419 . S
C1760 C1758 1.415 . S
C1760 C1765 1.425 . S
C1760 C1767 1.409 . S
C1761 H1753 0.930 . S
C1761 C1759 1.419 . S
C1761 C1762 1.362 . S
C1762 H1754 0.930 . S
C1762 C1761 1.362 . S
C1762 C1765 1.409 . S
C1763 H1755 0.930 . S
C1763 C1764 1.355 . S
C1763 C1765 1.415 . S
C1764 C1763 1.355 . S
C1764 C1766 1.419 . S
C1765 C1760 1.425 . S
C1765 C1762 1.409 . S
C1765 C1763 1.415 . S
C1766 H1756 0.930 . S
C1766 C1764 1.419 . S
C1766 C1767 1.362 . S
C1767 H1757 0.930 . S
C1767 C1760 1.409 . S
C1767 C1766 1.362 . S
H1768 C1774 0.930 . S
H1769 C1777 0.930 . S
H1770 C1778 0.930 . S
H1771 C1779 0.930 . S
H1772 C1782 0.930 . S
H1773 C1783 0.930 . S
C1774 H1768 0.930 . S
C1774 C1775 1.355 . S
C1774 C1776 1.415 . S
C1775 C1774 1.355 . S
C1775 C1777 1.419 . S
C1776 C1774 1.415 . S
C1776 C1781 1.425 . S
C1776 C1783 1.409 . S
C1777 H1769 0.930 . S
C1777 C1775 1.419 . S
C1777 C1778 1.362 . S
C1778 H1770 0.930 . S
C1778 C1777 1.362 . S
C1778 C1781 1.409 . S
C1779 H1771 0.930 . S
C1779 C1780 1.355 . S
C1779 C1781 1.415 . S
C1780 C1779 1.355 . S
C1780 C1782 1.419 . S
C1781 C1776 1.425 . S
C1781 C1778 1.409 . S
C1781 C1779 1.415 . S
C1782 H1772 0.930 . S
C1782 C1780 1.419 . S
C1782 C1783 1.362 . S
C1783 H1773 0.930 . S
C1783 C1776 1.409 . S
C1783 C1782 1.362 . S
H1784 C1790 0.930 . S
H1785 C1793 0.930 . S
H1786 C1794 0.930 . S
H1787 C1795 0.930 . S
H1788 C1798 0.930 . S
H1789 C1799 0.930 . S
C1790 H1784 0.930 . S
C1790 C1791 1.355 . S
C1790 C1792 1.415 . S
C1791 C1790 1.355 . S
C1791 C1793 1.419 . S
C1792 C1790 1.415 . S
C1792 C1797 1.425 . S
C1792 C1799 1.409 . S
C1793 H1785 0.930 . S
C1793 C1791 1.419 . S
C1793 C1794 1.362 . S
C1794 H1786 0.930 . S
C1794 C1793 1.362 . S
C1794 C1797 1.409 . S
C1795 H1787 0.930 . S
C1795 C1796 1.355 . S
C1795 C1797 1.415 . S
C1796 C1795 1.355 . S
C1796 C1798 1.419 . S
C1797 C1792 1.425 . S
C1797 C1794 1.409 . S
C1797 C1795 1.415 . S
C1798 H1788 0.930 . S
C1798 C1796 1.419 . S
C1798 C1799 1.362 . S
C1799 H1789 0.930 . S
C1799 C1792 1.409 . S
C1799 C1798 1.362 . S
H1800 C1806 0.930 . S
H1801 C1809 0.930 . S
H1802 C1810 0.930 . S
H1803 C1811 0.930 . S
H1804 C1814 0.930 . S
H1805 C1815 0.930 . S
C1806 H1800 0.930 . S
C1806 C1807 1.355 . S
C1806 C1808 1.415 . S
C1807 C1806 1.355 . S
C1807 C1809 1.419 . S
C1808 C1806 1.415 . S
C1808 C1813 1.425 . S
C1808 C1815 1.409 . S
C1809 H1801 0.930 . S
C1809 C1807 1.419 . S
C1809 C1810 1.362 . S
C1810 H1802 0.930 . S
C1810 C1809 1.362 . S
C1810 C1813 1.409 . S
C1811 H1803 0.930 . S
C1811 C1812 1.355 . S
C1811 C1813 1.415 . S
C1812 C1811 1.355 . S
C1812 C1814 1.419 . S
C1813 C1808 1.425 . S
C1813 C1810 1.409 . S
C1813 C1811 1.415 . S
C1814 H1804 0.930 . S
C1814 C1812 1.419 . S
C1814 C1815 1.362 . S
C1815 H1805 0.930 . S
C1815 C1808 1.409 . S
C1815 C1814 1.362 . S
H1816 C1822 0.930 . S
H1817 C1825 0.930 . S
H1818 C1826 0.930 . S
H1819 C1827 0.930 . S
H1820 C1830 0.930 . S
H1821 C1831 0.930 . S
C1822 H1816 0.930 . S
C1822 C1823 1.355 . S
C1822 C1824 1.415 . S
C1823 C1822 1.355 . S
C1823 C1825 1.419 . S
C1824 C1822 1.415 . S
C1824 C1829 1.425 . S
C1824 C1831 1.409 . S
C1825 H1817 0.930 . S
C1825 C1823 1.419 . S
C1825 C1826 1.362 . S
C1826 H1818 0.930 . S
C1826 C1825 1.362 . S
C1826 C1829 1.409 . S
C1827 H1819 0.930 . S
C1827 C1828 1.355 . S
C1827 C1829 1.415 . S
C1828 C1827 1.355 . S
C1828 C1830 1.419 . S
C1829 C1824 1.425 . S
C1829 C1826 1.409 . S
C1829 C1827 1.415 . S
C1830 H1820 0.930 . S
C1830 C1828 1.419 . S
C1830 C1831 1.362 . S
C1831 H1821 0.930 . S
C1831 C1824 1.409 . S
C1831 C1830 1.362 . S
H1832 C1838 0.930 . S
H1833 C1841 0.930 . S
H1834 C1842 0.930 . S
H1835 C1843 0.930 . S
H1836 C1846 0.930 . S
H1837 C1847 0.930 1_655 S
C1838 H1832 0.930 . S
C1838 C1839 1.355 . S
C1838 C1840 1.415 . S
C1839 C1838 1.355 . S
C1839 C1841 1.419 . S
C1840 C1838 1.415 . S
C1840 C1845 1.425 . S
C1840 C1847 1.409 . S
C1841 H1833 0.930 . S
C1841 C1839 1.419 . S
C1841 C1842 1.362 . S
C1842 H1834 0.930 . S
C1842 C1841 1.362 . S
C1842 C1845 1.409 . S
C1843 H1835 0.930 . S
C1843 C1844 1.355 . S
C1843 C1845 1.415 . S
C1844 C1843 1.355 . S
C1844 C1846 1.419 1_455 S
C1845 C1840 1.425 . S
C1845 C1842 1.409 . S
C1845 C1843 1.415 . S
C1846 H1836 0.930 . S
C1846 C1844 1.419 1_655 S
C1846 C1847 1.362 1_655 S
C1847 H1837 0.930 1_455 S
C1847 C1840 1.409 . S
C1847 C1846 1.362 1_455 S
H1848 C1854 0.930 . S
H1849 C1857 0.930 . S
H1850 C1858 0.930 . S
H1851 C1859 0.930 . S
H1852 C1862 0.930 . S
H1853 C1863 0.930 . S
C1854 H1848 0.930 . S
C1854 C1855 1.355 . S
C1854 C1856 1.415 . S
C1855 C1854 1.355 . S
C1855 C1857 1.419 . S
C1856 C1854 1.415 . S
C1856 C1861 1.425 . S
C1856 C1863 1.409 . S
C1857 H1849 0.930 . S
C1857 C1855 1.419 . S
C1857 C1858 1.362 . S
C1858 H1850 0.930 . S
C1858 C1857 1.362 . S
C1858 C1861 1.409 . S
C1859 H1851 0.930 . S
C1859 C1860 1.355 . S
C1859 C1861 1.415 . S
C1860 C1859 1.355 . S
C1860 C1862 1.419 . S
C1861 C1856 1.425 . S
C1861 C1858 1.409 . S
C1861 C1859 1.415 . S
C1862 H1852 0.930 . S
C1862 C1860 1.419 . S
C1862 C1863 1.362 . S
C1863 H1853 0.930 . S
C1863 C1856 1.409 . S
C1863 C1862 1.362 . S
H1864 C1870 0.930 1_565 S
H1865 C1873 0.930 . S
H1866 C1874 0.930 . S
H1867 C1875 0.930 . S
H1868 C1878 0.930 . S
H1869 C1879 0.930 1_565 S
C1870 H1864 0.930 1_545 S
C1870 C1871 1.355 . S
C1870 C1872 1.415 . S
C1871 C1870 1.355 . S
C1871 C1873 1.419 . S
C1872 C1870 1.415 . S
C1872 C1877 1.425 . S
C1872 C1879 1.409 . S
C1873 H1865 0.930 . S
C1873 C1871 1.419 . S
C1873 C1874 1.362 . S
C1874 H1866 0.930 . S
C1874 C1873 1.362 . S
C1874 C1877 1.409 . S
C1875 H1867 0.930 . S
C1875 C1876 1.355 . S
C1875 C1877 1.415 . S
C1876 C1875 1.355 . S
C1876 C1878 1.419 . S
C1877 C1872 1.425 . S
C1877 C1874 1.409 . S
C1877 C1875 1.415 . S
C1878 H1868 0.930 . S
C1878 C1876 1.419 . S
C1878 C1879 1.362 . S
C1879 H1869 0.930 1_545 S
C1879 C1872 1.409 . S
C1879 C1878 1.362 . S
H1880 C1886 0.930 . S
H1881 C1889 0.930 . S
H1882 C1890 0.930 . S
H1883 C1891 0.930 1_455 S
H1884 C1894 0.930 . S
H1885 C1895 0.930 . S
C1886 H1880 0.930 . S
C1886 C1887 1.355 . S
C1886 C1888 1.415 . S
C1887 C1886 1.355 . S
C1887 C1889 1.419 . S
C1888 C1886 1.415 . S
C1888 C1893 1.425 . S
C1888 C1895 1.409 . S
C1889 H1881 0.930 . S
C1889 C1887 1.419 . S
C1889 C1890 1.362 . S
C1890 H1882 0.930 . S
C1890 C1889 1.362 . S
C1890 C1893 1.409 . S
C1891 H1883 0.930 1_655 S
C1891 C1892 1.355 . S
C1891 C1893 1.415 . S
C1892 C1891 1.355 . S
C1892 C1894 1.419 . S
C1893 C1888 1.425 . S
C1893 C1890 1.409 . S
C1893 C1891 1.415 . S
C1894 H1884 0.930 . S
C1894 C1892 1.419 . S
C1894 C1895 1.362 . S
C1895 H1885 0.930 . S
C1895 C1888 1.409 . S
C1895 C1894 1.362 . S
H1896 C1902 0.930 . S
H1897 C1905 0.930 . S
H1898 C1906 0.930 . S
H1899 C1907 0.930 . S
H1900 C1910 0.930 . S
H1901 C1911 0.930 . S
C1902 H1896 0.930 . S
C1902 C1903 1.355 . S
C1902 C1904 1.415 . S
C1903 C1902 1.355 . S
C1903 C1905 1.419 . S
C1904 C1902 1.415 . S
C1904 C1909 1.425 . S
C1904 C1911 1.409 . S
C1905 H1897 0.930 . S
C1905 C1903 1.419 . S
C1905 C1906 1.362 . S
C1906 H1898 0.930 . S
C1906 C1905 1.362 . S
C1906 C1909 1.409 . S
C1907 H1899 0.930 . S
C1907 C1908 1.355 . S
C1907 C1909 1.415 . S
C1908 C1907 1.355 . S
C1908 C1910 1.419 . S
C1909 C1904 1.425 . S
C1909 C1906 1.409 . S
C1909 C1907 1.415 . S
C1910 H1900 0.930 . S
C1910 C1908 1.419 . S
C1910 C1911 1.362 . S
C1911 H1901 0.930 . S
C1911 C1904 1.409 . S
C1911 C1910 1.362 . S
H1912 C1918 0.930 . S
H1913 C1921 0.930 . S
H1914 C1922 0.907 1_565 S
H1915 C1923 0.930 1_565 S
H1916 C1926 0.930 . S
H1917 C1927 0.930 . S
C1918 H1912 0.930 . S
C1918 C1919 1.355 . S
C1918 C1920 1.415 . S
C1919 C1918 1.355 . S
C1919 C1921 1.419 . S
C1920 C1918 1.415 . S
C1920 C1925 1.425 . S
C1920 C1927 1.409 . S
C1921 H1913 0.930 . S
C1921 C1919 1.419 . S
C1921 C1922 1.362 . S
C1922 H1914 0.907 1_545 S
C1922 C1921 1.362 . S
C1922 C1925 1.409 . S
C1923 H1915 0.930 1_545 S
C1923 C1924 1.355 . S
C1923 C1925 1.415 . S
C1924 C1923 1.355 . S
C1924 C1926 1.419 . S
C1925 C1920 1.425 . S
C1925 C1922 1.409 . S
C1925 C1923 1.415 . S
C1926 H1916 0.930 . S
C1926 C1924 1.419 . S
C1926 C1927 1.362 . S
C1927 H1917 0.930 . S
C1927 C1920 1.409 . S
C1927 C1926 1.362 . S
H1928 C1934 0.930 . S
H1929 C1937 0.930 . S
H1930 C1938 0.930 . S
H1931 C1939 0.930 1_455 S
H1932 C1942 0.930 . S
H1933 C1943 0.930 . S
C1934 H1928 0.930 . S
C1934 C1935 1.355 . S
C1934 C1936 1.415 . S
C1935 C1934 1.355 . S
C1935 C1937 1.419 . S
C1936 C1934 1.415 . S
C1936 C1941 1.425 . S
C1936 C1943 1.409 . S
C1937 H1929 0.930 . S
C1937 C1935 1.419 . S
C1937 C1938 1.362 . S
C1938 H1930 0.930 . S
C1938 C1937 1.362 . S
C1938 C1941 1.409 . S
C1939 H1931 0.930 1_655 S
C1939 C1940 1.355 . S
C1939 C1941 1.415 . S
C1940 C1939 1.355 . S
C1940 C1942 1.419 . S
C1941 C1936 1.425 . S
C1941 C1938 1.409 . S
C1941 C1939 1.415 . S
C1942 H1932 0.930 . S
C1942 C1940 1.419 . S
C1942 C1943 1.362 . S
C1943 H1933 0.930 . S
C1943 C1936 1.409 . S
C1943 C1942 1.362 . S
H1944 C1950 0.930 . S
H1945 C1953 0.930 . S
H1946 C1954 0.930 . S
H1947 C1955 0.930 . S
H1948 C1958 0.930 . S
H1949 C1959 0.930 . S
C1950 H1944 0.930 . S
C1950 C1951 1.355 . S
C1950 C1952 1.415 . S
C1951 C1950 1.355 . S
C1951 C1953 1.419 . S
C1952 C1950 1.415 . S
C1952 C1957 1.425 . S
C1952 C1959 1.409 . S
C1953 H1945 0.930 . S
C1953 C1951 1.419 . S
C1953 C1954 1.362 . S
C1954 H1946 0.930 . S
C1954 C1953 1.362 . S
C1954 C1957 1.409 . S
C1955 H1947 0.930 . S
C1955 C1956 1.355 . S
C1955 C1957 1.415 . S
C1956 C1955 1.355 . S
C1956 C1958 1.419 . S
C1957 C1952 1.425 . S
C1957 C1954 1.409 . S
C1957 C1955 1.415 . S
C1958 H1948 0.930 . S
C1958 C1956 1.419 . S
C1958 C1959 1.362 . S
C1959 H1949 0.930 . S
C1959 C1952 1.409 . S
C1959 C1958 1.362 . S
H1960 C1966 0.930 . S
H1961 C1969 0.930 . S
H1962 C1970 0.930 . S
H1963 C1971 0.930 . S
H1964 C1974 0.930 . S
H1965 C1975 0.930 . S
C1966 H1960 0.930 . S
C1966 C1967 1.355 . S
C1966 C1968 1.415 . S
C1967 C1966 1.355 . S
C1967 C1969 1.419 . S
C1968 C1966 1.415 . S
C1968 C1973 1.425 . S
C1968 C1975 1.409 . S
C1969 H1961 0.930 . S
C1969 C1967 1.419 . S
C1969 C1970 1.362 . S
C1970 H1962 0.930 . S
C1970 C1969 1.362 . S
C1970 C1973 1.409 . S
C1971 H1963 0.930 . S
C1971 C1972 1.355 . S
C1971 C1973 1.415 . S
C1972 C1971 1.355 . S
C1972 C1974 1.419 . S
C1973 C1968 1.425 . S
C1973 C1970 1.409 . S
C1973 C1971 1.415 . S
C1974 H1964 0.930 . S
C1974 C1972 1.419 . S
C1974 C1975 1.362 . S
C1975 H1965 0.930 . S
C1975 C1968 1.409 . S
C1975 C1974 1.362 . S
H1976 C1982 0.930 . S
H1977 C1985 0.930 . S
H1978 C1986 0.930 . S
H1979 C1987 0.930 1_655 S
H1980 C1990 0.930 . S
H1981 C1991 0.930 . S
C1982 H1976 0.930 . S
C1982 C1983 1.355 . S
C1982 C1984 1.415 . S
C1983 C1982 1.355 . S
C1983 C1985 1.419 . S
C1984 C1982 1.415 . S
C1984 C1989 1.425 . S
C1984 C1991 1.409 . S
C1985 H1977 0.930 . S
C1985 C1983 1.419 . S
C1985 C1986 1.362 . S
C1986 H1978 0.930 . S
C1986 C1985 1.362 . S
C1986 C1989 1.409 . S
C1987 H1979 0.930 1_455 S
C1987 C1988 1.355 . S
C1987 C1989 1.415 . S
C1988 C1987 1.355 . S
C1988 C1990 1.419 . S
C1989 C1984 1.425 . S
C1989 C1986 1.409 . S
C1989 C1987 1.415 . S
C1990 H1980 0.930 . S
C1990 C1988 1.419 . S
C1990 C1991 1.362 . S
C1991 H1981 0.930 . S
C1991 C1984 1.409 . S
C1991 C1990 1.362 . S
H1992 C1998 0.930 . S
H1993 C2001 0.930 . S
H1994 C2002 0.930 . S
H1995 C2003 0.930 . S
H1996 C2006 0.930 . S
H1997 C2007 0.930 1_455 S
C1998 H1992 0.930 . S
C1998 C1999 1.355 . S
C1998 C2000 1.415 . S
C1999 C1998 1.355 . S
C1999 C2001 1.419 . S
C2000 C1998 1.415 . S
C2000 C2005 1.425 . S
C2000 C2007 1.409 . S
C2001 H1993 0.930 . S
C2001 C1999 1.419 . S
C2001 C2002 1.362 . S
C2002 H1994 0.930 . S
C2002 C2001 1.362 . S
C2002 C2005 1.409 . S
C2003 H1995 0.930 . S
C2003 C2004 1.355 1_655 S
C2003 C2005 1.415 . S
C2004 C2003 1.355 1_455 S
C2004 C2006 1.419 . S
C2005 C2000 1.425 . S
C2005 C2002 1.409 . S
C2005 C2003 1.415 . S
C2006 H1996 0.930 . S
C2006 C2004 1.419 . S
C2006 C2007 1.362 1_455 S
C2007 H1997 0.930 1_655 S
C2007 C2000 1.409 . S
C2007 C2006 1.362 1_655 S
H2008 C2014 0.930 . S
H2009 C2017 0.930 . S
H2010 C2018 0.930 . S
H2011 C2019 0.930 . S
H2012 C2022 0.930 . S
H2013 C2023 0.930 . S
C2014 H2008 0.930 . S
C2014 C2015 1.355 . S
C2014 C2016 1.415 . S
C2015 C2014 1.355 . S
C2015 C2017 1.419 . S
C2016 C2014 1.415 . S
C2016 C2021 1.425 . S
C2016 C2023 1.409 . S
C2017 H2009 0.930 . S
C2017 C2015 1.419 . S
C2017 C2018 1.362 . S
C2018 H2010 0.930 . S
C2018 C2017 1.362 . S
C2018 C2021 1.409 . S
C2019 H2011 0.930 . S
C2019 C2020 1.355 . S
C2019 C2021 1.415 . S
C2020 C2019 1.355 . S
C2020 C2022 1.419 . S
C2021 C2016 1.425 . S
C2021 C2018 1.409 . S
C2021 C2019 1.415 . S
C2022 H2012 0.930 . S
C2022 C2020 1.419 . S
C2022 C2023 1.362 . S
C2023 H2013 0.930 . S
C2023 C2016 1.409 . S
C2023 C2022 1.362 . S
H2024 C2030 0.930 . S
H2025 C2033 0.930 . S
H2026 C2034 0.930 . S
H2027 C2035 0.930 . S
H2028 C2038 0.930 . S
H2029 C2039 0.930 . S
C2030 H2024 0.930 . S
C2030 C2031 1.355 . S
C2030 C2032 1.415 1_565 S
C2031 C2030 1.355 . S
C2031 C2033 1.419 1_565 S
C2032 C2030 1.415 1_545 S
C2032 C2037 1.425 . S
C2032 C2039 1.409 . S
C2033 H2025 0.930 . S
C2033 C2031 1.419 1_545 S
C2033 C2034 1.362 . S
C2034 H2026 0.930 . S
C2034 C2033 1.362 . S
C2034 C2037 1.409 . S
C2035 H2027 0.930 . S
C2035 C2036 1.355 . S
C2035 C2037 1.415 . S
C2036 C2035 1.355 . S
C2036 C2038 1.419 . S
C2037 C2032 1.425 . S
C2037 C2034 1.409 . S
C2037 C2035 1.415 . S
C2038 H2028 0.930 . S
C2038 C2036 1.419 . S
C2038 C2039 1.362 . S
C2039 H2029 0.930 . S
C2039 C2032 1.409 . S
C2039 C2038 1.362 . S
H2040 C2046 0.930 . S
H2041 C2049 0.930 . S
H2042 C2050 0.930 . S
H2043 C2051 0.930 . S
H2044 C2054 0.930 . S
H2045 C2055 0.930 . S
C2046 H2040 0.930 . S
C2046 C2047 1.355 . S
C2046 C2048 1.415 . S
C2047 C2046 1.355 . S
C2047 C2049 1.419 1_655 S
C2048 C2046 1.415 . S
C2048 C2053 1.425 1_655 S
C2048 C2055 1.409 . S
C2049 H2041 0.930 . S
C2049 C2047 1.419 1_455 S
C2049 C2050 1.362 . S
C2050 H2042 0.930 . S
C2050 C2049 1.362 . S
C2050 C2053 1.409 . S
C2051 H2043 0.930 . S
C2051 C2052 1.355 . S
C2051 C2053 1.415 . S
C2052 C2051 1.355 . S
C2052 C2054 1.419 1_455 S
C2053 C2048 1.425 1_455 S
C2053 C2050 1.409 . S
C2053 C2051 1.415 . S
C2054 H2044 0.930 . S
C2054 C2052 1.419 1_655 S
C2054 C2055 1.362 . S
C2055 H2045 0.930 . S
C2055 C2048 1.409 . S
C2055 C2054 1.362 . S
H2056 C2062 0.930 . S
H2057 C2065 0.930 . S
H2058 C2066 0.930 . S
H2059 C2067 0.930 . S
H2060 C2070 0.930 . S
H2061 C2071 0.930 . S
C2062 H2056 0.930 . S
C2062 C2063 1.355 . S
C2062 C2064 1.415 . S
C2063 C2062 1.355 . S
C2063 C2065 1.419 . S
C2064 C2062 1.415 . S
C2064 C2069 1.425 . S
C2064 C2071 1.409 . S
C2065 H2057 0.930 . S
C2065 C2063 1.419 . S
C2065 C2066 1.362 . S
C2066 H2058 0.930 . S
C2066 C2065 1.362 . S
C2066 C2069 1.409 . S
C2067 H2059 0.930 . S
C2067 C2068 1.355 . S
C2067 C2069 1.415 . S
C2068 C2067 1.355 . S
C2068 C2070 1.419 . S
C2069 C2064 1.425 . S
C2069 C2066 1.409 . S
C2069 C2067 1.415 . S
C2070 H2060 0.930 . S
C2070 C2068 1.419 . S
C2070 C2071 1.362 . S
C2071 H2061 0.930 . S
C2071 C2064 1.409 . S
C2071 C2070 1.362 . S
H2072 C2078 0.930 . S
H2073 C2081 0.930 . S
H2074 C2082 0.923 . S
H2075 C2083 0.930 . S
H2076 C2086 0.930 . S
H2077 C2087 0.930 . S
C2078 H2072 0.930 . S
C2078 C2079 1.355 . S
C2078 C2080 1.415 1_545 S
C2079 C2078 1.355 . S
C2079 C2081 1.419 . S
C2080 C2078 1.415 1_565 S
C2080 C2085 1.425 . S
C2080 C2087 1.409 . S
C2081 H2073 0.930 . S
C2081 C2079 1.419 . S
C2081 C2082 1.385 . S
C2082 H2074 0.923 . S
C2082 C2081 1.385 . S
C2082 C2085 1.401 1_545 S
C2083 H2075 0.930 . S
C2083 C2084 1.355 . S
C2083 C2085 1.415 . S
C2084 C2083 1.355 . S
C2084 C2086 1.419 . S
C2085 C2080 1.425 . S
C2085 C2082 1.401 1_565 S
C2085 C2083 1.415 . S
C2086 H2076 0.930 . S
C2086 C2084 1.419 . S
C2086 C2087 1.362 . S
C2087 H2077 0.930 . S
C2087 C2080 1.409 . S
C2087 C2086 1.362 . S
H2088 C2094 0.930 . S
H2089 C2097 0.930 . S
H2090 C2098 0.930 . S
H2091 C2099 0.930 . S
H2092 C2102 0.930 . S
H2093 C2103 0.930 . S
C2094 H2088 0.930 . S
C2094 C2095 1.355 . S
C2094 C2096 1.415 . S
C2095 C2094 1.355 . S
C2095 C2097 1.419 . S
C2096 C2094 1.415 . S
C2096 C2101 1.425 1_565 S
C2096 C2103 1.409 . S
C2097 H2089 0.930 . S
C2097 C2095 1.419 . S
C2097 C2098 1.362 1_565 S
C2098 H2090 0.930 . S
C2098 C2097 1.362 1_545 S
C2098 C2101 1.409 . S
C2099 H2091 0.930 . S
C2099 C2100 1.355 . S
C2099 C2101 1.415 . S
C2100 C2099 1.355 . S
C2100 C2102 1.419 1_545 S
C2101 C2096 1.425 1_545 S
C2101 C2098 1.409 . S
C2101 C2099 1.415 . S
C2102 H2092 0.930 . S
C2102 C2100 1.419 1_565 S
C2102 C2103 1.362 . S
C2103 H2093 0.930 . S
C2103 C2096 1.409 . S
C2103 C2102 1.362 . S
H2104 C2110 0.930 . S
H2105 C2113 0.930 . S
H2106 C2114 0.930 . S
H2107 C2115 0.930 . S
H2108 C2118 0.932 . S
H2109 C2119 0.930 . S
C2110 H2104 0.930 . S
C2110 C2111 1.355 . S
C2110 C2112 1.415 . S
C2111 C2110 1.355 . S
C2111 C2113 1.419 1_655 S
C2112 C2110 1.415 . S
C2112 C2117 1.425 1_655 S
C2112 C2119 1.409 . S
C2113 H2105 0.930 . S
C2113 C2111 1.419 1_455 S
C2113 C2114 1.362 . S
C2114 H2106 0.930 . S
C2114 C2113 1.362 . S
C2114 C2117 1.409 . S
C2115 H2107 0.930 . S
C2115 C2116 1.355 . S
C2115 C2117 1.415 . S
C2116 C2115 1.355 . S
C2116 C2118 1.419 . S
C2117 C2112 1.425 1_455 S
C2117 C2114 1.409 . S
C2117 C2115 1.415 . S
C2118 H2108 0.932 . S
C2118 C2116 1.419 . S
C2118 C2119 1.362 1_455 S
C2119 H2109 0.930 . S
C2119 C2112 1.409 . S
C2119 C2118 1.362 1_655 S
H2120 C2126 0.930 . S
H2121 C2129 0.930 . S
H2122 C2130 0.930 . S
H2123 C2131 0.930 . S
H2124 C2134 0.930 . S
H2125 C2135 0.930 . S
C2126 H2120 0.930 . S
C2126 C2127 1.355 . S
C2126 C2128 1.415 . S
C2127 C2126 1.355 . S
C2127 C2129 1.419 . S
C2128 C2126 1.415 . S
C2128 C2133 1.425 . S
C2128 C2135 1.409 . S
C2129 H2121 0.930 . S
C2129 C2127 1.419 . S
C2129 C2130 1.362 . S
C2130 H2122 0.930 . S
C2130 C2129 1.362 . S
C2130 C2133 1.409 . S
C2131 H2123 0.930 . S
C2131 C2132 1.355 . S
C2131 C2133 1.415 . S
C2132 C2131 1.355 . S
C2132 C2134 1.419 . S
C2133 C2128 1.425 . S
C2133 C2130 1.409 . S
C2133 C2131 1.415 . S
C2134 H2124 0.930 . S
C2134 C2132 1.419 . S
C2134 C2135 1.362 . S
C2135 H2125 0.930 . S
C2135 C2128 1.409 . S
C2135 C2134 1.362 . S
H2136 C2142 0.917 1_564 S
H2137 C2145 0.930 . S
H2138 C2146 0.930 . S
H2139 C2147 0.930 . S
H2140 C2150 0.930 . S
H2141 C2151 0.930 . S
C2142 H2136 0.917 1_546 S
C2142 C2143 1.417 1_545 S
C2142 C2144 1.377 1_556 S
C2143 C2142 1.417 1_565 S
C2143 C2145 1.419 1_565 S
C2144 C2142 1.377 1_554 S
C2144 C2149 1.425 . S
C2144 C2151 1.409 . S
C2145 H2137 0.930 . S
C2145 C2143 1.419 1_545 S
C2145 C2146 1.362 . S
C2146 H2138 0.930 . S
C2146 C2145 1.362 . S
C2146 C2149 1.409 1_556 S
C2147 H2139 0.930 . S
C2147 C2148 1.355 . S
C2147 C2149 1.415 . S
C2148 C2147 1.355 . S
C2148 C2150 1.419 . S
C2149 C2144 1.425 . S
C2149 C2146 1.409 1_554 S
C2149 C2147 1.415 . S
C2150 H2140 0.930 . S
C2150 C2148 1.419 . S
C2150 C2151 1.362 . S
C2151 H2141 0.930 . S
C2151 C2144 1.409 . S
C2151 C2150 1.362 . S
H2152 C2158 0.930 . S
H2153 C2161 0.930 . S
H2154 C2162 0.930 . S
H2155 C2163 0.930 . S
H2156 C2166 0.930 . S
H2157 C2167 0.930 1_455 S
C2158 H2152 0.930 . S
C2158 C2159 1.355 . S
C2158 C2160 1.415 . S
C2159 C2158 1.355 . S
C2159 C2161 1.419 . S
C2160 C2158 1.415 . S
C2160 C2165 1.395 1_554 S
C2160 C2167 1.409 . S
C2161 H2153 0.930 . S
C2161 C2159 1.419 . S
C2161 C2162 1.362 1_554 S
C2162 H2154 0.930 . S
C2162 C2161 1.362 1_556 S
C2162 C2165 1.412 . S
C2163 H2155 0.930 . S
C2163 C2164 1.355 1_655 S
C2163 C2165 1.441 . S
C2164 C2163 1.355 1_455 S
C2164 C2166 1.419 1_556 S
C2165 C2160 1.395 1_556 S
C2165 C2162 1.412 . S
C2165 C2163 1.441 . S
C2166 H2156 0.930 . S
C2166 C2164 1.419 1_554 S
C2166 C2167 1.362 1_455 S
C2167 H2157 0.930 1_655 S
C2167 C2160 1.409 . S
C2167 C2166 1.362 1_655 S
H2168 C2174 0.930 . S
H2169 C2177 0.930 . S
H2170 C2178 0.930 . S
H2171 C2179 0.930 . S
H2172 C2182 0.930 . S
H2173 C2183 0.930 . S
C2174 H2168 0.930 . S
C2174 C2175 1.355 . S
C2174 C2176 1.415 . S
C2175 C2174 1.355 . S
C2175 C2177 1.419 . S
C2176 C2174 1.415 . S
C2176 C2181 1.376 1_554 S
C2176 C2183 1.409 . S
C2177 H2169 0.930 . S
C2177 C2175 1.419 . S
C2177 C2178 1.362 1_554 S
C2178 H2170 0.930 . S
C2178 C2177 1.362 1_556 S
C2178 C2181 1.416 . S
C2179 H2171 0.930 . S
C2179 C2180 1.355 . S
C2179 C2181 1.457 . S
C2180 C2179 1.355 . S
C2180 C2182 1.419 1_556 S
C2181 C2176 1.376 1_556 S
C2181 C2178 1.416 . S
C2181 C2179 1.457 . S
C2182 H2172 0.930 . S
C2182 C2180 1.419 1_554 S
C2182 C2183 1.362 . S
C2183 H2173 0.930 . S
C2183 C2176 1.409 . S
C2183 C2182 1.362 . S
H2184 C2190 0.930 . S
H2185 C2193 0.930 . S
H2186 C2194 0.930 . S
H2187 C2195 0.930 . S
H2188 C2198 0.930 . S
H2189 C2199 0.930 . S
C2190 H2184 0.930 . S
C2190 C2191 1.355 . S
C2190 C2192 1.415 . S
C2191 C2190 1.355 . S
C2191 C2193 1.419 1_545 S
C2192 C2190 1.415 . S
C2192 C2197 1.425 1_545 S
C2192 C2199 1.409 . S
C2193 H2185 0.930 . S
C2193 C2191 1.419 1_565 S
C2193 C2194 1.362 . S
C2194 H2186 0.930 . S
C2194 C2193 1.362 . S
C2194 C2197 1.409 . S
C2195 H2187 0.930 . S
C2195 C2196 1.355 . S
C2195 C2197 1.415 . S
C2196 C2195 1.355 . S
C2196 C2198 1.419 1_565 S
C2197 C2192 1.425 1_565 S
C2197 C2194 1.409 . S
C2197 C2195 1.415 . S
C2198 H2188 0.930 . S
C2198 C2196 1.419 1_545 S
C2198 C2199 1.362 . S
C2199 H2189 0.930 . S
C2199 C2192 1.409 . S
C2199 C2198 1.362 . S
H2200 C2206 0.930 1_455 S
H2201 C2209 0.930 . S
H2202 C2210 0.930 . S
H2203 C2211 0.930 . S
H2204 C2214 0.930 . S
H2205 C2215 0.930 . S
C2206 H2200 0.930 1_655 S
C2206 C2207 1.355 . S
C2206 C2208 1.401 1_655 S
C2207 C2206 1.355 . S
C2207 C2209 1.419 . S
C2208 C2206 1.401 1_455 S
C2208 C2213 1.414 1_455 S
C2208 C2215 1.434 . S
C2209 H2201 0.930 . S
C2209 C2207 1.419 . S
C2209 C2210 1.362 . S
C2210 H2202 0.930 . S
C2210 C2209 1.362 . S
C2210 C2213 1.409 . S
C2211 H2203 0.930 . S
C2211 C2212 1.355 1_655 S
C2211 C2213 1.415 . S
C2212 C2211 1.355 1_455 S
C2212 C2214 1.419 . S
C2213 C2208 1.414 1_655 S
C2213 C2210 1.409 . S
C2213 C2211 1.415 . S
C2214 H2204 0.930 . S
C2214 C2212 1.419 . S
C2214 C2215 1.362 . S
C2215 H2205 0.930 . S
C2215 C2208 1.434 . S
C2215 C2214 1.362 . S
H2216 C2222 0.930 . S
H2217 C2225 0.930 . S
H2218 C2226 0.930 . S
H2219 C2227 0.930 . S
H2220 C2230 0.930 . S
H2221 C2231 0.930 . S
C2222 H2216 0.930 . S
C2222 C2223 1.355 . S
C2222 C2224 1.415 . S
C2223 C2222 1.355 . S
C2223 C2225 1.419 . S
C2224 C2222 1.415 . S
C2224 C2229 1.425 . S
C2224 C2231 1.409 . S
C2225 H2217 0.930 . S
C2225 C2223 1.419 . S
C2225 C2226 1.362 . S
C2226 H2218 0.930 . S
C2226 C2225 1.362 . S
C2226 C2229 1.409 . S
C2227 H2219 0.930 . S
C2227 C2228 1.355 . S
C2227 C2229 1.415 . S
C2228 C2227 1.355 . S
C2228 C2230 1.419 . S
C2229 C2224 1.425 . S
C2229 C2226 1.409 . S
C2229 C2227 1.415 . S
C2230 H2220 0.930 . S
C2230 C2228 1.419 . S
C2230 C2231 1.362 . S
C2231 H2221 0.930 . S
C2231 C2224 1.409 . S
C2231 C2230 1.362 . S
H2232 C2238 0.930 . S
H2233 C2241 0.930 . S
H2234 C2242 0.930 . S
H2235 C2243 0.923 1_545 S
H2236 C2246 0.930 1_545 S
H2237 C2247 0.930 . S
C2238 H2232 0.930 . S
C2238 C2239 1.355 . S
C2238 C2240 1.415 . S
C2239 C2238 1.355 . S
C2239 C2241 1.419 . S
C2240 C2238 1.415 . S
C2240 C2245 1.425 . S
C2240 C2247 1.409 1_556 S
C2241 H2233 0.930 . S
C2241 C2239 1.419 . S
C2241 C2242 1.362 . S
C2242 H2234 0.930 . S
C2242 C2241 1.362 . S
C2242 C2245 1.409 . S
C2243 H2235 0.923 1_565 S
C2243 C2244 1.421 1_565 S
C2243 C2245 1.366 1_554 S
C2244 C2243 1.421 1_545 S
C2244 C2246 1.419 1_545 S
C2245 C2240 1.425 . S
C2245 C2242 1.409 . S
C2245 C2243 1.366 1_556 S
C2246 H2236 0.930 1_565 S
C2246 C2244 1.419 1_565 S
C2246 C2247 1.362 . S
C2247 H2237 0.930 . S
C2247 C2240 1.409 1_554 S
C2247 C2246 1.362 . S
H2248 C2254 0.930 . S
H2249 C2257 0.930 . S
H2250 C2258 0.930 . S
H2251 C2259 0.930 . S
H2252 C2262 0.930 . S
H2253 C2263 0.930 . S
C2254 H2248 0.930 . S
C2254 C2255 1.355 1_556 S
C2254 C2256 1.415 1_655 S
C2255 C2254 1.355 1_554 S
C2255 C2257 1.419 1_655 S
C2256 C2254 1.415 1_455 S
C2256 C2261 1.425 . S
C2256 C2263 1.409 . S
C2257 H2249 0.930 . S
C2257 C2255 1.419 1_455 S
C2257 C2258 1.362 . S
C2258 H2250 0.930 . S
C2258 C2257 1.362 . S
C2258 C2261 1.409 1_554 S
C2259 H2251 0.930 . S
C2259 C2260 1.355 . S
C2259 C2261 1.415 . S
C2260 C2259 1.355 . S
C2260 C2262 1.419 . S
C2261 C2256 1.425 . S
C2261 C2258 1.409 1_556 S
C2261 C2259 1.415 . S
C2262 H2252 0.930 . S
C2262 C2260 1.419 . S
C2262 C2263 1.362 . S
C2263 H2253 0.930 . S
C2263 C2256 1.409 . S
C2263 C2262 1.362 . S
H2264 C2270 0.930 . S
H2265 C2273 0.930 . S
H2266 C2274 0.930 . S
H2267 C2275 0.930 . S
H2268 C2278 0.930 . S
H2269 C2279 0.930 . S
C2270 H2264 0.930 . S
C2270 C2271 1.355 . S
C2270 C2272 1.415 . S
C2271 C2270 1.355 . S
C2271 C2273 1.419 . S
C2272 C2270 1.415 . S
C2272 C2277 1.425 . S
C2272 C2279 1.409 1_556 S
C2273 H2265 0.930 . S
C2273 C2271 1.419 . S
C2273 C2274 1.362 . S
C2274 H2266 0.930 . S
C2274 C2273 1.362 . S
C2274 C2277 1.409 . S
C2275 H2267 0.930 . S
C2275 C2276 1.355 1_556 S
C2275 C2277 1.415 . S
C2276 C2275 1.355 1_554 S
C2276 C2278 1.419 . S
C2277 C2272 1.425 . S
C2277 C2274 1.409 . S
C2277 C2275 1.415 . S
C2278 H2268 0.930 . S
C2278 C2276 1.419 . S
C2278 C2279 1.362 . S
C2279 H2269 0.930 . S
C2279 C2272 1.409 1_554 S
C2279 C2278 1.362 . S
H2280 C2286 0.930 . S
H2281 C2289 0.930 . S
H2282 C2290 0.930 . S
H2283 C2291 0.930 . S
H2284 C2294 0.930 . S
H2285 C2295 0.930 . S
C2286 H2280 0.930 . S
C2286 C2287 1.355 1_455 S
C2286 C2288 1.415 . S
C2287 C2286 1.355 1_655 S
C2287 C2289 1.419 . S
C2288 C2286 1.415 . S
C2288 C2293 1.425 . S
C2288 C2295 1.409 . S
C2289 H2281 0.930 . S
C2289 C2287 1.419 . S
C2289 C2290 1.362 1_655 S
C2290 H2282 0.930 . S
C2290 C2289 1.362 1_455 S
C2290 C2293 1.409 . S
C2291 H2283 0.930 . S
C2291 C2292 1.355 . S
C2291 C2293 1.415 . S
C2292 C2291 1.355 . S
C2292 C2294 1.419 . S
C2293 C2288 1.425 . S
C2293 C2290 1.409 . S
C2293 C2291 1.415 . S
C2294 H2284 0.930 . S
C2294 C2292 1.419 . S
C2294 C2295 1.362 . S
C2295 H2285 0.930 . S
C2295 C2288 1.409 . S
C2295 C2294 1.362 . S
H2296 C2302 0.930 . S
H2297 C2305 0.930 . S
H2298 C2306 0.930 . S
H2299 C2307 0.930 . S
H2300 C2310 0.930 . S
H2301 C2311 0.930 . S
C2302 H2296 0.930 . S
C2302 C2303 1.355 . S
C2302 C2304 1.415 . S
C2303 C2302 1.355 . S
C2303 C2305 1.419 . S
C2304 C2302 1.415 . S
C2304 C2309 1.425 . S
C2304 C2311 1.409 . S
C2305 H2297 0.930 . S
C2305 C2303 1.419 . S
C2305 C2306 1.362 . S
C2306 H2298 0.930 . S
C2306 C2305 1.362 . S
C2306 C2309 1.409 . S
C2307 H2299 0.930 . S
C2307 C2308 1.355 . S
C2307 C2309 1.415 . S
C2308 C2307 1.355 . S
C2308 C2310 1.419 . S
C2309 C2304 1.425 . S
C2309 C2306 1.409 . S
C2309 C2307 1.415 . S
C2310 H2300 0.930 . S
C2310 C2308 1.419 . S
C2310 C2311 1.362 . S
C2311 H2301 0.930 . S
C2311 C2304 1.409 . S
C2311 C2310 1.362 . S
H2312 C2318 0.930 . S
H2313 C2321 0.930 . S
H2314 C2322 0.930 . S
H2315 C2323 0.930 1_545 S
H2316 C2326 0.909 1_545 S
H2317 C2327 0.930 . S
C2318 H2312 0.930 . S
C2318 C2319 1.355 . S
C2318 C2320 1.415 . S
C2319 C2318 1.355 . S
C2319 C2321 1.419 . S
C2320 C2318 1.415 . S
C2320 C2325 1.425 . S
C2320 C2327 1.409 . S
C2321 H2313 0.930 . S
C2321 C2319 1.419 . S
C2321 C2322 1.362 . S
C2322 H2314 0.930 . S
C2322 C2321 1.362 . S
C2322 C2325 1.409 . S
C2323 H2315 0.930 1_565 S
C2323 C2324 1.355 1_565 S
C2323 C2325 1.415 . S
C2324 C2323 1.355 1_545 S
C2324 C2326 1.419 1_545 S
C2325 C2320 1.425 . S
C2325 C2322 1.409 . S
C2325 C2323 1.415 . S
C2326 H2316 0.909 1_565 S
C2326 C2324 1.419 1_565 S
C2326 C2327 1.362 . S
C2327 H2317 0.930 . S
C2327 C2320 1.409 . S
C2327 C2326 1.362 . S
H2328 C2334 0.930 . S
H2329 C2337 0.930 . S
H2330 C2338 0.930 . S
H2331 C2339 0.930 . S
H2332 C2342 0.930 . S
H2333 C2343 0.930 . S
C2334 H2328 0.930 . S
C2334 C2335 1.355 . S
C2334 C2336 1.415 . S
C2335 C2334 1.355 . S
C2335 C2337 1.419 . S
C2336 C2334 1.415 . S
C2336 C2341 1.425 . S
C2336 C2343 1.409 1_655 S
C2337 H2329 0.930 . S
C2337 C2335 1.419 . S
C2337 C2338 1.362 . S
C2338 H2330 0.930 . S
C2338 C2337 1.362 . S
C2338 C2341 1.409 . S
C2339 H2331 0.930 . S
C2339 C2340 1.355 1_655 S
C2339 C2341 1.415 . S
C2340 C2339 1.355 1_455 S
C2340 C2342 1.419 . S
C2341 C2336 1.425 . S
C2341 C2338 1.409 . S
C2341 C2339 1.415 . S
C2342 H2332 0.930 . S
C2342 C2340 1.419 . S
C2342 C2343 1.362 . S
C2343 H2333 0.930 . S
C2343 C2336 1.409 1_455 S
C2343 C2342 1.362 . S
H2344 C2350 0.930 . S
H2345 C2353 0.930 . S
H2346 C2354 0.930 . S
H2347 C2355 0.930 . S
H2348 C2358 0.930 . S
H2349 C2359 0.930 . S
C2350 H2344 0.930 . S
C2350 C2351 1.355 . S
C2350 C2352 1.415 . S
C2351 C2350 1.355 . S
C2351 C2353 1.419 . S
C2352 C2350 1.415 . S
C2352 C2357 1.425 . S
C2352 C2359 1.409 . S
C2353 H2345 0.930 . S
C2353 C2351 1.419 . S
C2353 C2354 1.362 . S
C2354 H2346 0.930 . S
C2354 C2353 1.362 . S
C2354 C2357 1.409 . S
C2355 H2347 0.930 . S
C2355 C2356 1.355 . S
C2355 C2357 1.415 . S
C2356 C2355 1.355 . S
C2356 C2358 1.419 . S
C2357 C2352 1.425 . S
C2357 C2354 1.409 . S
C2357 C2355 1.415 . S
C2358 H2348 0.930 . S
C2358 C2356 1.419 . S
C2358 C2359 1.362 . S
C2359 H2349 0.930 . S
C2359 C2352 1.409 . S
C2359 C2358 1.362 . S
H2360 C2366 0.930 . S
H2361 C2369 0.930 . S
H2362 C2370 0.930 . S
H2363 C2371 0.930 . S
H2364 C2374 0.930 . S
H2365 C2375 0.930 . S
C2366 H2360 0.930 . S
C2366 C2367 1.355 1_565 S
C2366 C2368 1.415 . S
C2367 C2366 1.355 1_545 S
C2367 C2369 1.419 . S
C2368 C2366 1.415 . S
C2368 C2373 1.425 1_565 S
C2368 C2375 1.409 . S
C2369 H2361 0.930 . S
C2369 C2367 1.419 . S
C2369 C2370 1.362 . S
C2370 H2362 0.930 . S
C2370 C2369 1.362 . S
C2370 C2373 1.409 . S
C2371 H2363 0.930 . S
C2371 C2372 1.355 1_545 S
C2371 C2373 1.415 . S
C2372 C2371 1.355 1_565 S
C2372 C2374 1.419 . S
C2373 C2368 1.425 1_545 S
C2373 C2370 1.409 . S
C2373 C2371 1.415 . S
C2374 H2364 0.930 . S
C2374 C2372 1.419 . S
C2374 C2375 1.362 . S
C2375 H2365 0.930 . S
C2375 C2368 1.409 . S
C2375 C2374 1.362 . S
H2376 C2382 0.930 . S
H2377 C2385 0.930 . S
H2378 C2386 0.930 . S
H2379 C2387 0.930 . S
H2380 C2390 0.930 . S
H2381 C2391 0.930 . S
C2382 H2376 0.930 . S
C2382 C2383 1.355 . S
C2382 C2384 1.415 1_655 S
C2383 C2382 1.355 . S
C2383 C2385 1.419 . S
C2384 C2382 1.415 1_455 S
C2384 C2389 1.425 1_455 S
C2384 C2391 1.409 . S
C2385 H2377 0.930 . S
C2385 C2383 1.419 . S
C2385 C2386 1.362 . S
C2386 H2378 0.930 . S
C2386 C2385 1.362 . S
C2386 C2389 1.409 . S
C2387 H2379 0.930 . S
C2387 C2388 1.355 . S
C2387 C2389 1.415 1_455 S
C2388 C2387 1.355 . S
C2388 C2390 1.419 . S
C2389 C2384 1.425 1_655 S
C2389 C2386 1.409 . S
C2389 C2387 1.415 1_655 S
C2390 H2380 0.930 . S
C2390 C2388 1.419 . S
C2390 C2391 1.362 . S
C2391 H2381 0.930 . S
C2391 C2384 1.409 . S
C2391 C2390 1.362 . S
H2392 C2398 0.930 . S
H2393 C2401 0.930 . S
H2394 C2402 0.930 . S
H2395 C2403 0.930 . S
H2396 C2406 0.930 . S
H2397 C2407 0.930 . S
C2398 H2392 0.930 . S
C2398 C2399 1.355 . S
C2398 C2400 1.415 . S
C2399 C2398 1.355 . S
C2399 C2401 1.419 . S
C2400 C2398 1.415 . S
C2400 C2405 1.425 . S
C2400 C2407 1.409 . S
C2401 H2393 0.930 . S
C2401 C2399 1.419 . S
C2401 C2402 1.362 . S
C2402 H2394 0.930 . S
C2402 C2401 1.362 . S
C2402 C2405 1.409 . S
C2403 H2395 0.930 . S
C2403 C2404 1.355 . S
C2403 C2405 1.415 . S
C2404 C2403 1.355 . S
C2404 C2406 1.419 . S
C2405 C2400 1.425 . S
C2405 C2402 1.409 . S
C2405 C2403 1.415 . S
C2406 H2396 0.930 . S
C2406 C2404 1.419 . S
C2406 C2407 1.362 . S
C2407 H2397 0.930 . S
C2407 C2400 1.409 . S
C2407 C2406 1.362 . S
H2408 C2414 0.930 . S
H2409 C2417 0.930 . S
H2410 C2418 0.930 . S
H2411 C2419 0.930 . S
H2412 C2422 0.930 . S
H2413 C2423 0.930 . S
C2414 H2408 0.930 . S
C2414 C2415 1.355 . S
C2414 C2416 1.415 . S
C2415 C2414 1.355 . S
C2415 C2417 1.419 . S
C2416 C2414 1.415 . S
C2416 C2421 1.425 1_565 S
C2416 C2423 1.409 . S
C2417 H2409 0.930 . S
C2417 C2415 1.419 . S
C2417 C2418 1.362 1_565 S
C2418 H2410 0.930 . S
C2418 C2417 1.362 1_545 S
C2418 C2421 1.409 . S
C2419 H2411 0.930 . S
C2419 C2420 1.355 . S
C2419 C2421 1.415 . S
C2420 C2419 1.355 . S
C2420 C2422 1.419 . S
C2421 C2416 1.425 1_545 S
C2421 C2418 1.409 . S
C2421 C2419 1.415 . S
C2422 H2412 0.930 . S
C2422 C2420 1.419 . S
C2422 C2423 1.362 1_545 S
C2423 H2413 0.930 . S
C2423 C2416 1.409 . S
C2423 C2422 1.362 1_565 S
H2424 C2430 0.930 . S
H2425 C2433 0.930 . S
H2426 C2434 0.930 . S
H2427 C2435 0.930 . S
H2428 C2438 0.930 . S
H2429 C2439 0.930 . S
C2430 H2424 0.930 . S
C2430 C2431 1.355 . S
C2430 C2432 1.415 . S
C2431 C2430 1.355 . S
C2431 C2433 1.419 . S
C2432 C2430 1.415 . S
C2432 C2437 1.425 1_655 S
C2432 C2439 1.409 1_655 S
C2433 H2425 0.930 . S
C2433 C2431 1.419 . S
C2433 C2434 1.362 . S
C2434 H2426 0.930 . S
C2434 C2433 1.362 . S
C2434 C2437 1.409 1_655 S
C2435 H2427 0.930 . S
C2435 C2436 1.355 . S
C2435 C2437 1.415 . S
C2436 C2435 1.355 . S
C2436 C2438 1.419 . S
C2437 C2432 1.425 1_455 S
C2437 C2434 1.409 1_455 S
C2437 C2435 1.415 . S
C2438 H2428 0.930 . S
C2438 C2436 1.419 . S
C2438 C2439 1.362 . S
C2439 H2429 0.930 . S
C2439 C2432 1.409 1_455 S
C2439 C2438 1.362 . S
H2440 C2446 0.930 . S
H2441 C2449 0.930 . S
H2442 C2450 0.930 . S
H2443 C2451 0.930 . S
H2444 C2454 0.930 . S
H2445 C2455 0.930 . S
C2446 H2440 0.930 . S
C2446 C2447 1.355 . S
C2446 C2448 1.415 . S
C2447 C2446 1.355 . S
C2447 C2449 1.419 . S
C2448 C2446 1.415 . S
C2448 C2453 1.425 . S
C2448 C2455 1.409 . S
C2449 H2441 0.930 . S
C2449 C2447 1.419 . S
C2449 C2450 1.362 . S
C2450 H2442 0.930 . S
C2450 C2449 1.362 . S
C2450 C2453 1.409 . S
C2451 H2443 0.930 . S
C2451 C2452 1.355 . S
C2451 C2453 1.415 . S
C2452 C2451 1.355 . S
C2452 C2454 1.419 . S
C2453 C2448 1.425 . S
C2453 C2450 1.409 . S
C2453 C2451 1.415 . S
C2454 H2444 0.930 . S
C2454 C2452 1.419 . S
C2454 C2455 1.362 . S
C2455 H2445 0.930 . S
C2455 C2448 1.409 . S
C2455 C2454 1.362 . S
H2456 C2462 0.930 . S
H2457 C2465 0.930 . S
H2458 C2466 0.930 . S
H2459 C2467 0.930 . S
H2460 C2470 0.930 . S
H2461 C2471 0.930 . S
C2462 H2456 0.930 . S
C2462 C2463 1.355 . S
C2462 C2464 1.415 . S
C2463 C2462 1.355 . S
C2463 C2465 1.419 . S
C2464 C2462 1.415 . S
C2464 C2469 1.425 1_545 S
C2464 C2471 1.409 . S
C2465 H2457 0.930 . S
C2465 C2463 1.419 . S
C2465 C2466 1.362 1_545 S
C2466 H2458 0.930 . S
C2466 C2465 1.362 1_565 S
C2466 C2469 1.409 . S
C2467 H2459 0.930 . S
C2467 C2468 1.355 . S
C2467 C2469 1.415 . S
C2468 C2467 1.355 . S
C2468 C2470 1.419 . S
C2469 C2464 1.425 1_565 S
C2469 C2466 1.409 . S
C2469 C2467 1.415 . S
C2470 H2460 0.930 . S
C2470 C2468 1.419 . S
C2470 C2471 1.362 1_565 S
C2471 H2461 0.930 . S
C2471 C2464 1.409 . S
C2471 C2470 1.362 1_545 S
H2472 C2478 0.930 . S
H2473 C2481 0.930 . S
H2474 C2482 0.930 . S
H2475 C2483 0.930 . S
H2476 C2486 0.930 . S
H2477 C2487 0.930 . S
C2478 H2472 0.930 . S
C2478 C2479 1.355 . S
C2478 C2480 1.415 . S
C2479 C2478 1.355 . S
C2479 C2481 1.419 . S
C2480 C2478 1.415 . S
C2480 C2485 1.425 . S
C2480 C2487 1.409 . S
C2481 H2473 0.930 . S
C2481 C2479 1.419 . S
C2481 C2482 1.362 . S
C2482 H2474 0.930 . S
C2482 C2481 1.362 . S
C2482 C2485 1.409 . S
C2483 H2475 0.930 . S
C2483 C2484 1.355 . S
C2483 C2485 1.415 . S
C2484 C2483 1.355 . S
C2484 C2486 1.419 . S
C2485 C2480 1.425 . S
C2485 C2482 1.409 . S
C2485 C2483 1.415 . S
C2486 H2476 0.930 . S
C2486 C2484 1.419 . S
C2486 C2487 1.362 . S
C2487 H2477 0.930 . S
C2487 C2480 1.409 . S
C2487 C2486 1.362 . S
H2488 C2494 0.930 . S
H2489 C2497 0.930 . S
H2490 C2498 0.930 . S
H2491 C2499 0.930 . S
H2492 C2502 0.930 . S
H2493 C2503 0.930 . S
C2494 H2488 0.930 . S
C2494 C2495 1.355 . S
C2494 C2496 1.415 . S
C2495 C2494 1.355 . S
C2495 C2497 1.419 . S
C2496 C2494 1.415 . S
C2496 C2501 1.425 . S
C2496 C2503 1.409 . S
C2497 H2489 0.930 . S
C2497 C2495 1.419 . S
C2497 C2498 1.362 . S
C2498 H2490 0.930 . S
C2498 C2497 1.362 . S
C2498 C2501 1.409 . S
C2499 H2491 0.930 . S
C2499 C2500 1.355 . S
C2499 C2501 1.415 . S
C2500 C2499 1.355 . S
C2500 C2502 1.419 . S
C2501 C2496 1.425 . S
C2501 C2498 1.409 . S
C2501 C2499 1.415 . S
C2502 H2492 0.930 . S
C2502 C2500 1.419 . S
C2502 C2503 1.362 . S
C2503 H2493 0.930 . S
C2503 C2496 1.409 . S
C2503 C2502 1.362 . S
H2504 C2510 0.930 . S
H2505 C2513 0.930 . S
H2506 C2514 0.930 . S
H2507 C2515 0.930 . S
H2508 C2518 0.930 . S
H2509 C2519 0.930 . S
C2510 H2504 0.930 . S
C2510 C2511 1.355 . S
C2510 C2512 1.415 . S
C2511 C2510 1.355 . S
C2511 C2513 1.419 . S
C2512 C2510 1.415 . S
C2512 C2517 1.425 . S
C2512 C2519 1.409 . S
C2513 H2505 0.930 . S
C2513 C2511 1.419 . S
C2513 C2514 1.362 . S
C2514 H2506 0.930 . S
C2514 C2513 1.362 . S
C2514 C2517 1.409 . S
C2515 H2507 0.930 . S
C2515 C2516 1.355 . S
C2515 C2517 1.415 . S
C2516 C2515 1.355 . S
C2516 C2518 1.419 . S
C2517 C2512 1.425 . S
C2517 C2514 1.409 . S
C2517 C2515 1.415 . S
C2518 H2508 0.930 . S
C2518 C2516 1.419 . S
C2518 C2519 1.362 . S
C2519 H2509 0.930 . S
C2519 C2512 1.409 . S
C2519 C2518 1.362 . S
H2520 C2526 0.930 . S
H2521 C2529 0.930 . S
H2522 C2530 0.930 . S
H2523 C2531 0.930 . S
H2524 C2534 0.930 . S
H2525 C2535 0.930 . S
C2526 H2520 0.930 . S
C2526 C2527 1.355 . S
C2526 C2528 1.415 . S
C2527 C2526 1.355 . S
C2527 C2529 1.419 . S
C2528 C2526 1.415 . S
C2528 C2533 1.425 . S
C2528 C2535 1.409 . S
C2529 H2521 0.930 . S
C2529 C2527 1.419 . S
C2529 C2530 1.362 . S
C2530 H2522 0.930 . S
C2530 C2529 1.362 . S
C2530 C2533 1.409 . S
C2531 H2523 0.930 . S
C2531 C2532 1.355 . S
C2531 C2533 1.415 . S
C2532 C2531 1.355 . S
C2532 C2534 1.419 . S
C2533 C2528 1.425 . S
C2533 C2530 1.409 . S
C2533 C2531 1.415 . S
C2534 H2524 0.930 . S
C2534 C2532 1.419 . S
C2534 C2535 1.362 . S
C2535 H2525 0.930 . S
C2535 C2528 1.409 . S
C2535 C2534 1.362 . S
H2536 C2542 0.930 . S
H2537 C2545 0.930 . S
H2538 C2546 0.930 . S
H2539 C2547 0.930 . S
H2540 C2550 0.930 . S
H2541 C2551 0.930 . S
C2542 H2536 0.930 . S
C2542 C2543 1.355 . S
C2542 C2544 1.415 . S
C2543 C2542 1.355 . S
C2543 C2545 1.419 . S
C2544 C2542 1.415 . S
C2544 C2549 1.425 . S
C2544 C2551 1.409 . S
C2545 H2537 0.930 . S
C2545 C2543 1.419 . S
C2545 C2546 1.362 . S
C2546 H2538 0.930 . S
C2546 C2545 1.362 . S
C2546 C2549 1.409 . S
C2547 H2539 0.930 . S
C2547 C2548 1.355 . S
C2547 C2549 1.415 . S
C2548 C2547 1.355 . S
C2548 C2550 1.419 . S
C2549 C2544 1.425 . S
C2549 C2546 1.409 . S
C2549 C2547 1.415 . S
C2550 H2540 0.930 . S
C2550 C2548 1.419 . S
C2550 C2551 1.362 . S
C2551 H2541 0.930 . S
C2551 C2544 1.409 . S
C2551 C2550 1.362 . S
H2552 C2558 0.930 . S
H2553 C2561 0.930 . S
H2554 C2562 0.930 . S
H2555 C2563 0.930 . S
H2556 C2566 0.930 . S
H2557 C2567 0.930 . S
C2558 H2552 0.930 . S
C2558 C2559 1.355 . S
C2558 C2560 1.415 . S
C2559 C2558 1.355 . S
C2559 C2561 1.419 . S
C2560 C2558 1.415 . S
C2560 C2565 1.425 . S
C2560 C2567 1.409 . S
C2561 H2553 0.930 . S
C2561 C2559 1.419 . S
C2561 C2562 1.362 . S
C2562 H2554 0.930 . S
C2562 C2561 1.362 . S
C2562 C2565 1.409 . S
C2563 H2555 0.930 . S
C2563 C2564 1.355 . S
C2563 C2565 1.415 . S
C2564 C2563 1.355 . S
C2564 C2566 1.419 . S
C2565 C2560 1.425 . S
C2565 C2562 1.409 . S
C2565 C2563 1.415 . S
C2566 H2556 0.930 . S
C2566 C2564 1.419 . S
C2566 C2567 1.362 . S
C2567 H2557 0.930 . S
C2567 C2560 1.409 . S
C2567 C2566 1.362 . S
H2568 C2574 0.930 . S
H2569 C2577 0.930 . S
H2570 C2578 0.930 . S
H2571 C2579 0.930 . S
H2572 C2582 0.930 . S
H2573 C2583 0.930 . S
C2574 H2568 0.930 . S
C2574 C2575 1.355 . S
C2574 C2576 1.415 . S
C2575 C2574 1.355 . S
C2575 C2577 1.419 . S
C2576 C2574 1.415 . S
C2576 C2581 1.425 . S
C2576 C2583 1.409 . S
C2577 H2569 0.930 . S
C2577 C2575 1.419 . S
C2577 C2578 1.362 . S
C2578 H2570 0.930 . S
C2578 C2577 1.362 . S
C2578 C2581 1.409 . S
C2579 H2571 0.930 . S
C2579 C2580 1.355 . S
C2579 C2581 1.415 . S
C2580 C2579 1.355 . S
C2580 C2582 1.419 . S
C2581 C2576 1.425 . S
C2581 C2578 1.409 . S
C2581 C2579 1.415 . S
C2582 H2572 0.930 . S
C2582 C2580 1.419 . S
C2582 C2583 1.362 . S
C2583 H2573 0.930 . S
C2583 C2576 1.409 . S
C2583 C2582 1.362 . S
H2584 C2590 0.930 . S
H2585 C2593 0.930 . S
H2586 C2594 0.930 . S
H2587 C2595 0.930 . S
H2588 C2598 0.930 . S
H2589 C2599 0.930 . S
C2590 H2584 0.930 . S
C2590 C2591 1.355 . S
C2590 C2592 1.415 . S
C2591 C2590 1.355 . S
C2591 C2593 1.419 . S
C2592 C2590 1.415 . S
C2592 C2597 1.425 . S
C2592 C2599 1.409 . S
C2593 H2585 0.930 . S
C2593 C2591 1.419 . S
C2593 C2594 1.362 . S
C2594 H2586 0.930 . S
C2594 C2593 1.362 . S
C2594 C2597 1.409 . S
C2595 H2587 0.930 . S
C2595 C2596 1.355 . S
C2595 C2597 1.415 . S
C2596 C2595 1.355 . S
C2596 C2598 1.419 . S
C2597 C2592 1.425 . S
C2597 C2594 1.409 . S
C2597 C2595 1.415 . S
C2598 H2588 0.930 . S
C2598 C2596 1.419 . S
C2598 C2599 1.362 . S
C2599 H2589 0.930 . S
C2599 C2592 1.409 . S
C2599 C2598 1.362 . S
H2600 C2606 0.930 . S
H2601 C2609 0.930 . S
H2602 C2610 0.930 . S
H2603 C2611 0.930 . S
H2604 C2614 0.930 . S
H2605 C2615 0.930 . S
C2606 H2600 0.930 . S
C2606 C2607 1.355 . S
C2606 C2608 1.415 . S
C2607 C2606 1.355 . S
C2607 C2609 1.419 . S
C2608 C2606 1.415 . S
C2608 C2613 1.425 . S
C2608 C2615 1.409 . S
C2609 H2601 0.930 . S
C2609 C2607 1.419 . S
C2609 C2610 1.362 . S
C2610 H2602 0.930 . S
C2610 C2609 1.362 . S
C2610 C2613 1.409 . S
C2611 H2603 0.930 . S
C2611 C2612 1.355 . S
C2611 C2613 1.415 . S
C2612 C2611 1.355 . S
C2612 C2614 1.419 . S
C2613 C2608 1.425 . S
C2613 C2610 1.409 . S
C2613 C2611 1.415 . S
C2614 H2604 0.930 . S
C2614 C2612 1.419 . S
C2614 C2615 1.362 . S
C2615 H2605 0.930 . S
C2615 C2608 1.409 . S
C2615 C2614 1.362 . S
H2616 C2622 0.930 . S
H2617 C2625 0.930 . S
H2618 C2626 0.930 . S
H2619 C2627 0.930 . S
H2620 C2630 0.930 . S
H2621 C2631 0.930 . S
C2622 H2616 0.930 . S
C2622 C2623 1.355 . S
C2622 C2624 1.415 . S
C2623 C2622 1.355 . S
C2623 C2625 1.419 . S
C2624 C2622 1.415 . S
C2624 C2629 1.425 . S
C2624 C2631 1.409 . S
C2625 H2617 0.930 . S
C2625 C2623 1.419 . S
C2625 C2626 1.362 . S
C2626 H2618 0.930 . S
C2626 C2625 1.362 . S
C2626 C2629 1.409 . S
C2627 H2619 0.930 . S
C2627 C2628 1.355 . S
C2627 C2629 1.415 . S
C2628 C2627 1.355 . S
C2628 C2630 1.419 . S
C2629 C2624 1.425 . S
C2629 C2626 1.409 . S
C2629 C2627 1.415 . S
C2630 H2620 0.930 . S
C2630 C2628 1.419 . S
C2630 C2631 1.362 . S
C2631 H2621 0.930 . S
C2631 C2624 1.409 . S
C2631 C2630 1.362 . S
H2632 C2638 0.930 . S
H2633 C2641 0.930 . S
H2634 C2642 0.930 . S
H2635 C2643 0.930 . S
H2636 C2646 0.930 . S
H2637 C2647 0.930 . S
C2638 H2632 0.930 . S
C2638 C2639 1.355 . S
C2638 C2640 1.415 . S
C2639 C2638 1.355 . S
C2639 C2641 1.419 . S
C2640 C2638 1.415 . S
C2640 C2645 1.425 . S
C2640 C2647 1.409 . S
C2641 H2633 0.930 . S
C2641 C2639 1.419 . S
C2641 C2642 1.362 . S
C2642 H2634 0.930 . S
C2642 C2641 1.362 . S
C2642 C2645 1.409 . S
C2643 H2635 0.930 . S
C2643 C2644 1.355 . S
C2643 C2645 1.415 . S
C2644 C2643 1.355 . S
C2644 C2646 1.419 . S
C2645 C2640 1.425 . S
C2645 C2642 1.409 . S
C2645 C2643 1.415 . S
C2646 H2636 0.930 . S
C2646 C2644 1.419 . S
C2646 C2647 1.362 . S
C2647 H2637 0.930 . S
C2647 C2640 1.409 . S
C2647 C2646 1.362 . S
H2648 C2654 0.930 . S
H2649 C2657 0.930 . S
H2650 C2658 0.930 . S
H2651 C2659 0.930 . S
H2652 C2662 0.930 . S
H2653 C2663 0.930 . S
C2654 H2648 0.930 . S
C2654 C2655 1.355 . S
C2654 C2656 1.415 . S
C2655 C2654 1.355 . S
C2655 C2657 1.419 . S
C2656 C2654 1.415 . S
C2656 C2661 1.425 . S
C2656 C2663 1.409 . S
C2657 H2649 0.930 . S
C2657 C2655 1.419 . S
C2657 C2658 1.362 . S
C2658 H2650 0.930 . S
C2658 C2657 1.362 . S
C2658 C2661 1.409 . S
C2659 H2651 0.930 . S
C2659 C2660 1.355 . S
C2659 C2661 1.415 . S
C2660 C2659 1.355 . S
C2660 C2662 1.419 . S
C2661 C2656 1.425 . S
C2661 C2658 1.409 . S
C2661 C2659 1.415 . S
C2662 H2652 0.930 . S
C2662 C2660 1.419 . S
C2662 C2663 1.362 . S
C2663 H2653 0.930 . S
C2663 C2656 1.409 . S
C2663 C2662 1.362 . S
C1231 C5 1.210 . S
C1236 C70 1.305 1_545 S
C1247 C2 1.316 1_655 S
C1252 C39 1.289 1_545 S
C1263 C36 1.277 . S
C1268 C73 1.181 1_655 S
C1279 C138 1.324 1_455 S
C1284 C107 1.271 . S
C1295 C172 1.308 . S
C1300 C141 1.214 1_565 S
C1311 C104 1.324 1_565 S
C1316 C175 1.275 1_455 S
C1327 C274 1.264 1_565 S
C1332 C209 1.258 . S
C1343 C243 1.238 1_565 S
C1348 C206 1.319 1_455 S
C1359 C240 1.323 . S
C1364 C277 1.254 1_455 S
C1375 C342 1.253 1_655 S
C1380 C311 1.183 . S
C1391 C345 1.212 1_545 S
C1396 C376 1.307 . S
C1407 C308 1.290 1_545 S
C1412 C379 1.191 1_655 S
C1423 C413 1.178 . S
C1428 C478 1.270 . S
C1439 C447 1.289 . S
C1444 C410 1.297 . S
C1455 C481 1.289 . S
C1460 C444 1.297 . S
C1471 C546 1.318 . S
C1476 C515 1.234 . S
C1487 C580 1.248 . S
C1492 C549 1.217 . S
C1503 C583 1.188 . S
C1508 C512 1.287 . S
C1519 C617 1.280 . S
C1524 C682 1.283 . S
C1535 C651 1.273 . S
C1540 C614 1.276 . S
C1551 C685 1.199 . S
C1556 C648 1.247 . S
C1567 C750 1.250 . S
C1572 C719 1.227 . S
C1583 C784 1.264 . S
C1588 C753 1.178 . S
C1599 C787 1.231 . S
C1604 C716 1.316 . S
C1615 C886 1.305 . S
C1620 C821 1.291 . S
C1631 C818 1.265 . S
C1636 C855 1.178 . S
C1647 C889 1.284 . S
C1652 C852 1.321 . S
C1663 C954 1.305 . S
C1668 C923 1.291 . S
C1679 C957 1.194 . S
C1684 C988 1.293 . S
C1695 C920 1.322 . S
C1700 C991 1.250 . S
C1711 C1090 1.303 . S
C1716 C1025 1.206 . S
C1727 C1059 1.272 . S
C1732 C1022 1.324 . S
C1743 C1093 1.291 . S
C1748 C1056 1.301 . S
C1759 C1158 1.323 . S
C1764 C1127 1.255 . S
C1775 C1192 1.250 . S
C1780 C1161 1.227 . S
C1791 C1195 1.192 . S
C1796 C1124 1.248 . S
C1807 C689 1.578 . S
C1812 C20 1.594 . S
C1823 C54 1.564 . S
C1828 C621 1.549 . S
C1839 C88 1.592 . S
C1844 C655 1.588 . S
C1855 C1165 1.582 . S
C1860 C122 1.539 . S
C1871 C1199 1.550 . S
C1876 C156 1.556 . S
C1887 C190 1.548 . S
C1892 C1131 1.553 . S
C1903 C224 1.563 . S
C1908 C893 1.600 . S
C1919 C258 1.553 . S
C1924 C825 1.550 . S
C1935 C292 1.547 . S
C1940 C859 1.553 . S
C1951 C553 1.557 . S
C1956 C326 1.542 . S
C1967 C360 1.588 . S
C1972 C587 1.562 . S
C1983 C394 1.579 . S
C1988 C519 1.554 . S
C1999 C428 1.564 . S
C2004 C1097 1.600 . S
C2015 C1029 1.558 . S
C2020 C462 1.541 . S
C2031 C1063 1.572 . S
C2036 C496 1.593 . S
C2047 C530 1.587 . S
C2052 C349 1.595 . S
C2063 C564 1.580 . S
C2068 C383 1.599 . S
C2079 C598 1.561 . S
C2084 C315 1.549 . S
C2095 C77 1.599 . S
C2100 C632 1.581 . S
C2111 C666 1.591 . S
C2116 C9 1.566 . S
C2127 C700 1.592 . S
C2132 C43 1.588 . S
C2143 C961 1.569 . S
C2148 C734 1.592 . S
C2159 C768 1.537 . S
C2164 C995 1.575 . S
C2175 C802 1.537 . S
C2180 C927 1.576 . S
C2191 C281 1.595 . S
C2196 C836 1.587 . S
C2207 C213 1.580 . S
C2212 C870 1.538 . S
C2223 C904 1.569 . S
C2228 C247 1.601 . S
C2239 C938 1.540 . S
C2244 C757 1.559 . S
C2255 C791 1.558 . S
C2260 C972 1.584 . S
C2271 C1006 1.571 . S
C2276 C723 1.551 . S
C2287 C485 1.594 . S
C2292 C1040 1.588 . S
C2303 C1074 1.560 . S
C2308 C417 1.549 . S
C2319 C1108 1.560 . S
C2324 C451 1.549 . S
C2335 C145 1.600 . S
C2340 C1142 1.562 . S
C2351 C1176 1.570 . S
C2356 C179 1.601 . S
C2367 C111 1.565 . S
C2372 C1210 1.537 . S
C2383 C169 1.469 . S
C2388 C33 1.449 . S
C2399 C67 1.460 . S
C2404 C203 1.440 . S
C2415 C101 1.411 . S
C2420 C135 1.398 . S
C2431 C237 1.418 . S
C2436 C373 1.437 . S
C2447 C271 1.494 . S
C2452 C407 1.498 . S
C2463 C305 1.399 . S
C2468 C339 1.393 . S
C2479 C577 1.457 . S
C2484 C441 1.476 . S
C2495 C611 1.393 . S
C2500 C475 1.397 . S
C2511 C543 1.435 . S
C2516 C509 1.455 . S
C2527 C781 1.435 . S
C2532 C645 1.455 . S
C2543 C815 1.475 . S
C2548 C679 1.489 . S
C2559 C747 1.400 . S
C2564 C713 1.414 . S
C2575 C985 1.467 . S
C2580 C849 1.447 . S
C2591 C883 1.491 . S
C2596 C1019 1.477 . S
C2607 C951 1.495 . S
C2612 C917 1.497 . S
C2623 C1189 1.400 . S
C2628 C1053 1.414 . S
C2639 C1223 1.493 . S
C2644 C1087 1.498 . S
C2655 C1121 1.495 . S
C2660 C1155 1.497 . S
