# Generated by pormake.
# Topology pcu-i, (5)-cn, num edge types: 1
# Building blocks:
#     Node 0, Type 0, BuildingBlock: XOMCOT_clean_sbu_1, # of connection points: 5
#     Node 1, Type 0, BuildingBlock: XOMCOT_clean_sbu_1, # of connection points: 5
#     Node 2, Type 0, BuildingBlock: XOMCOT_clean_sbu_1, # of connection points: 5
#     Node 3, Type 0, BuildingBlock: XOMCOT_clean_sbu_1, # of connection points: 5
#     Node 4, Type 0, BuildingBlock: XOMCOT_clean_sbu_1, # of connection points: 5
#     Node 5, Type 0, BuildingBlock: XOMCOT_clean_sbu_1, # of connection points: 5
#     Node 6, Type 0, BuildingBlock: XOMCOT_clean_sbu_1, # of connection points: 5
#     Node 7, Type 0, BuildingBlock: XOMCOT_clean_sbu_1, # of connection points: 5
#     Node 8, Type 0, BuildingBlock: XOMCOT_clean_sbu_1, # of connection points: 5
#     Node 9, Type 0, BuildingBlock: XOMCOT_clean_sbu_1, # of connection points: 5
#     Node 10, Type 0, BuildingBlock: XOMCOT_clean_sbu_1, # of connection points: 5
#     Node 11, Type 0, BuildingBlock: XOMCOT_clean_sbu_1, # of connection points: 5
#     Node 12, Type 0, BuildingBlock: XOMCOT_clean_sbu_1, # of connection points: 5
#     Node 13, Type 0, BuildingBlock: XOMCOT_clean_sbu_1, # of connection points: 5
#     Node 14, Type 0, BuildingBlock: XOMCOT_clean_sbu_1, # of connection points: 5
#     Node 15, Type 0, BuildingBlock: XOMCOT_clean_sbu_1, # of connection points: 5
#     Node 16, Type 0, BuildingBlock: XOMCOT_clean_sbu_1, # of connection points: 5
#     Node 17, Type 0, BuildingBlock: XOMCOT_clean_sbu_1, # of connection points: 5
#     Node 18, Type 0, BuildingBlock: XOMCOT_clean_sbu_1, # of connection points: 5
#     Node 19, Type 0, BuildingBlock: XOMCOT_clean_sbu_1, # of connection points: 5
#     Node 20, Type 0, BuildingBlock: XOMCOT_clean_sbu_1, # of connection points: 5
#     Node 21, Type 0, BuildingBlock: XOMCOT_clean_sbu_1, # of connection points: 5
#     Node 22, Type 0, BuildingBlock: XOMCOT_clean_sbu_1, # of connection points: 5
#     Node 23, Type 0, BuildingBlock: XOMCOT_clean_sbu_1, # of connection points: 5
#     Edge 24, Type (0, 0), BuildingBlock: OJICUG_clean_linker_0, # of connection points: 2
#     Edge 25, Type (0, 0), BuildingBlock: OJICUG_clean_linker_0, # of connection points: 2
#     Edge 26, Type (0, 0), BuildingBlock: OJICUG_clean_linker_0, # of connection points: 2
#     Edge 27, Type (0, 0), BuildingBlock: OJICUG_clean_linker_0, # of connection points: 2
#     Edge 28, Type (0, 0), BuildingBlock: OJICUG_clean_linker_0, # of connection points: 2
#     Edge 29, Type (0, 0), BuildingBlock: OJICUG_clean_linker_0, # of connection points: 2
#     Edge 30, Type (0, 0), BuildingBlock: OJICUG_clean_linker_0, # of connection points: 2
#     Edge 31, Type (0, 0), BuildingBlock: OJICUG_clean_linker_0, # of connection points: 2
#     Edge 32, Type (0, 0), BuildingBlock: OJICUG_clean_linker_0, # of connection points: 2
#     Edge 33, Type (0, 0), BuildingBlock: OJICUG_clean_linker_0, # of connection points: 2
#     Edge 34, Type (0, 0), BuildingBlock: OJICUG_clean_linker_0, # of connection points: 2
#     Edge 35, Type (0, 0), BuildingBlock: OJICUG_clean_linker_0, # of connection points: 2
#     Edge 36, Type (0, 0), BuildingBlock: OJICUG_clean_linker_0, # of connection points: 2
#     Edge 37, Type (0, 0), BuildingBlock: OJICUG_clean_linker_0, # of connection points: 2
#     Edge 38, Type (0, 0), BuildingBlock: OJICUG_clean_linker_0, # of connection points: 2
#     Edge 39, Type (0, 0), BuildingBlock: OJICUG_clean_linker_0, # of connection points: 2
#     Edge 40, Type (0, 0), BuildingBlock: OJICUG_clean_linker_0, # of connection points: 2
#     Edge 41, Type (0, 0), BuildingBlock: OJICUG_clean_linker_0, # of connection points: 2
#     Edge 42, Type (0, 0), BuildingBlock: OJICUG_clean_linker_0, # of connection points: 2
#     Edge 43, Type (0, 0), BuildingBlock: OJICUG_clean_linker_0, # of connection points: 2
#     Edge 44, Type (0, 0), BuildingBlock: OJICUG_clean_linker_0, # of connection points: 2
#     Edge 45, Type (0, 0), BuildingBlock: OJICUG_clean_linker_0, # of connection points: 2
#     Edge 46, Type (0, 0), BuildingBlock: OJICUG_clean_linker_0, # of connection points: 2
#     Edge 47, Type (0, 0), BuildingBlock: OJICUG_clean_linker_0, # of connection points: 2
#     Edge 48, Type (0, 0), BuildingBlock: OJICUG_clean_linker_0, # of connection points: 2
#     Edge 49, Type (0, 0), BuildingBlock: OJICUG_clean_linker_0, # of connection points: 2
#     Edge 50, Type (0, 0), BuildingBlock: OJICUG_clean_linker_0, # of connection points: 2
#     Edge 51, Type (0, 0), BuildingBlock: OJICUG_clean_linker_0, # of connection points: 2
#     Edge 52, Type (0, 0), BuildingBlock: OJICUG_clean_linker_0, # of connection points: 2
#     Edge 53, Type (0, 0), BuildingBlock: OJICUG_clean_linker_0, # of connection points: 2
#     Edge 54, Type (0, 0), BuildingBlock: OJICUG_clean_linker_0, # of connection points: 2
#     Edge 55, Type (0, 0), BuildingBlock: OJICUG_clean_linker_0, # of connection points: 2
#     Edge 56, Type (0, 0), BuildingBlock: OJICUG_clean_linker_0, # of connection points: 2
#     Edge 57, Type (0, 0), BuildingBlock: OJICUG_clean_linker_0, # of connection points: 2
#     Edge 58, Type (0, 0), BuildingBlock: OJICUG_clean_linker_0, # of connection points: 2
#     Edge 59, Type (0, 0), BuildingBlock: OJICUG_clean_linker_0, # of connection points: 2
#     Edge 60, Type (0, 0), BuildingBlock: OJICUG_clean_linker_0, # of connection points: 2
#     Edge 61, Type (0, 0), BuildingBlock: OJICUG_clean_linker_0, # of connection points: 2
#     Edge 62, Type (0, 0), BuildingBlock: OJICUG_clean_linker_0, # of connection points: 2
#     Edge 63, Type (0, 0), BuildingBlock: OJICUG_clean_linker_0, # of connection points: 2
#     Edge 64, Type (0, 0), BuildingBlock: OJICUG_clean_linker_0, # of connection points: 2
#     Edge 65, Type (0, 0), BuildingBlock: OJICUG_clean_linker_0, # of connection points: 2
#     Edge 66, Type (0, 0), BuildingBlock: OJICUG_clean_linker_0, # of connection points: 2
#     Edge 67, Type (0, 0), BuildingBlock: OJICUG_clean_linker_0, # of connection points: 2
#     Edge 68, Type (0, 0), BuildingBlock: OJICUG_clean_linker_0, # of connection points: 2
#     Edge 69, Type (0, 0), BuildingBlock: OJICUG_clean_linker_0, # of connection points: 2
#     Edge 70, Type (0, 0), BuildingBlock: OJICUG_clean_linker_0, # of connection points: 2
#     Edge 71, Type (0, 0), BuildingBlock: OJICUG_clean_linker_0, # of connection points: 2
#     Edge 72, Type (0, 0), BuildingBlock: OJICUG_clean_linker_0, # of connection points: 2
#     Edge 73, Type (0, 0), BuildingBlock: OJICUG_clean_linker_0, # of connection points: 2
#     Edge 74, Type (0, 0), BuildingBlock: OJICUG_clean_linker_0, # of connection points: 2
#     Edge 75, Type (0, 0), BuildingBlock: OJICUG_clean_linker_0, # of connection points: 2
#     Edge 76, Type (0, 0), BuildingBlock: OJICUG_clean_linker_0, # of connection points: 2
#     Edge 77, Type (0, 0), BuildingBlock: OJICUG_clean_linker_0, # of connection points: 2
#     Edge 78, Type (0, 0), BuildingBlock: OJICUG_clean_linker_0, # of connection points: 2
#     Edge 79, Type (0, 0), BuildingBlock: OJICUG_clean_linker_0, # of connection points: 2
#     Edge 80, Type (0, 0), BuildingBlock: OJICUG_clean_linker_0, # of connection points: 2
#     Edge 81, Type (0, 0), BuildingBlock: OJICUG_clean_linker_0, # of connection points: 2
#     Edge 82, Type (0, 0), BuildingBlock: OJICUG_clean_linker_0, # of connection points: 2
#     Edge 83, Type (0, 0), BuildingBlock: OJICUG_clean_linker_0, # of connection points: 2
# Relax obj value: 0.246
# Max RMSD: 0.244
# Mean RMSD: 0.244
data_MOF--net-pcu-i--node1-XOMCOT_clean_sbu_1--edge1-OJICUG_clean_linker_0
_symmetry_space_group_name_H-M    P1
_symmetry_Int_Tables_number       1
_symmetry_cell_setting            triclinic
loop_
_symmetry_equiv_pos_as_xyz
'x, y, z'
_cell_length_a     43.481154
_cell_length_b     43.552864
_cell_length_c     43.529495
_cell_angle_alpha  90.017666
_cell_angle_beta   90.072847
_cell_angle_gamma 90.030564
loop_
_atom_site_label
_atom_site_type_symbol
_atom_site_fract_x
_atom_site_fract_y
_atom_site_fract_z
_atom_type_partial_charge
C0 C 0.07154 0.19503 0.34594 0.0
C1 C 0.04017 0.19701 0.34329 0.0
N2 N 0.03 0.17203 0.32808 0.0
N3 N 0.08117 0.16894 0.33249 0.0
C4 C 0.05533 0.15521 0.32188 0.0
H5 H 0.08655 0.2117 0.35667 0.0
Co6 Co 0.12227 0.15903 0.32878 0.0
C7 C 0.12666 0.09247 0.32352 0.0
O8 O 0.1497 0.09459 0.34294 0.0
N9 N 0.16465 0.14969 0.32367 0.0
C10 C 0.21557 0.14441 0.32504 0.0
C11 C 0.19001 0.1533 0.34137 0.0
C12 C 0.17574 0.13884 0.29669 0.0
N13 N 0.20647 0.13543 0.29688 0.0
O14 O 0.12214 0.17497 0.28781 0.0
H15 H 0.19065 0.16237 0.36436 0.0
H16 H 0.16136 0.13349 0.27709 0.0
O17 O 0.1119 0.11663 0.3153 0.0
C18 C 0.13416 0.20155 0.29108 0.0
O19 O 0.14046 0.21112 0.31904 0.0
N20 N 0.12235 0.14773 0.37041 0.0
C21 C 0.12254 0.14007 0.43379 0.0
C22 C 0.10494 0.12059 0.41518 0.0
C23 C 0.10466 0.12523 0.38337 0.0
C24 C 0.13694 0.16857 0.38868 0.0
C25 C 0.13823 0.16462 0.42038 0.0
H26 H 0.08975 0.11125 0.36934 0.0
H27 H 0.14765 0.18852 0.3785 0.0
H28 H 0.0551 0.13386 0.30917 0.0
H29 H 0.02587 0.21538 0.35203 0.0
H30 H 0.23916 0.14562 0.33293 0.0
H31 H 0.09158 0.10211 0.42513 0.0
H32 H 0.15104 0.18079 0.43435 0.0
C33 C 0.84765 0.06259 0.3619 0.0
C34 C 0.8578 0.03304 0.3583 0.0
N35 N 0.86901 0.03009 0.32972 0.0
N36 N 0.85279 0.07851 0.33575 0.0
C37 C 0.86534 0.05777 0.31629 0.0
H38 H 0.83628 0.07138 0.3821 0.0
Co39 Co 0.84277 0.11956 0.32805 0.0
C40 C 0.90135 0.15253 0.3221 0.0
O41 O 0.88831 0.17491 0.33759 0.0
N42 N 0.83232 0.16065 0.31897 0.0
C43 C 0.81734 0.2094 0.31656 0.0
C44 C 0.81712 0.18309 0.33408 0.0
C45 C 0.84058 0.17381 0.29206 0.0
N46 N 0.83237 0.20352 0.29014 0.0
O47 O 0.83126 0.10978 0.28673 0.0
H48 H 0.80688 0.18118 0.35653 0.0
H49 H 0.8533 0.16177 0.27446 0.0
O50 O 0.88619 0.12786 0.31643 0.0
C51 C 0.80232 0.10514 0.28703 0.0
O52 O 0.7894 0.09931 0.31368 0.0
N53 N 0.85052 0.12883 0.36961 0.0
C54 C 0.85325 0.13628 0.43307 0.0
C55 C 0.88014 0.13133 0.41611 0.0
C56 C 0.87821 0.12672 0.38442 0.0
C57 C 0.82411 0.13237 0.38609 0.0
C58 C 0.82493 0.13643 0.41782 0.0
H59 H 0.89877 0.12017 0.37226 0.0
H60 H 0.80212 0.13111 0.3745 0.0
H61 H 0.87073 0.06253 0.2925 0.0
H62 H 0.85526 0.0145 0.37469 0.0
H63 H 0.80799 0.23137 0.3234 0.0
H64 H 0.90228 0.12974 0.42746 0.0
H65 H 0.80362 0.13939 0.43035 0.0
C66 C 0.92805 0.81805 0.35925 0.0
C67 C 0.95952 0.81833 0.3571 0.0
N68 N 0.9675 0.83799 0.33463 0.0
N69 N 0.91622 0.83736 0.33813 0.0
C70 C 0.94089 0.84932 0.32343 0.0
H71 H 0.91455 0.80385 0.37451 0.0
Co72 Co 0.87443 0.8413 0.3302 0.0
C73 C 0.86311 0.90603 0.31658 0.0
O74 O 0.8378 0.90339 0.3328 0.0
N75 N 0.83188 0.84448 0.3208 0.0
C76 C 0.78083 0.84861 0.32002 0.0
C77 C 0.806 0.84112 0.3377 0.0
C78 C 0.82145 0.85286 0.29261 0.0
N79 N 0.79068 0.85616 0.29173 0.0
O80 O 0.87996 0.82243 0.29105 0.0
H81 H 0.80493 0.83476 0.36157 0.0
H82 H 0.83639 0.85853 0.27356 0.0
O83 O 0.88128 0.88305 0.31374 0.0
C84 C 0.87739 0.79372 0.29628 0.0
O85 O 0.87508 0.78464 0.32498 0.0
N86 N 0.86929 0.8561 0.37066 0.0
C87 C 0.87157 0.86434 0.43455 0.0
C88 C 0.88414 0.88635 0.41457 0.0
C89 C 0.88322 0.88157 0.38272 0.0
C90 C 0.85745 0.83436 0.38977 0.0
C91 C 0.85754 0.83836 0.42154 0.0
H92 H 0.89562 0.89726 0.36816 0.0
H93 H 0.84915 0.81293 0.38032 0.0
H94 H 0.93936 0.86475 0.304 0.0
H95 H 0.97539 0.80456 0.37044 0.0
H96 H 0.75713 0.84916 0.3276 0.0
H97 H 0.89618 0.90625 0.42343 0.0
H98 H 0.84744 0.82064 0.43575 0.0
C99 C 0.15904 0.93494 0.35946 0.0
C100 C 0.14875 0.96465 0.3586 0.0
N101 N 0.13189 0.96828 0.33297 0.0
N102 N 0.14829 0.91963 0.3347 0.0
C103 C 0.13223 0.94083 0.31856 0.0
H104 H 0.17391 0.92535 0.37688 0.0
Co105 Co 0.1559 0.87835 0.32597 0.0
C106 C 0.09562 0.8488 0.31951 0.0
O107 O 0.10764 0.82561 0.33463 0.0
N108 N 0.16415 0.83692 0.31587 0.0
C109 C 0.17441 0.7869 0.31363 0.0
C110 C 0.17733 0.81318 0.331 0.0
C111 C 0.15486 0.82457 0.28883 0.0
N112 N 0.16008 0.79422 0.28722 0.0
O113 O 0.16835 0.88845 0.2852 0.0
H114 H 0.18734 0.81406 0.35362 0.0
H115 H 0.14207 0.83718 0.27161 0.0
O116 O 0.11206 0.87268 0.31397 0.0
C117 C 0.19715 0.89373 0.28713 0.0
O118 O 0.20854 0.89971 0.31449 0.0
N119 N 0.14733 0.86886 0.36734 0.0
C120 C 0.14357 0.8627 0.43091 0.0
C121 C 0.11728 0.86945 0.41359 0.0
C122 C 0.11982 0.87342 0.38186 0.0
C123 C 0.17322 0.86331 0.38415 0.0
C124 C 0.17186 0.85987 0.41594 0.0
H125 H 0.09997 0.88159 0.36945 0.0
H126 H 0.19535 0.86282 0.37284 0.0
H127 H 0.12135 0.93635 0.29663 0.0
H128 H 0.15424 0.98266 0.37488 0.0
H129 H 0.18123 0.76398 0.3204 0.0
H130 H 0.09528 0.87303 0.42467 0.0
H131 H 0.19277 0.85544 0.42875 0.0
C132 C 0.06477 0.82295 0.63415 0.0
C133 C 0.03441 0.83149 0.63476 0.0
N134 N 0.03002 0.85064 0.65875 0.0
N135 N 0.07977 0.83688 0.65737 0.0
C136 C 0.05804 0.85342 0.67209 0.0
H137 H 0.07519 0.80746 0.6178 0.0
Co138 Co 0.12139 0.83291 0.66637 0.0
C139 C 0.14408 0.89559 0.67948 0.0
O140 O 0.17003 0.88825 0.66593 0.0
N141 N 0.16329 0.82821 0.67649 0.0
C142 C 0.21406 0.82239 0.67776 0.0
C143 C 0.18795 0.8185 0.66031 0.0
C144 C 0.17499 0.83635 0.70418 0.0
N145 N 0.20579 0.83392 0.70522 0.0
O146 O 0.11198 0.81742 0.70612 0.0
H147 H 0.18768 0.81022 0.63699 0.0
H148 H 0.16141 0.84649 0.72237 0.0
O149 O 0.12221 0.87591 0.6811 0.0
C150 C 0.10959 0.78841 0.703 0.0
O151 O 0.1065 0.77743 0.67502 0.0
N152 N 0.13044 0.84471 0.62588 0.0
C153 C 0.13662 0.85173 0.56262 0.0
C154 C 0.12957 0.87702 0.5812 0.0
C155 C 0.12568 0.87286 0.6128 0.0
C156 C 0.13672 0.81989 0.60788 0.0
C157 C 0.14014 0.82288 0.57624 0.0
H158 H 0.11734 0.89193 0.62613 0.0
H159 H 0.13807 0.79733 0.61819 0.0
H160 H 0.06273 0.86676 0.69251 0.0
H161 H 0.0171 0.8241 0.61852 0.0
H162 H 0.23746 0.81818 0.6704 0.0
H163 H 0.12556 0.89942 0.57116 0.0
H164 H 0.145 0.80273 0.56247 0.0
C165 C 0.16201 0.05716 0.63421 0.0
C166 C 0.15495 0.02659 0.63682 0.0
N167 N 0.14242 0.02196 0.66462 0.0
N168 N 0.15373 0.07185 0.66024 0.0
C169 C 0.14229 0.04958 0.67863 0.0
H170 H 0.17343 0.06768 0.61488 0.0
Co171 Co 0.15942 0.11342 0.66877 0.0
C172 C 0.09771 0.13792 0.68256 0.0
O173 O 0.10591 0.16352 0.66888 0.0
N174 N 0.16594 0.15519 0.67844 0.0
C175 C 0.17769 0.20486 0.68018 0.0
C176 C 0.17839 0.17876 0.66252 0.0
C177 C 0.15893 0.16757 0.70612 0.0
N178 N 0.16521 0.19783 0.70759 0.0
O179 O 0.17575 0.10367 0.7084 0.0
H180 H 0.18728 0.17783 0.63949 0.0
H181 H 0.14861 0.15462 0.72464 0.0
O182 O 0.11681 0.11558 0.68448 0.0
C183 C 0.20449 0.09881 0.7053 0.0
O184 O 0.21535 0.09576 0.67729 0.0
N185 N 0.14646 0.12271 0.62842 0.0
C186 C 0.13679 0.12846 0.56513 0.0
C187 C 0.11263 0.12003 0.58477 0.0
C188 C 0.11804 0.1168 0.61629 0.0
C189 C 0.17034 0.12976 0.60948 0.0
C190 C 0.16591 0.13364 0.57804 0.0
H191 H 0.09983 0.10768 0.63033 0.0
H192 H 0.1934 0.13112 0.61873 0.0
H193 H 0.13505 0.05331 0.70212 0.0
H194 H 0.16018 0.00876 0.62029 0.0
H195 H 0.18492 0.22748 0.67288 0.0
H196 H 0.09008 0.11448 0.57576 0.0
H197 H 0.18542 0.13997 0.56398 0.0
C198 C 0.93645 0.15676 0.63417 0.0
C199 C 0.96685 0.14889 0.63694 0.0
N200 N 0.97109 0.13633 0.6648 0.0
N201 N 0.92137 0.14892 0.66013 0.0
C202 C 0.94334 0.1369 0.67862 0.0
H203 H 0.92648 0.16893 0.61497 0.0
Co204 Co 0.8803 0.15799 0.66962 0.0
C205 C 0.84809 0.09905 0.67182 0.0
O206 O 0.82542 0.11392 0.65848 0.0
N207 N 0.83953 0.16768 0.68088 0.0
C208 C 0.7914 0.18352 0.68796 0.0
C209 C 0.81671 0.18506 0.66896 0.0
C210 C 0.82774 0.15693 0.70756 0.0
N211 N 0.79842 0.16551 0.71213 0.0
O212 O 0.89155 0.16908 0.71069 0.0
H213 H 0.81774 0.19788 0.64782 0.0
H214 H 0.84045 0.14232 0.72315 0.0
O215 O 0.87255 0.11375 0.67977 0.0
C216 C 0.89876 0.19747 0.70912 0.0
O217 O 0.90542 0.20871 0.6819 0.0
N218 N 0.8697 0.15088 0.62804 0.0
C219 C 0.86111 0.14726 0.56469 0.0
C220 C 0.86957 0.12123 0.58149 0.0
C221 C 0.87479 0.12375 0.61297 0.0
C222 C 0.8628 0.17667 0.61169 0.0
C223 C 0.85802 0.17535 0.58001 0.0
H224 H 0.88448 0.10423 0.62476 0.0
H225 H 0.86264 0.19873 0.62305 0.0
H226 H 0.93947 0.13037 0.70229 0.0
H227 H 0.98496 0.15406 0.62067 0.0
H228 H 0.76926 0.19407 0.68373 0.0
H229 H 0.87371 0.09949 0.57011 0.0
H230 H 0.85261 0.19617 0.56752 0.0
C231 C 0.81412 0.9244 0.64358 0.0
C232 C 0.81127 0.95573 0.64145 0.0
N233 N 0.83319 0.96884 0.65909 0.0
N234 N 0.83773 0.91769 0.66242 0.0
C235 C 0.84872 0.94521 0.67177 0.0
H236 H 0.80012 0.90751 0.63187 0.0
Co237 Co 0.85093 0.87814 0.67123 0.0
C238 C 0.91481 0.9034 0.69768 0.0
O239 O 0.9142 0.92503 0.71872 0.0
N240 N 0.86485 0.83774 0.68094 0.0
C241 C 0.88767 0.79193 0.68012 0.0
C242 C 0.87969 0.8171 0.66304 0.0
C243 C 0.86442 0.82417 0.70903 0.0
N244 N 0.87796 0.79626 0.70913 0.0
O245 O 0.8315 0.8813 0.71053 0.0
H246 H 0.88582 0.82018 0.63924 0.0
H247 H 0.85439 0.83444 0.72925 0.0
O248 O 0.88946 0.8932 0.68702 0.0
C249 C 0.804 0.8721 0.70597 0.0
O250 O 0.79668 0.86221 0.67837 0.0
N251 N 0.86573 0.87524 0.63099 0.0
C252 C 0.87373 0.87295 0.56746 0.0
C253 C 0.89209 0.89238 0.58561 0.0
C254 C 0.88764 0.89328 0.61756 0.0
C255 C 0.847 0.85728 0.61342 0.0
C256 C 0.8511 0.85518 0.5818 0.0
H257 H 0.9009 0.90922 0.63124 0.0
H258 H 0.82855 0.84458 0.62419 0.0
H259 H 0.86813 0.948 0.68697 0.0
H260 H 0.79427 0.96785 0.62792 0.0
H261 H 0.90032 0.77224 0.67177 0.0
H262 H 0.90939 0.90689 0.57517 0.0
H263 H 0.83595 0.84053 0.5685 0.0
C264 C 0.35897 0.07206 0.17815 0.0
C265 C 0.35733 0.04063 0.17808 0.0
N266 N 0.33506 0.03216 0.1584 0.0
N267 N 0.33778 0.08351 0.15858 0.0
C268 C 0.32348 0.05846 0.14683 0.0
H269 H 0.37356 0.08564 0.19296 0.0
Co270 Co 0.32826 0.12531 0.15522 0.0
C271 C 0.29649 0.11226 0.09296 0.0
O272 O 0.27131 0.09731 0.10029 0.0
N273 N 0.31783 0.16705 0.15139 0.0
C274 C 0.31738 0.21794 0.14694 0.0
C275 C 0.33444 0.19286 0.15601 0.0
C276 C 0.29057 0.17722 0.14016 0.0
N277 N 0.28979 0.20799 0.13695 0.0
O278 O 0.2883 0.11751 0.17158 0.0
H279 H 0.35767 0.19369 0.1647 0.0
H280 H 0.27198 0.16218 0.13325 0.0
O281 O 0.31536 0.12085 0.11357 0.0
C282 C 0.29282 0.1176 0.20056 0.0
O283 O 0.32103 0.12163 0.21069 0.0
N284 N 0.36892 0.13301 0.14278 0.0
C285 C 0.4326 0.13561 0.13618 0.0
C286 C 0.41377 0.12933 0.11076 0.0
C287 C 0.38178 0.12766 0.11462 0.0
C288 C 0.38703 0.14037 0.16728 0.0
C289 C 0.4189 0.14158 0.16457 0.0
H290 H 0.3678 0.12081 0.09531 0.0
H291 H 0.3766 0.14398 0.18953 0.0
H292 H 0.30374 0.05938 0.13181 0.0
H293 H 0.3706 0.02514 0.19235 0.0
H294 H 0.32477 0.24167 0.14747 0.0
H295 H 0.42377 0.12442 0.08852 0.0
H296 H 0.43279 0.14659 0.18464 0.0
C297 C 0.92732 0.35255 0.18624 0.0
C298 C 0.95871 0.34978 0.18715 0.0
N299 N 0.96743 0.33048 0.16462 0.0
N300 N 0.91618 0.33507 0.16325 0.0
C301 C 0.94121 0.32191 0.15026 0.0
H302 H 0.91333 0.3658 0.2019 0.0
Co303 Co 0.87431 0.32952 0.15724 0.0
C304 C 0.86362 0.32195 0.09177 0.0
O305 O 0.84031 0.34071 0.09563 0.0
N306 N 0.83136 0.32253 0.15212 0.0
C307 C 0.78021 0.32306 0.14905 0.0
C308 C 0.80591 0.33968 0.15713 0.0
C309 C 0.82017 0.29531 0.14184 0.0
N310 N 0.78932 0.29518 0.13936 0.0
O311 O 0.87726 0.28925 0.17414 0.0
H312 H 0.8054 0.36282 0.16584 0.0
H313 H 0.83459 0.27619 0.13519 0.0
O314 O 0.88121 0.31517 0.11449 0.0
C315 C 0.86896 0.29385 0.2019 0.0
O316 O 0.86486 0.32229 0.21113 0.0
N317 N 0.87159 0.37072 0.14486 0.0
C318 C 0.87141 0.43449 0.13806 0.0
C319 C 0.88609 0.41567 0.11635 0.0
C320 C 0.88649 0.3838 0.12052 0.0
C321 C 0.85892 0.38881 0.16696 0.0
C322 C 0.8577 0.42053 0.16363 0.0
H323 H 0.8998 0.36992 0.10488 0.0
H324 H 0.85019 0.37852 0.18779 0.0
H325 H 0.94018 0.30542 0.13168 0.0
H326 H 0.97403 0.36078 0.20342 0.0
H327 H 0.75662 0.33085 0.15039 0.0
H328 H 0.89816 0.4255 0.09695 0.0
H329 H 0.84631 0.43391 0.18121 0.0
C330 C 0.6324 0.93182 0.14866 0.0
C331 C 0.63589 0.96172 0.13951 0.0
N332 N 0.6656 0.96627 0.13255 0.0
N333 N 0.65978 0.91715 0.14707 0.0
C334 C 0.6797 0.93912 0.13757 0.0
H335 H 0.61125 0.92211 0.15725 0.0
Co336 Co 0.66884 0.87627 0.15847 0.0
C337 C 0.67543 0.84195 0.10073 0.0
O338 O 0.66084 0.81951 0.11468 0.0
N339 N 0.67945 0.83579 0.17011 0.0
C340 C 0.68209 0.78636 0.1828 0.0
C341 C 0.66449 0.81264 0.18444 0.0
C342 C 0.70663 0.82324 0.16158 0.0
N343 N 0.70849 0.79317 0.16817 0.0
O344 O 0.70973 0.88772 0.17015 0.0
H345 H 0.64166 0.8138 0.19397 0.0
H346 H 0.72356 0.83524 0.14787 0.0
O347 O 0.68079 0.86707 0.11531 0.0
C348 C 0.70817 0.89677 0.19797 0.0
O349 O 0.68089 0.90374 0.20894 0.0
N350 N 0.62741 0.86537 0.1508 0.0
C351 C 0.56359 0.85902 0.14822 0.0
C352 C 0.58076 0.86259 0.12125 0.0
C353 C 0.61259 0.86659 0.12306 0.0
C354 C 0.61085 0.86245 0.17723 0.0
C355 C 0.57896 0.859 0.17648 0.0
H356 H 0.62472 0.87265 0.10235 0.0
H357 H 0.62244 0.86412 0.19917 0.0
H358 H 0.70427 0.93572 0.13556 0.0
H359 H 0.61843 0.97944 0.14016 0.0
H360 H 0.6753 0.76366 0.19032 0.0
H361 H 0.56947 0.86398 0.09909 0.0
H362 H 0.56638 0.85692 0.19785 0.0
C363 C 0.06667 0.64071 0.17357 0.0
C364 C 0.03529 0.64294 0.17143 0.0
N365 N 0.02851 0.66612 0.15219 0.0
N366 N 0.07969 0.66247 0.15578 0.0
C367 C 0.05575 0.67773 0.14299 0.0
H368 H 0.07914 0.62515 0.18836 0.0
Co369 Co 0.12161 0.67117 0.15473 0.0
C370 C 0.13724 0.6834 0.09005 0.0
O371 O 0.16357 0.66946 0.09485 0.0
N372 N 0.16395 0.6812 0.15438 0.0
C373 C 0.21511 0.68221 0.1536 0.0
C374 C 0.18961 0.66461 0.16006 0.0
C375 C 0.17468 0.70916 0.1458 0.0
N376 N 0.20557 0.71014 0.14446 0.0
O377 O 0.11405 0.71106 0.17112 0.0
H378 H 0.19027 0.64094 0.16723 0.0
H379 H 0.16001 0.72779 0.1383 0.0
O380 O 0.11742 0.68537 0.11173 0.0
C381 C 0.1146 0.707 0.20015 0.0
O382 O 0.11461 0.67864 0.21047 0.0
N383 N 0.12902 0.6303 0.14267 0.0
C384 C 0.13275 0.56656 0.13736 0.0
C385 C 0.12362 0.58453 0.11223 0.0
C386 C 0.12105 0.61643 0.11562 0.0
C387 C 0.13767 0.61292 0.16726 0.0
C388 C 0.1398 0.58109 0.16511 0.0
H389 H 0.11125 0.62944 0.097 0.0
H390 H 0.14192 0.62392 0.18915 0.0
H391 H 0.0582 0.69792 0.1287 0.0
H392 H 0.01861 0.62942 0.184 0.0
H393 H 0.23884 0.67476 0.15468 0.0
H394 H 0.1171 0.57387 0.0907 0.0
H395 H 0.1465 0.56789 0.18512 0.0
C396 C 0.35075 0.93069 0.8167 0.0
C397 C 0.34873 0.96182 0.82159 0.0
N398 N 0.33079 0.96654 0.84633 0.0
N399 N 0.33399 0.91595 0.83817 0.0
C400 C 0.32221 0.93843 0.85602 0.0
H401 H 0.36346 0.91947 0.79856 0.0
Co402 Co 0.3276 0.87383 0.83973 0.0
C403 C 0.31817 0.85797 0.90462 0.0
O404 O 0.33451 0.83315 0.8995 0.0
N405 N 0.31965 0.83101 0.84065 0.0
C406 C 0.31941 0.77986 0.84143 0.0
C407 C 0.33661 0.80561 0.8349 0.0
C408 C 0.29194 0.8198 0.84954 0.0
N409 N 0.29137 0.78897 0.85071 0.0
O410 O 0.28733 0.87922 0.82324 0.0
H411 H 0.3602 0.80519 0.8274 0.0
H412 H 0.27302 0.83411 0.85702 0.0
O413 O 0.31334 0.8772 0.88284 0.0
C414 C 0.29152 0.8777 0.79428 0.0
O415 O 0.31994 0.87675 0.78408 0.0
N416 N 0.36875 0.86908 0.85211 0.0
C417 C 0.43234 0.86803 0.86017 0.0
C418 C 0.41332 0.88123 0.8825 0.0
C419 C 0.38148 0.88182 0.87789 0.0
C420 C 0.38725 0.85809 0.82939 0.0
C421 C 0.41901 0.8564 0.83332 0.0
H422 H 0.36741 0.89383 0.89432 0.0
H423 H 0.37727 0.85119 0.80769 0.0
H424 H 0.30715 0.93444 0.87538 0.0
H425 H 0.35994 0.97961 0.80832 0.0
H426 H 0.32712 0.75627 0.84005 0.0
H427 H 0.42302 0.89134 0.90309 0.0
H428 H 0.43315 0.84713 0.81506 0.0
C429 C 0.07172 0.3506 0.81095 0.0
C430 C 0.04027 0.34824 0.81188 0.0
N431 N 0.03272 0.32937 0.83516 0.0
N432 N 0.08385 0.3332 0.83348 0.0
C433 C 0.05948 0.32056 0.84803 0.0
H434 H 0.08499 0.36334 0.79426 0.0
Co435 Co 0.12546 0.3263 0.83792 0.0
C436 C 0.13718 0.31547 0.90357 0.0
O437 O 0.16309 0.33064 0.90044 0.0
N438 N 0.16797 0.31822 0.84153 0.0
C439 C 0.21907 0.31835 0.84419 0.0
C440 C 0.19347 0.33542 0.83689 0.0
C441 C 0.17893 0.29058 0.8506 0.0
N442 N 0.20972 0.29022 0.8529 0.0
O443 O 0.12047 0.28594 0.82168 0.0
H444 H 0.19396 0.35896 0.82933 0.0
H445 H 0.16441 0.27147 0.85712 0.0
O446 O 0.11895 0.31234 0.88064 0.0
C447 C 0.12748 0.28948 0.79347 0.0
O448 O 0.13122 0.31758 0.7831 0.0
N449 N 0.13025 0.36731 0.84999 0.0
C450 C 0.13312 0.43097 0.85598 0.0
C451 C 0.12126 0.4128 0.87981 0.0
C452 C 0.11936 0.38094 0.87607 0.0
C453 C 0.14074 0.38483 0.82631 0.0
C454 C 0.14294 0.41656 0.82898 0.0
H455 H 0.10793 0.36769 0.89353 0.0
H456 H 0.14713 0.37399 0.8049 0.0
H457 H 0.06128 0.30411 0.86658 0.0
H458 H 0.02414 0.35899 0.79627 0.0
H459 H 0.24272 0.3261 0.84339 0.0
H460 H 0.11237 0.4232 0.90058 0.0
H461 H 0.15202 0.42969 0.80991 0.0
C462 C 0.64423 0.06668 0.82022 0.0
C463 C 0.64477 0.03592 0.82705 0.0
N464 N 0.66404 0.03158 0.85094 0.0
N465 N 0.66293 0.0817 0.83981 0.0
C466 C 0.67474 0.05976 0.85826 0.0
H467 H 0.63122 0.07743 0.80199 0.0
Co468 Co 0.67043 0.12343 0.83871 0.0
C469 C 0.67842 0.14404 0.90274 0.0
O470 O 0.6636 0.16921 0.89521 0.0
N471 N 0.67915 0.16582 0.83674 0.0
C472 C 0.68005 0.21679 0.83331 0.0
C473 C 0.66276 0.19077 0.82815 0.0
C474 C 0.70661 0.17735 0.84586 0.0
N475 N 0.70756 0.20812 0.84451 0.0
O476 O 0.7113 0.11608 0.82507 0.0
H477 H 0.63948 0.19063 0.81961 0.0
H478 H 0.72494 0.1635 0.85541 0.0
O479 O 0.68274 0.12292 0.88265 0.0
C480 C 0.70973 0.11808 0.79592 0.0
O481 O 0.68236 0.11852 0.78309 0.0
N482 N 0.62909 0.13009 0.84857 0.0
C483 C 0.56528 0.13188 0.85283 0.0
C484 C 0.58314 0.12343 0.87825 0.0
C485 C 0.61504 0.1218 0.87539 0.0
C486 C 0.6119 0.13755 0.82347 0.0
C487 C 0.57994 0.13889 0.82513 0.0
H488 H 0.628 0.11234 0.89424 0.0
H489 H 0.62313 0.14156 0.80168 0.0
H490 H 0.69149 0.06422 0.87612 0.0
H491 H 0.63189 0.01814 0.81533 0.0
H492 H 0.67274 0.24028 0.82979 0.0
H493 H 0.57242 0.11674 0.89969 0.0
H494 H 0.56682 0.14502 0.80487 0.0
C495 C 0.9249 0.64101 0.81402 0.0
C496 C 0.95628 0.64187 0.81018 0.0
N497 N 0.96814 0.66141 0.83109 0.0
N498 N 0.91717 0.65998 0.83719 0.0
C499 C 0.94398 0.67204 0.84721 0.0
H500 H 0.90866 0.62786 0.80051 0.0
Co501 Co 0.87776 0.66982 0.84993 0.0
C502 C 0.8885 0.70195 0.90829 0.0
O503 O 0.8773 0.72757 0.89695 0.0
N504 N 0.83805 0.68054 0.86378 0.0
C505 C 0.79879 0.68659 0.89602 0.0
C506 C 0.82332 0.66832 0.88825 0.0
C507 C 0.82171 0.7061 0.85703 0.0
N508 N 0.79806 0.71059 0.87656 0.0
O509 O 0.88412 0.71057 0.83432 0.0
H510 H 0.83117 0.64864 0.90119 0.0
H511 H 0.82837 0.72259 0.83977 0.0
O512 O 0.89256 0.67895 0.89066 0.0
C513 C 0.87755 0.70685 0.80592 0.0
O514 O 0.86724 0.67984 0.79711 0.0
N515 N 0.87143 0.62884 0.86101 0.0
C516 C 0.86489 0.56525 0.86574 0.0
C517 C 0.88811 0.58076 0.88205 0.0
C518 C 0.89106 0.6126 0.87931 0.0
C519 C 0.84857 0.61433 0.84528 0.0
C520 C 0.84453 0.58267 0.84773 0.0
H521 H 0.91025 0.62389 0.89032 0.0
H522 H 0.83385 0.62736 0.83005 0.0
H523 H 0.94569 0.6891 0.86521 0.0
H524 H 0.96939 0.62915 0.7933 0.0
H525 H 0.78348 0.68304 0.91527 0.0
H526 H 0.90486 0.56834 0.89562 0.0
H527 H 0.82599 0.57194 0.83504 0.0
C528 C 0.14419 0.36544 0.06162 0.0
C529 C 0.13389 0.36179 0.03208 0.0
N530 N 0.12638 0.33214 0.02805 0.0
N531 N 0.1428 0.33823 0.0765 0.0
C532 C 0.13226 0.31825 0.05512 0.0
H533 H 0.15312 0.38658 0.07103 0.0
Co534 Co 0.15416 0.32945 0.11716 0.0
C535 C 0.09603 0.31905 0.15021 0.0
O536 O 0.10874 0.33326 0.17365 0.0
N537 N 0.16585 0.31921 0.15757 0.0
C538 C 0.183 0.31544 0.20556 0.0
C539 C 0.18159 0.33393 0.17993 0.0
C540 C 0.15894 0.29156 0.16999 0.0
N541 N 0.16845 0.28882 0.19928 0.0
O542 O 0.1679 0.28913 0.1055 0.0
H543 H 0.19111 0.35673 0.17837 0.0
H544 H 0.14623 0.27398 0.15783 0.0
O545 O 0.11142 0.31542 0.12533 0.0
C546 C 0.19603 0.2915 0.09749 0.0
O547 O 0.20666 0.31915 0.09162 0.0
N548 N 0.14453 0.37037 0.12824 0.0
C549 C 0.13955 0.43414 0.13317 0.0
C550 C 0.11319 0.41583 0.13028 0.0
C551 C 0.11619 0.38401 0.12703 0.0
C552 C 0.17031 0.38801 0.13095 0.0
C553 C 0.16838 0.41986 0.13366 0.0
H554 H 0.09588 0.37096 0.12139 0.0
H555 H 0.19271 0.37736 0.12924 0.0
H556 H 0.12993 0.2938 0.05892 0.0
H557 H 0.13405 0.37908 0.01421 0.0
H558 H 0.19301 0.32168 0.22746 0.0
H559 H 0.0906 0.4262 0.12873 0.0
H560 H 0.1893 0.43328 0.13535 0.0
C561 C 0.15604 0.6353 0.93253 0.0
C562 C 0.14691 0.63879 0.96244 0.0
N563 N 0.13336 0.66635 0.96523 0.0
N564 N 0.14791 0.66045 0.91629 0.0
C565 C 0.13462 0.67932 0.93711 0.0
H566 H 0.16885 0.61604 0.92357 0.0
Co567 Co 0.1566 0.66766 0.87484 0.0
C568 C 0.09746 0.67267 0.84342 0.0
O569 O 0.1103 0.65597 0.82181 0.0
N570 N 0.16582 0.67649 0.83321 0.0
C571 C 0.17494 0.67732 0.78289 0.0
C572 C 0.17836 0.66065 0.8096 0.0
C573 C 0.15659 0.70328 0.82033 0.0
N574 N 0.16099 0.70401 0.78981 0.0
O575 O 0.16971 0.70849 0.88413 0.0
H576 H 0.18784 0.63784 0.81079 0.0
H577 H 0.144 0.72079 0.8327 0.0
O578 O 0.11306 0.67995 0.86748 0.0
C579 C 0.19808 0.70593 0.89121 0.0
O580 O 0.20872 0.67826 0.89695 0.0
N581 N 0.14728 0.62617 0.86652 0.0
C582 C 0.14148 0.5627 0.8633 0.0
C583 C 0.11603 0.58084 0.87053 0.0
C584 C 0.11957 0.61259 0.87282 0.0
C585 C 0.17248 0.60846 0.86077 0.0
C586 C 0.17002 0.57662 0.85857 0.0
H587 H 0.10043 0.62589 0.88126 0.0
H588 H 0.19492 0.61907 0.85926 0.0
H589 H 0.12719 0.70249 0.93207 0.0
H590 H 0.15169 0.62319 0.98122 0.0
H591 H 0.18091 0.66976 0.75997 0.0
H592 H 0.09393 0.57046 0.87547 0.0
H593 H 0.1903 0.56295 0.85393 0.0
C594 C 0.3626 0.16544 0.93549 0.0
C595 C 0.35862 0.1632 0.96662 0.0
N596 N 0.33098 0.15043 0.97202 0.0
N597 N 0.33776 0.15371 0.92092 0.0
C598 C 0.31859 0.14535 0.94401 0.0
H599 H 0.3825 0.17543 0.92476 0.0
Co600 Co 0.32933 0.15164 0.87826 0.0
C601 C 0.32271 0.08592 0.89862 0.0
O602 O 0.34129 0.08941 0.92217 0.0
N603 N 0.31994 0.14956 0.83648 0.0
C604 C 0.32048 0.15065 0.78547 0.0
C605 C 0.33621 0.15874 0.81175 0.0
C606 C 0.29417 0.13668 0.82468 0.0
N607 N 0.29406 0.13681 0.79375 0.0
O608 O 0.28903 0.16714 0.88547 0.0
H609 H 0.35821 0.17024 0.81256 0.0
H610 H 0.27616 0.12661 0.83856 0.0
O611 O 0.31622 0.10889 0.88152 0.0
C612 C 0.29316 0.19607 0.88765 0.0
O613 O 0.32152 0.2065 0.88814 0.0
N614 N 0.3701 0.14055 0.86977 0.0
C615 C 0.43311 0.13584 0.86038 0.0
C616 C 0.4145 0.10955 0.85947 0.0
C617 C 0.38274 0.11243 0.86391 0.0
C618 C 0.38764 0.16638 0.86762 0.0
C619 C 0.41924 0.16458 0.8636 0.0
H620 H 0.36878 0.09212 0.86237 0.0
H621 H 0.37701 0.18865 0.87025 0.0
H622 H 0.29606 0.13543 0.94026 0.0
H623 H 0.37517 0.16997 0.98394 0.0
H624 H 0.32783 0.15474 0.76207 0.0
H625 H 0.42445 0.08701 0.85605 0.0
H626 H 0.43276 0.18548 0.8633 0.0
C627 C 0.83289 0.35801 0.9318 0.0
C628 C 0.83936 0.3557 0.96258 0.0
N629 N 0.85767 0.3312 0.96676 0.0
N630 N 0.84719 0.33505 0.91668 0.0
C631 C 0.86188 0.31879 0.93872 0.0
H632 H 0.81799 0.37483 0.92121 0.0
Co633 Co 0.84382 0.32708 0.87478 0.0
C634 C 0.90591 0.32132 0.85136 0.0
O635 O 0.8963 0.33894 0.82883 0.0
N636 N 0.8401 0.31718 0.8323 0.0
C637 C 0.83763 0.3148 0.7812 0.0
C638 C 0.83153 0.3326 0.80668 0.0
C639 C 0.84995 0.28962 0.82155 0.0
N640 N 0.8493 0.28783 0.79074 0.0
O641 O 0.82907 0.28683 0.88334 0.0
H642 H 0.82302 0.35579 0.80581 0.0
H643 H 0.85998 0.27203 0.83599 0.0
O644 O 0.8876 0.31419 0.87335 0.0
C645 C 0.80017 0.29095 0.88642 0.0
O646 O 0.79006 0.31932 0.88858 0.0
N647 N 0.85423 0.3684 0.86714 0.0
C648 C 0.85906 0.43226 0.86557 0.0
C649 C 0.88321 0.41436 0.87714 0.0
C650 C 0.8802 0.38242 0.87809 0.0
C651 C 0.83007 0.3857 0.85722 0.0
C652 C 0.83229 0.41758 0.85538 0.0
H653 H 0.89804 0.36921 0.88921 0.0
H654 H 0.80833 0.37477 0.85211 0.0
H655 H 0.87448 0.29779 0.93445 0.0
H656 H 0.83036 0.37014 0.98073 0.0
H657 H 0.83485 0.32162 0.75745 0.0
H658 H 0.90392 0.42499 0.88601 0.0
H659 H 0.81267 0.43072 0.84749 0.0
C660 C 0.6393 0.81841 0.92852 0.0
C661 C 0.64038 0.8141 0.95976 0.0
N662 N 0.6633 0.83151 0.97115 0.0
N663 N 0.6613 0.83862 0.92028 0.0
C664 C 0.67579 0.84591 0.94678 0.0
H665 H 0.62374 0.80714 0.91273 0.0
Co666 Co 0.67033 0.84972 0.88002 0.0
C667 C 0.69148 0.91473 0.90544 0.0
O668 O 0.70615 0.91227 0.93169 0.0
N669 N 0.68005 0.8611 0.83882 0.0
C670 C 0.67857 0.88111 0.79166 0.0
C671 C 0.66202 0.8754 0.81785 0.0
C672 C 0.70774 0.85892 0.82455 0.0
N673 N 0.70736 0.87075 0.7959 0.0
O674 O 0.71103 0.83516 0.88604 0.0
H675 H 0.63862 0.88281 0.82142 0.0
H676 H 0.72805 0.84899 0.83479 0.0
O677 O 0.68123 0.89089 0.89185 0.0
C678 C 0.71008 0.80665 0.8796 0.0
O679 O 0.68398 0.79451 0.8704 0.0
N680 N 0.62917 0.86065 0.87446 0.0
C681 C 0.56526 0.86506 0.86951 0.0
C682 C 0.58202 0.88593 0.88772 0.0
C683 C 0.61404 0.88332 0.88993 0.0
C684 C 0.61338 0.84016 0.85684 0.0
C685 C 0.58163 0.84239 0.85343 0.0
H686 H 0.62634 0.89852 0.90523 0.0
H687 H 0.62566 0.82177 0.84552 0.0
H688 H 0.69606 0.86008 0.94814 0.0
H689 H 0.62544 0.79938 0.97313 0.0
H690 H 0.67022 0.89285 0.77138 0.0
H691 H 0.5705 0.90336 0.90118 0.0
H692 H 0.5701 0.82611 0.83857 0.0
C693 C 0.82674 0.64372 0.06289 0.0
C694 C 0.83525 0.646 0.03262 0.0
N695 N 0.85479 0.6698 0.02989 0.0
N696 N 0.84132 0.66567 0.07922 0.0
C697 C 0.85794 0.68159 0.05838 0.0
H698 H 0.81124 0.62686 0.07251 0.0
Co699 Co 0.83858 0.67031 0.12149 0.0
C700 C 0.90128 0.67749 0.14451 0.0
O701 O 0.89282 0.65903 0.16683 0.0
N702 N 0.83503 0.67641 0.16446 0.0
C703 C 0.82886 0.6754 0.21524 0.0
C704 C 0.82473 0.65933 0.18829 0.0
C705 C 0.8441 0.70311 0.17766 0.0
N706 N 0.84121 0.70289 0.20838 0.0
O707 O 0.82258 0.71079 0.11651 0.0
H708 H 0.81525 0.63654 0.18692 0.0
H709 H 0.85432 0.72189 0.16497 0.0
O710 O 0.88205 0.68466 0.12328 0.0
C711 C 0.79347 0.70713 0.11589 0.0
O712 O 0.78285 0.6791 0.1122 0.0
N713 N 0.85084 0.62905 0.12581 0.0
C714 C 0.86082 0.56603 0.1276 0.0
C715 C 0.88347 0.58562 0.11598 0.0
C716 C 0.87783 0.61719 0.11483 0.0
C717 C 0.8278 0.60983 0.13475 0.0
C718 C 0.8326 0.57827 0.13677 0.0
H719 H 0.89475 0.63183 0.10413 0.0
H720 H 0.80523 0.61902 0.13957 0.0
H721 H 0.87252 0.70094 0.06402 0.0
H722 H 0.82757 0.63144 0.01395 0.0
H723 H 0.82343 0.66735 0.23812 0.0
H724 H 0.90511 0.57658 0.10764 0.0
H725 H 0.8142 0.56348 0.14466 0.0
C726 C 0.36397 0.84693 0.06629 0.0
C727 C 0.36167 0.85509 0.03594 0.0
N728 N 0.3329 0.865 0.03074 0.0
N729 N 0.33677 0.85198 0.08042 0.0
C730 C 0.31811 0.86257 0.05786 0.0
H731 H 0.38404 0.83685 0.07686 0.0
Co732 Co 0.32633 0.84377 0.12154 0.0
C733 C 0.3185 0.904 0.15076 0.0
O734 O 0.33226 0.89206 0.17484 0.0
N735 N 0.3143 0.83538 0.16251 0.0
C736 C 0.31034 0.82671 0.21274 0.0
C737 C 0.32867 0.82311 0.18719 0.0
C738 C 0.28669 0.84468 0.17356 0.0
N739 N 0.28403 0.84045 0.20401 0.0
O740 O 0.28597 0.83114 0.1095 0.0
H741 H 0.3516 0.81374 0.18752 0.0
H742 H 0.26999 0.85723 0.16002 0.0
O743 O 0.31417 0.88746 0.12671 0.0
C744 C 0.28841 0.80281 0.10241 0.0
O745 O 0.31616 0.79191 0.09742 0.0
N746 N 0.36735 0.85216 0.13314 0.0
C747 C 0.431 0.85447 0.14106 0.0
C748 C 0.41429 0.88127 0.13485 0.0
C749 C 0.38253 0.87952 0.13011 0.0
C750 C 0.38348 0.82588 0.13863 0.0
C751 C 0.41524 0.82652 0.14296 0.0
H752 H 0.37074 0.89982 0.12219 0.0
H753 H 0.37167 0.80402 0.13834 0.0
H754 H 0.29388 0.86733 0.06093 0.0
H755 H 0.37915 0.85205 0.0185 0.0
H756 H 0.31654 0.82119 0.23619 0.0
H757 H 0.42592 0.90309 0.13199 0.0
H758 H 0.42745 0.80524 0.14712 0.0
C759 C 0.63248 0.16111 0.06621 0.0
C760 C 0.63417 0.155 0.03531 0.0
N761 N 0.66168 0.14223 0.02955 0.0
N762 N 0.65885 0.15207 0.07993 0.0
C763 C 0.67642 0.14105 0.05678 0.0
H764 H 0.61354 0.17235 0.0776 0.0
Co765 Co 0.6696 0.15567 0.12141 0.0
C766 C 0.68391 0.09239 0.1415 0.0
O767 O 0.67217 0.09891 0.16851 0.0
N768 N 0.68182 0.15953 0.16293 0.0
C769 C 0.68652 0.16693 0.21328 0.0
C770 C 0.66733 0.17 0.18828 0.0
C771 C 0.71011 0.15127 0.17315 0.0
N772 N 0.71338 0.1548 0.20375 0.0
O773 O 0.70883 0.17206 0.11033 0.0
H774 H 0.64416 0.17872 0.18919 0.0
H775 H 0.72766 0.1417 0.15839 0.0
O776 O 0.68441 0.11286 0.12037 0.0
C777 C 0.7045 0.20072 0.10604 0.0
O778 O 0.67599 0.2107 0.10473 0.0
N779 N 0.62934 0.14351 0.13214 0.0
C780 C 0.56537 0.13813 0.13508 0.0
C781 C 0.58368 0.11254 0.12821 0.0
C782 C 0.61567 0.11585 0.12614 0.0
C783 C 0.61175 0.16838 0.13941 0.0
C784 C 0.57982 0.16619 0.14118 0.0
H785 H 0.6288 0.09677 0.1175 0.0
H786 H 0.62247 0.19068 0.14172 0.0
H787 H 0.69989 0.13328 0.05966 0.0
H788 H 0.6172 0.16095 0.01809 0.0
H789 H 0.68055 0.17205 0.23686 0.0
H790 H 0.57323 0.09066 0.12258 0.0
H791 H 0.56646 0.18656 0.14626 0.0
C792 C 0.15583 0.12079 0.51118 0.0
C793 C 0.13226 0.13021 0.53126 0.0
H794 H 0.171 0.11675 0.4645 0.0
C795 C 0.10463 0.14145 0.51864 0.0
H796 H 0.1771 0.11125 0.51989 0.0
C797 C 0.10096 0.14377 0.48678 0.0
C798 C 0.12493 0.13511 0.4671 0.0
H799 H 0.08612 0.14918 0.53336 0.0
H800 H 0.07979 0.15307 0.47751 0.0
C801 C 0.15228 0.12352 0.47945 0.0
C802 C 0.83711 0.12032 0.4857 0.0
C803 C 0.85457 0.13971 0.46674 0.0
H804 H 0.82578 0.10744 0.53187 0.0
C805 C 0.87351 0.16214 0.4801 0.0
H806 H 0.82248 0.10275 0.47582 0.0
C807 C 0.87497 0.16516 0.51201 0.0
C808 C 0.85797 0.14539 0.53099 0.0
H809 H 0.88707 0.17736 0.46583 0.0
H810 H 0.88996 0.18243 0.52188 0.0
C811 C 0.83905 0.12293 0.51761 0.0
C812 C 0.87896 0.84094 0.48693 0.0
C813 C 0.87451 0.86726 0.46865 0.0
H814 H 0.88234 0.82226 0.53233 0.0
C815 C 0.87251 0.89602 0.48337 0.0
H816 H 0.88163 0.81849 0.47658 0.0
C817 C 0.87379 0.89817 0.51551 0.0
C818 C 0.87679 0.8716 0.53356 0.0
H819 H 0.86894 0.91677 0.47015 0.0
H820 H 0.8711 0.92042 0.52631 0.0
C821 C 0.87977 0.84306 0.51892 0.0
C822 C 0.15847 0.87612 0.51547 0.0
C823 C 0.13831 0.85487 0.52892 0.0
H824 H 0.17626 0.89485 0.47351 0.0
C825 C 0.11977 0.83637 0.51003 0.0
H826 H 0.173 0.89053 0.52967 0.0
C827 C 0.12124 0.83917 0.47812 0.0
C828 C 0.14174 0.86006 0.46464 0.0
H829 H 0.10393 0.81996 0.51999 0.0
H830 H 0.10669 0.82475 0.46394 0.0
C831 C 0.16042 0.87845 0.48351 0.0
C832 C 0.48336 0.11316 0.15087 0.0
C833 C 0.46649 0.13482 0.13387 0.0
H834 H 0.52806 0.09695 0.16419 0.0
C835 C 0.48221 0.15679 0.11638 0.0
H836 H 0.47158 0.09604 0.16456 0.0
C837 C 0.51438 0.1577 0.11665 0.0
C838 C 0.53133 0.13629 0.13398 0.0
H839 H 0.46961 0.17378 0.10326 0.0
H840 H 0.52606 0.17521 0.10338 0.0
C841 C 0.51554 0.11366 0.15064 0.0
C842 C 0.865 0.51433 0.10332 0.0
C843 C 0.86606 0.53277 0.12969 0.0
H844 H 0.86526 0.46858 0.08528 0.0
C845 C 0.8704 0.51918 0.15849 0.0
H846 H 0.86143 0.52457 0.08092 0.0
C847 C 0.87318 0.48739 0.16103 0.0
C848 C 0.871 0.4685 0.13484 0.0
H849 H 0.87139 0.53319 0.17904 0.0
H850 H 0.87683 0.47765 0.18362 0.0
C851 C 0.86732 0.48238 0.10587 0.0
C852 C 0.51502 0.83636 0.12729 0.0
C853 C 0.52963 0.85735 0.14695 0.0
H854 H 0.47219 0.81882 0.11032 0.0
C855 C 0.51165 0.87726 0.16489 0.0
H856 H 0.52842 0.82078 0.11327 0.0
C857 C 0.47956 0.87643 0.16293 0.0
C858 C 0.46494 0.85529 0.14342 0.0
H859 H 0.52243 0.89385 0.18001 0.0
H860 H 0.46616 0.89215 0.17679 0.0
C861 C 0.48294 0.83515 0.12575 0.0
C862 C 0.15468 0.48599 0.11333 0.0
C863 C 0.1372 0.46807 0.13375 0.0
H864 H 0.16645 0.53141 0.0981 0.0
C865 C 0.11757 0.48275 0.15469 0.0
H866 H 0.16978 0.47516 0.09678 0.0
C867 C 0.11605 0.51481 0.15571 0.0
C868 C 0.13359 0.53268 0.13536 0.0
H869 H 0.10389 0.46944 0.17065 0.0
H870 H 0.10112 0.52569 0.17239 0.0
C871 C 0.15265 0.51804 0.11392 0.0
C872 C 0.48273 0.89465 0.86829 0.0
C873 C 0.46608 0.86738 0.86401 0.0
H874 H 0.52706 0.91559 0.87226 0.0
C875 C 0.4819 0.83944 0.86218 0.0
H876 H 0.47092 0.91652 0.86944 0.0
C877 C 0.51389 0.83869 0.86458 0.0
C878 C 0.53096 0.86602 0.86805 0.0
H879 H 0.46943 0.8181 0.85909 0.0
H880 H 0.52514 0.81654 0.86388 0.0
C881 C 0.51488 0.89403 0.87002 0.0
C882 C 0.1253 0.48328 0.83345 0.0
C883 C 0.13422 0.46488 0.8585 0.0
H884 H 0.12059 0.52896 0.81561 0.0
C885 C 0.14485 0.47909 0.8855 0.0
H886 H 0.11661 0.473 0.81251 0.0
C887 C 0.14714 0.51107 0.88712 0.0
C888 C 0.13854 0.52917 0.86192 0.0
H889 H 0.15203 0.46548 0.90505 0.0
H890 H 0.15575 0.52168 0.90794 0.0
C891 C 0.12739 0.51519 0.83519 0.0
C892 C 0.48132 0.11738 0.83502 0.0
C893 C 0.46692 0.13374 0.85874 0.0
H894 H 0.52411 0.1043 0.81439 0.0
C895 C 0.485 0.14905 0.88071 0.0
H896 H 0.46779 0.10555 0.81778 0.0
C897 C 0.51699 0.14815 0.87894 0.0
C898 C 0.53143 0.1323 0.85493 0.0
H899 H 0.47434 0.16168 0.89931 0.0
H900 H 0.53046 0.16026 0.89605 0.0
C901 C 0.51339 0.11689 0.83298 0.0
C902 C 0.85455 0.51491 0.83924 0.0
C903 C 0.86303 0.53107 0.86599 0.0
H904 H 0.8467 0.47109 0.81824 0.0
C905 C 0.87042 0.51422 0.89259 0.0
H906 H 0.8494 0.52692 0.81809 0.0
C907 C 0.86956 0.48212 0.89234 0.0
C908 C 0.86091 0.46619 0.86564 0.0
H909 H 0.87656 0.5258 0.91374 0.0
H910 H 0.8751 0.46974 0.91321 0.0
C911 C 0.85325 0.48288 0.83917 0.0
C912 C 0.13552 0.01211 0.29789 0.0
C913 C 0.12058 0.99726 0.32225 0.0
H914 H 0.14843 0.05557 0.27857 0.0
C915 C 0.10057 0.0141 0.34103 0.0
H916 H 0.15151 -0.00047 0.28358 0.0
C917 C 0.0982 0.04591 0.33775 0.0
C918 C 0.11627 0.06133 0.31597 0.0
H919 H 0.08925 0.00302 0.36021 0.0
H920 H 0.08528 0.05867 0.35474 0.0
C921 C 0.1336 0.04409 0.29494 0.0
C922 C 0.94685 0.18475 0.31161 0.0
C923 C 0.93459 0.15528 0.31607 0.0
H924 H 0.98699 0.21299 0.31146 0.0
C925 C 0.95471 0.13037 0.32013 0.0
H926 H 0.93183 0.20431 0.30812 0.0
C927 C 0.98657 0.13546 0.32226 0.0
C928 C 0.99845 0.16548 0.32042 0.0
H929 H 0.94576 0.10746 0.32391 0.0
H930 H 0.00162 0.11634 0.32738 0.0
C931 C 0.97838 0.18978 0.31374 0.0
C932 C 0.89778 0.95072 0.32236 0.0
C933 C 0.87229 0.93724 0.3079 0.0
H934 H 0.91643 0.99239 0.34107 0.0
C935 C 0.85033 0.95612 0.29365 0.0
H936 H 0.91483 0.9366 0.33374 0.0
C937 C 0.8518 0.98796 0.2971 0.0
C938 C 0.87482 0.00111 0.31542 0.0
H939 H 0.83028 0.94611 0.28272 0.0
H940 H 0.83292 0.00191 0.2888 0.0
C941 C 0.89874 0.98256 0.32655 0.0
C942 C 0.01605 0.8166 0.31632 0.0
C943 C 0.99815 0.84239 0.32326 0.0
H944 H 0.06106 0.79883 0.30839 0.0
C945 C 0.01187 0.87162 0.32309 0.0
H946 H 0.00577 0.79394 0.31608 0.0
C947 C 0.0438 0.87455 0.31886 0.0
C948 C 0.06203 0.84821 0.31465 0.0
H949 H 0.99833 0.89174 0.32855 0.0
H950 H 0.05441 0.89692 0.32137 0.0
C951 C 0.0476 0.81948 0.31188 0.0
C952 C 0.1629 0.97816 0.69273 0.0
C953 C 0.13803 0.99234 0.67804 0.0
H954 H 0.18407 0.93555 0.70509 0.0
C955 C 0.11217 0.9748 0.66999 0.0
H956 H 0.18319 0.99139 0.69855 0.0
C957 C 0.1123 0.94292 0.67423 0.0
C958 C 0.13875 0.92836 0.68569 0.0
H959 H 0.09305 0.98546 0.65814 0.0
H960 H 0.09318 0.92951 0.66556 0.0
C961 C 0.16338 0.94633 0.69634 0.0
C962 C 0.04659 0.15864 0.69667 0.0
C963 C 0.06459 0.1333 0.68804 0.0
H964 H 0.00163 0.17888 0.69656 0.0
C965 C 0.04995 0.1064 0.6778 0.0
H966 H 0.05738 0.17968 0.70449 0.0
C967 C 0.01811 0.10627 0.67276 0.0
C968 C 0.00062 0.13263 0.67883 0.0
H969 H 0.06334 0.08667 0.6707 0.0
H970 H 0.00749 0.08657 0.66188 0.0
C971 C 0.01479 0.15821 0.69227 0.0
C972 C 0.83062 0.0214 0.63864 0.0
C973 C 0.83943 0.00127 0.66217 0.0
H974 H 0.827 0.06764 0.62333 0.0
C975 C 0.85387 0.01348 0.68857 0.0
H976 H 0.82044 0.01291 0.61761 0.0
C977 C 0.85813 0.04537 0.69174 0.0
C978 C 0.84774 0.0653 0.66865 0.0
H979 H 0.86099 0.99855 0.70712 0.0
H980 H 0.86834 0.05444 0.71256 0.0
C981 C 0.83459 0.05288 0.64189 0.0
C982 C 0.97313 0.85349 0.65664 0.0
C983 C 0.00128 0.86437 0.66836 0.0
H984 H 0.92445 0.85758 0.65609 0.0
C985 C 0.00064 0.88877 0.68961 0.0
H986 H 0.97224 0.83465 0.64052 0.0
C987 C 0.97263 0.90154 0.69908 0.0
C988 C 0.94461 0.8904 0.68737 0.0
H989 H 0.02167 0.89824 0.6989 0.0
H990 H 0.973 0.92017 0.71557 0.0
C991 C 0.94535 0.86646 0.66587 0.0
C992 C 0.29975 0.11663 0.00579 0.0
C993 C 0.31876 0.14252 0.00174 0.0
H994 H 0.27762 0.08647 0.03815 0.0
C995 C 0.32772 0.15949 0.02763 0.0
H996 H 0.29257 0.10305 0.98623 0.0
C997 C 0.31951 0.14995 0.05697 0.0
C998 C 0.30196 0.12319 0.0613 0.0
H999 H 0.34165 0.17996 0.02527 0.0
H1000 H 0.32742 0.16339 0.07639 0.0
C1001 C 0.29131 0.10707 0.03543 0.0
C1002 C 0.84631 0.29792 0.0438 0.0
C1003 C 0.87006 0.31249 0.06012 0.0
H1004 H 0.82415 0.29229 0.00011 0.0
C1005 C 0.89364 0.32728 0.04384 0.0
H1006 H 0.8275 0.28707 0.05601 0.0
C1007 C 0.89138 0.33063 0.0119 0.0
C1008 C 0.86584 0.31883 0.99609 0.0
H1009 H 0.91171 0.33936 0.05602 0.0
H1010 H 0.90788 0.34492 -4e-05 0.0
C1011 C 0.84427 0.301 0.01195 0.0
C1012 C 0.67165 0.80784 0.02156 0.0
C1013 C 0.67207 0.834 0.00289 0.0
H1014 H 0.67375 0.78984 0.067 0.0
C1015 C 0.67848 0.86274 0.01621 0.0
H1016 H 0.66734 0.78542 0.0117 0.0
C1017 C 0.68185 0.8655 0.04818 0.0
C1018 C 0.67916 0.83943 0.06704 0.0
H1019 H 0.67893 0.88322 0.00212 0.0
H1020 H 0.68467 0.8881 0.05818 0.0
C1021 C 0.67542 0.81047 0.0532 0.0
C1022 C 0.10396 0.67483 0.04445 0.0
C1023 C 0.12912 0.68989 0.05794 0.0
H1024 H 0.0859 0.6551 0.00293 0.0
C1025 C 0.15137 0.70356 0.03898 0.0
H1026 H 0.08674 0.66381 0.05864 0.0
C1027 C 0.15033 0.6993 0.00721 0.0
C1028 C 0.12744 0.68079 0.99414 0.0
H1029 H 0.17115 0.71498 0.04898 0.0
H1030 H 0.1693 0.70738 0.99328 0.0
C1031 C 0.10342 0.66986 0.01268 0.0
C1032 C 0.32906 0.89305 0.98204 0.0
C1033 C 0.31978 0.86854 0.00078 0.0
H1034 H 0.33395 0.90982 0.93596 0.0
C1035 C 0.30363 0.84393 0.98774 0.0
H1036 H 0.34197 0.91197 0.99179 0.0
C1037 C 0.29984 0.8422 0.95592 0.0
C1038 C 0.31151 0.86543 0.93685 0.0
H1039 H 0.29684 0.82461 0.00186 0.0
H1040 H 0.29016 0.82149 0.94604 0.0
C1041 C 0.32445 0.89179 0.95021 0.0
C1042 C 0.10149 0.32382 0.94709 0.0
C1043 C 0.12732 0.30876 0.93506 0.0
H1044 H 0.08127 0.34364 0.98747 0.0
C1045 C 0.14854 0.29514 0.95521 0.0
H1046 H 0.08497 0.33469 0.93196 0.0
C1047 C 0.14584 0.29945 0.98687 0.0
C1048 C 0.12239 0.31813 0.99858 0.0
H1049 H 0.1688 0.28372 0.94632 0.0
H1050 H 0.16401 0.2913 0.00182 0.0
C1051 C 0.09935 0.32896 0.97873 0.0
C1052 C 0.6665 0.11252 0.98185 0.0
C1053 C 0.67443 0.13828 -0.00046 0.0
H1054 H 0.6631 0.09342 0.93647 0.0
C1055 C 0.68944 0.16305 0.98559 0.0
H1056 H 0.65446 0.09345 0.99235 0.0
C1057 C 0.69383 0.16338 0.95385 0.0
C1058 C 0.68367 0.13871 0.93569 0.0
H1059 H 0.69523 0.18324 0.99894 0.0
H1060 H 0.70298 0.18394 0.9432 0.0
C1061 C 0.67151 0.11251 0.95005 0.0
C1062 C 0.89188 0.66615 0.95299 0.0
C1063 C 0.88684 0.69607 0.94183 0.0
H1064 H 0.88505 0.63438 0.98991 0.0
C1065 C 0.87528 0.71843 0.96215 0.0
H1066 H 0.90107 0.64837 0.93832 0.0
C1067 C 0.86668 0.71033 0.99212 0.0
C1068 C 0.86911 0.67974 0.00195 0.0
H1069 H 0.87114 0.74168 0.95437 0.0
H1070 H 0.85619 0.72738 0.00687 0.0
C1071 C 0.88271 0.65802 0.98254 0.0
C1072 C 0.01728 0.31327 0.18437 0.0
C1073 C 0.99844 0.32036 0.15921 0.0
H1074 H 0.06298 0.30619 0.20088 0.0
C1075 C 0.01144 0.32125 0.12966 0.0
H1076 H 0.00767 0.312 0.20728 0.0
C1077 C 0.0434 0.31798 0.12587 0.0
C1078 C 0.06248 0.31366 0.15165 0.0
H1079 H 0.99726 0.32675 0.10995 0.0
H1080 H 0.05331 0.32123 0.10329 0.0
C1081 C 0.04889 0.30985 0.18064 0.0
C1082 C 0.01308 0.67348 0.86401 0.0
C1083 C -4e-05 0.66963 0.83467 0.0
H1084 H 0.05495 0.67778 0.8901 0.0
C1085 C 0.01875 0.67208 0.80869 0.0
H1086 H 0.99893 0.67175 0.88438 0.0
C1087 C 0.05033 0.67605 0.81189 0.0
C1088 C 0.06395 0.67727 0.84117 0.0
H1089 H 0.00907 0.66994 0.78586 0.0
H1090 H 0.06436 0.67645 0.79132 0.0
C1091 C 0.045 0.67716 0.86728 0.0
C1092 C 0.31435 0.05034 0.85436 0.0
C1093 C 0.31812 0.05462 0.88619 0.0
H1094 H 0.31604 0.01868 0.81671 0.0
C1095 C 0.32249 0.02876 0.90502 0.0
H1096 H 0.3111 0.06974 0.83913 0.0
C1097 C 0.32488 -0.00056 0.89206 0.0
C1098 C 0.3236 0.99565 0.86005 0.0
H1099 H 0.32547 0.03135 0.9296 0.0
H1100 H 0.3296 0.98 0.90684 0.0
C1101 C 0.31747 0.02119 0.84142 0.0
C1102 C 0.95183 0.30562 0.82279 0.0
C1103 C 0.93863 0.31312 0.85121 0.0
H1104 H 0.99273 0.30501 0.79557 0.0
C1105 C 0.95782 0.32047 0.87614 0.0
H1106 H 0.93741 0.29995 0.80324 0.0
C1107 C 0.98968 0.32333 0.87163 0.0
C1108 C 0.00224 0.31905 0.8422 0.0
H1109 H 0.94801 0.32685 0.8981 0.0
H1110 H 0.00405 0.33144 0.89028 0.0
C1111 C 0.98333 0.3087 0.8183 0.0
C1112 C 0.67109 0.97564 0.84718 0.0
C1113 C 0.67217 0.00264 0.86473 0.0
H1114 H 0.67696 0.9272 0.84618 0.0
C1115 C 0.68093 0.00077 0.89581 0.0
H1116 H 0.6652 0.97631 0.82303 0.0
C1117 C 0.68778 0.97228 0.90914 0.0
C1118 C 0.68591 0.94524 0.8916 0.0
H1119 H 0.68179 0.02119 0.90996 0.0
H1120 H 0.69387 0.97138 0.93325 0.0
C1121 C 0.67787 0.94738 0.86046 0.0
C1122 C 0.98121 0.68787 0.17289 0.0
C1123 C 0.99827 0.67829 0.14737 0.0
H1124 H 0.93653 0.69631 0.19141 0.0
C1125 C 0.98358 0.67527 0.11877 0.0
H1126 H 0.99222 0.69023 0.19509 0.0
C1127 C 0.95152 0.6788 0.11652 0.0
C1128 C 0.93416 0.68529 0.14295 0.0
H1129 H 0.99646 0.66756 0.09894 0.0
H1130 H 0.94015 0.67347 0.09501 0.0
C1131 C 0.94946 0.69142 0.1707 0.0
C1132 C 0.32326 0.98706 0.12593 0.0
C1133 C 0.32357 0.00147 0.15481 0.0
H1134 H 0.32105 0.94402 0.10167 0.0
C1135 C 0.31648 0.98431 0.18105 0.0
H1136 H 0.32879 4e-05 0.10546 0.0
C1137 C 0.3117 0.95279 0.17896 0.0
C1138 C 0.31431 0.93764 0.15058 0.0
H1139 H 0.31632 0.99514 0.20345 0.0
H1140 H 0.30801 0.93992 0.19995 0.0
C1141 C 0.31871 0.95516 0.12379 0.0
C1142 C 0.69995 0.03998 0.15711 0.0
C1143 C 0.6887 0.05973 0.13418 0.0
H1144 H 0.70211 0.99368 0.17378 0.0
C1145 C 0.67567 0.0471 0.10748 0.0
H1146 H 0.70995 0.04925 0.17796 0.0
C1147 C 0.67052 0.01543 0.10556 0.0
C1148 C 0.67935 0.99603 0.12974 0.0
H1149 H 0.66659 0.06185 0.08961 0.0
H1150 H 0.65758 0.00631 0.08634 0.0
C1151 C 0.69561 0.00828 0.15471 0.0
C1152 C 0.17108 0.23858 0.2689 0.0
C1153 C 0.14461 0.22045 0.26507 0.0
H1154 H 0.19988 0.27381 0.25069 0.0
C1155 C 0.12755 0.22298 0.23789 0.0
H1156 H 0.18499 0.23666 0.28949 0.0
C1157 C 0.13585 0.24483 0.21573 0.0
C1158 C 0.16158 0.26414 0.22031 0.0
H1159 H 0.107 0.20931 0.23452 0.0
H1160 H 0.12127 0.24744 0.19575 0.0
C1161 C 0.17956 0.26001 0.24675 0.0
C1162 C 0.75764 0.11983 0.21362 0.0
C1163 C 0.73852 0.14438 0.22284 0.0
H1164 H 0.79334 0.08806 0.22675 0.0
C1165 C 0.74304 0.15727 0.25205 0.0
H1166 H 0.75466 0.10912 0.19139 0.0
C1167 C 0.7647 0.14493 0.27217 0.0
C1168 C 0.78278 0.11967 0.2635 0.0
H1169 H 0.72931 0.17652 0.2597 0.0
H1170 H 0.76683 0.15475 0.29495 0.0
C1171 C 0.77973 0.10764 0.23381 0.0
C1172 C 0.86151 0.77968 0.24246 0.0
C1173 C 0.87194 0.77095 0.27172 0.0
H1174 H 0.84287 0.76458 0.19932 0.0
C1175 C 0.87355 0.73955 0.27904 0.0
H1176 H 0.8597 0.80372 0.23632 0.0
C1177 C 0.86366 0.71737 0.25821 0.0
C1178 C 0.85208 0.72598 0.22943 0.0
H1179 H 0.88174 0.73203 0.30132 0.0
H1180 H 0.86501 0.69341 0.26468 0.0
C1181 C 0.8517 0.75732 0.22142 0.0
C1182 C 0.23017 0.85343 0.21706 0.0
C1183 C 0.26181 0.85504 0.22359 0.0
H1184 H 0.18442 0.86456 0.23207 0.0
C1185 C 0.27178 0.87228 0.24886 0.0
H1186 H 0.22209 0.84053 0.19737 0.0
C1187 C 0.25059 0.88672 0.26801 0.0
C1188 C 0.21877 0.8838 0.26274 0.0
H1189 H 0.29609 0.87459 0.25379 0.0
H1190 H 0.25925 0.89926 0.2877 0.0
C1191 C 0.20873 0.86746 0.23668 0.0
C1192 C 0.13251 0.77773 0.75511 0.0
C1193 C 0.11908 0.76706 0.7277 0.0
H1194 H 0.15687 0.76568 0.79641 0.0
C1195 C 0.11873 0.73528 0.72186 0.0
H1196 H 0.1334 0.80207 0.76017 0.0
C1197 C 0.13276 0.71478 0.74206 0.0
C1198 C 0.14709 0.72545 0.76886 0.0
H1199 H 0.10845 0.72618 0.70108 0.0
H1200 H 0.13229 0.69049 0.73679 0.0
C1201 C 0.14621 0.75702 0.77564 0.0
C1202 C 0.2174 0.11736 0.7587 0.0
C1203 C 0.22654 0.1038 0.73083 0.0
H1204 H 0.23212 0.13868 0.80081 0.0
C1205 C 0.25807 0.09888 0.72556 0.0
H1206 H 0.19333 0.12168 0.76337 0.0
C1207 C 0.28005 0.10907 0.74657 0.0
C1208 C 0.2711 0.12402 0.77362 0.0
H1209 H 0.26596 0.08827 0.70448 0.0
H1210 H 0.30418 0.10575 0.74142 0.0
C1211 C 0.23955 0.12722 0.78003 0.0
C1212 C 0.88294 0.27318 0.74788 0.0
C1213 C 0.86371 0.26459 0.77218 0.0
H1214 H 0.91036 0.25863 0.71004 0.0
C1215 C 0.85923 0.23319 0.77829 0.0
H1216 H 0.88743 0.2972 0.74328 0.0
C1217 C 0.8722 0.21077 0.75903 0.0
C1218 C 0.89033 0.21953 0.73372 0.0
H1219 H 0.8447 0.22611 0.7972 0.0
H1220 H 0.86694 0.18682 0.76313 0.0
C1221 C 0.89633 0.25097 0.72911 0.0
C1222 C 0.72542 0.87035 0.7424 0.0
C1223 C 0.73211 0.8716 0.77389 0.0
H1224 H 0.7427 0.86963 0.69668 0.0
C1225 C 0.76309 0.87365 0.78325 0.0
H1226 H 0.70193 0.86839 0.7344 0.0
C1227 C 0.78683 0.87448 0.76138 0.0
C1228 C 0.77988 0.87282 0.7299 0.0
H1229 H 0.76893 0.87491 0.80739 0.0
H1230 H 0.81049 0.87591 0.76906 0.0
C1231 C 0.74893 0.87085 0.72075 0.0
C1232 C 0.25414 0.11234 0.27729 0.0
C1233 C 0.22585 0.12662 0.27158 0.0
H1234 H 0.29707 0.09747 0.2589 0.0
C1235 C 0.21779 0.13389 0.24105 0.0
H1236 H 0.26065 0.10584 0.3004 0.0
C1237 C 0.23866 0.12887 0.21702 0.0
C1238 C 0.2678 0.11657 0.22332 0.0
H1239 H 0.19614 0.14504 0.23596 0.0
H1240 H 0.23279 0.13641 0.19403 0.0
C1241 C 0.27485 0.10736 0.25345 0.0
C1242 C 0.83378 0.27473 0.24208 0.0
C1243 C 0.85852 0.26897 0.22218 0.0
H1244 H 0.80546 0.25829 0.2784 0.0
C1245 C 0.87348 0.24056 0.22345 0.0
H1246 H 0.82147 0.29634 0.24118 0.0
C1247 C 0.86467 0.2188 0.24546 0.0
C1248 C 0.84036 0.22494 0.26611 0.0
H1249 H 0.89269 0.23572 0.20839 0.0
H1250 H 0.87765 0.19768 0.24678 0.0
C1251 C 0.82466 0.25294 0.26358 0.0
C1252 C 0.72962 0.90064 0.2508 0.0
C1253 C 0.73337 0.89092 0.22021 0.0
H1254 H 0.74473 0.89687 0.29743 0.0
C1255 C 0.75831 0.87163 0.21302 0.0
H1256 H 0.71085 0.91568 0.25718 0.0
C1257 C 0.77792 0.86092 0.23637 0.0
C1258 C 0.77258 0.86903 0.26719 0.0
H1259 H 0.76173 0.86354 0.18974 0.0
H1260 H 0.7963 0.84519 0.23058 0.0
C1261 C 0.74881 0.88964 0.27399 0.0
C1262 C 0.13451 0.76006 0.21209 0.0
C1263 C 0.12223 0.73188 0.22198 0.0
H1264 H 0.15668 0.80216 0.22556 0.0
C1265 C 0.12131 0.72548 0.25364 0.0
H1266 H 0.13582 0.76548 0.18785 0.0
C1267 C 0.13382 0.7459 0.27485 0.0
C1268 C 0.14717 0.77345 0.26502 0.0
H1269 H 0.11179 0.7041 0.26209 0.0
H1270 H 0.13307 0.74014 0.29903 0.0
C1271 C 0.14671 0.78082 0.23355 0.0
C1272 C 0.23902 0.85681 0.78164 0.0
C1273 C 0.26653 0.87096 0.77235 0.0
H1274 H 0.19795 0.83333 0.76705 0.0
C1275 C 0.27247 0.87448 0.74083 0.0
H1276 H 0.23402 0.85351 0.80579 0.0
C1277 C 0.25242 0.8625 0.719 0.0
C1278 C 0.22573 0.84696 0.7281 0.0
H1279 H 0.29334 0.88556 0.73293 0.0
H1280 H 0.2579 0.8652 0.6949 0.0
C1281 C 0.21863 0.845 0.75957 0.0
C1282 C 0.12387 0.2353 0.77372 0.0
C1283 C 0.13849 0.26396 0.77432 0.0
H1284 H 0.12052 0.19163 0.75126 0.0
C1285 C 0.16365 0.26931 0.75487 0.0
H1286 H 0.10447 0.23071 0.78862 0.0
C1287 C 0.17321 0.24706 0.7341 0.0
C1288 C 0.15757 0.21899 0.73187 0.0
H1289 H 0.17584 0.29103 0.75542 0.0
H1290 H 0.19255 0.25216 0.71935 0.0
C1291 C 0.1332 0.21298 0.75243 0.0
C1292 C 0.76171 0.11466 0.77164 0.0
C1293 C 0.73516 0.13145 0.77836 0.0
H1294 H 0.8026 0.11211 0.74455 0.0
C1295 C 0.73091 0.16051 0.76508 0.0
H1296 H 0.76515 0.09206 0.78144 0.0
C1297 C 0.75224 0.17218 0.74426 0.0
C1298 C 0.77815 0.15488 0.73607 0.0
H1299 H 0.71052 0.17387 0.77018 0.0
H1300 H 0.74808 0.19446 0.73409 0.0
C1301 C 0.78306 0.12625 0.75053 0.0
C1302 C 0.87846 0.76243 0.78913 0.0
C1303 C 0.88089 0.73102 0.78237 0.0
H1304 H 0.87564 0.80817 0.77094 0.0
C1305 C 0.88408 0.72183 0.75162 0.0
H1306 H 0.87586 0.77009 0.81267 0.0
C1307 C 0.88371 0.74324 0.72797 0.0
C1308 C 0.88017 0.77465 0.73424 0.0
H1309 H 0.88624 0.69778 0.74562 0.0
H1310 H 0.88515 0.73484 0.70464 0.0
C1311 C 0.87798 0.78412 0.7652 0.0
C1312 C 0.23436 0.22021 0.1305 0.0
C1313 C 0.26545 0.22638 0.12394 0.0
H1314 H 0.18758 0.23595 0.12719 0.0
C1315 C 0.27265 0.25159 0.10527 0.0
H1316 H 0.22822 0.20083 0.14481 0.0
C1317 C 0.24956 0.27119 0.0947 0.0
C1318 C 0.21861 0.26644 0.10292 0.0
H1319 H 0.29631 0.25647 0.0993 0.0
H1320 H 0.25624 0.29098 0.08119 0.0
C1321 C 0.21111 0.2402 0.12025 0.0
C1322 C 0.21295 0.75657 0.86732 0.0
C1323 C 0.2206 0.73069 0.88508 0.0
H1324 H 0.22994 0.79557 0.84216 0.0
C1325 C 0.25159 0.72587 0.89307 0.0
H1326 H 0.18935 0.76077 0.86051 0.0
C1327 C 0.27461 0.74517 0.882 0.0
C1328 C 0.26723 0.77011 0.8631 0.0
H1329 H 0.25833 0.70631 0.9069 0.0
H1330 H 0.29831 0.74042 0.88798 0.0
C1331 C 0.23613 0.77628 0.85659 0.0
C1332 C 0.24121 0.21134 0.86766 0.0
C1333 C 0.26815 0.21854 0.88396 0.0
H1334 H 0.20136 0.22911 0.84447 0.0
C1335 C 0.27383 0.24921 0.89228 0.0
H1336 H 0.23647 0.18794 0.86067 0.0
C1337 C 0.25427 0.27255 0.88263 0.0
C1338 C 0.2284 0.26574 0.86471 0.0
H1339 H 0.29428 0.25541 0.90511 0.0
H1340 H 0.25968 0.29605 0.88868 0.0
C1341 C 0.22135 0.23486 0.85818 0.0
C1342 C 0.72338 0.25356 0.87382 0.0
C1343 C 0.7313 0.2274 0.85694 0.0
H1344 H 0.73915 0.29327 0.89771 0.0
C1345 C 0.76255 0.22 0.85301 0.0
H1346 H 0.69949 0.25924 0.87787 0.0
C1347 C 0.78553 0.23958 0.86434 0.0
C1348 C 0.77744 0.26656 0.88007 0.0
H1349 H 0.7691 0.19972 0.84019 0.0
H1350 H 0.8094 0.23437 0.85952 0.0
C1351 C 0.74617 0.27278 0.88547 0.0
C1352 C 0.74399 0.77045 0.90718 0.0
C1353 C 0.73728 0.78704 0.88047 0.0
H1354 H 0.76898 0.73314 0.92702 0.0
C1355 C 0.75199 0.77946 0.85289 0.0
H1356 H 0.7322 0.77559 0.92849 0.0
C1357 C 0.77255 0.75488 0.85177 0.0
C1358 C 0.77844 0.73722 0.87819 0.0
H1359 H 0.74636 0.79155 0.83186 0.0
H1360 H 0.78268 0.74885 0.8299 0.0
C1361 C 0.76452 0.7458 0.90611 0.0
C1362 C 0.71975 0.74456 0.14187 0.0
C1363 C 0.73018 0.77202 0.15499 0.0
H1364 H 0.7313 0.70338 0.11815 0.0
C1365 C 0.76164 0.77942 0.15309 0.0
H1366 H 0.69554 0.73874 0.14222 0.0
C1367 C 0.78245 0.75904 0.13927 0.0
C1368 C 0.77195 0.7312 0.12667 0.0
H1369 H 0.77011 0.8007 0.16283 0.0
H1370 H 0.80671 0.7647 0.13915 0.0
C1371 C 0.74029 0.72454 0.1277 0.0
C1372 C 0.24881 0.72666 0.11215 0.0
C1373 C 0.22411 0.73417 0.13136 0.0
H1374 H 0.2875 0.74266 0.08674 0.0
C1375 C 0.21797 0.76528 0.13755 0.0
H1376 H 0.2535 0.70294 0.10635 0.0
C1377 C 0.23761 0.78832 0.12638 0.0
C1378 C 0.26339 0.78051 0.10849 0.0
H1379 H 0.19884 0.77159 0.15215 0.0
H1380 H 0.23351 0.81193 0.13303 0.0
C1381 C 0.26804 0.74952 0.10066 0.0
C1382 C 0.75724 0.21634 0.12429 0.0
C1383 C 0.72939 0.22364 0.10957 0.0
H1384 H 0.79823 0.23376 0.14571 0.0
C1385 C 0.72316 0.25451 0.10244 0.0
H1386 H 0.76254 0.19281 0.13036 0.0
C1387 C 0.7432 0.27777 0.11157 0.0
C1388 C 0.77015 0.27078 0.1278 0.0
H1389 H 0.70203 0.26092 0.09089 0.0
H1390 H 0.73733 0.30137 0.10641 0.0
C1391 C 0.77754 0.23977 0.13324 0.0
loop_
_geom_bond_atom_site_label_1
_geom_bond_atom_site_label_2
_geom_bond_distance
_geom_bond_site_symmetry_2
_ccdc_geom_bond_type
C0 C1 1.351 . S
C0 N3 1.368 . S
C0 H5 0.931 . S
C1 C0 1.351 . S
C1 N2 1.373 . S
C1 H29 0.930 . S
N2 C1 1.373 . S
N2 C4 1.340 . S
N3 C0 1.368 . S
N3 C4 1.321 . S
N3 Co6 2.135 . S
C4 N2 1.340 . S
C4 N3 1.321 . S
C4 H28 0.930 . S
H5 C0 0.931 . S
Co6 N3 2.135 . S
Co6 N9 2.121 . S
Co6 O14 2.055 . S
Co6 O17 2.039 . S
Co6 N20 2.140 . S
C7 O8 1.227 . S
C7 O17 1.265 . S
O8 C7 1.227 . S
N9 Co6 2.121 . S
N9 C11 1.375 . S
N9 C12 1.313 . S
C10 C11 1.338 . S
C10 N13 1.377 . S
C10 H30 0.930 . S
C11 N9 1.375 . S
C11 C10 1.338 . S
C11 H15 0.931 . S
C12 N9 1.313 . S
C12 N13 1.344 . S
C12 H16 0.930 . S
N13 C10 1.377 . S
N13 C12 1.344 . S
O14 Co6 2.055 . S
O14 C18 1.253 . S
H15 C11 0.931 . S
H16 C12 0.930 . S
O17 Co6 2.039 . S
O17 C7 1.265 . S
C18 O14 1.253 . S
C18 O19 1.227 . S
O19 C18 1.227 . S
N20 Co6 2.140 . S
N20 C23 1.346 . S
N20 C24 1.345 . S
C21 C22 1.387 . S
C21 C25 1.391 . S
C22 C21 1.387 . S
C22 C23 1.369 . S
C22 H31 0.929 . S
C23 N20 1.346 . S
C23 C22 1.369 . S
C23 H26 0.928 . S
C24 N20 1.345 . S
C24 C25 1.371 . S
C24 H27 0.931 . S
C25 C21 1.391 . S
C25 C24 1.371 . S
C25 H32 0.930 . S
H26 C23 0.928 . S
H27 C24 0.931 . S
H28 C4 0.930 . S
H29 C1 0.930 . S
H30 C10 0.930 . S
H31 C22 0.929 . S
H32 C25 0.930 . S
C33 C34 1.351 . S
C33 N36 1.368 . S
C33 H38 0.931 . S
C34 C33 1.351 . S
C34 N35 1.373 . S
C34 H62 0.930 . S
N35 C34 1.373 . S
N35 C37 1.340 . S
N36 C33 1.368 . S
N36 C37 1.321 . S
N36 Co39 2.135 . S
C37 N35 1.340 . S
C37 N36 1.321 . S
C37 H61 0.930 . S
H38 C33 0.931 . S
Co39 N36 2.135 . S
Co39 N42 2.121 . S
Co39 O47 2.055 . S
Co39 O50 2.039 . S
Co39 N53 2.140 . S
C40 O41 1.227 . S
C40 O50 1.265 . S
O41 C40 1.227 . S
N42 Co39 2.121 . S
N42 C44 1.375 . S
N42 C45 1.313 . S
C43 C44 1.338 . S
C43 N46 1.377 . S
C43 H63 0.930 . S
C44 N42 1.375 . S
C44 C43 1.338 . S
C44 H48 0.931 . S
C45 N42 1.313 . S
C45 N46 1.344 . S
C45 H49 0.930 . S
N46 C43 1.377 . S
N46 C45 1.344 . S
O47 Co39 2.055 . S
O47 C51 1.253 . S
H48 C44 0.931 . S
H49 C45 0.930 . S
O50 Co39 2.039 . S
O50 C40 1.265 . S
C51 O47 1.253 . S
C51 O52 1.227 . S
O52 C51 1.227 . S
N53 Co39 2.140 . S
N53 C56 1.346 . S
N53 C57 1.345 . S
C54 C55 1.387 . S
C54 C58 1.391 . S
C55 C54 1.387 . S
C55 C56 1.369 . S
C55 H64 0.929 . S
C56 N53 1.346 . S
C56 C55 1.369 . S
C56 H59 0.928 . S
C57 N53 1.345 . S
C57 C58 1.371 . S
C57 H60 0.931 . S
C58 C54 1.391 . S
C58 C57 1.371 . S
C58 H65 0.930 . S
H59 C56 0.928 . S
H60 C57 0.931 . S
H61 C37 0.930 . S
H62 C34 0.930 . S
H63 C43 0.930 . S
H64 C55 0.929 . S
H65 C58 0.930 . S
C66 C67 1.351 . S
C66 N69 1.368 . S
C66 H71 0.931 . S
C67 C66 1.351 . S
C67 N68 1.373 . S
C67 H95 0.930 . S
N68 C67 1.373 . S
N68 C70 1.340 . S
N69 C66 1.368 . S
N69 C70 1.321 . S
N69 Co72 2.135 . S
C70 N68 1.340 . S
C70 N69 1.321 . S
C70 H94 0.930 . S
H71 C66 0.931 . S
Co72 N69 2.135 . S
Co72 N75 2.121 . S
Co72 O80 2.055 . S
Co72 O83 2.039 . S
Co72 N86 2.140 . S
C73 O74 1.227 . S
C73 O83 1.265 . S
O74 C73 1.227 . S
N75 Co72 2.121 . S
N75 C77 1.375 . S
N75 C78 1.313 . S
C76 C77 1.338 . S
C76 N79 1.377 . S
C76 H96 0.930 . S
C77 N75 1.375 . S
C77 C76 1.338 . S
C77 H81 0.931 . S
C78 N75 1.313 . S
C78 N79 1.344 . S
C78 H82 0.930 . S
N79 C76 1.377 . S
N79 C78 1.344 . S
O80 Co72 2.055 . S
O80 C84 1.253 . S
H81 C77 0.931 . S
H82 C78 0.930 . S
O83 Co72 2.039 . S
O83 C73 1.265 . S
C84 O80 1.253 . S
C84 O85 1.227 . S
O85 C84 1.227 . S
N86 Co72 2.140 . S
N86 C89 1.346 . S
N86 C90 1.345 . S
C87 C88 1.387 . S
C87 C91 1.391 . S
C88 C87 1.387 . S
C88 C89 1.369 . S
C88 H97 0.929 . S
C89 N86 1.346 . S
C89 C88 1.369 . S
C89 H92 0.928 . S
C90 N86 1.345 . S
C90 C91 1.371 . S
C90 H93 0.931 . S
C91 C87 1.391 . S
C91 C90 1.371 . S
C91 H98 0.930 . S
H92 C89 0.928 . S
H93 C90 0.931 . S
H94 C70 0.930 . S
H95 C67 0.930 . S
H96 C76 0.930 . S
H97 C88 0.929 . S
H98 C91 0.930 . S
C99 C100 1.351 . S
C99 N102 1.368 . S
C99 H104 0.931 . S
C100 C99 1.351 . S
C100 N101 1.373 . S
C100 H128 0.930 . S
N101 C100 1.373 . S
N101 C103 1.340 . S
N102 C99 1.368 . S
N102 C103 1.321 . S
N102 Co105 2.135 . S
C103 N101 1.340 . S
C103 N102 1.321 . S
C103 H127 0.930 . S
H104 C99 0.931 . S
Co105 N102 2.135 . S
Co105 N108 2.121 . S
Co105 O113 2.055 . S
Co105 O116 2.039 . S
Co105 N119 2.140 . S
C106 O107 1.227 . S
C106 O116 1.265 . S
O107 C106 1.227 . S
N108 Co105 2.121 . S
N108 C110 1.375 . S
N108 C111 1.313 . S
C109 C110 1.338 . S
C109 N112 1.377 . S
C109 H129 0.930 . S
C110 N108 1.375 . S
C110 C109 1.338 . S
C110 H114 0.931 . S
C111 N108 1.313 . S
C111 N112 1.344 . S
C111 H115 0.930 . S
N112 C109 1.377 . S
N112 C111 1.344 . S
O113 Co105 2.055 . S
O113 C117 1.253 . S
H114 C110 0.931 . S
H115 C111 0.930 . S
O116 Co105 2.039 . S
O116 C106 1.265 . S
C117 O113 1.253 . S
C117 O118 1.227 . S
O118 C117 1.227 . S
N119 Co105 2.140 . S
N119 C122 1.346 . S
N119 C123 1.345 . S
C120 C121 1.387 . S
C120 C124 1.391 . S
C121 C120 1.387 . S
C121 C122 1.369 . S
C121 H130 0.929 . S
C122 N119 1.346 . S
C122 C121 1.369 . S
C122 H125 0.928 . S
C123 N119 1.345 . S
C123 C124 1.371 . S
C123 H126 0.931 . S
C124 C120 1.391 . S
C124 C123 1.371 . S
C124 H131 0.930 . S
H125 C122 0.928 . S
H126 C123 0.931 . S
H127 C103 0.930 . S
H128 C100 0.930 . S
H129 C109 0.930 . S
H130 C121 0.929 . S
H131 C124 0.930 . S
C132 C133 1.351 . S
C132 N135 1.368 . S
C132 H137 0.931 . S
C133 C132 1.351 . S
C133 N134 1.373 . S
C133 H161 0.930 . S
N134 C133 1.373 . S
N134 C136 1.340 . S
N135 C132 1.368 . S
N135 C136 1.321 . S
N135 Co138 2.135 . S
C136 N134 1.340 . S
C136 N135 1.321 . S
C136 H160 0.930 . S
H137 C132 0.931 . S
Co138 N135 2.135 . S
Co138 N141 2.121 . S
Co138 O146 2.055 . S
Co138 O149 2.039 . S
Co138 N152 2.140 . S
C139 O140 1.227 . S
C139 O149 1.265 . S
O140 C139 1.227 . S
N141 Co138 2.121 . S
N141 C143 1.375 . S
N141 C144 1.313 . S
C142 C143 1.338 . S
C142 N145 1.377 . S
C142 H162 0.930 . S
C143 N141 1.375 . S
C143 C142 1.338 . S
C143 H147 0.931 . S
C144 N141 1.313 . S
C144 N145 1.344 . S
C144 H148 0.930 . S
N145 C142 1.377 . S
N145 C144 1.344 . S
O146 Co138 2.055 . S
O146 C150 1.253 . S
H147 C143 0.931 . S
H148 C144 0.930 . S
O149 Co138 2.039 . S
O149 C139 1.265 . S
C150 O146 1.253 . S
C150 O151 1.227 . S
O151 C150 1.227 . S
N152 Co138 2.140 . S
N152 C155 1.346 . S
N152 C156 1.345 . S
C153 C154 1.387 . S
C153 C157 1.391 . S
C154 C153 1.387 . S
C154 C155 1.369 . S
C154 H163 0.929 . S
C155 N152 1.346 . S
C155 C154 1.369 . S
C155 H158 0.928 . S
C156 N152 1.345 . S
C156 C157 1.371 . S
C156 H159 0.931 . S
C157 C153 1.391 . S
C157 C156 1.371 . S
C157 H164 0.930 . S
H158 C155 0.928 . S
H159 C156 0.931 . S
H160 C136 0.930 . S
H161 C133 0.930 . S
H162 C142 0.930 . S
H163 C154 0.929 . S
H164 C157 0.930 . S
C165 C166 1.351 . S
C165 N168 1.368 . S
C165 H170 0.931 . S
C166 C165 1.351 . S
C166 N167 1.373 . S
C166 H194 0.930 . S
N167 C166 1.373 . S
N167 C169 1.340 . S
N168 C165 1.368 . S
N168 C169 1.321 . S
N168 Co171 2.135 . S
C169 N167 1.340 . S
C169 N168 1.321 . S
C169 H193 0.930 . S
H170 C165 0.931 . S
Co171 N168 2.135 . S
Co171 N174 2.121 . S
Co171 O179 2.055 . S
Co171 O182 2.039 . S
Co171 N185 2.140 . S
C172 O173 1.227 . S
C172 O182 1.265 . S
O173 C172 1.227 . S
N174 Co171 2.121 . S
N174 C176 1.375 . S
N174 C177 1.313 . S
C175 C176 1.338 . S
C175 N178 1.377 . S
C175 H195 0.930 . S
C176 N174 1.375 . S
C176 C175 1.338 . S
C176 H180 0.931 . S
C177 N174 1.313 . S
C177 N178 1.344 . S
C177 H181 0.930 . S
N178 C175 1.377 . S
N178 C177 1.344 . S
O179 Co171 2.055 . S
O179 C183 1.253 . S
H180 C176 0.931 . S
H181 C177 0.930 . S
O182 Co171 2.039 . S
O182 C172 1.265 . S
C183 O179 1.253 . S
C183 O184 1.227 . S
O184 C183 1.227 . S
N185 Co171 2.140 . S
N185 C188 1.346 . S
N185 C189 1.345 . S
C186 C187 1.387 . S
C186 C190 1.391 . S
C187 C186 1.387 . S
C187 C188 1.369 . S
C187 H196 0.929 . S
C188 N185 1.346 . S
C188 C187 1.369 . S
C188 H191 0.928 . S
C189 N185 1.345 . S
C189 C190 1.371 . S
C189 H192 0.931 . S
C190 C186 1.391 . S
C190 C189 1.371 . S
C190 H197 0.930 . S
H191 C188 0.928 . S
H192 C189 0.931 . S
H193 C169 0.930 . S
H194 C166 0.930 . S
H195 C175 0.930 . S
H196 C187 0.929 . S
H197 C190 0.930 . S
C198 C199 1.351 . S
C198 N201 1.368 . S
C198 H203 0.931 . S
C199 C198 1.351 . S
C199 N200 1.373 . S
C199 H227 0.930 . S
N200 C199 1.373 . S
N200 C202 1.340 . S
N201 C198 1.368 . S
N201 C202 1.321 . S
N201 Co204 2.135 . S
C202 N200 1.340 . S
C202 N201 1.321 . S
C202 H226 0.930 . S
H203 C198 0.931 . S
Co204 N201 2.135 . S
Co204 N207 2.121 . S
Co204 O212 2.055 . S
Co204 O215 2.039 . S
Co204 N218 2.140 . S
C205 O206 1.227 . S
C205 O215 1.265 . S
O206 C205 1.227 . S
N207 Co204 2.121 . S
N207 C209 1.375 . S
N207 C210 1.313 . S
C208 C209 1.338 . S
C208 N211 1.377 . S
C208 H228 0.930 . S
C209 N207 1.375 . S
C209 C208 1.338 . S
C209 H213 0.931 . S
C210 N207 1.313 . S
C210 N211 1.344 . S
C210 H214 0.930 . S
N211 C208 1.377 . S
N211 C210 1.344 . S
O212 Co204 2.055 . S
O212 C216 1.253 . S
H213 C209 0.931 . S
H214 C210 0.930 . S
O215 Co204 2.039 . S
O215 C205 1.265 . S
C216 O212 1.253 . S
C216 O217 1.227 . S
O217 C216 1.227 . S
N218 Co204 2.140 . S
N218 C221 1.346 . S
N218 C222 1.345 . S
C219 C220 1.387 . S
C219 C223 1.391 . S
C220 C219 1.387 . S
C220 C221 1.369 . S
C220 H229 0.929 . S
C221 N218 1.346 . S
C221 C220 1.369 . S
C221 H224 0.928 . S
C222 N218 1.345 . S
C222 C223 1.371 . S
C222 H225 0.931 . S
C223 C219 1.391 . S
C223 C222 1.371 . S
C223 H230 0.930 . S
H224 C221 0.928 . S
H225 C222 0.931 . S
H226 C202 0.930 . S
H227 C199 0.930 . S
H228 C208 0.930 . S
H229 C220 0.929 . S
H230 C223 0.930 . S
C231 C232 1.351 . S
C231 N234 1.368 . S
C231 H236 0.931 . S
C232 C231 1.351 . S
C232 N233 1.373 . S
C232 H260 0.930 . S
N233 C232 1.373 . S
N233 C235 1.340 . S
N234 C231 1.368 . S
N234 C235 1.321 . S
N234 Co237 2.135 . S
C235 N233 1.340 . S
C235 N234 1.321 . S
C235 H259 0.930 . S
H236 C231 0.931 . S
Co237 N234 2.135 . S
Co237 N240 2.121 . S
Co237 O245 2.055 . S
Co237 O248 2.039 . S
Co237 N251 2.140 . S
C238 O239 1.227 . S
C238 O248 1.265 . S
O239 C238 1.227 . S
N240 Co237 2.121 . S
N240 C242 1.375 . S
N240 C243 1.313 . S
C241 C242 1.338 . S
C241 N244 1.377 . S
C241 H261 0.930 . S
C242 N240 1.375 . S
C242 C241 1.338 . S
C242 H246 0.931 . S
C243 N240 1.313 . S
C243 N244 1.344 . S
C243 H247 0.930 . S
N244 C241 1.377 . S
N244 C243 1.344 . S
O245 Co237 2.055 . S
O245 C249 1.253 . S
H246 C242 0.931 . S
H247 C243 0.930 . S
O248 Co237 2.039 . S
O248 C238 1.265 . S
C249 O245 1.253 . S
C249 O250 1.227 . S
O250 C249 1.227 . S
N251 Co237 2.140 . S
N251 C254 1.346 . S
N251 C255 1.345 . S
C252 C253 1.387 . S
C252 C256 1.391 . S
C253 C252 1.387 . S
C253 C254 1.369 . S
C253 H262 0.929 . S
C254 N251 1.346 . S
C254 C253 1.369 . S
C254 H257 0.928 . S
C255 N251 1.345 . S
C255 C256 1.371 . S
C255 H258 0.931 . S
C256 C252 1.391 . S
C256 C255 1.371 . S
C256 H263 0.930 . S
H257 C254 0.928 . S
H258 C255 0.931 . S
H259 C235 0.930 . S
H260 C232 0.930 . S
H261 C241 0.930 . S
H262 C253 0.929 . S
H263 C256 0.930 . S
C264 C265 1.351 . S
C264 N267 1.368 . S
C264 H269 0.931 . S
C265 C264 1.351 . S
C265 N266 1.373 . S
C265 H293 0.930 . S
N266 C265 1.373 . S
N266 C268 1.340 . S
N267 C264 1.368 . S
N267 C268 1.321 . S
N267 Co270 2.135 . S
C268 N266 1.340 . S
C268 N267 1.321 . S
C268 H292 0.930 . S
H269 C264 0.931 . S
Co270 N267 2.135 . S
Co270 N273 2.121 . S
Co270 O278 2.055 . S
Co270 O281 2.039 . S
Co270 N284 2.140 . S
C271 O272 1.227 . S
C271 O281 1.265 . S
O272 C271 1.227 . S
N273 Co270 2.121 . S
N273 C275 1.375 . S
N273 C276 1.313 . S
C274 C275 1.338 . S
C274 N277 1.377 . S
C274 H294 0.930 . S
C275 N273 1.375 . S
C275 C274 1.338 . S
C275 H279 0.931 . S
C276 N273 1.313 . S
C276 N277 1.344 . S
C276 H280 0.930 . S
N277 C274 1.377 . S
N277 C276 1.344 . S
O278 Co270 2.055 . S
O278 C282 1.253 . S
H279 C275 0.931 . S
H280 C276 0.930 . S
O281 Co270 2.039 . S
O281 C271 1.265 . S
C282 O278 1.253 . S
C282 O283 1.227 . S
O283 C282 1.227 . S
N284 Co270 2.140 . S
N284 C287 1.346 . S
N284 C288 1.345 . S
C285 C286 1.387 . S
C285 C289 1.391 . S
C286 C285 1.387 . S
C286 C287 1.369 . S
C286 H295 0.929 . S
C287 N284 1.346 . S
C287 C286 1.369 . S
C287 H290 0.928 . S
C288 N284 1.345 . S
C288 C289 1.371 . S
C288 H291 0.931 . S
C289 C285 1.391 . S
C289 C288 1.371 . S
C289 H296 0.930 . S
H290 C287 0.928 . S
H291 C288 0.931 . S
H292 C268 0.930 . S
H293 C265 0.930 . S
H294 C274 0.930 . S
H295 C286 0.929 . S
H296 C289 0.930 . S
C297 C298 1.351 . S
C297 N300 1.368 . S
C297 H302 0.931 . S
C298 C297 1.351 . S
C298 N299 1.373 . S
C298 H326 0.930 . S
N299 C298 1.373 . S
N299 C301 1.340 . S
N300 C297 1.368 . S
N300 C301 1.321 . S
N300 Co303 2.135 . S
C301 N299 1.340 . S
C301 N300 1.321 . S
C301 H325 0.930 . S
H302 C297 0.931 . S
Co303 N300 2.135 . S
Co303 N306 2.121 . S
Co303 O311 2.055 . S
Co303 O314 2.039 . S
Co303 N317 2.140 . S
C304 O305 1.227 . S
C304 O314 1.265 . S
O305 C304 1.227 . S
N306 Co303 2.121 . S
N306 C308 1.375 . S
N306 C309 1.313 . S
C307 C308 1.338 . S
C307 N310 1.377 . S
C307 H327 0.930 . S
C308 N306 1.375 . S
C308 C307 1.338 . S
C308 H312 0.931 . S
C309 N306 1.313 . S
C309 N310 1.344 . S
C309 H313 0.930 . S
N310 C307 1.377 . S
N310 C309 1.344 . S
O311 Co303 2.055 . S
O311 C315 1.253 . S
H312 C308 0.931 . S
H313 C309 0.930 . S
O314 Co303 2.039 . S
O314 C304 1.265 . S
C315 O311 1.253 . S
C315 O316 1.227 . S
O316 C315 1.227 . S
N317 Co303 2.140 . S
N317 C320 1.346 . S
N317 C321 1.345 . S
C318 C319 1.387 . S
C318 C322 1.391 . S
C319 C318 1.387 . S
C319 C320 1.369 . S
C319 H328 0.929 . S
C320 N317 1.346 . S
C320 C319 1.369 . S
C320 H323 0.928 . S
C321 N317 1.345 . S
C321 C322 1.371 . S
C321 H324 0.931 . S
C322 C318 1.391 . S
C322 C321 1.371 . S
C322 H329 0.930 . S
H323 C320 0.928 . S
H324 C321 0.931 . S
H325 C301 0.930 . S
H326 C298 0.930 . S
H327 C307 0.930 . S
H328 C319 0.929 . S
H329 C322 0.930 . S
C330 C331 1.351 . S
C330 N333 1.368 . S
C330 H335 0.931 . S
C331 C330 1.351 . S
C331 N332 1.373 . S
C331 H359 0.930 . S
N332 C331 1.373 . S
N332 C334 1.340 . S
N333 C330 1.368 . S
N333 C334 1.321 . S
N333 Co336 2.135 . S
C334 N332 1.340 . S
C334 N333 1.321 . S
C334 H358 0.930 . S
H335 C330 0.931 . S
Co336 N333 2.135 . S
Co336 N339 2.121 . S
Co336 O344 2.055 . S
Co336 O347 2.039 . S
Co336 N350 2.140 . S
C337 O338 1.227 . S
C337 O347 1.265 . S
O338 C337 1.227 . S
N339 Co336 2.121 . S
N339 C341 1.375 . S
N339 C342 1.313 . S
C340 C341 1.338 . S
C340 N343 1.377 . S
C340 H360 0.930 . S
C341 N339 1.375 . S
C341 C340 1.338 . S
C341 H345 0.931 . S
C342 N339 1.313 . S
C342 N343 1.344 . S
C342 H346 0.930 . S
N343 C340 1.377 . S
N343 C342 1.344 . S
O344 Co336 2.055 . S
O344 C348 1.253 . S
H345 C341 0.931 . S
H346 C342 0.930 . S
O347 Co336 2.039 . S
O347 C337 1.265 . S
C348 O344 1.253 . S
C348 O349 1.227 . S
O349 C348 1.227 . S
N350 Co336 2.140 . S
N350 C353 1.346 . S
N350 C354 1.345 . S
C351 C352 1.387 . S
C351 C355 1.391 . S
C352 C351 1.387 . S
C352 C353 1.369 . S
C352 H361 0.929 . S
C353 N350 1.346 . S
C353 C352 1.369 . S
C353 H356 0.928 . S
C354 N350 1.345 . S
C354 C355 1.371 . S
C354 H357 0.931 . S
C355 C351 1.391 . S
C355 C354 1.371 . S
C355 H362 0.930 . S
H356 C353 0.928 . S
H357 C354 0.931 . S
H358 C334 0.930 . S
H359 C331 0.930 . S
H360 C340 0.930 . S
H361 C352 0.929 . S
H362 C355 0.930 . S
C363 C364 1.351 . S
C363 N366 1.368 . S
C363 H368 0.931 . S
C364 C363 1.351 . S
C364 N365 1.373 . S
C364 H392 0.930 . S
N365 C364 1.373 . S
N365 C367 1.340 . S
N366 C363 1.368 . S
N366 C367 1.321 . S
N366 Co369 2.135 . S
C367 N365 1.340 . S
C367 N366 1.321 . S
C367 H391 0.930 . S
H368 C363 0.931 . S
Co369 N366 2.135 . S
Co369 N372 2.121 . S
Co369 O377 2.055 . S
Co369 O380 2.039 . S
Co369 N383 2.140 . S
C370 O371 1.227 . S
C370 O380 1.265 . S
O371 C370 1.227 . S
N372 Co369 2.121 . S
N372 C374 1.375 . S
N372 C375 1.313 . S
C373 C374 1.338 . S
C373 N376 1.377 . S
C373 H393 0.930 . S
C374 N372 1.375 . S
C374 C373 1.338 . S
C374 H378 0.931 . S
C375 N372 1.313 . S
C375 N376 1.344 . S
C375 H379 0.930 . S
N376 C373 1.377 . S
N376 C375 1.344 . S
O377 Co369 2.055 . S
O377 C381 1.253 . S
H378 C374 0.931 . S
H379 C375 0.930 . S
O380 Co369 2.039 . S
O380 C370 1.265 . S
C381 O377 1.253 . S
C381 O382 1.227 . S
O382 C381 1.227 . S
N383 Co369 2.140 . S
N383 C386 1.346 . S
N383 C387 1.345 . S
C384 C385 1.387 . S
C384 C388 1.391 . S
C385 C384 1.387 . S
C385 C386 1.369 . S
C385 H394 0.929 . S
C386 N383 1.346 . S
C386 C385 1.369 . S
C386 H389 0.928 . S
C387 N383 1.345 . S
C387 C388 1.371 . S
C387 H390 0.931 . S
C388 C384 1.391 . S
C388 C387 1.371 . S
C388 H395 0.930 . S
H389 C386 0.928 . S
H390 C387 0.931 . S
H391 C367 0.930 . S
H392 C364 0.930 . S
H393 C373 0.930 . S
H394 C385 0.929 . S
H395 C388 0.930 . S
C396 C397 1.351 . S
C396 N399 1.368 . S
C396 H401 0.931 . S
C397 C396 1.351 . S
C397 N398 1.373 . S
C397 H425 0.930 . S
N398 C397 1.373 . S
N398 C400 1.340 . S
N399 C396 1.368 . S
N399 C400 1.321 . S
N399 Co402 2.135 . S
C400 N398 1.340 . S
C400 N399 1.321 . S
C400 H424 0.930 . S
H401 C396 0.931 . S
Co402 N399 2.135 . S
Co402 N405 2.121 . S
Co402 O410 2.055 . S
Co402 O413 2.039 . S
Co402 N416 2.140 . S
C403 O404 1.227 . S
C403 O413 1.265 . S
O404 C403 1.227 . S
N405 Co402 2.121 . S
N405 C407 1.375 . S
N405 C408 1.313 . S
C406 C407 1.338 . S
C406 N409 1.377 . S
C406 H426 0.930 . S
C407 N405 1.375 . S
C407 C406 1.338 . S
C407 H411 0.931 . S
C408 N405 1.313 . S
C408 N409 1.344 . S
C408 H412 0.930 . S
N409 C406 1.377 . S
N409 C408 1.344 . S
O410 Co402 2.055 . S
O410 C414 1.253 . S
H411 C407 0.931 . S
H412 C408 0.930 . S
O413 Co402 2.039 . S
O413 C403 1.265 . S
C414 O410 1.253 . S
C414 O415 1.227 . S
O415 C414 1.227 . S
N416 Co402 2.140 . S
N416 C419 1.346 . S
N416 C420 1.345 . S
C417 C418 1.387 . S
C417 C421 1.391 . S
C418 C417 1.387 . S
C418 C419 1.369 . S
C418 H427 0.929 . S
C419 N416 1.346 . S
C419 C418 1.369 . S
C419 H422 0.928 . S
C420 N416 1.345 . S
C420 C421 1.371 . S
C420 H423 0.931 . S
C421 C417 1.391 . S
C421 C420 1.371 . S
C421 H428 0.930 . S
H422 C419 0.928 . S
H423 C420 0.931 . S
H424 C400 0.930 . S
H425 C397 0.930 . S
H426 C406 0.930 . S
H427 C418 0.929 . S
H428 C421 0.930 . S
C429 C430 1.351 . S
C429 N432 1.368 . S
C429 H434 0.931 . S
C430 C429 1.351 . S
C430 N431 1.373 . S
C430 H458 0.930 . S
N431 C430 1.373 . S
N431 C433 1.340 . S
N432 C429 1.368 . S
N432 C433 1.321 . S
N432 Co435 2.135 . S
C433 N431 1.340 . S
C433 N432 1.321 . S
C433 H457 0.930 . S
H434 C429 0.931 . S
Co435 N432 2.135 . S
Co435 N438 2.121 . S
Co435 O443 2.055 . S
Co435 O446 2.039 . S
Co435 N449 2.140 . S
C436 O437 1.227 . S
C436 O446 1.265 . S
O437 C436 1.227 . S
N438 Co435 2.121 . S
N438 C440 1.375 . S
N438 C441 1.313 . S
C439 C440 1.338 . S
C439 N442 1.377 . S
C439 H459 0.930 . S
C440 N438 1.375 . S
C440 C439 1.338 . S
C440 H444 0.931 . S
C441 N438 1.313 . S
C441 N442 1.344 . S
C441 H445 0.930 . S
N442 C439 1.377 . S
N442 C441 1.344 . S
O443 Co435 2.055 . S
O443 C447 1.253 . S
H444 C440 0.931 . S
H445 C441 0.930 . S
O446 Co435 2.039 . S
O446 C436 1.265 . S
C447 O443 1.253 . S
C447 O448 1.227 . S
O448 C447 1.227 . S
N449 Co435 2.140 . S
N449 C452 1.346 . S
N449 C453 1.345 . S
C450 C451 1.387 . S
C450 C454 1.391 . S
C451 C450 1.387 . S
C451 C452 1.369 . S
C451 H460 0.929 . S
C452 N449 1.346 . S
C452 C451 1.369 . S
C452 H455 0.928 . S
C453 N449 1.345 . S
C453 C454 1.371 . S
C453 H456 0.931 . S
C454 C450 1.391 . S
C454 C453 1.371 . S
C454 H461 0.930 . S
H455 C452 0.928 . S
H456 C453 0.931 . S
H457 C433 0.930 . S
H458 C430 0.930 . S
H459 C439 0.930 . S
H460 C451 0.929 . S
H461 C454 0.930 . S
C462 C463 1.351 . S
C462 N465 1.368 . S
C462 H467 0.931 . S
C463 C462 1.351 . S
C463 N464 1.373 . S
C463 H491 0.930 . S
N464 C463 1.373 . S
N464 C466 1.340 . S
N465 C462 1.368 . S
N465 C466 1.321 . S
N465 Co468 2.135 . S
C466 N464 1.340 . S
C466 N465 1.321 . S
C466 H490 0.930 . S
H467 C462 0.931 . S
Co468 N465 2.135 . S
Co468 N471 2.121 . S
Co468 O476 2.055 . S
Co468 O479 2.039 . S
Co468 N482 2.140 . S
C469 O470 1.227 . S
C469 O479 1.265 . S
O470 C469 1.227 . S
N471 Co468 2.121 . S
N471 C473 1.375 . S
N471 C474 1.313 . S
C472 C473 1.338 . S
C472 N475 1.377 . S
C472 H492 0.930 . S
C473 N471 1.375 . S
C473 C472 1.338 . S
C473 H477 0.931 . S
C474 N471 1.313 . S
C474 N475 1.344 . S
C474 H478 0.930 . S
N475 C472 1.377 . S
N475 C474 1.344 . S
O476 Co468 2.055 . S
O476 C480 1.253 . S
H477 C473 0.931 . S
H478 C474 0.930 . S
O479 Co468 2.039 . S
O479 C469 1.265 . S
C480 O476 1.253 . S
C480 O481 1.227 . S
O481 C480 1.227 . S
N482 Co468 2.140 . S
N482 C485 1.346 . S
N482 C486 1.345 . S
C483 C484 1.387 . S
C483 C487 1.391 . S
C484 C483 1.387 . S
C484 C485 1.369 . S
C484 H493 0.929 . S
C485 N482 1.346 . S
C485 C484 1.369 . S
C485 H488 0.928 . S
C486 N482 1.345 . S
C486 C487 1.371 . S
C486 H489 0.931 . S
C487 C483 1.391 . S
C487 C486 1.371 . S
C487 H494 0.930 . S
H488 C485 0.928 . S
H489 C486 0.931 . S
H490 C466 0.930 . S
H491 C463 0.930 . S
H492 C472 0.930 . S
H493 C484 0.929 . S
H494 C487 0.930 . S
C495 C496 1.351 . S
C495 N498 1.368 . S
C495 H500 0.931 . S
C496 C495 1.351 . S
C496 N497 1.373 . S
C496 H524 0.930 . S
N497 C496 1.373 . S
N497 C499 1.340 . S
N498 C495 1.368 . S
N498 C499 1.321 . S
N498 Co501 2.135 . S
C499 N497 1.340 . S
C499 N498 1.321 . S
C499 H523 0.930 . S
H500 C495 0.931 . S
Co501 N498 2.135 . S
Co501 N504 2.121 . S
Co501 O509 2.055 . S
Co501 O512 2.039 . S
Co501 N515 2.140 . S
C502 O503 1.227 . S
C502 O512 1.265 . S
O503 C502 1.227 . S
N504 Co501 2.121 . S
N504 C506 1.375 . S
N504 C507 1.313 . S
C505 C506 1.338 . S
C505 N508 1.377 . S
C505 H525 0.930 . S
C506 N504 1.375 . S
C506 C505 1.338 . S
C506 H510 0.931 . S
C507 N504 1.313 . S
C507 N508 1.344 . S
C507 H511 0.930 . S
N508 C505 1.377 . S
N508 C507 1.344 . S
O509 Co501 2.055 . S
O509 C513 1.253 . S
H510 C506 0.931 . S
H511 C507 0.930 . S
O512 Co501 2.039 . S
O512 C502 1.265 . S
C513 O509 1.253 . S
C513 O514 1.227 . S
O514 C513 1.227 . S
N515 Co501 2.140 . S
N515 C518 1.346 . S
N515 C519 1.345 . S
C516 C517 1.387 . S
C516 C520 1.391 . S
C517 C516 1.387 . S
C517 C518 1.369 . S
C517 H526 0.929 . S
C518 N515 1.346 . S
C518 C517 1.369 . S
C518 H521 0.928 . S
C519 N515 1.345 . S
C519 C520 1.371 . S
C519 H522 0.931 . S
C520 C516 1.391 . S
C520 C519 1.371 . S
C520 H527 0.930 . S
H521 C518 0.928 . S
H522 C519 0.931 . S
H523 C499 0.930 . S
H524 C496 0.930 . S
H525 C505 0.930 . S
H526 C517 0.929 . S
H527 C520 0.930 . S
C528 C529 1.351 . S
C528 N531 1.368 . S
C528 H533 0.931 . S
C529 C528 1.351 . S
C529 N530 1.373 . S
C529 H557 0.930 . S
N530 C529 1.373 . S
N530 C532 1.340 . S
N531 C528 1.368 . S
N531 C532 1.321 . S
N531 Co534 2.135 . S
C532 N530 1.340 . S
C532 N531 1.321 . S
C532 H556 0.930 . S
H533 C528 0.931 . S
Co534 N531 2.135 . S
Co534 N537 2.121 . S
Co534 O542 2.055 . S
Co534 O545 2.039 . S
Co534 N548 2.140 . S
C535 O536 1.227 . S
C535 O545 1.265 . S
O536 C535 1.227 . S
N537 Co534 2.121 . S
N537 C539 1.375 . S
N537 C540 1.313 . S
C538 C539 1.338 . S
C538 N541 1.377 . S
C538 H558 0.930 . S
C539 N537 1.375 . S
C539 C538 1.338 . S
C539 H543 0.931 . S
C540 N537 1.313 . S
C540 N541 1.344 . S
C540 H544 0.930 . S
N541 C538 1.377 . S
N541 C540 1.344 . S
O542 Co534 2.055 . S
O542 C546 1.253 . S
H543 C539 0.931 . S
H544 C540 0.930 . S
O545 Co534 2.039 . S
O545 C535 1.265 . S
C546 O542 1.253 . S
C546 O547 1.227 . S
O547 C546 1.227 . S
N548 Co534 2.140 . S
N548 C551 1.346 . S
N548 C552 1.345 . S
C549 C550 1.387 . S
C549 C553 1.391 . S
C550 C549 1.387 . S
C550 C551 1.369 . S
C550 H559 0.929 . S
C551 N548 1.346 . S
C551 C550 1.369 . S
C551 H554 0.928 . S
C552 N548 1.345 . S
C552 C553 1.371 . S
C552 H555 0.931 . S
C553 C549 1.391 . S
C553 C552 1.371 . S
C553 H560 0.930 . S
H554 C551 0.928 . S
H555 C552 0.931 . S
H556 C532 0.930 . S
H557 C529 0.930 . S
H558 C538 0.930 . S
H559 C550 0.929 . S
H560 C553 0.930 . S
C561 C562 1.351 . S
C561 N564 1.368 . S
C561 H566 0.931 . S
C562 C561 1.351 . S
C562 N563 1.373 . S
C562 H590 0.930 . S
N563 C562 1.373 . S
N563 C565 1.340 . S
N564 C561 1.368 . S
N564 C565 1.321 . S
N564 Co567 2.135 . S
C565 N563 1.340 . S
C565 N564 1.321 . S
C565 H589 0.930 . S
H566 C561 0.931 . S
Co567 N564 2.135 . S
Co567 N570 2.121 . S
Co567 O575 2.055 . S
Co567 O578 2.039 . S
Co567 N581 2.140 . S
C568 O569 1.227 . S
C568 O578 1.265 . S
O569 C568 1.227 . S
N570 Co567 2.121 . S
N570 C572 1.375 . S
N570 C573 1.313 . S
C571 C572 1.338 . S
C571 N574 1.377 . S
C571 H591 0.930 . S
C572 N570 1.375 . S
C572 C571 1.338 . S
C572 H576 0.931 . S
C573 N570 1.313 . S
C573 N574 1.344 . S
C573 H577 0.930 . S
N574 C571 1.377 . S
N574 C573 1.344 . S
O575 Co567 2.055 . S
O575 C579 1.253 . S
H576 C572 0.931 . S
H577 C573 0.930 . S
O578 Co567 2.039 . S
O578 C568 1.265 . S
C579 O575 1.253 . S
C579 O580 1.227 . S
O580 C579 1.227 . S
N581 Co567 2.140 . S
N581 C584 1.346 . S
N581 C585 1.345 . S
C582 C583 1.387 . S
C582 C586 1.391 . S
C583 C582 1.387 . S
C583 C584 1.369 . S
C583 H592 0.929 . S
C584 N581 1.346 . S
C584 C583 1.369 . S
C584 H587 0.928 . S
C585 N581 1.345 . S
C585 C586 1.371 . S
C585 H588 0.931 . S
C586 C582 1.391 . S
C586 C585 1.371 . S
C586 H593 0.930 . S
H587 C584 0.928 . S
H588 C585 0.931 . S
H589 C565 0.930 . S
H590 C562 0.930 . S
H591 C571 0.930 . S
H592 C583 0.929 . S
H593 C586 0.930 . S
C594 C595 1.351 . S
C594 N597 1.368 . S
C594 H599 0.931 . S
C595 C594 1.351 . S
C595 N596 1.373 . S
C595 H623 0.930 . S
N596 C595 1.373 . S
N596 C598 1.340 . S
N597 C594 1.368 . S
N597 C598 1.321 . S
N597 Co600 2.135 . S
C598 N596 1.340 . S
C598 N597 1.321 . S
C598 H622 0.930 . S
H599 C594 0.931 . S
Co600 N597 2.135 . S
Co600 N603 2.121 . S
Co600 O608 2.055 . S
Co600 O611 2.039 . S
Co600 N614 2.140 . S
C601 O602 1.227 . S
C601 O611 1.265 . S
O602 C601 1.227 . S
N603 Co600 2.121 . S
N603 C605 1.375 . S
N603 C606 1.313 . S
C604 C605 1.338 . S
C604 N607 1.377 . S
C604 H624 0.930 . S
C605 N603 1.375 . S
C605 C604 1.338 . S
C605 H609 0.931 . S
C606 N603 1.313 . S
C606 N607 1.344 . S
C606 H610 0.930 . S
N607 C604 1.377 . S
N607 C606 1.344 . S
O608 Co600 2.055 . S
O608 C612 1.253 . S
H609 C605 0.931 . S
H610 C606 0.930 . S
O611 Co600 2.039 . S
O611 C601 1.265 . S
C612 O608 1.253 . S
C612 O613 1.227 . S
O613 C612 1.227 . S
N614 Co600 2.140 . S
N614 C617 1.346 . S
N614 C618 1.345 . S
C615 C616 1.387 . S
C615 C619 1.391 . S
C616 C615 1.387 . S
C616 C617 1.369 . S
C616 H625 0.929 . S
C617 N614 1.346 . S
C617 C616 1.369 . S
C617 H620 0.928 . S
C618 N614 1.345 . S
C618 C619 1.371 . S
C618 H621 0.931 . S
C619 C615 1.391 . S
C619 C618 1.371 . S
C619 H626 0.930 . S
H620 C617 0.928 . S
H621 C618 0.931 . S
H622 C598 0.930 . S
H623 C595 0.930 . S
H624 C604 0.930 . S
H625 C616 0.929 . S
H626 C619 0.930 . S
C627 C628 1.351 . S
C627 N630 1.368 . S
C627 H632 0.931 . S
C628 C627 1.351 . S
C628 N629 1.373 . S
C628 H656 0.930 . S
N629 C628 1.373 . S
N629 C631 1.340 . S
N630 C627 1.368 . S
N630 C631 1.321 . S
N630 Co633 2.135 . S
C631 N629 1.340 . S
C631 N630 1.321 . S
C631 H655 0.930 . S
H632 C627 0.931 . S
Co633 N630 2.135 . S
Co633 N636 2.121 . S
Co633 O641 2.055 . S
Co633 O644 2.039 . S
Co633 N647 2.140 . S
C634 O635 1.227 . S
C634 O644 1.265 . S
O635 C634 1.227 . S
N636 Co633 2.121 . S
N636 C638 1.375 . S
N636 C639 1.313 . S
C637 C638 1.338 . S
C637 N640 1.377 . S
C637 H657 0.930 . S
C638 N636 1.375 . S
C638 C637 1.338 . S
C638 H642 0.931 . S
C639 N636 1.313 . S
C639 N640 1.344 . S
C639 H643 0.930 . S
N640 C637 1.377 . S
N640 C639 1.344 . S
O641 Co633 2.055 . S
O641 C645 1.253 . S
H642 C638 0.931 . S
H643 C639 0.930 . S
O644 Co633 2.039 . S
O644 C634 1.265 . S
C645 O641 1.253 . S
C645 O646 1.227 . S
O646 C645 1.227 . S
N647 Co633 2.140 . S
N647 C650 1.346 . S
N647 C651 1.345 . S
C648 C649 1.387 . S
C648 C652 1.391 . S
C649 C648 1.387 . S
C649 C650 1.369 . S
C649 H658 0.929 . S
C650 N647 1.346 . S
C650 C649 1.369 . S
C650 H653 0.928 . S
C651 N647 1.345 . S
C651 C652 1.371 . S
C651 H654 0.931 . S
C652 C648 1.391 . S
C652 C651 1.371 . S
C652 H659 0.930 . S
H653 C650 0.928 . S
H654 C651 0.931 . S
H655 C631 0.930 . S
H656 C628 0.930 . S
H657 C637 0.930 . S
H658 C649 0.929 . S
H659 C652 0.930 . S
C660 C661 1.351 . S
C660 N663 1.368 . S
C660 H665 0.931 . S
C661 C660 1.351 . S
C661 N662 1.373 . S
C661 H689 0.930 . S
N662 C661 1.373 . S
N662 C664 1.340 . S
N663 C660 1.368 . S
N663 C664 1.321 . S
N663 Co666 2.135 . S
C664 N662 1.340 . S
C664 N663 1.321 . S
C664 H688 0.930 . S
H665 C660 0.931 . S
Co666 N663 2.135 . S
Co666 N669 2.121 . S
Co666 O674 2.055 . S
Co666 O677 2.039 . S
Co666 N680 2.140 . S
C667 O668 1.227 . S
C667 O677 1.265 . S
O668 C667 1.227 . S
N669 Co666 2.121 . S
N669 C671 1.375 . S
N669 C672 1.313 . S
C670 C671 1.338 . S
C670 N673 1.377 . S
C670 H690 0.930 . S
C671 N669 1.375 . S
C671 C670 1.338 . S
C671 H675 0.931 . S
C672 N669 1.313 . S
C672 N673 1.344 . S
C672 H676 0.930 . S
N673 C670 1.377 . S
N673 C672 1.344 . S
O674 Co666 2.055 . S
O674 C678 1.253 . S
H675 C671 0.931 . S
H676 C672 0.930 . S
O677 Co666 2.039 . S
O677 C667 1.265 . S
C678 O674 1.253 . S
C678 O679 1.227 . S
O679 C678 1.227 . S
N680 Co666 2.140 . S
N680 C683 1.346 . S
N680 C684 1.345 . S
C681 C682 1.387 . S
C681 C685 1.391 . S
C682 C681 1.387 . S
C682 C683 1.369 . S
C682 H691 0.929 . S
C683 N680 1.346 . S
C683 C682 1.369 . S
C683 H686 0.928 . S
C684 N680 1.345 . S
C684 C685 1.371 . S
C684 H687 0.931 . S
C685 C681 1.391 . S
C685 C684 1.371 . S
C685 H692 0.930 . S
H686 C683 0.928 . S
H687 C684 0.931 . S
H688 C664 0.930 . S
H689 C661 0.930 . S
H690 C670 0.930 . S
H691 C682 0.929 . S
H692 C685 0.930 . S
C693 C694 1.351 . S
C693 N696 1.368 . S
C693 H698 0.931 . S
C694 C693 1.351 . S
C694 N695 1.373 . S
C694 H722 0.930 . S
N695 C694 1.373 . S
N695 C697 1.340 . S
N696 C693 1.368 . S
N696 C697 1.321 . S
N696 Co699 2.135 . S
C697 N695 1.340 . S
C697 N696 1.321 . S
C697 H721 0.930 . S
H698 C693 0.931 . S
Co699 N696 2.135 . S
Co699 N702 2.121 . S
Co699 O707 2.055 . S
Co699 O710 2.039 . S
Co699 N713 2.140 . S
C700 O701 1.227 . S
C700 O710 1.265 . S
O701 C700 1.227 . S
N702 Co699 2.121 . S
N702 C704 1.375 . S
N702 C705 1.313 . S
C703 C704 1.338 . S
C703 N706 1.377 . S
C703 H723 0.930 . S
C704 N702 1.375 . S
C704 C703 1.338 . S
C704 H708 0.931 . S
C705 N702 1.313 . S
C705 N706 1.344 . S
C705 H709 0.930 . S
N706 C703 1.377 . S
N706 C705 1.344 . S
O707 Co699 2.055 . S
O707 C711 1.253 . S
H708 C704 0.931 . S
H709 C705 0.930 . S
O710 Co699 2.039 . S
O710 C700 1.265 . S
C711 O707 1.253 . S
C711 O712 1.227 . S
O712 C711 1.227 . S
N713 Co699 2.140 . S
N713 C716 1.346 . S
N713 C717 1.345 . S
C714 C715 1.387 . S
C714 C718 1.391 . S
C715 C714 1.387 . S
C715 C716 1.369 . S
C715 H724 0.929 . S
C716 N713 1.346 . S
C716 C715 1.369 . S
C716 H719 0.928 . S
C717 N713 1.345 . S
C717 C718 1.371 . S
C717 H720 0.931 . S
C718 C714 1.391 . S
C718 C717 1.371 . S
C718 H725 0.930 . S
H719 C716 0.928 . S
H720 C717 0.931 . S
H721 C697 0.930 . S
H722 C694 0.930 . S
H723 C703 0.930 . S
H724 C715 0.929 . S
H725 C718 0.930 . S
C726 C727 1.351 . S
C726 N729 1.368 . S
C726 H731 0.931 . S
C727 C726 1.351 . S
C727 N728 1.373 . S
C727 H755 0.930 . S
N728 C727 1.373 . S
N728 C730 1.340 . S
N729 C726 1.368 . S
N729 C730 1.321 . S
N729 Co732 2.135 . S
C730 N728 1.340 . S
C730 N729 1.321 . S
C730 H754 0.930 . S
H731 C726 0.931 . S
Co732 N729 2.135 . S
Co732 N735 2.121 . S
Co732 O740 2.055 . S
Co732 O743 2.039 . S
Co732 N746 2.140 . S
C733 O734 1.227 . S
C733 O743 1.265 . S
O734 C733 1.227 . S
N735 Co732 2.121 . S
N735 C737 1.375 . S
N735 C738 1.313 . S
C736 C737 1.338 . S
C736 N739 1.377 . S
C736 H756 0.930 . S
C737 N735 1.375 . S
C737 C736 1.338 . S
C737 H741 0.931 . S
C738 N735 1.313 . S
C738 N739 1.344 . S
C738 H742 0.930 . S
N739 C736 1.377 . S
N739 C738 1.344 . S
O740 Co732 2.055 . S
O740 C744 1.253 . S
H741 C737 0.931 . S
H742 C738 0.930 . S
O743 Co732 2.039 . S
O743 C733 1.265 . S
C744 O740 1.253 . S
C744 O745 1.227 . S
O745 C744 1.227 . S
N746 Co732 2.140 . S
N746 C749 1.346 . S
N746 C750 1.345 . S
C747 C748 1.387 . S
C747 C751 1.391 . S
C748 C747 1.387 . S
C748 C749 1.369 . S
C748 H757 0.929 . S
C749 N746 1.346 . S
C749 C748 1.369 . S
C749 H752 0.928 . S
C750 N746 1.345 . S
C750 C751 1.371 . S
C750 H753 0.931 . S
C751 C747 1.391 . S
C751 C750 1.371 . S
C751 H758 0.930 . S
H752 C749 0.928 . S
H753 C750 0.931 . S
H754 C730 0.930 . S
H755 C727 0.930 . S
H756 C736 0.930 . S
H757 C748 0.929 . S
H758 C751 0.930 . S
C759 C760 1.351 . S
C759 N762 1.368 . S
C759 H764 0.931 . S
C760 C759 1.351 . S
C760 N761 1.373 . S
C760 H788 0.930 . S
N761 C760 1.373 . S
N761 C763 1.340 . S
N762 C759 1.368 . S
N762 C763 1.321 . S
N762 Co765 2.135 . S
C763 N761 1.340 . S
C763 N762 1.321 . S
C763 H787 0.930 . S
H764 C759 0.931 . S
Co765 N762 2.135 . S
Co765 N768 2.121 . S
Co765 O773 2.055 . S
Co765 O776 2.039 . S
Co765 N779 2.140 . S
C766 O767 1.227 . S
C766 O776 1.265 . S
O767 C766 1.227 . S
N768 Co765 2.121 . S
N768 C770 1.375 . S
N768 C771 1.313 . S
C769 C770 1.338 . S
C769 N772 1.377 . S
C769 H789 0.930 . S
C770 N768 1.375 . S
C770 C769 1.338 . S
C770 H774 0.931 . S
C771 N768 1.313 . S
C771 N772 1.344 . S
C771 H775 0.930 . S
N772 C769 1.377 . S
N772 C771 1.344 . S
O773 Co765 2.055 . S
O773 C777 1.253 . S
H774 C770 0.931 . S
H775 C771 0.930 . S
O776 Co765 2.039 . S
O776 C766 1.265 . S
C777 O773 1.253 . S
C777 O778 1.227 . S
O778 C777 1.227 . S
N779 Co765 2.140 . S
N779 C782 1.346 . S
N779 C783 1.345 . S
C780 C781 1.387 . S
C780 C784 1.391 . S
C781 C780 1.387 . S
C781 C782 1.369 . S
C781 H790 0.929 . S
C782 N779 1.346 . S
C782 C781 1.369 . S
C782 H785 0.928 . S
C783 N779 1.345 . S
C783 C784 1.371 . S
C783 H786 0.931 . S
C784 C780 1.391 . S
C784 C783 1.371 . S
C784 H791 0.930 . S
H785 C782 0.928 . S
H786 C783 0.931 . S
H787 C763 0.930 . S
H788 C760 0.930 . S
H789 C769 0.930 . S
H790 C781 0.929 . S
H791 C784 0.930 . S
C792 C793 1.387 . S
C792 H796 0.950 . S
C792 C801 1.390 . S
C793 C792 1.387 . S
C793 C795 1.387 . S
H794 C801 0.950 . S
C795 C793 1.387 . S
C795 C797 1.390 . S
C795 H799 0.950 . S
H796 C792 0.950 . S
C797 C795 1.390 . S
C797 C798 1.387 . S
C797 H800 0.950 . S
C798 C797 1.387 . S
C798 C801 1.387 . S
H799 C795 0.950 . S
H800 C797 0.950 . S
C801 C792 1.390 . S
C801 H794 0.950 . S
C801 C798 1.387 . S
C802 C803 1.387 . S
C802 H806 0.950 . S
C802 C811 1.390 . S
C803 C802 1.387 . S
C803 C805 1.387 . S
H804 C811 0.950 . S
C805 C803 1.387 . S
C805 C807 1.390 . S
C805 H809 0.950 . S
H806 C802 0.950 . S
C807 C805 1.390 . S
C807 C808 1.387 . S
C807 H810 0.950 . S
C808 C807 1.387 . S
C808 C811 1.387 . S
H809 C805 0.950 . S
H810 C807 0.950 . S
C811 C802 1.390 . S
C811 H804 0.950 . S
C811 C808 1.387 . S
C812 C813 1.387 . S
C812 H816 0.950 . S
C812 C821 1.390 . S
C813 C812 1.387 . S
C813 C815 1.387 . S
H814 C821 0.950 . S
C815 C813 1.387 . S
C815 C817 1.390 . S
C815 H819 0.950 . S
H816 C812 0.950 . S
C817 C815 1.390 . S
C817 C818 1.387 . S
C817 H820 0.950 . S
C818 C817 1.387 . S
C818 C821 1.387 . S
H819 C815 0.950 . S
H820 C817 0.950 . S
C821 C812 1.390 . S
C821 H814 0.950 . S
C821 C818 1.387 . S
C822 C823 1.387 . S
C822 H826 0.950 . S
C822 C831 1.390 . S
C823 C822 1.387 . S
C823 C825 1.387 . S
H824 C831 0.950 . S
C825 C823 1.387 . S
C825 C827 1.390 . S
C825 H829 0.950 . S
H826 C822 0.950 . S
C827 C825 1.390 . S
C827 C828 1.387 . S
C827 H830 0.950 . S
C828 C827 1.387 . S
C828 C831 1.387 . S
H829 C825 0.950 . S
H830 C827 0.950 . S
C831 C822 1.390 . S
C831 H824 0.950 . S
C831 C828 1.387 . S
C832 C833 1.387 . S
C832 H836 0.950 . S
C832 C841 1.390 . S
C833 C832 1.387 . S
C833 C835 1.387 . S
H834 C841 0.950 . S
C835 C833 1.387 . S
C835 C837 1.390 . S
C835 H839 0.950 . S
H836 C832 0.950 . S
C837 C835 1.390 . S
C837 C838 1.387 . S
C837 H840 0.950 . S
C838 C837 1.387 . S
C838 C841 1.387 . S
H839 C835 0.950 . S
H840 C837 0.950 . S
C841 C832 1.390 . S
C841 H834 0.950 . S
C841 C838 1.387 . S
C842 C843 1.387 . S
C842 H846 0.950 . S
C842 C851 1.390 . S
C843 C842 1.387 . S
C843 C845 1.387 . S
H844 C851 0.950 . S
C845 C843 1.387 . S
C845 C847 1.390 . S
C845 H849 0.950 . S
H846 C842 0.950 . S
C847 C845 1.390 . S
C847 C848 1.387 . S
C847 H850 0.950 . S
C848 C847 1.387 . S
C848 C851 1.387 . S
H849 C845 0.950 . S
H850 C847 0.950 . S
C851 C842 1.390 . S
C851 H844 0.950 . S
C851 C848 1.387 . S
C852 C853 1.387 . S
C852 H856 0.950 . S
C852 C861 1.390 . S
C853 C852 1.387 . S
C853 C855 1.387 . S
H854 C861 0.950 . S
C855 C853 1.387 . S
C855 C857 1.390 . S
C855 H859 0.950 . S
H856 C852 0.950 . S
C857 C855 1.390 . S
C857 C858 1.387 . S
C857 H860 0.950 . S
C858 C857 1.387 . S
C858 C861 1.387 . S
H859 C855 0.950 . S
H860 C857 0.950 . S
C861 C852 1.390 . S
C861 H854 0.950 . S
C861 C858 1.387 . S
C862 C863 1.387 . S
C862 H866 0.950 . S
C862 C871 1.390 . S
C863 C862 1.387 . S
C863 C865 1.387 . S
H864 C871 0.950 . S
C865 C863 1.387 . S
C865 C867 1.390 . S
C865 H869 0.950 . S
H866 C862 0.950 . S
C867 C865 1.390 . S
C867 C868 1.387 . S
C867 H870 0.950 . S
C868 C867 1.387 . S
C868 C871 1.387 . S
H869 C865 0.950 . S
H870 C867 0.950 . S
C871 C862 1.390 . S
C871 H864 0.950 . S
C871 C868 1.387 . S
C872 C873 1.387 . S
C872 H876 0.950 . S
C872 C881 1.390 . S
C873 C872 1.387 . S
C873 C875 1.387 . S
H874 C881 0.950 . S
C875 C873 1.387 . S
C875 C877 1.390 . S
C875 H879 0.950 . S
H876 C872 0.950 . S
C877 C875 1.390 . S
C877 C878 1.387 . S
C877 H880 0.950 . S
C878 C877 1.387 . S
C878 C881 1.387 . S
H879 C875 0.950 . S
H880 C877 0.950 . S
C881 C872 1.390 . S
C881 H874 0.950 . S
C881 C878 1.387 . S
C882 C883 1.387 . S
C882 H886 0.950 . S
C882 C891 1.390 . S
C883 C882 1.387 . S
C883 C885 1.387 . S
H884 C891 0.950 . S
C885 C883 1.387 . S
C885 C887 1.390 . S
C885 H889 0.950 . S
H886 C882 0.950 . S
C887 C885 1.390 . S
C887 C888 1.387 . S
C887 H890 0.950 . S
C888 C887 1.387 . S
C888 C891 1.387 . S
H889 C885 0.950 . S
H890 C887 0.950 . S
C891 C882 1.390 . S
C891 H884 0.950 . S
C891 C888 1.387 . S
C892 C893 1.387 . S
C892 H896 0.950 . S
C892 C901 1.390 . S
C893 C892 1.387 . S
C893 C895 1.387 . S
H894 C901 0.950 . S
C895 C893 1.387 . S
C895 C897 1.390 . S
C895 H899 0.950 . S
H896 C892 0.950 . S
C897 C895 1.390 . S
C897 C898 1.387 . S
C897 H900 0.950 . S
C898 C897 1.387 . S
C898 C901 1.387 . S
H899 C895 0.950 . S
H900 C897 0.950 . S
C901 C892 1.390 . S
C901 H894 0.950 . S
C901 C898 1.387 . S
C902 C903 1.387 . S
C902 H906 0.950 . S
C902 C911 1.390 . S
C903 C902 1.387 . S
C903 C905 1.387 . S
H904 C911 0.950 . S
C905 C903 1.387 . S
C905 C907 1.390 . S
C905 H909 0.950 . S
H906 C902 0.950 . S
C907 C905 1.390 . S
C907 C908 1.387 . S
C907 H910 0.950 . S
C908 C907 1.387 . S
C908 C911 1.387 . S
H909 C905 0.950 . S
H910 C907 0.950 . S
C911 C902 1.390 . S
C911 H904 0.950 . S
C911 C908 1.387 . S
C912 C913 1.387 . S
C912 H916 0.950 . S
C912 C921 1.390 1_565 S
C913 C912 1.387 . S
C913 C915 1.387 1_565 S
H914 C921 0.950 . S
C915 C913 1.387 1_545 S
C915 C917 1.390 . S
C915 H919 0.950 . S
H916 C912 0.950 . S
C917 C915 1.390 . S
C917 C918 1.387 . S
C917 H920 0.950 . S
C918 C917 1.387 . S
C918 C921 1.387 . S
H919 C915 0.950 . S
H920 C917 0.950 . S
C921 C912 1.390 1_545 S
C921 H914 0.950 . S
C921 C918 1.387 . S
C922 C923 1.387 . S
C922 H926 0.950 . S
C922 C931 1.390 . S
C923 C922 1.387 . S
C923 C925 1.387 . S
H924 C931 0.950 1_455 S
C925 C923 1.387 . S
C925 C927 1.390 . S
C925 H929 0.950 . S
H926 C922 0.950 . S
C927 C925 1.390 . S
C927 C928 1.387 1_655 S
C927 H930 0.950 1_655 S
C928 C927 1.387 1_455 S
C928 C931 1.387 1_455 S
H929 C925 0.950 . S
H930 C927 0.950 1_455 S
C931 C922 1.390 . S
C931 H924 0.950 1_655 S
C931 C928 1.387 1_655 S
C932 C933 1.387 . S
C932 H936 0.950 . S
C932 C941 1.390 . S
C933 C932 1.387 . S
C933 C935 1.387 . S
H934 C941 0.950 . S
C935 C933 1.387 . S
C935 C937 1.390 1_565 S
C935 H939 0.950 . S
H936 C932 0.950 . S
C937 C935 1.390 1_545 S
C937 C938 1.387 . S
C937 H940 0.950 . S
C938 C937 1.387 . S
C938 C941 1.387 1_545 S
H939 C935 0.950 . S
H940 C937 0.950 . S
C941 C932 1.390 . S
C941 H934 0.950 . S
C941 C938 1.387 1_565 S
C942 C943 1.387 1_455 S
C942 H946 0.950 1_455 S
C942 C951 1.390 . S
C943 C942 1.387 1_655 S
C943 C945 1.387 1_655 S
H944 C951 0.950 . S
C945 C943 1.387 1_455 S
C945 C947 1.390 . S
C945 H949 0.950 1_455 S
H946 C942 0.950 1_655 S
C947 C945 1.390 . S
C947 C948 1.387 . S
C947 H950 0.950 . S
C948 C947 1.387 . S
C948 C951 1.387 . S
H949 C945 0.950 1_655 S
H950 C947 0.950 . S
C951 C942 1.390 . S
C951 H944 0.950 . S
C951 C948 1.387 . S
C952 C953 1.387 1_565 S
C952 H956 0.950 1_565 S
C952 C961 1.390 . S
C953 C952 1.387 1_545 S
C953 C955 1.387 1_545 S
H954 C961 0.950 . S
C955 C953 1.387 1_565 S
C955 C957 1.390 . S
C955 H959 0.950 1_565 S
H956 C952 0.950 1_545 S
C957 C955 1.390 . S
C957 C958 1.387 . S
C957 H960 0.950 . S
C958 C957 1.387 . S
C958 C961 1.387 . S
H959 C955 0.950 1_545 S
H960 C957 0.950 . S
C961 C952 1.390 . S
C961 H954 0.950 . S
C961 C958 1.387 . S
C962 C963 1.387 . S
C962 H966 0.950 . S
C962 C971 1.390 . S
C963 C962 1.387 . S
C963 C965 1.387 . S
H964 C971 0.950 1_655 S
C965 C963 1.387 . S
C965 C967 1.390 . S
C965 H969 0.950 . S
H966 C962 0.950 . S
C967 C965 1.390 . S
C967 C968 1.387 1_455 S
C967 H970 0.950 1_455 S
C968 C967 1.387 1_655 S
C968 C971 1.387 1_655 S
H969 C965 0.950 . S
H970 C967 0.950 1_655 S
C971 C962 1.390 . S
C971 H964 0.950 1_455 S
C971 C968 1.387 1_455 S
C972 C973 1.387 1_545 S
C972 H976 0.950 . S
C972 C981 1.390 . S
C973 C972 1.387 1_565 S
C973 C975 1.387 . S
H974 C981 0.950 . S
C975 C973 1.387 . S
C975 C977 1.390 1_565 S
C975 H979 0.950 . S
H976 C972 0.950 . S
C977 C975 1.390 1_545 S
C977 C978 1.387 . S
C977 H980 0.950 . S
C978 C977 1.387 . S
C978 C981 1.387 . S
H979 C975 0.950 . S
H980 C977 0.950 . S
C981 C972 1.390 . S
C981 H974 0.950 . S
C981 C978 1.387 . S
C982 C983 1.387 1_655 S
C982 H986 0.950 . S
C982 C991 1.390 . S
C983 C982 1.387 1_455 S
C983 C985 1.387 . S
H984 C991 0.950 . S
C985 C983 1.387 . S
C985 C987 1.390 1_455 S
C985 H989 0.950 . S
H986 C982 0.950 . S
C987 C985 1.390 1_655 S
C987 C988 1.387 . S
C987 H990 0.950 . S
C988 C987 1.387 . S
C988 C991 1.387 . S
H989 C985 0.950 . S
H990 C987 0.950 . S
C991 C982 1.390 . S
C991 H984 0.950 . S
C991 C988 1.387 . S
C992 C993 1.387 1_554 S
C992 H996 0.950 1_554 S
C992 C1001 1.390 . S
C993 C992 1.387 1_556 S
C993 C995 1.387 1_556 S
H994 C1001 0.950 . S
C995 C993 1.387 1_554 S
C995 C997 1.390 . S
C995 H999 0.957 . S
H996 C992 0.950 1_556 S
C997 C995 1.390 . S
C997 C998 1.387 . S
C997 H1000 0.950 . S
C998 C997 1.387 . S
C998 C1001 1.387 . S
H999 C995 0.957 . S
H1000 C997 0.950 . S
C1001 C992 1.390 . S
C1001 H994 0.950 . S
C1001 C998 1.387 . S
C1002 C1003 1.387 . S
C1002 H1006 0.950 . S
C1002 C1011 1.390 . S
C1003 C1002 1.387 . S
C1003 C1005 1.387 . S
H1004 C1011 0.950 1_556 S
C1005 C1003 1.387 . S
C1005 C1007 1.390 . S
C1005 H1009 0.950 . S
H1006 C1002 0.950 . S
C1007 C1005 1.390 . S
C1007 C1008 1.387 1_554 S
C1007 H1010 0.950 1_554 S
C1008 C1007 1.387 1_556 S
C1008 C1011 1.387 1_556 S
H1009 C1005 0.950 . S
H1010 C1007 0.950 1_556 S
C1011 C1002 1.390 . S
C1011 H1004 0.950 1_554 S
C1011 C1008 1.387 1_554 S
C1012 C1013 1.387 1_554 S
C1012 H1016 0.950 1_554 S
C1012 C1021 1.390 . S
C1013 C1012 1.387 1_556 S
C1013 C1015 1.387 1_556 S
H1014 C1021 0.950 . S
C1015 C1013 1.387 1_554 S
C1015 C1017 1.390 . S
C1015 H1019 0.950 1_554 S
H1016 C1012 0.950 1_556 S
C1017 C1015 1.390 . S
C1017 C1018 1.387 . S
C1017 H1020 0.950 . S
C1018 C1017 1.387 . S
C1018 C1021 1.387 . S
H1019 C1015 0.950 1_556 S
H1020 C1017 0.950 . S
C1021 C1012 1.390 . S
C1021 H1014 0.950 . S
C1021 C1018 1.387 . S
C1022 C1023 1.387 . S
C1022 H1026 0.950 . S
C1022 C1031 1.390 . S
C1023 C1022 1.387 . S
C1023 C1025 1.387 . S
H1024 C1031 0.950 . S
C1025 C1023 1.387 . S
C1025 C1027 1.394 . S
C1025 H1029 0.950 . S
H1026 C1022 0.950 . S
C1027 C1025 1.394 . S
C1027 C1028 1.386 1_554 S
C1027 H1030 0.947 1_554 S
C1028 C1027 1.386 1_556 S
C1028 C1031 1.387 1_556 S
H1029 C1025 0.950 . S
H1030 C1027 0.947 1_556 S
C1031 C1022 1.390 . S
C1031 H1024 0.950 . S
C1031 C1028 1.387 1_554 S
C1032 C1033 1.387 1_556 S
C1032 H1036 0.950 1_556 S
C1032 C1041 1.390 . S
C1033 C1032 1.387 1_554 S
C1033 C1035 1.387 1_554 S
H1034 C1041 0.950 . S
C1035 C1033 1.387 1_556 S
C1035 C1037 1.390 . S
C1035 H1039 0.950 1_556 S
H1036 C1032 0.950 1_554 S
C1037 C1035 1.390 . S
C1037 C1038 1.387 . S
C1037 H1040 0.950 . S
C1038 C1037 1.387 . S
C1038 C1041 1.387 . S
H1039 C1035 0.950 1_554 S
H1040 C1037 0.950 . S
C1041 C1032 1.390 . S
C1041 H1034 0.950 . S
C1041 C1038 1.387 . S
C1042 C1043 1.387 . S
C1042 H1046 0.950 . S
C1042 C1051 1.390 . S
C1043 C1042 1.387 . S
C1043 C1045 1.387 . S
H1044 C1051 0.950 1_554 S
C1045 C1043 1.387 . S
C1045 C1047 1.390 . S
C1045 H1049 0.950 . S
H1046 C1042 0.950 . S
C1047 C1045 1.390 . S
C1047 C1048 1.387 1_556 S
C1047 H1050 0.950 1_556 S
C1048 C1047 1.387 1_554 S
C1048 C1051 1.387 1_554 S
H1049 C1045 0.950 . S
H1050 C1047 0.950 1_554 S
C1051 C1042 1.390 . S
C1051 H1044 0.950 1_556 S
C1051 C1048 1.387 1_556 S
C1052 C1053 1.387 1_556 S
C1052 H1056 0.950 1_556 S
C1052 C1061 1.390 . S
C1053 C1052 1.387 1_554 S
C1053 C1055 1.387 1_554 S
H1054 C1061 0.950 . S
C1055 C1053 1.387 1_556 S
C1055 C1057 1.390 . S
C1055 H1059 0.950 1_556 S
H1056 C1052 0.950 1_554 S
C1057 C1055 1.390 . S
C1057 C1058 1.387 . S
C1057 H1060 0.950 . S
C1058 C1057 1.387 . S
C1058 C1061 1.387 . S
H1059 C1055 0.950 1_554 S
H1060 C1057 0.950 . S
C1061 C1052 1.390 . S
C1061 H1054 0.950 . S
C1061 C1058 1.387 . S
C1062 C1063 1.387 . S
C1062 H1066 0.950 . S
C1062 C1071 1.390 . S
C1063 C1062 1.387 . S
C1063 C1065 1.387 . S
H1064 C1071 0.950 . S
C1065 C1063 1.387 . S
C1065 C1067 1.390 1_556 S
C1065 H1069 0.950 . S
H1066 C1062 0.950 . S
C1067 C1065 1.390 1_554 S
C1067 C1068 1.387 . S
C1067 H1070 0.950 . S
C1068 C1067 1.387 . S
C1068 C1071 1.387 1_554 S
H1069 C1065 0.950 . S
H1070 C1067 0.950 . S
C1071 C1062 1.390 . S
C1071 H1064 0.950 . S
C1071 C1068 1.387 1_556 S
C1072 C1073 1.387 1_455 S
C1072 H1076 0.950 1_455 S
C1072 C1081 1.390 . S
C1073 C1072 1.387 1_655 S
C1073 C1075 1.387 1_655 S
H1074 C1081 0.950 . S
C1075 C1073 1.387 1_455 S
C1075 C1077 1.390 . S
C1075 H1079 0.950 1_455 S
H1076 C1072 0.950 1_655 S
C1077 C1075 1.390 . S
C1077 C1078 1.387 . S
C1077 H1080 0.950 . S
C1078 C1077 1.387 . S
C1078 C1081 1.387 . S
H1079 C1075 0.950 1_655 S
H1080 C1077 0.950 . S
C1081 C1072 1.390 . S
C1081 H1074 0.950 . S
C1081 C1078 1.387 . S
C1082 C1083 1.387 1_455 S
C1082 H1086 0.950 1_455 S
C1082 C1091 1.390 . S
C1083 C1082 1.387 1_655 S
C1083 C1085 1.387 1_655 S
H1084 C1091 0.950 . S
C1085 C1083 1.387 1_455 S
C1085 C1087 1.390 . S
C1085 H1089 0.936 1_455 S
H1086 C1082 0.950 1_655 S
C1087 C1085 1.390 . S
C1087 C1088 1.387 . S
C1087 H1090 0.950 . S
C1088 C1087 1.387 . S
C1088 C1091 1.387 . S
H1089 C1085 0.936 1_655 S
H1090 C1087 0.950 . S
C1091 C1082 1.390 . S
C1091 H1084 0.950 . S
C1091 C1088 1.387 . S
C1092 C1093 1.387 . S
C1092 H1096 0.950 . S
C1092 C1101 1.390 . S
C1093 C1092 1.387 . S
C1093 C1095 1.387 . S
H1094 C1101 0.950 . S
C1095 C1093 1.387 . S
C1095 C1097 1.411 . S
C1095 H1099 0.950 . S
H1096 C1092 0.950 . S
C1097 C1095 1.411 . S
C1097 C1098 1.380 1_545 S
C1097 H1100 0.937 1_545 S
C1098 C1097 1.380 1_565 S
C1098 C1101 1.387 1_565 S
H1099 C1095 0.950 . S
H1100 C1097 0.937 1_565 S
C1101 C1092 1.390 . S
C1101 H1094 0.950 . S
C1101 C1098 1.387 1_545 S
C1102 C1103 1.387 . S
C1102 H1106 0.950 . S
C1102 C1111 1.390 . S
C1103 C1102 1.387 . S
C1103 C1105 1.387 . S
H1104 C1111 0.951 . S
C1105 C1103 1.387 . S
C1105 C1107 1.390 . S
C1105 H1109 0.950 . S
H1106 C1102 0.950 . S
C1107 C1105 1.390 . S
C1107 C1108 1.387 1_655 S
C1107 H1110 0.950 1_655 S
C1108 C1107 1.387 1_455 S
C1108 C1111 1.387 1_455 S
H1109 C1105 0.950 . S
H1110 C1107 0.950 1_455 S
C1111 C1102 1.390 . S
C1111 H1104 0.951 . S
C1111 C1108 1.387 1_655 S
C1112 C1113 1.387 1_565 S
C1112 H1116 0.950 1_565 S
C1112 C1121 1.390 . S
C1113 C1112 1.387 1_545 S
C1113 C1115 1.387 1_545 S
H1114 C1121 0.950 . S
C1115 C1113 1.387 1_565 S
C1115 C1117 1.390 . S
C1115 H1119 0.950 1_565 S
H1116 C1112 0.950 1_545 S
C1117 C1115 1.390 . S
C1117 C1118 1.387 . S
C1117 H1120 0.950 . S
C1118 C1117 1.387 . S
C1118 C1121 1.387 . S
H1119 C1115 0.950 1_545 S
H1120 C1117 0.950 . S
C1121 C1112 1.390 . S
C1121 H1114 0.950 . S
C1121 C1118 1.387 . S
C1122 C1123 1.387 1_655 S
C1122 H1126 0.950 1_655 S
C1122 C1131 1.390 . S
C1123 C1122 1.387 1_455 S
C1123 C1125 1.387 1_455 S
H1124 C1131 0.950 . S
C1125 C1123 1.387 1_655 S
C1125 C1127 1.390 . S
C1125 H1129 0.950 1_655 S
H1126 C1122 0.950 1_455 S
C1127 C1125 1.390 . S
C1127 C1128 1.387 . S
C1127 H1130 0.950 . S
C1128 C1127 1.387 . S
C1128 C1131 1.387 . S
H1129 C1125 0.950 1_455 S
H1130 C1127 0.950 . S
C1131 C1122 1.390 . S
C1131 H1124 0.950 . S
C1131 C1128 1.387 . S
C1132 C1133 1.387 1_565 S
C1132 H1136 0.950 1_565 S
C1132 C1141 1.390 . S
C1133 C1132 1.387 1_545 S
C1133 C1135 1.387 1_545 S
H1134 C1141 0.950 . S
C1135 C1133 1.387 1_565 S
C1135 C1137 1.390 . S
C1135 H1139 0.946 1_565 S
H1136 C1132 0.950 1_545 S
C1137 C1135 1.390 . S
C1137 C1138 1.387 . S
C1137 H1140 0.950 . S
C1138 C1137 1.387 . S
C1138 C1141 1.387 . S
H1139 C1135 0.946 1_545 S
H1140 C1137 0.950 . S
C1141 C1132 1.390 . S
C1141 H1134 0.950 . S
C1141 C1138 1.387 . S
C1142 C1143 1.387 . S
C1142 H1146 0.950 . S
C1142 C1151 1.390 . S
C1143 C1142 1.387 . S
C1143 C1145 1.387 . S
H1144 C1151 0.950 1_565 S
C1145 C1143 1.387 . S
C1145 C1147 1.390 . S
C1145 H1149 0.950 . S
H1146 C1142 0.950 . S
C1147 C1145 1.390 . S
C1147 C1148 1.387 1_545 S
C1147 H1150 0.939 1_545 S
C1148 C1147 1.387 1_565 S
C1148 C1151 1.387 1_565 S
H1149 C1145 0.950 . S
H1150 C1147 0.939 1_565 S
C1151 C1142 1.390 . S
C1151 H1144 0.950 1_545 S
C1151 C1148 1.387 1_545 S
C1152 C1153 1.387 . S
C1152 H1156 0.950 . S
C1152 C1161 1.390 . S
C1153 C1152 1.387 . S
C1153 C1155 1.387 . S
H1154 C1161 0.950 . S
C1155 C1153 1.387 . S
C1155 C1157 1.390 . S
C1155 H1159 0.950 . S
H1156 C1152 0.950 . S
C1157 C1155 1.390 . S
C1157 C1158 1.387 . S
C1157 H1160 0.950 . S
C1158 C1157 1.387 . S
C1158 C1161 1.387 . S
H1159 C1155 0.950 . S
H1160 C1157 0.950 . S
C1161 C1152 1.390 . S
C1161 H1154 0.950 . S
C1161 C1158 1.387 . S
C1162 C1163 1.387 . S
C1162 H1166 0.950 . S
C1162 C1171 1.390 . S
C1163 C1162 1.387 . S
C1163 C1165 1.387 . S
H1164 C1171 0.950 . S
C1165 C1163 1.387 . S
C1165 C1167 1.390 . S
C1165 H1169 0.950 . S
H1166 C1162 0.950 . S
C1167 C1165 1.390 . S
C1167 C1168 1.387 . S
C1167 H1170 0.950 . S
C1168 C1167 1.387 . S
C1168 C1171 1.387 . S
H1169 C1165 0.950 . S
H1170 C1167 0.950 . S
C1171 C1162 1.390 . S
C1171 H1164 0.950 . S
C1171 C1168 1.387 . S
C1172 C1173 1.387 . S
C1172 H1176 0.950 . S
C1172 C1181 1.390 . S
C1173 C1172 1.387 . S
C1173 C1175 1.387 . S
H1174 C1181 0.950 . S
C1175 C1173 1.387 . S
C1175 C1177 1.390 . S
C1175 H1179 0.950 . S
H1176 C1172 0.950 . S
C1177 C1175 1.390 . S
C1177 C1178 1.387 . S
C1177 H1180 0.950 . S
C1178 C1177 1.387 . S
C1178 C1181 1.387 . S
H1179 C1175 0.950 . S
H1180 C1177 0.950 . S
C1181 C1172 1.390 . S
C1181 H1174 0.950 . S
C1181 C1178 1.387 . S
C1182 C1183 1.387 . S
C1182 H1186 0.950 . S
C1182 C1191 1.390 . S
C1183 C1182 1.387 . S
C1183 C1185 1.387 . S
H1184 C1191 0.950 . S
C1185 C1183 1.387 . S
C1185 C1187 1.390 . S
C1185 H1189 0.950 . S
H1186 C1182 0.950 . S
C1187 C1185 1.390 . S
C1187 C1188 1.387 . S
C1187 H1190 0.950 . S
C1188 C1187 1.387 . S
C1188 C1191 1.387 . S
H1189 C1185 0.950 . S
H1190 C1187 0.950 . S
C1191 C1182 1.390 . S
C1191 H1184 0.950 . S
C1191 C1188 1.387 . S
C1192 C1193 1.387 . S
C1192 H1196 0.950 . S
C1192 C1201 1.390 . S
C1193 C1192 1.387 . S
C1193 C1195 1.387 . S
H1194 C1201 0.950 . S
C1195 C1193 1.387 . S
C1195 C1197 1.390 . S
C1195 H1199 0.950 . S
H1196 C1192 0.950 . S
C1197 C1195 1.390 . S
C1197 C1198 1.387 . S
C1197 H1200 0.950 . S
C1198 C1197 1.387 . S
C1198 C1201 1.387 . S
H1199 C1195 0.950 . S
H1200 C1197 0.950 . S
C1201 C1192 1.390 . S
C1201 H1194 0.950 . S
C1201 C1198 1.387 . S
C1202 C1203 1.387 . S
C1202 H1206 0.950 . S
C1202 C1211 1.390 . S
C1203 C1202 1.387 . S
C1203 C1205 1.387 . S
H1204 C1211 0.950 . S
C1205 C1203 1.387 . S
C1205 C1207 1.390 . S
C1205 H1209 0.950 . S
H1206 C1202 0.950 . S
C1207 C1205 1.390 . S
C1207 C1208 1.387 . S
C1207 H1210 0.950 . S
C1208 C1207 1.387 . S
C1208 C1211 1.387 . S
H1209 C1205 0.950 . S
H1210 C1207 0.950 . S
C1211 C1202 1.390 . S
C1211 H1204 0.950 . S
C1211 C1208 1.387 . S
C1212 C1213 1.387 . S
C1212 H1216 0.950 . S
C1212 C1221 1.390 . S
C1213 C1212 1.387 . S
C1213 C1215 1.387 . S
H1214 C1221 0.950 . S
C1215 C1213 1.387 . S
C1215 C1217 1.390 . S
C1215 H1219 0.950 . S
H1216 C1212 0.950 . S
C1217 C1215 1.390 . S
C1217 C1218 1.387 . S
C1217 H1220 0.950 . S
C1218 C1217 1.387 . S
C1218 C1221 1.387 . S
H1219 C1215 0.950 . S
H1220 C1217 0.950 . S
C1221 C1212 1.390 . S
C1221 H1214 0.950 . S
C1221 C1218 1.387 . S
C1222 C1223 1.387 . S
C1222 H1226 0.950 . S
C1222 C1231 1.390 . S
C1223 C1222 1.387 . S
C1223 C1225 1.387 . S
H1224 C1231 0.950 . S
C1225 C1223 1.387 . S
C1225 C1227 1.390 . S
C1225 H1229 0.950 . S
H1226 C1222 0.950 . S
C1227 C1225 1.390 . S
C1227 C1228 1.387 . S
C1227 H1230 0.950 . S
C1228 C1227 1.387 . S
C1228 C1231 1.387 . S
H1229 C1225 0.950 . S
H1230 C1227 0.950 . S
C1231 C1222 1.390 . S
C1231 H1224 0.950 . S
C1231 C1228 1.387 . S
C1232 C1233 1.387 . S
C1232 H1236 0.950 . S
C1232 C1241 1.390 . S
C1233 C1232 1.387 . S
C1233 C1235 1.387 . S
H1234 C1241 0.950 . S
C1235 C1233 1.387 . S
C1235 C1237 1.390 . S
C1235 H1239 0.950 . S
H1236 C1232 0.950 . S
C1237 C1235 1.390 . S
C1237 C1238 1.387 . S
C1237 H1240 0.950 . S
C1238 C1237 1.387 . S
C1238 C1241 1.387 . S
H1239 C1235 0.950 . S
H1240 C1237 0.950 . S
C1241 C1232 1.390 . S
C1241 H1234 0.950 . S
C1241 C1238 1.387 . S
C1242 C1243 1.387 . S
C1242 H1246 0.950 . S
C1242 C1251 1.390 . S
C1243 C1242 1.387 . S
C1243 C1245 1.387 . S
H1244 C1251 0.950 . S
C1245 C1243 1.387 . S
C1245 C1247 1.390 . S
C1245 H1249 0.950 . S
H1246 C1242 0.950 . S
C1247 C1245 1.390 . S
C1247 C1248 1.387 . S
C1247 H1250 0.950 . S
C1248 C1247 1.387 . S
C1248 C1251 1.387 . S
H1249 C1245 0.950 . S
H1250 C1247 0.950 . S
C1251 C1242 1.390 . S
C1251 H1244 0.950 . S
C1251 C1248 1.387 . S
C1252 C1253 1.387 . S
C1252 H1256 0.950 . S
C1252 C1261 1.390 . S
C1253 C1252 1.387 . S
C1253 C1255 1.387 . S
H1254 C1261 0.950 . S
C1255 C1253 1.387 . S
C1255 C1257 1.390 . S
C1255 H1259 0.950 . S
H1256 C1252 0.950 . S
C1257 C1255 1.390 . S
C1257 C1258 1.387 . S
C1257 H1260 0.950 . S
C1258 C1257 1.387 . S
C1258 C1261 1.387 . S
H1259 C1255 0.950 . S
H1260 C1257 0.950 . S
C1261 C1252 1.390 . S
C1261 H1254 0.950 . S
C1261 C1258 1.387 . S
C1262 C1263 1.387 . S
C1262 H1266 0.950 . S
C1262 C1271 1.390 . S
C1263 C1262 1.387 . S
C1263 C1265 1.387 . S
H1264 C1271 0.950 . S
C1265 C1263 1.387 . S
C1265 C1267 1.390 . S
C1265 H1269 0.950 . S
H1266 C1262 0.950 . S
C1267 C1265 1.390 . S
C1267 C1268 1.387 . S
C1267 H1270 0.950 . S
C1268 C1267 1.387 . S
C1268 C1271 1.387 . S
H1269 C1265 0.950 . S
H1270 C1267 0.950 . S
C1271 C1262 1.390 . S
C1271 H1264 0.950 . S
C1271 C1268 1.387 . S
C1272 C1273 1.387 . S
C1272 H1276 0.950 . S
C1272 C1281 1.390 . S
C1273 C1272 1.387 . S
C1273 C1275 1.387 . S
H1274 C1281 0.950 . S
C1275 C1273 1.387 . S
C1275 C1277 1.390 . S
C1275 H1279 0.950 . S
H1276 C1272 0.950 . S
C1277 C1275 1.390 . S
C1277 C1278 1.387 . S
C1277 H1280 0.950 . S
C1278 C1277 1.387 . S
C1278 C1281 1.387 . S
H1279 C1275 0.950 . S
H1280 C1277 0.950 . S
C1281 C1272 1.390 . S
C1281 H1274 0.950 . S
C1281 C1278 1.387 . S
C1282 C1283 1.387 . S
C1282 H1286 0.950 . S
C1282 C1291 1.390 . S
C1283 C1282 1.387 . S
C1283 C1285 1.387 . S
H1284 C1291 0.950 . S
C1285 C1283 1.387 . S
C1285 C1287 1.390 . S
C1285 H1289 0.950 . S
H1286 C1282 0.950 . S
C1287 C1285 1.390 . S
C1287 C1288 1.387 . S
C1287 H1290 0.950 . S
C1288 C1287 1.387 . S
C1288 C1291 1.387 . S
H1289 C1285 0.950 . S
H1290 C1287 0.950 . S
C1291 C1282 1.390 . S
C1291 H1284 0.950 . S
C1291 C1288 1.387 . S
C1292 C1293 1.387 . S
C1292 H1296 0.950 . S
C1292 C1301 1.390 . S
C1293 C1292 1.387 . S
C1293 C1295 1.387 . S
H1294 C1301 0.950 . S
C1295 C1293 1.387 . S
C1295 C1297 1.390 . S
C1295 H1299 0.950 . S
H1296 C1292 0.950 . S
C1297 C1295 1.390 . S
C1297 C1298 1.387 . S
C1297 H1300 0.950 . S
C1298 C1297 1.387 . S
C1298 C1301 1.387 . S
H1299 C1295 0.950 . S
H1300 C1297 0.950 . S
C1301 C1292 1.390 . S
C1301 H1294 0.950 . S
C1301 C1298 1.387 . S
C1302 C1303 1.387 . S
C1302 H1306 0.950 . S
C1302 C1311 1.390 . S
C1303 C1302 1.387 . S
C1303 C1305 1.387 . S
H1304 C1311 0.950 . S
C1305 C1303 1.387 . S
C1305 C1307 1.390 . S
C1305 H1309 0.950 . S
H1306 C1302 0.950 . S
C1307 C1305 1.390 . S
C1307 C1308 1.387 . S
C1307 H1310 0.950 . S
C1308 C1307 1.387 . S
C1308 C1311 1.387 . S
H1309 C1305 0.950 . S
H1310 C1307 0.950 . S
C1311 C1302 1.390 . S
C1311 H1304 0.950 . S
C1311 C1308 1.387 . S
C1312 C1313 1.387 . S
C1312 H1316 0.950 . S
C1312 C1321 1.390 . S
C1313 C1312 1.387 . S
C1313 C1315 1.387 . S
H1314 C1321 0.950 . S
C1315 C1313 1.387 . S
C1315 C1317 1.390 . S
C1315 H1319 0.950 . S
H1316 C1312 0.950 . S
C1317 C1315 1.390 . S
C1317 C1318 1.387 . S
C1317 H1320 0.950 . S
C1318 C1317 1.387 . S
C1318 C1321 1.387 . S
H1319 C1315 0.950 . S
H1320 C1317 0.950 . S
C1321 C1312 1.390 . S
C1321 H1314 0.950 . S
C1321 C1318 1.387 . S
C1322 C1323 1.387 . S
C1322 H1326 0.950 . S
C1322 C1331 1.390 . S
C1323 C1322 1.387 . S
C1323 C1325 1.387 . S
H1324 C1331 0.950 . S
C1325 C1323 1.387 . S
C1325 C1327 1.390 . S
C1325 H1329 0.950 . S
H1326 C1322 0.950 . S
C1327 C1325 1.390 . S
C1327 C1328 1.387 . S
C1327 H1330 0.950 . S
C1328 C1327 1.387 . S
C1328 C1331 1.387 . S
H1329 C1325 0.950 . S
H1330 C1327 0.950 . S
C1331 C1322 1.390 . S
C1331 H1324 0.950 . S
C1331 C1328 1.387 . S
C1332 C1333 1.387 . S
C1332 H1336 0.950 . S
C1332 C1341 1.390 . S
C1333 C1332 1.387 . S
C1333 C1335 1.387 . S
H1334 C1341 0.950 . S
C1335 C1333 1.387 . S
C1335 C1337 1.390 . S
C1335 H1339 0.950 . S
H1336 C1332 0.950 . S
C1337 C1335 1.390 . S
C1337 C1338 1.387 . S
C1337 H1340 0.950 . S
C1338 C1337 1.387 . S
C1338 C1341 1.387 . S
H1339 C1335 0.950 . S
H1340 C1337 0.950 . S
C1341 C1332 1.390 . S
C1341 H1334 0.950 . S
C1341 C1338 1.387 . S
C1342 C1343 1.387 . S
C1342 H1346 0.950 . S
C1342 C1351 1.390 . S
C1343 C1342 1.387 . S
C1343 C1345 1.387 . S
H1344 C1351 0.950 . S
C1345 C1343 1.387 . S
C1345 C1347 1.390 . S
C1345 H1349 0.950 . S
H1346 C1342 0.950 . S
C1347 C1345 1.390 . S
C1347 C1348 1.387 . S
C1347 H1350 0.950 . S
C1348 C1347 1.387 . S
C1348 C1351 1.387 . S
H1349 C1345 0.950 . S
H1350 C1347 0.950 . S
C1351 C1342 1.390 . S
C1351 H1344 0.950 . S
C1351 C1348 1.387 . S
C1352 C1353 1.387 . S
C1352 H1356 0.950 . S
C1352 C1361 1.390 . S
C1353 C1352 1.387 . S
C1353 C1355 1.387 . S
H1354 C1361 0.950 . S
C1355 C1353 1.387 . S
C1355 C1357 1.390 . S
C1355 H1359 0.950 . S
H1356 C1352 0.950 . S
C1357 C1355 1.390 . S
C1357 C1358 1.387 . S
C1357 H1360 0.950 . S
C1358 C1357 1.387 . S
C1358 C1361 1.387 . S
H1359 C1355 0.950 . S
H1360 C1357 0.950 . S
C1361 C1352 1.390 . S
C1361 H1354 0.950 . S
C1361 C1358 1.387 . S
C1362 C1363 1.387 . S
C1362 H1366 0.950 . S
C1362 C1371 1.390 . S
C1363 C1362 1.387 . S
C1363 C1365 1.387 . S
H1364 C1371 0.950 . S
C1365 C1363 1.387 . S
C1365 C1367 1.390 . S
C1365 H1369 0.950 . S
H1366 C1362 0.950 . S
C1367 C1365 1.390 . S
C1367 C1368 1.387 . S
C1367 H1370 0.950 . S
C1368 C1367 1.387 . S
C1368 C1371 1.387 . S
H1369 C1365 0.950 . S
H1370 C1367 0.950 . S
C1371 C1362 1.390 . S
C1371 H1364 0.950 . S
C1371 C1368 1.387 . S
C1372 C1373 1.387 . S
C1372 H1376 0.950 . S
C1372 C1381 1.390 . S
C1373 C1372 1.387 . S
C1373 C1375 1.387 . S
H1374 C1381 0.950 . S
C1375 C1373 1.387 . S
C1375 C1377 1.390 . S
C1375 H1379 0.950 . S
H1376 C1372 0.950 . S
C1377 C1375 1.390 . S
C1377 C1378 1.387 . S
C1377 H1380 0.950 . S
C1378 C1377 1.387 . S
C1378 C1381 1.387 . S
H1379 C1375 0.950 . S
H1380 C1377 0.950 . S
C1381 C1372 1.390 . S
C1381 H1374 0.950 . S
C1381 C1378 1.387 . S
C1382 C1383 1.387 . S
C1382 H1386 0.950 . S
C1382 C1391 1.390 . S
C1383 C1382 1.387 . S
C1383 C1385 1.387 . S
H1384 C1391 0.950 . S
C1385 C1383 1.387 . S
C1385 C1387 1.390 . S
C1385 H1389 0.950 . S
H1386 C1382 0.950 . S
C1387 C1385 1.390 . S
C1387 C1388 1.387 . S
C1387 H1390 0.950 . S
C1388 C1387 1.387 . S
C1388 C1391 1.387 . S
H1389 C1385 0.950 . S
H1390 C1387 0.950 . S
C1391 C1382 1.390 . S
C1391 H1384 0.950 . S
C1391 C1388 1.387 . S
C793 C186 1.168 . S
C798 C21 1.166 . S
C803 C54 1.169 . S
C808 C219 1.167 . S
C813 C87 1.167 . S
C818 C252 1.166 . S
C823 C153 1.167 . S
C828 C120 1.169 . S
C833 C285 1.169 . S
C838 C780 1.167 . S
C843 C714 1.169 . S
C848 C318 1.168 . S
C853 C351 1.166 . S
C858 C747 1.167 . S
C863 C549 1.167 . S
C868 C384 1.166 . S
C873 C417 1.169 . S
C878 C681 1.167 . S
C883 C450 1.167 . S
C888 C582 1.166 . S
C893 C615 1.166 . S
C898 C483 1.168 . S
C903 C516 1.167 . S
C908 C648 1.166 . S
C913 N101 1.633 . S
C918 C7 1.687 . S
C923 C40 1.688 . S
C928 N2 1.635 . S
C933 C73 1.686 . S
C938 N35 1.634 . S
C943 N68 1.635 . S
C948 C106 1.688 . S
C953 N167 1.635 . S
C958 C139 1.688 . S
C963 C172 1.688 . S
C968 N200 1.635 . S
C973 N233 1.635 . S
C978 C205 1.686 . S
C983 N134 1.636 . S
C988 C238 1.687 . S
C993 N596 1.632 . S
C998 C271 1.685 . S
C1003 C304 1.688 . S
C1008 N629 1.635 . S
C1013 N662 1.635 . S
C1018 C337 1.688 . S
C1023 C370 1.686 . S
C1028 N563 1.634 . S
C1033 N728 1.632 . S
C1038 C403 1.685 . S
C1043 C436 1.685 . S
C1048 N530 1.633 . S
C1053 N761 1.632 . S
C1058 C469 1.685 . S
C1063 C502 1.688 . S
C1068 N695 1.636 . S
C1073 N299 1.635 . S
C1078 C535 1.688 . S
C1083 N497 1.632 . S
C1088 C568 1.685 . S
C1093 C601 1.688 . S
C1098 N398 1.636 . S
C1103 C634 1.688 . S
C1108 N431 1.636 . S
C1113 N464 1.636 . S
C1118 C667 1.688 . S
C1123 N365 1.635 . S
C1128 C700 1.688 . S
C1133 N266 1.632 . S
C1138 C733 1.685 . S
C1143 C766 1.688 . S
C1148 N332 1.635 . S
C1153 C18 1.452 . S
C1158 N541 1.326 . S
C1163 N772 1.326 . S
C1168 C51 1.452 . S
C1173 C84 1.451 . S
C1178 N706 1.325 . S
C1183 N739 1.324 . S
C1188 C117 1.451 . S
C1193 C150 1.451 . S
C1198 N574 1.325 . S
C1203 C183 1.451 . S
C1208 N607 1.326 . S
C1213 N640 1.327 . S
C1218 C216 1.452 . S
C1223 N673 1.326 . S
C1228 C249 1.452 . S
C1233 N13 1.328 . S
C1238 C282 1.453 . S
C1243 C315 1.452 . S
C1248 N46 1.326 . S
C1253 C348 1.453 . S
C1258 N79 1.329 . S
C1263 C381 1.451 . S
C1268 N112 1.324 . S
C1273 C414 1.452 . S
C1278 N145 1.325 . S
C1283 C447 1.452 . S
C1288 N178 1.326 . S
C1293 C480 1.453 . S
C1298 N211 1.327 . S
C1303 C513 1.451 . S
C1308 N244 1.325 . S
C1313 N277 1.325 . S
C1318 C546 1.451 . S
C1323 C579 1.451 . S
C1328 N409 1.326 . S
C1333 C612 1.451 . S
C1338 N442 1.325 . S
C1343 N475 1.328 . S
C1348 C645 1.453 . S
C1353 C678 1.453 . S
C1358 N508 1.329 . S
C1363 N343 1.328 . S
C1368 C711 1.453 . S
C1373 N376 1.328 . S
C1378 C744 1.453 . S
C1383 C777 1.452 . S
C1388 N310 1.325 . S
