# Generated by pormake.
# Topology fcd, (5)-cn, num edge types: 1
# Building blocks:
#     Node 0, Type 0, BuildingBlock: XOMCOT_clean_sbu_1, # of connection points: 5
#     Node 1, Type 0, BuildingBlock: XOMCOT_clean_sbu_1, # of connection points: 5
#     Node 2, Type 0, BuildingBlock: XOMCOT_clean_sbu_1, # of connection points: 5
#     Node 3, Type 0, BuildingBlock: XOMCOT_clean_sbu_1, # of connection points: 5
#     Node 4, Type 0, BuildingBlock: XOMCOT_clean_sbu_1, # of connection points: 5
#     Node 5, Type 0, BuildingBlock: XOMCOT_clean_sbu_1, # of connection points: 5
#     Node 6, Type 0, BuildingBlock: XOMCOT_clean_sbu_1, # of connection points: 5
#     Node 7, Type 0, BuildingBlock: XOMCOT_clean_sbu_1, # of connection points: 5
#     Node 8, Type 0, BuildingBlock: XOMCOT_clean_sbu_1, # of connection points: 5
#     Node 9, Type 0, BuildingBlock: XOMCOT_clean_sbu_1, # of connection points: 5
#     Node 10, Type 0, BuildingBlock: XOMCOT_clean_sbu_1, # of connection points: 5
#     Node 11, Type 0, BuildingBlock: XOMCOT_clean_sbu_1, # of connection points: 5
#     Node 12, Type 0, BuildingBlock: XOMCOT_clean_sbu_1, # of connection points: 5
#     Node 13, Type 0, BuildingBlock: XOMCOT_clean_sbu_1, # of connection points: 5
#     Node 14, Type 0, BuildingBlock: XOMCOT_clean_sbu_1, # of connection points: 5
#     Node 15, Type 0, BuildingBlock: XOMCOT_clean_sbu_1, # of connection points: 5
#     Node 16, Type 0, BuildingBlock: XOMCOT_clean_sbu_1, # of connection points: 5
#     Node 17, Type 0, BuildingBlock: XOMCOT_clean_sbu_1, # of connection points: 5
#     Node 18, Type 0, BuildingBlock: XOMCOT_clean_sbu_1, # of connection points: 5
#     Node 19, Type 0, BuildingBlock: XOMCOT_clean_sbu_1, # of connection points: 5
#     Node 20, Type 0, BuildingBlock: XOMCOT_clean_sbu_1, # of connection points: 5
#     Node 21, Type 0, BuildingBlock: XOMCOT_clean_sbu_1, # of connection points: 5
#     Node 22, Type 0, BuildingBlock: XOMCOT_clean_sbu_1, # of connection points: 5
#     Node 23, Type 0, BuildingBlock: XOMCOT_clean_sbu_1, # of connection points: 5
#     Node 24, Type 0, BuildingBlock: XOMCOT_clean_sbu_1, # of connection points: 5
#     Node 25, Type 0, BuildingBlock: XOMCOT_clean_sbu_1, # of connection points: 5
#     Node 26, Type 0, BuildingBlock: XOMCOT_clean_sbu_1, # of connection points: 5
#     Node 27, Type 0, BuildingBlock: XOMCOT_clean_sbu_1, # of connection points: 5
#     Node 28, Type 0, BuildingBlock: XOMCOT_clean_sbu_1, # of connection points: 5
#     Node 29, Type 0, BuildingBlock: XOMCOT_clean_sbu_1, # of connection points: 5
#     Node 30, Type 0, BuildingBlock: XOMCOT_clean_sbu_1, # of connection points: 5
#     Node 31, Type 0, BuildingBlock: XOMCOT_clean_sbu_1, # of connection points: 5
#     Node 32, Type 0, BuildingBlock: XOMCOT_clean_sbu_1, # of connection points: 5
#     Node 33, Type 0, BuildingBlock: XOMCOT_clean_sbu_1, # of connection points: 5
#     Node 34, Type 0, BuildingBlock: XOMCOT_clean_sbu_1, # of connection points: 5
#     Node 35, Type 0, BuildingBlock: XOMCOT_clean_sbu_1, # of connection points: 5
#     Node 36, Type 0, BuildingBlock: XOMCOT_clean_sbu_1, # of connection points: 5
#     Node 37, Type 0, BuildingBlock: XOMCOT_clean_sbu_1, # of connection points: 5
#     Node 38, Type 0, BuildingBlock: XOMCOT_clean_sbu_1, # of connection points: 5
#     Node 39, Type 0, BuildingBlock: XOMCOT_clean_sbu_1, # of connection points: 5
#     Node 40, Type 0, BuildingBlock: XOMCOT_clean_sbu_1, # of connection points: 5
#     Node 41, Type 0, BuildingBlock: XOMCOT_clean_sbu_1, # of connection points: 5
#     Node 42, Type 0, BuildingBlock: XOMCOT_clean_sbu_1, # of connection points: 5
#     Node 43, Type 0, BuildingBlock: XOMCOT_clean_sbu_1, # of connection points: 5
#     Node 44, Type 0, BuildingBlock: XOMCOT_clean_sbu_1, # of connection points: 5
#     Node 45, Type 0, BuildingBlock: XOMCOT_clean_sbu_1, # of connection points: 5
#     Node 46, Type 0, BuildingBlock: XOMCOT_clean_sbu_1, # of connection points: 5
#     Node 47, Type 0, BuildingBlock: XOMCOT_clean_sbu_1, # of connection points: 5
#     Edge 48, Type (0, 0), None
#     Edge 49, Type (0, 0), None
#     Edge 50, Type (0, 0), None
#     Edge 51, Type (0, 0), None
#     Edge 52, Type (0, 0), None
#     Edge 53, Type (0, 0), None
#     Edge 54, Type (0, 0), None
#     Edge 55, Type (0, 0), None
#     Edge 56, Type (0, 0), None
#     Edge 57, Type (0, 0), None
#     Edge 58, Type (0, 0), None
#     Edge 59, Type (0, 0), None
#     Edge 60, Type (0, 0), None
#     Edge 61, Type (0, 0), None
#     Edge 62, Type (0, 0), None
#     Edge 63, Type (0, 0), None
#     Edge 64, Type (0, 0), None
#     Edge 65, Type (0, 0), None
#     Edge 66, Type (0, 0), None
#     Edge 67, Type (0, 0), None
#     Edge 68, Type (0, 0), None
#     Edge 69, Type (0, 0), None
#     Edge 70, Type (0, 0), None
#     Edge 71, Type (0, 0), None
#     Edge 72, Type (0, 0), None
#     Edge 73, Type (0, 0), None
#     Edge 74, Type (0, 0), None
#     Edge 75, Type (0, 0), None
#     Edge 76, Type (0, 0), None
#     Edge 77, Type (0, 0), None
#     Edge 78, Type (0, 0), None
#     Edge 79, Type (0, 0), None
#     Edge 80, Type (0, 0), None
#     Edge 81, Type (0, 0), None
#     Edge 82, Type (0, 0), None
#     Edge 83, Type (0, 0), None
#     Edge 84, Type (0, 0), None
#     Edge 85, Type (0, 0), None
#     Edge 86, Type (0, 0), None
#     Edge 87, Type (0, 0), None
#     Edge 88, Type (0, 0), None
#     Edge 89, Type (0, 0), None
#     Edge 90, Type (0, 0), None
#     Edge 91, Type (0, 0), None
#     Edge 92, Type (0, 0), None
#     Edge 93, Type (0, 0), None
#     Edge 94, Type (0, 0), None
#     Edge 95, Type (0, 0), None
#     Edge 96, Type (0, 0), None
#     Edge 97, Type (0, 0), None
#     Edge 98, Type (0, 0), None
#     Edge 99, Type (0, 0), None
#     Edge 100, Type (0, 0), None
#     Edge 101, Type (0, 0), None
#     Edge 102, Type (0, 0), None
#     Edge 103, Type (0, 0), None
#     Edge 104, Type (0, 0), None
#     Edge 105, Type (0, 0), None
#     Edge 106, Type (0, 0), None
#     Edge 107, Type (0, 0), None
#     Edge 108, Type (0, 0), None
#     Edge 109, Type (0, 0), None
#     Edge 110, Type (0, 0), None
#     Edge 111, Type (0, 0), None
#     Edge 112, Type (0, 0), None
#     Edge 113, Type (0, 0), None
#     Edge 114, Type (0, 0), None
#     Edge 115, Type (0, 0), None
#     Edge 116, Type (0, 0), None
#     Edge 117, Type (0, 0), None
#     Edge 118, Type (0, 0), None
#     Edge 119, Type (0, 0), None
#     Edge 120, Type (0, 0), None
#     Edge 121, Type (0, 0), None
#     Edge 122, Type (0, 0), None
#     Edge 123, Type (0, 0), None
#     Edge 124, Type (0, 0), None
#     Edge 125, Type (0, 0), None
#     Edge 126, Type (0, 0), None
#     Edge 127, Type (0, 0), None
#     Edge 128, Type (0, 0), None
#     Edge 129, Type (0, 0), None
#     Edge 130, Type (0, 0), None
#     Edge 131, Type (0, 0), None
#     Edge 132, Type (0, 0), None
#     Edge 133, Type (0, 0), None
#     Edge 134, Type (0, 0), None
#     Edge 135, Type (0, 0), None
#     Edge 136, Type (0, 0), None
#     Edge 137, Type (0, 0), None
#     Edge 138, Type (0, 0), None
#     Edge 139, Type (0, 0), None
#     Edge 140, Type (0, 0), None
#     Edge 141, Type (0, 0), None
#     Edge 142, Type (0, 0), None
#     Edge 143, Type (0, 0), None
#     Edge 144, Type (0, 0), None
#     Edge 145, Type (0, 0), None
#     Edge 146, Type (0, 0), None
#     Edge 147, Type (0, 0), None
#     Edge 148, Type (0, 0), None
#     Edge 149, Type (0, 0), None
#     Edge 150, Type (0, 0), None
#     Edge 151, Type (0, 0), None
#     Edge 152, Type (0, 0), None
#     Edge 153, Type (0, 0), None
#     Edge 154, Type (0, 0), None
#     Edge 155, Type (0, 0), None
#     Edge 156, Type (0, 0), None
#     Edge 157, Type (0, 0), None
#     Edge 158, Type (0, 0), None
#     Edge 159, Type (0, 0), None
#     Edge 160, Type (0, 0), None
#     Edge 161, Type (0, 0), None
#     Edge 162, Type (0, 0), None
#     Edge 163, Type (0, 0), None
#     Edge 164, Type (0, 0), None
#     Edge 165, Type (0, 0), None
#     Edge 166, Type (0, 0), None
#     Edge 167, Type (0, 0), None
# Relax obj value: 0.349
# Max RMSD: 0.262
# Mean RMSD: 0.262
data_MOF--net-fcd--node1-XOMCOT_clean_sbu_1--edge1-none
_symmetry_space_group_name_H-M    P1
_symmetry_Int_Tables_number       1
_symmetry_cell_setting            triclinic
loop_
_symmetry_equiv_pos_as_xyz
'x, y, z'
_cell_length_a     35.39988
_cell_length_b     35.399836
_cell_length_c     35.399846
_cell_angle_alpha  90.000343
_cell_angle_beta   90.000002
_cell_angle_gamma 89.999465
loop_
_atom_site_label
_atom_site_type_symbol
_atom_site_fract_x
_atom_site_fract_y
_atom_site_fract_z
_atom_type_partial_charge
C0 C 0.04417 0.18362 0.44745 0.0
C1 C 0.01224 0.20336 0.45751 0.0
N2 N 0.01748 0.23942 0.44723 0.0
N3 N 0.06879 0.20709 0.43006 0.0
C4 C 0.05172 0.24126 0.43064 0.0
H5 H 0.04802 0.15343 0.45009 0.0
Co6 Co 0.11025 0.18886 0.40304 0.0
C7 C 0.12845 0.25551 0.35331 0.0
O8 O 0.12467 0.23687 0.32143 0.0
N9 N 0.1525 0.16897 0.37665 0.0
C10 C 0.19369 0.12443 0.35976 0.0
C11 C 0.15621 0.13364 0.36242 0.0
C12 C 0.18864 0.18126 0.38045 0.0
N13 N 0.21406 0.15423 0.37135 0.0
O14 O 0.14157 0.19751 0.44617 0.0
H15 H 0.13382 0.11384 0.35715 0.0
H16 H 0.19607 0.20745 0.39441 0.0
O17 O 0.12262 0.23903 0.3849 0.0
C18 C 0.14104 0.16752 0.46584 0.0
O19 O 0.12354 0.13775 0.45221 0.0
N20 N 0.07658 0.17751 0.36367 0.0
C21 C 0.00558 0.15268 0.34046 0.0
C22 C 0.01666 0.19006 0.33372 0.0
C23 C 0.0524 0.2022 0.34612 0.0
C24 C 0.06623 0.14078 0.36851 0.0
C25 C 0.03147 0.12761 0.35632 0.0
H26 H 0.05782 0.23216 0.34631 0.0
H27 H 0.08212 0.12293 0.38741 0.0
H28 H 0.06246 0.26612 0.41645 0.0
H29 H 0.98666 0.192 0.4698 0.0
H30 H 0.20507 0.09716 0.35178 0.0
H31 H 0.99657 0.21052 0.32301 0.0
H32 H 0.02332 0.09889 0.36318 0.0
C33 C 0.96298 0.32358 0.44754 0.0
C34 C 0.99495 0.30387 0.45758 0.0
N35 N 0.98979 0.26784 0.44717 0.0
N36 N 0.93842 0.3001 0.43009 0.0
C37 C 0.95554 0.26595 0.43059 0.0
H38 H 0.95907 0.35374 0.45026 0.0
Co39 Co 0.89695 0.31831 0.40307 0.0
C40 C 0.87875 0.25167 0.35333 0.0
O41 O 0.88252 0.27032 0.32145 0.0
N42 N 0.85469 0.3382 0.37669 0.0
C43 C 0.8135 0.38273 0.3598 0.0
C44 C 0.85099 0.37353 0.36246 0.0
C45 C 0.81855 0.32591 0.38049 0.0
N46 N 0.79313 0.35294 0.37138 0.0
O47 O 0.86563 0.30965 0.4462 0.0
H48 H 0.87337 0.39333 0.3572 0.0
H49 H 0.81113 0.29971 0.39444 0.0
O50 O 0.88459 0.26815 0.38493 0.0
C51 C 0.86612 0.33964 0.46587 0.0
O52 O 0.88358 0.36943 0.45224 0.0
N53 N 0.93062 0.32968 0.36371 0.0
C54 C 1.00161 0.35454 0.3405 0.0
C55 C 0.99053 0.31717 0.33372 0.0
C56 C 0.9548 0.30501 0.34613 0.0
C57 C 0.94097 0.36642 0.36857 0.0
C58 C 0.97572 0.3796 0.35639 0.0
H59 H 0.94938 0.27505 0.34629 0.0
H60 H 0.92507 0.38425 0.38749 0.0
H61 H 0.94484 0.2411 0.41638 0.0
H62 H 0.02049 0.31524 0.46995 0.0
H63 H 0.80212 0.41001 0.35183 0.0
H64 H 0.01061 0.29672 0.32299 0.0
H65 H 0.98387 0.40831 0.36327 0.0
C66 C 0.04418 0.82357 0.05977 0.0
C67 C 0.01225 0.80383 0.0497 0.0
N68 N 0.01749 0.76777 0.05998 0.0
N69 N 0.0688 0.8001 0.07714 0.0
C70 C 0.05173 0.76592 0.07656 0.0
H71 H 0.04802 0.85375 0.05713 0.0
Co72 Co 0.11026 0.81831 0.10417 0.0
C73 C 0.12846 0.75165 0.15388 0.0
O74 O 0.12468 0.77029 0.18577 0.0
N75 N 0.15252 0.8382 0.13055 0.0
C76 C 0.19372 0.88272 0.14744 0.0
C77 C 0.15623 0.87352 0.14478 0.0
C78 C 0.18866 0.82591 0.12675 0.0
N79 N 0.21408 0.85293 0.13585 0.0
O80 O 0.14158 0.80967 0.06103 0.0
H81 H 0.13385 0.89333 0.15006 0.0
H82 H 0.19608 0.79971 0.11278 0.0
O83 O 0.12263 0.76814 0.12229 0.0
C84 C 0.14104 0.83965 0.04135 0.0
O85 O 0.12353 0.86942 0.05498 0.0
N86 N 0.07659 0.82966 0.14354 0.0
C87 C 0.00559 0.85449 0.16674 0.0
C88 C 0.01667 0.81711 0.17348 0.0
C89 C 0.05241 0.80497 0.16108 0.0
C90 C 0.06624 0.8664 0.13871 0.0
C91 C 0.03149 0.87956 0.15089 0.0
H92 H 0.05783 0.77501 0.16088 0.0
H93 H 0.08214 0.88425 0.11981 0.0
H94 H 0.06247 0.74106 0.09074 0.0
H95 H 0.98665 0.81519 0.03742 0.0
H96 H 0.20509 0.91 0.15543 0.0
H97 H 0.99658 0.79664 0.18418 0.0
H98 H 0.02334 0.90829 0.14404 0.0
C99 C 0.96299 0.68361 0.05968 0.0
C100 C 0.99495 0.70331 0.04964 0.0
N101 N 0.9898 0.73935 0.06004 0.0
N102 N 0.93842 0.70709 0.07712 0.0
C103 C 0.95555 0.74124 0.07661 0.0
H104 H 0.95908 0.65345 0.05696 0.0
Co105 Co 0.89696 0.68888 0.10414 0.0
C106 C 0.87875 0.75553 0.15387 0.0
O107 O 0.88252 0.73689 0.18575 0.0
N108 N 0.85469 0.669 0.13052 0.0
C109 C 0.8135 0.62447 0.1474 0.0
C110 C 0.85098 0.63367 0.14474 0.0
C111 C 0.81855 0.68129 0.12672 0.0
N112 N 0.79313 0.65426 0.13582 0.0
O113 O 0.86564 0.69755 0.06101 0.0
H114 H 0.87337 0.61387 0.15001 0.0
H115 H 0.81113 0.70749 0.11276 0.0
O116 O 0.8846 0.73905 0.12228 0.0
C117 C 0.86612 0.66755 0.04134 0.0
O118 O 0.88359 0.63777 0.05496 0.0
N119 N 0.93062 0.67751 0.14351 0.0
C120 C 1.00162 0.65267 0.16671 0.0
C121 C 0.99053 0.69005 0.17348 0.0
C122 C 0.9548 0.70219 0.16108 0.0
C123 C 0.94097 0.64078 0.13865 0.0
C124 C 0.97573 0.62761 0.15083 0.0
H125 H 0.94937 0.73215 0.16091 0.0
H126 H 0.92508 0.62294 0.11974 0.0
H127 H 0.94485 0.7661 0.09082 0.0
H128 H 0.0205 0.69195 0.03727 0.0
H129 H 0.80212 0.59719 0.15537 0.0
H130 H 0.01061 0.7105 0.18421 0.0
H131 H 0.98388 0.59889 0.14395 0.0
C132 C 0.44732 0.04413 0.18363 0.0
C133 C 0.45738 0.0122 0.20337 0.0
N134 N 0.44711 0.01746 0.23944 0.0
N135 N 0.42996 0.06877 0.2071 0.0
C136 C 0.43054 0.05171 0.24128 0.0
H137 H 0.44995 0.04798 0.15344 0.0
Co138 Co 0.40294 0.11023 0.18889 0.0
C139 C 0.35321 0.1284 0.25556 0.0
O140 O 0.32133 0.12461 0.23692 0.0
N141 N 0.37657 0.15251 0.16901 0.0
C142 C 0.35969 0.19373 0.1245 0.0
C143 C 0.36235 0.15624 0.13369 0.0
C144 C 0.38037 0.18864 0.18132 0.0
N145 N 0.37128 0.21408 0.15431 0.0
O146 O 0.44608 0.14155 0.19756 0.0
H147 H 0.35707 0.13387 0.11387 0.0
H148 H 0.39433 0.19604 0.20753 0.0
O149 O 0.3848 0.12259 0.23906 0.0
C150 C 0.46577 0.141 0.16758 0.0
O151 O 0.45215 0.1235 0.13781 0.0
N152 N 0.36357 0.07658 0.17751 0.0
C153 C 0.34036 0.00559 0.15263 0.0
C154 C 0.33362 0.01665 0.19002 0.0
C155 C 0.34603 0.05238 0.20218 0.0
C156 C 0.36841 0.06625 0.14077 0.0
C157 C 0.35622 0.03151 0.12758 0.0
H158 H 0.34622 0.05777 0.23215 0.0
H159 H 0.38731 0.08216 0.12293 0.0
H160 H 0.41637 0.06245 0.26614 0.0
H161 H 0.46964 0.98661 0.19201 0.0
H162 H 0.35171 0.20512 0.09724 0.0
H163 H 0.32292 0.99655 0.21047 0.0
H164 H 0.36308 0.02338 0.09885 0.0
C165 C 0.5599 0.46306 0.18363 0.0
C166 C 0.54984 0.49499 0.20337 0.0
N167 N 0.5601 0.48973 0.23944 0.0
N168 N 0.57726 0.43842 0.2071 0.0
C169 C 0.57667 0.45548 0.24128 0.0
H170 H 0.55728 0.45922 0.15344 0.0
Co171 Co 0.60427 0.39696 0.18889 0.0
C172 C 0.65399 0.37877 0.25556 0.0
O173 O 0.68588 0.38256 0.23693 0.0
N174 N 0.63064 0.35469 0.16901 0.0
C175 C 0.64749 0.31346 0.12449 0.0
C176 C 0.64484 0.35095 0.13367 0.0
C177 C 0.62685 0.31855 0.18132 0.0
N178 N 0.63593 0.29311 0.15431 0.0
O179 O 0.56113 0.36564 0.19754 0.0
H180 H 0.65009 0.37332 0.11385 0.0
H181 H 0.61291 0.31115 0.20754 0.0
O182 O 0.6224 0.38459 0.23906 0.0
C183 C 0.54144 0.36619 0.16756 0.0
O184 O 0.55506 0.3837 0.1378 0.0
N185 N 0.64365 0.43062 0.17753 0.0
C186 C 0.66688 0.5016 0.15267 0.0
C187 C 0.6736 0.49054 0.19006 0.0
C188 C 0.66119 0.45481 0.20221 0.0
C189 C 0.63883 0.44095 0.14079 0.0
C190 C 0.65103 0.4757 0.12761 0.0
H191 H 0.66098 0.4494 0.23218 0.0
H192 H 0.61993 0.42506 0.12293 0.0
H193 H 0.59084 0.44473 0.26614 0.0
H194 H 0.53758 0.52059 0.19202 0.0
H195 H 0.65545 0.30206 0.09722 0.0
H196 H 0.68429 0.51063 0.21052 0.0
H197 H 0.64418 0.48384 0.09888 0.0
C198 C 0.44735 0.96298 0.3236 0.0
C199 C 0.4574 0.99494 0.30391 0.0
N200 N 0.44703 0.98977 0.26785 0.0
N201 N 0.42993 0.9384 0.30011 0.0
C202 C 0.43048 0.95552 0.26596 0.0
H203 H 0.45004 0.95907 0.35377 0.0
Co204 Co 0.40292 0.89692 0.3183 0.0
C205 C 0.35322 0.87874 0.25161 0.0
O206 O 0.32133 0.88249 0.27024 0.0
N207 N 0.37654 0.85465 0.33816 0.0
C208 C 0.35967 0.81343 0.38267 0.0
C209 C 0.36232 0.85092 0.37349 0.0
C210 C 0.38036 0.81851 0.32586 0.0
N211 N 0.37126 0.79308 0.35287 0.0
O212 O 0.44606 0.86562 0.30964 0.0
H213 H 0.35704 0.87329 0.3933 0.0
H214 H 0.39432 0.81111 0.29966 0.0
O215 O 0.3848 0.88458 0.26812 0.0
C216 C 0.46574 0.86611 0.33963 0.0
O217 O 0.45211 0.88358 0.36942 0.0
N218 N 0.36354 0.93058 0.32966 0.0
C219 C 0.34032 1.00156 0.35452 0.0
C220 C 0.33358 0.99049 0.31714 0.0
C221 C 0.34598 0.95476 0.30498 0.0
C222 C 0.36837 0.94091 0.3664 0.0
C223 C 0.35618 0.97566 0.37958 0.0
H224 H 0.34617 0.94935 0.27502 0.0
H225 H 0.38728 0.92502 0.38425 0.0
H226 H 0.41629 0.9448 0.24109 0.0
H227 H 0.46974 0.02049 0.31528 0.0
H228 H 0.35169 0.80204 0.40994 0.0
H229 H 0.32287 0.01058 0.29668 0.0
H230 H 0.36305 0.98381 0.40831 0.0
C231 C 0.55987 0.54421 0.32361 0.0
C232 C 0.54982 0.51225 0.30391 0.0
N233 N 0.56018 0.51742 0.26786 0.0
N234 N 0.57729 0.56879 0.30012 0.0
C235 C 0.57674 0.55167 0.26597 0.0
H236 H 0.55718 0.54811 0.35378 0.0
Co237 Co 0.60431 0.61026 0.31831 0.0
C238 C 0.65401 0.62844 0.25163 0.0
O239 O 0.6859 0.62468 0.27025 0.0
N240 N 0.63068 0.65253 0.33818 0.0
C241 C 0.64754 0.69375 0.38269 0.0
C242 C 0.64489 0.65626 0.37351 0.0
C243 C 0.62688 0.68866 0.32586 0.0
N244 N 0.63596 0.7141 0.35288 0.0
O245 O 0.56116 0.64157 0.30965 0.0
H246 H 0.65015 0.63389 0.39333 0.0
H247 H 0.61293 0.69606 0.29966 0.0
O248 O 0.62242 0.62261 0.26813 0.0
C249 C 0.54149 0.64108 0.33964 0.0
O250 O 0.55512 0.62361 0.36943 0.0
N251 N 0.64368 0.5766 0.32967 0.0
C252 C 0.6669 0.50561 0.35452 0.0
C253 C 0.67364 0.51668 0.31714 0.0
C254 C 0.66124 0.55242 0.30499 0.0
C255 C 0.63885 0.56626 0.36641 0.0
C256 C 0.65104 0.53151 0.37959 0.0
H257 H 0.66105 0.55783 0.27503 0.0
H258 H 0.61995 0.58216 0.38426 0.0
H259 H 0.59093 0.56238 0.2411 0.0
H260 H 0.53747 0.4867 0.31528 0.0
H261 H 0.6555 0.70515 0.40996 0.0
H262 H 0.68434 0.49659 0.29668 0.0
H263 H 0.64418 0.52337 0.40831 0.0
C264 C 0.18353 0.44722 0.04419 0.0
C265 C 0.20327 0.4573 0.01226 0.0
N266 N 0.23935 0.44708 0.01753 0.0
N267 N 0.20701 0.42989 0.06883 0.0
C268 C 0.2412 0.43052 0.05179 0.0
H269 H 0.15334 0.44981 0.04801 0.0
Co270 Co 0.18881 0.40287 0.1103 0.0
C271 C 0.2555 0.35321 0.12854 0.0
O272 O 0.23688 0.32131 0.12476 0.0
N273 N 0.16893 0.37649 0.15256 0.0
C274 C 0.12441 0.35962 0.19377 0.0
C275 C 0.13361 0.36227 0.15628 0.0
C276 C 0.18123 0.3803 0.1887 0.0
N277 N 0.15421 0.37121 0.21413 0.0
O278 O 0.19741 0.44602 0.1416 0.0
H279 H 0.1138 0.357 0.13391 0.0
H280 H 0.20743 0.39426 0.19611 0.0
O281 O 0.23899 0.38479 0.12269 0.0
C282 C 0.16743 0.4657 0.14103 0.0
O283 O 0.13768 0.45206 0.12351 0.0
N284 N 0.17751 0.36348 0.07664 0.0
C285 C 0.15275 0.34026 0.00562 0.0
C286 C 0.19013 0.33357 0.01672 0.0
C287 C 0.20223 0.34597 0.05247 0.0
C288 C 0.14077 0.36826 0.06628 0.0
C289 C 0.12764 0.35606 0.03151 0.0
H290 H 0.23219 0.3462 0.0579 0.0
H291 H 0.12288 0.38714 0.08216 0.0
H292 H 0.26607 0.41638 0.06255 0.0
H293 H 0.19191 0.46955 0.98666 0.0
H294 H 0.09714 0.35165 0.20516 0.0
H295 H 0.21062 0.32291 0.99664 0.0
H296 H 0.09891 0.36289 0.02335 0.0
C297 C 0.18357 0.55989 0.46296 0.0
C298 C 0.20331 0.54982 0.49489 0.0
N299 N 0.23939 0.56005 0.48963 0.0
N300 N 0.20705 0.57724 0.43833 0.0
C301 C 0.24124 0.57663 0.45538 0.0
H302 H 0.15338 0.55729 0.45913 0.0
Co303 Co 0.18885 0.60427 0.39687 0.0
C304 C 0.25553 0.65395 0.37864 0.0
O305 O 0.23691 0.68584 0.38241 0.0
N306 N 0.16897 0.63066 0.35461 0.0
C307 C 0.12444 0.64753 0.3134 0.0
C308 C 0.13364 0.64488 0.35089 0.0
C309 C 0.18126 0.62685 0.31847 0.0
N310 N 0.15423 0.63594 0.29304 0.0
O311 O 0.19746 0.56113 0.36555 0.0
H312 H 0.11383 0.65015 0.37327 0.0
H313 H 0.20746 0.61288 0.31105 0.0
O314 O 0.23903 0.62236 0.38448 0.0
C315 C 0.16747 0.54146 0.3661 0.0
O316 O 0.13771 0.5551 0.38361 0.0
N317 N 0.17753 0.64366 0.43053 0.0
C318 C 0.15274 0.66688 0.50153 0.0
C319 C 0.19013 0.67359 0.49044 0.0
C320 C 0.20224 0.66118 0.4547 0.0
C321 C 0.14079 0.63886 0.44088 0.0
C322 C 0.12765 0.65106 0.47564 0.0
H323 H 0.2322 0.66096 0.44927 0.0
H324 H 0.12292 0.61997 0.425 0.0
H325 H 0.2661 0.59078 0.44463 0.0
H326 H 0.19195 0.53755 0.52048 0.0
H327 H 0.09716 0.6555 0.30202 0.0
H328 H 0.21061 0.68426 0.51053 0.0
H329 H 0.09892 0.64422 0.4838 0.0
C330 C 0.82364 0.94728 0.46298 0.0
C331 C 0.8039 0.95736 0.4949 0.0
N332 N 0.76783 0.94712 0.48964 0.0
N333 N 0.80016 0.92994 0.43834 0.0
C334 C 0.76598 0.93056 0.45538 0.0
H335 H 0.85383 0.94989 0.45914 0.0
Co336 Co 0.81837 0.90291 0.39688 0.0
C337 C 0.7517 0.85324 0.37863 0.0
O338 O 0.77032 0.82135 0.38241 0.0
N339 N 0.83826 0.87653 0.35462 0.0
C340 C 0.88279 0.85966 0.31342 0.0
C341 C 0.87359 0.86231 0.3509 0.0
C342 C 0.82596 0.88033 0.31848 0.0
N343 N 0.85298 0.87124 0.29306 0.0
O344 O 0.80977 0.94606 0.36556 0.0
H345 H 0.8934 0.85705 0.37328 0.0
H346 H 0.79976 0.89428 0.31107 0.0
O347 O 0.76819 0.88482 0.38449 0.0
C348 C 0.83976 0.96573 0.36612 0.0
O349 O 0.86951 0.95209 0.38364 0.0
N350 N 0.82968 0.86353 0.43054 0.0
C351 C 0.85445 0.84032 0.50156 0.0
C352 C 0.81707 0.83361 0.49046 0.0
C353 C 0.80496 0.84601 0.45471 0.0
C354 C 0.86642 0.86832 0.4409 0.0
C355 C 0.87955 0.85613 0.47567 0.0
H356 H 0.775 0.84623 0.44927 0.0
H357 H 0.8843 0.88721 0.42502 0.0
H358 H 0.74111 0.91641 0.44463 0.0
H359 H 0.81526 0.96962 0.5205 0.0
H360 H 0.91006 0.85169 0.30204 0.0
H361 H 0.79658 0.82294 0.51054 0.0
H362 H 0.90828 0.86297 0.48384 0.0
C363 C 0.32356 0.55972 0.54409 0.0
C364 C 0.30385 0.5497 0.51213 0.0
N365 N 0.26781 0.5601 0.51731 0.0
N366 N 0.30009 0.57716 0.56868 0.0
C367 C 0.26594 0.57665 0.55157 0.0
H368 H 0.35373 0.557 0.54799 0.0
Co369 Co 0.31832 0.60417 0.61014 0.0
C370 C 0.25169 0.65393 0.62833 0.0
O371 O 0.27034 0.6858 0.62454 0.0
N372 N 0.33821 0.63054 0.65241 0.0
C373 C 0.38273 0.64741 0.69363 0.0
C374 C 0.37355 0.64473 0.65613 0.0
C375 C 0.32589 0.62676 0.68854 0.0
N376 N 0.35291 0.63586 0.71398 0.0
O377 O 0.30965 0.56103 0.64146 0.0
H378 H 0.39337 0.64997 0.63376 0.0
H379 H 0.29968 0.61283 0.69595 0.0
O380 O 0.26816 0.62233 0.62251 0.0
C381 C 0.33963 0.54135 0.64094 0.0
O382 O 0.36941 0.55497 0.62345 0.0
N383 N 0.3297 0.64353 0.57648 0.0
C384 C 0.35458 0.66672 0.50549 0.0
C385 C 0.3172 0.6735 0.51656 0.0
C386 C 0.30504 0.6611 0.55229 0.0
C387 C 0.36644 0.63866 0.56614 0.0
C388 C 0.37962 0.65084 0.53138 0.0
H389 H 0.27507 0.66093 0.5577 0.0
H390 H 0.38427 0.61975 0.58204 0.0
H391 H 0.24109 0.59086 0.56228 0.0
H392 H 0.3152 0.53735 0.48657 0.0
H393 H 0.41 0.65537 0.70502 0.0
H394 H 0.29675 0.68423 0.49647 0.0
H395 H 0.40834 0.64396 0.52324 0.0
C396 C 0.963 0.82357 0.55974 0.0
C397 C 0.99493 0.80383 0.54968 0.0
N398 N 0.98969 0.76777 0.55996 0.0
N399 N 0.93838 0.8001 0.57712 0.0
C400 C 0.95544 0.76592 0.57654 0.0
H401 H 0.95916 0.85376 0.55711 0.0
Co402 Co 0.89692 0.81832 0.60415 0.0
C403 C 0.87872 0.75167 0.65387 0.0
O404 O 0.8825 0.77031 0.68575 0.0
N405 N 0.85467 0.83822 0.63053 0.0
C406 C 0.81348 0.88275 0.64742 0.0
C407 C 0.85096 0.87354 0.64476 0.0
C408 C 0.81853 0.82593 0.62673 0.0
N409 N 0.79311 0.85296 0.63584 0.0
O410 O 0.8656 0.80968 0.56102 0.0
H411 H 0.87334 0.89334 0.65004 0.0
H412 H 0.81111 0.79973 0.61277 0.0
O413 O 0.88455 0.76816 0.62228 0.0
C414 C 0.86615 0.83966 0.54134 0.0
O415 O 0.88365 0.86943 0.55496 0.0
N416 N 0.93059 0.82967 0.64352 0.0
C417 C 1.00159 0.8545 0.66672 0.0
C418 C 0.99051 0.81712 0.67346 0.0
C419 C 0.95477 0.80498 0.66106 0.0
C420 C 0.94094 0.86641 0.63868 0.0
C421 C 0.9757 0.87958 0.65086 0.0
H422 H 0.94935 0.77502 0.66087 0.0
H423 H 0.92505 0.88426 0.61978 0.0
H424 H 0.94471 0.74107 0.59073 0.0
H425 H 0.02052 0.81519 0.5374 0.0
H426 H 0.8021 0.91002 0.6554 0.0
H427 H 0.0106 0.79666 0.68417 0.0
H428 H 0.98385 0.9083 0.644 0.0
C429 C 0.04418 0.68361 0.55965 0.0
C430 C 0.01222 0.70331 0.54962 0.0
N431 N 0.01738 0.73935 0.56002 0.0
N432 N 0.06875 0.70708 0.5771 0.0
C433 C 0.05163 0.74123 0.57659 0.0
H434 H 0.04809 0.65344 0.55693 0.0
Co435 Co 0.11021 0.68887 0.60412 0.0
C436 C 0.12842 0.75551 0.65386 0.0
O437 O 0.12464 0.73686 0.68573 0.0
N438 N 0.15247 0.66897 0.63049 0.0
C439 C 0.19367 0.62443 0.64734 0.0
C440 C 0.15618 0.63365 0.64472 0.0
C441 C 0.18862 0.68126 0.62667 0.0
N442 N 0.21403 0.65421 0.63573 0.0
O443 O 0.14153 0.69753 0.56098 0.0
H444 H 0.1338 0.61385 0.65001 0.0
H445 H 0.19604 0.70746 0.61273 0.0
O446 O 0.12258 0.73903 0.62226 0.0
C447 C 0.14103 0.66754 0.54132 0.0
O448 O 0.12357 0.63775 0.55494 0.0
N449 N 0.07655 0.67749 0.64348 0.0
C450 C 0.00556 0.65264 0.66668 0.0
C451 C 0.01664 0.69001 0.67346 0.0
C452 C 0.05237 0.70217 0.66106 0.0
C453 C 0.0662 0.64076 0.63862 0.0
C454 C 0.03145 0.62758 0.65079 0.0
H455 H 0.05779 0.73213 0.66089 0.0
H456 H 0.0821 0.62292 0.6197 0.0
H457 H 0.06233 0.76609 0.59081 0.0
H458 H 0.98667 0.69195 0.53725 0.0
H459 H 0.20504 0.59716 0.65534 0.0
H460 H 0.99656 0.71046 0.68419 0.0
H461 H 0.0233 0.59886 0.64391 0.0
C462 C 0.96301 0.18361 0.94741 0.0
C463 C 0.99494 0.20335 0.95748 0.0
N464 N 0.9897 0.23941 0.94721 0.0
N465 N 0.93839 0.20708 0.93004 0.0
C466 C 0.95545 0.24126 0.93063 0.0
H467 H 0.95917 0.15342 0.95004 0.0
Co468 Co 0.89693 0.18887 0.90302 0.0
C469 C 0.87872 0.25553 0.8533 0.0
O470 O 0.8825 0.23689 0.82142 0.0
N471 N 0.85467 0.16898 0.87664 0.0
C472 C 0.81347 0.12446 0.85974 0.0
C473 C 0.85095 0.13366 0.8624 0.0
C474 C 0.81852 0.18127 0.88045 0.0
N475 N 0.7931 0.15425 0.87134 0.0
O476 O 0.86561 0.19751 0.94615 0.0
H477 H 0.87333 0.11386 0.85711 0.0
H478 H 0.81111 0.20747 0.89441 0.0
O479 O 0.88456 0.23904 0.88489 0.0
C480 C 0.86616 0.16753 0.96584 0.0
O481 O 0.88366 0.13777 0.95221 0.0
N482 N 0.93059 0.17752 0.86364 0.0
C483 C 1.00159 0.15269 0.84043 0.0
C484 C 0.99051 0.19007 0.8337 0.0
C485 C 0.95477 0.20221 0.8461 0.0
C486 C 0.94094 0.14078 0.86847 0.0
C487 C 0.97569 0.12762 0.85628 0.0
H488 H 0.94935 0.23217 0.8463 0.0
H489 H 0.92504 0.12293 0.88737 0.0
H490 H 0.94471 0.26612 0.91645 0.0
H491 H 0.02054 0.19199 0.96975 0.0
H492 H 0.80209 0.09719 0.85175 0.0
H493 H 0.0106 0.21054 0.823 0.0
H494 H 0.98384 0.09889 0.86314 0.0
C495 C 0.0442 0.32357 0.9475 0.0
C496 C 0.01223 0.30387 0.95754 0.0
N497 N 0.01739 0.26783 0.94714 0.0
N498 N 0.06876 0.30009 0.93005 0.0
C499 C 0.05164 0.26594 0.93057 0.0
H500 H 0.04811 0.35374 0.95021 0.0
Co501 Co 0.11023 0.31829 0.90303 0.0
C502 C 0.12843 0.25164 0.8533 0.0
O503 O 0.12466 0.27029 0.82142 0.0
N504 N 0.15249 0.33818 0.87665 0.0
C505 C 0.19369 0.3827 0.85977 0.0
C506 C 0.1562 0.3735 0.86242 0.0
C507 C 0.18863 0.32588 0.88046 0.0
N508 N 0.21406 0.35291 0.87136 0.0
O509 O 0.14155 0.30963 0.94616 0.0
H510 H 0.13382 0.3933 0.85715 0.0
H511 H 0.19605 0.29969 0.89442 0.0
O512 O 0.12258 0.26812 0.8849 0.0
C513 C 0.14105 0.33962 0.96584 0.0
O514 O 0.12359 0.36941 0.95221 0.0
N515 N 0.07656 0.32967 0.86367 0.0
C516 C 0.00557 0.35452 0.84047 0.0
C517 C 0.01665 0.31714 0.8337 0.0
C518 C 0.05239 0.30499 0.8461 0.0
C519 C 0.06622 0.3664 0.86853 0.0
C520 C 0.03146 0.37958 0.85635 0.0
H521 H 0.05781 0.27503 0.84627 0.0
H522 H 0.08212 0.38424 0.88744 0.0
H523 H 0.06234 0.24108 0.91636 0.0
H524 H 0.98669 0.31524 0.9699 0.0
H525 H 0.20507 0.40998 0.85179 0.0
H526 H 0.99657 0.29669 0.82298 0.0
H527 H 0.02331 0.4083 0.86323 0.0
C528 C 0.55984 0.96305 0.82355 0.0
C529 C 0.54979 0.99498 0.80381 0.0
N530 N 0.56006 0.98973 0.76774 0.0
N531 N 0.57721 0.93842 0.80008 0.0
C532 C 0.57663 0.95548 0.7659 0.0
H533 H 0.55721 0.9592 0.85373 0.0
Co534 Co 0.60422 0.89695 0.81829 0.0
C535 C 0.65396 0.87878 0.75162 0.0
O536 O 0.68584 0.88257 0.77025 0.0
N537 N 0.6306 0.85468 0.83817 0.0
C538 C 0.64748 0.81345 0.88267 0.0
C539 C 0.64482 0.85094 0.87349 0.0
C540 C 0.62679 0.81854 0.82586 0.0
N541 N 0.63589 0.7931 0.85287 0.0
O542 O 0.56108 0.86564 0.80962 0.0
H543 H 0.6501 0.87331 0.8933 0.0
H544 H 0.61283 0.81114 0.79965 0.0
O545 O 0.62237 0.88459 0.76811 0.0
C546 C 0.5414 0.86618 0.8396 0.0
O547 O 0.55502 0.88368 0.86937 0.0
N548 N 0.64359 0.93061 0.82966 0.0
C549 C 0.66682 1.00158 0.85456 0.0
C550 C 0.67356 0.99053 0.81716 0.0
C551 C 0.66115 0.9548 0.80499 0.0
C552 C 0.63876 0.94093 0.86641 0.0
C553 C 0.65096 0.97567 0.8796 0.0
H554 H 0.66095 0.94941 0.77503 0.0
H555 H 0.61985 0.92503 0.88425 0.0
H556 H 0.5908 0.94473 0.74104 0.0
H557 H 0.53752 0.02057 0.81516 0.0
H558 H 0.65546 0.80206 0.90994 0.0
H559 H 0.68427 0.01063 0.79672 0.0
H560 H 0.6441 0.9838 0.90833 0.0
C561 C 0.44728 0.54413 0.82353 0.0
C562 C 0.45734 0.5122 0.80379 0.0
N563 N 0.44707 0.51745 0.76772 0.0
N564 N 0.42991 0.56876 0.80006 0.0
C565 C 0.4305 0.5517 0.76588 0.0
H566 H 0.44991 0.54797 0.85371 0.0
Co567 Co 0.4029 0.61022 0.81828 0.0
C568 C 0.35317 0.62843 0.75163 0.0
O569 O 0.32129 0.62462 0.77026 0.0
N570 N 0.37653 0.65249 0.83818 0.0
C571 C 0.35969 0.69371 0.8827 0.0
C572 C 0.36234 0.65622 0.87351 0.0
C573 C 0.38032 0.68862 0.82586 0.0
N574 N 0.37124 0.71406 0.85288 0.0
O575 O 0.44604 0.64154 0.80963 0.0
H576 H 0.3571 0.63385 0.89334 0.0
H577 H 0.39425 0.69603 0.79964 0.0
O578 O 0.38476 0.6226 0.76811 0.0
C579 C 0.46573 0.64099 0.83961 0.0
O580 O 0.45211 0.62348 0.86938 0.0
N581 N 0.36353 0.57656 0.82964 0.0
C582 C 0.3403 0.50557 0.8545 0.0
C583 C 0.33357 0.51664 0.81711 0.0
C584 C 0.34598 0.55237 0.80496 0.0
C585 C 0.36835 0.56623 0.86638 0.0
C586 C 0.35615 0.53148 0.87956 0.0
H587 H 0.34619 0.55778 0.77499 0.0
H588 H 0.38726 0.58211 0.88423 0.0
H589 H 0.41632 0.56245 0.74102 0.0
H590 H 0.46961 0.4866 0.81514 0.0
H591 H 0.35174 0.70511 0.90997 0.0
H592 H 0.32288 0.49655 0.79665 0.0
H593 H 0.36301 0.52334 0.90829 0.0
C594 C 0.55982 0.04421 0.68358 0.0
C595 C 0.54977 0.01225 0.70327 0.0
N596 N 0.56014 0.01742 0.73932 0.0
N597 N 0.57724 0.06879 0.70707 0.0
C598 C 0.5767 0.05167 0.74122 0.0
H599 H 0.55713 0.04812 0.65341 0.0
Co600 Co 0.60426 0.11026 0.68889 0.0
C601 C 0.65396 0.12844 0.75558 0.0
O602 O 0.68585 0.12468 0.73695 0.0
N603 N 0.63064 0.15254 0.66903 0.0
C604 C 0.64752 0.19376 0.62452 0.0
C605 C 0.64488 0.15627 0.63371 0.0
C606 C 0.62683 0.18867 0.68133 0.0
N607 N 0.63593 0.21411 0.65432 0.0
O608 O 0.56112 0.14157 0.69755 0.0
H609 H 0.65016 0.13389 0.6139 0.0
H610 H 0.61286 0.19608 0.70753 0.0
O611 O 0.62238 0.1226 0.73907 0.0
C612 C 0.54145 0.14108 0.66756 0.0
O613 O 0.55508 0.12362 0.63777 0.0
N614 N 0.64364 0.07661 0.67752 0.0
C615 C 0.66685 0.00562 0.65265 0.0
C616 C 0.6736 0.01669 0.69004 0.0
C617 C 0.66119 0.05242 0.7022 0.0
C618 C 0.6388 0.06627 0.64078 0.0
C619 C 0.65099 0.03152 0.6276 0.0
H620 H 0.66101 0.05783 0.73216 0.0
H621 H 0.6199 0.08218 0.62294 0.0
H622 H 0.59089 0.06238 0.76609 0.0
H623 H 0.53742 0.9867 0.6919 0.0
H624 H 0.65551 0.20515 0.59725 0.0
H625 H 0.68431 0.99659 0.71049 0.0
H626 H 0.64413 0.02339 0.59887 0.0
C627 C 0.4473 0.46297 0.68356 0.0
C628 C 0.45735 0.49493 0.70325 0.0
N629 N 0.44699 0.48977 0.7393 0.0
N630 N 0.42989 0.43839 0.70705 0.0
C631 C 0.43043 0.45551 0.7412 0.0
H632 H 0.44999 0.45906 0.65339 0.0
Co633 Co 0.40287 0.39692 0.68886 0.0
C634 C 0.35317 0.37873 0.75555 0.0
O635 O 0.32128 0.38249 0.73692 0.0
N636 N 0.37649 0.35465 0.669 0.0
C637 C 0.35964 0.31342 0.62448 0.0
C638 C 0.36228 0.35092 0.63367 0.0
C639 C 0.38029 0.31851 0.68131 0.0
N640 N 0.37121 0.29308 0.65429 0.0
O641 O 0.44601 0.36561 0.69752 0.0
H642 H 0.35702 0.37329 0.61385 0.0
H643 H 0.39425 0.31111 0.70752 0.0
O644 O 0.38476 0.38457 0.73904 0.0
C645 C 0.46569 0.3661 0.66753 0.0
O646 O 0.45206 0.38356 0.63774 0.0
N647 N 0.36349 0.43057 0.6775 0.0
C648 C 0.34029 0.50157 0.65267 0.0
C649 C 0.33354 0.49049 0.69005 0.0
C650 C 0.34594 0.45476 0.70219 0.0
C651 C 0.36832 0.44092 0.64077 0.0
C652 C 0.35614 0.47567 0.6276 0.0
H653 H 0.34613 0.44934 0.73216 0.0
H654 H 0.38722 0.42502 0.62291 0.0
H655 H 0.41625 0.4448 0.76607 0.0
H656 H 0.4697 0.52048 0.69188 0.0
H657 H 0.35168 0.30203 0.59721 0.0
H658 H 0.32284 0.51059 0.71051 0.0
H659 H 0.363 0.48382 0.59887 0.0
C660 C 0.82365 0.55995 0.96298 0.0
C661 C 0.80391 0.54988 0.99491 0.0
N662 N 0.76783 0.56009 0.98964 0.0
N663 N 0.80016 0.57729 0.93834 0.0
C664 C 0.76598 0.57665 0.95539 0.0
H665 H 0.85384 0.55737 0.95916 0.0
Co666 Co 0.81836 0.60431 0.89688 0.0
C667 C 0.75167 0.65398 0.87864 0.0
O668 O 0.77029 0.68587 0.88242 0.0
N669 N 0.83823 0.6307 0.85462 0.0
C670 C 0.88275 0.64757 0.8134 0.0
C671 C 0.87356 0.64492 0.85089 0.0
C672 C 0.82593 0.62689 0.81848 0.0
N673 N 0.85295 0.63598 0.79305 0.0
O674 O 0.80976 0.56116 0.86557 0.0
H675 H 0.89337 0.65019 0.87327 0.0
H676 H 0.79974 0.61292 0.81107 0.0
O677 O 0.76818 0.6224 0.88449 0.0
C678 C 0.83975 0.54149 0.86614 0.0
O679 O 0.8695 0.55513 0.88366 0.0
N680 N 0.82967 0.64371 0.93053 0.0
C681 C 0.85443 0.66691 1.00155 0.0
C682 C 0.81704 0.67361 0.99046 0.0
C683 C 0.80494 0.66121 0.95471 0.0
C684 C 0.86641 0.63893 0.94089 0.0
C685 C 0.87954 0.65111 0.97566 0.0
H686 H 0.77498 0.66098 0.94928 0.0
H687 H 0.88429 0.62004 0.92501 0.0
H688 H 0.7411 0.59079 0.94463 0.0
H689 H 0.81527 0.53763 0.02051 0.0
H690 H 0.91002 0.65554 0.80202 0.0
H691 H 0.79655 0.68427 0.01054 0.0
H692 H 0.90827 0.64429 0.98383 0.0
C693 C 0.82363 0.44727 0.54423 0.0
C694 C 0.8039 0.45735 0.5123 0.0
N695 N 0.76782 0.44711 0.51756 0.0
N696 N 0.80014 0.42992 0.56886 0.0
C697 C 0.76596 0.43055 0.55181 0.0
H698 H 0.85382 0.44987 0.54806 0.0
Co699 Co 0.81834 0.4029 0.61032 0.0
C700 C 0.75165 0.35323 0.62856 0.0
O701 O 0.77028 0.32134 0.62479 0.0
N702 N 0.83822 0.37651 0.65258 0.0
C703 C 0.88275 0.35965 0.69379 0.0
C704 C 0.87355 0.36229 0.6563 0.0
C705 C 0.82592 0.38032 0.68872 0.0
N706 N 0.85295 0.37123 0.71415 0.0
O707 O 0.80973 0.44604 0.64163 0.0
H708 H 0.89336 0.35702 0.63392 0.0
H709 H 0.79973 0.39428 0.69613 0.0
O710 O 0.76816 0.38481 0.62271 0.0
C711 C 0.83972 0.46571 0.64109 0.0
O712 O 0.86948 0.45208 0.62358 0.0
N713 N 0.82965 0.36351 0.57666 0.0
C714 C 0.85442 0.34029 0.50565 0.0
C715 C 0.81704 0.33359 0.51675 0.0
C716 C 0.80493 0.34599 0.55249 0.0
C717 C 0.86639 0.3683 0.5663 0.0
C718 C 0.87953 0.3561 0.53154 0.0
H719 H 0.77497 0.34622 0.55793 0.0
H720 H 0.88427 0.38718 0.58218 0.0
H721 H 0.74109 0.4164 0.56256 0.0
H722 H 0.81526 0.46961 0.4867 0.0
H723 H 0.91002 0.35168 0.70517 0.0
H724 H 0.79655 0.32292 0.49666 0.0
H725 H 0.90825 0.36294 0.52337 0.0
C726 C 0.18353 0.0599 0.5442 0.0
C727 C 0.20327 0.04982 0.51227 0.0
N728 N 0.23935 0.06005 0.51754 0.0
N729 N 0.20702 0.07724 0.56884 0.0
C730 C 0.2412 0.07662 0.55179 0.0
H731 H 0.15335 0.05729 0.54803 0.0
Co732 Co 0.18881 0.10427 0.6103 0.0
C733 C 0.25549 0.15394 0.62854 0.0
O734 O 0.23686 0.18583 0.62477 0.0
N735 N 0.16893 0.13065 0.65255 0.0
C736 C 0.1244 0.14752 0.69376 0.0
C737 C 0.1336 0.14487 0.65627 0.0
C738 C 0.18122 0.12685 0.68869 0.0
N739 N 0.1542 0.13594 0.71412 0.0
O740 O 0.19742 0.06112 0.64161 0.0
H741 H 0.11379 0.15014 0.63389 0.0
H742 H 0.20742 0.11289 0.69611 0.0
O743 O 0.23899 0.12235 0.62269 0.0
C744 C 0.16743 0.04145 0.64105 0.0
O745 O 0.13767 0.05509 0.62353 0.0
N746 N 0.1775 0.14365 0.57664 0.0
C747 C 0.15274 0.16686 0.50562 0.0
C748 C 0.19012 0.17357 0.51672 0.0
C749 C 0.20223 0.16117 0.55247 0.0
C750 C 0.14077 0.13886 0.56627 0.0
C751 C 0.12763 0.15105 0.53151 0.0
H752 H 0.23218 0.16094 0.5579 0.0
H753 H 0.12289 0.11997 0.58215 0.0
H754 H 0.26607 0.09077 0.56254 0.0
H755 H 0.19192 0.03756 0.48667 0.0
H756 H 0.09713 0.15549 0.70514 0.0
H757 H 0.21061 0.18424 0.49664 0.0
H758 H 0.09891 0.14422 0.52334 0.0
C759 C 0.68364 0.44746 0.4631 0.0
C760 C 0.70336 0.45748 0.49505 0.0
N761 N 0.73939 0.44707 0.48988 0.0
N762 N 0.70711 0.43001 0.43851 0.0
C763 C 0.74126 0.43051 0.45562 0.0
H764 H 0.65347 0.45018 0.4592 0.0
Co765 Co 0.68887 0.40301 0.39705 0.0
C766 C 0.75549 0.35323 0.37884 0.0
O767 O 0.73682 0.32137 0.38264 0.0
N768 N 0.66897 0.37665 0.35478 0.0
C769 C 0.62443 0.35981 0.31357 0.0
C770 C 0.63363 0.36245 0.35106 0.0
C771 C 0.68128 0.38044 0.31865 0.0
N772 N 0.65424 0.3714 0.29322 0.0
O773 O 0.69754 0.44615 0.36573 0.0
H774 H 0.61382 0.35719 0.37344 0.0
H775 H 0.7075 0.39436 0.31124 0.0
O776 O 0.73903 0.38484 0.38467 0.0
C777 C 0.66756 0.46583 0.36626 0.0
O778 O 0.63778 0.45222 0.38375 0.0
N779 N 0.67749 0.36365 0.43071 0.0
C780 C 0.65262 0.34046 0.5017 0.0
C781 C 0.69 0.33368 0.49063 0.0
C782 C 0.70216 0.34607 0.45489 0.0
C783 C 0.64076 0.36852 0.44105 0.0
C784 C 0.62757 0.35634 0.47581 0.0
H785 H 0.73212 0.34623 0.44948 0.0
H786 H 0.62292 0.38743 0.42515 0.0
H787 H 0.76611 0.4163 0.4449 0.0
H788 H 0.692 0.46984 0.52061 0.0
H789 H 0.59717 0.35184 0.30218 0.0
H790 H 0.71044 0.32295 0.51072 0.0
H791 H 0.59885 0.36323 0.48395 0.0
C792 C 0.54406 0.68359 0.94721 0.0
C793 C 0.51214 0.70335 0.95727 0.0
N794 N 0.51743 0.73943 0.94703 0.0
N795 N 0.56872 0.70706 0.92988 0.0
C796 C 0.55169 0.74125 0.93048 0.0
H797 H 0.54787 0.6534 0.94982 0.0
Co798 Co 0.61018 0.68882 0.90287 0.0
C799 C 0.62843 0.75546 0.85314 0.0
O800 O 0.62461 0.73682 0.82127 0.0
N801 N 0.65244 0.66892 0.87651 0.0
C802 C 0.69367 0.62438 0.8597 0.0
C803 C 0.65618 0.63357 0.86234 0.0
C804 C 0.68857 0.68124 0.88029 0.0
N805 N 0.71401 0.6542 0.87126 0.0
O806 O 0.64149 0.69744 0.94602 0.0
H807 H 0.63381 0.61374 0.85709 0.0
H808 H 0.69597 0.70747 0.8942 0.0
O809 O 0.62259 0.73899 0.88474 0.0
C810 C 0.6409 0.66746 0.96571 0.0
O811 O 0.62334 0.63772 0.95208 0.0
N812 N 0.57652 0.6775 0.86348 0.0
C813 C 0.50551 0.65271 0.84027 0.0
C814 C 0.5166 0.69009 0.83356 0.0
C815 C 0.55234 0.70221 0.84596 0.0
C816 C 0.56617 0.64076 0.86828 0.0
C817 C 0.5314 0.62761 0.85609 0.0
H818 H 0.55777 0.73217 0.84618 0.0
H819 H 0.58205 0.62289 0.88717 0.0
H820 H 0.56246 0.76611 0.91632 0.0
H821 H 0.48653 0.69201 0.96951 0.0
H822 H 0.70507 0.59711 0.85175 0.0
H823 H 0.49651 0.71057 0.82289 0.0
H824 H 0.52325 0.59888 0.86292 0.0
C825 C 0.46301 0.82363 0.94726 0.0
C826 C 0.49496 0.80391 0.9573 0.0
N827 N 0.48976 0.76786 0.94695 0.0
N828 N 0.43841 0.80015 0.92986 0.0
C829 C 0.4555 0.76598 0.93041 0.0
H830 H 0.45913 0.8538 0.94993 0.0
Co831 Co 0.39694 0.81836 0.90285 0.0
C832 C 0.37869 0.75171 0.85314 0.0
O833 O 0.38248 0.77035 0.82126 0.0
N834 N 0.35468 0.83825 0.87647 0.0
C835 C 0.31346 0.88277 0.85965 0.0
C836 C 0.35095 0.87359 0.8623 0.0
C837 C 0.31855 0.82593 0.88025 0.0
N838 N 0.29311 0.85295 0.87118 0.0
O839 O 0.36563 0.80974 0.946 0.0
H840 H 0.37332 0.89343 0.85708 0.0
H841 H 0.31115 0.79971 0.89417 0.0
O842 O 0.38455 0.76818 0.88473 0.0
C843 C 0.36617 0.83973 0.96567 0.0
O844 O 0.38367 0.8695 0.95203 0.0
N845 N 0.4306 0.82969 0.86346 0.0
C846 C 0.50161 0.85447 0.84026 0.0
C847 C 0.49052 0.81709 0.83352 0.0
C848 C 0.45477 0.80498 0.84592 0.0
C849 C 0.44096 0.86642 0.86827 0.0
C850 C 0.47573 0.87957 0.85609 0.0
H851 H 0.44934 0.77502 0.84613 0.0
H852 H 0.42508 0.88429 0.88717 0.0
H853 H 0.44477 0.74112 0.91624 0.0
H854 H 0.52053 0.81527 0.96963 0.0
H855 H 0.30206 0.91005 0.85171 0.0
H856 H 0.5106 0.79661 0.82284 0.0
H857 H 0.48389 0.90829 0.86294 0.0
C858 C 0.54405 0.3236 0.55998 0.0
C859 C 0.51214 0.30383 0.54992 0.0
N860 N 0.51744 0.26776 0.56015 0.0
N861 N 0.56872 0.30013 0.57731 0.0
C862 C 0.5517 0.26593 0.57669 0.0
H863 H 0.54785 0.35379 0.55738 0.0
Co864 Co 0.61018 0.31838 0.60432 0.0
C865 C 0.62846 0.25175 0.65404 0.0
O866 O 0.62463 0.2704 0.68591 0.0
N867 N 0.65243 0.33829 0.63068 0.0
C868 C 0.69365 0.38283 0.64748 0.0
C869 C 0.65616 0.37364 0.64484 0.0
C870 C 0.68856 0.32597 0.62691 0.0
N871 N 0.714 0.35301 0.63593 0.0
O872 O 0.64149 0.30978 0.56116 0.0
H873 H 0.63379 0.39347 0.65007 0.0
H874 H 0.69596 0.29973 0.61301 0.0
O875 O 0.62261 0.26821 0.62244 0.0
C876 C 0.64086 0.33976 0.54147 0.0
O877 O 0.6233 0.36949 0.5551 0.0
N878 N 0.57651 0.32968 0.64371 0.0
C879 C 0.50548 0.35442 0.66689 0.0
C880 C 0.51659 0.31704 0.6736 0.0
C881 C 0.55234 0.30495 0.66121 0.0
C882 C 0.56614 0.36642 0.63892 0.0
C883 C 0.53136 0.37954 0.6511 0.0
H884 H 0.55779 0.27499 0.66098 0.0
H885 H 0.58201 0.3843 0.62004 0.0
H886 H 0.56249 0.24108 0.59084 0.0
H887 H 0.48652 0.31517 0.53769 0.0
H888 H 0.70505 0.4101 0.65542 0.0
H889 H 0.4965 0.29654 0.68425 0.0
H890 H 0.52318 0.40826 0.64427 0.0
C891 C 0.46305 0.18354 0.55993 0.0
C892 C 0.49499 0.20326 0.54989 0.0
N893 N 0.48978 0.23931 0.56022 0.0
N894 N 0.43843 0.20702 0.57731 0.0
C895 C 0.45551 0.24119 0.57675 0.0
H896 H 0.45918 0.15336 0.55726 0.0
Co897 Co 0.39697 0.18879 0.60432 0.0
C898 C 0.37868 0.25544 0.65402 0.0
O899 O 0.38247 0.23679 0.6859 0.0
N900 N 0.35471 0.16889 0.63069 0.0
C901 C 0.31349 0.12435 0.64749 0.0
C902 C 0.35098 0.13355 0.64485 0.0
C903 C 0.31858 0.18121 0.6269 0.0
N904 N 0.29314 0.15417 0.63593 0.0
O905 O 0.36566 0.19739 0.56116 0.0
H906 H 0.37335 0.11372 0.65009 0.0
H907 H 0.31117 0.20744 0.61299 0.0
O908 O 0.38455 0.23897 0.62242 0.0
C909 C 0.36623 0.1674 0.54149 0.0
O910 O 0.38375 0.13765 0.55513 0.0
N911 N 0.43062 0.17749 0.64372 0.0
C912 C 0.50165 0.15275 0.66691 0.0
C913 C 0.49054 0.19013 0.67363 0.0
C914 C 0.45478 0.20222 0.66124 0.0
C915 C 0.441 0.14076 0.63892 0.0
C916 C 0.47578 0.12764 0.6511 0.0
H917 H 0.44933 0.23217 0.66103 0.0
H918 H 0.42513 0.12287 0.62003 0.0
H919 H 0.44476 0.26605 0.59092 0.0
H920 H 0.52057 0.19191 0.53757 0.0
H921 H 0.3021 0.09708 0.65544 0.0
H922 H 0.51061 0.21062 0.6843 0.0
H923 H 0.48396 0.09892 0.64426 0.0
C924 C 0.94731 0.54409 0.68357 0.0
C925 C 0.95736 0.51217 0.70334 0.0
N926 N 0.94713 0.51746 0.73941 0.0
N927 N 0.92997 0.56875 0.70704 0.0
C928 C 0.93058 0.55173 0.74123 0.0
H929 H 0.94991 0.54789 0.65338 0.0
Co930 Co 0.90296 0.6102 0.68879 0.0
C931 C 0.85324 0.6285 0.75541 0.0
O932 O 0.82137 0.62469 0.73675 0.0
N933 N 0.87659 0.65245 0.66887 0.0
C934 C 0.85976 0.69365 0.62432 0.0
C935 C 0.8624 0.65617 0.63353 0.0
C936 C 0.88038 0.68859 0.68117 0.0
N937 N 0.87134 0.71401 0.65413 0.0
O938 O 0.94611 0.64152 0.69738 0.0
H939 H 0.85715 0.63379 0.61372 0.0
H940 H 0.89429 0.696 0.70739 0.0
O941 O 0.88484 0.62264 0.73895 0.0
C942 C 0.96579 0.64089 0.66739 0.0
O943 O 0.95215 0.62333 0.63766 0.0
N944 N 0.86357 0.57654 0.67749 0.0
C945 C 0.84038 0.5055 0.65277 0.0
C946 C 0.83367 0.51662 0.69014 0.0
C947 C 0.84606 0.55238 0.70223 0.0
C948 C 0.86836 0.56616 0.64076 0.0
C949 C 0.85619 0.53138 0.62764 0.0
H950 H 0.84628 0.55783 0.73218 0.0
H951 H 0.88725 0.58203 0.62287 0.0
H952 H 0.91642 0.5625 0.76609 0.0
H953 H 0.96961 0.48656 0.692 0.0
H954 H 0.8518 0.70504 0.59705 0.0
H955 H 0.823 0.49655 0.71064 0.0
H956 H 0.86302 0.5232 0.59893 0.0
C957 C 0.05981 0.96307 0.68356 0.0
C958 C 0.04976 0.99499 0.70332 0.0
N959 N 0.06001 0.98971 0.73939 0.0
N960 N 0.07716 0.93842 0.70703 0.0
C961 C 0.07657 0.95546 0.74122 0.0
H962 H 0.0572 0.95925 0.65338 0.0
Co963 Co 0.10419 0.89697 0.68879 0.0
C964 C 0.1539 0.8787 0.75542 0.0
O965 O 0.18577 0.8825 0.73677 0.0
N966 N 0.13056 0.85472 0.66888 0.0
C967 C 0.14739 0.81352 0.62432 0.0
C968 C 0.14475 0.85101 0.63354 0.0
C969 C 0.12676 0.81858 0.68117 0.0
N970 N 0.1358 0.79316 0.65412 0.0
O971 O 0.06104 0.86565 0.69739 0.0
H972 H 0.15002 0.87339 0.61373 0.0
H973 H 0.11284 0.81116 0.70739 0.0
O974 O 0.1223 0.88455 0.73895 0.0
C975 C 0.04137 0.86624 0.66741 0.0
O976 O 0.05499 0.88379 0.63767 0.0
N977 N 0.14357 0.93064 0.67748 0.0
C978 C 0.16675 1.00166 0.65274 0.0
C979 C 0.17348 0.99055 0.69011 0.0
C980 C 0.16109 0.9548 0.70221 0.0
C981 C 0.13876 0.94101 0.64075 0.0
C982 C 0.15094 0.97579 0.62762 0.0
H983 H 0.16087 0.94935 0.73216 0.0
H984 H 0.11987 0.92513 0.62287 0.0
H985 H 0.09073 0.94469 0.76608 0.0
H986 H 0.0375 0.0206 0.69198 0.0
H987 H 0.15536 0.80214 0.59705 0.0
H988 H 0.18416 0.01063 0.7106 0.0
H989 H 0.14409 0.98396 0.5989 0.0
C990 C 0.94739 0.46306 0.82363 0.0
C991 C 0.95742 0.49501 0.8039 0.0
N992 N 0.94706 0.4898 0.76785 0.0
N993 N 0.92998 0.43846 0.80016 0.0
C994 C 0.93052 0.45554 0.76599 0.0
H995 H 0.95008 0.45919 0.8538 0.0
Co996 Co 0.90297 0.397 0.8184 0.0
C997 C 0.85324 0.37871 0.75179 0.0
O998 O 0.82138 0.38251 0.77045 0.0
N999 N 0.8766 0.35475 0.83831 0.0
C1000 C 0.85979 0.31355 0.88286 0.0
C1001 C 0.86243 0.35104 0.87366 0.0
C1002 C 0.88039 0.31861 0.82601 0.0
N1003 N 0.87135 0.29319 0.85306 0.0
O1004 O 0.94612 0.36568 0.80979 0.0
H1005 H 0.85719 0.37342 0.89347 0.0
H1006 H 0.89429 0.3112 0.79979 0.0
O1007 O 0.88485 0.38458 0.76824 0.0
C1008 C 0.96579 0.36626 0.83978 0.0
O1009 O 0.95216 0.38378 0.86953 0.0
N1010 N 0.86359 0.43066 0.82971 0.0
C1011 C 0.84042 0.5017 0.85446 0.0
C1012 C 0.83367 0.49058 0.81709 0.0
C1013 C 0.84605 0.45482 0.80499 0.0
C1014 C 0.86842 0.44105 0.86644 0.0
C1015 C 0.85625 0.47583 0.87957 0.0
H1016 H 0.84625 0.44937 0.77504 0.0
H1017 H 0.88731 0.42517 0.88431 0.0
H1018 H 0.91633 0.4448 0.74113 0.0
H1019 H 0.96976 0.52058 0.81525 0.0
H1020 H 0.85183 0.30217 0.91014 0.0
H1021 H 0.82298 0.51065 0.7966 0.0
H1022 H 0.86311 0.48401 0.90828 0.0
C1023 C 0.05973 0.04414 0.82359 0.0
C1024 C 0.04969 0.01219 0.80387 0.0
N1025 N 0.06007 0.01738 0.76783 0.0
N1026 N 0.07716 0.06873 0.80013 0.0
C1027 C 0.07663 0.05164 0.76596 0.0
H1028 H 0.05703 0.04802 0.85376 0.0
Co1029 Co 0.10417 0.11018 0.81837 0.0
C1030 C 0.15391 0.12847 0.75176 0.0
O1031 O 0.18577 0.12466 0.77042 0.0
N1032 N 0.13055 0.15243 0.83829 0.0
C1033 C 0.14736 0.19362 0.88285 0.0
C1034 C 0.14472 0.15613 0.87364 0.0
C1035 C 0.12676 0.18857 0.82599 0.0
N1036 N 0.1358 0.21398 0.85304 0.0
O1037 O 0.06103 0.1415 0.80975 0.0
H1038 H 0.14996 0.13375 0.89344 0.0
H1039 H 0.11286 0.19599 0.79977 0.0
O1040 O 0.1223 0.1226 0.76821 0.0
C1041 C 0.04136 0.14095 0.83974 0.0
O1042 O 0.05499 0.12344 0.86951 0.0
N1043 N 0.14355 0.07651 0.82969 0.0
C1044 C 0.16674 0.00548 0.85444 0.0
C1045 C 0.17349 0.0166 0.81708 0.0
C1046 C 0.1611 0.05236 0.80498 0.0
C1047 C 0.13871 0.06613 0.86642 0.0
C1048 C 0.15089 0.03135 0.87954 0.0
H1049 H 0.16091 0.05781 0.77502 0.0
H1050 H 0.11981 0.082 0.88428 0.0
H1051 H 0.09083 0.06237 0.74111 0.0
H1052 H 0.03734 0.98663 0.81522 0.0
H1053 H 0.15532 0.205 0.91013 0.0
H1054 H 0.18419 0.99654 0.79659 0.0
H1055 H 0.14402 0.02317 0.90826 0.0
C1056 C 0.68364 0.94746 0.54408 0.0
C1057 C 0.70336 0.95748 0.51213 0.0
N1058 N 0.7394 0.94708 0.51731 0.0
N1059 N 0.7071 0.93003 0.56867 0.0
C1060 C 0.74126 0.93053 0.55157 0.0
H1061 H 0.65347 0.95018 0.54797 0.0
Co1062 Co 0.68886 0.90302 0.61013 0.0
C1063 C 0.75546 0.85325 0.62838 0.0
O1064 O 0.7368 0.82139 0.62457 0.0
N1065 N 0.66894 0.87666 0.65239 0.0
C1066 C 0.6244 0.85984 0.6936 0.0
C1067 C 0.6336 0.86248 0.65611 0.0
C1068 C 0.68125 0.88045 0.68853 0.0
N1069 N 0.6542 0.87141 0.71396 0.0
O1070 O 0.69751 0.94617 0.64145 0.0
H1071 H 0.61379 0.85722 0.63373 0.0
H1072 H 0.70747 0.89436 0.69595 0.0
O1073 O 0.73902 0.88486 0.62253 0.0
C1074 C 0.66753 0.96585 0.6409 0.0
O1075 O 0.63776 0.95223 0.6234 0.0
N1076 N 0.6775 0.86365 0.57647 0.0
C1077 C 0.65267 0.84046 0.50546 0.0
C1078 C 0.69004 0.83369 0.51656 0.0
C1079 C 0.70218 0.84609 0.5523 0.0
C1080 C 0.64077 0.86851 0.56611 0.0
C1081 C 0.6276 0.85634 0.53135 0.0
H1082 H 0.73214 0.84626 0.55773 0.0
H1083 H 0.62292 0.88742 0.582 0.0
H1084 H 0.76611 0.91632 0.5623 0.0
H1085 H 0.69201 0.96983 0.48656 0.0
H1086 H 0.59713 0.85187 0.70498 0.0
H1087 H 0.71051 0.82297 0.49648 0.0
H1088 H 0.59889 0.86321 0.52319 0.0
C1089 C 0.68367 0.05981 0.96316 0.0
C1090 C 0.70343 0.04977 0.99508 0.0
N1091 N 0.7395 0.06005 0.9898 0.0
N1092 N 0.70712 0.07718 0.93851 0.0
C1093 C 0.74131 0.07661 0.95554 0.0
H1094 H 0.65348 0.05717 0.95934 0.0
Co1095 Co 0.68886 0.10418 0.89705 0.0
C1096 C 0.75546 0.15395 0.8788 0.0
O1097 O 0.7368 0.18581 0.88263 0.0
N1098 N 0.66892 0.13054 0.8548 0.0
C1099 C 0.62437 0.14734 0.81359 0.0
C1100 C 0.63357 0.14469 0.85108 0.0
C1101 C 0.68124 0.12677 0.81867 0.0
N1102 N 0.65419 0.1358 0.79324 0.0
O1103 O 0.69749 0.06104 0.86573 0.0
H1104 H 0.61375 0.14992 0.87345 0.0
H1105 H 0.70747 0.11288 0.81126 0.0
O1106 O 0.73901 0.12234 0.88464 0.0
C1107 C 0.66751 0.04135 0.86633 0.0
O1108 O 0.63777 0.05496 0.88388 0.0
N1109 N 0.67751 0.14356 0.93072 0.0
C1110 C 0.6527 0.16676 1.00173 0.0
C1111 C 0.69008 0.1735 0.99064 0.0
C1112 C 0.70221 0.1611 0.9549 0.0
C1113 C 0.64078 0.13873 0.94109 0.0
C1114 C 0.62762 0.15091 0.97585 0.0
H1115 H 0.73217 0.1609 0.94947 0.0
H1116 H 0.62292 0.11982 0.92521 0.0
H1117 H 0.76615 0.0908 0.94477 0.0
H1118 H 0.6921 0.03751 0.02069 0.0
H1119 H 0.5971 0.15529 0.8022 0.0
H1120 H 0.71055 0.1842 0.01072 0.0
H1121 H 0.5989 0.14406 0.98401 0.0
C1122 C 0.32353 0.44742 0.96309 0.0
C1123 C 0.30381 0.45744 0.99504 0.0
N1124 N 0.26778 0.44704 0.98986 0.0
N1125 N 0.30007 0.42998 0.9385 0.0
C1126 C 0.26591 0.43049 0.9556 0.0
H1127 H 0.3537 0.45014 0.9592 0.0
Co1128 Co 0.31831 0.40298 0.89704 0.0
C1129 C 0.2517 0.3532 0.87881 0.0
O1130 O 0.27036 0.32134 0.88263 0.0
N1131 N 0.33822 0.37662 0.85478 0.0
C1132 C 0.38276 0.35981 0.81356 0.0
C1133 C 0.37357 0.36245 0.85105 0.0
C1134 C 0.3259 0.3804 0.81864 0.0
N1135 N 0.35294 0.37136 0.79321 0.0
O1136 O 0.30965 0.44612 0.86571 0.0
H1137 H 0.39339 0.35721 0.87342 0.0
H1138 H 0.29967 0.39429 0.81123 0.0
O1139 O 0.26815 0.38481 0.88465 0.0
C1140 C 0.33963 0.4658 0.86624 0.0
O1141 O 0.36941 0.45218 0.88374 0.0
N1142 N 0.32969 0.36361 0.9307 0.0
C1143 C 0.35454 0.34042 1.0017 0.0
C1144 C 0.31717 0.33365 0.99062 0.0
C1145 C 0.30501 0.34604 0.95488 0.0
C1146 C 0.36642 0.36848 0.94105 0.0
C1147 C 0.3796 0.3563 0.9758 0.0
H1148 H 0.27505 0.34621 0.94946 0.0
H1149 H 0.38426 0.3874 0.92516 0.0
H1150 H 0.24107 0.41627 0.94488 0.0
H1151 H 0.31516 0.4698 0.0206 0.0
H1152 H 0.41003 0.35185 0.80216 0.0
H1153 H 0.29672 0.32292 0.0107 0.0
H1154 H 0.40832 0.36318 0.98395 0.0
C1155 C 0.82369 0.05988 0.04423 0.0
C1156 C 0.80399 0.04982 0.01228 0.0
N1157 N 0.76793 0.06015 0.01747 0.0
N1158 N 0.8002 0.07727 0.06883 0.0
C1159 C 0.76603 0.0767 0.05173 0.0
H1160 H 0.85387 0.05722 0.04812 0.0
Co1161 Co 0.81839 0.1043 0.1103 0.0
C1162 C 0.75171 0.15396 0.12854 0.0
O1163 O 0.77034 0.18585 0.12478 0.0
N1164 N 0.83826 0.13068 0.15256 0.0
C1165 C 0.88278 0.14756 0.19377 0.0
C1166 C 0.87358 0.14491 0.15628 0.0
C1167 C 0.82595 0.12688 0.1887 0.0
N1168 N 0.85297 0.13597 0.21413 0.0
O1169 O 0.80978 0.06115 0.1416 0.0
H1170 H 0.89339 0.15017 0.13391 0.0
H1171 H 0.79976 0.11291 0.1961 0.0
O1172 O 0.7682 0.12238 0.12268 0.0
C1173 C 0.83978 0.04149 0.14107 0.0
O1174 O 0.86954 0.05514 0.12359 0.0
N1175 N 0.8297 0.14369 0.07664 0.0
C1176 C 0.85446 0.16688 0.00562 0.0
C1177 C 0.81708 0.17361 0.01672 0.0
C1178 C 0.80498 0.16121 0.05247 0.0
C1179 C 0.86643 0.13888 0.06628 0.0
C1180 C 0.87957 0.15106 0.0315 0.0
H1181 H 0.77502 0.161 0.05791 0.0
H1182 H 0.88431 0.12 0.08216 0.0
H1183 H 0.74116 0.09086 0.06246 0.0
H1184 H 0.81536 0.03749 0.98672 0.0
H1185 H 0.91005 0.15553 0.20515 0.0
H1186 H 0.7966 0.18428 0.99664 0.0
H1187 H 0.90829 0.14422 0.02333 0.0
C1188 C 0.46311 0.3236 0.05998 0.0
C1189 C 0.49503 0.30383 0.04993 0.0
N1190 N 0.48974 0.26776 0.06016 0.0
N1191 N 0.43845 0.30013 0.07731 0.0
C1192 C 0.45548 0.26593 0.07671 0.0
H1193 H 0.4593 0.35379 0.05738 0.0
Co1194 Co 0.39699 0.31836 0.10432 0.0
C1195 C 0.37874 0.25172 0.15404 0.0
O1196 O 0.38255 0.27037 0.18591 0.0
N1197 N 0.35473 0.33827 0.13068 0.0
C1198 C 0.3135 0.3828 0.14748 0.0
C1199 C 0.35099 0.37362 0.14485 0.0
C1200 C 0.3186 0.32595 0.12689 0.0
N1201 N 0.29316 0.35298 0.13592 0.0
O1202 O 0.36568 0.30975 0.06116 0.0
H1203 H 0.37336 0.39344 0.1501 0.0
H1204 H 0.3112 0.29972 0.11298 0.0
O1205 O 0.38458 0.2682 0.12244 0.0
C1206 C 0.36629 0.33973 0.04147 0.0
O1207 O 0.38384 0.36947 0.0551 0.0
N1208 N 0.43065 0.32969 0.14371 0.0
C1209 C 0.50166 0.35448 0.16691 0.0
C1210 C 0.49057 0.31709 0.17362 0.0
C1211 C 0.45483 0.30498 0.16122 0.0
C1212 C 0.441 0.36643 0.13891 0.0
C1213 C 0.47577 0.37958 0.1511 0.0
H1214 H 0.4494 0.27502 0.161 0.0
H1215 H 0.42512 0.3843 0.12002 0.0
H1216 H 0.4447 0.24108 0.09085 0.0
H1217 H 0.52065 0.31518 0.03769 0.0
H1218 H 0.3021 0.41007 0.15544 0.0
H1219 H 0.51066 0.29661 0.18429 0.0
H1220 H 0.48392 0.4083 0.14426 0.0
C1221 C 0.54415 0.18355 0.05993 0.0
C1222 C 0.51221 0.20327 0.04989 0.0
N1223 N 0.51741 0.23932 0.06024 0.0
N1224 N 0.56876 0.20703 0.07733 0.0
C1225 C 0.55167 0.2412 0.07678 0.0
H1226 H 0.54803 0.15338 0.05726 0.0
Co1227 Co 0.61022 0.18882 0.10434 0.0
C1228 C 0.62848 0.25547 0.15405 0.0
O1229 O 0.62469 0.23683 0.18593 0.0
N1230 N 0.65249 0.16893 0.13071 0.0
C1231 C 0.69371 0.12439 0.1475 0.0
C1232 C 0.65622 0.13358 0.14488 0.0
C1233 C 0.68862 0.18124 0.12691 0.0
N1234 N 0.71405 0.1542 0.13593 0.0
O1235 O 0.64153 0.19744 0.06119 0.0
H1236 H 0.63385 0.11376 0.15013 0.0
H1237 H 0.69602 0.20747 0.113 0.0
O1238 O 0.62262 0.23899 0.12245 0.0
C1239 C 0.64098 0.16745 0.04151 0.0
O1240 O 0.62348 0.13768 0.05515 0.0
N1241 N 0.57657 0.17749 0.14373 0.0
C1242 C 0.50556 0.15271 0.16692 0.0
C1243 C 0.51665 0.19009 0.17366 0.0
C1244 C 0.5524 0.2022 0.16126 0.0
C1245 C 0.56621 0.14076 0.13892 0.0
C1246 C 0.53144 0.12761 0.1511 0.0
H1247 H 0.55783 0.23216 0.16106 0.0
H1248 H 0.58209 0.12289 0.12002 0.0
H1249 H 0.56241 0.26606 0.09095 0.0
H1250 H 0.48664 0.19191 0.03756 0.0
H1251 H 0.70511 0.09711 0.15546 0.0
H1252 H 0.49657 0.21056 0.18434 0.0
H1253 H 0.52328 0.09889 0.14425 0.0
C1254 C 0.46314 0.68358 0.4472 0.0
C1255 C 0.49505 0.70335 0.45726 0.0
N1256 N 0.48975 0.73942 0.44703 0.0
N1257 N 0.43847 0.70705 0.42988 0.0
C1258 C 0.45548 0.74125 0.43049 0.0
H1259 H 0.45934 0.65339 0.44979 0.0
Co1260 Co 0.39701 0.6888 0.40287 0.0
C1261 C 0.37873 0.75544 0.35315 0.0
O1262 O 0.38255 0.73679 0.32128 0.0
N1263 N 0.35476 0.66889 0.3765 0.0
C1264 C 0.31353 0.62435 0.3597 0.0
C1265 C 0.35102 0.63354 0.36234 0.0
C1266 C 0.31862 0.68121 0.38029 0.0
N1267 N 0.29319 0.65418 0.37126 0.0
O1268 O 0.3657 0.6974 0.44602 0.0
H1269 H 0.37339 0.61372 0.3571 0.0
H1270 H 0.31122 0.70744 0.39419 0.0
O1271 O 0.38458 0.73897 0.38475 0.0
C1272 C 0.36633 0.66742 0.46571 0.0
O1273 O 0.3839 0.63769 0.45209 0.0
N1274 N 0.43067 0.6775 0.36347 0.0
C1275 C 0.5017 0.65276 0.34028 0.0
C1276 C 0.49059 0.69014 0.33358 0.0
C1277 C 0.45484 0.70223 0.34597 0.0
C1278 C 0.44104 0.64076 0.36826 0.0
C1279 C 0.47582 0.62764 0.35608 0.0
H1280 H 0.4494 0.73219 0.3462 0.0
H1281 H 0.42517 0.62288 0.38714 0.0
H1282 H 0.4447 0.7661 0.41635 0.0
H1283 H 0.52067 0.69201 0.46949 0.0
H1284 H 0.30213 0.59708 0.35175 0.0
H1285 H 0.51068 0.71063 0.32292 0.0
H1286 H 0.48399 0.59892 0.36291 0.0
C1287 C 0.54414 0.82364 0.44724 0.0
C1288 C 0.51219 0.80392 0.45729 0.0
N1289 N 0.51741 0.76787 0.44696 0.0
N1290 N 0.56875 0.80017 0.42986 0.0
C1291 C 0.55167 0.76599 0.43042 0.0
H1292 H 0.548 0.85382 0.44991 0.0
Co1293 Co 0.61022 0.81838 0.40285 0.0
C1294 C 0.6285 0.75174 0.35315 0.0
O1295 O 0.6247 0.77039 0.32128 0.0
N1296 N 0.65247 0.83828 0.37648 0.0
C1297 C 0.6937 0.88282 0.35968 0.0
C1298 C 0.65621 0.87363 0.36231 0.0
C1299 C 0.68861 0.82596 0.38028 0.0
N1300 N 0.71404 0.853 0.37125 0.0
O1301 O 0.64152 0.80978 0.44601 0.0
H1302 H 0.63383 0.89345 0.35706 0.0
H1303 H 0.69601 0.79974 0.39419 0.0
O1304 O 0.62263 0.76821 0.38475 0.0
C1305 C 0.64095 0.83977 0.46568 0.0
O1306 O 0.62343 0.86953 0.45204 0.0
N1307 N 0.57656 0.82969 0.36345 0.0
C1308 C 0.50553 0.85443 0.34027 0.0
C1309 C 0.51664 0.81706 0.33355 0.0
C1310 C 0.5524 0.80497 0.34593 0.0
C1311 C 0.56619 0.86643 0.36825 0.0
C1312 C 0.53141 0.87955 0.35608 0.0
H1313 H 0.55784 0.77501 0.34615 0.0
H1314 H 0.58206 0.88431 0.38714 0.0
H1315 H 0.56242 0.74113 0.41626 0.0
H1316 H 0.48662 0.81528 0.4696 0.0
H1317 H 0.70509 0.91009 0.35172 0.0
H1318 H 0.49657 0.79657 0.32288 0.0
H1319 H 0.52323 0.90827 0.36292 0.0
C1320 C 0.05986 0.46309 0.3236 0.0
C1321 C 0.0498 0.49501 0.30384 0.0
N1322 N 0.06004 0.48972 0.26777 0.0
N1323 N 0.0772 0.43843 0.30014 0.0
C1324 C 0.07659 0.45546 0.26594 0.0
H1325 H 0.05725 0.45929 0.35379 0.0
Co1326 Co 0.10421 0.39698 0.31839 0.0
C1327 C 0.15393 0.37868 0.25177 0.0
O1328 O 0.1858 0.38249 0.27042 0.0
N1329 N 0.13058 0.35473 0.33831 0.0
C1330 C 0.14741 0.31353 0.38286 0.0
C1331 C 0.14477 0.35102 0.37365 0.0
C1332 C 0.12679 0.31859 0.32601 0.0
N1333 N 0.13583 0.29317 0.35305 0.0
O1334 O 0.06106 0.36567 0.3098 0.0
H1335 H 0.15002 0.3734 0.39346 0.0
H1336 H 0.11287 0.31118 0.29979 0.0
O1337 O 0.12232 0.38454 0.26822 0.0
C1338 C 0.04138 0.36629 0.33978 0.0
O1339 O 0.05502 0.38385 0.36951 0.0
N1340 N 0.1436 0.43064 0.32968 0.0
C1341 C 0.1668 0.50167 0.35442 0.0
C1342 C 0.17351 0.49056 0.31704 0.0
C1343 C 0.16112 0.4548 0.30495 0.0
C1344 C 0.13881 0.44102 0.36642 0.0
C1345 C 0.15099 0.4758 0.37954 0.0
H1346 H 0.16089 0.44935 0.27499 0.0
H1347 H 0.11992 0.42515 0.3843 0.0
H1348 H 0.09075 0.44468 0.24109 0.0
H1349 H 0.03755 0.52062 0.31518 0.0
H1350 H 0.15537 0.30215 0.41013 0.0
H1351 H 0.18418 0.51063 0.29655 0.0
H1352 H 0.14416 0.48398 0.40826 0.0
C1353 C 0.94737 0.04412 0.32359 0.0
C1354 C 0.95743 0.0122 0.30384 0.0
N1355 N 0.94717 0.01747 0.26777 0.0
N1356 N 0.93001 0.06876 0.30013 0.0
C1357 C 0.9306 0.05173 0.26594 0.0
H1358 H 0.94999 0.04794 0.35378 0.0
Co1359 Co 0.90299 0.11021 0.31838 0.0
C1360 C 0.85326 0.1285 0.25176 0.0
O1361 O 0.82139 0.12469 0.27042 0.0
N1362 N 0.87661 0.15246 0.3383 0.0
C1363 C 0.85979 0.19365 0.38286 0.0
C1364 C 0.86243 0.15616 0.37365 0.0
C1365 C 0.88041 0.1886 0.32601 0.0
N1366 N 0.87137 0.21401 0.35307 0.0
O1367 O 0.94613 0.14153 0.30978 0.0
H1368 H 0.85717 0.13378 0.39345 0.0
H1369 H 0.89432 0.19602 0.29979 0.0
O1370 O 0.88487 0.12264 0.26822 0.0
C1371 C 0.96581 0.14094 0.33977 0.0
O1372 O 0.95218 0.12339 0.36951 0.0
N1373 N 0.86361 0.07654 0.32969 0.0
C1374 C 0.84043 0.00551 0.35443 0.0
C1375 C 0.8337 0.01663 0.31706 0.0
C1376 C 0.84609 0.05238 0.30496 0.0
C1377 C 0.86842 0.06616 0.36642 0.0
C1378 C 0.85625 0.03139 0.37954 0.0
H1379 H 0.8463 0.05783 0.27501 0.0
H1380 H 0.88731 0.08204 0.3843 0.0
H1381 H 0.91643 0.06249 0.24109 0.0
H1382 H 0.96969 0.98659 0.31518 0.0
H1383 H 0.85183 0.20503 0.41014 0.0
H1384 H 0.82302 0.99655 0.29657 0.0
H1385 H 0.86309 0.02321 0.40826 0.0
C1386 C 0.05978 0.54412 0.18356 0.0
C1387 C 0.04975 0.51218 0.20328 0.0
N1388 N 0.06011 0.51738 0.23933 0.0
N1389 N 0.07719 0.56873 0.20703 0.0
C1390 C 0.07666 0.55164 0.24119 0.0
H1391 H 0.0571 0.548 0.15338 0.0
Co1392 Co 0.10421 0.61018 0.18879 0.0
C1393 C 0.15394 0.62847 0.2554 0.0
O1394 O 0.1858 0.62466 0.23674 0.0
N1395 N 0.13058 0.65243 0.16888 0.0
C1396 C 0.14741 0.69363 0.12433 0.0
C1397 C 0.14476 0.65615 0.13353 0.0
C1398 C 0.12679 0.68857 0.18118 0.0
N1399 N 0.13584 0.71399 0.15414 0.0
O1400 O 0.06106 0.6415 0.1974 0.0
H1401 H 0.15001 0.63377 0.11372 0.0
H1402 H 0.11288 0.69599 0.2074 0.0
O1403 O 0.12233 0.6226 0.23895 0.0
C1404 C 0.04139 0.64093 0.16741 0.0
O1405 O 0.05503 0.62341 0.13765 0.0
N1406 N 0.14359 0.57652 0.17747 0.0
C1407 C 0.16676 0.50549 0.15272 0.0
C1408 C 0.17351 0.5166 0.19009 0.0
C1409 C 0.16112 0.55236 0.20219 0.0
C1410 C 0.13876 0.56614 0.14074 0.0
C1411 C 0.15092 0.53136 0.12761 0.0
H1412 H 0.16093 0.55781 0.23214 0.0
H1413 H 0.11986 0.58202 0.12287 0.0
H1414 H 0.09084 0.56238 0.26605 0.0
H1415 H 0.03741 0.48661 0.19193 0.0
H1416 H 0.15537 0.70502 0.09705 0.0
H1417 H 0.1842 0.49653 0.21057 0.0
H1418 H 0.14406 0.52318 0.0989 0.0
C1419 C 0.94744 0.96304 0.18357 0.0
C1420 C 0.95748 0.99499 0.20329 0.0
N1421 N 0.9471 0.9898 0.23934 0.0
N1422 N 0.93002 0.93845 0.20704 0.0
C1423 C 0.93055 0.95554 0.24121 0.0
H1424 H 0.95014 0.95916 0.1534 0.0
Co1425 Co 0.903 0.897 0.1888 0.0
C1426 C 0.85327 0.8787 0.25542 0.0
O1427 O 0.82141 0.8825 0.23675 0.0
N1428 N 0.87663 0.85475 0.16889 0.0
C1429 C 0.85982 0.81356 0.12432 0.0
C1430 C 0.86246 0.85104 0.13354 0.0
C1431 C 0.88041 0.81861 0.18118 0.0
N1432 N 0.87138 0.79319 0.15413 0.0
O1433 O 0.94615 0.86567 0.19742 0.0
H1434 H 0.85722 0.87343 0.11373 0.0
H1435 H 0.89432 0.81119 0.2074 0.0
O1436 O 0.88488 0.88458 0.23897 0.0
C1437 C 0.96582 0.86622 0.16742 0.0
O1438 O 0.95219 0.88373 0.13766 0.0
N1439 N 0.86362 0.93066 0.17749 0.0
C1440 C 0.84045 1.0017 0.15275 0.0
C1441 C 0.83369 0.99057 0.19011 0.0
C1442 C 0.84608 0.95482 0.20221 0.0
C1443 C 0.86846 0.94105 0.14076 0.0
C1444 C 0.85629 0.97583 0.12764 0.0
H1445 H 0.84627 0.94936 0.23216 0.0
H1446 H 0.88736 0.92518 0.12289 0.0
H1447 H 0.91635 0.94482 0.26606 0.0
H1448 H 0.96983 0.02055 0.19194 0.0
H1449 H 0.85186 0.80218 0.09705 0.0
H1450 H 0.823 0.01064 0.2106 0.0
H1451 H 0.86315 0.98402 0.09893 0.0
C1452 C 0.32354 0.05972 0.46309 0.0
C1453 C 0.30382 0.04969 0.49504 0.0
N1454 N 0.26778 0.06009 0.48986 0.0
N1455 N 0.30007 0.07715 0.4385 0.0
C1456 C 0.26591 0.07665 0.4556 0.0
H1457 H 0.35371 0.057 0.4592 0.0
Co1458 Co 0.31831 0.10416 0.39704 0.0
C1459 C 0.2517 0.15393 0.3788 0.0
O1460 O 0.27037 0.18579 0.38261 0.0
N1461 N 0.33823 0.13052 0.35478 0.0
C1462 C 0.38277 0.14735 0.31357 0.0
C1463 C 0.37357 0.14471 0.35106 0.0
C1464 C 0.32592 0.12673 0.31864 0.0
N1465 N 0.35296 0.13577 0.29322 0.0
O1466 O 0.30966 0.06102 0.36572 0.0
H1467 H 0.39338 0.14997 0.37344 0.0
H1468 H 0.2997 0.11282 0.31123 0.0
O1469 O 0.26815 0.12232 0.38465 0.0
C1470 C 0.33965 0.04134 0.36627 0.0
O1471 O 0.36942 0.05496 0.38377 0.0
N1472 N 0.32968 0.14353 0.43071 0.0
C1473 C 0.3545 0.16671 0.50171 0.0
C1474 C 0.31713 0.17348 0.49062 0.0
C1475 C 0.30499 0.16109 0.45488 0.0
C1476 C 0.36641 0.13867 0.44106 0.0
C1477 C 0.37957 0.15084 0.47583 0.0
H1478 H 0.27503 0.16092 0.44945 0.0
H1479 H 0.38425 0.11976 0.42517 0.0
H1480 H 0.24107 0.09086 0.44488 0.0
H1481 H 0.31517 0.03734 0.5206 0.0
H1482 H 0.41004 0.15532 0.30219 0.0
H1483 H 0.29667 0.1842 0.5107 0.0
H1484 H 0.40829 0.14396 0.48399 0.0
C1485 C 0.32353 0.94735 0.04403 0.0
C1486 C 0.30377 0.95739 0.01211 0.0
N1487 N 0.26771 0.94712 0.01739 0.0
N1488 N 0.30008 0.92999 0.06868 0.0
C1489 C 0.26589 0.93056 0.05165 0.0
H1490 H 0.35372 0.94999 0.04785 0.0
Co1491 Co 0.31833 0.90299 0.11013 0.0
C1492 C 0.25172 0.85322 0.12839 0.0
O1493 O 0.27039 0.82136 0.12457 0.0
N1494 N 0.33826 0.87663 0.15239 0.0
C1495 C 0.38281 0.85983 0.1936 0.0
C1496 C 0.37362 0.86247 0.15611 0.0
C1497 C 0.32595 0.8804 0.18852 0.0
N1498 N 0.35299 0.87137 0.21395 0.0
O1499 O 0.3097 0.94613 0.14146 0.0
H1500 H 0.39344 0.85725 0.13374 0.0
H1501 H 0.29971 0.89429 0.19593 0.0
O1502 O 0.26818 0.88483 0.12255 0.0
C1503 C 0.33968 0.96583 0.14086 0.0
O1504 O 0.36942 0.95222 0.12331 0.0
N1505 N 0.32968 0.86361 0.07647 0.0
C1506 C 0.35446 0.84041 0.00545 0.0
C1507 C 0.31708 0.83367 0.01655 0.0
C1508 C 0.30497 0.84607 0.0523 0.0
C1509 C 0.36641 0.86843 0.0661 0.0
C1510 C 0.37955 0.85625 0.03133 0.0
H1511 H 0.27501 0.84627 0.05773 0.0
H1512 H 0.38427 0.88734 0.08198 0.0
H1513 H 0.24104 0.91638 0.06241 0.0
H1514 H 0.31511 0.96965 0.9865 0.0
H1515 H 0.41009 0.85189 0.20499 0.0
H1516 H 0.29661 0.82298 0.99647 0.0
H1517 H 0.40827 0.8631 0.02316 0.0
C1518 C 0.68364 0.55976 0.04409 0.0
C1519 C 0.70336 0.54973 0.01213 0.0
N1520 N 0.7394 0.56013 0.01732 0.0
N1521 N 0.70711 0.57719 0.06868 0.0
C1522 C 0.74127 0.57669 0.05157 0.0
H1523 H 0.65347 0.55704 0.04798 0.0
Co1524 Co 0.68887 0.6042 0.11014 0.0
C1525 C 0.75549 0.65397 0.12836 0.0
O1526 O 0.73682 0.68583 0.12455 0.0
N1527 N 0.66896 0.63056 0.1524 0.0
C1528 C 0.62443 0.64737 0.19362 0.0
C1529 C 0.63362 0.64473 0.15613 0.0
C1530 C 0.68128 0.62678 0.18853 0.0
N1531 N 0.65424 0.63581 0.21397 0.0
O1532 O 0.69753 0.56106 0.14146 0.0
H1533 H 0.6138 0.64998 0.13375 0.0
H1534 H 0.70751 0.61287 0.19594 0.0
O1535 O 0.73903 0.62236 0.12252 0.0
C1536 C 0.66755 0.54138 0.14092 0.0
O1537 O 0.63777 0.55499 0.12343 0.0
N1538 N 0.6775 0.64357 0.07647 0.0
C1539 C 0.65264 0.66676 0.00548 0.0
C1540 C 0.69002 0.67353 0.01656 0.0
C1541 C 0.70217 0.66113 0.05229 0.0
C1542 C 0.64076 0.6387 0.06613 0.0
C1543 C 0.62758 0.65088 0.03137 0.0
H1544 H 0.73213 0.66096 0.05771 0.0
H1545 H 0.62293 0.61979 0.08202 0.0
H1546 H 0.76611 0.5909 0.0623 0.0
H1547 H 0.69201 0.53738 0.98657 0.0
H1548 H 0.59715 0.65533 0.20501 0.0
H1549 H 0.71047 0.68426 0.99647 0.0
H1550 H 0.59886 0.64401 0.02323 0.0
C1551 C 0.18351 0.94729 0.96295 0.0
C1552 C 0.20322 0.95736 0.9949 0.0
N1553 N 0.23927 0.94702 0.98971 0.0
N1554 N 0.20701 0.9299 0.93836 0.0
C1555 C 0.24117 0.93046 0.95546 0.0
H1556 H 0.15334 0.94996 0.95906 0.0
Co1557 Co 0.18881 0.90288 0.89689 0.0
C1558 C 0.25547 0.8532 0.87863 0.0
O1559 O 0.23683 0.82132 0.8824 0.0
N1560 N 0.16893 0.8765 0.85463 0.0
C1561 C 0.12438 0.85966 0.81342 0.0
C1562 C 0.1336 0.86228 0.85091 0.0
C1563 C 0.18121 0.88033 0.81849 0.0
N1564 N 0.15417 0.87128 0.79307 0.0
O1565 O 0.19741 0.94603 0.86559 0.0
H1566 H 0.1138 0.85698 0.87329 0.0
H1567 H 0.20742 0.89428 0.81108 0.0
O1568 O 0.23898 0.88479 0.8845 0.0
C1569 C 0.16741 0.96569 0.86613 0.0
O1570 O 0.13765 0.95204 0.88362 0.0
N1571 N 0.17749 0.86349 0.93054 0.0
C1572 C 0.15273 0.8403 1.00157 0.0
C1573 C 0.19011 0.83357 0.99046 0.0
C1574 C 0.20221 0.84596 0.95471 0.0
C1575 C 0.14076 0.86829 0.94091 0.0
C1576 C 0.12763 0.85612 0.97569 0.0
H1577 H 0.23217 0.84617 0.94927 0.0
H1578 H 0.12288 0.88718 0.92503 0.0
H1579 H 0.26604 0.9163 0.94473 0.0
H1580 H 0.19185 0.96969 0.02046 0.0
H1581 H 0.09712 0.85168 0.80204 0.0
H1582 H 0.21059 0.82289 0.01054 0.0
H1583 H 0.09891 0.86296 0.98386 0.0
loop_
_geom_bond_atom_site_label_1
_geom_bond_atom_site_label_2
_geom_bond_distance
_geom_bond_site_symmetry_2
_ccdc_geom_bond_type
C0 C1 1.351 . S
C0 N3 1.368 . S
C0 H5 0.931 . S
C1 C0 1.351 . S
C1 N2 1.373 . S
C1 H29 0.930 1_455 S
N2 C1 1.373 . S
N2 C4 1.340 . S
N3 C0 1.368 . S
N3 C4 1.321 . S
N3 Co6 2.135 . S
C4 N2 1.340 . S
C4 N3 1.321 . S
C4 H28 0.930 . S
H5 C0 0.931 . S
Co6 N3 2.135 . S
Co6 N9 2.121 . S
Co6 O14 2.055 . S
Co6 O17 2.039 . S
Co6 N20 2.140 . S
C7 O8 1.227 . S
C7 O17 1.265 . S
O8 C7 1.227 . S
N9 Co6 2.121 . S
N9 C11 1.375 . S
N9 C12 1.313 . S
C10 C11 1.338 . S
C10 N13 1.377 . S
C10 H30 0.930 . S
C11 N9 1.375 . S
C11 C10 1.338 . S
C11 H15 0.931 . S
C12 N9 1.313 . S
C12 N13 1.344 . S
C12 H16 0.930 . S
N13 C10 1.377 . S
N13 C12 1.344 . S
O14 Co6 2.055 . S
O14 C18 1.253 . S
H15 C11 0.931 . S
H16 C12 0.930 . S
O17 Co6 2.039 . S
O17 C7 1.265 . S
C18 O14 1.253 . S
C18 O19 1.227 . S
O19 C18 1.227 . S
N20 Co6 2.140 . S
N20 C23 1.346 . S
N20 C24 1.345 . S
C21 C22 1.387 . S
C21 C25 1.391 . S
C22 C21 1.387 . S
C22 C23 1.369 . S
C22 H31 0.929 1_455 S
C23 N20 1.346 . S
C23 C22 1.369 . S
C23 H26 0.928 . S
C24 N20 1.345 . S
C24 C25 1.371 . S
C24 H27 0.931 . S
C25 C21 1.391 . S
C25 C24 1.371 . S
C25 H32 0.930 . S
H26 C23 0.928 . S
H27 C24 0.931 . S
H28 C4 0.930 . S
H29 C1 0.930 1_655 S
H30 C10 0.930 . S
H31 C22 0.929 1_655 S
H32 C25 0.930 . S
C33 C34 1.351 . S
C33 N36 1.368 . S
C33 H38 0.931 . S
C34 C33 1.351 . S
C34 N35 1.373 . S
C34 H62 0.930 1_655 S
N35 C34 1.373 . S
N35 C37 1.340 . S
N36 C33 1.368 . S
N36 C37 1.321 . S
N36 Co39 2.135 . S
C37 N35 1.340 . S
C37 N36 1.321 . S
C37 H61 0.930 . S
H38 C33 0.931 . S
Co39 N36 2.135 . S
Co39 N42 2.121 . S
Co39 O47 2.055 . S
Co39 O50 2.039 . S
Co39 N53 2.140 . S
C40 O41 1.227 . S
C40 O50 1.265 . S
O41 C40 1.227 . S
N42 Co39 2.121 . S
N42 C44 1.375 . S
N42 C45 1.313 . S
C43 C44 1.338 . S
C43 N46 1.377 . S
C43 H63 0.930 . S
C44 N42 1.375 . S
C44 C43 1.338 . S
C44 H48 0.931 . S
C45 N42 1.313 . S
C45 N46 1.344 . S
C45 H49 0.930 . S
N46 C43 1.377 . S
N46 C45 1.344 . S
O47 Co39 2.055 . S
O47 C51 1.253 . S
H48 C44 0.931 . S
H49 C45 0.930 . S
O50 Co39 2.039 . S
O50 C40 1.265 . S
C51 O47 1.253 . S
C51 O52 1.227 . S
O52 C51 1.227 . S
N53 Co39 2.140 . S
N53 C56 1.346 . S
N53 C57 1.345 . S
C54 C55 1.387 . S
C54 C58 1.391 . S
C55 C54 1.387 . S
C55 C56 1.369 . S
C55 H64 0.929 1_655 S
C56 N53 1.346 . S
C56 C55 1.369 . S
C56 H59 0.928 . S
C57 N53 1.345 . S
C57 C58 1.371 . S
C57 H60 0.931 . S
C58 C54 1.391 . S
C58 C57 1.371 . S
C58 H65 0.930 . S
H59 C56 0.928 . S
H60 C57 0.931 . S
H61 C37 0.930 . S
H62 C34 0.930 1_455 S
H63 C43 0.930 . S
H64 C55 0.929 1_455 S
H65 C58 0.930 . S
C66 C67 1.351 . S
C66 N69 1.368 . S
C66 H71 0.931 . S
C67 C66 1.351 . S
C67 N68 1.373 . S
C67 H95 0.930 1_455 S
N68 C67 1.373 . S
N68 C70 1.340 . S
N69 C66 1.368 . S
N69 C70 1.321 . S
N69 Co72 2.135 . S
C70 N68 1.340 . S
C70 N69 1.321 . S
C70 H94 0.930 . S
H71 C66 0.931 . S
Co72 N69 2.135 . S
Co72 N75 2.121 . S
Co72 O80 2.055 . S
Co72 O83 2.039 . S
Co72 N86 2.140 . S
C73 O74 1.227 . S
C73 O83 1.265 . S
O74 C73 1.227 . S
N75 Co72 2.121 . S
N75 C77 1.375 . S
N75 C78 1.313 . S
C76 C77 1.338 . S
C76 N79 1.377 . S
C76 H96 0.930 . S
C77 N75 1.375 . S
C77 C76 1.338 . S
C77 H81 0.931 . S
C78 N75 1.313 . S
C78 N79 1.344 . S
C78 H82 0.930 . S
N79 C76 1.377 . S
N79 C78 1.344 . S
O80 Co72 2.055 . S
O80 C84 1.253 . S
H81 C77 0.931 . S
H82 C78 0.930 . S
O83 Co72 2.039 . S
O83 C73 1.265 . S
C84 O80 1.253 . S
C84 O85 1.227 . S
O85 C84 1.227 . S
N86 Co72 2.140 . S
N86 C89 1.346 . S
N86 C90 1.345 . S
C87 C88 1.387 . S
C87 C91 1.391 . S
C88 C87 1.387 . S
C88 C89 1.369 . S
C88 H97 0.929 1_455 S
C89 N86 1.346 . S
C89 C88 1.369 . S
C89 H92 0.928 . S
C90 N86 1.345 . S
C90 C91 1.371 . S
C90 H93 0.931 . S
C91 C87 1.391 . S
C91 C90 1.371 . S
C91 H98 0.930 . S
H92 C89 0.928 . S
H93 C90 0.931 . S
H94 C70 0.930 . S
H95 C67 0.930 1_655 S
H96 C76 0.930 . S
H97 C88 0.929 1_655 S
H98 C91 0.930 . S
C99 C100 1.351 . S
C99 N102 1.368 . S
C99 H104 0.931 . S
C100 C99 1.351 . S
C100 N101 1.373 . S
C100 H128 0.930 1_655 S
N101 C100 1.373 . S
N101 C103 1.340 . S
N102 C99 1.368 . S
N102 C103 1.321 . S
N102 Co105 2.135 . S
C103 N101 1.340 . S
C103 N102 1.321 . S
C103 H127 0.930 . S
H104 C99 0.931 . S
Co105 N102 2.135 . S
Co105 N108 2.121 . S
Co105 O113 2.055 . S
Co105 O116 2.039 . S
Co105 N119 2.140 . S
C106 O107 1.227 . S
C106 O116 1.265 . S
O107 C106 1.227 . S
N108 Co105 2.121 . S
N108 C110 1.375 . S
N108 C111 1.313 . S
C109 C110 1.338 . S
C109 N112 1.377 . S
C109 H129 0.930 . S
C110 N108 1.375 . S
C110 C109 1.338 . S
C110 H114 0.931 . S
C111 N108 1.313 . S
C111 N112 1.344 . S
C111 H115 0.930 . S
N112 C109 1.377 . S
N112 C111 1.344 . S
O113 Co105 2.055 . S
O113 C117 1.253 . S
H114 C110 0.931 . S
H115 C111 0.930 . S
O116 Co105 2.039 . S
O116 C106 1.265 . S
C117 O113 1.253 . S
C117 O118 1.227 . S
O118 C117 1.227 . S
N119 Co105 2.140 . S
N119 C122 1.346 . S
N119 C123 1.345 . S
C120 C121 1.387 . S
C120 C124 1.391 . S
C121 C120 1.387 . S
C121 C122 1.369 . S
C121 H130 0.929 1_655 S
C122 N119 1.346 . S
C122 C121 1.369 . S
C122 H125 0.928 . S
C123 N119 1.345 . S
C123 C124 1.371 . S
C123 H126 0.931 . S
C124 C120 1.391 . S
C124 C123 1.371 . S
C124 H131 0.930 . S
H125 C122 0.928 . S
H126 C123 0.931 . S
H127 C103 0.930 . S
H128 C100 0.930 1_455 S
H129 C109 0.930 . S
H130 C121 0.929 1_455 S
H131 C124 0.930 . S
C132 C133 1.351 . S
C132 N135 1.368 . S
C132 H137 0.931 . S
C133 C132 1.351 . S
C133 N134 1.373 . S
C133 H161 0.930 1_545 S
N134 C133 1.373 . S
N134 C136 1.340 . S
N135 C132 1.368 . S
N135 C136 1.321 . S
N135 Co138 2.135 . S
C136 N134 1.340 . S
C136 N135 1.321 . S
C136 H160 0.930 . S
H137 C132 0.931 . S
Co138 N135 2.135 . S
Co138 N141 2.121 . S
Co138 O146 2.055 . S
Co138 O149 2.039 . S
Co138 N152 2.140 . S
C139 O140 1.227 . S
C139 O149 1.265 . S
O140 C139 1.227 . S
N141 Co138 2.121 . S
N141 C143 1.375 . S
N141 C144 1.313 . S
C142 C143 1.338 . S
C142 N145 1.377 . S
C142 H162 0.930 . S
C143 N141 1.375 . S
C143 C142 1.338 . S
C143 H147 0.931 . S
C144 N141 1.313 . S
C144 N145 1.344 . S
C144 H148 0.930 . S
N145 C142 1.377 . S
N145 C144 1.344 . S
O146 Co138 2.055 . S
O146 C150 1.253 . S
H147 C143 0.931 . S
H148 C144 0.930 . S
O149 Co138 2.039 . S
O149 C139 1.265 . S
C150 O146 1.253 . S
C150 O151 1.227 . S
O151 C150 1.227 . S
N152 Co138 2.140 . S
N152 C155 1.346 . S
N152 C156 1.345 . S
C153 C154 1.387 . S
C153 C157 1.391 . S
C154 C153 1.387 . S
C154 C155 1.369 . S
C154 H163 0.929 1_545 S
C155 N152 1.346 . S
C155 C154 1.369 . S
C155 H158 0.928 . S
C156 N152 1.345 . S
C156 C157 1.371 . S
C156 H159 0.931 . S
C157 C153 1.391 . S
C157 C156 1.371 . S
C157 H164 0.930 . S
H158 C155 0.928 . S
H159 C156 0.931 . S
H160 C136 0.930 . S
H161 C133 0.930 1_565 S
H162 C142 0.930 . S
H163 C154 0.929 1_565 S
H164 C157 0.930 . S
C165 C166 1.351 . S
C165 N168 1.368 . S
C165 H170 0.931 . S
C166 C165 1.351 . S
C166 N167 1.373 . S
C166 H194 0.930 . S
N167 C166 1.373 . S
N167 C169 1.340 . S
N168 C165 1.368 . S
N168 C169 1.321 . S
N168 Co171 2.135 . S
C169 N167 1.340 . S
C169 N168 1.321 . S
C169 H193 0.930 . S
H170 C165 0.931 . S
Co171 N168 2.135 . S
Co171 N174 2.121 . S
Co171 O179 2.055 . S
Co171 O182 2.039 . S
Co171 N185 2.140 . S
C172 O173 1.227 . S
C172 O182 1.265 . S
O173 C172 1.227 . S
N174 Co171 2.121 . S
N174 C176 1.375 . S
N174 C177 1.313 . S
C175 C176 1.338 . S
C175 N178 1.377 . S
C175 H195 0.930 . S
C176 N174 1.375 . S
C176 C175 1.338 . S
C176 H180 0.931 . S
C177 N174 1.313 . S
C177 N178 1.344 . S
C177 H181 0.930 . S
N178 C175 1.377 . S
N178 C177 1.344 . S
O179 Co171 2.055 . S
O179 C183 1.253 . S
H180 C176 0.931 . S
H181 C177 0.930 . S
O182 Co171 2.039 . S
O182 C172 1.265 . S
C183 O179 1.253 . S
C183 O184 1.227 . S
O184 C183 1.227 . S
N185 Co171 2.140 . S
N185 C188 1.346 . S
N185 C189 1.345 . S
C186 C187 1.387 . S
C186 C190 1.391 . S
C187 C186 1.387 . S
C187 C188 1.369 . S
C187 H196 0.929 . S
C188 N185 1.346 . S
C188 C187 1.369 . S
C188 H191 0.928 . S
C189 N185 1.345 . S
C189 C190 1.371 . S
C189 H192 0.931 . S
C190 C186 1.391 . S
C190 C189 1.371 . S
C190 H197 0.930 . S
H191 C188 0.928 . S
H192 C189 0.931 . S
H193 C169 0.930 . S
H194 C166 0.930 . S
H195 C175 0.930 . S
H196 C187 0.929 . S
H197 C190 0.930 . S
C198 C199 1.351 . S
C198 N201 1.368 . S
C198 H203 0.931 . S
C199 C198 1.351 . S
C199 N200 1.373 . S
C199 H227 0.930 1_565 S
N200 C199 1.373 . S
N200 C202 1.340 . S
N201 C198 1.368 . S
N201 C202 1.321 . S
N201 Co204 2.135 . S
C202 N200 1.340 . S
C202 N201 1.321 . S
C202 H226 0.930 . S
H203 C198 0.931 . S
Co204 N201 2.135 . S
Co204 N207 2.121 . S
Co204 O212 2.055 . S
Co204 O215 2.039 . S
Co204 N218 2.140 . S
C205 O206 1.227 . S
C205 O215 1.265 . S
O206 C205 1.227 . S
N207 Co204 2.121 . S
N207 C209 1.375 . S
N207 C210 1.313 . S
C208 C209 1.338 . S
C208 N211 1.377 . S
C208 H228 0.930 . S
C209 N207 1.375 . S
C209 C208 1.338 . S
C209 H213 0.931 . S
C210 N207 1.313 . S
C210 N211 1.344 . S
C210 H214 0.930 . S
N211 C208 1.377 . S
N211 C210 1.344 . S
O212 Co204 2.055 . S
O212 C216 1.253 . S
H213 C209 0.931 . S
H214 C210 0.930 . S
O215 Co204 2.039 . S
O215 C205 1.265 . S
C216 O212 1.253 . S
C216 O217 1.227 . S
O217 C216 1.227 . S
N218 Co204 2.140 . S
N218 C221 1.346 . S
N218 C222 1.345 . S
C219 C220 1.387 . S
C219 C223 1.391 . S
C220 C219 1.387 . S
C220 C221 1.369 . S
C220 H229 0.929 1_565 S
C221 N218 1.346 . S
C221 C220 1.369 . S
C221 H224 0.928 . S
C222 N218 1.345 . S
C222 C223 1.371 . S
C222 H225 0.931 . S
C223 C219 1.391 . S
C223 C222 1.371 . S
C223 H230 0.930 . S
H224 C221 0.928 . S
H225 C222 0.931 . S
H226 C202 0.930 . S
H227 C199 0.930 1_545 S
H228 C208 0.930 . S
H229 C220 0.929 1_545 S
H230 C223 0.930 . S
C231 C232 1.351 . S
C231 N234 1.368 . S
C231 H236 0.931 . S
C232 C231 1.351 . S
C232 N233 1.373 . S
C232 H260 0.930 . S
N233 C232 1.373 . S
N233 C235 1.340 . S
N234 C231 1.368 . S
N234 C235 1.321 . S
N234 Co237 2.135 . S
C235 N233 1.340 . S
C235 N234 1.321 . S
C235 H259 0.930 . S
H236 C231 0.931 . S
Co237 N234 2.135 . S
Co237 N240 2.121 . S
Co237 O245 2.055 . S
Co237 O248 2.039 . S
Co237 N251 2.140 . S
C238 O239 1.227 . S
C238 O248 1.265 . S
O239 C238 1.227 . S
N240 Co237 2.121 . S
N240 C242 1.375 . S
N240 C243 1.313 . S
C241 C242 1.338 . S
C241 N244 1.377 . S
C241 H261 0.930 . S
C242 N240 1.375 . S
C242 C241 1.338 . S
C242 H246 0.931 . S
C243 N240 1.313 . S
C243 N244 1.344 . S
C243 H247 0.930 . S
N244 C241 1.377 . S
N244 C243 1.344 . S
O245 Co237 2.055 . S
O245 C249 1.253 . S
H246 C242 0.931 . S
H247 C243 0.930 . S
O248 Co237 2.039 . S
O248 C238 1.265 . S
C249 O245 1.253 . S
C249 O250 1.227 . S
O250 C249 1.227 . S
N251 Co237 2.140 . S
N251 C254 1.346 . S
N251 C255 1.345 . S
C252 C253 1.387 . S
C252 C256 1.391 . S
C253 C252 1.387 . S
C253 C254 1.369 . S
C253 H262 0.929 . S
C254 N251 1.346 . S
C254 C253 1.369 . S
C254 H257 0.928 . S
C255 N251 1.345 . S
C255 C256 1.371 . S
C255 H258 0.931 . S
C256 C252 1.391 . S
C256 C255 1.371 . S
C256 H263 0.930 . S
H257 C254 0.928 . S
H258 C255 0.931 . S
H259 C235 0.930 . S
H260 C232 0.930 . S
H261 C241 0.930 . S
H262 C253 0.929 . S
H263 C256 0.930 . S
C264 C265 1.351 . S
C264 N267 1.368 . S
C264 H269 0.931 . S
C265 C264 1.351 . S
C265 N266 1.373 . S
C265 H293 0.930 1_554 S
N266 C265 1.373 . S
N266 C268 1.340 . S
N267 C264 1.368 . S
N267 C268 1.321 . S
N267 Co270 2.135 . S
C268 N266 1.340 . S
C268 N267 1.321 . S
C268 H292 0.930 . S
H269 C264 0.931 . S
Co270 N267 2.135 . S
Co270 N273 2.121 . S
Co270 O278 2.055 . S
Co270 O281 2.039 . S
Co270 N284 2.140 . S
C271 O272 1.227 . S
C271 O281 1.265 . S
O272 C271 1.227 . S
N273 Co270 2.121 . S
N273 C275 1.375 . S
N273 C276 1.313 . S
C274 C275 1.338 . S
C274 N277 1.377 . S
C274 H294 0.930 . S
C275 N273 1.375 . S
C275 C274 1.338 . S
C275 H279 0.931 . S
C276 N273 1.313 . S
C276 N277 1.344 . S
C276 H280 0.930 . S
N277 C274 1.377 . S
N277 C276 1.344 . S
O278 Co270 2.055 . S
O278 C282 1.253 . S
H279 C275 0.931 . S
H280 C276 0.930 . S
O281 Co270 2.039 . S
O281 C271 1.265 . S
C282 O278 1.253 . S
C282 O283 1.227 . S
O283 C282 1.227 . S
N284 Co270 2.140 . S
N284 C287 1.346 . S
N284 C288 1.345 . S
C285 C286 1.387 . S
C285 C289 1.391 . S
C286 C285 1.387 . S
C286 C287 1.369 . S
C286 H295 0.929 1_554 S
C287 N284 1.346 . S
C287 C286 1.369 . S
C287 H290 0.928 . S
C288 N284 1.345 . S
C288 C289 1.371 . S
C288 H291 0.931 . S
C289 C285 1.391 . S
C289 C288 1.371 . S
C289 H296 0.930 . S
H290 C287 0.928 . S
H291 C288 0.931 . S
H292 C268 0.930 . S
H293 C265 0.930 1_556 S
H294 C274 0.930 . S
H295 C286 0.929 1_556 S
H296 C289 0.930 . S
C297 C298 1.351 . S
C297 N300 1.368 . S
C297 H302 0.931 . S
C298 C297 1.351 . S
C298 N299 1.373 . S
C298 H326 0.930 . S
N299 C298 1.373 . S
N299 C301 1.340 . S
N300 C297 1.368 . S
N300 C301 1.321 . S
N300 Co303 2.135 . S
C301 N299 1.340 . S
C301 N300 1.321 . S
C301 H325 0.930 . S
H302 C297 0.931 . S
Co303 N300 2.135 . S
Co303 N306 2.121 . S
Co303 O311 2.055 . S
Co303 O314 2.039 . S
Co303 N317 2.140 . S
C304 O305 1.227 . S
C304 O314 1.265 . S
O305 C304 1.227 . S
N306 Co303 2.121 . S
N306 C308 1.375 . S
N306 C309 1.313 . S
C307 C308 1.338 . S
C307 N310 1.377 . S
C307 H327 0.930 . S
C308 N306 1.375 . S
C308 C307 1.338 . S
C308 H312 0.931 . S
C309 N306 1.313 . S
C309 N310 1.344 . S
C309 H313 0.930 . S
N310 C307 1.377 . S
N310 C309 1.344 . S
O311 Co303 2.055 . S
O311 C315 1.253 . S
H312 C308 0.931 . S
H313 C309 0.930 . S
O314 Co303 2.039 . S
O314 C304 1.265 . S
C315 O311 1.253 . S
C315 O316 1.227 . S
O316 C315 1.227 . S
N317 Co303 2.140 . S
N317 C320 1.346 . S
N317 C321 1.345 . S
C318 C319 1.387 . S
C318 C322 1.391 . S
C319 C318 1.387 . S
C319 C320 1.369 . S
C319 H328 0.929 . S
C320 N317 1.346 . S
C320 C319 1.369 . S
C320 H323 0.928 . S
C321 N317 1.345 . S
C321 C322 1.371 . S
C321 H324 0.931 . S
C322 C318 1.391 . S
C322 C321 1.371 . S
C322 H329 0.930 . S
H323 C320 0.928 . S
H324 C321 0.931 . S
H325 C301 0.930 . S
H326 C298 0.930 . S
H327 C307 0.930 . S
H328 C319 0.929 . S
H329 C322 0.930 . S
C330 C331 1.351 . S
C330 N333 1.368 . S
C330 H335 0.931 . S
C331 C330 1.351 . S
C331 N332 1.373 . S
C331 H359 0.930 . S
N332 C331 1.373 . S
N332 C334 1.340 . S
N333 C330 1.368 . S
N333 C334 1.321 . S
N333 Co336 2.135 . S
C334 N332 1.340 . S
C334 N333 1.321 . S
C334 H358 0.930 . S
H335 C330 0.931 . S
Co336 N333 2.135 . S
Co336 N339 2.121 . S
Co336 O344 2.055 . S
Co336 O347 2.039 . S
Co336 N350 2.140 . S
C337 O338 1.227 . S
C337 O347 1.265 . S
O338 C337 1.227 . S
N339 Co336 2.121 . S
N339 C341 1.375 . S
N339 C342 1.313 . S
C340 C341 1.338 . S
C340 N343 1.377 . S
C340 H360 0.930 . S
C341 N339 1.375 . S
C341 C340 1.338 . S
C341 H345 0.931 . S
C342 N339 1.313 . S
C342 N343 1.344 . S
C342 H346 0.930 . S
N343 C340 1.377 . S
N343 C342 1.344 . S
O344 Co336 2.055 . S
O344 C348 1.253 . S
H345 C341 0.931 . S
H346 C342 0.930 . S
O347 Co336 2.039 . S
O347 C337 1.265 . S
C348 O344 1.253 . S
C348 O349 1.227 . S
O349 C348 1.227 . S
N350 Co336 2.140 . S
N350 C353 1.346 . S
N350 C354 1.345 . S
C351 C352 1.387 . S
C351 C355 1.391 . S
C352 C351 1.387 . S
C352 C353 1.369 . S
C352 H361 0.929 . S
C353 N350 1.346 . S
C353 C352 1.369 . S
C353 H356 0.928 . S
C354 N350 1.345 . S
C354 C355 1.371 . S
C354 H357 0.931 . S
C355 C351 1.391 . S
C355 C354 1.371 . S
C355 H362 0.930 . S
H356 C353 0.928 . S
H357 C354 0.931 . S
H358 C334 0.930 . S
H359 C331 0.930 . S
H360 C340 0.930 . S
H361 C352 0.929 . S
H362 C355 0.930 . S
C363 C364 1.351 . S
C363 N366 1.368 . S
C363 H368 0.931 . S
C364 C363 1.351 . S
C364 N365 1.373 . S
C364 H392 0.930 . S
N365 C364 1.373 . S
N365 C367 1.340 . S
N366 C363 1.368 . S
N366 C367 1.321 . S
N366 Co369 2.135 . S
C367 N365 1.340 . S
C367 N366 1.321 . S
C367 H391 0.930 . S
H368 C363 0.931 . S
Co369 N366 2.135 . S
Co369 N372 2.121 . S
Co369 O377 2.055 . S
Co369 O380 2.039 . S
Co369 N383 2.140 . S
C370 O371 1.227 . S
C370 O380 1.265 . S
O371 C370 1.227 . S
N372 Co369 2.121 . S
N372 C374 1.375 . S
N372 C375 1.313 . S
C373 C374 1.338 . S
C373 N376 1.377 . S
C373 H393 0.930 . S
C374 N372 1.375 . S
C374 C373 1.338 . S
C374 H378 0.931 . S
C375 N372 1.313 . S
C375 N376 1.344 . S
C375 H379 0.930 . S
N376 C373 1.377 . S
N376 C375 1.344 . S
O377 Co369 2.055 . S
O377 C381 1.253 . S
H378 C374 0.931 . S
H379 C375 0.930 . S
O380 Co369 2.039 . S
O380 C370 1.265 . S
C381 O377 1.253 . S
C381 O382 1.227 . S
O382 C381 1.227 . S
N383 Co369 2.140 . S
N383 C386 1.346 . S
N383 C387 1.345 . S
C384 C385 1.387 . S
C384 C388 1.391 . S
C385 C384 1.387 . S
C385 C386 1.369 . S
C385 H394 0.929 . S
C386 N383 1.346 . S
C386 C385 1.369 . S
C386 H389 0.928 . S
C387 N383 1.345 . S
C387 C388 1.371 . S
C387 H390 0.931 . S
C388 C384 1.391 . S
C388 C387 1.371 . S
C388 H395 0.930 . S
H389 C386 0.928 . S
H390 C387 0.931 . S
H391 C367 0.930 . S
H392 C364 0.930 . S
H393 C373 0.930 . S
H394 C385 0.929 . S
H395 C388 0.930 . S
C396 C397 1.351 . S
C396 N399 1.368 . S
C396 H401 0.931 . S
C397 C396 1.351 . S
C397 N398 1.373 . S
C397 H425 0.930 1_655 S
N398 C397 1.373 . S
N398 C400 1.340 . S
N399 C396 1.368 . S
N399 C400 1.321 . S
N399 Co402 2.135 . S
C400 N398 1.340 . S
C400 N399 1.321 . S
C400 H424 0.930 . S
H401 C396 0.931 . S
Co402 N399 2.135 . S
Co402 N405 2.121 . S
Co402 O410 2.055 . S
Co402 O413 2.039 . S
Co402 N416 2.140 . S
C403 O404 1.227 . S
C403 O413 1.265 . S
O404 C403 1.227 . S
N405 Co402 2.121 . S
N405 C407 1.375 . S
N405 C408 1.313 . S
C406 C407 1.338 . S
C406 N409 1.377 . S
C406 H426 0.930 . S
C407 N405 1.375 . S
C407 C406 1.338 . S
C407 H411 0.931 . S
C408 N405 1.313 . S
C408 N409 1.344 . S
C408 H412 0.930 . S
N409 C406 1.377 . S
N409 C408 1.344 . S
O410 Co402 2.055 . S
O410 C414 1.253 . S
H411 C407 0.931 . S
H412 C408 0.930 . S
O413 Co402 2.039 . S
O413 C403 1.265 . S
C414 O410 1.253 . S
C414 O415 1.227 . S
O415 C414 1.227 . S
N416 Co402 2.140 . S
N416 C419 1.346 . S
N416 C420 1.345 . S
C417 C418 1.387 . S
C417 C421 1.391 . S
C418 C417 1.387 . S
C418 C419 1.369 . S
C418 H427 0.929 1_655 S
C419 N416 1.346 . S
C419 C418 1.369 . S
C419 H422 0.928 . S
C420 N416 1.345 . S
C420 C421 1.371 . S
C420 H423 0.931 . S
C421 C417 1.391 . S
C421 C420 1.371 . S
C421 H428 0.930 . S
H422 C419 0.928 . S
H423 C420 0.931 . S
H424 C400 0.930 . S
H425 C397 0.930 1_455 S
H426 C406 0.930 . S
H427 C418 0.929 1_455 S
H428 C421 0.930 . S
C429 C430 1.351 . S
C429 N432 1.368 . S
C429 H434 0.931 . S
C430 C429 1.351 . S
C430 N431 1.373 . S
C430 H458 0.930 1_455 S
N431 C430 1.373 . S
N431 C433 1.340 . S
N432 C429 1.368 . S
N432 C433 1.321 . S
N432 Co435 2.135 . S
C433 N431 1.340 . S
C433 N432 1.321 . S
C433 H457 0.930 . S
H434 C429 0.931 . S
Co435 N432 2.135 . S
Co435 N438 2.121 . S
Co435 O443 2.055 . S
Co435 O446 2.039 . S
Co435 N449 2.140 . S
C436 O437 1.227 . S
C436 O446 1.265 . S
O437 C436 1.227 . S
N438 Co435 2.121 . S
N438 C440 1.375 . S
N438 C441 1.313 . S
C439 C440 1.338 . S
C439 N442 1.377 . S
C439 H459 0.930 . S
C440 N438 1.375 . S
C440 C439 1.338 . S
C440 H444 0.931 . S
C441 N438 1.313 . S
C441 N442 1.344 . S
C441 H445 0.930 . S
N442 C439 1.377 . S
N442 C441 1.344 . S
O443 Co435 2.055 . S
O443 C447 1.253 . S
H444 C440 0.931 . S
H445 C441 0.930 . S
O446 Co435 2.039 . S
O446 C436 1.265 . S
C447 O443 1.253 . S
C447 O448 1.227 . S
O448 C447 1.227 . S
N449 Co435 2.140 . S
N449 C452 1.346 . S
N449 C453 1.345 . S
C450 C451 1.387 . S
C450 C454 1.391 . S
C451 C450 1.387 . S
C451 C452 1.369 . S
C451 H460 0.929 1_455 S
C452 N449 1.346 . S
C452 C451 1.369 . S
C452 H455 0.928 . S
C453 N449 1.345 . S
C453 C454 1.371 . S
C453 H456 0.931 . S
C454 C450 1.391 . S
C454 C453 1.371 . S
C454 H461 0.930 . S
H455 C452 0.928 . S
H456 C453 0.931 . S
H457 C433 0.930 . S
H458 C430 0.930 1_655 S
H459 C439 0.930 . S
H460 C451 0.929 1_655 S
H461 C454 0.930 . S
C462 C463 1.351 . S
C462 N465 1.368 . S
C462 H467 0.931 . S
C463 C462 1.351 . S
C463 N464 1.373 . S
C463 H491 0.930 1_655 S
N464 C463 1.373 . S
N464 C466 1.340 . S
N465 C462 1.368 . S
N465 C466 1.321 . S
N465 Co468 2.135 . S
C466 N464 1.340 . S
C466 N465 1.321 . S
C466 H490 0.930 . S
H467 C462 0.931 . S
Co468 N465 2.135 . S
Co468 N471 2.121 . S
Co468 O476 2.055 . S
Co468 O479 2.039 . S
Co468 N482 2.140 . S
C469 O470 1.227 . S
C469 O479 1.265 . S
O470 C469 1.227 . S
N471 Co468 2.121 . S
N471 C473 1.375 . S
N471 C474 1.313 . S
C472 C473 1.338 . S
C472 N475 1.377 . S
C472 H492 0.930 . S
C473 N471 1.375 . S
C473 C472 1.338 . S
C473 H477 0.931 . S
C474 N471 1.313 . S
C474 N475 1.344 . S
C474 H478 0.930 . S
N475 C472 1.377 . S
N475 C474 1.344 . S
O476 Co468 2.055 . S
O476 C480 1.253 . S
H477 C473 0.931 . S
H478 C474 0.930 . S
O479 Co468 2.039 . S
O479 C469 1.265 . S
C480 O476 1.253 . S
C480 O481 1.227 . S
O481 C480 1.227 . S
N482 Co468 2.140 . S
N482 C485 1.346 . S
N482 C486 1.345 . S
C483 C484 1.387 . S
C483 C487 1.391 . S
C484 C483 1.387 . S
C484 C485 1.369 . S
C484 H493 0.929 1_655 S
C485 N482 1.346 . S
C485 C484 1.369 . S
C485 H488 0.928 . S
C486 N482 1.345 . S
C486 C487 1.371 . S
C486 H489 0.931 . S
C487 C483 1.391 . S
C487 C486 1.371 . S
C487 H494 0.930 . S
H488 C485 0.928 . S
H489 C486 0.931 . S
H490 C466 0.930 . S
H491 C463 0.930 1_455 S
H492 C472 0.930 . S
H493 C484 0.929 1_455 S
H494 C487 0.930 . S
C495 C496 1.351 . S
C495 N498 1.368 . S
C495 H500 0.931 . S
C496 C495 1.351 . S
C496 N497 1.373 . S
C496 H524 0.930 1_455 S
N497 C496 1.373 . S
N497 C499 1.340 . S
N498 C495 1.368 . S
N498 C499 1.321 . S
N498 Co501 2.135 . S
C499 N497 1.340 . S
C499 N498 1.321 . S
C499 H523 0.930 . S
H500 C495 0.931 . S
Co501 N498 2.135 . S
Co501 N504 2.121 . S
Co501 O509 2.055 . S
Co501 O512 2.039 . S
Co501 N515 2.140 . S
C502 O503 1.227 . S
C502 O512 1.265 . S
O503 C502 1.227 . S
N504 Co501 2.121 . S
N504 C506 1.375 . S
N504 C507 1.313 . S
C505 C506 1.338 . S
C505 N508 1.377 . S
C505 H525 0.930 . S
C506 N504 1.375 . S
C506 C505 1.338 . S
C506 H510 0.931 . S
C507 N504 1.313 . S
C507 N508 1.344 . S
C507 H511 0.930 . S
N508 C505 1.377 . S
N508 C507 1.344 . S
O509 Co501 2.055 . S
O509 C513 1.253 . S
H510 C506 0.931 . S
H511 C507 0.930 . S
O512 Co501 2.039 . S
O512 C502 1.265 . S
C513 O509 1.253 . S
C513 O514 1.227 . S
O514 C513 1.227 . S
N515 Co501 2.140 . S
N515 C518 1.346 . S
N515 C519 1.345 . S
C516 C517 1.387 . S
C516 C520 1.391 . S
C517 C516 1.387 . S
C517 C518 1.369 . S
C517 H526 0.929 1_455 S
C518 N515 1.346 . S
C518 C517 1.369 . S
C518 H521 0.928 . S
C519 N515 1.345 . S
C519 C520 1.371 . S
C519 H522 0.931 . S
C520 C516 1.391 . S
C520 C519 1.371 . S
C520 H527 0.930 . S
H521 C518 0.928 . S
H522 C519 0.931 . S
H523 C499 0.930 . S
H524 C496 0.930 1_655 S
H525 C505 0.930 . S
H526 C517 0.929 1_655 S
H527 C520 0.930 . S
C528 C529 1.351 . S
C528 N531 1.368 . S
C528 H533 0.931 . S
C529 C528 1.351 . S
C529 N530 1.373 . S
C529 H557 0.930 1_565 S
N530 C529 1.373 . S
N530 C532 1.340 . S
N531 C528 1.368 . S
N531 C532 1.321 . S
N531 Co534 2.135 . S
C532 N530 1.340 . S
C532 N531 1.321 . S
C532 H556 0.930 . S
H533 C528 0.931 . S
Co534 N531 2.135 . S
Co534 N537 2.121 . S
Co534 O542 2.055 . S
Co534 O545 2.039 . S
Co534 N548 2.140 . S
C535 O536 1.227 . S
C535 O545 1.265 . S
O536 C535 1.227 . S
N537 Co534 2.121 . S
N537 C539 1.375 . S
N537 C540 1.313 . S
C538 C539 1.338 . S
C538 N541 1.377 . S
C538 H558 0.930 . S
C539 N537 1.375 . S
C539 C538 1.338 . S
C539 H543 0.931 . S
C540 N537 1.313 . S
C540 N541 1.344 . S
C540 H544 0.930 . S
N541 C538 1.377 . S
N541 C540 1.344 . S
O542 Co534 2.055 . S
O542 C546 1.253 . S
H543 C539 0.931 . S
H544 C540 0.930 . S
O545 Co534 2.039 . S
O545 C535 1.265 . S
C546 O542 1.253 . S
C546 O547 1.227 . S
O547 C546 1.227 . S
N548 Co534 2.140 . S
N548 C551 1.346 . S
N548 C552 1.345 . S
C549 C550 1.387 . S
C549 C553 1.391 . S
C550 C549 1.387 . S
C550 C551 1.369 . S
C550 H559 0.929 1_565 S
C551 N548 1.346 . S
C551 C550 1.369 . S
C551 H554 0.928 . S
C552 N548 1.345 . S
C552 C553 1.371 . S
C552 H555 0.931 . S
C553 C549 1.391 . S
C553 C552 1.371 . S
C553 H560 0.930 . S
H554 C551 0.928 . S
H555 C552 0.931 . S
H556 C532 0.930 . S
H557 C529 0.930 1_545 S
H558 C538 0.930 . S
H559 C550 0.929 1_545 S
H560 C553 0.930 . S
C561 C562 1.351 . S
C561 N564 1.368 . S
C561 H566 0.931 . S
C562 C561 1.351 . S
C562 N563 1.373 . S
C562 H590 0.930 . S
N563 C562 1.373 . S
N563 C565 1.340 . S
N564 C561 1.368 . S
N564 C565 1.321 . S
N564 Co567 2.135 . S
C565 N563 1.340 . S
C565 N564 1.321 . S
C565 H589 0.930 . S
H566 C561 0.931 . S
Co567 N564 2.135 . S
Co567 N570 2.121 . S
Co567 O575 2.055 . S
Co567 O578 2.039 . S
Co567 N581 2.140 . S
C568 O569 1.227 . S
C568 O578 1.265 . S
O569 C568 1.227 . S
N570 Co567 2.121 . S
N570 C572 1.375 . S
N570 C573 1.313 . S
C571 C572 1.338 . S
C571 N574 1.377 . S
C571 H591 0.930 . S
C572 N570 1.375 . S
C572 C571 1.338 . S
C572 H576 0.931 . S
C573 N570 1.313 . S
C573 N574 1.344 . S
C573 H577 0.930 . S
N574 C571 1.377 . S
N574 C573 1.344 . S
O575 Co567 2.055 . S
O575 C579 1.253 . S
H576 C572 0.931 . S
H577 C573 0.930 . S
O578 Co567 2.039 . S
O578 C568 1.265 . S
C579 O575 1.253 . S
C579 O580 1.227 . S
O580 C579 1.227 . S
N581 Co567 2.140 . S
N581 C584 1.346 . S
N581 C585 1.345 . S
C582 C583 1.387 . S
C582 C586 1.391 . S
C583 C582 1.387 . S
C583 C584 1.369 . S
C583 H592 0.929 . S
C584 N581 1.346 . S
C584 C583 1.369 . S
C584 H587 0.928 . S
C585 N581 1.345 . S
C585 C586 1.371 . S
C585 H588 0.931 . S
C586 C582 1.391 . S
C586 C585 1.371 . S
C586 H593 0.930 . S
H587 C584 0.928 . S
H588 C585 0.931 . S
H589 C565 0.930 . S
H590 C562 0.930 . S
H591 C571 0.930 . S
H592 C583 0.929 . S
H593 C586 0.930 . S
C594 C595 1.351 . S
C594 N597 1.368 . S
C594 H599 0.931 . S
C595 C594 1.351 . S
C595 N596 1.373 . S
C595 H623 0.930 1_545 S
N596 C595 1.373 . S
N596 C598 1.340 . S
N597 C594 1.368 . S
N597 C598 1.321 . S
N597 Co600 2.135 . S
C598 N596 1.340 . S
C598 N597 1.321 . S
C598 H622 0.930 . S
H599 C594 0.931 . S
Co600 N597 2.135 . S
Co600 N603 2.121 . S
Co600 O608 2.055 . S
Co600 O611 2.039 . S
Co600 N614 2.140 . S
C601 O602 1.227 . S
C601 O611 1.265 . S
O602 C601 1.227 . S
N603 Co600 2.121 . S
N603 C605 1.375 . S
N603 C606 1.313 . S
C604 C605 1.338 . S
C604 N607 1.377 . S
C604 H624 0.930 . S
C605 N603 1.375 . S
C605 C604 1.338 . S
C605 H609 0.931 . S
C606 N603 1.313 . S
C606 N607 1.344 . S
C606 H610 0.930 . S
N607 C604 1.377 . S
N607 C606 1.344 . S
O608 Co600 2.055 . S
O608 C612 1.253 . S
H609 C605 0.931 . S
H610 C606 0.930 . S
O611 Co600 2.039 . S
O611 C601 1.265 . S
C612 O608 1.253 . S
C612 O613 1.227 . S
O613 C612 1.227 . S
N614 Co600 2.140 . S
N614 C617 1.346 . S
N614 C618 1.345 . S
C615 C616 1.387 . S
C615 C619 1.391 . S
C616 C615 1.387 . S
C616 C617 1.369 . S
C616 H625 0.929 1_545 S
C617 N614 1.346 . S
C617 C616 1.369 . S
C617 H620 0.928 . S
C618 N614 1.345 . S
C618 C619 1.371 . S
C618 H621 0.931 . S
C619 C615 1.391 . S
C619 C618 1.371 . S
C619 H626 0.930 . S
H620 C617 0.928 . S
H621 C618 0.931 . S
H622 C598 0.930 . S
H623 C595 0.930 1_565 S
H624 C604 0.930 . S
H625 C616 0.929 1_565 S
H626 C619 0.930 . S
C627 C628 1.351 . S
C627 N630 1.368 . S
C627 H632 0.931 . S
C628 C627 1.351 . S
C628 N629 1.373 . S
C628 H656 0.930 . S
N629 C628 1.373 . S
N629 C631 1.340 . S
N630 C627 1.368 . S
N630 C631 1.321 . S
N630 Co633 2.135 . S
C631 N629 1.340 . S
C631 N630 1.321 . S
C631 H655 0.930 . S
H632 C627 0.931 . S
Co633 N630 2.135 . S
Co633 N636 2.121 . S
Co633 O641 2.055 . S
Co633 O644 2.039 . S
Co633 N647 2.140 . S
C634 O635 1.227 . S
C634 O644 1.265 . S
O635 C634 1.227 . S
N636 Co633 2.121 . S
N636 C638 1.375 . S
N636 C639 1.313 . S
C637 C638 1.338 . S
C637 N640 1.377 . S
C637 H657 0.930 . S
C638 N636 1.375 . S
C638 C637 1.338 . S
C638 H642 0.931 . S
C639 N636 1.313 . S
C639 N640 1.344 . S
C639 H643 0.930 . S
N640 C637 1.377 . S
N640 C639 1.344 . S
O641 Co633 2.055 . S
O641 C645 1.253 . S
H642 C638 0.931 . S
H643 C639 0.930 . S
O644 Co633 2.039 . S
O644 C634 1.265 . S
C645 O641 1.253 . S
C645 O646 1.227 . S
O646 C645 1.227 . S
N647 Co633 2.140 . S
N647 C650 1.346 . S
N647 C651 1.345 . S
C648 C649 1.387 . S
C648 C652 1.391 . S
C649 C648 1.387 . S
C649 C650 1.369 . S
C649 H658 0.929 . S
C650 N647 1.346 . S
C650 C649 1.369 . S
C650 H653 0.928 . S
C651 N647 1.345 . S
C651 C652 1.371 . S
C651 H654 0.931 . S
C652 C648 1.391 . S
C652 C651 1.371 . S
C652 H659 0.930 . S
H653 C650 0.928 . S
H654 C651 0.931 . S
H655 C631 0.930 . S
H656 C628 0.930 . S
H657 C637 0.930 . S
H658 C649 0.929 . S
H659 C652 0.930 . S
C660 C661 1.351 . S
C660 N663 1.368 . S
C660 H665 0.931 . S
C661 C660 1.351 . S
C661 N662 1.373 . S
C661 H689 0.930 1_556 S
N662 C661 1.373 . S
N662 C664 1.340 . S
N663 C660 1.368 . S
N663 C664 1.321 . S
N663 Co666 2.135 . S
C664 N662 1.340 . S
C664 N663 1.321 . S
C664 H688 0.930 . S
H665 C660 0.931 . S
Co666 N663 2.135 . S
Co666 N669 2.121 . S
Co666 O674 2.055 . S
Co666 O677 2.039 . S
Co666 N680 2.140 . S
C667 O668 1.227 . S
C667 O677 1.265 . S
O668 C667 1.227 . S
N669 Co666 2.121 . S
N669 C671 1.375 . S
N669 C672 1.313 . S
C670 C671 1.338 . S
C670 N673 1.377 . S
C670 H690 0.930 . S
C671 N669 1.375 . S
C671 C670 1.338 . S
C671 H675 0.931 . S
C672 N669 1.313 . S
C672 N673 1.344 . S
C672 H676 0.930 . S
N673 C670 1.377 . S
N673 C672 1.344 . S
O674 Co666 2.055 . S
O674 C678 1.253 . S
H675 C671 0.931 . S
H676 C672 0.930 . S
O677 Co666 2.039 . S
O677 C667 1.265 . S
C678 O674 1.253 . S
C678 O679 1.227 . S
O679 C678 1.227 . S
N680 Co666 2.140 . S
N680 C683 1.346 . S
N680 C684 1.345 . S
C681 C682 1.387 . S
C681 C685 1.391 . S
C682 C681 1.387 . S
C682 C683 1.369 . S
C682 H691 0.929 1_556 S
C683 N680 1.346 . S
C683 C682 1.369 . S
C683 H686 0.928 . S
C684 N680 1.345 . S
C684 C685 1.371 . S
C684 H687 0.931 . S
C685 C681 1.391 . S
C685 C684 1.371 . S
C685 H692 0.930 . S
H686 C683 0.928 . S
H687 C684 0.931 . S
H688 C664 0.930 . S
H689 C661 0.930 1_554 S
H690 C670 0.930 . S
H691 C682 0.929 1_554 S
H692 C685 0.930 . S
C693 C694 1.351 . S
C693 N696 1.368 . S
C693 H698 0.931 . S
C694 C693 1.351 . S
C694 N695 1.373 . S
C694 H722 0.930 . S
N695 C694 1.373 . S
N695 C697 1.340 . S
N696 C693 1.368 . S
N696 C697 1.321 . S
N696 Co699 2.135 . S
C697 N695 1.340 . S
C697 N696 1.321 . S
C697 H721 0.930 . S
H698 C693 0.931 . S
Co699 N696 2.135 . S
Co699 N702 2.121 . S
Co699 O707 2.055 . S
Co699 O710 2.039 . S
Co699 N713 2.140 . S
C700 O701 1.227 . S
C700 O710 1.265 . S
O701 C700 1.227 . S
N702 Co699 2.121 . S
N702 C704 1.375 . S
N702 C705 1.313 . S
C703 C704 1.338 . S
C703 N706 1.377 . S
C703 H723 0.930 . S
C704 N702 1.375 . S
C704 C703 1.338 . S
C704 H708 0.931 . S
C705 N702 1.313 . S
C705 N706 1.344 . S
C705 H709 0.930 . S
N706 C703 1.377 . S
N706 C705 1.344 . S
O707 Co699 2.055 . S
O707 C711 1.253 . S
H708 C704 0.931 . S
H709 C705 0.930 . S
O710 Co699 2.039 . S
O710 C700 1.265 . S
C711 O707 1.253 . S
C711 O712 1.227 . S
O712 C711 1.227 . S
N713 Co699 2.140 . S
N713 C716 1.346 . S
N713 C717 1.345 . S
C714 C715 1.387 . S
C714 C718 1.391 . S
C715 C714 1.387 . S
C715 C716 1.369 . S
C715 H724 0.929 . S
C716 N713 1.346 . S
C716 C715 1.369 . S
C716 H719 0.928 . S
C717 N713 1.345 . S
C717 C718 1.371 . S
C717 H720 0.931 . S
C718 C714 1.391 . S
C718 C717 1.371 . S
C718 H725 0.930 . S
H719 C716 0.928 . S
H720 C717 0.931 . S
H721 C697 0.930 . S
H722 C694 0.930 . S
H723 C703 0.930 . S
H724 C715 0.929 . S
H725 C718 0.930 . S
C726 C727 1.351 . S
C726 N729 1.368 . S
C726 H731 0.931 . S
C727 C726 1.351 . S
C727 N728 1.373 . S
C727 H755 0.930 . S
N728 C727 1.373 . S
N728 C730 1.340 . S
N729 C726 1.368 . S
N729 C730 1.321 . S
N729 Co732 2.135 . S
C730 N728 1.340 . S
C730 N729 1.321 . S
C730 H754 0.930 . S
H731 C726 0.931 . S
Co732 N729 2.135 . S
Co732 N735 2.121 . S
Co732 O740 2.055 . S
Co732 O743 2.039 . S
Co732 N746 2.140 . S
C733 O734 1.227 . S
C733 O743 1.265 . S
O734 C733 1.227 . S
N735 Co732 2.121 . S
N735 C737 1.375 . S
N735 C738 1.313 . S
C736 C737 1.338 . S
C736 N739 1.377 . S
C736 H756 0.930 . S
C737 N735 1.375 . S
C737 C736 1.338 . S
C737 H741 0.931 . S
C738 N735 1.313 . S
C738 N739 1.344 . S
C738 H742 0.930 . S
N739 C736 1.377 . S
N739 C738 1.344 . S
O740 Co732 2.055 . S
O740 C744 1.253 . S
H741 C737 0.931 . S
H742 C738 0.930 . S
O743 Co732 2.039 . S
O743 C733 1.265 . S
C744 O740 1.253 . S
C744 O745 1.227 . S
O745 C744 1.227 . S
N746 Co732 2.140 . S
N746 C749 1.346 . S
N746 C750 1.345 . S
C747 C748 1.387 . S
C747 C751 1.391 . S
C748 C747 1.387 . S
C748 C749 1.369 . S
C748 H757 0.929 . S
C749 N746 1.346 . S
C749 C748 1.369 . S
C749 H752 0.928 . S
C750 N746 1.345 . S
C750 C751 1.371 . S
C750 H753 0.931 . S
C751 C747 1.391 . S
C751 C750 1.371 . S
C751 H758 0.930 . S
H752 C749 0.928 . S
H753 C750 0.931 . S
H754 C730 0.930 . S
H755 C727 0.930 . S
H756 C736 0.930 . S
H757 C748 0.929 . S
H758 C751 0.930 . S
C759 C760 1.351 . S
C759 N762 1.368 . S
C759 H764 0.931 . S
C760 C759 1.351 . S
C760 N761 1.373 . S
C760 H788 0.930 . S
N761 C760 1.373 . S
N761 C763 1.340 . S
N762 C759 1.368 . S
N762 C763 1.321 . S
N762 Co765 2.135 . S
C763 N761 1.340 . S
C763 N762 1.321 . S
C763 H787 0.930 . S
H764 C759 0.931 . S
Co765 N762 2.135 . S
Co765 N768 2.121 . S
Co765 O773 2.055 . S
Co765 O776 2.039 . S
Co765 N779 2.140 . S
C766 O767 1.227 . S
C766 O776 1.265 . S
O767 C766 1.227 . S
N768 Co765 2.121 . S
N768 C770 1.375 . S
N768 C771 1.313 . S
C769 C770 1.338 . S
C769 N772 1.377 . S
C769 H789 0.930 . S
C770 N768 1.375 . S
C770 C769 1.338 . S
C770 H774 0.931 . S
C771 N768 1.313 . S
C771 N772 1.344 . S
C771 H775 0.930 . S
N772 C769 1.377 . S
N772 C771 1.344 . S
O773 Co765 2.055 . S
O773 C777 1.253 . S
H774 C770 0.931 . S
H775 C771 0.930 . S
O776 Co765 2.039 . S
O776 C766 1.265 . S
C777 O773 1.253 . S
C777 O778 1.227 . S
O778 C777 1.227 . S
N779 Co765 2.140 . S
N779 C782 1.346 . S
N779 C783 1.345 . S
C780 C781 1.387 . S
C780 C784 1.391 . S
C781 C780 1.387 . S
C781 C782 1.369 . S
C781 H790 0.929 . S
C782 N779 1.346 . S
C782 C781 1.369 . S
C782 H785 0.928 . S
C783 N779 1.345 . S
C783 C784 1.371 . S
C783 H786 0.931 . S
C784 C780 1.391 . S
C784 C783 1.371 . S
C784 H791 0.930 . S
H785 C782 0.928 . S
H786 C783 0.931 . S
H787 C763 0.930 . S
H788 C760 0.930 . S
H789 C769 0.930 . S
H790 C781 0.929 . S
H791 C784 0.930 . S
C792 C793 1.351 . S
C792 N795 1.368 . S
C792 H797 0.931 . S
C793 C792 1.351 . S
C793 N794 1.373 . S
C793 H821 0.930 . S
N794 C793 1.373 . S
N794 C796 1.340 . S
N795 C792 1.368 . S
N795 C796 1.321 . S
N795 Co798 2.135 . S
C796 N794 1.340 . S
C796 N795 1.321 . S
C796 H820 0.930 . S
H797 C792 0.931 . S
Co798 N795 2.135 . S
Co798 N801 2.121 . S
Co798 O806 2.055 . S
Co798 O809 2.039 . S
Co798 N812 2.140 . S
C799 O800 1.227 . S
C799 O809 1.265 . S
O800 C799 1.227 . S
N801 Co798 2.121 . S
N801 C803 1.375 . S
N801 C804 1.313 . S
C802 C803 1.338 . S
C802 N805 1.377 . S
C802 H822 0.930 . S
C803 N801 1.375 . S
C803 C802 1.338 . S
C803 H807 0.931 . S
C804 N801 1.313 . S
C804 N805 1.344 . S
C804 H808 0.930 . S
N805 C802 1.377 . S
N805 C804 1.344 . S
O806 Co798 2.055 . S
O806 C810 1.253 . S
H807 C803 0.931 . S
H808 C804 0.930 . S
O809 Co798 2.039 . S
O809 C799 1.265 . S
C810 O806 1.253 . S
C810 O811 1.227 . S
O811 C810 1.227 . S
N812 Co798 2.140 . S
N812 C815 1.346 . S
N812 C816 1.345 . S
C813 C814 1.387 . S
C813 C817 1.391 . S
C814 C813 1.387 . S
C814 C815 1.369 . S
C814 H823 0.929 . S
C815 N812 1.346 . S
C815 C814 1.369 . S
C815 H818 0.928 . S
C816 N812 1.345 . S
C816 C817 1.371 . S
C816 H819 0.931 . S
C817 C813 1.391 . S
C817 C816 1.371 . S
C817 H824 0.930 . S
H818 C815 0.928 . S
H819 C816 0.931 . S
H820 C796 0.930 . S
H821 C793 0.930 . S
H822 C802 0.930 . S
H823 C814 0.929 . S
H824 C817 0.930 . S
C825 C826 1.351 . S
C825 N828 1.368 . S
C825 H830 0.931 . S
C826 C825 1.351 . S
C826 N827 1.373 . S
C826 H854 0.930 . S
N827 C826 1.373 . S
N827 C829 1.340 . S
N828 C825 1.368 . S
N828 C829 1.321 . S
N828 Co831 2.135 . S
C829 N827 1.340 . S
C829 N828 1.321 . S
C829 H853 0.930 . S
H830 C825 0.931 . S
Co831 N828 2.135 . S
Co831 N834 2.121 . S
Co831 O839 2.055 . S
Co831 O842 2.039 . S
Co831 N845 2.140 . S
C832 O833 1.227 . S
C832 O842 1.265 . S
O833 C832 1.227 . S
N834 Co831 2.121 . S
N834 C836 1.375 . S
N834 C837 1.313 . S
C835 C836 1.338 . S
C835 N838 1.377 . S
C835 H855 0.930 . S
C836 N834 1.375 . S
C836 C835 1.338 . S
C836 H840 0.931 . S
C837 N834 1.313 . S
C837 N838 1.344 . S
C837 H841 0.930 . S
N838 C835 1.377 . S
N838 C837 1.344 . S
O839 Co831 2.055 . S
O839 C843 1.253 . S
H840 C836 0.931 . S
H841 C837 0.930 . S
O842 Co831 2.039 . S
O842 C832 1.265 . S
C843 O839 1.253 . S
C843 O844 1.227 . S
O844 C843 1.227 . S
N845 Co831 2.140 . S
N845 C848 1.346 . S
N845 C849 1.345 . S
C846 C847 1.387 . S
C846 C850 1.391 . S
C847 C846 1.387 . S
C847 C848 1.369 . S
C847 H856 0.929 . S
C848 N845 1.346 . S
C848 C847 1.369 . S
C848 H851 0.928 . S
C849 N845 1.345 . S
C849 C850 1.371 . S
C849 H852 0.931 . S
C850 C846 1.391 . S
C850 C849 1.371 . S
C850 H857 0.930 . S
H851 C848 0.928 . S
H852 C849 0.931 . S
H853 C829 0.930 . S
H854 C826 0.930 . S
H855 C835 0.930 . S
H856 C847 0.929 . S
H857 C850 0.930 . S
C858 C859 1.351 . S
C858 N861 1.368 . S
C858 H863 0.931 . S
C859 C858 1.351 . S
C859 N860 1.373 . S
C859 H887 0.930 . S
N860 C859 1.373 . S
N860 C862 1.340 . S
N861 C858 1.368 . S
N861 C862 1.321 . S
N861 Co864 2.135 . S
C862 N860 1.340 . S
C862 N861 1.321 . S
C862 H886 0.930 . S
H863 C858 0.931 . S
Co864 N861 2.135 . S
Co864 N867 2.121 . S
Co864 O872 2.055 . S
Co864 O875 2.039 . S
Co864 N878 2.140 . S
C865 O866 1.227 . S
C865 O875 1.265 . S
O866 C865 1.227 . S
N867 Co864 2.121 . S
N867 C869 1.375 . S
N867 C870 1.313 . S
C868 C869 1.338 . S
C868 N871 1.377 . S
C868 H888 0.930 . S
C869 N867 1.375 . S
C869 C868 1.338 . S
C869 H873 0.931 . S
C870 N867 1.313 . S
C870 N871 1.344 . S
C870 H874 0.930 . S
N871 C868 1.377 . S
N871 C870 1.344 . S
O872 Co864 2.055 . S
O872 C876 1.253 . S
H873 C869 0.931 . S
H874 C870 0.930 . S
O875 Co864 2.039 . S
O875 C865 1.265 . S
C876 O872 1.253 . S
C876 O877 1.227 . S
O877 C876 1.227 . S
N878 Co864 2.140 . S
N878 C881 1.346 . S
N878 C882 1.345 . S
C879 C880 1.387 . S
C879 C883 1.391 . S
C880 C879 1.387 . S
C880 C881 1.369 . S
C880 H889 0.929 . S
C881 N878 1.346 . S
C881 C880 1.369 . S
C881 H884 0.928 . S
C882 N878 1.345 . S
C882 C883 1.371 . S
C882 H885 0.931 . S
C883 C879 1.391 . S
C883 C882 1.371 . S
C883 H890 0.930 . S
H884 C881 0.928 . S
H885 C882 0.931 . S
H886 C862 0.930 . S
H887 C859 0.930 . S
H888 C868 0.930 . S
H889 C880 0.929 . S
H890 C883 0.930 . S
C891 C892 1.351 . S
C891 N894 1.368 . S
C891 H896 0.931 . S
C892 C891 1.351 . S
C892 N893 1.373 . S
C892 H920 0.930 . S
N893 C892 1.373 . S
N893 C895 1.340 . S
N894 C891 1.368 . S
N894 C895 1.321 . S
N894 Co897 2.135 . S
C895 N893 1.340 . S
C895 N894 1.321 . S
C895 H919 0.930 . S
H896 C891 0.931 . S
Co897 N894 2.135 . S
Co897 N900 2.121 . S
Co897 O905 2.055 . S
Co897 O908 2.039 . S
Co897 N911 2.140 . S
C898 O899 1.227 . S
C898 O908 1.265 . S
O899 C898 1.227 . S
N900 Co897 2.121 . S
N900 C902 1.375 . S
N900 C903 1.313 . S
C901 C902 1.338 . S
C901 N904 1.377 . S
C901 H921 0.930 . S
C902 N900 1.375 . S
C902 C901 1.338 . S
C902 H906 0.931 . S
C903 N900 1.313 . S
C903 N904 1.344 . S
C903 H907 0.930 . S
N904 C901 1.377 . S
N904 C903 1.344 . S
O905 Co897 2.055 . S
O905 C909 1.253 . S
H906 C902 0.931 . S
H907 C903 0.930 . S
O908 Co897 2.039 . S
O908 C898 1.265 . S
C909 O905 1.253 . S
C909 O910 1.227 . S
O910 C909 1.227 . S
N911 Co897 2.140 . S
N911 C914 1.346 . S
N911 C915 1.345 . S
C912 C913 1.387 . S
C912 C916 1.391 . S
C913 C912 1.387 . S
C913 C914 1.369 . S
C913 H922 0.929 . S
C914 N911 1.346 . S
C914 C913 1.369 . S
C914 H917 0.928 . S
C915 N911 1.345 . S
C915 C916 1.371 . S
C915 H918 0.931 . S
C916 C912 1.391 . S
C916 C915 1.371 . S
C916 H923 0.930 . S
H917 C914 0.928 . S
H918 C915 0.931 . S
H919 C895 0.930 . S
H920 C892 0.930 . S
H921 C901 0.930 . S
H922 C913 0.929 . S
H923 C916 0.930 . S
C924 C925 1.351 . S
C924 N927 1.368 . S
C924 H929 0.931 . S
C925 C924 1.351 . S
C925 N926 1.373 . S
C925 H953 0.930 . S
N926 C925 1.373 . S
N926 C928 1.340 . S
N927 C924 1.368 . S
N927 C928 1.321 . S
N927 Co930 2.135 . S
C928 N926 1.340 . S
C928 N927 1.321 . S
C928 H952 0.930 . S
H929 C924 0.931 . S
Co930 N927 2.135 . S
Co930 N933 2.121 . S
Co930 O938 2.055 . S
Co930 O941 2.039 . S
Co930 N944 2.140 . S
C931 O932 1.227 . S
C931 O941 1.265 . S
O932 C931 1.227 . S
N933 Co930 2.121 . S
N933 C935 1.375 . S
N933 C936 1.313 . S
C934 C935 1.338 . S
C934 N937 1.377 . S
C934 H954 0.930 . S
C935 N933 1.375 . S
C935 C934 1.338 . S
C935 H939 0.931 . S
C936 N933 1.313 . S
C936 N937 1.344 . S
C936 H940 0.930 . S
N937 C934 1.377 . S
N937 C936 1.344 . S
O938 Co930 2.055 . S
O938 C942 1.253 . S
H939 C935 0.931 . S
H940 C936 0.930 . S
O941 Co930 2.039 . S
O941 C931 1.265 . S
C942 O938 1.253 . S
C942 O943 1.227 . S
O943 C942 1.227 . S
N944 Co930 2.140 . S
N944 C947 1.346 . S
N944 C948 1.345 . S
C945 C946 1.387 . S
C945 C949 1.391 . S
C946 C945 1.387 . S
C946 C947 1.369 . S
C946 H955 0.929 . S
C947 N944 1.346 . S
C947 C946 1.369 . S
C947 H950 0.928 . S
C948 N944 1.345 . S
C948 C949 1.371 . S
C948 H951 0.931 . S
C949 C945 1.391 . S
C949 C948 1.371 . S
C949 H956 0.930 . S
H950 C947 0.928 . S
H951 C948 0.931 . S
H952 C928 0.930 . S
H953 C925 0.930 . S
H954 C934 0.930 . S
H955 C946 0.929 . S
H956 C949 0.930 . S
C957 C958 1.351 . S
C957 N960 1.368 . S
C957 H962 0.931 . S
C958 C957 1.351 . S
C958 N959 1.373 . S
C958 H986 0.930 1_565 S
N959 C958 1.373 . S
N959 C961 1.340 . S
N960 C957 1.368 . S
N960 C961 1.321 . S
N960 Co963 2.135 . S
C961 N959 1.340 . S
C961 N960 1.321 . S
C961 H985 0.930 . S
H962 C957 0.931 . S
Co963 N960 2.135 . S
Co963 N966 2.121 . S
Co963 O971 2.055 . S
Co963 O974 2.039 . S
Co963 N977 2.140 . S
C964 O965 1.227 . S
C964 O974 1.265 . S
O965 C964 1.227 . S
N966 Co963 2.121 . S
N966 C968 1.375 . S
N966 C969 1.313 . S
C967 C968 1.338 . S
C967 N970 1.377 . S
C967 H987 0.930 . S
C968 N966 1.375 . S
C968 C967 1.338 . S
C968 H972 0.931 . S
C969 N966 1.313 . S
C969 N970 1.344 . S
C969 H973 0.930 . S
N970 C967 1.377 . S
N970 C969 1.344 . S
O971 Co963 2.055 . S
O971 C975 1.253 . S
H972 C968 0.931 . S
H973 C969 0.930 . S
O974 Co963 2.039 . S
O974 C964 1.265 . S
C975 O971 1.253 . S
C975 O976 1.227 . S
O976 C975 1.227 . S
N977 Co963 2.140 . S
N977 C980 1.346 . S
N977 C981 1.345 . S
C978 C979 1.387 . S
C978 C982 1.391 . S
C979 C978 1.387 . S
C979 C980 1.369 . S
C979 H988 0.929 1_565 S
C980 N977 1.346 . S
C980 C979 1.369 . S
C980 H983 0.928 . S
C981 N977 1.345 . S
C981 C982 1.371 . S
C981 H984 0.931 . S
C982 C978 1.391 . S
C982 C981 1.371 . S
C982 H989 0.930 . S
H983 C980 0.928 . S
H984 C981 0.931 . S
H985 C961 0.930 . S
H986 C958 0.930 1_545 S
H987 C967 0.930 . S
H988 C979 0.929 1_545 S
H989 C982 0.930 . S
C990 C991 1.351 . S
C990 N993 1.368 . S
C990 H995 0.931 . S
C991 C990 1.351 . S
C991 N992 1.373 . S
C991 H1019 0.930 . S
N992 C991 1.373 . S
N992 C994 1.340 . S
N993 C990 1.368 . S
N993 C994 1.321 . S
N993 Co996 2.135 . S
C994 N992 1.340 . S
C994 N993 1.321 . S
C994 H1018 0.930 . S
H995 C990 0.931 . S
Co996 N993 2.135 . S
Co996 N999 2.121 . S
Co996 O1004 2.055 . S
Co996 O1007 2.039 . S
Co996 N1010 2.140 . S
C997 O998 1.227 . S
C997 O1007 1.265 . S
O998 C997 1.227 . S
N999 Co996 2.121 . S
N999 C1001 1.375 . S
N999 C1002 1.313 . S
C1000 C1001 1.338 . S
C1000 N1003 1.377 . S
C1000 H1020 0.930 . S
C1001 N999 1.375 . S
C1001 C1000 1.338 . S
C1001 H1005 0.931 . S
C1002 N999 1.313 . S
C1002 N1003 1.344 . S
C1002 H1006 0.930 . S
N1003 C1000 1.377 . S
N1003 C1002 1.344 . S
O1004 Co996 2.055 . S
O1004 C1008 1.253 . S
H1005 C1001 0.931 . S
H1006 C1002 0.930 . S
O1007 Co996 2.039 . S
O1007 C997 1.265 . S
C1008 O1004 1.253 . S
C1008 O1009 1.227 . S
O1009 C1008 1.227 . S
N1010 Co996 2.140 . S
N1010 C1013 1.346 . S
N1010 C1014 1.345 . S
C1011 C1012 1.387 . S
C1011 C1015 1.391 . S
C1012 C1011 1.387 . S
C1012 C1013 1.369 . S
C1012 H1021 0.929 . S
C1013 N1010 1.346 . S
C1013 C1012 1.369 . S
C1013 H1016 0.928 . S
C1014 N1010 1.345 . S
C1014 C1015 1.371 . S
C1014 H1017 0.931 . S
C1015 C1011 1.391 . S
C1015 C1014 1.371 . S
C1015 H1022 0.930 . S
H1016 C1013 0.928 . S
H1017 C1014 0.931 . S
H1018 C994 0.930 . S
H1019 C991 0.930 . S
H1020 C1000 0.930 . S
H1021 C1012 0.929 . S
H1022 C1015 0.930 . S
C1023 C1024 1.351 . S
C1023 N1026 1.368 . S
C1023 H1028 0.931 . S
C1024 C1023 1.351 . S
C1024 N1025 1.373 . S
C1024 H1052 0.930 1_545 S
N1025 C1024 1.373 . S
N1025 C1027 1.340 . S
N1026 C1023 1.368 . S
N1026 C1027 1.321 . S
N1026 Co1029 2.135 . S
C1027 N1025 1.340 . S
C1027 N1026 1.321 . S
C1027 H1051 0.930 . S
H1028 C1023 0.931 . S
Co1029 N1026 2.135 . S
Co1029 N1032 2.121 . S
Co1029 O1037 2.055 . S
Co1029 O1040 2.039 . S
Co1029 N1043 2.140 . S
C1030 O1031 1.227 . S
C1030 O1040 1.265 . S
O1031 C1030 1.227 . S
N1032 Co1029 2.121 . S
N1032 C1034 1.375 . S
N1032 C1035 1.313 . S
C1033 C1034 1.338 . S
C1033 N1036 1.377 . S
C1033 H1053 0.930 . S
C1034 N1032 1.375 . S
C1034 C1033 1.338 . S
C1034 H1038 0.931 . S
C1035 N1032 1.313 . S
C1035 N1036 1.344 . S
C1035 H1039 0.930 . S
N1036 C1033 1.377 . S
N1036 C1035 1.344 . S
O1037 Co1029 2.055 . S
O1037 C1041 1.253 . S
H1038 C1034 0.931 . S
H1039 C1035 0.930 . S
O1040 Co1029 2.039 . S
O1040 C1030 1.265 . S
C1041 O1037 1.253 . S
C1041 O1042 1.227 . S
O1042 C1041 1.227 . S
N1043 Co1029 2.140 . S
N1043 C1046 1.346 . S
N1043 C1047 1.345 . S
C1044 C1045 1.387 . S
C1044 C1048 1.391 . S
C1045 C1044 1.387 . S
C1045 C1046 1.369 . S
C1045 H1054 0.929 1_545 S
C1046 N1043 1.346 . S
C1046 C1045 1.369 . S
C1046 H1049 0.928 . S
C1047 N1043 1.345 . S
C1047 C1048 1.371 . S
C1047 H1050 0.931 . S
C1048 C1044 1.391 . S
C1048 C1047 1.371 . S
C1048 H1055 0.930 . S
H1049 C1046 0.928 . S
H1050 C1047 0.931 . S
H1051 C1027 0.930 . S
H1052 C1024 0.930 1_565 S
H1053 C1033 0.930 . S
H1054 C1045 0.929 1_565 S
H1055 C1048 0.930 . S
C1056 C1057 1.351 . S
C1056 N1059 1.368 . S
C1056 H1061 0.931 . S
C1057 C1056 1.351 . S
C1057 N1058 1.373 . S
C1057 H1085 0.930 . S
N1058 C1057 1.373 . S
N1058 C1060 1.340 . S
N1059 C1056 1.368 . S
N1059 C1060 1.321 . S
N1059 Co1062 2.135 . S
C1060 N1058 1.340 . S
C1060 N1059 1.321 . S
C1060 H1084 0.930 . S
H1061 C1056 0.931 . S
Co1062 N1059 2.135 . S
Co1062 N1065 2.121 . S
Co1062 O1070 2.055 . S
Co1062 O1073 2.039 . S
Co1062 N1076 2.140 . S
C1063 O1064 1.227 . S
C1063 O1073 1.265 . S
O1064 C1063 1.227 . S
N1065 Co1062 2.121 . S
N1065 C1067 1.375 . S
N1065 C1068 1.313 . S
C1066 C1067 1.338 . S
C1066 N1069 1.377 . S
C1066 H1086 0.930 . S
C1067 N1065 1.375 . S
C1067 C1066 1.338 . S
C1067 H1071 0.931 . S
C1068 N1065 1.313 . S
C1068 N1069 1.344 . S
C1068 H1072 0.930 . S
N1069 C1066 1.377 . S
N1069 C1068 1.344 . S
O1070 Co1062 2.055 . S
O1070 C1074 1.253 . S
H1071 C1067 0.931 . S
H1072 C1068 0.930 . S
O1073 Co1062 2.039 . S
O1073 C1063 1.265 . S
C1074 O1070 1.253 . S
C1074 O1075 1.227 . S
O1075 C1074 1.227 . S
N1076 Co1062 2.140 . S
N1076 C1079 1.346 . S
N1076 C1080 1.345 . S
C1077 C1078 1.387 . S
C1077 C1081 1.391 . S
C1078 C1077 1.387 . S
C1078 C1079 1.369 . S
C1078 H1087 0.929 . S
C1079 N1076 1.346 . S
C1079 C1078 1.369 . S
C1079 H1082 0.928 . S
C1080 N1076 1.345 . S
C1080 C1081 1.371 . S
C1080 H1083 0.931 . S
C1081 C1077 1.391 . S
C1081 C1080 1.371 . S
C1081 H1088 0.930 . S
H1082 C1079 0.928 . S
H1083 C1080 0.931 . S
H1084 C1060 0.930 . S
H1085 C1057 0.930 . S
H1086 C1066 0.930 . S
H1087 C1078 0.929 . S
H1088 C1081 0.930 . S
C1089 C1090 1.351 . S
C1089 N1092 1.368 . S
C1089 H1094 0.931 . S
C1090 C1089 1.351 . S
C1090 N1091 1.373 . S
C1090 H1118 0.930 1_556 S
N1091 C1090 1.373 . S
N1091 C1093 1.340 . S
N1092 C1089 1.368 . S
N1092 C1093 1.321 . S
N1092 Co1095 2.135 . S
C1093 N1091 1.340 . S
C1093 N1092 1.321 . S
C1093 H1117 0.930 . S
H1094 C1089 0.931 . S
Co1095 N1092 2.135 . S
Co1095 N1098 2.121 . S
Co1095 O1103 2.055 . S
Co1095 O1106 2.039 . S
Co1095 N1109 2.140 . S
C1096 O1097 1.227 . S
C1096 O1106 1.265 . S
O1097 C1096 1.227 . S
N1098 Co1095 2.121 . S
N1098 C1100 1.375 . S
N1098 C1101 1.313 . S
C1099 C1100 1.338 . S
C1099 N1102 1.377 . S
C1099 H1119 0.930 . S
C1100 N1098 1.375 . S
C1100 C1099 1.338 . S
C1100 H1104 0.931 . S
C1101 N1098 1.313 . S
C1101 N1102 1.344 . S
C1101 H1105 0.930 . S
N1102 C1099 1.377 . S
N1102 C1101 1.344 . S
O1103 Co1095 2.055 . S
O1103 C1107 1.253 . S
H1104 C1100 0.931 . S
H1105 C1101 0.930 . S
O1106 Co1095 2.039 . S
O1106 C1096 1.265 . S
C1107 O1103 1.253 . S
C1107 O1108 1.227 . S
O1108 C1107 1.227 . S
N1109 Co1095 2.140 . S
N1109 C1112 1.346 . S
N1109 C1113 1.345 . S
C1110 C1111 1.387 . S
C1110 C1114 1.391 . S
C1111 C1110 1.387 . S
C1111 C1112 1.369 . S
C1111 H1120 0.929 1_556 S
C1112 N1109 1.346 . S
C1112 C1111 1.369 . S
C1112 H1115 0.928 . S
C1113 N1109 1.345 . S
C1113 C1114 1.371 . S
C1113 H1116 0.931 . S
C1114 C1110 1.391 . S
C1114 C1113 1.371 . S
C1114 H1121 0.930 . S
H1115 C1112 0.928 . S
H1116 C1113 0.931 . S
H1117 C1093 0.930 . S
H1118 C1090 0.930 1_554 S
H1119 C1099 0.930 . S
H1120 C1111 0.929 1_554 S
H1121 C1114 0.930 . S
C1122 C1123 1.351 . S
C1122 N1125 1.368 . S
C1122 H1127 0.931 . S
C1123 C1122 1.351 . S
C1123 N1124 1.373 . S
C1123 H1151 0.930 1_556 S
N1124 C1123 1.373 . S
N1124 C1126 1.340 . S
N1125 C1122 1.368 . S
N1125 C1126 1.321 . S
N1125 Co1128 2.135 . S
C1126 N1124 1.340 . S
C1126 N1125 1.321 . S
C1126 H1150 0.930 . S
H1127 C1122 0.931 . S
Co1128 N1125 2.135 . S
Co1128 N1131 2.121 . S
Co1128 O1136 2.055 . S
Co1128 O1139 2.039 . S
Co1128 N1142 2.140 . S
C1129 O1130 1.227 . S
C1129 O1139 1.265 . S
O1130 C1129 1.227 . S
N1131 Co1128 2.121 . S
N1131 C1133 1.375 . S
N1131 C1134 1.313 . S
C1132 C1133 1.338 . S
C1132 N1135 1.377 . S
C1132 H1152 0.930 . S
C1133 N1131 1.375 . S
C1133 C1132 1.338 . S
C1133 H1137 0.931 . S
C1134 N1131 1.313 . S
C1134 N1135 1.344 . S
C1134 H1138 0.930 . S
N1135 C1132 1.377 . S
N1135 C1134 1.344 . S
O1136 Co1128 2.055 . S
O1136 C1140 1.253 . S
H1137 C1133 0.931 . S
H1138 C1134 0.930 . S
O1139 Co1128 2.039 . S
O1139 C1129 1.265 . S
C1140 O1136 1.253 . S
C1140 O1141 1.227 . S
O1141 C1140 1.227 . S
N1142 Co1128 2.140 . S
N1142 C1145 1.346 . S
N1142 C1146 1.345 . S
C1143 C1144 1.387 . S
C1143 C1147 1.391 . S
C1144 C1143 1.387 . S
C1144 C1145 1.369 . S
C1144 H1153 0.929 1_556 S
C1145 N1142 1.346 . S
C1145 C1144 1.369 . S
C1145 H1148 0.928 . S
C1146 N1142 1.345 . S
C1146 C1147 1.371 . S
C1146 H1149 0.931 . S
C1147 C1143 1.391 . S
C1147 C1146 1.371 . S
C1147 H1154 0.930 . S
H1148 C1145 0.928 . S
H1149 C1146 0.931 . S
H1150 C1126 0.930 . S
H1151 C1123 0.930 1_554 S
H1152 C1132 0.930 . S
H1153 C1144 0.929 1_554 S
H1154 C1147 0.930 . S
C1155 C1156 1.351 . S
C1155 N1158 1.368 . S
C1155 H1160 0.931 . S
C1156 C1155 1.351 . S
C1156 N1157 1.373 . S
C1156 H1184 0.930 1_554 S
N1157 C1156 1.373 . S
N1157 C1159 1.340 . S
N1158 C1155 1.368 . S
N1158 C1159 1.321 . S
N1158 Co1161 2.135 . S
C1159 N1157 1.340 . S
C1159 N1158 1.321 . S
C1159 H1183 0.930 . S
H1160 C1155 0.931 . S
Co1161 N1158 2.135 . S
Co1161 N1164 2.121 . S
Co1161 O1169 2.055 . S
Co1161 O1172 2.039 . S
Co1161 N1175 2.140 . S
C1162 O1163 1.227 . S
C1162 O1172 1.265 . S
O1163 C1162 1.227 . S
N1164 Co1161 2.121 . S
N1164 C1166 1.375 . S
N1164 C1167 1.313 . S
C1165 C1166 1.338 . S
C1165 N1168 1.377 . S
C1165 H1185 0.930 . S
C1166 N1164 1.375 . S
C1166 C1165 1.338 . S
C1166 H1170 0.931 . S
C1167 N1164 1.313 . S
C1167 N1168 1.344 . S
C1167 H1171 0.930 . S
N1168 C1165 1.377 . S
N1168 C1167 1.344 . S
O1169 Co1161 2.055 . S
O1169 C1173 1.253 . S
H1170 C1166 0.931 . S
H1171 C1167 0.930 . S
O1172 Co1161 2.039 . S
O1172 C1162 1.265 . S
C1173 O1169 1.253 . S
C1173 O1174 1.227 . S
O1174 C1173 1.227 . S
N1175 Co1161 2.140 . S
N1175 C1178 1.346 . S
N1175 C1179 1.345 . S
C1176 C1177 1.387 . S
C1176 C1180 1.391 . S
C1177 C1176 1.387 . S
C1177 C1178 1.369 . S
C1177 H1186 0.929 1_554 S
C1178 N1175 1.346 . S
C1178 C1177 1.369 . S
C1178 H1181 0.928 . S
C1179 N1175 1.345 . S
C1179 C1180 1.371 . S
C1179 H1182 0.931 . S
C1180 C1176 1.391 . S
C1180 C1179 1.371 . S
C1180 H1187 0.930 . S
H1181 C1178 0.928 . S
H1182 C1179 0.931 . S
H1183 C1159 0.930 . S
H1184 C1156 0.930 1_556 S
H1185 C1165 0.930 . S
H1186 C1177 0.929 1_556 S
H1187 C1180 0.930 . S
C1188 C1189 1.351 . S
C1188 N1191 1.368 . S
C1188 H1193 0.931 . S
C1189 C1188 1.351 . S
C1189 N1190 1.373 . S
C1189 H1217 0.930 . S
N1190 C1189 1.373 . S
N1190 C1192 1.340 . S
N1191 C1188 1.368 . S
N1191 C1192 1.321 . S
N1191 Co1194 2.135 . S
C1192 N1190 1.340 . S
C1192 N1191 1.321 . S
C1192 H1216 0.930 . S
H1193 C1188 0.931 . S
Co1194 N1191 2.135 . S
Co1194 N1197 2.121 . S
Co1194 O1202 2.055 . S
Co1194 O1205 2.039 . S
Co1194 N1208 2.140 . S
C1195 O1196 1.227 . S
C1195 O1205 1.265 . S
O1196 C1195 1.227 . S
N1197 Co1194 2.121 . S
N1197 C1199 1.375 . S
N1197 C1200 1.313 . S
C1198 C1199 1.338 . S
C1198 N1201 1.377 . S
C1198 H1218 0.930 . S
C1199 N1197 1.375 . S
C1199 C1198 1.338 . S
C1199 H1203 0.931 . S
C1200 N1197 1.313 . S
C1200 N1201 1.344 . S
C1200 H1204 0.930 . S
N1201 C1198 1.377 . S
N1201 C1200 1.344 . S
O1202 Co1194 2.055 . S
O1202 C1206 1.253 . S
H1203 C1199 0.931 . S
H1204 C1200 0.930 . S
O1205 Co1194 2.039 . S
O1205 C1195 1.265 . S
C1206 O1202 1.253 . S
C1206 O1207 1.227 . S
O1207 C1206 1.227 . S
N1208 Co1194 2.140 . S
N1208 C1211 1.346 . S
N1208 C1212 1.345 . S
C1209 C1210 1.387 . S
C1209 C1213 1.391 . S
C1210 C1209 1.387 . S
C1210 C1211 1.369 . S
C1210 H1219 0.929 . S
C1211 N1208 1.346 . S
C1211 C1210 1.369 . S
C1211 H1214 0.928 . S
C1212 N1208 1.345 . S
C1212 C1213 1.371 . S
C1212 H1215 0.931 . S
C1213 C1209 1.391 . S
C1213 C1212 1.371 . S
C1213 H1220 0.930 . S
H1214 C1211 0.928 . S
H1215 C1212 0.931 . S
H1216 C1192 0.930 . S
H1217 C1189 0.930 . S
H1218 C1198 0.930 . S
H1219 C1210 0.929 . S
H1220 C1213 0.930 . S
C1221 C1222 1.351 . S
C1221 N1224 1.368 . S
C1221 H1226 0.931 . S
C1222 C1221 1.351 . S
C1222 N1223 1.373 . S
C1222 H1250 0.930 . S
N1223 C1222 1.373 . S
N1223 C1225 1.340 . S
N1224 C1221 1.368 . S
N1224 C1225 1.321 . S
N1224 Co1227 2.135 . S
C1225 N1223 1.340 . S
C1225 N1224 1.321 . S
C1225 H1249 0.930 . S
H1226 C1221 0.931 . S
Co1227 N1224 2.135 . S
Co1227 N1230 2.121 . S
Co1227 O1235 2.055 . S
Co1227 O1238 2.039 . S
Co1227 N1241 2.140 . S
C1228 O1229 1.227 . S
C1228 O1238 1.265 . S
O1229 C1228 1.227 . S
N1230 Co1227 2.121 . S
N1230 C1232 1.375 . S
N1230 C1233 1.313 . S
C1231 C1232 1.338 . S
C1231 N1234 1.377 . S
C1231 H1251 0.930 . S
C1232 N1230 1.375 . S
C1232 C1231 1.338 . S
C1232 H1236 0.931 . S
C1233 N1230 1.313 . S
C1233 N1234 1.344 . S
C1233 H1237 0.930 . S
N1234 C1231 1.377 . S
N1234 C1233 1.344 . S
O1235 Co1227 2.055 . S
O1235 C1239 1.253 . S
H1236 C1232 0.931 . S
H1237 C1233 0.930 . S
O1238 Co1227 2.039 . S
O1238 C1228 1.265 . S
C1239 O1235 1.253 . S
C1239 O1240 1.227 . S
O1240 C1239 1.227 . S
N1241 Co1227 2.140 . S
N1241 C1244 1.346 . S
N1241 C1245 1.345 . S
C1242 C1243 1.387 . S
C1242 C1246 1.391 . S
C1243 C1242 1.387 . S
C1243 C1244 1.369 . S
C1243 H1252 0.929 . S
C1244 N1241 1.346 . S
C1244 C1243 1.369 . S
C1244 H1247 0.928 . S
C1245 N1241 1.345 . S
C1245 C1246 1.371 . S
C1245 H1248 0.931 . S
C1246 C1242 1.391 . S
C1246 C1245 1.371 . S
C1246 H1253 0.930 . S
H1247 C1244 0.928 . S
H1248 C1245 0.931 . S
H1249 C1225 0.930 . S
H1250 C1222 0.930 . S
H1251 C1231 0.930 . S
H1252 C1243 0.929 . S
H1253 C1246 0.930 . S
C1254 C1255 1.351 . S
C1254 N1257 1.368 . S
C1254 H1259 0.931 . S
C1255 C1254 1.351 . S
C1255 N1256 1.373 . S
C1255 H1283 0.930 . S
N1256 C1255 1.373 . S
N1256 C1258 1.340 . S
N1257 C1254 1.368 . S
N1257 C1258 1.321 . S
N1257 Co1260 2.135 . S
C1258 N1256 1.340 . S
C1258 N1257 1.321 . S
C1258 H1282 0.930 . S
H1259 C1254 0.931 . S
Co1260 N1257 2.135 . S
Co1260 N1263 2.121 . S
Co1260 O1268 2.055 . S
Co1260 O1271 2.039 . S
Co1260 N1274 2.140 . S
C1261 O1262 1.227 . S
C1261 O1271 1.265 . S
O1262 C1261 1.227 . S
N1263 Co1260 2.121 . S
N1263 C1265 1.375 . S
N1263 C1266 1.313 . S
C1264 C1265 1.338 . S
C1264 N1267 1.377 . S
C1264 H1284 0.930 . S
C1265 N1263 1.375 . S
C1265 C1264 1.338 . S
C1265 H1269 0.931 . S
C1266 N1263 1.313 . S
C1266 N1267 1.344 . S
C1266 H1270 0.930 . S
N1267 C1264 1.377 . S
N1267 C1266 1.344 . S
O1268 Co1260 2.055 . S
O1268 C1272 1.253 . S
H1269 C1265 0.931 . S
H1270 C1266 0.930 . S
O1271 Co1260 2.039 . S
O1271 C1261 1.265 . S
C1272 O1268 1.253 . S
C1272 O1273 1.227 . S
O1273 C1272 1.227 . S
N1274 Co1260 2.140 . S
N1274 C1277 1.346 . S
N1274 C1278 1.345 . S
C1275 C1276 1.387 . S
C1275 C1279 1.391 . S
C1276 C1275 1.387 . S
C1276 C1277 1.369 . S
C1276 H1285 0.929 . S
C1277 N1274 1.346 . S
C1277 C1276 1.369 . S
C1277 H1280 0.928 . S
C1278 N1274 1.345 . S
C1278 C1279 1.371 . S
C1278 H1281 0.931 . S
C1279 C1275 1.391 . S
C1279 C1278 1.371 . S
C1279 H1286 0.930 . S
H1280 C1277 0.928 . S
H1281 C1278 0.931 . S
H1282 C1258 0.930 . S
H1283 C1255 0.930 . S
H1284 C1264 0.930 . S
H1285 C1276 0.929 . S
H1286 C1279 0.930 . S
C1287 C1288 1.351 . S
C1287 N1290 1.368 . S
C1287 H1292 0.931 . S
C1288 C1287 1.351 . S
C1288 N1289 1.373 . S
C1288 H1316 0.930 . S
N1289 C1288 1.373 . S
N1289 C1291 1.340 . S
N1290 C1287 1.368 . S
N1290 C1291 1.321 . S
N1290 Co1293 2.135 . S
C1291 N1289 1.340 . S
C1291 N1290 1.321 . S
C1291 H1315 0.930 . S
H1292 C1287 0.931 . S
Co1293 N1290 2.135 . S
Co1293 N1296 2.121 . S
Co1293 O1301 2.055 . S
Co1293 O1304 2.039 . S
Co1293 N1307 2.140 . S
C1294 O1295 1.227 . S
C1294 O1304 1.265 . S
O1295 C1294 1.227 . S
N1296 Co1293 2.121 . S
N1296 C1298 1.375 . S
N1296 C1299 1.313 . S
C1297 C1298 1.338 . S
C1297 N1300 1.377 . S
C1297 H1317 0.930 . S
C1298 N1296 1.375 . S
C1298 C1297 1.338 . S
C1298 H1302 0.931 . S
C1299 N1296 1.313 . S
C1299 N1300 1.344 . S
C1299 H1303 0.930 . S
N1300 C1297 1.377 . S
N1300 C1299 1.344 . S
O1301 Co1293 2.055 . S
O1301 C1305 1.253 . S
H1302 C1298 0.931 . S
H1303 C1299 0.930 . S
O1304 Co1293 2.039 . S
O1304 C1294 1.265 . S
C1305 O1301 1.253 . S
C1305 O1306 1.227 . S
O1306 C1305 1.227 . S
N1307 Co1293 2.140 . S
N1307 C1310 1.346 . S
N1307 C1311 1.345 . S
C1308 C1309 1.387 . S
C1308 C1312 1.391 . S
C1309 C1308 1.387 . S
C1309 C1310 1.369 . S
C1309 H1318 0.929 . S
C1310 N1307 1.346 . S
C1310 C1309 1.369 . S
C1310 H1313 0.928 . S
C1311 N1307 1.345 . S
C1311 C1312 1.371 . S
C1311 H1314 0.931 . S
C1312 C1308 1.391 . S
C1312 C1311 1.371 . S
C1312 H1319 0.930 . S
H1313 C1310 0.928 . S
H1314 C1311 0.931 . S
H1315 C1291 0.930 . S
H1316 C1288 0.930 . S
H1317 C1297 0.930 . S
H1318 C1309 0.929 . S
H1319 C1312 0.930 . S
C1320 C1321 1.351 . S
C1320 N1323 1.368 . S
C1320 H1325 0.931 . S
C1321 C1320 1.351 . S
C1321 N1322 1.373 . S
C1321 H1349 0.930 . S
N1322 C1321 1.373 . S
N1322 C1324 1.340 . S
N1323 C1320 1.368 . S
N1323 C1324 1.321 . S
N1323 Co1326 2.135 . S
C1324 N1322 1.340 . S
C1324 N1323 1.321 . S
C1324 H1348 0.930 . S
H1325 C1320 0.931 . S
Co1326 N1323 2.135 . S
Co1326 N1329 2.121 . S
Co1326 O1334 2.055 . S
Co1326 O1337 2.039 . S
Co1326 N1340 2.140 . S
C1327 O1328 1.227 . S
C1327 O1337 1.265 . S
O1328 C1327 1.227 . S
N1329 Co1326 2.121 . S
N1329 C1331 1.375 . S
N1329 C1332 1.313 . S
C1330 C1331 1.338 . S
C1330 N1333 1.377 . S
C1330 H1350 0.930 . S
C1331 N1329 1.375 . S
C1331 C1330 1.338 . S
C1331 H1335 0.931 . S
C1332 N1329 1.313 . S
C1332 N1333 1.344 . S
C1332 H1336 0.930 . S
N1333 C1330 1.377 . S
N1333 C1332 1.344 . S
O1334 Co1326 2.055 . S
O1334 C1338 1.253 . S
H1335 C1331 0.931 . S
H1336 C1332 0.930 . S
O1337 Co1326 2.039 . S
O1337 C1327 1.265 . S
C1338 O1334 1.253 . S
C1338 O1339 1.227 . S
O1339 C1338 1.227 . S
N1340 Co1326 2.140 . S
N1340 C1343 1.346 . S
N1340 C1344 1.345 . S
C1341 C1342 1.387 . S
C1341 C1345 1.391 . S
C1342 C1341 1.387 . S
C1342 C1343 1.369 . S
C1342 H1351 0.929 . S
C1343 N1340 1.346 . S
C1343 C1342 1.369 . S
C1343 H1346 0.928 . S
C1344 N1340 1.345 . S
C1344 C1345 1.371 . S
C1344 H1347 0.931 . S
C1345 C1341 1.391 . S
C1345 C1344 1.371 . S
C1345 H1352 0.930 . S
H1346 C1343 0.928 . S
H1347 C1344 0.931 . S
H1348 C1324 0.930 . S
H1349 C1321 0.930 . S
H1350 C1330 0.930 . S
H1351 C1342 0.929 . S
H1352 C1345 0.930 . S
C1353 C1354 1.351 . S
C1353 N1356 1.368 . S
C1353 H1358 0.931 . S
C1354 C1353 1.351 . S
C1354 N1355 1.373 . S
C1354 H1382 0.930 1_545 S
N1355 C1354 1.373 . S
N1355 C1357 1.340 . S
N1356 C1353 1.368 . S
N1356 C1357 1.321 . S
N1356 Co1359 2.135 . S
C1357 N1355 1.340 . S
C1357 N1356 1.321 . S
C1357 H1381 0.930 . S
H1358 C1353 0.931 . S
Co1359 N1356 2.135 . S
Co1359 N1362 2.121 . S
Co1359 O1367 2.055 . S
Co1359 O1370 2.039 . S
Co1359 N1373 2.140 . S
C1360 O1361 1.227 . S
C1360 O1370 1.265 . S
O1361 C1360 1.227 . S
N1362 Co1359 2.121 . S
N1362 C1364 1.375 . S
N1362 C1365 1.313 . S
C1363 C1364 1.338 . S
C1363 N1366 1.377 . S
C1363 H1383 0.930 . S
C1364 N1362 1.375 . S
C1364 C1363 1.338 . S
C1364 H1368 0.931 . S
C1365 N1362 1.313 . S
C1365 N1366 1.344 . S
C1365 H1369 0.930 . S
N1366 C1363 1.377 . S
N1366 C1365 1.344 . S
O1367 Co1359 2.055 . S
O1367 C1371 1.253 . S
H1368 C1364 0.931 . S
H1369 C1365 0.930 . S
O1370 Co1359 2.039 . S
O1370 C1360 1.265 . S
C1371 O1367 1.253 . S
C1371 O1372 1.227 . S
O1372 C1371 1.227 . S
N1373 Co1359 2.140 . S
N1373 C1376 1.346 . S
N1373 C1377 1.345 . S
C1374 C1375 1.387 . S
C1374 C1378 1.391 . S
C1375 C1374 1.387 . S
C1375 C1376 1.369 . S
C1375 H1384 0.929 1_545 S
C1376 N1373 1.346 . S
C1376 C1375 1.369 . S
C1376 H1379 0.928 . S
C1377 N1373 1.345 . S
C1377 C1378 1.371 . S
C1377 H1380 0.931 . S
C1378 C1374 1.391 . S
C1378 C1377 1.371 . S
C1378 H1385 0.930 . S
H1379 C1376 0.928 . S
H1380 C1377 0.931 . S
H1381 C1357 0.930 . S
H1382 C1354 0.930 1_565 S
H1383 C1363 0.930 . S
H1384 C1375 0.929 1_565 S
H1385 C1378 0.930 . S
C1386 C1387 1.351 . S
C1386 N1389 1.368 . S
C1386 H1391 0.931 . S
C1387 C1386 1.351 . S
C1387 N1388 1.373 . S
C1387 H1415 0.930 . S
N1388 C1387 1.373 . S
N1388 C1390 1.340 . S
N1389 C1386 1.368 . S
N1389 C1390 1.321 . S
N1389 Co1392 2.135 . S
C1390 N1388 1.340 . S
C1390 N1389 1.321 . S
C1390 H1414 0.930 . S
H1391 C1386 0.931 . S
Co1392 N1389 2.135 . S
Co1392 N1395 2.121 . S
Co1392 O1400 2.055 . S
Co1392 O1403 2.039 . S
Co1392 N1406 2.140 . S
C1393 O1394 1.227 . S
C1393 O1403 1.265 . S
O1394 C1393 1.227 . S
N1395 Co1392 2.121 . S
N1395 C1397 1.375 . S
N1395 C1398 1.313 . S
C1396 C1397 1.338 . S
C1396 N1399 1.377 . S
C1396 H1416 0.930 . S
C1397 N1395 1.375 . S
C1397 C1396 1.338 . S
C1397 H1401 0.931 . S
C1398 N1395 1.313 . S
C1398 N1399 1.344 . S
C1398 H1402 0.930 . S
N1399 C1396 1.377 . S
N1399 C1398 1.344 . S
O1400 Co1392 2.055 . S
O1400 C1404 1.253 . S
H1401 C1397 0.931 . S
H1402 C1398 0.930 . S
O1403 Co1392 2.039 . S
O1403 C1393 1.265 . S
C1404 O1400 1.253 . S
C1404 O1405 1.227 . S
O1405 C1404 1.227 . S
N1406 Co1392 2.140 . S
N1406 C1409 1.346 . S
N1406 C1410 1.345 . S
C1407 C1408 1.387 . S
C1407 C1411 1.391 . S
C1408 C1407 1.387 . S
C1408 C1409 1.369 . S
C1408 H1417 0.929 . S
C1409 N1406 1.346 . S
C1409 C1408 1.369 . S
C1409 H1412 0.928 . S
C1410 N1406 1.345 . S
C1410 C1411 1.371 . S
C1410 H1413 0.931 . S
C1411 C1407 1.391 . S
C1411 C1410 1.371 . S
C1411 H1418 0.930 . S
H1412 C1409 0.928 . S
H1413 C1410 0.931 . S
H1414 C1390 0.930 . S
H1415 C1387 0.930 . S
H1416 C1396 0.930 . S
H1417 C1408 0.929 . S
H1418 C1411 0.930 . S
C1419 C1420 1.351 . S
C1419 N1422 1.368 . S
C1419 H1424 0.931 . S
C1420 C1419 1.351 . S
C1420 N1421 1.373 . S
C1420 H1448 0.930 1_565 S
N1421 C1420 1.373 . S
N1421 C1423 1.340 . S
N1422 C1419 1.368 . S
N1422 C1423 1.321 . S
N1422 Co1425 2.135 . S
C1423 N1421 1.340 . S
C1423 N1422 1.321 . S
C1423 H1447 0.930 . S
H1424 C1419 0.931 . S
Co1425 N1422 2.135 . S
Co1425 N1428 2.121 . S
Co1425 O1433 2.055 . S
Co1425 O1436 2.039 . S
Co1425 N1439 2.140 . S
C1426 O1427 1.227 . S
C1426 O1436 1.265 . S
O1427 C1426 1.227 . S
N1428 Co1425 2.121 . S
N1428 C1430 1.375 . S
N1428 C1431 1.313 . S
C1429 C1430 1.338 . S
C1429 N1432 1.377 . S
C1429 H1449 0.930 . S
C1430 N1428 1.375 . S
C1430 C1429 1.338 . S
C1430 H1434 0.931 . S
C1431 N1428 1.313 . S
C1431 N1432 1.344 . S
C1431 H1435 0.930 . S
N1432 C1429 1.377 . S
N1432 C1431 1.344 . S
O1433 Co1425 2.055 . S
O1433 C1437 1.253 . S
H1434 C1430 0.931 . S
H1435 C1431 0.930 . S
O1436 Co1425 2.039 . S
O1436 C1426 1.265 . S
C1437 O1433 1.253 . S
C1437 O1438 1.227 . S
O1438 C1437 1.227 . S
N1439 Co1425 2.140 . S
N1439 C1442 1.346 . S
N1439 C1443 1.345 . S
C1440 C1441 1.387 . S
C1440 C1444 1.391 . S
C1441 C1440 1.387 . S
C1441 C1442 1.369 . S
C1441 H1450 0.929 1_565 S
C1442 N1439 1.346 . S
C1442 C1441 1.369 . S
C1442 H1445 0.928 . S
C1443 N1439 1.345 . S
C1443 C1444 1.371 . S
C1443 H1446 0.931 . S
C1444 C1440 1.391 . S
C1444 C1443 1.371 . S
C1444 H1451 0.930 . S
H1445 C1442 0.928 . S
H1446 C1443 0.931 . S
H1447 C1423 0.930 . S
H1448 C1420 0.930 1_545 S
H1449 C1429 0.930 . S
H1450 C1441 0.929 1_545 S
H1451 C1444 0.930 . S
C1452 C1453 1.351 . S
C1452 N1455 1.368 . S
C1452 H1457 0.931 . S
C1453 C1452 1.351 . S
C1453 N1454 1.373 . S
C1453 H1481 0.930 . S
N1454 C1453 1.373 . S
N1454 C1456 1.340 . S
N1455 C1452 1.368 . S
N1455 C1456 1.321 . S
N1455 Co1458 2.135 . S
C1456 N1454 1.340 . S
C1456 N1455 1.321 . S
C1456 H1480 0.930 . S
H1457 C1452 0.931 . S
Co1458 N1455 2.135 . S
Co1458 N1461 2.121 . S
Co1458 O1466 2.055 . S
Co1458 O1469 2.039 . S
Co1458 N1472 2.140 . S
C1459 O1460 1.227 . S
C1459 O1469 1.265 . S
O1460 C1459 1.227 . S
N1461 Co1458 2.121 . S
N1461 C1463 1.375 . S
N1461 C1464 1.313 . S
C1462 C1463 1.338 . S
C1462 N1465 1.377 . S
C1462 H1482 0.930 . S
C1463 N1461 1.375 . S
C1463 C1462 1.338 . S
C1463 H1467 0.931 . S
C1464 N1461 1.313 . S
C1464 N1465 1.344 . S
C1464 H1468 0.930 . S
N1465 C1462 1.377 . S
N1465 C1464 1.344 . S
O1466 Co1458 2.055 . S
O1466 C1470 1.253 . S
H1467 C1463 0.931 . S
H1468 C1464 0.930 . S
O1469 Co1458 2.039 . S
O1469 C1459 1.265 . S
C1470 O1466 1.253 . S
C1470 O1471 1.227 . S
O1471 C1470 1.227 . S
N1472 Co1458 2.140 . S
N1472 C1475 1.346 . S
N1472 C1476 1.345 . S
C1473 C1474 1.387 . S
C1473 C1477 1.391 . S
C1474 C1473 1.387 . S
C1474 C1475 1.369 . S
C1474 H1483 0.929 . S
C1475 N1472 1.346 . S
C1475 C1474 1.369 . S
C1475 H1478 0.928 . S
C1476 N1472 1.345 . S
C1476 C1477 1.371 . S
C1476 H1479 0.931 . S
C1477 C1473 1.391 . S
C1477 C1476 1.371 . S
C1477 H1484 0.930 . S
H1478 C1475 0.928 . S
H1479 C1476 0.931 . S
H1480 C1456 0.930 . S
H1481 C1453 0.930 . S
H1482 C1462 0.930 . S
H1483 C1474 0.929 . S
H1484 C1477 0.930 . S
C1485 C1486 1.351 . S
C1485 N1488 1.368 . S
C1485 H1490 0.931 . S
C1486 C1485 1.351 . S
C1486 N1487 1.373 . S
C1486 H1514 0.930 1_554 S
N1487 C1486 1.373 . S
N1487 C1489 1.340 . S
N1488 C1485 1.368 . S
N1488 C1489 1.321 . S
N1488 Co1491 2.135 . S
C1489 N1487 1.340 . S
C1489 N1488 1.321 . S
C1489 H1513 0.930 . S
H1490 C1485 0.931 . S
Co1491 N1488 2.135 . S
Co1491 N1494 2.121 . S
Co1491 O1499 2.055 . S
Co1491 O1502 2.039 . S
Co1491 N1505 2.140 . S
C1492 O1493 1.227 . S
C1492 O1502 1.265 . S
O1493 C1492 1.227 . S
N1494 Co1491 2.121 . S
N1494 C1496 1.375 . S
N1494 C1497 1.313 . S
C1495 C1496 1.338 . S
C1495 N1498 1.377 . S
C1495 H1515 0.930 . S
C1496 N1494 1.375 . S
C1496 C1495 1.338 . S
C1496 H1500 0.931 . S
C1497 N1494 1.313 . S
C1497 N1498 1.344 . S
C1497 H1501 0.930 . S
N1498 C1495 1.377 . S
N1498 C1497 1.344 . S
O1499 Co1491 2.055 . S
O1499 C1503 1.253 . S
H1500 C1496 0.931 . S
H1501 C1497 0.930 . S
O1502 Co1491 2.039 . S
O1502 C1492 1.265 . S
C1503 O1499 1.253 . S
C1503 O1504 1.227 . S
O1504 C1503 1.227 . S
N1505 Co1491 2.140 . S
N1505 C1508 1.346 . S
N1505 C1509 1.345 . S
C1506 C1507 1.387 . S
C1506 C1510 1.391 . S
C1507 C1506 1.387 . S
C1507 C1508 1.369 . S
C1507 H1516 0.929 1_554 S
C1508 N1505 1.346 . S
C1508 C1507 1.369 . S
C1508 H1511 0.928 . S
C1509 N1505 1.345 . S
C1509 C1510 1.371 . S
C1509 H1512 0.931 . S
C1510 C1506 1.391 . S
C1510 C1509 1.371 . S
C1510 H1517 0.930 . S
H1511 C1508 0.928 . S
H1512 C1509 0.931 . S
H1513 C1489 0.930 . S
H1514 C1486 0.930 1_556 S
H1515 C1495 0.930 . S
H1516 C1507 0.929 1_556 S
H1517 C1510 0.930 . S
C1518 C1519 1.351 . S
C1518 N1521 1.368 . S
C1518 H1523 0.931 . S
C1519 C1518 1.351 . S
C1519 N1520 1.373 . S
C1519 H1547 0.930 1_554 S
N1520 C1519 1.373 . S
N1520 C1522 1.340 . S
N1521 C1518 1.368 . S
N1521 C1522 1.321 . S
N1521 Co1524 2.135 . S
C1522 N1520 1.340 . S
C1522 N1521 1.321 . S
C1522 H1546 0.930 . S
H1523 C1518 0.931 . S
Co1524 N1521 2.135 . S
Co1524 N1527 2.121 . S
Co1524 O1532 2.055 . S
Co1524 O1535 2.039 . S
Co1524 N1538 2.140 . S
C1525 O1526 1.227 . S
C1525 O1535 1.265 . S
O1526 C1525 1.227 . S
N1527 Co1524 2.121 . S
N1527 C1529 1.375 . S
N1527 C1530 1.313 . S
C1528 C1529 1.338 . S
C1528 N1531 1.377 . S
C1528 H1548 0.930 . S
C1529 N1527 1.375 . S
C1529 C1528 1.338 . S
C1529 H1533 0.931 . S
C1530 N1527 1.313 . S
C1530 N1531 1.344 . S
C1530 H1534 0.930 . S
N1531 C1528 1.377 . S
N1531 C1530 1.344 . S
O1532 Co1524 2.055 . S
O1532 C1536 1.253 . S
H1533 C1529 0.931 . S
H1534 C1530 0.930 . S
O1535 Co1524 2.039 . S
O1535 C1525 1.265 . S
C1536 O1532 1.253 . S
C1536 O1537 1.227 . S
O1537 C1536 1.227 . S
N1538 Co1524 2.140 . S
N1538 C1541 1.346 . S
N1538 C1542 1.345 . S
C1539 C1540 1.387 . S
C1539 C1543 1.391 . S
C1540 C1539 1.387 . S
C1540 C1541 1.369 . S
C1540 H1549 0.929 1_554 S
C1541 N1538 1.346 . S
C1541 C1540 1.369 . S
C1541 H1544 0.928 . S
C1542 N1538 1.345 . S
C1542 C1543 1.371 . S
C1542 H1545 0.931 . S
C1543 C1539 1.391 . S
C1543 C1542 1.371 . S
C1543 H1550 0.930 . S
H1544 C1541 0.928 . S
H1545 C1542 0.931 . S
H1546 C1522 0.930 . S
H1547 C1519 0.930 1_556 S
H1548 C1528 0.930 . S
H1549 C1540 0.929 1_556 S
H1550 C1543 0.930 . S
C1551 C1552 1.351 . S
C1551 N1554 1.368 . S
C1551 H1556 0.931 . S
C1552 C1551 1.351 . S
C1552 N1553 1.373 . S
C1552 H1580 0.930 1_556 S
N1553 C1552 1.373 . S
N1553 C1555 1.340 . S
N1554 C1551 1.368 . S
N1554 C1555 1.321 . S
N1554 Co1557 2.135 . S
C1555 N1553 1.340 . S
C1555 N1554 1.321 . S
C1555 H1579 0.930 . S
H1556 C1551 0.931 . S
Co1557 N1554 2.135 . S
Co1557 N1560 2.121 . S
Co1557 O1565 2.055 . S
Co1557 O1568 2.039 . S
Co1557 N1571 2.140 . S
C1558 O1559 1.227 . S
C1558 O1568 1.265 . S
O1559 C1558 1.227 . S
N1560 Co1557 2.121 . S
N1560 C1562 1.375 . S
N1560 C1563 1.313 . S
C1561 C1562 1.338 . S
C1561 N1564 1.377 . S
C1561 H1581 0.930 . S
C1562 N1560 1.375 . S
C1562 C1561 1.338 . S
C1562 H1566 0.931 . S
C1563 N1560 1.313 . S
C1563 N1564 1.344 . S
C1563 H1567 0.930 . S
N1564 C1561 1.377 . S
N1564 C1563 1.344 . S
O1565 Co1557 2.055 . S
O1565 C1569 1.253 . S
H1566 C1562 0.931 . S
H1567 C1563 0.930 . S
O1568 Co1557 2.039 . S
O1568 C1558 1.265 . S
C1569 O1565 1.253 . S
C1569 O1570 1.227 . S
O1570 C1569 1.227 . S
N1571 Co1557 2.140 . S
N1571 C1574 1.346 . S
N1571 C1575 1.345 . S
C1572 C1573 1.387 . S
C1572 C1576 1.391 . S
C1573 C1572 1.387 . S
C1573 C1574 1.369 . S
C1573 H1582 0.929 1_556 S
C1574 N1571 1.346 . S
C1574 C1573 1.369 . S
C1574 H1577 0.928 . S
C1575 N1571 1.345 . S
C1575 C1576 1.371 . S
C1575 H1578 0.931 . S
C1576 C1572 1.391 . S
C1576 C1575 1.371 . S
C1576 H1583 0.930 . S
H1577 C1574 0.928 . S
H1578 C1575 0.931 . S
H1579 C1555 0.930 . S
H1580 C1552 0.930 1_554 S
H1581 C1561 0.930 . S
H1582 C1573 0.929 1_554 S
H1583 C1576 0.930 . S
N1333 C7 1.655 . S
N1366 C40 1.655 . S
N1399 C73 1.655 . S
C106 N1432 1.655 . S
C139 N1465 1.655 . S
C172 N772 1.655 . S
C205 N1498 1.655 . S
C238 N1531 1.655 . S
C271 N1201 1.655 . S
C304 N1267 1.655 . S
C337 N1300 1.655 . S
N442 C370 1.655 . S
C403 N937 1.655 . S
C436 N970 1.655 . S
N1003 C469 1.655 . S
N1036 C502 1.655 . S
C535 N1069 1.655 . S
N376 C568 1.655 . S
N1102 C601 1.655 . S
N1135 C634 1.655 . S
C667 N805 1.655 . S
C700 N871 1.655 . S
N904 C733 1.655 . S
C766 N46 1.655 . S
C799 N541 1.655 . S
N574 C832 1.655 . S
N607 C865 1.655 . S
C898 N640 1.655 . S
C931 N673 1.655 . S
N1564 C964 1.655 . S
C997 N706 1.655 . S
C1030 N739 1.655 . S
C1063 N409 1.655 . S
N475 C1096 1.655 . S
C1129 N508 1.655 . S
C1162 N1234 1.655 . S
C1195 N145 1.655 . S
C1228 N178 1.655 . S
C1261 N211 1.655 . S
C1294 N244 1.655 . S
N277 C1327 1.655 . S
C1360 N1168 1.655 . S
C1393 N310 1.655 . S
N343 C1426 1.655 . S
N13 C1459 1.655 . S
C1492 N79 1.655 . S
C1525 N112 1.655 . S
N838 C1558 1.655 . S
N2 N35 0.296 1_455 S
N101 N68 0.296 1_655 S
N134 N200 0.296 1_545 S
N233 N167 0.296 . S
N1124 N266 0.296 1_556 S
N299 N365 0.296 . S
N332 N1058 0.296 . S
N398 N431 0.296 1_655 S
N464 N497 0.296 1_655 S
N596 N530 0.296 1_545 S
N563 N629 0.296 . S
N662 N1520 0.296 1_556 S
N761 N695 0.296 . S
N1454 N728 0.296 . S
N827 N794 0.296 . S
N893 N860 0.296 . S
N992 N926 0.296 . S
N1025 N959 0.296 1_545 S
N1157 N1091 0.296 1_554 S
N1223 N1190 0.296 . S
N1289 N1256 0.296 . S
N1388 N1322 0.296 . S
N1421 N1355 0.296 1_565 S
N1553 N1487 0.296 1_556 S
C18 C747 1.815 . S
C51 C714 1.815 . S
C1572 C84 1.815 1_556 S
C681 C117 1.815 1_556 S
C150 C1242 1.815 . S
C1209 C183 1.815 . S
C1308 C216 1.815 . S
C249 C1275 1.815 . S
C1407 C282 1.815 . S
C1341 C315 1.815 . S
C348 C1374 1.815 1_565 S
C648 C381 1.815 . S
C351 C414 1.815 . S
C318 C447 1.815 . S
C480 C1176 1.815 1_556 S
C513 C285 1.815 1_556 S
C846 C546 1.815 . S
C813 C579 1.815 . S
C612 C912 1.815 . S
C645 C879 1.815 . S
C1011 C678 1.815 . S
C711 C945 1.815 . S
C978 C744 1.815 1_565 S
C252 C777 1.815 . S
C810 C1539 1.815 1_556 S
C1506 C843 1.815 1_554 S
C876 C780 1.815 . S
C909 C1473 1.815 . S
C942 C450 1.815 1_655 S
C417 C975 1.815 1_655 S
C1008 C516 1.815 1_655 S
C1041 C483 1.815 1_455 S
C615 C1074 1.815 1_545 S
C1107 C549 1.815 1_545 S
C1140 C582 1.815 . S
C1173 C1440 1.815 1_545 S
C1143 C1206 1.815 1_556 S
C1239 C1110 1.815 1_554 S
C1272 C384 1.815 . S
C1305 C1077 1.815 . S
C1338 C54 1.815 1_455 S
C21 C1371 1.815 1_455 S
C120 C1404 1.815 1_655 S
C87 C1437 1.815 1_455 S
C1470 C219 1.815 1_545 S
C153 C1503 1.815 1_545 S
C186 C1536 1.815 . S
C1569 C1044 1.815 1_565 S
