# Generated by pormake.
# Topology uog, (4)-cn, num edge types: 1
# Building blocks:
#     Node 0, Type 0, BuildingBlock: GALJAG_clean_sbu_0, # of connection points: 4
#     Node 1, Type 0, BuildingBlock: GALJAG_clean_sbu_0, # of connection points: 4
#     Node 2, Type 0, BuildingBlock: GALJAG_clean_sbu_0, # of connection points: 4
#     Node 3, Type 0, BuildingBlock: GALJAG_clean_sbu_0, # of connection points: 4
#     Node 4, Type 0, BuildingBlock: GALJAG_clean_sbu_0, # of connection points: 4
#     Node 5, Type 0, BuildingBlock: GALJAG_clean_sbu_0, # of connection points: 4
#     Edge 6, Type (0, 0), BuildingBlock: KIFKEQ_clean_linker_1, # of connection points: 2
#     Edge 7, Type (0, 0), BuildingBlock: KIFKEQ_clean_linker_1, # of connection points: 2
#     Edge 8, Type (0, 0), BuildingBlock: KIFKEQ_clean_linker_1, # of connection points: 2
#     Edge 9, Type (0, 0), BuildingBlock: KIFKEQ_clean_linker_1, # of connection points: 2
#     Edge 10, Type (0, 0), BuildingBlock: KIFKEQ_clean_linker_1, # of connection points: 2
#     Edge 11, Type (0, 0), BuildingBlock: KIFKEQ_clean_linker_1, # of connection points: 2
#     Edge 12, Type (0, 0), BuildingBlock: KIFKEQ_clean_linker_1, # of connection points: 2
#     Edge 13, Type (0, 0), BuildingBlock: KIFKEQ_clean_linker_1, # of connection points: 2
#     Edge 14, Type (0, 0), BuildingBlock: KIFKEQ_clean_linker_1, # of connection points: 2
#     Edge 15, Type (0, 0), BuildingBlock: KIFKEQ_clean_linker_1, # of connection points: 2
#     Edge 16, Type (0, 0), BuildingBlock: KIFKEQ_clean_linker_1, # of connection points: 2
#     Edge 17, Type (0, 0), BuildingBlock: KIFKEQ_clean_linker_1, # of connection points: 2
# Relax obj value: 0.035
# Max RMSD: 0.144
# Mean RMSD: 0.144
data_MOF--net-uog--node1-GALJAG_clean_sbu_0--edge1-KIFKEQ_clean_linker_1
_symmetry_space_group_name_H-M    P1
_symmetry_Int_Tables_number       1
_symmetry_cell_setting            triclinic
loop_
_symmetry_equiv_pos_as_xyz
'x, y, z'
_cell_length_a     29.515712
_cell_length_b     29.530471
_cell_length_c     43.928521
_cell_angle_alpha  89.995713
_cell_angle_beta   89.995331
_cell_angle_gamma 120.00828
loop_
_atom_site_label
_atom_site_type_symbol
_atom_site_fract_x
_atom_site_fract_y
_atom_site_fract_z
_atom_type_partial_charge
In0 In 0.58147 0.28977 0.15971 0.0
O1 O 0.51617 0.30992 0.16403 0.0
O2 O 0.59583 0.37187 0.16204 0.0
C3 C 0.54729 0.18735 0.15411 0.0
C4 C 0.61457 0.29889 0.21708 0.0
C5 C 0.61867 0.31565 0.1032 0.0
O6 O 0.51581 0.20488 0.15345 0.0
O7 O 0.5949 0.22144 0.15744 0.0
O8 O 0.64911 0.32643 0.12584 0.0
O9 O 0.5704 0.29187 0.10942 0.0
C10 C 0.54813 0.35885 0.16393 0.0
O11 O 0.64655 0.31859 0.19511 0.0
O12 O 0.56674 0.27536 0.20979 0.0
In13 In 0.29287 0.59172 0.48664 0.0
O14 O 0.33279 0.6589 0.52051 0.0
O15 O 0.29786 0.57987 0.53648 0.0
C16 C 0.29753 0.62384 0.42951 0.0
C17 C 0.1911 0.55886 0.49439 0.0
C18 C 0.36193 0.55874 0.48048 0.0
O19 O 0.31868 0.65621 0.45116 0.0
O20 O 0.27505 0.57613 0.43698 0.0
O21 O 0.31309 0.52657 0.48202 0.0
O22 O 0.37477 0.60645 0.48144 0.0
C23 C 0.32312 0.62805 0.54283 0.0
O24 O 0.20787 0.52677 0.49339 0.0
O25 O 0.2257 0.60647 0.49188 0.0
In26 In 0.71426 0.2922 0.82696 0.0
O27 O 0.68578 0.32934 0.86195 0.0
O28 O 0.72887 0.29289 0.87709 0.0
C29 C 0.6878 0.30211 0.77033 0.0
C30 C 0.6452 0.18994 0.83199 0.0
C31 C 0.81656 0.36053 0.82089 0.0
O32 O 0.67691 0.32195 0.79283 0.0
O33 O 0.71202 0.27814 0.77675 0.0
O34 O 0.79914 0.31154 0.8204 0.0
O35 O 0.78243 0.37397 0.82432 0.0
C36 C 0.70547 0.31744 0.88409 0.0
O37 O 0.69414 0.20691 0.83218 0.0
O38 O 0.63219 0.22454 0.82959 0.0
In39 In 0.40799 0.70314 0.15289 0.0
O40 O 0.47322 0.68336 0.15913 0.0
O41 O 0.39353 0.62131 0.15757 0.0
C42 C 0.44043 0.80505 0.14673 0.0
C43 C 0.37263 0.69631 0.20942 0.0
C44 C 0.37523 0.67538 0.0959 0.0
O45 O 0.47278 0.78858 0.14794 0.0
O46 O 0.39277 0.77005 0.14808 0.0
O47 O 0.34303 0.66418 0.11766 0.0
O48 O 0.42304 0.70087 0.10319 0.0
C49 C 0.44121 0.63444 0.15991 0.0
O50 O 0.34139 0.67536 0.18723 0.0
O51 O 0.42073 0.71956 0.20275 0.0
In52 In 0.70593 0.41795 0.49387 0.0
O53 O 0.79125 0.48331 0.4988 0.0
O54 O 0.77386 0.40384 0.49606 0.0
C55 C 0.63747 0.45191 0.48857 0.0
C56 C 0.68158 0.38368 0.551 0.0
C57 C 0.69538 0.38222 0.43704 0.0
O58 O 0.68648 0.48347 0.48794 0.0
O59 O 0.62403 0.40431 0.49173 0.0
O60 O 0.67552 0.35121 0.45942 0.0
O61 O 0.71968 0.4303 0.44367 0.0
C62 C 0.80839 0.4515 0.49843 0.0
O63 O 0.66971 0.35215 0.52884 0.0
O64 O 0.70559 0.43162 0.54401 0.0
In65 In 0.29992 0.70655 0.81945 0.0
O66 O 0.32005 0.79147 0.8263 0.0
O67 O 0.38176 0.77325 0.82558 0.0
C68 C 0.19834 0.63702 0.81216 0.0
C69 C 0.30427 0.6761 0.87584 0.0
C70 C 0.32907 0.70358 0.76251 0.0
O71 O 0.21451 0.68572 0.81405 0.0
O72 O 0.2335 0.62456 0.81334 0.0
O73 O 0.33969 0.68179 0.78409 0.0
O74 O 0.30356 0.7258 0.76996 0.0
C75 C 0.36886 0.80797 0.82787 0.0
O76 O 0.32622 0.6666 0.85385 0.0
O77 O 0.28132 0.70117 0.86904 0.0
H78 H 0.60415 0.14137 0.16858 0.0
H79 H 0.45343 0.10702 0.13386 0.0
H80 H 0.5784 0.0496 0.1652 0.0
H81 H 0.42815 0.01491 0.12891 0.0
H82 H 0.37915 0.84782 0.15703 0.0
H83 H 0.40445 0.93964 0.15761 0.0
H84 H 0.56219 0.98086 0.13239 0.0
H85 H 0.53704 0.8885 0.13342 0.0
C86 C 0.56557 0.11412 0.15989 0.0
C87 C 0.53069 0.13129 0.15157 0.0
C88 C 0.55093 0.06142 0.15766 0.0
C89 C 0.50124 0.02452 0.14661 0.0
C90 C 0.46646 0.04194 0.13798 0.0
C91 C 0.48091 0.09474 0.14067 0.0
C92 C 0.41923 0.8765 0.15151 0.0
C93 C 0.45623 0.86102 0.14531 0.0
C94 C 0.4337 0.92929 0.1516 0.0
C95 C 0.48544 0.96804 0.14506 0.0
C96 C 0.52221 0.95231 0.13813 0.0
C97 C 0.50783 0.89937 0.1385 0.0
H98 H 0.46613 0.62012 0.49019 0.0
H99 H 0.34839 0.46166 0.46823 0.0
H100 H 0.53257 0.59472 0.49111 0.0
H101 H 0.41555 0.43637 0.46752 0.0
H102 H 0.53488 0.39542 0.50377 0.0
H103 H 0.46871 0.42104 0.50033 0.0
H104 H 0.58366 0.57029 0.46264 0.0
H105 H 0.65063 0.54521 0.4677 0.0
C106 C 0.45459 0.57987 0.48509 0.0
C107 C 0.402 0.54278 0.47924 0.0
C108 C 0.49287 0.56535 0.48538 0.0
C109 C 0.47974 0.51343 0.47938 0.0
C110 C 0.42711 0.47652 0.47283 0.0
C111 C 0.38858 0.49097 0.47301 0.0
C112 C 0.54602 0.43376 0.49478 0.0
C113 C 0.59795 0.46843 0.48609 0.0
C114 C 0.50788 0.44831 0.49251 0.0
C115 C 0.52047 0.49769 0.48103 0.0
C116 C 0.57254 0.53225 0.47205 0.0
C117 C 0.61097 0.51791 0.4748 0.0
H118 H 0.89638 0.34756 0.79907 0.0
H119 H 0.86279 0.46297 0.83616 0.0
H120 H 0.98831 0.41469 0.7934 0.0
H121 H 0.95443 0.52924 0.83211 0.0
H122 H 0.11448 0.65007 0.79991 0.0
H123 H 0.02216 0.58258 0.79898 0.0
H124 H 0.06441 0.46583 0.82144 0.0
H125 H 0.15614 0.53264 0.82074 0.0
C126 C 0.90882 0.38717 0.80626 0.0
C127 C 0.87253 0.40007 0.81802 0.0
C128 C 0.96151 0.42569 0.80315 0.0
C129 C 0.97909 0.4777 0.81223 0.0
C130 C 0.94246 0.49014 0.82418 0.0
C131 C 0.88985 0.45193 0.8268 0.0
C132 C 0.10384 0.60987 0.80437 0.0
C133 C 0.14244 0.59665 0.81043 0.0
C134 C 0.05093 0.57114 0.80406 0.0
C135 C 0.0355 0.51852 0.81033 0.0
C136 C 0.07451 0.50554 0.81599 0.0
C137 C 0.12726 0.54404 0.81582 0.0
H138 H 0.10945 0.46333 0.5113 0.0
H139 H 0.1467 0.61856 0.4838 0.0
H140 H 0.0172 0.43805 0.51536 0.0
H141 H 0.05485 0.59298 0.48625 0.0
H142 H 0.89061 0.54662 0.51545 0.0
H143 H 0.98308 0.57206 0.51764 0.0
H144 H 0.94465 0.41864 0.4851 0.0
H145 H 0.85268 0.39286 0.48449 0.0
C146 C 0.09781 0.49189 0.50597 0.0
C147 C 0.13519 0.54282 0.49723 0.0
C148 C 0.04493 0.47743 0.50811 0.0
C149 C 0.02824 0.5134 0.50106 0.0
C150 C 0.06602 0.56443 0.49246 0.0
C151 C 0.1188 0.57902 0.49079 0.0
C152 C 0.90214 0.51845 0.50893 0.0
C153 C 0.86452 0.46784 0.49982 0.0
C154 C 0.95514 0.53299 0.51001 0.0
C155 C 0.97165 0.49744 0.50152 0.0
C156 C 0.93363 0.44681 0.49244 0.0
C157 C 0.88078 0.43212 0.49182 0.0
H158 H 0.47322 0.85186 0.81833 0.0
H159 H 0.35502 0.88981 0.8443 0.0
H160 H 0.53973 0.94354 0.82098 0.0
H161 H 0.42219 0.98189 0.84858 0.0
H162 H 0.54249 0.1459 0.81758 0.0
H163 H 0.47603 0.05409 0.81837 0.0
H164 H 0.59023 0.01546 0.85221 0.0
H165 H 0.65757 0.10777 0.8498 0.0
C166 C 0.46158 0.87988 0.82505 0.0
C167 C 0.40886 0.86374 0.83097 0.0
C168 C 0.4999 0.93256 0.82683 0.0
C169 C 0.48665 0.97049 0.83503 0.0
C170 C 0.43386 0.95404 0.84162 0.0
C171 C 0.39531 0.90125 0.83936 0.0
C172 C 0.5534 0.11778 0.82524 0.0
C173 C 0.60527 0.13393 0.83352 0.0
C174 C 0.51509 0.06502 0.82596 0.0
C175 C 0.52741 0.027 0.83546 0.0
C176 C 0.57934 0.04341 0.84426 0.0
C177 C 0.61797 0.0963 0.84305 0.0
H178 H 0.53656 0.64809 0.17712 0.0
H179 H 0.38196 0.53075 0.14813 0.0
H180 H 0.56178 0.58108 0.18092 0.0
H181 H 0.4075 0.46448 0.15032 0.0
H182 H 0.45258 0.34594 0.17993 0.0
H183 H 0.42732 0.41306 0.18183 0.0
H184 H 0.5819 0.52829 0.15085 0.0
H185 H 0.60747 0.46195 0.15054 0.0
C186 C 0.50815 0.60804 0.17138 0.0
C187 C 0.45737 0.59465 0.16236 0.0
C188 C 0.52256 0.56959 0.17337 0.0
C189 C 0.48672 0.51709 0.16589 0.0
C190 C 0.43591 0.50405 0.15689 0.0
C191 C 0.42135 0.54224 0.15538 0.0
C192 C 0.48104 0.38571 0.17368 0.0
C193 C 0.53191 0.39871 0.16511 0.0
C194 C 0.46661 0.42422 0.17459 0.0
C195 C 0.50253 0.47637 0.16645 0.0
C196 C 0.55342 0.48902 0.15789 0.0
C197 C 0.568 0.45078 0.15745 0.0
H198 H 0.74752 0.29779 0.93379 0.0
H199 H 0.6519 0.36366 0.90658 0.0
H200 H 0.73245 0.30856 0.98697 0.0
H201 H 0.63758 0.37553 0.96014 0.0
H202 H 0.55973 0.30214 0.05305 0.0
H203 H 0.58705 0.3137 0.00017 0.0
H204 H 0.74664 0.36942 0.02838 0.0
H205 H 0.71886 0.3568 0.08173 0.0
C206 C 0.72388 0.31533 0.9392 0.0
C207 C 0.70028 0.32926 0.91607 0.0
C208 C 0.71568 0.32199 0.96971 0.0
C209 C 0.68369 0.34274 0.97778 0.0
C210 C 0.66194 0.35885 0.95459 0.0
C211 C 0.6702 0.3522 0.92398 0.0
C212 C 0.60078 0.31737 0.04803 0.0
C213 C 0.63711 0.32798 0.07148 0.0
C214 C 0.61652 0.32451 0.01769 0.0
C215 C 0.66898 0.34239 0.01007 0.0
C216 C 0.70581 0.35506 0.03358 0.0
C217 C 0.69 0.348 0.06407 0.0
H218 H 0.4334 0.74536 0.25833 0.0
H219 H 0.27303 0.64012 0.23216 0.0
H220 H 0.40802 0.73351 0.3115 0.0
H221 H 0.24716 0.62895 0.28583 0.0
H222 H 0.349 0.72283 0.40574 0.0
H223 H 0.35957 0.74693 0.35185 0.0
H224 H 0.26292 0.58409 0.32752 0.0
H225 H 0.25152 0.56035 0.38101 0.0
C226 C 0.39248 0.72026 0.26395 0.0
C227 C 0.35526 0.69301 0.24117 0.0
C228 C 0.37784 0.71394 0.29446 0.0
C229 C 0.32561 0.68019 0.30289 0.0
C230 C 0.28784 0.65481 0.27999 0.0
C231 C 0.30255 0.66124 0.24933 0.0
C232 C 0.32945 0.69242 0.38883 0.0
C233 C 0.30009 0.63971 0.39748 0.0
C234 C 0.33553 0.70614 0.35803 0.0
C235 C 0.31232 0.66735 0.33544 0.0
C236 C 0.28079 0.61497 0.34431 0.0
C237 C 0.27474 0.60132 0.375 0.0
H238 H 0.70312 0.25762 0.72032 0.0
H239 H 0.64378 0.35833 0.74865 0.0
H240 H 0.69047 0.2721 0.66738 0.0
H241 H 0.63005 0.37213 0.69528 0.0
H242 H 0.69965 0.44517 0.60058 0.0
H243 H 0.6901 0.4198 0.6538 0.0
H244 H 0.62774 0.25841 0.62733 0.0
H245 H 0.63837 0.28417 0.57369 0.0
C246 C 0.68663 0.28232 0.71522 0.0
C247 C 0.67503 0.3074 0.73858 0.0
C248 C 0.67888 0.29017 0.68484 0.0
C249 C 0.65936 0.32333 0.67712 0.0
C250 C 0.6457 0.34679 0.70056 0.0
C251 C 0.65341 0.33882 0.73106 0.0
C252 C 0.68337 0.40416 0.60607 0.0
C253 C 0.67036 0.36669 0.58301 0.0
C254 C 0.67741 0.38956 0.63661 0.0
C255 C 0.65831 0.33713 0.64479 0.0
C256 C 0.64313 0.29923 0.62169 0.0
C257 C 0.64906 0.3139 0.59103 0.0
H258 H 0.25347 0.68655 0.92429 0.0
H259 H 0.35965 0.63215 0.89898 0.0
H260 H 0.26442 0.67286 0.97757 0.0
H261 H 0.36984 0.61721 0.95274 0.0
H262 H 0.43846 0.69212 0.04739 0.0
H263 H 0.41444 0.67846 -0.006 0.0
H264 H 0.25157 0.61228 0.01849 0.0
H265 H 0.27599 0.62717 0.07233 0.0
C266 C 0.27853 0.67078 0.93012 0.0
C267 C 0.30645 0.66124 0.90756 0.0
C268 C 0.28433 0.66236 0.96069 0.0
C269 C 0.31819 0.64419 0.9694 0.0
C270 C 0.34395 0.63187 0.94669 0.0
C271 C 0.33807 0.64028 0.91597 0.0
C272 C 0.39742 0.6741 0.04145 0.0
C273 C 0.35912 0.66147 0.06396 0.0
C274 C 0.3836 0.66571 0.01081 0.0
C275 C 0.33113 0.64443 0.002 0.0
C276 C 0.29243 0.6293 0.02462 0.0
C277 C 0.30633 0.63774 0.05539 0.0
H278 H 0.63726 0.28255 0.41476 0.0
H279 H 0.74101 0.44251 0.38736 0.0
H280 H 0.62312 0.25602 0.36121 0.0
H281 H 0.72626 0.41642 0.33426 0.0
H282 H 0.7139 0.35323 0.24026 0.0
H283 H 0.739 0.36709 0.294 0.0
H284 H 0.57676 0.27059 0.31972 0.0
H285 H 0.55199 0.25602 0.26637 0.0
C286 C 0.65736 0.31186 0.39734 0.0
C287 C 0.68976 0.36461 0.40517 0.0
C288 C 0.6492 0.29677 0.36673 0.0
C289 C 0.67347 0.33418 0.34352 0.0
C290 C 0.70753 0.38652 0.35155 0.0
C291 C 0.71556 0.40155 0.38202 0.0
C292 C 0.68382 0.3345 0.25745 0.0
C293 C 0.63099 0.30406 0.24918 0.0
C294 C 0.69811 0.3425 0.28817 0.0
C295 C 0.65981 0.32009 0.31109 0.0
C296 C 0.60728 0.28785 0.30267 0.0
C297 C 0.59304 0.27994 0.27206 0.0
H298 H 0.37721 0.65278 0.73864 0.0
H299 H 0.31261 0.75074 0.71422 0.0
H300 H 0.39098 0.64273 0.68471 0.0
H301 H 0.32509 0.73979 0.66072 0.0
H302 H 0.31315 0.56807 0.5918 0.0
H303 H 0.32859 0.59421 0.64479 0.0
H304 H 0.38444 0.7547 0.61859 0.0
H305 H 0.36776 0.72803 0.56509 0.0
C306 C 0.36654 0.67259 0.7218 0.0
C307 C 0.34309 0.70181 0.73054 0.0
C308 C 0.37432 0.66681 0.69098 0.0
C309 C 0.35874 0.69015 0.66846 0.0
C310 C 0.33808 0.72179 0.67744 0.0
C311 C 0.33037 0.72757 0.70814 0.0
C312 C 0.32928 0.60907 0.59726 0.0
C313 C 0.33847 0.64594 0.5744 0.0
C314 C 0.33874 0.62416 0.62766 0.0
C315 C 0.3576 0.6765 0.63592 0.0
C316 C 0.36934 0.71395 0.6129 0.0
C317 C 0.35991 0.69877 0.58233 0.0
loop_
_geom_bond_atom_site_label_1
_geom_bond_atom_site_label_2
_geom_bond_distance
_geom_bond_site_symmetry_2
_ccdc_geom_bond_type
In0 O1 2.294 . S
In0 O2 2.326 . S
In0 O6 2.266 . S
In0 O7 2.326 . S
In0 O8 2.266 . S
In0 O9 2.326 . S
In0 O11 2.294 . S
In0 O12 2.326 . S
O1 In0 2.294 . S
O1 C10 1.240 . S
O2 In0 2.326 . S
O2 C10 1.252 . S
C3 O6 1.252 . S
C3 O7 1.260 . S
C4 O11 1.240 . S
C4 O12 1.252 . S
C5 O8 1.252 . S
C5 O9 1.260 . S
O6 In0 2.266 . S
O6 C3 1.252 . S
O7 In0 2.326 . S
O7 C3 1.260 . S
O8 In0 2.266 . S
O8 C5 1.252 . S
O9 In0 2.326 . S
O9 C5 1.260 . S
C10 O1 1.240 . S
C10 O2 1.252 . S
O11 In0 2.294 . S
O11 C4 1.240 . S
O12 In0 2.326 . S
O12 C4 1.252 . S
In13 O14 2.294 . S
In13 O15 2.326 . S
In13 O19 2.266 . S
In13 O20 2.326 . S
In13 O21 2.266 . S
In13 O22 2.326 . S
In13 O24 2.294 . S
In13 O25 2.326 . S
O14 In13 2.294 . S
O14 C23 1.240 . S
O15 In13 2.326 . S
O15 C23 1.252 . S
C16 O19 1.252 . S
C16 O20 1.260 . S
C17 O24 1.240 . S
C17 O25 1.252 . S
C18 O21 1.252 . S
C18 O22 1.260 . S
O19 In13 2.266 . S
O19 C16 1.252 . S
O20 In13 2.326 . S
O20 C16 1.260 . S
O21 In13 2.266 . S
O21 C18 1.252 . S
O22 In13 2.326 . S
O22 C18 1.260 . S
C23 O14 1.240 . S
C23 O15 1.252 . S
O24 In13 2.294 . S
O24 C17 1.240 . S
O25 In13 2.326 . S
O25 C17 1.252 . S
In26 O27 2.294 . S
In26 O28 2.326 . S
In26 O32 2.266 . S
In26 O33 2.326 . S
In26 O34 2.266 . S
In26 O35 2.326 . S
In26 O37 2.294 . S
In26 O38 2.326 . S
O27 In26 2.294 . S
O27 C36 1.240 . S
O28 In26 2.326 . S
O28 C36 1.252 . S
C29 O32 1.252 . S
C29 O33 1.260 . S
C30 O37 1.240 . S
C30 O38 1.252 . S
C31 O34 1.252 . S
C31 O35 1.260 . S
O32 In26 2.266 . S
O32 C29 1.252 . S
O33 In26 2.326 . S
O33 C29 1.260 . S
O34 In26 2.266 . S
O34 C31 1.252 . S
O35 In26 2.326 . S
O35 C31 1.260 . S
C36 O27 1.240 . S
C36 O28 1.252 . S
O37 In26 2.294 . S
O37 C30 1.240 . S
O38 In26 2.326 . S
O38 C30 1.252 . S
In39 O40 2.294 . S
In39 O41 2.326 . S
In39 O45 2.266 . S
In39 O46 2.326 . S
In39 O47 2.266 . S
In39 O48 2.326 . S
In39 O50 2.294 . S
In39 O51 2.326 . S
O40 In39 2.294 . S
O40 C49 1.240 . S
O41 In39 2.326 . S
O41 C49 1.252 . S
C42 O45 1.252 . S
C42 O46 1.260 . S
C43 O50 1.240 . S
C43 O51 1.252 . S
C44 O47 1.252 . S
C44 O48 1.260 . S
O45 In39 2.266 . S
O45 C42 1.252 . S
O46 In39 2.326 . S
O46 C42 1.260 . S
O47 In39 2.266 . S
O47 C44 1.252 . S
O48 In39 2.326 . S
O48 C44 1.260 . S
C49 O40 1.240 . S
C49 O41 1.252 . S
O50 In39 2.294 . S
O50 C43 1.240 . S
O51 In39 2.326 . S
O51 C43 1.252 . S
In52 O53 2.294 . S
In52 O54 2.326 . S
In52 O58 2.266 . S
In52 O59 2.326 . S
In52 O60 2.266 . S
In52 O61 2.326 . S
In52 O63 2.294 . S
In52 O64 2.326 . S
O53 In52 2.294 . S
O53 C62 1.240 . S
O54 In52 2.326 . S
O54 C62 1.252 . S
C55 O58 1.252 . S
C55 O59 1.260 . S
C56 O63 1.240 . S
C56 O64 1.252 . S
C57 O60 1.252 . S
C57 O61 1.260 . S
O58 In52 2.266 . S
O58 C55 1.252 . S
O59 In52 2.326 . S
O59 C55 1.260 . S
O60 In52 2.266 . S
O60 C57 1.252 . S
O61 In52 2.326 . S
O61 C57 1.260 . S
C62 O53 1.240 . S
C62 O54 1.252 . S
O63 In52 2.294 . S
O63 C56 1.240 . S
O64 In52 2.326 . S
O64 C56 1.252 . S
In65 O66 2.294 . S
In65 O67 2.326 . S
In65 O71 2.266 . S
In65 O72 2.326 . S
In65 O73 2.266 . S
In65 O74 2.326 . S
In65 O76 2.294 . S
In65 O77 2.326 . S
O66 In65 2.294 . S
O66 C75 1.240 . S
O67 In65 2.326 . S
O67 C75 1.252 . S
C68 O71 1.252 . S
C68 O72 1.260 . S
C69 O76 1.240 . S
C69 O77 1.252 . S
C70 O73 1.252 . S
C70 O74 1.260 . S
O71 In65 2.266 . S
O71 C68 1.252 . S
O72 In65 2.326 . S
O72 C68 1.260 . S
O73 In65 2.266 . S
O73 C70 1.252 . S
O74 In65 2.326 . S
O74 C70 1.260 . S
C75 O66 1.240 . S
C75 O67 1.252 . S
O76 In65 2.294 . S
O76 C69 1.240 . S
O77 In65 2.326 . S
O77 C69 1.252 . S
H78 C86 0.950 . S
H79 C91 0.950 . S
H80 C88 0.950 . S
H81 C90 0.950 . S
H82 C92 0.950 . S
H83 C94 0.950 . S
H84 C96 0.950 . S
H85 C97 0.950 . S
C86 H78 0.950 . S
C86 C87 1.386 . S
C86 C88 1.391 . S
C87 C86 1.386 . S
C87 C91 1.393 . S
C88 H80 0.950 . S
C88 C86 1.391 . S
C88 C89 1.400 . S
C89 C88 1.400 . S
C89 C90 1.398 . S
C89 C95 1.491 1_545 S
C90 H81 0.950 . S
C90 C89 1.398 . S
C90 C91 1.391 . S
C91 H79 0.950 . S
C91 C87 1.393 . S
C91 C90 1.391 . S
C92 H82 0.950 . S
C92 C93 1.386 . S
C92 C94 1.391 . S
C93 C92 1.386 . S
C93 C97 1.393 . S
C94 H83 0.950 . S
C94 C92 1.391 . S
C94 C95 1.400 . S
C95 C89 1.491 1_565 S
C95 C94 1.400 . S
C95 C96 1.398 . S
C96 H84 0.950 . S
C96 C95 1.398 . S
C96 C97 1.391 . S
C97 H85 0.950 . S
C97 C93 1.393 . S
C97 C96 1.391 . S
H98 C106 0.950 . S
H99 C111 0.950 . S
H100 C108 0.950 . S
H101 C110 0.950 . S
H102 C112 0.950 . S
H103 C114 0.950 . S
H104 C116 0.950 . S
H105 C117 0.950 . S
C106 H98 0.950 . S
C106 C107 1.386 . S
C106 C108 1.391 . S
C107 C106 1.386 . S
C107 C111 1.393 . S
C108 H100 0.950 . S
C108 C106 1.391 . S
C108 C109 1.400 . S
C109 C108 1.400 . S
C109 C110 1.398 . S
C109 C115 1.491 . S
C110 H101 0.950 . S
C110 C109 1.398 . S
C110 C111 1.391 . S
C111 H99 0.950 . S
C111 C107 1.393 . S
C111 C110 1.391 . S
C112 H102 0.950 . S
C112 C113 1.386 . S
C112 C114 1.391 . S
C113 C112 1.386 . S
C113 C117 1.393 . S
C114 H103 0.950 . S
C114 C112 1.391 . S
C114 C115 1.400 . S
C115 C109 1.491 . S
C115 C114 1.400 . S
C115 C116 1.398 . S
C116 H104 0.950 . S
C116 C115 1.398 . S
C116 C117 1.391 . S
C117 H105 0.950 . S
C117 C113 1.393 . S
C117 C116 1.391 . S
H118 C126 0.950 . S
H119 C131 0.950 . S
H120 C128 0.950 . S
H121 C130 0.950 . S
H122 C132 0.950 . S
H123 C134 0.950 . S
H124 C136 0.950 . S
H125 C137 0.950 . S
C126 H118 0.950 . S
C126 C127 1.386 . S
C126 C128 1.391 . S
C127 C126 1.386 . S
C127 C131 1.393 . S
C128 H120 0.950 . S
C128 C126 1.391 . S
C128 C129 1.400 . S
C129 C128 1.400 . S
C129 C130 1.398 . S
C129 C135 1.491 1_655 S
C130 H121 0.950 . S
C130 C129 1.398 . S
C130 C131 1.391 . S
C131 H119 0.950 . S
C131 C127 1.393 . S
C131 C130 1.391 . S
C132 H122 0.950 . S
C132 C133 1.386 . S
C132 C134 1.391 . S
C133 C132 1.386 . S
C133 C137 1.393 . S
C134 H123 0.950 . S
C134 C132 1.391 . S
C134 C135 1.400 . S
C135 C129 1.491 1_455 S
C135 C134 1.400 . S
C135 C136 1.398 . S
C136 H124 0.950 . S
C136 C135 1.398 . S
C136 C137 1.391 . S
C137 H125 0.950 . S
C137 C133 1.393 . S
C137 C136 1.391 . S
H138 C146 0.950 . S
H139 C151 0.950 . S
H140 C148 0.950 . S
H141 C150 0.950 . S
H142 C152 0.950 . S
H143 C154 0.950 . S
H144 C156 0.950 . S
H145 C157 0.950 . S
C146 H138 0.950 . S
C146 C147 1.386 . S
C146 C148 1.391 . S
C147 C146 1.386 . S
C147 C151 1.393 . S
C148 H140 0.950 . S
C148 C146 1.391 . S
C148 C149 1.400 . S
C149 C148 1.400 . S
C149 C150 1.398 . S
C149 C155 1.491 1_455 S
C150 H141 0.950 . S
C150 C149 1.398 . S
C150 C151 1.391 . S
C151 H139 0.950 . S
C151 C147 1.393 . S
C151 C150 1.391 . S
C152 H142 0.950 . S
C152 C153 1.386 . S
C152 C154 1.391 . S
C153 C152 1.386 . S
C153 C157 1.393 . S
C154 H143 0.950 . S
C154 C152 1.391 . S
C154 C155 1.400 . S
C155 C149 1.491 1_655 S
C155 C154 1.400 . S
C155 C156 1.398 . S
C156 H144 0.950 . S
C156 C155 1.398 . S
C156 C157 1.391 . S
C157 H145 0.950 . S
C157 C153 1.393 . S
C157 C156 1.391 . S
H158 C166 0.950 . S
H159 C171 0.950 . S
H160 C168 0.950 . S
H161 C170 0.950 . S
H162 C172 0.950 . S
H163 C174 0.950 . S
H164 C176 0.950 . S
H165 C177 0.950 . S
C166 H158 0.950 . S
C166 C167 1.386 . S
C166 C168 1.391 . S
C167 C166 1.386 . S
C167 C171 1.393 . S
C168 H160 0.950 . S
C168 C166 1.391 . S
C168 C169 1.400 . S
C169 C168 1.400 . S
C169 C170 1.398 . S
C169 C175 1.491 1_565 S
C170 H161 0.950 . S
C170 C169 1.398 . S
C170 C171 1.391 . S
C171 H159 0.950 . S
C171 C167 1.393 . S
C171 C170 1.391 . S
C172 H162 0.950 . S
C172 C173 1.386 . S
C172 C174 1.391 . S
C173 C172 1.386 . S
C173 C177 1.393 . S
C174 H163 0.950 . S
C174 C172 1.391 . S
C174 C175 1.400 . S
C175 C169 1.491 1_545 S
C175 C174 1.400 . S
C175 C176 1.398 . S
C176 H164 0.950 . S
C176 C175 1.398 . S
C176 C177 1.391 . S
C177 H165 0.950 . S
C177 C173 1.393 . S
C177 C176 1.391 . S
H178 C186 0.950 . S
H179 C191 0.950 . S
H180 C188 0.950 . S
H181 C190 0.950 . S
H182 C192 0.950 . S
H183 C194 0.950 . S
H184 C196 0.950 . S
H185 C197 0.950 . S
C186 H178 0.950 . S
C186 C187 1.386 . S
C186 C188 1.391 . S
C187 C186 1.386 . S
C187 C191 1.393 . S
C188 H180 0.950 . S
C188 C186 1.391 . S
C188 C189 1.400 . S
C189 C188 1.400 . S
C189 C190 1.398 . S
C189 C195 1.491 . S
C190 H181 0.950 . S
C190 C189 1.398 . S
C190 C191 1.391 . S
C191 H179 0.950 . S
C191 C187 1.393 . S
C191 C190 1.391 . S
C192 H182 0.950 . S
C192 C193 1.386 . S
C192 C194 1.391 . S
C193 C192 1.386 . S
C193 C197 1.393 . S
C194 H183 0.950 . S
C194 C192 1.391 . S
C194 C195 1.400 . S
C195 C189 1.491 . S
C195 C194 1.400 . S
C195 C196 1.398 . S
C196 H184 0.950 . S
C196 C195 1.398 . S
C196 C197 1.391 . S
C197 H185 0.950 . S
C197 C193 1.393 . S
C197 C196 1.391 . S
H198 C206 0.950 . S
H199 C211 0.950 . S
H200 C208 0.950 . S
H201 C210 0.950 . S
H202 C212 0.950 . S
H203 C214 0.950 . S
H204 C216 0.950 . S
H205 C217 0.950 . S
C206 H198 0.950 . S
C206 C207 1.386 . S
C206 C208 1.391 . S
C207 C206 1.386 . S
C207 C211 1.393 . S
C208 H200 0.950 . S
C208 C206 1.391 . S
C208 C209 1.400 . S
C209 C208 1.400 . S
C209 C210 1.398 . S
C209 C215 1.491 1_556 S
C210 H201 0.950 . S
C210 C209 1.398 . S
C210 C211 1.391 . S
C211 H199 0.950 . S
C211 C207 1.393 . S
C211 C210 1.391 . S
C212 H202 0.950 . S
C212 C213 1.386 . S
C212 C214 1.391 . S
C213 C212 1.386 . S
C213 C217 1.393 . S
C214 H203 0.950 . S
C214 C212 1.391 . S
C214 C215 1.400 . S
C215 C209 1.491 1_554 S
C215 C214 1.400 . S
C215 C216 1.398 . S
C216 H204 0.950 . S
C216 C215 1.398 . S
C216 C217 1.391 . S
C217 H205 0.950 . S
C217 C213 1.393 . S
C217 C216 1.391 . S
H218 C226 0.950 . S
H219 C231 0.950 . S
H220 C228 0.950 . S
H221 C230 0.950 . S
H222 C232 0.950 . S
H223 C234 0.950 . S
H224 C236 0.950 . S
H225 C237 0.950 . S
C226 H218 0.950 . S
C226 C227 1.386 . S
C226 C228 1.391 . S
C227 C226 1.386 . S
C227 C231 1.393 . S
C228 H220 0.950 . S
C228 C226 1.391 . S
C228 C229 1.400 . S
C229 C228 1.400 . S
C229 C230 1.398 . S
C229 C235 1.491 . S
C230 H221 0.950 . S
C230 C229 1.398 . S
C230 C231 1.391 . S
C231 H219 0.950 . S
C231 C227 1.393 . S
C231 C230 1.391 . S
C232 H222 0.950 . S
C232 C233 1.386 . S
C232 C234 1.391 . S
C233 C232 1.386 . S
C233 C237 1.393 . S
C234 H223 0.950 . S
C234 C232 1.391 . S
C234 C235 1.400 . S
C235 C229 1.491 . S
C235 C234 1.400 . S
C235 C236 1.398 . S
C236 H224 0.950 . S
C236 C235 1.398 . S
C236 C237 1.391 . S
C237 H225 0.950 . S
C237 C233 1.393 . S
C237 C236 1.391 . S
H238 C246 0.950 . S
H239 C251 0.950 . S
H240 C248 0.950 . S
H241 C250 0.950 . S
H242 C252 0.950 . S
H243 C254 0.950 . S
H244 C256 0.950 . S
H245 C257 0.950 . S
C246 H238 0.950 . S
C246 C247 1.386 . S
C246 C248 1.391 . S
C247 C246 1.386 . S
C247 C251 1.393 . S
C248 H240 0.950 . S
C248 C246 1.391 . S
C248 C249 1.400 . S
C249 C248 1.400 . S
C249 C250 1.398 . S
C249 C255 1.491 . S
C250 H241 0.950 . S
C250 C249 1.398 . S
C250 C251 1.391 . S
C251 H239 0.950 . S
C251 C247 1.393 . S
C251 C250 1.391 . S
C252 H242 0.950 . S
C252 C253 1.386 . S
C252 C254 1.391 . S
C253 C252 1.386 . S
C253 C257 1.393 . S
C254 H243 0.950 . S
C254 C252 1.391 . S
C254 C255 1.400 . S
C255 C249 1.491 . S
C255 C254 1.400 . S
C255 C256 1.398 . S
C256 H244 0.950 . S
C256 C255 1.398 . S
C256 C257 1.391 . S
C257 H245 0.950 . S
C257 C253 1.393 . S
C257 C256 1.391 . S
H258 C266 0.950 . S
H259 C271 0.950 . S
H260 C268 0.950 . S
H261 C270 0.950 . S
H262 C272 0.950 . S
H263 C274 0.950 . S
H264 C276 0.950 . S
H265 C277 0.950 . S
C266 H258 0.950 . S
C266 C267 1.386 . S
C266 C268 1.391 . S
C267 C266 1.386 . S
C267 C271 1.393 . S
C268 H260 0.950 . S
C268 C266 1.391 . S
C268 C269 1.400 . S
C269 C268 1.400 . S
C269 C270 1.398 . S
C269 C275 1.491 1_556 S
C270 H261 0.950 . S
C270 C269 1.398 . S
C270 C271 1.391 . S
C271 H259 0.950 . S
C271 C267 1.393 . S
C271 C270 1.391 . S
C272 H262 0.950 . S
C272 C273 1.386 . S
C272 C274 1.391 . S
C273 C272 1.386 . S
C273 C277 1.393 . S
C274 H263 0.950 . S
C274 C272 1.391 . S
C274 C275 1.400 . S
C275 C269 1.491 1_554 S
C275 C274 1.400 . S
C275 C276 1.398 . S
C276 H264 0.950 . S
C276 C275 1.398 . S
C276 C277 1.391 . S
C277 H265 0.950 . S
C277 C273 1.393 . S
C277 C276 1.391 . S
H278 C286 0.950 . S
H279 C291 0.950 . S
H280 C288 0.950 . S
H281 C290 0.950 . S
H282 C292 0.950 . S
H283 C294 0.950 . S
H284 C296 0.950 . S
H285 C297 0.950 . S
C286 H278 0.950 . S
C286 C287 1.386 . S
C286 C288 1.391 . S
C287 C286 1.386 . S
C287 C291 1.393 . S
C288 H280 0.950 . S
C288 C286 1.391 . S
C288 C289 1.400 . S
C289 C288 1.400 . S
C289 C290 1.398 . S
C289 C295 1.491 . S
C290 H281 0.950 . S
C290 C289 1.398 . S
C290 C291 1.391 . S
C291 H279 0.950 . S
C291 C287 1.393 . S
C291 C290 1.391 . S
C292 H282 0.950 . S
C292 C293 1.386 . S
C292 C294 1.391 . S
C293 C292 1.386 . S
C293 C297 1.393 . S
C294 H283 0.950 . S
C294 C292 1.391 . S
C294 C295 1.400 . S
C295 C289 1.491 . S
C295 C294 1.400 . S
C295 C296 1.398 . S
C296 H284 0.950 . S
C296 C295 1.398 . S
C296 C297 1.391 . S
C297 H285 0.950 . S
C297 C293 1.393 . S
C297 C296 1.391 . S
H298 C306 0.950 . S
H299 C311 0.950 . S
H300 C308 0.950 . S
H301 C310 0.950 . S
H302 C312 0.950 . S
H303 C314 0.950 . S
H304 C316 0.950 . S
H305 C317 0.950 . S
C306 H298 0.950 . S
C306 C307 1.386 . S
C306 C308 1.391 . S
C307 C306 1.386 . S
C307 C311 1.393 . S
C308 H300 0.950 . S
C308 C306 1.391 . S
C308 C309 1.400 . S
C309 C308 1.400 . S
C309 C310 1.398 . S
C309 C315 1.491 . S
C310 H301 0.950 . S
C310 C309 1.398 . S
C310 C311 1.391 . S
C311 H299 0.950 . S
C311 C307 1.393 . S
C311 C310 1.391 . S
C312 H302 0.950 . S
C312 C313 1.386 . S
C312 C314 1.391 . S
C313 C312 1.386 . S
C313 C317 1.393 . S
C314 H303 0.950 . S
C314 C312 1.391 . S
C314 C315 1.400 . S
C315 C309 1.491 . S
C315 C314 1.400 . S
C315 C316 1.398 . S
C316 H304 0.950 . S
C316 C315 1.398 . S
C316 C317 1.391 . S
C317 H305 0.950 . S
C317 C313 1.393 . S
C317 C316 1.391 . S
C87 C3 1.420 . S
C93 C42 1.420 . S
C107 C18 1.407 . S
C113 C55 1.407 . S
C127 C31 1.405 . S
C133 C68 1.405 . S
C147 C17 1.396 . S
C153 C62 1.398 . S
C167 C75 1.387 . S
C173 C30 1.386 . S
C187 C49 1.386 . S
C193 C10 1.387 . S
C207 C36 1.344 . S
C213 C5 1.337 . S
C227 C43 1.336 . S
C233 C16 1.333 . S
C247 C29 1.337 . S
C253 C56 1.335 . S
C267 C69 1.346 . S
C273 C44 1.342 . S
C287 C57 1.333 . S
C293 C4 1.338 . S
C307 C70 1.343 . S
C313 C23 1.347 . S
