# Generated by pormake.
# Topology acs-g, (3)-cn, num edge types: 1
# Building blocks:
#     Node 0, Type 0, BuildingBlock: WUSLED_clean_sbu_0, # of connection points: 3
#     Node 1, Type 0, BuildingBlock: WUSLED_clean_sbu_0, # of connection points: 3
#     Node 2, Type 0, BuildingBlock: WUSLED_clean_sbu_0, # of connection points: 3
#     Node 3, Type 0, BuildingBlock: WUSLED_clean_sbu_0, # of connection points: 3
#     Node 4, Type 0, BuildingBlock: WUSLED_clean_sbu_0, # of connection points: 3
#     Node 5, Type 0, BuildingBlock: WUSLED_clean_sbu_0, # of connection points: 3
#     Node 6, Type 0, BuildingBlock: WUSLED_clean_sbu_0, # of connection points: 3
#     Node 7, Type 0, BuildingBlock: WUSLED_clean_sbu_0, # of connection points: 3
#     Node 8, Type 0, BuildingBlock: WUSLED_clean_sbu_0, # of connection points: 3
#     Node 9, Type 0, BuildingBlock: WUSLED_clean_sbu_0, # of connection points: 3
#     Node 10, Type 0, BuildingBlock: WUSLED_clean_sbu_0, # of connection points: 3
#     Node 11, Type 0, BuildingBlock: WUSLED_clean_sbu_0, # of connection points: 3
#     Edge 12, Type (0, 0), None
#     Edge 13, Type (0, 0), None
#     Edge 14, Type (0, 0), None
#     Edge 15, Type (0, 0), None
#     Edge 16, Type (0, 0), None
#     Edge 17, Type (0, 0), None
#     Edge 18, Type (0, 0), None
#     Edge 19, Type (0, 0), None
#     Edge 20, Type (0, 0), None
#     Edge 21, Type (0, 0), None
#     Edge 22, Type (0, 0), None
#     Edge 23, Type (0, 0), None
#     Edge 24, Type (0, 0), None
#     Edge 25, Type (0, 0), None
#     Edge 26, Type (0, 0), None
#     Edge 27, Type (0, 0), None
#     Edge 28, Type (0, 0), None
#     Edge 29, Type (0, 0), None
# Relax obj value: 0.022
# Max RMSD: 0.021
# Mean RMSD: 0.020
data_MOF--net-acs-g--node1-WUSLED_clean_sbu_0--edge1-none
_symmetry_space_group_name_H-M    P1
_symmetry_Int_Tables_number       1
_symmetry_cell_setting            triclinic
loop_
_symmetry_equiv_pos_as_xyz
'x, y, z'
_cell_length_a     48.550924
_cell_length_b     48.546746
_cell_length_c     40.091621
_cell_angle_alpha  89.996791
_cell_angle_beta   90.008437
_cell_angle_gamma 119.99325
loop_
_atom_site_label
_atom_site_type_symbol
_atom_site_fract_x
_atom_site_fract_y
_atom_site_fract_z
_atom_type_partial_charge
C0 C 0.25913 0.38403 0.21879 0.0
C1 C 0.26839 0.39347 0.25195 0.0
C2 C 0.21459 0.38122 0.26614 0.0
C3 C 0.24632 0.39194 0.27541 0.0
C4 C 0.2054 0.37161 0.2329 0.0
C5 C 0.22747 0.37297 0.20948 0.0
U6 U 0.34489 0.42322 0.1918 0.0
O7 O 0.37318 0.40545 0.1664 0.0
O8 O 0.36826 0.444 0.14391 0.0
C9 C 0.37917 0.42422 0.14046 0.0
C10 C 0.28277 0.38742 0.19358 0.0
C11 C 0.37689 0.41049 0.10671 0.0
C12 C 0.37858 0.3708 0.07068 0.0
C13 C 0.37542 0.38099 0.10246 0.0
C14 C 0.38377 0.41884 0.04661 0.0
C15 C 0.38344 0.38989 0.04239 0.0
C16 C 0.38065 0.42902 0.07831 0.0
C17 C 0.40455 0.48497 0.25386 0.0
C18 C 0.45934 0.5242 0.24107 0.0
C19 C 0.43815 0.52249 0.29623 0.0
C20 C 0.40895 0.49677 0.28647 0.0
C21 C 0.46354 0.53695 0.27348 0.0
C22 C 0.43005 0.49841 0.23133 0.0
C23 C 0.37259 0.46035 0.24336 0.0
O24 O 0.2974 0.41521 0.17863 0.0
O25 O 0.30217 0.37719 0.20255 0.0
O26 O 0.36756 0.43117 0.24125 0.0
O27 O 0.36044 0.46817 0.21831 0.0
H28 H 0.29284 0.40253 0.25957 0.0
H29 H 0.25434 0.39998 0.30061 0.0
H30 H 0.18112 0.36301 0.22499 0.0
H31 H 0.21991 0.36577 0.18398 0.0
H32 H 0.37788 0.34823 0.06837 0.0
H33 H 0.37292 0.36621 0.12378 0.0
H34 H 0.38801 0.4345 1.0256 0.0
H35 H 0.38254 0.45213 0.0807 0.0
H36 H 0.47851 0.53451 0.22306 0.0
H37 H 0.44033 0.5319 0.32119 0.0
H38 H 0.38944 0.48674 0.30412 0.0
H39 H 0.42704 0.48951 0.20602 0.0
C40 C 0.88766 0.25282 0.72056 0.0
C41 C 0.88673 0.2622 0.75348 0.0
C42 C 0.84503 0.2084 0.76743 0.0
C43 C 0.86575 0.24019 0.77671 0.0
C44 C 0.84613 0.1991 0.7344 0.0
C45 C 0.8673 0.22112 0.71121 0.0
U46 U 0.93517 0.33852 0.6938 0.0
O47 O 0.9822 0.36678 0.67022 0.0
O48 O 0.93967 0.36216 0.64564 0.0
C49 C 0.97045 0.37297 0.64353 0.0
C50 C 0.90861 0.27637 0.69563 0.0
C51 C 0.98337 0.37091 0.61055 0.0
C52 C 0.97986 0.36991 0.54979 0.0
C53 C 0.9657 0.36618 0.58116 0.0
C54 C 0.02939 0.38205 0.57635 0.0
C55 C 1.01214 0.37868 0.54695 0.0
C56 C 1.01524 0.37834 0.60771 0.0
C57 C 0.93143 0.39797 0.75502 0.0
C58 C 0.94714 0.45285 0.74246 0.0
C59 C 0.9271 0.43133 0.79739 0.0
C60 C 0.9237 0.40219 0.78755 0.0
C61 C 0.93827 0.45687 0.77478 0.0
C62 C 0.94372 0.42361 0.73265 0.0
C63 C 0.92424 0.36606 0.74447 0.0
O64 O 0.89598 0.29111 0.67984 0.0
O65 O 0.938 0.29569 0.7054 0.0
O66 O 0.94828 0.36081 0.74354 0.0
O67 O 0.90516 0.35428 0.71867 0.0
H68 H 0.90193 0.28668 0.76111 0.0
H69 H 0.86519 0.24829 0.80174 0.0
H70 H 0.83067 0.17477 0.7265 0.0
H71 H 0.86752 0.21346 0.68588 0.0
H72 H 0.96589 0.36754 0.52781 0.0
H73 H 0.94127 0.36096 0.58228 0.0
H74 H 0.05416 0.3884 0.57516 0.0
H75 H 0.02969 0.38255 0.62978 0.0
H76 H 0.95619 0.47213 0.72457 0.0
H77 H 0.91962 0.43337 0.82227 0.0
H78 H 0.91404 0.38257 0.80509 0.0
H79 H 0.94988 0.42075 0.70741 0.0
C80 C 0.64587 0.88195 0.22009 0.0
C81 C 0.63586 0.88095 0.25316 0.0
C82 C 0.64815 0.83927 0.26656 0.0
C83 C 0.63714 0.85996 0.2762 0.0
C84 C 0.65821 0.84041 0.23338 0.0
C85 C 0.65712 0.8616 0.2104 0.0
U86 U 0.60724 0.92926 0.19383 0.0
O87 O 0.62588 0.97644 0.17062 0.0
O88 O 0.58817 0.934 0.14573 0.0
C89 C 0.60804 0.96482 0.14386 0.0
C90 C 0.64308 0.90296 0.19538 0.0
C91 C 0.6231 0.97804 0.11099 0.0
C92 C 0.62158 0.97445 0.05023 0.0
C93 C 0.61118 0.96014 0.08155 0.0
C94 C 0.65696 0.0246 0.07698 0.0
C95 C 0.64402 1.00708 0.04749 0.0
C96 C 0.64654 1.0103 0.10828 0.0
C97 C 0.54385 0.92494 0.2551 0.0
C98 C 0.50475 0.9408 0.24273 0.0
C99 C 0.50606 0.92034 0.29748 0.0
C100 C 0.53181 0.91697 0.28758 0.0
C101 C 0.4918 0.93173 0.27501 0.0
C102 C 0.53059 0.93742 0.23285 0.0
C103 C 0.56864 0.91789 0.24448 0.0
O104 O 0.61571 0.89029 0.17959 0.0
O105 O 0.65299 0.93226 0.20537 0.0
O106 O 0.5979 0.94198 0.2437 0.0
O107 O 0.56145 0.89898 0.21855 0.0
H108 H 0.62665 0.89615 0.26108 0.0
H109 H 0.62874 0.85937 0.30136 0.0
H110 H 0.66703 0.82498 0.22521 0.0
H111 H 0.66476 0.86186 0.18495 0.0
H112 H 0.61073 0.96024 1.02817 0.0
H113 H 0.59276 0.93537 0.08256 0.0
H114 H 0.67457 0.04966 0.07589 0.0
H115 H 0.65597 0.02491 0.1304 0.0
H116 H 0.49459 0.95001 0.22494 0.0
H117 H 0.49649 0.91269 0.32232 0.0
H118 H 0.54171 0.90717 0.30502 0.0
H119 H 0.53968 0.94377 0.20766 0.0
C120 C 0.77678 0.63936 0.71941 0.0
C121 C 0.76734 0.62936 0.7524 0.0
C122 C 0.8211 0.64157 0.7667 0.0
C123 C 0.7893 0.63061 0.77584 0.0
C124 C 0.83047 0.65169 0.73361 0.0
C125 C 0.8085 0.65062 0.71022 0.0
U126 U 0.69116 0.60073 0.69204 0.0
O127 O 0.66298 0.61914 0.66757 0.0
O128 O 0.66792 0.58109 0.64382 0.0
C129 C 0.65705 0.60097 0.64111 0.0
C130 C 0.75329 0.63646 0.69424 0.0
C131 C 0.65937 0.61556 0.60783 0.0
C132 C 0.65246 0.65298 0.57307 0.0
C133 C 0.65589 0.64253 0.60458 0.0
C134 C 0.65693 0.61039 0.54721 0.0
C135 C 0.65219 0.6366 0.54398 0.0
C136 C 0.66036 0.59995 0.57868 0.0
C137 C 0.63129 0.53793 0.75321 0.0
C138 C 0.57675 0.49821 0.7401 0.0
C139 C 0.59741 0.50084 0.79574 0.0
C140 C 0.62662 0.52657 0.78602 0.0
C141 C 0.57228 0.48592 0.77274 0.0
C142 C 0.60603 0.52402 0.73041 0.0
C143 C 0.66328 0.56263 0.74289 0.0
O144 O 0.7387 0.60895 0.67871 0.0
O145 O 0.73385 0.64653 0.70359 0.0
O146 O 0.66845 0.59189 0.74154 0.0
O147 O 0.67538 0.55521 0.71747 0.0
H148 H 0.74283 0.62015 0.75993 0.0
H149 H 0.78115 0.62217 0.80092 0.0
H150 H 0.85481 0.66049 0.72581 0.0
H151 H 0.8162 0.65826 0.68484 0.0
H152 H 0.64923 0.67346 0.57156 0.0
H153 H 0.6546 0.65493 0.62645 0.0
H154 H 0.65636 0.59682 0.52552 0.0
H155 H 0.66237 0.57875 0.58018 0.0
H156 H 0.55777 0.48754 0.72189 0.0
H157 H 0.59503 0.49179 0.8209 0.0
H158 H 0.64593 0.53696 0.8039 0.0
H159 H 0.60924 0.53258 0.70495 0.0
C160 C 0.14716 0.76969 0.22117 0.0
C161 C 0.14815 0.76036 0.25411 0.0
C162 C 0.18961 0.81427 0.26805 0.0
C163 C 0.16903 0.78245 0.27735 0.0
C164 C 0.18846 0.82351 0.23501 0.0
C165 C 0.16738 0.80141 0.21181 0.0
U166 U 0.10007 0.68395 0.19432 0.0
O167 O 0.05309 0.65551 0.1707 0.0
O168 O 0.09573 0.66042 0.14613 0.0
C169 C 0.06493 0.64945 0.144 0.0
C170 C 0.12631 0.74607 0.19624 0.0
C171 C 0.05197 0.65145 0.11102 0.0
C172 C 0.05552 0.65257 0.05027 0.0
C173 C 0.06969 0.65636 0.08164 0.0
C174 C 1.00586 0.64001 0.07679 0.0
C175 C 0.02319 0.64355 0.0474 0.0
C176 C 0.02003 0.64377 0.10817 0.0
C177 C 0.10409 0.62457 0.25539 0.0
C178 C 0.08843 0.56973 0.24266 0.0
C179 C 0.10856 0.59115 0.2976 0.0
C180 C 0.1119 0.62031 0.28787 0.0
C181 C 0.09735 0.56566 0.27494 0.0
C182 C 0.09178 0.59898 0.23295 0.0
C183 C 0.11116 0.65647 0.24495 0.0
O184 O 0.13909 0.73148 0.18045 0.0
O185 O 0.09695 0.72661 0.20599 0.0
O186 O 0.08703 0.66158 0.24403 0.0
O187 O 0.13025 0.66839 0.21918 0.0
H188 H 0.13305 0.73586 0.26175 0.0
H189 H 0.16964 0.77439 0.30239 0.0
H190 H 0.20381 0.84786 0.22709 0.0
H191 H 0.16712 0.80902 0.18647 0.0
H192 H 0.06955 0.65508 1.02829 0.0
H193 H 0.09418 0.66177 0.08278 0.0
H194 H 0.98104 0.63346 0.07559 0.0
H195 H 1.00553 0.63941 0.13023 0.0
H196 H 0.07936 0.55048 0.22473 0.0
H197 H 0.11608 0.58908 0.32245 0.0
H198 H 0.12157 0.63988 0.30545 0.0
H199 H 0.08556 0.60187 0.20775 0.0
C200 C 0.38792 0.14134 0.72077 0.0
C201 C 0.39778 0.14228 0.7539 0.0
C202 C 0.38571 0.18415 0.76711 0.0
C203 C 0.39654 0.16334 0.77687 0.0
C204 C 0.37573 0.18301 0.7339 0.0
C205 C 0.37679 0.16177 0.71098 0.0
U206 U 0.42678 0.09424 0.69441 0.0
O207 O 0.40829 0.04718 0.67097 0.0
O208 O 0.44597 0.08978 0.64628 0.0
C209 C 0.42617 0.05895 0.64425 0.0
C210 C 0.39079 0.12037 0.69607 0.0
C211 C 0.41119 0.04589 0.61131 0.0
C212 C 0.4134 0.04941 0.55055 0.0
C213 C 0.42378 0.06364 0.58189 0.0
C214 C 0.37673 0.99964 0.57716 0.0
C215 C 0.3903 0.01699 0.54774 0.0
C216 C 0.38713 0.01386 0.60851 0.0
C217 C 0.49031 0.09859 0.75546 0.0
C218 C 0.52956 0.08304 0.74272 0.0
C219 C 0.5282 0.10309 0.79768 0.0
C220 C 0.50236 0.10639 0.78794 0.0
C221 C 0.54253 0.09194 0.77501 0.0
C222 C 0.50365 0.08635 0.73302 0.0
C223 C 0.46543 0.10559 0.74502 0.0
O224 O 0.41815 0.13314 0.68028 0.0
O225 O 0.38098 0.09109 0.70604 0.0
O226 O 0.4362 0.08142 0.74419 0.0
O227 O 0.47253 0.12459 0.71917 0.0
H228 H 0.40689 0.12702 0.76189 0.0
H229 H 0.40486 0.16391 0.80207 0.0
H230 H 0.36705 0.19853 0.72563 0.0
H231 H 0.36926 0.16155 0.68549 0.0
H232 H 0.42476 0.06347 0.52854 0.0
H233 H 0.4427 0.08821 0.58298 0.0
H234 H 0.35862 0.97475 0.57602 0.0
H235 H 0.37717 0.99935 0.6306 0.0
H236 H 0.53978 0.07401 0.72479 0.0
H237 H 0.53777 0.1106 0.82254 0.0
H238 H 0.49241 0.11601 0.80553 0.0
H239 H 0.49455 0.08013 0.70781 0.0
C240 C 0.6462 0.77121 0.33733 0.0
C241 C 0.6364 0.76218 0.30421 0.0
C242 C 0.64824 0.81602 0.29081 0.0
C243 C 0.63756 0.78439 0.28115 0.0
C244 C 0.65815 0.82496 0.32402 0.0
C245 C 0.65717 0.80276 0.34703 0.0
U246 U 0.60797 0.68531 0.36374 0.0
O247 O 0.62673 0.65709 0.38744 0.0
O248 O 0.58867 0.66157 0.41181 0.0
C249 C 0.60868 0.65082 0.41404 0.0
C250 C 0.64346 0.74748 0.36211 0.0
C251 C 0.6235 0.65284 0.44711 0.0
C252 C 0.6202 0.65284 0.50786 0.0
C253 C 0.60986 0.65663 0.47647 0.0
C254 C 0.6589 0.64251 0.48143 0.0
C255 C 0.64433 0.64494 0.51077 0.0
C256 C 0.64853 0.64628 0.45003 0.0
C257 C 0.54505 0.62576 0.30246 0.0
C258 C 0.50611 0.57085 0.31515 0.0
C259 C 0.50742 0.59218 0.26016 0.0
C260 C 0.53307 0.62141 0.26993 0.0
C261 C 0.49319 0.56669 0.28283 0.0
C262 C 0.53184 0.60017 0.3249 0.0
C263 C 0.56967 0.65773 0.31294 0.0
O264 O 0.61602 0.73266 0.37774 0.0
O265 O 0.6536 0.72823 0.3523 0.0
O266 O 0.59899 0.66308 0.31398 0.0
O267 O 0.56228 0.66951 0.33867 0.0
H268 H 0.62741 0.73782 0.2963 0.0
H269 H 0.6293 0.77656 0.25595 0.0
H270 H 0.66673 0.84917 0.33221 0.0
H271 H 0.66465 0.81015 0.37252 0.0
H272 H 0.60807 0.65446 0.52978 0.0
H273 H 0.59017 0.66114 0.47527 0.0
H274 H 0.6778 0.63684 0.48268 0.0
H275 H 0.65934 0.6428 0.428 0.0
H276 H 0.49598 0.5516 0.33309 0.0
H277 H 0.49787 0.59003 0.23527 0.0
H278 H 0.54293 0.64098 0.25234 0.0
H279 H 0.54089 0.60313 0.35013 0.0
C280 C 0.88607 0.63904 0.8386 0.0
C281 C 0.88574 0.6294 0.8055 0.0
C282 C 0.84409 0.64151 0.79134 0.0
C283 C 0.86509 0.63078 0.78207 0.0
C284 C 0.84461 0.65126 0.82453 0.0
C285 C 0.86545 0.65007 0.84792 0.0
U286 U 0.93316 0.6004 0.86563 0.0
O287 O 0.9796 0.61868 0.89038 0.0
O288 O 0.93653 0.58032 0.91367 0.0
C289 C 0.96724 0.60025 0.91663 0.0
C290 C 0.90658 0.63597 0.86375 0.0
C291 C 0.97924 0.61452 0.95009 0.0
C292 C 0.02287 0.65239 0.98528 0.0
C293 C 1.00918 0.64211 0.95366 0.0
C294 C 0.97661 0.60835 1.01061 0.0
C295 C 1.00709 0.63523 1.01414 0.0
C296 C 0.96294 0.59808 0.97904 0.0
C297 C 0.93081 0.53826 0.8039 0.0
C298 C 0.94661 0.49918 0.81664 0.0
C299 C 0.92715 0.5009 0.76146 0.0
C300 C 0.9235 0.52651 0.77127 0.0
C301 C 0.93816 0.48649 0.7842 0.0
C302 C 0.94295 0.52487 0.82642 0.0
C303 C 0.92337 0.56281 0.8144 0.0
O304 O 0.89366 0.60832 0.87899 0.0
O305 O 0.93615 0.64622 0.85453 0.0
O306 O 0.94738 0.59208 0.81608 0.0
O307 O 0.90369 0.5551 0.83971 0.0
H308 H 0.90116 0.62037 0.79788 0.0
H309 H 0.86498 0.62263 0.7569 0.0
H310 H 0.82893 0.65987 0.83243 0.0
H311 H 0.8652 0.65741 0.87338 0.0
H312 H 0.04621 0.67338 0.98703 0.0
H313 H 0.02264 0.65517 0.93195 0.0
H314 H 0.9639 0.59418 0.0321 0.0
H315 H 0.94014 0.5764 0.97727 0.0
H316 H 0.95552 0.48891 0.83464 0.0
H317 H 0.91999 0.49153 0.73648 0.0
H318 H 0.91398 0.53651 0.75361 0.0
H319 H 0.94878 0.53373 0.85174 0.0
C320 C 0.2575 0.87962 0.33942 0.0
C321 C 0.26656 0.87931 0.30621 0.0
C322 C 0.21279 0.8374 0.29249 0.0
C323 C 0.2444 0.85854 0.28295 0.0
C324 C 0.20381 0.83792 0.32579 0.0
C325 C 0.22596 0.85887 0.349 0.0
U326 U 0.34337 0.92682 0.36609 0.0
O327 O 0.37154 0.9733 0.39076 0.0
O328 O 0.36693 0.93027 0.41406 0.0
C329 C 0.37769 0.96098 0.417 0.0
C330 C 0.28121 0.90022 0.36442 0.0
C331 C 0.37544 0.97298 0.45047 0.0
C332 C 0.38092 0.01651 0.48564 0.0
C333 C 0.37751 1.00281 0.45404 0.0
C334 C 0.37926 0.9705 0.51096 0.0
C335 C 0.38257 1.00086 0.51449 0.0
C336 C 0.37587 0.95682 0.47941 0.0
C337 C 0.40304 0.92437 0.30429 0.0
C338 C 0.45784 0.93993 0.31701 0.0
C339 C 0.43672 0.92085 0.26173 0.0
C340 C 0.40749 0.91724 0.27158 0.0
C341 C 0.46209 0.93164 0.28449 0.0
C342 C 0.42853 0.9363 0.32684 0.0
C343 C 0.37106 0.91694 0.31483 0.0
O344 O 0.29599 0.88734 0.37963 0.0
O345 O 0.30049 0.92976 0.35507 0.0
O346 O 0.3658 0.94096 0.31649 0.0
O347 O 0.35913 0.8973 0.34017 0.0
H348 H 0.29092 0.89482 0.29838 0.0
H349 H 0.25226 0.85845 0.25769 0.0
H350 H 0.17961 0.82213 0.3339 0.0
H351 H 0.21855 0.8586 0.37455 0.0
H352 H 0.38303 0.03975 0.48739 0.0
H353 H 0.37768 0.01616 0.43233 0.0
H354 H 0.38093 0.9579 0.53245 0.0
H355 H 0.37497 0.93412 0.47764 0.0
H356 H 0.47701 0.94868 0.33503 0.0
H357 H 0.43893 0.91383 0.23668 0.0
H358 H 0.38799 0.90788 0.25391 0.0
H359 H 0.42549 0.942 0.35221 0.0
C360 C 0.38808 0.2527 0.83745 0.0
C361 C 0.39801 0.26157 0.80433 0.0
C362 C 0.38579 0.20757 0.79123 0.0
C363 C 0.39672 0.23921 0.78142 0.0
C364 C 0.3758 0.19879 0.82445 0.0
C365 C 0.3769 0.22116 0.84731 0.0
U366 U 0.42697 0.33872 0.86331 0.0
O367 O 0.40844 0.36756 0.88607 0.0
O368 O 0.44595 0.36274 0.91133 0.0
C369 C 0.42622 0.37387 0.9129 0.0
C370 C 0.3909 0.27662 0.86203 0.0
C371 C 0.41112 0.37239 0.94562 0.0
C372 C 0.41096 0.36838 1.00631 0.0
C373 C 0.42117 0.36416 0.97501 0.0
C374 C 0.37941 0.38792 0.97958 0.0
C375 C 0.3906 0.38113 1.00906 0.0
C376 C 0.38964 0.38373 0.94831 0.0
C377 C 0.49058 0.39739 0.80204 0.0
C378 C 0.5293 0.4525 0.81423 0.0
C379 C 0.52877 0.4304 0.75988 0.0
C380 C 0.50302 0.40128 0.76977 0.0
C381 C 0.54263 0.45623 0.78217 0.0
C382 C 0.50347 0.42329 0.82409 0.0
C383 C 0.46573 0.3656 0.8127 0.0
O384 O 0.41823 0.29126 0.8779 0.0
O385 O 0.38113 0.29607 0.85185 0.0
O386 O 0.43649 0.36051 0.81331 0.0
O387 O 0.47279 0.35394 0.83879 0.0
H388 H 0.40717 0.28593 0.79629 0.0
H389 H 0.40506 0.24691 0.75622 0.0
H390 H 0.36705 0.17458 0.83275 0.0
H391 H 0.36933 0.2139 0.8728 0.0
H392 H 0.42041 0.36322 1.0284 0.0
H393 H 0.43802 0.35574 0.974 0.0
H394 H 0.36338 0.39735 0.98066 0.0
H395 H 0.38169 0.39063 0.92623 0.0
H396 H 0.53915 0.47201 0.83186 0.0
H397 H 0.53865 0.43222 0.73522 0.0
H398 H 0.49342 0.38147 0.75249 0.0
H399 H 0.49406 0.42068 0.84913 0.0
C400 C 0.14945 0.38332 0.3381 0.0
C401 C 0.15001 0.39335 0.30512 0.0
C402 C 0.19153 0.38111 0.29078 0.0
C403 C 0.17071 0.39211 0.28167 0.0
C404 C 0.19077 0.37094 0.32385 0.0
C405 C 0.16989 0.37201 0.34726 0.0
U406 U 0.10236 0.42187 0.36526 0.0
O407 O 0.0559 0.40355 0.38997 0.0
O408 O 0.09896 0.44186 0.41334 0.0
C409 C 0.06824 0.42194 0.41626 0.0
C410 C 0.12892 0.38629 0.36328 0.0
C411 C 0.05619 0.40764 0.44969 0.0
C412 C 1.0124 0.36991 0.48481 0.0
C413 C 0.02614 0.38018 0.45321 0.0
C414 C 0.05884 0.41369 0.51022 0.0
C415 C 0.02826 0.38695 0.5137 0.0
C416 C 0.07255 0.42394 0.47867 0.0
C417 C 0.10479 0.48419 0.30374 0.0
C418 C 0.08904 0.52326 0.31666 0.0
C419 C 0.10846 0.52165 0.26143 0.0
C420 C 0.11209 0.49601 0.27113 0.0
C421 C 0.09748 0.53602 0.28425 0.0
C422 C 0.09269 0.49754 0.32634 0.0
C423 C 0.11222 0.4596 0.31414 0.0
O424 O 0.14182 0.41389 0.37862 0.0
O425 O 0.09936 0.37607 0.35403 0.0
O426 O 0.08819 0.43033 0.31574 0.0
O427 O 0.13188 0.46723 0.33947 0.0
H428 H 0.13474 0.40261 0.29762 0.0
H429 H 0.171 0.40058 0.25661 0.0
H430 H 0.20631 0.36212 0.33163 0.0
H431 H 0.16996 0.36436 0.37263 0.0
H432 H 0.98899 0.34903 0.48652 0.0
H433 H 1.01263 0.36722 0.43147 0.0
H434 H 0.07161 0.42776 0.53174 0.0
H435 H 0.09544 0.44552 0.47694 0.0
H436 H 0.08015 0.5335 0.33471 0.0
H437 H 0.1156 0.53108 0.23647 0.0
H438 H 0.1216 0.48604 0.25342 0.0
H439 H 0.08687 0.48862 0.35164 0.0
C440 C 0.77691 0.14339 0.83884 0.0
C441 C 0.76789 0.14371 0.80561 0.0
C442 C 0.82177 0.18536 0.79188 0.0
C443 C 0.79012 0.16436 0.78233 0.0
C444 C 0.83071 0.18483 0.82519 0.0
C445 C 0.80848 0.164 0.84842 0.0
U446 U 0.69101 0.0967 0.86558 0.0
O447 O 0.66265 0.05036 0.89045 0.0
O448 O 0.66758 0.09361 0.91355 0.0
C449 C 0.65664 0.06287 0.91662 0.0
C450 C 0.75314 0.12296 0.86386 0.0
C451 C 0.65883 0.05097 0.95016 0.0
C452 C 0.65421 1.0079 0.98554 0.0
C453 C 0.65763 0.02155 0.95389 0.0
C454 C 0.65409 0.05316 1.01056 0.0
C455 C 0.65169 0.0232 1.01424 0.0
C456 C 0.65749 0.06678 0.97897 0.0
C457 C 0.6314 0.09929 0.80386 0.0
C458 C 0.57658 0.08356 0.81674 0.0
C459 C 0.59767 0.1031 0.76156 0.0
C460 C 0.62692 0.10668 0.77127 0.0
C461 C 0.57229 0.09207 0.78434 0.0
C462 C 0.60592 0.08716 0.82643 0.0
C463 C 0.66338 0.10661 0.81428 0.0
O464 O 0.73851 0.13603 0.879 0.0
O465 O 0.73371 0.09342 0.85459 0.0
O466 O 0.66847 0.08249 0.81603 0.0
O467 O 0.67547 0.12635 0.83953 0.0
H468 H 0.7435 0.12831 0.79778 0.0
H469 H 0.7823 0.16447 0.75706 0.0
H470 H 0.85493 0.2005 0.8333 0.0
H471 H 0.81586 0.16426 0.87398 0.0
H472 H 0.65279 0.98497 0.98742 0.0
H473 H 0.65818 1.00846 0.93228 0.0
H474 H 0.65172 0.06546 0.03192 0.0
H475 H 0.65769 0.08913 0.97705 0.0
H476 H 0.55742 0.07464 0.83477 0.0
H477 H 0.59542 0.1103 0.73661 0.0
H478 H 0.64641 0.11621 0.75359 0.0
H479 H 0.60898 0.08127 0.85171 0.0
loop_
_geom_bond_atom_site_label_1
_geom_bond_atom_site_label_2
_geom_bond_distance
_geom_bond_site_symmetry_2
_ccdc_geom_bond_type
C0 C1 1.264 . S
C0 C5 1.479 . S
C0 C10 1.465 . S
C1 C0 1.264 . S
C1 C3 1.339 . S
C1 H28 0.931 . S
C2 C3 1.395 . S
C2 C4 1.320 . S
C3 C1 1.339 . S
C3 C2 1.395 . S
C3 H29 0.929 . S
C4 C2 1.320 . S
C4 C5 1.405 . S
C4 H30 0.930 . S
C5 C0 1.479 . S
C5 C4 1.405 . S
C5 H31 0.931 . S
U6 O7 2.454 . S
U6 O8 2.458 . S
U6 C9 2.984 . S
U6 C10 2.847 . S
U6 C23 2.882 . S
U6 O24 2.441 . S
U6 O25 2.420 . S
U6 O26 2.455 . S
U6 O27 2.449 . S
O7 U6 2.454 . S
O7 C9 1.353 . S
O8 U6 2.458 . S
O8 C9 1.286 . S
C9 U6 2.984 . S
C9 O7 1.353 . S
C9 O8 1.286 . S
C9 C11 1.363 . S
C10 C0 1.465 . S
C10 U6 2.847 . S
C10 O24 1.249 . S
C10 O25 1.202 . S
C11 C9 1.363 . S
C11 C13 1.408 . S
C11 C16 1.342 . S
C12 C13 1.310 . S
C12 C15 1.461 . S
C12 H32 0.932 . S
C13 C11 1.408 . S
C13 C12 1.310 . S
C13 H33 0.930 . S
C14 C15 1.474 . S
C14 C16 1.285 . S
C14 H34 0.929 . S
C15 C12 1.461 . S
C15 C14 1.474 . S
C16 C11 1.342 . S
C16 C14 1.285 . S
C16 H35 0.930 . S
C17 C20 1.424 . S
C17 C22 1.245 . S
C17 C23 1.428 . S
C18 C21 1.260 . S
C18 C22 1.477 . S
C18 H36 0.932 . S
C19 C20 1.384 . S
C19 C21 1.479 . S
C19 H37 0.929 . S
C20 C17 1.424 . S
C20 C19 1.384 . S
C20 H38 0.928 . S
C21 C18 1.260 . S
C21 C19 1.479 . S
C22 C17 1.245 . S
C22 C18 1.477 . S
C22 H39 0.932 . S
C23 U6 2.882 . S
C23 C17 1.428 . S
C23 O26 1.301 . S
C23 O27 1.282 . S
O24 U6 2.441 . S
O24 C10 1.249 . S
O25 U6 2.420 . S
O25 C10 1.202 . S
O26 U6 2.455 . S
O26 C23 1.301 . S
O27 U6 2.449 . S
O27 C23 1.282 . S
H28 C1 0.931 . S
H29 C3 0.929 . S
H30 C4 0.930 . S
H31 C5 0.931 . S
H32 C12 0.932 . S
H33 C13 0.930 . S
H34 C14 0.929 . S
H35 C16 0.930 . S
H36 C18 0.932 . S
H37 C19 0.929 . S
H38 C20 0.928 . S
H39 C22 0.932 . S
C40 C41 1.264 . S
C40 C45 1.479 . S
C40 C50 1.465 . S
C41 C40 1.264 . S
C41 C43 1.339 . S
C41 H68 0.931 . S
C42 C43 1.395 . S
C42 C44 1.320 . S
C43 C41 1.339 . S
C43 C42 1.395 . S
C43 H69 0.929 . S
C44 C42 1.320 . S
C44 C45 1.405 . S
C44 H70 0.930 . S
C45 C40 1.479 . S
C45 C44 1.405 . S
C45 H71 0.931 . S
U46 O47 2.454 . S
U46 O48 2.458 1_655 S
U46 C49 2.984 . S
U46 C50 2.847 . S
U46 C63 2.882 . S
U46 O64 2.441 . S
U46 O65 2.420 . S
U46 O66 2.455 1_655 S
U46 O67 2.449 . S
O47 U46 2.454 . S
O47 C49 1.353 . S
O48 U46 2.458 1_455 S
O48 C49 1.286 1_455 S
C49 U46 2.984 . S
C49 O47 1.353 . S
C49 O48 1.286 1_655 S
C49 C51 1.363 1_655 S
C50 C40 1.465 . S
C50 U46 2.847 . S
C50 O64 1.249 . S
C50 O65 1.202 . S
C51 C49 1.363 1_455 S
C51 C53 1.408 1_455 S
C51 C56 1.342 . S
C52 C53 1.310 1_455 S
C52 C55 1.461 . S
C52 H72 0.932 . S
C53 C51 1.408 1_655 S
C53 C52 1.310 1_655 S
C53 H73 0.930 . S
C54 C55 1.474 . S
C54 C56 1.285 . S
C54 H74 0.929 . S
C55 C52 1.461 . S
C55 C54 1.474 . S
C56 C51 1.342 . S
C56 C54 1.285 . S
C56 H75 0.930 . S
C57 C60 1.442 . S
C57 C62 1.243 1_655 S
C57 C63 1.418 . S
C58 C61 1.260 . S
C58 C62 1.477 . S
C58 H76 0.932 . S
C59 C60 1.384 . S
C59 C61 1.479 1_655 S
C59 H77 0.929 . S
C60 C57 1.442 . S
C60 C59 1.384 . S
C60 H78 0.928 . S
C61 C58 1.260 . S
C61 C59 1.479 1_455 S
C62 C57 1.243 1_455 S
C62 C58 1.477 . S
C62 H79 0.932 . S
C63 U46 2.882 . S
C63 C57 1.418 . S
C63 O66 1.301 1_655 S
C63 O67 1.282 . S
O64 U46 2.441 . S
O64 C50 1.249 . S
O65 U46 2.420 . S
O65 C50 1.202 . S
O66 U46 2.455 1_455 S
O66 C63 1.301 1_455 S
O67 U46 2.449 . S
O67 C63 1.282 . S
H68 C41 0.931 . S
H69 C43 0.929 . S
H70 C44 0.930 . S
H71 C45 0.931 . S
H72 C52 0.932 . S
H73 C53 0.930 . S
H74 C54 0.929 . S
H75 C56 0.930 . S
H76 C58 0.932 . S
H77 C59 0.929 . S
H78 C60 0.928 . S
H79 C62 0.932 . S
C80 C81 1.264 . S
C80 C85 1.479 . S
C80 C90 1.465 . S
C81 C80 1.264 . S
C81 C83 1.339 . S
C81 H108 0.931 . S
C82 C83 1.395 . S
C82 C84 1.320 . S
C83 C81 1.339 . S
C83 C82 1.395 . S
C83 H109 0.929 . S
C84 C82 1.320 . S
C84 C85 1.405 . S
C84 H110 0.930 . S
C85 C80 1.479 . S
C85 C84 1.405 . S
C85 H111 0.931 . S
U86 O87 2.454 . S
U86 O88 2.458 1_565 S
U86 C89 2.984 . S
U86 C90 2.847 . S
U86 C103 2.882 . S
U86 O104 2.441 . S
U86 O105 2.420 . S
U86 O106 2.455 1_565 S
U86 O107 2.449 . S
O87 U86 2.454 . S
O87 C89 1.353 . S
O88 U86 2.458 1_545 S
O88 C89 1.286 1_545 S
C89 U86 2.984 . S
C89 O87 1.353 . S
C89 O88 1.286 1_565 S
C89 C91 1.363 1_565 S
C90 C80 1.465 . S
C90 U86 2.847 . S
C90 O104 1.249 . S
C90 O105 1.202 . S
C91 C89 1.363 1_545 S
C91 C93 1.407 1_545 S
C91 C96 1.342 . S
C92 C93 1.310 1_545 S
C92 C95 1.461 . S
C92 H112 0.932 . S
C93 C91 1.407 1_565 S
C93 C92 1.310 1_565 S
C93 H113 0.931 . S
C94 C95 1.474 . S
C94 C96 1.285 . S
C94 H114 0.929 . S
C95 C92 1.461 . S
C95 C94 1.474 . S
C96 C91 1.342 . S
C96 C94 1.285 . S
C96 H115 0.930 . S
C97 C100 1.436 . S
C97 C102 1.219 1_565 S
C97 C103 1.446 . S
C98 C101 1.260 . S
C98 C102 1.477 . S
C98 H116 0.932 . S
C99 C100 1.384 . S
C99 C101 1.479 1_565 S
C99 H117 0.929 . S
C100 C97 1.436 . S
C100 C99 1.384 . S
C100 H118 0.928 . S
C101 C98 1.260 . S
C101 C99 1.479 1_545 S
C102 C97 1.219 1_545 S
C102 C98 1.477 . S
C102 H119 0.932 . S
C103 U86 2.882 . S
C103 C97 1.446 . S
C103 O106 1.301 1_565 S
C103 O107 1.282 . S
O104 U86 2.441 . S
O104 C90 1.249 . S
O105 U86 2.420 . S
O105 C90 1.202 . S
O106 U86 2.455 1_545 S
O106 C103 1.301 1_545 S
O107 U86 2.449 . S
O107 C103 1.282 . S
H108 C81 0.931 . S
H109 C83 0.929 . S
H110 C84 0.930 . S
H111 C85 0.931 . S
H112 C92 0.932 . S
H113 C93 0.931 . S
H114 C94 0.929 . S
H115 C96 0.930 . S
H116 C98 0.932 . S
H117 C99 0.929 . S
H118 C100 0.928 . S
H119 C102 0.932 . S
C120 C121 1.264 . S
C120 C125 1.479 . S
C120 C130 1.465 . S
C121 C120 1.264 . S
C121 C123 1.339 . S
C121 H148 0.931 . S
C122 C123 1.395 . S
C122 C124 1.320 . S
C123 C121 1.339 . S
C123 C122 1.395 . S
C123 H149 0.929 . S
C124 C122 1.320 . S
C124 C125 1.405 . S
C124 H150 0.930 . S
C125 C120 1.479 . S
C125 C124 1.405 . S
C125 H151 0.931 . S
U126 O127 2.454 . S
U126 O128 2.458 . S
U126 C129 2.984 . S
U126 C130 2.847 . S
U126 C143 2.882 . S
U126 O144 2.441 . S
U126 O145 2.420 . S
U126 O146 2.455 . S
U126 O147 2.449 . S
O127 U126 2.454 . S
O127 C129 1.353 . S
O128 U126 2.458 . S
O128 C129 1.286 . S
C129 U126 2.984 . S
C129 O127 1.353 . S
C129 O128 1.286 . S
C129 C131 1.363 . S
C130 C120 1.465 . S
C130 U126 2.847 . S
C130 O144 1.249 . S
C130 O145 1.202 . S
C131 C129 1.363 . S
C131 C133 1.408 . S
C131 C136 1.342 . S
C132 C133 1.310 . S
C132 C135 1.461 . S
C132 H152 0.932 . S
C133 C131 1.408 . S
C133 C132 1.310 . S
C133 H153 0.930 . S
C134 C135 1.474 . S
C134 C136 1.285 . S
C134 H154 0.929 . S
C135 C132 1.461 . S
C135 C134 1.474 . S
C136 C131 1.342 . S
C136 C134 1.285 . S
C136 H155 0.930 . S
C137 C140 1.424 . S
C137 C142 1.245 . S
C137 C143 1.428 . S
C138 C141 1.260 . S
C138 C142 1.477 . S
C138 H156 0.932 . S
C139 C140 1.384 . S
C139 C141 1.479 . S
C139 H157 0.929 . S
C140 C137 1.424 . S
C140 C139 1.384 . S
C140 H158 0.928 . S
C141 C138 1.260 . S
C141 C139 1.479 . S
C142 C137 1.245 . S
C142 C138 1.477 . S
C142 H159 0.932 . S
C143 U126 2.882 . S
C143 C137 1.428 . S
C143 O146 1.301 . S
C143 O147 1.282 . S
O144 U126 2.441 . S
O144 C130 1.249 . S
O145 U126 2.420 . S
O145 C130 1.202 . S
O146 U126 2.455 . S
O146 C143 1.301 . S
O147 U126 2.449 . S
O147 C143 1.282 . S
H148 C121 0.931 . S
H149 C123 0.929 . S
H150 C124 0.930 . S
H151 C125 0.931 . S
H152 C132 0.932 . S
H153 C133 0.930 . S
H154 C134 0.929 . S
H155 C136 0.930 . S
H156 C138 0.932 . S
H157 C139 0.929 . S
H158 C140 0.928 . S
H159 C142 0.932 . S
C160 C161 1.264 . S
C160 C165 1.479 . S
C160 C170 1.465 . S
C161 C160 1.264 . S
C161 C163 1.339 . S
C161 H188 0.931 . S
C162 C163 1.395 . S
C162 C164 1.320 . S
C163 C161 1.339 . S
C163 C162 1.395 . S
C163 H189 0.929 . S
C164 C162 1.320 . S
C164 C165 1.405 . S
C164 H190 0.930 . S
C165 C160 1.479 . S
C165 C164 1.405 . S
C165 H191 0.931 . S
U166 O167 2.454 . S
U166 O168 2.458 1_455 S
U166 C169 2.984 . S
U166 C170 2.847 . S
U166 C183 2.882 . S
U166 O184 2.441 . S
U166 O185 2.420 . S
U166 O186 2.455 1_455 S
U166 O187 2.449 . S
O167 U166 2.454 . S
O167 C169 1.353 . S
O168 U166 2.458 1_655 S
O168 C169 1.286 1_655 S
C169 U166 2.984 . S
C169 O167 1.353 . S
C169 O168 1.286 1_455 S
C169 C171 1.363 1_455 S
C170 C160 1.465 . S
C170 U166 2.847 . S
C170 O184 1.249 . S
C170 O185 1.202 . S
C171 C169 1.363 1_655 S
C171 C173 1.408 1_655 S
C171 C176 1.342 . S
C172 C173 1.310 1_655 S
C172 C175 1.461 . S
C172 H192 0.932 . S
C173 C171 1.408 1_455 S
C173 C172 1.310 1_455 S
C173 H193 0.930 . S
C174 C175 1.474 . S
C174 C176 1.285 . S
C174 H194 0.929 . S
C175 C172 1.461 . S
C175 C174 1.474 . S
C176 C171 1.342 . S
C176 C174 1.285 . S
C176 H195 0.930 . S
C177 C180 1.442 . S
C177 C182 1.243 1_455 S
C177 C183 1.418 . S
C178 C181 1.260 . S
C178 C182 1.477 . S
C178 H196 0.932 . S
C179 C180 1.384 . S
C179 C181 1.479 1_455 S
C179 H197 0.929 . S
C180 C177 1.442 . S
C180 C179 1.384 . S
C180 H198 0.928 . S
C181 C178 1.260 . S
C181 C179 1.479 1_655 S
C182 C177 1.243 1_655 S
C182 C178 1.477 . S
C182 H199 0.932 . S
C183 U166 2.882 . S
C183 C177 1.418 . S
C183 O186 1.301 1_455 S
C183 O187 1.282 . S
O184 U166 2.441 . S
O184 C170 1.249 . S
O185 U166 2.420 . S
O185 C170 1.202 . S
O186 U166 2.455 1_655 S
O186 C183 1.301 1_655 S
O187 U166 2.449 . S
O187 C183 1.282 . S
H188 C161 0.931 . S
H189 C163 0.929 . S
H190 C164 0.930 . S
H191 C165 0.931 . S
H192 C172 0.932 . S
H193 C173 0.930 . S
H194 C174 0.929 . S
H195 C176 0.930 . S
H196 C178 0.932 . S
H197 C179 0.929 . S
H198 C180 0.928 . S
H199 C182 0.932 . S
C200 C201 1.264 . S
C200 C205 1.479 . S
C200 C210 1.465 . S
C201 C200 1.264 . S
C201 C203 1.339 . S
C201 H228 0.931 . S
C202 C203 1.395 . S
C202 C204 1.320 . S
C203 C201 1.339 . S
C203 C202 1.395 . S
C203 H229 0.929 . S
C204 C202 1.320 . S
C204 C205 1.405 . S
C204 H230 0.930 . S
C205 C200 1.479 . S
C205 C204 1.405 . S
C205 H231 0.931 . S
U206 O207 2.454 . S
U206 O208 2.458 1_545 S
U206 C209 2.984 . S
U206 C210 2.847 . S
U206 C223 2.882 . S
U206 O224 2.441 . S
U206 O225 2.420 . S
U206 O226 2.455 1_545 S
U206 O227 2.449 . S
O207 U206 2.454 . S
O207 C209 1.353 . S
O208 U206 2.458 1_565 S
O208 C209 1.286 1_565 S
C209 U206 2.984 . S
C209 O207 1.353 . S
C209 O208 1.286 1_545 S
C209 C211 1.363 1_545 S
C210 C200 1.465 . S
C210 U206 2.847 . S
C210 O224 1.249 . S
C210 O225 1.202 . S
C211 C209 1.363 1_565 S
C211 C213 1.407 1_565 S
C211 C216 1.342 . S
C212 C213 1.310 1_565 S
C212 C215 1.461 . S
C212 H232 0.932 . S
C213 C211 1.407 1_545 S
C213 C212 1.310 1_545 S
C213 H233 0.930 . S
C214 C215 1.474 . S
C214 C216 1.285 . S
C214 H234 0.929 . S
C215 C212 1.461 . S
C215 C214 1.474 . S
C216 C211 1.342 . S
C216 C214 1.285 . S
C216 H235 0.930 . S
C217 C220 1.436 . S
C217 C222 1.220 1_545 S
C217 C223 1.446 . S
C218 C221 1.260 . S
C218 C222 1.477 . S
C218 H236 0.932 . S
C219 C220 1.384 . S
C219 C221 1.479 1_545 S
C219 H237 0.929 . S
C220 C217 1.436 . S
C220 C219 1.384 . S
C220 H238 0.928 . S
C221 C218 1.260 . S
C221 C219 1.479 1_565 S
C222 C217 1.220 1_565 S
C222 C218 1.477 . S
C222 H239 0.932 . S
C223 U206 2.882 . S
C223 C217 1.446 . S
C223 O226 1.301 1_545 S
C223 O227 1.282 . S
O224 U206 2.441 . S
O224 C210 1.249 . S
O225 U206 2.420 . S
O225 C210 1.202 . S
O226 U206 2.455 1_565 S
O226 C223 1.301 1_565 S
O227 U206 2.449 . S
O227 C223 1.282 . S
H228 C201 0.931 . S
H229 C203 0.929 . S
H230 C204 0.930 . S
H231 C205 0.931 . S
H232 C212 0.932 . S
H233 C213 0.930 . S
H234 C214 0.929 . S
H235 C216 0.930 . S
H236 C218 0.932 . S
H237 C219 0.929 . S
H238 C220 0.928 . S
H239 C222 0.932 . S
C240 C241 1.264 . S
C240 C245 1.479 . S
C240 C250 1.465 . S
C241 C240 1.264 . S
C241 C243 1.339 . S
C241 H268 0.931 . S
C242 C243 1.395 . S
C242 C244 1.320 . S
C243 C241 1.339 . S
C243 C242 1.395 . S
C243 H269 0.929 . S
C244 C242 1.320 . S
C244 C245 1.405 . S
C244 H270 0.930 . S
C245 C240 1.479 . S
C245 C244 1.405 . S
C245 H271 0.931 . S
U246 O247 2.454 . S
U246 O248 2.458 . S
U246 C249 2.984 . S
U246 C250 2.847 . S
U246 C263 2.882 . S
U246 O264 2.441 . S
U246 O265 2.420 . S
U246 O266 2.455 . S
U246 O267 2.449 . S
O247 U246 2.454 . S
O247 C249 1.353 . S
O248 U246 2.458 . S
O248 C249 1.286 . S
C249 U246 2.984 . S
C249 O247 1.353 . S
C249 O248 1.286 . S
C249 C251 1.363 . S
C250 C240 1.465 . S
C250 U246 2.847 . S
C250 O264 1.249 . S
C250 O265 1.202 . S
C251 C249 1.363 . S
C251 C253 1.408 . S
C251 C256 1.342 . S
C252 C253 1.310 . S
C252 C255 1.461 . S
C252 H272 0.932 . S
C253 C251 1.408 . S
C253 C252 1.310 . S
C253 H273 0.930 . S
C254 C255 1.474 . S
C254 C256 1.285 . S
C254 H274 0.929 . S
C255 C252 1.461 . S
C255 C254 1.474 . S
C256 C251 1.342 . S
C256 C254 1.285 . S
C256 H275 0.930 . S
C257 C260 1.424 . S
C257 C262 1.245 . S
C257 C263 1.428 . S
C258 C261 1.260 . S
C258 C262 1.477 . S
C258 H276 0.932 . S
C259 C260 1.384 . S
C259 C261 1.479 . S
C259 H277 0.929 . S
C260 C257 1.424 . S
C260 C259 1.384 . S
C260 H278 0.928 . S
C261 C258 1.260 . S
C261 C259 1.479 . S
C262 C257 1.245 . S
C262 C258 1.477 . S
C262 H279 0.932 . S
C263 U246 2.882 . S
C263 C257 1.428 . S
C263 O266 1.301 . S
C263 O267 1.282 . S
O264 U246 2.441 . S
O264 C250 1.249 . S
O265 U246 2.420 . S
O265 C250 1.202 . S
O266 U246 2.455 . S
O266 C263 1.301 . S
O267 U246 2.449 . S
O267 C263 1.282 . S
H268 C241 0.931 . S
H269 C243 0.929 . S
H270 C244 0.930 . S
H271 C245 0.931 . S
H272 C252 0.932 . S
H273 C253 0.930 . S
H274 C254 0.929 . S
H275 C256 0.930 . S
H276 C258 0.932 . S
H277 C259 0.929 . S
H278 C260 0.928 . S
H279 C262 0.932 . S
C280 C281 1.264 . S
C280 C285 1.479 . S
C280 C290 1.465 . S
C281 C280 1.264 . S
C281 C283 1.339 . S
C281 H308 0.931 . S
C282 C283 1.395 . S
C282 C284 1.320 . S
C283 C281 1.339 . S
C283 C282 1.395 . S
C283 H309 0.929 . S
C284 C282 1.320 . S
C284 C285 1.405 . S
C284 H310 0.930 . S
C285 C280 1.479 . S
C285 C284 1.405 . S
C285 H311 0.931 . S
U286 O287 2.454 . S
U286 O288 2.458 1_655 S
U286 C289 2.984 . S
U286 C290 2.847 . S
U286 C303 2.882 . S
U286 O304 2.441 . S
U286 O305 2.420 . S
U286 O306 2.455 1_655 S
U286 O307 2.449 . S
O287 U286 2.454 . S
O287 C289 1.353 . S
O288 U286 2.458 1_455 S
O288 C289 1.286 1_455 S
C289 U286 2.984 . S
C289 O287 1.353 . S
C289 O288 1.286 1_655 S
C289 C291 1.363 1_655 S
C290 C280 1.465 . S
C290 U286 2.847 . S
C290 O304 1.249 . S
C290 O305 1.202 . S
C291 C289 1.363 1_455 S
C291 C293 1.407 1_455 S
C291 C296 1.342 . S
C292 C293 1.310 1_455 S
C292 C295 1.461 . S
C292 H312 0.932 . S
C293 C291 1.407 1_655 S
C293 C292 1.310 1_655 S
C293 H313 0.930 . S
C294 C295 1.474 . S
C294 C296 1.285 . S
C294 H314 0.929 . S
C295 C292 1.461 . S
C295 C294 1.474 . S
C296 C291 1.342 . S
C296 C294 1.285 . S
C296 H315 0.930 . S
C297 C300 1.436 . S
C297 C302 1.220 1_655 S
C297 C303 1.446 . S
C298 C301 1.260 . S
C298 C302 1.477 . S
C298 H316 0.932 . S
C299 C300 1.384 . S
C299 C301 1.479 1_655 S
C299 H317 0.929 . S
C300 C297 1.436 . S
C300 C299 1.384 . S
C300 H318 0.928 . S
C301 C298 1.260 . S
C301 C299 1.479 1_455 S
C302 C297 1.220 1_455 S
C302 C298 1.477 . S
C302 H319 0.932 . S
C303 U286 2.882 . S
C303 C297 1.446 . S
C303 O306 1.301 1_655 S
C303 O307 1.282 . S
O304 U286 2.441 . S
O304 C290 1.249 . S
O305 U286 2.420 . S
O305 C290 1.202 . S
O306 U286 2.455 1_455 S
O306 C303 1.301 1_455 S
O307 U286 2.449 . S
O307 C303 1.282 . S
H308 C281 0.931 . S
H309 C283 0.929 . S
H310 C284 0.930 . S
H311 C285 0.931 . S
H312 C292 0.932 . S
H313 C293 0.930 . S
H314 C294 0.929 . S
H315 C296 0.930 . S
H316 C298 0.932 . S
H317 C299 0.929 . S
H318 C300 0.928 . S
H319 C302 0.932 . S
C320 C321 1.264 . S
C320 C325 1.479 . S
C320 C330 1.465 . S
C321 C320 1.264 . S
C321 C323 1.339 . S
C321 H348 0.931 . S
C322 C323 1.395 . S
C322 C324 1.320 . S
C323 C321 1.339 . S
C323 C322 1.395 . S
C323 H349 0.929 . S
C324 C322 1.320 . S
C324 C325 1.405 . S
C324 H350 0.930 . S
C325 C320 1.479 . S
C325 C324 1.405 . S
C325 H351 0.931 . S
U326 O327 2.454 . S
U326 O328 2.458 1_565 S
U326 C329 2.984 . S
U326 C330 2.847 . S
U326 C343 2.882 . S
U326 O344 2.441 . S
U326 O345 2.420 . S
U326 O346 2.455 1_565 S
U326 O347 2.449 . S
O327 U326 2.454 . S
O327 C329 1.353 . S
O328 U326 2.458 1_545 S
O328 C329 1.286 1_545 S
C329 U326 2.984 . S
C329 O327 1.353 . S
C329 O328 1.286 1_565 S
C329 C331 1.363 1_565 S
C330 C320 1.465 . S
C330 U326 2.847 . S
C330 O344 1.249 . S
C330 O345 1.202 . S
C331 C329 1.363 1_545 S
C331 C333 1.408 1_545 S
C331 C336 1.342 . S
C332 C333 1.310 1_545 S
C332 C335 1.461 . S
C332 H352 0.932 . S
C333 C331 1.408 1_565 S
C333 C332 1.310 1_565 S
C333 H353 0.930 . S
C334 C335 1.474 . S
C334 C336 1.285 . S
C334 H354 0.929 . S
C335 C332 1.461 . S
C335 C334 1.474 . S
C336 C331 1.342 . S
C336 C334 1.285 . S
C336 H355 0.930 . S
C337 C340 1.442 . S
C337 C342 1.243 1_565 S
C337 C343 1.418 . S
C338 C341 1.260 . S
C338 C342 1.477 . S
C338 H356 0.932 . S
C339 C340 1.384 . S
C339 C341 1.479 1_565 S
C339 H357 0.929 . S
C340 C337 1.442 . S
C340 C339 1.384 . S
C340 H358 0.928 . S
C341 C338 1.260 . S
C341 C339 1.479 1_545 S
C342 C337 1.243 1_545 S
C342 C338 1.477 . S
C342 H359 0.932 . S
C343 U326 2.882 . S
C343 C337 1.418 . S
C343 O346 1.301 1_565 S
C343 O347 1.282 . S
O344 U326 2.441 . S
O344 C330 1.249 . S
O345 U326 2.420 . S
O345 C330 1.202 . S
O346 U326 2.455 1_545 S
O346 C343 1.301 1_545 S
O347 U326 2.449 . S
O347 C343 1.282 . S
H348 C321 0.931 . S
H349 C323 0.929 . S
H350 C324 0.930 . S
H351 C325 0.931 . S
H352 C332 0.932 . S
H353 C333 0.930 . S
H354 C334 0.929 . S
H355 C336 0.930 . S
H356 C338 0.932 . S
H357 C339 0.929 . S
H358 C340 0.928 . S
H359 C342 0.932 . S
C360 C361 1.264 . S
C360 C365 1.479 . S
C360 C370 1.465 . S
C361 C360 1.264 . S
C361 C363 1.339 . S
C361 H388 0.931 . S
C362 C363 1.395 . S
C362 C364 1.320 . S
C363 C361 1.339 . S
C363 C362 1.395 . S
C363 H389 0.929 . S
C364 C362 1.320 . S
C364 C365 1.405 . S
C364 H390 0.930 . S
C365 C360 1.479 . S
C365 C364 1.405 . S
C365 H391 0.931 . S
U366 O367 2.454 . S
U366 O368 2.458 . S
U366 C369 2.984 . S
U366 C370 2.847 . S
U366 C383 2.882 . S
U366 O384 2.441 . S
U366 O385 2.420 . S
U366 O386 2.455 . S
U366 O387 2.449 . S
O367 U366 2.454 . S
O367 C369 1.353 . S
O368 U366 2.458 . S
O368 C369 1.286 . S
C369 U366 2.984 . S
C369 O367 1.353 . S
C369 O368 1.286 . S
C369 C371 1.363 . S
C370 C360 1.465 . S
C370 U366 2.847 . S
C370 O384 1.249 . S
C370 O385 1.202 . S
C371 C369 1.363 . S
C371 C373 1.408 . S
C371 C376 1.342 . S
C372 C373 1.310 . S
C372 C375 1.461 . S
C372 H392 0.932 . S
C373 C371 1.408 . S
C373 C372 1.310 . S
C373 H393 0.930 . S
C374 C375 1.474 . S
C374 C376 1.285 . S
C374 H394 0.929 . S
C375 C372 1.461 . S
C375 C374 1.474 . S
C376 C371 1.342 . S
C376 C374 1.285 . S
C376 H395 0.930 . S
C377 C380 1.424 . S
C377 C382 1.245 . S
C377 C383 1.428 . S
C378 C381 1.260 . S
C378 C382 1.477 . S
C378 H396 0.932 . S
C379 C380 1.384 . S
C379 C381 1.479 . S
C379 H397 0.929 . S
C380 C377 1.424 . S
C380 C379 1.384 . S
C380 H398 0.928 . S
C381 C378 1.260 . S
C381 C379 1.479 . S
C382 C377 1.245 . S
C382 C378 1.477 . S
C382 H399 0.932 . S
C383 U366 2.882 . S
C383 C377 1.428 . S
C383 O386 1.301 . S
C383 O387 1.282 . S
O384 U366 2.441 . S
O384 C370 1.249 . S
O385 U366 2.420 . S
O385 C370 1.202 . S
O386 U366 2.455 . S
O386 C383 1.301 . S
O387 U366 2.449 . S
O387 C383 1.282 . S
H388 C361 0.931 . S
H389 C363 0.929 . S
H390 C364 0.930 . S
H391 C365 0.931 . S
H392 C372 0.932 . S
H393 C373 0.930 . S
H394 C374 0.929 . S
H395 C376 0.930 . S
H396 C378 0.932 . S
H397 C379 0.929 . S
H398 C380 0.928 . S
H399 C382 0.932 . S
C400 C401 1.264 . S
C400 C405 1.479 . S
C400 C410 1.465 . S
C401 C400 1.264 . S
C401 C403 1.339 . S
C401 H428 0.931 . S
C402 C403 1.395 . S
C402 C404 1.320 . S
C403 C401 1.339 . S
C403 C402 1.395 . S
C403 H429 0.929 . S
C404 C402 1.320 . S
C404 C405 1.405 . S
C404 H430 0.930 . S
C405 C400 1.479 . S
C405 C404 1.405 . S
C405 H431 0.931 . S
U406 O407 2.454 . S
U406 O408 2.458 1_455 S
U406 C409 2.984 . S
U406 C410 2.847 . S
U406 C423 2.882 . S
U406 O424 2.441 . S
U406 O425 2.420 . S
U406 O426 2.455 1_455 S
U406 O427 2.449 . S
O407 U406 2.454 . S
O407 C409 1.353 . S
O408 U406 2.458 1_655 S
O408 C409 1.286 1_655 S
C409 U406 2.984 . S
C409 O407 1.353 . S
C409 O408 1.286 1_455 S
C409 C411 1.363 1_455 S
C410 C400 1.465 . S
C410 U406 2.847 . S
C410 O424 1.249 . S
C410 O425 1.202 . S
C411 C409 1.363 1_655 S
C411 C413 1.407 1_655 S
C411 C416 1.342 . S
C412 C413 1.310 1_655 S
C412 C415 1.461 . S
C412 H432 0.932 . S
C413 C411 1.407 1_455 S
C413 C412 1.310 1_455 S
C413 H433 0.931 . S
C414 C415 1.474 . S
C414 C416 1.285 . S
C414 H434 0.929 . S
C415 C412 1.461 . S
C415 C414 1.474 . S
C416 C411 1.342 . S
C416 C414 1.285 . S
C416 H435 0.930 . S
C417 C420 1.436 . S
C417 C422 1.220 1_455 S
C417 C423 1.446 . S
C418 C421 1.260 . S
C418 C422 1.477 . S
C418 H436 0.932 . S
C419 C420 1.384 . S
C419 C421 1.479 1_455 S
C419 H437 0.929 . S
C420 C417 1.436 . S
C420 C419 1.384 . S
C420 H438 0.928 . S
C421 C418 1.260 . S
C421 C419 1.479 1_655 S
C422 C417 1.220 1_655 S
C422 C418 1.477 . S
C422 H439 0.932 . S
C423 U406 2.882 . S
C423 C417 1.446 . S
C423 O426 1.301 1_455 S
C423 O427 1.282 . S
O424 U406 2.441 . S
O424 C410 1.249 . S
O425 U406 2.420 . S
O425 C410 1.202 . S
O426 U406 2.455 1_655 S
O426 C423 1.301 1_655 S
O427 U406 2.449 . S
O427 C423 1.282 . S
H428 C401 0.931 . S
H429 C403 0.929 . S
H430 C404 0.930 . S
H431 C405 0.931 . S
H432 C412 0.932 . S
H433 C413 0.931 . S
H434 C414 0.929 . S
H435 C416 0.930 . S
H436 C418 0.932 . S
H437 C419 0.929 . S
H438 C420 0.928 . S
H439 C422 0.932 . S
C440 C441 1.264 . S
C440 C445 1.479 . S
C440 C450 1.465 . S
C441 C440 1.264 . S
C441 C443 1.339 . S
C441 H468 0.931 . S
C442 C443 1.395 . S
C442 C444 1.320 . S
C443 C441 1.339 . S
C443 C442 1.395 . S
C443 H469 0.929 . S
C444 C442 1.320 . S
C444 C445 1.405 . S
C444 H470 0.930 . S
C445 C440 1.479 . S
C445 C444 1.405 . S
C445 H471 0.931 . S
U446 O447 2.454 . S
U446 O448 2.458 1_545 S
U446 C449 2.984 . S
U446 C450 2.847 . S
U446 C463 2.882 . S
U446 O464 2.441 . S
U446 O465 2.420 . S
U446 O466 2.455 1_545 S
U446 O467 2.449 . S
O447 U446 2.454 . S
O447 C449 1.353 . S
O448 U446 2.458 1_565 S
O448 C449 1.286 1_565 S
C449 U446 2.984 . S
C449 O447 1.353 . S
C449 O448 1.286 1_545 S
C449 C451 1.363 1_545 S
C450 C440 1.465 . S
C450 U446 2.847 . S
C450 O464 1.249 . S
C450 O465 1.202 . S
C451 C449 1.363 1_565 S
C451 C453 1.408 1_565 S
C451 C456 1.342 . S
C452 C453 1.310 1_565 S
C452 C455 1.461 . S
C452 H472 0.932 . S
C453 C451 1.408 1_545 S
C453 C452 1.310 1_545 S
C453 H473 0.930 . S
C454 C455 1.474 . S
C454 C456 1.285 . S
C454 H474 0.929 . S
C455 C452 1.461 . S
C455 C454 1.474 . S
C456 C451 1.342 . S
C456 C454 1.285 . S
C456 H475 0.930 . S
C457 C460 1.442 . S
C457 C462 1.243 1_545 S
C457 C463 1.418 . S
C458 C461 1.260 . S
C458 C462 1.477 . S
C458 H476 0.932 . S
C459 C460 1.384 . S
C459 C461 1.479 1_545 S
C459 H477 0.929 . S
C460 C457 1.442 . S
C460 C459 1.384 . S
C460 H478 0.928 . S
C461 C458 1.260 . S
C461 C459 1.479 1_565 S
C462 C457 1.243 1_565 S
C462 C458 1.477 . S
C462 H479 0.932 . S
C463 U446 2.882 . S
C463 C457 1.418 . S
C463 O466 1.301 1_545 S
C463 O467 1.282 . S
O464 U446 2.441 . S
O464 C450 1.249 . S
O465 U446 2.420 . S
O465 C450 1.202 . S
O466 U446 2.455 1_565 S
O466 C463 1.301 1_565 S
O467 U446 2.449 . S
O467 C463 1.282 . S
H468 C441 0.931 . S
H469 C443 0.929 . S
H470 C444 0.930 . S
H471 C445 0.931 . S
H472 C452 0.932 . S
H473 C453 0.930 . S
H474 C454 0.929 . S
H475 C456 0.930 . S
H476 C458 0.932 . S
H477 C459 0.929 . S
H478 C460 0.928 . S
H479 C462 0.932 . S
C2 C402 2.851 . S
C442 C42 2.851 . S
C242 C82 2.851 . S
C122 C282 2.851 . S
C322 C162 2.851 . S
C362 C202 2.851 . S
C21 C261 3.398 . S
C61 C301 3.399 . S
C101 C341 3.398 . S
C381 C141 3.398 . S
C181 C421 3.398 . S
C221 C461 3.398 . S
C15 C375 3.767 1_554 S
C415 C55 3.766 1_655 S
C455 C95 3.766 1_566 S
C135 C255 3.767 . S
C175 C295 3.767 1_654 S
C335 C215 3.767 1_545 S
