# Generated by pormake.
# Topology ukn, (4)-cn, num edge types: 1
# Building blocks:
#     Node 0, Type 0, BuildingBlock: QUQFOY_clean_sbu_1, # of connection points: 4
#     Node 1, Type 0, BuildingBlock: QUQFOY_clean_sbu_1, # of connection points: 4
#     Node 2, Type 0, BuildingBlock: QUQFOY_clean_sbu_1, # of connection points: 4
#     Node 3, Type 0, BuildingBlock: QUQFOY_clean_sbu_1, # of connection points: 4
#     Node 4, Type 0, BuildingBlock: QUQFOY_clean_sbu_1, # of connection points: 4
#     Node 5, Type 0, BuildingBlock: QUQFOY_clean_sbu_1, # of connection points: 4
#     Node 6, Type 0, BuildingBlock: QUQFOY_clean_sbu_1, # of connection points: 4
#     Node 7, Type 0, BuildingBlock: QUQFOY_clean_sbu_1, # of connection points: 4
#     Node 8, Type 0, BuildingBlock: QUQFOY_clean_sbu_1, # of connection points: 4
#     Node 9, Type 0, BuildingBlock: QUQFOY_clean_sbu_1, # of connection points: 4
#     Node 10, Type 0, BuildingBlock: QUQFOY_clean_sbu_1, # of connection points: 4
#     Node 11, Type 0, BuildingBlock: QUQFOY_clean_sbu_1, # of connection points: 4
#     Node 12, Type 0, BuildingBlock: QUQFOY_clean_sbu_1, # of connection points: 4
#     Node 13, Type 0, BuildingBlock: QUQFOY_clean_sbu_1, # of connection points: 4
#     Node 14, Type 0, BuildingBlock: QUQFOY_clean_sbu_1, # of connection points: 4
#     Node 15, Type 0, BuildingBlock: QUQFOY_clean_sbu_1, # of connection points: 4
#     Node 16, Type 0, BuildingBlock: QUQFOY_clean_sbu_1, # of connection points: 4
#     Node 17, Type 0, BuildingBlock: QUQFOY_clean_sbu_1, # of connection points: 4
#     Node 18, Type 0, BuildingBlock: QUQFOY_clean_sbu_1, # of connection points: 4
#     Node 19, Type 0, BuildingBlock: QUQFOY_clean_sbu_1, # of connection points: 4
#     Node 20, Type 0, BuildingBlock: QUQFOY_clean_sbu_1, # of connection points: 4
#     Node 21, Type 0, BuildingBlock: QUQFOY_clean_sbu_1, # of connection points: 4
#     Node 22, Type 0, BuildingBlock: QUQFOY_clean_sbu_1, # of connection points: 4
#     Node 23, Type 0, BuildingBlock: QUQFOY_clean_sbu_1, # of connection points: 4
#     Node 24, Type 0, BuildingBlock: QUQFOY_clean_sbu_1, # of connection points: 4
#     Node 25, Type 0, BuildingBlock: QUQFOY_clean_sbu_1, # of connection points: 4
#     Node 26, Type 0, BuildingBlock: QUQFOY_clean_sbu_1, # of connection points: 4
#     Node 27, Type 0, BuildingBlock: QUQFOY_clean_sbu_1, # of connection points: 4
#     Node 28, Type 0, BuildingBlock: QUQFOY_clean_sbu_1, # of connection points: 4
#     Node 29, Type 0, BuildingBlock: QUQFOY_clean_sbu_1, # of connection points: 4
#     Node 30, Type 0, BuildingBlock: QUQFOY_clean_sbu_1, # of connection points: 4
#     Node 31, Type 0, BuildingBlock: QUQFOY_clean_sbu_1, # of connection points: 4
#     Node 32, Type 0, BuildingBlock: QUQFOY_clean_sbu_1, # of connection points: 4
#     Node 33, Type 0, BuildingBlock: QUQFOY_clean_sbu_1, # of connection points: 4
#     Node 34, Type 0, BuildingBlock: QUQFOY_clean_sbu_1, # of connection points: 4
#     Node 35, Type 0, BuildingBlock: QUQFOY_clean_sbu_1, # of connection points: 4
#     Edge 36, Type (0, 0), BuildingBlock: AJUNOK_clean_linker_0, # of connection points: 2
#     Edge 37, Type (0, 0), BuildingBlock: AJUNOK_clean_linker_0, # of connection points: 2
#     Edge 38, Type (0, 0), BuildingBlock: AJUNOK_clean_linker_0, # of connection points: 2
#     Edge 39, Type (0, 0), BuildingBlock: AJUNOK_clean_linker_0, # of connection points: 2
#     Edge 40, Type (0, 0), BuildingBlock: AJUNOK_clean_linker_0, # of connection points: 2
#     Edge 41, Type (0, 0), BuildingBlock: AJUNOK_clean_linker_0, # of connection points: 2
#     Edge 42, Type (0, 0), BuildingBlock: AJUNOK_clean_linker_0, # of connection points: 2
#     Edge 43, Type (0, 0), BuildingBlock: AJUNOK_clean_linker_0, # of connection points: 2
#     Edge 44, Type (0, 0), BuildingBlock: AJUNOK_clean_linker_0, # of connection points: 2
#     Edge 45, Type (0, 0), BuildingBlock: AJUNOK_clean_linker_0, # of connection points: 2
#     Edge 46, Type (0, 0), BuildingBlock: AJUNOK_clean_linker_0, # of connection points: 2
#     Edge 47, Type (0, 0), BuildingBlock: AJUNOK_clean_linker_0, # of connection points: 2
#     Edge 48, Type (0, 0), BuildingBlock: AJUNOK_clean_linker_0, # of connection points: 2
#     Edge 49, Type (0, 0), BuildingBlock: AJUNOK_clean_linker_0, # of connection points: 2
#     Edge 50, Type (0, 0), BuildingBlock: AJUNOK_clean_linker_0, # of connection points: 2
#     Edge 51, Type (0, 0), BuildingBlock: AJUNOK_clean_linker_0, # of connection points: 2
#     Edge 52, Type (0, 0), BuildingBlock: AJUNOK_clean_linker_0, # of connection points: 2
#     Edge 53, Type (0, 0), BuildingBlock: AJUNOK_clean_linker_0, # of connection points: 2
#     Edge 54, Type (0, 0), BuildingBlock: AJUNOK_clean_linker_0, # of connection points: 2
#     Edge 55, Type (0, 0), BuildingBlock: AJUNOK_clean_linker_0, # of connection points: 2
#     Edge 56, Type (0, 0), BuildingBlock: AJUNOK_clean_linker_0, # of connection points: 2
#     Edge 57, Type (0, 0), BuildingBlock: AJUNOK_clean_linker_0, # of connection points: 2
#     Edge 58, Type (0, 0), BuildingBlock: AJUNOK_clean_linker_0, # of connection points: 2
#     Edge 59, Type (0, 0), BuildingBlock: AJUNOK_clean_linker_0, # of connection points: 2
#     Edge 60, Type (0, 0), BuildingBlock: AJUNOK_clean_linker_0, # of connection points: 2
#     Edge 61, Type (0, 0), BuildingBlock: AJUNOK_clean_linker_0, # of connection points: 2
#     Edge 62, Type (0, 0), BuildingBlock: AJUNOK_clean_linker_0, # of connection points: 2
#     Edge 63, Type (0, 0), BuildingBlock: AJUNOK_clean_linker_0, # of connection points: 2
#     Edge 64, Type (0, 0), BuildingBlock: AJUNOK_clean_linker_0, # of connection points: 2
#     Edge 65, Type (0, 0), BuildingBlock: AJUNOK_clean_linker_0, # of connection points: 2
#     Edge 66, Type (0, 0), BuildingBlock: AJUNOK_clean_linker_0, # of connection points: 2
#     Edge 67, Type (0, 0), BuildingBlock: AJUNOK_clean_linker_0, # of connection points: 2
#     Edge 68, Type (0, 0), BuildingBlock: AJUNOK_clean_linker_0, # of connection points: 2
#     Edge 69, Type (0, 0), BuildingBlock: AJUNOK_clean_linker_0, # of connection points: 2
#     Edge 70, Type (0, 0), BuildingBlock: AJUNOK_clean_linker_0, # of connection points: 2
#     Edge 71, Type (0, 0), BuildingBlock: AJUNOK_clean_linker_0, # of connection points: 2
#     Edge 72, Type (0, 0), BuildingBlock: AJUNOK_clean_linker_0, # of connection points: 2
#     Edge 73, Type (0, 0), BuildingBlock: AJUNOK_clean_linker_0, # of connection points: 2
#     Edge 74, Type (0, 0), BuildingBlock: AJUNOK_clean_linker_0, # of connection points: 2
#     Edge 75, Type (0, 0), BuildingBlock: AJUNOK_clean_linker_0, # of connection points: 2
#     Edge 76, Type (0, 0), BuildingBlock: AJUNOK_clean_linker_0, # of connection points: 2
#     Edge 77, Type (0, 0), BuildingBlock: AJUNOK_clean_linker_0, # of connection points: 2
#     Edge 78, Type (0, 0), BuildingBlock: AJUNOK_clean_linker_0, # of connection points: 2
#     Edge 79, Type (0, 0), BuildingBlock: AJUNOK_clean_linker_0, # of connection points: 2
#     Edge 80, Type (0, 0), BuildingBlock: AJUNOK_clean_linker_0, # of connection points: 2
#     Edge 81, Type (0, 0), BuildingBlock: AJUNOK_clean_linker_0, # of connection points: 2
#     Edge 82, Type (0, 0), BuildingBlock: AJUNOK_clean_linker_0, # of connection points: 2
#     Edge 83, Type (0, 0), BuildingBlock: AJUNOK_clean_linker_0, # of connection points: 2
#     Edge 84, Type (0, 0), BuildingBlock: AJUNOK_clean_linker_0, # of connection points: 2
#     Edge 85, Type (0, 0), BuildingBlock: AJUNOK_clean_linker_0, # of connection points: 2
#     Edge 86, Type (0, 0), BuildingBlock: AJUNOK_clean_linker_0, # of connection points: 2
#     Edge 87, Type (0, 0), BuildingBlock: AJUNOK_clean_linker_0, # of connection points: 2
#     Edge 88, Type (0, 0), BuildingBlock: AJUNOK_clean_linker_0, # of connection points: 2
#     Edge 89, Type (0, 0), BuildingBlock: AJUNOK_clean_linker_0, # of connection points: 2
#     Edge 90, Type (0, 0), BuildingBlock: AJUNOK_clean_linker_0, # of connection points: 2
#     Edge 91, Type (0, 0), BuildingBlock: AJUNOK_clean_linker_0, # of connection points: 2
#     Edge 92, Type (0, 0), BuildingBlock: AJUNOK_clean_linker_0, # of connection points: 2
#     Edge 93, Type (0, 0), BuildingBlock: AJUNOK_clean_linker_0, # of connection points: 2
#     Edge 94, Type (0, 0), BuildingBlock: AJUNOK_clean_linker_0, # of connection points: 2
#     Edge 95, Type (0, 0), BuildingBlock: AJUNOK_clean_linker_0, # of connection points: 2
#     Edge 96, Type (0, 0), BuildingBlock: AJUNOK_clean_linker_0, # of connection points: 2
#     Edge 97, Type (0, 0), BuildingBlock: AJUNOK_clean_linker_0, # of connection points: 2
#     Edge 98, Type (0, 0), BuildingBlock: AJUNOK_clean_linker_0, # of connection points: 2
#     Edge 99, Type (0, 0), BuildingBlock: AJUNOK_clean_linker_0, # of connection points: 2
#     Edge 100, Type (0, 0), BuildingBlock: AJUNOK_clean_linker_0, # of connection points: 2
#     Edge 101, Type (0, 0), BuildingBlock: AJUNOK_clean_linker_0, # of connection points: 2
#     Edge 102, Type (0, 0), BuildingBlock: AJUNOK_clean_linker_0, # of connection points: 2
#     Edge 103, Type (0, 0), BuildingBlock: AJUNOK_clean_linker_0, # of connection points: 2
#     Edge 104, Type (0, 0), BuildingBlock: AJUNOK_clean_linker_0, # of connection points: 2
#     Edge 105, Type (0, 0), BuildingBlock: AJUNOK_clean_linker_0, # of connection points: 2
#     Edge 106, Type (0, 0), BuildingBlock: AJUNOK_clean_linker_0, # of connection points: 2
#     Edge 107, Type (0, 0), BuildingBlock: AJUNOK_clean_linker_0, # of connection points: 2
# Relax obj value: 0.011
# Max RMSD: 0.050
# Mean RMSD: 0.050
data_MOF--net-ukn--node1-QUQFOY_clean_sbu_1--edge1-AJUNOK_clean_linker_0
_symmetry_space_group_name_H-M    P1
_symmetry_Int_Tables_number       1
_symmetry_cell_setting            triclinic
loop_
_symmetry_equiv_pos_as_xyz
'x, y, z'
_cell_length_a     82.171117
_cell_length_b     82.223274
_cell_length_c     20.806399
_cell_angle_alpha  90.154722
_cell_angle_beta   89.898753
_cell_angle_gamma 119.96213
loop_
_atom_site_label
_atom_site_type_symbol
_atom_site_fract_x
_atom_site_fract_y
_atom_site_fract_z
_atom_type_partial_charge
O0 O 0.11214 0.30325 0.12254 0.0
Cd1 Cd 0.09219 0.3116 0.12011 0.0
Cd2 Cd 0.07484 0.27816 0.05013 0.0
O3 O 0.09617 0.2743 0.08491 0.0
O4 O 0.10148 0.33236 0.18566 0.0
O5 O 0.07553 0.30515 0.19886 0.0
C6 C 0.08763 0.32134 0.22209 0.0
C7 C 0.04338 0.255 0.04514 0.0
C8 C 0.11101 0.28756 0.11 0.0
C9 C 0.08621 0.31428 0.97922 0.0
O10 O 0.08177 0.29714 0.97706 0.0
O11 O 0.08929 0.32267 0.03325 0.0
O12 O 0.05563 0.25468 1.00721 0.0
O13 O 0.04925 0.26762 0.08986 0.0
O14 O 0.69817 0.80728 0.11352 0.0
Cd15 Cd 0.69048 0.77923 0.10997 0.0
Cd16 Cd 0.72384 0.79509 0.04829 0.0
O17 O 0.72818 0.81983 0.08941 0.0
O18 O 0.66938 0.76701 0.17392 0.0
O19 O 0.69707 0.7694 0.189 0.0
C20 C 0.68063 0.76479 0.21128 0.0
C21 C 0.74363 0.78269 0.05091 0.0
C22 C 0.71443 0.82167 0.10793 0.0
C23 C 0.68993 0.77241 0.96833 0.0
O24 O 0.70677 0.78587 0.96931 0.0
O25 O 0.68104 0.76586 1.02095 0.0
O26 O 0.74818 0.79779 1.01889 0.0
O27 O 0.72871 0.77569 0.0864 0.0
O28 O 0.19366 0.89294 0.11022 0.0
Cd29 Cd 0.22215 0.91177 0.10618 0.0
Cd30 Cd 0.20698 0.93005 0.04167 0.0
O31 O 0.18163 0.91043 0.08091 0.0
O32 O 0.23129 0.89933 0.16755 0.0
O33 O 0.23415 0.92704 0.18718 0.0
C34 C 0.23579 0.91305 0.20689 0.0
C35 C 0.22023 0.96232 0.04508 0.0
C36 C 0.17948 0.89502 0.10234 0.0
C37 C 0.22912 0.91726 0.96402 0.0
O38 O 0.2163 0.92159 0.96419 0.0
O39 O 0.23517 0.9145 1.01705 0.0
O40 O 0.20539 0.95215 1.01114 0.0
O41 O 0.22652 0.95398 0.08162 0.0
O42 O 0.3065 0.11189 0.93253 0.0
Cd43 Cd 0.31406 0.0914 0.93702 0.0
Cd44 Cd 0.28123 0.07464 1.00095 0.0
O45 O 0.27669 0.09476 0.95925 0.0
O46 O 0.33499 0.09978 0.87265 0.0
O47 O 0.30721 0.07453 0.85886 0.0
C48 C 0.32364 0.08612 0.83605 0.0
C49 C 0.26147 0.04249 0.99762 0.0
C50 C 0.29029 0.11014 0.93896 0.0
C51 C 0.31541 0.08592 0.07899 0.0
O52 O 0.29862 0.08275 0.07931 0.0
O53 O 0.32381 0.08772 0.02561 0.0
O54 O 0.257 0.05303 0.03047 0.0
O55 O 0.27637 0.05043 0.96205 0.0
O56 O 0.89357 0.19201 0.92715 0.0
Cd57 Cd 0.912 0.22066 0.92954 0.0
Cd58 Cd 0.93143 0.20599 0.99951 0.0
O59 O 0.91041 0.18026 0.9673 0.0
O60 O 0.90116 0.23093 0.86498 0.0
O61 O 0.92799 0.23153 0.84944 0.0
C62 C 0.91503 0.23452 0.82735 0.0
C63 C 0.9631 0.21481 1.00105 0.0
C64 C 0.89542 0.17795 0.94112 0.0
C65 C 0.91868 0.22982 0.07103 0.0
O66 O 0.92446 0.21813 0.0724 0.0
O67 O 0.91428 0.23421 1.01758 0.0
O68 O 0.95141 0.20267 0.04117 0.0
O69 O 0.95657 0.22104 0.95692 0.0
O70 O 0.80887 0.69792 0.93693 0.0
Cd71 Cd 0.78075 0.69024 0.9404 0.0
Cd72 Cd 0.79663 0.72326 1.00414 0.0
O73 O 0.82151 0.72772 0.96402 0.0
O74 O 0.76845 0.66875 0.87796 0.0
O75 O 0.77057 0.69621 0.86068 0.0
C76 C 0.7658 0.67958 0.84001 0.0
C77 C 0.78398 0.74284 0.99995 0.0
C78 C 0.82332 0.71407 0.94414 0.0
C79 C 0.77364 0.68916 0.08226 0.0
O80 O 0.78716 0.70597 0.08252 0.0
O81 O 0.76719 0.68066 0.02894 0.0
O82 O 0.79887 0.74739 0.03342 0.0
O83 O 0.77737 0.72802 0.964 0.0
O84 O 0.89229 0.69793 0.9279 0.0
Cd85 Cd 0.91193 0.68914 0.92933 0.0
Cd86 Cd 0.93057 0.72317 0.9961 0.0
O87 O 0.90913 0.72709 0.96285 0.0
O88 O 0.90205 0.66789 0.86566 0.0
O89 O 0.92812 0.69481 0.84956 0.0
C90 C 0.91586 0.67842 0.82828 0.0
C91 C 0.96199 0.74639 1.00106 0.0
C92 C 0.89386 0.71383 0.94014 0.0
C93 C 0.91916 0.68741 0.06957 0.0
O94 O 0.92406 0.70467 0.07033 0.0
O95 O 0.9151 0.67843 1.01651 0.0
O96 O 0.94972 0.7467 0.03885 0.0
O97 O 0.95617 0.73382 0.95622 0.0
O98 O 0.30625 0.19482 0.924 0.0
Cd99 Cd 0.31436 0.223 0.92779 0.0
Cd100 Cd 0.28152 0.2075 0.99359 0.0
O101 O 0.27663 0.18252 0.95299 0.0
O102 O 0.33572 0.23494 0.86484 0.0
O103 O 0.30852 0.23354 0.84868 0.0
C104 C 0.32502 0.23798 0.82751 0.0
C105 C 0.2616 0.21981 0.99349 0.0
C106 C 0.29008 0.1805 0.93222 0.0
C107 C 0.3164 0.22989 0.06977 0.0
O108 O 0.29938 0.21679 0.07062 0.0
O109 O 0.32472 0.23628 1.0162 0.0
O110 O 0.25751 0.20493 0.02616 0.0
O111 O 0.27615 0.22668 0.95626 0.0
O112 O 0.81146 0.10859 0.92581 0.0
Cd113 Cd 0.78269 0.09072 0.9284 0.0
Cd114 Cd 0.79778 0.07172 1.00066 0.0
O115 O 0.82365 0.0926 0.96922 0.0
O116 O 0.77487 0.10401 0.86555 0.0
O117 O 0.77017 0.07555 0.84733 0.0
C118 C 0.76954 0.09003 0.8268 0.0
C119 C 0.78879 0.04005 1.00299 0.0
C120 C 0.8257 0.10722 0.94112 0.0
C121 C 0.77357 0.08464 0.06982 0.0
O122 O 0.78524 0.07881 0.07187 0.0
O123 O 0.7693 0.08902 1.01612 0.0
O124 O 0.80084 0.05175 0.04344 0.0
O125 O 0.78279 0.04658 0.95811 0.0
O126 O 0.69837 0.89067 0.1248 0.0
Cd127 Cd 0.68957 0.91029 0.12339 0.0
Cd128 Cd 0.72372 0.92885 0.05565 0.0
O129 O 0.72744 0.90732 0.08877 0.0
O130 O 0.66829 0.90042 0.18699 0.0
O131 O 0.69522 0.92645 0.20339 0.0
C132 C 0.67881 0.9142 0.22453 0.0
C133 C 0.7475 0.96004 0.04983 0.0
C134 C 0.71423 0.89215 0.11206 0.0
C135 C 0.68775 0.91757 0.98293 0.0
O136 O 0.70503 0.9225 0.98192 0.0
O137 O 0.67883 0.91347 0.0361 0.0
O138 O 0.74731 0.94752 1.012 0.0
O139 O 0.73506 0.95458 0.09501 0.0
O140 O 0.11194 0.81021 0.12221 0.0
Cd141 Cd 0.09356 0.7815 0.12038 0.0
Cd142 Cd 0.07397 0.79551 0.04951 0.0
O143 O 0.09458 0.82135 0.08226 0.0
O144 O 0.1047 0.77128 0.18381 0.0
O145 O 0.07778 0.77036 0.20091 0.0
C146 C 0.09078 0.76726 0.22172 0.0
C147 C 0.04219 0.78631 0.04717 0.0
C148 C 0.10981 0.82407 0.10767 0.0
C149 C 0.08749 0.77231 0.97876 0.0
O150 O 0.08152 0.78385 0.97648 0.0
O151 O 0.09152 0.7679 0.0328 0.0
O152 O 0.0539 0.79861 1.00747 0.0
O153 O 0.04874 0.78009 0.09121 0.0
O154 O 0.19593 0.30383 0.11144 0.0
Cd155 Cd 0.22397 0.31147 0.1062 0.0
Cd156 Cd 0.20768 0.27814 0.04413 0.0
O157 O 0.18301 0.27388 0.08565 0.0
O158 O 0.23644 0.33262 0.1699 0.0
O159 O 0.23405 0.30494 0.18466 0.0
C160 C 0.23873 0.32139 0.20704 0.0
C161 C 0.22057 0.2588 0.04776 0.0
C162 C 0.18145 0.28764 0.10598 0.0
C163 C 0.23043 0.3119 0.96414 0.0
O164 O 0.21684 0.29513 0.96513 0.0
O165 O 0.23712 0.32077 1.01677 0.0
O166 O 0.20539 0.25393 1.01559 0.0
O167 O 0.22732 0.27375 0.08304 0.0
O168 O 0.77936 0.63943 0.47069 0.0
Cd169 Cd 0.75979 0.64823 0.4689 0.0
Cd170 Cd 0.74155 0.61437 0.3989 0.0
O171 O 0.76314 0.61064 0.43163 0.0
O172 O 0.76927 0.66886 0.53488 0.0
O173 O 0.74304 0.64185 0.54735 0.0
C174 C 0.75527 0.65793 0.57093 0.0
C175 C 0.71045 0.59047 0.39081 0.0
C176 C 0.77805 0.62373 0.45692 0.0
C177 C 0.75314 0.65085 0.32884 0.0
O178 O 0.74804 0.63354 0.32697 0.0
O179 O 0.75724 0.6596 0.38235 0.0
O180 O 0.72318 0.59108 0.35304 0.0
O181 O 0.71565 0.60255 0.43713 0.0
O182 O 0.3654 0.14004 0.47104 0.0
Cd183 Cd 0.3563 0.11165 0.46689 0.0
Cd184 Cd 0.39041 0.12764 0.39649 0.0
O185 O 0.39418 0.15282 0.43173 0.0
O186 O 0.33501 0.10044 0.53032 0.0
O187 O 0.36161 0.10056 0.54578 0.0
C188 C 0.34533 0.09677 0.56727 0.0
C189 C 0.41395 0.11987 0.38804 0.0
C190 C 0.38109 0.1545 0.45803 0.0
C191 C 0.35385 0.1032 0.32573 0.0
O192 O 0.37118 0.11537 0.3242 0.0
O193 O 0.3451 0.0983 0.37917 0.0
O194 O 0.41371 0.13226 0.35092 0.0
O195 O 0.40174 0.11304 0.43395 0.0
O196 O 0.8593 0.22398 0.46025 0.0
Cd197 Cd 0.88806 0.24242 0.45801 0.0
Cd198 Cd 0.87349 0.26149 0.38549 0.0
O199 O 0.84776 0.24076 0.41801 0.0
O200 O 0.89845 0.23143 0.52146 0.0
O201 O 0.8992 0.25825 0.53861 0.0
C202 C 0.90243 0.24533 0.55939 0.0
C203 C 0.88236 0.29309 0.38106 0.0
C204 C 0.84531 0.22586 0.44514 0.0
C205 C 0.8974 0.24862 0.31616 0.0
O206 O 0.88552 0.25416 0.31332 0.0
O207 O 0.90184 0.24474 0.37043 0.0
O208 O 0.87002 0.28109 0.34204 0.0
O209 O 0.88863 0.28692 0.4262 0.0
O210 O 0.96413 0.44163 0.25926 0.0
Cd211 Cd 0.97707 0.42557 0.26261 0.0
Cd212 Cd 0.9435 0.40551 0.33964 0.0
O213 O 0.93689 0.42526 0.30882 0.0
O214 O 0.99771 0.44003 0.19865 0.0
O215 O 0.97587 0.41059 0.1823 0.0
C216 C 0.99016 0.42571 0.16086 0.0
C217 C 0.92184 0.37356 0.34202 0.0
C218 C 0.94845 0.43966 0.27728 0.0
C219 C 0.98146 0.42097 0.4051 0.0
O220 O 0.96379 0.41395 0.40896 0.0
O221 O 0.98964 0.4254 0.35042 0.0
O222 O 0.92119 0.38488 0.38357 0.0
O223 O 0.93422 0.38056 0.29666 0.0
O224 O 0.56145 0.52159 0.25928 0.0
Cd225 Cd 0.57735 0.5506 0.26276 0.0
Cd226 Cd 0.59851 0.53765 0.33575 0.0
O227 O 0.57886 0.51125 0.30424 0.0
O228 O 0.56281 0.55681 0.19933 0.0
O229 O 0.59228 0.56447 0.18267 0.0
C230 C 0.57712 0.56365 0.1615 0.0
C231 C 0.63053 0.54802 0.34033 0.0
C232 C 0.56391 0.50807 0.27557 0.0
C233 C 0.5827 0.55949 0.40505 0.0
O234 O 0.59005 0.54911 0.40669 0.0
O235 O 0.57766 0.56314 0.35141 0.0
O236 O 0.61894 0.53572 0.38026 0.0
O237 O 0.62377 0.55359 0.2949 0.0
O238 O 0.473 0.02969 0.26986 0.0
Cd239 Cd 0.44501 0.02228 0.27046 0.0
Cd240 Cd 0.46168 0.05626 0.33609 0.0
O241 O 0.48666 0.05918 0.30229 0.0
O242 O 0.43332 1.00134 0.20559 0.0
O243 O 0.43569 0.02896 0.19012 0.0
C244 C 0.43127 0.01258 0.16779 0.0
C245 C 0.45386 0.07983 0.3368 0.0
C246 C 0.48782 0.04532 0.28045 0.0
C247 C 0.43647 0.02099 0.41075 0.0
O248 O 0.44946 0.03803 0.41104 0.0
O249 O 0.4309 0.01206 0.35774 0.0
O250 O 0.46632 0.08033 0.37557 0.0
O251 O 0.44689 0.06668 0.29389 0.0
O252 O 0.55791 0.02978 0.27188 0.0
Cd253 Cd 0.57902 0.02305 0.27189 0.0
Cd254 Cd 0.59549 0.05637 0.33797 0.0
O255 O 0.57347 0.05926 0.30425 0.0
O256 O 0.57056 0.00243 0.20605 0.0
O257 O 0.59517 0.03063 0.19174 0.0
C258 C 0.58371 0.01418 0.16874 0.0
C259 C 0.62694 0.07949 0.33458 0.0
C260 C 0.55854 0.04533 0.28238 0.0
C261 C 0.58618 0.02139 0.41194 0.0
O262 O 0.58962 0.03825 0.41322 0.0
O263 O 0.58342 0.01287 0.35829 0.0
O264 O 0.6155 0.08053 0.37464 0.0
O265 O 0.62019 0.06598 0.29296 0.0
O266 O 0.96461 0.52338 0.26035 0.0
Cd267 Cd 0.97766 0.55239 0.26374 0.0
Cd268 Cd 0.94404 0.53909 0.34131 0.0
O269 O 0.93738 0.51273 0.30987 0.0
O270 O 0.99858 0.55834 0.20131 0.0
O271 O 0.97682 0.56587 0.18226 0.0
C272 C 0.99113 0.56482 0.16206 0.0
C273 C 0.9223 0.54932 0.34495 0.0
C274 C 0.94888 0.50977 0.27823 0.0
C275 C 0.9821 0.56154 0.40631 0.0
O276 O 0.96442 0.55093 0.41036 0.0
O277 O 0.99022 0.56521 0.35154 0.0
O278 O 0.9218 0.53741 0.38616 0.0
O279 O 0.93458 0.55469 0.29924 0.0
O280 O 0.48033 0.44129 0.26735 0.0
Cd281 Cd 0.45143 0.42496 0.27229 0.0
Cd282 Cd 0.46469 0.40443 0.34155 0.0
O283 O 0.49063 0.42288 0.30329 0.0
O284 O 0.44474 0.43988 0.21254 0.0
O285 O 0.43789 0.41093 0.19037 0.0
C286 C 0.43855 0.42623 0.17196 0.0
C287 C 0.451 0.37203 0.34325 0.0
C288 C 0.4938 0.43826 0.27831 0.0
C289 C 0.44438 0.42033 0.41578 0.0
O290 O 0.45583 0.41421 0.41659 0.0
O291 O 0.4392 0.4239 0.36225 0.0
O292 O 0.46572 0.38249 0.37727 0.0
O293 O 0.44497 0.38006 0.30422 0.0
O294 O 0.36442 0.22278 0.46395 0.0
Cd295 Cd 0.35632 0.24283 0.45822 0.0
Cd296 Cd 0.38954 0.26009 0.39425 0.0
O297 O 0.39406 0.23975 0.43436 0.0
O298 O 0.33537 0.23428 0.52258 0.0
O299 O 0.36287 0.25996 0.53556 0.0
C300 C 0.34654 0.24819 0.55866 0.0
C301 C 0.4096 0.2922 0.39668 0.0
C302 C 0.38059 0.22455 0.45642 0.0
C303 C 0.35511 0.2484 0.31624 0.0
O304 O 0.37211 0.25223 0.31629 0.0
O305 O 0.34631 0.24583 0.36921 0.0
O306 O 0.41379 0.28148 0.36373 0.0
O307 O 0.39485 0.28448 0.433 0.0
O308 O 0.77531 0.14232 0.45857 0.0
Cd309 Cd 0.7577 0.11355 0.45551 0.0
Cd310 Cd 0.73911 0.12884 0.37936 0.0
O311 O 0.7598 0.15464 0.41239 0.0
O312 O 0.77182 0.10628 0.51664 0.0
O313 O 0.74324 0.10079 0.53763 0.0
C314 C 0.75814 0.10073 0.55679 0.0
C315 C 0.70746 0.1199 0.37302 0.0
C316 C 0.77415 0.1566 0.44234 0.0
C317 C 0.75277 0.10477 0.31335 0.0
O318 O 0.74693 0.11641 0.30984 0.0
O319 O 0.75648 0.10032 0.36792 0.0
O320 O 0.71954 0.13195 0.33354 0.0
O321 O 0.71356 0.11392 0.41935 0.0
O322 O 0.8629 0.63898 0.46152 0.0
Cd323 Cd 0.89108 0.64698 0.45768 0.0
Cd324 Cd 0.87459 0.61352 0.38933 0.0
O325 O 0.8496 0.60986 0.42528 0.0
O326 O 0.90286 0.66782 0.52273 0.0
O327 O 0.9012 0.64043 0.53616 0.0
C328 C 0.90548 0.65669 0.55925 0.0
C329 C 0.88294 0.59042 0.38608 0.0
C330 C 0.84824 0.62327 0.45022 0.0
C331 C 0.89932 0.64916 0.31651 0.0
O332 O 0.88638 0.63211 0.3151 0.0
O333 O 0.90492 0.65767 0.37023 0.0
O334 O 0.87021 0.58979 0.34831 0.0
O335 O 0.88984 0.60337 0.42968 0.0
O336 O 0.44554 0.97085 0.79955 0.0
Cd337 Cd 0.42584 0.9796 0.79756 0.0
Cd338 Cd 0.4081 0.94596 0.72583 0.0
O339 O 0.42979 0.94231 0.75814 0.0
O340 O 0.43581 1.0009 0.86126 0.0
O341 O 0.40968 0.9741 0.87752 0.0
C342 C 0.42199 0.99048 0.8987 0.0
C343 C 0.3767 0.92251 0.72315 0.0
C344 C 0.4445 0.95531 0.78472 0.0
C345 C 0.41901 0.98219 0.65651 0.0
O346 O 0.41436 0.965 0.65356 0.0
O347 O 0.42267 0.99057 0.71072 0.0
O348 O 0.38874 0.9224 0.68364 0.0
O349 O 0.38279 0.93519 0.7677 0.0
O350 O 0.04019 0.47926 0.79383 0.0
Cd351 Cd 0.02681 0.45026 0.79013 0.0
Cd352 Cd 0.06102 0.4635 0.71369 0.0
O353 O 0.0676 0.48983 0.7455 0.0
O354 O 0.00605 0.44431 0.85343 0.0
O355 O 0.02759 0.43635 0.87044 0.0
C356 C 0.01334 0.43738 0.89151 0.0
C357 C 0.08294 0.45362 0.70394 0.0
C358 C 0.05602 0.49283 0.77655 0.0
C359 C 0.02287 0.44114 0.64785 0.0
O360 O 0.04057 0.45157 0.64507 0.0
O361 O 0.01436 0.43766 0.70189 0.0
O362 O 0.08299 0.46582 0.66511 0.0
O363 O 0.07131 0.44805 0.75166 0.0
O364 O 0.52377 0.56096 0.79397 0.0
Cd365 Cd 0.55283 0.57628 0.79088 0.0
Cd366 Cd 0.54008 0.59718 0.71156 0.0
O367 O 0.51363 0.57783 0.74364 0.0
O368 O 0.55835 0.56125 0.85443 0.0
O369 O 0.5669 0.59089 0.87145 0.0
C370 C 0.56554 0.57551 0.89253 0.0
C371 C 0.55019 0.62905 0.70095 0.0
C372 C 0.51034 0.56329 0.77524 0.0
C373 C 0.56194 0.5804 0.64825 0.0
O374 O 0.55174 0.58793 0.64394 0.0
O375 O 0.56538 0.57585 0.70314 0.0
O376 O 0.53801 0.61682 0.66211 0.0
O377 O 0.55573 0.62306 0.74886 0.0
O378 O 0.63883 0.7783 0.57953 0.0
Cd379 Cd 0.64792 0.7589 0.58128 0.0
Cd380 Cd 0.61454 0.74073 0.65248 0.0
O381 O 0.61034 0.76211 0.62087 0.0
O382 O 0.66905 0.76896 0.51712 0.0
O383 O 0.6424 0.74257 0.50172 0.0
C384 C 0.65868 0.75498 0.48012 0.0
C385 C 0.59144 0.70919 0.65412 0.0
C386 C 0.62319 0.77697 0.59466 0.0
C387 C 0.65104 0.75275 0.72212 0.0
O388 O 0.63368 0.74746 0.72492 0.0
O389 O 0.65941 0.75651 0.66794 0.0
O390 O 0.59112 0.72101 0.69421 0.0
O391 O 0.60419 0.71555 0.60986 0.0
O392 O 0.22918 0.86006 0.57726 0.0
Cd393 Cd 0.24631 0.88887 0.5789 0.0
Cd394 Cd 0.26546 0.87434 0.65779 0.0
O395 O 0.24495 0.84835 0.62562 0.0
O396 O 0.23196 0.8955 0.51651 0.0
O397 O 0.26084 0.90166 0.49702 0.0
C398 C 0.24581 0.90131 0.47698 0.0
C399 C 0.29688 0.88275 0.67011 0.0
C400 C 0.23056 0.84601 0.59502 0.0
C401 C 0.25081 0.89822 0.72024 0.0
O402 O 0.25722 0.88706 0.7248 0.0
O403 O 0.24685 0.9022 0.66532 0.0
O404 O 0.28414 0.87092 0.70833 0.0
O405 O 0.2916 0.88879 0.62165 0.0
O406 O 0.14163 0.36255 0.58829 0.0
Cd407 Cd 0.11331 0.35403 0.59159 0.0
Cd408 Cd 0.12904 0.38813 0.65686 0.0
O409 O 0.15421 0.39178 0.6227 0.0
O410 O 0.1016 0.33263 0.52859 0.0
O411 O 0.10272 0.35966 0.51209 0.0
C412 C 0.09845 0.3432 0.49105 0.0
C413 C 0.12097 0.4115 0.65689 0.0
C414 C 0.15605 0.37845 0.59966 0.0
C415 C 0.10485 0.35283 0.73254 0.0
O416 O 0.11722 0.3701 0.73255 0.0
O417 O 0.09977 0.34372 0.67974 0.0
O418 O 0.13347 0.41216 0.69579 0.0
O419 O 0.11398 0.39821 0.6145 0.0
O420 O 0.22525 0.36279 0.57672 0.0
Cd421 Cd 0.24473 0.35382 0.57746 0.0
Cd422 Cd 0.2632 0.38721 0.6485 0.0
O423 O 0.2418 0.39137 0.61688 0.0
O424 O 0.23468 0.33278 0.51293 0.0
O425 O 0.26104 0.35947 0.49784 0.0
C426 C 0.24864 0.34321 0.47602 0.0
C427 C 0.29457 0.4108 0.65276 0.0
C428 C 0.22671 0.37847 0.59196 0.0
C429 C 0.25095 0.35063 0.71793 0.0
O430 O 0.25641 0.36802 0.72072 0.0
O431 O 0.24711 0.34224 0.66377 0.0
O432 O 0.28235 0.4106 0.69216 0.0
O433 O 0.28872 0.39827 0.60776 0.0
O434 O 0.63816 0.86164 0.59107 0.0
Cd435 Cd 0.64656 0.88989 0.59494 0.0
Cd436 Cd 0.61287 0.87358 0.66447 0.0
O437 O 0.60919 0.84848 0.6288 0.0
O438 O 0.66756 0.90133 0.53027 0.0
O439 O 0.64044 0.90022 0.51595 0.0
C440 C 0.65666 0.90417 0.49328 0.0
C441 C 0.58978 0.88211 0.66653 0.0
C442 C 0.62249 0.84704 0.60311 0.0
C443 C 0.64893 0.89821 0.73647 0.0
O444 O 0.63174 0.88555 0.73814 0.0
O445 O 0.65741 0.90358 0.68265 0.0
O446 O 0.58913 0.86956 0.70513 0.0
O447 O 0.60284 0.88886 0.62333 0.0
O448 O 0.14558 0.77853 0.58704 0.0
Cd449 Cd 0.11695 0.75986 0.59124 0.0
Cd450 Cd 0.13189 0.74079 0.65964 0.0
O451 O 0.15744 0.76171 0.62625 0.0
O452 O 0.10604 0.76999 0.52662 0.0
O453 O 0.10594 0.74336 0.51236 0.0
C454 C 0.10254 0.75599 0.48977 0.0
C455 C 0.12313 0.70918 0.66013 0.0
C456 C 0.15968 0.77664 0.60004 0.0
C457 C 0.10812 0.75315 0.7329 0.0
O458 O 0.12001 0.74761 0.73378 0.0
O459 O 0.10355 0.75746 0.67968 0.0
O460 O 0.13553 0.72087 0.69974 0.0
O461 O 0.1166 0.7157 0.61701 0.0
O462 O 0.04048 0.56078 0.79356 0.0
Cd463 Cd 0.02755 0.57688 0.79056 0.0
Cd464 Cd 0.06177 0.59737 0.71438 0.0
O465 O 0.06802 0.5774 0.74596 0.0
O466 O 0.00656 0.56213 0.85286 0.0
O467 O 0.02855 0.59132 0.87216 0.0
C468 C 0.01413 0.57608 0.89223 0.0
C469 C 0.08399 0.62904 0.70542 0.0
C470 C 0.05627 0.56285 0.77652 0.0
C471 C 0.02375 0.58228 0.64853 0.0
O472 O 0.0414 0.58914 0.64559 0.0
O473 O 0.01527 0.57747 0.70263 0.0
O474 O 0.08392 0.61684 0.66633 0.0
O475 O 0.07228 0.6231 0.75293 0.0
O476 O 0.44275 0.48005 0.80025 0.0
Cd477 Cd 0.42733 0.45098 0.7997 0.0
Cd478 Cd 0.40618 0.46305 0.71915 0.0
O479 O 0.42554 0.4897 0.7494 0.0
O480 O 0.44234 0.44577 0.86421 0.0
O481 O 0.41275 0.43753 0.881 0.0
C482 C 0.42814 0.43897 0.90249 0.0
C483 C 0.37438 0.45301 0.70608 0.0
C484 C 0.44029 0.49329 0.7804 0.0
C485 C 0.42315 0.44102 0.65823 0.0
O486 O 0.4155 0.45107 0.65306 0.0
O487 O 0.4278 0.43789 0.71343 0.0
O488 O 0.38682 0.46502 0.6675 0.0
O489 O 0.38011 0.44767 0.7552 0.0
O490 O 0.52939 0.97085 0.79991 0.0
Cd491 Cd 0.55794 0.9804 0.7983 0.0
Cd492 Cd 0.5423 0.94593 0.7263 0.0
O493 O 0.51687 0.9423 0.7586 0.0
O494 O 0.56828 0.00196 0.86089 0.0
O495 O 0.56904 0.97597 0.87913 0.0
C496 C 0.57224 0.99218 0.89938 0.0
C497 C 0.54983 0.9222 0.71782 0.0
C498 C 0.51502 0.95525 0.78514 0.0
C499 C 0.56757 0.9827 0.65769 0.0
O500 O 0.55542 0.96538 0.6554 0.0
O501 O 0.5719 0.99143 0.71127 0.0
O502 O 0.53778 0.92279 0.67978 0.0
O503 O 0.55635 0.9341 0.76474 0.0
C504 C 0.1298 0.2719 0.08418 0.0
C505 C 0.12788 0.28558 0.11893 0.0
C506 C 0.14689 0.27188 0.08335 0.0
C507 C 0.16266 0.28555 0.11714 0.0
H508 H 0.11837 0.26174 0.05464 0.0
H509 H 0.14801 0.26173 0.05314 0.0
S510 S 0.16391 0.32211 0.22542 0.0
N511 N 0.14247 0.31145 0.19529 0.0
N512 N 0.17448 0.31143 0.19338 0.0
C513 C 0.16047 0.29836 0.15596 0.0
C514 C 0.14312 0.29836 0.15697 0.0
C515 C 0.70182 0.842 0.1464 0.0
C516 C 0.71656 0.84056 0.11761 0.0
C517 C 0.70176 0.85898 0.14735 0.0
C518 C 0.71643 0.87534 0.11939 0.0
H519 H 0.68981 0.82974 0.16657 0.0
H520 H 0.6897 0.85903 0.16821 0.0
S521 S 0.75951 0.87971 0.04444 0.0
N522 N 0.74713 0.85743 0.06555 0.0
N523 N 0.74703 0.88941 0.06721 0.0
C524 C 0.73188 0.87444 0.09407 0.0
C525 C 0.73195 0.85706 0.09322 0.0
C526 C 0.14198 0.84603 0.14927 0.0
C527 C 0.12606 0.8434 0.11518 0.0
C528 C 0.1588 0.8632 0.14811 0.0
C529 C 0.16049 0.87856 0.11287 0.0
H530 H 0.14176 0.8345 0.17507 0.0
H531 H 0.17082 0.86416 0.17304 0.0
S532 S 0.12232 0.87993 1.0223 0.0
N533 N 0.11251 0.85831 0.0505 0.0
N534 N 0.14423 0.89065 0.04836 0.0
C535 C 0.14432 0.87664 0.08254 0.0
C536 C 0.1271 0.85905 0.08366 0.0
C537 C 0.30281 0.1429 0.89939 0.0
C538 C 0.28803 0.12677 0.92803 0.0
C539 C 0.30271 0.15985 0.89748 0.0
C540 C 0.28785 0.16151 0.9242 0.0
H541 H 0.31498 0.14269 0.88029 0.0
H542 H 0.31483 0.17196 0.87708 0.0
S543 S 0.24454 0.12285 0.99747 0.0
N544 N 0.25717 0.11303 0.97803 0.0
N545 N 0.257 0.14497 0.97453 0.0
C546 C 0.27233 0.14517 0.94896 0.0
C547 C 0.27242 0.12781 0.95086 0.0
C548 C 0.85969 0.12673 0.97189 0.0
C549 C 0.84469 0.12377 0.93163 0.0
C550 C 0.87664 0.14396 0.97199 0.0
C551 C 0.87914 0.15881 0.93187 0.0
H552 H 0.85797 0.1161 1.00622 0.0
H553 H 0.88739 0.14599 1.00634 0.0
S554 S 0.84564 0.15688 0.8086 0.0
N555 N 0.83454 0.13619 0.84407 0.0
N556 N 0.86626 0.16844 0.84441 0.0
C557 C 0.86484 0.15545 0.88781 0.0
C558 C 0.84765 0.13797 0.88763 0.0
C559 C 0.84369 0.70149 0.90555 0.0
C560 C 0.84223 0.71618 0.93471 0.0
C561 C 0.86068 0.70143 0.9046 0.0
C562 C 0.87704 0.71604 0.9329 0.0
H563 H 0.83143 0.68953 0.88505 0.0
H564 H 0.86075 0.68942 0.8834 0.0
S565 S 0.88136 0.75894 1.00913 0.0
N566 N 0.85908 0.74662 0.98767 0.0
N567 N 0.89108 0.74651 0.98599 0.0
C568 C 0.87612 0.73144 0.95869 0.0
C569 C 0.85872 0.7315 0.95956 0.0
C570 C 0.81385 0.60826 0.42547 0.0
C571 C 0.82952 0.62138 0.46106 0.0
C572 C 0.79681 0.60835 0.42718 0.0
C573 C 0.79483 0.62156 0.46459 0.0
H574 H 0.815 0.59848 0.39345 0.0
H575 H 0.78547 0.59864 0.39637 0.0
S576 S 0.83051 0.65651 0.57592 0.0
N577 N 0.84113 0.64621 0.54151 0.0
N578 N 0.8092 0.64637 0.54481 0.0
C579 C 0.80995 0.63379 0.5041 0.0
C580 C 0.82726 0.63371 0.5023 0.0
C581 C 0.39648 0.18884 0.43185 0.0
C582 C 0.38319 0.17336 0.46776 0.0
C583 C 0.39637 0.20587 0.43154 0.0
C584 C 0.38296 0.20802 0.46703 0.0
H585 H 0.40637 0.1875 0.40095 0.0
H586 H 0.40617 0.21703 0.40039 0.0
S587 S 0.34757 0.17308 0.57871 0.0
N588 N 0.35806 0.16228 0.54698 0.0
N589 N 0.35783 0.19416 0.54602 0.0
C590 C 0.3706 0.19317 0.50701 0.0
C591 C 0.37073 0.17589 0.50749 0.0
C592 C 0.81141 0.20734 0.41263 0.0
C593 C 0.82605 0.20969 0.45369 0.0
C594 C 0.79406 0.19053 0.41209 0.0
C595 C 0.79075 0.17551 0.45268 0.0
H596 H 0.81371 0.2181 0.37802 0.0
H597 H 0.78364 0.18893 0.377 0.0
S598 S 0.82314 0.17612 0.57822 0.0
N599 N 0.83508 0.19667 0.54235 0.0
N600 N 0.80258 0.16521 0.54168 0.0
C601 C 0.80472 0.17834 0.49767 0.0
C602 C 0.82234 0.19538 0.49806 0.0
C603 C 0.93419 0.47609 0.31212 0.0
C604 C 0.94525 0.49038 0.26806 0.0
C605 C 0.93406 0.45894 0.31187 0.0
C606 C 0.94499 0.45553 0.26753 0.0
H607 H 0.9266 0.47862 0.34981 0.0
H608 H 0.9264 0.44886 0.34939 0.0
S609 S 0.97296 0.48672 0.13341 0.0
N610 N 0.9649 0.49875 0.17252 0.0
N611 N 0.96465 0.46661 0.17203 0.0
C612 C 0.95463 0.469 0.21951 0.0
C613 C 0.95477 0.4864 0.21978 0.0
C614 C 0.53312 0.4856 0.226 0.0
C615 C 0.54806 0.48861 0.26662 0.0
C616 C 0.5161 0.46864 0.22661 0.0
C617 C 0.51324 0.45389 0.26772 0.0
H618 H 0.53418 0.4968 0.19573 0.0
H619 H 0.50474 0.46747 0.19687 0.0
S620 S 0.5488 0.45343 0.37625 0.0
N621 N 0.55965 0.47453 0.34354 0.0
N622 N 0.52754 0.44253 0.34454 0.0
C623 C 0.52858 0.45602 0.30434 0.0
C624 C 0.54602 0.47341 0.30383 0.0
C625 C 0.53958 0.06114 0.30297 0.0
C626 C 0.54125 0.04659 0.27358 0.0
C627 C 0.52249 0.06116 0.30239 0.0
C628 C 0.50642 0.04663 0.27236 0.0
H629 H 0.55131 0.0722 0.32901 0.0
H630 H 0.52171 0.07222 0.32804 0.0
S631 S 0.50417 0.00682 0.17988 0.0
N632 N 0.52588 0.0184 0.20737 0.0
N633 N 0.49393 0.01845 0.20621 0.0
C634 C 0.50826 0.03265 0.23935 0.0
C635 C 0.52561 0.03262 0.23997 0.0
C636 C 0.46387 0.94057 0.75479 0.0
C637 C 0.4613 0.95321 0.79341 0.0
C638 C 0.48095 0.94052 0.75496 0.0
C639 C 0.49609 0.95311 0.79378 0.0
H640 H 0.45298 0.93129 0.72173 0.0
H641 H 0.4826 0.93123 0.72199 0.0
S642 S 0.49531 0.98656 0.91242 0.0
N643 N 0.47448 0.97687 0.87775 0.0
N644 N 0.50644 0.97676 0.87818 0.0
C645 C 0.49318 0.96483 0.83603 0.0
C646 C 0.47584 0.96489 0.83582 0.0
C647 C 0.07079 0.54363 0.74253 0.0
C648 C 0.05975 0.54699 0.7865 0.0
C649 C 0.07075 0.52652 0.74256 0.0
C650 C 0.05967 0.51223 0.78661 0.0
H651 H 0.07849 0.55372 0.70505 0.0
H652 H 0.0784 0.52401 0.70509 0.0
S653 S 0.03165 0.51576 0.92041 0.0
N654 N 0.03992 0.53585 0.88164 0.0
N655 N 0.03987 0.50382 0.88175 0.0
C656 C 0.05004 0.51618 0.83455 0.0
C657 C 0.05007 0.53352 0.83448 0.0
C658 C 0.47058 0.51655 0.83113 0.0
C659 C 0.45601 0.51289 0.78776 0.0
C660 C 0.48759 0.53353 0.82983 0.0
C661 C 0.49082 0.54765 0.78511 0.0
H662 H 0.46925 0.50582 0.86437 0.0
H663 H 0.49864 0.53518 0.86213 0.0
S664 S 0.4562 0.54631 0.6677 0.0
N665 N 0.44509 0.52572 0.70389 0.0
N666 N 0.47716 0.55774 0.70145 0.0
C667 C 0.4758 0.54489 0.74528 0.0
C668 C 0.45838 0.52749 0.7466 0.0
C669 C 0.60771 0.81269 0.62824 0.0
C670 C 0.62056 0.82831 0.59195 0.0
C671 C 0.60787 0.79569 0.6261 0.0
C672 C 0.62089 0.79369 0.58757 0.0
H673 H 0.5981 0.81386 0.66109 0.0
H674 H 0.59839 0.7844 0.65743 0.0
S675 S 0.65507 0.82923 0.47435 0.0
N676 N 0.64489 0.83982 0.50979 0.0
N677 N 0.64519 0.808 0.50577 0.0
C678 C 0.63283 0.80875 0.54747 0.0
C679 C 0.63266 0.82602 0.54967 0.0
C680 C 0.19376 0.79545 0.62961 0.0
C681 C 0.17883 0.79275 0.58949 0.0
C682 C 0.21108 0.81229 0.62813 0.0
C683 C 0.21405 0.82696 0.58632 0.0
H684 H 0.19174 0.78498 0.66508 0.0
H685 H 0.22175 0.81421 0.66267 0.0
S686 S 0.18073 0.82523 0.46235 0.0
N687 N 0.16909 0.80498 0.50033 0.0
N688 N 0.20155 0.83646 0.49707 0.0
C689 C 0.19976 0.82372 0.54214 0.0
C690 C 0.18217 0.80667 0.54388 0.0
C691 C 0.19365 0.36649 0.55591 0.0
C692 C 0.20989 0.38072 0.58605 0.0
C693 C 0.17662 0.36645 0.55799 0.0
C694 C 0.17499 0.38065 0.5902 0.0
H695 H 0.19384 0.35483 0.5323 0.0
H696 H 0.16446 0.35478 0.5358 0.0
S697 S 0.21379 0.42238 0.67067 0.0
N698 N 0.22365 0.41037 0.64438 0.0
N699 N 0.19158 0.41029 0.6482 0.0
C700 C 0.19137 0.39563 0.61711 0.0
C701 C 0.20881 0.39567 0.61505 0.0
C702 C 0.01029 0.23596 0.08436 0.0
C703 C 0.02308 0.24272 0.03297 0.0
C704 C 0.99086 0.22597 0.07323 0.0
C705 C 0.98354 0.22295 1.01038 0.0
H706 H 0.01534 0.23866 0.13347 0.0
H707 H 0.98149 0.22137 0.1143 0.0
S708 S 0.0111 0.23754 0.85936 0.0
N709 N 0.02709 0.24512 0.91683 0.0
N710 N 0.99055 0.22704 0.89623 0.0
C711 C 0.99616 0.22936 0.95861 0.0
C712 C 0.01595 0.23906 0.96985 0.0
C713 C 0.78332 0.77242 1.02322 0.0
C714 C 0.77361 0.75309 1.00897 0.0
C715 C 0.77358 0.78201 0.03723 0.0
C716 C 0.75385 0.77241 0.04011 0.0
H717 H 0.79853 0.7802 1.02324 0.0
H718 H 0.78151 0.79697 0.04664 0.0
S719 S 0.72187 0.72185 1.00687 0.0
N720 N 0.74314 0.72481 0.99765 0.0
N721 N 0.72494 0.74268 0.02641 0.0
C722 C 0.74401 0.7531 0.02639 0.0
C723 C 0.75387 0.74348 1.01016 0.0
C724 C 0.22141 0.99299 0.02735 0.0
C725 C 0.23087 0.98286 0.03608 0.0
C726 C 0.23136 0.01233 1.01429 0.0
C727 C 0.251 0.02196 1.00682 0.0
H728 H 0.20624 0.98595 0.0312 0.0
H729 H 0.22364 0.01976 1.0094 0.0
S730 S 0.28224 0.0017 1.02325 0.0
N731 N 0.26093 0.98385 0.03626 0.0
N732 N 0.27952 0.01996 1.00919 0.0
C733 C 0.26056 0.01191 1.01444 0.0
C734 C 0.25051 0.99241 0.02975 0.0
C735 C 0.99514 0.76588 0.963 0.0
C736 C 0.98226 0.75852 1.01394 0.0
C737 C 0.01456 0.77579 0.9747 0.0
C738 C 0.02174 0.77812 0.0376 0.0
H739 H 0.9902 0.76374 0.91378 0.0
H740 H 0.02401 0.78091 0.9339 0.0
S741 S 0.9938 0.76159 0.18755 0.0
N742 N 0.97796 0.75468 0.12974 0.0
N743 N 0.01444 0.77263 0.15136 0.0
C744 C 0.00899 0.77105 0.08895 0.0
C745 C 0.98924 0.76143 0.0772 0.0
C746 C 0.23161 0.21985 1.01493 0.0
C747 C 0.25114 0.22986 1.00462 0.0
C748 C 0.22172 0.22925 0.02969 0.0
C749 C 0.23118 0.24887 0.03737 0.0
H750 H 0.2239 0.20469 1.01089 0.0
H751 H 0.20662 0.22111 0.03562 0.0
S752 S 0.28231 0.28143 1.01724 0.0
N753 N 0.27955 0.26042 1.00324 0.0
N754 N 0.26113 0.27797 0.03347 0.0
C755 C 0.25073 0.25897 0.02824 0.0
C756 C 0.26068 0.24949 1.0112 0.0
C757 C 0.77771 0.01251 0.07589 0.0
C758 C 0.78044 0.01962 1.01284 0.0
C759 C 0.76745 0.99313 0.08774 0.0
C760 C 0.7601 0.98021 0.03685 0.0
H761 H 0.78274 0.02199 0.11665 0.0
H762 H 0.76498 0.98826 0.13703 0.0
S763 S 0.76428 0.99157 0.86291 0.0
N764 N 0.77546 0.01222 0.89899 0.0
N765 N 0.75681 0.97579 0.92093 0.0
C766 C 0.76347 0.9871 0.97348 0.0
C767 C 0.77347 0.00683 0.96154 0.0
C768 C 0.65795 0.55943 0.41429 0.0
C769 C 0.65101 0.55692 0.351 0.0
C770 C 0.67728 0.56994 0.42702 0.0
C771 C 0.69035 0.57778 0.37677 0.0
H772 H 0.64835 0.55397 0.45461 0.0
H773 H 0.682 0.57218 0.47651 0.0
S774 S 0.67949 0.57446 0.20248 0.0
N775 N 0.65874 0.56272 0.23759 0.0
N776 N 0.6951 0.58186 0.26116 0.0
C777 C 0.68364 0.57471 0.31312 0.0
C778 C 0.66395 0.56444 0.30031 0.0
C779 C 0.4442 0.09747 0.41045 0.0
C780 C 0.446 0.09236 0.34723 0.0
C781 C 0.43423 0.10686 0.42345 0.0
C782 C 0.42628 0.11203 0.3735 0.0
H783 H 0.44969 0.09333 0.45061 0.0
H784 H 0.43245 0.10979 0.47296 0.0
S785 S 0.42796 0.10295 0.19944 0.0
N786 N 0.43947 0.09366 0.23417 0.0
N787 N 0.42143 0.11202 0.25818 0.0
C788 C 0.42874 0.10781 0.30985 0.0
C789 C 0.43842 0.09777 0.2968 0.0
C790 C 0.89641 0.32595 0.42246 0.0
C791 C 0.89048 0.31344 0.37023 0.0
C792 C 0.90573 0.34542 0.41262 0.0
C793 C 0.90997 0.35305 0.35024 0.0
H794 H 0.89404 0.32066 0.47124 0.0
H795 H 0.91036 0.35457 0.45429 0.0
S796 S 0.89721 0.32628 0.19738 0.0
N797 N 0.88892 0.31002 0.25382 0.0
N798 N 0.90709 0.34662 0.23561 0.0
C799 C 0.90388 0.3407 0.29764 0.0
C800 C 0.89394 0.32088 0.30758 0.0
C801 C 0.67464 0.10677 0.41379 0.0
C802 C 0.6871 0.11175 0.3617 0.0
C803 C 0.65514 0.09731 0.40397 0.0
C804 C 0.64743 0.09195 0.34189 0.0
H805 H 0.67997 0.10996 0.46251 0.0
H806 H 0.64603 0.09336 0.44565 0.0
S807 S 0.67408 0.102 0.1894 0.0
N808 N 0.69042 0.1113 0.24558 0.0
N809 N 0.65376 0.09279 0.22757 0.0
C810 C 0.65975 0.09714 0.28935 0.0
C811 C 0.6796 0.10724 0.29916 0.0
C812 C 0.89722 0.5718 0.42687 0.0
C813 C 0.89089 0.57804 0.37496 0.0
C814 C 0.90653 0.56163 0.41652 0.0
C815 C 0.91039 0.55791 0.3539 0.0
H816 H 0.89519 0.57501 0.47574 0.0
H817 H 0.91149 0.55738 0.4579 0.0
S818 S 0.89652 0.57098 0.20178 0.0
N819 N 0.88855 0.57924 0.25868 0.0
N820 N 0.90673 0.56079 0.23946 0.0
C821 C 0.90389 0.56383 0.30166 0.0
C822 C 0.89395 0.57372 0.31216 0.0
C823 C 0.44976 0.34152 0.36517 0.0
C824 C 0.44032 0.35158 0.35426 0.0
C825 C 0.43977 0.32227 0.37963 0.0
C826 C 0.42012 0.31269 0.38641 0.0
H827 H 0.46493 0.34854 0.36181 0.0
H828 H 0.44747 0.31487 0.38607 0.0
S829 S 0.38892 0.33279 0.36435 0.0
N830 N 0.41027 0.35057 0.35122 0.0
N831 N 0.3916 0.31463 0.38101 0.0
C832 C 0.41058 0.32267 0.37667 0.0
C833 C 0.42066 0.34207 0.35989 0.0
C834 C 0.33029 0.89614 0.63529 0.0
C835 C 0.31702 0.89062 0.68508 0.0
C836 C 0.3496 0.90545 0.6486 0.0
C837 C 0.35634 0.91009 0.71207 0.0
H838 H 0.32572 0.89353 0.58563 0.0
H839 H 0.35932 0.90987 0.60857 0.0
S840 S 0.32738 0.8983 0.85972 0.0
N841 N 0.31193 0.88972 0.80059 0.0
N842 N 0.34825 0.90789 0.82522 0.0
C843 C 0.34323 0.9043 0.76235 0.0
C844 C 0.32356 0.89437 0.74895 0.0
C845 C 0.10235 0.43981 0.74082 0.0
C846 C 0.09448 0.44487 0.69029 0.0
C847 C 0.11186 0.42991 0.72885 0.0
C848 C 0.11328 0.42421 0.66617 0.0
H849 H 0.10093 0.4433 0.78999 0.0
H850 H 0.11736 0.42594 0.76943 0.0
S851 S 0.0952 0.43418 0.51722 0.0
N852 N 0.08922 0.44401 0.57499 0.0
N853 N 0.10644 0.42474 0.55295 0.0
C854 C 0.10572 0.42943 0.61515 0.0
C855 C 0.09649 0.43995 0.62712 0.0
C856 C 0.56448 0.6623 0.7385 0.0
C857 C 0.5588 0.64935 0.68764 0.0
C858 C 0.57415 0.68169 0.72671 0.0
C859 C 0.57899 0.6888 0.66377 0.0
H860 H 0.56164 0.65743 0.78777 0.0
H861 H 0.5786 0.69117 0.76748 0.0
S862 S 0.56707 0.66072 0.51387 0.0
N863 N 0.55811 0.64494 0.57177 0.0
N864 N 0.57694 0.68138 0.55 0.0
C865 C 0.57314 0.676 0.61246 0.0
C866 C 0.56286 0.65626 0.62432 0.0
C867 C 0.34083 0.43831 0.74083 0.0
C868 C 0.35414 0.44428 0.69106 0.0
C869 C 0.32152 0.42838 0.72748 0.0
C870 C 0.31485 0.42357 0.664 0.0
H871 H 0.34537 0.44109 0.79049 0.0
H872 H 0.31178 0.42369 0.76748 0.0
S873 S 0.34393 0.4363 0.5164 0.0
N874 N 0.35932 0.44533 0.57556 0.0
N875 N 0.32302 0.42604 0.55086 0.0
C876 C 0.32799 0.42976 0.61374 0.0
C877 C 0.34764 0.44029 0.62718 0.0
C878 C 0.57203 0.89174 0.74004 0.0
C879 C 0.57738 0.89015 0.67696 0.0
C880 C 0.56264 0.90171 0.75304 0.0
C881 C 0.55769 0.90989 0.70319 0.0
H882 H 0.57596 0.88604 0.78015 0.0
H883 H 0.5595 0.90329 0.8025 0.0
S884 S 0.5675 0.90888 0.52942 0.0
N885 N 0.57657 0.89716 0.5641 0.0
N886 N 0.55824 0.91522 0.58805 0.0
C887 C 0.56219 0.90767 0.63963 0.0
C888 C 0.57222 0.89799 0.62662 0.0
C889 C 0.10351 0.66217 0.74326 0.0
C890 C 0.09578 0.64931 0.69233 0.0
C891 C 0.11327 0.68157 0.73176 0.0
C892 C 0.1151 0.68876 0.66913 0.0
H893 H 0.1018 0.65722 0.79236 0.0
H894 H 0.11867 0.69099 0.77261 0.0
S895 S 0.09753 0.6609 0.51923 0.0
N896 N 0.09108 0.64504 0.57673 0.0
N897 N 0.10878 0.68152 0.55554 0.0
C898 C 0.10767 0.67604 0.61773 0.0
C899 C 0.09818 0.6563 0.62924 0.0
C900 C 0.08921 0.32355 0.7992 0.0
C901 C 0.09773 0.34318 0.79535 0.0
C902 C 0.08489 0.31438 0.85878 0.0
C903 C 0.08884 0.32441 0.91729 0.0
H904 H 0.08655 0.3152 0.75603 0.0
H905 H 0.0789 0.29928 0.85871 0.0
S906 S 0.10872 0.37587 0.93345 0.0
N907 N 0.1082 0.37225 0.85523 0.0
N908 N 0.10014 0.355 0.96694 0.0
C909 C 0.09633 0.34395 0.91404 0.0
C910 C 0.10076 0.35331 0.85324 0.0
C911 C 0.66072 0.75544 0.90171 0.0
C912 C 0.68043 0.76538 0.90526 0.0
C913 C 0.65145 0.75077 0.84227 0.0
C914 C 0.66146 0.75575 0.78364 0.0
H915 H 0.65233 0.75186 0.9451 0.0
H916 H 0.63625 0.74365 0.84258 0.0
S917 S 0.71331 0.77962 0.76657 0.0
N918 N 0.70971 0.7784 0.84492 0.0
N919 N 0.69226 0.76966 0.73339 0.0
C920 C 0.68117 0.76472 0.78652 0.0
C921 C 0.69064 0.76953 0.84718 0.0
C922 C 0.24698 0.90557 0.8991 0.0
C923 C 0.23619 0.91448 0.90126 0.0
C924 C 0.25219 0.90109 0.84037 0.0
C925 C 0.24691 0.90535 0.78096 0.0
H926 H 0.25096 0.90144 0.94307 0.0
H927 H 0.26006 0.89376 0.84189 0.0
S928 S 0.22043 0.93064 0.75984 0.0
N929 N 0.22175 0.92892 0.83846 0.0
N930 N 0.23149 0.92039 0.72835 0.0
C931 C 0.23691 0.91512 0.78234 0.0
C932 C 0.23157 0.91968 0.8423 0.0
C933 C 0.31542 0.08629 0.19966 0.0
C934 C 0.32517 0.08827 0.14158 0.0
C935 C 0.32451 0.09011 0.25942 0.0
C936 C 0.34376 0.09617 0.26368 0.0
H937 H 0.3007 0.08226 0.19914 0.0
H938 H 0.31655 0.0891 0.30225 0.0
S939 S 0.37527 0.10121 0.12745 0.0
N940 N 0.35486 0.09496 0.09324 0.0
N941 N 0.37192 0.10213 0.20529 0.0
C942 C 0.35347 0.09721 0.20645 0.0
C943 C 0.3442 0.09327 0.14555 0.0
C944 C 0.8986 0.24899 0.19547 0.0
C945 C 0.90497 0.24574 0.2545 0.0
C946 C 0.9038 0.24469 0.1363 0.0
C947 C 0.91561 0.23691 0.13333 0.0
H948 H 0.889 0.25442 0.19467 0.0
H949 H 0.8979 0.24681 0.09276 0.0
S950 S 0.93824 0.22792 0.27297 0.0
N951 N 0.9252 0.23586 0.30547 0.0
N952 N 0.9351 0.22788 0.19464 0.0
C953 C 0.92294 0.23455 0.19173 0.0
C954 C 0.91762 0.23892 0.25209 0.0
C955 C 0.76889 0.68019 0.26265 0.0
C956 C 0.75591 0.6609 0.26697 0.0
C957 C 0.774 0.68925 0.20289 0.0
C958 C 0.76628 0.67945 0.14489 0.0
H959 H 0.77584 0.68819 0.30538 0.0
H960 H 0.78456 0.70401 0.20228 0.0
S961 S 0.72954 0.62923 0.13102 0.0
N962 N 0.73388 0.63264 0.20879 0.0
N963 N 0.74348 0.64966 0.09673 0.0
C964 C 0.7524 0.66038 0.14896 0.0
C965 C 0.74723 0.65113 0.20986 0.0
C966 C 0.90472 0.65813 0.13623 0.0
C967 C 0.91665 0.67764 0.13199 0.0
C968 C 0.89985 0.64906 0.19596 0.0
C969 C 0.90675 0.65907 0.25417 0.0
H970 H 0.89839 0.64988 0.09334 0.0
H971 H 0.89008 0.63408 0.19631 0.0
S972 S 0.94078 0.71007 0.26872 0.0
N973 N 0.93697 0.70646 0.19075 0.0
N974 N 0.92775 0.6894 0.30282 0.0
C975 C 0.91964 0.67843 0.25035 0.0
C976 C 0.92458 0.68769 0.18941 0.0
C977 C 0.31655 0.23024 0.19029 0.0
C978 C 0.32654 0.23674 0.132 0.0
C979 C 0.32577 0.23475 0.24983 0.0
C980 C 0.34542 0.24583 0.25367 0.0
H981 H 0.30143 0.22116 0.19013 0.0
H982 H 0.31748 0.22887 0.29293 0.0
S983 S 0.37806 0.26829 0.11638 0.0
N984 N 0.35715 0.25626 0.08272 0.0
N985 N 0.37449 0.26469 0.19441 0.0
C986 C 0.35554 0.25321 0.19611 0.0
C987 C 0.34612 0.2487 0.13542 0.0
C988 C 0.75793 0.09895 0.13394 0.0
C989 C 0.76618 0.08755 0.1317 0.0
C990 C 0.75309 0.10382 0.19271 0.0
C991 C 0.75624 0.09752 0.25203 0.0
H992 H 0.75581 0.10474 0.09018 0.0
H993 H 0.74729 0.1131 0.19138 0.0
S994 S 0.77528 0.06532 0.27229 0.0
N995 N 0.77563 0.06855 0.19394 0.0
N996 N 0.76665 0.07785 0.30401 0.0
C997 C 0.76358 0.08531 0.25031 0.0
C998 C 0.7685 0.08031 0.19036 0.0
C999 C 0.6491 0.89876 0.8571 0.0
C1000 C 0.65902 0.90552 0.79871 0.0
C1001 C 0.65832 0.90348 0.91668 0.0
C1002 C 0.6779 0.91515 0.92061 0.0
H1003 H 0.63407 0.88919 0.85702 0.0
H1004 H 0.65011 0.89727 0.95968 0.0
S1005 S 0.71021 0.93878 0.7833 0.0
N1006 N 0.68939 0.92607 0.74959 0.0
N1007 N 0.70672 0.93503 0.86131 0.0
C1008 C 0.68788 0.92293 0.86301 0.0
C1009 C 0.67847 0.91812 0.80223 0.0
C1010 C 0.09222 0.7669 0.79871 0.0
C1011 C 0.10079 0.75579 0.79539 0.0
C1012 C 0.08739 0.77151 0.85801 0.0
C1013 C 0.09087 0.76523 0.91682 0.0
H1014 H 0.08984 0.77267 0.75537 0.0
H1015 H 0.08136 0.7806 0.85752 0.0
S1016 S 0.11084 0.73375 0.93432 0.0
N1017 N 0.11091 0.73709 0.85612 0.0
N1018 N 0.10193 0.74589 0.96716 0.0
C1019 C 0.09852 0.7533 0.91403 0.0
C1020 C 0.10345 0.74858 0.85355 0.0
C1021 C 0.24802 0.34098 0.89752 0.0
C1022 C 0.23758 0.3213 0.90105 0.0
C1023 C 0.25294 0.35022 0.83809 0.0
C1024 C 0.24774 0.3402 0.77945 0.0
H1025 H 0.25182 0.3494 0.9409 0.0
H1026 H 0.26045 0.36543 0.83838 0.0
S1027 S 0.22248 0.28833 0.76233 0.0
N1028 N 0.22379 0.29197 0.84067 0.0
N1029 N 0.23302 0.30936 0.72918 0.0
C1030 C 0.23825 0.32048 0.78232 0.0
C1031 C 0.23317 0.31105 0.84297 0.0
C1032 C 0.99287 0.42736 0.58425 0.0
C1033 C 0.01231 0.43417 0.58622 0.0
C1034 C 0.98309 0.42275 0.52569 0.0
C1035 C 0.99227 0.42473 0.46627 0.0
H1036 H 0.9852 0.42613 0.62805 0.0
H1037 H 0.9682 0.41803 0.52722 0.0
S1038 S 0.04272 0.43988 0.44533 0.0
N1039 N 0.04016 0.44109 0.52358 0.0
N1040 N 0.02175 0.43258 0.41396 0.0
C1041 C 0.01157 0.43077 0.46771 0.0
C1042 C 0.02155 0.43542 0.52744 0.0
C1043 C 0.56786 0.57471 0.46901 0.0
C1044 C 0.5791 0.56629 0.46728 0.0
C1045 C 0.56287 0.57959 0.52754 0.0
C1046 C 0.56884 0.57625 0.58727 0.0
H1047 H 0.56243 0.57716 0.42492 0.0
H1048 H 0.55384 0.58567 0.52564 0.0
S1049 S 0.60003 0.55612 0.60952 0.0
N1050 N 0.59725 0.55604 0.53097 0.0
N1051 N 0.58769 0.56507 0.64041 0.0
C1052 C 0.58066 0.56846 0.58624 0.0
C1053 C 0.58582 0.56353 0.52654 0.0
C1054 C 0.41661 0.98241 0.53635 0.0
C1055 C 0.42119 0.9924 0.59506 0.0
C1056 C 0.42059 0.99164 0.47693 0.0
C1057 C 0.42938 0.01129 0.47348 0.0
H1058 H 0.41043 0.96729 0.53593 0.0
H1059 H 0.41751 0.98332 0.43349 0.0
S1060 S 0.44184 0.04393 0.61246 0.0
N1061 N 0.43325 0.023 0.64551 0.0
N1062 N 0.44066 0.04037 0.53408 0.0
C1063 C 0.43295 0.0214 0.53168 0.0
C1064 C 0.42888 0.01198 0.5923 0.0
C1065 C 0.58193 0.01217 0.5921 0.0
C1066 C 0.57524 0.9928 0.59605 0.0
C1067 C 0.58621 0.02136 0.53254 0.0
C1068 C 0.58403 0.0116 0.4743 0.0
H1069 H 0.58303 0.02017 0.63494 0.0
H1070 H 0.59062 0.03617 0.5323 0.0
S1071 S 0.56988 0.96123 0.4595 0.0
N1072 N 0.56879 0.96453 0.53731 0.0
N1073 N 0.57676 0.98179 0.42559 0.0
C1074 C 0.57857 0.99246 0.47802 0.0
C1075 C 0.57419 0.98309 0.53875 0.0
C1076 C 0.9838 0.56166 0.5269 0.0
C1077 C 0.99299 0.56856 0.46736 0.0
C1078 C 0.99366 0.5667 0.58533 0.0
C1079 C 0.01318 0.57889 0.58704 0.0
H1080 H 0.96884 0.55182 0.52863 0.0
H1081 H 0.98596 0.56048 0.62921 0.0
S1082 S 0.04371 0.60274 0.4458 0.0
N1083 N 0.02261 0.58949 0.4147 0.0
N1084 N 0.04116 0.59913 0.52407 0.0
C1085 C 0.02245 0.58661 0.52817 0.0
C1086 C 0.01239 0.58142 0.46857 0.0
C1087 C 0.42784 0.43377 0.47953 0.0
C1088 C 0.43778 0.42398 0.47824 0.0
C1089 C 0.42278 0.43866 0.53783 0.0
C1090 C 0.42741 0.434 0.59779 0.0
H1091 H 0.42428 0.43813 0.43517 0.0
H1092 H 0.41547 0.44655 0.53549 0.0
S1093 S 0.45188 0.40683 0.62141 0.0
N1094 N 0.45096 0.40859 0.54266 0.0
N1095 N 0.44153 0.41792 0.65182 0.0
C1096 C 0.43675 0.42359 0.59731 0.0
C1097 C 0.4419 0.41857 0.53779 0.0
C1098 C 0.09659 0.34559 0.30904 0.0
C1099 C 0.08703 0.32656 0.29038 0.0
C1100 C 0.09901 0.3509 0.37421 0.0
C1101 C 0.09236 0.33737 0.42344 0.0
H1102 H 0.10284 0.35651 0.273 0.0
H1103 H 0.10714 0.36569 0.386 0.0
S1104 S 0.06499 0.28571 0.40071 0.0
N1105 N 0.06954 0.29419 0.32691 0.0
N1106 N 0.07457 0.30413 0.44903 0.0
C1107 C 0.082 0.31833 0.40551 0.0
C1108 C 0.0792 0.31293 0.33914 0.0
C1109 C 0.65104 0.74714 0.3634 0.0
C1110 C 0.66455 0.75449 0.41271 0.0
C1111 C 0.65636 0.74968 0.29824 0.0
C1112 C 0.67541 0.75927 0.27973 0.0
H1113 H 0.63622 0.74036 0.37504 0.0
H1114 H 0.64543 0.74466 0.26207 0.0
S1115 S 0.71627 0.77925 0.39059 0.0
N1116 N 0.69781 0.77049 0.43867 0.0
N1117 N 0.70781 0.77477 0.3167 0.0
C1118 C 0.68904 0.76554 0.32871 0.0
C1119 C 0.68362 0.7633 0.395 0.0
C1120 C 0.25563 0.92255 0.30789 0.0
C1121 C 0.23867 0.9107 0.27577 0.0
C1122 C 0.25808 0.91953 0.37318 0.0
C1123 C 0.24339 0.90501 0.40871 0.0
H1124 H 0.26714 0.93392 0.28216 0.0
H1125 H 0.27143 0.92868 0.3961 0.0
S1126 S 0.19626 0.87038 0.34605 0.0
N1127 N 0.20717 0.88394 0.28386 0.0
N1128 N 0.21139 0.87871 0.40608 0.0
C1129 C 0.22633 0.89335 0.37691 0.0
C1130 C 0.22407 0.89609 0.31058 0.0
C1131 C 0.35303 0.09684 0.68391 0.0
C1132 C 0.33947 0.09061 0.63473 0.0
C1133 C 0.34777 0.09445 0.7491 0.0
C1134 C 0.32874 0.08533 0.76778 0.0
H1135 H 0.36784 0.10466 0.6721 0.0
H1136 H 0.35873 0.10041 0.78514 0.0
S1137 S 0.28777 0.06441 0.65745 0.0
N1138 N 0.30618 0.07363 0.60914 0.0
N1139 N 0.29629 0.06864 0.73124 0.0
C1140 C 0.31505 0.07787 0.719 0.0
C1141 C 0.32041 0.08066 0.65265 0.0
C1142 C 0.90496 0.24927 0.74191 0.0
C1143 C 0.91482 0.23998 0.75911 0.0
C1144 C 0.90213 0.2521 0.67709 0.0
C1145 C 0.90858 0.24528 0.62675 0.0
H1146 H 0.89893 0.25395 0.77888 0.0
H1147 H 0.89392 0.25875 0.66644 0.0
S1148 S 0.93612 0.22102 0.64542 0.0
N1149 N 0.93207 0.22506 0.7199 0.0
N1150 N 0.92618 0.22976 0.59857 0.0
C1151 C 0.91901 0.23657 0.6432 0.0
C1152 C 0.9223 0.2341 0.70916 0.0
C1153 C 0.76668 0.6874 0.7232 0.0
C1154 C 0.75976 0.67383 0.77231 0.0
C1155 C 0.76435 0.68215 0.658 0.0
C1156 C 0.75461 0.66313 0.63917 0.0
H1157 H 0.77496 0.70217 0.73512 0.0
H1158 H 0.7708 0.69308 0.62209 0.0
S1159 S 0.73184 0.62222 0.74903 0.0
N1160 N 0.74152 0.64059 0.79754 0.0
N1161 N 0.73667 0.63076 0.67531 0.0
C1162 C 0.74651 0.64948 0.68775 0.0
C1163 C 0.74922 0.65482 0.75418 0.0
C1164 C 0.9207 0.68088 0.64637 0.0
C1165 C 0.91115 0.66185 0.62761 0.0
C1166 C 0.92339 0.68615 0.71158 0.0
C1167 C 0.91623 0.6726 0.7607 0.0
H1168 H 0.92558 0.69182 0.61036 0.0
H1169 H 0.93014 0.70094 0.72343 0.0
S1170 S 0.89163 0.62094 0.73775 0.0
N1171 N 0.89588 0.62945 0.66398 0.0
N1172 N 0.90044 0.63934 0.78614 0.0
C1173 C 0.90746 0.65355 0.7427 0.0
C1174 C 0.90507 0.64819 0.67632 0.0
C1175 C 0.31713 0.23728 0.71079 0.0
C1176 C 0.33073 0.24406 0.75989 0.0
C1177 C 0.32236 0.23956 0.64558 0.0
C1178 C 0.34138 0.24911 0.62676 0.0
H1179 H 0.30235 0.22911 0.72273 0.0
H1180 H 0.31139 0.23318 0.60967 0.0
S1181 S 0.38238 0.27158 0.73672 0.0
N1182 N 0.364 0.26205 0.78518 0.0
N1183 N 0.37381 0.26682 0.663 0.0
C1184 C 0.35507 0.25713 0.67538 0.0
C1185 C 0.34975 0.25446 0.74179 0.0
C1186 C 0.7495 0.07964 0.72606 0.0
C1187 C 0.76628 0.09219 0.758 0.0
C1188 C 0.74668 0.08238 0.66082 0.0
C1189 C 0.76084 0.09731 0.62508 0.0
H1190 H 0.73841 0.06792 0.75191 0.0
H1191 H 0.73347 0.07269 0.63808 0.0
S1192 S 0.80735 0.13368 0.68664 0.0
N1193 N 0.79705 0.12001 0.74914 0.0
N1194 N 0.79217 0.12466 0.62698 0.0
C1195 C 0.77772 0.10965 0.65657 0.0
C1196 C 0.78033 0.10721 0.72288 0.0
C1197 C 0.68642 0.92161 0.34147 0.0
C1198 C 0.67293 0.91461 0.29202 0.0
C1199 C 0.68105 0.91901 0.40658 0.0
C1200 C 0.66199 0.90972 0.42493 0.0
H1201 H 0.70123 0.92819 0.32995 0.0
H1202 H 0.69194 0.92377 0.44285 0.0
S1203 S 0.62123 0.89061 0.31381 0.0
N1204 N 0.6397 0.89918 0.26584 0.0
N1205 N 0.62964 0.8948 0.38777 0.0
C1206 C 0.64841 0.90377 0.37587 0.0
C1207 C 0.65387 0.90606 0.3096 0.0
C1208 C 0.08712 0.76521 0.4042 0.0
C1209 C 0.09675 0.75572 0.42167 0.0
C1210 C 0.08406 0.76771 0.3393 0.0
C1211 C 0.09098 0.7613 0.28919 0.0
H1212 H 0.08237 0.77124 0.44097 0.0
H1213 H 0.07717 0.77569 0.3284 0.0
S1214 S 0.11603 0.73456 0.30872 0.0
N1215 N 0.11205 0.73877 0.38306 0.0
N1216 N 0.1069 0.74406 0.26156 0.0
C1217 C 0.09999 0.75118 0.30596 0.0
C1218 C 0.1027 0.74822 0.372 0.0
C1219 C 0.25389 0.34563 0.29417 0.0
C1220 C 0.24433 0.3266 0.27547 0.0
C1221 C 0.25645 0.35092 0.35938 0.0
C1222 C 0.24914 0.33739 0.40854 0.0
H1223 H 0.25887 0.35656 0.2581 0.0
H1224 H 0.26321 0.36572 0.37118 0.0
S1225 S 0.22446 0.28572 0.3859 0.0
N1226 N 0.2289 0.29421 0.3121 0.0
N1227 N 0.23322 0.30414 0.43417 0.0
C1228 C 0.24036 0.31834 0.39064 0.0
C1229 C 0.23811 0.31295 0.32431 0.0
C1230 C 1.00253 0.44556 0.99218 0.0
C1231 C 0.00703 0.43328 0.95963 0.0
C1232 C 0.99744 0.44303 0.05734 0.0
C1233 C 0.99603 0.42777 0.09238 0.0
H1234 H 0.00338 0.45754 0.96745 0.0
H1235 H 0.99432 0.453 0.08031 0.0
S1236 S 0.00581 0.39127 0.02977 0.0
N1237 N 0.00987 0.40533 0.96774 0.0
N1238 N 0.99924 0.39998 0.08962 0.0
C1239 C 1.0001 0.41513 0.06038 0.0
C1240 C 0.00591 0.41807 0.99424 0.0
C1241 C 0.55947 0.55407 0.05838 0.0
C1242 C 0.57504 0.5676 0.09323 0.0
C1243 C 0.55695 0.5567 0.99332 0.0
C1244 C 0.56956 0.57324 0.96066 0.0
H1245 H 0.54924 0.54114 0.08137 0.0
H1246 H 0.54474 0.54578 0.96871 0.0
S1247 S 0.61249 0.61322 0.03025 0.0
N1248 N 0.60348 0.59808 0.09012 0.0
N1249 N 0.59818 0.60351 0.96846 0.0
C1250 C 0.58509 0.58705 0.99508 0.0
C1251 C 0.588 0.58408 0.06111 0.0
C1252 C 0.41637 0.98834 0.08054 0.0
C1253 C 0.42605 0.00738 0.09909 0.0
C1254 C 0.41396 0.98299 1.01539 0.0
C1255 C 0.42154 0.99646 0.96609 0.0
H1256 H 0.41112 0.97743 0.11674 0.0
H1257 H 0.40705 0.96816 1.0038 0.0
S1258 S 0.44678 0.04817 0.9883 0.0
N1259 N 0.442 0.03974 0.06216 0.0
N1260 N 0.43797 0.02971 0.9402 0.0
C1261 C 0.43051 0.01554 0.98381 0.0
C1262 C 0.43262 0.02099 0.0501 0.0
C1263 C 0.57438 0.98532 1.01576 0.0
C1264 C 0.57831 0.99857 0.96675 0.0
C1265 C 0.57698 0.9906 0.08099 0.0
C1266 C 0.58408 0.00942 0.09984 0.0
H1267 H 0.56828 0.97058 1.00397 0.0
H1268 H 0.57287 0.97976 0.11704 0.0
S1269 S 0.59804 0.04983 0.99033 0.0
N1270 N 0.59062 0.03156 0.94178 0.0
N1271 N 0.59596 0.04149 0.06384 0.0
C1272 C 0.58908 0.02296 0.05122 0.0
C1273 C 0.58607 0.01754 0.98489 0.0
C1274 C 0.00558 0.58695 0.99462 0.0
C1275 C 0.00807 0.57348 0.96069 0.0
C1276 C 0.99982 0.58413 0.05974 0.0
C1277 C 0.99718 0.56815 0.09358 0.0
H1278 H 0.00779 0.59954 0.97045 0.0
H1279 H 0.99774 0.59462 0.08397 0.0
S1280 S 1.00241 0.5291 0.02702 0.0
N1281 N 0.00741 0.54366 0.96608 0.0
N1282 N 0.99754 0.53883 0.08802 0.0
C1283 C 0.99994 0.55483 0.06023 0.0
C1284 C 0.00516 0.55738 0.99396 0.0
C1285 C 0.41965 0.41595 0.06857 0.0
C1286 C 0.43531 0.42932 0.1038 0.0
C1287 C 0.41705 0.41913 1.00355 0.0
C1288 C 0.43044 0.4354 0.97108 0.0
H1289 H 0.40926 0.40312 0.09158 0.0
H1290 H 0.40472 0.40867 0.97826 0.0
S1291 S 0.47406 0.47436 0.04132 0.0
N1292 N 0.46428 0.45938 0.10106 0.0
N1293 N 0.45985 0.4649 0.97933 0.0
C1294 C 0.44621 0.44865 1.00576 0.0
C1295 C 0.44854 0.44572 0.07193 0.0
loop_
_geom_bond_atom_site_label_1
_geom_bond_atom_site_label_2
_geom_bond_distance
_geom_bond_site_symmetry_2
_ccdc_geom_bond_type
O0 Cd1 2.223 . S
O0 C8 1.315 . S
Cd1 O0 2.223 . S
Cd1 O4 2.297 . S
Cd1 O5 2.439 . S
Cd1 O11 2.240 1_554 S
Cd2 O3 2.240 . S
Cd2 O10 2.223 1_554 S
Cd2 O12 2.297 1_554 S
Cd2 O13 2.439 . S
O3 Cd2 2.240 . S
O3 C8 1.279 . S
O4 Cd1 2.297 . S
O4 C6 1.247 . S
O5 Cd1 2.439 . S
O5 C6 1.208 . S
C6 O4 1.247 . S
C6 O5 1.208 . S
C7 O12 1.247 1_554 S
C7 O13 1.208 . S
C8 O0 1.315 . S
C8 O3 1.279 . S
C9 O10 1.315 . S
C9 O11 1.279 . S
O10 Cd2 2.223 1_556 S
O10 C9 1.315 . S
O11 Cd1 2.240 1_556 S
O11 C9 1.279 . S
O12 Cd2 2.297 1_556 S
O12 C7 1.247 1_556 S
O13 Cd2 2.439 . S
O13 C7 1.208 . S
O14 Cd15 2.223 . S
O14 C22 1.315 . S
Cd15 O14 2.223 . S
Cd15 O18 2.297 . S
Cd15 O19 2.439 . S
Cd15 O25 2.240 1_554 S
Cd16 O17 2.240 . S
Cd16 O24 2.223 1_554 S
Cd16 O26 2.297 1_554 S
Cd16 O27 2.439 . S
O17 Cd16 2.240 . S
O17 C22 1.279 . S
O18 Cd15 2.297 . S
O18 C20 1.247 . S
O19 Cd15 2.439 . S
O19 C20 1.208 . S
C20 O18 1.247 . S
C20 O19 1.208 . S
C21 O26 1.247 1_554 S
C21 O27 1.208 . S
C22 O14 1.315 . S
C22 O17 1.279 . S
C23 O24 1.315 . S
C23 O25 1.279 . S
O24 Cd16 2.223 1_556 S
O24 C23 1.315 . S
O25 Cd15 2.240 1_556 S
O25 C23 1.279 . S
O26 Cd16 2.297 1_556 S
O26 C21 1.247 1_556 S
O27 Cd16 2.439 . S
O27 C21 1.208 . S
O28 Cd29 2.223 . S
O28 C36 1.315 . S
Cd29 O28 2.223 . S
Cd29 O32 2.297 . S
Cd29 O33 2.439 . S
Cd29 O39 2.240 1_554 S
Cd30 O31 2.240 . S
Cd30 O38 2.223 1_554 S
Cd30 O40 2.297 1_554 S
Cd30 O41 2.439 . S
O31 Cd30 2.240 . S
O31 C36 1.279 . S
O32 Cd29 2.297 . S
O32 C34 1.247 . S
O33 Cd29 2.439 . S
O33 C34 1.208 . S
C34 O32 1.247 . S
C34 O33 1.208 . S
C35 O40 1.247 1_554 S
C35 O41 1.208 . S
C36 O28 1.315 . S
C36 O31 1.279 . S
C37 O38 1.315 . S
C37 O39 1.279 . S
O38 Cd30 2.223 1_556 S
O38 C37 1.315 . S
O39 Cd29 2.240 1_556 S
O39 C37 1.279 . S
O40 Cd30 2.297 1_556 S
O40 C35 1.247 1_556 S
O41 Cd30 2.439 . S
O41 C35 1.208 . S
O42 Cd43 2.223 . S
O42 C50 1.315 . S
Cd43 O42 2.223 . S
Cd43 O46 2.297 . S
Cd43 O47 2.439 . S
Cd43 O53 2.240 1_556 S
Cd44 O45 2.240 . S
Cd44 O52 2.223 1_556 S
Cd44 O54 2.297 1_556 S
Cd44 O55 2.439 . S
O45 Cd44 2.240 . S
O45 C50 1.279 . S
O46 Cd43 2.297 . S
O46 C48 1.247 . S
O47 Cd43 2.439 . S
O47 C48 1.208 . S
C48 O46 1.247 . S
C48 O47 1.208 . S
C49 O54 1.247 1_556 S
C49 O55 1.208 . S
C50 O42 1.315 . S
C50 O45 1.279 . S
C51 O52 1.315 . S
C51 O53 1.279 . S
O52 Cd44 2.223 1_554 S
O52 C51 1.315 . S
O53 Cd43 2.240 1_554 S
O53 C51 1.279 . S
O54 Cd44 2.297 1_554 S
O54 C49 1.247 1_554 S
O55 Cd44 2.439 . S
O55 C49 1.208 . S
O56 Cd57 2.223 . S
O56 C64 1.315 . S
Cd57 O56 2.223 . S
Cd57 O60 2.297 . S
Cd57 O61 2.439 . S
Cd57 O67 2.240 1_556 S
Cd58 O59 2.240 . S
Cd58 O66 2.223 1_556 S
Cd58 O68 2.297 1_556 S
Cd58 O69 2.439 . S
O59 Cd58 2.240 . S
O59 C64 1.279 . S
O60 Cd57 2.297 . S
O60 C62 1.247 . S
O61 Cd57 2.439 . S
O61 C62 1.208 . S
C62 O60 1.247 . S
C62 O61 1.208 . S
C63 O68 1.247 1_556 S
C63 O69 1.208 . S
C64 O56 1.315 . S
C64 O59 1.279 . S
C65 O66 1.315 . S
C65 O67 1.279 . S
O66 Cd58 2.223 1_554 S
O66 C65 1.315 . S
O67 Cd57 2.240 1_554 S
O67 C65 1.279 . S
O68 Cd58 2.297 1_554 S
O68 C63 1.247 1_554 S
O69 Cd58 2.439 . S
O69 C63 1.208 . S
O70 Cd71 2.223 . S
O70 C78 1.315 . S
Cd71 O70 2.223 . S
Cd71 O74 2.297 . S
Cd71 O75 2.439 . S
Cd71 O81 2.240 1_556 S
Cd72 O73 2.240 . S
Cd72 O80 2.223 1_556 S
Cd72 O82 2.297 1_556 S
Cd72 O83 2.439 . S
O73 Cd72 2.240 . S
O73 C78 1.279 . S
O74 Cd71 2.297 . S
O74 C76 1.247 . S
O75 Cd71 2.439 . S
O75 C76 1.208 . S
C76 O74 1.247 . S
C76 O75 1.208 . S
C77 O82 1.247 1_556 S
C77 O83 1.208 . S
C78 O70 1.315 . S
C78 O73 1.279 . S
C79 O80 1.315 . S
C79 O81 1.279 . S
O80 Cd72 2.223 1_554 S
O80 C79 1.315 . S
O81 Cd71 2.240 1_554 S
O81 C79 1.279 . S
O82 Cd72 2.297 1_554 S
O82 C77 1.247 1_554 S
O83 Cd72 2.439 . S
O83 C77 1.208 . S
O84 Cd85 2.223 . S
O84 C92 1.315 . S
Cd85 O84 2.223 . S
Cd85 O88 2.297 . S
Cd85 O89 2.439 . S
Cd85 O95 2.240 1_556 S
Cd86 O87 2.240 . S
Cd86 O94 2.223 1_556 S
Cd86 O96 2.297 1_556 S
Cd86 O97 2.439 . S
O87 Cd86 2.240 . S
O87 C92 1.279 . S
O88 Cd85 2.297 . S
O88 C90 1.247 . S
O89 Cd85 2.439 . S
O89 C90 1.208 . S
C90 O88 1.247 . S
C90 O89 1.208 . S
C91 O96 1.247 1_556 S
C91 O97 1.208 . S
C92 O84 1.315 . S
C92 O87 1.279 . S
C93 O94 1.315 . S
C93 O95 1.279 . S
O94 Cd86 2.223 1_554 S
O94 C93 1.315 . S
O95 Cd85 2.240 1_554 S
O95 C93 1.279 . S
O96 Cd86 2.297 1_554 S
O96 C91 1.247 1_554 S
O97 Cd86 2.439 . S
O97 C91 1.208 . S
O98 Cd99 2.223 . S
O98 C106 1.315 . S
Cd99 O98 2.223 . S
Cd99 O102 2.297 . S
Cd99 O103 2.439 . S
Cd99 O109 2.240 1_556 S
Cd100 O101 2.240 . S
Cd100 O108 2.223 1_556 S
Cd100 O110 2.297 1_556 S
Cd100 O111 2.439 . S
O101 Cd100 2.240 . S
O101 C106 1.279 . S
O102 Cd99 2.297 . S
O102 C104 1.247 . S
O103 Cd99 2.439 . S
O103 C104 1.208 . S
C104 O102 1.247 . S
C104 O103 1.208 . S
C105 O110 1.247 1_556 S
C105 O111 1.208 . S
C106 O98 1.315 . S
C106 O101 1.279 . S
C107 O108 1.315 . S
C107 O109 1.279 . S
O108 Cd100 2.223 1_554 S
O108 C107 1.315 . S
O109 Cd99 2.240 1_554 S
O109 C107 1.279 . S
O110 Cd100 2.297 1_554 S
O110 C105 1.247 1_554 S
O111 Cd100 2.439 . S
O111 C105 1.208 . S
O112 Cd113 2.223 . S
O112 C120 1.315 . S
Cd113 O112 2.223 . S
Cd113 O116 2.297 . S
Cd113 O117 2.439 . S
Cd113 O123 2.240 1_556 S
Cd114 O115 2.240 . S
Cd114 O122 2.223 1_556 S
Cd114 O124 2.297 1_556 S
Cd114 O125 2.439 . S
O115 Cd114 2.240 . S
O115 C120 1.279 . S
O116 Cd113 2.297 . S
O116 C118 1.247 . S
O117 Cd113 2.439 . S
O117 C118 1.208 . S
C118 O116 1.247 . S
C118 O117 1.208 . S
C119 O124 1.247 1_556 S
C119 O125 1.208 . S
C120 O112 1.315 . S
C120 O115 1.279 . S
C121 O122 1.315 . S
C121 O123 1.279 . S
O122 Cd114 2.223 1_554 S
O122 C121 1.315 . S
O123 Cd113 2.240 1_554 S
O123 C121 1.279 . S
O124 Cd114 2.297 1_554 S
O124 C119 1.247 1_554 S
O125 Cd114 2.439 . S
O125 C119 1.208 . S
O126 Cd127 2.223 . S
O126 C134 1.315 . S
Cd127 O126 2.223 . S
Cd127 O130 2.297 . S
Cd127 O131 2.439 . S
Cd127 O137 2.240 1_554 S
Cd128 O129 2.240 . S
Cd128 O136 2.223 1_554 S
Cd128 O138 2.297 1_554 S
Cd128 O139 2.439 . S
O129 Cd128 2.240 . S
O129 C134 1.279 . S
O130 Cd127 2.297 . S
O130 C132 1.247 . S
O131 Cd127 2.439 . S
O131 C132 1.208 . S
C132 O130 1.247 . S
C132 O131 1.208 . S
C133 O138 1.247 1_554 S
C133 O139 1.208 . S
C134 O126 1.315 . S
C134 O129 1.279 . S
C135 O136 1.315 . S
C135 O137 1.279 . S
O136 Cd128 2.223 1_556 S
O136 C135 1.315 . S
O137 Cd127 2.240 1_556 S
O137 C135 1.279 . S
O138 Cd128 2.297 1_556 S
O138 C133 1.247 1_556 S
O139 Cd128 2.439 . S
O139 C133 1.208 . S
O140 Cd141 2.223 . S
O140 C148 1.315 . S
Cd141 O140 2.223 . S
Cd141 O144 2.297 . S
Cd141 O145 2.439 . S
Cd141 O151 2.240 1_554 S
Cd142 O143 2.240 . S
Cd142 O150 2.223 1_554 S
Cd142 O152 2.297 1_554 S
Cd142 O153 2.439 . S
O143 Cd142 2.240 . S
O143 C148 1.279 . S
O144 Cd141 2.297 . S
O144 C146 1.247 . S
O145 Cd141 2.439 . S
O145 C146 1.208 . S
C146 O144 1.247 . S
C146 O145 1.208 . S
C147 O152 1.247 1_554 S
C147 O153 1.208 . S
C148 O140 1.315 . S
C148 O143 1.279 . S
C149 O150 1.315 . S
C149 O151 1.279 . S
O150 Cd142 2.223 1_556 S
O150 C149 1.315 . S
O151 Cd141 2.240 1_556 S
O151 C149 1.279 . S
O152 Cd142 2.297 1_556 S
O152 C147 1.247 1_556 S
O153 Cd142 2.439 . S
O153 C147 1.208 . S
O154 Cd155 2.223 . S
O154 C162 1.315 . S
Cd155 O154 2.223 . S
Cd155 O158 2.297 . S
Cd155 O159 2.439 . S
Cd155 O165 2.240 1_554 S
Cd156 O157 2.240 . S
Cd156 O164 2.223 1_554 S
Cd156 O166 2.297 1_554 S
Cd156 O167 2.439 . S
O157 Cd156 2.240 . S
O157 C162 1.279 . S
O158 Cd155 2.297 . S
O158 C160 1.247 . S
O159 Cd155 2.439 . S
O159 C160 1.208 . S
C160 O158 1.247 . S
C160 O159 1.208 . S
C161 O166 1.247 1_554 S
C161 O167 1.208 . S
C162 O154 1.315 . S
C162 O157 1.279 . S
C163 O164 1.315 . S
C163 O165 1.279 . S
O164 Cd156 2.223 1_556 S
O164 C163 1.315 . S
O165 Cd155 2.240 1_556 S
O165 C163 1.279 . S
O166 Cd156 2.297 1_556 S
O166 C161 1.247 1_556 S
O167 Cd156 2.439 . S
O167 C161 1.208 . S
O168 Cd169 2.223 . S
O168 C176 1.315 . S
Cd169 O168 2.223 . S
Cd169 O172 2.297 . S
Cd169 O173 2.439 . S
Cd169 O179 2.240 . S
Cd170 O171 2.240 . S
Cd170 O178 2.223 . S
Cd170 O180 2.297 . S
Cd170 O181 2.439 . S
O171 Cd170 2.240 . S
O171 C176 1.279 . S
O172 Cd169 2.297 . S
O172 C174 1.247 . S
O173 Cd169 2.439 . S
O173 C174 1.208 . S
C174 O172 1.247 . S
C174 O173 1.208 . S
C175 O180 1.247 . S
C175 O181 1.208 . S
C176 O168 1.315 . S
C176 O171 1.279 . S
C177 O178 1.315 . S
C177 O179 1.279 . S
O178 Cd170 2.223 . S
O178 C177 1.315 . S
O179 Cd169 2.240 . S
O179 C177 1.279 . S
O180 Cd170 2.297 . S
O180 C175 1.247 . S
O181 Cd170 2.439 . S
O181 C175 1.208 . S
O182 Cd183 2.223 . S
O182 C190 1.315 . S
Cd183 O182 2.223 . S
Cd183 O186 2.297 . S
Cd183 O187 2.439 . S
Cd183 O193 2.240 . S
Cd184 O185 2.240 . S
Cd184 O192 2.223 . S
Cd184 O194 2.297 . S
Cd184 O195 2.439 . S
O185 Cd184 2.240 . S
O185 C190 1.279 . S
O186 Cd183 2.297 . S
O186 C188 1.247 . S
O187 Cd183 2.439 . S
O187 C188 1.208 . S
C188 O186 1.247 . S
C188 O187 1.208 . S
C189 O194 1.247 . S
C189 O195 1.208 . S
C190 O182 1.315 . S
C190 O185 1.279 . S
C191 O192 1.315 . S
C191 O193 1.279 . S
O192 Cd184 2.223 . S
O192 C191 1.315 . S
O193 Cd183 2.240 . S
O193 C191 1.279 . S
O194 Cd184 2.297 . S
O194 C189 1.247 . S
O195 Cd184 2.439 . S
O195 C189 1.208 . S
O196 Cd197 2.223 . S
O196 C204 1.315 . S
Cd197 O196 2.223 . S
Cd197 O200 2.297 . S
Cd197 O201 2.439 . S
Cd197 O207 2.240 . S
Cd198 O199 2.240 . S
Cd198 O206 2.223 . S
Cd198 O208 2.297 . S
Cd198 O209 2.439 . S
O199 Cd198 2.240 . S
O199 C204 1.279 . S
O200 Cd197 2.297 . S
O200 C202 1.247 . S
O201 Cd197 2.439 . S
O201 C202 1.208 . S
C202 O200 1.247 . S
C202 O201 1.208 . S
C203 O208 1.247 . S
C203 O209 1.208 . S
C204 O196 1.315 . S
C204 O199 1.279 . S
C205 O206 1.315 . S
C205 O207 1.279 . S
O206 Cd198 2.223 . S
O206 C205 1.315 . S
O207 Cd197 2.240 . S
O207 C205 1.279 . S
O208 Cd198 2.297 . S
O208 C203 1.247 . S
O209 Cd198 2.439 . S
O209 C203 1.208 . S
O210 Cd211 2.223 . S
O210 C218 1.315 . S
Cd211 O210 2.223 . S
Cd211 O214 2.299 . S
Cd211 O215 2.439 . S
Cd211 O221 2.240 . S
Cd212 O213 2.240 . S
Cd212 O220 2.223 . S
Cd212 O222 2.297 . S
Cd212 O223 2.439 . S
O213 Cd212 2.240 . S
O213 C218 1.279 . S
O214 Cd211 2.299 . S
O214 C216 1.264 . S
O215 Cd211 2.439 . S
O215 C216 1.208 . S
C216 O214 1.264 . S
C216 O215 1.208 . S
C217 O222 1.247 . S
C217 O223 1.208 . S
C218 O210 1.315 . S
C218 O213 1.279 . S
C219 O220 1.315 . S
C219 O221 1.279 . S
O220 Cd212 2.223 . S
O220 C219 1.315 . S
O221 Cd211 2.240 . S
O221 C219 1.279 . S
O222 Cd212 2.297 . S
O222 C217 1.247 . S
O223 Cd212 2.439 . S
O223 C217 1.208 . S
O224 Cd225 2.223 . S
O224 C232 1.315 . S
Cd225 O224 2.223 . S
Cd225 O228 2.297 . S
Cd225 O229 2.439 . S
Cd225 O235 2.240 . S
Cd226 O227 2.240 . S
Cd226 O234 2.223 . S
Cd226 O236 2.297 . S
Cd226 O237 2.439 . S
O227 Cd226 2.240 . S
O227 C232 1.279 . S
O228 Cd225 2.297 . S
O228 C230 1.247 . S
O229 Cd225 2.439 . S
O229 C230 1.208 . S
C230 O228 1.247 . S
C230 O229 1.208 . S
C231 O236 1.247 . S
C231 O237 1.208 . S
C232 O224 1.315 . S
C232 O227 1.279 . S
C233 O234 1.315 . S
C233 O235 1.279 . S
O234 Cd226 2.223 . S
O234 C233 1.315 . S
O235 Cd225 2.240 . S
O235 C233 1.279 . S
O236 Cd226 2.297 . S
O236 C231 1.247 . S
O237 Cd226 2.439 . S
O237 C231 1.208 . S
O238 Cd239 2.223 . S
O238 C246 1.315 . S
Cd239 O238 2.223 . S
Cd239 O242 2.315 . S
Cd239 O243 2.439 . S
Cd239 O249 2.240 . S
Cd240 O241 2.240 . S
Cd240 O248 2.223 . S
Cd240 O250 2.297 . S
Cd240 O251 2.439 . S
O241 Cd240 2.240 . S
O241 C246 1.279 . S
O242 Cd239 2.315 . S
O242 C244 1.306 . S
O243 Cd239 2.439 . S
O243 C244 1.208 . S
C244 O242 1.306 . S
C244 O243 1.208 . S
C245 O250 1.247 . S
C245 O251 1.208 . S
C246 O238 1.315 . S
C246 O241 1.279 . S
C247 O248 1.315 . S
C247 O249 1.279 . S
O248 Cd240 2.223 . S
O248 C247 1.315 . S
O249 Cd239 2.240 . S
O249 C247 1.279 . S
O250 Cd240 2.297 . S
O250 C245 1.247 . S
O251 Cd240 2.439 . S
O251 C245 1.208 . S
O252 Cd253 2.223 . S
O252 C260 1.315 . S
Cd253 O252 2.223 . S
Cd253 O256 2.299 . S
Cd253 O257 2.439 . S
Cd253 O263 2.240 . S
Cd254 O255 2.240 . S
Cd254 O262 2.223 . S
Cd254 O264 2.297 . S
Cd254 O265 2.439 . S
O255 Cd254 2.240 . S
O255 C260 1.279 . S
O256 Cd253 2.299 . S
O256 C258 1.264 . S
O257 Cd253 2.439 . S
O257 C258 1.208 . S
C258 O256 1.264 . S
C258 O257 1.208 . S
C259 O264 1.247 . S
C259 O265 1.208 . S
C260 O252 1.315 . S
C260 O255 1.279 . S
C261 O262 1.315 . S
C261 O263 1.279 . S
O262 Cd254 2.223 . S
O262 C261 1.315 . S
O263 Cd253 2.240 . S
O263 C261 1.279 . S
O264 Cd254 2.297 . S
O264 C259 1.247 . S
O265 Cd254 2.439 . S
O265 C259 1.208 . S
O266 Cd267 2.223 . S
O266 C274 1.315 . S
Cd267 O266 2.223 . S
Cd267 O270 2.315 . S
Cd267 O271 2.439 . S
Cd267 O277 2.240 . S
Cd268 O269 2.240 . S
Cd268 O276 2.223 . S
Cd268 O278 2.297 . S
Cd268 O279 2.439 . S
O269 Cd268 2.240 . S
O269 C274 1.279 . S
O270 Cd267 2.315 . S
O270 C272 1.306 . S
O271 Cd267 2.439 . S
O271 C272 1.208 . S
C272 O270 1.306 . S
C272 O271 1.208 . S
C273 O278 1.247 . S
C273 O279 1.208 . S
C274 O266 1.315 . S
C274 O269 1.279 . S
C275 O276 1.315 . S
C275 O277 1.279 . S
O276 Cd268 2.223 . S
O276 C275 1.315 . S
O277 Cd267 2.240 . S
O277 C275 1.279 . S
O278 Cd268 2.297 . S
O278 C273 1.247 . S
O279 Cd268 2.439 . S
O279 C273 1.208 . S
O280 Cd281 2.223 . S
O280 C288 1.315 . S
Cd281 O280 2.223 . S
Cd281 O284 2.297 . S
Cd281 O285 2.439 . S
Cd281 O291 2.240 . S
Cd282 O283 2.240 . S
Cd282 O290 2.223 . S
Cd282 O292 2.297 . S
Cd282 O293 2.439 . S
O283 Cd282 2.240 . S
O283 C288 1.279 . S
O284 Cd281 2.297 . S
O284 C286 1.247 . S
O285 Cd281 2.439 . S
O285 C286 1.208 . S
C286 O284 1.247 . S
C286 O285 1.208 . S
C287 O292 1.247 . S
C287 O293 1.208 . S
C288 O280 1.315 . S
C288 O283 1.279 . S
C289 O290 1.315 . S
C289 O291 1.279 . S
O290 Cd282 2.223 . S
O290 C289 1.315 . S
O291 Cd281 2.240 . S
O291 C289 1.279 . S
O292 Cd282 2.297 . S
O292 C287 1.247 . S
O293 Cd282 2.439 . S
O293 C287 1.208 . S
O294 Cd295 2.223 . S
O294 C302 1.315 . S
Cd295 O294 2.223 . S
Cd295 O298 2.297 . S
Cd295 O299 2.439 . S
Cd295 O305 2.240 . S
Cd296 O297 2.240 . S
Cd296 O304 2.223 . S
Cd296 O306 2.297 . S
Cd296 O307 2.439 . S
O297 Cd296 2.240 . S
O297 C302 1.279 . S
O298 Cd295 2.297 . S
O298 C300 1.247 . S
O299 Cd295 2.439 . S
O299 C300 1.208 . S
C300 O298 1.247 . S
C300 O299 1.208 . S
C301 O306 1.247 . S
C301 O307 1.208 . S
C302 O294 1.315 . S
C302 O297 1.279 . S
C303 O304 1.315 . S
C303 O305 1.279 . S
O304 Cd296 2.223 . S
O304 C303 1.315 . S
O305 Cd295 2.240 . S
O305 C303 1.279 . S
O306 Cd296 2.297 . S
O306 C301 1.247 . S
O307 Cd296 2.439 . S
O307 C301 1.208 . S
O308 Cd309 2.223 . S
O308 C316 1.315 . S
Cd309 O308 2.223 . S
Cd309 O312 2.297 . S
Cd309 O313 2.439 . S
Cd309 O319 2.240 . S
Cd310 O311 2.240 . S
Cd310 O318 2.223 . S
Cd310 O320 2.297 . S
Cd310 O321 2.439 . S
O311 Cd310 2.240 . S
O311 C316 1.279 . S
O312 Cd309 2.297 . S
O312 C314 1.247 . S
O313 Cd309 2.439 . S
O313 C314 1.208 . S
C314 O312 1.247 . S
C314 O313 1.208 . S
C315 O320 1.247 . S
C315 O321 1.208 . S
C316 O308 1.315 . S
C316 O311 1.279 . S
C317 O318 1.315 . S
C317 O319 1.279 . S
O318 Cd310 2.223 . S
O318 C317 1.315 . S
O319 Cd309 2.240 . S
O319 C317 1.279 . S
O320 Cd310 2.297 . S
O320 C315 1.247 . S
O321 Cd310 2.439 . S
O321 C315 1.208 . S
O322 Cd323 2.223 . S
O322 C330 1.315 . S
Cd323 O322 2.223 . S
Cd323 O326 2.297 . S
Cd323 O327 2.439 . S
Cd323 O333 2.240 . S
Cd324 O325 2.240 . S
Cd324 O332 2.223 . S
Cd324 O334 2.297 . S
Cd324 O335 2.439 . S
O325 Cd324 2.240 . S
O325 C330 1.279 . S
O326 Cd323 2.297 . S
O326 C328 1.247 . S
O327 Cd323 2.439 . S
O327 C328 1.208 . S
C328 O326 1.247 . S
C328 O327 1.208 . S
C329 O334 1.247 . S
C329 O335 1.208 . S
C330 O322 1.315 . S
C330 O325 1.279 . S
C331 O332 1.315 . S
C331 O333 1.279 . S
O332 Cd324 2.223 . S
O332 C331 1.315 . S
O333 Cd323 2.240 . S
O333 C331 1.279 . S
O334 Cd324 2.297 . S
O334 C329 1.247 . S
O335 Cd324 2.439 . S
O335 C329 1.208 . S
O336 Cd337 2.223 . S
O336 C344 1.315 . S
Cd337 O336 2.223 . S
Cd337 O340 2.299 . S
Cd337 O341 2.439 . S
Cd337 O347 2.240 . S
Cd338 O339 2.240 . S
Cd338 O346 2.223 . S
Cd338 O348 2.297 . S
Cd338 O349 2.439 . S
O339 Cd338 2.240 . S
O339 C344 1.279 . S
O340 Cd337 2.299 . S
O340 C342 1.264 . S
O341 Cd337 2.439 . S
O341 C342 1.208 . S
C342 O340 1.264 . S
C342 O341 1.208 . S
C343 O348 1.247 . S
C343 O349 1.208 . S
C344 O336 1.315 . S
C344 O339 1.279 . S
C345 O346 1.315 . S
C345 O347 1.279 . S
O346 Cd338 2.223 . S
O346 C345 1.315 . S
O347 Cd337 2.240 . S
O347 C345 1.279 . S
O348 Cd338 2.297 . S
O348 C343 1.247 . S
O349 Cd338 2.439 . S
O349 C343 1.208 . S
O350 Cd351 2.223 . S
O350 C358 1.315 . S
Cd351 O350 2.223 . S
Cd351 O354 2.315 . S
Cd351 O355 2.439 . S
Cd351 O361 2.240 . S
Cd352 O353 2.240 . S
Cd352 O360 2.223 . S
Cd352 O362 2.297 . S
Cd352 O363 2.439 . S
O353 Cd352 2.240 . S
O353 C358 1.279 . S
O354 Cd351 2.315 . S
O354 C356 1.306 . S
O355 Cd351 2.439 . S
O355 C356 1.208 . S
C356 O354 1.306 . S
C356 O355 1.208 . S
C357 O362 1.247 . S
C357 O363 1.208 . S
C358 O350 1.315 . S
C358 O353 1.279 . S
C359 O360 1.315 . S
C359 O361 1.279 . S
O360 Cd352 2.223 . S
O360 C359 1.315 . S
O361 Cd351 2.240 . S
O361 C359 1.279 . S
O362 Cd352 2.297 . S
O362 C357 1.247 . S
O363 Cd352 2.439 . S
O363 C357 1.208 . S
O364 Cd365 2.223 . S
O364 C372 1.315 . S
Cd365 O364 2.223 . S
Cd365 O368 2.297 . S
Cd365 O369 2.439 . S
Cd365 O375 2.240 . S
Cd366 O367 2.240 . S
Cd366 O374 2.223 . S
Cd366 O376 2.297 . S
Cd366 O377 2.439 . S
O367 Cd366 2.240 . S
O367 C372 1.279 . S
O368 Cd365 2.297 . S
O368 C370 1.247 . S
O369 Cd365 2.439 . S
O369 C370 1.208 . S
C370 O368 1.247 . S
C370 O369 1.208 . S
C371 O376 1.247 . S
C371 O377 1.208 . S
C372 O364 1.315 . S
C372 O367 1.279 . S
C373 O374 1.315 . S
C373 O375 1.279 . S
O374 Cd366 2.223 . S
O374 C373 1.315 . S
O375 Cd365 2.240 . S
O375 C373 1.279 . S
O376 Cd366 2.297 . S
O376 C371 1.247 . S
O377 Cd366 2.439 . S
O377 C371 1.208 . S
O378 Cd379 2.223 . S
O378 C386 1.315 . S
Cd379 O378 2.223 . S
Cd379 O382 2.297 . S
Cd379 O383 2.439 . S
Cd379 O389 2.240 . S
Cd380 O381 2.240 . S
Cd380 O388 2.223 . S
Cd380 O390 2.297 . S
Cd380 O391 2.439 . S
O381 Cd380 2.240 . S
O381 C386 1.279 . S
O382 Cd379 2.297 . S
O382 C384 1.247 . S
O383 Cd379 2.439 . S
O383 C384 1.208 . S
C384 O382 1.247 . S
C384 O383 1.208 . S
C385 O390 1.247 . S
C385 O391 1.208 . S
C386 O378 1.315 . S
C386 O381 1.279 . S
C387 O388 1.315 . S
C387 O389 1.279 . S
O388 Cd380 2.223 . S
O388 C387 1.315 . S
O389 Cd379 2.240 . S
O389 C387 1.279 . S
O390 Cd380 2.297 . S
O390 C385 1.247 . S
O391 Cd380 2.439 . S
O391 C385 1.208 . S
O392 Cd393 2.223 . S
O392 C400 1.315 . S
Cd393 O392 2.223 . S
Cd393 O396 2.297 . S
Cd393 O397 2.439 . S
Cd393 O403 2.240 . S
Cd394 O395 2.240 . S
Cd394 O402 2.223 . S
Cd394 O404 2.297 . S
Cd394 O405 2.439 . S
O395 Cd394 2.240 . S
O395 C400 1.279 . S
O396 Cd393 2.297 . S
O396 C398 1.247 . S
O397 Cd393 2.439 . S
O397 C398 1.208 . S
C398 O396 1.247 . S
C398 O397 1.208 . S
C399 O404 1.247 . S
C399 O405 1.208 . S
C400 O392 1.315 . S
C400 O395 1.279 . S
C401 O402 1.315 . S
C401 O403 1.279 . S
O402 Cd394 2.223 . S
O402 C401 1.315 . S
O403 Cd393 2.240 . S
O403 C401 1.279 . S
O404 Cd394 2.297 . S
O404 C399 1.247 . S
O405 Cd394 2.439 . S
O405 C399 1.208 . S
O406 Cd407 2.223 . S
O406 C414 1.315 . S
Cd407 O406 2.223 . S
Cd407 O410 2.297 . S
Cd407 O411 2.439 . S
Cd407 O417 2.240 . S
Cd408 O409 2.240 . S
Cd408 O416 2.223 . S
Cd408 O418 2.297 . S
Cd408 O419 2.439 . S
O409 Cd408 2.240 . S
O409 C414 1.279 . S
O410 Cd407 2.297 . S
O410 C412 1.247 . S
O411 Cd407 2.439 . S
O411 C412 1.208 . S
C412 O410 1.247 . S
C412 O411 1.208 . S
C413 O418 1.247 . S
C413 O419 1.208 . S
C414 O406 1.315 . S
C414 O409 1.279 . S
C415 O416 1.315 . S
C415 O417 1.279 . S
O416 Cd408 2.223 . S
O416 C415 1.315 . S
O417 Cd407 2.240 . S
O417 C415 1.279 . S
O418 Cd408 2.297 . S
O418 C413 1.247 . S
O419 Cd408 2.439 . S
O419 C413 1.208 . S
O420 Cd421 2.223 . S
O420 C428 1.315 . S
Cd421 O420 2.223 . S
Cd421 O424 2.297 . S
Cd421 O425 2.439 . S
Cd421 O431 2.240 . S
Cd422 O423 2.240 . S
Cd422 O430 2.223 . S
Cd422 O432 2.297 . S
Cd422 O433 2.439 . S
O423 Cd422 2.240 . S
O423 C428 1.279 . S
O424 Cd421 2.297 . S
O424 C426 1.247 . S
O425 Cd421 2.439 . S
O425 C426 1.208 . S
C426 O424 1.247 . S
C426 O425 1.208 . S
C427 O432 1.247 . S
C427 O433 1.208 . S
C428 O420 1.315 . S
C428 O423 1.279 . S
C429 O430 1.315 . S
C429 O431 1.279 . S
O430 Cd422 2.223 . S
O430 C429 1.315 . S
O431 Cd421 2.240 . S
O431 C429 1.279 . S
O432 Cd422 2.297 . S
O432 C427 1.247 . S
O433 Cd422 2.439 . S
O433 C427 1.208 . S
O434 Cd435 2.223 . S
O434 C442 1.315 . S
Cd435 O434 2.223 . S
Cd435 O438 2.297 . S
Cd435 O439 2.439 . S
Cd435 O445 2.240 . S
Cd436 O437 2.240 . S
Cd436 O444 2.223 . S
Cd436 O446 2.297 . S
Cd436 O447 2.439 . S
O437 Cd436 2.240 . S
O437 C442 1.279 . S
O438 Cd435 2.297 . S
O438 C440 1.247 . S
O439 Cd435 2.439 . S
O439 C440 1.208 . S
C440 O438 1.247 . S
C440 O439 1.208 . S
C441 O446 1.247 . S
C441 O447 1.208 . S
C442 O434 1.315 . S
C442 O437 1.279 . S
C443 O444 1.315 . S
C443 O445 1.279 . S
O444 Cd436 2.223 . S
O444 C443 1.315 . S
O445 Cd435 2.240 . S
O445 C443 1.279 . S
O446 Cd436 2.297 . S
O446 C441 1.247 . S
O447 Cd436 2.439 . S
O447 C441 1.208 . S
O448 Cd449 2.223 . S
O448 C456 1.315 . S
Cd449 O448 2.223 . S
Cd449 O452 2.297 . S
Cd449 O453 2.439 . S
Cd449 O459 2.240 . S
Cd450 O451 2.240 . S
Cd450 O458 2.223 . S
Cd450 O460 2.297 . S
Cd450 O461 2.439 . S
O451 Cd450 2.240 . S
O451 C456 1.279 . S
O452 Cd449 2.297 . S
O452 C454 1.247 . S
O453 Cd449 2.439 . S
O453 C454 1.208 . S
C454 O452 1.247 . S
C454 O453 1.208 . S
C455 O460 1.247 . S
C455 O461 1.208 . S
C456 O448 1.315 . S
C456 O451 1.279 . S
C457 O458 1.315 . S
C457 O459 1.279 . S
O458 Cd450 2.223 . S
O458 C457 1.315 . S
O459 Cd449 2.240 . S
O459 C457 1.279 . S
O460 Cd450 2.297 . S
O460 C455 1.247 . S
O461 Cd450 2.439 . S
O461 C455 1.208 . S
O462 Cd463 2.223 . S
O462 C470 1.315 . S
Cd463 O462 2.223 . S
Cd463 O466 2.299 . S
Cd463 O467 2.439 . S
Cd463 O473 2.240 . S
Cd464 O465 2.240 . S
Cd464 O472 2.223 . S
Cd464 O474 2.297 . S
Cd464 O475 2.439 . S
O465 Cd464 2.240 . S
O465 C470 1.279 . S
O466 Cd463 2.299 . S
O466 C468 1.264 . S
O467 Cd463 2.439 . S
O467 C468 1.208 . S
C468 O466 1.264 . S
C468 O467 1.208 . S
C469 O474 1.247 . S
C469 O475 1.208 . S
C470 O462 1.315 . S
C470 O465 1.279 . S
C471 O472 1.315 . S
C471 O473 1.279 . S
O472 Cd464 2.223 . S
O472 C471 1.315 . S
O473 Cd463 2.240 . S
O473 C471 1.279 . S
O474 Cd464 2.297 . S
O474 C469 1.247 . S
O475 Cd464 2.439 . S
O475 C469 1.208 . S
O476 Cd477 2.223 . S
O476 C484 1.315 . S
Cd477 O476 2.223 . S
Cd477 O480 2.297 . S
Cd477 O481 2.439 . S
Cd477 O487 2.240 . S
Cd478 O479 2.240 . S
Cd478 O486 2.223 . S
Cd478 O488 2.297 . S
Cd478 O489 2.439 . S
O479 Cd478 2.240 . S
O479 C484 1.279 . S
O480 Cd477 2.297 . S
O480 C482 1.247 . S
O481 Cd477 2.439 . S
O481 C482 1.208 . S
C482 O480 1.247 . S
C482 O481 1.208 . S
C483 O488 1.247 . S
C483 O489 1.208 . S
C484 O476 1.315 . S
C484 O479 1.279 . S
C485 O486 1.315 . S
C485 O487 1.279 . S
O486 Cd478 2.223 . S
O486 C485 1.315 . S
O487 Cd477 2.240 . S
O487 C485 1.279 . S
O488 Cd478 2.297 . S
O488 C483 1.247 . S
O489 Cd478 2.439 . S
O489 C483 1.208 . S
O490 Cd491 2.223 . S
O490 C498 1.315 . S
Cd491 O490 2.223 . S
Cd491 O494 2.315 . S
Cd491 O495 2.439 . S
Cd491 O501 2.240 . S
Cd492 O493 2.240 . S
Cd492 O500 2.223 . S
Cd492 O502 2.297 . S
Cd492 O503 2.439 . S
O493 Cd492 2.240 . S
O493 C498 1.279 . S
O494 Cd491 2.315 . S
O494 C496 1.306 . S
O495 Cd491 2.439 . S
O495 C496 1.208 . S
C496 O494 1.306 . S
C496 O495 1.208 . S
C497 O502 1.247 . S
C497 O503 1.208 . S
C498 O490 1.315 . S
C498 O493 1.279 . S
C499 O500 1.315 . S
C499 O501 1.279 . S
O500 Cd492 2.223 . S
O500 C499 1.315 . S
O501 Cd491 2.240 . S
O501 C499 1.279 . S
O502 Cd492 2.297 . S
O502 C497 1.247 . S
O503 Cd492 2.439 . S
O503 C497 1.208 . S
C504 C505 1.372 . S
C504 C506 1.419 . S
C504 H508 0.927 1_554 S
C505 C504 1.372 . S
C505 C514 1.429 . S
C506 C504 1.419 . S
C506 C507 1.370 . S
C506 H509 0.922 1_554 S
C507 C506 1.370 . S
C507 C513 1.428 . S
H508 C504 0.927 1_556 S
H509 C506 0.922 1_556 S
S510 N511 1.613 . S
S510 N512 1.610 . S
N511 S510 1.613 . S
N511 C514 1.350 . S
N512 S510 1.610 . S
N512 C513 1.351 . S
C513 C507 1.428 . S
C513 N512 1.351 . S
C513 C514 1.434 . S
C514 C505 1.429 . S
C514 N511 1.350 . S
C514 C513 1.434 . S
C515 C516 1.369 . S
C515 C517 1.419 . S
C515 H519 0.930 . S
C516 C515 1.369 . S
C516 C525 1.429 . S
C517 C515 1.419 . S
C517 C518 1.363 . S
C517 H520 0.929 . S
C518 C517 1.363 . S
C518 C524 1.428 . S
H519 C515 0.930 . S
H520 C517 0.929 . S
S521 N522 1.613 . S
S521 N523 1.610 . S
N522 S521 1.613 . S
N522 C525 1.350 . S
N523 S521 1.610 . S
N523 C524 1.351 . S
C524 C518 1.428 . S
C524 N523 1.351 . S
C524 C525 1.434 . S
C525 C516 1.429 . S
C525 N522 1.350 . S
C525 C524 1.434 . S
C526 C527 1.369 . S
C526 C528 1.419 . S
C526 H530 0.930 . S
C527 C526 1.369 . S
C527 C536 1.429 1_554 S
C528 C526 1.419 . S
C528 C529 1.363 . S
C528 H531 0.929 . S
C529 C528 1.363 . S
C529 C535 1.428 1_554 S
H530 C526 0.930 . S
H531 C528 0.929 . S
S532 N533 1.613 . S
S532 N534 1.610 . S
N533 S532 1.613 . S
N533 C536 1.350 . S
N534 S532 1.610 . S
N534 C535 1.351 . S
C535 C529 1.428 1_556 S
C535 N534 1.351 . S
C535 C536 1.434 . S
C536 C527 1.429 1_556 S
C536 N533 1.350 . S
C536 C535 1.434 . S
C537 C538 1.369 . S
C537 C539 1.419 . S
C537 H541 0.930 1_556 S
C538 C537 1.369 . S
C538 C547 1.429 . S
C539 C537 1.419 . S
C539 C540 1.363 . S
C539 H542 0.929 1_556 S
C540 C539 1.363 . S
C540 C546 1.428 . S
H541 C537 0.930 1_554 S
H542 C539 0.929 1_554 S
S543 N544 1.613 . S
S543 N545 1.610 . S
N544 S543 1.613 . S
N544 C547 1.350 . S
N545 S543 1.610 . S
N545 C546 1.351 . S
C546 C540 1.428 . S
C546 N545 1.351 . S
C546 C547 1.434 . S
C547 C538 1.429 . S
C547 N544 1.350 . S
C547 C546 1.434 . S
C548 C549 1.369 . S
C548 C550 1.419 . S
C548 H552 0.930 1_556 S
C549 C548 1.369 . S
C549 C558 1.429 . S
C550 C548 1.419 . S
C550 C551 1.363 . S
C550 H553 0.929 1_556 S
C551 C550 1.363 . S
C551 C557 1.428 . S
H552 C548 0.930 1_554 S
H553 C550 0.929 1_554 S
S554 N555 1.613 . S
S554 N556 1.610 . S
N555 S554 1.613 . S
N555 C558 1.350 . S
N556 S554 1.610 . S
N556 C557 1.351 . S
C557 C551 1.428 . S
C557 N556 1.351 . S
C557 C558 1.434 . S
C558 C549 1.429 . S
C558 N555 1.350 . S
C558 C557 1.434 . S
C559 C560 1.369 . S
C559 C561 1.419 . S
C559 H563 0.930 . S
C560 C559 1.369 . S
C560 C569 1.429 1_556 S
C561 C559 1.419 . S
C561 C562 1.363 . S
C561 H564 0.929 . S
C562 C561 1.363 . S
C562 C568 1.428 1_556 S
H563 C559 0.930 . S
H564 C561 0.929 . S
S565 N566 1.613 . S
S565 N567 1.610 . S
N566 S565 1.613 . S
N566 C569 1.350 . S
N567 S565 1.610 . S
N567 C568 1.351 . S
C568 C562 1.428 1_554 S
C568 N567 1.351 . S
C568 C569 1.434 . S
C569 C560 1.429 1_554 S
C569 N566 1.350 . S
C569 C568 1.434 . S
C570 C571 1.369 . S
C570 C572 1.419 . S
C570 H574 0.930 . S
C571 C570 1.369 . S
C571 C580 1.429 . S
C572 C570 1.419 . S
C572 C573 1.363 . S
C572 H575 0.929 . S
C573 C572 1.363 . S
C573 C579 1.428 . S
H574 C570 0.930 . S
H575 C572 0.929 . S
S576 N577 1.613 . S
S576 N578 1.610 . S
N577 S576 1.613 . S
N577 C580 1.350 . S
N578 S576 1.610 . S
N578 C579 1.351 . S
C579 C573 1.428 . S
C579 N578 1.351 . S
C579 C580 1.434 . S
C580 C571 1.429 . S
C580 N577 1.350 . S
C580 C579 1.434 . S
C581 C582 1.369 . S
C581 C583 1.419 . S
C581 H585 0.930 . S
C582 C581 1.369 . S
C582 C591 1.429 . S
C583 C581 1.419 . S
C583 C584 1.363 . S
C583 H586 0.929 . S
C584 C583 1.363 . S
C584 C590 1.428 . S
H585 C581 0.930 . S
H586 C583 0.929 . S
S587 N588 1.613 . S
S587 N589 1.610 . S
N588 S587 1.613 . S
N588 C591 1.350 . S
N589 S587 1.610 . S
N589 C590 1.351 . S
C590 C584 1.428 . S
C590 N589 1.351 . S
C590 C591 1.434 . S
C591 C582 1.429 . S
C591 N588 1.350 . S
C591 C590 1.434 . S
C592 C593 1.369 . S
C592 C594 1.419 . S
C592 H596 0.930 . S
C593 C592 1.369 . S
C593 C602 1.429 . S
C594 C592 1.419 . S
C594 C595 1.363 . S
C594 H597 0.929 . S
C595 C594 1.363 . S
C595 C601 1.428 . S
H596 C592 0.930 . S
H597 C594 0.929 . S
S598 N599 1.613 . S
S598 N600 1.610 . S
N599 S598 1.613 . S
N599 C602 1.350 . S
N600 S598 1.610 . S
N600 C601 1.351 . S
C601 C595 1.428 . S
C601 N600 1.351 . S
C601 C602 1.434 . S
C602 C593 1.429 . S
C602 N599 1.350 . S
C602 C601 1.434 . S
C603 C604 1.369 . S
C603 C605 1.419 . S
C603 H607 0.930 . S
C604 C603 1.369 . S
C604 C613 1.429 . S
C605 C603 1.419 . S
C605 C606 1.363 . S
C605 H608 0.929 . S
C606 C605 1.363 . S
C606 C612 1.428 . S
H607 C603 0.930 . S
H608 C605 0.929 . S
S609 N610 1.613 1_455 S
S609 N611 1.610 1_455 S
N610 S609 1.613 1_655 S
N610 C613 1.350 . S
N611 S609 1.610 1_655 S
N611 C612 1.351 . S
C612 C606 1.428 . S
C612 N611 1.351 . S
C612 C613 1.434 . S
C613 C604 1.429 . S
C613 N610 1.350 . S
C613 C612 1.434 . S
C614 C615 1.369 . S
C614 C616 1.419 . S
C614 H618 0.930 . S
C615 C614 1.369 . S
C615 C624 1.429 . S
C616 C614 1.419 . S
C616 C617 1.363 . S
C616 H619 0.929 . S
C617 C616 1.363 . S
C617 C623 1.428 . S
H618 C614 0.930 . S
H619 C616 0.929 . S
S620 N621 1.613 . S
S620 N622 1.610 . S
N621 S620 1.613 . S
N621 C624 1.350 . S
N622 S620 1.610 . S
N622 C623 1.351 . S
C623 C617 1.428 . S
C623 N622 1.351 . S
C623 C624 1.434 . S
C624 C615 1.429 . S
C624 N621 1.350 . S
C624 C623 1.434 . S
C625 C626 1.369 . S
C625 C627 1.419 . S
C625 H629 0.930 . S
C626 C625 1.369 . S
C626 C635 1.429 . S
C627 C625 1.419 . S
C627 C628 1.363 . S
C627 H630 0.929 . S
C628 C627 1.363 . S
C628 C634 1.428 . S
H629 C625 0.930 . S
H630 C627 0.929 . S
S631 N632 1.613 . S
S631 N633 1.610 . S
N632 S631 1.613 . S
N632 C635 1.350 . S
N633 S631 1.610 . S
N633 C634 1.351 . S
C634 C628 1.428 . S
C634 N633 1.351 . S
C634 C635 1.434 . S
C635 C626 1.429 . S
C635 N632 1.350 . S
C635 C634 1.434 . S
C636 C637 1.369 . S
C636 C638 1.419 . S
C636 H640 0.930 . S
C637 C636 1.369 . S
C637 C646 1.429 . S
C638 C636 1.419 . S
C638 C639 1.363 . S
C638 H641 0.929 . S
C639 C638 1.363 . S
C639 C645 1.428 . S
H640 C636 0.930 . S
H641 C638 0.929 . S
S642 N643 1.613 1_545 S
S642 N644 1.610 1_545 S
N643 S642 1.613 1_565 S
N643 C646 1.350 . S
N644 S642 1.610 1_565 S
N644 C645 1.351 . S
C645 C639 1.428 . S
C645 N644 1.351 . S
C645 C646 1.434 . S
C646 C637 1.429 . S
C646 N643 1.350 . S
C646 C645 1.434 . S
C647 C648 1.369 . S
C647 C649 1.419 . S
C647 H651 0.930 . S
C648 C647 1.369 . S
C648 C657 1.429 . S
C649 C647 1.419 . S
C649 C650 1.363 . S
C649 H652 0.929 . S
C650 C649 1.363 . S
C650 C656 1.428 . S
H651 C647 0.930 . S
H652 C649 0.929 . S
S653 N654 1.613 1_655 S
S653 N655 1.610 1_655 S
N654 S653 1.613 1_455 S
N654 C657 1.350 . S
N655 S653 1.610 1_455 S
N655 C656 1.351 . S
C656 C650 1.428 . S
C656 N655 1.351 . S
C656 C657 1.434 . S
C657 C648 1.429 . S
C657 N654 1.350 . S
C657 C656 1.434 . S
C658 C659 1.369 . S
C658 C660 1.419 . S
C658 H662 0.930 . S
C659 C658 1.369 . S
C659 C668 1.429 . S
C660 C658 1.419 . S
C660 C661 1.363 . S
C660 H663 0.929 . S
C661 C660 1.363 . S
C661 C667 1.428 . S
H662 C658 0.930 . S
H663 C660 0.929 . S
S664 N665 1.613 . S
S664 N666 1.610 . S
N665 S664 1.613 . S
N665 C668 1.350 . S
N666 S664 1.610 . S
N666 C667 1.351 . S
C667 C661 1.428 . S
C667 N666 1.351 . S
C667 C668 1.434 . S
C668 C659 1.429 . S
C668 N665 1.350 . S
C668 C667 1.434 . S
C669 C670 1.369 . S
C669 C671 1.419 . S
C669 H673 0.930 . S
C670 C669 1.369 . S
C670 C679 1.429 . S
C671 C669 1.419 . S
C671 C672 1.363 . S
C671 H674 0.929 . S
C672 C671 1.363 . S
C672 C678 1.428 . S
H673 C669 0.930 . S
H674 C671 0.929 . S
S675 N676 1.613 . S
S675 N677 1.610 . S
N676 S675 1.613 . S
N676 C679 1.350 . S
N677 S675 1.610 . S
N677 C678 1.351 . S
C678 C672 1.428 . S
C678 N677 1.351 . S
C678 C679 1.434 . S
C679 C670 1.429 . S
C679 N676 1.350 . S
C679 C678 1.434 . S
C680 C681 1.369 . S
C680 C682 1.419 . S
C680 H684 0.930 . S
C681 C680 1.369 . S
C681 C690 1.429 . S
C682 C680 1.419 . S
C682 C683 1.363 . S
C682 H685 0.929 . S
C683 C682 1.363 . S
C683 C689 1.428 . S
H684 C680 0.930 . S
H685 C682 0.929 . S
S686 N687 1.613 . S
S686 N688 1.610 . S
N687 S686 1.613 . S
N687 C690 1.350 . S
N688 S686 1.610 . S
N688 C689 1.351 . S
C689 C683 1.428 . S
C689 N688 1.351 . S
C689 C690 1.434 . S
C690 C681 1.429 . S
C690 N687 1.350 . S
C690 C689 1.434 . S
C691 C692 1.369 . S
C691 C693 1.419 . S
C691 H695 0.930 . S
C692 C691 1.369 . S
C692 C701 1.429 . S
C693 C691 1.419 . S
C693 C694 1.363 . S
C693 H696 0.929 . S
C694 C693 1.363 . S
C694 C700 1.428 . S
H695 C691 0.930 . S
H696 C693 0.929 . S
S697 N698 1.613 . S
S697 N699 1.610 . S
N698 S697 1.613 . S
N698 C701 1.350 . S
N699 S697 1.610 . S
N699 C700 1.351 . S
C700 C694 1.428 . S
C700 N699 1.351 . S
C700 C701 1.434 . S
C701 C692 1.429 . S
C701 N698 1.350 . S
C701 C700 1.434 . S
C702 C703 1.369 . S
C702 C704 1.419 1_455 S
C702 H706 0.930 . S
C703 C702 1.369 . S
C703 C712 1.429 1_554 S
C704 C702 1.419 1_655 S
C704 C705 1.363 1_554 S
C704 H707 0.929 . S
C705 C704 1.363 1_556 S
C705 C711 1.428 . S
H706 C702 0.930 . S
H707 C704 0.929 . S
S708 N709 1.613 . S
S708 N710 1.610 1_455 S
N709 S708 1.613 . S
N709 C712 1.350 . S
N710 S708 1.610 1_655 S
N710 C711 1.351 . S
C711 C705 1.428 . S
C711 N710 1.351 . S
C711 C712 1.434 1_655 S
C712 C703 1.429 1_556 S
C712 N709 1.350 . S
C712 C711 1.434 1_455 S
C713 C714 1.369 1_554 S
C713 C715 1.419 . S
C713 H717 0.930 . S
C714 C713 1.369 1_556 S
C714 C723 1.429 . S
C715 C713 1.419 . S
C715 C716 1.363 . S
C715 H718 0.929 . S
C716 C715 1.363 . S
C716 C722 1.428 1_554 S
H717 C713 0.930 . S
H718 C715 0.929 . S
S719 N720 1.613 . S
S719 N721 1.610 . S
N720 S719 1.613 . S
N720 C723 1.350 . S
N721 S719 1.610 . S
N721 C722 1.351 . S
C722 C716 1.428 1_556 S
C722 N721 1.351 . S
C722 C723 1.434 . S
C723 C714 1.429 . S
C723 N720 1.350 . S
C723 C722 1.434 . S
C724 C725 1.369 1_556 S
C724 C726 1.419 1_565 S
C724 H728 0.930 . S
C725 C724 1.369 1_554 S
C725 C734 1.429 . S
C726 C724 1.419 1_545 S
C726 C727 1.363 . S
C726 H729 0.929 . S
C727 C726 1.363 . S
C727 C733 1.428 1_556 S
H728 C724 0.930 . S
H729 C726 0.929 . S
S730 N731 1.613 1_545 S
S730 N732 1.610 . S
N731 S730 1.613 1_565 S
N731 C734 1.350 . S
N732 S730 1.610 . S
N732 C733 1.351 . S
C733 C727 1.428 1_554 S
C733 N732 1.351 . S
C733 C734 1.434 1_545 S
C734 C725 1.429 . S
C734 N731 1.350 . S
C734 C733 1.434 1_565 S
C735 C736 1.369 . S
C735 C737 1.419 1_655 S
C735 H739 0.930 . S
C736 C735 1.369 . S
C736 C745 1.429 1_556 S
C737 C735 1.419 1_455 S
C737 C738 1.363 1_556 S
C737 H740 0.929 . S
C738 C737 1.363 1_554 S
C738 C744 1.428 . S
H739 C735 0.930 . S
H740 C737 0.929 . S
S741 N742 1.613 . S
S741 N743 1.610 1_655 S
N742 S741 1.613 . S
N742 C745 1.350 . S
N743 S741 1.610 1_455 S
N743 C744 1.351 . S
C744 C738 1.428 . S
C744 N743 1.351 . S
C744 C745 1.434 1_455 S
C745 C736 1.429 1_554 S
C745 N742 1.350 . S
C745 C744 1.434 1_655 S
C746 C747 1.369 1_554 S
C746 C748 1.419 . S
C746 H750 0.930 . S
C747 C746 1.369 1_556 S
C747 C756 1.429 . S
C748 C746 1.419 . S
C748 C749 1.363 . S
C748 H751 0.929 . S
C749 C748 1.363 . S
C749 C755 1.426 1_554 S
H750 C746 0.930 . S
H751 C748 0.929 . S
S752 N753 1.613 . S
S752 N754 1.614 . S
N753 S752 1.613 . S
N753 C756 1.350 . S
N754 S752 1.614 . S
N754 C755 1.351 . S
C755 C749 1.426 1_556 S
C755 N754 1.351 . S
C755 C756 1.436 . S
C756 C747 1.429 . S
C756 N753 1.350 . S
C756 C755 1.436 . S
C757 C758 1.369 1_554 S
C757 C759 1.419 1_545 S
C757 H761 0.930 . S
C758 C757 1.369 1_556 S
C758 C767 1.429 . S
C759 C757 1.419 1_565 S
C759 C760 1.363 . S
C759 H762 0.929 . S
C760 C759 1.363 . S
C760 C766 1.428 1_554 S
H761 C757 0.930 . S
H762 C759 0.929 . S
S763 N764 1.613 1_565 S
S763 N765 1.610 . S
N764 S763 1.613 1_545 S
N764 C767 1.350 . S
N765 S763 1.610 . S
N765 C766 1.351 . S
C766 C760 1.428 1_556 S
C766 N765 1.351 . S
C766 C767 1.434 1_565 S
C767 C758 1.429 . S
C767 N764 1.350 . S
C767 C766 1.434 1_545 S
C768 C769 1.369 . S
C768 C770 1.419 . S
C768 H772 0.930 . S
C769 C768 1.369 . S
C769 C778 1.429 . S
C770 C768 1.419 . S
C770 C771 1.363 . S
C770 H773 0.929 . S
C771 C770 1.363 . S
C771 C777 1.428 . S
H772 C768 0.930 . S
H773 C770 0.929 . S
S774 N775 1.613 . S
S774 N776 1.610 . S
N775 S774 1.613 . S
N775 C778 1.350 . S
N776 S774 1.610 . S
N776 C777 1.351 . S
C777 C771 1.428 . S
C777 N776 1.351 . S
C777 C778 1.434 . S
C778 C769 1.429 . S
C778 N775 1.350 . S
C778 C777 1.434 . S
C779 C780 1.369 . S
C779 C781 1.419 . S
C779 H783 0.930 . S
C780 C779 1.369 . S
C780 C789 1.429 . S
C781 C779 1.419 . S
C781 C782 1.363 . S
C781 H784 0.929 . S
C782 C781 1.363 . S
C782 C788 1.428 . S
H783 C779 0.930 . S
H784 C781 0.929 . S
S785 N786 1.613 . S
S785 N787 1.610 . S
N786 S785 1.613 . S
N786 C789 1.350 . S
N787 S785 1.610 . S
N787 C788 1.351 . S
C788 C782 1.428 . S
C788 N787 1.351 . S
C788 C789 1.434 . S
C789 C780 1.429 . S
C789 N786 1.350 . S
C789 C788 1.434 . S
C790 C791 1.369 . S
C790 C792 1.419 . S
C790 H794 0.930 . S
C791 C790 1.369 . S
C791 C800 1.429 . S
C792 C790 1.419 . S
C792 C793 1.363 . S
C792 H795 0.929 . S
C793 C792 1.363 . S
C793 C799 1.428 . S
H794 C790 0.930 . S
H795 C792 0.929 . S
S796 N797 1.613 . S
S796 N798 1.610 . S
N797 S796 1.613 . S
N797 C800 1.350 . S
N798 S796 1.610 . S
N798 C799 1.351 . S
C799 C793 1.428 . S
C799 N798 1.351 . S
C799 C800 1.434 . S
C800 C791 1.429 . S
C800 N797 1.350 . S
C800 C799 1.434 . S
C801 C802 1.369 . S
C801 C803 1.419 . S
C801 H805 0.930 . S
C802 C801 1.369 . S
C802 C811 1.429 . S
C803 C801 1.419 . S
C803 C804 1.363 . S
C803 H806 0.929 . S
C804 C803 1.363 . S
C804 C810 1.428 . S
H805 C801 0.930 . S
H806 C803 0.929 . S
S807 N808 1.613 . S
S807 N809 1.610 . S
N808 S807 1.613 . S
N808 C811 1.350 . S
N809 S807 1.610 . S
N809 C810 1.351 . S
C810 C804 1.428 . S
C810 N809 1.351 . S
C810 C811 1.434 . S
C811 C802 1.429 . S
C811 N808 1.350 . S
C811 C810 1.434 . S
C812 C813 1.369 . S
C812 C814 1.419 . S
C812 H816 0.930 . S
C813 C812 1.369 . S
C813 C822 1.429 . S
C814 C812 1.419 . S
C814 C815 1.363 . S
C814 H817 0.929 . S
C815 C814 1.363 . S
C815 C821 1.428 . S
H816 C812 0.930 . S
H817 C814 0.929 . S
S818 N819 1.613 . S
S818 N820 1.610 . S
N819 S818 1.613 . S
N819 C822 1.350 . S
N820 S818 1.610 . S
N820 C821 1.351 . S
C821 C815 1.428 . S
C821 N820 1.351 . S
C821 C822 1.434 . S
C822 C813 1.429 . S
C822 N819 1.350 . S
C822 C821 1.434 . S
C823 C824 1.369 . S
C823 C825 1.419 . S
C823 H827 0.930 . S
C824 C823 1.369 . S
C824 C833 1.429 . S
C825 C823 1.419 . S
C825 C826 1.363 . S
C825 H828 0.929 . S
C826 C825 1.363 . S
C826 C832 1.428 . S
H827 C823 0.930 . S
H828 C825 0.929 . S
S829 N830 1.613 . S
S829 N831 1.610 . S
N830 S829 1.613 . S
N830 C833 1.350 . S
N831 S829 1.610 . S
N831 C832 1.351 . S
C832 C826 1.428 . S
C832 N831 1.351 . S
C832 C833 1.434 . S
C833 C824 1.429 . S
C833 N830 1.350 . S
C833 C832 1.434 . S
C834 C835 1.369 . S
C834 C836 1.419 . S
C834 H838 0.930 . S
C835 C834 1.369 . S
C835 C844 1.429 . S
C836 C834 1.419 . S
C836 C837 1.363 . S
C836 H839 0.929 . S
C837 C836 1.363 . S
C837 C843 1.428 . S
H838 C834 0.930 . S
H839 C836 0.929 . S
S840 N841 1.613 . S
S840 N842 1.610 . S
N841 S840 1.613 . S
N841 C844 1.350 . S
N842 S840 1.610 . S
N842 C843 1.351 . S
C843 C837 1.428 . S
C843 N842 1.351 . S
C843 C844 1.434 . S
C844 C835 1.429 . S
C844 N841 1.350 . S
C844 C843 1.434 . S
C845 C846 1.369 . S
C845 C847 1.419 . S
C845 H849 0.930 . S
C846 C845 1.369 . S
C846 C855 1.429 . S
C847 C845 1.419 . S
C847 C848 1.363 . S
C847 H850 0.929 . S
C848 C847 1.363 . S
C848 C854 1.428 . S
H849 C845 0.930 . S
H850 C847 0.929 . S
S851 N852 1.613 . S
S851 N853 1.610 . S
N852 S851 1.613 . S
N852 C855 1.350 . S
N853 S851 1.610 . S
N853 C854 1.351 . S
C854 C848 1.428 . S
C854 N853 1.351 . S
C854 C855 1.434 . S
C855 C846 1.429 . S
C855 N852 1.350 . S
C855 C854 1.434 . S
C856 C857 1.369 . S
C856 C858 1.419 . S
C856 H860 0.930 . S
C857 C856 1.369 . S
C857 C866 1.429 . S
C858 C856 1.419 . S
C858 C859 1.363 . S
C858 H861 0.929 . S
C859 C858 1.363 . S
C859 C865 1.428 . S
H860 C856 0.930 . S
H861 C858 0.929 . S
S862 N863 1.613 . S
S862 N864 1.610 . S
N863 S862 1.613 . S
N863 C866 1.350 . S
N864 S862 1.610 . S
N864 C865 1.351 . S
C865 C859 1.428 . S
C865 N864 1.351 . S
C865 C866 1.434 . S
C866 C857 1.429 . S
C866 N863 1.350 . S
C866 C865 1.434 . S
C867 C868 1.369 . S
C867 C869 1.419 . S
C867 H871 0.930 . S
C868 C867 1.369 . S
C868 C877 1.429 . S
C869 C867 1.419 . S
C869 C870 1.363 . S
C869 H872 0.929 . S
C870 C869 1.363 . S
C870 C876 1.428 . S
H871 C867 0.930 . S
H872 C869 0.929 . S
S873 N874 1.613 . S
S873 N875 1.610 . S
N874 S873 1.613 . S
N874 C877 1.350 . S
N875 S873 1.610 . S
N875 C876 1.351 . S
C876 C870 1.428 . S
C876 N875 1.351 . S
C876 C877 1.434 . S
C877 C868 1.429 . S
C877 N874 1.350 . S
C877 C876 1.434 . S
C878 C879 1.369 . S
C878 C880 1.419 . S
C878 H882 0.930 . S
C879 C878 1.369 . S
C879 C888 1.429 . S
C880 C878 1.419 . S
C880 C881 1.363 . S
C880 H883 0.929 . S
C881 C880 1.363 . S
C881 C887 1.428 . S
H882 C878 0.930 . S
H883 C880 0.929 . S
S884 N885 1.613 . S
S884 N886 1.610 . S
N885 S884 1.613 . S
N885 C888 1.350 . S
N886 S884 1.610 . S
N886 C887 1.351 . S
C887 C881 1.428 . S
C887 N886 1.351 . S
C887 C888 1.434 . S
C888 C879 1.429 . S
C888 N885 1.350 . S
C888 C887 1.434 . S
C889 C890 1.369 . S
C889 C891 1.419 . S
C889 H893 0.930 . S
C890 C889 1.369 . S
C890 C899 1.429 . S
C891 C889 1.419 . S
C891 C892 1.363 . S
C891 H894 0.929 . S
C892 C891 1.363 . S
C892 C898 1.428 . S
H893 C889 0.930 . S
H894 C891 0.929 . S
S895 N896 1.613 . S
S895 N897 1.610 . S
N896 S895 1.613 . S
N896 C899 1.350 . S
N897 S895 1.610 . S
N897 C898 1.351 . S
C898 C892 1.428 . S
C898 N897 1.351 . S
C898 C899 1.434 . S
C899 C890 1.429 . S
C899 N896 1.350 . S
C899 C898 1.434 . S
C900 C901 1.369 . S
C900 C902 1.419 . S
C900 H904 0.930 . S
C901 C900 1.369 . S
C901 C910 1.429 . S
C902 C900 1.419 . S
C902 C903 1.363 . S
C902 H905 0.929 . S
C903 C902 1.363 . S
C903 C909 1.428 . S
H904 C900 0.930 . S
H905 C902 0.929 . S
S906 N907 1.613 . S
S906 N908 1.610 . S
N907 S906 1.613 . S
N907 C910 1.350 . S
N908 S906 1.610 . S
N908 C909 1.351 . S
C909 C903 1.428 . S
C909 N908 1.351 . S
C909 C910 1.434 . S
C910 C901 1.429 . S
C910 N907 1.350 . S
C910 C909 1.434 . S
C911 C912 1.369 . S
C911 C913 1.419 . S
C911 H915 0.930 . S
C912 C911 1.369 . S
C912 C921 1.429 . S
C913 C911 1.419 . S
C913 C914 1.363 . S
C913 H916 0.929 . S
C914 C913 1.363 . S
C914 C920 1.428 . S
H915 C911 0.930 . S
H916 C913 0.929 . S
S917 N918 1.613 . S
S917 N919 1.610 . S
N918 S917 1.613 . S
N918 C921 1.350 . S
N919 S917 1.610 . S
N919 C920 1.351 . S
C920 C914 1.428 . S
C920 N919 1.351 . S
C920 C921 1.434 . S
C921 C912 1.429 . S
C921 N918 1.350 . S
C921 C920 1.434 . S
C922 C923 1.369 . S
C922 C924 1.419 . S
C922 H926 0.930 . S
C923 C922 1.369 . S
C923 C932 1.429 . S
C924 C922 1.419 . S
C924 C925 1.363 . S
C924 H927 0.929 . S
C925 C924 1.363 . S
C925 C931 1.428 . S
H926 C922 0.930 . S
H927 C924 0.929 . S
S928 N929 1.613 . S
S928 N930 1.610 . S
N929 S928 1.613 . S
N929 C932 1.350 . S
N930 S928 1.610 . S
N930 C931 1.351 . S
C931 C925 1.428 . S
C931 N930 1.351 . S
C931 C932 1.434 . S
C932 C923 1.429 . S
C932 N929 1.350 . S
C932 C931 1.434 . S
C933 C934 1.369 . S
C933 C935 1.419 . S
C933 H937 0.930 . S
C934 C933 1.369 . S
C934 C943 1.429 . S
C935 C933 1.419 . S
C935 C936 1.363 . S
C935 H938 0.929 . S
C936 C935 1.363 . S
C936 C942 1.428 . S
H937 C933 0.930 . S
H938 C935 0.929 . S
S939 N940 1.613 . S
S939 N941 1.610 . S
N940 S939 1.613 . S
N940 C943 1.350 . S
N941 S939 1.610 . S
N941 C942 1.351 . S
C942 C936 1.428 . S
C942 N941 1.351 . S
C942 C943 1.434 . S
C943 C934 1.429 . S
C943 N940 1.350 . S
C943 C942 1.434 . S
C944 C945 1.369 . S
C944 C946 1.419 . S
C944 H948 0.930 . S
C945 C944 1.369 . S
C945 C954 1.429 . S
C946 C944 1.419 . S
C946 C947 1.363 . S
C946 H949 0.929 . S
C947 C946 1.363 . S
C947 C953 1.428 . S
H948 C944 0.930 . S
H949 C946 0.929 . S
S950 N951 1.613 . S
S950 N952 1.610 . S
N951 S950 1.613 . S
N951 C954 1.350 . S
N952 S950 1.610 . S
N952 C953 1.351 . S
C953 C947 1.428 . S
C953 N952 1.351 . S
C953 C954 1.434 . S
C954 C945 1.429 . S
C954 N951 1.350 . S
C954 C953 1.434 . S
C955 C956 1.369 . S
C955 C957 1.419 . S
C955 H959 0.930 . S
C956 C955 1.369 . S
C956 C965 1.429 . S
C957 C955 1.419 . S
C957 C958 1.363 . S
C957 H960 0.929 . S
C958 C957 1.363 . S
C958 C964 1.428 . S
H959 C955 0.930 . S
H960 C957 0.929 . S
S961 N962 1.613 . S
S961 N963 1.610 . S
N962 S961 1.613 . S
N962 C965 1.350 . S
N963 S961 1.610 . S
N963 C964 1.351 . S
C964 C958 1.428 . S
C964 N963 1.351 . S
C964 C965 1.434 . S
C965 C956 1.429 . S
C965 N962 1.350 . S
C965 C964 1.434 . S
C966 C967 1.369 . S
C966 C968 1.419 . S
C966 H970 0.930 . S
C967 C966 1.369 . S
C967 C976 1.429 . S
C968 C966 1.419 . S
C968 C969 1.363 . S
C968 H971 0.929 . S
C969 C968 1.363 . S
C969 C975 1.428 . S
H970 C966 0.930 . S
H971 C968 0.929 . S
S972 N973 1.613 . S
S972 N974 1.610 . S
N973 S972 1.613 . S
N973 C976 1.350 . S
N974 S972 1.610 . S
N974 C975 1.351 . S
C975 C969 1.428 . S
C975 N974 1.351 . S
C975 C976 1.434 . S
C976 C967 1.429 . S
C976 N973 1.350 . S
C976 C975 1.434 . S
C977 C978 1.369 . S
C977 C979 1.419 . S
C977 H981 0.930 . S
C978 C977 1.369 . S
C978 C987 1.429 . S
C979 C977 1.419 . S
C979 C980 1.363 . S
C979 H982 0.929 . S
C980 C979 1.363 . S
C980 C986 1.428 . S
H981 C977 0.930 . S
H982 C979 0.929 . S
S983 N984 1.613 . S
S983 N985 1.610 . S
N984 S983 1.613 . S
N984 C987 1.350 . S
N985 S983 1.610 . S
N985 C986 1.351 . S
C986 C980 1.428 . S
C986 N985 1.351 . S
C986 C987 1.434 . S
C987 C978 1.429 . S
C987 N984 1.350 . S
C987 C986 1.434 . S
C988 C989 1.369 . S
C988 C990 1.419 . S
C988 H992 0.930 . S
C989 C988 1.369 . S
C989 C998 1.429 . S
C990 C988 1.419 . S
C990 C991 1.363 . S
C990 H993 0.929 . S
C991 C990 1.363 . S
C991 C997 1.428 . S
H992 C988 0.930 . S
H993 C990 0.929 . S
S994 N995 1.613 . S
S994 N996 1.610 . S
N995 S994 1.613 . S
N995 C998 1.350 . S
N996 S994 1.610 . S
N996 C997 1.351 . S
C997 C991 1.428 . S
C997 N996 1.351 . S
C997 C998 1.434 . S
C998 C989 1.429 . S
C998 N995 1.350 . S
C998 C997 1.434 . S
C999 C1000 1.369 . S
C999 C1001 1.419 . S
C999 H1003 0.930 . S
C1000 C999 1.369 . S
C1000 C1009 1.429 . S
C1001 C999 1.419 . S
C1001 C1002 1.363 . S
C1001 H1004 0.929 . S
C1002 C1001 1.363 . S
C1002 C1008 1.428 . S
H1003 C999 0.930 . S
H1004 C1001 0.929 . S
S1005 N1006 1.613 . S
S1005 N1007 1.610 . S
N1006 S1005 1.613 . S
N1006 C1009 1.350 . S
N1007 S1005 1.610 . S
N1007 C1008 1.351 . S
C1008 C1002 1.428 . S
C1008 N1007 1.351 . S
C1008 C1009 1.434 . S
C1009 C1000 1.429 . S
C1009 N1006 1.350 . S
C1009 C1008 1.434 . S
C1010 C1011 1.369 . S
C1010 C1012 1.419 . S
C1010 H1014 0.930 . S
C1011 C1010 1.369 . S
C1011 C1020 1.429 . S
C1012 C1010 1.419 . S
C1012 C1013 1.363 . S
C1012 H1015 0.929 . S
C1013 C1012 1.363 . S
C1013 C1019 1.428 . S
H1014 C1010 0.930 . S
H1015 C1012 0.929 . S
S1016 N1017 1.613 . S
S1016 N1018 1.610 . S
N1017 S1016 1.613 . S
N1017 C1020 1.350 . S
N1018 S1016 1.610 . S
N1018 C1019 1.351 . S
C1019 C1013 1.428 . S
C1019 N1018 1.351 . S
C1019 C1020 1.434 . S
C1020 C1011 1.429 . S
C1020 N1017 1.350 . S
C1020 C1019 1.434 . S
C1021 C1022 1.369 . S
C1021 C1023 1.419 . S
C1021 H1025 0.930 . S
C1022 C1021 1.369 . S
C1022 C1031 1.429 . S
C1023 C1021 1.419 . S
C1023 C1024 1.363 . S
C1023 H1026 0.929 . S
C1024 C1023 1.363 . S
C1024 C1030 1.428 . S
H1025 C1021 0.930 . S
H1026 C1023 0.929 . S
S1027 N1028 1.613 . S
S1027 N1029 1.610 . S
N1028 S1027 1.613 . S
N1028 C1031 1.350 . S
N1029 S1027 1.610 . S
N1029 C1030 1.351 . S
C1030 C1024 1.428 . S
C1030 N1029 1.351 . S
C1030 C1031 1.434 . S
C1031 C1022 1.429 . S
C1031 N1028 1.350 . S
C1031 C1030 1.434 . S
C1032 C1033 1.369 1_655 S
C1032 C1034 1.419 . S
C1032 H1036 0.930 . S
C1033 C1032 1.369 1_455 S
C1033 C1042 1.429 . S
C1034 C1032 1.419 . S
C1034 C1035 1.363 . S
C1034 H1037 0.929 . S
C1035 C1034 1.363 . S
C1035 C1041 1.428 1_655 S
H1036 C1032 0.930 . S
H1037 C1034 0.929 . S
S1038 N1039 1.613 . S
S1038 N1040 1.610 . S
N1039 S1038 1.613 . S
N1039 C1042 1.350 . S
N1040 S1038 1.610 . S
N1040 C1041 1.351 . S
C1041 C1035 1.428 1_455 S
C1041 N1040 1.351 . S
C1041 C1042 1.434 . S
C1042 C1033 1.429 . S
C1042 N1039 1.350 . S
C1042 C1041 1.434 . S
C1043 C1044 1.369 . S
C1043 C1045 1.419 . S
C1043 H1047 0.930 . S
C1044 C1043 1.369 . S
C1044 C1053 1.429 . S
C1045 C1043 1.419 . S
C1045 C1046 1.363 . S
C1045 H1048 0.929 . S
C1046 C1045 1.363 . S
C1046 C1052 1.428 . S
H1047 C1043 0.930 . S
H1048 C1045 0.929 . S
S1049 N1050 1.613 . S
S1049 N1051 1.610 . S
N1050 S1049 1.613 . S
N1050 C1053 1.350 . S
N1051 S1049 1.610 . S
N1051 C1052 1.351 . S
C1052 C1046 1.428 . S
C1052 N1051 1.351 . S
C1052 C1053 1.434 . S
C1053 C1044 1.429 . S
C1053 N1050 1.350 . S
C1053 C1052 1.434 . S
C1054 C1055 1.369 . S
C1054 C1056 1.419 . S
C1054 H1058 0.930 . S
C1055 C1054 1.369 . S
C1055 C1064 1.429 1_565 S
C1056 C1054 1.419 . S
C1056 C1057 1.363 1_565 S
C1056 H1059 0.929 . S
C1057 C1056 1.363 1_545 S
C1057 C1063 1.428 . S
H1058 C1054 0.930 . S
H1059 C1056 0.929 . S
S1060 N1061 1.613 . S
S1060 N1062 1.610 . S
N1061 S1060 1.613 . S
N1061 C1064 1.350 . S
N1062 S1060 1.610 . S
N1062 C1063 1.351 . S
C1063 C1057 1.428 . S
C1063 N1062 1.351 . S
C1063 C1064 1.434 . S
C1064 C1055 1.429 1_545 S
C1064 N1061 1.350 . S
C1064 C1063 1.434 . S
C1065 C1066 1.369 1_545 S
C1065 C1067 1.419 . S
C1065 H1069 0.930 . S
C1066 C1065 1.369 1_565 S
C1066 C1075 1.429 . S
C1067 C1065 1.419 . S
C1067 C1068 1.363 . S
C1067 H1070 0.929 . S
C1068 C1067 1.363 . S
C1068 C1074 1.428 1_545 S
H1069 C1065 0.930 . S
H1070 C1067 0.929 . S
S1071 N1072 1.613 . S
S1071 N1073 1.610 . S
N1072 S1071 1.613 . S
N1072 C1075 1.350 . S
N1073 S1071 1.610 . S
N1073 C1074 1.351 . S
C1074 C1068 1.428 1_565 S
C1074 N1073 1.351 . S
C1074 C1075 1.434 . S
C1075 C1066 1.429 . S
C1075 N1072 1.350 . S
C1075 C1074 1.434 . S
C1076 C1077 1.369 . S
C1076 C1078 1.419 1_655 S
C1076 H1080 0.930 . S
C1077 C1076 1.369 . S
C1077 C1086 1.429 . S
C1078 C1076 1.419 1_455 S
C1078 C1079 1.363 . S
C1078 H1081 0.929 . S
C1079 C1078 1.363 . S
C1079 C1085 1.428 . S
H1080 C1076 0.930 . S
H1081 C1078 0.929 . S
S1082 N1083 1.613 1_455 S
S1082 N1084 1.610 . S
N1083 S1082 1.613 1_655 S
N1083 C1086 1.350 . S
N1084 S1082 1.610 . S
N1084 C1085 1.351 . S
C1085 C1079 1.428 . S
C1085 N1084 1.351 . S
C1085 C1086 1.434 1_455 S
C1086 C1077 1.429 . S
C1086 N1083 1.350 . S
C1086 C1085 1.434 1_655 S
C1087 C1088 1.369 . S
C1087 C1089 1.419 . S
C1087 H1091 0.930 . S
C1088 C1087 1.369 . S
C1088 C1097 1.429 . S
C1089 C1087 1.419 . S
C1089 C1090 1.363 . S
C1089 H1092 0.929 . S
C1090 C1089 1.363 . S
C1090 C1096 1.428 . S
H1091 C1087 0.930 . S
H1092 C1089 0.929 . S
S1093 N1094 1.613 . S
S1093 N1095 1.610 . S
N1094 S1093 1.613 . S
N1094 C1097 1.350 . S
N1095 S1093 1.610 . S
N1095 C1096 1.351 . S
C1096 C1090 1.428 . S
C1096 N1095 1.351 . S
C1096 C1097 1.434 . S
C1097 C1088 1.429 . S
C1097 N1094 1.350 . S
C1097 C1096 1.434 . S
C1098 C1099 1.369 . S
C1098 C1100 1.419 . S
C1098 H1102 0.930 . S
C1099 C1098 1.369 . S
C1099 C1108 1.429 . S
C1100 C1098 1.419 . S
C1100 C1101 1.363 . S
C1100 H1103 0.929 . S
C1101 C1100 1.363 . S
C1101 C1107 1.428 . S
H1102 C1098 0.930 . S
H1103 C1100 0.929 . S
S1104 N1105 1.613 . S
S1104 N1106 1.610 . S
N1105 S1104 1.613 . S
N1105 C1108 1.350 . S
N1106 S1104 1.610 . S
N1106 C1107 1.351 . S
C1107 C1101 1.428 . S
C1107 N1106 1.351 . S
C1107 C1108 1.434 . S
C1108 C1099 1.429 . S
C1108 N1105 1.350 . S
C1108 C1107 1.434 . S
C1109 C1110 1.369 . S
C1109 C1111 1.419 . S
C1109 H1113 0.930 . S
C1110 C1109 1.369 . S
C1110 C1119 1.429 . S
C1111 C1109 1.419 . S
C1111 C1112 1.363 . S
C1111 H1114 0.929 . S
C1112 C1111 1.363 . S
C1112 C1118 1.428 . S
H1113 C1109 0.930 . S
H1114 C1111 0.929 . S
S1115 N1116 1.613 . S
S1115 N1117 1.610 . S
N1116 S1115 1.613 . S
N1116 C1119 1.350 . S
N1117 S1115 1.610 . S
N1117 C1118 1.351 . S
C1118 C1112 1.428 . S
C1118 N1117 1.351 . S
C1118 C1119 1.434 . S
C1119 C1110 1.429 . S
C1119 N1116 1.350 . S
C1119 C1118 1.434 . S
C1120 C1121 1.369 . S
C1120 C1122 1.419 . S
C1120 H1124 0.930 . S
C1121 C1120 1.369 . S
C1121 C1130 1.429 . S
C1122 C1120 1.419 . S
C1122 C1123 1.363 . S
C1122 H1125 0.929 . S
C1123 C1122 1.363 . S
C1123 C1129 1.428 . S
H1124 C1120 0.930 . S
H1125 C1122 0.929 . S
S1126 N1127 1.613 . S
S1126 N1128 1.610 . S
N1127 S1126 1.613 . S
N1127 C1130 1.350 . S
N1128 S1126 1.610 . S
N1128 C1129 1.351 . S
C1129 C1123 1.428 . S
C1129 N1128 1.351 . S
C1129 C1130 1.434 . S
C1130 C1121 1.429 . S
C1130 N1127 1.350 . S
C1130 C1129 1.434 . S
C1131 C1132 1.369 . S
C1131 C1133 1.419 . S
C1131 H1135 0.930 . S
C1132 C1131 1.369 . S
C1132 C1141 1.429 . S
C1133 C1131 1.419 . S
C1133 C1134 1.363 . S
C1133 H1136 0.929 . S
C1134 C1133 1.363 . S
C1134 C1140 1.428 . S
H1135 C1131 0.930 . S
H1136 C1133 0.929 . S
S1137 N1138 1.613 . S
S1137 N1139 1.610 . S
N1138 S1137 1.613 . S
N1138 C1141 1.350 . S
N1139 S1137 1.610 . S
N1139 C1140 1.351 . S
C1140 C1134 1.428 . S
C1140 N1139 1.351 . S
C1140 C1141 1.434 . S
C1141 C1132 1.429 . S
C1141 N1138 1.350 . S
C1141 C1140 1.434 . S
C1142 C1143 1.369 . S
C1142 C1144 1.419 . S
C1142 H1146 0.930 . S
C1143 C1142 1.369 . S
C1143 C1152 1.429 . S
C1144 C1142 1.419 . S
C1144 C1145 1.363 . S
C1144 H1147 0.929 . S
C1145 C1144 1.363 . S
C1145 C1151 1.428 . S
H1146 C1142 0.930 . S
H1147 C1144 0.929 . S
S1148 N1149 1.613 . S
S1148 N1150 1.610 . S
N1149 S1148 1.613 . S
N1149 C1152 1.350 . S
N1150 S1148 1.610 . S
N1150 C1151 1.351 . S
C1151 C1145 1.428 . S
C1151 N1150 1.351 . S
C1151 C1152 1.434 . S
C1152 C1143 1.429 . S
C1152 N1149 1.350 . S
C1152 C1151 1.434 . S
C1153 C1154 1.369 . S
C1153 C1155 1.419 . S
C1153 H1157 0.930 . S
C1154 C1153 1.369 . S
C1154 C1163 1.429 . S
C1155 C1153 1.419 . S
C1155 C1156 1.363 . S
C1155 H1158 0.929 . S
C1156 C1155 1.363 . S
C1156 C1162 1.428 . S
H1157 C1153 0.930 . S
H1158 C1155 0.929 . S
S1159 N1160 1.613 . S
S1159 N1161 1.610 . S
N1160 S1159 1.613 . S
N1160 C1163 1.350 . S
N1161 S1159 1.610 . S
N1161 C1162 1.351 . S
C1162 C1156 1.428 . S
C1162 N1161 1.351 . S
C1162 C1163 1.434 . S
C1163 C1154 1.429 . S
C1163 N1160 1.350 . S
C1163 C1162 1.434 . S
C1164 C1165 1.369 . S
C1164 C1166 1.419 . S
C1164 H1168 0.930 . S
C1165 C1164 1.369 . S
C1165 C1174 1.429 . S
C1166 C1164 1.419 . S
C1166 C1167 1.363 . S
C1166 H1169 0.929 . S
C1167 C1166 1.363 . S
C1167 C1173 1.428 . S
H1168 C1164 0.930 . S
H1169 C1166 0.929 . S
S1170 N1171 1.613 . S
S1170 N1172 1.610 . S
N1171 S1170 1.613 . S
N1171 C1174 1.350 . S
N1172 S1170 1.610 . S
N1172 C1173 1.351 . S
C1173 C1167 1.428 . S
C1173 N1172 1.351 . S
C1173 C1174 1.434 . S
C1174 C1165 1.429 . S
C1174 N1171 1.350 . S
C1174 C1173 1.434 . S
C1175 C1176 1.369 . S
C1175 C1177 1.419 . S
C1175 H1179 0.930 . S
C1176 C1175 1.369 . S
C1176 C1185 1.429 . S
C1177 C1175 1.419 . S
C1177 C1178 1.363 . S
C1177 H1180 0.929 . S
C1178 C1177 1.363 . S
C1178 C1184 1.428 . S
H1179 C1175 0.930 . S
H1180 C1177 0.929 . S
S1181 N1182 1.613 . S
S1181 N1183 1.610 . S
N1182 S1181 1.613 . S
N1182 C1185 1.350 . S
N1183 S1181 1.610 . S
N1183 C1184 1.351 . S
C1184 C1178 1.428 . S
C1184 N1183 1.351 . S
C1184 C1185 1.434 . S
C1185 C1176 1.429 . S
C1185 N1182 1.350 . S
C1185 C1184 1.434 . S
C1186 C1187 1.369 . S
C1186 C1188 1.419 . S
C1186 H1190 0.930 . S
C1187 C1186 1.369 . S
C1187 C1196 1.429 . S
C1188 C1186 1.419 . S
C1188 C1189 1.363 . S
C1188 H1191 0.929 . S
C1189 C1188 1.363 . S
C1189 C1195 1.428 . S
H1190 C1186 0.930 . S
H1191 C1188 0.929 . S
S1192 N1193 1.613 . S
S1192 N1194 1.610 . S
N1193 S1192 1.613 . S
N1193 C1196 1.350 . S
N1194 S1192 1.610 . S
N1194 C1195 1.351 . S
C1195 C1189 1.428 . S
C1195 N1194 1.351 . S
C1195 C1196 1.434 . S
C1196 C1187 1.429 . S
C1196 N1193 1.350 . S
C1196 C1195 1.434 . S
C1197 C1198 1.369 . S
C1197 C1199 1.419 . S
C1197 H1201 0.930 . S
C1198 C1197 1.369 . S
C1198 C1207 1.429 . S
C1199 C1197 1.419 . S
C1199 C1200 1.363 . S
C1199 H1202 0.929 . S
C1200 C1199 1.363 . S
C1200 C1206 1.428 . S
H1201 C1197 0.930 . S
H1202 C1199 0.929 . S
S1203 N1204 1.613 . S
S1203 N1205 1.610 . S
N1204 S1203 1.613 . S
N1204 C1207 1.350 . S
N1205 S1203 1.610 . S
N1205 C1206 1.351 . S
C1206 C1200 1.428 . S
C1206 N1205 1.351 . S
C1206 C1207 1.434 . S
C1207 C1198 1.429 . S
C1207 N1204 1.350 . S
C1207 C1206 1.434 . S
C1208 C1209 1.369 . S
C1208 C1210 1.419 . S
C1208 H1212 0.930 . S
C1209 C1208 1.369 . S
C1209 C1218 1.429 . S
C1210 C1208 1.419 . S
C1210 C1211 1.363 . S
C1210 H1213 0.929 . S
C1211 C1210 1.363 . S
C1211 C1217 1.428 . S
H1212 C1208 0.930 . S
H1213 C1210 0.929 . S
S1214 N1215 1.613 . S
S1214 N1216 1.610 . S
N1215 S1214 1.613 . S
N1215 C1218 1.350 . S
N1216 S1214 1.610 . S
N1216 C1217 1.351 . S
C1217 C1211 1.428 . S
C1217 N1216 1.351 . S
C1217 C1218 1.434 . S
C1218 C1209 1.429 . S
C1218 N1215 1.350 . S
C1218 C1217 1.434 . S
C1219 C1220 1.369 . S
C1219 C1221 1.419 . S
C1219 H1223 0.930 . S
C1220 C1219 1.369 . S
C1220 C1229 1.429 . S
C1221 C1219 1.419 . S
C1221 C1222 1.363 . S
C1221 H1224 0.929 . S
C1222 C1221 1.363 . S
C1222 C1228 1.428 . S
H1223 C1219 0.930 . S
H1224 C1221 0.929 . S
S1225 N1226 1.613 . S
S1225 N1227 1.610 . S
N1226 S1225 1.613 . S
N1226 C1229 1.350 . S
N1227 S1225 1.610 . S
N1227 C1228 1.351 . S
C1228 C1222 1.428 . S
C1228 N1227 1.351 . S
C1228 C1229 1.434 . S
C1229 C1220 1.429 . S
C1229 N1226 1.350 . S
C1229 C1228 1.434 . S
C1230 C1231 1.369 . S
C1230 C1232 1.419 1_456 S
C1230 H1234 0.930 . S
C1231 C1230 1.369 . S
C1231 C1240 1.429 . S
C1232 C1230 1.419 1_654 S
C1232 C1233 1.363 . S
C1232 H1235 0.929 . S
C1233 C1232 1.363 . S
C1233 C1239 1.428 . S
H1234 C1230 0.930 . S
H1235 C1232 0.929 . S
S1236 N1237 1.613 1_554 S
S1236 N1238 1.610 1_455 S
N1237 S1236 1.613 1_556 S
N1237 C1240 1.350 . S
N1238 S1236 1.610 1_655 S
N1238 C1239 1.351 . S
C1239 C1233 1.428 . S
C1239 N1238 1.351 . S
C1239 C1240 1.434 1_654 S
C1240 C1231 1.429 . S
C1240 N1237 1.350 . S
C1240 C1239 1.434 1_456 S
C1241 C1242 1.369 . S
C1241 C1243 1.419 1_554 S
C1241 H1245 0.930 . S
C1242 C1241 1.369 . S
C1242 C1251 1.429 . S
C1243 C1241 1.419 1_556 S
C1243 C1244 1.363 . S
C1243 H1246 0.929 . S
C1244 C1243 1.363 . S
C1244 C1250 1.428 . S
H1245 C1241 0.930 . S
H1246 C1243 0.929 . S
S1247 N1248 1.613 . S
S1247 N1249 1.610 1_554 S
N1248 S1247 1.613 . S
N1248 C1251 1.350 . S
N1249 S1247 1.610 1_556 S
N1249 C1250 1.351 . S
C1250 C1244 1.428 . S
C1250 N1249 1.351 . S
C1250 C1251 1.434 1_556 S
C1251 C1242 1.429 . S
C1251 N1248 1.350 . S
C1251 C1250 1.434 1_554 S
C1252 C1253 1.369 1_565 S
C1252 C1254 1.419 1_554 S
C1252 H1256 0.930 . S
C1253 C1252 1.369 1_545 S
C1253 C1262 1.429 . S
C1254 C1252 1.419 1_556 S
C1254 C1255 1.363 . S
C1254 H1257 0.929 . S
C1255 C1254 1.363 . S
C1255 C1261 1.428 1_565 S
H1256 C1252 0.930 . S
H1257 C1254 0.929 . S
S1258 N1259 1.613 1_556 S
S1258 N1260 1.610 . S
N1259 S1258 1.613 1_554 S
N1259 C1262 1.350 . S
N1260 S1258 1.610 . S
N1260 C1261 1.351 . S
C1261 C1255 1.428 1_545 S
C1261 N1260 1.351 . S
C1261 C1262 1.434 1_556 S
C1262 C1253 1.429 . S
C1262 N1259 1.350 . S
C1262 C1261 1.434 1_554 S
C1263 C1264 1.369 . S
C1263 C1265 1.419 1_566 S
C1263 H1267 0.930 . S
C1264 C1263 1.369 . S
C1264 C1273 1.429 . S
C1265 C1263 1.419 1_544 S
C1265 C1266 1.363 . S
C1265 H1268 0.929 . S
C1266 C1265 1.363 . S
C1266 C1272 1.428 . S
H1267 C1263 0.930 . S
H1268 C1265 0.929 . S
S1269 N1270 1.613 1_545 S
S1269 N1271 1.610 1_556 S
N1270 S1269 1.613 1_565 S
N1270 C1273 1.350 . S
N1271 S1269 1.610 1_554 S
N1271 C1272 1.351 . S
C1272 C1266 1.428 . S
C1272 N1271 1.351 . S
C1272 C1273 1.434 1_544 S
C1273 C1264 1.429 . S
C1273 N1270 1.350 . S
C1273 C1272 1.434 1_566 S
C1274 C1275 1.369 . S
C1274 C1276 1.419 1_456 S
C1274 H1278 0.930 . S
C1275 C1274 1.369 . S
C1275 C1284 1.429 . S
C1276 C1274 1.419 1_654 S
C1276 C1277 1.363 . S
C1276 H1279 0.929 . S
C1277 C1276 1.363 . S
C1277 C1283 1.428 . S
H1278 C1274 0.930 . S
H1279 C1276 0.929 . S
S1280 N1281 1.609 1_554 S
S1280 N1282 1.612 1_455 S
N1281 S1280 1.609 1_556 S
N1281 C1284 1.350 . S
N1282 S1280 1.612 1_655 S
N1282 C1283 1.351 . S
C1283 C1277 1.428 . S
C1283 N1282 1.351 . S
C1283 C1284 1.434 1_654 S
C1284 C1275 1.429 . S
C1284 N1281 1.350 . S
C1284 C1283 1.434 1_456 S
C1285 C1286 1.369 . S
C1285 C1287 1.419 1_554 S
C1285 H1289 0.930 . S
C1286 C1285 1.369 . S
C1286 C1295 1.429 . S
C1287 C1285 1.419 1_556 S
C1287 C1288 1.363 . S
C1287 H1290 0.929 . S
C1288 C1287 1.363 . S
C1288 C1294 1.428 . S
H1289 C1285 0.930 . S
H1290 C1287 0.929 . S
S1291 N1292 1.613 . S
S1291 N1293 1.610 1_554 S
N1292 S1291 1.613 . S
N1292 C1295 1.350 . S
N1293 S1291 1.610 1_556 S
N1293 C1294 1.351 . S
C1294 C1288 1.428 . S
C1294 N1293 1.351 . S
C1294 C1295 1.434 1_556 S
C1295 C1286 1.429 . S
C1295 N1292 1.350 . S
C1295 C1294 1.434 1_554 S
C505 C8 1.335 . S
C507 C162 1.336 . S
C516 C22 1.341 . S
C518 C134 1.340 . S
C527 C148 1.337 . S
C529 C36 1.337 . S
C538 C50 1.338 . S
C540 C106 1.338 . S
C549 C120 1.335 . S
C551 C64 1.335 . S
C560 C78 1.342 . S
C562 C92 1.341 . S
C571 C330 1.333 . S
C573 C176 1.334 . S
C582 C190 1.334 . S
C584 C302 1.334 . S
C593 C204 1.334 . S
C595 C316 1.334 . S
C604 C274 1.334 . S
C606 C218 1.335 . S
C615 C232 1.337 . S
C617 C288 1.337 . S
C626 C260 1.336 . S
C628 C246 1.337 . S
C637 C344 1.333 . S
C639 C498 1.334 . S
C648 C470 1.334 . S
C650 C358 1.335 . S
C659 C484 1.337 . S
C661 C372 1.338 . S
C670 C442 1.339 . S
C672 C386 1.339 . S
C681 C456 1.339 . S
C683 C400 1.338 . S
C692 C428 1.342 . S
C694 C414 1.341 . S
C703 C7 1.431 . S
C705 C63 1.435 . S
C714 C77 1.436 . S
C716 C21 1.433 . S
C725 C35 1.436 . S
C727 C49 1.433 . S
C736 C91 1.431 . S
C738 C147 1.435 . S
C747 C105 1.435 . S
C749 C161 1.435 . S
C758 C119 1.435 . S
C760 C133 1.432 . S
C769 C231 1.434 . S
C771 C175 1.431 . S
C780 C245 1.436 . S
C782 C189 1.432 . S
C791 C203 1.431 . S
C793 C217 1.435 . S
C802 C315 1.432 . S
C804 C259 1.435 . S
C813 C329 1.431 . S
C815 C273 1.434 . S
C824 C287 1.434 . S
C826 C301 1.435 . S
C835 C399 1.433 . S
C837 C343 1.435 . S
C846 C357 1.435 . S
C848 C413 1.436 . S
C857 C371 1.432 . S
C859 C385 1.435 . S
C868 C483 1.430 . S
C870 C427 1.434 . S
C879 C441 1.435 . S
C881 C497 1.432 . S
C890 C469 1.431 . S
C892 C455 1.435 . S
C901 C415 1.510 . S
C903 C9 1.514 . S
C912 C23 1.511 . S
C914 C387 1.515 . S
C923 C37 1.511 . S
C925 C401 1.514 . S
C934 C51 1.512 . S
C936 C191 1.512 . S
C945 C205 1.512 . S
C947 C65 1.512 . S
C956 C177 1.510 . S
C958 C79 1.514 . S
C967 C93 1.510 . S
C969 C331 1.513 . S
C978 C107 1.514 . S
C980 C303 1.511 . S
C989 C121 1.512 . S
C991 C317 1.512 . S
C1000 C443 1.513 . S
C1002 C135 1.513 . S
C1011 C457 1.512 . S
C1013 C149 1.514 . S
C1022 C163 1.510 . S
C1024 C429 1.514 . S
C1033 C359 1.511 . S
C1035 C219 1.515 . S
C1044 C233 1.512 . S
C1046 C373 1.514 . S
C1055 C345 1.515 . S
C1057 C247 1.511 . S
C1066 C499 1.510 . S
C1068 C261 1.514 . S
C1077 C275 1.513 . S
C1079 C471 1.514 . S
C1088 C289 1.511 . S
C1090 C485 1.512 . S
C1099 C6 1.512 . S
C1101 C412 1.506 . S
C1110 C384 1.505 . S
C1112 C20 1.511 . S
C1121 C34 1.510 . S
C1123 C398 1.506 . S
C1132 C188 1.507 . S
C1134 C48 1.511 . S
C1143 C62 1.511 . S
C1145 C202 1.508 . S
C1154 C76 1.505 . S
C1156 C174 1.511 . S
C1165 C328 1.512 . S
C1167 C90 1.506 . S
C1176 C104 1.507 . S
C1178 C300 1.511 . S
C1187 C118 1.506 . S
C1189 C314 1.508 . S
C1198 C132 1.505 . S
C1200 C440 1.510 . S
C1209 C454 1.512 . S
C1211 C146 1.506 . S
C1220 C160 1.509 . S
C1222 C426 1.506 . S
C1231 C356 1.509 . S
C1233 C216 1.510 . S
C1242 C230 1.507 . S
C1244 C370 1.511 . S
C1253 C244 1.512 . S
C1255 C342 1.506 . S
C1264 C496 1.506 . S
C1266 C258 1.509 . S
C1275 C468 1.506 . S
C1277 C272 1.508 . S
C1286 C286 1.506 . S
C1288 C482 1.508 . S
