# Generated by pormake.
# Topology lta, (4)-cn, num edge types: 1
# Building blocks:
#     Node 0, Type 0, BuildingBlock: KUFVIS_clean_sbu_0, # of connection points: 4
#     Node 1, Type 0, BuildingBlock: KUFVIS_clean_sbu_0, # of connection points: 4
#     Node 2, Type 0, BuildingBlock: KUFVIS_clean_sbu_0, # of connection points: 4
#     Node 3, Type 0, BuildingBlock: KUFVIS_clean_sbu_0, # of connection points: 4
#     Node 4, Type 0, BuildingBlock: KUFVIS_clean_sbu_0, # of connection points: 4
#     Node 5, Type 0, BuildingBlock: KUFVIS_clean_sbu_0, # of connection points: 4
#     Node 6, Type 0, BuildingBlock: KUFVIS_clean_sbu_0, # of connection points: 4
#     Node 7, Type 0, BuildingBlock: KUFVIS_clean_sbu_0, # of connection points: 4
#     Node 8, Type 0, BuildingBlock: KUFVIS_clean_sbu_0, # of connection points: 4
#     Node 9, Type 0, BuildingBlock: KUFVIS_clean_sbu_0, # of connection points: 4
#     Node 10, Type 0, BuildingBlock: KUFVIS_clean_sbu_0, # of connection points: 4
#     Node 11, Type 0, BuildingBlock: KUFVIS_clean_sbu_0, # of connection points: 4
#     Node 12, Type 0, BuildingBlock: KUFVIS_clean_sbu_0, # of connection points: 4
#     Node 13, Type 0, BuildingBlock: KUFVIS_clean_sbu_0, # of connection points: 4
#     Node 14, Type 0, BuildingBlock: KUFVIS_clean_sbu_0, # of connection points: 4
#     Node 15, Type 0, BuildingBlock: KUFVIS_clean_sbu_0, # of connection points: 4
#     Node 16, Type 0, BuildingBlock: KUFVIS_clean_sbu_0, # of connection points: 4
#     Node 17, Type 0, BuildingBlock: KUFVIS_clean_sbu_0, # of connection points: 4
#     Node 18, Type 0, BuildingBlock: KUFVIS_clean_sbu_0, # of connection points: 4
#     Node 19, Type 0, BuildingBlock: KUFVIS_clean_sbu_0, # of connection points: 4
#     Node 20, Type 0, BuildingBlock: KUFVIS_clean_sbu_0, # of connection points: 4
#     Node 21, Type 0, BuildingBlock: KUFVIS_clean_sbu_0, # of connection points: 4
#     Node 22, Type 0, BuildingBlock: KUFVIS_clean_sbu_0, # of connection points: 4
#     Node 23, Type 0, BuildingBlock: KUFVIS_clean_sbu_0, # of connection points: 4
#     Edge 24, Type (0, 0), BuildingBlock: XUDNAN_clean_linker_2, # of connection points: 2
#     Edge 25, Type (0, 0), BuildingBlock: XUDNAN_clean_linker_2, # of connection points: 2
#     Edge 26, Type (0, 0), BuildingBlock: XUDNAN_clean_linker_2, # of connection points: 2
#     Edge 27, Type (0, 0), BuildingBlock: XUDNAN_clean_linker_2, # of connection points: 2
#     Edge 28, Type (0, 0), BuildingBlock: XUDNAN_clean_linker_2, # of connection points: 2
#     Edge 29, Type (0, 0), BuildingBlock: XUDNAN_clean_linker_2, # of connection points: 2
#     Edge 30, Type (0, 0), BuildingBlock: XUDNAN_clean_linker_2, # of connection points: 2
#     Edge 31, Type (0, 0), BuildingBlock: XUDNAN_clean_linker_2, # of connection points: 2
#     Edge 32, Type (0, 0), BuildingBlock: XUDNAN_clean_linker_2, # of connection points: 2
#     Edge 33, Type (0, 0), BuildingBlock: XUDNAN_clean_linker_2, # of connection points: 2
#     Edge 34, Type (0, 0), BuildingBlock: XUDNAN_clean_linker_2, # of connection points: 2
#     Edge 35, Type (0, 0), BuildingBlock: XUDNAN_clean_linker_2, # of connection points: 2
#     Edge 36, Type (0, 0), BuildingBlock: XUDNAN_clean_linker_2, # of connection points: 2
#     Edge 37, Type (0, 0), BuildingBlock: XUDNAN_clean_linker_2, # of connection points: 2
#     Edge 38, Type (0, 0), BuildingBlock: XUDNAN_clean_linker_2, # of connection points: 2
#     Edge 39, Type (0, 0), BuildingBlock: XUDNAN_clean_linker_2, # of connection points: 2
#     Edge 40, Type (0, 0), BuildingBlock: XUDNAN_clean_linker_2, # of connection points: 2
#     Edge 41, Type (0, 0), BuildingBlock: XUDNAN_clean_linker_2, # of connection points: 2
#     Edge 42, Type (0, 0), BuildingBlock: XUDNAN_clean_linker_2, # of connection points: 2
#     Edge 43, Type (0, 0), BuildingBlock: XUDNAN_clean_linker_2, # of connection points: 2
#     Edge 44, Type (0, 0), BuildingBlock: XUDNAN_clean_linker_2, # of connection points: 2
#     Edge 45, Type (0, 0), BuildingBlock: XUDNAN_clean_linker_2, # of connection points: 2
#     Edge 46, Type (0, 0), BuildingBlock: XUDNAN_clean_linker_2, # of connection points: 2
#     Edge 47, Type (0, 0), BuildingBlock: XUDNAN_clean_linker_2, # of connection points: 2
#     Edge 48, Type (0, 0), BuildingBlock: XUDNAN_clean_linker_2, # of connection points: 2
#     Edge 49, Type (0, 0), BuildingBlock: XUDNAN_clean_linker_2, # of connection points: 2
#     Edge 50, Type (0, 0), BuildingBlock: XUDNAN_clean_linker_2, # of connection points: 2
#     Edge 51, Type (0, 0), BuildingBlock: XUDNAN_clean_linker_2, # of connection points: 2
#     Edge 52, Type (0, 0), BuildingBlock: XUDNAN_clean_linker_2, # of connection points: 2
#     Edge 53, Type (0, 0), BuildingBlock: XUDNAN_clean_linker_2, # of connection points: 2
#     Edge 54, Type (0, 0), BuildingBlock: XUDNAN_clean_linker_2, # of connection points: 2
#     Edge 55, Type (0, 0), BuildingBlock: XUDNAN_clean_linker_2, # of connection points: 2
#     Edge 56, Type (0, 0), BuildingBlock: XUDNAN_clean_linker_2, # of connection points: 2
#     Edge 57, Type (0, 0), BuildingBlock: XUDNAN_clean_linker_2, # of connection points: 2
#     Edge 58, Type (0, 0), BuildingBlock: XUDNAN_clean_linker_2, # of connection points: 2
#     Edge 59, Type (0, 0), BuildingBlock: XUDNAN_clean_linker_2, # of connection points: 2
#     Edge 60, Type (0, 0), BuildingBlock: XUDNAN_clean_linker_2, # of connection points: 2
#     Edge 61, Type (0, 0), BuildingBlock: XUDNAN_clean_linker_2, # of connection points: 2
#     Edge 62, Type (0, 0), BuildingBlock: XUDNAN_clean_linker_2, # of connection points: 2
#     Edge 63, Type (0, 0), BuildingBlock: XUDNAN_clean_linker_2, # of connection points: 2
#     Edge 64, Type (0, 0), BuildingBlock: XUDNAN_clean_linker_2, # of connection points: 2
#     Edge 65, Type (0, 0), BuildingBlock: XUDNAN_clean_linker_2, # of connection points: 2
#     Edge 66, Type (0, 0), BuildingBlock: XUDNAN_clean_linker_2, # of connection points: 2
#     Edge 67, Type (0, 0), BuildingBlock: XUDNAN_clean_linker_2, # of connection points: 2
#     Edge 68, Type (0, 0), BuildingBlock: XUDNAN_clean_linker_2, # of connection points: 2
#     Edge 69, Type (0, 0), BuildingBlock: XUDNAN_clean_linker_2, # of connection points: 2
#     Edge 70, Type (0, 0), BuildingBlock: XUDNAN_clean_linker_2, # of connection points: 2
#     Edge 71, Type (0, 0), BuildingBlock: XUDNAN_clean_linker_2, # of connection points: 2
# Relax obj value: 0.252
# Max RMSD: 0.133
# Mean RMSD: 0.133
data_MOF--net-lta--node1-KUFVIS_clean_sbu_0--edge1-XUDNAN_clean_linker_2
_symmetry_space_group_name_H-M    P1
_symmetry_Int_Tables_number       1
_symmetry_cell_setting            triclinic
loop_
_symmetry_equiv_pos_as_xyz
'x, y, z'
_cell_length_a     56.515532
_cell_length_b     56.58036
_cell_length_c     56.560499
_cell_angle_alpha  90.017319
_cell_angle_beta   89.978817
_cell_angle_gamma 90.007967
loop_
_atom_site_label
_atom_site_type_symbol
_atom_site_fract_x
_atom_site_fract_y
_atom_site_fract_z
_atom_type_partial_charge
Mn0 Mn 0.13041 0.32408 0.51002 0.0
Mn1 Mn 0.18279 0.35246 0.51192 0.0
C2 C 0.14534 0.33745 0.54575 0.0
C3 C 0.08941 0.32725 0.50544 0.0
C4 C 0.17836 0.29924 0.50602 0.0
O5 O 0.13573 0.33351 0.47573 0.0
O6 O 0.16983 0.35402 0.47929 0.0
C7 C 0.16632 0.40127 0.50267 0.0
N8 N 0.17727 0.3854 0.5171 0.0
C9 C 0.18597 0.41561 0.54574 0.0
C10 C 0.17495 0.43232 0.5311 0.0
C11 C 0.16499 0.42509 0.50952 0.0
C12 C 0.18671 0.39213 0.53799 0.0
H13 H 0.15874 0.39583 0.48601 0.0
C14 C 0.15243 0.34605 0.4672 0.0
O15 O 0.10007 0.30719 0.50183 0.0
O16 O 0.10254 0.34495 0.51148 0.0
N17 N 0.19702 0.35257 0.54263 0.0
C18 C 0.20761 0.3344 0.55437 0.0
C19 C 0.21835 0.33867 0.57635 0.0
C20 C 0.21826 0.36159 0.58592 0.0
C21 C 0.20759 0.38008 0.57333 0.0
C22 C 0.19724 0.37477 0.55147 0.0
H23 H 0.20784 0.31678 0.54704 0.0
O24 O 0.12956 0.32081 0.54531 0.0
O25 O 0.15181 0.34549 0.52528 0.0
O26 O 0.15576 0.298 0.50725 0.0
O27 O 0.18984 0.31868 0.5072 0.0
C28 C 0.20688 0.40356 0.58158 0.0
C29 C 0.19616 0.42133 0.56776 0.0
H30 H 0.17389 0.45071 0.53633 0.0
H31 H 0.15638 0.43785 0.49817 0.0
H32 H 0.22666 0.32433 0.5859 0.0
H33 H 0.22648 0.36479 0.60292 0.0
H34 H 0.21459 0.40817 0.59849 0.0
H35 H 0.19575 0.43933 0.57427 0.0
Mn36 Mn 0.68429 0.12627 0.50897 0.0
Mn37 Mn 0.65079 0.17536 0.50484 0.0
C38 C 0.6616 0.13908 0.54102 0.0
C39 C 0.69005 0.08561 0.5049 0.0
C40 C 0.70435 0.17653 0.50812 0.0
O41 O 0.68033 0.13041 0.47318 0.0
O42 O 0.65572 0.16188 0.47298 0.0
C43 C 0.60592 0.15378 0.48849 0.0
N44 N 0.61809 0.16669 0.5048 0.0
C45 C 0.58297 0.1724 0.52818 0.0
C46 C 0.57007 0.15915 0.51166 0.0
C47 C 0.58161 0.14978 0.49174 0.0
C48 C 0.60718 0.17568 0.52407 0.0
H49 H 0.61469 0.14657 0.47313 0.0
C50 C 0.66706 0.1453 0.46247 0.0
O51 O 0.70756 0.10042 0.50473 0.0
O52 O 0.66894 0.09444 0.50714 0.0
N53 N 0.64443 0.18951 0.53488 0.0
C54 C 0.6595 0.20155 0.54932 0.0
C55 C 0.65063 0.21261 0.56968 0.0
C56 C 0.62639 0.21126 0.57493 0.0
C57 C 0.61127 0.19843 0.56003 0.0
C58 C 0.62107 0.18801 0.53985 0.0
H59 H 0.6781 0.20295 0.54518 0.0
O60 O 0.68009 0.12588 0.54447 0.0
O61 O 0.65793 0.14487 0.51922 0.0
O62 O 0.70696 0.15433 0.51068 0.0
O63 O 0.68415 0.18624 0.50522 0.0
C64 C 0.58686 0.19565 0.56435 0.0
C65 C 0.57277 0.18244 0.54857 0.0
H66 H 0.55131 0.15605 0.51408 0.0
H67 H 0.57178 0.13955 0.47891 0.0
H68 H 0.66241 0.22235 0.5812 0.0
H69 H 0.6196 0.22007 0.59053 0.0
H70 H 0.57875 0.2035 0.57983 0.0
H71 H 0.55408 0.18021 0.55223 0.0
Mn72 Mn 0.87409 0.67479 0.51593 0.0
Mn73 Mn 0.82236 0.6452 0.51585 0.0
C74 C 0.85662 0.66365 0.55143 0.0
C75 C 0.91543 0.67246 0.51457 0.0
C76 C 0.82638 0.69786 0.50553 0.0
O77 O 0.8718 0.66236 0.48223 0.0
O78 O 0.83901 0.6398 0.4853 0.0
C79 C 0.83904 0.59561 0.51377 0.0
N80 N 0.82732 0.61315 0.52541 0.0
C81 C 0.81593 0.58644 0.5565 0.0
C82 C 0.82765 0.56807 0.54467 0.0
C83 C 0.83939 0.57271 0.5233 0.0
C84 C 0.81604 0.60887 0.54604 0.0
H85 H 0.84781 0.59896 0.49718 0.0
C86 C 0.85709 0.6474 0.47393 0.0
O87 O 0.90455 0.69181 0.50855 0.0
O88 O 0.90231 0.65495 0.52119 0.0
N89 N 0.80525 0.64856 0.54491 0.0
C90 C 0.79384 0.66794 0.55358 0.0
C91 C 0.78127 0.66622 0.57493 0.0
C92 C 0.78047 0.6446 0.58711 0.0
C93 C 0.79213 0.62483 0.57773 0.0
C94 C 0.80431 0.62759 0.55634 0.0
H95 H 0.79432 0.6846 0.54431 0.0
O96 O 0.872 0.68068 0.55089 0.0
O97 O 0.85193 0.65412 0.53113 0.0
O98 O 0.84861 0.69987 0.50927 0.0
O99 O 0.81538 0.67813 0.50652 0.0
C100 C 0.79223 0.60253 0.58883 0.0
C101 C 0.80408 0.58334 0.57819 0.0
H102 H 0.82788 0.55036 0.55194 0.0
H103 H 0.84856 0.55865 0.51412 0.0
H104 H 0.77226 0.68154 0.58202 0.0
H105 H 0.77085 0.64337 0.60363 0.0
H106 H 0.78316 0.59993 0.6055 0.0
H107 H 0.80393 0.56625 0.58682 0.0
Mn108 Mn 0.32168 0.87188 0.51549 0.0
Mn109 Mn 0.35381 0.82159 0.51773 0.0
C110 C 0.33491 0.85753 0.55165 0.0
C111 C 0.31769 0.91268 0.51091 0.0
C112 C 0.30094 0.82263 0.50819 0.0
O113 O 0.33385 0.86818 0.48166 0.0
O114 O 0.35819 0.83687 0.48642 0.0
C115 C 0.40288 0.83968 0.51416 0.0
N116 N 0.38585 0.82802 0.5266 0.0
C117 C 0.41373 0.81771 0.55706 0.0
C118 C 0.43158 0.82937 0.54441 0.0
C119 C 0.42608 0.84059 0.52297 0.0
C120 C 0.39094 0.81732 0.54735 0.0
H121 H 0.39891 0.84789 0.49744 0.0
C122 C 0.34962 0.85384 0.47412 0.0
O123 O 0.30059 0.89814 0.50632 0.0
O124 O 0.33759 0.90352 0.51794 0.0
N125 N 0.35143 0.80566 0.54753 0.0
C126 C 0.33267 0.79362 0.55671 0.0
C127 C 0.33534 0.78124 0.57806 0.0
C128 C 0.35733 0.78114 0.58963 0.0
C129 C 0.37649 0.79332 0.57967 0.0
C130 C 0.37277 0.80537 0.55836 0.0
H131 H 0.31577 0.7934 0.54783 0.0
O132 O 0.31686 0.87169 0.55066 0.0
O133 O 0.34441 0.85213 0.53147 0.0
O134 O 0.29842 0.84471 0.51134 0.0
O135 O 0.32106 0.81239 0.50898 0.0
C136 C 0.39913 0.79401 0.59008 0.0
C137 C 0.41774 0.8062 0.57879 0.0
H138 H 0.44953 0.83 0.5511 0.0
H139 H 0.43974 0.84972 0.51315 0.0
H140 H 0.3205 0.77176 0.58557 0.0
H141 H 0.3593 0.77161 0.60612 0.0
H142 H 0.40246 0.78512 0.60671 0.0
H143 H 0.43512 0.80646 0.58687 0.0
Mn144 Mn 0.12936 0.67646 0.48876 0.0
Mn145 Mn 0.18127 0.64721 0.48598 0.0
C146 C 0.14289 0.6621 0.45287 0.0
C147 C 0.0887 0.67409 0.49588 0.0
C148 C 0.17771 0.70064 0.49098 0.0
O149 O 0.13592 0.66799 0.52306 0.0
O150 O 0.16885 0.64582 0.51883 0.0
C151 C 0.16449 0.59859 0.4957 0.0
N152 N 0.17538 0.6143 0.48104 0.0
C153 C 0.18397 0.58378 0.4527 0.0
C154 C 0.17301 0.56723 0.46757 0.0
C155 C 0.16311 0.5747 0.4891 0.0
C156 C 0.18469 0.60736 0.46015 0.0
H157 H 0.15703 0.6042 0.51236 0.0
C158 C 0.15217 0.65473 0.53128 0.0
O159 O 0.09982 0.69411 0.498 0.0
O160 O 0.10107 0.656 0.48935 0.0
N161 N 0.19503 0.64686 0.45506 0.0
C162 C 0.20573 0.66486 0.44314 0.0
C163 C 0.21641 0.66034 0.42117 0.0
C164 C 0.21622 0.63733 0.41183 0.0
C165 C 0.2055 0.619 0.42463 0.0
C166 C 0.19517 0.62456 0.44644 0.0
H167 H 0.20612 0.68253 0.45032 0.0
O168 O 0.12709 0.67873 0.45347 0.0
O169 O 0.15 0.65443 0.47327 0.0
O170 O 0.15514 0.70221 0.48971 0.0
O171 O 0.18883 0.68096 0.49047 0.0
C172 C 0.20481 0.59542 0.41667 0.0
C173 C 0.19416 0.5778 0.43074 0.0
H174 H 0.17195 0.54878 0.46256 0.0
H175 H 0.15456 0.56206 0.50065 0.0
H176 H 0.22478 0.67454 0.41148 0.0
H177 H 0.22443 0.63392 0.39486 0.0
H178 H 0.21252 0.59061 0.3998 0.0
H179 H 0.19379 0.55971 0.42446 0.0
Mn180 Mn 0.32247 0.12681 0.49069 0.0
Mn181 Mn 0.35466 0.17718 0.49064 0.0
C182 C 0.34059 0.13962 0.45622 0.0
C183 C 0.31797 0.08622 0.49653 0.0
C184 C 0.30099 0.17645 0.49179 0.0
O185 O 0.32909 0.13236 0.52574 0.0
O186 O 0.35278 0.16444 0.52324 0.0
C187 C 0.40164 0.15823 0.50398 0.0
N188 N 0.38761 0.16992 0.48827 0.0
C189 C 0.42092 0.17862 0.46324 0.0
C190 C 0.43573 0.16669 0.47916 0.0
C191 C 0.42601 0.15634 0.49956 0.0
C192 C 0.39672 0.1796 0.46841 0.0
H193 H 0.39432 0.15058 0.51986 0.0
C194 C 0.34231 0.14817 0.53497 0.0
O195 O 0.30031 0.10077 0.49791 0.0
O196 O 0.33865 0.09528 0.49211 0.0
N197 N 0.35813 0.19128 0.46008 0.0
C198 C 0.34164 0.20311 0.44707 0.0
C199 C 0.34849 0.21439 0.42604 0.0
C200 C 0.37227 0.21378 0.41882 0.0
C201 C 0.38902 0.20201 0.4328 0.0
C202 C 0.38113 0.19098 0.45352 0.0
H203 H 0.3234 0.20394 0.45268 0.0
O204 O 0.32268 0.12528 0.45529 0.0
O205 O 0.34738 0.14594 0.47722 0.0
O206 O 0.29886 0.15412 0.49019 0.0
O207 O 0.32103 0.18683 0.49269 0.0
C208 C 0.41329 0.20114 0.42718 0.0
C209 C 0.42925 0.18963 0.44248 0.0
H210 H 0.45457 0.16534 0.47589 0.0
H211 H 0.43732 0.14715 0.51196 0.0
H212 H 0.33549 0.22362 0.41546 0.0
H213 H 0.37749 0.22254 0.40261 0.0
H214 H 0.41989 0.20944 0.41124 0.0
H215 H 0.44789 0.18919 0.43804 0.0
Mn216 Mn 0.87451 0.32443 0.48957 0.0
Mn217 Mn 0.82254 0.35307 0.48406 0.0
C218 C 0.86066 0.33483 0.45242 0.0
C219 C 0.91538 0.32757 0.49509 0.0
C220 C 0.82616 0.30038 0.49412 0.0
O221 O 0.86836 0.3365 0.52292 0.0
O222 O 0.83472 0.35711 0.51683 0.0
C223 C 0.83981 0.40214 0.48976 0.0
N224 N 0.82878 0.38538 0.47643 0.0
C225 C 0.82146 0.41333 0.44523 0.0
C226 C 0.83246 0.43095 0.45877 0.0
C227 C 0.84182 0.42529 0.48106 0.0
C228 C 0.82002 0.39057 0.45481 0.0
H229 H 0.84693 0.39792 0.50696 0.0
C230 C 0.85168 0.34992 0.52998 0.0
O231 O 0.90438 0.30794 0.49993 0.0
O232 O 0.90265 0.34487 0.4873 0.0
N233 N 0.80892 0.35098 0.45314 0.0
C234 C 0.79783 0.33225 0.44282 0.0
C235 C 0.7874 0.33501 0.42045 0.0
C236 C 0.78831 0.35704 0.40903 0.0
C237 C 0.79942 0.37619 0.4202 0.0
C238 C 0.80937 0.37241 0.44255 0.0
H239 H 0.79694 0.31532 0.45158 0.0
O240 O 0.87633 0.31826 0.45473 0.0
O241 O 0.85373 0.34466 0.47198 0.0
O242 O 0.84878 0.29894 0.49362 0.0
O243 O 0.81486 0.31976 0.49122 0.0
C244 C 0.80092 0.39889 0.41007 0.0
C245 C 0.81189 0.41746 0.42259 0.0
H246 H 0.83389 0.44885 0.45219 0.0
H247 H 0.85045 0.43877 0.49155 0.0
H248 H 0.77872 0.3202 0.41202 0.0
H249 H 0.78036 0.35907 0.39173 0.0
H250 H 0.7936 0.40229 0.3927 0.0
H251 H 0.81291 0.43485 0.41465 0.0
Mn252 Mn 0.68434 0.87134 0.489 0.0
Mn253 Mn 0.65022 0.82255 0.48938 0.0
C254 C 0.66509 0.85897 0.45464 0.0
C255 C 0.69002 0.91191 0.49398 0.0
C256 C 0.7039 0.82094 0.49061 0.0
O257 O 0.6771 0.8669 0.52415 0.0
O258 O 0.65255 0.83544 0.52191 0.0
C259 C 0.6043 0.84428 0.50244 0.0
N260 N 0.61769 0.83164 0.4869 0.0
C261 C 0.58425 0.82574 0.46125 0.0
C262 C 0.57015 0.83881 0.47691 0.0
C263 C 0.58025 0.84816 0.49758 0.0
C264 C 0.60822 0.8228 0.46684 0.0
H265 H 0.61185 0.85124 0.51848 0.0
C266 C 0.66317 0.85174 0.53347 0.0
O267 O 0.70731 0.89695 0.49574 0.0
O268 O 0.66917 0.90329 0.48962 0.0
N269 N 0.6461 0.8088 0.45875 0.0
C270 C 0.66205 0.79644 0.44559 0.0
C271 C 0.65455 0.7851 0.42482 0.0
C272 C 0.63071 0.78638 0.41797 0.0
C273 C 0.61467 0.79946 0.43163 0.0
C274 C 0.62317 0.81038 0.45214 0.0
H275 H 0.68029 0.79492 0.45106 0.0
O276 O 0.68399 0.87198 0.45345 0.0
O277 O 0.65881 0.85315 0.47588 0.0
O278 O 0.70676 0.84318 0.48911 0.0
O279 O 0.68348 0.81123 0.49142 0.0
C280 C 0.59051 0.80179 0.42589 0.0
C281 C 0.57539 0.81519 0.44051 0.0
H282 H 0.55153 0.84161 0.47334 0.0
H283 H 0.56946 0.85815 0.50985 0.0
H284 H 0.66705 0.77514 0.41429 0.0
H285 H 0.62493 0.77736 0.40209 0.0
H286 H 0.58337 0.7934 0.41023 0.0
H287 H 0.5569 0.81697 0.43581 0.0
Mn288 Mn 0.51629 0.13228 0.32526 0.0
Mn289 Mn 0.51519 0.18563 0.35131 0.0
C290 C 0.55221 0.1486 0.33786 0.0
C291 C 0.51413 0.09115 0.32856 0.0
C292 C 0.50953 0.17844 0.29837 0.0
O293 O 0.48196 0.13504 0.33558 0.0
O294 O 0.4837 0.17023 0.35388 0.0
C295 C 0.50691 0.17183 0.40113 0.0
N296 N 0.51974 0.18386 0.38469 0.0
C297 C 0.53991 0.20612 0.41478 0.0
C298 C 0.52704 0.19387 0.43211 0.0
C299 C 0.51064 0.17647 0.42525 0.0
C300 C 0.53608 0.20005 0.39111 0.0
H301 H 0.49367 0.1591 0.39585 0.0
C302 C 0.47259 0.15168 0.34741 0.0
O303 O 0.50932 0.10164 0.30869 0.0
O304 O 0.52015 0.10453 0.34613 0.0
N305 N 0.54372 0.20362 0.35085 0.0
C306 C 0.55536 0.21298 0.33195 0.0
C307 C 0.57286 0.23021 0.33572 0.0
C308 C 0.57758 0.23823 0.35877 0.0
C309 C 0.56509 0.22859 0.37791 0.0
C310 C 0.54851 0.21084 0.37314 0.0
H311 H 0.55107 0.20759 0.31414 0.0
O312 O 0.55084 0.13391 0.32029 0.0
O313 O 0.53173 0.15494 0.34674 0.0
O314 O 0.51131 0.156 0.2982 0.0
O315 O 0.51047 0.19056 0.31729 0.0
C316 C 0.56842 0.23585 0.40154 0.0
C317 C 0.55601 0.22444 0.42 0.0
H318 H 0.52948 0.19778 0.4507 0.0
H319 H 0.50051 0.16707 0.4385 0.0
H320 H 0.5823 0.2377 0.32085 0.0
H321 H 0.59078 0.25183 0.36156 0.0
H322 H 0.58094 0.24972 0.40578 0.0
H323 H 0.55909 0.22979 0.43813 0.0
Mn324 Mn 0.87468 0.50395 0.32024 0.0
Mn325 Mn 0.82618 0.49919 0.35457 0.0
C326 C 0.86186 0.53584 0.34302 0.0
C327 C 0.91537 0.50034 0.31414 0.0
C328 C 0.82414 0.50236 0.30107 0.0
O329 O 0.87085 0.46819 0.32406 0.0
O330 O 0.83995 0.46742 0.3495 0.0
C331 C 0.84926 0.48368 0.39896 0.0
N332 N 0.83553 0.49948 0.38707 0.0
C333 C 0.83056 0.52319 0.42205 0.0
C334 C 0.84464 0.50715 0.43466 0.0
C335 C 0.85412 0.48737 0.42301 0.0
C336 C 0.82656 0.51873 0.39803 0.0
H337 H 0.85655 0.46844 0.39012 0.0
C338 C 0.85621 0.45728 0.33742 0.0
O339 O 0.90043 0.50002 0.29673 0.0
O340 O 0.90666 0.50243 0.33529 0.0
N341 N 0.81173 0.52907 0.36107 0.0
C342 C 0.79922 0.54327 0.34618 0.0
C343 C 0.78816 0.56359 0.35513 0.0
C344 C 0.79002 0.56906 0.37927 0.0
C345 C 0.80332 0.55439 0.3942 0.0
C346 C 0.81369 0.53422 0.38433 0.0
H347 H 0.79745 0.53897 0.32766 0.0
O348 O 0.87479 0.5394 0.32436 0.0
O349 O 0.85635 0.51398 0.34683 0.0
O350 O 0.84627 0.50533 0.29808 0.0
O351 O 0.81475 0.49931 0.3214 0.0
C352 C 0.80668 0.55898 0.41847 0.0
C353 C 0.82052 0.54354 0.43232 0.0
H354 H 0.84837 0.5099 0.45324 0.0
H355 H 0.86514 0.475 0.43258 0.0
H356 H 0.77806 0.57493 0.34349 0.0
H357 H 0.78127 0.58465 0.38612 0.0
H358 H 0.79887 0.57444 0.42663 0.0
H359 H 0.82327 0.54745 0.45087 0.0
Mn360 Mn 0.49382 0.87679 0.32309 0.0
Mn361 Mn 0.50221 0.82497 0.35068 0.0
C362 C 0.46287 0.85917 0.34403 0.0
C363 C 0.49659 0.91788 0.32639 0.0
C364 C 0.49814 0.82991 0.29713 0.0
O365 O 0.52967 0.87442 0.32568 0.0
O366 O 0.53298 0.84186 0.34841 0.0
C367 C 0.51621 0.84222 0.39815 0.0
N368 N 0.50111 0.82964 0.38417 0.0
C369 C 0.47739 0.81868 0.41775 0.0
C370 C 0.49269 0.83148 0.43247 0.0
C371 C 0.51215 0.84335 0.42261 0.0
C372 C 0.48227 0.81827 0.39347 0.0
H373 H 0.53122 0.85136 0.39072 0.0
C374 C 0.54171 0.86021 0.33842 0.0
O375 O 0.49647 0.9078 0.3057 0.0
O376 O 0.49458 0.90419 0.34454 0.0
N377 N 0.47325 0.80783 0.35467 0.0
C378 C 0.45956 0.79714 0.33796 0.0
C379 C 0.43928 0.78462 0.34495 0.0
C380 C 0.43334 0.78313 0.36902 0.0
C381 C 0.44762 0.79437 0.38589 0.0
C382 C 0.46762 0.80658 0.37788 0.0
H383 H 0.46408 0.79813 0.31945 0.0
O384 O 0.45845 0.87455 0.32757 0.0
O385 O 0.48506 0.85427 0.34654 0.0
O386 O 0.49335 0.852 0.29654 0.0
O387 O 0.50278 0.81871 0.31625 0.0
C388 C 0.44271 0.79405 0.41032 0.0
C389 C 0.45745 0.80638 0.42621 0.0
H390 H 0.48964 0.83237 0.45136 0.0
H391 H 0.52404 0.85329 0.43384 0.0
H392 H 0.42829 0.77608 0.33183 0.0
H393 H 0.4177 0.77343 0.37434 0.0
H394 H 0.42754 0.7845 0.41708 0.0
H395 H 0.45329 0.80627 0.4449 0.0
Mn396 Mn 0.13019 0.48931 0.31933 0.0
Mn397 Mn 0.17959 0.48963 0.35305 0.0
C398 C 0.14408 0.45456 0.33588 0.0
C399 C 0.08945 0.49341 0.31403 0.0
C400 C 0.18055 0.49355 0.29966 0.0
O401 O 0.13378 0.52407 0.32805 0.0
O402 O 0.16567 0.52181 0.35207 0.0
C403 C 0.1585 0.50036 0.39978 0.0
N404 N 0.17116 0.4856 0.38555 0.0
C405 C 0.17909 0.45925 0.41796 0.0
C406 C 0.16616 0.47418 0.43297 0.0
C407 C 0.15573 0.49476 0.42381 0.0
C408 C 0.18101 0.4656 0.39412 0.0
H409 H 0.15075 0.51637 0.39292 0.0
C410 C 0.14899 0.53329 0.34195 0.0
O411 O 0.10432 0.49654 0.29685 0.0
O412 O 0.09824 0.48822 0.33461 0.0
N413 N 0.19466 0.45946 0.35578 0.0
C414 C 0.20761 0.44759 0.33926 0.0
C415 C 0.21924 0.4266 0.34562 0.0
C416 C 0.21776 0.41823 0.36895 0.0
C417 C 0.20479 0.43103 0.38577 0.0
C418 C 0.19352 0.45181 0.37839 0.0
H419 H 0.20904 0.45406 0.32137 0.0
O420 O 0.1304 0.45397 0.31745 0.0
O421 O 0.14918 0.4754 0.344 0.0
O422 O 0.15829 0.49155 0.29682 0.0
O423 O 0.19042 0.49343 0.31995 0.0
C424 C 0.20288 0.42415 0.40963 0.0
C425 C 0.19016 0.43832 0.42574 0.0
H426 H 0.16409 0.46998 0.45155 0.0
H427 H 0.14576 0.5064 0.43528 0.0
H428 H 0.22937 0.41693 0.33258 0.0
H429 H 0.22676 0.40204 0.37379 0.0
H430 H 0.21127 0.4081 0.41582 0.0
H431 H 0.18891 0.43291 0.44407 0.0
Mn432 Mn 0.51302 0.8738 0.67411 0.0
Mn433 Mn 0.51455 0.82107 0.64647 0.0
C434 C 0.54853 0.85932 0.65962 0.0
C435 C 0.5068 0.91441 0.67105 0.0
C436 C 0.51101 0.82634 0.69987 0.0
O437 O 0.47841 0.86761 0.66646 0.0
O438 O 0.48158 0.83347 0.64608 0.0
C439 C 0.50334 0.83717 0.59793 0.0
N440 N 0.51834 0.82623 0.61328 0.0
C441 C 0.54585 0.81743 0.58202 0.0
C442 C 0.53066 0.82852 0.56586 0.0
C443 C 0.50935 0.83851 0.57388 0.0
C444 C 0.53902 0.81685 0.6058 0.0
H445 H 0.4869 0.84479 0.604 0.0
C446 C 0.46954 0.85068 0.65452 0.0
O447 O 0.50464 0.90371 0.69128 0.0
O448 O 0.51267 0.90158 0.65303 0.0
N449 N 0.54534 0.80706 0.64527 0.0
C450 C 0.55771 0.79642 0.663 0.0
C451 C 0.57944 0.7855 0.6579 0.0
C452 C 0.58809 0.78539 0.63461 0.0
C453 C 0.57481 0.79601 0.61658 0.0
C454 C 0.55324 0.80655 0.6227 0.0
H455 H 0.55107 0.79628 0.6809 0.0
O456 O 0.54839 0.87553 0.67584 0.0
O457 O 0.52788 0.85235 0.65236 0.0
O458 O 0.51206 0.84891 0.70061 0.0
O459 O 0.51133 0.8145 0.68059 0.0
C460 C 0.58203 0.79637 0.59274 0.0
C461 C 0.56752 0.80698 0.57546 0.0
H462 H 0.53522 0.82955 0.54728 0.0
H463 H 0.49755 0.84715 0.56153 0.0
H464 H 0.5895 0.77718 0.67189 0.0
H465 H 0.60489 0.77701 0.63076 0.0
H466 H 0.59868 0.78847 0.58749 0.0
H467 H 0.57325 0.80712 0.55718 0.0
Mn468 Mn 0.12778 0.51064 0.67835 0.0
Mn469 Mn 0.17721 0.51114 0.64457 0.0
C470 C 0.14094 0.5456 0.66165 0.0
C471 C 0.08715 0.50557 0.68378 0.0
C472 C 0.17821 0.50792 0.69802 0.0
O473 O 0.13226 0.47587 0.67003 0.0
O474 O 0.16389 0.47872 0.64574 0.0
C475 C 0.15626 0.49981 0.59793 0.0
N476 N 0.16873 0.51482 0.61205 0.0
C477 C 0.17647 0.54096 0.57941 0.0
C478 C 0.1637 0.52578 0.56452 0.0
C479 C 0.15346 0.50517 0.57386 0.0
C480 C 0.17836 0.53487 0.60332 0.0
H481 H 0.14868 0.48378 0.60493 0.0
C482 C 0.14758 0.46691 0.65609 0.0
O483 O 0.10214 0.50298 0.70092 0.0
O484 O 0.09576 0.51074 0.66311 0.0
N485 N 0.19184 0.54152 0.64163 0.0
C486 C 0.2048 0.55356 0.658 0.0
C487 C 0.21632 0.57456 0.65145 0.0
C488 C 0.21477 0.58273 0.62805 0.0
C489 C 0.20186 0.5697 0.61136 0.0
C490 C 0.19068 0.54895 0.61894 0.0
H491 H 0.20635 0.54723 0.67593 0.0
O492 O 0.12709 0.54597 0.67996 0.0
O493 O 0.1465 0.52484 0.65357 0.0
O494 O 0.15592 0.50946 0.70087 0.0
O495 O 0.18806 0.50781 0.6777 0.0
C496 C 0.2 0.57631 0.58742 0.0
C497 C 0.18745 0.56188 0.57143 0.0
H498 H 0.16164 0.52979 0.54591 0.0
H499 H 0.14362 0.49333 0.56248 0.0
H500 H 0.22644 0.58439 0.66438 0.0
H501 H 0.2237 0.59891 0.62305 0.0
H502 H 0.20833 0.59234 0.58108 0.0
H503 H 0.18624 0.56707 0.55304 0.0
Mn504 Mn 0.48679 0.12842 0.67724 0.0
Mn505 Mn 0.48738 0.18092 0.64946 0.0
C506 C 0.45144 0.14575 0.6654 0.0
C507 C 0.48907 0.08741 0.6733 0.0
C508 C 0.4963 0.175 0.7023 0.0
O509 O 0.52098 0.13167 0.66622 0.0
O510 O 0.51797 0.16446 0.64374 0.0
C511 C 0.49015 0.16641 0.5992 0.0
N512 N 0.47823 0.17731 0.61709 0.0
C513 C 0.44729 0.18948 0.59054 0.0
C514 C 0.45939 0.17861 0.57182 0.0
C515 C 0.48083 0.1669 0.57621 0.0
C516 C 0.45755 0.1886 0.61305 0.0
H517 H 0.50677 0.15764 0.60237 0.0
C518 C 0.52938 0.14644 0.65138 0.0
O519 O 0.49403 0.09756 0.69334 0.0
O520 O 0.48282 0.10104 0.65606 0.0
N521 N 0.45819 0.19776 0.65318 0.0
C522 C 0.44915 0.20816 0.67296 0.0
C523 C 0.42764 0.22051 0.67155 0.0
C524 C 0.4157 0.22213 0.64983 0.0
C525 C 0.42544 0.21148 0.62967 0.0
C526 C 0.44697 0.19947 0.63213 0.0
H527 H 0.45823 0.20705 0.6897 0.0
O528 O 0.45156 0.12975 0.68184 0.0
O529 O 0.47205 0.15105 0.65688 0.0
O530 O 0.49206 0.15285 0.70357 0.0
O531 O 0.49629 0.1865 0.68282 0.0
C532 C 0.41455 0.21218 0.60727 0.0
C533 C 0.42549 0.20122 0.58771 0.0
H534 H 0.45228 0.17898 0.55403 0.0
H535 H 0.49022 0.15836 0.56187 0.0
H536 H 0.42026 0.22873 0.68718 0.0
H537 H 0.39906 0.23158 0.64885 0.0
H538 H 0.39779 0.22115 0.60488 0.0
H539 H 0.417 0.20196 0.57055 0.0
Mn540 Mn 0.87225 0.49149 0.68235 0.0
Mn541 Mn 0.82164 0.49295 0.65057 0.0
C542 C 0.85839 0.45758 0.66394 0.0
C543 C 0.91309 0.49599 0.68656 0.0
C544 C 0.82266 0.49358 0.70415 0.0
O545 O 0.86772 0.52669 0.67592 0.0
O546 O 0.835 0.52527 0.65298 0.0
C547 C 0.84087 0.50668 0.60385 0.0
N548 N 0.82879 0.49103 0.6176 0.0
C549 C 0.81979 0.4666 0.58397 0.0
C550 C 0.83207 0.48251 0.56943 0.0
C551 C 0.8428 0.50255 0.57945 0.0
C552 C 0.81878 0.47147 0.60821 0.0
H553 H 0.84886 0.52228 0.61141 0.0
C554 C 0.85182 0.53646 0.6632 0.0
O555 O 0.89873 0.49775 0.70434 0.0
O556 O 0.90371 0.49201 0.66596 0.0
N557 N 0.807 0.4627 0.64665 0.0
C558 C 0.79519 0.44949 0.66298 0.0
C559 C 0.7837 0.42866 0.65586 0.0
C560 C 0.78416 0.42183 0.63199 0.0
C561 C 0.79598 0.43599 0.61542 0.0
C562 C 0.80719 0.45651 0.62357 0.0
H563 H 0.79454 0.45478 0.68131 0.0
O564 O 0.87269 0.45605 0.68184 0.0
O565 O 0.85263 0.47881 0.65747 0.0
O566 O 0.84501 0.49171 0.70612 0.0
O567 O 0.81214 0.49459 0.68421 0.0
C568 C 0.79681 0.4307 0.5911 0.0
C569 C 0.80855 0.44608 0.57537 0.0
H570 H 0.83347 0.47944 0.55057 0.0
H571 H 0.85238 0.51486 0.56837 0.0
H572 H 0.77446 0.41793 0.66873 0.0
H573 H 0.77526 0.40577 0.62655 0.0
H574 H 0.78837 0.41492 0.58428 0.0
H575 H 0.809 0.44186 0.55669 0.0
Mn576 Mn 0.32198 0.5092 0.12561 0.0
Mn577 Mn 0.35623 0.50199 0.17379 0.0
C578 C 0.34536 0.54014 0.13932 0.0
C579 C 0.31577 0.5062 0.08492 0.0
C580 C 0.30286 0.50671 0.17612 0.0
O581 O 0.32476 0.47337 0.12848 0.0
O582 O 0.35024 0.47067 0.15916 0.0
C583 C 0.4003 0.48553 0.15069 0.0
N584 N 0.38875 0.50161 0.16442 0.0
C585 C 0.42435 0.5243 0.16981 0.0
C586 C 0.43664 0.50798 0.15575 0.0
C587 C 0.42455 0.48852 0.14615 0.0
C588 C 0.40019 0.52042 0.1737 0.0
H589 H 0.39109 0.47056 0.14324 0.0
C590 C 0.33788 0.46148 0.14252 0.0
O591 O 0.29834 0.5063 0.09985 0.0
O592 O 0.33697 0.5079 0.09361 0.0
N593 N 0.36355 0.53127 0.18903 0.0
C594 C 0.34906 0.54549 0.202 0.0
C595 C 0.35854 0.56537 0.21343 0.0
C596 C 0.38279 0.57038 0.21142 0.0
C597 C 0.39729 0.55573 0.19763 0.0
C598 C 0.38691 0.53597 0.18695 0.0
H599 H 0.33046 0.54157 0.20385 0.0
O600 O 0.32684 0.54445 0.12641 0.0
O601 O 0.3489 0.51803 0.1441 0.0
O602 O 0.29995 0.51048 0.15412 0.0
O603 O 0.3231 0.50269 0.18534 0.0
C604 C 0.42162 0.5599 0.19412 0.0
C605 C 0.43511 0.5443 0.18007 0.0
H606 H 0.45534 0.51022 0.1522 0.0
H607 H 0.43392 0.47584 0.1353 0.0
H608 H 0.34723 0.57671 0.2239 0.0
H609 H 0.39006 0.5856 0.22049 0.0
H610 H 0.43013 0.57511 0.20206 0.0
H611 H 0.45376 0.54779 0.17735 0.0
Mn612 Mn 0.32136 0.49014 0.87051 0.0
Mn613 Mn 0.35508 0.4951 0.82143 0.0
C614 C 0.33957 0.45706 0.85468 0.0
C615 C 0.31579 0.49235 0.91135 0.0
C616 C 0.30152 0.4967 0.82063 0.0
O617 O 0.32863 0.52533 0.86896 0.0
O618 O 0.3534 0.52626 0.83762 0.0
C619 C 0.4016 0.50535 0.84323 0.0
N620 N 0.38772 0.4913 0.82943 0.0
C621 C 0.42068 0.46616 0.81983 0.0
C622 C 0.43536 0.48043 0.83384 0.0
C623 C 0.42574 0.50002 0.84569 0.0
C624 C 0.39672 0.4722 0.81823 0.0
H625 H 0.39434 0.52057 0.85218 0.0
C626 C 0.34272 0.53614 0.855 0.0
O627 O 0.2985 0.49509 0.89655 0.0
O628 O 0.3366 0.48826 0.90244 0.0
N629 N 0.35844 0.46605 0.80439 0.0
C630 C 0.34205 0.45442 0.79108 0.0
C631 C 0.34879 0.43424 0.77828 0.0
C632 C 0.37236 0.42641 0.77904 0.0
C633 C 0.38901 0.43892 0.79249 0.0
C634 C 0.38126 0.45889 0.80492 0.0
H635 H 0.32395 0.46046 0.79023 0.0
O636 O 0.32121 0.4548 0.86833 0.0
O637 O 0.34666 0.47854 0.85083 0.0
O638 O 0.29875 0.49271 0.84259 0.0
O639 O 0.32182 0.49872 0.81096 0.0
C640 C 0.41304 0.43247 0.79389 0.0
C641 C 0.42889 0.44617 0.80742 0.0
H642 H 0.45401 0.47643 0.83571 0.0
H643 H 0.43695 0.51109 0.85657 0.0
H644 H 0.33586 0.42478 0.76782 0.0
H645 H 0.37749 0.41083 0.76915 0.0
H646 H 0.41955 0.41707 0.78454 0.0
H647 H 0.44735 0.44107 0.8083 0.0
Mn648 Mn 0.51048 0.32233 0.87297 0.0
Mn649 Mn 0.51786 0.35054 0.82099 0.0
C650 C 0.54786 0.33464 0.86143 0.0
C651 C 0.50147 0.32522 0.91309 0.0
C652 C 0.51016 0.29742 0.82501 0.0
O653 O 0.47702 0.33255 0.86436 0.0
O654 O 0.48438 0.35367 0.83132 0.0
C655 C 0.50944 0.39976 0.8367 0.0
N656 N 0.52396 0.38326 0.82682 0.0
C657 C 0.55428 0.41231 0.81994 0.0
C658 C 0.53953 0.42965 0.82979 0.0
C659 C 0.51708 0.42331 0.83835 0.0
C660 C 0.54573 0.38911 0.81885 0.0
H661 H 0.49209 0.39501 0.84316 0.0
C662 C 0.47049 0.34589 0.8474 0.0
O663 O 0.49885 0.30533 0.90188 0.0
O664 O 0.50936 0.34302 0.90107 0.0
N665 N 0.54956 0.34931 0.80911 0.0
C666 C 0.56118 0.33072 0.79911 0.0
C667 C 0.58391 0.33413 0.78966 0.0
C668 C 0.59435 0.35665 0.79034 0.0
C669 C 0.58186 0.37563 0.80028 0.0
C670 C 0.55923 0.37118 0.80935 0.0
H671 H 0.55318 0.31341 0.79835 0.0
O672 O 0.54545 0.31825 0.87729 0.0
O673 O 0.52831 0.34327 0.85306 0.0
O674 O 0.50974 0.29628 0.8476 0.0
O675 O 0.51234 0.31684 0.81361 0.0
C676 C 0.59094 0.3988 0.80144 0.0
C677 C 0.57714 0.41713 0.81121 0.0
H678 H 0.54533 0.44785 0.83099 0.0
H679 H 0.50565 0.43657 0.84609 0.0
H680 H 0.59336 0.31943 0.78186 0.0
H681 H 0.61192 0.3592 0.78311 0.0
H682 H 0.60848 0.40272 0.79478 0.0
H683 H 0.58429 0.43489 0.81197 0.0
Mn684 Mn 0.67609 0.5077 0.87588 0.0
Mn685 Mn 0.64658 0.50289 0.82452 0.0
C686 C 0.65674 0.54032 0.85968 0.0
C687 C 0.67374 0.5054 0.91721 0.0
C688 C 0.7003 0.50438 0.82763 0.0
O689 O 0.67134 0.47214 0.87276 0.0
O690 O 0.64977 0.47119 0.83916 0.0
C691 C 0.60006 0.48838 0.84382 0.0
N692 N 0.61341 0.50393 0.83115 0.0
C693 C 0.5795 0.52843 0.82344 0.0
C694 C 0.5654 0.51267 0.83639 0.0
C695 C 0.57575 0.49258 0.84667 0.0
C696 C 0.60367 0.52339 0.82134 0.0
H697 H 0.6079 0.47291 0.85176 0.0
C698 C 0.65965 0.46117 0.85688 0.0
O699 O 0.69413 0.50384 0.90659 0.0
O700 O 0.65543 0.50797 0.90384 0.0
N701 N 0.6419 0.53259 0.80905 0.0
C702 C 0.65804 0.54627 0.79753 0.0
C703 C 0.65047 0.56681 0.78587 0.0
C704 C 0.6264 0.573 0.78609 0.0
C705 C 0.61014 0.55877 0.79826 0.0
C706 C 0.61869 0.53841 0.80939 0.0
H707 H 0.67652 0.54144 0.7971 0.0
O708 O 0.67401 0.54324 0.8745 0.0
O709 O 0.65245 0.5185 0.85436 0.0
O710 O 0.70182 0.507 0.85008 0.0
O711 O 0.68061 0.50239 0.81661 0.0
C712 C 0.5858 0.56398 0.79978 0.0
C713 C 0.57053 0.54895 0.81256 0.0
H714 H 0.54662 0.51583 0.83859 0.0
H715 H 0.56502 0.48036 0.85677 0.0
H716 H 0.66312 0.57779 0.77661 0.0
H717 H 0.62062 0.58879 0.77694 0.0
H718 H 0.57863 0.57956 0.79128 0.0
H719 H 0.5519 0.55329 0.81382 0.0
Mn720 Mn 0.48826 0.68148 0.87111 0.0
Mn721 Mn 0.49116 0.65257 0.8195 0.0
C722 C 0.45347 0.66525 0.85481 0.0
C723 C 0.49192 0.67898 0.91222 0.0
C724 C 0.4962 0.70604 0.82437 0.0
O725 O 0.5233 0.67353 0.86783 0.0
O726 O 0.5215 0.64888 0.83665 0.0
C727 C 0.49591 0.603 0.83568 0.0
N728 N 0.48417 0.61971 0.82292 0.0
C729 C 0.45915 0.59031 0.80513 0.0
C730 C 0.47092 0.57276 0.8181 0.0
C731 C 0.48925 0.57917 0.83361 0.0
C732 C 0.46606 0.61382 0.80852 0.0
H733 H 0.51038 0.60778 0.84716 0.0
C734 C 0.53247 0.65818 0.8541 0.0
O735 O 0.49445 0.69913 0.90146 0.0
O736 O 0.48692 0.66091 0.89919 0.0
N737 N 0.4626 0.6542 0.80145 0.0
C738 C 0.4524 0.67333 0.79098 0.0
C739 C 0.43354 0.67 0.77517 0.0
C740 C 0.42578 0.64703 0.76984 0.0
C741 C 0.4366 0.6276 0.78079 0.0
C742 C 0.45483 0.63206 0.79692 0.0
H743 H 0.45879 0.69098 0.79438 0.0
O744 O 0.45275 0.68262 0.86982 0.0
O745 O 0.4748 0.65895 0.8492 0.0
O746 O 0.49088 0.70759 0.84622 0.0
O747 O 0.4982 0.68629 0.81359 0.0
C748 C 0.43009 0.60398 0.77626 0.0
C749 C 0.44113 0.58536 0.78865 0.0
H750 H 0.4661 0.55432 0.81622 0.0
H751 H 0.49848 0.56574 0.84363 0.0
H752 H 0.42531 0.68508 0.76675 0.0
H753 H 0.41146 0.6445 0.75736 0.0
H754 H 0.41619 0.59997 0.7637 0.0
H755 H 0.4356 0.56732 0.78539 0.0
Mn756 Mn 0.67357 0.49705 0.13279 0.0
Mn757 Mn 0.64433 0.5003 0.18445 0.0
C758 C 0.65287 0.46444 0.14723 0.0
C759 C 0.67188 0.50158 0.09166 0.0
C760 C 0.69791 0.49722 0.1811 0.0
O761 O 0.66999 0.53255 0.13776 0.0
O762 O 0.64856 0.53264 0.17149 0.0
C763 C 0.59845 0.51701 0.16549 0.0
N764 N 0.61116 0.50065 0.17778 0.0
C765 C 0.57654 0.47666 0.18385 0.0
C766 C 0.56306 0.49331 0.17139 0.0
C767 C 0.57409 0.51351 0.16206 0.0
C768 C 0.60079 0.481 0.18653 0.0
H769 H 0.60683 0.53251 0.15818 0.0
C770 C 0.65871 0.54316 0.1542 0.0
O771 O 0.69214 0.50181 0.1026 0.0
O772 O 0.65323 0.49898 0.10461 0.0
N773 N 0.63869 0.46997 0.1983 0.0
C774 C 0.6544 0.45508 0.20884 0.0
C775 C 0.6462 0.43404 0.21914 0.0
C776 C 0.62196 0.42858 0.21853 0.0
C777 C 0.60615 0.44408 0.20738 0.0
C778 C 0.61531 0.46489 0.19765 0.0
H779 H 0.67303 0.45929 0.20951 0.0
O780 O 0.6701 0.46157 0.13233 0.0
O781 O 0.64953 0.48611 0.15373 0.0
O782 O 0.69917 0.49556 0.15855 0.0
O783 O 0.67839 0.49933 0.19238 0.0
C784 C 0.58168 0.43964 0.20544 0.0
C785 C 0.56694 0.45579 0.19347 0.0
H786 H 0.54426 0.49068 0.16871 0.0
H787 H 0.56388 0.5263 0.15216 0.0
H788 H 0.65852 0.42209 0.2276 0.0
H789 H 0.61572 0.41235 0.22655 0.0
H790 H 0.57404 0.42375 0.2129 0.0
H791 H 0.54823 0.45199 0.19175 0.0
Mn792 Mn 0.51426 0.68358 0.12639 0.0
Mn793 Mn 0.51452 0.65533 0.17878 0.0
C794 C 0.54996 0.6725 0.14359 0.0
C795 C 0.51164 0.68014 0.08531 0.0
C796 C 0.50471 0.70804 0.17341 0.0
O797 O 0.48039 0.67165 0.12962 0.0
O798 O 0.48392 0.64941 0.16251 0.0
C799 C 0.51229 0.60529 0.16353 0.0
N800 N 0.52399 0.62312 0.17475 0.0
C801 C 0.55478 0.59657 0.18726 0.0
C802 C 0.54285 0.5779 0.17616 0.0
C803 C 0.52163 0.58231 0.16407 0.0
C804 C 0.54453 0.61908 0.18629 0.0
H805 H 0.49581 0.60848 0.15449 0.0
C806 C 0.47233 0.65671 0.14448 0.0
O807 O 0.50639 0.69992 0.0958 0.0
O808 O 0.51855 0.66289 0.09864 0.0
N809 N 0.54364 0.65913 0.19571 0.0
C810 C 0.55231 0.67878 0.20663 0.0
C811 C 0.57351 0.67729 0.21949 0.0
C812 C 0.58551 0.65561 0.2211 0.0
C813 C 0.57612 0.63556 0.20995 0.0
C814 C 0.55489 0.6381 0.19744 0.0
H815 H 0.54316 0.69547 0.20557 0.0
O816 O 0.5494 0.68897 0.12763 0.0
O817 O 0.52961 0.66335 0.14886 0.0
O818 O 0.50849 0.70954 0.15117 0.0
O819 O 0.50529 0.68849 0.18476 0.0
C820 C 0.58703 0.61318 0.21071 0.0
C821 C 0.57635 0.59369 0.1994 0.0
H822 H 0.54992 0.56013 0.1767 0.0
H823 H 0.51239 0.56801 0.15533 0.0
H824 H 0.5806 0.69282 0.22812 0.0
H825 H 0.60191 0.65456 0.23095 0.0
H826 H 0.60359 0.61074 0.22004 0.0
H827 H 0.58483 0.57653 0.20022 0.0
Mn828 Mn 0.48255 0.32264 0.12722 0.0
Mn829 Mn 0.48325 0.35073 0.1794 0.0
C830 C 0.4463 0.33396 0.14438 0.0
C831 C 0.48365 0.32565 0.08598 0.0
C832 C 0.49331 0.29808 0.17357 0.0
O833 O 0.51641 0.33489 0.12921 0.0
O834 O 0.51315 0.35691 0.16212 0.0
C835 C 0.48403 0.40069 0.1637 0.0
N836 N 0.4741 0.38311 0.17681 0.0
C837 C 0.44977 0.41085 0.19792 0.0
C838 C 0.45963 0.4293 0.18459 0.0
C839 C 0.47665 0.42415 0.1672 0.0
C840 C 0.45708 0.38776 0.19289 0.0
H841 H 0.49765 0.39687 0.1509 0.0
C842 C 0.52462 0.34971 0.14404 0.0
O843 O 0.48958 0.30609 0.09647 0.0
O844 O 0.47734 0.34302 0.09941 0.0
N845 N 0.4555 0.34703 0.19832 0.0
C846 C 0.44687 0.3271 0.20872 0.0
C847 C 0.42935 0.32907 0.22623 0.0
C848 C 0.42148 0.35152 0.2334 0.0
C849 C 0.43079 0.37179 0.22257 0.0
C850 C 0.44753 0.36867 0.2046 0.0
H851 H 0.45359 0.30987 0.20401 0.0
O852 O 0.44792 0.31637 0.12972 0.0
O853 O 0.46663 0.34344 0.14972 0.0
O854 O 0.48919 0.29661 0.15149 0.0
O855 O 0.49263 0.31759 0.18486 0.0
C856 C 0.42411 0.39498 0.22885 0.0
C857 C 0.43333 0.41448 0.2163 0.0
H858 H 0.45437 0.44746 0.18762 0.0
H859 H 0.48442 0.43827 0.15689 0.0
H860 H 0.42235 0.31336 0.2346 0.0
H861 H 0.40829 0.35299 0.24722 0.0
H862 H 0.41135 0.39796 0.24283 0.0
H863 H 0.4276 0.43217 0.22087 0.0
H864 H 0.12136 0.44642 0.37696 0.0
H865 H 0.17003 0.41467 0.32715 0.0
H866 H 0.17528 0.3804 0.35414 0.0
H867 H 0.14349 0.42792 0.43301 0.0
H868 H 0.11421 0.42208 0.44341 0.0
H869 H 0.11866 0.44344 0.4203 0.0
H870 H 0.08701 0.41755 0.3971 0.0
H871 H 0.08681 0.39548 0.42009 0.0
H872 H 0.0941 0.38726 0.39019 0.0
H873 H 0.18071 0.35438 0.39045 0.0
H874 H 0.17999 0.33428 0.42945 0.0
H875 H 0.1218 0.37884 0.45147 0.0
C876 C 0.13315 0.43219 0.37189 0.0
C877 C 0.14634 0.43346 0.35077 0.0
C878 C 0.16057 0.41419 0.34379 0.0
C879 C 0.16347 0.39469 0.35889 0.0
C880 C 0.15085 0.3943 0.38011 0.0
C881 C 0.13524 0.41213 0.38613 0.0
C882 C 0.12222 0.40648 0.40884 0.0
C883 C 0.12483 0.4262 0.4274 0.0
C884 C 0.09598 0.40138 0.40374 0.0
C885 C 0.13505 0.38419 0.41614 0.0
C886 C 0.15135 0.37727 0.39922 0.0
C887 C 0.16739 0.35899 0.40341 0.0
C888 C 0.16691 0.34772 0.42552 0.0
C889 C 0.15028 0.35458 0.44286 0.0
C890 C 0.13393 0.37269 0.43797 0.0
H891 H 0.65346 0.17849 0.43076 0.0
H892 H 0.66337 0.10304 0.43904 0.0
H893 H 0.63841 0.09604 0.40387 0.0
H894 H 0.59735 0.17368 0.42337 0.0
H895 H 0.59147 0.19597 0.40183 0.0
H896 H 0.6163 0.19934 0.42133 0.0
H897 H 0.64703 0.20198 0.38823 0.0
H898 H 0.62268 0.2032 0.36769 0.0
H899 H 0.64579 0.18156 0.36379 0.0
H900 H 0.60498 0.09719 0.37457 0.0
H901 H 0.57014 0.10618 0.35016 0.0
H902 H 0.58226 0.1811 0.36033 0.0
C903 C 0.65157 0.16055 0.42432 0.0
C904 C 0.66055 0.14133 0.43747 0.0
C905 C 0.65706 0.11806 0.42899 0.0
C906 C 0.64271 0.11393 0.40909 0.0
C907 C 0.63243 0.13329 0.39773 0.0
C908 C 0.6373 0.1562 0.40463 0.0
C909 C 0.62103 0.17363 0.39255 0.0
C910 C 0.60572 0.18644 0.41096 0.0
C911 C 0.63497 0.19113 0.37714 0.0
C912 C 0.60611 0.15718 0.37768 0.0
C913 C 0.61287 0.13395 0.38106 0.0
C914 C 0.60005 0.11538 0.37132 0.0
C915 C 0.58014 0.12074 0.35756 0.0
C916 C 0.57304 0.14451 0.35344 0.0
C917 C 0.58649 0.16289 0.36352 0.0
H918 H 0.84407 0.64933 0.42661 0.0
H919 H 0.88697 0.61148 0.4776 0.0
H920 H 0.89421 0.58001 0.44844 0.0
H921 H 0.81633 0.60598 0.40145 0.0
H922 H 0.81843 0.61216 0.37015 0.0
H923 H 0.81988 0.6358 0.39138 0.0
H924 H 0.86007 0.65044 0.3779 0.0
H925 H 0.85886 0.62917 0.35417 0.0
H926 H 0.88404 0.62986 0.37371 0.0
H927 H 0.8914 0.5503 0.41764 0.0
H928 H 0.8844 0.52519 0.38293 0.0
H929 H 0.84607 0.5822 0.34882 0.0
C930 C 0.85571 0.63482 0.43113 0.0
C931 C 0.86506 0.63263 0.45419 0.0
C932 C 0.87987 0.61337 0.45989 0.0
C933 C 0.88404 0.59544 0.44349 0.0
C934 C 0.87395 0.59751 0.42118 0.0
C935 C 0.86094 0.61708 0.41448 0.0
C936 C 0.85204 0.61431 0.38924 0.0
C937 C 0.82505 0.61717 0.38794 0.0
C938 C 0.8645 0.63199 0.37278 0.0
C939 C 0.86 0.58915 0.3839 0.0
C940 C 0.87301 0.58018 0.40256 0.0
C941 C 0.88172 0.55723 0.40266 0.0
C942 C 0.87747 0.54305 0.38297 0.0
C943 C 0.86459 0.55176 0.36341 0.0
C944 C 0.85593 0.57522 0.36366 0.0
H945 H 0.34913 0.83842 0.42737 0.0
H946 H 0.38429 0.8852 0.47691 0.0
H947 H 0.41707 0.89067 0.44879 0.0
H948 H 0.39579 0.8101 0.40398 0.0
H949 H 0.38863 0.8108 0.37289 0.0
H950 H 0.36546 0.81198 0.39469 0.0
H951 H 0.34922 0.85096 0.37846 0.0
H952 H 0.37101 0.84965 0.3552 0.0
H953 H 0.36894 0.87554 0.37367 0.0
H954 H 0.4485 0.88544 0.41977 0.0
H955 H 0.47397 0.87917 0.38514 0.0
H956 H 0.41759 0.84052 0.35022 0.0
C957 C 0.36332 0.85051 0.43174 0.0
C958 C 0.36437 0.86146 0.45419 0.0
C959 C 0.38324 0.87688 0.45966 0.0
C960 C 0.40198 0.87995 0.44392 0.0
C961 C 0.40108 0.86818 0.42236 0.0
C962 C 0.38181 0.85475 0.4156 0.0
C963 C 0.38544 0.84492 0.3908 0.0
C964 C 0.38377 0.81783 0.39057 0.0
C965 C 0.36759 0.85593 0.3735 0.0
C966 C 0.41045 0.85349 0.38562 0.0
C967 C 0.41898 0.86675 0.4043 0.0
C968 C 0.44188 0.87565 0.40472 0.0
C969 C 0.45627 0.87179 0.38508 0.0
C970 C 0.44769 0.8594 0.36514 0.0
C971 C 0.42447 0.85006 0.36532 0.0
H972 H 0.11861 0.55437 0.62049 0.0
H973 H 0.16692 0.58523 0.67117 0.0
H974 H 0.1729 0.61966 0.64454 0.0
H975 H 0.14121 0.57279 0.56494 0.0
H976 H 0.1122 0.57939 0.5543 0.0
H977 H 0.1159 0.55783 0.57735 0.0
H978 H 0.08468 0.5843 0.60042 0.0
H979 H 0.08518 0.60646 0.57751 0.0
H980 H 0.09238 0.61441 0.60751 0.0
H981 H 0.17947 0.64559 0.60833 0.0
H982 H 0.17967 0.6658 0.56936 0.0
H983 H 0.12095 0.62239 0.54649 0.0
C984 C 0.13046 0.56845 0.62583 0.0
C985 C 0.14342 0.56685 0.64705 0.0
C986 C 0.15768 0.58595 0.65441 0.0
C987 C 0.16099 0.60555 0.63953 0.0
C988 C 0.14868 0.60622 0.61815 0.0
C989 C 0.13291 0.58864 0.61182 0.0
C990 C 0.12023 0.59464 0.58902 0.0
C991 C 0.12255 0.57494 0.57039 0.0
C992 C 0.09407 0.60029 0.59392 0.0
C993 C 0.13362 0.61669 0.58195 0.0
C994 C 0.14977 0.6233 0.59911 0.0
C995 C 0.16625 0.64126 0.59518 0.0
C996 C 0.16631 0.65259 0.57309 0.0
C997 C 0.14979 0.64607 0.55554 0.0
C998 C 0.13304 0.62825 0.56016 0.0
H999 H 0.3766 0.11978 0.55055 0.0
H1000 H 0.32683 0.1731 0.57341 0.0
H1001 H 0.34721 0.17552 0.61225 0.0
H1002 H 0.38995 0.09213 0.61037 0.0
H1003 H 0.42068 0.0892 0.60232 0.0
H1004 H 0.39804 0.08699 0.57998 0.0
H1005 H 0.4201 0.11859 0.55688 0.0
H1006 H 0.44153 0.12482 0.57955 0.0
H1007 H 0.42244 0.14797 0.56854 0.0
H1008 H 0.37528 0.17328 0.64798 0.0
H1009 H 0.41036 0.17035 0.67446 0.0
H1010 H 0.44463 0.12438 0.62378 0.0
C1011 C 0.36929 0.13098 0.56428 0.0
C1012 C 0.34969 0.14553 0.55963 0.0
C1013 C 0.34136 0.16121 0.57721 0.0
C1014 C 0.35287 0.16271 0.59921 0.0
C1015 C 0.37285 0.14868 0.603 0.0
C1016 C 0.38093 0.13309 0.58593 0.0
C1017 C 0.40486 0.12306 0.5923 0.0
C1018 C 0.40328 0.09626 0.5965 0.0
C1019 C 0.42338 0.12896 0.57324 0.0
C1020 C 0.40949 0.13611 0.61514 0.0
C1021 C 0.39046 0.15001 0.62165 0.0
C1022 C 0.39036 0.16264 0.6429 0.0
C1023 C 0.4103 0.16105 0.65773 0.0
C1024 C 0.43031 0.14795 0.65052 0.0
C1025 C 0.42973 0.13517 0.62917 0.0
H1026 H 0.87834 0.45261 0.62084 0.0
H1027 H 0.83426 0.41642 0.67187 0.0
H1028 H 0.829 0.38312 0.6437 0.0
H1029 H 0.85372 0.43444 0.56482 0.0
H1030 H 0.88275 0.43076 0.55284 0.0
H1031 H 0.87812 0.45126 0.57672 0.0
H1032 H 0.91249 0.42713 0.59767 0.0
H1033 H 0.91303 0.40563 0.57414 0.0
H1034 H 0.90778 0.39628 0.60412 0.0
H1035 H 0.82438 0.3569 0.60735 0.0
H1036 H 0.82604 0.3365 0.56849 0.0
H1037 H 0.87869 0.38656 0.54438 0.0
C1038 C 0.86744 0.43769 0.62588 0.0
C1039 C 0.85567 0.43734 0.64787 0.0
C1040 C 0.84265 0.41716 0.65467 0.0
C1041 C 0.83971 0.39822 0.63886 0.0
C1042 C 0.85104 0.39933 0.61695 0.0
C1043 C 0.86531 0.41821 0.61081 0.0
C1044 C 0.87755 0.41394 0.58734 0.0
C1045 C 0.87272 0.43383 0.56946 0.0
C1046 C 0.9043 0.41054 0.59105 0.0
C1047 C 0.8659 0.39099 0.58004 0.0
C1048 C 0.85085 0.38267 0.59746 0.0
C1049 C 0.8366 0.36284 0.59387 0.0
C1050 C 0.83761 0.35139 0.57185 0.0
C1051 C 0.85294 0.35971 0.55395 0.0
C1052 C 0.86742 0.37952 0.55819 0.0
H1053 H 0.55593 0.87775 0.6164 0.0
H1054 H 0.58966 0.83649 0.67125 0.0
H1055 H 0.62555 0.83238 0.64612 0.0
H1056 H 0.58026 0.85211 0.56338 0.0
H1057 H 0.58338 0.88075 0.55026 0.0
H1058 H 0.56102 0.87593 0.57237 0.0
H1059 H 0.58046 0.91228 0.59433 0.0
H1060 H 0.60393 0.91388 0.5728 0.0
H1061 H 0.61088 0.9102 0.60367 0.0
H1062 H 0.65497 0.82834 0.61177 0.0
H1063 H 0.67734 0.82931 0.57395 0.0
H1064 H 0.62775 0.88041 0.54607 0.0
C1065 C 0.57083 0.86762 0.6229 0.0
C1066 C 0.56984 0.85631 0.64507 0.0
C1067 C 0.58996 0.84439 0.65381 0.0
C1068 C 0.61038 0.84217 0.63977 0.0
C1069 C 0.61071 0.85321 0.61769 0.0
C1070 C 0.59167 0.86629 0.60966 0.0
C1071 C 0.59719 0.87827 0.58639 0.0
C1072 C 0.57937 0.87133 0.56702 0.0
C1073 C 0.59818 0.90526 0.5895 0.0
C1074 C 0.62152 0.86826 0.58155 0.0
C1075 C 0.62911 0.85384 0.59978 0.0
C1076 C 0.64967 0.84026 0.59779 0.0
C1077 C 0.66236 0.841 0.57638 0.0
C1078 C 0.65466 0.85561 0.55766 0.0
C1079 C 0.63446 0.86987 0.56059 0.0
H1080 H 0.38359 0.11969 0.44967 0.0
H1081 H 0.33123 0.16378 0.41548 0.0
H1082 H 0.35842 0.16965 0.38147 0.0
H1083 H 0.43879 0.14458 0.43073 0.0
H1084 H 0.45089 0.11579 0.42599 0.0
H1085 H 0.42738 0.11967 0.44709 0.0
H1086 H 0.40622 0.08585 0.42233 0.0
H1087 H 0.42935 0.08615 0.40036 0.0
H1088 H 0.39912 0.09138 0.39176 0.0
H1089 H 0.39438 0.17599 0.35524 0.0
H1090 H 0.43325 0.17638 0.33483 0.0
H1091 H 0.45877 0.122 0.38217 0.0
C1092 C 0.37803 0.13068 0.43501 0.0
C1093 C 0.35601 0.14239 0.43548 0.0
C1094 C 0.3485 0.15549 0.41562 0.0
C1095 C 0.36373 0.15875 0.39626 0.0
C1096 C 0.38575 0.14758 0.3966 0.0
C1097 C 0.3925 0.13306 0.41506 0.0
C1098 C 0.41602 0.1212 0.40998 0.0
C1099 C 0.43426 0.1256 0.42967 0.0
C1100 C 0.41246 0.09457 0.40586 0.0
C1101 C 0.42275 0.13356 0.3872 0.0
C1102 C 0.40493 0.14851 0.3796 0.0
C1103 C 0.40812 0.16374 0.36047 0.0
C1104 C 0.43017 0.16388 0.34901 0.0
C1105 C 0.44847 0.14864 0.35652 0.0
C1106 C 0.4446 0.13306 0.37556 0.0
H1107 H 0.88322 0.37523 0.4423 0.0
H1108 H 0.8376 0.32208 0.41161 0.0
H1109 H 0.83536 0.34548 0.37443 0.0
H1110 H 0.86107 0.42776 0.4169 0.0
H1111 H 0.8903 0.43938 0.41276 0.0
H1112 H 0.88496 0.41809 0.43571 0.0
H1113 H 0.91957 0.39371 0.41583 0.0
H1114 H 0.9217 0.41463 0.39188 0.0
H1115 H 0.91619 0.38388 0.38569 0.0
H1116 H 0.83198 0.37953 0.34475 0.0
H1117 H 0.83257 0.41763 0.32303 0.0
H1118 H 0.88772 0.44323 0.36934 0.0
C1119 C 0.87274 0.36864 0.42768 0.0
C1120 C 0.85951 0.34768 0.42994 0.0
C1121 C 0.84699 0.3387 0.4103 0.0
C1122 C 0.84588 0.35172 0.38914 0.0
C1123 C 0.85865 0.37281 0.38765 0.0
C1124 C 0.87251 0.38071 0.40617 0.0
C1125 C 0.88559 0.40313 0.39983 0.0
C1126 C 0.88013 0.42322 0.41738 0.0
C1127 C 0.91235 0.39855 0.39821 0.0
C1128 C 0.87517 0.40793 0.37568 0.0
C1129 C 0.85968 0.39024 0.36884 0.0
C1130 C 0.84488 0.39294 0.34926 0.0
C1131 C 0.84539 0.41451 0.33692 0.0
C1132 C 0.861 0.43271 0.34394 0.0
C1133 C 0.87664 0.42897 0.36291 0.0
H1134 H 0.58737 0.84213 0.33801 0.0
H1135 H 0.54309 0.89811 0.36591 0.0
H1136 H 0.5721 0.9056 0.3973 0.0
H1137 H 0.60746 0.81741 0.38286 0.0
H1138 H 0.63904 0.81475 0.37814 0.0
H1139 H 0.61929 0.81721 0.35343 0.0
H1140 H 0.64014 0.85363 0.33728 0.0
H1141 H 0.66173 0.85081 0.3606 0.0
H1142 H 0.64625 0.87834 0.35643 0.0
H1143 H 0.59805 0.8987 0.43088 0.0
H1144 H 0.62795 0.88719 0.46025 0.0
H1145 H 0.66075 0.84033 0.40914 0.0
C1146 C 0.58466 0.85692 0.34986 0.0
C1147 C 0.56316 0.86968 0.34956 0.0
C1148 C 0.55968 0.8885 0.36563 0.0
C1149 C 0.57598 0.89277 0.38365 0.0
C1150 C 0.59631 0.87896 0.38447 0.0
C1151 C 0.60166 0.86257 0.36715 0.0
C1152 C 0.62496 0.85028 0.37275 0.0
C1153 C 0.62253 0.82328 0.37182 0.0
C1154 C 0.64442 0.85877 0.35576 0.0
C1155 C 0.62952 0.85947 0.39764 0.0
C1156 C 0.61291 0.87641 0.40363 0.0
C1157 C 0.61176 0.88622 0.42614 0.0
C1158 C 0.6286 0.87935 0.44277 0.0
C1159 C 0.64656 0.86303 0.43685 0.0
C1160 C 0.64719 0.85296 0.41395 0.0
H1161 H 0.12289 0.61956 0.44625 0.0
H1162 H 0.16529 0.67275 0.41123 0.0
H1163 H 0.16864 0.64681 0.37587 0.0
H1164 H 0.14715 0.56544 0.42362 0.0
H1165 H 0.11813 0.5531 0.42103 0.0
H1166 H 0.12359 0.57591 0.44249 0.0
H1167 H 0.08752 0.59757 0.4216 0.0
H1168 H 0.08602 0.57525 0.39889 0.0
H1169 H 0.09029 0.60578 0.39092 0.0
H1170 H 0.17242 0.61172 0.34772 0.0
H1171 H 0.17171 0.57309 0.32685 0.0
H1172 H 0.12049 0.54681 0.37722 0.0
C1173 C 0.13299 0.62557 0.43112 0.0
C1174 C 0.14488 0.64744 0.43159 0.0
C1175 C 0.15688 0.65556 0.41127 0.0
C1176 C 0.15866 0.64106 0.39116 0.0
C1177 C 0.14716 0.61922 0.39139 0.0
C1178 C 0.13394 0.61187 0.41061 0.0
C1179 C 0.12174 0.58856 0.40581 0.0
C1180 C 0.12805 0.56972 0.42439 0.0
C1181 C 0.0948 0.59201 0.4042 0.0
C1182 C 0.13211 0.58273 0.38188 0.0
C1183 C 0.14658 0.60069 0.37369 0.0
C1184 C 0.16047 0.59791 0.35345 0.0
C1185 C 0.15994 0.57604 0.34168 0.0
C1186 C 0.14538 0.55757 0.35007 0.0
C1187 C 0.13093 0.56116 0.36999 0.0
H1188 H 0.37343 0.88363 0.56117 0.0
H1189 H 0.32727 0.83069 0.59143 0.0
H1190 H 0.3551 0.8258 0.62514 0.0
H1191 H 0.42954 0.8638 0.57608 0.0
H1192 H 0.43989 0.89273 0.58366 0.0
H1193 H 0.41579 0.88954 0.56319 0.0
H1194 H 0.39256 0.91809 0.59216 0.0
H1195 H 0.41678 0.91787 0.61292 0.0
H1196 H 0.38767 0.90886 0.62227 0.0
H1197 H 0.39333 0.81993 0.64855 0.0
H1198 H 0.43367 0.82045 0.6659 0.0
H1199 H 0.45044 0.88305 0.62535 0.0
C1200 C 0.36917 0.8712 0.57511 0.0
C1201 C 0.34909 0.85654 0.57337 0.0
C1202 C 0.34318 0.8413 0.59221 0.0
C1203 C 0.35875 0.83863 0.61143 0.0
C1204 C 0.37923 0.85244 0.61201 0.0
C1205 C 0.3838 0.86928 0.59492 0.0
C1206 C 0.40627 0.88283 0.60028 0.0
C1207 C 0.42384 0.88218 0.57951 0.0
C1208 C 0.40047 0.90843 0.60733 0.0
C1209 C 0.41525 0.86893 0.62127 0.0
C1210 C 0.39933 0.85155 0.62795 0.0
C1211 C 0.40543 0.83413 0.64433 0.0
C1212 C 0.42834 0.83446 0.65398 0.0
C1213 C 0.4446 0.85229 0.64749 0.0
C1214 C 0.43781 0.86993 0.63133 0.0
H1215 H 0.12022 0.45282 0.62025 0.0
H1216 H 0.17035 0.42746 0.6721 0.0
H1217 H 0.17224 0.38879 0.65137 0.0
H1218 H 0.09122 0.39355 0.60579 0.0
H1219 H 0.08925 0.40182 0.57508 0.0
H1220 H 0.08692 0.42407 0.59778 0.0
H1221 H 0.11949 0.44664 0.57673 0.0
H1222 H 0.12572 0.424 0.55531 0.0
H1223 H 0.1487 0.43449 0.57486 0.0
H1224 H 0.16981 0.35352 0.62307 0.0
H1225 H 0.16745 0.32735 0.58777 0.0
H1226 H 0.12515 0.3799 0.55171 0.0
C1227 C 0.13066 0.43865 0.6278 0.0
C1228 C 0.14449 0.44252 0.64809 0.0
C1229 C 0.15905 0.42428 0.65696 0.0
C1230 C 0.16024 0.40238 0.64527 0.0
C1231 C 0.147 0.39935 0.62465 0.0
C1232 C 0.13243 0.41704 0.61605 0.0
C1233 C 0.12293 0.41107 0.5918 0.0
C1234 C 0.09599 0.4074 0.59268 0.0
C1235 C 0.12963 0.43012 0.57356 0.0
C1236 C 0.13558 0.38795 0.58741 0.0
C1237 C 0.14837 0.38081 0.60698 0.0
C1238 C 0.16012 0.3591 0.60754 0.0
C1239 C 0.15888 0.34446 0.58748 0.0
C1240 C 0.1471 0.3523 0.56692 0.0
C1241 C 0.13508 0.37409 0.56703 0.0
H1242 H 0.57721 0.15789 0.65402 0.0
H1243 H 0.52509 0.11783 0.61456 0.0
H1244 H 0.55443 0.11002 0.58338 0.0
H1245 H 0.60389 0.1854 0.61143 0.0
H1246 H 0.63509 0.18212 0.61776 0.0
H1247 H 0.61363 0.18105 0.64125 0.0
H1248 H 0.62527 0.14026 0.65544 0.0
H1249 H 0.64936 0.14089 0.63452 0.0
H1250 H 0.62887 0.11648 0.63455 0.0
H1251 H 0.5859 0.11166 0.55437 0.0
H1252 H 0.6212 0.11767 0.52981 0.0
H1253 H 0.65585 0.15424 0.5877 0.0
C1254 C 0.57243 0.14677 0.63919 0.0
C1255 C 0.54903 0.13837 0.63649 0.0
C1256 C 0.54303 0.12423 0.61682 0.0
C1257 C 0.55954 0.11971 0.59906 0.0
C1258 C 0.58224 0.12882 0.60167 0.0
C1259 C 0.58914 0.14124 0.62156 0.0
C1260 C 0.61477 0.14921 0.61926 0.0
C1261 C 0.61702 0.17605 0.62256 0.0
C1262 C 0.6305 0.13591 0.63699 0.0
C1263 C 0.6202 0.14141 0.59405 0.0
C1264 C 0.60118 0.12923 0.58465 0.0
C1265 C 0.60112 0.12072 0.56161 0.0
C1266 C 0.62117 0.12439 0.54776 0.0
C1267 C 0.64105 0.13654 0.55684 0.0
C1268 C 0.64078 0.14494 0.58042 0.0
H1269 H 0.88228 0.55192 0.63067 0.0
H1270 H 0.82586 0.57484 0.67689 0.0
H1271 H 0.82423 0.61332 0.65587 0.0
H1272 H 0.90971 0.61222 0.61719 0.0
H1273 H 0.91422 0.60342 0.58689 0.0
H1274 H 0.91589 0.58177 0.6102 0.0
H1275 H 0.8859 0.55737 0.58738 0.0
H1276 H 0.87999 0.57927 0.56513 0.0
H1277 H 0.85633 0.56814 0.58352 0.0
H1278 H 0.82735 0.64842 0.62734 0.0
H1279 H 0.83085 0.67372 0.59149 0.0
H1280 H 0.87918 0.62309 0.56056 0.0
C1281 C 0.87061 0.56566 0.63719 0.0
C1282 C 0.85495 0.5611 0.65595 0.0
C1283 C 0.83861 0.5786 0.66309 0.0
C1284 C 0.83755 0.6004 0.65121 0.0
C1285 C 0.85267 0.60407 0.63202 0.0
C1286 C 0.8689 0.58708 0.62508 0.0
C1287 C 0.87987 0.59303 0.60145 0.0
C1288 C 0.9065 0.59791 0.6041 0.0
C1289 C 0.87525 0.57334 0.58324 0.0
C1290 C 0.86655 0.61543 0.59562 0.0
C1291 C 0.85179 0.62221 0.61389 0.0
C1292 C 0.83867 0.64313 0.61284 0.0
C1293 C 0.84057 0.65727 0.59246 0.0
C1294 C 0.85444 0.64966 0.57314 0.0
C1295 C 0.8678 0.62874 0.57492 0.0
H1296 H 0.34338 0.42457 0.17305 0.0
H1297 H 0.34661 0.44369 0.09903 0.0
H1298 H 0.36988 0.40789 0.09072 0.0
H1299 H 0.39636 0.40676 0.18284 0.0
H1300 H 0.38968 0.38066 0.20022 0.0
H1301 H 0.36867 0.40411 0.19861 0.0
H1302 H 0.3383 0.37245 0.1846 0.0
H1303 H 0.36089 0.34994 0.18572 0.0
H1304 H 0.34472 0.35496 0.15874 0.0
H1305 H 0.40123 0.37829 0.09253 0.0
H1306 H 0.43426 0.35232 0.10256 0.0
H1307 H 0.41101 0.34994 0.17561 0.0
C1308 C 0.34785 0.42033 0.15493 0.0
C1309 C 0.34319 0.43669 0.13666 0.0
C1310 C 0.34962 0.43113 0.11317 0.0
C1311 C 0.36295 0.41084 0.10831 0.0
C1312 C 0.36883 0.3959 0.12702 0.0
C1313 C 0.36056 0.39969 0.14968 0.0
C1314 C 0.37134 0.38205 0.16681 0.0
C1315 C 0.38223 0.39427 0.18837 0.0
C1316 C 0.3527 0.36376 0.17441 0.0
C1317 C 0.38997 0.37068 0.15117 0.0
C1318 C 0.38727 0.3782 0.12804 0.0
C1319 C 0.40312 0.37181 0.11043 0.0
C1320 C 0.42213 0.35731 0.11646 0.0
C1321 C 0.42565 0.3495 0.14001 0.0
C1322 C 0.4091 0.35599 0.1576 0.0
H1323 H 0.4142 0.65298 0.82696 0.0
H1324 H 0.45198 0.63583 0.89144 0.0
H1325 H 0.42164 0.60693 0.902 0.0
H1326 H 0.35325 0.64252 0.85276 0.0
H1327 H 0.34201 0.62935 0.82601 0.0
H1328 H 0.36454 0.65189 0.82446 0.0
H1329 H 0.3911 0.62386 0.80057 0.0
H1330 H 0.3687 0.6015 0.80166 0.0
H1331 H 0.39795 0.59479 0.81231 0.0
H1332 H 0.38915 0.579 0.90563 0.0
H1333 H 0.36171 0.54632 0.89716 0.0
H1334 H 0.34621 0.57686 0.82866 0.0
C1335 C 0.41595 0.64306 0.84322 0.0
C1336 C 0.43546 0.6467 0.85846 0.0
C1337 C 0.43722 0.63343 0.87957 0.0
C1338 C 0.41988 0.61712 0.88591 0.0
C1339 C 0.40072 0.61405 0.87089 0.0
C1340 C 0.39877 0.62614 0.8497 0.0
C1341 C 0.37741 0.61725 0.83593 0.0
C1342 C 0.35816 0.63639 0.83473 0.0
C1343 C 0.38428 0.60883 0.81112 0.0
C1344 C 0.36955 0.59682 0.85152 0.0
C1345 C 0.38228 0.59648 0.87234 0.0
C1346 C 0.37893 0.5791 0.88946 0.0
C1347 C 0.3632 0.56068 0.88457 0.0
C1348 C 0.35183 0.5593 0.86238 0.0
C1349 C 0.35446 0.57791 0.84591 0.0
H1350 H 0.45563 0.38091 0.87589 0.0
H1351 H 0.43294 0.3351 0.81897 0.0
H1352 H 0.3949 0.35699 0.81649 0.0
H1353 H 0.39508 0.39165 0.90239 0.0
H1354 H 0.40266 0.42189 0.90901 0.0
H1355 H 0.42521 0.39936 0.9094 0.0
H1356 H 0.44906 0.42485 0.88137 0.0
H1357 H 0.42636 0.4467 0.87694 0.0
H1358 H 0.43846 0.43067 0.85213 0.0
H1359 H 0.35912 0.38425 0.82094 0.0
H1360 H 0.33173 0.41808 0.82712 0.0
H1361 H 0.38173 0.44962 0.87572 0.0
C1362 C 0.44222 0.37503 0.86354 0.0
C1363 C 0.44662 0.35598 0.84812 0.0
C1364 C 0.42939 0.34931 0.83131 0.0
C1365 C 0.40783 0.36162 0.82982 0.0
C1366 C 0.40412 0.3807 0.84504 0.0
C1367 C 0.42092 0.3874 0.86153 0.0
C1368 C 0.41397 0.41008 0.87391 0.0
C1369 C 0.40892 0.40546 0.90023 0.0
C1370 C 0.43303 0.42925 0.87088 0.0
C1371 C 0.39137 0.41591 0.86078 0.0
C1372 C 0.3853 0.39813 0.84513 0.0
C1373 C 0.36393 0.39851 0.83276 0.0
C1374 C 0.34857 0.41774 0.83623 0.0
C1375 C 0.35532 0.43676 0.85092 0.0
C1376 C 0.37678 0.43566 0.86357 0.0
H1377 H 0.6256 0.44759 0.88644 0.0
H1378 H 0.67526 0.42115 0.83467 0.0
H1379 H 0.65467 0.38238 0.83474 0.0
H1380 H 0.61059 0.38857 0.91682 0.0
H1381 H 0.58006 0.39754 0.91903 0.0
H1382 H 0.6033 0.41929 0.92098 0.0
H1383 H 0.58234 0.44206 0.88861 0.0
H1384 H 0.56041 0.41988 0.88251 0.0
H1385 H 0.58011 0.4299 0.85947 0.0
H1386 H 0.62643 0.34728 0.83897 0.0
H1387 H 0.59015 0.32244 0.84096 0.0
H1388 H 0.55539 0.37647 0.88249 0.0
C1389 C 0.63289 0.43311 0.87622 0.0
C1390 C 0.65251 0.43673 0.86137 0.0
C1391 C 0.66077 0.41816 0.84686 0.0
C1392 C 0.64916 0.39619 0.84679 0.0
C1393 C 0.62911 0.39343 0.86098 0.0
C1394 C 0.62102 0.41151 0.87538 0.0
C1395 C 0.59668 0.40617 0.88516 0.0
C1396 C 0.59773 0.40267 0.91209 0.0
C1397 C 0.57878 0.42558 0.87853 0.0
C1398 C 0.59165 0.38305 0.87275 0.0
C1399 C 0.61106 0.37522 0.8601 0.0
C1400 C 0.61102 0.35342 0.84852 0.0
C1401 C 0.59039 0.33955 0.84952 0.0
C1402 C 0.56988 0.3483 0.86077 0.0
C1403 C 0.57069 0.37 0.87293 0.0
H1404 H 0.65305 0.58595 0.84154 0.0
H1405 H 0.61586 0.53204 0.8815 0.0
H1406 H 0.58336 0.55981 0.88927 0.0
H1407 H 0.63322 0.63645 0.87763 0.0
H1408 H 0.62929 0.65612 0.85289 0.0
H1409 H 0.65129 0.63307 0.85157 0.0
H1410 H 0.6324 0.6162 0.81317 0.0
H1411 H 0.61176 0.64035 0.81418 0.0
H1412 H 0.60091 0.61056 0.81274 0.0
H1413 H 0.55617 0.59277 0.89474 0.0
H1414 H 0.52891 0.62592 0.88777 0.0
H1415 H 0.57938 0.65758 0.83949 0.0
C1416 C 0.63794 0.58015 0.85178 0.0
C1417 C 0.63683 0.55695 0.86102 0.0
C1418 C 0.61689 0.54975 0.87426 0.0
C1419 C 0.59849 0.56545 0.879 0.0
C1420 C 0.60016 0.58829 0.87014 0.0
C1421 C 0.61886 0.59554 0.85613 0.0
C1422 C 0.61483 0.62066 0.84735 0.0
C1423 C 0.63325 0.63757 0.858 0.0
C1424 C 0.61499 0.62195 0.82023 0.0
C1425 C 0.59036 0.62555 0.85742 0.0
C1426 C 0.58308 0.60708 0.87166 0.0
C1427 C 0.56153 0.60731 0.88352 0.0
C1428 C 0.54628 0.62628 0.87962 0.0
C1429 C 0.55223 0.64419 0.86327 0.0
C1430 C 0.57473 0.64422 0.85238 0.0
H1431 H 0.62814 0.55915 0.12218 0.0
H1432 H 0.67184 0.58149 0.18076 0.0
H1433 H 0.6519 0.62061 0.18073 0.0
H1434 H 0.6173 0.61912 0.09333 0.0
H1435 H 0.58697 0.611 0.0877 0.0
H1436 H 0.60979 0.58873 0.0874 0.0
H1437 H 0.58513 0.56546 0.11686 0.0
H1438 H 0.56314 0.588 0.1213 0.0
H1439 H 0.58017 0.57698 0.14596 0.0
H1440 H 0.62484 0.65673 0.17521 0.0
H1441 H 0.58963 0.68266 0.16996 0.0
H1442 H 0.55943 0.63173 0.12153 0.0
C1443 C 0.63442 0.57286 0.13401 0.0
C1444 C 0.65218 0.56797 0.1507 0.0
C1445 C 0.65886 0.58546 0.16724 0.0
C1446 C 0.64761 0.60764 0.16734 0.0
C1447 C 0.6294 0.61166 0.15113 0.0
C1448 C 0.62279 0.59459 0.13486 0.0
C1449 C 0.59979 0.60091 0.12278 0.0
C1450 C 0.60371 0.6052 0.09623 0.0
C1451 C 0.58089 0.58176 0.12697 0.0
C1452 C 0.59394 0.62369 0.13544 0.0
C1453 C 0.61175 0.63031 0.15082 0.0
C1454 C 0.61067 0.65152 0.16344 0.0
C1455 C 0.59064 0.66603 0.16055 0.0
C1456 C 0.57163 0.65848 0.14624 0.0
C1457 C 0.57353 0.63735 0.13323 0.0
H1458 H 0.35034 0.58573 0.15714 0.0
H1459 H 0.38597 0.5308 0.11716 0.0
H1460 H 0.41984 0.55726 0.11049 0.0
H1461 H 0.37217 0.63534 0.12153 0.0
H1462 H 0.3764 0.65497 0.14626 0.0
H1463 H 0.35374 0.63256 0.14741 0.0
H1464 H 0.37196 0.61473 0.18614 0.0
H1465 H 0.39263 0.63891 0.18519 0.0
H1466 H 0.40349 0.60915 0.18673 0.0
H1467 H 0.44896 0.58891 0.10677 0.0
H1468 H 0.47661 0.62189 0.11339 0.0
H1469 H 0.42542 0.65597 0.15921 0.0
C1470 C 0.36537 0.57943 0.14709 0.0
C1471 C 0.36574 0.55625 0.13771 0.0
C1472 C 0.38556 0.54845 0.12462 0.0
C1473 C 0.40475 0.5634 0.12055 0.0
C1474 C 0.40393 0.58615 0.12978 0.0
C1475 C 0.38514 0.5941 0.14327 0.0
C1476 C 0.38977 0.61913 0.15204 0.0
C1477 C 0.37196 0.63653 0.14116 0.0
C1478 C 0.3894 0.6205 0.17915 0.0
C1479 C 0.41452 0.62331 0.14235 0.0
C1480 C 0.42172 0.60436 0.12869 0.0
C1481 C 0.44362 0.60382 0.1175 0.0
C1482 C 0.45912 0.62266 0.12124 0.0
C1483 C 0.45298 0.64134 0.13664 0.0
C1484 C 0.43027 0.64197 0.14708 0.0
H1485 H 0.64746 0.41772 0.1619 0.0
H1486 H 0.61205 0.47598 0.12676 0.0
H1487 H 0.57813 0.45034 0.11783 0.0
H1488 H 0.62527 0.37117 0.12262 0.0
H1489 H 0.62082 0.34976 0.14578 0.0
H1490 H 0.64365 0.37185 0.14865 0.0
H1491 H 0.6257 0.38629 0.18849 0.0
H1492 H 0.60412 0.36307 0.18582 0.0
H1493 H 0.59447 0.39306 0.18972 0.0
H1494 H 0.54937 0.41901 0.11052 0.0
H1495 H 0.52137 0.3859 0.11437 0.0
H1496 H 0.57147 0.3484 0.15861 0.0
C1497 C 0.63244 0.42493 0.15248 0.0
C1498 C 0.63223 0.44878 0.145 0.0
C1499 C 0.61239 0.45779 0.13274 0.0
C1500 C 0.59317 0.44332 0.12736 0.0
C1501 C 0.59392 0.41985 0.13455 0.0
C1502 C 0.61258 0.41075 0.14747 0.0
C1503 C 0.6077 0.38516 0.15425 0.0
C1504 C 0.62542 0.36851 0.1421 0.0
C1505 C 0.60803 0.38175 0.18118 0.0
C1506 C 0.58297 0.38196 0.14413 0.0
C1507 C 0.57607 0.40189 0.13182 0.0
C1508 C 0.55441 0.40335 0.12027 0.0
C1509 C 0.53872 0.38443 0.1224 0.0
C1510 C 0.5444 0.36476 0.13667 0.0
C1511 C 0.56697 0.36318 0.14733 0.0
H1512 H 0.0537 0.29335 0.5029 0.0
H1513 H 0.06662 0.36908 0.50277 0.0
H1514 H 0.02396 0.37649 0.501 0.0
H1515 H 0.00327 0.29475 0.46258 0.0
H1516 H 0.987 0.2721 0.47801 0.0
H1517 H 0.01887 0.27219 0.47882 0.0
H1518 H 0.01765 0.27253 0.52458 0.0
H1519 H 0.98577 0.27261 0.52391 0.0
H1520 H 0.00143 0.29546 0.53966 0.0
H1521 H 0.98096 0.37659 0.49964 0.0
H1522 H 0.93826 0.36933 0.49751 0.0
H1523 H 0.95082 0.29357 0.499 0.0
C1524 C 0.04747 0.31144 0.5023 0.0
C1525 C 0.06355 0.33063 0.50301 0.0
C1526 C 0.05473 0.35407 0.50237 0.0
C1527 C 0.03048 0.35851 0.50136 0.0
C1528 C 0.01511 0.33937 0.50105 0.0
C1529 C 0.02305 0.31628 0.50142 0.0
C1530 C 0.00225 0.29917 0.50109 0.0
C1531 C 0.00289 0.28363 0.47879 0.0
C1532 C 0.00176 0.28405 0.52366 0.0
C1533 C 0.98156 0.31638 0.50044 0.0
C1534 C 0.98962 0.33943 0.50045 0.0
C1535 C 0.97435 0.35864 0.49961 0.0
C1536 C 0.95009 0.35428 0.49839 0.0
C1537 C 0.94117 0.33089 0.49808 0.0
C1538 C 0.95713 0.31163 0.49939 0.0
H1539 H 0.65715 0.04972 0.50084 0.0
H1540 H 0.73268 0.06324 0.50514 0.0
H1541 H 0.74049 0.02049 0.5032 0.0
H1542 H 0.65687 0.99677 0.53621 0.0
H1543 H 0.63501 0.98184 0.51846 0.0
H1544 H 0.63506 0.01363 0.52021 0.0
H1545 H 0.63773 0.01627 0.47456 0.0
H1546 H 0.63763 0.98449 0.47267 0.0
H1547 H 0.66132 0.00114 0.45934 0.0
H1548 H 0.74044 0.97666 0.50157 0.0
H1549 H 0.73259 0.93396 0.49866 0.0
H1550 H 0.65715 0.94803 0.49444 0.0
C1551 C 0.67532 0.04366 0.50135 0.0
C1552 C 0.69431 0.05985 0.50318 0.0
C1553 C 0.71784 0.05122 0.50371 0.0
C1554 C 0.72248 0.02694 0.50266 0.0
C1555 C 0.70342 0.01146 0.50096 0.0
C1556 C 0.68031 0.01939 0.50016 0.0
C1557 C 0.66317 0.99883 0.498 0.0
C1558 C 0.64655 0.99771 0.5195 0.0
C1559 C 0.64914 1.00027 0.47476 0.0
C1560 C 0.68031 0.97818 0.4978 0.0
C1561 C 0.70341 0.98595 0.49963 0.0
C1562 C 0.72243 0.97033 0.50006 0.0
C1563 C 0.71776 0.94608 0.49843 0.0
C1564 C 0.69427 0.93762 0.49629 0.0
C1565 C 0.67531 0.95395 0.49601 0.0
H1566 H 0.94998 0.70583 0.50351 0.0
H1567 H 0.93994 0.63251 0.52413 0.0
H1568 H 0.9828 0.6262 0.52299 0.0
H1569 H 0.99799 0.69538 0.46314 0.0
H1570 H 0.0143 0.72161 0.47099 0.0
H1571 H 0.98257 0.7211 0.47396 0.0
H1572 H 0.98643 0.73273 0.51807 0.0
H1573 H 0.01819 0.73324 0.51524 0.0
H1574 H 0.00446 0.71496 0.53744 0.0
H1575 H 0.02571 0.62653 0.51815 0.0
H1576 H 0.06783 0.63381 0.51036 0.0
H1577 H 0.05236 0.70717 0.49391 0.0
C1578 C 0.95688 0.68852 0.50786 0.0
C1579 C 0.94151 0.66968 0.5139 0.0
C1580 C 0.95123 0.64726 0.51946 0.0
C1581 C 0.97562 0.64345 0.5189 0.0
C1582 C 0.99025 0.66224 0.51287 0.0
C1583 C 0.98144 0.68437 0.50751 0.0
C1584 C 0.00148 0.70124 0.50131 0.0
C1585 C 0.99893 0.71037 0.47583 0.0
C1586 C 0.00271 0.72176 0.51908 0.0
C1587 C 0.02275 0.68494 0.50377 0.0
C1588 C 0.01565 0.66255 0.51046 0.0
C1589 C 0.03157 0.64401 0.51307 0.0
C1590 C 0.05546 0.64833 0.50851 0.0
C1591 C 0.06336 0.67104 0.50159 0.0
C1592 C 0.04681 0.68971 0.49945 0.0
H1593 H 0.35128 0.0506 0.50164 0.0
H1594 H 0.27566 0.06362 0.49706 0.0
H1595 H 0.26802 0.02101 0.50027 0.0
H1596 H 0.35182 0.99643 0.46811 0.0
H1597 H 0.37357 0.98201 0.4864 0.0
H1598 H 0.37356 0.01374 0.48374 0.0
H1599 H 0.37065 0.0177 0.52927 0.0
H1600 H 0.37069 0.98597 0.53207 0.0
H1601 H 0.34695 0.00305 0.54479 0.0
H1602 H 0.26804 0.97764 0.50259 0.0
H1603 H 0.27559 0.93504 0.50605 0.0
H1604 H 0.3511 0.94863 0.51085 0.0
C1605 C 0.33315 0.04442 0.50135 0.0
C1606 C 0.31406 0.06048 0.49906 0.0
C1607 C 0.29057 0.05174 0.49886 0.0
C1608 C 0.28602 0.02752 0.50062 0.0
C1609 C 0.30511 0.01218 0.50279 0.0
C1610 C 0.32821 0.02016 0.50337 0.0
C1611 C 0.34531 0.99961 0.5062 0.0
C1612 C 0.36205 0.99785 0.48484 0.0
C1613 C 0.35922 0.00171 0.52947 0.0
C1614 C 0.32815 0.97895 0.50692 0.0
C1615 C 0.30508 0.98676 0.50479 0.0
C1616 C 0.286 0.97126 0.5044 0.0
C1617 C 0.29051 0.94706 0.50632 0.0
C1618 C 0.31393 0.93847 0.50878 0.0
C1619 C 0.33301 0.95468 0.50914 0.0
H1620 H 0.4949 0.95444 0.29339 0.0
H1621 H 0.50621 0.93941 0.3679 0.0
H1622 H 0.51217 0.98156 0.37569 0.0
H1623 H 0.53815 0.0018 0.28893 0.0
H1624 H 0.52041 0.01979 0.26952 0.0
H1625 H 0.51725 0.9881 0.26913 0.0
H1626 H 0.47235 0.99236 0.27728 0.0
H1627 H 0.47538 0.02406 0.2777 0.0
H1628 H 0.46255 0.00897 0.30267 0.0
H1629 H 0.51711 0.02437 0.37622 0.0
H1630 H 0.51991 0.0671 0.36955 0.0
H1631 H 0.50475 0.05658 0.29495 0.0
C1632 C 0.49868 0.96009 0.31128 0.0
C1633 C 0.50003 0.94356 0.33003 0.0
C1634 C 0.50493 0.95165 0.35324 0.0
C1635 C 0.50842 0.97561 0.3579 0.0
C1636 C 0.50689 0.99143 0.33921 0.0
C1637 C 0.50207 0.98421 0.31637 0.0
C1638 C 0.50107 0.00536 0.29981 0.0
C1639 C 0.52037 0.00366 0.28072 0.0
C1640 C 0.47637 0.00783 0.28871 0.0
C1641 C 0.50611 0.02541 0.31701 0.0
C1642 C 0.50948 0.01676 0.33958 0.0
C1643 C 0.51448 0.03144 0.35864 0.0
C1644 C 0.51605 0.05573 0.35463 0.0
C1645 C 0.51252 0.06525 0.33174 0.0
C1646 C 0.50749 0.04983 0.31265 0.0
H1647 H 0.95135 0.49645 0.34688 0.0
H1648 H 0.93771 0.50141 0.27148 0.0
H1649 H 0.98057 0.50044 0.26365 0.0
H1650 H 0.00349 0.53288 0.34767 0.0
H1651 H 0.01883 0.51519 0.36928 0.0
H1652 H 0.98697 0.5162 0.36924 0.0
H1653 H 0.98537 0.47055 0.36594 0.0
H1654 H 0.01722 0.46941 0.36605 0.0
H1655 H 1.00089 0.45601 0.34218 0.0
H1656 H 0.02449 0.5 0.26375 0.0
H1657 H 0.06729 0.49815 0.27159 0.0
H1658 H 0.05325 0.49235 0.34687 0.0
C1659 C 0.9574 0.49728 0.32874 0.0
C1660 C 0.94116 0.49904 0.30978 0.0
C1661 C 0.94978 0.50002 0.28629 0.0
C1662 C 0.97411 0.49953 0.28164 0.0
C1663 C 0.98964 0.49792 0.30067 0.0
C1664 C 0.98172 0.49664 0.32374 0.0
C1665 C 0.00232 0.49473 0.34086 0.0
C1666 C 0.00293 0.51602 0.35776 0.0
C1667 C 0.00139 0.47128 0.35456 0.0
C1668 C 0.02301 0.49525 0.32376 0.0
C1669 C 0.01521 0.49721 0.30069 0.0
C1670 C 0.03084 0.49836 0.28172 0.0
C1671 C 0.05514 0.49735 0.28639 0.0
C1672 C 0.06365 0.49506 0.30984 0.0
C1673 C 0.0473 0.49402 0.32876 0.0
H1674 H 0.50581 0.94973 0.70505 0.0
H1675 H 0.49806 0.93676 0.62974 0.0
H1676 H 0.49204 0.97919 0.62294 0.0
H1677 H 0.46223 0.99732 0.70904 0.0
H1678 H 0.47929 0.01446 0.7298 0.0
H1679 H 0.48203 0.98273 0.72933 0.0
H1680 H 0.5273 0.98669 0.72341 0.0
H1681 H 0.52469 0.01842 0.72379 0.0
H1682 H 0.53847 0.00387 0.699 0.0
H1683 H 0.48747 0.02213 0.62355 0.0
H1684 H 0.48506 0.06467 0.6314 0.0
H1685 H 0.4967 0.05178 0.70626 0.0
C1686 C 0.50262 0.95588 0.68721 0.0
C1687 C 0.50237 0.93994 0.66791 0.0
C1688 C 0.49843 0.94863 0.64477 0.0
C1689 C 0.49492 0.97271 0.64071 0.0
C1690 C 0.49552 0.98798 0.65994 0.0
C1691 C 0.49931 0.98009 0.68274 0.0
C1692 C 0.49981 0.0007 0.69999 0.0
C1693 C 0.47964 0.99868 0.71811 0.0
C1694 C 0.52401 0.00252 0.71227 0.0
C1695 C 0.49581 0.02129 0.6832 0.0
C1696 C 0.49326 0.01334 0.66025 0.0
C1697 C 0.4894 0.02864 0.64144 0.0
C1698 C 0.48806 0.05282 0.64614 0.0
C1699 C 0.49068 0.06161 0.66946 0.0
C1700 C 0.49466 0.04559 0.68826 0.0
H1701 H 0.94849 0.4988 0.6528 0.0
H1702 H 0.93627 0.49686 0.7286 0.0
H1703 H 0.97917 0.49858 0.7356 0.0
H1704 H 0.0014 0.46311 0.6526 0.0
H1705 H 0.01616 0.48018 0.63009 0.0
H1706 H 0.98432 0.47865 0.63063 0.0
H1707 H 0.98199 0.52435 0.63216 0.0
H1708 H 0.01382 0.52602 0.63154 0.0
H1709 H 0.99757 0.54007 0.6551 0.0
H1710 H 0.02283 0.49949 0.73487 0.0
H1711 H 0.06546 0.50185 0.72649 0.0
H1712 H 0.0506 0.50465 0.65119 0.0
C1713 C 0.95489 0.49876 0.67084 0.0
C1714 C 0.93899 0.49765 0.69016 0.0
C1715 C 0.94804 0.49774 0.71351 0.0
C1716 C 0.97241 0.49865 0.7177 0.0
C1717 C 0.98759 0.49964 0.69837 0.0
C1718 C 0.9793 0.49989 0.67539 0.0
C1719 C 0.99967 0.50147 0.65792 0.0
C1720 C 1.00043 0.47955 0.64186 0.0
C1721 C 0.99817 0.52434 0.64332 0.0
C1722 C 0.02062 0.50197 0.67474 0.0
C1723 C 0.01312 0.50074 0.69795 0.0
C1724 C 0.02896 0.50057 0.71677 0.0
C1725 C 0.05317 0.50186 0.7118 0.0
C1726 C 0.0614 0.50348 0.68819 0.0
C1727 C 0.04485 0.50351 0.66941 0.0
H1728 H 0.34873 0.49344 0.94746 0.0
H1729 H 0.27318 0.49518 0.93353 0.0
H1730 H 0.26531 0.4986 0.97618 0.0
H1731 H 0.34556 0.45932 0.0016 0.0
H1732 H 0.36883 0.47556 0.01612 0.0
H1733 H 0.36877 0.47281 0.98439 0.0
H1734 H 0.37018 0.5184 0.98036 0.0
H1735 H 0.37021 0.52129 0.01208 0.0
H1736 H 0.3479 0.53608 0.99478 0.0
H1737 H 0.26524 0.50189 0.01992 0.0
H1738 H 0.27306 0.5054 0.06262 0.0
H1739 H 0.34864 0.50226 0.04902 0.0
C1740 C 0.33055 0.49443 0.95343 0.0
C1741 C 0.31157 0.49399 0.93713 0.0
C1742 C 0.28803 0.4955 0.94563 0.0
C1743 C 0.28334 0.49742 0.96985 0.0
C1744 C 0.30238 0.49791 0.98543 0.0
C1745 C 0.32552 0.49651 0.97765 0.0
C1746 C 0.34265 0.49783 0.99829 0.0
C1747 C 0.35732 0.47502 1.00021 0.0
C1748 C 0.35868 0.5197 0.99625 0.0
C1749 C 0.32547 0.50017 0.01879 0.0
C1750 C 0.30234 0.50011 0.01089 0.0
C1751 C 0.28327 0.50198 0.02636 0.0
C1752 C 0.28791 0.50396 0.05059 0.0
C1753 C 0.31145 0.50414 0.05919 0.0
C1754 C 0.33046 0.50223 0.043 0.0
H1755 H 0.50245 0.29193 0.94894 0.0
H1756 H 0.48739 0.36567 0.93405 0.0
H1757 H 0.47964 0.37276 0.97625 0.0
H1758 H 0.45888 0.28448 0.9969 0.0
H1759 H 0.47813 0.26613 0.01445 0.0
H1760 H 0.48066 0.26603 0.98268 0.0
H1761 H 0.52507 0.27675 0.98616 0.0
H1762 H 0.52266 0.27702 0.01791 0.0
H1763 H 0.53366 0.30269 0.00258 0.0
H1764 H 0.47505 0.37278 0.01928 0.0
H1765 H 0.47438 0.36607 0.06209 0.0
H1766 H 0.49371 0.29253 0.05105 0.0
C1767 C 0.49713 0.30942 0.95462 0.0
C1768 C 0.49538 0.32826 0.93827 0.0
C1769 C 0.48886 0.35103 0.9463 0.0
C1770 C 0.48434 0.35523 0.97022 0.0
C1771 C 0.48661 0.3365 0.98597 0.0
C1772 C 0.49287 0.31404 0.97867 0.0
C1773 C 0.4953 0.29754 0.99975 0.0
C1774 C 0.47716 0.27735 0.99836 0.0
C1775 C 0.52069 0.28794 0.00171 0.0
C1776 C 0.48963 0.31436 0.01992 0.0
C1777 C 0.48448 0.33665 0.01138 0.0
C1778 C 0.47896 0.3554 0.02624 0.0
C1779 C 0.47867 0.35137 0.05059 0.0
C1780 C 0.48402 0.32877 0.05999 0.0
C1781 C 0.48954 0.30998 0.04439 0.0
H1782 H 0.70777 0.50268 0.95317 0.0
H1783 H 0.63201 0.50685 0.94026 0.0
H1784 H 0.62457 0.50732 0.98275 0.0
H1785 H 0.70343 0.46414 0.00462 0.0
H1786 H 0.72701 0.47832 0.02073 0.0
H1787 H 0.7272 0.47843 0.98887 0.0
H1788 H 0.72999 0.5241 0.98905 0.0
H1789 H 0.72969 0.52413 0.02092 0.0
H1790 H 0.70805 0.54107 0.00479 0.0
H1791 H 0.62416 0.50786 0.02536 0.0
H1792 H 0.63075 0.50649 0.06802 0.0
H1793 H 0.70667 0.50141 0.05641 0.0
C1794 C 0.68968 0.50363 0.95938 0.0
C1795 C 0.67051 0.5048 0.94323 0.0
C1796 C 0.64706 0.50601 0.95208 0.0
C1797 C 0.64256 0.50632 0.97628 0.0
C1798 C 0.66164 0.50537 0.99167 0.0
C1799 C 0.68474 0.50391 0.98383 0.0
C1800 C 0.70167 0.50285 0.00477 0.0
C1801 C 0.71565 0.47954 0.00474 0.0
C1802 C 0.71834 0.52432 0.00488 0.0
C1803 C 0.68431 0.50386 0.02538 0.0
C1804 C 0.66138 0.50544 0.01711 0.0
C1805 C 0.64201 0.50657 0.03215 0.0
C1806 C 0.64601 0.50577 0.05644 0.0
C1807 C 0.66923 0.50377 0.06568 0.0
C1808 C 0.68873 0.50301 0.04989 0.0
H1809 H 0.49351 0.71297 0.9478 0.0
H1810 H 0.49859 0.63745 0.93473 0.0
H1811 H 0.50445 0.63038 0.97706 0.0
H1812 H 0.5374 0.71537 0.99477 0.0
H1813 H 0.52135 0.73659 0.01232 0.0
H1814 H 0.518 0.73634 0.98064 0.0
H1815 H 0.47264 0.73185 0.9854 0.0
H1816 H 0.47586 0.73207 0.01709 0.0
H1817 H 0.46102 0.70778 0.00276 0.0
H1818 H 0.51 0.6307 0.01981 0.0
H1819 H 0.51384 0.6383 0.0623 0.0
H1820 H 0.50412 0.7135 0.04996 0.0
C1821 C 0.49594 0.69501 0.95392 0.0
C1822 C 0.49557 0.67576 0.93791 0.0
C1823 C 0.49867 0.65248 0.94659 0.0
C1824 C 0.50209 0.64824 0.97065 0.0
C1825 C 0.50224 0.66743 0.98596 0.0
C1826 C 0.49917 0.69036 0.97815 0.0
C1827 C 0.49962 0.70753 0.99885 0.0
C1828 C 0.52033 0.72499 0.9965 0.0
C1829 C 0.47587 0.72058 0.00116 0.0
C1830 C 0.50345 0.69056 0.01935 0.0
C1831 C 0.50503 0.66757 0.01128 0.0
C1832 C 0.50877 0.64861 0.02642 0.0
C1833 C 0.51098 0.65316 0.05057 0.0
C1834 C 0.50929 0.67649 0.05951 0.0
C1835 C 0.50541 0.69547 0.04365 0.0
H1836 H 0.22661 0.29538 0.50406 0.0
H1837 H 0.1624 0.25322 0.50184 0.0
H1838 H 0.18669 0.21706 0.49743 0.0
H1839 H 0.25926 0.26224 0.46099 0.0
H1840 H 0.28704 0.26563 0.47625 0.0
H1841 H 0.26451 0.28797 0.47905 0.0
H1842 H 0.26564 0.28364 0.52467 0.0
H1843 H 0.2882 0.26133 0.52203 0.0
H1844 H 0.26121 0.25494 0.53777 0.0
H1845 H 0.21855 0.18544 0.49352 0.0
H1846 H 0.25476 0.1612 0.49077 0.0
H1847 H 0.29759 0.22479 0.49554 0.0
C1848 C 0.21749 0.27862 0.5026 0.0
C1849 C 0.19248 0.27724 0.50327 0.0
C1850 C 0.18148 0.2548 0.50136 0.0
C1851 C 0.19515 0.23416 0.49884 0.0
C1852 C 0.21976 0.23627 0.49825 0.0
C1853 C 0.23077 0.25797 0.50008 0.0
C1854 C 0.25743 0.25563 0.49917 0.0
C1855 C 0.26765 0.26864 0.47758 0.0
C1856 C 0.26878 0.2644 0.52228 0.0
C1857 C 0.25981 0.22914 0.49657 0.0
C1858 C 0.23792 0.21825 0.49604 0.0
C1859 C 0.23575 0.19382 0.49389 0.0
C1860 C 0.25648 0.1802 0.49233 0.0
C1861 C 0.27914 0.19102 0.49294 0.0
C1862 C 0.28064 0.21587 0.49501 0.0
H1863 H 0.70708 0.22479 0.50208 0.0
H1864 H 0.75058 0.16258 0.51379 0.0
H1865 H 0.78643 0.18739 0.5123 0.0
H1866 H 0.74569 0.25287 0.46089 0.0
H1867 H 0.73997 0.2823 0.47168 0.0
H1868 H 0.71765 0.25976 0.47445 0.0
H1869 H 0.71568 0.267 0.51967 0.0
H1870 H 0.73795 0.28963 0.51702 0.0
H1871 H 0.7424 0.2652 0.53699 0.0
H1872 H 0.81789 0.21907 0.50839 0.0
H1873 H 0.84206 0.25509 0.50281 0.0
H1874 H 0.77776 0.2962 0.49376 0.0
C1875 C 0.7241 0.21633 0.50447 0.0
C1876 C 0.72588 0.19165 0.50806 0.0
C1877 C 0.74862 0.18142 0.51103 0.0
C1878 C 0.76915 0.19537 0.51021 0.0
C1879 C 0.76674 0.21957 0.50645 0.0
C1880 C 0.74478 0.22997 0.50369 0.0
C1881 C 0.74703 0.25631 0.49951 0.0
C1882 C 0.73699 0.2632 0.47519 0.0
C1883 C 0.73506 0.27036 0.51949 0.0
C1884 C 0.77367 0.25907 0.50022 0.0
C1885 C 0.78477 0.23772 0.50427 0.0
C1886 C 0.80937 0.23591 0.5053 0.0
C1887 C 0.82296 0.25648 0.50208 0.0
C1888 C 0.81192 0.27859 0.49789 0.0
C1889 C 0.7869 0.2797 0.49703 0.0
H1890 H 0.77806 0.70104 0.5012 0.0
H1891 H 0.84197 0.74373 0.50022 0.0
H1892 H 0.81758 0.77963 0.49517 0.0
H1893 H 0.74508 0.73501 0.45779 0.0
H1894 H 0.71733 0.7313 0.47306 0.0
H1895 H 0.7399 0.70893 0.47537 0.0
H1896 H 0.73873 0.71241 0.52104 0.0
H1897 H 0.71622 0.73482 0.51889 0.0
H1898 H 0.74325 0.74084 0.5347 0.0
H1899 H 0.78609 0.81096 0.49168 0.0
H1900 H 0.75018 0.83547 0.4898 0.0
H1901 H 0.70671 0.77221 0.49343 0.0
C1902 C 0.78706 0.71787 0.49966 0.0
C1903 C 0.81206 0.71945 0.50103 0.0
C1904 C 0.82292 0.74195 0.49916 0.0
C1905 C 0.8092 0.76247 0.49629 0.0
C1906 C 0.78464 0.76021 0.49532 0.0
C1907 C 0.77368 0.73847 0.49688 0.0
C1908 C 0.74696 0.74089 0.49608 0.0
C1909 C 0.73672 0.72829 0.47428 0.0
C1910 C 0.73563 0.7317 0.51904 0.0
C1911 C 0.74455 0.76747 0.49398 0.0
C1912 C 0.7665 0.77825 0.49349 0.0
C1913 C 0.76883 0.80269 0.49196 0.0
C1914 C 0.74823 0.81647 0.49092 0.0
C1915 C 0.72546 0.80586 0.49147 0.0
C1916 C 0.72375 0.78095 0.49296 0.0
H1917 H 0.22594 0.70382 0.49539 0.0
H1918 H 0.16254 0.74703 0.491 0.0
H1919 H 0.18723 0.78302 0.49404 0.0
H1920 H 0.25635 0.73942 0.53787 0.0
H1921 H 0.28504 0.73464 0.5248 0.0
H1922 H 0.26235 0.71247 0.52195 0.0
H1923 H 0.2667 0.71375 0.47634 0.0
H1924 H 0.28939 0.73594 0.47904 0.0
H1925 H 0.26364 0.74155 0.46109 0.0
H1926 H 0.21914 0.81428 0.49791 0.0
H1927 H 0.25524 0.83824 0.50288 0.0
H1928 H 0.29751 0.77414 0.50474 0.0
C1929 C 0.2171 0.7208 0.49503 0.0
C1930 C 0.19218 0.72251 0.49293 0.0
C1931 C 0.18154 0.74519 0.4926 0.0
C1932 C 0.19544 0.76574 0.49429 0.0
C1933 C 0.21993 0.76332 0.49631 0.0
C1934 C 0.23063 0.7414 0.49673 0.0
C1935 C 0.25723 0.74349 0.4993 0.0
C1936 C 0.26573 0.73182 0.52235 0.0
C1937 C 0.26999 0.73307 0.47765 0.0
C1938 C 0.25991 0.77008 0.50031 0.0
C1939 C 0.23821 0.78121 0.49852 0.0
C1940 C 0.23621 0.80573 0.49929 0.0
C1941 C 0.25688 0.81919 0.50213 0.0
C1942 C 0.27935 0.80815 0.50418 0.0
C1943 C 0.28073 0.78322 0.50311 0.0
H1944 H 0.50905 0.2263 0.29274 0.0
H1945 H 0.50481 0.16087 0.25281 0.0
H1946 H 0.5016 0.18407 0.21572 0.0
H1947 H 0.46747 0.25898 0.25881 0.0
H1948 H 0.48363 0.28631 0.26155 0.0
H1949 H 0.48573 0.26428 0.2844 0.0
H1950 H 0.53143 0.26396 0.27996 0.0
H1951 H 0.52946 0.28593 0.25701 0.0
H1952 H 0.54436 0.25834 0.25136 0.0
H1953 H 0.49809 0.21562 0.18279 0.0
H1954 H 0.4941 0.25162 0.15811 0.0
H1955 H 0.50158 0.29499 0.22103 0.0
C1956 C 0.50739 0.21665 0.27629 0.0
C1957 C 0.50711 0.19167 0.27579 0.0
C1958 C 0.50503 0.17998 0.2537 0.0
C1959 C 0.50324 0.19302 0.23254 0.0
C1960 C 0.50367 0.21768 0.2338 0.0
C1961 C 0.5057 0.22926 0.25521 0.0
C1962 C 0.50562 0.25578 0.2522 0.0
C1963 C 0.48435 0.26698 0.26499 0.0
C1964 C 0.52911 0.26663 0.26063 0.0
C1965 C 0.50307 0.25749 0.2257 0.0
C1966 C 0.50199 0.23544 0.21524 0.0
C1967 C 0.49904 0.23294 0.19086 0.0
C1968 C 0.49684 0.2535 0.17697 0.0
C1969 C 0.4976 0.27623 0.18753 0.0
C1970 C 0.50104 0.278 0.21221 0.0
H1971 H 0.77543 0.50006 0.29919 0.0
H1972 H 0.83792 0.50371 0.25457 0.0
H1973 H 0.81263 0.50216 0.21914 0.0
H1974 H 0.74259 0.45958 0.26285 0.0
H1975 H 0.7145 0.47368 0.26825 0.0
H1976 H 0.73751 0.47509 0.29024 0.0
H1977 H 0.73511 0.52084 0.2901 0.0
H1978 H 0.71202 0.51956 0.2682 0.0
H1979 H 0.73839 0.53659 0.26259 0.0
H1980 H 0.78049 0.49978 0.18834 0.0
H1981 H 0.74378 0.49822 0.16468 0.0
H1982 H 0.70245 0.49639 0.22946 0.0
C1983 C 0.78385 0.50053 0.282 0.0
C1984 C 0.80874 0.50198 0.27978 0.0
C1985 C 0.81893 0.50265 0.25685 0.0
C1986 C 0.80471 0.50172 0.23655 0.0
C1987 C 0.78029 0.50017 0.2394 0.0
C1988 C 0.76992 0.49968 0.26153 0.0
C1989 C 0.74323 0.49822 0.25969 0.0
C1990 C 0.73392 0.47528 0.27092 0.0
C1991 C 0.73151 0.52011 0.2708 0.0
C1992 C 0.74023 0.49796 0.23308 0.0
C1993 C 0.7618 0.49901 0.22168 0.0
C1994 C 0.76347 0.49897 0.19708 0.0
C1995 C 0.7425 0.49803 0.18379 0.0
C1996 C 0.72014 0.49722 0.19512 0.0
C1997 C 0.71918 0.49706 0.22014 0.0
H1998 H 0.50143 0.71174 0.22148 0.0
H1999 H 0.50034 0.75412 0.15749 0.0
H2000 H 0.49725 0.79038 0.18191 0.0
H2001 H 0.46075 0.74714 0.25593 0.0
H2002 H 0.47705 0.74262 0.28293 0.0
H2003 H 0.47745 0.72033 0.26019 0.0
H2004 H 0.52331 0.72191 0.25937 0.0
H2005 H 0.52306 0.74425 0.28203 0.0
H2006 H 0.53793 0.74978 0.25438 0.0
H2007 H 0.49552 0.82233 0.21437 0.0
H2008 H 0.49584 0.84628 0.25109 0.0
H2009 H 0.49953 0.78183 0.29259 0.0
C2010 C 0.50024 0.72855 0.21241 0.0
C2011 C 0.50102 0.72996 0.18746 0.0
C2012 C 0.49968 0.7525 0.17655 0.0
C2013 C 0.49793 0.7732 0.19029 0.0
C2014 C 0.49762 0.77107 0.21489 0.0
C2015 C 0.49872 0.74923 0.22575 0.0
C2016 C 0.49917 0.75145 0.25237 0.0
C2017 C 0.4773 0.73969 0.2635 0.0
C2018 C 0.52224 0.74125 0.26263 0.0
C2019 C 0.49828 0.778 0.25493 0.0
C2020 C 0.49722 0.78913 0.23322 0.0
C2021 C 0.49632 0.81373 0.23144 0.0
C2022 C 0.49652 0.8272 0.2524 0.0
C2023 C 0.49781 0.81602 0.27481 0.0
C2024 C 0.49867 0.79107 0.27585 0.0
H2025 H 0.22934 0.49291 0.29656 0.0
H2026 H 0.16568 0.50065 0.25416 0.0
H2027 H 0.19012 0.50568 0.21852 0.0
H2028 H 0.26471 0.53578 0.26496 0.0
H2029 H 0.29163 0.51884 0.26714 0.0
H2030 H 0.26923 0.51615 0.28965 0.0
H2031 H 0.26773 0.47086 0.28296 0.0
H2032 H 0.29018 0.47341 0.26048 0.0
H2033 H 0.26229 0.45954 0.25367 0.0
H2034 H 0.22103 0.50987 0.18746 0.0
H2035 H 0.25663 0.51173 0.16252 0.0
H2036 H 0.30065 0.50091 0.2246 0.0
C2037 C 0.22052 0.49573 0.2798 0.0
C2038 C 0.19551 0.49641 0.27827 0.0
C2039 C 0.18475 0.5 0.2559 0.0
C2040 C 0.19848 0.50294 0.2355 0.0
C2041 C 0.223 0.50221 0.23766 0.0
C2042 C 0.23397 0.49862 0.25918 0.0
C2043 C 0.26067 0.49818 0.25642 0.0
C2044 C 0.27223 0.51845 0.27037 0.0
C2045 C 0.27081 0.47406 0.26382 0.0
C2046 C 0.26293 0.50202 0.22998 0.0
C2047 C 0.24095 0.50441 0.21957 0.0
C2048 C 0.23836 0.50804 0.19538 0.0
C2049 C 0.25876 0.50909 0.18136 0.0
C2050 C 0.28156 0.50645 0.19151 0.0
C2051 C 0.28355 0.50298 0.21623 0.0
H2052 H 0.50389 0.70916 0.77676 0.0
H2053 H 0.49525 0.75251 0.83955 0.0
H2054 H 0.49903 0.78851 0.8149 0.0
H2055 H 0.54675 0.74594 0.74729 0.0
H2056 H 0.53447 0.74032 0.71843 0.0
H2057 H 0.53198 0.71834 0.74131 0.0
H2058 H 0.48639 0.71781 0.736 0.0
H2059 H 0.48874 0.73979 0.71312 0.0
H2060 H 0.47004 0.74505 0.7384 0.0
H2061 H 0.50299 0.81998 0.78235 0.0
H2062 H 0.50638 0.84339 0.74549 0.0
H2063 H 0.5119 0.7783 0.70512 0.0
C2064 C 0.50298 0.72616 0.78552 0.0
C2065 C 0.49936 0.72792 0.81019 0.0
C2066 C 0.49808 0.75065 0.82071 0.0
C2067 C 0.50021 0.7712 0.80684 0.0
C2068 C 0.5036 0.76872 0.78252 0.0
C2069 C 0.50498 0.7467 0.77204 0.0
C2070 C 0.50805 0.74852 0.74557 0.0
C2071 C 0.53172 0.73764 0.7377 0.0
C2072 C 0.48706 0.73713 0.73251 0.0
C2073 C 0.50811 0.77505 0.74265 0.0
C2074 C 0.50561 0.78651 0.76408 0.0
C2075 C 0.50501 0.81113 0.7655 0.0
C2076 C 0.50695 0.82429 0.74446 0.0
C2077 C 0.50938 0.81277 0.72231 0.0
C2078 C 0.51002 0.7878 0.72164 0.0
H2079 H 0.29886 0.50067 0.77203 0.0
H2080 H 0.25535 0.49729 0.83533 0.0
H2081 H 0.2195 0.49999 0.81083 0.0
H2082 H 0.26226 0.5424 0.74025 0.0
H2083 H 0.26684 0.52846 0.71196 0.0
H2084 H 0.28934 0.52657 0.73444 0.0
H2085 H 0.2885 0.48087 0.73156 0.0
H2086 H 0.26599 0.48262 0.70908 0.0
H2087 H 0.26085 0.46545 0.73543 0.0
H2088 H 0.18833 0.50274 0.77985 0.0
H2089 H 0.16364 0.50534 0.74414 0.0
H2090 H 0.22702 0.50682 0.70058 0.0
C2091 C 0.28181 0.50061 0.78078 0.0
C2092 C 0.28003 0.49878 0.80568 0.0
C2093 C 0.2573 0.49863 0.81633 0.0
C2094 C 0.23677 0.50018 0.80257 0.0
C2095 C 0.23917 0.50186 0.77814 0.0
C2096 C 0.26107 0.50209 0.76729 0.0
C2097 C 0.25859 0.5038 0.74064 0.0
C2098 C 0.26993 0.52667 0.73128 0.0
C2099 C 0.26911 0.48188 0.72847 0.0
C2100 C 0.23188 0.50445 0.73827 0.0
C2101 C 0.22107 0.50334 0.76014 0.0
C2102 C 0.19657 0.50364 0.7626 0.0
C2103 C 0.18269 0.50513 0.74215 0.0
C2104 C 0.1933 0.50628 0.71944 0.0
C2105 C 0.21829 0.50592 0.71761 0.0
H2106 H 0.50508 0.22241 0.70626 0.0
H2107 H 0.49556 0.15903 0.74851 0.0
H2108 H 0.49898 0.18309 0.78494 0.0
H2109 H 0.54747 0.25137 0.74459 0.0
H2110 H 0.53527 0.28028 0.73909 0.0
H2111 H 0.53337 0.2577 0.71671 0.0
H2112 H 0.48783 0.26306 0.71515 0.0
H2113 H 0.48956 0.28555 0.73759 0.0
H2114 H 0.47078 0.26016 0.74194 0.0
H2115 H 0.50186 0.21514 0.81696 0.0
H2116 H 0.50461 0.25159 0.84107 0.0
H2117 H 0.51178 0.29301 0.77683 0.0
C2118 C 0.50397 0.21339 0.7231 0.0
C2119 C 0.50011 0.18872 0.72441 0.0
C2120 C 0.49861 0.17786 0.74697 0.0
C2121 C 0.50049 0.1914 0.76777 0.0
C2122 C 0.50392 0.21575 0.76573 0.0
C2123 C 0.50574 0.22655 0.74391 0.0
C2124 C 0.50871 0.253 0.74624 0.0
C2125 C 0.53263 0.26105 0.73606 0.0
C2126 C 0.48798 0.26621 0.73454 0.0
C2127 C 0.5081 0.25553 0.77283 0.0
C2128 C 0.5054 0.23392 0.78387 0.0
C2129 C 0.50407 0.23213 0.80845 0.0
C2130 C 0.50562 0.25294 0.82201 0.0
C2131 C 0.50839 0.27528 0.81094 0.0
C2132 C 0.50965 0.27634 0.78599 0.0
H2133 H 0.70372 0.50242 0.77935 0.0
H2134 H 0.74667 0.504 0.84302 0.0
H2135 H 0.7828 0.50132 0.81844 0.0
H2136 H 0.73868 0.46067 0.7475 0.0
H2137 H 0.73435 0.47495 0.71935 0.0
H2138 H 0.71205 0.47732 0.74198 0.0
H2139 H 0.7142 0.52303 0.73959 0.0
H2140 H 0.73642 0.52081 0.71687 0.0
H2141 H 0.74232 0.53761 0.74331 0.0
H2142 H 0.81427 0.49781 0.78648 0.0
H2143 H 0.83833 0.49476 0.75018 0.0
H2144 H 0.77418 0.49557 0.70788 0.0
C2145 C 0.72067 0.50223 0.78827 0.0
C2146 C 0.72227 0.50338 0.81322 0.0
C2147 C 0.74492 0.50317 0.82397 0.0
C2148 C 0.76555 0.50161 0.81015 0.0
C2149 C 0.76323 0.50034 0.78562 0.0
C2150 C 0.74133 0.50071 0.77481 0.0
C2151 C 0.7435 0.49915 0.74818 0.0
C2152 C 0.73143 0.47669 0.73871 0.0
C2153 C 0.73352 0.52148 0.73629 0.0
C2154 C 0.77009 0.49777 0.7456 0.0
C2155 C 0.78119 0.49845 0.76736 0.0
C2156 C 0.80573 0.49731 0.76937 0.0
C2157 C 0.81925 0.49553 0.7486 0.0
C2158 C 0.80822 0.49495 0.72606 0.0
C2159 C 0.78326 0.49602 0.72473 0.0
loop_
_geom_bond_atom_site_label_1
_geom_bond_atom_site_label_2
_geom_bond_distance
_geom_bond_site_symmetry_2
_ccdc_geom_bond_type
Mn0 O5 2.095 . S
Mn0 O15 2.162 . S
Mn0 O16 2.297 . S
Mn0 O24 2.385 . S
Mn0 O25 2.209 . S
Mn0 O26 2.094 . S
Mn1 O6 2.121 . S
Mn1 N8 2.257 . S
Mn1 N17 2.282 . S
Mn1 O25 2.215 . S
Mn1 O27 2.117 . S
C2 O24 1.234 . S
C2 O25 1.283 . S
C3 O15 1.281 . S
C3 O16 1.236 . S
C4 O26 1.240 . S
C4 O27 1.264 . S
O5 Mn0 2.095 . S
O5 C14 1.250 . S
O6 Mn1 2.121 . S
O6 C14 1.258 . S
C7 N8 1.326 . S
C7 C11 1.460 . S
C7 H13 0.929 . S
N8 Mn1 2.257 . S
N8 C7 1.326 . S
N8 C12 1.362 . S
C9 C10 1.258 . S
C9 C12 1.431 . S
C9 C29 1.449 . S
C10 C9 1.258 . S
C10 C11 1.477 . S
C10 H30 0.931 . S
C11 C7 1.460 . S
C11 C10 1.477 . S
C11 H31 0.930 . S
C12 N8 1.362 . S
C12 C9 1.431 . S
C12 C22 1.476 . S
H13 C7 0.929 . S
C14 O5 1.250 . S
C14 O6 1.258 . S
O15 Mn0 2.162 . S
O15 C3 1.281 . S
O16 Mn0 2.297 . S
O16 C3 1.236 . S
N17 Mn1 2.282 . S
N17 C18 1.328 . S
N17 C22 1.318 . S
C18 N17 1.328 . S
C18 C19 1.457 . S
C18 H23 0.929 . S
C19 C18 1.457 . S
C19 C20 1.291 . S
C19 H32 0.931 . S
C20 C19 1.291 . S
C20 C21 1.373 . S
C20 H33 0.929 . S
C21 C20 1.373 . S
C21 C22 1.396 . S
C21 C28 1.403 . S
C22 C12 1.476 . S
C22 N17 1.318 . S
C22 C21 1.396 . S
H23 C18 0.929 . S
O24 Mn0 2.385 . S
O24 C2 1.234 . S
O25 Mn0 2.209 . S
O25 Mn1 2.215 . S
O25 C2 1.283 . S
O26 Mn0 2.094 . S
O26 C4 1.240 . S
O27 Mn1 2.117 . S
O27 C4 1.264 . S
C28 C21 1.403 . S
C28 C29 1.399 . S
C28 H34 0.929 . S
C29 C9 1.449 . S
C29 C28 1.399 . S
C29 H35 0.930 . S
H30 C10 0.931 . S
H31 C11 0.930 . S
H32 C19 0.931 . S
H33 C20 0.929 . S
H34 C28 0.929 . S
H35 C29 0.930 . S
Mn36 O41 2.095 . S
Mn36 O51 2.162 . S
Mn36 O52 2.297 . S
Mn36 O60 2.385 . S
Mn36 O61 2.209 . S
Mn36 O62 2.094 . S
Mn37 O42 2.121 . S
Mn37 N44 2.257 . S
Mn37 N53 2.282 . S
Mn37 O61 2.215 . S
Mn37 O63 2.117 . S
C38 O60 1.234 . S
C38 O61 1.283 . S
C39 O51 1.281 . S
C39 O52 1.236 . S
C40 O62 1.240 . S
C40 O63 1.264 . S
O41 Mn36 2.095 . S
O41 C50 1.250 . S
O42 Mn37 2.121 . S
O42 C50 1.258 . S
C43 N44 1.326 . S
C43 C47 1.460 . S
C43 H49 0.929 . S
N44 Mn37 2.257 . S
N44 C43 1.326 . S
N44 C48 1.362 . S
C45 C46 1.258 . S
C45 C48 1.431 . S
C45 C65 1.449 . S
C46 C45 1.258 . S
C46 C47 1.477 . S
C46 H66 0.931 . S
C47 C43 1.460 . S
C47 C46 1.477 . S
C47 H67 0.930 . S
C48 N44 1.362 . S
C48 C45 1.431 . S
C48 C58 1.476 . S
H49 C43 0.929 . S
C50 O41 1.250 . S
C50 O42 1.258 . S
O51 Mn36 2.162 . S
O51 C39 1.281 . S
O52 Mn36 2.297 . S
O52 C39 1.236 . S
N53 Mn37 2.282 . S
N53 C54 1.328 . S
N53 C58 1.318 . S
C54 N53 1.328 . S
C54 C55 1.457 . S
C54 H59 0.929 . S
C55 C54 1.457 . S
C55 C56 1.291 . S
C55 H68 0.931 . S
C56 C55 1.291 . S
C56 C57 1.373 . S
C56 H69 0.929 . S
C57 C56 1.373 . S
C57 C58 1.396 . S
C57 C64 1.403 . S
C58 C48 1.476 . S
C58 N53 1.318 . S
C58 C57 1.396 . S
H59 C54 0.929 . S
O60 Mn36 2.385 . S
O60 C38 1.234 . S
O61 Mn36 2.209 . S
O61 Mn37 2.215 . S
O61 C38 1.283 . S
O62 Mn36 2.094 . S
O62 C40 1.240 . S
O63 Mn37 2.117 . S
O63 C40 1.264 . S
C64 C57 1.403 . S
C64 C65 1.399 . S
C64 H70 0.929 . S
C65 C45 1.449 . S
C65 C64 1.399 . S
C65 H71 0.930 . S
H66 C46 0.931 . S
H67 C47 0.930 . S
H68 C55 0.931 . S
H69 C56 0.929 . S
H70 C64 0.929 . S
H71 C65 0.930 . S
Mn72 O77 2.095 . S
Mn72 O87 2.162 . S
Mn72 O88 2.297 . S
Mn72 O96 2.385 . S
Mn72 O97 2.209 . S
Mn72 O98 2.094 . S
Mn73 O78 2.121 . S
Mn73 N80 2.257 . S
Mn73 N89 2.282 . S
Mn73 O97 2.215 . S
Mn73 O99 2.117 . S
C74 O96 1.234 . S
C74 O97 1.283 . S
C75 O87 1.281 . S
C75 O88 1.236 . S
C76 O98 1.240 . S
C76 O99 1.264 . S
O77 Mn72 2.095 . S
O77 C86 1.250 . S
O78 Mn73 2.121 . S
O78 C86 1.258 . S
C79 N80 1.326 . S
C79 C83 1.460 . S
C79 H85 0.929 . S
N80 Mn73 2.257 . S
N80 C79 1.326 . S
N80 C84 1.362 . S
C81 C82 1.258 . S
C81 C84 1.431 . S
C81 C101 1.449 . S
C82 C81 1.258 . S
C82 C83 1.477 . S
C82 H102 0.931 . S
C83 C79 1.460 . S
C83 C82 1.477 . S
C83 H103 0.930 . S
C84 N80 1.362 . S
C84 C81 1.431 . S
C84 C94 1.476 . S
H85 C79 0.929 . S
C86 O77 1.250 . S
C86 O78 1.258 . S
O87 Mn72 2.162 . S
O87 C75 1.281 . S
O88 Mn72 2.297 . S
O88 C75 1.236 . S
N89 Mn73 2.282 . S
N89 C90 1.328 . S
N89 C94 1.318 . S
C90 N89 1.328 . S
C90 C91 1.457 . S
C90 H95 0.929 . S
C91 C90 1.457 . S
C91 C92 1.291 . S
C91 H104 0.931 . S
C92 C91 1.291 . S
C92 C93 1.373 . S
C92 H105 0.929 . S
C93 C92 1.373 . S
C93 C94 1.396 . S
C93 C100 1.403 . S
C94 C84 1.476 . S
C94 N89 1.318 . S
C94 C93 1.396 . S
H95 C90 0.929 . S
O96 Mn72 2.385 . S
O96 C74 1.234 . S
O97 Mn72 2.209 . S
O97 Mn73 2.215 . S
O97 C74 1.283 . S
O98 Mn72 2.094 . S
O98 C76 1.240 . S
O99 Mn73 2.117 . S
O99 C76 1.264 . S
C100 C93 1.403 . S
C100 C101 1.399 . S
C100 H106 0.929 . S
C101 C81 1.449 . S
C101 C100 1.399 . S
C101 H107 0.930 . S
H102 C82 0.931 . S
H103 C83 0.930 . S
H104 C91 0.931 . S
H105 C92 0.929 . S
H106 C100 0.929 . S
H107 C101 0.930 . S
Mn108 O113 2.095 . S
Mn108 O123 2.162 . S
Mn108 O124 2.297 . S
Mn108 O132 2.385 . S
Mn108 O133 2.209 . S
Mn108 O134 2.094 . S
Mn109 O114 2.121 . S
Mn109 N116 2.257 . S
Mn109 N125 2.282 . S
Mn109 O133 2.215 . S
Mn109 O135 2.117 . S
C110 O132 1.234 . S
C110 O133 1.283 . S
C111 O123 1.281 . S
C111 O124 1.236 . S
C112 O134 1.240 . S
C112 O135 1.264 . S
O113 Mn108 2.095 . S
O113 C122 1.250 . S
O114 Mn109 2.121 . S
O114 C122 1.258 . S
C115 N116 1.326 . S
C115 C119 1.460 . S
C115 H121 0.929 . S
N116 Mn109 2.257 . S
N116 C115 1.326 . S
N116 C120 1.362 . S
C117 C118 1.258 . S
C117 C120 1.431 . S
C117 C137 1.449 . S
C118 C117 1.258 . S
C118 C119 1.477 . S
C118 H138 0.931 . S
C119 C115 1.460 . S
C119 C118 1.477 . S
C119 H139 0.930 . S
C120 N116 1.362 . S
C120 C117 1.431 . S
C120 C130 1.476 . S
H121 C115 0.929 . S
C122 O113 1.250 . S
C122 O114 1.258 . S
O123 Mn108 2.162 . S
O123 C111 1.281 . S
O124 Mn108 2.297 . S
O124 C111 1.236 . S
N125 Mn109 2.282 . S
N125 C126 1.328 . S
N125 C130 1.318 . S
C126 N125 1.328 . S
C126 C127 1.457 . S
C126 H131 0.929 . S
C127 C126 1.457 . S
C127 C128 1.291 . S
C127 H140 0.931 . S
C128 C127 1.291 . S
C128 C129 1.373 . S
C128 H141 0.929 . S
C129 C128 1.373 . S
C129 C130 1.396 . S
C129 C136 1.403 . S
C130 C120 1.476 . S
C130 N125 1.318 . S
C130 C129 1.396 . S
H131 C126 0.929 . S
O132 Mn108 2.385 . S
O132 C110 1.234 . S
O133 Mn108 2.209 . S
O133 Mn109 2.215 . S
O133 C110 1.283 . S
O134 Mn108 2.094 . S
O134 C112 1.240 . S
O135 Mn109 2.117 . S
O135 C112 1.264 . S
C136 C129 1.403 . S
C136 C137 1.399 . S
C136 H142 0.929 . S
C137 C117 1.449 . S
C137 C136 1.399 . S
C137 H143 0.930 . S
H138 C118 0.931 . S
H139 C119 0.930 . S
H140 C127 0.931 . S
H141 C128 0.929 . S
H142 C136 0.929 . S
H143 C137 0.930 . S
Mn144 O149 2.095 . S
Mn144 O159 2.162 . S
Mn144 O160 2.297 . S
Mn144 O168 2.385 . S
Mn144 O169 2.209 . S
Mn144 O170 2.094 . S
Mn145 O150 2.121 . S
Mn145 N152 2.257 . S
Mn145 N161 2.282 . S
Mn145 O169 2.215 . S
Mn145 O171 2.117 . S
C146 O168 1.234 . S
C146 O169 1.283 . S
C147 O159 1.281 . S
C147 O160 1.236 . S
C148 O170 1.240 . S
C148 O171 1.264 . S
O149 Mn144 2.095 . S
O149 C158 1.250 . S
O150 Mn145 2.121 . S
O150 C158 1.258 . S
C151 N152 1.326 . S
C151 C155 1.460 . S
C151 H157 0.929 . S
N152 Mn145 2.257 . S
N152 C151 1.326 . S
N152 C156 1.362 . S
C153 C154 1.258 . S
C153 C156 1.431 . S
C153 C173 1.449 . S
C154 C153 1.258 . S
C154 C155 1.477 . S
C154 H174 0.931 . S
C155 C151 1.460 . S
C155 C154 1.477 . S
C155 H175 0.930 . S
C156 N152 1.362 . S
C156 C153 1.431 . S
C156 C166 1.476 . S
H157 C151 0.929 . S
C158 O149 1.250 . S
C158 O150 1.258 . S
O159 Mn144 2.162 . S
O159 C147 1.281 . S
O160 Mn144 2.297 . S
O160 C147 1.236 . S
N161 Mn145 2.282 . S
N161 C162 1.328 . S
N161 C166 1.318 . S
C162 N161 1.328 . S
C162 C163 1.457 . S
C162 H167 0.929 . S
C163 C162 1.457 . S
C163 C164 1.291 . S
C163 H176 0.931 . S
C164 C163 1.291 . S
C164 C165 1.373 . S
C164 H177 0.929 . S
C165 C164 1.373 . S
C165 C166 1.396 . S
C165 C172 1.403 . S
C166 C156 1.476 . S
C166 N161 1.318 . S
C166 C165 1.396 . S
H167 C162 0.929 . S
O168 Mn144 2.385 . S
O168 C146 1.234 . S
O169 Mn144 2.209 . S
O169 Mn145 2.215 . S
O169 C146 1.283 . S
O170 Mn144 2.094 . S
O170 C148 1.240 . S
O171 Mn145 2.117 . S
O171 C148 1.264 . S
C172 C165 1.403 . S
C172 C173 1.399 . S
C172 H178 0.929 . S
C173 C153 1.449 . S
C173 C172 1.399 . S
C173 H179 0.930 . S
H174 C154 0.931 . S
H175 C155 0.930 . S
H176 C163 0.931 . S
H177 C164 0.929 . S
H178 C172 0.929 . S
H179 C173 0.930 . S
Mn180 O185 2.095 . S
Mn180 O195 2.162 . S
Mn180 O196 2.297 . S
Mn180 O204 2.385 . S
Mn180 O205 2.209 . S
Mn180 O206 2.094 . S
Mn181 O186 2.121 . S
Mn181 N188 2.257 . S
Mn181 N197 2.282 . S
Mn181 O205 2.215 . S
Mn181 O207 2.117 . S
C182 O204 1.234 . S
C182 O205 1.283 . S
C183 O195 1.281 . S
C183 O196 1.236 . S
C184 O206 1.240 . S
C184 O207 1.264 . S
O185 Mn180 2.095 . S
O185 C194 1.250 . S
O186 Mn181 2.121 . S
O186 C194 1.258 . S
C187 N188 1.326 . S
C187 C191 1.460 . S
C187 H193 0.929 . S
N188 Mn181 2.257 . S
N188 C187 1.326 . S
N188 C192 1.362 . S
C189 C190 1.258 . S
C189 C192 1.431 . S
C189 C209 1.449 . S
C190 C189 1.258 . S
C190 C191 1.477 . S
C190 H210 0.931 . S
C191 C187 1.460 . S
C191 C190 1.477 . S
C191 H211 0.930 . S
C192 N188 1.362 . S
C192 C189 1.431 . S
C192 C202 1.476 . S
H193 C187 0.929 . S
C194 O185 1.250 . S
C194 O186 1.258 . S
O195 Mn180 2.162 . S
O195 C183 1.281 . S
O196 Mn180 2.297 . S
O196 C183 1.236 . S
N197 Mn181 2.282 . S
N197 C198 1.328 . S
N197 C202 1.318 . S
C198 N197 1.328 . S
C198 C199 1.457 . S
C198 H203 0.929 . S
C199 C198 1.457 . S
C199 C200 1.291 . S
C199 H212 0.931 . S
C200 C199 1.291 . S
C200 C201 1.373 . S
C200 H213 0.929 . S
C201 C200 1.373 . S
C201 C202 1.396 . S
C201 C208 1.403 . S
C202 C192 1.476 . S
C202 N197 1.318 . S
C202 C201 1.396 . S
H203 C198 0.929 . S
O204 Mn180 2.385 . S
O204 C182 1.234 . S
O205 Mn180 2.209 . S
O205 Mn181 2.215 . S
O205 C182 1.283 . S
O206 Mn180 2.094 . S
O206 C184 1.240 . S
O207 Mn181 2.117 . S
O207 C184 1.264 . S
C208 C201 1.403 . S
C208 C209 1.399 . S
C208 H214 0.929 . S
C209 C189 1.449 . S
C209 C208 1.399 . S
C209 H215 0.930 . S
H210 C190 0.931 . S
H211 C191 0.930 . S
H212 C199 0.931 . S
H213 C200 0.929 . S
H214 C208 0.929 . S
H215 C209 0.930 . S
Mn216 O221 2.095 . S
Mn216 O231 2.162 . S
Mn216 O232 2.297 . S
Mn216 O240 2.385 . S
Mn216 O241 2.209 . S
Mn216 O242 2.094 . S
Mn217 O222 2.121 . S
Mn217 N224 2.257 . S
Mn217 N233 2.282 . S
Mn217 O241 2.215 . S
Mn217 O243 2.117 . S
C218 O240 1.234 . S
C218 O241 1.283 . S
C219 O231 1.281 . S
C219 O232 1.236 . S
C220 O242 1.240 . S
C220 O243 1.264 . S
O221 Mn216 2.095 . S
O221 C230 1.250 . S
O222 Mn217 2.121 . S
O222 C230 1.258 . S
C223 N224 1.326 . S
C223 C227 1.460 . S
C223 H229 0.929 . S
N224 Mn217 2.257 . S
N224 C223 1.326 . S
N224 C228 1.362 . S
C225 C226 1.258 . S
C225 C228 1.431 . S
C225 C245 1.449 . S
C226 C225 1.258 . S
C226 C227 1.477 . S
C226 H246 0.931 . S
C227 C223 1.460 . S
C227 C226 1.477 . S
C227 H247 0.930 . S
C228 N224 1.362 . S
C228 C225 1.431 . S
C228 C238 1.476 . S
H229 C223 0.929 . S
C230 O221 1.250 . S
C230 O222 1.258 . S
O231 Mn216 2.162 . S
O231 C219 1.281 . S
O232 Mn216 2.297 . S
O232 C219 1.236 . S
N233 Mn217 2.282 . S
N233 C234 1.328 . S
N233 C238 1.318 . S
C234 N233 1.328 . S
C234 C235 1.457 . S
C234 H239 0.929 . S
C235 C234 1.457 . S
C235 C236 1.291 . S
C235 H248 0.931 . S
C236 C235 1.291 . S
C236 C237 1.373 . S
C236 H249 0.929 . S
C237 C236 1.373 . S
C237 C238 1.396 . S
C237 C244 1.403 . S
C238 C228 1.476 . S
C238 N233 1.318 . S
C238 C237 1.396 . S
H239 C234 0.929 . S
O240 Mn216 2.385 . S
O240 C218 1.234 . S
O241 Mn216 2.209 . S
O241 Mn217 2.215 . S
O241 C218 1.283 . S
O242 Mn216 2.094 . S
O242 C220 1.240 . S
O243 Mn217 2.117 . S
O243 C220 1.264 . S
C244 C237 1.403 . S
C244 C245 1.399 . S
C244 H250 0.929 . S
C245 C225 1.449 . S
C245 C244 1.399 . S
C245 H251 0.930 . S
H246 C226 0.931 . S
H247 C227 0.930 . S
H248 C235 0.931 . S
H249 C236 0.929 . S
H250 C244 0.929 . S
H251 C245 0.930 . S
Mn252 O257 2.095 . S
Mn252 O267 2.162 . S
Mn252 O268 2.297 . S
Mn252 O276 2.385 . S
Mn252 O277 2.209 . S
Mn252 O278 2.094 . S
Mn253 O258 2.121 . S
Mn253 N260 2.257 . S
Mn253 N269 2.282 . S
Mn253 O277 2.215 . S
Mn253 O279 2.117 . S
C254 O276 1.234 . S
C254 O277 1.283 . S
C255 O267 1.281 . S
C255 O268 1.236 . S
C256 O278 1.240 . S
C256 O279 1.264 . S
O257 Mn252 2.095 . S
O257 C266 1.250 . S
O258 Mn253 2.121 . S
O258 C266 1.258 . S
C259 N260 1.326 . S
C259 C263 1.460 . S
C259 H265 0.929 . S
N260 Mn253 2.257 . S
N260 C259 1.326 . S
N260 C264 1.362 . S
C261 C262 1.258 . S
C261 C264 1.431 . S
C261 C281 1.449 . S
C262 C261 1.258 . S
C262 C263 1.477 . S
C262 H282 0.931 . S
C263 C259 1.460 . S
C263 C262 1.477 . S
C263 H283 0.930 . S
C264 N260 1.362 . S
C264 C261 1.431 . S
C264 C274 1.476 . S
H265 C259 0.929 . S
C266 O257 1.250 . S
C266 O258 1.258 . S
O267 Mn252 2.162 . S
O267 C255 1.281 . S
O268 Mn252 2.297 . S
O268 C255 1.236 . S
N269 Mn253 2.282 . S
N269 C270 1.328 . S
N269 C274 1.318 . S
C270 N269 1.328 . S
C270 C271 1.457 . S
C270 H275 0.929 . S
C271 C270 1.457 . S
C271 C272 1.291 . S
C271 H284 0.931 . S
C272 C271 1.291 . S
C272 C273 1.373 . S
C272 H285 0.929 . S
C273 C272 1.373 . S
C273 C274 1.396 . S
C273 C280 1.403 . S
C274 C264 1.476 . S
C274 N269 1.318 . S
C274 C273 1.396 . S
H275 C270 0.929 . S
O276 Mn252 2.385 . S
O276 C254 1.234 . S
O277 Mn252 2.209 . S
O277 Mn253 2.215 . S
O277 C254 1.283 . S
O278 Mn252 2.094 . S
O278 C256 1.240 . S
O279 Mn253 2.117 . S
O279 C256 1.264 . S
C280 C273 1.403 . S
C280 C281 1.399 . S
C280 H286 0.929 . S
C281 C261 1.449 . S
C281 C280 1.399 . S
C281 H287 0.930 . S
H282 C262 0.931 . S
H283 C263 0.930 . S
H284 C271 0.931 . S
H285 C272 0.929 . S
H286 C280 0.929 . S
H287 C281 0.930 . S
Mn288 O293 2.095 . S
Mn288 O303 2.162 . S
Mn288 O304 2.297 . S
Mn288 O312 2.385 . S
Mn288 O313 2.209 . S
Mn288 O314 2.094 . S
Mn289 O294 2.121 . S
Mn289 N296 2.257 . S
Mn289 N305 2.282 . S
Mn289 O313 2.215 . S
Mn289 O315 2.117 . S
C290 O312 1.234 . S
C290 O313 1.283 . S
C291 O303 1.281 . S
C291 O304 1.236 . S
C292 O314 1.240 . S
C292 O315 1.264 . S
O293 Mn288 2.095 . S
O293 C302 1.250 . S
O294 Mn289 2.121 . S
O294 C302 1.258 . S
C295 N296 1.326 . S
C295 C299 1.460 . S
C295 H301 0.929 . S
N296 Mn289 2.257 . S
N296 C295 1.326 . S
N296 C300 1.362 . S
C297 C298 1.258 . S
C297 C300 1.431 . S
C297 C317 1.449 . S
C298 C297 1.258 . S
C298 C299 1.477 . S
C298 H318 0.931 . S
C299 C295 1.460 . S
C299 C298 1.477 . S
C299 H319 0.930 . S
C300 N296 1.362 . S
C300 C297 1.431 . S
C300 C310 1.476 . S
H301 C295 0.929 . S
C302 O293 1.250 . S
C302 O294 1.258 . S
O303 Mn288 2.162 . S
O303 C291 1.281 . S
O304 Mn288 2.297 . S
O304 C291 1.236 . S
N305 Mn289 2.282 . S
N305 C306 1.328 . S
N305 C310 1.318 . S
C306 N305 1.328 . S
C306 C307 1.457 . S
C306 H311 0.929 . S
C307 C306 1.457 . S
C307 C308 1.291 . S
C307 H320 0.931 . S
C308 C307 1.291 . S
C308 C309 1.373 . S
C308 H321 0.929 . S
C309 C308 1.373 . S
C309 C310 1.396 . S
C309 C316 1.403 . S
C310 C300 1.476 . S
C310 N305 1.318 . S
C310 C309 1.396 . S
H311 C306 0.929 . S
O312 Mn288 2.385 . S
O312 C290 1.234 . S
O313 Mn288 2.209 . S
O313 Mn289 2.215 . S
O313 C290 1.283 . S
O314 Mn288 2.094 . S
O314 C292 1.240 . S
O315 Mn289 2.117 . S
O315 C292 1.264 . S
C316 C309 1.403 . S
C316 C317 1.399 . S
C316 H322 0.929 . S
C317 C297 1.449 . S
C317 C316 1.399 . S
C317 H323 0.930 . S
H318 C298 0.931 . S
H319 C299 0.930 . S
H320 C307 0.931 . S
H321 C308 0.929 . S
H322 C316 0.929 . S
H323 C317 0.930 . S
Mn324 O329 2.095 . S
Mn324 O339 2.162 . S
Mn324 O340 2.297 . S
Mn324 O348 2.385 . S
Mn324 O349 2.209 . S
Mn324 O350 2.094 . S
Mn325 O330 2.121 . S
Mn325 N332 2.257 . S
Mn325 N341 2.282 . S
Mn325 O349 2.215 . S
Mn325 O351 2.117 . S
C326 O348 1.234 . S
C326 O349 1.283 . S
C327 O339 1.281 . S
C327 O340 1.236 . S
C328 O350 1.240 . S
C328 O351 1.264 . S
O329 Mn324 2.095 . S
O329 C338 1.250 . S
O330 Mn325 2.121 . S
O330 C338 1.258 . S
C331 N332 1.326 . S
C331 C335 1.460 . S
C331 H337 0.929 . S
N332 Mn325 2.257 . S
N332 C331 1.326 . S
N332 C336 1.362 . S
C333 C334 1.258 . S
C333 C336 1.431 . S
C333 C353 1.449 . S
C334 C333 1.258 . S
C334 C335 1.477 . S
C334 H354 0.931 . S
C335 C331 1.460 . S
C335 C334 1.477 . S
C335 H355 0.930 . S
C336 N332 1.362 . S
C336 C333 1.431 . S
C336 C346 1.476 . S
H337 C331 0.929 . S
C338 O329 1.250 . S
C338 O330 1.258 . S
O339 Mn324 2.162 . S
O339 C327 1.281 . S
O340 Mn324 2.297 . S
O340 C327 1.236 . S
N341 Mn325 2.282 . S
N341 C342 1.328 . S
N341 C346 1.318 . S
C342 N341 1.328 . S
C342 C343 1.457 . S
C342 H347 0.929 . S
C343 C342 1.457 . S
C343 C344 1.291 . S
C343 H356 0.931 . S
C344 C343 1.291 . S
C344 C345 1.373 . S
C344 H357 0.929 . S
C345 C344 1.373 . S
C345 C346 1.396 . S
C345 C352 1.403 . S
C346 C336 1.476 . S
C346 N341 1.318 . S
C346 C345 1.396 . S
H347 C342 0.929 . S
O348 Mn324 2.385 . S
O348 C326 1.234 . S
O349 Mn324 2.209 . S
O349 Mn325 2.215 . S
O349 C326 1.283 . S
O350 Mn324 2.094 . S
O350 C328 1.240 . S
O351 Mn325 2.117 . S
O351 C328 1.264 . S
C352 C345 1.403 . S
C352 C353 1.399 . S
C352 H358 0.929 . S
C353 C333 1.449 . S
C353 C352 1.399 . S
C353 H359 0.930 . S
H354 C334 0.931 . S
H355 C335 0.930 . S
H356 C343 0.931 . S
H357 C344 0.929 . S
H358 C352 0.929 . S
H359 C353 0.930 . S
Mn360 O365 2.095 . S
Mn360 O375 2.162 . S
Mn360 O376 2.297 . S
Mn360 O384 2.385 . S
Mn360 O385 2.209 . S
Mn360 O386 2.094 . S
Mn361 O366 2.121 . S
Mn361 N368 2.257 . S
Mn361 N377 2.282 . S
Mn361 O385 2.215 . S
Mn361 O387 2.117 . S
C362 O384 1.234 . S
C362 O385 1.283 . S
C363 O375 1.281 . S
C363 O376 1.236 . S
C364 O386 1.240 . S
C364 O387 1.264 . S
O365 Mn360 2.095 . S
O365 C374 1.250 . S
O366 Mn361 2.121 . S
O366 C374 1.258 . S
C367 N368 1.326 . S
C367 C371 1.460 . S
C367 H373 0.929 . S
N368 Mn361 2.257 . S
N368 C367 1.326 . S
N368 C372 1.362 . S
C369 C370 1.258 . S
C369 C372 1.431 . S
C369 C389 1.449 . S
C370 C369 1.258 . S
C370 C371 1.477 . S
C370 H390 0.931 . S
C371 C367 1.460 . S
C371 C370 1.477 . S
C371 H391 0.930 . S
C372 N368 1.362 . S
C372 C369 1.431 . S
C372 C382 1.476 . S
H373 C367 0.929 . S
C374 O365 1.250 . S
C374 O366 1.258 . S
O375 Mn360 2.162 . S
O375 C363 1.281 . S
O376 Mn360 2.297 . S
O376 C363 1.236 . S
N377 Mn361 2.282 . S
N377 C378 1.328 . S
N377 C382 1.318 . S
C378 N377 1.328 . S
C378 C379 1.457 . S
C378 H383 0.929 . S
C379 C378 1.457 . S
C379 C380 1.291 . S
C379 H392 0.931 . S
C380 C379 1.291 . S
C380 C381 1.373 . S
C380 H393 0.929 . S
C381 C380 1.373 . S
C381 C382 1.396 . S
C381 C388 1.403 . S
C382 C372 1.476 . S
C382 N377 1.318 . S
C382 C381 1.396 . S
H383 C378 0.929 . S
O384 Mn360 2.385 . S
O384 C362 1.234 . S
O385 Mn360 2.209 . S
O385 Mn361 2.215 . S
O385 C362 1.283 . S
O386 Mn360 2.094 . S
O386 C364 1.240 . S
O387 Mn361 2.117 . S
O387 C364 1.264 . S
C388 C381 1.403 . S
C388 C389 1.399 . S
C388 H394 0.929 . S
C389 C369 1.449 . S
C389 C388 1.399 . S
C389 H395 0.930 . S
H390 C370 0.931 . S
H391 C371 0.930 . S
H392 C379 0.931 . S
H393 C380 0.929 . S
H394 C388 0.929 . S
H395 C389 0.930 . S
Mn396 O401 2.095 . S
Mn396 O411 2.162 . S
Mn396 O412 2.297 . S
Mn396 O420 2.385 . S
Mn396 O421 2.209 . S
Mn396 O422 2.094 . S
Mn397 O402 2.121 . S
Mn397 N404 2.257 . S
Mn397 N413 2.282 . S
Mn397 O421 2.215 . S
Mn397 O423 2.117 . S
C398 O420 1.234 . S
C398 O421 1.283 . S
C399 O411 1.281 . S
C399 O412 1.236 . S
C400 O422 1.240 . S
C400 O423 1.264 . S
O401 Mn396 2.095 . S
O401 C410 1.250 . S
O402 Mn397 2.121 . S
O402 C410 1.258 . S
C403 N404 1.326 . S
C403 C407 1.460 . S
C403 H409 0.929 . S
N404 Mn397 2.257 . S
N404 C403 1.326 . S
N404 C408 1.362 . S
C405 C406 1.258 . S
C405 C408 1.431 . S
C405 C425 1.449 . S
C406 C405 1.258 . S
C406 C407 1.477 . S
C406 H426 0.931 . S
C407 C403 1.460 . S
C407 C406 1.477 . S
C407 H427 0.930 . S
C408 N404 1.362 . S
C408 C405 1.431 . S
C408 C418 1.476 . S
H409 C403 0.929 . S
C410 O401 1.250 . S
C410 O402 1.258 . S
O411 Mn396 2.162 . S
O411 C399 1.281 . S
O412 Mn396 2.297 . S
O412 C399 1.236 . S
N413 Mn397 2.282 . S
N413 C414 1.328 . S
N413 C418 1.318 . S
C414 N413 1.328 . S
C414 C415 1.457 . S
C414 H419 0.929 . S
C415 C414 1.457 . S
C415 C416 1.291 . S
C415 H428 0.931 . S
C416 C415 1.291 . S
C416 C417 1.373 . S
C416 H429 0.929 . S
C417 C416 1.373 . S
C417 C418 1.396 . S
C417 C424 1.403 . S
C418 C408 1.476 . S
C418 N413 1.318 . S
C418 C417 1.396 . S
H419 C414 0.929 . S
O420 Mn396 2.385 . S
O420 C398 1.234 . S
O421 Mn396 2.209 . S
O421 Mn397 2.215 . S
O421 C398 1.283 . S
O422 Mn396 2.094 . S
O422 C400 1.240 . S
O423 Mn397 2.117 . S
O423 C400 1.264 . S
C424 C417 1.403 . S
C424 C425 1.399 . S
C424 H430 0.929 . S
C425 C405 1.449 . S
C425 C424 1.399 . S
C425 H431 0.930 . S
H426 C406 0.931 . S
H427 C407 0.930 . S
H428 C415 0.931 . S
H429 C416 0.929 . S
H430 C424 0.929 . S
H431 C425 0.930 . S
Mn432 O437 2.095 . S
Mn432 O447 2.162 . S
Mn432 O448 2.297 . S
Mn432 O456 2.385 . S
Mn432 O457 2.209 . S
Mn432 O458 2.094 . S
Mn433 O438 2.121 . S
Mn433 N440 2.257 . S
Mn433 N449 2.282 . S
Mn433 O457 2.215 . S
Mn433 O459 2.117 . S
C434 O456 1.234 . S
C434 O457 1.283 . S
C435 O447 1.281 . S
C435 O448 1.236 . S
C436 O458 1.240 . S
C436 O459 1.264 . S
O437 Mn432 2.095 . S
O437 C446 1.250 . S
O438 Mn433 2.121 . S
O438 C446 1.258 . S
C439 N440 1.326 . S
C439 C443 1.460 . S
C439 H445 0.929 . S
N440 Mn433 2.257 . S
N440 C439 1.326 . S
N440 C444 1.362 . S
C441 C442 1.258 . S
C441 C444 1.431 . S
C441 C461 1.449 . S
C442 C441 1.258 . S
C442 C443 1.477 . S
C442 H462 0.931 . S
C443 C439 1.460 . S
C443 C442 1.477 . S
C443 H463 0.930 . S
C444 N440 1.362 . S
C444 C441 1.431 . S
C444 C454 1.476 . S
H445 C439 0.929 . S
C446 O437 1.250 . S
C446 O438 1.258 . S
O447 Mn432 2.162 . S
O447 C435 1.281 . S
O448 Mn432 2.297 . S
O448 C435 1.236 . S
N449 Mn433 2.282 . S
N449 C450 1.328 . S
N449 C454 1.318 . S
C450 N449 1.328 . S
C450 C451 1.457 . S
C450 H455 0.929 . S
C451 C450 1.457 . S
C451 C452 1.291 . S
C451 H464 0.931 . S
C452 C451 1.291 . S
C452 C453 1.373 . S
C452 H465 0.929 . S
C453 C452 1.373 . S
C453 C454 1.396 . S
C453 C460 1.403 . S
C454 C444 1.476 . S
C454 N449 1.318 . S
C454 C453 1.396 . S
H455 C450 0.929 . S
O456 Mn432 2.385 . S
O456 C434 1.234 . S
O457 Mn432 2.209 . S
O457 Mn433 2.215 . S
O457 C434 1.283 . S
O458 Mn432 2.094 . S
O458 C436 1.240 . S
O459 Mn433 2.117 . S
O459 C436 1.264 . S
C460 C453 1.403 . S
C460 C461 1.399 . S
C460 H466 0.929 . S
C461 C441 1.449 . S
C461 C460 1.399 . S
C461 H467 0.930 . S
H462 C442 0.931 . S
H463 C443 0.930 . S
H464 C451 0.931 . S
H465 C452 0.929 . S
H466 C460 0.929 . S
H467 C461 0.930 . S
Mn468 O473 2.095 . S
Mn468 O483 2.162 . S
Mn468 O484 2.297 . S
Mn468 O492 2.385 . S
Mn468 O493 2.209 . S
Mn468 O494 2.094 . S
Mn469 O474 2.121 . S
Mn469 N476 2.257 . S
Mn469 N485 2.282 . S
Mn469 O493 2.215 . S
Mn469 O495 2.117 . S
C470 O492 1.234 . S
C470 O493 1.283 . S
C471 O483 1.281 . S
C471 O484 1.236 . S
C472 O494 1.240 . S
C472 O495 1.264 . S
O473 Mn468 2.095 . S
O473 C482 1.250 . S
O474 Mn469 2.121 . S
O474 C482 1.258 . S
C475 N476 1.326 . S
C475 C479 1.460 . S
C475 H481 0.929 . S
N476 Mn469 2.257 . S
N476 C475 1.326 . S
N476 C480 1.362 . S
C477 C478 1.258 . S
C477 C480 1.431 . S
C477 C497 1.449 . S
C478 C477 1.258 . S
C478 C479 1.477 . S
C478 H498 0.931 . S
C479 C475 1.460 . S
C479 C478 1.477 . S
C479 H499 0.930 . S
C480 N476 1.362 . S
C480 C477 1.431 . S
C480 C490 1.476 . S
H481 C475 0.929 . S
C482 O473 1.250 . S
C482 O474 1.258 . S
O483 Mn468 2.162 . S
O483 C471 1.281 . S
O484 Mn468 2.297 . S
O484 C471 1.236 . S
N485 Mn469 2.282 . S
N485 C486 1.328 . S
N485 C490 1.318 . S
C486 N485 1.328 . S
C486 C487 1.457 . S
C486 H491 0.929 . S
C487 C486 1.457 . S
C487 C488 1.291 . S
C487 H500 0.931 . S
C488 C487 1.291 . S
C488 C489 1.373 . S
C488 H501 0.929 . S
C489 C488 1.373 . S
C489 C490 1.396 . S
C489 C496 1.403 . S
C490 C480 1.476 . S
C490 N485 1.318 . S
C490 C489 1.396 . S
H491 C486 0.929 . S
O492 Mn468 2.385 . S
O492 C470 1.234 . S
O493 Mn468 2.209 . S
O493 Mn469 2.215 . S
O493 C470 1.283 . S
O494 Mn468 2.094 . S
O494 C472 1.240 . S
O495 Mn469 2.117 . S
O495 C472 1.264 . S
C496 C489 1.403 . S
C496 C497 1.399 . S
C496 H502 0.929 . S
C497 C477 1.449 . S
C497 C496 1.399 . S
C497 H503 0.930 . S
H498 C478 0.931 . S
H499 C479 0.930 . S
H500 C487 0.931 . S
H501 C488 0.929 . S
H502 C496 0.929 . S
H503 C497 0.930 . S
Mn504 O509 2.095 . S
Mn504 O519 2.162 . S
Mn504 O520 2.297 . S
Mn504 O528 2.385 . S
Mn504 O529 2.209 . S
Mn504 O530 2.094 . S
Mn505 O510 2.121 . S
Mn505 N512 2.257 . S
Mn505 N521 2.282 . S
Mn505 O529 2.215 . S
Mn505 O531 2.117 . S
C506 O528 1.234 . S
C506 O529 1.283 . S
C507 O519 1.281 . S
C507 O520 1.236 . S
C508 O530 1.240 . S
C508 O531 1.264 . S
O509 Mn504 2.095 . S
O509 C518 1.250 . S
O510 Mn505 2.121 . S
O510 C518 1.258 . S
C511 N512 1.326 . S
C511 C515 1.460 . S
C511 H517 0.929 . S
N512 Mn505 2.257 . S
N512 C511 1.326 . S
N512 C516 1.362 . S
C513 C514 1.258 . S
C513 C516 1.431 . S
C513 C533 1.449 . S
C514 C513 1.258 . S
C514 C515 1.477 . S
C514 H534 0.931 . S
C515 C511 1.460 . S
C515 C514 1.477 . S
C515 H535 0.930 . S
C516 N512 1.362 . S
C516 C513 1.431 . S
C516 C526 1.476 . S
H517 C511 0.929 . S
C518 O509 1.250 . S
C518 O510 1.258 . S
O519 Mn504 2.162 . S
O519 C507 1.281 . S
O520 Mn504 2.297 . S
O520 C507 1.236 . S
N521 Mn505 2.282 . S
N521 C522 1.328 . S
N521 C526 1.318 . S
C522 N521 1.328 . S
C522 C523 1.457 . S
C522 H527 0.929 . S
C523 C522 1.457 . S
C523 C524 1.291 . S
C523 H536 0.931 . S
C524 C523 1.291 . S
C524 C525 1.373 . S
C524 H537 0.929 . S
C525 C524 1.373 . S
C525 C526 1.396 . S
C525 C532 1.403 . S
C526 C516 1.476 . S
C526 N521 1.318 . S
C526 C525 1.396 . S
H527 C522 0.929 . S
O528 Mn504 2.385 . S
O528 C506 1.234 . S
O529 Mn504 2.209 . S
O529 Mn505 2.215 . S
O529 C506 1.283 . S
O530 Mn504 2.094 . S
O530 C508 1.240 . S
O531 Mn505 2.117 . S
O531 C508 1.264 . S
C532 C525 1.403 . S
C532 C533 1.399 . S
C532 H538 0.929 . S
C533 C513 1.449 . S
C533 C532 1.399 . S
C533 H539 0.930 . S
H534 C514 0.931 . S
H535 C515 0.930 . S
H536 C523 0.931 . S
H537 C524 0.929 . S
H538 C532 0.929 . S
H539 C533 0.930 . S
Mn540 O545 2.095 . S
Mn540 O555 2.162 . S
Mn540 O556 2.297 . S
Mn540 O564 2.385 . S
Mn540 O565 2.209 . S
Mn540 O566 2.094 . S
Mn541 O546 2.121 . S
Mn541 N548 2.257 . S
Mn541 N557 2.282 . S
Mn541 O565 2.215 . S
Mn541 O567 2.117 . S
C542 O564 1.234 . S
C542 O565 1.283 . S
C543 O555 1.281 . S
C543 O556 1.236 . S
C544 O566 1.240 . S
C544 O567 1.264 . S
O545 Mn540 2.095 . S
O545 C554 1.250 . S
O546 Mn541 2.121 . S
O546 C554 1.258 . S
C547 N548 1.326 . S
C547 C551 1.460 . S
C547 H553 0.929 . S
N548 Mn541 2.257 . S
N548 C547 1.326 . S
N548 C552 1.362 . S
C549 C550 1.258 . S
C549 C552 1.431 . S
C549 C569 1.449 . S
C550 C549 1.258 . S
C550 C551 1.477 . S
C550 H570 0.931 . S
C551 C547 1.460 . S
C551 C550 1.477 . S
C551 H571 0.930 . S
C552 N548 1.362 . S
C552 C549 1.431 . S
C552 C562 1.476 . S
H553 C547 0.929 . S
C554 O545 1.250 . S
C554 O546 1.258 . S
O555 Mn540 2.162 . S
O555 C543 1.281 . S
O556 Mn540 2.297 . S
O556 C543 1.236 . S
N557 Mn541 2.282 . S
N557 C558 1.328 . S
N557 C562 1.318 . S
C558 N557 1.328 . S
C558 C559 1.457 . S
C558 H563 0.929 . S
C559 C558 1.457 . S
C559 C560 1.291 . S
C559 H572 0.931 . S
C560 C559 1.291 . S
C560 C561 1.373 . S
C560 H573 0.929 . S
C561 C560 1.373 . S
C561 C562 1.396 . S
C561 C568 1.403 . S
C562 C552 1.476 . S
C562 N557 1.318 . S
C562 C561 1.396 . S
H563 C558 0.929 . S
O564 Mn540 2.385 . S
O564 C542 1.234 . S
O565 Mn540 2.209 . S
O565 Mn541 2.215 . S
O565 C542 1.283 . S
O566 Mn540 2.094 . S
O566 C544 1.240 . S
O567 Mn541 2.117 . S
O567 C544 1.264 . S
C568 C561 1.403 . S
C568 C569 1.399 . S
C568 H574 0.929 . S
C569 C549 1.449 . S
C569 C568 1.399 . S
C569 H575 0.930 . S
H570 C550 0.931 . S
H571 C551 0.930 . S
H572 C559 0.931 . S
H573 C560 0.929 . S
H574 C568 0.929 . S
H575 C569 0.930 . S
Mn576 O581 2.095 . S
Mn576 O591 2.162 . S
Mn576 O592 2.297 . S
Mn576 O600 2.385 . S
Mn576 O601 2.209 . S
Mn576 O602 2.094 . S
Mn577 O582 2.121 . S
Mn577 N584 2.257 . S
Mn577 N593 2.282 . S
Mn577 O601 2.215 . S
Mn577 O603 2.117 . S
C578 O600 1.234 . S
C578 O601 1.283 . S
C579 O591 1.281 . S
C579 O592 1.236 . S
C580 O602 1.240 . S
C580 O603 1.264 . S
O581 Mn576 2.095 . S
O581 C590 1.250 . S
O582 Mn577 2.121 . S
O582 C590 1.258 . S
C583 N584 1.326 . S
C583 C587 1.460 . S
C583 H589 0.929 . S
N584 Mn577 2.257 . S
N584 C583 1.326 . S
N584 C588 1.362 . S
C585 C586 1.258 . S
C585 C588 1.431 . S
C585 C605 1.449 . S
C586 C585 1.258 . S
C586 C587 1.477 . S
C586 H606 0.931 . S
C587 C583 1.460 . S
C587 C586 1.477 . S
C587 H607 0.930 . S
C588 N584 1.362 . S
C588 C585 1.431 . S
C588 C598 1.476 . S
H589 C583 0.929 . S
C590 O581 1.250 . S
C590 O582 1.258 . S
O591 Mn576 2.162 . S
O591 C579 1.281 . S
O592 Mn576 2.297 . S
O592 C579 1.236 . S
N593 Mn577 2.282 . S
N593 C594 1.328 . S
N593 C598 1.318 . S
C594 N593 1.328 . S
C594 C595 1.457 . S
C594 H599 0.929 . S
C595 C594 1.457 . S
C595 C596 1.291 . S
C595 H608 0.931 . S
C596 C595 1.291 . S
C596 C597 1.373 . S
C596 H609 0.929 . S
C597 C596 1.373 . S
C597 C598 1.396 . S
C597 C604 1.403 . S
C598 C588 1.476 . S
C598 N593 1.318 . S
C598 C597 1.396 . S
H599 C594 0.929 . S
O600 Mn576 2.385 . S
O600 C578 1.234 . S
O601 Mn576 2.209 . S
O601 Mn577 2.215 . S
O601 C578 1.283 . S
O602 Mn576 2.094 . S
O602 C580 1.240 . S
O603 Mn577 2.117 . S
O603 C580 1.264 . S
C604 C597 1.403 . S
C604 C605 1.399 . S
C604 H610 0.929 . S
C605 C585 1.449 . S
C605 C604 1.399 . S
C605 H611 0.930 . S
H606 C586 0.931 . S
H607 C587 0.930 . S
H608 C595 0.931 . S
H609 C596 0.929 . S
H610 C604 0.929 . S
H611 C605 0.930 . S
Mn612 O617 2.095 . S
Mn612 O627 2.162 . S
Mn612 O628 2.297 . S
Mn612 O636 2.385 . S
Mn612 O637 2.209 . S
Mn612 O638 2.094 . S
Mn613 O618 2.121 . S
Mn613 N620 2.257 . S
Mn613 N629 2.282 . S
Mn613 O637 2.215 . S
Mn613 O639 2.117 . S
C614 O636 1.234 . S
C614 O637 1.283 . S
C615 O627 1.281 . S
C615 O628 1.236 . S
C616 O638 1.240 . S
C616 O639 1.264 . S
O617 Mn612 2.095 . S
O617 C626 1.250 . S
O618 Mn613 2.121 . S
O618 C626 1.258 . S
C619 N620 1.326 . S
C619 C623 1.460 . S
C619 H625 0.929 . S
N620 Mn613 2.257 . S
N620 C619 1.326 . S
N620 C624 1.362 . S
C621 C622 1.258 . S
C621 C624 1.431 . S
C621 C641 1.449 . S
C622 C621 1.258 . S
C622 C623 1.477 . S
C622 H642 0.931 . S
C623 C619 1.460 . S
C623 C622 1.477 . S
C623 H643 0.930 . S
C624 N620 1.362 . S
C624 C621 1.431 . S
C624 C634 1.476 . S
H625 C619 0.929 . S
C626 O617 1.250 . S
C626 O618 1.258 . S
O627 Mn612 2.162 . S
O627 C615 1.281 . S
O628 Mn612 2.297 . S
O628 C615 1.236 . S
N629 Mn613 2.282 . S
N629 C630 1.328 . S
N629 C634 1.318 . S
C630 N629 1.328 . S
C630 C631 1.457 . S
C630 H635 0.929 . S
C631 C630 1.457 . S
C631 C632 1.291 . S
C631 H644 0.931 . S
C632 C631 1.291 . S
C632 C633 1.373 . S
C632 H645 0.929 . S
C633 C632 1.373 . S
C633 C634 1.396 . S
C633 C640 1.403 . S
C634 C624 1.476 . S
C634 N629 1.318 . S
C634 C633 1.396 . S
H635 C630 0.929 . S
O636 Mn612 2.385 . S
O636 C614 1.234 . S
O637 Mn612 2.209 . S
O637 Mn613 2.215 . S
O637 C614 1.283 . S
O638 Mn612 2.094 . S
O638 C616 1.240 . S
O639 Mn613 2.117 . S
O639 C616 1.264 . S
C640 C633 1.403 . S
C640 C641 1.399 . S
C640 H646 0.929 . S
C641 C621 1.449 . S
C641 C640 1.399 . S
C641 H647 0.930 . S
H642 C622 0.931 . S
H643 C623 0.930 . S
H644 C631 0.931 . S
H645 C632 0.929 . S
H646 C640 0.929 . S
H647 C641 0.930 . S
Mn648 O653 2.095 . S
Mn648 O663 2.162 . S
Mn648 O664 2.297 . S
Mn648 O672 2.385 . S
Mn648 O673 2.209 . S
Mn648 O674 2.094 . S
Mn649 O654 2.121 . S
Mn649 N656 2.257 . S
Mn649 N665 2.282 . S
Mn649 O673 2.215 . S
Mn649 O675 2.117 . S
C650 O672 1.234 . S
C650 O673 1.283 . S
C651 O663 1.281 . S
C651 O664 1.236 . S
C652 O674 1.240 . S
C652 O675 1.264 . S
O653 Mn648 2.095 . S
O653 C662 1.250 . S
O654 Mn649 2.121 . S
O654 C662 1.258 . S
C655 N656 1.326 . S
C655 C659 1.460 . S
C655 H661 0.929 . S
N656 Mn649 2.257 . S
N656 C655 1.326 . S
N656 C660 1.362 . S
C657 C658 1.258 . S
C657 C660 1.431 . S
C657 C677 1.449 . S
C658 C657 1.258 . S
C658 C659 1.477 . S
C658 H678 0.931 . S
C659 C655 1.460 . S
C659 C658 1.477 . S
C659 H679 0.930 . S
C660 N656 1.362 . S
C660 C657 1.431 . S
C660 C670 1.476 . S
H661 C655 0.929 . S
C662 O653 1.250 . S
C662 O654 1.258 . S
O663 Mn648 2.162 . S
O663 C651 1.281 . S
O664 Mn648 2.297 . S
O664 C651 1.236 . S
N665 Mn649 2.282 . S
N665 C666 1.328 . S
N665 C670 1.318 . S
C666 N665 1.328 . S
C666 C667 1.457 . S
C666 H671 0.929 . S
C667 C666 1.457 . S
C667 C668 1.291 . S
C667 H680 0.931 . S
C668 C667 1.291 . S
C668 C669 1.373 . S
C668 H681 0.929 . S
C669 C668 1.373 . S
C669 C670 1.396 . S
C669 C676 1.403 . S
C670 C660 1.476 . S
C670 N665 1.318 . S
C670 C669 1.396 . S
H671 C666 0.929 . S
O672 Mn648 2.385 . S
O672 C650 1.234 . S
O673 Mn648 2.209 . S
O673 Mn649 2.215 . S
O673 C650 1.283 . S
O674 Mn648 2.094 . S
O674 C652 1.240 . S
O675 Mn649 2.117 . S
O675 C652 1.264 . S
C676 C669 1.403 . S
C676 C677 1.399 . S
C676 H682 0.929 . S
C677 C657 1.449 . S
C677 C676 1.399 . S
C677 H683 0.930 . S
H678 C658 0.931 . S
H679 C659 0.930 . S
H680 C667 0.931 . S
H681 C668 0.929 . S
H682 C676 0.929 . S
H683 C677 0.930 . S
Mn684 O689 2.095 . S
Mn684 O699 2.162 . S
Mn684 O700 2.297 . S
Mn684 O708 2.385 . S
Mn684 O709 2.209 . S
Mn684 O710 2.094 . S
Mn685 O690 2.121 . S
Mn685 N692 2.257 . S
Mn685 N701 2.282 . S
Mn685 O709 2.215 . S
Mn685 O711 2.117 . S
C686 O708 1.234 . S
C686 O709 1.283 . S
C687 O699 1.281 . S
C687 O700 1.236 . S
C688 O710 1.240 . S
C688 O711 1.264 . S
O689 Mn684 2.095 . S
O689 C698 1.250 . S
O690 Mn685 2.121 . S
O690 C698 1.258 . S
C691 N692 1.326 . S
C691 C695 1.460 . S
C691 H697 0.929 . S
N692 Mn685 2.257 . S
N692 C691 1.326 . S
N692 C696 1.362 . S
C693 C694 1.258 . S
C693 C696 1.431 . S
C693 C713 1.449 . S
C694 C693 1.258 . S
C694 C695 1.477 . S
C694 H714 0.931 . S
C695 C691 1.460 . S
C695 C694 1.477 . S
C695 H715 0.930 . S
C696 N692 1.362 . S
C696 C693 1.431 . S
C696 C706 1.476 . S
H697 C691 0.929 . S
C698 O689 1.250 . S
C698 O690 1.258 . S
O699 Mn684 2.162 . S
O699 C687 1.281 . S
O700 Mn684 2.297 . S
O700 C687 1.236 . S
N701 Mn685 2.282 . S
N701 C702 1.328 . S
N701 C706 1.318 . S
C702 N701 1.328 . S
C702 C703 1.457 . S
C702 H707 0.929 . S
C703 C702 1.457 . S
C703 C704 1.291 . S
C703 H716 0.931 . S
C704 C703 1.291 . S
C704 C705 1.373 . S
C704 H717 0.929 . S
C705 C704 1.373 . S
C705 C706 1.396 . S
C705 C712 1.403 . S
C706 C696 1.476 . S
C706 N701 1.318 . S
C706 C705 1.396 . S
H707 C702 0.929 . S
O708 Mn684 2.385 . S
O708 C686 1.234 . S
O709 Mn684 2.209 . S
O709 Mn685 2.215 . S
O709 C686 1.283 . S
O710 Mn684 2.094 . S
O710 C688 1.240 . S
O711 Mn685 2.117 . S
O711 C688 1.264 . S
C712 C705 1.403 . S
C712 C713 1.399 . S
C712 H718 0.929 . S
C713 C693 1.449 . S
C713 C712 1.399 . S
C713 H719 0.930 . S
H714 C694 0.931 . S
H715 C695 0.930 . S
H716 C703 0.931 . S
H717 C704 0.929 . S
H718 C712 0.929 . S
H719 C713 0.930 . S
Mn720 O725 2.095 . S
Mn720 O735 2.162 . S
Mn720 O736 2.297 . S
Mn720 O744 2.385 . S
Mn720 O745 2.209 . S
Mn720 O746 2.094 . S
Mn721 O726 2.121 . S
Mn721 N728 2.257 . S
Mn721 N737 2.282 . S
Mn721 O745 2.215 . S
Mn721 O747 2.117 . S
C722 O744 1.234 . S
C722 O745 1.283 . S
C723 O735 1.281 . S
C723 O736 1.236 . S
C724 O746 1.240 . S
C724 O747 1.264 . S
O725 Mn720 2.095 . S
O725 C734 1.250 . S
O726 Mn721 2.121 . S
O726 C734 1.258 . S
C727 N728 1.326 . S
C727 C731 1.460 . S
C727 H733 0.929 . S
N728 Mn721 2.257 . S
N728 C727 1.326 . S
N728 C732 1.362 . S
C729 C730 1.258 . S
C729 C732 1.431 . S
C729 C749 1.449 . S
C730 C729 1.258 . S
C730 C731 1.477 . S
C730 H750 0.931 . S
C731 C727 1.460 . S
C731 C730 1.477 . S
C731 H751 0.930 . S
C732 N728 1.362 . S
C732 C729 1.431 . S
C732 C742 1.476 . S
H733 C727 0.929 . S
C734 O725 1.250 . S
C734 O726 1.258 . S
O735 Mn720 2.162 . S
O735 C723 1.281 . S
O736 Mn720 2.297 . S
O736 C723 1.236 . S
N737 Mn721 2.282 . S
N737 C738 1.328 . S
N737 C742 1.318 . S
C738 N737 1.328 . S
C738 C739 1.457 . S
C738 H743 0.929 . S
C739 C738 1.457 . S
C739 C740 1.291 . S
C739 H752 0.931 . S
C740 C739 1.291 . S
C740 C741 1.373 . S
C740 H753 0.929 . S
C741 C740 1.373 . S
C741 C742 1.396 . S
C741 C748 1.403 . S
C742 C732 1.476 . S
C742 N737 1.318 . S
C742 C741 1.396 . S
H743 C738 0.929 . S
O744 Mn720 2.385 . S
O744 C722 1.234 . S
O745 Mn720 2.209 . S
O745 Mn721 2.215 . S
O745 C722 1.283 . S
O746 Mn720 2.094 . S
O746 C724 1.240 . S
O747 Mn721 2.117 . S
O747 C724 1.264 . S
C748 C741 1.403 . S
C748 C749 1.399 . S
C748 H754 0.929 . S
C749 C729 1.449 . S
C749 C748 1.399 . S
C749 H755 0.930 . S
H750 C730 0.931 . S
H751 C731 0.930 . S
H752 C739 0.931 . S
H753 C740 0.929 . S
H754 C748 0.929 . S
H755 C749 0.930 . S
Mn756 O761 2.095 . S
Mn756 O771 2.162 . S
Mn756 O772 2.297 . S
Mn756 O780 2.385 . S
Mn756 O781 2.209 . S
Mn756 O782 2.094 . S
Mn757 O762 2.121 . S
Mn757 N764 2.257 . S
Mn757 N773 2.282 . S
Mn757 O781 2.215 . S
Mn757 O783 2.117 . S
C758 O780 1.234 . S
C758 O781 1.283 . S
C759 O771 1.281 . S
C759 O772 1.236 . S
C760 O782 1.240 . S
C760 O783 1.264 . S
O761 Mn756 2.095 . S
O761 C770 1.250 . S
O762 Mn757 2.121 . S
O762 C770 1.258 . S
C763 N764 1.326 . S
C763 C767 1.460 . S
C763 H769 0.929 . S
N764 Mn757 2.257 . S
N764 C763 1.326 . S
N764 C768 1.362 . S
C765 C766 1.258 . S
C765 C768 1.431 . S
C765 C785 1.449 . S
C766 C765 1.258 . S
C766 C767 1.477 . S
C766 H786 0.931 . S
C767 C763 1.460 . S
C767 C766 1.477 . S
C767 H787 0.930 . S
C768 N764 1.362 . S
C768 C765 1.431 . S
C768 C778 1.476 . S
H769 C763 0.929 . S
C770 O761 1.250 . S
C770 O762 1.258 . S
O771 Mn756 2.162 . S
O771 C759 1.281 . S
O772 Mn756 2.297 . S
O772 C759 1.236 . S
N773 Mn757 2.282 . S
N773 C774 1.328 . S
N773 C778 1.318 . S
C774 N773 1.328 . S
C774 C775 1.457 . S
C774 H779 0.929 . S
C775 C774 1.457 . S
C775 C776 1.291 . S
C775 H788 0.931 . S
C776 C775 1.291 . S
C776 C777 1.373 . S
C776 H789 0.929 . S
C777 C776 1.373 . S
C777 C778 1.396 . S
C777 C784 1.403 . S
C778 C768 1.476 . S
C778 N773 1.318 . S
C778 C777 1.396 . S
H779 C774 0.929 . S
O780 Mn756 2.385 . S
O780 C758 1.234 . S
O781 Mn756 2.209 . S
O781 Mn757 2.215 . S
O781 C758 1.283 . S
O782 Mn756 2.094 . S
O782 C760 1.240 . S
O783 Mn757 2.117 . S
O783 C760 1.264 . S
C784 C777 1.403 . S
C784 C785 1.399 . S
C784 H790 0.929 . S
C785 C765 1.449 . S
C785 C784 1.399 . S
C785 H791 0.930 . S
H786 C766 0.931 . S
H787 C767 0.930 . S
H788 C775 0.931 . S
H789 C776 0.929 . S
H790 C784 0.929 . S
H791 C785 0.930 . S
Mn792 O797 2.095 . S
Mn792 O807 2.162 . S
Mn792 O808 2.297 . S
Mn792 O816 2.385 . S
Mn792 O817 2.209 . S
Mn792 O818 2.094 . S
Mn793 O798 2.121 . S
Mn793 N800 2.257 . S
Mn793 N809 2.282 . S
Mn793 O817 2.215 . S
Mn793 O819 2.117 . S
C794 O816 1.234 . S
C794 O817 1.283 . S
C795 O807 1.281 . S
C795 O808 1.236 . S
C796 O818 1.240 . S
C796 O819 1.264 . S
O797 Mn792 2.095 . S
O797 C806 1.250 . S
O798 Mn793 2.121 . S
O798 C806 1.258 . S
C799 N800 1.326 . S
C799 C803 1.460 . S
C799 H805 0.929 . S
N800 Mn793 2.257 . S
N800 C799 1.326 . S
N800 C804 1.362 . S
C801 C802 1.258 . S
C801 C804 1.431 . S
C801 C821 1.449 . S
C802 C801 1.258 . S
C802 C803 1.477 . S
C802 H822 0.931 . S
C803 C799 1.460 . S
C803 C802 1.477 . S
C803 H823 0.930 . S
C804 N800 1.362 . S
C804 C801 1.431 . S
C804 C814 1.476 . S
H805 C799 0.929 . S
C806 O797 1.250 . S
C806 O798 1.258 . S
O807 Mn792 2.162 . S
O807 C795 1.281 . S
O808 Mn792 2.297 . S
O808 C795 1.236 . S
N809 Mn793 2.282 . S
N809 C810 1.328 . S
N809 C814 1.318 . S
C810 N809 1.328 . S
C810 C811 1.457 . S
C810 H815 0.929 . S
C811 C810 1.457 . S
C811 C812 1.291 . S
C811 H824 0.931 . S
C812 C811 1.291 . S
C812 C813 1.373 . S
C812 H825 0.929 . S
C813 C812 1.373 . S
C813 C814 1.396 . S
C813 C820 1.403 . S
C814 C804 1.476 . S
C814 N809 1.318 . S
C814 C813 1.396 . S
H815 C810 0.929 . S
O816 Mn792 2.385 . S
O816 C794 1.234 . S
O817 Mn792 2.209 . S
O817 Mn793 2.215 . S
O817 C794 1.283 . S
O818 Mn792 2.094 . S
O818 C796 1.240 . S
O819 Mn793 2.117 . S
O819 C796 1.264 . S
C820 C813 1.403 . S
C820 C821 1.399 . S
C820 H826 0.929 . S
C821 C801 1.449 . S
C821 C820 1.399 . S
C821 H827 0.930 . S
H822 C802 0.931 . S
H823 C803 0.930 . S
H824 C811 0.931 . S
H825 C812 0.929 . S
H826 C820 0.929 . S
H827 C821 0.930 . S
Mn828 O833 2.095 . S
Mn828 O843 2.162 . S
Mn828 O844 2.297 . S
Mn828 O852 2.385 . S
Mn828 O853 2.209 . S
Mn828 O854 2.094 . S
Mn829 O834 2.121 . S
Mn829 N836 2.257 . S
Mn829 N845 2.282 . S
Mn829 O853 2.215 . S
Mn829 O855 2.117 . S
C830 O852 1.234 . S
C830 O853 1.283 . S
C831 O843 1.281 . S
C831 O844 1.236 . S
C832 O854 1.240 . S
C832 O855 1.264 . S
O833 Mn828 2.095 . S
O833 C842 1.250 . S
O834 Mn829 2.121 . S
O834 C842 1.258 . S
C835 N836 1.326 . S
C835 C839 1.460 . S
C835 H841 0.929 . S
N836 Mn829 2.257 . S
N836 C835 1.326 . S
N836 C840 1.362 . S
C837 C838 1.258 . S
C837 C840 1.431 . S
C837 C857 1.449 . S
C838 C837 1.258 . S
C838 C839 1.477 . S
C838 H858 0.931 . S
C839 C835 1.460 . S
C839 C838 1.477 . S
C839 H859 0.930 . S
C840 N836 1.362 . S
C840 C837 1.431 . S
C840 C850 1.476 . S
H841 C835 0.929 . S
C842 O833 1.250 . S
C842 O834 1.258 . S
O843 Mn828 2.162 . S
O843 C831 1.281 . S
O844 Mn828 2.297 . S
O844 C831 1.236 . S
N845 Mn829 2.282 . S
N845 C846 1.328 . S
N845 C850 1.318 . S
C846 N845 1.328 . S
C846 C847 1.457 . S
C846 H851 0.929 . S
C847 C846 1.457 . S
C847 C848 1.291 . S
C847 H860 0.931 . S
C848 C847 1.291 . S
C848 C849 1.373 . S
C848 H861 0.929 . S
C849 C848 1.373 . S
C849 C850 1.396 . S
C849 C856 1.403 . S
C850 C840 1.476 . S
C850 N845 1.318 . S
C850 C849 1.396 . S
H851 C846 0.929 . S
O852 Mn828 2.385 . S
O852 C830 1.234 . S
O853 Mn828 2.209 . S
O853 Mn829 2.215 . S
O853 C830 1.283 . S
O854 Mn828 2.094 . S
O854 C832 1.240 . S
O855 Mn829 2.117 . S
O855 C832 1.264 . S
C856 C849 1.403 . S
C856 C857 1.399 . S
C856 H862 0.929 . S
C857 C837 1.449 . S
C857 C856 1.399 . S
C857 H863 0.930 . S
H858 C838 0.931 . S
H859 C839 0.930 . S
H860 C847 0.931 . S
H861 C848 0.929 . S
H862 C856 0.929 . S
H863 C857 0.930 . S
H864 C876 0.930 . S
H865 C878 0.930 . S
H866 C879 0.930 . S
H867 C883 0.959 . S
H868 C883 0.959 . S
H869 C883 0.961 . S
H870 C884 0.960 . S
H871 C884 0.961 . S
H872 C884 0.959 . S
H873 C887 0.929 . S
H874 C888 0.931 . S
H875 C890 0.930 . S
C876 H864 0.930 . S
C876 C877 1.399 . S
C876 C881 1.399 . S
C877 C876 1.399 . S
C877 C878 1.376 . S
C878 H865 0.930 . S
C878 C877 1.376 . S
C878 C879 1.388 . S
C879 H866 0.930 . S
C879 C878 1.388 . S
C879 C880 1.390 . S
C880 C879 1.390 . S
C880 C881 1.394 . S
C880 C886 1.465 . S
C881 C876 1.399 . S
C881 C880 1.394 . S
C881 C882 1.516 . S
C882 C881 1.516 . S
C882 C883 1.502 . S
C882 C884 1.561 . S
C882 C885 1.526 . S
C883 H867 0.959 . S
C883 H868 0.959 . S
C883 H869 0.961 . S
C883 C882 1.502 . S
C884 H870 0.960 . S
C884 H871 0.961 . S
C884 H872 0.959 . S
C884 C882 1.561 . S
C885 C882 1.526 . S
C885 C886 1.396 . S
C885 C890 1.390 . S
C886 C880 1.465 . S
C886 C885 1.396 . S
C886 C887 1.399 . S
C887 H873 0.929 . S
C887 C886 1.399 . S
C887 C888 1.385 . S
C888 H874 0.931 . S
C888 C887 1.385 . S
C888 C889 1.389 . S
C889 C888 1.389 . S
C889 C890 1.387 . S
C890 H875 0.930 . S
C890 C885 1.390 . S
C890 C889 1.387 . S
H891 C903 0.930 . S
H892 C905 0.930 . S
H893 C906 0.930 . S
H894 C910 0.959 . S
H895 C910 0.959 . S
H896 C910 0.961 . S
H897 C911 0.960 . S
H898 C911 0.961 . S
H899 C911 0.959 . S
H900 C914 0.929 . S
H901 C915 0.931 . S
H902 C917 0.930 . S
C903 H891 0.930 . S
C903 C904 1.399 . S
C903 C908 1.399 . S
C904 C903 1.399 . S
C904 C905 1.376 . S
C905 H892 0.930 . S
C905 C904 1.376 . S
C905 C906 1.388 . S
C906 H893 0.930 . S
C906 C905 1.388 . S
C906 C907 1.390 . S
C907 C906 1.390 . S
C907 C908 1.394 . S
C907 C913 1.465 . S
C908 C903 1.399 . S
C908 C907 1.394 . S
C908 C909 1.516 . S
C909 C908 1.516 . S
C909 C910 1.502 . S
C909 C911 1.561 . S
C909 C912 1.526 . S
C910 H894 0.959 . S
C910 H895 0.959 . S
C910 H896 0.961 . S
C910 C909 1.502 . S
C911 H897 0.960 . S
C911 H898 0.961 . S
C911 H899 0.959 . S
C911 C909 1.561 . S
C912 C909 1.526 . S
C912 C913 1.396 . S
C912 C917 1.390 . S
C913 C907 1.465 . S
C913 C912 1.396 . S
C913 C914 1.399 . S
C914 H900 0.929 . S
C914 C913 1.399 . S
C914 C915 1.385 . S
C915 H901 0.931 . S
C915 C914 1.385 . S
C915 C916 1.389 . S
C916 C915 1.389 . S
C916 C917 1.387 . S
C917 H902 0.930 . S
C917 C912 1.390 . S
C917 C916 1.387 . S
H918 C930 0.930 . S
H919 C932 0.930 . S
H920 C933 0.930 . S
H921 C937 0.959 . S
H922 C937 0.959 . S
H923 C937 0.961 . S
H924 C938 0.960 . S
H925 C938 0.961 . S
H926 C938 0.959 . S
H927 C941 0.929 . S
H928 C942 0.931 . S
H929 C944 0.930 . S
C930 H918 0.930 . S
C930 C931 1.399 . S
C930 C935 1.399 . S
C931 C930 1.399 . S
C931 C932 1.376 . S
C932 H919 0.930 . S
C932 C931 1.376 . S
C932 C933 1.388 . S
C933 H920 0.930 . S
C933 C932 1.388 . S
C933 C934 1.390 . S
C934 C933 1.390 . S
C934 C935 1.394 . S
C934 C940 1.465 . S
C935 C930 1.399 . S
C935 C934 1.394 . S
C935 C936 1.516 . S
C936 C935 1.516 . S
C936 C937 1.502 . S
C936 C938 1.561 . S
C936 C939 1.526 . S
C937 H921 0.959 . S
C937 H922 0.959 . S
C937 H923 0.961 . S
C937 C936 1.502 . S
C938 H924 0.960 . S
C938 H925 0.961 . S
C938 H926 0.959 . S
C938 C936 1.561 . S
C939 C936 1.526 . S
C939 C940 1.396 . S
C939 C944 1.390 . S
C940 C934 1.465 . S
C940 C939 1.396 . S
C940 C941 1.399 . S
C941 H927 0.929 . S
C941 C940 1.399 . S
C941 C942 1.385 . S
C942 H928 0.931 . S
C942 C941 1.385 . S
C942 C943 1.389 . S
C943 C942 1.389 . S
C943 C944 1.387 . S
C944 H929 0.930 . S
C944 C939 1.390 . S
C944 C943 1.387 . S
H945 C957 0.930 . S
H946 C959 0.930 . S
H947 C960 0.930 . S
H948 C964 0.959 . S
H949 C964 0.959 . S
H950 C964 0.961 . S
H951 C965 0.960 . S
H952 C965 0.961 . S
H953 C965 0.959 . S
H954 C968 0.929 . S
H955 C969 0.931 . S
H956 C971 0.930 . S
C957 H945 0.930 . S
C957 C958 1.399 . S
C957 C962 1.399 . S
C958 C957 1.399 . S
C958 C959 1.376 . S
C959 H946 0.930 . S
C959 C958 1.376 . S
C959 C960 1.388 . S
C960 H947 0.930 . S
C960 C959 1.388 . S
C960 C961 1.390 . S
C961 C960 1.390 . S
C961 C962 1.394 . S
C961 C967 1.465 . S
C962 C957 1.399 . S
C962 C961 1.394 . S
C962 C963 1.516 . S
C963 C962 1.516 . S
C963 C964 1.502 . S
C963 C965 1.561 . S
C963 C966 1.526 . S
C964 H948 0.959 . S
C964 H949 0.959 . S
C964 H950 0.961 . S
C964 C963 1.502 . S
C965 H951 0.960 . S
C965 H952 0.961 . S
C965 H953 0.959 . S
C965 C963 1.561 . S
C966 C963 1.526 . S
C966 C967 1.396 . S
C966 C971 1.390 . S
C967 C961 1.465 . S
C967 C966 1.396 . S
C967 C968 1.399 . S
C968 H954 0.929 . S
C968 C967 1.399 . S
C968 C969 1.385 . S
C969 H955 0.931 . S
C969 C968 1.385 . S
C969 C970 1.389 . S
C970 C969 1.389 . S
C970 C971 1.387 . S
C971 H956 0.930 . S
C971 C966 1.390 . S
C971 C970 1.387 . S
H972 C984 0.930 . S
H973 C986 0.930 . S
H974 C987 0.930 . S
H975 C991 0.959 . S
H976 C991 0.959 . S
H977 C991 0.961 . S
H978 C992 0.960 . S
H979 C992 0.961 . S
H980 C992 0.959 . S
H981 C995 0.929 . S
H982 C996 0.931 . S
H983 C998 0.930 . S
C984 H972 0.930 . S
C984 C985 1.399 . S
C984 C989 1.399 . S
C985 C984 1.399 . S
C985 C986 1.376 . S
C986 H973 0.930 . S
C986 C985 1.376 . S
C986 C987 1.388 . S
C987 H974 0.930 . S
C987 C986 1.388 . S
C987 C988 1.390 . S
C988 C987 1.390 . S
C988 C989 1.394 . S
C988 C994 1.465 . S
C989 C984 1.399 . S
C989 C988 1.394 . S
C989 C990 1.516 . S
C990 C989 1.516 . S
C990 C991 1.502 . S
C990 C992 1.561 . S
C990 C993 1.526 . S
C991 H975 0.959 . S
C991 H976 0.959 . S
C991 H977 0.961 . S
C991 C990 1.502 . S
C992 H978 0.960 . S
C992 H979 0.961 . S
C992 H980 0.959 . S
C992 C990 1.561 . S
C993 C990 1.526 . S
C993 C994 1.396 . S
C993 C998 1.390 . S
C994 C988 1.465 . S
C994 C993 1.396 . S
C994 C995 1.399 . S
C995 H981 0.929 . S
C995 C994 1.399 . S
C995 C996 1.385 . S
C996 H982 0.931 . S
C996 C995 1.385 . S
C996 C997 1.389 . S
C997 C996 1.389 . S
C997 C998 1.387 . S
C998 H983 0.930 . S
C998 C993 1.390 . S
C998 C997 1.387 . S
H999 C1011 0.930 . S
H1000 C1013 0.930 . S
H1001 C1014 0.930 . S
H1002 C1018 0.959 . S
H1003 C1018 0.959 . S
H1004 C1018 0.961 . S
H1005 C1019 0.960 . S
H1006 C1019 0.961 . S
H1007 C1019 0.959 . S
H1008 C1022 0.929 . S
H1009 C1023 0.931 . S
H1010 C1025 0.930 . S
C1011 H999 0.930 . S
C1011 C1012 1.399 . S
C1011 C1016 1.399 . S
C1012 C1011 1.399 . S
C1012 C1013 1.376 . S
C1013 H1000 0.930 . S
C1013 C1012 1.376 . S
C1013 C1014 1.388 . S
C1014 H1001 0.930 . S
C1014 C1013 1.388 . S
C1014 C1015 1.390 . S
C1015 C1014 1.390 . S
C1015 C1016 1.394 . S
C1015 C1021 1.465 . S
C1016 C1011 1.399 . S
C1016 C1015 1.394 . S
C1016 C1017 1.516 . S
C1017 C1016 1.516 . S
C1017 C1018 1.502 . S
C1017 C1019 1.561 . S
C1017 C1020 1.526 . S
C1018 H1002 0.959 . S
C1018 H1003 0.959 . S
C1018 H1004 0.961 . S
C1018 C1017 1.502 . S
C1019 H1005 0.960 . S
C1019 H1006 0.961 . S
C1019 H1007 0.959 . S
C1019 C1017 1.561 . S
C1020 C1017 1.526 . S
C1020 C1021 1.396 . S
C1020 C1025 1.390 . S
C1021 C1015 1.465 . S
C1021 C1020 1.396 . S
C1021 C1022 1.399 . S
C1022 H1008 0.929 . S
C1022 C1021 1.399 . S
C1022 C1023 1.385 . S
C1023 H1009 0.931 . S
C1023 C1022 1.385 . S
C1023 C1024 1.389 . S
C1024 C1023 1.389 . S
C1024 C1025 1.387 . S
C1025 H1010 0.930 . S
C1025 C1020 1.390 . S
C1025 C1024 1.387 . S
H1026 C1038 0.930 . S
H1027 C1040 0.930 . S
H1028 C1041 0.930 . S
H1029 C1045 0.959 . S
H1030 C1045 0.959 . S
H1031 C1045 0.961 . S
H1032 C1046 0.960 . S
H1033 C1046 0.961 . S
H1034 C1046 0.959 . S
H1035 C1049 0.929 . S
H1036 C1050 0.931 . S
H1037 C1052 0.930 . S
C1038 H1026 0.930 . S
C1038 C1039 1.399 . S
C1038 C1043 1.399 . S
C1039 C1038 1.399 . S
C1039 C1040 1.376 . S
C1040 H1027 0.930 . S
C1040 C1039 1.376 . S
C1040 C1041 1.388 . S
C1041 H1028 0.930 . S
C1041 C1040 1.388 . S
C1041 C1042 1.390 . S
C1042 C1041 1.390 . S
C1042 C1043 1.394 . S
C1042 C1048 1.465 . S
C1043 C1038 1.399 . S
C1043 C1042 1.394 . S
C1043 C1044 1.516 . S
C1044 C1043 1.516 . S
C1044 C1045 1.502 . S
C1044 C1046 1.561 . S
C1044 C1047 1.526 . S
C1045 H1029 0.959 . S
C1045 H1030 0.959 . S
C1045 H1031 0.961 . S
C1045 C1044 1.502 . S
C1046 H1032 0.960 . S
C1046 H1033 0.961 . S
C1046 H1034 0.959 . S
C1046 C1044 1.561 . S
C1047 C1044 1.526 . S
C1047 C1048 1.396 . S
C1047 C1052 1.390 . S
C1048 C1042 1.465 . S
C1048 C1047 1.396 . S
C1048 C1049 1.399 . S
C1049 H1035 0.929 . S
C1049 C1048 1.399 . S
C1049 C1050 1.385 . S
C1050 H1036 0.931 . S
C1050 C1049 1.385 . S
C1050 C1051 1.389 . S
C1051 C1050 1.389 . S
C1051 C1052 1.387 . S
C1052 H1037 0.930 . S
C1052 C1047 1.390 . S
C1052 C1051 1.387 . S
H1053 C1065 0.930 . S
H1054 C1067 0.930 . S
H1055 C1068 0.930 . S
H1056 C1072 0.959 . S
H1057 C1072 0.959 . S
H1058 C1072 0.961 . S
H1059 C1073 0.960 . S
H1060 C1073 0.961 . S
H1061 C1073 0.959 . S
H1062 C1076 0.929 . S
H1063 C1077 0.931 . S
H1064 C1079 0.930 . S
C1065 H1053 0.930 . S
C1065 C1066 1.399 . S
C1065 C1070 1.399 . S
C1066 C1065 1.399 . S
C1066 C1067 1.376 . S
C1067 H1054 0.930 . S
C1067 C1066 1.376 . S
C1067 C1068 1.388 . S
C1068 H1055 0.930 . S
C1068 C1067 1.388 . S
C1068 C1069 1.390 . S
C1069 C1068 1.390 . S
C1069 C1070 1.394 . S
C1069 C1075 1.465 . S
C1070 C1065 1.399 . S
C1070 C1069 1.394 . S
C1070 C1071 1.516 . S
C1071 C1070 1.516 . S
C1071 C1072 1.502 . S
C1071 C1073 1.561 . S
C1071 C1074 1.526 . S
C1072 H1056 0.959 . S
C1072 H1057 0.959 . S
C1072 H1058 0.961 . S
C1072 C1071 1.502 . S
C1073 H1059 0.960 . S
C1073 H1060 0.961 . S
C1073 H1061 0.959 . S
C1073 C1071 1.561 . S
C1074 C1071 1.526 . S
C1074 C1075 1.396 . S
C1074 C1079 1.390 . S
C1075 C1069 1.465 . S
C1075 C1074 1.396 . S
C1075 C1076 1.399 . S
C1076 H1062 0.929 . S
C1076 C1075 1.399 . S
C1076 C1077 1.385 . S
C1077 H1063 0.931 . S
C1077 C1076 1.385 . S
C1077 C1078 1.389 . S
C1078 C1077 1.389 . S
C1078 C1079 1.387 . S
C1079 H1064 0.930 . S
C1079 C1074 1.390 . S
C1079 C1078 1.387 . S
H1080 C1092 0.930 . S
H1081 C1094 0.930 . S
H1082 C1095 0.930 . S
H1083 C1099 0.959 . S
H1084 C1099 0.959 . S
H1085 C1099 0.961 . S
H1086 C1100 0.960 . S
H1087 C1100 0.961 . S
H1088 C1100 0.959 . S
H1089 C1103 0.929 . S
H1090 C1104 0.931 . S
H1091 C1106 0.930 . S
C1092 H1080 0.930 . S
C1092 C1093 1.399 . S
C1092 C1097 1.399 . S
C1093 C1092 1.399 . S
C1093 C1094 1.376 . S
C1094 H1081 0.930 . S
C1094 C1093 1.376 . S
C1094 C1095 1.388 . S
C1095 H1082 0.930 . S
C1095 C1094 1.388 . S
C1095 C1096 1.390 . S
C1096 C1095 1.390 . S
C1096 C1097 1.394 . S
C1096 C1102 1.465 . S
C1097 C1092 1.399 . S
C1097 C1096 1.394 . S
C1097 C1098 1.516 . S
C1098 C1097 1.516 . S
C1098 C1099 1.502 . S
C1098 C1100 1.561 . S
C1098 C1101 1.526 . S
C1099 H1083 0.959 . S
C1099 H1084 0.959 . S
C1099 H1085 0.961 . S
C1099 C1098 1.502 . S
C1100 H1086 0.960 . S
C1100 H1087 0.961 . S
C1100 H1088 0.959 . S
C1100 C1098 1.561 . S
C1101 C1098 1.526 . S
C1101 C1102 1.396 . S
C1101 C1106 1.390 . S
C1102 C1096 1.465 . S
C1102 C1101 1.396 . S
C1102 C1103 1.399 . S
C1103 H1089 0.929 . S
C1103 C1102 1.399 . S
C1103 C1104 1.385 . S
C1104 H1090 0.931 . S
C1104 C1103 1.385 . S
C1104 C1105 1.389 . S
C1105 C1104 1.389 . S
C1105 C1106 1.387 . S
C1106 H1091 0.930 . S
C1106 C1101 1.390 . S
C1106 C1105 1.387 . S
H1107 C1119 0.930 . S
H1108 C1121 0.930 . S
H1109 C1122 0.930 . S
H1110 C1126 0.959 . S
H1111 C1126 0.959 . S
H1112 C1126 0.961 . S
H1113 C1127 0.960 . S
H1114 C1127 0.961 . S
H1115 C1127 0.959 . S
H1116 C1130 0.929 . S
H1117 C1131 0.931 . S
H1118 C1133 0.930 . S
C1119 H1107 0.930 . S
C1119 C1120 1.399 . S
C1119 C1124 1.399 . S
C1120 C1119 1.399 . S
C1120 C1121 1.376 . S
C1121 H1108 0.930 . S
C1121 C1120 1.376 . S
C1121 C1122 1.388 . S
C1122 H1109 0.930 . S
C1122 C1121 1.388 . S
C1122 C1123 1.390 . S
C1123 C1122 1.390 . S
C1123 C1124 1.394 . S
C1123 C1129 1.465 . S
C1124 C1119 1.399 . S
C1124 C1123 1.394 . S
C1124 C1125 1.516 . S
C1125 C1124 1.516 . S
C1125 C1126 1.502 . S
C1125 C1127 1.561 . S
C1125 C1128 1.526 . S
C1126 H1110 0.959 . S
C1126 H1111 0.959 . S
C1126 H1112 0.961 . S
C1126 C1125 1.502 . S
C1127 H1113 0.960 . S
C1127 H1114 0.961 . S
C1127 H1115 0.959 . S
C1127 C1125 1.561 . S
C1128 C1125 1.526 . S
C1128 C1129 1.396 . S
C1128 C1133 1.390 . S
C1129 C1123 1.465 . S
C1129 C1128 1.396 . S
C1129 C1130 1.399 . S
C1130 H1116 0.929 . S
C1130 C1129 1.399 . S
C1130 C1131 1.385 . S
C1131 H1117 0.931 . S
C1131 C1130 1.385 . S
C1131 C1132 1.389 . S
C1132 C1131 1.389 . S
C1132 C1133 1.387 . S
C1133 H1118 0.930 . S
C1133 C1128 1.390 . S
C1133 C1132 1.387 . S
H1134 C1146 0.930 . S
H1135 C1148 0.930 . S
H1136 C1149 0.930 . S
H1137 C1153 0.959 . S
H1138 C1153 0.959 . S
H1139 C1153 0.961 . S
H1140 C1154 0.960 . S
H1141 C1154 0.961 . S
H1142 C1154 0.959 . S
H1143 C1157 0.929 . S
H1144 C1158 0.931 . S
H1145 C1160 0.930 . S
C1146 H1134 0.930 . S
C1146 C1147 1.399 . S
C1146 C1151 1.399 . S
C1147 C1146 1.399 . S
C1147 C1148 1.376 . S
C1148 H1135 0.930 . S
C1148 C1147 1.376 . S
C1148 C1149 1.388 . S
C1149 H1136 0.930 . S
C1149 C1148 1.388 . S
C1149 C1150 1.390 . S
C1150 C1149 1.390 . S
C1150 C1151 1.394 . S
C1150 C1156 1.465 . S
C1151 C1146 1.399 . S
C1151 C1150 1.394 . S
C1151 C1152 1.516 . S
C1152 C1151 1.516 . S
C1152 C1153 1.502 . S
C1152 C1154 1.561 . S
C1152 C1155 1.526 . S
C1153 H1137 0.959 . S
C1153 H1138 0.959 . S
C1153 H1139 0.961 . S
C1153 C1152 1.502 . S
C1154 H1140 0.960 . S
C1154 H1141 0.961 . S
C1154 H1142 0.959 . S
C1154 C1152 1.561 . S
C1155 C1152 1.526 . S
C1155 C1156 1.396 . S
C1155 C1160 1.390 . S
C1156 C1150 1.465 . S
C1156 C1155 1.396 . S
C1156 C1157 1.399 . S
C1157 H1143 0.929 . S
C1157 C1156 1.399 . S
C1157 C1158 1.385 . S
C1158 H1144 0.931 . S
C1158 C1157 1.385 . S
C1158 C1159 1.389 . S
C1159 C1158 1.389 . S
C1159 C1160 1.387 . S
C1160 H1145 0.930 . S
C1160 C1155 1.390 . S
C1160 C1159 1.387 . S
H1161 C1173 0.930 . S
H1162 C1175 0.930 . S
H1163 C1176 0.930 . S
H1164 C1180 0.959 . S
H1165 C1180 0.959 . S
H1166 C1180 0.961 . S
H1167 C1181 0.960 . S
H1168 C1181 0.961 . S
H1169 C1181 0.959 . S
H1170 C1184 0.929 . S
H1171 C1185 0.931 . S
H1172 C1187 0.930 . S
C1173 H1161 0.930 . S
C1173 C1174 1.399 . S
C1173 C1178 1.399 . S
C1174 C1173 1.399 . S
C1174 C1175 1.376 . S
C1175 H1162 0.930 . S
C1175 C1174 1.376 . S
C1175 C1176 1.388 . S
C1176 H1163 0.930 . S
C1176 C1175 1.388 . S
C1176 C1177 1.390 . S
C1177 C1176 1.390 . S
C1177 C1178 1.394 . S
C1177 C1183 1.465 . S
C1178 C1173 1.399 . S
C1178 C1177 1.394 . S
C1178 C1179 1.516 . S
C1179 C1178 1.516 . S
C1179 C1180 1.502 . S
C1179 C1181 1.561 . S
C1179 C1182 1.526 . S
C1180 H1164 0.959 . S
C1180 H1165 0.959 . S
C1180 H1166 0.961 . S
C1180 C1179 1.502 . S
C1181 H1167 0.960 . S
C1181 H1168 0.961 . S
C1181 H1169 0.959 . S
C1181 C1179 1.561 . S
C1182 C1179 1.526 . S
C1182 C1183 1.396 . S
C1182 C1187 1.390 . S
C1183 C1177 1.465 . S
C1183 C1182 1.396 . S
C1183 C1184 1.399 . S
C1184 H1170 0.929 . S
C1184 C1183 1.399 . S
C1184 C1185 1.385 . S
C1185 H1171 0.931 . S
C1185 C1184 1.385 . S
C1185 C1186 1.389 . S
C1186 C1185 1.389 . S
C1186 C1187 1.387 . S
C1187 H1172 0.930 . S
C1187 C1182 1.390 . S
C1187 C1186 1.387 . S
H1188 C1200 0.930 . S
H1189 C1202 0.930 . S
H1190 C1203 0.930 . S
H1191 C1207 0.959 . S
H1192 C1207 0.959 . S
H1193 C1207 0.961 . S
H1194 C1208 0.960 . S
H1195 C1208 0.961 . S
H1196 C1208 0.959 . S
H1197 C1211 0.929 . S
H1198 C1212 0.931 . S
H1199 C1214 0.930 . S
C1200 H1188 0.930 . S
C1200 C1201 1.399 . S
C1200 C1205 1.399 . S
C1201 C1200 1.399 . S
C1201 C1202 1.376 . S
C1202 H1189 0.930 . S
C1202 C1201 1.376 . S
C1202 C1203 1.388 . S
C1203 H1190 0.930 . S
C1203 C1202 1.388 . S
C1203 C1204 1.390 . S
C1204 C1203 1.390 . S
C1204 C1205 1.394 . S
C1204 C1210 1.465 . S
C1205 C1200 1.399 . S
C1205 C1204 1.394 . S
C1205 C1206 1.516 . S
C1206 C1205 1.516 . S
C1206 C1207 1.502 . S
C1206 C1208 1.561 . S
C1206 C1209 1.526 . S
C1207 H1191 0.959 . S
C1207 H1192 0.959 . S
C1207 H1193 0.961 . S
C1207 C1206 1.502 . S
C1208 H1194 0.960 . S
C1208 H1195 0.961 . S
C1208 H1196 0.959 . S
C1208 C1206 1.561 . S
C1209 C1206 1.526 . S
C1209 C1210 1.396 . S
C1209 C1214 1.390 . S
C1210 C1204 1.465 . S
C1210 C1209 1.396 . S
C1210 C1211 1.399 . S
C1211 H1197 0.929 . S
C1211 C1210 1.399 . S
C1211 C1212 1.385 . S
C1212 H1198 0.931 . S
C1212 C1211 1.385 . S
C1212 C1213 1.389 . S
C1213 C1212 1.389 . S
C1213 C1214 1.387 . S
C1214 H1199 0.930 . S
C1214 C1209 1.390 . S
C1214 C1213 1.387 . S
H1215 C1227 0.930 . S
H1216 C1229 0.930 . S
H1217 C1230 0.930 . S
H1218 C1234 0.959 . S
H1219 C1234 0.959 . S
H1220 C1234 0.961 . S
H1221 C1235 0.960 . S
H1222 C1235 0.961 . S
H1223 C1235 0.959 . S
H1224 C1238 0.929 . S
H1225 C1239 0.931 . S
H1226 C1241 0.930 . S
C1227 H1215 0.930 . S
C1227 C1228 1.399 . S
C1227 C1232 1.399 . S
C1228 C1227 1.399 . S
C1228 C1229 1.376 . S
C1229 H1216 0.930 . S
C1229 C1228 1.376 . S
C1229 C1230 1.388 . S
C1230 H1217 0.930 . S
C1230 C1229 1.388 . S
C1230 C1231 1.390 . S
C1231 C1230 1.390 . S
C1231 C1232 1.394 . S
C1231 C1237 1.465 . S
C1232 C1227 1.399 . S
C1232 C1231 1.394 . S
C1232 C1233 1.516 . S
C1233 C1232 1.516 . S
C1233 C1234 1.502 . S
C1233 C1235 1.561 . S
C1233 C1236 1.526 . S
C1234 H1218 0.959 . S
C1234 H1219 0.959 . S
C1234 H1220 0.961 . S
C1234 C1233 1.502 . S
C1235 H1221 0.960 . S
C1235 H1222 0.961 . S
C1235 H1223 0.959 . S
C1235 C1233 1.561 . S
C1236 C1233 1.526 . S
C1236 C1237 1.396 . S
C1236 C1241 1.390 . S
C1237 C1231 1.465 . S
C1237 C1236 1.396 . S
C1237 C1238 1.399 . S
C1238 H1224 0.929 . S
C1238 C1237 1.399 . S
C1238 C1239 1.385 . S
C1239 H1225 0.931 . S
C1239 C1238 1.385 . S
C1239 C1240 1.389 . S
C1240 C1239 1.389 . S
C1240 C1241 1.387 . S
C1241 H1226 0.930 . S
C1241 C1236 1.390 . S
C1241 C1240 1.387 . S
H1242 C1254 0.930 . S
H1243 C1256 0.930 . S
H1244 C1257 0.930 . S
H1245 C1261 0.959 . S
H1246 C1261 0.959 . S
H1247 C1261 0.961 . S
H1248 C1262 0.960 . S
H1249 C1262 0.961 . S
H1250 C1262 0.959 . S
H1251 C1265 0.929 . S
H1252 C1266 0.931 . S
H1253 C1268 0.930 . S
C1254 H1242 0.930 . S
C1254 C1255 1.399 . S
C1254 C1259 1.399 . S
C1255 C1254 1.399 . S
C1255 C1256 1.376 . S
C1256 H1243 0.930 . S
C1256 C1255 1.376 . S
C1256 C1257 1.388 . S
C1257 H1244 0.930 . S
C1257 C1256 1.388 . S
C1257 C1258 1.390 . S
C1258 C1257 1.390 . S
C1258 C1259 1.394 . S
C1258 C1264 1.465 . S
C1259 C1254 1.399 . S
C1259 C1258 1.394 . S
C1259 C1260 1.516 . S
C1260 C1259 1.516 . S
C1260 C1261 1.502 . S
C1260 C1262 1.561 . S
C1260 C1263 1.526 . S
C1261 H1245 0.959 . S
C1261 H1246 0.959 . S
C1261 H1247 0.961 . S
C1261 C1260 1.502 . S
C1262 H1248 0.960 . S
C1262 H1249 0.961 . S
C1262 H1250 0.959 . S
C1262 C1260 1.561 . S
C1263 C1260 1.526 . S
C1263 C1264 1.396 . S
C1263 C1268 1.390 . S
C1264 C1258 1.465 . S
C1264 C1263 1.396 . S
C1264 C1265 1.399 . S
C1265 H1251 0.929 . S
C1265 C1264 1.399 . S
C1265 C1266 1.385 . S
C1266 H1252 0.931 . S
C1266 C1265 1.385 . S
C1266 C1267 1.389 . S
C1267 C1266 1.389 . S
C1267 C1268 1.387 . S
C1268 H1253 0.930 . S
C1268 C1263 1.390 . S
C1268 C1267 1.387 . S
H1269 C1281 0.930 . S
H1270 C1283 0.930 . S
H1271 C1284 0.930 . S
H1272 C1288 0.959 . S
H1273 C1288 0.959 . S
H1274 C1288 0.961 . S
H1275 C1289 0.960 . S
H1276 C1289 0.961 . S
H1277 C1289 0.959 . S
H1278 C1292 0.929 . S
H1279 C1293 0.931 . S
H1280 C1295 0.930 . S
C1281 H1269 0.930 . S
C1281 C1282 1.399 . S
C1281 C1286 1.399 . S
C1282 C1281 1.399 . S
C1282 C1283 1.376 . S
C1283 H1270 0.930 . S
C1283 C1282 1.376 . S
C1283 C1284 1.388 . S
C1284 H1271 0.930 . S
C1284 C1283 1.388 . S
C1284 C1285 1.390 . S
C1285 C1284 1.390 . S
C1285 C1286 1.394 . S
C1285 C1291 1.465 . S
C1286 C1281 1.399 . S
C1286 C1285 1.394 . S
C1286 C1287 1.516 . S
C1287 C1286 1.516 . S
C1287 C1288 1.502 . S
C1287 C1289 1.561 . S
C1287 C1290 1.526 . S
C1288 H1272 0.959 . S
C1288 H1273 0.959 . S
C1288 H1274 0.961 . S
C1288 C1287 1.502 . S
C1289 H1275 0.960 . S
C1289 H1276 0.961 . S
C1289 H1277 0.959 . S
C1289 C1287 1.561 . S
C1290 C1287 1.526 . S
C1290 C1291 1.396 . S
C1290 C1295 1.390 . S
C1291 C1285 1.465 . S
C1291 C1290 1.396 . S
C1291 C1292 1.399 . S
C1292 H1278 0.929 . S
C1292 C1291 1.399 . S
C1292 C1293 1.385 . S
C1293 H1279 0.931 . S
C1293 C1292 1.385 . S
C1293 C1294 1.389 . S
C1294 C1293 1.389 . S
C1294 C1295 1.387 . S
C1295 H1280 0.930 . S
C1295 C1290 1.390 . S
C1295 C1294 1.387 . S
H1296 C1308 0.930 . S
H1297 C1310 0.930 . S
H1298 C1311 0.930 . S
H1299 C1315 0.959 . S
H1300 C1315 0.959 . S
H1301 C1315 0.961 . S
H1302 C1316 0.960 . S
H1303 C1316 0.961 . S
H1304 C1316 0.959 . S
H1305 C1319 0.929 . S
H1306 C1320 0.931 . S
H1307 C1322 0.930 . S
C1308 H1296 0.930 . S
C1308 C1309 1.399 . S
C1308 C1313 1.399 . S
C1309 C1308 1.399 . S
C1309 C1310 1.376 . S
C1310 H1297 0.930 . S
C1310 C1309 1.376 . S
C1310 C1311 1.388 . S
C1311 H1298 0.930 . S
C1311 C1310 1.388 . S
C1311 C1312 1.390 . S
C1312 C1311 1.390 . S
C1312 C1313 1.394 . S
C1312 C1318 1.465 . S
C1313 C1308 1.399 . S
C1313 C1312 1.394 . S
C1313 C1314 1.516 . S
C1314 C1313 1.516 . S
C1314 C1315 1.502 . S
C1314 C1316 1.561 . S
C1314 C1317 1.526 . S
C1315 H1299 0.959 . S
C1315 H1300 0.959 . S
C1315 H1301 0.961 . S
C1315 C1314 1.502 . S
C1316 H1302 0.960 . S
C1316 H1303 0.961 . S
C1316 H1304 0.959 . S
C1316 C1314 1.561 . S
C1317 C1314 1.526 . S
C1317 C1318 1.396 . S
C1317 C1322 1.390 . S
C1318 C1312 1.465 . S
C1318 C1317 1.396 . S
C1318 C1319 1.399 . S
C1319 H1305 0.929 . S
C1319 C1318 1.399 . S
C1319 C1320 1.385 . S
C1320 H1306 0.931 . S
C1320 C1319 1.385 . S
C1320 C1321 1.389 . S
C1321 C1320 1.389 . S
C1321 C1322 1.387 . S
C1322 H1307 0.930 . S
C1322 C1317 1.390 . S
C1322 C1321 1.387 . S
H1323 C1335 0.930 . S
H1324 C1337 0.930 . S
H1325 C1338 0.930 . S
H1326 C1342 0.959 . S
H1327 C1342 0.959 . S
H1328 C1342 0.961 . S
H1329 C1343 0.960 . S
H1330 C1343 0.961 . S
H1331 C1343 0.959 . S
H1332 C1346 0.929 . S
H1333 C1347 0.931 . S
H1334 C1349 0.930 . S
C1335 H1323 0.930 . S
C1335 C1336 1.399 . S
C1335 C1340 1.399 . S
C1336 C1335 1.399 . S
C1336 C1337 1.376 . S
C1337 H1324 0.930 . S
C1337 C1336 1.376 . S
C1337 C1338 1.388 . S
C1338 H1325 0.930 . S
C1338 C1337 1.388 . S
C1338 C1339 1.390 . S
C1339 C1338 1.390 . S
C1339 C1340 1.394 . S
C1339 C1345 1.465 . S
C1340 C1335 1.399 . S
C1340 C1339 1.394 . S
C1340 C1341 1.516 . S
C1341 C1340 1.516 . S
C1341 C1342 1.502 . S
C1341 C1343 1.561 . S
C1341 C1344 1.526 . S
C1342 H1326 0.959 . S
C1342 H1327 0.959 . S
C1342 H1328 0.961 . S
C1342 C1341 1.502 . S
C1343 H1329 0.960 . S
C1343 H1330 0.961 . S
C1343 H1331 0.959 . S
C1343 C1341 1.561 . S
C1344 C1341 1.526 . S
C1344 C1345 1.396 . S
C1344 C1349 1.390 . S
C1345 C1339 1.465 . S
C1345 C1344 1.396 . S
C1345 C1346 1.399 . S
C1346 H1332 0.929 . S
C1346 C1345 1.399 . S
C1346 C1347 1.385 . S
C1347 H1333 0.931 . S
C1347 C1346 1.385 . S
C1347 C1348 1.389 . S
C1348 C1347 1.389 . S
C1348 C1349 1.387 . S
C1349 H1334 0.930 . S
C1349 C1344 1.390 . S
C1349 C1348 1.387 . S
H1350 C1362 0.930 . S
H1351 C1364 0.930 . S
H1352 C1365 0.930 . S
H1353 C1369 0.959 . S
H1354 C1369 0.959 . S
H1355 C1369 0.961 . S
H1356 C1370 0.960 . S
H1357 C1370 0.961 . S
H1358 C1370 0.959 . S
H1359 C1373 0.929 . S
H1360 C1374 0.931 . S
H1361 C1376 0.930 . S
C1362 H1350 0.930 . S
C1362 C1363 1.399 . S
C1362 C1367 1.399 . S
C1363 C1362 1.399 . S
C1363 C1364 1.376 . S
C1364 H1351 0.930 . S
C1364 C1363 1.376 . S
C1364 C1365 1.388 . S
C1365 H1352 0.930 . S
C1365 C1364 1.388 . S
C1365 C1366 1.390 . S
C1366 C1365 1.390 . S
C1366 C1367 1.394 . S
C1366 C1372 1.465 . S
C1367 C1362 1.399 . S
C1367 C1366 1.394 . S
C1367 C1368 1.516 . S
C1368 C1367 1.516 . S
C1368 C1369 1.502 . S
C1368 C1370 1.561 . S
C1368 C1371 1.526 . S
C1369 H1353 0.959 . S
C1369 H1354 0.959 . S
C1369 H1355 0.961 . S
C1369 C1368 1.502 . S
C1370 H1356 0.960 . S
C1370 H1357 0.961 . S
C1370 H1358 0.959 . S
C1370 C1368 1.561 . S
C1371 C1368 1.526 . S
C1371 C1372 1.396 . S
C1371 C1376 1.390 . S
C1372 C1366 1.465 . S
C1372 C1371 1.396 . S
C1372 C1373 1.399 . S
C1373 H1359 0.929 . S
C1373 C1372 1.399 . S
C1373 C1374 1.385 . S
C1374 H1360 0.931 . S
C1374 C1373 1.385 . S
C1374 C1375 1.389 . S
C1375 C1374 1.389 . S
C1375 C1376 1.387 . S
C1376 H1361 0.930 . S
C1376 C1371 1.390 . S
C1376 C1375 1.387 . S
H1377 C1389 0.930 . S
H1378 C1391 0.930 . S
H1379 C1392 0.930 . S
H1380 C1396 0.959 . S
H1381 C1396 0.959 . S
H1382 C1396 0.961 . S
H1383 C1397 0.960 . S
H1384 C1397 0.961 . S
H1385 C1397 0.959 . S
H1386 C1400 0.929 . S
H1387 C1401 0.931 . S
H1388 C1403 0.930 . S
C1389 H1377 0.930 . S
C1389 C1390 1.399 . S
C1389 C1394 1.399 . S
C1390 C1389 1.399 . S
C1390 C1391 1.376 . S
C1391 H1378 0.930 . S
C1391 C1390 1.376 . S
C1391 C1392 1.388 . S
C1392 H1379 0.930 . S
C1392 C1391 1.388 . S
C1392 C1393 1.390 . S
C1393 C1392 1.390 . S
C1393 C1394 1.394 . S
C1393 C1399 1.465 . S
C1394 C1389 1.399 . S
C1394 C1393 1.394 . S
C1394 C1395 1.516 . S
C1395 C1394 1.516 . S
C1395 C1396 1.502 . S
C1395 C1397 1.561 . S
C1395 C1398 1.526 . S
C1396 H1380 0.959 . S
C1396 H1381 0.959 . S
C1396 H1382 0.961 . S
C1396 C1395 1.502 . S
C1397 H1383 0.960 . S
C1397 H1384 0.961 . S
C1397 H1385 0.959 . S
C1397 C1395 1.561 . S
C1398 C1395 1.526 . S
C1398 C1399 1.396 . S
C1398 C1403 1.390 . S
C1399 C1393 1.465 . S
C1399 C1398 1.396 . S
C1399 C1400 1.399 . S
C1400 H1386 0.929 . S
C1400 C1399 1.399 . S
C1400 C1401 1.385 . S
C1401 H1387 0.931 . S
C1401 C1400 1.385 . S
C1401 C1402 1.389 . S
C1402 C1401 1.389 . S
C1402 C1403 1.387 . S
C1403 H1388 0.930 . S
C1403 C1398 1.390 . S
C1403 C1402 1.387 . S
H1404 C1416 0.930 . S
H1405 C1418 0.930 . S
H1406 C1419 0.930 . S
H1407 C1423 0.959 . S
H1408 C1423 0.959 . S
H1409 C1423 0.961 . S
H1410 C1424 0.960 . S
H1411 C1424 0.961 . S
H1412 C1424 0.959 . S
H1413 C1427 0.929 . S
H1414 C1428 0.931 . S
H1415 C1430 0.930 . S
C1416 H1404 0.930 . S
C1416 C1417 1.399 . S
C1416 C1421 1.399 . S
C1417 C1416 1.399 . S
C1417 C1418 1.376 . S
C1418 H1405 0.930 . S
C1418 C1417 1.376 . S
C1418 C1419 1.388 . S
C1419 H1406 0.930 . S
C1419 C1418 1.388 . S
C1419 C1420 1.390 . S
C1420 C1419 1.390 . S
C1420 C1421 1.394 . S
C1420 C1426 1.465 . S
C1421 C1416 1.399 . S
C1421 C1420 1.394 . S
C1421 C1422 1.516 . S
C1422 C1421 1.516 . S
C1422 C1423 1.502 . S
C1422 C1424 1.561 . S
C1422 C1425 1.526 . S
C1423 H1407 0.959 . S
C1423 H1408 0.959 . S
C1423 H1409 0.961 . S
C1423 C1422 1.502 . S
C1424 H1410 0.960 . S
C1424 H1411 0.961 . S
C1424 H1412 0.959 . S
C1424 C1422 1.561 . S
C1425 C1422 1.526 . S
C1425 C1426 1.396 . S
C1425 C1430 1.390 . S
C1426 C1420 1.465 . S
C1426 C1425 1.396 . S
C1426 C1427 1.399 . S
C1427 H1413 0.929 . S
C1427 C1426 1.399 . S
C1427 C1428 1.385 . S
C1428 H1414 0.931 . S
C1428 C1427 1.385 . S
C1428 C1429 1.389 . S
C1429 C1428 1.389 . S
C1429 C1430 1.387 . S
C1430 H1415 0.930 . S
C1430 C1425 1.390 . S
C1430 C1429 1.387 . S
H1431 C1443 0.930 . S
H1432 C1445 0.930 . S
H1433 C1446 0.930 . S
H1434 C1450 0.959 . S
H1435 C1450 0.959 . S
H1436 C1450 0.961 . S
H1437 C1451 0.960 . S
H1438 C1451 0.961 . S
H1439 C1451 0.959 . S
H1440 C1454 0.929 . S
H1441 C1455 0.931 . S
H1442 C1457 0.930 . S
C1443 H1431 0.930 . S
C1443 C1444 1.399 . S
C1443 C1448 1.399 . S
C1444 C1443 1.399 . S
C1444 C1445 1.376 . S
C1445 H1432 0.930 . S
C1445 C1444 1.376 . S
C1445 C1446 1.388 . S
C1446 H1433 0.930 . S
C1446 C1445 1.388 . S
C1446 C1447 1.390 . S
C1447 C1446 1.390 . S
C1447 C1448 1.394 . S
C1447 C1453 1.465 . S
C1448 C1443 1.399 . S
C1448 C1447 1.394 . S
C1448 C1449 1.516 . S
C1449 C1448 1.516 . S
C1449 C1450 1.502 . S
C1449 C1451 1.561 . S
C1449 C1452 1.526 . S
C1450 H1434 0.959 . S
C1450 H1435 0.959 . S
C1450 H1436 0.961 . S
C1450 C1449 1.502 . S
C1451 H1437 0.960 . S
C1451 H1438 0.961 . S
C1451 H1439 0.959 . S
C1451 C1449 1.561 . S
C1452 C1449 1.526 . S
C1452 C1453 1.396 . S
C1452 C1457 1.390 . S
C1453 C1447 1.465 . S
C1453 C1452 1.396 . S
C1453 C1454 1.399 . S
C1454 H1440 0.929 . S
C1454 C1453 1.399 . S
C1454 C1455 1.385 . S
C1455 H1441 0.931 . S
C1455 C1454 1.385 . S
C1455 C1456 1.389 . S
C1456 C1455 1.389 . S
C1456 C1457 1.387 . S
C1457 H1442 0.930 . S
C1457 C1452 1.390 . S
C1457 C1456 1.387 . S
H1458 C1470 0.930 . S
H1459 C1472 0.930 . S
H1460 C1473 0.930 . S
H1461 C1477 0.959 . S
H1462 C1477 0.959 . S
H1463 C1477 0.961 . S
H1464 C1478 0.960 . S
H1465 C1478 0.961 . S
H1466 C1478 0.959 . S
H1467 C1481 0.929 . S
H1468 C1482 0.931 . S
H1469 C1484 0.930 . S
C1470 H1458 0.930 . S
C1470 C1471 1.399 . S
C1470 C1475 1.399 . S
C1471 C1470 1.399 . S
C1471 C1472 1.376 . S
C1472 H1459 0.930 . S
C1472 C1471 1.376 . S
C1472 C1473 1.388 . S
C1473 H1460 0.930 . S
C1473 C1472 1.388 . S
C1473 C1474 1.390 . S
C1474 C1473 1.390 . S
C1474 C1475 1.394 . S
C1474 C1480 1.465 . S
C1475 C1470 1.399 . S
C1475 C1474 1.394 . S
C1475 C1476 1.516 . S
C1476 C1475 1.516 . S
C1476 C1477 1.502 . S
C1476 C1478 1.561 . S
C1476 C1479 1.526 . S
C1477 H1461 0.959 . S
C1477 H1462 0.959 . S
C1477 H1463 0.961 . S
C1477 C1476 1.502 . S
C1478 H1464 0.960 . S
C1478 H1465 0.961 . S
C1478 H1466 0.959 . S
C1478 C1476 1.561 . S
C1479 C1476 1.526 . S
C1479 C1480 1.396 . S
C1479 C1484 1.390 . S
C1480 C1474 1.465 . S
C1480 C1479 1.396 . S
C1480 C1481 1.399 . S
C1481 H1467 0.929 . S
C1481 C1480 1.399 . S
C1481 C1482 1.385 . S
C1482 H1468 0.931 . S
C1482 C1481 1.385 . S
C1482 C1483 1.389 . S
C1483 C1482 1.389 . S
C1483 C1484 1.387 . S
C1484 H1469 0.930 . S
C1484 C1479 1.390 . S
C1484 C1483 1.387 . S
H1485 C1497 0.930 . S
H1486 C1499 0.930 . S
H1487 C1500 0.930 . S
H1488 C1504 0.959 . S
H1489 C1504 0.959 . S
H1490 C1504 0.961 . S
H1491 C1505 0.960 . S
H1492 C1505 0.961 . S
H1493 C1505 0.959 . S
H1494 C1508 0.929 . S
H1495 C1509 0.931 . S
H1496 C1511 0.930 . S
C1497 H1485 0.930 . S
C1497 C1498 1.399 . S
C1497 C1502 1.399 . S
C1498 C1497 1.399 . S
C1498 C1499 1.376 . S
C1499 H1486 0.930 . S
C1499 C1498 1.376 . S
C1499 C1500 1.388 . S
C1500 H1487 0.930 . S
C1500 C1499 1.388 . S
C1500 C1501 1.390 . S
C1501 C1500 1.390 . S
C1501 C1502 1.394 . S
C1501 C1507 1.465 . S
C1502 C1497 1.399 . S
C1502 C1501 1.394 . S
C1502 C1503 1.516 . S
C1503 C1502 1.516 . S
C1503 C1504 1.502 . S
C1503 C1505 1.561 . S
C1503 C1506 1.526 . S
C1504 H1488 0.959 . S
C1504 H1489 0.959 . S
C1504 H1490 0.961 . S
C1504 C1503 1.502 . S
C1505 H1491 0.960 . S
C1505 H1492 0.961 . S
C1505 H1493 0.959 . S
C1505 C1503 1.561 . S
C1506 C1503 1.526 . S
C1506 C1507 1.396 . S
C1506 C1511 1.390 . S
C1507 C1501 1.465 . S
C1507 C1506 1.396 . S
C1507 C1508 1.399 . S
C1508 H1494 0.929 . S
C1508 C1507 1.399 . S
C1508 C1509 1.385 . S
C1509 H1495 0.931 . S
C1509 C1508 1.385 . S
C1509 C1510 1.389 . S
C1510 C1509 1.389 . S
C1510 C1511 1.387 . S
C1511 H1496 0.930 . S
C1511 C1506 1.390 . S
C1511 C1510 1.387 . S
H1512 C1524 0.930 . S
H1513 C1526 0.930 . S
H1514 C1527 0.930 . S
H1515 C1531 0.964 . S
H1516 C1531 0.991 . S
H1517 C1531 0.927 1_455 S
H1518 C1532 0.954 1_455 S
H1519 C1532 0.967 . S
H1520 C1532 0.959 . S
H1521 C1535 0.929 . S
H1522 C1536 0.931 . S
H1523 C1538 0.930 . S
C1524 H1512 0.930 . S
C1524 C1525 1.399 . S
C1524 C1529 1.399 . S
C1525 C1524 1.399 . S
C1525 C1526 1.376 . S
C1526 H1513 0.930 . S
C1526 C1525 1.376 . S
C1526 C1527 1.388 . S
C1527 H1514 0.930 . S
C1527 C1526 1.388 . S
C1527 C1528 1.390 . S
C1528 C1527 1.390 . S
C1528 C1529 1.394 . S
C1528 C1534 1.465 1_455 S
C1529 C1524 1.399 . S
C1529 C1528 1.394 . S
C1529 C1530 1.512 1_455 S
C1530 C1529 1.512 1_655 S
C1530 C1531 1.501 . S
C1530 C1532 1.561 . S
C1530 C1533 1.530 . S
C1531 H1515 0.964 . S
C1531 H1516 0.991 . S
C1531 H1517 0.927 1_655 S
C1531 C1530 1.501 . S
C1532 H1518 0.954 1_655 S
C1532 H1519 0.967 . S
C1532 H1520 0.959 . S
C1532 C1530 1.561 . S
C1533 C1530 1.530 . S
C1533 C1534 1.396 . S
C1533 C1538 1.390 . S
C1534 C1528 1.465 1_655 S
C1534 C1533 1.396 . S
C1534 C1535 1.399 . S
C1535 H1521 0.929 . S
C1535 C1534 1.399 . S
C1535 C1536 1.385 . S
C1536 H1522 0.931 . S
C1536 C1535 1.385 . S
C1536 C1537 1.389 . S
C1537 C1536 1.389 . S
C1537 C1538 1.387 . S
C1538 H1523 0.930 . S
C1538 C1533 1.390 . S
C1538 C1537 1.387 . S
H1539 C1551 0.930 . S
H1540 C1553 0.930 . S
H1541 C1554 0.930 . S
H1542 C1558 0.963 . S
H1543 C1558 0.987 . S
H1544 C1558 0.931 1_545 S
H1545 C1559 0.944 1_545 S
H1546 C1559 0.975 . S
H1547 C1559 0.961 . S
H1548 C1562 0.929 . S
H1549 C1563 0.931 . S
H1550 C1565 0.930 . S
C1551 H1539 0.930 . S
C1551 C1552 1.399 . S
C1551 C1556 1.399 . S
C1552 C1551 1.399 . S
C1552 C1553 1.376 . S
C1553 H1540 0.930 . S
C1553 C1552 1.376 . S
C1553 C1554 1.388 . S
C1554 H1541 0.930 . S
C1554 C1553 1.388 . S
C1554 C1555 1.390 . S
C1555 C1554 1.390 . S
C1555 C1556 1.394 . S
C1555 C1561 1.465 1_545 S
C1556 C1551 1.399 . S
C1556 C1555 1.394 . S
C1556 C1557 1.510 1_545 S
C1557 C1556 1.510 1_565 S
C1557 C1558 1.501 . S
C1557 C1559 1.561 . S
C1557 C1560 1.531 . S
C1558 H1542 0.963 . S
C1558 H1543 0.987 . S
C1558 H1544 0.931 1_565 S
C1558 C1557 1.501 . S
C1559 H1545 0.944 1_565 S
C1559 H1546 0.975 . S
C1559 H1547 0.961 . S
C1559 C1557 1.561 . S
C1560 C1557 1.531 . S
C1560 C1561 1.396 . S
C1560 C1565 1.390 . S
C1561 C1555 1.465 1_565 S
C1561 C1560 1.396 . S
C1561 C1562 1.399 . S
C1562 H1548 0.929 . S
C1562 C1561 1.399 . S
C1562 C1563 1.385 . S
C1563 H1549 0.931 . S
C1563 C1562 1.385 . S
C1563 C1564 1.389 . S
C1564 C1563 1.389 . S
C1564 C1565 1.387 . S
C1565 H1550 0.930 . S
C1565 C1560 1.390 . S
C1565 C1564 1.387 . S
H1566 C1578 0.930 . S
H1567 C1580 0.930 . S
H1568 C1581 0.930 . S
H1569 C1585 0.963 . S
H1570 C1585 0.987 . S
H1571 C1585 0.931 1_655 S
H1572 C1586 0.960 1_655 S
H1573 C1586 0.961 . S
H1574 C1586 0.959 . S
H1575 C1589 0.929 . S
H1576 C1590 0.931 . S
H1577 C1592 0.930 . S
C1578 H1566 0.930 . S
C1578 C1579 1.399 . S
C1578 C1583 1.399 . S
C1579 C1578 1.399 . S
C1579 C1580 1.376 . S
C1580 H1567 0.930 . S
C1580 C1579 1.376 . S
C1580 C1581 1.388 . S
C1581 H1568 0.930 . S
C1581 C1580 1.388 . S
C1581 C1582 1.390 . S
C1582 C1581 1.390 . S
C1582 C1583 1.394 . S
C1582 C1588 1.465 1_655 S
C1583 C1578 1.399 . S
C1583 C1582 1.394 . S
C1583 C1584 1.515 1_655 S
C1584 C1583 1.515 1_455 S
C1584 C1585 1.501 . S
C1584 C1586 1.561 . S
C1584 C1587 1.527 . S
C1585 H1569 0.963 . S
C1585 H1570 0.987 . S
C1585 H1571 0.931 1_455 S
C1585 C1584 1.501 . S
C1586 H1572 0.960 1_455 S
C1586 H1573 0.961 . S
C1586 H1574 0.959 . S
C1586 C1584 1.561 . S
C1587 C1584 1.527 . S
C1587 C1588 1.396 . S
C1587 C1592 1.390 . S
C1588 C1582 1.465 1_455 S
C1588 C1587 1.396 . S
C1588 C1589 1.399 . S
C1589 H1575 0.929 . S
C1589 C1588 1.399 . S
C1589 C1590 1.385 . S
C1590 H1576 0.931 . S
C1590 C1589 1.385 . S
C1590 C1591 1.389 . S
C1591 C1590 1.389 . S
C1591 C1592 1.387 . S
C1592 H1577 0.930 . S
C1592 C1587 1.390 . S
C1592 C1591 1.387 . S
H1593 C1605 0.930 . S
H1594 C1607 0.930 . S
H1595 C1608 0.930 . S
H1596 C1612 0.961 . S
H1597 C1612 0.976 . S
H1598 C1612 0.943 1_545 S
H1599 C1613 0.950 1_545 S
H1600 C1613 0.970 . S
H1601 C1613 0.960 . S
H1602 C1616 0.929 . S
H1603 C1617 0.931 . S
H1604 C1619 0.930 . S
C1605 H1593 0.930 . S
C1605 C1606 1.399 . S
C1605 C1610 1.399 . S
C1606 C1605 1.399 . S
C1606 C1607 1.376 . S
C1607 H1594 0.930 . S
C1607 C1606 1.376 . S
C1607 C1608 1.388 . S
C1608 H1595 0.930 . S
C1608 C1607 1.388 . S
C1608 C1609 1.390 . S
C1609 C1608 1.390 . S
C1609 C1610 1.394 . S
C1609 C1615 1.465 1_545 S
C1610 C1605 1.399 . S
C1610 C1609 1.394 . S
C1610 C1611 1.516 1_545 S
C1611 C1610 1.516 1_565 S
C1611 C1612 1.502 . S
C1611 C1613 1.561 . S
C1611 C1614 1.526 . S
C1612 H1596 0.961 . S
C1612 H1597 0.976 . S
C1612 H1598 0.943 1_565 S
C1612 C1611 1.502 . S
C1613 H1599 0.950 1_565 S
C1613 H1600 0.970 . S
C1613 H1601 0.960 . S
C1613 C1611 1.561 . S
C1614 C1611 1.526 . S
C1614 C1615 1.396 . S
C1614 C1619 1.390 . S
C1615 C1609 1.465 1_565 S
C1615 C1614 1.396 . S
C1615 C1616 1.399 . S
C1616 H1602 0.929 . S
C1616 C1615 1.399 . S
C1616 C1617 1.385 . S
C1617 H1603 0.931 . S
C1617 C1616 1.385 . S
C1617 C1618 1.389 . S
C1618 C1617 1.389 . S
C1618 C1619 1.387 . S
C1619 H1604 0.930 . S
C1619 C1614 1.390 . S
C1619 C1618 1.387 . S
H1620 C1632 0.930 . S
H1621 C1634 0.930 . S
H1622 C1635 0.930 . S
H1623 C1639 0.963 . S
H1624 C1639 0.987 . S
H1625 C1639 0.931 1_565 S
H1626 C1640 0.960 1_565 S
H1627 C1640 0.961 . S
H1628 C1640 0.959 . S
H1629 C1643 0.929 . S
H1630 C1644 0.931 . S
H1631 C1646 0.930 . S
C1632 H1620 0.930 . S
C1632 C1633 1.399 . S
C1632 C1637 1.399 . S
C1633 C1632 1.399 . S
C1633 C1634 1.376 . S
C1634 H1621 0.930 . S
C1634 C1633 1.376 . S
C1634 C1635 1.388 . S
C1635 H1622 0.930 . S
C1635 C1634 1.388 . S
C1635 C1636 1.390 . S
C1636 C1635 1.390 . S
C1636 C1637 1.394 . S
C1636 C1642 1.465 1_565 S
C1637 C1632 1.399 . S
C1637 C1636 1.394 . S
C1637 C1638 1.515 1_565 S
C1638 C1637 1.515 1_545 S
C1638 C1639 1.501 . S
C1638 C1640 1.561 . S
C1638 C1641 1.527 . S
C1639 H1623 0.963 . S
C1639 H1624 0.987 . S
C1639 H1625 0.931 1_545 S
C1639 C1638 1.501 . S
C1640 H1626 0.960 1_545 S
C1640 H1627 0.961 . S
C1640 H1628 0.959 . S
C1640 C1638 1.561 . S
C1641 C1638 1.527 . S
C1641 C1642 1.396 . S
C1641 C1646 1.390 . S
C1642 C1636 1.465 1_545 S
C1642 C1641 1.396 . S
C1642 C1643 1.399 . S
C1643 H1629 0.929 . S
C1643 C1642 1.399 . S
C1643 C1644 1.385 . S
C1644 H1630 0.931 . S
C1644 C1643 1.385 . S
C1644 C1645 1.389 . S
C1645 C1644 1.389 . S
C1645 C1646 1.387 . S
C1646 H1631 0.930 . S
C1646 C1641 1.390 . S
C1646 C1645 1.387 . S
H1647 C1659 0.930 . S
H1648 C1661 0.930 . S
H1649 C1662 0.930 . S
H1650 C1666 0.961 . S
H1651 C1666 0.970 . S
H1652 C1666 0.949 1_655 S
H1653 C1667 0.957 1_655 S
H1654 C1667 0.964 . S
H1655 C1667 0.959 . S
H1656 C1670 0.929 . S
H1657 C1671 0.931 . S
H1658 C1673 0.930 . S
C1659 H1647 0.930 . S
C1659 C1660 1.399 . S
C1659 C1664 1.399 . S
C1660 C1659 1.399 . S
C1660 C1661 1.376 . S
C1661 H1648 0.930 . S
C1661 C1660 1.376 . S
C1661 C1662 1.388 . S
C1662 H1649 0.930 . S
C1662 C1661 1.388 . S
C1662 C1663 1.390 . S
C1663 C1662 1.390 . S
C1663 C1664 1.394 . S
C1663 C1669 1.465 1_655 S
C1664 C1659 1.399 . S
C1664 C1663 1.394 . S
C1664 C1665 1.520 1_655 S
C1665 C1664 1.520 1_455 S
C1665 C1666 1.502 . S
C1665 C1667 1.561 . S
C1665 C1668 1.522 . S
C1666 H1650 0.961 . S
C1666 H1651 0.970 . S
C1666 H1652 0.949 1_455 S
C1666 C1665 1.502 . S
C1667 H1653 0.957 1_455 S
C1667 H1654 0.964 . S
C1667 H1655 0.959 . S
C1667 C1665 1.561 . S
C1668 C1665 1.522 . S
C1668 C1669 1.396 . S
C1668 C1673 1.390 . S
C1669 C1663 1.465 1_455 S
C1669 C1668 1.396 . S
C1669 C1670 1.399 . S
C1670 H1656 0.929 . S
C1670 C1669 1.399 . S
C1670 C1671 1.385 . S
C1671 H1657 0.931 . S
C1671 C1670 1.385 . S
C1671 C1672 1.389 . S
C1672 C1671 1.389 . S
C1672 C1673 1.387 . S
C1673 H1658 0.930 . S
C1673 C1668 1.390 . S
C1673 C1672 1.387 . S
H1674 C1686 0.930 . S
H1675 C1688 0.930 . S
H1676 C1689 0.930 . S
H1677 C1693 0.963 . S
H1678 C1693 0.987 . S
H1679 C1693 0.931 1_565 S
H1680 C1694 0.960 1_565 S
H1681 C1694 0.961 . S
H1682 C1694 0.959 . S
H1683 C1697 0.929 . S
H1684 C1698 0.931 . S
H1685 C1700 0.930 . S
C1686 H1674 0.930 . S
C1686 C1687 1.399 . S
C1686 C1691 1.399 . S
C1687 C1686 1.399 . S
C1687 C1688 1.376 . S
C1688 H1675 0.930 . S
C1688 C1687 1.376 . S
C1688 C1689 1.388 . S
C1689 H1676 0.930 . S
C1689 C1688 1.388 . S
C1689 C1690 1.390 . S
C1690 C1689 1.390 . S
C1690 C1691 1.394 . S
C1690 C1696 1.465 1_565 S
C1691 C1686 1.399 . S
C1691 C1690 1.394 . S
C1691 C1692 1.515 1_565 S
C1692 C1691 1.515 1_545 S
C1692 C1693 1.501 . S
C1692 C1694 1.561 . S
C1692 C1695 1.527 . S
C1693 H1677 0.963 . S
C1693 H1678 0.987 . S
C1693 H1679 0.931 1_545 S
C1693 C1692 1.501 . S
C1694 H1680 0.960 1_545 S
C1694 H1681 0.961 . S
C1694 H1682 0.959 . S
C1694 C1692 1.561 . S
C1695 C1692 1.527 . S
C1695 C1696 1.396 . S
C1695 C1700 1.390 . S
C1696 C1690 1.465 1_545 S
C1696 C1695 1.396 . S
C1696 C1697 1.399 . S
C1697 H1683 0.929 . S
C1697 C1696 1.399 . S
C1697 C1698 1.385 . S
C1698 H1684 0.931 . S
C1698 C1697 1.385 . S
C1698 C1699 1.389 . S
C1699 C1698 1.389 . S
C1699 C1700 1.387 . S
C1700 H1685 0.930 . S
C1700 C1695 1.390 . S
C1700 C1699 1.387 . S
H1701 C1713 0.930 . S
H1702 C1715 0.930 . S
H1703 C1716 0.930 . S
H1704 C1720 0.961 . S
H1705 C1720 0.970 . S
H1706 C1720 0.949 1_655 S
H1707 C1721 0.957 1_655 S
H1708 C1721 0.964 . S
H1709 C1721 0.959 . S
H1710 C1724 0.929 . S
H1711 C1725 0.931 . S
H1712 C1727 0.930 . S
C1713 H1701 0.930 . S
C1713 C1714 1.399 . S
C1713 C1718 1.399 . S
C1714 C1713 1.399 . S
C1714 C1715 1.376 . S
C1715 H1702 0.930 . S
C1715 C1714 1.376 . S
C1715 C1716 1.388 . S
C1716 H1703 0.930 . S
C1716 C1715 1.388 . S
C1716 C1717 1.390 . S
C1717 C1716 1.390 . S
C1717 C1718 1.394 . S
C1717 C1723 1.465 1_655 S
C1718 C1713 1.399 . S
C1718 C1717 1.394 . S
C1718 C1719 1.520 1_655 S
C1719 C1718 1.520 1_455 S
C1719 C1720 1.502 . S
C1719 C1721 1.561 . S
C1719 C1722 1.522 . S
C1720 H1704 0.961 . S
C1720 H1705 0.970 . S
C1720 H1706 0.949 1_455 S
C1720 C1719 1.502 . S
C1721 H1707 0.957 1_455 S
C1721 H1708 0.964 . S
C1721 H1709 0.959 . S
C1721 C1719 1.561 . S
C1722 C1719 1.522 . S
C1722 C1723 1.396 . S
C1722 C1727 1.390 . S
C1723 C1717 1.465 1_455 S
C1723 C1722 1.396 . S
C1723 C1724 1.399 . S
C1724 H1710 0.929 . S
C1724 C1723 1.399 . S
C1724 C1725 1.385 . S
C1725 H1711 0.931 . S
C1725 C1724 1.385 . S
C1725 C1726 1.389 . S
C1726 C1725 1.389 . S
C1726 C1727 1.387 . S
C1727 H1712 0.930 . S
C1727 C1722 1.390 . S
C1727 C1726 1.387 . S
H1728 C1740 0.930 . S
H1729 C1742 0.930 . S
H1730 C1743 0.930 . S
H1731 C1747 0.960 . S
H1732 C1747 0.967 . S
H1733 C1747 0.952 1_556 S
H1734 C1748 0.959 . S
H1735 C1748 0.962 1_554 S
H1736 C1748 0.959 1_554 S
H1737 C1751 0.929 . S
H1738 C1752 0.931 . S
H1739 C1754 0.930 . S
C1740 H1728 0.930 . S
C1740 C1741 1.399 . S
C1740 C1745 1.399 . S
C1741 C1740 1.399 . S
C1741 C1742 1.376 . S
C1742 H1729 0.930 . S
C1742 C1741 1.376 . S
C1742 C1743 1.388 . S
C1743 H1730 0.930 . S
C1743 C1742 1.388 . S
C1743 C1744 1.390 . S
C1744 C1743 1.390 . S
C1744 C1745 1.394 . S
C1744 C1750 1.465 1_556 S
C1745 C1740 1.399 . S
C1745 C1744 1.394 . S
C1745 C1746 1.515 . S
C1746 C1745 1.515 . S
C1746 C1747 1.502 1_556 S
C1746 C1748 1.561 . S
C1746 C1749 1.527 1_556 S
C1747 H1731 0.960 . S
C1747 H1732 0.967 . S
C1747 H1733 0.952 1_554 S
C1747 C1746 1.502 1_554 S
C1748 H1734 0.959 . S
C1748 H1735 0.962 1_556 S
C1748 H1736 0.959 1_556 S
C1748 C1746 1.561 . S
C1749 C1746 1.527 1_554 S
C1749 C1750 1.396 . S
C1749 C1754 1.390 . S
C1750 C1744 1.465 1_554 S
C1750 C1749 1.396 . S
C1750 C1751 1.399 . S
C1751 H1737 0.929 . S
C1751 C1750 1.399 . S
C1751 C1752 1.385 . S
C1752 H1738 0.931 . S
C1752 C1751 1.385 . S
C1752 C1753 1.389 . S
C1753 C1752 1.389 . S
C1753 C1754 1.387 . S
C1754 H1739 0.930 . S
C1754 C1749 1.390 . S
C1754 C1753 1.387 . S
H1755 C1767 0.930 . S
H1756 C1769 0.930 . S
H1757 C1770 0.930 . S
H1758 C1774 0.961 . S
H1759 C1774 0.974 . S
H1760 C1774 0.945 1_556 S
H1761 C1775 0.961 . S
H1762 C1775 0.960 1_554 S
H1763 C1775 0.959 1_554 S
H1764 C1778 0.929 . S
H1765 C1779 0.931 . S
H1766 C1781 0.930 . S
C1767 H1755 0.930 . S
C1767 C1768 1.399 . S
C1767 C1772 1.399 . S
C1768 C1767 1.399 . S
C1768 C1769 1.376 . S
C1769 H1756 0.930 . S
C1769 C1768 1.376 . S
C1769 C1770 1.388 . S
C1770 H1757 0.930 . S
C1770 C1769 1.388 . S
C1770 C1771 1.390 . S
C1771 C1770 1.390 . S
C1771 C1772 1.394 . S
C1771 C1777 1.465 1_556 S
C1772 C1767 1.399 . S
C1772 C1771 1.394 . S
C1772 C1773 1.514 . S
C1773 C1772 1.514 . S
C1773 C1774 1.502 1_556 S
C1773 C1775 1.561 . S
C1773 C1776 1.528 1_556 S
C1774 H1758 0.961 . S
C1774 H1759 0.974 . S
C1774 H1760 0.945 1_554 S
C1774 C1773 1.502 1_554 S
C1775 H1761 0.961 . S
C1775 H1762 0.960 1_556 S
C1775 H1763 0.959 1_556 S
C1775 C1773 1.561 . S
C1776 C1773 1.528 1_554 S
C1776 C1777 1.396 . S
C1776 C1781 1.390 . S
C1777 C1771 1.465 1_554 S
C1777 C1776 1.396 . S
C1777 C1778 1.399 . S
C1778 H1764 0.929 . S
C1778 C1777 1.399 . S
C1778 C1779 1.385 . S
C1779 H1765 0.931 . S
C1779 C1778 1.385 . S
C1779 C1780 1.389 . S
C1780 C1779 1.389 . S
C1780 C1781 1.387 . S
C1781 H1766 0.930 . S
C1781 C1776 1.390 . S
C1781 C1780 1.387 . S
H1782 C1794 0.930 . S
H1783 C1796 0.930 . S
H1784 C1797 0.930 . S
H1785 C1801 0.961 . S
H1786 C1801 0.970 . S
H1787 C1801 0.949 1_556 S
H1788 C1802 0.961 . S
H1789 C1802 0.960 1_554 S
H1790 C1802 0.959 1_554 S
H1791 C1805 0.929 . S
H1792 C1806 0.931 . S
H1793 C1808 0.930 . S
C1794 H1782 0.930 . S
C1794 C1795 1.399 . S
C1794 C1799 1.399 . S
C1795 C1794 1.399 . S
C1795 C1796 1.376 . S
C1796 H1783 0.930 . S
C1796 C1795 1.376 . S
C1796 C1797 1.388 . S
C1797 H1784 0.930 . S
C1797 C1796 1.388 . S
C1797 C1798 1.390 . S
C1798 C1797 1.390 . S
C1798 C1799 1.394 . S
C1798 C1804 1.465 1_556 S
C1799 C1794 1.399 . S
C1799 C1798 1.394 . S
C1799 C1800 1.515 . S
C1800 C1799 1.515 . S
C1800 C1801 1.502 1_556 S
C1800 C1802 1.561 . S
C1800 C1803 1.527 1_556 S
C1801 H1785 0.961 . S
C1801 H1786 0.970 . S
C1801 H1787 0.949 1_554 S
C1801 C1800 1.502 1_554 S
C1802 H1788 0.961 . S
C1802 H1789 0.960 1_556 S
C1802 H1790 0.959 1_556 S
C1802 C1800 1.561 . S
C1803 C1800 1.527 1_554 S
C1803 C1804 1.396 . S
C1803 C1808 1.390 . S
C1804 C1798 1.465 1_554 S
C1804 C1803 1.396 . S
C1804 C1805 1.399 . S
C1805 H1791 0.929 . S
C1805 C1804 1.399 . S
C1805 C1806 1.385 . S
C1806 H1792 0.931 . S
C1806 C1805 1.385 . S
C1806 C1807 1.389 . S
C1807 C1806 1.389 . S
C1807 C1808 1.387 . S
C1808 H1793 0.930 . S
C1808 C1803 1.390 . S
C1808 C1807 1.387 . S
H1809 C1821 0.930 . S
H1810 C1823 0.930 . S
H1811 C1824 0.930 . S
H1812 C1828 0.963 . S
H1813 C1828 0.986 . S
H1814 C1828 0.931 1_556 S
H1815 C1829 0.961 1_556 S
H1816 C1829 0.960 . S
H1817 C1829 0.959 . S
H1818 C1832 0.929 . S
H1819 C1833 0.931 . S
H1820 C1835 0.930 . S
C1821 H1809 0.930 . S
C1821 C1822 1.399 . S
C1821 C1826 1.399 . S
C1822 C1821 1.399 . S
C1822 C1823 1.376 . S
C1823 H1810 0.930 . S
C1823 C1822 1.376 . S
C1823 C1824 1.388 . S
C1824 H1811 0.930 . S
C1824 C1823 1.388 . S
C1824 C1825 1.390 . S
C1825 C1824 1.390 . S
C1825 C1826 1.394 . S
C1825 C1831 1.465 1_556 S
C1826 C1821 1.399 . S
C1826 C1825 1.394 . S
C1826 C1827 1.515 1_556 S
C1827 C1826 1.515 1_554 S
C1827 C1828 1.501 . S
C1827 C1829 1.561 . S
C1827 C1830 1.526 . S
C1828 H1812 0.963 . S
C1828 H1813 0.986 . S
C1828 H1814 0.931 1_554 S
C1828 C1827 1.501 . S
C1829 H1815 0.961 1_554 S
C1829 H1816 0.960 . S
C1829 H1817 0.959 . S
C1829 C1827 1.561 . S
C1830 C1827 1.526 . S
C1830 C1831 1.396 . S
C1830 C1835 1.390 . S
C1831 C1825 1.465 1_554 S
C1831 C1830 1.396 . S
C1831 C1832 1.399 . S
C1832 H1818 0.929 . S
C1832 C1831 1.399 . S
C1832 C1833 1.385 . S
C1833 H1819 0.931 . S
C1833 C1832 1.385 . S
C1833 C1834 1.389 . S
C1834 C1833 1.389 . S
C1834 C1835 1.387 . S
C1835 H1820 0.930 . S
C1835 C1830 1.390 . S
C1835 C1834 1.387 . S
H1836 C1848 0.930 . S
H1837 C1850 0.930 . S
H1838 C1851 0.930 . S
H1839 C1855 0.959 . S
H1840 C1855 0.959 . S
H1841 C1855 0.961 . S
H1842 C1856 0.960 . S
H1843 C1856 0.961 . S
H1844 C1856 0.959 . S
H1845 C1859 0.929 . S
H1846 C1860 0.931 . S
H1847 C1862 0.930 . S
C1848 H1836 0.930 . S
C1848 C1849 1.399 . S
C1848 C1853 1.399 . S
C1849 C1848 1.399 . S
C1849 C1850 1.376 . S
C1850 H1837 0.930 . S
C1850 C1849 1.376 . S
C1850 C1851 1.388 . S
C1851 H1838 0.930 . S
C1851 C1850 1.388 . S
C1851 C1852 1.390 . S
C1852 C1851 1.390 . S
C1852 C1853 1.394 . S
C1852 C1858 1.465 . S
C1853 C1848 1.399 . S
C1853 C1852 1.394 . S
C1853 C1854 1.516 . S
C1854 C1853 1.516 . S
C1854 C1855 1.502 . S
C1854 C1856 1.561 . S
C1854 C1857 1.526 . S
C1855 H1839 0.959 . S
C1855 H1840 0.959 . S
C1855 H1841 0.961 . S
C1855 C1854 1.502 . S
C1856 H1842 0.960 . S
C1856 H1843 0.961 . S
C1856 H1844 0.959 . S
C1856 C1854 1.561 . S
C1857 C1854 1.526 . S
C1857 C1858 1.396 . S
C1857 C1862 1.390 . S
C1858 C1852 1.465 . S
C1858 C1857 1.396 . S
C1858 C1859 1.399 . S
C1859 H1845 0.929 . S
C1859 C1858 1.399 . S
C1859 C1860 1.385 . S
C1860 H1846 0.931 . S
C1860 C1859 1.385 . S
C1860 C1861 1.389 . S
C1861 C1860 1.389 . S
C1861 C1862 1.387 . S
C1862 H1847 0.930 . S
C1862 C1857 1.390 . S
C1862 C1861 1.387 . S
H1863 C1875 0.930 . S
H1864 C1877 0.930 . S
H1865 C1878 0.930 . S
H1866 C1882 0.959 . S
H1867 C1882 0.959 . S
H1868 C1882 0.961 . S
H1869 C1883 0.960 . S
H1870 C1883 0.961 . S
H1871 C1883 0.959 . S
H1872 C1886 0.929 . S
H1873 C1887 0.931 . S
H1874 C1889 0.930 . S
C1875 H1863 0.930 . S
C1875 C1876 1.399 . S
C1875 C1880 1.399 . S
C1876 C1875 1.399 . S
C1876 C1877 1.376 . S
C1877 H1864 0.930 . S
C1877 C1876 1.376 . S
C1877 C1878 1.388 . S
C1878 H1865 0.930 . S
C1878 C1877 1.388 . S
C1878 C1879 1.390 . S
C1879 C1878 1.390 . S
C1879 C1880 1.394 . S
C1879 C1885 1.465 . S
C1880 C1875 1.399 . S
C1880 C1879 1.394 . S
C1880 C1881 1.516 . S
C1881 C1880 1.516 . S
C1881 C1882 1.502 . S
C1881 C1883 1.561 . S
C1881 C1884 1.526 . S
C1882 H1866 0.959 . S
C1882 H1867 0.959 . S
C1882 H1868 0.961 . S
C1882 C1881 1.502 . S
C1883 H1869 0.960 . S
C1883 H1870 0.961 . S
C1883 H1871 0.959 . S
C1883 C1881 1.561 . S
C1884 C1881 1.526 . S
C1884 C1885 1.396 . S
C1884 C1889 1.390 . S
C1885 C1879 1.465 . S
C1885 C1884 1.396 . S
C1885 C1886 1.399 . S
C1886 H1872 0.929 . S
C1886 C1885 1.399 . S
C1886 C1887 1.385 . S
C1887 H1873 0.931 . S
C1887 C1886 1.385 . S
C1887 C1888 1.389 . S
C1888 C1887 1.389 . S
C1888 C1889 1.387 . S
C1889 H1874 0.930 . S
C1889 C1884 1.390 . S
C1889 C1888 1.387 . S
H1890 C1902 0.930 . S
H1891 C1904 0.930 . S
H1892 C1905 0.930 . S
H1893 C1909 0.959 . S
H1894 C1909 0.959 . S
H1895 C1909 0.961 . S
H1896 C1910 0.960 . S
H1897 C1910 0.961 . S
H1898 C1910 0.959 . S
H1899 C1913 0.929 . S
H1900 C1914 0.931 . S
H1901 C1916 0.930 . S
C1902 H1890 0.930 . S
C1902 C1903 1.399 . S
C1902 C1907 1.399 . S
C1903 C1902 1.399 . S
C1903 C1904 1.376 . S
C1904 H1891 0.930 . S
C1904 C1903 1.376 . S
C1904 C1905 1.388 . S
C1905 H1892 0.930 . S
C1905 C1904 1.388 . S
C1905 C1906 1.390 . S
C1906 C1905 1.390 . S
C1906 C1907 1.394 . S
C1906 C1912 1.465 . S
C1907 C1902 1.399 . S
C1907 C1906 1.394 . S
C1907 C1908 1.516 . S
C1908 C1907 1.516 . S
C1908 C1909 1.502 . S
C1908 C1910 1.561 . S
C1908 C1911 1.526 . S
C1909 H1893 0.959 . S
C1909 H1894 0.959 . S
C1909 H1895 0.961 . S
C1909 C1908 1.502 . S
C1910 H1896 0.960 . S
C1910 H1897 0.961 . S
C1910 H1898 0.959 . S
C1910 C1908 1.561 . S
C1911 C1908 1.526 . S
C1911 C1912 1.396 . S
C1911 C1916 1.390 . S
C1912 C1906 1.465 . S
C1912 C1911 1.396 . S
C1912 C1913 1.399 . S
C1913 H1899 0.929 . S
C1913 C1912 1.399 . S
C1913 C1914 1.385 . S
C1914 H1900 0.931 . S
C1914 C1913 1.385 . S
C1914 C1915 1.389 . S
C1915 C1914 1.389 . S
C1915 C1916 1.387 . S
C1916 H1901 0.930 . S
C1916 C1911 1.390 . S
C1916 C1915 1.387 . S
H1917 C1929 0.930 . S
H1918 C1931 0.930 . S
H1919 C1932 0.930 . S
H1920 C1936 0.959 . S
H1921 C1936 0.959 . S
H1922 C1936 0.961 . S
H1923 C1937 0.960 . S
H1924 C1937 0.961 . S
H1925 C1937 0.959 . S
H1926 C1940 0.929 . S
H1927 C1941 0.931 . S
H1928 C1943 0.930 . S
C1929 H1917 0.930 . S
C1929 C1930 1.399 . S
C1929 C1934 1.399 . S
C1930 C1929 1.399 . S
C1930 C1931 1.376 . S
C1931 H1918 0.930 . S
C1931 C1930 1.376 . S
C1931 C1932 1.388 . S
C1932 H1919 0.930 . S
C1932 C1931 1.388 . S
C1932 C1933 1.390 . S
C1933 C1932 1.390 . S
C1933 C1934 1.394 . S
C1933 C1939 1.465 . S
C1934 C1929 1.399 . S
C1934 C1933 1.394 . S
C1934 C1935 1.516 . S
C1935 C1934 1.516 . S
C1935 C1936 1.502 . S
C1935 C1937 1.561 . S
C1935 C1938 1.526 . S
C1936 H1920 0.959 . S
C1936 H1921 0.959 . S
C1936 H1922 0.961 . S
C1936 C1935 1.502 . S
C1937 H1923 0.960 . S
C1937 H1924 0.961 . S
C1937 H1925 0.959 . S
C1937 C1935 1.561 . S
C1938 C1935 1.526 . S
C1938 C1939 1.396 . S
C1938 C1943 1.390 . S
C1939 C1933 1.465 . S
C1939 C1938 1.396 . S
C1939 C1940 1.399 . S
C1940 H1926 0.929 . S
C1940 C1939 1.399 . S
C1940 C1941 1.385 . S
C1941 H1927 0.931 . S
C1941 C1940 1.385 . S
C1941 C1942 1.389 . S
C1942 C1941 1.389 . S
C1942 C1943 1.387 . S
C1943 H1928 0.930 . S
C1943 C1938 1.390 . S
C1943 C1942 1.387 . S
H1944 C1956 0.930 . S
H1945 C1958 0.930 . S
H1946 C1959 0.930 . S
H1947 C1963 0.959 . S
H1948 C1963 0.959 . S
H1949 C1963 0.961 . S
H1950 C1964 0.960 . S
H1951 C1964 0.961 . S
H1952 C1964 0.959 . S
H1953 C1967 0.929 . S
H1954 C1968 0.931 . S
H1955 C1970 0.930 . S
C1956 H1944 0.930 . S
C1956 C1957 1.399 . S
C1956 C1961 1.399 . S
C1957 C1956 1.399 . S
C1957 C1958 1.376 . S
C1958 H1945 0.930 . S
C1958 C1957 1.376 . S
C1958 C1959 1.388 . S
C1959 H1946 0.930 . S
C1959 C1958 1.388 . S
C1959 C1960 1.390 . S
C1960 C1959 1.390 . S
C1960 C1961 1.394 . S
C1960 C1966 1.465 . S
C1961 C1956 1.399 . S
C1961 C1960 1.394 . S
C1961 C1962 1.516 . S
C1962 C1961 1.516 . S
C1962 C1963 1.502 . S
C1962 C1964 1.561 . S
C1962 C1965 1.526 . S
C1963 H1947 0.959 . S
C1963 H1948 0.959 . S
C1963 H1949 0.961 . S
C1963 C1962 1.502 . S
C1964 H1950 0.960 . S
C1964 H1951 0.961 . S
C1964 H1952 0.959 . S
C1964 C1962 1.561 . S
C1965 C1962 1.526 . S
C1965 C1966 1.396 . S
C1965 C1970 1.390 . S
C1966 C1960 1.465 . S
C1966 C1965 1.396 . S
C1966 C1967 1.399 . S
C1967 H1953 0.929 . S
C1967 C1966 1.399 . S
C1967 C1968 1.385 . S
C1968 H1954 0.931 . S
C1968 C1967 1.385 . S
C1968 C1969 1.389 . S
C1969 C1968 1.389 . S
C1969 C1970 1.387 . S
C1970 H1955 0.930 . S
C1970 C1965 1.390 . S
C1970 C1969 1.387 . S
H1971 C1983 0.930 . S
H1972 C1985 0.930 . S
H1973 C1986 0.930 . S
H1974 C1990 0.959 . S
H1975 C1990 0.959 . S
H1976 C1990 0.961 . S
H1977 C1991 0.960 . S
H1978 C1991 0.961 . S
H1979 C1991 0.959 . S
H1980 C1994 0.929 . S
H1981 C1995 0.931 . S
H1982 C1997 0.930 . S
C1983 H1971 0.930 . S
C1983 C1984 1.399 . S
C1983 C1988 1.399 . S
C1984 C1983 1.399 . S
C1984 C1985 1.376 . S
C1985 H1972 0.930 . S
C1985 C1984 1.376 . S
C1985 C1986 1.388 . S
C1986 H1973 0.930 . S
C1986 C1985 1.388 . S
C1986 C1987 1.390 . S
C1987 C1986 1.390 . S
C1987 C1988 1.394 . S
C1987 C1993 1.465 . S
C1988 C1983 1.399 . S
C1988 C1987 1.394 . S
C1988 C1989 1.516 . S
C1989 C1988 1.516 . S
C1989 C1990 1.502 . S
C1989 C1991 1.561 . S
C1989 C1992 1.526 . S
C1990 H1974 0.959 . S
C1990 H1975 0.959 . S
C1990 H1976 0.961 . S
C1990 C1989 1.502 . S
C1991 H1977 0.960 . S
C1991 H1978 0.961 . S
C1991 H1979 0.959 . S
C1991 C1989 1.561 . S
C1992 C1989 1.526 . S
C1992 C1993 1.396 . S
C1992 C1997 1.390 . S
C1993 C1987 1.465 . S
C1993 C1992 1.396 . S
C1993 C1994 1.399 . S
C1994 H1980 0.929 . S
C1994 C1993 1.399 . S
C1994 C1995 1.385 . S
C1995 H1981 0.931 . S
C1995 C1994 1.385 . S
C1995 C1996 1.389 . S
C1996 C1995 1.389 . S
C1996 C1997 1.387 . S
C1997 H1982 0.930 . S
C1997 C1992 1.390 . S
C1997 C1996 1.387 . S
H1998 C2010 0.930 . S
H1999 C2012 0.930 . S
H2000 C2013 0.930 . S
H2001 C2017 0.959 . S
H2002 C2017 0.959 . S
H2003 C2017 0.961 . S
H2004 C2018 0.960 . S
H2005 C2018 0.961 . S
H2006 C2018 0.959 . S
H2007 C2021 0.929 . S
H2008 C2022 0.931 . S
H2009 C2024 0.930 . S
C2010 H1998 0.930 . S
C2010 C2011 1.399 . S
C2010 C2015 1.399 . S
C2011 C2010 1.399 . S
C2011 C2012 1.376 . S
C2012 H1999 0.930 . S
C2012 C2011 1.376 . S
C2012 C2013 1.388 . S
C2013 H2000 0.930 . S
C2013 C2012 1.388 . S
C2013 C2014 1.390 . S
C2014 C2013 1.390 . S
C2014 C2015 1.394 . S
C2014 C2020 1.465 . S
C2015 C2010 1.399 . S
C2015 C2014 1.394 . S
C2015 C2016 1.516 . S
C2016 C2015 1.516 . S
C2016 C2017 1.502 . S
C2016 C2018 1.561 . S
C2016 C2019 1.526 . S
C2017 H2001 0.959 . S
C2017 H2002 0.959 . S
C2017 H2003 0.961 . S
C2017 C2016 1.502 . S
C2018 H2004 0.960 . S
C2018 H2005 0.961 . S
C2018 H2006 0.959 . S
C2018 C2016 1.561 . S
C2019 C2016 1.526 . S
C2019 C2020 1.396 . S
C2019 C2024 1.390 . S
C2020 C2014 1.465 . S
C2020 C2019 1.396 . S
C2020 C2021 1.399 . S
C2021 H2007 0.929 . S
C2021 C2020 1.399 . S
C2021 C2022 1.385 . S
C2022 H2008 0.931 . S
C2022 C2021 1.385 . S
C2022 C2023 1.389 . S
C2023 C2022 1.389 . S
C2023 C2024 1.387 . S
C2024 H2009 0.930 . S
C2024 C2019 1.390 . S
C2024 C2023 1.387 . S
H2025 C2037 0.930 . S
H2026 C2039 0.930 . S
H2027 C2040 0.930 . S
H2028 C2044 0.959 . S
H2029 C2044 0.959 . S
H2030 C2044 0.961 . S
H2031 C2045 0.960 . S
H2032 C2045 0.961 . S
H2033 C2045 0.959 . S
H2034 C2048 0.929 . S
H2035 C2049 0.931 . S
H2036 C2051 0.930 . S
C2037 H2025 0.930 . S
C2037 C2038 1.399 . S
C2037 C2042 1.399 . S
C2038 C2037 1.399 . S
C2038 C2039 1.376 . S
C2039 H2026 0.930 . S
C2039 C2038 1.376 . S
C2039 C2040 1.388 . S
C2040 H2027 0.930 . S
C2040 C2039 1.388 . S
C2040 C2041 1.390 . S
C2041 C2040 1.390 . S
C2041 C2042 1.394 . S
C2041 C2047 1.465 . S
C2042 C2037 1.399 . S
C2042 C2041 1.394 . S
C2042 C2043 1.516 . S
C2043 C2042 1.516 . S
C2043 C2044 1.502 . S
C2043 C2045 1.561 . S
C2043 C2046 1.526 . S
C2044 H2028 0.959 . S
C2044 H2029 0.959 . S
C2044 H2030 0.961 . S
C2044 C2043 1.502 . S
C2045 H2031 0.960 . S
C2045 H2032 0.961 . S
C2045 H2033 0.959 . S
C2045 C2043 1.561 . S
C2046 C2043 1.526 . S
C2046 C2047 1.396 . S
C2046 C2051 1.390 . S
C2047 C2041 1.465 . S
C2047 C2046 1.396 . S
C2047 C2048 1.399 . S
C2048 H2034 0.929 . S
C2048 C2047 1.399 . S
C2048 C2049 1.385 . S
C2049 H2035 0.931 . S
C2049 C2048 1.385 . S
C2049 C2050 1.389 . S
C2050 C2049 1.389 . S
C2050 C2051 1.387 . S
C2051 H2036 0.930 . S
C2051 C2046 1.390 . S
C2051 C2050 1.387 . S
H2052 C2064 0.930 . S
H2053 C2066 0.930 . S
H2054 C2067 0.930 . S
H2055 C2071 0.959 . S
H2056 C2071 0.959 . S
H2057 C2071 0.961 . S
H2058 C2072 0.960 . S
H2059 C2072 0.961 . S
H2060 C2072 0.959 . S
H2061 C2075 0.929 . S
H2062 C2076 0.931 . S
H2063 C2078 0.930 . S
C2064 H2052 0.930 . S
C2064 C2065 1.399 . S
C2064 C2069 1.399 . S
C2065 C2064 1.399 . S
C2065 C2066 1.376 . S
C2066 H2053 0.930 . S
C2066 C2065 1.376 . S
C2066 C2067 1.388 . S
C2067 H2054 0.930 . S
C2067 C2066 1.388 . S
C2067 C2068 1.390 . S
C2068 C2067 1.390 . S
C2068 C2069 1.394 . S
C2068 C2074 1.465 . S
C2069 C2064 1.399 . S
C2069 C2068 1.394 . S
C2069 C2070 1.516 . S
C2070 C2069 1.516 . S
C2070 C2071 1.502 . S
C2070 C2072 1.561 . S
C2070 C2073 1.526 . S
C2071 H2055 0.959 . S
C2071 H2056 0.959 . S
C2071 H2057 0.961 . S
C2071 C2070 1.502 . S
C2072 H2058 0.960 . S
C2072 H2059 0.961 . S
C2072 H2060 0.959 . S
C2072 C2070 1.561 . S
C2073 C2070 1.526 . S
C2073 C2074 1.396 . S
C2073 C2078 1.390 . S
C2074 C2068 1.465 . S
C2074 C2073 1.396 . S
C2074 C2075 1.399 . S
C2075 H2061 0.929 . S
C2075 C2074 1.399 . S
C2075 C2076 1.385 . S
C2076 H2062 0.931 . S
C2076 C2075 1.385 . S
C2076 C2077 1.389 . S
C2077 C2076 1.389 . S
C2077 C2078 1.387 . S
C2078 H2063 0.930 . S
C2078 C2073 1.390 . S
C2078 C2077 1.387 . S
H2079 C2091 0.930 . S
H2080 C2093 0.930 . S
H2081 C2094 0.930 . S
H2082 C2098 0.959 . S
H2083 C2098 0.959 . S
H2084 C2098 0.961 . S
H2085 C2099 0.960 . S
H2086 C2099 0.961 . S
H2087 C2099 0.959 . S
H2088 C2102 0.929 . S
H2089 C2103 0.931 . S
H2090 C2105 0.930 . S
C2091 H2079 0.930 . S
C2091 C2092 1.399 . S
C2091 C2096 1.399 . S
C2092 C2091 1.399 . S
C2092 C2093 1.376 . S
C2093 H2080 0.930 . S
C2093 C2092 1.376 . S
C2093 C2094 1.388 . S
C2094 H2081 0.930 . S
C2094 C2093 1.388 . S
C2094 C2095 1.390 . S
C2095 C2094 1.390 . S
C2095 C2096 1.394 . S
C2095 C2101 1.465 . S
C2096 C2091 1.399 . S
C2096 C2095 1.394 . S
C2096 C2097 1.516 . S
C2097 C2096 1.516 . S
C2097 C2098 1.502 . S
C2097 C2099 1.561 . S
C2097 C2100 1.526 . S
C2098 H2082 0.959 . S
C2098 H2083 0.959 . S
C2098 H2084 0.961 . S
C2098 C2097 1.502 . S
C2099 H2085 0.960 . S
C2099 H2086 0.961 . S
C2099 H2087 0.959 . S
C2099 C2097 1.561 . S
C2100 C2097 1.526 . S
C2100 C2101 1.396 . S
C2100 C2105 1.390 . S
C2101 C2095 1.465 . S
C2101 C2100 1.396 . S
C2101 C2102 1.399 . S
C2102 H2088 0.929 . S
C2102 C2101 1.399 . S
C2102 C2103 1.385 . S
C2103 H2089 0.931 . S
C2103 C2102 1.385 . S
C2103 C2104 1.389 . S
C2104 C2103 1.389 . S
C2104 C2105 1.387 . S
C2105 H2090 0.930 . S
C2105 C2100 1.390 . S
C2105 C2104 1.387 . S
H2106 C2118 0.930 . S
H2107 C2120 0.930 . S
H2108 C2121 0.930 . S
H2109 C2125 0.959 . S
H2110 C2125 0.959 . S
H2111 C2125 0.961 . S
H2112 C2126 0.960 . S
H2113 C2126 0.961 . S
H2114 C2126 0.959 . S
H2115 C2129 0.929 . S
H2116 C2130 0.931 . S
H2117 C2132 0.930 . S
C2118 H2106 0.930 . S
C2118 C2119 1.399 . S
C2118 C2123 1.399 . S
C2119 C2118 1.399 . S
C2119 C2120 1.376 . S
C2120 H2107 0.930 . S
C2120 C2119 1.376 . S
C2120 C2121 1.388 . S
C2121 H2108 0.930 . S
C2121 C2120 1.388 . S
C2121 C2122 1.390 . S
C2122 C2121 1.390 . S
C2122 C2123 1.394 . S
C2122 C2128 1.465 . S
C2123 C2118 1.399 . S
C2123 C2122 1.394 . S
C2123 C2124 1.516 . S
C2124 C2123 1.516 . S
C2124 C2125 1.502 . S
C2124 C2126 1.561 . S
C2124 C2127 1.526 . S
C2125 H2109 0.959 . S
C2125 H2110 0.959 . S
C2125 H2111 0.961 . S
C2125 C2124 1.502 . S
C2126 H2112 0.960 . S
C2126 H2113 0.961 . S
C2126 H2114 0.959 . S
C2126 C2124 1.561 . S
C2127 C2124 1.526 . S
C2127 C2128 1.396 . S
C2127 C2132 1.390 . S
C2128 C2122 1.465 . S
C2128 C2127 1.396 . S
C2128 C2129 1.399 . S
C2129 H2115 0.929 . S
C2129 C2128 1.399 . S
C2129 C2130 1.385 . S
C2130 H2116 0.931 . S
C2130 C2129 1.385 . S
C2130 C2131 1.389 . S
C2131 C2130 1.389 . S
C2131 C2132 1.387 . S
C2132 H2117 0.930 . S
C2132 C2127 1.390 . S
C2132 C2131 1.387 . S
H2133 C2145 0.930 . S
H2134 C2147 0.930 . S
H2135 C2148 0.930 . S
H2136 C2152 0.959 . S
H2137 C2152 0.959 . S
H2138 C2152 0.961 . S
H2139 C2153 0.960 . S
H2140 C2153 0.961 . S
H2141 C2153 0.959 . S
H2142 C2156 0.929 . S
H2143 C2157 0.931 . S
H2144 C2159 0.930 . S
C2145 H2133 0.930 . S
C2145 C2146 1.399 . S
C2145 C2150 1.399 . S
C2146 C2145 1.399 . S
C2146 C2147 1.376 . S
C2147 H2134 0.930 . S
C2147 C2146 1.376 . S
C2147 C2148 1.388 . S
C2148 H2135 0.930 . S
C2148 C2147 1.388 . S
C2148 C2149 1.390 . S
C2149 C2148 1.390 . S
C2149 C2150 1.394 . S
C2149 C2155 1.465 . S
C2150 C2145 1.399 . S
C2150 C2149 1.394 . S
C2150 C2151 1.516 . S
C2151 C2150 1.516 . S
C2151 C2152 1.502 . S
C2151 C2153 1.561 . S
C2151 C2154 1.526 . S
C2152 H2136 0.959 . S
C2152 H2137 0.959 . S
C2152 H2138 0.961 . S
C2152 C2151 1.502 . S
C2153 H2139 0.960 . S
C2153 H2140 0.961 . S
C2153 H2141 0.959 . S
C2153 C2151 1.561 . S
C2154 C2151 1.526 . S
C2154 C2155 1.396 . S
C2154 C2159 1.390 . S
C2155 C2149 1.465 . S
C2155 C2154 1.396 . S
C2155 C2156 1.399 . S
C2156 H2142 0.929 . S
C2156 C2155 1.399 . S
C2156 C2157 1.385 . S
C2157 H2143 0.931 . S
C2157 C2156 1.385 . S
C2157 C2158 1.389 . S
C2158 C2157 1.389 . S
C2158 C2159 1.387 . S
C2159 H2144 0.930 . S
C2159 C2154 1.390 . S
C2159 C2158 1.387 . S
C877 C398 1.414 . S
C889 C14 1.410 . S
C904 C50 1.412 . S
C916 C290 1.408 . S
C931 C86 1.369 . S
C943 C326 1.408 . S
C958 C122 1.331 . S
C970 C362 1.425 . S
C985 C470 1.407 . S
C997 C158 1.410 . S
C1012 C194 1.342 . S
C1024 C506 1.430 . S
C1039 C542 1.408 . S
C1051 C230 1.412 . S
C1066 C434 1.429 . S
C1078 C266 1.365 . S
C1093 C182 1.428 . S
C1105 C302 1.374 . S
C1120 C218 1.411 . S
C1132 C338 1.412 . S
C1147 C374 1.412 . S
C1159 C254 1.408 . S
C1174 C146 1.416 . S
C1186 C410 1.408 . S
C1201 C110 1.430 . S
C1213 C446 1.351 . S
C1228 C482 1.362 . S
C1240 C2 1.430 . S
C1255 C518 1.369 . S
C1267 C38 1.408 . S
C1282 C554 1.400 . S
C1294 C74 1.421 . S
C1309 C590 1.409 . S
C1321 C830 1.407 . S
C1336 C722 1.405 . S
C1348 C626 1.385 . S
C1363 C662 1.413 . S
C1375 C614 1.409 . S
C1390 C698 1.413 . S
C1402 C650 1.411 . S
C1417 C686 1.425 . S
C1429 C734 1.333 . S
C1444 C770 1.413 . S
C1456 C794 1.410 . S
C1471 C578 1.406 . S
C1483 C806 1.379 . S
C1498 C758 1.406 . S
C1510 C842 1.381 . S
C1525 C3 1.506 . S
C1537 C219 1.494 . S
C1552 C39 1.512 . S
C1564 C255 1.503 . S
C1579 C75 1.502 . S
C1591 C147 1.494 . S
C1606 C183 1.507 . S
C1618 C111 1.510 . S
C1633 C363 1.502 . S
C1645 C291 1.494 . S
C1660 C327 1.502 . S
C1672 C399 1.512 . S
C1687 C435 1.502 . S
C1699 C507 1.494 . S
C1714 C543 1.502 . S
C1726 C471 1.512 . S
C1741 C615 1.495 . S
C1753 C579 1.508 . S
C1768 C651 1.494 . S
C1780 C831 1.500 . S
C1795 C687 1.493 . S
C1807 C759 1.504 . S
C1822 C723 1.501 . S
C1834 C795 1.494 . S
C1849 C4 0.982 . S
C1861 C184 1.001 . S
C1876 C40 0.983 . S
C1888 C220 1.003 . S
C1903 C76 0.982 . S
C1915 C256 1.002 . S
C1930 C148 1.016 . S
C1942 C112 0.995 . S
C1957 C292 0.992 . S
C1969 C832 1.015 . S
C1984 C328 0.982 . S
C1996 C760 1.001 . S
C2011 C796 1.001 . S
C2023 C364 0.983 . S
C2038 C400 1.017 . S
C2050 C580 0.997 . S
C2065 C724 0.982 . S
C2077 C436 1.002 . S
C2092 C616 1.016 . S
C2104 C472 0.993 . S
C2119 C508 0.984 . S
C2131 C652 1.006 . S
C2146 C688 1.004 . S
C2158 C544 0.983 . S
