# Generated by pormake.
# Topology upa, (4)-cn, num edge types: 1
# Building blocks:
#     Node 0, Type 0, BuildingBlock: ICAMEG_clean_sbu_1, # of connection points: 4
#     Node 1, Type 0, BuildingBlock: ICAMEG_clean_sbu_1, # of connection points: 4
#     Node 2, Type 0, BuildingBlock: ICAMEG_clean_sbu_1, # of connection points: 4
#     Node 3, Type 0, BuildingBlock: ICAMEG_clean_sbu_1, # of connection points: 4
#     Node 4, Type 0, BuildingBlock: ICAMEG_clean_sbu_1, # of connection points: 4
#     Node 5, Type 0, BuildingBlock: ICAMEG_clean_sbu_1, # of connection points: 4
#     Node 6, Type 0, BuildingBlock: ICAMEG_clean_sbu_1, # of connection points: 4
#     Node 7, Type 0, BuildingBlock: ICAMEG_clean_sbu_1, # of connection points: 4
#     Edge 8, Type (0, 0), BuildingBlock: CIFDUS_clean_linker_0, # of connection points: 2
#     Edge 9, Type (0, 0), BuildingBlock: CIFDUS_clean_linker_0, # of connection points: 2
#     Edge 10, Type (0, 0), BuildingBlock: CIFDUS_clean_linker_0, # of connection points: 2
#     Edge 11, Type (0, 0), BuildingBlock: CIFDUS_clean_linker_0, # of connection points: 2
#     Edge 12, Type (0, 0), BuildingBlock: CIFDUS_clean_linker_0, # of connection points: 2
#     Edge 13, Type (0, 0), BuildingBlock: CIFDUS_clean_linker_0, # of connection points: 2
#     Edge 14, Type (0, 0), BuildingBlock: CIFDUS_clean_linker_0, # of connection points: 2
#     Edge 15, Type (0, 0), BuildingBlock: CIFDUS_clean_linker_0, # of connection points: 2
#     Edge 16, Type (0, 0), BuildingBlock: CIFDUS_clean_linker_0, # of connection points: 2
#     Edge 17, Type (0, 0), BuildingBlock: CIFDUS_clean_linker_0, # of connection points: 2
#     Edge 18, Type (0, 0), BuildingBlock: CIFDUS_clean_linker_0, # of connection points: 2
#     Edge 19, Type (0, 0), BuildingBlock: CIFDUS_clean_linker_0, # of connection points: 2
#     Edge 20, Type (0, 0), BuildingBlock: CIFDUS_clean_linker_0, # of connection points: 2
#     Edge 21, Type (0, 0), BuildingBlock: CIFDUS_clean_linker_0, # of connection points: 2
#     Edge 22, Type (0, 0), BuildingBlock: CIFDUS_clean_linker_0, # of connection points: 2
#     Edge 23, Type (0, 0), BuildingBlock: CIFDUS_clean_linker_0, # of connection points: 2
# Relax obj value: 0.135
# Max RMSD: 0.082
# Mean RMSD: 0.082
data_MOF--net-upa--node1-ICAMEG_clean_sbu_1--edge1-CIFDUS_clean_linker_0
_symmetry_space_group_name_H-M    P1
_symmetry_Int_Tables_number       1
_symmetry_cell_setting            triclinic
loop_
_symmetry_equiv_pos_as_xyz
'x, y, z'
_cell_length_a     23.067076
_cell_length_b     22.954051
_cell_length_c     44.47696
_cell_angle_alpha  89.929392
_cell_angle_beta   90.007195
_cell_angle_gamma 89.656924
loop_
_atom_site_label
_atom_site_type_symbol
_atom_site_fract_x
_atom_site_fract_y
_atom_site_fract_z
_atom_type_partial_charge
Co0 Co 0.13989 0.26562 0.36554 0.0
Co1 Co 0.21387 0.16561 0.32064 0.0
O2 O 0.21182 0.23223 0.34857 0.0
C3 C 0.20416 0.23496 0.42118 0.0
O4 O 0.21871 0.18542 0.40843 0.0
C5 C 0.30907 0.24665 0.29766 0.0
O6 O 0.29945 0.28575 0.3186 0.0
O7 O 0.1514 0.20156 0.29466 0.0
O8 O 0.10018 0.25873 0.32611 0.0
H9 H 0.12278 1.00765 0.25859 0.0
H10 H 0.24972 0.32932 0.37481 0.0
O11 O 0.17637 0.2734 0.40626 0.0
H12 H 0.12523 0.46278 0.31611 0.0
H13 H 0.0244 0.40727 0.42825 0.0
H14 H 0.01475 0.23839 0.36005 0.0
H15 H 0.08927 0.36651 0.33186 0.0
H16 H 0.11368 0.36479 0.40679 0.0
O17 O 0.27618 0.20234 0.29506 0.0
H18 H 0.12333 0.09096 0.29355 0.0
H19 H 0.30705 0.09892 0.28835 0.0
H20 H 0.92438 0.27972 0.38084 0.0
H21 H 0.28719 0.42563 0.35987 0.0
H22 H 0.92885 0.3648 0.41522 0.0
H23 H 0.2248 0.49297 0.33019 0.0
O24 O 0.11078 0.18691 0.37725 0.0
H25 H 0.39174 0.16102 0.38707 0.0
H26 H 0.23473 0.04482 0.34264 0.0
H27 H 0.30689 0.99687 0.37515 0.0
H28 H 0.38649 0.05491 0.3975 0.0
H29 H 0.31837 0.20732 0.35499 0.0
H30 H 0.30828 0.01646 0.25289 0.0
H31 H 0.21573 0.96998 0.23796 0.0
O32 O 0.15437 0.12525 0.34502 0.0
C33 C 0.10803 0.23455 0.30074 0.0
C34 C 0.16341 0.02751 0.26497 0.0
C35 C 0.2675 0.03252 0.26172 0.0
N36 N 0.21514 0.09983 0.29308 0.0
C37 C 0.16402 0.07462 0.28483 0.0
C38 C 0.26647 0.07948 0.28168 0.0
C39 C 0.21556 1.00641 0.25338 0.0
C40 C 0.22218 0.35865 0.36214 0.0
N41 N 0.16746 0.34228 0.35419 0.0
C42 C 0.24368 0.41301 0.35364 0.0
C43 C 0.20869 0.45074 0.33695 0.0
C44 C 0.15283 0.43381 0.32902 0.0
C45 C 0.13281 0.37911 0.3379 0.0
C46 C 0.02188 0.37021 0.4133 0.0
C47 C 0.01706 0.27549 0.37493 0.0
C48 C 0.0723 0.34587 0.40114 0.0
N49 N 0.06944 0.29921 0.38213 0.0
C50 C 0.96574 0.29867 0.38666 0.0
C51 C 0.96828 0.34638 0.40596 0.0
C52 C 0.1197 0.13611 0.36655 0.0
C53 C 0.35773 0.13507 0.37714 0.0
C54 C 0.2693 0.07056 0.35205 0.0
C55 C 0.31006 0.04304 0.37053 0.0
C56 C 0.35467 0.0756 0.38307 0.0
N57 N 0.27297 0.12883 0.34585 0.0
C58 C 0.31619 0.16108 0.35853 0.0
Co59 Co 0.23935 0.64036 0.86158 0.0
Co60 Co 0.3425 0.71584 0.82016 0.0
O61 O 0.27681 0.7123 0.84816 0.0
C62 C 0.27788 0.69349 0.91885 0.0
O63 O 0.32602 0.70828 0.90516 0.0
C64 C 0.25327 0.79731 0.79341 0.0
O65 O 0.21282 0.7588 0.79906 0.0
O66 O 0.3053 0.65864 0.79171 0.0
O67 O 0.24116 0.60921 0.82006 0.0
H68 H 0.49853 0.63201 0.75379 0.0
H69 H 0.18645 0.7539 0.87787 0.0
O70 O 0.23752 0.66855 0.90427 0.0
H71 H 0.03875 0.65316 0.81728 0.0
H72 H 0.09423 0.52424 0.92091 0.0
H73 H 0.25425 0.51467 0.84755 0.0
H74 H 0.13301 0.60611 0.8279 0.0
H75 H 0.14281 0.6139 0.90399 0.0
O76 O 0.3062 0.78507 0.799 0.0
H77 H 0.41509 0.62817 0.78838 0.0
H78 H 0.41035 0.813 0.79278 0.0
H79 H 0.20664 0.42401 0.86371 0.0
H80 H 0.09251 0.80236 0.86803 0.0
H81 H 0.12597 0.42844 0.90065 0.0
H82 H 0.01786 0.75178 0.83763 0.0
O83 O 0.31561 0.6016 0.86949 0.0
H84 H 0.35005 0.88898 0.88918 0.0
H85 H 0.46089 0.72434 0.84661 0.0
H86 H 0.50819 0.79022 0.88271 0.0
H87 H 0.45268 0.87335 0.90421 0.0
H88 H 0.30426 0.82163 0.8533 0.0
H89 H 0.49313 0.8188 0.75782 0.0
H90 H 0.53805 0.72786 0.73825 0.0
O91 O 0.3809 0.64908 0.84106 0.0
C92 C 0.26836 0.61782 0.7956 0.0
C93 C 0.47934 0.67195 0.76218 0.0
C94 C 0.47626 0.77678 0.76443 0.0
N95 N 0.40781 0.72026 0.79266 0.0
C96 C 0.43212 0.67005 0.78184 0.0
C97 C 0.42918 0.7732 0.78411 0.0
C98 C 0.50148 0.72574 0.75346 0.0
C99 C 0.15399 0.73153 0.86478 0.0
N100 N 0.16499 0.67713 0.85367 0.0
C101 C 0.10099 0.75924 0.85919 0.0
C102 C 0.05916 0.73087 0.84209 0.0
C103 C 0.07086 0.67553 0.83066 0.0
C104 C 0.12437 0.6492 0.83667 0.0
C105 C 0.12935 0.52174 0.90482 0.0
C106 C 0.21916 0.51701 0.8636 0.0
C107 C 0.15716 0.57235 0.89523 0.0
N108 N 0.20134 0.56957 0.87478 0.0
C109 C 0.19239 0.4655 0.87269 0.0
C110 C 0.14715 0.468 0.89343 0.0
C111 C 0.36687 0.60873 0.85935 0.0
C112 C 0.37473 0.853 0.87992 0.0
C113 C 0.43638 0.76022 0.85598 0.0
C114 C 0.46344 0.7975 0.87634 0.0
C115 C 0.43229 0.84416 0.88837 0.0
N116 N 0.37993 0.76919 0.84776 0.0
C117 C 0.34911 0.81485 0.85948 0.0
Co118 Co 0.87535 0.7576 0.36524 0.0
Co119 Co 0.8006 0.8559 0.31962 0.0
O120 O 0.80309 0.78988 0.34801 0.0
C121 C 0.81054 0.78753 0.42077 0.0
O122 O 0.79586 0.83713 0.40806 0.0
C123 C 0.70524 0.77426 0.29745 0.0
O124 O 0.71498 0.73564 0.31866 0.0
O125 O 0.86288 0.81944 0.29378 0.0
O126 O 0.91545 0.76492 0.32593 0.0
H127 H 0.8909 0.01266 0.25628 0.0
H128 H 0.7664 0.69226 0.37425 0.0
O129 O 0.83854 0.74933 0.40585 0.0
H130 H 0.89358 0.5606 0.31619 0.0
H131 H 0.99236 0.61807 0.42865 0.0
H132 H 1.00008 0.78686 0.3601 0.0
H133 H 0.92794 0.65739 0.33195 0.0
H134 H 0.90267 0.65892 0.40675 0.0
O135 O 0.73821 0.81842 0.29443 0.0
H136 H 0.89076 0.93008 0.29181 0.0
H137 H 0.70703 0.9216 0.28695 0.0
H138 H 0.09084 0.74717 0.38135 0.0
H139 H 0.7305 0.59543 0.35927 0.0
H140 H 0.08733 0.66215 0.4159 0.0
H141 H 0.79423 0.52901 0.32989 0.0
O142 O 0.90306 0.83681 0.37683 0.0
H143 H 0.6235 0.86127 0.38656 0.0
H144 H 0.77888 0.9773 0.34039 0.0
H145 H 0.70668 0.02575 0.3726 0.0
H146 H 0.62789 0.96779 0.39582 0.0
H147 H 0.69691 0.81451 0.35476 0.0
H148 H 0.7054 1.00328 0.25091 0.0
H149 H 0.79776 0.04968 0.23555 0.0
O150 O 0.86014 0.89711 0.34362 0.0
C151 C 0.90699 0.78775 0.30026 0.0
C152 C 0.85037 0.99283 0.26285 0.0
C153 C 0.74627 0.98749 0.25979 0.0
N154 N 0.79897 0.92101 0.29156 0.0
C155 C 0.84998 0.94615 0.28304 0.0
C156 C 0.74752 0.94097 0.28007 0.0
C157 C 0.7981 0.01356 0.2512 0.0
C158 C 0.79453 0.66333 0.36172 0.0
N159 N 0.8491 0.68049 0.35396 0.0
C160 C 0.77391 0.60866 0.3532 0.0
C161 C 0.80966 0.57145 0.33668 0.0
C162 C 0.86539 0.58917 0.32896 0.0
C163 C 0.88451 0.64415 0.33785 0.0
C164 C 0.99446 0.65512 0.41362 0.0
C165 C 0.99819 0.74978 0.37506 0.0
C166 C 0.9438 0.67854 0.40121 0.0
N167 N 0.94612 0.7252 0.38213 0.0
C168 C 0.04973 0.72753 0.38705 0.0
C169 C 0.04773 0.67986 0.40645 0.0
C170 C 0.89425 0.88719 0.36554 0.0
C171 C 0.65716 0.88717 0.37625 0.0
C172 C 0.74471 0.95158 0.35021 0.0
C173 C 0.7039 0.97938 0.36851 0.0
C174 C 0.65974 0.94687 0.38153 0.0
N175 N 0.74152 0.89306 0.34465 0.0
C176 C 0.69873 0.86088 0.3578 0.0
Co177 Co 0.77504 0.37854 0.86111 0.0
Co178 Co 0.67205 0.30318 0.81963 0.0
O179 O 0.73779 0.30663 0.8476 0.0
C180 C 0.73709 0.32458 0.91833 0.0
O181 O 0.68886 0.30994 0.9047 0.0
C182 C 0.76145 0.22256 0.79261 0.0
O183 O 0.80155 0.26159 0.79795 0.0
O184 O 0.70911 0.36063 0.7912 0.0
O185 O 0.7728 0.41026 0.81967 0.0
H186 H 0.51559 0.38726 0.75351 0.0
H187 H 0.82855 0.26498 0.87699 0.0
O188 O 0.7773 0.34976 0.90372 0.0
H189 H 0.97538 0.36733 0.81644 0.0
H190 H 0.92003 0.49449 0.92049 0.0
H191 H 0.75948 0.50436 0.84741 0.0
H192 H 0.88099 0.41378 0.82735 0.0
H193 H 0.87177 0.40484 0.90341 0.0
O194 O 0.7085 0.23418 0.79845 0.0
H195 H 0.59924 0.39096 0.78796 0.0
H196 H 0.60438 0.2061 0.79215 0.0
H197 H 0.80675 0.59501 0.86374 0.0
H198 H 0.92263 0.21709 0.86684 0.0
H199 H 0.88769 0.59044 0.90053 0.0
H200 H 0.99686 0.2685 0.83648 0.0
O201 O 0.69867 0.41684 0.86924 0.0
H202 H 0.66493 0.12946 0.8885 0.0
H203 H 0.5537 0.29421 0.84608 0.0
H204 H 0.50656 0.2279 0.88211 0.0
H205 H 0.56226 0.14472 0.90353 0.0
H206 H 0.71055 0.19723 0.85269 0.0
H207 H 0.5214 0.20045 0.75731 0.0
H208 H 0.47613 0.29149 0.73795 0.0
O209 O 0.63354 0.36973 0.84059 0.0
C210 C 0.74576 0.40166 0.79517 0.0
C211 C 0.53492 0.34729 0.76182 0.0
C212 C 0.53822 0.24244 0.76394 0.0
N213 N 0.60671 0.29885 0.79214 0.0
C214 C 0.58225 0.3491 0.7814 0.0
C215 C 0.58542 0.24594 0.78355 0.0
C216 C 0.51281 0.29353 0.75308 0.0
C217 C 0.86081 0.2877 0.8639 0.0
N218 N 0.8495 0.34222 0.85297 0.0
C219 C 0.91389 0.26031 0.85815 0.0
C220 C 0.95549 0.28914 0.84106 0.0
C221 C 0.94346 0.3446 0.8298 0.0
C222 C 0.88988 0.3706 0.83598 0.0
C223 C 0.88479 0.49706 0.90446 0.0
C224 C 0.79468 0.50196 0.8634 0.0
C225 C 0.85715 0.44645 0.89478 0.0
N226 N 0.81282 0.44932 0.87442 0.0
C227 C 0.82127 0.55347 0.87259 0.0
C228 C 0.86665 0.55087 0.89324 0.0
C229 C 0.64745 0.40979 0.85903 0.0
C230 C 0.64016 0.16547 0.87927 0.0
C231 C 0.5783 0.25832 0.85542 0.0
C232 C 0.55132 0.22079 0.87574 0.0
C233 C 0.58259 0.1741 0.88773 0.0
N234 N 0.63477 0.24955 0.84721 0.0
C235 C 0.6657 0.20387 0.85888 0.0
Co236 Co 0.64562 0.24538 0.15214 0.0
Co237 Co 0.71734 0.34824 0.19525 0.0
O238 O 0.71608 0.28338 0.16659 0.0
C239 C 0.70081 0.28381 0.09551 0.0
O240 O 0.71322 0.33289 0.10913 0.0
C241 C 0.79813 0.25934 0.22234 0.0
O242 O 0.75957 0.21896 0.21666 0.0
O243 O 0.66153 0.3081 0.2232 0.0
O244 O 0.61136 0.24849 0.19296 0.0
H245 H 0.62894 0.49824 0.26389 0.0
H246 H 0.75973 0.1918 0.1384 0.0
O247 O 0.67677 0.24266 0.11004 0.0
H248 H 0.65552 0.04554 0.19873 0.0
H249 H 0.53498 0.09774 0.09162 0.0
H250 H 0.51945 0.26026 0.16358 0.0
H251 H 0.60912 0.13948 0.18595 0.0
H252 H 0.62272 0.14729 0.10994 0.0
O253 O 0.78661 0.3125 0.21631 0.0
H254 H 0.62777 0.41687 0.22775 0.0
H255 H 0.81176 0.41788 0.22357 0.0
H256 H 0.43069 0.21167 0.14608 0.0
H257 H 0.80765 0.09817 0.15045 0.0
H258 H 0.4381 0.12974 0.10981 0.0
H259 H 0.75538 0.02431 0.18081 0.0
O260 O 0.60764 0.3218 0.14318 0.0
H261 H 0.89043 0.36348 0.12707 0.0
H262 H 0.72282 0.46845 0.17004 0.0
H263 H 0.78758 0.51927 0.13468 0.0
H264 H 0.87219 0.46672 0.11298 0.0
H265 H 0.82417 0.31417 0.16223 0.0
H266 H 0.81489 0.49882 0.25996 0.0
H267 H 0.723 0.53975 0.28025 0.0
O268 O 0.64986 0.38598 0.17449 0.0
C269 C 0.61919 0.2736 0.21813 0.0
C270 C 0.66927 0.48086 0.25516 0.0
C271 C 0.77364 0.48112 0.25298 0.0
N272 N 0.71961 0.41267 0.22348 0.0
C273 C 0.66889 0.43485 0.23463 0.0
C274 C 0.77158 0.43512 0.23247 0.0
C275 C 0.72206 0.50408 0.26436 0.0
C276 C 0.73661 0.15963 0.15141 0.0
N277 N 0.68163 0.17089 0.1613 0.0
C278 C 0.76401 0.10682 0.15826 0.0
C279 C 0.7347 0.06543 0.17535 0.0
C280 C 0.67867 0.07733 0.18542 0.0
C281 C 0.65268 0.13064 0.17818 0.0
C282 C 0.53118 0.13343 0.10739 0.0
C283 C 0.52309 0.2247 0.14781 0.0
C284 C 0.5807 0.1618 0.11777 0.0
N285 N 0.57626 0.20672 0.13781 0.0
C286 C 0.47264 0.19733 0.13797 0.0
C287 C 0.47683 0.15138 0.11762 0.0
C288 C 0.612 0.37247 0.15477 0.0
C289 C 0.85377 0.38688 0.13641 0.0
C290 C 0.75933 0.44522 0.16056 0.0
C291 C 0.79598 0.47427 0.14063 0.0
C292 C 0.84347 0.44478 0.12849 0.0
N293 N 0.76972 0.38844 0.16823 0.0
C294 C 0.81622 0.35925 0.15643 0.0
Co295 Co 0.26313 0.13962 0.6553 0.0
Co296 Co 0.1681 0.22105 0.69933 0.0
O297 O 0.23336 0.21422 0.67097 0.0
C298 C 0.23524 0.20267 0.59889 0.0
O299 O 0.18696 0.22037 0.61167 0.0
C300 C 0.26024 0.30117 0.72444 0.0
O301 O 0.30179 0.26597 0.71547 0.0
O302 O 0.20294 0.15991 0.72681 0.0
O303 O 0.25442 0.1027 0.6954 0.0
H304 H 0.00769 0.14185 0.76368 0.0
H305 H 0.33115 0.24651 0.64411 0.0
O306 O 0.27218 0.17329 0.61395 0.0
H307 H 0.4585 0.11963 0.70501 0.0
H308 H 0.39813 0.01346 0.59428 0.0
H309 H 0.23107 0.01554 0.66344 0.0
H310 H 0.36126 0.08662 0.68982 0.0
H311 H 0.35994 0.1063 0.61417 0.0
O312 O 0.20733 0.28646 0.72156 0.0
H313 H 0.09226 0.13576 0.7299 0.0
H314 H 0.10467 0.32033 0.72861 0.0
H315 H 0.26808 0.92173 0.64423 0.0
H316 H 0.42849 0.28096 0.65845 0.0
H317 H 0.35222 0.92029 0.60938 0.0
H318 H 0.49272 0.2174 0.68926 0.0
O319 O 0.1835 0.11318 0.64438 0.0
H320 H 0.17098 0.39702 0.63185 0.0
H321 H 0.04902 0.24282 0.67537 0.0
H322 H 1.00532 0.31453 0.6407 0.0
H323 H 0.06644 0.39251 0.61875 0.0
H324 H 0.21302 0.32388 0.66623 0.0
H325 H 0.02092 0.32829 0.76283 0.0
H326 H 0.97116 0.2386 0.78012 0.0
O327 O 0.12524 0.15947 0.67726 0.0
C328 C 0.23236 0.11373 0.72096 0.0
C329 C 0.0289 0.18123 0.75619 0.0
C330 C 0.03638 0.28586 0.75575 0.0
N331 N 0.10335 0.22762 0.72714 0.0
C332 C 0.07676 0.17808 0.73701 0.0
C333 C 0.08407 0.28105 0.73652 0.0
C334 C 0.00851 0.23554 0.76548 0.0
C335 C 0.3592 0.21836 0.65718 0.0
N336 N 0.34062 0.16461 0.66604 0.0
C337 C 0.41412 0.23819 0.66537 0.0
C338 C 0.45011 0.20256 0.6827 0.0
C339 C 0.43091 0.14771 0.69157 0.0
C340 C 0.37571 0.12934 0.68298 0.0
C341 C 0.36143 0.01352 0.60944 0.0
C342 C 0.26774 0.0153 0.64832 0.0
C343 C 0.3395 0.06597 0.62071 0.0
N344 N 0.2933 0.06637 0.63996 0.0
C345 C 0.28848 0.96203 0.6375 0.0
C346 C 0.33567 0.96125 0.61793 0.0
C347 C 0.1339 0.12337 0.65599 0.0
C348 C 0.14389 0.36327 0.64127 0.0
C349 C 0.07601 0.27617 0.66565 0.0
C350 C 0.05096 0.31689 0.64617 0.0
C351 C 0.08525 0.36067 0.6339 0.0
N352 N 0.13356 0.2789 0.67277 0.0
C353 C 0.16742 0.32179 0.66085 0.0
Co354 Co 0.36793 0.774 0.15272 0.0
Co355 Co 0.29755 0.66979 0.19567 0.0
O356 O 0.29811 0.73466 0.16699 0.0
C357 C 0.31398 0.73432 0.09603 0.0
O358 O 0.30219 0.68512 0.10974 0.0
C359 C 0.21732 0.75832 0.22297 0.0
O360 O 0.25661 0.79819 0.21762 0.0
O361 O 0.3531 0.71022 0.22358 0.0
O362 O 0.40182 0.7717 0.19364 0.0
H363 H 0.38738 0.52004 0.26415 0.0
H364 H 0.2529 0.82507 0.13851 0.0
O365 O 0.33723 0.77593 0.11052 0.0
H366 H 0.35279 0.97328 0.19937 0.0
H367 H 0.47598 0.92415 0.09244 0.0
H368 H 0.49427 0.7617 0.16447 0.0
H369 H 0.40172 0.88073 0.18651 0.0
H370 H 0.38917 0.87257 0.11048 0.0
O371 O 0.2281 0.70514 0.21671 0.0
H372 H 0.38778 0.60169 0.22807 0.0
H373 H 0.20379 0.59945 0.22415 0.0
H374 H 0.58214 0.81234 0.14725 0.0
H375 H 0.20249 0.91728 0.15062 0.0
H376 H 0.57332 0.89427 0.11095 0.0
H377 H 0.25253 0.99207 0.1813 0.0
O378 O 0.40752 0.69826 0.14409 0.0
H379 H 0.12425 0.65292 0.12771 0.0
H380 H 0.29345 0.54977 0.17035 0.0
H381 H 0.22912 0.4984 0.13506 0.0
H382 H 0.14372 0.55003 0.11352 0.0
H383 H 0.19009 0.70282 0.16282 0.0
H384 H 0.20143 0.5182 0.26049 0.0
H385 H 0.29372 0.47773 0.2806 0.0
O386 O 0.36531 0.63283 0.17485 0.0
C387 C 0.39461 0.74582 0.21868 0.0
C388 C 0.34688 0.53721 0.2555 0.0
C389 C 0.24251 0.53624 0.25346 0.0
N390 N 0.29589 0.60526 0.22393 0.0
C391 C 0.34683 0.58337 0.23499 0.0
C392 C 0.24413 0.58241 0.23298 0.0
C393 C 0.29431 0.51354 0.26474 0.0
C394 C 0.2751 0.8577 0.15161 0.0
N395 N 0.33025 0.84773 0.16163 0.0
C396 C 0.24628 0.90969 0.15851 0.0
C397 C 0.27434 0.9516 0.17577 0.0
C398 C 0.3306 0.94107 0.18593 0.0
C399 C 0.35803 0.88855 0.17863 0.0
C400 C 0.4804 0.88848 0.10823 0.0
C401 C 0.49004 0.79722 0.14868 0.0
C402 C 0.43141 0.85896 0.11845 0.0
N403 N 0.43661 0.81408 0.13853 0.0
C404 C 0.53998 0.82576 0.13899 0.0
C405 C 0.535 0.87171 0.11863 0.0
C406 C 0.40342 0.64727 0.15542 0.0
C407 C 0.16125 0.62992 0.13699 0.0
C408 C 0.25655 0.5726 0.16096 0.0
C409 C 0.22017 0.54324 0.14106 0.0
C410 C 0.17224 0.57221 0.12901 0.0
N411 N 0.24547 0.62919 0.16871 0.0
C412 C 0.19856 0.65788 0.15698 0.0
Co413 Co 0.75391 0.88137 0.65505 0.0
Co414 Co 0.8476 0.7985 0.6992 0.0
O415 O 0.78266 0.80625 0.67069 0.0
C416 C 0.78081 0.81844 0.59856 0.0
O417 O 0.82902 0.80018 0.61124 0.0
C418 C 0.75477 0.71847 0.72389 0.0
O419 O 0.7134 0.75391 0.71489 0.0
O420 O 0.81285 0.85942 0.72675 0.0
O421 O 0.76323 0.91798 0.69513 0.0
H422 H 0.00782 0.87564 0.76427 0.0
H423 H 0.68432 0.77556 0.64386 0.0
O424 O 0.74426 0.84806 0.6137 0.0
H425 H 0.55907 0.90377 0.70499 0.0
H426 H 0.62065 1.00979 0.59406 0.0
H427 H 0.7877 1.00493 0.66323 0.0
H428 H 0.65662 0.93558 0.68963 0.0
H429 H 0.65751 0.91631 0.61395 0.0
O430 O 0.80775 0.73302 0.72114 0.0
H431 H 0.92366 0.8828 0.73024 0.0
H432 H 0.91008 0.69834 0.72839 0.0
H433 H 0.75206 0.09936 0.64401 0.0
H434 H 0.58665 0.74232 0.65836 0.0
H435 H 0.66793 0.1022 0.60915 0.0
H436 H 0.52349 0.80651 0.68934 0.0
O437 O 0.8339 0.9067 0.64413 0.0
H438 H 0.844 0.6238 0.63109 0.0
H439 H 0.96686 0.77589 0.67569 0.0
H440 H 0.01036 0.70442 0.64092 0.0
H441 H 0.94878 0.6275 0.61842 0.0
H442 H 0.80219 0.69671 0.66557 0.0
H443 H 0.99339 0.68932 0.76285 0.0
H444 H 0.04355 0.77841 0.78054 0.0
O445 O 0.89117 0.86014 0.67743 0.0
C446 C 0.78449 0.90625 0.7208 0.0
C447 C 0.98645 0.83652 0.7566 0.0
C448 C 0.97828 0.73195 0.75584 0.0
N449 N 0.91202 0.79106 0.72718 0.0
C450 C 0.93882 0.84027 0.73728 0.0
C451 C 0.93084 0.73737 0.73648 0.0
C452 C 1.00638 0.78193 0.7658 0.0
C453 C 0.65674 0.80401 0.65698 0.0
N454 N 0.67609 0.85744 0.66582 0.0
C455 C 0.60161 0.78486 0.66526 0.0
C456 C 0.56622 0.82085 0.68268 0.0
C457 C 0.58619 0.87541 0.6915 0.0
C458 C 0.64156 0.8931 0.68281 0.0
C459 C 0.65736 1.00912 0.60922 0.0
C460 C 0.75104 1.00578 0.6481 0.0
C461 C 0.67854 0.9563 0.62049 0.0
N462 N 0.72476 0.95513 0.63973 0.0
C463 C 0.73107 0.0594 0.63728 0.0
C464 C 0.68389 0.06095 0.61771 0.0
C465 C 0.8832 0.89622 0.65602 0.0
C466 C 0.87129 0.65711 0.64074 0.0
C467 C 0.93968 0.74305 0.66571 0.0
C468 C 0.96461 0.70243 0.64619 0.0
C469 C 0.93006 0.65925 0.63361 0.0
N470 N 0.88199 0.7408 0.67258 0.0
C471 C 0.84789 0.69846 0.66037 0.0
H472 H 1.00467 0.1326 0.37851 0.0
H473 H 0.16019 0.02781 0.37917 0.0
H474 H 0.10296 0.93937 0.38456 0.0
H475 H 0.00843 0.89133 0.37978 0.0
H476 H 0.85309 0.99614 0.37585 0.0
H477 H 0.90984 0.08471 0.3816 0.0
C478 C 0.02589 0.09054 0.38083 0.0
C479 C 0.08627 0.08638 0.37797 0.0
C480 C 0.99254 0.03968 0.38288 0.0
C481 C 0.11353 0.03172 0.38076 0.0
C482 C 0.08085 0.98115 0.38383 0.0
C483 C 0.98705 0.93346 0.38113 0.0
C484 C 0.92696 0.9375 0.37683 0.0
C485 C 0.02023 0.98438 0.38347 0.0
C486 C 0.89955 0.99226 0.37846 0.0
C487 C 0.93196 0.04292 0.38177 0.0
H488 H 0.48196 0.62708 0.86719 0.0
H489 H 0.3528 0.49205 0.86747 0.0
H490 H 0.42888 0.41764 0.86997 0.0
H491 H 0.53223 0.3912 0.86631 0.0
H492 H 0.66137 0.5262 0.86811 0.0
H493 H 0.58527 0.60051 0.87097 0.0
C494 C 0.47052 0.58139 0.86829 0.0
C495 C 0.41193 0.56502 0.86676 0.0
C496 C 0.51448 0.53892 0.86991 0.0
C497 C 0.39757 0.50575 0.86865 0.0
C498 C 0.44108 0.46317 0.86988 0.0
C499 C 0.54366 0.43684 0.86781 0.0
C500 C 0.60227 0.45326 0.86659 0.0
C501 C 0.49968 0.47925 0.86965 0.0
C502 C 0.6166 0.51246 0.86902 0.0
C503 C 0.57307 0.55499 0.87046 0.0
H504 H 0.62625 0.48949 0.1496 0.0
H505 H 0.49722 0.35486 0.14387 0.0
H506 H 0.42048 0.42844 0.14148 0.0
H507 H 0.38969 0.53107 0.1466 0.0
H508 H 0.51901 0.66577 0.14868 0.0
H509 H 0.59599 0.59243 0.14653 0.0
C510 C 0.5814 0.47634 0.14734 0.0
C511 C 0.56739 0.41681 0.14742 0.0
C512 C 0.53754 0.51895 0.1455 0.0
C513 C 0.50919 0.40034 0.14397 0.0
C514 C 0.46521 0.44244 0.14276 0.0
C515 C 0.43472 0.54428 0.14607 0.0
C516 C 0.44868 0.60367 0.14821 0.0
C517 C 0.47879 0.50184 0.14437 0.0
C518 C 0.50713 0.62038 0.14706 0.0
C519 C 0.55122 0.5784 0.14601 0.0
H520 H 0.12889 1.00739 0.6451 0.0
H521 H 0.02513 0.16402 0.64525 0.0
H522 H 0.93688 0.10685 0.64033 0.0
H523 H 0.88872 0.01184 0.64385 0.0
H524 H 0.99246 0.8553 0.64693 0.0
H525 H 0.08084 0.91227 0.64222 0.0
C526 C 0.08706 0.0289 0.64321 0.0
C527 C 0.0833 0.08965 0.646 0.0
C528 C 0.03631 0.99555 0.64133 0.0
C529 C 0.02888 0.11716 0.64376 0.0
C530 C 0.97839 0.08449 0.6409 0.0
C531 C 0.93059 0.99025 0.64267 0.0
C532 C 0.93423 0.92963 0.64624 0.0
C533 C 0.98141 0.02354 0.64089 0.0
C534 C 0.98874 0.90207 0.64487 0.0
C535 C 0.03932 0.93463 0.64212 0.0
H536 H 0.27463 0.17381 0.45931 0.0
H537 H 0.14847 0.3134 0.45722 0.0
H538 H 0.14919 0.3182 0.51192 0.0
H539 H 0.17957 0.27744 0.56071 0.0
H540 H 0.30838 0.14035 0.56285 0.0
H541 H 0.31296 0.14042 0.50811 0.0
C542 C 0.24783 0.20573 0.47082 0.0
C543 C 0.21118 0.2427 0.4541 0.0
C544 C 0.2486 0.20858 0.50244 0.0
C545 C 0.17716 0.28428 0.46941 0.0
C546 C 0.17727 0.28694 0.50079 0.0
C547 C 0.2091 0.24806 0.5492 0.0
C548 C 0.24308 0.20862 0.56593 0.0
C549 C 0.21188 0.24849 0.51758 0.0
C550 C 0.28164 0.17125 0.55063 0.0
C551 C 0.28415 0.171 0.51923 0.0
H552 H 0.33657 0.76755 0.95559 0.0
H553 H 0.20798 0.63181 0.95643 0.0
H554 H 0.2059 0.63379 0.01127 0.0
H555 H 0.24494 0.66993 0.05926 0.0
H556 H 0.37 0.80899 0.0584 0.0
H557 H 0.36868 0.81015 1.00356 0.0
C558 C 0.30779 0.73876 0.9678 0.0
C559 C 0.2729 0.6993 0.95192 0.0
C560 C 0.30624 0.74056 0.99942 0.0
C561 C 0.23528 0.66271 0.96805 0.0
C562 C 0.2342 0.66361 0.99947 0.0
C563 C 0.27148 0.70082 0.04705 0.0
C564 C 0.3078 0.73894 0.06294 0.0
C565 C 0.27013 0.70172 0.01542 0.0
C566 C 0.34151 0.77917 0.04678 0.0
C567 C 0.34104 0.77972 0.01537 0.0
H568 H 0.83557 0.74352 0.56021 0.0
H569 H 0.70792 0.88167 0.56271 0.0
H570 H 0.70294 0.8821 0.50798 0.0
H571 H 0.74067 0.84882 0.45908 0.0
H572 H 0.8657 0.70823 0.45665 0.0
H573 H 0.86526 0.70293 0.51133 0.0
C574 C 0.8062 0.77324 0.54878 0.0
C575 C 0.77268 0.81282 0.56561 0.0
C576 C 0.80319 0.77311 0.51717 0.0
C577 C 0.73432 0.85065 0.55041 0.0
C578 C 0.73158 0.85118 0.51902 0.0
C579 C 0.76728 0.81657 0.47051 0.0
C580 C 0.80355 0.77948 0.45369 0.0
C581 C 0.76669 0.81344 0.50213 0.0
C582 C 0.83732 0.73748 0.46891 0.0
C583 C 0.83737 0.73452 0.50028 0.0
H584 H 0.678 0.25077 0.95512 0.0
H585 H 0.80788 0.38528 0.95583 0.0
H586 H 0.81014 0.38304 0.01066 0.0
H587 H 0.77073 0.34729 0.05869 0.0
H588 H 0.64421 0.20957 0.05797 0.0
H589 H 0.64558 0.20836 1.00313 0.0
C590 C 0.7071 0.27923 0.9673 0.0
C591 C 0.74228 0.31844 0.95139 0.0
C592 C 0.70872 0.27731 0.99892 0.0
C593 C 0.78033 0.35458 0.96748 0.0
C594 C 0.78151 0.35355 0.99889 0.0
C595 C 0.74388 0.31667 0.04651 0.0
C596 C 0.70712 0.27897 0.06244 0.0
C597 C 0.74524 0.31576 0.01488 0.0
C598 C 0.67304 0.23906 0.04633 0.0
C599 C 0.67354 0.23849 0.01491 0.0
H600 H 0.52583 0.20265 0.21452 0.0
H601 H 0.60058 0.33598 0.27058 0.0
H602 H 0.51047 0.3411 0.29978 0.0
H603 H 0.40779 0.31116 0.30743 0.0
H604 H 0.33433 0.18214 0.24816 0.0
H605 H 0.42599 0.1738 0.22156 0.0
C606 C 0.52304 0.23279 0.23322 0.0
C607 C 0.5704 0.26908 0.24009 0.0
C608 C 0.47052 0.23733 0.24896 0.0
C609 C 0.56534 0.30715 0.26476 0.0
C610 C 0.51341 0.31063 0.28125 0.0
C611 C 0.41168 0.28173 0.28849 0.0
C612 C 0.36376 0.24747 0.27985 0.0
C613 C 0.46516 0.27683 0.27312 0.0
C614 C 0.37009 0.20907 0.25542 0.0
C615 C 0.42274 0.20396 0.24023 0.0
H616 H 0.32192 0.89386 0.79072 0.0
H617 H 0.14904 0.83483 0.77036 0.0
H618 H 0.12435 0.93111 0.75025 0.0
H619 H 0.15443 0.03031 0.73469 0.0
H620 H 0.32781 0.0877 0.75387 0.0
H621 H 0.34941 0.99474 0.77873 0.0
C622 C 0.27875 0.90193 0.78194 0.0
C623 C 0.2377 0.85651 0.78173 0.0
C624 C 0.26469 0.95768 0.77056 0.0
C625 C 0.18175 0.86848 0.77063 0.0
C626 C 0.16751 0.92375 0.75918 0.0
C627 C 0.19612 0.02314 0.74542 0.0
C628 C 0.23889 0.06659 0.74346 0.0
C629 C 0.20878 0.96857 0.75872 0.0
C630 C 0.29366 0.05577 0.7561 0.0
C631 C 0.30624 1.00221 0.76986 0.0
H632 H 0.60699 0.70907 0.30748 0.0
H633 H 0.67902 0.83887 0.24801 0.0
H634 H 0.58695 0.84705 0.2218 0.0
H635 H 0.48717 0.81784 0.21511 0.0
H636 H 0.41408 0.68311 0.27104 0.0
H637 H 0.50445 0.67844 0.30005 0.0
C638 C 0.60271 0.73864 0.28858 0.0
C639 C 0.65033 0.77322 0.27981 0.0
C640 C 0.54902 0.74334 0.27337 0.0
C641 C 0.64349 0.81173 0.25541 0.0
C642 C 0.59061 0.81675 0.24043 0.0
C643 C 0.49038 0.78746 0.23373 0.0
C644 C 0.44342 0.75066 0.24061 0.0
C645 C 0.54312 0.78306 0.24929 0.0
C646 C 0.44901 0.71233 0.2652 0.0
C647 C 0.5011 0.7091 0.28157 0.0
H648 H 0.69455 0.12467 0.7913 0.0
H649 H 0.86506 0.18686 0.76823 0.0
H650 H 0.89045 0.09094 0.74803 0.0
H651 H 0.86139 0.99118 0.73313 0.0
H652 H 0.69047 0.93032 0.7552 0.0
H653 H 0.66843 0.02305 0.7801 0.0
C654 C 0.73735 0.11734 0.78191 0.0
C655 C 0.7775 0.16355 0.78096 0.0
C656 C 0.75186 0.06177 0.77051 0.0
C657 C 0.83304 0.15257 0.76909 0.0
C658 C 0.84768 0.09753 0.75758 0.0
C659 C 0.82022 0.99757 0.7445 0.0
C660 C 0.77827 0.95321 0.74334 0.0
C661 C 0.80726 0.05192 0.75786 0.0
C662 C 0.72408 0.96296 0.75681 0.0
C663 C 0.7112 0.01638 0.77059 0.0
H664 H 0.02706 0.15677 0.2827 0.0
H665 H 0.08051 0.33503 0.27223 0.0
H666 H 0.98973 0.35827 0.24618 0.0
H667 H 0.89185 0.32999 0.23026 0.0
H668 H 0.83587 0.15249 0.24244 0.0
H669 H 0.93031 0.1269 0.26392 0.0
C670 C 0.01948 0.20012 0.27373 0.0
C671 C 0.06111 0.24381 0.27852 0.0
C672 C 0.96604 0.2136 0.25972 0.0
C673 C 0.04981 0.30043 0.26802 0.0
C674 C 0.99756 0.31385 0.25348 0.0
C675 C 0.90018 0.28561 0.23753 0.0
C676 C 0.8562 0.24342 0.23494 0.0
C677 C 0.95473 0.27117 0.24988 0.0
C678 C 0.86847 0.18604 0.24427 0.0
C679 C 0.92268 0.17129 0.25652 0.0
H680 H 0.18571 0.39296 0.72997 0.0
H681 H 0.36517 0.3451 0.74295 0.0
H682 H 0.38575 0.44336 0.76148 0.0
H683 H 0.35061 0.5407 0.77792 0.0
H684 H 0.17037 0.5856 0.76672 0.0
H685 H 0.15242 0.49136 0.74287 0.0
C686 C 0.2294 0.40376 0.73688 0.0
C687 C 0.27359 0.36102 0.73551 0.0
C688 C 0.24092 0.46039 0.74735 0.0
C689 C 0.33013 0.37667 0.74402 0.0
C690 C 0.34197 0.43304 0.75452 0.0
C691 C 0.30802 0.53069 0.76905 0.0
C692 C 0.2622 0.57087 0.77311 0.0
C693 C 0.29757 0.47516 0.75658 0.0
C694 C 0.20657 0.55619 0.76294 0.0
C695 C 0.19617 0.5019 0.74978 0.0
H696 H 0.12168 0.68966 0.22966 0.0
H697 H 0.18198 0.86502 0.24406 0.0
H698 H 0.08792 0.89207 0.26542 0.0
H699 H 0.99023 0.86394 0.28347 0.0
H700 H 0.93201 0.68788 0.27068 0.0
H701 H 0.02262 0.66334 0.24478 0.0
C702 C 0.11434 0.73389 0.23739 0.0
C703 C 0.15943 0.77503 0.23547 0.0
C704 C 0.05994 0.74921 0.24964 0.0
C705 C 0.14849 0.83227 0.24537 0.0
C706 C 0.09451 0.84786 0.25755 0.0
C707 C 0.99676 0.82086 0.27402 0.0
C708 C 0.95383 0.77818 0.27808 0.0
C709 C 0.05002 0.80658 0.26008 0.0
C710 C 0.96372 0.72178 0.26697 0.0
C711 C 0.01587 0.7076 0.25254 0.0
H712 H 0.66367 0.47913 0.77756 0.0
H713 H 0.84368 0.43358 0.76613 0.0
H714 H 0.86186 0.52778 0.74218 0.0
H715 H 0.82888 0.62632 0.72927 0.0
H716 H 0.64969 0.67488 0.74246 0.0
H717 H 0.6288 0.57664 0.76106 0.0
C718 C 0.70625 0.48901 0.76862 0.0
C719 C 0.75196 0.44865 0.77265 0.0
C720 C 0.71684 0.54452 0.75608 0.0
C721 C 0.80758 0.46313 0.76238 0.0
C722 C 0.8181 0.51739 0.74916 0.0
C723 C 0.78518 0.61569 0.73625 0.0
C724 C 0.74116 0.65861 0.73492 0.0
C725 C 0.7735 0.55907 0.74676 0.0
C726 C 0.6846 0.64316 0.74349 0.0
C727 C 0.67259 0.58681 0.75404 0.0
loop_
_geom_bond_atom_site_label_1
_geom_bond_atom_site_label_2
_geom_bond_distance
_geom_bond_site_symmetry_2
_ccdc_geom_bond_type
Co0 O2 2.143 . S
Co0 O8 2.074 . S
Co0 O11 2.093 . S
Co0 O24 2.097 . S
Co0 N41 2.151 . S
Co0 N49 2.214 . S
Co1 O2 2.160 . S
Co1 O7 2.058 . S
Co1 O17 2.057 . S
Co1 O32 2.037 . S
Co1 N36 2.145 . S
Co1 N57 2.257 . S
O2 Co0 2.143 . S
O2 Co1 2.160 . S
C3 O4 1.278 . S
C3 O11 1.224 . S
O4 C3 1.278 . S
C5 O6 1.245 . S
C5 O17 1.232 . S
O6 C5 1.245 . S
O7 Co1 2.058 . S
O7 C33 1.269 . S
O8 Co0 2.074 . S
O8 C33 1.257 . S
H9 C34 0.930 . S
H10 C40 0.930 . S
O11 Co0 2.093 . S
O11 C3 1.224 . S
H12 C44 0.929 . S
H13 C46 0.930 . S
H14 C47 0.930 . S
H15 C45 0.929 . S
H16 C48 0.928 1_455 S
O17 Co1 2.057 . S
O17 C5 1.232 . S
H18 C37 0.929 . S
H19 C38 0.929 . S
H20 C50 0.931 . S
H21 C42 0.929 . S
H22 C51 0.930 . S
H23 C43 0.931 . S
O24 Co0 2.097 . S
O24 C52 1.214 . S
H25 C53 0.929 . S
H26 C54 0.929 . S
H27 C55 0.930 1_565 S
H28 C56 0.929 . S
H29 C58 0.930 . S
H30 C35 0.930 . S
H31 C39 0.930 . S
O32 Co1 2.037 . S
O32 C52 1.234 . S
C33 O7 1.269 . S
C33 O8 1.257 . S
C34 H9 0.930 . S
C34 C37 1.388 . S
C34 C39 1.418 . S
C35 H30 0.930 . S
C35 C38 1.404 . S
C35 C39 1.353 . S
N36 Co1 2.145 . S
N36 C37 1.397 . S
N36 C38 1.334 . S
C37 H18 0.929 . S
C37 C34 1.388 . S
C37 N36 1.397 . S
C38 H19 0.929 . S
C38 C35 1.404 . S
C38 N36 1.334 . S
C39 H31 0.930 . S
C39 C34 1.418 . S
C39 C35 1.353 . S
C40 H10 0.930 . S
C40 N41 1.330 . S
C40 C42 1.446 . S
N41 Co0 2.151 . S
N41 C40 1.330 . S
N41 C45 1.418 . S
C42 H21 0.929 . S
C42 C40 1.446 . S
C42 C43 1.332 . S
C43 H23 0.931 . S
C43 C42 1.332 . S
C43 C44 1.267 . S
C44 H12 0.929 . S
C44 C43 1.267 . S
C44 C45 1.251 . S
C45 H15 0.929 . S
C45 N41 1.418 . S
C45 C44 1.251 . S
C46 H13 0.930 . S
C46 C48 1.406 . S
C46 C51 1.261 . S
C47 H14 0.930 . S
C47 N49 1.325 1_655 S
C47 C50 1.357 . S
C48 H16 0.928 1_655 S
C48 C46 1.406 . S
C48 N49 1.261 1_655 S
N49 Co0 2.214 . S
N49 C47 1.325 1_455 S
N49 C48 1.261 1_455 S
C50 H20 0.931 . S
C50 C47 1.357 . S
C50 C51 1.312 . S
C51 H22 0.930 . S
C51 C46 1.261 . S
C51 C50 1.312 . S
C52 O24 1.214 . S
C52 O32 1.234 . S
C53 H25 0.929 . S
C53 C56 1.391 . S
C53 C58 1.391 . S
C54 H26 0.929 . S
C54 C55 1.390 . S
C54 N57 1.391 . S
C55 H27 0.930 1_545 S
C55 C54 1.390 . S
C55 C56 1.392 . S
C56 H28 0.929 . S
C56 C53 1.391 . S
C56 C55 1.392 . S
N57 Co1 2.257 . S
N57 C54 1.391 . S
N57 C58 1.388 . S
C58 H29 0.930 . S
C58 C53 1.391 . S
C58 N57 1.388 . S
Co59 O61 2.143 . S
Co59 O67 2.074 . S
Co59 O70 2.093 . S
Co59 O83 2.097 . S
Co59 N100 2.151 . S
Co59 N108 2.214 . S
Co60 O61 2.160 . S
Co60 O66 2.058 . S
Co60 O76 2.057 . S
Co60 O91 2.037 . S
Co60 N95 2.145 . S
Co60 N116 2.257 . S
O61 Co59 2.143 . S
O61 Co60 2.160 . S
C62 O63 1.278 . S
C62 O70 1.224 . S
O63 C62 1.278 . S
C64 O65 1.245 . S
C64 O76 1.232 . S
O65 C64 1.245 . S
O66 Co60 2.058 . S
O66 C92 1.269 . S
O67 Co59 2.074 . S
O67 C92 1.257 . S
H68 C93 0.930 . S
H69 C99 0.930 . S
O70 Co59 2.093 . S
O70 C62 1.224 . S
H71 C103 0.929 . S
H72 C105 0.930 . S
H73 C106 0.930 . S
H74 C104 0.929 . S
H75 C107 0.928 . S
O76 Co60 2.057 . S
O76 C64 1.232 . S
H77 C96 0.929 . S
H78 C97 0.929 . S
H79 C109 0.931 . S
H80 C101 0.929 . S
H81 C110 0.930 . S
H82 C102 0.931 . S
O83 Co59 2.097 . S
O83 C111 1.214 . S
H84 C112 0.929 . S
H85 C113 0.929 . S
H86 C114 0.930 . S
H87 C115 0.929 . S
H88 C117 0.930 . S
H89 C94 0.930 . S
H90 C98 0.930 . S
O91 Co60 2.037 . S
O91 C111 1.234 . S
C92 O66 1.269 . S
C92 O67 1.257 . S
C93 H68 0.930 . S
C93 C96 1.388 . S
C93 C98 1.418 . S
C94 H89 0.930 . S
C94 C97 1.404 . S
C94 C98 1.353 . S
N95 Co60 2.145 . S
N95 C96 1.397 . S
N95 C97 1.334 . S
C96 H77 0.929 . S
C96 C93 1.388 . S
C96 N95 1.397 . S
C97 H78 0.929 . S
C97 C94 1.404 . S
C97 N95 1.334 . S
C98 H90 0.930 . S
C98 C93 1.418 . S
C98 C94 1.353 . S
C99 H69 0.930 . S
C99 N100 1.330 . S
C99 C101 1.446 . S
N100 Co59 2.151 . S
N100 C99 1.330 . S
N100 C104 1.418 . S
C101 H80 0.929 . S
C101 C99 1.446 . S
C101 C102 1.332 . S
C102 H82 0.931 . S
C102 C101 1.332 . S
C102 C103 1.267 . S
C103 H71 0.929 . S
C103 C102 1.267 . S
C103 C104 1.251 . S
C104 H74 0.929 . S
C104 N100 1.418 . S
C104 C103 1.251 . S
C105 H72 0.930 . S
C105 C107 1.406 . S
C105 C110 1.261 . S
C106 H73 0.930 . S
C106 N108 1.325 . S
C106 C109 1.357 . S
C107 H75 0.928 . S
C107 C105 1.406 . S
C107 N108 1.261 . S
N108 Co59 2.214 . S
N108 C106 1.325 . S
N108 C107 1.261 . S
C109 H79 0.931 . S
C109 C106 1.357 . S
C109 C110 1.312 . S
C110 H81 0.930 . S
C110 C105 1.261 . S
C110 C109 1.312 . S
C111 O83 1.214 . S
C111 O91 1.234 . S
C112 H84 0.929 . S
C112 C115 1.391 . S
C112 C117 1.391 . S
C113 H85 0.929 . S
C113 C114 1.390 . S
C113 N116 1.391 . S
C114 H86 0.930 . S
C114 C113 1.390 . S
C114 C115 1.392 . S
C115 H87 0.929 . S
C115 C112 1.391 . S
C115 C114 1.392 . S
N116 Co60 2.257 . S
N116 C113 1.391 . S
N116 C117 1.388 . S
C117 H88 0.930 . S
C117 C112 1.391 . S
C117 N116 1.388 . S
Co118 O120 2.143 . S
Co118 O126 2.074 . S
Co118 O129 2.093 . S
Co118 O142 2.097 . S
Co118 N159 2.151 . S
Co118 N167 2.214 . S
Co119 O120 2.160 . S
Co119 O125 2.058 . S
Co119 O135 2.057 . S
Co119 O150 2.037 . S
Co119 N154 2.145 . S
Co119 N175 2.257 . S
O120 Co118 2.143 . S
O120 Co119 2.160 . S
C121 O122 1.278 . S
C121 O129 1.224 . S
O122 C121 1.278 . S
C123 O124 1.245 . S
C123 O135 1.232 . S
O124 C123 1.245 . S
O125 Co119 2.058 . S
O125 C151 1.269 . S
O126 Co118 2.074 . S
O126 C151 1.257 . S
H127 C152 0.930 . S
H128 C158 0.930 . S
O129 Co118 2.093 . S
O129 C121 1.224 . S
H130 C162 0.929 . S
H131 C164 0.930 . S
H132 C165 0.930 . S
H133 C163 0.929 . S
H134 C166 0.928 1_655 S
O135 Co119 2.057 . S
O135 C123 1.232 . S
H136 C155 0.929 . S
H137 C156 0.929 . S
H138 C168 0.931 . S
H139 C160 0.929 . S
H140 C169 0.930 . S
H141 C161 0.931 . S
O142 Co118 2.097 . S
O142 C170 1.214 . S
H143 C171 0.929 . S
H144 C172 0.929 . S
H145 C173 0.930 1_545 S
H146 C174 0.929 . S
H147 C176 0.930 . S
H148 C153 0.930 . S
H149 C157 0.930 . S
O150 Co119 2.037 . S
O150 C170 1.234 . S
C151 O125 1.269 . S
C151 O126 1.257 . S
C152 H127 0.930 . S
C152 C155 1.388 . S
C152 C157 1.418 . S
C153 H148 0.930 . S
C153 C156 1.404 . S
C153 C157 1.353 . S
N154 Co119 2.145 . S
N154 C155 1.397 . S
N154 C156 1.334 . S
C155 H136 0.929 . S
C155 C152 1.388 . S
C155 N154 1.397 . S
C156 H137 0.929 . S
C156 C153 1.404 . S
C156 N154 1.334 . S
C157 H149 0.930 . S
C157 C152 1.418 . S
C157 C153 1.353 . S
C158 H128 0.930 . S
C158 N159 1.330 . S
C158 C160 1.446 . S
N159 Co118 2.151 . S
N159 C158 1.330 . S
N159 C163 1.418 . S
C160 H139 0.929 . S
C160 C158 1.446 . S
C160 C161 1.332 . S
C161 H141 0.931 . S
C161 C160 1.332 . S
C161 C162 1.267 . S
C162 H130 0.929 . S
C162 C161 1.267 . S
C162 C163 1.251 . S
C163 H133 0.929 . S
C163 N159 1.418 . S
C163 C162 1.251 . S
C164 H131 0.930 . S
C164 C166 1.406 . S
C164 C169 1.261 . S
C165 H132 0.930 . S
C165 N167 1.325 1_455 S
C165 C168 1.357 . S
C166 H134 0.928 1_455 S
C166 C164 1.406 . S
C166 N167 1.261 1_455 S
N167 Co118 2.214 . S
N167 C165 1.325 1_655 S
N167 C166 1.261 1_655 S
C168 H138 0.931 . S
C168 C165 1.357 . S
C168 C169 1.312 . S
C169 H140 0.930 . S
C169 C164 1.261 . S
C169 C168 1.312 . S
C170 O142 1.214 . S
C170 O150 1.234 . S
C171 H143 0.929 . S
C171 C174 1.391 . S
C171 C176 1.391 . S
C172 H144 0.929 . S
C172 C173 1.390 . S
C172 N175 1.391 . S
C173 H145 0.930 1_565 S
C173 C172 1.390 . S
C173 C174 1.392 . S
C174 H146 0.929 . S
C174 C171 1.391 . S
C174 C173 1.392 . S
N175 Co119 2.257 . S
N175 C172 1.391 . S
N175 C176 1.388 . S
C176 H147 0.930 . S
C176 C171 1.391 . S
C176 N175 1.388 . S
Co177 O179 2.143 . S
Co177 O185 2.074 . S
Co177 O188 2.093 . S
Co177 O201 2.097 . S
Co177 N218 2.151 . S
Co177 N226 2.214 . S
Co178 O179 2.160 . S
Co178 O184 2.058 . S
Co178 O194 2.057 . S
Co178 O209 2.037 . S
Co178 N213 2.145 . S
Co178 N234 2.257 . S
O179 Co177 2.143 . S
O179 Co178 2.160 . S
C180 O181 1.278 . S
C180 O188 1.224 . S
O181 C180 1.278 . S
C182 O183 1.245 . S
C182 O194 1.232 . S
O183 C182 1.245 . S
O184 Co178 2.058 . S
O184 C210 1.269 . S
O185 Co177 2.074 . S
O185 C210 1.257 . S
H186 C211 0.930 . S
H187 C217 0.930 . S
O188 Co177 2.093 . S
O188 C180 1.224 . S
H189 C221 0.929 . S
H190 C223 0.930 . S
H191 C224 0.930 . S
H192 C222 0.929 . S
H193 C225 0.928 . S
O194 Co178 2.057 . S
O194 C182 1.232 . S
H195 C214 0.929 . S
H196 C215 0.929 . S
H197 C227 0.931 . S
H198 C219 0.929 . S
H199 C228 0.930 . S
H200 C220 0.931 . S
O201 Co177 2.097 . S
O201 C229 1.214 . S
H202 C230 0.929 . S
H203 C231 0.929 . S
H204 C232 0.930 . S
H205 C233 0.929 . S
H206 C235 0.930 . S
H207 C212 0.930 . S
H208 C216 0.930 . S
O209 Co178 2.037 . S
O209 C229 1.234 . S
C210 O184 1.269 . S
C210 O185 1.257 . S
C211 H186 0.930 . S
C211 C214 1.388 . S
C211 C216 1.418 . S
C212 H207 0.930 . S
C212 C215 1.404 . S
C212 C216 1.353 . S
N213 Co178 2.145 . S
N213 C214 1.397 . S
N213 C215 1.334 . S
C214 H195 0.929 . S
C214 C211 1.388 . S
C214 N213 1.397 . S
C215 H196 0.929 . S
C215 C212 1.404 . S
C215 N213 1.334 . S
C216 H208 0.930 . S
C216 C211 1.418 . S
C216 C212 1.353 . S
C217 H187 0.930 . S
C217 N218 1.330 . S
C217 C219 1.446 . S
N218 Co177 2.151 . S
N218 C217 1.330 . S
N218 C222 1.418 . S
C219 H198 0.929 . S
C219 C217 1.446 . S
C219 C220 1.332 . S
C220 H200 0.931 . S
C220 C219 1.332 . S
C220 C221 1.267 . S
C221 H189 0.929 . S
C221 C220 1.267 . S
C221 C222 1.251 . S
C222 H192 0.929 . S
C222 N218 1.418 . S
C222 C221 1.251 . S
C223 H190 0.930 . S
C223 C225 1.406 . S
C223 C228 1.261 . S
C224 H191 0.930 . S
C224 N226 1.325 . S
C224 C227 1.357 . S
C225 H193 0.928 . S
C225 C223 1.406 . S
C225 N226 1.261 . S
N226 Co177 2.214 . S
N226 C224 1.325 . S
N226 C225 1.261 . S
C227 H197 0.931 . S
C227 C224 1.357 . S
C227 C228 1.312 . S
C228 H199 0.930 . S
C228 C223 1.261 . S
C228 C227 1.312 . S
C229 O201 1.214 . S
C229 O209 1.234 . S
C230 H202 0.929 . S
C230 C233 1.391 . S
C230 C235 1.391 . S
C231 H203 0.929 . S
C231 C232 1.390 . S
C231 N234 1.391 . S
C232 H204 0.930 . S
C232 C231 1.390 . S
C232 C233 1.392 . S
C233 H205 0.929 . S
C233 C230 1.391 . S
C233 C232 1.392 . S
N234 Co178 2.257 . S
N234 C231 1.391 . S
N234 C235 1.388 . S
C235 H206 0.930 . S
C235 C230 1.391 . S
C235 N234 1.388 . S
Co236 O238 2.143 . S
Co236 O244 2.074 . S
Co236 O247 2.093 . S
Co236 O260 2.097 . S
Co236 N277 2.151 . S
Co236 N285 2.214 . S
Co237 O238 2.160 . S
Co237 O243 2.058 . S
Co237 O253 2.057 . S
Co237 O268 2.037 . S
Co237 N272 2.145 . S
Co237 N293 2.257 . S
O238 Co236 2.143 . S
O238 Co237 2.160 . S
C239 O240 1.278 . S
C239 O247 1.224 . S
O240 C239 1.278 . S
C241 O242 1.245 . S
C241 O253 1.232 . S
O242 C241 1.245 . S
O243 Co237 2.058 . S
O243 C269 1.269 . S
O244 Co236 2.074 . S
O244 C269 1.257 . S
H245 C270 0.930 . S
H246 C276 0.930 . S
O247 Co236 2.093 . S
O247 C239 1.224 . S
H248 C280 0.929 . S
H249 C282 0.930 . S
H250 C283 0.930 . S
H251 C281 0.929 . S
H252 C284 0.928 . S
O253 Co237 2.057 . S
O253 C241 1.232 . S
H254 C273 0.929 . S
H255 C274 0.929 . S
H256 C286 0.931 . S
H257 C278 0.929 . S
H258 C287 0.930 . S
H259 C279 0.931 . S
O260 Co236 2.097 . S
O260 C288 1.214 . S
H261 C289 0.929 . S
H262 C290 0.929 . S
H263 C291 0.930 . S
H264 C292 0.929 . S
H265 C294 0.930 . S
H266 C271 0.930 . S
H267 C275 0.930 . S
O268 Co237 2.037 . S
O268 C288 1.234 . S
C269 O243 1.269 . S
C269 O244 1.257 . S
C270 H245 0.930 . S
C270 C273 1.388 . S
C270 C275 1.418 . S
C271 H266 0.930 . S
C271 C274 1.404 . S
C271 C275 1.353 . S
N272 Co237 2.145 . S
N272 C273 1.397 . S
N272 C274 1.334 . S
C273 H254 0.929 . S
C273 C270 1.388 . S
C273 N272 1.397 . S
C274 H255 0.929 . S
C274 C271 1.404 . S
C274 N272 1.334 . S
C275 H267 0.930 . S
C275 C270 1.418 . S
C275 C271 1.353 . S
C276 H246 0.930 . S
C276 N277 1.330 . S
C276 C278 1.446 . S
N277 Co236 2.151 . S
N277 C276 1.330 . S
N277 C281 1.418 . S
C278 H257 0.929 . S
C278 C276 1.446 . S
C278 C279 1.332 . S
C279 H259 0.931 . S
C279 C278 1.332 . S
C279 C280 1.267 . S
C280 H248 0.929 . S
C280 C279 1.267 . S
C280 C281 1.251 . S
C281 H251 0.929 . S
C281 N277 1.418 . S
C281 C280 1.251 . S
C282 H249 0.930 . S
C282 C284 1.406 . S
C282 C287 1.261 . S
C283 H250 0.930 . S
C283 N285 1.325 . S
C283 C286 1.357 . S
C284 H252 0.928 . S
C284 C282 1.406 . S
C284 N285 1.261 . S
N285 Co236 2.214 . S
N285 C283 1.325 . S
N285 C284 1.261 . S
C286 H256 0.931 . S
C286 C283 1.357 . S
C286 C287 1.312 . S
C287 H258 0.930 . S
C287 C282 1.261 . S
C287 C286 1.312 . S
C288 O260 1.214 . S
C288 O268 1.234 . S
C289 H261 0.929 . S
C289 C292 1.391 . S
C289 C294 1.391 . S
C290 H262 0.929 . S
C290 C291 1.390 . S
C290 N293 1.391 . S
C291 H263 0.930 . S
C291 C290 1.390 . S
C291 C292 1.392 . S
C292 H264 0.929 . S
C292 C289 1.391 . S
C292 C291 1.392 . S
N293 Co237 2.257 . S
N293 C290 1.391 . S
N293 C294 1.388 . S
C294 H265 0.930 . S
C294 C289 1.391 . S
C294 N293 1.388 . S
Co295 O297 2.143 . S
Co295 O303 2.074 . S
Co295 O306 2.093 . S
Co295 O319 2.097 . S
Co295 N336 2.151 . S
Co295 N344 2.214 . S
Co296 O297 2.160 . S
Co296 O302 2.058 . S
Co296 O312 2.057 . S
Co296 O327 2.037 . S
Co296 N331 2.145 . S
Co296 N352 2.257 . S
O297 Co295 2.143 . S
O297 Co296 2.160 . S
C298 O299 1.278 . S
C298 O306 1.224 . S
O299 C298 1.278 . S
C300 O301 1.245 . S
C300 O312 1.232 . S
O301 C300 1.245 . S
O302 Co296 2.058 . S
O302 C328 1.269 . S
O303 Co295 2.074 . S
O303 C328 1.257 . S
H304 C329 0.930 . S
H305 C335 0.930 . S
O306 Co295 2.093 . S
O306 C298 1.224 . S
H307 C339 0.929 . S
H308 C341 0.930 . S
H309 C342 0.930 . S
H310 C340 0.929 . S
H311 C343 0.928 1_545 S
O312 Co296 2.057 . S
O312 C300 1.232 . S
H313 C332 0.929 . S
H314 C333 0.929 . S
H315 C345 0.931 . S
H316 C337 0.929 . S
H317 C346 0.930 . S
H318 C338 0.931 . S
O319 Co295 2.097 . S
O319 C347 1.214 . S
H320 C348 0.929 . S
H321 C349 0.929 . S
H322 C350 0.930 1_655 S
H323 C351 0.929 . S
H324 C353 0.930 . S
H325 C330 0.930 . S
H326 C334 0.930 . S
O327 Co296 2.037 . S
O327 C347 1.234 . S
C328 O302 1.269 . S
C328 O303 1.257 . S
C329 H304 0.930 . S
C329 C332 1.388 . S
C329 C334 1.418 . S
C330 H325 0.930 . S
C330 C333 1.404 . S
C330 C334 1.353 . S
N331 Co296 2.145 . S
N331 C332 1.397 . S
N331 C333 1.334 . S
C332 H313 0.929 . S
C332 C329 1.388 . S
C332 N331 1.397 . S
C333 H314 0.929 . S
C333 C330 1.404 . S
C333 N331 1.334 . S
C334 H326 0.930 . S
C334 C329 1.418 . S
C334 C330 1.353 . S
C335 H305 0.930 . S
C335 N336 1.330 . S
C335 C337 1.446 . S
N336 Co295 2.151 . S
N336 C335 1.330 . S
N336 C340 1.418 . S
C337 H316 0.929 . S
C337 C335 1.446 . S
C337 C338 1.332 . S
C338 H318 0.931 . S
C338 C337 1.332 . S
C338 C339 1.267 . S
C339 H307 0.929 . S
C339 C338 1.267 . S
C339 C340 1.251 . S
C340 H310 0.929 . S
C340 N336 1.418 . S
C340 C339 1.251 . S
C341 H308 0.930 . S
C341 C343 1.406 . S
C341 C346 1.261 . S
C342 H309 0.930 . S
C342 N344 1.325 1_565 S
C342 C345 1.357 . S
C343 H311 0.928 1_565 S
C343 C341 1.406 . S
C343 N344 1.261 1_565 S
N344 Co295 2.214 . S
N344 C342 1.325 1_545 S
N344 C343 1.261 1_545 S
C345 H315 0.931 . S
C345 C342 1.357 . S
C345 C346 1.312 . S
C346 H317 0.930 . S
C346 C341 1.261 . S
C346 C345 1.312 . S
C347 O319 1.214 . S
C347 O327 1.234 . S
C348 H320 0.929 . S
C348 C351 1.391 . S
C348 C353 1.391 . S
C349 H321 0.929 . S
C349 C350 1.390 . S
C349 N352 1.391 . S
C350 H322 0.930 1_455 S
C350 C349 1.390 . S
C350 C351 1.392 . S
C351 H323 0.929 . S
C351 C348 1.391 . S
C351 C350 1.392 . S
N352 Co296 2.257 . S
N352 C349 1.391 . S
N352 C353 1.388 . S
C353 H324 0.930 . S
C353 C348 1.391 . S
C353 N352 1.388 . S
Co354 O356 2.143 . S
Co354 O362 2.074 . S
Co354 O365 2.093 . S
Co354 O378 2.097 . S
Co354 N395 2.151 . S
Co354 N403 2.214 . S
Co355 O356 2.160 . S
Co355 O361 2.058 . S
Co355 O371 2.057 . S
Co355 O386 2.037 . S
Co355 N390 2.145 . S
Co355 N411 2.257 . S
O356 Co354 2.143 . S
O356 Co355 2.160 . S
C357 O358 1.278 . S
C357 O365 1.224 . S
O358 C357 1.278 . S
C359 O360 1.245 . S
C359 O371 1.232 . S
O360 C359 1.245 . S
O361 Co355 2.058 . S
O361 C387 1.269 . S
O362 Co354 2.074 . S
O362 C387 1.257 . S
H363 C388 0.930 . S
H364 C394 0.930 . S
O365 Co354 2.093 . S
O365 C357 1.224 . S
H366 C398 0.929 . S
H367 C400 0.930 . S
H368 C401 0.930 . S
H369 C399 0.929 . S
H370 C402 0.928 . S
O371 Co355 2.057 . S
O371 C359 1.232 . S
H372 C391 0.929 . S
H373 C392 0.929 . S
H374 C404 0.931 . S
H375 C396 0.929 . S
H376 C405 0.930 . S
H377 C397 0.931 . S
O378 Co354 2.097 . S
O378 C406 1.214 . S
H379 C407 0.929 . S
H380 C408 0.929 . S
H381 C409 0.930 . S
H382 C410 0.929 . S
H383 C412 0.930 . S
H384 C389 0.930 . S
H385 C393 0.930 . S
O386 Co355 2.037 . S
O386 C406 1.234 . S
C387 O361 1.269 . S
C387 O362 1.257 . S
C388 H363 0.930 . S
C388 C391 1.388 . S
C388 C393 1.418 . S
C389 H384 0.930 . S
C389 C392 1.404 . S
C389 C393 1.353 . S
N390 Co355 2.145 . S
N390 C391 1.397 . S
N390 C392 1.334 . S
C391 H372 0.929 . S
C391 C388 1.388 . S
C391 N390 1.397 . S
C392 H373 0.929 . S
C392 C389 1.404 . S
C392 N390 1.334 . S
C393 H385 0.930 . S
C393 C388 1.418 . S
C393 C389 1.353 . S
C394 H364 0.930 . S
C394 N395 1.330 . S
C394 C396 1.446 . S
N395 Co354 2.151 . S
N395 C394 1.330 . S
N395 C399 1.418 . S
C396 H375 0.929 . S
C396 C394 1.446 . S
C396 C397 1.332 . S
C397 H377 0.931 . S
C397 C396 1.332 . S
C397 C398 1.267 . S
C398 H366 0.929 . S
C398 C397 1.267 . S
C398 C399 1.251 . S
C399 H369 0.929 . S
C399 N395 1.418 . S
C399 C398 1.251 . S
C400 H367 0.930 . S
C400 C402 1.406 . S
C400 C405 1.261 . S
C401 H368 0.930 . S
C401 N403 1.325 . S
C401 C404 1.357 . S
C402 H370 0.928 . S
C402 C400 1.406 . S
C402 N403 1.261 . S
N403 Co354 2.214 . S
N403 C401 1.325 . S
N403 C402 1.261 . S
C404 H374 0.931 . S
C404 C401 1.357 . S
C404 C405 1.312 . S
C405 H376 0.930 . S
C405 C400 1.261 . S
C405 C404 1.312 . S
C406 O378 1.214 . S
C406 O386 1.234 . S
C407 H379 0.929 . S
C407 C410 1.391 . S
C407 C412 1.391 . S
C408 H380 0.929 . S
C408 C409 1.390 . S
C408 N411 1.391 . S
C409 H381 0.930 . S
C409 C408 1.390 . S
C409 C410 1.392 . S
C410 H382 0.929 . S
C410 C407 1.391 . S
C410 C409 1.392 . S
N411 Co355 2.257 . S
N411 C408 1.391 . S
N411 C412 1.388 . S
C412 H383 0.930 . S
C412 C407 1.391 . S
C412 N411 1.388 . S
Co413 O415 2.143 . S
Co413 O421 2.074 . S
Co413 O424 2.093 . S
Co413 O437 2.097 . S
Co413 N454 2.151 . S
Co413 N462 2.214 . S
Co414 O415 2.160 . S
Co414 O420 2.058 . S
Co414 O430 2.057 . S
Co414 O445 2.037 . S
Co414 N449 2.145 . S
Co414 N470 2.257 . S
O415 Co413 2.143 . S
O415 Co414 2.160 . S
C416 O417 1.278 . S
C416 O424 1.224 . S
O417 C416 1.278 . S
C418 O419 1.245 . S
C418 O430 1.232 . S
O419 C418 1.245 . S
O420 Co414 2.058 . S
O420 C446 1.269 . S
O421 Co413 2.074 . S
O421 C446 1.257 . S
H422 C447 0.930 . S
H423 C453 0.930 . S
O424 Co413 2.093 . S
O424 C416 1.224 . S
H425 C457 0.929 . S
H426 C459 0.930 . S
H427 C460 0.930 . S
H428 C458 0.929 . S
H429 C461 0.928 1_565 S
O430 Co414 2.057 . S
O430 C418 1.232 . S
H431 C450 0.929 . S
H432 C451 0.929 . S
H433 C463 0.931 . S
H434 C455 0.929 . S
H435 C464 0.930 . S
H436 C456 0.931 . S
O437 Co413 2.097 . S
O437 C465 1.214 . S
H438 C466 0.929 . S
H439 C467 0.929 . S
H440 C468 0.930 1_455 S
H441 C469 0.929 . S
H442 C471 0.930 . S
H443 C448 0.930 . S
H444 C452 0.930 . S
O445 Co414 2.037 . S
O445 C465 1.234 . S
C446 O420 1.269 . S
C446 O421 1.257 . S
C447 H422 0.930 . S
C447 C450 1.388 . S
C447 C452 1.418 . S
C448 H443 0.930 . S
C448 C451 1.404 . S
C448 C452 1.353 . S
N449 Co414 2.145 . S
N449 C450 1.397 . S
N449 C451 1.334 . S
C450 H431 0.929 . S
C450 C447 1.388 . S
C450 N449 1.397 . S
C451 H432 0.929 . S
C451 C448 1.404 . S
C451 N449 1.334 . S
C452 H444 0.930 . S
C452 C447 1.418 . S
C452 C448 1.353 . S
C453 H423 0.930 . S
C453 N454 1.330 . S
C453 C455 1.446 . S
N454 Co413 2.151 . S
N454 C453 1.330 . S
N454 C458 1.418 . S
C455 H434 0.929 . S
C455 C453 1.446 . S
C455 C456 1.332 . S
C456 H436 0.931 . S
C456 C455 1.332 . S
C456 C457 1.267 . S
C457 H425 0.929 . S
C457 C456 1.267 . S
C457 C458 1.251 . S
C458 H428 0.929 . S
C458 N454 1.418 . S
C458 C457 1.251 . S
C459 H426 0.930 . S
C459 C461 1.406 . S
C459 C464 1.261 . S
C460 H427 0.930 . S
C460 N462 1.325 1_545 S
C460 C463 1.357 . S
C461 H429 0.928 1_545 S
C461 C459 1.406 . S
C461 N462 1.261 1_545 S
N462 Co413 2.214 . S
N462 C460 1.325 1_565 S
N462 C461 1.261 1_565 S
C463 H433 0.931 . S
C463 C460 1.357 . S
C463 C464 1.312 . S
C464 H435 0.930 . S
C464 C459 1.261 . S
C464 C463 1.312 . S
C465 O437 1.214 . S
C465 O445 1.234 . S
C466 H438 0.929 . S
C466 C469 1.391 . S
C466 C471 1.391 . S
C467 H439 0.929 . S
C467 C468 1.390 . S
C467 N470 1.391 . S
C468 H440 0.930 1_655 S
C468 C467 1.390 . S
C468 C469 1.392 . S
C469 H441 0.929 . S
C469 C466 1.391 . S
C469 C468 1.392 . S
N470 Co414 2.257 . S
N470 C467 1.391 . S
N470 C471 1.388 . S
C471 H442 0.930 . S
C471 C466 1.391 . S
C471 N470 1.388 . S
H472 C478 0.930 . S
H473 C481 0.930 . S
H474 C482 0.930 . S
H475 C483 0.930 . S
H476 C486 0.930 . S
H477 C487 0.930 . S
C478 H472 0.930 . S
C478 C479 1.355 . S
C478 C480 1.423 . S
C479 C478 1.355 . S
C479 C481 1.419 . S
C480 C478 1.423 . S
C480 C485 1.425 1_445 S
C480 C487 1.402 1_445 S
C481 H473 0.930 . S
C481 C479 1.419 . S
C481 C482 1.362 . S
C482 H474 0.930 . S
C482 C481 1.362 . S
C482 C485 1.402 1_445 S
C483 H475 0.930 . S
C483 C484 1.355 . S
C483 C485 1.423 . S
C484 C483 1.355 . S
C484 C486 1.419 . S
C485 C480 1.425 1_665 S
C485 C482 1.402 1_665 S
C485 C483 1.423 . S
C486 H476 0.930 . S
C486 C484 1.419 . S
C486 C487 1.362 . S
C487 H477 0.930 . S
C487 C480 1.402 1_665 S
C487 C486 1.362 . S
H488 C494 0.930 . S
H489 C497 0.930 . S
H490 C498 0.930 . S
H491 C499 0.930 . S
H492 C502 0.930 . S
H493 C503 0.930 . S
C494 H488 0.930 . S
C494 C495 1.355 . S
C494 C496 1.415 . S
C495 C494 1.355 . S
C495 C497 1.419 . S
C496 C494 1.415 . S
C496 C501 1.425 . S
C496 C503 1.409 . S
C497 H489 0.930 . S
C497 C495 1.419 . S
C497 C498 1.362 . S
C498 H490 0.930 . S
C498 C497 1.362 . S
C498 C501 1.409 . S
C499 H491 0.930 . S
C499 C500 1.355 . S
C499 C501 1.415 . S
C500 C499 1.355 . S
C500 C502 1.419 . S
C501 C496 1.425 . S
C501 C498 1.409 . S
C501 C499 1.415 . S
C502 H492 0.930 . S
C502 C500 1.419 . S
C502 C503 1.362 . S
C503 H493 0.930 . S
C503 C496 1.409 . S
C503 C502 1.362 . S
H504 C510 0.930 . S
H505 C513 0.930 . S
H506 C514 0.930 . S
H507 C515 0.930 . S
H508 C518 0.930 . S
H509 C519 0.930 . S
C510 H504 0.930 . S
C510 C511 1.355 . S
C510 C512 1.415 . S
C511 C510 1.355 . S
C511 C513 1.419 . S
C512 C510 1.415 . S
C512 C517 1.425 . S
C512 C519 1.409 . S
C513 H505 0.930 . S
C513 C511 1.419 . S
C513 C514 1.362 . S
C514 H506 0.930 . S
C514 C513 1.362 . S
C514 C517 1.409 . S
C515 H507 0.930 . S
C515 C516 1.355 . S
C515 C517 1.415 . S
C516 C515 1.355 . S
C516 C518 1.419 . S
C517 C512 1.425 . S
C517 C514 1.409 . S
C517 C515 1.415 . S
C518 H508 0.930 . S
C518 C516 1.419 . S
C518 C519 1.362 . S
C519 H509 0.930 . S
C519 C512 1.409 . S
C519 C518 1.362 . S
H520 C526 0.930 1_565 S
H521 C529 0.930 . S
H522 C530 0.930 . S
H523 C531 0.930 1_545 S
H524 C534 0.930 . S
H525 C535 0.930 . S
C526 H520 0.930 1_545 S
C526 C527 1.355 . S
C526 C528 1.415 1_545 S
C527 C526 1.355 . S
C527 C529 1.419 . S
C528 C526 1.415 1_565 S
C528 C533 1.425 1_465 S
C528 C535 1.409 . S
C529 H521 0.930 . S
C529 C527 1.419 . S
C529 C530 1.362 1_455 S
C530 H522 0.930 . S
C530 C529 1.362 1_655 S
C530 C533 1.409 . S
C531 H523 0.930 1_565 S
C531 C532 1.355 . S
C531 C533 1.415 1_565 S
C532 C531 1.355 . S
C532 C534 1.419 . S
C533 C528 1.425 1_645 S
C533 C530 1.409 . S
C533 C531 1.415 1_545 S
C534 H524 0.930 . S
C534 C532 1.419 . S
C534 C535 1.362 1_655 S
C535 H525 0.930 . S
C535 C528 1.409 . S
C535 C534 1.362 1_455 S
H536 C542 0.930 . S
H537 C545 0.930 . S
H538 C546 0.930 . S
H539 C547 0.930 . S
H540 C550 0.930 . S
H541 C551 0.930 . S
C542 H536 0.930 . S
C542 C543 1.355 . S
C542 C544 1.415 . S
C543 C542 1.355 . S
C543 C545 1.419 . S
C544 C542 1.415 . S
C544 C549 1.425 . S
C544 C551 1.409 . S
C545 H537 0.930 . S
C545 C543 1.419 . S
C545 C546 1.362 . S
C546 H538 0.930 . S
C546 C545 1.362 . S
C546 C549 1.409 . S
C547 H539 0.930 . S
C547 C548 1.355 . S
C547 C549 1.415 . S
C548 C547 1.355 . S
C548 C550 1.419 . S
C549 C544 1.425 . S
C549 C546 1.409 . S
C549 C547 1.415 . S
C550 H540 0.930 . S
C550 C548 1.419 . S
C550 C551 1.362 . S
C551 H541 0.930 . S
C551 C544 1.409 . S
C551 C550 1.362 . S
H552 C558 0.930 . S
H553 C561 0.930 . S
H554 C562 0.932 . S
H555 C563 0.930 . S
H556 C566 0.930 . S
H557 C567 0.932 . S
C558 H552 0.930 . S
C558 C559 1.355 . S
C558 C560 1.415 . S
C559 C558 1.355 . S
C559 C561 1.419 . S
C560 C558 1.415 . S
C560 C565 1.425 1_556 S
C560 C567 1.409 1_556 S
C561 H553 0.930 . S
C561 C559 1.419 . S
C561 C562 1.362 . S
C562 H554 0.932 . S
C562 C561 1.362 . S
C562 C565 1.409 1_556 S
C563 H555 0.930 . S
C563 C564 1.355 . S
C563 C565 1.415 . S
C564 C563 1.355 . S
C564 C566 1.419 . S
C565 C560 1.425 1_554 S
C565 C562 1.409 1_554 S
C565 C563 1.415 . S
C566 H556 0.930 . S
C566 C564 1.419 . S
C566 C567 1.362 . S
C567 H557 0.932 . S
C567 C560 1.409 1_554 S
C567 C566 1.362 . S
H568 C574 0.930 . S
H569 C577 0.930 . S
H570 C578 0.930 . S
H571 C579 0.930 . S
H572 C582 0.930 . S
H573 C583 0.930 . S
C574 H568 0.930 . S
C574 C575 1.355 . S
C574 C576 1.415 . S
C575 C574 1.355 . S
C575 C577 1.419 . S
C576 C574 1.415 . S
C576 C581 1.425 . S
C576 C583 1.409 . S
C577 H569 0.930 . S
C577 C575 1.419 . S
C577 C578 1.362 . S
C578 H570 0.930 . S
C578 C577 1.362 . S
C578 C581 1.409 . S
C579 H571 0.930 . S
C579 C580 1.355 . S
C579 C581 1.415 . S
C580 C579 1.355 . S
C580 C582 1.419 . S
C581 C576 1.425 . S
C581 C578 1.409 . S
C581 C579 1.415 . S
C582 H572 0.930 . S
C582 C580 1.419 . S
C582 C583 1.362 . S
C583 H573 0.930 . S
C583 C576 1.409 . S
C583 C582 1.362 . S
H584 C590 0.930 . S
H585 C593 0.930 . S
H586 C594 0.930 . S
H587 C595 0.930 . S
H588 C598 0.930 . S
H589 C599 0.930 . S
C590 H584 0.930 . S
C590 C591 1.355 . S
C590 C592 1.415 . S
C591 C590 1.355 . S
C591 C593 1.419 . S
C592 C590 1.415 . S
C592 C597 1.425 1_556 S
C592 C599 1.409 1_556 S
C593 H585 0.930 . S
C593 C591 1.419 . S
C593 C594 1.362 . S
C594 H586 0.930 . S
C594 C593 1.362 . S
C594 C597 1.409 1_556 S
C595 H587 0.930 . S
C595 C596 1.355 . S
C595 C597 1.415 . S
C596 C595 1.355 . S
C596 C598 1.419 . S
C597 C592 1.425 1_554 S
C597 C594 1.409 1_554 S
C597 C595 1.415 . S
C598 H588 0.930 . S
C598 C596 1.419 . S
C598 C599 1.362 . S
C599 H589 0.930 . S
C599 C592 1.409 1_554 S
C599 C598 1.362 . S
H600 C606 0.930 . S
H601 C609 0.930 . S
H602 C610 0.930 . S
H603 C611 0.930 . S
H604 C614 0.930 . S
H605 C615 0.930 . S
C606 H600 0.930 . S
C606 C607 1.355 . S
C606 C608 1.415 . S
C607 C606 1.355 . S
C607 C609 1.419 . S
C608 C606 1.415 . S
C608 C613 1.425 . S
C608 C615 1.409 . S
C609 H601 0.930 . S
C609 C607 1.419 . S
C609 C610 1.362 . S
C610 H602 0.930 . S
C610 C609 1.362 . S
C610 C613 1.409 . S
C611 H603 0.930 . S
C611 C612 1.355 . S
C611 C613 1.415 . S
C612 C611 1.355 . S
C612 C614 1.419 . S
C613 C608 1.425 . S
C613 C610 1.409 . S
C613 C611 1.415 . S
C614 H604 0.930 . S
C614 C612 1.419 . S
C614 C615 1.362 . S
C615 H605 0.930 . S
C615 C608 1.409 . S
C615 C614 1.362 . S
H616 C622 0.930 . S
H617 C625 0.930 . S
H618 C626 0.930 . S
H619 C627 0.930 1_545 S
H620 C630 0.930 . S
H621 C631 0.930 . S
C622 H616 0.930 . S
C622 C623 1.355 . S
C622 C624 1.415 . S
C623 C622 1.355 . S
C623 C625 1.419 . S
C624 C622 1.415 . S
C624 C629 1.425 . S
C624 C631 1.409 . S
C625 H617 0.930 . S
C625 C623 1.419 . S
C625 C626 1.362 . S
C626 H618 0.930 . S
C626 C625 1.362 . S
C626 C629 1.409 . S
C627 H619 0.930 1_565 S
C627 C628 1.355 1_565 S
C627 C629 1.415 . S
C628 C627 1.355 1_545 S
C628 C630 1.419 1_545 S
C629 C624 1.425 . S
C629 C626 1.409 . S
C629 C627 1.415 . S
C630 H620 0.930 . S
C630 C628 1.419 1_565 S
C630 C631 1.362 . S
C631 H621 0.930 . S
C631 C624 1.409 . S
C631 C630 1.362 . S
H632 C638 0.930 . S
H633 C641 0.930 . S
H634 C642 0.930 . S
H635 C643 0.930 . S
H636 C646 0.930 . S
H637 C647 0.930 . S
C638 H632 0.930 . S
C638 C639 1.355 . S
C638 C640 1.415 . S
C639 C638 1.355 . S
C639 C641 1.419 . S
C640 C638 1.415 . S
C640 C645 1.425 . S
C640 C647 1.409 . S
C641 H633 0.930 . S
C641 C639 1.419 . S
C641 C642 1.362 . S
C642 H634 0.930 . S
C642 C641 1.362 . S
C642 C645 1.409 . S
C643 H635 0.930 . S
C643 C644 1.355 . S
C643 C645 1.415 . S
C644 C643 1.355 . S
C644 C646 1.419 . S
C645 C640 1.425 . S
C645 C642 1.409 . S
C645 C643 1.415 . S
C646 H636 0.930 . S
C646 C644 1.419 . S
C646 C647 1.362 . S
C647 H637 0.930 . S
C647 C640 1.409 . S
C647 C646 1.362 . S
H648 C654 0.930 . S
H649 C657 0.930 . S
H650 C658 0.930 . S
H651 C659 0.930 . S
H652 C662 0.930 . S
H653 C663 0.930 . S
C654 H648 0.930 . S
C654 C655 1.355 . S
C654 C656 1.415 . S
C655 C654 1.355 . S
C655 C657 1.419 . S
C656 C654 1.415 . S
C656 C661 1.425 . S
C656 C663 1.409 . S
C657 H649 0.930 . S
C657 C655 1.419 . S
C657 C658 1.362 . S
C658 H650 0.930 . S
C658 C657 1.362 . S
C658 C661 1.409 . S
C659 H651 0.930 . S
C659 C660 1.355 . S
C659 C661 1.415 1_565 S
C660 C659 1.355 . S
C660 C662 1.419 1_565 S
C661 C656 1.425 . S
C661 C658 1.409 . S
C661 C659 1.415 1_545 S
C662 H652 0.930 . S
C662 C660 1.419 1_545 S
C662 C663 1.362 . S
C663 H653 0.930 . S
C663 C656 1.409 . S
C663 C662 1.362 . S
H664 C670 0.930 . S
H665 C673 0.930 . S
H666 C674 0.930 . S
H667 C675 0.930 . S
H668 C678 0.930 . S
H669 C679 0.930 . S
C670 H664 0.930 . S
C670 C671 1.355 . S
C670 C672 1.415 1_455 S
C671 C670 1.355 . S
C671 C673 1.419 1_455 S
C672 C670 1.415 1_655 S
C672 C677 1.425 . S
C672 C679 1.409 . S
C673 H665 0.930 . S
C673 C671 1.419 1_655 S
C673 C674 1.362 . S
C674 H666 0.930 . S
C674 C673 1.362 . S
C674 C677 1.409 . S
C675 H667 0.930 . S
C675 C676 1.355 . S
C675 C677 1.415 . S
C676 C675 1.355 . S
C676 C678 1.419 . S
C677 C672 1.425 . S
C677 C674 1.409 . S
C677 C675 1.415 . S
C678 H668 0.930 . S
C678 C676 1.419 . S
C678 C679 1.362 . S
C679 H669 0.930 . S
C679 C672 1.409 . S
C679 C678 1.362 . S
H680 C686 0.930 . S
H681 C689 0.930 . S
H682 C690 0.930 . S
H683 C691 0.930 . S
H684 C694 0.930 . S
H685 C695 0.930 . S
C686 H680 0.930 . S
C686 C687 1.355 . S
C686 C688 1.415 . S
C687 C686 1.355 . S
C687 C689 1.419 . S
C688 C686 1.415 . S
C688 C693 1.425 . S
C688 C695 1.409 . S
C689 H681 0.930 . S
C689 C687 1.419 . S
C689 C690 1.362 . S
C690 H682 0.930 . S
C690 C689 1.362 . S
C690 C693 1.409 . S
C691 H683 0.930 . S
C691 C692 1.355 . S
C691 C693 1.415 . S
C692 C691 1.355 . S
C692 C694 1.419 . S
C693 C688 1.425 . S
C693 C690 1.409 . S
C693 C691 1.415 . S
C694 H684 0.930 . S
C694 C692 1.419 . S
C694 C695 1.362 . S
C695 H685 0.930 . S
C695 C688 1.409 . S
C695 C694 1.362 . S
H696 C702 0.930 . S
H697 C705 0.930 . S
H698 C706 0.930 . S
H699 C707 0.930 . S
H700 C710 0.930 . S
H701 C711 0.930 . S
C702 H696 0.930 . S
C702 C703 1.355 . S
C702 C704 1.415 . S
C703 C702 1.355 . S
C703 C705 1.419 . S
C704 C702 1.415 . S
C704 C709 1.425 . S
C704 C711 1.409 . S
C705 H697 0.930 . S
C705 C703 1.419 . S
C705 C706 1.362 . S
C706 H698 0.930 . S
C706 C705 1.362 . S
C706 C709 1.409 . S
C707 H699 0.930 . S
C707 C708 1.355 . S
C707 C709 1.415 1_655 S
C708 C707 1.355 . S
C708 C710 1.419 1_655 S
C709 C704 1.425 . S
C709 C706 1.409 . S
C709 C707 1.415 1_455 S
C710 H700 0.930 . S
C710 C708 1.419 1_455 S
C710 C711 1.362 . S
C711 H701 0.930 . S
C711 C704 1.409 . S
C711 C710 1.362 . S
H712 C718 0.930 . S
H713 C721 0.930 . S
H714 C722 0.930 . S
H715 C723 0.930 . S
H716 C726 0.930 . S
H717 C727 0.930 . S
C718 H712 0.930 . S
C718 C719 1.355 . S
C718 C720 1.415 . S
C719 C718 1.355 . S
C719 C721 1.419 . S
C720 C718 1.415 . S
C720 C725 1.425 . S
C720 C727 1.409 . S
C721 H713 0.930 . S
C721 C719 1.419 . S
C721 C722 1.362 . S
C722 H714 0.930 . S
C722 C721 1.362 . S
C722 C725 1.409 . S
C723 H715 0.930 . S
C723 C724 1.355 . S
C723 C725 1.415 . S
C724 C723 1.355 . S
C724 C726 1.419 . S
C725 C720 1.425 . S
C725 C722 1.409 . S
C725 C723 1.415 . S
C726 H716 0.930 . S
C726 C724 1.419 . S
C726 C727 1.362 . S
C727 H717 0.930 . S
C727 C720 1.409 . S
C727 C726 1.362 . S
C479 C52 0.990 . S
C484 C170 0.983 . S
C495 C111 0.991 . S
C500 C229 0.992 . S
C511 C288 0.993 . S
C516 C406 0.989 . S
C527 C347 0.983 . S
C532 C465 0.979 . S
C543 C3 1.399 . S
C548 C298 1.457 . S
C559 C62 1.405 . S
C564 C357 1.452 . S
C575 C416 1.449 . S
C580 C121 1.408 . S
C591 C180 1.447 . S
C596 C239 1.411 . S
C607 C269 1.722 . S
C612 C5 1.753 . S
C623 C64 1.792 . S
C628 C328 1.751 . S
C639 C123 1.775 . S
C644 C387 1.760 . S
C655 C182 1.773 . S
C660 C446 1.725 . S
C671 C33 1.746 . S
C676 C241 1.789 . S
C687 C300 1.794 . S
C692 C92 1.756 . S
C703 C359 1.780 . S
C708 C151 1.733 . S
C719 C210 1.753 . S
C724 C418 1.793 . S
