# Generated by pormake.
# Topology tzs, (4)-cn, num edge types: 1
# Building blocks:
#     Node 0, Type 0, BuildingBlock: GALJAG_clean_sbu_0, # of connection points: 4
#     Node 1, Type 0, BuildingBlock: GALJAG_clean_sbu_0, # of connection points: 4
#     Node 2, Type 0, BuildingBlock: GALJAG_clean_sbu_0, # of connection points: 4
#     Node 3, Type 0, BuildingBlock: GALJAG_clean_sbu_0, # of connection points: 4
#     Node 4, Type 0, BuildingBlock: GALJAG_clean_sbu_0, # of connection points: 4
#     Node 5, Type 0, BuildingBlock: GALJAG_clean_sbu_0, # of connection points: 4
#     Node 6, Type 0, BuildingBlock: GALJAG_clean_sbu_0, # of connection points: 4
#     Node 7, Type 0, BuildingBlock: GALJAG_clean_sbu_0, # of connection points: 4
#     Node 8, Type 0, BuildingBlock: GALJAG_clean_sbu_0, # of connection points: 4
#     Node 9, Type 0, BuildingBlock: GALJAG_clean_sbu_0, # of connection points: 4
#     Node 10, Type 0, BuildingBlock: GALJAG_clean_sbu_0, # of connection points: 4
#     Node 11, Type 0, BuildingBlock: GALJAG_clean_sbu_0, # of connection points: 4
#     Node 12, Type 0, BuildingBlock: GALJAG_clean_sbu_0, # of connection points: 4
#     Node 13, Type 0, BuildingBlock: GALJAG_clean_sbu_0, # of connection points: 4
#     Node 14, Type 0, BuildingBlock: GALJAG_clean_sbu_0, # of connection points: 4
#     Node 15, Type 0, BuildingBlock: GALJAG_clean_sbu_0, # of connection points: 4
#     Edge 16, Type (0, 0), BuildingBlock: XUDNAN_clean_linker_2, # of connection points: 2
#     Edge 17, Type (0, 0), BuildingBlock: XUDNAN_clean_linker_2, # of connection points: 2
#     Edge 18, Type (0, 0), BuildingBlock: XUDNAN_clean_linker_2, # of connection points: 2
#     Edge 19, Type (0, 0), BuildingBlock: XUDNAN_clean_linker_2, # of connection points: 2
#     Edge 20, Type (0, 0), BuildingBlock: XUDNAN_clean_linker_2, # of connection points: 2
#     Edge 21, Type (0, 0), BuildingBlock: XUDNAN_clean_linker_2, # of connection points: 2
#     Edge 22, Type (0, 0), BuildingBlock: XUDNAN_clean_linker_2, # of connection points: 2
#     Edge 23, Type (0, 0), BuildingBlock: XUDNAN_clean_linker_2, # of connection points: 2
#     Edge 24, Type (0, 0), BuildingBlock: XUDNAN_clean_linker_2, # of connection points: 2
#     Edge 25, Type (0, 0), BuildingBlock: XUDNAN_clean_linker_2, # of connection points: 2
#     Edge 26, Type (0, 0), BuildingBlock: XUDNAN_clean_linker_2, # of connection points: 2
#     Edge 27, Type (0, 0), BuildingBlock: XUDNAN_clean_linker_2, # of connection points: 2
#     Edge 28, Type (0, 0), BuildingBlock: XUDNAN_clean_linker_2, # of connection points: 2
#     Edge 29, Type (0, 0), BuildingBlock: XUDNAN_clean_linker_2, # of connection points: 2
#     Edge 30, Type (0, 0), BuildingBlock: XUDNAN_clean_linker_2, # of connection points: 2
#     Edge 31, Type (0, 0), BuildingBlock: XUDNAN_clean_linker_2, # of connection points: 2
#     Edge 32, Type (0, 0), BuildingBlock: XUDNAN_clean_linker_2, # of connection points: 2
#     Edge 33, Type (0, 0), BuildingBlock: XUDNAN_clean_linker_2, # of connection points: 2
#     Edge 34, Type (0, 0), BuildingBlock: XUDNAN_clean_linker_2, # of connection points: 2
#     Edge 35, Type (0, 0), BuildingBlock: XUDNAN_clean_linker_2, # of connection points: 2
#     Edge 36, Type (0, 0), BuildingBlock: XUDNAN_clean_linker_2, # of connection points: 2
#     Edge 37, Type (0, 0), BuildingBlock: XUDNAN_clean_linker_2, # of connection points: 2
#     Edge 38, Type (0, 0), BuildingBlock: XUDNAN_clean_linker_2, # of connection points: 2
#     Edge 39, Type (0, 0), BuildingBlock: XUDNAN_clean_linker_2, # of connection points: 2
#     Edge 40, Type (0, 0), BuildingBlock: XUDNAN_clean_linker_2, # of connection points: 2
#     Edge 41, Type (0, 0), BuildingBlock: XUDNAN_clean_linker_2, # of connection points: 2
#     Edge 42, Type (0, 0), BuildingBlock: XUDNAN_clean_linker_2, # of connection points: 2
#     Edge 43, Type (0, 0), BuildingBlock: XUDNAN_clean_linker_2, # of connection points: 2
#     Edge 44, Type (0, 0), BuildingBlock: XUDNAN_clean_linker_2, # of connection points: 2
#     Edge 45, Type (0, 0), BuildingBlock: XUDNAN_clean_linker_2, # of connection points: 2
#     Edge 46, Type (0, 0), BuildingBlock: XUDNAN_clean_linker_2, # of connection points: 2
#     Edge 47, Type (0, 0), BuildingBlock: XUDNAN_clean_linker_2, # of connection points: 2
# Relax obj value: 0.153
# Max RMSD: 0.154
# Mean RMSD: 0.154
data_MOF--net-tzs--node1-GALJAG_clean_sbu_0--edge1-XUDNAN_clean_linker_2
_symmetry_space_group_name_H-M    P1
_symmetry_Int_Tables_number       1
_symmetry_cell_setting            triclinic
loop_
_symmetry_equiv_pos_as_xyz
'x, y, z'
_cell_length_a     48.617643
_cell_length_b     48.654196
_cell_length_c     40.157745
_cell_angle_alpha  89.996669
_cell_angle_beta   89.915524
_cell_angle_gamma 90.004563
loop_
_atom_site_label
_atom_site_type_symbol
_atom_site_fract_x
_atom_site_fract_y
_atom_site_fract_z
_atom_type_partial_charge
In0 In 0.15181 0.3576 0.19348 0.0
O1 O 0.19421 0.35367 0.21676 0.0
O2 O 0.17365 0.31673 0.2033 0.0
C3 C 0.14557 0.41167 0.20685 0.0
C4 C 0.16369 0.35597 0.12797 0.0
C5 C 0.10423 0.33932 0.22028 0.0
O6 O 0.15752 0.39559 0.22682 0.0
O7 O 0.13675 0.40042 0.18074 0.0
O8 O 0.10657 0.34528 0.18984 0.0
O9 O 0.12605 0.34179 0.23694 0.0
C10 C 0.19497 0.32777 0.21524 0.0
O11 O 0.1449 0.34125 0.1405 0.0
O12 O 0.17648 0.37076 0.14853 0.0
In13 In 0.6573 0.14213 0.18778 0.0
O14 O 0.64396 0.12015 0.14071 0.0
O15 O 0.66216 0.15935 0.13434 0.0
C16 C 0.66732 0.09078 0.21073 0.0
C17 C 0.69969 0.17461 0.20702 0.0
C18 C 0.60999 0.15844 0.21743 0.0
O19 O 0.68202 0.10213 0.18875 0.0
O20 O 0.64774 0.10538 0.22128 0.0
O21 O 0.63262 0.15701 0.23261 0.0
O22 O 0.61131 0.15248 0.18689 0.0
C23 C 0.65167 0.13848 0.12065 0.0
O24 O 0.67691 0.18447 0.19781 0.0
O25 O 0.7011 0.14879 0.20564 0.0
In26 In 0.85008 0.64759 0.19394 0.0
O27 O 0.86231 0.67544 0.15033 0.0
O28 O 0.83749 0.64058 0.13994 0.0
C29 C 0.89782 0.65798 0.22641 0.0
C30 C 0.80545 0.67602 0.21547 0.0
C31 C 0.84829 0.59242 0.2031 0.0
O32 O 0.89673 0.65425 0.19538 0.0
O33 O 0.87489 0.65664 0.241 0.0
O34 O 0.83997 0.60919 0.22485 0.0
O35 O 0.85754 0.60345 0.17698 0.0
C36 C 0.85009 0.66124 0.1286 0.0
O37 O 0.80422 0.65137 0.20597 0.0
O38 O 0.82914 0.68648 0.21387 0.0
In39 In 0.34667 0.86416 0.1859 0.0
O40 O 0.322 0.8809 0.14185 0.0
O41 O 0.34883 0.84735 0.13288 0.0
C42 C 0.33965 0.9137 0.21551 0.0
C43 C 0.31678 0.82137 0.2096 0.0
C44 C 0.40133 0.85792 0.1959 0.0
O45 O 0.3527 0.91062 0.18863 0.0
O46 O 0.33 0.89178 0.22757 0.0
O47 O 0.38396 0.85527 0.21909 0.0
O48 O 0.39111 0.86364 0.16791 0.0
C49 C 0.3319 0.86428 0.12094 0.0
O50 O 0.34221 0.81989 0.20373 0.0
O51 O 0.30627 0.84456 0.20371 0.0
In52 In 0.14164 0.65277 0.31394 0.0
O53 O 0.13729 0.66968 0.36683 0.0
O54 O 0.16433 0.63589 0.35896 0.0
C55 C 0.08787 0.66501 0.30568 0.0
C56 C 0.18289 0.68498 0.29033 0.0
C57 C 0.14003 0.6033 0.28336 0.0
O58 O 0.09727 0.65439 0.33194 0.0
O59 O 0.10571 0.67025 0.28369 0.0
O60 O 0.13839 0.62573 0.26783 0.0
O61 O 0.14258 0.6057 0.31447 0.0
C62 C 0.15385 0.6526 0.37939 0.0
O63 O 0.18484 0.65939 0.29403 0.0
O64 O 0.15975 0.69479 0.29828 0.0
In65 In 0.36605 0.15516 0.31405 0.0
O66 O 0.36804 0.14116 0.36838 0.0
O67 O 0.35496 0.18203 0.35856 0.0
C68 C 0.34988 0.10399 0.29577 0.0
C69 C 0.3358 0.1948 0.28406 0.0
C70 C 0.42059 0.1596 0.30125 0.0
O71 O 0.33975 0.11645 0.32043 0.0
O72 O 0.36767 0.11754 0.27988 0.0
O73 O 0.40282 0.15812 0.27848 0.0
O74 O 0.41091 0.15857 0.33036 0.0
C75 C 0.35995 0.16386 0.3801 0.0
O76 O 0.36075 0.19773 0.29164 0.0
O77 O 0.32601 0.17143 0.29076 0.0
In78 In 0.86156 0.35448 0.31366 0.0
O79 O 0.87799 0.37699 0.35886 0.0
O80 O 0.84367 0.35069 0.36661 0.0
C81 C 0.91436 0.34102 0.29944 0.0
C82 C 0.82909 0.31127 0.29686 0.0
C83 C 0.84957 0.40093 0.27933 0.0
O84 O 0.90329 0.33586 0.32713 0.0
O85 O 0.8988 0.3528 0.27882 0.0
O86 O 0.84542 0.39877 0.31024 0.0
O87 O 0.85876 0.37945 0.26574 0.0
C88 C 0.86112 0.36682 0.37933 0.0
O89 O 0.82017 0.33562 0.29711 0.0
O90 O 0.85379 0.30891 0.30569 0.0
In91 In 0.63723 0.85199 0.31368 0.0
O92 O 0.6116 0.85823 0.3604 0.0
O93 O 0.65331 0.84724 0.36748 0.0
C94 C 0.65586 0.90234 0.29534 0.0
C95 C 0.66777 0.80706 0.29871 0.0
C96 C 0.5912 0.84649 0.27652 0.0
O97 O 0.63629 0.89906 0.31556 0.0
O98 O 0.66639 0.8803 0.28493 0.0
O99 O 0.61339 0.85589 0.26481 0.0
O100 O 0.59248 0.83914 0.30658 0.0
C101 C 0.63049 0.85295 0.38078 0.0
O102 O 0.64186 0.80644 0.30046 0.0
O103 O 0.67828 0.83013 0.30527 0.0
In104 In 0.85184 0.64532 0.8185 0.0
O105 O 0.84378 0.63647 0.87347 0.0
O106 O 0.86318 0.67418 0.86189 0.0
C107 C 0.83761 0.59445 0.7984 0.0
C108 C 0.81067 0.67613 0.79188 0.0
C109 C 0.90467 0.64203 0.79741 0.0
O110 O 0.83417 0.60277 0.82793 0.0
O111 O 0.84775 0.61203 0.7787 0.0
O112 O 0.88912 0.66152 0.78862 0.0
O113 O 0.8939 0.62515 0.81731 0.0
C114 C 0.85393 0.65851 0.88425 0.0
O115 O 0.83534 0.68416 0.79171 0.0
O116 O 0.80708 0.65306 0.80529 0.0
In117 In 0.3486 0.85926 0.81233 0.0
O118 O 0.30689 0.85235 0.78835 0.0
O119 O 0.32992 0.81673 0.80017 0.0
C120 C 0.34956 0.90714 0.77833 0.0
C121 C 0.33446 0.86154 0.87729 0.0
C122 C 0.40316 0.84861 0.8072 0.0
O123 O 0.34492 0.906 0.80922 0.0
O124 O 0.35356 0.88416 0.7646 0.0
O125 O 0.39278 0.86229 0.83071 0.0
O126 O 0.38591 0.83942 0.78651 0.0
C127 C 0.30796 0.82651 0.78835 0.0
O128 O 0.34881 0.84222 0.86543 0.0
O129 O 0.32715 0.87943 0.85637 0.0
In130 In 0.15555 0.35386 0.81763 0.0
O131 O 0.17125 0.37601 0.86351 0.0
O132 O 0.14996 0.3382 0.87083 0.0
C133 C 0.16332 0.40335 0.78815 0.0
C134 C 0.19492 0.31594 0.80368 0.0
C135 C 0.10229 0.3417 0.80428 0.0
O136 O 0.14832 0.40013 0.81345 0.0
O137 O 0.17412 0.38154 0.77729 0.0
O138 O 0.11981 0.34538 0.78148 0.0
O139 O 0.11185 0.34336 0.83334 0.0
C140 C 0.16257 0.35821 0.88385 0.0
O141 O 0.17095 0.31402 0.79186 0.0
O142 O 0.19874 0.33676 0.82158 0.0
In143 In 0.6613 0.14282 0.80828 0.0
O144 O 0.70711 0.14866 0.7976 0.0
O145 O 0.68206 0.18438 0.79915 0.0
C146 C 0.6702 0.09519 0.77508 0.0
C147 C 0.65657 0.13813 0.87539 0.0
C148 C 0.61133 0.15931 0.78565 0.0
O149 O 0.66119 0.11653 0.76103 0.0
O150 O 0.67531 0.09799 0.80565 0.0
O151 O 0.61421 0.14298 0.80971 0.0
O152 O 0.6336 0.16784 0.7734 0.0
C153 C 0.70567 0.1744 0.79413 0.0
O154 O 0.66483 0.16009 0.86188 0.0
O155 O 0.65105 0.11914 0.85521 0.0
In156 In 0.86437 0.35704 0.69088 0.0
O157 O 0.88489 0.37194 0.64342 0.0
O158 O 0.84638 0.35198 0.63802 0.0
C159 C 0.84614 0.40591 0.71503 0.0
C160 C 0.83446 0.31144 0.70401 0.0
C161 C 0.91238 0.34787 0.7233 0.0
O162 O 0.86263 0.40405 0.69096 0.0
O163 O 0.83842 0.38313 0.72669 0.0
O164 O 0.90981 0.34431 0.69237 0.0
O165 O 0.89082 0.35584 0.73782 0.0
C166 C 0.86627 0.36398 0.62392 0.0
O167 O 0.85988 0.31067 0.69758 0.0
O168 O 0.82386 0.3351 0.70247 0.0
In169 In 0.64109 0.85166 0.69186 0.0
O170 O 0.68315 0.83299 0.70595 0.0
O171 O 0.64877 0.80642 0.70339 0.0
C172 C 0.65848 0.90424 0.70087 0.0
C173 C 0.63158 0.84932 0.62569 0.0
C174 C 0.59378 0.84739 0.72749 0.0
O175 O 0.6556 0.88763 0.72472 0.0
O176 O 0.65328 0.89416 0.67273 0.0
O177 O 0.59584 0.83931 0.69777 0.0
O178 O 0.61559 0.8574 0.73936 0.0
C179 C 0.6741 0.80885 0.70914 0.0
O180 O 0.61365 0.85669 0.64665 0.0
O181 O 0.65456 0.84278 0.6381 0.0
In182 In 0.1464 0.644 0.68993 0.0
O183 O 0.17378 0.64129 0.64423 0.0
O184 O 0.13226 0.65289 0.63628 0.0
C185 C 0.16434 0.59466 0.71189 0.0
C186 C 0.17355 0.68792 0.71543 0.0
C187 C 0.09231 0.63985 0.70558 0.0
O188 O 0.16904 0.60361 0.68299 0.0
O189 O 0.15132 0.61107 0.73053 0.0
O190 O 0.10687 0.65985 0.71505 0.0
O191 O 0.1048 0.62256 0.68773 0.0
C192 C 0.15547 0.64783 0.62356 0.0
O193 O 0.17987 0.66353 0.72283 0.0
O194 O 0.15329 0.69002 0.69608 0.0
In195 In 0.36794 0.15188 0.68942 0.0
O196 O 0.36049 0.13892 0.63573 0.0
O197 O 0.3624 0.18171 0.64576 0.0
C198 C 0.42097 0.16275 0.70591 0.0
C199 C 0.33187 0.18252 0.72502 0.0
C200 C 0.36091 0.09733 0.69875 0.0
O201 O 0.40933 0.17351 0.68113 0.0
O202 O 0.40592 0.14667 0.7224 0.0
O203 O 0.34896 0.11493 0.7168 0.0
O204 O 0.37603 0.10728 0.67627 0.0
C205 C 0.35953 0.163 0.62427 0.0
O206 O 0.3245 0.16861 0.70004 0.0
O207 O 0.35701 0.18045 0.73218 0.0
H208 H 0.28153 0.19397 0.26454 0.0
H209 H 0.35226 0.24774 0.27503 0.0
H210 H 0.32393 0.28731 0.25802 0.0
H211 H 0.25269 0.22846 0.1914 0.0
H212 H 0.21762 0.22353 0.20477 0.0
H213 H 0.24371 0.19914 0.21664 0.0
H214 H 0.231 0.2063 0.27872 0.0
H215 H 0.20504 0.23086 0.26707 0.0
H216 H 0.23163 0.24048 0.29604 0.0
H217 H 0.28765 0.32142 0.24364 0.0
H218 H 0.24614 0.3477 0.22832 0.0
H219 H 0.19899 0.27199 0.22496 0.0
C220 C 0.29109 0.21402 0.26287 0.0
C221 C 0.3191 0.21779 0.2711 0.0
C222 C 0.33087 0.24436 0.26875 0.0
C223 C 0.31494 0.26698 0.25919 0.0
C224 C 0.28732 0.26269 0.25177 0.0
C225 C 0.27551 0.23687 0.25308 0.0
C226 C 0.24526 0.23805 0.24402 0.0
C227 C 0.23949 0.2213 0.21232 0.0
C228 C 0.22717 0.22835 0.27321 0.0
C229 C 0.2419 0.2686 0.23784 0.0
C230 C 0.26642 0.28241 0.24262 0.0
C231 C 0.26837 0.31084 0.2395 0.0
C232 C 0.24467 0.32559 0.23094 0.0
C233 C 0.21943 0.31186 0.22535 0.0
C234 C 0.21808 0.28299 0.22887 0.0
H235 H 0.7766 0.31075 0.27063 0.0
H236 H 0.84481 0.25768 0.29767 0.0
H237 H 0.81923 0.21751 0.27694 0.0
H238 H 0.72223 0.26291 0.29286 0.0
H239 H 0.7005 0.27238 0.25839 0.0
H240 H 0.72394 0.29716 0.27584 0.0
H241 H 0.7456 0.30468 0.21757 0.0
H242 H 0.72234 0.27979 0.19999 0.0
H243 H 0.75894 0.27561 0.19487 0.0
H244 H 0.78725 0.18329 0.25269 0.0
H245 H 0.74959 0.15634 0.22795 0.0
H246 H 0.7014 0.23085 0.2162 0.0
C247 C 0.78602 0.29064 0.27238 0.0
C248 C 0.8127 0.28733 0.28582 0.0
C249 C 0.82441 0.26072 0.28751 0.0
C250 C 0.81007 0.23775 0.27575 0.0
C251 C 0.78399 0.2417 0.26233 0.0
C252 C 0.77194 0.26738 0.26067 0.0
C253 C 0.74364 0.26572 0.24487 0.0
C254 C 0.72125 0.27509 0.26947 0.0
C255 C 0.74258 0.28244 0.2124 0.0
C256 C 0.74174 0.23511 0.238 0.0
C257 C 0.76533 0.22174 0.24823 0.0
C258 C 0.76864 0.19348 0.2446 0.0
C259 C 0.74713 0.17837 0.23045 0.0
C260 C 0.72258 0.19147 0.2201 0.0
C261 C 0.71996 0.22028 0.22378 0.0
H262 H 0.8034 0.7293 0.23772 0.0
H263 H 0.75271 0.65714 0.22136 0.0
H264 H 0.71216 0.68236 0.24245 0.0
H265 H 0.77051 0.75137 0.31384 0.0
H266 H 0.77319 0.78743 0.30403 0.0
H267 H 0.79829 0.7636 0.28799 0.0
H268 H 0.78796 0.77997 0.22788 0.0
H269 H 0.76292 0.80389 0.24374 0.0
H270 H 0.7531 0.77903 0.21268 0.0
H271 H 0.67696 0.71573 0.26453 0.0
H272 H 0.64961 0.75503 0.28523 0.0
H273 H 0.72336 0.80525 0.28756 0.0
C274 C 0.78377 0.7188 0.23861 0.0
C275 C 0.78119 0.69125 0.2279 0.0
C276 C 0.75515 0.67824 0.22943 0.0
C277 C 0.73202 0.69238 0.24141 0.0
C278 C 0.73527 0.7195 0.25183 0.0
C279 C 0.76048 0.7326 0.25053 0.0
C280 C 0.75836 0.76196 0.26284 0.0
C281 C 0.77614 0.76633 0.29403 0.0
C282 C 0.76603 0.78241 0.23513 0.0
C283 C 0.72799 0.76337 0.27113 0.0
C284 C 0.71504 0.73866 0.26467 0.0
C285 C 0.6869 0.73515 0.2698 0.0
C286 C 0.67154 0.75757 0.28158 0.0
C287 C 0.68437 0.78313 0.28812 0.0
C288 C 0.713 0.7859 0.28301 0.0
H289 H 0.26206 0.81994 0.22728 0.0
H290 H 0.33522 0.76916 0.21965 0.0
H291 H 0.30874 0.72908 0.23936 0.0
H292 H 0.23542 0.78857 0.30235 0.0
H293 H 0.19999 0.7908 0.28948 0.0
H294 H 0.2246 0.81565 0.27465 0.0
H295 H 0.21172 0.80381 0.21373 0.0
H296 H 0.18709 0.77891 0.22837 0.0
H297 H 0.21379 0.76866 0.19976 0.0
H298 H 0.27463 0.6945 0.25882 0.0
H299 H 0.23504 0.6674 0.27849 0.0
H300 H 0.18361 0.74029 0.27481 0.0
C301 C 0.27248 0.80038 0.22981 0.0
C302 C 0.30071 0.79763 0.2219 0.0
C303 C 0.31364 0.77173 0.22557 0.0
C304 C 0.29876 0.74885 0.23672 0.0
C305 C 0.27099 0.7522 0.24422 0.0
C306 C 0.25794 0.77728 0.24107 0.0
C307 C 0.22788 0.77519 0.25102 0.0
C308 C 0.22162 0.79365 0.28117 0.0
C309 C 0.20901 0.78205 0.22145 0.0
C310 C 0.22611 0.74499 0.26017 0.0
C311 C 0.25124 0.73217 0.25593 0.0
C312 C 0.25486 0.70431 0.26233 0.0
C313 C 0.23221 0.68908 0.27346 0.0
C314 C 0.20625 0.70173 0.27823 0.0
C315 C 0.20322 0.73009 0.27148 0.0
H316 H 0.72957 0.8084 0.7239 0.0
H317 H 0.65744 0.756 0.71804 0.0
H318 H 0.68505 0.71653 0.73691 0.0
H319 H 0.77894 0.75702 0.69532 0.0
H320 H 0.80566 0.76819 0.7233 0.0
H321 H 0.78052 0.79244 0.70838 0.0
H322 H 0.76797 0.80512 0.76918 0.0
H323 H 0.79303 0.7809 0.78427 0.0
H324 H 0.75773 0.77836 0.79769 0.0
H325 H 0.71933 0.6833 0.7584 0.0
H326 H 0.75893 0.65755 0.78038 0.0
H327 H 0.80988 0.73051 0.77176 0.0
C328 C 0.71967 0.78857 0.7264 0.0
C329 C 0.69133 0.78527 0.71947 0.0
C330 C 0.6791 0.75902 0.72315 0.0
C331 C 0.69461 0.73646 0.73386 0.0
C332 C 0.7224 0.74039 0.74067 0.0
C333 C 0.73493 0.7657 0.73701 0.0
C334 C 0.76511 0.76421 0.74659 0.0
C335 C 0.78365 0.77086 0.71661 0.0
C336 C 0.77131 0.78328 0.77619 0.0
C337 C 0.76744 0.73418 0.75647 0.0
C338 C 0.74248 0.72092 0.75282 0.0
C339 C 0.73904 0.69338 0.76117 0.0
C340 C 0.76166 0.67895 0.77371 0.0
C341 C 0.78751 0.69198 0.77768 0.0
C342 C 0.79044 0.71995 0.76873 0.0
H343 H 0.22333 0.6889 0.74814 0.0
H344 H 0.15973 0.74171 0.70746 0.0
H345 H 0.18702 0.78254 0.72259 0.0
H346 H 0.24227 0.7334 0.81779 0.0
H347 H 0.27844 0.72572 0.81447 0.0
H348 H 0.25333 0.70052 0.80198 0.0
H349 H 0.27603 0.6977 0.74368 0.0
H350 H 0.3011 0.72301 0.75591 0.0
H351 H 0.28024 0.72863 0.71946 0.0
H352 H 0.22134 0.81745 0.74015 0.0
H353 H 0.26064 0.8448 0.76002 0.0
H354 H 0.30293 0.76993 0.78897 0.0
C355 C 0.21503 0.70908 0.74283 0.0
C356 C 0.18933 0.71216 0.72676 0.0
C357 C 0.17931 0.73887 0.71982 0.0
C358 C 0.19466 0.76219 0.72831 0.0
C359 C 0.22005 0.75849 0.74367 0.0
C360 C 0.2302 0.73266 0.75099 0.0
C361 C 0.25848 0.73456 0.76681 0.0
C362 C 0.2581 0.72286 0.80238 0.0
C363 C 0.28024 0.72012 0.74516 0.0
C364 C 0.26266 0.76546 0.767 0.0
C365 C 0.24014 0.77879 0.75361 0.0
C366 C 0.23906 0.80728 0.75079 0.0
C367 C 0.26153 0.82263 0.76211 0.0
C368 C 0.28486 0.80952 0.77603 0.0
C369 C 0.2854 0.78052 0.77841 0.0
H370 H 0.19769 0.27494 0.75598 0.0
H371 H 0.24226 0.31124 0.83863 0.0
H372 H 0.28038 0.27885 0.82953 0.0
H373 H 0.22059 0.20379 0.76941 0.0
H374 H 0.2239 0.19653 0.72557 0.0
H375 H 0.19888 0.22123 0.73981 0.0
H376 H 0.22001 0.25803 0.7008 0.0
H377 H 0.24505 0.23346 0.68643 0.0
H378 H 0.2562 0.26577 0.70374 0.0
H379 H 0.31443 0.24459 0.81065 0.0
H380 H 0.3436 0.2109 0.78151 0.0
H381 H 0.27825 0.19641 0.71005 0.0
C382 C 0.21535 0.27578 0.77234 0.0
C383 C 0.21699 0.29554 0.79809 0.0
C384 C 0.24058 0.29631 0.81873 0.0
C385 C 0.26231 0.27792 0.81386 0.0
C386 C 0.26026 0.25888 0.78816 0.0
C387 C 0.2375 0.25764 0.76762 0.0
C388 C 0.24142 0.23603 0.74073 0.0
C389 C 0.21992 0.21303 0.74409 0.0
C390 C 0.24063 0.24911 0.70587 0.0
C391 C 0.27004 0.2257 0.7492 0.0
C392 C 0.28032 0.23905 0.77687 0.0
C393 C 0.30659 0.23384 0.78907 0.0
C394 C 0.32301 0.21467 0.77232 0.0
C395 C 0.31318 0.20098 0.74359 0.0
C396 C 0.28621 0.20638 0.73213 0.0
H397 H 0.7062 0.22953 0.77956 0.0
H398 H 0.75805 0.15694 0.78135 0.0
H399 H 0.7964 0.18392 0.75758 0.0
H400 H 0.73064 0.25612 0.70219 0.0
H401 H 0.72927 0.2916 0.71501 0.0
H402 H 0.70611 0.26692 0.73326 0.0
H403 H 0.72323 0.28005 0.79224 0.0
H404 H 0.74623 0.30497 0.77418 0.0
H405 H 0.75951 0.27863 0.80133 0.0
H406 H 0.82873 0.2185 0.73228 0.0
H407 H 0.85347 0.25879 0.70975 0.0
H408 H 0.7805 0.30883 0.7241 0.0
C409 C 0.72572 0.21938 0.77528 0.0
C410 C 0.72919 0.19114 0.78241 0.0
C411 C 0.75497 0.17857 0.7762 0.0
C412 C 0.77684 0.19371 0.76261 0.0
C413 C 0.77261 0.2214 0.75537 0.0
C414 C 0.74775 0.23418 0.76168 0.0
C415 C 0.74853 0.26414 0.75136 0.0
C416 C 0.72738 0.27002 0.72382 0.0
C417 C 0.74412 0.28306 0.78158 0.0
C418 C 0.77769 0.2662 0.73821 0.0
C419 C 0.7912 0.24129 0.74068 0.0
C420 C 0.81837 0.23812 0.73025 0.0
C421 C 0.83222 0.26109 0.71739 0.0
C422 C 0.8189 0.28692 0.71506 0.0
C423 C 0.79119 0.28933 0.72538 0.0
H424 H 0.13735 0.32938 0.93413 0.0
H425 H 0.19872 0.39224 0.91495 0.0
H426 H 0.20741 0.39627 0.97526 0.0
H427 H 0.10925 0.36116 0.00685 0.0
H428 H 0.10304 0.32929 0.02849 0.0
H429 H 0.10273 0.3301 0.98366 0.0
H430 H 0.13982 0.29188 0.98215 0.0
H431 H 0.14032 0.29102 0.02701 0.0
H432 H 0.17173 0.29683 0.00417 0.0
H433 H 0.2091 0.39412 0.03698 0.0
H434 H 0.20168 0.38819 0.09721 0.0
H435 H 0.13809 0.32772 0.07725 0.0
C436 C 0.15274 0.34383 0.94268 0.0
C437 C 0.16748 0.36043 0.91996 0.0
C438 C 0.1872 0.37936 0.93199 0.0
C439 C 0.19237 0.3817 0.96616 0.0
C440 C 0.1775 0.36509 0.98793 0.0
C441 C 0.15794 0.34667 0.97679 0.0
C442 C 0.1439 0.33229 0.00569 0.0
C443 C 0.1129 0.3386 0.00619 0.0
C444 C 0.14928 0.30116 0.00469 0.0
C445 C 0.15854 0.34566 0.03478 0.0
C446 C 0.17803 0.3643 0.02386 0.0
C447 C 0.19395 0.37956 0.04588 0.0
C448 C 0.18959 0.37601 0.08005 0.0
C449 C 0.16932 0.35749 0.09189 0.0
C450 C 0.15381 0.34193 0.0689 0.0
H451 H 0.67037 0.17403 0.92632 0.0
H452 H 0.635 0.09368 0.90667 0.0
H453 H 0.629 0.08616 0.96677 0.0
H454 H 0.70803 0.15414 0.99954 0.0
H455 H 0.70192 0.18581 0.02162 0.0
H456 H 0.70282 0.18565 0.97678 0.0
H457 H 0.65429 0.20755 0.97518 0.0
H458 H 0.65322 0.20776 0.02004 0.0
H459 H 0.6263 0.19102 0.99683 0.0
H460 H 0.62708 0.08654 0.02809 0.0
H461 H 0.63033 0.09437 0.08844 0.0
H462 H 0.66742 0.17423 0.07039 0.0
C463 C 0.66128 0.15493 0.93475 0.0
C464 C 0.65311 0.13445 0.91176 0.0
C465 C 0.64142 0.10967 0.92374 0.0
C466 C 0.63786 0.10519 0.95787 0.0
C467 C 0.64613 0.12566 0.97985 0.0
C468 C 0.65764 0.15003 0.96897 0.0
C469 C 0.66521 0.16826 0.9983 0.0
C470 C 0.69635 0.17378 0.9991 0.0
C471 C 0.64877 0.19524 0.99754 0.0
C472 C 0.65631 0.15016 0.02722 0.0
C473 C 0.64522 0.12578 0.0158 0.0
C474 C 0.63567 0.10556 0.0374 0.0
C475 C 0.63761 0.11023 0.07167 0.0
C476 C 0.64911 0.13491 0.08417 0.0
C477 C 0.65848 0.1552 0.06157 0.0
H478 H 0.83351 0.62786 0.93559 0.0
H479 H 0.87683 0.7038 0.91411 0.0
H480 H 0.87922 0.71389 0.97449 0.0
H481 H 0.79306 0.6537 0.00455 0.0
H482 H 0.79541 0.62208 0.02776 0.0
H483 H 0.79657 0.62141 0.98293 0.0
H484 H 0.84307 0.5954 0.98503 0.0
H485 H 0.84204 0.59596 0.02984 0.0
H486 H 0.87134 0.60992 0.00811 0.0
H487 H 0.8782 0.71457 0.03776 0.0
H488 H 0.87368 0.70593 0.09829 0.0
H489 H 0.83041 0.62987 0.07748 0.0
C490 C 0.8434 0.6467 0.94354 0.0
C491 C 0.85499 0.66508 0.92019 0.0
C492 C 0.86778 0.68946 0.93161 0.0
C493 C 0.86922 0.69535 0.96583 0.0
C494 C 0.85765 0.6767 0.98821 0.0
C495 C 0.84493 0.6529 0.97747 0.0
C496 C 0.83451 0.63596 0.00647 0.0
C497 C 0.80302 0.63313 0.00535 0.0
C498 C 0.84859 0.60764 0.00741 0.0
C499 C 0.84355 0.65379 0.0353 0.0
C500 C 0.85683 0.67723 0.02434 0.0
C501 C 0.86768 0.69637 0.04659 0.0
C502 C 0.86501 0.6913 0.08089 0.0
C503 C 0.85158 0.66732 0.09256 0.0
C504 C 0.84057 0.64851 0.06934 0.0
H505 H 0.35342 0.83245 0.07111 0.0
H506 H 0.29658 0.89952 0.08962 0.0
H507 H 0.28869 0.90408 0.02909 0.0
H508 H 0.38467 0.86099 1.00026 0.0
H509 H 0.38847 0.82888 0.97835 0.0
H510 H 0.3878 0.82927 0.02315 0.0
H511 H 0.34728 0.79466 0.02305 0.0
H512 H 0.34789 0.79408 0.97818 0.0
H513 H 0.31655 0.80259 0.99989 0.0
H514 H 0.28981 0.9037 0.96661 0.0
H515 H 0.2992 0.89792 0.90656 0.0
H516 H 0.35494 0.83073 0.92876 0.0
C517 C 0.33897 0.84781 0.06246 0.0
C518 C 0.32551 0.86558 0.08503 0.0
C519 C 0.30701 0.88563 0.07274 0.0
C520 C 0.30239 0.88835 0.03843 0.0
C521 C 0.31632 0.87077 0.0168 0.0
C522 C 0.33412 0.85078 0.02833 0.0
C523 C 0.34751 0.83539 0.9998 0.0
C524 C 0.37897 0.83886 1.00044 0.0
C525 C 0.3393 0.80487 1.00026 0.0
C526 C 0.33487 0.85019 0.97041 0.0
C527 C 0.31683 0.87044 0.98076 0.0
C528 C 0.30364 0.88771 0.95819 0.0
C529 C 0.30914 0.88431 0.92416 0.0
C530 C 0.32766 0.86379 0.91304 0.0
C531 C 0.34044 0.84638 0.93652 0.0
H532 H 0.12248 0.66841 0.57378 0.0
H533 H 0.20054 0.62773 0.59167 0.0
H534 H 0.20927 0.62606 0.53122 0.0
H535 H 0.10414 0.63133 0.50083 0.0
H536 H 0.08932 0.66041 0.47963 0.0
H537 H 0.08943 0.65923 0.52444 0.0
H538 H 0.11465 0.70612 0.52631 0.0
H539 H 0.11459 0.70747 0.48147 0.0
H540 H 0.14654 0.71033 0.50391 0.0
H541 H 0.20819 0.62578 0.46916 0.0
H542 H 0.19854 0.62945 0.40893 0.0
H543 H 0.12254 0.67263 0.43076 0.0
C544 C 0.14147 0.65933 0.56492 0.0
C545 C 0.16083 0.64816 0.58736 0.0
C546 C 0.18546 0.63648 0.5749 0.0
C547 C 0.19061 0.63541 0.54061 0.0
C548 C 0.17107 0.64641 0.51912 0.0
C549 C 0.14712 0.65841 0.5307 0.0
C550 C 0.12952 0.6686 0.50211 0.0
C551 C 0.10145 0.65401 0.50174 0.0
C552 C 0.12613 0.7 0.50354 0.0
C553 C 0.14712 0.66001 0.47272 0.0
C554 C 0.17095 0.64716 0.48313 0.0
C555 C 0.18979 0.63613 0.46065 0.0
C556 C 0.18412 0.63824 0.42655 0.0
C557 C 0.15998 0.65155 0.41531 0.0
C558 C 0.14138 0.66276 0.43872 0.0
H559 H 0.36353 0.12619 0.57323 0.0
H560 H 0.34938 0.21251 0.59428 0.0
H561 H 0.34615 0.22191 0.53383 0.0
H562 H 0.40668 0.13676 0.50299 0.0
H563 H 0.39385 0.10753 0.48023 0.0
H564 H 0.39326 0.1074 0.52506 0.0
H565 H 0.3408 0.0979 0.52431 0.0
H566 H 0.34124 0.09794 0.47945 0.0
H567 H 0.31838 0.12068 0.50162 0.0
H568 H 0.34541 0.22186 0.47105 0.0
H569 H 0.34875 0.21277 0.41063 0.0
H570 H 0.36495 0.12667 0.43098 0.0
C571 C 0.35944 0.14703 0.56514 0.0
C572 C 0.35651 0.16863 0.58835 0.0
C573 C 0.3516 0.19568 0.57683 0.0
C574 C 0.34969 0.20119 0.5426 0.0
C575 C 0.35291 0.17943 0.52033 0.0
C576 C 0.35777 0.1529 0.53114 0.0
C577 C 0.36168 0.13339 0.50215 0.0
C578 C 0.39059 0.12053 0.50265 0.0
C579 C 0.33918 0.11117 0.50187 0.0
C580 C 0.3584 0.15309 0.47328 0.0
C581 C 0.35314 0.1795 0.48427 0.0
C582 C 0.34949 0.20126 0.46216 0.0
C583 C 0.35142 0.19589 0.42792 0.0
C584 C 0.35715 0.16904 0.41618 0.0
C585 C 0.36058 0.14741 0.43924 0.0
H586 H 0.83095 0.34359 0.43043 0.0
H587 H 0.89645 0.4019 0.40999 0.0
H588 H 0.90326 0.40862 0.47017 0.0
H589 H 0.80349 0.37924 0.50443 0.0
H590 H 0.79609 0.34768 0.52617 0.0
H591 H 0.79495 0.34864 0.48133 0.0
H592 H 0.82988 0.3085 0.47873 0.0
H593 H 0.83126 0.30752 0.52351 0.0
H594 H 0.86246 0.31177 0.49976 0.0
H595 H 0.90562 0.40669 0.53171 0.0
H596 H 0.90192 0.39787 0.59193 0.0
H597 H 0.83427 0.34155 0.574 0.0
C598 C 0.84641 0.35808 0.43868 0.0
C599 C 0.86314 0.37227 0.4155 0.0
C600 C 0.88336 0.39084 0.42725 0.0
C601 C 0.8874 0.39481 0.4614 0.0
C602 C 0.87096 0.38019 0.48359 0.0
C603 C 0.85071 0.36237 0.47285 0.0
C604 C 0.83655 0.34862 0.5022 0.0
C605 C 0.80595 0.35653 0.50361 0.0
C606 C 0.84027 0.31724 0.50096 0.0
C607 C 0.85238 0.36118 0.53098 0.0
C608 C 0.8721 0.37935 0.51954 0.0
C609 C 0.89008 0.39274 0.54103 0.0
C610 C 0.88788 0.3875 0.5752 0.0
C611 C 0.86776 0.36911 0.58765 0.0
C612 C 0.84968 0.35589 0.5652 0.0
H613 H 0.66783 0.8386 0.57445 0.0
H614 H 0.58312 0.86126 0.59513 0.0
H615 H 0.57388 0.86405 0.53492 0.0
H616 H 0.67707 0.88323 0.50452 0.0
H617 H 0.69784 0.85938 0.48109 0.0
H618 H 0.69784 0.85814 0.52592 0.0
H619 H 0.68377 0.80681 0.52412 0.0
H620 H 0.68383 0.80785 0.47927 0.0
H621 H 0.65348 0.79676 0.50131 0.0
H622 H 0.57381 0.86558 0.47313 0.0
H623 H 0.58269 0.86509 0.41274 0.0
H624 H 0.66749 0.84155 0.43102 0.0
C625 C 0.6473 0.84393 0.56626 0.0
C626 C 0.62616 0.84966 0.58948 0.0
C627 C 0.59961 0.85675 0.57781 0.0
C628 C 0.59415 0.8584 0.54365 0.0
C629 C 0.61544 0.85288 0.52143 0.0
C630 C 0.64147 0.84571 0.53213 0.0
C631 C 0.6607 0.84124 0.50281 0.0
C632 C 0.68478 0.86172 0.50364 0.0
C633 C 0.67105 0.81139 0.50183 0.0
C634 C 0.64141 0.8472 0.47404 0.0
C635 C 0.61541 0.85382 0.48546 0.0
C636 C 0.59405 0.86035 0.46384 0.0
C637 C 0.59932 0.86004 0.42957 0.0
C638 C 0.62576 0.85328 0.41717 0.0
C639 C 0.64707 0.84679 0.43978 0.0
H640 H 0.15183 0.55249 0.30941 0.0
H641 H 0.12586 0.59361 0.21883 0.0
H642 H 0.12383 0.5489 0.18991 0.0
H643 H 0.19554 0.50282 0.2693 0.0
H644 H 0.18694 0.47536 0.29759 0.0
H645 H 0.18564 0.51051 0.31156 0.0
H646 H 0.13489 0.50386 0.32968 0.0
H647 H 0.13603 0.46869 0.31574 0.0
H648 H 0.1101 0.49164 0.2998 0.0
H649 H 0.12406 0.50012 0.17102 0.0
H650 H 0.12848 0.45016 0.16236 0.0
H651 H 0.15593 0.44042 0.26451 0.0
C652 C 0.14563 0.55203 0.28353 0.0
C653 C 0.1389 0.57645 0.26634 0.0
C654 C 0.13111 0.57512 0.23243 0.0
C655 C 0.12984 0.54984 0.21582 0.0
C656 C 0.13662 0.52614 0.23343 0.0
C657 C 0.14452 0.52696 0.26645 0.0
C658 C 0.15138 0.49847 0.27929 0.0
C659 C 0.18168 0.4967 0.29006 0.0
C660 C 0.13194 0.49018 0.30781 0.0
C661 C 0.14608 0.48153 0.2483 0.0
C662 C 0.1374 0.49792 0.22225 0.0
C663 C 0.1309 0.48706 0.19118 0.0
C664 C 0.13344 0.45866 0.18654 0.0
C665 C 0.1426 0.44147 0.21274 0.0
C666 C 0.14899 0.4531 0.24401 0.0
H667 H 0.55777 0.15568 0.19182 0.0
H668 H 0.60299 0.17253 0.28266 0.0
H669 H 0.55922 0.17672 0.31348 0.0
H670 H 0.49941 0.20188 0.209 0.0
H671 H 0.47472 0.17853 0.19112 0.0
H672 H 0.50954 0.17916 0.17569 0.0
H673 H 0.51384 0.12692 0.18711 0.0
H674 H 0.47916 0.12617 0.20283 0.0
H675 H 0.50706 0.11397 0.22838 0.0
H676 H 0.51096 0.1753 0.33532 0.0
H677 H 0.46117 0.17055 0.34621 0.0
H678 H 0.44713 0.15511 0.24115 0.0
C679 C 0.55843 0.16079 0.21806 0.0
C680 C 0.58376 0.16392 0.23485 0.0
C681 C 0.5838 0.17018 0.26929 0.0
C682 C 0.55905 0.17257 0.28701 0.0
C683 C 0.53445 0.16876 0.26989 0.0
C684 C 0.5339 0.16324 0.23614 0.0
C685 C 0.50471 0.15886 0.22403 0.0
C686 C 0.49662 0.18093 0.19845 0.0
C687 C 0.50099 0.12975 0.20975 0.0
C688 C 0.48899 0.16239 0.25635 0.0
C689 C 0.50654 0.16813 0.28248 0.0
C690 C 0.49697 0.17112 0.315 0.0
C691 C 0.46869 0.16828 0.32095 0.0
C692 C 0.45032 0.16258 0.29451 0.0
C693 C 0.46067 0.15971 0.26181 0.0
H694 H 0.83589 0.56371 0.26011 0.0
H695 H 0.85893 0.55308 0.15646 0.0
H696 H 0.85837 0.50271 0.16388 0.0
H697 H 0.87766 0.50988 0.29174 0.0
H698 H 0.85337 0.49915 0.3231 0.0
H699 H 0.85369 0.53428 0.30908 0.0
H700 H 0.80203 0.53067 0.2939 0.0
H701 H 0.80157 0.49544 0.30779 0.0
H702 H 0.79068 0.50386 0.26613 0.0
H703 H 0.85719 0.45377 0.1829 0.0
H704 H 0.85744 0.40949 0.21287 0.0
H705 H 0.8357 0.45162 0.30448 0.0
C706 C 0.84054 0.55075 0.23892 0.0
C707 C 0.84734 0.56228 0.20765 0.0
C708 C 0.85364 0.54468 0.18061 0.0
C709 C 0.85328 0.51605 0.18455 0.0
C710 C 0.84661 0.50533 0.2157 0.0
C711 C 0.84044 0.5221 0.24247 0.0
C712 C 0.83533 0.50532 0.27369 0.0
C713 C 0.85626 0.51259 0.301 0.0
C714 C 0.80563 0.50905 0.2861 0.0
C715 C 0.83996 0.47653 0.26038 0.0
C716 C 0.84619 0.47702 0.22679 0.0
C717 C 0.85216 0.4531 0.20915 0.0
C718 C 0.85222 0.42804 0.22639 0.0
C719 C 0.84646 0.42709 0.26095 0.0
C720 C 0.83989 0.45166 0.27799 0.0
H721 H 0.53931 0.8369 0.30021 0.0
H722 H 0.58456 0.85578 0.20984 0.0
H723 H 0.54081 0.85837 0.17868 0.0
H724 H 0.4849 0.79577 0.26157 0.0
H725 H 0.45861 0.80922 0.28875 0.0
H726 H 0.49358 0.80658 0.30319 0.0
H727 H 0.49339 0.85847 0.31771 0.0
H728 H 0.45851 0.86131 0.30317 0.0
H729 H 0.48484 0.88318 0.2859 0.0
H730 H 0.49211 0.86124 0.15812 0.0
H731 H 0.44193 0.86461 0.14958 0.0
H732 H 0.4284 0.8449 0.25375 0.0
C733 C 0.54004 0.84111 0.27374 0.0
C734 C 0.56531 0.84593 0.25733 0.0
C735 C 0.56541 0.85188 0.22282 0.0
C736 C 0.54068 0.85337 0.20494 0.0
C737 C 0.51608 0.84893 0.22198 0.0
C738 C 0.51556 0.8429 0.2556 0.0
C739 C 0.48632 0.84048 0.26839 0.0
C740 C 0.48052 0.81127 0.28122 0.0
C741 C 0.48043 0.86216 0.29538 0.0
C742 C 0.47045 0.84642 0.2368 0.0
C743 C 0.488 0.85103 0.21026 0.0
C744 C 0.47817 0.85752 0.17866 0.0
C745 C 0.44964 0.85942 0.17408 0.0
C746 C 0.43129 0.85501 0.20099 0.0
C747 C 0.44192 0.8483 0.23269 0.0
H748 H 0.85583 0.5677 0.74262 0.0
H749 H 0.80734 0.55636 0.83235 0.0
H750 H 0.8009 0.50736 0.81815 0.0
H751 H 0.81779 0.51914 0.68929 0.0
H752 H 0.84864 0.50709 0.66908 0.0
H753 H 0.8468 0.54187 0.68438 0.0
H754 H 0.89077 0.53371 0.71944 0.0
H755 H 0.8927 0.49895 0.70435 0.0
H756 H 0.89172 0.50549 0.74851 0.0
H757 H 0.80248 0.45901 0.79627 0.0
H758 H 0.81301 0.41463 0.76913 0.0
H759 H 0.86142 0.45733 0.69442 0.0
C760 C 0.84336 0.55503 0.75888 0.0
C761 C 0.83184 0.56582 0.78841 0.0
C762 C 0.81621 0.54848 0.80951 0.0
C763 C 0.81239 0.52066 0.80161 0.0
C764 C 0.82441 0.51051 0.77258 0.0
C765 C 0.83959 0.52715 0.75154 0.0
C766 C 0.85206 0.51074 0.72325 0.0
C767 C 0.84063 0.52028 0.6895 0.0
C768 C 0.88368 0.51232 0.72395 0.0
C769 C 0.84193 0.4822 0.73199 0.0
C770 C 0.82575 0.48255 0.76031 0.0
C771 C 0.81491 0.45851 0.7739 0.0
C772 C 0.82101 0.43341 0.75834 0.0
C773 C 0.83795 0.43256 0.72965 0.0
C774 C 0.84824 0.45735 0.71619 0.0
H775 H 0.54294 0.83154 0.70489 0.0
H776 H 0.58566 0.86075 0.79286 0.0
H777 H 0.54183 0.86069 0.82406 0.0
H778 H 0.48338 0.87216 0.71555 0.0
H779 H 0.45976 0.84639 0.70072 0.0
H780 H 0.49477 0.8466 0.6861 0.0
H781 H 0.5007 0.79616 0.70549 0.0
H782 H 0.46567 0.7958 0.72023 0.0
H783 H 0.49336 0.78721 0.74815 0.0
H784 H 0.49314 0.86042 0.84458 0.0
H785 H 0.44282 0.86054 0.85287 0.0
H786 H 0.43147 0.83121 0.75177 0.0
C787 C 0.54312 0.83757 0.73085 0.0
C788 C 0.56773 0.84604 0.74653 0.0
C789 C 0.56707 0.85411 0.78039 0.0
C790 C 0.54228 0.85408 0.79834 0.0
C791 C 0.51835 0.84586 0.78208 0.0
C792 C 0.51853 0.83772 0.74911 0.0
C793 C 0.48971 0.83119 0.73706 0.0
C794 C 0.48143 0.85023 0.70815 0.0
C795 C 0.48722 0.80078 0.72715 0.0
C796 C 0.47323 0.83737 0.76824 0.0
C797 C 0.49019 0.84562 0.79397 0.0
C798 C 0.47968 0.8537 0.82474 0.0
C799 C 0.45107 0.85372 0.8292 0.0
C800 C 0.43326 0.84569 0.80306 0.0
C801 C 0.44459 0.83704 0.77237 0.0
H802 H 0.14224 0.45299 0.80788 0.0
H803 H 0.19573 0.41524 0.73434 0.0
H804 H 0.20438 0.46083 0.70929 0.0
H805 H 0.11142 0.50171 0.75332 0.0
H806 H 0.10969 0.52869 0.78401 0.0
H807 H 0.10873 0.49327 0.79692 0.0
H808 H 0.15047 0.50178 0.83565 0.0
H809 H 0.15167 0.53721 0.82267 0.0
H810 H 0.18175 0.51582 0.81851 0.0
H811 H 0.20566 0.51003 0.69089 0.0
H812 H 0.19845 0.55932 0.67925 0.0
H813 H 0.14464 0.56533 0.76525 0.0
C814 C 0.15586 0.45433 0.78658 0.0
C815 C 0.16835 0.43059 0.77303 0.0
C816 C 0.18596 0.43317 0.7451 0.0
C817 C 0.19107 0.45898 0.73079 0.0
C818 C 0.17848 0.48198 0.74479 0.0
C819 C 0.1612 0.47992 0.77203 0.0
C820 C 0.14954 0.50772 0.78159 0.0
C821 C 0.11798 0.50784 0.77878 0.0
C822 C 0.15893 0.51612 0.81669 0.0
C823 C 0.16267 0.5257 0.75519 0.0
C824 C 0.17941 0.51045 0.73434 0.0
C825 C 0.19281 0.52223 0.70721 0.0
C826 C 0.18861 0.55024 0.70083 0.0
C827 C 0.17118 0.56616 0.72151 0.0
C828 C 0.15844 0.55377 0.74936 0.0
H829 H 0.45043 0.14019 0.75705 0.0
H830 H 0.45717 0.19698 0.67412 0.0
H831 H 0.50623 0.2045 0.68753 0.0
H832 H 0.49648 0.17673 0.8134 0.0
H833 H 0.51088 0.14553 0.83018 0.0
H834 H 0.47599 0.14587 0.81512 0.0
H835 H 0.48722 0.10546 0.77531 0.0
H836 H 0.5221 0.10497 0.79024 0.0
H837 H 0.5154 0.10872 0.74634 0.0
H838 H 0.55516 0.20393 0.70838 0.0
H839 H 0.60023 0.19499 0.73473 0.0
H840 H 0.56119 0.13878 0.80413 0.0
C841 C 0.46216 0.15441 0.7419 0.0
C842 C 0.45002 0.16807 0.71459 0.0
C843 C 0.46608 0.18636 0.69521 0.0
C844 C 0.49392 0.19079 0.70267 0.0
C845 C 0.50533 0.17684 0.72965 0.0
C846 C 0.48993 0.15906 0.749 0.0
C847 C 0.5073 0.14582 0.77583 0.0
C848 C 0.49705 0.15399 0.8107 0.0
C849 C 0.50805 0.11438 0.77166 0.0
C850 C 0.53499 0.15861 0.76828 0.0
C851 C 0.53341 0.17657 0.74168 0.0
C852 C 0.55659 0.19009 0.7294 0.0
C853 C 0.58208 0.18489 0.74451 0.0
C854 C 0.58416 0.16631 0.77155 0.0
C855 C 0.5602 0.15329 0.78371 0.0
H856 H 0.67373 0.04397 0.80282 0.0
H857 H 0.67185 0.08653 0.70794 0.0
H858 H 0.6731 0.04189 0.67856 0.0
H859 H 0.71792 0.98613 0.77727 0.0
H860 H 0.69869 0.96155 0.80152 0.0
H861 H 0.70086 0.99682 0.815 0.0
H862 H 0.64766 0.99983 0.81642 0.0
H863 H 0.64532 0.96464 0.80293 0.0
H864 H 0.62834 0.99131 0.77955 0.0
H865 H 0.67144 0.99288 0.65966 0.0
H866 H 0.6649 0.94295 0.65239 0.0
H867 H 0.66635 0.93207 0.75964 0.0
C868 C 0.67418 0.04387 0.77585 0.0
C869 C 0.67301 0.06865 0.75757 0.0
C870 C 0.6729 0.06774 0.72235 0.0
C871 C 0.67369 0.04251 0.70548 0.0
C872 C 0.67443 0.01841 0.72423 0.0
C873 C 0.67459 0.01885 0.75864 0.0
C874 C 0.67313 0.99003 0.77288 0.0
C875 C 0.69921 0.98324 0.79285 0.0
C876 C 0.64706 0.98624 0.79419 0.0
C877 C 0.67169 0.97332 0.7411 0.0
C878 C 0.67283 0.99008 0.71333 0.0
C879 C 0.67077 0.97953 0.6812 0.0
C880 C 0.66705 0.95114 0.67733 0.0
C881 C 0.66521 0.93363 0.70544 0.0
C882 C 0.66795 0.9449 0.73769 0.0
H883 H 0.94389 0.68023 0.77892 0.0
H884 H 0.9273 0.59271 0.7835 0.0
H885 H 0.97256 0.5831 0.75824 0.0
H886 H 0.98244 0.68066 0.7016 0.0
H887 H 0.00737 0.70548 0.71568 0.0
H888 H 0.97297 0.7059 0.73243 0.0
H889 H 0.99253 0.7019 0.79221 0.0
H890 H 0.02698 0.70159 0.77564 0.0
H891 H 0.01549 0.67401 0.80221 0.0
H892 H 0.01845 0.58275 0.73102 0.0
H893 H 0.06521 0.59126 0.70946 0.0
H894 H 0.05487 0.67867 0.72694 0.0
C895 C 0.94986 0.65911 0.7744 0.0
C896 C 0.93214 0.63717 0.78291 0.0
C897 C 0.94067 0.60976 0.77721 0.0
C898 C 0.96625 0.60411 0.76272 0.0
C899 C 0.98331 0.62609 0.75463 0.0
C900 C 0.97577 0.65303 0.76073 0.0
C901 C 0.99889 0.67261 0.75147 0.0
C902 C 0.98987 0.69233 0.72364 0.0
C903 C 0.00907 0.68846 0.78222 0.0
C904 C 0.02043 0.65243 0.73911 0.0
C905 C 0.01073 0.62576 0.74067 0.0
C906 C 0.02639 0.60351 0.72988 0.0
C907 C 0.05287 0.60856 0.71755 0.0
C908 C 0.06364 0.63557 0.71667 0.0
C909 C 0.04716 0.6578 0.72755 0.0
H910 H 0.34234 0.07003 0.75429 0.0
H911 H 0.37422 0.05715 0.65452 0.0
H912 H 0.37245 0.00696 0.66313 0.0
H913 H 0.38104 0.01686 0.79224 0.0
H914 H 0.35434 0.00664 0.82088 0.0
H915 H 0.3558 0.04153 0.80603 0.0
H916 H 0.30564 0.03766 0.7848 0.0
H917 H 0.304 0.00275 0.79969 0.0
H918 H 0.29653 0.01025 0.75669 0.0
H919 H 0.36886 0.95845 0.683 0.0
H920 H 0.36505 0.9146 0.71362 0.0
H921 H 0.33709 0.95877 0.80128 0.0
C922 C 0.34853 0.05659 0.73413 0.0
C923 C 0.35823 0.06739 0.70366 0.0
C924 C 0.36667 0.04925 0.67804 0.0
C925 C 0.36568 0.02073 0.68265 0.0
C926 C 0.35635 0.0107 0.71311 0.0
C927 C 0.34799 0.02802 0.73847 0.0
C928 C 0.34036 0.0119 0.76943 0.0
C929 C 0.359 0.0197 0.79888 0.0
C930 C 0.30981 0.01588 0.77816 0.0
C931 C 0.346 0.98287 0.75757 0.0
C932 C 0.35494 0.98265 0.7249 0.0
C933 C 0.36179 0.95833 0.70856 0.0
C934 C 0.35956 0.93354 0.72615 0.0
C935 C 0.3508 0.93332 0.75978 0.0
C936 C 0.34384 0.95833 0.77557 0.0
H937 H 0.07558 0.34023 0.74388 0.0
H938 H 0.06176 0.33557 0.85055 0.0
H939 H 0.01171 0.33398 0.84107 0.0
H940 H 0.02024 0.38409 0.72569 0.0
H941 H 0.01112 0.36787 0.68689 0.0
H942 H 0.04603 0.3663 0.70163 0.0
H943 H 0.04486 0.31313 0.69841 0.0
H944 H 0.00995 0.31454 0.68345 0.0
H945 H 0.01811 0.29456 0.71993 0.0
H946 H 0.96338 0.33736 0.82071 0.0
H947 H 0.91962 0.34286 0.79029 0.0
H948 H 0.96423 0.34377 0.69663 0.0
C949 C 0.06202 0.33837 0.76517 0.0
C950 C 0.07256 0.33796 0.79795 0.0
C951 C 0.05416 0.33582 0.82521 0.0
C952 C 0.02568 0.33492 0.8201 0.0
C953 C 0.0159 0.33591 0.78756 0.0
C954 C 0.03346 0.33729 0.7605 0.0
C955 C 0.01747 0.33912 0.72817 0.0
C956 C 0.02412 0.36594 0.70951 0.0
C957 C 0.02292 0.31383 0.7062 0.0
C958 C 0.98824 0.33917 0.74138 0.0
C959 C 0.98784 0.33727 0.77571 0.0
C960 C 0.96339 0.33845 0.79379 0.0
C961 C 0.93866 0.34168 0.77633 0.0
C962 C 0.93856 0.34352 0.74115 0.0
C963 C 0.96369 0.34202 0.72351 0.0
H964 H 0.36917 0.07325 0.2436 0.0
H965 H 0.31474 0.06976 0.32923 0.0
H966 H 0.30506 0.02087 0.31721 0.0
H967 H 0.3288 0.02815 0.19006 0.0
H968 H 0.35879 0.0124 0.17178 0.0
H969 H 0.36036 0.04738 0.18638 0.0
H970 H 0.40179 0.03482 0.22397 0.0
H971 H 0.40026 0.9998 0.20962 0.0
H972 H 0.39846 0.00714 0.25356 0.0
H973 H 0.30333 0.97159 0.29745 0.0
H974 H 0.30844 0.92623 0.27028 0.0
H975 H 0.36345 0.96237 0.19721 0.0
C976 C 0.35498 0.06229 0.25962 0.0
C977 C 0.34265 0.0753 0.28731 0.0
C978 C 0.32433 0.06021 0.3078 0.0
C979 C 0.31874 0.03244 0.3012 0.0
C980 C 0.33151 0.02012 0.27392 0.0
C981 C 0.34911 0.03462 0.25333 0.0
C982 C 0.36063 0.01646 0.22604 0.0
C983 C 0.3516 0.02671 0.19152 0.0
C984 C 0.39215 0.01444 0.22846 0.0
C985 C 0.34703 0.9894 0.2347 0.0
C986 C 0.3303 0.99191 0.26239 0.0
C987 C 0.3162 0.96944 0.2756 0.0
C988 C 0.31927 0.94377 0.26006 0.0
C989 C 0.33624 0.94082 0.23159 0.0
C990 C 0.35018 0.96402 0.2188 0.0
H991 H 0.94206 0.34915 0.24087 0.0
H992 H 0.95247 0.3192 0.34185 0.0
H993 H 1.0019 0.31151 0.3309 0.0
H994 H 0.99164 0.30189 0.20142 0.0
H995 H 0.00361 0.32767 0.1726 0.0
H996 H 0.96864 0.32859 0.18754 0.0
H997 H 0.97585 0.37854 0.20817 0.0
H998 H 0.01077 0.37779 0.19331 0.0
H999 H 0.00377 0.38597 0.23628 0.0
H1000 H 0.05079 0.3113 0.31067 0.0
H1001 H 0.09546 0.3179 0.28228 0.0
H1002 H 0.05293 0.34663 0.19399 0.0
C1003 C 0.95467 0.3406 0.26052 0.0
C1004 C 0.94347 0.33472 0.29219 0.0
C1005 C 0.96064 0.32375 0.31736 0.0
C1006 C 0.98871 0.31927 0.31136 0.0
C1007 C 0.99919 0.32561 0.27997 0.0
C1008 C 0.98267 0.33586 0.25488 0.0
C1009 C 0.99926 0.34226 0.2239 0.0
C1010 C 0.99025 0.32401 0.19464 0.0
C1011 C 0.9973 0.37296 0.21491 0.0
C1012 C 0.02782 0.33471 0.23576 0.0
C1013 C 0.02733 0.32499 0.2681 0.0
C1014 C 0.0514 0.31846 0.28516 0.0
C1015 C 0.07665 0.3223 0.26888 0.0
C1016 C 0.07758 0.33249 0.23587 0.0
C1017 C 0.0528 0.33831 0.21901 0.0
H1018 H 0.6302 0.95171 0.30556 0.0
H1019 H 0.70035 0.91436 0.2563 0.0
H1020 H 0.71263 0.95935 0.23186 0.0
H1021 H 0.61109 0.99449 0.23885 0.0
H1022 H 0.6006 0.02302 0.26453 0.0
H1023 H 0.59881 0.98854 0.28062 0.0
H1024 H 0.62926 0.00264 0.33071 0.0
H1025 H 0.63105 0.03724 0.31483 0.0
H1026 H 0.66224 0.01845 0.32321 0.0
H1027 H 0.7155 0.00772 0.20994 0.0
H1028 H 0.70874 0.05591 0.19221 0.0
H1029 H 0.63643 0.06145 0.25535 0.0
C1030 C 0.64843 0.95311 0.29011 0.0
C1031 C 0.66446 0.92962 0.28298 0.0
C1032 C 0.68787 0.93215 0.26219 0.0
C1033 C 0.69501 0.95761 0.24823 0.0
C1034 C 0.67852 0.9803 0.25531 0.0
C1035 C 0.65575 0.97831 0.27583 0.0
C1036 C 0.64058 0.00544 0.278 0.0
C1037 C 0.61103 0.00269 0.2647 0.0
C1038 C 0.64081 0.0166 0.31382 0.0
C1039 C 0.65816 0.02291 0.25515 0.0
C1040 C 0.68004 0.00809 0.24247 0.0
C1041 C 0.69858 0.0196 0.21993 0.0
C1042 C 0.69455 0.04695 0.20997 0.0
C1043 C 0.67213 0.06241 0.22247 0.0
C1044 C 0.65387 0.0502 0.24553 0.0
H1045 H 0.06071 0.66982 0.24625 0.0
H1046 H 0.04781 0.6674 0.35311 0.0
H1047 H 0.99754 0.66895 0.34437 0.0
H1048 H 1.00168 0.7144 0.2253 0.0
H1049 H 0.99398 0.69546 0.18788 0.0
H1050 H 0.02891 0.69753 0.20263 0.0
H1051 H 0.03191 0.64436 0.20308 0.0
H1052 H 0.99699 0.64211 0.18854 0.0
H1053 H 0.0069 0.62488 0.2264 0.0
H1054 H 0.94886 0.66761 0.32408 0.0
H1055 H 0.90507 0.6623 0.29363 0.0
H1056 H 0.94954 0.66381 0.19985 0.0
C1057 C 0.04729 0.67031 0.26779 0.0
C1058 C 0.05807 0.66883 0.30038 0.0
C1059 C 0.03991 0.66871 0.32795 0.0
C1060 C 0.01135 0.66964 0.32324 0.0
C1061 C 1.00131 0.67051 0.29077 0.0
C1062 C 0.0187 0.67084 0.26349 0.0
C1063 C 1.00261 0.6696 0.23123 0.0
C1064 C 0.00706 0.69581 0.21055 0.0
C1065 C 0.01005 0.6437 0.21115 0.0
C1066 C 0.9735 0.66808 0.24464 0.0
C1067 C 0.97321 0.66897 0.27904 0.0
C1068 C 0.9488 0.66709 0.29714 0.0
C1069 C 0.92405 0.66405 0.27963 0.0
C1070 C 0.92391 0.66267 0.24441 0.0
C1071 C 0.94899 0.66491 0.22678 0.0
loop_
_geom_bond_atom_site_label_1
_geom_bond_atom_site_label_2
_geom_bond_distance
_geom_bond_site_symmetry_2
_ccdc_geom_bond_type
In0 O1 2.294 . S
In0 O2 2.326 . S
In0 O6 2.266 . S
In0 O7 2.326 . S
In0 O8 2.266 . S
In0 O9 2.326 . S
In0 O11 2.294 . S
In0 O12 2.326 . S
O1 In0 2.294 . S
O1 C10 1.240 . S
O2 In0 2.326 . S
O2 C10 1.252 . S
C3 O6 1.252 . S
C3 O7 1.260 . S
C4 O11 1.240 . S
C4 O12 1.252 . S
C5 O8 1.252 . S
C5 O9 1.260 . S
O6 In0 2.266 . S
O6 C3 1.252 . S
O7 In0 2.326 . S
O7 C3 1.260 . S
O8 In0 2.266 . S
O8 C5 1.252 . S
O9 In0 2.326 . S
O9 C5 1.260 . S
C10 O1 1.240 . S
C10 O2 1.252 . S
O11 In0 2.294 . S
O11 C4 1.240 . S
O12 In0 2.326 . S
O12 C4 1.252 . S
In13 O14 2.294 . S
In13 O15 2.326 . S
In13 O19 2.266 . S
In13 O20 2.326 . S
In13 O21 2.266 . S
In13 O22 2.326 . S
In13 O24 2.294 . S
In13 O25 2.326 . S
O14 In13 2.294 . S
O14 C23 1.240 . S
O15 In13 2.326 . S
O15 C23 1.252 . S
C16 O19 1.252 . S
C16 O20 1.260 . S
C17 O24 1.240 . S
C17 O25 1.252 . S
C18 O21 1.252 . S
C18 O22 1.260 . S
O19 In13 2.266 . S
O19 C16 1.252 . S
O20 In13 2.326 . S
O20 C16 1.260 . S
O21 In13 2.266 . S
O21 C18 1.252 . S
O22 In13 2.326 . S
O22 C18 1.260 . S
C23 O14 1.240 . S
C23 O15 1.252 . S
O24 In13 2.294 . S
O24 C17 1.240 . S
O25 In13 2.326 . S
O25 C17 1.252 . S
In26 O27 2.294 . S
In26 O28 2.326 . S
In26 O32 2.266 . S
In26 O33 2.326 . S
In26 O34 2.266 . S
In26 O35 2.326 . S
In26 O37 2.294 . S
In26 O38 2.326 . S
O27 In26 2.294 . S
O27 C36 1.240 . S
O28 In26 2.326 . S
O28 C36 1.252 . S
C29 O32 1.252 . S
C29 O33 1.260 . S
C30 O37 1.240 . S
C30 O38 1.252 . S
C31 O34 1.252 . S
C31 O35 1.260 . S
O32 In26 2.266 . S
O32 C29 1.252 . S
O33 In26 2.326 . S
O33 C29 1.260 . S
O34 In26 2.266 . S
O34 C31 1.252 . S
O35 In26 2.326 . S
O35 C31 1.260 . S
C36 O27 1.240 . S
C36 O28 1.252 . S
O37 In26 2.294 . S
O37 C30 1.240 . S
O38 In26 2.326 . S
O38 C30 1.252 . S
In39 O40 2.294 . S
In39 O41 2.326 . S
In39 O45 2.266 . S
In39 O46 2.326 . S
In39 O47 2.266 . S
In39 O48 2.326 . S
In39 O50 2.294 . S
In39 O51 2.326 . S
O40 In39 2.294 . S
O40 C49 1.240 . S
O41 In39 2.326 . S
O41 C49 1.252 . S
C42 O45 1.252 . S
C42 O46 1.260 . S
C43 O50 1.240 . S
C43 O51 1.252 . S
C44 O47 1.252 . S
C44 O48 1.260 . S
O45 In39 2.266 . S
O45 C42 1.252 . S
O46 In39 2.326 . S
O46 C42 1.260 . S
O47 In39 2.266 . S
O47 C44 1.252 . S
O48 In39 2.326 . S
O48 C44 1.260 . S
C49 O40 1.240 . S
C49 O41 1.252 . S
O50 In39 2.294 . S
O50 C43 1.240 . S
O51 In39 2.326 . S
O51 C43 1.252 . S
In52 O53 2.294 . S
In52 O54 2.326 . S
In52 O58 2.266 . S
In52 O59 2.326 . S
In52 O60 2.266 . S
In52 O61 2.326 . S
In52 O63 2.294 . S
In52 O64 2.326 . S
O53 In52 2.294 . S
O53 C62 1.240 . S
O54 In52 2.326 . S
O54 C62 1.252 . S
C55 O58 1.252 . S
C55 O59 1.260 . S
C56 O63 1.240 . S
C56 O64 1.252 . S
C57 O60 1.252 . S
C57 O61 1.260 . S
O58 In52 2.266 . S
O58 C55 1.252 . S
O59 In52 2.326 . S
O59 C55 1.260 . S
O60 In52 2.266 . S
O60 C57 1.252 . S
O61 In52 2.326 . S
O61 C57 1.260 . S
C62 O53 1.240 . S
C62 O54 1.252 . S
O63 In52 2.294 . S
O63 C56 1.240 . S
O64 In52 2.326 . S
O64 C56 1.252 . S
In65 O66 2.294 . S
In65 O67 2.326 . S
In65 O71 2.266 . S
In65 O72 2.326 . S
In65 O73 2.266 . S
In65 O74 2.326 . S
In65 O76 2.294 . S
In65 O77 2.326 . S
O66 In65 2.294 . S
O66 C75 1.240 . S
O67 In65 2.326 . S
O67 C75 1.252 . S
C68 O71 1.252 . S
C68 O72 1.260 . S
C69 O76 1.240 . S
C69 O77 1.252 . S
C70 O73 1.252 . S
C70 O74 1.260 . S
O71 In65 2.266 . S
O71 C68 1.252 . S
O72 In65 2.326 . S
O72 C68 1.260 . S
O73 In65 2.266 . S
O73 C70 1.252 . S
O74 In65 2.326 . S
O74 C70 1.260 . S
C75 O66 1.240 . S
C75 O67 1.252 . S
O76 In65 2.294 . S
O76 C69 1.240 . S
O77 In65 2.326 . S
O77 C69 1.252 . S
In78 O79 2.294 . S
In78 O80 2.326 . S
In78 O84 2.266 . S
In78 O85 2.326 . S
In78 O86 2.266 . S
In78 O87 2.326 . S
In78 O89 2.294 . S
In78 O90 2.326 . S
O79 In78 2.294 . S
O79 C88 1.240 . S
O80 In78 2.326 . S
O80 C88 1.252 . S
C81 O84 1.252 . S
C81 O85 1.260 . S
C82 O89 1.240 . S
C82 O90 1.252 . S
C83 O86 1.252 . S
C83 O87 1.260 . S
O84 In78 2.266 . S
O84 C81 1.252 . S
O85 In78 2.326 . S
O85 C81 1.260 . S
O86 In78 2.266 . S
O86 C83 1.252 . S
O87 In78 2.326 . S
O87 C83 1.260 . S
C88 O79 1.240 . S
C88 O80 1.252 . S
O89 In78 2.294 . S
O89 C82 1.240 . S
O90 In78 2.326 . S
O90 C82 1.252 . S
In91 O92 2.294 . S
In91 O93 2.326 . S
In91 O97 2.266 . S
In91 O98 2.326 . S
In91 O99 2.266 . S
In91 O100 2.326 . S
In91 O102 2.294 . S
In91 O103 2.326 . S
O92 In91 2.294 . S
O92 C101 1.240 . S
O93 In91 2.326 . S
O93 C101 1.252 . S
C94 O97 1.252 . S
C94 O98 1.260 . S
C95 O102 1.240 . S
C95 O103 1.252 . S
C96 O99 1.252 . S
C96 O100 1.260 . S
O97 In91 2.266 . S
O97 C94 1.252 . S
O98 In91 2.326 . S
O98 C94 1.260 . S
O99 In91 2.266 . S
O99 C96 1.252 . S
O100 In91 2.326 . S
O100 C96 1.260 . S
C101 O92 1.240 . S
C101 O93 1.252 . S
O102 In91 2.294 . S
O102 C95 1.240 . S
O103 In91 2.326 . S
O103 C95 1.252 . S
In104 O105 2.294 . S
In104 O106 2.326 . S
In104 O110 2.266 . S
In104 O111 2.326 . S
In104 O112 2.266 . S
In104 O113 2.326 . S
In104 O115 2.294 . S
In104 O116 2.326 . S
O105 In104 2.294 . S
O105 C114 1.240 . S
O106 In104 2.326 . S
O106 C114 1.252 . S
C107 O110 1.252 . S
C107 O111 1.260 . S
C108 O115 1.240 . S
C108 O116 1.252 . S
C109 O112 1.252 . S
C109 O113 1.260 . S
O110 In104 2.266 . S
O110 C107 1.252 . S
O111 In104 2.326 . S
O111 C107 1.260 . S
O112 In104 2.266 . S
O112 C109 1.252 . S
O113 In104 2.326 . S
O113 C109 1.260 . S
C114 O105 1.240 . S
C114 O106 1.252 . S
O115 In104 2.294 . S
O115 C108 1.240 . S
O116 In104 2.326 . S
O116 C108 1.252 . S
In117 O118 2.294 . S
In117 O119 2.326 . S
In117 O123 2.266 . S
In117 O124 2.326 . S
In117 O125 2.266 . S
In117 O126 2.326 . S
In117 O128 2.294 . S
In117 O129 2.326 . S
O118 In117 2.294 . S
O118 C127 1.240 . S
O119 In117 2.326 . S
O119 C127 1.252 . S
C120 O123 1.252 . S
C120 O124 1.260 . S
C121 O128 1.240 . S
C121 O129 1.252 . S
C122 O125 1.252 . S
C122 O126 1.260 . S
O123 In117 2.266 . S
O123 C120 1.252 . S
O124 In117 2.326 . S
O124 C120 1.260 . S
O125 In117 2.266 . S
O125 C122 1.252 . S
O126 In117 2.326 . S
O126 C122 1.260 . S
C127 O118 1.240 . S
C127 O119 1.252 . S
O128 In117 2.294 . S
O128 C121 1.240 . S
O129 In117 2.326 . S
O129 C121 1.252 . S
In130 O131 2.294 . S
In130 O132 2.326 . S
In130 O136 2.266 . S
In130 O137 2.326 . S
In130 O138 2.266 . S
In130 O139 2.326 . S
In130 O141 2.294 . S
In130 O142 2.326 . S
O131 In130 2.294 . S
O131 C140 1.240 . S
O132 In130 2.326 . S
O132 C140 1.252 . S
C133 O136 1.252 . S
C133 O137 1.260 . S
C134 O141 1.240 . S
C134 O142 1.252 . S
C135 O138 1.252 . S
C135 O139 1.260 . S
O136 In130 2.266 . S
O136 C133 1.252 . S
O137 In130 2.326 . S
O137 C133 1.260 . S
O138 In130 2.266 . S
O138 C135 1.252 . S
O139 In130 2.326 . S
O139 C135 1.260 . S
C140 O131 1.240 . S
C140 O132 1.252 . S
O141 In130 2.294 . S
O141 C134 1.240 . S
O142 In130 2.326 . S
O142 C134 1.252 . S
In143 O144 2.294 . S
In143 O145 2.326 . S
In143 O149 2.266 . S
In143 O150 2.326 . S
In143 O151 2.266 . S
In143 O152 2.326 . S
In143 O154 2.294 . S
In143 O155 2.326 . S
O144 In143 2.294 . S
O144 C153 1.240 . S
O145 In143 2.326 . S
O145 C153 1.252 . S
C146 O149 1.252 . S
C146 O150 1.260 . S
C147 O154 1.240 . S
C147 O155 1.252 . S
C148 O151 1.252 . S
C148 O152 1.260 . S
O149 In143 2.266 . S
O149 C146 1.252 . S
O150 In143 2.326 . S
O150 C146 1.260 . S
O151 In143 2.266 . S
O151 C148 1.252 . S
O152 In143 2.326 . S
O152 C148 1.260 . S
C153 O144 1.240 . S
C153 O145 1.252 . S
O154 In143 2.294 . S
O154 C147 1.240 . S
O155 In143 2.326 . S
O155 C147 1.252 . S
In156 O157 2.294 . S
In156 O158 2.326 . S
In156 O162 2.266 . S
In156 O163 2.326 . S
In156 O164 2.266 . S
In156 O165 2.326 . S
In156 O167 2.294 . S
In156 O168 2.326 . S
O157 In156 2.294 . S
O157 C166 1.240 . S
O158 In156 2.326 . S
O158 C166 1.252 . S
C159 O162 1.252 . S
C159 O163 1.260 . S
C160 O167 1.240 . S
C160 O168 1.252 . S
C161 O164 1.252 . S
C161 O165 1.260 . S
O162 In156 2.266 . S
O162 C159 1.252 . S
O163 In156 2.326 . S
O163 C159 1.260 . S
O164 In156 2.266 . S
O164 C161 1.252 . S
O165 In156 2.326 . S
O165 C161 1.260 . S
C166 O157 1.240 . S
C166 O158 1.252 . S
O167 In156 2.294 . S
O167 C160 1.240 . S
O168 In156 2.326 . S
O168 C160 1.252 . S
In169 O170 2.294 . S
In169 O171 2.326 . S
In169 O175 2.266 . S
In169 O176 2.326 . S
In169 O177 2.266 . S
In169 O178 2.326 . S
In169 O180 2.294 . S
In169 O181 2.326 . S
O170 In169 2.294 . S
O170 C179 1.240 . S
O171 In169 2.326 . S
O171 C179 1.252 . S
C172 O175 1.252 . S
C172 O176 1.260 . S
C173 O180 1.240 . S
C173 O181 1.252 . S
C174 O177 1.252 . S
C174 O178 1.260 . S
O175 In169 2.266 . S
O175 C172 1.252 . S
O176 In169 2.326 . S
O176 C172 1.260 . S
O177 In169 2.266 . S
O177 C174 1.252 . S
O178 In169 2.326 . S
O178 C174 1.260 . S
C179 O170 1.240 . S
C179 O171 1.252 . S
O180 In169 2.294 . S
O180 C173 1.240 . S
O181 In169 2.326 . S
O181 C173 1.252 . S
In182 O183 2.294 . S
In182 O184 2.326 . S
In182 O188 2.266 . S
In182 O189 2.326 . S
In182 O190 2.266 . S
In182 O191 2.326 . S
In182 O193 2.294 . S
In182 O194 2.326 . S
O183 In182 2.294 . S
O183 C192 1.240 . S
O184 In182 2.326 . S
O184 C192 1.252 . S
C185 O188 1.252 . S
C185 O189 1.260 . S
C186 O193 1.240 . S
C186 O194 1.252 . S
C187 O190 1.252 . S
C187 O191 1.260 . S
O188 In182 2.266 . S
O188 C185 1.252 . S
O189 In182 2.326 . S
O189 C185 1.260 . S
O190 In182 2.266 . S
O190 C187 1.252 . S
O191 In182 2.326 . S
O191 C187 1.260 . S
C192 O183 1.240 . S
C192 O184 1.252 . S
O193 In182 2.294 . S
O193 C186 1.240 . S
O194 In182 2.326 . S
O194 C186 1.252 . S
In195 O196 2.294 . S
In195 O197 2.326 . S
In195 O201 2.266 . S
In195 O202 2.326 . S
In195 O203 2.266 . S
In195 O204 2.326 . S
In195 O206 2.294 . S
In195 O207 2.326 . S
O196 In195 2.294 . S
O196 C205 1.240 . S
O197 In195 2.326 . S
O197 C205 1.252 . S
C198 O201 1.252 . S
C198 O202 1.260 . S
C199 O206 1.240 . S
C199 O207 1.252 . S
C200 O203 1.252 . S
C200 O204 1.260 . S
O201 In195 2.266 . S
O201 C198 1.252 . S
O202 In195 2.326 . S
O202 C198 1.260 . S
O203 In195 2.266 . S
O203 C200 1.252 . S
O204 In195 2.326 . S
O204 C200 1.260 . S
C205 O196 1.240 . S
C205 O197 1.252 . S
O206 In195 2.294 . S
O206 C199 1.240 . S
O207 In195 2.326 . S
O207 C199 1.252 . S
H208 C220 0.930 . S
H209 C222 0.930 . S
H210 C223 0.930 . S
H211 C227 0.959 . S
H212 C227 0.959 . S
H213 C227 0.961 . S
H214 C228 0.960 . S
H215 C228 0.961 . S
H216 C228 0.959 . S
H217 C231 0.929 . S
H218 C232 0.931 . S
H219 C234 0.930 . S
C220 H208 0.930 . S
C220 C221 1.399 . S
C220 C225 1.399 . S
C221 C220 1.399 . S
C221 C222 1.376 . S
C222 H209 0.930 . S
C222 C221 1.376 . S
C222 C223 1.388 . S
C223 H210 0.930 . S
C223 C222 1.388 . S
C223 C224 1.390 . S
C224 C223 1.390 . S
C224 C225 1.394 . S
C224 C230 1.465 . S
C225 C220 1.399 . S
C225 C224 1.394 . S
C225 C226 1.516 . S
C226 C225 1.516 . S
C226 C227 1.502 . S
C226 C228 1.561 . S
C226 C229 1.526 . S
C227 H211 0.959 . S
C227 H212 0.959 . S
C227 H213 0.961 . S
C227 C226 1.502 . S
C228 H214 0.960 . S
C228 H215 0.961 . S
C228 H216 0.959 . S
C228 C226 1.561 . S
C229 C226 1.526 . S
C229 C230 1.396 . S
C229 C234 1.390 . S
C230 C224 1.465 . S
C230 C229 1.396 . S
C230 C231 1.399 . S
C231 H217 0.929 . S
C231 C230 1.399 . S
C231 C232 1.385 . S
C232 H218 0.931 . S
C232 C231 1.385 . S
C232 C233 1.389 . S
C233 C232 1.389 . S
C233 C234 1.387 . S
C234 H219 0.930 . S
C234 C229 1.390 . S
C234 C233 1.387 . S
H235 C247 0.930 . S
H236 C249 0.930 . S
H237 C250 0.930 . S
H238 C254 0.959 . S
H239 C254 0.959 . S
H240 C254 0.961 . S
H241 C255 0.960 . S
H242 C255 0.961 . S
H243 C255 0.959 . S
H244 C258 0.929 . S
H245 C259 0.931 . S
H246 C261 0.930 . S
C247 H235 0.930 . S
C247 C248 1.399 . S
C247 C252 1.399 . S
C248 C247 1.399 . S
C248 C249 1.376 . S
C249 H236 0.930 . S
C249 C248 1.376 . S
C249 C250 1.388 . S
C250 H237 0.930 . S
C250 C249 1.388 . S
C250 C251 1.390 . S
C251 C250 1.390 . S
C251 C252 1.394 . S
C251 C257 1.465 . S
C252 C247 1.399 . S
C252 C251 1.394 . S
C252 C253 1.516 . S
C253 C252 1.516 . S
C253 C254 1.502 . S
C253 C255 1.561 . S
C253 C256 1.526 . S
C254 H238 0.959 . S
C254 H239 0.959 . S
C254 H240 0.961 . S
C254 C253 1.502 . S
C255 H241 0.960 . S
C255 H242 0.961 . S
C255 H243 0.959 . S
C255 C253 1.561 . S
C256 C253 1.526 . S
C256 C257 1.396 . S
C256 C261 1.390 . S
C257 C251 1.465 . S
C257 C256 1.396 . S
C257 C258 1.399 . S
C258 H244 0.929 . S
C258 C257 1.399 . S
C258 C259 1.385 . S
C259 H245 0.931 . S
C259 C258 1.385 . S
C259 C260 1.389 . S
C260 C259 1.389 . S
C260 C261 1.387 . S
C261 H246 0.930 . S
C261 C256 1.390 . S
C261 C260 1.387 . S
H262 C274 0.930 . S
H263 C276 0.930 . S
H264 C277 0.930 . S
H265 C281 0.959 . S
H266 C281 0.959 . S
H267 C281 0.961 . S
H268 C282 0.960 . S
H269 C282 0.961 . S
H270 C282 0.959 . S
H271 C285 0.929 . S
H272 C286 0.931 . S
H273 C288 0.930 . S
C274 H262 0.930 . S
C274 C275 1.399 . S
C274 C279 1.399 . S
C275 C274 1.399 . S
C275 C276 1.376 . S
C276 H263 0.930 . S
C276 C275 1.376 . S
C276 C277 1.388 . S
C277 H264 0.930 . S
C277 C276 1.388 . S
C277 C278 1.390 . S
C278 C277 1.390 . S
C278 C279 1.394 . S
C278 C284 1.465 . S
C279 C274 1.399 . S
C279 C278 1.394 . S
C279 C280 1.516 . S
C280 C279 1.516 . S
C280 C281 1.502 . S
C280 C282 1.561 . S
C280 C283 1.526 . S
C281 H265 0.959 . S
C281 H266 0.959 . S
C281 H267 0.961 . S
C281 C280 1.502 . S
C282 H268 0.960 . S
C282 H269 0.961 . S
C282 H270 0.959 . S
C282 C280 1.561 . S
C283 C280 1.526 . S
C283 C284 1.396 . S
C283 C288 1.390 . S
C284 C278 1.465 . S
C284 C283 1.396 . S
C284 C285 1.399 . S
C285 H271 0.929 . S
C285 C284 1.399 . S
C285 C286 1.385 . S
C286 H272 0.931 . S
C286 C285 1.385 . S
C286 C287 1.389 . S
C287 C286 1.389 . S
C287 C288 1.387 . S
C288 H273 0.930 . S
C288 C283 1.390 . S
C288 C287 1.387 . S
H289 C301 0.930 . S
H290 C303 0.930 . S
H291 C304 0.930 . S
H292 C308 0.959 . S
H293 C308 0.959 . S
H294 C308 0.961 . S
H295 C309 0.960 . S
H296 C309 0.961 . S
H297 C309 0.959 . S
H298 C312 0.929 . S
H299 C313 0.931 . S
H300 C315 0.930 . S
C301 H289 0.930 . S
C301 C302 1.399 . S
C301 C306 1.399 . S
C302 C301 1.399 . S
C302 C303 1.376 . S
C303 H290 0.930 . S
C303 C302 1.376 . S
C303 C304 1.388 . S
C304 H291 0.930 . S
C304 C303 1.388 . S
C304 C305 1.390 . S
C305 C304 1.390 . S
C305 C306 1.394 . S
C305 C311 1.465 . S
C306 C301 1.399 . S
C306 C305 1.394 . S
C306 C307 1.516 . S
C307 C306 1.516 . S
C307 C308 1.502 . S
C307 C309 1.561 . S
C307 C310 1.526 . S
C308 H292 0.959 . S
C308 H293 0.959 . S
C308 H294 0.961 . S
C308 C307 1.502 . S
C309 H295 0.960 . S
C309 H296 0.961 . S
C309 H297 0.959 . S
C309 C307 1.561 . S
C310 C307 1.526 . S
C310 C311 1.396 . S
C310 C315 1.390 . S
C311 C305 1.465 . S
C311 C310 1.396 . S
C311 C312 1.399 . S
C312 H298 0.929 . S
C312 C311 1.399 . S
C312 C313 1.385 . S
C313 H299 0.931 . S
C313 C312 1.385 . S
C313 C314 1.389 . S
C314 C313 1.389 . S
C314 C315 1.387 . S
C315 H300 0.930 . S
C315 C310 1.390 . S
C315 C314 1.387 . S
H316 C328 0.930 . S
H317 C330 0.930 . S
H318 C331 0.930 . S
H319 C335 0.959 . S
H320 C335 0.959 . S
H321 C335 0.961 . S
H322 C336 0.960 . S
H323 C336 0.961 . S
H324 C336 0.959 . S
H325 C339 0.929 . S
H326 C340 0.931 . S
H327 C342 0.930 . S
C328 H316 0.930 . S
C328 C329 1.399 . S
C328 C333 1.399 . S
C329 C328 1.399 . S
C329 C330 1.376 . S
C330 H317 0.930 . S
C330 C329 1.376 . S
C330 C331 1.388 . S
C331 H318 0.930 . S
C331 C330 1.388 . S
C331 C332 1.390 . S
C332 C331 1.390 . S
C332 C333 1.394 . S
C332 C338 1.465 . S
C333 C328 1.399 . S
C333 C332 1.394 . S
C333 C334 1.516 . S
C334 C333 1.516 . S
C334 C335 1.502 . S
C334 C336 1.561 . S
C334 C337 1.526 . S
C335 H319 0.959 . S
C335 H320 0.959 . S
C335 H321 0.961 . S
C335 C334 1.502 . S
C336 H322 0.960 . S
C336 H323 0.961 . S
C336 H324 0.959 . S
C336 C334 1.561 . S
C337 C334 1.526 . S
C337 C338 1.396 . S
C337 C342 1.390 . S
C338 C332 1.465 . S
C338 C337 1.396 . S
C338 C339 1.399 . S
C339 H325 0.929 . S
C339 C338 1.399 . S
C339 C340 1.385 . S
C340 H326 0.931 . S
C340 C339 1.385 . S
C340 C341 1.389 . S
C341 C340 1.389 . S
C341 C342 1.387 . S
C342 H327 0.930 . S
C342 C337 1.390 . S
C342 C341 1.387 . S
H343 C355 0.930 . S
H344 C357 0.930 . S
H345 C358 0.930 . S
H346 C362 0.959 . S
H347 C362 0.959 . S
H348 C362 0.961 . S
H349 C363 0.960 . S
H350 C363 0.961 . S
H351 C363 0.959 . S
H352 C366 0.929 . S
H353 C367 0.931 . S
H354 C369 0.930 . S
C355 H343 0.930 . S
C355 C356 1.399 . S
C355 C360 1.399 . S
C356 C355 1.399 . S
C356 C357 1.376 . S
C357 H344 0.930 . S
C357 C356 1.376 . S
C357 C358 1.388 . S
C358 H345 0.930 . S
C358 C357 1.388 . S
C358 C359 1.390 . S
C359 C358 1.390 . S
C359 C360 1.394 . S
C359 C365 1.465 . S
C360 C355 1.399 . S
C360 C359 1.394 . S
C360 C361 1.516 . S
C361 C360 1.516 . S
C361 C362 1.502 . S
C361 C363 1.561 . S
C361 C364 1.526 . S
C362 H346 0.959 . S
C362 H347 0.959 . S
C362 H348 0.961 . S
C362 C361 1.502 . S
C363 H349 0.960 . S
C363 H350 0.961 . S
C363 H351 0.959 . S
C363 C361 1.561 . S
C364 C361 1.526 . S
C364 C365 1.396 . S
C364 C369 1.390 . S
C365 C359 1.465 . S
C365 C364 1.396 . S
C365 C366 1.399 . S
C366 H352 0.929 . S
C366 C365 1.399 . S
C366 C367 1.385 . S
C367 H353 0.931 . S
C367 C366 1.385 . S
C367 C368 1.389 . S
C368 C367 1.389 . S
C368 C369 1.387 . S
C369 H354 0.930 . S
C369 C364 1.390 . S
C369 C368 1.387 . S
H370 C382 0.930 . S
H371 C384 0.930 . S
H372 C385 0.930 . S
H373 C389 0.959 . S
H374 C389 0.959 . S
H375 C389 0.961 . S
H376 C390 0.960 . S
H377 C390 0.961 . S
H378 C390 0.959 . S
H379 C393 0.929 . S
H380 C394 0.931 . S
H381 C396 0.930 . S
C382 H370 0.930 . S
C382 C383 1.399 . S
C382 C387 1.399 . S
C383 C382 1.399 . S
C383 C384 1.376 . S
C384 H371 0.930 . S
C384 C383 1.376 . S
C384 C385 1.388 . S
C385 H372 0.930 . S
C385 C384 1.388 . S
C385 C386 1.390 . S
C386 C385 1.390 . S
C386 C387 1.394 . S
C386 C392 1.465 . S
C387 C382 1.399 . S
C387 C386 1.394 . S
C387 C388 1.516 . S
C388 C387 1.516 . S
C388 C389 1.502 . S
C388 C390 1.561 . S
C388 C391 1.526 . S
C389 H373 0.959 . S
C389 H374 0.959 . S
C389 H375 0.961 . S
C389 C388 1.502 . S
C390 H376 0.960 . S
C390 H377 0.961 . S
C390 H378 0.959 . S
C390 C388 1.561 . S
C391 C388 1.526 . S
C391 C392 1.396 . S
C391 C396 1.390 . S
C392 C386 1.465 . S
C392 C391 1.396 . S
C392 C393 1.399 . S
C393 H379 0.929 . S
C393 C392 1.399 . S
C393 C394 1.385 . S
C394 H380 0.931 . S
C394 C393 1.385 . S
C394 C395 1.389 . S
C395 C394 1.389 . S
C395 C396 1.387 . S
C396 H381 0.930 . S
C396 C391 1.390 . S
C396 C395 1.387 . S
H397 C409 0.930 . S
H398 C411 0.930 . S
H399 C412 0.930 . S
H400 C416 0.959 . S
H401 C416 0.959 . S
H402 C416 0.961 . S
H403 C417 0.960 . S
H404 C417 0.961 . S
H405 C417 0.959 . S
H406 C420 0.929 . S
H407 C421 0.931 . S
H408 C423 0.930 . S
C409 H397 0.930 . S
C409 C410 1.399 . S
C409 C414 1.399 . S
C410 C409 1.399 . S
C410 C411 1.376 . S
C411 H398 0.930 . S
C411 C410 1.376 . S
C411 C412 1.388 . S
C412 H399 0.930 . S
C412 C411 1.388 . S
C412 C413 1.390 . S
C413 C412 1.390 . S
C413 C414 1.394 . S
C413 C419 1.465 . S
C414 C409 1.399 . S
C414 C413 1.394 . S
C414 C415 1.516 . S
C415 C414 1.516 . S
C415 C416 1.502 . S
C415 C417 1.561 . S
C415 C418 1.526 . S
C416 H400 0.959 . S
C416 H401 0.959 . S
C416 H402 0.961 . S
C416 C415 1.502 . S
C417 H403 0.960 . S
C417 H404 0.961 . S
C417 H405 0.959 . S
C417 C415 1.561 . S
C418 C415 1.526 . S
C418 C419 1.396 . S
C418 C423 1.390 . S
C419 C413 1.465 . S
C419 C418 1.396 . S
C419 C420 1.399 . S
C420 H406 0.929 . S
C420 C419 1.399 . S
C420 C421 1.385 . S
C421 H407 0.931 . S
C421 C420 1.385 . S
C421 C422 1.389 . S
C422 C421 1.389 . S
C422 C423 1.387 . S
C423 H408 0.930 . S
C423 C418 1.390 . S
C423 C422 1.387 . S
H424 C436 0.930 . S
H425 C438 0.930 . S
H426 C439 0.930 . S
H427 C443 0.958 1_554 S
H428 C443 0.938 1_554 S
H429 C443 0.985 . S
H430 C444 0.979 . S
H431 C444 0.945 1_554 S
H432 C444 0.957 1_554 S
H433 C447 0.929 . S
H434 C448 0.931 . S
H435 C450 0.930 . S
C436 H424 0.930 . S
C436 C437 1.399 . S
C436 C441 1.399 . S
C437 C436 1.399 . S
C437 C438 1.376 . S
C438 H425 0.930 . S
C438 C437 1.376 . S
C438 C439 1.388 . S
C439 H426 0.930 . S
C439 C438 1.388 . S
C439 C440 1.390 . S
C440 C439 1.390 . S
C440 C441 1.394 . S
C440 C446 1.465 1_556 S
C441 C436 1.399 . S
C441 C440 1.394 . S
C441 C442 1.534 . S
C442 C441 1.534 . S
C442 C443 1.502 . S
C442 C444 1.561 . S
C442 C445 1.508 1_556 S
C443 H427 0.958 1_556 S
C443 H428 0.938 1_556 S
C443 H429 0.985 . S
C443 C442 1.502 . S
C444 H430 0.979 . S
C444 H431 0.945 1_556 S
C444 H432 0.957 1_556 S
C444 C442 1.561 . S
C445 C442 1.508 1_554 S
C445 C446 1.396 . S
C445 C450 1.390 . S
C446 C440 1.465 1_554 S
C446 C445 1.396 . S
C446 C447 1.399 . S
C447 H433 0.929 . S
C447 C446 1.399 . S
C447 C448 1.385 . S
C448 H434 0.931 . S
C448 C447 1.385 . S
C448 C449 1.389 . S
C449 C448 1.389 . S
C449 C450 1.387 . S
C450 H435 0.930 . S
C450 C445 1.390 . S
C450 C449 1.387 . S
H451 C463 0.930 . S
H452 C465 0.930 . S
H453 C466 0.930 . S
H454 C470 0.961 . S
H455 C470 0.979 . S
H456 C470 0.940 1_556 S
H457 C471 0.960 1_556 S
H458 C471 0.961 . S
H459 C471 0.959 . S
H460 C474 0.929 . S
H461 C475 0.931 . S
H462 C477 0.930 . S
C463 H451 0.930 . S
C463 C464 1.399 . S
C463 C468 1.399 . S
C464 C463 1.399 . S
C464 C465 1.376 . S
C465 H452 0.930 . S
C465 C464 1.376 . S
C465 C466 1.388 . S
C466 H453 0.930 . S
C466 C465 1.388 . S
C466 C467 1.390 . S
C467 C466 1.390 . S
C467 C468 1.394 . S
C467 C473 1.465 1_556 S
C468 C463 1.399 . S
C468 C467 1.394 . S
C468 C469 1.504 1_556 S
C469 C468 1.504 1_554 S
C469 C470 1.502 . S
C469 C471 1.562 . S
C469 C472 1.537 . S
C470 H454 0.961 . S
C470 H455 0.979 . S
C470 H456 0.940 1_554 S
C470 C469 1.502 . S
C471 H457 0.960 1_554 S
C471 H458 0.961 . S
C471 H459 0.959 . S
C471 C469 1.562 . S
C472 C469 1.537 . S
C472 C473 1.396 . S
C472 C477 1.390 . S
C473 C467 1.465 1_554 S
C473 C472 1.396 . S
C473 C474 1.399 . S
C474 H460 0.929 . S
C474 C473 1.399 . S
C474 C475 1.385 . S
C475 H461 0.931 . S
C475 C474 1.385 . S
C475 C476 1.389 . S
C476 C475 1.389 . S
C476 C477 1.387 . S
C477 H462 0.930 . S
C477 C472 1.390 . S
C477 C476 1.387 . S
H478 C490 0.930 . S
H479 C492 0.930 . S
H480 C493 0.930 . S
H481 C497 0.959 . S
H482 C497 0.959 . S
H483 C497 0.961 1_556 S
H484 C498 0.960 1_556 S
H485 C498 0.961 . S
H486 C498 0.959 . S
H487 C501 0.929 . S
H488 C502 0.931 . S
H489 C504 0.930 . S
C490 H478 0.930 . S
C490 C491 1.399 . S
C490 C495 1.399 . S
C491 C490 1.399 . S
C491 C492 1.376 . S
C492 H479 0.930 . S
C492 C491 1.376 . S
C492 C493 1.388 . S
C493 H480 0.930 . S
C493 C492 1.388 . S
C493 C494 1.390 . S
C494 C493 1.390 . S
C494 C495 1.394 . S
C494 C500 1.465 1_556 S
C495 C490 1.399 . S
C495 C494 1.394 . S
C495 C496 1.490 1_556 S
C496 C495 1.490 1_554 S
C496 C497 1.503 . S
C496 C498 1.562 . S
C496 C499 1.551 . S
C497 H481 0.959 . S
C497 H482 0.959 . S
C497 H483 0.961 1_554 S
C497 C496 1.503 . S
C498 H484 0.960 1_554 S
C498 H485 0.961 . S
C498 H486 0.959 . S
C498 C496 1.562 . S
C499 C496 1.551 . S
C499 C500 1.396 . S
C499 C504 1.390 . S
C500 C494 1.465 1_554 S
C500 C499 1.396 . S
C500 C501 1.399 . S
C501 H487 0.929 . S
C501 C500 1.399 . S
C501 C502 1.385 . S
C502 H488 0.931 . S
C502 C501 1.385 . S
C502 C503 1.389 . S
C503 C502 1.389 . S
C503 C504 1.387 . S
C504 H489 0.930 . S
C504 C499 1.390 . S
C504 C503 1.387 . S
H505 C517 0.930 . S
H506 C519 0.930 . S
H507 C520 0.930 . S
H508 C524 0.959 1_556 S
H509 C524 0.949 1_556 S
H510 C524 0.972 . S
H511 C525 0.953 1_554 S
H512 C525 0.967 . S
H513 C525 0.960 . S
H514 C528 0.929 . S
H515 C529 0.931 . S
H516 C531 0.930 . S
C517 H505 0.930 . S
C517 C518 1.399 . S
C517 C522 1.399 . S
C518 C517 1.399 . S
C518 C519 1.376 . S
C519 H506 0.930 . S
C519 C518 1.376 . S
C519 C520 1.388 . S
C520 H507 0.930 . S
C520 C519 1.388 . S
C520 C521 1.390 . S
C521 C520 1.390 . S
C521 C522 1.394 . S
C521 C527 1.465 1_554 S
C522 C517 1.399 . S
C522 C521 1.394 . S
C522 C523 1.521 . S
C523 C522 1.521 . S
C523 C524 1.502 . S
C523 C525 1.561 1_554 S
C523 C526 1.521 1_554 S
C524 H508 0.959 1_554 S
C524 H509 0.949 1_554 S
C524 H510 0.972 . S
C524 C523 1.502 . S
C525 H511 0.953 1_556 S
C525 H512 0.967 . S
C525 H513 0.960 . S
C525 C523 1.561 1_556 S
C526 C523 1.521 1_556 S
C526 C527 1.396 . S
C526 C531 1.390 . S
C527 C521 1.465 1_556 S
C527 C526 1.396 . S
C527 C528 1.399 . S
C528 H514 0.929 . S
C528 C527 1.399 . S
C528 C529 1.385 . S
C529 H515 0.931 . S
C529 C528 1.385 . S
C529 C530 1.389 . S
C530 C529 1.389 . S
C530 C531 1.387 . S
C531 H516 0.930 . S
C531 C526 1.390 . S
C531 C530 1.387 . S
H532 C544 0.930 . S
H533 C546 0.930 . S
H534 C547 0.930 . S
H535 C551 0.959 . S
H536 C551 0.959 . S
H537 C551 0.961 . S
H538 C552 0.960 . S
H539 C552 0.961 . S
H540 C552 0.959 . S
H541 C555 0.929 . S
H542 C556 0.931 . S
H543 C558 0.930 . S
C544 H532 0.930 . S
C544 C545 1.399 . S
C544 C549 1.399 . S
C545 C544 1.399 . S
C545 C546 1.376 . S
C546 H533 0.930 . S
C546 C545 1.376 . S
C546 C547 1.388 . S
C547 H534 0.930 . S
C547 C546 1.388 . S
C547 C548 1.390 . S
C548 C547 1.390 . S
C548 C549 1.394 . S
C548 C554 1.465 . S
C549 C544 1.399 . S
C549 C548 1.394 . S
C549 C550 1.516 . S
C550 C549 1.516 . S
C550 C551 1.502 . S
C550 C552 1.561 . S
C550 C553 1.526 . S
C551 H535 0.959 . S
C551 H536 0.959 . S
C551 H537 0.961 . S
C551 C550 1.502 . S
C552 H538 0.960 . S
C552 H539 0.961 . S
C552 H540 0.959 . S
C552 C550 1.561 . S
C553 C550 1.526 . S
C553 C554 1.396 . S
C553 C558 1.390 . S
C554 C548 1.465 . S
C554 C553 1.396 . S
C554 C555 1.399 . S
C555 H541 0.929 . S
C555 C554 1.399 . S
C555 C556 1.385 . S
C556 H542 0.931 . S
C556 C555 1.385 . S
C556 C557 1.389 . S
C557 C556 1.389 . S
C557 C558 1.387 . S
C558 H543 0.930 . S
C558 C553 1.390 . S
C558 C557 1.387 . S
H559 C571 0.930 . S
H560 C573 0.930 . S
H561 C574 0.930 . S
H562 C578 0.959 . S
H563 C578 0.959 . S
H564 C578 0.961 . S
H565 C579 0.960 . S
H566 C579 0.961 . S
H567 C579 0.959 . S
H568 C582 0.929 . S
H569 C583 0.931 . S
H570 C585 0.930 . S
C571 H559 0.930 . S
C571 C572 1.399 . S
C571 C576 1.399 . S
C572 C571 1.399 . S
C572 C573 1.376 . S
C573 H560 0.930 . S
C573 C572 1.376 . S
C573 C574 1.388 . S
C574 H561 0.930 . S
C574 C573 1.388 . S
C574 C575 1.390 . S
C575 C574 1.390 . S
C575 C576 1.394 . S
C575 C581 1.465 . S
C576 C571 1.399 . S
C576 C575 1.394 . S
C576 C577 1.516 . S
C577 C576 1.516 . S
C577 C578 1.502 . S
C577 C579 1.561 . S
C577 C580 1.526 . S
C578 H562 0.959 . S
C578 H563 0.959 . S
C578 H564 0.961 . S
C578 C577 1.502 . S
C579 H565 0.960 . S
C579 H566 0.961 . S
C579 H567 0.959 . S
C579 C577 1.561 . S
C580 C577 1.526 . S
C580 C581 1.396 . S
C580 C585 1.390 . S
C581 C575 1.465 . S
C581 C580 1.396 . S
C581 C582 1.399 . S
C582 H568 0.929 . S
C582 C581 1.399 . S
C582 C583 1.385 . S
C583 H569 0.931 . S
C583 C582 1.385 . S
C583 C584 1.389 . S
C584 C583 1.389 . S
C584 C585 1.387 . S
C585 H570 0.930 . S
C585 C580 1.390 . S
C585 C584 1.387 . S
H586 C598 0.930 . S
H587 C600 0.930 . S
H588 C601 0.930 . S
H589 C605 0.959 . S
H590 C605 0.959 . S
H591 C605 0.961 . S
H592 C606 0.960 . S
H593 C606 0.961 . S
H594 C606 0.959 . S
H595 C609 0.929 . S
H596 C610 0.931 . S
H597 C612 0.930 . S
C598 H586 0.930 . S
C598 C599 1.399 . S
C598 C603 1.399 . S
C599 C598 1.399 . S
C599 C600 1.376 . S
C600 H587 0.930 . S
C600 C599 1.376 . S
C600 C601 1.388 . S
C601 H588 0.930 . S
C601 C600 1.388 . S
C601 C602 1.390 . S
C602 C601 1.390 . S
C602 C603 1.394 . S
C602 C608 1.465 . S
C603 C598 1.399 . S
C603 C602 1.394 . S
C603 C604 1.516 . S
C604 C603 1.516 . S
C604 C605 1.502 . S
C604 C606 1.561 . S
C604 C607 1.526 . S
C605 H589 0.959 . S
C605 H590 0.959 . S
C605 H591 0.961 . S
C605 C604 1.502 . S
C606 H592 0.960 . S
C606 H593 0.961 . S
C606 H594 0.959 . S
C606 C604 1.561 . S
C607 C604 1.526 . S
C607 C608 1.396 . S
C607 C612 1.390 . S
C608 C602 1.465 . S
C608 C607 1.396 . S
C608 C609 1.399 . S
C609 H595 0.929 . S
C609 C608 1.399 . S
C609 C610 1.385 . S
C610 H596 0.931 . S
C610 C609 1.385 . S
C610 C611 1.389 . S
C611 C610 1.389 . S
C611 C612 1.387 . S
C612 H597 0.930 . S
C612 C607 1.390 . S
C612 C611 1.387 . S
H613 C625 0.930 . S
H614 C627 0.930 . S
H615 C628 0.930 . S
H616 C632 0.959 . S
H617 C632 0.959 . S
H618 C632 0.961 . S
H619 C633 0.960 . S
H620 C633 0.961 . S
H621 C633 0.959 . S
H622 C636 0.929 . S
H623 C637 0.931 . S
H624 C639 0.930 . S
C625 H613 0.930 . S
C625 C626 1.399 . S
C625 C630 1.399 . S
C626 C625 1.399 . S
C626 C627 1.376 . S
C627 H614 0.930 . S
C627 C626 1.376 . S
C627 C628 1.388 . S
C628 H615 0.930 . S
C628 C627 1.388 . S
C628 C629 1.390 . S
C629 C628 1.390 . S
C629 C630 1.394 . S
C629 C635 1.465 . S
C630 C625 1.399 . S
C630 C629 1.394 . S
C630 C631 1.516 . S
C631 C630 1.516 . S
C631 C632 1.502 . S
C631 C633 1.561 . S
C631 C634 1.526 . S
C632 H616 0.959 . S
C632 H617 0.959 . S
C632 H618 0.961 . S
C632 C631 1.502 . S
C633 H619 0.960 . S
C633 H620 0.961 . S
C633 H621 0.959 . S
C633 C631 1.561 . S
C634 C631 1.526 . S
C634 C635 1.396 . S
C634 C639 1.390 . S
C635 C629 1.465 . S
C635 C634 1.396 . S
C635 C636 1.399 . S
C636 H622 0.929 . S
C636 C635 1.399 . S
C636 C637 1.385 . S
C637 H623 0.931 . S
C637 C636 1.385 . S
C637 C638 1.389 . S
C638 C637 1.389 . S
C638 C639 1.387 . S
C639 H624 0.930 . S
C639 C634 1.390 . S
C639 C638 1.387 . S
H640 C652 0.930 . S
H641 C654 0.930 . S
H642 C655 0.930 . S
H643 C659 0.959 . S
H644 C659 0.959 . S
H645 C659 0.961 . S
H646 C660 0.960 . S
H647 C660 0.961 . S
H648 C660 0.959 . S
H649 C663 0.929 . S
H650 C664 0.931 . S
H651 C666 0.930 . S
C652 H640 0.930 . S
C652 C653 1.399 . S
C652 C657 1.399 . S
C653 C652 1.399 . S
C653 C654 1.376 . S
C654 H641 0.930 . S
C654 C653 1.376 . S
C654 C655 1.388 . S
C655 H642 0.930 . S
C655 C654 1.388 . S
C655 C656 1.390 . S
C656 C655 1.390 . S
C656 C657 1.394 . S
C656 C662 1.465 . S
C657 C652 1.399 . S
C657 C656 1.394 . S
C657 C658 1.516 . S
C658 C657 1.516 . S
C658 C659 1.502 . S
C658 C660 1.561 . S
C658 C661 1.526 . S
C659 H643 0.959 . S
C659 H644 0.959 . S
C659 H645 0.961 . S
C659 C658 1.502 . S
C660 H646 0.960 . S
C660 H647 0.961 . S
C660 H648 0.959 . S
C660 C658 1.561 . S
C661 C658 1.526 . S
C661 C662 1.396 . S
C661 C666 1.390 . S
C662 C656 1.465 . S
C662 C661 1.396 . S
C662 C663 1.399 . S
C663 H649 0.929 . S
C663 C662 1.399 . S
C663 C664 1.385 . S
C664 H650 0.931 . S
C664 C663 1.385 . S
C664 C665 1.389 . S
C665 C664 1.389 . S
C665 C666 1.387 . S
C666 H651 0.930 . S
C666 C661 1.390 . S
C666 C665 1.387 . S
H667 C679 0.930 . S
H668 C681 0.930 . S
H669 C682 0.930 . S
H670 C686 0.959 . S
H671 C686 0.959 . S
H672 C686 0.961 . S
H673 C687 0.960 . S
H674 C687 0.961 . S
H675 C687 0.959 . S
H676 C690 0.929 . S
H677 C691 0.931 . S
H678 C693 0.930 . S
C679 H667 0.930 . S
C679 C680 1.399 . S
C679 C684 1.399 . S
C680 C679 1.399 . S
C680 C681 1.376 . S
C681 H668 0.930 . S
C681 C680 1.376 . S
C681 C682 1.388 . S
C682 H669 0.930 . S
C682 C681 1.388 . S
C682 C683 1.390 . S
C683 C682 1.390 . S
C683 C684 1.394 . S
C683 C689 1.465 . S
C684 C679 1.399 . S
C684 C683 1.394 . S
C684 C685 1.516 . S
C685 C684 1.516 . S
C685 C686 1.502 . S
C685 C687 1.561 . S
C685 C688 1.526 . S
C686 H670 0.959 . S
C686 H671 0.959 . S
C686 H672 0.961 . S
C686 C685 1.502 . S
C687 H673 0.960 . S
C687 H674 0.961 . S
C687 H675 0.959 . S
C687 C685 1.561 . S
C688 C685 1.526 . S
C688 C689 1.396 . S
C688 C693 1.390 . S
C689 C683 1.465 . S
C689 C688 1.396 . S
C689 C690 1.399 . S
C690 H676 0.929 . S
C690 C689 1.399 . S
C690 C691 1.385 . S
C691 H677 0.931 . S
C691 C690 1.385 . S
C691 C692 1.389 . S
C692 C691 1.389 . S
C692 C693 1.387 . S
C693 H678 0.930 . S
C693 C688 1.390 . S
C693 C692 1.387 . S
H694 C706 0.930 . S
H695 C708 0.930 . S
H696 C709 0.930 . S
H697 C713 0.959 . S
H698 C713 0.959 . S
H699 C713 0.961 . S
H700 C714 0.960 . S
H701 C714 0.961 . S
H702 C714 0.959 . S
H703 C717 0.929 . S
H704 C718 0.931 . S
H705 C720 0.930 . S
C706 H694 0.930 . S
C706 C707 1.399 . S
C706 C711 1.399 . S
C707 C706 1.399 . S
C707 C708 1.376 . S
C708 H695 0.930 . S
C708 C707 1.376 . S
C708 C709 1.388 . S
C709 H696 0.930 . S
C709 C708 1.388 . S
C709 C710 1.390 . S
C710 C709 1.390 . S
C710 C711 1.394 . S
C710 C716 1.465 . S
C711 C706 1.399 . S
C711 C710 1.394 . S
C711 C712 1.516 . S
C712 C711 1.516 . S
C712 C713 1.502 . S
C712 C714 1.561 . S
C712 C715 1.526 . S
C713 H697 0.959 . S
C713 H698 0.959 . S
C713 H699 0.961 . S
C713 C712 1.502 . S
C714 H700 0.960 . S
C714 H701 0.961 . S
C714 H702 0.959 . S
C714 C712 1.561 . S
C715 C712 1.526 . S
C715 C716 1.396 . S
C715 C720 1.390 . S
C716 C710 1.465 . S
C716 C715 1.396 . S
C716 C717 1.399 . S
C717 H703 0.929 . S
C717 C716 1.399 . S
C717 C718 1.385 . S
C718 H704 0.931 . S
C718 C717 1.385 . S
C718 C719 1.389 . S
C719 C718 1.389 . S
C719 C720 1.387 . S
C720 H705 0.930 . S
C720 C715 1.390 . S
C720 C719 1.387 . S
H721 C733 0.930 . S
H722 C735 0.930 . S
H723 C736 0.930 . S
H724 C740 0.959 . S
H725 C740 0.959 . S
H726 C740 0.961 . S
H727 C741 0.960 . S
H728 C741 0.961 . S
H729 C741 0.959 . S
H730 C744 0.929 . S
H731 C745 0.931 . S
H732 C747 0.930 . S
C733 H721 0.930 . S
C733 C734 1.399 . S
C733 C738 1.399 . S
C734 C733 1.399 . S
C734 C735 1.376 . S
C735 H722 0.930 . S
C735 C734 1.376 . S
C735 C736 1.388 . S
C736 H723 0.930 . S
C736 C735 1.388 . S
C736 C737 1.390 . S
C737 C736 1.390 . S
C737 C738 1.394 . S
C737 C743 1.465 . S
C738 C733 1.399 . S
C738 C737 1.394 . S
C738 C739 1.516 . S
C739 C738 1.516 . S
C739 C740 1.502 . S
C739 C741 1.561 . S
C739 C742 1.526 . S
C740 H724 0.959 . S
C740 H725 0.959 . S
C740 H726 0.961 . S
C740 C739 1.502 . S
C741 H727 0.960 . S
C741 H728 0.961 . S
C741 H729 0.959 . S
C741 C739 1.561 . S
C742 C739 1.526 . S
C742 C743 1.396 . S
C742 C747 1.390 . S
C743 C737 1.465 . S
C743 C742 1.396 . S
C743 C744 1.399 . S
C744 H730 0.929 . S
C744 C743 1.399 . S
C744 C745 1.385 . S
C745 H731 0.931 . S
C745 C744 1.385 . S
C745 C746 1.389 . S
C746 C745 1.389 . S
C746 C747 1.387 . S
C747 H732 0.930 . S
C747 C742 1.390 . S
C747 C746 1.387 . S
H748 C760 0.930 . S
H749 C762 0.930 . S
H750 C763 0.930 . S
H751 C767 0.959 . S
H752 C767 0.959 . S
H753 C767 0.961 . S
H754 C768 0.960 . S
H755 C768 0.961 . S
H756 C768 0.959 . S
H757 C771 0.929 . S
H758 C772 0.931 . S
H759 C774 0.930 . S
C760 H748 0.930 . S
C760 C761 1.399 . S
C760 C765 1.399 . S
C761 C760 1.399 . S
C761 C762 1.376 . S
C762 H749 0.930 . S
C762 C761 1.376 . S
C762 C763 1.388 . S
C763 H750 0.930 . S
C763 C762 1.388 . S
C763 C764 1.390 . S
C764 C763 1.390 . S
C764 C765 1.394 . S
C764 C770 1.465 . S
C765 C760 1.399 . S
C765 C764 1.394 . S
C765 C766 1.516 . S
C766 C765 1.516 . S
C766 C767 1.502 . S
C766 C768 1.561 . S
C766 C769 1.526 . S
C767 H751 0.959 . S
C767 H752 0.959 . S
C767 H753 0.961 . S
C767 C766 1.502 . S
C768 H754 0.960 . S
C768 H755 0.961 . S
C768 H756 0.959 . S
C768 C766 1.561 . S
C769 C766 1.526 . S
C769 C770 1.396 . S
C769 C774 1.390 . S
C770 C764 1.465 . S
C770 C769 1.396 . S
C770 C771 1.399 . S
C771 H757 0.929 . S
C771 C770 1.399 . S
C771 C772 1.385 . S
C772 H758 0.931 . S
C772 C771 1.385 . S
C772 C773 1.389 . S
C773 C772 1.389 . S
C773 C774 1.387 . S
C774 H759 0.930 . S
C774 C769 1.390 . S
C774 C773 1.387 . S
H775 C787 0.930 . S
H776 C789 0.930 . S
H777 C790 0.930 . S
H778 C794 0.959 . S
H779 C794 0.959 . S
H780 C794 0.961 . S
H781 C795 0.960 . S
H782 C795 0.961 . S
H783 C795 0.959 . S
H784 C798 0.929 . S
H785 C799 0.931 . S
H786 C801 0.930 . S
C787 H775 0.930 . S
C787 C788 1.399 . S
C787 C792 1.399 . S
C788 C787 1.399 . S
C788 C789 1.376 . S
C789 H776 0.930 . S
C789 C788 1.376 . S
C789 C790 1.388 . S
C790 H777 0.930 . S
C790 C789 1.388 . S
C790 C791 1.390 . S
C791 C790 1.390 . S
C791 C792 1.394 . S
C791 C797 1.465 . S
C792 C787 1.399 . S
C792 C791 1.394 . S
C792 C793 1.516 . S
C793 C792 1.516 . S
C793 C794 1.502 . S
C793 C795 1.561 . S
C793 C796 1.526 . S
C794 H778 0.959 . S
C794 H779 0.959 . S
C794 H780 0.961 . S
C794 C793 1.502 . S
C795 H781 0.960 . S
C795 H782 0.961 . S
C795 H783 0.959 . S
C795 C793 1.561 . S
C796 C793 1.526 . S
C796 C797 1.396 . S
C796 C801 1.390 . S
C797 C791 1.465 . S
C797 C796 1.396 . S
C797 C798 1.399 . S
C798 H784 0.929 . S
C798 C797 1.399 . S
C798 C799 1.385 . S
C799 H785 0.931 . S
C799 C798 1.385 . S
C799 C800 1.389 . S
C800 C799 1.389 . S
C800 C801 1.387 . S
C801 H786 0.930 . S
C801 C796 1.390 . S
C801 C800 1.387 . S
H802 C814 0.930 . S
H803 C816 0.930 . S
H804 C817 0.930 . S
H805 C821 0.959 . S
H806 C821 0.959 . S
H807 C821 0.961 . S
H808 C822 0.960 . S
H809 C822 0.961 . S
H810 C822 0.959 . S
H811 C825 0.929 . S
H812 C826 0.931 . S
H813 C828 0.930 . S
C814 H802 0.930 . S
C814 C815 1.399 . S
C814 C819 1.399 . S
C815 C814 1.399 . S
C815 C816 1.376 . S
C816 H803 0.930 . S
C816 C815 1.376 . S
C816 C817 1.388 . S
C817 H804 0.930 . S
C817 C816 1.388 . S
C817 C818 1.390 . S
C818 C817 1.390 . S
C818 C819 1.394 . S
C818 C824 1.465 . S
C819 C814 1.399 . S
C819 C818 1.394 . S
C819 C820 1.516 . S
C820 C819 1.516 . S
C820 C821 1.502 . S
C820 C822 1.561 . S
C820 C823 1.526 . S
C821 H805 0.959 . S
C821 H806 0.959 . S
C821 H807 0.961 . S
C821 C820 1.502 . S
C822 H808 0.960 . S
C822 H809 0.961 . S
C822 H810 0.959 . S
C822 C820 1.561 . S
C823 C820 1.526 . S
C823 C824 1.396 . S
C823 C828 1.390 . S
C824 C818 1.465 . S
C824 C823 1.396 . S
C824 C825 1.399 . S
C825 H811 0.929 . S
C825 C824 1.399 . S
C825 C826 1.385 . S
C826 H812 0.931 . S
C826 C825 1.385 . S
C826 C827 1.389 . S
C827 C826 1.389 . S
C827 C828 1.387 . S
C828 H813 0.930 . S
C828 C823 1.390 . S
C828 C827 1.387 . S
H829 C841 0.930 . S
H830 C843 0.930 . S
H831 C844 0.930 . S
H832 C848 0.959 . S
H833 C848 0.959 . S
H834 C848 0.961 . S
H835 C849 0.960 . S
H836 C849 0.961 . S
H837 C849 0.959 . S
H838 C852 0.929 . S
H839 C853 0.931 . S
H840 C855 0.930 . S
C841 H829 0.930 . S
C841 C842 1.399 . S
C841 C846 1.399 . S
C842 C841 1.399 . S
C842 C843 1.376 . S
C843 H830 0.930 . S
C843 C842 1.376 . S
C843 C844 1.388 . S
C844 H831 0.930 . S
C844 C843 1.388 . S
C844 C845 1.390 . S
C845 C844 1.390 . S
C845 C846 1.394 . S
C845 C851 1.465 . S
C846 C841 1.399 . S
C846 C845 1.394 . S
C846 C847 1.516 . S
C847 C846 1.516 . S
C847 C848 1.502 . S
C847 C849 1.561 . S
C847 C850 1.526 . S
C848 H832 0.959 . S
C848 H833 0.959 . S
C848 H834 0.961 . S
C848 C847 1.502 . S
C849 H835 0.960 . S
C849 H836 0.961 . S
C849 H837 0.959 . S
C849 C847 1.561 . S
C850 C847 1.526 . S
C850 C851 1.396 . S
C850 C855 1.390 . S
C851 C845 1.465 . S
C851 C850 1.396 . S
C851 C852 1.399 . S
C852 H838 0.929 . S
C852 C851 1.399 . S
C852 C853 1.385 . S
C853 H839 0.931 . S
C853 C852 1.385 . S
C853 C854 1.389 . S
C854 C853 1.389 . S
C854 C855 1.387 . S
C855 H840 0.930 . S
C855 C850 1.390 . S
C855 C854 1.387 . S
H856 C868 0.930 . S
H857 C870 0.930 . S
H858 C871 0.930 . S
H859 C875 0.959 . S
H860 C875 0.959 . S
H861 C875 0.961 . S
H862 C876 0.960 . S
H863 C876 0.961 . S
H864 C876 0.959 . S
H865 C879 0.929 . S
H866 C880 0.931 . S
H867 C882 0.930 . S
C868 H856 0.930 . S
C868 C869 1.399 . S
C868 C873 1.399 . S
C869 C868 1.399 . S
C869 C870 1.376 . S
C870 H857 0.930 . S
C870 C869 1.376 . S
C870 C871 1.388 . S
C871 H858 0.930 . S
C871 C870 1.388 . S
C871 C872 1.390 . S
C872 C871 1.390 . S
C872 C873 1.394 . S
C872 C878 1.465 1_545 S
C873 C868 1.399 . S
C873 C872 1.394 . S
C873 C874 1.516 1_545 S
C874 C873 1.516 1_565 S
C874 C875 1.502 . S
C874 C876 1.561 . S
C874 C877 1.526 . S
C875 H859 0.959 . S
C875 H860 0.959 . S
C875 H861 0.961 . S
C875 C874 1.502 . S
C876 H862 0.960 . S
C876 H863 0.961 . S
C876 H864 0.959 . S
C876 C874 1.561 . S
C877 C874 1.526 . S
C877 C878 1.396 . S
C877 C882 1.390 . S
C878 C872 1.465 1_565 S
C878 C877 1.396 . S
C878 C879 1.399 . S
C879 H865 0.929 . S
C879 C878 1.399 . S
C879 C880 1.385 . S
C880 H866 0.931 . S
C880 C879 1.385 . S
C880 C881 1.389 . S
C881 C880 1.389 . S
C881 C882 1.387 . S
C882 H867 0.930 . S
C882 C877 1.390 . S
C882 C881 1.387 . S
H883 C895 0.930 . S
H884 C897 0.930 . S
H885 C898 0.930 . S
H886 C902 0.959 . S
H887 C902 0.959 1_455 S
H888 C902 0.961 . S
H889 C903 0.949 1_655 S
H890 C903 0.961 . S
H891 C903 0.959 . S
H892 C906 0.929 . S
H893 C907 0.931 . S
H894 C909 0.930 . S
C895 H883 0.930 . S
C895 C896 1.399 . S
C895 C900 1.399 . S
C896 C895 1.399 . S
C896 C897 1.376 . S
C897 H884 0.930 . S
C897 C896 1.376 . S
C897 C898 1.388 . S
C898 H885 0.930 . S
C898 C897 1.388 . S
C898 C899 1.390 . S
C899 C898 1.390 . S
C899 C900 1.394 . S
C899 C905 1.465 1_655 S
C900 C895 1.399 . S
C900 C899 1.394 . S
C900 C901 1.516 1_655 S
C901 C900 1.516 1_455 S
C901 C902 1.502 1_455 S
C901 C903 1.561 . S
C901 C904 1.526 . S
C902 H886 0.959 . S
C902 H887 0.959 1_655 S
C902 H888 0.961 . S
C902 C901 1.502 1_655 S
C903 H889 0.949 1_455 S
C903 H890 0.961 . S
C903 H891 0.959 . S
C903 C901 1.561 . S
C904 C901 1.526 . S
C904 C905 1.396 . S
C904 C909 1.390 . S
C905 C899 1.465 1_455 S
C905 C904 1.396 . S
C905 C906 1.399 . S
C906 H892 0.929 . S
C906 C905 1.399 . S
C906 C907 1.385 . S
C907 H893 0.931 . S
C907 C906 1.385 . S
C907 C908 1.389 . S
C908 C907 1.389 . S
C908 C909 1.387 . S
C909 H894 0.930 . S
C909 C904 1.390 . S
C909 C908 1.387 . S
H910 C922 0.930 . S
H911 C924 0.930 . S
H912 C925 0.930 . S
H913 C929 0.959 . S
H914 C929 0.959 1_565 S
H915 C929 0.961 . S
H916 C930 0.960 1_545 S
H917 C930 0.961 . S
H918 C930 0.959 . S
H919 C933 0.929 . S
H920 C934 0.931 . S
H921 C936 0.930 . S
C922 H910 0.930 . S
C922 C923 1.399 . S
C922 C927 1.399 . S
C923 C922 1.399 . S
C923 C924 1.376 . S
C924 H911 0.930 . S
C924 C923 1.376 . S
C924 C925 1.388 . S
C925 H912 0.930 . S
C925 C924 1.388 . S
C925 C926 1.390 . S
C926 C925 1.390 . S
C926 C927 1.394 . S
C926 C932 1.465 1_545 S
C927 C922 1.399 . S
C927 C926 1.394 . S
C927 C928 1.515 1_545 S
C928 C927 1.515 1_565 S
C928 C929 1.501 1_565 S
C928 C930 1.562 . S
C928 C931 1.527 . S
C929 H913 0.959 . S
C929 H914 0.959 1_545 S
C929 H915 0.961 . S
C929 C928 1.501 1_545 S
C930 H916 0.960 1_565 S
C930 H917 0.961 . S
C930 H918 0.959 . S
C930 C928 1.562 . S
C931 C928 1.527 . S
C931 C932 1.396 . S
C931 C936 1.390 . S
C932 C926 1.465 1_565 S
C932 C931 1.396 . S
C932 C933 1.399 . S
C933 H919 0.929 . S
C933 C932 1.399 . S
C933 C934 1.385 . S
C934 H920 0.931 . S
C934 C933 1.385 . S
C934 C935 1.389 . S
C935 C934 1.389 . S
C935 C936 1.387 . S
C936 H921 0.930 . S
C936 C931 1.390 . S
C936 C935 1.387 . S
H937 C949 0.930 . S
H938 C951 0.930 . S
H939 C952 0.930 . S
H940 C956 0.959 . S
H941 C956 0.959 1_655 S
H942 C956 0.961 . S
H943 C957 0.960 1_455 S
H944 C957 0.961 . S
H945 C957 0.959 . S
H946 C960 0.929 . S
H947 C961 0.931 . S
H948 C963 0.930 . S
C949 H937 0.930 . S
C949 C950 1.399 . S
C949 C954 1.399 . S
C950 C949 1.399 . S
C950 C951 1.376 . S
C951 H938 0.930 . S
C951 C950 1.376 . S
C951 C952 1.388 . S
C952 H939 0.930 . S
C952 C951 1.388 . S
C952 C953 1.390 . S
C953 C952 1.390 . S
C953 C954 1.394 . S
C953 C959 1.465 1_455 S
C954 C949 1.399 . S
C954 C953 1.394 . S
C954 C955 1.516 . S
C955 C954 1.516 . S
C955 C956 1.502 . S
C955 C957 1.561 1_455 S
C955 C958 1.526 1_455 S
C956 H940 0.959 . S
C956 H941 0.959 1_455 S
C956 H942 0.961 . S
C956 C955 1.502 . S
C957 H943 0.960 1_655 S
C957 H944 0.961 . S
C957 H945 0.959 . S
C957 C955 1.561 1_655 S
C958 C955 1.526 1_655 S
C958 C959 1.396 . S
C958 C963 1.390 . S
C959 C953 1.465 1_655 S
C959 C958 1.396 . S
C959 C960 1.399 . S
C960 H946 0.929 . S
C960 C959 1.399 . S
C960 C961 1.385 . S
C961 H947 0.931 . S
C961 C960 1.385 . S
C961 C962 1.389 . S
C962 C961 1.389 . S
C962 C963 1.387 . S
C963 H948 0.930 . S
C963 C958 1.390 . S
C963 C962 1.387 . S
H964 C976 0.930 . S
H965 C978 0.930 . S
H966 C979 0.930 . S
H967 C983 0.959 . S
H968 C983 0.959 1_565 S
H969 C983 0.961 . S
H970 C984 0.960 . S
H971 C984 0.961 1_565 S
H972 C984 0.959 . S
H973 C987 0.929 . S
H974 C988 0.931 . S
H975 C990 0.930 . S
C976 H964 0.930 . S
C976 C977 1.399 . S
C976 C981 1.399 . S
C977 C976 1.399 . S
C977 C978 1.376 . S
C978 H965 0.930 . S
C978 C977 1.376 . S
C978 C979 1.388 . S
C979 H966 0.930 . S
C979 C978 1.388 . S
C979 C980 1.390 . S
C980 C979 1.390 . S
C980 C981 1.394 . S
C980 C986 1.465 1_545 S
C981 C976 1.399 . S
C981 C980 1.394 . S
C981 C982 1.516 . S
C982 C981 1.516 . S
C982 C983 1.502 . S
C982 C984 1.561 . S
C982 C985 1.526 1_545 S
C983 H967 0.959 . S
C983 H968 0.959 1_545 S
C983 H969 0.961 . S
C983 C982 1.502 . S
C984 H970 0.960 . S
C984 H971 0.961 1_545 S
C984 H972 0.959 . S
C984 C982 1.561 . S
C985 C982 1.526 1_565 S
C985 C986 1.396 . S
C985 C990 1.390 . S
C986 C980 1.465 1_565 S
C986 C985 1.396 . S
C986 C987 1.399 . S
C987 H973 0.929 . S
C987 C986 1.399 . S
C987 C988 1.385 . S
C988 H974 0.931 . S
C988 C987 1.385 . S
C988 C989 1.389 . S
C989 C988 1.389 . S
C989 C990 1.387 . S
C990 H975 0.930 . S
C990 C985 1.390 . S
C990 C989 1.387 . S
H991 C1003 0.930 . S
H992 C1005 0.930 . S
H993 C1006 0.930 . S
H994 C1010 0.959 . S
H995 C1010 0.959 1_455 S
H996 C1010 0.961 . S
H997 C1011 0.960 1_655 S
H998 C1011 0.961 . S
H999 C1011 0.959 . S
H1000 C1014 0.929 . S
H1001 C1015 0.931 . S
H1002 C1017 0.930 . S
C1003 H991 0.930 . S
C1003 C1004 1.399 . S
C1003 C1008 1.399 . S
C1004 C1003 1.399 . S
C1004 C1005 1.376 . S
C1005 H992 0.930 . S
C1005 C1004 1.376 . S
C1005 C1006 1.388 . S
C1006 H993 0.930 . S
C1006 C1005 1.388 . S
C1006 C1007 1.390 . S
C1007 C1006 1.390 . S
C1007 C1008 1.394 . S
C1007 C1013 1.465 1_655 S
C1008 C1003 1.399 . S
C1008 C1007 1.394 . S
C1008 C1009 1.516 . S
C1009 C1008 1.516 . S
C1009 C1010 1.502 . S
C1009 C1011 1.561 1_655 S
C1009 C1012 1.526 1_655 S
C1010 H994 0.959 . S
C1010 H995 0.959 1_655 S
C1010 H996 0.961 . S
C1010 C1009 1.502 . S
C1011 H997 0.960 1_455 S
C1011 H998 0.961 . S
C1011 H999 0.959 . S
C1011 C1009 1.561 1_455 S
C1012 C1009 1.526 1_455 S
C1012 C1013 1.396 . S
C1012 C1017 1.390 . S
C1013 C1007 1.465 1_455 S
C1013 C1012 1.396 . S
C1013 C1014 1.399 . S
C1014 H1000 0.929 . S
C1014 C1013 1.399 . S
C1014 C1015 1.385 . S
C1015 H1001 0.931 . S
C1015 C1014 1.385 . S
C1015 C1016 1.389 . S
C1016 C1015 1.389 . S
C1016 C1017 1.387 . S
C1017 H1002 0.930 . S
C1017 C1012 1.390 . S
C1017 C1016 1.387 . S
H1018 C1030 0.930 . S
H1019 C1032 0.930 . S
H1020 C1033 0.930 . S
H1021 C1037 0.959 . S
H1022 C1037 0.959 . S
H1023 C1037 0.961 1_565 S
H1024 C1038 0.960 1_565 S
H1025 C1038 0.961 . S
H1026 C1038 0.959 . S
H1027 C1041 0.929 . S
H1028 C1042 0.931 . S
H1029 C1044 0.930 . S
C1030 H1018 0.930 . S
C1030 C1031 1.399 . S
C1030 C1035 1.399 . S
C1031 C1030 1.399 . S
C1031 C1032 1.376 . S
C1032 H1019 0.930 . S
C1032 C1031 1.376 . S
C1032 C1033 1.388 . S
C1033 H1020 0.930 . S
C1033 C1032 1.388 . S
C1033 C1034 1.390 . S
C1034 C1033 1.390 . S
C1034 C1035 1.394 . S
C1034 C1040 1.465 1_565 S
C1035 C1030 1.399 . S
C1035 C1034 1.394 . S
C1035 C1036 1.516 1_565 S
C1036 C1035 1.516 1_545 S
C1036 C1037 1.502 . S
C1036 C1038 1.561 . S
C1036 C1039 1.526 . S
C1037 H1021 0.959 . S
C1037 H1022 0.959 . S
C1037 H1023 0.961 1_545 S
C1037 C1036 1.502 . S
C1038 H1024 0.960 1_545 S
C1038 H1025 0.961 . S
C1038 H1026 0.959 . S
C1038 C1036 1.561 . S
C1039 C1036 1.526 . S
C1039 C1040 1.396 . S
C1039 C1044 1.390 . S
C1040 C1034 1.465 1_545 S
C1040 C1039 1.396 . S
C1040 C1041 1.399 . S
C1041 H1027 0.929 . S
C1041 C1040 1.399 . S
C1041 C1042 1.385 . S
C1042 H1028 0.931 . S
C1042 C1041 1.385 . S
C1042 C1043 1.389 . S
C1043 C1042 1.389 . S
C1043 C1044 1.387 . S
C1044 H1029 0.930 . S
C1044 C1039 1.390 . S
C1044 C1043 1.387 . S
H1045 C1057 0.930 . S
H1046 C1059 0.930 . S
H1047 C1060 0.930 . S
H1048 C1064 0.959 . S
H1049 C1064 0.959 1_655 S
H1050 C1064 0.961 . S
H1051 C1065 0.960 . S
H1052 C1065 0.961 1_655 S
H1053 C1065 0.959 . S
H1054 C1068 0.929 . S
H1055 C1069 0.931 . S
H1056 C1071 0.930 . S
C1057 H1045 0.930 . S
C1057 C1058 1.399 . S
C1057 C1062 1.399 . S
C1058 C1057 1.399 . S
C1058 C1059 1.376 . S
C1059 H1046 0.930 . S
C1059 C1058 1.376 . S
C1059 C1060 1.388 . S
C1060 H1047 0.930 . S
C1060 C1059 1.388 . S
C1060 C1061 1.390 . S
C1061 C1060 1.390 . S
C1061 C1062 1.394 . S
C1061 C1067 1.465 1_455 S
C1062 C1057 1.399 . S
C1062 C1061 1.394 . S
C1062 C1063 1.516 . S
C1063 C1062 1.516 . S
C1063 C1064 1.502 . S
C1063 C1065 1.561 . S
C1063 C1066 1.526 1_455 S
C1064 H1048 0.959 . S
C1064 H1049 0.959 1_455 S
C1064 H1050 0.961 . S
C1064 C1063 1.502 . S
C1065 H1051 0.960 . S
C1065 H1052 0.961 1_455 S
C1065 H1053 0.959 . S
C1065 C1063 1.561 . S
C1066 C1063 1.526 1_655 S
C1066 C1067 1.396 . S
C1066 C1071 1.390 . S
C1067 C1061 1.465 1_655 S
C1067 C1066 1.396 . S
C1067 C1068 1.399 . S
C1068 H1054 0.929 . S
C1068 C1067 1.399 . S
C1068 C1069 1.385 . S
C1069 H1055 0.931 . S
C1069 C1068 1.385 . S
C1069 C1070 1.389 . S
C1070 C1069 1.389 . S
C1070 C1071 1.387 . S
C1071 H1056 0.930 . S
C1071 C1066 1.390 . S
C1071 C1070 1.387 . S
C221 C69 1.574 . S
C233 C10 1.587 . S
C248 C82 1.603 . S
C260 C17 1.583 . S
C275 C30 1.594 . S
C287 C95 1.571 . S
C302 C43 1.571 . S
C314 C56 1.594 . S
C329 C179 1.588 . S
C341 C108 1.601 . S
C356 C186 1.604 . S
C368 C127 1.577 . S
C383 C134 1.603 . S
C395 C199 1.586 . S
C410 C153 1.589 . S
C422 C160 1.573 . S
C437 C140 1.610 . S
C449 C4 1.628 . S
C464 C147 1.607 . S
C476 C23 1.607 . S
C491 C114 1.630 . S
C503 C36 1.614 . S
C518 C49 1.605 . S
C530 C121 1.618 . S
C545 C192 1.608 . S
C557 C62 1.625 . S
C572 C205 1.633 . S
C584 C75 1.635 . S
C599 C88 1.606 . S
C611 C166 1.608 . S
C626 C173 1.608 . S
C638 C101 1.607 . S
C653 C57 1.908 . S
C665 C3 1.915 . S
C680 C18 1.908 . S
C692 C70 1.915 . S
C707 C31 1.911 . S
C719 C83 1.912 . S
C734 C96 1.908 . S
C746 C44 1.915 . S
C761 C107 1.098 . S
C773 C159 1.147 . S
C788 C174 1.133 . S
C800 C122 1.106 . S
C815 C133 1.158 . S
C827 C185 1.111 . S
C842 C198 1.110 . S
C854 C148 1.157 . S
C869 C146 1.908 . S
C881 C172 1.915 . S
C896 C109 1.912 . S
C908 C187 1.911 . S
C923 C200 1.913 . S
C935 C120 1.910 . S
C950 C135 1.914 . S
C962 C161 1.909 . S
C977 C68 1.099 . S
C989 C42 1.145 . S
C1004 C81 1.116 . S
C1016 C5 1.154 . S
C1031 C94 1.147 . S
C1043 C16 1.128 . S
C1058 C55 1.097 . S
C1070 C29 1.148 . S
