# Generated by pormake.
# Topology rkf, (6)-cn, num edge types: 1
# Building blocks:
#     Node 0, Type 0, BuildingBlock: HISSIN_clean_sbu_0, # of connection points: 6
#     Node 1, Type 0, BuildingBlock: HISSIN_clean_sbu_0, # of connection points: 6
#     Node 2, Type 0, BuildingBlock: HISSIN_clean_sbu_0, # of connection points: 6
#     Node 3, Type 0, BuildingBlock: HISSIN_clean_sbu_0, # of connection points: 6
#     Node 4, Type 0, BuildingBlock: HISSIN_clean_sbu_0, # of connection points: 6
#     Node 5, Type 0, BuildingBlock: HISSIN_clean_sbu_0, # of connection points: 6
#     Edge 6, Type (0, 0), BuildingBlock: CIFDUS_clean_linker_0, # of connection points: 2
#     Edge 7, Type (0, 0), BuildingBlock: CIFDUS_clean_linker_0, # of connection points: 2
#     Edge 8, Type (0, 0), BuildingBlock: CIFDUS_clean_linker_0, # of connection points: 2
#     Edge 9, Type (0, 0), BuildingBlock: CIFDUS_clean_linker_0, # of connection points: 2
#     Edge 10, Type (0, 0), BuildingBlock: CIFDUS_clean_linker_0, # of connection points: 2
#     Edge 11, Type (0, 0), BuildingBlock: CIFDUS_clean_linker_0, # of connection points: 2
#     Edge 12, Type (0, 0), BuildingBlock: CIFDUS_clean_linker_0, # of connection points: 2
#     Edge 13, Type (0, 0), BuildingBlock: CIFDUS_clean_linker_0, # of connection points: 2
#     Edge 14, Type (0, 0), BuildingBlock: CIFDUS_clean_linker_0, # of connection points: 2
#     Edge 15, Type (0, 0), BuildingBlock: CIFDUS_clean_linker_0, # of connection points: 2
#     Edge 16, Type (0, 0), BuildingBlock: CIFDUS_clean_linker_0, # of connection points: 2
#     Edge 17, Type (0, 0), BuildingBlock: CIFDUS_clean_linker_0, # of connection points: 2
#     Edge 18, Type (0, 0), BuildingBlock: CIFDUS_clean_linker_0, # of connection points: 2
#     Edge 19, Type (0, 0), BuildingBlock: CIFDUS_clean_linker_0, # of connection points: 2
#     Edge 20, Type (0, 0), BuildingBlock: CIFDUS_clean_linker_0, # of connection points: 2
#     Edge 21, Type (0, 0), BuildingBlock: CIFDUS_clean_linker_0, # of connection points: 2
#     Edge 22, Type (0, 0), BuildingBlock: CIFDUS_clean_linker_0, # of connection points: 2
#     Edge 23, Type (0, 0), BuildingBlock: CIFDUS_clean_linker_0, # of connection points: 2
# Relax obj value: 0.824
# Max RMSD: 0.256
# Mean RMSD: 0.256
data_MOF--net-rkf--node1-HISSIN_clean_sbu_0--edge1-CIFDUS_clean_linker_0
_symmetry_space_group_name_H-M    P1
_symmetry_Int_Tables_number       1
_symmetry_cell_setting            triclinic
loop_
_symmetry_equiv_pos_as_xyz
'x, y, z'
_cell_length_a     22.882495
_cell_length_b     23.405424
_cell_length_c     37.372195
_cell_angle_alpha  90.386296
_cell_angle_beta   89.272398
_cell_angle_gamma 119.61392
loop_
_atom_site_label
_atom_site_type_symbol
_atom_site_fract_x
_atom_site_fract_y
_atom_site_fract_z
_atom_type_partial_charge
Eu0 Eu 0.32714 0.11113 0.23887 0.0
Eu1 Eu 0.39955 0.26644 0.21372 0.0
C2 C 0.4841 0.19481 0.22979 0.0
C3 C 0.25728 0.92324 0.25124 0.0
C4 C 0.31113 0.91046 0.25184 0.0
C5 C 0.17915 0.80671 0.25584 0.0
C6 C 0.29864 0.84627 0.25734 0.0
C7 C 0.19157 0.87046 0.24994 0.0
C8 C 0.2325 0.79517 0.26404 0.0
C9 C 0.26656 -0.01118 0.25924 0.0
O10 O 0.37914 0.20869 1.1602 0.0
O11 O 0.3114 0.10159 1.17925 0.0
C12 C 0.33837 0.14512 1.15339 0.0
O13 O 0.25826 0.15321 0.24187 0.0
O14 O 0.4834 0.35022 1.18755 0.0
O15 O 0.40877 0.36335 0.2176 0.0
O16 O 0.29401 0.22037 1.194 0.0
C17 C 0.2447 0.17462 0.21265 0.0
O18 O 0.35541 0.16795 0.29107 0.0
O19 O 0.36667 0.26597 0.2722 0.0
O20 O 0.47955 0.24762 0.23554 0.0
O21 O 0.32459 0.03347 0.27159 0.0
O22 O 0.23974 0.0126 0.23762 0.0
O23 O 0.43153 0.13853 0.22188 0.0
C24 C 0.46542 0.43753 1.17091 0.0
C25 C 0.44343 0.41734 1.13591 0.0
C26 C 0.48591 0.54699 1.15712 0.0
C27 C 0.44232 0.46182 1.11165 0.0
C28 C 0.48746 0.50262 1.18127 0.0
C29 C 0.4626 0.52674 1.12223 0.0
C30 C 0.46294 0.39109 1.1976 0.0
C31 C 0.35923 0.22489 0.29823 0.0
H32 H 0.36263 0.95038 0.25157 0.0
H33 H 0.12718 0.769 0.25932 0.0
H34 H 0.34109 0.83865 0.26133 0.0
H35 H 0.14927 0.8791 0.24851 0.0
H36 H 0.42575 0.36701 1.12763 0.0
H37 H 0.5019 0.59675 1.16586 0.0
H38 H 0.42307 0.44471 1.08505 0.0
H39 H 0.50451 0.51872 0.2083 0.0
Eu40 Eu 0.29301 0.30265 0.58005 0.0
Eu41 Eu 0.30803 0.44358 0.55798 0.0
C42 C 0.43281 0.43279 0.58371 0.0
C43 C 0.33136 0.17097 0.61382 0.0
C44 C 0.34884 0.13041 0.59393 0.0
C45 C 0.39398 0.16454 0.66405 0.0
C46 C 0.3876 0.10604 0.60924 0.0
C47 C 0.35584 0.18923 0.64869 0.0
C48 C 0.40898 0.12127 0.64488 0.0
C49 C 0.28569 0.19169 0.59847 0.0
O50 O 0.33913 0.4105 0.50702 0.0
O51 O 0.29107 0.30003 0.51894 0.0
C52 C 0.32032 0.34987 0.4964 0.0
O53 O 0.18993 0.28741 0.57142 0.0
O54 O 0.37293 0.54495 0.54091 0.0
O55 O 0.27013 0.5127 0.55714 0.0
O56 O 0.21489 0.36751 0.52963 0.0
C57 C 0.17209 0.31185 0.54503 0.0
O58 O 0.28479 0.34935 0.63266 0.0
O59 O 0.2431 0.41066 0.60823 0.0
O60 O 0.39759 0.46167 0.59119 0.0
O61 O 0.26674 0.22476 0.6191 0.0
O62 O 0.29941 0.21502 0.5661 0.0
O63 O 0.40263 0.37192 0.57303 0.0
C64 C 0.31426 0.58896 0.51035 0.0
C65 C 0.33296 0.57662 0.47657 0.0
C66 C 0.25239 0.63546 0.4819 0.0
C67 C 0.30907 0.59081 0.44578 0.0
C68 C 0.27671 0.62147 0.51283 0.0
C69 C 0.26533 0.6169 0.44816 0.0
C70 C 0.32476 0.55954 0.54249 0.0
C71 C 0.24942 0.37974 0.63584 0.0
H72 H 0.33094 0.11605 0.56686 0.0
H73 H 0.40815 0.17646 0.69178 0.0
H74 H 0.39873 0.0734 0.59359 0.0
H75 H 0.34364 0.22074 0.66469 0.0
H76 H 0.36178 0.55144 0.47387 0.0
H77 H 0.21929 0.656 0.48453 0.0
H78 H 0.31953 0.57493 0.4204 0.0
H79 H 0.26212 0.63169 0.53875 0.0
Eu80 Eu 0.08618 0.41111 0.91251 0.0
Eu81 Eu -0.04849 0.28681 0.88538 0.0
C82 C -0.04352 0.41717 0.90706 0.0
C83 C 0.20723 0.58212 0.95194 0.0
C84 C 0.26534 0.64173 0.94417 0.0
C85 C 0.22039 0.60927 1.01484 0.0
C86 C 0.30394 0.68231 0.97202 0.0
C87 C 0.18171 0.56883 0.98698 0.0
C88 C 0.28522 0.66215 1.00767 0.0
C89 C 0.18357 0.52948 0.92539 0.0
O90 O 0.01458 0.30476 0.83509 0.0
O91 O 0.09844 0.40736 0.85163 0.0
C92 C 0.07092 0.3593 0.82794 0.0
O93 O 0.12466 0.34222 0.90345 0.0
O94 O 0.86223 0.24313 0.85175 0.0
O95 O 0.86614 0.1922 0.89933 0.0
O96 O 0.02751 0.25116 0.88333 0.0
C97 C 0.09218 0.28198 0.89127 0.0
O98 O 0.05466 0.34925 0.96327 0.0
O99 O -0.0543 0.28037 0.94647 0.0
O100 O -0.05499 0.37969 0.87912 0.0
O101 O 0.1837 0.47603 0.93532 0.0
O102 O 0.13045 0.5175 0.9071 0.0
O103 O -0.00497 0.41466 0.93137 0.0
C104 C 0.78602 0.12707 0.85535 0.0
C105 C 0.76925 0.06803 0.87318 0.0
C106 C 0.70355 0.06488 0.81011 0.0
C107 C 0.72 0.0079 0.85948 0.0
C108 C 0.75258 0.12484 0.82378 0.0
C109 C 0.68637 0.00583 0.82794 0.0
C110 C 0.83077 0.19104 0.87199 0.0
C111 C -0.00688 0.3016 0.97081 0.0
H112 H 0.28497 0.6531 0.91704 0.0
H113 H 0.20411 0.59279 1.04203 0.0
H114 H 0.35319 0.72345 0.96582 0.0
H115 H 0.13616 0.52335 0.99323 0.0
H116 H 0.79313 0.06823 0.89806 0.0
H117 H 0.67975 0.06481 0.78523 0.0
H118 H 0.70772 -0.03688 0.87368 0.0
H119 H 0.76352 0.16956 0.80987 0.0
Eu120 Eu 0.90425 0.1105 0.23514 0.0
Eu121 Eu 0.7633 -0.01735 0.21614 0.0
C122 C 0.76709 0.10327 0.25403 0.0
C123 C 0.03996 0.28383 0.2619 0.0
C124 C 0.07449 0.33923 0.23979 0.0
C125 C 0.05217 0.35542 0.31177 0.0
C126 C 0.09834 0.40241 0.25364 0.0
C127 C 0.02793 0.29242 0.29786 0.0
C128 C 0.08853 0.4113 0.28998 0.0
C129 C 0.01772 0.21797 0.24698 0.0
O130 O 0.79077 0.05528 1.16861 0.0
O131 O 0.90418 0.10667 1.17524 0.0
C132 C 0.85223 0.09401 1.15569 0.0
O133 O 0.92164 0.02515 0.22439 0.0
O134 O 0.65756 0.94596 1.20478 0.0
O135 O 0.69515 0.87745 0.20965 0.0
O136 O 0.83786 -0.03202 1.18427 0.0
C137 C 0.89565 -0.01739 1.19801 0.0
O138 O 0.86508 0.06057 0.28872 0.0
O139 O 0.79923 0.95583 0.26752 0.0
O140 O 0.74655 0.04099 0.25847 0.0
O141 O -0.00835 0.1679 0.26882 0.0
O142 O -0.01476 0.20516 0.21704 0.0
O143 O 0.82429 0.14026 0.2375 0.0
C144 C 0.61207 0.85319 1.16667 0.0
C145 C 0.58281 0.78483 1.16348 0.0
C146 C 0.59763 0.86066 1.10303 0.0
C147 C 0.56404 0.7549 1.12995 0.0
C148 C 0.61697 0.89059 1.13643 0.0
C149 C 0.57374 0.79283 1.09909 0.0
C150 C 0.64484 0.88547 1.20027 0.0
C151 C 0.83275 -0.00345 0.29391 0.0
H152 H 0.08401 0.33366 0.21186 0.0
H153 H 0.04503 0.36013 0.34011 0.0
H154 H 0.12584 0.44426 0.23612 0.0
H155 H 0.00124 0.25066 0.31554 0.0
H156 H 0.57851 0.75511 1.18654 0.0
H157 H 0.6072 0.89193 1.07996 0.0
H158 H 0.54634 0.70283 1.12796 0.0
H159 H 0.63968 0.94356 1.13807 0.0
Eu160 Eu 0.80226 0.81516 0.56436 0.0
Eu161 Eu -0.05552 0.82496 0.54809 0.0
C162 C 0.81117 0.69528 0.55107 0.0
C163 C 0.6358 0.76677 0.61124 0.0
C164 C 0.62053 0.71244 0.63324 0.0
C165 C 0.59089 0.80865 0.65685 0.0
C166 C 0.59421 0.70836 0.66762 0.0
C167 C 0.61691 0.81253 0.62252 0.0
C168 C 0.58288 0.75857 0.68053 0.0
C169 C 0.67666 0.77949 0.57836 0.0
O170 O 0.90137 0.82264 0.49233 0.0
O171 O 0.82674 0.85775 0.50829 0.0
C172 C 0.86282 0.84807 0.4837 0.0
O173 O 0.8717 0.92157 0.57402 0.0
O174 O -0.00811 0.76437 0.54656 0.0
O175 O 0.05099 0.8676 0.53353 0.0
O176 O -0.03586 0.92961 0.54378 0.0
C177 C 0.93035 -0.04367 0.55822 0.0
O178 O 0.84269 0.8068 0.61944 0.0
O179 O -0.04462 0.85376 0.60633 0.0
O180 O 0.86537 0.7261 0.56988 0.0
O181 O 0.72289 0.84042 0.5724 0.0
O182 O 0.69837 0.73848 0.57153 0.0
O183 O 0.79822 0.73318 0.53183 0.0
C184 C 0.08066 0.79362 0.50637 0.0
C185 C 0.13391 0.78215 0.51356 0.0
C186 C 0.08174 0.76259 0.44456 0.0
C187 C 0.16155 0.76155 0.48627 0.0
C188 C 0.05419 0.78314 0.47187 0.0
C189 C 0.136 0.75188 0.4514 0.0
C190 C 0.04995 0.81149 0.53573 0.0
C191 C 0.906 0.8321 0.62995 0.0
H192 H 0.63265 0.67517 0.62487 0.0
H193 H 0.58322 0.84861 0.66574 0.0
H194 H 0.58737 0.66854 0.68493 0.0
H195 H 0.62678 0.85403 0.60576 0.0
H196 H 0.15406 0.78903 0.54032 0.0
H197 H 0.06185 0.75714 0.41784 0.0
H198 H 0.20323 0.75381 0.49239 0.0
H199 H 0.01244 0.79105 0.46607 0.0
Eu200 Eu 0.04139 0.91362 0.91034 0.0
Eu201 Eu 0.16549 0.88739 0.89402 0.0
C202 C 0.02774 0.7773 0.92433 0.0
C203 C 0.87273 0.91028 0.91545 0.0
C204 C 0.83441 0.84442 0.90476 0.0
C205 C 0.77066 0.91497 0.92578 0.0
C206 C 0.76423 0.81284 0.90683 0.0
C207 C 0.84063 0.94642 0.92363 0.0
C208 C 0.73196 0.8467 0.92006 0.0
C209 C -0.05577 0.93868 0.92364 0.0
O210 O 0.10446 0.85616 0.84173 0.0
O211 O 0.0301 0.89447 0.85085 0.0
C212 C 0.05729 0.86849 0.82989 0.0
O213 O 0.13763 0.00835 0.90203 0.0
O214 O 0.19297 0.81172 0.88471 0.0
O215 O 0.27107 0.91367 0.89022 0.0
O216 O 0.18618 -0.02603 0.86013 0.0
C217 C 0.17717 0.02018 0.87413 0.0
O218 O 0.09424 0.92835 0.96382 0.0
O219 O 0.19945 0.95404 0.94371 0.0
O220 O 0.09101 0.81308 0.93264 0.0
O221 O -0.04056 0.90346 0.94452 0.0
O222 O -0.01313 -0.03467 0.89718 0.0
O223 O -0.00177 0.80396 0.90691 0.0
C224 C 0.28986 0.8495 0.84827 0.0
C225 C 0.35969 0.87543 0.84726 0.0
C226 C 0.28682 0.83826 0.78375 0.0
C227 C 0.39335 0.88586 0.81441 0.0
C228 C 0.25337 0.82815 0.81645 0.0
C229 C 0.35755 0.8707 0.78217 0.0
C230 C 0.257 0.85417 0.88127 0.0
C231 C 0.15943 0.95464 0.96933 0.0
H232 H 0.85869 0.81607 0.89781 0.0
H233 H 0.74782 0.94275 0.93614 0.0
H234 H 0.73572 0.76045 0.90183 0.0
H235 H 0.86962 -0.00245 0.93152 0.0
H236 H 0.38862 0.89194 0.87162 0.0
H237 H 0.25727 0.82658 0.75966 0.0
H238 H 0.44762 0.91042 0.81422 0.0
H239 H 0.19937 0.80816 0.8165 0.0
H240 H -0.03419 0.04202 1.13903 0.0
H241 H 0.93332 0.89284 0.21553 0.0
H242 H 0.05392 0.94349 0.22513 0.0
H243 H 0.15623 0.04909 0.22856 0.0
H244 H 0.18986 0.20608 1.15662 0.0
H245 H 0.07891 0.13653 1.13037 0.0
C246 C -0.01408 0.01868 1.15613 0.0
C247 C -0.05803 -0.03246 1.17885 0.0
C248 C 0.05418 0.053 1.16463 0.0
C249 C -0.03296 0.93443 1.19908 0.0
C250 C 0.03573 -0.03524 1.20553 0.0
C251 C 0.14046 0.06778 1.20652 0.0
C252 C 0.17998 0.13315 1.19529 0.0
C253 C 0.07805 0.02749 1.19136 0.0
C254 C 0.15897 0.15638 1.16642 0.0
C255 C 0.0962 0.11641 1.15109 0.0
H256 H 0.00579 0.03495 0.50377 0.0
H257 H 0.91076 0.03588 0.60407 0.0
H258 H -0.03842 0.15525 0.601 0.0
H259 H 0.0514 0.25841 0.57657 0.0
H260 H 0.15282 0.25799 0.47899 0.0
H261 H 0.07765 0.13979 0.47249 0.0
C262 C -0.00396 0.06145 0.52479 0.0
C263 C -0.04305 0.02746 0.55479 0.0
C264 C 0.02525 0.12997 0.52278 0.0
C265 C -0.05782 0.06153 0.58117 0.0
C266 C -0.02925 0.12961 0.5793 0.0
C267 C 0.05404 0.23285 0.55277 0.0
C268 C 0.10812 0.26573 0.52881 0.0
C269 C 0.01455 0.16442 0.55102 0.0
C270 C 0.11144 0.23321 0.49784 0.0
C271 C 0.06982 0.16525 0.49475 0.0
H272 H 0.25969 0.14024 0.89857 0.0
H273 H 0.13317 0.03498 0.81007 0.0
H274 H 0.09745 0.11715 0.80485 0.0
H275 H 0.0777 0.19832 0.83742 0.0
H276 H 0.19834 0.29716 0.92943 0.0
H277 H 0.26008 0.23767 0.92208 0.0
C278 C 0.22766 0.13793 0.87676 0.0
C279 C 0.19721 0.08147 0.85551 0.0
C280 C 0.2032 0.18196 0.87613 0.0
C281 C 0.15661 0.07833 0.82692 0.0
C282 C 0.1346 0.12417 0.82468 0.0
C283 C 0.1178 0.20685 0.85562 0.0
C284 C 0.13187 0.24953 0.88476 0.0
C285 C 0.15307 0.17254 0.85122 0.0
C286 C 0.1857 0.2629 0.90737 0.0
C287 C 0.22135 0.22943 0.90303 0.0
H288 H 0.40479 0.6009 1.13757 0.0
H289 H 0.49932 0.55025 1.05201 0.0
H290 H 0.46689 0.60756 1.00913 0.0
H291 H 0.39597 0.65372 0.99516 0.0
H292 H 0.28973 0.69303 1.07922 0.0
H293 H 0.34718 0.66336 1.12417 0.0
C294 C 0.41988 0.60409 1.1097 0.0
C295 C 0.45367 0.57094 1.09775 0.0
C296 C 0.4 0.63605 1.08518 0.0
C297 C 0.47232 0.57458 1.06158 0.0
C298 C 0.45401 0.60745 1.03716 0.0
C299 C 0.38733 0.65862 1.02335 0.0
C300 C 0.33805 0.67476 1.03392 0.0
C301 C 0.41583 0.6362 1.04852 0.0
C302 C 0.32736 0.68052 1.07054 0.0
C303 C 0.35927 0.66242 1.09611 0.0
H304 H 0.30165 0.64053 0.37772 0.0
H305 H 0.13033 0.57226 0.44904 0.0
H306 H 0.05507 0.51504 0.39997 0.0
H307 H 0.0414 0.45937 0.34261 0.0
H308 H 0.21528 0.51254 0.27514 0.0
H309 H 0.28472 0.60172 0.31564 0.0
C310 C 0.24769 0.61456 0.38223 0.0
C311 C 0.22198 0.60868 0.4172 0.0
C312 C 0.20486 0.57761 0.35446 0.0
C313 C 0.15188 0.57702 0.42253 0.0
C314 C 0.10861 0.54327 0.39451 0.0
C315 C 0.09429 0.49123 0.33646 0.0
C316 C 0.12355 0.47743 0.30675 0.0
C317 C 0.13505 0.5391 0.36123 0.0
C318 C 0.19136 0.52114 0.29811 0.0
C319 C 0.2315 0.57181 0.32156 0.0
H320 H 0.69762 0.89629 0.82124 0.0
H321 H 0.56654 -0.02589 0.79728 0.0
H322 H 0.50484 0.88443 0.75521 0.0
H323 H 0.50792 0.80345 0.71513 0.0
H324 H 0.65099 0.73768 0.73379 0.0
H325 H 0.68398 0.79876 0.78953 0.0
C326 C 0.65386 0.89218 0.80791 0.0
C327 C 0.63766 0.94253 0.81153 0.0
C328 C 0.62041 0.84218 0.78269 0.0
C329 C 0.58079 0.93655 0.79418 0.0
C330 C 0.54542 0.88533 0.7702 0.0
C331 C 0.54489 0.80099 0.73199 0.0
C332 C 0.57884 0.76843 0.71953 0.0
C333 C 0.56775 0.84064 0.76253 0.0
C334 C 0.62452 0.76314 0.7423 0.0
C335 C 0.64443 0.79912 0.77403 0.0
H336 H 0.53253 0.82004 1.03609 0.0
H337 H 0.61598 0.70613 1.08038 0.0
H338 H 0.65179 0.69234 1.0213 0.0
H339 H 0.69079 0.74176 0.96302 0.0
H340 H 0.62636 0.87227 0.92062 0.0
H341 H 0.55102 0.84951 0.97215 0.0
C342 C 0.55732 0.79106 1.03263 0.0
C343 C 0.57332 0.76605 1.06288 0.0
C344 C 0.58247 0.78735 0.99876 0.0
C345 C 0.60335 0.72663 1.05784 0.0
C346 C 0.62461 0.71919 1.02394 0.0
C347 C 0.65793 0.76286 0.964 0.0
C348 C 0.66588 0.81042 0.93867 0.0
C349 C 0.61907 0.75359 0.99488 0.0
C350 C 0.62229 0.83666 0.94029 0.0
C351 C 0.57983 0.82424 0.96999 0.0
H352 H 0.07849 0.66836 0.39506 0.0
H353 H 0.27094 0.80526 0.43993 0.0
H354 H 0.32618 0.80971 0.38323 0.0
H355 H 0.31395 0.80158 0.31889 0.0
H356 H 0.12187 0.66955 0.27223 0.0
H357 H 0.07326 0.6336 0.3319 0.0
C358 C 0.13268 0.69819 0.39256 0.0
C359 C 0.17017 0.73845 0.42121 0.0
C360 C 0.16409 0.70215 0.3595 0.0
C361 C 0.24064 0.77445 0.4182 0.0
C362 C 0.27235 0.77739 0.38564 0.0
C363 C 0.26206 0.76291 0.32122 0.0
C364 C 0.21969 0.74352 0.29121 0.0
C365 C 0.23384 0.74529 0.35557 0.0
C366 C 0.15442 0.68933 0.29515 0.0
C367 C 0.12621 0.66942 0.32932 0.0
H368 H 0.46274 -0.00605 0.77281 0.0
H369 H 0.32872 0.81886 0.71422 0.0
H370 H 0.34716 0.88435 0.6604 0.0
H371 H 0.37323 -0.00776 0.63745 0.0
H372 H 0.50663 0.16735 0.69634 0.0
H373 H 0.51755 0.1003 0.74255 0.0
C374 C 0.43994 -0.03063 0.74794 0.0
C375 C 0.39173 0.90205 0.74795 0.0
C376 C 0.44917 0.00756 0.71746 0.0
C377 C 0.36399 0.87113 0.7152 0.0
C378 C 0.37425 0.90861 0.68446 0.0
C379 C 0.40721 0.01623 0.65946 0.0
C380 C 0.43651 0.08462 0.66427 0.0
C381 C 0.41232 -0.02267 0.68625 0.0
C382 C 0.48113 0.11453 0.6928 0.0
C383 C 0.4875 0.07623 0.71924 0.0
H384 H 0.50283 0.11448 0.27227 0.0
H385 H 0.6071 0.2796 1.20127 0.0
H386 H 0.71037 0.27261 1.20662 0.0
H387 H 0.76527 0.20973 0.22594 0.0
H388 H 0.65915 0.04641 0.29847 0.0
H389 H 0.56278 0.06372 0.29904 0.0
C390 C 0.54856 0.14927 0.25834 0.0
C391 C 0.54787 0.19645 0.23588 0.0
C392 C 0.60718 0.14542 0.26198 0.0
C393 C 0.60709 0.24249 0.21845 0.0
C394 C 0.66582 0.23844 0.22151 0.0
C395 C 0.7218 0.17924 0.24263 0.0
C396 C 0.71864 0.12604 0.2615 0.0
C397 C 0.66587 0.18886 0.24247 0.0
C398 C 0.66222 0.08702 0.2832 0.0
C399 C 0.60693 0.09661 0.28344 0.0
H400 H 0.54117 0.50085 0.62742 0.0
H401 H 0.48232 0.45322 0.51731 0.0
H402 H 0.59835 0.5225 0.49741 0.0
H403 H 0.71383 0.60482 0.51083 0.0
H404 H 0.77595 0.65344 0.62032 0.0
H405 H 0.66249 0.57367 0.64119 0.0
C406 C 0.55434 0.50565 0.5992 0.0
C407 C 0.50385 0.47325 0.5737 0.0
C408 C 0.62171 0.54477 0.58792 0.0
C409 C 0.52082 0.47852 0.53721 0.0
C410 C 0.58701 0.51779 0.52584 0.0
C411 C 0.70291 0.59622 0.53927 0.0
C412 C 0.75271 0.63444 0.56398 0.0
C413 C 0.63756 0.55199 0.55088 0.0
C414 C 0.73842 0.62362 0.6008 0.0
C415 C 0.67328 0.57883 0.61271 0.0
H416 H -0.02525 0.49815 0.9625 0.0
H417 H 0.91075 0.4628 0.85259 0.0
H418 H 0.91481 0.56935 0.8505 0.0
H419 H -0.04431 0.67991 0.877 0.0
H420 H 0.03105 0.71682 0.9847 0.0
H421 H 0.00275 0.60215 0.99086 0.0
C422 C -0.03955 0.5131 0.93822 0.0
C423 C -0.05637 0.4732 0.90755 0.0
C424 C -0.0345 0.57511 0.93685 0.0
C425 C 0.92432 0.49287 0.87651 0.0
C426 C 0.92706 0.55397 0.87525 0.0
C427 C -0.03635 0.66196 0.90213 0.0
C428 C -0.00496 0.70613 0.93047 0.0
C429 C -0.04973 0.59663 0.90482 0.0
C430 C 0.0067 0.68325 0.96269 0.0
C431 C -0.00908 0.61793 0.96611 0.0
H432 H 0.37427 0.34086 0.3282 0.0
H433 H 0.32478 0.14313 0.35605 0.0
H434 H 0.30768 0.16331 0.4182 0.0
H435 H 0.30584 0.23617 0.46569 0.0
H436 H 0.35835 0.43509 0.43926 0.0
H437 H 0.3748 0.41525 0.37655 0.0
C438 C 0.35991 0.30216 0.34782 0.0
C439 C 0.35106 0.24033 0.33676 0.0
C440 C 0.35042 0.31421 0.38428 0.0
C441 C 0.33244 0.19128 0.36313 0.0
C442 C 0.32238 0.2027 0.399 0.0
C443 C 0.32085 0.27536 0.44631 0.0
C444 C 0.33057 0.33719 0.45774 0.0
C445 C 0.33107 0.26385 0.41001 0.0
C446 C 0.35044 0.38702 0.43176 0.0
C447 C 0.35988 0.37566 0.39563 0.0
H448 H 0.28157 0.38104 0.7075 0.0
H449 H 0.12344 0.36261 0.63868 0.0
H450 H 0.05302 0.35168 0.6907 0.0
H451 H 0.03557 0.34878 0.75662 0.0
H452 H 0.19742 0.37818 0.82559 0.0
H453 H 0.26595 0.38305 0.77359 0.0
C454 C 0.23166 0.37445 0.70394 0.0
C455 C 0.20815 0.37258 0.66893 0.0
C456 C 0.19163 0.37028 0.73435 0.0
C457 C 0.14336 0.36468 0.6651 0.0
C458 C 0.10273 0.35824 0.69497 0.0
C459 C 0.08586 0.35635 0.76018 0.0
C460 C 0.11121 0.36325 0.79511 0.0
C461 C 0.12621 0.36127 0.72984 0.0
C462 C 0.17676 0.37334 0.79909 0.0
C463 C 0.21604 0.37593 0.76927 0.0
H464 H 0.86942 0.20683 0.99773 0.0
H465 H 0.07794 0.3238 1.02703 0.0
H466 H 0.05261 0.26989 1.08536 0.0
H467 H -0.02751 0.1891 1.1282 0.0
H468 H 0.76315 0.0729 1.10069 0.0
H469 H 0.78772 0.12671 1.04186 0.0
C470 C 0.90947 0.22094 1.01686 0.0
C471 C -0.02406 0.27005 1.00745 0.0
C472 C 0.89439 0.18952 1.05086 0.0
C473 C 0.02652 0.28688 1.03304 0.0
C474 C 0.01201 0.25575 1.06658 0.0
C475 C 0.93182 0.17513 1.10948 0.0
C476 C 0.86567 0.12623 1.11931 0.0
C477 C -0.05371 0.20686 1.07578 0.0
C478 C 0.81434 0.10993 1.09428 0.0
C479 C 0.82852 0.14088 1.0605 0.0
H480 H 0.8557 0.89614 0.31546 0.0
H481 H 0.81028 0.04279 0.35603 0.0
H482 H 0.81358 0.0091 0.41738 0.0
H483 H 0.83145 0.9398 0.46015 0.0
H484 H 0.88705 0.79939 0.42111 0.0
H485 H 0.87832 0.82876 0.35921 0.0
C486 C 0.84585 0.92014 0.33777 0.0
C487 C 0.83173 -0.02849 0.33093 0.0
C488 C 0.85023 0.90189 0.3735 0.0
C489 C 0.82079 0.00302 0.36032 0.0
C490 C 0.82281 -0.0162 0.39553 0.0
C491 C 0.84142 0.91526 0.43815 0.0
C492 C 0.85927 0.86675 0.44562 0.0
C493 C 0.83781 0.93358 0.40255 0.0
C494 C 0.87316 0.83673 0.41647 0.0
C495 C 0.86796 0.85348 0.38092 0.0
H496 H 0.01856 0.83921 0.66028 0.0
H497 H 0.8317 0.83186 0.68864 0.0
H498 H 0.86111 0.84159 0.7521 0.0
H499 H 0.94146 0.85512 0.79999 0.0
H500 H 0.12502 0.85547 0.77178 0.0
H501 H 0.09524 0.84519 0.70843 0.0
C502 C -0.01593 0.8397 0.68028 0.0
C503 C 0.92293 0.83542 0.66918 0.0
C504 C 0.00083 0.84397 0.71707 0.0
C505 C 0.87893 0.83516 0.69594 0.0
C506 C 0.89591 0.84084 0.73241 0.0
C507 C -0.02505 0.85257 0.78007 0.0
C508 C 0.03593 0.8564 0.79116 0.0
C509 C -0.04309 0.84567 0.74338 0.0
C510 C 0.07787 0.85242 0.76455 0.0
C511 C 0.06089 0.84683 0.72809 0.0
H512 H 0.28427 0.06076 0.98771 0.0
H513 H 0.0949 0.91511 1.03344 0.0
H514 H 0.13323 -0.03958 1.09298 0.0
H515 H 0.21947 0.04085 1.13282 0.0
H516 H 0.40672 0.19277 1.0887 0.0
H517 H 0.37042 0.14646 1.02841 0.0
C518 C 0.25162 0.03867 1.01074 0.0
C519 C 0.18658 -0.01638 1.0057 0.0
C520 C 0.27359 0.06649 1.04545 0.0
C521 C 0.14493 -0.04302 1.03609 0.0
C522 C 0.16691 -0.01699 1.07036 0.0
C523 C 0.25281 0.06398 1.11011 0.0
C524 C 0.31653 0.12011 1.11577 0.0
C525 C 0.231 0.03768 1.07546 0.0
C526 C 0.35771 0.1497 1.08554 0.0
C527 C 0.33687 0.12288 1.05094 0.0
loop_
_geom_bond_atom_site_label_1
_geom_bond_atom_site_label_2
_geom_bond_distance
_geom_bond_site_symmetry_2
_ccdc_geom_bond_type
Eu0 C9 2.828 . S
Eu0 O11 2.392 1_554 S
Eu0 O13 2.418 . S
Eu0 O18 2.373 . S
Eu0 O21 2.488 . S
Eu0 O22 2.471 . S
Eu0 O23 2.349 . S
Eu1 O10 2.373 . S
Eu1 O14 2.488 . S
Eu1 O15 2.471 . S
Eu1 O16 2.349 1_556 S
Eu1 O19 2.392 1_556 S
Eu1 O20 2.420 . S
Eu1 C30 2.828 . S
C2 O20 1.223 1_554 S
C2 O23 1.265 . S
C3 C4 1.379 . S
C3 C7 1.373 . S
C3 C9 1.505 . S
C4 C3 1.379 . S
C4 C6 1.369 . S
C4 H32 0.930 . S
C5 C7 1.383 . S
C5 C8 1.382 . S
C5 H33 0.930 . S
C6 C4 1.369 . S
C6 C8 1.392 . S
C6 H34 0.930 . S
C7 C3 1.373 . S
C7 C5 1.383 . S
C7 H35 0.931 . S
C8 C5 1.382 . S
C8 C6 1.392 . S
C9 Eu0 2.828 . S
C9 C3 1.505 . S
C9 O21 1.249 . S
C9 O22 1.244 . S
O10 Eu1 2.373 . S
O10 C12 1.258 . S
O11 Eu0 2.392 1_556 S
O11 C12 1.242 . S
C12 O10 1.258 . S
C12 O11 1.242 . S
O13 Eu0 2.418 . S
O13 C17 1.244 . S
O14 Eu1 2.488 . S
O14 C30 1.249 . S
O15 Eu1 2.471 . S
O15 C30 1.244 . S
O16 Eu1 2.349 1_554 S
O16 C17 1.265 . S
C17 O13 1.244 . S
C17 O16 1.265 . S
O18 Eu0 2.373 . S
O18 C31 1.258 . S
O19 Eu1 2.392 1_554 S
O19 C31 1.242 . S
O20 Eu1 2.420 . S
O20 C2 1.223 1_556 S
O21 Eu0 2.488 . S
O21 C9 1.249 . S
O22 Eu0 2.471 . S
O22 C9 1.244 . S
O23 Eu0 2.349 . S
O23 C2 1.265 . S
C24 C25 1.379 . S
C24 C28 1.373 . S
C24 C30 1.505 . S
C25 C24 1.379 . S
C25 C27 1.369 . S
C25 H36 0.930 . S
C26 C28 1.383 . S
C26 C29 1.382 . S
C26 H37 0.930 . S
C27 C25 1.369 . S
C27 C29 1.392 . S
C27 H38 0.930 . S
C28 C24 1.373 . S
C28 C26 1.383 . S
C28 H39 0.931 . S
C29 C26 1.382 . S
C29 C27 1.392 . S
C30 Eu1 2.828 . S
C30 O14 1.249 . S
C30 O15 1.244 . S
C30 C24 1.505 . S
C31 O18 1.258 . S
C31 O19 1.242 . S
H32 C4 0.930 . S
H33 C5 0.930 . S
H34 C6 0.930 . S
H35 C7 0.931 . S
H36 C25 0.930 . S
H37 C26 0.930 . S
H38 C27 0.930 . S
H39 C28 0.931 . S
Eu40 C49 2.828 . S
Eu40 O51 2.392 . S
Eu40 O53 2.418 . S
Eu40 O58 2.373 . S
Eu40 O61 2.488 . S
Eu40 O62 2.471 . S
Eu40 O63 2.349 . S
Eu41 O50 2.373 . S
Eu41 O54 2.488 . S
Eu41 O55 2.471 . S
Eu41 O56 2.349 . S
Eu41 O59 2.392 . S
Eu41 O60 2.418 . S
Eu41 C70 2.828 . S
C42 O60 1.244 . S
C42 O63 1.265 . S
C43 C44 1.379 . S
C43 C47 1.373 . S
C43 C49 1.505 . S
C44 C43 1.379 . S
C44 C46 1.369 . S
C44 H72 0.930 . S
C45 C47 1.383 . S
C45 C48 1.382 . S
C45 H73 0.930 . S
C46 C44 1.369 . S
C46 C48 1.392 . S
C46 H74 0.930 . S
C47 C43 1.373 . S
C47 C45 1.383 . S
C47 H75 0.931 . S
C48 C45 1.382 . S
C48 C46 1.392 . S
C49 Eu40 2.828 . S
C49 C43 1.505 . S
C49 O61 1.249 . S
C49 O62 1.244 . S
O50 Eu41 2.373 . S
O50 C52 1.258 . S
O51 Eu40 2.392 . S
O51 C52 1.242 . S
C52 O50 1.258 . S
C52 O51 1.242 . S
O53 Eu40 2.418 . S
O53 C57 1.244 . S
O54 Eu41 2.488 . S
O54 C70 1.249 . S
O55 Eu41 2.471 . S
O55 C70 1.244 . S
O56 Eu41 2.349 . S
O56 C57 1.265 . S
C57 O53 1.244 . S
C57 O56 1.265 . S
O58 Eu40 2.373 . S
O58 C71 1.258 . S
O59 Eu41 2.392 . S
O59 C71 1.242 . S
O60 Eu41 2.418 . S
O60 C42 1.244 . S
O61 Eu40 2.488 . S
O61 C49 1.249 . S
O62 Eu40 2.471 . S
O62 C49 1.244 . S
O63 Eu40 2.349 . S
O63 C42 1.265 . S
C64 C65 1.379 . S
C64 C68 1.373 . S
C64 C70 1.505 . S
C65 C64 1.379 . S
C65 C67 1.369 . S
C65 H76 0.930 . S
C66 C68 1.383 . S
C66 C69 1.382 . S
C66 H77 0.930 . S
C67 C65 1.369 . S
C67 C69 1.392 . S
C67 H78 0.930 . S
C68 C64 1.373 . S
C68 C66 1.383 . S
C68 H79 0.931 . S
C69 C66 1.382 . S
C69 C67 1.392 . S
C70 Eu41 2.828 . S
C70 O54 1.249 . S
C70 O55 1.244 . S
C70 C64 1.505 . S
C71 O58 1.258 . S
C71 O59 1.242 . S
H72 C44 0.930 . S
H73 C45 0.930 . S
H74 C46 0.930 . S
H75 C47 0.931 . S
H76 C65 0.930 . S
H77 C66 0.930 . S
H78 C67 0.930 . S
H79 C68 0.931 . S
Eu80 C89 2.828 . S
Eu80 O91 2.392 . S
Eu80 O93 2.418 . S
Eu80 O98 2.373 . S
Eu80 O101 2.488 . S
Eu80 O102 2.471 . S
Eu80 O103 2.349 . S
Eu81 O90 2.373 1_655 S
Eu81 O94 2.488 . S
Eu81 O95 2.471 . S
Eu81 O96 2.349 . S
Eu81 O99 2.392 . S
Eu81 O100 2.418 . S
Eu81 C110 2.828 . S
C82 O100 1.244 . S
C82 O103 1.265 1_655 S
C83 C84 1.379 . S
C83 C87 1.373 . S
C83 C89 1.505 . S
C84 C83 1.379 . S
C84 C86 1.369 . S
C84 H112 0.930 . S
C85 C87 1.383 . S
C85 C88 1.382 . S
C85 H113 0.930 . S
C86 C84 1.369 . S
C86 C88 1.392 . S
C86 H114 0.930 . S
C87 C83 1.373 . S
C87 C85 1.383 . S
C87 H115 0.931 . S
C88 C85 1.382 . S
C88 C86 1.392 . S
C89 Eu80 2.828 . S
C89 C83 1.505 . S
C89 O101 1.249 . S
C89 O102 1.244 . S
O90 Eu81 2.373 1_455 S
O90 C92 1.258 . S
O91 Eu80 2.392 . S
O91 C92 1.242 . S
C92 O90 1.258 . S
C92 O91 1.242 . S
O93 Eu80 2.418 . S
O93 C97 1.244 . S
O94 Eu81 2.488 . S
O94 C110 1.249 . S
O95 Eu81 2.471 . S
O95 C110 1.244 . S
O96 Eu81 2.349 . S
O96 C97 1.265 1_655 S
C97 O93 1.244 . S
C97 O96 1.265 1_455 S
O98 Eu80 2.373 . S
O98 C111 1.258 1_455 S
O99 Eu81 2.392 . S
O99 C111 1.242 . S
O100 Eu81 2.418 . S
O100 C82 1.244 . S
O101 Eu80 2.488 . S
O101 C89 1.249 . S
O102 Eu80 2.471 . S
O102 C89 1.244 . S
O103 Eu80 2.349 . S
O103 C82 1.265 1_455 S
C104 C105 1.379 . S
C104 C108 1.373 . S
C104 C110 1.505 . S
C105 C104 1.379 . S
C105 C107 1.369 . S
C105 H116 0.930 . S
C106 C108 1.383 . S
C106 C109 1.382 . S
C106 H117 0.930 . S
C107 C105 1.369 . S
C107 C109 1.392 . S
C107 H118 0.930 . S
C108 C104 1.373 . S
C108 C106 1.383 . S
C108 H119 0.931 . S
C109 C106 1.382 . S
C109 C107 1.392 . S
C110 Eu81 2.828 . S
C110 O94 1.249 . S
C110 O95 1.244 . S
C110 C104 1.505 . S
C111 O98 1.258 1_655 S
C111 O99 1.242 . S
H112 C84 0.930 . S
H113 C85 0.930 . S
H114 C86 0.930 . S
H115 C87 0.931 . S
H116 C105 0.930 . S
H117 C106 0.930 . S
H118 C107 0.930 . S
H119 C108 0.931 . S
Eu120 C129 2.828 . S
Eu120 O131 2.392 1_554 S
Eu120 O133 2.418 . S
Eu120 O138 2.373 . S
Eu120 O141 2.488 . S
Eu120 O142 2.471 . S
Eu120 O143 2.349 . S
Eu121 O130 2.373 1_565 S
Eu121 O134 2.488 . S
Eu121 O135 2.471 . S
Eu121 O136 2.349 1_566 S
Eu121 O139 2.392 1_556 S
Eu121 O140 2.420 . S
Eu121 C150 2.828 . S
C122 O140 1.223 1_554 S
C122 O143 1.265 1_565 S
C123 C124 1.379 . S
C123 C127 1.373 . S
C123 C129 1.505 . S
C124 C123 1.379 . S
C124 C126 1.369 . S
C124 H152 0.930 . S
C125 C127 1.383 . S
C125 C128 1.382 . S
C125 H153 0.930 . S
C126 C124 1.369 . S
C126 C128 1.392 . S
C126 H154 0.930 . S
C127 C123 1.373 . S
C127 C125 1.383 . S
C127 H155 0.931 . S
C128 C125 1.382 . S
C128 C126 1.392 . S
C129 Eu120 2.828 . S
C129 C123 1.505 . S
C129 O141 1.249 . S
C129 O142 1.244 . S
O130 Eu121 2.373 1_545 S
O130 C132 1.258 . S
O131 Eu120 2.392 1_556 S
O131 C132 1.242 . S
C132 O130 1.258 . S
C132 O131 1.242 . S
O133 Eu120 2.418 . S
O133 C137 1.244 . S
O134 Eu121 2.488 . S
O134 C150 1.249 . S
O135 Eu121 2.471 . S
O135 C150 1.244 . S
O136 Eu121 2.349 1_544 S
O136 C137 1.265 . S
C137 O133 1.244 . S
C137 O136 1.265 . S
O138 Eu120 2.373 . S
O138 C151 1.258 1_545 S
O139 Eu121 2.392 1_554 S
O139 C151 1.242 . S
O140 Eu121 2.420 . S
O140 C122 1.223 1_556 S
O141 Eu120 2.488 . S
O141 C129 1.249 . S
O142 Eu120 2.471 . S
O142 C129 1.244 . S
O143 Eu120 2.349 . S
O143 C122 1.265 1_545 S
C144 C145 1.379 . S
C144 C148 1.373 . S
C144 C150 1.505 . S
C145 C144 1.379 . S
C145 C147 1.369 . S
C145 H156 0.930 . S
C146 C148 1.383 . S
C146 C149 1.382 . S
C146 H157 0.930 . S
C147 C145 1.369 . S
C147 C149 1.392 . S
C147 H158 0.930 . S
C148 C144 1.373 . S
C148 C146 1.383 . S
C148 H159 0.931 . S
C149 C146 1.382 . S
C149 C147 1.392 . S
C150 Eu121 2.828 . S
C150 O134 1.249 . S
C150 O135 1.244 . S
C150 C144 1.505 . S
C151 O138 1.258 1_565 S
C151 O139 1.242 . S
H152 C124 0.930 . S
H153 C125 0.930 . S
H154 C126 0.930 . S
H155 C127 0.931 . S
H156 C145 0.930 . S
H157 C146 0.930 . S
H158 C147 0.930 . S
H159 C148 0.931 . S
Eu160 C169 2.828 . S
Eu160 O171 2.392 . S
Eu160 O173 2.418 1_655 S
Eu160 O178 2.373 . S
Eu160 O181 2.488 . S
Eu160 O182 2.471 . S
Eu160 O183 2.349 . S
Eu161 O170 2.373 1_455 S
Eu161 O174 2.488 . S
Eu161 O175 2.471 . S
Eu161 O176 2.349 . S
Eu161 O179 2.392 . S
Eu161 O180 2.418 1_455 S
Eu161 C190 2.828 . S
C162 O180 1.244 . S
C162 O183 1.265 . S
C163 C164 1.379 . S
C163 C167 1.373 . S
C163 C169 1.505 . S
C164 C163 1.379 . S
C164 C166 1.369 . S
C164 H192 0.930 . S
C165 C167 1.383 . S
C165 C168 1.382 . S
C165 H193 0.946 . S
C166 C164 1.369 . S
C166 C168 1.392 . S
C166 H194 0.930 . S
C167 C163 1.373 . S
C167 C165 1.383 . S
C167 H195 0.928 1_565 S
C168 C165 1.382 . S
C168 C166 1.392 . S
C169 Eu160 2.828 . S
C169 C163 1.505 . S
C169 O181 1.249 . S
C169 O182 1.244 . S
O170 Eu161 2.373 1_655 S
O170 C172 1.258 . S
O171 Eu160 2.392 . S
O171 C172 1.242 . S
C172 O170 1.258 . S
C172 O171 1.242 . S
O173 Eu160 2.418 1_455 S
O173 C177 1.244 . S
O174 Eu161 2.488 . S
O174 C190 1.249 . S
O175 Eu161 2.471 . S
O175 C190 1.244 . S
O176 Eu161 2.349 . S
O176 C177 1.265 . S
C177 O173 1.244 . S
C177 O176 1.265 . S
O178 Eu160 2.373 . S
O178 C191 1.258 1_655 S
O179 Eu161 2.392 . S
O179 C191 1.242 . S
O180 Eu161 2.418 1_655 S
O180 C162 1.244 . S
O181 Eu160 2.488 . S
O181 C169 1.249 . S
O182 Eu160 2.471 . S
O182 C169 1.244 . S
O183 Eu160 2.349 . S
O183 C162 1.265 . S
C184 C185 1.379 . S
C184 C188 1.373 . S
C184 C190 1.505 . S
C185 C184 1.379 . S
C185 C187 1.369 . S
C185 H196 0.930 . S
C186 C188 1.383 . S
C186 C189 1.382 . S
C186 H197 0.930 . S
C187 C185 1.369 . S
C187 C189 1.392 . S
C187 H198 0.930 . S
C188 C184 1.373 . S
C188 C186 1.383 . S
C188 H199 0.931 . S
C189 C186 1.382 . S
C189 C187 1.392 . S
C190 Eu161 2.828 . S
C190 O174 1.249 . S
C190 O175 1.244 . S
C190 C184 1.505 . S
C191 O178 1.258 1_455 S
C191 O179 1.242 . S
H192 C164 0.930 . S
H193 C165 0.946 . S
H194 C166 0.930 . S
H195 C167 0.928 1_545 S
H196 C185 0.930 . S
H197 C186 0.930 . S
H198 C187 0.930 . S
H199 C188 0.931 . S
Eu200 C209 2.828 . S
Eu200 O211 2.392 . S
Eu200 O213 2.418 1_565 S
Eu200 O218 2.373 . S
Eu200 O221 2.488 . S
Eu200 O222 2.471 . S
Eu200 O223 2.349 . S
Eu201 O210 2.373 1_545 S
Eu201 O214 2.488 . S
Eu201 O215 2.471 . S
Eu201 O216 2.349 . S
Eu201 O219 2.392 . S
Eu201 O220 2.418 1_545 S
Eu201 C230 2.828 . S
C202 O220 1.244 . S
C202 O223 1.265 . S
C203 C204 1.379 . S
C203 C207 1.373 . S
C203 C209 1.505 . S
C204 C203 1.379 . S
C204 C206 1.369 . S
C204 H232 0.930 . S
C205 C207 1.383 . S
C205 C208 1.382 . S
C205 H233 0.930 1_455 S
C206 C204 1.369 . S
C206 C208 1.392 . S
C206 H234 0.930 . S
C207 C203 1.373 . S
C207 C205 1.383 . S
C207 H235 0.931 . S
C208 C205 1.382 . S
C208 C206 1.392 . S
C209 Eu200 2.828 . S
C209 C203 1.505 . S
C209 O221 1.249 . S
C209 O222 1.244 . S
O210 Eu201 2.373 1_565 S
O210 C212 1.258 . S
O211 Eu200 2.392 . S
O211 C212 1.242 . S
C212 O210 1.258 . S
C212 O211 1.242 . S
O213 Eu200 2.418 1_545 S
O213 C217 1.244 . S
O214 Eu201 2.488 . S
O214 C230 1.249 . S
O215 Eu201 2.471 . S
O215 C230 1.244 . S
O216 Eu201 2.349 . S
O216 C217 1.265 . S
C217 O213 1.244 . S
C217 O216 1.265 . S
O218 Eu200 2.373 . S
O218 C231 1.258 1_565 S
O219 Eu201 2.392 . S
O219 C231 1.242 . S
O220 Eu201 2.418 1_565 S
O220 C202 1.244 . S
O221 Eu200 2.488 . S
O221 C209 1.249 . S
O222 Eu200 2.471 . S
O222 C209 1.244 . S
O223 Eu200 2.349 . S
O223 C202 1.265 . S
C224 C225 1.379 . S
C224 C228 1.373 . S
C224 C230 1.505 . S
C225 C224 1.379 . S
C225 C227 1.369 . S
C225 H236 0.930 . S
C226 C228 1.383 . S
C226 C229 1.382 . S
C226 H237 0.930 . S
C227 C225 1.369 . S
C227 C229 1.392 . S
C227 H238 0.930 . S
C228 C224 1.373 . S
C228 C226 1.383 . S
C228 H239 0.931 . S
C229 C226 1.382 . S
C229 C227 1.392 . S
C230 Eu201 2.828 . S
C230 O214 1.249 . S
C230 O215 1.244 . S
C230 C224 1.505 . S
C231 O218 1.258 1_545 S
C231 O219 1.242 . S
H232 C204 0.930 . S
H233 C205 0.930 1_655 S
H234 C206 0.930 . S
H235 C207 0.931 . S
H236 C225 0.930 . S
H237 C226 0.930 . S
H238 C227 0.930 . S
H239 C228 0.931 . S
H240 C246 0.930 . S
H241 C249 0.930 1_565 S
H242 C250 0.929 1_556 S
H243 C251 0.930 . S
H244 C254 0.930 . S
H245 C255 0.930 . S
C246 H240 0.930 . S
C246 C247 1.355 . S
C246 C248 1.415 . S
C247 C246 1.355 . S
C247 C249 1.419 . S
C248 C246 1.415 . S
C248 C253 1.425 . S
C248 C255 1.409 . S
C249 H241 0.930 1_545 S
C249 C247 1.419 . S
C249 C250 1.362 . S
C250 H242 0.929 1_554 S
C250 C249 1.362 . S
C250 C253 1.409 . S
C251 H243 0.930 . S
C251 C252 1.355 . S
C251 C253 1.415 . S
C252 C251 1.355 . S
C252 C254 1.419 . S
C253 C248 1.425 . S
C253 C250 1.409 . S
C253 C251 1.415 . S
C254 H244 0.930 . S
C254 C252 1.419 . S
C254 C255 1.362 . S
C255 H245 0.930 . S
C255 C248 1.409 . S
C255 C254 1.362 . S
H256 C262 0.930 . S
H257 C265 0.930 1_665 S
H258 C266 0.930 1_655 S
H259 C267 0.930 . S
H260 C270 0.930 . S
H261 C271 0.930 . S
C262 H256 0.930 . S
C262 C263 1.355 . S
C262 C264 1.415 . S
C263 C262 1.355 . S
C263 C265 1.419 . S
C264 C262 1.415 . S
C264 C269 1.425 . S
C264 C271 1.409 . S
C265 H257 0.930 1_445 S
C265 C263 1.419 . S
C265 C266 1.362 . S
C266 H258 0.930 1_455 S
C266 C265 1.362 . S
C266 C269 1.409 . S
C267 H259 0.930 . S
C267 C268 1.355 . S
C267 C269 1.415 . S
C268 C267 1.355 . S
C268 C270 1.419 . S
C269 C264 1.425 . S
C269 C266 1.409 . S
C269 C267 1.415 . S
C270 H260 0.930 . S
C270 C268 1.419 . S
C270 C271 1.362 . S
C271 H261 0.930 . S
C271 C264 1.409 . S
C271 C270 1.362 . S
H272 C278 0.930 . S
H273 C281 0.930 . S
H274 C282 0.930 . S
H275 C283 0.930 1_655 S
H276 C286 0.930 . S
H277 C287 0.930 . S
C278 H272 0.930 . S
C278 C279 1.355 . S
C278 C280 1.415 . S
C279 C278 1.355 . S
C279 C281 1.419 . S
C280 C278 1.415 . S
C280 C285 1.425 . S
C280 C287 1.409 . S
C281 H273 0.930 . S
C281 C279 1.419 . S
C281 C282 1.362 . S
C282 H274 0.930 . S
C282 C281 1.362 . S
C282 C285 1.409 . S
C283 H275 0.930 1_455 S
C283 C284 1.355 . S
C283 C285 1.415 . S
C284 C283 1.355 . S
C284 C286 1.419 . S
C285 C280 1.425 . S
C285 C282 1.409 . S
C285 C283 1.415 . S
C286 H276 0.930 . S
C286 C284 1.419 . S
C286 C287 1.362 . S
C287 H277 0.930 . S
C287 C280 1.409 . S
C287 C286 1.362 . S
H288 C294 0.930 . S
H289 C297 0.930 . S
H290 C298 0.930 . S
H291 C299 0.930 . S
H292 C302 0.930 . S
H293 C303 0.930 . S
C294 H288 0.930 . S
C294 C295 1.355 . S
C294 C296 1.415 . S
C295 C294 1.355 . S
C295 C297 1.419 . S
C296 C294 1.415 . S
C296 C301 1.425 . S
C296 C303 1.409 . S
C297 H289 0.930 . S
C297 C295 1.419 . S
C297 C298 1.362 . S
C298 H290 0.930 . S
C298 C297 1.362 . S
C298 C301 1.409 . S
C299 H291 0.930 . S
C299 C300 1.355 . S
C299 C301 1.415 . S
C300 C299 1.355 . S
C300 C302 1.419 . S
C301 C296 1.425 . S
C301 C298 1.409 . S
C301 C299 1.415 . S
C302 H292 0.930 . S
C302 C300 1.419 . S
C302 C303 1.362 . S
C303 H293 0.930 . S
C303 C296 1.409 . S
C303 C302 1.362 . S
H304 C310 0.930 . S
H305 C313 0.930 . S
H306 C314 0.930 1_655 S
H307 C315 0.930 . S
H308 C318 0.930 . S
H309 C319 0.930 . S
C310 H304 0.930 . S
C310 C311 1.355 . S
C310 C312 1.415 . S
C311 C310 1.355 . S
C311 C313 1.419 . S
C312 C310 1.415 . S
C312 C317 1.425 1_455 S
C312 C319 1.409 . S
C313 H305 0.930 . S
C313 C311 1.419 . S
C313 C314 1.362 . S
C314 H306 0.930 1_455 S
C314 C313 1.362 . S
C314 C317 1.409 1_455 S
C315 H307 0.930 . S
C315 C316 1.355 . S
C315 C317 1.415 . S
C316 C315 1.355 . S
C316 C318 1.419 . S
C317 C312 1.425 1_655 S
C317 C314 1.409 1_655 S
C317 C315 1.415 . S
C318 H308 0.930 . S
C318 C316 1.419 . S
C318 C319 1.362 1_655 S
C319 H309 0.930 . S
C319 C312 1.409 . S
C319 C318 1.362 1_455 S
H320 C326 0.930 . S
H321 C329 0.930 . S
H322 C330 0.930 1_565 S
H323 C331 0.930 . S
H324 C334 0.930 . S
H325 C335 0.930 . S
C326 H320 0.930 . S
C326 C327 1.355 . S
C326 C328 1.415 . S
C327 C326 1.355 . S
C327 C329 1.419 . S
C328 C326 1.415 . S
C328 C333 1.425 1_545 S
C328 C335 1.409 . S
C329 H321 0.930 . S
C329 C327 1.419 . S
C329 C330 1.362 . S
C330 H322 0.930 1_545 S
C330 C329 1.362 . S
C330 C333 1.409 1_545 S
C331 H323 0.930 . S
C331 C332 1.355 . S
C331 C333 1.415 . S
C332 C331 1.355 . S
C332 C334 1.419 . S
C333 C328 1.425 1_565 S
C333 C330 1.409 1_565 S
C333 C331 1.415 . S
C334 H324 0.930 . S
C334 C332 1.419 . S
C334 C335 1.362 1_565 S
C335 H325 0.930 . S
C335 C328 1.409 . S
C335 C334 1.362 1_545 S
H336 C342 0.930 . S
H337 C345 0.930 . S
H338 C346 0.930 . S
H339 C347 0.930 . S
H340 C350 0.930 . S
H341 C351 0.930 . S
C342 H336 0.930 . S
C342 C343 1.355 . S
C342 C344 1.415 . S
C343 C342 1.355 . S
C343 C345 1.419 . S
C344 C342 1.415 . S
C344 C349 1.425 . S
C344 C351 1.409 . S
C345 H337 0.930 . S
C345 C343 1.419 . S
C345 C346 1.362 . S
C346 H338 0.930 . S
C346 C345 1.362 . S
C346 C349 1.409 . S
C347 H339 0.930 . S
C347 C348 1.355 . S
C347 C349 1.415 1_455 S
C348 C347 1.355 . S
C348 C350 1.419 1_455 S
C349 C344 1.425 . S
C349 C346 1.409 . S
C349 C347 1.415 1_655 S
C350 H340 0.930 . S
C350 C348 1.419 1_655 S
C350 C351 1.362 . S
C351 H341 0.930 . S
C351 C344 1.409 . S
C351 C350 1.362 . S
H352 C358 0.930 . S
H353 C361 0.930 . S
H354 C362 0.930 . S
H355 C363 0.930 . S
H356 C366 0.930 . S
H357 C367 0.930 . S
C358 H352 0.930 . S
C358 C359 1.355 . S
C358 C360 1.415 . S
C359 C358 1.355 . S
C359 C361 1.419 . S
C360 C358 1.415 . S
C360 C365 1.425 . S
C360 C367 1.409 . S
C361 H353 0.930 . S
C361 C359 1.419 . S
C361 C362 1.362 . S
C362 H354 0.930 . S
C362 C361 1.362 . S
C362 C365 1.409 . S
C363 H355 0.930 . S
C363 C364 1.355 . S
C363 C365 1.415 1_545 S
C364 C363 1.355 . S
C364 C366 1.419 1_545 S
C365 C360 1.425 . S
C365 C362 1.409 . S
C365 C363 1.415 1_565 S
C366 H356 0.930 . S
C366 C364 1.419 1_565 S
C366 C367 1.362 . S
C367 H357 0.930 . S
C367 C360 1.409 . S
C367 C366 1.362 . S
H368 C374 0.930 . S
H369 C377 0.930 . S
H370 C378 0.930 . S
H371 C379 0.930 . S
H372 C382 0.930 . S
H373 C383 0.930 . S
C374 H368 0.930 . S
C374 C375 1.355 . S
C374 C376 1.415 . S
C375 C374 1.355 . S
C375 C377 1.419 . S
C376 C374 1.415 . S
C376 C381 1.425 . S
C376 C383 1.409 . S
C377 H369 0.930 . S
C377 C375 1.419 . S
C377 C378 1.362 . S
C378 H370 0.930 . S
C378 C377 1.362 . S
C378 C381 1.409 . S
C379 H371 0.930 . S
C379 C380 1.355 . S
C379 C381 1.415 . S
C380 C379 1.355 . S
C380 C382 1.419 . S
C381 C376 1.425 . S
C381 C378 1.409 . S
C381 C379 1.415 . S
C382 H372 0.930 . S
C382 C380 1.419 . S
C382 C383 1.362 . S
C383 H373 0.930 . S
C383 C376 1.409 . S
C383 C382 1.362 . S
H384 C390 0.930 . S
H385 C393 0.933 . S
H386 C394 0.930 . S
H387 C395 0.930 1_556 S
H388 C398 0.930 . S
H389 C399 0.930 . S
C390 H384 0.930 . S
C390 C391 1.355 . S
C390 C392 1.415 . S
C391 C390 1.355 . S
C391 C393 1.415 1_554 S
C392 C390 1.415 . S
C392 C397 1.425 . S
C392 C399 1.409 . S
C393 H385 0.933 . S
C393 C391 1.415 1_556 S
C393 C394 1.363 . S
C394 H386 0.930 . S
C394 C393 1.363 . S
C394 C397 1.409 1_556 S
C395 H387 0.930 1_554 S
C395 C396 1.355 . S
C395 C397 1.415 . S
C396 C395 1.355 . S
C396 C398 1.419 . S
C397 C392 1.425 . S
C397 C394 1.409 1_554 S
C397 C395 1.415 . S
C398 H388 0.930 . S
C398 C396 1.419 . S
C398 C399 1.362 . S
C399 H389 0.930 . S
C399 C392 1.409 . S
C399 C398 1.362 . S
H400 C406 0.930 . S
H401 C409 0.930 . S
H402 C410 0.930 . S
H403 C411 0.930 . S
H404 C414 0.930 . S
H405 C415 0.930 . S
C406 H400 0.930 . S
C406 C407 1.355 . S
C406 C408 1.415 . S
C407 C406 1.355 . S
C407 C409 1.419 . S
C408 C406 1.415 . S
C408 C413 1.425 . S
C408 C415 1.409 . S
C409 H401 0.930 . S
C409 C407 1.419 . S
C409 C410 1.362 . S
C410 H402 0.930 . S
C410 C409 1.362 . S
C410 C413 1.409 . S
C411 H403 0.930 . S
C411 C412 1.355 . S
C411 C413 1.415 . S
C412 C411 1.355 . S
C412 C414 1.419 . S
C413 C408 1.425 . S
C413 C410 1.409 . S
C413 C411 1.415 . S
C414 H404 0.930 . S
C414 C412 1.419 . S
C414 C415 1.362 . S
C415 H405 0.930 . S
C415 C408 1.409 . S
C415 C414 1.362 . S
H416 C422 0.930 . S
H417 C425 0.930 1_655 S
H418 C426 0.930 . S
H419 C427 0.930 . S
H420 C430 0.930 . S
H421 C431 0.930 . S
C422 H416 0.930 . S
C422 C423 1.355 . S
C422 C424 1.415 . S
C423 C422 1.355 . S
C423 C425 1.419 . S
C424 C422 1.415 . S
C424 C429 1.425 . S
C424 C431 1.409 . S
C425 H417 0.930 1_455 S
C425 C423 1.419 . S
C425 C426 1.362 . S
C426 H418 0.930 . S
C426 C425 1.362 . S
C426 C429 1.409 . S
C427 H419 0.930 . S
C427 C428 1.355 . S
C427 C429 1.415 . S
C428 C427 1.355 . S
C428 C430 1.419 . S
C429 C424 1.425 . S
C429 C426 1.409 . S
C429 C427 1.415 . S
C430 H420 0.930 . S
C430 C428 1.419 . S
C430 C431 1.362 . S
C431 H421 0.930 . S
C431 C424 1.409 . S
C431 C430 1.362 . S
H432 C438 0.930 . S
H433 C441 0.930 . S
H434 C442 0.930 . S
H435 C443 0.930 . S
H436 C446 0.930 . S
H437 C447 0.930 . S
C438 H432 0.930 . S
C438 C439 1.355 . S
C438 C440 1.415 . S
C439 C438 1.355 . S
C439 C441 1.419 . S
C440 C438 1.415 . S
C440 C445 1.425 . S
C440 C447 1.409 . S
C441 H433 0.930 . S
C441 C439 1.419 . S
C441 C442 1.362 . S
C442 H434 0.930 . S
C442 C441 1.362 . S
C442 C445 1.409 . S
C443 H435 0.930 . S
C443 C444 1.355 . S
C443 C445 1.415 . S
C444 C443 1.355 . S
C444 C446 1.419 . S
C445 C440 1.425 . S
C445 C442 1.409 . S
C445 C443 1.415 . S
C446 H436 0.930 . S
C446 C444 1.419 . S
C446 C447 1.362 . S
C447 H437 0.930 . S
C447 C440 1.409 . S
C447 C446 1.362 . S
H448 C454 0.930 . S
H449 C457 0.930 . S
H450 C458 0.930 . S
H451 C459 0.930 . S
H452 C462 0.930 . S
H453 C463 0.930 . S
C454 H448 0.930 . S
C454 C455 1.355 . S
C454 C456 1.415 . S
C455 C454 1.355 . S
C455 C457 1.419 . S
C456 C454 1.415 . S
C456 C461 1.425 . S
C456 C463 1.409 . S
C457 H449 0.930 . S
C457 C455 1.419 . S
C457 C458 1.362 . S
C458 H450 0.930 . S
C458 C457 1.362 . S
C458 C461 1.409 . S
C459 H451 0.930 . S
C459 C460 1.355 . S
C459 C461 1.415 . S
C460 C459 1.355 . S
C460 C462 1.419 . S
C461 C456 1.425 . S
C461 C458 1.409 . S
C461 C459 1.415 . S
C462 H452 0.930 . S
C462 C460 1.419 . S
C462 C463 1.362 . S
C463 H453 0.930 . S
C463 C456 1.409 . S
C463 C462 1.362 . S
H464 C470 0.930 . S
H465 C473 0.930 1_455 S
H466 C474 0.930 1_455 S
H467 C475 0.930 . S
H468 C478 0.930 . S
H469 C479 0.930 . S
C470 H464 0.930 . S
C470 C471 1.355 . S
C470 C472 1.415 . S
C471 C470 1.355 . S
C471 C473 1.419 . S
C472 C470 1.415 . S
C472 C477 1.425 . S
C472 C479 1.409 . S
C473 H465 0.930 1_655 S
C473 C471 1.419 . S
C473 C474 1.362 . S
C474 H466 0.930 1_655 S
C474 C473 1.362 . S
C474 C477 1.409 . S
C475 H467 0.930 . S
C475 C476 1.355 . S
C475 C477 1.415 . S
C476 C475 1.355 . S
C476 C478 1.419 . S
C477 C472 1.425 . S
C477 C474 1.409 . S
C477 C475 1.415 . S
C478 H468 0.930 . S
C478 C476 1.419 . S
C478 C479 1.362 . S
C479 H469 0.930 . S
C479 C472 1.409 . S
C479 C478 1.362 . S
H480 C486 0.930 . S
H481 C489 0.930 1_545 S
H482 C490 0.930 1_545 S
H483 C491 0.930 . S
H484 C494 0.930 . S
H485 C495 0.930 . S
C486 H480 0.930 . S
C486 C487 1.355 . S
C486 C488 1.415 . S
C487 C486 1.355 . S
C487 C489 1.419 . S
C488 C486 1.415 . S
C488 C493 1.425 . S
C488 C495 1.409 . S
C489 H481 0.930 1_565 S
C489 C487 1.419 . S
C489 C490 1.362 . S
C490 H482 0.930 1_565 S
C490 C489 1.362 . S
C490 C493 1.409 . S
C491 H483 0.930 . S
C491 C492 1.355 . S
C491 C493 1.415 . S
C492 C491 1.355 . S
C492 C494 1.419 . S
C493 C488 1.425 . S
C493 C490 1.409 . S
C493 C491 1.415 . S
C494 H484 0.930 . S
C494 C492 1.419 . S
C494 C495 1.362 . S
C495 H485 0.930 . S
C495 C488 1.409 . S
C495 C494 1.362 . S
H496 C502 0.930 . S
H497 C505 0.930 . S
H498 C506 0.930 1_655 S
H499 C507 0.930 . S
H500 C510 0.930 . S
H501 C511 0.930 . S
C502 H496 0.930 . S
C502 C503 1.355 . S
C502 C504 1.415 . S
C503 C502 1.355 . S
C503 C505 1.419 1_455 S
C504 C502 1.415 . S
C504 C509 1.425 . S
C504 C511 1.409 . S
C505 H497 0.930 . S
C505 C503 1.419 1_655 S
C505 C506 1.362 1_655 S
C506 H498 0.930 1_455 S
C506 C505 1.362 1_455 S
C506 C509 1.409 . S
C507 H499 0.930 . S
C507 C508 1.355 . S
C507 C509 1.415 . S
C508 C507 1.355 . S
C508 C510 1.419 . S
C509 C504 1.425 . S
C509 C506 1.409 . S
C509 C507 1.415 . S
C510 H500 0.930 . S
C510 C508 1.419 . S
C510 C511 1.362 . S
C511 H501 0.930 . S
C511 C504 1.409 . S
C511 C510 1.362 . S
H512 C518 0.930 . S
H513 C521 0.930 1_565 S
H514 C522 0.930 1_565 S
H515 C523 0.930 . S
H516 C526 0.930 . S
H517 C527 0.930 . S
C518 H512 0.930 . S
C518 C519 1.355 . S
C518 C520 1.415 . S
C519 C518 1.355 . S
C519 C521 1.419 . S
C520 C518 1.415 . S
C520 C525 1.425 . S
C520 C527 1.409 . S
C521 H513 0.930 1_545 S
C521 C519 1.419 . S
C521 C522 1.362 . S
C522 H514 0.930 1_545 S
C522 C521 1.362 . S
C522 C525 1.409 . S
C523 H515 0.930 . S
C523 C524 1.355 . S
C523 C525 1.415 . S
C524 C523 1.355 . S
C524 C526 1.419 . S
C525 C520 1.425 . S
C525 C522 1.409 . S
C525 C523 1.415 . S
C526 H516 0.930 . S
C526 C524 1.419 . S
C526 C527 1.362 . S
C527 H517 0.930 . S
C527 C520 1.409 . S
C527 C526 1.362 . S
C247 C137 1.058 1_455 S
C252 C17 1.033 . S
C263 C177 0.873 1_545 S
C268 C57 0.900 . S
C279 C217 0.882 . S
C284 C97 0.921 . S
C295 C29 0.992 . S
C300 C88 1.023 . S
C311 C69 0.885 . S
C316 C128 0.835 . S
C327 C109 1.031 . S
C332 C168 0.999 . S
C343 C149 0.837 . S
C348 C208 0.876 . S
C359 C189 0.892 . S
C364 C8 0.948 . S
C375 C229 1.017 . S
C380 C48 0.970 . S
C391 C2 1.735 . S
C396 C122 1.759 1_545 S
C407 C42 1.733 . S
C412 C162 1.748 . S
C423 C82 1.790 1_455 S
C428 C202 1.803 . S
C439 C31 4.106 . S
C444 C52 4.125 . S
C455 C71 4.108 . S
C460 C92 4.130 . S
C471 C111 4.098 . S
C476 C132 4.125 . S
C487 C151 4.094 . S
C492 C172 4.129 . S
C503 C191 4.103 . S
C508 C212 4.125 . S
C519 C231 4.104 . S
C524 C12 4.125 . S
