# Generated by pormake.
# Topology yfj, (5)-cn, num edge types: 1
# Building blocks:
#     Node 0, Type 0, BuildingBlock: XOMCOT_clean_sbu_1, # of connection points: 5
#     Node 1, Type 0, BuildingBlock: XOMCOT_clean_sbu_1, # of connection points: 5
#     Node 2, Type 0, BuildingBlock: XOMCOT_clean_sbu_1, # of connection points: 5
#     Node 3, Type 0, BuildingBlock: XOMCOT_clean_sbu_1, # of connection points: 5
#     Node 4, Type 0, BuildingBlock: XOMCOT_clean_sbu_1, # of connection points: 5
#     Node 5, Type 0, BuildingBlock: XOMCOT_clean_sbu_1, # of connection points: 5
#     Node 6, Type 0, BuildingBlock: XOMCOT_clean_sbu_1, # of connection points: 5
#     Node 7, Type 0, BuildingBlock: XOMCOT_clean_sbu_1, # of connection points: 5
#     Node 8, Type 0, BuildingBlock: XOMCOT_clean_sbu_1, # of connection points: 5
#     Node 9, Type 0, BuildingBlock: XOMCOT_clean_sbu_1, # of connection points: 5
#     Node 10, Type 0, BuildingBlock: XOMCOT_clean_sbu_1, # of connection points: 5
#     Node 11, Type 0, BuildingBlock: XOMCOT_clean_sbu_1, # of connection points: 5
#     Node 12, Type 0, BuildingBlock: XOMCOT_clean_sbu_1, # of connection points: 5
#     Node 13, Type 0, BuildingBlock: XOMCOT_clean_sbu_1, # of connection points: 5
#     Node 14, Type 0, BuildingBlock: XOMCOT_clean_sbu_1, # of connection points: 5
#     Node 15, Type 0, BuildingBlock: XOMCOT_clean_sbu_1, # of connection points: 5
#     Edge 16, Type (0, 0), BuildingBlock: MIFKUJ_clean_linker_0, # of connection points: 2
#     Edge 17, Type (0, 0), BuildingBlock: MIFKUJ_clean_linker_0, # of connection points: 2
#     Edge 18, Type (0, 0), BuildingBlock: MIFKUJ_clean_linker_0, # of connection points: 2
#     Edge 19, Type (0, 0), BuildingBlock: MIFKUJ_clean_linker_0, # of connection points: 2
#     Edge 20, Type (0, 0), BuildingBlock: MIFKUJ_clean_linker_0, # of connection points: 2
#     Edge 21, Type (0, 0), BuildingBlock: MIFKUJ_clean_linker_0, # of connection points: 2
#     Edge 22, Type (0, 0), BuildingBlock: MIFKUJ_clean_linker_0, # of connection points: 2
#     Edge 23, Type (0, 0), BuildingBlock: MIFKUJ_clean_linker_0, # of connection points: 2
#     Edge 24, Type (0, 0), BuildingBlock: MIFKUJ_clean_linker_0, # of connection points: 2
#     Edge 25, Type (0, 0), BuildingBlock: MIFKUJ_clean_linker_0, # of connection points: 2
#     Edge 26, Type (0, 0), BuildingBlock: MIFKUJ_clean_linker_0, # of connection points: 2
#     Edge 27, Type (0, 0), BuildingBlock: MIFKUJ_clean_linker_0, # of connection points: 2
#     Edge 28, Type (0, 0), BuildingBlock: MIFKUJ_clean_linker_0, # of connection points: 2
#     Edge 29, Type (0, 0), BuildingBlock: MIFKUJ_clean_linker_0, # of connection points: 2
#     Edge 30, Type (0, 0), BuildingBlock: MIFKUJ_clean_linker_0, # of connection points: 2
#     Edge 31, Type (0, 0), BuildingBlock: MIFKUJ_clean_linker_0, # of connection points: 2
#     Edge 32, Type (0, 0), BuildingBlock: MIFKUJ_clean_linker_0, # of connection points: 2
#     Edge 33, Type (0, 0), BuildingBlock: MIFKUJ_clean_linker_0, # of connection points: 2
#     Edge 34, Type (0, 0), BuildingBlock: MIFKUJ_clean_linker_0, # of connection points: 2
#     Edge 35, Type (0, 0), BuildingBlock: MIFKUJ_clean_linker_0, # of connection points: 2
#     Edge 36, Type (0, 0), BuildingBlock: MIFKUJ_clean_linker_0, # of connection points: 2
#     Edge 37, Type (0, 0), BuildingBlock: MIFKUJ_clean_linker_0, # of connection points: 2
#     Edge 38, Type (0, 0), BuildingBlock: MIFKUJ_clean_linker_0, # of connection points: 2
#     Edge 39, Type (0, 0), BuildingBlock: MIFKUJ_clean_linker_0, # of connection points: 2
#     Edge 40, Type (0, 0), BuildingBlock: MIFKUJ_clean_linker_0, # of connection points: 2
#     Edge 41, Type (0, 0), BuildingBlock: MIFKUJ_clean_linker_0, # of connection points: 2
#     Edge 42, Type (0, 0), BuildingBlock: MIFKUJ_clean_linker_0, # of connection points: 2
#     Edge 43, Type (0, 0), BuildingBlock: MIFKUJ_clean_linker_0, # of connection points: 2
#     Edge 44, Type (0, 0), BuildingBlock: MIFKUJ_clean_linker_0, # of connection points: 2
#     Edge 45, Type (0, 0), BuildingBlock: MIFKUJ_clean_linker_0, # of connection points: 2
#     Edge 46, Type (0, 0), BuildingBlock: MIFKUJ_clean_linker_0, # of connection points: 2
#     Edge 47, Type (0, 0), BuildingBlock: MIFKUJ_clean_linker_0, # of connection points: 2
#     Edge 48, Type (0, 0), BuildingBlock: MIFKUJ_clean_linker_0, # of connection points: 2
#     Edge 49, Type (0, 0), BuildingBlock: MIFKUJ_clean_linker_0, # of connection points: 2
#     Edge 50, Type (0, 0), BuildingBlock: MIFKUJ_clean_linker_0, # of connection points: 2
#     Edge 51, Type (0, 0), BuildingBlock: MIFKUJ_clean_linker_0, # of connection points: 2
#     Edge 52, Type (0, 0), BuildingBlock: MIFKUJ_clean_linker_0, # of connection points: 2
#     Edge 53, Type (0, 0), BuildingBlock: MIFKUJ_clean_linker_0, # of connection points: 2
#     Edge 54, Type (0, 0), BuildingBlock: MIFKUJ_clean_linker_0, # of connection points: 2
#     Edge 55, Type (0, 0), BuildingBlock: MIFKUJ_clean_linker_0, # of connection points: 2
# Relax obj value: 0.478
# Max RMSD: 0.235
# Mean RMSD: 0.235
data_MOF--net-yfj--node1-XOMCOT_clean_sbu_1--edge1-MIFKUJ_clean_linker_0
_symmetry_space_group_name_H-M    P1
_symmetry_Int_Tables_number       1
_symmetry_cell_setting            triclinic
loop_
_symmetry_equiv_pos_as_xyz
'x, y, z'
_cell_length_a     62.156946
_cell_length_b     62.00799
_cell_length_c     55.41221
_cell_angle_alpha  89.91377
_cell_angle_beta   89.97474
_cell_angle_gamma 89.928836
loop_
_atom_site_label
_atom_site_type_symbol
_atom_site_fract_x
_atom_site_fract_y
_atom_site_fract_z
_atom_type_partial_charge
C0 C 0.10487 0.10219 0.34129 0.0
C1 C 0.10429 0.09606 0.36518 0.0
N2 N 0.11138 0.11264 0.3788 0.0
N3 N 0.11207 0.12263 0.33973 0.0
C4 C 0.11609 0.12844 0.36279 0.0
H5 H 0.10058 0.09228 0.32599 0.0
Co6 Co 0.11739 0.13808 0.31121 0.0
C7 C 0.10521 0.1838 0.32645 0.0
O8 O 0.09376 0.18793 0.30708 0.0
N9 N 0.12381 0.15328 0.28171 0.0
C10 C 0.12186 0.16838 0.24505 0.0
C11 C 0.11045 0.16263 0.26548 0.0
C12 C 0.14333 0.15403 0.2706 0.0
N13 N 0.1426 0.16293 0.24837 0.0
O14 O 0.14644 0.13819 0.31933 0.0
H15 H 0.09324 0.16426 0.26767 0.0
H16 H 0.15787 0.14715 0.27788 0.0
O17 O 0.11393 0.16528 0.32904 0.0
C18 C 0.15533 0.12046 0.31357 0.0
O19 O 0.14401 0.10585 0.30204 0.0
N20 N 0.08835 0.13522 0.30299 0.0
C21 C 0.05229 0.10848 0.30015 0.0
C22 C 0.05351 0.12486 0.31772 0.0
C23 C 0.07175 0.13823 0.31879 0.0
C24 C 0.08644 0.12091 0.28448 0.0
C25 C 0.06852 0.1076 0.28257 0.0
H26 H 0.07375 0.14881 0.33411 0.0
H27 H 0.10012 0.11775 0.27295 0.0
H28 H 0.12261 0.14391 0.36765 0.0
H29 H 0.09941 0.08039 0.37181 0.0
H30 H 0.11528 0.17551 0.22881 0.0
H31 H 0.04132 0.12625 0.3316 0.0
H32 H 0.0687 0.09509 0.26896 0.0
C33 C 0.86319 0.57654 0.59861 0.0
C34 C 0.865 0.57309 0.62307 0.0
N35 N 0.86458 0.59231 0.63427 0.0
N36 N 0.86231 0.59796 0.59409 0.0
C37 C 0.86241 0.60699 0.61642 0.0
H38 H 0.86173 0.56391 0.58543 0.0
Co39 Co 0.8582 0.61331 0.56469 0.0
C40 C 0.81354 0.62301 0.57578 0.0
O41 O 0.80803 0.61066 0.55759 0.0
N42 N 0.85332 0.62867 0.53586 0.0
C43 C 0.84267 0.63452 0.49815 0.0
C44 C 0.84221 0.62033 0.51726 0.0
C45 C 0.86041 0.64806 0.52762 0.0
N46 N 0.85427 0.652 0.50452 0.0
O47 O 0.87569 0.63658 0.57682 0.0
H48 H 0.83463 0.60464 0.51744 0.0
H49 H 0.87062 0.65869 0.53797 0.0
O50 O 0.83339 0.62667 0.57986 0.0
C51 C 0.8935 0.63675 0.58833 0.0
O52 O 0.90321 0.61855 0.59391 0.0
N53 N 0.88265 0.59982 0.54971 0.0
C54 C 0.92042 0.5784 0.53643 0.0
C55 C 0.90113 0.56697 0.53932 0.0
C56 C 0.88224 0.57815 0.54544 0.0
C57 C 0.90032 0.61136 0.54256 0.0
C58 C 0.91959 0.60096 0.53679 0.0
H59 H 0.86737 0.56936 0.5474 0.0
H60 H 0.9001 0.62876 0.54247 0.0
H61 H 0.86103 0.62416 0.61954 0.0
H62 H 0.86589 0.55756 0.63195 0.0
H63 H 0.83508 0.63197 0.48083 0.0
H64 H 0.90082 0.54955 0.53797 0.0
H65 H 0.93385 0.61047 0.53326 0.0
C66 C 0.38099 0.41723 0.84481 0.0
C67 C 0.38333 0.42282 0.86864 0.0
N68 N 0.38106 0.40487 0.88213 0.0
N69 N 0.37748 0.39584 0.84322 0.0
C70 C 0.37733 0.38875 0.86629 0.0
H71 H 0.38234 0.42796 0.82947 0.0
Co72 Co 0.37537 0.38155 0.81384 0.0
C73 C 0.36925 0.33677 0.83126 0.0
O74 O 0.35219 0.33629 0.81729 0.0
N75 N 0.37212 0.36843 0.78343 0.0
C76 C 0.36616 0.34679 0.75213 0.0
C77 C 0.37729 0.34921 0.77365 0.0
C78 C 0.35872 0.37759 0.76716 0.0
N79 N 0.35414 0.36464 0.74828 0.0
O80 O 0.34572 0.37749 0.81884 0.0
H81 H 0.38725 0.33715 0.78229 0.0
H82 H 0.35179 0.39338 0.76972 0.0
O83 O 0.38159 0.35339 0.83051 0.0
C84 C 0.33253 0.39256 0.81404 0.0
O85 O 0.33966 0.41223 0.81041 0.0
N86 N 0.40456 0.38751 0.80793 0.0
C87 C 0.43999 0.41505 0.8068 0.0
C88 C 0.4377 0.39982 0.82543 0.0
C89 C 0.42 0.38575 0.82538 0.0
C90 C 0.40761 0.40093 0.78869 0.0
C91 C 0.42541 0.41457 0.78759 0.0
H92 H 0.4173 0.3755 0.84089 0.0
H93 H 0.39503 0.40301 0.77546 0.0
H94 H 0.37533 0.37202 0.87138 0.0
H95 H 0.38656 0.43882 0.8755 0.0
H96 H 0.36595 0.33243 0.74106 0.0
H97 H 0.44864 0.3998 0.84064 0.0
H98 H 0.42645 0.42626 0.77308 0.0
C99 C 0.65203 0.87051 0.11459 0.0
C100 C 0.64779 0.87496 0.13817 0.0
N101 N 0.64128 0.89549 0.13961 0.0
N102 N 0.64817 0.88805 0.10057 0.0
C103 C 0.64176 0.90332 0.11675 0.0
H104 H 0.65705 0.85489 0.108 0.0
Co105 Co 0.65201 0.88455 0.06641 0.0
C106 C 0.69397 0.88075 0.07836 0.0
O107 O 0.69169 0.90146 0.07395 0.0
N108 N 0.65585 0.87921 0.03312 0.0
C109 C 0.65683 0.8822 0.99312 0.0
C110 C 0.65766 0.89332 0.01473 0.0
C111 C 0.65442 0.85967 0.02223 0.0
N112 N 0.6546 0.86094 0.99784 0.0
O113 O 0.63466 0.85878 0.06826 0.0
H114 H 0.65853 0.91063 0.01686 0.0
H115 H 0.65222 0.84477 0.03206 0.0
O116 O 0.67811 0.86839 0.07359 0.0
C117 C 0.6164 0.85519 0.07794 0.0
O118 O 0.60642 0.87048 0.08997 0.0
N119 N 0.62765 0.90214 0.05907 0.0
C120 C 0.59373 0.93093 0.04997 0.0
C121 C 0.61289 0.93803 0.0607 0.0
C122 C 0.62973 0.92343 0.06474 0.0
C123 C 0.61004 0.89546 0.04628 0.0
C124 C 0.59264 0.90941 0.04225 0.0
H125 H 0.64458 0.92913 0.07264 0.0
H126 H 0.60925 0.87926 0.0392 0.0
H127 H 0.63694 0.91953 0.11214 0.0
H128 H 0.64902 0.86383 0.1532 0.0
H129 H 0.65734 0.8894 0.97533 0.0
H130 H 0.61472 0.95464 0.06637 0.0
H131 H 0.57855 0.90346 0.0329 0.0
C132 C 0.12168 0.40151 0.92236 0.0
C133 C 0.11861 0.407 0.89858 0.0
N134 N 0.12208 0.38938 0.88488 0.0
N135 N 0.12682 0.38043 0.92385 0.0
C136 C 0.12694 0.37348 0.90072 0.0
H137 H 0.12124 0.41245 0.93754 0.0
Co138 Co 0.13666 0.36684 0.95202 0.0
C139 C 0.11231 0.32325 0.94164 0.0
O140 O 0.0974 0.32214 0.95841 0.0
N141 N 0.14748 0.3541 0.98025 0.0
C142 C 0.15226 0.33675 0.01497 0.0
C143 C 0.13878 0.3395 0.99541 0.0
C144 C 0.16614 0.35999 0.99096 0.0
N145 N 0.16952 0.34972 0.01221 0.0
O146 O 0.16172 0.35877 0.93546 0.0
H147 H 0.12335 0.33188 0.99294 0.0
H148 H 0.17662 0.3723 0.98367 0.0
O149 O 0.12501 0.3394 0.94092 0.0
C150 C 0.17412 0.37314 0.92704 0.0
O151 O 0.17225 0.39302 0.93498 0.0
N152 N 0.11166 0.37585 0.96815 0.0
C153 C 0.08015 0.40603 0.98031 0.0
C154 C 0.07549 0.38911 0.96428 0.0
C155 C 0.09156 0.3741 0.95838 0.0
C156 C 0.11569 0.39075 0.98562 0.0
C157 C 0.10011 0.40588 0.9921 0.0
H158 H 0.08868 0.36299 0.94374 0.0
H159 H 0.13181 0.39255 0.99266 0.0
H160 H 0.13152 0.35736 0.89555 0.0
H161 H 0.11532 0.42307 0.89187 0.0
H162 H 0.14939 0.32614 0.03014 0.0
H163 H 0.06036 0.3887 0.9546 0.0
H164 H 0.10429 0.41841 1.00487 0.0
C165 C 0.59625 0.61218 0.17157 0.0
C166 C 0.59118 0.60945 0.14762 0.0
N167 N 0.60673 0.61865 0.13406 0.0
N168 N 0.61513 0.6227 0.17326 0.0
C169 C 0.62108 0.62649 0.15018 0.0
H170 H 0.58644 0.60742 0.1868 0.0
Co171 Co 0.62774 0.63365 0.20137 0.0
C172 C 0.67183 0.64186 0.18581 0.0
O173 O 0.66971 0.66078 0.19619 0.0
N174 N 0.63984 0.64535 0.22967 0.0
C175 C 0.65905 0.65133 0.26283 0.0
C176 C 0.65629 0.63793 0.2432 0.0
C177 C 0.63279 0.6631 0.24149 0.0
N178 N 0.64423 0.66723 0.26172 0.0
O179 O 0.62713 0.66109 0.18696 0.0
H180 H 0.66561 0.62365 0.23911 0.0
H181 H 0.61912 0.67254 0.23565 0.0
O182 O 0.6565 0.6281 0.18739 0.0
C183 C 0.60807 0.66855 0.18656 0.0
O184 O 0.59302 0.65841 0.19879 0.0
N185 N 0.62572 0.60642 0.21586 0.0
C186 C 0.59976 0.57082 0.22474 0.0
C187 C 0.61682 0.56939 0.20813 0.0
C188 C 0.62991 0.58754 0.20404 0.0
C189 C 0.61127 0.60693 0.23436 0.0
C190 C 0.59826 0.58923 0.23923 0.0
H191 H 0.64097 0.58742 0.18895 0.0
H192 H 0.60752 0.62204 0.24312 0.0
H193 H 0.63506 0.63596 0.14547 0.0
H194 H 0.57683 0.60167 0.14092 0.0
H195 H 0.67115 0.64953 0.27671 0.0
H196 H 0.61847 0.55541 0.19658 0.0
H197 H 0.58548 0.59083 0.25242 0.0
C198 C 0.39663 0.09277 0.42545 0.0
C199 C 0.39978 0.08789 0.40143 0.0
N200 N 0.39503 0.10553 0.38831 0.0
N201 N 0.38961 0.11329 0.42733 0.0
C202 C 0.38887 0.12064 0.40434 0.0
H203 H 0.39822 0.08174 0.44049 0.0
Co204 Co 0.37864 0.12609 0.45543 0.0
C205 C 0.39152 0.17217 0.4411 0.0
O206 O 0.40661 0.17458 0.45745 0.0
N207 N 0.36646 0.13836 0.48377 0.0
C208 C 0.3594 0.15762 0.51675 0.0
C209 C 0.37316 0.15503 0.49745 0.0
C210 C 0.34869 0.131 0.49542 0.0
N211 N 0.34391 0.14247 0.5155 0.0
O212 O 0.3512 0.1234 0.44204 0.0
H213 H 0.38743 0.16442 0.4942 0.0
H214 H 0.33967 0.11707 0.48965 0.0
O215 O 0.38087 0.15458 0.44004 0.0
C216 C 0.34339 0.1045 0.44325 0.0
O217 O 0.35341 0.08951 0.45568 0.0
N218 N 0.40644 0.12652 0.46874 0.0
C219 C 0.44421 0.10399 0.4781 0.0
C220 C 0.44319 0.11864 0.45884 0.0
C221 C 0.42415 0.13007 0.45463 0.0
C222 C 0.4081 0.1143 0.48915 0.0
C223 C 0.42702 0.1031 0.49437 0.0
H224 H 0.42269 0.13902 0.43795 0.0
H225 H 0.39392 0.11069 0.4997 0.0
H226 H 0.38238 0.13614 0.39918 0.0
H227 H 0.40432 0.07237 0.39408 0.0
H228 H 0.36078 0.16982 0.5306 0.0
H229 H 0.45616 0.11958 0.44581 0.0
H230 H 0.42713 0.09174 0.50925 0.0
C231 C 0.91047 0.88533 0.67861 0.0
C232 C 0.91683 0.88788 0.65498 0.0
N233 N 0.89994 0.88329 0.64068 0.0
N234 N 0.88968 0.87913 0.67921 0.0
C235 C 0.88369 0.87804 0.65578 0.0
H236 H 0.92048 0.88739 0.69441 0.0
Co237 Co 0.87498 0.8706 0.70719 0.0
C238 C 0.83101 0.88671 0.68962 0.0
O239 O 0.83014 0.9034 0.70417 0.0
N240 N 0.86101 0.86074 0.73559 0.0
C241 C 0.83889 0.85277 0.76598 0.0
C242 C 0.84154 0.86495 0.7453 0.0
C243 C 0.86987 0.84613 0.7509 0.0
N244 N 0.85679 0.84087 0.7695 0.0
O245 O 0.87623 0.84214 0.69598 0.0
H246 H 0.82986 0.87604 0.73802 0.0
H247 H 0.88562 0.83921 0.74826 0.0
O248 O 0.84725 0.87403 0.6903 0.0
C249 C 0.89471 0.83386 0.69937 0.0
O250 O 0.90925 0.84491 0.71132 0.0
N251 N 0.87615 0.89917 0.71882 0.0
C252 C 0.90248 0.93463 0.72754 0.0
C253 C 0.88865 0.93445 0.70752 0.0
C254 C 0.8754 0.91652 0.70353 0.0
C255 C 0.88716 0.90063 0.74005 0.0
C256 C 0.90024 0.91833 0.74487 0.0
H257 H 0.86733 0.91523 0.68632 0.0
H258 H 0.88848 0.88685 0.75187 0.0
H259 H 0.86801 0.87266 0.64981 0.0
H260 H 0.93264 0.89266 0.64877 0.0
H261 H 0.82488 0.85284 0.77756 0.0
H262 H 0.88987 0.94671 0.69364 0.0
H263 H 0.9103 0.91807 0.76083 0.0
C264 C 0.59477 0.61482 0.83898 0.0
C265 C 0.59239 0.61001 0.8631 0.0
N266 N 0.60055 0.62646 0.87605 0.0
N267 N 0.60398 0.63441 0.83674 0.0
C268 C 0.60761 0.64094 0.85965 0.0
H269 H 0.59019 0.60466 0.82398 0.0
Co270 Co 0.61202 0.64813 0.80787 0.0
C271 C 0.5993 0.69294 0.82762 0.0
O272 O 0.58085 0.69497 0.8163 0.0
N273 N 0.62146 0.66128 0.77903 0.0
C274 C 0.62858 0.68251 0.74756 0.0
C275 C 0.61556 0.67958 0.76759 0.0
C276 C 0.63788 0.65341 0.76558 0.0
N277 N 0.64279 0.66607 0.74651 0.0
O278 O 0.6406 0.64599 0.81767 0.0
H279 H 0.60286 0.69024 0.77352 0.0
H280 H 0.64619 0.63853 0.76969 0.0
O281 O 0.61085 0.67615 0.82433 0.0
C282 C 0.64818 0.62699 0.81708 0.0
O283 O 0.63623 0.611 0.80928 0.0
N284 N 0.58286 0.64812 0.79753 0.0
C285 C 0.54808 0.62004 0.79193 0.0
C286 C 0.54906 0.6342 0.81175 0.0
C287 C 0.56636 0.64864 0.81387 0.0
C288 C 0.58014 0.63734 0.77629 0.0
C289 C 0.56262 0.62363 0.77291 0.0
H290 H 0.56837 0.65699 0.83083 0.0
H291 H 0.59298 0.63665 0.76318 0.0
H292 H 0.61538 0.65598 0.86425 0.0
H293 H 0.58567 0.59533 0.87051 0.0
H294 H 0.62803 0.69601 0.73518 0.0
H295 H 0.53817 0.63255 0.82687 0.0
H296 H 0.56192 0.61421 0.7565 0.0
C297 C 0.34952 0.08907 0.09774 0.0
C298 C 0.35087 0.08512 0.12211 0.0
N299 N 0.35907 0.10271 0.13288 0.0
N300 N 0.35745 0.10885 0.09275 0.0
C301 C 0.36244 0.11697 0.11481 0.0
H302 H 0.34187 0.07855 0.08488 0.0
Co303 Co 0.35542 0.1232 0.06257 0.0
C304 C 0.31307 0.13287 0.07595 0.0
O305 O 0.30896 0.11572 0.06284 0.0
N306 N 0.35246 0.13758 0.03271 0.0
C307 C 0.34214 0.14292 0.99478 0.0
C308 C 0.34162 0.12894 0.01409 0.0
C309 C 0.35951 0.15694 0.02425 0.0
N310 N 0.35338 0.16066 1.00107 0.0
O311 O 0.37555 0.14491 0.07295 0.0
H312 H 0.33392 0.11331 0.01452 0.0
H313 H 0.36879 0.16818 0.0349 0.0
O314 O 0.33229 0.14007 0.07647 0.0
C315 C 0.3939 0.145 0.08327 0.0
O316 O 0.40307 0.1268 0.08986 0.0
N317 N 0.37779 0.10565 0.04897 0.0
C318 C 0.41128 0.07677 0.03804 0.0
C319 C 0.39015 0.06943 0.04191 0.0
C320 C 0.37367 0.08415 0.04699 0.0
C321 C 0.39716 0.11334 0.04104 0.0
C322 C 0.41433 0.09923 0.03639 0.0
H323 H 0.35757 0.07821 0.04972 0.0
H324 H 0.39989 0.13047 0.03944 0.0
H325 H 0.36713 0.13351 0.11791 0.0
H326 H 0.34571 0.07057 0.13122 0.0
H327 H 0.33504 0.13998 0.97727 0.0
H328 H 0.38632 0.05242 0.04145 0.0
H329 H 0.42998 0.10605 0.03258 0.0
C330 C 0.89542 0.90413 0.3442 0.0
C331 C 0.89726 0.91025 0.36797 0.0
N332 N 0.89271 0.89308 0.38202 0.0
N333 N 0.88994 0.88312 0.34319 0.0
C334 C 0.88814 0.87692 0.36652 0.0
H335 H 0.89828 0.91421 0.32858 0.0
Co336 Co 0.88645 0.8671 0.31475 0.0
C337 C 0.90347 0.82486 0.33727 0.0
O338 O 0.92144 0.82394 0.32482 0.0
N339 N 0.88167 0.85151 0.28568 0.0
C340 C 0.87428 0.82602 0.25856 0.0
C341 C 0.88546 0.83081 0.27943 0.0
C342 C 0.86856 0.85895 0.26792 0.0
N343 N 0.86341 0.84375 0.25143 0.0
O344 O 0.85681 0.86565 0.32074 0.0
H345 H 0.89462 0.81938 0.28988 0.0
H346 H 0.86174 0.87496 0.26792 0.0
O347 O 0.89019 0.84029 0.33357 0.0
C348 C 0.84751 0.88279 0.31364 0.0
O349 O 0.85928 0.89866 0.3051 0.0
N350 N 0.91591 0.87099 0.30784 0.0
C351 C 0.94996 0.90042 0.30481 0.0
C352 C 0.94858 0.88577 0.32418 0.0
C353 C 0.9314 0.87112 0.32537 0.0
C354 C 0.91854 0.88318 0.28755 0.0
C355 C 0.93541 0.89793 0.28564 0.0
H356 H 0.92896 0.86234 0.342 0.0
H357 H 0.90591 0.88393 0.27421 0.0
H358 H 0.88409 0.86071 0.3721 0.0
H359 H 0.90161 0.92614 0.37437 0.0
H360 H 0.87361 0.81042 0.24988 0.0
H361 H 0.95958 0.88681 0.33927 0.0
H362 H 0.93548 0.90888 0.27042 0.0
C363 C 0.10969 0.41209 0.59023 0.0
C364 C 0.1059 0.41487 0.61453 0.0
N365 N 0.1215 0.40456 0.62693 0.0
N366 N 0.12776 0.40032 0.5873 0.0
C367 C 0.13456 0.396 0.60997 0.0
H368 H 0.09943 0.41751 0.57567 0.0
Co369 Co 0.1386 0.38851 0.55863 0.0
C370 C 0.18209 0.37811 0.5743 0.0
O371 O 0.17897 0.35928 0.56403 0.0
N372 N 0.14895 0.37604 0.52985 0.0
C373 C 0.16417 0.37057 0.494 0.0
C374 C 0.16339 0.38392 0.51392 0.0
C375 C 0.14142 0.3578 0.51938 0.0
N376 N 0.15041 0.35411 0.49757 0.0
O377 O 0.13798 0.36133 0.57332 0.0
H378 H 0.17223 0.39878 0.5163 0.0
H379 H 0.12891 0.34785 0.52714 0.0
O380 O 0.16814 0.39314 0.57121 0.0
C381 C 0.11937 0.35399 0.57785 0.0
O382 O 0.10236 0.36438 0.56986 0.0
N383 N 0.1367 0.41553 0.54387 0.0
C384 C 0.11519 0.45369 0.53196 0.0
C385 C 0.13297 0.4539 0.54781 0.0
C386 C 0.14359 0.43451 0.55358 0.0
C387 C 0.12093 0.41535 0.52683 0.0
C388 C 0.1101 0.43416 0.52052 0.0
H389 H 0.15558 0.43442 0.56772 0.0
H390 H 0.11495 0.40013 0.5201 0.0
H391 H 0.14843 0.38604 0.61392 0.0
H392 H 0.09214 0.42292 0.62241 0.0
H393 H 0.17395 0.37287 0.47803 0.0
H394 H 0.13769 0.46858 0.55692 0.0
H395 H 0.09638 0.43279 0.50862 0.0
C396 C 0.61461 0.91546 0.43091 0.0
C397 C 0.61345 0.9234 0.40772 0.0
N398 N 0.61792 0.90719 0.39238 0.0
N399 N 0.61987 0.89436 0.43018 0.0
C400 C 0.62171 0.88976 0.4064 0.0
H401 H 0.61278 0.92469 0.44734 0.0
Co402 Co 0.62829 0.8779 0.45703 0.0
C403 C 0.60896 0.83551 0.43794 0.0
O404 O 0.59295 0.83383 0.4533 0.0
N405 N 0.63809 0.86232 0.48402 0.0
C406 C 0.64542 0.83944 0.51387 0.0
C407 C 0.63237 0.8434 0.49417 0.0
C408 C 0.65447 0.86952 0.49791 0.0
N409 N 0.65944 0.85592 0.51621 0.0
O410 O 0.65592 0.8764 0.44383 0.0
H411 H 0.61964 0.83306 0.48786 0.0
H412 H 0.66241 0.88475 0.49469 0.0
O413 O 0.62188 0.85145 0.43929 0.0
C414 C 0.66641 0.89388 0.44233 0.0
O415 O 0.65926 0.91107 0.45362 0.0
N416 N 0.60051 0.88086 0.4703 0.0
C417 C 0.56555 0.90685 0.48287 0.0
C418 C 0.56519 0.89448 0.46159 0.0
C419 C 0.58272 0.88126 0.45583 0.0
C420 C 0.59991 0.89047 0.49241 0.0
C421 C 0.58235 0.90305 0.4993 0.0
H422 H 0.58326 0.87404 0.43809 0.0
H423 H 0.61403 0.89061 0.50376 0.0
H424 H 0.62715 0.87439 0.39952 0.0
H425 H 0.61012 0.93991 0.40254 0.0
H426 H 0.64477 0.8253 0.5253 0.0
H427 H 0.55271 0.8966 0.44819 0.0
H428 H 0.58301 0.91132 0.51647 0.0
C429 C 0.09564 0.11132 0.67445 0.0
C430 C 0.09132 0.10909 0.65025 0.0
N431 N 0.10874 0.11557 0.63768 0.0
N432 N 0.11582 0.11887 0.67722 0.0
C433 C 0.12328 0.1216 0.65449 0.0
H434 H 0.08477 0.1077 0.68915 0.0
Co435 Co 0.12915 0.12504 0.70665 0.0
C436 C 0.17416 0.12916 0.69227 0.0
O437 O 0.17488 0.14632 0.70612 0.0
N438 N 0.14194 0.13206 0.73675 0.0
C439 C 0.15896 0.13189 0.77224 0.0
C440 C 0.15558 0.12072 0.75093 0.0
C441 C 0.13739 0.14996 0.74983 0.0
N442 N 0.14758 0.15033 0.77122 0.0
O443 O 0.13234 0.15365 0.69661 0.0
H444 H 0.16225 0.10514 0.7463 0.0
H445 H 0.12621 0.16234 0.74437 0.0
O446 O 0.15712 0.11759 0.69206 0.0
C447 C 0.11516 0.16442 0.6996 0.0
O448 O 0.098 0.15463 0.70813 0.0
N449 N 0.1237 0.09693 0.71707 0.0
C450 C 0.09577 0.06235 0.72246 0.0
C451 C 0.11269 0.06129 0.70567 0.0
C452 C 0.12673 0.07893 0.70328 0.0
C453 C 0.109 0.097 0.7353 0.0
C454 C 0.095 0.07977 0.73845 0.0
H455 H 0.13793 0.0793 0.68835 0.0
H456 H 0.10617 0.11158 0.7455 0.0
H457 H 0.13908 0.12789 0.65034 0.0
H458 H 0.07636 0.1035 0.6425 0.0
H459 H 0.1689 0.12686 0.78727 0.0
H460 H 0.11366 0.04809 0.69293 0.0
H461 H 0.08222 0.08108 0.75169 0.0
C462 C 0.89432 0.59411 0.92811 0.0
C463 C 0.89515 0.58878 0.90404 0.0
N464 N 0.88872 0.606 0.89098 0.0
N465 N 0.88769 0.61471 0.93036 0.0
C466 C 0.88423 0.62149 0.90745 0.0
H467 H 0.89774 0.58347 0.94312 0.0
Co468 Co 0.88115 0.62838 0.95962 0.0
C469 C 0.9007 0.67195 0.94323 0.0
O470 O 0.91878 0.67135 0.95547 0.0
N471 N 0.87313 0.64146 0.98902 0.0
C472 C 0.86608 0.66328 0.01991 0.0
C473 C 0.8791 0.6599 0.99999 0.0
C474 C 0.85679 0.63386 1.00278 0.0
N475 N 0.85184 0.64691 0.0215 0.0
O476 O 0.85294 0.63171 0.94906 0.0
H477 H 0.89157 0.6706 0.99362 0.0
H478 H 0.84846 0.619 0.99889 0.0
O479 O 0.88724 0.65648 0.94494 0.0
C480 C 0.84131 0.61495 0.94997 0.0
O481 O 0.84961 0.59682 0.95807 0.0
N482 N 0.90941 0.62317 0.97069 0.0
C483 C 0.94403 0.59541 0.97928 0.0
C484 C 0.94462 0.6101 0.95996 0.0
C485 C 0.92706 0.62393 0.95594 0.0
C486 C 0.90976 0.61068 0.99097 0.0
C487 C 0.92697 0.59689 0.99573 0.0
H488 H 0.92645 0.63291 0.93922 0.0
H489 H 0.89558 0.60926 1.00212 0.0
H490 H 0.87806 0.63733 0.903 0.0
H491 H 0.89934 0.57313 0.89682 0.0
H492 H 0.86657 0.67718 0.03166 0.0
H493 H 0.95741 0.6094 0.9467 0.0
H494 H 0.926 0.5861 0.01108 0.0
C495 C 0.41607 0.39303 0.17669 0.0
C496 C 0.42118 0.3969 0.15287 0.0
N497 N 0.40447 0.3906 0.13906 0.0
N498 N 0.39611 0.38461 0.17789 0.0
C499 C 0.38957 0.38317 0.15472 0.0
H500 H 0.42629 0.39592 0.19214 0.0
Co501 Co 0.38179 0.37467 0.20541 0.0
C502 C 0.33728 0.38978 0.18734 0.0
O503 O 0.3351 0.40658 0.20154 0.0
N504 N 0.36781 0.36359 0.23301 0.0
C505 C 0.34584 0.35641 0.2637 0.0
C506 C 0.3496 0.36983 0.24427 0.0
C507 C 0.37487 0.34653 0.24609 0.0
N508 N 0.36176 0.34164 0.26479 0.0
O509 O 0.38361 0.34672 0.19264 0.0
H510 H 0.33969 0.3833 0.23893 0.0
H511 H 0.38963 0.33803 0.2422 0.0
O512 O 0.35413 0.37802 0.18876 0.0
C513 C 0.40245 0.3389 0.19467 0.0
O514 O 0.41689 0.34957 0.20719 0.0
N515 N 0.38242 0.40276 0.2185 0.0
C516 C 0.40918 0.43773 0.22828 0.0
C517 C 0.39478 0.43845 0.20874 0.0
C518 C 0.38126 0.42078 0.20427 0.0
C519 C 0.39392 0.40329 0.23946 0.0
C520 C 0.40721 0.42072 0.24482 0.0
H521 H 0.3728 0.42021 0.18724 0.0
H522 H 0.39547 0.38897 0.25044 0.0
H523 H 0.37417 0.37664 0.14944 0.0
H524 H 0.43624 0.40337 0.14628 0.0
H525 H 0.33225 0.35736 0.27587 0.0
H526 H 0.3957 0.45127 0.19549 0.0
H527 H 0.41757 0.41976 0.26049 0.0
H528 H 0.0926 0.08579 0.41158 0.0
H529 H 0.09494 0.08763 0.45529 0.0
H530 H 0.13603 0.14338 0.44987 0.0
H531 H 0.13464 0.14114 0.40594 0.0
H532 H 0.14971 0.11691 0.48561 0.0
H533 H 0.08301 0.14904 0.46235 0.0
H534 H 0.04818 0.15102 0.44113 0.0
H535 H 0.02559 0.0959 0.48061 0.0
H536 H 0.06046 0.09321 0.50163 0.0
H537 H 0.13271 0.14332 0.61084 0.0
H538 H 0.13535 0.14456 0.56672 0.0
H539 H 0.09292 0.08972 0.56175 0.0
H540 H 0.09 0.08867 0.60565 0.0
H541 H 0.08094 0.11958 0.53099 0.0
H542 H 0.14931 0.08696 0.55294 0.0
H543 H 0.18401 0.08634 0.57458 0.0
H544 H 0.20329 0.14443 0.53836 0.0
H545 H 0.16859 0.14558 0.51675 0.0
C546 C 0.10242 0.0983 0.41947 0.0
C547 C 0.11328 0.1134 0.40488 0.0
C548 C 0.10359 0.09944 0.44463 0.0
C549 C 0.11538 0.11586 0.45596 0.0
C550 C 0.12674 0.13062 0.44158 0.0
C551 C 0.1257 0.12942 0.41634 0.0
C552 C 0.11514 0.11794 0.48276 0.0
C553 C 0.13469 0.11776 0.49554 0.0
C554 C 0.09557 0.11901 0.49579 0.0
C555 C 0.07443 0.12082 0.48344 0.0
C556 C 0.07067 0.13725 0.4664 0.0
C557 C 0.05092 0.13851 0.45442 0.0
C558 C 0.0347 0.12361 0.45953 0.0
C559 C 0.03818 0.10742 0.47666 0.0
C560 C 0.05794 0.10601 0.48861 0.0
C561 C 0.12413 0.13142 0.60032 0.0
C562 C 0.11107 0.11594 0.61176 0.0
C563 C 0.12566 0.13212 0.57509 0.0
C564 C 0.11446 0.11712 0.56082 0.0
C565 C 0.10164 0.10155 0.57229 0.0
C566 C 0.09993 0.10098 0.59742 0.0
C567 C 0.11545 0.11783 0.53395 0.0
C568 C 0.09599 0.11872 0.52111 0.0
C569 C 0.13512 0.11757 0.52096 0.0
C570 C 0.15625 0.11647 0.53339 0.0
C571 C 0.16091 0.09965 0.54966 0.0
C572 C 0.18058 0.09921 0.56193 0.0
C573 C 0.19581 0.11538 0.55791 0.0
C574 C 0.19146 0.13194 0.54148 0.0
C575 C 0.17181 0.13248 0.52921 0.0
H576 H 0.21097 0.1151 0.56749 0.0
H577 H 0.01942 0.12463 0.45024 0.0
H578 H 0.9098 0.58215 0.85742 0.0
H579 H 0.90475 0.58284 0.81383 0.0
H580 H 0.85682 0.63259 0.82147 0.0
H581 H 0.86136 0.63162 0.86538 0.0
H582 H 0.84366 0.60671 0.7892 0.0
H583 H 0.90924 0.64349 0.80089 0.0
H584 H 0.9458 0.6502 0.81634 0.0
H585 H 0.96926 0.59469 0.77824 0.0
H586 H 0.93276 0.58745 0.76282 0.0
H587 H 0.84718 0.62532 0.66017 0.0
H588 H 0.85075 0.63151 0.70374 0.0
H589 H 0.8901 0.57444 0.70987 0.0
H590 H 0.88678 0.56833 0.66651 0.0
H591 H 0.90694 0.60946 0.73471 0.0
H592 H 0.83714 0.5744 0.72412 0.0
H593 H 0.8002 0.57257 0.70806 0.0
H594 H 0.78432 0.63173 0.74414 0.0
H595 H 0.82135 0.63428 0.75976 0.0
C596 C 0.89812 0.59324 0.84993 0.0
C597 C 0.88612 0.60695 0.86504 0.0
C598 C 0.8954 0.59378 0.82487 0.0
C599 C 0.88076 0.6082 0.81419 0.0
C600 C 0.86845 0.6216 0.82924 0.0
C601 C 0.87121 0.62115 0.85435 0.0
C602 C 0.87822 0.60912 0.78739 0.0
C603 C 0.85751 0.60764 0.77733 0.0
C604 C 0.89619 0.61054 0.7717 0.0
C605 C 0.91821 0.61482 0.78087 0.0
C606 C 0.92216 0.63261 0.79594 0.0
C607 C 0.94288 0.63653 0.80467 0.0
C608 C 0.95984 0.62286 0.79832 0.0
C609 C 0.95611 0.60526 0.78316 0.0
C610 C 0.93541 0.60125 0.7744 0.0
C611 C 0.85667 0.61417 0.6708 0.0
C612 C 0.86658 0.59622 0.65987 0.0
C613 C 0.85861 0.61766 0.69572 0.0
C614 C 0.87058 0.60334 0.71012 0.0
C615 C 0.88075 0.58568 0.69915 0.0
C616 C 0.87868 0.58209 0.67438 0.0
C617 C 0.87251 0.60635 0.73668 0.0
C618 C 0.89313 0.60868 0.74666 0.0
C619 C 0.85441 0.60638 0.75221 0.0
C620 C 0.83212 0.60467 0.74286 0.0
C621 C 0.82585 0.58715 0.72839 0.0
C622 C 0.80489 0.586 0.71934 0.0
C623 C 0.78995 0.60211 0.72492 0.0
C624 C 0.79593 0.61935 0.73966 0.0
C625 C 0.81692 0.62068 0.74858 0.0
H626 H 0.77373 0.60119 0.71791 0.0
H627 H 0.97587 0.62592 0.80509 0.0
H628 H 0.42617 0.41709 0.10849 0.0
H629 H 0.42257 0.41907 0.06469 0.0
H630 H 0.37481 0.36867 0.06673 0.0
H631 H 0.37907 0.36587 0.11033 0.0
H632 H 0.40112 0.36232 0.03031 0.0
H633 H 0.3614 0.42328 0.06071 0.0
H634 H 0.35628 0.4568 0.08405 0.0
H635 H 0.40582 0.48779 0.0427 0.0
H636 H 0.41147 0.4544 0.01937 0.0
H637 H 0.36027 0.37738 0.91209 0.0
H638 H 0.36399 0.375 0.95599 0.0
H639 H 0.41122 0.42594 0.95436 0.0
H640 H 0.4071 0.42871 0.91061 0.0
H641 H 0.38474 0.4322 0.99059 0.0
H642 H 0.42759 0.37097 0.96397 0.0
H643 H 0.43336 0.33792 0.94 0.0
H644 H 0.37773 0.30907 0.97277 0.0
H645 H 0.37216 0.34156 0.99745 0.0
C646 C 0.41508 0.40625 0.09965 0.0
C647 C 0.40276 0.39148 0.11309 0.0
C648 C 0.41285 0.40757 0.07458 0.0
C649 C 0.39808 0.39434 0.06244 0.0
C650 C 0.38616 0.37921 0.07571 0.0
C651 C 0.38847 0.37778 0.10074 0.0
C652 C 0.39505 0.39619 0.03591 0.0
C653 C 0.39731 0.37759 0.02173 0.0
C654 C 0.39048 0.41615 0.02451 0.0
C655 C 0.38698 0.43628 0.03845 0.0
C656 C 0.37129 0.4372 0.05672 0.0
C657 C 0.36828 0.45617 0.06992 0.0
C658 C 0.38073 0.47437 0.06488 0.0
C659 C 0.3962 0.47367 0.0466 0.0
C660 C 0.3993 0.45474 0.03337 0.0
C661 C 0.37152 0.38796 0.92112 0.0
C662 C 0.38339 0.40322 0.90793 0.0
C663 C 0.37369 0.38657 0.94619 0.0
C664 C 0.38814 0.40009 0.9585 0.0
C665 C 0.39994 0.41538 0.94532 0.0
C666 C 0.39756 0.41696 0.92032 0.0
C667 C 0.39094 0.39838 0.98509 0.0
C668 C 0.38861 0.41698 0.99926 0.0
C669 C 0.39558 0.3785 0.99652 0.0
C670 C 0.39947 0.35862 0.9825 0.0
C671 C 0.41673 0.35746 0.96616 0.0
C672 C 0.42004 0.33879 0.95254 0.0
C673 C 0.4061 0.32127 0.95504 0.0
C674 C 0.38881 0.32241 0.97115 0.0
C675 C 0.38564 0.34089 0.98508 0.0
H676 H 0.40871 0.30686 0.94446 0.0
H677 H 0.37838 0.48903 0.07513 0.0
H678 H 0.63684 0.93925 0.3671 0.0
H679 H 0.64063 0.94178 0.32315 0.0
H680 H 0.60713 0.88124 0.31542 0.0
H681 H 0.60426 0.87833 0.35946 0.0
H682 H 0.63973 0.88161 0.28648 0.0
H683 H 0.58318 0.9324 0.30396 0.0
H684 H 0.5667 0.96387 0.32393 0.0
H685 H 0.61526 0.0051 0.29379 0.0
H686 H 0.6322 0.97381 0.27389 0.0
H687 H 0.60854 0.88222 0.16689 0.0
H688 H 0.60387 0.88985 0.20988 0.0
H689 H 0.65457 0.93713 0.20619 0.0
H690 H 0.6593 0.92925 0.16286 0.0
H691 H 0.61604 0.94607 0.24029 0.0
H692 H 0.67145 0.894 0.22151 0.0
H693 H 0.6857 0.86208 0.20036 0.0
H694 H 0.6369 0.82261 0.23291 0.0
H695 H 0.62209 0.85443 0.25388 0.0
C696 C 0.63023 0.92657 0.35593 0.0
C697 C 0.62011 0.90867 0.36656 0.0
C698 C 0.63233 0.92804 0.33082 0.0
C699 C 0.62385 0.91189 0.31582 0.0
C700 C 0.61377 0.89396 0.32653 0.0
C701 C 0.61212 0.89227 0.35165 0.0
C702 C 0.62576 0.91336 0.28901 0.0
C703 C 0.63435 0.89567 0.27648 0.0
C704 C 0.61929 0.9319 0.27578 0.0
C705 C 0.60908 0.95073 0.28765 0.0
C706 C 0.59043 0.94815 0.30174 0.0
C707 C 0.58099 0.96596 0.31302 0.0
C708 C 0.58996 0.98646 0.31018 0.0
C709 C 0.60835 0.9892 0.296 0.0
C710 C 0.61787 0.97144 0.2847 0.0
C711 C 0.618 0.89491 0.17507 0.0
C712 C 0.63413 0.90529 0.16166 0.0
C713 C 0.61545 0.89916 0.19961 0.0
C714 C 0.62904 0.91385 0.21126 0.0
C715 C 0.64387 0.92577 0.19748 0.0
C716 C 0.64647 0.92143 0.17276 0.0
C717 C 0.6296 0.91423 0.23805 0.0
C718 C 0.62155 0.93218 0.25048 0.0
C719 C 0.63638 0.89588 0.25126 0.0
C720 C 0.64553 0.87664 0.23906 0.0
C721 C 0.66364 0.87856 0.22399 0.0
C722 C 0.67183 0.86048 0.21206 0.0
C723 C 0.66217 0.84034 0.21524 0.0
C724 C 0.64434 0.83823 0.23043 0.0
C725 C 0.63605 0.85628 0.24235 0.0
H726 H 0.66853 0.82636 0.20598 0.0
H727 H 0.58263 1.00023 0.31893 0.0
H728 H 0.13918 0.37082 0.65119 0.0
H729 H 0.14134 0.36615 0.69495 0.0
H730 H 0.10803 0.42645 0.70511 0.0
H731 H 0.1065 0.4316 0.66142 0.0
H732 H 0.13991 0.42457 0.73486 0.0
H733 H 0.08444 0.37409 0.71207 0.0
H734 H 0.06812 0.3429 0.6915 0.0
H735 H 0.11562 0.30096 0.72262 0.0
H736 H 0.13252 0.33197 0.74301 0.0
H737 H 0.10137 0.41597 0.85371 0.0
H738 H 0.10425 0.41644 0.80985 0.0
H739 H 0.14683 0.36155 0.81237 0.0
H740 H 0.14436 0.36117 0.85647 0.0
H741 H 0.11489 0.35834 0.77654 0.0
H742 H 0.16738 0.40847 0.80299 0.0
H743 H 0.18171 0.4393 0.8259 0.0
H744 H 0.13891 0.48209 0.7883 0.0
H745 H 0.12388 0.45141 0.76565 0.0
C746 C 0.13257 0.38323 0.66272 0.0
C747 C 0.12279 0.40169 0.65276 0.0
C748 C 0.13356 0.38037 0.68776 0.0
C749 C 0.12473 0.39581 0.70341 0.0
C750 C 0.115 0.41427 0.69348 0.0
C751 C 0.11399 0.41715 0.66846 0.0
C752 C 0.12596 0.39308 0.73013 0.0
C753 C 0.13414 0.41019 0.74394 0.0
C754 C 0.1194 0.37391 0.74204 0.0
C755 C 0.10984 0.3554 0.72892 0.0
C756 C 0.09158 0.35827 0.71428 0.0
C757 C 0.08221 0.34062 0.7027 0.0
C758 C 0.09079 0.31998 0.70583 0.0
C759 C 0.10897 0.31696 0.72027 0.0
C760 C 0.11847 0.33457 0.73181 0.0
C761 C 0.11148 0.40405 0.84505 0.0
C762 C 0.12276 0.38865 0.85879 0.0
C763 C 0.11305 0.40432 0.81992 0.0
C764 C 0.12593 0.38919 0.80784 0.0
C765 C 0.13679 0.37338 0.82133 0.0
C766 C 0.13529 0.37315 0.84658 0.0
C767 C 0.12798 0.39016 0.78112 0.0
C768 C 0.1207 0.37267 0.76736 0.0
C769 C 0.1353 0.40899 0.76922 0.0
C770 C 0.14438 0.42755 0.78275 0.0
C771 C 0.16087 0.4244 0.79977 0.0
C772 C 0.16913 0.44187 0.8127 0.0
C773 C 0.16123 0.46264 0.80855 0.0
C774 C 0.14502 0.46598 0.79149 0.0
C775 C 0.13661 0.44855 0.77862 0.0
H776 H 0.16769 0.47615 0.81854 0.0
H777 H 0.08326 0.30631 0.69721 0.0
H778 H 0.63167 0.64599 0.90238 0.0
H779 H 0.6339 0.64788 0.9466 0.0
H780 H 0.57462 0.61238 0.95248 0.0
H781 H 0.57217 0.61055 0.90842 0.0
H782 H 0.57786 0.64965 0.98325 0.0
H783 H 0.61963 0.58761 0.95785 0.0
H784 H 0.64901 0.56924 0.93623 0.0
H785 H 0.6956 0.60589 0.97593 0.0
H786 H 0.6665 0.62521 0.99702 0.0
H787 H 0.57347 0.61245 0.10265 0.0
H788 H 0.57398 0.61658 0.05918 0.0
H789 H 0.64056 0.63572 0.06203 0.0
H790 H 0.64067 0.63054 0.1056 0.0
H791 H 0.63608 0.61076 0.02643 0.0
H792 H 0.59712 0.67257 0.05225 0.0
H793 H 0.56922 0.69322 0.07394 0.0
H794 H 0.51984 0.66042 0.03439 0.0
H795 H 0.54731 0.63913 0.01287 0.0
C796 C 0.61905 0.63875 0.91312 0.0
C797 C 0.60178 0.62802 0.90196 0.0
C798 C 0.62045 0.6397 0.93831 0.0
C799 C 0.60457 0.6301 0.95274 0.0
C800 C 0.58707 0.61985 0.94165 0.0
C801 C 0.58578 0.61867 0.91651 0.0
C802 C 0.60632 0.63022 0.97943 0.0
C803 C 0.59047 0.64102 0.99277 0.0
C804 C 0.62333 0.6197 0.99171 0.0
C805 C 0.64081 0.60819 0.97872 0.0
C806 C 0.63611 0.59208 0.96166 0.0
C807 C 0.65274 0.58147 0.94949 0.0
C808 C 0.67417 0.58651 0.95455 0.0
C809 C 0.679 0.60211 0.97188 0.0
C810 C 0.66244 0.61297 0.98387 0.0
C811 C 0.58836 0.61739 0.09425 0.0
C812 C 0.60701 0.62121 0.10805 0.0
C813 C 0.58851 0.62008 0.06922 0.0
C814 C 0.60716 0.62707 0.05725 0.0
C815 C 0.62588 0.63065 0.07084 0.0
C816 C 0.62584 0.62776 0.0959 0.0
C817 C 0.60729 0.62982 0.03051 0.0
C818 C 0.62354 0.61962 0.01707 0.0
C819 C 0.59089 0.64129 0.01813 0.0
C820 C 0.57431 0.6541 0.03107 0.0
C821 C 0.58031 0.66962 0.04831 0.0
C822 C 0.56458 0.68147 0.06055 0.0
C823 C 0.54282 0.67816 0.05553 0.0
C824 C 0.53671 0.66297 0.03827 0.0
C825 C 0.55235 0.65099 0.02605 0.0
H826 H 0.53068 0.68738 0.06503 0.0
H827 H 0.68702 0.57826 0.94515 0.0
H828 H 0.41584 0.13249 0.35814 0.0
H829 H 0.41232 0.13416 0.31397 0.0
H830 H 0.36413 0.08406 0.31696 0.0
H831 H 0.36908 0.0814 0.3607 0.0
H832 H 0.38842 0.0759 0.28196 0.0
H833 H 0.35632 0.14326 0.30975 0.0
H834 H 0.35714 0.17872 0.33 0.0
H835 H 0.40616 0.20034 0.28122 0.0
H836 H 0.40609 0.16492 0.26103 0.0
H837 H 0.33735 0.08415 0.16992 0.0
H838 H 0.34525 0.08716 0.21291 0.0
H839 H 0.39719 0.13095 0.19722 0.0
H840 H 0.38926 0.12814 0.15393 0.0
H841 H 0.37516 0.14387 0.23707 0.0
H842 H 0.40831 0.07921 0.20966 0.0
H843 H 0.41057 0.04413 0.1889 0.0
H844 H 0.36249 0.01819 0.2364 0.0
H845 H 0.35972 0.05322 0.25724 0.0
C846 C 0.40463 0.12184 0.34914 0.0
C847 C 0.39281 0.10675 0.36255 0.0
C848 C 0.40242 0.12291 0.32397 0.0
C849 C 0.38763 0.10951 0.31193 0.0
C850 C 0.3757 0.09456 0.32561 0.0
C851 C 0.37845 0.09304 0.35059 0.0
C852 C 0.38479 0.11037 0.28512 0.0
C853 C 0.38518 0.0908 0.27233 0.0
C854 C 0.38164 0.12988 0.27206 0.0
C855 C 0.38132 0.15132 0.28401 0.0
C856 C 0.36734 0.15554 0.30341 0.0
C857 C 0.36769 0.17562 0.3149 0.0
C858 C 0.38167 0.19174 0.30693 0.0
C859 C 0.39535 0.18783 0.28741 0.0
C860 C 0.39519 0.16775 0.27596 0.0
C861 C 0.35049 0.09442 0.17554 0.0
C862 C 0.36282 0.10571 0.15841 0.0
C863 C 0.35496 0.09617 0.20018 0.0
C864 C 0.37204 0.10906 0.20833 0.0
C865 C 0.38394 0.12096 0.19137 0.0
C866 C 0.37937 0.11932 0.16664 0.0
C867 C 0.37785 0.10935 0.23444 0.0
C868 C 0.37827 0.12905 0.24691 0.0
C869 C 0.38199 0.09005 0.24728 0.0
C870 C 0.38368 0.0689 0.23488 0.0
C871 C 0.39811 0.06607 0.21557 0.0
C872 C 0.3995 0.04619 0.20381 0.0
C873 C 0.38665 0.02896 0.2113 0.0
C874 C 0.37242 0.03156 0.23061 0.0
C875 C 0.37095 0.05142 0.24242 0.0
H876 H 0.38775 0.01358 0.20217 0.0
H877 H 0.38188 0.20726 0.31587 0.0
H878 H 0.91746 0.9172 0.41187 0.0
H879 H 0.91946 0.91493 0.45579 0.0
H880 H 0.87193 0.8643 0.45546 0.0
H881 H 0.86999 0.8664 0.41143 0.0
H882 H 0.89138 0.92183 0.49023 0.0
H883 H 0.88109 0.82984 0.50202 0.0
H884 H 0.88786 0.79652 0.47889 0.0
H885 H 0.93945 0.82763 0.44089 0.0
H886 H 0.93315 0.86103 0.46395 0.0
H887 H 0.86756 0.89694 0.61202 0.0
H888 H 0.86771 0.89882 0.56776 0.0
H889 H 0.93143 0.87152 0.56632 0.0
H890 H 0.93161 0.87013 0.61061 0.0
H891 H 0.90597 0.85276 0.53256 0.0
H892 H 0.92376 0.92495 0.55638 0.0
H893 H 0.91891 0.95893 0.57882 0.0
H894 H 0.85742 0.96842 0.54512 0.0
H895 H 0.86179 0.93433 0.52271 0.0
C896 C 0.9073 0.90569 0.42111 0.0
C897 C 0.89358 0.89196 0.40806 0.0
C898 C 0.9085 0.90437 0.44627 0.0
C899 C 0.89603 0.8893 0.45901 0.0
C900 C 0.88205 0.87578 0.44606 0.0
C901 C 0.88094 0.87699 0.42085 0.0
C902 C 0.89764 0.88788 0.4858 0.0
C903 C 0.89457 0.90671 0.49944 0.0
C904 C 0.90209 0.86823 0.49793 0.0
C905 C 0.9065 0.84799 0.48456 0.0
C906 C 0.89396 0.82952 0.48883 0.0
C907 C 0.89769 0.81063 0.47571 0.0
C908 C 0.91403 0.80999 0.45839 0.0
C909 C 0.92675 0.82818 0.45425 0.0
C910 C 0.92309 0.8471 0.46732 0.0
C911 C 0.88151 0.89121 0.60222 0.0
C912 C 0.8996 0.88347 0.61469 0.0
C913 C 0.88157 0.89229 0.57701 0.0
C914 C 0.89947 0.88521 0.56372 0.0
C915 C 0.91739 0.87702 0.57615 0.0
C916 C 0.91754 0.87635 0.60141 0.0
C917 C 0.8995 0.88667 0.53691 0.0
C918 C 0.90281 0.86786 0.5233 0.0
C919 C 0.89561 0.9064 0.52475 0.0
C920 C 0.89304 0.92702 0.538 0.0
C921 C 0.90915 0.93422 0.55386 0.0
C922 C 0.90649 0.95351 0.56656 0.0
C923 C 0.88785 0.9658 0.56343 0.0
C924 C 0.87185 0.95887 0.54754 0.0
C925 C 0.87442 0.93958 0.53481 0.0
H926 H 0.88582 0.98073 0.57328 0.0
H927 H 0.91686 0.79541 0.4482 0.0
H928 H 0.26949 0.12979 0.07113 0.0
H929 H 0.24177 0.13922 0.1007 0.0
H930 H 0.29062 0.16293 0.14902 0.0
H931 H 0.3185 0.15385 0.11921 0.0
H932 H 0.26143 0.13403 0.17122 0.0
H933 H 0.25878 0.19851 0.12425 0.0
H934 H 0.25619 0.22087 0.08754 0.0
H935 H 0.19417 0.19385 0.07195 0.0
H936 H 0.19649 0.17114 0.10846 0.0
H937 H 0.18484 0.1699 0.25759 0.0
H938 H 0.21468 0.16899 0.22878 0.0
H939 H 0.16997 0.15601 0.17108 0.0
H940 H 0.14005 0.15773 0.19979 0.0
H941 H 0.19904 0.18179 0.15476 0.0
H942 H 0.20262 0.11569 0.20069 0.0
H943 H 0.20462 0.09439 0.23826 0.0
H944 H 0.26487 0.12425 0.25589 0.0
H945 H 0.26308 0.14597 0.21859 0.0
C946 C 0.27433 0.13736 0.08787 0.0
C947 C 0.29622 0.14121 0.09268 0.0
C948 C 0.25844 0.14275 0.10479 0.0
C949 C 0.26403 0.15183 0.12714 0.0
C950 C 0.28587 0.15598 0.13191 0.0
C951 C 0.30178 0.15095 0.11476 0.0
C952 C 0.24708 0.156 0.14577 0.0
C953 C 0.24797 0.14475 0.16779 0.0
C954 C 0.22923 0.16961 0.14118 0.0
C955 C 0.22791 0.18296 0.11898 0.0
C956 C 0.24469 0.19716 0.11287 0.0
C957 C 0.24324 0.20995 0.09213 0.0
C958 C 0.22505 0.20875 0.07739 0.0
C959 C 0.20826 0.19475 0.08337 0.0
C960 C 0.20962 0.18194 0.1041 0.0
C961 C 0.18138 0.16693 0.23874 0.0
C962 C 0.16005 0.16378 0.23104 0.0
C963 C 0.1985 0.1663 0.22223 0.0
C964 C 0.19481 0.1619 0.19766 0.0
C965 C 0.1734 0.15936 0.18986 0.0
C966 C 0.15624 0.16038 0.20631 0.0
C967 C 0.21314 0.15957 0.18017 0.0
C968 C 0.21252 0.17112 0.15831 0.0
C969 C 0.2312 0.14613 0.18488 0.0
C970 C 0.23261 0.13261 0.20695 0.0
C971 C 0.21626 0.11777 0.21262 0.0
C972 C 0.21735 0.10563 0.23388 0.0
C973 C 0.23483 0.10801 0.24949 0.0
C974 C 0.25132 0.12245 0.2438 0.0
C975 C 0.25029 0.13467 0.2226 0.0
H976 H 0.2356 0.09865 0.26598 0.0
H977 H 0.22395 0.21869 0.06137 0.0
H978 H 0.85501 0.65309 0.45541 0.0
H979 H 0.8634 0.68356 0.42943 0.0
H980 H 0.87476 0.72324 0.49194 0.0
H981 H 0.86623 0.6926 0.51831 0.0
H982 H 0.84493 0.72132 0.42293 0.0
H983 H 0.91221 0.76189 0.47723 0.0
H984 H 0.94005 0.75252 0.50719 0.0
H985 H 0.94287 0.68798 0.47933 0.0
H986 H 0.91524 0.69708 0.44902 0.0
H987 H 0.86844 0.82225 0.36754 0.0
H988 H 0.86063 0.79468 0.3979 0.0
H989 H 0.91951 0.76165 0.37971 0.0
H990 H 0.92766 0.78941 0.34965 0.0
H991 H 0.9141 0.76087 0.42732 0.0
H992 H 0.86991 0.74448 0.35847 0.0
H993 H 0.84304 0.75226 0.32689 0.0
H994 H 0.79556 0.76549 0.38122 0.0
H995 H 0.82225 0.75805 0.41314 0.0
C996 C 0.85907 0.66827 0.46382 0.0
C997 C 0.85975 0.67023 0.48916 0.0
C998 C 0.86395 0.68578 0.44881 0.0
C999 C 0.8698 0.70582 0.45855 0.0
C1000 C 0.87057 0.70792 0.48385 0.0
C1001 C 0.86569 0.69032 0.49896 0.0
C1002 C 0.87497 0.72429 0.44201 0.0
C1003 C 0.85999 0.73007 0.4241 0.0
C1004 C 0.89468 0.73572 0.44316 0.0
C1005 C 0.91154 0.73014 0.46101 0.0
C1006 C 0.91885 0.74574 0.47743 0.0
C1007 C 0.93458 0.74047 0.49449 0.0
C1008 C 0.94318 0.71965 0.49521 0.0
C1009 C 0.93614 0.70408 0.47881 0.0
C1010 C 0.92044 0.70929 0.4617 0.0
C1011 C 0.87979 0.80916 0.36998 0.0
C1012 C 0.89865 0.80806 0.3559 0.0
C1013 C 0.87526 0.79332 0.38738 0.0
C1014 C 0.88932 0.77581 0.39102 0.0
C1015 C 0.90835 0.77492 0.37734 0.0
C1016 C 0.91294 0.7908 0.36 0.0
C1017 C 0.88392 0.75811 0.40849 0.0
C1018 C 0.89887 0.75241 0.42648 0.0
C1019 C 0.86424 0.74662 0.40732 0.0
C1020 C 0.84813 0.75091 0.38817 0.0
C1021 C 0.85378 0.74918 0.36367 0.0
C1022 C 0.83857 0.75351 0.34572 0.0
C1023 C 0.81762 0.75942 0.35205 0.0
C1024 C 0.8118 0.76094 0.37635 0.0
C1025 C 0.82696 0.75665 0.39438 0.0
H1026 H 0.80587 0.76278 0.33812 0.0
H1027 H 0.95533 0.71558 0.50845 0.0
H1028 H 0.34942 0.34441 0.70478 0.0
H1029 H 0.32035 0.3495 0.67545 0.0
H1030 H 0.29201 0.3981 0.72112 0.0
H1031 H 0.3202 0.39259 0.75065 0.0
H1032 H 0.26206 0.37377 0.70617 0.0
H1033 H 0.32006 0.41014 0.66693 0.0
H1034 H 0.35647 0.41404 0.64978 0.0
H1035 H 0.34338 0.36336 0.59916 0.0
H1036 H 0.30697 0.35897 0.61622 0.0
H1037 H 0.20314 0.41457 0.59098 0.0
H1038 H 0.23194 0.41608 0.62165 0.0
H1039 H 0.22789 0.34726 0.63106 0.0
H1040 H 0.19984 0.3455 0.60034 0.0
H1041 H 0.27365 0.38606 0.61874 0.0
H1042 H 0.2302 0.34927 0.70333 0.0
H1043 H 0.19626 0.35174 0.72608 0.0
H1044 H 0.18034 0.41049 0.68914 0.0
H1045 H 0.21452 0.40884 0.66674 0.0
C1046 C 0.33702 0.35617 0.70861 0.0
C1047 C 0.33751 0.36814 0.7302 0.0
C1048 C 0.32044 0.35923 0.69165 0.0
C1049 C 0.30399 0.37443 0.69577 0.0
C1050 C 0.30447 0.38634 0.7173 0.0
C1051 C 0.32091 0.38328 0.7342 0.0
C1052 C 0.28579 0.37749 0.67829 0.0
C1053 C 0.2646 0.37644 0.68704 0.0
C1054 C 0.28902 0.38145 0.65335 0.0
C1055 C 0.31087 0.3841 0.643 0.0
C1056 C 0.32501 0.39972 0.65225 0.0
C1057 C 0.34563 0.40204 0.64253 0.0
C1058 C 0.35225 0.38892 0.62343 0.0
C1059 C 0.33824 0.3735 0.61397 0.0
C1060 C 0.3176 0.3711 0.62365 0.0
C1061 C 0.20842 0.3998 0.59961 0.0
C1062 C 0.19936 0.3799 0.5929 0.0
C1063 C 0.22481 0.40068 0.61716 0.0
C1064 C 0.23186 0.38178 0.62892 0.0
C1065 C 0.22252 0.36206 0.62254 0.0
C1066 C 0.20662 0.36109 0.60471 0.0
C1067 C 0.24992 0.38208 0.64667 0.0
C1068 C 0.27109 0.38347 0.63789 0.0
C1069 C 0.24663 0.37882 0.67172 0.0
C1070 C 0.22486 0.37866 0.68289 0.0
C1071 C 0.21941 0.36264 0.69985 0.0
C1072 C 0.2002 0.36399 0.71287 0.0
C1073 C 0.18622 0.38129 0.7091 0.0
C1074 C 0.1912 0.39707 0.69198 0.0
C1075 C 0.21048 0.39586 0.679 0.0
H1076 H 0.17159 0.3825 0.71957 0.0
H1077 H 0.36823 0.39074 0.61593 0.0
H1078 H 0.65974 0.81765 1.00541 0.0
H1079 H 0.65202 0.78836 0.97735 0.0
H1080 H 0.63312 0.83465 0.92323 0.0
H1081 H 0.64063 0.86403 0.95119 0.0
H1082 H 0.61703 0.77454 0.95621 0.0
H1083 H 0.64409 0.81568 0.86705 0.0
H1084 H 0.67083 0.84234 0.85318 0.0
H1085 H 0.711 0.82751 0.91402 0.0
H1086 H 0.68465 0.80058 0.92807 0.0
H1087 H 0.57464 0.72392 0.84975 0.0
H1088 H 0.58586 0.7505 0.87994 0.0
H1089 H 0.65085 0.7265 0.87624 0.0
H1090 H 0.63965 0.69943 0.84653 0.0
H1091 H 0.64679 0.77318 0.87315 0.0
H1092 H 0.62762 0.71429 0.92322 0.0
H1093 H 0.60563 0.68485 0.94007 0.0
H1094 H 0.55695 0.73036 0.96083 0.0
H1095 H 0.57849 0.76009 0.94371 0.0
C1096 C 0.65388 0.82173 0.9876 0.0
C1097 C 0.65092 0.84347 0.98077 0.0
C1098 C 0.64948 0.80484 0.97147 0.0
C1099 C 0.64215 0.80912 0.94794 0.0
C1100 C 0.63914 0.83077 0.94106 0.0
C1101 C 0.64352 0.84768 0.95717 0.0
C1102 C 0.63743 0.79101 0.93075 0.0
C1103 C 0.62355 0.77431 0.93806 0.0
C1104 C 0.64624 0.79024 0.90713 0.0
C1105 C 0.66227 0.80628 0.89873 0.0
C1106 C 0.65866 0.81806 0.87742 0.0
C1107 C 0.67375 0.83323 0.86953 0.0
C1108 C 0.69257 0.83667 0.88276 0.0
C1109 C 0.69638 0.8249 0.90385 0.0
C1110 C 0.68135 0.8097 0.9118 0.0
C1111 C 0.59134 0.72428 0.8553 0.0
C1112 C 0.60624 0.70956 0.84553 0.0
C1113 C 0.59771 0.73946 0.87267 0.0
C1114 C 0.61921 0.74055 0.88042 0.0
C1115 C 0.63419 0.72603 0.87055 0.0
C1116 C 0.62774 0.71054 0.85354 0.0
C1117 C 0.62602 0.75712 0.89848 0.0
C1118 C 0.64025 0.7735 0.8913 0.0
C1119 C 0.61799 0.75728 0.9224 0.0
C1120 C 0.60454 0.7394 0.93185 0.0
C1121 C 0.61207 0.718 0.93102 0.0
C1122 C 0.59973 0.70126 0.94071 0.0
C1123 C 0.57987 0.70571 0.95143 0.0
C1124 C 0.57229 0.72692 0.95243 0.0
C1125 C 0.58455 0.74373 0.94271 0.0
H1126 H 0.57039 0.69273 0.95903 0.0
H1127 H 0.70422 0.84842 0.87663 0.0
H1128 H 0.20996 0.36405 1.00215 0.0
H1129 H 0.23957 0.36941 0.03058 0.0
H1130 H 0.19895 0.34807 0.089 0.0
H1131 H 0.1694 0.3426 0.06072 0.0
H1132 H 0.24573 0.39472 0.0669 0.0
H1133 H 0.22815 0.32336 0.13276 0.0
H1134 H 0.21408 0.28619 0.13129 0.0
H1135 H 0.23118 0.28175 0.05638 0.0
H1136 H 0.2456 0.31876 0.05747 0.0
H1137 H 0.30016 0.41219 0.1774 0.0
H1138 H 0.27299 0.40421 0.14678 0.0
H1139 H 0.30897 0.34808 0.1248 0.0
H1140 H 0.33613 0.35583 0.15553 0.0
H1141 H 0.26732 0.33861 0.12607 0.0
H1142 H 0.31005 0.39323 0.09113 0.0
H1143 H 0.32918 0.42786 0.08883 0.0
H1144 H 0.26923 0.46198 0.09435 0.0
H1145 H 0.2497 0.42744 0.09726 0.0
C1146 C 0.20727 0.36055 0.02104 0.0
C1147 C 0.18719 0.35278 0.02899 0.0
C1148 C 0.22428 0.3636 0.03734 0.0
C1149 C 0.22172 0.35893 0.06202 0.0
C1150 C 0.20162 0.35136 0.07003 0.0
C1151 C 0.18465 0.34822 0.05376 0.0
C1152 C 0.23985 0.36235 0.07946 0.0
C1153 C 0.25036 0.38242 0.07984 0.0
C1154 C 0.24652 0.34618 0.09601 0.0
C1155 C 0.23774 0.32394 0.09515 0.0
C1156 C 0.22894 0.31444 0.11598 0.0
C1157 C 0.22091 0.29339 0.11521 0.0
C1158 C 0.22168 0.28164 0.09373 0.0
C1159 C 0.23051 0.2909 0.07298 0.0
C1160 C 0.23858 0.31193 0.07365 0.0
C1161 C 0.30231 0.3981 0.16612 0.0
C1162 C 0.32044 0.38471 0.16899 0.0
C1163 C 0.28676 0.39359 0.1485 0.0
C1164 C 0.28893 0.37562 0.13323 0.0
C1165 C 0.30684 0.36202 0.13631 0.0
C1166 C 0.32243 0.36655 0.15389 0.0
C1167 C 0.27264 0.37117 0.11396 0.0
C1168 C 0.26254 0.35092 0.1132 0.0
C1169 C 0.26685 0.38689 0.09652 0.0
C1170 C 0.27843 0.40774 0.09466 0.0
C1171 C 0.30094 0.40811 0.09206 0.0
C1172 C 0.31186 0.42774 0.09061 0.0
C1173 C 0.30045 0.44715 0.09144 0.0
C1174 C 0.27806 0.44694 0.09373 0.0
C1175 C 0.26704 0.42733 0.09529 0.0
H1176 H 0.30896 0.46233 0.09029 0.0
H1177 H 0.21549 0.26533 0.09318 0.0
H1178 H 0.58761 0.79711 0.43214 0.0
H1179 H 0.5938 0.76941 0.40151 0.0
H1180 H 0.6433 0.80877 0.3693 0.0
H1181 H 0.63779 0.83608 0.40035 0.0
H1182 H 0.59009 0.76761 0.35449 0.0
H1183 H 0.6813 0.77804 0.34347 0.0
H1184 H 0.71248 0.79115 0.36678 0.0
H1185 H 0.68111 0.77322 0.43288 0.0
H1186 H 0.64985 0.75984 0.40994 0.0
H1187 H 0.62575 0.70635 0.25311 0.0
H1188 H 0.61991 0.73554 0.28197 0.0
H1189 H 0.64956 0.69736 0.33794 0.0
H1190 H 0.65547 0.66812 0.30918 0.0
H1191 H 0.66322 0.7379 0.34077 0.0
H1192 H 0.59383 0.70336 0.33373 0.0
H1193 H 0.56239 0.68966 0.31136 0.0
H1194 H 0.54964 0.75327 0.28413 0.0
H1195 H 0.58113 0.76731 0.30617 0.0
C1196 C 0.59985 0.79988 0.41858 0.0
C1197 C 0.61225 0.81885 0.41889 0.0
C1198 C 0.60332 0.78403 0.40096 0.0
C1199 C 0.61923 0.78675 0.38316 0.0
C1200 C 0.63124 0.80596 0.38305 0.0
C1201 C 0.62795 0.82169 0.40082 0.0
C1202 C 0.62341 0.76936 0.36501 0.0
C1203 C 0.60611 0.76117 0.35151 0.0
C1204 C 0.64426 0.76074 0.36102 0.0
C1205 C 0.6632 0.76812 0.37499 0.0
C1206 C 0.68113 0.7768 0.36297 0.0
C1207 C 0.69879 0.78431 0.37612 0.0
C1208 C 0.69875 0.78307 0.4013 0.0
C1209 C 0.68109 0.77423 0.41338 0.0
C1210 C 0.6634 0.7667 0.40032 0.0
C1211 C 0.63089 0.70404 0.27158 0.0
C1212 C 0.641 0.68471 0.27874 0.0
C1213 C 0.62757 0.72082 0.28811 0.0
C1214 C 0.63406 0.71865 0.31231 0.0
C1215 C 0.64443 0.69952 0.31941 0.0
C1216 C 0.64783 0.68277 0.30288 0.0
C1217 C 0.6299 0.73616 0.33029 0.0
C1218 C 0.64722 0.74439 0.34371 0.0
C1219 C 0.60905 0.74469 0.33436 0.0
C1220 C 0.58992 0.73634 0.32144 0.0
C1221 C 0.58437 0.7144 0.32289 0.0
C1222 C 0.56653 0.70658 0.31028 0.0
C1223 C 0.55405 0.72058 0.2963 0.0
C1224 C 0.55932 0.74245 0.29496 0.0
C1225 C 0.57714 0.75035 0.30753 0.0
H1226 H 0.54026 0.71449 0.28653 0.0
H1227 H 0.71241 0.78893 0.41145 0.0
H1228 H 0.17317 0.10623 0.64955 0.0
H1229 H 0.20046 0.10624 0.61755 0.0
H1230 H 0.24231 0.14436 0.66256 0.0
H1231 H 0.2149 0.1451 0.694 0.0
H1232 H 0.24108 0.16152 0.6201 0.0
H1233 H 0.25009 0.08813 0.64891 0.0
H1234 H 0.23762 0.05135 0.65848 0.0
H1235 H 0.21864 0.04224 0.58469 0.0
H1236 H 0.23085 0.07902 0.57473 0.0
H1237 H 0.34149 0.15528 0.56241 0.0
H1238 H 0.31145 0.15067 0.59018 0.0
H1239 H 0.27576 0.11717 0.53513 0.0
H1240 H 0.30581 0.12186 0.50701 0.0
H1241 H 0.27086 0.09733 0.57849 0.0
H1242 H 0.2633 0.16901 0.54883 0.0
H1243 H 0.27477 0.2059 0.53832 0.0
H1244 H 0.28963 0.21845 0.61265 0.0
H1245 H 0.27853 0.18151 0.62357 0.0
C1246 C 0.18832 0.11433 0.65276 0.0
C1247 C 0.19177 0.12574 0.67438 0.0
C1248 C 0.20398 0.11431 0.63441 0.0
C1249 C 0.22362 0.1253 0.63749 0.0
C1250 C 0.22732 0.1359 0.6595 0.0
C1251 C 0.21163 0.13619 0.67761 0.0
C1252 C 0.24002 0.12686 0.61768 0.0
C1253 C 0.24775 0.1474 0.61129 0.0
C1254 C 0.2482 0.10863 0.60523 0.0
C1255 C 0.24113 0.08642 0.61115 0.0
C1256 C 0.24313 0.07833 0.63477 0.0
C1257 C 0.23614 0.05747 0.64025 0.0
C1258 C 0.22728 0.04449 0.62222 0.0
C1259 C 0.22547 0.05232 0.59865 0.0
C1260 C 0.23244 0.07316 0.59307 0.0
C1261 C 0.32725 0.14708 0.556 0.0
C1262 C 0.32619 0.13913 0.53223 0.0
C1263 C 0.31001 0.1444 0.57202 0.0
C1264 C 0.29111 0.13382 0.56475 0.0
C1265 C 0.29012 0.1254 0.54124 0.0
C1266 C 0.30741 0.12808 0.52515 0.0
C1267 C 0.27243 0.1319 0.58172 0.0
C1268 C 0.26415 0.1114 0.58736 0.0
C1269 C 0.26361 0.15017 0.59344 0.0
C1270 C 0.27025 0.17243 0.58698 0.0
C1271 C 0.26916 0.17958 0.56291 0.0
C1272 C 0.27558 0.20051 0.55688 0.0
C1273 C 0.28297 0.21449 0.5748 0.0
C1274 C 0.28392 0.20759 0.59879 0.0
C1275 C 0.27755 0.18667 0.60491 0.0
H1276 H 0.28793 0.23069 0.57009 0.0
H1277 H 0.22186 0.02835 0.62651 0.0
H1278 H 0.86139 0.68535 0.92671 0.0
H1279 H 0.85338 0.71535 0.89957 0.0
H1280 H 0.92111 0.72988 0.89444 0.0
H1281 H 0.92903 0.70062 0.92282 0.0
H1282 H 0.9013 0.76569 0.89511 0.0
H1283 H 0.89001 0.70178 0.84734 0.0
H1284 H 0.87463 0.66621 0.83836 0.0
H1285 H 0.8108 0.69263 0.84256 0.0
H1286 H 0.82594 0.72852 0.85153 0.0
H1287 H 0.89572 0.82725 0.7863 0.0
H1288 H 0.90259 0.79989 0.81709 0.0
H1289 H 0.83433 0.79175 0.82739 0.0
H1290 H 0.82731 0.81867 0.79608 0.0
H1291 H 0.8537 0.7535 0.82464 0.0
H1292 H 0.86605 0.81858 0.8691 0.0
H1293 H 0.88235 0.85407 0.87715 0.0
H1294 H 0.94518 0.82522 0.87828 0.0
H1295 H 0.92927 0.78958 0.86991 0.0
C1296 C 0.87459 0.69497 0.91986 0.0
C1297 C 0.89588 0.69047 0.92689 0.0
C1298 C 0.87001 0.71209 0.90411 0.0
C1299 C 0.88664 0.72476 0.89425 0.0
C1300 C 0.90791 0.72045 0.9016 0.0
C1301 C 0.91245 0.70363 0.91782 0.0
C1302 C 0.88193 0.74234 0.87628 0.0
C1303 C 0.89112 0.76286 0.87954 0.0
C1304 C 0.86823 0.73912 0.85611 0.0
C1305 C 0.85909 0.71772 0.85034 0.0
C1306 C 0.87269 0.69997 0.84643 0.0
C1307 C 0.86399 0.67974 0.84133 0.0
C1308 C 0.84169 0.67706 0.84005 0.0
C1309 C 0.82806 0.69471 0.84362 0.0
C1310 C 0.83669 0.71501 0.84863 0.0
C1311 C 0.88212 0.81962 0.79498 0.0
C1312 C 0.86091 0.82528 0.78852 0.0
C1313 C 0.8861 0.80408 0.81285 0.0
C1314 C 0.86901 0.79382 0.82487 0.0
C1315 C 0.84783 0.79944 0.81851 0.0
C1316 C 0.84383 0.81501 0.80067 0.0
C1317 C 0.87317 0.77672 0.84342 0.0
C1318 C 0.86386 0.75631 0.84024 0.0
C1319 C 0.88688 0.78004 0.86351 0.0
C1320 C 0.89647 0.80144 0.86866 0.0
C1321 C 0.88335 0.81983 0.87089 0.0
C1322 C 0.89252 0.83997 0.87554 0.0
C1323 C 0.91479 0.84191 0.87817 0.0
C1324 C 0.92793 0.8237 0.87621 0.0
C1325 C 0.91885 0.80352 0.87154 0.0
H1326 H 0.92186 0.85752 0.88177 0.0
H1327 H 0.8349 0.66138 0.83627 0.0
H1328 H 0.64408 0.67817 0.69933 0.0
H1329 H 0.67356 0.6723 0.67057 0.0
H1330 H 0.7108 0.64133 0.72636 0.0
H1331 H 0.68146 0.64718 0.75511 0.0
H1332 H 0.7354 0.66981 0.69907 0.0
H1333 H 0.68673 0.61107 0.68556 0.0
H1334 H 0.65166 0.59423 0.67688 0.0
H1335 H 0.64882 0.62735 0.60885 0.0
H1336 H 0.68376 0.64464 0.61728 0.0
H1337 H 0.81638 0.62312 0.62487 0.0
H1338 H 0.78794 0.63074 0.65403 0.0
H1339 H 0.74484 0.64719 0.59569 0.0
H1340 H 0.77286 0.63761 0.56649 0.0
H1341 H 0.72305 0.62673 0.62506 0.0
H1342 H 0.77235 0.68604 0.63884 0.0
H1343 H 0.80807 0.70152 0.64761 0.0
H1344 H 0.81013 0.66718 0.71494 0.0
H1345 H 0.77444 0.65149 0.70648 0.0
C1346 C 0.65858 0.67022 0.70549 0.0
C1347 C 0.66028 0.66301 0.72951 0.0
C1348 C 0.67541 0.66677 0.689 0.0
C1349 C 0.69443 0.65623 0.6962 0.0
C1350 C 0.69634 0.64946 0.72031 0.0
C1351 C 0.67943 0.65265 0.7367 0.0
C1352 C 0.71214 0.65188 0.67854 0.0
C1353 C 0.73275 0.66029 0.68293 0.0
C1354 C 0.70873 0.63971 0.6573 0.0
C1355 C 0.68774 0.62933 0.65217 0.0
C1356 C 0.67853 0.61491 0.66884 0.0
C1357 C 0.6587 0.60526 0.66395 0.0
C1358 C 0.64799 0.60977 0.64236 0.0
C1359 C 0.65712 0.62391 0.62559 0.0
C1360 C 0.67694 0.63363 0.6304 0.0
C1361 C 0.80091 0.62863 0.61831 0.0
C1362 C 0.79693 0.63003 0.59339 0.0
C1363 C 0.78459 0.63315 0.63506 0.0
C1364 C 0.76413 0.64021 0.62737 0.0
C1365 C 0.76035 0.64187 0.60235 0.0
C1366 C 0.77643 0.63655 0.58559 0.0
C1367 C 0.74645 0.64503 0.64516 0.0
C1368 C 0.72578 0.63656 0.64093 0.0
C1369 C 0.74982 0.65727 0.6665 0.0
C1370 C 0.77083 0.66748 0.67198 0.0
C1371 C 0.78043 0.68182 0.65552 0.0
C1372 C 0.80066 0.69062 0.66042 0.0
C1373 C 0.81138 0.68531 0.68179 0.0
C1374 C 0.80182 0.6713 0.6984 0.0
C1375 C 0.78157 0.6625 0.69359 0.0
H1376 H 0.82709 0.69206 0.68549 0.0
H1377 H 0.63264 0.60227 0.6386 0.0
H1378 H 0.38667 0.18941 1.00439 0.0
H1379 H 0.39456 0.21953 0.97699 0.0
H1380 H 0.33787 0.20448 0.93555 0.0
H1381 H 0.32998 0.17457 0.96262 0.0
H1382 H 0.37114 0.21145 0.906 0.0
H1383 H 0.33963 0.25275 0.97463 0.0
H1384 H 0.33918 0.26186 0.01802 0.0
H1385 H 0.40632 0.2779 0.01498 0.0
H1386 H 0.40712 0.2688 0.97157 0.0
H1387 H 0.34507 0.30041 0.83557 0.0
H1388 H 0.3472 0.27196 0.86544 0.0
H1389 H 0.40225 0.30268 0.89781 0.0
H1390 H 0.3997 0.33214 0.86795 0.0
H1391 H 0.37673 0.28751 0.93267 0.0
H1392 H 0.40707 0.25544 0.86294 0.0
H1393 H 0.41013 0.24523 0.82009 0.0
H1394 H 0.35153 0.20893 0.82533 0.0
H1395 H 0.34794 0.21916 0.86814 0.0
C1396 C 0.37575 0.19264 0.98961 0.0
C1397 C 0.35772 0.17929 0.98578 0.0
C1398 C 0.38028 0.20996 0.97389 0.0
C1399 C 0.36679 0.21452 0.95407 0.0
C1400 C 0.3487 0.20135 0.95048 0.0
C1401 C 0.34421 0.1841 0.96605 0.0
C1402 C 0.37135 0.23264 0.93669 0.0
C1403 C 0.37232 0.22808 0.91187 0.0
C1404 C 0.37396 0.25432 0.94414 0.0
C1405 C 0.3734 0.2602 0.96997 0.0
C1406 C 0.35425 0.25827 0.98326 0.0
C1407 C 0.35395 0.26339 0.00782 0.0
C1408 C 0.37271 0.27045 0.01924 0.0
C1409 C 0.39181 0.27242 1.00611 0.0
C1410 C 0.3922 0.26731 0.98153 0.0
C1411 C 0.35783 0.30124 0.84884 0.0
C1412 C 0.37236 0.31867 0.84899 0.0
C1413 C 0.35908 0.28471 0.866 0.0
C1414 C 0.37516 0.28466 0.88382 0.0
C1415 C 0.38973 0.3021 0.88424 0.0
C1416 C 0.38839 0.3189 0.867 0.0
C1417 C 0.37618 0.26641 0.90183 0.0
C1418 C 0.37615 0.27089 0.92675 0.0
C1419 C 0.37508 0.24449 0.89448 0.0
C1420 C 0.37718 0.23819 0.86874 0.0
C1421 C 0.39476 0.24539 0.85492 0.0
C1422 C 0.3966 0.23958 0.83064 0.0
C1423 C 0.38101 0.22647 0.81999 0.0
C1424 C 0.36358 0.21909 0.83361 0.0
C1425 C 0.36166 0.22486 0.8579 0.0
H1426 H 0.38246 0.22199 0.80118 0.0
H1427 H 0.37243 0.27437 0.03826 0.0
H1428 H 0.85041 0.88004 0.2279 0.0
H1429 H 0.8216 0.88335 0.19819 0.0
H1430 H 0.81037 0.81484 0.20227 0.0
H1431 H 0.83928 0.81141 0.23196 0.0
H1432 H 0.80706 0.82665 0.15724 0.0
H1433 H 0.77654 0.85223 0.23027 0.0
H1434 H 0.77171 0.87363 0.26738 0.0
H1435 H 0.77007 0.9319 0.22548 0.0
H1436 H 0.77525 0.91092 0.18816 0.0
H1437 H 0.70194 0.84054 0.09857 0.0
H1438 H 0.73099 0.83095 0.12689 0.0
H1439 H 0.75704 0.89506 0.12024 0.0
H1440 H 0.72863 0.90458 0.09196 0.0
H1441 H 0.75047 0.8822 0.1682 0.0
H1442 H 0.78256 0.8542 0.09482 0.0
H1443 H 0.78359 0.83094 0.05878 0.0
H1444 H 0.77866 0.77464 0.10365 0.0
H1445 H 0.7773 0.79761 0.13996 0.0
C1446 C 0.84181 0.86565 0.22259 0.0
C1447 C 0.84724 0.84547 0.23258 0.0
C1448 C 0.82522 0.86757 0.20555 0.0
C1449 C 0.81338 0.84942 0.19816 0.0
C1450 C 0.81914 0.82915 0.2076 0.0
C1451 C 0.83581 0.8272 0.22459 0.0
C1452 C 0.79506 0.85167 0.18066 0.0
C1453 C 0.79454 0.83862 0.15989 0.0
C1454 C 0.77856 0.86723 0.18386 0.0
C1455 C 0.77646 0.88 0.2064 0.0
C1456 C 0.77544 0.86963 0.22899 0.0
C1457 C 0.77258 0.88168 0.25006 0.0
C1458 C 0.77055 0.9041 0.24876 0.0
C1459 C 0.77162 0.91454 0.22644 0.0
C1460 C 0.77452 0.90258 0.20533 0.0
C1461 C 0.71411 0.85244 0.10278 0.0
C1462 C 0.71285 0.87336 0.09291 0.0
C1463 C 0.73068 0.84696 0.11905 0.0
C1464 C 0.74619 0.86233 0.12585 0.0
C1465 C 0.74525 0.88294 0.11545 0.0
C1466 C 0.72895 0.88833 0.09913 0.0
C1467 C 0.76288 0.85766 0.14462 0.0
C1468 C 0.76299 0.87021 0.16569 0.0
C1469 C 0.77871 0.84141 0.14188 0.0
C1470 C 0.77958 0.82763 0.12007 0.0
C1471 C 0.78149 0.83687 0.09698 0.0
C1472 C 0.78218 0.82374 0.07651 0.0
C1473 C 0.78112 0.80133 0.07892 0.0
C1474 C 0.77944 0.79201 0.10181 0.0
C1475 C 0.77872 0.80507 0.12234 0.0
H1476 H 0.78166 0.79119 0.06305 0.0
H1477 H 0.76799 0.9134 0.26499 0.0
H1478 H 0.12446 0.18025 0.37107 0.0
H1479 H 0.13125 0.20863 0.40057 0.0
H1480 H 0.10219 0.25531 0.35298 0.0
H1481 H 0.09488 0.22684 0.32348 0.0
H1482 H 0.14338 0.2678 0.37263 0.0
H1483 H 0.07463 0.23962 0.40063 0.0
H1484 H 0.05055 0.21046 0.41433 0.0
H1485 H 0.09375 0.1958 0.47254 0.0
H1486 H 0.11819 0.22477 0.45906 0.0
H1487 H 0.14172 0.35789 0.45005 0.0
H1488 H 0.13303 0.32894 0.42175 0.0
H1489 H 0.14059 0.28215 0.47896 0.0
H1490 H 0.14757 0.31152 0.50757 0.0
H1491 H 0.1109 0.26841 0.45439 0.0
H1492 H 0.17988 0.29285 0.42985 0.0
H1493 H 0.20803 0.31861 0.4175 0.0
H1494 H 0.1712 0.33573 0.35478 0.0
H1495 H 0.14269 0.31026 0.36691 0.0
C1496 C 0.11925 0.19643 0.36687 0.0
C1497 C 0.10892 0.20106 0.34483 0.0
C1498 C 0.1232 0.21272 0.38384 0.0
C1499 C 0.11716 0.23415 0.37911 0.0
C1500 C 0.10699 0.23891 0.35709 0.0
C1501 C 0.10274 0.22255 0.34025 0.0
C1502 C 0.1218 0.25162 0.39692 0.0
C1503 C 0.13606 0.26815 0.3904 0.0
C1504 C 0.11308 0.25153 0.42053 0.0
C1505 C 0.09829 0.23427 0.42874 0.0
C1506 C 0.07905 0.2301 0.41626 0.0
C1507 C 0.06533 0.21363 0.42401 0.0
C1508 C 0.07063 0.2013 0.44429 0.0
C1509 C 0.08966 0.20539 0.45686 0.0
C1510 C 0.10343 0.22186 0.4492 0.0
C1511 C 0.1415 0.34139 0.45648 0.0
C1512 C 0.14546 0.3369 0.48093 0.0
C1513 C 0.13672 0.32474 0.44025 0.0
C1514 C 0.13671 0.30301 0.4478 0.0
C1515 C 0.14049 0.29861 0.47241 0.0
C1516 C 0.14457 0.31538 0.48881 0.0
C1517 C 0.1325 0.28502 0.43017 0.0
C1518 C 0.11834 0.26826 0.43668 0.0
C1519 C 0.14197 0.28446 0.40681 0.0
C1520 C 0.15906 0.2998 0.39943 0.0
C1521 C 0.17772 0.30222 0.41351 0.0
C1522 C 0.19374 0.31675 0.40654 0.0
C1523 C 0.19138 0.32884 0.38541 0.0
C1524 C 0.173 0.32638 0.37116 0.0
C1525 C 0.15691 0.31188 0.37807 0.0
H1526 H 0.2038 0.34008 0.38004 0.0
H1527 H 0.05995 0.18863 0.45032 0.0
H1528 H 0.663 0.83563 0.55984 0.0
H1529 H 0.69173 0.83965 0.58953 0.0
H1530 H 0.72289 0.88639 0.5437 0.0
H1531 H 0.69483 0.88179 0.51351 0.0
H1532 H 0.75194 0.86089 0.56119 0.0
H1533 H 0.69324 0.90073 0.59539 0.0
H1534 H 0.65626 0.90635 0.61025 0.0
H1535 H 0.66544 0.85688 0.66358 0.0
H1536 H 0.70241 0.85077 0.64882 0.0
H1537 H 0.79567 0.91204 0.68074 0.0
H1538 H 0.76667 0.90589 0.65183 0.0
H1539 H 0.79615 0.84581 0.63066 0.0
H1540 H 0.82557 0.85219 0.65909 0.0
H1541 H 0.7365 0.87775 0.64693 0.0
H1542 H 0.78547 0.8343 0.57273 0.0
H1543 H 0.82222 0.83386 0.55578 0.0
H1544 H 0.83194 0.89895 0.57995 0.0
H1545 H 0.79543 0.89971 0.59688 0.0
C1546 C 0.676 0.84665 0.55589 0.0
C1547 C 0.67634 0.85843 0.5341 0.0
C1548 C 0.69239 0.84911 0.5731 0.0
C1549 C 0.70947 0.86354 0.56912 0.0
C1550 C 0.70993 0.87517 0.54734 0.0
C1551 C 0.69364 0.87267 0.5301 0.0
C1552 C 0.72697 0.86647 0.58741 0.0
C1553 C 0.74849 0.86447 0.57995 0.0
C1554 C 0.7227 0.87148 0.61191 0.0
C1555 C 0.70051 0.87514 0.62084 0.0
C1556 C 0.68732 0.89094 0.61017 0.0
C1557 C 0.66637 0.89423 0.61859 0.0
C1558 C 0.65848 0.88194 0.6378 0.0
C1559 C 0.67156 0.86636 0.64867 0.0
C1560 C 0.69252 0.86299 0.6403 0.0
C1561 C 0.79605 0.8975 0.66994 0.0
C1562 C 0.81309 0.88267 0.67226 0.0
C1563 C 0.77934 0.89395 0.65341 0.0
C1564 C 0.77916 0.87547 0.63874 0.0
C1565 C 0.79599 0.86042 0.64134 0.0
C1566 C 0.81281 0.86404 0.65775 0.0
C1567 C 0.76148 0.87213 0.6207 0.0
C1568 C 0.73993 0.87398 0.62821 0.0
C1569 C 0.7657 0.86749 0.5961 0.0
C1570 C 0.78784 0.86697 0.58629 0.0
C1571 C 0.79553 0.84848 0.57443 0.0
C1572 C 0.81633 0.84816 0.56484 0.0
C1573 C 0.82951 0.8663 0.56685 0.0
C1574 C 0.8219 0.8848 0.57848 0.0
C1575 C 0.80116 0.88517 0.58814 0.0
H1576 H 0.84554 0.86601 0.55926 0.0
H1577 H 0.64226 0.88451 0.6443 0.0
H1578 H 0.09246 0.28347 0.94083 0.0
H1579 H 0.09857 0.2538 0.91232 0.0
H1580 H 0.14504 0.29252 0.87415 0.0
H1581 H 0.13928 0.32186 0.90262 0.0
H1582 H 0.11688 0.27185 0.84319 0.0
H1583 H 0.16231 0.2539 0.91027 0.0
H1584 H 0.17057 0.24659 0.95303 0.0
H1585 H 0.12636 0.19342 0.95291 0.0
H1586 H 0.11761 0.20062 0.9102 0.0
H1587 H 0.16147 0.19121 0.76749 0.0
H1588 H 0.15625 0.22045 0.79668 0.0
H1589 H 0.12205 0.17658 0.84359 0.0
H1590 H 0.12887 0.1471 0.81497 0.0
H1591 H 0.14333 0.20041 0.87048 0.0
H1592 H 0.09801 0.2183 0.8024 0.0
H1593 H 0.08901 0.22701 0.76014 0.0
H1594 H 0.13206 0.28109 0.76197 0.0
H1595 H 0.14154 0.27253 0.80413 0.0
C1596 C 0.10394 0.28571 0.92633 0.0
C1597 C 0.11531 0.30523 0.92405 0.0
C1598 C 0.10747 0.26868 0.91007 0.0
C1599 C 0.12233 0.27085 0.89106 0.0
C1600 C 0.13344 0.29041 0.88856 0.0
C1601 C 0.13012 0.30726 0.90493 0.0
C1602 C 0.12647 0.25281 0.87379 0.0
C1603 C 0.12283 0.25625 0.84908 0.0
C1604 C 0.13387 0.23234 0.88148 0.0
C1605 C 0.13913 0.22795 0.90713 0.0
C1606 C 0.15421 0.24077 0.91942 0.0
C1607 C 0.15901 0.23662 0.94363 0.0
C1608 C 0.14895 0.21959 0.9557 0.0
C1609 C 0.13411 0.20664 0.94355 0.0
C1610 C 0.12923 0.21073 0.91934 0.0
C1611 C 0.15312 0.1879 0.78424 0.0
C1612 C 0.1457 0.167 0.78918 0.0
C1613 C 0.14981 0.20466 0.80081 0.0
C1614 C 0.13815 0.20111 0.82227 0.0
C1615 C 0.13104 0.17997 0.82727 0.0
C1616 C 0.13492 0.16308 0.81098 0.0
C1617 C 0.13352 0.2192 0.83957 0.0
C1618 C 0.13717 0.21586 0.86439 0.0
C1619 C 0.12603 0.2398 0.83193 0.0
C1620 C 0.12062 0.24464 0.80638 0.0
C1621 C 0.1057 0.23192 0.79372 0.0
C1622 C 0.1005 0.23686 0.76978 0.0
C1623 C 0.10999 0.25458 0.75836 0.0
C1624 C 0.12475 0.26736 0.77083 0.0
C1625 C 0.13003 0.26248 0.79474 0.0
H1626 H 0.10587 0.2585 0.7399 0.0
H1627 H 0.15269 0.2164 0.97444 0.0
H1628 H 0.8476 0.6651 0.06605 0.0
H1629 H 0.81721 0.66168 0.09381 0.0
H1630 H 0.78511 0.61976 0.04339 0.0
H1631 H 0.81498 0.62372 0.01521 0.0
H1632 H 0.75701 0.6473 0.06139 0.0
H1633 H 0.81006 0.60019 0.09546 0.0
H1634 H 0.84573 0.58998 0.11127 0.0
H1635 H 0.83997 0.63763 0.16706 0.0
H1636 H 0.80437 0.64833 0.15137 0.0
H1637 H 0.67615 0.61472 0.14668 0.0
H1638 H 0.7068 0.61266 0.11863 0.0
H1639 H 0.74143 0.6587 0.16197 0.0
H1640 H 0.71102 0.6609 0.18976 0.0
H1641 H 0.76779 0.62633 0.14695 0.0
H1642 H 0.71615 0.67474 0.11188 0.0
H1643 H 0.68091 0.68608 0.09585 0.0
H1644 H 0.68412 0.63641 0.04206 0.0
H1645 H 0.7193 0.62456 0.05801 0.0
C1646 C 0.83407 0.65522 0.06076 0.0
C1647 C 0.83402 0.64458 0.03832 0.0
C1648 C 0.81671 0.65311 0.07681 0.0
C1649 C 0.79886 0.64017 0.07097 0.0
C1650 C 0.79865 0.62973 0.04849 0.0
C1651 C 0.81597 0.63186 0.03242 0.0
C1652 C 0.78033 0.63772 0.08811 0.0
C1653 C 0.75938 0.64233 0.07998 0.0
C1654 C 0.78326 0.63163 0.11257 0.0
C1655 C 0.80463 0.62519 0.1221 0.0
C1656 C 0.81647 0.6086 0.11099 0.0
C1657 C 0.83666 0.6027 0.11995 0.0
C1658 C 0.84513 0.61318 0.14012 0.0
C1659 C 0.8334 0.62954 0.15142 0.0
C1660 C 0.8132 0.63551 0.14252 0.0
C1661 C 0.69046 0.62409 0.15043 0.0
C1662 C 0.69113 0.63797 0.17049 0.0
C1663 C 0.70791 0.62305 0.13427 0.0
C1664 C 0.72642 0.63569 0.13801 0.0
C1665 C 0.7274 0.6488 0.15861 0.0
C1666 C 0.70994 0.65006 0.17451 0.0
C1667 C 0.74457 0.63601 0.12025 0.0
C1668 C 0.76544 0.63104 0.12828 0.0
C1669 C 0.74155 0.64178 0.09572 0.0
C1670 C 0.72025 0.64861 0.08632 0.0
C1671 C 0.70924 0.66608 0.0968 0.0
C1672 C 0.68931 0.67263 0.0877 0.0
C1673 C 0.68029 0.66198 0.06795 0.0
C1674 C 0.69114 0.64466 0.05735 0.0
C1675 C 0.71108 0.63801 0.06642 0.0
H1676 H 0.66494 0.66721 0.06083 0.0
H1677 H 0.86077 0.6086 0.14703 0.0
H1678 H 0.34475 0.33906 0.31002 0.0
H1679 H 0.34931 0.30985 0.33923 0.0
H1680 H 0.38892 0.27527 0.28842 0.0
H1681 H 0.38432 0.30429 0.25905 0.0
H1682 H 0.33896 0.26771 0.33884 0.0
H1683 H 0.42769 0.24765 0.31921 0.0
H1684 H 0.46041 0.26547 0.30378 0.0
H1685 H 0.43702 0.32666 0.32885 0.0
H1686 H 0.4043 0.30916 0.3447 0.0
H1687 H 0.36624 0.17062 0.40034 0.0
H1688 H 0.36175 0.19848 0.36954 0.0
H1689 H 0.40239 0.2413 0.41022 0.0
H1690 H 0.40817 0.21307 0.44035 0.0
H1691 H 0.41189 0.24493 0.36484 0.0
H1692 H 0.34505 0.2439 0.4093 0.0
H1693 H 0.31222 0.22722 0.42593 0.0
H1694 H 0.29122 0.21107 0.35441 0.0
H1695 H 0.32418 0.22718 0.33737 0.0
C1696 C 0.3543 0.32521 0.30491 0.0
C1697 C 0.36427 0.32424 0.2821 0.0
C1698 C 0.35692 0.30848 0.3217 0.0
C1699 C 0.36965 0.2904 0.3162 0.0
C1700 C 0.37933 0.28919 0.29332 0.0
C1701 C 0.37673 0.30591 0.27652 0.0
C1702 C 0.37296 0.27298 0.33449 0.0
C1703 C 0.35491 0.2627 0.3445 0.0
C1704 C 0.39374 0.26646 0.34205 0.0
C1705 C 0.41348 0.27712 0.33292 0.0
C1706 C 0.42958 0.26489 0.3215 0.0
C1707 C 0.44811 0.27494 0.31267 0.0
C1708 C 0.45076 0.2972 0.31527 0.0
C1709 C 0.43491 0.30944 0.32678 0.0
C1710 C 0.41636 0.29947 0.33566 0.0
C1711 C 0.37437 0.18588 0.40273 0.0
C1712 C 0.3877 0.18947 0.42288 0.0
C1713 C 0.37156 0.20191 0.38516 0.0
C1714 C 0.38135 0.22219 0.38765 0.0
C1715 C 0.39461 0.22583 0.40778 0.0
C1716 C 0.39782 0.20967 0.42512 0.0
C1717 C 0.37787 0.23961 0.36934 0.0
C1718 C 0.39591 0.24984 0.35919 0.0
C1719 C 0.35705 0.2462 0.36183 0.0
C1720 C 0.33718 0.2366 0.37208 0.0
C1721 C 0.33351 0.23665 0.39713 0.0
C1722 C 0.31488 0.22729 0.40663 0.0
C1723 C 0.29966 0.21807 0.39124 0.0
C1724 C 0.30301 0.21825 0.3663 0.0
C1725 C 0.32168 0.22745 0.35672 0.0
H1726 H 0.28527 0.21079 0.39862 0.0
H1727 H 0.46511 0.30494 0.3084 0.0
H1728 H 0.03751 0.08841 0.34122 0.0
H1729 H 0.01832 0.05418 0.34396 0.0
H1730 H 0.01423 0.05151 0.26633 0.0
H1731 H 0.0321 0.08642 0.26351 0.0
H1732 H 0.97992 0.03423 0.28388 0.0
H1733 H 0.05543 0.02575 0.30027 0.0
H1734 H 0.08933 0.03364 0.32162 0.0
H1735 H 0.06129 0.01231 0.38833 0.0
H1736 H 0.02709 0.00462 0.36744 0.0
H1737 H 0.971 0.92141 0.26773 0.0
H1738 H 0.9874 0.95721 0.26884 0.0
H1739 H 0.977 0.96029 0.34563 0.0
H1740 H 0.95982 0.92489 0.34466 0.0
H1741 H 0.01783 0.97717 0.33029 0.0
H1742 H 0.94242 0.98433 0.31203 0.0
H1743 H 0.90925 0.97634 0.28939 0.0
H1744 H 0.93859 0.99959 0.2242 0.0
H1745 H 0.97209 0.00738 0.2464 0.0
C1746 C 0.03188 0.08098 0.32473 0.0
C1747 C 0.03667 0.09018 0.3021 0.0
C1748 C 0.0212 0.06113 0.32631 0.0
C1749 C 0.01544 0.04977 0.30533 0.0
C1750 C 0.01874 0.0597 0.28282 0.0
C1751 C 0.02912 0.07968 0.28123 0.0
C1752 C 0.00716 0.02714 0.3066 0.0
C1753 C 0.98838 0.02177 0.29386 0.0
C1754 C 0.01793 0.01074 0.31986 0.0
C1755 C 0.03864 0.01481 0.33234 0.0
C1756 C 0.05647 0.02283 0.31952 0.0
C1757 C 0.07573 0.02727 0.33153 0.0
C1758 C 0.07744 0.02353 0.35633 0.0
C1759 C 0.05993 0.01523 0.36914 0.0
C1760 C 0.0406 0.01082 0.35722 0.0
C1761 C 0.97228 0.92958 0.28493 0.0
C1762 C 0.96383 0.92015 0.30607 0.0
C1763 C 0.98174 0.95006 0.28552 0.0
C1764 C 0.98317 0.96157 0.30726 0.0
C1765 C 0.97607 0.95172 0.32864 0.0
C1766 C 0.96638 0.93131 0.32804 0.0
C1767 C 0.99079 0.98437 0.30741 0.0
C1768 C 0.00941 0.98971 0.3204 0.0
C1769 C 0.98004 1.00069 0.29416 0.0
C1770 C 0.95984 0.99624 0.28083 0.0
C1771 C 0.94186 0.98758 0.29283 0.0
C1772 C 0.92299 0.9831 0.28008 0.0
C1773 C 0.92183 0.9874 0.25536 0.0
C1774 C 0.93952 0.99624 0.24335 0.0
C1775 C 0.95846 1.0007 0.256 0.0
H1776 H 0.9072 0.98393 0.24552 0.0
H1777 H 0.09236 0.02702 0.36561 0.0
H1778 H 0.10352 0.48281 0.56716 0.0
H1779 H 0.07317 0.50768 0.56646 0.0
H1780 H 0.05993 0.49008 0.49267 0.0
H1781 H 0.09145 0.46676 0.49248 0.0
H1782 H 0.04823 0.52871 0.49736 0.0
H1783 H 0.03469 0.46539 0.54438 0.0
H1784 H 0.04159 0.4386 0.57641 0.0
H1785 H 0.03478 0.48781 0.63032 0.0
H1786 H 0.02818 0.51498 0.59856 0.0
H1787 H 0.93228 0.54588 0.50538 0.0
H1788 H 0.96741 0.52751 0.50318 0.0
H1789 H 0.99073 0.56662 0.56181 0.0
H1790 H 0.95603 0.58537 0.56363 0.0
H1791 H 0.9968 0.5178 0.56479 0.0
H1792 H 0.00891 0.58065 0.51409 0.0
H1793 H 1.00028 0.60483 0.48007 0.0
H1794 H 0.00682 0.55204 0.43053 0.0
H1795 H 0.01517 0.52746 0.46434 0.0
C1796 C 0.09472 0.48477 0.55045 0.0
C1797 C 0.09983 0.47227 0.53003 0.0
C1798 C 0.077 0.49876 0.55023 0.0
C1799 C 0.06356 0.50014 0.52985 0.0
C1800 C 0.06969 0.4891 0.50882 0.0
C1801 C 0.0877 0.47553 0.50883 0.0
C1802 C 0.0425 0.51185 0.53083 0.0
C1803 C 0.03698 0.52611 0.51204 0.0
C1804 C 0.02757 0.50861 0.54992 0.0
C1805 C 0.03116 0.49226 0.56908 0.0
C1806 C 0.03477 0.47052 0.56306 0.0
C1807 C 0.03863 0.45526 0.58116 0.0
C1808 C 0.03868 0.46151 0.60538 0.0
C1809 C 0.03478 0.48301 0.61155 0.0
C1810 C 0.03097 0.49834 0.59351 0.0
C1811 C 0.94496 0.55056 0.5177 0.0
C1812 C 0.9415 0.56713 0.53456 0.0
C1813 C 0.96498 0.54012 0.51642 0.0
C1814 C 0.98166 0.54576 0.53232 0.0
C1815 C 0.9781 0.56207 0.54936 0.0
C1816 C 0.95832 0.57281 0.55029 0.0
C1817 C 1.00279 0.53454 0.53146 0.0
C1818 C 0.00819 0.52034 0.55022 0.0
C1819 C 0.01732 0.53739 0.51208 0.0
C1820 C 0.01242 0.55218 0.49177 0.0
C1821 C 0.00829 0.57415 0.49597 0.0
C1822 C 0.0035 0.58794 0.47673 0.0
C1823 C 1.00294 0.57997 0.45316 0.0
C1824 C 0.00723 0.55819 0.4488 0.0
C1825 C 0.012 0.54433 0.46799 0.0
H1826 H 0.99923 0.59067 0.43828 0.0
H1827 H 0.0417 0.44968 0.61936 0.0
H1828 H 0.44142 0.44455 0.84295 0.0
H1829 H 0.46025 0.47936 0.84277 0.0
H1830 H 0.49013 0.46299 0.77502 0.0
H1831 H 0.47075 0.42844 0.77474 0.0
H1832 H 0.51745 0.48502 0.81711 0.0
H1833 H 0.45332 0.49065 0.76585 0.0
H1834 H 0.41436 0.48636 0.75904 0.0
H1835 H 0.40104 0.52827 0.81886 0.0
H1836 H 0.43997 0.53248 0.82628 0.0
H1837 H 0.55766 0.58077 0.7714 0.0
H1838 H 0.53906 0.54689 0.77566 0.0
H1839 H 0.49147 0.57713 0.82102 0.0
H1840 H 0.50911 0.61204 0.81521 0.0
H1841 H 0.47243 0.54813 0.79462 0.0
H1842 H 0.53413 0.54675 0.84449 0.0
H1843 H 0.57234 0.55114 0.85529 0.0
H1844 H 0.58982 0.50169 0.80476 0.0
H1845 H 0.55174 0.49728 0.7933 0.0
C1846 C 0.45247 0.44815 0.82836 0.0
C1847 C 0.45483 0.43372 0.80898 0.0
C1848 C 0.46309 0.46807 0.8282 0.0
C1849 C 0.47654 0.47375 0.80886 0.0
C1850 C 0.47988 0.45887 0.79015 0.0
C1851 C 0.46887 0.43915 0.79002 0.0
C1852 C 0.48579 0.49581 0.80724 0.0
C1853 C 0.50773 0.49881 0.81195 0.0
C1854 C 0.47287 0.5139 0.80151 0.0
C1855 C 0.44952 0.51166 0.79679 0.0
C1856 C 0.44208 0.49878 0.77769 0.0
C1857 C 0.42 0.49639 0.7737 0.0
C1858 C 0.40523 0.50698 0.78856 0.0
C1859 C 0.4125 0.52004 0.80739 0.0
C1860 C 0.43457 0.52244 0.81149 0.0
C1861 C 0.54286 0.58073 0.78166 0.0
C1862 C 0.53501 0.59963 0.79282 0.0
C1863 C 0.53243 0.56097 0.78452 0.0
C1864 C 0.51417 0.55915 0.79926 0.0
C1865 C 0.50569 0.57798 0.80976 0.0
C1866 C 0.51596 0.59798 0.80656 0.0
C1867 C 0.50442 0.53747 0.80387 0.0
C1868 C 0.4823 0.53447 0.79987 0.0
C1869 C 0.51713 0.51944 0.81084 0.0
C1870 C 0.54007 0.5218 0.81789 0.0
C1871 C 0.54613 0.5369 0.83556 0.0
C1872 C 0.56777 0.53939 0.84181 0.0
C1873 C 0.5835 0.52672 0.8307 0.0
C1874 C 0.57762 0.5115 0.81335 0.0
C1875 C 0.556 0.50899 0.80697 0.0
H1876 H 0.60025 0.52867 0.83555 0.0
H1877 H 0.38814 0.50512 0.78544 0.0
H1878 H 0.4153 0.03721 0.06037 0.0
H1879 H 0.44565 0.01264 0.06006 0.0
H1880 H 0.48112 0.0567 0.01485 0.0
H1881 H 0.45 0.08066 0.01322 0.0
H1882 H 0.4905 0.01855 1.00117 0.0
H1883 H 0.48911 0.05153 0.07884 0.0
H1884 H 0.47346 0.06321 0.11758 0.0
H1885 H 0.46138 0.99724 0.13691 0.0
H1886 H 0.4767 0.98517 0.09812 0.0
H1887 H 0.59356 0.97251 0.03274 0.0
H1888 H 0.56273 0.9971 0.02905 0.0
H1889 H 0.52084 0.94777 0.05726 0.0
H1890 H 0.55153 0.92306 0.06074 0.0
H1891 H 0.51596 0.98931 0.07952 0.0
H1892 H 0.51855 0.9575 1.00008 0.0
H1893 H 0.53608 0.94757 0.96174 0.0
H1894 H 0.5487 0.01434 0.94681 0.0
H1895 H 0.5315 0.02465 0.98525 0.0
C1896 C 0.42925 0.04162 0.0498 0.0
C1897 C 0.42989 0.06122 0.03685 0.0
C1898 C 0.44691 0.0276 0.05006 0.0
C1899 C 0.46609 0.03295 0.03802 0.0
C1900 C 0.46667 0.05218 0.02455 0.0
C1901 C 0.44882 0.06608 0.02388 0.0
C1902 C 0.48545 0.01856 0.03967 0.0
C1903 C 0.49619 0.01246 0.01839 0.0
C1904 C 0.49298 0.01028 0.06205 0.0
C1905 C 0.48388 0.01746 0.08547 0.0
C1906 C 0.48299 0.03952 0.09129 0.0
C1907 C 0.47419 0.04621 0.11326 0.0
C1908 C 0.46638 0.03098 0.12967 0.0
C1909 C 0.46742 0.00902 0.12417 0.0
C1910 C 0.47617 1.00224 0.1022 0.0
C1911 C 0.57777 0.9669 0.03812 0.0
C1912 C 0.57499 0.9458 0.047 0.0
C1913 C 0.56016 0.98094 0.03591 0.0
C1914 C 0.53944 0.97428 0.04282 0.0
C1915 C 0.53665 0.95327 0.05179 0.0
C1916 C 0.55418 0.93912 0.05363 0.0
C1917 C 0.52073 0.98929 0.04109 0.0
C1918 C 0.5102 0.99551 0.06238 0.0
C1919 C 0.51369 0.998 0.01882 0.0
C1920 C 0.52394 0.99183 0.99566 0.0
C1921 C 0.52523 0.97005 0.98872 0.0
C1922 C 0.53507 0.96436 0.96695 0.0
C1923 C 0.54355 0.98031 0.95188 0.0
C1924 C 0.54215 1.002 0.95852 0.0
C1925 C 0.53235 0.00778 0.98029 0.0
H1926 H 0.55116 0.97587 0.93503 0.0
H1927 H 0.45957 0.0362 0.14667 0.0
H1928 H 0.03591 0.4076 0.98421 0.0
H1929 H 0.01295 0.43982 0.98487 0.0
H1930 H 0.06926 0.48021 0.97977 0.0
H1931 H 0.09211 0.44829 0.97952 0.0
H1932 H 0.04299 0.49752 0.01028 0.0
H1933 H 0.03581 0.4691 0.93032 0.0
H1934 H 0.02807 0.44154 0.89949 0.0
H1935 H 0.96313 0.43636 0.92532 0.0
H1936 H 0.97058 0.46369 0.95653 0.0
H1937 H 0.98809 0.5944 0.97276 0.0
H1938 H 0.01168 0.56249 0.97342 0.0
H1939 H 0.95685 0.52197 0.98803 0.0
H1940 H 0.93338 0.55347 0.9872 0.0
H1941 H 0.98257 0.50524 0.95246 0.0
H1942 H 0.99078 0.53438 0.03262 0.0
H1943 H 0.99922 0.56273 0.0623 0.0
H1944 H 0.0634 0.56752 0.0341 0.0
H1945 H 0.05523 0.53939 1.00402 0.0
C1946 C 0.04335 0.42336 0.98334 0.0
C1947 C 0.06586 0.42532 0.98205 0.0
C1948 C 0.03022 0.44179 0.98361 0.0
C1949 C 0.03932 0.46255 0.9821 0.0
C1950 C 0.06179 0.46447 0.9811 0.0
C1951 C 0.07487 0.44613 0.98106 0.0
C1952 C 0.02559 0.48233 0.98126 0.0
C1953 C 0.02995 0.49926 0.99741 0.0
C1954 C 0.00837 0.48467 0.9647 0.0
C1955 C 0.00382 0.46827 0.94592 0.0
C1956 C 0.01993 0.46196 0.92954 0.0
C1957 C 0.01559 0.4464 0.91198 0.0
C1958 C 0.99514 0.43716 0.91049 0.0
C1959 C 0.97897 0.44351 0.92652 0.0
C1960 C 0.98324 0.45904 0.94414 0.0
C1961 C 0.98113 0.57868 0.97618 0.0
C1962 C 0.95891 0.57655 0.98032 0.0
C1963 C 0.9946 0.56048 0.97662 0.0
C1964 C 0.98604 0.53982 0.98095 0.0
C1965 C 0.96385 0.5377 0.98474 0.0
C1966 C 0.95048 0.5558 0.98452 0.0
C1967 C 1.0 0.52028 0.98146 0.0
C1968 C 0.99566 0.50344 0.96526 0.0
C1969 C 0.01737 0.51812 0.99777 0.0
C1970 C 0.02232 0.53495 0.01591 0.0
C1971 C 0.00663 0.54161 0.03262 0.0
C1972 C 0.01138 0.55761 0.04954 0.0
C1973 C 0.03181 0.56697 0.05004 0.0
C1974 C 0.04757 0.56029 0.03366 0.0
C1975 C 0.04289 0.54431 0.01669 0.0
H1976 H 0.03546 0.57935 0.06315 0.0
H1977 H 0.99181 0.42512 0.89688 0.0
H1978 H 0.41206 0.48149 0.21913 0.0
H1979 H 0.44482 0.50359 0.21808 0.0
H1980 H 0.48281 0.44779 0.23693 0.0
H1981 H 0.45044 0.42589 0.23821 0.0
H1982 H 0.49702 0.48058 0.26111 0.0
H1983 H 0.47969 0.46757 0.17826 0.0
H1984 H 0.45675 0.46735 0.14197 0.0
H1985 H 0.45142 0.53635 0.14503 0.0
H1986 H 0.47408 0.53695 0.18158 0.0
H1987 H 0.59954 0.52633 0.22826 0.0
H1988 H 0.56773 0.50255 0.22807 0.0
H1989 H 0.52658 0.55795 0.21837 0.0
H1990 H 0.55798 0.58149 0.21858 0.0
H1991 H 0.51493 0.52434 0.18885 0.0
H1992 H 0.53195 0.53622 0.27301 0.0
H1993 H 0.55548 0.53546 0.30883 0.0
H1994 H 0.5624 0.46683 0.30197 0.0
H1995 H 0.53912 0.46723 0.26589 0.0
C1996 C 0.42739 0.47402 0.22319 0.0
C1997 C 0.42851 0.45197 0.22908 0.0
C1998 C 0.44614 0.48662 0.22249 0.0
C1999 C 0.46641 0.47734 0.22722 0.0
C2000 C 0.46744 0.45542 0.23337 0.0
C2001 C 0.4488 0.44292 0.23424 0.0
C2002 C 0.48665 0.49019 0.22556 0.0
C2003 C 0.50102 0.48991 0.24515 0.0
C2004 C 0.49192 0.50256 0.20486 0.0
C2005 C 0.4784 0.50228 0.1828 0.0
C2006 C 0.4735 0.48268 0.1713 0.0
C2007 C 0.46057 0.48249 0.15067 0.0
C2008 C 0.45259 0.50182 0.14123 0.0
C2009 C 0.45758 0.52139 0.15238 0.0
C2010 C 0.47048 0.52166 0.17305 0.0
C2011 C 0.58369 0.53331 0.22603 0.0
C2012 C 0.58119 0.55575 0.22387 0.0
C2013 C 0.56555 0.51978 0.22597 0.0
C2014 C 0.54473 0.52851 0.2234 0.0
C2015 C 0.54241 0.55084 0.22043 0.0
C2016 C 0.56038 0.56428 0.22077 0.0
C2017 C 0.52515 0.51473 0.22441 0.0
C2018 C 0.51092 0.51488 0.20471 0.0
C2019 C 0.5201 0.50205 0.24488 0.0
C2020 C 0.53401 0.50179 0.26661 0.0
C2021 C 0.53864 0.52099 0.27903 0.0
C2022 C 0.5519 0.52063 0.29939 0.0
C2023 C 0.56048 0.50112 0.30763 0.0
C2024 C 0.55577 0.48193 0.29555 0.0
C2025 C 0.54254 0.48222 0.27515 0.0
H2026 H 0.57074 0.50087 0.3234 0.0
H2027 H 0.44258 0.50164 0.12526 0.0
H2028 H 0.57434 0.94531 0.50552 0.0
H2029 H 0.55268 0.97784 0.50642 0.0
H2030 H 0.50288 0.94605 0.46596 0.0
H2031 H 0.52372 0.91251 0.46636 0.0
H2032 H 0.52808 0.99189 0.4496 0.0
H2033 H 0.48331 0.95376 0.50867 0.0
H2034 H 0.47851 0.93274 0.5461 0.0
H2035 H 0.50844 0.98331 0.5869 0.0
H2036 H 0.51371 0.00447 0.5496 0.0
H2037 H 0.45125 0.07549 0.44225 0.0
H2038 H 0.47191 0.04214 0.44408 0.0
H2039 H 0.49356 0.05862 0.51578 0.0
H2040 H 0.47154 0.09152 0.51444 0.0
H2041 H 0.48325 0.01972 0.51679 0.0
H2042 H 0.52735 0.05895 0.46191 0.0
H2043 H 0.53627 0.08109 0.42629 0.0
H2044 H 0.51346 0.03093 0.37953 0.0
H2045 H 0.50413 0.00859 0.41488 0.0
C2046 C 0.55846 0.94466 0.49758 0.0
C2047 C 0.5509 0.92588 0.48596 0.0
C2048 C 0.54621 0.96353 0.49788 0.0
C2049 C 0.52628 0.9643 0.48624 0.0
C2050 C 0.51831 0.94569 0.47504 0.0
C2051 C 0.53036 0.92657 0.47518 0.0
C2052 C 0.51465 0.98507 0.48453 0.0
C2053 C 0.51792 0.99791 0.46403 0.0
C2054 C 0.50239 0.99321 0.50393 0.0
C2055 C 0.49913 0.98056 0.52632 0.0
C2056 C 0.48908 0.96028 0.52558 0.0
C2057 C 0.48622 0.94837 0.54678 0.0
C2058 C 0.49323 0.95665 0.56886 0.0
C2059 C 0.50305 0.97689 0.56978 0.0
C2060 C 0.50596 0.98885 0.54862 0.0
C2061 C 0.46089 0.07225 0.45815 0.0
C2062 C 0.46017 0.08624 0.47804 0.0
C2063 C 0.47274 0.05315 0.4592 0.0
C2064 C 0.48473 0.04788 0.47991 0.0
C2065 C 0.48452 0.06224 0.49957 0.0
C2066 C 0.47214 0.08114 0.49875 0.0
C2067 C 0.49627 0.02679 0.48151 0.0
C2068 C 0.49323 0.01387 0.50214 0.0
C2069 C 0.50923 0.01879 0.4624 0.0
C2070 C 0.51487 0.03217 0.44107 0.0
C2071 C 0.52409 0.0527 0.44404 0.0
C2072 C 0.52925 0.06527 0.4239 0.0
C2073 C 0.52539 0.05744 0.40067 0.0
C2074 C 0.51642 0.03698 0.39754 0.0
C2075 C 0.51122 0.02435 0.41762 0.0
H2076 H 0.52939 0.0672 0.3851 0.0
H2077 H 0.491 0.94741 0.58525 0.0
H2078 H 0.05483 0.07488 0.71488 0.0
H2079 H 0.02238 0.05286 0.71459 0.0
H2080 H 0.06081 0.9957 0.72575 0.0
H2081 H 0.09371 0.01795 0.72545 0.0
H2082 H 0.02833 0.98805 0.69438 0.0
H2083 H 0.03412 0.0194 0.77281 0.0
H2084 H 0.03888 0.04866 0.8024 0.0
H2085 H 0.98157 0.07962 0.77639 0.0
H2086 H 0.97663 0.0507 0.74638 0.0
H2087 H 0.94361 0.92283 0.73756 0.0
H2088 H 0.97604 0.94473 0.73569 0.0
H2089 H 0.93815 1.00018 0.71554 0.0
H2090 H 0.90523 0.97819 0.71756 0.0
H2091 H 0.97021 0.0084 0.75152 0.0
H2092 H 0.96447 0.97576 0.67337 0.0
H2093 H 0.95965 0.94535 0.64528 0.0
H2094 H 0.01719 0.9156 0.67244 0.0
H2095 H 0.02214 0.94565 0.70103 0.0
C2096 C 0.05637 0.0576 0.71724 0.0
C2097 C 0.0767 0.04812 0.72065 0.0
C2098 C 0.03781 0.04503 0.71711 0.0
C2099 C 0.03906 0.02268 0.72078 0.0
C2100 C 0.05945 0.01296 0.72311 0.0
C2101 C 0.07819 0.02561 0.72297 0.0
C2102 C 0.01892 0.00981 0.72276 0.0
C2103 C 0.01577 0.99232 0.70711 0.0
C2104 C 1.00228 0.01561 0.73905 0.0
C2105 C 0.00511 0.03297 0.7572 0.0
C2106 C 0.02261 0.03252 0.77328 0.0
C2107 C 0.02534 0.04904 0.79015 0.0
C2108 C 0.01057 0.06602 0.79124 0.0
C2109 C 0.99301 0.06648 0.7755 0.0
C2110 C 0.99023 0.05001 0.75858 0.0
C2111 C 0.94202 0.93979 0.73319 0.0
C2112 C 0.92174 0.94885 0.72803 0.0
C2113 C 0.96066 0.95222 0.73186 0.0
C2114 C 0.95954 0.97401 0.72528 0.0
C2115 C 0.93934 0.98334 0.72061 0.0
C2116 C 0.92058 0.9708 0.72172 0.0
C2117 C 0.97963 0.98679 0.72309 0.0
C2118 C 0.98278 1.00421 0.73876 0.0
C2119 C 0.9963 0.9808 0.70698 0.0
C2120 C 0.99357 0.96288 0.68951 0.0
C2121 C 0.97601 0.96266 0.67349 0.0
C2122 C 0.97326 0.94549 0.65746 0.0
C2123 C 0.98807 0.92853 0.65712 0.0
C2124 C 0.00571 0.92874 0.67275 0.0
C2125 C 0.00851 0.94585 0.68886 0.0
H2126 H 0.98591 0.91524 0.64471 0.0
H2127 H 0.0127 0.07879 0.8043 0.0
H2128 H 0.34818 0.10028 0.39547 0.0
H2129 H 0.31982 0.09407 0.3657 0.0
H2130 H 0.27318 0.08925 0.4233 0.0
H2131 H 0.30189 0.09467 0.45312 0.0
H2132 H 0.26225 0.06366 0.38575 0.0
H2133 H 0.28643 0.13649 0.39972 0.0
H2134 H 0.31225 0.16663 0.40074 0.0
H2135 H 0.322 0.16074 0.32433 0.0
H2136 H 0.29719 0.12984 0.32307 0.0
H2137 H 0.18091 0.14467 0.34238 0.0
H2138 H 0.21686 0.13571 0.35649 0.0
H2139 H 0.21665 0.07798 0.31301 0.0
H2140 H 0.18027 0.08665 0.29907 0.0
H2141 H 0.25462 0.1296 0.33552 0.0
H2142 H 0.24243 0.03877 0.34794 0.0
H2143 H 0.21292 0.01237 0.35199 0.0
H2144 H 0.17263 0.06094 0.3838 0.0
H2145 H 0.20198 0.0875 0.38022 0.0
C2146 C 0.33192 0.09741 0.40163 0.0
C2147 C 0.32682 0.09831 0.42622 0.0
C2148 C 0.31584 0.09373 0.38474 0.0
C2149 C 0.29445 0.09154 0.39237 0.0
C2150 C 0.28965 0.09086 0.41715 0.0
C2151 C 0.30587 0.09418 0.43409 0.0
C2152 C 0.27682 0.09367 0.37488 0.0
C2153 C 0.26071 0.07788 0.37443 0.0
C2154 C 0.27478 0.11241 0.36043 0.0
C2155 C 0.29033 0.13052 0.36139 0.0
C2156 C 0.29446 0.1413 0.38323 0.0
C2157 C 0.30897 0.15849 0.38387 0.0
C2158 C 0.31902 0.16536 0.36269 0.0
C2159 C 0.31457 0.15512 0.34082 0.0
C2160 C 0.30037 0.1377 0.34014 0.0
C2161 C 0.18858 0.1302 0.33558 0.0
C2162 C 0.17777 0.11619 0.31992 0.0
C2163 C 0.20914 0.12515 0.34355 0.0
C2164 C 0.2192 0.1061 0.3359 0.0
C2165 C 0.20893 0.09261 0.31927 0.0
C2166 C 0.18823 0.09759 0.31139 0.0
C2167 C 0.23977 0.09998 0.34696 0.0
C2168 C 0.25653 0.11497 0.34611 0.0
C2169 C 0.24194 0.08102 0.36097 0.0
C2170 C 0.22427 0.06515 0.36348 0.0
C2171 C 0.22727 0.04377 0.35582 0.0
C2172 C 0.21059 0.02879 0.35805 0.0
C2173 C 0.19088 0.035 0.36805 0.0
C2174 C 0.18786 0.05617 0.37596 0.0
C2175 C 0.20451 0.0712 0.37382 0.0
H2176 H 0.17798 0.02338 0.36973 0.0
H2177 H 0.33005 0.17878 0.36318 0.0
H2178 H 0.93003 0.64349 0.61473 0.0
H2179 H 0.94281 0.67797 0.63066 0.0
H2180 H 0.89093 0.71085 0.59411 0.0
H2181 H 0.87828 0.67679 0.57798 0.0
H2182 H 0.92665 0.73537 0.59488 0.0
H2183 H 0.88326 0.69277 0.65059 0.0
H2184 H 0.87499 0.66019 0.67438 0.0
H2185 H 0.93553 0.66571 0.71119 0.0
H2186 H 0.9442 0.69831 0.68739 0.0
H2187 H 0.87355 0.81298 0.66338 0.0
H2188 H 0.88514 0.78033 0.64243 0.0
H2189 H 0.94117 0.77634 0.68818 0.0
H2190 H 0.92974 0.8091 0.70924 0.0
H2191 H 0.91671 0.73772 0.68373 0.0
H2192 H 0.94957 0.79115 0.63364 0.0
H2193 H 0.95065 0.82481 0.60992 0.0
H2194 H 0.90277 0.79981 0.56172 0.0
H2195 H 0.90101 0.76618 0.58541 0.0
C2196 C 0.92162 0.65814 0.60975 0.0
C2197 C 0.90292 0.65745 0.59552 0.0
C2198 C 0.929 0.67777 0.61875 0.0
C2199 C 0.91766 0.69681 0.61371 0.0
C2200 C 0.89994 0.6963 0.59811 0.0
C2201 C 0.8926 0.67677 0.58911 0.0
C2202 C 0.92186 0.71673 0.62726 0.0
C2203 C 0.92478 0.73597 0.61433 0.0
C2204 C 0.91963 0.71728 0.65266 0.0
C2205 C 0.91451 0.69775 0.66701 0.0
C2206 C 0.89487 0.68693 0.66364 0.0
C2207 C 0.8901 0.66848 0.67713 0.0
C2208 C 0.90477 0.6608 0.69422 0.0
C2209 C 0.92421 0.67163 0.69789 0.0
C2210 C 0.92906 0.6901 0.68441 0.0
C2211 C 0.88826 0.80508 0.66906 0.0
C2212 C 0.90075 0.81347 0.68791 0.0
C2213 C 0.89497 0.78664 0.65694 0.0
C2214 C 0.91418 0.77633 0.66357 0.0
C2215 C 0.92644 0.78435 0.68272 0.0
C2216 C 0.91985 0.80294 0.69471 0.0
C2217 C 0.92057 0.75642 0.65122 0.0
C2218 C 0.91963 0.73717 0.66442 0.0
C2219 C 0.92387 0.75596 0.62599 0.0
C2220 C 0.92514 0.77609 0.6114 0.0
C2221 C 0.93916 0.79285 0.61808 0.0
C2222 C 0.93989 0.81195 0.60463 0.0
C2223 C 0.92679 0.81443 0.58433 0.0
C2224 C 0.91292 0.79784 0.57744 0.0
C2225 C 0.91208 0.77874 0.59086 0.0
H2226 H 0.9274 0.82919 0.57391 0.0
H2227 H 0.90106 0.64651 0.70466 0.0
H2228 H 0.1742 0.33563 0.90124 0.0
H2229 H 0.18747 0.33015 0.86031 0.0
H2230 H 0.21159 0.39541 0.85935 0.0
H2231 H 0.19702 0.40146 0.89956 0.0
H2232 H 0.19657 0.38391 0.81491 0.0
H2233 H 0.24489 0.34885 0.8792 0.0
H2234 H 0.24891 0.32102 0.91085 0.0
H2235 H 0.22455 0.27298 0.86227 0.0
H2236 H 0.22037 0.3006 0.8304 0.0
H2237 H 0.29644 0.41673 0.81983 0.0
H2238 H 0.25951 0.40516 0.81324 0.0
H2239 H 0.28241 0.34494 0.78348 0.0
H2240 H 0.31935 0.35616 0.79136 0.0
H2241 H 0.26038 0.33621 0.81913 0.0
H2242 H 0.24225 0.37603 0.75257 0.0
H2243 H 0.24044 0.40529 0.7225 0.0
H2244 H 0.20798 0.44588 0.77346 0.0
H2245 H 0.21069 0.41752 0.80433 0.0
C2246 C 0.18214 0.34888 0.89222 0.0
C2247 C 0.18467 0.36897 0.90371 0.0
C2248 C 0.18961 0.34573 0.86877 0.0
C2249 C 0.20048 0.36235 0.85675 0.0
C2250 C 0.20293 0.38243 0.86814 0.0
C2251 C 0.19503 0.38574 0.89135 0.0
C2252 C 0.21242 0.35837 0.83416 0.0
C2253 C 0.21052 0.37344 0.81535 0.0
C2254 C 0.22944 0.34328 0.83367 0.0
C2255 C 0.23221 0.3267 0.8526 0.0
C2256 C 0.24043 0.33233 0.87534 0.0
C2257 C 0.24271 0.31662 0.89329 0.0
C2258 C 0.23695 0.29525 0.88859 0.0
C2259 C 0.22897 0.28953 0.86589 0.0
C2260 C 0.22666 0.30519 0.84789 0.0
C2261 C 0.29351 0.4012 0.81154 0.0
C2262 C 0.31049 0.38692 0.80715 0.0
C2263 C 0.2724 0.39472 0.8072 0.0
C2264 C 0.26805 0.37406 0.79783 0.0
C2265 C 0.2853 0.36085 0.79087 0.0
C2266 C 0.30635 0.3671 0.79582 0.0
C2267 C 0.24658 0.36447 0.8022 0.0
C2268 C 0.24615 0.34621 0.81723 0.0
C2269 C 0.2276 0.37679 0.79916 0.0
C2270 C 0.22631 0.39433 0.78079 0.0
C2271 C 0.23482 0.39121 0.75749 0.0
C2272 C 0.2337 0.40769 0.74028 0.0
C2273 C 0.22386 0.42728 0.74594 0.0
C2274 C 0.21542 0.43061 0.76899 0.0
C2275 C 0.21677 0.41432 0.78639 0.0
H2276 H 0.2229 0.43994 0.73252 0.0
H2277 H 0.2387 0.28312 0.90251 0.0
H2278 H 0.6369 0.81759 0.06814 0.0
H2279 H 0.62238 0.78155 0.07219 0.0
H2280 H 0.55913 0.80812 0.08527 0.0
H2281 H 0.57406 0.84451 0.08253 0.0
H2282 H 0.5694 0.78641 0.12084 0.0
H2283 H 0.56948 0.76788 0.03918 0.0
H2284 H 0.58073 0.76457 0.99667 0.0
H2285 H 0.63559 0.72708 0.0181 0.0
H2286 H 0.62503 0.73049 0.06071 0.0
H2287 H 0.56782 0.68364 0.17696 0.0
H2288 H 0.55754 0.71028 0.14658 0.0
H2289 H 0.62414 0.7176 0.12616 0.0
H2290 H 0.63456 0.69066 0.15614 0.0
H2291 H 0.59671 0.71782 0.08675 0.0
H2292 H 0.60206 0.75121 0.16686 0.0
H2293 H 0.59169 0.75473 0.20967 0.0
H2294 H 0.52581 0.76452 0.18896 0.0
H2295 H 0.53582 0.76079 0.14601 0.0
C2296 C 0.6198 0.81576 0.07131 0.0
C2297 C 0.6067 0.83373 0.07581 0.0
C2298 C 0.61136 0.79506 0.07317 0.0
C2299 C 0.58956 0.792 0.07901 0.0
C2300 C 0.576 0.81007 0.08087 0.0
C2301 C 0.58457 0.83082 0.07958 0.0
C2302 C 0.58281 0.771 0.08921 0.0
C2303 C 0.57448 0.7713 0.1128 0.0
C2304 C 0.58955 0.75118 0.079 0.0
C2305 C 0.59637 0.74944 0.0533 0.0
C2306 C 0.58405 0.75908 0.03489 0.0
C2307 C 0.5903 0.75716 0.01073 0.0
C2308 C 0.60884 0.7456 1.0047 0.0
C2309 C 0.6212 0.73599 0.0228 0.0
C2310 C 0.61505 0.73787 0.04697 0.0
C2311 C 0.58029 0.69093 0.16601 0.0
C2312 C 0.60205 0.68537 0.16916 0.0
C2313 C 0.57434 0.70596 0.14854 0.0
C2314 C 0.59009 0.71582 0.13422 0.0
C2315 C 0.61176 0.70997 0.13696 0.0
C2316 C 0.61772 0.69485 0.15432 0.0
C2317 C 0.58455 0.73393 0.11822 0.0
C2318 C 0.5905 0.73286 0.09386 0.0
C2319 C 0.57559 0.7531 0.12755 0.0
C2320 C 0.56962 0.75543 0.15332 0.0
C2321 C 0.58535 0.75396 0.17147 0.0
C2322 C 0.57954 0.75601 0.19574 0.0
C2323 C 0.55809 0.75976 0.20204 0.0
C2324 C 0.54241 0.76155 0.18406 0.0
C2325 C 0.54813 0.75946 0.15976 0.0
H2326 H 0.55362 0.76135 0.22083 0.0
H2327 H 0.61366 0.74405 0.98603 0.0
H2328 H 0.65294 0.60201 0.85625 0.0
H2329 H 0.68547 0.59866 0.88113 0.0
H2330 H 0.72018 0.63869 0.83061 0.0
H2331 H 0.68737 0.64283 0.80626 0.0
H2332 H 0.74096 0.59713 0.84923 0.0
H2333 H 0.70449 0.66313 0.8708 0.0
H2334 H 0.67393 0.68528 0.8845 0.0
H2335 H 0.67307 0.65118 0.95198 0.0
H2336 H 0.70299 0.62816 0.93817 0.0
H2337 H 0.81932 0.6502 0.93438 0.0
H2338 H 0.78442 0.65065 0.91433 0.0
H2339 H 0.77866 0.58191 0.92472 0.0
H2340 H 0.8137 0.58122 0.94473 0.0
H2341 H 0.74292 0.63752 0.92655 0.0
H2342 H 0.76176 0.56201 0.87046 0.0
H2343 H 0.79321 0.54139 0.85597 0.0
H2344 H 0.8313 0.59907 0.85609 0.0
H2345 H 0.80008 0.62007 0.87033 0.0
C2346 C 0.6677 0.6097 0.85036 0.0
C2347 C 0.66811 0.62252 0.82954 0.0
C2348 C 0.68607 0.60788 0.86452 0.0
C2349 C 0.70491 0.61852 0.85754 0.0
C2350 C 0.70561 0.63042 0.83604 0.0
C2351 C 0.68706 0.63277 0.82227 0.0
C2352 C 0.72366 0.61815 0.87332 0.0
C2353 C 0.7414 0.60582 0.86621 0.0
C2354 C 0.724 0.62981 0.8952 0.0
C2355 C 0.70566 0.64348 0.9032 0.0
C2356 C 0.69745 0.65995 0.8883 0.0
C2357 C 0.68026 0.67274 0.89612 0.0
C2358 C 0.67142 0.66953 0.91902 0.0
C2359 C 0.67974 0.65351 0.93413 0.0
C2360 C 0.69675 0.64052 0.92628 0.0
C2361 C 0.8105 0.63522 0.93269 0.0
C2362 C 0.81929 0.6156 0.94071 0.0
C2363 C 0.79056 0.63555 0.92141 0.0
C2364 C 0.77929 0.61628 0.91793 0.0
C2365 C 0.78739 0.59687 0.92717 0.0
C2366 C 0.80734 0.59652 0.93852 0.0
C2367 C 0.76014 0.61631 0.9026 0.0
C2368 C 0.74233 0.6286 0.90973 0.0
C2369 C 0.75981 0.6049 0.88055 0.0
C2370 C 0.77865 0.59253 0.8717 0.0
C2371 C 0.77685 0.57029 0.86733 0.0
C2372 C 0.79464 0.55855 0.85918 0.0
C2373 C 0.81428 0.56892 0.8552 0.0
C2374 C 0.81613 0.59106 0.85929 0.0
C2375 C 0.79841 0.60288 0.86743 0.0
H2376 H 0.82804 0.55981 0.8489 0.0
H2377 H 0.65819 0.67952 0.92509 0.0
H2378 H 0.4341 0.1521 0.10194 0.0
H2379 H 0.44922 0.18683 0.11437 0.0
H2380 H 0.39192 0.21911 0.08903 0.0
H2381 H 0.3771 0.18492 0.07611 0.0
H2382 H 0.4256 0.24425 0.08215 0.0
H2383 H 0.39645 0.19985 0.14835 0.0
H2384 H 0.39547 0.16769 0.17456 0.0
H2385 H 0.4617 0.17759 0.19363 0.0
H2386 H 0.46303 0.20982 0.16741 0.0
H2387 H 0.37939 0.31818 0.15997 0.0
H2388 H 0.39095 0.28751 0.13566 0.0
H2389 H 0.45176 0.28622 0.17319 0.0
H2390 H 0.44027 0.31688 0.19778 0.0
H2391 H 0.43207 0.24707 0.17134 0.0
H2392 H 0.45153 0.3018 0.11616 0.0
H2393 H 0.44675 0.33551 0.09315 0.0
H2394 H 0.39409 0.30742 0.0543 0.0
H2395 H 0.39818 0.27365 0.07742 0.0
C2396 C 0.42493 0.16668 0.09868 0.0
C2397 C 0.40426 0.16578 0.08849 0.0
C2398 C 0.43362 0.18647 0.10568 0.0
C2399 C 0.42156 0.20547 0.10289 0.0
C2400 C 0.40156 0.20467 0.09126 0.0
C2401 C 0.39299 0.18503 0.0841 0.0
C2402 C 0.42781 0.2257 0.11498 0.0
C2403 C 0.42729 0.24496 0.10162 0.0
C2404 C 0.43061 0.2265 0.1403 0.0
C2405 C 0.42994 0.20698 0.1557 0.0
C2406 C 0.41084 0.19504 0.158 0.0
C2407 C 0.41021 0.17683 0.17288 0.0
C2408 C 0.42856 0.17052 0.18567 0.0
C2409 C 0.44754 0.18245 0.18365 0.0
C2410 C 0.44824 0.20069 0.16879 0.0
C2411 C 0.3952 0.31135 0.16309 0.0
C2412 C 0.4089 0.3198 0.18083 0.0
C2413 C 0.4019 0.29406 0.14898 0.0
C2414 C 0.42239 0.28501 0.15234 0.0
C2415 C 0.43603 0.29326 0.17017 0.0
C2416 C 0.42937 0.31064 0.18425 0.0
C2417 C 0.42846 0.2656 0.13869 0.0
C2418 C 0.43142 0.2465 0.15177 0.0
C2419 C 0.42737 0.26504 0.11321 0.0
C2420 C 0.42516 0.28512 0.09864 0.0
C2421 C 0.43885 0.3028 0.1028 0.0
C2422 C 0.43625 0.32194 0.08973 0.0
C2423 C 0.42011 0.32359 0.07229 0.0
C2424 C 0.40659 0.30608 0.06781 0.0
C2425 C 0.40907 0.28691 0.08088 0.0
H2426 H 0.41811 0.33844 0.06226 0.0
H2427 H 0.42806 0.15645 0.19724 0.0
H2428 H 0.82351 0.91644 0.29715 0.0
H2429 H 0.7852 0.9224 0.30374 0.0
H2430 H 0.78015 0.85995 0.33774 0.0
H2431 H 0.81848 0.85382 0.33123 0.0
H2432 H 0.7427 0.8713 0.31384 0.0
H2433 H 0.79484 0.9034 0.37097 0.0
H2434 H 0.8254 0.92741 0.38014 0.0
H2435 H 0.79098 0.98114 0.34993 0.0
H2436 H 0.76032 0.95733 0.34033 0.0
H2437 H 0.69167 0.86263 0.42331 0.0
H2438 H 0.7145 0.8654 0.38765 0.0
H2439 H 0.69687 0.93244 0.37967 0.0
H2440 H 0.6746 0.92991 0.41596 0.0
H2441 H 0.73796 0.92793 0.37683 0.0
H2442 H 0.67963 0.89383 0.33811 0.0
H2443 H 0.65025 0.86763 0.33271 0.0
H2444 H 0.69589 0.81577 0.33045 0.0
H2445 H 0.72557 0.84143 0.33648 0.0
C2446 C 0.81416 0.90379 0.30562 0.0
C2447 C 0.82402 0.88493 0.31439 0.0
C2448 C 0.79225 0.90714 0.30907 0.0
C2449 C 0.77998 0.8917 0.32136 0.0
C2450 C 0.7894 0.87202 0.32811 0.0
C2451 C 0.81133 0.86866 0.32469 0.0
C2452 C 0.75894 0.89744 0.33162 0.0
C2453 C 0.74137 0.8838 0.32744 0.0
C2454 C 0.75719 0.91428 0.34869 0.0
C2455 C 0.77546 0.9286 0.3547 0.0
C2456 C 0.79386 0.92033 0.3662 0.0
C2457 C 0.81119 0.93388 0.37147 0.0
C2458 C 0.81016 0.95578 0.36555 0.0
C2459 C 0.79177 0.96417 0.35443 0.0
C2460 C 0.77443 0.95066 0.34907 0.0
C2461 C 0.69285 0.87798 0.41403 0.0
C2462 C 0.68179 0.89615 0.42253 0.0
C2463 C 0.7055 0.87945 0.3934 0.0
C2464 C 0.70685 0.89898 0.38064 0.0
C2465 C 0.69581 0.91718 0.38915 0.0
C2466 C 0.68341 0.9158 0.41004 0.0
C2467 C 0.72201 0.90083 0.3603 0.0
C2468 C 0.73853 0.91604 0.36248 0.0
C2469 C 0.72277 0.88524 0.34168 0.0
C2470 C 0.70492 0.86966 0.33773 0.0
C2471 C 0.68344 0.87684 0.3366 0.0
C2472 C 0.6667 0.86206 0.33347 0.0
C2473 C 0.67118 0.84007 0.33128 0.0
C2474 C 0.69243 0.8328 0.33219 0.0
C2475 C 0.70924 0.84746 0.33542 0.0
H2476 H 0.65818 0.82868 0.32886 0.0
H2477 H 0.82359 0.96625 0.36964 0.0
H2478 H 0.08676 0.19314 0.71871 0.0
H2479 H 0.08623 0.23215 0.7126 0.0
H2480 H 0.14333 0.22727 0.66846 0.0
H2481 H 0.14427 0.18846 0.67506 0.0
H2482 H 0.14438 0.26324 0.69369 0.0
H2483 H 0.08968 0.22435 0.64466 0.0
H2484 H 0.05701 0.20197 0.64103 0.0
H2485 H 0.02178 0.24743 0.68417 0.0
H2486 H 0.05435 0.26995 0.68818 0.0
H2487 H 0.14585 0.32026 0.5864 0.0
H2488 H 0.14365 0.29468 0.61985 0.0
H2489 H 0.08702 0.32731 0.64659 0.0
H2490 H 0.08857 0.35226 0.61236 0.0
H2491 H 0.08102 0.286 0.64555 0.0
H2492 H 0.13713 0.33116 0.67435 0.0
H2493 H 0.17113 0.35152 0.67054 0.0
H2494 H 0.20609 0.2925 0.66118 0.0
H2495 H 0.17241 0.27181 0.66384 0.0
C2496 C 0.09927 0.20047 0.70785 0.0
C2497 C 0.1153 0.18787 0.69687 0.0
C2498 C 0.09905 0.22273 0.70459 0.0
C2499 C 0.11463 0.23253 0.68997 0.0
C2500 C 0.13123 0.22003 0.67999 0.0
C2501 C 0.13163 0.19785 0.6835 0.0
C2502 C 0.11239 0.25509 0.68208 0.0
C2503 C 0.13051 0.26847 0.68333 0.0
C2504 C 0.09392 0.2621 0.66944 0.0
C2505 C 0.07442 0.24864 0.66694 0.0
C2506 C 0.07497 0.22948 0.65343 0.0
C2507 C 0.05649 0.2168 0.65131 0.0
C2508 C 0.03735 0.22324 0.66243 0.0
C2509 C 0.03663 0.24243 0.67562 0.0
C2510 C 0.05508 0.25515 0.67783 0.0
C2511 C 0.13286 0.32177 0.59935 0.0
C2512 C 0.11716 0.3378 0.59675 0.0
C2513 C 0.13182 0.30747 0.61863 0.0
C2514 C 0.11549 0.30952 0.63601 0.0
C2515 C 0.09982 0.32563 0.63344 0.0
C2516 C 0.10057 0.33963 0.61381 0.0
C2517 C 0.11375 0.29343 0.65542 0.0
C2518 C 0.09471 0.28142 0.6566 0.0
C2519 C 0.13164 0.28751 0.66979 0.0
C2520 C 0.15213 0.29991 0.6694 0.0
C2521 C 0.15206 0.32252 0.67148 0.0
C2522 C 0.17127 0.33412 0.66944 0.0
C2523 C 0.19069 0.3233 0.66577 0.0
C2524 C 0.19101 0.30085 0.66411 0.0
C2525 C 0.17186 0.28918 0.66584 0.0
H2526 H 0.20551 0.33229 0.66414 0.0
H2527 H 0.02306 0.2134 0.66077 0.0
loop_
_geom_bond_atom_site_label_1
_geom_bond_atom_site_label_2
_geom_bond_distance
_geom_bond_site_symmetry_2
_ccdc_geom_bond_type
C0 C1 1.351 . S
C0 N3 1.368 . S
C0 H5 0.931 . S
C1 C0 1.351 . S
C1 N2 1.373 . S
C1 H29 0.930 . S
N2 C1 1.373 . S
N2 C4 1.340 . S
N3 C0 1.368 . S
N3 C4 1.321 . S
N3 Co6 2.135 . S
C4 N2 1.340 . S
C4 N3 1.321 . S
C4 H28 0.930 . S
H5 C0 0.931 . S
Co6 N3 2.135 . S
Co6 N9 2.121 . S
Co6 O14 2.055 . S
Co6 O17 2.039 . S
Co6 N20 2.140 . S
C7 O8 1.227 . S
C7 O17 1.265 . S
O8 C7 1.227 . S
N9 Co6 2.121 . S
N9 C11 1.375 . S
N9 C12 1.313 . S
C10 C11 1.338 . S
C10 N13 1.377 . S
C10 H30 0.930 . S
C11 N9 1.375 . S
C11 C10 1.338 . S
C11 H15 0.931 . S
C12 N9 1.313 . S
C12 N13 1.344 . S
C12 H16 0.930 . S
N13 C10 1.377 . S
N13 C12 1.344 . S
O14 Co6 2.055 . S
O14 C18 1.253 . S
H15 C11 0.931 . S
H16 C12 0.930 . S
O17 Co6 2.039 . S
O17 C7 1.265 . S
C18 O14 1.253 . S
C18 O19 1.227 . S
O19 C18 1.227 . S
N20 Co6 2.140 . S
N20 C23 1.346 . S
N20 C24 1.345 . S
C21 C22 1.387 . S
C21 C25 1.391 . S
C22 C21 1.387 . S
C22 C23 1.369 . S
C22 H31 0.929 . S
C23 N20 1.346 . S
C23 C22 1.369 . S
C23 H26 0.928 . S
C24 N20 1.345 . S
C24 C25 1.371 . S
C24 H27 0.931 . S
C25 C21 1.391 . S
C25 C24 1.371 . S
C25 H32 0.930 . S
H26 C23 0.928 . S
H27 C24 0.931 . S
H28 C4 0.930 . S
H29 C1 0.930 . S
H30 C10 0.930 . S
H31 C22 0.929 . S
H32 C25 0.930 . S
C33 C34 1.351 . S
C33 N36 1.368 . S
C33 H38 0.931 . S
C34 C33 1.351 . S
C34 N35 1.373 . S
C34 H62 0.930 . S
N35 C34 1.373 . S
N35 C37 1.340 . S
N36 C33 1.368 . S
N36 C37 1.321 . S
N36 Co39 2.135 . S
C37 N35 1.340 . S
C37 N36 1.321 . S
C37 H61 0.930 . S
H38 C33 0.931 . S
Co39 N36 2.135 . S
Co39 N42 2.121 . S
Co39 O47 2.055 . S
Co39 O50 2.039 . S
Co39 N53 2.140 . S
C40 O41 1.227 . S
C40 O50 1.265 . S
O41 C40 1.227 . S
N42 Co39 2.121 . S
N42 C44 1.375 . S
N42 C45 1.313 . S
C43 C44 1.338 . S
C43 N46 1.377 . S
C43 H63 0.930 . S
C44 N42 1.375 . S
C44 C43 1.338 . S
C44 H48 0.931 . S
C45 N42 1.313 . S
C45 N46 1.344 . S
C45 H49 0.930 . S
N46 C43 1.377 . S
N46 C45 1.344 . S
O47 Co39 2.055 . S
O47 C51 1.253 . S
H48 C44 0.931 . S
H49 C45 0.930 . S
O50 Co39 2.039 . S
O50 C40 1.265 . S
C51 O47 1.253 . S
C51 O52 1.227 . S
O52 C51 1.227 . S
N53 Co39 2.140 . S
N53 C56 1.346 . S
N53 C57 1.345 . S
C54 C55 1.387 . S
C54 C58 1.391 . S
C55 C54 1.387 . S
C55 C56 1.369 . S
C55 H64 0.929 . S
C56 N53 1.346 . S
C56 C55 1.369 . S
C56 H59 0.928 . S
C57 N53 1.345 . S
C57 C58 1.371 . S
C57 H60 0.931 . S
C58 C54 1.391 . S
C58 C57 1.371 . S
C58 H65 0.930 . S
H59 C56 0.928 . S
H60 C57 0.931 . S
H61 C37 0.930 . S
H62 C34 0.930 . S
H63 C43 0.930 . S
H64 C55 0.929 . S
H65 C58 0.930 . S
C66 C67 1.351 . S
C66 N69 1.368 . S
C66 H71 0.931 . S
C67 C66 1.351 . S
C67 N68 1.373 . S
C67 H95 0.930 . S
N68 C67 1.373 . S
N68 C70 1.340 . S
N69 C66 1.368 . S
N69 C70 1.321 . S
N69 Co72 2.135 . S
C70 N68 1.340 . S
C70 N69 1.321 . S
C70 H94 0.930 . S
H71 C66 0.931 . S
Co72 N69 2.135 . S
Co72 N75 2.121 . S
Co72 O80 2.055 . S
Co72 O83 2.039 . S
Co72 N86 2.140 . S
C73 O74 1.227 . S
C73 O83 1.265 . S
O74 C73 1.227 . S
N75 Co72 2.121 . S
N75 C77 1.375 . S
N75 C78 1.313 . S
C76 C77 1.338 . S
C76 N79 1.377 . S
C76 H96 0.930 . S
C77 N75 1.375 . S
C77 C76 1.338 . S
C77 H81 0.931 . S
C78 N75 1.313 . S
C78 N79 1.344 . S
C78 H82 0.930 . S
N79 C76 1.377 . S
N79 C78 1.344 . S
O80 Co72 2.055 . S
O80 C84 1.253 . S
H81 C77 0.931 . S
H82 C78 0.930 . S
O83 Co72 2.039 . S
O83 C73 1.265 . S
C84 O80 1.253 . S
C84 O85 1.227 . S
O85 C84 1.227 . S
N86 Co72 2.140 . S
N86 C89 1.346 . S
N86 C90 1.345 . S
C87 C88 1.387 . S
C87 C91 1.391 . S
C88 C87 1.387 . S
C88 C89 1.369 . S
C88 H97 0.929 . S
C89 N86 1.346 . S
C89 C88 1.369 . S
C89 H92 0.928 . S
C90 N86 1.345 . S
C90 C91 1.371 . S
C90 H93 0.931 . S
C91 C87 1.391 . S
C91 C90 1.371 . S
C91 H98 0.930 . S
H92 C89 0.928 . S
H93 C90 0.931 . S
H94 C70 0.930 . S
H95 C67 0.930 . S
H96 C76 0.930 . S
H97 C88 0.929 . S
H98 C91 0.930 . S
C99 C100 1.351 . S
C99 N102 1.368 . S
C99 H104 0.931 . S
C100 C99 1.351 . S
C100 N101 1.373 . S
C100 H128 0.930 . S
N101 C100 1.373 . S
N101 C103 1.340 . S
N102 C99 1.368 . S
N102 C103 1.321 . S
N102 Co105 2.135 . S
C103 N101 1.340 . S
C103 N102 1.321 . S
C103 H127 0.930 . S
H104 C99 0.931 . S
Co105 N102 2.135 . S
Co105 N108 2.121 . S
Co105 O113 2.055 . S
Co105 O116 2.039 . S
Co105 N119 2.140 . S
C106 O107 1.227 . S
C106 O116 1.265 . S
O107 C106 1.227 . S
N108 Co105 2.121 . S
N108 C110 1.375 . S
N108 C111 1.313 . S
C109 C110 1.338 . S
C109 N112 1.377 . S
C109 H129 0.930 1_554 S
C110 N108 1.375 . S
C110 C109 1.338 . S
C110 H114 0.931 . S
C111 N108 1.313 . S
C111 N112 1.344 . S
C111 H115 0.930 . S
N112 C109 1.377 . S
N112 C111 1.344 . S
O113 Co105 2.055 . S
O113 C117 1.253 . S
H114 C110 0.931 . S
H115 C111 0.930 . S
O116 Co105 2.039 . S
O116 C106 1.265 . S
C117 O113 1.253 . S
C117 O118 1.227 . S
O118 C117 1.227 . S
N119 Co105 2.140 . S
N119 C122 1.346 . S
N119 C123 1.345 . S
C120 C121 1.387 . S
C120 C124 1.391 . S
C121 C120 1.387 . S
C121 C122 1.369 . S
C121 H130 0.929 . S
C122 N119 1.346 . S
C122 C121 1.369 . S
C122 H125 0.928 . S
C123 N119 1.345 . S
C123 C124 1.371 . S
C123 H126 0.931 . S
C124 C120 1.391 . S
C124 C123 1.371 . S
C124 H131 0.930 . S
H125 C122 0.928 . S
H126 C123 0.931 . S
H127 C103 0.930 . S
H128 C100 0.930 . S
H129 C109 0.930 1_556 S
H130 C121 0.929 . S
H131 C124 0.930 . S
C132 C133 1.351 . S
C132 N135 1.368 . S
C132 H137 0.931 . S
C133 C132 1.351 . S
C133 N134 1.373 . S
C133 H161 0.930 . S
N134 C133 1.373 . S
N134 C136 1.340 . S
N135 C132 1.368 . S
N135 C136 1.321 . S
N135 Co138 2.135 . S
C136 N134 1.340 . S
C136 N135 1.321 . S
C136 H160 0.930 . S
H137 C132 0.931 . S
Co138 N135 2.135 . S
Co138 N141 2.121 . S
Co138 O146 2.055 . S
Co138 O149 2.039 . S
Co138 N152 2.140 . S
C139 O140 1.227 . S
C139 O149 1.265 . S
O140 C139 1.227 . S
N141 Co138 2.121 . S
N141 C143 1.375 . S
N141 C144 1.313 . S
C142 C143 1.338 . S
C142 N145 1.377 . S
C142 H162 0.930 1_556 S
C143 N141 1.375 . S
C143 C142 1.338 . S
C143 H147 0.931 . S
C144 N141 1.313 . S
C144 N145 1.344 . S
C144 H148 0.930 . S
N145 C142 1.377 . S
N145 C144 1.344 . S
O146 Co138 2.055 . S
O146 C150 1.253 . S
H147 C143 0.931 . S
H148 C144 0.930 . S
O149 Co138 2.039 . S
O149 C139 1.265 . S
C150 O146 1.253 . S
C150 O151 1.227 . S
O151 C150 1.227 . S
N152 Co138 2.140 . S
N152 C155 1.346 . S
N152 C156 1.345 . S
C153 C154 1.387 . S
C153 C157 1.391 . S
C154 C153 1.387 . S
C154 C155 1.369 . S
C154 H163 0.929 . S
C155 N152 1.346 . S
C155 C154 1.369 . S
C155 H158 0.928 . S
C156 N152 1.345 . S
C156 C157 1.371 . S
C156 H159 0.931 . S
C157 C153 1.391 . S
C157 C156 1.371 . S
C157 H164 0.930 . S
H158 C155 0.928 . S
H159 C156 0.931 . S
H160 C136 0.930 . S
H161 C133 0.930 . S
H162 C142 0.930 1_554 S
H163 C154 0.929 . S
H164 C157 0.930 . S
C165 C166 1.351 . S
C165 N168 1.368 . S
C165 H170 0.931 . S
C166 C165 1.351 . S
C166 N167 1.373 . S
C166 H194 0.930 . S
N167 C166 1.373 . S
N167 C169 1.340 . S
N168 C165 1.368 . S
N168 C169 1.321 . S
N168 Co171 2.135 . S
C169 N167 1.340 . S
C169 N168 1.321 . S
C169 H193 0.930 . S
H170 C165 0.931 . S
Co171 N168 2.135 . S
Co171 N174 2.121 . S
Co171 O179 2.055 . S
Co171 O182 2.039 . S
Co171 N185 2.140 . S
C172 O173 1.227 . S
C172 O182 1.265 . S
O173 C172 1.227 . S
N174 Co171 2.121 . S
N174 C176 1.375 . S
N174 C177 1.313 . S
C175 C176 1.338 . S
C175 N178 1.377 . S
C175 H195 0.930 . S
C176 N174 1.375 . S
C176 C175 1.338 . S
C176 H180 0.931 . S
C177 N174 1.313 . S
C177 N178 1.344 . S
C177 H181 0.930 . S
N178 C175 1.377 . S
N178 C177 1.344 . S
O179 Co171 2.055 . S
O179 C183 1.253 . S
H180 C176 0.931 . S
H181 C177 0.930 . S
O182 Co171 2.039 . S
O182 C172 1.265 . S
C183 O179 1.253 . S
C183 O184 1.227 . S
O184 C183 1.227 . S
N185 Co171 2.140 . S
N185 C188 1.346 . S
N185 C189 1.345 . S
C186 C187 1.387 . S
C186 C190 1.391 . S
C187 C186 1.387 . S
C187 C188 1.369 . S
C187 H196 0.929 . S
C188 N185 1.346 . S
C188 C187 1.369 . S
C188 H191 0.928 . S
C189 N185 1.345 . S
C189 C190 1.371 . S
C189 H192 0.931 . S
C190 C186 1.391 . S
C190 C189 1.371 . S
C190 H197 0.930 . S
H191 C188 0.928 . S
H192 C189 0.931 . S
H193 C169 0.930 . S
H194 C166 0.930 . S
H195 C175 0.930 . S
H196 C187 0.929 . S
H197 C190 0.930 . S
C198 C199 1.351 . S
C198 N201 1.368 . S
C198 H203 0.931 . S
C199 C198 1.351 . S
C199 N200 1.373 . S
C199 H227 0.930 . S
N200 C199 1.373 . S
N200 C202 1.340 . S
N201 C198 1.368 . S
N201 C202 1.321 . S
N201 Co204 2.135 . S
C202 N200 1.340 . S
C202 N201 1.321 . S
C202 H226 0.930 . S
H203 C198 0.931 . S
Co204 N201 2.135 . S
Co204 N207 2.121 . S
Co204 O212 2.055 . S
Co204 O215 2.039 . S
Co204 N218 2.140 . S
C205 O206 1.227 . S
C205 O215 1.265 . S
O206 C205 1.227 . S
N207 Co204 2.121 . S
N207 C209 1.375 . S
N207 C210 1.313 . S
C208 C209 1.338 . S
C208 N211 1.377 . S
C208 H228 0.930 . S
C209 N207 1.375 . S
C209 C208 1.338 . S
C209 H213 0.931 . S
C210 N207 1.313 . S
C210 N211 1.344 . S
C210 H214 0.930 . S
N211 C208 1.377 . S
N211 C210 1.344 . S
O212 Co204 2.055 . S
O212 C216 1.253 . S
H213 C209 0.931 . S
H214 C210 0.930 . S
O215 Co204 2.039 . S
O215 C205 1.265 . S
C216 O212 1.253 . S
C216 O217 1.227 . S
O217 C216 1.227 . S
N218 Co204 2.140 . S
N218 C221 1.346 . S
N218 C222 1.345 . S
C219 C220 1.387 . S
C219 C223 1.391 . S
C220 C219 1.387 . S
C220 C221 1.369 . S
C220 H229 0.929 . S
C221 N218 1.346 . S
C221 C220 1.369 . S
C221 H224 0.928 . S
C222 N218 1.345 . S
C222 C223 1.371 . S
C222 H225 0.931 . S
C223 C219 1.391 . S
C223 C222 1.371 . S
C223 H230 0.930 . S
H224 C221 0.928 . S
H225 C222 0.931 . S
H226 C202 0.930 . S
H227 C199 0.930 . S
H228 C208 0.930 . S
H229 C220 0.929 . S
H230 C223 0.930 . S
C231 C232 1.351 . S
C231 N234 1.368 . S
C231 H236 0.931 . S
C232 C231 1.351 . S
C232 N233 1.373 . S
C232 H260 0.930 . S
N233 C232 1.373 . S
N233 C235 1.340 . S
N234 C231 1.368 . S
N234 C235 1.321 . S
N234 Co237 2.135 . S
C235 N233 1.340 . S
C235 N234 1.321 . S
C235 H259 0.930 . S
H236 C231 0.931 . S
Co237 N234 2.135 . S
Co237 N240 2.121 . S
Co237 O245 2.055 . S
Co237 O248 2.039 . S
Co237 N251 2.140 . S
C238 O239 1.227 . S
C238 O248 1.265 . S
O239 C238 1.227 . S
N240 Co237 2.121 . S
N240 C242 1.375 . S
N240 C243 1.313 . S
C241 C242 1.338 . S
C241 N244 1.377 . S
C241 H261 0.930 . S
C242 N240 1.375 . S
C242 C241 1.338 . S
C242 H246 0.931 . S
C243 N240 1.313 . S
C243 N244 1.344 . S
C243 H247 0.930 . S
N244 C241 1.377 . S
N244 C243 1.344 . S
O245 Co237 2.055 . S
O245 C249 1.253 . S
H246 C242 0.931 . S
H247 C243 0.930 . S
O248 Co237 2.039 . S
O248 C238 1.265 . S
C249 O245 1.253 . S
C249 O250 1.227 . S
O250 C249 1.227 . S
N251 Co237 2.140 . S
N251 C254 1.346 . S
N251 C255 1.345 . S
C252 C253 1.387 . S
C252 C256 1.391 . S
C253 C252 1.387 . S
C253 C254 1.369 . S
C253 H262 0.929 . S
C254 N251 1.346 . S
C254 C253 1.369 . S
C254 H257 0.928 . S
C255 N251 1.345 . S
C255 C256 1.371 . S
C255 H258 0.931 . S
C256 C252 1.391 . S
C256 C255 1.371 . S
C256 H263 0.930 . S
H257 C254 0.928 . S
H258 C255 0.931 . S
H259 C235 0.930 . S
H260 C232 0.930 . S
H261 C241 0.930 . S
H262 C253 0.929 . S
H263 C256 0.930 . S
C264 C265 1.351 . S
C264 N267 1.368 . S
C264 H269 0.931 . S
C265 C264 1.351 . S
C265 N266 1.373 . S
C265 H293 0.930 . S
N266 C265 1.373 . S
N266 C268 1.340 . S
N267 C264 1.368 . S
N267 C268 1.321 . S
N267 Co270 2.135 . S
C268 N266 1.340 . S
C268 N267 1.321 . S
C268 H292 0.930 . S
H269 C264 0.931 . S
Co270 N267 2.135 . S
Co270 N273 2.121 . S
Co270 O278 2.055 . S
Co270 O281 2.039 . S
Co270 N284 2.140 . S
C271 O272 1.227 . S
C271 O281 1.265 . S
O272 C271 1.227 . S
N273 Co270 2.121 . S
N273 C275 1.375 . S
N273 C276 1.313 . S
C274 C275 1.338 . S
C274 N277 1.377 . S
C274 H294 0.930 . S
C275 N273 1.375 . S
C275 C274 1.338 . S
C275 H279 0.931 . S
C276 N273 1.313 . S
C276 N277 1.344 . S
C276 H280 0.930 . S
N277 C274 1.377 . S
N277 C276 1.344 . S
O278 Co270 2.055 . S
O278 C282 1.253 . S
H279 C275 0.931 . S
H280 C276 0.930 . S
O281 Co270 2.039 . S
O281 C271 1.265 . S
C282 O278 1.253 . S
C282 O283 1.227 . S
O283 C282 1.227 . S
N284 Co270 2.140 . S
N284 C287 1.346 . S
N284 C288 1.345 . S
C285 C286 1.387 . S
C285 C289 1.391 . S
C286 C285 1.387 . S
C286 C287 1.369 . S
C286 H295 0.929 . S
C287 N284 1.346 . S
C287 C286 1.369 . S
C287 H290 0.928 . S
C288 N284 1.345 . S
C288 C289 1.371 . S
C288 H291 0.931 . S
C289 C285 1.391 . S
C289 C288 1.371 . S
C289 H296 0.930 . S
H290 C287 0.928 . S
H291 C288 0.931 . S
H292 C268 0.930 . S
H293 C265 0.930 . S
H294 C274 0.930 . S
H295 C286 0.929 . S
H296 C289 0.930 . S
C297 C298 1.351 . S
C297 N300 1.368 . S
C297 H302 0.931 . S
C298 C297 1.351 . S
C298 N299 1.373 . S
C298 H326 0.930 . S
N299 C298 1.373 . S
N299 C301 1.340 . S
N300 C297 1.368 . S
N300 C301 1.321 . S
N300 Co303 2.135 . S
C301 N299 1.340 . S
C301 N300 1.321 . S
C301 H325 0.930 . S
H302 C297 0.931 . S
Co303 N300 2.135 . S
Co303 N306 2.121 . S
Co303 O311 2.055 . S
Co303 O314 2.039 . S
Co303 N317 2.140 . S
C304 O305 1.227 . S
C304 O314 1.265 . S
O305 C304 1.227 . S
N306 Co303 2.121 . S
N306 C308 1.375 . S
N306 C309 1.313 . S
C307 C308 1.338 . S
C307 N310 1.377 . S
C307 H327 0.930 1_554 S
C308 N306 1.375 . S
C308 C307 1.338 . S
C308 H312 0.931 . S
C309 N306 1.313 . S
C309 N310 1.344 . S
C309 H313 0.930 . S
N310 C307 1.377 . S
N310 C309 1.344 . S
O311 Co303 2.055 . S
O311 C315 1.253 . S
H312 C308 0.931 . S
H313 C309 0.930 . S
O314 Co303 2.039 . S
O314 C304 1.265 . S
C315 O311 1.253 . S
C315 O316 1.227 . S
O316 C315 1.227 . S
N317 Co303 2.140 . S
N317 C320 1.346 . S
N317 C321 1.345 . S
C318 C319 1.387 . S
C318 C322 1.391 . S
C319 C318 1.387 . S
C319 C320 1.369 . S
C319 H328 0.929 . S
C320 N317 1.346 . S
C320 C319 1.369 . S
C320 H323 0.928 . S
C321 N317 1.345 . S
C321 C322 1.371 . S
C321 H324 0.931 . S
C322 C318 1.391 . S
C322 C321 1.371 . S
C322 H329 0.930 . S
H323 C320 0.928 . S
H324 C321 0.931 . S
H325 C301 0.930 . S
H326 C298 0.930 . S
H327 C307 0.930 1_556 S
H328 C319 0.929 . S
H329 C322 0.930 . S
C330 C331 1.351 . S
C330 N333 1.368 . S
C330 H335 0.931 . S
C331 C330 1.351 . S
C331 N332 1.373 . S
C331 H359 0.930 . S
N332 C331 1.373 . S
N332 C334 1.340 . S
N333 C330 1.368 . S
N333 C334 1.321 . S
N333 Co336 2.135 . S
C334 N332 1.340 . S
C334 N333 1.321 . S
C334 H358 0.930 . S
H335 C330 0.931 . S
Co336 N333 2.135 . S
Co336 N339 2.121 . S
Co336 O344 2.055 . S
Co336 O347 2.039 . S
Co336 N350 2.140 . S
C337 O338 1.227 . S
C337 O347 1.265 . S
O338 C337 1.227 . S
N339 Co336 2.121 . S
N339 C341 1.375 . S
N339 C342 1.313 . S
C340 C341 1.338 . S
C340 N343 1.377 . S
C340 H360 0.930 . S
C341 N339 1.375 . S
C341 C340 1.338 . S
C341 H345 0.931 . S
C342 N339 1.313 . S
C342 N343 1.344 . S
C342 H346 0.930 . S
N343 C340 1.377 . S
N343 C342 1.344 . S
O344 Co336 2.055 . S
O344 C348 1.253 . S
H345 C341 0.931 . S
H346 C342 0.930 . S
O347 Co336 2.039 . S
O347 C337 1.265 . S
C348 O344 1.253 . S
C348 O349 1.227 . S
O349 C348 1.227 . S
N350 Co336 2.140 . S
N350 C353 1.346 . S
N350 C354 1.345 . S
C351 C352 1.387 . S
C351 C355 1.391 . S
C352 C351 1.387 . S
C352 C353 1.369 . S
C352 H361 0.929 . S
C353 N350 1.346 . S
C353 C352 1.369 . S
C353 H356 0.928 . S
C354 N350 1.345 . S
C354 C355 1.371 . S
C354 H357 0.931 . S
C355 C351 1.391 . S
C355 C354 1.371 . S
C355 H362 0.930 . S
H356 C353 0.928 . S
H357 C354 0.931 . S
H358 C334 0.930 . S
H359 C331 0.930 . S
H360 C340 0.930 . S
H361 C352 0.929 . S
H362 C355 0.930 . S
C363 C364 1.351 . S
C363 N366 1.368 . S
C363 H368 0.931 . S
C364 C363 1.351 . S
C364 N365 1.373 . S
C364 H392 0.930 . S
N365 C364 1.373 . S
N365 C367 1.340 . S
N366 C363 1.368 . S
N366 C367 1.321 . S
N366 Co369 2.135 . S
C367 N365 1.340 . S
C367 N366 1.321 . S
C367 H391 0.930 . S
H368 C363 0.931 . S
Co369 N366 2.135 . S
Co369 N372 2.121 . S
Co369 O377 2.055 . S
Co369 O380 2.039 . S
Co369 N383 2.140 . S
C370 O371 1.227 . S
C370 O380 1.265 . S
O371 C370 1.227 . S
N372 Co369 2.121 . S
N372 C374 1.375 . S
N372 C375 1.313 . S
C373 C374 1.338 . S
C373 N376 1.377 . S
C373 H393 0.930 . S
C374 N372 1.375 . S
C374 C373 1.338 . S
C374 H378 0.931 . S
C375 N372 1.313 . S
C375 N376 1.344 . S
C375 H379 0.930 . S
N376 C373 1.377 . S
N376 C375 1.344 . S
O377 Co369 2.055 . S
O377 C381 1.253 . S
H378 C374 0.931 . S
H379 C375 0.930 . S
O380 Co369 2.039 . S
O380 C370 1.265 . S
C381 O377 1.253 . S
C381 O382 1.227 . S
O382 C381 1.227 . S
N383 Co369 2.140 . S
N383 C386 1.346 . S
N383 C387 1.345 . S
C384 C385 1.387 . S
C384 C388 1.391 . S
C385 C384 1.387 . S
C385 C386 1.369 . S
C385 H394 0.929 . S
C386 N383 1.346 . S
C386 C385 1.369 . S
C386 H389 0.928 . S
C387 N383 1.345 . S
C387 C388 1.371 . S
C387 H390 0.931 . S
C388 C384 1.391 . S
C388 C387 1.371 . S
C388 H395 0.930 . S
H389 C386 0.928 . S
H390 C387 0.931 . S
H391 C367 0.930 . S
H392 C364 0.930 . S
H393 C373 0.930 . S
H394 C385 0.929 . S
H395 C388 0.930 . S
C396 C397 1.351 . S
C396 N399 1.368 . S
C396 H401 0.931 . S
C397 C396 1.351 . S
C397 N398 1.373 . S
C397 H425 0.930 . S
N398 C397 1.373 . S
N398 C400 1.340 . S
N399 C396 1.368 . S
N399 C400 1.321 . S
N399 Co402 2.135 . S
C400 N398 1.340 . S
C400 N399 1.321 . S
C400 H424 0.930 . S
H401 C396 0.931 . S
Co402 N399 2.135 . S
Co402 N405 2.121 . S
Co402 O410 2.055 . S
Co402 O413 2.039 . S
Co402 N416 2.140 . S
C403 O404 1.227 . S
C403 O413 1.265 . S
O404 C403 1.227 . S
N405 Co402 2.121 . S
N405 C407 1.375 . S
N405 C408 1.313 . S
C406 C407 1.338 . S
C406 N409 1.377 . S
C406 H426 0.930 . S
C407 N405 1.375 . S
C407 C406 1.338 . S
C407 H411 0.931 . S
C408 N405 1.313 . S
C408 N409 1.344 . S
C408 H412 0.930 . S
N409 C406 1.377 . S
N409 C408 1.344 . S
O410 Co402 2.055 . S
O410 C414 1.253 . S
H411 C407 0.931 . S
H412 C408 0.930 . S
O413 Co402 2.039 . S
O413 C403 1.265 . S
C414 O410 1.253 . S
C414 O415 1.227 . S
O415 C414 1.227 . S
N416 Co402 2.140 . S
N416 C419 1.346 . S
N416 C420 1.345 . S
C417 C418 1.387 . S
C417 C421 1.391 . S
C418 C417 1.387 . S
C418 C419 1.369 . S
C418 H427 0.929 . S
C419 N416 1.346 . S
C419 C418 1.369 . S
C419 H422 0.928 . S
C420 N416 1.345 . S
C420 C421 1.371 . S
C420 H423 0.931 . S
C421 C417 1.391 . S
C421 C420 1.371 . S
C421 H428 0.930 . S
H422 C419 0.928 . S
H423 C420 0.931 . S
H424 C400 0.930 . S
H425 C397 0.930 . S
H426 C406 0.930 . S
H427 C418 0.929 . S
H428 C421 0.930 . S
C429 C430 1.351 . S
C429 N432 1.368 . S
C429 H434 0.931 . S
C430 C429 1.351 . S
C430 N431 1.373 . S
C430 H458 0.930 . S
N431 C430 1.373 . S
N431 C433 1.340 . S
N432 C429 1.368 . S
N432 C433 1.321 . S
N432 Co435 2.135 . S
C433 N431 1.340 . S
C433 N432 1.321 . S
C433 H457 0.930 . S
H434 C429 0.931 . S
Co435 N432 2.135 . S
Co435 N438 2.121 . S
Co435 O443 2.055 . S
Co435 O446 2.039 . S
Co435 N449 2.140 . S
C436 O437 1.227 . S
C436 O446 1.265 . S
O437 C436 1.227 . S
N438 Co435 2.121 . S
N438 C440 1.375 . S
N438 C441 1.313 . S
C439 C440 1.338 . S
C439 N442 1.377 . S
C439 H459 0.930 . S
C440 N438 1.375 . S
C440 C439 1.338 . S
C440 H444 0.931 . S
C441 N438 1.313 . S
C441 N442 1.344 . S
C441 H445 0.930 . S
N442 C439 1.377 . S
N442 C441 1.344 . S
O443 Co435 2.055 . S
O443 C447 1.253 . S
H444 C440 0.931 . S
H445 C441 0.930 . S
O446 Co435 2.039 . S
O446 C436 1.265 . S
C447 O443 1.253 . S
C447 O448 1.227 . S
O448 C447 1.227 . S
N449 Co435 2.140 . S
N449 C452 1.346 . S
N449 C453 1.345 . S
C450 C451 1.387 . S
C450 C454 1.391 . S
C451 C450 1.387 . S
C451 C452 1.369 . S
C451 H460 0.929 . S
C452 N449 1.346 . S
C452 C451 1.369 . S
C452 H455 0.928 . S
C453 N449 1.345 . S
C453 C454 1.371 . S
C453 H456 0.931 . S
C454 C450 1.391 . S
C454 C453 1.371 . S
C454 H461 0.930 . S
H455 C452 0.928 . S
H456 C453 0.931 . S
H457 C433 0.930 . S
H458 C430 0.930 . S
H459 C439 0.930 . S
H460 C451 0.929 . S
H461 C454 0.930 . S
C462 C463 1.351 . S
C462 N465 1.368 . S
C462 H467 0.931 . S
C463 C462 1.351 . S
C463 N464 1.373 . S
C463 H491 0.930 . S
N464 C463 1.373 . S
N464 C466 1.340 . S
N465 C462 1.368 . S
N465 C466 1.321 . S
N465 Co468 2.135 . S
C466 N464 1.340 . S
C466 N465 1.321 . S
C466 H490 0.930 . S
H467 C462 0.931 . S
Co468 N465 2.135 . S
Co468 N471 2.121 . S
Co468 O476 2.055 . S
Co468 O479 2.039 . S
Co468 N482 2.140 . S
C469 O470 1.227 . S
C469 O479 1.265 . S
O470 C469 1.227 . S
N471 Co468 2.121 . S
N471 C473 1.375 . S
N471 C474 1.313 . S
C472 C473 1.338 . S
C472 N475 1.377 . S
C472 H492 0.930 1_556 S
C473 N471 1.375 . S
C473 C472 1.338 . S
C473 H477 0.931 . S
C474 N471 1.313 . S
C474 N475 1.344 . S
C474 H478 0.930 . S
N475 C472 1.377 . S
N475 C474 1.344 . S
O476 Co468 2.055 . S
O476 C480 1.253 . S
H477 C473 0.931 . S
H478 C474 0.930 . S
O479 Co468 2.039 . S
O479 C469 1.265 . S
C480 O476 1.253 . S
C480 O481 1.227 . S
O481 C480 1.227 . S
N482 Co468 2.140 . S
N482 C485 1.346 . S
N482 C486 1.345 . S
C483 C484 1.387 . S
C483 C487 1.391 . S
C484 C483 1.387 . S
C484 C485 1.369 . S
C484 H493 0.929 . S
C485 N482 1.346 . S
C485 C484 1.369 . S
C485 H488 0.928 . S
C486 N482 1.345 . S
C486 C487 1.371 . S
C486 H489 0.931 . S
C487 C483 1.391 . S
C487 C486 1.371 . S
C487 H494 0.930 . S
H488 C485 0.928 . S
H489 C486 0.931 . S
H490 C466 0.930 . S
H491 C463 0.930 . S
H492 C472 0.930 1_554 S
H493 C484 0.929 . S
H494 C487 0.930 . S
C495 C496 1.351 . S
C495 N498 1.368 . S
C495 H500 0.931 . S
C496 C495 1.351 . S
C496 N497 1.373 . S
C496 H524 0.930 . S
N497 C496 1.373 . S
N497 C499 1.340 . S
N498 C495 1.368 . S
N498 C499 1.321 . S
N498 Co501 2.135 . S
C499 N497 1.340 . S
C499 N498 1.321 . S
C499 H523 0.930 . S
H500 C495 0.931 . S
Co501 N498 2.135 . S
Co501 N504 2.121 . S
Co501 O509 2.055 . S
Co501 O512 2.039 . S
Co501 N515 2.140 . S
C502 O503 1.227 . S
C502 O512 1.265 . S
O503 C502 1.227 . S
N504 Co501 2.121 . S
N504 C506 1.375 . S
N504 C507 1.313 . S
C505 C506 1.338 . S
C505 N508 1.377 . S
C505 H525 0.930 . S
C506 N504 1.375 . S
C506 C505 1.338 . S
C506 H510 0.931 . S
C507 N504 1.313 . S
C507 N508 1.344 . S
C507 H511 0.930 . S
N508 C505 1.377 . S
N508 C507 1.344 . S
O509 Co501 2.055 . S
O509 C513 1.253 . S
H510 C506 0.931 . S
H511 C507 0.930 . S
O512 Co501 2.039 . S
O512 C502 1.265 . S
C513 O509 1.253 . S
C513 O514 1.227 . S
O514 C513 1.227 . S
N515 Co501 2.140 . S
N515 C518 1.346 . S
N515 C519 1.345 . S
C516 C517 1.387 . S
C516 C520 1.391 . S
C517 C516 1.387 . S
C517 C518 1.369 . S
C517 H526 0.929 . S
C518 N515 1.346 . S
C518 C517 1.369 . S
C518 H521 0.928 . S
C519 N515 1.345 . S
C519 C520 1.371 . S
C519 H522 0.931 . S
C520 C516 1.391 . S
C520 C519 1.371 . S
C520 H527 0.930 . S
H521 C518 0.928 . S
H522 C519 0.931 . S
H523 C499 0.930 . S
H524 C496 0.930 . S
H525 C505 0.930 . S
H526 C517 0.929 . S
H527 C520 0.930 . S
H528 C546 0.951 . S
H529 C548 0.951 . S
H530 C550 0.950 . S
H531 C551 0.950 . S
H532 C553 0.950 . S
H533 C556 0.950 . S
H534 C557 0.950 . S
H535 C559 0.950 . S
H536 C560 0.950 . S
H537 C561 0.951 . S
H538 C563 0.951 . S
H539 C565 0.950 . S
H540 C566 0.950 . S
H541 C568 0.950 . S
H542 C571 0.950 . S
H543 C572 0.950 . S
H544 C574 0.950 . S
H545 C575 0.950 . S
C546 H528 0.951 . S
C546 C547 1.366 . S
C546 C548 1.388 . S
C547 C546 1.366 . S
C547 C551 1.385 . S
C548 H529 0.951 . S
C548 C546 1.388 . S
C548 C549 1.366 . S
C549 C548 1.366 . S
C549 C550 1.414 . S
C549 C552 1.499 . S
C550 H530 0.950 . S
C550 C549 1.414 . S
C550 C551 1.374 . S
C551 H531 0.950 . S
C551 C547 1.385 . S
C551 C550 1.374 . S
C552 C549 1.499 . S
C552 C553 1.373 . S
C552 C554 1.389 . S
C553 H532 0.950 . S
C553 C552 1.373 . S
C553 C569 1.377 . S
C554 C552 1.389 . S
C554 C555 1.524 . S
C554 C568 1.377 . S
C555 C554 1.524 . S
C555 C556 1.397 . S
C555 C560 1.363 . S
C556 H533 0.950 . S
C556 C555 1.397 . S
C556 C557 1.334 . S
C557 H534 0.950 . S
C557 C556 1.334 . S
C557 C558 1.287 . S
C558 C557 1.287 . S
C558 C559 1.524 . S
C558 H577 0.913 . S
C559 H535 0.950 . S
C559 C558 1.524 . S
C559 C560 1.415 . S
C560 H536 0.950 . S
C560 C555 1.363 . S
C560 C559 1.415 . S
C561 H537 0.951 . S
C561 C562 1.366 . S
C561 C563 1.388 . S
C562 C561 1.366 . S
C562 C566 1.385 . S
C563 H538 0.951 . S
C563 C561 1.388 . S
C563 C564 1.366 . S
C564 C563 1.366 . S
C564 C565 1.414 . S
C564 C567 1.499 . S
C565 H539 0.950 . S
C565 C564 1.414 . S
C565 C566 1.374 . S
C566 H540 0.950 . S
C566 C562 1.385 . S
C566 C565 1.374 . S
C567 C564 1.499 . S
C567 C568 1.373 . S
C567 C569 1.389 . S
C568 H541 0.950 . S
C568 C554 1.377 . S
C568 C567 1.373 . S
C569 C553 1.377 . S
C569 C567 1.389 . S
C569 C570 1.524 . S
C570 C569 1.524 . S
C570 C571 1.397 . S
C570 C575 1.363 . S
C571 H542 0.950 . S
C571 C570 1.397 . S
C571 C572 1.334 . S
C572 H543 0.950 . S
C572 C571 1.334 . S
C572 C573 1.287 . S
C573 C572 1.287 . S
C573 C574 1.524 . S
C573 H576 0.999 . S
C574 H544 0.950 . S
C574 C573 1.524 . S
C574 C575 1.415 . S
C575 H545 0.950 . S
C575 C570 1.363 . S
C575 C574 1.415 . S
H576 C573 0.999 . S
H577 C558 0.913 . S
H578 C596 0.951 . S
H579 C598 0.951 . S
H580 C600 0.950 . S
H581 C601 0.950 . S
H582 C603 0.950 . S
H583 C606 0.950 . S
H584 C607 0.950 . S
H585 C609 0.950 . S
H586 C610 0.950 . S
H587 C611 0.951 . S
H588 C613 0.951 . S
H589 C615 0.950 . S
H590 C616 0.950 . S
H591 C618 0.950 . S
H592 C621 0.950 . S
H593 C622 0.950 . S
H594 C624 0.950 . S
H595 C625 0.950 . S
C596 H578 0.951 . S
C596 C597 1.366 . S
C596 C598 1.388 . S
C597 C596 1.366 . S
C597 C601 1.385 . S
C598 H579 0.951 . S
C598 C596 1.388 . S
C598 C599 1.366 . S
C599 C598 1.366 . S
C599 C600 1.414 . S
C599 C602 1.499 . S
C600 H580 0.950 . S
C600 C599 1.414 . S
C600 C601 1.374 . S
C601 H581 0.950 . S
C601 C597 1.385 . S
C601 C600 1.374 . S
C602 C599 1.499 . S
C602 C603 1.373 . S
C602 C604 1.389 . S
C603 H582 0.950 . S
C603 C602 1.373 . S
C603 C619 1.377 . S
C604 C602 1.389 . S
C604 C605 1.524 . S
C604 C618 1.377 . S
C605 C604 1.524 . S
C605 C606 1.397 . S
C605 C610 1.363 . S
C606 H583 0.950 . S
C606 C605 1.397 . S
C606 C607 1.334 . S
C607 H584 0.950 . S
C607 C606 1.334 . S
C607 C608 1.287 . S
C608 C607 1.287 . S
C608 C609 1.524 . S
C608 H627 0.913 . S
C609 H585 0.950 . S
C609 C608 1.524 . S
C609 C610 1.415 . S
C610 H586 0.950 . S
C610 C605 1.363 . S
C610 C609 1.415 . S
C611 H587 0.951 . S
C611 C612 1.366 . S
C611 C613 1.388 . S
C612 C611 1.366 . S
C612 C616 1.385 . S
C613 H588 0.951 . S
C613 C611 1.388 . S
C613 C614 1.366 . S
C614 C613 1.366 . S
C614 C615 1.414 . S
C614 C617 1.499 . S
C615 H589 0.950 . S
C615 C614 1.414 . S
C615 C616 1.374 . S
C616 H590 0.950 . S
C616 C612 1.385 . S
C616 C615 1.374 . S
C617 C614 1.499 . S
C617 C618 1.373 . S
C617 C619 1.389 . S
C618 H591 0.950 . S
C618 C604 1.377 . S
C618 C617 1.373 . S
C619 C603 1.377 . S
C619 C617 1.389 . S
C619 C620 1.524 . S
C620 C619 1.524 . S
C620 C621 1.397 . S
C620 C625 1.363 . S
C621 H592 0.950 . S
C621 C620 1.397 . S
C621 C622 1.334 . S
C622 H593 0.950 . S
C622 C621 1.334 . S
C622 C623 1.287 . S
C623 C622 1.287 . S
C623 C624 1.524 . S
C623 H626 0.999 . S
C624 H594 0.950 . S
C624 C623 1.524 . S
C624 C625 1.415 . S
C625 H595 0.950 . S
C625 C620 1.363 . S
C625 C624 1.415 . S
H626 C623 0.999 . S
H627 C608 0.913 . S
H628 C646 0.951 . S
H629 C648 0.951 . S
H630 C650 0.950 . S
H631 C651 0.950 . S
H632 C653 0.950 . S
H633 C656 0.950 . S
H634 C657 0.950 . S
H635 C659 0.950 . S
H636 C660 0.950 . S
H637 C661 0.951 . S
H638 C663 0.951 . S
H639 C665 0.950 . S
H640 C666 0.950 . S
H641 C668 0.950 . S
H642 C671 0.950 . S
H643 C672 0.950 . S
H644 C674 0.950 . S
H645 C675 0.950 . S
C646 H628 0.951 . S
C646 C647 1.366 . S
C646 C648 1.388 . S
C647 C646 1.366 . S
C647 C651 1.385 . S
C648 H629 0.951 . S
C648 C646 1.388 . S
C648 C649 1.366 . S
C649 C648 1.366 . S
C649 C650 1.414 . S
C649 C652 1.499 . S
C650 H630 0.950 . S
C650 C649 1.414 . S
C650 C651 1.374 . S
C651 H631 0.950 . S
C651 C647 1.385 . S
C651 C650 1.374 . S
C652 C649 1.499 . S
C652 C653 1.373 . S
C652 C654 1.389 . S
C653 H632 0.950 . S
C653 C652 1.373 . S
C653 C669 1.377 1_554 S
C654 C652 1.389 . S
C654 C655 1.524 . S
C654 C668 1.377 1_554 S
C655 C654 1.524 . S
C655 C656 1.397 . S
C655 C660 1.363 . S
C656 H633 0.950 . S
C656 C655 1.397 . S
C656 C657 1.334 . S
C657 H634 0.950 . S
C657 C656 1.334 . S
C657 C658 1.287 . S
C658 C657 1.287 . S
C658 C659 1.524 . S
C658 H677 0.913 . S
C659 H635 0.950 . S
C659 C658 1.524 . S
C659 C660 1.415 . S
C660 H636 0.950 . S
C660 C655 1.363 . S
C660 C659 1.415 . S
C661 H637 0.951 . S
C661 C662 1.366 . S
C661 C663 1.388 . S
C662 C661 1.366 . S
C662 C666 1.385 . S
C663 H638 0.951 . S
C663 C661 1.388 . S
C663 C664 1.366 . S
C664 C663 1.366 . S
C664 C665 1.414 . S
C664 C667 1.499 . S
C665 H639 0.950 . S
C665 C664 1.414 . S
C665 C666 1.374 . S
C666 H640 0.950 . S
C666 C662 1.385 . S
C666 C665 1.374 . S
C667 C664 1.499 . S
C667 C668 1.373 . S
C667 C669 1.389 . S
C668 H641 0.950 . S
C668 C654 1.377 1_556 S
C668 C667 1.373 . S
C669 C653 1.377 1_556 S
C669 C667 1.389 . S
C669 C670 1.524 . S
C670 C669 1.524 . S
C670 C671 1.397 . S
C670 C675 1.363 . S
C671 H642 0.950 . S
C671 C670 1.397 . S
C671 C672 1.334 . S
C672 H643 0.950 . S
C672 C671 1.334 . S
C672 C673 1.287 . S
C673 C672 1.287 . S
C673 C674 1.524 . S
C673 H676 0.999 . S
C674 H644 0.950 . S
C674 C673 1.524 . S
C674 C675 1.415 . S
C675 H645 0.950 . S
C675 C670 1.363 . S
C675 C674 1.415 . S
H676 C673 0.999 . S
H677 C658 0.913 . S
H678 C696 0.951 . S
H679 C698 0.951 . S
H680 C700 0.950 . S
H681 C701 0.950 . S
H682 C703 0.950 . S
H683 C706 0.950 . S
H684 C707 0.950 . S
H685 C709 0.950 . S
H686 C710 0.950 . S
H687 C711 0.951 . S
H688 C713 0.951 . S
H689 C715 0.950 . S
H690 C716 0.950 . S
H691 C718 0.950 . S
H692 C721 0.950 . S
H693 C722 0.950 . S
H694 C724 0.950 . S
H695 C725 0.950 . S
C696 H678 0.951 . S
C696 C697 1.366 . S
C696 C698 1.388 . S
C697 C696 1.366 . S
C697 C701 1.385 . S
C698 H679 0.951 . S
C698 C696 1.388 . S
C698 C699 1.366 . S
C699 C698 1.366 . S
C699 C700 1.414 . S
C699 C702 1.499 . S
C700 H680 0.950 . S
C700 C699 1.414 . S
C700 C701 1.374 . S
C701 H681 0.950 . S
C701 C697 1.385 . S
C701 C700 1.374 . S
C702 C699 1.499 . S
C702 C703 1.373 . S
C702 C704 1.389 . S
C703 H682 0.950 . S
C703 C702 1.373 . S
C703 C719 1.377 . S
C704 C702 1.389 . S
C704 C705 1.524 . S
C704 C718 1.377 . S
C705 C704 1.524 . S
C705 C706 1.397 . S
C705 C710 1.363 . S
C706 H683 0.950 . S
C706 C705 1.397 . S
C706 C707 1.334 . S
C707 H684 0.950 . S
C707 C706 1.334 . S
C707 C708 1.287 . S
C708 C707 1.287 . S
C708 C709 1.524 . S
C708 H727 0.913 . S
C709 H685 0.950 . S
C709 C708 1.524 . S
C709 C710 1.415 . S
C710 H686 0.950 . S
C710 C705 1.363 . S
C710 C709 1.415 . S
C711 H687 0.951 . S
C711 C712 1.366 . S
C711 C713 1.388 . S
C712 C711 1.366 . S
C712 C716 1.385 . S
C713 H688 0.951 . S
C713 C711 1.388 . S
C713 C714 1.366 . S
C714 C713 1.366 . S
C714 C715 1.414 . S
C714 C717 1.499 . S
C715 H689 0.950 . S
C715 C714 1.414 . S
C715 C716 1.374 . S
C716 H690 0.950 . S
C716 C712 1.385 . S
C716 C715 1.374 . S
C717 C714 1.499 . S
C717 C718 1.373 . S
C717 C719 1.389 . S
C718 H691 0.950 . S
C718 C704 1.377 . S
C718 C717 1.373 . S
C719 C703 1.377 . S
C719 C717 1.389 . S
C719 C720 1.524 . S
C720 C719 1.524 . S
C720 C721 1.397 . S
C720 C725 1.363 . S
C721 H692 0.950 . S
C721 C720 1.397 . S
C721 C722 1.334 . S
C722 H693 0.950 . S
C722 C721 1.334 . S
C722 C723 1.287 . S
C723 C722 1.287 . S
C723 C724 1.524 . S
C723 H726 0.999 . S
C724 H694 0.950 . S
C724 C723 1.524 . S
C724 C725 1.415 . S
C725 H695 0.950 . S
C725 C720 1.363 . S
C725 C724 1.415 . S
H726 C723 0.999 . S
H727 C708 0.913 . S
H728 C746 0.951 . S
H729 C748 0.951 . S
H730 C750 0.950 . S
H731 C751 0.950 . S
H732 C753 0.950 . S
H733 C756 0.950 . S
H734 C757 0.950 . S
H735 C759 0.950 . S
H736 C760 0.950 . S
H737 C761 0.951 . S
H738 C763 0.951 . S
H739 C765 0.950 . S
H740 C766 0.950 . S
H741 C768 0.950 . S
H742 C771 0.950 . S
H743 C772 0.950 . S
H744 C774 0.950 . S
H745 C775 0.950 . S
C746 H728 0.951 . S
C746 C747 1.366 . S
C746 C748 1.388 . S
C747 C746 1.366 . S
C747 C751 1.385 . S
C748 H729 0.951 . S
C748 C746 1.388 . S
C748 C749 1.366 . S
C749 C748 1.366 . S
C749 C750 1.414 . S
C749 C752 1.499 . S
C750 H730 0.950 . S
C750 C749 1.414 . S
C750 C751 1.374 . S
C751 H731 0.950 . S
C751 C747 1.385 . S
C751 C750 1.374 . S
C752 C749 1.499 . S
C752 C753 1.373 . S
C752 C754 1.389 . S
C753 H732 0.950 . S
C753 C752 1.373 . S
C753 C769 1.377 . S
C754 C752 1.389 . S
C754 C755 1.524 . S
C754 C768 1.377 . S
C755 C754 1.524 . S
C755 C756 1.397 . S
C755 C760 1.363 . S
C756 H733 0.950 . S
C756 C755 1.397 . S
C756 C757 1.334 . S
C757 H734 0.950 . S
C757 C756 1.334 . S
C757 C758 1.287 . S
C758 C757 1.287 . S
C758 C759 1.524 . S
C758 H777 0.913 . S
C759 H735 0.950 . S
C759 C758 1.524 . S
C759 C760 1.415 . S
C760 H736 0.950 . S
C760 C755 1.363 . S
C760 C759 1.415 . S
C761 H737 0.951 . S
C761 C762 1.366 . S
C761 C763 1.388 . S
C762 C761 1.366 . S
C762 C766 1.385 . S
C763 H738 0.951 . S
C763 C761 1.388 . S
C763 C764 1.366 . S
C764 C763 1.366 . S
C764 C765 1.414 . S
C764 C767 1.499 . S
C765 H739 0.950 . S
C765 C764 1.414 . S
C765 C766 1.374 . S
C766 H740 0.950 . S
C766 C762 1.385 . S
C766 C765 1.374 . S
C767 C764 1.499 . S
C767 C768 1.373 . S
C767 C769 1.389 . S
C768 H741 0.950 . S
C768 C754 1.377 . S
C768 C767 1.373 . S
C769 C753 1.377 . S
C769 C767 1.389 . S
C769 C770 1.524 . S
C770 C769 1.524 . S
C770 C771 1.397 . S
C770 C775 1.363 . S
C771 H742 0.950 . S
C771 C770 1.397 . S
C771 C772 1.334 . S
C772 H743 0.950 . S
C772 C771 1.334 . S
C772 C773 1.287 . S
C773 C772 1.287 . S
C773 C774 1.524 . S
C773 H776 0.999 . S
C774 H744 0.950 . S
C774 C773 1.524 . S
C774 C775 1.415 . S
C775 H745 0.950 . S
C775 C770 1.363 . S
C775 C774 1.415 . S
H776 C773 0.999 . S
H777 C758 0.913 . S
H778 C796 0.951 . S
H779 C798 0.951 . S
H780 C800 0.950 . S
H781 C801 0.950 . S
H782 C803 0.950 . S
H783 C806 0.950 . S
H784 C807 0.950 . S
H785 C809 0.950 . S
H786 C810 0.950 . S
H787 C811 0.951 . S
H788 C813 0.951 . S
H789 C815 0.950 . S
H790 C816 0.950 . S
H791 C818 0.950 . S
H792 C821 0.950 . S
H793 C822 0.950 . S
H794 C824 0.950 . S
H795 C825 0.950 . S
C796 H778 0.951 . S
C796 C797 1.366 . S
C796 C798 1.388 . S
C797 C796 1.366 . S
C797 C801 1.385 . S
C798 H779 0.951 . S
C798 C796 1.388 . S
C798 C799 1.366 . S
C799 C798 1.366 . S
C799 C800 1.414 . S
C799 C802 1.499 . S
C800 H780 0.950 . S
C800 C799 1.414 . S
C800 C801 1.374 . S
C801 H781 0.950 . S
C801 C797 1.385 . S
C801 C800 1.374 . S
C802 C799 1.499 . S
C802 C803 1.373 . S
C802 C804 1.389 . S
C803 H782 0.950 . S
C803 C802 1.373 . S
C803 C819 1.377 1_556 S
C804 C802 1.389 . S
C804 C805 1.524 . S
C804 C818 1.377 1_556 S
C805 C804 1.524 . S
C805 C806 1.397 . S
C805 C810 1.363 . S
C806 H783 0.950 . S
C806 C805 1.397 . S
C806 C807 1.334 . S
C807 H784 0.950 . S
C807 C806 1.334 . S
C807 C808 1.287 . S
C808 C807 1.287 . S
C808 C809 1.524 . S
C808 H827 0.913 . S
C809 H785 0.950 . S
C809 C808 1.524 . S
C809 C810 1.415 . S
C810 H786 0.950 . S
C810 C805 1.363 . S
C810 C809 1.415 . S
C811 H787 0.951 . S
C811 C812 1.366 . S
C811 C813 1.388 . S
C812 C811 1.366 . S
C812 C816 1.385 . S
C813 H788 0.951 . S
C813 C811 1.388 . S
C813 C814 1.366 . S
C814 C813 1.366 . S
C814 C815 1.414 . S
C814 C817 1.499 . S
C815 H789 0.950 . S
C815 C814 1.414 . S
C815 C816 1.374 . S
C816 H790 0.950 . S
C816 C812 1.385 . S
C816 C815 1.374 . S
C817 C814 1.499 . S
C817 C818 1.373 . S
C817 C819 1.389 . S
C818 H791 0.950 . S
C818 C804 1.377 1_554 S
C818 C817 1.373 . S
C819 C803 1.377 1_554 S
C819 C817 1.389 . S
C819 C820 1.524 . S
C820 C819 1.524 . S
C820 C821 1.397 . S
C820 C825 1.363 . S
C821 H792 0.950 . S
C821 C820 1.397 . S
C821 C822 1.334 . S
C822 H793 0.950 . S
C822 C821 1.334 . S
C822 C823 1.287 . S
C823 C822 1.287 . S
C823 C824 1.524 . S
C823 H826 0.999 . S
C824 H794 0.950 . S
C824 C823 1.524 . S
C824 C825 1.415 . S
C825 H795 0.950 . S
C825 C820 1.363 . S
C825 C824 1.415 . S
H826 C823 0.999 . S
H827 C808 0.913 . S
H828 C846 0.951 . S
H829 C848 0.951 . S
H830 C850 0.950 . S
H831 C851 0.950 . S
H832 C853 0.950 . S
H833 C856 0.950 . S
H834 C857 0.950 . S
H835 C859 0.950 . S
H836 C860 0.950 . S
H837 C861 0.951 . S
H838 C863 0.951 . S
H839 C865 0.950 . S
H840 C866 0.950 . S
H841 C868 0.950 . S
H842 C871 0.950 . S
H843 C872 0.950 . S
H844 C874 0.950 . S
H845 C875 0.950 . S
C846 H828 0.951 . S
C846 C847 1.366 . S
C846 C848 1.388 . S
C847 C846 1.366 . S
C847 C851 1.385 . S
C848 H829 0.951 . S
C848 C846 1.388 . S
C848 C849 1.366 . S
C849 C848 1.366 . S
C849 C850 1.414 . S
C849 C852 1.499 . S
C850 H830 0.950 . S
C850 C849 1.414 . S
C850 C851 1.374 . S
C851 H831 0.950 . S
C851 C847 1.385 . S
C851 C850 1.374 . S
C852 C849 1.499 . S
C852 C853 1.373 . S
C852 C854 1.389 . S
C853 H832 0.950 . S
C853 C852 1.373 . S
C853 C869 1.377 . S
C854 C852 1.389 . S
C854 C855 1.524 . S
C854 C868 1.377 . S
C855 C854 1.524 . S
C855 C856 1.397 . S
C855 C860 1.363 . S
C856 H833 0.950 . S
C856 C855 1.397 . S
C856 C857 1.334 . S
C857 H834 0.950 . S
C857 C856 1.334 . S
C857 C858 1.287 . S
C858 C857 1.287 . S
C858 C859 1.524 . S
C858 H877 0.913 . S
C859 H835 0.950 . S
C859 C858 1.524 . S
C859 C860 1.415 . S
C860 H836 0.950 . S
C860 C855 1.363 . S
C860 C859 1.415 . S
C861 H837 0.951 . S
C861 C862 1.366 . S
C861 C863 1.388 . S
C862 C861 1.366 . S
C862 C866 1.385 . S
C863 H838 0.951 . S
C863 C861 1.388 . S
C863 C864 1.366 . S
C864 C863 1.366 . S
C864 C865 1.414 . S
C864 C867 1.499 . S
C865 H839 0.950 . S
C865 C864 1.414 . S
C865 C866 1.374 . S
C866 H840 0.950 . S
C866 C862 1.385 . S
C866 C865 1.374 . S
C867 C864 1.499 . S
C867 C868 1.373 . S
C867 C869 1.389 . S
C868 H841 0.950 . S
C868 C854 1.377 . S
C868 C867 1.373 . S
C869 C853 1.377 . S
C869 C867 1.389 . S
C869 C870 1.524 . S
C870 C869 1.524 . S
C870 C871 1.397 . S
C870 C875 1.363 . S
C871 H842 0.950 . S
C871 C870 1.397 . S
C871 C872 1.334 . S
C872 H843 0.950 . S
C872 C871 1.334 . S
C872 C873 1.287 . S
C873 C872 1.287 . S
C873 C874 1.524 . S
C873 H876 0.999 . S
C874 H844 0.950 . S
C874 C873 1.524 . S
C874 C875 1.415 . S
C875 H845 0.950 . S
C875 C870 1.363 . S
C875 C874 1.415 . S
H876 C873 0.999 . S
H877 C858 0.913 . S
H878 C896 0.951 . S
H879 C898 0.951 . S
H880 C900 0.950 . S
H881 C901 0.950 . S
H882 C903 0.950 . S
H883 C906 0.950 . S
H884 C907 0.950 . S
H885 C909 0.950 . S
H886 C910 0.950 . S
H887 C911 0.951 . S
H888 C913 0.951 . S
H889 C915 0.950 . S
H890 C916 0.950 . S
H891 C918 0.950 . S
H892 C921 0.950 . S
H893 C922 0.950 . S
H894 C924 0.950 . S
H895 C925 0.950 . S
C896 H878 0.951 . S
C896 C897 1.366 . S
C896 C898 1.388 . S
C897 C896 1.366 . S
C897 C901 1.385 . S
C898 H879 0.951 . S
C898 C896 1.388 . S
C898 C899 1.366 . S
C899 C898 1.366 . S
C899 C900 1.414 . S
C899 C902 1.499 . S
C900 H880 0.950 . S
C900 C899 1.414 . S
C900 C901 1.374 . S
C901 H881 0.950 . S
C901 C897 1.385 . S
C901 C900 1.374 . S
C902 C899 1.499 . S
C902 C903 1.373 . S
C902 C904 1.389 . S
C903 H882 0.950 . S
C903 C902 1.373 . S
C903 C919 1.377 . S
C904 C902 1.389 . S
C904 C905 1.524 . S
C904 C918 1.377 . S
C905 C904 1.524 . S
C905 C906 1.397 . S
C905 C910 1.363 . S
C906 H883 0.950 . S
C906 C905 1.397 . S
C906 C907 1.334 . S
C907 H884 0.950 . S
C907 C906 1.334 . S
C907 C908 1.287 . S
C908 C907 1.287 . S
C908 C909 1.524 . S
C908 H927 0.913 . S
C909 H885 0.950 . S
C909 C908 1.524 . S
C909 C910 1.415 . S
C910 H886 0.950 . S
C910 C905 1.363 . S
C910 C909 1.415 . S
C911 H887 0.951 . S
C911 C912 1.366 . S
C911 C913 1.388 . S
C912 C911 1.366 . S
C912 C916 1.385 . S
C913 H888 0.951 . S
C913 C911 1.388 . S
C913 C914 1.366 . S
C914 C913 1.366 . S
C914 C915 1.414 . S
C914 C917 1.499 . S
C915 H889 0.950 . S
C915 C914 1.414 . S
C915 C916 1.374 . S
C916 H890 0.950 . S
C916 C912 1.385 . S
C916 C915 1.374 . S
C917 C914 1.499 . S
C917 C918 1.373 . S
C917 C919 1.389 . S
C918 H891 0.950 . S
C918 C904 1.377 . S
C918 C917 1.373 . S
C919 C903 1.377 . S
C919 C917 1.389 . S
C919 C920 1.524 . S
C920 C919 1.524 . S
C920 C921 1.397 . S
C920 C925 1.363 . S
C921 H892 0.950 . S
C921 C920 1.397 . S
C921 C922 1.334 . S
C922 H893 0.950 . S
C922 C921 1.334 . S
C922 C923 1.287 . S
C923 C922 1.287 . S
C923 C924 1.524 . S
C923 H926 0.999 . S
C924 H894 0.950 . S
C924 C923 1.524 . S
C924 C925 1.415 . S
C925 H895 0.950 . S
C925 C920 1.363 . S
C925 C924 1.415 . S
H926 C923 0.999 . S
H927 C908 0.913 . S
H928 C946 0.951 . S
H929 C948 0.951 . S
H930 C950 0.950 . S
H931 C951 0.950 . S
H932 C953 0.950 . S
H933 C956 0.950 . S
H934 C957 0.950 . S
H935 C959 0.950 . S
H936 C960 0.950 . S
H937 C961 0.951 . S
H938 C963 0.951 . S
H939 C965 0.950 . S
H940 C966 0.950 . S
H941 C968 0.950 . S
H942 C971 0.950 . S
H943 C972 0.950 . S
H944 C974 0.950 . S
H945 C975 0.950 . S
C946 H928 0.951 . S
C946 C947 1.366 . S
C946 C948 1.388 . S
C947 C946 1.366 . S
C947 C951 1.385 . S
C948 H929 0.951 . S
C948 C946 1.388 . S
C948 C949 1.366 . S
C949 C948 1.366 . S
C949 C950 1.414 . S
C949 C952 1.499 . S
C950 H930 0.950 . S
C950 C949 1.414 . S
C950 C951 1.374 . S
C951 H931 0.950 . S
C951 C947 1.385 . S
C951 C950 1.374 . S
C952 C949 1.499 . S
C952 C953 1.373 . S
C952 C954 1.389 . S
C953 H932 0.950 . S
C953 C952 1.373 . S
C953 C969 1.377 . S
C954 C952 1.389 . S
C954 C955 1.524 . S
C954 C968 1.377 . S
C955 C954 1.524 . S
C955 C956 1.397 . S
C955 C960 1.363 . S
C956 H933 0.950 . S
C956 C955 1.397 . S
C956 C957 1.334 . S
C957 H934 0.950 . S
C957 C956 1.334 . S
C957 C958 1.287 . S
C958 C957 1.287 . S
C958 C959 1.524 . S
C958 H977 0.913 . S
C959 H935 0.950 . S
C959 C958 1.524 . S
C959 C960 1.415 . S
C960 H936 0.950 . S
C960 C955 1.363 . S
C960 C959 1.415 . S
C961 H937 0.951 . S
C961 C962 1.366 . S
C961 C963 1.388 . S
C962 C961 1.366 . S
C962 C966 1.385 . S
C963 H938 0.951 . S
C963 C961 1.388 . S
C963 C964 1.366 . S
C964 C963 1.366 . S
C964 C965 1.414 . S
C964 C967 1.499 . S
C965 H939 0.950 . S
C965 C964 1.414 . S
C965 C966 1.374 . S
C966 H940 0.950 . S
C966 C962 1.385 . S
C966 C965 1.374 . S
C967 C964 1.499 . S
C967 C968 1.373 . S
C967 C969 1.389 . S
C968 H941 0.950 . S
C968 C954 1.377 . S
C968 C967 1.373 . S
C969 C953 1.377 . S
C969 C967 1.389 . S
C969 C970 1.524 . S
C970 C969 1.524 . S
C970 C971 1.397 . S
C970 C975 1.363 . S
C971 H942 0.950 . S
C971 C970 1.397 . S
C971 C972 1.334 . S
C972 H943 0.950 . S
C972 C971 1.334 . S
C972 C973 1.287 . S
C973 C972 1.287 . S
C973 C974 1.524 . S
C973 H976 0.999 . S
C974 H944 0.950 . S
C974 C973 1.524 . S
C974 C975 1.415 . S
C975 H945 0.950 . S
C975 C970 1.363 . S
C975 C974 1.415 . S
H976 C973 0.999 . S
H977 C958 0.913 . S
H978 C996 0.951 . S
H979 C998 0.951 . S
H980 C1000 0.950 . S
H981 C1001 0.950 . S
H982 C1003 0.950 . S
H983 C1006 0.950 . S
H984 C1007 0.950 . S
H985 C1009 0.950 . S
H986 C1010 0.950 . S
H987 C1011 0.951 . S
H988 C1013 0.951 . S
H989 C1015 0.950 . S
H990 C1016 0.950 . S
H991 C1018 0.950 . S
H992 C1021 0.950 . S
H993 C1022 0.950 . S
H994 C1024 0.950 . S
H995 C1025 0.950 . S
C996 H978 0.951 . S
C996 C997 1.366 . S
C996 C998 1.388 . S
C997 C996 1.366 . S
C997 C1001 1.385 . S
C998 H979 0.951 . S
C998 C996 1.388 . S
C998 C999 1.366 . S
C999 C998 1.366 . S
C999 C1000 1.414 . S
C999 C1002 1.499 . S
C1000 H980 0.950 . S
C1000 C999 1.414 . S
C1000 C1001 1.374 . S
C1001 H981 0.950 . S
C1001 C997 1.385 . S
C1001 C1000 1.374 . S
C1002 C999 1.499 . S
C1002 C1003 1.373 . S
C1002 C1004 1.389 . S
C1003 H982 0.950 . S
C1003 C1002 1.373 . S
C1003 C1019 1.377 . S
C1004 C1002 1.389 . S
C1004 C1005 1.524 . S
C1004 C1018 1.377 . S
C1005 C1004 1.524 . S
C1005 C1006 1.397 . S
C1005 C1010 1.363 . S
C1006 H983 0.950 . S
C1006 C1005 1.397 . S
C1006 C1007 1.334 . S
C1007 H984 0.950 . S
C1007 C1006 1.334 . S
C1007 C1008 1.287 . S
C1008 C1007 1.287 . S
C1008 C1009 1.524 . S
C1008 H1027 0.913 . S
C1009 H985 0.950 . S
C1009 C1008 1.524 . S
C1009 C1010 1.415 . S
C1010 H986 0.950 . S
C1010 C1005 1.363 . S
C1010 C1009 1.415 . S
C1011 H987 0.951 . S
C1011 C1012 1.366 . S
C1011 C1013 1.388 . S
C1012 C1011 1.366 . S
C1012 C1016 1.385 . S
C1013 H988 0.951 . S
C1013 C1011 1.388 . S
C1013 C1014 1.366 . S
C1014 C1013 1.366 . S
C1014 C1015 1.414 . S
C1014 C1017 1.499 . S
C1015 H989 0.950 . S
C1015 C1014 1.414 . S
C1015 C1016 1.374 . S
C1016 H990 0.950 . S
C1016 C1012 1.385 . S
C1016 C1015 1.374 . S
C1017 C1014 1.499 . S
C1017 C1018 1.373 . S
C1017 C1019 1.389 . S
C1018 H991 0.950 . S
C1018 C1004 1.377 . S
C1018 C1017 1.373 . S
C1019 C1003 1.377 . S
C1019 C1017 1.389 . S
C1019 C1020 1.524 . S
C1020 C1019 1.524 . S
C1020 C1021 1.397 . S
C1020 C1025 1.363 . S
C1021 H992 0.950 . S
C1021 C1020 1.397 . S
C1021 C1022 1.334 . S
C1022 H993 0.950 . S
C1022 C1021 1.334 . S
C1022 C1023 1.287 . S
C1023 C1022 1.287 . S
C1023 C1024 1.524 . S
C1023 H1026 0.999 . S
C1024 H994 0.950 . S
C1024 C1023 1.524 . S
C1024 C1025 1.415 . S
C1025 H995 0.950 . S
C1025 C1020 1.363 . S
C1025 C1024 1.415 . S
H1026 C1023 0.999 . S
H1027 C1008 0.913 . S
H1028 C1046 0.951 . S
H1029 C1048 0.951 . S
H1030 C1050 0.950 . S
H1031 C1051 0.950 . S
H1032 C1053 0.950 . S
H1033 C1056 0.950 . S
H1034 C1057 0.950 . S
H1035 C1059 0.950 . S
H1036 C1060 0.950 . S
H1037 C1061 0.951 . S
H1038 C1063 0.951 . S
H1039 C1065 0.950 . S
H1040 C1066 0.950 . S
H1041 C1068 0.950 . S
H1042 C1071 0.950 . S
H1043 C1072 0.950 . S
H1044 C1074 0.950 . S
H1045 C1075 0.950 . S
C1046 H1028 0.951 . S
C1046 C1047 1.366 . S
C1046 C1048 1.388 . S
C1047 C1046 1.366 . S
C1047 C1051 1.385 . S
C1048 H1029 0.951 . S
C1048 C1046 1.388 . S
C1048 C1049 1.366 . S
C1049 C1048 1.366 . S
C1049 C1050 1.414 . S
C1049 C1052 1.499 . S
C1050 H1030 0.950 . S
C1050 C1049 1.414 . S
C1050 C1051 1.374 . S
C1051 H1031 0.950 . S
C1051 C1047 1.385 . S
C1051 C1050 1.374 . S
C1052 C1049 1.499 . S
C1052 C1053 1.373 . S
C1052 C1054 1.389 . S
C1053 H1032 0.950 . S
C1053 C1052 1.373 . S
C1053 C1069 1.377 . S
C1054 C1052 1.389 . S
C1054 C1055 1.524 . S
C1054 C1068 1.377 . S
C1055 C1054 1.524 . S
C1055 C1056 1.397 . S
C1055 C1060 1.363 . S
C1056 H1033 0.950 . S
C1056 C1055 1.397 . S
C1056 C1057 1.334 . S
C1057 H1034 0.950 . S
C1057 C1056 1.334 . S
C1057 C1058 1.287 . S
C1058 C1057 1.287 . S
C1058 C1059 1.524 . S
C1058 H1077 0.913 . S
C1059 H1035 0.950 . S
C1059 C1058 1.524 . S
C1059 C1060 1.415 . S
C1060 H1036 0.950 . S
C1060 C1055 1.363 . S
C1060 C1059 1.415 . S
C1061 H1037 0.951 . S
C1061 C1062 1.366 . S
C1061 C1063 1.388 . S
C1062 C1061 1.366 . S
C1062 C1066 1.385 . S
C1063 H1038 0.951 . S
C1063 C1061 1.388 . S
C1063 C1064 1.366 . S
C1064 C1063 1.366 . S
C1064 C1065 1.414 . S
C1064 C1067 1.499 . S
C1065 H1039 0.950 . S
C1065 C1064 1.414 . S
C1065 C1066 1.374 . S
C1066 H1040 0.950 . S
C1066 C1062 1.385 . S
C1066 C1065 1.374 . S
C1067 C1064 1.499 . S
C1067 C1068 1.373 . S
C1067 C1069 1.389 . S
C1068 H1041 0.950 . S
C1068 C1054 1.377 . S
C1068 C1067 1.373 . S
C1069 C1053 1.377 . S
C1069 C1067 1.389 . S
C1069 C1070 1.524 . S
C1070 C1069 1.524 . S
C1070 C1071 1.397 . S
C1070 C1075 1.363 . S
C1071 H1042 0.950 . S
C1071 C1070 1.397 . S
C1071 C1072 1.334 . S
C1072 H1043 0.950 . S
C1072 C1071 1.334 . S
C1072 C1073 1.287 . S
C1073 C1072 1.287 . S
C1073 C1074 1.524 . S
C1073 H1076 0.999 . S
C1074 H1044 0.950 . S
C1074 C1073 1.524 . S
C1074 C1075 1.415 . S
C1075 H1045 0.950 . S
C1075 C1070 1.363 . S
C1075 C1074 1.415 . S
H1076 C1073 0.999 . S
H1077 C1058 0.913 . S
H1078 C1096 0.951 . S
H1079 C1098 0.951 . S
H1080 C1100 0.950 . S
H1081 C1101 0.950 . S
H1082 C1103 0.950 . S
H1083 C1106 0.950 . S
H1084 C1107 0.950 . S
H1085 C1109 0.950 . S
H1086 C1110 0.950 . S
H1087 C1111 0.951 . S
H1088 C1113 0.951 . S
H1089 C1115 0.950 . S
H1090 C1116 0.950 . S
H1091 C1118 0.950 . S
H1092 C1121 0.950 . S
H1093 C1122 0.950 . S
H1094 C1124 0.950 . S
H1095 C1125 0.950 . S
C1096 H1078 0.951 . S
C1096 C1097 1.366 . S
C1096 C1098 1.388 . S
C1097 C1096 1.366 . S
C1097 C1101 1.385 . S
C1098 H1079 0.951 . S
C1098 C1096 1.388 . S
C1098 C1099 1.366 . S
C1099 C1098 1.366 . S
C1099 C1100 1.414 . S
C1099 C1102 1.499 . S
C1100 H1080 0.950 . S
C1100 C1099 1.414 . S
C1100 C1101 1.374 . S
C1101 H1081 0.950 . S
C1101 C1097 1.385 . S
C1101 C1100 1.374 . S
C1102 C1099 1.499 . S
C1102 C1103 1.373 . S
C1102 C1104 1.389 . S
C1103 H1082 0.950 . S
C1103 C1102 1.373 . S
C1103 C1119 1.377 . S
C1104 C1102 1.389 . S
C1104 C1105 1.524 . S
C1104 C1118 1.377 . S
C1105 C1104 1.524 . S
C1105 C1106 1.397 . S
C1105 C1110 1.363 . S
C1106 H1083 0.950 . S
C1106 C1105 1.397 . S
C1106 C1107 1.334 . S
C1107 H1084 0.950 . S
C1107 C1106 1.334 . S
C1107 C1108 1.287 . S
C1108 C1107 1.287 . S
C1108 C1109 1.524 . S
C1108 H1127 0.913 . S
C1109 H1085 0.950 . S
C1109 C1108 1.524 . S
C1109 C1110 1.415 . S
C1110 H1086 0.950 . S
C1110 C1105 1.363 . S
C1110 C1109 1.415 . S
C1111 H1087 0.951 . S
C1111 C1112 1.366 . S
C1111 C1113 1.388 . S
C1112 C1111 1.366 . S
C1112 C1116 1.385 . S
C1113 H1088 0.951 . S
C1113 C1111 1.388 . S
C1113 C1114 1.366 . S
C1114 C1113 1.366 . S
C1114 C1115 1.414 . S
C1114 C1117 1.499 . S
C1115 H1089 0.950 . S
C1115 C1114 1.414 . S
C1115 C1116 1.374 . S
C1116 H1090 0.950 . S
C1116 C1112 1.385 . S
C1116 C1115 1.374 . S
C1117 C1114 1.499 . S
C1117 C1118 1.373 . S
C1117 C1119 1.389 . S
C1118 H1091 0.950 . S
C1118 C1104 1.377 . S
C1118 C1117 1.373 . S
C1119 C1103 1.377 . S
C1119 C1117 1.389 . S
C1119 C1120 1.524 . S
C1120 C1119 1.524 . S
C1120 C1121 1.397 . S
C1120 C1125 1.363 . S
C1121 H1092 0.950 . S
C1121 C1120 1.397 . S
C1121 C1122 1.334 . S
C1122 H1093 0.950 . S
C1122 C1121 1.334 . S
C1122 C1123 1.287 . S
C1123 C1122 1.287 . S
C1123 C1124 1.524 . S
C1123 H1126 0.999 . S
C1124 H1094 0.950 . S
C1124 C1123 1.524 . S
C1124 C1125 1.415 . S
C1125 H1095 0.950 . S
C1125 C1120 1.363 . S
C1125 C1124 1.415 . S
H1126 C1123 0.999 . S
H1127 C1108 0.913 . S
H1128 C1146 0.951 1_556 S
H1129 C1148 0.951 . S
H1130 C1150 0.950 . S
H1131 C1151 0.950 . S
H1132 C1153 0.950 . S
H1133 C1156 0.950 . S
H1134 C1157 0.950 . S
H1135 C1159 0.950 . S
H1136 C1160 0.950 . S
H1137 C1161 0.951 . S
H1138 C1163 0.951 . S
H1139 C1165 0.950 . S
H1140 C1166 0.950 . S
H1141 C1168 0.950 . S
H1142 C1171 0.950 . S
H1143 C1172 0.950 . S
H1144 C1174 0.950 . S
H1145 C1175 0.950 . S
C1146 H1128 0.951 1_554 S
C1146 C1147 1.366 . S
C1146 C1148 1.388 . S
C1147 C1146 1.366 . S
C1147 C1151 1.385 . S
C1148 H1129 0.951 . S
C1148 C1146 1.388 . S
C1148 C1149 1.366 . S
C1149 C1148 1.366 . S
C1149 C1150 1.414 . S
C1149 C1152 1.499 . S
C1150 H1130 0.950 . S
C1150 C1149 1.414 . S
C1150 C1151 1.374 . S
C1151 H1131 0.950 . S
C1151 C1147 1.385 . S
C1151 C1150 1.374 . S
C1152 C1149 1.499 . S
C1152 C1153 1.373 . S
C1152 C1154 1.389 . S
C1153 H1132 0.950 . S
C1153 C1152 1.373 . S
C1153 C1169 1.377 . S
C1154 C1152 1.389 . S
C1154 C1155 1.524 . S
C1154 C1168 1.377 . S
C1155 C1154 1.524 . S
C1155 C1156 1.397 . S
C1155 C1160 1.363 . S
C1156 H1133 0.950 . S
C1156 C1155 1.397 . S
C1156 C1157 1.334 . S
C1157 H1134 0.950 . S
C1157 C1156 1.334 . S
C1157 C1158 1.287 . S
C1158 C1157 1.287 . S
C1158 C1159 1.524 . S
C1158 H1177 0.913 . S
C1159 H1135 0.950 . S
C1159 C1158 1.524 . S
C1159 C1160 1.415 . S
C1160 H1136 0.950 . S
C1160 C1155 1.363 . S
C1160 C1159 1.415 . S
C1161 H1137 0.951 . S
C1161 C1162 1.366 . S
C1161 C1163 1.388 . S
C1162 C1161 1.366 . S
C1162 C1166 1.385 . S
C1163 H1138 0.951 . S
C1163 C1161 1.388 . S
C1163 C1164 1.366 . S
C1164 C1163 1.366 . S
C1164 C1165 1.414 . S
C1164 C1167 1.499 . S
C1165 H1139 0.950 . S
C1165 C1164 1.414 . S
C1165 C1166 1.374 . S
C1166 H1140 0.950 . S
C1166 C1162 1.385 . S
C1166 C1165 1.374 . S
C1167 C1164 1.499 . S
C1167 C1168 1.373 . S
C1167 C1169 1.389 . S
C1168 H1141 0.950 . S
C1168 C1154 1.377 . S
C1168 C1167 1.373 . S
C1169 C1153 1.377 . S
C1169 C1167 1.389 . S
C1169 C1170 1.524 . S
C1170 C1169 1.524 . S
C1170 C1171 1.397 . S
C1170 C1175 1.363 . S
C1171 H1142 0.950 . S
C1171 C1170 1.397 . S
C1171 C1172 1.334 . S
C1172 H1143 0.950 . S
C1172 C1171 1.334 . S
C1172 C1173 1.287 . S
C1173 C1172 1.287 . S
C1173 C1174 1.524 . S
C1173 H1176 0.999 . S
C1174 H1144 0.950 . S
C1174 C1173 1.524 . S
C1174 C1175 1.415 . S
C1175 H1145 0.950 . S
C1175 C1170 1.363 . S
C1175 C1174 1.415 . S
H1176 C1173 0.999 . S
H1177 C1158 0.913 . S
H1178 C1196 0.951 . S
H1179 C1198 0.951 . S
H1180 C1200 0.950 . S
H1181 C1201 0.950 . S
H1182 C1203 0.950 . S
H1183 C1206 0.950 . S
H1184 C1207 0.950 . S
H1185 C1209 0.950 . S
H1186 C1210 0.950 . S
H1187 C1211 0.951 . S
H1188 C1213 0.951 . S
H1189 C1215 0.950 . S
H1190 C1216 0.950 . S
H1191 C1218 0.950 . S
H1192 C1221 0.950 . S
H1193 C1222 0.950 . S
H1194 C1224 0.950 . S
H1195 C1225 0.950 . S
C1196 H1178 0.951 . S
C1196 C1197 1.366 . S
C1196 C1198 1.388 . S
C1197 C1196 1.366 . S
C1197 C1201 1.385 . S
C1198 H1179 0.951 . S
C1198 C1196 1.388 . S
C1198 C1199 1.366 . S
C1199 C1198 1.366 . S
C1199 C1200 1.414 . S
C1199 C1202 1.499 . S
C1200 H1180 0.950 . S
C1200 C1199 1.414 . S
C1200 C1201 1.374 . S
C1201 H1181 0.950 . S
C1201 C1197 1.385 . S
C1201 C1200 1.374 . S
C1202 C1199 1.499 . S
C1202 C1203 1.373 . S
C1202 C1204 1.389 . S
C1203 H1182 0.950 . S
C1203 C1202 1.373 . S
C1203 C1219 1.377 . S
C1204 C1202 1.389 . S
C1204 C1205 1.524 . S
C1204 C1218 1.377 . S
C1205 C1204 1.524 . S
C1205 C1206 1.397 . S
C1205 C1210 1.363 . S
C1206 H1183 0.950 . S
C1206 C1205 1.397 . S
C1206 C1207 1.334 . S
C1207 H1184 0.950 . S
C1207 C1206 1.334 . S
C1207 C1208 1.287 . S
C1208 C1207 1.287 . S
C1208 C1209 1.524 . S
C1208 H1227 0.913 . S
C1209 H1185 0.950 . S
C1209 C1208 1.524 . S
C1209 C1210 1.415 . S
C1210 H1186 0.950 . S
C1210 C1205 1.363 . S
C1210 C1209 1.415 . S
C1211 H1187 0.951 . S
C1211 C1212 1.366 . S
C1211 C1213 1.388 . S
C1212 C1211 1.366 . S
C1212 C1216 1.385 . S
C1213 H1188 0.951 . S
C1213 C1211 1.388 . S
C1213 C1214 1.366 . S
C1214 C1213 1.366 . S
C1214 C1215 1.414 . S
C1214 C1217 1.499 . S
C1215 H1189 0.950 . S
C1215 C1214 1.414 . S
C1215 C1216 1.374 . S
C1216 H1190 0.950 . S
C1216 C1212 1.385 . S
C1216 C1215 1.374 . S
C1217 C1214 1.499 . S
C1217 C1218 1.373 . S
C1217 C1219 1.389 . S
C1218 H1191 0.950 . S
C1218 C1204 1.377 . S
C1218 C1217 1.373 . S
C1219 C1203 1.377 . S
C1219 C1217 1.389 . S
C1219 C1220 1.524 . S
C1220 C1219 1.524 . S
C1220 C1221 1.397 . S
C1220 C1225 1.363 . S
C1221 H1192 0.950 . S
C1221 C1220 1.397 . S
C1221 C1222 1.334 . S
C1222 H1193 0.950 . S
C1222 C1221 1.334 . S
C1222 C1223 1.287 . S
C1223 C1222 1.287 . S
C1223 C1224 1.524 . S
C1223 H1226 0.999 . S
C1224 H1194 0.950 . S
C1224 C1223 1.524 . S
C1224 C1225 1.415 . S
C1225 H1195 0.950 . S
C1225 C1220 1.363 . S
C1225 C1224 1.415 . S
H1226 C1223 0.999 . S
H1227 C1208 0.913 . S
H1228 C1246 0.951 . S
H1229 C1248 0.951 . S
H1230 C1250 0.950 . S
H1231 C1251 0.950 . S
H1232 C1253 0.950 . S
H1233 C1256 0.950 . S
H1234 C1257 0.950 . S
H1235 C1259 0.950 . S
H1236 C1260 0.950 . S
H1237 C1261 0.951 . S
H1238 C1263 0.951 . S
H1239 C1265 0.950 . S
H1240 C1266 0.950 . S
H1241 C1268 0.950 . S
H1242 C1271 0.950 . S
H1243 C1272 0.950 . S
H1244 C1274 0.950 . S
H1245 C1275 0.950 . S
C1246 H1228 0.951 . S
C1246 C1247 1.366 . S
C1246 C1248 1.388 . S
C1247 C1246 1.366 . S
C1247 C1251 1.385 . S
C1248 H1229 0.951 . S
C1248 C1246 1.388 . S
C1248 C1249 1.366 . S
C1249 C1248 1.366 . S
C1249 C1250 1.414 . S
C1249 C1252 1.499 . S
C1250 H1230 0.950 . S
C1250 C1249 1.414 . S
C1250 C1251 1.374 . S
C1251 H1231 0.950 . S
C1251 C1247 1.385 . S
C1251 C1250 1.374 . S
C1252 C1249 1.499 . S
C1252 C1253 1.373 . S
C1252 C1254 1.389 . S
C1253 H1232 0.950 . S
C1253 C1252 1.373 . S
C1253 C1269 1.377 . S
C1254 C1252 1.389 . S
C1254 C1255 1.524 . S
C1254 C1268 1.377 . S
C1255 C1254 1.524 . S
C1255 C1256 1.397 . S
C1255 C1260 1.363 . S
C1256 H1233 0.950 . S
C1256 C1255 1.397 . S
C1256 C1257 1.334 . S
C1257 H1234 0.950 . S
C1257 C1256 1.334 . S
C1257 C1258 1.287 . S
C1258 C1257 1.287 . S
C1258 C1259 1.524 . S
C1258 H1277 0.913 . S
C1259 H1235 0.950 . S
C1259 C1258 1.524 . S
C1259 C1260 1.415 . S
C1260 H1236 0.950 . S
C1260 C1255 1.363 . S
C1260 C1259 1.415 . S
C1261 H1237 0.951 . S
C1261 C1262 1.366 . S
C1261 C1263 1.388 . S
C1262 C1261 1.366 . S
C1262 C1266 1.385 . S
C1263 H1238 0.951 . S
C1263 C1261 1.388 . S
C1263 C1264 1.366 . S
C1264 C1263 1.366 . S
C1264 C1265 1.414 . S
C1264 C1267 1.499 . S
C1265 H1239 0.950 . S
C1265 C1264 1.414 . S
C1265 C1266 1.374 . S
C1266 H1240 0.950 . S
C1266 C1262 1.385 . S
C1266 C1265 1.374 . S
C1267 C1264 1.499 . S
C1267 C1268 1.373 . S
C1267 C1269 1.389 . S
C1268 H1241 0.950 . S
C1268 C1254 1.377 . S
C1268 C1267 1.373 . S
C1269 C1253 1.377 . S
C1269 C1267 1.389 . S
C1269 C1270 1.524 . S
C1270 C1269 1.524 . S
C1270 C1271 1.397 . S
C1270 C1275 1.363 . S
C1271 H1242 0.950 . S
C1271 C1270 1.397 . S
C1271 C1272 1.334 . S
C1272 H1243 0.950 . S
C1272 C1271 1.334 . S
C1272 C1273 1.287 . S
C1273 C1272 1.287 . S
C1273 C1274 1.524 . S
C1273 H1276 0.999 . S
C1274 H1244 0.950 . S
C1274 C1273 1.524 . S
C1274 C1275 1.415 . S
C1275 H1245 0.950 . S
C1275 C1270 1.363 . S
C1275 C1274 1.415 . S
H1276 C1273 0.999 . S
H1277 C1258 0.913 . S
H1278 C1296 0.951 . S
H1279 C1298 0.951 . S
H1280 C1300 0.950 . S
H1281 C1301 0.950 . S
H1282 C1303 0.950 . S
H1283 C1306 0.950 . S
H1284 C1307 0.950 . S
H1285 C1309 0.950 . S
H1286 C1310 0.950 . S
H1287 C1311 0.951 . S
H1288 C1313 0.951 . S
H1289 C1315 0.950 . S
H1290 C1316 0.950 . S
H1291 C1318 0.950 . S
H1292 C1321 0.950 . S
H1293 C1322 0.950 . S
H1294 C1324 0.950 . S
H1295 C1325 0.950 . S
C1296 H1278 0.951 . S
C1296 C1297 1.366 . S
C1296 C1298 1.388 . S
C1297 C1296 1.366 . S
C1297 C1301 1.385 . S
C1298 H1279 0.951 . S
C1298 C1296 1.388 . S
C1298 C1299 1.366 . S
C1299 C1298 1.366 . S
C1299 C1300 1.414 . S
C1299 C1302 1.499 . S
C1300 H1280 0.950 . S
C1300 C1299 1.414 . S
C1300 C1301 1.374 . S
C1301 H1281 0.950 . S
C1301 C1297 1.385 . S
C1301 C1300 1.374 . S
C1302 C1299 1.499 . S
C1302 C1303 1.373 . S
C1302 C1304 1.389 . S
C1303 H1282 0.950 . S
C1303 C1302 1.373 . S
C1303 C1319 1.377 . S
C1304 C1302 1.389 . S
C1304 C1305 1.524 . S
C1304 C1318 1.377 . S
C1305 C1304 1.524 . S
C1305 C1306 1.397 . S
C1305 C1310 1.363 . S
C1306 H1283 0.950 . S
C1306 C1305 1.397 . S
C1306 C1307 1.334 . S
C1307 H1284 0.950 . S
C1307 C1306 1.334 . S
C1307 C1308 1.287 . S
C1308 C1307 1.287 . S
C1308 C1309 1.524 . S
C1308 H1327 0.913 . S
C1309 H1285 0.950 . S
C1309 C1308 1.524 . S
C1309 C1310 1.415 . S
C1310 H1286 0.950 . S
C1310 C1305 1.363 . S
C1310 C1309 1.415 . S
C1311 H1287 0.951 . S
C1311 C1312 1.366 . S
C1311 C1313 1.388 . S
C1312 C1311 1.366 . S
C1312 C1316 1.385 . S
C1313 H1288 0.951 . S
C1313 C1311 1.388 . S
C1313 C1314 1.366 . S
C1314 C1313 1.366 . S
C1314 C1315 1.414 . S
C1314 C1317 1.499 . S
C1315 H1289 0.950 . S
C1315 C1314 1.414 . S
C1315 C1316 1.374 . S
C1316 H1290 0.950 . S
C1316 C1312 1.385 . S
C1316 C1315 1.374 . S
C1317 C1314 1.499 . S
C1317 C1318 1.373 . S
C1317 C1319 1.389 . S
C1318 H1291 0.950 . S
C1318 C1304 1.377 . S
C1318 C1317 1.373 . S
C1319 C1303 1.377 . S
C1319 C1317 1.389 . S
C1319 C1320 1.524 . S
C1320 C1319 1.524 . S
C1320 C1321 1.397 . S
C1320 C1325 1.363 . S
C1321 H1292 0.950 . S
C1321 C1320 1.397 . S
C1321 C1322 1.334 . S
C1322 H1293 0.950 . S
C1322 C1321 1.334 . S
C1322 C1323 1.287 . S
C1323 C1322 1.287 . S
C1323 C1324 1.524 . S
C1323 H1326 0.999 . S
C1324 H1294 0.950 . S
C1324 C1323 1.524 . S
C1324 C1325 1.415 . S
C1325 H1295 0.950 . S
C1325 C1320 1.363 . S
C1325 C1324 1.415 . S
H1326 C1323 0.999 . S
H1327 C1308 0.913 . S
H1328 C1346 0.951 . S
H1329 C1348 0.951 . S
H1330 C1350 0.950 . S
H1331 C1351 0.950 . S
H1332 C1353 0.950 . S
H1333 C1356 0.950 . S
H1334 C1357 0.950 . S
H1335 C1359 0.950 . S
H1336 C1360 0.950 . S
H1337 C1361 0.951 . S
H1338 C1363 0.951 . S
H1339 C1365 0.950 . S
H1340 C1366 0.950 . S
H1341 C1368 0.950 . S
H1342 C1371 0.950 . S
H1343 C1372 0.950 . S
H1344 C1374 0.950 . S
H1345 C1375 0.950 . S
C1346 H1328 0.951 . S
C1346 C1347 1.366 . S
C1346 C1348 1.388 . S
C1347 C1346 1.366 . S
C1347 C1351 1.385 . S
C1348 H1329 0.951 . S
C1348 C1346 1.388 . S
C1348 C1349 1.366 . S
C1349 C1348 1.366 . S
C1349 C1350 1.414 . S
C1349 C1352 1.499 . S
C1350 H1330 0.950 . S
C1350 C1349 1.414 . S
C1350 C1351 1.374 . S
C1351 H1331 0.950 . S
C1351 C1347 1.385 . S
C1351 C1350 1.374 . S
C1352 C1349 1.499 . S
C1352 C1353 1.373 . S
C1352 C1354 1.389 . S
C1353 H1332 0.950 . S
C1353 C1352 1.373 . S
C1353 C1369 1.377 . S
C1354 C1352 1.389 . S
C1354 C1355 1.524 . S
C1354 C1368 1.377 . S
C1355 C1354 1.524 . S
C1355 C1356 1.397 . S
C1355 C1360 1.363 . S
C1356 H1333 0.950 . S
C1356 C1355 1.397 . S
C1356 C1357 1.334 . S
C1357 H1334 0.950 . S
C1357 C1356 1.334 . S
C1357 C1358 1.287 . S
C1358 C1357 1.287 . S
C1358 C1359 1.524 . S
C1358 H1377 0.913 . S
C1359 H1335 0.950 . S
C1359 C1358 1.524 . S
C1359 C1360 1.415 . S
C1360 H1336 0.950 . S
C1360 C1355 1.363 . S
C1360 C1359 1.415 . S
C1361 H1337 0.951 . S
C1361 C1362 1.366 . S
C1361 C1363 1.388 . S
C1362 C1361 1.366 . S
C1362 C1366 1.385 . S
C1363 H1338 0.951 . S
C1363 C1361 1.388 . S
C1363 C1364 1.366 . S
C1364 C1363 1.366 . S
C1364 C1365 1.414 . S
C1364 C1367 1.499 . S
C1365 H1339 0.950 . S
C1365 C1364 1.414 . S
C1365 C1366 1.374 . S
C1366 H1340 0.950 . S
C1366 C1362 1.385 . S
C1366 C1365 1.374 . S
C1367 C1364 1.499 . S
C1367 C1368 1.373 . S
C1367 C1369 1.389 . S
C1368 H1341 0.950 . S
C1368 C1354 1.377 . S
C1368 C1367 1.373 . S
C1369 C1353 1.377 . S
C1369 C1367 1.389 . S
C1369 C1370 1.524 . S
C1370 C1369 1.524 . S
C1370 C1371 1.397 . S
C1370 C1375 1.363 . S
C1371 H1342 0.950 . S
C1371 C1370 1.397 . S
C1371 C1372 1.334 . S
C1372 H1343 0.950 . S
C1372 C1371 1.334 . S
C1372 C1373 1.287 . S
C1373 C1372 1.287 . S
C1373 C1374 1.524 . S
C1373 H1376 0.999 . S
C1374 H1344 0.950 . S
C1374 C1373 1.524 . S
C1374 C1375 1.415 . S
C1375 H1345 0.950 . S
C1375 C1370 1.363 . S
C1375 C1374 1.415 . S
H1376 C1373 0.999 . S
H1377 C1358 0.913 . S
H1378 C1396 0.951 1_554 S
H1379 C1398 0.951 . S
H1380 C1400 0.950 . S
H1381 C1401 0.950 . S
H1382 C1403 0.950 . S
H1383 C1406 0.950 . S
H1384 C1407 0.950 . S
H1385 C1409 0.950 1_554 S
H1386 C1410 0.950 . S
H1387 C1411 0.951 . S
H1388 C1413 0.951 . S
H1389 C1415 0.950 . S
H1390 C1416 0.950 . S
H1391 C1418 0.950 . S
H1392 C1421 0.950 . S
H1393 C1422 0.950 . S
H1394 C1424 0.950 . S
H1395 C1425 0.950 . S
C1396 H1378 0.951 1_556 S
C1396 C1397 1.366 . S
C1396 C1398 1.388 . S
C1397 C1396 1.366 . S
C1397 C1401 1.385 . S
C1398 H1379 0.951 . S
C1398 C1396 1.388 . S
C1398 C1399 1.366 . S
C1399 C1398 1.366 . S
C1399 C1400 1.414 . S
C1399 C1402 1.499 . S
C1400 H1380 0.950 . S
C1400 C1399 1.414 . S
C1400 C1401 1.374 . S
C1401 H1381 0.950 . S
C1401 C1397 1.385 . S
C1401 C1400 1.374 . S
C1402 C1399 1.499 . S
C1402 C1403 1.373 . S
C1402 C1404 1.389 . S
C1403 H1382 0.950 . S
C1403 C1402 1.373 . S
C1403 C1419 1.377 . S
C1404 C1402 1.389 . S
C1404 C1405 1.524 . S
C1404 C1418 1.377 . S
C1405 C1404 1.524 . S
C1405 C1406 1.397 . S
C1405 C1410 1.363 . S
C1406 H1383 0.950 . S
C1406 C1405 1.397 . S
C1406 C1407 1.334 . S
C1407 H1384 0.950 . S
C1407 C1406 1.334 . S
C1407 C1408 1.287 . S
C1408 C1407 1.287 . S
C1408 C1409 1.524 . S
C1408 H1427 0.884 1_556 S
C1409 H1385 0.950 1_556 S
C1409 C1408 1.524 . S
C1409 C1410 1.415 . S
C1410 H1386 0.950 . S
C1410 C1405 1.363 . S
C1410 C1409 1.415 . S
C1411 H1387 0.951 . S
C1411 C1412 1.366 . S
C1411 C1413 1.388 . S
C1412 C1411 1.366 . S
C1412 C1416 1.385 . S
C1413 H1388 0.951 . S
C1413 C1411 1.388 . S
C1413 C1414 1.366 . S
C1414 C1413 1.366 . S
C1414 C1415 1.414 . S
C1414 C1417 1.499 . S
C1415 H1389 0.950 . S
C1415 C1414 1.414 . S
C1415 C1416 1.374 . S
C1416 H1390 0.950 . S
C1416 C1412 1.385 . S
C1416 C1415 1.374 . S
C1417 C1414 1.499 . S
C1417 C1418 1.373 . S
C1417 C1419 1.389 . S
C1418 H1391 0.950 . S
C1418 C1404 1.377 . S
C1418 C1417 1.373 . S
C1419 C1403 1.377 . S
C1419 C1417 1.389 . S
C1419 C1420 1.524 . S
C1420 C1419 1.524 . S
C1420 C1421 1.397 . S
C1420 C1425 1.363 . S
C1421 H1392 0.950 . S
C1421 C1420 1.397 . S
C1421 C1422 1.334 . S
C1422 H1393 0.950 . S
C1422 C1421 1.334 . S
C1422 C1423 1.287 . S
C1423 C1422 1.287 . S
C1423 C1424 1.524 . S
C1423 H1426 0.999 . S
C1424 H1394 0.950 . S
C1424 C1423 1.524 . S
C1424 C1425 1.415 . S
C1425 H1395 0.950 . S
C1425 C1420 1.363 . S
C1425 C1424 1.415 . S
H1426 C1423 0.999 . S
H1427 C1408 0.884 1_554 S
H1428 C1446 0.951 . S
H1429 C1448 0.951 . S
H1430 C1450 0.950 . S
H1431 C1451 0.950 . S
H1432 C1453 0.950 . S
H1433 C1456 0.950 . S
H1434 C1457 0.950 . S
H1435 C1459 0.950 . S
H1436 C1460 0.950 . S
H1437 C1461 0.951 . S
H1438 C1463 0.951 . S
H1439 C1465 0.950 . S
H1440 C1466 0.950 . S
H1441 C1468 0.950 . S
H1442 C1471 0.950 . S
H1443 C1472 0.950 . S
H1444 C1474 0.950 . S
H1445 C1475 0.950 . S
C1446 H1428 0.951 . S
C1446 C1447 1.366 . S
C1446 C1448 1.388 . S
C1447 C1446 1.366 . S
C1447 C1451 1.385 . S
C1448 H1429 0.951 . S
C1448 C1446 1.388 . S
C1448 C1449 1.366 . S
C1449 C1448 1.366 . S
C1449 C1450 1.414 . S
C1449 C1452 1.499 . S
C1450 H1430 0.950 . S
C1450 C1449 1.414 . S
C1450 C1451 1.374 . S
C1451 H1431 0.950 . S
C1451 C1447 1.385 . S
C1451 C1450 1.374 . S
C1452 C1449 1.499 . S
C1452 C1453 1.373 . S
C1452 C1454 1.389 . S
C1453 H1432 0.950 . S
C1453 C1452 1.373 . S
C1453 C1469 1.377 . S
C1454 C1452 1.389 . S
C1454 C1455 1.524 . S
C1454 C1468 1.377 . S
C1455 C1454 1.524 . S
C1455 C1456 1.397 . S
C1455 C1460 1.363 . S
C1456 H1433 0.950 . S
C1456 C1455 1.397 . S
C1456 C1457 1.334 . S
C1457 H1434 0.950 . S
C1457 C1456 1.334 . S
C1457 C1458 1.287 . S
C1458 C1457 1.287 . S
C1458 C1459 1.524 . S
C1458 H1477 0.913 . S
C1459 H1435 0.950 . S
C1459 C1458 1.524 . S
C1459 C1460 1.415 . S
C1460 H1436 0.950 . S
C1460 C1455 1.363 . S
C1460 C1459 1.415 . S
C1461 H1437 0.951 . S
C1461 C1462 1.366 . S
C1461 C1463 1.388 . S
C1462 C1461 1.366 . S
C1462 C1466 1.385 . S
C1463 H1438 0.951 . S
C1463 C1461 1.388 . S
C1463 C1464 1.366 . S
C1464 C1463 1.366 . S
C1464 C1465 1.414 . S
C1464 C1467 1.499 . S
C1465 H1439 0.950 . S
C1465 C1464 1.414 . S
C1465 C1466 1.374 . S
C1466 H1440 0.950 . S
C1466 C1462 1.385 . S
C1466 C1465 1.374 . S
C1467 C1464 1.499 . S
C1467 C1468 1.373 . S
C1467 C1469 1.389 . S
C1468 H1441 0.950 . S
C1468 C1454 1.377 . S
C1468 C1467 1.373 . S
C1469 C1453 1.377 . S
C1469 C1467 1.389 . S
C1469 C1470 1.524 . S
C1470 C1469 1.524 . S
C1470 C1471 1.397 . S
C1470 C1475 1.363 . S
C1471 H1442 0.950 . S
C1471 C1470 1.397 . S
C1471 C1472 1.334 . S
C1472 H1443 0.950 . S
C1472 C1471 1.334 . S
C1472 C1473 1.287 . S
C1473 C1472 1.287 . S
C1473 C1474 1.524 . S
C1473 H1476 0.999 . S
C1474 H1444 0.950 . S
C1474 C1473 1.524 . S
C1474 C1475 1.415 . S
C1475 H1445 0.950 . S
C1475 C1470 1.363 . S
C1475 C1474 1.415 . S
H1476 C1473 0.999 . S
H1477 C1458 0.913 . S
H1478 C1496 0.951 . S
H1479 C1498 0.951 . S
H1480 C1500 0.950 . S
H1481 C1501 0.950 . S
H1482 C1503 0.950 . S
H1483 C1506 0.950 . S
H1484 C1507 0.950 . S
H1485 C1509 0.950 . S
H1486 C1510 0.950 . S
H1487 C1511 0.951 . S
H1488 C1513 0.951 . S
H1489 C1515 0.950 . S
H1490 C1516 0.950 . S
H1491 C1518 0.950 . S
H1492 C1521 0.950 . S
H1493 C1522 0.950 . S
H1494 C1524 0.950 . S
H1495 C1525 0.950 . S
C1496 H1478 0.951 . S
C1496 C1497 1.366 . S
C1496 C1498 1.388 . S
C1497 C1496 1.366 . S
C1497 C1501 1.385 . S
C1498 H1479 0.951 . S
C1498 C1496 1.388 . S
C1498 C1499 1.366 . S
C1499 C1498 1.366 . S
C1499 C1500 1.414 . S
C1499 C1502 1.499 . S
C1500 H1480 0.950 . S
C1500 C1499 1.414 . S
C1500 C1501 1.374 . S
C1501 H1481 0.950 . S
C1501 C1497 1.385 . S
C1501 C1500 1.374 . S
C1502 C1499 1.499 . S
C1502 C1503 1.373 . S
C1502 C1504 1.389 . S
C1503 H1482 0.950 . S
C1503 C1502 1.373 . S
C1503 C1519 1.377 . S
C1504 C1502 1.389 . S
C1504 C1505 1.524 . S
C1504 C1518 1.377 . S
C1505 C1504 1.524 . S
C1505 C1506 1.397 . S
C1505 C1510 1.363 . S
C1506 H1483 0.950 . S
C1506 C1505 1.397 . S
C1506 C1507 1.334 . S
C1507 H1484 0.950 . S
C1507 C1506 1.334 . S
C1507 C1508 1.287 . S
C1508 C1507 1.287 . S
C1508 C1509 1.524 . S
C1508 H1527 0.913 . S
C1509 H1485 0.950 . S
C1509 C1508 1.524 . S
C1509 C1510 1.415 . S
C1510 H1486 0.950 . S
C1510 C1505 1.363 . S
C1510 C1509 1.415 . S
C1511 H1487 0.951 . S
C1511 C1512 1.366 . S
C1511 C1513 1.388 . S
C1512 C1511 1.366 . S
C1512 C1516 1.385 . S
C1513 H1488 0.951 . S
C1513 C1511 1.388 . S
C1513 C1514 1.366 . S
C1514 C1513 1.366 . S
C1514 C1515 1.414 . S
C1514 C1517 1.499 . S
C1515 H1489 0.950 . S
C1515 C1514 1.414 . S
C1515 C1516 1.374 . S
C1516 H1490 0.950 . S
C1516 C1512 1.385 . S
C1516 C1515 1.374 . S
C1517 C1514 1.499 . S
C1517 C1518 1.373 . S
C1517 C1519 1.389 . S
C1518 H1491 0.950 . S
C1518 C1504 1.377 . S
C1518 C1517 1.373 . S
C1519 C1503 1.377 . S
C1519 C1517 1.389 . S
C1519 C1520 1.524 . S
C1520 C1519 1.524 . S
C1520 C1521 1.397 . S
C1520 C1525 1.363 . S
C1521 H1492 0.950 . S
C1521 C1520 1.397 . S
C1521 C1522 1.334 . S
C1522 H1493 0.950 . S
C1522 C1521 1.334 . S
C1522 C1523 1.287 . S
C1523 C1522 1.287 . S
C1523 C1524 1.524 . S
C1523 H1526 0.999 . S
C1524 H1494 0.950 . S
C1524 C1523 1.524 . S
C1524 C1525 1.415 . S
C1525 H1495 0.950 . S
C1525 C1520 1.363 . S
C1525 C1524 1.415 . S
H1526 C1523 0.999 . S
H1527 C1508 0.913 . S
H1528 C1546 0.951 . S
H1529 C1548 0.951 . S
H1530 C1550 0.950 . S
H1531 C1551 0.950 . S
H1532 C1553 0.950 . S
H1533 C1556 0.950 . S
H1534 C1557 0.950 . S
H1535 C1559 0.950 . S
H1536 C1560 0.950 . S
H1537 C1561 0.951 . S
H1538 C1563 0.951 . S
H1539 C1565 0.950 . S
H1540 C1566 0.950 . S
H1541 C1568 0.950 . S
H1542 C1571 0.950 . S
H1543 C1572 0.950 . S
H1544 C1574 0.950 . S
H1545 C1575 0.950 . S
C1546 H1528 0.951 . S
C1546 C1547 1.366 . S
C1546 C1548 1.388 . S
C1547 C1546 1.366 . S
C1547 C1551 1.385 . S
C1548 H1529 0.951 . S
C1548 C1546 1.388 . S
C1548 C1549 1.366 . S
C1549 C1548 1.366 . S
C1549 C1550 1.414 . S
C1549 C1552 1.499 . S
C1550 H1530 0.950 . S
C1550 C1549 1.414 . S
C1550 C1551 1.374 . S
C1551 H1531 0.950 . S
C1551 C1547 1.385 . S
C1551 C1550 1.374 . S
C1552 C1549 1.499 . S
C1552 C1553 1.373 . S
C1552 C1554 1.389 . S
C1553 H1532 0.950 . S
C1553 C1552 1.373 . S
C1553 C1569 1.377 . S
C1554 C1552 1.389 . S
C1554 C1555 1.524 . S
C1554 C1568 1.377 . S
C1555 C1554 1.524 . S
C1555 C1556 1.397 . S
C1555 C1560 1.363 . S
C1556 H1533 0.950 . S
C1556 C1555 1.397 . S
C1556 C1557 1.334 . S
C1557 H1534 0.950 . S
C1557 C1556 1.334 . S
C1557 C1558 1.287 . S
C1558 C1557 1.287 . S
C1558 C1559 1.524 . S
C1558 H1577 0.913 . S
C1559 H1535 0.950 . S
C1559 C1558 1.524 . S
C1559 C1560 1.415 . S
C1560 H1536 0.950 . S
C1560 C1555 1.363 . S
C1560 C1559 1.415 . S
C1561 H1537 0.951 . S
C1561 C1562 1.366 . S
C1561 C1563 1.388 . S
C1562 C1561 1.366 . S
C1562 C1566 1.385 . S
C1563 H1538 0.951 . S
C1563 C1561 1.388 . S
C1563 C1564 1.366 . S
C1564 C1563 1.366 . S
C1564 C1565 1.414 . S
C1564 C1567 1.499 . S
C1565 H1539 0.950 . S
C1565 C1564 1.414 . S
C1565 C1566 1.374 . S
C1566 H1540 0.950 . S
C1566 C1562 1.385 . S
C1566 C1565 1.374 . S
C1567 C1564 1.499 . S
C1567 C1568 1.373 . S
C1567 C1569 1.389 . S
C1568 H1541 0.950 . S
C1568 C1554 1.377 . S
C1568 C1567 1.373 . S
C1569 C1553 1.377 . S
C1569 C1567 1.389 . S
C1569 C1570 1.524 . S
C1570 C1569 1.524 . S
C1570 C1571 1.397 . S
C1570 C1575 1.363 . S
C1571 H1542 0.950 . S
C1571 C1570 1.397 . S
C1571 C1572 1.334 . S
C1572 H1543 0.950 . S
C1572 C1571 1.334 . S
C1572 C1573 1.287 . S
C1573 C1572 1.287 . S
C1573 C1574 1.524 . S
C1573 H1576 0.999 . S
C1574 H1544 0.950 . S
C1574 C1573 1.524 . S
C1574 C1575 1.415 . S
C1575 H1545 0.950 . S
C1575 C1570 1.363 . S
C1575 C1574 1.415 . S
H1576 C1573 0.999 . S
H1577 C1558 0.913 . S
H1578 C1596 0.951 . S
H1579 C1598 0.951 . S
H1580 C1600 0.950 . S
H1581 C1601 0.950 . S
H1582 C1603 0.950 . S
H1583 C1606 0.950 . S
H1584 C1607 0.950 . S
H1585 C1609 0.950 . S
H1586 C1610 0.950 . S
H1587 C1611 0.951 . S
H1588 C1613 0.951 . S
H1589 C1615 0.950 . S
H1590 C1616 0.950 . S
H1591 C1618 0.950 . S
H1592 C1621 0.950 . S
H1593 C1622 0.950 . S
H1594 C1624 0.950 . S
H1595 C1625 0.950 . S
C1596 H1578 0.951 . S
C1596 C1597 1.366 . S
C1596 C1598 1.388 . S
C1597 C1596 1.366 . S
C1597 C1601 1.385 . S
C1598 H1579 0.951 . S
C1598 C1596 1.388 . S
C1598 C1599 1.366 . S
C1599 C1598 1.366 . S
C1599 C1600 1.414 . S
C1599 C1602 1.499 . S
C1600 H1580 0.950 . S
C1600 C1599 1.414 . S
C1600 C1601 1.374 . S
C1601 H1581 0.950 . S
C1601 C1597 1.385 . S
C1601 C1600 1.374 . S
C1602 C1599 1.499 . S
C1602 C1603 1.373 . S
C1602 C1604 1.389 . S
C1603 H1582 0.950 . S
C1603 C1602 1.373 . S
C1603 C1619 1.377 . S
C1604 C1602 1.389 . S
C1604 C1605 1.524 . S
C1604 C1618 1.377 . S
C1605 C1604 1.524 . S
C1605 C1606 1.397 . S
C1605 C1610 1.363 . S
C1606 H1583 0.950 . S
C1606 C1605 1.397 . S
C1606 C1607 1.334 . S
C1607 H1584 0.950 . S
C1607 C1606 1.334 . S
C1607 C1608 1.287 . S
C1608 C1607 1.287 . S
C1608 C1609 1.524 . S
C1608 H1627 0.913 . S
C1609 H1585 0.950 . S
C1609 C1608 1.524 . S
C1609 C1610 1.415 . S
C1610 H1586 0.950 . S
C1610 C1605 1.363 . S
C1610 C1609 1.415 . S
C1611 H1587 0.951 . S
C1611 C1612 1.366 . S
C1611 C1613 1.388 . S
C1612 C1611 1.366 . S
C1612 C1616 1.385 . S
C1613 H1588 0.951 . S
C1613 C1611 1.388 . S
C1613 C1614 1.366 . S
C1614 C1613 1.366 . S
C1614 C1615 1.414 . S
C1614 C1617 1.499 . S
C1615 H1589 0.950 . S
C1615 C1614 1.414 . S
C1615 C1616 1.374 . S
C1616 H1590 0.950 . S
C1616 C1612 1.385 . S
C1616 C1615 1.374 . S
C1617 C1614 1.499 . S
C1617 C1618 1.373 . S
C1617 C1619 1.389 . S
C1618 H1591 0.950 . S
C1618 C1604 1.377 . S
C1618 C1617 1.373 . S
C1619 C1603 1.377 . S
C1619 C1617 1.389 . S
C1619 C1620 1.524 . S
C1620 C1619 1.524 . S
C1620 C1621 1.397 . S
C1620 C1625 1.363 . S
C1621 H1592 0.950 . S
C1621 C1620 1.397 . S
C1621 C1622 1.334 . S
C1622 H1593 0.950 . S
C1622 C1621 1.334 . S
C1622 C1623 1.287 . S
C1623 C1622 1.287 . S
C1623 C1624 1.524 . S
C1623 H1626 0.999 . S
C1624 H1594 0.950 . S
C1624 C1623 1.524 . S
C1624 C1625 1.415 . S
C1625 H1595 0.950 . S
C1625 C1620 1.363 . S
C1625 C1624 1.415 . S
H1626 C1623 0.999 . S
H1627 C1608 0.913 . S
H1628 C1646 0.951 . S
H1629 C1648 0.951 . S
H1630 C1650 0.950 . S
H1631 C1651 0.950 1_556 S
H1632 C1653 0.950 . S
H1633 C1656 0.950 . S
H1634 C1657 0.950 . S
H1635 C1659 0.950 . S
H1636 C1660 0.950 . S
H1637 C1661 0.951 . S
H1638 C1663 0.951 . S
H1639 C1665 0.950 . S
H1640 C1666 0.950 . S
H1641 C1668 0.950 . S
H1642 C1671 0.950 . S
H1643 C1672 0.950 . S
H1644 C1674 0.950 . S
H1645 C1675 0.950 . S
C1646 H1628 0.951 . S
C1646 C1647 1.366 . S
C1646 C1648 1.388 . S
C1647 C1646 1.366 . S
C1647 C1651 1.385 . S
C1648 H1629 0.951 . S
C1648 C1646 1.388 . S
C1648 C1649 1.366 . S
C1649 C1648 1.366 . S
C1649 C1650 1.414 . S
C1649 C1652 1.499 . S
C1650 H1630 0.950 . S
C1650 C1649 1.414 . S
C1650 C1651 1.374 . S
C1651 H1631 0.950 1_554 S
C1651 C1647 1.385 . S
C1651 C1650 1.374 . S
C1652 C1649 1.499 . S
C1652 C1653 1.373 . S
C1652 C1654 1.389 . S
C1653 H1632 0.950 . S
C1653 C1652 1.373 . S
C1653 C1669 1.377 . S
C1654 C1652 1.389 . S
C1654 C1655 1.524 . S
C1654 C1668 1.377 . S
C1655 C1654 1.524 . S
C1655 C1656 1.397 . S
C1655 C1660 1.363 . S
C1656 H1633 0.950 . S
C1656 C1655 1.397 . S
C1656 C1657 1.334 . S
C1657 H1634 0.950 . S
C1657 C1656 1.334 . S
C1657 C1658 1.287 . S
C1658 C1657 1.287 . S
C1658 C1659 1.524 . S
C1658 H1677 0.913 . S
C1659 H1635 0.950 . S
C1659 C1658 1.524 . S
C1659 C1660 1.415 . S
C1660 H1636 0.950 . S
C1660 C1655 1.363 . S
C1660 C1659 1.415 . S
C1661 H1637 0.951 . S
C1661 C1662 1.366 . S
C1661 C1663 1.388 . S
C1662 C1661 1.366 . S
C1662 C1666 1.385 . S
C1663 H1638 0.951 . S
C1663 C1661 1.388 . S
C1663 C1664 1.366 . S
C1664 C1663 1.366 . S
C1664 C1665 1.414 . S
C1664 C1667 1.499 . S
C1665 H1639 0.950 . S
C1665 C1664 1.414 . S
C1665 C1666 1.374 . S
C1666 H1640 0.950 . S
C1666 C1662 1.385 . S
C1666 C1665 1.374 . S
C1667 C1664 1.499 . S
C1667 C1668 1.373 . S
C1667 C1669 1.389 . S
C1668 H1641 0.950 . S
C1668 C1654 1.377 . S
C1668 C1667 1.373 . S
C1669 C1653 1.377 . S
C1669 C1667 1.389 . S
C1669 C1670 1.524 . S
C1670 C1669 1.524 . S
C1670 C1671 1.397 . S
C1670 C1675 1.363 . S
C1671 H1642 0.950 . S
C1671 C1670 1.397 . S
C1671 C1672 1.334 . S
C1672 H1643 0.950 . S
C1672 C1671 1.334 . S
C1672 C1673 1.287 . S
C1673 C1672 1.287 . S
C1673 C1674 1.524 . S
C1673 H1676 0.999 . S
C1674 H1644 0.950 . S
C1674 C1673 1.524 . S
C1674 C1675 1.415 . S
C1675 H1645 0.950 . S
C1675 C1670 1.363 . S
C1675 C1674 1.415 . S
H1676 C1673 0.999 . S
H1677 C1658 0.913 . S
H1678 C1696 0.951 . S
H1679 C1698 0.951 . S
H1680 C1700 0.950 . S
H1681 C1701 0.950 . S
H1682 C1703 0.950 . S
H1683 C1706 0.950 . S
H1684 C1707 0.950 . S
H1685 C1709 0.950 . S
H1686 C1710 0.950 . S
H1687 C1711 0.951 . S
H1688 C1713 0.951 . S
H1689 C1715 0.950 . S
H1690 C1716 0.950 . S
H1691 C1718 0.950 . S
H1692 C1721 0.950 . S
H1693 C1722 0.950 . S
H1694 C1724 0.950 . S
H1695 C1725 0.950 . S
C1696 H1678 0.951 . S
C1696 C1697 1.366 . S
C1696 C1698 1.388 . S
C1697 C1696 1.366 . S
C1697 C1701 1.385 . S
C1698 H1679 0.951 . S
C1698 C1696 1.388 . S
C1698 C1699 1.366 . S
C1699 C1698 1.366 . S
C1699 C1700 1.414 . S
C1699 C1702 1.499 . S
C1700 H1680 0.950 . S
C1700 C1699 1.414 . S
C1700 C1701 1.374 . S
C1701 H1681 0.950 . S
C1701 C1697 1.385 . S
C1701 C1700 1.374 . S
C1702 C1699 1.499 . S
C1702 C1703 1.373 . S
C1702 C1704 1.389 . S
C1703 H1682 0.950 . S
C1703 C1702 1.373 . S
C1703 C1719 1.377 . S
C1704 C1702 1.389 . S
C1704 C1705 1.524 . S
C1704 C1718 1.377 . S
C1705 C1704 1.524 . S
C1705 C1706 1.397 . S
C1705 C1710 1.363 . S
C1706 H1683 0.950 . S
C1706 C1705 1.397 . S
C1706 C1707 1.334 . S
C1707 H1684 0.950 . S
C1707 C1706 1.334 . S
C1707 C1708 1.287 . S
C1708 C1707 1.287 . S
C1708 C1709 1.524 . S
C1708 H1727 0.913 . S
C1709 H1685 0.950 . S
C1709 C1708 1.524 . S
C1709 C1710 1.415 . S
C1710 H1686 0.950 . S
C1710 C1705 1.363 . S
C1710 C1709 1.415 . S
C1711 H1687 0.951 . S
C1711 C1712 1.366 . S
C1711 C1713 1.388 . S
C1712 C1711 1.366 . S
C1712 C1716 1.385 . S
C1713 H1688 0.951 . S
C1713 C1711 1.388 . S
C1713 C1714 1.366 . S
C1714 C1713 1.366 . S
C1714 C1715 1.414 . S
C1714 C1717 1.499 . S
C1715 H1689 0.950 . S
C1715 C1714 1.414 . S
C1715 C1716 1.374 . S
C1716 H1690 0.950 . S
C1716 C1712 1.385 . S
C1716 C1715 1.374 . S
C1717 C1714 1.499 . S
C1717 C1718 1.373 . S
C1717 C1719 1.389 . S
C1718 H1691 0.950 . S
C1718 C1704 1.377 . S
C1718 C1717 1.373 . S
C1719 C1703 1.377 . S
C1719 C1717 1.389 . S
C1719 C1720 1.524 . S
C1720 C1719 1.524 . S
C1720 C1721 1.397 . S
C1720 C1725 1.363 . S
C1721 H1692 0.950 . S
C1721 C1720 1.397 . S
C1721 C1722 1.334 . S
C1722 H1693 0.950 . S
C1722 C1721 1.334 . S
C1722 C1723 1.287 . S
C1723 C1722 1.287 . S
C1723 C1724 1.524 . S
C1723 H1726 0.999 . S
C1724 H1694 0.950 . S
C1724 C1723 1.524 . S
C1724 C1725 1.415 . S
C1725 H1695 0.950 . S
C1725 C1720 1.363 . S
C1725 C1724 1.415 . S
H1726 C1723 0.999 . S
H1727 C1708 0.913 . S
H1728 C1746 0.951 . S
H1729 C1748 0.951 . S
H1730 C1750 0.950 . S
H1731 C1751 0.950 . S
H1732 C1753 0.950 . S
H1733 C1756 0.950 . S
H1734 C1757 0.950 . S
H1735 C1759 0.950 . S
H1736 C1760 0.950 . S
H1737 C1761 0.951 . S
H1738 C1763 0.951 . S
H1739 C1765 0.950 . S
H1740 C1766 0.950 . S
H1741 C1768 0.950 . S
H1742 C1771 0.950 . S
H1743 C1772 0.950 . S
H1744 C1774 0.950 . S
H1745 C1775 0.950 . S
C1746 H1728 0.951 . S
C1746 C1747 1.366 . S
C1746 C1748 1.388 . S
C1747 C1746 1.366 . S
C1747 C1751 1.385 . S
C1748 H1729 0.951 . S
C1748 C1746 1.388 . S
C1748 C1749 1.366 . S
C1749 C1748 1.366 . S
C1749 C1750 1.414 . S
C1749 C1752 1.499 . S
C1750 H1730 0.950 . S
C1750 C1749 1.414 . S
C1750 C1751 1.374 . S
C1751 H1731 0.950 . S
C1751 C1747 1.385 . S
C1751 C1750 1.374 . S
C1752 C1749 1.499 . S
C1752 C1753 1.373 1_455 S
C1752 C1754 1.389 1_545 S
C1753 H1732 0.950 . S
C1753 C1752 1.373 1_655 S
C1753 C1769 1.377 . S
C1754 C1752 1.389 1_565 S
C1754 C1755 1.524 . S
C1754 C1768 1.377 . S
C1755 C1754 1.524 . S
C1755 C1756 1.397 . S
C1755 C1760 1.363 . S
C1756 H1733 0.950 . S
C1756 C1755 1.397 . S
C1756 C1757 1.334 . S
C1757 H1734 0.950 . S
C1757 C1756 1.334 . S
C1757 C1758 1.287 . S
C1758 C1757 1.287 . S
C1758 C1759 1.524 . S
C1758 H1777 0.913 . S
C1759 H1735 0.950 . S
C1759 C1758 1.524 . S
C1759 C1760 1.415 . S
C1760 H1736 0.950 . S
C1760 C1755 1.363 . S
C1760 C1759 1.415 . S
C1761 H1737 0.951 . S
C1761 C1762 1.366 . S
C1761 C1763 1.388 . S
C1762 C1761 1.366 . S
C1762 C1766 1.385 . S
C1763 H1738 0.951 . S
C1763 C1761 1.388 . S
C1763 C1764 1.366 . S
C1764 C1763 1.366 . S
C1764 C1765 1.414 . S
C1764 C1767 1.499 . S
C1765 H1739 0.950 . S
C1765 C1764 1.414 . S
C1765 C1766 1.374 . S
C1766 H1740 0.950 . S
C1766 C1762 1.385 . S
C1766 C1765 1.374 . S
C1767 C1764 1.499 . S
C1767 C1768 1.373 1_655 S
C1767 C1769 1.389 1_565 S
C1768 H1741 0.950 . S
C1768 C1754 1.377 . S
C1768 C1767 1.373 1_455 S
C1769 C1753 1.377 . S
C1769 C1767 1.389 1_545 S
C1769 C1770 1.524 . S
C1770 C1769 1.524 . S
C1770 C1771 1.397 . S
C1770 C1775 1.363 . S
C1771 H1742 0.950 . S
C1771 C1770 1.397 . S
C1771 C1772 1.334 . S
C1772 H1743 0.950 . S
C1772 C1771 1.334 . S
C1772 C1773 1.287 . S
C1773 C1772 1.287 . S
C1773 C1774 1.524 . S
C1773 H1776 0.999 . S
C1774 H1744 0.950 . S
C1774 C1773 1.524 . S
C1774 C1775 1.415 . S
C1775 H1745 0.950 . S
C1775 C1770 1.363 . S
C1775 C1774 1.415 . S
H1776 C1773 0.999 . S
H1777 C1758 0.913 . S
H1778 C1796 0.951 . S
H1779 C1798 0.951 . S
H1780 C1800 0.950 . S
H1781 C1801 0.950 . S
H1782 C1803 0.950 . S
H1783 C1806 0.950 1_655 S
H1784 C1807 0.952 . S
H1785 C1809 0.950 . S
H1786 C1810 0.950 . S
H1787 C1811 0.951 . S
H1788 C1813 0.951 . S
H1789 C1815 0.950 . S
H1790 C1816 0.950 . S
H1791 C1818 0.950 . S
H1792 C1821 0.950 1_455 S
H1793 C1822 0.952 . S
H1794 C1824 0.950 . S
H1795 C1825 0.950 . S
C1796 H1778 0.951 . S
C1796 C1797 1.366 . S
C1796 C1798 1.388 . S
C1797 C1796 1.366 . S
C1797 C1801 1.385 . S
C1798 H1779 0.951 . S
C1798 C1796 1.388 . S
C1798 C1799 1.366 . S
C1799 C1798 1.366 . S
C1799 C1800 1.414 . S
C1799 C1802 1.499 . S
C1800 H1780 0.950 . S
C1800 C1799 1.414 . S
C1800 C1801 1.374 . S
C1801 H1781 0.950 . S
C1801 C1797 1.385 . S
C1801 C1800 1.374 . S
C1802 C1799 1.499 . S
C1802 C1803 1.373 . S
C1802 C1804 1.389 . S
C1803 H1782 0.950 . S
C1803 C1802 1.373 . S
C1803 C1819 1.377 1_455 S
C1804 C1802 1.389 . S
C1804 C1805 1.524 . S
C1804 C1818 1.377 1_455 S
C1805 C1804 1.524 . S
C1805 C1806 1.396 . S
C1805 C1810 1.363 . S
C1806 H1783 0.950 1_455 S
C1806 C1805 1.396 . S
C1806 C1807 1.334 1_455 S
C1807 H1784 0.952 . S
C1807 C1806 1.334 1_655 S
C1807 C1808 1.286 . S
C1808 C1807 1.286 . S
C1808 C1809 1.525 1_655 S
C1808 H1827 0.913 1_655 S
C1809 H1785 0.950 . S
C1809 C1808 1.525 1_455 S
C1809 C1810 1.415 . S
C1810 H1786 0.950 . S
C1810 C1805 1.363 . S
C1810 C1809 1.415 . S
C1811 H1787 0.951 . S
C1811 C1812 1.366 . S
C1811 C1813 1.388 . S
C1812 C1811 1.366 . S
C1812 C1816 1.385 . S
C1813 H1788 0.951 . S
C1813 C1811 1.388 . S
C1813 C1814 1.366 . S
C1814 C1813 1.366 . S
C1814 C1815 1.414 . S
C1814 C1817 1.499 . S
C1815 H1789 0.950 . S
C1815 C1814 1.414 . S
C1815 C1816 1.374 . S
C1816 H1790 0.950 . S
C1816 C1812 1.385 . S
C1816 C1815 1.374 . S
C1817 C1814 1.499 . S
C1817 C1818 1.373 . S
C1817 C1819 1.389 . S
C1818 H1791 0.950 . S
C1818 C1804 1.377 1_655 S
C1818 C1817 1.373 . S
C1819 C1803 1.377 1_655 S
C1819 C1817 1.389 . S
C1819 C1820 1.524 . S
C1820 C1819 1.524 . S
C1820 C1821 1.396 . S
C1820 C1825 1.363 . S
C1821 H1792 0.950 1_655 S
C1821 C1820 1.396 . S
C1821 C1822 1.334 1_655 S
C1822 H1793 0.952 . S
C1822 C1821 1.334 1_455 S
C1822 C1823 1.286 . S
C1823 C1822 1.286 . S
C1823 C1824 1.525 1_455 S
C1823 H1826 0.999 . S
C1824 H1794 0.950 . S
C1824 C1823 1.525 1_655 S
C1824 C1825 1.415 . S
C1825 H1795 0.950 . S
C1825 C1820 1.363 . S
C1825 C1824 1.415 . S
H1826 C1823 0.999 . S
H1827 C1808 0.913 1_455 S
H1828 C1846 0.951 . S
H1829 C1848 0.951 . S
H1830 C1850 0.950 . S
H1831 C1851 0.950 . S
H1832 C1853 0.950 . S
H1833 C1856 0.950 . S
H1834 C1857 0.950 . S
H1835 C1859 0.950 . S
H1836 C1860 0.950 . S
H1837 C1861 0.951 . S
H1838 C1863 0.951 . S
H1839 C1865 0.950 . S
H1840 C1866 0.950 . S
H1841 C1868 0.950 . S
H1842 C1871 0.950 . S
H1843 C1872 0.950 . S
H1844 C1874 0.950 . S
H1845 C1875 0.950 . S
C1846 H1828 0.951 . S
C1846 C1847 1.366 . S
C1846 C1848 1.388 . S
C1847 C1846 1.366 . S
C1847 C1851 1.385 . S
C1848 H1829 0.951 . S
C1848 C1846 1.388 . S
C1848 C1849 1.366 . S
C1849 C1848 1.366 . S
C1849 C1850 1.414 . S
C1849 C1852 1.499 . S
C1850 H1830 0.950 . S
C1850 C1849 1.414 . S
C1850 C1851 1.374 . S
C1851 H1831 0.950 . S
C1851 C1847 1.385 . S
C1851 C1850 1.374 . S
C1852 C1849 1.499 . S
C1852 C1853 1.373 . S
C1852 C1854 1.389 . S
C1853 H1832 0.950 . S
C1853 C1852 1.373 . S
C1853 C1869 1.377 . S
C1854 C1852 1.389 . S
C1854 C1855 1.524 . S
C1854 C1868 1.377 . S
C1855 C1854 1.524 . S
C1855 C1856 1.397 . S
C1855 C1860 1.363 . S
C1856 H1833 0.950 . S
C1856 C1855 1.397 . S
C1856 C1857 1.334 . S
C1857 H1834 0.950 . S
C1857 C1856 1.334 . S
C1857 C1858 1.287 . S
C1858 C1857 1.287 . S
C1858 C1859 1.524 . S
C1858 H1877 0.913 . S
C1859 H1835 0.950 . S
C1859 C1858 1.524 . S
C1859 C1860 1.415 . S
C1860 H1836 0.950 . S
C1860 C1855 1.363 . S
C1860 C1859 1.415 . S
C1861 H1837 0.951 . S
C1861 C1862 1.366 . S
C1861 C1863 1.388 . S
C1862 C1861 1.366 . S
C1862 C1866 1.385 . S
C1863 H1838 0.951 . S
C1863 C1861 1.388 . S
C1863 C1864 1.366 . S
C1864 C1863 1.366 . S
C1864 C1865 1.414 . S
C1864 C1867 1.499 . S
C1865 H1839 0.950 . S
C1865 C1864 1.414 . S
C1865 C1866 1.374 . S
C1866 H1840 0.950 . S
C1866 C1862 1.385 . S
C1866 C1865 1.374 . S
C1867 C1864 1.499 . S
C1867 C1868 1.373 . S
C1867 C1869 1.389 . S
C1868 H1841 0.950 . S
C1868 C1854 1.377 . S
C1868 C1867 1.373 . S
C1869 C1853 1.377 . S
C1869 C1867 1.389 . S
C1869 C1870 1.524 . S
C1870 C1869 1.524 . S
C1870 C1871 1.397 . S
C1870 C1875 1.363 . S
C1871 H1842 0.950 . S
C1871 C1870 1.397 . S
C1871 C1872 1.334 . S
C1872 H1843 0.950 . S
C1872 C1871 1.334 . S
C1872 C1873 1.287 . S
C1873 C1872 1.287 . S
C1873 C1874 1.524 . S
C1873 H1876 0.999 . S
C1874 H1844 0.950 . S
C1874 C1873 1.524 . S
C1874 C1875 1.415 . S
C1875 H1845 0.950 . S
C1875 C1870 1.363 . S
C1875 C1874 1.415 . S
H1876 C1873 0.999 . S
H1877 C1858 0.913 . S
H1878 C1896 0.951 . S
H1879 C1898 0.951 . S
H1880 C1900 0.950 . S
H1881 C1901 0.950 . S
H1882 C1903 0.950 . S
H1883 C1906 0.950 . S
H1884 C1907 0.950 . S
H1885 C1909 0.950 . S
H1886 C1910 0.950 1_565 S
H1887 C1911 0.951 . S
H1888 C1913 0.951 . S
H1889 C1915 0.950 . S
H1890 C1916 0.950 . S
H1891 C1918 0.950 . S
H1892 C1921 0.950 . S
H1893 C1922 0.950 . S
H1894 C1924 0.950 . S
H1895 C1925 0.950 1_545 S
C1896 H1878 0.951 . S
C1896 C1897 1.366 . S
C1896 C1898 1.388 . S
C1897 C1896 1.366 . S
C1897 C1901 1.385 . S
C1898 H1879 0.951 . S
C1898 C1896 1.388 . S
C1898 C1899 1.366 . S
C1899 C1898 1.366 . S
C1899 C1900 1.414 . S
C1899 C1902 1.499 . S
C1900 H1880 0.950 . S
C1900 C1899 1.414 . S
C1900 C1901 1.374 . S
C1901 H1881 0.950 . S
C1901 C1897 1.385 . S
C1901 C1900 1.374 . S
C1902 C1899 1.499 . S
C1902 C1903 1.373 . S
C1902 C1904 1.389 . S
C1903 H1882 0.950 . S
C1903 C1902 1.373 . S
C1903 C1919 1.377 1_545 S
C1904 C1902 1.389 . S
C1904 C1905 1.524 . S
C1904 C1918 1.377 1_545 S
C1905 C1904 1.524 . S
C1905 C1906 1.397 . S
C1905 C1910 1.363 . S
C1906 H1883 0.950 . S
C1906 C1905 1.397 . S
C1906 C1907 1.334 . S
C1907 H1884 0.950 . S
C1907 C1906 1.334 . S
C1907 C1908 1.287 . S
C1908 C1907 1.287 . S
C1908 C1909 1.524 . S
C1908 H1927 0.913 . S
C1909 H1885 0.950 . S
C1909 C1908 1.524 . S
C1909 C1910 1.415 . S
C1910 H1886 0.950 1_545 S
C1910 C1905 1.363 . S
C1910 C1909 1.415 . S
C1911 H1887 0.951 . S
C1911 C1912 1.366 . S
C1911 C1913 1.388 . S
C1912 C1911 1.366 . S
C1912 C1916 1.385 . S
C1913 H1888 0.951 . S
C1913 C1911 1.388 . S
C1913 C1914 1.366 . S
C1914 C1913 1.366 . S
C1914 C1915 1.414 . S
C1914 C1917 1.499 . S
C1915 H1889 0.950 . S
C1915 C1914 1.414 . S
C1915 C1916 1.374 . S
C1916 H1890 0.950 . S
C1916 C1912 1.385 . S
C1916 C1915 1.374 . S
C1917 C1914 1.499 . S
C1917 C1918 1.373 . S
C1917 C1919 1.389 . S
C1918 H1891 0.950 . S
C1918 C1904 1.377 1_565 S
C1918 C1917 1.373 . S
C1919 C1903 1.377 1_565 S
C1919 C1917 1.389 . S
C1919 C1920 1.524 . S
C1920 C1919 1.524 . S
C1920 C1921 1.397 . S
C1920 C1925 1.363 1_554 S
C1921 H1892 0.950 . S
C1921 C1920 1.397 . S
C1921 C1922 1.334 1_554 S
C1922 H1893 0.950 . S
C1922 C1921 1.334 1_556 S
C1922 C1923 1.287 . S
C1923 C1922 1.287 . S
C1923 C1924 1.524 . S
C1923 H1926 0.999 . S
C1924 H1894 0.950 . S
C1924 C1923 1.524 . S
C1924 C1925 1.415 . S
C1925 H1895 0.950 1_565 S
C1925 C1920 1.363 1_556 S
C1925 C1924 1.415 . S
H1926 C1923 0.999 . S
H1927 C1908 0.913 . S
H1928 C1946 0.951 . S
H1929 C1948 0.951 . S
H1930 C1950 0.950 . S
H1931 C1951 0.950 . S
H1932 C1953 0.950 . S
H1933 C1956 0.993 . S
H1934 C1957 0.950 1_455 S
H1935 C1959 0.950 . S
H1936 C1960 0.950 . S
H1937 C1961 0.951 . S
H1938 C1963 0.951 . S
H1939 C1965 0.950 . S
H1940 C1966 0.950 . S
H1941 C1968 0.950 . S
H1942 C1971 0.993 . S
H1943 C1972 0.950 1_655 S
H1944 C1974 0.950 . S
H1945 C1975 0.950 . S
C1946 H1928 0.951 . S
C1946 C1947 1.366 . S
C1946 C1948 1.388 . S
C1947 C1946 1.366 . S
C1947 C1951 1.385 . S
C1948 H1929 0.951 . S
C1948 C1946 1.388 . S
C1948 C1949 1.366 . S
C1949 C1948 1.366 . S
C1949 C1950 1.414 . S
C1949 C1952 1.499 . S
C1950 H1930 0.950 . S
C1950 C1949 1.414 . S
C1950 C1951 1.374 . S
C1951 H1931 0.950 . S
C1951 C1947 1.385 . S
C1951 C1950 1.374 . S
C1952 C1949 1.499 . S
C1952 C1953 1.373 . S
C1952 C1954 1.389 1_455 S
C1953 H1932 0.950 . S
C1953 C1952 1.373 . S
C1953 C1969 1.377 . S
C1954 C1952 1.389 1_655 S
C1954 C1955 1.524 . S
C1954 C1968 1.377 . S
C1955 C1954 1.524 . S
C1955 C1956 1.368 1_655 S
C1955 C1960 1.363 . S
C1956 H1933 0.993 . S
C1956 C1955 1.368 1_455 S
C1956 C1957 1.323 1_455 S
C1957 H1934 0.950 1_655 S
C1957 C1956 1.323 1_655 S
C1957 C1958 1.287 . S
C1958 C1957 1.287 . S
C1958 C1959 1.524 . S
C1958 H1977 0.913 . S
C1959 H1935 0.950 . S
C1959 C1958 1.524 . S
C1959 C1960 1.415 . S
C1960 H1936 0.950 . S
C1960 C1955 1.363 . S
C1960 C1959 1.415 . S
C1961 H1937 0.951 . S
C1961 C1962 1.366 . S
C1961 C1963 1.388 . S
C1962 C1961 1.366 . S
C1962 C1966 1.385 . S
C1963 H1938 0.951 . S
C1963 C1961 1.388 . S
C1963 C1964 1.366 . S
C1964 C1963 1.366 . S
C1964 C1965 1.414 . S
C1964 C1967 1.499 . S
C1965 H1939 0.950 . S
C1965 C1964 1.414 . S
C1965 C1966 1.374 . S
C1966 H1940 0.950 . S
C1966 C1962 1.385 . S
C1966 C1965 1.374 . S
C1967 C1964 1.499 . S
C1967 C1968 1.373 . S
C1967 C1969 1.389 1_655 S
C1968 H1941 0.950 . S
C1968 C1954 1.377 . S
C1968 C1967 1.373 . S
C1969 C1953 1.377 . S
C1969 C1967 1.389 1_455 S
C1969 C1970 1.524 . S
C1970 C1969 1.524 . S
C1970 C1971 1.368 1_455 S
C1970 C1975 1.363 . S
C1971 H1942 0.993 . S
C1971 C1970 1.368 1_655 S
C1971 C1972 1.323 1_656 S
C1972 H1943 0.950 1_455 S
C1972 C1971 1.323 1_454 S
C1972 C1973 1.294 . S
C1973 C1972 1.294 . S
C1973 C1974 1.497 1_554 S
C1973 H1976 1.018 . S
C1974 H1944 0.950 . S
C1974 C1973 1.497 1_556 S
C1974 C1975 1.415 . S
C1975 H1945 0.950 . S
C1975 C1970 1.363 . S
C1975 C1974 1.415 . S
H1976 C1973 1.018 . S
H1977 C1958 0.913 . S
H1978 C1996 0.951 . S
H1979 C1998 0.951 . S
H1980 C2000 0.950 . S
H1981 C2001 0.950 . S
H1982 C2003 0.950 . S
H1983 C2006 0.950 . S
H1984 C2007 0.950 . S
H1985 C2009 0.950 . S
H1986 C2010 0.950 . S
H1987 C2011 0.951 . S
H1988 C2013 0.951 . S
H1989 C2015 0.950 . S
H1990 C2016 0.950 . S
H1991 C2018 0.950 . S
H1992 C2021 0.950 . S
H1993 C2022 0.950 . S
H1994 C2024 0.950 . S
H1995 C2025 0.950 . S
C1996 H1978 0.951 . S
C1996 C1997 1.366 . S
C1996 C1998 1.388 . S
C1997 C1996 1.366 . S
C1997 C2001 1.385 . S
C1998 H1979 0.951 . S
C1998 C1996 1.388 . S
C1998 C1999 1.366 . S
C1999 C1998 1.366 . S
C1999 C2000 1.414 . S
C1999 C2002 1.499 . S
C2000 H1980 0.950 . S
C2000 C1999 1.414 . S
C2000 C2001 1.374 . S
C2001 H1981 0.950 . S
C2001 C1997 1.385 . S
C2001 C2000 1.374 . S
C2002 C1999 1.499 . S
C2002 C2003 1.373 . S
C2002 C2004 1.389 . S
C2003 H1982 0.950 . S
C2003 C2002 1.373 . S
C2003 C2019 1.377 . S
C2004 C2002 1.389 . S
C2004 C2005 1.524 . S
C2004 C2018 1.377 . S
C2005 C2004 1.524 . S
C2005 C2006 1.397 . S
C2005 C2010 1.363 . S
C2006 H1983 0.950 . S
C2006 C2005 1.397 . S
C2006 C2007 1.334 . S
C2007 H1984 0.950 . S
C2007 C2006 1.334 . S
C2007 C2008 1.287 . S
C2008 C2007 1.287 . S
C2008 C2009 1.524 . S
C2008 H2027 0.913 . S
C2009 H1985 0.950 . S
C2009 C2008 1.524 . S
C2009 C2010 1.415 . S
C2010 H1986 0.950 . S
C2010 C2005 1.363 . S
C2010 C2009 1.415 . S
C2011 H1987 0.951 . S
C2011 C2012 1.366 . S
C2011 C2013 1.388 . S
C2012 C2011 1.366 . S
C2012 C2016 1.385 . S
C2013 H1988 0.951 . S
C2013 C2011 1.388 . S
C2013 C2014 1.366 . S
C2014 C2013 1.366 . S
C2014 C2015 1.414 . S
C2014 C2017 1.499 . S
C2015 H1989 0.950 . S
C2015 C2014 1.414 . S
C2015 C2016 1.374 . S
C2016 H1990 0.950 . S
C2016 C2012 1.385 . S
C2016 C2015 1.374 . S
C2017 C2014 1.499 . S
C2017 C2018 1.373 . S
C2017 C2019 1.389 . S
C2018 H1991 0.950 . S
C2018 C2004 1.377 . S
C2018 C2017 1.373 . S
C2019 C2003 1.377 . S
C2019 C2017 1.389 . S
C2019 C2020 1.524 . S
C2020 C2019 1.524 . S
C2020 C2021 1.397 . S
C2020 C2025 1.363 . S
C2021 H1992 0.950 . S
C2021 C2020 1.397 . S
C2021 C2022 1.334 . S
C2022 H1993 0.950 . S
C2022 C2021 1.334 . S
C2022 C2023 1.287 . S
C2023 C2022 1.287 . S
C2023 C2024 1.524 . S
C2023 H2026 0.999 . S
C2024 H1994 0.950 . S
C2024 C2023 1.524 . S
C2024 C2025 1.415 . S
C2025 H1995 0.950 . S
C2025 C2020 1.363 . S
C2025 C2024 1.415 . S
H2026 C2023 0.999 . S
H2027 C2008 0.913 . S
H2028 C2046 0.951 . S
H2029 C2048 0.951 . S
H2030 C2050 0.950 . S
H2031 C2051 0.950 . S
H2032 C2053 0.950 . S
H2033 C2056 0.950 . S
H2034 C2057 0.950 . S
H2035 C2059 0.950 . S
H2036 C2060 0.950 1_545 S
H2037 C2061 0.951 . S
H2038 C2063 0.951 . S
H2039 C2065 0.950 . S
H2040 C2066 0.950 . S
H2041 C2068 0.950 . S
H2042 C2071 0.950 . S
H2043 C2072 0.950 . S
H2044 C2074 0.950 . S
H2045 C2075 0.950 1_565 S
C2046 H2028 0.951 . S
C2046 C2047 1.366 . S
C2046 C2048 1.388 . S
C2047 C2046 1.366 . S
C2047 C2051 1.385 . S
C2048 H2029 0.951 . S
C2048 C2046 1.388 . S
C2048 C2049 1.366 . S
C2049 C2048 1.366 . S
C2049 C2050 1.414 . S
C2049 C2052 1.499 . S
C2050 H2030 0.950 . S
C2050 C2049 1.414 . S
C2050 C2051 1.374 . S
C2051 H2031 0.950 . S
C2051 C2047 1.385 . S
C2051 C2050 1.374 . S
C2052 C2049 1.499 . S
C2052 C2053 1.373 . S
C2052 C2054 1.389 . S
C2053 H2032 0.950 . S
C2053 C2052 1.373 . S
C2053 C2069 1.377 1_565 S
C2054 C2052 1.389 . S
C2054 C2055 1.524 . S
C2054 C2068 1.377 1_565 S
C2055 C2054 1.524 . S
C2055 C2056 1.397 . S
C2055 C2060 1.363 . S
C2056 H2033 0.950 . S
C2056 C2055 1.397 . S
C2056 C2057 1.334 . S
C2057 H2034 0.950 . S
C2057 C2056 1.334 . S
C2057 C2058 1.287 . S
C2058 C2057 1.287 . S
C2058 C2059 1.524 . S
C2058 H2077 0.913 . S
C2059 H2035 0.950 . S
C2059 C2058 1.524 . S
C2059 C2060 1.415 . S
C2060 H2036 0.950 1_565 S
C2060 C2055 1.363 . S
C2060 C2059 1.415 . S
C2061 H2037 0.951 . S
C2061 C2062 1.366 . S
C2061 C2063 1.388 . S
C2062 C2061 1.366 . S
C2062 C2066 1.385 . S
C2063 H2038 0.951 . S
C2063 C2061 1.388 . S
C2063 C2064 1.366 . S
C2064 C2063 1.366 . S
C2064 C2065 1.414 . S
C2064 C2067 1.499 . S
C2065 H2039 0.950 . S
C2065 C2064 1.414 . S
C2065 C2066 1.374 . S
C2066 H2040 0.950 . S
C2066 C2062 1.385 . S
C2066 C2065 1.374 . S
C2067 C2064 1.499 . S
C2067 C2068 1.373 . S
C2067 C2069 1.389 . S
C2068 H2041 0.950 . S
C2068 C2054 1.377 1_545 S
C2068 C2067 1.373 . S
C2069 C2053 1.377 1_545 S
C2069 C2067 1.389 . S
C2069 C2070 1.524 . S
C2070 C2069 1.524 . S
C2070 C2071 1.397 . S
C2070 C2075 1.363 . S
C2071 H2042 0.950 . S
C2071 C2070 1.397 . S
C2071 C2072 1.334 . S
C2072 H2043 0.950 . S
C2072 C2071 1.334 . S
C2072 C2073 1.287 . S
C2073 C2072 1.287 . S
C2073 C2074 1.524 . S
C2073 H2076 0.999 . S
C2074 H2044 0.950 . S
C2074 C2073 1.524 . S
C2074 C2075 1.415 . S
C2075 H2045 0.950 1_545 S
C2075 C2070 1.363 . S
C2075 C2074 1.415 . S
H2076 C2073 0.999 . S
H2077 C2058 0.913 . S
H2078 C2096 0.951 . S
H2079 C2098 0.951 . S
H2080 C2100 0.950 . S
H2081 C2101 0.950 . S
H2082 C2103 0.950 . S
H2083 C2106 0.950 . S
H2084 C2107 0.950 . S
H2085 C2109 0.950 . S
H2086 C2110 0.950 . S
H2087 C2111 0.951 . S
H2088 C2113 0.951 . S
H2089 C2115 0.950 . S
H2090 C2116 0.950 . S
H2091 C2118 0.950 . S
H2092 C2121 0.950 . S
H2093 C2122 0.950 . S
H2094 C2124 0.950 . S
H2095 C2125 0.950 . S
C2096 H2078 0.951 . S
C2096 C2097 1.366 . S
C2096 C2098 1.388 . S
C2097 C2096 1.366 . S
C2097 C2101 1.385 . S
C2098 H2079 0.951 . S
C2098 C2096 1.388 . S
C2098 C2099 1.366 . S
C2099 C2098 1.366 . S
C2099 C2100 1.414 . S
C2099 C2102 1.499 . S
C2100 H2080 0.950 . S
C2100 C2099 1.414 . S
C2100 C2101 1.374 . S
C2101 H2081 0.950 . S
C2101 C2097 1.385 . S
C2101 C2100 1.374 . S
C2102 C2099 1.499 . S
C2102 C2103 1.373 1_545 S
C2102 C2104 1.389 1_455 S
C2103 H2082 0.950 . S
C2103 C2102 1.373 1_565 S
C2103 C2119 1.377 . S
C2104 C2102 1.389 1_655 S
C2104 C2105 1.524 . S
C2104 C2118 1.377 . S
C2105 C2104 1.524 . S
C2105 C2106 1.397 1_655 S
C2105 C2110 1.363 . S
C2106 H2083 0.950 . S
C2106 C2105 1.397 1_455 S
C2106 C2107 1.334 . S
C2107 H2084 0.950 . S
C2107 C2106 1.334 . S
C2107 C2108 1.287 1_455 S
C2108 C2107 1.287 1_655 S
C2108 C2109 1.524 . S
C2108 H2127 0.913 . S
C2109 H2085 0.950 . S
C2109 C2108 1.524 . S
C2109 C2110 1.415 . S
C2110 H2086 0.950 . S
C2110 C2105 1.363 . S
C2110 C2109 1.415 . S
C2111 H2087 0.951 . S
C2111 C2112 1.366 . S
C2111 C2113 1.388 . S
C2112 C2111 1.366 . S
C2112 C2116 1.385 . S
C2113 H2088 0.951 . S
C2113 C2111 1.388 . S
C2113 C2114 1.366 . S
C2114 C2113 1.366 . S
C2114 C2115 1.414 . S
C2114 C2117 1.499 . S
C2115 H2089 0.950 . S
C2115 C2114 1.414 . S
C2115 C2116 1.374 . S
C2116 H2090 0.950 . S
C2116 C2112 1.385 . S
C2116 C2115 1.374 . S
C2117 C2114 1.499 . S
C2117 C2118 1.373 1_565 S
C2117 C2119 1.389 1_655 S
C2118 H2091 0.950 . S
C2118 C2104 1.377 . S
C2118 C2117 1.373 1_545 S
C2119 C2103 1.377 . S
C2119 C2117 1.389 1_455 S
C2119 C2120 1.524 . S
C2120 C2119 1.524 . S
C2120 C2121 1.397 1_455 S
C2120 C2125 1.363 . S
C2121 H2092 0.950 . S
C2121 C2120 1.397 1_655 S
C2121 C2122 1.334 . S
C2122 H2093 0.950 . S
C2122 C2121 1.334 . S
C2122 C2123 1.287 1_655 S
C2123 C2122 1.287 1_455 S
C2123 C2124 1.524 . S
C2123 H2126 0.999 . S
C2124 H2094 0.950 . S
C2124 C2123 1.524 . S
C2124 C2125 1.415 . S
C2125 H2095 0.950 . S
C2125 C2120 1.363 . S
C2125 C2124 1.415 . S
H2126 C2123 0.999 . S
H2127 C2108 0.913 . S
H2128 C2146 0.951 . S
H2129 C2148 0.951 . S
H2130 C2150 0.950 . S
H2131 C2151 0.950 . S
H2132 C2153 0.950 . S
H2133 C2156 0.950 . S
H2134 C2157 0.950 . S
H2135 C2159 0.950 . S
H2136 C2160 0.950 . S
H2137 C2161 0.951 . S
H2138 C2163 0.951 . S
H2139 C2165 0.950 . S
H2140 C2166 0.950 . S
H2141 C2168 0.950 . S
H2142 C2171 0.950 . S
H2143 C2172 0.950 . S
H2144 C2174 0.950 . S
H2145 C2175 0.950 . S
C2146 H2128 0.951 . S
C2146 C2147 1.366 . S
C2146 C2148 1.388 . S
C2147 C2146 1.366 . S
C2147 C2151 1.385 . S
C2148 H2129 0.951 . S
C2148 C2146 1.388 . S
C2148 C2149 1.366 . S
C2149 C2148 1.366 . S
C2149 C2150 1.414 . S
C2149 C2152 1.499 . S
C2150 H2130 0.950 . S
C2150 C2149 1.414 . S
C2150 C2151 1.374 . S
C2151 H2131 0.950 . S
C2151 C2147 1.385 . S
C2151 C2150 1.374 . S
C2152 C2149 1.499 . S
C2152 C2153 1.373 . S
C2152 C2154 1.389 . S
C2153 H2132 0.950 . S
C2153 C2152 1.373 . S
C2153 C2169 1.377 . S
C2154 C2152 1.389 . S
C2154 C2155 1.524 . S
C2154 C2168 1.377 . S
C2155 C2154 1.524 . S
C2155 C2156 1.397 . S
C2155 C2160 1.363 . S
C2156 H2133 0.950 . S
C2156 C2155 1.397 . S
C2156 C2157 1.334 . S
C2157 H2134 0.950 . S
C2157 C2156 1.334 . S
C2157 C2158 1.287 . S
C2158 C2157 1.287 . S
C2158 C2159 1.524 . S
C2158 H2177 0.913 . S
C2159 H2135 0.950 . S
C2159 C2158 1.524 . S
C2159 C2160 1.415 . S
C2160 H2136 0.950 . S
C2160 C2155 1.363 . S
C2160 C2159 1.415 . S
C2161 H2137 0.951 . S
C2161 C2162 1.366 . S
C2161 C2163 1.388 . S
C2162 C2161 1.366 . S
C2162 C2166 1.385 . S
C2163 H2138 0.951 . S
C2163 C2161 1.388 . S
C2163 C2164 1.366 . S
C2164 C2163 1.366 . S
C2164 C2165 1.414 . S
C2164 C2167 1.499 . S
C2165 H2139 0.950 . S
C2165 C2164 1.414 . S
C2165 C2166 1.374 . S
C2166 H2140 0.950 . S
C2166 C2162 1.385 . S
C2166 C2165 1.374 . S
C2167 C2164 1.499 . S
C2167 C2168 1.373 . S
C2167 C2169 1.389 . S
C2168 H2141 0.950 . S
C2168 C2154 1.377 . S
C2168 C2167 1.373 . S
C2169 C2153 1.377 . S
C2169 C2167 1.389 . S
C2169 C2170 1.524 . S
C2170 C2169 1.524 . S
C2170 C2171 1.397 . S
C2170 C2175 1.363 . S
C2171 H2142 0.950 . S
C2171 C2170 1.397 . S
C2171 C2172 1.334 . S
C2172 H2143 0.950 . S
C2172 C2171 1.334 . S
C2172 C2173 1.287 . S
C2173 C2172 1.287 . S
C2173 C2174 1.524 . S
C2173 H2176 0.999 . S
C2174 H2144 0.950 . S
C2174 C2173 1.524 . S
C2174 C2175 1.415 . S
C2175 H2145 0.950 . S
C2175 C2170 1.363 . S
C2175 C2174 1.415 . S
H2176 C2173 0.999 . S
H2177 C2158 0.913 . S
H2178 C2196 0.951 . S
H2179 C2198 0.951 . S
H2180 C2200 0.950 . S
H2181 C2201 0.950 . S
H2182 C2203 0.950 . S
H2183 C2206 0.950 . S
H2184 C2207 0.950 . S
H2185 C2209 0.950 . S
H2186 C2210 0.950 . S
H2187 C2211 0.951 . S
H2188 C2213 0.951 . S
H2189 C2215 0.950 . S
H2190 C2216 0.950 . S
H2191 C2218 0.950 . S
H2192 C2221 0.950 . S
H2193 C2222 0.950 . S
H2194 C2224 0.950 . S
H2195 C2225 0.950 . S
C2196 H2178 0.951 . S
C2196 C2197 1.366 . S
C2196 C2198 1.388 . S
C2197 C2196 1.366 . S
C2197 C2201 1.385 . S
C2198 H2179 0.951 . S
C2198 C2196 1.388 . S
C2198 C2199 1.366 . S
C2199 C2198 1.366 . S
C2199 C2200 1.414 . S
C2199 C2202 1.499 . S
C2200 H2180 0.950 . S
C2200 C2199 1.414 . S
C2200 C2201 1.374 . S
C2201 H2181 0.950 . S
C2201 C2197 1.385 . S
C2201 C2200 1.374 . S
C2202 C2199 1.499 . S
C2202 C2203 1.373 . S
C2202 C2204 1.389 . S
C2203 H2182 0.950 . S
C2203 C2202 1.373 . S
C2203 C2219 1.377 . S
C2204 C2202 1.389 . S
C2204 C2205 1.524 . S
C2204 C2218 1.377 . S
C2205 C2204 1.524 . S
C2205 C2206 1.397 . S
C2205 C2210 1.363 . S
C2206 H2183 0.950 . S
C2206 C2205 1.397 . S
C2206 C2207 1.334 . S
C2207 H2184 0.950 . S
C2207 C2206 1.334 . S
C2207 C2208 1.287 . S
C2208 C2207 1.287 . S
C2208 C2209 1.524 . S
C2208 H2227 0.913 . S
C2209 H2185 0.950 . S
C2209 C2208 1.524 . S
C2209 C2210 1.415 . S
C2210 H2186 0.950 . S
C2210 C2205 1.363 . S
C2210 C2209 1.415 . S
C2211 H2187 0.951 . S
C2211 C2212 1.366 . S
C2211 C2213 1.388 . S
C2212 C2211 1.366 . S
C2212 C2216 1.385 . S
C2213 H2188 0.951 . S
C2213 C2211 1.388 . S
C2213 C2214 1.366 . S
C2214 C2213 1.366 . S
C2214 C2215 1.414 . S
C2214 C2217 1.499 . S
C2215 H2189 0.950 . S
C2215 C2214 1.414 . S
C2215 C2216 1.374 . S
C2216 H2190 0.950 . S
C2216 C2212 1.385 . S
C2216 C2215 1.374 . S
C2217 C2214 1.499 . S
C2217 C2218 1.373 . S
C2217 C2219 1.389 . S
C2218 H2191 0.950 . S
C2218 C2204 1.377 . S
C2218 C2217 1.373 . S
C2219 C2203 1.377 . S
C2219 C2217 1.389 . S
C2219 C2220 1.524 . S
C2220 C2219 1.524 . S
C2220 C2221 1.397 . S
C2220 C2225 1.363 . S
C2221 H2192 0.950 . S
C2221 C2220 1.397 . S
C2221 C2222 1.334 . S
C2222 H2193 0.950 . S
C2222 C2221 1.334 . S
C2222 C2223 1.287 . S
C2223 C2222 1.287 . S
C2223 C2224 1.524 . S
C2223 H2226 0.999 . S
C2224 H2194 0.950 . S
C2224 C2223 1.524 . S
C2224 C2225 1.415 . S
C2225 H2195 0.950 . S
C2225 C2220 1.363 . S
C2225 C2224 1.415 . S
H2226 C2223 0.999 . S
H2227 C2208 0.913 . S
H2228 C2246 0.951 . S
H2229 C2248 0.951 . S
H2230 C2250 0.950 . S
H2231 C2251 0.950 . S
H2232 C2253 0.950 . S
H2233 C2256 0.950 . S
H2234 C2257 0.950 . S
H2235 C2259 0.950 . S
H2236 C2260 0.950 . S
H2237 C2261 0.951 . S
H2238 C2263 0.951 . S
H2239 C2265 0.950 . S
H2240 C2266 0.950 . S
H2241 C2268 0.950 . S
H2242 C2271 0.950 . S
H2243 C2272 0.950 . S
H2244 C2274 0.950 . S
H2245 C2275 0.950 . S
C2246 H2228 0.951 . S
C2246 C2247 1.366 . S
C2246 C2248 1.388 . S
C2247 C2246 1.366 . S
C2247 C2251 1.385 . S
C2248 H2229 0.951 . S
C2248 C2246 1.388 . S
C2248 C2249 1.366 . S
C2249 C2248 1.366 . S
C2249 C2250 1.414 . S
C2249 C2252 1.499 . S
C2250 H2230 0.950 . S
C2250 C2249 1.414 . S
C2250 C2251 1.374 . S
C2251 H2231 0.950 . S
C2251 C2247 1.385 . S
C2251 C2250 1.374 . S
C2252 C2249 1.499 . S
C2252 C2253 1.373 . S
C2252 C2254 1.389 . S
C2253 H2232 0.950 . S
C2253 C2252 1.373 . S
C2253 C2269 1.377 . S
C2254 C2252 1.389 . S
C2254 C2255 1.524 . S
C2254 C2268 1.377 . S
C2255 C2254 1.524 . S
C2255 C2256 1.397 . S
C2255 C2260 1.363 . S
C2256 H2233 0.950 . S
C2256 C2255 1.397 . S
C2256 C2257 1.334 . S
C2257 H2234 0.950 . S
C2257 C2256 1.334 . S
C2257 C2258 1.287 . S
C2258 C2257 1.287 . S
C2258 C2259 1.524 . S
C2258 H2277 0.913 . S
C2259 H2235 0.950 . S
C2259 C2258 1.524 . S
C2259 C2260 1.415 . S
C2260 H2236 0.950 . S
C2260 C2255 1.363 . S
C2260 C2259 1.415 . S
C2261 H2237 0.951 . S
C2261 C2262 1.366 . S
C2261 C2263 1.388 . S
C2262 C2261 1.366 . S
C2262 C2266 1.385 . S
C2263 H2238 0.951 . S
C2263 C2261 1.388 . S
C2263 C2264 1.366 . S
C2264 C2263 1.366 . S
C2264 C2265 1.414 . S
C2264 C2267 1.499 . S
C2265 H2239 0.950 . S
C2265 C2264 1.414 . S
C2265 C2266 1.374 . S
C2266 H2240 0.950 . S
C2266 C2262 1.385 . S
C2266 C2265 1.374 . S
C2267 C2264 1.499 . S
C2267 C2268 1.373 . S
C2267 C2269 1.389 . S
C2268 H2241 0.950 . S
C2268 C2254 1.377 . S
C2268 C2267 1.373 . S
C2269 C2253 1.377 . S
C2269 C2267 1.389 . S
C2269 C2270 1.524 . S
C2270 C2269 1.524 . S
C2270 C2271 1.397 . S
C2270 C2275 1.363 . S
C2271 H2242 0.950 . S
C2271 C2270 1.397 . S
C2271 C2272 1.334 . S
C2272 H2243 0.950 . S
C2272 C2271 1.334 . S
C2272 C2273 1.287 . S
C2273 C2272 1.287 . S
C2273 C2274 1.524 . S
C2273 H2276 0.999 . S
C2274 H2244 0.950 . S
C2274 C2273 1.524 . S
C2274 C2275 1.415 . S
C2275 H2245 0.950 . S
C2275 C2270 1.363 . S
C2275 C2274 1.415 . S
H2276 C2273 0.999 . S
H2277 C2258 0.913 . S
H2278 C2296 0.951 . S
H2279 C2298 0.951 . S
H2280 C2300 0.950 . S
H2281 C2301 0.950 . S
H2282 C2303 0.950 . S
H2283 C2306 0.950 . S
H2284 C2307 0.950 . S
H2285 C2309 0.950 . S
H2286 C2310 0.950 . S
H2287 C2311 0.951 . S
H2288 C2313 0.951 . S
H2289 C2315 0.950 . S
H2290 C2316 0.950 . S
H2291 C2318 0.950 . S
H2292 C2321 0.950 . S
H2293 C2322 0.950 . S
H2294 C2324 0.950 . S
H2295 C2325 0.950 . S
C2296 H2278 0.951 . S
C2296 C2297 1.366 . S
C2296 C2298 1.388 . S
C2297 C2296 1.366 . S
C2297 C2301 1.385 . S
C2298 H2279 0.951 . S
C2298 C2296 1.388 . S
C2298 C2299 1.366 . S
C2299 C2298 1.366 . S
C2299 C2300 1.414 . S
C2299 C2302 1.499 . S
C2300 H2280 0.950 . S
C2300 C2299 1.414 . S
C2300 C2301 1.374 . S
C2301 H2281 0.950 . S
C2301 C2297 1.385 . S
C2301 C2300 1.374 . S
C2302 C2299 1.499 . S
C2302 C2303 1.373 . S
C2302 C2304 1.389 . S
C2303 H2282 0.950 . S
C2303 C2302 1.373 . S
C2303 C2319 1.377 . S
C2304 C2302 1.389 . S
C2304 C2305 1.524 . S
C2304 C2318 1.377 . S
C2305 C2304 1.524 . S
C2305 C2306 1.397 . S
C2305 C2310 1.363 . S
C2306 H2283 0.950 . S
C2306 C2305 1.397 . S
C2306 C2307 1.334 . S
C2307 H2284 0.950 . S
C2307 C2306 1.334 . S
C2307 C2308 1.287 . S
C2308 C2307 1.287 . S
C2308 C2309 1.524 . S
C2308 H2327 0.913 . S
C2309 H2285 0.950 . S
C2309 C2308 1.524 . S
C2309 C2310 1.415 . S
C2310 H2286 0.950 . S
C2310 C2305 1.363 . S
C2310 C2309 1.415 . S
C2311 H2287 0.951 . S
C2311 C2312 1.366 . S
C2311 C2313 1.388 . S
C2312 C2311 1.366 . S
C2312 C2316 1.385 . S
C2313 H2288 0.951 . S
C2313 C2311 1.388 . S
C2313 C2314 1.366 . S
C2314 C2313 1.366 . S
C2314 C2315 1.414 . S
C2314 C2317 1.499 . S
C2315 H2289 0.950 . S
C2315 C2314 1.414 . S
C2315 C2316 1.374 . S
C2316 H2290 0.950 . S
C2316 C2312 1.385 . S
C2316 C2315 1.374 . S
C2317 C2314 1.499 . S
C2317 C2318 1.373 . S
C2317 C2319 1.389 . S
C2318 H2291 0.950 . S
C2318 C2304 1.377 . S
C2318 C2317 1.373 . S
C2319 C2303 1.377 . S
C2319 C2317 1.389 . S
C2319 C2320 1.524 . S
C2320 C2319 1.524 . S
C2320 C2321 1.397 . S
C2320 C2325 1.363 . S
C2321 H2292 0.950 . S
C2321 C2320 1.397 . S
C2321 C2322 1.334 . S
C2322 H2293 0.950 . S
C2322 C2321 1.334 . S
C2322 C2323 1.287 . S
C2323 C2322 1.287 . S
C2323 C2324 1.524 . S
C2323 H2326 0.999 . S
C2324 H2294 0.950 . S
C2324 C2323 1.524 . S
C2324 C2325 1.415 . S
C2325 H2295 0.950 . S
C2325 C2320 1.363 . S
C2325 C2324 1.415 . S
H2326 C2323 0.999 . S
H2327 C2308 0.913 . S
H2328 C2346 0.951 . S
H2329 C2348 0.951 . S
H2330 C2350 0.950 . S
H2331 C2351 0.950 . S
H2332 C2353 0.950 . S
H2333 C2356 0.950 . S
H2334 C2357 0.950 . S
H2335 C2359 0.950 . S
H2336 C2360 0.950 . S
H2337 C2361 0.951 . S
H2338 C2363 0.951 . S
H2339 C2365 0.950 . S
H2340 C2366 0.950 . S
H2341 C2368 0.950 . S
H2342 C2371 0.950 . S
H2343 C2372 0.950 . S
H2344 C2374 0.950 . S
H2345 C2375 0.950 . S
C2346 H2328 0.951 . S
C2346 C2347 1.366 . S
C2346 C2348 1.388 . S
C2347 C2346 1.366 . S
C2347 C2351 1.385 . S
C2348 H2329 0.951 . S
C2348 C2346 1.388 . S
C2348 C2349 1.366 . S
C2349 C2348 1.366 . S
C2349 C2350 1.414 . S
C2349 C2352 1.499 . S
C2350 H2330 0.950 . S
C2350 C2349 1.414 . S
C2350 C2351 1.374 . S
C2351 H2331 0.950 . S
C2351 C2347 1.385 . S
C2351 C2350 1.374 . S
C2352 C2349 1.499 . S
C2352 C2353 1.373 . S
C2352 C2354 1.389 . S
C2353 H2332 0.950 . S
C2353 C2352 1.373 . S
C2353 C2369 1.377 . S
C2354 C2352 1.389 . S
C2354 C2355 1.524 . S
C2354 C2368 1.377 . S
C2355 C2354 1.524 . S
C2355 C2356 1.397 . S
C2355 C2360 1.363 . S
C2356 H2333 0.950 . S
C2356 C2355 1.397 . S
C2356 C2357 1.334 . S
C2357 H2334 0.950 . S
C2357 C2356 1.334 . S
C2357 C2358 1.287 . S
C2358 C2357 1.287 . S
C2358 C2359 1.524 . S
C2358 H2377 0.913 . S
C2359 H2335 0.950 . S
C2359 C2358 1.524 . S
C2359 C2360 1.415 . S
C2360 H2336 0.950 . S
C2360 C2355 1.363 . S
C2360 C2359 1.415 . S
C2361 H2337 0.951 . S
C2361 C2362 1.366 . S
C2361 C2363 1.388 . S
C2362 C2361 1.366 . S
C2362 C2366 1.385 . S
C2363 H2338 0.951 . S
C2363 C2361 1.388 . S
C2363 C2364 1.366 . S
C2364 C2363 1.366 . S
C2364 C2365 1.414 . S
C2364 C2367 1.499 . S
C2365 H2339 0.950 . S
C2365 C2364 1.414 . S
C2365 C2366 1.374 . S
C2366 H2340 0.950 . S
C2366 C2362 1.385 . S
C2366 C2365 1.374 . S
C2367 C2364 1.499 . S
C2367 C2368 1.373 . S
C2367 C2369 1.389 . S
C2368 H2341 0.950 . S
C2368 C2354 1.377 . S
C2368 C2367 1.373 . S
C2369 C2353 1.377 . S
C2369 C2367 1.389 . S
C2369 C2370 1.524 . S
C2370 C2369 1.524 . S
C2370 C2371 1.397 . S
C2370 C2375 1.363 . S
C2371 H2342 0.950 . S
C2371 C2370 1.397 . S
C2371 C2372 1.334 . S
C2372 H2343 0.950 . S
C2372 C2371 1.334 . S
C2372 C2373 1.287 . S
C2373 C2372 1.287 . S
C2373 C2374 1.524 . S
C2373 H2376 0.999 . S
C2374 H2344 0.950 . S
C2374 C2373 1.524 . S
C2374 C2375 1.415 . S
C2375 H2345 0.950 . S
C2375 C2370 1.363 . S
C2375 C2374 1.415 . S
H2376 C2373 0.999 . S
H2377 C2358 0.913 . S
H2378 C2396 0.951 . S
H2379 C2398 0.951 . S
H2380 C2400 0.950 . S
H2381 C2401 0.950 . S
H2382 C2403 0.950 . S
H2383 C2406 0.950 . S
H2384 C2407 0.950 . S
H2385 C2409 0.950 . S
H2386 C2410 0.950 . S
H2387 C2411 0.951 . S
H2388 C2413 0.951 . S
H2389 C2415 0.950 . S
H2390 C2416 0.950 . S
H2391 C2418 0.950 . S
H2392 C2421 0.950 . S
H2393 C2422 0.950 . S
H2394 C2424 0.950 . S
H2395 C2425 0.950 . S
C2396 H2378 0.951 . S
C2396 C2397 1.366 . S
C2396 C2398 1.388 . S
C2397 C2396 1.366 . S
C2397 C2401 1.385 . S
C2398 H2379 0.951 . S
C2398 C2396 1.388 . S
C2398 C2399 1.366 . S
C2399 C2398 1.366 . S
C2399 C2400 1.414 . S
C2399 C2402 1.499 . S
C2400 H2380 0.950 . S
C2400 C2399 1.414 . S
C2400 C2401 1.374 . S
C2401 H2381 0.950 . S
C2401 C2397 1.385 . S
C2401 C2400 1.374 . S
C2402 C2399 1.499 . S
C2402 C2403 1.373 . S
C2402 C2404 1.389 . S
C2403 H2382 0.950 . S
C2403 C2402 1.373 . S
C2403 C2419 1.377 . S
C2404 C2402 1.389 . S
C2404 C2405 1.524 . S
C2404 C2418 1.377 . S
C2405 C2404 1.524 . S
C2405 C2406 1.397 . S
C2405 C2410 1.363 . S
C2406 H2383 0.950 . S
C2406 C2405 1.397 . S
C2406 C2407 1.334 . S
C2407 H2384 0.950 . S
C2407 C2406 1.334 . S
C2407 C2408 1.287 . S
C2408 C2407 1.287 . S
C2408 C2409 1.524 . S
C2408 H2427 0.913 . S
C2409 H2385 0.950 . S
C2409 C2408 1.524 . S
C2409 C2410 1.415 . S
C2410 H2386 0.950 . S
C2410 C2405 1.363 . S
C2410 C2409 1.415 . S
C2411 H2387 0.951 . S
C2411 C2412 1.366 . S
C2411 C2413 1.388 . S
C2412 C2411 1.366 . S
C2412 C2416 1.385 . S
C2413 H2388 0.951 . S
C2413 C2411 1.388 . S
C2413 C2414 1.366 . S
C2414 C2413 1.366 . S
C2414 C2415 1.414 . S
C2414 C2417 1.499 . S
C2415 H2389 0.950 . S
C2415 C2414 1.414 . S
C2415 C2416 1.374 . S
C2416 H2390 0.950 . S
C2416 C2412 1.385 . S
C2416 C2415 1.374 . S
C2417 C2414 1.499 . S
C2417 C2418 1.373 . S
C2417 C2419 1.389 . S
C2418 H2391 0.950 . S
C2418 C2404 1.377 . S
C2418 C2417 1.373 . S
C2419 C2403 1.377 . S
C2419 C2417 1.389 . S
C2419 C2420 1.524 . S
C2420 C2419 1.524 . S
C2420 C2421 1.397 . S
C2420 C2425 1.363 . S
C2421 H2392 0.950 . S
C2421 C2420 1.397 . S
C2421 C2422 1.334 . S
C2422 H2393 0.950 . S
C2422 C2421 1.334 . S
C2422 C2423 1.287 . S
C2423 C2422 1.287 . S
C2423 C2424 1.524 . S
C2423 H2426 0.999 . S
C2424 H2394 0.950 . S
C2424 C2423 1.524 . S
C2424 C2425 1.415 . S
C2425 H2395 0.950 . S
C2425 C2420 1.363 . S
C2425 C2424 1.415 . S
H2426 C2423 0.999 . S
H2427 C2408 0.913 . S
H2428 C2446 0.951 . S
H2429 C2448 0.951 . S
H2430 C2450 0.950 . S
H2431 C2451 0.950 . S
H2432 C2453 0.950 . S
H2433 C2456 0.950 . S
H2434 C2457 0.950 . S
H2435 C2459 0.950 . S
H2436 C2460 0.950 . S
H2437 C2461 0.951 . S
H2438 C2463 0.951 . S
H2439 C2465 0.950 . S
H2440 C2466 0.950 . S
H2441 C2468 0.950 . S
H2442 C2471 0.950 . S
H2443 C2472 0.950 . S
H2444 C2474 0.950 . S
H2445 C2475 0.950 . S
C2446 H2428 0.951 . S
C2446 C2447 1.366 . S
C2446 C2448 1.388 . S
C2447 C2446 1.366 . S
C2447 C2451 1.385 . S
C2448 H2429 0.951 . S
C2448 C2446 1.388 . S
C2448 C2449 1.366 . S
C2449 C2448 1.366 . S
C2449 C2450 1.414 . S
C2449 C2452 1.499 . S
C2450 H2430 0.950 . S
C2450 C2449 1.414 . S
C2450 C2451 1.374 . S
C2451 H2431 0.950 . S
C2451 C2447 1.385 . S
C2451 C2450 1.374 . S
C2452 C2449 1.499 . S
C2452 C2453 1.373 . S
C2452 C2454 1.389 . S
C2453 H2432 0.950 . S
C2453 C2452 1.373 . S
C2453 C2469 1.377 . S
C2454 C2452 1.389 . S
C2454 C2455 1.524 . S
C2454 C2468 1.377 . S
C2455 C2454 1.524 . S
C2455 C2456 1.397 . S
C2455 C2460 1.363 . S
C2456 H2433 0.950 . S
C2456 C2455 1.397 . S
C2456 C2457 1.334 . S
C2457 H2434 0.950 . S
C2457 C2456 1.334 . S
C2457 C2458 1.287 . S
C2458 C2457 1.287 . S
C2458 C2459 1.524 . S
C2458 H2477 0.913 . S
C2459 H2435 0.950 . S
C2459 C2458 1.524 . S
C2459 C2460 1.415 . S
C2460 H2436 0.950 . S
C2460 C2455 1.363 . S
C2460 C2459 1.415 . S
C2461 H2437 0.951 . S
C2461 C2462 1.366 . S
C2461 C2463 1.388 . S
C2462 C2461 1.366 . S
C2462 C2466 1.385 . S
C2463 H2438 0.951 . S
C2463 C2461 1.388 . S
C2463 C2464 1.366 . S
C2464 C2463 1.366 . S
C2464 C2465 1.414 . S
C2464 C2467 1.499 . S
C2465 H2439 0.950 . S
C2465 C2464 1.414 . S
C2465 C2466 1.374 . S
C2466 H2440 0.950 . S
C2466 C2462 1.385 . S
C2466 C2465 1.374 . S
C2467 C2464 1.499 . S
C2467 C2468 1.373 . S
C2467 C2469 1.389 . S
C2468 H2441 0.950 . S
C2468 C2454 1.377 . S
C2468 C2467 1.373 . S
C2469 C2453 1.377 . S
C2469 C2467 1.389 . S
C2469 C2470 1.524 . S
C2470 C2469 1.524 . S
C2470 C2471 1.397 . S
C2470 C2475 1.363 . S
C2471 H2442 0.950 . S
C2471 C2470 1.397 . S
C2471 C2472 1.334 . S
C2472 H2443 0.950 . S
C2472 C2471 1.334 . S
C2472 C2473 1.287 . S
C2473 C2472 1.287 . S
C2473 C2474 1.524 . S
C2473 H2476 0.999 . S
C2474 H2444 0.950 . S
C2474 C2473 1.524 . S
C2474 C2475 1.415 . S
C2475 H2445 0.950 . S
C2475 C2470 1.363 . S
C2475 C2474 1.415 . S
H2476 C2473 0.999 . S
H2477 C2458 0.913 . S
H2478 C2496 0.951 . S
H2479 C2498 0.951 . S
H2480 C2500 0.950 . S
H2481 C2501 0.950 . S
H2482 C2503 0.950 . S
H2483 C2506 0.950 . S
H2484 C2507 0.950 . S
H2485 C2509 0.950 . S
H2486 C2510 0.950 . S
H2487 C2511 0.951 . S
H2488 C2513 0.951 . S
H2489 C2515 0.950 . S
H2490 C2516 0.950 . S
H2491 C2518 0.950 . S
H2492 C2521 0.950 . S
H2493 C2522 0.950 . S
H2494 C2524 0.950 . S
H2495 C2525 0.950 . S
C2496 H2478 0.951 . S
C2496 C2497 1.366 . S
C2496 C2498 1.388 . S
C2497 C2496 1.366 . S
C2497 C2501 1.385 . S
C2498 H2479 0.951 . S
C2498 C2496 1.388 . S
C2498 C2499 1.366 . S
C2499 C2498 1.366 . S
C2499 C2500 1.414 . S
C2499 C2502 1.499 . S
C2500 H2480 0.950 . S
C2500 C2499 1.414 . S
C2500 C2501 1.374 . S
C2501 H2481 0.950 . S
C2501 C2497 1.385 . S
C2501 C2500 1.374 . S
C2502 C2499 1.499 . S
C2502 C2503 1.373 . S
C2502 C2504 1.389 . S
C2503 H2482 0.950 . S
C2503 C2502 1.373 . S
C2503 C2519 1.377 . S
C2504 C2502 1.389 . S
C2504 C2505 1.524 . S
C2504 C2518 1.377 . S
C2505 C2504 1.524 . S
C2505 C2506 1.397 . S
C2505 C2510 1.363 . S
C2506 H2483 0.950 . S
C2506 C2505 1.397 . S
C2506 C2507 1.334 . S
C2507 H2484 0.950 . S
C2507 C2506 1.334 . S
C2507 C2508 1.287 . S
C2508 C2507 1.287 . S
C2508 C2509 1.524 . S
C2508 H2527 0.913 . S
C2509 H2485 0.950 . S
C2509 C2508 1.524 . S
C2509 C2510 1.415 . S
C2510 H2486 0.950 . S
C2510 C2505 1.363 . S
C2510 C2509 1.415 . S
C2511 H2487 0.951 . S
C2511 C2512 1.366 . S
C2511 C2513 1.388 . S
C2512 C2511 1.366 . S
C2512 C2516 1.385 . S
C2513 H2488 0.951 . S
C2513 C2511 1.388 . S
C2513 C2514 1.366 . S
C2514 C2513 1.366 . S
C2514 C2515 1.414 . S
C2514 C2517 1.499 . S
C2515 H2489 0.950 . S
C2515 C2514 1.414 . S
C2515 C2516 1.374 . S
C2516 H2490 0.950 . S
C2516 C2512 1.385 . S
C2516 C2515 1.374 . S
C2517 C2514 1.499 . S
C2517 C2518 1.373 . S
C2517 C2519 1.389 . S
C2518 H2491 0.950 . S
C2518 C2504 1.377 . S
C2518 C2517 1.373 . S
C2519 C2503 1.377 . S
C2519 C2517 1.389 . S
C2519 C2520 1.524 . S
C2520 C2519 1.524 . S
C2520 C2521 1.397 . S
C2520 C2525 1.363 . S
C2521 H2492 0.950 . S
C2521 C2520 1.397 . S
C2521 C2522 1.334 . S
C2522 H2493 0.950 . S
C2522 C2521 1.334 . S
C2522 C2523 1.287 . S
C2523 C2522 1.287 . S
C2523 C2524 1.524 . S
C2523 H2526 0.999 . S
C2524 H2494 0.950 . S
C2524 C2523 1.524 . S
C2524 C2525 1.415 . S
C2525 H2495 0.950 . S
C2525 C2520 1.363 . S
C2525 C2524 1.415 . S
H2526 C2523 0.999 . S
H2527 C2508 0.913 . S
C547 N2 0.533 . S
C562 N431 0.535 . S
C597 N464 0.533 . S
C612 N35 0.534 . S
C647 N497 0.533 . S
C662 N68 0.534 . S
C697 N398 0.535 . S
C712 N101 0.537 . S
C747 N365 0.537 . S
C762 N134 0.537 . S
C797 N266 0.537 . S
C812 N167 0.536 . S
C847 N200 0.536 . S
C862 N299 0.534 . S
C897 N332 0.534 . S
C912 N233 0.533 . S
C947 C304 1.936 . S
C962 N13 2.042 . S
C997 N46 2.042 . S
C1012 C337 1.936 . S
C1047 N79 2.042 . S
C1062 C370 1.936 . S
C1097 N112 2.042 1_556 S
C1112 C271 1.936 . S
C1147 N145 2.042 1_554 S
C1162 C502 1.936 . S
C1197 C403 1.936 . S
C1212 N178 2.042 . S
C1247 C436 1.936 . S
C1262 N211 2.042 . S
C1297 C469 1.936 . S
C1312 N244 2.042 . S
C1347 N277 2.042 . S
C1362 C40 1.936 . S
C1397 N310 2.042 1_556 S
C1412 C73 1.935 . S
C1447 N343 2.043 . S
C1462 C106 1.936 . S
C1497 C7 1.936 . S
C1512 N376 2.042 . S
C1547 N409 2.042 . S
C1562 C238 1.936 . S
C1597 C139 1.936 . S
C1612 N442 2.042 . S
C1647 N475 2.042 1_554 S
C1662 C172 1.936 . S
C1697 N508 2.042 . S
C1712 C205 1.936 . S
C1747 C21 1.121 . S
C1762 C351 1.121 . S
C1797 C384 1.121 . S
C1812 C54 1.120 . S
C1847 C87 1.121 . S
C1862 C285 1.121 . S
C1897 C318 1.121 . S
C1912 C120 1.120 . S
C1947 C153 1.121 . S
C1962 C483 1.120 . S
C1997 C516 1.121 . S
C2012 C186 1.120 . S
C2047 C417 1.120 . S
C2062 C219 1.121 . S
C2097 C450 1.120 . S
C2112 C252 1.121 . S
C2147 C216 0.356 . S
C2162 C18 0.353 . S
C2197 C51 0.354 . S
C2212 C249 0.356 . S
C2247 C150 0.355 . S
C2262 C84 0.352 . S
C2297 C117 0.353 . S
C2312 C183 0.352 . S
C2347 C282 0.356 . S
C2362 C480 0.353 . S
C2397 C315 0.354 . S
C2412 C513 0.356 . S
C2447 C348 0.354 . S
C2462 C414 0.356 . S
C2497 C447 0.353 . S
C2512 C381 0.356 . S
