# Generated by pormake.
# Topology soe, (5)-cn, num edge types: 1
# Building blocks:
#     Node 0, Type 0, BuildingBlock: XOMCOT_clean_sbu_0, # of connection points: 5
#     Node 1, Type 0, BuildingBlock: XOMCOT_clean_sbu_0, # of connection points: 5
#     Node 2, Type 0, BuildingBlock: XOMCOT_clean_sbu_0, # of connection points: 5
#     Node 3, Type 0, BuildingBlock: XOMCOT_clean_sbu_0, # of connection points: 5
#     Node 4, Type 0, BuildingBlock: XOMCOT_clean_sbu_0, # of connection points: 5
#     Node 5, Type 0, BuildingBlock: XOMCOT_clean_sbu_0, # of connection points: 5
#     Node 6, Type 0, BuildingBlock: XOMCOT_clean_sbu_0, # of connection points: 5
#     Node 7, Type 0, BuildingBlock: XOMCOT_clean_sbu_0, # of connection points: 5
#     Edge 8, Type (0, 0), BuildingBlock: CIFDUS_clean_linker_0, # of connection points: 2
#     Edge 9, Type (0, 0), BuildingBlock: CIFDUS_clean_linker_0, # of connection points: 2
#     Edge 10, Type (0, 0), BuildingBlock: CIFDUS_clean_linker_0, # of connection points: 2
#     Edge 11, Type (0, 0), BuildingBlock: CIFDUS_clean_linker_0, # of connection points: 2
#     Edge 12, Type (0, 0), BuildingBlock: CIFDUS_clean_linker_0, # of connection points: 2
#     Edge 13, Type (0, 0), BuildingBlock: CIFDUS_clean_linker_0, # of connection points: 2
#     Edge 14, Type (0, 0), BuildingBlock: CIFDUS_clean_linker_0, # of connection points: 2
#     Edge 15, Type (0, 0), BuildingBlock: CIFDUS_clean_linker_0, # of connection points: 2
#     Edge 16, Type (0, 0), BuildingBlock: CIFDUS_clean_linker_0, # of connection points: 2
#     Edge 17, Type (0, 0), BuildingBlock: CIFDUS_clean_linker_0, # of connection points: 2
#     Edge 18, Type (0, 0), BuildingBlock: CIFDUS_clean_linker_0, # of connection points: 2
#     Edge 19, Type (0, 0), BuildingBlock: CIFDUS_clean_linker_0, # of connection points: 2
#     Edge 20, Type (0, 0), BuildingBlock: CIFDUS_clean_linker_0, # of connection points: 2
#     Edge 21, Type (0, 0), BuildingBlock: CIFDUS_clean_linker_0, # of connection points: 2
#     Edge 22, Type (0, 0), BuildingBlock: CIFDUS_clean_linker_0, # of connection points: 2
#     Edge 23, Type (0, 0), BuildingBlock: CIFDUS_clean_linker_0, # of connection points: 2
#     Edge 24, Type (0, 0), BuildingBlock: CIFDUS_clean_linker_0, # of connection points: 2
#     Edge 25, Type (0, 0), BuildingBlock: CIFDUS_clean_linker_0, # of connection points: 2
#     Edge 26, Type (0, 0), BuildingBlock: CIFDUS_clean_linker_0, # of connection points: 2
#     Edge 27, Type (0, 0), BuildingBlock: CIFDUS_clean_linker_0, # of connection points: 2
# Relax obj value: 0.036
# Max RMSD: 0.066
# Mean RMSD: 0.066
data_MOF--net-soe--node1-XOMCOT_clean_sbu_0--edge1-CIFDUS_clean_linker_0
_symmetry_space_group_name_H-M    P1
_symmetry_Int_Tables_number       1
_symmetry_cell_setting            triclinic
loop_
_symmetry_equiv_pos_as_xyz
'x, y, z'
_cell_length_a     52.198213
_cell_length_b     38.493955
_cell_length_c     15.733356
_cell_angle_alpha  88.973847
_cell_angle_beta   90.034045
_cell_angle_gamma 90.079811
loop_
_atom_site_label
_atom_site_type_symbol
_atom_site_fract_x
_atom_site_fract_y
_atom_site_fract_z
_atom_type_partial_charge
Co0 Co 0.10937 0.12262 0.10776 0.0
C1 C 0.1155 0.12314 0.92245 0.0
C2 C 0.1029 0.17267 0.96688 0.0
C3 C 0.10332 0.17382 0.87939 0.0
N4 N 0.11057 0.14091 0.99343 0.0
N5 N 0.11115 0.1426 0.85171 0.0
H6 H 0.12077 0.09596 0.92266 0.0
H7 H 0.09641 0.19309 1.00798 0.0
C8 C 0.13093 0.18222 0.21207 0.0
O9 O 0.14304 0.16069 0.26383 0.0
N10 N 0.10753 0.10395 0.22289 0.0
C11 C 0.11393 0.07165 0.24984 0.0
C12 C 0.11055 0.06924 0.33624 0.0
C13 C 0.09893 0.12004 0.29283 0.0
N14 N 0.10149 0.09986 0.36341 0.0
C15 C 0.15003 0.07424 0.08451 0.0
C16 C 0.19072 0.11913 0.10379 0.0
C17 C 0.19562 0.08333 0.09841 0.0
C18 C 0.17482 0.06114 0.08499 0.0
C19 C 0.1654 0.13129 0.10126 0.0
N20 N 0.14528 0.10857 0.09834 0.0
H21 H 0.13465 0.05616 0.07418 0.0
H22 H 0.16232 0.15892 0.10133 0.0
H23 H 0.12051 0.05093 0.2103 0.0
H24 H 0.0921 0.14656 0.29269 0.0
O25 O 0.09369 0.08068 0.06722 0.0
O26 O 0.07227 0.12718 0.10663 0.0
O27 O 0.11803 0.17088 0.14921 0.0
C28 C 0.07176 0.09575 0.0772 0.0
H29 H 0.09777 0.1957 0.83935 0.0
H30 H 0.11475 0.04675 0.37611 0.0
H31 H 0.20616 0.13763 0.11103 0.0
H32 H 0.17754 0.03364 0.07479 0.0
Co33 Co 0.41068 0.93609 0.09636 0.0
C34 C 0.40668 0.93467 0.90855 0.0
C35 C 0.41656 0.88467 0.95949 0.0
C36 C 0.41674 0.88304 0.87203 0.0
N37 N 0.40931 0.91684 0.98272 0.0
N38 N 0.41032 0.91457 0.84056 0.0
H39 H 0.40448 0.96248 0.90323 0.0
H40 H 0.42273 0.86413 1.00243 0.0
C41 C 0.39035 0.86446 0.13443 0.0
O42 O 0.37231 0.87049 0.0778 0.0
N43 N 0.41314 0.9551 0.20839 0.0
C44 C 0.4059 0.98705 0.23211 0.0
C45 C 0.40855 0.98914 0.31891 0.0
C46 C 0.42041 0.93835 0.28023 0.0
N47 N 0.41755 0.95842 0.34893 0.0
C48 C 0.36346 0.96573 0.03886 0.0
C49 C 0.3346 0.94802 0.18003 0.0
C50 C 0.32416 0.97081 0.11849 0.0
C51 C 0.33869 0.97845 0.04587 0.0
C52 C 0.35948 0.93503 0.16934 0.0
N53 N 0.37375 0.94415 0.09941 0.0
H54 H 0.37477 0.97569 0.98739 0.0
H55 H 0.36782 0.9194 0.21993 0.0
H56 H 0.39833 1.00694 0.18969 0.0
H57 H 0.42645 0.9115 0.28282 0.0
O58 O 0.42051 0.98053 0.04893 0.0
O59 O 0.44769 0.93867 0.08546 0.0
O60 O 0.40723 0.88777 0.14889 0.0
C61 C 0.44405 0.96993 0.05419 0.0
H62 H 0.42182 0.86074 0.8347 0.0
H63 H 0.40366 1.01129 0.35706 0.0
H64 H 0.32426 0.94166 0.23788 0.0
H65 H 0.33146 0.99544 0.9958 0.0
Co66 Co 0.10499 0.43788 0.45841 0.0
C67 C 0.10833 0.43318 0.64907 0.0
C68 C 0.09959 0.38424 0.59239 0.0
C69 C 0.10029 0.37956 0.67919 0.0
N70 N 0.10491 0.41771 0.573 0.0
N71 N 0.10572 0.41024 0.71519 0.0
H72 H 0.11258 0.46052 0.65587 0.0
H73 H 0.09486 0.36456 0.5468 0.0
C74 C 0.12978 0.38006 0.35644 0.0
O75 O 0.14374 0.40219 0.31191 0.0
N76 N 0.10433 0.45821 0.34249 0.0
C77 C 0.10601 0.4924 0.32247 0.0
C78 C 0.10391 0.49711 0.23605 0.0
C79 C 0.09995 0.44283 0.26653 0.0
N80 N 0.10027 0.46597 0.2003 0.0
C81 C 0.14616 0.48623 0.47814 0.0
C82 C 0.18569 0.43884 0.48668 0.0
C83 C 0.19161 0.47446 0.48262 0.0
C84 C 0.17133 0.4982 0.48101 0.0
C85 C 0.16005 0.42799 0.48397 0.0
N86 N 0.14074 0.45162 0.4734 0.0
H87 H 0.13104 0.50515 0.47958 0.0
H88 H 0.15589 0.40061 0.49021 0.0
H89 H 0.10775 0.51315 0.36712 0.0
H90 H 0.096 0.41545 0.2596 0.0
O91 O 0.08879 0.47907 0.50124 0.0
O92 O 0.06803 0.43305 0.45418 0.0
O93 O 0.11441 0.39053 0.41375 0.0
C94 C 0.06703 0.46395 0.4865 0.0
H95 H 0.0963 0.35552 0.71343 0.0
H96 H 0.10512 0.52177 0.20215 0.0
H97 H 0.20071 0.41954 0.49195 0.0
H98 H 0.17478 0.52595 0.47959 0.0
Co99 Co 0.41197 0.61302 0.4123 0.0
C100 C 0.40991 0.61373 0.59696 0.0
C101 C 0.41987 0.66406 0.54593 0.0
C102 C 0.42195 0.6648 0.6332 0.0
N103 N 0.41234 0.632 0.52393 0.0
N104 N 0.41593 0.63298 0.6648 0.0
H105 H 0.40487 0.58646 0.5998 0.0
H106 H 0.42494 0.68474 0.50163 0.0
C107 C 0.38477 0.66692 0.3056 0.0
O108 O 0.37103 0.64157 0.27406 0.0
N109 N 0.4125 0.59429 0.29901 0.0
C110 C 0.40548 0.56277 0.27077 0.0
C111 C 0.40807 0.56262 0.18376 0.0
C112 C 0.42052 0.61202 0.22945 0.0
N113 N 0.41719 0.59384 0.15801 0.0
C114 C 0.3722 0.56318 0.44308 0.0
C115 C 0.33205 0.60894 0.46106 0.0
C116 C 0.32698 0.57307 0.46528 0.0
C117 C 0.34769 0.55025 0.45838 0.0
C118 C 0.35712 0.62081 0.44642 0.0
N119 N 0.37659 0.59794 0.43175 0.0
H120 H 0.38777 0.54488 0.44225 0.0
H121 H 0.36077 0.64839 0.44772 0.0
H122 H 0.39871 0.54123 0.30903 0.0
H123 H 0.42792 0.63828 0.23093 0.0
O124 O 0.42892 0.57192 0.45549 0.0
O125 O 0.44906 0.61866 0.40636 0.0
O126 O 0.40138 0.66023 0.3636 0.0
C127 C 0.45048 0.58755 0.44031 0.0
H128 H 0.42884 0.68641 0.66995 0.0
H129 H 0.40255 0.5417 0.14247 0.0
H130 H 0.31684 0.62773 0.46858 0.0
H131 H 0.34516 0.52246 0.46639 0.0
Co132 Co 0.91857 0.94695 0.9072 0.0
C133 C 0.91466 0.94694 0.09414 0.0
C134 C 0.92831 0.89815 0.04874 0.0
C135 C 0.92863 0.897 0.13631 0.0
N136 N 0.91938 0.9294 0.02261 0.0
N137 N 0.91999 0.92772 0.16434 0.0
H138 H 0.90878 0.97378 0.09536 0.0
H139 H 0.935 0.87802 1.00716 0.0
C140 C 0.901 0.88324 0.80455 0.0
O141 O 0.89309 0.90179 0.73883 0.0
N142 N 0.9184 0.96509 0.79209 0.0
C143 C 0.90745 0.99502 0.76546 0.0
C144 C 0.9112 0.99884 0.67957 0.0
C145 C 0.92987 0.95205 0.72288 0.0
N146 N 0.92486 0.97145 0.6524 0.0
C147 C 0.87863 0.99285 0.95715 0.0
C148 C 0.83828 0.95962 0.87993 0.0
C149 C 0.83453 0.99321 0.91083 0.0
C150 C 0.85486 1.00907 0.9531 0.0
C151 C 0.86244 0.94399 0.88643 0.0
N152 N 0.88275 0.96133 0.92074 0.0
H153 H 0.89404 1.0071 0.9857 0.0
H154 H 0.86448 0.9185 0.86146 0.0
H155 H 0.89725 1.01288 0.8052 0.0
H156 H 0.94021 0.9277 0.72336 0.0
O157 O 0.93464 0.98944 0.94201 0.0
O158 O 0.95573 0.94267 0.90273 0.0
O159 O 0.90948 0.89787 0.87146 0.0
C160 C 0.95648 0.9744 0.93016 0.0
H161 H 0.93498 0.87547 0.17617 0.0
H162 H 0.90392 1.01988 0.63999 0.0
H163 H 0.82301 0.94596 0.84798 0.0
H164 H 0.85271 0.03441 0.98105 0.0
Co165 Co 0.60618 0.10493 0.88862 0.0
C166 C 0.60268 0.10452 0.07615 0.0
C167 C 0.59326 0.15437 0.02324 0.0
C168 C 0.58898 0.15498 0.10951 0.0
N169 N 0.60286 0.12305 1.00252 0.0
N170 N 0.59482 0.12344 0.14224 0.0
H171 H 0.60648 0.0771 0.0813 0.0
H172 H 0.58808 0.17478 0.97851 0.0
C173 C 0.626 0.1781 0.86322 0.0
O174 O 0.64025 0.17441 0.93164 0.0
N175 N 0.60809 0.08741 0.77552 0.0
C176 C 0.61786 0.05708 0.74922 0.0
C177 C 0.61631 0.05656 0.66166 0.0
C178 C 0.60049 0.10462 0.70503 0.0
N179 N 0.60555 0.08664 0.63452 0.0
C180 C 0.65072 0.0739 0.96113 0.0
C181 C 0.68494 0.09515 0.83698 0.0
C182 C 0.69243 0.06968 0.89688 0.0
C183 C 0.67528 0.06027 0.9613 0.0
C184 C 0.65995 0.10862 0.83971 0.0
N185 N 0.64299 0.09753 0.90084 0.0
H186 H 0.63745 0.06264 1.00531 0.0
H187 H 0.65372 0.12581 0.78876 0.0
H188 H 0.62615 0.03731 0.79047 0.0
H189 H 0.59162 0.13 0.70525 0.0
O190 O 0.5953 0.05993 0.92884 0.0
O191 O 0.56896 0.10147 0.88429 0.0
O192 O 0.61126 0.15351 0.83957 0.0
C193 C 0.57197 0.07003 0.91532 0.0
H194 H 0.58091 0.17629 0.14454 0.0
H195 H 0.62345 0.03634 0.62108 0.0
H196 H 0.69761 0.10287 0.78551 0.0
H197 H 0.6803 0.04084 1.00914 0.0
Co198 Co 0.91118 0.61353 0.62397 0.0
C199 C 0.91169 0.61765 0.43112 0.0
C200 C 0.92717 0.66273 0.49084 0.0
C201 C 0.92885 0.66742 0.40431 0.0
N202 N 0.91612 0.63179 0.50838 0.0
N203 N 0.91908 0.63921 0.36619 0.0
H204 H 0.90338 0.59228 0.42218 0.0
H205 H 0.93411 0.68054 0.53799 0.0
C206 C 0.89529 0.67852 0.72466 0.0
O207 O 0.8866 0.6608 0.79057 0.0
N208 N 0.9069 0.59493 0.73981 0.0
C209 C 0.89297 0.56656 0.76121 0.0
C210 C 0.89482 0.56048 0.84735 0.0
C211 C 0.91788 0.60493 0.81383 0.0
N212 N 0.91023 0.58477 0.88089 0.0
C213 C 0.87043 0.57236 0.55688 0.0
C214 C 0.83048 0.60674 0.63328 0.0
C215 C 0.82568 0.57452 0.59641 0.0
C216 C 0.84584 0.558 0.55475 0.0
C217 C 0.85533 0.62036 0.63338 0.0
N218 N 0.8753 0.60243 0.59912 0.0
H219 H 0.88584 0.55772 0.52942 0.0
H220 H 0.85819 0.64451 0.66452 0.0
H221 H 0.8821 0.55106 0.71746 0.0
H222 H 0.93073 0.62689 0.81881 0.0
O223 O 0.92659 0.56997 0.59253 0.0
O224 O 0.94794 0.61526 0.64063 0.0
O225 O 0.90323 0.66313 0.6582 0.0
C226 C 0.9485 0.58373 0.61208 0.0
H227 H 0.93729 0.6897 0.37202 0.0
H228 H 0.88494 0.54024 0.88305 0.0
H229 H 0.81528 0.62088 0.66421 0.0
H230 H 0.84306 0.53305 0.52536 0.0
Co231 Co 0.60487 0.44093 0.62467 0.0
C232 C 0.60398 0.43454 0.4322 0.0
C233 C 0.58858 0.39007 0.49773 0.0
C234 C 0.58581 0.38544 0.41164 0.0
N235 N 0.60061 0.42047 0.51155 0.0
N236 N 0.59542 0.41346 0.36985 0.0
H237 H 0.6109 0.46044 0.41953 0.0
H238 H 0.58151 0.37272 0.5472 0.0
C239 C 0.62586 0.36833 0.64995 0.0
O240 O 0.63735 0.37057 0.5758 0.0
N241 N 0.60831 0.46101 0.73715 0.0
C242 C 0.6166 0.49337 0.75305 0.0
C243 C 0.61845 0.4973 0.83972 0.0
C244 C 0.60501 0.44572 0.8149 0.0
N245 N 0.61129 0.46733 0.87905 0.0
C246 C 0.64673 0.47659 0.54458 0.0
C247 C 0.68527 0.44988 0.64659 0.0
C248 C 0.69147 0.47445 0.58303 0.0
C249 C 0.67185 0.4877 0.53154 0.0
C250 C 0.65983 0.43873 0.65606 0.0
N251 N 0.64094 0.45142 0.60376 0.0
H252 H 0.63183 0.48988 0.50997 0.0
H253 H 0.65525 0.42116 0.7081 0.0
H254 H 0.62153 0.51259 0.70477 0.0
H255 H 0.59892 0.41906 0.82435 0.0
O256 O 0.5901 0.48375 0.58126 0.0
O257 O 0.56802 0.43994 0.63776 0.0
O258 O 0.61282 0.39383 0.67758 0.0
C259 C 0.56793 0.4707 0.60178 0.0
H260 H 0.57695 0.3632 0.38249 0.0
H261 H 0.62472 0.52057 0.87127 0.0
H262 H 0.69987 0.43984 0.68933 0.0
H263 H 0.67571 0.50788 0.48436 0.0
H264 H 0.3114 0.03738 0.07503 0.0
H265 H 0.28025 0.94388 0.1906 0.0
H266 H 0.23841 0.97189 0.2017 0.0
H267 H 0.21028 1.0215 0.17083 0.0
H268 H 0.24067 0.1123 0.04033 0.0
H269 H 0.28333 0.08664 0.04331 0.0
C270 C 0.29543 1.0228 0.10161 0.0
C271 C 0.29898 0.98823 0.13052 0.0
C272 C 0.2713 0.0386 0.10518 0.0
C273 C 0.2782 0.97046 0.16794 0.0
C274 C 0.2542 0.98639 0.17377 0.0
C275 C 0.22612 0.03563 0.14203 0.0
C276 C 0.22203 0.06877 0.10457 0.0
C277 C 0.25046 1.02022 0.14117 0.0
C278 C 0.2431 0.08699 0.07032 0.0
C279 C 0.26753 0.07218 0.07131 0.0
H280 H 0.21309 0.5305 0.56033 0.0
H281 H 0.23073 0.44708 0.39024 0.0
H282 H 0.27386 0.47029 0.36994 0.0
H283 H 0.3058 0.5156 0.39481 0.0
H284 H 0.28859 0.59888 0.56587 0.0
H285 H 0.24566 0.57512 0.58848 0.0
C286 C 0.22633 0.51742 0.51862 0.0
C287 C 0.21857 0.48706 0.47677 0.0
C288 C 0.25103 0.5312 0.5062 0.0
C289 C 0.23621 0.47017 0.42419 0.0
C290 C 0.26083 0.48364 0.41183 0.0
C291 C 0.29284 0.52841 0.43799 0.0
C292 C 0.30057 0.55907 0.47851 0.0
C293 C 0.26835 0.5143 0.45185 0.0
C294 C 0.28316 0.57559 0.53271 0.0
C295 C 0.25865 0.56182 0.54634 0.0
H296 H 0.74048 0.09592 0.86956 0.0
H297 H 0.69909 0.99986 0.90813 0.0
H298 H 0.73916 0.96758 0.91374 0.0
H299 H 0.78597 0.96692 0.91754 0.0
H300 H 0.82781 0.06238 0.87373 0.0
H301 H 0.78771 0.09444 0.86113 0.0
C302 C 0.7403 0.06789 0.87797 0.0
C303 C 0.71692 0.05043 0.88999 0.0
C304 C 0.76351 0.04935 0.8814 0.0
C305 C 0.71692 1.01404 0.90068 0.0
C306 C 0.73981 0.9955 0.90367 0.0
C307 C 0.78638 0.99463 0.90393 0.0
C308 C 0.80995 1.01216 0.89802 0.0
C309 C 0.76324 1.01294 0.89577 0.0
C310 C 0.80997 0.04823 0.88094 0.0
C311 C 0.78702 0.06663 0.87296 0.0
H312 H 0.79802 0.53986 0.47723 0.0
H313 H 0.79691 0.56928 0.7405 0.0
H314 H 0.75621 0.53898 0.7612 0.0
H315 H 0.72044 0.50471 0.70408 0.0
H316 H 0.72061 0.47716 0.43989 0.0
H317 H 0.7623 0.50545 0.42017 0.0
C318 C 0.78889 0.53952 0.53914 0.0
C319 C 0.80043 0.55702 0.60701 0.0
C320 C 0.76541 0.52207 0.55061 0.0
C321 C 0.78824 0.55656 0.68676 0.0
C322 C 0.76507 0.53897 0.6989 0.0
C323 C 0.72986 0.50452 0.64264 0.0
C324 C 0.71773 0.48863 0.57372 0.0
C325 C 0.75346 0.52165 0.63132 0.0
C326 C 0.72976 0.48913 0.49385 0.0
C327 C 0.7535 0.50539 0.48254 0.0
H328 H 0.9614 0.03879 0.99429 0.0
H329 H 1.00567 0.95077 0.91304 0.0
H330 H 0.04526 0.98082 0.95187 0.0
H331 H 0.06704 0.03174 1.01003 0.0
H332 H 0.02263 0.11957 0.09176 0.0
H333 H 0.98313 0.08972 0.05164 0.0
C334 C 0.9797 1.02615 0.98472 0.0
C335 C 0.98061 0.99258 0.95066 0.0
C336 C 1.00226 0.04347 1.00755 0.0
C337 C 1.00447 0.9766 0.93897 0.0
C338 C 0.02708 0.99374 0.9613 0.0
C339 C 0.04872 0.04439 0.01921 0.0
C340 C 0.04775 0.07784 0.05402 0.0
C341 C 0.02617 0.02712 0.9959 0.0
C342 C 0.02388 0.09385 0.06525 0.0
C343 C 1.00132 0.07681 0.04225 0.0
H344 H 0.49491 0.95449 0.04607 0.0
H345 H 0.44053 0.03652 0.99458 0.0
H346 H 0.47491 0.07454 0.94427 0.0
H347 H 0.52076 0.08503 0.91654 0.0
H348 H 0.57497 1.00277 0.96859 0.0
H349 H 0.54049 0.96457 0.0162 0.0
C350 C 0.49061 0.98068 0.0239 0.0
C351 C 0.46523 0.99261 0.02439 0.0
C352 C 0.51049 1.00249 0.99473 0.0
C353 C 0.45994 1.02662 0.99508 0.0
C354 C 0.4796 0.04845 0.96613 0.0
C355 C 0.52496 0.05868 0.93771 0.0
C356 C 0.55039 0.04686 0.9389 0.0
C357 C 0.50498 0.03671 0.96574 0.0
C358 C 0.55555 1.01265 0.96699 0.0
C359 C 0.53584 0.99069 0.99446 0.0
H360 H 0.06054 0.52629 0.56119 0.0
H361 H 0.01841 0.44049 0.45657 0.0
H362 H 0.97799 0.46959 0.48855 0.0
H363 H 0.95471 0.51986 0.54408 0.0
H364 H 0.99701 0.60568 0.64798 0.0
H365 H 0.03731 0.57598 0.61879 0.0
C366 C 0.04253 0.5139 0.54537 0.0
C367 C 0.0425 0.48128 0.5063 0.0
C368 C 0.01941 0.53076 0.56398 0.0
C369 C 0.01897 0.46559 0.48655 0.0
C370 C 0.99586 0.48222 0.50485 0.0
C371 C 0.97274 0.532 0.56078 0.0
C372 C 0.97284 0.56496 0.59822 0.0
C373 C 0.99585 0.51485 0.54334 0.0
C374 C 0.99637 0.58034 0.6192 0.0
C375 C 0.01944 0.56339 0.60238 0.0
H376 H 0.45661 0.52691 0.5271 0.0
H377 H 0.49943 0.61059 0.40858 0.0
H378 H 0.53966 0.58217 0.45013 0.0
H379 H 0.56252 0.53304 0.51881 0.0
H380 H 0.51911 0.44978 0.6371 0.0
H381 H 0.47919 0.47874 0.59723 0.0
C382 C 0.47473 0.53897 0.51004 0.0
C383 C 0.47502 0.57076 0.4643 0.0
C384 C 0.49765 0.5226 0.5344 0.0
C385 C 0.49868 0.5861 0.44349 0.0
C386 C 0.52167 0.56986 0.46732 0.0
C387 C 0.54432 0.52131 0.53624 0.0
C388 C 0.54382 0.48924 0.58095 0.0
C389 C 0.52137 0.53806 0.51269 0.0
C390 C 0.52007 0.4744 0.60282 0.0
C391 C 0.49722 0.49092 0.57988 0.0
H392 H 0.08258 0.16581 0.71956 0.0
H393 H 0.14236 0.0934 0.78919 0.0
H394 H 0.14382 0.07265 0.64364 0.0
H395 H 0.12883 0.07597 0.49673 0.0
H396 H 0.06937 0.14851 0.42533 0.0
H397 H 0.06733 0.16886 0.57165 0.0
C398 C 0.09612 0.14577 0.7027 0.0
C399 C 0.11238 0.13121 0.76517 0.0
C400 C 0.09689 0.13403 0.61881 0.0
C401 C 0.12947 0.10478 0.74255 0.0
C402 C 0.13038 0.093 0.65931 0.0
C403 C 0.1151 0.0958 0.51329 0.0
C404 C 0.09913 0.11052 0.45029 0.0
C405 C 0.11415 0.1074 0.59707 0.0
C406 C 0.08194 0.13688 0.47258 0.0
C407 C 0.08075 0.14847 0.55618 0.0
H408 H 0.39074 0.98182 0.48177 0.0
H409 H 0.45014 0.90989 0.4128 0.0
H410 H 0.45288 0.88893 0.56016 0.0
H411 H 0.43819 0.89119 0.70897 0.0
H412 H 0.37876 0.96346 0.77587 0.0
H413 H 0.37648 0.98455 0.62908 0.0
C414 C 0.40457 0.96197 0.49908 0.0
C415 C 0.42026 0.94754 0.43645 0.0
C416 C 0.40599 0.95006 0.58356 0.0
C417 C 0.4377 0.92123 0.45977 0.0
C418 C 0.43931 0.90929 0.544 0.0
C419 C 0.42462 0.91132 0.69107 0.0
C420 C 0.40873 0.92583 0.7531 0.0
C421 C 0.42342 0.92338 0.60637 0.0
C422 C 0.39143 0.95223 0.72937 0.0
C423 C 0.39004 0.96421 0.64547 0.0
H424 H 0.0907 0.46747 0.79996 0.0
H425 H 0.12396 0.36588 0.83541 0.0
H426 H 0.12416 0.37313 0.98933 0.0
H427 H 0.11505 0.40856 0.11537 0.0
H428 H 0.08103 0.50978 0.07975 0.0
H429 H 0.08096 0.50251 0.92616 0.0
C430 C 0.09824 0.44713 0.8414 0.0
C431 C 0.10733 0.41619 0.8058 0.0
C432 C 0.09802 0.45131 0.93054 0.0
C433 C 0.11667 0.38986 0.86086 0.0
C434 C 0.11681 0.39398 0.94911 0.0
C435 C 0.10733 0.42881 0.07409 0.0
C436 C 0.0982 0.45976 0.10977 0.0
C437 C 0.10738 0.42452 0.98497 0.0
C438 C 0.08853 0.48587 0.05461 0.0
C439 C 0.08844 0.48173 0.96639 0.0
H440 H 0.42681 0.55709 0.01828 0.0
H441 H 0.4103 0.66043 0.10457 0.0
H442 H 0.40933 0.68208 0.95824 0.0
H443 H 0.41071 0.67099 0.80528 0.0
H444 H 0.42691 0.56752 0.71911 0.0
H445 H 0.42979 0.54644 0.86557 0.0
C446 C 0.42303 0.58432 1.00492 0.0
C447 C 0.4187 0.60703 0.07215 0.0
C448 C 0.42206 0.59651 0.92059 0.0
C449 C 0.41413 0.64243 0.05411 0.0
C450 C 0.41331 0.65481 0.97035 0.0
C451 C 0.41511 0.64393 0.81864 0.0
C452 C 0.41824 0.62085 0.75139 0.0
C453 C 0.41694 0.63199 0.90308 0.0
C454 C 0.42377 0.58573 0.76961 0.0
C455 C 0.42567 0.57367 0.85341 0.0
H456 H 0.9505 0.90935 0.2959 0.0
H457 H 0.88462 0.97113 0.22651 0.0
H458 H 0.88105 0.99137 0.37199 0.0
H459 H 0.89583 0.99035 0.51831 0.0
H460 H 0.96195 0.92945 0.59046 0.0
H461 H 0.96609 0.90951 0.44424 0.0
C462 C 0.93528 0.92701 0.31303 0.0
C463 C 0.91783 0.93875 0.25076 0.0
C464 C 0.93341 0.93865 0.39688 0.0
C465 C 0.89841 0.96205 0.27325 0.0
C466 C 0.89632 0.97352 0.35637 0.0
C467 C 0.9115 0.97329 0.50217 0.0
C468 C 0.92866 0.96163 0.56539 0.0
C469 C 0.91372 0.96203 0.41852 0.0
C470 C 0.94839 0.93869 0.54318 0.0
C471 C 0.95078 0.92733 0.4596 0.0
H472 H 0.59481 0.04816 0.49829 0.0
H473 H 0.60918 0.15298 0.57766 0.0
H474 H 0.60532 0.17419 0.43168 0.0
H475 H 0.60033 0.16248 0.28031 0.0
H476 H 0.58515 0.05789 0.19998 0.0
H477 H 0.58703 0.03699 0.34697 0.0
C478 C 0.59712 0.07558 0.48329 0.0
C479 C 0.60238 0.09892 0.54847 0.0
C480 C 0.59485 0.08761 0.399 0.0
C481 C 0.60493 0.13452 0.52872 0.0
C482 C 0.60283 0.14667 0.44515 0.0
C483 C 0.597 0.13525 0.29515 0.0
C484 C 0.59303 0.11178 0.22929 0.0
C485 C 0.59803 0.12341 0.37972 0.0
C486 C 0.58891 0.07643 0.24935 0.0
C487 C 0.58984 0.06444 0.33344 0.0
H488 H 0.91956 0.57829 0.28069 0.0
H489 H 0.91455 0.6894 0.24438 0.0
H490 H 0.9136 0.6827 0.09093 0.0
H491 H 0.91307 0.64531 0.96507 0.0
H492 H 0.91665 0.53424 1.00016 0.0
H493 H 0.91933 0.5408 0.1543 0.0
C494 C 0.91808 0.60099 0.23929 0.0
C495 C 0.91733 0.63433 0.27497 0.0
C496 C 0.91743 0.59699 0.15004 0.0
C497 C 0.91562 0.66343 0.21951 0.0
C498 C 0.91497 0.65965 0.13126 0.0
C499 C 0.91488 0.62263 1.00646 0.0
C500 C 0.91478 0.58934 0.97088 0.0
C501 C 0.91593 0.62659 0.09555 0.0
C502 C 0.91662 0.56015 0.02578 0.0
C503 C 0.91809 0.56389 0.11409 0.0
H504 H 0.62605 0.45737 0.27762 0.0
H505 H 0.56395 0.38412 0.25281 0.0
H506 H 0.564 0.39307 0.09936 0.0
H507 H 0.5812 0.42233 0.96995 0.0
H508 H 0.64274 0.49625 0.99539 0.0
H509 H 0.64306 0.48673 0.14887 0.0
C510 C 0.61236 0.44354 0.23901 0.0
C511 C 0.59515 0.41988 0.2782 0.0
C512 C 0.61229 0.44899 0.14975 0.0
C513 C 0.57778 0.40206 0.22569 0.0
C514 C 0.57767 0.4073 0.13726 0.0
C515 C 0.59479 0.43616 1.00895 0.0
C516 C 0.61178 0.46021 0.97022 0.0
C517 C 0.59486 0.43065 0.09827 0.0
C518 C 0.62911 0.47804 0.02268 0.0
C519 C 0.62941 0.47248 0.11093 0.0
H520 H 0.13391 0.21604 0.36172 0.0
H521 H 0.13116 0.23342 0.09046 0.0
H522 H 0.13247 0.29631 0.11048 0.0
H523 H 0.13287 0.3467 0.20583 0.0
H524 H 0.13145 0.329 0.47703 0.0
H525 H 0.1334 0.26621 0.45677 0.0
C526 C 0.13384 0.23366 0.30712 0.0
C527 C 0.13261 0.22017 0.22479 0.0
C528 C 0.13377 0.2698 0.31923 0.0
C529 C 0.13204 0.24323 0.15451 0.0
C530 C 0.13283 0.27918 0.16591 0.0
C531 C 0.13324 0.32899 0.26025 0.0
C532 C 0.13216 0.34232 0.34276 0.0
C533 C 0.1335 0.29282 0.24801 0.0
C534 C 0.13218 0.31923 0.41292 0.0
C535 C 0.13333 0.28336 0.40138 0.0
H536 H 0.36066 0.80745 0.10726 0.0
H537 H 0.42376 0.84346 0.25982 0.0
H538 H 0.42713 0.78615 0.32832 0.0
H539 H 0.41284 0.72508 0.34251 0.0
H540 H 0.35013 0.68949 0.18736 0.0
H541 H 0.34601 0.74718 0.1229 0.0
C542 C 0.37512 0.80289 0.15571 0.0
C543 C 0.39195 0.82987 0.178 0.0
C544 C 0.37708 0.76978 0.19454 0.0
C545 C 0.41056 0.82327 0.24101 0.0
C546 C 0.41252 0.79043 0.28033 0.0
C547 C 0.39816 0.72999 0.29498 0.0
C548 C 0.38182 0.7028 0.27012 0.0
C549 C 0.39597 0.76339 0.25729 0.0
C550 C 0.363 0.70975 0.20804 0.0
C551 C 0.36062 0.74282 0.17087 0.0
H552 H 0.89792 0.84162 0.66672 0.0
H553 H 0.89895 0.83844 0.94098 0.0
H554 H 0.89611 0.77512 0.94051 0.0
H555 H 0.89438 0.72035 0.8623 0.0
H556 H 0.89564 0.72334 0.58805 0.0
H557 H 0.89645 0.78679 0.58847 0.0
C558 C 0.89735 0.82707 0.72637 0.0
C559 C 0.89861 0.84481 0.80373 0.0
C560 C 0.89617 0.79053 0.72567 0.0
C561 C 0.89815 0.8255 0.88047 0.0
C562 C 0.89646 0.78924 0.8803 0.0
C563 C 0.89462 0.7349 0.80263 0.0
C564 C 0.89485 0.71707 0.7253 0.0
C565 C 0.8956 0.77144 0.80331 0.0
C566 C 0.89553 0.73635 0.64853 0.0
C567 C 0.89596 0.77268 0.64868 0.0
H568 H 0.62857 0.24441 0.92018 0.0
H569 H 0.62592 0.18461 0.69176 0.0
H570 H 0.62707 0.23798 0.60477 0.0
H571 H 0.62793 0.302 0.59386 0.0
H572 H 0.62683 0.362 0.82253 0.0
H573 H 0.62816 0.3086 0.90923 0.0
C574 C 0.62837 0.2432 0.85135 0.0
C575 C 0.62712 0.21071 0.81209 0.0
C576 C 0.62837 0.27412 0.80193 0.0
C577 C 0.62657 0.20939 0.72301 0.0
C578 C 0.62736 0.23989 0.67341 0.0
C579 C 0.62819 0.30331 0.66266 0.0
C580 C 0.62747 0.33587 0.70176 0.0
C581 C 0.62813 0.27244 0.71212 0.0
C582 C 0.62734 0.33723 0.79098 0.0
C583 C 0.62813 0.3067 0.84059 0.0
loop_
_geom_bond_atom_site_label_1
_geom_bond_atom_site_label_2
_geom_bond_distance
_geom_bond_site_symmetry_2
_ccdc_geom_bond_type
Co0 N4 2.148 1_554 S
Co0 N10 2.128 . S
Co0 N20 2.194 . S
Co0 O25 2.351 . S
Co0 O26 2.155 . S
Co0 O27 2.096 . S
C1 N4 1.301 . S
C1 N5 1.328 . S
C1 H6 0.930 . S
C2 C3 1.333 . S
C2 N4 1.317 . S
C2 H7 0.930 . S
C3 C2 1.333 . S
C3 N5 1.350 . S
C3 H29 0.931 . S
N4 Co0 2.148 1_556 S
N4 C1 1.301 . S
N4 C2 1.317 . S
N5 C1 1.328 . S
N5 C3 1.350 . S
H6 C1 0.930 . S
H7 C2 0.930 . S
C8 O9 1.224 . S
C8 O27 1.247 . S
O9 C8 1.224 . S
N10 Co0 2.128 . S
N10 C11 1.355 . S
N10 C13 1.311 . S
C11 N10 1.355 . S
C11 C12 1.363 . S
C11 H23 0.929 . S
C12 C11 1.363 . S
C12 N14 1.375 . S
C12 H30 0.931 . S
C13 N10 1.311 . S
C13 N14 1.347 . S
C13 H24 0.929 . S
N14 C12 1.375 . S
N14 C13 1.347 . S
C15 C18 1.365 . S
C15 N20 1.328 . S
C15 H21 0.929 . S
C16 C17 1.362 . S
C16 C19 1.378 . S
C16 H31 0.929 . S
C17 C16 1.362 . S
C17 C18 1.366 . S
C18 C15 1.365 . S
C18 C17 1.366 . S
C18 H32 0.930 . S
C19 C16 1.378 . S
C19 N20 1.315 . S
C19 H22 0.930 . S
N20 Co0 2.194 . S
N20 C15 1.328 . S
N20 C19 1.315 . S
H21 C15 0.929 . S
H22 C19 0.930 . S
H23 C11 0.929 . S
H24 C13 0.929 . S
O25 Co0 2.351 . S
O25 C28 1.244 . S
O26 Co0 2.155 . S
O26 C28 1.240 . S
O27 Co0 2.096 . S
O27 C8 1.247 . S
C28 O25 1.244 . S
C28 O26 1.240 . S
H29 C3 0.931 . S
H30 C12 0.931 . S
H31 C16 0.929 . S
H32 C18 0.930 . S
Co33 N37 2.148 1_554 S
Co33 N43 2.128 . S
Co33 N53 2.194 . S
Co33 O58 2.351 . S
Co33 O59 2.155 . S
Co33 O60 2.096 . S
C34 N37 1.301 . S
C34 N38 1.328 . S
C34 H39 0.930 . S
C35 C36 1.333 . S
C35 N37 1.317 . S
C35 H40 0.930 . S
C36 C35 1.333 . S
C36 N38 1.350 . S
C36 H62 0.931 . S
N37 Co33 2.148 1_556 S
N37 C34 1.301 . S
N37 C35 1.317 . S
N38 C34 1.328 . S
N38 C36 1.350 . S
H39 C34 0.930 . S
H40 C35 0.930 . S
C41 O42 1.224 . S
C41 O60 1.247 . S
O42 C41 1.224 . S
N43 Co33 2.128 . S
N43 C44 1.355 . S
N43 C46 1.311 . S
C44 N43 1.355 . S
C44 C45 1.363 . S
C44 H56 0.929 . S
C45 C44 1.363 . S
C45 N47 1.375 . S
C45 H63 0.931 . S
C46 N43 1.311 . S
C46 N47 1.347 . S
C46 H57 0.929 . S
N47 C45 1.375 . S
N47 C46 1.347 . S
C48 C51 1.365 . S
C48 N53 1.328 . S
C48 H54 0.929 . S
C49 C50 1.362 . S
C49 C52 1.378 . S
C49 H64 0.929 . S
C50 C49 1.362 . S
C50 C51 1.366 . S
C51 C48 1.365 . S
C51 C50 1.366 . S
C51 H65 0.930 . S
C52 C49 1.378 . S
C52 N53 1.315 . S
C52 H55 0.930 . S
N53 Co33 2.194 . S
N53 C48 1.328 . S
N53 C52 1.315 . S
H54 C48 0.929 . S
H55 C52 0.930 . S
H56 C44 0.929 . S
H57 C46 0.929 . S
O58 Co33 2.351 . S
O58 C61 1.244 . S
O59 Co33 2.155 . S
O59 C61 1.240 . S
O60 Co33 2.096 . S
O60 C41 1.247 . S
C61 O58 1.244 . S
C61 O59 1.240 . S
H62 C36 0.931 . S
H63 C45 0.931 . S
H64 C49 0.929 . S
H65 C51 0.930 . S
Co66 N70 2.148 . S
Co66 N76 2.128 . S
Co66 N86 2.194 . S
Co66 O91 2.351 . S
Co66 O92 2.155 . S
Co66 O93 2.096 . S
C67 N70 1.301 . S
C67 N71 1.328 . S
C67 H72 0.930 . S
C68 C69 1.333 . S
C68 N70 1.317 . S
C68 H73 0.930 . S
C69 C68 1.333 . S
C69 N71 1.350 . S
C69 H95 0.931 . S
N70 Co66 2.148 . S
N70 C67 1.301 . S
N70 C68 1.317 . S
N71 C67 1.328 . S
N71 C69 1.350 . S
H72 C67 0.930 . S
H73 C68 0.930 . S
C74 O75 1.224 . S
C74 O93 1.247 . S
O75 C74 1.224 . S
N76 Co66 2.128 . S
N76 C77 1.355 . S
N76 C79 1.311 . S
C77 N76 1.355 . S
C77 C78 1.363 . S
C77 H89 0.929 . S
C78 C77 1.363 . S
C78 N80 1.375 . S
C78 H96 0.931 . S
C79 N76 1.311 . S
C79 N80 1.347 . S
C79 H90 0.929 . S
N80 C78 1.375 . S
N80 C79 1.347 . S
C81 C84 1.365 . S
C81 N86 1.328 . S
C81 H87 0.929 . S
C82 C83 1.362 . S
C82 C85 1.378 . S
C82 H97 0.929 . S
C83 C82 1.362 . S
C83 C84 1.366 . S
C84 C81 1.365 . S
C84 C83 1.366 . S
C84 H98 0.930 . S
C85 C82 1.378 . S
C85 N86 1.315 . S
C85 H88 0.930 . S
N86 Co66 2.194 . S
N86 C81 1.328 . S
N86 C85 1.315 . S
H87 C81 0.929 . S
H88 C85 0.930 . S
H89 C77 0.929 . S
H90 C79 0.929 . S
O91 Co66 2.351 . S
O91 C94 1.244 . S
O92 Co66 2.155 . S
O92 C94 1.240 . S
O93 Co66 2.096 . S
O93 C74 1.247 . S
C94 O91 1.244 . S
C94 O92 1.240 . S
H95 C69 0.931 . S
H96 C78 0.931 . S
H97 C82 0.929 . S
H98 C84 0.930 . S
Co99 N103 2.148 . S
Co99 N109 2.128 . S
Co99 N119 2.194 . S
Co99 O124 2.351 . S
Co99 O125 2.155 . S
Co99 O126 2.096 . S
C100 N103 1.301 . S
C100 N104 1.328 . S
C100 H105 0.930 . S
C101 C102 1.333 . S
C101 N103 1.317 . S
C101 H106 0.930 . S
C102 C101 1.333 . S
C102 N104 1.350 . S
C102 H128 0.931 . S
N103 Co99 2.148 . S
N103 C100 1.301 . S
N103 C101 1.317 . S
N104 C100 1.328 . S
N104 C102 1.350 . S
H105 C100 0.930 . S
H106 C101 0.930 . S
C107 O108 1.224 . S
C107 O126 1.247 . S
O108 C107 1.224 . S
N109 Co99 2.128 . S
N109 C110 1.355 . S
N109 C112 1.311 . S
C110 N109 1.355 . S
C110 C111 1.363 . S
C110 H122 0.929 . S
C111 C110 1.363 . S
C111 N113 1.375 . S
C111 H129 0.931 . S
C112 N109 1.311 . S
C112 N113 1.347 . S
C112 H123 0.929 . S
N113 C111 1.375 . S
N113 C112 1.347 . S
C114 C117 1.365 . S
C114 N119 1.328 . S
C114 H120 0.929 . S
C115 C116 1.362 . S
C115 C118 1.378 . S
C115 H130 0.929 . S
C116 C115 1.362 . S
C116 C117 1.366 . S
C117 C114 1.365 . S
C117 C116 1.366 . S
C117 H131 0.930 . S
C118 C115 1.378 . S
C118 N119 1.315 . S
C118 H121 0.930 . S
N119 Co99 2.194 . S
N119 C114 1.328 . S
N119 C118 1.315 . S
H120 C114 0.929 . S
H121 C118 0.930 . S
H122 C110 0.929 . S
H123 C112 0.929 . S
O124 Co99 2.351 . S
O124 C127 1.244 . S
O125 Co99 2.155 . S
O125 C127 1.240 . S
O126 Co99 2.096 . S
O126 C107 1.247 . S
C127 O124 1.244 . S
C127 O125 1.240 . S
H128 C102 0.931 . S
H129 C111 0.931 . S
H130 C115 0.929 . S
H131 C117 0.930 . S
Co132 N136 2.148 1_556 S
Co132 N142 2.128 . S
Co132 N152 2.194 . S
Co132 O157 2.351 . S
Co132 O158 2.155 . S
Co132 O159 2.096 . S
C133 N136 1.301 . S
C133 N137 1.328 . S
C133 H138 0.930 . S
C134 C135 1.333 . S
C134 N136 1.317 . S
C134 H139 0.930 . S
C135 C134 1.333 . S
C135 N137 1.350 . S
C135 H161 0.931 . S
N136 Co132 2.148 1_554 S
N136 C133 1.301 . S
N136 C134 1.317 . S
N137 C133 1.328 . S
N137 C135 1.350 . S
H138 C133 0.930 . S
H139 C134 0.930 . S
C140 O141 1.224 . S
C140 O159 1.247 . S
O141 C140 1.224 . S
N142 Co132 2.128 . S
N142 C143 1.355 . S
N142 C145 1.311 . S
C143 N142 1.355 . S
C143 C144 1.363 . S
C143 H155 0.929 . S
C144 C143 1.363 . S
C144 N146 1.375 . S
C144 H162 0.931 . S
C145 N142 1.311 . S
C145 N146 1.347 . S
C145 H156 0.929 . S
N146 C144 1.375 . S
N146 C145 1.347 . S
C147 C150 1.365 . S
C147 N152 1.328 . S
C147 H153 0.929 . S
C148 C149 1.362 . S
C148 C151 1.378 . S
C148 H163 0.929 . S
C149 C148 1.362 . S
C149 C150 1.366 . S
C150 C147 1.365 . S
C150 C149 1.366 . S
C150 H164 0.930 . S
C151 C148 1.378 . S
C151 N152 1.315 . S
C151 H154 0.930 . S
N152 Co132 2.194 . S
N152 C147 1.328 . S
N152 C151 1.315 . S
H153 C147 0.929 . S
H154 C151 0.930 . S
H155 C143 0.929 . S
H156 C145 0.929 . S
O157 Co132 2.351 . S
O157 C160 1.244 . S
O158 Co132 2.155 . S
O158 C160 1.240 . S
O159 Co132 2.096 . S
O159 C140 1.247 . S
C160 O157 1.244 . S
C160 O158 1.240 . S
H161 C135 0.931 . S
H162 C144 0.931 . S
H163 C148 0.929 . S
H164 C150 0.930 . S
Co165 N169 2.148 1_556 S
Co165 N175 2.128 . S
Co165 N185 2.194 . S
Co165 O190 2.351 . S
Co165 O191 2.155 . S
Co165 O192 2.096 . S
C166 N169 1.301 . S
C166 N170 1.328 . S
C166 H171 0.930 . S
C167 C168 1.333 . S
C167 N169 1.317 . S
C167 H172 0.930 . S
C168 C167 1.333 . S
C168 N170 1.350 . S
C168 H194 0.931 . S
N169 Co165 2.148 1_554 S
N169 C166 1.301 . S
N169 C167 1.317 . S
N170 C166 1.328 . S
N170 C168 1.350 . S
H171 C166 0.930 . S
H172 C167 0.930 . S
C173 O174 1.224 . S
C173 O192 1.247 . S
O174 C173 1.224 . S
N175 Co165 2.128 . S
N175 C176 1.355 . S
N175 C178 1.311 . S
C176 N175 1.355 . S
C176 C177 1.363 . S
C176 H188 0.929 . S
C177 C176 1.363 . S
C177 N179 1.375 . S
C177 H195 0.931 . S
C178 N175 1.311 . S
C178 N179 1.347 . S
C178 H189 0.929 . S
N179 C177 1.375 . S
N179 C178 1.347 . S
C180 C183 1.365 . S
C180 N185 1.328 . S
C180 H186 0.929 . S
C181 C182 1.362 . S
C181 C184 1.378 . S
C181 H196 0.929 . S
C182 C181 1.362 . S
C182 C183 1.366 . S
C183 C180 1.365 . S
C183 C182 1.366 . S
C183 H197 0.930 . S
C184 C181 1.378 . S
C184 N185 1.315 . S
C184 H187 0.930 . S
N185 Co165 2.194 . S
N185 C180 1.328 . S
N185 C184 1.315 . S
H186 C180 0.929 . S
H187 C184 0.930 . S
H188 C176 0.929 . S
H189 C178 0.929 . S
O190 Co165 2.351 . S
O190 C193 1.244 . S
O191 Co165 2.155 . S
O191 C193 1.240 . S
O192 Co165 2.096 . S
O192 C173 1.247 . S
C193 O190 1.244 . S
C193 O191 1.240 . S
H194 C168 0.931 . S
H195 C177 0.931 . S
H196 C181 0.929 . S
H197 C183 0.930 . S
Co198 N202 2.148 . S
Co198 N208 2.128 . S
Co198 N218 2.194 . S
Co198 O223 2.351 . S
Co198 O224 2.155 . S
Co198 O225 2.096 . S
C199 N202 1.301 . S
C199 N203 1.328 . S
C199 H204 0.930 . S
C200 C201 1.333 . S
C200 N202 1.317 . S
C200 H205 0.930 . S
C201 C200 1.333 . S
C201 N203 1.350 . S
C201 H227 0.931 . S
N202 Co198 2.148 . S
N202 C199 1.301 . S
N202 C200 1.317 . S
N203 C199 1.328 . S
N203 C201 1.350 . S
H204 C199 0.930 . S
H205 C200 0.930 . S
C206 O207 1.224 . S
C206 O225 1.247 . S
O207 C206 1.224 . S
N208 Co198 2.128 . S
N208 C209 1.355 . S
N208 C211 1.311 . S
C209 N208 1.355 . S
C209 C210 1.363 . S
C209 H221 0.929 . S
C210 C209 1.363 . S
C210 N212 1.375 . S
C210 H228 0.931 . S
C211 N208 1.311 . S
C211 N212 1.347 . S
C211 H222 0.929 . S
N212 C210 1.375 . S
N212 C211 1.347 . S
C213 C216 1.365 . S
C213 N218 1.328 . S
C213 H219 0.929 . S
C214 C215 1.362 . S
C214 C217 1.378 . S
C214 H229 0.929 . S
C215 C214 1.362 . S
C215 C216 1.366 . S
C216 C213 1.365 . S
C216 C215 1.366 . S
C216 H230 0.930 . S
C217 C214 1.378 . S
C217 N218 1.315 . S
C217 H220 0.930 . S
N218 Co198 2.194 . S
N218 C213 1.328 . S
N218 C217 1.315 . S
H219 C213 0.929 . S
H220 C217 0.930 . S
H221 C209 0.929 . S
H222 C211 0.929 . S
O223 Co198 2.351 . S
O223 C226 1.244 . S
O224 Co198 2.155 . S
O224 C226 1.240 . S
O225 Co198 2.096 . S
O225 C206 1.247 . S
C226 O223 1.244 . S
C226 O224 1.240 . S
H227 C201 0.931 . S
H228 C210 0.931 . S
H229 C214 0.929 . S
H230 C216 0.930 . S
Co231 N235 2.148 . S
Co231 N241 2.128 . S
Co231 N251 2.194 . S
Co231 O256 2.351 . S
Co231 O257 2.155 . S
Co231 O258 2.096 . S
C232 N235 1.301 . S
C232 N236 1.328 . S
C232 H237 0.930 . S
C233 C234 1.333 . S
C233 N235 1.317 . S
C233 H238 0.930 . S
C234 C233 1.333 . S
C234 N236 1.350 . S
C234 H260 0.931 . S
N235 Co231 2.148 . S
N235 C232 1.301 . S
N235 C233 1.317 . S
N236 C232 1.328 . S
N236 C234 1.350 . S
H237 C232 0.930 . S
H238 C233 0.930 . S
C239 O240 1.224 . S
C239 O258 1.247 . S
O240 C239 1.224 . S
N241 Co231 2.128 . S
N241 C242 1.355 . S
N241 C244 1.311 . S
C242 N241 1.355 . S
C242 C243 1.363 . S
C242 H254 0.929 . S
C243 C242 1.363 . S
C243 N245 1.375 . S
C243 H261 0.931 . S
C244 N241 1.311 . S
C244 N245 1.347 . S
C244 H255 0.929 . S
N245 C243 1.375 . S
N245 C244 1.347 . S
C246 C249 1.365 . S
C246 N251 1.328 . S
C246 H252 0.929 . S
C247 C248 1.362 . S
C247 C250 1.378 . S
C247 H262 0.929 . S
C248 C247 1.362 . S
C248 C249 1.366 . S
C249 C246 1.365 . S
C249 C248 1.366 . S
C249 H263 0.930 . S
C250 C247 1.378 . S
C250 N251 1.315 . S
C250 H253 0.930 . S
N251 Co231 2.194 . S
N251 C246 1.328 . S
N251 C250 1.315 . S
H252 C246 0.929 . S
H253 C250 0.930 . S
H254 C242 0.929 . S
H255 C244 0.929 . S
O256 Co231 2.351 . S
O256 C259 1.244 . S
O257 Co231 2.155 . S
O257 C259 1.240 . S
O258 Co231 2.096 . S
O258 C239 1.247 . S
C259 O256 1.244 . S
C259 O257 1.240 . S
H260 C234 0.931 . S
H261 C243 0.931 . S
H262 C247 0.929 . S
H263 C249 0.930 . S
H264 C270 0.930 . S
H265 C273 0.930 . S
H266 C274 0.930 . S
H267 C275 0.930 . S
H268 C278 0.930 . S
H269 C279 0.930 . S
C270 H264 0.930 . S
C270 C271 1.355 1_545 S
C270 C272 1.415 . S
C271 C270 1.355 1_565 S
C271 C273 1.419 . S
C272 C270 1.415 . S
C272 C277 1.425 1_545 S
C272 C279 1.409 . S
C273 H265 0.930 . S
C273 C271 1.419 . S
C273 C274 1.362 . S
C274 H266 0.930 . S
C274 C273 1.362 . S
C274 C277 1.409 . S
C275 H267 0.930 . S
C275 C276 1.355 1_565 S
C275 C277 1.415 . S
C276 C275 1.355 1_545 S
C276 C278 1.419 . S
C277 C272 1.425 1_565 S
C277 C274 1.409 . S
C277 C275 1.415 . S
C278 H268 0.930 . S
C278 C276 1.419 . S
C278 C279 1.362 . S
C279 H269 0.930 . S
C279 C272 1.409 . S
C279 C278 1.362 . S
H280 C286 0.930 . S
H281 C289 0.930 . S
H282 C290 0.930 . S
H283 C291 0.930 . S
H284 C294 0.930 . S
H285 C295 0.930 . S
C286 H280 0.930 . S
C286 C287 1.355 . S
C286 C288 1.415 . S
C287 C286 1.355 . S
C287 C289 1.419 . S
C288 C286 1.415 . S
C288 C293 1.425 . S
C288 C295 1.409 . S
C289 H281 0.930 . S
C289 C287 1.419 . S
C289 C290 1.362 . S
C290 H282 0.930 . S
C290 C289 1.362 . S
C290 C293 1.409 . S
C291 H283 0.930 . S
C291 C292 1.355 . S
C291 C293 1.415 . S
C292 C291 1.355 . S
C292 C294 1.419 . S
C293 C288 1.425 . S
C293 C290 1.409 . S
C293 C291 1.415 . S
C294 H284 0.930 . S
C294 C292 1.419 . S
C294 C295 1.362 . S
C295 H285 0.930 . S
C295 C288 1.409 . S
C295 C294 1.362 . S
H296 C302 0.930 . S
H297 C305 0.930 . S
H298 C306 0.930 . S
H299 C307 0.930 . S
H300 C310 0.930 . S
H301 C311 0.930 . S
C302 H296 0.930 . S
C302 C303 1.355 . S
C302 C304 1.415 . S
C303 C302 1.355 . S
C303 C305 1.419 1_545 S
C304 C302 1.415 . S
C304 C309 1.425 1_545 S
C304 C311 1.409 . S
C305 H297 0.930 . S
C305 C303 1.419 1_565 S
C305 C306 1.362 . S
C306 H298 0.930 . S
C306 C305 1.362 . S
C306 C309 1.409 . S
C307 H299 0.930 . S
C307 C308 1.355 . S
C307 C309 1.415 . S
C308 C307 1.355 . S
C308 C310 1.419 1_565 S
C309 C304 1.425 1_565 S
C309 C306 1.409 . S
C309 C307 1.415 . S
C310 H300 0.930 . S
C310 C308 1.419 1_545 S
C310 C311 1.362 . S
C311 H301 0.930 . S
C311 C304 1.409 . S
C311 C310 1.362 . S
H312 C318 0.930 . S
H313 C321 0.930 . S
H314 C322 0.930 . S
H315 C323 0.930 . S
H316 C326 0.930 . S
H317 C327 0.930 . S
C318 H312 0.930 . S
C318 C319 1.355 . S
C318 C320 1.415 . S
C319 C318 1.355 . S
C319 C321 1.419 . S
C320 C318 1.415 . S
C320 C325 1.425 . S
C320 C327 1.409 . S
C321 H313 0.930 . S
C321 C319 1.419 . S
C321 C322 1.362 . S
C322 H314 0.930 . S
C322 C321 1.362 . S
C322 C325 1.409 . S
C323 H315 0.930 . S
C323 C324 1.355 . S
C323 C325 1.415 . S
C324 C323 1.355 . S
C324 C326 1.419 . S
C325 C320 1.425 . S
C325 C322 1.409 . S
C325 C323 1.415 . S
C326 H316 0.930 . S
C326 C324 1.419 . S
C326 C327 1.362 . S
C327 H317 0.930 . S
C327 C320 1.409 . S
C327 C326 1.362 . S
H328 C334 0.930 . S
H329 C337 0.930 . S
H330 C338 0.930 1_455 S
H331 C339 0.930 . S
H332 C342 0.930 . S
H333 C343 0.930 1_655 S
C334 H328 0.930 . S
C334 C335 1.355 1_554 S
C334 C336 1.415 . S
C335 C334 1.355 1_556 S
C335 C337 1.419 . S
C336 C334 1.415 . S
C336 C341 1.425 1_664 S
C336 C343 1.409 1_655 S
C337 H329 0.930 . S
C337 C335 1.419 . S
C337 C338 1.362 1_565 S
C338 H330 0.930 1_655 S
C338 C337 1.362 1_545 S
C338 C341 1.409 1_655 S
C339 H331 0.930 . S
C339 C340 1.355 1_556 S
C339 C341 1.415 . S
C340 C339 1.355 1_554 S
C340 C342 1.419 . S
C341 C336 1.425 1_446 S
C341 C338 1.409 1_455 S
C341 C339 1.415 . S
C342 H332 0.930 . S
C342 C340 1.419 . S
C342 C343 1.362 1_545 S
C343 H333 0.930 1_455 S
C343 C336 1.409 1_455 S
C343 C342 1.362 1_565 S
H344 C350 0.930 . S
H345 C353 0.929 1_546 S
H346 C354 0.930 . S
H347 C355 0.930 . S
H348 C358 0.929 1_564 S
H349 C359 0.930 . S
C350 H344 0.930 . S
C350 C351 1.355 . S
C350 C352 1.415 . S
C351 C350 1.355 . S
C351 C353 1.419 . S
C352 C350 1.415 . S
C352 C357 1.425 1_564 S
C352 C359 1.409 . S
C353 H345 0.929 1_564 S
C353 C351 1.419 . S
C353 C354 1.362 1_564 S
C354 H346 0.930 . S
C354 C353 1.362 1_546 S
C354 C357 1.409 . S
C355 H347 0.930 . S
C355 C356 1.355 . S
C355 C357 1.415 . S
C356 C355 1.355 . S
C356 C358 1.419 . S
C357 C352 1.425 1_546 S
C357 C354 1.409 . S
C357 C355 1.415 . S
C358 H348 0.929 1_546 S
C358 C356 1.419 . S
C358 C359 1.362 1_546 S
C359 H349 0.930 . S
C359 C352 1.409 . S
C359 C358 1.362 1_564 S
H360 C366 0.930 . S
H361 C369 0.930 . S
H362 C370 0.930 . S
H363 C371 0.930 . S
H364 C374 0.930 . S
H365 C375 0.930 . S
C366 H360 0.930 . S
C366 C367 1.355 . S
C366 C368 1.415 . S
C367 C366 1.355 . S
C367 C369 1.419 . S
C368 C366 1.415 . S
C368 C373 1.425 1_455 S
C368 C375 1.409 1_455 S
C369 H361 0.930 . S
C369 C367 1.419 . S
C369 C370 1.362 . S
C370 H362 0.930 . S
C370 C369 1.362 . S
C370 C373 1.409 1_455 S
C371 H363 0.930 . S
C371 C372 1.355 . S
C371 C373 1.415 . S
C372 C371 1.355 . S
C372 C374 1.419 . S
C373 C368 1.425 1_655 S
C373 C370 1.409 1_655 S
C373 C371 1.415 . S
C374 H364 0.930 . S
C374 C372 1.419 . S
C374 C375 1.362 . S
C375 H365 0.930 . S
C375 C368 1.409 1_655 S
C375 C374 1.362 . S
H376 C382 0.930 . S
H377 C385 0.930 . S
H378 C386 0.930 . S
H379 C387 0.930 . S
H380 C390 0.930 . S
H381 C391 0.930 . S
C382 H376 0.930 . S
C382 C383 1.355 . S
C382 C384 1.415 . S
C383 C382 1.355 . S
C383 C385 1.419 . S
C384 C382 1.415 . S
C384 C389 1.425 . S
C384 C391 1.409 . S
C385 H377 0.930 . S
C385 C383 1.419 . S
C385 C386 1.362 . S
C386 H378 0.930 . S
C386 C385 1.362 . S
C386 C389 1.409 . S
C387 H379 0.930 . S
C387 C388 1.355 . S
C387 C389 1.415 . S
C388 C387 1.355 . S
C388 C390 1.419 . S
C389 C384 1.425 . S
C389 C386 1.409 . S
C389 C387 1.415 . S
C390 H380 0.930 . S
C390 C388 1.419 . S
C390 C391 1.362 . S
C391 H381 0.930 . S
C391 C384 1.409 . S
C391 C390 1.362 . S
H392 C398 0.930 . S
H393 C401 0.930 . S
H394 C402 0.930 . S
H395 C403 0.930 . S
H396 C406 0.930 . S
H397 C407 0.930 . S
C398 H392 0.930 . S
C398 C399 1.355 . S
C398 C400 1.415 . S
C399 C398 1.355 . S
C399 C401 1.419 . S
C400 C398 1.415 . S
C400 C405 1.425 . S
C400 C407 1.409 . S
C401 H393 0.930 . S
C401 C399 1.419 . S
C401 C402 1.362 . S
C402 H394 0.930 . S
C402 C401 1.362 . S
C402 C405 1.409 . S
C403 H395 0.930 . S
C403 C404 1.355 . S
C403 C405 1.415 . S
C404 C403 1.355 . S
C404 C406 1.419 . S
C405 C400 1.425 . S
C405 C402 1.409 . S
C405 C403 1.415 . S
C406 H396 0.930 . S
C406 C404 1.419 . S
C406 C407 1.362 . S
C407 H397 0.930 . S
C407 C400 1.409 . S
C407 C406 1.362 . S
H408 C414 0.930 . S
H409 C417 0.930 . S
H410 C418 0.930 . S
H411 C419 0.930 . S
H412 C422 0.930 . S
H413 C423 0.930 . S
C414 H408 0.930 . S
C414 C415 1.355 . S
C414 C416 1.415 . S
C415 C414 1.355 . S
C415 C417 1.419 . S
C416 C414 1.415 . S
C416 C421 1.425 . S
C416 C423 1.409 . S
C417 H409 0.930 . S
C417 C415 1.419 . S
C417 C418 1.362 . S
C418 H410 0.930 . S
C418 C417 1.362 . S
C418 C421 1.409 . S
C419 H411 0.930 . S
C419 C420 1.355 . S
C419 C421 1.415 . S
C420 C419 1.355 . S
C420 C422 1.419 . S
C421 C416 1.425 . S
C421 C418 1.409 . S
C421 C419 1.415 . S
C422 H412 0.930 . S
C422 C420 1.419 . S
C422 C423 1.362 . S
C423 H413 0.930 . S
C423 C416 1.409 . S
C423 C422 1.362 . S
H424 C430 0.930 . S
H425 C433 0.930 . S
H426 C434 0.930 . S
H427 C435 0.930 1_554 S
H428 C438 0.930 . S
H429 C439 0.930 . S
C430 H424 0.930 . S
C430 C431 1.355 . S
C430 C432 1.415 . S
C431 C430 1.355 . S
C431 C433 1.419 . S
C432 C430 1.415 . S
C432 C437 1.425 . S
C432 C439 1.409 . S
C433 H425 0.930 . S
C433 C431 1.419 . S
C433 C434 1.362 . S
C434 H426 0.930 . S
C434 C433 1.362 . S
C434 C437 1.409 . S
C435 H427 0.930 1_556 S
C435 C436 1.355 1_556 S
C435 C437 1.415 . S
C436 C435 1.355 1_554 S
C436 C438 1.419 . S
C437 C432 1.425 . S
C437 C434 1.409 . S
C437 C435 1.415 . S
C438 H428 0.930 . S
C438 C436 1.419 . S
C438 C439 1.362 1_554 S
C439 H429 0.930 . S
C439 C432 1.409 . S
C439 C438 1.362 1_556 S
H440 C446 0.930 1_554 S
H441 C449 0.930 . S
H442 C450 0.930 . S
H443 C451 0.930 . S
H444 C454 0.930 . S
H445 C455 0.930 . S
C446 H440 0.930 1_556 S
C446 C447 1.355 1_556 S
C446 C448 1.415 . S
C447 C446 1.355 1_554 S
C447 C449 1.419 . S
C448 C446 1.415 . S
C448 C453 1.425 . S
C448 C455 1.409 . S
C449 H441 0.930 . S
C449 C447 1.419 . S
C449 C450 1.362 1_554 S
C450 H442 0.930 . S
C450 C449 1.362 1_556 S
C450 C453 1.409 . S
C451 H443 0.930 . S
C451 C452 1.355 . S
C451 C453 1.415 . S
C452 C451 1.355 . S
C452 C454 1.419 . S
C453 C448 1.425 . S
C453 C450 1.409 . S
C453 C451 1.415 . S
C454 H444 0.930 . S
C454 C452 1.419 . S
C454 C455 1.362 . S
C455 H445 0.930 . S
C455 C448 1.409 . S
C455 C454 1.362 . S
H456 C462 0.930 . S
H457 C465 0.930 . S
H458 C466 0.930 . S
H459 C467 0.930 . S
H460 C470 0.930 . S
H461 C471 0.930 . S
C462 H456 0.930 . S
C462 C463 1.355 . S
C462 C464 1.415 . S
C463 C462 1.355 . S
C463 C465 1.419 . S
C464 C462 1.415 . S
C464 C469 1.425 . S
C464 C471 1.409 . S
C465 H457 0.930 . S
C465 C463 1.419 . S
C465 C466 1.362 . S
C466 H458 0.930 . S
C466 C465 1.362 . S
C466 C469 1.409 . S
C467 H459 0.930 . S
C467 C468 1.355 . S
C467 C469 1.415 . S
C468 C467 1.355 . S
C468 C470 1.419 . S
C469 C464 1.425 . S
C469 C466 1.409 . S
C469 C467 1.415 . S
C470 H460 0.930 . S
C470 C468 1.419 . S
C470 C471 1.362 . S
C471 H461 0.930 . S
C471 C464 1.409 . S
C471 C470 1.362 . S
H472 C478 0.930 . S
H473 C481 0.930 . S
H474 C482 0.930 . S
H475 C483 0.930 . S
H476 C486 0.930 . S
H477 C487 0.930 . S
C478 H472 0.930 . S
C478 C479 1.355 . S
C478 C480 1.415 . S
C479 C478 1.355 . S
C479 C481 1.419 . S
C480 C478 1.415 . S
C480 C485 1.425 . S
C480 C487 1.409 . S
C481 H473 0.930 . S
C481 C479 1.419 . S
C481 C482 1.362 . S
C482 H474 0.930 . S
C482 C481 1.362 . S
C482 C485 1.409 . S
C483 H475 0.930 . S
C483 C484 1.355 . S
C483 C485 1.415 . S
C484 C483 1.355 . S
C484 C486 1.419 . S
C485 C480 1.425 . S
C485 C482 1.409 . S
C485 C483 1.415 . S
C486 H476 0.930 . S
C486 C484 1.419 . S
C486 C487 1.362 . S
C487 H477 0.930 . S
C487 C480 1.409 . S
C487 C486 1.362 . S
H488 C494 0.930 . S
H489 C497 0.930 . S
H490 C498 0.930 . S
H491 C499 0.930 1_556 S
H492 C502 0.930 . S
H493 C503 0.930 . S
C494 H488 0.930 . S
C494 C495 1.355 . S
C494 C496 1.415 . S
C495 C494 1.355 . S
C495 C497 1.419 . S
C496 C494 1.415 . S
C496 C501 1.425 . S
C496 C503 1.409 . S
C497 H489 0.930 . S
C497 C495 1.419 . S
C497 C498 1.362 . S
C498 H490 0.930 . S
C498 C497 1.362 . S
C498 C501 1.409 . S
C499 H491 0.930 1_554 S
C499 C500 1.355 1_554 S
C499 C501 1.415 . S
C500 C499 1.355 1_556 S
C500 C502 1.419 . S
C501 C496 1.425 . S
C501 C498 1.409 . S
C501 C499 1.415 . S
C502 H492 0.930 . S
C502 C500 1.419 . S
C502 C503 1.362 1_556 S
C503 H493 0.930 . S
C503 C496 1.409 . S
C503 C502 1.362 1_554 S
H504 C510 0.930 . S
H505 C513 0.930 . S
H506 C514 0.930 . S
H507 C515 0.930 1_556 S
H508 C518 0.930 . S
H509 C519 0.930 . S
C510 H504 0.930 . S
C510 C511 1.355 . S
C510 C512 1.415 . S
C511 C510 1.355 . S
C511 C513 1.419 . S
C512 C510 1.415 . S
C512 C517 1.425 . S
C512 C519 1.409 . S
C513 H505 0.930 . S
C513 C511 1.419 . S
C513 C514 1.362 . S
C514 H506 0.930 . S
C514 C513 1.362 . S
C514 C517 1.409 . S
C515 H507 0.930 1_554 S
C515 C516 1.355 1_554 S
C515 C517 1.415 . S
C516 C515 1.355 1_556 S
C516 C518 1.419 . S
C517 C512 1.425 . S
C517 C514 1.409 . S
C517 C515 1.415 . S
C518 H508 0.930 . S
C518 C516 1.419 . S
C518 C519 1.362 1_556 S
C519 H509 0.930 . S
C519 C512 1.409 . S
C519 C518 1.362 1_554 S
H520 C526 0.930 . S
H521 C529 0.930 . S
H522 C530 0.930 . S
H523 C531 0.930 . S
H524 C534 0.930 . S
H525 C535 0.930 . S
C526 H520 0.930 . S
C526 C527 1.355 . S
C526 C528 1.415 . S
C527 C526 1.355 . S
C527 C529 1.419 . S
C528 C526 1.415 . S
C528 C533 1.425 . S
C528 C535 1.409 . S
C529 H521 0.930 . S
C529 C527 1.419 . S
C529 C530 1.362 . S
C530 H522 0.930 . S
C530 C529 1.362 . S
C530 C533 1.409 . S
C531 H523 0.930 . S
C531 C532 1.355 . S
C531 C533 1.415 . S
C532 C531 1.355 . S
C532 C534 1.419 . S
C533 C528 1.425 . S
C533 C530 1.409 . S
C533 C531 1.415 . S
C534 H524 0.930 . S
C534 C532 1.419 . S
C534 C535 1.362 . S
C535 H525 0.930 . S
C535 C528 1.409 . S
C535 C534 1.362 . S
H536 C542 0.930 . S
H537 C545 0.930 . S
H538 C546 0.930 . S
H539 C547 0.930 . S
H540 C550 0.930 . S
H541 C551 0.930 . S
C542 H536 0.930 . S
C542 C543 1.355 . S
C542 C544 1.415 . S
C543 C542 1.355 . S
C543 C545 1.419 . S
C544 C542 1.415 . S
C544 C549 1.425 . S
C544 C551 1.409 . S
C545 H537 0.930 . S
C545 C543 1.419 . S
C545 C546 1.362 . S
C546 H538 0.930 . S
C546 C545 1.362 . S
C546 C549 1.409 . S
C547 H539 0.930 . S
C547 C548 1.355 . S
C547 C549 1.415 . S
C548 C547 1.355 . S
C548 C550 1.419 . S
C549 C544 1.425 . S
C549 C546 1.409 . S
C549 C547 1.415 . S
C550 H540 0.930 . S
C550 C548 1.419 . S
C550 C551 1.362 . S
C551 H541 0.930 . S
C551 C544 1.409 . S
C551 C550 1.362 . S
H552 C558 0.930 . S
H553 C561 0.930 . S
H554 C562 0.930 . S
H555 C563 0.930 . S
H556 C566 0.930 . S
H557 C567 0.930 . S
C558 H552 0.930 . S
C558 C559 1.355 . S
C558 C560 1.415 . S
C559 C558 1.355 . S
C559 C561 1.419 . S
C560 C558 1.415 . S
C560 C565 1.425 . S
C560 C567 1.409 . S
C561 H553 0.930 . S
C561 C559 1.419 . S
C561 C562 1.362 . S
C562 H554 0.930 . S
C562 C561 1.362 . S
C562 C565 1.409 . S
C563 H555 0.930 . S
C563 C564 1.355 . S
C563 C565 1.415 . S
C564 C563 1.355 . S
C564 C566 1.419 . S
C565 C560 1.425 . S
C565 C562 1.409 . S
C565 C563 1.415 . S
C566 H556 0.930 . S
C566 C564 1.419 . S
C566 C567 1.362 . S
C567 H557 0.930 . S
C567 C560 1.409 . S
C567 C566 1.362 . S
H568 C574 0.930 . S
H569 C577 0.930 . S
H570 C578 0.930 . S
H571 C579 0.930 . S
H572 C582 0.930 . S
H573 C583 0.930 . S
C574 H568 0.930 . S
C574 C575 1.355 . S
C574 C576 1.415 . S
C575 C574 1.355 . S
C575 C577 1.419 . S
C576 C574 1.415 . S
C576 C581 1.425 . S
C576 C583 1.409 . S
C577 H569 0.930 . S
C577 C575 1.419 . S
C577 C578 1.362 . S
C578 H570 0.930 . S
C578 C577 1.362 . S
C578 C581 1.409 . S
C579 H571 0.930 . S
C579 C580 1.355 . S
C579 C581 1.415 . S
C580 C579 1.355 . S
C580 C582 1.419 . S
C581 C576 1.425 . S
C581 C578 1.409 . S
C581 C579 1.415 . S
C582 H572 0.930 . S
C582 C580 1.419 . S
C582 C583 1.362 . S
C583 H573 0.930 . S
C583 C576 1.409 . S
C583 C582 1.362 . S
C271 C50 1.501 . S
C276 C17 1.500 . S
C287 C83 1.511 . S
C292 C116 1.499 . S
C303 C182 1.512 . S
C308 C149 1.511 . S
C319 C215 1.510 . S
C324 C248 1.499 . S
C335 C160 1.529 . S
C340 C28 1.529 . S
C351 C61 1.526 . S
C356 C193 1.526 . S
C367 C94 1.522 . S
C372 C226 1.522 . S
C383 C127 1.524 . S
C388 C259 1.524 . S
C399 N5 1.367 . S
C404 N14 1.363 . S
C415 N47 1.385 . S
C420 N38 1.385 . S
C431 N71 1.357 . S
C436 N80 1.352 . S
C447 N113 1.364 . S
C452 N104 1.372 . S
C463 N137 1.356 . S
C468 N146 1.350 . S
C479 N179 1.388 . S
C484 N170 1.391 . S
C495 N203 1.352 . S
C500 N212 1.344 . S
C511 N236 1.373 . S
C516 N245 1.365 . S
C527 C8 1.541 . S
C532 C74 1.534 . S
C543 C41 1.533 . S
C548 C107 1.521 . S
C559 C140 1.539 . S
C564 C206 1.539 . S
C575 C173 1.515 . S
C580 C239 1.517 . S
