# Generated by pormake.
# Topology qtz-e, (6)-cn, num edge types: 1
# Building blocks:
#     Node 0, Type 0, BuildingBlock: PAMTOO_clean_sbu_0, # of connection points: 6
#     Node 1, Type 0, BuildingBlock: PAMTOO_clean_sbu_0, # of connection points: 6
#     Node 2, Type 0, BuildingBlock: PAMTOO_clean_sbu_0, # of connection points: 6
#     Node 3, Type 0, BuildingBlock: PAMTOO_clean_sbu_0, # of connection points: 6
#     Node 4, Type 0, BuildingBlock: PAMTOO_clean_sbu_0, # of connection points: 6
#     Node 5, Type 0, BuildingBlock: PAMTOO_clean_sbu_0, # of connection points: 6
#     Edge 6, Type (0, 0), BuildingBlock: KIFKEQ_clean_linker_1, # of connection points: 2
#     Edge 7, Type (0, 0), BuildingBlock: KIFKEQ_clean_linker_1, # of connection points: 2
#     Edge 8, Type (0, 0), BuildingBlock: KIFKEQ_clean_linker_1, # of connection points: 2
#     Edge 9, Type (0, 0), BuildingBlock: KIFKEQ_clean_linker_1, # of connection points: 2
#     Edge 10, Type (0, 0), BuildingBlock: KIFKEQ_clean_linker_1, # of connection points: 2
#     Edge 11, Type (0, 0), BuildingBlock: KIFKEQ_clean_linker_1, # of connection points: 2
#     Edge 12, Type (0, 0), BuildingBlock: KIFKEQ_clean_linker_1, # of connection points: 2
#     Edge 13, Type (0, 0), BuildingBlock: KIFKEQ_clean_linker_1, # of connection points: 2
#     Edge 14, Type (0, 0), BuildingBlock: KIFKEQ_clean_linker_1, # of connection points: 2
#     Edge 15, Type (0, 0), BuildingBlock: KIFKEQ_clean_linker_1, # of connection points: 2
#     Edge 16, Type (0, 0), BuildingBlock: KIFKEQ_clean_linker_1, # of connection points: 2
#     Edge 17, Type (0, 0), BuildingBlock: KIFKEQ_clean_linker_1, # of connection points: 2
#     Edge 18, Type (0, 0), BuildingBlock: KIFKEQ_clean_linker_1, # of connection points: 2
#     Edge 19, Type (0, 0), BuildingBlock: KIFKEQ_clean_linker_1, # of connection points: 2
#     Edge 20, Type (0, 0), BuildingBlock: KIFKEQ_clean_linker_1, # of connection points: 2
#     Edge 21, Type (0, 0), BuildingBlock: KIFKEQ_clean_linker_1, # of connection points: 2
#     Edge 22, Type (0, 0), BuildingBlock: KIFKEQ_clean_linker_1, # of connection points: 2
#     Edge 23, Type (0, 0), BuildingBlock: KIFKEQ_clean_linker_1, # of connection points: 2
# Relax obj value: 0.193
# Max RMSD: 0.211
# Mean RMSD: 0.211
data_MOF--net-qtz-e--node1-PAMTOO_clean_sbu_0--edge1-KIFKEQ_clean_linker_1
_symmetry_space_group_name_H-M    P1
_symmetry_Int_Tables_number       1
_symmetry_cell_setting            triclinic
loop_
_symmetry_equiv_pos_as_xyz
'x, y, z'
_cell_length_a     27.482102
_cell_length_b     27.489785
_cell_length_c     51.95514
_cell_angle_alpha  90.017141
_cell_angle_beta   90.007335
_cell_angle_gamma 119.9968
loop_
_atom_site_label
_atom_site_type_symbol
_atom_site_fract_x
_atom_site_fract_y
_atom_site_fract_z
_atom_type_partial_charge
Dy0 Dy 0.12859 0.35975 0.14118 0.0
Dy1 Dy 0.20618 0.48269 0.1719 0.0
C2 C 0.2541 0.40671 0.15808 0.0
O3 O 0.10784 0.3418 0.18373 0.0
O4 O 0.13545 0.4312 0.19821 0.0
O5 O 0.11477 0.27616 0.13394 0.0
O6 O 0.06627 0.3059 0.11336 0.0
O7 O 0.1415 0.49117 0.14967 0.0
O8 O 0.07392 0.39842 0.14223 0.0
O9 O 0.24337 0.49814 0.1326 0.0
O10 O 0.16961 0.42563 0.11063 0.0
O11 O 0.2267 0.56616 0.18351 0.0
O12 O 0.27904 0.53241 0.19585 0.0
C13 C 0.10837 0.37654 0.20155 0.0
O14 O 0.21896 0.38508 0.13893 0.0
O15 O 0.23865 0.42403 0.17821 0.0
C16 C 0.0954 0.25136 0.08995 0.0
C17 C 0.12238 0.2214 0.0419 0.0
C18 C 0.15682 0.27517 0.05257 0.0
C19 C 0.14347 0.28994 0.07629 0.0
C20 C 0.061 0.19773 0.07953 0.0
C21 C 0.0743 0.18287 0.05579 0.0
C22 C 0.08069 0.26741 0.11472 0.0
C23 C 0.09086 0.45252 0.14238 0.0
C24 C 0.21751 0.47366 0.11108 0.0
C25 C 0.26908 0.59325 0.22456 0.0
C26 C 0.27324 0.63507 0.27463 0.0
C27 C 0.22138 0.60207 0.26211 0.0
C28 C 0.21929 0.58111 0.23738 0.0
C29 C 0.32075 0.62536 0.23705 0.0
C30 C 0.32286 0.64592 0.26187 0.0
C31 C 0.26809 0.57312 0.19822 0.0
H32 H 0.19369 0.30632 0.04239 0.0
H33 H 0.17054 0.33171 0.08391 0.0
H34 H 0.02374 0.1673 0.08974 0.0
H35 H 0.04714 0.14089 0.04846 0.0
H36 H 0.18235 0.59338 0.27116 0.0
H37 H 0.17882 0.55598 0.22819 0.0
H38 H 0.35957 0.6347 0.22754 0.0
H39 H 0.36343 0.6702 0.27106 0.0
Dy40 Dy 0.87935 0.23299 0.4317 0.0
Dy41 Dy 0.80499 0.28361 0.40339 0.0
C42 C 0.75531 0.15645 0.41003 0.0
O43 O 0.90041 0.23683 0.38939 0.0
O44 O 0.87511 0.30132 0.37657 0.0
O45 O 0.89481 0.16404 0.43813 0.0
O46 O 0.94091 0.24101 0.45991 0.0
O47 O 0.86153 0.346 0.43217 0.0
O48 O 0.93357 0.327 0.43082 0.0
O49 O 0.76251 0.25311 0.44134 0.0
O50 O 0.83312 0.24832 0.46319 0.0
O51 O 0.80073 0.35544 0.38986 0.0
O52 O 0.72941 0.2717 0.3848 0.0
C53 C 0.90013 0.27201 0.37215 0.0
O54 O 0.78917 0.16618 0.42955 0.0
O55 O 0.76977 0.19436 0.39199 0.0
C56 C 0.91208 0.15627 0.48233 0.0
C57 C 0.8842 0.09917 0.53041 0.0
C58 C 0.84316 0.10296 0.51562 0.0
C59 C 0.85698 0.13132 0.49195 0.0
C60 C 0.9531 0.15255 0.49685 0.0
C61 C 0.9394 0.1244 0.52059 0.0
C62 C 0.92746 0.18846 0.4579 0.0
C63 C 0.91434 0.3612 0.43609 0.0
C64 C 0.78515 0.24822 0.46278 0.0
C65 C 0.74648 0.33963 0.35287 0.0
C66 C 0.74577 0.37646 0.30234 0.0
C67 C 0.73026 0.39823 0.32333 0.0
C68 C 0.73051 0.37985 0.34832 0.0
C69 C 0.76161 0.31728 0.33211 0.0
C70 C 0.76099 0.33536 0.30701 0.0
C71 C 0.75135 0.32499 0.37949 0.0
H72 H 0.80008 0.08363 0.5222 0.0
H73 H 0.82462 0.13403 0.4812 0.0
H74 H -0.00399 0.17205 0.48998 0.0
H75 H 0.97251 0.12345 0.53147 0.0
H76 H 0.71946 0.43074 0.32058 0.0
H77 H 0.71952 0.39808 0.3642 0.0
H78 H 0.77469 0.28656 0.33537 0.0
H79 H 0.77264 0.3173 0.29131 0.0
Dy80 Dy 0.65552 0.76807 0.80456 0.0
Dy81 Dy 0.5332 0.71992 0.83535 0.0
C82 C 0.61164 0.84625 0.82762 0.0
O83 O 0.6751 0.76496 0.84653 0.0
O84 O 0.58647 0.69863 0.85992 0.0
O85 O 0.73983 0.83621 0.79711 0.0
O86 O 0.70681 0.75883 0.7755 0.0
O87 O 0.5228 0.65737 0.80592 0.0
O88 O 0.61299 0.67357 0.80471 0.0
O89 O 0.51809 0.74849 0.79749 0.0
O90 O 0.59231 0.75393 0.77424 0.0
O91 O 0.45884 0.65001 0.85142 0.0
O92 O 0.47123 0.73417 0.8541 0.0
C93 C 0.64105 0.72799 0.86356 0.0
O94 O 0.63345 0.83571 0.80743 0.0
O95 O 0.59002 0.80899 0.84603 0.0
C96 C 0.76198 0.84313 0.7526 0.0
C97 C 0.78892 0.90011 0.70448 0.0
C98 C 0.7459 0.89777 0.72017 0.0
C99 C 0.73248 0.86947 0.74385 0.0
C100 C 0.80493 0.84539 0.73717 0.0
C101 C 0.81826 0.87348 0.71342 0.0
C102 C 0.74643 0.81125 0.77711 0.0
C103 C 0.55869 0.6406 0.8007 0.0
C104 C 0.54417 0.75328 0.77559 0.0
C105 C 0.42122 0.67037 0.8875 0.0
C106 C 0.38301 0.64099 0.93848 0.0
C107 C 0.34479 0.6223 0.91781 0.0
C108 C 0.36378 0.63697 0.89257 0.0
C109 C 0.45973 0.68975 0.90793 0.0
C110 C 0.44074 0.67527 0.93328 0.0
C111 C 0.44016 0.68161 0.86072 0.0
H112 H 0.72274 0.91821 0.71428 0.0
H113 H 0.6988 0.86795 0.75531 0.0
H114 H 0.82782 0.82484 0.74336 0.0
H115 H 0.85092 0.87331 0.70184 0.0
H116 H 0.30022 0.59497 0.92102 0.0
H117 H 0.33364 0.62122 0.87693 0.0
H118 H 0.50438 0.71535 0.90425 0.0
H119 H 0.47122 0.69077 0.94876 0.0
Dy120 Dy 0.78425 0.6623 0.09738 0.0
Dy121 Dy 0.72392 0.53526 0.07129 0.0
C122 C 0.85333 0.60704 0.07561 0.0
O123 O 0.78046 0.67644 0.05483 0.0
O124 O 0.70609 0.58915 0.04535 0.0
O125 O 0.85646 0.74524 0.10268 0.0
O126 O 0.77975 0.72068 0.12378 0.0
O127 O 0.6678 0.53533 0.10194 0.0
O128 O 0.69073 0.62696 0.09737 0.0
O129 O 0.7552 0.5228 0.10891 0.0
O130 O 0.76901 0.60279 0.12993 0.0
O131 O 0.64793 0.46195 0.05861 0.0
O132 O 0.72841 0.46687 0.05317 0.0
C133 C 0.73955 0.64212 0.03938 0.0
O134 O 0.84783 0.63475 0.09483 0.0
O135 O 0.81304 0.58244 0.0586 0.0
C136 C 0.8645 0.77333 0.14627 0.0
C137 C 0.91761 0.80015 0.19509 0.0
C138 C 0.90685 0.75075 0.18212 0.0
C139 C 0.8805 0.73745 0.15802 0.0
C140 C 0.87557 0.82287 0.15891 0.0
C141 C 0.9019 0.83622 0.18307 0.0
C142 C 0.83316 0.75715 0.12173 0.0
C143 C 0.6558 0.57539 0.10501 0.0
C144 C 0.7646 0.55278 0.12998 0.0
C145 C 0.65882 0.4203 0.02149 0.0
C146 C 0.62095 0.38464 0.97098 0.0
C147 C 0.59845 0.34693 0.99172 0.0
C148 C 0.61729 0.36466 0.01677 0.0
C149 C 0.68204 0.45807 1.00087 0.0
C150 C 0.66346 0.44024 0.97573 0.0
C151 C 0.67475 0.43913 0.04811 0.0
H152 H 0.91751 0.72153 0.19087 0.0
H153 H 0.87176 0.69861 0.14873 0.0
H154 H 0.86324 0.85093 0.15025 0.0
H155 H 0.91004 0.87489 0.19231 0.0
H156 H 0.56614 0.30366 0.98857 0.0
H157 H 0.59881 0.33512 0.03251 0.0
H158 H 0.71376 0.50147 1.00428 0.0
H159 H 0.68118 0.47023 0.96012 0.0
Dy160 Dy 0.22622 0.88502 0.47434 0.0
Dy161 Dy 0.30782 0.84456 0.50278 0.0
C162 C 0.17632 0.75656 0.49445 0.0
O163 O 0.25123 0.9263 0.5136 0.0
O164 O 0.25952 0.85715 0.53389 0.0
O165 O 0.14465 0.87542 0.46587 0.0
O166 O 0.21979 0.94646 0.45084 0.0
O167 O 0.35386 0.93527 0.49307 0.0
O168 O 0.311 0.93132 0.45569 0.0
O169 O 0.31351 0.83018 0.46075 0.0
O170 O 0.231 0.8246 0.44716 0.0
O171 O 0.384 0.8737 0.52461 0.0
O172 O 0.33638 0.78665 0.51281 0.0
C173 C 0.25431 0.90198 0.53496 0.0
O174 O 0.16654 0.79732 0.48799 0.0
O175 O 0.22672 0.76525 0.49976 0.0
C176 C 0.13997 0.90547 0.42385 0.0
C177 C 0.09133 0.88222 0.37405 0.0
C178 C 0.07326 0.90597 0.39321 0.0
C179 C 0.09735 0.91745 0.41784 0.0
C180 C 0.15797 0.88146 0.40493 0.0
C181 C 0.13402 0.87006 0.3803 0.0
C182 C 0.16511 0.9175 0.44985 0.0
C183 C 0.35706 0.95154 0.46927 0.0
C184 C 0.27294 0.81505 0.44372 0.0
C185 C 0.38247 0.80663 0.55269 0.0
C186 C 0.39621 0.77964 0.60326 0.0
C187 C 0.4295 0.77762 0.58317 0.0
C188 C 0.42264 0.79106 0.55807 0.0
C189 C 0.34826 0.80764 0.57249 0.0
C190 C 0.35519 0.79436 0.59766 0.0
C191 C 0.37801 0.82378 0.5266 0.0
H192 H 0.03993 0.91508 0.3893 0.0
H193 H 0.08258 0.93558 0.43222 0.0
H194 H 0.19079 0.87175 0.40918 0.0
H195 H 0.14959 0.85245 0.36606 0.0
H196 H 0.46205 0.76731 0.58697 0.0
H197 H 0.44943 0.79034 0.54294 0.0
H198 H 0.3169 0.81953 0.56853 0.0
H199 H 0.32873 0.79586 0.61272 0.0
Dy200 Dy 0.35297 0.11596 0.76881 0.0
Dy201 Dy 0.47533 0.19199 0.73819 0.0
C202 C 0.39629 0.23877 0.74633 0.0
O203 O 0.33267 0.09129 0.72704 0.0
O204 O 0.42194 0.12287 0.71097 0.0
O205 O 0.26926 0.10158 0.77676 0.0
O206 O 0.30092 0.0548 0.79736 0.0
O207 O 0.48483 0.13671 0.76626 0.0
O208 O 0.39444 0.06319 0.76814 0.0
O209 O 0.48867 0.23518 0.77621 0.0
O210 O 0.41732 0.16281 0.79913 0.0
O211 O 0.55177 0.19827 0.7239 0.0
O212 O 0.53655 0.26789 0.71894 0.0
C213 C 0.36695 0.09439 0.70846 0.0
O214 O 0.37479 0.20586 0.76637 0.0
O215 O 0.41829 0.22396 0.7278 0.0
C216 C 0.24727 0.08485 0.82116 0.0
C217 C 0.21896 0.11545 0.86877 0.0
C218 C 0.17683 0.07936 0.85138 0.0
C219 C 0.19087 0.06426 0.82787 0.0
C220 C 0.28943 0.12119 0.83829 0.0
C221 C 0.27552 0.13613 0.86181 0.0
C222 C 0.26212 0.0689 0.79634 0.0
C223 C 0.44881 0.08416 0.7716 0.0
C224 C 0.46388 0.21184 0.7981 0.0
C225 C 0.58703 0.25136 0.68648 0.0
C226 C 0.62053 0.24696 0.63584 0.0
C227 C 0.65827 0.26003 0.65641 0.0
C228 C 0.64164 0.2623 0.68152 0.0
C229 C 0.54941 0.23945 0.66597 0.0
C230 C 0.56625 0.23771 0.64073 0.0
C231 C 0.56877 0.24708 0.71328 0.0
H232 H 0.13288 0.06324 0.85576 0.0
H233 H 0.15762 0.03654 0.8149 0.0
H234 H 0.33328 0.13788 0.83355 0.0
H235 H 0.30926 0.1633 0.87468 0.0
H236 H 0.70054 0.26793 0.65309 0.0
H237 H 0.67099 0.27112 0.69717 0.0
H238 H 0.50674 0.2301 0.66953 0.0
H239 H 0.53635 0.22725 0.62519 0.0
H240 H 0.36238 0.81117 0.42272 0.0
H241 H 0.18656 0.75533 0.41045 0.0
H242 H 0.36405 0.76536 0.38258 0.0
H243 H 0.18842 0.70971 0.37055 0.0
H244 H 0.2005 0.58631 0.31512 0.0
H245 H 0.20157 0.62837 0.35662 0.0
H246 H 0.35301 0.77987 0.33479 0.0
H247 H 0.35125 0.73885 0.29297 0.0
C248 C 0.32411 0.78896 0.41154 0.0
C249 C 0.27439 0.78695 0.41972 0.0
C250 C 0.32516 0.763 0.38855 0.0
C251 C 0.27632 0.7339 0.37353 0.0
C252 C 0.22652 0.73135 0.38188 0.0
C253 C 0.22562 0.75786 0.40464 0.0
C254 C 0.23383 0.62875 0.31903 0.0
C255 C 0.2756 0.65924 0.30056 0.0
C256 C 0.23452 0.65268 0.34285 0.0
C257 C 0.27732 0.70737 0.34887 0.0
C258 C 0.31988 0.73737 0.33076 0.0
C259 C 0.31889 0.71372 0.30682 0.0
H260 H 0.60988 0.29405 0.59139 0.0
H261 H 0.66949 0.1867 0.6212 0.0
H262 H 0.64575 0.29051 0.54874 0.0
H263 H 0.70385 0.18166 0.57865 0.0
H264 H 0.82424 0.24814 0.51098 0.0
H265 H 0.77987 0.24418 0.55182 0.0
H266 H 0.63636 0.23241 0.51188 0.0
H267 H 0.68173 0.23807 0.47071 0.0
C268 C 0.6299 0.26903 0.58866 0.0
C269 C 0.63774 0.24132 0.60956 0.0
C270 C 0.65023 0.26678 0.56427 0.0
C271 C 0.67828 0.23633 0.56036 0.0
C272 C 0.68374 0.20665 0.58113 0.0
C273 C 0.66397 0.20937 0.60547 0.0
C274 C 0.78316 0.24458 0.5108 0.0
C275 C 0.75669 0.24372 0.48754 0.0
C276 C 0.75747 0.24187 0.53429 0.0
C277 C 0.70441 0.23774 0.53515 0.0
C278 C 0.67754 0.23623 0.51188 0.0
C279 C 0.70345 0.23923 0.4883 0.0
H280 H 0.16783 0.45175 0.06381 0.0
H281 H 0.32618 0.55592 0.10242 0.0
H282 H 0.21045 0.49623 0.02298 0.0
H283 H 0.36868 0.60053 0.06142 0.0
H284 H 0.43097 0.60937 0.9764 0.0
H285 H 0.39286 0.57203 0.01893 0.0
H286 H 0.2498 0.59236 1.00315 0.0
H287 H 0.28829 0.63089 0.9609 0.0
C288 C 0.2117 0.48415 0.0636 0.0
C289 C 0.24355 0.50054 0.08636 0.0
C290 C 0.23597 0.50986 0.04024 0.0
C291 C 0.29273 0.55207 0.0391 0.0
C292 C 0.32486 0.56801 0.06178 0.0
C293 C 0.30041 0.54271 0.08523 0.0
C294 C 0.39197 0.60697 0.98217 0.0
C295 C 0.36246 0.62272 0.96514 0.0
C296 C 0.3701 0.58541 0.0065 0.0
C297 C 0.31814 0.57881 0.01418 0.0
C298 C 0.28948 0.59608 0.99751 0.0
C299 C 0.3115 0.61803 0.97331 0.0
H300 H 0.82337 0.39761 0.26433 0.0
H301 H 0.67274 0.40487 0.28046 0.0
H302 H 0.82961 0.43923 0.22205 0.0
H303 H 0.68037 0.4481 0.23863 0.0
H304 H 0.75591 0.58784 0.17799 0.0
H305 H 0.7517 0.54289 0.21899 0.0
H306 H 0.77273 0.4163 0.17963 0.0
H307 H 0.77677 0.46107 0.13837 0.0
C308 C 0.79123 0.40739 0.2588 0.0
C309 C 0.74776 0.39824 0.27593 0.0
C310 C 0.79504 0.43147 0.23464 0.0
C311 C 0.75586 0.44742 0.22728 0.0
C312 C 0.71172 0.43711 0.24407 0.0
C313 C 0.7075 0.41249 0.26805 0.0
C314 C 0.76003 0.55065 0.17802 0.0
C315 C 0.76626 0.52777 0.1549 0.0
C316 C 0.75725 0.52476 0.20149 0.0
C317 C 0.76135 0.47589 0.20239 0.0
C318 C 0.7695 0.45399 0.17942 0.0
C319 C 0.77157 0.47949 0.15585 0.0
H320 H 0.57835 0.74876 0.72696 0.0
H321 H 0.45057 0.76362 0.7691 0.0
H322 H 0.53461 0.75046 0.68671 0.0
H323 H 0.40648 0.76503 0.72835 0.0
H324 H 0.40188 0.83941 0.64633 0.0
H325 H 0.4316 0.82965 0.68942 0.0
H326 H 0.44468 0.68725 0.66362 0.0
H327 H 0.4146 0.69663 0.62065 0.0
C328 C 0.54085 0.75231 0.72768 0.0
C329 C 0.51778 0.75579 0.75127 0.0
C330 C 0.51556 0.75281 0.70458 0.0
C331 C 0.4668 0.75711 0.70447 0.0
C332 C 0.44405 0.76157 0.72797 0.0
C333 C 0.4692 0.76062 0.75123 0.0
C334 C 0.40983 0.80523 0.65003 0.0
C335 C 0.40667 0.7692 0.63007 0.0
C336 C 0.42686 0.79971 0.67467 0.0
C337 C 0.44112 0.7582 0.67967 0.0
C338 C 0.43493 0.72029 0.66009 0.0
C339 C 0.41782 0.7257 0.63554 0.0
H340 H 0.68074 0.40273 0.92637 0.0
H341 H 0.51158 0.32457 0.95618 0.0
H342 H 0.64377 0.36482 0.88362 0.0
H343 H 0.47463 0.28756 0.9136 0.0
H344 H 0.43433 0.16869 0.84638 0.0
H345 H 0.4732 0.215 0.88701 0.0
H346 H 0.58851 0.36716 0.84673 0.0
H347 H 0.54981 0.32017 0.80557 0.0
C348 C 0.63567 0.37813 0.92367 0.0
C349 C 0.59901 0.3658 0.94463 0.0
C350 C 0.6145 0.35657 0.89921 0.0
C351 C 0.55631 0.32256 0.89531 0.0
C352 C 0.51973 0.31246 0.91611 0.0
C353 C 0.54084 0.33366 0.94049 0.0
C354 C 0.46777 0.21211 0.84604 0.0
C355 C 0.48875 0.2408 0.82268 0.0
C356 C 0.48992 0.23879 0.86943 0.0
C357 C 0.53354 0.29497 0.87013 0.0
C358 C 0.55509 0.32372 0.84679 0.0
C359 C 0.53286 0.29686 0.82325 0.0
H360 H 0.34137 0.44772 0.1926 0.0
H361 H 0.30388 0.4217 0.11124 0.0
H362 H 0.44227 0.49645 0.18259 0.0
H363 H 0.40372 0.47128 0.1015 0.0
H364 H 0.58469 0.61465 0.09304 0.0
H365 H 0.4877 0.57642 0.10836 0.0
H366 H 0.50853 0.464 0.1592 0.0
H367 H 0.60454 0.50112 0.14358 0.0
C368 C 0.35458 0.45195 0.17269 0.0
C369 C 0.31464 0.43034 0.15278 0.0
C370 C 0.4121 0.4801 0.16699 0.0
C371 C 0.43043 0.48825 0.14128 0.0
C372 C 0.39057 0.46628 0.12145 0.0
C373 C 0.33337 0.43717 0.12712 0.0
C374 C 0.56877 0.58267 0.10786 0.0
C375 C 0.6016 0.56042 0.11701 0.0
C376 C 0.51344 0.56066 0.11651 0.0
C377 C 0.49088 0.51715 0.13484 0.0
C378 C 0.52508 0.49764 0.14517 0.0
C379 C 0.57978 0.51869 0.13613 0.0
H380 H 0.07511 0.71615 0.46995 0.0
H381 H 0.17579 0.66267 0.51211 0.0
H382 H 0.01069 0.61913 0.45774 0.0
H383 H 0.11082 0.56559 0.50024 0.0
H384 H 0.02888 0.41573 0.4435 0.0
H385 H 0.0884 0.51008 0.461 0.0
H386 H 0.94189 0.52707 0.47248 0.0
H387 H 0.88298 0.43412 0.45459 0.0
C388 C 0.08267 0.68361 0.47724 0.0
C389 C 0.13081 0.69734 0.4919 0.0
C390 C 0.04579 0.62787 0.47016 0.0
C391 C 0.05607 0.5846 0.47769 0.0
C392 C 0.10239 0.59801 0.49362 0.0
C393 C 0.1393 0.65368 0.50065 0.0
C394 C 0.00947 0.43961 0.44983 0.0
C395 C 0.95126 0.41746 0.44741 0.0
C396 C 0.04347 0.49353 0.46002 0.0
C397 C 0.01989 0.52625 0.46808 0.0
C398 C 0.96158 0.5035 0.46608 0.0
C399 C 0.92777 0.44994 0.45587 0.0
H400 H 0.39271 0.97201 0.78553 0.0
H401 H 0.55777 0.12018 0.78361 0.0
H402 H 0.43449 0.918 0.80287 0.0
H403 H 0.59838 0.06695 0.80096 0.0
H404 H 0.65429 0.93469 0.79461 0.0
H405 H 0.61334 0.99237 0.78323 0.0
H406 H 0.48695 0.9108 0.84204 0.0
H407 H 0.52801 0.8527 0.85353 0.0
C408 C 0.43759 0.99309 0.7889 0.0
C409 C 0.47175 0.05021 0.78286 0.0
C410 C 0.46143 0.96236 0.79899 0.0
C411 C 0.51983 0.98832 0.8031 0.0
C412 C 0.55345 0.04559 0.79765 0.0
C413 C 0.52987 0.07608 0.78769 0.0
C414 C 0.61855 0.92987 0.80553 0.0
C415 C 0.59446 0.88909 0.82495 0.0
C416 C 0.59497 0.96282 0.79897 0.0
C417 C 0.54656 0.95564 0.81158 0.0
C418 C 0.52379 0.91662 0.83177 0.0
C419 C 0.54781 0.88394 0.83855 0.0
H420 H 0.44933 0.56669 0.78984 0.0
H421 H 0.61496 0.58494 0.7864 0.0
H422 H 0.40851 0.47209 0.7733 0.0
H423 H 0.57303 0.48856 0.76977 0.0
H424 H 0.47748 0.32888 0.71959 0.0
H425 H 0.51829 0.42806 0.73082 0.0
H426 H 0.39623 0.38324 0.79169 0.0
H427 H 0.35553 0.28438 0.78062 0.0
C428 C 0.47729 0.55066 0.78555 0.0
C429 C 0.53562 0.58348 0.78972 0.0
C430 C 0.4536 0.49618 0.77607 0.0
C431 C 0.48744 0.47282 0.77042 0.0
C432 C 0.546 0.5058 0.77385 0.0
C433 C 0.56994 0.56072 0.78351 0.0
C434 C 0.45857 0.34024 0.73502 0.0
C435 C 0.4132 0.29869 0.74925 0.0
C436 C 0.48246 0.39699 0.74162 0.0
C437 C 0.46083 0.41325 0.76228 0.0
C438 C 0.41369 0.37196 0.7756 0.0
C439 C 0.39025 0.31532 0.76921 0.0
H440 H 0.07716 0.53745 0.16035 0.0
H441 H 0.02328 0.41293 0.10024 0.0
H442 H 0.02283 0.57573 0.14113 0.0
H443 H 0.97216 0.45357 0.07958 0.0
H444 H 0.839 0.50408 0.06451 0.0
H445 H 0.89564 0.46529 0.08003 0.0
H446 H 0.01913 0.62936 0.10857 0.0
H447 H 0.95943 0.6666 0.0948 0.0
C448 C 0.05361 0.51843 0.14291 0.0
C449 C 0.05379 0.47199 0.1319 0.0
C450 C 0.02312 0.54091 0.13157 0.0
C451 C 0.99349 0.51862 0.10841 0.0
C452 C 0.99356 0.47163 0.09754 0.0
C453 C 0.02284 0.44817 0.10935 0.0
C454 C 0.87889 0.5321 0.07356 0.0
C455 C 0.89484 0.58836 0.07848 0.0
C456 C 0.9116 0.50981 0.08256 0.0
C457 C 0.96182 0.54366 0.09615 0.0
C458 C 0.97983 0.60123 0.0991 0.0
C459 C 0.94623 0.62305 0.09076 0.0
H460 H 0.40581 0.04024 0.43559 0.0
H461 H 0.43045 0.91446 0.47328 0.0
H462 H 0.50064 0.08215 0.41726 0.0
H463 H 0.52259 0.95296 0.45383 0.0
H464 H 0.70806 0.08279 0.44962 0.0
H465 H 0.60989 0.02968 0.46073 0.0
H466 H 0.56653 0.0785 0.389 0.0
H467 H 0.66626 0.13475 0.37843 0.0
C468 C 0.43132 0.02124 0.43959 0.0
C469 C 0.41186 0.97532 0.45633 0.0
C470 C 0.48535 0.04471 0.42893 0.0
C471 C 0.51994 0.02156 0.43438 0.0
C472 C 0.4983 0.97327 0.44986 0.0
C473 C 0.44533 0.951 0.46098 0.0
C474 C 0.67775 0.08148 0.43589 0.0
C475 C 0.69528 0.11353 0.41322 0.0
C476 C 0.62098 0.05059 0.44224 0.0
C477 C 0.57979 0.04986 0.42587 0.0
C478 C 0.59703 0.07895 0.40233 0.0
C479 C 0.65422 0.11059 0.39609 0.0
H480 H 0.27364 0.21715 0.89406 0.0
H481 H 0.13063 0.04983 0.90113 0.0
H482 H 0.25058 0.24232 0.93541 0.0
H483 H 0.10733 0.07529 0.94237 0.0
H484 H 0.05018 0.15803 1.00307 0.0
H485 H 0.07297 0.13278 0.96163 0.0
H486 H 0.24926 0.22423 0.98116 0.0
H487 H 0.22651 0.24925 0.02266 0.0
C488 C 0.2375 0.18547 0.90446 0.0
C489 C 0.20416 0.13128 0.89405 0.0
C490 C 0.22422 0.20001 0.92826 0.0
C491 C 0.17705 0.16091 0.94239 0.0
C492 C 0.1435 0.10685 0.93194 0.0
C493 C 0.15688 0.09224 0.90817 0.0
C494 C 0.0938 0.17232 0.9987 0.0
C495 C 0.13639 0.20575 0.01641 0.0
C496 C 0.10691 0.15783 0.97484 0.0
C497 C 0.16303 0.17639 0.9679 0.0
C498 C 0.20563 0.20984 0.98558 0.0
C499 C 0.19253 0.22426 0.00946 0.0
H500 H 0.96359 0.22614 0.35366 0.0
H501 H 0.90094 0.33683 0.33233 0.0
H502 H 0.01278 0.24544 0.31201 0.0
H503 H 0.94917 0.35536 0.2915 0.0
H504 H 0.10105 0.43895 0.24042 0.0
H505 H 0.05122 0.40828 0.28072 0.0
H506 H -0.00399 0.2358 0.26126 0.0
H507 H 0.04698 0.26677 0.22002 0.0
C508 C 0.96002 0.25425 0.34019 0.0
C509 C 0.92887 0.28053 0.34672 0.0
C510 C 0.98791 0.26499 0.31627 0.0
C511 C 0.98546 0.30248 0.29853 0.0
C512 C 0.95285 0.32707 0.30483 0.0
C513 C 0.92508 0.31631 0.32843 0.0
C514 C 0.07849 0.3943 0.24441 0.0
C515 C 0.07782 0.35537 0.22654 0.0
C516 C 0.04965 0.37672 0.2677 0.0
C517 C 0.01902 0.31955 0.27418 0.0
C518 C 0.0193 0.28023 0.25683 0.0
C519 C 0.04821 0.29795 0.23316 0.0
H520 H 0.71685 0.90574 0.66919 0.0
H521 H 0.89266 0.96197 0.68144 0.0
H522 H 0.7395 0.95366 0.62774 0.0
H523 H 0.91487 0.00888 0.63977 0.0
H524 H 0.92499 0.03489 0.5519 0.0
H525 H 0.90247 0.98802 0.59357 0.0
H526 H 0.78707 0.04805 0.60873 0.0
H527 H 0.81033 0.09594 0.56727 0.0
C528 C 0.76042 0.92866 0.66325 0.0
C529 C 0.80281 0.9297 0.67893 0.0
C530 C 0.7734 0.95613 0.63935 0.0
C531 C 0.8291 0.9852 0.63027 0.0
C532 C 0.87148 0.98626 0.64589 0.0
C533 C 0.85858 0.95912 0.66986 0.0
C534 C 0.89529 0.03881 0.56416 0.0
C535 C 0.86969 0.06957 0.55597 0.0
C536 C 0.88222 0.01168 0.58814 0.0
C537 C 0.84287 0.01411 0.60464 0.0
C538 C 0.81698 0.04453 0.59643 0.0
C539 C 0.8303 0.07197 0.57253 0.0
H540 H 0.60002 0.62992 0.88953 0.0
H541 H 0.73144 0.80342 0.89282 0.0
H542 H 0.62799 0.61305 0.93127 0.0
H543 H 0.75806 0.78755 0.93578 0.0
H544 H 0.81569 0.7238 0.00652 0.0
H545 H 0.79701 0.74653 0.96324 0.0
H546 H 0.61986 0.62952 0.97393 0.0
H547 H 0.63914 0.60513 0.01598 0.0
C548 C 0.63498 0.66465 0.89929 0.0
C549 C 0.66323 0.71808 0.8879 0.0
C550 C 0.65076 0.65518 0.9235 0.0
C551 C 0.69447 0.69921 0.93755 0.0
C552 C 0.72427 0.75245 0.9257 0.0
C553 C 0.70904 0.76167 0.90105 0.0
C554 C 0.77282 0.7034 0.99955 0.0
C555 C 0.729 0.6622 0.01455 0.0
C556 C 0.76198 0.71641 0.97473 0.0
C557 C 0.70695 0.68902 0.96456 0.0
C558 C 0.66309 0.65009 0.98039 0.0
C559 C 0.67403 0.63643 1.00478 0.0
H560 H 0.06541 0.79171 0.34277 0.0
H561 H 0.05965 0.94582 0.34539 0.0
H562 H 0.02446 0.7727 0.29977 0.0
H563 H 0.01846 0.92663 0.30246 0.0
H564 H 0.8912 0.84411 0.23672 0.0
H565 H 0.93298 0.86391 0.27955 0.0
H566 H 0.04556 0.8055 0.2557 0.0
H567 H 0.00375 0.78569 0.21284 0.0
C568 C 0.0559 0.82185 0.33413 0.0
C569 C 0.06595 0.87037 0.34769 0.0
C570 C 0.03234 0.8109 0.30941 0.0
C571 C 0.01805 0.84809 0.29754 0.0
C572 C 0.02806 0.89656 0.3111 0.0
C573 C 0.0517 0.90756 0.3358 0.0
C574 C 0.9253 0.83607 0.24048 0.0
C575 C 0.94404 0.81331 0.22121 0.0
C576 C 0.94929 0.8474 0.26511 0.0
C577 C 0.99272 0.83632 0.27119 0.0
C578 C 0.01161 0.81375 0.25189 0.0
C579 C 0.98761 0.80241 0.22726 0.0
H580 H 0.41895 0.12297 0.66178 0.0
H581 H 0.26314 0.00214 0.69774 0.0
H582 H 0.38437 0.07685 0.62035 0.0
H583 H 0.22889 0.95505 0.65597 0.0
H584 H 0.23803 0.8538 0.58266 0.0
H585 H 0.25895 0.90024 0.62463 0.0
H586 H 0.30655 0.05811 0.58748 0.0
H587 H 0.28477 0.01156 0.54542 0.0
C588 C 0.37721 0.08649 0.66088 0.0
C589 C 0.34393 0.06619 0.68321 0.0
C590 C 0.35724 0.0603 0.63702 0.0
C591 C 0.30376 0.01232 0.63479 0.0
C592 C 0.27033 0.9919 0.65706 0.0
C593 C 0.28983 0.01893 0.68096 0.0
C594 C 0.252 0.89825 0.58342 0.0
C595 C 0.25974 0.92891 0.56057 0.0
C596 C 0.26382 0.92481 0.60753 0.0
C597 C 0.28471 0.98296 0.60943 0.0
C598 C 0.29082 0.01331 0.58667 0.0
C599 C 0.27806 0.98658 0.56256 0.0
loop_
_geom_bond_atom_site_label_1
_geom_bond_atom_site_label_2
_geom_bond_distance
_geom_bond_site_symmetry_2
_ccdc_geom_bond_type
Dy0 O3 2.307 . S
Dy0 O5 2.395 . S
Dy0 O6 2.379 . S
Dy0 O8 2.339 . S
Dy0 O10 2.298 . S
Dy0 O14 2.275 . S
Dy0 C22 2.738 . S
Dy1 O4 2.298 . S
Dy1 O7 2.275 . S
Dy1 O9 2.307 . S
Dy1 O11 2.395 . S
Dy1 O12 2.379 . S
Dy1 O15 2.339 . S
Dy1 C31 2.738 . S
C2 O14 1.254 . S
C2 O15 1.257 . S
O3 Dy0 2.307 . S
O3 C13 1.266 . S
O4 Dy1 2.298 . S
O4 C13 1.236 . S
O5 Dy0 2.395 . S
O5 C22 1.255 . S
O6 Dy0 2.379 . S
O6 C22 1.249 . S
O7 Dy1 2.275 . S
O7 C23 1.254 . S
O8 Dy0 2.339 . S
O8 C23 1.257 . S
O9 Dy1 2.307 . S
O9 C24 1.266 . S
O10 Dy0 2.298 . S
O10 C24 1.236 . S
O11 Dy1 2.395 . S
O11 C31 1.255 . S
O12 Dy1 2.379 . S
O12 C31 1.249 . S
C13 O3 1.266 . S
C13 O4 1.236 . S
O14 Dy0 2.275 . S
O14 C2 1.254 . S
O15 Dy1 2.339 . S
O15 C2 1.257 . S
C16 C19 1.344 . S
C16 C20 1.328 . S
C16 C22 1.516 . S
C17 C18 1.304 . S
C17 C21 1.323 . S
C18 C17 1.304 . S
C18 C19 1.371 . S
C18 H32 0.930 . S
C19 C16 1.344 . S
C19 C18 1.371 . S
C19 H33 0.931 . S
C20 C16 1.328 . S
C20 C21 1.433 . S
C20 H34 0.931 . S
C21 C17 1.323 . S
C21 C20 1.433 . S
C21 H35 0.933 . S
C22 Dy0 2.738 . S
C22 O5 1.255 . S
C22 O6 1.249 . S
C22 C16 1.516 . S
C23 O7 1.254 . S
C23 O8 1.257 . S
C24 O9 1.266 . S
C24 O10 1.236 . S
C25 C28 1.344 . S
C25 C29 1.328 . S
C25 C31 1.516 . S
C26 C27 1.304 . S
C26 C30 1.323 . S
C27 C26 1.304 . S
C27 C28 1.371 . S
C27 H36 0.930 . S
C28 C25 1.344 . S
C28 C27 1.371 . S
C28 H37 0.931 . S
C29 C25 1.328 . S
C29 C30 1.433 . S
C29 H38 0.931 . S
C30 C26 1.323 . S
C30 C29 1.433 . S
C30 H39 0.933 . S
C31 Dy1 2.738 . S
C31 O11 1.255 . S
C31 O12 1.249 . S
C31 C25 1.516 . S
H32 C18 0.930 . S
H33 C19 0.931 . S
H34 C20 0.931 . S
H35 C21 0.933 . S
H36 C27 0.930 . S
H37 C28 0.931 . S
H38 C29 0.931 . S
H39 C30 0.933 . S
Dy40 O43 2.307 . S
Dy40 O45 2.395 . S
Dy40 O46 2.379 . S
Dy40 O48 2.339 . S
Dy40 O50 2.298 . S
Dy40 O54 2.275 . S
Dy40 C62 2.738 . S
Dy41 O44 2.298 . S
Dy41 O47 2.275 . S
Dy41 O49 2.307 . S
Dy41 O51 2.395 . S
Dy41 O52 2.379 . S
Dy41 O55 2.339 . S
Dy41 C71 2.738 . S
C42 O54 1.254 . S
C42 O55 1.257 . S
O43 Dy40 2.307 . S
O43 C53 1.266 . S
O44 Dy41 2.298 . S
O44 C53 1.236 . S
O45 Dy40 2.395 . S
O45 C62 1.255 . S
O46 Dy40 2.379 . S
O46 C62 1.249 . S
O47 Dy41 2.275 . S
O47 C63 1.254 . S
O48 Dy40 2.339 . S
O48 C63 1.257 . S
O49 Dy41 2.307 . S
O49 C64 1.266 . S
O50 Dy40 2.298 . S
O50 C64 1.236 . S
O51 Dy41 2.395 . S
O51 C71 1.255 . S
O52 Dy41 2.379 . S
O52 C71 1.249 . S
C53 O43 1.266 . S
C53 O44 1.236 . S
O54 Dy40 2.275 . S
O54 C42 1.254 . S
O55 Dy41 2.339 . S
O55 C42 1.257 . S
C56 C59 1.344 . S
C56 C60 1.328 . S
C56 C62 1.516 . S
C57 C58 1.304 . S
C57 C61 1.323 . S
C58 C57 1.304 . S
C58 C59 1.371 . S
C58 H72 0.930 . S
C59 C56 1.344 . S
C59 C58 1.371 . S
C59 H73 0.931 . S
C60 C56 1.328 . S
C60 C61 1.433 . S
C60 H74 0.931 . S
C61 C57 1.323 . S
C61 C60 1.433 . S
C61 H75 0.933 . S
C62 Dy40 2.738 . S
C62 O45 1.255 . S
C62 O46 1.249 . S
C62 C56 1.516 . S
C63 O47 1.254 . S
C63 O48 1.257 . S
C64 O49 1.266 . S
C64 O50 1.236 . S
C65 C68 1.344 . S
C65 C69 1.328 . S
C65 C71 1.516 . S
C66 C67 1.304 . S
C66 C70 1.323 . S
C67 C66 1.304 . S
C67 C68 1.371 . S
C67 H76 0.930 . S
C68 C65 1.344 . S
C68 C67 1.371 . S
C68 H77 0.931 . S
C69 C65 1.328 . S
C69 C70 1.433 . S
C69 H78 0.931 . S
C70 C66 1.323 . S
C70 C69 1.433 . S
C70 H79 0.933 . S
C71 Dy41 2.738 . S
C71 O51 1.255 . S
C71 O52 1.249 . S
C71 C65 1.516 . S
H72 C58 0.930 . S
H73 C59 0.931 . S
H74 C60 0.931 . S
H75 C61 0.933 . S
H76 C67 0.930 . S
H77 C68 0.931 . S
H78 C69 0.931 . S
H79 C70 0.933 . S
Dy80 O83 2.307 . S
Dy80 O85 2.395 . S
Dy80 O86 2.379 . S
Dy80 O88 2.339 . S
Dy80 O90 2.298 . S
Dy80 O94 2.275 . S
Dy80 C102 2.738 . S
Dy81 O84 2.298 . S
Dy81 O87 2.275 . S
Dy81 O89 2.307 . S
Dy81 O91 2.395 . S
Dy81 O92 2.379 . S
Dy81 O95 2.339 . S
Dy81 C111 2.738 . S
C82 O94 1.254 . S
C82 O95 1.257 . S
O83 Dy80 2.307 . S
O83 C93 1.266 . S
O84 Dy81 2.298 . S
O84 C93 1.236 . S
O85 Dy80 2.395 . S
O85 C102 1.255 . S
O86 Dy80 2.379 . S
O86 C102 1.249 . S
O87 Dy81 2.275 . S
O87 C103 1.254 . S
O88 Dy80 2.339 . S
O88 C103 1.257 . S
O89 Dy81 2.307 . S
O89 C104 1.266 . S
O90 Dy80 2.298 . S
O90 C104 1.236 . S
O91 Dy81 2.395 . S
O91 C111 1.255 . S
O92 Dy81 2.379 . S
O92 C111 1.249 . S
C93 O83 1.266 . S
C93 O84 1.236 . S
O94 Dy80 2.275 . S
O94 C82 1.254 . S
O95 Dy81 2.339 . S
O95 C82 1.257 . S
C96 C99 1.344 . S
C96 C100 1.328 . S
C96 C102 1.516 . S
C97 C98 1.304 . S
C97 C101 1.323 . S
C98 C97 1.304 . S
C98 C99 1.371 . S
C98 H112 0.930 . S
C99 C96 1.344 . S
C99 C98 1.371 . S
C99 H113 0.931 . S
C100 C96 1.328 . S
C100 C101 1.433 . S
C100 H114 0.931 . S
C101 C97 1.323 . S
C101 C100 1.433 . S
C101 H115 0.933 . S
C102 Dy80 2.738 . S
C102 O85 1.255 . S
C102 O86 1.249 . S
C102 C96 1.516 . S
C103 O87 1.254 . S
C103 O88 1.257 . S
C104 O89 1.266 . S
C104 O90 1.236 . S
C105 C108 1.344 . S
C105 C109 1.328 . S
C105 C111 1.516 . S
C106 C107 1.304 . S
C106 C110 1.323 . S
C107 C106 1.304 . S
C107 C108 1.371 . S
C107 H116 0.930 . S
C108 C105 1.344 . S
C108 C107 1.371 . S
C108 H117 0.931 . S
C109 C105 1.328 . S
C109 C110 1.433 . S
C109 H118 0.931 . S
C110 C106 1.323 . S
C110 C109 1.433 . S
C110 H119 0.933 . S
C111 Dy81 2.738 . S
C111 O91 1.255 . S
C111 O92 1.249 . S
C111 C105 1.516 . S
H112 C98 0.930 . S
H113 C99 0.931 . S
H114 C100 0.931 . S
H115 C101 0.933 . S
H116 C107 0.930 . S
H117 C108 0.931 . S
H118 C109 0.931 . S
H119 C110 0.933 . S
Dy120 O123 2.307 . S
Dy120 O125 2.395 . S
Dy120 O126 2.379 . S
Dy120 O128 2.339 . S
Dy120 O130 2.298 . S
Dy120 O134 2.275 . S
Dy120 C142 2.738 . S
Dy121 O124 2.298 . S
Dy121 O127 2.275 . S
Dy121 O129 2.307 . S
Dy121 O131 2.395 . S
Dy121 O132 2.379 . S
Dy121 O135 2.339 . S
Dy121 C151 2.738 . S
C122 O134 1.254 . S
C122 O135 1.257 . S
O123 Dy120 2.307 . S
O123 C133 1.266 . S
O124 Dy121 2.298 . S
O124 C133 1.236 . S
O125 Dy120 2.395 . S
O125 C142 1.255 . S
O126 Dy120 2.379 . S
O126 C142 1.249 . S
O127 Dy121 2.275 . S
O127 C143 1.254 . S
O128 Dy120 2.339 . S
O128 C143 1.257 . S
O129 Dy121 2.307 . S
O129 C144 1.266 . S
O130 Dy120 2.298 . S
O130 C144 1.236 . S
O131 Dy121 2.395 . S
O131 C151 1.255 . S
O132 Dy121 2.379 . S
O132 C151 1.249 . S
C133 O123 1.266 . S
C133 O124 1.236 . S
O134 Dy120 2.275 . S
O134 C122 1.254 . S
O135 Dy121 2.339 . S
O135 C122 1.257 . S
C136 C139 1.344 . S
C136 C140 1.328 . S
C136 C142 1.516 . S
C137 C138 1.304 . S
C137 C141 1.323 . S
C138 C137 1.304 . S
C138 C139 1.371 . S
C138 H152 0.930 . S
C139 C136 1.344 . S
C139 C138 1.371 . S
C139 H153 0.931 . S
C140 C136 1.328 . S
C140 C141 1.433 . S
C140 H154 0.931 . S
C141 C137 1.323 . S
C141 C140 1.433 . S
C141 H155 0.933 . S
C142 Dy120 2.738 . S
C142 O125 1.255 . S
C142 O126 1.249 . S
C142 C136 1.516 . S
C143 O127 1.254 . S
C143 O128 1.257 . S
C144 O129 1.266 . S
C144 O130 1.236 . S
C145 C148 1.344 . S
C145 C149 1.328 . S
C145 C151 1.516 1_556 S
C146 C147 1.304 . S
C146 C150 1.323 . S
C147 C146 1.304 . S
C147 C148 1.371 . S
C147 H156 0.930 . S
C148 C145 1.344 . S
C148 C147 1.371 . S
C148 H157 0.931 . S
C149 C145 1.328 . S
C149 C150 1.433 . S
C149 H158 0.931 . S
C150 C146 1.323 . S
C150 C149 1.433 . S
C150 H159 0.933 . S
C151 Dy121 2.738 . S
C151 O131 1.255 . S
C151 O132 1.249 . S
C151 C145 1.516 1_554 S
H152 C138 0.930 . S
H153 C139 0.931 . S
H154 C140 0.931 . S
H155 C141 0.933 . S
H156 C147 0.930 . S
H157 C148 0.931 . S
H158 C149 0.931 . S
H159 C150 0.933 . S
Dy160 O163 2.307 . S
Dy160 O165 2.395 . S
Dy160 O166 2.379 . S
Dy160 O168 2.339 . S
Dy160 O170 2.298 . S
Dy160 O174 2.275 . S
Dy160 C182 2.738 . S
Dy161 O164 2.298 . S
Dy161 O167 2.275 . S
Dy161 O169 2.307 . S
Dy161 O171 2.395 . S
Dy161 O172 2.379 . S
Dy161 O175 2.339 . S
Dy161 C191 2.738 . S
C162 O174 1.254 . S
C162 O175 1.257 . S
O163 Dy160 2.307 . S
O163 C173 1.266 . S
O164 Dy161 2.298 . S
O164 C173 1.236 . S
O165 Dy160 2.395 . S
O165 C182 1.255 . S
O166 Dy160 2.379 . S
O166 C182 1.249 . S
O167 Dy161 2.275 . S
O167 C183 1.254 . S
O168 Dy160 2.339 . S
O168 C183 1.257 . S
O169 Dy161 2.307 . S
O169 C184 1.266 . S
O170 Dy160 2.298 . S
O170 C184 1.236 . S
O171 Dy161 2.395 . S
O171 C191 1.255 . S
O172 Dy161 2.379 . S
O172 C191 1.249 . S
C173 O163 1.266 . S
C173 O164 1.236 . S
O174 Dy160 2.275 . S
O174 C162 1.254 . S
O175 Dy161 2.339 . S
O175 C162 1.257 . S
C176 C179 1.344 . S
C176 C180 1.328 . S
C176 C182 1.516 . S
C177 C178 1.304 . S
C177 C181 1.323 . S
C178 C177 1.304 . S
C178 C179 1.371 . S
C178 H192 0.930 . S
C179 C176 1.344 . S
C179 C178 1.371 . S
C179 H193 0.931 . S
C180 C176 1.328 . S
C180 C181 1.433 . S
C180 H194 0.931 . S
C181 C177 1.323 . S
C181 C180 1.433 . S
C181 H195 0.933 . S
C182 Dy160 2.738 . S
C182 O165 1.255 . S
C182 O166 1.249 . S
C182 C176 1.516 . S
C183 O167 1.254 . S
C183 O168 1.257 . S
C184 O169 1.266 . S
C184 O170 1.236 . S
C185 C188 1.344 . S
C185 C189 1.328 . S
C185 C191 1.516 . S
C186 C187 1.304 . S
C186 C190 1.323 . S
C187 C186 1.304 . S
C187 C188 1.371 . S
C187 H196 0.930 . S
C188 C185 1.344 . S
C188 C187 1.371 . S
C188 H197 0.931 . S
C189 C185 1.328 . S
C189 C190 1.433 . S
C189 H198 0.931 . S
C190 C186 1.323 . S
C190 C189 1.433 . S
C190 H199 0.933 . S
C191 Dy161 2.738 . S
C191 O171 1.255 . S
C191 O172 1.249 . S
C191 C185 1.516 . S
H192 C178 0.930 . S
H193 C179 0.931 . S
H194 C180 0.931 . S
H195 C181 0.933 . S
H196 C187 0.930 . S
H197 C188 0.931 . S
H198 C189 0.931 . S
H199 C190 0.933 . S
Dy200 O203 2.307 . S
Dy200 O205 2.395 . S
Dy200 O206 2.379 . S
Dy200 O208 2.339 . S
Dy200 O210 2.298 . S
Dy200 O214 2.275 . S
Dy200 C222 2.738 . S
Dy201 O204 2.298 . S
Dy201 O207 2.275 . S
Dy201 O209 2.307 . S
Dy201 O211 2.395 . S
Dy201 O212 2.379 . S
Dy201 O215 2.339 . S
Dy201 C231 2.738 . S
C202 O214 1.254 . S
C202 O215 1.257 . S
O203 Dy200 2.307 . S
O203 C213 1.266 . S
O204 Dy201 2.298 . S
O204 C213 1.236 . S
O205 Dy200 2.395 . S
O205 C222 1.255 . S
O206 Dy200 2.379 . S
O206 C222 1.249 . S
O207 Dy201 2.275 . S
O207 C223 1.254 . S
O208 Dy200 2.339 . S
O208 C223 1.257 . S
O209 Dy201 2.307 . S
O209 C224 1.266 . S
O210 Dy200 2.298 . S
O210 C224 1.236 . S
O211 Dy201 2.395 . S
O211 C231 1.255 . S
O212 Dy201 2.379 . S
O212 C231 1.249 . S
C213 O203 1.266 . S
C213 O204 1.236 . S
O214 Dy200 2.275 . S
O214 C202 1.254 . S
O215 Dy201 2.339 . S
O215 C202 1.257 . S
C216 C219 1.344 . S
C216 C220 1.328 . S
C216 C222 1.516 . S
C217 C218 1.304 . S
C217 C221 1.323 . S
C218 C217 1.304 . S
C218 C219 1.371 . S
C218 H232 0.930 . S
C219 C216 1.344 . S
C219 C218 1.371 . S
C219 H233 0.931 . S
C220 C216 1.328 . S
C220 C221 1.433 . S
C220 H234 0.931 . S
C221 C217 1.323 . S
C221 C220 1.433 . S
C221 H235 0.933 . S
C222 Dy200 2.738 . S
C222 O205 1.255 . S
C222 O206 1.249 . S
C222 C216 1.516 . S
C223 O207 1.254 . S
C223 O208 1.257 . S
C224 O209 1.266 . S
C224 O210 1.236 . S
C225 C228 1.344 . S
C225 C229 1.328 . S
C225 C231 1.516 . S
C226 C227 1.304 . S
C226 C230 1.323 . S
C227 C226 1.304 . S
C227 C228 1.371 . S
C227 H236 0.930 . S
C228 C225 1.344 . S
C228 C227 1.371 . S
C228 H237 0.931 . S
C229 C225 1.328 . S
C229 C230 1.433 . S
C229 H238 0.931 . S
C230 C226 1.323 . S
C230 C229 1.433 . S
C230 H239 0.933 . S
C231 Dy201 2.738 . S
C231 O211 1.255 . S
C231 O212 1.249 . S
C231 C225 1.516 . S
H232 C218 0.930 . S
H233 C219 0.931 . S
H234 C220 0.931 . S
H235 C221 0.933 . S
H236 C227 0.930 . S
H237 C228 0.931 . S
H238 C229 0.931 . S
H239 C230 0.933 . S
H240 C248 0.950 . S
H241 C253 0.950 . S
H242 C250 0.950 . S
H243 C252 0.950 . S
H244 C254 0.950 . S
H245 C256 0.950 . S
H246 C258 0.950 . S
H247 C259 0.950 . S
C248 H240 0.950 . S
C248 C249 1.386 . S
C248 C250 1.391 . S
C249 C248 1.386 . S
C249 C253 1.393 . S
C250 H242 0.950 . S
C250 C248 1.391 . S
C250 C251 1.400 . S
C251 C250 1.400 . S
C251 C252 1.398 . S
C251 C257 1.491 . S
C252 H243 0.950 . S
C252 C251 1.398 . S
C252 C253 1.391 . S
C253 H241 0.950 . S
C253 C249 1.393 . S
C253 C252 1.391 . S
C254 H244 0.950 . S
C254 C255 1.386 . S
C254 C256 1.391 . S
C255 C254 1.386 . S
C255 C259 1.393 . S
C256 H245 0.950 . S
C256 C254 1.391 . S
C256 C257 1.400 . S
C257 C251 1.491 . S
C257 C256 1.400 . S
C257 C258 1.398 . S
C258 H246 0.950 . S
C258 C257 1.398 . S
C258 C259 1.391 . S
C259 H247 0.950 . S
C259 C255 1.393 . S
C259 C258 1.391 . S
H260 C268 0.950 . S
H261 C273 0.950 . S
H262 C270 0.950 . S
H263 C272 0.950 . S
H264 C274 0.950 . S
H265 C276 0.950 . S
H266 C278 0.950 . S
H267 C279 0.950 . S
C268 H260 0.950 . S
C268 C269 1.386 . S
C268 C270 1.391 . S
C269 C268 1.386 . S
C269 C273 1.393 . S
C270 H262 0.950 . S
C270 C268 1.391 . S
C270 C271 1.400 . S
C271 C270 1.400 . S
C271 C272 1.398 . S
C271 C277 1.491 . S
C272 H263 0.950 . S
C272 C271 1.398 . S
C272 C273 1.391 . S
C273 H261 0.950 . S
C273 C269 1.393 . S
C273 C272 1.391 . S
C274 H264 0.950 . S
C274 C275 1.386 . S
C274 C276 1.391 . S
C275 C274 1.386 . S
C275 C279 1.393 . S
C276 H265 0.950 . S
C276 C274 1.391 . S
C276 C277 1.400 . S
C277 C271 1.491 . S
C277 C276 1.400 . S
C277 C278 1.398 . S
C278 H266 0.950 . S
C278 C277 1.398 . S
C278 C279 1.391 . S
C279 H267 0.950 . S
C279 C275 1.393 . S
C279 C278 1.391 . S
H280 C288 0.950 . S
H281 C293 0.950 . S
H282 C290 0.950 . S
H283 C292 0.950 . S
H284 C294 0.950 . S
H285 C296 0.950 . S
H286 C298 0.946 1_554 S
H287 C299 0.950 . S
C288 H280 0.950 . S
C288 C289 1.386 . S
C288 C290 1.391 . S
C289 C288 1.386 . S
C289 C293 1.393 . S
C290 H282 0.950 . S
C290 C288 1.391 . S
C290 C291 1.400 . S
C291 C290 1.400 . S
C291 C292 1.398 . S
C291 C297 1.491 . S
C292 H283 0.950 . S
C292 C291 1.398 . S
C292 C293 1.391 . S
C293 H281 0.950 . S
C293 C289 1.393 . S
C293 C292 1.391 . S
C294 H284 0.950 . S
C294 C295 1.386 . S
C294 C296 1.391 1_556 S
C295 C294 1.386 . S
C295 C299 1.393 . S
C296 H285 0.950 . S
C296 C294 1.391 1_554 S
C296 C297 1.400 . S
C297 C291 1.491 . S
C297 C296 1.400 . S
C297 C298 1.398 1_554 S
C298 H286 0.946 1_556 S
C298 C297 1.398 1_556 S
C298 C299 1.391 . S
C299 H287 0.950 . S
C299 C295 1.393 . S
C299 C298 1.391 . S
H300 C308 0.950 . S
H301 C313 0.950 . S
H302 C310 0.950 . S
H303 C312 0.950 . S
H304 C314 0.950 . S
H305 C316 0.950 . S
H306 C318 0.950 . S
H307 C319 0.950 . S
C308 H300 0.950 . S
C308 C309 1.386 . S
C308 C310 1.391 . S
C309 C308 1.386 . S
C309 C313 1.393 . S
C310 H302 0.950 . S
C310 C308 1.391 . S
C310 C311 1.400 . S
C311 C310 1.400 . S
C311 C312 1.398 . S
C311 C317 1.491 . S
C312 H303 0.950 . S
C312 C311 1.398 . S
C312 C313 1.391 . S
C313 H301 0.950 . S
C313 C309 1.393 . S
C313 C312 1.391 . S
C314 H304 0.950 . S
C314 C315 1.386 . S
C314 C316 1.391 . S
C315 C314 1.386 . S
C315 C319 1.393 . S
C316 H305 0.950 . S
C316 C314 1.391 . S
C316 C317 1.400 . S
C317 C311 1.491 . S
C317 C316 1.400 . S
C317 C318 1.398 . S
C318 H306 0.950 . S
C318 C317 1.398 . S
C318 C319 1.391 . S
C319 H307 0.950 . S
C319 C315 1.393 . S
C319 C318 1.391 . S
H320 C328 0.950 . S
H321 C333 0.950 . S
H322 C330 0.950 . S
H323 C332 0.950 . S
H324 C334 0.950 . S
H325 C336 0.950 . S
H326 C338 0.950 . S
H327 C339 0.950 . S
C328 H320 0.950 . S
C328 C329 1.386 . S
C328 C330 1.391 . S
C329 C328 1.386 . S
C329 C333 1.393 . S
C330 H322 0.950 . S
C330 C328 1.391 . S
C330 C331 1.400 . S
C331 C330 1.400 . S
C331 C332 1.398 . S
C331 C337 1.491 . S
C332 H323 0.950 . S
C332 C331 1.398 . S
C332 C333 1.391 . S
C333 H321 0.950 . S
C333 C329 1.393 . S
C333 C332 1.391 . S
C334 H324 0.950 . S
C334 C335 1.386 . S
C334 C336 1.391 . S
C335 C334 1.386 . S
C335 C339 1.393 . S
C336 H325 0.950 . S
C336 C334 1.391 . S
C336 C337 1.400 . S
C337 C331 1.491 . S
C337 C336 1.400 . S
C337 C338 1.398 . S
C338 H326 0.950 . S
C338 C337 1.398 . S
C338 C339 1.391 . S
C339 H327 0.950 . S
C339 C335 1.393 . S
C339 C338 1.391 . S
H340 C348 0.950 . S
H341 C353 0.950 . S
H342 C350 0.950 . S
H343 C352 0.950 . S
H344 C354 0.950 . S
H345 C356 0.950 . S
H346 C358 0.950 . S
H347 C359 0.950 . S
C348 H340 0.950 . S
C348 C349 1.386 . S
C348 C350 1.391 . S
C349 C348 1.386 . S
C349 C353 1.393 . S
C350 H342 0.950 . S
C350 C348 1.391 . S
C350 C351 1.400 . S
C351 C350 1.400 . S
C351 C352 1.398 . S
C351 C357 1.491 . S
C352 H343 0.950 . S
C352 C351 1.398 . S
C352 C353 1.391 . S
C353 H341 0.950 . S
C353 C349 1.393 . S
C353 C352 1.391 . S
C354 H344 0.950 . S
C354 C355 1.386 . S
C354 C356 1.391 . S
C355 C354 1.386 . S
C355 C359 1.393 . S
C356 H345 0.950 . S
C356 C354 1.391 . S
C356 C357 1.400 . S
C357 C351 1.491 . S
C357 C356 1.400 . S
C357 C358 1.398 . S
C358 H346 0.950 . S
C358 C357 1.398 . S
C358 C359 1.391 . S
C359 H347 0.950 . S
C359 C355 1.393 . S
C359 C358 1.391 . S
H360 C368 0.950 . S
H361 C373 0.950 . S
H362 C370 0.950 . S
H363 C372 0.950 . S
H364 C374 0.950 . S
H365 C376 0.950 . S
H366 C378 0.950 . S
H367 C379 0.950 . S
C368 H360 0.950 . S
C368 C369 1.386 . S
C368 C370 1.391 . S
C369 C368 1.386 . S
C369 C373 1.393 . S
C370 H362 0.950 . S
C370 C368 1.391 . S
C370 C371 1.400 . S
C371 C370 1.400 . S
C371 C372 1.398 . S
C371 C377 1.491 . S
C372 H363 0.950 . S
C372 C371 1.398 . S
C372 C373 1.391 . S
C373 H361 0.950 . S
C373 C369 1.393 . S
C373 C372 1.391 . S
C374 H364 0.950 . S
C374 C375 1.386 . S
C374 C376 1.391 . S
C375 C374 1.386 . S
C375 C379 1.393 . S
C376 H365 0.950 . S
C376 C374 1.391 . S
C376 C377 1.400 . S
C377 C371 1.491 . S
C377 C376 1.400 . S
C377 C378 1.398 . S
C378 H366 0.950 . S
C378 C377 1.398 . S
C378 C379 1.391 . S
C379 H367 0.950 . S
C379 C375 1.393 . S
C379 C378 1.391 . S
H380 C388 0.950 . S
H381 C393 0.950 . S
H382 C390 0.950 . S
H383 C392 0.950 . S
H384 C394 0.950 . S
H385 C396 0.950 . S
H386 C398 0.950 . S
H387 C399 0.953 . S
C388 H380 0.950 . S
C388 C389 1.386 . S
C388 C390 1.391 . S
C389 C388 1.386 . S
C389 C393 1.393 . S
C390 H382 0.950 . S
C390 C388 1.391 . S
C390 C391 1.400 . S
C391 C390 1.400 . S
C391 C392 1.398 . S
C391 C397 1.491 . S
C392 H383 0.950 . S
C392 C391 1.398 . S
C392 C393 1.391 . S
C393 H381 0.950 . S
C393 C389 1.393 . S
C393 C392 1.391 . S
C394 H384 0.950 . S
C394 C395 1.386 . S
C394 C396 1.391 . S
C395 C394 1.386 . S
C395 C399 1.390 1_455 S
C396 H385 0.950 . S
C396 C394 1.391 . S
C396 C397 1.400 . S
C397 C391 1.491 . S
C397 C396 1.400 . S
C397 C398 1.398 . S
C398 H386 0.950 . S
C398 C397 1.398 . S
C398 C399 1.391 1_455 S
C399 H387 0.953 . S
C399 C395 1.390 1_655 S
C399 C398 1.391 1_655 S
H400 C408 0.950 . S
H401 C413 0.950 . S
H402 C410 0.950 . S
H403 C412 0.950 . S
H404 C414 0.950 . S
H405 C416 0.950 . S
H406 C418 0.950 . S
H407 C419 0.950 . S
C408 H400 0.950 . S
C408 C409 1.386 1_565 S
C408 C410 1.391 . S
C409 C408 1.386 1_545 S
C409 C413 1.393 . S
C410 H402 0.950 . S
C410 C408 1.391 . S
C410 C411 1.400 . S
C411 C410 1.400 . S
C411 C412 1.398 1_565 S
C411 C417 1.491 . S
C412 H403 0.950 . S
C412 C411 1.398 1_545 S
C412 C413 1.391 . S
C413 H401 0.950 . S
C413 C409 1.393 . S
C413 C412 1.391 . S
C414 H404 0.950 . S
C414 C415 1.386 . S
C414 C416 1.391 . S
C415 C414 1.386 . S
C415 C419 1.393 . S
C416 H405 0.950 . S
C416 C414 1.391 . S
C416 C417 1.400 . S
C417 C411 1.491 . S
C417 C416 1.400 . S
C417 C418 1.398 . S
C418 H406 0.950 . S
C418 C417 1.398 . S
C418 C419 1.391 . S
C419 H407 0.950 . S
C419 C415 1.393 . S
C419 C418 1.391 . S
H420 C428 0.950 . S
H421 C433 0.950 . S
H422 C430 0.950 . S
H423 C432 0.950 . S
H424 C434 0.950 . S
H425 C436 0.950 . S
H426 C438 0.950 . S
H427 C439 0.950 . S
C428 H420 0.950 . S
C428 C429 1.386 . S
C428 C430 1.391 . S
C429 C428 1.386 . S
C429 C433 1.393 . S
C430 H422 0.950 . S
C430 C428 1.391 . S
C430 C431 1.400 . S
C431 C430 1.400 . S
C431 C432 1.398 . S
C431 C437 1.491 . S
C432 H423 0.950 . S
C432 C431 1.398 . S
C432 C433 1.391 . S
C433 H421 0.950 . S
C433 C429 1.393 . S
C433 C432 1.391 . S
C434 H424 0.950 . S
C434 C435 1.386 . S
C434 C436 1.391 . S
C435 C434 1.386 . S
C435 C439 1.393 . S
C436 H425 0.950 . S
C436 C434 1.391 . S
C436 C437 1.400 . S
C437 C431 1.491 . S
C437 C436 1.400 . S
C437 C438 1.398 . S
C438 H426 0.950 . S
C438 C437 1.398 . S
C438 C439 1.391 . S
C439 H427 0.950 . S
C439 C435 1.393 . S
C439 C438 1.391 . S
H440 C448 0.950 . S
H441 C453 0.950 . S
H442 C450 0.950 . S
H443 C452 0.950 . S
H444 C454 0.950 . S
H445 C456 0.950 . S
H446 C458 0.950 . S
H447 C459 0.950 . S
C448 H440 0.950 . S
C448 C449 1.386 . S
C448 C450 1.391 . S
C449 C448 1.386 . S
C449 C453 1.393 1_455 S
C450 H442 0.950 . S
C450 C448 1.391 . S
C450 C451 1.400 1_455 S
C451 C450 1.400 1_655 S
C451 C452 1.398 . S
C451 C457 1.491 . S
C452 H443 0.950 . S
C452 C451 1.398 . S
C452 C453 1.391 . S
C453 H441 0.950 . S
C453 C449 1.393 1_655 S
C453 C452 1.391 . S
C454 H444 0.950 . S
C454 C455 1.386 . S
C454 C456 1.391 . S
C455 C454 1.386 . S
C455 C459 1.393 . S
C456 H445 0.950 . S
C456 C454 1.391 . S
C456 C457 1.400 . S
C457 C451 1.491 . S
C457 C456 1.400 . S
C457 C458 1.398 . S
C458 H446 0.950 . S
C458 C457 1.398 . S
C458 C459 1.391 . S
C459 H447 0.950 . S
C459 C455 1.393 . S
C459 C458 1.391 . S
H460 C468 0.950 . S
H461 C473 0.950 . S
H462 C470 0.950 . S
H463 C472 0.950 . S
H464 C474 0.950 . S
H465 C476 0.950 . S
H466 C478 0.950 . S
H467 C479 0.950 . S
C468 H460 0.950 . S
C468 C469 1.386 . S
C468 C470 1.391 . S
C469 C468 1.386 . S
C469 C473 1.393 1_545 S
C470 H462 0.950 . S
C470 C468 1.391 . S
C470 C471 1.400 . S
C471 C470 1.400 . S
C471 C472 1.398 . S
C471 C477 1.491 . S
C472 H463 0.950 . S
C472 C471 1.398 . S
C472 C473 1.391 1_545 S
C473 H461 0.950 . S
C473 C469 1.393 1_565 S
C473 C472 1.391 1_565 S
C474 H464 0.950 . S
C474 C475 1.386 . S
C474 C476 1.391 . S
C475 C474 1.386 . S
C475 C479 1.393 . S
C476 H465 0.950 . S
C476 C474 1.391 . S
C476 C477 1.400 . S
C477 C471 1.491 . S
C477 C476 1.400 . S
C477 C478 1.398 . S
C478 H466 0.950 . S
C478 C477 1.398 . S
C478 C479 1.391 . S
C479 H467 0.950 . S
C479 C475 1.393 . S
C479 C478 1.391 . S
H480 C488 0.950 . S
H481 C493 0.950 . S
H482 C490 0.950 . S
H483 C492 0.950 . S
H484 C494 0.950 . S
H485 C496 0.950 . S
H486 C498 0.950 . S
H487 C499 0.950 . S
C488 H480 0.950 . S
C488 C489 1.386 . S
C488 C490 1.391 . S
C489 C488 1.386 . S
C489 C493 1.393 . S
C490 H482 0.950 . S
C490 C488 1.391 . S
C490 C491 1.400 . S
C491 C490 1.400 . S
C491 C492 1.398 . S
C491 C497 1.491 . S
C492 H483 0.950 . S
C492 C491 1.398 . S
C492 C493 1.391 . S
C493 H481 0.950 . S
C493 C489 1.393 . S
C493 C492 1.391 . S
C494 H484 0.950 . S
C494 C495 1.386 1_556 S
C494 C496 1.391 . S
C495 C494 1.386 1_554 S
C495 C499 1.393 . S
C496 H485 0.950 . S
C496 C494 1.391 . S
C496 C497 1.400 . S
C497 C491 1.491 . S
C497 C496 1.400 . S
C497 C498 1.398 . S
C498 H486 0.950 . S
C498 C497 1.398 . S
C498 C499 1.391 1_556 S
C499 H487 0.950 . S
C499 C495 1.393 . S
C499 C498 1.391 1_554 S
H500 C508 0.950 . S
H501 C513 0.950 . S
H502 C510 0.950 . S
H503 C512 0.950 . S
H504 C514 0.950 . S
H505 C516 0.950 . S
H506 C518 0.950 . S
H507 C519 0.950 . S
C508 H500 0.950 . S
C508 C509 1.386 . S
C508 C510 1.391 . S
C509 C508 1.386 . S
C509 C513 1.393 . S
C510 H502 0.950 . S
C510 C508 1.391 . S
C510 C511 1.400 . S
C511 C510 1.400 . S
C511 C512 1.398 . S
C511 C517 1.491 1_655 S
C512 H503 0.950 . S
C512 C511 1.398 . S
C512 C513 1.391 . S
C513 H501 0.950 . S
C513 C509 1.393 . S
C513 C512 1.391 . S
C514 H504 0.950 . S
C514 C515 1.386 . S
C514 C516 1.391 . S
C515 C514 1.386 . S
C515 C519 1.393 . S
C516 H505 0.950 . S
C516 C514 1.391 . S
C516 C517 1.400 . S
C517 C511 1.491 1_455 S
C517 C516 1.400 . S
C517 C518 1.398 . S
C518 H506 0.950 . S
C518 C517 1.398 . S
C518 C519 1.391 . S
C519 H507 0.950 . S
C519 C515 1.393 . S
C519 C518 1.391 . S
H520 C528 0.950 . S
H521 C533 0.950 . S
H522 C530 0.944 1_545 S
H523 C532 0.950 . S
H524 C534 0.950 . S
H525 C536 0.950 . S
H526 C538 0.950 . S
H527 C539 0.950 . S
C528 H520 0.950 . S
C528 C529 1.386 . S
C528 C530 1.391 . S
C529 C528 1.386 . S
C529 C533 1.393 . S
C530 H522 0.944 1_565 S
C530 C528 1.391 . S
C530 C531 1.400 . S
C531 C530 1.400 . S
C531 C532 1.398 . S
C531 C537 1.491 1_565 S
C532 H523 0.950 . S
C532 C531 1.398 . S
C532 C533 1.391 . S
C533 H521 0.950 . S
C533 C529 1.393 . S
C533 C532 1.391 . S
C534 H524 0.950 . S
C534 C535 1.386 . S
C534 C536 1.391 . S
C535 C534 1.386 . S
C535 C539 1.393 . S
C536 H525 0.950 . S
C536 C534 1.391 . S
C536 C537 1.400 . S
C537 C531 1.491 1_545 S
C537 C536 1.400 . S
C537 C538 1.398 . S
C538 H526 0.950 . S
C538 C537 1.398 . S
C538 C539 1.391 . S
C539 H527 0.950 . S
C539 C535 1.393 . S
C539 C538 1.391 . S
H540 C548 0.950 . S
H541 C553 0.950 . S
H542 C550 0.950 . S
H543 C552 0.950 . S
H544 C554 0.958 . S
H545 C556 0.950 . S
H546 C558 0.950 . S
H547 C559 0.936 1_554 S
C548 H540 0.950 . S
C548 C549 1.386 . S
C548 C550 1.391 . S
C549 C548 1.386 . S
C549 C553 1.393 . S
C550 H542 0.950 . S
C550 C548 1.391 . S
C550 C551 1.400 . S
C551 C550 1.400 . S
C551 C552 1.398 . S
C551 C557 1.491 . S
C552 H543 0.950 . S
C552 C551 1.398 . S
C552 C553 1.391 . S
C553 H541 0.950 . S
C553 C549 1.393 . S
C553 C552 1.391 . S
C554 H544 0.958 . S
C554 C555 1.393 . S
C554 C556 1.375 1_554 S
C555 C554 1.393 . S
C555 C559 1.378 1_554 S
C556 H545 0.950 . S
C556 C554 1.375 1_556 S
C556 C557 1.400 . S
C557 C551 1.491 . S
C557 C556 1.400 . S
C557 C558 1.398 . S
C558 H546 0.950 . S
C558 C557 1.398 . S
C558 C559 1.420 . S
C559 H547 0.936 1_556 S
C559 C555 1.378 1_556 S
C559 C558 1.420 . S
H560 C568 0.950 . S
H561 C573 0.950 . S
H562 C570 0.950 . S
H563 C572 0.950 1_655 S
H564 C574 0.950 . S
H565 C576 0.950 . S
H566 C578 0.950 . S
H567 C579 0.955 . S
C568 H560 0.950 . S
C568 C569 1.386 . S
C568 C570 1.391 . S
C569 C568 1.386 . S
C569 C573 1.393 . S
C570 H562 0.950 . S
C570 C568 1.391 . S
C570 C571 1.400 . S
C571 C570 1.400 . S
C571 C572 1.398 . S
C571 C577 1.491 1_455 S
C572 H563 0.950 1_455 S
C572 C571 1.398 . S
C572 C573 1.391 . S
C573 H561 0.950 . S
C573 C569 1.393 . S
C573 C572 1.391 . S
C574 H564 0.950 . S
C574 C575 1.386 . S
C574 C576 1.391 . S
C575 C574 1.386 . S
C575 C579 1.393 . S
C576 H565 0.950 . S
C576 C574 1.391 . S
C576 C577 1.400 . S
C577 C571 1.491 1_655 S
C577 C576 1.400 . S
C577 C578 1.398 1_655 S
C578 H566 0.950 . S
C578 C577 1.398 1_455 S
C578 C579 1.391 1_455 S
C579 H567 0.955 . S
C579 C575 1.393 . S
C579 C578 1.391 1_655 S
H580 C588 0.950 . S
H581 C593 0.950 . S
H582 C590 0.950 . S
H583 C592 0.950 1_565 S
H584 C594 0.950 . S
H585 C596 0.950 . S
H586 C598 0.950 . S
H587 C599 0.950 1_545 S
C588 H580 0.950 . S
C588 C589 1.386 . S
C588 C590 1.391 . S
C589 C588 1.386 . S
C589 C593 1.393 . S
C590 H582 0.950 . S
C590 C588 1.391 . S
C590 C591 1.400 . S
C591 C590 1.400 . S
C591 C592 1.398 . S
C591 C597 1.491 1_545 S
C592 H583 0.950 1_545 S
C592 C591 1.398 . S
C592 C593 1.391 . S
C593 H581 0.950 . S
C593 C589 1.393 . S
C593 C592 1.391 . S
C594 H584 0.950 . S
C594 C595 1.386 . S
C594 C596 1.391 . S
C595 C594 1.386 . S
C595 C599 1.393 . S
C596 H585 0.950 . S
C596 C594 1.391 . S
C596 C597 1.400 . S
C597 C591 1.491 1_565 S
C597 C596 1.400 . S
C597 C598 1.398 1_565 S
C598 H586 0.950 . S
C598 C597 1.398 1_545 S
C598 C599 1.391 1_545 S
C599 H587 0.950 1_565 S
C599 C595 1.393 . S
C599 C598 1.391 1_565 S
C249 C184 1.355 . S
C255 C26 1.359 . S
C269 C226 1.359 . S
C275 C64 1.355 . S
C289 C24 1.356 . S
C295 C106 1.357 . S
C309 C66 1.354 . S
C315 C144 1.349 . S
C329 C104 1.357 . S
C335 C186 1.358 . S
C349 C146 1.358 . S
C355 C224 1.354 . S
C369 C2 1.601 . S
C375 C143 1.668 . S
C389 C162 1.596 . S
C395 C63 1.660 1_455 S
C409 C223 1.672 . S
C415 C82 1.579 . S
C429 C103 1.652 . S
C435 C202 1.577 . S
C449 C23 1.654 . S
C455 C122 1.586 . S
C469 C183 1.676 1_545 S
C475 C42 1.590 . S
C489 C217 0.746 . S
C495 C17 0.786 . S
C509 C53 1.554 . S
C515 C13 1.555 . S
C529 C97 0.770 . S
C535 C57 0.757 . S
C549 C93 1.566 . S
C555 C133 1.564 . S
C569 C177 0.747 . S
C575 C137 0.788 . S
C589 C213 1.552 . S
C595 C173 1.559 . S
