# Generated by pormake.
# Topology fna, (5)-cn, num edge types: 1
# Building blocks:
#     Node 0, Type 0, BuildingBlock: BEQFEK_clean_sbu_0, # of connection points: 5
#     Node 1, Type 0, BuildingBlock: BEQFEK_clean_sbu_0, # of connection points: 5
#     Node 2, Type 0, BuildingBlock: BEQFEK_clean_sbu_0, # of connection points: 5
#     Node 3, Type 0, BuildingBlock: BEQFEK_clean_sbu_0, # of connection points: 5
#     Node 4, Type 0, BuildingBlock: BEQFEK_clean_sbu_0, # of connection points: 5
#     Node 5, Type 0, BuildingBlock: BEQFEK_clean_sbu_0, # of connection points: 5
#     Node 6, Type 0, BuildingBlock: BEQFEK_clean_sbu_0, # of connection points: 5
#     Node 7, Type 0, BuildingBlock: BEQFEK_clean_sbu_0, # of connection points: 5
#     Node 8, Type 0, BuildingBlock: BEQFEK_clean_sbu_0, # of connection points: 5
#     Node 9, Type 0, BuildingBlock: BEQFEK_clean_sbu_0, # of connection points: 5
#     Node 10, Type 0, BuildingBlock: BEQFEK_clean_sbu_0, # of connection points: 5
#     Node 11, Type 0, BuildingBlock: BEQFEK_clean_sbu_0, # of connection points: 5
#     Edge 12, Type (0, 0), BuildingBlock: MIFKUJ_clean_linker_0, # of connection points: 2
#     Edge 13, Type (0, 0), BuildingBlock: MIFKUJ_clean_linker_0, # of connection points: 2
#     Edge 14, Type (0, 0), BuildingBlock: MIFKUJ_clean_linker_0, # of connection points: 2
#     Edge 15, Type (0, 0), BuildingBlock: MIFKUJ_clean_linker_0, # of connection points: 2
#     Edge 16, Type (0, 0), BuildingBlock: MIFKUJ_clean_linker_0, # of connection points: 2
#     Edge 17, Type (0, 0), BuildingBlock: MIFKUJ_clean_linker_0, # of connection points: 2
#     Edge 18, Type (0, 0), BuildingBlock: MIFKUJ_clean_linker_0, # of connection points: 2
#     Edge 19, Type (0, 0), BuildingBlock: MIFKUJ_clean_linker_0, # of connection points: 2
#     Edge 20, Type (0, 0), BuildingBlock: MIFKUJ_clean_linker_0, # of connection points: 2
#     Edge 21, Type (0, 0), BuildingBlock: MIFKUJ_clean_linker_0, # of connection points: 2
#     Edge 22, Type (0, 0), BuildingBlock: MIFKUJ_clean_linker_0, # of connection points: 2
#     Edge 23, Type (0, 0), BuildingBlock: MIFKUJ_clean_linker_0, # of connection points: 2
#     Edge 24, Type (0, 0), BuildingBlock: MIFKUJ_clean_linker_0, # of connection points: 2
#     Edge 25, Type (0, 0), BuildingBlock: MIFKUJ_clean_linker_0, # of connection points: 2
#     Edge 26, Type (0, 0), BuildingBlock: MIFKUJ_clean_linker_0, # of connection points: 2
#     Edge 27, Type (0, 0), BuildingBlock: MIFKUJ_clean_linker_0, # of connection points: 2
#     Edge 28, Type (0, 0), BuildingBlock: MIFKUJ_clean_linker_0, # of connection points: 2
#     Edge 29, Type (0, 0), BuildingBlock: MIFKUJ_clean_linker_0, # of connection points: 2
#     Edge 30, Type (0, 0), BuildingBlock: MIFKUJ_clean_linker_0, # of connection points: 2
#     Edge 31, Type (0, 0), BuildingBlock: MIFKUJ_clean_linker_0, # of connection points: 2
#     Edge 32, Type (0, 0), BuildingBlock: MIFKUJ_clean_linker_0, # of connection points: 2
#     Edge 33, Type (0, 0), BuildingBlock: MIFKUJ_clean_linker_0, # of connection points: 2
#     Edge 34, Type (0, 0), BuildingBlock: MIFKUJ_clean_linker_0, # of connection points: 2
#     Edge 35, Type (0, 0), BuildingBlock: MIFKUJ_clean_linker_0, # of connection points: 2
#     Edge 36, Type (0, 0), BuildingBlock: MIFKUJ_clean_linker_0, # of connection points: 2
#     Edge 37, Type (0, 0), BuildingBlock: MIFKUJ_clean_linker_0, # of connection points: 2
#     Edge 38, Type (0, 0), BuildingBlock: MIFKUJ_clean_linker_0, # of connection points: 2
#     Edge 39, Type (0, 0), BuildingBlock: MIFKUJ_clean_linker_0, # of connection points: 2
#     Edge 40, Type (0, 0), BuildingBlock: MIFKUJ_clean_linker_0, # of connection points: 2
#     Edge 41, Type (0, 0), BuildingBlock: MIFKUJ_clean_linker_0, # of connection points: 2
# Relax obj value: 0.676
# Max RMSD: 0.270
# Mean RMSD: 0.270
data_MOF--net-fna--node1-BEQFEK_clean_sbu_0--edge1-MIFKUJ_clean_linker_0
_symmetry_space_group_name_H-M    P1
_symmetry_Int_Tables_number       1
_symmetry_cell_setting            triclinic
loop_
_symmetry_equiv_pos_as_xyz
'x, y, z'
_cell_length_a     56.673037
_cell_length_b     56.694751
_cell_length_c     50.473823
_cell_angle_alpha  90.028658
_cell_angle_beta   89.976505
_cell_angle_gamma 119.98811
loop_
_atom_site_label
_atom_site_type_symbol
_atom_site_fract_x
_atom_site_fract_y
_atom_site_fract_z
_atom_type_partial_charge
Co0 Co 0.35391 0.3423 0.48278 0.0
Co1 Co 0.33754 0.31163 0.42869 0.0
C2 C 0.39367 0.35788 0.43825 0.0
O3 O 0.38714 0.35999 0.46181 0.0
O4 O 0.3764 0.34059 0.4221 0.0
C5 C 0.38583 0.36105 0.52948 0.0
O6 O 0.40095 0.35297 0.51709 0.0
C7 C 0.33708 0.27717 0.38494 0.0
C8 C 0.29488 0.25974 0.37029 0.0
C9 C 0.31865 0.25879 0.36669 0.0
N10 N 0.3246 0.28812 0.3987 0.0
N11 N 0.29956 0.27801 0.38949 0.0
C12 C 0.36512 0.28239 0.3912 0.0
H13 H 0.37183 0.29218 0.41091 0.0
H14 H 0.36568 0.2631 0.39084 0.0
H15 H 0.37955 0.29628 0.37604 0.0
C16 C 0.33593 0.28715 0.50304 0.0
N17 N 0.3399 0.30435 0.48301 0.0
N18 N 0.33419 0.29107 0.46035 0.0
C19 C 0.32677 0.26479 0.46543 0.0
C20 C 0.32801 0.26163 0.49268 0.0
C21 C 0.33857 0.29467 0.53178 0.0
H22 H 0.33198 0.30983 0.53517 0.0
H23 H 0.36016 0.3036 0.53791 0.0
H24 H 0.32602 0.27649 0.54425 0.0
O25 O 0.32664 0.35081 0.46955 0.0
O26 O 0.31334 0.32785 0.43177 0.0
H27 H 0.30571 0.24378 0.43014 0.0
H28 H 0.3117 0.22293 0.45311 0.0
C29 C 0.32032 0.24362 0.4446 0.0
H30 H 0.33929 0.24834 0.43402 0.0
H31 H 0.28531 0.28277 0.39706 0.0
O32 O 0.36429 0.35792 0.51853 0.0
C33 C 0.31158 0.34327 0.44907 0.0
Co34 Co 0.01745 0.34661 0.65606 0.0
Co35 Co 0.02975 0.33688 0.59818 0.0
C36 C 0.03176 0.3889 0.61513 0.0
O37 O 0.02597 0.38044 0.63879 0.0
O38 O 0.03323 0.37406 0.59693 0.0
C39 C 0.99676 0.35989 0.70024 0.0
O40 O 0.98499 0.36663 0.68165 0.0
C41 C 0.06626 0.34799 0.55314 0.0
C42 C 0.04862 0.30757 0.53418 0.0
C43 C 0.07093 0.33371 0.53337 0.0
N44 N 0.04286 0.33082 0.56553 0.0
N45 N 0.03208 0.30686 0.55369 0.0
C46 C 0.08342 0.37749 0.56023 0.0
H47 H 0.09393 0.37947 0.57933 0.0
H48 H 0.0986 0.38906 0.54458 0.0
H49 H 0.07025 0.3866 0.56286 0.0
C50 C 0.06198 0.33666 0.66842 0.0
N51 N 0.04555 0.33909 0.65087 0.0
N52 N 0.05128 0.33466 0.62674 0.0
C53 C 0.07186 0.32909 0.62841 0.0
C54 C 0.07917 0.33022 0.65485 0.0
C55 C 0.06147 0.34106 0.69761 0.0
H56 H 0.06288 0.36104 0.70121 0.0
H57 H 0.07846 0.34057 0.70797 0.0
H58 H 0.04181 0.32501 0.7059 0.0
O59 O 0.98329 0.3163 0.6435 0.0
O60 O 0.99042 0.30763 0.60235 0.0
H61 H 0.09586 0.31244 0.61247 0.0
H62 H 0.09694 0.34003 0.59389 0.0
C63 C 0.08357 0.32153 0.60556 0.0
H64 H 0.06696 0.30681 0.59258 0.0
H65 H 0.01418 0.28963 0.55986 0.0
O66 O 0.0123 0.35074 0.69369 0.0
C67 C 0.97485 0.3023 0.62241 0.0
Co68 Co 0.66075 0.02026 0.82333 0.0
Co69 Co 0.69157 0.03465 0.76925 0.0
C70 C 0.64438 0.04308 0.77799 0.0
O71 O 0.64238 0.03453 0.80154 0.0
O72 O 0.66214 0.04376 0.76204 0.0
C73 C 0.6425 0.03576 0.86821 0.0
O74 O 0.65052 0.05791 0.85403 0.0
C75 C 0.72508 0.06746 0.72433 0.0
C76 C 0.74243 0.04244 0.71016 0.0
C77 C 0.74259 0.06661 0.70552 0.0
N78 N 0.71511 0.04484 0.73925 0.0
N79 N 0.7253 0.02982 0.73045 0.0
C80 C 0.71968 0.0903 0.72974 0.0
H81 H 0.7116 0.08867 0.7501 0.0
H82 H 0.73858 0.11026 0.72722 0.0
H83 H 0.70426 0.08917 0.71547 0.0
C84 C 0.71621 0.05774 0.84344 0.0
N85 N 0.6987 0.04485 0.82345 0.0
N86 N 0.71182 0.05242 0.8007 0.0
C87 C 0.7382 0.07093 0.80564 0.0
C88 C 0.74173 0.0748 0.83284 0.0
C89 C 0.70844 0.05455 0.87215 0.0
H90 H 0.69936 0.06745 0.87672 0.0
H91 H 0.72629 0.06103 0.88528 0.0
H92 H 0.69326 0.03302 0.87648 0.0
O93 O 0.65294 0.9842 0.81105 0.0
O94 O 0.67618 0.99451 0.77332 0.0
H95 H 0.78043 0.09546 0.79401 0.0
H96 H 0.75614 0.0983 0.77315 0.0
C97 C 0.75986 0.08401 0.78496 0.0
H98 H 0.75912 0.06824 0.77145 0.0
H99 H 0.72111 0.01127 0.73876 0.0
O100 O 0.64528 0.01645 0.85896 0.0
C101 C 0.66111 0.97716 0.79067 0.0
Co102 Co 0.64343 0.66493 0.98114 0.0
Co103 Co 0.65949 0.69315 0.92605 0.0
C104 C 0.60392 0.64439 0.93732 0.0
O105 O 0.60961 0.64412 0.96156 0.0
O106 O 0.62142 0.66123 0.92101 0.0
C107 C 0.61822 0.62913 0.02492 0.0
O108 O 0.60177 0.61223 0.00687 0.0
C109 C 0.65343 0.725 0.88423 0.0
C110 C 0.69112 0.73934 0.86089 0.0
C111 C 0.66761 0.74115 0.86257 0.0
N112 N 0.66801 0.71454 0.89469 0.0
N113 N 0.69034 0.72284 0.88046 0.0
C114 C 0.62763 0.72104 0.8965 0.0
H115 H 0.62516 0.71275 0.91686 0.0
H116 H 0.62754 0.74056 0.89715 0.0
H117 H 0.61003 0.70623 0.88449 0.0
C118 C 0.65731 0.71966 0.99865 0.0
N119 N 0.65467 0.70208 0.97944 0.0
N120 N 0.66189 0.71481 0.95651 0.0
C121 C 0.6699 0.74136 0.96071 0.0
C122 C 0.6671 0.74515 0.98749 0.0
C123 C 0.6494 0.71168 0.02695 0.0
H124 H 0.62884 0.69332 0.02776 0.0
H125 H 0.64925 0.72825 0.03852 0.0
H126 H 0.66399 0.70644 0.0361 0.0
O127 O 0.6723 0.65827 0.96807 0.0
O128 O 0.68654 0.68048 0.92996 0.0
H129 H 0.69563 0.78329 0.9493 0.0
H130 H 0.66513 0.76466 0.93014 0.0
C131 C 0.68178 0.76323 0.9401 0.0
H132 H 0.69316 0.75854 0.92515 0.0
H133 H 0.70539 0.71789 0.88456 0.0
O134 O 0.63707 0.65262 0.01809 0.0
C135 C 0.68829 0.66592 0.94824 0.0
Co136 Co 0.99343 0.64971 0.14938 0.0
Co137 Co 0.97024 0.65976 0.09699 0.0
C138 C 0.9772 0.61147 0.10299 0.0
O139 O 0.98718 0.62016 0.12576 0.0
O140 O 0.96857 0.62411 0.08868 0.0
C141 C 0.98541 0.61526 0.19201 0.0
O142 O 0.96442 0.59876 0.17733 0.0
C143 C 0.93201 0.65376 0.05375 0.0
C144 C 0.94551 0.69695 0.04558 0.0
C145 C 0.92594 0.67065 0.03874 0.0
N146 N 0.95373 0.66947 0.06914 0.0
N147 N 0.96191 0.69524 0.06378 0.0
C148 C 0.91808 0.6233 0.05303 0.0
H149 H 0.9045 0.61476 0.07048 0.0
H150 H 0.90596 0.61508 0.03464 0.0
H151 H 0.93339 0.61664 0.05401 0.0
C152 C 0.94803 0.65406 0.17269 0.0
N153 N 0.96245 0.65378 0.15163 0.0
N154 N 0.95188 0.65734 0.12982 0.0
C155 C 0.93 0.65967 0.13647 0.0
C156 C 0.92676 0.65741 0.16386 0.0
C157 C 0.95582 0.6535 0.20095 0.0
H158 H 0.97829 0.66399 0.20293 0.0
H159 H 0.94709 0.63204 0.20741 0.0
H160 H 0.94786 0.66358 0.21417 0.0
O161 O 0.02471 0.68321 0.13713 0.0
O162 O 0.00931 0.69057 0.09935 0.0
H163 H 0.92438 0.68317 0.10665 0.0
H164 H 0.89445 0.66292 0.1267 0.0
C165 C 0.91225 0.66342 0.11699 0.0
H166 H 0.90477 0.64699 0.10201 0.0
H167 H 0.9782 0.7117 0.07322 0.0
O168 O 0.00142 0.63931 0.1839 0.0
C169 C 0.0283 0.69733 0.11639 0.0
Co170 Co 0.34132 0.98196 0.31434 0.0
Co171 Co 0.30781 0.96995 0.26181 0.0
C172 C 0.36194 0.97236 0.26372 0.0
O173 O 0.36452 0.97821 0.28819 0.0
O174 O 0.34093 0.96807 0.25064 0.0
C175 C 0.38232 0.99647 0.35474 0.0
O176 O 0.39997 0.01038 0.33603 0.0
C177 C 0.27454 0.9375 0.21637 0.0
C178 C 0.2502 0.95728 0.20814 0.0
C179 C 0.25362 0.9357 0.20051 0.0
N180 N 0.28256 0.95876 0.23296 0.0
N181 N 0.26818 0.9707 0.22764 0.0
C182 C 0.28733 0.9199 0.2154 0.0
H183 H 0.27867 0.90438 0.23132 0.0
H184 H 0.28375 0.9095 0.19596 0.0
H185 H 0.30954 0.93233 0.21878 0.0
C186 C 0.29025 0.93496 0.33272 0.0
N187 N 0.3055 0.95212 0.31336 0.0
N188 N 0.29068 0.94706 0.2918 0.0
C189 C 0.26516 0.92659 0.29702 0.0
C190 C 0.26422 0.91812 0.32306 0.0
C191 C 0.2999 0.93656 0.36063 0.0
H192 H 0.30787 0.95757 0.36821 0.0
H193 H 0.3168 0.93202 0.36086 0.0
H194 H 0.28343 0.92223 0.374 0.0
O195 O 0.34107 0.01602 0.30858 0.0
O196 O 0.31781 0.00828 0.27108 0.0
H197 H 0.24015 0.93283 0.26941 0.0
H198 H 0.22249 0.90079 0.28706 0.0
C199 C 0.24204 0.91575 0.27773 0.0
H200 H 0.24628 0.90556 0.26121 0.0
H201 H 0.27011 0.98758 0.23786 0.0
O202 O 0.35704 0.98357 0.34941 0.0
C203 C 0.33094 0.02383 0.29044 0.0
Co204 Co 0.65927 0.65028 0.34717 0.0
Co205 Co 0.68469 0.66045 0.40384 0.0
C206 C 0.63429 0.60814 0.38942 0.0
O207 O 0.63522 0.61686 0.36609 0.0
O208 O 0.65208 0.62272 0.4067 0.0
C209 C 0.62458 0.62728 0.30215 0.0
O210 O 0.60519 0.61497 0.31984 0.0
C211 C 0.71208 0.6528 0.44977 0.0
C212 C 0.73692 0.69504 0.46419 0.0
C213 C 0.73221 0.66882 0.468 0.0
N214 N 0.70597 0.66901 0.43542 0.0
N215 N 0.72043 0.69412 0.44456 0.0
C216 C 0.69828 0.62256 0.4462 0.0
H217 H 0.70605 0.61778 0.42799 0.0
H218 H 0.70152 0.61251 0.46355 0.0
H219 H 0.67611 0.61419 0.44376 0.0
C220 C 0.71383 0.66141 0.3319 0.0
N221 N 0.69567 0.65871 0.35051 0.0
N222 N 0.70694 0.66284 0.3741 0.0
C223 C 0.73297 0.6684 0.37109 0.0
C224 C 0.73812 0.66784 0.34423 0.0
C225 C 0.70735 0.65629 0.30297 0.0
H226 H 0.68922 0.6358 0.30027 0.0
H227 H 0.72449 0.65732 0.29141 0.0
H228 H 0.70234 0.67155 0.29516 0.0
O229 O 0.65474 0.68031 0.35997 0.0
O230 O 0.67322 0.68856 0.40011 0.0
H231 H 0.7535 0.69135 0.40566 0.0
H232 H 0.77359 0.68143 0.38571 0.0
C233 C 0.75282 0.67489 0.39325 0.0
H234 H 0.74602 0.6566 0.40582 0.0
H235 H 0.72002 0.71087 0.43652 0.0
O236 O 0.6487 0.6438 0.30973 0.0
C237 C 0.66139 0.69384 0.38145 0.0
Co238 Co 0.00432 0.65181 0.513 0.0
Co239 Co 0.02149 0.68179 0.56754 0.0
C240 C 0.02328 0.63077 0.5575 0.0
O241 O 0.01487 0.62998 0.53408 0.0
O242 O 0.0265 0.64952 0.57352 0.0
C243 C 0.01515 0.63053 0.46716 0.0
O244 O 0.03757 0.63655 0.48014 0.0
C245 C 0.05659 0.711 0.61303 0.0
C246 C 0.04287 0.74031 0.62234 0.0
C247 C 0.06231 0.73329 0.62895 0.0
N248 N 0.0354 0.70581 0.59726 0.0
N249 N 0.02691 0.723 0.60337 0.0
C250 C 0.07035 0.69431 0.61308 0.0
H251 H 0.05478 0.67241 0.61331 0.0
H252 H 0.08261 0.69843 0.59474 0.0
H253 H 0.08349 0.69853 0.63075 0.0
C254 C 0.04681 0.70563 0.49352 0.0
N255 N 0.03207 0.68861 0.51321 0.0
N256 N 0.04051 0.70124 0.53613 0.0
C257 C 0.06146 0.72669 0.53157 0.0
C258 C 0.06593 0.73015 0.50447 0.0
C259 C 0.04284 0.69867 0.46466 0.0
H260 H 0.02088 0.68544 0.46021 0.0
H261 H 0.05376 0.68765 0.45941 0.0
H262 H 0.05118 0.71732 0.45229 0.0
O263 O 0.97031 0.64826 0.52599 0.0
O264 O 0.98182 0.67039 0.56435 0.0
H265 H 0.06343 0.7522 0.56366 0.0
H266 H 0.09414 0.76616 0.54401 0.0
C267 C 0.07725 0.74718 0.5526 0.0
H268 H 0.08575 0.7384 0.56672 0.0
H269 H 0.011 0.72373 0.59372 0.0
O270 O 0.99799 0.63606 0.47732 0.0
C271 C 0.96411 0.65686 0.54661 0.0
Co272 Co 0.35326 0.00554 0.6727 0.0
Co273 Co 0.33845 0.02149 0.72704 0.0
C274 C 0.39235 0.02509 0.71811 0.0
O275 O 0.38494 0.016 0.69484 0.0
O276 O 0.37661 0.02872 0.73352 0.0
C277 C 0.38801 0.01429 0.6287 0.0
O278 O 0.40651 0.03255 0.64454 0.0
C279 C 0.34146 0.05858 0.76912 0.0
C280 C 0.30182 0.03429 0.78921 0.0
C281 C 0.32543 0.05956 0.7896 0.0
N282 N 0.32779 0.03407 0.75736 0.0
N283 N 0.30426 0.01953 0.76965 0.0
C284 C 0.36831 0.08087 0.75922 0.0
H285 H 0.37232 0.07624 0.73889 0.0
H286 H 0.36873 0.10065 0.75924 0.0
H287 H 0.38477 0.08254 0.77237 0.0
C288 C 0.33957 0.04598 0.6529 0.0
N289 N 0.34313 0.03252 0.673 0.0
N290 N 0.33661 0.03954 0.69554 0.0
C291 C 0.32847 0.05779 0.69026 0.0
C292 C 0.3302 0.06243 0.66313 0.0
C293 C 0.34562 0.0434 0.6245 0.0
H294 H 0.36759 0.05025 0.62246 0.0
H295 H 0.3407 0.05584 0.61112 0.0
H296 H 0.33387 0.02172 0.61841 0.0
O297 O 0.3228 0.97089 0.68486 0.0
O298 O 0.3117 0.98153 0.72349 0.0
H299 H 0.3048 0.07673 0.70057 0.0
H300 H 0.33428 0.08625 0.7208 0.0
C301 C 0.31722 0.06904 0.71026 0.0
H302 H 0.30448 0.05314 0.72487 0.0
H303 H 0.2896 0.99976 0.76429 0.0
O304 O 0.36349 0.00045 0.63663 0.0
C305 C 0.30794 0.96418 0.70549 0.0
Co306 Co 0.35457 0.34825 0.84956 0.0
Co307 Co 0.31758 0.33547 0.89986 0.0
C308 C 0.37185 0.38606 0.89603 0.0
O309 O 0.37538 0.37845 0.87348 0.0
O310 O 0.35001 0.37182 0.90918 0.0
C311 C 0.38154 0.38275 0.80673 0.0
O312 O 0.37671 0.39933 0.82093 0.0
C313 C 0.28293 0.34068 0.9408 0.0
C314 C 0.25385 0.29743 0.9495 0.0
C315 C 0.25975 0.32368 0.95548 0.0
N316 N 0.28992 0.3251 0.92642 0.0
N317 N 0.27266 0.2993 0.93203 0.0
C318 C 0.2989 0.37117 0.94108 0.0
H319 H 0.29642 0.37914 0.92185 0.0
H320 H 0.2925 0.37976 0.95747 0.0
H321 H 0.32083 0.37809 0.94357 0.0
C322 C 0.3048 0.34117 0.82326 0.0
N323 N 0.31874 0.34197 0.84516 0.0
N324 N 0.3032 0.3374 0.86614 0.0
C325 C 0.27887 0.33385 0.85811 0.0
C326 C 0.27926 0.33635 0.8307 0.0
C327 C 0.31485 0.34285 0.79548 0.0
H328 H 0.32762 0.33315 0.79414 0.0
H329 H 0.3272 0.36455 0.78964 0.0
H330 H 0.29763 0.33259 0.78134 0.0
O331 O 0.35391 0.31574 0.86302 0.0
O332 O 0.32719 0.30566 0.89849 0.0
H333 H 0.24889 0.30931 0.88688 0.0
H334 H 0.2387 0.3283 0.86559 0.0
C335 C 0.25603 0.32889 0.87636 0.0
H336 H 0.26348 0.34535 0.89131 0.0
H337 H 0.27328 0.2829 0.92336 0.0
O338 O 0.37405 0.35903 0.81552 0.0
C339 C 0.34189 0.30067 0.88286 0.0
Co340 Co 0.99272 0.34316 0.02504 0.0
Co341 Co 0.97977 0.31303 0.07925 0.0
C342 C 0.97298 0.36182 0.07016 0.0
O343 O 0.98012 0.36326 0.04616 0.0
O344 O 0.97272 0.34414 0.08594 0.0
C345 C 0.98605 0.36916 0.97911 0.0
O346 O 0.97164 0.37568 0.99472 0.0
C347 C 0.94288 0.2795 0.12116 0.0
C348 C 0.96571 0.26197 0.14029 0.0
C349 C 0.94098 0.2614 0.14068 0.0
N350 N 0.96738 0.2899 0.10952 0.0
N351 N 0.98111 0.27967 0.12128 0.0
C352 C 0.92243 0.28787 0.11412 0.0
H353 H 0.91872 0.28593 0.09244 0.0
H354 H 0.903 0.27597 0.12503 0.0
H355 H 0.93104 0.30971 0.11912 0.0
C356 C 0.95213 0.28886 0.006 0.0
N357 N 0.96671 0.30589 0.02572 0.0
N358 N 0.96057 0.2925 0.04831 0.0
C359 C 0.94177 0.26616 0.04341 0.0
C360 C 0.93588 0.26319 0.0165 0.0
C361 C 0.95312 0.29729 0.97771 0.0
H362 H 0.97428 0.30632 0.97018 0.0
H363 H 0.94695 0.31299 0.97659 0.0
H364 H 0.93938 0.27995 0.96486 0.0
O365 O 0.02823 0.34909 0.03693 0.0
O366 O 0.01959 0.32606 0.07463 0.0
H367 H 0.94696 0.24652 0.07745 0.0
H368 H 0.92199 0.22358 0.05383 0.0
C369 C 0.93068 0.24381 0.06353 0.0
H370 H 0.91421 0.24435 0.07486 0.0
H371 H 0.00066 0.2841 0.11577 0.0
O372 O 0.99713 0.35625 0.98847 0.0
C373 C 0.03614 0.34071 0.05651 0.0
Co374 Co 0.65093 0.00402 0.1866 0.0
Co375 Co 0.66131 0.97542 0.23441 0.0
C376 C 0.61106 0.97915 0.2314 0.0
O377 O 0.61973 0.99259 0.21005 0.0
O378 O 0.62446 0.97003 0.24367 0.0
C379 C 0.6186 0.00079 0.14318 0.0
O380 O 0.60183 0.97722 0.15415 0.0
C381 C 0.65733 0.93584 0.27524 0.0
C382 C 0.701 0.95022 0.28197 0.0
C383 C 0.67507 0.93061 0.28975 0.0
N384 N 0.67221 0.95741 0.25944 0.0
N385 N 0.69827 0.96593 0.2637 0.0
C386 C 0.62692 0.92173 0.27725 0.0
H387 H 0.61778 0.91084 0.25844 0.0
H388 H 0.61911 0.90718 0.29404 0.0
H389 H 0.62045 0.93704 0.28016 0.0
C390 C 0.65983 0.96408 0.15659 0.0
N391 N 0.65764 0.97507 0.17949 0.0
N392 N 0.66079 0.96204 0.19952 0.0
C393 C 0.66439 0.94182 0.18995 0.0
C394 C 0.66391 0.94244 0.16237 0.0
C395 C 0.66022 0.97547 0.12972 0.0
H396 H 0.66955 0.99791 0.13079 0.0
H397 H 0.63903 0.96664 0.12236 0.0
H398 H 0.67189 0.9704 0.1154 0.0
O399 O 0.68289 0.03474 0.20216 0.0
O400 O 0.69066 0.01488 0.23631 0.0
H401 H 0.68764 0.93145 0.21581 0.0
H402 H 0.66352 0.90347 0.19548 0.0
C403 C 0.66696 0.9216 0.20696 0.0
H404 H 0.65191 0.91491 0.22327 0.0
H405 H 0.71423 0.98246 0.25399 0.0
O406 O 0.64159 0.01608 0.15389 0.0
C407 C 0.69677 0.03594 0.22239 0.0
H408 H 0.35534 0.11739 0.66706 0.0
H409 H 0.34936 0.1486 0.63799 0.0
H410 H 0.28471 0.07997 0.59668 0.0
H411 H 0.29156 0.04887 0.6252 0.0
H412 H 0.31734 0.11409 0.56232 0.0
H413 H 0.27303 0.12301 0.63856 0.0
H414 H 0.26717 0.13031 0.6857 0.0
H415 H 0.33663 0.21091 0.6818 0.0
H416 H 0.34317 0.20397 0.63472 0.0
H417 H 0.28551 0.20881 0.49311 0.0
H418 H 0.28111 0.1713 0.5212 0.0
H419 H 0.3599 0.22494 0.55539 0.0
H420 H 0.36498 0.26182 0.52656 0.0
H421 H 0.31351 0.19537 0.59251 0.0
H422 H 0.35938 0.18324 0.51704 0.0
H423 H 0.36502 0.17457 0.47024 0.0
H424 H 0.28979 0.09845 0.47311 0.0
H425 H 0.28345 0.10689 0.51986 0.0
C426 C 0.33958 0.10912 0.65204 0.0
C427 C 0.32391 0.08093 0.64818 0.0
C428 C 0.33607 0.12688 0.63549 0.0
C429 C 0.31637 0.11668 0.61523 0.0
C430 C 0.30004 0.08836 0.6121 0.0
C431 C 0.30384 0.07063 0.62841 0.0
C432 C 0.31418 0.13554 0.59625 0.0
C433 C 0.31587 0.13151 0.56897 0.0
C434 C 0.31264 0.15853 0.60482 0.0
C435 C 0.30869 0.16288 0.63312 0.0
C436 C 0.28717 0.14223 0.64779 0.0
C437 C 0.28371 0.14632 0.6745 0.0
C438 C 0.30154 0.17104 0.68675 0.0
C439 C 0.32284 0.19177 0.67228 0.0
C440 C 0.3264 0.18778 0.64557 0.0
C441 C 0.30213 0.21229 0.50612 0.0
C442 C 0.32562 0.23811 0.50765 0.0
C443 C 0.2995 0.191 0.52227 0.0
C444 C 0.32014 0.19551 0.5404 0.0
C445 C 0.34372 0.22116 0.54162 0.0
C446 C 0.34655 0.24217 0.52521 0.0
C447 C 0.31707 0.17397 0.55892 0.0
C448 C 0.31442 0.17759 0.58603 0.0
C449 C 0.31741 0.15049 0.5502 0.0
C450 C 0.32076 0.14587 0.52185 0.0
C451 C 0.34383 0.16485 0.5076 0.0
C452 C 0.34723 0.15991 0.48112 0.0
C453 C 0.32783 0.13593 0.46876 0.0
C454 C 0.30484 0.11698 0.48275 0.0
C455 C 0.30132 0.12184 0.50923 0.0
H456 H 0.3306 0.13205 0.44832 0.0
H457 H 0.29884 0.17416 0.70743 0.0
H458 H 0.07229 0.28816 0.68552 0.0
H459 H 0.10696 0.28597 0.71271 0.0
H460 H 0.16854 0.36248 0.67969 0.0
H461 H 0.13385 0.364 0.65173 0.0
H462 H 0.18974 0.33095 0.68882 0.0
H463 H 0.13713 0.36008 0.73922 0.0
H464 H 0.09538 0.35745 0.75715 0.0
H465 H 0.07428 0.28179 0.7954 0.0
H466 H 0.11588 0.28393 0.7776 0.0
H467 H 0.2842 0.3739 0.79465 0.0
H468 H 0.25018 0.37027 0.76254 0.0
H469 H 0.19247 0.29128 0.79398 0.0
H470 H 0.22658 0.29506 0.82635 0.0
H471 H 0.16936 0.32257 0.78514 0.0
H472 H 0.22619 0.29699 0.73527 0.0
H473 H 0.27047 0.3043 0.71916 0.0
H474 H 0.28612 0.37865 0.68149 0.0
H475 H 0.24195 0.37175 0.69733 0.0
C476 C 0.0934 0.30401 0.68358 0.0
C477 C 0.10063 0.3262 0.66667 0.0
C478 C 0.11312 0.30294 0.69925 0.0
C479 C 0.14025 0.32442 0.69874 0.0
C480 C 0.14774 0.34574 0.68051 0.0
C481 C 0.12802 0.3466 0.66453 0.0
C482 C 0.1602 0.32566 0.71858 0.0
C483 C 0.18534 0.32929 0.70987 0.0
C484 C 0.15448 0.32337 0.74611 0.0
C485 C 0.12946 0.32203 0.75686 0.0
C486 C 0.1235 0.3428 0.75133 0.0
C487 C 0.0999 0.34143 0.76151 0.0
C488 C 0.08213 0.31941 0.77731 0.0
C489 C 0.08803 0.2988 0.7831 0.0
C490 C 0.11164 0.30011 0.77303 0.0
C491 C 0.26418 0.35584 0.79472 0.0
C492 C 0.25786 0.33476 0.81287 0.0
C493 C 0.24485 0.3537 0.77632 0.0
C494 C 0.21896 0.33028 0.77554 0.0
C495 C 0.21238 0.30947 0.79417 0.0
C496 C 0.23174 0.31167 0.81268 0.0
C497 C 0.19874 0.32762 0.75538 0.0
C498 C 0.1736 0.32388 0.76406 0.0
C499 C 0.20468 0.33028 0.72792 0.0
C500 C 0.23081 0.3339 0.71757 0.0
C501 C 0.23908 0.31489 0.72353 0.0
C502 C 0.26415 0.31893 0.7144 0.0
C503 C 0.28108 0.34188 0.69923 0.0
C504 C 0.27293 0.36078 0.69308 0.0
C505 C 0.24784 0.35677 0.70205 0.0
H506 H 0.30052 0.34503 0.69226 0.0
H507 H 0.06384 0.31836 0.78512 0.0
H508 H 0.77064 0.06307 0.86791 0.0
H509 H 0.80545 0.09471 0.89887 0.0
H510 H 0.80154 0.16173 0.86289 0.0
H511 H 0.76695 0.12999 0.83167 0.0
H512 H 0.85245 0.17748 0.87682 0.0
H513 H 0.76579 0.13238 0.91757 0.0
H514 H 0.72177 0.09389 0.93203 0.0
H515 H 0.76343 0.06449 0.98112 0.0
H516 H 0.80777 0.1025 0.96649 0.0
H517 H 0.8808 0.23879 0.01883 0.0
H518 H 0.84825 0.20554 0.98718 0.0
H519 H 0.91386 0.20057 0.9491 0.0
H520 H 0.94637 0.23448 0.98018 0.0
H521 H 0.83031 0.1557 0.97203 0.0
H522 H 0.9059 0.19696 0.88301 0.0
H523 H 0.94587 0.24012 0.86884 0.0
H524 H 0.91916 0.28516 0.9164 0.0
H525 H 0.87893 0.24231 0.93071 0.0
C526 C 0.77775 0.08466 0.86632 0.0
C527 C 0.7662 0.09426 0.84769 0.0
C528 C 0.79743 0.10267 0.88406 0.0
C529 C 0.80566 0.13051 0.88356 0.0
C530 C 0.79541 0.14033 0.86371 0.0
C531 C 0.77576 0.12228 0.84588 0.0
C532 C 0.82357 0.14895 0.90474 0.0
C533 C 0.8477 0.17266 0.89762 0.0
C534 C 0.8168 0.14321 0.93192 0.0
C535 C 0.79016 0.12017 0.94069 0.0
C536 C 0.7656 0.11756 0.93123 0.0
C537 C 0.74058 0.09585 0.9395 0.0
C538 C 0.73981 0.07674 0.95745 0.0
C539 C 0.76407 0.0793 0.96717 0.0
C540 C 0.78916 0.10092 0.95889 0.0
C541 C 0.88801 0.23 0.00406 0.0
C542 C 0.91588 0.23895 0.00177 0.0
C543 C 0.8695 0.21113 0.98594 0.0
C544 C 0.87869 0.201 0.96537 0.0
C545 C 0.90637 0.20856 0.96439 0.0
C546 C 0.92487 0.22763 0.98229 0.0
C547 C 0.85969 0.18376 0.94413 0.0
C548 C 0.83523 0.16039 0.95123 0.0
C549 C 0.86557 0.19044 0.91694 0.0
C550 C 0.88954 0.21637 0.90814 0.0
C551 C 0.9085 0.21607 0.89037 0.0
C552 C 0.93121 0.24049 0.88233 0.0
C553 C 0.93509 0.26535 0.89178 0.0
C554 C 0.91618 0.26587 0.90918 0.0
C555 C 0.89346 0.24152 0.91731 0.0
H556 H 0.95274 0.2842 0.88564 0.0
H557 H 0.72041 0.05999 0.96389 0.0
H558 H 0.64227 0.77491 0.97906 0.0
H559 H 0.64542 0.81189 0.00679 0.0
H560 H 0.70687 0.80863 0.05469 0.0
H561 H 0.70264 0.7708 0.02764 0.0
H562 H 0.67147 0.80892 0.08545 0.0
H563 H 0.72005 0.86342 0.01048 0.0
H564 H 0.72766 0.87672 0.96339 0.0
H565 H 0.65735 0.88664 0.96365 0.0
H566 H 0.64909 0.87304 0.01068 0.0
H567 H 0.70233 0.92671 0.16178 0.0
H568 H 0.70646 0.89619 0.13001 0.0
H569 H 0.63635 0.88719 0.08761 0.0
H570 H 0.63188 0.91723 0.11958 0.0
H571 H 0.6784 0.89502 0.05395 0.0
H572 H 0.62927 0.83839 0.12841 0.0
H573 H 0.6223 0.82565 0.17565 0.0
H574 H 0.69538 0.82054 0.17598 0.0
H575 H 0.70303 0.83369 0.12881 0.0
C576 C 0.65679 0.78256 0.99522 0.0
C577 C 0.67225 0.77022 0.00133 0.0
C578 C 0.65868 0.80373 0.01102 0.0
C579 C 0.67658 0.81332 0.03281 0.0
C580 C 0.69286 0.80161 0.03811 0.0
C581 C 0.69059 0.78015 0.0226 0.0
C582 C 0.67683 0.83397 0.05127 0.0
C583 C 0.67355 0.82798 0.07851 0.0
C584 C 0.67879 0.85858 0.04231 0.0
C585 C 0.68383 0.86698 0.01407 0.0
C586 C 0.7061 0.86826 0.00046 0.0
C587 C 0.71055 0.87588 0.97378 0.0
C588 C 0.69296 0.88246 0.96052 0.0
C589 C 0.67094 0.88151 0.97395 0.0
C590 C 0.66639 0.87388 0.00062 0.0
C591 C 0.6877 0.918 0.1458 0.0
C592 C 0.66668 0.92414 0.14321 0.0
C593 C 0.69015 0.90073 0.1276 0.0
C594 C 0.67163 0.88933 0.10651 0.0
C595 C 0.65093 0.89586 0.10365 0.0
C596 C 0.6484 0.913 0.12191 0.0
C597 C 0.67324 0.8699 0.08789 0.0
C598 C 0.67669 0.87607 0.06073 0.0
C599 C 0.67161 0.84551 0.09687 0.0
C600 C 0.66687 0.83731 0.12515 0.0
C601 C 0.64397 0.83476 0.13861 0.0
C602 C 0.63988 0.82744 0.16537 0.0
C603 C 0.65843 0.82236 0.17883 0.0
C604 C 0.68106 0.82452 0.16554 0.0
C605 C 0.68527 0.8319 0.13879 0.0
H606 H 0.65522 0.8167 0.19955 0.0
H607 H 0.69643 0.88834 0.93986 0.0
H608 H 0.91227 0.69676 0.16532 0.0
H609 H 0.88112 0.70022 0.19687 0.0
H610 H 0.86429 0.62419 0.23253 0.0
H611 H 0.89474 0.62039 0.20061 0.0
H612 H 0.81876 0.6268 0.22906 0.0
H613 H 0.91003 0.685 0.26001 0.0
H614 H 0.95781 0.72193 0.25661 0.0
H615 H 0.93131 0.77985 0.24305 0.0
H616 H 0.88332 0.74315 0.24596 0.0
H617 H 0.76241 0.63716 0.34969 0.0
H618 H 0.79763 0.63792 0.32067 0.0
H619 H 0.80422 0.70766 0.27955 0.0
H620 H 0.76896 0.70678 0.30844 0.0
H621 H 0.8552 0.70895 0.28622 0.0
H622 H 0.7635 0.64953 0.25484 0.0
H623 H 0.71611 0.61246 0.26084 0.0
H624 H 0.74432 0.5563 0.27692 0.0
H625 H 0.79195 0.5932 0.2715 0.0
C626 C 0.90143 0.68057 0.17956 0.0
C627 C 0.90581 0.65831 0.18062 0.0
C628 C 0.8839 0.68267 0.19773 0.0
C629 C 0.87069 0.66266 0.21734 0.0
C630 C 0.87429 0.63991 0.21766 0.0
C631 C 0.89173 0.63779 0.19951 0.0
C632 C 0.85384 0.66573 0.23814 0.0
C633 C 0.82687 0.64465 0.2417 0.0
C634 C 0.86425 0.68915 0.2545 0.0
C635 C 0.89308 0.71129 0.25293 0.0
C636 C 0.91439 0.70558 0.25611 0.0
C637 C 0.94151 0.72647 0.25429 0.0
C638 C 0.94759 0.75321 0.24955 0.0
C639 C 0.92656 0.75912 0.24668 0.0
C640 C 0.8994 0.73828 0.24842 0.0
C641 C 0.77203 0.65308 0.33495 0.0
C642 C 0.76309 0.67184 0.33107 0.0
C643 C 0.79199 0.65345 0.31836 0.0
C644 C 0.80326 0.67267 0.29779 0.0
C645 C 0.79579 0.69271 0.29529 0.0
C646 C 0.77569 0.69218 0.31173 0.0
C647 C 0.82034 0.67 0.2771 0.0
C648 C 0.84723 0.69114 0.27353 0.0
C649 C 0.80994 0.64659 0.26081 0.0
C650 C 0.78129 0.62417 0.26303 0.0
C651 C 0.7596 0.62931 0.25979 0.0
C652 C 0.73271 0.60834 0.26312 0.0
C653 C 0.72722 0.58207 0.2694 0.0
C654 C 0.74861 0.57668 0.27214 0.0
C655 C 0.77556 0.59761 0.26894 0.0
H656 H 0.70639 0.56587 0.27202 0.0
H657 H 0.9686 0.76937 0.24816 0.0
H658 H 0.2603 0.87379 0.34731 0.0
H659 H 0.22441 0.8424 0.37739 0.0
H660 H 0.17987 0.88464 0.36363 0.0
H661 H 0.21624 0.91647 0.33384 0.0
H662 H 0.18329 0.87684 0.41563 0.0
H663 H 0.15703 0.82117 0.33844 0.0
H664 H 0.16312 0.79844 0.29954 0.0
H665 H 0.18697 0.75319 0.35025 0.0
H666 H 0.18142 0.77595 0.38946 0.0
H667 H 0.06428 0.7733 0.48329 0.0
H668 H 0.09731 0.8071 0.45227 0.0
H669 H 0.14862 0.7714 0.461 0.0
H670 H 0.11542 0.73753 0.49173 0.0
H671 H 0.13885 0.77624 0.40976 0.0
H672 H 0.168 0.83498 0.48668 0.0
H673 H 0.1622 0.85855 0.52509 0.0
H674 H 0.13132 0.89746 0.4741 0.0
H675 H 0.13698 0.87417 0.43535 0.0
C676 C 0.24259 0.87601 0.35043 0.0
C677 C 0.24077 0.89726 0.33821 0.0
C678 C 0.2221 0.8581 0.36753 0.0
C679 C 0.19931 0.86101 0.37261 0.0
C680 C 0.19723 0.88197 0.35995 0.0
C681 C 0.2178 0.89994 0.34279 0.0
C682 C 0.17851 0.84296 0.39216 0.0
C683 C 0.17319 0.85483 0.41411 0.0
C684 C 0.1657 0.81426 0.39043 0.0
C685 C 0.16901 0.80045 0.36689 0.0
C686 C 0.16378 0.80653 0.3413 0.0
C687 C 0.1671 0.79361 0.31918 0.0
C688 C 0.17548 0.77443 0.32241 0.0
C689 C 0.1805 0.76807 0.34778 0.0
C690 C 0.17724 0.78096 0.36996 0.0
C691 C 0.08301 0.77328 0.47903 0.0
C692 C 0.08773 0.75329 0.48997 0.0
C693 C 0.1018 0.79248 0.46133 0.0
C694 C 0.1255 0.79184 0.45438 0.0
C695 C 0.13051 0.77228 0.46608 0.0
C696 C 0.11173 0.75313 0.48374 0.0
C697 C 0.14407 0.81012 0.43349 0.0
C698 C 0.14886 0.79826 0.41121 0.0
C699 C 0.15624 0.83879 0.43487 0.0
C700 C 0.15264 0.85262 0.45817 0.0
C701 C 0.15976 0.84839 0.48369 0.0
C702 C 0.15655 0.86173 0.50551 0.0
C703 C 0.14623 0.87933 0.50206 0.0
C704 C 0.13925 0.88376 0.47675 0.0
C705 C 0.14253 0.87057 0.45484 0.0
H706 H 0.14375 0.88962 0.51899 0.0
H707 H 0.17803 0.76444 0.30527 0.0
H708 H 0.27875 0.20676 0.35801 0.0
H709 H 0.28325 0.16989 0.3384 0.0
H710 H 0.36764 0.22606 0.32066 0.0
H711 H 0.36309 0.26342 0.33964 0.0
H712 H 0.33929 0.18382 0.28113 0.0
H713 H 0.35716 0.19516 0.37488 0.0
H714 H 0.34561 0.20199 0.42028 0.0
H715 H 0.27173 0.12465 0.41709 0.0
H716 H 0.28256 0.11761 0.3714 0.0
H717 H 0.3633 0.06446 0.3247 0.0
H718 H 0.36453 0.10751 0.33209 0.0
H719 H 0.30498 0.08779 0.27025 0.0
H720 H 0.30395 0.04466 0.26236 0.0
H721 H 0.32495 0.11474 0.34926 0.0
H722 H 0.31315 0.14697 0.24332 0.0
H723 H 0.32601 0.1434 0.19741 0.0
H724 H 0.39391 0.13694 0.22598 0.0
H725 H 0.38168 0.14083 0.27203 0.0
C726 C 0.29813 0.21146 0.34942 0.0
C727 C 0.32083 0.23783 0.35115 0.0
C728 C 0.30065 0.19035 0.33823 0.0
C729 C 0.32589 0.19523 0.32854 0.0
C730 C 0.34805 0.22191 0.32824 0.0
C731 C 0.34553 0.24312 0.33947 0.0
C732 C 0.32975 0.17197 0.32197 0.0
C733 C 0.33619 0.16866 0.29593 0.0
C734 C 0.32627 0.15265 0.34154 0.0
C735 C 0.32055 0.15597 0.36961 0.0
C736 C 0.33841 0.17964 0.38382 0.0
C737 C 0.33196 0.18359 0.40957 0.0
C738 C 0.30783 0.16388 0.42146 0.0
C739 C 0.29032 0.13998 0.40777 0.0
C740 C 0.29662 0.13598 0.38195 0.0
C741 C 0.35065 0.06934 0.31242 0.0
C742 C 0.33341 0.05101 0.29299 0.0
C743 C 0.35136 0.09398 0.31673 0.0
C744 C 0.33488 0.10092 0.30175 0.0
C745 C 0.31814 0.08303 0.28185 0.0
C746 C 0.31752 0.05835 0.27739 0.0
C747 C 0.33414 0.1261 0.30814 0.0
C748 C 0.32821 0.12982 0.33432 0.0
C749 C 0.3386 0.14599 0.28876 0.0
C750 C 0.34632 0.14392 0.26113 0.0
C751 C 0.33088 0.14489 0.2398 0.0
C752 C 0.33805 0.14279 0.21375 0.0
C753 C 0.36071 0.13986 0.20879 0.0
C754 C 0.3763 0.13911 0.22986 0.0
C755 C 0.36923 0.14121 0.25594 0.0
H756 H 0.36622 0.13823 0.18861 0.0
H757 H 0.30281 0.16704 0.44136 0.0
H758 H 0.30867 0.38364 0.47534 0.0
H759 H 0.26821 0.38771 0.48163 0.0
H760 H 0.22387 0.32204 0.42642 0.0
H761 H 0.26451 0.31785 0.4198 0.0
H762 H 0.20887 0.36552 0.42715 0.0
H763 H 0.21977 0.3034 0.4851 0.0
H764 H 0.24625 0.2914 0.51543 0.0
H765 H 0.257 0.3552 0.56858 0.0
H766 H 0.23097 0.36789 0.53829 0.0
H767 H 0.07603 0.31673 0.48429 0.0
H768 H 0.11787 0.32361 0.46303 0.0
H769 H 0.16501 0.37429 0.52845 0.0
H770 H 0.1235 0.36597 0.55042 0.0
H771 H 0.17833 0.33804 0.51988 0.0
H772 H 0.1665 0.39981 0.46415 0.0
H773 H 0.14216 0.41428 0.43365 0.0
H774 H 0.13425 0.35418 0.37705 0.0
H775 H 0.15823 0.33909 0.40737 0.0
C776 C 0.29057 0.37053 0.46394 0.0
C777 C 0.28959 0.35004 0.44749 0.0
C778 C 0.26751 0.37297 0.46749 0.0
C779 C 0.24302 0.35486 0.45483 0.0
C780 C 0.24264 0.33616 0.43637 0.0
C781 C 0.26585 0.33377 0.43268 0.0
C782 C 0.21729 0.35261 0.46428 0.0
C783 C 0.20191 0.35925 0.4473 0.0
C784 C 0.20862 0.34483 0.49072 0.0
C785 C 0.22364 0.33675 0.5093 0.0
C786 C 0.22793 0.31498 0.50317 0.0
C787 C 0.24285 0.30805 0.52036 0.0
C788 C 0.25337 0.32257 0.54388 0.0
C789 C 0.24887 0.34399 0.55033 0.0
C790 C 0.23402 0.35105 0.53316 0.0
C791 C 0.09541 0.32976 0.49384 0.0
C792 C 0.09642 0.34147 0.51868 0.0
C793 C 0.11932 0.33382 0.4816 0.0
C794 C 0.14468 0.34979 0.49396 0.0
C795 C 0.14573 0.36209 0.5184 0.0
C796 C 0.12189 0.35773 0.53076 0.0
C797 C 0.16983 0.35154 0.48298 0.0
C798 C 0.18511 0.34447 0.49971 0.0
C799 C 0.17837 0.35913 0.45642 0.0
C800 C 0.16392 0.36813 0.43816 0.0
C801 C 0.15936 0.38952 0.4453 0.0
C802 C 0.14567 0.39786 0.42802 0.0
C803 C 0.1366 0.3851 0.40346 0.0
C804 C 0.14126 0.36402 0.3961 0.0
C805 C 0.15492 0.35557 0.41331 0.0
H806 H 0.12601 0.3916 0.39011 0.0
H807 H 0.26495 0.3172 0.55713 0.0
H808 H 0.79447 0.08041 0.69342 0.0
H809 H 0.82729 0.11902 0.66716 0.0
H810 H 0.7654 0.13957 0.6486 0.0
H811 H 0.73243 0.10095 0.67525 0.0
H812 H 0.83471 0.1382 0.61833 0.0
H813 H 0.79484 0.20875 0.6515 0.0
H814 H 0.76638 0.21195 0.68682 0.0
H815 H 0.78942 0.16758 0.7397 0.0
H816 H 0.81832 0.16455 0.70486 0.0
H817 H 0.94256 0.27216 0.58021 0.0
H818 H 0.89642 0.23217 0.58269 0.0
H819 H 0.89932 0.23832 0.66804 0.0
H820 H 0.94403 0.27819 0.66567 0.0
H821 H 0.85211 0.22716 0.65356 0.0
H822 H 0.91348 0.19266 0.63008 0.0
H823 H 0.94594 0.1885 0.60055 0.0
H824 H 0.8869 0.15979 0.53778 0.0
H825 H 0.8542 0.16404 0.56691 0.0
C826 C 0.78772 0.09293 0.68346 0.0
C827 C 0.76114 0.08821 0.68706 0.0
C828 C 0.80647 0.1149 0.66828 0.0
C829 C 0.79894 0.13245 0.65621 0.0
C830 C 0.77179 0.12658 0.65815 0.0
C831 C 0.75306 0.1047 0.6736 0.0
C832 C 0.82041 0.15841 0.64453 0.0
C833 C 0.83833 0.15771 0.62572 0.0
C834 C 0.82522 0.18387 0.65421 0.0
C835 C 0.80837 0.18609 0.67546 0.0
C836 C 0.79386 0.19976 0.6707 0.0
C837 C 0.77768 0.20155 0.69063 0.0
C838 C 0.776 0.18987 0.71545 0.0
C839 C 0.79065 0.17654 0.72045 0.0
C840 C 0.80694 0.17479 0.70063 0.0
C841 C 0.93313 0.26499 0.59941 0.0
C842 C 0.94694 0.27843 0.6227 0.0
C843 C 0.90683 0.24214 0.60083 0.0
C844 C 0.89432 0.23214 0.62559 0.0
C845 C 0.90822 0.24574 0.64867 0.0
C846 C 0.934 0.26859 0.64726 0.0
C847 C 0.86736 0.20697 0.62844 0.0
C848 C 0.84812 0.20778 0.64543 0.0
C849 C 0.86198 0.1816 0.61791 0.0
C850 C 0.88158 0.17899 0.60051 0.0
C851 C 0.90752 0.18562 0.60992 0.0
C852 C 0.92593 0.18322 0.59328 0.0
C853 C 0.91852 0.17398 0.56727 0.0
C854 C 0.89264 0.16701 0.55789 0.0
C855 C 0.87416 0.16941 0.57445 0.0
H856 H 0.93281 0.17214 0.55442 0.0
H857 H 0.76341 0.19122 0.73082 0.0
H858 H 0.61653 0.93139 0.80903 0.0
H859 H 0.61093 0.88589 0.81302 0.0
H860 H 0.68846 0.91415 0.77435 0.0
H861 H 0.69329 0.9592 0.76892 0.0
H862 H 0.65783 0.86417 0.76188 0.0
H863 H 0.68072 0.91276 0.84414 0.0
H864 H 0.67607 0.93803 0.88167 0.0
H865 H 0.59818 0.86918 0.90088 0.0
H866 H 0.60221 0.84362 0.86322 0.0
H867 H 0.70497 0.78823 0.83879 0.0
H868 H 0.69736 0.82268 0.81784 0.0
H869 H 0.61093 0.77235 0.83033 0.0
H870 H 0.61804 0.73693 0.84966 0.0
H871 H 0.64101 0.82943 0.85418 0.0
H872 H 0.62519 0.77956 0.77263 0.0
H873 H 0.63661 0.75668 0.73752 0.0
H874 H 0.7098 0.83165 0.71995 0.0
H875 H 0.69903 0.8549 0.75525 0.0
C876 C 0.63205 0.92767 0.80085 0.0
C877 C 0.65547 0.94883 0.78892 0.0
C878 C 0.62894 0.90173 0.80329 0.0
C879 C 0.64968 0.89678 0.79475 0.0
C880 C 0.67224 0.91745 0.78124 0.0
C881 C 0.675 0.94322 0.77816 0.0
C882 C 0.64903 0.87099 0.80182 0.0
C883 C 0.65424 0.85667 0.78209 0.0
C884 C 0.64423 0.861 0.82819 0.0
C885 C 0.6416 0.87642 0.85066 0.0
C886 C 0.66249 0.9031 0.85623 0.0
C887 C 0.65999 0.91746 0.87755 0.0
C888 C 0.63681 0.90525 0.8936 0.0
C889 C 0.61609 0.87864 0.88839 0.0
C890 C 0.61847 0.86421 0.86706 0.0
C891 C 0.68424 0.78414 0.83664 0.0
C892 C 0.66221 0.7602 0.84703 0.0
C893 C 0.67998 0.80388 0.82463 0.0
C894 C 0.65364 0.80008 0.82285 0.0
C895 C 0.63144 0.77568 0.83184 0.0
C896 C 0.63564 0.75566 0.84337 0.0
C897 C 0.6498 0.82284 0.81431 0.0
C898 C 0.64402 0.83672 0.83388 0.0
C899 C 0.65495 0.83283 0.78807 0.0
C900 C 0.66141 0.81891 0.76675 0.0
C901 C 0.64385 0.79111 0.76146 0.0
C902 C 0.65017 0.77809 0.74148 0.0
C903 C 0.67394 0.79268 0.72655 0.0
C904 C 0.6914 0.82036 0.73154 0.0
C905 C 0.68518 0.83348 0.75151 0.0
H906 H 0.6788 0.78256 0.71109 0.0
H907 H 0.63493 0.91638 0.91012 0.0
H908 H 0.73774 0.69332 0.9229 0.0
H909 H 0.77778 0.68856 0.93135 0.0
H910 H 0.72973 0.62019 0.98271 0.0
H911 H 0.69 0.62512 0.97478 0.0
H912 H 0.77317 0.65805 0.00768 0.0
H913 H 0.75579 0.61296 0.9234 0.0
H914 H 0.74769 0.60793 0.87521 0.0
H915 H 0.82565 0.679 0.86154 0.0
H916 H 0.83407 0.68468 0.90969 0.0
H917 H 0.87336 0.62907 0.046 0.0
H918 H 0.83275 0.62233 0.02291 0.0
H919 H 0.88214 0.69194 0.97347 0.0
H920 H 0.92323 0.69791 0.99561 0.0
H921 H 0.83843 0.65272 0.94588 0.0
H922 H 0.85467 0.69965 0.0291 0.0
H923 H 0.86363 0.7057 0.07715 0.0
H924 H 0.7878 0.63258 0.09241 0.0
H925 H 0.7786 0.62586 0.04439 0.0
C926 C 0.73557 0.67683 0.93542 0.0
C927 C 0.71081 0.6598 0.94843 0.0
C928 C 0.75847 0.67411 0.94022 0.0
C929 C 0.7568 0.6541 0.9578 0.0
C930 C 0.73157 0.63592 0.96925 0.0
C931 C 0.70886 0.63875 0.96466 0.0
C932 C 0.78168 0.65395 0.96683 0.0
C933 C 0.78713 0.65636 0.99413 0.0
C934 C 0.80045 0.65276 0.94915 0.0
C935 C 0.79544 0.64939 0.92018 0.0
C936 C 0.77111 0.62766 0.91014 0.0
C937 C 0.76648 0.62466 0.88282 0.0
C938 C 0.78611 0.64318 0.86532 0.0
C939 C 0.81045 0.66469 0.87511 0.0
C940 C 0.81517 0.66779 0.90242 0.0
C941 C 0.87584 0.64217 0.02941 0.0
C942 C 0.90166 0.66374 0.02231 0.0
C943 C 0.85248 0.63855 0.01647 0.0
C944 C 0.85437 0.65685 0.9967 0.0
C945 C 0.88019 0.67755 0.98863 0.0
C946 C 0.90362 0.68102 0.0014 0.0
C947 C 0.82945 0.65624 0.98667 0.0
C948 C 0.82421 0.65406 0.95931 0.0
C949 C 0.81083 0.65784 0.00424 0.0
C950 C 0.81608 0.66211 0.03315 0.0
C951 C 0.83999 0.68478 0.0427 0.0
C952 C 0.84511 0.68833 0.06992 0.0
C953 C 0.82633 0.6695 0.08782 0.0
C954 C 0.80235 0.64713 0.07852 0.0
C955 C 0.79716 0.64344 0.05131 0.0
H956 H 0.83035 0.67227 0.10888 0.0
H957 H 0.78249 0.64082 0.84418 0.0
H958 H 0.2348 0.88096 0.20472 0.0
H959 H 0.20177 0.84473 0.17649 0.0
H960 H 0.19568 0.90394 0.12777 0.0
H961 H 0.22958 0.94066 0.15577 0.0
H962 H 0.14619 0.86321 0.14376 0.0
H963 H 0.22337 0.86878 0.10132 0.0
H964 H 0.26837 0.87216 0.09816 0.0
H965 H 0.23684 0.79473 0.13681 0.0
H966 H 0.19174 0.79104 0.14058 0.0
H967 H 0.04097 0.74147 0.08436 0.0
H968 H 0.08354 0.78557 0.08466 0.0
H969 H 0.11748 0.75437 0.14202 0.0
H970 H 0.07566 0.71062 0.14152 0.0
H971 H 0.15578 0.78707 0.10754 0.0
H972 H 0.0845 0.78902 0.16084 0.0
H973 H 0.03966 0.78553 0.16689 0.0
H974 H 0.06076 0.84889 0.10948 0.0
H975 H 0.10564 0.8525 0.10289 0.0
C976 C 0.22744 0.88649 0.18738 0.0
C977 C 0.23553 0.91381 0.18199 0.0
C978 C 0.2083 0.86566 0.17134 0.0
C979 C 0.19662 0.87165 0.1497 0.0
C980 C 0.20467 0.8989 0.14418 0.0
C981 C 0.224 0.91981 0.16018 0.0
C982 C 0.1742 0.84908 0.13471 0.0
C983 C 0.14844 0.84692 0.13511 0.0
C984 C 0.17709 0.82771 0.12367 0.0
C985 C 0.20415 0.82968 0.12129 0.0
C986 C 0.22605 0.85254 0.10929 0.0
C987 C 0.25159 0.8545 0.10737 0.0
C988 C 0.25547 0.83369 0.11729 0.0
C989 C 0.2338 0.81083 0.12911 0.0
C990 C 0.20823 0.80877 0.13109 0.0
C991 C 0.05775 0.74391 0.09659 0.0
C992 C 0.05481 0.72269 0.1132 0.0
C993 C 0.082 0.76912 0.09681 0.0
C994 C 0.10357 0.77336 0.11362 0.0
C995 C 0.10116 0.75162 0.12889 0.0
C996 C 0.07709 0.72662 0.12873 0.0
C997 C 0.12769 0.80077 0.1177 0.0
C998 C 0.15376 0.80382 0.1153 0.0
C999 C 0.1251 0.8229 0.12711 0.0
C1000 C 0.09821 0.82077 0.13112 0.0
C1001 C 0.07948 0.80206 0.14938 0.0
C1002 C 0.05408 0.80008 0.15293 0.0
C1003 C 0.04733 0.81691 0.13851 0.0
C1004 C 0.06599 0.83581 0.12058 0.0
C1005 C 0.0914 0.83783 0.11693 0.0
H1006 H 0.02766 0.81536 0.14128 0.0
H1007 H 0.27525 0.83525 0.1158 0.0
H1008 H 0.94619 0.68569 0.57609 0.0
H1009 H 0.90249 0.6845 0.57095 0.0
H1010 H 0.87603 0.61825 0.51533 0.0
H1011 H 0.91925 0.6193 0.52024 0.0
H1012 H 0.8761 0.66346 0.49486 0.0
H1013 H 0.84555 0.60741 0.57358 0.0
H1014 H 0.84792 0.59701 0.6206 0.0
H1015 H 0.84217 0.66681 0.64395 0.0
H1016 H 0.84015 0.67784 0.59702 0.0
H1017 H 0.74839 0.63165 0.45651 0.0
H1018 H 0.78258 0.62552 0.4791 0.0
H1019 H 0.79477 0.68783 0.53544 0.0
H1020 H 0.75841 0.69244 0.51411 0.0
H1021 H 0.80317 0.64864 0.55849 0.0
H1022 H 0.83312 0.70481 0.48103 0.0
H1023 H 0.83013 0.71581 0.43433 0.0
H1024 H 0.83893 0.6483 0.40901 0.0
H1025 H 0.84147 0.63657 0.45559 0.0
C1026 C 0.93074 0.67041 0.56334 0.0
C1027 C 0.9363 0.65288 0.54825 0.0
C1028 C 0.90582 0.66975 0.56043 0.0
C1029 C 0.8862 0.65144 0.54257 0.0
C1030 C 0.89101 0.63267 0.52905 0.0
C1031 C 0.91576 0.63333 0.53188 0.0
C1032 C 0.86217 0.65377 0.53522 0.0
C1033 C 0.86002 0.65992 0.50873 0.0
C1034 C 0.84181 0.65026 0.55358 0.0
C1035 C 0.84303 0.64363 0.58178 0.0
C1036 C 0.84507 0.6207 0.58873 0.0
C1037 C 0.84628 0.61465 0.61537 0.0
C1038 C 0.84529 0.63129 0.63525 0.0
C1039 C 0.84299 0.65397 0.62853 0.0
C1040 C 0.84179 0.66011 0.60192 0.0
C1041 C 0.75696 0.64294 0.47458 0.0
C1042 C 0.75 0.66204 0.48389 0.0
C1043 C 0.77706 0.6398 0.48722 0.0
C1044 C 0.79157 0.65657 0.50865 0.0
C1045 C 0.78382 0.67469 0.51891 0.0
C1046 C 0.76319 0.67742 0.5066 0.0
C1047 C 0.81674 0.65734 0.51795 0.0
C1048 C 0.8193 0.65219 0.5447 0.0
C1049 C 0.83782 0.66211 0.49992 0.0
C1050 C 0.83729 0.6697 0.47183 0.0
C1051 C 0.83433 0.69225 0.46551 0.0
C1052 C 0.83268 0.6986 0.43905 0.0
C1053 C 0.83428 0.68273 0.41871 0.0
C1054 C 0.83767 0.66056 0.42479 0.0
C1055 C 0.83923 0.65406 0.45121 0.0
H1056 H 0.83292 0.68763 0.39825 0.0
H1057 H 0.84622 0.62657 0.65586 0.0
H1058 H 0.26061 0.94606 0.73375 0.0
H1059 H 0.21853 0.90225 0.72835 0.0
H1060 H 0.25993 0.87565 0.67478 0.0
H1061 H 0.30168 0.91935 0.67966 0.0
H1062 H 0.21586 0.87185 0.65249 0.0
H1063 H 0.23737 0.84645 0.73629 0.0
H1064 H 0.24866 0.85163 0.78388 0.0
H1065 H 0.17347 0.84939 0.80168 0.0
H1066 H 0.16189 0.84457 0.75413 0.0
H1067 H 0.11454 0.7437 0.62066 0.0
H1068 H 0.15559 0.77711 0.64297 0.0
H1069 H 0.10811 0.79945 0.69289 0.0
H1070 H 0.06622 0.76398 0.67205 0.0
H1071 H 0.15371 0.80539 0.71906 0.0
H1072 H 0.13281 0.8322 0.63581 0.0
H1073 H 0.11987 0.82455 0.58861 0.0
H1074 H 0.19392 0.82476 0.57009 0.0
H1075 H 0.20709 0.83193 0.61728 0.0
C1076 C 0.26088 0.93059 0.72137 0.0
C1077 C 0.28433 0.93625 0.70687 0.0
C1078 C 0.23683 0.90555 0.71832 0.0
C1079 C 0.23606 0.88574 0.70103 0.0
C1080 C 0.26001 0.89073 0.68805 0.0
C1081 C 0.28387 0.91572 0.69088 0.0
C1082 C 0.20989 0.8612 0.69394 0.0
C1083 C 0.20252 0.85715 0.66707 0.0
C1084 C 0.19197 0.84254 0.71302 0.0
C1085 C 0.1989 0.84543 0.74161 0.0
C1086 C 0.22335 0.8473 0.75032 0.0
C1087 C 0.22978 0.85012 0.7773 0.0
C1088 C 0.21183 0.85091 0.79579 0.0
C1089 C 0.18737 0.84881 0.78734 0.0
C1090 C 0.18086 0.84601 0.76038 0.0
C1091 C 0.11243 0.75437 0.63742 0.0
C1092 C 0.08688 0.75053 0.64504 0.0
C1093 C 0.13612 0.77397 0.64986 0.0
C1094 C 0.13494 0.79107 0.66927 0.0
C1095 C 0.10946 0.78644 0.67796 0.0
C1096 C 0.0856 0.76632 0.6659 0.0
C1097 C 0.16027 0.81583 0.67766 0.0
C1098 C 0.16724 0.82011 0.70461 0.0
C1099 C 0.17788 0.83496 0.65872 0.0
C1100 C 0.17083 0.83238 0.63011 0.0
C1101 C 0.14634 0.83061 0.62167 0.0
C1102 C 0.13893 0.8263 0.59493 0.0
C1103 C 0.156 0.82403 0.57639 0.0
C1104 C 0.18069 0.82644 0.5845 0.0
C1105 C 0.18815 0.83066 0.61123 0.0
H1106 H 0.15007 0.82035 0.55576 0.0
H1107 H 0.21684 0.85309 0.81666 0.0
H1108 H 0.38647 0.29532 0.87691 0.0
H1109 H 0.3871 0.25289 0.87078 0.0
H1110 H 0.30076 0.20699 0.88671 0.0
H1111 H 0.30044 0.24959 0.89426 0.0
H1112 H 0.32399 0.17858 0.9023 0.0
H1113 H 0.32514 0.22603 0.8233 0.0
H1114 H 0.34216 0.26541 0.79314 0.0
H1115 H 0.41886 0.26773 0.78684 0.0
H1116 H 0.40242 0.2286 0.81732 0.0
H1117 H 0.28654 0.06833 0.81125 0.0
H1118 H 0.29273 0.10787 0.83628 0.0
H1119 H 0.37988 0.14319 0.83146 0.0
H1120 H 0.37395 0.10311 0.80761 0.0
H1121 H 0.35902 0.17688 0.81258 0.0
H1122 H 0.35276 0.12359 0.88884 0.0
H1123 H 0.33206 0.08275 0.91722 0.0
H1124 H 0.26008 0.08912 0.92581 0.0
H1125 H 0.28018 0.12979 0.89714 0.0
C1126 C 0.36783 0.27613 0.87996 0.0
C1127 C 0.34336 0.2756 0.8858 0.0
C1128 C 0.36816 0.25192 0.87631 0.0
C1129 C 0.34381 0.22678 0.87742 0.0
C1130 C 0.31976 0.22615 0.88555 0.0
C1131 C 0.31958 0.25046 0.88989 0.0
C1132 C 0.34287 0.20181 0.86703 0.0
C1133 C 0.33152 0.17815 0.88265 0.0
C1134 C 0.35282 0.20125 0.84139 0.0
C1135 C 0.36266 0.22458 0.82281 0.0
C1136 C 0.3457 0.23505 0.81561 0.0
C1137 C 0.35523 0.25732 0.79845 0.0
C1138 C 0.3816 0.26912 0.78814 0.0
C1139 C 0.39846 0.25861 0.79489 0.0
C1140 C 0.38904 0.23638 0.8121 0.0
C1141 C 0.30707 0.08429 0.8158 0.0
C1142 C 0.32977 0.08288 0.80649 0.0
C1143 C 0.31054 0.10685 0.83018 0.0
C1144 C 0.33675 0.12847 0.83557 0.0
C1145 C 0.35947 0.12676 0.82724 0.0
C1146 C 0.35601 0.10399 0.81317 0.0
C1147 C 0.34031 0.15375 0.84788 0.0
C1148 C 0.35193 0.17743 0.83243 0.0
C1149 C 0.33004 0.15406 0.87335 0.0
C1150 C 0.31791 0.12962 0.89064 0.0
C1151 C 0.33242 0.11615 0.89658 0.0
C1152 C 0.32081 0.09305 0.91277 0.0
C1153 C 0.29475 0.08331 0.92326 0.0
C1154 C 0.28026 0.09668 0.91764 0.0
C1155 C 0.29177 0.11978 0.90145 0.0
H1156 H 0.2858 0.06543 0.9358 0.0
H1157 H 0.38895 0.28637 0.77487 0.0
H1158 H 0.07965 0.3811 0.03061 0.0
H1159 H 0.12248 0.38274 0.02033 0.0
H1160 H 0.09906 0.3122 0.06942 0.0
H1161 H 0.05606 0.31064 0.08019 0.0
H1162 H 0.15631 0.35003 0.06981 0.0
H1163 H 0.08363 0.30154 0.00721 0.0
H1164 H 0.04675 0.29616 0.97746 0.0
H1165 H 0.1043 0.36427 0.93109 0.0
H1166 H 0.14147 0.37034 0.96086 0.0
H1167 H 0.23196 0.29883 0.00043 0.0
H1168 H 0.19821 0.30616 0.02366 0.0
H1169 H 0.21289 0.37048 0.96886 0.0
H1170 H 0.24567 0.36243 0.945 0.0
H1171 H 0.16053 0.33606 0.97321 0.0
H1172 H 0.23392 0.38344 0.03473 0.0
H1173 H 0.27058 0.38926 0.06501 0.0
H1174 H 0.21235 0.32349 0.1133 0.0
H1175 H 0.17536 0.31702 0.08309 0.0
C1176 C 0.08388 0.36635 0.03981 0.0
C1177 C 0.06429 0.34546 0.05587 0.0
C1178 C 0.10838 0.36732 0.03391 0.0
C1179 C 0.11364 0.34723 0.04364 0.0
C1180 C 0.0953 0.32782 0.06162 0.0
C1181 C 0.07075 0.32696 0.06776 0.0
C1182 C 0.13629 0.34453 0.03223 0.0
C1183 C 0.15719 0.34671 0.04875 0.0
C1184 C 0.13752 0.34053 0.00468 0.0
C1185 C 0.11529 0.33655 0.98641 0.0
C1186 C 0.08839 0.31547 0.99076 0.0
C1187 C 0.06743 0.31229 0.97389 0.0
C1188 C 0.07316 0.32991 0.95243 0.0
C1189 C 0.09989 0.35067 0.94774 0.0
C1190 C 0.12091 0.35398 0.9646 0.0
C1191 C 0.22828 0.31484 0.99365 0.0
C1192 C 0.24201 0.33055 0.97133 0.0
C1193 C 0.20912 0.31912 0.00702 0.0
C1194 C 0.20328 0.33917 0.99827 0.0
C1195 C 0.21726 0.3551 0.97616 0.0
C1196 C 0.23633 0.35076 0.96276 0.0
C1197 C 0.18103 0.34201 0.01066 0.0
C1198 C 0.15993 0.33958 0.99427 0.0
C1199 C 0.1797 0.34572 0.03829 0.0
C1200 C 0.2019 0.34958 0.05649 0.0
C1201 C 0.22895 0.37007 0.05168 0.0
C1202 C 0.24979 0.37351 0.06886 0.0
C1203 C 0.24381 0.35671 0.09102 0.0
C1204 C 0.21696 0.33647 0.0961 0.0
C1205 C 0.19605 0.33292 0.07897 0.0
H1206 H 0.25997 0.35942 0.1043 0.0
H1207 H 0.05691 0.32743 0.93941 0.0
H1208 H 0.70655 0.08707 0.21222 0.0
H1209 H 0.75107 0.12841 0.20971 0.0
H1210 H 0.78909 0.08445 0.24017 0.0
H1211 H 0.74438 0.04294 0.24312 0.0
H1212 H 0.79875 0.16105 0.24208 0.0
H1213 H 0.83844 0.09693 0.19361 0.0
H1214 H 0.82096 0.05179 0.17275 0.0
H1215 H 0.74995 0.05359 0.14599 0.0
H1216 H 0.76722 0.09886 0.16635 0.0
H1217 H 0.93706 0.2482 0.19305 0.0
H1218 H 0.8972 0.21184 0.21617 0.0
H1219 H 0.85101 0.19213 0.14357 0.0
H1220 H 0.89057 0.22813 0.12056 0.0
H1221 H 0.84852 0.14721 0.16827 0.0
H1222 H 0.83878 0.22507 0.1897 0.0
H1223 H 0.85379 0.27065 0.20826 0.0
H1224 H 0.86187 0.24305 0.28514 0.0
H1225 H 0.84726 0.19737 0.26692 0.0
C1226 C 0.72429 0.08645 0.21924 0.0
C1227 C 0.72212 0.06178 0.22755 0.0
C1228 C 0.74968 0.11012 0.21796 0.0
C1229 C 0.77332 0.10936 0.22451 0.0
C1230 C 0.771 0.08536 0.23504 0.0
C1231 C 0.74549 0.06171 0.23673 0.0
C1232 C 0.79999 0.13187 0.21563 0.0
C1233 C 0.80995 0.15802 0.22627 0.0
C1234 C 0.81421 0.12794 0.19464 0.0
C1235 C 0.80396 0.10106 0.18177 0.0
C1236 C 0.81915 0.08769 0.18319 0.0
C1237 C 0.80928 0.06211 0.17146 0.0
C1238 C 0.78431 0.04979 0.15815 0.0
C1239 C 0.76923 0.0631 0.1564 0.0
C1240 C 0.77904 0.08871 0.16804 0.0
C1241 C 0.91822 0.23629 0.18224 0.0
C1242 C 0.91658 0.24134 0.15525 0.0
C1243 C 0.89555 0.21561 0.1954 0.0
C1244 C 0.87118 0.19944 0.18157 0.0
C1245 C 0.86961 0.20449 0.1546 0.0
C1246 C 0.89209 0.22526 0.14156 0.0
C1247 C 0.84741 0.17653 0.19466 0.0
C1248 C 0.83788 0.15023 0.18463 0.0
C1249 C 0.83349 0.18049 0.21594 0.0
C1250 C 0.84227 0.20792 0.22688 0.0
C1251 C 0.84402 0.2288 0.2105 0.0
C1252 C 0.8524 0.25463 0.22097 0.0
C1253 C 0.85888 0.25977 0.24785 0.0
C1254 C 0.85691 0.23906 0.26432 0.0
C1255 C 0.84857 0.21319 0.25393 0.0
H1256 H 0.86535 0.27978 0.25592 0.0
H1257 H 0.77668 0.02996 0.14913 0.0
H1258 H 0.63668 0.87687 0.28431 0.0
H1259 H 0.63056 0.83906 0.31221 0.0
H1260 H 0.69505 0.89533 0.36367 0.0
H1261 H 0.70121 0.93331 0.33567 0.0
H1262 H 0.70342 0.85565 0.34932 0.0
H1263 H 0.62849 0.85973 0.38583 0.0
H1264 H 0.58651 0.86262 0.38583 0.0
H1265 H 0.54394 0.78594 0.3452 0.0
H1266 H 0.58577 0.78277 0.34459 0.0
H1267 H 0.68623 0.73778 0.41503 0.0
H1268 H 0.68464 0.78016 0.41205 0.0
H1269 H 0.62574 0.74564 0.34888 0.0
H1270 H 0.62698 0.70344 0.35189 0.0
H1271 H 0.61557 0.7786 0.38057 0.0
H1272 H 0.69307 0.78139 0.33509 0.0
H1273 H 0.73507 0.77851 0.33351 0.0
H1274 H 0.77249 0.84296 0.39075 0.0
H1275 H 0.73052 0.84595 0.39289 0.0
C1276 C 0.64886 0.88128 0.3021 0.0
C1277 C 0.66899 0.90806 0.3082 0.0
C1278 C 0.64543 0.85964 0.31801 0.0
C1279 C 0.66205 0.86438 0.34032 0.0
C1280 C 0.68186 0.89121 0.34669 0.0
C1281 C 0.68535 0.91285 0.33071 0.0
C1282 C 0.66061 0.84109 0.35514 0.0
C1283 C 0.68432 0.83916 0.35684 0.0
C1284 C 0.63566 0.81938 0.36464 0.0
C1285 C 0.61035 0.82109 0.36506 0.0
C1286 C 0.61024 0.84356 0.37673 0.0
C1287 C 0.58645 0.84524 0.37687 0.0
C1288 C 0.56259 0.82449 0.3655 0.0
C1289 C 0.56245 0.802 0.35401 0.0
C1290 C 0.58618 0.80023 0.3538 0.0
C1291 C 0.67245 0.73902 0.40099 0.0
C1292 C 0.65706 0.71744 0.3834 0.0
C1293 C 0.67161 0.76325 0.39926 0.0
C1294 C 0.65536 0.76615 0.37997 0.0
C1295 C 0.63845 0.74387 0.36388 0.0
C1296 C 0.63935 0.7198 0.3655 0.0
C1297 C 0.65817 0.79303 0.37399 0.0
C1298 C 0.63476 0.79555 0.37383 0.0
C1299 C 0.68336 0.81533 0.36582 0.0
C1300 C 0.7086 0.81365 0.3644 0.0
C1301 C 0.7102 0.7948 0.34747 0.0
C1302 C 0.73399 0.79317 0.34645 0.0
C1303 C 0.7564 0.81048 0.36209 0.0
C1304 C 0.75509 0.82952 0.3787 0.0
C1305 C 0.73131 0.83119 0.37983 0.0
H1306 H 0.77481 0.80919 0.36128 0.0
H1307 H 0.54419 0.82583 0.36562 0.0
H1308 H 0.41191 0.38462 0.39096 0.0
H1309 H 0.45757 0.42323 0.38222 0.0
H1310 H 0.48451 0.41192 0.45875 0.0
H1311 H 0.43882 0.37428 0.46785 0.0
H1312 H 0.49574 0.4615 0.45447 0.0
H1313 H 0.50947 0.40138 0.39851 0.0
H1314 H 0.49864 0.3677 0.3629 0.0
H1315 H 0.50048 0.42459 0.30566 0.0
H1316 H 0.51094 0.4585 0.34097 0.0
H1317 H 0.62892 0.57647 0.43303 0.0
H1318 H 0.59232 0.52966 0.44155 0.0
H1319 H 0.55294 0.53057 0.36872 0.0
H1320 H 0.58927 0.57658 0.35987 0.0
H1321 H 0.55224 0.4838 0.37334 0.0
H1322 H 0.53186 0.54067 0.43006 0.0
H1323 H 0.54177 0.57432 0.46553 0.0
H1324 H 0.5519 0.5228 0.52119 0.0
H1325 H 0.54236 0.48898 0.48595 0.0
C1326 C 0.42784 0.38999 0.40552 0.0
C1327 C 0.42193 0.37674 0.43011 0.0
C1328 C 0.45394 0.412 0.40054 0.0
C1329 C 0.47452 0.42054 0.41988 0.0
C1330 C 0.46896 0.40589 0.44364 0.0
C1331 C 0.44289 0.38435 0.44878 0.0
C1332 C 0.50071 0.44645 0.41681 0.0
C1333 C 0.50839 0.46609 0.43694 0.0
C1334 C 0.51697 0.45274 0.39377 0.0
C1335 C 0.51081 0.43243 0.37245 0.0
C1336 C 0.50738 0.40665 0.37836 0.0
C1337 C 0.50134 0.38753 0.35822 0.0
C1338 C 0.49882 0.39399 0.33204 0.0
C1339 C 0.50242 0.41961 0.32594 0.0
C1340 C 0.50844 0.43881 0.34601 0.0
C1341 C 0.61242 0.56667 0.41891 0.0
C1342 C 0.61206 0.58032 0.3958 0.0
C1343 C 0.59155 0.53994 0.42377 0.0
C1344 C 0.56986 0.52664 0.40575 0.0
C1345 C 0.56955 0.54029 0.38277 0.0
C1346 C 0.59035 0.56675 0.37784 0.0
C1347 C 0.54688 0.49879 0.4108 0.0
C1348 C 0.53979 0.47888 0.39104 0.0
C1349 C 0.53108 0.49219 0.43416 0.0
C1350 C 0.53673 0.51248 0.45532 0.0
C1351 C 0.5364 0.53662 0.44982 0.0
C1352 C 0.54191 0.5557 0.46989 0.0
C1353 C 0.54755 0.55074 0.49558 0.0
C1354 C 0.54759 0.52664 0.50127 0.0
C1355 C 0.54212 0.50751 0.48127 0.0
H1356 H 0.55181 0.56553 0.51108 0.0
H1357 H 0.49414 0.37915 0.31648 0.0
H1358 H 0.0332 0.41187 0.56666 0.0
H1359 H 0.03781 0.45667 0.55858 0.0
H1360 H 0.04672 0.47318 0.64257 0.0
H1361 H 0.04154 0.42862 0.65079 0.0
H1362 H 0.01052 0.48398 0.62316 0.0
H1363 H 0.10095 0.50557 0.59936 0.0
H1364 H 0.13583 0.49987 0.57565 0.0
H1365 H 0.10622 0.51128 0.50123 0.0
H1366 H 0.0709 0.51667 0.52447 0.0
H1367 H 0.03614 0.62004 0.60713 0.0
H1368 H 0.04418 0.58268 0.61929 0.0
H1369 H 0.03218 0.55587 0.53789 0.0
H1370 H 0.02461 0.59288 0.52558 0.0
H1371 H 0.07398 0.5531 0.55929 0.0
H1372 H 0.98081 0.52616 0.58284 0.0
H1373 H 0.94531 0.53118 0.60617 0.0
H1374 H 0.98031 0.52944 0.68109 0.0
H1375 H 0.01623 0.52475 0.65814 0.0
C1376 C 0.0364 0.42519 0.58332 0.0
C1377 C 0.03672 0.41658 0.60934 0.0
C1378 C 0.03915 0.45081 0.5787 0.0
C1379 C 0.04269 0.4683 0.60001 0.0
C1380 C 0.04385 0.45999 0.62586 0.0
C1381 C 0.04087 0.43445 0.63049 0.0
C1382 C 0.04355 0.49459 0.59574 0.0
C1383 C 0.02477 0.4993 0.60954 0.0
C1384 C 0.06181 0.51439 0.57769 0.0
C1385 C 0.08312 0.5113 0.56366 0.0
C1386 C 0.10174 0.50666 0.57793 0.0
C1387 C 0.12161 0.50352 0.56457 0.0
C1388 C 0.1232 0.50515 0.53695 0.0
C1389 C 0.10495 0.50999 0.52262 0.0
C1390 C 0.08502 0.51313 0.53588 0.0
C1391 C 0.03544 0.60629 0.59185 0.0
C1392 C 0.02944 0.6093 0.56547 0.0
C1393 C 0.04 0.58497 0.5988 0.0
C1394 C 0.03857 0.56641 0.57948 0.0
C1395 C 0.03345 0.56997 0.55309 0.0
C1396 C 0.0289 0.5911 0.54616 0.0
C1397 C 0.04082 0.54226 0.58653 0.0
C1398 C 0.06009 0.53791 0.57321 0.0
C1399 C 0.023 0.52273 0.605 0.0
C1400 C 0.00137 0.52544 0.61878 0.0
C1401 C 0.98104 0.52706 0.60428 0.0
C1402 C 0.96083 0.52981 0.61743 0.0
C1403 C 0.96061 0.53072 0.64509 0.0
C1404 C 0.98055 0.5288 0.65966 0.0
C1405 C 0.00083 0.52608 0.6466 0.0
H1406 H 0.94494 0.53284 0.65524 0.0
H1407 H 0.13859 0.5027 0.52664 0.0
H1408 H 0.6192 0.03563 0.72984 0.0
H1409 H 0.58007 0.04164 0.72028 0.0
H1410 H 0.5869 0.07608 0.79814 0.0
H1411 H 0.6251 0.06915 0.80799 0.0
H1412 H 0.53783 0.03744 0.79128 0.0
H1413 H 0.5994 0.11424 0.73968 0.0
H1414 H 0.63482 0.13959 0.70611 0.0
H1415 H 0.582 0.08678 0.64513 0.0
H1416 H 0.5464 0.06086 0.67837 0.0
H1417 H 0.42066 0.05164 0.76339 0.0
H1418 H 0.46753 0.06364 0.77497 0.0
H1419 H 0.47314 0.02569 0.70296 0.0
H1420 H 0.42714 0.014 0.69123 0.0
H1421 H 0.51833 0.07382 0.71006 0.0
H1422 H 0.46038 0.99348 0.76304 0.0
H1423 H 0.42521 0.96759 0.79669 0.0
H1424 H 0.47221 0.02797 0.85528 0.0
H1425 H 0.50749 0.05439 0.82186 0.0
C1426 C 0.61271 0.04511 0.74457 0.0
C1427 C 0.62491 0.0517 0.76969 0.0
C1428 C 0.5904 0.0486 0.73913 0.0
C1429 C 0.58048 0.05931 0.75854 0.0
C1430 C 0.59399 0.06758 0.78295 0.0
C1431 C 0.61586 0.06368 0.78852 0.0
C1432 C 0.55442 0.05914 0.75465 0.0
C1433 C 0.53384 0.04598 0.77376 0.0
C1434 C 0.54896 0.06987 0.73167 0.0
C1435 C 0.57029 0.08549 0.71158 0.0
C1436 C 0.5954 0.10791 0.71914 0.0
C1437 C 0.6155 0.1224 0.70016 0.0
C1438 C 0.61068 0.11477 0.67352 0.0
C1439 C 0.58572 0.09267 0.66578 0.0
C1440 C 0.56555 0.07809 0.68468 0.0
C1441 C 0.43192 0.04582 0.75013 0.0
C1442 C 0.4201 0.03185 0.72642 0.0
C1443 C 0.45867 0.05272 0.75672 0.0
C1444 C 0.47383 0.04559 0.73976 0.0
C1445 C 0.46198 0.03166 0.7162 0.0
C1446 C 0.4355 0.02485 0.70963 0.0
C1447 C 0.5018 0.05168 0.7464 0.0
C1448 C 0.52267 0.06587 0.72781 0.0
C1449 C 0.50759 0.04194 0.76986 0.0
C1450 C 0.48637 0.02607 0.78989 0.0
C1451 C 0.46308 0.00134 0.78305 0.0
C1452 C 0.44316 0.98655 0.80208 0.0
C1453 C 0.44643 0.99618 0.82808 0.0
C1454 C 0.46967 0.02058 0.83512 0.0
C1455 C 0.48963 0.03546 0.81615 0.0
H1456 H 0.43099 0.98469 0.8428 0.0
H1457 H 0.62627 0.12601 0.65886 0.0
H1458 H 0.55566 0.6344 0.95762 0.0
H1459 H 0.51097 0.59436 0.94959 0.0
H1460 H 0.54685 0.56587 0.89135 0.0
H1461 H 0.59117 0.60701 0.89812 0.0
H1462 H 0.49823 0.55036 0.87672 0.0
H1463 H 0.53673 0.54539 0.96151 0.0
H1464 H 0.5547 0.56025 0.00664 0.0
H1465 H 0.48093 0.5589 0.02912 0.0
H1466 H 0.46249 0.54387 0.98408 0.0
H1467 H 0.42547 0.41017 0.88468 0.0
H1468 H 0.46015 0.45735 0.89235 0.0
H1469 H 0.40206 0.47058 0.93551 0.0
H1470 H 0.36686 0.42273 0.928 0.0
H1471 H 0.45504 0.49635 0.95786 0.0
H1472 H 0.41388 0.49069 0.87375 0.0
H1473 H 0.39635 0.47029 0.82987 0.0
H1474 H 0.47663 0.48897 0.80617 0.0
H1475 H 0.49458 0.50904 0.85008 0.0
C1476 C 0.5537 0.61992 0.94253 0.0
C1477 C 0.57665 0.62363 0.92842 0.0
C1478 C 0.52827 0.59689 0.93818 0.0
C1479 C 0.52563 0.57653 0.92053 0.0
C1480 C 0.54831 0.58115 0.9052 0.0
C1481 C 0.57362 0.60466 0.90898 0.0
C1482 C 0.5 0.5497 0.91936 0.0
C1483 C 0.48889 0.53858 0.89448 0.0
C1484 C 0.48717 0.53442 0.94253 0.0
C1485 C 0.4984 0.54385 0.96941 0.0
C1486 C 0.52445 0.54846 0.97605 0.0
C1487 C 0.53469 0.55687 0.00162 0.0
C1488 C 0.51903 0.5607 0.02072 0.0
C1489 C 0.49306 0.556 0.0143 0.0
C1490 C 0.48268 0.54747 0.98878 0.0
C1491 C 0.4201 0.42295 0.89617 0.0
C1492 C 0.39339 0.41287 0.90552 0.0
C1493 C 0.43992 0.44995 0.9004 0.0
C1494 C 0.43343 0.4676 0.91381 0.0
C1495 C 0.4073 0.45727 0.92481 0.0
C1496 C 0.38732 0.42997 0.92068 0.0
C1497 C 0.45403 0.49691 0.91532 0.0
C1498 C 0.4641 0.50845 0.94018 0.0
C1499 C 0.46609 0.51239 0.89214 0.0
C1500 C 0.45556 0.5013 0.8653 0.0
C1501 C 0.4278 0.49038 0.85922 0.0
C1502 C 0.41777 0.47885 0.83434 0.0
C1503 C 0.43536 0.4783 0.81526 0.0
C1504 C 0.46303 0.48942 0.82097 0.0
C1505 C 0.47315 0.50091 0.84585 0.0
H1506 H 0.42754 0.46929 0.79604 0.0
H1507 H 0.52692 0.56717 0.04053 0.0
H1508 H 0.99467 0.39928 0.1099 0.0
H1509 H 0.98828 0.43864 0.11591 0.0
H1510 H 0.92616 0.40736 0.0553 0.0
H1511 H 0.9337 0.36896 0.04842 0.0
H1512 H 0.95963 0.45635 0.04421 0.0
H1513 H 0.91286 0.4128 0.12372 0.0
H1514 H 0.9053 0.38941 0.16669 0.0
H1515 H 0.97554 0.45933 0.19896 0.0
H1516 H 0.98377 0.48301 0.15608 0.0
H1517 H 0.93972 0.57243 0.06911 0.0
H1518 H 0.93215 0.52602 0.06273 0.0
H1519 H 0.00161 0.54568 0.11227 0.0
H1520 H 0.00919 0.59141 0.11866 0.0
H1521 H 0.95596 0.49928 0.12849 0.0
H1522 H 0.00479 0.53958 0.04642 0.0
H1523 H 0.01142 0.5625 0.00328 0.0
H1524 H 0.93445 0.49727 0.97625 0.0
H1525 H 0.92722 0.47413 0.01938 0.0
C1526 C 0.97908 0.40048 0.09856 0.0
C1527 C 0.96452 0.38118 0.07888 0.0
C1528 C 0.97539 0.42295 0.10194 0.0
C1529 C 0.95661 0.42601 0.08611 0.0
C1530 C 0.94084 0.40561 0.06765 0.0
C1531 C 0.94497 0.38357 0.06389 0.0
C1532 C 0.95547 0.45167 0.08672 0.0
C1533 C 0.95819 0.46537 0.06267 0.0
C1534 C 0.95394 0.46377 0.11071 0.0
C1535 C 0.94903 0.44961 0.13659 0.0
C1536 C 0.92681 0.42312 0.13992 0.0
C1537 C 0.92239 0.40982 0.16427 0.0
C1538 C 0.93995 0.42286 0.18553 0.0
C1539 C 0.96195 0.44925 0.18248 0.0
C1540 C 0.96648 0.46264 0.15816 0.0
C1541 C 0.95366 0.56693 0.07809 0.0
C1542 C 0.97488 0.58543 0.09455 0.0
C1543 C 0.94924 0.54044 0.07459 0.0
C1544 C 0.96612 0.53235 0.08738 0.0
C1545 C 0.98811 0.55134 0.10257 0.0
C1546 C 0.99246 0.57754 0.10608 0.0
C1547 C 0.96077 0.50397 0.08616 0.0
C1548 C 0.95682 0.48983 0.11009 0.0
C1549 C 0.96093 0.49137 0.06209 0.0
C1550 C 0.96531 0.50531 0.03622 0.0
C1551 C 0.98917 0.53026 0.03136 0.0
C1552 C 0.99306 0.54326 0.0069 0.0
C1553 C 0.97332 0.5314 0.98707 0.0
C1554 C 0.94969 0.50647 0.99164 0.0
C1555 C 0.94569 0.4934 0.01608 0.0
H1556 H 0.97638 0.54149 0.96814 0.0
H1557 H 0.9365 0.41252 0.20436 0.0
H1558 H 0.35982 0.9274 0.24193 0.0
H1559 H 0.39935 0.92187 0.23188 0.0
H1560 H 0.45329 0.00706 0.24843 0.0
H1561 H 0.41408 0.01235 0.2592 0.0
H1562 H 0.4686 0.98487 0.20316 0.0
H1563 H 0.44061 0.96714 0.29657 0.0
H1564 H 0.40662 0.94218 0.33143 0.0
H1565 H 0.39768 0.86666 0.30317 0.0
H1566 H 0.43136 0.8912 0.26787 0.0
H1567 H 0.59648 0.01663 0.24131 0.0
H1568 H 0.55012 0.00876 0.24423 0.0
H1569 H 0.51855 0.92196 0.24249 0.0
H1570 H 0.56544 0.92995 0.24045 0.0
H1571 H 0.48728 0.93552 0.27394 0.0
H1572 H 0.51967 0.95226 0.18532 0.0
H1573 H 0.55238 0.97541 0.14906 0.0
H1574 H 0.55167 0.04936 0.16546 0.0
H1575 H 0.51885 0.02661 0.20182 0.0
C1576 C 0.38012 0.94504 0.24249 0.0
C1577 C 0.38413 0.97034 0.25102 0.0
C1578 C 0.4026 0.94185 0.23694 0.0
C1579 C 0.42916 0.96406 0.23954 0.0
C1580 C 0.43295 0.98974 0.24619 0.0
C1581 C 0.41061 0.99277 0.25226 0.0
C1582 C 0.45321 0.96041 0.23833 0.0
C1583 C 0.47268 0.97401 0.21853 0.0
C1584 C 0.4581 0.94557 0.25799 0.0
C1585 C 0.43822 0.93093 0.27943 0.0
C1586 C 0.43123 0.94519 0.29768 0.0
C1587 C 0.41205 0.93113 0.31753 0.0
C1588 C 0.39993 0.90284 0.31947 0.0
C1589 C 0.40705 0.88857 0.30161 0.0
C1590 C 0.42618 0.90254 0.28169 0.0
C1591 C 0.57967 0.99588 0.24253 0.0
C1592 C 0.58435 0.97388 0.2408 0.0
C1593 C 0.55321 0.99138 0.24386 0.0
C1594 C 0.53089 0.9648 0.24274 0.0
C1595 C 0.53552 0.94264 0.24314 0.0
C1596 C 0.56222 0.94718 0.2422 0.0
C1597 C 0.50312 0.96075 0.23921 0.0
C1598 C 0.48298 0.94578 0.25812 0.0
C1599 C 0.4974 0.97397 0.21843 0.0
C1600 C 0.5169 0.98775 0.19639 0.0
C1601 C 0.52658 0.97349 0.18127 0.0
C1602 C 0.54513 0.98654 0.16069 0.0
C1603 C 0.55423 0.01388 0.15505 0.0
C1604 C 0.54462 0.02818 0.16987 0.0
C1605 C 0.52595 0.01519 0.19039 0.0
H1606 H 0.56867 0.02396 0.13915 0.0
H1607 H 0.38508 0.89197 0.33484 0.0
H1608 H 0.40252 0.35869 0.77523 0.0
H1609 H 0.41089 0.36504 0.72751 0.0
H1610 H 0.38821 0.42719 0.72775 0.0
H1611 H 0.38035 0.42143 0.77561 0.0
H1612 H 0.35766 0.3807 0.69251 0.0
H1613 H 0.44919 0.4482 0.71433 0.0
H1614 H 0.49324 0.46626 0.73734 0.0
H1615 H 0.50578 0.40494 0.70092 0.0
H1616 H 0.46157 0.3862 0.67802 0.0
H1617 H 0.37091 0.39399 0.55457 0.0
H1618 H 0.3775 0.40717 0.60125 0.0
H1619 H 0.42008 0.36266 0.61316 0.0
H1620 H 0.41469 0.35057 0.56614 0.0
H1621 H 0.44255 0.40644 0.64245 0.0
H1622 H 0.35041 0.33408 0.62761 0.0
H1623 H 0.30543 0.31192 0.60579 0.0
H1624 H 0.29309 0.37751 0.63022 0.0
H1625 H 0.33806 0.4001 0.65216 0.0
C1626 C 0.3999 0.37413 0.76521 0.0
C1627 C 0.39066 0.38947 0.77905 0.0
C1628 C 0.40476 0.37777 0.73802 0.0
C1629 C 0.40013 0.39656 0.72427 0.0
C1630 C 0.39194 0.41267 0.73816 0.0
C1631 C 0.38755 0.40939 0.76546 0.0
C1632 C 0.40103 0.39711 0.69509 0.0
C1633 C 0.3763 0.38692 0.68145 0.0
C1634 C 0.42524 0.40436 0.68098 0.0
C1635 C 0.45193 0.41566 0.69461 0.0
C1636 C 0.46121 0.43841 0.7114 0.0
C1637 C 0.48625 0.4488 0.72439 0.0
C1638 C 0.50228 0.43673 0.72063 0.0
C1639 C 0.49334 0.41426 0.70383 0.0
C1640 C 0.4683 0.40377 0.69081 0.0
C1641 C 0.38198 0.38733 0.56712 0.0
C1642 C 0.39205 0.37104 0.55691 0.0
C1643 C 0.38565 0.39479 0.59377 0.0
C1644 C 0.3987 0.38535 0.61083 0.0
C1645 C 0.40988 0.37011 0.60037 0.0
C1646 C 0.40673 0.36315 0.57355 0.0
C1647 C 0.3991 0.38977 0.63979 0.0
C1648 C 0.42399 0.40069 0.65342 0.0
C1649 C 0.37491 0.38263 0.65406 0.0
C1650 C 0.34768 0.36889 0.64129 0.0
C1651 C 0.33813 0.34381 0.62825 0.0
C1652 C 0.31263 0.33116 0.61591 0.0
C1653 C 0.29642 0.34332 0.61662 0.0
C1654 C 0.30567 0.36813 0.62971 0.0
C1655 C 0.33113 0.38084 0.64215 0.0
H1656 H 0.27669 0.3335 0.60707 0.0
H1657 H 0.52165 0.4448 0.7307 0.0
H1658 H 0.01404 0.34303 0.74266 0.0
H1659 H 0.00503 0.34618 0.78931 0.0
H1660 H 0.95883 0.38512 0.76859 0.0
H1661 H 0.96778 0.38209 0.72152 0.0
H1662 H 0.99583 0.41099 0.80998 0.0
H1663 H 0.924 0.32233 0.78889 0.0
H1664 H 0.90211 0.27618 0.76969 0.0
H1665 H 0.95097 0.2559 0.81924 0.0
H1666 H 0.97345 0.30206 0.83847 0.0
H1667 H 0.96165 0.39259 0.95101 0.0
H1668 H 0.9576 0.39349 0.90266 0.0
H1669 H 0.00567 0.35427 0.894 0.0
H1670 H 0.00994 0.35336 0.94184 0.0
H1671 H 0.95632 0.32846 0.86664 0.0
H1672 H 0.03335 0.41981 0.88119 0.0
H1673 H 0.05543 0.46601 0.90033 0.0
H1674 H 0.99596 0.48083 0.86306 0.0
H1675 H 0.97331 0.43453 0.84397 0.0
C1676 C 0.00192 0.35224 0.74794 0.0
C1677 C 0.99151 0.36221 0.72843 0.0
C1678 C 0.99669 0.3539 0.7746 0.0
C1679 C 0.98095 0.36552 0.78225 0.0
C1680 C 0.97086 0.37593 0.76294 0.0
C1681 C 0.97597 0.37414 0.73614 0.0
C1682 C 0.97583 0.36715 0.81064 0.0
C1683 C 0.98659 0.39294 0.82237 0.0
C1684 C 0.96386 0.34355 0.82665 0.0
C1685 C 0.95048 0.31573 0.81507 0.0
C1686 C 0.93022 0.3081 0.79557 0.0
C1687 C 0.91767 0.28192 0.7847 0.0
C1688 C 0.92514 0.26312 0.79325 0.0
C1689 C 0.94516 0.27047 0.81268 0.0
C1690 C 0.95779 0.29663 0.8236 0.0
C1691 C 0.97164 0.3845 0.93876 0.0
C1692 C 0.98599 0.37278 0.95022 0.0
C1693 C 0.96927 0.385 0.91122 0.0
C1694 C 0.98119 0.37377 0.89495 0.0
C1695 C 0.99617 0.36285 0.90634 0.0
C1696 C 0.99868 0.36247 0.93369 0.0
C1697 C 0.97756 0.37229 0.866 0.0
C1698 C 0.96496 0.34646 0.85419 0.0
C1699 C 0.98781 0.39583 0.85 0.0
C1700 C 0.00143 0.42361 0.86147 0.0
C1701 C 0.02483 0.43282 0.8773 0.0
C1702 C 0.03748 0.45904 0.88808 0.0
C1703 C 0.02704 0.47631 0.883 0.0
C1704 C 0.00398 0.46741 0.86704 0.0
C1705 C 0.99124 0.44119 0.85623 0.0
H1706 H 0.03687 0.4966 0.89136 0.0
H1707 H 0.91539 0.24286 0.78482 0.0
H1708 H 0.61144 0.99044 0.89775 0.0
H1709 H 0.60042 0.98856 0.9449 0.0
H1710 H 0.64316 0.07631 0.94812 0.0
H1711 H 0.65378 0.0784 0.90082 0.0
H1712 H 0.66064 0.04733 0.9845 0.0
H1713 H 0.58057 0.04921 0.95604 0.0
H1714 H 0.5387 0.03374 0.92979 0.0
H1715 H 0.50408 0.9543 0.96484 0.0
H1716 H 0.54593 0.96916 0.99102 0.0
H1717 H 0.64202 0.05071 0.11995 0.0
H1718 H 0.63915 0.06058 0.07334 0.0
H1719 H 0.58085 0.97579 0.05958 0.0
H1720 H 0.58292 0.96597 0.10641 0.0
H1721 H 0.57016 0.00696 0.02813 0.0
H1722 H 0.64807 -9e-05 0.05141 0.0
H1723 H 0.68974 0.01033 0.07602 0.0
H1724 H 0.72858 0.093 0.04845 0.0
H1725 H 0.6869 0.0832 0.02407 0.0
C1726 C 0.61807 0.00931 0.90843 0.0
C1727 C 0.6335 0.03457 0.89575 0.0
C1728 C 0.61164 0.0082 0.93524 0.0
C1729 C 0.62088 0.0323 0.94976 0.0
C1730 C 0.63572 0.05754 0.93705 0.0
C1731 C 0.64172 0.05868 0.9101 0.0
C1732 C 0.61762 0.03103 0.97875 0.0
C1733 C 0.64097 0.03914 0.99416 0.0
C1734 C 0.59176 0.01921 0.99096 0.0
C1735 C 0.5665 0.01025 0.97534 0.0
C1736 C 0.56414 0.02837 0.95798 0.0
C1737 C 0.54038 0.01972 0.94315 0.0
C1738 C 0.51876 0.99304 0.9456 0.0
C1739 C 0.52084 0.97496 0.96295 0.0
C1740 C 0.54457 0.9835 0.97781 0.0
C1741 C 0.62815 0.0343 0.10709 0.0
C1742 C 0.61309 0.0075 0.11659 0.0
C1743 C 0.62654 0.03995 0.0805 0.0
C1744 C 0.61034 0.01878 0.06292 0.0
C1745 C 0.5936 0.99239 0.07282 0.0
C1746 C 0.59487 0.9868 0.09954 0.0
C1747 C 0.61327 0.0235 0.034 0.0
C1748 C 0.58991 0.01573 0.01856 0.0
C1749 C 0.6391 0.03495 0.02156 0.0
C1750 C 0.66421 0.04093 0.03624 0.0
C1751 C 0.66539 0.02039 0.05081 0.0
C1752 C 0.68902 0.02617 0.0647 0.0
C1753 C 0.71175 0.05234 0.0639 0.0
C1754 C 0.71092 0.07276 0.04914 0.0
C1755 C 0.68729 0.06711 0.0353 0.0
H1756 H 0.73004 0.05678 0.07465 0.0
H1757 H 0.50039 0.98638 0.9341 0.0
H1758 H 0.57533 0.58506 0.04838 0.0
H1759 H 0.5695 0.57343 0.09564 0.0
H1760 H 0.64835 0.64317 0.11178 0.0
H1761 H 0.65406 0.65521 0.06493 0.0
H1762 H 0.63718 0.59257 0.13723 0.0
H1763 H 0.59654 0.65036 0.12121 0.0
H1764 H 0.56341 0.65987 0.09902 0.0
H1765 H 0.49746 0.58472 0.12867 0.0
H1766 H 0.53029 0.57463 0.15076 0.0
H1767 H 0.66035 0.64961 0.26132 0.0
H1768 H 0.65219 0.63797 0.21462 0.0
H1769 H 0.56857 0.57821 0.23162 0.0
H1770 H 0.5765 0.59004 0.27879 0.0
H1771 H 0.57222 0.6086 0.18936 0.0
H1772 H 0.61191 0.5563 0.21451 0.0
H1773 H 0.64382 0.54436 0.2355 0.0
H1774 H 0.70947 0.60482 0.18869 0.0
H1775 H 0.67806 0.61741 0.16762 0.0
C1776 C 0.59139 0.59783 0.06201 0.0
C1777 C 0.61499 0.62115 0.05303 0.0
C1778 C 0.58806 0.59113 0.08891 0.0
C1779 C 0.60853 0.60748 0.107 0.0
C1780 C 0.63242 0.63028 0.09798 0.0
C1781 C 0.63556 0.6372 0.07126 0.0
C1782 C 0.6049 0.60204 0.13565 0.0
C1783 C 0.62296 0.59595 0.14875 0.0
C1784 C 0.5855 0.60531 0.15031 0.0
C1785 C 0.56584 0.61159 0.13733 0.0
C1786 C 0.57498 0.63577 0.12281 0.0
C1787 C 0.55627 0.64129 0.11029 0.0
C1788 C 0.52835 0.62286 0.11236 0.0
C1789 C 0.51909 0.59894 0.12704 0.0
C1790 C 0.53774 0.59332 0.13957 0.0
C1791 C 0.6402 0.63396 0.25524 0.0
C1792 C 0.61908 0.62069 0.27377 0.0
C1793 C 0.63563 0.62715 0.22853 0.0
C1794 C 0.60994 0.6068 0.21978 0.0
C1795 C 0.58861 0.59378 0.23809 0.0
C1796 C 0.59317 0.60062 0.26495 0.0
C1797 C 0.60552 0.60047 0.19121 0.0
C1798 C 0.58591 0.60431 0.17802 0.0
C1799 C 0.62333 0.59478 0.17644 0.0
C1800 C 0.64257 0.58781 0.18948 0.0
C1801 C 0.63319 0.56722 0.20883 0.0
C1802 C 0.65119 0.5603 0.22071 0.0
C1803 C 0.67861 0.57376 0.21334 0.0
C1804 C 0.68818 0.59435 0.19427 0.0
C1805 C 0.67027 0.60135 0.18232 0.0
H1806 H 0.69243 0.56814 0.22231 0.0
H1807 H 0.51389 0.62716 0.10264 0.0
H1808 H 0.03098 0.63774 0.22276 0.0
H1809 H 0.03392 0.62879 0.26973 0.0
H1810 H 0.94895 0.56701 0.26956 0.0
H1811 H 0.94594 0.5754 0.22244 0.0
H1812 H 0.9662 0.61288 0.30601 0.0
H1813 H 0.98839 0.5449 0.28043 0.0
H1814 H 0.01365 0.5269 0.25596 0.0
H1815 H 0.08815 0.58613 0.29306 0.0
H1816 H 0.0634 0.60479 0.31746 0.0
H1817 H 0.96695 0.59767 0.44281 0.0
H1818 H 0.95973 0.58401 0.39625 0.0
H1819 H 0.04673 0.62709 0.38356 0.0
H1820 H 0.054 0.6395 0.43052 0.0
H1821 H 0.0244 0.58405 0.35321 0.0
H1822 H 0.00701 0.657 0.37213 0.0
H1823 H 0.9855 0.67985 0.39506 0.0
H1824 H 0.90674 0.61762 0.36838 0.0
H1825 H 0.92778 0.59416 0.34561 0.0
C1826 C 0.01309 0.62186 0.23261 0.0
C1827 C 0.98819 0.60739 0.21909 0.0
C1828 C 0.01484 0.61666 0.25933 0.0
C1829 C 0.99166 0.59719 0.2729 0.0
C1830 C 0.96706 0.58195 0.25922 0.0
C1831 C 0.9654 0.58679 0.23238 0.0
C1832 C 0.99232 0.59566 0.30198 0.0
C1833 C 0.97836 0.60595 0.31645 0.0
C1834 C 0.00909 0.5876 0.31522 0.0
C1835 C 0.02404 0.57639 0.30063 0.0
C1836 C 0.01019 0.55426 0.2832 0.0
C1837 C 0.02442 0.5439 0.26938 0.0
C1838 C 0.0525 0.5554 0.27291 0.0
C1839 C 0.0664 0.57725 0.29033 0.0
C1840 C 0.05227 0.58771 0.30419 0.0
C1841 C 0.98449 0.60381 0.43012 0.0
C1842 C 0.011 0.6199 0.44001 0.0
C1843 C 0.98037 0.59605 0.40357 0.0
C1844 C 0.00267 0.60513 0.3863 0.0
C1845 C 0.02923 0.61993 0.39652 0.0
C1846 C 0.03337 0.6271 0.42327 0.0
C1847 C 0.99834 0.60142 0.35734 0.0
C1848 C 0.01176 0.59043 0.34286 0.0
C1849 C 0.98162 0.60953 0.34387 0.0
C1850 C 0.96893 0.62365 0.35745 0.0
C1851 C 0.98508 0.64808 0.37132 0.0
C1852 C 0.97298 0.66116 0.38427 0.0
C1853 C 0.94476 0.65015 0.38324 0.0
C1854 C 0.92859 0.62608 0.3692 0.0
C1855 C 0.94059 0.61289 0.35628 0.0
H1856 H 0.93542 0.6603 0.39327 0.0
H1857 H 0.06347 0.54735 0.26219 0.0
H1858 H 0.35476 0.97832 0.5913 0.0
H1859 H 0.36592 0.9747 0.54542 0.0
H1860 H 0.44872 0.03891 0.55827 0.0
H1861 H 0.43764 0.04288 0.60436 0.0
H1862 H 0.42682 0.04796 0.51488 0.0
H1863 H 0.43634 0.97485 0.54738 0.0
H1864 H 0.42424 0.93323 0.57285 0.0
H1865 H 0.35143 0.88865 0.52664 0.0
H1866 H 0.36285 0.93008 0.50113 0.0
H1867 H 0.43356 0.02735 0.37582 0.0
H1868 H 0.44668 0.02972 0.42251 0.0
H1869 H 0.36434 0.96836 0.44203 0.0
H1870 H 0.35126 0.96565 0.39586 0.0
H1871 H 0.40099 0.96073 0.46944 0.0
H1872 H 0.38556 0.03618 0.44741 0.0
H1873 H 0.39542 0.07779 0.42292 0.0
H1874 H 0.47819 0.11745 0.45041 0.0
H1875 H 0.46884 0.07592 0.47483 0.0
C1876 C 0.37543 0.99149 0.5845 0.0
C1877 C 0.39529 0.01095 0.60143 0.0
C1878 C 0.38184 0.98924 0.55831 0.0
C1879 C 0.40826 0.00628 0.54857 0.0
C1880 C 0.42827 0.02546 0.5655 0.0
C1881 C 0.42188 0.0277 0.59178 0.0
C1882 C 0.41392 0.00547 0.52008 0.0
C1883 C 0.42197 0.02906 0.50499 0.0
C1884 C 0.40738 0.98077 0.50722 0.0
C1885 C 0.40046 0.95566 0.52237 0.0
C1886 C 0.41767 0.95622 0.54274 0.0
C1887 C 0.41093 0.93264 0.55718 0.0
C1888 C 0.38708 0.90831 0.55138 0.0
C1889 C 0.36992 0.9075 0.53109 0.0
C1890 C 0.37655 0.93102 0.51659 0.0
C1891 C 0.41839 0.01414 0.39005 0.0
C1892 C 0.39129 0.99656 0.38221 0.0
C1893 C 0.42591 0.01552 0.41666 0.0
C1894 C 0.40641 0.99936 0.4357 0.0
C1895 C 0.37973 0.98095 0.42765 0.0
C1896 C 0.37223 0.97959 0.40122 0.0
C1897 C 0.4126 0.00287 0.46437 0.0
C1898 C 0.4068 0.97981 0.47945 0.0
C1899 C 0.42104 0.028 0.47727 0.0
C1900 C 0.42662 0.05288 0.46261 0.0
C1901 C 0.40591 0.05372 0.44804 0.0
C1902 C 0.41139 0.07728 0.43421 0.0
C1903 C 0.43744 0.10021 0.43502 0.0
C1904 C 0.45804 0.09965 0.44974 0.0
C1905 C 0.45267 0.07611 0.46357 0.0
H1906 H 0.44165 0.11845 0.42432 0.0
H1907 H 0.38189 0.89009 0.56259 0.0
loop_
_geom_bond_atom_site_label_1
_geom_bond_atom_site_label_2
_geom_bond_distance
_geom_bond_site_symmetry_2
_ccdc_geom_bond_type
Co0 O3 1.970 . S
Co0 N17 1.989 . S
Co0 O25 1.967 . S
Co0 O32 1.920 . S
Co1 O4 1.966 . S
Co1 N10 2.022 . S
Co1 N18 1.993 . S
Co1 O26 1.941 . S
C2 O3 1.258 . S
C2 O4 1.263 . S
O3 Co0 1.970 . S
O3 C2 1.258 . S
O4 Co1 1.966 . S
O4 C2 1.263 . S
C5 O6 1.235 . S
C5 O32 1.289 . S
O6 C5 1.235 . S
C7 C9 1.400 . S
C7 N10 1.351 . S
C7 C12 1.501 . S
C8 C9 1.387 . S
C8 N11 1.341 . S
C9 C7 1.400 . S
C9 C8 1.387 . S
N10 Co1 2.022 . S
N10 C7 1.351 . S
N10 N11 1.365 . S
N11 C8 1.341 . S
N11 N10 1.365 . S
N11 H31 0.862 . S
C12 C7 1.501 . S
C12 H13 0.961 . S
C12 H14 0.961 . S
C12 H15 0.960 . S
H13 C12 0.961 . S
H14 C12 0.961 . S
H15 C12 0.960 . S
C16 N17 1.342 . S
C16 C20 1.401 . S
C16 C21 1.499 . S
N17 Co0 1.989 . S
N17 C16 1.342 . S
N17 N18 1.388 . S
N18 Co1 1.993 . S
N18 N17 1.388 . S
N18 C19 1.346 . S
C19 N18 1.346 . S
C19 C20 1.396 . S
C19 C29 1.510 . S
C20 C16 1.401 . S
C20 C19 1.396 . S
C21 C16 1.499 . S
C21 H22 0.959 . S
C21 H23 0.960 . S
C21 H24 0.961 . S
H22 C21 0.959 . S
H23 C21 0.960 . S
H24 C21 0.961 . S
O25 Co0 1.967 . S
O25 C33 1.258 . S
O26 Co1 1.941 . S
O26 C33 1.266 . S
H27 C29 0.959 . S
H28 C29 0.961 . S
C29 C19 1.510 . S
C29 H27 0.959 . S
C29 H28 0.961 . S
C29 H30 0.960 . S
H30 C29 0.960 . S
H31 N11 0.862 . S
O32 Co0 1.920 . S
O32 C5 1.289 . S
C33 O25 1.258 . S
C33 O26 1.266 . S
Co34 O37 1.970 . S
Co34 N51 1.989 . S
Co34 O59 1.967 . S
Co34 O66 1.920 . S
Co35 O38 1.966 . S
Co35 N44 2.022 . S
Co35 N52 1.993 . S
Co35 O60 1.941 . S
C36 O37 1.258 . S
C36 O38 1.263 . S
O37 Co34 1.970 . S
O37 C36 1.258 . S
O38 Co35 1.966 . S
O38 C36 1.263 . S
C39 O40 1.235 . S
C39 O66 1.289 . S
O40 C39 1.235 . S
C41 C43 1.400 . S
C41 N44 1.351 . S
C41 C46 1.501 . S
C42 C43 1.387 . S
C42 N45 1.341 . S
C43 C41 1.400 . S
C43 C42 1.387 . S
N44 Co35 2.022 . S
N44 C41 1.351 . S
N44 N45 1.365 . S
N45 C42 1.341 . S
N45 N44 1.365 . S
N45 H65 0.862 . S
C46 C41 1.501 . S
C46 H47 0.961 . S
C46 H48 0.961 . S
C46 H49 0.960 . S
H47 C46 0.961 . S
H48 C46 0.961 . S
H49 C46 0.960 . S
C50 N51 1.342 . S
C50 C54 1.401 . S
C50 C55 1.499 . S
N51 Co34 1.989 . S
N51 C50 1.342 . S
N51 N52 1.388 . S
N52 Co35 1.993 . S
N52 N51 1.388 . S
N52 C53 1.346 . S
C53 N52 1.346 . S
C53 C54 1.396 . S
C53 C63 1.510 . S
C54 C50 1.401 . S
C54 C53 1.396 . S
C55 C50 1.499 . S
C55 H56 0.959 . S
C55 H57 0.960 . S
C55 H58 0.961 . S
H56 C55 0.959 . S
H57 C55 0.960 . S
H58 C55 0.961 . S
O59 Co34 1.967 . S
O59 C67 1.258 1_455 S
O60 Co35 1.941 . S
O60 C67 1.266 1_455 S
H61 C63 0.959 . S
H62 C63 0.961 . S
C63 C53 1.510 . S
C63 H61 0.959 . S
C63 H62 0.961 . S
C63 H64 0.960 . S
H64 C63 0.960 . S
H65 N45 0.862 . S
O66 Co34 1.920 . S
O66 C39 1.289 . S
C67 O59 1.258 1_655 S
C67 O60 1.266 1_655 S
Co68 O71 1.970 . S
Co68 N85 1.989 . S
Co68 O93 1.967 . S
Co68 O100 1.920 . S
Co69 O72 1.966 . S
Co69 N78 2.022 . S
Co69 N86 1.993 . S
Co69 O94 1.941 . S
C70 O71 1.258 . S
C70 O72 1.263 . S
O71 Co68 1.970 . S
O71 C70 1.258 . S
O72 Co69 1.966 . S
O72 C70 1.263 . S
C73 O74 1.235 . S
C73 O100 1.289 . S
O74 C73 1.235 . S
C75 C77 1.400 . S
C75 N78 1.351 . S
C75 C80 1.501 . S
C76 C77 1.387 . S
C76 N79 1.341 . S
C77 C75 1.400 . S
C77 C76 1.387 . S
N78 Co69 2.022 . S
N78 C75 1.351 . S
N78 N79 1.365 . S
N79 C76 1.341 . S
N79 N78 1.365 . S
N79 H99 0.862 . S
C80 C75 1.501 . S
C80 H81 0.961 . S
C80 H82 0.961 . S
C80 H83 0.960 . S
H81 C80 0.961 . S
H82 C80 0.961 . S
H83 C80 0.960 . S
C84 N85 1.342 . S
C84 C88 1.401 . S
C84 C89 1.499 . S
N85 Co68 1.989 . S
N85 C84 1.342 . S
N85 N86 1.388 . S
N86 Co69 1.993 . S
N86 N85 1.388 . S
N86 C87 1.346 . S
C87 N86 1.346 . S
C87 C88 1.396 . S
C87 C97 1.510 . S
C88 C84 1.401 . S
C88 C87 1.396 . S
C89 C84 1.499 . S
C89 H90 0.959 . S
C89 H91 0.960 . S
C89 H92 0.961 . S
H90 C89 0.959 . S
H91 C89 0.960 . S
H92 C89 0.961 . S
O93 Co68 1.967 . S
O93 C101 1.258 1_545 S
O94 Co69 1.941 . S
O94 C101 1.266 1_545 S
H95 C97 0.959 . S
H96 C97 0.961 . S
C97 C87 1.510 . S
C97 H95 0.959 . S
C97 H96 0.961 . S
C97 H98 0.960 . S
H98 C97 0.960 . S
H99 N79 0.862 . S
O100 Co68 1.920 . S
O100 C73 1.289 . S
C101 O93 1.258 1_565 S
C101 O94 1.266 1_565 S
Co102 O105 1.970 . S
Co102 N119 1.989 . S
Co102 O127 1.967 . S
Co102 O134 1.920 1_556 S
Co103 O106 1.966 . S
Co103 N112 2.022 . S
Co103 N120 1.993 . S
Co103 O128 1.941 . S
C104 O105 1.258 . S
C104 O106 1.263 . S
O105 Co102 1.970 . S
O105 C104 1.258 . S
O106 Co103 1.966 . S
O106 C104 1.263 . S
C107 O108 1.235 . S
C107 O134 1.289 . S
O108 C107 1.235 . S
C109 C111 1.400 . S
C109 N112 1.351 . S
C109 C114 1.501 . S
C110 C111 1.387 . S
C110 N113 1.341 . S
C111 C109 1.400 . S
C111 C110 1.387 . S
N112 Co103 2.022 . S
N112 C109 1.351 . S
N112 N113 1.365 . S
N113 C110 1.341 . S
N113 N112 1.365 . S
N113 H133 0.862 . S
C114 C109 1.501 . S
C114 H115 0.961 . S
C114 H116 0.961 . S
C114 H117 0.960 . S
H115 C114 0.961 . S
H116 C114 0.961 . S
H117 C114 0.960 . S
C118 N119 1.342 1_554 S
C118 C122 1.401 1_554 S
C118 C123 1.499 . S
N119 Co102 1.989 . S
N119 C118 1.342 1_556 S
N119 N120 1.388 . S
N120 Co103 1.993 . S
N120 N119 1.388 . S
N120 C121 1.346 . S
C121 N120 1.346 . S
C121 C122 1.396 . S
C121 C131 1.510 . S
C122 C118 1.401 1_556 S
C122 C121 1.396 . S
C123 C118 1.499 . S
C123 H124 0.959 . S
C123 H125 0.960 . S
C123 H126 0.961 . S
H124 C123 0.959 . S
H125 C123 0.960 . S
H126 C123 0.961 . S
O127 Co102 1.967 . S
O127 C135 1.258 . S
O128 Co103 1.941 . S
O128 C135 1.266 . S
H129 C131 0.959 . S
H130 C131 0.961 . S
C131 C121 1.510 . S
C131 H129 0.959 . S
C131 H130 0.961 . S
C131 H132 0.960 . S
H132 C131 0.960 . S
H133 N113 0.862 . S
O134 Co102 1.920 1_554 S
O134 C107 1.289 . S
C135 O127 1.258 . S
C135 O128 1.266 . S
Co136 O139 1.970 . S
Co136 N153 1.989 . S
Co136 O161 1.967 . S
Co136 O168 1.920 . S
Co137 O140 1.966 . S
Co137 N146 2.022 . S
Co137 N154 1.993 . S
Co137 O162 1.941 . S
C138 O139 1.258 . S
C138 O140 1.263 . S
O139 Co136 1.970 . S
O139 C138 1.258 . S
O140 Co137 1.966 . S
O140 C138 1.263 . S
C141 O142 1.235 . S
C141 O168 1.289 . S
O142 C141 1.235 . S
C143 C145 1.400 . S
C143 N146 1.351 . S
C143 C148 1.501 . S
C144 C145 1.387 . S
C144 N147 1.341 . S
C145 C143 1.400 . S
C145 C144 1.387 . S
N146 Co137 2.022 . S
N146 C143 1.351 . S
N146 N147 1.365 . S
N147 C144 1.341 . S
N147 N146 1.365 . S
N147 H167 0.862 . S
C148 C143 1.501 . S
C148 H149 0.961 . S
C148 H150 0.961 . S
C148 H151 0.960 . S
H149 C148 0.961 . S
H150 C148 0.961 . S
H151 C148 0.960 . S
C152 N153 1.342 . S
C152 C156 1.401 . S
C152 C157 1.499 . S
N153 Co136 1.989 . S
N153 C152 1.342 . S
N153 N154 1.388 . S
N154 Co137 1.993 . S
N154 N153 1.388 . S
N154 C155 1.346 . S
C155 N154 1.346 . S
C155 C156 1.396 . S
C155 C165 1.510 . S
C156 C152 1.401 . S
C156 C155 1.396 . S
C157 C152 1.499 . S
C157 H158 0.959 . S
C157 H159 0.960 . S
C157 H160 0.961 . S
H158 C157 0.959 . S
H159 C157 0.960 . S
H160 C157 0.961 . S
O161 Co136 1.967 . S
O161 C169 1.258 1_655 S
O162 Co137 1.941 . S
O162 C169 1.266 1_655 S
H163 C165 0.959 . S
H164 C165 0.961 . S
C165 C155 1.510 . S
C165 H163 0.959 . S
C165 H164 0.961 . S
C165 H166 0.960 . S
H166 C165 0.960 . S
H167 N147 0.862 . S
O168 Co136 1.920 . S
O168 C141 1.289 . S
C169 O161 1.258 1_455 S
C169 O162 1.266 1_455 S
Co170 O173 1.970 . S
Co170 N187 1.989 . S
Co170 O195 1.967 . S
Co170 O202 1.920 . S
Co171 O174 1.966 . S
Co171 N180 2.022 . S
Co171 N188 1.993 . S
Co171 O196 1.941 . S
C172 O173 1.258 . S
C172 O174 1.263 . S
O173 Co170 1.970 . S
O173 C172 1.258 . S
O174 Co171 1.966 . S
O174 C172 1.263 . S
C175 O176 1.235 . S
C175 O202 1.289 . S
O176 C175 1.235 . S
C177 C179 1.400 . S
C177 N180 1.351 . S
C177 C182 1.501 . S
C178 C179 1.387 . S
C178 N181 1.341 . S
C179 C177 1.400 . S
C179 C178 1.387 . S
N180 Co171 2.022 . S
N180 C177 1.351 . S
N180 N181 1.365 . S
N181 C178 1.341 . S
N181 N180 1.365 . S
N181 H201 0.862 . S
C182 C177 1.501 . S
C182 H183 0.961 . S
C182 H184 0.961 . S
C182 H185 0.960 . S
H183 C182 0.961 . S
H184 C182 0.961 . S
H185 C182 0.960 . S
C186 N187 1.342 . S
C186 C190 1.401 . S
C186 C191 1.499 . S
N187 Co170 1.989 . S
N187 C186 1.342 . S
N187 N188 1.388 . S
N188 Co171 1.993 . S
N188 N187 1.388 . S
N188 C189 1.346 . S
C189 N188 1.346 . S
C189 C190 1.396 . S
C189 C199 1.510 . S
C190 C186 1.401 . S
C190 C189 1.396 . S
C191 C186 1.499 . S
C191 H192 0.959 . S
C191 H193 0.960 . S
C191 H194 0.961 . S
H192 C191 0.959 . S
H193 C191 0.960 . S
H194 C191 0.961 . S
O195 Co170 1.967 . S
O195 C203 1.258 1_565 S
O196 Co171 1.941 . S
O196 C203 1.266 1_565 S
H197 C199 0.959 . S
H198 C199 0.961 . S
C199 C189 1.510 . S
C199 H197 0.959 . S
C199 H198 0.961 . S
C199 H200 0.960 . S
H200 C199 0.960 . S
H201 N181 0.862 . S
O202 Co170 1.920 . S
O202 C175 1.289 . S
C203 O195 1.258 1_545 S
C203 O196 1.266 1_545 S
Co204 O207 1.970 . S
Co204 N221 1.989 . S
Co204 O229 1.967 . S
Co204 O236 1.920 . S
Co205 O208 1.966 . S
Co205 N214 2.022 . S
Co205 N222 1.993 . S
Co205 O230 1.941 . S
C206 O207 1.258 . S
C206 O208 1.263 . S
O207 Co204 1.970 . S
O207 C206 1.258 . S
O208 Co205 1.966 . S
O208 C206 1.263 . S
C209 O210 1.235 . S
C209 O236 1.289 . S
O210 C209 1.235 . S
C211 C213 1.400 . S
C211 N214 1.351 . S
C211 C216 1.501 . S
C212 C213 1.387 . S
C212 N215 1.341 . S
C213 C211 1.400 . S
C213 C212 1.387 . S
N214 Co205 2.022 . S
N214 C211 1.351 . S
N214 N215 1.365 . S
N215 C212 1.341 . S
N215 N214 1.365 . S
N215 H235 0.862 . S
C216 C211 1.501 . S
C216 H217 0.961 . S
C216 H218 0.961 . S
C216 H219 0.960 . S
H217 C216 0.961 . S
H218 C216 0.961 . S
H219 C216 0.960 . S
C220 N221 1.342 . S
C220 C224 1.401 . S
C220 C225 1.499 . S
N221 Co204 1.989 . S
N221 C220 1.342 . S
N221 N222 1.388 . S
N222 Co205 1.993 . S
N222 N221 1.388 . S
N222 C223 1.346 . S
C223 N222 1.346 . S
C223 C224 1.396 . S
C223 C233 1.510 . S
C224 C220 1.401 . S
C224 C223 1.396 . S
C225 C220 1.499 . S
C225 H226 0.959 . S
C225 H227 0.960 . S
C225 H228 0.961 . S
H226 C225 0.959 . S
H227 C225 0.960 . S
H228 C225 0.961 . S
O229 Co204 1.967 . S
O229 C237 1.258 . S
O230 Co205 1.941 . S
O230 C237 1.266 . S
H231 C233 0.959 . S
H232 C233 0.961 . S
C233 C223 1.510 . S
C233 H231 0.959 . S
C233 H232 0.961 . S
C233 H234 0.960 . S
H234 C233 0.960 . S
H235 N215 0.862 . S
O236 Co204 1.920 . S
O236 C209 1.289 . S
C237 O229 1.258 . S
C237 O230 1.266 . S
Co238 O241 1.970 . S
Co238 N255 1.989 . S
Co238 O263 1.967 . S
Co238 O270 1.920 . S
Co239 O242 1.966 . S
Co239 N248 2.022 . S
Co239 N256 1.993 . S
Co239 O264 1.941 . S
C240 O241 1.258 . S
C240 O242 1.263 . S
O241 Co238 1.970 . S
O241 C240 1.258 . S
O242 Co239 1.966 . S
O242 C240 1.263 . S
C243 O244 1.235 . S
C243 O270 1.289 . S
O244 C243 1.235 . S
C245 C247 1.400 . S
C245 N248 1.351 . S
C245 C250 1.501 . S
C246 C247 1.387 . S
C246 N249 1.341 . S
C247 C245 1.400 . S
C247 C246 1.387 . S
N248 Co239 2.022 . S
N248 C245 1.351 . S
N248 N249 1.365 . S
N249 C246 1.341 . S
N249 N248 1.365 . S
N249 H269 0.862 . S
C250 C245 1.501 . S
C250 H251 0.961 . S
C250 H252 0.961 . S
C250 H253 0.960 . S
H251 C250 0.961 . S
H252 C250 0.961 . S
H253 C250 0.960 . S
C254 N255 1.342 . S
C254 C258 1.401 . S
C254 C259 1.499 . S
N255 Co238 1.989 . S
N255 C254 1.342 . S
N255 N256 1.388 . S
N256 Co239 1.993 . S
N256 N255 1.388 . S
N256 C257 1.346 . S
C257 N256 1.346 . S
C257 C258 1.396 . S
C257 C267 1.510 . S
C258 C254 1.401 . S
C258 C257 1.396 . S
C259 C254 1.499 . S
C259 H260 0.959 . S
C259 H261 0.960 . S
C259 H262 0.961 . S
H260 C259 0.959 . S
H261 C259 0.960 . S
H262 C259 0.961 . S
O263 Co238 1.967 . S
O263 C271 1.258 1_455 S
O264 Co239 1.941 . S
O264 C271 1.266 1_455 S
H265 C267 0.959 . S
H266 C267 0.961 . S
C267 C257 1.510 . S
C267 H265 0.959 . S
C267 H266 0.961 . S
C267 H268 0.960 . S
H268 C267 0.960 . S
H269 N249 0.862 . S
O270 Co238 1.920 . S
O270 C243 1.289 . S
C271 O263 1.258 1_655 S
C271 O264 1.266 1_655 S
Co272 O275 1.970 . S
Co272 N289 1.989 . S
Co272 O297 1.967 . S
Co272 O304 1.920 . S
Co273 O276 1.966 . S
Co273 N282 2.022 . S
Co273 N290 1.993 . S
Co273 O298 1.941 . S
C274 O275 1.258 . S
C274 O276 1.263 . S
O275 Co272 1.970 . S
O275 C274 1.258 . S
O276 Co273 1.966 . S
O276 C274 1.263 . S
C277 O278 1.235 . S
C277 O304 1.289 . S
O278 C277 1.235 . S
C279 C281 1.400 . S
C279 N282 1.351 . S
C279 C284 1.501 . S
C280 C281 1.387 . S
C280 N283 1.341 . S
C281 C279 1.400 . S
C281 C280 1.387 . S
N282 Co273 2.022 . S
N282 C279 1.351 . S
N282 N283 1.365 . S
N283 C280 1.341 . S
N283 N282 1.365 . S
N283 H303 0.862 . S
C284 C279 1.501 . S
C284 H285 0.961 . S
C284 H286 0.961 . S
C284 H287 0.960 . S
H285 C284 0.961 . S
H286 C284 0.961 . S
H287 C284 0.960 . S
C288 N289 1.342 . S
C288 C292 1.401 . S
C288 C293 1.499 . S
N289 Co272 1.989 . S
N289 C288 1.342 . S
N289 N290 1.388 . S
N290 Co273 1.993 . S
N290 N289 1.388 . S
N290 C291 1.346 . S
C291 N290 1.346 . S
C291 C292 1.396 . S
C291 C301 1.510 . S
C292 C288 1.401 . S
C292 C291 1.396 . S
C293 C288 1.499 . S
C293 H294 0.959 . S
C293 H295 0.960 . S
C293 H296 0.961 . S
H294 C293 0.959 . S
H295 C293 0.960 . S
H296 C293 0.961 . S
O297 Co272 1.967 . S
O297 C305 1.258 1_545 S
O298 Co273 1.941 . S
O298 C305 1.266 1_545 S
H299 C301 0.959 . S
H300 C301 0.961 . S
C301 C291 1.510 . S
C301 H299 0.959 . S
C301 H300 0.961 . S
C301 H302 0.960 . S
H302 C301 0.960 . S
H303 N283 0.862 . S
O304 Co272 1.920 . S
O304 C277 1.289 . S
C305 O297 1.258 1_565 S
C305 O298 1.266 1_565 S
Co306 O309 1.970 . S
Co306 N323 1.989 . S
Co306 O331 1.967 . S
Co306 O338 1.920 . S
Co307 O310 1.966 . S
Co307 N316 2.022 . S
Co307 N324 1.993 . S
Co307 O332 1.941 . S
C308 O309 1.258 . S
C308 O310 1.263 . S
O309 Co306 1.970 . S
O309 C308 1.258 . S
O310 Co307 1.966 . S
O310 C308 1.263 . S
C311 O312 1.235 . S
C311 O338 1.289 . S
O312 C311 1.235 . S
C313 C315 1.400 . S
C313 N316 1.351 . S
C313 C318 1.501 . S
C314 C315 1.387 . S
C314 N317 1.341 . S
C315 C313 1.400 . S
C315 C314 1.387 . S
N316 Co307 2.022 . S
N316 C313 1.351 . S
N316 N317 1.365 . S
N317 C314 1.341 . S
N317 N316 1.365 . S
N317 H337 0.862 . S
C318 C313 1.501 . S
C318 H319 0.961 . S
C318 H320 0.961 . S
C318 H321 0.960 . S
H319 C318 0.961 . S
H320 C318 0.961 . S
H321 C318 0.960 . S
C322 N323 1.342 . S
C322 C326 1.401 . S
C322 C327 1.499 . S
N323 Co306 1.989 . S
N323 C322 1.342 . S
N323 N324 1.388 . S
N324 Co307 1.993 . S
N324 N323 1.388 . S
N324 C325 1.346 . S
C325 N324 1.346 . S
C325 C326 1.396 . S
C325 C335 1.510 . S
C326 C322 1.401 . S
C326 C325 1.396 . S
C327 C322 1.499 . S
C327 H328 0.959 . S
C327 H329 0.960 . S
C327 H330 0.961 . S
H328 C327 0.959 . S
H329 C327 0.960 . S
H330 C327 0.961 . S
O331 Co306 1.967 . S
O331 C339 1.258 . S
O332 Co307 1.941 . S
O332 C339 1.266 . S
H333 C335 0.959 . S
H334 C335 0.961 . S
C335 C325 1.510 . S
C335 H333 0.959 . S
C335 H334 0.961 . S
C335 H336 0.960 . S
H336 C335 0.960 . S
H337 N317 0.862 . S
O338 Co306 1.920 . S
O338 C311 1.289 . S
C339 O331 1.258 . S
C339 O332 1.266 . S
Co340 O343 1.970 . S
Co340 N357 1.989 . S
Co340 O365 1.967 . S
Co340 O372 1.920 1_554 S
Co341 O344 1.966 . S
Co341 N350 2.022 . S
Co341 N358 1.993 . S
Co341 O366 1.941 . S
C342 O343 1.258 . S
C342 O344 1.263 . S
O343 Co340 1.970 . S
O343 C342 1.258 . S
O344 Co341 1.966 . S
O344 C342 1.263 . S
C345 O346 1.235 . S
C345 O372 1.289 . S
O346 C345 1.235 . S
C347 C349 1.400 . S
C347 N350 1.351 . S
C347 C352 1.501 . S
C348 C349 1.387 . S
C348 N351 1.341 . S
C349 C347 1.400 . S
C349 C348 1.387 . S
N350 Co341 2.022 . S
N350 C347 1.351 . S
N350 N351 1.365 . S
N351 C348 1.341 . S
N351 N350 1.365 . S
N351 H371 0.862 . S
C352 C347 1.501 . S
C352 H353 0.961 . S
C352 H354 0.961 . S
C352 H355 0.960 . S
H353 C352 0.961 . S
H354 C352 0.961 . S
H355 C352 0.960 . S
C356 N357 1.342 1_556 S
C356 C360 1.401 1_556 S
C356 C361 1.499 . S
N357 Co340 1.989 . S
N357 C356 1.342 1_554 S
N357 N358 1.388 . S
N358 Co341 1.993 . S
N358 N357 1.388 . S
N358 C359 1.346 . S
C359 N358 1.346 . S
C359 C360 1.396 . S
C359 C369 1.510 . S
C360 C356 1.401 1_554 S
C360 C359 1.396 . S
C361 C356 1.499 . S
C361 H362 0.959 . S
C361 H363 0.960 . S
C361 H364 0.961 . S
H362 C361 0.959 . S
H363 C361 0.960 . S
H364 C361 0.961 . S
O365 Co340 1.967 . S
O365 C373 1.258 1_655 S
O366 Co341 1.941 . S
O366 C373 1.266 1_655 S
H367 C369 0.959 . S
H368 C369 0.961 . S
C369 C359 1.510 . S
C369 H367 0.959 . S
C369 H368 0.961 . S
C369 H370 0.960 . S
H370 C369 0.960 . S
H371 N351 0.862 . S
O372 Co340 1.920 1_556 S
O372 C345 1.289 . S
C373 O365 1.258 1_455 S
C373 O366 1.266 1_455 S
Co374 O377 1.970 . S
Co374 N391 1.989 . S
Co374 O399 1.967 . S
Co374 O406 1.920 . S
Co375 O378 1.966 . S
Co375 N384 2.022 . S
Co375 N392 1.993 . S
Co375 O400 1.941 . S
C376 O377 1.258 . S
C376 O378 1.263 . S
O377 Co374 1.970 . S
O377 C376 1.258 . S
O378 Co375 1.966 . S
O378 C376 1.263 . S
C379 O380 1.235 . S
C379 O406 1.289 . S
O380 C379 1.235 . S
C381 C383 1.400 . S
C381 N384 1.351 . S
C381 C386 1.501 . S
C382 C383 1.387 . S
C382 N385 1.341 . S
C383 C381 1.400 . S
C383 C382 1.387 . S
N384 Co375 2.022 . S
N384 C381 1.351 . S
N384 N385 1.365 . S
N385 C382 1.341 . S
N385 N384 1.365 . S
N385 H405 0.862 . S
C386 C381 1.501 . S
C386 H387 0.961 . S
C386 H388 0.961 . S
C386 H389 0.960 . S
H387 C386 0.961 . S
H388 C386 0.961 . S
H389 C386 0.960 . S
C390 N391 1.342 . S
C390 C394 1.401 . S
C390 C395 1.499 . S
N391 Co374 1.989 . S
N391 C390 1.342 . S
N391 N392 1.388 . S
N392 Co375 1.993 . S
N392 N391 1.388 . S
N392 C393 1.346 . S
C393 N392 1.346 . S
C393 C394 1.396 . S
C393 C403 1.510 . S
C394 C390 1.401 . S
C394 C393 1.396 . S
C395 C390 1.499 . S
C395 H396 0.959 . S
C395 H397 0.960 . S
C395 H398 0.961 . S
H396 C395 0.959 . S
H397 C395 0.960 . S
H398 C395 0.961 . S
O399 Co374 1.967 . S
O399 C407 1.258 1_565 S
O400 Co375 1.941 . S
O400 C407 1.266 1_565 S
H401 C403 0.959 . S
H402 C403 0.961 . S
C403 C393 1.510 . S
C403 H401 0.959 . S
C403 H402 0.961 . S
C403 H404 0.960 . S
H404 C403 0.960 . S
H405 N385 0.862 . S
O406 Co374 1.920 . S
O406 C379 1.289 . S
C407 O399 1.258 1_545 S
C407 O400 1.266 1_545 S
H408 C426 0.951 . S
H409 C428 0.951 . S
H410 C430 0.950 . S
H411 C431 0.950 . S
H412 C433 0.950 . S
H413 C436 0.950 . S
H414 C437 0.950 . S
H415 C439 0.950 . S
H416 C440 0.950 . S
H417 C441 0.951 . S
H418 C443 0.951 . S
H419 C445 0.950 . S
H420 C446 0.950 . S
H421 C448 0.950 . S
H422 C451 0.950 . S
H423 C452 0.950 . S
H424 C454 0.950 . S
H425 C455 0.950 . S
C426 H408 0.951 . S
C426 C427 1.366 . S
C426 C428 1.388 . S
C427 C426 1.366 . S
C427 C431 1.385 . S
C428 H409 0.951 . S
C428 C426 1.388 . S
C428 C429 1.366 . S
C429 C428 1.366 . S
C429 C430 1.414 . S
C429 C432 1.499 . S
C430 H410 0.950 . S
C430 C429 1.414 . S
C430 C431 1.374 . S
C431 H411 0.950 . S
C431 C427 1.385 . S
C431 C430 1.374 . S
C432 C429 1.499 . S
C432 C433 1.373 . S
C432 C434 1.389 . S
C433 H412 0.950 . S
C433 C432 1.373 . S
C433 C449 1.377 . S
C434 C432 1.389 . S
C434 C435 1.524 . S
C434 C448 1.377 . S
C435 C434 1.524 . S
C435 C436 1.397 . S
C435 C440 1.363 . S
C436 H413 0.950 . S
C436 C435 1.397 . S
C436 C437 1.334 . S
C437 H414 0.950 . S
C437 C436 1.334 . S
C437 C438 1.287 . S
C438 C437 1.287 . S
C438 C439 1.524 . S
C438 H457 0.913 . S
C439 H415 0.950 . S
C439 C438 1.524 . S
C439 C440 1.415 . S
C440 H416 0.950 . S
C440 C435 1.363 . S
C440 C439 1.415 . S
C441 H417 0.951 . S
C441 C442 1.366 . S
C441 C443 1.388 . S
C442 C441 1.366 . S
C442 C446 1.385 . S
C443 H418 0.951 . S
C443 C441 1.388 . S
C443 C444 1.366 . S
C444 C443 1.366 . S
C444 C445 1.414 . S
C444 C447 1.499 . S
C445 H419 0.950 . S
C445 C444 1.414 . S
C445 C446 1.374 . S
C446 H420 0.950 . S
C446 C442 1.385 . S
C446 C445 1.374 . S
C447 C444 1.499 . S
C447 C448 1.373 . S
C447 C449 1.389 . S
C448 H421 0.950 . S
C448 C434 1.377 . S
C448 C447 1.373 . S
C449 C433 1.377 . S
C449 C447 1.389 . S
C449 C450 1.524 . S
C450 C449 1.524 . S
C450 C451 1.397 . S
C450 C455 1.363 . S
C451 H422 0.950 . S
C451 C450 1.397 . S
C451 C452 1.334 . S
C452 H423 0.950 . S
C452 C451 1.334 . S
C452 C453 1.287 . S
C453 C452 1.287 . S
C453 C454 1.524 . S
C453 H456 0.999 . S
C454 H424 0.950 . S
C454 C453 1.524 . S
C454 C455 1.415 . S
C455 H425 0.950 . S
C455 C450 1.363 . S
C455 C454 1.415 . S
H456 C453 0.999 . S
H457 C438 0.913 . S
H458 C476 0.951 . S
H459 C478 0.951 . S
H460 C480 0.950 . S
H461 C481 0.950 . S
H462 C483 0.950 . S
H463 C486 0.950 . S
H464 C487 0.950 . S
H465 C489 0.950 . S
H466 C490 0.950 . S
H467 C491 0.951 . S
H468 C493 0.951 . S
H469 C495 0.950 . S
H470 C496 0.950 . S
H471 C498 0.950 . S
H472 C501 0.950 . S
H473 C502 0.950 . S
H474 C504 0.950 . S
H475 C505 0.950 . S
C476 H458 0.951 . S
C476 C477 1.366 . S
C476 C478 1.388 . S
C477 C476 1.366 . S
C477 C481 1.385 . S
C478 H459 0.951 . S
C478 C476 1.388 . S
C478 C479 1.366 . S
C479 C478 1.366 . S
C479 C480 1.414 . S
C479 C482 1.499 . S
C480 H460 0.950 . S
C480 C479 1.414 . S
C480 C481 1.374 . S
C481 H461 0.950 . S
C481 C477 1.385 . S
C481 C480 1.374 . S
C482 C479 1.499 . S
C482 C483 1.373 . S
C482 C484 1.389 . S
C483 H462 0.950 . S
C483 C482 1.373 . S
C483 C499 1.377 . S
C484 C482 1.389 . S
C484 C485 1.524 . S
C484 C498 1.377 . S
C485 C484 1.524 . S
C485 C486 1.397 . S
C485 C490 1.363 . S
C486 H463 0.950 . S
C486 C485 1.397 . S
C486 C487 1.334 . S
C487 H464 0.950 . S
C487 C486 1.334 . S
C487 C488 1.287 . S
C488 C487 1.287 . S
C488 C489 1.524 . S
C488 H507 0.913 . S
C489 H465 0.950 . S
C489 C488 1.524 . S
C489 C490 1.415 . S
C490 H466 0.950 . S
C490 C485 1.363 . S
C490 C489 1.415 . S
C491 H467 0.951 . S
C491 C492 1.366 . S
C491 C493 1.388 . S
C492 C491 1.366 . S
C492 C496 1.385 . S
C493 H468 0.951 . S
C493 C491 1.388 . S
C493 C494 1.366 . S
C494 C493 1.366 . S
C494 C495 1.414 . S
C494 C497 1.499 . S
C495 H469 0.950 . S
C495 C494 1.414 . S
C495 C496 1.374 . S
C496 H470 0.950 . S
C496 C492 1.385 . S
C496 C495 1.374 . S
C497 C494 1.499 . S
C497 C498 1.373 . S
C497 C499 1.389 . S
C498 H471 0.950 . S
C498 C484 1.377 . S
C498 C497 1.373 . S
C499 C483 1.377 . S
C499 C497 1.389 . S
C499 C500 1.524 . S
C500 C499 1.524 . S
C500 C501 1.397 . S
C500 C505 1.363 . S
C501 H472 0.950 . S
C501 C500 1.397 . S
C501 C502 1.334 . S
C502 H473 0.950 . S
C502 C501 1.334 . S
C502 C503 1.287 . S
C503 C502 1.287 . S
C503 C504 1.524 . S
C503 H506 0.999 . S
C504 H474 0.950 . S
C504 C503 1.524 . S
C504 C505 1.415 . S
C505 H475 0.950 . S
C505 C500 1.363 . S
C505 C504 1.415 . S
H506 C503 0.999 . S
H507 C488 0.913 . S
H508 C526 0.951 . S
H509 C528 0.951 . S
H510 C530 0.950 . S
H511 C531 0.950 . S
H512 C533 0.950 . S
H513 C536 0.950 . S
H514 C537 0.950 . S
H515 C539 0.950 . S
H516 C540 0.950 . S
H517 C541 0.951 . S
H518 C543 0.951 . S
H519 C545 0.950 . S
H520 C546 0.950 . S
H521 C548 0.950 . S
H522 C551 0.950 . S
H523 C552 0.950 . S
H524 C554 0.950 . S
H525 C555 0.950 . S
C526 H508 0.951 . S
C526 C527 1.366 . S
C526 C528 1.388 . S
C527 C526 1.366 . S
C527 C531 1.385 . S
C528 H509 0.951 . S
C528 C526 1.388 . S
C528 C529 1.366 . S
C529 C528 1.366 . S
C529 C530 1.414 . S
C529 C532 1.499 . S
C530 H510 0.950 . S
C530 C529 1.414 . S
C530 C531 1.374 . S
C531 H511 0.950 . S
C531 C527 1.385 . S
C531 C530 1.374 . S
C532 C529 1.499 . S
C532 C533 1.373 . S
C532 C534 1.389 . S
C533 H512 0.950 . S
C533 C532 1.373 . S
C533 C549 1.377 . S
C534 C532 1.389 . S
C534 C535 1.524 . S
C534 C548 1.377 . S
C535 C534 1.524 . S
C535 C536 1.397 . S
C535 C540 1.363 . S
C536 H513 0.950 . S
C536 C535 1.397 . S
C536 C537 1.334 . S
C537 H514 0.950 . S
C537 C536 1.334 . S
C537 C538 1.287 . S
C538 C537 1.287 . S
C538 C539 1.524 . S
C538 H557 0.913 . S
C539 H515 0.950 . S
C539 C538 1.524 . S
C539 C540 1.415 . S
C540 H516 0.950 . S
C540 C535 1.363 . S
C540 C539 1.415 . S
C541 H517 0.951 . S
C541 C542 1.366 . S
C541 C543 1.388 . S
C542 C541 1.366 . S
C542 C546 1.385 1_556 S
C543 H518 0.951 . S
C543 C541 1.388 . S
C543 C544 1.366 . S
C544 C543 1.366 . S
C544 C545 1.414 . S
C544 C547 1.499 . S
C545 H519 0.950 . S
C545 C544 1.414 . S
C545 C546 1.374 1_556 S
C546 H520 0.950 . S
C546 C542 1.385 1_554 S
C546 C545 1.374 1_554 S
C547 C544 1.499 . S
C547 C548 1.373 . S
C547 C549 1.389 . S
C548 H521 0.950 . S
C548 C534 1.377 . S
C548 C547 1.373 . S
C549 C533 1.377 . S
C549 C547 1.389 . S
C549 C550 1.524 . S
C550 C549 1.524 . S
C550 C551 1.397 . S
C550 C555 1.363 . S
C551 H522 0.950 . S
C551 C550 1.397 . S
C551 C552 1.334 . S
C552 H523 0.950 . S
C552 C551 1.334 . S
C552 C553 1.287 . S
C553 C552 1.287 . S
C553 C554 1.524 . S
C553 H556 0.999 . S
C554 H524 0.950 . S
C554 C553 1.524 . S
C554 C555 1.415 . S
C555 H525 0.950 . S
C555 C550 1.363 . S
C555 C554 1.415 . S
H556 C553 0.999 . S
H557 C538 0.913 . S
H558 C576 0.971 . S
H559 C578 0.951 . S
H560 C580 0.950 . S
H561 C581 0.950 . S
H562 C583 0.950 . S
H563 C586 0.950 . S
H564 C587 0.950 1_556 S
H565 C589 0.950 . S
H566 C590 0.950 . S
H567 C591 0.951 . S
H568 C593 0.951 . S
H569 C595 0.950 . S
H570 C596 0.950 . S
H571 C598 0.950 . S
H572 C601 0.950 . S
H573 C602 0.950 . S
H574 C604 0.950 . S
H575 C605 0.950 . S
C576 H558 0.971 . S
C576 C577 1.362 1_556 S
C576 C578 1.372 1_556 S
C577 C576 1.362 1_554 S
C577 C581 1.385 . S
C578 H559 0.951 . S
C578 C576 1.372 1_554 S
C578 C579 1.366 . S
C579 C578 1.366 . S
C579 C580 1.414 . S
C579 C582 1.499 . S
C580 H560 0.950 . S
C580 C579 1.414 . S
C580 C581 1.374 . S
C581 H561 0.950 . S
C581 C577 1.385 . S
C581 C580 1.374 . S
C582 C579 1.499 . S
C582 C583 1.373 . S
C582 C584 1.389 . S
C583 H562 0.950 . S
C583 C582 1.373 . S
C583 C599 1.377 . S
C584 C582 1.389 . S
C584 C585 1.524 . S
C584 C598 1.377 . S
C585 C584 1.524 . S
C585 C586 1.397 . S
C585 C590 1.363 . S
C586 H563 0.950 . S
C586 C585 1.397 . S
C586 C587 1.334 . S
C587 H564 0.950 1_554 S
C587 C586 1.334 . S
C587 C588 1.287 1_554 S
C588 C587 1.287 1_556 S
C588 C589 1.524 . S
C588 H607 0.913 . S
C589 H565 0.950 . S
C589 C588 1.524 . S
C589 C590 1.415 1_556 S
C590 H566 0.950 . S
C590 C585 1.363 . S
C590 C589 1.415 1_554 S
C591 H567 0.951 . S
C591 C592 1.366 . S
C591 C593 1.388 . S
C592 C591 1.366 . S
C592 C596 1.385 . S
C593 H568 0.951 . S
C593 C591 1.388 . S
C593 C594 1.366 . S
C594 C593 1.366 . S
C594 C595 1.414 . S
C594 C597 1.499 . S
C595 H569 0.950 . S
C595 C594 1.414 . S
C595 C596 1.374 . S
C596 H570 0.950 . S
C596 C592 1.385 . S
C596 C595 1.374 . S
C597 C594 1.499 . S
C597 C598 1.373 . S
C597 C599 1.389 . S
C598 H571 0.950 . S
C598 C584 1.377 . S
C598 C597 1.373 . S
C599 C583 1.377 . S
C599 C597 1.389 . S
C599 C600 1.524 . S
C600 C599 1.524 . S
C600 C601 1.397 . S
C600 C605 1.363 . S
C601 H572 0.950 . S
C601 C600 1.397 . S
C601 C602 1.334 . S
C602 H573 0.950 . S
C602 C601 1.334 . S
C602 C603 1.287 . S
C603 C602 1.287 . S
C603 C604 1.524 . S
C603 H606 0.999 . S
C604 H574 0.950 . S
C604 C603 1.524 . S
C604 C605 1.415 . S
C605 H575 0.950 . S
C605 C600 1.363 . S
C605 C604 1.415 . S
H606 C603 0.999 . S
H607 C588 0.913 . S
H608 C626 0.951 . S
H609 C628 0.951 . S
H610 C630 0.950 . S
H611 C631 0.950 . S
H612 C633 0.950 . S
H613 C636 0.950 . S
H614 C637 0.950 . S
H615 C639 0.950 . S
H616 C640 0.950 . S
H617 C641 0.951 . S
H618 C643 0.951 . S
H619 C645 0.950 . S
H620 C646 0.950 . S
H621 C648 0.950 . S
H622 C651 0.950 . S
H623 C652 0.950 . S
H624 C654 0.950 . S
H625 C655 0.950 . S
C626 H608 0.951 . S
C626 C627 1.366 . S
C626 C628 1.388 . S
C627 C626 1.366 . S
C627 C631 1.385 . S
C628 H609 0.951 . S
C628 C626 1.388 . S
C628 C629 1.366 . S
C629 C628 1.366 . S
C629 C630 1.414 . S
C629 C632 1.499 . S
C630 H610 0.950 . S
C630 C629 1.414 . S
C630 C631 1.374 . S
C631 H611 0.950 . S
C631 C627 1.385 . S
C631 C630 1.374 . S
C632 C629 1.499 . S
C632 C633 1.373 . S
C632 C634 1.389 . S
C633 H612 0.950 . S
C633 C632 1.373 . S
C633 C649 1.377 . S
C634 C632 1.389 . S
C634 C635 1.524 . S
C634 C648 1.377 . S
C635 C634 1.524 . S
C635 C636 1.397 . S
C635 C640 1.363 . S
C636 H613 0.950 . S
C636 C635 1.397 . S
C636 C637 1.334 . S
C637 H614 0.950 . S
C637 C636 1.334 . S
C637 C638 1.287 . S
C638 C637 1.287 . S
C638 C639 1.524 . S
C638 H657 0.913 . S
C639 H615 0.950 . S
C639 C638 1.524 . S
C639 C640 1.415 . S
C640 H616 0.950 . S
C640 C635 1.363 . S
C640 C639 1.415 . S
C641 H617 0.951 . S
C641 C642 1.366 . S
C641 C643 1.388 . S
C642 C641 1.366 . S
C642 C646 1.385 . S
C643 H618 0.951 . S
C643 C641 1.388 . S
C643 C644 1.366 . S
C644 C643 1.366 . S
C644 C645 1.414 . S
C644 C647 1.499 . S
C645 H619 0.950 . S
C645 C644 1.414 . S
C645 C646 1.374 . S
C646 H620 0.950 . S
C646 C642 1.385 . S
C646 C645 1.374 . S
C647 C644 1.499 . S
C647 C648 1.373 . S
C647 C649 1.389 . S
C648 H621 0.950 . S
C648 C634 1.377 . S
C648 C647 1.373 . S
C649 C633 1.377 . S
C649 C647 1.389 . S
C649 C650 1.524 . S
C650 C649 1.524 . S
C650 C651 1.397 . S
C650 C655 1.363 . S
C651 H622 0.950 . S
C651 C650 1.397 . S
C651 C652 1.334 . S
C652 H623 0.950 . S
C652 C651 1.334 . S
C652 C653 1.287 . S
C653 C652 1.287 . S
C653 C654 1.524 . S
C653 H656 0.999 . S
C654 H624 0.950 . S
C654 C653 1.524 . S
C654 C655 1.415 . S
C655 H625 0.950 . S
C655 C650 1.363 . S
C655 C654 1.415 . S
H656 C653 0.999 . S
H657 C638 0.913 . S
H658 C676 0.951 . S
H659 C678 0.951 . S
H660 C680 0.950 . S
H661 C681 0.950 . S
H662 C683 0.950 . S
H663 C686 0.950 . S
H664 C687 0.950 . S
H665 C689 0.950 . S
H666 C690 0.950 . S
H667 C691 0.951 . S
H668 C693 0.951 . S
H669 C695 0.950 . S
H670 C696 0.950 . S
H671 C698 0.950 . S
H672 C701 0.950 . S
H673 C702 0.950 . S
H674 C704 0.950 . S
H675 C705 0.950 . S
C676 H658 0.951 . S
C676 C677 1.366 . S
C676 C678 1.388 . S
C677 C676 1.366 . S
C677 C681 1.385 . S
C678 H659 0.951 . S
C678 C676 1.388 . S
C678 C679 1.366 . S
C679 C678 1.366 . S
C679 C680 1.414 . S
C679 C682 1.499 . S
C680 H660 0.950 . S
C680 C679 1.414 . S
C680 C681 1.374 . S
C681 H661 0.950 . S
C681 C677 1.385 . S
C681 C680 1.374 . S
C682 C679 1.499 . S
C682 C683 1.373 . S
C682 C684 1.389 . S
C683 H662 0.950 . S
C683 C682 1.373 . S
C683 C699 1.377 . S
C684 C682 1.389 . S
C684 C685 1.524 . S
C684 C698 1.377 . S
C685 C684 1.524 . S
C685 C686 1.397 . S
C685 C690 1.363 . S
C686 H663 0.950 . S
C686 C685 1.397 . S
C686 C687 1.334 . S
C687 H664 0.950 . S
C687 C686 1.334 . S
C687 C688 1.287 . S
C688 C687 1.287 . S
C688 C689 1.524 . S
C688 H707 0.913 . S
C689 H665 0.950 . S
C689 C688 1.524 . S
C689 C690 1.415 . S
C690 H666 0.950 . S
C690 C685 1.363 . S
C690 C689 1.415 . S
C691 H667 0.951 . S
C691 C692 1.366 . S
C691 C693 1.388 . S
C692 C691 1.366 . S
C692 C696 1.385 . S
C693 H668 0.951 . S
C693 C691 1.388 . S
C693 C694 1.366 . S
C694 C693 1.366 . S
C694 C695 1.414 . S
C694 C697 1.499 . S
C695 H669 0.950 . S
C695 C694 1.414 . S
C695 C696 1.374 . S
C696 H670 0.950 . S
C696 C692 1.385 . S
C696 C695 1.374 . S
C697 C694 1.499 . S
C697 C698 1.373 . S
C697 C699 1.389 . S
C698 H671 0.950 . S
C698 C684 1.377 . S
C698 C697 1.373 . S
C699 C683 1.377 . S
C699 C697 1.389 . S
C699 C700 1.524 . S
C700 C699 1.524 . S
C700 C701 1.397 . S
C700 C705 1.363 . S
C701 H672 0.950 . S
C701 C700 1.397 . S
C701 C702 1.334 . S
C702 H673 0.950 . S
C702 C701 1.334 . S
C702 C703 1.287 . S
C703 C702 1.287 . S
C703 C704 1.524 . S
C703 H706 0.999 . S
C704 H674 0.950 . S
C704 C703 1.524 . S
C704 C705 1.415 . S
C705 H675 0.950 . S
C705 C700 1.363 . S
C705 C704 1.415 . S
H706 C703 0.999 . S
H707 C688 0.913 . S
H708 C726 0.951 . S
H709 C728 0.951 . S
H710 C730 0.950 . S
H711 C731 0.950 . S
H712 C733 0.950 . S
H713 C736 0.950 . S
H714 C737 0.950 . S
H715 C739 0.950 . S
H716 C740 0.950 . S
H717 C741 0.951 . S
H718 C743 0.951 . S
H719 C745 0.950 . S
H720 C746 0.950 . S
H721 C748 0.950 . S
H722 C751 0.950 . S
H723 C752 0.950 . S
H724 C754 0.950 . S
H725 C755 0.950 . S
C726 H708 0.951 . S
C726 C727 1.366 . S
C726 C728 1.388 . S
C727 C726 1.366 . S
C727 C731 1.385 . S
C728 H709 0.951 . S
C728 C726 1.388 . S
C728 C729 1.366 . S
C729 C728 1.366 . S
C729 C730 1.414 . S
C729 C732 1.499 . S
C730 H710 0.950 . S
C730 C729 1.414 . S
C730 C731 1.374 . S
C731 H711 0.950 . S
C731 C727 1.385 . S
C731 C730 1.374 . S
C732 C729 1.499 . S
C732 C733 1.373 . S
C732 C734 1.389 . S
C733 H712 0.950 . S
C733 C732 1.373 . S
C733 C749 1.377 . S
C734 C732 1.389 . S
C734 C735 1.524 . S
C734 C748 1.377 . S
C735 C734 1.524 . S
C735 C736 1.397 . S
C735 C740 1.363 . S
C736 H713 0.950 . S
C736 C735 1.397 . S
C736 C737 1.334 . S
C737 H714 0.950 . S
C737 C736 1.334 . S
C737 C738 1.287 . S
C738 C737 1.287 . S
C738 C739 1.524 . S
C738 H757 0.913 . S
C739 H715 0.950 . S
C739 C738 1.524 . S
C739 C740 1.415 . S
C740 H716 0.950 . S
C740 C735 1.363 . S
C740 C739 1.415 . S
C741 H717 0.951 . S
C741 C742 1.366 . S
C741 C743 1.388 . S
C742 C741 1.366 . S
C742 C746 1.385 . S
C743 H718 0.951 . S
C743 C741 1.388 . S
C743 C744 1.366 . S
C744 C743 1.366 . S
C744 C745 1.414 . S
C744 C747 1.499 . S
C745 H719 0.950 . S
C745 C744 1.414 . S
C745 C746 1.374 . S
C746 H720 0.950 . S
C746 C742 1.385 . S
C746 C745 1.374 . S
C747 C744 1.499 . S
C747 C748 1.373 . S
C747 C749 1.389 . S
C748 H721 0.950 . S
C748 C734 1.377 . S
C748 C747 1.373 . S
C749 C733 1.377 . S
C749 C747 1.389 . S
C749 C750 1.524 . S
C750 C749 1.524 . S
C750 C751 1.397 . S
C750 C755 1.363 . S
C751 H722 0.950 . S
C751 C750 1.397 . S
C751 C752 1.334 . S
C752 H723 0.950 . S
C752 C751 1.334 . S
C752 C753 1.287 . S
C753 C752 1.287 . S
C753 C754 1.524 . S
C753 H756 0.999 . S
C754 H724 0.950 . S
C754 C753 1.524 . S
C754 C755 1.415 . S
C755 H725 0.950 . S
C755 C750 1.363 . S
C755 C754 1.415 . S
H756 C753 0.999 . S
H757 C738 0.913 . S
H758 C776 0.951 . S
H759 C778 0.951 . S
H760 C780 0.950 . S
H761 C781 0.950 . S
H762 C783 0.950 . S
H763 C786 0.950 . S
H764 C787 0.950 . S
H765 C789 0.950 . S
H766 C790 0.950 . S
H767 C791 0.951 . S
H768 C793 0.951 . S
H769 C795 0.950 . S
H770 C796 0.950 . S
H771 C798 0.950 . S
H772 C801 0.950 . S
H773 C802 0.950 . S
H774 C804 0.950 . S
H775 C805 0.950 . S
C776 H758 0.951 . S
C776 C777 1.366 . S
C776 C778 1.388 . S
C777 C776 1.366 . S
C777 C781 1.385 . S
C778 H759 0.951 . S
C778 C776 1.388 . S
C778 C779 1.366 . S
C779 C778 1.366 . S
C779 C780 1.414 . S
C779 C782 1.499 . S
C780 H760 0.950 . S
C780 C779 1.414 . S
C780 C781 1.374 . S
C781 H761 0.950 . S
C781 C777 1.385 . S
C781 C780 1.374 . S
C782 C779 1.499 . S
C782 C783 1.373 . S
C782 C784 1.389 . S
C783 H762 0.950 . S
C783 C782 1.373 . S
C783 C799 1.377 . S
C784 C782 1.389 . S
C784 C785 1.524 . S
C784 C798 1.377 . S
C785 C784 1.524 . S
C785 C786 1.397 . S
C785 C790 1.363 . S
C786 H763 0.950 . S
C786 C785 1.397 . S
C786 C787 1.334 . S
C787 H764 0.950 . S
C787 C786 1.334 . S
C787 C788 1.287 . S
C788 C787 1.287 . S
C788 C789 1.524 . S
C788 H807 0.913 . S
C789 H765 0.950 . S
C789 C788 1.524 . S
C789 C790 1.415 . S
C790 H766 0.950 . S
C790 C785 1.363 . S
C790 C789 1.415 . S
C791 H767 0.951 . S
C791 C792 1.366 . S
C791 C793 1.388 . S
C792 C791 1.366 . S
C792 C796 1.385 . S
C793 H768 0.951 . S
C793 C791 1.388 . S
C793 C794 1.366 . S
C794 C793 1.366 . S
C794 C795 1.414 . S
C794 C797 1.499 . S
C795 H769 0.950 . S
C795 C794 1.414 . S
C795 C796 1.374 . S
C796 H770 0.950 . S
C796 C792 1.385 . S
C796 C795 1.374 . S
C797 C794 1.499 . S
C797 C798 1.373 . S
C797 C799 1.389 . S
C798 H771 0.950 . S
C798 C784 1.377 . S
C798 C797 1.373 . S
C799 C783 1.377 . S
C799 C797 1.389 . S
C799 C800 1.524 . S
C800 C799 1.524 . S
C800 C801 1.397 . S
C800 C805 1.363 . S
C801 H772 0.950 . S
C801 C800 1.397 . S
C801 C802 1.334 . S
C802 H773 0.950 . S
C802 C801 1.334 . S
C802 C803 1.287 . S
C803 C802 1.287 . S
C803 C804 1.524 . S
C803 H806 0.999 . S
C804 H774 0.950 . S
C804 C803 1.524 . S
C804 C805 1.415 . S
C805 H775 0.950 . S
C805 C800 1.363 . S
C805 C804 1.415 . S
H806 C803 0.999 . S
H807 C788 0.913 . S
H808 C826 0.951 . S
H809 C828 0.951 . S
H810 C830 0.950 . S
H811 C831 0.950 . S
H812 C833 0.950 . S
H813 C836 0.950 . S
H814 C837 0.950 . S
H815 C839 0.950 . S
H816 C840 0.950 . S
H817 C841 0.951 . S
H818 C843 0.951 . S
H819 C845 0.950 . S
H820 C846 0.950 . S
H821 C848 0.950 . S
H822 C851 0.950 . S
H823 C852 0.950 . S
H824 C854 0.950 . S
H825 C855 0.950 . S
C826 H808 0.951 . S
C826 C827 1.366 . S
C826 C828 1.388 . S
C827 C826 1.366 . S
C827 C831 1.385 . S
C828 H809 0.951 . S
C828 C826 1.388 . S
C828 C829 1.366 . S
C829 C828 1.366 . S
C829 C830 1.414 . S
C829 C832 1.499 . S
C830 H810 0.950 . S
C830 C829 1.414 . S
C830 C831 1.374 . S
C831 H811 0.950 . S
C831 C827 1.385 . S
C831 C830 1.374 . S
C832 C829 1.499 . S
C832 C833 1.373 . S
C832 C834 1.389 . S
C833 H812 0.950 . S
C833 C832 1.373 . S
C833 C849 1.377 . S
C834 C832 1.389 . S
C834 C835 1.524 . S
C834 C848 1.377 . S
C835 C834 1.524 . S
C835 C836 1.397 . S
C835 C840 1.363 . S
C836 H813 0.950 . S
C836 C835 1.397 . S
C836 C837 1.334 . S
C837 H814 0.950 . S
C837 C836 1.334 . S
C837 C838 1.287 . S
C838 C837 1.287 . S
C838 C839 1.524 . S
C838 H857 0.913 . S
C839 H815 0.950 . S
C839 C838 1.524 . S
C839 C840 1.415 . S
C840 H816 0.950 . S
C840 C835 1.363 . S
C840 C839 1.415 . S
C841 H817 0.951 . S
C841 C842 1.366 . S
C841 C843 1.388 . S
C842 C841 1.366 . S
C842 C846 1.385 . S
C843 H818 0.951 . S
C843 C841 1.388 . S
C843 C844 1.366 . S
C844 C843 1.366 . S
C844 C845 1.414 . S
C844 C847 1.499 . S
C845 H819 0.950 . S
C845 C844 1.414 . S
C845 C846 1.374 . S
C846 H820 0.950 . S
C846 C842 1.385 . S
C846 C845 1.374 . S
C847 C844 1.499 . S
C847 C848 1.373 . S
C847 C849 1.389 . S
C848 H821 0.950 . S
C848 C834 1.377 . S
C848 C847 1.373 . S
C849 C833 1.377 . S
C849 C847 1.389 . S
C849 C850 1.524 . S
C850 C849 1.524 . S
C850 C851 1.397 . S
C850 C855 1.363 . S
C851 H822 0.950 . S
C851 C850 1.397 . S
C851 C852 1.334 . S
C852 H823 0.950 . S
C852 C851 1.334 . S
C852 C853 1.287 . S
C853 C852 1.287 . S
C853 C854 1.524 . S
C853 H856 0.999 . S
C854 H824 0.950 . S
C854 C853 1.524 . S
C854 C855 1.415 . S
C855 H825 0.950 . S
C855 C850 1.363 . S
C855 C854 1.415 . S
H856 C853 0.999 . S
H857 C838 0.913 . S
H858 C876 0.951 . S
H859 C878 0.951 . S
H860 C880 0.950 . S
H861 C881 0.950 . S
H862 C883 0.950 . S
H863 C886 0.950 . S
H864 C887 0.950 . S
H865 C889 0.950 . S
H866 C890 0.950 . S
H867 C891 0.951 . S
H868 C893 0.951 . S
H869 C895 0.950 . S
H870 C896 0.950 . S
H871 C898 0.950 . S
H872 C901 0.950 . S
H873 C902 0.950 . S
H874 C904 0.950 . S
H875 C905 0.950 . S
C876 H858 0.951 . S
C876 C877 1.366 . S
C876 C878 1.388 . S
C877 C876 1.366 . S
C877 C881 1.385 . S
C878 H859 0.951 . S
C878 C876 1.388 . S
C878 C879 1.366 . S
C879 C878 1.366 . S
C879 C880 1.414 . S
C879 C882 1.499 . S
C880 H860 0.950 . S
C880 C879 1.414 . S
C880 C881 1.374 . S
C881 H861 0.950 . S
C881 C877 1.385 . S
C881 C880 1.374 . S
C882 C879 1.499 . S
C882 C883 1.373 . S
C882 C884 1.389 . S
C883 H862 0.950 . S
C883 C882 1.373 . S
C883 C899 1.377 . S
C884 C882 1.389 . S
C884 C885 1.524 . S
C884 C898 1.377 . S
C885 C884 1.524 . S
C885 C886 1.397 . S
C885 C890 1.363 . S
C886 H863 0.950 . S
C886 C885 1.397 . S
C886 C887 1.334 . S
C887 H864 0.950 . S
C887 C886 1.334 . S
C887 C888 1.287 . S
C888 C887 1.287 . S
C888 C889 1.524 . S
C888 H907 0.913 . S
C889 H865 0.950 . S
C889 C888 1.524 . S
C889 C890 1.415 . S
C890 H866 0.950 . S
C890 C885 1.363 . S
C890 C889 1.415 . S
C891 H867 0.951 . S
C891 C892 1.366 . S
C891 C893 1.388 . S
C892 C891 1.366 . S
C892 C896 1.385 . S
C893 H868 0.951 . S
C893 C891 1.388 . S
C893 C894 1.366 . S
C894 C893 1.366 . S
C894 C895 1.414 . S
C894 C897 1.499 . S
C895 H869 0.950 . S
C895 C894 1.414 . S
C895 C896 1.374 . S
C896 H870 0.950 . S
C896 C892 1.385 . S
C896 C895 1.374 . S
C897 C894 1.499 . S
C897 C898 1.373 . S
C897 C899 1.389 . S
C898 H871 0.950 . S
C898 C884 1.377 . S
C898 C897 1.373 . S
C899 C883 1.377 . S
C899 C897 1.389 . S
C899 C900 1.524 . S
C900 C899 1.524 . S
C900 C901 1.397 . S
C900 C905 1.363 . S
C901 H872 0.950 . S
C901 C900 1.397 . S
C901 C902 1.334 . S
C902 H873 0.950 . S
C902 C901 1.334 . S
C902 C903 1.287 . S
C903 C902 1.287 . S
C903 C904 1.524 . S
C903 H906 0.999 . S
C904 H874 0.950 . S
C904 C903 1.524 . S
C904 C905 1.415 . S
C905 H875 0.950 . S
C905 C900 1.363 . S
C905 C904 1.415 . S
H906 C903 0.999 . S
H907 C888 0.913 . S
H908 C926 0.951 . S
H909 C928 0.951 . S
H910 C930 0.950 . S
H911 C931 0.950 . S
H912 C933 0.950 . S
H913 C936 0.950 . S
H914 C937 0.950 . S
H915 C939 0.950 . S
H916 C940 0.950 . S
H917 C941 0.951 . S
H918 C943 0.951 . S
H919 C945 0.950 . S
H920 C946 0.960 . S
H921 C948 0.950 . S
H922 C951 0.950 . S
H923 C952 0.950 . S
H924 C954 0.950 . S
H925 C955 0.950 . S
C926 H908 0.951 . S
C926 C927 1.366 . S
C926 C928 1.388 . S
C927 C926 1.366 . S
C927 C931 1.385 . S
C928 H909 0.951 . S
C928 C926 1.388 . S
C928 C929 1.366 . S
C929 C928 1.366 . S
C929 C930 1.414 . S
C929 C932 1.499 . S
C930 H910 0.950 . S
C930 C929 1.414 . S
C930 C931 1.374 . S
C931 H911 0.950 . S
C931 C927 1.385 . S
C931 C930 1.374 . S
C932 C929 1.499 . S
C932 C933 1.373 1_556 S
C932 C934 1.389 . S
C933 H912 0.950 . S
C933 C932 1.373 1_554 S
C933 C949 1.377 . S
C934 C932 1.389 . S
C934 C935 1.524 . S
C934 C948 1.377 . S
C935 C934 1.524 . S
C935 C936 1.397 . S
C935 C940 1.363 . S
C936 H913 0.950 . S
C936 C935 1.397 . S
C936 C937 1.334 . S
C937 H914 0.950 . S
C937 C936 1.334 . S
C937 C938 1.287 . S
C938 C937 1.287 . S
C938 C939 1.524 . S
C938 H957 0.913 . S
C939 H915 0.950 . S
C939 C938 1.524 . S
C939 C940 1.415 . S
C940 H916 0.950 . S
C940 C935 1.363 . S
C940 C939 1.415 . S
C941 H917 0.951 . S
C941 C942 1.366 . S
C941 C943 1.388 . S
C942 C941 1.366 . S
C942 C946 1.385 . S
C943 H918 0.951 . S
C943 C941 1.388 . S
C943 C944 1.366 . S
C944 C943 1.366 . S
C944 C945 1.414 1_554 S
C944 C947 1.499 1_554 S
C945 H919 0.950 . S
C945 C944 1.414 1_556 S
C945 C946 1.374 1_556 S
C946 H920 0.960 . S
C946 C942 1.385 . S
C946 C945 1.374 1_554 S
C947 C944 1.499 1_556 S
C947 C948 1.373 . S
C947 C949 1.389 1_556 S
C948 H921 0.950 . S
C948 C934 1.377 . S
C948 C947 1.373 . S
C949 C933 1.377 . S
C949 C947 1.389 1_554 S
C949 C950 1.524 . S
C950 C949 1.524 . S
C950 C951 1.397 . S
C950 C955 1.363 . S
C951 H922 0.950 . S
C951 C950 1.397 . S
C951 C952 1.334 . S
C952 H923 0.950 . S
C952 C951 1.334 . S
C952 C953 1.287 . S
C953 C952 1.287 . S
C953 C954 1.524 . S
C953 H956 0.999 . S
C954 H924 0.950 . S
C954 C953 1.524 . S
C954 C955 1.415 . S
C955 H925 0.950 . S
C955 C950 1.363 . S
C955 C954 1.415 . S
H956 C953 0.999 . S
H957 C938 0.913 . S
H958 C976 0.951 . S
H959 C978 0.951 . S
H960 C980 0.950 . S
H961 C981 0.950 . S
H962 C983 0.950 . S
H963 C986 0.950 . S
H964 C987 0.950 . S
H965 C989 0.950 . S
H966 C990 0.950 . S
H967 C991 0.951 . S
H968 C993 0.951 . S
H969 C995 0.950 . S
H970 C996 0.950 . S
H971 C998 0.950 . S
H972 C1001 0.950 . S
H973 C1002 0.950 . S
H974 C1004 0.950 . S
H975 C1005 0.950 . S
C976 H958 0.951 . S
C976 C977 1.366 . S
C976 C978 1.388 . S
C977 C976 1.366 . S
C977 C981 1.385 . S
C978 H959 0.951 . S
C978 C976 1.388 . S
C978 C979 1.366 . S
C979 C978 1.366 . S
C979 C980 1.414 . S
C979 C982 1.499 . S
C980 H960 0.950 . S
C980 C979 1.414 . S
C980 C981 1.374 . S
C981 H961 0.950 . S
C981 C977 1.385 . S
C981 C980 1.374 . S
C982 C979 1.499 . S
C982 C983 1.373 . S
C982 C984 1.389 . S
C983 H962 0.950 . S
C983 C982 1.373 . S
C983 C999 1.377 . S
C984 C982 1.389 . S
C984 C985 1.524 . S
C984 C998 1.377 . S
C985 C984 1.524 . S
C985 C986 1.397 . S
C985 C990 1.363 . S
C986 H963 0.950 . S
C986 C985 1.397 . S
C986 C987 1.334 . S
C987 H964 0.950 . S
C987 C986 1.334 . S
C987 C988 1.287 . S
C988 C987 1.287 . S
C988 C989 1.524 . S
C988 H1007 0.913 . S
C989 H965 0.950 . S
C989 C988 1.524 . S
C989 C990 1.415 . S
C990 H966 0.950 . S
C990 C985 1.363 . S
C990 C989 1.415 . S
C991 H967 0.951 . S
C991 C992 1.366 . S
C991 C993 1.388 . S
C992 C991 1.366 . S
C992 C996 1.385 . S
C993 H968 0.951 . S
C993 C991 1.388 . S
C993 C994 1.366 . S
C994 C993 1.366 . S
C994 C995 1.414 . S
C994 C997 1.499 . S
C995 H969 0.950 . S
C995 C994 1.414 . S
C995 C996 1.374 . S
C996 H970 0.950 . S
C996 C992 1.385 . S
C996 C995 1.374 . S
C997 C994 1.499 . S
C997 C998 1.373 . S
C997 C999 1.389 . S
C998 H971 0.950 . S
C998 C984 1.377 . S
C998 C997 1.373 . S
C999 C983 1.377 . S
C999 C997 1.389 . S
C999 C1000 1.524 . S
C1000 C999 1.524 . S
C1000 C1001 1.397 . S
C1000 C1005 1.363 . S
C1001 H972 0.950 . S
C1001 C1000 1.397 . S
C1001 C1002 1.334 . S
C1002 H973 0.950 . S
C1002 C1001 1.334 . S
C1002 C1003 1.287 . S
C1003 C1002 1.287 . S
C1003 C1004 1.524 . S
C1003 H1006 0.999 . S
C1004 H974 0.950 . S
C1004 C1003 1.524 . S
C1004 C1005 1.415 . S
C1005 H975 0.950 . S
C1005 C1000 1.363 . S
C1005 C1004 1.415 . S
H1006 C1003 0.999 . S
H1007 C988 0.913 . S
H1008 C1026 0.951 . S
H1009 C1028 0.951 . S
H1010 C1030 0.950 . S
H1011 C1031 0.950 . S
H1012 C1033 0.950 . S
H1013 C1036 0.950 . S
H1014 C1037 0.950 . S
H1015 C1039 0.950 . S
H1016 C1040 0.950 . S
H1017 C1041 0.951 . S
H1018 C1043 0.951 . S
H1019 C1045 0.950 . S
H1020 C1046 0.950 . S
H1021 C1048 0.950 . S
H1022 C1051 0.950 . S
H1023 C1052 0.950 . S
H1024 C1054 0.950 . S
H1025 C1055 0.950 . S
C1026 H1008 0.951 . S
C1026 C1027 1.366 . S
C1026 C1028 1.388 . S
C1027 C1026 1.366 . S
C1027 C1031 1.385 . S
C1028 H1009 0.951 . S
C1028 C1026 1.388 . S
C1028 C1029 1.366 . S
C1029 C1028 1.366 . S
C1029 C1030 1.414 . S
C1029 C1032 1.499 . S
C1030 H1010 0.950 . S
C1030 C1029 1.414 . S
C1030 C1031 1.374 . S
C1031 H1011 0.950 . S
C1031 C1027 1.385 . S
C1031 C1030 1.374 . S
C1032 C1029 1.499 . S
C1032 C1033 1.373 . S
C1032 C1034 1.389 . S
C1033 H1012 0.950 . S
C1033 C1032 1.373 . S
C1033 C1049 1.377 . S
C1034 C1032 1.389 . S
C1034 C1035 1.524 . S
C1034 C1048 1.377 . S
C1035 C1034 1.524 . S
C1035 C1036 1.397 . S
C1035 C1040 1.363 . S
C1036 H1013 0.950 . S
C1036 C1035 1.397 . S
C1036 C1037 1.334 . S
C1037 H1014 0.950 . S
C1037 C1036 1.334 . S
C1037 C1038 1.287 . S
C1038 C1037 1.287 . S
C1038 C1039 1.524 . S
C1038 H1057 0.913 . S
C1039 H1015 0.950 . S
C1039 C1038 1.524 . S
C1039 C1040 1.415 . S
C1040 H1016 0.950 . S
C1040 C1035 1.363 . S
C1040 C1039 1.415 . S
C1041 H1017 0.951 . S
C1041 C1042 1.366 . S
C1041 C1043 1.388 . S
C1042 C1041 1.366 . S
C1042 C1046 1.385 . S
C1043 H1018 0.951 . S
C1043 C1041 1.388 . S
C1043 C1044 1.366 . S
C1044 C1043 1.366 . S
C1044 C1045 1.414 . S
C1044 C1047 1.499 . S
C1045 H1019 0.950 . S
C1045 C1044 1.414 . S
C1045 C1046 1.374 . S
C1046 H1020 0.950 . S
C1046 C1042 1.385 . S
C1046 C1045 1.374 . S
C1047 C1044 1.499 . S
C1047 C1048 1.373 . S
C1047 C1049 1.389 . S
C1048 H1021 0.950 . S
C1048 C1034 1.377 . S
C1048 C1047 1.373 . S
C1049 C1033 1.377 . S
C1049 C1047 1.389 . S
C1049 C1050 1.524 . S
C1050 C1049 1.524 . S
C1050 C1051 1.397 . S
C1050 C1055 1.363 . S
C1051 H1022 0.950 . S
C1051 C1050 1.397 . S
C1051 C1052 1.334 . S
C1052 H1023 0.950 . S
C1052 C1051 1.334 . S
C1052 C1053 1.287 . S
C1053 C1052 1.287 . S
C1053 C1054 1.524 . S
C1053 H1056 0.999 . S
C1054 H1024 0.950 . S
C1054 C1053 1.524 . S
C1054 C1055 1.415 . S
C1055 H1025 0.950 . S
C1055 C1050 1.363 . S
C1055 C1054 1.415 . S
H1056 C1053 0.999 . S
H1057 C1038 0.913 . S
H1058 C1076 0.951 . S
H1059 C1078 0.951 . S
H1060 C1080 0.950 . S
H1061 C1081 0.950 . S
H1062 C1083 0.950 . S
H1063 C1086 0.950 . S
H1064 C1087 0.950 . S
H1065 C1089 0.950 . S
H1066 C1090 0.950 . S
H1067 C1091 0.951 . S
H1068 C1093 0.951 . S
H1069 C1095 0.950 . S
H1070 C1096 0.950 . S
H1071 C1098 0.950 . S
H1072 C1101 0.950 . S
H1073 C1102 0.950 . S
H1074 C1104 0.950 . S
H1075 C1105 0.950 . S
C1076 H1058 0.951 . S
C1076 C1077 1.366 . S
C1076 C1078 1.388 . S
C1077 C1076 1.366 . S
C1077 C1081 1.385 . S
C1078 H1059 0.951 . S
C1078 C1076 1.388 . S
C1078 C1079 1.366 . S
C1079 C1078 1.366 . S
C1079 C1080 1.414 . S
C1079 C1082 1.499 . S
C1080 H1060 0.950 . S
C1080 C1079 1.414 . S
C1080 C1081 1.374 . S
C1081 H1061 0.950 . S
C1081 C1077 1.385 . S
C1081 C1080 1.374 . S
C1082 C1079 1.499 . S
C1082 C1083 1.373 . S
C1082 C1084 1.389 . S
C1083 H1062 0.950 . S
C1083 C1082 1.373 . S
C1083 C1099 1.377 . S
C1084 C1082 1.389 . S
C1084 C1085 1.524 . S
C1084 C1098 1.377 . S
C1085 C1084 1.524 . S
C1085 C1086 1.397 . S
C1085 C1090 1.363 . S
C1086 H1063 0.950 . S
C1086 C1085 1.397 . S
C1086 C1087 1.334 . S
C1087 H1064 0.950 . S
C1087 C1086 1.334 . S
C1087 C1088 1.287 . S
C1088 C1087 1.287 . S
C1088 C1089 1.524 . S
C1088 H1107 0.913 . S
C1089 H1065 0.950 . S
C1089 C1088 1.524 . S
C1089 C1090 1.415 . S
C1090 H1066 0.950 . S
C1090 C1085 1.363 . S
C1090 C1089 1.415 . S
C1091 H1067 0.951 . S
C1091 C1092 1.366 . S
C1091 C1093 1.388 . S
C1092 C1091 1.366 . S
C1092 C1096 1.385 . S
C1093 H1068 0.951 . S
C1093 C1091 1.388 . S
C1093 C1094 1.366 . S
C1094 C1093 1.366 . S
C1094 C1095 1.414 . S
C1094 C1097 1.499 . S
C1095 H1069 0.950 . S
C1095 C1094 1.414 . S
C1095 C1096 1.374 . S
C1096 H1070 0.950 . S
C1096 C1092 1.385 . S
C1096 C1095 1.374 . S
C1097 C1094 1.499 . S
C1097 C1098 1.373 . S
C1097 C1099 1.389 . S
C1098 H1071 0.950 . S
C1098 C1084 1.377 . S
C1098 C1097 1.373 . S
C1099 C1083 1.377 . S
C1099 C1097 1.389 . S
C1099 C1100 1.524 . S
C1100 C1099 1.524 . S
C1100 C1101 1.397 . S
C1100 C1105 1.363 . S
C1101 H1072 0.950 . S
C1101 C1100 1.397 . S
C1101 C1102 1.334 . S
C1102 H1073 0.950 . S
C1102 C1101 1.334 . S
C1102 C1103 1.287 . S
C1103 C1102 1.287 . S
C1103 C1104 1.524 . S
C1103 H1106 0.999 . S
C1104 H1074 0.950 . S
C1104 C1103 1.524 . S
C1104 C1105 1.415 . S
C1105 H1075 0.950 . S
C1105 C1100 1.363 . S
C1105 C1104 1.415 . S
H1106 C1103 0.999 . S
H1107 C1088 0.913 . S
H1108 C1126 0.951 . S
H1109 C1128 0.951 . S
H1110 C1130 0.950 . S
H1111 C1131 0.950 . S
H1112 C1133 0.950 . S
H1113 C1136 0.950 . S
H1114 C1137 0.950 . S
H1115 C1139 0.950 . S
H1116 C1140 0.950 . S
H1117 C1141 0.951 . S
H1118 C1143 0.951 . S
H1119 C1145 0.950 . S
H1120 C1146 0.950 . S
H1121 C1148 0.950 . S
H1122 C1151 0.950 . S
H1123 C1152 0.950 . S
H1124 C1154 0.950 . S
H1125 C1155 0.950 . S
C1126 H1108 0.951 . S
C1126 C1127 1.366 . S
C1126 C1128 1.388 . S
C1127 C1126 1.366 . S
C1127 C1131 1.385 . S
C1128 H1109 0.951 . S
C1128 C1126 1.388 . S
C1128 C1129 1.366 . S
C1129 C1128 1.366 . S
C1129 C1130 1.414 . S
C1129 C1132 1.499 . S
C1130 H1110 0.950 . S
C1130 C1129 1.414 . S
C1130 C1131 1.374 . S
C1131 H1111 0.950 . S
C1131 C1127 1.385 . S
C1131 C1130 1.374 . S
C1132 C1129 1.499 . S
C1132 C1133 1.373 . S
C1132 C1134 1.389 . S
C1133 H1112 0.950 . S
C1133 C1132 1.373 . S
C1133 C1149 1.377 . S
C1134 C1132 1.389 . S
C1134 C1135 1.524 . S
C1134 C1148 1.377 . S
C1135 C1134 1.524 . S
C1135 C1136 1.397 . S
C1135 C1140 1.363 . S
C1136 H1113 0.950 . S
C1136 C1135 1.397 . S
C1136 C1137 1.334 . S
C1137 H1114 0.950 . S
C1137 C1136 1.334 . S
C1137 C1138 1.287 . S
C1138 C1137 1.287 . S
C1138 C1139 1.524 . S
C1138 H1157 0.913 . S
C1139 H1115 0.950 . S
C1139 C1138 1.524 . S
C1139 C1140 1.415 . S
C1140 H1116 0.950 . S
C1140 C1135 1.363 . S
C1140 C1139 1.415 . S
C1141 H1117 0.951 . S
C1141 C1142 1.366 . S
C1141 C1143 1.388 . S
C1142 C1141 1.366 . S
C1142 C1146 1.385 . S
C1143 H1118 0.951 . S
C1143 C1141 1.388 . S
C1143 C1144 1.366 . S
C1144 C1143 1.366 . S
C1144 C1145 1.414 . S
C1144 C1147 1.499 . S
C1145 H1119 0.950 . S
C1145 C1144 1.414 . S
C1145 C1146 1.374 . S
C1146 H1120 0.950 . S
C1146 C1142 1.385 . S
C1146 C1145 1.374 . S
C1147 C1144 1.499 . S
C1147 C1148 1.373 . S
C1147 C1149 1.389 . S
C1148 H1121 0.950 . S
C1148 C1134 1.377 . S
C1148 C1147 1.373 . S
C1149 C1133 1.377 . S
C1149 C1147 1.389 . S
C1149 C1150 1.524 . S
C1150 C1149 1.524 . S
C1150 C1151 1.397 . S
C1150 C1155 1.363 . S
C1151 H1122 0.950 . S
C1151 C1150 1.397 . S
C1151 C1152 1.334 . S
C1152 H1123 0.950 . S
C1152 C1151 1.334 . S
C1152 C1153 1.287 . S
C1153 C1152 1.287 . S
C1153 C1154 1.524 . S
C1153 H1156 0.999 . S
C1154 H1124 0.950 . S
C1154 C1153 1.524 . S
C1154 C1155 1.415 . S
C1155 H1125 0.950 . S
C1155 C1150 1.363 . S
C1155 C1154 1.415 . S
H1156 C1153 0.999 . S
H1157 C1138 0.913 . S
H1158 C1176 0.951 . S
H1159 C1178 0.951 1_556 S
H1160 C1180 0.950 . S
H1161 C1181 0.950 . S
H1162 C1183 0.950 . S
H1163 C1186 0.950 . S
H1164 C1187 0.950 . S
H1165 C1189 0.950 . S
H1166 C1190 0.950 . S
H1167 C1191 0.939 1_554 S
H1168 C1193 0.951 . S
H1169 C1195 0.950 . S
H1170 C1196 0.950 . S
H1171 C1198 0.950 . S
H1172 C1201 0.950 . S
H1173 C1202 0.950 . S
H1174 C1204 0.950 . S
H1175 C1205 0.950 . S
C1176 H1158 0.951 . S
C1176 C1177 1.366 . S
C1176 C1178 1.388 . S
C1177 C1176 1.366 . S
C1177 C1181 1.385 . S
C1178 H1159 0.951 1_554 S
C1178 C1176 1.388 . S
C1178 C1179 1.366 . S
C1179 C1178 1.366 . S
C1179 C1180 1.414 . S
C1179 C1182 1.499 . S
C1180 H1160 0.950 . S
C1180 C1179 1.414 . S
C1180 C1181 1.374 . S
C1181 H1161 0.950 . S
C1181 C1177 1.385 . S
C1181 C1180 1.374 . S
C1182 C1179 1.499 . S
C1182 C1183 1.373 . S
C1182 C1184 1.389 1_554 S
C1183 H1162 0.950 . S
C1183 C1182 1.373 . S
C1183 C1199 1.377 . S
C1184 C1182 1.389 1_556 S
C1184 C1185 1.524 . S
C1184 C1198 1.377 . S
C1185 C1184 1.524 . S
C1185 C1186 1.397 . S
C1185 C1190 1.363 . S
C1186 H1163 0.950 . S
C1186 C1185 1.397 . S
C1186 C1187 1.334 . S
C1187 H1164 0.950 . S
C1187 C1186 1.334 . S
C1187 C1188 1.287 . S
C1188 C1187 1.287 . S
C1188 C1189 1.524 . S
C1188 H1207 0.913 . S
C1189 H1165 0.950 . S
C1189 C1188 1.524 . S
C1189 C1190 1.415 . S
C1190 H1166 0.950 . S
C1190 C1185 1.363 . S
C1190 C1189 1.415 . S
C1191 H1167 0.939 1_556 S
C1191 C1192 1.385 . S
C1191 C1193 1.381 1_556 S
C1192 C1191 1.385 . S
C1192 C1196 1.385 . S
C1193 H1168 0.951 . S
C1193 C1191 1.381 1_554 S
C1193 C1194 1.366 1_554 S
C1194 C1193 1.366 1_556 S
C1194 C1195 1.414 . S
C1194 C1197 1.499 1_556 S
C1195 H1169 0.950 . S
C1195 C1194 1.414 . S
C1195 C1196 1.374 . S
C1196 H1170 0.950 . S
C1196 C1192 1.385 . S
C1196 C1195 1.374 . S
C1197 C1194 1.499 1_554 S
C1197 C1198 1.373 1_554 S
C1197 C1199 1.389 . S
C1198 H1171 0.950 . S
C1198 C1184 1.377 . S
C1198 C1197 1.373 1_556 S
C1199 C1183 1.377 . S
C1199 C1197 1.389 . S
C1199 C1200 1.524 . S
C1200 C1199 1.524 . S
C1200 C1201 1.397 . S
C1200 C1205 1.363 . S
C1201 H1172 0.950 . S
C1201 C1200 1.397 . S
C1201 C1202 1.334 . S
C1202 H1173 0.950 . S
C1202 C1201 1.334 . S
C1202 C1203 1.287 . S
C1203 C1202 1.287 . S
C1203 C1204 1.524 . S
C1203 H1206 0.999 . S
C1204 H1174 0.950 . S
C1204 C1203 1.524 . S
C1204 C1205 1.415 . S
C1205 H1175 0.950 . S
C1205 C1200 1.363 . S
C1205 C1204 1.415 . S
H1206 C1203 0.999 . S
H1207 C1188 0.913 . S
H1208 C1226 0.951 . S
H1209 C1228 0.951 . S
H1210 C1230 0.950 . S
H1211 C1231 0.950 . S
H1212 C1233 0.950 . S
H1213 C1236 0.950 . S
H1214 C1237 0.950 . S
H1215 C1239 0.950 . S
H1216 C1240 0.950 . S
H1217 C1241 0.951 . S
H1218 C1243 0.951 . S
H1219 C1245 0.950 . S
H1220 C1246 0.950 . S
H1221 C1248 0.950 . S
H1222 C1251 0.950 . S
H1223 C1252 0.950 . S
H1224 C1254 0.950 . S
H1225 C1255 0.950 . S
C1226 H1208 0.951 . S
C1226 C1227 1.366 . S
C1226 C1228 1.388 . S
C1227 C1226 1.366 . S
C1227 C1231 1.385 . S
C1228 H1209 0.951 . S
C1228 C1226 1.388 . S
C1228 C1229 1.366 . S
C1229 C1228 1.366 . S
C1229 C1230 1.414 . S
C1229 C1232 1.499 . S
C1230 H1210 0.950 . S
C1230 C1229 1.414 . S
C1230 C1231 1.374 . S
C1231 H1211 0.950 . S
C1231 C1227 1.385 . S
C1231 C1230 1.374 . S
C1232 C1229 1.499 . S
C1232 C1233 1.373 . S
C1232 C1234 1.389 . S
C1233 H1212 0.950 . S
C1233 C1232 1.373 . S
C1233 C1249 1.377 . S
C1234 C1232 1.389 . S
C1234 C1235 1.524 . S
C1234 C1248 1.377 . S
C1235 C1234 1.524 . S
C1235 C1236 1.397 . S
C1235 C1240 1.363 . S
C1236 H1213 0.950 . S
C1236 C1235 1.397 . S
C1236 C1237 1.334 . S
C1237 H1214 0.950 . S
C1237 C1236 1.334 . S
C1237 C1238 1.287 . S
C1238 C1237 1.287 . S
C1238 C1239 1.524 . S
C1238 H1257 0.913 . S
C1239 H1215 0.950 . S
C1239 C1238 1.524 . S
C1239 C1240 1.415 . S
C1240 H1216 0.950 . S
C1240 C1235 1.363 . S
C1240 C1239 1.415 . S
C1241 H1217 0.951 . S
C1241 C1242 1.366 . S
C1241 C1243 1.388 . S
C1242 C1241 1.366 . S
C1242 C1246 1.385 . S
C1243 H1218 0.951 . S
C1243 C1241 1.388 . S
C1243 C1244 1.366 . S
C1244 C1243 1.366 . S
C1244 C1245 1.414 . S
C1244 C1247 1.499 . S
C1245 H1219 0.950 . S
C1245 C1244 1.414 . S
C1245 C1246 1.374 . S
C1246 H1220 0.950 . S
C1246 C1242 1.385 . S
C1246 C1245 1.374 . S
C1247 C1244 1.499 . S
C1247 C1248 1.373 . S
C1247 C1249 1.389 . S
C1248 H1221 0.950 . S
C1248 C1234 1.377 . S
C1248 C1247 1.373 . S
C1249 C1233 1.377 . S
C1249 C1247 1.389 . S
C1249 C1250 1.524 . S
C1250 C1249 1.524 . S
C1250 C1251 1.397 . S
C1250 C1255 1.363 . S
C1251 H1222 0.950 . S
C1251 C1250 1.397 . S
C1251 C1252 1.334 . S
C1252 H1223 0.950 . S
C1252 C1251 1.334 . S
C1252 C1253 1.287 . S
C1253 C1252 1.287 . S
C1253 C1254 1.524 . S
C1253 H1256 0.999 . S
C1254 H1224 0.950 . S
C1254 C1253 1.524 . S
C1254 C1255 1.415 . S
C1255 H1225 0.950 . S
C1255 C1250 1.363 . S
C1255 C1254 1.415 . S
H1256 C1253 0.999 . S
H1257 C1238 0.913 . S
H1258 C1276 0.951 . S
H1259 C1278 0.951 . S
H1260 C1280 0.950 . S
H1261 C1281 0.950 . S
H1262 C1283 0.950 . S
H1263 C1286 0.950 . S
H1264 C1287 0.950 . S
H1265 C1289 0.950 . S
H1266 C1290 0.950 . S
H1267 C1291 0.951 . S
H1268 C1293 0.951 . S
H1269 C1295 0.950 . S
H1270 C1296 0.950 . S
H1271 C1298 0.950 . S
H1272 C1301 0.950 . S
H1273 C1302 0.950 . S
H1274 C1304 0.950 . S
H1275 C1305 0.950 . S
C1276 H1258 0.951 . S
C1276 C1277 1.366 . S
C1276 C1278 1.388 . S
C1277 C1276 1.366 . S
C1277 C1281 1.385 . S
C1278 H1259 0.951 . S
C1278 C1276 1.388 . S
C1278 C1279 1.366 . S
C1279 C1278 1.366 . S
C1279 C1280 1.414 . S
C1279 C1282 1.499 . S
C1280 H1260 0.950 . S
C1280 C1279 1.414 . S
C1280 C1281 1.374 . S
C1281 H1261 0.950 . S
C1281 C1277 1.385 . S
C1281 C1280 1.374 . S
C1282 C1279 1.499 . S
C1282 C1283 1.373 . S
C1282 C1284 1.389 . S
C1283 H1262 0.950 . S
C1283 C1282 1.373 . S
C1283 C1299 1.377 . S
C1284 C1282 1.389 . S
C1284 C1285 1.524 . S
C1284 C1298 1.377 . S
C1285 C1284 1.524 . S
C1285 C1286 1.397 . S
C1285 C1290 1.363 . S
C1286 H1263 0.950 . S
C1286 C1285 1.397 . S
C1286 C1287 1.334 . S
C1287 H1264 0.950 . S
C1287 C1286 1.334 . S
C1287 C1288 1.287 . S
C1288 C1287 1.287 . S
C1288 C1289 1.524 . S
C1288 H1307 0.913 . S
C1289 H1265 0.950 . S
C1289 C1288 1.524 . S
C1289 C1290 1.415 . S
C1290 H1266 0.950 . S
C1290 C1285 1.363 . S
C1290 C1289 1.415 . S
C1291 H1267 0.951 . S
C1291 C1292 1.366 . S
C1291 C1293 1.388 . S
C1292 C1291 1.366 . S
C1292 C1296 1.385 . S
C1293 H1268 0.951 . S
C1293 C1291 1.388 . S
C1293 C1294 1.366 . S
C1294 C1293 1.366 . S
C1294 C1295 1.414 . S
C1294 C1297 1.499 . S
C1295 H1269 0.950 . S
C1295 C1294 1.414 . S
C1295 C1296 1.374 . S
C1296 H1270 0.950 . S
C1296 C1292 1.385 . S
C1296 C1295 1.374 . S
C1297 C1294 1.499 . S
C1297 C1298 1.373 . S
C1297 C1299 1.389 . S
C1298 H1271 0.950 . S
C1298 C1284 1.377 . S
C1298 C1297 1.373 . S
C1299 C1283 1.377 . S
C1299 C1297 1.389 . S
C1299 C1300 1.524 . S
C1300 C1299 1.524 . S
C1300 C1301 1.397 . S
C1300 C1305 1.363 . S
C1301 H1272 0.950 . S
C1301 C1300 1.397 . S
C1301 C1302 1.334 . S
C1302 H1273 0.950 . S
C1302 C1301 1.334 . S
C1302 C1303 1.287 . S
C1303 C1302 1.287 . S
C1303 C1304 1.524 . S
C1303 H1306 0.999 . S
C1304 H1274 0.950 . S
C1304 C1303 1.524 . S
C1304 C1305 1.415 . S
C1305 H1275 0.950 . S
C1305 C1300 1.363 . S
C1305 C1304 1.415 . S
H1306 C1303 0.999 . S
H1307 C1288 0.913 . S
H1308 C1326 0.951 . S
H1309 C1328 0.951 . S
H1310 C1330 0.950 . S
H1311 C1331 0.950 . S
H1312 C1333 0.950 . S
H1313 C1336 0.950 . S
H1314 C1337 0.950 . S
H1315 C1339 0.950 . S
H1316 C1340 0.950 . S
H1317 C1341 0.951 . S
H1318 C1343 0.951 . S
H1319 C1345 0.950 . S
H1320 C1346 0.950 . S
H1321 C1348 0.950 . S
H1322 C1351 0.950 . S
H1323 C1352 0.950 . S
H1324 C1354 0.950 . S
H1325 C1355 0.950 . S
C1326 H1308 0.951 . S
C1326 C1327 1.366 . S
C1326 C1328 1.388 . S
C1327 C1326 1.366 . S
C1327 C1331 1.385 . S
C1328 H1309 0.951 . S
C1328 C1326 1.388 . S
C1328 C1329 1.366 . S
C1329 C1328 1.366 . S
C1329 C1330 1.414 . S
C1329 C1332 1.499 . S
C1330 H1310 0.950 . S
C1330 C1329 1.414 . S
C1330 C1331 1.374 . S
C1331 H1311 0.950 . S
C1331 C1327 1.385 . S
C1331 C1330 1.374 . S
C1332 C1329 1.499 . S
C1332 C1333 1.373 . S
C1332 C1334 1.389 . S
C1333 H1312 0.950 . S
C1333 C1332 1.373 . S
C1333 C1349 1.377 . S
C1334 C1332 1.389 . S
C1334 C1335 1.524 . S
C1334 C1348 1.377 . S
C1335 C1334 1.524 . S
C1335 C1336 1.397 . S
C1335 C1340 1.363 . S
C1336 H1313 0.950 . S
C1336 C1335 1.397 . S
C1336 C1337 1.334 . S
C1337 H1314 0.950 . S
C1337 C1336 1.334 . S
C1337 C1338 1.287 . S
C1338 C1337 1.287 . S
C1338 C1339 1.524 . S
C1338 H1357 0.913 . S
C1339 H1315 0.950 . S
C1339 C1338 1.524 . S
C1339 C1340 1.415 . S
C1340 H1316 0.950 . S
C1340 C1335 1.363 . S
C1340 C1339 1.415 . S
C1341 H1317 0.951 . S
C1341 C1342 1.366 . S
C1341 C1343 1.388 . S
C1342 C1341 1.366 . S
C1342 C1346 1.385 . S
C1343 H1318 0.951 . S
C1343 C1341 1.388 . S
C1343 C1344 1.366 . S
C1344 C1343 1.366 . S
C1344 C1345 1.414 . S
C1344 C1347 1.499 . S
C1345 H1319 0.950 . S
C1345 C1344 1.414 . S
C1345 C1346 1.374 . S
C1346 H1320 0.950 . S
C1346 C1342 1.385 . S
C1346 C1345 1.374 . S
C1347 C1344 1.499 . S
C1347 C1348 1.373 . S
C1347 C1349 1.389 . S
C1348 H1321 0.950 . S
C1348 C1334 1.377 . S
C1348 C1347 1.373 . S
C1349 C1333 1.377 . S
C1349 C1347 1.389 . S
C1349 C1350 1.524 . S
C1350 C1349 1.524 . S
C1350 C1351 1.397 . S
C1350 C1355 1.363 . S
C1351 H1322 0.950 . S
C1351 C1350 1.397 . S
C1351 C1352 1.334 . S
C1352 H1323 0.950 . S
C1352 C1351 1.334 . S
C1352 C1353 1.287 . S
C1353 C1352 1.287 . S
C1353 C1354 1.524 . S
C1353 H1356 0.999 . S
C1354 H1324 0.950 . S
C1354 C1353 1.524 . S
C1354 C1355 1.415 . S
C1355 H1325 0.950 . S
C1355 C1350 1.363 . S
C1355 C1354 1.415 . S
H1356 C1353 0.999 . S
H1357 C1338 0.913 . S
H1358 C1376 0.951 . S
H1359 C1378 0.951 . S
H1360 C1380 0.950 . S
H1361 C1381 0.950 . S
H1362 C1383 0.950 . S
H1363 C1386 0.950 . S
H1364 C1387 0.950 . S
H1365 C1389 0.950 . S
H1366 C1390 0.950 . S
H1367 C1391 0.951 . S
H1368 C1393 0.951 . S
H1369 C1395 0.950 . S
H1370 C1396 0.950 . S
H1371 C1398 0.950 . S
H1372 C1401 0.950 . S
H1373 C1402 0.950 . S
H1374 C1404 0.950 1_455 S
H1375 C1405 0.950 . S
C1376 H1358 0.951 . S
C1376 C1377 1.366 . S
C1376 C1378 1.388 . S
C1377 C1376 1.366 . S
C1377 C1381 1.385 . S
C1378 H1359 0.951 . S
C1378 C1376 1.388 . S
C1378 C1379 1.366 . S
C1379 C1378 1.366 . S
C1379 C1380 1.414 . S
C1379 C1382 1.499 . S
C1380 H1360 0.950 . S
C1380 C1379 1.414 . S
C1380 C1381 1.374 . S
C1381 H1361 0.950 . S
C1381 C1377 1.385 . S
C1381 C1380 1.374 . S
C1382 C1379 1.499 . S
C1382 C1383 1.373 . S
C1382 C1384 1.389 . S
C1383 H1362 0.950 . S
C1383 C1382 1.373 . S
C1383 C1399 1.377 . S
C1384 C1382 1.389 . S
C1384 C1385 1.524 . S
C1384 C1398 1.377 . S
C1385 C1384 1.524 . S
C1385 C1386 1.397 . S
C1385 C1390 1.363 . S
C1386 H1363 0.950 . S
C1386 C1385 1.397 . S
C1386 C1387 1.334 . S
C1387 H1364 0.950 . S
C1387 C1386 1.334 . S
C1387 C1388 1.287 . S
C1388 C1387 1.287 . S
C1388 C1389 1.524 . S
C1388 H1407 0.913 . S
C1389 H1365 0.950 . S
C1389 C1388 1.524 . S
C1389 C1390 1.415 . S
C1390 H1366 0.950 . S
C1390 C1385 1.363 . S
C1390 C1389 1.415 . S
C1391 H1367 0.951 . S
C1391 C1392 1.366 . S
C1391 C1393 1.388 . S
C1392 C1391 1.366 . S
C1392 C1396 1.385 . S
C1393 H1368 0.951 . S
C1393 C1391 1.388 . S
C1393 C1394 1.366 . S
C1394 C1393 1.366 . S
C1394 C1395 1.414 . S
C1394 C1397 1.499 . S
C1395 H1369 0.950 . S
C1395 C1394 1.414 . S
C1395 C1396 1.374 . S
C1396 H1370 0.950 . S
C1396 C1392 1.385 . S
C1396 C1395 1.374 . S
C1397 C1394 1.499 . S
C1397 C1398 1.373 . S
C1397 C1399 1.389 . S
C1398 H1371 0.950 . S
C1398 C1384 1.377 . S
C1398 C1397 1.373 . S
C1399 C1383 1.377 . S
C1399 C1397 1.389 . S
C1399 C1400 1.524 . S
C1400 C1399 1.524 . S
C1400 C1401 1.397 1_455 S
C1400 C1405 1.363 . S
C1401 H1372 0.950 . S
C1401 C1400 1.397 1_655 S
C1401 C1402 1.334 . S
C1402 H1373 0.950 . S
C1402 C1401 1.334 . S
C1402 C1403 1.287 . S
C1403 C1402 1.287 . S
C1403 C1404 1.524 . S
C1403 H1406 0.999 . S
C1404 H1374 0.950 1_655 S
C1404 C1403 1.524 . S
C1404 C1405 1.415 1_655 S
C1405 H1375 0.950 . S
C1405 C1400 1.363 . S
C1405 C1404 1.415 1_455 S
H1406 C1403 0.999 . S
H1407 C1388 0.913 . S
H1408 C1426 0.951 . S
H1409 C1428 0.951 . S
H1410 C1430 0.950 . S
H1411 C1431 0.950 . S
H1412 C1433 0.950 . S
H1413 C1436 0.950 . S
H1414 C1437 0.950 . S
H1415 C1439 0.950 1_565 S
H1416 C1440 0.950 1_565 S
H1417 C1441 0.951 . S
H1418 C1443 0.951 . S
H1419 C1445 0.950 . S
H1420 C1446 0.950 . S
H1421 C1448 0.950 . S
H1422 C1451 0.950 . S
H1423 C1452 0.950 . S
H1424 C1454 0.950 . S
H1425 C1455 0.950 . S
C1426 H1408 0.951 . S
C1426 C1427 1.366 . S
C1426 C1428 1.388 . S
C1427 C1426 1.366 . S
C1427 C1431 1.385 . S
C1428 H1409 0.951 . S
C1428 C1426 1.388 . S
C1428 C1429 1.366 . S
C1429 C1428 1.366 . S
C1429 C1430 1.414 . S
C1429 C1432 1.499 . S
C1430 H1410 0.950 . S
C1430 C1429 1.414 . S
C1430 C1431 1.374 . S
C1431 H1411 0.950 . S
C1431 C1427 1.385 . S
C1431 C1430 1.374 . S
C1432 C1429 1.499 . S
C1432 C1433 1.373 . S
C1432 C1434 1.389 . S
C1433 H1412 0.950 . S
C1433 C1432 1.373 . S
C1433 C1449 1.377 . S
C1434 C1432 1.389 . S
C1434 C1435 1.524 . S
C1434 C1448 1.377 . S
C1435 C1434 1.524 . S
C1435 C1436 1.397 . S
C1435 C1440 1.363 . S
C1436 H1413 0.950 . S
C1436 C1435 1.397 . S
C1436 C1437 1.334 . S
C1437 H1414 0.950 . S
C1437 C1436 1.334 . S
C1437 C1438 1.287 . S
C1438 C1437 1.287 . S
C1438 C1439 1.524 . S
C1438 H1457 0.913 . S
C1439 H1415 0.950 1_545 S
C1439 C1438 1.524 . S
C1439 C1440 1.415 . S
C1440 H1416 0.950 1_545 S
C1440 C1435 1.363 . S
C1440 C1439 1.415 . S
C1441 H1417 0.951 . S
C1441 C1442 1.366 . S
C1441 C1443 1.388 . S
C1442 C1441 1.366 . S
C1442 C1446 1.385 . S
C1443 H1418 0.951 . S
C1443 C1441 1.388 . S
C1443 C1444 1.366 . S
C1444 C1443 1.366 . S
C1444 C1445 1.414 . S
C1444 C1447 1.499 . S
C1445 H1419 0.950 . S
C1445 C1444 1.414 . S
C1445 C1446 1.374 . S
C1446 H1420 0.950 . S
C1446 C1442 1.385 . S
C1446 C1445 1.374 . S
C1447 C1444 1.499 . S
C1447 C1448 1.373 . S
C1447 C1449 1.389 . S
C1448 H1421 0.950 . S
C1448 C1434 1.377 . S
C1448 C1447 1.373 . S
C1449 C1433 1.377 . S
C1449 C1447 1.389 . S
C1449 C1450 1.524 . S
C1450 C1449 1.524 . S
C1450 C1451 1.397 . S
C1450 C1455 1.363 . S
C1451 H1422 0.950 . S
C1451 C1450 1.397 . S
C1451 C1452 1.334 . S
C1452 H1423 0.950 . S
C1452 C1451 1.334 . S
C1452 C1453 1.287 . S
C1453 C1452 1.287 . S
C1453 C1454 1.524 . S
C1453 H1456 0.999 . S
C1454 H1424 0.950 . S
C1454 C1453 1.524 . S
C1454 C1455 1.415 . S
C1455 H1425 0.950 . S
C1455 C1450 1.363 . S
C1455 C1454 1.415 . S
H1456 C1453 0.999 . S
H1457 C1438 0.913 . S
H1458 C1476 0.951 . S
H1459 C1478 0.951 . S
H1460 C1480 0.950 . S
H1461 C1481 0.950 . S
H1462 C1483 0.950 . S
H1463 C1486 0.950 . S
H1464 C1487 0.950 . S
H1465 C1489 0.950 . S
H1466 C1490 0.950 . S
H1467 C1491 0.951 . S
H1468 C1493 0.951 . S
H1469 C1495 0.950 . S
H1470 C1496 0.950 . S
H1471 C1498 0.950 . S
H1472 C1501 0.950 . S
H1473 C1502 0.950 . S
H1474 C1504 0.950 . S
H1475 C1505 0.950 . S
C1476 H1458 0.951 . S
C1476 C1477 1.366 . S
C1476 C1478 1.388 . S
C1477 C1476 1.366 . S
C1477 C1481 1.385 . S
C1478 H1459 0.951 . S
C1478 C1476 1.388 . S
C1478 C1479 1.366 . S
C1479 C1478 1.366 . S
C1479 C1480 1.414 . S
C1479 C1482 1.499 . S
C1480 H1460 0.950 . S
C1480 C1479 1.414 . S
C1480 C1481 1.374 . S
C1481 H1461 0.950 . S
C1481 C1477 1.385 . S
C1481 C1480 1.374 . S
C1482 C1479 1.499 . S
C1482 C1483 1.373 . S
C1482 C1484 1.389 . S
C1483 H1462 0.950 . S
C1483 C1482 1.373 . S
C1483 C1499 1.377 . S
C1484 C1482 1.389 . S
C1484 C1485 1.524 . S
C1484 C1498 1.377 . S
C1485 C1484 1.524 . S
C1485 C1486 1.397 . S
C1485 C1490 1.363 . S
C1486 H1463 0.950 . S
C1486 C1485 1.397 . S
C1486 C1487 1.334 1_556 S
C1487 H1464 0.950 . S
C1487 C1486 1.334 1_554 S
C1487 C1488 1.287 . S
C1488 C1487 1.287 . S
C1488 C1489 1.524 . S
C1488 H1507 0.913 . S
C1489 H1465 0.950 . S
C1489 C1488 1.524 . S
C1489 C1490 1.415 1_554 S
C1490 H1466 0.950 . S
C1490 C1485 1.363 . S
C1490 C1489 1.415 1_556 S
C1491 H1467 0.951 . S
C1491 C1492 1.366 . S
C1491 C1493 1.388 . S
C1492 C1491 1.366 . S
C1492 C1496 1.385 . S
C1493 H1468 0.951 . S
C1493 C1491 1.388 . S
C1493 C1494 1.366 . S
C1494 C1493 1.366 . S
C1494 C1495 1.414 . S
C1494 C1497 1.499 . S
C1495 H1469 0.950 . S
C1495 C1494 1.414 . S
C1495 C1496 1.374 . S
C1496 H1470 0.950 . S
C1496 C1492 1.385 . S
C1496 C1495 1.374 . S
C1497 C1494 1.499 . S
C1497 C1498 1.373 . S
C1497 C1499 1.389 . S
C1498 H1471 0.950 . S
C1498 C1484 1.377 . S
C1498 C1497 1.373 . S
C1499 C1483 1.377 . S
C1499 C1497 1.389 . S
C1499 C1500 1.524 . S
C1500 C1499 1.524 . S
C1500 C1501 1.397 . S
C1500 C1505 1.363 . S
C1501 H1472 0.950 . S
C1501 C1500 1.397 . S
C1501 C1502 1.334 . S
C1502 H1473 0.950 . S
C1502 C1501 1.334 . S
C1502 C1503 1.287 . S
C1503 C1502 1.287 . S
C1503 C1504 1.524 . S
C1503 H1506 0.999 . S
C1504 H1474 0.950 . S
C1504 C1503 1.524 . S
C1504 C1505 1.415 . S
C1505 H1475 0.950 . S
C1505 C1500 1.363 . S
C1505 C1504 1.415 . S
H1506 C1503 0.999 . S
H1507 C1488 0.913 . S
H1508 C1526 0.951 1_455 S
H1509 C1528 0.951 1_455 S
H1510 C1530 0.950 . S
H1511 C1531 0.950 . S
H1512 C1533 0.950 . S
H1513 C1536 0.950 . S
H1514 C1537 0.950 . S
H1515 C1539 0.950 . S
H1516 C1540 0.950 . S
H1517 C1541 0.951 . S
H1518 C1543 0.951 . S
H1519 C1545 0.950 1_455 S
H1520 C1546 0.950 1_455 S
H1521 C1548 0.950 . S
H1522 C1551 0.950 . S
H1523 C1552 0.936 1_556 S
H1524 C1554 0.965 . S
H1525 C1555 0.950 . S
C1526 H1508 0.951 1_655 S
C1526 C1527 1.366 . S
C1526 C1528 1.388 . S
C1527 C1526 1.366 . S
C1527 C1531 1.385 . S
C1528 H1509 0.951 1_655 S
C1528 C1526 1.388 . S
C1528 C1529 1.366 . S
C1529 C1528 1.366 . S
C1529 C1530 1.414 . S
C1529 C1532 1.499 . S
C1530 H1510 0.950 . S
C1530 C1529 1.414 . S
C1530 C1531 1.374 . S
C1531 H1511 0.950 . S
C1531 C1527 1.385 . S
C1531 C1530 1.374 . S
C1532 C1529 1.499 . S
C1532 C1533 1.373 . S
C1532 C1534 1.389 . S
C1533 H1512 0.950 . S
C1533 C1532 1.373 . S
C1533 C1549 1.377 . S
C1534 C1532 1.389 . S
C1534 C1535 1.524 . S
C1534 C1548 1.377 . S
C1535 C1534 1.524 . S
C1535 C1536 1.397 . S
C1535 C1540 1.363 1_655 S
C1536 H1513 0.950 . S
C1536 C1535 1.397 . S
C1536 C1537 1.334 . S
C1537 H1514 0.950 . S
C1537 C1536 1.334 . S
C1537 C1538 1.297 . S
C1538 C1537 1.297 . S
C1538 C1539 1.520 1_655 S
C1538 H1557 0.906 1_655 S
C1539 H1515 0.950 . S
C1539 C1538 1.520 1_455 S
C1539 C1540 1.415 . S
C1540 H1516 0.950 . S
C1540 C1535 1.363 1_455 S
C1540 C1539 1.415 . S
C1541 H1517 0.951 . S
C1541 C1542 1.366 . S
C1541 C1543 1.388 . S
C1542 C1541 1.366 . S
C1542 C1546 1.385 . S
C1543 H1518 0.951 . S
C1543 C1541 1.388 . S
C1543 C1544 1.366 . S
C1544 C1543 1.366 . S
C1544 C1545 1.414 . S
C1544 C1547 1.499 . S
C1545 H1519 0.950 1_655 S
C1545 C1544 1.414 . S
C1545 C1546 1.374 . S
C1546 H1520 0.950 1_655 S
C1546 C1542 1.385 . S
C1546 C1545 1.374 . S
C1547 C1544 1.499 . S
C1547 C1548 1.373 . S
C1547 C1549 1.389 . S
C1548 H1521 0.950 . S
C1548 C1534 1.377 . S
C1548 C1547 1.373 . S
C1549 C1533 1.377 . S
C1549 C1547 1.389 . S
C1549 C1550 1.524 . S
C1550 C1549 1.524 . S
C1550 C1551 1.397 . S
C1550 C1555 1.363 . S
C1551 H1522 0.950 . S
C1551 C1550 1.397 . S
C1551 C1552 1.334 . S
C1552 H1523 0.936 1_554 S
C1552 C1551 1.334 . S
C1552 C1553 1.287 1_554 S
C1553 C1552 1.287 1_556 S
C1553 C1554 1.524 1_556 S
C1553 H1556 0.999 . S
C1554 H1524 0.965 . S
C1554 C1553 1.524 1_554 S
C1554 C1555 1.415 . S
C1555 H1525 0.950 . S
C1555 C1550 1.363 . S
C1555 C1554 1.415 . S
H1556 C1553 0.999 . S
H1557 C1538 0.906 1_455 S
H1558 C1576 0.951 . S
H1559 C1578 0.951 . S
H1560 C1580 0.950 1_545 S
H1561 C1581 0.918 1_545 S
H1562 C1583 0.962 . S
H1563 C1586 0.950 . S
H1564 C1587 0.950 . S
H1565 C1589 0.950 . S
H1566 C1590 0.950 . S
H1567 C1591 0.945 1_545 S
H1568 C1593 0.921 1_545 S
H1569 C1595 0.950 . S
H1570 C1596 0.950 . S
H1571 C1598 0.950 . S
H1572 C1601 0.950 1_565 S
H1573 C1602 0.950 . S
H1574 C1604 0.950 . S
H1575 C1605 0.950 . S
C1576 H1558 0.951 . S
C1576 C1577 1.366 . S
C1576 C1578 1.388 . S
C1577 C1576 1.366 . S
C1577 C1581 1.385 . S
C1578 H1559 0.951 . S
C1578 C1576 1.388 . S
C1578 C1579 1.366 . S
C1579 C1578 1.366 . S
C1579 C1580 1.414 . S
C1579 C1582 1.499 . S
C1580 H1560 0.950 1_565 S
C1580 C1579 1.414 . S
C1580 C1581 1.374 . S
C1581 H1561 0.918 1_565 S
C1581 C1577 1.385 . S
C1581 C1580 1.374 . S
C1582 C1579 1.499 . S
C1582 C1583 1.373 . S
C1582 C1584 1.389 . S
C1583 H1562 0.962 . S
C1583 C1582 1.373 . S
C1583 C1599 1.377 . S
C1584 C1582 1.389 . S
C1584 C1585 1.524 . S
C1584 C1598 1.377 . S
C1585 C1584 1.524 . S
C1585 C1586 1.397 . S
C1585 C1590 1.363 . S
C1586 H1563 0.950 . S
C1586 C1585 1.397 . S
C1586 C1587 1.334 . S
C1587 H1564 0.950 . S
C1587 C1586 1.334 . S
C1587 C1588 1.287 . S
C1588 C1587 1.287 . S
C1588 C1589 1.524 . S
C1588 H1607 0.913 . S
C1589 H1565 0.950 . S
C1589 C1588 1.524 . S
C1589 C1590 1.415 . S
C1590 H1566 0.950 . S
C1590 C1585 1.363 . S
C1590 C1589 1.415 . S
C1591 H1567 0.945 1_565 S
C1591 C1592 1.366 . S
C1591 C1593 1.388 . S
C1592 C1591 1.366 . S
C1592 C1596 1.385 . S
C1593 H1568 0.921 1_565 S
C1593 C1591 1.388 . S
C1593 C1594 1.366 . S
C1594 C1593 1.366 . S
C1594 C1595 1.414 . S
C1594 C1597 1.499 . S
C1595 H1569 0.950 . S
C1595 C1594 1.414 . S
C1595 C1596 1.374 . S
C1596 H1570 0.950 . S
C1596 C1592 1.385 . S
C1596 C1595 1.374 . S
C1597 C1594 1.499 . S
C1597 C1598 1.373 . S
C1597 C1599 1.389 . S
C1598 H1571 0.950 . S
C1598 C1584 1.377 . S
C1598 C1597 1.373 . S
C1599 C1583 1.377 . S
C1599 C1597 1.389 . S
C1599 C1600 1.524 1_565 S
C1600 C1599 1.524 1_545 S
C1600 C1601 1.397 . S
C1600 C1605 1.363 . S
C1601 H1572 0.950 1_545 S
C1601 C1600 1.397 . S
C1601 C1602 1.334 . S
C1602 H1573 0.950 . S
C1602 C1601 1.334 . S
C1602 C1603 1.287 . S
C1603 C1602 1.287 . S
C1603 C1604 1.524 . S
C1603 H1606 0.999 . S
C1604 H1574 0.950 . S
C1604 C1603 1.524 . S
C1604 C1605 1.415 . S
C1605 H1575 0.950 . S
C1605 C1600 1.363 . S
C1605 C1604 1.415 . S
H1606 C1603 0.999 . S
H1607 C1588 0.913 . S
H1608 C1626 0.951 . S
H1609 C1628 0.951 . S
H1610 C1630 0.950 . S
H1611 C1631 0.950 . S
H1612 C1633 0.950 . S
H1613 C1636 0.950 . S
H1614 C1637 0.950 . S
H1615 C1639 0.950 . S
H1616 C1640 0.950 . S
H1617 C1641 0.951 . S
H1618 C1643 0.951 . S
H1619 C1645 0.950 . S
H1620 C1646 0.950 . S
H1621 C1648 0.950 . S
H1622 C1651 0.950 . S
H1623 C1652 0.950 . S
H1624 C1654 0.950 . S
H1625 C1655 0.950 . S
C1626 H1608 0.951 . S
C1626 C1627 1.366 . S
C1626 C1628 1.388 . S
C1627 C1626 1.366 . S
C1627 C1631 1.385 . S
C1628 H1609 0.951 . S
C1628 C1626 1.388 . S
C1628 C1629 1.366 . S
C1629 C1628 1.366 . S
C1629 C1630 1.414 . S
C1629 C1632 1.499 . S
C1630 H1610 0.950 . S
C1630 C1629 1.414 . S
C1630 C1631 1.374 . S
C1631 H1611 0.950 . S
C1631 C1627 1.385 . S
C1631 C1630 1.374 . S
C1632 C1629 1.499 . S
C1632 C1633 1.373 . S
C1632 C1634 1.389 . S
C1633 H1612 0.950 . S
C1633 C1632 1.373 . S
C1633 C1649 1.377 . S
C1634 C1632 1.389 . S
C1634 C1635 1.524 . S
C1634 C1648 1.377 . S
C1635 C1634 1.524 . S
C1635 C1636 1.397 . S
C1635 C1640 1.363 . S
C1636 H1613 0.950 . S
C1636 C1635 1.397 . S
C1636 C1637 1.334 . S
C1637 H1614 0.950 . S
C1637 C1636 1.334 . S
C1637 C1638 1.287 . S
C1638 C1637 1.287 . S
C1638 C1639 1.524 . S
C1638 H1657 0.913 . S
C1639 H1615 0.950 . S
C1639 C1638 1.524 . S
C1639 C1640 1.415 . S
C1640 H1616 0.950 . S
C1640 C1635 1.363 . S
C1640 C1639 1.415 . S
C1641 H1617 0.951 . S
C1641 C1642 1.366 . S
C1641 C1643 1.388 . S
C1642 C1641 1.366 . S
C1642 C1646 1.385 . S
C1643 H1618 0.951 . S
C1643 C1641 1.388 . S
C1643 C1644 1.366 . S
C1644 C1643 1.366 . S
C1644 C1645 1.414 . S
C1644 C1647 1.499 . S
C1645 H1619 0.950 . S
C1645 C1644 1.414 . S
C1645 C1646 1.374 . S
C1646 H1620 0.950 . S
C1646 C1642 1.385 . S
C1646 C1645 1.374 . S
C1647 C1644 1.499 . S
C1647 C1648 1.373 . S
C1647 C1649 1.389 . S
C1648 H1621 0.950 . S
C1648 C1634 1.377 . S
C1648 C1647 1.373 . S
C1649 C1633 1.377 . S
C1649 C1647 1.389 . S
C1649 C1650 1.524 . S
C1650 C1649 1.524 . S
C1650 C1651 1.397 . S
C1650 C1655 1.363 . S
C1651 H1622 0.950 . S
C1651 C1650 1.397 . S
C1651 C1652 1.334 . S
C1652 H1623 0.950 . S
C1652 C1651 1.334 . S
C1652 C1653 1.287 . S
C1653 C1652 1.287 . S
C1653 C1654 1.524 . S
C1653 H1656 0.999 . S
C1654 H1624 0.950 . S
C1654 C1653 1.524 . S
C1654 C1655 1.415 . S
C1655 H1625 0.950 . S
C1655 C1650 1.363 . S
C1655 C1654 1.415 . S
H1656 C1653 0.999 . S
H1657 C1638 0.913 . S
H1658 C1676 0.951 . S
H1659 C1678 0.951 . S
H1660 C1680 0.950 . S
H1661 C1681 0.950 . S
H1662 C1683 0.950 . S
H1663 C1686 0.950 . S
H1664 C1687 0.950 . S
H1665 C1689 0.950 . S
H1666 C1690 0.950 . S
H1667 C1691 0.951 . S
H1668 C1693 0.951 . S
H1669 C1695 0.920 1_455 S
H1670 C1696 0.950 . S
H1671 C1698 0.950 . S
H1672 C1701 0.950 . S
H1673 C1702 0.950 . S
H1674 C1704 0.950 . S
H1675 C1705 0.950 . S
C1676 H1658 0.951 . S
C1676 C1677 1.366 . S
C1676 C1678 1.388 . S
C1677 C1676 1.366 . S
C1677 C1681 1.385 . S
C1678 H1659 0.951 . S
C1678 C1676 1.388 . S
C1678 C1679 1.366 . S
C1679 C1678 1.366 . S
C1679 C1680 1.414 . S
C1679 C1682 1.499 . S
C1680 H1660 0.950 . S
C1680 C1679 1.414 . S
C1680 C1681 1.374 . S
C1681 H1661 0.950 . S
C1681 C1677 1.385 . S
C1681 C1680 1.374 . S
C1682 C1679 1.499 . S
C1682 C1683 1.373 . S
C1682 C1684 1.389 1_455 S
C1683 H1662 0.950 . S
C1683 C1682 1.373 . S
C1683 C1699 1.377 . S
C1684 C1682 1.389 1_655 S
C1684 C1685 1.524 . S
C1684 C1698 1.377 . S
C1685 C1684 1.524 . S
C1685 C1686 1.397 . S
C1685 C1690 1.363 . S
C1686 H1663 0.950 . S
C1686 C1685 1.397 . S
C1686 C1687 1.334 . S
C1687 H1664 0.950 . S
C1687 C1686 1.334 . S
C1687 C1688 1.287 . S
C1688 C1687 1.287 . S
C1688 C1689 1.524 . S
C1688 H1707 0.913 . S
C1689 H1665 0.950 . S
C1689 C1688 1.524 . S
C1689 C1690 1.415 . S
C1690 H1666 0.950 . S
C1690 C1685 1.363 . S
C1690 C1689 1.415 . S
C1691 H1667 0.951 . S
C1691 C1692 1.366 . S
C1691 C1693 1.388 . S
C1692 C1691 1.366 . S
C1692 C1696 1.385 . S
C1693 H1668 0.951 . S
C1693 C1691 1.388 . S
C1693 C1694 1.366 . S
C1694 C1693 1.366 . S
C1694 C1695 1.414 . S
C1694 C1697 1.499 . S
C1695 H1669 0.920 1_655 S
C1695 C1694 1.414 . S
C1695 C1696 1.374 . S
C1696 H1670 0.950 . S
C1696 C1692 1.385 . S
C1696 C1695 1.374 . S
C1697 C1694 1.499 . S
C1697 C1698 1.373 . S
C1697 C1699 1.389 1_655 S
C1698 H1671 0.950 . S
C1698 C1684 1.377 . S
C1698 C1697 1.373 . S
C1699 C1683 1.377 . S
C1699 C1697 1.389 1_455 S
C1699 C1700 1.524 . S
C1700 C1699 1.524 . S
C1700 C1701 1.397 . S
C1700 C1705 1.363 . S
C1701 H1672 0.950 . S
C1701 C1700 1.397 . S
C1701 C1702 1.334 . S
C1702 H1673 0.950 . S
C1702 C1701 1.334 . S
C1702 C1703 1.287 . S
C1703 C1702 1.287 . S
C1703 C1704 1.524 . S
C1703 H1706 0.999 . S
C1704 H1674 0.950 . S
C1704 C1703 1.524 . S
C1704 C1705 1.415 . S
C1705 H1675 0.950 . S
C1705 C1700 1.363 . S
C1705 C1704 1.415 . S
H1706 C1703 0.999 . S
H1707 C1688 0.913 . S
H1708 C1726 0.951 . S
H1709 C1728 0.951 . S
H1710 C1730 0.950 . S
H1711 C1731 0.950 . S
H1712 C1733 0.950 . S
H1713 C1736 0.950 . S
H1714 C1737 0.950 . S
H1715 C1739 0.950 . S
H1716 C1740 0.950 . S
H1717 C1741 0.951 . S
H1718 C1743 0.951 . S
H1719 C1745 0.950 . S
H1720 C1746 0.950 . S
H1721 C1748 0.950 . S
H1722 C1751 0.950 . S
H1723 C1752 0.950 . S
H1724 C1754 0.950 . S
H1725 C1755 0.950 . S
C1726 H1708 0.951 . S
C1726 C1727 1.366 1_565 S
C1726 C1728 1.388 . S
C1727 C1726 1.366 1_545 S
C1727 C1731 1.385 . S
C1728 H1709 0.951 . S
C1728 C1726 1.388 . S
C1728 C1729 1.366 1_565 S
C1729 C1728 1.366 1_545 S
C1729 C1730 1.414 . S
C1729 C1732 1.499 . S
C1730 H1710 0.950 . S
C1730 C1729 1.414 . S
C1730 C1731 1.374 . S
C1731 H1711 0.950 . S
C1731 C1727 1.385 . S
C1731 C1730 1.374 . S
C1732 C1729 1.499 . S
C1732 C1733 1.373 . S
C1732 C1734 1.389 1_545 S
C1733 H1712 0.950 . S
C1733 C1732 1.373 . S
C1733 C1749 1.377 1_556 S
C1734 C1732 1.389 1_565 S
C1734 C1735 1.524 . S
C1734 C1748 1.377 1_556 S
C1735 C1734 1.524 . S
C1735 C1736 1.397 1_565 S
C1735 C1740 1.363 . S
C1736 H1713 0.950 . S
C1736 C1735 1.397 1_545 S
C1736 C1737 1.334 . S
C1737 H1714 0.950 . S
C1737 C1736 1.334 . S
C1737 C1738 1.287 1_545 S
C1738 C1737 1.287 1_565 S
C1738 C1739 1.524 . S
C1738 H1757 0.913 . S
C1739 H1715 0.950 . S
C1739 C1738 1.524 . S
C1739 C1740 1.415 . S
C1740 H1716 0.950 . S
C1740 C1735 1.363 . S
C1740 C1739 1.415 . S
C1741 H1717 0.951 . S
C1741 C1742 1.366 1_545 S
C1741 C1743 1.388 . S
C1742 C1741 1.366 1_565 S
C1742 C1746 1.385 . S
C1743 H1718 0.951 . S
C1743 C1741 1.388 . S
C1743 C1744 1.366 1_545 S
C1744 C1743 1.366 1_565 S
C1744 C1745 1.414 . S
C1744 C1747 1.499 . S
C1745 H1719 0.950 . S
C1745 C1744 1.414 . S
C1745 C1746 1.374 . S
C1746 H1720 0.950 . S
C1746 C1742 1.385 . S
C1746 C1745 1.374 . S
C1747 C1744 1.499 . S
C1747 C1748 1.373 . S
C1747 C1749 1.389 1_565 S
C1748 H1721 0.950 . S
C1748 C1734 1.377 1_554 S
C1748 C1747 1.373 . S
C1749 C1733 1.377 1_554 S
C1749 C1747 1.389 1_545 S
C1749 C1750 1.524 . S
C1750 C1749 1.524 . S
C1750 C1751 1.397 1_545 S
C1750 C1755 1.363 . S
C1751 H1722 0.950 . S
C1751 C1750 1.397 1_565 S
C1751 C1752 1.334 . S
C1752 H1723 0.950 . S
C1752 C1751 1.334 . S
C1752 C1753 1.287 1_565 S
C1753 C1752 1.287 1_545 S
C1753 C1754 1.524 . S
C1753 H1756 0.999 . S
C1754 H1724 0.950 . S
C1754 C1753 1.524 . S
C1754 C1755 1.415 . S
C1755 H1725 0.950 . S
C1755 C1750 1.363 . S
C1755 C1754 1.415 . S
H1756 C1753 0.999 . S
H1757 C1738 0.913 . S
H1758 C1776 0.951 . S
H1759 C1778 0.951 . S
H1760 C1780 0.950 . S
H1761 C1781 0.950 . S
H1762 C1783 0.950 . S
H1763 C1786 0.950 . S
H1764 C1787 0.950 . S
H1765 C1789 0.950 . S
H1766 C1790 0.950 . S
H1767 C1791 0.951 . S
H1768 C1793 0.951 . S
H1769 C1795 0.950 . S
H1770 C1796 0.950 . S
H1771 C1798 0.950 . S
H1772 C1801 0.950 . S
H1773 C1802 0.950 . S
H1774 C1804 0.950 . S
H1775 C1805 0.950 . S
C1776 H1758 0.951 . S
C1776 C1777 1.366 . S
C1776 C1778 1.388 . S
C1777 C1776 1.366 . S
C1777 C1781 1.385 . S
C1778 H1759 0.951 . S
C1778 C1776 1.388 . S
C1778 C1779 1.366 . S
C1779 C1778 1.366 . S
C1779 C1780 1.414 . S
C1779 C1782 1.499 . S
C1780 H1760 0.950 . S
C1780 C1779 1.414 . S
C1780 C1781 1.374 . S
C1781 H1761 0.950 . S
C1781 C1777 1.385 . S
C1781 C1780 1.374 . S
C1782 C1779 1.499 . S
C1782 C1783 1.373 . S
C1782 C1784 1.389 . S
C1783 H1762 0.950 . S
C1783 C1782 1.373 . S
C1783 C1799 1.377 . S
C1784 C1782 1.389 . S
C1784 C1785 1.524 . S
C1784 C1798 1.377 . S
C1785 C1784 1.524 . S
C1785 C1786 1.397 . S
C1785 C1790 1.363 . S
C1786 H1763 0.950 . S
C1786 C1785 1.397 . S
C1786 C1787 1.334 . S
C1787 H1764 0.950 . S
C1787 C1786 1.334 . S
C1787 C1788 1.287 . S
C1788 C1787 1.287 . S
C1788 C1789 1.524 . S
C1788 H1807 0.913 . S
C1789 H1765 0.950 . S
C1789 C1788 1.524 . S
C1789 C1790 1.415 . S
C1790 H1766 0.950 . S
C1790 C1785 1.363 . S
C1790 C1789 1.415 . S
C1791 H1767 0.951 . S
C1791 C1792 1.366 . S
C1791 C1793 1.388 . S
C1792 C1791 1.366 . S
C1792 C1796 1.385 . S
C1793 H1768 0.951 . S
C1793 C1791 1.388 . S
C1793 C1794 1.366 . S
C1794 C1793 1.366 . S
C1794 C1795 1.414 . S
C1794 C1797 1.499 . S
C1795 H1769 0.950 . S
C1795 C1794 1.414 . S
C1795 C1796 1.374 . S
C1796 H1770 0.950 . S
C1796 C1792 1.385 . S
C1796 C1795 1.374 . S
C1797 C1794 1.499 . S
C1797 C1798 1.373 . S
C1797 C1799 1.389 . S
C1798 H1771 0.950 . S
C1798 C1784 1.377 . S
C1798 C1797 1.373 . S
C1799 C1783 1.377 . S
C1799 C1797 1.389 . S
C1799 C1800 1.524 . S
C1800 C1799 1.524 . S
C1800 C1801 1.397 . S
C1800 C1805 1.363 . S
C1801 H1772 0.950 . S
C1801 C1800 1.397 . S
C1801 C1802 1.334 . S
C1802 H1773 0.950 . S
C1802 C1801 1.334 . S
C1802 C1803 1.287 . S
C1803 C1802 1.287 . S
C1803 C1804 1.524 . S
C1803 H1806 0.999 . S
C1804 H1774 0.950 . S
C1804 C1803 1.524 . S
C1804 C1805 1.415 . S
C1805 H1775 0.950 . S
C1805 C1800 1.363 . S
C1805 C1804 1.415 . S
H1806 C1803 0.999 . S
H1807 C1788 0.913 . S
H1808 C1826 0.951 . S
H1809 C1828 0.951 . S
H1810 C1830 0.950 . S
H1811 C1831 0.950 . S
H1812 C1833 0.950 . S
H1813 C1836 0.950 . S
H1814 C1837 0.950 . S
H1815 C1839 0.950 . S
H1816 C1840 0.950 . S
H1817 C1841 0.951 . S
H1818 C1843 0.951 . S
H1819 C1845 0.950 . S
H1820 C1846 0.950 . S
H1821 C1848 0.950 . S
H1822 C1851 0.950 . S
H1823 C1852 0.950 . S
H1824 C1854 0.950 . S
H1825 C1855 0.950 . S
C1826 H1808 0.951 . S
C1826 C1827 1.366 1_455 S
C1826 C1828 1.388 . S
C1827 C1826 1.366 1_655 S
C1827 C1831 1.385 . S
C1828 H1809 0.951 . S
C1828 C1826 1.388 . S
C1828 C1829 1.366 1_455 S
C1829 C1828 1.366 1_655 S
C1829 C1830 1.414 . S
C1829 C1832 1.499 . S
C1830 H1810 0.950 . S
C1830 C1829 1.414 . S
C1830 C1831 1.374 . S
C1831 H1811 0.950 . S
C1831 C1827 1.385 . S
C1831 C1830 1.374 . S
C1832 C1829 1.499 . S
C1832 C1833 1.373 . S
C1832 C1834 1.389 1_655 S
C1833 H1812 0.950 . S
C1833 C1832 1.373 . S
C1833 C1849 1.377 . S
C1834 C1832 1.389 1_455 S
C1834 C1835 1.524 . S
C1834 C1848 1.377 . S
C1835 C1834 1.524 . S
C1835 C1836 1.397 . S
C1835 C1840 1.363 . S
C1836 H1813 0.950 . S
C1836 C1835 1.397 . S
C1836 C1837 1.334 . S
C1837 H1814 0.950 . S
C1837 C1836 1.334 . S
C1837 C1838 1.287 . S
C1838 C1837 1.287 . S
C1838 C1839 1.524 . S
C1838 H1857 0.913 . S
C1839 H1815 0.950 . S
C1839 C1838 1.524 . S
C1839 C1840 1.415 . S
C1840 H1816 0.950 . S
C1840 C1835 1.363 . S
C1840 C1839 1.415 . S
C1841 H1817 0.951 . S
C1841 C1842 1.366 1_655 S
C1841 C1843 1.388 . S
C1842 C1841 1.366 1_455 S
C1842 C1846 1.385 . S
C1843 H1818 0.951 . S
C1843 C1841 1.388 . S
C1843 C1844 1.366 1_655 S
C1844 C1843 1.366 1_455 S
C1844 C1845 1.414 . S
C1844 C1847 1.499 . S
C1845 H1819 0.950 . S
C1845 C1844 1.414 . S
C1845 C1846 1.374 . S
C1846 H1820 0.950 . S
C1846 C1842 1.385 . S
C1846 C1845 1.374 . S
C1847 C1844 1.499 . S
C1847 C1848 1.373 . S
C1847 C1849 1.389 1_455 S
C1848 H1821 0.950 . S
C1848 C1834 1.377 . S
C1848 C1847 1.373 . S
C1849 C1833 1.377 . S
C1849 C1847 1.389 1_655 S
C1849 C1850 1.524 . S
C1850 C1849 1.524 . S
C1850 C1851 1.397 . S
C1850 C1855 1.363 . S
C1851 H1822 0.950 . S
C1851 C1850 1.397 . S
C1851 C1852 1.334 . S
C1852 H1823 0.950 . S
C1852 C1851 1.334 . S
C1852 C1853 1.287 . S
C1853 C1852 1.287 . S
C1853 C1854 1.524 . S
C1853 H1856 0.999 . S
C1854 H1824 0.950 . S
C1854 C1853 1.524 . S
C1854 C1855 1.415 . S
C1855 H1825 0.950 . S
C1855 C1850 1.363 . S
C1855 C1854 1.415 . S
H1856 C1853 0.999 . S
H1857 C1838 0.913 . S
H1858 C1876 0.951 1_565 S
H1859 C1878 0.953 . S
H1860 C1880 0.950 . S
H1861 C1881 0.950 . S
H1862 C1883 0.950 . S
H1863 C1886 0.950 . S
H1864 C1887 0.950 . S
H1865 C1889 0.950 . S
H1866 C1890 0.950 . S
H1867 C1891 0.951 1_545 S
H1868 C1893 0.954 . S
H1869 C1895 0.950 . S
H1870 C1896 0.950 . S
H1871 C1898 0.950 . S
H1872 C1901 0.950 . S
H1873 C1902 0.950 . S
H1874 C1904 0.950 . S
H1875 C1905 0.950 . S
C1876 H1858 0.951 1_545 S
C1876 C1877 1.366 . S
C1876 C1878 1.384 1_545 S
C1877 C1876 1.366 . S
C1877 C1881 1.385 . S
C1878 H1859 0.953 . S
C1878 C1876 1.384 1_565 S
C1878 C1879 1.367 1_565 S
C1879 C1878 1.367 1_545 S
C1879 C1880 1.414 . S
C1879 C1882 1.499 . S
C1880 H1860 0.950 . S
C1880 C1879 1.414 . S
C1880 C1881 1.374 . S
C1881 H1861 0.950 . S
C1881 C1877 1.385 . S
C1881 C1880 1.374 . S
C1882 C1879 1.499 . S
C1882 C1883 1.373 . S
C1882 C1884 1.389 1_545 S
C1883 H1862 0.950 . S
C1883 C1882 1.373 . S
C1883 C1899 1.377 . S
C1884 C1882 1.389 1_565 S
C1884 C1885 1.524 . S
C1884 C1898 1.377 . S
C1885 C1884 1.524 . S
C1885 C1886 1.397 . S
C1885 C1890 1.363 . S
C1886 H1863 0.950 . S
C1886 C1885 1.397 . S
C1886 C1887 1.334 . S
C1887 H1864 0.950 . S
C1887 C1886 1.334 . S
C1887 C1888 1.287 . S
C1888 C1887 1.287 . S
C1888 C1889 1.524 . S
C1888 H1907 0.913 . S
C1889 H1865 0.950 . S
C1889 C1888 1.524 . S
C1889 C1890 1.415 . S
C1890 H1866 0.950 . S
C1890 C1885 1.363 . S
C1890 C1889 1.415 . S
C1891 H1867 0.951 1_565 S
C1891 C1892 1.366 . S
C1891 C1893 1.384 1_565 S
C1892 C1891 1.366 . S
C1892 C1896 1.385 . S
C1893 H1868 0.954 . S
C1893 C1891 1.384 1_545 S
C1893 C1894 1.367 1_545 S
C1894 C1893 1.367 1_565 S
C1894 C1895 1.414 . S
C1894 C1897 1.499 . S
C1895 H1869 0.950 . S
C1895 C1894 1.414 . S
C1895 C1896 1.374 . S
C1896 H1870 0.950 . S
C1896 C1892 1.385 . S
C1896 C1895 1.374 . S
C1897 C1894 1.499 . S
C1897 C1898 1.373 . S
C1897 C1899 1.389 1_565 S
C1898 H1871 0.950 . S
C1898 C1884 1.377 . S
C1898 C1897 1.373 . S
C1899 C1883 1.377 . S
C1899 C1897 1.389 1_545 S
C1899 C1900 1.524 . S
C1900 C1899 1.524 . S
C1900 C1901 1.397 . S
C1900 C1905 1.363 . S
C1901 H1872 0.950 . S
C1901 C1900 1.397 . S
C1901 C1902 1.334 . S
C1902 H1873 0.950 . S
C1902 C1901 1.334 . S
C1902 C1903 1.287 . S
C1903 C1902 1.287 . S
C1903 C1904 1.524 . S
C1903 H1906 0.999 . S
C1904 H1874 0.950 . S
C1904 C1903 1.524 . S
C1904 C1905 1.415 . S
C1905 H1875 0.950 . S
C1905 C1900 1.363 . S
C1905 C1904 1.415 . S
H1906 C1903 0.999 . S
H1907 C1888 0.913 . S
C427 C292 0.654 . S
C442 C20 0.654 . S
C477 C54 0.655 . S
C492 C326 0.655 . S
C527 C88 0.655 . S
C542 C360 0.655 1_556 S
C577 C122 0.654 1_554 S
C592 C394 0.655 . S
C627 C156 0.655 . S
C642 C224 0.655 . S
C677 C190 0.654 . S
C692 C258 0.654 . S
C727 C9 1.517 . S
C742 C203 1.659 . S
C777 C33 1.659 . S
C792 C43 1.516 . S
C827 C77 1.517 . S
C842 C67 1.659 . S
C877 C101 1.659 . S
C892 C111 1.517 . S
C927 C135 1.659 . S
C942 C145 1.517 . S
C977 C179 1.516 . S
C992 C169 1.659 . S
C1027 C271 1.659 . S
C1042 C213 1.517 . S
C1077 C305 1.659 . S
C1092 C247 1.517 . S
C1127 C339 1.659 . S
C1142 C281 1.517 . S
C1177 C373 1.659 . S
C1192 C315 1.516 . S
C1227 C407 1.659 . S
C1242 C349 1.516 . S
C1277 C383 1.516 . S
C1292 C237 1.659 . S
C1327 C2 0.982 . S
C1342 C206 0.983 . S
C1377 C36 0.983 . S
C1392 C240 0.983 . S
C1427 C70 0.982 . S
C1442 C274 0.982 . S
C1477 C104 0.984 . S
C1492 C308 0.984 . S
C1527 C342 0.983 . S
C1542 C138 0.983 . S
C1577 C172 0.984 . S
C1592 C376 0.984 . S
C1627 C311 1.136 . S
C1642 C5 1.136 . S
C1677 C39 1.136 . S
C1692 C345 1.135 . S
C1727 C73 1.136 . S
C1742 C379 1.136 . S
C1777 C107 1.136 . S
C1792 C209 1.137 . S
C1827 C141 1.135 . S
C1842 C243 1.136 . S
C1877 C277 1.136 . S
C1892 C175 1.136 . S
