# Generated by pormake.
# Topology uon, (4)-cn, num edge types: 1
# Building blocks:
#     Node 0, Type 0, BuildingBlock: KOZSID_clean_sbu_0, # of connection points: 4
#     Node 1, Type 0, BuildingBlock: KOZSID_clean_sbu_0, # of connection points: 4
#     Node 2, Type 0, BuildingBlock: KOZSID_clean_sbu_0, # of connection points: 4
#     Node 3, Type 0, BuildingBlock: KOZSID_clean_sbu_0, # of connection points: 4
#     Node 4, Type 0, BuildingBlock: KOZSID_clean_sbu_0, # of connection points: 4
#     Node 5, Type 0, BuildingBlock: KOZSID_clean_sbu_0, # of connection points: 4
#     Edge 6, Type (0, 0), BuildingBlock: XIVTED_clean_linker_0, # of connection points: 2
#     Edge 7, Type (0, 0), BuildingBlock: XIVTED_clean_linker_0, # of connection points: 2
#     Edge 8, Type (0, 0), BuildingBlock: XIVTED_clean_linker_0, # of connection points: 2
#     Edge 9, Type (0, 0), BuildingBlock: XIVTED_clean_linker_0, # of connection points: 2
#     Edge 10, Type (0, 0), BuildingBlock: XIVTED_clean_linker_0, # of connection points: 2
#     Edge 11, Type (0, 0), BuildingBlock: XIVTED_clean_linker_0, # of connection points: 2
#     Edge 12, Type (0, 0), BuildingBlock: XIVTED_clean_linker_0, # of connection points: 2
#     Edge 13, Type (0, 0), BuildingBlock: XIVTED_clean_linker_0, # of connection points: 2
#     Edge 14, Type (0, 0), BuildingBlock: XIVTED_clean_linker_0, # of connection points: 2
#     Edge 15, Type (0, 0), BuildingBlock: XIVTED_clean_linker_0, # of connection points: 2
#     Edge 16, Type (0, 0), BuildingBlock: XIVTED_clean_linker_0, # of connection points: 2
#     Edge 17, Type (0, 0), BuildingBlock: XIVTED_clean_linker_0, # of connection points: 2
# Relax obj value: 0.068
# Max RMSD: 0.128
# Mean RMSD: 0.128
data_MOF--net-uon--node1-KOZSID_clean_sbu_0--edge1-XIVTED_clean_linker_0
_symmetry_space_group_name_H-M    P1
_symmetry_Int_Tables_number       1
_symmetry_cell_setting            triclinic
loop_
_symmetry_equiv_pos_as_xyz
'x, y, z'
_cell_length_a     38.31189
_cell_length_b     38.325739
_cell_length_c     33.87781
_cell_angle_alpha  90.02044
_cell_angle_beta   90.017197
_cell_angle_gamma 120.0024
loop_
_atom_site_label
_atom_site_type_symbol
_atom_site_fract_x
_atom_site_fract_y
_atom_site_fract_z
_atom_type_partial_charge
C0 C 0.13253 0.35913 0.01535 0.0
C1 C 0.09409 0.34374 0.99962 0.0
C2 C 0.09889 0.35719 0.96144 0.0
C3 C 0.13975 0.38037 0.95608 0.0
N4 N 0.16089 0.38234 0.98853 0.0
Co5 Co 0.22026 0.41483 0.99478 0.0
N6 N 0.22528 0.44959 0.94921 0.0
C7 C 0.19719 0.44058 0.92103 0.0
C8 C 0.20928 0.46936 0.89218 0.0
C9 C 0.2476 0.49806 0.90246 0.0
C10 C 0.25684 0.48518 0.9373 0.0
N11 N 0.27974 0.44689 1.00098 0.0
C12 C 0.30684 0.48275 0.98486 0.0
C13 C 0.34572 0.49396 0.99697 0.0
C14 C 0.34281 0.46346 0.02038 0.0
C15 C 0.30247 0.4355 0.02162 0.0
N16 N 0.21482 0.37994 0.04021 0.0
C17 C 0.24422 0.37498 0.05603 0.0
C18 C 0.23114 0.34912 0.08772 0.0
C19 C 0.19103 0.33721 0.09195 0.0
C20 C 0.18201 0.35667 0.0626 0.0
N21 N 0.22692 0.37811 0.95932 0.0
C22 C 0.24545 0.32699 0.9163 0.0
C23 C 0.213 0.31112 0.94281 0.0
C24 C 0.20425 0.33723 0.96406 0.0
C25 C 0.26666 0.36866 0.91008 0.0
C26 C 0.25685 0.39352 0.9316 0.0
N27 N 0.21414 0.45147 0.03064 0.0
C28 C 0.2313 0.48775 0.09213 0.0
C29 C 0.20394 0.50116 0.08482 0.0
C30 C 0.18222 0.48957 0.0492 0.0
C31 C 0.18785 0.46484 0.0225 0.0
C32 C 0.23579 0.46297 0.06495 0.0
H33 H 0.17061 0.45614 0.99551 0.0
H34 H 0.25671 0.45289 0.07196 0.0
H35 H 0.18009 0.32445 0.98537 0.0
H36 H 0.27467 0.42545 0.92668 0.0
C37 C 0.15842 0.4074 0.92506 0.0
C38 C 0.14171 0.3508 0.0552 0.0
C39 C 0.29746 0.50455 0.95475 0.0
C40 C 0.28449 0.40106 0.0456 0.0
H41 H 0.06543 0.32549 0.01404 0.0
H42 H 0.07531 0.35277 0.94098 0.0
H43 H 0.19216 0.46971 0.86691 0.0
H44 H 0.26688 0.52473 0.8854 0.0
H45 H 0.37341 0.52094 0.98899 0.0
H46 H 0.36715 0.46223 0.03532 0.0
H47 H 0.24899 0.34141 0.10671 0.0
H48 H 0.1708 0.31672 0.11407 0.0
H49 H 0.19564 0.27902 0.94833 0.0
H50 H 0.29129 0.38216 0.88914 0.0
H51 H 0.24957 0.49652 0.11862 0.0
H52 H 0.16051 0.49888 0.04222 0.0
C53 C 0.78183 0.1426 0.36071 0.0
C54 C 0.75728 0.10292 0.34879 0.0
C55 C 0.73971 0.10415 0.31423 0.0
C56 C 0.75428 0.14427 0.30718 0.0
N57 N 0.7809 0.1689 0.33457 0.0
Co58 Co 0.80661 0.22911 0.33758 0.0
N59 N 0.77645 0.2305 0.28975 0.0
C60 C 0.7511 0.19877 0.26709 0.0
C61 C 0.73655 0.20903 0.23491 0.0
C62 C 0.75393 0.24987 0.23678 0.0
C63 C 0.77802 0.26223 0.27036 0.0
N64 N 0.83149 0.28924 0.34132 0.0
C65 C 0.8272 0.31538 0.31757 0.0
C66 C 0.84987 0.35476 0.33097 0.0
C67 C 0.86973 0.35358 0.36396 0.0
C68 C 0.85794 0.31371 0.36901 0.0
N69 N 0.83735 0.22767 0.38489 0.0
C70 C 0.86594 0.25958 0.40525 0.0
C71 C 0.88032 0.24886 0.43737 0.0
C72 C 0.85916 0.2077 0.43794 0.0
C73 C 0.83295 0.1957 0.4061 0.0
N74 N 0.85162 0.23601 0.30267 0.0
C75 C 0.91553 0.25008 0.25087 0.0
C76 C 0.92173 0.27502 0.28336 0.0
C77 C 0.89003 0.26721 0.30874 0.0
C78 C 0.87659 0.21728 0.24534 0.0
C79 C 0.84536 0.21102 0.27118 0.0
N80 N 0.76207 0.22248 0.37255 0.0
C81 C 0.74054 0.23778 0.434 0.0
C82 C 0.70003 0.21204 0.42472 0.0
C83 C 0.69108 0.19137 0.38867 0.0
C84 C 0.72237 0.19707 0.36313 0.0
C85 C 0.77063 0.24263 0.40779 0.0
H86 H 0.71391 0.1806 0.33601 0.0
H87 H 0.8007 0.26263 0.41699 0.0
H88 H 0.89752 0.2875 0.33271 0.0
H89 H 0.8164 0.18596 0.2648 0.0
C90 C 0.74173 0.15966 0.27655 0.0
C91 C 0.80282 0.15379 0.39851 0.0
C92 C 0.80289 0.30451 0.28164 0.0
C93 C 0.87369 0.29867 0.39731 0.0
H94 H 0.75151 0.07577 0.36405 0.0
H95 H 0.71771 0.07877 0.29712 0.0
H96 H 0.71619 0.18922 0.21242 0.0
H97 H 0.74981 0.26842 0.21535 0.0
H98 H 0.85235 0.38164 0.31781 0.0
H99 H 0.89106 0.37892 0.38155 0.0
H100 H 0.90191 0.2686 0.45909 0.0
H101 H 0.86159 0.18862 0.46003 0.0
H102 H 0.95079 0.30137 0.28901 0.0
H103 H 0.86995 0.19638 0.22119 0.0
H104 H 0.74931 0.25388 0.4618 0.0
H105 H 0.66013 0.17128 0.37994 0.0
C106 C 0.64607 0.79262 0.70304 0.0
C107 C 0.66144 0.76881 0.6895 0.0
C108 C 0.64227 0.75216 0.65478 0.0
C109 C 0.61647 0.76674 0.64911 0.0
N110 N 0.61838 0.79212 0.67782 0.0
Co111 Co 0.58615 0.82013 0.68116 0.0
N112 N 0.55303 0.79014 0.634 0.0
C113 C 0.55535 0.76109 0.61346 0.0
C114 C 0.52761 0.74453 0.58369 0.0
C115 C 0.50642 0.76438 0.58503 0.0
C116 C 0.52292 0.79242 0.61539 0.0
N117 N 0.55509 0.84951 0.68336 0.0
C118 C 0.52651 0.84807 0.65854 0.0
C119 C 0.51521 0.87605 0.66902 0.0
C120 C 0.53741 0.89587 0.7015 0.0
C121 C 0.56114 0.87921 0.70887 0.0
N122 N 0.6179 0.84837 0.72971 0.0
C123 C 0.61445 0.87601 0.75162 0.0
C124 C 0.63775 0.88749 0.78507 0.0
C125 C 0.65654 0.86516 0.78502 0.0
C126 C 0.64364 0.84144 0.75133 0.0
N127 N 0.62626 0.86386 0.64644 0.0
C128 C 0.67468 0.92768 0.59446 0.0
C129 C 0.66987 0.93504 0.63386 0.0
C130 C 0.64595 0.90313 0.65903 0.0
C131 C 0.65687 0.88753 0.58213 0.0
C132 C 0.63317 0.85631 0.60847 0.0
N133 N 0.5461 0.77692 0.7159 0.0
C134 C 0.50323 0.75739 0.77355 0.0
C135 C 0.492 0.71692 0.76843 0.0
C136 C 0.50825 0.70703 0.73613 0.0
C137 C 0.53507 0.73728 0.71044 0.0
C138 C 0.52973 0.78645 0.74713 0.0
H139 H 0.54673 0.72804 0.68646 0.0
H140 H 0.53692 0.81661 0.75293 0.0
H141 H 0.64338 0.91137 0.68833 0.0
H142 H 0.62002 0.82641 0.59711 0.0
C143 C 0.58607 0.75248 0.62075 0.0
C144 C 0.6559 0.8121 0.74158 0.0
C145 C 0.51025 0.82176 0.62407 0.0
C146 C 0.58847 0.88992 0.74015 0.0
H147 H 0.68302 0.76275 0.70399 0.0
H148 H 0.64517 0.73029 0.63697 0.0
H149 H 0.52389 0.72149 0.56286 0.0
H150 H 0.48211 0.75933 0.56529 0.0
H151 H 0.49352 0.8819 0.65445 0.0
H152 H 0.53651 0.91977 0.71768 0.0
H153 H 0.64015 0.90891 0.80727 0.0
H154 H 0.67699 0.86577 0.80742 0.0
H155 H 0.68413 0.9655 0.64532 0.0
H156 H 0.65994 0.88015 0.55194 0.0
H157 H 0.49228 0.76701 0.79834 0.0
H158 H 0.50016 0.67609 0.73039 0.0
C159 C 0.87238 0.63729 0.011 0.0
C160 C 0.91062 0.65059 0.99562 0.0
C161 C 0.90534 0.6356 0.95801 0.0
C162 C 0.8644 0.61362 0.95263 0.0
N163 N 0.84363 0.61386 0.98453 0.0
Co164 Co 0.78418 0.58362 0.99072 0.0
N165 N 0.77769 0.54666 0.94664 0.0
C166 C 0.80558 0.55347 0.91889 0.0
C167 C 0.79252 0.52353 0.89112 0.0
C168 C 0.75374 0.49641 0.90162 0.0
C169 C 0.74522 0.51135 0.93549 0.0
N170 N 0.72464 0.55375 0.99693 0.0
C171 C 0.69648 0.51792 0.98151 0.0
C172 C 0.658 0.50875 0.99299 0.0
C173 C 0.66228 0.54051 0.0153 0.0
C174 C 0.70297 0.56712 0.01652 0.0
N175 N 0.79111 0.62074 0.03461 0.0
C176 C 0.76262 0.62773 0.04941 0.0
C177 C 0.77658 0.65479 0.08015 0.0
C178 C 0.81629 0.66533 0.08486 0.0
C179 C 0.82421 0.6439 0.05672 0.0
N180 N 0.77923 0.62005 0.95342 0.0
C181 C 0.76193 0.67108 0.90877 0.0
C182 C 0.79462 0.68705 0.93503 0.0
C183 C 0.8028 0.66098 0.95709 0.0
C184 C 0.74008 0.62931 0.90337 0.0
C185 C 0.74928 0.60449 0.9257 0.0
N186 N 0.78845 0.54721 0.02839 0.0
C187 C 0.7699 0.51308 0.09101 0.0
C188 C 0.79394 0.49572 0.08385 0.0
C189 C 0.81556 0.50512 0.04824 0.0
C190 C 0.81239 0.53089 0.02093 0.0
C191 C 0.76745 0.53841 0.06303 0.0
H192 H 0.82922 0.53758 0.99378 0.0
H193 H 0.74858 0.55106 0.06964 0.0
H194 H 0.82708 0.67385 0.97828 0.0
H195 H 0.7308 0.57252 0.92154 0.0
C196 C 0.84496 0.5857 0.92243 0.0
C197 C 0.86382 0.64778 0.05014 0.0
C198 C 0.70456 0.4943 0.95242 0.0
C199 C 0.7221 0.60243 0.03927 0.0
H200 H 0.93943 0.66844 0.00994 0.0
H201 H 0.92857 0.63822 0.93802 0.0
H202 H 0.80928 0.52141 0.86642 0.0
H203 H 0.73371 0.46943 0.88529 0.0
H204 H 0.62971 0.48236 0.98521 0.0
H205 H 0.63857 0.54349 0.02943 0.0
H206 H 0.7595 0.66417 0.0983 0.0
H207 H 0.83699 0.68619 0.10651 0.0
H208 H 0.81252 0.71924 0.93986 0.0
H209 H 0.71526 0.6157 0.88261 0.0
H210 H 0.75326 0.50755 0.11831 0.0
H211 H 0.8343 0.49221 0.04118 0.0
C212 C 0.22297 0.86181 0.35482 0.0
C213 C 0.2478 0.90118 0.34206 0.0
C214 C 0.26548 0.89905 0.30798 0.0
C215 C 0.25091 0.85881 0.30197 0.0
N216 N 0.22424 0.83486 0.32969 0.0
Co217 Co 0.19911 0.77475 0.33436 0.0
N218 N 0.2296 0.77237 0.28729 0.0
C219 C 0.25617 0.80374 0.26501 0.0
C220 C 0.27199 0.79289 0.23429 0.0
C221 C 0.25391 0.752 0.23657 0.0
C222 C 0.22774 0.74021 0.26853 0.0
N223 N 0.17442 0.71467 0.33938 0.0
C224 C 0.17758 0.68788 0.31552 0.0
C225 C 0.15371 0.64861 0.32883 0.0
C226 C 0.13474 0.6506 0.3621 0.0
C227 C 0.14781 0.69073 0.36719 0.0
N228 N 0.16832 0.77712 0.38113 0.0
C229 C 0.14041 0.74565 0.40241 0.0
C230 C 0.12513 0.75683 0.43341 0.0
C231 C 0.14506 0.79794 0.43234 0.0
C232 C 0.17162 0.80947 0.40079 0.0
N233 N 0.15415 0.76663 0.2988 0.0
C234 C 0.09036 0.75089 0.24615 0.0
C235 C 0.08377 0.72794 0.28031 0.0
C236 C 0.11548 0.73657 0.30608 0.0
C237 C 0.12965 0.78257 0.23937 0.0
C238 C 0.16082 0.78963 0.26564 0.0
N239 N 0.24381 0.78279 0.37006 0.0
C240 C 0.26593 0.7694 0.43225 0.0
C241 C 0.30597 0.79839 0.42449 0.0
C242 C 0.31445 0.81864 0.38829 0.0
C243 C 0.28321 0.81032 0.36166 0.0
C244 C 0.23572 0.76222 0.40502 0.0
H245 H 0.29155 0.82695 0.33475 0.0
H246 H 0.20593 0.74016 0.4132 0.0
H247 H 0.10783 0.71787 0.33137 0.0
H248 H 0.19009 0.81361 0.25825 0.0
C249 C 0.26469 0.84291 0.27288 0.0
C250 C 0.20118 0.85147 0.39234 0.0
C251 C 0.20073 0.69804 0.27883 0.0
C252 C 0.13257 0.70644 0.39526 0.0
H253 H 0.25403 0.92889 0.35637 0.0
H254 H 0.28785 0.92399 0.29071 0.0
H255 H 0.29354 0.81234 0.21241 0.0
H256 H 0.2589 0.73295 0.2165 0.0
H257 H 0.14934 0.62116 0.31527 0.0
H258 H 0.11271 0.62559 0.37954 0.0
H259 H 0.10343 0.7375 0.45523 0.0
H260 H 0.14155 0.81735 0.45323 0.0
H261 H 0.05441 0.70252 0.28704 0.0
H262 H 0.13664 0.80199 0.2139 0.0
H263 H 0.25769 0.75198 0.45927 0.0
H264 H 0.34491 0.84149 0.38073 0.0
C265 C 0.35241 0.2051 0.70615 0.0
C266 C 0.33718 0.22997 0.69581 0.0
C267 C 0.35556 0.24839 0.66139 0.0
C268 C 0.38085 0.23381 0.65282 0.0
N269 N 0.3791 0.20646 0.67912 0.0
Co270 Co 0.41272 0.17975 0.67953 0.0
N271 N 0.44341 0.21062 0.63165 0.0
C272 C 0.43697 0.23672 0.61031 0.0
C273 C 0.46114 0.2517 0.57775 0.0
C274 C 0.48429 0.23392 0.57802 0.0
C275 C 0.47307 0.20921 0.61111 0.0
N276 N 0.44715 0.15383 0.68058 0.0
C277 C 0.47716 0.15849 0.65598 0.0
C278 C 0.49354 0.135 0.66766 0.0
C279 C 0.4728 0.11433 0.70045 0.0
C280 C 0.4452 0.12649 0.70711 0.0
N281 N 0.38132 0.14833 0.72694 0.0
C282 C 0.38464 0.11911 0.74601 0.0
C283 C 0.36028 0.10444 0.77862 0.0
C284 C 0.34075 0.12602 0.78086 0.0
C285 C 0.35444 0.15269 0.74941 0.0
N286 N 0.37324 0.13588 0.64439 0.0
C287 C 0.32179 0.07354 0.59191 0.0
C288 C 0.34035 0.06609 0.62374 0.0
C289 C 0.36507 0.09706 0.64947 0.0
C290 C 0.32885 0.1129 0.58743 0.0
C291 C 0.35455 0.14334 0.61364 0.0
N292 N 0.45207 0.22316 0.71467 0.0
C293 C 0.49081 0.2429 0.77512 0.0
C294 C 0.50666 0.28371 0.76656 0.0
C295 C 0.49439 0.29369 0.73139 0.0
C296 C 0.46724 0.26313 0.70604 0.0
C297 C 0.46414 0.21356 0.74904 0.0
H298 H 0.45882 0.27238 0.67966 0.0
H299 H 0.45346 0.18322 0.75761 0.0
H300 H 0.37774 0.08867 0.67285 0.0
H301 H 0.35907 0.17266 0.60814 0.0
C302 C 0.40799 0.24661 0.6215 0.0
C303 C 0.34288 0.18316 0.7433 0.0
C304 C 0.49077 0.18428 0.62105 0.0
C305 C 0.41523 0.11075 0.73624 0.0
H306 H 0.31591 0.23518 0.71211 0.0
H307 H 0.35193 0.27075 0.64525 0.0
H308 H 0.46156 0.2727 0.55614 0.0
H309 H 0.50654 0.23833 0.55595 0.0
H310 H 0.51766 0.13266 0.65361 0.0
H311 H 0.47683 0.09244 0.71699 0.0
H312 H 0.3586 0.0823 0.79953 0.0
H313 H 0.31988 0.12348 0.80373 0.0
H314 H 0.33692 0.03662 0.62855 0.0
H315 H 0.31478 0.12045 0.56379 0.0
H316 H 0.49844 0.23332 0.80226 0.0
H317 H 0.50599 0.32486 0.72315 0.0
H318 H 0.32216 0.34097 0.9083 0.0
H319 H 0.26388 0.15666 0.76116 0.0
H320 H 0.1991 0.25386 0.87915 0.0
H321 H 0.38509 0.24083 0.79782 0.0
H322 H 0.23839 0.18751 0.80832 0.0
H323 H 0.34481 0.30115 0.87183 0.0
C324 C 0.29986 0.31339 0.89414 0.0
C325 C 0.2587 0.30103 0.89629 0.0
C326 C 0.27051 0.19882 0.80656 0.0
C327 C 0.28449 0.25492 0.85443 0.0
C328 C 0.28493 0.18107 0.77991 0.0
C329 C 0.32646 0.19623 0.77612 0.0
C330 C 0.29799 0.23212 0.82917 0.0
C331 C 0.3528 0.22824 0.80032 0.0
C332 C 0.31281 0.29049 0.87348 0.0
C333 C 0.23112 0.26452 0.87815 0.0
N334 N 0.33816 0.24534 0.8256 0.0
N335 N 0.24453 0.24294 0.8576 0.0
H336 H 0.91138 0.2354 0.17053 0.0
H337 H 0.14075 0.38212 0.12695 0.0
H338 H 0.99724 0.28639 0.26619 0.0
H339 H 0.07179 0.27731 0.05422 0.0
H340 H 0.08649 0.35371 0.17643 0.0
H341 H 0.96742 0.25582 0.12458 0.0
C342 C 0.94175 0.25037 0.18217 0.0
C343 C 0.94917 0.25943 0.22263 0.0
C344 C 0.08332 0.33699 0.1496 0.0
C345 C 0.01354 0.2841 0.16957 0.0
C346 C 0.11411 0.35316 0.12148 0.0
C347 C 0.10998 0.33255 0.08607 0.0
C348 C 0.04804 0.30026 0.14189 0.0
C349 C 0.07532 0.2948 0.08054 0.0
C350 C 0.97375 0.26224 0.15574 0.0
C351 C 0.98965 0.27971 0.23532 0.0
N352 N 0.04527 0.28014 0.10782 0.0
N353 N 0.02023 0.29185 0.20887 0.0
H354 H 0.75725 0.1484 0.46195 0.0
H355 H 0.72691 0.93565 0.53443 0.0
H356 H 0.81684 0.09076 0.40752 0.0
H357 H 0.67215 0.99767 0.5904 0.0
H358 H 0.76165 0.99243 0.48869 0.0
H359 H 0.72841 0.09455 0.51138 0.0
C360 C 0.76457 0.12451 0.46087 0.0
C361 C 0.78916 0.12364 0.43083 0.0
C362 C 0.74219 0.99365 0.51115 0.0
C363 C 0.75604 0.0617 0.48665 0.0
C364 C 0.72214 0.96112 0.53711 0.0
C365 C 0.69665 0.96186 0.56649 0.0
C366 C 0.73654 0.02708 0.51442 0.0
C367 C 0.69198 0.99593 0.56873 0.0
C368 C 0.74802 0.0937 0.48887 0.0
C369 C 0.79781 0.09217 0.43035 0.0
N370 N 0.71159 0.02699 0.54307 0.0
N371 N 0.781 0.0622 0.45768 0.0
H372 H 0.80834 0.74317 0.87001 0.0
H373 H 0.61567 0.75698 0.79874 0.0
H374 H 0.68549 0.65801 0.90175 0.0
H375 H 0.73496 0.83356 0.75268 0.0
H376 H 0.64283 0.72648 0.8439 0.0
H377 H 0.78421 0.78254 0.83359 0.0
C378 C 0.77639 0.73297 0.86957 0.0
C379 C 0.74883 0.69698 0.88846 0.0
C380 C 0.66327 0.75022 0.82425 0.0
C381 C 0.72106 0.74174 0.84711 0.0
C382 C 0.64775 0.7677 0.79874 0.0
C383 C 0.67326 0.79763 0.77228 0.0
C384 C 0.70461 0.76273 0.82313 0.0
C385 C 0.71454 0.81051 0.77292 0.0
C386 C 0.76262 0.75531 0.8487 0.0
C387 C 0.70773 0.68511 0.88695 0.0
N388 N 0.72898 0.79277 0.79779 0.0
N389 N 0.69515 0.7073 0.86658 0.0
H390 H 0.86364 0.61888 0.12351 0.0
H391 H 0.09439 0.76109 0.16507 0.0
H392 H 0.9353 0.71973 0.04719 0.0
H393 H 0.00878 0.7171 0.26131 0.0
H394 H 0.03846 0.74013 0.11891 0.0
H395 H 0.91808 0.64769 0.17287 0.0
C396 C 0.8909 0.64705 0.11723 0.0
C397 C 0.89571 0.66637 0.08088 0.0
C398 C 0.03216 0.73535 0.15022 0.0
C399 C 0.95785 0.69908 0.13657 0.0
C400 C 0.06411 0.74755 0.17679 0.0
C401 C 0.05674 0.74072 0.21755 0.0
C402 C 0.99239 0.71533 0.16424 0.0
C403 C 0.01633 0.72208 0.2303 0.0
C404 C 0.9218 0.66345 0.14528 0.0
C405 C 0.93119 0.70317 0.0743 0.0
N406 N 0.98574 0.70956 0.20375 0.0
N407 N 0.96129 0.71801 0.10157 0.0
H408 H 0.31171 0.07951 0.51176 0.0
H409 H 0.23351 0.85289 0.46421 0.0
H410 H 0.27452 0.9919 0.60588 0.0
H411 H 0.19449 0.91974 0.39229 0.0
H412 H 0.25689 0.90607 0.51452 0.0
H413 H 0.2762 0.02436 0.46469 0.0
C414 C 0.29577 0.04894 0.52282 0.0
C415 C 0.29689 0.0407 0.56314 0.0
C416 C 0.24303 0.90896 0.48778 0.0
C417 C 0.25733 0.97745 0.5089 0.0
C418 C 0.22975 0.87874 0.45919 0.0
C419 C 0.2128 0.88246 0.42389 0.0
C420 C 0.24005 0.94345 0.48063 0.0
C421 C 0.20831 0.91636 0.41879 0.0
C422 C 0.27569 0.01747 0.49577 0.0
C423 C 0.27591 1.00006 0.57513 0.0
N424 N 0.22259 0.94603 0.44654 0.0
N425 N 0.25766 0.97003 0.54811 0.0
H426 H 0.16959 0.68323 0.20431 0.0
H427 H 0.20536 0.49743 0.16584 0.0
H428 H 0.22285 0.64096 0.29014 0.0
H429 H 0.19009 0.56431 0.07138 0.0
H430 H 0.20178 0.54325 0.21348 0.0
H431 H 0.16681 0.63328 0.15698 0.0
C432 C 0.18031 0.66307 0.21319 0.0
C433 C 0.19624 0.66587 0.25109 0.0
C434 C 0.19915 0.54784 0.18232 0.0
C435 C 0.19316 0.60884 0.19744 0.0
C436 C 0.20141 0.5218 0.15497 0.0
C437 C 0.19866 0.52721 0.11425 0.0
C438 C 0.19361 0.57943 0.16913 0.0
C439 C 0.19219 0.55868 0.10235 0.0
C440 C 0.17886 0.63474 0.18624 0.0
C441 C 0.21 0.63937 0.26127 0.0
N442 N 0.19001 0.58364 0.12962 0.0
N443 N 0.20809 0.6119 0.23463 0.0
H444 H 0.48461 0.12554 0.57081 0.0
H445 H 0.69795 0.27033 0.4698 0.0
H446 H 0.56793 0.24551 0.6114 0.0
H447 H 0.62882 0.14311 0.44393 0.0
H448 H 0.64827 0.26191 0.51919 0.0
H449 H 0.5351 0.13086 0.52257 0.0
C450 C 0.5138 0.15275 0.56979 0.0
C451 C 0.5224 0.18515 0.5949 0.0
C452 C 0.64391 0.23575 0.50283 0.0
C453 C 0.57973 0.19185 0.5397 0.0
C454 C 0.6724 0.2405 0.47459 0.0
C455 C 0.66797 0.20729 0.45284 0.0
C456 C 0.61026 0.19752 0.50942 0.0
C457 C 0.63346 0.16963 0.45976 0.0
C458 C 0.54247 0.15589 0.54224 0.0
C459 C 0.56036 0.21993 0.59246 0.0
N460 N 0.60597 0.16575 0.4875 0.0
N461 N 0.58751 0.22248 0.56514 0.0
H462 H 0.42707 0.71338 0.80699 0.0
H463 H 0.3538 0.50062 0.90878 0.0
H464 H 0.49228 0.64899 0.79509 0.0
H465 H 0.31472 0.58269 0.94737 0.0
H466 H 0.40293 0.55291 0.86478 0.0
H467 H 0.38322 0.66397 0.85554 0.0
C468 C 0.43248 0.68908 0.8147 0.0
C469 C 0.46385 0.68574 0.79688 0.0
C470 C 0.38405 0.55974 0.88325 0.0
C471 C 0.41282 0.62832 0.85224 0.0
C472 C 0.35628 0.53005 0.90852 0.0
C473 C 0.33083 0.53779 0.93211 0.0
C474 C 0.38576 0.59715 0.88094 0.0
C475 C 0.33428 0.5759 0.92995 0.0
C476 C 0.40722 0.66074 0.84242 0.0
C477 C 0.46834 0.65272 0.80752 0.0
N478 N 0.36103 0.6041 0.90455 0.0
N479 N 0.44309 0.6253 0.8344 0.0
H480 H 0.73259 0.43905 0.12944 0.0
H481 H 0.86477 0.35698 0.23438 0.0
H482 H 0.85942 0.48837 0.10582 0.0
H483 H 0.74386 0.32329 0.26915 0.0
H484 H 0.864 0.40492 0.18661 0.0
H485 H 0.73627 0.39548 0.17951 0.0
C486 C 0.76136 0.44099 0.13491 0.0
C487 C 0.79584 0.46784 0.11342 0.0
C488 C 0.83774 0.38729 0.20487 0.0
C489 C 0.80008 0.41717 0.17073 0.0
C490 C 0.83828 0.36014 0.23213 0.0
C491 C 0.80431 0.33636 0.25546 0.0
C492 C 0.80283 0.39036 0.20084 0.0
C493 C 0.77058 0.34119 0.25154 0.0
C494 C 0.76337 0.41588 0.1635 0.0
C495 C 0.83196 0.468 0.12132 0.0
N496 N 0.77057 0.36743 0.22455 0.0
N497 N 0.83314 0.44309 0.14932 0.0
H498 H 0.38444 0.81693 0.41119 0.0
H499 H 0.4325 0.80309 0.63825 0.0
H500 H 0.30154 0.79987 0.50548 0.0
H501 H 0.52328 0.84699 0.54747 0.0
H502 H 0.38385 0.80176 0.59018 0.0
H503 H 0.43568 0.82812 0.4604 0.0
C504 C 0.37702 0.81589 0.44217 0.0
C505 C 0.3383 0.80706 0.45401 0.0
C506 C 0.41451 0.81213 0.58082 0.0
C507 C 0.39689 0.81927 0.51068 0.0
C508 C 0.44221 0.81301 0.60827 0.0
C509 C 0.48176 0.82527 0.59664 0.0
C510 C 0.42641 0.82308 0.54136 0.0
C511 C 0.49294 0.83742 0.55742 0.0
C512 C 0.40632 0.82212 0.4703 0.0
C513 C 0.33055 0.80563 0.49476 0.0
N514 N 0.46532 0.83568 0.53107 0.0
N515 N 0.35941 0.81138 0.52153 0.0
H516 H 0.5663 0.28245 0.81048 0.0
H517 H 0.652 0.50153 0.90354 0.0
H518 H 0.51337 0.35672 0.78646 0.0
H519 H 0.68197 0.41448 0.94794 0.0
H520 H 0.60224 0.45011 0.85916 0.0
H521 H 0.61083 0.33186 0.85868 0.0
C522 C 0.56376 0.30901 0.81545 0.0
C523 C 0.53556 0.31506 0.79444 0.0
C524 C 0.61924 0.44203 0.87897 0.0
C525 C 0.58736 0.37241 0.84951 0.0
C526 C 0.64735 0.47123 0.90445 0.0
C527 C 0.67048 0.46183 0.92974 0.0
C528 C 0.61479 0.40336 0.87827 0.0
C529 C 0.66426 0.42258 0.92917 0.0
C530 C 0.58939 0.33732 0.84299 0.0
C531 C 0.53475 0.35079 0.80157 0.0
N532 N 0.6372 0.39483 0.90361 0.0
N533 N 0.56025 0.37809 0.82847 0.0
loop_
_geom_bond_atom_site_label_1
_geom_bond_atom_site_label_2
_geom_bond_distance
_geom_bond_site_symmetry_2
_ccdc_geom_bond_type
C0 C1 1.443 . S
C0 N4 1.376 . S
C0 C38 1.389 . S
C1 C0 1.443 . S
C1 C2 1.340 1_554 S
C1 H41 0.951 . S
C2 C1 1.340 1_556 S
C2 C3 1.439 . S
C2 H42 0.950 . S
C3 C2 1.439 . S
C3 N4 1.374 1_556 S
C3 C37 1.395 . S
N4 C0 1.376 . S
N4 C3 1.374 1_554 S
N4 Co5 2.008 . S
Co5 N4 2.008 . S
Co5 N6 1.995 1_554 S
Co5 N11 2.008 . S
Co5 N16 1.995 . S
Co5 N21 2.282 1_554 S
Co5 N27 2.282 . S
N6 Co5 1.995 1_556 S
N6 C7 1.376 . S
N6 C10 1.383 . S
C7 N6 1.376 . S
C7 C8 1.446 . S
C7 C37 1.391 . S
C8 C7 1.446 . S
C8 C9 1.339 . S
C8 H43 0.949 . S
C9 C8 1.339 . S
C9 C10 1.439 . S
C9 H44 0.950 . S
C10 N6 1.383 . S
C10 C9 1.439 . S
C10 C39 1.392 . S
N11 Co5 2.008 . S
N11 C12 1.376 1_554 S
N11 C15 1.374 . S
C12 N11 1.376 1_556 S
C12 C13 1.443 . S
C12 C39 1.389 . S
C13 C12 1.443 . S
C13 C14 1.340 1_556 S
C13 H45 0.951 . S
C14 C13 1.340 1_554 S
C14 C15 1.439 . S
C14 H46 0.950 . S
C15 N11 1.374 . S
C15 C14 1.439 . S
C15 C40 1.395 . S
N16 Co5 1.995 . S
N16 C17 1.376 . S
N16 C20 1.383 . S
C17 N16 1.376 . S
C17 C18 1.446 . S
C17 C40 1.391 . S
C18 C17 1.446 . S
C18 C19 1.339 . S
C18 H47 0.949 . S
C19 C18 1.339 . S
C19 C20 1.439 . S
C19 H48 0.950 . S
C20 N16 1.383 . S
C20 C19 1.439 . S
C20 C38 1.392 . S
N21 Co5 2.282 1_556 S
N21 C24 1.332 . S
N21 C26 1.332 . S
C22 C23 1.386 . S
C22 C25 1.388 . S
C23 C22 1.386 . S
C23 C24 1.382 . S
C23 H49 0.950 . S
C24 N21 1.332 . S
C24 C23 1.382 . S
C24 H35 0.952 1_556 S
C25 C22 1.388 . S
C25 C26 1.382 . S
C25 H50 0.950 . S
C26 N21 1.332 . S
C26 C25 1.382 . S
C26 H36 0.948 . S
N27 Co5 2.282 . S
N27 C31 1.332 . S
N27 C32 1.332 . S
C28 C29 1.388 . S
C28 C32 1.382 . S
C28 H51 0.950 . S
C29 C28 1.388 . S
C29 C30 1.386 . S
C30 C29 1.386 . S
C30 C31 1.382 . S
C30 H52 0.950 . S
C31 N27 1.332 . S
C31 C30 1.382 . S
C31 H33 0.952 . S
C32 N27 1.332 . S
C32 C28 1.382 . S
C32 H34 0.948 . S
H33 C31 0.952 . S
H34 C32 0.948 . S
H35 C24 0.952 1_554 S
H36 C26 0.948 . S
C37 C3 1.395 . S
C37 C7 1.391 . S
C38 C0 1.389 . S
C38 C20 1.392 . S
C39 C10 1.392 . S
C39 C12 1.389 . S
C40 C15 1.395 . S
C40 C17 1.391 . S
H41 C1 0.951 . S
H42 C2 0.950 . S
H43 C8 0.949 . S
H44 C9 0.950 . S
H45 C13 0.951 . S
H46 C14 0.950 . S
H47 C18 0.949 . S
H48 C19 0.950 . S
H49 C23 0.950 . S
H50 C25 0.950 . S
H51 C28 0.950 . S
H52 C30 0.950 . S
C53 C54 1.443 . S
C53 N57 1.376 . S
C53 C91 1.389 . S
C54 C53 1.443 . S
C54 C55 1.340 . S
C54 H94 0.951 . S
C55 C54 1.340 . S
C55 C56 1.439 . S
C55 H95 0.950 . S
C56 C55 1.439 . S
C56 N57 1.374 . S
C56 C90 1.395 . S
N57 C53 1.376 . S
N57 C56 1.374 . S
N57 Co58 2.008 . S
Co58 N57 2.008 . S
Co58 N59 1.995 . S
Co58 N64 2.008 . S
Co58 N69 1.995 . S
Co58 N74 2.282 . S
Co58 N80 2.282 . S
N59 Co58 1.995 . S
N59 C60 1.376 . S
N59 C63 1.383 . S
C60 N59 1.376 . S
C60 C61 1.446 . S
C60 C90 1.391 . S
C61 C60 1.446 . S
C61 C62 1.339 . S
C61 H96 0.949 . S
C62 C61 1.339 . S
C62 C63 1.439 . S
C62 H97 0.950 . S
C63 N59 1.383 . S
C63 C62 1.439 . S
C63 C92 1.392 . S
N64 Co58 2.008 . S
N64 C65 1.376 . S
N64 C68 1.374 . S
C65 N64 1.376 . S
C65 C66 1.443 . S
C65 C92 1.389 . S
C66 C65 1.443 . S
C66 C67 1.340 . S
C66 H98 0.951 . S
C67 C66 1.340 . S
C67 C68 1.439 . S
C67 H99 0.950 . S
C68 N64 1.374 . S
C68 C67 1.439 . S
C68 C93 1.395 . S
N69 Co58 1.995 . S
N69 C70 1.376 . S
N69 C73 1.383 . S
C70 N69 1.376 . S
C70 C71 1.446 . S
C70 C93 1.391 . S
C71 C70 1.446 . S
C71 C72 1.339 . S
C71 H100 0.949 . S
C72 C71 1.339 . S
C72 C73 1.439 . S
C72 H101 0.950 . S
C73 N69 1.383 . S
C73 C72 1.439 . S
C73 C91 1.392 . S
N74 Co58 2.282 . S
N74 C77 1.332 . S
N74 C79 1.332 . S
C75 C76 1.386 . S
C75 C78 1.388 . S
C76 C75 1.386 . S
C76 C77 1.382 . S
C76 H102 0.950 . S
C77 N74 1.332 . S
C77 C76 1.382 . S
C77 H88 0.952 . S
C78 C75 1.388 . S
C78 C79 1.382 . S
C78 H103 0.950 . S
C79 N74 1.332 . S
C79 C78 1.382 . S
C79 H89 0.948 . S
N80 Co58 2.282 . S
N80 C84 1.332 . S
N80 C85 1.332 . S
C81 C82 1.388 . S
C81 C85 1.382 . S
C81 H104 0.950 . S
C82 C81 1.388 . S
C82 C83 1.386 . S
C83 C82 1.386 . S
C83 C84 1.382 . S
C83 H105 0.950 . S
C84 N80 1.332 . S
C84 C83 1.382 . S
C84 H86 0.952 . S
C85 N80 1.332 . S
C85 C81 1.382 . S
C85 H87 0.948 . S
H86 C84 0.952 . S
H87 C85 0.948 . S
H88 C77 0.952 . S
H89 C79 0.948 . S
C90 C56 1.395 . S
C90 C60 1.391 . S
C91 C53 1.389 . S
C91 C73 1.392 . S
C92 C63 1.392 . S
C92 C65 1.389 . S
C93 C68 1.395 . S
C93 C70 1.391 . S
H94 C54 0.951 . S
H95 C55 0.950 . S
H96 C61 0.949 . S
H97 C62 0.950 . S
H98 C66 0.951 . S
H99 C67 0.950 . S
H100 C71 0.949 . S
H101 C72 0.950 . S
H102 C76 0.950 . S
H103 C78 0.950 . S
H104 C81 0.950 . S
H105 C83 0.950 . S
C106 C107 1.443 . S
C106 N110 1.376 . S
C106 C144 1.389 . S
C107 C106 1.443 . S
C107 C108 1.340 . S
C107 H147 0.951 . S
C108 C107 1.340 . S
C108 C109 1.439 . S
C108 H148 0.950 . S
C109 C108 1.439 . S
C109 N110 1.374 . S
C109 C143 1.395 . S
N110 C106 1.376 . S
N110 C109 1.374 . S
N110 Co111 2.008 . S
Co111 N110 2.008 . S
Co111 N112 1.995 . S
Co111 N117 2.008 . S
Co111 N122 1.995 . S
Co111 N127 2.282 . S
Co111 N133 2.282 . S
N112 Co111 1.995 . S
N112 C113 1.376 . S
N112 C116 1.383 . S
C113 N112 1.376 . S
C113 C114 1.446 . S
C113 C143 1.391 . S
C114 C113 1.446 . S
C114 C115 1.339 . S
C114 H149 0.949 . S
C115 C114 1.339 . S
C115 C116 1.439 . S
C115 H150 0.950 . S
C116 N112 1.383 . S
C116 C115 1.439 . S
C116 C145 1.392 . S
N117 Co111 2.008 . S
N117 C118 1.376 . S
N117 C121 1.374 . S
C118 N117 1.376 . S
C118 C119 1.443 . S
C118 C145 1.389 . S
C119 C118 1.443 . S
C119 C120 1.340 . S
C119 H151 0.951 . S
C120 C119 1.340 . S
C120 C121 1.439 . S
C120 H152 0.950 . S
C121 N117 1.374 . S
C121 C120 1.439 . S
C121 C146 1.395 . S
N122 Co111 1.995 . S
N122 C123 1.376 . S
N122 C126 1.383 . S
C123 N122 1.376 . S
C123 C124 1.446 . S
C123 C146 1.391 . S
C124 C123 1.446 . S
C124 C125 1.339 . S
C124 H153 0.949 . S
C125 C124 1.339 . S
C125 C126 1.439 . S
C125 H154 0.950 . S
C126 N122 1.383 . S
C126 C125 1.439 . S
C126 C144 1.392 . S
N127 Co111 2.282 . S
N127 C130 1.332 . S
N127 C132 1.332 . S
C128 C129 1.386 . S
C128 C131 1.388 . S
C129 C128 1.386 . S
C129 C130 1.382 . S
C129 H155 0.950 . S
C130 N127 1.332 . S
C130 C129 1.382 . S
C130 H141 0.952 . S
C131 C128 1.388 . S
C131 C132 1.382 . S
C131 H156 0.950 . S
C132 N127 1.332 . S
C132 C131 1.382 . S
C132 H142 0.948 . S
N133 Co111 2.282 . S
N133 C137 1.332 . S
N133 C138 1.332 . S
C134 C135 1.388 . S
C134 C138 1.382 . S
C134 H157 0.950 . S
C135 C134 1.388 . S
C135 C136 1.386 . S
C136 C135 1.386 . S
C136 C137 1.382 . S
C136 H158 0.950 . S
C137 N133 1.332 . S
C137 C136 1.382 . S
C137 H139 0.952 . S
C138 N133 1.332 . S
C138 C134 1.382 . S
C138 H140 0.948 . S
H139 C137 0.952 . S
H140 C138 0.948 . S
H141 C130 0.952 . S
H142 C132 0.948 . S
C143 C109 1.395 . S
C143 C113 1.391 . S
C144 C106 1.389 . S
C144 C126 1.392 . S
C145 C116 1.392 . S
C145 C118 1.389 . S
C146 C121 1.395 . S
C146 C123 1.391 . S
H147 C107 0.951 . S
H148 C108 0.950 . S
H149 C114 0.949 . S
H150 C115 0.950 . S
H151 C119 0.951 . S
H152 C120 0.950 . S
H153 C124 0.949 . S
H154 C125 0.950 . S
H155 C129 0.950 . S
H156 C131 0.950 . S
H157 C134 0.950 . S
H158 C136 0.950 . S
C159 C160 1.443 . S
C159 N163 1.376 . S
C159 C197 1.389 . S
C160 C159 1.443 . S
C160 C161 1.340 1_554 S
C160 H200 0.951 . S
C161 C160 1.340 1_556 S
C161 C162 1.439 . S
C161 H201 0.950 . S
C162 C161 1.439 . S
C162 N163 1.374 1_556 S
C162 C196 1.395 . S
N163 C159 1.376 . S
N163 C162 1.374 1_554 S
N163 Co164 2.008 . S
Co164 N163 2.008 . S
Co164 N165 1.995 1_554 S
Co164 N170 2.008 . S
Co164 N175 1.995 . S
Co164 N180 2.282 1_554 S
Co164 N186 2.282 . S
N165 Co164 1.995 1_556 S
N165 C166 1.376 . S
N165 C169 1.383 . S
C166 N165 1.376 . S
C166 C167 1.446 . S
C166 C196 1.391 . S
C167 C166 1.446 . S
C167 C168 1.339 . S
C167 H202 0.949 . S
C168 C167 1.339 . S
C168 C169 1.439 . S
C168 H203 0.950 . S
C169 N165 1.383 . S
C169 C168 1.439 . S
C169 C198 1.392 . S
N170 Co164 2.008 . S
N170 C171 1.376 1_554 S
N170 C174 1.374 . S
C171 N170 1.376 1_556 S
C171 C172 1.443 . S
C171 C198 1.389 . S
C172 C171 1.443 . S
C172 C173 1.340 1_556 S
C172 H204 0.951 . S
C173 C172 1.340 1_554 S
C173 C174 1.439 . S
C173 H205 0.950 . S
C174 N170 1.374 . S
C174 C173 1.439 . S
C174 C199 1.395 . S
N175 Co164 1.995 . S
N175 C176 1.376 . S
N175 C179 1.383 . S
C176 N175 1.376 . S
C176 C177 1.446 . S
C176 C199 1.391 . S
C177 C176 1.446 . S
C177 C178 1.339 . S
C177 H206 0.949 . S
C178 C177 1.339 . S
C178 C179 1.439 . S
C178 H207 0.950 . S
C179 N175 1.383 . S
C179 C178 1.439 . S
C179 C197 1.392 . S
N180 Co164 2.282 1_556 S
N180 C183 1.332 . S
N180 C185 1.332 . S
C181 C182 1.386 . S
C181 C184 1.388 . S
C182 C181 1.386 . S
C182 C183 1.382 . S
C182 H208 0.950 . S
C183 N180 1.332 . S
C183 C182 1.382 . S
C183 H194 0.952 1_556 S
C184 C181 1.388 . S
C184 C185 1.382 . S
C184 H209 0.950 . S
C185 N180 1.332 . S
C185 C184 1.382 . S
C185 H195 0.948 . S
N186 Co164 2.282 . S
N186 C190 1.332 . S
N186 C191 1.332 . S
C187 C188 1.388 . S
C187 C191 1.382 . S
C187 H210 0.950 . S
C188 C187 1.388 . S
C188 C189 1.386 . S
C189 C188 1.386 . S
C189 C190 1.382 . S
C189 H211 0.950 . S
C190 N186 1.332 . S
C190 C189 1.382 . S
C190 H192 0.952 . S
C191 N186 1.332 . S
C191 C187 1.382 . S
C191 H193 0.948 . S
H192 C190 0.952 . S
H193 C191 0.948 . S
H194 C183 0.952 1_554 S
H195 C185 0.948 . S
C196 C162 1.395 . S
C196 C166 1.391 . S
C197 C159 1.389 . S
C197 C179 1.392 . S
C198 C169 1.392 . S
C198 C171 1.389 . S
C199 C174 1.395 . S
C199 C176 1.391 . S
H200 C160 0.951 . S
H201 C161 0.950 . S
H202 C167 0.949 . S
H203 C168 0.950 . S
H204 C172 0.951 . S
H205 C173 0.950 . S
H206 C177 0.949 . S
H207 C178 0.950 . S
H208 C182 0.950 . S
H209 C184 0.950 . S
H210 C187 0.950 . S
H211 C189 0.950 . S
C212 C213 1.443 . S
C212 N216 1.376 . S
C212 C250 1.389 . S
C213 C212 1.443 . S
C213 C214 1.340 . S
C213 H253 0.951 . S
C214 C213 1.340 . S
C214 C215 1.439 . S
C214 H254 0.950 . S
C215 C214 1.439 . S
C215 N216 1.374 . S
C215 C249 1.395 . S
N216 C212 1.376 . S
N216 C215 1.374 . S
N216 Co217 2.008 . S
Co217 N216 2.008 . S
Co217 N218 1.995 . S
Co217 N223 2.008 . S
Co217 N228 1.995 . S
Co217 N233 2.282 . S
Co217 N239 2.282 . S
N218 Co217 1.995 . S
N218 C219 1.376 . S
N218 C222 1.383 . S
C219 N218 1.376 . S
C219 C220 1.446 . S
C219 C249 1.391 . S
C220 C219 1.446 . S
C220 C221 1.339 . S
C220 H255 0.949 . S
C221 C220 1.339 . S
C221 C222 1.439 . S
C221 H256 0.950 . S
C222 N218 1.383 . S
C222 C221 1.439 . S
C222 C251 1.392 . S
N223 Co217 2.008 . S
N223 C224 1.376 . S
N223 C227 1.374 . S
C224 N223 1.376 . S
C224 C225 1.443 . S
C224 C251 1.389 . S
C225 C224 1.443 . S
C225 C226 1.340 . S
C225 H257 0.951 . S
C226 C225 1.340 . S
C226 C227 1.439 . S
C226 H258 0.950 . S
C227 N223 1.374 . S
C227 C226 1.439 . S
C227 C252 1.395 . S
N228 Co217 1.995 . S
N228 C229 1.376 . S
N228 C232 1.383 . S
C229 N228 1.376 . S
C229 C230 1.446 . S
C229 C252 1.391 . S
C230 C229 1.446 . S
C230 C231 1.339 . S
C230 H259 0.949 . S
C231 C230 1.339 . S
C231 C232 1.439 . S
C231 H260 0.950 . S
C232 N228 1.383 . S
C232 C231 1.439 . S
C232 C250 1.392 . S
N233 Co217 2.282 . S
N233 C236 1.332 . S
N233 C238 1.332 . S
C234 C235 1.386 . S
C234 C237 1.388 . S
C235 C234 1.386 . S
C235 C236 1.382 . S
C235 H261 0.950 . S
C236 N233 1.332 . S
C236 C235 1.382 . S
C236 H247 0.952 . S
C237 C234 1.388 . S
C237 C238 1.382 . S
C237 H262 0.950 . S
C238 N233 1.332 . S
C238 C237 1.382 . S
C238 H248 0.948 . S
N239 Co217 2.282 . S
N239 C243 1.332 . S
N239 C244 1.332 . S
C240 C241 1.388 . S
C240 C244 1.382 . S
C240 H263 0.950 . S
C241 C240 1.388 . S
C241 C242 1.386 . S
C242 C241 1.386 . S
C242 C243 1.382 . S
C242 H264 0.950 . S
C243 N239 1.332 . S
C243 C242 1.382 . S
C243 H245 0.952 . S
C244 N239 1.332 . S
C244 C240 1.382 . S
C244 H246 0.948 . S
H245 C243 0.952 . S
H246 C244 0.948 . S
H247 C236 0.952 . S
H248 C238 0.948 . S
C249 C215 1.395 . S
C249 C219 1.391 . S
C250 C212 1.389 . S
C250 C232 1.392 . S
C251 C222 1.392 . S
C251 C224 1.389 . S
C252 C227 1.395 . S
C252 C229 1.391 . S
H253 C213 0.951 . S
H254 C214 0.950 . S
H255 C220 0.949 . S
H256 C221 0.950 . S
H257 C225 0.951 . S
H258 C226 0.950 . S
H259 C230 0.949 . S
H260 C231 0.950 . S
H261 C235 0.950 . S
H262 C237 0.950 . S
H263 C240 0.950 . S
H264 C242 0.950 . S
C265 C266 1.443 . S
C265 N269 1.376 . S
C265 C303 1.389 . S
C266 C265 1.443 . S
C266 C267 1.340 . S
C266 H306 0.951 . S
C267 C266 1.340 . S
C267 C268 1.439 . S
C267 H307 0.950 . S
C268 C267 1.439 . S
C268 N269 1.374 . S
C268 C302 1.395 . S
N269 C265 1.376 . S
N269 C268 1.374 . S
N269 Co270 2.008 . S
Co270 N269 2.008 . S
Co270 N271 1.995 . S
Co270 N276 2.008 . S
Co270 N281 1.995 . S
Co270 N286 2.282 . S
Co270 N292 2.282 . S
N271 Co270 1.995 . S
N271 C272 1.376 . S
N271 C275 1.383 . S
C272 N271 1.376 . S
C272 C273 1.446 . S
C272 C302 1.391 . S
C273 C272 1.446 . S
C273 C274 1.339 . S
C273 H308 0.949 . S
C274 C273 1.339 . S
C274 C275 1.439 . S
C274 H309 0.950 . S
C275 N271 1.383 . S
C275 C274 1.439 . S
C275 C304 1.392 . S
N276 Co270 2.008 . S
N276 C277 1.376 . S
N276 C280 1.374 . S
C277 N276 1.376 . S
C277 C278 1.443 . S
C277 C304 1.389 . S
C278 C277 1.443 . S
C278 C279 1.340 . S
C278 H310 0.951 . S
C279 C278 1.340 . S
C279 C280 1.439 . S
C279 H311 0.950 . S
C280 N276 1.374 . S
C280 C279 1.439 . S
C280 C305 1.395 . S
N281 Co270 1.995 . S
N281 C282 1.376 . S
N281 C285 1.383 . S
C282 N281 1.376 . S
C282 C283 1.446 . S
C282 C305 1.391 . S
C283 C282 1.446 . S
C283 C284 1.339 . S
C283 H312 0.949 . S
C284 C283 1.339 . S
C284 C285 1.439 . S
C284 H313 0.950 . S
C285 N281 1.383 . S
C285 C284 1.439 . S
C285 C303 1.392 . S
N286 Co270 2.282 . S
N286 C289 1.332 . S
N286 C291 1.332 . S
C287 C288 1.386 . S
C287 C290 1.388 . S
C288 C287 1.386 . S
C288 C289 1.382 . S
C288 H314 0.950 . S
C289 N286 1.332 . S
C289 C288 1.382 . S
C289 H300 0.952 . S
C290 C287 1.388 . S
C290 C291 1.382 . S
C290 H315 0.950 . S
C291 N286 1.332 . S
C291 C290 1.382 . S
C291 H301 0.948 . S
N292 Co270 2.282 . S
N292 C296 1.332 . S
N292 C297 1.332 . S
C293 C294 1.388 . S
C293 C297 1.382 . S
C293 H316 0.950 . S
C294 C293 1.388 . S
C294 C295 1.386 . S
C295 C294 1.386 . S
C295 C296 1.382 . S
C295 H317 0.950 . S
C296 N292 1.332 . S
C296 C295 1.382 . S
C296 H298 0.952 . S
C297 N292 1.332 . S
C297 C293 1.382 . S
C297 H299 0.948 . S
H298 C296 0.952 . S
H299 C297 0.948 . S
H300 C289 0.952 . S
H301 C291 0.948 . S
C302 C268 1.395 . S
C302 C272 1.391 . S
C303 C265 1.389 . S
C303 C285 1.392 . S
C304 C275 1.392 . S
C304 C277 1.389 . S
C305 C280 1.395 . S
C305 C282 1.391 . S
H306 C266 0.951 . S
H307 C267 0.950 . S
H308 C273 0.949 . S
H309 C274 0.950 . S
H310 C278 0.951 . S
H311 C279 0.950 . S
H312 C283 0.949 . S
H313 C284 0.950 . S
H314 C288 0.950 . S
H315 C290 0.950 . S
H316 C293 0.950 . S
H317 C295 0.950 . S
H318 C324 0.930 . S
H319 C328 0.930 . S
H320 C333 0.929 . S
H321 C331 0.929 . S
H322 C326 0.929 . S
H323 C332 0.929 . S
C324 H318 0.930 . S
C324 C325 1.367 . S
C324 C332 1.378 . S
C325 C324 1.367 . S
C325 C333 1.433 . S
C326 H322 0.929 . S
C326 C328 1.378 . S
C326 C330 1.350 . S
C327 C330 1.463 . S
C327 C332 1.350 . S
C327 N335 1.427 . S
C328 H319 0.930 . S
C328 C326 1.378 . S
C328 C329 1.367 . S
C329 C328 1.367 . S
C329 C331 1.433 . S
C330 C326 1.350 . S
C330 C327 1.463 . S
C330 N334 1.427 . S
C331 H321 0.929 . S
C331 C329 1.433 . S
C331 N334 1.384 . S
C332 H323 0.929 . S
C332 C324 1.378 . S
C332 C327 1.350 . S
C333 H320 0.929 . S
C333 C325 1.433 . S
C333 N335 1.384 . S
N334 C330 1.427 . S
N334 C331 1.384 . S
N335 C327 1.427 . S
N335 C333 1.384 . S
H336 C342 0.930 . S
H337 C346 0.930 . S
H338 C351 0.929 . S
H339 C349 0.929 . S
H340 C344 0.929 . S
H341 C350 0.929 . S
C342 H336 0.930 . S
C342 C343 1.367 . S
C342 C350 1.378 . S
C343 C342 1.367 . S
C343 C351 1.433 . S
C344 H340 0.929 . S
C344 C346 1.378 . S
C344 C348 1.350 . S
C345 C348 1.477 . S
C345 C350 1.330 1_455 S
C345 N353 1.434 . S
C346 H337 0.930 . S
C346 C344 1.378 . S
C346 C347 1.367 . S
C347 C346 1.367 . S
C347 C349 1.433 . S
C348 C344 1.350 . S
C348 C345 1.477 . S
C348 N352 1.427 . S
C349 H339 0.929 . S
C349 C347 1.433 . S
C349 N352 1.384 . S
C350 H341 0.929 . S
C350 C342 1.378 . S
C350 C345 1.330 1_655 S
C351 H338 0.929 . S
C351 C343 1.433 . S
C351 N353 1.384 1_655 S
N352 C348 1.427 . S
N352 C349 1.384 . S
N353 C345 1.434 . S
N353 C351 1.384 1_455 S
H354 C360 0.930 . S
H355 C364 0.930 . S
H356 C369 0.929 . S
H357 C367 0.929 . S
H358 C362 0.929 1_545 S
H359 C368 0.929 . S
C360 H354 0.930 . S
C360 C361 1.367 . S
C360 C368 1.378 . S
C361 C360 1.367 . S
C361 C369 1.433 . S
C362 H358 0.929 1_565 S
C362 C364 1.378 . S
C362 C366 1.350 1_565 S
C363 C366 1.463 . S
C363 C368 1.350 . S
C363 N371 1.427 . S
C364 H355 0.930 . S
C364 C362 1.378 . S
C364 C365 1.367 . S
C365 C364 1.367 . S
C365 C367 1.433 . S
C366 C362 1.350 1_545 S
C366 C363 1.463 . S
C366 N370 1.427 1_545 S
C367 H357 0.929 . S
C367 C365 1.433 . S
C367 N370 1.384 . S
C368 H359 0.929 . S
C368 C360 1.378 . S
C368 C363 1.350 . S
C369 H356 0.929 . S
C369 C361 1.433 . S
C369 N371 1.384 . S
N370 C366 1.427 1_565 S
N370 C367 1.384 . S
N371 C363 1.427 . S
N371 C369 1.384 . S
H372 C378 0.930 . S
H373 C382 0.930 . S
H374 C387 0.929 . S
H375 C385 0.929 . S
H376 C380 0.929 . S
H377 C386 0.929 . S
C378 H372 0.930 . S
C378 C379 1.367 . S
C378 C386 1.378 . S
C379 C378 1.367 . S
C379 C387 1.433 . S
C380 H376 0.929 . S
C380 C382 1.378 . S
C380 C384 1.350 . S
C381 C384 1.463 . S
C381 C386 1.350 . S
C381 N389 1.427 . S
C382 H373 0.930 . S
C382 C380 1.378 . S
C382 C383 1.367 . S
C383 C382 1.367 . S
C383 C385 1.433 . S
C384 C380 1.350 . S
C384 C381 1.463 . S
C384 N388 1.427 . S
C385 H375 0.929 . S
C385 C383 1.433 . S
C385 N388 1.384 . S
C386 H377 0.929 . S
C386 C378 1.378 . S
C386 C381 1.350 . S
C387 H374 0.929 . S
C387 C379 1.433 . S
C387 N389 1.384 . S
N388 C384 1.427 . S
N388 C385 1.384 . S
N389 C381 1.427 . S
N389 C387 1.384 . S
H390 C396 0.930 . S
H391 C400 0.930 . S
H392 C405 0.929 . S
H393 C403 0.929 . S
H394 C398 0.929 . S
H395 C404 0.929 . S
C396 H390 0.930 . S
C396 C397 1.367 . S
C396 C404 1.378 . S
C397 C396 1.367 . S
C397 C405 1.433 . S
C398 H394 0.929 . S
C398 C400 1.378 . S
C398 C402 1.329 1_455 S
C399 C402 1.478 . S
C399 C404 1.350 . S
C399 N407 1.427 . S
C400 H391 0.930 . S
C400 C398 1.378 . S
C400 C401 1.367 . S
C401 C400 1.367 . S
C401 C403 1.433 . S
C402 C398 1.329 1_655 S
C402 C399 1.478 . S
C402 N406 1.435 . S
C403 H393 0.929 . S
C403 C401 1.433 . S
C403 N406 1.384 1_455 S
C404 H395 0.929 . S
C404 C396 1.378 . S
C404 C399 1.350 . S
C405 H392 0.929 . S
C405 C397 1.433 . S
C405 N407 1.384 . S
N406 C402 1.435 . S
N406 C403 1.384 1_655 S
N407 C399 1.427 . S
N407 C405 1.384 . S
H408 C414 0.930 . S
H409 C418 0.930 . S
H410 C423 0.929 . S
H411 C421 0.929 . S
H412 C416 0.929 . S
H413 C422 0.929 . S
C414 H408 0.930 . S
C414 C415 1.367 . S
C414 C422 1.378 . S
C415 C414 1.367 . S
C415 C423 1.433 . S
C416 H412 0.929 . S
C416 C418 1.378 . S
C416 C420 1.350 . S
C417 C420 1.479 . S
C417 C422 1.336 1_565 S
C417 N425 1.426 . S
C418 H409 0.930 . S
C418 C416 1.378 . S
C418 C419 1.367 . S
C419 C418 1.367 . S
C419 C421 1.433 . S
C420 C416 1.350 . S
C420 C417 1.479 . S
C420 N424 1.427 . S
C421 H411 0.929 . S
C421 C419 1.433 . S
C421 N424 1.384 . S
C422 H413 0.929 . S
C422 C414 1.378 . S
C422 C417 1.336 1_545 S
C423 H410 0.929 . S
C423 C415 1.433 . S
C423 N425 1.384 1_545 S
N424 C420 1.427 . S
N424 C421 1.384 . S
N425 C417 1.426 . S
N425 C423 1.384 1_565 S
H426 C432 0.930 . S
H427 C436 0.930 . S
H428 C441 0.929 . S
H429 C439 0.929 . S
H430 C434 0.929 . S
H431 C440 0.929 . S
C432 H426 0.930 . S
C432 C433 1.367 . S
C432 C440 1.378 . S
C433 C432 1.367 . S
C433 C441 1.433 . S
C434 H430 0.929 . S
C434 C436 1.378 . S
C434 C438 1.350 . S
C435 C438 1.463 . S
C435 C440 1.350 . S
C435 N443 1.427 . S
C436 H427 0.930 . S
C436 C434 1.378 . S
C436 C437 1.367 . S
C437 C436 1.367 . S
C437 C439 1.433 . S
C438 C434 1.350 . S
C438 C435 1.463 . S
C438 N442 1.427 . S
C439 H429 0.929 . S
C439 C437 1.433 . S
C439 N442 1.384 . S
C440 H431 0.929 . S
C440 C432 1.378 . S
C440 C435 1.350 . S
C441 H428 0.929 . S
C441 C433 1.433 . S
C441 N443 1.384 . S
N442 C438 1.427 . S
N442 C439 1.384 . S
N443 C435 1.427 . S
N443 C441 1.384 . S
H444 C450 0.930 . S
H445 C454 0.930 . S
H446 C459 0.929 . S
H447 C457 0.929 . S
H448 C452 0.929 . S
H449 C458 0.929 . S
C450 H444 0.930 . S
C450 C451 1.367 . S
C450 C458 1.378 . S
C451 C450 1.367 . S
C451 C459 1.433 . S
C452 H448 0.929 . S
C452 C454 1.378 . S
C452 C456 1.350 . S
C453 C456 1.463 . S
C453 C458 1.350 . S
C453 N461 1.427 . S
C454 H445 0.930 . S
C454 C452 1.378 . S
C454 C455 1.367 . S
C455 C454 1.367 . S
C455 C457 1.433 . S
C456 C452 1.350 . S
C456 C453 1.463 . S
C456 N460 1.427 . S
C457 H447 0.929 . S
C457 C455 1.433 . S
C457 N460 1.384 . S
C458 H449 0.929 . S
C458 C450 1.378 . S
C458 C453 1.350 . S
C459 H446 0.929 . S
C459 C451 1.433 . S
C459 N461 1.384 . S
N460 C456 1.427 . S
N460 C457 1.384 . S
N461 C453 1.427 . S
N461 C459 1.384 . S
H462 C468 0.930 . S
H463 C472 0.930 . S
H464 C477 0.929 . S
H465 C475 0.929 . S
H466 C470 0.929 . S
H467 C476 0.929 . S
C468 H462 0.930 . S
C468 C469 1.367 . S
C468 C476 1.378 . S
C469 C468 1.367 . S
C469 C477 1.433 . S
C470 H466 0.929 . S
C470 C472 1.378 . S
C470 C474 1.350 . S
C471 C474 1.463 . S
C471 C476 1.350 . S
C471 N479 1.427 . S
C472 H463 0.930 . S
C472 C470 1.378 . S
C472 C473 1.367 . S
C473 C472 1.367 . S
C473 C475 1.433 . S
C474 C470 1.350 . S
C474 C471 1.463 . S
C474 N478 1.427 . S
C475 H465 0.929 . S
C475 C473 1.433 . S
C475 N478 1.384 . S
C476 H467 0.929 . S
C476 C468 1.378 . S
C476 C471 1.350 . S
C477 H464 0.929 . S
C477 C469 1.433 . S
C477 N479 1.384 . S
N478 C474 1.427 . S
N478 C475 1.384 . S
N479 C471 1.427 . S
N479 C477 1.384 . S
H480 C486 0.930 . S
H481 C490 0.930 . S
H482 C495 0.929 . S
H483 C493 0.929 . S
H484 C488 0.929 . S
H485 C494 0.929 . S
C486 H480 0.930 . S
C486 C487 1.367 . S
C486 C494 1.378 . S
C487 C486 1.367 . S
C487 C495 1.433 . S
C488 H484 0.929 . S
C488 C490 1.378 . S
C488 C492 1.350 . S
C489 C492 1.463 . S
C489 C494 1.350 . S
C489 N497 1.427 . S
C490 H481 0.930 . S
C490 C488 1.378 . S
C490 C491 1.367 . S
C491 C490 1.367 . S
C491 C493 1.433 . S
C492 C488 1.350 . S
C492 C489 1.463 . S
C492 N496 1.427 . S
C493 H483 0.929 . S
C493 C491 1.433 . S
C493 N496 1.384 . S
C494 H485 0.929 . S
C494 C486 1.378 . S
C494 C489 1.350 . S
C495 H482 0.929 . S
C495 C487 1.433 . S
C495 N497 1.384 . S
N496 C492 1.427 . S
N496 C493 1.384 . S
N497 C489 1.427 . S
N497 C495 1.384 . S
H498 C504 0.930 . S
H499 C508 0.930 . S
H500 C513 0.929 . S
H501 C511 0.929 . S
H502 C506 0.929 . S
H503 C512 0.929 . S
C504 H498 0.930 . S
C504 C505 1.367 . S
C504 C512 1.378 . S
C505 C504 1.367 . S
C505 C513 1.433 . S
C506 H502 0.929 . S
C506 C508 1.378 . S
C506 C510 1.350 . S
C507 C510 1.463 . S
C507 C512 1.350 . S
C507 N515 1.427 . S
C508 H499 0.930 . S
C508 C506 1.378 . S
C508 C509 1.367 . S
C509 C508 1.367 . S
C509 C511 1.433 . S
C510 C506 1.350 . S
C510 C507 1.463 . S
C510 N514 1.427 . S
C511 H501 0.929 . S
C511 C509 1.433 . S
C511 N514 1.384 . S
C512 H503 0.929 . S
C512 C504 1.378 . S
C512 C507 1.350 . S
C513 H500 0.929 . S
C513 C505 1.433 . S
C513 N515 1.384 . S
N514 C510 1.427 . S
N514 C511 1.384 . S
N515 C507 1.427 . S
N515 C513 1.384 . S
H516 C522 0.930 . S
H517 C526 0.930 . S
H518 C531 0.929 . S
H519 C529 0.929 . S
H520 C524 0.929 . S
H521 C530 0.929 . S
C522 H516 0.930 . S
C522 C523 1.367 . S
C522 C530 1.378 . S
C523 C522 1.367 . S
C523 C531 1.433 . S
C524 H520 0.929 . S
C524 C526 1.378 . S
C524 C528 1.350 . S
C525 C528 1.463 . S
C525 C530 1.350 . S
C525 N533 1.427 . S
C526 H517 0.930 . S
C526 C524 1.378 . S
C526 C527 1.367 . S
C527 C526 1.367 . S
C527 C529 1.433 . S
C528 C524 1.350 . S
C528 C525 1.463 . S
C528 N532 1.427 . S
C529 H519 0.929 . S
C529 C527 1.433 . S
C529 N532 1.384 . S
C530 H521 0.929 . S
C530 C522 1.378 . S
C530 C525 1.350 . S
C531 H518 0.929 . S
C531 C523 1.433 . S
C531 N533 1.384 . S
N532 C528 1.427 . S
N532 C529 1.384 . S
N533 C525 1.427 . S
N533 C531 1.384 . S
C325 C22 1.447 . S
C329 C303 1.459 . S
C343 C75 1.448 . S
C347 C38 1.458 . S
C361 C91 1.454 . S
C365 C128 1.453 . S
C379 C181 1.453 . S
C383 C144 1.454 . S
C397 C197 1.458 . S
C401 C234 1.448 . S
C415 C287 1.448 . S
C419 C250 1.458 . S
C433 C251 1.507 . S
C437 C29 1.505 . S
C451 C304 1.509 . S
C455 C82 1.500 . S
C469 C135 1.501 . S
C473 C39 1.509 . S
C487 C188 1.501 . S
C491 C92 1.510 . S
C505 C241 1.501 . S
C509 C145 1.508 . S
C523 C294 1.500 . S
C527 C198 1.509 . S
