# Generated by pormake.
# Topology crs, (6)-cn, num edge types: 1
# Building blocks:
#     Node 0, Type 0, BuildingBlock: NUHQIS_clean_sbu_0, # of connection points: 6
#     Node 1, Type 0, BuildingBlock: NUHQIS_clean_sbu_0, # of connection points: 6
#     Node 2, Type 0, BuildingBlock: NUHQIS_clean_sbu_0, # of connection points: 6
#     Node 3, Type 0, BuildingBlock: NUHQIS_clean_sbu_0, # of connection points: 6
#     Node 4, Type 0, BuildingBlock: NUHQIS_clean_sbu_0, # of connection points: 6
#     Node 5, Type 0, BuildingBlock: NUHQIS_clean_sbu_0, # of connection points: 6
#     Node 6, Type 0, BuildingBlock: NUHQIS_clean_sbu_0, # of connection points: 6
#     Node 7, Type 0, BuildingBlock: NUHQIS_clean_sbu_0, # of connection points: 6
#     Node 8, Type 0, BuildingBlock: NUHQIS_clean_sbu_0, # of connection points: 6
#     Node 9, Type 0, BuildingBlock: NUHQIS_clean_sbu_0, # of connection points: 6
#     Node 10, Type 0, BuildingBlock: NUHQIS_clean_sbu_0, # of connection points: 6
#     Node 11, Type 0, BuildingBlock: NUHQIS_clean_sbu_0, # of connection points: 6
#     Node 12, Type 0, BuildingBlock: NUHQIS_clean_sbu_0, # of connection points: 6
#     Node 13, Type 0, BuildingBlock: NUHQIS_clean_sbu_0, # of connection points: 6
#     Node 14, Type 0, BuildingBlock: NUHQIS_clean_sbu_0, # of connection points: 6
#     Node 15, Type 0, BuildingBlock: NUHQIS_clean_sbu_0, # of connection points: 6
#     Edge 16, Type (0, 0), BuildingBlock: EZIPEK_clean_linker_0, # of connection points: 2
#     Edge 17, Type (0, 0), BuildingBlock: EZIPEK_clean_linker_0, # of connection points: 2
#     Edge 18, Type (0, 0), BuildingBlock: EZIPEK_clean_linker_0, # of connection points: 2
#     Edge 19, Type (0, 0), BuildingBlock: EZIPEK_clean_linker_0, # of connection points: 2
#     Edge 20, Type (0, 0), BuildingBlock: EZIPEK_clean_linker_0, # of connection points: 2
#     Edge 21, Type (0, 0), BuildingBlock: EZIPEK_clean_linker_0, # of connection points: 2
#     Edge 22, Type (0, 0), BuildingBlock: EZIPEK_clean_linker_0, # of connection points: 2
#     Edge 23, Type (0, 0), BuildingBlock: EZIPEK_clean_linker_0, # of connection points: 2
#     Edge 24, Type (0, 0), BuildingBlock: EZIPEK_clean_linker_0, # of connection points: 2
#     Edge 25, Type (0, 0), BuildingBlock: EZIPEK_clean_linker_0, # of connection points: 2
#     Edge 26, Type (0, 0), BuildingBlock: EZIPEK_clean_linker_0, # of connection points: 2
#     Edge 27, Type (0, 0), BuildingBlock: EZIPEK_clean_linker_0, # of connection points: 2
#     Edge 28, Type (0, 0), BuildingBlock: EZIPEK_clean_linker_0, # of connection points: 2
#     Edge 29, Type (0, 0), BuildingBlock: EZIPEK_clean_linker_0, # of connection points: 2
#     Edge 30, Type (0, 0), BuildingBlock: EZIPEK_clean_linker_0, # of connection points: 2
#     Edge 31, Type (0, 0), BuildingBlock: EZIPEK_clean_linker_0, # of connection points: 2
#     Edge 32, Type (0, 0), BuildingBlock: EZIPEK_clean_linker_0, # of connection points: 2
#     Edge 33, Type (0, 0), BuildingBlock: EZIPEK_clean_linker_0, # of connection points: 2
#     Edge 34, Type (0, 0), BuildingBlock: EZIPEK_clean_linker_0, # of connection points: 2
#     Edge 35, Type (0, 0), BuildingBlock: EZIPEK_clean_linker_0, # of connection points: 2
#     Edge 36, Type (0, 0), BuildingBlock: EZIPEK_clean_linker_0, # of connection points: 2
#     Edge 37, Type (0, 0), BuildingBlock: EZIPEK_clean_linker_0, # of connection points: 2
#     Edge 38, Type (0, 0), BuildingBlock: EZIPEK_clean_linker_0, # of connection points: 2
#     Edge 39, Type (0, 0), BuildingBlock: EZIPEK_clean_linker_0, # of connection points: 2
#     Edge 40, Type (0, 0), BuildingBlock: EZIPEK_clean_linker_0, # of connection points: 2
#     Edge 41, Type (0, 0), BuildingBlock: EZIPEK_clean_linker_0, # of connection points: 2
#     Edge 42, Type (0, 0), BuildingBlock: EZIPEK_clean_linker_0, # of connection points: 2
#     Edge 43, Type (0, 0), BuildingBlock: EZIPEK_clean_linker_0, # of connection points: 2
#     Edge 44, Type (0, 0), BuildingBlock: EZIPEK_clean_linker_0, # of connection points: 2
#     Edge 45, Type (0, 0), BuildingBlock: EZIPEK_clean_linker_0, # of connection points: 2
#     Edge 46, Type (0, 0), BuildingBlock: EZIPEK_clean_linker_0, # of connection points: 2
#     Edge 47, Type (0, 0), BuildingBlock: EZIPEK_clean_linker_0, # of connection points: 2
#     Edge 48, Type (0, 0), BuildingBlock: EZIPEK_clean_linker_0, # of connection points: 2
#     Edge 49, Type (0, 0), BuildingBlock: EZIPEK_clean_linker_0, # of connection points: 2
#     Edge 50, Type (0, 0), BuildingBlock: EZIPEK_clean_linker_0, # of connection points: 2
#     Edge 51, Type (0, 0), BuildingBlock: EZIPEK_clean_linker_0, # of connection points: 2
#     Edge 52, Type (0, 0), BuildingBlock: EZIPEK_clean_linker_0, # of connection points: 2
#     Edge 53, Type (0, 0), BuildingBlock: EZIPEK_clean_linker_0, # of connection points: 2
#     Edge 54, Type (0, 0), BuildingBlock: EZIPEK_clean_linker_0, # of connection points: 2
#     Edge 55, Type (0, 0), BuildingBlock: EZIPEK_clean_linker_0, # of connection points: 2
#     Edge 56, Type (0, 0), BuildingBlock: EZIPEK_clean_linker_0, # of connection points: 2
#     Edge 57, Type (0, 0), BuildingBlock: EZIPEK_clean_linker_0, # of connection points: 2
#     Edge 58, Type (0, 0), BuildingBlock: EZIPEK_clean_linker_0, # of connection points: 2
#     Edge 59, Type (0, 0), BuildingBlock: EZIPEK_clean_linker_0, # of connection points: 2
#     Edge 60, Type (0, 0), BuildingBlock: EZIPEK_clean_linker_0, # of connection points: 2
#     Edge 61, Type (0, 0), BuildingBlock: EZIPEK_clean_linker_0, # of connection points: 2
#     Edge 62, Type (0, 0), BuildingBlock: EZIPEK_clean_linker_0, # of connection points: 2
#     Edge 63, Type (0, 0), BuildingBlock: EZIPEK_clean_linker_0, # of connection points: 2
# Relax obj value: 0.562
# Max RMSD: 0.396
# Mean RMSD: 0.339
data_MOF--net-crs--node1-NUHQIS_clean_sbu_0--edge1-EZIPEK_clean_linker_0
_symmetry_space_group_name_H-M    P1
_symmetry_Int_Tables_number       1
_symmetry_cell_setting            triclinic
loop_
_symmetry_equiv_pos_as_xyz
'x, y, z'
_cell_length_a     42.702946
_cell_length_b     45.599378
_cell_length_c     33.322753
_cell_angle_alpha  68.627143
_cell_angle_beta   69.936703
_cell_angle_gamma 59.948925
loop_
_atom_site_label
_atom_site_type_symbol
_atom_site_fract_x
_atom_site_fract_y
_atom_site_fract_z
_atom_type_partial_charge
Tb0 Tb 0.94704 1.01097 0.07345 0.0
Eu1 Eu -0.04322 0.06608 0.97901 0.0
C2 C 0.02206 1.01663 0.03202 0.0
C3 C 0.94142 0.08385 0.07061 0.0
C4 C 0.91667 0.94542 0.14359 0.0
C5 C 0.88371 0.9097 0.18658 0.0
C6 C 0.90384 0.92706 0.18436 0.0
C7 C 0.9096 0.94587 0.10512 0.0
C8 C 0.88945 0.92877 0.10734 0.0
C9 C 0.87613 0.91084 0.14805 0.0
C10 C 0.93461 0.96674 0.14048 0.0
O11 O 0.89935 1.03073 0.04572 0.0
O12 O 0.89584 0.08415 1.0062 0.0
O13 O 0.9488 1.0264 0.96378 0.0
O14 O -0.02781 0.98243 1.02165 0.0
C15 C 0.87969 0.06335 0.0283 0.0
O16 O 0.9388 0.11881 0.93742 0.0
O17 O -0.01378 0.07651 0.91131 0.0
O18 O 0.01358 1.02802 0.99318 0.0
O19 O -0.00176 1.01223 0.06839 0.0
O20 O 0.92921 0.05965 0.09143 0.0
O21 O -0.04095 0.0866 0.02948 0.0
C22 C -0.03761 0.99322 0.98358 0.0
O23 O -0.03332 0.96028 0.11379 0.0
O24 O 0.91323 1.0001 0.13418 0.0
C25 C -0.01023 0.13027 0.89365 0.0
C26 C 0.03097 0.16437 0.88854 0.0
C27 C -0.00758 0.18202 0.89467 0.0
C28 C -0.02806 0.16514 0.89698 0.0
C29 C 0.02862 0.11364 0.8842 0.0
C30 C 0.04907 0.13057 0.88186 0.0
C31 C -0.03212 0.11029 0.90615 0.0
H32 H 0.87339 0.89604 0.21826 0.0
H33 H 0.90871 0.92678 0.21436 0.0
H34 H 0.91891 0.96019 0.07337 0.0
H35 H 0.88365 0.93004 0.07737 0.0
H36 H -0.02183 0.20822 0.89969 0.0
H37 H 0.94208 0.17872 0.90384 0.0
H38 H 0.04327 0.08688 0.88115 0.0
H39 H 0.07888 0.11674 0.87698 0.0
Tb40 Tb -0.03333 0.3036 0.29618 0.0
Eu41 Eu 0.93371 0.29012 0.23043 0.0
C42 C -0.0003 0.22779 0.27728 0.0
C43 C 0.00144 0.30884 0.19669 0.0
C44 C -0.01143 0.33799 0.36685 0.0
C45 C 0.01261 0.35472 0.40707 0.0
C46 C 0.01698 0.33129 0.38561 0.0
C47 C -0.04493 0.36783 0.37123 0.0
C48 C 0.95075 0.39148 0.39245 0.0
C49 C -0.02019 0.38537 0.40976 0.0
C50 C -0.00343 0.31605 0.33813 0.0
O51 O 0.91261 0.34712 0.29128 0.0
O52 O 0.9117 0.34837 0.22242 0.0
O53 O 0.89547 0.28727 0.29649 0.0
O54 O 0.92416 0.28859 0.34315 0.0
C55 C 0.8994 0.36369 0.25498 0.0
O56 O 0.93552 0.2884 0.1647 0.0
O57 O 0.89198 0.28168 0.21862 0.0
O58 O -0.02899 0.23607 0.26205 0.0
O59 O 0.00467 0.25107 0.28593 0.0
O60 O -0.01436 0.32588 0.22773 0.0
O61 O -0.01 0.28742 0.1956 0.0
C62 C 0.89776 0.28539 0.33582 0.0
O63 O -0.01475 0.29153 0.35396 0.0
O64 O -0.00849 0.33246 0.29816 0.0
C65 C 0.91286 0.25056 0.16419 0.0
C66 C 0.92096 0.19456 0.13765 0.0
C67 C 0.91082 0.22809 0.10957 0.0
C68 C 0.90674 0.25587 0.1228 0.0
C69 C 0.92325 0.21695 0.19221 0.0
C70 C 0.92707 0.18921 0.17911 0.0
C71 C 0.90776 0.28033 0.17783 0.0
H72 H 0.03522 0.34951 0.4204 0.0
H73 H 0.04312 0.30852 0.38226 0.0
H74 H 0.93283 0.37335 0.35706 0.0
H75 H 0.92516 0.41493 0.39446 0.0
H76 H 0.90606 0.23271 0.07745 0.0
H77 H 0.89871 0.28156 0.10072 0.0
H78 H 0.92828 0.21219 0.22423 0.0
H79 H 0.935 0.16352 0.20118 0.0
Tb80 Tb 0.71844 0.29385 0.5623 0.0
Eu81 Eu 0.69351 0.28245 0.48716 0.0
C82 C 0.63646 0.30035 0.57732 0.0
C83 C 0.71529 0.22238 0.57496 0.0
C84 C 0.75829 0.31559 0.62673 0.0
C85 C 0.78182 0.3254 0.67506 0.0
C86 C 0.76356 0.30967 0.66876 0.0
C87 C 0.77148 0.33742 0.59086 0.0
C88 C 0.78977 0.35322 0.59717 0.0
C89 C 0.79496 0.34729 0.63935 0.0
C90 C 0.73922 0.29845 0.62134 0.0
O91 O 0.76149 0.29413 0.50359 0.0
O92 O 0.75546 0.26076 0.47221 0.0
O93 O 0.69263 0.33618 0.4603 0.0
O94 O 0.70019 0.34651 0.51846 0.0
C95 C 0.77384 0.27576 0.47454 0.0
O96 O 0.70733 0.25128 0.4421 0.0
O97 O 0.65879 0.30087 0.44 0.0
O98 O 0.64063 0.29919 0.53692 0.0
O99 O 0.66286 0.29728 0.59252 0.0
O100 O 0.73354 0.23763 0.57776 0.0
O101 O 0.69512 0.23648 0.54492 0.0
C102 C 0.69449 0.35658 0.47804 0.0
O103 O 0.70672 0.31862 0.61129 0.0
O104 O 0.75908 0.27468 0.5987 0.0
C105 C 0.65804 0.25736 0.41867 0.0
C106 C 0.62267 0.22487 0.40552 0.0
C107 C 0.63871 0.24425 0.36941 0.0
C108 C 0.65635 0.26041 0.376 0.0
C109 C 0.64149 0.23844 0.45491 0.0
C110 C 0.62383 0.22224 0.44833 0.0
C111 C 0.67839 0.27296 0.42451 0.0
H112 H 0.78566 0.32058 0.70775 0.0
H113 H 0.75357 0.29283 0.69673 0.0
H114 H 0.76764 0.34217 0.55819 0.0
H115 H 0.79981 0.37007 0.56931 0.0
H116 H 0.63795 0.24644 0.33624 0.0
H117 H 0.66911 0.27491 0.34777 0.0
H118 H 0.64269 0.23587 0.48806 0.0
H119 H 0.6115 0.20732 0.47645 0.0
Tb120 Tb 0.69543 1.02796 0.74462 0.0
Eu121 Eu 0.71639 0.054 0.80794 0.0
C122 C 0.77755 0.98878 0.76835 0.0
C123 C 0.70036 0.98383 0.84431 0.0
C124 C 0.66528 1.01326 0.65945 0.0
C125 C 0.66651 0.99436 0.59938 0.0
C126 C 0.68509 0.99652 0.62466 0.0
C127 C 0.62652 1.03015 0.6666 0.0
C128 C 0.6079 1.02807 0.64117 0.0
C129 C 0.62785 1.00907 0.60853 0.0
C130 C 0.68539 1.00652 0.69222 0.0
O131 O 0.64116 0.05934 0.77896 0.0
O132 O 0.66009 0.09196 0.79414 0.0
O133 O 0.731 0.08357 0.7389 0.0
O134 O 0.6938 0.07985 0.70685 0.0
C135 C 0.63358 0.08685 0.79113 0.0
O136 O 0.6978 0.07094 0.86899 0.0
O137 O 0.74521 0.07658 0.8207 0.0
O138 O 0.77026 1.00982 0.79184 0.0
O139 O 0.75376 0.99298 0.74755 0.0
O140 O 0.69359 0.98885 0.80612 0.0
O141 O 0.70864 1.00529 0.85215 0.0
C142 C 0.71356 0.09472 0.70689 0.0
O143 O 0.7092 1.01942 0.68127 0.0
O144 O 0.66738 1.0064 0.73266 0.0
C145 C 0.74161 0.07372 0.8946 0.0
C146 C 0.77536 0.07172 0.95492 0.0
C147 C 0.73694 0.08964 0.95914 0.0
C148 C 0.72018 0.09071 0.929 0.0
C149 C 0.77989 0.05407 0.89201 0.0
C150 C 0.79667 0.05316 0.92204 0.0
C151 C 0.72406 0.08069 0.85915 0.0
H152 H 0.68223 0.97952 0.57439 0.0
H153 H 0.71496 0.98305 0.61894 0.0
H154 H 0.61065 0.04306 0.69343 0.0
H155 H 0.57799 0.03955 0.64855 0.0
H156 H 0.72025 0.10405 0.98445 0.0
H157 H 0.69065 0.10612 0.93136 0.0
H158 H 0.79698 0.0407 0.86578 0.0
H159 H 0.8264 0.03917 0.91859 0.0
Tb160 Tb 0.46472 0.80046 0.30142 0.0
Eu161 Eu 0.4307 0.78973 0.2345 0.0
C162 C 0.49844 0.72633 0.2795 0.0
C163 C 0.4989 0.80862 0.20072 0.0
C164 C 0.48401 0.83434 0.37493 0.0
C165 C 0.50416 0.84949 0.42147 0.0
C166 C 0.50804 0.82509 0.40197 0.0
C167 C 0.45538 0.86818 0.36843 0.0
C168 C 0.45158 0.89275 0.38775 0.0
C169 C 0.47625 0.88363 0.41403 0.0
C170 C 0.49171 0.8093 0.35075 0.0
O171 O 0.42977 0.85366 0.26962 0.0
O172 O 0.39229 0.8425 0.24794 0.0
O173 O 0.4091 0.76613 0.30407 0.0
O174 O 0.41088 0.80107 0.33743 0.0
C175 C 0.40002 0.86465 0.25454 0.0
O176 O 0.43542 0.78381 0.17027 0.0
O177 O 0.38701 0.78513 0.22071 0.0
O178 O 0.4808 0.73979 0.24713 0.0
O179 O 0.49196 0.74392 0.30761 0.0
O180 O 0.50573 0.79309 0.24059 0.0
O181 O 0.46644 0.81817 0.19331 0.0
C182 C 0.39766 0.78057 0.33713 0.0
O183 O 0.47146 0.79223 0.36517 0.0
O184 O 0.49743 0.81988 0.30811 0.0
C185 C 0.408 0.74998 0.17067 0.0
C186 C 0.41712 0.69278 0.14602 0.0
C187 C 0.40602 0.72613 0.11761 0.0
C188 C 0.40149 0.75449 0.12986 0.0
C189 C 0.4188 0.71668 0.19937 0.0
C190 C 0.42314 0.68828 0.18721 0.0
C191 C 0.40514 0.77988 0.18164 0.0
H192 H 0.52339 0.84198 0.44166 0.0
H193 H 0.53046 0.79917 0.40713 0.0
H194 H 0.43658 0.87571 0.34771 0.0
H195 H 0.42981 0.91896 0.38173 0.0
H196 H 0.40126 0.73009 0.08573 0.0
H197 H 0.39338 0.77992 0.10718 0.0
H198 H 0.42427 0.71261 0.23088 0.0
H199 H 0.43173 0.66273 0.20954 0.0
Tb200 Tb 0.21554 0.79511 0.56253 0.0
Eu201 Eu 0.18781 0.78294 0.49179 0.0
C202 C 0.13359 0.80499 0.58045 0.0
C203 C 0.20952 0.72271 0.57935 0.0
C204 C 0.25645 0.81648 0.62554 0.0
C205 C 0.28438 0.82367 0.67142 0.0
C206 C 0.26561 0.80801 0.66613 0.0
C207 C 0.26669 0.84042 0.58991 0.0
C208 C 0.28541 0.8562 0.59523 0.0
C209 C 0.29408 0.84805 0.63613 0.0
C210 C 0.23558 0.80055 0.62154 0.0
O211 O 0.26148 0.78906 0.50607 0.0
O212 O 0.24966 0.76225 0.47017 0.0
O213 O 0.18231 0.83875 0.4672 0.0
O214 O 0.21177 0.84213 0.51074 0.0
C215 C 0.27087 0.77353 0.47459 0.0
O216 O 0.19677 0.75639 0.44338 0.0
O217 O 0.14648 0.80351 0.45253 0.0
O218 O 0.14307 0.78622 0.55283 0.0
O219 O 0.15499 0.81837 0.57912 0.0
O220 O 0.22116 0.74115 0.58819 0.0
O221 O 0.19465 0.73374 0.54503 0.0
C222 C 0.19601 0.85523 0.47659 0.0
O223 O 0.2043 0.82197 0.60885 0.0
O224 O 0.25441 0.77487 0.60195 0.0
C225 C 0.14304 0.76132 0.43022 0.0
C226 C 0.10327 0.73152 0.41985 0.0
C227 C 0.14119 0.72005 0.40219 0.0
C228 C 0.16089 0.73492 0.40719 0.0
C229 C 0.10499 0.77271 0.4481 0.0
C230 C 0.08523 0.75798 0.44275 0.0
C231 C 0.16432 0.7775 0.43336 0.0
H232 H 0.29094 0.81716 0.70312 0.0
H233 H 0.25789 0.78953 0.69387 0.0
H234 H 0.25985 0.84711 0.55831 0.0
H235 H 0.29279 0.87499 0.56772 0.0
H236 H 0.15545 0.69977 0.38421 0.0
H237 H 0.19007 0.72598 0.39273 0.0
H238 H 0.09041 0.79315 0.46582 0.0
H239 H 0.05587 0.76725 0.4563 0.0
Tb240 Tb 0.19646 0.52675 0.74298 0.0
Eu241 Eu 0.2165 0.54757 0.81116 0.0
C242 C 0.27662 0.48805 0.76094 0.0
C243 C 0.20182 0.48011 0.84459 0.0
C244 C 0.16294 0.51047 0.66353 0.0
C245 C 0.16483 0.50057 0.59565 0.0
C246 C 0.18296 0.49984 0.62405 0.0
C247 C 0.12428 0.5233 0.6733 0.0
C248 C 0.10624 0.52375 0.64508 0.0
C249 C 0.12655 0.51154 0.60681 0.0
C250 C 0.18326 0.50258 0.69674 0.0
O251 O 0.14875 0.57508 0.75477 0.0
O252 O 0.15454 0.56852 0.82312 0.0
O253 O 0.22147 0.58566 0.74456 0.0
O254 O 0.19635 0.57633 0.70178 0.0
C255 C 0.13536 0.58477 0.79199 0.0
O256 O 0.20033 0.56631 0.87024 0.0
O257 O 0.25071 0.56524 0.82262 0.0
O258 O 0.26548 0.49747 0.79807 0.0
O259 O 0.25645 0.50568 0.73082 0.0
O260 O 0.18998 0.4904 0.80777 0.0
O261 O 0.21643 0.49635 0.85233 0.0
C262 C 0.21015 0.59403 0.70806 0.0
O263 O 0.21042 0.51143 0.68435 0.0
O264 O 0.16433 0.50701 0.73589 0.0
C265 C 0.24572 0.56767 0.89502 0.0
C266 C 0.27783 0.57082 0.95304 0.0
C267 C 0.23951 0.58829 0.95626 0.0
C268 C 0.22356 0.58671 0.92737 0.0
C269 C 0.28392 0.54855 0.8935 0.0
C270 C 0.29988 0.55014 0.92245 0.0
C271 C 0.22904 0.57276 0.85971 0.0
H272 H 0.18073 0.49128 0.566 0.0
H273 H 0.2128 0.48948 0.61613 0.0
H274 H 0.10812 0.53154 0.70356 0.0
H275 H 0.07656 0.5326 0.65374 0.0
H276 H 0.22226 0.6044 0.97969 0.0
H277 H 0.19411 0.6019 0.92877 0.0
H278 H 0.3016 0.53377 0.86874 0.0
H279 H 0.32956 0.53655 0.91972 0.0
Tb280 Tb 0.94455 0.51516 0.57067 0.0
Eu281 Eu -0.03549 0.56228 0.47231 0.0
C282 C 0.02306 0.51439 0.53409 0.0
C283 C 0.94516 0.58703 0.55928 0.0
C284 C 0.90271 0.45928 0.64998 0.0
C285 C 0.89393 0.40607 0.68201 0.0
C286 C 0.91159 0.42605 0.67866 0.0
C287 C 0.87538 0.4725 0.62557 0.0
C288 C 0.85808 0.45257 0.6286 0.0
C289 C 0.86762 0.41904 0.65624 0.0
C290 C 0.92395 0.47893 0.64213 0.0
O291 O 0.90158 0.53286 0.53565 0.0
O292 O 0.90297 0.58449 0.4953 0.0
O293 O -0.04172 0.52024 0.46017 0.0
O294 O -0.0287 0.48051 0.52559 0.0
C295 C 0.88627 0.56409 0.51132 0.0
O296 O 0.94771 0.61187 0.42393 0.0
O297 O 0.00067 0.56946 0.40832 0.0
O298 O 0.018 0.52253 0.49411 0.0
O299 O -0.00338 0.51362 0.56873 0.0
O300 O 0.92815 0.56656 0.5801 0.0
O301 O -0.0337 0.58522 0.52018 0.0
C302 C -0.03312 0.48846 0.4851 0.0
O303 O -0.04293 0.46734 0.61808 0.0
O304 O 0.90625 0.51278 0.62997 0.0
C305 C -0.00207 0.6262 0.3882 0.0
C306 C 0.02955 0.66685 0.38964 0.0
C307 C -0.0083 0.68164 0.39049 0.0
C308 C -0.02401 0.66149 0.38958 0.0
C309 C 0.03635 0.61242 0.3839 0.0
C310 C 0.052 0.6326 0.38483 0.0
C311 C -0.01987 0.603 0.398 0.0
H312 H 0.90144 0.38023 0.70368 0.0
H313 H 0.93273 0.41528 0.69756 0.0
H314 H 0.86815 0.49787 0.60297 0.0
H315 H 0.83779 0.46303 0.60857 0.0
H316 H -0.02586 0.70816 0.39402 0.0
H317 H 0.94635 0.67294 0.39254 0.0
H318 H 0.0541 0.58546 0.38245 0.0
H319 H 0.08136 0.62099 0.38394 0.0
Tb320 Tb 0.21893 0.29066 0.05687 0.0
Eu321 Eu 0.19401 0.27809 0.98298 0.0
C322 C 0.13592 0.30397 0.07056 0.0
C323 C 0.20729 0.22085 0.07396 0.0
C324 C 0.26729 0.30795 0.11528 0.0
C325 C 0.31819 0.29933 0.14216 0.0
C326 C 0.29703 0.28597 0.13706 0.0
C327 C 0.25939 0.34348 0.09791 0.0
C328 C 0.28041 0.35689 0.10333 0.0
C329 C 0.30965 0.33492 0.12583 0.0
C330 C 0.24413 0.29341 0.11304 0.0
O331 O 0.26268 0.28644 0.99866 0.0
O332 O 0.25595 0.24959 0.97489 0.0
O333 O 0.19714 0.33015 0.95358 0.0
O334 O 0.20702 0.34129 1.00943 0.0
C335 C 0.27583 0.26403 0.97465 0.0
O336 O 0.20651 0.24936 0.93552 0.0
O337 O 0.15678 0.29776 0.93836 0.0
O338 O 0.14326 0.29167 0.03668 0.0
O339 O 0.15978 0.30935 0.07995 0.0
O340 O 0.22109 0.23764 0.08271 0.0
O341 O 0.19345 0.23232 0.03875 0.0
C342 C 0.20079 0.35057 0.9695 0.0
O343 O 0.21164 0.31535 0.10367 0.0
O344 O 0.26071 0.26815 0.09287 0.0
C345 C 0.15425 0.25443 0.918 0.0
C346 C 0.11381 0.22509 0.90818 0.0
C347 C 0.10118 0.26138 0.89726 0.0
C348 C 0.12136 0.27594 0.90195 0.0
C349 C 0.16675 0.218 0.92903 0.0
C350 C 0.14666 0.20346 0.92408 0.0
C351 C 0.17554 0.27037 0.92175 0.0
H352 H 0.34072 0.28213 0.15959 0.0
H353 H 0.30352 0.25853 0.15074 0.0
H354 H 0.23671 0.36098 0.08079 0.0
H355 H 0.27364 0.38443 0.09046 0.0
H356 H 0.07583 0.27835 0.88494 0.0
H357 H 0.11131 0.30405 0.89291 0.0
H358 H 0.19207 0.20069 0.9413 0.0
H359 H 0.15669 0.17537 0.93261 0.0
Tb360 Tb 0.18814 1.0276 0.2468 0.0
Eu361 Eu 0.20575 0.0554 0.3118 0.0
C362 C 0.26789 0.99371 0.26586 0.0
C363 C 0.19299 0.9856 0.34986 0.0
C364 C 0.16015 1.00743 0.16599 0.0
C365 C 0.16607 0.99132 0.1008 0.0
C366 C 0.18213 0.9902 0.1318 0.0
C367 C 0.12201 1.02722 0.16749 0.0
C368 C 0.10595 1.02818 0.13663 0.0
C369 C 0.12775 1.0094 0.10398 0.0
C370 C 0.17692 1.00038 0.20242 0.0
O371 O 0.13819 0.07545 0.25702 0.0
O372 O 0.14428 0.08216 0.31864 0.0
O373 O 0.21233 0.08961 0.24264 0.0
O374 O 0.19178 0.07455 0.20086 0.0
C375 C 0.12538 0.09144 0.289 0.0
O376 O 0.1906 0.07555 0.36942 0.0
O377 O 0.23877 0.07645 0.31877 0.0
O378 O 0.2559 1.0055 0.30129 0.0
O379 O 0.24784 1.00774 0.2358 0.0
O380 O 0.188 0.98959 0.31091 0.0
O381 O 0.19941 1.00777 0.35852 0.0
C382 C 0.2032 0.09474 0.20585 0.0
O383 O 0.20606 1.00598 0.1925 0.0
O384 O 0.15495 1.0093 0.2387 0.0
C385 C 0.2374 0.07774 0.38962 0.0
C386 C 0.27898 0.0753 0.44088 0.0
C387 C 0.24346 0.10223 0.43857 0.0
C388 C 0.22274 0.10339 0.41304 0.0
C389 C 0.27192 0.04949 0.39431 0.0
C390 C 0.29266 0.04832 0.41987 0.0
C391 C 0.21834 0.08368 0.35641 0.0
H392 H 0.18321 0.97682 0.07566 0.0
H393 H 0.21156 0.97459 0.13022 0.0
H394 H 0.10439 0.04076 0.19345 0.0
H395 H 0.0763 0.04244 0.13924 0.0
H396 H 0.23276 0.12334 0.45431 0.0
H397 H 0.19614 0.1254 0.40957 0.0
H398 H 0.28362 1.02948 0.3764 0.0
H399 H 0.32021 1.02749 0.42122 0.0
Tb400 Tb 0.46734 0.29379 0.81477 0.0
Eu401 Eu 0.43888 0.2815 0.74292 0.0
C402 C 0.50386 0.21802 0.79514 0.0
C403 C 0.51005 0.29622 0.7148 0.0
C404 C 0.48561 0.33653 0.87755 0.0
C405 C 0.50336 0.35666 0.92091 0.0
C406 C 0.50678 0.32956 0.90692 0.0
C407 C 0.46181 0.37123 0.86114 0.0
C408 C 0.45843 0.3984 0.87506 0.0
C409 C 0.47869 0.39119 0.90571 0.0
C410 C 0.48574 0.30706 0.86864 0.0
O411 O 0.41732 0.34057 0.79884 0.0
O412 O 0.4189 0.33926 0.72985 0.0
O413 O 0.39722 0.28645 0.80686 0.0
O414 O 0.43704 0.26232 0.85287 0.0
C415 C 0.40648 0.35585 0.76095 0.0
O416 O 0.43257 0.28651 0.67759 0.0
O417 O 0.40441 0.26178 0.73647 0.0
O418 O 0.48436 0.22944 0.76504 0.0
O419 O 0.4993 0.23798 0.81894 0.0
O420 O 0.49867 0.30898 0.7496 0.0
O421 O 0.49446 0.27996 0.70898 0.0
C422 C 0.40498 0.27025 0.84613 0.0
O423 O 0.45344 0.30879 0.87309 0.0
O424 O 0.50848 0.29571 0.83407 0.0
C425 C 0.42292 0.24052 0.67315 0.0
C426 C 0.43459 0.18822 0.63624 0.0
C427 C 0.42421 0.22291 0.61161 0.0
C428 C 0.41829 0.24887 0.63001 0.0
C429 C 0.43437 0.20556 0.69729 0.0
C430 C 0.43997 0.1797 0.67905 0.0
C431 C 0.41292 0.26871 0.69365 0.0
H432 H 0.51915 0.35061 0.9446 0.0
H433 H 0.52504 0.30296 0.92026 0.0
H434 H 0.44495 0.37713 0.83881 0.0
H435 H 0.43921 0.42489 0.86303 0.0
H436 H 0.41998 0.22997 0.5785 0.0
H437 H 0.4093 0.27562 0.61087 0.0
H438 H 0.43818 0.19829 0.73063 0.0
H439 H 0.44803 0.15308 0.69853 0.0
Tb440 Tb -0.02856 0.79182 0.81311 0.0
Eu441 Eu 0.93707 0.77789 0.74979 0.0
C442 C 0.00514 0.71733 0.79403 0.0
C443 C 0.00401 0.7997 0.71261 0.0
C444 C -0.01007 0.83332 0.87695 0.0
C445 C -0.00084 0.88467 0.86556 0.0
C446 C 0.00391 0.85783 0.84976 0.0
C447 C -0.02891 0.83639 0.92018 0.0
C448 C -0.03367 0.86323 0.9359 0.0
C449 C -0.01947 0.88741 0.90882 0.0
C450 C -0.00346 0.80343 0.86186 0.0
O451 O 0.92068 0.83909 0.80333 0.0
O452 O 0.90905 0.83623 0.7423 0.0
O453 O 0.89634 0.7844 0.8139 0.0
O454 O 0.93879 0.76316 0.8562 0.0
C455 C 0.90292 0.8533 0.77071 0.0
O456 O 0.92961 0.78322 0.68531 0.0
O457 O 0.9038 0.75617 0.74416 0.0
O458 O -0.02617 0.72498 0.78526 0.0
O459 O 0.01145 0.74127 0.79866 0.0
O460 O -0.01002 0.81535 0.74507 0.0
O461 O -0.00777 0.77831 0.7117 0.0
C462 C 0.90557 0.77123 0.85251 0.0
O463 O -0.02962 0.79319 0.876 0.0
O464 O 0.0111 0.80299 0.82068 0.0
C465 C 0.91773 0.73954 0.67853 0.0
C466 C 0.92998 0.68933 0.63776 0.0
C467 C 0.89393 0.71191 0.65381 0.0
C468 C 0.88788 0.73674 0.67411 0.0
C469 C -0.04609 0.71721 0.66204 0.0
C470 C -0.03999 0.69215 0.64184 0.0
C471 C 0.90994 0.76546 0.70134 0.0
H472 H 0.01032 0.90312 0.84423 0.0
H473 H 0.01886 0.85609 0.81646 0.0
H474 H -0.03963 0.81774 0.94209 0.0
H475 H 0.95194 0.86491 0.96939 0.0
H476 H 0.87049 0.71008 0.65094 0.0
H477 H 0.85979 0.7537 0.68664 0.0
H478 H -0.02268 0.71906 0.6649 0.0
H479 H -0.01198 0.67493 0.62952 0.0
Tb480 Tb 0.68726 0.52738 0.24713 0.0
Eu481 Eu 0.70625 0.55506 0.31065 0.0
C482 C 0.76881 0.49432 0.26403 0.0
C483 C 0.69105 0.48578 0.34745 0.0
C484 C 0.66234 0.50908 0.16174 0.0
C485 C 0.66473 0.49093 0.10027 0.0
C486 C 0.6826 0.49052 0.12871 0.0
C487 C 0.62424 0.53002 0.16412 0.0
C488 C 0.60633 0.53034 0.13575 0.0
C489 C 0.62636 0.50986 0.10473 0.0
C490 C 0.68047 0.50157 0.19698 0.0
O491 O 0.63346 0.56881 0.26271 0.0
O492 O 0.64663 0.5899 0.30515 0.0
O493 O 0.70974 0.59374 0.24655 0.0
O494 O 0.69459 0.5749 0.20328 0.0
C495 C 0.62419 0.59157 0.28472 0.0
O496 O 0.68938 0.56638 0.37521 0.0
O497 O 0.73304 0.57834 0.32583 0.0
O498 O 0.76231 0.52141 0.27639 0.0
O499 O 0.74182 0.49002 0.26051 0.0
O500 O 0.6755 0.49606 0.3137 0.0
O501 O 0.70818 0.50206 0.35007 0.0
C502 C 0.70306 0.5972 0.20916 0.0
O503 O 0.70614 0.51201 0.18739 0.0
O504 O 0.65958 0.5052 0.2356 0.0
C505 C 0.73177 0.5719 0.39969 0.0
C506 C 0.77294 0.56936 0.45134 0.0
C507 C 0.73636 0.59457 0.45181 0.0
C508 C 0.71582 0.59577 0.42605 0.0
C509 C 0.76729 0.5449 0.40202 0.0
C510 C 0.78783 0.54364 0.42786 0.0
C511 C 0.71311 0.57918 0.36547 0.0
H512 H 0.68046 0.47497 0.07651 0.0
H513 H 0.71196 0.47407 0.12655 0.0
H514 H 0.60803 0.54458 0.18934 0.0
H515 H 0.57664 0.54509 0.13945 0.0
H516 H 0.72473 0.61472 0.46947 0.0
H517 H 0.68841 0.61681 0.42438 0.0
H518 H 0.77993 0.52632 0.38176 0.0
H519 H 0.81621 0.52418 0.42707 0.0
Tb520 Tb 0.71007 0.79902 0.06472 0.0
Eu521 Eu 0.69296 0.78298 0.98784 0.0
C522 C 0.63087 0.80934 0.06957 0.0
C523 C 0.70723 0.72553 0.08004 0.0
C524 C 0.74396 0.82484 0.13021 0.0
C525 C 0.76071 0.8446 0.17489 0.0
C526 C 0.73906 0.83143 0.17039 0.0
C527 C 0.77086 0.83139 0.09455 0.0
C528 C 0.79254 0.84456 0.09901 0.0
C529 C 0.78749 0.85132 0.13918 0.0
C530 C 0.72061 0.81149 0.1259 0.0
O531 O 0.7653 0.77691 1.02456 0.0
O532 O 0.75176 0.77575 0.964 0.0
O533 O 0.68292 0.83999 0.96519 0.0
O534 O 0.71428 0.84149 1.00782 0.0
C535 C 0.77495 0.77319 0.98404 0.0
O536 O 0.70752 0.75417 0.93954 0.0
O537 O 0.6556 0.80062 0.94433 0.0
O538 O 0.64479 0.78717 0.04498 0.0
O539 O 0.65013 0.82461 0.06917 0.0
O540 O 0.70376 0.74981 0.0962 0.0
O541 O 0.7087 0.73095 0.03791 0.0
C542 C 0.69821 0.85537 0.97379 0.0
O543 O 0.69522 0.83364 0.10285 0.0
O544 O 0.73772 0.78122 0.1162 0.0
C545 C 0.65778 0.75743 0.91951 0.0
C546 C 0.62071 0.72639 0.90674 0.0
C547 C 0.62722 0.7535 0.87364 0.0
C548 C 0.64575 0.76891 0.88001 0.0
C549 C 0.65126 0.7303 0.95272 0.0
C550 C 0.63286 0.71474 0.94626 0.0
C551 C 0.67656 0.77451 0.92551 0.0
H552 H 0.7565 0.84974 0.20606 0.0
H553 H 0.71839 0.82653 0.19821 0.0
H554 H 0.77495 0.82642 0.06337 0.0
H555 H 0.81306 0.84968 0.07113 0.0
H556 H 0.61782 0.76276 0.84309 0.0
H557 H 0.65052 0.78993 0.85419 0.0
H558 H 0.66024 0.72132 0.98351 0.0
H559 H 0.62777 0.69391 0.97212 0.0
Tb560 Tb 0.44553 1.01272 0.57415 0.0
Eu561 Eu 0.47301 0.05548 0.47678 0.0
C562 C 0.52798 1.00155 0.5427 0.0
C563 C 0.45173 0.08168 0.56322 0.0
C564 C 0.39854 0.96087 0.65246 0.0
C565 C 0.3912 0.907 0.67985 0.0
C566 C 0.4086 0.9266 0.67836 0.0
C567 C 0.37005 0.97561 0.62924 0.0
C568 C 0.35289 0.95605 0.63054 0.0
C569 C 0.36381 0.92149 0.65517 0.0
C570 C 0.42051 0.97961 0.6453 0.0
O571 O 0.4036 1.0332 0.53622 0.0
O572 O 0.41108 0.08185 0.49321 0.0
O573 O 0.46304 1.01614 0.46333 0.0
O574 O 0.46962 0.97718 0.53059 0.0
C575 C 0.39179 0.06375 0.50899 0.0
O576 O 0.46376 0.10458 0.42745 0.0
O577 O 0.51244 0.05773 0.41456 0.0
O578 O 0.52374 1.01222 0.50195 0.0
O579 O 0.4993 1.00572 0.57542 0.0
O580 O 0.4324 0.06329 0.58292 0.0
O581 O 0.47473 0.07782 0.52549 0.0
C582 C 0.46736 0.98523 0.48916 0.0
O583 O 0.45433 0.96627 0.62359 0.0
O584 O 0.40439 1.01344 0.63117 0.0
C585 C 0.5192 0.10929 0.39612 0.0
C586 C 0.55528 0.1483 0.38999 0.0
C587 C 0.53877 0.15552 0.35552 0.0
C588 C 0.52067 0.13605 0.35865 0.0
C589 C 0.53645 0.10174 0.43002 0.0
C590 C 0.55446 0.12106 0.42691 0.0
C591 C 0.49635 0.09173 0.40301 0.0
H592 H 0.39981 0.8803 0.6991 0.0
H593 H 0.43069 0.91467 0.69618 0.0
H594 H 0.36198 1.00179 0.60856 0.0
H595 H 0.3318 0.96756 0.61131 0.0
H596 H 0.53915 0.17665 0.32691 0.0
H597 H 0.50698 0.1425 0.33257 0.0
H598 H 0.53492 0.08164 0.45959 0.0
H599 H 0.56684 0.11547 0.45385 0.0
Tb600 Tb 0.44369 0.51212 0.07588 0.0
Eu601 Eu 0.45896 0.56564 0.98153 0.0
C602 C 0.52153 0.51167 0.037 0.0
C603 C 0.44071 0.58318 0.07452 0.0
C604 C 0.41302 0.44637 0.14667 0.0
C605 C 0.40594 0.39236 0.17611 0.0
C606 C 0.42111 0.41348 0.176 0.0
C607 C 0.38963 0.45784 0.11776 0.0
C608 C 0.37446 0.43703 0.11793 0.0
C609 C 0.38267 0.40411 0.14685 0.0
C610 C 0.43103 0.46783 0.1428 0.0
O611 O 0.39483 0.53618 0.04844 0.0
O612 O 0.39739 0.58656 1.00278 0.0
O613 O 0.44841 0.52895 0.96341 0.0
O614 O 0.46459 0.48412 1.02411 0.0
C615 C 0.37861 0.56823 0.02606 0.0
O616 O 0.4453 0.61794 0.93902 0.0
O617 O 0.49339 0.57424 0.91664 0.0
O618 O 0.51365 0.52343 0.99791 0.0
O619 O 0.4958 0.51103 0.07245 0.0
O620 O 0.42714 0.55997 0.09445 0.0
O621 O 0.45983 0.58508 0.03408 0.0
C622 C 0.45747 0.49615 0.9843 0.0
O623 O 0.46284 0.46112 0.11563 0.0
O624 O 0.40997 0.5013 0.13671 0.0
C625 C 0.49917 0.62538 0.90404 0.0
C626 C 0.54069 0.65998 0.89546 0.0
C627 C 0.52763 0.66454 0.85924 0.0
C628 C 0.50678 0.64729 0.86358 0.0
C629 C 0.51288 0.6205 0.93982 0.0
C630 C 0.53345 0.63772 0.93559 0.0
C631 C 0.47614 0.6081 0.91048 0.0
H632 H 0.41258 0.36685 0.19852 0.0
H633 H 0.43954 0.40397 0.19811 0.0
H634 H 0.38358 0.48273 0.09442 0.0
H635 H 0.3567 0.4464 0.09503 0.0
H636 H 0.53308 0.68178 0.82808 0.0
H637 H 0.49631 0.65131 0.83573 0.0
H638 H 0.50737 0.60359 0.97123 0.0
H639 H 0.54342 0.63395 0.96375 0.0
C640 C -0.0343 0.10973 0.10117 0.0
C641 C 0.93506 0.1095 0.09359 0.0
C642 C 0.89419 0.16293 0.1207 0.0
C643 C 0.92559 0.16496 0.12329 0.0
N644 N -0.00806 0.14063 0.11395 0.0
N645 N 0.87018 0.13799 0.09191 0.0
C646 C -0.03858 0.13853 0.11286 0.0
C647 C 0.89919 0.13655 0.10258 0.0
N648 N -0.00037 0.08237 0.09807 0.0
N649 N 0.8596 0.18554 0.13685 0.0
H650 H 0.87253 0.1189 0.07945 0.0
H651 H 0.84435 0.15923 0.09258 0.0
H652 H 0.85493 0.20507 0.15036 0.0
H653 H 0.83575 0.18315 0.14033 0.0
H654 H 0.00494 0.05912 0.09246 0.0
H655 H 0.00494 0.05912 0.09246 0.0
H656 H 0.01869 0.12168 0.10614 0.0
H657 H -0.00935 0.16175 0.12098 0.0
C658 C 0.84263 0.25608 0.44761 0.0
C659 C 0.80628 0.2765 0.43926 0.0
C660 C 0.83005 0.30636 0.36724 0.0
C661 C 0.86676 0.28291 0.3728 0.0
N662 N 0.90815 0.23143 0.41602 0.0
N663 N 0.76689 0.31484 0.38622 0.0
C664 C 0.87322 0.25671 0.41253 0.0
C665 C 0.80043 0.29971 0.3976 0.0
N666 N 0.84793 0.23603 0.48884 0.0
N667 N 0.82317 0.33596 0.33405 0.0
H668 H 0.74501 0.30905 0.4062 0.0
H669 H 0.76231 0.32967 0.35475 0.0
H670 H 0.84394 0.34287 0.31226 0.0
H671 H 0.79667 0.35563 0.33145 0.0
H672 H 0.87342 0.22349 0.49809 0.0
H673 H 0.82626 0.23386 0.51464 0.0
H674 H 0.91398 0.20976 0.44246 0.0
H675 H 0.93104 0.23038 0.39066 0.0
C676 C 0.72932 0.12656 0.62735 0.0
C677 C 0.71338 0.12736 0.67232 0.0
C678 C 0.70186 0.1892 0.65385 0.0
C679 C 0.7158 0.18916 0.60838 0.0
N680 N 0.7398 0.15843 0.5512 0.0
N681 N 0.67783 0.1617 0.72651 0.0
C682 C 0.72839 0.15804 0.59498 0.0
C683 C 0.69803 0.15927 0.68498 0.0
N684 N 0.74695 0.09531 0.61586 0.0
N685 N 0.69223 0.21786 0.66785 0.0
H686 H 0.6747 0.14066 0.75061 0.0
H687 H 0.66131 0.18519 0.73607 0.0
H688 H 0.69164 0.24136 0.64679 0.0
H689 H 0.68716 0.21772 0.70078 0.0
H690 H 0.76274 0.09183 0.58484 0.0
H691 H 0.74808 0.07201 0.63843 0.0
H692 H 0.74481 0.13837 0.53856 0.0
H693 H 0.74263 0.17969 0.52696 0.0
C694 C 0.82446 0.104 0.99258 0.0
C695 C 0.84182 0.07346 1.0235 0.0
C696 C 0.80443 0.04795 1.02044 0.0
C697 C 0.79381 0.07473 0.98249 0.0
N698 N 0.7916 0.12956 0.93301 0.0
N699 N 0.83243 1.02759 0.08347 0.0
C700 C 0.80251 0.1036 0.96925 0.0
C701 C 0.82672 0.04881 0.04286 0.0
N702 N 0.82726 0.13372 0.98763 0.0
N703 N 0.79473 1.02098 0.03363 0.0
H704 H 0.84574 1.03046 0.1019 0.0
H705 H 0.82034 1.01045 0.1009 0.0
H706 H 0.77724 1.02033 1.01879 0.0
H707 H 0.80539 0.99853 0.05771 0.0
H708 H 0.81313 0.15766 0.96769 0.0
H709 H 0.83966 0.13536 1.00832 0.0
H710 H 0.80098 0.14894 0.91872 0.0
H711 H 0.77483 0.13062 0.91548 0.0
C712 C 0.07806 0.97881 0.06434 0.0
C713 C 0.0583 1.01057 0.03653 0.0
C714 C 0.09531 1.03606 0.04113 0.0
C715 C 0.10955 1.00697 0.07539 0.0
N716 N 0.11534 0.94994 0.12014 0.0
N717 N 0.05226 0.06887 0.99372 0.0
C718 C 0.1019 0.97771 0.08648 0.0
C719 C 0.06868 1.03852 1.02258 0.0
N720 N 0.07376 0.94984 0.06938 0.0
N721 N 0.10584 0.06251 0.02752 0.0
H722 H 0.03183 0.07401 0.97852 0.0
H723 H 0.03183 0.07401 0.97852 0.0
H724 H 0.12571 0.06161 0.04 0.0
H725 H 0.09554 0.08466 1.00278 0.0
H726 H 0.08951 0.925 0.08625 0.0
H727 H 0.05676 0.95023 0.05273 0.0
H728 H 0.1071 0.9298 0.13339 0.0
H729 H 0.13331 0.9479 0.13677 0.0
C730 C 0.94835 0.44294 0.4881 0.0
C731 C -0.0288 0.4609 0.46706 0.0
C732 C -0.00308 0.43172 0.40647 0.0
C733 C -0.02345 0.41157 0.42943 0.0
N734 N 0.93747 0.39375 0.49524 0.0
N735 N 0.02241 0.46729 0.41067 0.0
C736 C -0.04641 0.41596 0.47119 0.0
C737 C -0.00307 0.45388 0.42742 0.0
N738 N 0.92047 0.45267 0.52303 0.0
N739 N 0.01528 0.43057 0.36403 0.0
H740 H 0.0239 0.48293 0.42563 0.0
H741 H 0.04431 0.46016 0.38446 0.0
H742 H 0.01574 0.41486 0.34741 0.0
H743 H 0.02723 0.44746 0.34401 0.0
H744 H 0.91563 0.47215 0.53658 0.0
H745 H 0.90015 0.44358 0.53624 0.0
H746 H 0.92343 0.3934 0.52769 0.0
H747 H 0.94065 0.37366 0.48402 0.0
C748 C 0.59712 0.27017 0.62852 0.0
C749 C 0.6018 0.3014 0.60936 0.0
C750 C 0.5445 0.33102 0.65861 0.0
C751 C 0.54285 0.2985 0.68108 0.0
N752 N 0.57447 0.2357 0.69478 0.0
N753 N 0.58226 0.36097 0.60939 0.0
C754 C 0.57126 0.26765 0.66823 0.0
C755 C 0.57627 0.33166 0.62559 0.0
N756 N 0.61643 0.24312 0.60832 0.0
N757 N 0.51521 0.36133 0.66712 0.0
H758 H 0.60403 0.36288 0.58357 0.0
H759 H 0.56695 0.38252 0.62322 0.0
H760 H 0.49127 0.36202 0.69029 0.0
H761 H 0.51336 0.38593 0.64862 0.0
H762 H 0.61201 0.22069 0.6197 0.0
H763 H 0.63279 0.24518 0.57708 0.0
H764 H 0.59691 0.21243 0.68889 0.0
H765 H 0.5572 0.23275 0.72536 0.0
C766 C 0.72352 0.91779 0.86826 0.0
C767 C 0.70076 0.95098 0.87887 0.0
C768 C 0.67593 0.92142 0.9523 0.0
C769 C 0.69959 0.88841 0.94188 0.0
N770 N 0.75043 0.85476 0.89291 0.0
N771 N 0.65696 0.98414 0.93249 0.0
C772 C 0.72448 0.8866 0.90063 0.0
C773 C 0.6777 0.95263 0.92153 0.0
N774 N 0.74427 0.91578 0.82684 0.0
N775 N 0.6506 0.923 0.99099 0.0
H776 H 0.65462 1.00775 0.91002 0.0
H777 H 0.64314 0.98706 0.96425 0.0
H778 H 0.64904 0.90082 1.01424 0.0
H779 H 0.62968 0.94607 0.99924 0.0
H780 H 0.75654 0.89355 0.8148 0.0
H781 H 0.74825 0.9367 0.80335 0.0
H782 H 0.77278 0.85118 0.86654 0.0
H783 H 0.75143 0.83147 0.91491 0.0
C784 C 0.06644 0.3266 0.08855 0.0
C785 C 0.10059 0.30822 0.10285 0.0
C786 C 0.06775 0.29785 0.17935 0.0
C787 C 0.03453 0.3116 0.16456 0.0
N788 N 0.00214 0.33738 0.10482 0.0
N789 N 0.13407 0.26905 0.16164 0.0
C790 C 0.03387 0.3254 0.119 0.0
C791 C 0.10136 0.29223 0.14823 0.0
N792 N 0.06485 0.34638 0.04645 0.0
N793 N 0.06773 0.28903 0.22321 0.0
H794 H 0.15956 0.26182 0.14027 0.0
H795 H 0.13565 0.2536 0.19352 0.0
H796 H 0.0447 0.28949 0.24787 0.0
H797 H 0.09033 0.28328 0.23502 0.0
H798 H 0.04026 0.36297 0.03518 0.0
H799 H 0.08788 0.34886 1.02385 0.0
H800 H 0.00104 0.34381 0.07181 0.0
H801 H -0.02284 0.33914 0.1263 0.0
C802 C 0.7249 0.42601 0.39466 0.0
C803 C 0.69107 0.45352 0.38284 0.0
C804 C 0.65868 0.41784 0.43523 0.0
C805 C 0.69211 0.39171 0.44932 0.0
N806 N 0.75545 0.37528 0.44882 0.0
N807 N 0.62458 0.4781 0.39879 0.0
C808 C 0.72461 0.3973 0.4312 0.0
C809 C 0.6576 0.45007 0.40501 0.0
N810 N 0.75775 0.42598 0.3693 0.0
N811 N 0.62785 0.41185 0.45064 0.0
H812 H 0.62259 0.50224 0.3781 0.0
H813 H 0.59918 0.47851 0.41717 0.0
H814 H 0.62688 0.38982 0.47483 0.0
H815 H 0.60394 0.42771 0.43775 0.0
H816 H 0.78322 0.40479 0.37311 0.0
H817 H 0.75955 0.44546 0.34131 0.0
H818 H 0.77868 0.38003 0.43992 0.0
H819 H 0.75648 0.35429 0.47565 0.0
C820 C 0.58666 1.00836 0.52436 0.0
C821 C 0.56431 0.99109 0.55247 0.0
C822 C 0.59465 0.97545 0.61255 0.0
C823 C 0.60847 1.00082 0.58784 0.0
N824 N 0.61807 0.04162 0.51977 0.0
N825 N 0.55441 0.94985 0.6192 0.0
C826 C 0.60503 1.01705 0.54337 0.0
C827 C 0.57104 0.97163 0.59529 0.0
N828 N 0.59179 1.01493 0.47979 0.0
N829 N 0.60454 0.95492 0.652 0.0
H830 H 0.54058 0.94389 0.60503 0.0
H831 H 0.55406 0.93792 0.65246 0.0
H832 H 0.62206 0.95694 0.66525 0.0
H833 H 0.59766 0.93427 0.67037 0.0
H834 H 0.60956 1.02578 0.45792 0.0
H835 H 0.58288 1.00466 0.46494 0.0
H836 H 0.61279 0.05682 0.48867 0.0
H837 H 0.63179 0.04866 0.53259 0.0
C838 C 0.00286 0.93986 0.95302 0.0
C839 C -0.03272 0.96709 0.96249 0.0
C840 C 0.94154 0.94449 0.93131 0.0
C841 C -0.02375 0.91533 0.92621 0.0
N842 N 0.03877 0.88232 0.93808 0.0
N843 N 0.90146 0.99223 0.96717 0.0
C844 C 0.00663 0.91221 0.93866 0.0
C845 C 0.93625 0.9687 0.95321 0.0
N846 N 0.03327 0.94111 0.95608 0.0
N847 N 0.91382 0.94951 0.91429 0.0
H848 H 0.89624 1.0104 0.98329 0.0
H849 H 0.87756 0.99181 0.96623 0.0
H850 H 0.9166 0.93222 0.8983 0.0
H851 H 0.88928 0.97222 0.91263 0.0
H852 H 0.06024 0.92403 0.94523 0.0
H853 H 0.03176 0.96127 0.96558 0.0
H854 H 0.06039 0.87682 0.95151 0.0
H855 H 0.04275 0.86162 0.92744 0.0
C856 C 0.07043 0.19682 0.85537 0.0
C857 C 0.05217 0.18005 0.89329 0.0
C858 C 0.07176 0.19534 0.94084 0.0
C859 C 0.09252 0.20962 0.90301 0.0
N860 N 0.11658 0.21943 0.8248 0.0
N861 N 0.03966 0.15832 0.97208 0.0
C862 C 0.09321 0.20917 0.86034 0.0
C863 C 0.05403 0.17785 0.93608 0.0
N864 N 0.06528 0.20162 0.81473 0.0
N865 N 0.06798 0.19955 0.98111 0.0
H866 H 0.02585 0.14558 0.97006 0.0
H867 H 0.04385 0.15242 1.00362 0.0
H868 H 0.08061 0.2122 0.98594 0.0
H869 H 0.04996 0.1931 1.00914 0.0
H870 H 0.07448 0.21703 0.78624 0.0
H871 H 0.04926 0.19234 0.80989 0.0
H872 H 0.12129 0.21622 0.79356 0.0
H873 H 0.13369 0.22866 0.82716 0.0
C874 C 0.58273 0.6483 0.24237 0.0
C875 C 0.58831 0.62313 0.28294 0.0
C876 C 0.53121 0.66397 0.32084 0.0
C877 C 0.52922 0.69066 0.28149 0.0
N878 N 0.5584 0.7096 0.20699 0.0
N879 N 0.56871 0.60705 0.36153 0.0
C880 C 0.55622 0.68314 0.24273 0.0
C881 C 0.56276 0.63103 0.32245 0.0
N882 N 0.60316 0.63949 0.20329 0.0
N883 N 0.50234 0.66954 0.35597 0.0
H884 H 0.58982 0.58178 0.36348 0.0
H885 H 0.55382 0.61269 0.39199 0.0
H886 H 0.47844 0.69291 0.35544 0.0
H887 H 0.50056 0.65006 0.38407 0.0
H888 H 0.5971 0.65598 0.17293 0.0
H889 H 0.62393 0.61483 0.20068 0.0
H890 H 0.57982 0.70592 0.17955 0.0
H891 H 0.54138 0.73582 0.2065 0.0
C892 C 0.29166 0.89244 0.66591 0.0
C893 C 0.31254 0.86575 0.64248 0.0
C894 C 0.36745 0.8753 0.6275 0.0
C895 C 0.34714 0.90039 0.65336 0.0
N896 N 0.29245 0.92821 0.70407 0.0
N897 N 0.37142 0.82716 0.60776 0.0
C898 C 0.30996 0.90754 0.67469 0.0
C899 C 0.35083 0.85576 0.6253 0.0
N900 N 0.25415 0.90425 0.67829 0.0
N901 N 0.40201 0.87114 0.60365 0.0
H902 H 0.36008 0.81241 0.60528 0.0
H903 H 0.40011 0.81632 0.59901 0.0
H904 H 0.41516 0.885 0.60424 0.0
H905 H 0.41658 0.856 0.58056 0.0
H906 H 0.237 0.92623 0.69108 0.0
H907 H 0.23968 0.89386 0.67244 0.0
H908 H 0.26665 0.93152 0.72409 0.0
H909 H 0.30516 0.93961 0.71138 0.0
C910 C 0.05832 0.66778 0.82802 0.0
C911 C 0.03517 0.681 0.79767 0.0
C912 C 0.07161 0.62561 0.775 0.0
C913 C 0.09944 0.61643 0.7973 0.0
N914 N 0.12153 0.63665 0.83582 0.0
N915 N 0.0261 0.67381 0.73432 0.0
C916 C 0.09345 0.63943 0.82172 0.0
C917 C 0.04326 0.66026 0.76903 0.0
N918 N 0.04695 0.68197 0.86306 0.0
N919 N 0.07154 0.60138 0.76023 0.0
H920 H 0.00788 0.6999 0.72557 0.0
H921 H 0.03367 0.66003 0.71093 0.0
H922 H 0.09 0.57509 0.767 0.0
H923 H 0.0502 0.60664 0.74642 0.0
H924 H 0.06228 0.67132 0.88753 0.0
H925 H 0.02042 0.70132 0.87049 0.0
H926 H 0.11808 0.65477 0.85092 0.0
H927 H 0.1491 0.62005 0.82677 0.0
C928 C 0.85312 0.35081 0.63392 0.0
C929 C 0.81411 0.36412 0.64632 0.0
C930 C 0.81194 0.408 0.67433 0.0
C931 C 0.85023 0.39768 0.65671 0.0
N932 N 0.907 0.3617 0.61546 0.0
N933 N 0.75552 0.40767 0.67381 0.0
C934 C 0.87088 0.36953 0.63562 0.0
C935 C 0.79325 0.39327 0.66552 0.0
N936 N 0.87319 0.31994 0.62126 0.0
N937 N 0.79368 0.43141 0.70026 0.0
H938 H 0.74079 0.39754 0.66796 0.0
H939 H 0.73879 0.43124 0.68314 0.0
H940 H 0.80673 0.44239 0.70773 0.0
H941 H 0.76664 0.43743 0.71766 0.0
H942 H 0.90186 0.30692 0.61642 0.0
H943 H 0.86104 0.30572 0.61918 0.0
H944 H 0.92232 0.34399 0.59556 0.0
H945 H 0.92105 0.37486 0.61566 0.0
C946 C 0.30698 0.93727 0.2423 0.0
C947 C 0.30415 0.96276 0.2598 0.0
C948 C 0.36963 0.92751 0.2661 0.0
C949 C 0.37171 0.9024 0.24798 0.0
N950 N 0.34783 0.89748 0.19578 0.0
N951 N 0.33621 0.98679 0.27622 0.0
C952 C 0.34216 0.91182 0.2286 0.0
C953 C 0.33643 0.95922 0.2685 0.0
N954 N 0.27627 0.93574 0.24082 0.0
N955 N 0.3992 0.92213 0.27964 0.0
H956 H 0.31333 1.01092 0.2756 0.0
H957 H 0.3597 0.98707 0.27871 0.0
H958 H 0.42611 0.90501 0.26895 0.0
H959 H 0.39704 0.93587 0.30025 0.0
H960 H 0.27789 0.91577 0.23077 0.0
H961 H 0.24962 0.95128 0.25491 0.0
H962 H 0.32709 0.90531 0.17927 0.0
H963 H 0.37425 0.8818 0.18115 0.0
C964 C 0.34462 0.45161 0.76332 0.0
C965 C 0.31213 0.4565 0.75349 0.0
C966 C 0.34237 0.39576 0.74727 0.0
C967 C 0.37502 0.39105 0.75596 0.0
N968 N 0.4103 0.41614 0.76289 0.0
N969 N 0.28551 0.43524 0.72233 0.0
C970 C 0.37703 0.41948 0.7614 0.0
C971 C 0.31288 0.42951 0.74054 0.0
N972 N 0.34473 0.47787 0.77383 0.0
N973 N 0.33796 0.36759 0.74885 0.0
H974 H 0.26083 0.45748 0.72076 0.0
H975 H 0.28829 0.41793 0.7064 0.0
H976 H 0.35789 0.34197 0.75533 0.0
H977 H 0.31287 0.36918 0.74838 0.0
H978 H 0.36533 0.47449 0.78728 0.0
H979 H 0.32358 0.50311 0.77001 0.0
H980 H 0.41467 0.43666 0.7628 0.0
H981 H 0.43456 0.39329 0.7604 0.0
C982 C 0.06545 0.81866 0.60059 0.0
C983 C 0.09792 0.8106 0.61374 0.0
C984 C 0.06838 0.79569 0.69107 0.0
C985 C 0.03577 0.80432 0.67827 0.0
N986 N 0.00034 0.83074 0.62156 0.0
N987 N 0.1239 0.80311 0.67334 0.0
C988 C 0.03348 0.81768 0.63314 0.0
C989 C 0.09728 0.80317 0.65939 0.0
N990 N 0.06497 0.82783 0.55684 0.0
N991 N 0.07318 0.77793 0.73316 0.0
H992 H 0.1467 0.80694 0.65283 0.0
H993 H 0.12158 0.80222 0.7059 0.0
H994 H 0.05364 0.7705 0.75719 0.0
H995 H 0.0982 0.76713 0.74297 0.0
H996 H 0.04475 0.82902 0.54482 0.0
H997 H 0.0854 0.83372 0.53226 0.0
H998 H -0.00443 0.84402 0.58985 0.0
H999 H -0.02354 0.83082 0.64454 0.0
C1000 C 0.22608 0.92739 0.39963 0.0
C1001 C 0.19295 0.95345 0.38486 0.0
C1002 C 0.16065 0.91725 0.43533 0.0
C1003 C 0.19468 0.88961 0.44622 0.0
N1004 N 0.26116 0.86686 0.43204 0.0
N1005 N 0.12892 0.97214 0.38625 0.0
C1006 C 0.22767 0.89441 0.42687 0.0
C1007 C 0.16035 0.94794 0.40191 0.0
N1008 N 0.25642 0.93384 0.38771 0.0
N1009 N 0.1283 0.91496 0.45852 0.0
H1010 H 0.12668 0.99601 0.36448 0.0
H1011 H 0.10571 0.9678 0.39292 0.0
H1012 H 0.12728 0.89359 0.48405 0.0
H1013 H 0.10234 0.93549 0.45551 0.0
H1014 H 0.27952 0.91787 0.40214 0.0
H1015 H 0.25767 0.95649 0.366 0.0
H1016 H 0.28626 0.86728 0.41372 0.0
H1017 H 0.2641 0.84236 0.45153 0.0
C1018 C 0.94362 0.62786 0.64234 0.0
C1019 C 0.93584 0.66253 0.61717 0.0
C1020 C 0.93009 0.64852 0.55637 0.0
C1021 C 0.94077 0.61308 0.58012 0.0
N1022 N -0.03463 0.56767 0.64206 0.0
N1023 N 0.92882 0.7043 0.5474 0.0
C1024 C 0.94957 0.60234 0.62219 0.0
C1025 C 0.93131 0.67236 0.57325 0.0
N1026 N 0.94449 0.61945 0.68587 0.0
N1027 N 0.91703 0.65985 0.51872 0.0
H1028 H 0.92927 0.72253 0.55885 0.0
H1029 H 0.92974 0.71145 0.5137 0.0
H1030 H 0.91413 0.64366 0.50618 0.0
H1031 H 0.90555 0.686 0.5023 0.0
H1032 H 0.94565 0.59576 0.70718 0.0
H1033 H 0.94123 0.63713 0.70157 0.0
H1034 H -0.02366 0.55821 0.67013 0.0
H1035 H -0.0293 0.54801 0.62845 0.0
C1036 C 0.29932 0.79182 0.3952 0.0
C1037 C 0.30406 0.77322 0.43919 0.0
C1038 C 0.37096 0.75719 0.41544 0.0
C1039 C 0.36574 0.77724 0.37219 0.0
N1040 N 0.3247 0.81724 0.32179 0.0
N1041 N 0.34363 0.73994 0.49221 0.0
C1042 C 0.32991 0.79519 0.36225 0.0
C1043 C 0.33971 0.75647 0.44959 0.0
N1044 N 0.26533 0.8069 0.38476 0.0
N1045 N 0.40604 0.73789 0.42338 0.0
H1046 H 0.32214 0.73648 0.51728 0.0
H1047 H 0.36761 0.73081 0.50337 0.0
H1048 H 0.42928 0.73828 0.39935 0.0
H1049 H 0.41263 0.71984 0.4527 0.0
H1050 H 0.26115 0.81573 0.35266 0.0
H1051 H 0.24103 0.80952 0.40793 0.0
H1052 H 0.29894 0.83513 0.31412 0.0
H1053 H 0.34628 0.81957 0.2962 0.0
C1054 C 0.23867 0.12928 0.15185 0.0
C1055 C 0.20498 0.1256 0.16909 0.0
C1056 C 0.17285 0.1844 0.12426 0.0
C1057 C 0.20674 0.18763 0.10589 0.0
N1058 N 0.27305 0.16016 0.09544 0.0
N1059 N 0.14104 0.1477 0.16567 0.0
C1060 C 0.23995 0.15928 0.11804 0.0
C1061 C 0.17254 0.15242 0.15315 0.0
N1062 N 0.26972 0.10384 0.16752 0.0
N1063 N 0.14035 0.21265 0.1162 0.0
H1064 H 0.13792 0.12651 0.18943 0.0
H1065 H 0.11843 0.1638 0.15044 0.0
H1066 H 0.13889 0.2365 0.09556 0.0
H1067 H 0.11439 0.21365 0.1327 0.0
H1068 H 0.29364 0.10694 0.16128 0.0
H1069 H 0.27122 0.0799 0.18841 0.0
H1070 H 0.29853 0.13905 0.09917 0.0
H1071 H 0.27521 0.18105 0.06976 0.0
C1072 C 0.83295 0.74121 0.93429 0.0
C1073 C 0.813 0.7679 0.95782 0.0
C1074 C 0.86128 0.78901 0.92145 0.0
C1075 C 0.87717 0.76661 0.89244 0.0
N1076 N 0.87836 0.72106 0.87077 0.0
N1077 N 0.80647 0.82035 0.96926 0.0
C1078 C 0.86314 0.74247 0.89889 0.0
C1079 C 0.82707 0.79222 0.95092 0.0
N1080 N 0.82351 0.71415 0.94665 0.0
N1081 N 0.87822 0.80809 0.92022 0.0
H1082 H 0.78117 0.82449 0.99053 0.0
H1083 H 0.81294 0.84138 0.96037 0.0
H1084 H 0.90162 0.80876 0.89702 0.0
H1085 H 0.87045 0.8214 0.94418 0.0
H1086 H 0.83882 0.69223 0.93357 0.0
H1087 H 0.80236 0.71198 0.9733 0.0
H1088 H 0.86663 0.70601 0.87014 0.0
H1089 H 0.90197 0.71959 0.84645 0.0
C1090 C 0.23345 0.62512 0.63215 0.0
C1091 C 0.21006 0.62669 0.67442 0.0
C1092 C 0.18863 0.69041 0.65527 0.0
C1093 C 0.21031 0.68933 0.61199 0.0
N1094 N 0.2509 0.656 0.55765 0.0
N1095 N 0.16023 0.66142 0.7231 0.0
C1096 C 0.23184 0.65674 0.59993 0.0
C1097 C 0.1864 0.65951 0.68514 0.0
N1098 N 0.25833 0.59329 0.62349 0.0
N1099 N 0.17001 0.72111 0.66815 0.0
H1100 H 0.15766 0.63951 0.74567 0.0
H1101 H 0.13895 0.68471 0.73047 0.0
H1102 H 0.16842 0.7448 0.64678 0.0
H1103 H 0.15808 0.72283 0.70069 0.0
H1104 H 0.27896 0.58989 0.59534 0.0
H1105 H 0.26009 0.56984 0.64611 0.0
H1106 H 0.26357 0.634 0.54506 0.0
H1107 H 0.2525 0.67806 0.53417 0.0
C1108 C 0.30182 0.06946 0.50493 0.0
C1109 C 0.30419 0.07814 0.459 0.0
C1110 C 0.36201 0.08224 0.44489 0.0
C1111 C 0.35937 0.07446 0.49107 0.0
N1112 N 0.32183 0.07049 0.56405 0.0
N1113 N 0.32954 0.10346 0.38604 0.0
C1114 C 0.32759 0.07124 0.52081 0.0
C1115 C 0.33193 0.08819 0.42929 0.0
N1116 N 0.27597 0.05829 0.53322 0.0
N1117 N 0.39399 0.08129 0.41576 0.0
H1118 H 0.30787 0.10817 0.37325 0.0
H1119 H 0.34697 0.11465 0.36398 0.0
H1120 H 0.41756 0.07641 0.42451 0.0
H1121 H 0.39836 0.08229 0.38264 0.0
H1122 H 0.27569 0.0478 0.56676 0.0
H1123 H 0.25632 0.05723 0.5226 0.0
H1124 H 0.29769 0.07105 0.58663 0.0
H1125 H 0.33975 0.07282 0.57629 0.0
C1126 C 0.84671 0.84401 0.14971 0.0
C1127 C 0.80985 0.86609 0.14365 0.0
C1128 C 0.81494 0.91591 0.14834 0.0
C1129 C 0.85286 0.89463 0.14984 0.0
N1130 N 0.90635 0.83957 0.14736 0.0
N1131 N 0.75998 0.92373 0.13143 0.0
C1132 C 0.86917 0.85891 0.14943 0.0
C1133 C 0.79419 0.90225 0.14154 0.0
N1134 N 0.85991 0.80871 0.15672 0.0
N1135 N 0.79868 0.949 0.15424 0.0
H1136 H 0.74377 0.91465 0.1266 0.0
H1137 H 0.74878 0.95082 0.1244 0.0
H1138 H 0.81311 0.9598 0.15934 0.0
H1139 H 0.77038 0.96468 0.15789 0.0
H1140 H 0.88511 0.79087 0.16598 0.0
H1141 H 0.84435 0.79695 0.15664 0.0
H1142 H 0.9207 0.81462 0.14173 0.0
H1143 H 0.92346 0.84936 0.14836 0.0
C1144 C 0.56634 0.22119 0.40478 0.0
C1145 C 0.60532 0.20655 0.39841 0.0
C1146 C 0.61114 0.15741 0.37783 0.0
C1147 C 0.57221 0.17004 0.38901 0.0
N1148 N 0.51239 0.21168 0.41748 0.0
N1149 N 0.66519 0.15924 0.38351 0.0
C1150 C 0.54963 0.20146 0.40343 0.0
C1151 C 0.6279 0.17432 0.38592 0.0
N1152 N 0.54542 0.25422 0.41126 0.0
N1153 N 0.63194 0.12951 0.35898 0.0
H1154 H 0.67855 0.17099 0.38883 0.0
H1155 H 0.68263 0.134 0.37948 0.0
H1156 H 0.62044 0.11639 0.35297 0.0
H1157 H 0.6601 0.12116 0.34593 0.0
H1158 H 0.51723 0.26781 0.41145 0.0
H1159 H 0.55676 0.26927 0.41295 0.0
H1160 H 0.49507 0.23194 0.43335 0.0
H1161 H 0.49896 0.19838 0.416 0.0
C1162 C 0.81437 0.44766 0.22411 0.0
C1163 C 0.80677 0.46563 0.25574 0.0
C1164 C 0.86704 0.42246 0.2742 0.0
C1165 C 0.86905 0.40002 0.25187 0.0
N1166 N 0.83672 0.39056 0.2136 0.0
N1167 N 0.82577 0.46545 0.31682 0.0
C1168 C 0.84075 0.41241 0.22859 0.0
C1169 C 0.83316 0.45204 0.28235 0.0
N1170 N 0.79636 0.46415 0.18979 0.0
N1171 N 0.89756 0.41645 0.28635 0.0
H1172 H 0.80091 0.48579 0.32605 0.0
H1173 H 0.84332 0.45374 0.33906 0.0
H1174 H 0.92363 0.3971 0.27737 0.0
H1175 H 0.89775 0.4336 0.30003 0.0
H1176 H 0.80274 0.4524 0.16463 0.0
H1177 H 0.77873 0.49074 0.18385 0.0
H1178 H 0.81454 0.39889 0.19924 0.0
H1179 H 0.85189 0.3636 0.22083 0.0
C1180 C 0.04826 0.68081 0.44125 0.0
C1181 C 0.04541 0.68602 0.39769 0.0
C1182 C 0.07714 0.72388 0.37011 0.0
C1183 C 0.08243 0.71634 0.41297 0.0
N1184 N 0.0739 0.68702 0.48992 0.0
N1185 N 0.0588 0.71033 0.31986 0.0
C1186 C 0.06813 0.6948 0.44864 0.0
C1187 C 0.06012 0.70722 0.36172 0.0
N1188 N 0.03269 0.66208 0.47663 0.0
N1189 N 0.0878 0.74808 0.33861 0.0
H1190 H 0.04532 0.69942 0.31306 0.0
H1191 H 0.07265 0.7219 0.29165 0.0
H1192 H 0.08328 0.75766 0.30656 0.0
H1193 H 0.08328 0.75766 0.30656 0.0
H1194 H 0.01709 0.65099 0.47486 0.0
H1195 H 0.01709 0.65099 0.47486 0.0
H1196 H 0.06377 0.67114 0.51687 0.0
H1197 H 0.08951 0.6956 0.49693 0.0
C1198 C 0.58951 0.13574 0.82732 0.0
C1199 C 0.59516 0.11473 0.80063 0.0
C1200 C 0.53292 0.15569 0.7866 0.0
C1201 C 0.53376 0.18131 0.80073 0.0
N1202 N 0.57273 0.19495 0.82352 0.0
N1203 N 0.57001 0.10793 0.75076 0.0
C1204 C 0.56456 0.17124 0.81856 0.0
C1205 C 0.5662 0.12529 0.77916 0.0
N1206 N 0.60845 0.12218 0.86033 0.0
N1207 N 0.50052 0.15926 0.78212 0.0
H1208 H 0.59328 0.08571 0.74358 0.0
H1209 H 0.55051 0.11754 0.7316 0.0
H1210 H 0.47499 0.17861 0.79249 0.0
H1211 H 0.49868 0.14006 0.77434 0.0
H1212 H 0.60375 0.13685 0.88136 0.0
H1213 H 0.62495 0.09549 0.8697 0.0
H1214 H 0.59634 0.18733 0.83475 0.0
H1215 H 0.56028 0.2216 0.80994 0.0
C1216 C 0.67739 0.66319 0.18234 0.0
C1217 C 0.70248 0.62969 0.17372 0.0
C1218 C 0.73235 0.65864 0.10423 0.0
C1219 C 0.7055 0.69218 0.11156 0.0
N1220 N 0.64686 0.72529 0.15302 0.0
N1221 N 0.75108 0.59597 0.12319 0.0
C1222 C 0.67658 0.69406 0.14943 0.0
C1223 C 0.72885 0.62764 0.1334 0.0
N1224 N 0.65413 0.6659 0.22235 0.0
N1225 N 0.76252 0.65617 0.07096 0.0
H1226 H 0.75081 0.57272 0.14451 0.0
H1227 H 0.76791 0.59297 0.09243 0.0
H1228 H 0.76674 0.67786 0.05002 0.0
H1229 H 0.78505 0.63264 0.06648 0.0
H1230 H 0.63927 0.68905 0.23285 0.0
H1231 H 0.65118 0.64473 0.2464 0.0
H1232 H 0.62307 0.72811 0.1773 0.0
H1233 H 0.64414 0.74807 0.12892 0.0
C1234 C 0.85356 0.58214 0.45034 0.0
C1235 C 0.85322 0.57307 0.49607 0.0
C1236 C 0.79782 0.56377 0.51343 0.0
C1237 C 0.79783 0.57377 0.46795 0.0
N1238 N 0.81797 0.60322 0.39475 0.0
N1239 N 0.81959 0.56495 0.57084 0.0
C1240 C 0.82307 0.58668 0.437 0.0
C1241 C 0.82349 0.56702 0.52758 0.0
N1242 N 0.88392 0.58366 0.41937 0.0
N1243 N 0.77436 0.54998 0.5428 0.0
H1244 H 0.83752 0.5682 0.58189 0.0
H1245 H 0.79681 0.5634 0.59484 0.0
H1246 H 0.75481 0.5478 0.53343 0.0
H1247 H 0.77604 0.53856 0.5758 0.0
H1248 H 0.88677 0.58585 0.3862 0.0
H1249 H 0.90785 0.57946 0.42656 0.0
H1250 H 0.83349 0.61628 0.37215 0.0
H1251 H 0.79586 0.60704 0.38362 0.0
C1252 C 0.10342 0.47816 0.58865 0.0
C1253 C 0.10734 0.5092 0.57949 0.0
C1254 C 0.06704 0.53834 0.5261 0.0
C1255 C 0.05785 0.50958 0.54122 0.0
N1256 N 0.06911 0.45091 0.583 0.0
N1257 N 0.09411 0.5687 0.53984 0.0
C1258 C 0.07708 0.47888 0.57091 0.0
C1259 C 0.09002 0.53906 0.54769 0.0
N1260 N 0.12468 0.44825 0.61459 0.0
N1261 N 0.05378 0.56505 0.49148 0.0
H1262 H 0.11216 0.56961 0.55348 0.0
H1263 H 0.07828 0.59289 0.52183 0.0
H1264 H 0.03636 0.56631 0.47493 0.0
H1265 H 0.0629 0.58455 0.47611 0.0
H1266 H 0.12563 0.42393 0.61971 0.0
H1267 H 0.14359 0.44716 0.62887 0.0
H1268 H 0.07845 0.4292 0.60843 0.0
H1269 H 0.05206 0.44985 0.5679 0.0
C1270 C 0.55264 0.82436 0.17169 0.0
C1271 C 0.52933 0.81402 0.16402 0.0
C1272 C 0.5667 0.81214 0.08935 0.0
C1273 C 0.59435 0.81458 0.10084 0.0
N1274 N 0.61579 0.81367 0.16042 0.0
N1275 N 0.51998 0.79069 0.1166 0.0
C1276 C 0.58792 0.81847 0.14394 0.0
C1277 C 0.53769 0.80609 0.12298 0.0
N1278 N 0.54108 0.84027 0.2051 0.0
N1279 N 0.56749 0.81625 0.04639 0.0
H1280 H 0.50078 0.78309 0.14121 0.0
H1281 H 0.52774 0.78171 0.08847 0.0
H1282 H 0.58662 0.82323 1.02054 0.0
H1283 H 0.54638 0.81711 0.03637 0.0
H1284 H 0.5563 0.8504 0.20991 0.0
H1285 H 0.51439 0.84728 0.22402 0.0
H1286 H 0.61227 0.8137 0.19297 0.0
H1287 H 0.6433 0.80479 0.14437 0.0
C1288 C 0.59441 0.47803 0.10044 0.0
C1289 C 0.60651 0.50495 0.08076 0.0
C1290 C 0.57663 0.5246 1.01889 0.0
C1291 C 0.55873 0.50237 0.04287 0.0
N1292 N 0.56146 0.44911 0.09541 0.0
N1293 N 0.60997 0.55382 1.02159 0.0
C1294 C 0.57128 0.47614 0.08026 0.0
C1295 C 0.59835 0.52791 0.03968 0.0
N1296 N 0.6034 0.45562 0.13959 0.0
N1297 N 0.57451 0.54108 0.97587 0.0
H1298 H 0.62702 0.5562 0.03519 0.0
H1299 H 0.60091 0.5742 0.99475 0.0
H1300 H 0.56252 0.53623 0.95807 0.0
H1301 H 0.58914 0.55568 0.95593 0.0
H1302 H 0.5923 0.43788 0.15828 0.0
H1303 H 0.62108 0.45565 0.15474 0.0
H1304 H 0.57122 0.42755 0.1208 0.0
H1305 H 0.54589 0.44686 0.07937 0.0
C1306 C 0.33511 0.3806 0.17625 0.0
C1307 C 0.36702 0.38215 0.14512 0.0
C1308 C 0.36187 0.35204 0.1016 0.0
C1309 C 0.33062 0.34957 0.13344 0.0
N1310 N 0.29098 0.35565 0.20458 0.0
N1311 N 0.41493 0.36442 0.08277 0.0
C1312 C 0.31841 0.36194 0.17198 0.0
C1313 C 0.38171 0.36626 0.10918 0.0
N1314 N 0.31974 0.39842 0.20859 0.0
N1315 N 0.37184 0.34173 0.06358 0.0
H1316 H 0.43014 0.37461 0.08751 0.0
H1317 H 0.42895 0.35045 0.05844 0.0
H1318 H 0.35871 0.33006 0.05763 0.0
H1319 H 0.39153 0.34662 0.03674 0.0
H1320 H 0.29405 0.40193 0.22899 0.0
H1321 H 0.33156 0.41184 0.21332 0.0
H1322 H 0.28362 0.36052 0.23549 0.0
H1323 H 0.27724 0.34306 0.20201 0.0
C1324 C 0.02499 0.16127 0.30042 0.0
C1325 C 0.03069 0.19201 0.27876 0.0
C1326 C 0.09735 0.15663 0.26973 0.0
C1327 C 0.09221 0.1256 0.28655 0.0
N1328 N 0.05093 0.09814 0.31278 0.0
N1329 N 0.07287 0.21612 0.22878 0.0
C1330 C 0.05589 0.12782 0.30002 0.0
C1331 C 0.06704 0.18886 0.25937 0.0
N1332 N -0.00933 0.16385 0.32311 0.0
N1333 N 0.13098 0.15582 0.26404 0.0
H1334 H 0.05135 0.23894 0.21678 0.0
H1335 H 0.09899 0.21419 0.21118 0.0
H1336 H 0.15394 0.13311 0.27267 0.0
H1337 H 0.13488 0.17833 0.25543 0.0
H1338 H -0.01443 0.14239 0.34293 0.0
H1339 H -0.03221 0.18769 0.32526 0.0
H1340 H 0.02525 0.0983 0.31884 0.0
H1341 H 0.07299 0.0734 0.31429 0.0
C1342 C 0.22722 0.38305 0.89823 0.0
C1343 C 0.20144 0.3841 0.9389 0.0
C1344 C 0.17773 0.44832 0.91962 0.0
C1345 C 0.201 0.44726 0.87719 0.0
N1346 N 0.24455 0.41348 0.8242 0.0
N1347 N 0.14879 0.41818 0.98614 0.0
C1348 C 0.22457 0.41458 0.86598 0.0
C1349 C 0.17593 0.41689 0.94919 0.0
N1350 N 0.25575 0.35191 0.89119 0.0
N1351 N 0.15717 0.47942 0.93163 0.0
H1352 H 0.14639 0.39593 1.00814 0.0
H1353 H 0.12691 0.44127 0.99329 0.0
H1354 H 0.15603 0.50308 0.91012 0.0
H1355 H 0.14299 0.48158 0.96357 0.0
H1356 H 0.27791 0.34971 0.86461 0.0
H1357 H 0.25941 0.32838 0.91425 0.0
H1358 H 0.25835 0.39104 0.81226 0.0
H1359 H 0.24506 0.43565 0.8004 0.0
C1360 C 0.34024 0.2583 0.95786 0.0
C1361 C 0.31237 0.25803 0.94422 0.0
C1362 C 0.35369 0.25166 0.87272 0.0
C1363 C 0.3764 0.26151 0.88255 0.0
N1364 N 0.38638 0.27969 0.93539 0.0
N1365 N 0.29096 0.2616 0.88289 0.0
C1366 C 0.36876 0.26593 0.92558 0.0
C1367 C 0.31865 0.25622 0.9002 0.0
N1368 N 0.3397 0.25112 1.00156 0.0
N1369 N 0.3657 0.23745 0.8376 0.0
H1370 H 0.26365 0.26888 0.89947 0.0
H1371 H 0.29441 0.26321 0.84974 0.0
H1372 H 0.39252 0.23103 0.81913 0.0
H1373 H 0.35084 0.22787 0.83093 0.0
H1374 H 0.36098 0.24864 1.013 0.0
H1375 H 0.32043 0.24339 0.02609 0.0
H1376 H 0.37884 0.28626 0.9653 0.0
H1377 H 0.40534 0.28833 0.91235 0.0
C1378 C 0.32835 0.60682 0.98189 0.0
C1379 C 0.34105 0.57998 1.01875 0.0
C1380 C 0.30111 0.55526 1.02097 0.0
C1381 C 0.29535 0.57693 0.97859 0.0
N1382 N 0.30038 0.62552 0.91949 0.0
N1383 N 0.32292 0.54366 0.08597 0.0
C1384 C 0.30744 0.60387 0.9596 0.0
C1385 C 0.32203 0.55885 0.04248 0.0
N1386 N 0.33427 0.63587 0.97022 0.0
N1387 N 0.28841 0.53012 0.03942 0.0
H1388 H 0.33608 0.54843 0.10256 0.0
H1389 H 0.30759 0.52981 0.1063 0.0
H1390 H 0.27219 0.52741 0.0249 0.0
H1391 H 0.29561 0.51084 0.06779 0.0
H1392 H 0.32367 0.65752 0.94527 0.0
H1393 H 0.34542 0.64019 0.98975 0.0
H1394 H 0.31231 0.64275 0.90159 0.0
H1395 H 0.28399 0.62498 0.9029 0.0
C1396 C 0.61983 0.68058 0.88331 0.0
C1397 C 0.60016 0.71076 0.90044 0.0
C1398 C 0.54136 0.71132 0.90526 0.0
C1399 C 0.56115 0.67914 0.89261 0.0
N1400 N 0.61867 0.63129 0.87261 0.0
N1401 N 0.54292 0.75373 0.93125 0.0
C1402 C 0.60028 0.66333 0.88214 0.0
C1403 C 0.56106 0.72599 0.91214 0.0
N1404 N 0.65708 0.66878 0.86763 0.0
N1405 N 0.50374 0.72791 0.91032 0.0
H1406 H 0.55636 0.76576 0.93579 0.0
H1407 H 0.51491 0.76349 0.94531 0.0
H1408 H 0.48838 0.71753 0.90632 0.0
H1409 H 0.48788 0.75309 0.91507 0.0
H1410 H 0.67249 0.64919 0.85047 0.0
H1411 H 0.6724 0.68033 0.86896 0.0
H1412 H 0.64704 0.61637 0.86993 0.0
H1413 H 0.60522 0.61853 0.86978 0.0
C1414 C 0.87004 0.91616 0.73048 0.0
C1415 C 0.87187 0.88886 0.76915 0.0
C1416 C 0.81781 0.93013 0.809 0.0
C1417 C 0.81262 0.95624 0.76908 0.0
N1418 N 0.8326 0.9737 0.69076 0.0
N1419 N 0.84085 0.86844 0.8413 0.0
C1420 C 0.83837 0.94907 0.7294 0.0
C1421 C 0.84409 0.8955 0.80743 0.0
N1422 N 0.89907 0.91113 0.69549 0.0
N1423 N 0.79735 0.93779 0.84862 0.0
H1424 H 0.85751 0.84255 0.83987 0.0
H1425 H 0.81881 0.87159 0.86812 0.0
H1426 H 0.77695 0.96234 0.85224 0.0
H1427 H 0.80312 0.92024 0.87858 0.0
H1428 H 0.90099 0.93101 0.66803 0.0
H1429 H 0.92287 0.88768 0.6955 0.0
H1430 H 0.84781 0.96868 0.66009 0.0
H1431 H 0.81128 0.99882 0.68927 0.0
C1432 C 0.40719 0.16078 0.61265 0.0
C1433 C 0.43885 0.1609 0.61768 0.0
C1434 C 0.47814 0.10702 0.59205 0.0
C1435 C 0.447 0.10826 0.58347 0.0
N1436 N 0.38276 0.14046 0.57781 0.0
N1437 N 0.50511 0.13481 0.61005 0.0
C1438 C 0.41167 0.13619 0.59186 0.0
C1439 C 0.47439 0.13436 0.60656 0.0
N1440 N 0.37271 0.18331 0.62923 0.0
N1441 N 0.51206 0.07972 0.58738 0.0
H1442 H 0.50416 0.1548 0.61935 0.0
H1443 H 0.5317 0.11562 0.60224 0.0
H1444 H 0.51757 0.05754 0.57882 0.0
H1445 H 0.51757 0.05754 0.57882 0.0
H1446 H 0.34867 0.18182 0.63113 0.0
H1447 H 0.36821 0.2016 0.64479 0.0
H1448 H 0.35756 0.16247 0.57847 0.0
H1449 H 0.38489 0.12364 0.56161 0.0
C1450 C 0.44071 0.43181 0.95646 0.0
C1451 C 0.47263 0.41939 0.92401 0.0
C1452 C 0.49447 0.45808 0.93016 0.0
C1453 C 0.46181 0.47129 0.96157 0.0
N1454 N 0.40151 0.47295 1.00052 0.0
N1455 N 0.52709 0.42428 0.87448 0.0
C1456 C 0.43441 0.45901 0.97333 0.0
C1457 C 0.49877 0.43356 0.90928 0.0
N1458 N 0.41593 0.41767 0.97167 0.0
N1459 N 0.52196 0.468 0.92154 0.0
H1460 H 0.53114 0.40626 0.85877 0.0
H1461 H 0.54489 0.43625 0.85895 0.0
H1462 H 0.51945 0.48641 0.9354 0.0
H1463 H 0.54814 0.45645 0.90299 0.0
H1464 H 0.39232 0.42601 0.99581 0.0
H1465 H 0.41943 0.39708 0.96119 0.0
H1466 H 0.39357 0.49399 1.01323 0.0
H1467 H 0.39357 0.49399 1.01323 0.0
C1468 C 0.44594 0.91966 0.47022 0.0
C1469 C 0.47369 0.90992 0.43302 0.0
C1470 C 0.49901 0.94744 0.43477 0.0
C1471 C 0.47002 0.95858 0.47071 0.0
N1472 N 0.41465 0.95503 0.5219 0.0
N1473 N 0.52298 0.91859 0.37504 0.0
C1474 C 0.44337 0.94472 0.48815 0.0
C1475 C 0.49928 0.92491 0.41397 0.0
N1476 N 0.42134 0.90523 0.48872 0.0
N1477 N 0.52733 0.95698 0.42191 0.0
H1478 H 0.52405 0.90222 0.35894 0.0
H1479 H 0.5394 0.93172 0.35674 0.0
H1480 H 0.52854 0.97283 0.43682 0.0
H1481 H 0.5513 0.94675 0.39927 0.0
H1482 H 0.40007 0.91225 0.5156 0.0
H1483 H 0.42236 0.8861 0.47755 0.0
H1484 H 0.40962 0.97364 0.53719 0.0
H1485 H 0.40962 0.97364 0.53719 0.0
C1486 C 0.39779 0.6336 0.11047 0.0
C1487 C 0.43426 0.60859 0.09789 0.0
C1488 C 0.45934 0.63818 0.11832 0.0
C1489 C 0.42298 0.66261 0.13188 0.0
N1490 N 0.35751 0.67952 0.14976 0.0
N1491 N 0.49998 0.58542 0.09499 0.0
C1492 C 0.39215 0.65906 0.13065 0.0
C1493 C 0.46485 0.61025 0.10351 0.0
N1494 N 0.36869 0.63449 0.10065 0.0
N1495 N 0.48919 0.64148 0.11918 0.0
H1496 H 0.50693 0.56316 0.08549 0.0
H1497 H 0.50693 0.56316 0.08549 0.0
H1498 H 0.48692 0.66191 0.12884 0.0
H1499 H 0.51632 0.62403 0.10924 0.0
H1500 H 0.34216 0.65457 0.10412 0.0
H1501 H 0.37146 0.61667 0.0856 0.0
H1502 H 0.33429 0.67575 0.15431 0.0
H1503 H 0.35241 0.69843 0.16468 0.0
loop_
_geom_bond_atom_site_label_1
_geom_bond_atom_site_label_2
_geom_bond_distance
_geom_bond_site_symmetry_2
_ccdc_geom_bond_type
Tb0 C10 2.825 . S
Tb0 O11 2.347 1_564 S
Tb0 O14 2.368 1_655 S
Tb0 O19 2.418 1_655 S
Tb0 O20 2.384 1_565 S
Tb0 O23 2.479 . S
Tb0 O24 2.471 . S
Eu1 O12 2.418 1_455 S
Eu1 O13 2.384 1_545 S
Eu1 O16 2.479 . S
Eu1 O17 2.471 . S
Eu1 O18 2.347 1_546 S
Eu1 O21 2.368 1_456 S
Eu1 C31 2.825 . S
C2 O18 1.259 . S
C2 O19 1.265 . S
C3 O20 1.255 . S
C3 O21 1.263 . S
C4 C6 1.380 . S
C4 C7 1.374 . S
C4 C10 1.507 . S
C5 C6 1.384 . S
C5 C9 1.387 . S
C5 H32 0.930 . S
C6 C4 1.380 . S
C6 C5 1.384 . S
C6 H33 0.931 . S
C7 C4 1.374 . S
C7 C8 1.390 . S
C7 H34 0.930 . S
C8 C7 1.390 . S
C8 C9 1.391 . S
C8 H35 0.930 . S
C9 C5 1.387 . S
C9 C8 1.391 . S
C10 Tb0 2.825 . S
C10 C4 1.507 . S
C10 O23 1.238 . S
C10 O24 1.247 . S
O11 Tb0 2.347 1_546 S
O11 C15 1.259 . S
O12 Eu1 2.418 1_655 S
O12 C15 1.265 . S
O13 Eu1 2.384 1_565 S
O13 C22 1.255 . S
O14 Tb0 2.368 1_455 S
O14 C22 1.263 1_554 S
C15 O11 1.259 . S
C15 O12 1.265 . S
O16 Eu1 2.479 . S
O16 C31 1.238 . S
O17 Eu1 2.471 . S
O17 C31 1.247 . S
O18 Eu1 2.347 1_564 S
O18 C2 1.259 . S
O19 Tb0 2.418 1_455 S
O19 C2 1.265 . S
O20 Tb0 2.384 1_545 S
O20 C3 1.255 . S
O21 Eu1 2.368 1_654 S
O21 C3 1.263 . S
C22 O13 1.255 . S
C22 O14 1.263 1_556 S
O23 Tb0 2.479 . S
O23 C10 1.238 . S
O24 Tb0 2.471 . S
O24 C10 1.247 . S
C25 C28 1.380 . S
C25 C29 1.374 . S
C25 C31 1.507 . S
C26 C27 1.387 . S
C26 C30 1.391 . S
C27 C26 1.387 . S
C27 C28 1.384 . S
C27 H36 0.930 . S
C28 C25 1.380 . S
C28 C27 1.384 . S
C28 H37 0.931 . S
C29 C25 1.374 . S
C29 C30 1.390 . S
C29 H38 0.930 . S
C30 C26 1.391 . S
C30 C29 1.390 . S
C30 H39 0.930 . S
C31 Eu1 2.825 . S
C31 O16 1.238 . S
C31 O17 1.247 . S
C31 C25 1.507 . S
H32 C5 0.930 . S
H33 C6 0.931 . S
H34 C7 0.930 . S
H35 C8 0.930 . S
H36 C27 0.930 . S
H37 C28 0.931 . S
H38 C29 0.930 . S
H39 C30 0.930 . S
Tb40 C50 2.825 . S
Tb40 O51 2.347 1_455 S
Tb40 O54 2.366 1_455 S
Tb40 O59 2.418 . S
Tb40 O60 2.384 . S
Tb40 O63 2.479 . S
Tb40 O64 2.471 1_455 S
Eu41 O52 2.418 . S
Eu41 O53 2.384 . S
Eu41 O56 2.479 . S
Eu41 O57 2.471 1_655 S
Eu41 O58 2.347 1_655 S
Eu41 O61 2.366 1_655 S
Eu41 C71 2.825 . S
C42 O58 1.259 . S
C42 O59 1.265 . S
C43 O60 1.255 . S
C43 O61 1.265 . S
C44 C46 1.380 1_655 S
C44 C47 1.374 . S
C44 C50 1.507 1_655 S
C45 C46 1.384 . S
C45 C49 1.387 1_455 S
C45 H72 0.930 . S
C46 C44 1.380 1_455 S
C46 C45 1.384 . S
C46 H73 0.931 . S
C47 C44 1.374 . S
C47 C48 1.390 . S
C47 H74 0.930 . S
C48 C47 1.390 . S
C48 C49 1.391 . S
C48 H75 0.930 . S
C49 C45 1.387 1_655 S
C49 C48 1.391 . S
C50 Tb40 2.825 . S
C50 C44 1.507 1_455 S
C50 O63 1.238 . S
C50 O64 1.247 1_455 S
O51 Tb40 2.347 1_655 S
O51 C55 1.259 . S
O52 Eu41 2.418 . S
O52 C55 1.265 . S
O53 Eu41 2.384 . S
O53 C62 1.255 . S
O54 Tb40 2.366 1_655 S
O54 C62 1.265 . S
C55 O51 1.259 . S
C55 O52 1.265 . S
O56 Eu41 2.479 . S
O56 C71 1.238 . S
O57 Eu41 2.471 1_455 S
O57 C71 1.247 1_455 S
O58 Eu41 2.347 1_455 S
O58 C42 1.259 . S
O59 Tb40 2.418 . S
O59 C42 1.265 . S
O60 Tb40 2.384 . S
O60 C43 1.255 . S
O61 Eu41 2.366 1_455 S
O61 C43 1.265 . S
C62 O53 1.255 . S
C62 O54 1.265 . S
O63 Tb40 2.479 . S
O63 C50 1.238 . S
O64 Tb40 2.471 1_655 S
O64 C50 1.247 1_655 S
C65 C68 1.380 1_455 S
C65 C69 1.374 . S
C65 C71 1.507 1_455 S
C66 C67 1.387 1_455 S
C66 C70 1.391 . S
C67 C66 1.387 1_655 S
C67 C68 1.384 . S
C67 H76 0.930 . S
C68 C65 1.380 1_655 S
C68 C67 1.384 . S
C68 H77 0.931 . S
C69 C65 1.374 . S
C69 C70 1.390 . S
C69 H78 0.930 . S
C70 C66 1.391 . S
C70 C69 1.390 . S
C70 H79 0.930 . S
C71 Eu41 2.825 . S
C71 O56 1.238 . S
C71 O57 1.247 1_655 S
C71 C65 1.507 1_655 S
H72 C45 0.930 . S
H73 C46 0.931 . S
H74 C47 0.930 . S
H75 C48 0.930 . S
H76 C67 0.930 . S
H77 C68 0.931 . S
H78 C69 0.930 . S
H79 C70 0.930 . S
Tb80 C90 2.825 . S
Tb80 O91 2.347 . S
Tb80 O94 2.366 . S
Tb80 O99 2.418 . S
Tb80 O100 2.384 . S
Tb80 O103 2.479 . S
Tb80 O104 2.471 . S
Eu81 O92 2.418 . S
Eu81 O93 2.384 . S
Eu81 O96 2.479 . S
Eu81 O97 2.471 . S
Eu81 O98 2.347 . S
Eu81 O101 2.366 . S
Eu81 C111 2.825 . S
C82 O98 1.259 . S
C82 O99 1.265 . S
C83 O100 1.255 . S
C83 O101 1.265 . S
C84 C86 1.380 . S
C84 C87 1.374 . S
C84 C90 1.507 . S
C85 C86 1.384 . S
C85 C89 1.387 . S
C85 H112 0.930 . S
C86 C84 1.380 . S
C86 C85 1.384 . S
C86 H113 0.931 . S
C87 C84 1.374 . S
C87 C88 1.390 . S
C87 H114 0.930 . S
C88 C87 1.390 . S
C88 C89 1.391 . S
C88 H115 0.930 . S
C89 C85 1.387 . S
C89 C88 1.391 . S
C90 Tb80 2.825 . S
C90 C84 1.507 . S
C90 O103 1.238 . S
C90 O104 1.247 . S
O91 Tb80 2.347 . S
O91 C95 1.259 . S
O92 Eu81 2.418 . S
O92 C95 1.265 . S
O93 Eu81 2.384 . S
O93 C102 1.255 . S
O94 Tb80 2.366 . S
O94 C102 1.265 . S
C95 O91 1.259 . S
C95 O92 1.265 . S
O96 Eu81 2.479 . S
O96 C111 1.238 . S
O97 Eu81 2.471 . S
O97 C111 1.247 . S
O98 Eu81 2.347 . S
O98 C82 1.259 . S
O99 Tb80 2.418 . S
O99 C82 1.265 . S
O100 Tb80 2.384 . S
O100 C83 1.255 . S
O101 Eu81 2.366 . S
O101 C83 1.265 . S
C102 O93 1.255 . S
C102 O94 1.265 . S
O103 Tb80 2.479 . S
O103 C90 1.238 . S
O104 Tb80 2.471 . S
O104 C90 1.247 . S
C105 C108 1.380 . S
C105 C109 1.374 . S
C105 C111 1.507 . S
C106 C107 1.387 . S
C106 C110 1.391 . S
C107 C106 1.387 . S
C107 C108 1.384 . S
C107 H116 0.930 . S
C108 C105 1.380 . S
C108 C107 1.384 . S
C108 H117 0.931 . S
C109 C105 1.374 . S
C109 C110 1.390 . S
C109 H118 0.930 . S
C110 C106 1.391 . S
C110 C109 1.390 . S
C110 H119 0.930 . S
C111 Eu81 2.825 . S
C111 O96 1.238 . S
C111 O97 1.247 . S
C111 C105 1.507 . S
H112 C85 0.930 . S
H113 C86 0.931 . S
H114 C87 0.930 . S
H115 C88 0.930 . S
H116 C107 0.930 . S
H117 C108 0.931 . S
H118 C109 0.930 . S
H119 C110 0.930 . S
Tb120 C130 2.831 1_565 S
Tb120 O131 2.347 1_565 S
Tb120 O134 2.366 1_565 S
Tb120 O139 2.418 . S
Tb120 O140 2.384 . S
Tb120 O143 2.479 . S
Tb120 O144 2.471 1_565 S
Eu121 O132 2.418 . S
Eu121 O133 2.384 . S
Eu121 O136 2.479 . S
Eu121 O137 2.471 1_545 S
Eu121 O138 2.347 1_545 S
Eu121 O141 2.366 1_545 S
Eu121 C151 2.829 1_545 S
C122 O138 1.259 . S
C122 O139 1.265 . S
C123 O140 1.255 . S
C123 O141 1.265 . S
C124 C126 1.380 1_545 S
C124 C127 1.374 . S
C124 C130 1.504 . S
C125 C126 1.384 1_545 S
C125 C129 1.387 . S
C125 H152 0.930 1_545 S
C126 C124 1.380 1_565 S
C126 C125 1.384 1_565 S
C126 H153 0.931 . S
C127 C124 1.374 . S
C127 C128 1.390 . S
C127 H154 0.930 . S
C128 C127 1.390 . S
C128 C129 1.391 . S
C128 H155 0.930 . S
C129 C125 1.387 . S
C129 C128 1.391 . S
C130 Tb120 2.831 1_545 S
C130 C124 1.504 . S
C130 O143 1.214 1_545 S
C130 O144 1.275 . S
O131 Tb120 2.347 1_545 S
O131 C135 1.259 . S
O132 Eu121 2.418 . S
O132 C135 1.265 . S
O133 Eu121 2.384 . S
O133 C142 1.255 . S
O134 Tb120 2.366 1_545 S
O134 C142 1.265 . S
C135 O131 1.259 . S
C135 O132 1.265 . S
O136 Eu121 2.479 . S
O136 C151 1.225 1_545 S
O137 Eu121 2.471 1_565 S
O137 C151 1.263 . S
O138 Eu121 2.347 1_565 S
O138 C122 1.259 . S
O139 Tb120 2.418 . S
O139 C122 1.265 . S
O140 Tb120 2.384 . S
O140 C123 1.255 . S
O141 Eu121 2.366 1_565 S
O141 C123 1.265 . S
C142 O133 1.255 . S
C142 O134 1.265 . S
O143 Tb120 2.479 . S
O143 C130 1.214 1_565 S
O144 Tb120 2.471 1_545 S
O144 C130 1.275 . S
C145 C148 1.380 1_565 S
C145 C149 1.374 . S
C145 C151 1.505 . S
C146 C147 1.387 . S
C146 C150 1.391 . S
C147 C146 1.387 . S
C147 C148 1.384 1_565 S
C147 H156 0.930 1_565 S
C148 C145 1.380 1_545 S
C148 C147 1.384 1_545 S
C148 H157 0.931 . S
C149 C145 1.374 . S
C149 C150 1.390 . S
C149 H158 0.930 . S
C150 C146 1.391 . S
C150 C149 1.390 . S
C150 H159 0.930 . S
C151 Eu121 2.829 1_565 S
C151 O136 1.225 1_565 S
C151 O137 1.263 . S
C151 C145 1.505 . S
H152 C125 0.930 1_565 S
H153 C126 0.931 . S
H154 C127 0.930 . S
H155 C128 0.930 . S
H156 C147 0.930 1_545 S
H157 C148 0.931 . S
H158 C149 0.930 . S
H159 C150 0.930 . S
Tb160 C170 2.825 . S
Tb160 O171 2.347 . S
Tb160 O174 2.366 . S
Tb160 O179 2.418 . S
Tb160 O180 2.384 . S
Tb160 O183 2.479 . S
Tb160 O184 2.471 . S
Eu161 O172 2.418 . S
Eu161 O173 2.384 . S
Eu161 O176 2.479 . S
Eu161 O177 2.471 . S
Eu161 O178 2.347 . S
Eu161 O181 2.366 . S
Eu161 C191 2.825 . S
C162 O178 1.259 . S
C162 O179 1.265 . S
C163 O180 1.255 . S
C163 O181 1.265 . S
C164 C166 1.380 . S
C164 C167 1.374 . S
C164 C170 1.507 . S
C165 C166 1.384 . S
C165 C169 1.387 . S
C165 H192 0.930 . S
C166 C164 1.380 . S
C166 C165 1.384 . S
C166 H193 0.931 . S
C167 C164 1.374 . S
C167 C168 1.390 . S
C167 H194 0.930 . S
C168 C167 1.390 . S
C168 C169 1.391 . S
C168 H195 0.930 . S
C169 C165 1.387 . S
C169 C168 1.391 . S
C170 Tb160 2.825 . S
C170 C164 1.507 . S
C170 O183 1.238 . S
C170 O184 1.247 . S
O171 Tb160 2.347 . S
O171 C175 1.259 . S
O172 Eu161 2.418 . S
O172 C175 1.265 . S
O173 Eu161 2.384 . S
O173 C182 1.255 . S
O174 Tb160 2.366 . S
O174 C182 1.265 . S
C175 O171 1.259 . S
C175 O172 1.265 . S
O176 Eu161 2.479 . S
O176 C191 1.238 . S
O177 Eu161 2.471 . S
O177 C191 1.247 . S
O178 Eu161 2.347 . S
O178 C162 1.259 . S
O179 Tb160 2.418 . S
O179 C162 1.265 . S
O180 Tb160 2.384 . S
O180 C163 1.255 . S
O181 Eu161 2.366 . S
O181 C163 1.265 . S
C182 O173 1.255 . S
C182 O174 1.265 . S
O183 Tb160 2.479 . S
O183 C170 1.238 . S
O184 Tb160 2.471 . S
O184 C170 1.247 . S
C185 C188 1.380 . S
C185 C189 1.374 . S
C185 C191 1.507 . S
C186 C187 1.387 . S
C186 C190 1.391 . S
C187 C186 1.387 . S
C187 C188 1.384 . S
C187 H196 0.930 . S
C188 C185 1.380 . S
C188 C187 1.384 . S
C188 H197 0.931 . S
C189 C185 1.374 . S
C189 C190 1.390 . S
C189 H198 0.930 . S
C190 C186 1.391 . S
C190 C189 1.390 . S
C190 H199 0.930 . S
C191 Eu161 2.825 . S
C191 O176 1.238 . S
C191 O177 1.247 . S
C191 C185 1.507 . S
H192 C165 0.930 . S
H193 C166 0.931 . S
H194 C167 0.930 . S
H195 C168 0.930 . S
H196 C187 0.930 . S
H197 C188 0.931 . S
H198 C189 0.930 . S
H199 C190 0.930 . S
Tb200 C210 2.825 . S
Tb200 O211 2.347 . S
Tb200 O214 2.366 . S
Tb200 O219 2.418 . S
Tb200 O220 2.384 . S
Tb200 O223 2.479 . S
Tb200 O224 2.471 . S
Eu201 O212 2.418 . S
Eu201 O213 2.384 . S
Eu201 O216 2.479 . S
Eu201 O217 2.471 . S
Eu201 O218 2.347 . S
Eu201 O221 2.366 . S
Eu201 C231 2.825 . S
C202 O218 1.259 . S
C202 O219 1.265 . S
C203 O220 1.255 . S
C203 O221 1.265 . S
C204 C206 1.380 . S
C204 C207 1.374 . S
C204 C210 1.507 . S
C205 C206 1.384 . S
C205 C209 1.387 . S
C205 H232 0.930 . S
C206 C204 1.380 . S
C206 C205 1.384 . S
C206 H233 0.931 . S
C207 C204 1.374 . S
C207 C208 1.390 . S
C207 H234 0.930 . S
C208 C207 1.390 . S
C208 C209 1.391 . S
C208 H235 0.930 . S
C209 C205 1.387 . S
C209 C208 1.391 . S
C210 Tb200 2.825 . S
C210 C204 1.507 . S
C210 O223 1.238 . S
C210 O224 1.247 . S
O211 Tb200 2.347 . S
O211 C215 1.259 . S
O212 Eu201 2.418 . S
O212 C215 1.265 . S
O213 Eu201 2.384 . S
O213 C222 1.255 . S
O214 Tb200 2.366 . S
O214 C222 1.265 . S
C215 O211 1.259 . S
C215 O212 1.265 . S
O216 Eu201 2.479 . S
O216 C231 1.238 . S
O217 Eu201 2.471 . S
O217 C231 1.247 . S
O218 Eu201 2.347 . S
O218 C202 1.259 . S
O219 Tb200 2.418 . S
O219 C202 1.265 . S
O220 Tb200 2.384 . S
O220 C203 1.255 . S
O221 Eu201 2.366 . S
O221 C203 1.265 . S
C222 O213 1.255 . S
C222 O214 1.265 . S
O223 Tb200 2.479 . S
O223 C210 1.238 . S
O224 Tb200 2.471 . S
O224 C210 1.247 . S
C225 C228 1.380 . S
C225 C229 1.374 . S
C225 C231 1.507 . S
C226 C227 1.387 . S
C226 C230 1.391 . S
C227 C226 1.387 . S
C227 C228 1.384 . S
C227 H236 0.930 . S
C228 C225 1.380 . S
C228 C227 1.384 . S
C228 H237 0.931 . S
C229 C225 1.374 . S
C229 C230 1.390 . S
C229 H238 0.930 . S
C230 C226 1.391 . S
C230 C229 1.390 . S
C230 H239 0.930 . S
C231 Eu201 2.825 . S
C231 O216 1.238 . S
C231 O217 1.247 . S
C231 C225 1.507 . S
H232 C205 0.930 . S
H233 C206 0.931 . S
H234 C207 0.930 . S
H235 C208 0.930 . S
H236 C227 0.930 . S
H237 C228 0.931 . S
H238 C229 0.930 . S
H239 C230 0.930 . S
Tb240 C250 2.825 . S
Tb240 O251 2.347 . S
Tb240 O254 2.366 . S
Tb240 O259 2.418 . S
Tb240 O260 2.384 . S
Tb240 O263 2.479 . S
Tb240 O264 2.471 . S
Eu241 O252 2.418 . S
Eu241 O253 2.384 . S
Eu241 O256 2.479 . S
Eu241 O257 2.471 . S
Eu241 O258 2.347 . S
Eu241 O261 2.366 . S
Eu241 C271 2.825 . S
C242 O258 1.259 . S
C242 O259 1.265 . S
C243 O260 1.255 . S
C243 O261 1.265 . S
C244 C246 1.380 . S
C244 C247 1.374 . S
C244 C250 1.507 . S
C245 C246 1.384 . S
C245 C249 1.387 . S
C245 H272 0.930 . S
C246 C244 1.380 . S
C246 C245 1.384 . S
C246 H273 0.931 . S
C247 C244 1.374 . S
C247 C248 1.390 . S
C247 H274 0.930 . S
C248 C247 1.390 . S
C248 C249 1.391 . S
C248 H275 0.930 . S
C249 C245 1.387 . S
C249 C248 1.391 . S
C250 Tb240 2.825 . S
C250 C244 1.507 . S
C250 O263 1.238 . S
C250 O264 1.247 . S
O251 Tb240 2.347 . S
O251 C255 1.259 . S
O252 Eu241 2.418 . S
O252 C255 1.265 . S
O253 Eu241 2.384 . S
O253 C262 1.255 . S
O254 Tb240 2.366 . S
O254 C262 1.265 . S
C255 O251 1.259 . S
C255 O252 1.265 . S
O256 Eu241 2.479 . S
O256 C271 1.238 . S
O257 Eu241 2.471 . S
O257 C271 1.247 . S
O258 Eu241 2.347 . S
O258 C242 1.259 . S
O259 Tb240 2.418 . S
O259 C242 1.265 . S
O260 Tb240 2.384 . S
O260 C243 1.255 . S
O261 Eu241 2.366 . S
O261 C243 1.265 . S
C262 O253 1.255 . S
C262 O254 1.265 . S
O263 Tb240 2.479 . S
O263 C250 1.238 . S
O264 Tb240 2.471 . S
O264 C250 1.247 . S
C265 C268 1.380 . S
C265 C269 1.374 . S
C265 C271 1.507 . S
C266 C267 1.387 . S
C266 C270 1.391 . S
C267 C266 1.387 . S
C267 C268 1.384 . S
C267 H276 0.930 . S
C268 C265 1.380 . S
C268 C267 1.384 . S
C268 H277 0.931 . S
C269 C265 1.374 . S
C269 C270 1.390 . S
C269 H278 0.930 . S
C270 C266 1.391 . S
C270 C269 1.390 . S
C270 H279 0.930 . S
C271 Eu241 2.825 . S
C271 O256 1.238 . S
C271 O257 1.247 . S
C271 C265 1.507 . S
H272 C245 0.930 . S
H273 C246 0.931 . S
H274 C247 0.930 . S
H275 C248 0.930 . S
H276 C267 0.930 . S
H277 C268 0.931 . S
H278 C269 0.930 . S
H279 C270 0.930 . S
Tb280 C290 2.825 . S
Tb280 O291 2.347 . S
Tb280 O294 2.366 1_655 S
Tb280 O299 2.418 1_655 S
Tb280 O300 2.384 . S
Tb280 O303 2.479 . S
Tb280 O304 2.471 . S
Eu281 O292 2.418 1_455 S
Eu281 O293 2.384 . S
Eu281 O296 2.479 . S
Eu281 O297 2.471 . S
Eu281 O298 2.347 . S
Eu281 O301 2.366 1_455 S
Eu281 C311 2.825 . S
C282 O298 1.259 . S
C282 O299 1.265 . S
C283 O300 1.255 . S
C283 O301 1.265 . S
C284 C286 1.380 . S
C284 C287 1.374 . S
C284 C290 1.507 . S
C285 C286 1.384 . S
C285 C289 1.387 . S
C285 H312 0.930 . S
C286 C284 1.380 . S
C286 C285 1.384 . S
C286 H313 0.931 . S
C287 C284 1.374 . S
C287 C288 1.390 . S
C287 H314 0.930 . S
C288 C287 1.390 . S
C288 C289 1.391 . S
C288 H315 0.930 . S
C289 C285 1.387 . S
C289 C288 1.391 . S
C290 Tb280 2.825 . S
C290 C284 1.507 . S
C290 O303 1.238 . S
C290 O304 1.247 . S
O291 Tb280 2.347 . S
O291 C295 1.259 . S
O292 Eu281 2.418 1_655 S
O292 C295 1.265 . S
O293 Eu281 2.384 . S
O293 C302 1.255 . S
O294 Tb280 2.366 1_455 S
O294 C302 1.265 . S
C295 O291 1.259 . S
C295 O292 1.265 . S
O296 Eu281 2.479 . S
O296 C311 1.238 . S
O297 Eu281 2.471 . S
O297 C311 1.247 . S
O298 Eu281 2.347 . S
O298 C282 1.259 . S
O299 Tb280 2.418 1_455 S
O299 C282 1.265 . S
O300 Tb280 2.384 . S
O300 C283 1.255 . S
O301 Eu281 2.366 1_655 S
O301 C283 1.265 . S
C302 O293 1.255 . S
C302 O294 1.265 . S
O303 Tb280 2.479 . S
O303 C290 1.238 . S
O304 Tb280 2.471 . S
O304 C290 1.247 . S
C305 C308 1.380 . S
C305 C309 1.374 . S
C305 C311 1.507 . S
C306 C307 1.387 . S
C306 C310 1.391 . S
C307 C306 1.387 . S
C307 C308 1.384 . S
C307 H316 0.930 . S
C308 C305 1.380 . S
C308 C307 1.384 . S
C308 H317 0.931 . S
C309 C305 1.374 . S
C309 C310 1.390 . S
C309 H318 0.930 . S
C310 C306 1.391 . S
C310 C309 1.390 . S
C310 H319 0.930 . S
C311 Eu281 2.825 . S
C311 O296 1.238 . S
C311 O297 1.247 . S
C311 C305 1.507 . S
H312 C285 0.930 . S
H313 C286 0.931 . S
H314 C287 0.930 . S
H315 C288 0.930 . S
H316 C307 0.930 . S
H317 C308 0.931 . S
H318 C309 0.930 . S
H319 C310 0.930 . S
Tb320 C330 2.825 . S
Tb320 O331 2.347 1_554 S
Tb320 O334 2.366 1_554 S
Tb320 O339 2.418 . S
Tb320 O340 2.384 . S
Tb320 O343 2.479 . S
Tb320 O344 2.471 . S
Eu321 O332 2.418 . S
Eu321 O333 2.384 . S
Eu321 O336 2.479 . S
Eu321 O337 2.471 . S
Eu321 O338 2.347 1_556 S
Eu321 O341 2.366 1_556 S
Eu321 C351 2.825 . S
C322 O338 1.259 . S
C322 O339 1.265 . S
C323 O340 1.255 . S
C323 O341 1.265 . S
C324 C326 1.380 . S
C324 C327 1.385 . S
C324 C330 1.507 . S
C325 C326 1.384 . S
C325 C329 1.387 . S
C325 H352 0.930 . S
C326 C324 1.380 . S
C326 C325 1.384 . S
C326 H353 0.931 . S
C327 C324 1.385 . S
C327 C328 1.395 1_554 S
C327 H354 0.915 1_554 S
C328 C327 1.395 1_556 S
C328 C329 1.391 1_556 S
C328 H355 0.930 . S
C329 C325 1.387 . S
C329 C328 1.391 1_554 S
C330 Tb320 2.825 . S
C330 C324 1.507 . S
C330 O343 1.238 . S
C330 O344 1.247 . S
O331 Tb320 2.347 1_556 S
O331 C335 1.259 . S
O332 Eu321 2.418 . S
O332 C335 1.265 . S
O333 Eu321 2.384 . S
O333 C342 1.255 . S
O334 Tb320 2.366 1_556 S
O334 C342 1.265 . S
C335 O331 1.259 . S
C335 O332 1.265 . S
O336 Eu321 2.479 . S
O336 C351 1.238 . S
O337 Eu321 2.471 . S
O337 C351 1.247 . S
O338 Eu321 2.347 1_554 S
O338 C322 1.259 . S
O339 Tb320 2.418 . S
O339 C322 1.265 . S
O340 Tb320 2.384 . S
O340 C323 1.255 . S
O341 Eu321 2.366 1_554 S
O341 C323 1.265 . S
C342 O333 1.255 . S
C342 O334 1.265 . S
O343 Tb320 2.479 . S
O343 C330 1.238 . S
O344 Tb320 2.471 . S
O344 C330 1.247 . S
C345 C348 1.380 . S
C345 C349 1.379 . S
C345 C351 1.507 . S
C346 C347 1.387 . S
C346 C350 1.391 1_556 S
C347 C346 1.387 . S
C347 C348 1.384 . S
C347 H356 0.930 . S
C348 C345 1.380 . S
C348 C347 1.384 . S
C348 H357 0.931 . S
C349 C345 1.379 . S
C349 C350 1.392 1_556 S
C349 H358 0.923 1_556 S
C350 C346 1.391 1_554 S
C350 C349 1.392 1_554 S
C350 H359 0.930 . S
C351 Eu321 2.825 . S
C351 O336 1.238 . S
C351 O337 1.247 . S
C351 C345 1.507 . S
H352 C325 0.930 . S
H353 C326 0.931 . S
H354 C327 0.915 1_556 S
H355 C328 0.930 . S
H356 C347 0.930 . S
H357 C348 0.931 . S
H358 C349 0.923 1_554 S
H359 C350 0.930 . S
Tb360 C370 2.831 1_565 S
Tb360 O371 2.347 1_565 S
Tb360 O374 2.366 1_565 S
Tb360 O379 2.418 . S
Tb360 O380 2.384 . S
Tb360 O383 2.479 . S
Tb360 O384 2.471 1_565 S
Eu361 O372 2.418 . S
Eu361 O373 2.384 . S
Eu361 O376 2.479 . S
Eu361 O377 2.471 1_545 S
Eu361 O378 2.347 1_545 S
Eu361 O381 2.366 1_545 S
Eu361 C391 2.829 1_545 S
C362 O378 1.259 . S
C362 O379 1.265 . S
C363 O380 1.255 . S
C363 O381 1.265 . S
C364 C366 1.380 1_545 S
C364 C367 1.374 . S
C364 C370 1.504 . S
C365 C366 1.384 1_545 S
C365 C369 1.387 . S
C365 H392 0.930 1_545 S
C366 C364 1.380 1_565 S
C366 C365 1.384 1_565 S
C366 H393 0.931 . S
C367 C364 1.374 . S
C367 C368 1.390 . S
C367 H394 0.930 . S
C368 C367 1.390 . S
C368 C369 1.391 . S
C368 H395 0.930 . S
C369 C365 1.387 . S
C369 C368 1.391 . S
C370 Tb360 2.831 1_545 S
C370 C364 1.504 . S
C370 O383 1.215 1_545 S
C370 O384 1.275 . S
O371 Tb360 2.347 1_545 S
O371 C375 1.259 . S
O372 Eu361 2.418 . S
O372 C375 1.265 . S
O373 Eu361 2.384 . S
O373 C382 1.255 . S
O374 Tb360 2.366 1_545 S
O374 C382 1.265 . S
C375 O371 1.259 . S
C375 O372 1.265 . S
O376 Eu361 2.479 . S
O376 C391 1.225 1_545 S
O377 Eu361 2.471 1_565 S
O377 C391 1.262 . S
O378 Eu361 2.347 1_565 S
O378 C362 1.259 . S
O379 Tb360 2.418 . S
O379 C362 1.265 . S
O380 Tb360 2.384 . S
O380 C363 1.255 . S
O381 Eu361 2.366 1_565 S
O381 C363 1.265 . S
C382 O373 1.255 . S
C382 O374 1.265 . S
O383 Tb360 2.479 . S
O383 C370 1.215 1_565 S
O384 Tb360 2.471 1_545 S
O384 C370 1.275 . S
C385 C388 1.380 1_565 S
C385 C389 1.374 . S
C385 C391 1.505 . S
C386 C387 1.387 . S
C386 C390 1.391 . S
C387 C386 1.387 . S
C387 C388 1.384 1_565 S
C387 H396 0.930 1_565 S
C388 C385 1.380 1_545 S
C388 C387 1.384 1_545 S
C388 H397 0.931 . S
C389 C385 1.374 . S
C389 C390 1.390 . S
C389 H398 0.930 . S
C390 C386 1.391 . S
C390 C389 1.390 . S
C390 H399 0.930 . S
C391 Eu361 2.829 1_565 S
C391 O376 1.225 1_565 S
C391 O377 1.262 . S
C391 C385 1.505 . S
H392 C365 0.930 1_565 S
H393 C366 0.931 . S
H394 C367 0.930 . S
H395 C368 0.930 . S
H396 C387 0.930 1_545 S
H397 C388 0.931 . S
H398 C389 0.930 . S
H399 C390 0.930 . S
Tb400 C410 2.825 . S
Tb400 O411 2.347 . S
Tb400 O414 2.366 . S
Tb400 O419 2.418 . S
Tb400 O420 2.384 . S
Tb400 O423 2.479 . S
Tb400 O424 2.471 . S
Eu401 O412 2.418 . S
Eu401 O413 2.384 . S
Eu401 O416 2.479 . S
Eu401 O417 2.471 . S
Eu401 O418 2.347 . S
Eu401 O421 2.366 . S
Eu401 C431 2.825 . S
C402 O418 1.259 . S
C402 O419 1.265 . S
C403 O420 1.255 . S
C403 O421 1.265 . S
C404 C406 1.380 . S
C404 C407 1.374 . S
C404 C410 1.507 . S
C405 C406 1.384 . S
C405 C409 1.387 . S
C405 H432 0.930 . S
C406 C404 1.380 . S
C406 C405 1.384 . S
C406 H433 0.931 . S
C407 C404 1.374 . S
C407 C408 1.390 . S
C407 H434 0.930 . S
C408 C407 1.390 . S
C408 C409 1.391 . S
C408 H435 0.930 . S
C409 C405 1.387 . S
C409 C408 1.391 . S
C410 Tb400 2.825 . S
C410 C404 1.507 . S
C410 O423 1.238 . S
C410 O424 1.247 . S
O411 Tb400 2.347 . S
O411 C415 1.259 . S
O412 Eu401 2.418 . S
O412 C415 1.265 . S
O413 Eu401 2.384 . S
O413 C422 1.255 . S
O414 Tb400 2.366 . S
O414 C422 1.265 . S
C415 O411 1.259 . S
C415 O412 1.265 . S
O416 Eu401 2.479 . S
O416 C431 1.238 . S
O417 Eu401 2.471 . S
O417 C431 1.247 . S
O418 Eu401 2.347 . S
O418 C402 1.259 . S
O419 Tb400 2.418 . S
O419 C402 1.265 . S
O420 Tb400 2.384 . S
O420 C403 1.255 . S
O421 Eu401 2.366 . S
O421 C403 1.265 . S
C422 O413 1.255 . S
C422 O414 1.265 . S
O423 Tb400 2.479 . S
O423 C410 1.238 . S
O424 Tb400 2.471 . S
O424 C410 1.247 . S
C425 C428 1.380 . S
C425 C429 1.374 . S
C425 C431 1.507 . S
C426 C427 1.387 . S
C426 C430 1.391 . S
C427 C426 1.387 . S
C427 C428 1.384 . S
C427 H436 0.930 . S
C428 C425 1.380 . S
C428 C427 1.384 . S
C428 H437 0.931 . S
C429 C425 1.374 . S
C429 C430 1.390 . S
C429 H438 0.930 . S
C430 C426 1.391 . S
C430 C429 1.390 . S
C430 H439 0.930 . S
C431 Eu401 2.825 . S
C431 O416 1.238 . S
C431 O417 1.247 . S
C431 C425 1.507 . S
H432 C405 0.930 . S
H433 C406 0.931 . S
H434 C407 0.930 . S
H435 C408 0.930 . S
H436 C427 0.930 . S
H437 C428 0.931 . S
H438 C429 0.930 . S
H439 C430 0.930 . S
Tb440 C450 2.825 . S
Tb440 O451 2.347 1_455 S
Tb440 O454 2.366 1_455 S
Tb440 O459 2.418 . S
Tb440 O460 2.384 . S
Tb440 O463 2.479 . S
Tb440 O464 2.471 1_455 S
Eu441 O452 2.418 . S
Eu441 O453 2.384 . S
Eu441 O456 2.479 . S
Eu441 O457 2.471 1_655 S
Eu441 O458 2.347 1_655 S
Eu441 O461 2.366 1_655 S
Eu441 C471 2.825 . S
C442 O458 1.259 . S
C442 O459 1.265 . S
C443 O460 1.255 . S
C443 O461 1.265 . S
C444 C446 1.380 1_655 S
C444 C447 1.374 . S
C444 C450 1.507 1_655 S
C445 C446 1.384 . S
C445 C449 1.387 1_455 S
C445 H472 0.930 . S
C446 C444 1.380 1_455 S
C446 C445 1.384 . S
C446 H473 0.931 . S
C447 C444 1.374 . S
C447 C448 1.390 . S
C447 H474 0.930 . S
C448 C447 1.390 . S
C448 C449 1.391 . S
C448 H475 0.930 . S
C449 C445 1.387 1_655 S
C449 C448 1.391 . S
C450 Tb440 2.825 . S
C450 C444 1.507 1_455 S
C450 O463 1.238 . S
C450 O464 1.247 1_455 S
O451 Tb440 2.347 1_655 S
O451 C455 1.259 . S
O452 Eu441 2.418 . S
O452 C455 1.265 . S
O453 Eu441 2.384 . S
O453 C462 1.255 . S
O454 Tb440 2.366 1_655 S
O454 C462 1.265 . S
C455 O451 1.259 . S
C455 O452 1.265 . S
O456 Eu441 2.479 . S
O456 C471 1.238 . S
O457 Eu441 2.471 1_455 S
O457 C471 1.247 1_455 S
O458 Eu441 2.347 1_455 S
O458 C442 1.259 . S
O459 Tb440 2.418 . S
O459 C442 1.265 . S
O460 Tb440 2.384 . S
O460 C443 1.255 . S
O461 Eu441 2.366 1_455 S
O461 C443 1.265 . S
C462 O453 1.255 . S
C462 O454 1.265 . S
O463 Tb440 2.479 . S
O463 C450 1.238 . S
O464 Tb440 2.471 1_655 S
O464 C450 1.247 1_655 S
C465 C468 1.380 1_455 S
C465 C469 1.374 . S
C465 C471 1.507 1_455 S
C466 C467 1.387 1_455 S
C466 C470 1.391 . S
C467 C466 1.387 1_655 S
C467 C468 1.384 . S
C467 H476 0.930 . S
C468 C465 1.380 1_655 S
C468 C467 1.384 . S
C468 H477 0.931 . S
C469 C465 1.374 . S
C469 C470 1.390 . S
C469 H478 0.930 . S
C470 C466 1.391 . S
C470 C469 1.390 . S
C470 H479 0.930 . S
C471 Eu441 2.825 . S
C471 O456 1.238 . S
C471 O457 1.247 1_655 S
C471 C465 1.507 1_655 S
H472 C445 0.930 . S
H473 C446 0.931 . S
H474 C447 0.930 . S
H475 C448 0.930 . S
H476 C467 0.930 . S
H477 C468 0.931 . S
H478 C469 0.930 . S
H479 C470 0.930 . S
Tb480 C490 2.825 . S
Tb480 O491 2.347 . S
Tb480 O494 2.366 . S
Tb480 O499 2.418 . S
Tb480 O500 2.384 . S
Tb480 O503 2.479 . S
Tb480 O504 2.471 . S
Eu481 O492 2.418 . S
Eu481 O493 2.384 . S
Eu481 O496 2.479 . S
Eu481 O497 2.471 . S
Eu481 O498 2.347 . S
Eu481 O501 2.366 . S
Eu481 C511 2.825 . S
C482 O498 1.259 . S
C482 O499 1.265 . S
C483 O500 1.255 . S
C483 O501 1.265 . S
C484 C486 1.380 . S
C484 C487 1.374 . S
C484 C490 1.507 . S
C485 C486 1.384 . S
C485 C489 1.387 . S
C485 H512 0.930 . S
C486 C484 1.380 . S
C486 C485 1.384 . S
C486 H513 0.931 . S
C487 C484 1.374 . S
C487 C488 1.390 . S
C487 H514 0.930 . S
C488 C487 1.390 . S
C488 C489 1.391 . S
C488 H515 0.930 . S
C489 C485 1.387 . S
C489 C488 1.391 . S
C490 Tb480 2.825 . S
C490 C484 1.507 . S
C490 O503 1.238 . S
C490 O504 1.247 . S
O491 Tb480 2.347 . S
O491 C495 1.259 . S
O492 Eu481 2.418 . S
O492 C495 1.265 . S
O493 Eu481 2.384 . S
O493 C502 1.255 . S
O494 Tb480 2.366 . S
O494 C502 1.265 . S
C495 O491 1.259 . S
C495 O492 1.265 . S
O496 Eu481 2.479 . S
O496 C511 1.238 . S
O497 Eu481 2.471 . S
O497 C511 1.247 . S
O498 Eu481 2.347 . S
O498 C482 1.259 . S
O499 Tb480 2.418 . S
O499 C482 1.265 . S
O500 Tb480 2.384 . S
O500 C483 1.255 . S
O501 Eu481 2.366 . S
O501 C483 1.265 . S
C502 O493 1.255 . S
C502 O494 1.265 . S
O503 Tb480 2.479 . S
O503 C490 1.238 . S
O504 Tb480 2.471 . S
O504 C490 1.247 . S
C505 C508 1.380 . S
C505 C509 1.374 . S
C505 C511 1.507 . S
C506 C507 1.387 . S
C506 C510 1.391 . S
C507 C506 1.387 . S
C507 C508 1.384 . S
C507 H516 0.930 . S
C508 C505 1.380 . S
C508 C507 1.384 . S
C508 H517 0.931 . S
C509 C505 1.374 . S
C509 C510 1.390 . S
C509 H518 0.930 . S
C510 C506 1.391 . S
C510 C509 1.390 . S
C510 H519 0.930 . S
C511 Eu481 2.825 . S
C511 O496 1.238 . S
C511 O497 1.247 . S
C511 C505 1.507 . S
H512 C485 0.930 . S
H513 C486 0.931 . S
H514 C487 0.930 . S
H515 C488 0.930 . S
H516 C507 0.930 . S
H517 C508 0.931 . S
H518 C509 0.930 . S
H519 C510 0.930 . S
Tb520 C530 2.825 . S
Tb520 O531 2.347 1_554 S
Tb520 O534 2.366 1_554 S
Tb520 O539 2.418 . S
Tb520 O540 2.384 . S
Tb520 O543 2.479 . S
Tb520 O544 2.471 . S
Eu521 O532 2.418 . S
Eu521 O533 2.384 . S
Eu521 O536 2.479 . S
Eu521 O537 2.471 . S
Eu521 O538 2.347 1_556 S
Eu521 O541 2.366 1_556 S
Eu521 C551 2.825 . S
C522 O538 1.259 . S
C522 O539 1.265 . S
C523 O540 1.255 . S
C523 O541 1.265 . S
C524 C526 1.380 . S
C524 C527 1.384 . S
C524 C530 1.507 . S
C525 C526 1.384 . S
C525 C529 1.387 . S
C525 H552 0.930 . S
C526 C524 1.380 . S
C526 C525 1.384 . S
C526 H553 0.931 . S
C527 C524 1.384 . S
C527 C528 1.394 1_554 S
C527 H554 0.916 1_554 S
C528 C527 1.394 1_556 S
C528 C529 1.391 1_556 S
C528 H555 0.930 . S
C529 C525 1.387 . S
C529 C528 1.391 1_554 S
C530 Tb520 2.825 . S
C530 C524 1.507 . S
C530 O543 1.238 . S
C530 O544 1.247 . S
O531 Tb520 2.347 1_556 S
O531 C535 1.259 . S
O532 Eu521 2.418 . S
O532 C535 1.265 . S
O533 Eu521 2.384 . S
O533 C542 1.255 . S
O534 Tb520 2.366 1_556 S
O534 C542 1.265 . S
C535 O531 1.259 . S
C535 O532 1.265 . S
O536 Eu521 2.479 . S
O536 C551 1.238 . S
O537 Eu521 2.471 . S
O537 C551 1.247 . S
O538 Eu521 2.347 1_554 S
O538 C522 1.259 . S
O539 Tb520 2.418 . S
O539 C522 1.265 . S
O540 Tb520 2.384 . S
O540 C523 1.255 . S
O541 Eu521 2.366 1_554 S
O541 C523 1.265 . S
C542 O533 1.255 . S
C542 O534 1.265 . S
O543 Tb520 2.479 . S
O543 C530 1.238 . S
O544 Tb520 2.471 . S
O544 C530 1.247 . S
C545 C548 1.380 . S
C545 C549 1.379 . S
C545 C551 1.507 . S
C546 C547 1.387 . S
C546 C550 1.391 1_556 S
C547 C546 1.387 . S
C547 C548 1.384 . S
C547 H556 0.930 . S
C548 C545 1.380 . S
C548 C547 1.384 . S
C548 H557 0.931 . S
C549 C545 1.379 . S
C549 C550 1.392 1_556 S
C549 H558 0.924 1_556 S
C550 C546 1.391 1_554 S
C550 C549 1.392 1_554 S
C550 H559 0.930 . S
C551 Eu521 2.825 . S
C551 O536 1.238 . S
C551 O537 1.247 . S
C551 C545 1.507 . S
H552 C525 0.930 . S
H553 C526 0.931 . S
H554 C527 0.916 1_556 S
H555 C528 0.930 . S
H556 C547 0.930 . S
H557 C548 0.931 . S
H558 C549 0.924 1_554 S
H559 C550 0.930 . S
Tb560 C570 2.825 . S
Tb560 O571 2.347 1_565 S
Tb560 O574 2.366 . S
Tb560 O579 2.418 . S
Tb560 O580 2.384 1_565 S
Tb560 O583 2.479 . S
Tb560 O584 2.471 . S
Eu561 O572 2.418 . S
Eu561 O573 2.384 1_545 S
Eu561 O576 2.479 . S
Eu561 O577 2.471 . S
Eu561 O578 2.347 1_545 S
Eu561 O581 2.366 . S
Eu561 C591 2.825 . S
C562 O578 1.259 . S
C562 O579 1.265 . S
C563 O580 1.255 . S
C563 O581 1.265 . S
C564 C566 1.380 . S
C564 C567 1.374 . S
C564 C570 1.507 . S
C565 C566 1.384 . S
C565 C569 1.387 . S
C565 H592 0.930 . S
C566 C564 1.380 . S
C566 C565 1.384 . S
C566 H593 0.931 . S
C567 C564 1.374 . S
C567 C568 1.390 . S
C567 H594 0.930 . S
C568 C567 1.390 . S
C568 C569 1.391 . S
C568 H595 0.930 . S
C569 C565 1.387 . S
C569 C568 1.391 . S
C570 Tb560 2.825 . S
C570 C564 1.507 . S
C570 O583 1.238 . S
C570 O584 1.247 . S
O571 Tb560 2.347 1_545 S
O571 C575 1.259 . S
O572 Eu561 2.418 . S
O572 C575 1.265 . S
O573 Eu561 2.384 1_565 S
O573 C582 1.255 . S
O574 Tb560 2.366 . S
O574 C582 1.265 . S
C575 O571 1.259 . S
C575 O572 1.265 . S
O576 Eu561 2.479 . S
O576 C591 1.238 . S
O577 Eu561 2.471 . S
O577 C591 1.247 . S
O578 Eu561 2.347 1_565 S
O578 C562 1.259 . S
O579 Tb560 2.418 . S
O579 C562 1.265 . S
O580 Tb560 2.384 1_545 S
O580 C563 1.255 . S
O581 Eu561 2.366 . S
O581 C563 1.265 . S
C582 O573 1.255 . S
C582 O574 1.265 . S
O583 Tb560 2.479 . S
O583 C570 1.238 . S
O584 Tb560 2.471 . S
O584 C570 1.247 . S
C585 C588 1.380 . S
C585 C589 1.374 . S
C585 C591 1.507 . S
C586 C587 1.387 . S
C586 C590 1.391 . S
C587 C586 1.387 . S
C587 C588 1.384 . S
C587 H596 0.930 . S
C588 C585 1.380 . S
C588 C587 1.384 . S
C588 H597 0.931 . S
C589 C585 1.374 . S
C589 C590 1.390 . S
C589 H598 0.930 . S
C590 C586 1.391 . S
C590 C589 1.390 . S
C590 H599 0.930 . S
C591 Eu561 2.825 . S
C591 O576 1.238 . S
C591 O577 1.247 . S
C591 C585 1.507 . S
H592 C565 0.930 . S
H593 C566 0.931 . S
H594 C567 0.930 . S
H595 C568 0.930 . S
H596 C587 0.930 . S
H597 C588 0.931 . S
H598 C589 0.930 . S
H599 C590 0.930 . S
Tb600 C610 2.825 . S
Tb600 O611 2.347 1_554 S
Tb600 O614 2.369 . S
Tb600 O619 2.418 . S
Tb600 O620 2.384 . S
Tb600 O623 2.479 . S
Tb600 O624 2.471 . S
Eu601 O612 2.418 . S
Eu601 O613 2.384 . S
Eu601 O616 2.479 . S
Eu601 O617 2.471 . S
Eu601 O618 2.347 1_556 S
Eu601 O621 2.366 1_556 S
Eu601 C631 2.825 . S
C602 O618 1.259 . S
C602 O619 1.265 . S
C603 O620 1.255 . S
C603 O621 1.265 . S
C604 C606 1.380 . S
C604 C607 1.374 . S
C604 C610 1.507 . S
C605 C606 1.384 . S
C605 C609 1.387 . S
C605 H632 0.930 . S
C606 C604 1.380 . S
C606 C605 1.384 . S
C606 H633 0.931 . S
C607 C604 1.374 . S
C607 C608 1.390 . S
C607 H634 0.930 . S
C608 C607 1.390 . S
C608 C609 1.391 . S
C608 H635 0.930 . S
C609 C605 1.387 . S
C609 C608 1.391 . S
C610 Tb600 2.825 . S
C610 C604 1.507 . S
C610 O623 1.238 . S
C610 O624 1.247 . S
O611 Tb600 2.347 1_556 S
O611 C615 1.259 . S
O612 Eu601 2.418 . S
O612 C615 1.265 . S
O613 Eu601 2.384 . S
O613 C622 1.255 . S
O614 Tb600 2.369 . S
O614 C622 1.261 1_554 S
C615 O611 1.259 . S
C615 O612 1.265 . S
O616 Eu601 2.479 . S
O616 C631 1.238 . S
O617 Eu601 2.471 . S
O617 C631 1.247 . S
O618 Eu601 2.347 1_554 S
O618 C602 1.259 . S
O619 Tb600 2.418 . S
O619 C602 1.265 . S
O620 Tb600 2.384 . S
O620 C603 1.255 . S
O621 Eu601 2.366 1_554 S
O621 C603 1.265 . S
C622 O613 1.255 . S
C622 O614 1.261 1_556 S
O623 Tb600 2.479 . S
O623 C610 1.238 . S
O624 Tb600 2.471 . S
O624 C610 1.247 . S
C625 C628 1.380 . S
C625 C629 1.374 . S
C625 C631 1.507 . S
C626 C627 1.387 . S
C626 C630 1.391 . S
C627 C626 1.387 . S
C627 C628 1.384 . S
C627 H636 0.930 . S
C628 C625 1.380 . S
C628 C627 1.384 . S
C628 H637 0.931 . S
C629 C625 1.374 . S
C629 C630 1.390 . S
C629 H638 0.930 . S
C630 C626 1.391 . S
C630 C629 1.390 . S
C630 H639 0.930 . S
C631 Eu601 2.825 . S
C631 O616 1.238 . S
C631 O617 1.247 . S
C631 C625 1.507 . S
H632 C605 0.930 . S
H633 C606 0.931 . S
H634 C607 0.930 . S
H635 C608 0.930 . S
H636 C627 0.930 . S
H637 C628 0.931 . S
H638 C629 0.930 . S
H639 C630 0.930 . S
C640 C641 1.363 1_455 S
C640 C646 1.379 . S
C640 N648 1.356 1_554 S
C641 C640 1.363 1_655 S
C641 C647 1.363 . S
C642 C643 1.363 1_655 S
C642 C647 1.379 . S
C642 N649 1.356 . S
C643 C642 1.363 1_455 S
C643 C646 1.363 . S
N644 C646 1.356 1_556 S
N644 H656 0.984 . S
N644 H657 0.985 . S
N645 C647 1.356 . S
N645 H650 0.984 . S
N645 H651 0.985 . S
C646 C640 1.379 . S
C646 C643 1.363 . S
C646 N644 1.356 1_554 S
C647 C641 1.363 . S
C647 C642 1.379 . S
C647 N645 1.356 . S
N648 C640 1.356 1_556 S
N648 H654 0.984 . S
N648 H655 0.984 1_455 S
N649 C642 1.356 . S
N649 H652 0.984 . S
N649 H653 0.985 . S
H650 N645 0.984 . S
H651 N645 0.985 . S
H652 N649 0.984 . S
H653 N649 0.985 . S
H654 N648 0.984 . S
H655 N648 0.984 1_655 S
H656 N644 0.984 . S
H657 N644 0.985 . S
C658 C659 1.363 . S
C658 C664 1.379 . S
C658 N666 1.356 . S
C659 C658 1.363 . S
C659 C665 1.363 . S
C660 C661 1.363 . S
C660 C665 1.379 . S
C660 N667 1.356 . S
C661 C660 1.363 . S
C661 C664 1.363 . S
N662 C664 1.356 . S
N662 H674 0.984 . S
N662 H675 0.985 . S
N663 C665 1.356 . S
N663 H668 0.984 . S
N663 H669 0.985 . S
C664 C658 1.379 . S
C664 C661 1.363 . S
C664 N662 1.356 . S
C665 C659 1.363 . S
C665 C660 1.379 . S
C665 N663 1.356 . S
N666 C658 1.356 . S
N666 H672 0.984 . S
N666 H673 0.984 . S
N667 C660 1.356 . S
N667 H670 0.984 . S
N667 H671 0.985 . S
H668 N663 0.984 . S
H669 N663 0.985 . S
H670 N667 0.984 . S
H671 N667 0.985 . S
H672 N666 0.984 . S
H673 N666 0.984 . S
H674 N662 0.984 . S
H675 N662 0.985 . S
C676 C677 1.363 . S
C676 C682 1.379 . S
C676 N684 1.356 . S
C677 C676 1.363 . S
C677 C683 1.363 . S
C678 C679 1.363 . S
C678 C683 1.379 . S
C678 N685 1.356 . S
C679 C678 1.363 . S
C679 C682 1.363 . S
N680 C682 1.356 . S
N680 H692 0.984 . S
N680 H693 0.985 . S
N681 C683 1.356 . S
N681 H686 0.984 . S
N681 H687 0.985 . S
C682 C676 1.379 . S
C682 C679 1.363 . S
C682 N680 1.356 . S
C683 C677 1.363 . S
C683 C678 1.379 . S
C683 N681 1.356 . S
N684 C676 1.356 . S
N684 H690 0.984 . S
N684 H691 0.984 . S
N685 C678 1.356 . S
N685 H688 0.984 . S
N685 H689 0.985 . S
H686 N681 0.984 . S
H687 N681 0.985 . S
H688 N685 0.984 . S
H689 N685 0.985 . S
H690 N684 0.984 . S
H691 N684 0.984 . S
H692 N680 0.984 . S
H693 N680 0.985 . S
C694 C695 1.363 . S
C694 C700 1.379 . S
C694 N702 1.356 . S
C695 C694 1.363 . S
C695 C701 1.363 1_545 S
C696 C697 1.363 . S
C696 C701 1.379 . S
C696 N703 1.356 1_556 S
C697 C696 1.363 . S
C697 C700 1.363 1_565 S
N698 C700 1.356 1_565 S
N698 H710 0.984 1_565 S
N698 H711 0.985 . S
N699 C701 1.375 1_545 S
N699 H704 0.988 . S
N699 H705 0.964 1_546 S
C700 C694 1.379 . S
C700 C697 1.363 1_545 S
C700 N698 1.356 1_545 S
C701 C695 1.363 1_565 S
C701 C696 1.379 . S
C701 N699 1.375 1_565 S
N702 C694 1.356 . S
N702 H708 0.984 . S
N702 H709 0.984 . S
N703 C696 1.356 1_554 S
N703 H706 0.984 . S
N703 H707 0.985 . S
H704 N699 0.988 . S
H705 N699 0.964 1_564 S
H706 N703 0.984 . S
H707 N703 0.985 . S
H708 N702 0.984 . S
H709 N702 0.984 . S
H710 N698 0.984 1_545 S
H711 N698 0.985 . S
C712 C713 1.363 . S
C712 C718 1.379 . S
C712 N720 1.356 . S
C713 C712 1.363 . S
C713 C719 1.363 1_565 S
C714 C715 1.363 . S
C714 C719 1.379 . S
C714 N721 1.356 . S
C715 C714 1.363 . S
C715 C718 1.363 1_545 S
N716 C718 1.356 . S
N716 H728 0.984 . S
N716 H729 0.985 1_565 S
N717 C719 1.356 . S
N717 H722 0.984 1_545 S
N717 H723 0.985 . S
C718 C712 1.379 . S
C718 C715 1.363 1_565 S
C718 N716 1.356 . S
C719 C713 1.363 1_545 S
C719 C714 1.379 . S
C719 N717 1.356 . S
N720 C712 1.356 . S
N720 H726 0.984 . S
N720 H727 0.984 . S
N721 C714 1.356 . S
N721 H724 0.984 . S
N721 H725 0.985 1_554 S
H722 N717 0.984 1_565 S
H723 N717 0.985 . S
H724 N721 0.984 . S
H725 N721 0.985 1_556 S
H726 N720 0.984 . S
H727 N720 0.984 . S
H728 N716 0.984 . S
H729 N716 0.985 1_545 S
C730 C731 1.363 1_655 S
C730 C736 1.379 . S
C730 N738 1.356 . S
C731 C730 1.363 1_455 S
C731 C737 1.363 . S
C732 C733 1.363 1_455 S
C732 C737 1.379 . S
C732 N739 1.356 . S
C733 C732 1.363 1_655 S
C733 C736 1.363 . S
N734 C736 1.356 . S
N734 H746 0.984 . S
N734 H747 0.985 . S
N735 C737 1.356 . S
N735 H740 0.984 . S
N735 H741 0.985 . S
C736 C730 1.379 . S
C736 C733 1.363 . S
C736 N734 1.356 . S
C737 C731 1.363 . S
C737 C732 1.379 . S
C737 N735 1.356 . S
N738 C730 1.356 . S
N738 H744 0.984 . S
N738 H745 0.984 . S
N739 C732 1.356 . S
N739 H742 0.984 . S
N739 H743 0.985 . S
H740 N735 0.984 . S
H741 N735 0.985 . S
H742 N739 0.984 . S
H743 N739 0.985 . S
H744 N738 0.984 . S
H745 N738 0.984 . S
H746 N734 0.984 . S
H747 N734 0.985 . S
C748 C749 1.363 . S
C748 C754 1.379 . S
C748 N756 1.356 . S
C749 C748 1.363 . S
C749 C755 1.363 . S
C750 C751 1.363 . S
C750 C755 1.379 . S
C750 N757 1.356 . S
C751 C750 1.363 . S
C751 C754 1.363 . S
N752 C754 1.356 . S
N752 H764 0.984 . S
N752 H765 0.985 . S
N753 C755 1.356 . S
N753 H758 0.984 . S
N753 H759 0.985 . S
C754 C748 1.379 . S
C754 C751 1.363 . S
C754 N752 1.356 . S
C755 C749 1.363 . S
C755 C750 1.379 . S
C755 N753 1.356 . S
N756 C748 1.356 . S
N756 H762 0.984 . S
N756 H763 0.984 . S
N757 C750 1.356 . S
N757 H760 0.984 . S
N757 H761 0.985 . S
H758 N753 0.984 . S
H759 N753 0.985 . S
H760 N757 0.984 . S
H761 N757 0.985 . S
H762 N756 0.984 . S
H763 N756 0.984 . S
H764 N752 0.984 . S
H765 N752 0.985 . S
C766 C767 1.363 . S
C766 C772 1.379 . S
C766 N774 1.356 . S
C767 C766 1.363 . S
C767 C773 1.363 . S
C768 C769 1.363 . S
C768 C773 1.379 . S
C768 N775 1.356 . S
C769 C768 1.363 . S
C769 C772 1.363 . S
N770 C772 1.356 . S
N770 H782 0.984 . S
N770 H783 0.985 . S
N771 C773 1.356 . S
N771 H776 0.984 . S
N771 H777 0.985 . S
C772 C766 1.379 . S
C772 C769 1.363 . S
C772 N770 1.356 . S
C773 C767 1.363 . S
C773 C768 1.379 . S
C773 N771 1.356 . S
N774 C766 1.356 . S
N774 H780 0.984 . S
N774 H781 0.984 . S
N775 C768 1.356 . S
N775 H778 0.984 . S
N775 H779 0.985 1_556 S
H776 N771 0.984 . S
H777 N771 0.985 . S
H778 N775 0.984 . S
H779 N775 0.985 1_554 S
H780 N774 0.984 . S
H781 N774 0.984 . S
H782 N770 0.984 . S
H783 N770 0.985 . S
C784 C785 1.363 . S
C784 C790 1.379 . S
C784 N792 1.356 . S
C785 C784 1.363 . S
C785 C791 1.363 . S
C786 C787 1.363 . S
C786 C791 1.379 . S
C786 N793 1.356 . S
C787 C786 1.363 . S
C787 C790 1.363 . S
N788 C790 1.356 . S
N788 H800 0.984 . S
N788 H801 0.985 . S
N789 C791 1.356 . S
N789 H794 0.984 . S
N789 H795 0.985 . S
C790 C784 1.379 . S
C790 C787 1.363 . S
C790 N788 1.356 . S
C791 C785 1.363 . S
C791 C786 1.379 . S
C791 N789 1.356 . S
N792 C784 1.356 . S
N792 H798 0.984 . S
N792 H799 0.984 . S
N793 C786 1.356 . S
N793 H796 0.984 . S
N793 H797 0.985 . S
H794 N789 0.984 . S
H795 N789 0.985 . S
H796 N793 0.984 . S
H797 N793 0.985 . S
H798 N792 0.984 . S
H799 N792 0.984 . S
H800 N788 0.984 . S
H801 N788 0.985 . S
C802 C803 1.363 . S
C802 C808 1.379 . S
C802 N810 1.356 . S
C803 C802 1.363 . S
C803 C809 1.363 . S
C804 C805 1.363 . S
C804 C809 1.379 . S
C804 N811 1.356 . S
C805 C804 1.363 . S
C805 C808 1.363 . S
N806 C808 1.356 . S
N806 H818 0.984 . S
N806 H819 0.985 . S
N807 C809 1.356 . S
N807 H812 0.984 . S
N807 H813 0.985 . S
C808 C802 1.379 . S
C808 C805 1.363 . S
C808 N806 1.356 . S
C809 C803 1.363 . S
C809 C804 1.379 . S
C809 N807 1.356 . S
N810 C802 1.356 . S
N810 H816 0.984 . S
N810 H817 0.984 . S
N811 C804 1.356 . S
N811 H814 0.984 . S
N811 H815 0.985 . S
H812 N807 0.984 . S
H813 N807 0.985 . S
H814 N811 0.984 . S
H815 N811 0.985 . S
H816 N810 0.984 . S
H817 N810 0.984 . S
H818 N806 0.984 . S
H819 N806 0.985 . S
C820 C821 1.363 . S
C820 C826 1.418 . S
C820 N828 1.356 . S
C821 C820 1.363 . S
C821 C827 1.363 1_565 S
C822 C823 1.363 . S
C822 C827 1.379 . S
C822 N829 1.356 . S
C823 C822 1.363 . S
C823 C826 1.330 1_545 S
N824 C826 1.337 1_545 S
N824 H836 0.984 1_545 S
N824 H837 0.985 . S
N825 C827 1.356 1_565 S
N825 H830 0.984 . S
N825 H831 0.985 1_565 S
C826 C820 1.418 . S
C826 C823 1.330 1_565 S
C826 N824 1.337 1_565 S
C827 C821 1.363 1_545 S
C827 C822 1.379 . S
C827 N825 1.356 1_545 S
N828 C820 1.356 . S
N828 H834 0.984 . S
N828 H835 0.984 . S
N829 C822 1.356 . S
N829 H832 0.984 . S
N829 H833 0.985 . S
H830 N825 0.984 . S
H831 N825 0.985 1_545 S
H832 N829 0.984 . S
H833 N829 0.985 . S
H834 N828 0.984 . S
H835 N828 0.984 . S
H836 N824 0.984 1_565 S
H837 N824 0.985 . S
C838 C839 1.363 . S
C838 C844 1.379 . S
C838 N846 1.356 1_556 S
C839 C838 1.363 . S
C839 C845 1.363 1_455 S
C840 C841 1.363 . S
C840 C845 1.379 . S
C840 N847 1.356 . S
C841 C840 1.363 . S
C841 C844 1.363 1_655 S
N842 C844 1.356 1_554 S
N842 H854 0.984 . S
N842 H855 0.985 1_455 S
N843 C845 1.367 . S
N843 H848 0.955 1_655 S
N843 H849 1.005 . S
C844 C838 1.379 . S
C844 C841 1.363 1_455 S
C844 N842 1.356 1_556 S
C845 C839 1.363 1_655 S
C845 C840 1.379 . S
C845 N843 1.367 . S
N846 C838 1.356 1_554 S
N846 H852 0.984 . S
N846 H853 0.983 1_554 S
N847 C840 1.356 . S
N847 H850 0.984 . S
N847 H851 0.985 . S
H848 N843 0.955 1_455 S
H849 N843 1.005 . S
H850 N847 0.984 . S
H851 N847 0.985 . S
H852 N846 0.984 . S
H853 N846 0.983 1_556 S
H854 N842 0.984 . S
H855 N842 0.985 1_655 S
C856 C857 1.363 . S
C856 C862 1.379 . S
C856 N864 1.356 . S
C857 C856 1.363 . S
C857 C863 1.363 . S
C858 C859 1.363 . S
C858 C863 1.379 . S
C858 N865 1.356 1_556 S
C859 C858 1.363 . S
C859 C862 1.363 . S
N860 C862 1.356 . S
N860 H872 0.984 . S
N860 H873 0.985 . S
N861 C863 1.356 . S
N861 H866 0.984 . S
N861 H867 0.985 . S
C862 C856 1.379 . S
C862 C859 1.363 . S
C862 N860 1.356 . S
C863 C857 1.363 . S
C863 C858 1.379 . S
C863 N861 1.356 . S
N864 C856 1.356 . S
N864 H870 0.984 . S
N864 H871 0.984 . S
N865 C858 1.356 1_554 S
N865 H868 0.984 . S
N865 H869 0.985 . S
H866 N861 0.984 . S
H867 N861 0.985 . S
H868 N865 0.984 . S
H869 N865 0.985 . S
H870 N864 0.984 . S
H871 N864 0.984 . S
H872 N860 0.984 . S
H873 N860 0.985 . S
C874 C875 1.363 . S
C874 C880 1.379 . S
C874 N882 1.356 . S
C875 C874 1.363 . S
C875 C881 1.363 . S
C876 C877 1.363 . S
C876 C881 1.379 . S
C876 N883 1.356 . S
C877 C876 1.363 . S
C877 C880 1.363 . S
N878 C880 1.356 . S
N878 H890 0.984 . S
N878 H891 0.985 . S
N879 C881 1.356 . S
N879 H884 0.984 . S
N879 H885 0.985 . S
C880 C874 1.379 . S
C880 C877 1.363 . S
C880 N878 1.356 . S
C881 C875 1.363 . S
C881 C876 1.379 . S
C881 N879 1.356 . S
N882 C874 1.356 . S
N882 H888 0.984 . S
N882 H889 0.984 . S
N883 C876 1.356 . S
N883 H886 0.984 . S
N883 H887 0.985 . S
H884 N879 0.984 . S
H885 N879 0.985 . S
H886 N883 0.984 . S
H887 N883 0.985 . S
H888 N882 0.984 . S
H889 N882 0.984 . S
H890 N878 0.984 . S
H891 N878 0.985 . S
C892 C893 1.363 . S
C892 C898 1.379 . S
C892 N900 1.356 . S
C893 C892 1.363 . S
C893 C899 1.363 . S
C894 C895 1.363 . S
C894 C899 1.379 . S
C894 N901 1.356 . S
C895 C894 1.363 . S
C895 C898 1.363 . S
N896 C898 1.356 . S
N896 H908 0.984 . S
N896 H909 0.985 . S
N897 C899 1.356 . S
N897 H902 0.984 . S
N897 H903 0.985 . S
C898 C892 1.379 . S
C898 C895 1.363 . S
C898 N896 1.356 . S
C899 C893 1.363 . S
C899 C894 1.379 . S
C899 N897 1.356 . S
N900 C892 1.356 . S
N900 H906 0.984 . S
N900 H907 0.984 . S
N901 C894 1.356 . S
N901 H904 0.984 . S
N901 H905 0.985 . S
H902 N897 0.984 . S
H903 N897 0.985 . S
H904 N901 0.984 . S
H905 N901 0.985 . S
H906 N900 0.984 . S
H907 N900 0.984 . S
H908 N896 0.984 . S
H909 N896 0.985 . S
C910 C911 1.363 . S
C910 C916 1.379 . S
C910 N918 1.356 . S
C911 C910 1.363 . S
C911 C917 1.363 . S
C912 C913 1.363 . S
C912 C917 1.379 . S
C912 N919 1.356 . S
C913 C912 1.363 . S
C913 C916 1.363 . S
N914 C916 1.356 . S
N914 H926 0.984 . S
N914 H927 0.985 . S
N915 C917 1.356 . S
N915 H920 0.984 . S
N915 H921 0.985 . S
C916 C910 1.379 . S
C916 C913 1.363 . S
C916 N914 1.356 . S
C917 C911 1.363 . S
C917 C912 1.379 . S
C917 N915 1.356 . S
N918 C910 1.356 . S
N918 H924 0.984 . S
N918 H925 0.984 . S
N919 C912 1.356 . S
N919 H922 0.984 . S
N919 H923 0.985 . S
H920 N915 0.984 . S
H921 N915 0.985 . S
H922 N919 0.984 . S
H923 N919 0.985 . S
H924 N918 0.984 . S
H925 N918 0.984 . S
H926 N914 0.984 . S
H927 N914 0.985 . S
C928 C929 1.363 . S
C928 C934 1.379 . S
C928 N936 1.356 . S
C929 C928 1.363 . S
C929 C935 1.363 . S
C930 C931 1.363 . S
C930 C935 1.379 . S
C930 N937 1.356 . S
C931 C930 1.363 . S
C931 C934 1.363 . S
N932 C934 1.356 . S
N932 H944 0.984 . S
N932 H945 0.985 . S
N933 C935 1.356 . S
N933 H938 0.984 . S
N933 H939 0.985 . S
C934 C928 1.379 . S
C934 C931 1.363 . S
C934 N932 1.356 . S
C935 C929 1.363 . S
C935 C930 1.379 . S
C935 N933 1.356 . S
N936 C928 1.356 . S
N936 H942 0.984 . S
N936 H943 0.984 . S
N937 C930 1.356 . S
N937 H940 0.984 . S
N937 H941 0.985 . S
H938 N933 0.984 . S
H939 N933 0.985 . S
H940 N937 0.984 . S
H941 N937 0.985 . S
H942 N936 0.984 . S
H943 N936 0.984 . S
H944 N932 0.984 . S
H945 N932 0.985 . S
C946 C947 1.363 . S
C946 C952 1.379 . S
C946 N954 1.356 . S
C947 C946 1.363 . S
C947 C953 1.363 . S
C948 C949 1.363 . S
C948 C953 1.379 . S
C948 N955 1.356 . S
C949 C948 1.363 . S
C949 C952 1.363 . S
N950 C952 1.356 . S
N950 H962 0.984 . S
N950 H963 0.985 . S
N951 C953 1.356 . S
N951 H956 0.984 . S
N951 H957 0.985 . S
C952 C946 1.379 . S
C952 C949 1.363 . S
C952 N950 1.356 . S
C953 C947 1.363 . S
C953 C948 1.379 . S
C953 N951 1.356 . S
N954 C946 1.356 . S
N954 H960 0.984 . S
N954 H961 0.984 . S
N955 C948 1.356 . S
N955 H958 0.984 . S
N955 H959 0.985 . S
H956 N951 0.984 . S
H957 N951 0.985 . S
H958 N955 0.984 . S
H959 N955 0.985 . S
H960 N954 0.984 . S
H961 N954 0.984 . S
H962 N950 0.984 . S
H963 N950 0.985 . S
C964 C965 1.363 . S
C964 C970 1.379 . S
C964 N972 1.356 . S
C965 C964 1.363 . S
C965 C971 1.363 . S
C966 C967 1.363 . S
C966 C971 1.379 . S
C966 N973 1.356 . S
C967 C966 1.363 . S
C967 C970 1.363 . S
N968 C970 1.356 . S
N968 H980 0.984 . S
N968 H981 0.985 . S
N969 C971 1.356 . S
N969 H974 0.984 . S
N969 H975 0.985 . S
C970 C964 1.379 . S
C970 C967 1.363 . S
C970 N968 1.356 . S
C971 C965 1.363 . S
C971 C966 1.379 . S
C971 N969 1.356 . S
N972 C964 1.356 . S
N972 H978 0.984 . S
N972 H979 0.984 . S
N973 C966 1.356 . S
N973 H976 0.984 . S
N973 H977 0.985 . S
H974 N969 0.984 . S
H975 N969 0.985 . S
H976 N973 0.984 . S
H977 N973 0.985 . S
H978 N972 0.984 . S
H979 N972 0.984 . S
H980 N968 0.984 . S
H981 N968 0.985 . S
C982 C983 1.363 . S
C982 C988 1.379 . S
C982 N990 1.356 . S
C983 C982 1.363 . S
C983 C989 1.363 . S
C984 C985 1.363 . S
C984 C989 1.379 . S
C984 N991 1.356 . S
C985 C984 1.363 . S
C985 C988 1.363 . S
N986 C988 1.356 . S
N986 H998 0.984 . S
N986 H999 0.985 . S
N987 C989 1.356 . S
N987 H992 0.984 . S
N987 H993 0.985 . S
C988 C982 1.379 . S
C988 C985 1.363 . S
C988 N986 1.356 . S
C989 C983 1.363 . S
C989 C984 1.379 . S
C989 N987 1.356 . S
N990 C982 1.356 . S
N990 H996 0.984 . S
N990 H997 0.984 . S
N991 C984 1.356 . S
N991 H994 0.984 . S
N991 H995 0.985 . S
H992 N987 0.984 . S
H993 N987 0.985 . S
H994 N991 0.984 . S
H995 N991 0.985 . S
H996 N990 0.984 . S
H997 N990 0.984 . S
H998 N986 0.984 . S
H999 N986 0.985 . S
C1000 C1001 1.363 . S
C1000 C1006 1.379 . S
C1000 N1008 1.356 . S
C1001 C1000 1.363 . S
C1001 C1007 1.363 . S
C1002 C1003 1.363 . S
C1002 C1007 1.379 . S
C1002 N1009 1.356 . S
C1003 C1002 1.363 . S
C1003 C1006 1.363 . S
N1004 C1006 1.356 . S
N1004 H1016 0.984 . S
N1004 H1017 0.985 . S
N1005 C1007 1.356 . S
N1005 H1010 0.984 . S
N1005 H1011 0.985 . S
C1006 C1000 1.379 . S
C1006 C1003 1.363 . S
C1006 N1004 1.356 . S
C1007 C1001 1.363 . S
C1007 C1002 1.379 . S
C1007 N1005 1.356 . S
N1008 C1000 1.356 . S
N1008 H1014 0.984 . S
N1008 H1015 0.984 . S
N1009 C1002 1.356 . S
N1009 H1012 0.984 . S
N1009 H1013 0.985 . S
H1010 N1005 0.984 . S
H1011 N1005 0.985 . S
H1012 N1009 0.984 . S
H1013 N1009 0.985 . S
H1014 N1008 0.984 . S
H1015 N1008 0.984 . S
H1016 N1004 0.984 . S
H1017 N1004 0.985 . S
C1018 C1019 1.363 . S
C1018 C1024 1.379 . S
C1018 N1026 1.356 . S
C1019 C1018 1.363 . S
C1019 C1025 1.363 1_455 S
C1020 C1021 1.363 . S
C1020 C1025 1.379 . S
C1020 N1027 1.356 . S
C1021 C1020 1.363 . S
C1021 C1024 1.363 1_655 S
N1022 C1024 1.356 . S
N1022 H1034 0.984 . S
N1022 H1035 0.985 1_455 S
N1023 C1025 1.356 . S
N1023 H1028 0.984 1_655 S
N1023 H1029 0.985 . S
C1024 C1018 1.379 . S
C1024 C1021 1.363 1_455 S
C1024 N1022 1.356 . S
C1025 C1019 1.363 1_655 S
C1025 C1020 1.379 . S
C1025 N1023 1.356 . S
N1026 C1018 1.356 . S
N1026 H1032 0.984 . S
N1026 H1033 0.984 . S
N1027 C1020 1.356 . S
N1027 H1030 0.984 . S
N1027 H1031 0.985 . S
H1028 N1023 0.984 1_455 S
H1029 N1023 0.985 . S
H1030 N1027 0.984 . S
H1031 N1027 0.985 . S
H1032 N1026 0.984 . S
H1033 N1026 0.984 . S
H1034 N1022 0.984 . S
H1035 N1022 0.985 1_655 S
C1036 C1037 1.363 . S
C1036 C1042 1.379 . S
C1036 N1044 1.356 . S
C1037 C1036 1.363 . S
C1037 C1043 1.363 . S
C1038 C1039 1.363 . S
C1038 C1043 1.379 . S
C1038 N1045 1.356 . S
C1039 C1038 1.363 . S
C1039 C1042 1.363 . S
N1040 C1042 1.356 . S
N1040 H1052 0.984 . S
N1040 H1053 0.985 . S
N1041 C1043 1.356 . S
N1041 H1046 0.984 . S
N1041 H1047 0.985 . S
C1042 C1036 1.379 . S
C1042 C1039 1.363 . S
C1042 N1040 1.356 . S
C1043 C1037 1.363 . S
C1043 C1038 1.379 . S
C1043 N1041 1.356 . S
N1044 C1036 1.356 . S
N1044 H1050 0.984 . S
N1044 H1051 0.984 . S
N1045 C1038 1.356 . S
N1045 H1048 0.984 . S
N1045 H1049 0.985 . S
H1046 N1041 0.984 . S
H1047 N1041 0.985 . S
H1048 N1045 0.984 . S
H1049 N1045 0.985 . S
H1050 N1044 0.984 . S
H1051 N1044 0.984 . S
H1052 N1040 0.984 . S
H1053 N1040 0.985 . S
C1054 C1055 1.363 . S
C1054 C1060 1.379 . S
C1054 N1062 1.356 . S
C1055 C1054 1.363 . S
C1055 C1061 1.363 . S
C1056 C1057 1.363 . S
C1056 C1061 1.379 . S
C1056 N1063 1.356 . S
C1057 C1056 1.363 . S
C1057 C1060 1.363 . S
N1058 C1060 1.356 . S
N1058 H1070 0.984 . S
N1058 H1071 0.985 . S
N1059 C1061 1.356 . S
N1059 H1064 0.984 . S
N1059 H1065 0.985 . S
C1060 C1054 1.379 . S
C1060 C1057 1.363 . S
C1060 N1058 1.356 . S
C1061 C1055 1.363 . S
C1061 C1056 1.379 . S
C1061 N1059 1.356 . S
N1062 C1054 1.356 . S
N1062 H1068 0.984 . S
N1062 H1069 0.984 . S
N1063 C1056 1.356 . S
N1063 H1066 0.984 . S
N1063 H1067 0.985 . S
H1064 N1059 0.984 . S
H1065 N1059 0.985 . S
H1066 N1063 0.984 . S
H1067 N1063 0.985 . S
H1068 N1062 0.984 . S
H1069 N1062 0.984 . S
H1070 N1058 0.984 . S
H1071 N1058 0.985 . S
C1072 C1073 1.363 . S
C1072 C1078 1.379 . S
C1072 N1080 1.356 . S
C1073 C1072 1.363 . S
C1073 C1079 1.363 . S
C1074 C1075 1.363 . S
C1074 C1079 1.379 . S
C1074 N1081 1.356 . S
C1075 C1074 1.363 . S
C1075 C1078 1.363 . S
N1076 C1078 1.356 . S
N1076 H1088 0.984 . S
N1076 H1089 0.985 . S
N1077 C1079 1.356 . S
N1077 H1082 0.984 . S
N1077 H1083 0.985 . S
C1078 C1072 1.379 . S
C1078 C1075 1.363 . S
C1078 N1076 1.356 . S
C1079 C1073 1.363 . S
C1079 C1074 1.379 . S
C1079 N1077 1.356 . S
N1080 C1072 1.356 . S
N1080 H1086 0.984 . S
N1080 H1087 0.984 . S
N1081 C1074 1.356 . S
N1081 H1084 0.984 . S
N1081 H1085 0.985 . S
H1082 N1077 0.984 . S
H1083 N1077 0.985 . S
H1084 N1081 0.984 . S
H1085 N1081 0.985 . S
H1086 N1080 0.984 . S
H1087 N1080 0.984 . S
H1088 N1076 0.984 . S
H1089 N1076 0.985 . S
C1090 C1091 1.363 . S
C1090 C1096 1.379 . S
C1090 N1098 1.356 . S
C1091 C1090 1.363 . S
C1091 C1097 1.363 . S
C1092 C1093 1.363 . S
C1092 C1097 1.379 . S
C1092 N1099 1.356 . S
C1093 C1092 1.363 . S
C1093 C1096 1.363 . S
N1094 C1096 1.356 . S
N1094 H1106 0.984 . S
N1094 H1107 0.985 . S
N1095 C1097 1.356 . S
N1095 H1100 0.984 . S
N1095 H1101 0.985 . S
C1096 C1090 1.379 . S
C1096 C1093 1.363 . S
C1096 N1094 1.356 . S
C1097 C1091 1.363 . S
C1097 C1092 1.379 . S
C1097 N1095 1.356 . S
N1098 C1090 1.356 . S
N1098 H1104 0.984 . S
N1098 H1105 0.984 . S
N1099 C1092 1.356 . S
N1099 H1102 0.984 . S
N1099 H1103 0.985 . S
H1100 N1095 0.984 . S
H1101 N1095 0.985 . S
H1102 N1099 0.984 . S
H1103 N1099 0.985 . S
H1104 N1098 0.984 . S
H1105 N1098 0.984 . S
H1106 N1094 0.984 . S
H1107 N1094 0.985 . S
C1108 C1109 1.336 1_545 S
C1108 C1114 1.412 . S
C1108 N1116 1.340 1_545 S
C1109 C1108 1.336 1_565 S
C1109 C1115 1.363 . S
C1110 C1111 1.351 1_565 S
C1110 C1115 1.393 . S
C1110 N1117 1.349 1_565 S
C1111 C1110 1.351 1_545 S
C1111 C1114 1.363 . S
N1112 C1114 1.356 . S
N1112 H1124 0.984 . S
N1112 H1125 0.985 . S
N1113 C1115 1.356 . S
N1113 H1118 0.984 . S
N1113 H1119 0.985 . S
C1114 C1108 1.412 . S
C1114 C1111 1.363 . S
C1114 N1112 1.356 . S
C1115 C1109 1.363 . S
C1115 C1110 1.393 . S
C1115 N1113 1.356 . S
N1116 C1108 1.340 1_565 S
N1116 H1122 0.984 1_565 S
N1116 H1123 0.984 . S
N1117 C1110 1.349 1_545 S
N1117 H1120 0.984 . S
N1117 H1121 0.985 1_545 S
H1118 N1113 0.984 . S
H1119 N1113 0.985 . S
H1120 N1117 0.984 . S
H1121 N1117 0.985 1_565 S
H1122 N1116 0.984 1_545 S
H1123 N1116 0.984 . S
H1124 N1112 0.984 . S
H1125 N1112 0.985 . S
C1126 C1127 1.363 . S
C1126 C1132 1.379 . S
C1126 N1134 1.356 1_554 S
C1127 C1126 1.363 . S
C1127 C1133 1.363 . S
C1128 C1129 1.363 . S
C1128 C1133 1.379 . S
C1128 N1135 1.356 . S
C1129 C1128 1.363 . S
C1129 C1132 1.363 . S
N1130 C1132 1.356 . S
N1130 H1142 0.984 . S
N1130 H1143 0.985 . S
N1131 C1133 1.356 . S
N1131 H1136 0.984 . S
N1131 H1137 0.985 . S
C1132 C1126 1.379 . S
C1132 C1129 1.363 . S
C1132 N1130 1.356 . S
C1133 C1127 1.363 . S
C1133 C1128 1.379 . S
C1133 N1131 1.356 . S
N1134 C1126 1.356 1_556 S
N1134 H1140 0.984 . S
N1134 H1141 0.984 . S
N1135 C1128 1.356 . S
N1135 H1138 0.984 . S
N1135 H1139 0.985 . S
H1136 N1131 0.984 . S
H1137 N1131 0.985 . S
H1138 N1135 0.984 . S
H1139 N1135 0.985 . S
H1140 N1134 0.984 . S
H1141 N1134 0.984 . S
H1142 N1130 0.984 . S
H1143 N1130 0.985 . S
C1144 C1145 1.363 . S
C1144 C1150 1.379 . S
C1144 N1152 1.356 . S
C1145 C1144 1.363 . S
C1145 C1151 1.363 . S
C1146 C1147 1.363 . S
C1146 C1151 1.379 . S
C1146 N1153 1.356 . S
C1147 C1146 1.363 . S
C1147 C1150 1.363 . S
N1148 C1150 1.356 . S
N1148 H1160 0.984 . S
N1148 H1161 0.985 . S
N1149 C1151 1.356 . S
N1149 H1154 0.984 . S
N1149 H1155 0.985 . S
C1150 C1144 1.379 . S
C1150 C1147 1.363 . S
C1150 N1148 1.356 . S
C1151 C1145 1.363 . S
C1151 C1146 1.379 . S
C1151 N1149 1.356 . S
N1152 C1144 1.356 . S
N1152 H1158 0.984 . S
N1152 H1159 0.984 . S
N1153 C1146 1.356 . S
N1153 H1156 0.984 . S
N1153 H1157 0.985 . S
H1154 N1149 0.984 . S
H1155 N1149 0.985 . S
H1156 N1153 0.984 . S
H1157 N1153 0.985 . S
H1158 N1152 0.984 . S
H1159 N1152 0.984 . S
H1160 N1148 0.984 . S
H1161 N1148 0.985 . S
C1162 C1163 1.363 . S
C1162 C1168 1.379 . S
C1162 N1170 1.356 . S
C1163 C1162 1.363 . S
C1163 C1169 1.363 . S
C1164 C1165 1.363 . S
C1164 C1169 1.379 . S
C1164 N1171 1.356 . S
C1165 C1164 1.363 . S
C1165 C1168 1.363 . S
N1166 C1168 1.356 . S
N1166 H1178 0.984 . S
N1166 H1179 0.985 . S
N1167 C1169 1.356 . S
N1167 H1172 0.984 . S
N1167 H1173 0.985 . S
C1168 C1162 1.379 . S
C1168 C1165 1.363 . S
C1168 N1166 1.356 . S
C1169 C1163 1.363 . S
C1169 C1164 1.379 . S
C1169 N1167 1.356 . S
N1170 C1162 1.356 . S
N1170 H1176 0.984 . S
N1170 H1177 0.984 . S
N1171 C1164 1.356 . S
N1171 H1174 0.984 . S
N1171 H1175 0.985 . S
H1172 N1167 0.984 . S
H1173 N1167 0.985 . S
H1174 N1171 0.984 . S
H1175 N1171 0.985 . S
H1176 N1170 0.984 . S
H1177 N1170 0.984 . S
H1178 N1166 0.984 . S
H1179 N1166 0.985 . S
C1180 C1181 1.363 . S
C1180 C1186 1.379 . S
C1180 N1188 1.356 . S
C1181 C1180 1.363 . S
C1181 C1187 1.363 . S
C1182 C1183 1.363 . S
C1182 C1187 1.379 . S
C1182 N1189 1.356 . S
C1183 C1182 1.363 . S
C1183 C1186 1.363 . S
N1184 C1186 1.356 . S
N1184 H1196 0.984 . S
N1184 H1197 0.985 . S
N1185 C1187 1.356 . S
N1185 H1190 0.984 . S
N1185 H1191 0.985 . S
C1186 C1180 1.379 . S
C1186 C1183 1.363 . S
C1186 N1184 1.356 . S
C1187 C1181 1.363 . S
C1187 C1182 1.379 . S
C1187 N1185 1.356 . S
N1188 C1180 1.356 . S
N1188 H1194 0.984 . S
N1188 H1195 0.984 . S
N1189 C1182 1.356 . S
N1189 H1192 0.984 . S
N1189 H1193 0.985 . S
H1190 N1185 0.984 . S
H1191 N1185 0.985 . S
H1192 N1189 0.984 . S
H1193 N1189 0.985 . S
H1194 N1188 0.984 . S
H1195 N1188 0.984 . S
H1196 N1184 0.984 . S
H1197 N1184 0.985 . S
C1198 C1199 1.363 . S
C1198 C1204 1.379 . S
C1198 N1206 1.356 . S
C1199 C1198 1.363 . S
C1199 C1205 1.363 . S
C1200 C1201 1.363 . S
C1200 C1205 1.379 . S
C1200 N1207 1.356 . S
C1201 C1200 1.363 . S
C1201 C1204 1.363 . S
N1202 C1204 1.356 . S
N1202 H1214 0.984 . S
N1202 H1215 0.985 . S
N1203 C1205 1.356 . S
N1203 H1208 0.984 . S
N1203 H1209 0.985 . S
C1204 C1198 1.379 . S
C1204 C1201 1.363 . S
C1204 N1202 1.356 . S
C1205 C1199 1.363 . S
C1205 C1200 1.379 . S
C1205 N1203 1.356 . S
N1206 C1198 1.356 . S
N1206 H1212 0.984 . S
N1206 H1213 0.984 . S
N1207 C1200 1.356 . S
N1207 H1210 0.984 . S
N1207 H1211 0.985 . S
H1208 N1203 0.984 . S
H1209 N1203 0.985 . S
H1210 N1207 0.984 . S
H1211 N1207 0.985 . S
H1212 N1206 0.984 . S
H1213 N1206 0.984 . S
H1214 N1202 0.984 . S
H1215 N1202 0.985 . S
C1216 C1217 1.363 . S
C1216 C1222 1.379 . S
C1216 N1224 1.356 . S
C1217 C1216 1.363 . S
C1217 C1223 1.363 . S
C1218 C1219 1.363 . S
C1218 C1223 1.379 . S
C1218 N1225 1.356 . S
C1219 C1218 1.363 . S
C1219 C1222 1.363 . S
N1220 C1222 1.356 . S
N1220 H1232 0.984 . S
N1220 H1233 0.985 . S
N1221 C1223 1.356 . S
N1221 H1226 0.984 . S
N1221 H1227 0.985 . S
C1222 C1216 1.379 . S
C1222 C1219 1.363 . S
C1222 N1220 1.356 . S
C1223 C1217 1.363 . S
C1223 C1218 1.379 . S
C1223 N1221 1.356 . S
N1224 C1216 1.356 . S
N1224 H1230 0.984 . S
N1224 H1231 0.984 . S
N1225 C1218 1.356 . S
N1225 H1228 0.984 . S
N1225 H1229 0.985 . S
H1226 N1221 0.984 . S
H1227 N1221 0.985 . S
H1228 N1225 0.984 . S
H1229 N1225 0.985 . S
H1230 N1224 0.984 . S
H1231 N1224 0.984 . S
H1232 N1220 0.984 . S
H1233 N1220 0.985 . S
C1234 C1235 1.363 . S
C1234 C1240 1.379 . S
C1234 N1242 1.356 . S
C1235 C1234 1.363 . S
C1235 C1241 1.363 . S
C1236 C1237 1.363 . S
C1236 C1241 1.379 . S
C1236 N1243 1.356 . S
C1237 C1236 1.363 . S
C1237 C1240 1.363 . S
N1238 C1240 1.356 . S
N1238 H1250 0.984 . S
N1238 H1251 0.985 . S
N1239 C1241 1.356 . S
N1239 H1244 0.984 . S
N1239 H1245 0.985 . S
C1240 C1234 1.379 . S
C1240 C1237 1.363 . S
C1240 N1238 1.356 . S
C1241 C1235 1.363 . S
C1241 C1236 1.379 . S
C1241 N1239 1.356 . S
N1242 C1234 1.356 . S
N1242 H1248 0.984 . S
N1242 H1249 0.984 . S
N1243 C1236 1.356 . S
N1243 H1246 0.984 . S
N1243 H1247 0.985 . S
H1244 N1239 0.984 . S
H1245 N1239 0.985 . S
H1246 N1243 0.984 . S
H1247 N1243 0.985 . S
H1248 N1242 0.984 . S
H1249 N1242 0.984 . S
H1250 N1238 0.984 . S
H1251 N1238 0.985 . S
C1252 C1253 1.363 . S
C1252 C1258 1.379 . S
C1252 N1260 1.356 . S
C1253 C1252 1.363 . S
C1253 C1259 1.363 . S
C1254 C1255 1.363 . S
C1254 C1259 1.379 . S
C1254 N1261 1.356 . S
C1255 C1254 1.363 . S
C1255 C1258 1.363 . S
N1256 C1258 1.356 . S
N1256 H1268 0.984 . S
N1256 H1269 0.985 . S
N1257 C1259 1.356 . S
N1257 H1262 0.984 . S
N1257 H1263 0.985 . S
C1258 C1252 1.379 . S
C1258 C1255 1.363 . S
C1258 N1256 1.356 . S
C1259 C1253 1.363 . S
C1259 C1254 1.379 . S
C1259 N1257 1.356 . S
N1260 C1252 1.356 . S
N1260 H1266 0.984 . S
N1260 H1267 0.984 . S
N1261 C1254 1.356 . S
N1261 H1264 0.984 . S
N1261 H1265 0.985 . S
H1262 N1257 0.984 . S
H1263 N1257 0.985 . S
H1264 N1261 0.984 . S
H1265 N1261 0.985 . S
H1266 N1260 0.984 . S
H1267 N1260 0.984 . S
H1268 N1256 0.984 . S
H1269 N1256 0.985 . S
C1270 C1271 1.363 . S
C1270 C1276 1.379 . S
C1270 N1278 1.356 . S
C1271 C1270 1.363 . S
C1271 C1277 1.363 . S
C1272 C1273 1.363 . S
C1272 C1277 1.379 . S
C1272 N1279 1.356 . S
C1273 C1272 1.363 . S
C1273 C1276 1.363 . S
N1274 C1276 1.356 . S
N1274 H1286 0.984 . S
N1274 H1287 0.985 . S
N1275 C1277 1.356 . S
N1275 H1280 0.984 . S
N1275 H1281 0.985 . S
C1276 C1270 1.379 . S
C1276 C1273 1.363 . S
C1276 N1274 1.356 . S
C1277 C1271 1.363 . S
C1277 C1272 1.379 . S
C1277 N1275 1.356 . S
N1278 C1270 1.356 . S
N1278 H1284 0.984 . S
N1278 H1285 0.984 . S
N1279 C1272 1.356 . S
N1279 H1282 0.984 . S
N1279 H1283 0.985 . S
H1280 N1275 0.984 . S
H1281 N1275 0.985 . S
H1282 N1279 0.984 . S
H1283 N1279 0.985 . S
H1284 N1278 0.984 . S
H1285 N1278 0.984 . S
H1286 N1274 0.984 . S
H1287 N1274 0.985 . S
C1288 C1289 1.363 . S
C1288 C1294 1.379 . S
C1288 N1296 1.356 . S
C1289 C1288 1.363 . S
C1289 C1295 1.363 . S
C1290 C1291 1.363 . S
C1290 C1295 1.379 . S
C1290 N1297 1.356 . S
C1291 C1290 1.363 . S
C1291 C1294 1.363 . S
N1292 C1294 1.356 . S
N1292 H1304 0.984 . S
N1292 H1305 0.985 . S
N1293 C1295 1.356 1_556 S
N1293 H1298 0.984 . S
N1293 H1299 0.985 . S
C1294 C1288 1.379 . S
C1294 C1291 1.363 . S
C1294 N1292 1.356 . S
C1295 C1289 1.363 . S
C1295 C1290 1.379 . S
C1295 N1293 1.356 1_554 S
N1296 C1288 1.356 . S
N1296 H1302 0.984 . S
N1296 H1303 0.984 . S
N1297 C1290 1.356 . S
N1297 H1300 0.984 . S
N1297 H1301 0.985 1_554 S
H1298 N1293 0.984 . S
H1299 N1293 0.985 . S
H1300 N1297 0.984 . S
H1301 N1297 0.985 1_556 S
H1302 N1296 0.984 . S
H1303 N1296 0.984 . S
H1304 N1292 0.984 . S
H1305 N1292 0.985 . S
C1306 C1307 1.363 . S
C1306 C1312 1.379 . S
C1306 N1314 1.356 . S
C1307 C1306 1.363 . S
C1307 C1313 1.363 . S
C1308 C1309 1.363 . S
C1308 C1313 1.379 . S
C1308 N1315 1.356 1_554 S
C1309 C1308 1.363 . S
C1309 C1312 1.363 . S
N1310 C1312 1.356 . S
N1310 H1322 0.984 . S
N1310 H1323 0.985 . S
N1311 C1313 1.356 . S
N1311 H1316 0.984 . S
N1311 H1317 0.985 . S
C1312 C1306 1.379 . S
C1312 C1309 1.363 . S
C1312 N1310 1.356 . S
C1313 C1307 1.363 . S
C1313 C1308 1.379 . S
C1313 N1311 1.356 . S
N1314 C1306 1.356 . S
N1314 H1320 0.984 . S
N1314 H1321 0.984 . S
N1315 C1308 1.356 1_556 S
N1315 H1318 0.984 . S
N1315 H1319 0.985 . S
H1316 N1311 0.984 . S
H1317 N1311 0.985 . S
H1318 N1315 0.984 . S
H1319 N1315 0.985 . S
H1320 N1314 0.984 . S
H1321 N1314 0.984 . S
H1322 N1310 0.984 . S
H1323 N1310 0.985 . S
C1324 C1325 1.363 . S
C1324 C1330 1.379 . S
C1324 N1332 1.356 . S
C1325 C1324 1.363 . S
C1325 C1331 1.363 . S
C1326 C1327 1.363 . S
C1326 C1331 1.379 . S
C1326 N1333 1.356 . S
C1327 C1326 1.363 . S
C1327 C1330 1.363 . S
N1328 C1330 1.356 . S
N1328 H1340 0.984 . S
N1328 H1341 0.985 . S
N1329 C1331 1.356 . S
N1329 H1334 0.984 . S
N1329 H1335 0.985 . S
C1330 C1324 1.379 . S
C1330 C1327 1.363 . S
C1330 N1328 1.356 . S
C1331 C1325 1.363 . S
C1331 C1326 1.379 . S
C1331 N1329 1.356 . S
N1332 C1324 1.356 . S
N1332 H1338 0.984 . S
N1332 H1339 0.984 . S
N1333 C1326 1.356 . S
N1333 H1336 0.984 . S
N1333 H1337 0.985 . S
H1334 N1329 0.984 . S
H1335 N1329 0.985 . S
H1336 N1333 0.984 . S
H1337 N1333 0.985 . S
H1338 N1332 0.984 . S
H1339 N1332 0.984 . S
H1340 N1328 0.984 . S
H1341 N1328 0.985 . S
C1342 C1343 1.363 . S
C1342 C1348 1.379 . S
C1342 N1350 1.356 . S
C1343 C1342 1.363 . S
C1343 C1349 1.363 . S
C1344 C1345 1.363 . S
C1344 C1349 1.379 . S
C1344 N1351 1.356 . S
C1345 C1344 1.363 . S
C1345 C1348 1.363 . S
N1346 C1348 1.356 . S
N1346 H1358 0.984 . S
N1346 H1359 0.985 . S
N1347 C1349 1.356 . S
N1347 H1352 0.984 . S
N1347 H1353 0.985 1_556 S
C1348 C1342 1.379 . S
C1348 C1345 1.363 . S
C1348 N1346 1.356 . S
C1349 C1343 1.363 . S
C1349 C1344 1.379 . S
C1349 N1347 1.356 . S
N1350 C1342 1.356 . S
N1350 H1356 0.984 . S
N1350 H1357 0.984 . S
N1351 C1344 1.356 . S
N1351 H1354 0.984 . S
N1351 H1355 0.985 . S
H1352 N1347 0.984 . S
H1353 N1347 0.985 1_554 S
H1354 N1351 0.984 . S
H1355 N1351 0.985 . S
H1356 N1350 0.984 . S
H1357 N1350 0.984 . S
H1358 N1346 0.984 . S
H1359 N1346 0.985 . S
C1360 C1361 1.363 . S
C1360 C1366 1.379 . S
C1360 N1368 1.356 . S
C1361 C1360 1.363 . S
C1361 C1367 1.363 . S
C1362 C1363 1.363 . S
C1362 C1367 1.379 . S
C1362 N1369 1.356 . S
C1363 C1362 1.363 . S
C1363 C1366 1.363 . S
N1364 C1366 1.356 . S
N1364 H1376 0.984 . S
N1364 H1377 0.985 . S
N1365 C1367 1.356 . S
N1365 H1370 0.984 . S
N1365 H1371 0.985 . S
C1366 C1360 1.379 . S
C1366 C1363 1.363 . S
C1366 N1364 1.356 . S
C1367 C1361 1.363 . S
C1367 C1362 1.379 . S
C1367 N1365 1.356 . S
N1368 C1360 1.356 . S
N1368 H1374 0.984 . S
N1368 H1375 0.984 . S
N1369 C1362 1.356 . S
N1369 H1372 0.984 . S
N1369 H1373 0.985 . S
H1370 N1365 0.984 . S
H1371 N1365 0.985 . S
H1372 N1369 0.984 . S
H1373 N1369 0.985 . S
H1374 N1368 0.984 . S
H1375 N1368 0.984 . S
H1376 N1364 0.984 . S
H1377 N1364 0.985 . S
C1378 C1379 1.363 . S
C1378 C1384 1.379 . S
C1378 N1386 1.356 . S
C1379 C1378 1.363 . S
C1379 C1385 1.363 . S
C1380 C1381 1.363 . S
C1380 C1385 1.379 . S
C1380 N1387 1.356 1_556 S
C1381 C1380 1.363 . S
C1381 C1384 1.363 . S
N1382 C1384 1.356 . S
N1382 H1394 0.984 . S
N1382 H1395 0.985 . S
N1383 C1385 1.356 . S
N1383 H1388 0.984 . S
N1383 H1389 0.985 1_556 S
C1384 C1378 1.379 . S
C1384 C1381 1.363 . S
C1384 N1382 1.356 . S
C1385 C1379 1.363 . S
C1385 C1380 1.379 . S
C1385 N1383 1.356 . S
N1386 C1378 1.356 . S
N1386 H1392 0.984 . S
N1386 H1393 0.984 . S
N1387 C1380 1.356 1_554 S
N1387 H1390 0.984 . S
N1387 H1391 0.985 . S
H1388 N1383 0.984 . S
H1389 N1383 0.985 1_554 S
H1390 N1387 0.984 . S
H1391 N1387 0.985 . S
H1392 N1386 0.984 . S
H1393 N1386 0.984 . S
H1394 N1382 0.984 . S
H1395 N1382 0.985 . S
C1396 C1397 1.363 . S
C1396 C1402 1.379 . S
C1396 N1404 1.356 . S
C1397 C1396 1.363 . S
C1397 C1403 1.363 . S
C1398 C1399 1.363 . S
C1398 C1403 1.379 . S
C1398 N1405 1.356 . S
C1399 C1398 1.363 . S
C1399 C1402 1.363 . S
N1400 C1402 1.356 . S
N1400 H1412 0.984 . S
N1400 H1413 0.985 . S
N1401 C1403 1.356 1_554 S
N1401 H1406 0.984 . S
N1401 H1407 0.985 . S
C1402 C1396 1.379 . S
C1402 C1399 1.363 . S
C1402 N1400 1.356 . S
C1403 C1397 1.363 . S
C1403 C1398 1.379 . S
C1403 N1401 1.356 1_556 S
N1404 C1396 1.356 . S
N1404 H1410 0.984 . S
N1404 H1411 0.984 . S
N1405 C1398 1.356 . S
N1405 H1408 0.984 . S
N1405 H1409 0.985 . S
H1406 N1401 0.984 . S
H1407 N1401 0.985 . S
H1408 N1405 0.984 . S
H1409 N1405 0.985 . S
H1410 N1404 0.984 . S
H1411 N1404 0.984 . S
H1412 N1400 0.984 . S
H1413 N1400 0.985 . S
C1414 C1415 1.363 . S
C1414 C1420 1.379 . S
C1414 N1422 1.356 . S
C1415 C1414 1.363 . S
C1415 C1421 1.363 . S
C1416 C1417 1.363 . S
C1416 C1421 1.379 . S
C1416 N1423 1.356 . S
C1417 C1416 1.363 . S
C1417 C1420 1.363 . S
N1418 C1420 1.356 . S
N1418 H1430 0.984 . S
N1418 H1431 0.985 . S
N1419 C1421 1.356 . S
N1419 H1424 0.984 . S
N1419 H1425 0.985 . S
C1420 C1414 1.379 . S
C1420 C1417 1.363 . S
C1420 N1418 1.356 . S
C1421 C1415 1.363 . S
C1421 C1416 1.379 . S
C1421 N1419 1.356 . S
N1422 C1414 1.356 . S
N1422 H1428 0.984 . S
N1422 H1429 0.984 . S
N1423 C1416 1.356 . S
N1423 H1426 0.984 . S
N1423 H1427 0.985 . S
H1424 N1419 0.984 . S
H1425 N1419 0.985 . S
H1426 N1423 0.984 . S
H1427 N1423 0.985 . S
H1428 N1422 0.984 . S
H1429 N1422 0.984 . S
H1430 N1418 0.984 . S
H1431 N1418 0.985 . S
C1432 C1433 1.363 . S
C1432 C1438 1.379 . S
C1432 N1440 1.356 . S
C1433 C1432 1.363 . S
C1433 C1439 1.363 . S
C1434 C1435 1.363 . S
C1434 C1439 1.379 . S
C1434 N1441 1.356 . S
C1435 C1434 1.363 . S
C1435 C1438 1.363 . S
N1436 C1438 1.356 . S
N1436 H1448 0.984 . S
N1436 H1449 0.985 . S
N1437 C1439 1.356 . S
N1437 H1442 0.984 . S
N1437 H1443 0.985 . S
C1438 C1432 1.379 . S
C1438 C1435 1.363 . S
C1438 N1436 1.356 . S
C1439 C1433 1.363 . S
C1439 C1434 1.379 . S
C1439 N1437 1.356 . S
N1440 C1432 1.356 . S
N1440 H1446 0.984 . S
N1440 H1447 0.984 . S
N1441 C1434 1.356 . S
N1441 H1444 0.984 . S
N1441 H1445 0.985 . S
H1442 N1437 0.984 . S
H1443 N1437 0.985 . S
H1444 N1441 0.984 . S
H1445 N1441 0.985 . S
H1446 N1440 0.984 . S
H1447 N1440 0.984 . S
H1448 N1436 0.984 . S
H1449 N1436 0.985 . S
C1450 C1451 1.363 . S
C1450 C1456 1.379 . S
C1450 N1458 1.356 1_556 S
C1451 C1450 1.363 . S
C1451 C1457 1.363 . S
C1452 C1453 1.363 . S
C1452 C1457 1.379 . S
C1452 N1459 1.356 . S
C1453 C1452 1.363 . S
C1453 C1456 1.363 . S
N1454 C1456 1.356 1_554 S
N1454 H1466 0.984 . S
N1454 H1467 0.985 . S
N1455 C1457 1.356 . S
N1455 H1460 0.984 . S
N1455 H1461 0.985 . S
C1456 C1450 1.379 . S
C1456 C1453 1.363 . S
C1456 N1454 1.356 1_556 S
C1457 C1451 1.363 . S
C1457 C1452 1.379 . S
C1457 N1455 1.356 . S
N1458 C1450 1.356 1_554 S
N1458 H1464 0.984 . S
N1458 H1465 0.984 . S
N1459 C1452 1.356 . S
N1459 H1462 0.984 . S
N1459 H1463 0.985 . S
H1460 N1455 0.984 . S
H1461 N1455 0.985 . S
H1462 N1459 0.984 . S
H1463 N1459 0.985 . S
H1464 N1458 0.984 . S
H1465 N1458 0.984 . S
H1466 N1454 0.984 . S
H1467 N1454 0.985 . S
C1468 C1469 1.363 . S
C1468 C1474 1.379 . S
C1468 N1476 1.356 . S
C1469 C1468 1.363 . S
C1469 C1475 1.363 . S
C1470 C1471 1.363 . S
C1470 C1475 1.379 . S
C1470 N1477 1.356 . S
C1471 C1470 1.363 . S
C1471 C1474 1.363 . S
N1472 C1474 1.356 . S
N1472 H1484 0.984 . S
N1472 H1485 0.985 . S
N1473 C1475 1.356 . S
N1473 H1478 0.984 . S
N1473 H1479 0.985 . S
C1474 C1468 1.379 . S
C1474 C1471 1.363 . S
C1474 N1472 1.356 . S
C1475 C1469 1.363 . S
C1475 C1470 1.379 . S
C1475 N1473 1.356 . S
N1476 C1468 1.356 . S
N1476 H1482 0.984 . S
N1476 H1483 0.984 . S
N1477 C1470 1.356 . S
N1477 H1480 0.984 . S
N1477 H1481 0.985 . S
H1478 N1473 0.984 . S
H1479 N1473 0.985 . S
H1480 N1477 0.984 . S
H1481 N1477 0.985 . S
H1482 N1476 0.984 . S
H1483 N1476 0.984 . S
H1484 N1472 0.984 . S
H1485 N1472 0.985 . S
C1486 C1487 1.363 . S
C1486 C1492 1.379 . S
C1486 N1494 1.356 . S
C1487 C1486 1.363 . S
C1487 C1493 1.363 . S
C1488 C1489 1.363 . S
C1488 C1493 1.379 . S
C1488 N1495 1.356 1_554 S
C1489 C1488 1.363 . S
C1489 C1492 1.363 . S
N1490 C1492 1.356 . S
N1490 H1502 0.984 . S
N1490 H1503 0.985 . S
N1491 C1493 1.356 1_556 S
N1491 H1496 0.985 . S
N1491 H1497 0.985 . S
C1492 C1486 1.379 . S
C1492 C1489 1.363 . S
C1492 N1490 1.356 . S
C1493 C1487 1.363 . S
C1493 C1488 1.379 . S
C1493 N1491 1.356 1_554 S
N1494 C1486 1.356 . S
N1494 H1500 0.984 . S
N1494 H1501 0.984 . S
N1495 C1488 1.356 1_556 S
N1495 H1498 0.984 . S
N1495 H1499 0.985 . S
H1496 N1491 0.985 . S
H1497 N1491 0.985 . S
H1498 N1495 0.984 . S
H1499 N1495 0.985 . S
H1500 N1494 0.984 . S
H1501 N1494 0.984 . S
H1502 N1490 0.984 . S
H1503 N1490 0.985 . S
C641 C3 1.935 . S
C643 C66 1.787 . S
C659 C95 1.865 . S
C661 C62 1.815 . S
C677 C142 2.533 . S
C679 C83 2.611 . S
C695 C15 1.676 . S
C697 C146 1.503 . S
C713 C2 1.676 . S
C715 C369 1.503 . S
C731 C302 1.935 . S
C733 C49 1.787 . S
C749 C82 1.865 . S
C751 C403 1.816 . S
C767 C123 2.533 . S
C769 C542 2.611 . S
C785 C322 1.865 . S
C787 C43 1.816 . S
C803 C483 2.533 . S
C805 C102 2.611 . S
C821 C562 1.676 . S
C823 C129 1.503 . S
C839 C22 1.935 . S
C841 C449 1.788 . S
C857 C26 0.728 . S
C859 C346 0.728 . S
C875 C495 1.956 . S
C877 C162 2.018 . S
C893 C209 0.728 . S
C895 C569 0.728 . S
C911 C442 2.018 . S
C913 C255 1.955 . S
C929 C89 0.728 . S
C931 C289 0.728 . S
C947 C362 1.956 . S
C949 C175 2.018 . S
C965 C242 1.956 . S
C967 C415 2.018 . S
C983 C202 1.865 . S
C985 C443 1.816 . S
C1001 C363 2.533 . S
C1003 C222 2.611 . S
C1019 C466 1.787 . S
C1021 C283 1.935 . S
C1037 C215 1.865 . S
C1039 C182 1.816 . S
C1055 C382 2.533 . S
C1057 C323 2.611 . S
C1073 C535 1.865 . S
C1075 C462 1.816 . S
C1091 C262 2.533 . S
C1093 C203 2.611 . S
C1109 C386 1.503 . S
C1111 C575 1.676 . S
C1127 C529 0.728 . S
C1129 C9 0.728 . S
C1145 C106 0.728 . S
C1147 C586 0.728 . S
C1163 C482 1.956 . S
C1165 C55 2.018 . S
C1181 C306 0.728 . S
C1183 C226 0.728 . S
C1199 C135 1.956 . S
C1201 C402 2.018 . S
C1217 C502 2.533 . S
C1219 C523 2.611 . S
C1235 C295 1.676 . S
C1237 C506 1.503 . S
C1253 C249 1.503 . S
C1255 C282 1.676 . S
C1271 C163 1.816 . S
C1273 C522 1.865 . S
C1289 C489 1.503 . S
C1291 C602 1.676 . S
C1307 C609 0.728 . S
C1309 C329 0.728 . S
C1325 C42 2.018 . S
C1327 C375 1.956 . S
C1343 C342 2.611 . S
C1345 C243 2.533 . S
C1361 C335 1.865 . S
C1363 C422 1.816 . S
C1379 C615 1.676 . S
C1381 C266 1.503 . S
C1397 C546 0.728 . S
C1399 C626 0.728 . S
C1415 C455 2.018 . S
C1417 C122 1.956 . S
C1433 C426 1.787 . S
C1435 C563 1.935 . S
C1451 C409 1.787 . S
C1453 C622 1.935 . S
C1469 C169 1.787 . S
C1471 C582 1.935 . S
C1487 C603 1.935 . S
C1489 C186 1.787 . S
