# Generated by pormake.
# Topology srs, (3)-cn, num edge types: 1
# Building blocks:
#     Node 0, Type 0, BuildingBlock: WUSLED_clean_sbu_0, # of connection points: 3
#     Node 1, Type 0, BuildingBlock: WUSLED_clean_sbu_0, # of connection points: 3
#     Node 2, Type 0, BuildingBlock: WUSLED_clean_sbu_0, # of connection points: 3
#     Node 3, Type 0, BuildingBlock: WUSLED_clean_sbu_0, # of connection points: 3
#     Node 4, Type 0, BuildingBlock: WUSLED_clean_sbu_0, # of connection points: 3
#     Node 5, Type 0, BuildingBlock: WUSLED_clean_sbu_0, # of connection points: 3
#     Node 6, Type 0, BuildingBlock: WUSLED_clean_sbu_0, # of connection points: 3
#     Node 7, Type 0, BuildingBlock: WUSLED_clean_sbu_0, # of connection points: 3
#     Edge 8, Type (0, 0), BuildingBlock: KIFKEQ_clean_linker_1, # of connection points: 2
#     Edge 9, Type (0, 0), BuildingBlock: KIFKEQ_clean_linker_1, # of connection points: 2
#     Edge 10, Type (0, 0), BuildingBlock: KIFKEQ_clean_linker_1, # of connection points: 2
#     Edge 11, Type (0, 0), BuildingBlock: KIFKEQ_clean_linker_1, # of connection points: 2
#     Edge 12, Type (0, 0), BuildingBlock: KIFKEQ_clean_linker_1, # of connection points: 2
#     Edge 13, Type (0, 0), BuildingBlock: KIFKEQ_clean_linker_1, # of connection points: 2
#     Edge 14, Type (0, 0), BuildingBlock: KIFKEQ_clean_linker_1, # of connection points: 2
#     Edge 15, Type (0, 0), BuildingBlock: KIFKEQ_clean_linker_1, # of connection points: 2
#     Edge 16, Type (0, 0), BuildingBlock: KIFKEQ_clean_linker_1, # of connection points: 2
#     Edge 17, Type (0, 0), BuildingBlock: KIFKEQ_clean_linker_1, # of connection points: 2
#     Edge 18, Type (0, 0), BuildingBlock: KIFKEQ_clean_linker_1, # of connection points: 2
#     Edge 19, Type (0, 0), BuildingBlock: KIFKEQ_clean_linker_1, # of connection points: 2
# Relax obj value: 0.000
# Max RMSD: 0.008
# Mean RMSD: 0.008
data_MOF--net-srs--node1-WUSLED_clean_sbu_0--edge1-KIFKEQ_clean_linker_1
_symmetry_space_group_name_H-M    P1
_symmetry_Int_Tables_number       1
_symmetry_cell_setting            triclinic
loop_
_symmetry_equiv_pos_as_xyz
'x, y, z'
_cell_length_a     64.91083
_cell_length_b     64.939024
_cell_length_c     64.941211
_cell_angle_alpha  90.096475
_cell_angle_beta   90.025696
_cell_angle_gamma 89.966122
loop_
_atom_site_label
_atom_site_type_symbol
_atom_site_fract_x
_atom_site_fract_y
_atom_site_fract_z
_atom_type_partial_charge
C0 C 0.13011 0.12066 0.20012 0.0
C1 C 0.14461 0.1049 0.1971 0.0
C2 C 0.13239 0.08738 0.22802 0.0
C3 C 0.14577 0.08839 0.21096 0.0
C4 C 0.11809 0.10341 0.23101 0.0
C5 C 0.11697 0.11984 0.21719 0.0
U6 U 0.1476 0.15256 0.15331 0.0
O7 O 0.12879 0.1674 0.12939 0.0
O8 O 0.14812 0.18629 0.14971 0.0
C9 C 0.13382 0.18609 0.13538 0.0
C10 C 0.1282 0.138 0.18568 0.0
C11 C 0.11664 0.20067 0.1384 0.0
C12 C 0.08155 0.20847 0.14909 0.0
C13 C 0.09771 0.19434 0.14673 0.0
C14 C 0.10316 0.23545 0.13517 0.0
C15 C 0.08403 0.22921 0.14327 0.0
C16 C 0.11924 0.22131 0.13274 0.0
C17 C 0.19542 0.13725 0.12209 0.0
C18 C 0.20401 0.15032 0.08806 0.0
C19 C 0.22974 0.13213 0.10802 0.0
C20 C 0.2155 0.12954 0.12395 0.0
C21 C 0.22418 0.14247 0.08979 0.0
C22 C 0.18978 0.14778 0.10409 0.0
C23 C 0.18069 0.13407 0.13907 0.0
O24 O 0.14269 0.15208 0.18685 0.0
O25 O 0.12325 0.13318 0.16665 0.0
O26 O 0.16186 0.12889 0.13368 0.0
O27 O 0.18123 0.14787 0.15388 0.0
H28 H 0.1549 0.10529 0.18397 0.0
H29 H 0.15685 0.07624 0.20811 0.0
H30 H 0.10782 0.10335 0.24414 0.0
H31 H 0.10576 0.13194 0.21982 0.0
H32 H 0.06701 0.20304 0.15518 0.0
H33 H 0.09538 0.17848 0.15129 0.0
H34 H 0.10582 0.25133 0.1309 0.0
H35 H 0.13377 0.22653 0.12641 0.0
H36 H 0.19909 0.15817 0.07421 0.0
H37 H 0.2452 0.12623 0.11011 0.0
H38 H 0.22018 0.12149 0.13779 0.0
H39 H 0.17436 0.15393 0.10236 0.0
C40 C 0.12893 0.93563 0.35737 0.0
C41 C 0.14834 0.9434 0.35178 0.0
C42 C 0.13199 0.96954 0.33028 0.0
C43 C 0.14985 0.96016 0.33828 0.0
C44 C 0.11263 0.96174 0.3361 0.0
C45 C 0.11115 0.94496 0.34947 0.0
U46 U 0.14578 0.90166 0.40301 0.0
O47 O 0.12651 0.88672 0.42656 0.0
O48 O 0.14556 0.86793 0.40591 0.0
C49 C 0.1313 0.86808 0.42028 0.0
C50 C 0.1267 0.91772 0.37115 0.0
C51 C 0.11384 0.854 0.41694 0.0
C52 C 0.08628 0.84038 0.3955 0.0
C53 C 0.10248 0.85431 0.39855 0.0
C54 C 0.09243 0.82595 0.42932 0.0
C55 C 0.0811 0.82596 0.41084 0.0
C56 C 0.10864 0.83983 0.43231 0.0
C57 C 0.19404 0.9154 0.43464 0.0
C58 C 0.20196 0.907 0.47031 0.0
C59 C 0.22951 0.91557 0.44672 0.0
C60 C 0.21511 0.91824 0.43092 0.0
C61 C 0.22314 0.91009 0.4667 0.0
C62 C 0.18757 0.90957 0.45444 0.0
C63 C 0.1792 0.91908 0.41776 0.0
O64 O 0.14076 0.90322 0.36955 0.0
O65 O 0.12171 0.92194 0.39031 0.0
O66 O 0.16046 0.92458 0.42317 0.0
O67 O 0.17951 0.90564 0.4026 0.0
H68 H 0.16229 0.9365 0.3578 0.0
H69 H 0.16498 0.96592 0.33427 0.0
H70 H 0.09858 0.96838 0.33004 0.0
H71 H 0.09604 0.93917 0.35355 0.0
H72 H 0.07773 0.84097 0.38119 0.0
H73 H 0.10621 0.86524 0.38653 0.0
H74 H 0.08906 0.81492 0.44134 0.0
H75 H 0.11726 0.83935 0.4466 0.0
H76 H 0.19644 0.90298 0.48551 0.0
H77 H 0.24568 0.91769 0.44321 0.0
H78 H 0.22046 0.92264 0.41575 0.0
H79 H 0.17138 0.90722 0.45773 0.0
C80 C 0.38254 0.9493 0.6841 0.0
C81 C 0.39144 0.94286 0.70273 0.0
C82 C 0.38661 0.97718 0.71734 0.0
C83 C 0.39338 0.95666 0.71924 0.0
C84 C 0.37804 0.98359 0.69851 0.0
C85 C 0.376 0.96977 0.68209 0.0
U86 U 0.39791 0.90207 0.65182 0.0
O87 O 0.37833 0.87829 0.63765 0.0
O88 O 0.39762 0.89798 0.61817 0.0
C89 C 0.38322 0.88377 0.6188 0.0
C90 C 0.37956 0.93495 0.66673 0.0
C91 C 0.36583 0.88677 0.60457 0.0
C92 C 0.33483 0.90495 0.59397 0.0
C93 C 0.35116 0.90231 0.60785 0.0
C94 C 0.34773 0.87656 0.57344 0.0
C95 C 0.33291 0.8921 0.57656 0.0
C96 C 0.364 0.87394 0.58731 0.0
C97 C 0.44592 0.87057 0.66646 0.0
C98 C 0.45381 0.83534 0.65629 0.0
C99 C 0.48098 0.85759 0.66888 0.0
C100 C 0.46672 0.87355 0.67141 0.0
C101 C 0.47472 0.83821 0.66141 0.0
C102 C 0.43956 0.85138 0.65873 0.0
C103 C 0.43125 0.88766 0.66966 0.0
O104 O 0.39353 0.93574 0.65212 0.0
O105 O 0.37419 0.91604 0.67156 0.0
O106 O 0.41248 0.88254 0.67531 0.0
O107 O 0.43163 0.90229 0.65572 0.0
H108 H 0.39676 0.92716 0.70457 0.0
H109 H 0.40026 0.9513 0.73344 0.0
H110 H 0.37247 0.9992 0.6966 0.0
H111 H 0.36908 0.97503 0.66785 0.0
H112 H 0.32361 0.91692 0.59699 0.0
H113 H 0.35234 0.91236 0.62113 0.0
H114 H 0.34698 0.86661 0.56007 0.0
H115 H 0.37524 0.86192 0.58449 0.0
H116 H 0.44837 0.8206 0.65069 0.0
H117 H 0.49697 0.86055 0.6726 0.0
H118 H 0.47197 0.88828 0.67726 0.0
H119 H 0.42358 0.84874 0.65473 0.0
C120 C 0.38102 0.10526 0.87039 0.0
C121 C 0.38963 0.11194 0.85173 0.0
C122 C 0.38535 0.07761 0.837 0.0
C123 C 0.39169 0.09826 0.83515 0.0
C124 C 0.377 0.07097 0.85585 0.0
C125 C 0.37483 0.08468 0.87234 0.0
U126 U 0.39632 0.15262 0.90235 0.0
O127 O 0.37687 0.17588 0.91748 0.0
O128 O 0.39734 0.15646 0.93605 0.0
C129 C 0.38257 0.1703 0.93608 0.0
C130 C 0.37822 0.11941 0.88796 0.0
C131 C 0.36579 0.16683 0.95095 0.0
C132 C 0.33269 0.15194 0.96022 0.0
C133 C 0.34862 0.15468 0.94593 0.0
C134 C 0.35109 0.17319 0.98477 0.0
C135 C 0.33368 0.16123 0.97983 0.0
C136 C 0.36694 0.17597 0.97046 0.0
C137 C 0.44288 0.18514 0.88558 0.0
C138 C 0.45931 0.2114 0.9067 0.0
C139 C 0.46991 0.20664 0.87125 0.0
C140 C 0.4554 0.19089 0.86901 0.0
C141 C 0.47222 0.21697 0.89019 0.0
C142 C 0.44475 0.19562 0.90441 0.0
C143 C 0.42842 0.16785 0.883 0.0
O144 O 0.39274 0.11888 0.90205 0.0
O145 O 0.37217 0.1382 0.88346 0.0
O146 O 0.40934 0.17284 0.87843 0.0
O147 O 0.42972 0.15318 0.89685 0.0
H148 H 0.39469 0.12774 0.84995 0.0
H149 H 0.3984 0.1038 0.82093 0.0
H150 H 0.37175 0.05526 0.85773 0.0
H151 H 0.36816 0.07923 0.88662 0.0
H152 H 0.31946 0.1428 0.95578 0.0
H153 H 0.34748 0.14745 0.93092 0.0
H154 H 0.35261 0.18026 0.99981 0.0
H155 H 0.38013 0.1853 0.97466 0.0
H156 H 0.46078 0.21887 0.92155 0.0
H157 H 0.4793 0.21074 0.85811 0.0
H158 H 0.45409 0.18304 0.85432 0.0
H159 H 0.43518 0.19139 0.9174 0.0
C160 C 0.63198 0.43374 0.85429 0.0
C161 C 0.64036 0.45251 0.86107 0.0
C162 C 0.63621 0.46712 0.82672 0.0
C163 C 0.64237 0.46907 0.84743 0.0
C164 C 0.62812 0.44817 0.81998 0.0
C165 C 0.626 0.43169 0.83365 0.0
U166 U 0.64701 0.40157 0.90158 0.0
O167 O 0.62728 0.38666 0.9247 0.0
O168 O 0.64765 0.36789 0.90532 0.0
C169 C 0.6329 0.368 0.91918 0.0
C170 C 0.62908 0.41622 0.86842 0.0
C171 C 0.61606 0.35324 0.9157 0.0
C172 C 0.58525 0.34222 0.89743 0.0
C173 C 0.6011 0.35656 0.90045 0.0
C174 C 0.59921 0.32115 0.92486 0.0
C175 C 0.58415 0.32428 0.90956 0.0
C176 C 0.61498 0.33549 0.92787 0.0
C177 C 0.6935 0.41701 0.93453 0.0
C178 C 0.70807 0.39513 0.96119 0.0
C179 C 0.72101 0.42978 0.95648 0.0
C180 C 0.707 0.43279 0.9404 0.0
C181 C 0.72183 0.41087 0.96701 0.0
C182 C 0.69399 0.39819 0.94512 0.0
C183 C 0.67937 0.42031 0.91711 0.0
O184 O 0.64345 0.40198 0.86783 0.0
O185 O 0.62311 0.42079 0.88723 0.0
O186 O 0.66034 0.42523 0.92198 0.0
O187 O 0.68048 0.40661 0.90222 0.0
H188 H 0.64524 0.45438 0.87692 0.0
H189 H 0.64887 0.48338 0.85304 0.0
H190 H 0.62301 0.44621 0.80422 0.0
H191 H 0.61949 0.41734 0.82812 0.0
H192 H 0.57405 0.34501 0.88539 0.0
H193 H 0.60174 0.37018 0.89087 0.0
H194 H 0.59868 0.3077 0.93468 0.0
H195 H 0.62636 0.33272 0.93976 0.0
H196 H 0.70811 0.38047 0.96913 0.0
H197 H 0.73153 0.44213 0.96036 0.0
H198 H 0.70686 0.4474 0.93236 0.0
H199 H 0.6836 0.38585 0.94086 0.0
C200 C 0.87996 0.44907 0.1819 0.0
C201 C 0.89639 0.44772 0.19589 0.0
C202 C 0.88355 0.47791 0.21435 0.0
C203 C 0.89816 0.46202 0.212 0.0
C204 C 0.86711 0.47906 0.20024 0.0
C205 C 0.86537 0.46479 0.1842 0.0
U206 U 0.89681 0.40147 0.15085 0.0
O207 O 0.8776 0.37731 0.13675 0.0
O208 O 0.89712 0.3968 0.11731 0.0
C209 C 0.88271 0.3826 0.11791 0.0
C210 C 0.87766 0.43431 0.16485 0.0
C211 C 0.86546 0.38548 0.10347 0.0
C212 C 0.83767 0.40624 0.08933 0.0
C213 C 0.85372 0.40363 0.10352 0.0
C214 C 0.84478 0.37246 0.07512 0.0
C215 C 0.83306 0.39071 0.07485 0.0
C216 C 0.86082 0.3699 0.08928 0.0
C217 C 0.94457 0.37051 0.16656 0.0
C218 C 0.95456 0.33828 0.15023 0.0
C219 C 0.97727 0.3544 0.17507 0.0
C220 C 0.96309 0.37042 0.17764 0.0
C221 C 0.9732 0.33807 0.16137 0.0
C222 C 0.94038 0.35437 0.15279 0.0
C223 C 0.92995 0.3876 0.16951 0.0
O224 O 0.89197 0.43501 0.15056 0.0
O225 O 0.87266 0.41543 0.17013 0.0
O226 O 0.91114 0.38233 0.17483 0.0
O227 O 0.93043 0.40203 0.15536 0.0
H228 H 0.90782 0.43566 0.19432 0.0
H229 H 0.9111 0.46077 0.22246 0.0
H230 H 0.85538 0.49083 0.20176 0.0
H231 H 0.85254 0.46601 0.17359 0.0
H232 H 0.82914 0.42057 0.08944 0.0
H233 H 0.8571 0.41584 0.1144 0.0
H234 H 0.84147 0.36004 0.06447 0.0
H235 H 0.86965 0.35574 0.0891 0.0
H236 H 0.95079 0.32589 0.13971 0.0
H237 H 0.99158 0.35499 0.18363 0.0
H238 H 0.96663 0.38282 0.18826 0.0
H239 H 0.92615 0.35421 0.14406 0.0
C240 C 0.87904 0.60587 0.3675 0.0
C241 C 0.89807 0.60283 0.35767 0.0
C242 C 0.8821 0.57901 0.33334 0.0
C243 C 0.8996 0.58945 0.34078 0.0
C244 C 0.86307 0.58227 0.34321 0.0
C245 C 0.86159 0.59553 0.36012 0.0
U246 U 0.8963 0.65172 0.40074 0.0
O247 O 0.8775 0.67509 0.41657 0.0
O248 O 0.89759 0.65468 0.43449 0.0
C249 C 0.88323 0.66895 0.43498 0.0
C250 C 0.87699 0.61957 0.3855 0.0
C251 C 0.86649 0.66555 0.44986 0.0
C252 C 0.83572 0.64736 0.46104 0.0
C253 C 0.85147 0.65036 0.44659 0.0
C254 C 0.8499 0.67472 0.48212 0.0
C255 C 0.83479 0.65947 0.47905 0.0
C256 C 0.86557 0.6777 0.46767 0.0
C257 C 0.9433 0.68376 0.38483 0.0
C258 C 0.95842 0.71051 0.4063 0.0
C259 C 0.97115 0.70495 0.37167 0.0
C260 C 0.95684 0.68909 0.36893 0.0
C261 C 0.97224 0.7158 0.39043 0.0
C262 C 0.94407 0.69463 0.40351 0.0
C263 C 0.92865 0.66675 0.38165 0.0
O264 O 0.89161 0.61822 0.39946 0.0
O265 O 0.87157 0.63865 0.38149 0.0
O266 O 0.90965 0.6722 0.37728 0.0
O267 O 0.9297 0.65164 0.39506 0.0
H268 H 0.91173 0.61078 0.36306 0.0
H269 H 0.91443 0.58746 0.3334 0.0
H270 H 0.84935 0.5743 0.33805 0.0
H271 H 0.84678 0.59766 0.36752 0.0
H272 H 0.82449 0.63535 0.45828 0.0
H273 H 0.85198 0.64079 0.43291 0.0
H274 H 0.8495 0.68452 0.49562 0.0
H275 H 0.877 0.68955 0.47041 0.0
H276 H 0.95894 0.71837 0.421 0.0
H277 H 0.98126 0.70882 0.359 0.0
H278 H 0.95638 0.68094 0.35436 0.0
H279 H 0.93369 0.69071 0.41597 0.0
C280 C 0.63229 0.6199 0.69879 0.0
C281 C 0.64131 0.60132 0.69233 0.0
C282 C 0.63636 0.58666 0.72654 0.0
C283 C 0.64325 0.58481 0.70606 0.0
C284 C 0.62761 0.60543 0.73297 0.0
C285 C 0.62557 0.62185 0.71921 0.0
U286 U 0.6477 0.65159 0.65136 0.0
O287 O 0.6282 0.66641 0.62797 0.0
O288 O 0.64846 0.68525 0.64738 0.0
C289 C 0.63375 0.68509 0.63347 0.0
C290 C 0.62952 0.63734 0.68454 0.0
C291 C 0.61682 0.69979 0.63688 0.0
C292 C 0.58506 0.7099 0.65402 0.0
C293 C 0.60114 0.69577 0.6512 0.0
C294 C 0.60029 0.73226 0.62839 0.0
C295 C 0.5844 0.72833 0.6426 0.0
C296 C 0.6163 0.71812 0.62556 0.0
C297 C 0.69444 0.63502 0.619 0.0
C298 C 0.71062 0.6562 0.59272 0.0
C299 C 0.72153 0.62084 0.59741 0.0
C300 C 0.70709 0.61853 0.6132 0.0
C301 C 0.72365 0.63977 0.58708 0.0
C302 C 0.69613 0.65384 0.60854 0.0
C303 C 0.68001 0.63237 0.63628 0.0
O304 O 0.64397 0.65148 0.68509 0.0
O305 O 0.62361 0.63266 0.66574 0.0
O306 O 0.66097 0.62762 0.63129 0.0
O307 O 0.68115 0.64631 0.65094 0.0
H308 H 0.64676 0.59955 0.67666 0.0
H309 H 0.65027 0.57066 0.70069 0.0
H310 H 0.62194 0.60729 0.74854 0.0
H311 H 0.61857 0.63606 0.72448 0.0
H312 H 0.57301 0.70625 0.66494 0.0
H313 H 0.6013 0.68167 0.66009 0.0
H314 H 0.60053 0.74641 0.61959 0.0
H315 H 0.62833 0.72151 0.61451 0.0
H316 H 0.71194 0.67104 0.58525 0.0
H317 H 0.73102 0.60776 0.59326 0.0
H318 H 0.70592 0.60385 0.62104 0.0
H319 H 0.68646 0.66677 0.61279 0.0
H320 H 0.10865 1.0046 0.33013 0.0
H321 H 0.15843 0.97466 0.29769 0.0
H322 H 0.10949 0.03283 0.30553 0.0
H323 H 0.1592 1.00292 0.27289 0.0
H324 H 0.16639 0.06752 0.24368 0.0
H325 H 0.16719 0.03932 0.26857 0.0
H326 H 0.10066 0.03895 0.27005 0.0
H327 H 0.09988 0.06702 0.24533 0.0
C328 C 0.11972 1.00399 0.31767 0.0
C329 C 0.13336 0.98727 0.31581 0.0
C330 C 0.12018 1.02018 0.30352 0.0
C331 C 0.13428 1.02009 0.28707 0.0
C332 C 0.14827 1.0036 0.28546 0.0
C333 C 0.14783 0.98739 0.29968 0.0
C334 C 0.15194 0.06128 0.24919 0.0
C335 C 0.13307 0.06968 0.24261 0.0
C336 C 0.1524 0.04511 0.26347 0.0
C337 C 0.13399 0.03696 0.27149 0.0
C338 C 0.11515 0.04513 0.26459 0.0
C339 C 0.1147 0.06125 0.25037 0.0
H340 H 0.25751 0.93356 0.47408 0.0
H341 H 0.22371 0.88145 0.49784 0.0
H342 H 0.28328 0.92916 0.50091 0.0
H343 H 0.24896 0.87773 0.52537 0.0
H344 H 0.31046 0.86233 0.55664 0.0
H345 H 0.28381 0.86692 0.53067 0.0
H346 H 0.28902 0.93294 0.5371 0.0
H347 H 0.31641 0.92834 0.56236 0.0
C348 C 0.25554 0.92115 0.48502 0.0
C349 C 0.23853 0.90778 0.48364 0.0
C350 C 0.2702 0.91881 0.50064 0.0
C351 C 0.26825 0.9031 0.51539 0.0
C352 C 0.25113 0.88986 0.51416 0.0
C353 C 0.23648 0.89216 0.49849 0.0
C354 C 0.30605 0.87784 0.55241 0.0
C355 C 0.31574 0.89496 0.56154 0.0
C356 C 0.29054 0.88048 0.53768 0.0
C357 C 0.28423 0.90031 0.53169 0.0
C358 C 0.29366 0.91744 0.54109 0.0
C359 C 0.30921 0.9148 0.5558 0.0
H360 H 0.37745 0.9698 0.75781 0.0
H361 H 0.39878 1.01757 0.71689 0.0
H362 H 0.37814 0.99403 0.78649 0.0
H363 H 0.39981 0.04179 0.74561 0.0
H364 H 0.37598 0.08479 0.79653 0.0
H365 H 0.37729 0.0606 0.76783 0.0
H366 H 0.40017 1.01337 0.80871 0.0
H367 H 0.39852 0.03753 0.83744 0.0
C368 C 0.38258 0.98541 0.755 0.0
C369 C 0.38801 0.99175 0.73503 0.0
C370 C 0.38301 0.99934 0.77146 0.0
C371 C 0.38899 1.01995 0.76843 0.0
C372 C 0.39475 1.02617 0.7485 0.0
C373 C 0.39421 1.01227 0.73201 0.0
C374 C 0.3815 0.0693 0.79934 0.0
C375 C 0.38708 0.06309 0.8193 0.0
C376 C 0.38229 0.05541 0.78286 0.0
C377 C 0.3888 0.03495 0.78589 0.0
C378 C 0.39471 0.02886 0.80582 0.0
C379 C 0.39381 0.04273 0.82232 0.0
H380 H 0.22991 0.17604 0.06471 0.0
H381 H 0.25304 0.11471 0.07616 0.0
H382 H 0.25507 0.18029 0.03722 0.0
H383 H 0.27888 0.11938 0.04945 0.0
H384 H 0.31103 0.1264 0.98781 0.0
H385 H 0.28366 0.12195 1.01309 0.0
H386 H 0.29121 0.18518 0.03247 0.0
H387 H 0.31778 0.18992 1.00651 0.0
C388 C 0.2403 0.16342 0.06135 0.0
C389 C 0.23941 0.14504 0.07276 0.0
C390 C 0.25494 0.16596 0.04573 0.0
C391 C 0.26913 0.15022 0.04111 0.0
C392 C 0.26809 0.13177 0.05238 0.0
C393 C 0.25342 0.1292 0.06794 0.0
C394 C 0.30666 0.13945 0.99725 0.0
C395 C 0.31671 0.15851 0.9951 0.0
C396 C 0.29111 0.13682 1.01196 0.0
C397 C 0.28522 0.15317 1.02495 0.0
C398 C 0.29513 0.17229 1.02263 0.0
C399 C 0.31062 0.17493 1.0079 0.0
H400 H 0.98421 0.31823 0.12563 0.0
H401 H 0.99683 0.31931 0.19094 0.0
H402 H 1.00964 0.29098 0.12116 0.0
H403 H 1.02298 0.29285 0.18633 0.0
H404 H 0.05589 0.23226 0.17475 0.0
H405 H 0.02813 0.25722 0.17868 0.0
H406 H 0.04611 0.28611 0.12157 0.0
H407 H 0.07312 0.26052 0.11709 0.0
C408 C 0.99233 0.31262 0.13906 0.0
C409 C 0.98845 0.32107 0.15864 0.0
C410 C 1.00714 0.29715 0.13646 0.0
C411 C 1.01851 0.28973 0.15336 0.0
C412 C 1.01442 0.29799 0.17297 0.0
C413 C 0.99959 0.31341 0.17558 0.0
C414 C 0.05374 0.24373 0.16287 0.0
C415 C 0.06685 0.24434 0.14562 0.0
C416 C 0.03796 0.25825 0.16526 0.0
C417 C 0.03487 0.2738 0.1505 0.0
C418 C 0.04784 0.27426 0.13316 0.0
C419 C 0.06356 0.25972 0.13073 0.0
H420 H 0.51163 0.21669 0.8752 0.0
H421 H 0.46954 0.25375 0.91106 0.0
H422 H 0.53811 0.24292 0.87912 0.0
H423 H 0.49638 0.2797 0.91568 0.0
H424 H 0.54309 0.33113 0.90191 0.0
H425 H 0.51595 0.30558 0.89676 0.0
H426 H 0.56039 0.25681 0.90543 0.0
H427 H 0.58756 0.28227 0.90981 0.0
C428 C 0.50798 0.23047 0.88387 0.0
C429 C 0.48839 0.23309 0.89276 0.0
C430 C 0.52327 0.24542 0.88633 0.0
C431 C 0.51944 0.26342 0.89778 0.0
C432 C 0.49982 0.26612 0.9066 0.0
C433 C 0.4845 0.25112 0.90416 0.0
C434 C 0.5471 0.31495 0.90249 0.0
C435 C 0.56753 0.30878 0.90628 0.0
C436 C 0.53149 0.3003 0.89978 0.0
C437 C 0.53595 0.27911 0.90069 0.0
C438 C 0.55641 0.27297 0.9044 0.0
C439 C 0.57197 0.2876 0.90715 0.0
H440 H 0.05169 0.81322 0.43831 0.0
H441 H 0.07248 0.80402 0.3758 0.0
H442 H 0.02531 0.78692 0.43336 0.0
H443 H 0.04568 0.77821 0.37064 0.0
H444 H 1.01242 0.71622 0.3775 0.0
H445 H 0.03794 0.74331 0.38204 0.0
H446 H 0.99321 0.78008 0.41485 0.0
H447 H 0.96756 0.75298 0.41019 0.0
C448 C 0.0506 0.80563 0.42349 0.0
C449 C 0.06428 0.81069 0.40748 0.0
C450 C 0.03533 0.79069 0.42059 0.0
C451 C 0.03339 0.78039 0.40162 0.0
C452 C 0.04689 0.78566 0.38553 0.0
C453 C 0.06211 0.80064 0.38841 0.0
C454 C 1.00791 0.73016 0.38548 0.0
C455 C 0.98786 0.73239 0.39341 0.0
C456 C 1.02258 0.74572 0.38809 0.0
C457 C 1.01763 0.76393 0.39875 0.0
C458 C 0.99762 0.76615 0.40678 0.0
C459 C 0.98292 0.75059 0.40413 0.0
H460 H 0.56551 0.73994 0.67865 0.0
H461 H 0.56453 0.7511 0.6131 0.0
H462 H 0.53808 0.76515 0.68335 0.0
H463 H 0.53787 0.77702 0.61791 0.0
H464 H 0.47714 0.80934 0.63049 0.0
H465 H 0.50236 0.78182 0.62645 0.0
H466 H 0.53275 0.80155 0.68229 0.0
H467 H 0.50695 0.82833 0.68691 0.0
C468 C 0.55941 0.74769 0.66522 0.0
C469 C 0.56733 0.74348 0.6455 0.0
C470 C 0.54383 0.76237 0.66795 0.0
C471 C 0.53577 0.77325 0.65103 0.0
C472 C 0.54352 0.76883 0.63128 0.0
C473 C 0.55905 0.75413 0.62855 0.0
C474 C 0.48901 0.80763 0.64208 0.0
C475 C 0.48998 0.82116 0.659 0.0
C476 C 0.50366 0.79198 0.63962 0.0
C477 C 0.51971 0.78946 0.65399 0.0
C478 C 0.52053 0.80284 0.67102 0.0
C479 C 0.50585 0.81843 0.67352 0.0
H480 H 0.62768 0.54607 0.71905 0.0
H481 H 0.64836 0.58731 0.76699 0.0
H482 H 0.62864 0.51743 0.74323 0.0
H483 H 0.64965 0.55863 0.79115 0.0
H484 H 0.6263 0.50748 0.83394 0.0
H485 H 0.62732 0.53616 0.80981 0.0
H486 H 0.65094 0.49553 0.76262 0.0
H487 H 0.64959 0.4668 0.78671 0.0
C488 C 0.63272 0.54897 0.73469 0.0
C489 C 0.63788 0.569 0.74109 0.0
C490 C 0.6333 0.53252 0.74858 0.0
C491 C 0.63919 0.53566 0.76922 0.0
C492 C 0.64468 0.55567 0.77551 0.0
C493 C 0.64399 0.57213 0.76164 0.0
C494 C 0.63192 0.50472 0.81848 0.0
C495 C 0.63779 0.48482 0.81225 0.0
C496 C 0.63254 0.52119 0.80462 0.0
C497 C 0.63917 0.51822 0.78418 0.0
C498 C 0.64539 0.49836 0.77809 0.0
C499 C 0.64465 0.48187 0.79192 0.0
H500 H 0.83311 0.37945 0.03416 0.0
H501 H 0.79504 0.40854 0.08038 0.0
H502 H 0.8058 0.38389 1.00885 0.0
H503 H 0.76772 0.41311 0.05494 0.0
H504 H 0.73352 0.43763 0.99757 0.0
H505 H 0.76009 0.43271 1.0237 0.0
H506 H 0.77137 0.37133 1.00058 0.0
H507 H 0.74527 0.37649 0.97405 0.0
C508 C 0.81884 0.38661 0.039 0.0
C509 C 0.8163 0.39357 0.05938 0.0
C510 C 0.80316 0.38917 1.02446 0.0
C511 C 0.78452 0.39881 0.02985 0.0
C512 C 0.78198 0.40585 0.05019 0.0
C513 C 0.79766 0.40325 0.06478 0.0
C514 C 0.74174 0.42312 0.998 0.0
C515 C 0.7373 0.40749 0.98364 0.0
C516 C 0.75683 0.42022 1.01313 0.0
C517 C 0.76792 0.40164 1.01423 0.0
C518 C 0.7633 0.38592 1.00003 0.0
C519 C 0.74816 0.38879 0.98496 0.0
H520 H 0.87614 0.51942 0.21293 0.0
H521 H 0.89469 0.47104 0.25459 0.0
H522 H 0.87687 0.5441 0.24121 0.0
H523 H 0.89554 0.49582 0.2829 0.0
H524 H 0.91201 0.55025 0.32517 0.0
H525 H 0.9138 0.52634 0.29609 0.0
H526 H 0.85691 0.55127 0.27222 0.0
H527 H 0.85543 0.57546 0.3009 0.0
C528 C 0.8803 0.51401 0.22814 0.0
C529 C 0.88519 0.49317 0.23147 0.0
C530 C 0.88073 0.52819 0.24436 0.0
C531 C 0.88613 0.52193 0.26437 0.0
C532 C 0.89153 0.50121 0.26764 0.0
C533 C 0.89105 0.487 0.25139 0.0
C534 C 0.90002 0.55077 0.31358 0.0
C535 C 0.88356 0.56475 0.31539 0.0
C536 C 0.90093 0.53693 0.29703 0.0
C537 C 0.88549 0.53686 0.28182 0.0
C538 C 0.86918 0.55103 0.28353 0.0
C539 C 0.86821 0.56476 0.30011 0.0
H540 H 0.79369 0.65179 0.47249 0.0
H541 H 0.8385 0.65973 0.52104 0.0
H542 H 0.76677 0.64657 0.49823 0.0
H543 H 0.81154 0.65531 0.54669 0.0
H544 H 0.76317 0.62498 0.58709 0.0
H545 H 0.78946 0.62901 0.56071 0.0
H546 H 0.74729 0.66534 0.52428 0.0
H547 H 0.72063 0.66059 0.55037 0.0
C548 C 0.79782 0.65237 0.48864 0.0
C549 C 0.81829 0.65619 0.49467 0.0
C550 C 0.78233 0.64962 0.5034 0.0
C551 C 0.78695 0.65053 0.52456 0.0
C552 C 0.80744 0.65428 0.53055 0.0
C553 C 0.82288 0.65706 0.51582 0.0
C554 C 0.75938 0.63362 0.57335 0.0
C555 C 0.73972 0.64241 0.57087 0.0
C556 C 0.77457 0.63615 0.55831 0.0
C557 C 0.77055 0.64757 0.54037 0.0
C558 C 0.75087 0.65629 0.53781 0.0
C559 C 0.73565 0.65377 0.55289 0.0
loop_
_geom_bond_atom_site_label_1
_geom_bond_atom_site_label_2
_geom_bond_distance
_geom_bond_site_symmetry_2
_ccdc_geom_bond_type
C0 C1 1.264 . S
C0 C5 1.479 . S
C0 C10 1.465 . S
C1 C0 1.264 . S
C1 C3 1.339 . S
C1 H28 0.931 . S
C2 C3 1.395 . S
C2 C4 1.320 . S
C3 C1 1.339 . S
C3 C2 1.395 . S
C3 H29 0.929 . S
C4 C2 1.320 . S
C4 C5 1.405 . S
C4 H30 0.930 . S
C5 C0 1.479 . S
C5 C4 1.405 . S
C5 H31 0.931 . S
U6 O7 2.454 . S
U6 O8 2.458 . S
U6 C9 2.984 . S
U6 C10 2.847 . S
U6 C23 2.882 . S
U6 O24 2.441 . S
U6 O25 2.420 . S
U6 O26 2.455 . S
U6 O27 2.449 . S
O7 U6 2.454 . S
O7 C9 1.353 . S
O8 U6 2.458 . S
O8 C9 1.286 . S
C9 U6 2.984 . S
C9 O7 1.353 . S
C9 O8 1.286 . S
C9 C11 1.363 . S
C10 C0 1.465 . S
C10 U6 2.847 . S
C10 O24 1.249 . S
C10 O25 1.202 . S
C11 C9 1.363 . S
C11 C13 1.408 . S
C11 C16 1.342 . S
C12 C13 1.310 . S
C12 C15 1.461 . S
C12 H32 0.932 . S
C13 C11 1.408 . S
C13 C12 1.310 . S
C13 H33 0.930 . S
C14 C15 1.474 . S
C14 C16 1.285 . S
C14 H34 0.929 . S
C15 C12 1.461 . S
C15 C14 1.474 . S
C16 C11 1.342 . S
C16 C14 1.285 . S
C16 H35 0.930 . S
C17 C20 1.424 . S
C17 C22 1.245 . S
C17 C23 1.428 . S
C18 C21 1.260 . S
C18 C22 1.477 . S
C18 H36 0.932 . S
C19 C20 1.384 . S
C19 C21 1.479 . S
C19 H37 0.929 . S
C20 C17 1.424 . S
C20 C19 1.384 . S
C20 H38 0.928 . S
C21 C18 1.260 . S
C21 C19 1.479 . S
C22 C17 1.245 . S
C22 C18 1.477 . S
C22 H39 0.932 . S
C23 U6 2.882 . S
C23 C17 1.428 . S
C23 O26 1.301 . S
C23 O27 1.282 . S
O24 U6 2.441 . S
O24 C10 1.249 . S
O25 U6 2.420 . S
O25 C10 1.202 . S
O26 U6 2.455 . S
O26 C23 1.301 . S
O27 U6 2.449 . S
O27 C23 1.282 . S
H28 C1 0.931 . S
H29 C3 0.929 . S
H30 C4 0.930 . S
H31 C5 0.931 . S
H32 C12 0.932 . S
H33 C13 0.930 . S
H34 C14 0.929 . S
H35 C16 0.930 . S
H36 C18 0.932 . S
H37 C19 0.929 . S
H38 C20 0.928 . S
H39 C22 0.932 . S
C40 C41 1.264 . S
C40 C45 1.479 . S
C40 C50 1.465 . S
C41 C40 1.264 . S
C41 C43 1.339 . S
C41 H68 0.931 . S
C42 C43 1.395 . S
C42 C44 1.320 . S
C43 C41 1.339 . S
C43 C42 1.395 . S
C43 H69 0.929 . S
C44 C42 1.320 . S
C44 C45 1.405 . S
C44 H70 0.930 . S
C45 C40 1.479 . S
C45 C44 1.405 . S
C45 H71 0.931 . S
U46 O47 2.454 . S
U46 O48 2.458 . S
U46 C49 2.984 . S
U46 C50 2.847 . S
U46 C63 2.882 . S
U46 O64 2.441 . S
U46 O65 2.420 . S
U46 O66 2.455 . S
U46 O67 2.449 . S
O47 U46 2.454 . S
O47 C49 1.353 . S
O48 U46 2.458 . S
O48 C49 1.286 . S
C49 U46 2.984 . S
C49 O47 1.353 . S
C49 O48 1.286 . S
C49 C51 1.363 . S
C50 C40 1.465 . S
C50 U46 2.847 . S
C50 O64 1.249 . S
C50 O65 1.202 . S
C51 C49 1.363 . S
C51 C53 1.408 . S
C51 C56 1.342 . S
C52 C53 1.310 . S
C52 C55 1.461 . S
C52 H72 0.932 . S
C53 C51 1.408 . S
C53 C52 1.310 . S
C53 H73 0.930 . S
C54 C55 1.474 . S
C54 C56 1.285 . S
C54 H74 0.929 . S
C55 C52 1.461 . S
C55 C54 1.474 . S
C56 C51 1.342 . S
C56 C54 1.285 . S
C56 H75 0.930 . S
C57 C60 1.424 . S
C57 C62 1.245 . S
C57 C63 1.428 . S
C58 C61 1.260 . S
C58 C62 1.477 . S
C58 H76 0.932 . S
C59 C60 1.384 . S
C59 C61 1.479 . S
C59 H77 0.929 . S
C60 C57 1.424 . S
C60 C59 1.384 . S
C60 H78 0.928 . S
C61 C58 1.260 . S
C61 C59 1.479 . S
C62 C57 1.245 . S
C62 C58 1.477 . S
C62 H79 0.932 . S
C63 U46 2.882 . S
C63 C57 1.428 . S
C63 O66 1.301 . S
C63 O67 1.282 . S
O64 U46 2.441 . S
O64 C50 1.249 . S
O65 U46 2.420 . S
O65 C50 1.202 . S
O66 U46 2.455 . S
O66 C63 1.301 . S
O67 U46 2.449 . S
O67 C63 1.282 . S
H68 C41 0.931 . S
H69 C43 0.929 . S
H70 C44 0.930 . S
H71 C45 0.931 . S
H72 C52 0.932 . S
H73 C53 0.930 . S
H74 C54 0.929 . S
H75 C56 0.930 . S
H76 C58 0.932 . S
H77 C59 0.929 . S
H78 C60 0.928 . S
H79 C62 0.932 . S
C80 C81 1.264 . S
C80 C85 1.479 . S
C80 C90 1.465 . S
C81 C80 1.264 . S
C81 C83 1.339 . S
C81 H108 0.931 . S
C82 C83 1.395 . S
C82 C84 1.320 . S
C83 C81 1.339 . S
C83 C82 1.395 . S
C83 H109 0.929 . S
C84 C82 1.320 . S
C84 C85 1.405 . S
C84 H110 0.930 . S
C85 C80 1.479 . S
C85 C84 1.405 . S
C85 H111 0.931 . S
U86 O87 2.454 . S
U86 O88 2.458 . S
U86 C89 2.984 . S
U86 C90 2.847 . S
U86 C103 2.882 . S
U86 O104 2.441 . S
U86 O105 2.420 . S
U86 O106 2.455 . S
U86 O107 2.449 . S
O87 U86 2.454 . S
O87 C89 1.353 . S
O88 U86 2.458 . S
O88 C89 1.286 . S
C89 U86 2.984 . S
C89 O87 1.353 . S
C89 O88 1.286 . S
C89 C91 1.363 . S
C90 C80 1.465 . S
C90 U86 2.847 . S
C90 O104 1.249 . S
C90 O105 1.202 . S
C91 C89 1.363 . S
C91 C93 1.408 . S
C91 C96 1.342 . S
C92 C93 1.310 . S
C92 C95 1.461 . S
C92 H112 0.932 . S
C93 C91 1.408 . S
C93 C92 1.310 . S
C93 H113 0.930 . S
C94 C95 1.474 . S
C94 C96 1.285 . S
C94 H114 0.929 . S
C95 C92 1.461 . S
C95 C94 1.474 . S
C96 C91 1.342 . S
C96 C94 1.285 . S
C96 H115 0.930 . S
C97 C100 1.424 . S
C97 C102 1.245 . S
C97 C103 1.428 . S
C98 C101 1.260 . S
C98 C102 1.477 . S
C98 H116 0.932 . S
C99 C100 1.384 . S
C99 C101 1.479 . S
C99 H117 0.929 . S
C100 C97 1.424 . S
C100 C99 1.384 . S
C100 H118 0.928 . S
C101 C98 1.260 . S
C101 C99 1.479 . S
C102 C97 1.245 . S
C102 C98 1.477 . S
C102 H119 0.932 . S
C103 U86 2.882 . S
C103 C97 1.428 . S
C103 O106 1.301 . S
C103 O107 1.282 . S
O104 U86 2.441 . S
O104 C90 1.249 . S
O105 U86 2.420 . S
O105 C90 1.202 . S
O106 U86 2.455 . S
O106 C103 1.301 . S
O107 U86 2.449 . S
O107 C103 1.282 . S
H108 C81 0.931 . S
H109 C83 0.929 . S
H110 C84 0.930 . S
H111 C85 0.931 . S
H112 C92 0.932 . S
H113 C93 0.930 . S
H114 C94 0.929 . S
H115 C96 0.930 . S
H116 C98 0.932 . S
H117 C99 0.929 . S
H118 C100 0.928 . S
H119 C102 0.932 . S
C120 C121 1.264 . S
C120 C125 1.479 . S
C120 C130 1.465 . S
C121 C120 1.264 . S
C121 C123 1.339 . S
C121 H148 0.931 . S
C122 C123 1.395 . S
C122 C124 1.320 . S
C123 C121 1.339 . S
C123 C122 1.395 . S
C123 H149 0.929 . S
C124 C122 1.320 . S
C124 C125 1.405 . S
C124 H150 0.930 . S
C125 C120 1.479 . S
C125 C124 1.405 . S
C125 H151 0.931 . S
U126 O127 2.454 . S
U126 O128 2.458 . S
U126 C129 2.984 . S
U126 C130 2.847 . S
U126 C143 2.882 . S
U126 O144 2.441 . S
U126 O145 2.420 . S
U126 O146 2.455 . S
U126 O147 2.449 . S
O127 U126 2.454 . S
O127 C129 1.353 . S
O128 U126 2.458 . S
O128 C129 1.286 . S
C129 U126 2.984 . S
C129 O127 1.353 . S
C129 O128 1.286 . S
C129 C131 1.363 . S
C130 C120 1.465 . S
C130 U126 2.847 . S
C130 O144 1.249 . S
C130 O145 1.202 . S
C131 C129 1.363 . S
C131 C133 1.408 . S
C131 C136 1.342 . S
C132 C133 1.310 . S
C132 C135 1.461 . S
C132 H152 0.932 . S
C133 C131 1.408 . S
C133 C132 1.310 . S
C133 H153 0.930 . S
C134 C135 1.474 . S
C134 C136 1.285 . S
C134 H154 0.929 . S
C135 C132 1.461 . S
C135 C134 1.474 . S
C136 C131 1.342 . S
C136 C134 1.285 . S
C136 H155 0.930 . S
C137 C140 1.424 . S
C137 C142 1.245 . S
C137 C143 1.428 . S
C138 C141 1.260 . S
C138 C142 1.477 . S
C138 H156 0.932 . S
C139 C140 1.384 . S
C139 C141 1.479 . S
C139 H157 0.929 . S
C140 C137 1.424 . S
C140 C139 1.384 . S
C140 H158 0.928 . S
C141 C138 1.260 . S
C141 C139 1.479 . S
C142 C137 1.245 . S
C142 C138 1.477 . S
C142 H159 0.932 . S
C143 U126 2.882 . S
C143 C137 1.428 . S
C143 O146 1.301 . S
C143 O147 1.282 . S
O144 U126 2.441 . S
O144 C130 1.249 . S
O145 U126 2.420 . S
O145 C130 1.202 . S
O146 U126 2.455 . S
O146 C143 1.301 . S
O147 U126 2.449 . S
O147 C143 1.282 . S
H148 C121 0.931 . S
H149 C123 0.929 . S
H150 C124 0.930 . S
H151 C125 0.931 . S
H152 C132 0.932 . S
H153 C133 0.930 . S
H154 C134 0.929 . S
H155 C136 0.930 . S
H156 C138 0.932 . S
H157 C139 0.929 . S
H158 C140 0.928 . S
H159 C142 0.932 . S
C160 C161 1.264 . S
C160 C165 1.479 . S
C160 C170 1.465 . S
C161 C160 1.264 . S
C161 C163 1.339 . S
C161 H188 0.931 . S
C162 C163 1.395 . S
C162 C164 1.320 . S
C163 C161 1.339 . S
C163 C162 1.395 . S
C163 H189 0.929 . S
C164 C162 1.320 . S
C164 C165 1.405 . S
C164 H190 0.930 . S
C165 C160 1.479 . S
C165 C164 1.405 . S
C165 H191 0.931 . S
U166 O167 2.454 . S
U166 O168 2.458 . S
U166 C169 2.984 . S
U166 C170 2.847 . S
U166 C183 2.882 . S
U166 O184 2.441 . S
U166 O185 2.420 . S
U166 O186 2.455 . S
U166 O187 2.449 . S
O167 U166 2.454 . S
O167 C169 1.353 . S
O168 U166 2.458 . S
O168 C169 1.286 . S
C169 U166 2.984 . S
C169 O167 1.353 . S
C169 O168 1.286 . S
C169 C171 1.363 . S
C170 C160 1.465 . S
C170 U166 2.847 . S
C170 O184 1.249 . S
C170 O185 1.202 . S
C171 C169 1.363 . S
C171 C173 1.408 . S
C171 C176 1.342 . S
C172 C173 1.310 . S
C172 C175 1.461 . S
C172 H192 0.932 . S
C173 C171 1.408 . S
C173 C172 1.310 . S
C173 H193 0.930 . S
C174 C175 1.474 . S
C174 C176 1.285 . S
C174 H194 0.929 . S
C175 C172 1.461 . S
C175 C174 1.474 . S
C176 C171 1.342 . S
C176 C174 1.285 . S
C176 H195 0.930 . S
C177 C180 1.424 . S
C177 C182 1.245 . S
C177 C183 1.428 . S
C178 C181 1.260 . S
C178 C182 1.477 . S
C178 H196 0.932 . S
C179 C180 1.384 . S
C179 C181 1.479 . S
C179 H197 0.929 . S
C180 C177 1.424 . S
C180 C179 1.384 . S
C180 H198 0.928 . S
C181 C178 1.260 . S
C181 C179 1.479 . S
C182 C177 1.245 . S
C182 C178 1.477 . S
C182 H199 0.932 . S
C183 U166 2.882 . S
C183 C177 1.428 . S
C183 O186 1.301 . S
C183 O187 1.282 . S
O184 U166 2.441 . S
O184 C170 1.249 . S
O185 U166 2.420 . S
O185 C170 1.202 . S
O186 U166 2.455 . S
O186 C183 1.301 . S
O187 U166 2.449 . S
O187 C183 1.282 . S
H188 C161 0.931 . S
H189 C163 0.929 . S
H190 C164 0.930 . S
H191 C165 0.931 . S
H192 C172 0.932 . S
H193 C173 0.930 . S
H194 C174 0.929 . S
H195 C176 0.930 . S
H196 C178 0.932 . S
H197 C179 0.929 . S
H198 C180 0.928 . S
H199 C182 0.932 . S
C200 C201 1.264 . S
C200 C205 1.479 . S
C200 C210 1.465 . S
C201 C200 1.264 . S
C201 C203 1.339 . S
C201 H228 0.931 . S
C202 C203 1.395 . S
C202 C204 1.320 . S
C203 C201 1.339 . S
C203 C202 1.395 . S
C203 H229 0.929 . S
C204 C202 1.320 . S
C204 C205 1.405 . S
C204 H230 0.930 . S
C205 C200 1.479 . S
C205 C204 1.405 . S
C205 H231 0.931 . S
U206 O207 2.454 . S
U206 O208 2.458 . S
U206 C209 2.984 . S
U206 C210 2.847 . S
U206 C223 2.882 . S
U206 O224 2.441 . S
U206 O225 2.420 . S
U206 O226 2.455 . S
U206 O227 2.449 . S
O207 U206 2.454 . S
O207 C209 1.353 . S
O208 U206 2.458 . S
O208 C209 1.286 . S
C209 U206 2.984 . S
C209 O207 1.353 . S
C209 O208 1.286 . S
C209 C211 1.363 . S
C210 C200 1.465 . S
C210 U206 2.847 . S
C210 O224 1.249 . S
C210 O225 1.202 . S
C211 C209 1.363 . S
C211 C213 1.408 . S
C211 C216 1.342 . S
C212 C213 1.310 . S
C212 C215 1.461 . S
C212 H232 0.932 . S
C213 C211 1.408 . S
C213 C212 1.310 . S
C213 H233 0.930 . S
C214 C215 1.474 . S
C214 C216 1.285 . S
C214 H234 0.929 . S
C215 C212 1.461 . S
C215 C214 1.474 . S
C216 C211 1.342 . S
C216 C214 1.285 . S
C216 H235 0.930 . S
C217 C220 1.424 . S
C217 C222 1.245 . S
C217 C223 1.428 . S
C218 C221 1.260 . S
C218 C222 1.477 . S
C218 H236 0.932 . S
C219 C220 1.384 . S
C219 C221 1.479 . S
C219 H237 0.929 . S
C220 C217 1.424 . S
C220 C219 1.384 . S
C220 H238 0.928 . S
C221 C218 1.260 . S
C221 C219 1.479 . S
C222 C217 1.245 . S
C222 C218 1.477 . S
C222 H239 0.932 . S
C223 U206 2.882 . S
C223 C217 1.428 . S
C223 O226 1.301 . S
C223 O227 1.282 . S
O224 U206 2.441 . S
O224 C210 1.249 . S
O225 U206 2.420 . S
O225 C210 1.202 . S
O226 U206 2.455 . S
O226 C223 1.301 . S
O227 U206 2.449 . S
O227 C223 1.282 . S
H228 C201 0.931 . S
H229 C203 0.929 . S
H230 C204 0.930 . S
H231 C205 0.931 . S
H232 C212 0.932 . S
H233 C213 0.930 . S
H234 C214 0.929 . S
H235 C216 0.930 . S
H236 C218 0.932 . S
H237 C219 0.929 . S
H238 C220 0.928 . S
H239 C222 0.932 . S
C240 C241 1.264 . S
C240 C245 1.479 . S
C240 C250 1.465 . S
C241 C240 1.264 . S
C241 C243 1.339 . S
C241 H268 0.931 . S
C242 C243 1.395 . S
C242 C244 1.320 . S
C243 C241 1.339 . S
C243 C242 1.395 . S
C243 H269 0.929 . S
C244 C242 1.320 . S
C244 C245 1.405 . S
C244 H270 0.930 . S
C245 C240 1.479 . S
C245 C244 1.405 . S
C245 H271 0.931 . S
U246 O247 2.454 . S
U246 O248 2.458 . S
U246 C249 2.984 . S
U246 C250 2.847 . S
U246 C263 2.882 . S
U246 O264 2.441 . S
U246 O265 2.420 . S
U246 O266 2.455 . S
U246 O267 2.449 . S
O247 U246 2.454 . S
O247 C249 1.353 . S
O248 U246 2.458 . S
O248 C249 1.286 . S
C249 U246 2.984 . S
C249 O247 1.353 . S
C249 O248 1.286 . S
C249 C251 1.363 . S
C250 C240 1.465 . S
C250 U246 2.847 . S
C250 O264 1.249 . S
C250 O265 1.202 . S
C251 C249 1.363 . S
C251 C253 1.408 . S
C251 C256 1.342 . S
C252 C253 1.310 . S
C252 C255 1.461 . S
C252 H272 0.932 . S
C253 C251 1.408 . S
C253 C252 1.310 . S
C253 H273 0.930 . S
C254 C255 1.474 . S
C254 C256 1.285 . S
C254 H274 0.929 . S
C255 C252 1.461 . S
C255 C254 1.474 . S
C256 C251 1.342 . S
C256 C254 1.285 . S
C256 H275 0.930 . S
C257 C260 1.424 . S
C257 C262 1.245 . S
C257 C263 1.428 . S
C258 C261 1.260 . S
C258 C262 1.477 . S
C258 H276 0.932 . S
C259 C260 1.384 . S
C259 C261 1.479 . S
C259 H277 0.929 . S
C260 C257 1.424 . S
C260 C259 1.384 . S
C260 H278 0.928 . S
C261 C258 1.260 . S
C261 C259 1.479 . S
C262 C257 1.245 . S
C262 C258 1.477 . S
C262 H279 0.932 . S
C263 U246 2.882 . S
C263 C257 1.428 . S
C263 O266 1.301 . S
C263 O267 1.282 . S
O264 U246 2.441 . S
O264 C250 1.249 . S
O265 U246 2.420 . S
O265 C250 1.202 . S
O266 U246 2.455 . S
O266 C263 1.301 . S
O267 U246 2.449 . S
O267 C263 1.282 . S
H268 C241 0.931 . S
H269 C243 0.929 . S
H270 C244 0.930 . S
H271 C245 0.931 . S
H272 C252 0.932 . S
H273 C253 0.930 . S
H274 C254 0.929 . S
H275 C256 0.930 . S
H276 C258 0.932 . S
H277 C259 0.929 . S
H278 C260 0.928 . S
H279 C262 0.932 . S
C280 C281 1.264 . S
C280 C285 1.479 . S
C280 C290 1.465 . S
C281 C280 1.264 . S
C281 C283 1.339 . S
C281 H308 0.931 . S
C282 C283 1.395 . S
C282 C284 1.320 . S
C283 C281 1.339 . S
C283 C282 1.395 . S
C283 H309 0.929 . S
C284 C282 1.320 . S
C284 C285 1.405 . S
C284 H310 0.930 . S
C285 C280 1.479 . S
C285 C284 1.405 . S
C285 H311 0.931 . S
U286 O287 2.454 . S
U286 O288 2.458 . S
U286 C289 2.984 . S
U286 C290 2.847 . S
U286 C303 2.882 . S
U286 O304 2.441 . S
U286 O305 2.420 . S
U286 O306 2.455 . S
U286 O307 2.449 . S
O287 U286 2.454 . S
O287 C289 1.353 . S
O288 U286 2.458 . S
O288 C289 1.286 . S
C289 U286 2.984 . S
C289 O287 1.353 . S
C289 O288 1.286 . S
C289 C291 1.363 . S
C290 C280 1.465 . S
C290 U286 2.847 . S
C290 O304 1.249 . S
C290 O305 1.202 . S
C291 C289 1.363 . S
C291 C293 1.408 . S
C291 C296 1.342 . S
C292 C293 1.310 . S
C292 C295 1.461 . S
C292 H312 0.932 . S
C293 C291 1.408 . S
C293 C292 1.310 . S
C293 H313 0.930 . S
C294 C295 1.474 . S
C294 C296 1.285 . S
C294 H314 0.929 . S
C295 C292 1.461 . S
C295 C294 1.474 . S
C296 C291 1.342 . S
C296 C294 1.285 . S
C296 H315 0.930 . S
C297 C300 1.424 . S
C297 C302 1.245 . S
C297 C303 1.428 . S
C298 C301 1.260 . S
C298 C302 1.477 . S
C298 H316 0.932 . S
C299 C300 1.384 . S
C299 C301 1.479 . S
C299 H317 0.929 . S
C300 C297 1.424 . S
C300 C299 1.384 . S
C300 H318 0.928 . S
C301 C298 1.260 . S
C301 C299 1.479 . S
C302 C297 1.245 . S
C302 C298 1.477 . S
C302 H319 0.932 . S
C303 U286 2.882 . S
C303 C297 1.428 . S
C303 O306 1.301 . S
C303 O307 1.282 . S
O304 U286 2.441 . S
O304 C290 1.249 . S
O305 U286 2.420 . S
O305 C290 1.202 . S
O306 U286 2.455 . S
O306 C303 1.301 . S
O307 U286 2.449 . S
O307 C303 1.282 . S
H308 C281 0.931 . S
H309 C283 0.929 . S
H310 C284 0.930 . S
H311 C285 0.931 . S
H312 C292 0.932 . S
H313 C293 0.930 . S
H314 C294 0.929 . S
H315 C296 0.930 . S
H316 C298 0.932 . S
H317 C299 0.929 . S
H318 C300 0.928 . S
H319 C302 0.932 . S
H320 C328 0.950 . S
H321 C333 0.950 . S
H322 C330 0.950 . S
H323 C332 0.950 . S
H324 C334 0.950 . S
H325 C336 0.950 . S
H326 C338 0.950 . S
H327 C339 0.950 . S
C328 H320 0.950 . S
C328 C329 1.386 . S
C328 C330 1.391 . S
C329 C328 1.386 . S
C329 C333 1.393 . S
C330 H322 0.950 . S
C330 C328 1.391 . S
C330 C331 1.400 . S
C331 C330 1.400 . S
C331 C332 1.398 . S
C331 C337 1.491 1_565 S
C332 H323 0.950 . S
C332 C331 1.398 . S
C332 C333 1.391 . S
C333 H321 0.950 . S
C333 C329 1.393 . S
C333 C332 1.391 . S
C334 H324 0.950 . S
C334 C335 1.386 . S
C334 C336 1.391 . S
C335 C334 1.386 . S
C335 C339 1.393 . S
C336 H325 0.950 . S
C336 C334 1.391 . S
C336 C337 1.400 . S
C337 C331 1.491 1_545 S
C337 C336 1.400 . S
C337 C338 1.398 . S
C338 H326 0.950 . S
C338 C337 1.398 . S
C338 C339 1.391 . S
C339 H327 0.950 . S
C339 C335 1.393 . S
C339 C338 1.391 . S
H340 C348 0.950 . S
H341 C353 0.950 . S
H342 C350 0.950 . S
H343 C352 0.950 . S
H344 C354 0.950 . S
H345 C356 0.950 . S
H346 C358 0.950 . S
H347 C359 0.950 . S
C348 H340 0.950 . S
C348 C349 1.386 . S
C348 C350 1.391 . S
C349 C348 1.386 . S
C349 C353 1.393 . S
C350 H342 0.950 . S
C350 C348 1.391 . S
C350 C351 1.400 . S
C351 C350 1.400 . S
C351 C352 1.398 . S
C351 C357 1.491 . S
C352 H343 0.950 . S
C352 C351 1.398 . S
C352 C353 1.391 . S
C353 H341 0.950 . S
C353 C349 1.393 . S
C353 C352 1.391 . S
C354 H344 0.950 . S
C354 C355 1.386 . S
C354 C356 1.391 . S
C355 C354 1.386 . S
C355 C359 1.393 . S
C356 H345 0.950 . S
C356 C354 1.391 . S
C356 C357 1.400 . S
C357 C351 1.491 . S
C357 C356 1.400 . S
C357 C358 1.398 . S
C358 H346 0.950 . S
C358 C357 1.398 . S
C358 C359 1.391 . S
C359 H347 0.950 . S
C359 C355 1.393 . S
C359 C358 1.391 . S
H360 C368 0.950 . S
H361 C373 0.950 . S
H362 C370 0.950 . S
H363 C372 0.950 1_545 S
H364 C374 0.950 . S
H365 C376 0.950 . S
H366 C378 0.950 1_565 S
H367 C379 0.950 . S
C368 H360 0.950 . S
C368 C369 1.386 . S
C368 C370 1.391 . S
C369 C368 1.386 . S
C369 C373 1.393 . S
C370 H362 0.950 . S
C370 C368 1.391 . S
C370 C371 1.400 . S
C371 C370 1.400 . S
C371 C372 1.398 . S
C371 C377 1.491 1_565 S
C372 H363 0.950 1_565 S
C372 C371 1.398 . S
C372 C373 1.391 . S
C373 H361 0.950 . S
C373 C369 1.393 . S
C373 C372 1.391 . S
C374 H364 0.950 . S
C374 C375 1.386 . S
C374 C376 1.391 . S
C375 C374 1.386 . S
C375 C379 1.393 . S
C376 H365 0.950 . S
C376 C374 1.391 . S
C376 C377 1.400 . S
C377 C371 1.491 1_545 S
C377 C376 1.400 . S
C377 C378 1.398 . S
C378 H366 0.950 1_545 S
C378 C377 1.398 . S
C378 C379 1.391 . S
C379 H367 0.950 . S
C379 C375 1.393 . S
C379 C378 1.391 . S
H380 C388 0.950 . S
H381 C393 0.950 . S
H382 C390 0.950 . S
H383 C392 0.950 . S
H384 C394 0.950 . S
H385 C396 0.968 . S
H386 C398 0.950 . S
H387 C399 0.950 . S
C388 H380 0.950 . S
C388 C389 1.386 . S
C388 C390 1.391 . S
C389 C388 1.386 . S
C389 C393 1.393 . S
C390 H382 0.950 . S
C390 C388 1.391 . S
C390 C391 1.400 . S
C391 C390 1.400 . S
C391 C392 1.398 . S
C391 C397 1.491 1_554 S
C392 H383 0.950 . S
C392 C391 1.398 . S
C392 C393 1.391 . S
C393 H381 0.950 . S
C393 C389 1.393 . S
C393 C392 1.391 . S
C394 H384 0.950 . S
C394 C395 1.386 . S
C394 C396 1.391 . S
C395 C394 1.386 . S
C395 C399 1.393 . S
C396 H385 0.968 . S
C396 C394 1.391 . S
C396 C397 1.400 . S
C397 C391 1.491 1_556 S
C397 C396 1.400 . S
C397 C398 1.398 . S
C398 H386 0.950 . S
C398 C397 1.398 . S
C398 C399 1.391 . S
C399 H387 0.950 . S
C399 C395 1.393 . S
C399 C398 1.391 . S
H400 C408 0.950 . S
H401 C413 0.950 . S
H402 C410 0.950 . S
H403 C412 0.950 . S
H404 C414 0.950 . S
H405 C416 0.950 . S
H406 C418 0.950 . S
H407 C419 0.950 . S
C408 H400 0.950 . S
C408 C409 1.386 . S
C408 C410 1.391 . S
C409 C408 1.386 . S
C409 C413 1.393 . S
C410 H402 0.950 . S
C410 C408 1.391 . S
C410 C411 1.400 . S
C411 C410 1.400 . S
C411 C412 1.398 . S
C411 C417 1.491 1_655 S
C412 H403 0.950 . S
C412 C411 1.398 . S
C412 C413 1.391 . S
C413 H401 0.950 . S
C413 C409 1.393 . S
C413 C412 1.391 . S
C414 H404 0.950 . S
C414 C415 1.386 . S
C414 C416 1.391 . S
C415 C414 1.386 . S
C415 C419 1.393 . S
C416 H405 0.950 . S
C416 C414 1.391 . S
C416 C417 1.400 . S
C417 C411 1.491 1_455 S
C417 C416 1.400 . S
C417 C418 1.398 . S
C418 H406 0.950 . S
C418 C417 1.398 . S
C418 C419 1.391 . S
C419 H407 0.950 . S
C419 C415 1.393 . S
C419 C418 1.391 . S
H420 C428 0.950 . S
H421 C433 0.950 . S
H422 C430 0.950 . S
H423 C432 0.950 . S
H424 C434 0.950 . S
H425 C436 0.950 . S
H426 C438 0.950 . S
H427 C439 0.950 . S
C428 H420 0.950 . S
C428 C429 1.386 . S
C428 C430 1.391 . S
C429 C428 1.386 . S
C429 C433 1.393 . S
C430 H422 0.950 . S
C430 C428 1.391 . S
C430 C431 1.400 . S
C431 C430 1.400 . S
C431 C432 1.398 . S
C431 C437 1.491 . S
C432 H423 0.950 . S
C432 C431 1.398 . S
C432 C433 1.391 . S
C433 H421 0.950 . S
C433 C429 1.393 . S
C433 C432 1.391 . S
C434 H424 0.950 . S
C434 C435 1.386 . S
C434 C436 1.391 . S
C435 C434 1.386 . S
C435 C439 1.393 . S
C436 H425 0.950 . S
C436 C434 1.391 . S
C436 C437 1.400 . S
C437 C431 1.491 . S
C437 C436 1.400 . S
C437 C438 1.398 . S
C438 H426 0.950 . S
C438 C437 1.398 . S
C438 C439 1.391 . S
C439 H427 0.950 . S
C439 C435 1.393 . S
C439 C438 1.391 . S
H440 C448 0.950 . S
H441 C453 0.950 . S
H442 C450 0.950 1_655 S
H443 C452 0.950 . S
H444 C454 0.950 . S
H445 C456 0.950 1_455 S
H446 C458 0.950 . S
H447 C459 0.950 . S
C448 H440 0.950 . S
C448 C449 1.386 . S
C448 C450 1.391 . S
C449 C448 1.386 . S
C449 C453 1.393 . S
C450 H442 0.950 1_455 S
C450 C448 1.391 . S
C450 C451 1.400 . S
C451 C450 1.400 . S
C451 C452 1.398 . S
C451 C457 1.491 1_455 S
C452 H443 0.950 . S
C452 C451 1.398 . S
C452 C453 1.391 . S
C453 H441 0.950 . S
C453 C449 1.393 . S
C453 C452 1.391 . S
C454 H444 0.950 . S
C454 C455 1.386 . S
C454 C456 1.391 . S
C455 C454 1.386 . S
C455 C459 1.393 . S
C456 H445 0.950 1_655 S
C456 C454 1.391 . S
C456 C457 1.400 . S
C457 C451 1.491 1_655 S
C457 C456 1.400 . S
C457 C458 1.398 . S
C458 H446 0.950 . S
C458 C457 1.398 . S
C458 C459 1.391 . S
C459 H447 0.950 . S
C459 C455 1.393 . S
C459 C458 1.391 . S
H460 C468 0.950 . S
H461 C473 0.950 . S
H462 C470 0.950 . S
H463 C472 0.950 . S
H464 C474 0.950 . S
H465 C476 0.950 . S
H466 C478 0.950 . S
H467 C479 0.950 . S
C468 H460 0.950 . S
C468 C469 1.386 . S
C468 C470 1.391 . S
C469 C468 1.386 . S
C469 C473 1.393 . S
C470 H462 0.950 . S
C470 C468 1.391 . S
C470 C471 1.400 . S
C471 C470 1.400 . S
C471 C472 1.398 . S
C471 C477 1.491 . S
C472 H463 0.950 . S
C472 C471 1.398 . S
C472 C473 1.391 . S
C473 H461 0.950 . S
C473 C469 1.393 . S
C473 C472 1.391 . S
C474 H464 0.950 . S
C474 C475 1.386 . S
C474 C476 1.391 . S
C475 C474 1.386 . S
C475 C479 1.393 . S
C476 H465 0.950 . S
C476 C474 1.391 . S
C476 C477 1.400 . S
C477 C471 1.491 . S
C477 C476 1.400 . S
C477 C478 1.398 . S
C478 H466 0.950 . S
C478 C477 1.398 . S
C478 C479 1.391 . S
C479 H467 0.950 . S
C479 C475 1.393 . S
C479 C478 1.391 . S
H480 C488 0.950 . S
H481 C493 0.950 . S
H482 C490 0.950 . S
H483 C492 0.950 . S
H484 C494 0.950 . S
H485 C496 0.950 . S
H486 C498 0.950 . S
H487 C499 0.950 . S
C488 H480 0.950 . S
C488 C489 1.386 . S
C488 C490 1.391 . S
C489 C488 1.386 . S
C489 C493 1.393 . S
C490 H482 0.950 . S
C490 C488 1.391 . S
C490 C491 1.400 . S
C491 C490 1.400 . S
C491 C492 1.398 . S
C491 C497 1.491 . S
C492 H483 0.950 . S
C492 C491 1.398 . S
C492 C493 1.391 . S
C493 H481 0.950 . S
C493 C489 1.393 . S
C493 C492 1.391 . S
C494 H484 0.950 . S
C494 C495 1.386 . S
C494 C496 1.391 . S
C495 C494 1.386 . S
C495 C499 1.393 . S
C496 H485 0.950 . S
C496 C494 1.391 . S
C496 C497 1.400 . S
C497 C491 1.491 . S
C497 C496 1.400 . S
C497 C498 1.398 . S
C498 H486 0.950 . S
C498 C497 1.398 . S
C498 C499 1.391 . S
C499 H487 0.950 . S
C499 C495 1.393 . S
C499 C498 1.391 . S
H500 C508 0.950 . S
H501 C513 0.950 . S
H502 C510 0.950 1_556 S
H503 C512 0.950 . S
H504 C514 0.950 . S
H505 C516 0.950 . S
H506 C518 0.950 . S
H507 C519 0.950 . S
C508 H500 0.950 . S
C508 C509 1.386 . S
C508 C510 1.391 . S
C509 C508 1.386 . S
C509 C513 1.393 . S
C510 H502 0.950 1_554 S
C510 C508 1.391 . S
C510 C511 1.400 . S
C511 C510 1.400 . S
C511 C512 1.398 . S
C511 C517 1.491 1_554 S
C512 H503 0.950 . S
C512 C511 1.398 . S
C512 C513 1.391 . S
C513 H501 0.950 . S
C513 C509 1.393 . S
C513 C512 1.391 . S
C514 H504 0.950 . S
C514 C515 1.386 . S
C514 C516 1.391 . S
C515 C514 1.386 . S
C515 C519 1.393 . S
C516 H505 0.950 . S
C516 C514 1.391 . S
C516 C517 1.400 . S
C517 C511 1.491 1_556 S
C517 C516 1.400 . S
C517 C518 1.398 . S
C518 H506 0.950 . S
C518 C517 1.398 . S
C518 C519 1.391 . S
C519 H507 0.950 . S
C519 C515 1.393 . S
C519 C518 1.391 . S
H520 C528 0.950 . S
H521 C533 0.950 . S
H522 C530 0.950 . S
H523 C532 0.950 . S
H524 C534 0.950 . S
H525 C536 0.950 . S
H526 C538 0.950 . S
H527 C539 0.950 . S
C528 H520 0.950 . S
C528 C529 1.386 . S
C528 C530 1.391 . S
C529 C528 1.386 . S
C529 C533 1.393 . S
C530 H522 0.950 . S
C530 C528 1.391 . S
C530 C531 1.400 . S
C531 C530 1.400 . S
C531 C532 1.398 . S
C531 C537 1.491 . S
C532 H523 0.950 . S
C532 C531 1.398 . S
C532 C533 1.391 . S
C533 H521 0.950 . S
C533 C529 1.393 . S
C533 C532 1.391 . S
C534 H524 0.950 . S
C534 C535 1.386 . S
C534 C536 1.391 . S
C535 C534 1.386 . S
C535 C539 1.393 . S
C536 H525 0.950 . S
C536 C534 1.391 . S
C536 C537 1.400 . S
C537 C531 1.491 . S
C537 C536 1.400 . S
C537 C538 1.398 . S
C538 H526 0.950 . S
C538 C537 1.398 . S
C538 C539 1.391 . S
C539 H527 0.950 . S
C539 C535 1.393 . S
C539 C538 1.391 . S
H540 C548 0.950 . S
H541 C553 0.950 . S
H542 C550 0.950 . S
H543 C552 0.950 . S
H544 C554 0.950 . S
H545 C556 0.950 . S
H546 C558 0.950 . S
H547 C559 0.950 . S
C548 H540 0.950 . S
C548 C549 1.386 . S
C548 C550 1.391 . S
C549 C548 1.386 . S
C549 C553 1.393 . S
C550 H542 0.950 . S
C550 C548 1.391 . S
C550 C551 1.400 . S
C551 C550 1.400 . S
C551 C552 1.398 . S
C551 C557 1.491 . S
C552 H543 0.950 . S
C552 C551 1.398 . S
C552 C553 1.391 . S
C553 H541 0.950 . S
C553 C549 1.393 . S
C553 C552 1.391 . S
C554 H544 0.950 . S
C554 C555 1.386 . S
C554 C556 1.391 . S
C555 C554 1.386 . S
C555 C559 1.393 . S
C556 H545 0.950 . S
C556 C554 1.391 . S
C556 C557 1.400 . S
C557 C551 1.491 . S
C557 C556 1.400 . S
C557 C558 1.398 . S
C558 H546 0.950 . S
C558 C557 1.398 . S
C558 C559 1.391 . S
C559 H547 0.950 . S
C559 C555 1.393 . S
C559 C558 1.391 . S
C329 C42 1.487 . S
C335 C2 1.481 . S
C349 C61 1.481 . S
C355 C95 1.502 . S
C369 C82 1.493 . S
C375 C122 1.485 . S
C389 C21 1.492 . S
C395 C135 1.500 . S
C409 C221 1.489 . S
C415 C15 1.500 . S
C429 C141 1.482 . S
C435 C175 1.501 . S
C449 C55 1.501 . S
C455 C261 1.494 . S
C469 C295 1.501 . S
C475 C101 1.481 . S
C489 C282 1.494 . S
C495 C162 1.484 . S
C509 C215 1.500 . S
C515 C181 1.489 . S
C529 C202 1.480 . S
C535 C242 1.488 . S
C549 C255 1.502 . S
C555 C301 1.493 . S
