# Generated by pormake.
# Topology wjy, (5)-cn, num edge types: 1
# Building blocks:
#     Node 0, Type 0, BuildingBlock: XOMCOT_clean_sbu_0, # of connection points: 5
#     Node 1, Type 0, BuildingBlock: XOMCOT_clean_sbu_0, # of connection points: 5
#     Node 2, Type 0, BuildingBlock: XOMCOT_clean_sbu_0, # of connection points: 5
#     Node 3, Type 0, BuildingBlock: XOMCOT_clean_sbu_0, # of connection points: 5
#     Node 4, Type 0, BuildingBlock: XOMCOT_clean_sbu_0, # of connection points: 5
#     Node 5, Type 0, BuildingBlock: XOMCOT_clean_sbu_0, # of connection points: 5
#     Node 6, Type 0, BuildingBlock: XOMCOT_clean_sbu_0, # of connection points: 5
#     Node 7, Type 0, BuildingBlock: XOMCOT_clean_sbu_0, # of connection points: 5
#     Node 8, Type 0, BuildingBlock: XOMCOT_clean_sbu_0, # of connection points: 5
#     Node 9, Type 0, BuildingBlock: XOMCOT_clean_sbu_0, # of connection points: 5
#     Node 10, Type 0, BuildingBlock: XOMCOT_clean_sbu_0, # of connection points: 5
#     Node 11, Type 0, BuildingBlock: XOMCOT_clean_sbu_0, # of connection points: 5
#     Edge 12, Type (0, 0), BuildingBlock: AJUNOK_clean_linker_0, # of connection points: 2
#     Edge 13, Type (0, 0), BuildingBlock: AJUNOK_clean_linker_0, # of connection points: 2
#     Edge 14, Type (0, 0), BuildingBlock: AJUNOK_clean_linker_0, # of connection points: 2
#     Edge 15, Type (0, 0), BuildingBlock: AJUNOK_clean_linker_0, # of connection points: 2
#     Edge 16, Type (0, 0), BuildingBlock: AJUNOK_clean_linker_0, # of connection points: 2
#     Edge 17, Type (0, 0), BuildingBlock: AJUNOK_clean_linker_0, # of connection points: 2
#     Edge 18, Type (0, 0), BuildingBlock: AJUNOK_clean_linker_0, # of connection points: 2
#     Edge 19, Type (0, 0), BuildingBlock: AJUNOK_clean_linker_0, # of connection points: 2
#     Edge 20, Type (0, 0), BuildingBlock: AJUNOK_clean_linker_0, # of connection points: 2
#     Edge 21, Type (0, 0), BuildingBlock: AJUNOK_clean_linker_0, # of connection points: 2
#     Edge 22, Type (0, 0), BuildingBlock: AJUNOK_clean_linker_0, # of connection points: 2
#     Edge 23, Type (0, 0), BuildingBlock: AJUNOK_clean_linker_0, # of connection points: 2
#     Edge 24, Type (0, 0), BuildingBlock: AJUNOK_clean_linker_0, # of connection points: 2
#     Edge 25, Type (0, 0), BuildingBlock: AJUNOK_clean_linker_0, # of connection points: 2
#     Edge 26, Type (0, 0), BuildingBlock: AJUNOK_clean_linker_0, # of connection points: 2
#     Edge 27, Type (0, 0), BuildingBlock: AJUNOK_clean_linker_0, # of connection points: 2
#     Edge 28, Type (0, 0), BuildingBlock: AJUNOK_clean_linker_0, # of connection points: 2
#     Edge 29, Type (0, 0), BuildingBlock: AJUNOK_clean_linker_0, # of connection points: 2
#     Edge 30, Type (0, 0), BuildingBlock: AJUNOK_clean_linker_0, # of connection points: 2
#     Edge 31, Type (0, 0), BuildingBlock: AJUNOK_clean_linker_0, # of connection points: 2
#     Edge 32, Type (0, 0), BuildingBlock: AJUNOK_clean_linker_0, # of connection points: 2
#     Edge 33, Type (0, 0), BuildingBlock: AJUNOK_clean_linker_0, # of connection points: 2
#     Edge 34, Type (0, 0), BuildingBlock: AJUNOK_clean_linker_0, # of connection points: 2
#     Edge 35, Type (0, 0), BuildingBlock: AJUNOK_clean_linker_0, # of connection points: 2
#     Edge 36, Type (0, 0), BuildingBlock: AJUNOK_clean_linker_0, # of connection points: 2
#     Edge 37, Type (0, 0), BuildingBlock: AJUNOK_clean_linker_0, # of connection points: 2
#     Edge 38, Type (0, 0), BuildingBlock: AJUNOK_clean_linker_0, # of connection points: 2
#     Edge 39, Type (0, 0), BuildingBlock: AJUNOK_clean_linker_0, # of connection points: 2
#     Edge 40, Type (0, 0), BuildingBlock: AJUNOK_clean_linker_0, # of connection points: 2
#     Edge 41, Type (0, 0), BuildingBlock: AJUNOK_clean_linker_0, # of connection points: 2
# Relax obj value: 0.076
# Max RMSD: 0.166
# Mean RMSD: 0.166
data_MOF--net-wjy--node1-XOMCOT_clean_sbu_0--edge1-AJUNOK_clean_linker_0
_symmetry_space_group_name_H-M    P1
_symmetry_Int_Tables_number       1
_symmetry_cell_setting            triclinic
loop_
_symmetry_equiv_pos_as_xyz
'x, y, z'
_cell_length_a     57.250135
_cell_length_b     57.306463
_cell_length_c     13.591256
_cell_angle_alpha  89.988559
_cell_angle_beta   89.974744
_cell_angle_gamma 119.96399
loop_
_atom_site_label
_atom_site_type_symbol
_atom_site_fract_x
_atom_site_fract_y
_atom_site_fract_z
_atom_type_partial_charge
Co0 Co 0.47329 0.10211 0.15839 0.0
C1 C 0.474 0.10329 0.93907 0.0
C2 C 0.51105 0.1088 0.9975 0.0
C3 C 0.51181 0.10702 0.89659 0.0
N4 N 0.48774 0.10758 0.02456 0.0
N5 N 0.48835 0.10331 0.86017 0.0
H6 H 0.45327 0.0985 0.93446 0.0
H7 H 0.52576 0.10896 0.04757 0.0
C8 C 0.53165 0.14379 0.1912 0.0
O9 O 0.53093 0.15813 0.11707 0.0
N10 N 0.45882 0.09544 0.29064 0.0
C11 C 0.43486 0.09224 0.31915 0.0
C12 C 0.43316 0.09002 0.4203 0.0
C13 C 0.4713 0.09498 0.37429 0.0
N14 N 0.4561 0.09177 0.4547 0.0
C15 C 0.45883 0.14075 0.08166 0.0
C16 C 0.48064 0.17668 0.23581 0.0
C17 C 0.46895 0.18325 0.15759 0.0
C18 C 0.45821 0.16486 0.07919 0.0
C19 C 0.48195 0.15297 0.23306 0.0
N20 N 0.47157 0.13544 0.15572 0.0
H21 H 0.44866 0.12637 0.02432 0.0
H22 H 0.49111 0.14857 0.29442 0.0
H23 H 0.42012 0.09251 0.27013 0.0
H24 H 0.49132 0.0975 0.37675 0.0
O25 O 0.43775 0.0761 0.1075 0.0
O26 O 0.46925 0.06688 0.15534 0.0
O27 O 0.5108 0.12165 0.21533 0.0
C28 C 0.44541 0.05827 0.11821 0.0
H29 H 0.52765 0.10677 0.85382 0.0
H30 H 0.41687 0.08857 0.46523 0.0
H31 H 0.48865 0.18964 0.29949 0.0
H32 H 0.44952 0.16892 1.01542 0.0
Co33 Co 0.3765 0.47327 0.28685 0.0
C34 C 0.37456 0.47438 0.07024 0.0
C35 C 0.41038 0.50835 0.12706 0.0
C36 C 0.41197 0.50888 0.02588 0.0
N37 N 0.38682 0.4869 0.15459 0.0
N38 N 0.38959 0.48735 0.9905 0.0
H39 H 0.3555 0.45569 0.06762 0.0
H40 H 0.42608 0.52164 0.17698 0.0
C41 C 0.38832 0.52327 0.40367 0.0
O42 O 0.36517 0.50999 0.45021 0.0
N43 N 0.36678 0.45927 0.42059 0.0
C44 C 0.34584 0.43544 0.44965 0.0
C45 C 0.34637 0.43346 0.55037 0.0
C46 C 0.38056 0.4707 0.50434 0.0
N47 N 0.36819 0.45569 0.58484 0.0
C48 C 0.31871 0.44757 0.26287 0.0
C49 C 0.31624 0.49436 0.24807 0.0
C50 C 0.29212 0.4697 0.25425 0.0
C51 C 0.29354 0.44601 0.25839 0.0
C52 C 0.34093 0.49493 0.25173 0.0
N53 N 0.34196 0.47189 0.26733 0.0
H54 H 0.31943 0.42915 0.26237 0.0
H55 H 0.35918 0.51403 0.24253 0.0
H56 H 0.33122 0.42009 0.40206 0.0
H57 H 0.39931 0.48967 0.50674 0.0
O58 O 0.36763 0.43759 0.24 0.0
O59 O 0.4076 0.46896 0.29421 0.0
O60 O 0.39473 0.51164 0.33731 0.0
C61 C 0.39288 0.44516 0.25627 0.0
H62 H 0.42894 0.52307 0.98192 0.0
H63 H 0.33134 0.4172 0.59475 0.0
H64 H 0.316 0.51305 0.2401 0.0
H65 H 0.27538 0.42646 0.26009 0.0
Co66 Co 0.90965 0.37258 0.46945 0.0
C67 C 0.90637 0.37148 0.24996 0.0
C68 C 0.90507 0.40521 0.31076 0.0
C69 C 0.90597 0.40749 0.20982 0.0
N70 N 0.90449 0.38217 0.33647 0.0
N71 N 0.90708 0.38637 0.1716 0.0
H72 H 0.90947 0.35447 0.24379 0.0
H73 H 0.90617 0.42019 0.36179 0.0
C74 C 0.86873 0.39077 0.5025 0.0
O75 O 0.85512 0.37813 0.42337 0.0
N76 N 0.91553 0.3639 0.60127 0.0
C77 C 0.91631 0.3418 0.62986 0.0
C78 C 0.91722 0.34152 0.73128 0.0
C79 C 0.91627 0.37688 0.6851 0.0
N80 N 0.91717 0.36359 0.76588 0.0
C81 C 0.87488 0.31845 0.3971 0.0
C82 C 0.83277 0.30583 0.52556 0.0
C83 C 0.82977 0.2868 0.45463 0.0
C84 C 0.85139 0.29325 0.39057 0.0
C85 C 0.85654 0.33073 0.52941 0.0
N86 N 0.87677 0.3374 0.46247 0.0
H87 H 0.89173 0.32239 0.35094 0.0
H88 H 0.85877 0.34441 0.58789 0.0
H89 H 0.91517 0.32644 0.58061 0.0
H90 H 0.91483 0.39497 0.68706 0.0
O91 O 0.93622 0.36383 0.41836 0.0
O92 O 0.94479 0.40407 0.46948 0.0
O93 O 0.88984 0.39011 0.52787 0.0
C94 C 0.95375 0.38929 0.43103 0.0
H95 H 0.90634 0.42377 0.16831 0.0
H96 H 0.91729 0.32595 0.77618 0.0
H97 H 0.81698 0.30135 0.5788 0.0
H98 H 0.85015 0.27905 0.33538 0.0
Co99 Co 0.54184 0.90667 0.62125 0.0
C100 C 0.53908 0.90174 0.40242 0.0
C101 C 0.50437 0.90133 0.46283 0.0
C102 C 0.50286 0.90172 0.36179 0.0
N103 N 0.52678 0.90065 0.48884 0.0
N104 N 0.5247 0.90191 0.3238 0.0
H105 H 0.55893 0.90411 0.39641 0.0
H106 H 0.49096 0.90338 0.5135 0.0
C107 C 0.48201 0.8676 0.66283 0.0
O108 O 0.47963 0.85097 0.59193 0.0
N109 N 0.55664 0.91318 0.7529 0.0
C110 C 0.57902 0.91307 0.78258 0.0
C111 C 0.5797 0.91345 0.88415 0.0
C112 C 0.54424 0.91398 0.83624 0.0
N113 N 0.55759 0.91362 0.91769 0.0
C114 C 0.56006 0.87047 0.55449 0.0
C115 C 0.53028 0.82978 0.68755 0.0
C116 C 0.54619 0.82587 0.61856 0.0
C117 C 0.56145 0.84676 0.55197 0.0
C118 C 0.52945 0.85373 0.68734 0.0
N119 N 0.54322 0.87327 0.61841 0.0
H120 H 0.57308 0.88679 0.50658 0.0
H121 H 0.51813 0.8567 0.74456 0.0
H122 H 0.59303 0.9113 0.73401 0.0
H123 H 0.52547 0.91415 0.8373 0.0
O124 O 0.5773 0.93246 0.56802 0.0
O125 O 0.54614 0.94196 0.61773 0.0
O126 O 0.50469 0.88856 0.68046 0.0
C127 C 0.56973 0.95036 0.57901 0.0
H128 H 0.48782 0.90363 0.31999 0.0
H129 H 0.5945 0.91216 0.92979 0.0
H130 H 0.51888 0.81459 0.74254 0.0
H131 H 0.57428 0.8448 0.49798 0.0
Co132 Co 0.64144 0.54097 0.78911 0.0
C133 C 0.64351 0.53958 0.57034 0.0
C134 C 0.61008 0.50368 0.62797 0.0
C135 C 0.60818 0.50295 0.52685 0.0
N136 N 0.6327 0.52635 0.65574 0.0
N137 N 0.62906 0.5257 0.49095 0.0
H138 H 0.66056 0.55969 0.56594 0.0
H139 H 0.59479 0.48951 0.67743 0.0
C140 C 0.62101 0.48145 0.826 0.0
O141 O 0.63642 0.4807 0.75586 0.0
N142 N 0.64945 0.55558 0.92114 0.0
C143 C 0.67084 0.57912 0.94912 0.0
C144 C 0.67078 0.58086 0.05036 0.0
C145 C 0.63665 0.54338 1.00535 0.0
N146 N 0.64927 0.55834 0.08547 0.0
C147 C 0.69538 0.55739 0.72184 0.0
C148 C 0.70584 0.52802 0.85824 0.0
C149 C 0.72523 0.54242 0.78585 0.0
C150 C 0.72002 0.5578 0.71856 0.0
C151 C 0.68149 0.52816 0.85876 0.0
N152 N 0.67586 0.54156 0.78787 0.0
H153 H 0.69234 0.57027 0.6724 0.0
H154 H 0.66726 0.51761 0.91711 0.0
H155 H 0.68604 0.59348 0.89968 0.0
H156 H 0.61879 0.52373 1.00853 0.0
O157 O 0.65246 0.57671 0.73691 0.0
O158 O 0.61098 0.54639 0.783 0.0
O159 O 0.62165 0.50352 0.84656 0.0
C160 C 0.62717 0.56994 0.74576 0.0
H161 H 0.59175 0.48776 0.48348 0.0
H162 H 0.68615 0.5968 0.09481 0.0
H163 H 0.70957 0.51696 0.91482 0.0
H164 H 0.73478 0.56992 0.66331 0.0
Co165 Co 0.10675 0.63634 0.94299 0.0
C166 C 0.11152 0.63846 0.72411 0.0
C167 C 0.10602 0.60145 0.78365 0.0
C168 C 0.10575 0.59973 0.68267 0.0
N169 N 0.11037 0.62602 0.81001 0.0
N170 N 0.10921 0.62304 0.64555 0.0
H171 H 0.11259 0.65771 0.7181 0.0
H172 H 0.10193 0.58531 0.83442 0.0
C173 C 0.14537 0.61495 0.96383 0.0
O174 O 0.15851 0.62802 0.88448 0.0
N175 N 0.10251 0.64591 0.07521 0.0
C176 C 0.10298 0.66862 0.10399 0.0
C177 C 0.10292 0.66929 0.20544 0.0
C178 C 0.10188 0.63296 0.15881 0.0
N179 N 0.10256 0.647 0.23966 0.0
C180 C 0.14086 0.69088 0.87444 0.0
C181 C 0.18517 0.7018 0.98825 0.0
C182 C 0.18685 0.72186 0.92495 0.0
C183 C 0.16418 0.71624 0.86818 0.0
C184 C 0.16149 0.67682 0.99246 0.0
N185 N 0.14009 0.67105 0.93249 0.0
H186 H 0.12318 0.68754 0.83462 0.0
H187 H 0.16027 0.66252 0.04667 0.0
H188 H 0.10436 0.68409 0.05475 0.0
H189 H 0.10118 0.61377 0.1603 0.0
O190 O 0.08034 0.64577 0.89516 0.0
O191 O 0.07126 0.60548 0.94738 0.0
O192 O 0.12594 0.61762 0.99697 0.0
C193 C 0.06249 0.62049 0.90967 0.0
H194 H 0.10172 0.58216 0.63999 0.0
H195 H 0.1042 0.68546 0.25051 0.0
H196 H 0.20184 0.70563 0.03615 0.0
H197 H 0.1644 0.7313 0.81941 0.0
Co198 Co 0.90739 0.53724 0.73314 0.0
C199 C 0.90354 0.53524 0.95189 0.0
C200 C 0.90721 0.50255 0.89356 0.0
C201 C 0.90837 0.50181 0.99472 0.0
N202 N 0.90345 0.52311 0.86638 0.0
N203 N 0.90636 0.52259 0.03098 0.0
H204 H 0.90311 0.55376 0.95689 0.0
H205 H 0.91046 0.48983 0.84318 0.0
C206 C 0.86829 0.47768 0.70937 0.0
O207 O 0.85579 0.47716 0.79111 0.0
N208 N 0.91208 0.55135 0.60111 0.0
C209 C 0.91274 0.57423 0.57349 0.0
C210 C 0.91401 0.57585 0.47223 0.0
C211 C 0.91306 0.53942 0.51683 0.0
N212 N 0.91427 0.55397 0.43675 0.0
C213 C 0.87292 0.55724 0.80366 0.0
C214 C 0.82878 0.52394 0.68925 0.0
C215 C 0.82636 0.54091 0.75752 0.0
C216 C 0.8491 0.5583 0.81324 0.0
C217 C 0.85291 0.52354 0.6821 0.0
N218 N 0.87413 0.53884 0.74316 0.0
H219 H 0.89054 0.57166 0.84339 0.0
H220 H 0.85454 0.51125 0.62549 0.0
H221 H 0.91143 0.58824 0.62332 0.0
H222 H 0.9125 0.52027 0.51394 0.0
O223 O 0.93385 0.57284 0.7823 0.0
O224 O 0.9428 0.54159 0.72952 0.0
O225 O 0.88798 0.49964 0.6772 0.0
C226 C 0.95164 0.56528 0.76792 0.0
H227 H 0.91206 0.48811 0.03795 0.0
H228 H 0.91351 0.59134 0.4282 0.0
H229 H 0.81229 0.51137 0.64035 0.0
H230 H 0.84847 0.57253 0.86406 0.0
Co231 Co 0.37334 0.90497 0.92093 0.0
C232 C 0.37111 0.90088 0.13998 0.0
C233 C 0.40144 0.89358 0.08031 0.0
C234 C 0.40314 0.89371 0.18133 0.0
N235 N 0.38089 0.89742 0.05374 0.0
N236 N 0.38396 0.89819 0.21889 0.0
H237 H 0.35595 0.90677 0.14549 0.0
H238 H 0.41568 0.89273 0.03057 0.0
C239 C 0.39137 0.86412 0.86853 0.0
O240 O 0.3734 0.84466 0.92403 0.0
N241 N 0.36657 0.91299 0.78917 0.0
C242 C 0.34556 0.91564 0.7596 0.0
C243 C 0.34542 0.91632 0.65807 0.0
C244 C 0.37907 0.91241 0.70575 0.0
N245 N 0.36629 0.91388 0.62452 0.0
C246 C 0.31919 0.86793 0.98789 0.0
C247 C 0.30678 0.83016 0.84098 0.0
C248 C 0.28767 0.82489 0.91473 0.0
C249 C 0.29401 0.84433 0.98824 0.0
C250 C 0.33166 0.85403 0.84334 0.0
N251 N 0.33817 0.87203 0.91874 0.0
H252 H 0.32316 0.88302 0.04251 0.0
H253 H 0.34572 0.85799 0.78402 0.0
H254 H 0.33052 0.9155 0.80817 0.0
H255 H 0.39669 0.9101 0.70422 0.0
O256 O 0.36383 0.9308 0.97479 0.0
O257 O 0.40472 0.93987 0.92976 0.0
O258 O 0.39246 0.88685 0.86264 0.0
C259 C 0.3895 0.9484 0.96725 0.0
H260 H 0.41852 0.89244 0.22338 0.0
H261 H 0.33025 0.91693 0.61241 0.0
H262 H 0.30245 0.81604 0.78132 0.0
H263 H 0.27977 0.84123 0.04625 0.0
Co264 Co 0.4768 0.37221 0.10417 0.0
C265 C 0.47878 0.37182 0.32153 0.0
C266 C 0.50971 0.40901 0.25975 0.0
C267 C 0.51053 0.41149 0.36046 0.0
N268 N 0.4899 0.38415 0.23558 0.0
N269 N 0.49119 0.38804 0.39941 0.0
H270 H 0.46152 0.35173 0.32674 0.0
H271 H 0.52175 0.42473 0.20753 0.0
C272 C 0.52783 0.38683 0.98695 0.0
O273 O 0.51599 0.36418 0.93702 0.0
N274 N 0.46376 0.36102 0.97094 0.0
C275 C 0.44409 0.33687 0.93882 0.0
C276 C 0.44307 0.33747 0.83766 0.0
C277 C 0.47361 0.37624 0.88909 0.0
N278 N 0.46193 0.36212 0.8063 0.0
C279 C 0.45153 0.31585 0.15278 0.0
C280 C 0.49711 0.31112 0.14085 0.0
C281 C 0.47207 0.28756 0.15395 0.0
C282 C 0.44929 0.29055 0.16516 0.0
C283 C 0.49856 0.33615 0.13343 0.0
N284 N 0.47572 0.33807 0.13101 0.0
H285 H 0.43358 0.31743 0.15915 0.0
H286 H 0.51823 0.3538 0.12965 0.0
H287 H 0.43142 0.31976 0.98444 0.0
H288 H 0.48941 0.39712 0.89049 0.0
O289 O 0.4407 0.36346 0.14682 0.0
O290 O 0.47205 0.40288 0.08894 0.0
O291 O 0.51534 0.39102 0.05655 0.0
C292 C 0.44818 0.38848 0.12661 0.0
H293 H 0.52344 0.42968 0.40117 0.0
H294 H 0.43009 0.3207 0.79062 0.0
H295 H 0.51558 0.31039 0.13506 0.0
H296 H 0.42976 0.27359 0.1833 0.0
Co297 Co 0.10872 0.47268 0.25094 0.0
C298 C 0.11103 0.47325 0.46769 0.0
C299 C 0.11556 0.51027 0.41119 0.0
C300 C 0.11454 0.51085 0.51243 0.0
N301 N 0.11345 0.48672 0.38336 0.0
N302 N 0.11134 0.48743 0.54762 0.0
H303 H 0.10844 0.45322 0.47017 0.0
H304 H 0.11651 0.52546 0.36163 0.0
C305 C 0.14644 0.52248 0.13162 0.0
O306 O 0.15698 0.5095 0.08733 0.0
N307 N 0.1031 0.45833 0.11729 0.0
C308 C 0.09848 0.43384 0.08841 0.0
C309 C 0.09583 0.43192 0.98764 0.0
C310 C 0.10156 0.47025 0.03347 0.0
N311 N 0.09792 0.45492 0.95313 0.0
C312 C 0.1409 0.44681 0.26601 0.0
C313 C 0.19009 0.49353 0.28412 0.0
C314 C 0.18972 0.46901 0.27302 0.0
C315 C 0.16457 0.44531 0.26796 0.0
C316 C 0.16591 0.49402 0.28273 0.0
N317 N 0.14187 0.47109 0.26572 0.0
H318 H 0.12179 0.42836 0.26602 0.0
H319 H 0.16669 0.51303 0.29414 0.0
H320 H 0.09665 0.41803 0.13628 0.0
H321 H 0.10293 0.48974 0.03067 0.0
O322 O 0.08207 0.43719 0.30022 0.0
O323 O 0.07341 0.4687 0.24836 0.0
O324 O 0.12854 0.51079 0.19843 0.0
C325 C 0.06442 0.44494 0.28649 0.0
H326 H 0.11481 0.52672 0.55657 0.0
H327 H 0.09336 0.41517 0.94319 0.0
H328 H 0.20892 0.5123 0.29201 0.0
H329 H 0.16313 0.42575 0.26626 0.0
Co330 Co 0.64165 0.10574 0.40629 0.0
C331 C 0.64251 0.10881 0.6259 0.0
C332 C 0.60723 0.10699 0.56471 0.0
C333 C 0.60494 0.1061 0.66558 0.0
N334 N 0.63118 0.10951 0.53936 0.0
N335 N 0.62704 0.10693 0.70405 0.0
H336 H 0.66062 0.10758 0.63232 0.0
H337 H 0.59185 0.1048 0.51333 0.0
C338 C 0.62194 0.14559 0.38099 0.0
O339 O 0.63398 0.15819 0.46241 0.0
N340 N 0.65119 0.10125 0.27423 0.0
C341 C 0.67372 0.1013 0.24557 0.0
C342 C 0.6741 0.10059 0.14414 0.0
C343 C 0.63806 0.10026 0.19055 0.0
N344 N 0.65164 0.0999 0.1098 0.0
C345 C 0.69579 0.13979 0.47956 0.0
C346 C 0.70805 0.18349 0.36024 0.0
C347 C 0.72739 0.1855 0.42801 0.0
C348 C 0.72109 0.16311 0.48756 0.0
C349 C 0.68306 0.15986 0.35478 0.0
N350 N 0.67659 0.13878 0.41731 0.0
H351 H 0.69201 0.12232 0.52163 0.0
H352 H 0.66926 0.1584 0.29795 0.0
H353 H 0.68919 0.10268 0.29482 0.0
H354 H 0.61955 0.10099 0.1887 0.0
O355 O 0.65059 0.07905 0.45465 0.0
O356 O 0.61049 0.07045 0.40161 0.0
O357 O 0.62376 0.12551 0.35035 0.0
C358 C 0.62527 0.06139 0.4393 0.0
H359 H 0.58805 0.10451 0.70688 0.0
H360 H 0.68989 0.10098 0.09905 0.0
H361 H 0.7124 0.19991 0.31027 0.0
H362 H 0.73553 0.16358 0.54009 0.0
Co363 Co 0.5403 0.63809 0.58568 0.0
C364 C 0.53846 0.63841 0.80534 0.0
C365 C 0.50596 0.60243 0.74409 0.0
C366 C 0.50476 0.60002 0.84498 0.0
N367 N 0.52666 0.62684 0.71887 0.0
N368 N 0.5254 0.62259 0.88339 0.0
H369 H 0.55724 0.65708 0.81183 0.0
H370 H 0.4931 0.58692 0.69256 0.0
C371 C 0.4804 0.61693 0.56493 0.0
O372 O 0.48027 0.62928 0.64617 0.0
N373 N 0.55387 0.64846 0.45345 0.0
C374 C 0.57525 0.67188 0.42462 0.0
C375 C 0.57648 0.67217 0.32328 0.0
C376 C 0.54262 0.63467 0.37003 0.0
N377 N 0.55594 0.64875 0.28913 0.0
C378 C 0.55911 0.69187 0.66063 0.0
C379 C 0.52689 0.70326 0.54194 0.0
C380 C 0.54444 0.72298 0.608 0.0
C381 C 0.56082 0.71707 0.66761 0.0
C382 C 0.52578 0.67838 0.53752 0.0
N383 N 0.54089 0.67237 0.59943 0.0
H384 H 0.57321 0.68851 0.70188 0.0
H385 H 0.51343 0.66439 0.48123 0.0
H386 H 0.58851 0.68792 0.47369 0.0
H387 H 0.5245 0.61517 0.36866 0.0
O388 O 0.57641 0.6481 0.63157 0.0
O389 O 0.5459 0.60785 0.57689 0.0
O390 O 0.50236 0.61924 0.53193 0.0
C391 C 0.56988 0.62327 0.61224 0.0
H392 H 0.49 0.58281 0.88638 0.0
H393 H 0.59111 0.68852 0.2781 0.0
H394 H 0.5146 0.70729 0.4919 0.0
H395 H 0.57497 0.73181 0.71888 0.0
C396 C 0.49104 0.25749 0.19836 0.0
C397 C 0.47008 0.2604 0.1567 0.0
C398 C 0.49045 0.23272 0.1978 0.0
C399 C 0.46854 0.20929 0.15793 0.0
H400 H 0.50823 0.27451 0.23202 0.0
H401 H 0.50766 0.23217 0.228 0.0
S402 S 0.40766 0.20531 0.04343 0.0
N403 N 0.42679 0.23737 0.07233 0.0
N404 N 0.42436 0.19041 0.08094 0.0
C405 C 0.44699 0.21164 0.11861 0.0
C406 C 0.44802 0.23715 0.11609 0.0
C407 C 0.23684 0.48426 0.33246 0.0
C408 C 0.21543 0.4683 0.26809 0.0
C409 C 0.2615 0.48462 0.32708 0.0
C410 C 0.26574 0.4689 0.25765 0.0
H411 H 0.23448 0.49648 0.38802 0.0
H412 H 0.27733 0.49711 0.37848 0.0
S413 S 0.21706 0.42495 0.06811 0.0
N414 N 0.20077 0.43735 0.1293 0.0
N415 N 0.24695 0.4377 0.12085 0.0
C416 C 0.24463 0.45289 0.19275 0.0
C417 C 0.21955 0.45266 0.19761 0.0
C418 C 0.75472 0.23581 0.4414 0.0
C419 C 0.75389 0.21088 0.43552 0.0
C420 C 0.77928 0.26011 0.44789 0.0
C421 C 0.80409 0.26055 0.44792 0.0
H422 H 0.73617 0.23655 0.4418 0.0
H423 H 0.77883 0.27877 0.45186 0.0
S424 S 0.81312 0.20086 0.43357 0.0
N425 N 0.78013 0.18817 0.42902 0.0
N426 N 0.82627 0.23381 0.44289 0.0
C427 C 0.80359 0.23578 0.44205 0.0
C428 C 0.77853 0.21099 0.43574 0.0
C429 C 0.52172 0.75069 0.61728 0.0
C430 C 0.54573 0.7496 0.61257 0.0
C431 C 0.52214 0.77537 0.61965 0.0
C432 C 0.54658 0.80005 0.61662 0.0
H433 H 0.50239 0.73226 0.61968 0.0
H434 H 0.5031 0.77512 0.62265 0.0
S435 S 0.61512 0.80841 0.60423 0.0
N436 N 0.59467 0.77547 0.60408 0.0
N437 N 0.59548 0.82184 0.61051 0.0
C438 C 0.57076 0.79929 0.6122 0.0
C439 C 0.57033 0.77412 0.60999 0.0
C440 C 0.77579 0.5657 0.7719 0.0
C441 C 0.75087 0.54168 0.7811 0.0
C442 C 0.80013 0.56537 0.76596 0.0
C443 C 0.80047 0.54098 0.76789 0.0
H444 H 0.77651 0.58495 0.76977 0.0
H445 H 0.81878 0.58433 0.75798 0.0
S446 S 0.7408 0.47252 0.79182 0.0
N447 N 0.72811 0.49283 0.79168 0.0
N448 N 0.77377 0.49223 0.7821 0.0
C449 C 0.77572 0.51685 0.77778 0.0
C450 C 0.75098 0.51719 0.78415 0.0
C451 C 0.26129 0.77447 0.90518 0.0
C452 C 0.26152 0.79902 0.91544 0.0
C453 C 0.23709 0.74972 0.90801 0.0
C454 C 0.21209 0.7485 0.92007 0.0
H455 H 0.28004 0.77435 0.89647 0.0
H456 H 0.23796 0.73135 0.90029 0.0
S457 S 0.20153 0.80699 0.94846 0.0
N458 N 0.2345 0.82059 0.93629 0.0
N459 N 0.18906 0.77408 0.94259 0.0
C460 C 0.21198 0.7729 0.92947 0.0
C461 C 0.23666 0.79813 0.92717 0.0
C462 C 0.49857 0.11445 0.68417 0.0
C463 C 0.48007 0.09914 0.75837 0.0
C464 C 0.49074 0.11161 0.58504 0.0
C465 C 0.46409 0.09331 0.5563 0.0
H466 H 0.5191 0.12923 0.70333 0.0
H467 H 0.50547 0.12435 0.53079 0.0
S468 S 0.40894 0.04575 0.72027 0.0
N469 N 0.43464 0.06311 0.79504 0.0
N470 N 0.41988 0.05793 0.60898 0.0
C471 C 0.44564 0.07722 0.62934 0.0
C472 C 0.45363 0.08008 0.73026 0.0
C473 C 0.38552 0.49042 0.71513 0.0
C474 C 0.37483 0.46335 0.68669 0.0
C475 C 0.39029 0.49809 0.81439 0.0
C476 C 0.38441 0.47897 0.8891 0.0
H477 H 0.38961 0.50569 0.66044 0.0
H478 H 0.39818 0.51907 0.83315 0.0
S479 S 0.35974 0.40618 0.85337 0.0
N480 N 0.36099 0.41783 0.74116 0.0
N481 N 0.36977 0.43227 0.92763 0.0
C482 C 0.37452 0.45199 0.86175 0.0
C483 C 0.36979 0.44418 0.76062 0.0
C484 C 0.9005 0.34904 0.93559 0.0
C485 C 0.91526 0.36985 0.86761 0.0
C486 C 0.89794 0.35462 0.03431 0.0
C487 C 0.91001 0.38126 0.06934 0.0
H488 H 0.89041 0.32823 0.91195 0.0
H489 H 0.88607 0.33794 0.08343 0.0
S490 S 0.95271 0.44301 0.92308 0.0
N491 N 0.94331 0.41813 0.84357 0.0
N492 N 0.93865 0.42867 0.0288 0.0
C493 C 0.92516 0.40229 1.00241 0.0
C494 C 0.92774 0.39658 0.90177 0.0
C495 C 0.56778 0.9234 0.0948 0.0
C496 C 0.5488 0.91093 1.01894 0.0
C497 C 0.55982 0.92042 0.19394 0.0
C498 C 0.53252 0.90476 0.22134 0.0
H499 H 0.58898 0.93576 0.07721 0.0
H500 H 0.57515 0.93075 0.24944 0.0
S501 S 0.47502 0.86606 0.05183 0.0
N502 N 0.50155 0.88105 0.97883 0.0
N503 N 0.48665 0.87558 0.16456 0.0
C504 C 0.51335 0.89197 0.14628 0.0
C505 C 0.52145 0.895 0.04536 0.0
C506 C 0.63427 0.52352 0.21537 0.0
C507 C 0.64316 0.55032 0.18725 0.0
C508 C 0.62951 0.51561 0.31454 0.0
C509 C 0.63351 0.5342 0.38938 0.0
H510 H 0.63159 0.50868 0.16052 0.0
H511 H 0.62318 0.49492 0.33318 0.0
S512 S 0.65289 0.60581 0.35338 0.0
N513 N 0.65335 0.59482 0.24145 0.0
N514 N 0.64429 0.57994 0.42757 0.0
C515 C 0.6415 0.56083 0.362 0.0
C516 C 0.64636 0.56889 0.26105 0.0
C517 C 0.09171 0.64754 0.41547 0.0
C518 C 0.10437 0.64068 0.34125 0.0
C519 C 0.09348 0.6419 0.51481 0.0
C520 C 0.10788 0.62906 0.54352 0.0
H521 H 0.08009 0.65709 0.39642 0.0
H522 H 0.08315 0.6472 0.56942 0.0
S523 S 0.14689 0.60934 0.37993 0.0
N524 N 0.1336 0.62226 0.30506 0.0
N525 N 0.13625 0.61104 0.49118 0.0
C526 C 0.12091 0.62241 0.47051 0.0
C527 C 0.11933 0.62836 0.36957 0.0
C528 C 0.896 0.51156 0.20702 0.0
C529 C 0.90909 0.53082 0.13257 0.0
C530 C 0.898 0.5192 0.30623 0.0
C531 C 0.91333 0.54641 0.33476 0.0
H532 H 0.88368 0.49048 0.18802 0.0
H533 H 0.88699 0.50374 0.36072 0.0
S534 S 0.95452 0.60415 0.16912 0.0
N535 N 0.93984 0.57792 0.09478 0.0
N536 N 0.94377 0.5923 0.28088 0.0
C537 C 0.92723 0.56575 0.26114 0.0
C538 C 0.92509 0.55796 0.1602 0.0
C539 C 0.36795 0.92482 0.44776 0.0
C540 C 0.37151 0.91013 0.52344 0.0
C541 C 0.3721 0.9209 0.34868 0.0
C542 C 0.37983 0.902 0.3213 0.0
H543 H 0.36212 0.93962 0.46552 0.0
H544 H 0.36954 0.933 0.29325 0.0
S545 S 0.38947 0.85667 0.49082 0.0
N546 N 0.38174 0.87485 0.56376 0.0
N547 N 0.38943 0.86742 0.37811 0.0
C548 C 0.38314 0.88695 0.39631 0.0
C549 C 0.37899 0.891 0.49715 0.0
C550 C 0.45716 0.36538 0.53065 0.0
C551 C 0.48415 0.38226 0.50211 0.0
C552 C 0.45003 0.35945 0.63012 0.0
C553 C 0.46957 0.37016 0.70516 0.0
H554 H 0.44137 0.35686 0.4758 0.0
H555 H 0.429 0.34637 0.6485 0.0
S556 S 0.54326 0.41466 0.66863 0.0
N557 N 0.53059 0.40898 0.55659 0.0
N558 N 0.51729 0.39805 0.74301 0.0
C559 C 0.49664 0.38718 0.6775 0.0
C560 C 0.50389 0.39314 0.57621 0.0
C561 C 0.12184 0.49743 0.72405 0.0
C562 C 0.1072 0.47891 0.64911 0.0
C563 C 0.11821 0.48959 0.82324 0.0
C564 C 0.09977 0.46294 0.85141 0.0
H565 H 0.13658 0.51801 0.70559 0.0
H566 H 0.13042 0.50432 0.87812 0.0
S567 S 0.05375 0.40773 0.6847 0.0
N568 N 0.07169 0.43343 0.61057 0.0
N569 N 0.06493 0.4187 0.79688 0.0
C570 C 0.08435 0.44446 0.77745 0.0
C571 C 0.08805 0.45244 0.67639 0.0
C572 C 0.65936 0.11845 0.84112 0.0
C573 C 0.63262 0.10481 0.80643 0.0
C574 C 0.6654 0.11665 0.93991 0.0
C575 C 0.64496 0.10116 1.00822 0.0
H576 H 0.67574 0.13094 0.79168 0.0
H577 H 0.68623 0.12784 0.96338 0.0
S578 S 0.57191 0.05968 0.954 0.0
N579 N 0.58564 0.07391 0.84778 0.0
N580 N 0.59705 0.07081 0.0333 0.0
C581 C 0.61817 0.08717 0.97453 0.0
C582 C 0.61199 0.08891 0.87379 0.0
C583 C 0.55193 0.6616 0.11901 0.0
C584 C 0.54834 0.64165 0.18753 0.0
C585 C 0.54437 0.65518 1.02022 0.0
C586 C 0.53289 0.62854 0.98575 0.0
H587 H 0.56026 0.68231 0.14228 0.0
H588 H 0.54718 0.67116 0.97062 0.0
S589 S 0.52127 0.56917 0.13369 0.0
N590 N 0.53384 0.59437 0.2129 0.0
N591 N 0.51973 0.58227 0.02734 0.0
C592 C 0.5295 0.60841 0.05324 0.0
C593 C 0.53719 0.61498 0.15399 0.0
C594 C 0.55952 0.15082 0.34065 0.0
C595 C 0.55748 0.15034 0.23747 0.0
C596 C 0.58187 0.15175 0.38715 0.0
C597 C 0.60238 0.15129 0.33178 0.0
H598 H 0.54322 0.14939 0.38562 0.0
H599 H 0.58212 0.15086 0.46676 0.0
S600 S 0.60684 0.15082 0.05974 0.0
N601 N 0.57849 0.15094 0.08144 0.0
N602 N 0.61984 0.15138 0.1688 0.0
C603 C 0.60101 0.15176 0.22864 0.0
C604 C 0.57869 0.15162 0.18139 0.0
C605 C 0.40937 0.55806 0.53676 0.0
C606 C 0.40915 0.55038 0.43816 0.0
C607 C 0.43186 0.58089 0.5763 0.0
C608 C 0.45477 0.59688 0.51828 0.0
H609 H 0.39279 0.54553 0.5854 0.0
H610 H 0.43194 0.58501 0.65413 0.0
S611 S 0.46158 0.58924 0.25051 0.0
N612 N 0.43189 0.56338 0.27971 0.0
N613 N 0.47391 0.60616 0.35374 0.0
C614 C 0.45367 0.5909 0.41758 0.0
C615 C 0.4309 0.5677 0.37752 0.0
C616 C 0.86044 0.42948 0.50541 0.0
C617 C 0.86237 0.40919 0.55653 0.0
C618 C 0.86084 0.45102 0.5561 0.0
C619 C 0.86236 0.45248 0.65946 0.0
H620 H 0.86057 0.42973 0.42568 0.0
H621 H 0.86107 0.46721 0.51407 0.0
S622 S 0.86579 0.40328 0.82714 0.0
N623 N 0.86453 0.39113 0.71582 0.0
N624 N 0.86439 0.43114 0.81116 0.0
C625 C 0.86256 0.43143 0.71151 0.0
C626 C 0.86281 0.40988 0.6599 0.0
C627 C 0.43976 0.88467 0.82973 0.0
C628 C 0.41376 0.86223 0.82286 0.0
C629 C 0.46145 0.88559 0.77984 0.0
C630 C 0.45823 0.8642 0.71944 0.0
H631 H 0.44339 0.90205 0.87304 0.0
H632 H 0.4808 0.9038 0.78693 0.0
S633 S 0.39397 0.80036 0.67813 0.0
N634 N 0.38568 0.81769 0.75356 0.0
N635 N 0.42668 0.81937 0.65765 0.0
C636 C 0.43232 0.84124 0.71329 0.0
C637 C 0.41006 0.84023 0.76568 0.0
C638 C 0.56191 0.43572 0.98863 0.0
C639 C 0.55425 0.40966 0.95487 0.0
C640 C 0.58422 0.45846 0.94961 0.0
C641 C 0.60017 0.45638 0.8751 0.0
H642 H 0.54988 0.43891 0.04269 0.0
H643 H 0.58823 0.47791 0.97604 0.0
S644 S 0.59137 0.39249 0.77161 0.0
N645 N 0.5662 0.38277 0.85035 0.0
N646 N 0.60847 0.42573 0.77681 0.0
C647 C 0.594 0.43034 0.84548 0.0
C648 C 0.57098 0.40697 0.8853 0.0
C649 C 0.13985 0.56223 0.1447 0.0
C650 C 0.15131 0.54895 0.09408 0.0
C651 C 0.1394 0.58436 0.10381 0.0
C652 C 0.15058 0.59454 1.01074 0.0
H653 H 0.12999 0.55481 0.21499 0.0
H654 H 0.12915 0.59285 0.14421 0.0
S655 S 0.18598 0.56926 0.85205 0.0
N656 N 0.1765 0.54927 0.94917 0.0
N657 N 0.17558 0.59102 0.87217 0.0
C658 C 0.16378 0.5827 0.96184 0.0
C659 C 0.1642 0.55993 1.00359 0.0
C660 C 0.44282 0.01526 0.07011 0.0
C661 C 0.42952 0.0301 0.08213 0.0
C662 C 0.42949 0.98906 0.03294 0.0
C663 C 0.40206 0.97619 1.00705 0.0
H664 H 0.464 0.02404 0.0881 0.0
H665 H 0.44092 0.97875 0.0251 0.0
S666 S 0.35759 0.00583 0.02518 0.0
N667 N 0.38715 0.02995 0.0651 0.0
N668 N 0.36178 0.9801 0.99684 0.0
C669 C 0.38822 0.99049 1.01976 0.0
C670 C 0.40203 0.0176 0.05658 0.0
C671 C 0.44672 0.42948 0.17479 0.0
C672 C 0.43259 0.40157 0.15711 0.0
C673 C 0.43358 0.44298 0.20811 0.0
C674 C 0.40556 0.42933 0.22384 0.0
H675 H 0.46837 0.44111 0.16453 0.0
H676 H 0.4456 0.46449 0.22047 0.0
S677 S 0.35891 0.35623 0.18649 0.0
N678 N 0.38889 0.36058 0.1576 0.0
N679 N 0.36386 0.38625 0.21774 0.0
C680 C 0.39096 0.40144 0.20529 0.0
C681 C 0.40455 0.38749 0.17285 0.0
C682 C 0.02115 0.44258 0.3308 0.0
C683 C 0.03604 0.42924 0.32101 0.0
C684 C 0.9948 0.42937 0.36723 0.0
C685 C 0.98186 0.40205 0.39419 0.0
H686 H 0.03001 0.46368 0.31163 0.0
H687 H 0.98438 0.44073 0.37324 0.0
S688 S 0.01161 0.3576 0.38247 0.0
N689 N 0.03586 0.387 0.34192 0.0
N690 N 0.98576 0.36186 0.40822 0.0
C691 C 0.99623 0.3882 0.38381 0.0
C692 C 0.02346 0.40188 0.34803 0.0
C693 C 0.57131 0.99226 0.52242 0.0
C694 C 0.58533 0.97843 0.54187 0.0
C695 C 0.58453 0.01873 0.48779 0.0
C696 C 0.61255 0.03291 0.47213 0.0
H697 H 0.5497 0.98252 0.53341 0.0
H698 H 0.57257 0.02829 0.47489 0.0
S699 S 0.65886 0.006 0.5105 0.0
N700 N 0.62889 0.98071 0.54108 0.0
N701 N 0.65406 0.03108 0.47781 0.0
C702 C 0.62701 0.01946 0.49099 0.0
C703 C 0.61333 0.99207 0.52507 0.0
C704 C 0.60804 0.62396 0.70723 0.0
C705 C 0.58767 0.61204 0.63522 0.0
C706 C 0.62209 0.61103 0.74006 0.0
C707 C 0.61604 0.58583 0.70195 0.0
H708 H 0.61227 0.64271 0.74168 0.0
H709 H 0.63675 0.62014 0.79861 0.0
S710 S 0.56774 0.54813 0.50233 0.0
N711 N 0.56477 0.57507 0.51895 0.0
N712 N 0.5906 0.5508 0.58245 0.0
C713 C 0.59694 0.57454 0.62643 0.0
C714 C 0.5829 0.58767 0.59245 0.0
C715 C 0.02088 0.5804 0.85032 0.0
C716 C 0.03426 0.60793 0.87438 0.0
C717 C 0.9945 0.56728 0.81464 0.0
C718 C 0.97997 0.58092 0.8026 0.0
H719 H 0.03099 0.56877 0.85784 0.0
H720 H 0.98533 0.54603 0.79768 0.0
S721 S 1.00551 0.65316 0.85646 0.0
N722 N 0.03111 0.64862 0.88358 0.0
N723 N 0.98087 0.62363 0.81866 0.0
C724 C 0.99292 0.60847 0.82703 0.0
C725 C 0.02023 0.62206 0.86207 0.0
loop_
_geom_bond_atom_site_label_1
_geom_bond_atom_site_label_2
_geom_bond_distance
_geom_bond_site_symmetry_2
_ccdc_geom_bond_type
Co0 N4 2.148 1_554 S
Co0 N10 2.128 . S
Co0 N20 2.194 . S
Co0 O25 2.351 . S
Co0 O26 2.155 . S
Co0 O27 2.096 . S
C1 N4 1.301 . S
C1 N5 1.328 . S
C1 H6 0.930 . S
C2 C3 1.333 . S
C2 N4 1.317 . S
C2 H7 0.930 . S
C3 C2 1.333 . S
C3 N5 1.350 . S
C3 H29 0.931 . S
N4 Co0 2.148 1_556 S
N4 C1 1.301 . S
N4 C2 1.317 . S
N5 C1 1.328 . S
N5 C3 1.350 . S
H6 C1 0.930 . S
H7 C2 0.930 . S
C8 O9 1.224 . S
C8 O27 1.247 . S
O9 C8 1.224 . S
N10 Co0 2.128 . S
N10 C11 1.355 . S
N10 C13 1.311 . S
C11 N10 1.355 . S
C11 C12 1.363 . S
C11 H23 0.929 . S
C12 C11 1.363 . S
C12 N14 1.375 . S
C12 H30 0.931 . S
C13 N10 1.311 . S
C13 N14 1.347 . S
C13 H24 0.929 . S
N14 C12 1.375 . S
N14 C13 1.347 . S
C15 C18 1.365 . S
C15 N20 1.328 . S
C15 H21 0.929 . S
C16 C17 1.362 . S
C16 C19 1.378 . S
C16 H31 0.929 . S
C17 C16 1.362 . S
C17 C18 1.366 . S
C18 C15 1.365 . S
C18 C17 1.366 . S
C18 H32 0.930 . S
C19 C16 1.378 . S
C19 N20 1.315 . S
C19 H22 0.930 . S
N20 Co0 2.194 . S
N20 C15 1.328 . S
N20 C19 1.315 . S
H21 C15 0.929 . S
H22 C19 0.930 . S
H23 C11 0.929 . S
H24 C13 0.929 . S
O25 Co0 2.351 . S
O25 C28 1.244 . S
O26 Co0 2.155 . S
O26 C28 1.240 . S
O27 Co0 2.096 . S
O27 C8 1.247 . S
C28 O25 1.244 . S
C28 O26 1.240 . S
H29 C3 0.931 . S
H30 C12 0.931 . S
H31 C16 0.929 . S
H32 C18 0.930 . S
Co33 N37 2.148 . S
Co33 N43 2.128 . S
Co33 N53 2.194 . S
Co33 O58 2.351 . S
Co33 O59 2.155 . S
Co33 O60 2.096 . S
C34 N37 1.301 . S
C34 N38 1.328 1_554 S
C34 H39 0.930 . S
C35 C36 1.333 . S
C35 N37 1.317 . S
C35 H40 0.930 . S
C36 C35 1.333 . S
C36 N38 1.350 1_554 S
C36 H62 0.931 1_554 S
N37 Co33 2.148 . S
N37 C34 1.301 . S
N37 C35 1.317 . S
N38 C34 1.328 1_556 S
N38 C36 1.350 1_556 S
H39 C34 0.930 . S
H40 C35 0.930 . S
C41 O42 1.224 . S
C41 O60 1.247 . S
O42 C41 1.224 . S
N43 Co33 2.128 . S
N43 C44 1.355 . S
N43 C46 1.311 . S
C44 N43 1.355 . S
C44 C45 1.363 . S
C44 H56 0.929 . S
C45 C44 1.363 . S
C45 N47 1.375 . S
C45 H63 0.931 . S
C46 N43 1.311 . S
C46 N47 1.347 . S
C46 H57 0.929 . S
N47 C45 1.375 . S
N47 C46 1.347 . S
C48 C51 1.365 . S
C48 N53 1.328 . S
C48 H54 0.929 . S
C49 C50 1.362 . S
C49 C52 1.378 . S
C49 H64 0.929 . S
C50 C49 1.362 . S
C50 C51 1.366 . S
C51 C48 1.365 . S
C51 C50 1.366 . S
C51 H65 0.930 . S
C52 C49 1.378 . S
C52 N53 1.315 . S
C52 H55 0.930 . S
N53 Co33 2.194 . S
N53 C48 1.328 . S
N53 C52 1.315 . S
H54 C48 0.929 . S
H55 C52 0.930 . S
H56 C44 0.929 . S
H57 C46 0.929 . S
O58 Co33 2.351 . S
O58 C61 1.244 . S
O59 Co33 2.155 . S
O59 C61 1.240 . S
O60 Co33 2.096 . S
O60 C41 1.247 . S
C61 O58 1.244 . S
C61 O59 1.240 . S
H62 C36 0.931 1_556 S
H63 C45 0.931 . S
H64 C49 0.929 . S
H65 C51 0.930 . S
Co66 N70 2.148 . S
Co66 N76 2.128 . S
Co66 N86 2.194 . S
Co66 O91 2.351 . S
Co66 O92 2.155 . S
Co66 O93 2.096 . S
C67 N70 1.301 . S
C67 N71 1.328 . S
C67 H72 0.930 . S
C68 C69 1.333 . S
C68 N70 1.317 . S
C68 H73 0.930 . S
C69 C68 1.333 . S
C69 N71 1.350 . S
C69 H95 0.931 . S
N70 Co66 2.148 . S
N70 C67 1.301 . S
N70 C68 1.317 . S
N71 C67 1.328 . S
N71 C69 1.350 . S
H72 C67 0.930 . S
H73 C68 0.930 . S
C74 O75 1.224 . S
C74 O93 1.247 . S
O75 C74 1.224 . S
N76 Co66 2.128 . S
N76 C77 1.355 . S
N76 C79 1.311 . S
C77 N76 1.355 . S
C77 C78 1.363 . S
C77 H89 0.929 . S
C78 C77 1.363 . S
C78 N80 1.375 . S
C78 H96 0.931 . S
C79 N76 1.311 . S
C79 N80 1.347 . S
C79 H90 0.929 . S
N80 C78 1.375 . S
N80 C79 1.347 . S
C81 C84 1.365 . S
C81 N86 1.328 . S
C81 H87 0.929 . S
C82 C83 1.362 . S
C82 C85 1.378 . S
C82 H97 0.929 . S
C83 C82 1.362 . S
C83 C84 1.366 . S
C84 C81 1.365 . S
C84 C83 1.366 . S
C84 H98 0.930 . S
C85 C82 1.378 . S
C85 N86 1.315 . S
C85 H88 0.930 . S
N86 Co66 2.194 . S
N86 C81 1.328 . S
N86 C85 1.315 . S
H87 C81 0.929 . S
H88 C85 0.930 . S
H89 C77 0.929 . S
H90 C79 0.929 . S
O91 Co66 2.351 . S
O91 C94 1.244 . S
O92 Co66 2.155 . S
O92 C94 1.240 . S
O93 Co66 2.096 . S
O93 C74 1.247 . S
C94 O91 1.244 . S
C94 O92 1.240 . S
H95 C69 0.931 . S
H96 C78 0.931 . S
H97 C82 0.929 . S
H98 C84 0.930 . S
Co99 N103 2.148 . S
Co99 N109 2.128 . S
Co99 N119 2.194 . S
Co99 O124 2.351 . S
Co99 O125 2.155 . S
Co99 O126 2.096 . S
C100 N103 1.301 . S
C100 N104 1.328 . S
C100 H105 0.930 . S
C101 C102 1.333 . S
C101 N103 1.317 . S
C101 H106 0.930 . S
C102 C101 1.333 . S
C102 N104 1.350 . S
C102 H128 0.931 . S
N103 Co99 2.148 . S
N103 C100 1.301 . S
N103 C101 1.317 . S
N104 C100 1.328 . S
N104 C102 1.350 . S
H105 C100 0.930 . S
H106 C101 0.930 . S
C107 O108 1.224 . S
C107 O126 1.247 . S
O108 C107 1.224 . S
N109 Co99 2.128 . S
N109 C110 1.355 . S
N109 C112 1.311 . S
C110 N109 1.355 . S
C110 C111 1.363 . S
C110 H122 0.929 . S
C111 C110 1.363 . S
C111 N113 1.375 . S
C111 H129 0.931 . S
C112 N109 1.311 . S
C112 N113 1.347 . S
C112 H123 0.929 . S
N113 C111 1.375 . S
N113 C112 1.347 . S
C114 C117 1.365 . S
C114 N119 1.328 . S
C114 H120 0.929 . S
C115 C116 1.362 . S
C115 C118 1.378 . S
C115 H130 0.929 . S
C116 C115 1.362 . S
C116 C117 1.366 . S
C117 C114 1.365 . S
C117 C116 1.366 . S
C117 H131 0.930 . S
C118 C115 1.378 . S
C118 N119 1.315 . S
C118 H121 0.930 . S
N119 Co99 2.194 . S
N119 C114 1.328 . S
N119 C118 1.315 . S
H120 C114 0.929 . S
H121 C118 0.930 . S
H122 C110 0.929 . S
H123 C112 0.929 . S
O124 Co99 2.351 . S
O124 C127 1.244 . S
O125 Co99 2.155 . S
O125 C127 1.240 . S
O126 Co99 2.096 . S
O126 C107 1.247 . S
C127 O124 1.244 . S
C127 O125 1.240 . S
H128 C102 0.931 . S
H129 C111 0.931 . S
H130 C115 0.929 . S
H131 C117 0.930 . S
Co132 N136 2.148 . S
Co132 N142 2.128 . S
Co132 N152 2.194 . S
Co132 O157 2.351 . S
Co132 O158 2.155 . S
Co132 O159 2.096 . S
C133 N136 1.301 . S
C133 N137 1.328 . S
C133 H138 0.930 . S
C134 C135 1.333 . S
C134 N136 1.317 . S
C134 H139 0.930 . S
C135 C134 1.333 . S
C135 N137 1.350 . S
C135 H161 0.931 . S
N136 Co132 2.148 . S
N136 C133 1.301 . S
N136 C134 1.317 . S
N137 C133 1.328 . S
N137 C135 1.350 . S
H138 C133 0.930 . S
H139 C134 0.930 . S
C140 O141 1.224 . S
C140 O159 1.247 . S
O141 C140 1.224 . S
N142 Co132 2.128 . S
N142 C143 1.355 . S
N142 C145 1.311 1_556 S
C143 N142 1.355 . S
C143 C144 1.363 1_556 S
C143 H155 0.929 . S
C144 C143 1.363 1_554 S
C144 N146 1.375 . S
C144 H162 0.931 . S
C145 N142 1.311 1_554 S
C145 N146 1.347 . S
C145 H156 0.929 . S
N146 C144 1.375 . S
N146 C145 1.347 . S
C147 C150 1.365 . S
C147 N152 1.328 . S
C147 H153 0.929 . S
C148 C149 1.362 . S
C148 C151 1.378 . S
C148 H163 0.929 . S
C149 C148 1.362 . S
C149 C150 1.366 . S
C150 C147 1.365 . S
C150 C149 1.366 . S
C150 H164 0.930 . S
C151 C148 1.378 . S
C151 N152 1.315 . S
C151 H154 0.930 . S
N152 Co132 2.194 . S
N152 C147 1.328 . S
N152 C151 1.315 . S
H153 C147 0.929 . S
H154 C151 0.930 . S
H155 C143 0.929 . S
H156 C145 0.929 . S
O157 Co132 2.351 . S
O157 C160 1.244 . S
O158 Co132 2.155 . S
O158 C160 1.240 . S
O159 Co132 2.096 . S
O159 C140 1.247 . S
C160 O157 1.244 . S
C160 O158 1.240 . S
H161 C135 0.931 . S
H162 C144 0.931 . S
H163 C148 0.929 . S
H164 C150 0.930 . S
Co165 N169 2.148 . S
Co165 N175 2.128 1_556 S
Co165 N185 2.194 . S
Co165 O190 2.351 . S
Co165 O191 2.155 . S
Co165 O192 2.096 . S
C166 N169 1.301 . S
C166 N170 1.328 . S
C166 H171 0.930 . S
C167 C168 1.333 . S
C167 N169 1.317 . S
C167 H172 0.930 . S
C168 C167 1.333 . S
C168 N170 1.350 . S
C168 H194 0.931 . S
N169 Co165 2.148 . S
N169 C166 1.301 . S
N169 C167 1.317 . S
N170 C166 1.328 . S
N170 C168 1.350 . S
H171 C166 0.930 . S
H172 C167 0.930 . S
C173 O174 1.224 . S
C173 O192 1.247 1_554 S
O174 C173 1.224 . S
N175 Co165 2.128 1_554 S
N175 C176 1.355 . S
N175 C178 1.311 . S
C176 N175 1.355 . S
C176 C177 1.363 . S
C176 H188 0.929 . S
C177 C176 1.363 . S
C177 N179 1.375 . S
C177 H195 0.931 . S
C178 N175 1.311 . S
C178 N179 1.347 . S
C178 H189 0.929 . S
N179 C177 1.375 . S
N179 C178 1.347 . S
C180 C183 1.365 . S
C180 N185 1.328 . S
C180 H186 0.929 . S
C181 C182 1.362 . S
C181 C184 1.378 . S
C181 H196 0.929 . S
C182 C181 1.362 . S
C182 C183 1.366 . S
C183 C180 1.365 . S
C183 C182 1.366 . S
C183 H197 0.930 . S
C184 C181 1.378 . S
C184 N185 1.315 . S
C184 H187 0.930 . S
N185 Co165 2.194 . S
N185 C180 1.328 . S
N185 C184 1.315 . S
H186 C180 0.929 . S
H187 C184 0.930 . S
H188 C176 0.929 . S
H189 C178 0.929 . S
O190 Co165 2.351 . S
O190 C193 1.244 . S
O191 Co165 2.155 . S
O191 C193 1.240 . S
O192 Co165 2.096 . S
O192 C173 1.247 1_556 S
C193 O190 1.244 . S
C193 O191 1.240 . S
H194 C168 0.931 . S
H195 C177 0.931 . S
H196 C181 0.929 . S
H197 C183 0.930 . S
Co198 N202 2.148 . S
Co198 N208 2.128 . S
Co198 N218 2.194 . S
Co198 O223 2.351 . S
Co198 O224 2.155 . S
Co198 O225 2.096 . S
C199 N202 1.301 . S
C199 N203 1.328 1_556 S
C199 H204 0.930 . S
C200 C201 1.333 . S
C200 N202 1.317 . S
C200 H205 0.930 . S
C201 C200 1.333 . S
C201 N203 1.350 1_556 S
C201 H227 0.931 1_556 S
N202 Co198 2.148 . S
N202 C199 1.301 . S
N202 C200 1.317 . S
N203 C199 1.328 1_554 S
N203 C201 1.350 1_554 S
H204 C199 0.930 . S
H205 C200 0.930 . S
C206 O207 1.224 . S
C206 O225 1.247 . S
O207 C206 1.224 . S
N208 Co198 2.128 . S
N208 C209 1.355 . S
N208 C211 1.311 . S
C209 N208 1.355 . S
C209 C210 1.363 . S
C209 H221 0.929 . S
C210 C209 1.363 . S
C210 N212 1.375 . S
C210 H228 0.931 . S
C211 N208 1.311 . S
C211 N212 1.347 . S
C211 H222 0.929 . S
N212 C210 1.375 . S
N212 C211 1.347 . S
C213 C216 1.365 . S
C213 N218 1.328 . S
C213 H219 0.929 . S
C214 C215 1.362 . S
C214 C217 1.378 . S
C214 H229 0.929 . S
C215 C214 1.362 . S
C215 C216 1.366 . S
C216 C213 1.365 . S
C216 C215 1.366 . S
C216 H230 0.930 . S
C217 C214 1.378 . S
C217 N218 1.315 . S
C217 H220 0.930 . S
N218 Co198 2.194 . S
N218 C213 1.328 . S
N218 C217 1.315 . S
H219 C213 0.929 . S
H220 C217 0.930 . S
H221 C209 0.929 . S
H222 C211 0.929 . S
O223 Co198 2.351 . S
O223 C226 1.244 . S
O224 Co198 2.155 . S
O224 C226 1.240 . S
O225 Co198 2.096 . S
O225 C206 1.247 . S
C226 O223 1.244 . S
C226 O224 1.240 . S
H227 C201 0.931 1_554 S
H228 C210 0.931 . S
H229 C214 0.929 . S
H230 C216 0.930 . S
Co231 N235 2.148 1_556 S
Co231 N241 2.128 . S
Co231 N251 2.194 . S
Co231 O256 2.351 . S
Co231 O257 2.155 . S
Co231 O258 2.096 . S
C232 N235 1.301 . S
C232 N236 1.328 . S
C232 H237 0.930 . S
C233 C234 1.333 . S
C233 N235 1.317 . S
C233 H238 0.930 . S
C234 C233 1.333 . S
C234 N236 1.350 . S
C234 H260 0.931 . S
N235 Co231 2.148 1_554 S
N235 C232 1.301 . S
N235 C233 1.317 . S
N236 C232 1.328 . S
N236 C234 1.350 . S
H237 C232 0.930 . S
H238 C233 0.930 . S
C239 O240 1.224 . S
C239 O258 1.247 . S
O240 C239 1.224 . S
N241 Co231 2.128 . S
N241 C242 1.355 . S
N241 C244 1.311 . S
C242 N241 1.355 . S
C242 C243 1.363 . S
C242 H254 0.929 . S
C243 C242 1.363 . S
C243 N245 1.375 . S
C243 H261 0.931 . S
C244 N241 1.311 . S
C244 N245 1.347 . S
C244 H255 0.929 . S
N245 C243 1.375 . S
N245 C244 1.347 . S
C246 C249 1.365 . S
C246 N251 1.328 . S
C246 H252 0.929 . S
C247 C248 1.362 . S
C247 C250 1.378 . S
C247 H262 0.929 . S
C248 C247 1.362 . S
C248 C249 1.366 . S
C249 C246 1.365 . S
C249 C248 1.366 . S
C249 H263 0.930 . S
C250 C247 1.378 . S
C250 N251 1.315 . S
C250 H253 0.930 . S
N251 Co231 2.194 . S
N251 C246 1.328 . S
N251 C250 1.315 . S
H252 C246 0.929 . S
H253 C250 0.930 . S
H254 C242 0.929 . S
H255 C244 0.929 . S
O256 Co231 2.351 . S
O256 C259 1.244 . S
O257 Co231 2.155 . S
O257 C259 1.240 . S
O258 Co231 2.096 . S
O258 C239 1.247 . S
C259 O256 1.244 . S
C259 O257 1.240 . S
H260 C234 0.931 . S
H261 C243 0.931 . S
H262 C247 0.929 . S
H263 C249 0.930 . S
Co264 N268 2.148 . S
Co264 N274 2.128 1_554 S
Co264 N284 2.194 . S
Co264 O289 2.351 . S
Co264 O290 2.155 . S
Co264 O291 2.096 . S
C265 N268 1.301 . S
C265 N269 1.328 . S
C265 H270 0.930 . S
C266 C267 1.333 . S
C266 N268 1.317 . S
C266 H271 0.930 . S
C267 C266 1.333 . S
C267 N269 1.350 . S
C267 H293 0.931 . S
N268 Co264 2.148 . S
N268 C265 1.301 . S
N268 C266 1.317 . S
N269 C265 1.328 . S
N269 C267 1.350 . S
H270 C265 0.930 . S
H271 C266 0.930 . S
C272 O273 1.224 . S
C272 O291 1.247 1_556 S
O273 C272 1.224 . S
N274 Co264 2.128 1_556 S
N274 C275 1.355 . S
N274 C277 1.311 . S
C275 N274 1.355 . S
C275 C276 1.363 . S
C275 H287 0.929 . S
C276 C275 1.363 . S
C276 N278 1.375 . S
C276 H294 0.931 . S
C277 N274 1.311 . S
C277 N278 1.347 . S
C277 H288 0.929 . S
N278 C276 1.375 . S
N278 C277 1.347 . S
C279 C282 1.365 . S
C279 N284 1.328 . S
C279 H285 0.929 . S
C280 C281 1.362 . S
C280 C283 1.378 . S
C280 H295 0.929 . S
C281 C280 1.362 . S
C281 C282 1.366 . S
C282 C279 1.365 . S
C282 C281 1.366 . S
C282 H296 0.930 . S
C283 C280 1.378 . S
C283 N284 1.315 . S
C283 H286 0.930 . S
N284 Co264 2.194 . S
N284 C279 1.328 . S
N284 C283 1.315 . S
H285 C279 0.929 . S
H286 C283 0.930 . S
H287 C275 0.929 . S
H288 C277 0.929 . S
O289 Co264 2.351 . S
O289 C292 1.244 . S
O290 Co264 2.155 . S
O290 C292 1.240 . S
O291 Co264 2.096 . S
O291 C272 1.247 1_554 S
C292 O289 1.244 . S
C292 O290 1.240 . S
H293 C267 0.931 . S
H294 C276 0.931 . S
H295 C280 0.929 . S
H296 C282 0.930 . S
Co297 N301 2.148 . S
Co297 N307 2.128 . S
Co297 N317 2.194 . S
Co297 O322 2.351 . S
Co297 O323 2.155 . S
Co297 O324 2.096 . S
C298 N301 1.301 . S
C298 N302 1.328 . S
C298 H303 0.930 . S
C299 C300 1.333 . S
C299 N301 1.317 . S
C299 H304 0.930 . S
C300 C299 1.333 . S
C300 N302 1.350 . S
C300 H326 0.931 . S
N301 Co297 2.148 . S
N301 C298 1.301 . S
N301 C299 1.317 . S
N302 C298 1.328 . S
N302 C300 1.350 . S
H303 C298 0.930 . S
H304 C299 0.930 . S
C305 O306 1.224 . S
C305 O324 1.247 . S
O306 C305 1.224 . S
N307 Co297 2.128 . S
N307 C308 1.355 . S
N307 C310 1.311 1_554 S
C308 N307 1.355 . S
C308 C309 1.363 1_554 S
C308 H320 0.929 . S
C309 C308 1.363 1_556 S
C309 N311 1.375 . S
C309 H327 0.931 . S
C310 N307 1.311 1_556 S
C310 N311 1.347 . S
C310 H321 0.929 . S
N311 C309 1.375 . S
N311 C310 1.347 . S
C312 C315 1.365 . S
C312 N317 1.328 . S
C312 H318 0.929 . S
C313 C314 1.362 . S
C313 C316 1.378 . S
C313 H328 0.929 . S
C314 C313 1.362 . S
C314 C315 1.366 . S
C315 C312 1.365 . S
C315 C314 1.366 . S
C315 H329 0.930 . S
C316 C313 1.378 . S
C316 N317 1.315 . S
C316 H319 0.930 . S
N317 Co297 2.194 . S
N317 C312 1.328 . S
N317 C316 1.315 . S
H318 C312 0.929 . S
H319 C316 0.930 . S
H320 C308 0.929 . S
H321 C310 0.929 . S
O322 Co297 2.351 . S
O322 C325 1.244 . S
O323 Co297 2.155 . S
O323 C325 1.240 . S
O324 Co297 2.096 . S
O324 C305 1.247 . S
C325 O322 1.244 . S
C325 O323 1.240 . S
H326 C300 0.931 . S
H327 C309 0.931 . S
H328 C313 0.929 . S
H329 C315 0.930 . S
Co330 N334 2.148 . S
Co330 N340 2.128 . S
Co330 N350 2.194 . S
Co330 O355 2.351 . S
Co330 O356 2.155 . S
Co330 O357 2.096 . S
C331 N334 1.301 . S
C331 N335 1.328 . S
C331 H336 0.930 . S
C332 C333 1.333 . S
C332 N334 1.317 . S
C332 H337 0.930 . S
C333 C332 1.333 . S
C333 N335 1.350 . S
C333 H359 0.931 . S
N334 Co330 2.148 . S
N334 C331 1.301 . S
N334 C332 1.317 . S
N335 C331 1.328 . S
N335 C333 1.350 . S
H336 C331 0.930 . S
H337 C332 0.930 . S
C338 O339 1.224 . S
C338 O357 1.247 . S
O339 C338 1.224 . S
N340 Co330 2.128 . S
N340 C341 1.355 . S
N340 C343 1.311 . S
C341 N340 1.355 . S
C341 C342 1.363 . S
C341 H353 0.929 . S
C342 C341 1.363 . S
C342 N344 1.375 . S
C342 H360 0.931 . S
C343 N340 1.311 . S
C343 N344 1.347 . S
C343 H354 0.929 . S
N344 C342 1.375 . S
N344 C343 1.347 . S
C345 C348 1.365 . S
C345 N350 1.328 . S
C345 H351 0.929 . S
C346 C347 1.362 . S
C346 C349 1.378 . S
C346 H361 0.929 . S
C347 C346 1.362 . S
C347 C348 1.366 . S
C348 C345 1.365 . S
C348 C347 1.366 . S
C348 H362 0.930 . S
C349 C346 1.378 . S
C349 N350 1.315 . S
C349 H352 0.930 . S
N350 Co330 2.194 . S
N350 C345 1.328 . S
N350 C349 1.315 . S
H351 C345 0.929 . S
H352 C349 0.930 . S
H353 C341 0.929 . S
H354 C343 0.929 . S
O355 Co330 2.351 . S
O355 C358 1.244 . S
O356 Co330 2.155 . S
O356 C358 1.240 . S
O357 Co330 2.096 . S
O357 C338 1.247 . S
C358 O355 1.244 . S
C358 O356 1.240 . S
H359 C333 0.931 . S
H360 C342 0.931 . S
H361 C346 0.929 . S
H362 C348 0.930 . S
Co363 N367 2.148 . S
Co363 N373 2.128 . S
Co363 N383 2.194 . S
Co363 O388 2.351 . S
Co363 O389 2.155 . S
Co363 O390 2.096 . S
C364 N367 1.301 . S
C364 N368 1.328 . S
C364 H369 0.930 . S
C365 C366 1.333 . S
C365 N367 1.317 . S
C365 H370 0.930 . S
C366 C365 1.333 . S
C366 N368 1.350 . S
C366 H392 0.931 . S
N367 Co363 2.148 . S
N367 C364 1.301 . S
N367 C365 1.317 . S
N368 C364 1.328 . S
N368 C366 1.350 . S
H369 C364 0.930 . S
H370 C365 0.930 . S
C371 O372 1.224 . S
C371 O390 1.247 . S
O372 C371 1.224 . S
N373 Co363 2.128 . S
N373 C374 1.355 . S
N373 C376 1.311 . S
C374 N373 1.355 . S
C374 C375 1.363 . S
C374 H386 0.929 . S
C375 C374 1.363 . S
C375 N377 1.375 . S
C375 H393 0.931 . S
C376 N373 1.311 . S
C376 N377 1.347 . S
C376 H387 0.929 . S
N377 C375 1.375 . S
N377 C376 1.347 . S
C378 C381 1.365 . S
C378 N383 1.328 . S
C378 H384 0.929 . S
C379 C380 1.362 . S
C379 C382 1.378 . S
C379 H394 0.929 . S
C380 C379 1.362 . S
C380 C381 1.366 . S
C381 C378 1.365 . S
C381 C380 1.366 . S
C381 H395 0.930 . S
C382 C379 1.378 . S
C382 N383 1.315 . S
C382 H385 0.930 . S
N383 Co363 2.194 . S
N383 C378 1.328 . S
N383 C382 1.315 . S
H384 C378 0.929 . S
H385 C382 0.930 . S
H386 C374 0.929 . S
H387 C376 0.929 . S
O388 Co363 2.351 . S
O388 C391 1.244 . S
O389 Co363 2.155 . S
O389 C391 1.240 . S
O390 Co363 2.096 . S
O390 C371 1.247 . S
C391 O388 1.244 . S
C391 O389 1.240 . S
H392 C366 0.931 . S
H393 C375 0.931 . S
H394 C379 0.929 . S
H395 C381 0.930 . S
C396 C397 1.369 . S
C396 C398 1.419 . S
C396 H400 0.930 . S
C397 C396 1.369 . S
C397 C406 1.429 . S
C398 C396 1.419 . S
C398 C399 1.363 . S
C398 H401 0.929 . S
C399 C398 1.363 . S
C399 C405 1.428 . S
H400 C396 0.930 . S
H401 C398 0.929 . S
S402 N403 1.613 . S
S402 N404 1.610 . S
N403 S402 1.613 . S
N403 C406 1.350 . S
N404 S402 1.610 . S
N404 C405 1.351 . S
C405 C399 1.428 . S
C405 N404 1.351 . S
C405 C406 1.434 . S
C406 C397 1.429 . S
C406 N403 1.350 . S
C406 C405 1.434 . S
C407 C408 1.369 . S
C407 C409 1.419 . S
C407 H411 0.930 . S
C408 C407 1.369 . S
C408 C417 1.429 . S
C409 C407 1.419 . S
C409 C410 1.363 . S
C409 H412 0.929 . S
C410 C409 1.363 . S
C410 C416 1.428 . S
H411 C407 0.930 . S
H412 C409 0.929 . S
S413 N414 1.613 . S
S413 N415 1.610 . S
N414 S413 1.613 . S
N414 C417 1.350 . S
N415 S413 1.610 . S
N415 C416 1.351 . S
C416 C410 1.428 . S
C416 N415 1.351 . S
C416 C417 1.434 . S
C417 C408 1.429 . S
C417 N414 1.350 . S
C417 C416 1.434 . S
C418 C419 1.369 . S
C418 C420 1.419 . S
C418 H422 0.930 . S
C419 C418 1.369 . S
C419 C428 1.429 . S
C420 C418 1.419 . S
C420 C421 1.363 . S
C420 H423 0.929 . S
C421 C420 1.363 . S
C421 C427 1.428 . S
H422 C418 0.930 . S
H423 C420 0.929 . S
S424 N425 1.613 . S
S424 N426 1.610 . S
N425 S424 1.613 . S
N425 C428 1.350 . S
N426 S424 1.610 . S
N426 C427 1.351 . S
C427 C421 1.428 . S
C427 N426 1.351 . S
C427 C428 1.434 . S
C428 C419 1.429 . S
C428 N425 1.350 . S
C428 C427 1.434 . S
C429 C430 1.369 . S
C429 C431 1.419 . S
C429 H433 0.930 . S
C430 C429 1.369 . S
C430 C439 1.429 . S
C431 C429 1.419 . S
C431 C432 1.363 . S
C431 H434 0.929 . S
C432 C431 1.363 . S
C432 C438 1.428 . S
H433 C429 0.930 . S
H434 C431 0.929 . S
S435 N436 1.613 . S
S435 N437 1.610 . S
N436 S435 1.613 . S
N436 C439 1.350 . S
N437 S435 1.610 . S
N437 C438 1.351 . S
C438 C432 1.428 . S
C438 N437 1.351 . S
C438 C439 1.434 . S
C439 C430 1.429 . S
C439 N436 1.350 . S
C439 C438 1.434 . S
C440 C441 1.369 . S
C440 C442 1.419 . S
C440 H444 0.930 . S
C441 C440 1.369 . S
C441 C450 1.429 . S
C442 C440 1.419 . S
C442 C443 1.363 . S
C442 H445 0.929 . S
C443 C442 1.363 . S
C443 C449 1.428 . S
H444 C440 0.930 . S
H445 C442 0.929 . S
S446 N447 1.613 . S
S446 N448 1.610 . S
N447 S446 1.613 . S
N447 C450 1.350 . S
N448 S446 1.610 . S
N448 C449 1.351 . S
C449 C443 1.428 . S
C449 N448 1.351 . S
C449 C450 1.434 . S
C450 C441 1.429 . S
C450 N447 1.350 . S
C450 C449 1.434 . S
C451 C452 1.369 . S
C451 C453 1.419 . S
C451 H455 0.930 . S
C452 C451 1.369 . S
C452 C461 1.429 . S
C453 C451 1.419 . S
C453 C454 1.363 . S
C453 H456 0.929 . S
C454 C453 1.363 . S
C454 C460 1.428 . S
H455 C451 0.930 . S
H456 C453 0.929 . S
S457 N458 1.613 . S
S457 N459 1.610 . S
N458 S457 1.613 . S
N458 C461 1.350 . S
N459 S457 1.610 . S
N459 C460 1.351 . S
C460 C454 1.428 . S
C460 N459 1.351 . S
C460 C461 1.434 . S
C461 C452 1.429 . S
C461 N458 1.350 . S
C461 C460 1.434 . S
C462 C463 1.369 . S
C462 C464 1.419 . S
C462 H466 0.930 . S
C463 C462 1.369 . S
C463 C472 1.429 . S
C464 C462 1.419 . S
C464 C465 1.363 . S
C464 H467 0.929 . S
C465 C464 1.363 . S
C465 C471 1.428 . S
H466 C462 0.930 . S
H467 C464 0.929 . S
S468 N469 1.613 . S
S468 N470 1.610 . S
N469 S468 1.613 . S
N469 C472 1.350 . S
N470 S468 1.610 . S
N470 C471 1.351 . S
C471 C465 1.428 . S
C471 N470 1.351 . S
C471 C472 1.434 . S
C472 C463 1.429 . S
C472 N469 1.350 . S
C472 C471 1.434 . S
C473 C474 1.369 . S
C473 C475 1.419 . S
C473 H477 0.930 . S
C474 C473 1.369 . S
C474 C483 1.429 . S
C475 C473 1.419 . S
C475 C476 1.363 . S
C475 H478 0.929 . S
C476 C475 1.363 . S
C476 C482 1.428 . S
H477 C473 0.930 . S
H478 C475 0.929 . S
S479 N480 1.613 . S
S479 N481 1.610 . S
N480 S479 1.613 . S
N480 C483 1.350 . S
N481 S479 1.610 . S
N481 C482 1.351 . S
C482 C476 1.428 . S
C482 N481 1.351 . S
C482 C483 1.434 . S
C483 C474 1.429 . S
C483 N480 1.350 . S
C483 C482 1.434 . S
C484 C485 1.369 . S
C484 C486 1.419 1_556 S
C484 H488 0.930 . S
C485 C484 1.369 . S
C485 C494 1.429 . S
C486 C484 1.419 1_554 S
C486 C487 1.363 . S
C486 H489 0.929 . S
C487 C486 1.363 . S
C487 C493 1.428 1_554 S
H488 C484 0.930 . S
H489 C486 0.929 . S
S490 N491 1.613 . S
S490 N492 1.610 1_556 S
N491 S490 1.613 . S
N491 C494 1.350 . S
N492 S490 1.610 1_554 S
N492 C493 1.351 1_554 S
C493 C487 1.428 1_556 S
C493 N492 1.351 1_556 S
C493 C494 1.434 . S
C494 C485 1.429 . S
C494 N491 1.350 . S
C494 C493 1.434 . S
C495 C496 1.369 . S
C495 C497 1.419 . S
C495 H499 0.930 . S
C496 C495 1.369 . S
C496 C505 1.429 . S
C497 C495 1.419 . S
C497 C498 1.363 . S
C497 H500 0.929 . S
C498 C497 1.363 . S
C498 C504 1.428 . S
H499 C495 0.930 . S
H500 C497 0.929 . S
S501 N502 1.613 1_554 S
S501 N503 1.610 . S
N502 S501 1.613 1_556 S
N502 C505 1.350 1_556 S
N503 S501 1.610 . S
N503 C504 1.351 . S
C504 C498 1.428 . S
C504 N503 1.351 . S
C504 C505 1.434 . S
C505 C496 1.429 . S
C505 N502 1.350 1_554 S
C505 C504 1.434 . S
C506 C507 1.369 . S
C506 C508 1.419 . S
C506 H510 0.930 . S
C507 C506 1.369 . S
C507 C516 1.429 . S
C508 C506 1.419 . S
C508 C509 1.363 . S
C508 H511 0.929 . S
C509 C508 1.363 . S
C509 C515 1.428 . S
H510 C506 0.930 . S
H511 C508 0.929 . S
S512 N513 1.613 . S
S512 N514 1.610 . S
N513 S512 1.613 . S
N513 C516 1.350 . S
N514 S512 1.610 . S
N514 C515 1.351 . S
C515 C509 1.428 . S
C515 N514 1.351 . S
C515 C516 1.434 . S
C516 C507 1.429 . S
C516 N513 1.350 . S
C516 C515 1.434 . S
C517 C518 1.369 . S
C517 C519 1.419 . S
C517 H521 0.930 . S
C518 C517 1.369 . S
C518 C527 1.429 . S
C519 C517 1.419 . S
C519 C520 1.363 . S
C519 H522 0.929 . S
C520 C519 1.363 . S
C520 C526 1.428 . S
H521 C517 0.930 . S
H522 C519 0.929 . S
S523 N524 1.613 . S
S523 N525 1.610 . S
N524 S523 1.613 . S
N524 C527 1.350 . S
N525 S523 1.610 . S
N525 C526 1.351 . S
C526 C520 1.428 . S
C526 N525 1.351 . S
C526 C527 1.434 . S
C527 C518 1.429 . S
C527 N524 1.350 . S
C527 C526 1.434 . S
C528 C529 1.369 . S
C528 C530 1.419 . S
C528 H532 0.930 . S
C529 C528 1.369 . S
C529 C538 1.429 . S
C530 C528 1.419 . S
C530 C531 1.363 . S
C530 H533 0.929 . S
C531 C530 1.363 . S
C531 C537 1.428 . S
H532 C528 0.930 . S
H533 C530 0.929 . S
S534 N535 1.613 . S
S534 N536 1.610 . S
N535 S534 1.613 . S
N535 C538 1.350 . S
N536 S534 1.610 . S
N536 C537 1.351 . S
C537 C531 1.428 . S
C537 N536 1.351 . S
C537 C538 1.434 . S
C538 C529 1.429 . S
C538 N535 1.350 . S
C538 C537 1.434 . S
C539 C540 1.369 . S
C539 C541 1.419 . S
C539 H543 0.930 . S
C540 C539 1.369 . S
C540 C549 1.429 . S
C541 C539 1.419 . S
C541 C542 1.363 . S
C541 H544 0.929 . S
C542 C541 1.363 . S
C542 C548 1.428 . S
H543 C539 0.930 . S
H544 C541 0.929 . S
S545 N546 1.613 . S
S545 N547 1.610 . S
N546 S545 1.613 . S
N546 C549 1.350 . S
N547 S545 1.610 . S
N547 C548 1.351 . S
C548 C542 1.428 . S
C548 N547 1.351 . S
C548 C549 1.434 . S
C549 C540 1.429 . S
C549 N546 1.350 . S
C549 C548 1.434 . S
C550 C551 1.369 . S
C550 C552 1.419 . S
C550 H554 0.930 . S
C551 C550 1.369 . S
C551 C560 1.429 . S
C552 C550 1.419 . S
C552 C553 1.363 . S
C552 H555 0.929 . S
C553 C552 1.363 . S
C553 C559 1.428 . S
H554 C550 0.930 . S
H555 C552 0.929 . S
S556 N557 1.613 . S
S556 N558 1.610 . S
N557 S556 1.613 . S
N557 C560 1.350 . S
N558 S556 1.610 . S
N558 C559 1.351 . S
C559 C553 1.428 . S
C559 N558 1.351 . S
C559 C560 1.434 . S
C560 C551 1.429 . S
C560 N557 1.350 . S
C560 C559 1.434 . S
C561 C562 1.369 . S
C561 C563 1.419 . S
C561 H565 0.930 . S
C562 C561 1.369 . S
C562 C571 1.429 . S
C563 C561 1.419 . S
C563 C564 1.363 . S
C563 H566 0.929 . S
C564 C563 1.363 . S
C564 C570 1.428 . S
H565 C561 0.930 . S
H566 C563 0.929 . S
S567 N568 1.613 . S
S567 N569 1.610 . S
N568 S567 1.613 . S
N568 C571 1.350 . S
N569 S567 1.610 . S
N569 C570 1.351 . S
C570 C564 1.428 . S
C570 N569 1.351 . S
C570 C571 1.434 . S
C571 C562 1.429 . S
C571 N568 1.350 . S
C571 C570 1.434 . S
C572 C573 1.369 . S
C572 C574 1.419 . S
C572 H576 0.930 . S
C573 C572 1.369 . S
C573 C582 1.429 . S
C574 C572 1.419 . S
C574 C575 1.363 . S
C574 H577 0.929 . S
C575 C574 1.363 . S
C575 C581 1.428 . S
H576 C572 0.930 . S
H577 C574 0.929 . S
S578 N579 1.613 . S
S578 N580 1.610 . S
N579 S578 1.613 . S
N579 C582 1.350 . S
N580 S578 1.610 . S
N580 C581 1.351 . S
C581 C575 1.428 . S
C581 N580 1.351 . S
C581 C582 1.434 . S
C582 C573 1.429 . S
C582 N579 1.350 . S
C582 C581 1.434 . S
C583 C584 1.369 . S
C583 C585 1.419 1_554 S
C583 H587 0.930 . S
C584 C583 1.369 . S
C584 C593 1.429 . S
C585 C583 1.419 1_556 S
C585 C586 1.363 . S
C585 H588 0.929 . S
C586 C585 1.363 . S
C586 C592 1.428 1_556 S
H587 C583 0.930 . S
H588 C585 0.929 . S
S589 N590 1.613 . S
S589 N591 1.610 1_554 S
N590 S589 1.613 . S
N590 C593 1.350 . S
N591 S589 1.610 1_556 S
N591 C592 1.351 1_556 S
C592 C586 1.428 1_554 S
C592 N591 1.351 1_554 S
C592 C593 1.434 . S
C593 C584 1.429 . S
C593 N590 1.350 . S
C593 C592 1.434 . S
C594 C595 1.369 . S
C594 C596 1.419 . S
C594 H598 0.930 . S
C595 C594 1.369 . S
C595 C604 1.429 . S
C596 C594 1.419 . S
C596 C597 1.363 . S
C596 H599 0.929 . S
C597 C596 1.363 . S
C597 C603 1.428 . S
H598 C594 0.930 . S
H599 C596 0.929 . S
S600 N601 1.613 . S
S600 N602 1.610 . S
N601 S600 1.613 . S
N601 C604 1.350 . S
N602 S600 1.610 . S
N602 C603 1.351 . S
C603 C597 1.428 . S
C603 N602 1.351 . S
C603 C604 1.434 . S
C604 C595 1.429 . S
C604 N601 1.350 . S
C604 C603 1.434 . S
C605 C606 1.369 . S
C605 C607 1.419 . S
C605 H609 0.930 . S
C606 C605 1.369 . S
C606 C615 1.429 . S
C607 C605 1.419 . S
C607 C608 1.363 . S
C607 H610 0.929 . S
C608 C607 1.363 . S
C608 C614 1.428 . S
H609 C605 0.930 . S
H610 C607 0.929 . S
S611 N612 1.613 . S
S611 N613 1.610 . S
N612 S611 1.613 . S
N612 C615 1.350 . S
N613 S611 1.610 . S
N613 C614 1.351 . S
C614 C608 1.428 . S
C614 N613 1.351 . S
C614 C615 1.434 . S
C615 C606 1.429 . S
C615 N612 1.350 . S
C615 C614 1.434 . S
C616 C617 1.369 . S
C616 C618 1.419 . S
C616 H620 0.930 . S
C617 C616 1.369 . S
C617 C626 1.429 . S
C618 C616 1.419 . S
C618 C619 1.363 . S
C618 H621 0.929 . S
C619 C618 1.363 . S
C619 C625 1.428 . S
H620 C616 0.930 . S
H621 C618 0.929 . S
S622 N623 1.613 . S
S622 N624 1.610 . S
N623 S622 1.613 . S
N623 C626 1.350 . S
N624 S622 1.610 . S
N624 C625 1.351 . S
C625 C619 1.428 . S
C625 N624 1.351 . S
C625 C626 1.434 . S
C626 C617 1.429 . S
C626 N623 1.350 . S
C626 C625 1.434 . S
C627 C628 1.369 . S
C627 C629 1.419 . S
C627 H631 0.930 . S
C628 C627 1.369 . S
C628 C637 1.429 . S
C629 C627 1.419 . S
C629 C630 1.363 . S
C629 H632 0.929 . S
C630 C629 1.363 . S
C630 C636 1.428 . S
H631 C627 0.930 . S
H632 C629 0.929 . S
S633 N634 1.613 . S
S633 N635 1.610 . S
N634 S633 1.613 . S
N634 C637 1.350 . S
N635 S633 1.610 . S
N635 C636 1.351 . S
C636 C630 1.428 . S
C636 N635 1.351 . S
C636 C637 1.434 . S
C637 C628 1.429 . S
C637 N634 1.350 . S
C637 C636 1.434 . S
C638 C639 1.369 . S
C638 C640 1.419 . S
C638 H642 0.930 . S
C639 C638 1.369 . S
C639 C648 1.429 . S
C640 C638 1.419 . S
C640 C641 1.363 . S
C640 H643 0.929 . S
C641 C640 1.363 . S
C641 C647 1.428 . S
H642 C638 0.930 . S
H643 C640 0.929 . S
S644 N645 1.613 . S
S644 N646 1.610 . S
N645 S644 1.613 . S
N645 C648 1.350 . S
N646 S644 1.610 . S
N646 C647 1.351 . S
C647 C641 1.428 . S
C647 N646 1.351 . S
C647 C648 1.434 . S
C648 C639 1.429 . S
C648 N645 1.350 . S
C648 C647 1.434 . S
C649 C650 1.369 . S
C649 C651 1.419 . S
C649 H653 0.930 . S
C650 C649 1.369 . S
C650 C659 1.429 . S
C651 C649 1.419 . S
C651 C652 1.363 . S
C651 H654 0.929 . S
C652 C651 1.363 . S
C652 C658 1.428 . S
H653 C649 0.930 . S
H654 C651 0.929 . S
S655 N656 1.613 . S
S655 N657 1.610 . S
N656 S655 1.613 . S
N656 C659 1.350 . S
N657 S655 1.610 . S
N657 C658 1.351 . S
C658 C652 1.428 . S
C658 N657 1.351 . S
C658 C659 1.434 . S
C659 C650 1.429 . S
C659 N656 1.350 . S
C659 C658 1.434 . S
C660 C661 1.369 1_556 S
C660 C662 1.419 1_545 S
C660 H664 0.930 . S
C661 C660 1.369 1_554 S
C661 C670 1.429 . S
C662 C660 1.419 1_565 S
C662 C663 1.363 . S
C662 H665 0.929 . S
C663 C662 1.363 . S
C663 C669 1.428 1_556 S
H664 C660 0.930 . S
H665 C662 0.929 . S
S666 N667 1.613 1_565 S
S666 N668 1.610 . S
N667 S666 1.613 1_545 S
N667 C670 1.350 . S
N668 S666 1.610 . S
N668 C669 1.351 . S
C669 C663 1.428 1_554 S
C669 N668 1.351 . S
C669 C670 1.434 1_565 S
C670 C661 1.429 . S
C670 N667 1.350 . S
C670 C669 1.434 1_545 S
C671 C672 1.369 . S
C671 C673 1.419 . S
C671 H675 0.930 . S
C672 C671 1.369 . S
C672 C681 1.429 . S
C673 C671 1.419 . S
C673 C674 1.363 . S
C673 H676 0.929 . S
C674 C673 1.363 . S
C674 C680 1.428 . S
H675 C671 0.930 . S
H676 C673 0.929 . S
S677 N678 1.613 . S
S677 N679 1.610 . S
N678 S677 1.613 . S
N678 C681 1.350 . S
N679 S677 1.610 . S
N679 C680 1.351 . S
C680 C674 1.428 . S
C680 N679 1.351 . S
C680 C681 1.434 . S
C681 C672 1.429 . S
C681 N678 1.350 . S
C681 C680 1.434 . S
C682 C683 1.369 . S
C682 C684 1.419 1_455 S
C682 H686 0.930 . S
C683 C682 1.369 . S
C683 C692 1.429 . S
C684 C682 1.419 1_655 S
C684 C685 1.363 . S
C684 H687 0.929 . S
C685 C684 1.363 . S
C685 C691 1.428 . S
H686 C682 0.930 . S
H687 C684 0.929 . S
S688 N689 1.626 . S
S688 N690 1.571 1_455 S
N689 S688 1.626 . S
N689 C692 1.350 . S
N690 S688 1.571 1_655 S
N690 C691 1.351 . S
C691 C685 1.428 . S
C691 N690 1.351 . S
C691 C692 1.434 1_655 S
C692 C683 1.429 . S
C692 N689 1.350 . S
C692 C691 1.434 1_455 S
C693 C694 1.369 . S
C693 C695 1.419 1_565 S
C693 H697 0.930 . S
C694 C693 1.369 . S
C694 C703 1.429 . S
C695 C693 1.419 1_545 S
C695 C696 1.363 . S
C695 H698 0.929 . S
C696 C695 1.363 . S
C696 C702 1.428 . S
H697 C693 0.930 . S
H698 C695 0.929 . S
S699 N700 1.613 . S
S699 N701 1.610 1_565 S
N700 S699 1.613 . S
N700 C703 1.350 . S
N701 S699 1.610 1_545 S
N701 C702 1.351 . S
C702 C696 1.428 . S
C702 N701 1.351 . S
C702 C703 1.434 1_545 S
C703 C694 1.429 . S
C703 N700 1.350 . S
C703 C702 1.434 1_565 S
C704 C705 1.369 . S
C704 C706 1.419 . S
C704 H708 0.930 . S
C705 C704 1.369 . S
C705 C714 1.429 . S
C706 C704 1.419 . S
C706 C707 1.363 . S
C706 H709 0.929 . S
C707 C706 1.363 . S
C707 C713 1.428 . S
H708 C704 0.930 . S
H709 C706 0.929 . S
S710 N711 1.613 . S
S710 N712 1.610 . S
N711 S710 1.613 . S
N711 C714 1.350 . S
N712 S710 1.610 . S
N712 C713 1.351 . S
C713 C707 1.428 . S
C713 N712 1.351 . S
C713 C714 1.434 . S
C714 C705 1.429 . S
C714 N711 1.350 . S
C714 C713 1.434 . S
C715 C716 1.369 . S
C715 C717 1.419 1_455 S
C715 H719 0.930 . S
C716 C715 1.369 . S
C716 C725 1.429 . S
C717 C715 1.419 1_655 S
C717 C718 1.363 . S
C717 H720 0.929 . S
C718 C717 1.363 . S
C718 C724 1.428 . S
H719 C715 0.930 . S
H720 C717 0.929 . S
S721 N722 1.634 . S
S721 N723 1.604 1_455 S
N722 S721 1.634 . S
N722 C725 1.350 . S
N723 S721 1.604 1_655 S
N723 C724 1.351 . S
C724 C718 1.428 . S
C724 N723 1.351 . S
C724 C725 1.434 1_655 S
C725 C716 1.429 . S
C725 N722 1.350 . S
C725 C724 1.434 1_455 S
C397 C281 1.375 . S
C399 C17 1.377 . S
C408 C314 1.378 . S
C410 C50 1.375 . S
C419 C347 1.376 . S
C421 C83 1.376 . S
C430 C380 1.375 . S
C432 C116 1.377 . S
C441 C149 1.376 . S
C443 C215 1.374 . S
C452 C248 1.376 . S
C454 C182 1.376 . S
C463 N5 1.469 . S
C465 N14 1.466 . S
C474 N47 1.465 . S
C476 N38 1.470 . S
C485 N80 1.467 . S
C487 N71 1.468 . S
C496 N113 1.467 1_554 S
C498 N104 1.468 . S
C507 N146 1.464 . S
C509 N137 1.470 . S
C518 N179 1.467 . S
C520 N170 1.469 . S
C529 N203 1.470 . S
C531 N212 1.465 . S
C540 N245 1.467 . S
C542 N236 1.469 . S
C551 N269 1.469 . S
C553 N278 1.466 . S
C562 N302 1.470 . S
C564 N311 1.465 . S
C573 N335 1.468 . S
C575 N344 1.467 1_556 S
C584 N377 1.468 . S
C586 N368 1.468 . S
C595 C8 1.551 . S
C597 C338 1.550 . S
C606 C41 1.552 . S
C608 C371 1.551 . S
C617 C74 1.550 . S
C619 C206 1.552 . S
C628 C239 1.551 . S
C630 C107 1.552 . S
C639 C272 1.552 . S
C641 C140 1.551 . S
C650 C305 1.552 . S
C652 C173 1.551 . S
C661 C28 1.259 . S
C663 C259 1.258 . S
C672 C292 1.262 . S
C674 C61 1.260 . S
C683 C325 1.262 . S
C685 C94 1.260 . S
C694 C127 1.259 . S
C696 C358 1.260 . S
C705 C391 1.255 . S
C707 C160 1.255 . S
C716 C193 1.262 . S
C718 C226 1.260 . S
