# Generated by pormake.
# Topology nfb, (4)-cn, num edge types: 1
# Building blocks:
#     Node 0, Type 0, BuildingBlock: NAHDIM_clean_sbu_0, # of connection points: 4
#     Node 1, Type 0, BuildingBlock: NAHDIM_clean_sbu_0, # of connection points: 4
#     Node 2, Type 0, BuildingBlock: NAHDIM_clean_sbu_0, # of connection points: 4
#     Node 3, Type 0, BuildingBlock: NAHDIM_clean_sbu_0, # of connection points: 4
#     Node 4, Type 0, BuildingBlock: NAHDIM_clean_sbu_0, # of connection points: 4
#     Node 5, Type 0, BuildingBlock: NAHDIM_clean_sbu_0, # of connection points: 4
#     Node 6, Type 0, BuildingBlock: NAHDIM_clean_sbu_0, # of connection points: 4
#     Node 7, Type 0, BuildingBlock: NAHDIM_clean_sbu_0, # of connection points: 4
#     Node 8, Type 0, BuildingBlock: NAHDIM_clean_sbu_0, # of connection points: 4
#     Node 9, Type 0, BuildingBlock: NAHDIM_clean_sbu_0, # of connection points: 4
#     Node 10, Type 0, BuildingBlock: NAHDIM_clean_sbu_0, # of connection points: 4
#     Node 11, Type 0, BuildingBlock: NAHDIM_clean_sbu_0, # of connection points: 4
#     Node 12, Type 0, BuildingBlock: NAHDIM_clean_sbu_0, # of connection points: 4
#     Node 13, Type 0, BuildingBlock: NAHDIM_clean_sbu_0, # of connection points: 4
#     Node 14, Type 0, BuildingBlock: NAHDIM_clean_sbu_0, # of connection points: 4
#     Node 15, Type 0, BuildingBlock: NAHDIM_clean_sbu_0, # of connection points: 4
#     Node 16, Type 0, BuildingBlock: NAHDIM_clean_sbu_0, # of connection points: 4
#     Node 17, Type 0, BuildingBlock: NAHDIM_clean_sbu_0, # of connection points: 4
#     Node 18, Type 0, BuildingBlock: NAHDIM_clean_sbu_0, # of connection points: 4
#     Node 19, Type 0, BuildingBlock: NAHDIM_clean_sbu_0, # of connection points: 4
#     Node 20, Type 0, BuildingBlock: NAHDIM_clean_sbu_0, # of connection points: 4
#     Node 21, Type 0, BuildingBlock: NAHDIM_clean_sbu_0, # of connection points: 4
#     Node 22, Type 0, BuildingBlock: NAHDIM_clean_sbu_0, # of connection points: 4
#     Node 23, Type 0, BuildingBlock: NAHDIM_clean_sbu_0, # of connection points: 4
#     Node 24, Type 0, BuildingBlock: NAHDIM_clean_sbu_0, # of connection points: 4
#     Node 25, Type 0, BuildingBlock: NAHDIM_clean_sbu_0, # of connection points: 4
#     Node 26, Type 0, BuildingBlock: NAHDIM_clean_sbu_0, # of connection points: 4
#     Node 27, Type 0, BuildingBlock: NAHDIM_clean_sbu_0, # of connection points: 4
#     Node 28, Type 0, BuildingBlock: NAHDIM_clean_sbu_0, # of connection points: 4
#     Node 29, Type 0, BuildingBlock: NAHDIM_clean_sbu_0, # of connection points: 4
#     Node 30, Type 0, BuildingBlock: NAHDIM_clean_sbu_0, # of connection points: 4
#     Node 31, Type 0, BuildingBlock: NAHDIM_clean_sbu_0, # of connection points: 4
#     Node 32, Type 0, BuildingBlock: NAHDIM_clean_sbu_0, # of connection points: 4
#     Node 33, Type 0, BuildingBlock: NAHDIM_clean_sbu_0, # of connection points: 4
#     Node 34, Type 0, BuildingBlock: NAHDIM_clean_sbu_0, # of connection points: 4
#     Node 35, Type 0, BuildingBlock: NAHDIM_clean_sbu_0, # of connection points: 4
#     Node 36, Type 0, BuildingBlock: NAHDIM_clean_sbu_0, # of connection points: 4
#     Node 37, Type 0, BuildingBlock: NAHDIM_clean_sbu_0, # of connection points: 4
#     Node 38, Type 0, BuildingBlock: NAHDIM_clean_sbu_0, # of connection points: 4
#     Node 39, Type 0, BuildingBlock: NAHDIM_clean_sbu_0, # of connection points: 4
#     Node 40, Type 0, BuildingBlock: NAHDIM_clean_sbu_0, # of connection points: 4
#     Node 41, Type 0, BuildingBlock: NAHDIM_clean_sbu_0, # of connection points: 4
#     Node 42, Type 0, BuildingBlock: NAHDIM_clean_sbu_0, # of connection points: 4
#     Node 43, Type 0, BuildingBlock: NAHDIM_clean_sbu_0, # of connection points: 4
#     Node 44, Type 0, BuildingBlock: NAHDIM_clean_sbu_0, # of connection points: 4
#     Node 45, Type 0, BuildingBlock: NAHDIM_clean_sbu_0, # of connection points: 4
#     Node 46, Type 0, BuildingBlock: NAHDIM_clean_sbu_0, # of connection points: 4
#     Node 47, Type 0, BuildingBlock: NAHDIM_clean_sbu_0, # of connection points: 4
#     Edge 48, Type (0, 0), BuildingBlock: OJICUG_clean_linker_0, # of connection points: 2
#     Edge 49, Type (0, 0), BuildingBlock: OJICUG_clean_linker_0, # of connection points: 2
#     Edge 50, Type (0, 0), BuildingBlock: OJICUG_clean_linker_0, # of connection points: 2
#     Edge 51, Type (0, 0), BuildingBlock: OJICUG_clean_linker_0, # of connection points: 2
#     Edge 52, Type (0, 0), BuildingBlock: OJICUG_clean_linker_0, # of connection points: 2
#     Edge 53, Type (0, 0), BuildingBlock: OJICUG_clean_linker_0, # of connection points: 2
#     Edge 54, Type (0, 0), BuildingBlock: OJICUG_clean_linker_0, # of connection points: 2
#     Edge 55, Type (0, 0), BuildingBlock: OJICUG_clean_linker_0, # of connection points: 2
#     Edge 56, Type (0, 0), BuildingBlock: OJICUG_clean_linker_0, # of connection points: 2
#     Edge 57, Type (0, 0), BuildingBlock: OJICUG_clean_linker_0, # of connection points: 2
#     Edge 58, Type (0, 0), BuildingBlock: OJICUG_clean_linker_0, # of connection points: 2
#     Edge 59, Type (0, 0), BuildingBlock: OJICUG_clean_linker_0, # of connection points: 2
#     Edge 60, Type (0, 0), BuildingBlock: OJICUG_clean_linker_0, # of connection points: 2
#     Edge 61, Type (0, 0), BuildingBlock: OJICUG_clean_linker_0, # of connection points: 2
#     Edge 62, Type (0, 0), BuildingBlock: OJICUG_clean_linker_0, # of connection points: 2
#     Edge 63, Type (0, 0), BuildingBlock: OJICUG_clean_linker_0, # of connection points: 2
#     Edge 64, Type (0, 0), BuildingBlock: OJICUG_clean_linker_0, # of connection points: 2
#     Edge 65, Type (0, 0), BuildingBlock: OJICUG_clean_linker_0, # of connection points: 2
#     Edge 66, Type (0, 0), BuildingBlock: OJICUG_clean_linker_0, # of connection points: 2
#     Edge 67, Type (0, 0), BuildingBlock: OJICUG_clean_linker_0, # of connection points: 2
#     Edge 68, Type (0, 0), BuildingBlock: OJICUG_clean_linker_0, # of connection points: 2
#     Edge 69, Type (0, 0), BuildingBlock: OJICUG_clean_linker_0, # of connection points: 2
#     Edge 70, Type (0, 0), BuildingBlock: OJICUG_clean_linker_0, # of connection points: 2
#     Edge 71, Type (0, 0), BuildingBlock: OJICUG_clean_linker_0, # of connection points: 2
#     Edge 72, Type (0, 0), BuildingBlock: OJICUG_clean_linker_0, # of connection points: 2
#     Edge 73, Type (0, 0), BuildingBlock: OJICUG_clean_linker_0, # of connection points: 2
#     Edge 74, Type (0, 0), BuildingBlock: OJICUG_clean_linker_0, # of connection points: 2
#     Edge 75, Type (0, 0), BuildingBlock: OJICUG_clean_linker_0, # of connection points: 2
#     Edge 76, Type (0, 0), BuildingBlock: OJICUG_clean_linker_0, # of connection points: 2
#     Edge 77, Type (0, 0), BuildingBlock: OJICUG_clean_linker_0, # of connection points: 2
#     Edge 78, Type (0, 0), BuildingBlock: OJICUG_clean_linker_0, # of connection points: 2
#     Edge 79, Type (0, 0), BuildingBlock: OJICUG_clean_linker_0, # of connection points: 2
#     Edge 80, Type (0, 0), BuildingBlock: OJICUG_clean_linker_0, # of connection points: 2
#     Edge 81, Type (0, 0), BuildingBlock: OJICUG_clean_linker_0, # of connection points: 2
#     Edge 82, Type (0, 0), BuildingBlock: OJICUG_clean_linker_0, # of connection points: 2
#     Edge 83, Type (0, 0), BuildingBlock: OJICUG_clean_linker_0, # of connection points: 2
#     Edge 84, Type (0, 0), BuildingBlock: OJICUG_clean_linker_0, # of connection points: 2
#     Edge 85, Type (0, 0), BuildingBlock: OJICUG_clean_linker_0, # of connection points: 2
#     Edge 86, Type (0, 0), BuildingBlock: OJICUG_clean_linker_0, # of connection points: 2
#     Edge 87, Type (0, 0), BuildingBlock: OJICUG_clean_linker_0, # of connection points: 2
#     Edge 88, Type (0, 0), BuildingBlock: OJICUG_clean_linker_0, # of connection points: 2
#     Edge 89, Type (0, 0), BuildingBlock: OJICUG_clean_linker_0, # of connection points: 2
#     Edge 90, Type (0, 0), BuildingBlock: OJICUG_clean_linker_0, # of connection points: 2
#     Edge 91, Type (0, 0), BuildingBlock: OJICUG_clean_linker_0, # of connection points: 2
#     Edge 92, Type (0, 0), BuildingBlock: OJICUG_clean_linker_0, # of connection points: 2
#     Edge 93, Type (0, 0), BuildingBlock: OJICUG_clean_linker_0, # of connection points: 2
#     Edge 94, Type (0, 0), BuildingBlock: OJICUG_clean_linker_0, # of connection points: 2
#     Edge 95, Type (0, 0), BuildingBlock: OJICUG_clean_linker_0, # of connection points: 2
#     Edge 96, Type (0, 0), BuildingBlock: OJICUG_clean_linker_0, # of connection points: 2
#     Edge 97, Type (0, 0), BuildingBlock: OJICUG_clean_linker_0, # of connection points: 2
#     Edge 98, Type (0, 0), BuildingBlock: OJICUG_clean_linker_0, # of connection points: 2
#     Edge 99, Type (0, 0), BuildingBlock: OJICUG_clean_linker_0, # of connection points: 2
#     Edge 100, Type (0, 0), BuildingBlock: OJICUG_clean_linker_0, # of connection points: 2
#     Edge 101, Type (0, 0), BuildingBlock: OJICUG_clean_linker_0, # of connection points: 2
#     Edge 102, Type (0, 0), BuildingBlock: OJICUG_clean_linker_0, # of connection points: 2
#     Edge 103, Type (0, 0), BuildingBlock: OJICUG_clean_linker_0, # of connection points: 2
#     Edge 104, Type (0, 0), BuildingBlock: OJICUG_clean_linker_0, # of connection points: 2
#     Edge 105, Type (0, 0), BuildingBlock: OJICUG_clean_linker_0, # of connection points: 2
#     Edge 106, Type (0, 0), BuildingBlock: OJICUG_clean_linker_0, # of connection points: 2
#     Edge 107, Type (0, 0), BuildingBlock: OJICUG_clean_linker_0, # of connection points: 2
#     Edge 108, Type (0, 0), BuildingBlock: OJICUG_clean_linker_0, # of connection points: 2
#     Edge 109, Type (0, 0), BuildingBlock: OJICUG_clean_linker_0, # of connection points: 2
#     Edge 110, Type (0, 0), BuildingBlock: OJICUG_clean_linker_0, # of connection points: 2
#     Edge 111, Type (0, 0), BuildingBlock: OJICUG_clean_linker_0, # of connection points: 2
#     Edge 112, Type (0, 0), BuildingBlock: OJICUG_clean_linker_0, # of connection points: 2
#     Edge 113, Type (0, 0), BuildingBlock: OJICUG_clean_linker_0, # of connection points: 2
#     Edge 114, Type (0, 0), BuildingBlock: OJICUG_clean_linker_0, # of connection points: 2
#     Edge 115, Type (0, 0), BuildingBlock: OJICUG_clean_linker_0, # of connection points: 2
#     Edge 116, Type (0, 0), BuildingBlock: OJICUG_clean_linker_0, # of connection points: 2
#     Edge 117, Type (0, 0), BuildingBlock: OJICUG_clean_linker_0, # of connection points: 2
#     Edge 118, Type (0, 0), BuildingBlock: OJICUG_clean_linker_0, # of connection points: 2
#     Edge 119, Type (0, 0), BuildingBlock: OJICUG_clean_linker_0, # of connection points: 2
#     Edge 120, Type (0, 0), BuildingBlock: OJICUG_clean_linker_0, # of connection points: 2
#     Edge 121, Type (0, 0), BuildingBlock: OJICUG_clean_linker_0, # of connection points: 2
#     Edge 122, Type (0, 0), BuildingBlock: OJICUG_clean_linker_0, # of connection points: 2
#     Edge 123, Type (0, 0), BuildingBlock: OJICUG_clean_linker_0, # of connection points: 2
#     Edge 124, Type (0, 0), BuildingBlock: OJICUG_clean_linker_0, # of connection points: 2
#     Edge 125, Type (0, 0), BuildingBlock: OJICUG_clean_linker_0, # of connection points: 2
#     Edge 126, Type (0, 0), BuildingBlock: OJICUG_clean_linker_0, # of connection points: 2
#     Edge 127, Type (0, 0), BuildingBlock: OJICUG_clean_linker_0, # of connection points: 2
#     Edge 128, Type (0, 0), BuildingBlock: OJICUG_clean_linker_0, # of connection points: 2
#     Edge 129, Type (0, 0), BuildingBlock: OJICUG_clean_linker_0, # of connection points: 2
#     Edge 130, Type (0, 0), BuildingBlock: OJICUG_clean_linker_0, # of connection points: 2
#     Edge 131, Type (0, 0), BuildingBlock: OJICUG_clean_linker_0, # of connection points: 2
#     Edge 132, Type (0, 0), BuildingBlock: OJICUG_clean_linker_0, # of connection points: 2
#     Edge 133, Type (0, 0), BuildingBlock: OJICUG_clean_linker_0, # of connection points: 2
#     Edge 134, Type (0, 0), BuildingBlock: OJICUG_clean_linker_0, # of connection points: 2
#     Edge 135, Type (0, 0), BuildingBlock: OJICUG_clean_linker_0, # of connection points: 2
#     Edge 136, Type (0, 0), BuildingBlock: OJICUG_clean_linker_0, # of connection points: 2
#     Edge 137, Type (0, 0), BuildingBlock: OJICUG_clean_linker_0, # of connection points: 2
#     Edge 138, Type (0, 0), BuildingBlock: OJICUG_clean_linker_0, # of connection points: 2
#     Edge 139, Type (0, 0), BuildingBlock: OJICUG_clean_linker_0, # of connection points: 2
#     Edge 140, Type (0, 0), BuildingBlock: OJICUG_clean_linker_0, # of connection points: 2
#     Edge 141, Type (0, 0), BuildingBlock: OJICUG_clean_linker_0, # of connection points: 2
#     Edge 142, Type (0, 0), BuildingBlock: OJICUG_clean_linker_0, # of connection points: 2
#     Edge 143, Type (0, 0), BuildingBlock: OJICUG_clean_linker_0, # of connection points: 2
# Relax obj value: 0.305
# Max RMSD: 0.204
# Mean RMSD: 0.171
data_MOF--net-nfb--node1-NAHDIM_clean_sbu_0--edge1-OJICUG_clean_linker_0
_symmetry_space_group_name_H-M    P1
_symmetry_Int_Tables_number       1
_symmetry_cell_setting            triclinic
loop_
_symmetry_equiv_pos_as_xyz
'x, y, z'
_cell_length_a     43.219861
_cell_length_b     43.211164
_cell_length_c     43.272574
_cell_angle_alpha  90.504769
_cell_angle_beta   89.987305
_cell_angle_gamma 90.585176
loop_
_atom_site_label
_atom_site_type_symbol
_atom_site_fract_x
_atom_site_fract_y
_atom_site_fract_z
_atom_type_partial_charge
C0 C 0.17583 0.1539 0.38366 0.0
O1 O 0.16614 0.18205 0.38945 0.0
O2 O 0.10795 0.12788 0.43876 0.0
Zn3 Zn 0.111 0.14069 0.39432 0.0
O4 O 0.10458 0.18663 0.39433 0.0
C5 C 0.06221 0.09581 0.37958 0.0
O6 O 0.07653 0.0793 0.40042 0.0
O7 O 0.15591 0.1319 0.38133 0.0
C8 C 0.08501 0.19939 0.41211 0.0
O9 O 0.06664 0.18197 0.42897 0.0
C10 C 0.12379 0.14382 0.45795 0.0
O11 O 0.14104 0.16672 0.44774 0.0
O12 O 0.07463 0.12114 0.37087 0.0
C13 C 0.39721 0.55866 0.83098 0.0
O14 O 0.36885 0.56708 0.82452 0.0
O15 O 0.34989 0.6151 0.86301 0.0
Zn16 Zn 0.39595 0.6151 0.8678 0.0
O17 O 0.40271 0.6072 0.91258 0.0
C18 C 0.39162 0.67707 0.84433 0.0
O19 O 0.37095 0.66335 0.82649 0.0
O20 O 0.41482 0.57774 0.84545 0.0
C21 C 0.42391 0.62049 0.92821 0.0
O22 O 0.44344 0.63927 0.91435 0.0
C23 C 0.33533 0.6326 0.88162 0.0
O24 O 0.35084 0.64781 0.90312 0.0
O25 O 0.4094 0.66023 0.86044 0.0
C26 C 0.83325 0.86916 0.35249 0.0
O27 O 0.84388 0.84128 0.35744 0.0
O28 O 0.8997 0.89705 0.41077 0.0
Zn29 Zn 0.89787 0.88425 0.36588 0.0
O30 O 0.90535 0.83821 0.36426 0.0
C31 C 0.95014 0.92692 0.35585 0.0
O32 O 0.93756 0.94168 0.37928 0.0
O33 O 0.85251 0.8919 0.35175 0.0
C34 C 0.91698 0.8234 0.38662 0.0
O35 O 0.9263 0.8384 0.41149 0.0
C36 C 0.879 0.88631 0.42867 0.0
O37 O 0.85717 0.86835 0.41707 0.0
O38 O 0.93541 0.90405 0.34385 0.0
C39 C 0.64824 0.40295 0.81557 0.0
O40 O 0.67404 0.39056 0.80553 0.0
O41 O 0.69741 0.36607 0.86151 0.0
Zn42 Zn 0.65293 0.35286 0.85877 0.0
O43 O 0.63771 0.3558 0.90229 0.0
C44 C 0.67363 0.29036 0.84141 0.0
O45 O 0.70002 0.30487 0.83665 0.0
O46 O 0.63192 0.38776 0.8349 0.0
C47 C 0.65233 0.34002 0.92201 0.0
O48 O 0.67463 0.32182 0.91248 0.0
C49 C 0.70382 0.38946 0.87845 0.0
O50 O 0.68158 0.40369 0.8934 0.0
O51 O 0.64958 0.30625 0.84756 0.0
C52 C 0.05663 0.91664 0.63777 0.0
O53 O 0.0632 0.93495 0.61455 0.0
O54 O 0.10774 0.84057 0.60687 0.0
Zn55 Zn 0.11206 0.88584 0.61619 0.0
O56 O 0.10336 0.90427 0.575 0.0
C57 C 0.17227 0.87105 0.6411 0.0
O58 O 0.15627 0.84759 0.65209 0.0
O59 O 0.07644 0.89645 0.64559 0.0
C60 C 0.12374 0.91651 0.5578 0.0
O61 O 0.15193 0.92067 0.5685 0.0
C62 C 0.12633 0.82817 0.58777 0.0
O63 O 0.14845 0.84505 0.57539 0.0
O64 O 0.15774 0.89289 0.62804 0.0
C65 C 0.62662 0.68974 0.09376 0.0
O66 O 0.64878 0.67767 0.07687 0.0
O67 O 0.61576 0.61497 0.0585 0.0
Zn68 Zn 0.6209 0.62589 0.10312 0.0
O69 O 0.66655 0.62445 0.11151 0.0
C70 C 0.5807 0.5722 0.11595 0.0
O71 O 0.5673 0.58011 0.08998 0.0
O72 O 0.60891 0.67144 0.10892 0.0
C73 C 0.67768 0.61424 0.13653 0.0
O74 O 0.65887 0.60368 0.15792 0.0
C75 C 0.62566 0.58902 0.04891 0.0
O76 O 0.63883 0.57027 0.06858 0.0
O77 O 0.60061 0.5907 0.12801 0.0
C78 C 0.94806 0.08673 0.66194 0.0
O79 O 0.94281 0.07406 0.63473 0.0
O80 O 0.89648 0.16522 0.65252 0.0
Zn81 Zn 0.89136 0.11962 0.64776 0.0
O82 O 0.90103 0.11038 0.60357 0.0
C83 C 0.82814 0.12992 0.67016 0.0
O84 O 0.84231 0.1505 0.6878 0.0
O85 O 0.9266 0.10258 0.67455 0.0
C86 C 0.88767 0.08908 0.58803 0.0
O87 O 0.86631 0.07183 0.60119 0.0
C88 C 0.88086 0.18351 0.63607 0.0
O89 O 0.86193 0.17204 0.61503 0.0
O90 O 0.84451 0.11118 0.65425 0.0
C91 C 0.38071 0.35472 0.12099 0.0
O92 O 0.36642 0.36601 0.09684 0.0
O93 O 0.40582 0.41483 0.07971 0.0
Zn94 Zn 0.38949 0.41759 0.12278 0.0
O95 O 0.34329 0.42228 0.12057 0.0
C96 C 0.39284 0.47728 0.15555 0.0
O97 O 0.36374 0.47081 0.16162 0.0
O98 O 0.39522 0.37355 0.139 0.0
C99 C 0.32765 0.41258 0.14348 0.0
O100 O 0.34229 0.40286 0.16811 0.0
C101 C 0.39686 0.43223 0.05814 0.0
O102 O 0.3774 0.45458 0.06448 0.0
O103 O 0.40935 0.45656 0.14254 0.0
C104 C 0.37305 0.22189 0.14006 0.0
O105 O 0.3894 0.20979 0.16243 0.0
O106 O 0.40798 0.15195 0.13415 0.0
Zn107 Zn 0.36236 0.15887 0.13603 0.0
O108 O 0.35212 0.15835 0.18099 0.0
C109 C 0.34856 0.10675 0.09298 0.0
O110 O 0.37203 0.11741 0.07681 0.0
O111 O 0.35686 0.20374 0.12284 0.0
C112 C 0.35855 0.13514 0.19746 0.0
O113 O 0.36964 0.11017 0.18417 0.0
C114 C 0.42334 0.1271 0.1328 0.0
O115 O 0.40899 0.10023 0.1307 0.0
O116 O 0.33884 0.12268 0.11586 0.0
C117 C 0.42367 0.84328 0.60406 0.0
O118 O 0.41869 0.82821 0.62984 0.0
O119 O 0.37772 0.86381 0.66653 0.0
Zn120 Zn 0.36949 0.87771 0.62333 0.0
O121 O 0.38044 0.9225 0.62517 0.0
C122 C 0.30584 0.857 0.63104 0.0
O123 O 0.31938 0.83788 0.65007 0.0
O124 O 0.40255 0.861 0.59401 0.0
C125 C 0.38029 0.94014 0.60192 0.0
O126 O 0.37051 0.92947 0.57509 0.0
C127 C 0.36572 0.88002 0.68794 0.0
O128 O 0.3475 0.90296 0.68053 0.0
O129 O 0.32277 0.87436 0.61419 0.0
C130 C 0.61316 0.82375 0.09628 0.0
O131 O 0.58821 0.83531 0.10913 0.0
O132 O 0.58057 0.89594 0.07554 0.0
Zn133 Zn 0.62146 0.88756 0.095 0.0
O134 O 0.61312 0.88752 0.14035 0.0
C135 C 0.6439 0.94691 0.07053 0.0
O136 O 0.62313 0.94166 0.0489 0.0
O137 O 0.63361 0.84256 0.0858 0.0
C138 C 0.63565 0.88884 0.15908 0.0
O139 O 0.66396 0.89106 0.14819 0.0
C140 C 0.5661 0.919 0.08644 0.0
O141 O 0.57966 0.93654 0.10751 0.0
O142 O 0.65048 0.92505 0.08899 0.0
C143 C 0.58012 0.15134 0.59407 0.0
O144 O 0.58507 0.1271 0.57629 0.0
O145 O 0.62325 0.12068 0.66992 0.0
Zn146 Zn 0.63448 0.1285 0.62585 0.0
O147 O 0.62699 0.08822 0.60329 0.0
C148 C 0.69559 0.14589 0.65077 0.0
O149 O 0.67889 0.15331 0.67503 0.0
O150 O 0.60114 0.15961 0.61327 0.0
C151 C 0.64871 0.06914 0.59889 0.0
O152 O 0.67691 0.07663 0.60768 0.0
C153 C 0.63153 0.09711 0.68498 0.0
O154 O 0.64819 0.07578 0.67125 0.0
O155 O 0.68169 0.13837 0.62569 0.0
C156 C 0.36586 0.92527 0.89789 0.0
O157 O 0.34992 0.91894 0.87274 0.0
O158 O 0.38768 0.87829 0.83647 0.0
Zn159 Zn 0.40038 0.87024 0.88008 0.0
O160 O 0.44605 0.87697 0.88103 0.0
C161 C 0.37521 0.80842 0.87044 0.0
O162 O 0.35603 0.82369 0.8528 0.0
O163 O 0.38433 0.90491 0.90813 0.0
C164 C 0.46313 0.86301 0.90013 0.0
O165 O 0.45063 0.8432 0.91945 0.0
C166 C 0.4012 0.86335 0.81506 0.0
O167 O 0.42307 0.8438 0.82231 0.0
O168 O 0.3934 0.82377 0.88816 0.0
C169 C 0.6996 0.88663 0.35599 0.0
O170 O 0.68849 0.9123 0.34456 0.0
O171 O 0.62596 0.91918 0.37093 0.0
Zn172 Zn 0.63536 0.8768 0.35441 0.0
O173 O 0.63691 0.88131 0.30853 0.0
C174 C 0.57881 0.8544 0.38536 0.0
O175 O 0.58692 0.87473 0.40669 0.0
O176 O 0.68042 0.86567 0.36474 0.0
C177 C 0.6148 0.8759 0.28991 0.0
O178 O 0.58789 0.86645 0.30057 0.0
C179 C 0.60073 0.93179 0.36311 0.0
O180 O 0.58102 0.91617 0.34575 0.0
O181 O 0.59802 0.84825 0.36378 0.0
C182 C 0.66757 0.03805 0.90515 0.0
O183 O 0.64159 0.04272 0.92017 0.0
O184 O 0.64218 0.08837 0.83263 0.0
Zn185 Zn 0.6511 0.09691 0.87713 0.0
O186 O 0.60987 0.09431 0.89912 0.0
C187 C 0.6778 0.1564 0.85535 0.0
O188 O 0.68558 0.13991 0.83097 0.0
O189 O 0.67858 0.05994 0.88865 0.0
C190 C 0.59476 0.11878 0.90488 0.0
O191 O 0.60711 0.14575 0.89814 0.0
C192 C 0.62235 0.1032 0.81721 0.0
O193 O 0.60606 0.1248 0.83099 0.0
O194 O 0.66668 0.14254 0.87891 0.0
C195 C 0.30766 0.12968 0.39028 0.0
O196 O 0.31771 0.10343 0.37871 0.0
O197 O 0.37405 0.09104 0.40901 0.0
Zn198 Zn 0.37145 0.1339 0.39253 0.0
O199 O 0.37269 0.12847 0.34668 0.0
C200 C 0.43032 0.15051 0.42258 0.0
O201 O 0.42261 0.12845 0.4419 0.0
O202 O 0.32754 0.14937 0.40054 0.0
C203 C 0.36172 0.14965 0.3299 0.0
O204 O 0.35137 0.17502 0.34309 0.0
C205 C 0.39606 0.07365 0.40069 0.0
O206 O 0.41923 0.08551 0.38491 0.0
O207 O 0.41034 0.15939 0.40295 0.0
C208 C 0.1245 0.42391 0.22361 0.0
O209 O 0.13589 0.44931 0.21142 0.0
O210 O 0.12707 0.45149 0.14931 0.0
Zn211 Zn 0.13278 0.40684 0.16065 0.0
O212 O 0.17887 0.40213 0.16129 0.0
C213 C 0.09378 0.38779 0.10764 0.0
O214 O 0.07618 0.41075 0.11677 0.0
O215 O 0.11906 0.40061 0.20592 0.0
C216 C 0.19476 0.40102 0.13662 0.0
O217 O 0.1806 0.40043 0.10978 0.0
C218 C 0.12998 0.46195 0.12209 0.0
O219 O 0.13448 0.44282 0.09884 0.0
O220 O 0.11595 0.37954 0.12512 0.0
C221 C 0.15102 0.63565 0.77199 0.0
O222 O 0.16956 0.61479 0.78352 0.0
O223 O 0.13398 0.60056 0.84546 0.0
Zn224 Zn 0.14521 0.64466 0.83657 0.0
O225 O 0.19142 0.64523 0.841 0.0
C226 C 0.10722 0.66356 0.89024 0.0
O227 O 0.09006 0.63941 0.88262 0.0
O228 O 0.13615 0.6531 0.79073 0.0
C229 C 0.2051 0.65464 0.86536 0.0
O230 O 0.18887 0.66653 0.8881 0.0
C231 C 0.14026 0.58963 0.87187 0.0
O232 O 0.15194 0.60794 0.89336 0.0
O233 O 0.12813 0.67259 0.87141 0.0
C234 C 0.87553 0.59432 0.4553 0.0
O235 O 0.90021 0.57894 0.4468 0.0
O236 O 0.89427 0.67632 0.40409 0.0
Zn237 Zn 0.89056 0.63012 0.40037 0.0
O238 O 0.93454 0.61671 0.40471 0.0
C239 C 0.86029 0.64069 0.34128 0.0
O240 O 0.84766 0.66356 0.35683 0.0
O241 O 0.86514 0.61506 0.43737 0.0
C242 C 0.94849 0.60076 0.38438 0.0
O243 O 0.93282 0.58944 0.36079 0.0
C244 C 0.9098 0.69041 0.38349 0.0
O245 O 0.92216 0.6745 0.36069 0.0
O246 O 0.87629 0.621 0.35592 0.0
C247 C 0.90459 0.3543 0.98391 0.0
O248 O 0.92563 0.37583 0.97892 0.0
O249 O 0.8408 0.39267 0.92491 0.0
Zn250 Zn 0.88305 0.37443 0.92344 0.0
O251 O 0.91252 0.4107 0.92651 0.0
C252 C 0.85954 0.34381 0.86737 0.0
O253 O 0.83638 0.33621 0.88555 0.0
O254 O 0.88583 0.34715 0.96212 0.0
C255 C 0.92648 0.42162 0.90312 0.0
O256 O 0.92384 0.4073 0.87634 0.0
C257 C 0.83233 0.40842 0.90181 0.0
O258 O 0.85266 0.41539 0.88034 0.0
O259 O 0.88391 0.35579 0.87938 0.0
C260 C 0.11297 0.42459 0.35733 0.0
O261 O 0.0914 0.44195 0.36969 0.0
O262 O 0.06719 0.40619 0.4221 0.0
Zn263 Zn 0.11165 0.39393 0.4176 0.0
O264 O 0.11097 0.34757 0.41622 0.0
C265 C 0.12327 0.42392 0.47736 0.0
O266 O 0.0985 0.43948 0.46974 0.0
O267 O 0.12718 0.40543 0.37434 0.0
C268 C 0.09335 0.33131 0.43324 0.0
O269 O 0.07601 0.34503 0.45409 0.0
C270 C 0.04786 0.39213 0.40479 0.0
O271 O 0.05808 0.3727 0.38369 0.0
O272 O 0.13529 0.40587 0.45728 0.0
C273 C 0.88805 0.65448 0.08769 0.0
O274 O 0.85985 0.66519 0.0905 0.0
O275 O 0.82811 0.62925 0.13802 0.0
Zn276 Zn 0.8735 0.62292 0.14548 0.0
O277 O 0.87859 0.57735 0.14017 0.0
C278 C 0.86471 0.64924 0.2072 0.0
O279 O 0.84262 0.66433 0.19317 0.0
O280 O 0.89993 0.64023 0.1104 0.0
C281 C 0.89471 0.56066 0.15781 0.0
O282 O 0.90936 0.57342 0.18135 0.0
C283 C 0.81003 0.61276 0.15439 0.0
O284 O 0.82196 0.59415 0.17498 0.0
O285 O 0.88321 0.63302 0.19098 0.0
C286 C 0.83789 0.40748 0.6177 0.0
O287 O 0.86432 0.42126 0.6243 0.0
O288 O 0.85512 0.32868 0.66213 0.0
Zn289 Zn 0.85226 0.37338 0.67324 0.0
O290 O 0.89569 0.38943 0.66878 0.0
C291 C 0.83394 0.35236 0.7356 0.0
O292 O 0.826 0.32671 0.72101 0.0
O293 O 0.82539 0.39021 0.63812 0.0
C294 C 0.90973 0.40333 0.69068 0.0
O295 O 0.89476 0.41006 0.71621 0.0
C296 C 0.87789 0.31244 0.67046 0.0
O297 O 0.89953 0.32493 0.68802 0.0
O298 O 0.84148 0.37613 0.71981 0.0
C299 C 0.17284 0.62786 0.51565 0.0
O300 O 0.18017 0.6569 0.52149 0.0
O301 O 0.14095 0.68084 0.56773 0.0
Zn302 Zn 0.13873 0.63453 0.57383 0.0
O303 O 0.09385 0.62233 0.57272 0.0
C304 C 0.13762 0.64366 0.63821 0.0
O305 O 0.11613 0.66194 0.62747 0.0
O306 O 0.15849 0.61249 0.53637 0.0
C307 C 0.08151 0.6029 0.5909 0.0
O308 O 0.09896 0.58783 0.61041 0.0
C309 C 0.11662 0.697 0.56555 0.0
O310 O 0.08943 0.68318 0.56509 0.0
O311 O 0.1531 0.62742 0.61883 0.0
C312 C 0.80649 0.86497 0.63797 0.0
O313 O 0.81574 0.83763 0.64689 0.0
O314 O 0.88075 0.8303 0.63231 0.0
Zn315 Zn 0.87209 0.8748 0.6232 0.0
O316 O 0.87419 0.87774 0.57728 0.0
C317 C 0.9278 0.8893 0.65822 0.0
O318 O 0.9213 0.8624 0.67069 0.0
O319 O 0.82674 0.88567 0.63154 0.0
C320 C 0.89092 0.89564 0.56108 0.0
O321 O 0.91063 0.91472 0.5746 0.0
C322 C 0.87027 0.80888 0.61485 0.0
O323 O 0.85196 0.81587 0.59176 0.0
O324 O 0.90791 0.90135 0.64029 0.0
C325 C 0.59514 0.44168 0.13844 0.0
O326 O 0.61809 0.43383 0.15656 0.0
O327 O 0.61609 0.38081 0.06264 0.0
Zn328 Zn 0.61095 0.38318 0.10865 0.0
O329 O 0.65402 0.39065 0.12484 0.0
C330 C 0.58351 0.3217 0.10144 0.0
O331 O 0.57131 0.33429 0.07681 0.0
O332 O 0.5853 0.42198 0.11847 0.0
C333 C 0.6696 0.36995 0.13826 0.0
O334 O 0.65696 0.34267 0.14316 0.0
C335 C 0.63463 0.3604 0.05264 0.0
O336 O 0.64946 0.34322 0.07256 0.0
O337 O 0.59718 0.33924 0.12112 0.0
C338 C 0.19772 0.14588 0.64932 0.0
O339 O 0.18658 0.17227 0.63968 0.0
O340 O 0.12873 0.18104 0.66998 0.0
Zn341 Zn 0.13347 0.13789 0.65299 0.0
O342 O 0.13021 0.14192 0.60722 0.0
C343 C 0.07567 0.12 0.68431 0.0
O344 O 0.08052 0.14613 0.69934 0.0
O345 O 0.1787 0.1251 0.65875 0.0
C346 C 0.11853 0.12175 0.58906 0.0
O347 O 0.10676 0.09607 0.60034 0.0
C348 C 0.11027 0.19905 0.65629 0.0
O349 O 0.09313 0.18807 0.63356 0.0
O350 O 0.09673 0.11008 0.66613 0.0
C351 C 0.42043 0.60666 0.13815 0.0
O352 O 0.44169 0.61346 0.11753 0.0
O353 O 0.41031 0.65177 0.0727 0.0
Zn354 Zn 0.38994 0.66128 0.11302 0.0
O355 O 0.34423 0.65932 0.10495 0.0
C356 C 0.38787 0.7245 0.10219 0.0
O357 O 0.37544 0.71147 0.07755 0.0
O358 O 0.39887 0.62605 0.1432 0.0
C359 C 0.32623 0.67482 0.12221 0.0
O360 O 0.3378 0.69016 0.14595 0.0
C361 C 0.40209 0.62726 0.05842 0.0
O362 O 0.38177 0.60859 0.07132 0.0
O363 O 0.39854 0.70699 0.12328 0.0
C364 C 0.93012 0.07952 0.37809 0.0
O365 O 0.91897 0.05719 0.39538 0.0
O366 O 0.8792 0.08926 0.44018 0.0
Zn367 Zn 0.87549 0.11185 0.40031 0.0
O368 O 0.8783 0.15666 0.41285 0.0
C369 C 0.8115 0.11424 0.4041 0.0
O370 O 0.82138 0.12415 0.43118 0.0
O371 O 0.91348 0.10323 0.3735 0.0
C372 C 0.86297 0.17735 0.39916 0.0
O373 O 0.84641 0.16975 0.37474 0.0
C374 C 0.90226 0.09647 0.457 0.0
O375 O 0.92352 0.11529 0.44589 0.0
O376 O 0.83146 0.10529 0.38421 0.0
C377 C 0.37848 0.31283 0.8883 0.0
O378 O 0.35915 0.32338 0.90919 0.0
O379 O 0.32903 0.37474 0.87324 0.0
Zn380 Zn 0.37581 0.37682 0.87412 0.0
O381 O 0.38726 0.39433 0.91553 0.0
C382 C 0.4118 0.42818 0.84963 0.0
O383 O 0.43062 0.4206 0.8721 0.0
O384 O 0.39078 0.33201 0.86947 0.0
C385 C 0.40816 0.38596 0.93413 0.0
O386 O 0.42608 0.36264 0.9268 0.0
C387 C 0.3133 0.37683 0.89804 0.0
O388 O 0.32767 0.38078 0.92453 0.0
O389 O 0.38912 0.4101 0.84325 0.0
C390 C 0.08334 0.93504 0.35225 0.0
O391 O 0.09544 0.95147 0.37499 0.0
O392 O 0.1301 0.90589 0.41016 0.0
Zn393 Zn 0.13381 0.89256 0.36599 0.0
O394 O 0.12217 0.84779 0.3641 0.0
C395 C 0.19865 0.90775 0.37484 0.0
O396 O 0.18621 0.92577 0.39591 0.0
O397 O 0.09892 0.91266 0.34107 0.0
C398 C 0.13917 0.82702 0.37544 0.0
O399 O 0.16492 0.83514 0.38962 0.0
C400 C 0.10631 0.90369 0.42716 0.0
O401 O 0.08062 0.8918 0.41571 0.0
O402 O 0.18076 0.89436 0.35523 0.0
C403 C 0.66903 0.65429 0.84734 0.0
O404 O 0.69682 0.64368 0.85277 0.0
O405 O 0.6956 0.58055 0.86898 0.0
Zn406 Zn 0.65095 0.58967 0.85994 0.0
O407 O 0.63028 0.58875 0.90107 0.0
C408 C 0.65156 0.5362 0.81879 0.0
O409 O 0.67902 0.54763 0.81213 0.0
O410 O 0.64633 0.63508 0.84543 0.0
C411 C 0.63357 0.56555 0.91852 0.0
O412 O 0.64825 0.54117 0.90793 0.0
C413 C 0.70839 0.59096 0.89345 0.0
O414 O 0.69264 0.60894 0.91222 0.0
O415 O 0.63352 0.55229 0.83565 0.0
C416 C 0.64801 0.78706 0.85847 0.0
O417 O 0.62081 0.79749 0.85034 0.0
O418 O 0.6493 0.86338 0.8226 0.0
Zn419 Zn 0.65292 0.8518 0.86743 0.0
O420 O 0.61027 0.85149 0.88535 0.0
C421 C 0.68804 0.90985 0.87439 0.0
O422 O 0.69401 0.905 0.84499 0.0
O423 O 0.6683 0.80655 0.86841 0.0
C424 C 0.59459 0.87616 0.88526 0.0
O425 O 0.60714 0.90163 0.87429 0.0
C426 C 0.6245 0.86137 0.80689 0.0
O427 O 0.5991 0.85076 0.81984 0.0
O428 O 0.67504 0.88819 0.88975 0.0
C429 C 0.55909 0.15883 0.38909 0.0
O430 O 0.56467 0.16614 0.3602 0.0
O431 O 0.61139 0.07847 0.38724 0.0
Zn432 Zn 0.61611 0.12388 0.38124 0.0
O433 O 0.61408 0.13023 0.33523 0.0
C434 C 0.6797 0.11707 0.37871 0.0
O435 O 0.6688 0.09896 0.35664 0.0
O436 O 0.57939 0.14363 0.40383 0.0
C437 C 0.62949 0.15139 0.32177 0.0
O438 O 0.64521 0.17162 0.33848 0.0
C439 C 0.58807 0.06326 0.37749 0.0
O440 O 0.56533 0.07798 0.36407 0.0
O441 O 0.66057 0.13285 0.39479 0.0
C442 C 0.40274 0.18064 0.88293 0.0
O443 O 0.42599 0.17124 0.86587 0.0
O444 O 0.39922 0.10986 0.8435 0.0
Zn445 Zn 0.4033 0.11649 0.88935 0.0
O446 O 0.44861 0.11859 0.89994 0.0
C447 C 0.39775 0.05341 0.90346 0.0
O448 O 0.42434 0.05552 0.88888 0.0
O449 O 0.38694 0.16033 0.89764 0.0
C450 C 0.46381 0.10626 0.92165 0.0
O451 O 0.44984 0.08818 0.94162 0.0
C452 C 0.42145 0.11129 0.82432 0.0
O453 O 0.44968 0.11693 0.83428 0.0
O454 O 0.38237 0.07807 0.90832 0.0
C455 C 0.44794 0.84633 0.35992 0.0
O456 O 0.44098 0.84531 0.33038 0.0
O457 O 0.39595 0.92403 0.38305 0.0
Zn458 Zn 0.39071 0.88207 0.36329 0.0
O459 O 0.3962 0.89058 0.31804 0.0
C460 C 0.32902 0.87768 0.39137 0.0
O461 O 0.3434 0.89032 0.41516 0.0
O462 O 0.42805 0.85721 0.37884 0.0
C463 C 0.37321 0.89743 0.3012 0.0
O464 O 0.34529 0.89722 0.31316 0.0
C465 C 0.37527 0.94453 0.38076 0.0
O466 O 0.34942 0.938 0.36607 0.0
O467 O 0.3453 0.86752 0.36899 0.0
C468 C 0.65166 0.07233 0.11666 0.0
O469 O 0.65614 0.07503 0.14659 0.0
O470 O 0.57315 0.12007 0.1261 0.0
Zn471 Zn 0.6184 0.1297 0.12756 0.0
O472 O 0.62849 0.12762 0.17305 0.0
C473 C 0.60189 0.18831 0.09816 0.0
O474 O 0.58076 0.17091 0.08454 0.0
O475 O 0.63874 0.09457 0.10252 0.0
C476 C 0.63852 0.1508 0.1885 0.0
O477 O 0.64601 0.17638 0.17402 0.0
C478 C 0.55585 0.13716 0.14248 0.0
O479 O 0.56843 0.15948 0.15922 0.0
O480 O 0.62274 0.1753 0.11422 0.0
C481 C 0.32894 0.12326 0.63029 0.0
O482 O 0.33772 0.09432 0.6286 0.0
O483 O 0.40651 0.12729 0.6762 0.0
Zn484 Zn 0.39535 0.13024 0.63107 0.0
O485 O 0.39628 0.08733 0.61339 0.0
C486 C 0.45189 0.16748 0.62503 0.0
O487 O 0.44664 0.17326 0.6544 0.0
O488 O 0.34964 0.14468 0.62924 0.0
C489 C 0.41477 0.06715 0.62339 0.0
O490 O 0.43539 0.0751 0.64438 0.0
C491 C 0.39196 0.10949 0.69449 0.0
O492 O 0.36897 0.0924 0.68393 0.0
O493 O 0.43098 0.15336 0.60933 0.0
C494 C 0.33574 0.97488 0.10312 0.0
O495 O 0.32652 0.96568 0.1305 0.0
O496 O 0.42049 0.93075 0.10004 0.0
Zn497 Zn 0.37601 0.92188 0.10846 0.0
O498 O 0.36945 0.92429 0.15448 0.0
C499 C 0.38653 0.85873 0.11315 0.0
O500 O 0.40564 0.87192 0.13296 0.0
O501 O 0.35324 0.95718 0.08734 0.0
C502 C 0.39151 0.92908 0.1734 0.0
O503 O 0.41939 0.93507 0.1628 0.0
C504 C 0.43436 0.9204 0.07633 0.0
O505 O 0.41897 0.9036 0.05595 0.0
O506 O 0.36905 0.87606 0.09704 0.0
C507 C 0.67886 0.87849 0.59792 0.0
O508 O 0.67161 0.90356 0.58276 0.0
O509 O 0.60674 0.87787 0.6592 0.0
Zn510 Zn 0.61379 0.88046 0.61374 0.0
O511 O 0.6184 0.92588 0.60506 0.0
C512 C 0.5511 0.87734 0.5933 0.0
O513 O 0.55375 0.90642 0.60204 0.0
O514 O 0.65707 0.86154 0.60868 0.0
C515 C 0.61194 0.94248 0.58192 0.0
O516 O 0.59754 0.93047 0.55787 0.0
C517 C 0.62754 0.88901 0.67691 0.0
O518 O 0.65179 0.90283 0.66469 0.0
O519 O 0.57502 0.86027 0.59424 0.0
C520 C 0.89383 0.60421 0.83702 0.0
O521 O 0.88065 0.5787 0.84702 0.0
O522 O 0.85508 0.60181 0.90677 0.0
Zn523 Zn 0.90093 0.60615 0.9008 0.0
O524 O 0.91919 0.56351 0.89989 0.0
C525 C 0.91235 0.61686 0.96374 0.0
O526 O 0.90391 0.58759 0.96249 0.0
O527 O 0.90618 0.62271 0.85682 0.0
C528 C 0.94238 0.55158 0.9131 0.0
O529 O 0.95934 0.56796 0.93252 0.0
C530 C 0.83962 0.57668 0.90547 0.0
O531 O 0.85383 0.55039 0.90039 0.0
O532 O 0.91477 0.63182 0.93854 0.0
C533 C 0.85555 0.37426 0.23318 0.0
O534 O 0.83949 0.39698 0.22146 0.0
O535 O 0.81745 0.36708 0.16281 0.0
Zn536 Zn 0.86343 0.3695 0.16981 0.0
O537 O 0.87733 0.41368 0.16916 0.0
C538 C 0.86979 0.33602 0.11124 0.0
O539 O 0.84028 0.33023 0.11592 0.0
O540 O 0.87008 0.35631 0.21463 0.0
C541 C 0.88034 0.42902 0.14447 0.0
O542 O 0.87387 0.41573 0.11778 0.0
C543 C 0.79997 0.39021 0.15918 0.0
O544 O 0.81191 0.41827 0.15937 0.0
O545 O 0.8855 0.34878 0.13296 0.0
C546 C 0.13748 0.40096 0.60774 0.0
O547 O 0.1464 0.37293 0.61483 0.0
O548 O 0.058 0.40418 0.66463 0.0
Zn549 Zn 0.10324 0.39511 0.66577 0.0
O550 O 0.10501 0.34901 0.65984 0.0
C551 C 0.10269 0.42478 0.72667 0.0
O552 O 0.08427 0.44425 0.71275 0.0
O553 O 0.12206 0.41639 0.62766 0.0
C554 C 0.11659 0.33067 0.67939 0.0
O555 O 0.12971 0.34194 0.7045 0.0
C556 C 0.04151 0.39348 0.68642 0.0
O557 O 0.05451 0.37686 0.70804 0.0
O558 O 0.11737 0.40518 0.71022 0.0
C559 C 0.1306 0.68261 0.02035 0.0
O560 O 0.15827 0.69347 0.02726 0.0
O561 O 0.13326 0.60603 0.0801 0.0
Zn562 Zn 0.13753 0.65207 0.08017 0.0
O563 O 0.18333 0.66001 0.07832 0.0
C564 C 0.10501 0.6491 0.13979 0.0
O565 O 0.08752 0.6285 0.12545 0.0
O566 O 0.11585 0.66715 0.04071 0.0
C567 C 0.19561 0.68036 0.09593 0.0
O568 O 0.17771 0.69837 0.11257 0.0
C569 C 0.14609 0.59251 0.10257 0.0
O570 O 0.16202 0.60899 0.1228 0.0
O571 O 0.12411 0.66519 0.12403 0.0
C572 C 0.89965 0.62194 0.70424 0.0
O573 O 0.91988 0.64191 0.69338 0.0
O574 O 0.88522 0.66117 0.63336 0.0
Zn575 Zn 0.89333 0.61595 0.63987 0.0
O576 O 0.93845 0.60815 0.63369 0.0
C577 C 0.85431 0.60614 0.58596 0.0
O578 O 0.84266 0.63273 0.59482 0.0
O579 O 0.88352 0.60594 0.68504 0.0
C580 C 0.94981 0.61122 0.60681 0.0
O581 O 0.93185 0.62024 0.58417 0.0
C582 C 0.90566 0.68248 0.63443 0.0
O583 O 0.93456 0.67561 0.64041 0.0
O584 O 0.87237 0.59213 0.60437 0.0
C585 C 0.11193 0.37023 0.9764 0.0
O586 O 0.13733 0.35609 0.96785 0.0
O587 O 0.12369 0.44687 0.91653 0.0
Zn588 Zn 0.12103 0.40044 0.91687 0.0
O589 O 0.16547 0.38708 0.91847 0.0
C590 C 0.08749 0.40819 0.85935 0.0
O591 O 0.07424 0.43056 0.87512 0.0
O592 O 0.09873 0.388 0.95712 0.0
C593 C 0.17998 0.37702 0.89494 0.0
O594 O 0.1651 0.37285 0.86875 0.0
C595 C 0.13716 0.45859 0.89323 0.0
O596 O 0.14936 0.44022 0.87229 0.0
O597 O 0.10376 0.38868 0.87397 0.0
C598 C 0.15739 0.59758 0.3866 0.0
O599 O 0.13383 0.57915 0.38028 0.0
O600 O 0.09151 0.61768 0.34676 0.0
Zn601 Zn 0.13335 0.63509 0.33603 0.0
O602 O 0.13438 0.68009 0.34709 0.0
C603 C 0.11379 0.63747 0.27335 0.0
O604 O 0.08796 0.64084 0.28892 0.0
O605 O 0.16494 0.6182 0.36694 0.0
C606 C 0.11219 0.69908 0.34662 0.0
O607 O 0.08466 0.68976 0.33739 0.0
C608 C 0.07896 0.62236 0.37289 0.0
O609 O 0.09401 0.63852 0.39403 0.0
O610 O 0.13884 0.63304 0.2884 0.0
C611 C 0.85965 0.36181 0.36683 0.0
O612 O 0.87709 0.33998 0.37827 0.0
O613 O 0.84539 0.3225 0.43226 0.0
Zn614 Zn 0.85609 0.36764 0.43011 0.0
O615 O 0.9022 0.37057 0.43029 0.0
C616 C 0.82307 0.37825 0.48839 0.0
O617 O 0.81139 0.35076 0.48194 0.0
O618 O 0.84537 0.3797 0.38568 0.0
C619 C 0.91774 0.39549 0.43319 0.0
O620 O 0.90351 0.42151 0.43948 0.0
C621 C 0.8638 0.30325 0.44416 0.0
O622 O 0.88799 0.31357 0.45964 0.0
O623 O 0.84023 0.39142 0.46829 0.0
C624 C 0.06978 0.27943 0.44474 0.0
C625 C 0.09088 0.29757 0.42787 0.0
H626 H 0.05107 0.23413 0.45276 0.0
C627 C 0.10915 0.28332 0.40508 0.0
H628 H 0.05523 0.28977 0.46231 0.0
C629 C 0.10666 0.25157 0.3995 0.0
C630 C 0.08583 0.23332 0.41658 0.0
H631 H 0.12553 0.29664 0.39154 0.0
H632 H 0.12137 0.2413 0.38201 0.0
C633 C 0.06726 0.24759 0.43913 0.0
C634 C 0.28562 0.65569 0.89934 0.0
C635 C 0.30196 0.6379 0.8776 0.0
H636 H 0.24217 0.67506 0.91247 0.0
C637 C 0.28635 0.62613 0.85151 0.0
H638 H 0.29706 0.66515 0.91965 0.0
C639 C 0.25498 0.63206 0.84724 0.0
C640 C 0.23858 0.64969 0.8691 0.0
H641 H 0.29838 0.6125 0.83425 0.0
H642 H 0.24354 0.62254 0.82696 0.0
C643 C 0.2542 0.66144 0.89519 0.0
C644 C 0.91437 0.77264 0.41346 0.0
C645 C 0.91698 0.78934 0.38587 0.0
H646 H 0.90939 0.72804 0.43424 0.0
C647 C 0.91798 0.77326 0.35756 0.0
H648 H 0.9133 0.78453 0.43558 0.0
C649 C 0.91636 0.74097 0.35687 0.0
C650 C 0.91287 0.72433 0.3844 0.0
H651 H 0.91998 0.78565 0.33598 0.0
H652 H 0.91704 0.72907 0.33473 0.0
C653 C 0.91192 0.7404 0.4127 0.0
C654 C 0.78899 0.40175 0.86484 0.0
C655 C 0.79921 0.40961 0.89473 0.0
H656 H 0.75041 0.38839 0.83646 0.0
C657 C 0.77753 0.41362 0.91851 0.0
H658 H 0.80537 0.39809 0.84623 0.0
C659 C 0.74608 0.40877 0.91271 0.0
C660 C 0.73614 0.39881 0.88335 0.0
H661 H 0.78504 0.41943 0.94175 0.0
H662 H 0.72977 0.41107 0.93159 0.0
C663 C 0.75769 0.3959 0.85931 0.0
C664 C 0.09282 0.74764 0.57886 0.0
C665 C 0.11861 0.73094 0.56855 0.0
H666 H 0.07522 0.79148 0.59346 0.0
C667 C 0.14669 0.74671 0.56332 0.0
H668 H 0.07091 0.7361 0.58325 0.0
C669 C 0.14902 0.77856 0.56882 0.0
C670 C 0.1235 0.79498 0.58022 0.0
H671 H 0.16691 0.73437 0.55535 0.0
H672 H 0.17103 0.79013 0.565 0.0
C673 C 0.09533 0.77931 0.58493 0.0
C674 C 0.72437 0.59892 0.16668 0.0
C675 C 0.71151 0.61434 0.14139 0.0
H676 H 0.76559 0.58629 0.19055 0.0
C677 C 0.73129 0.62979 0.12068 0.0
H678 H 0.70975 0.5868 0.18302 0.0
C679 C 0.7633 0.62969 0.12511 0.0
C680 C 0.77617 0.61392 0.15018 0.0
H681 H 0.72207 0.64201 0.10103 0.0
H682 H 0.77795 0.64166 0.10869 0.0
C683 C 0.75638 0.5986 0.17096 0.0
C684 C 0.90315 0.2292 0.66427 0.0
C685 C 0.88149 0.21692 0.64312 0.0
H686 H 0.91906 0.26909 0.68947 0.0
C687 C 0.85939 0.23654 0.6302 0.0
H688 H 0.92054 0.21463 0.67455 0.0
C689 C 0.8584 0.26766 0.63894 0.0
C690 C 0.87965 0.27979 0.66059 0.0
H691 H 0.84237 0.22774 0.61389 0.0
H692 H 0.8408 0.28213 0.62889 0.0
C693 C 0.9023 0.26037 0.67284 0.0
C694 C 0.27627 0.40345 0.16832 0.0
C695 C 0.29364 0.41017 0.14173 0.0
H696 H 0.23138 0.39522 0.18755 0.0
C697 C 0.27831 0.41328 0.11332 0.0
H698 H 0.28744 0.40084 0.19053 0.0
C699 C 0.24621 0.40964 0.11153 0.0
C700 C 0.22882 0.40317 0.13818 0.0
H701 H 0.29112 0.4182 0.09238 0.0
H702 H 0.23503 0.4123 0.08933 0.0
C703 C 0.24416 0.40015 0.16659 0.0
C704 C 0.36839 0.11397 0.25008 0.0
C705 C 0.35724 0.13783 0.23143 0.0
H706 H 0.37876 0.09906 0.29588 0.0
C707 C 0.34673 0.16522 0.24549 0.0
H708 H 0.3767 0.09261 0.23994 0.0
C709 C 0.34801 0.16897 0.27751 0.0
C710 C 0.35985 0.14542 0.29611 0.0
H711 H 0.33799 0.18406 0.23175 0.0
H712 H 0.34003 0.19048 0.28761 0.0
C713 C 0.36972 0.11774 0.28213 0.0
C714 C 0.36018 0.89251 0.74408 0.0
C715 C 0.37377 0.87465 0.72055 0.0
H716 H 0.35823 0.90301 0.79239 0.0
C717 C 0.39606 0.85261 0.72839 0.0
H718 H 0.34292 0.90967 0.73878 0.0
C719 C 0.40495 0.8489 0.75913 0.0
C720 C 0.39164 0.86707 0.78261 0.0
H721 H 0.40698 0.83853 0.71075 0.0
H722 H 0.42234 0.83188 0.76445 0.0
C723 C 0.369 0.88874 0.77481 0.0
C724 C 0.65461 0.89017 0.21354 0.0
C725 C 0.63007 0.88649 0.19258 0.0
H726 H 0.66901 0.88982 0.26072 0.0
C727 C 0.60024 0.87982 0.20388 0.0
H728 H 0.67782 0.89538 0.20554 0.0
C729 C 0.59518 0.87646 0.23554 0.0
C730 C 0.6198 0.8799 0.25647 0.0
H731 H 0.58084 0.87682 0.18826 0.0
H732 H 0.57201 0.8711 0.24356 0.0
C733 C 0.64952 0.887 0.24517 0.0
C734 C 0.63806 0.07536 0.76897 0.0
C735 C 0.62103 0.099 0.78338 0.0
H736 H 0.65451 0.05601 0.72646 0.0
C737 C 0.60491 0.12003 0.76501 0.0
H738 H 0.65053 0.05862 0.78253 0.0
C739 C 0.60728 0.11858 0.73288 0.0
C740 C 0.6257 0.09597 0.71853 0.0
H741 H 0.59147 0.1384 0.77542 0.0
H742 H 0.59548 0.13582 0.71935 0.0
C743 C 0.64031 0.07381 0.73683 0.0
C744 C 0.86093 0.75214 0.60824 0.0
C745 C 0.87911 0.77655 0.62014 0.0
H746 H 0.85498 0.70308 0.60379 0.0
C747 C 0.90614 0.76985 0.63672 0.0
H748 H 0.83997 0.75668 0.59541 0.0
C749 C 0.91503 0.73923 0.64103 0.0
C750 C 0.89669 0.71481 0.62939 0.0
H751 H 0.92067 0.78828 0.64599 0.0
H752 H 0.93603 0.73468 0.65379 0.0
C753 C 0.86948 0.7215 0.6131 0.0
C754 C 0.74729 0.41015 0.14694 0.0
C755 C 0.76639 0.3854 0.155 0.0
H756 H 0.70159 0.4247 0.1354 0.0
C757 C 0.75316 0.35583 0.15882 0.0
H758 H 0.7568 0.43321 0.1439 0.0
C759 C 0.72153 0.351 0.1542 0.0
C760 C 0.70255 0.37559 0.14543 0.0
H761 H 0.76725 0.33631 0.16521 0.0
H762 H 0.71213 0.32785 0.15691 0.0
C763 C 0.71567 0.40527 0.14209 0.0
C764 C 0.12825 0.24445 0.68818 0.0
C765 C 0.1105 0.2325 0.66352 0.0
H766 H 0.1441 0.28492 0.71257 0.0
C767 C 0.09429 0.25304 0.64462 0.0
H768 H 0.14101 0.2292 0.70314 0.0
C769 C 0.09632 0.28489 0.64982 0.0
C770 C 0.1144 0.29691 0.67419 0.0
H771 H 0.08047 0.2446 0.62538 0.0
H772 H 0.08375 0.30009 0.63463 0.0
C773 C 0.13008 0.27636 0.69353 0.0
C774 C 0.24862 0.66092 0.08378 0.0
C775 C 0.22939 0.68065 0.10098 0.0
H776 H 0.29431 0.64349 0.07706 0.0
C777 C 0.24242 0.69898 0.12469 0.0
H778 H 0.23926 0.64647 0.06538 0.0
C779 C 0.27388 0.69705 0.13157 0.0
C780 C 0.29299 0.67689 0.11477 0.0
H781 H 0.22823 0.71435 0.13844 0.0
H782 H 0.28315 0.71127 0.15018 0.0
C783 C 0.28013 0.65911 0.09056 0.0
C784 C 0.8411 0.2306 0.40026 0.0
C785 C 0.86232 0.20918 0.41174 0.0
H786 H 0.82442 0.27692 0.40202 0.0
C787 C 0.88253 0.21833 0.43565 0.0
H788 H 0.82498 0.22415 0.3821 0.0
C789 C 0.88222 0.24864 0.44714 0.0
C790 C 0.86152 0.27029 0.4351 0.0
H791 H 0.899 0.20225 0.44514 0.0
H792 H 0.89864 0.25527 0.46497 0.0
C793 C 0.8406 0.26079 0.41191 0.0
C794 C 0.22986 0.3786 0.92404 0.0
C795 C 0.21396 0.37415 0.89603 0.0
H796 H 0.27364 0.38292 0.9466 0.0
C797 C 0.23098 0.36915 0.86879 0.0
H798 H 0.21742 0.38243 0.94545 0.0
C799 C 0.26331 0.36962 0.86941 0.0
C800 C 0.27918 0.37496 0.89731 0.0
H801 H 0.21939 0.36568 0.84682 0.0
H802 H 0.27581 0.36625 0.84796 0.0
C803 C 0.26212 0.37895 0.92468 0.0
C804 C 0.15269 0.771 0.37718 0.0
C805 C 0.13121 0.79407 0.37031 0.0
H806 H 0.16351 0.72292 0.37501 0.0
C807 C 0.10264 0.78549 0.35702 0.0
H808 H 0.17486 0.77685 0.38746 0.0
C809 C 0.09604 0.7545 0.34997 0.0
C810 C 0.118 0.73159 0.35584 0.0
H811 H 0.08552 0.80276 0.35161 0.0
H812 H 0.07408 0.74864 0.33925 0.0
C813 C 0.1462 0.7401 0.36991 0.0
C814 C 0.78809 0.5562 0.88863 0.0
C815 C 0.80564 0.578 0.90552 0.0
H816 H 0.74329 0.54354 0.87116 0.0
C817 C 0.79066 0.60277 0.92022 0.0
H818 H 0.79914 0.53698 0.87696 0.0
C819 C 0.75876 0.60625 0.91731 0.0
C820 C 0.74143 0.5854 0.89907 0.0
H821 H 0.80372 0.61982 0.93347 0.0
H822 H 0.7479 0.62596 0.92831 0.0
C823 C 0.75624 0.56007 0.88514 0.0
C824 C 0.65076 0.8843 0.76087 0.0
C825 C 0.62456 0.87009 0.77401 0.0
H826 H 0.67211 0.90173 0.71991 0.0
C827 C 0.59869 0.86368 0.75529 0.0
H828 H 0.67097 0.88974 0.77476 0.0
C829 C 0.59937 0.87048 0.72382 0.0
C830 C 0.62586 0.88401 0.71054 0.0
H831 H 0.57811 0.85284 0.76477 0.0
H832 H 0.57931 0.86471 0.70984 0.0
C833 C 0.65136 0.89128 0.72946 0.0
C834 C 0.62311 0.12571 0.23814 0.0
C835 C 0.63769 0.15033 0.22267 0.0
H836 H 0.60867 0.10698 0.28143 0.0
C837 C 0.64961 0.17534 0.24008 0.0
H838 H 0.61349 0.10617 0.22543 0.0
C839 C 0.64685 0.1758 0.27228 0.0
C840 C 0.63188 0.15139 0.28768 0.0
H841 H 0.66089 0.19471 0.22884 0.0
H842 H 0.6563 0.19539 0.28506 0.0
C843 C 0.62012 0.12631 0.27026 0.0
C844 C 0.37967 0.09579 0.74904 0.0
C845 C 0.40033 0.10858 0.7275 0.0
H846 H 0.37014 0.08675 0.79663 0.0
C847 C 0.42871 0.12097 0.73787 0.0
H848 H 0.35763 0.08606 0.74173 0.0
C849 C 0.43606 0.12097 0.76931 0.0
C850 C 0.41495 0.10905 0.79093 0.0
H851 H 0.44518 0.1308 0.72173 0.0
H852 H 0.4579 0.13107 0.77673 0.0
C853 C 0.3868 0.09624 0.78048 0.0
C854 C 0.35675 0.91862 0.21832 0.0
C855 C 0.38673 0.92329 0.20659 0.0
H856 H 0.32898 0.90674 0.25743 0.0
C857 C 0.41221 0.92016 0.22643 0.0
H858 H 0.33665 0.92088 0.20359 0.0
C859 C 0.40785 0.9117 0.25718 0.0
C860 C 0.37789 0.90652 0.26876 0.0
H861 H 0.43562 0.92348 0.21805 0.0
H862 H 0.42796 0.90912 0.27183 0.0
C863 C 0.35237 0.91043 0.24914 0.0
C864 C 0.13531 0.15299 0.54387 0.0
C865 C 0.11933 0.1271 0.55545 0.0
H866 H 0.14933 0.17838 0.50415 0.0
C867 C 0.10466 0.10655 0.53466 0.0
H868 H 0.14692 0.16927 0.55925 0.0
C869 C 0.10597 0.11188 0.50284 0.0
C870 C 0.12215 0.13773 0.49137 0.0
H871 H 0.09216 0.08641 0.54293 0.0
H872 H 0.09445 0.09573 0.48728 0.0
C873 C 0.13677 0.15818 0.51222 0.0
C874 C 0.43876 0.64072 0.98045 0.0
C875 C 0.42295 0.61869 0.96219 0.0
H876 H 0.44458 0.66068 0.02549 0.0
C877 C 0.40341 0.59697 0.97656 0.0
H878 H 0.45408 0.65766 0.97004 0.0
C879 C 0.39805 0.59861 0.00829 0.0
C880 C 0.41197 0.62215 0.02619 0.0
H881 H 0.39119 0.57948 0.9631 0.0
H882 H 0.38181 0.58239 0.01845 0.0
C883 C 0.43323 0.6425 0.0122 0.0
C884 C 0.86016 0.87547 0.48182 0.0
C885 C 0.88131 0.89069 0.46243 0.0
H886 H 0.84672 0.86504 0.52796 0.0
C887 C 0.90527 0.90861 0.47571 0.0
H888 H 0.84141 0.86151 0.47237 0.0
C889 C 0.90831 0.91072 0.50786 0.0
C890 C 0.88754 0.89478 0.52715 0.0
H891 H 0.92192 0.92062 0.4613 0.0
H892 H 0.92717 0.92436 0.51754 0.0
C893 C 0.86329 0.87741 0.51377 0.0
C894 C 0.6631 0.32701 0.97699 0.0
C895 C 0.64657 0.34433 0.95536 0.0
H896 H 0.67236 0.31858 0.02463 0.0
C897 C 0.62565 0.36675 0.96594 0.0
H898 H 0.67939 0.30956 0.96957 0.0
C899 C 0.62171 0.37204 0.99758 0.0
C900 C 0.63857 0.35495 0.01918 0.0
H901 H 0.61263 0.38054 0.94981 0.0
H902 H 0.60558 0.3896 1.00507 0.0
C903 C 0.65913 0.33224 0.00857 0.0
C904 C 0.14125 0.92707 0.50392 0.0
C905 C 0.11738 0.91914 0.52442 0.0
H906 H 0.15638 0.92857 0.45702 0.0
C907 C 0.08844 0.90983 0.5124 0.0
H908 H 0.16371 0.93454 0.51241 0.0
C909 C 0.08425 0.90619 0.48058 0.0
C910 C 0.10889 0.91189 0.46024 0.0
H911 H 0.06945 0.9038 0.52761 0.0
H912 H 0.06218 0.89761 0.47209 0.0
C913 C 0.13704 0.9235 0.47213 0.0
C914 C 0.63803 0.54713 0.97293 0.0
C915 C 0.62694 0.56889 0.95181 0.0
H916 H 0.64635 0.53647 0.02038 0.0
C917 C 0.61261 0.59577 0.96305 0.0
H918 H 0.64911 0.52615 0.96498 0.0
C919 C 0.61114 0.60173 0.99471 0.0
C920 C 0.62397 0.58092 0.01578 0.0
H921 H 0.60363 0.61289 0.94736 0.0
H922 H 0.60091 0.62318 1.00257 0.0
C923 C 0.63658 0.55312 1.00467 0.0
C924 C 0.87727 0.07193 0.50298 0.0
C925 C 0.90179 0.08927 0.49025 0.0
H926 H 0.85364 0.05806 0.54417 0.0
C927 C 0.9238 0.10295 0.51008 0.0
H928 H 0.86007 0.06091 0.48825 0.0
C929 C 0.91996 0.10151 0.54201 0.0
C930 C 0.89421 0.08615 0.55472 0.0
H931 H 0.94311 0.11621 0.50102 0.0
H932 H 0.93656 0.11351 0.5567 0.0
C933 C 0.87357 0.0703 0.53499 0.0
C934 C 0.39193 0.42718 0.97127 0.0
C935 C 0.40952 0.40062 0.96503 0.0
H936 H 0.37447 0.45832 0.00559 0.0
C937 C 0.42609 0.38699 0.98913 0.0
H938 H 0.3792 0.43848 0.95308 0.0
C939 C 0.42334 0.39841 0.0193 0.0
C940 C 0.40407 0.42372 0.02584 0.0
H941 H 0.43998 0.36665 0.985 0.0
H942 H 0.43528 0.38655 0.03766 0.0
C943 C 0.38928 0.43865 1.00137 0.0
C944 C 0.50317 0.1582 0.1506 0.0
C945 C 0.52199 0.1338 0.14074 0.0
H946 H 0.45729 0.17525 0.15549 0.0
C947 C 0.50818 0.10675 0.12852 0.0
H948 H 0.51316 0.17937 0.15999 0.0
C949 C 0.47598 0.10422 0.1262 0.0
C950 C 0.45725 0.12893 0.13556 0.0
H951 H 0.52223 0.08755 0.1208 0.0
H952 H 0.46582 0.08319 0.11668 0.0
C953 C 0.47116 0.15589 0.14783 0.0
C954 C 0.41078 0.98043 0.63034 0.0
C955 C 0.3914 0.97229 0.60543 0.0
H956 H 0.43403 0.01681 0.6551 0.0
C957 C 0.38215 0.99522 0.58474 0.0
H958 H 0.41859 0.96311 0.64644 0.0
C959 C 0.39078 0.02608 0.58988 0.0
C960 C 0.40926 0.03435 0.61546 0.0
H961 H 0.36732 0.98952 0.56528 0.0
H962 H 0.38237 0.04356 0.57427 0.0
C963 C 0.41985 0.01113 0.63516 0.0
C964 C 0.48366 0.94508 0.09376 0.0
C965 C 0.46823 0.92371 0.07442 0.0
H966 H 0.52687 0.96073 0.11227 0.0
C967 C 0.4856 0.90357 0.05581 0.0
H968 H 0.47084 0.96117 0.10807 0.0
C969 C 0.51781 0.90316 0.05837 0.0
C970 C 0.53306 0.92307 0.07939 0.0
H971 H 0.47429 0.88695 0.04059 0.0
H972 H 0.53058 0.8863 0.04495 0.0
C973 C 0.51578 0.94487 0.09612 0.0
C974 C 0.66037 0.01303 0.59991 0.0
C975 C 0.64115 0.03695 0.59005 0.0
H976 H 0.66573 0.96433 0.6054 0.0
C977 C 0.61331 0.02951 0.5747 0.0
H978 H 0.68187 0.01803 0.61191 0.0
C979 C 0.60435 0.99855 0.57036 0.0
C980 C 0.62273 0.97483 0.58211 0.0
H981 H 0.59812 0.04761 0.56683 0.0
H982 H 0.58241 0.99324 0.55933 0.0
C983 C 0.65105 0.98229 0.59634 0.0
C984 C 0.50942 0.89399 0.88444 0.0
C985 C 0.49688 0.86795 0.8993 0.0
H986 H 0.55034 0.91734 0.86893 0.0
C987 C 0.51687 0.84604 0.91198 0.0
H988 H 0.49452 0.91141 0.87472 0.0
C989 C 0.54883 0.84928 0.90838 0.0
C990 C 0.56132 0.87475 0.89251 0.0
H991 H 0.50781 0.82579 0.92362 0.0
H992 H 0.56372 0.83147 0.91739 0.0
C993 C 0.54138 0.89749 0.88129 0.0
C994 C 0.61725 0.98195 0.38728 0.0
C995 C 0.59519 0.96466 0.3705 0.0
H996 H 0.6321 0.02666 0.40293 0.0
C997 C 0.56896 0.97963 0.35889 0.0
H998 H 0.63758 0.97105 0.39676 0.0
C999 C 0.56579 0.0116 0.36242 0.0
C1000 C 0.58881 0.02913 0.37761 0.0
H1001 H 0.55142 0.96687 0.34606 0.0
H1002 H 0.54595 0.02268 0.35218 0.0
C1003 C 0.61409 0.01385 0.39081 0.0
C1004 C 0.51721 0.08638 0.93036 0.0
C1005 C 0.49757 0.11066 0.92223 0.0
H1006 H 0.56383 0.06976 0.93087 0.0
C1007 C 0.51041 0.13852 0.91152 0.0
H1008 H 0.50776 0.06463 0.93855 0.0
C1009 C 0.54227 0.14168 0.90771 0.0
C1010 C 0.56188 0.11675 0.91383 0.0
H1011 H 0.49568 0.15762 0.90526 0.0
H1012 H 0.55132 0.16314 0.89843 0.0
C1013 C 0.54919 0.08928 0.92584 0.0
C1014 C 0.41169 0.98844 0.39155 0.0
C1015 C 0.3814 0.97635 0.39147 0.0
H1016 H 0.44018 0.02924 0.39452 0.0
C1017 C 0.35664 0.99576 0.39884 0.0
H1018 H 0.43118 0.97385 0.38595 0.0
C1019 C 0.36183 0.02719 0.40441 0.0
C1020 C 0.39182 0.03984 0.40194 0.0
H1021 H 0.33311 0.98685 0.39921 0.0
H1022 H 0.34205 0.04184 0.40863 0.0
C1023 C 0.41684 0.02007 0.39641 0.0
C1024 C 0.13954 0.51539 0.14205 0.0
C1025 C 0.1321 0.49555 0.11722 0.0
H1026 H 0.15032 0.56163 0.15667 0.0
C1027 C 0.12865 0.50789 0.08752 0.0
H1028 H 0.14252 0.50649 0.16518 0.0
C1029 C 0.13282 0.53957 0.08271 0.0
C1030 C 0.14113 0.55922 0.10743 0.0
H1031 H 0.1229 0.49306 0.068 0.0
H1032 H 0.13015 0.54859 0.05959 0.0
C1033 C 0.1443 0.5469 0.13714 0.0
C1034 C 0.1358 0.54487 0.90776 0.0
C1035 C 0.13732 0.55621 0.87746 0.0
H1036 H 0.1341 0.50474 0.93656 0.0
C1037 C 0.13785 0.53525 0.85251 0.0
H1038 H 0.13528 0.56061 0.92738 0.0
C1039 C 0.13787 0.50349 0.85779 0.0
C1040 C 0.13672 0.49213 0.88806 0.0
H1041 H 0.13916 0.54337 0.82892 0.0
H1042 H 0.1387 0.4878 0.83813 0.0
C1043 C 0.13512 0.51301 0.91301 0.0
C1044 C 0.03041 0.59592 0.35493 0.0
C1045 C 0.04666 0.6123 0.37811 0.0
H1046 H 0.98658 0.5789 0.33897 0.0
C1047 C 0.03106 0.62093 0.40525 0.0
H1048 H 0.04188 0.58861 0.33388 0.0
C1049 C 0.99934 0.61529 0.40819 0.0
C1050 C 0.98265 0.6009 0.38404 0.0
H1051 H 0.043 0.63327 0.42367 0.0
H1052 H 0.98768 0.62355 0.42878 0.0
C1053 C 0.99871 0.59023 0.3579 0.0
C1054 C 0.94126 0.50411 0.88063 0.0
C1055 C 0.94662 0.51808 0.90956 0.0
H1056 H 0.93176 0.46218 0.85575 0.0
C1057 C 0.95063 0.49945 0.93559 0.0
H1058 H 0.93811 0.51814 0.86025 0.0
C1059 C 0.94626 0.4674 0.9332 0.0
C1060 C 0.93853 0.45364 0.9046 0.0
H1061 H 0.95456 0.50982 0.95816 0.0
H1062 H 0.94717 0.45363 0.95397 0.0
C1063 C 0.93769 0.47209 0.87808 0.0
C1064 C 1.0024 0.41861 0.42893 0.0
C1065 C 0.01445 0.39422 0.41105 0.0
H1066 H 0.96201 0.43835 0.44983 0.0
C1067 C 0.99449 0.37061 0.40049 0.0
H1068 H 0.01735 0.43708 0.4374 0.0
C1069 C 0.9632 0.371 0.40811 0.0
C1070 C 0.95106 0.39529 0.42601 0.0
H1071 H 1.00312 0.3514 0.38687 0.0
H1072 H 0.94847 0.35232 0.3997 0.0
C1073 C 0.97083 0.41931 0.43608 0.0
C1074 C 0.88068 0.48191 0.12174 0.0
C1075 C 0.88753 0.46236 0.14647 0.0
H1076 H 0.87752 0.52855 0.10604 0.0
C1077 C 0.89931 0.47523 0.17406 0.0
H1078 H 0.87161 0.47263 0.1002 0.0
C1079 C 0.90298 0.5072 0.17732 0.0
C1080 C 0.89452 0.52686 0.15319 0.0
H1081 H 0.90501 0.46064 0.19344 0.0
H1082 H 0.91125 0.51653 0.19915 0.0
C1083 C 0.88395 0.51391 0.12515 0.0
C1084 C 0.96072 0.40331 0.71721 0.0
C1085 C 0.94364 0.40565 0.68975 0.0
H1086 H 1.00535 0.39704 0.73752 0.0
C1087 C 0.95923 0.40642 0.6613 0.0
H1088 H 0.94922 0.40245 0.73944 0.0
C1089 C 0.99137 0.40379 0.66025 0.0
C1090 C 0.0082 0.39955 0.68759 0.0
H1091 H 0.9465 0.40821 0.63983 0.0
H1092 H 1.00287 0.40367 0.638 0.0
C1093 C 0.99274 0.39991 0.7161 0.0
C1094 C 0.03332 0.58978 0.62007 0.0
C1095 C 0.04751 0.60137 0.59331 0.0
H1096 H 0.9912 0.58409 0.64547 0.0
C1097 C 0.02904 0.61425 0.57011 0.0
H1098 H 0.04698 0.57982 0.63839 0.0
C1099 C 0.99711 0.61655 0.57408 0.0
C1100 C 0.98311 0.60635 0.60149 0.0
H1101 H 0.03934 0.62329 0.54918 0.0
H1102 H 0.98358 0.62723 0.55609 0.0
C1103 C 1.00142 0.59242 0.62421 0.0
C1104 C 0.97779 0.10759 0.3591 0.0
C1105 C 0.96394 0.08076 0.37138 0.0
H1106 H 0.01976 0.13329 0.35159 0.0
C1107 C 0.9833 0.05688 0.3815 0.0
H1108 H 0.96367 0.12641 0.35094 0.0
C1109 C 0.0155 0.06088 0.382 0.0
C1110 C 0.02919 0.0888 0.37223 0.0
H1111 H 0.97355 0.03574 0.39083 0.0
H1112 H 0.02952 0.04271 0.39164 0.0
C1113 C 0.01005 0.11154 0.35945 0.0
C1114 C 0.43484 0.48188 0.84875 0.0
C1115 C 0.4122 0.46063 0.83812 0.0
H1116 H 0.44825 0.52949 0.85447 0.0
C1117 C 0.38756 0.47188 0.82039 0.0
H1118 H 0.45431 0.47409 0.86227 0.0
C1119 C 0.38411 0.50376 0.81589 0.0
C1120 C 0.40522 0.5252 0.82898 0.0
H1121 H 0.36978 0.45628 0.81164 0.0
H1122 H 0.3638 0.51165 0.80373 0.0
C1123 C 0.43141 0.51376 0.84422 0.0
C1124 C 0.03172 0.95993 0.36115 0.0
C1125 C 0.04928 0.93676 0.34654 0.0
H1126 H 0.98685 0.97529 0.37511 0.0
C1127 C 0.03334 0.91284 0.3307 0.0
H1128 H 0.04305 0.97886 0.3734 0.0
C1129 C 1.00085 0.91078 0.33168 0.0
C1130 C 0.98352 0.93258 0.34855 0.0
H1131 H 0.04599 0.89456 0.31917 0.0
H1132 H 0.98952 0.89102 0.32084 0.0
C1133 C 0.99935 0.95786 0.36217 0.0
C1134 C 0.62249 0.45352 0.82972 0.0
C1135 C 0.64342 0.43682 0.81117 0.0
H1136 H 0.60826 0.49813 0.84646 0.0
C1137 C 0.66339 0.45357 0.79162 0.0
H1138 H 0.6068 0.44149 0.84511 0.0
C1139 C 0.66432 0.48597 0.7925 0.0
C1140 C 0.64519 0.50266 0.81282 0.0
H1141 H 0.67969 0.44163 0.77684 0.0
H1142 H 0.68127 0.49789 0.77837 0.0
C1143 C 0.62332 0.48609 0.83048 0.0
C1144 C 0.96951 0.92627 0.64055 0.0
C1145 C 0.96035 0.90104 0.65881 0.0
H1146 H 0.00709 0.9514 0.62009 0.0
C1147 C 0.98342 0.88428 0.67422 0.0
H1148 H 0.95246 0.93984 0.6285 0.0
C1149 C 0.01487 0.89081 0.66928 0.0
C1150 C 0.02404 0.91434 0.6489 0.0
H1151 H 0.9773 0.86484 0.68869 0.0
H1152 H 0.03192 0.87619 0.68002 0.0
C1153 C 1.00096 0.93288 0.63572 0.0
C1154 C 0.60072 0.49712 0.15601 0.0
C1155 C 0.58604 0.47488 0.13684 0.0
H1156 H 0.61035 0.54516 0.16481 0.0
C1157 C 0.56585 0.48532 0.11377 0.0
H1158 H 0.61628 0.49006 0.17419 0.0
C1159 C 0.5623 0.5171 0.10852 0.0
C1160 C 0.57896 0.53928 0.1261 0.0
H1161 H 0.55404 0.46896 0.09865 0.0
H1162 H 0.54782 0.52417 0.08947 0.0
C1163 C 0.59728 0.52887 0.15068 0.0
C1164 C 0.98885 0.11126 0.69624 0.0
C1165 C 0.98073 0.08981 0.67291 0.0
H1166 H 0.02512 0.13729 0.71841 0.0
C1167 C 1.00474 0.07488 0.65674 0.0
H1168 H 0.97112 0.1232 0.70924 0.0
C1169 C 0.03584 0.08303 0.66193 0.0
C1170 C 0.04378 0.10635 0.68345 0.0
H1171 H 0.99948 0.05808 0.63872 0.0
H1172 H 0.05347 0.07231 0.64776 0.0
C1173 C 0.01995 0.11942 0.70142 0.0
C1174 C 0.39079 0.56458 0.16557 0.0
C1175 C 0.41709 0.57406 0.14889 0.0
H1176 H 0.36281 0.52668 0.18122 0.0
C1177 C 0.43791 0.55122 0.13872 0.0
H1178 H 0.3743 0.58141 0.17392 0.0
C1179 C 0.43128 0.51966 0.14286 0.0
C1180 C 0.40365 0.51015 0.15729 0.0
H1181 H 0.45853 0.55759 0.12594 0.0
H1182 H 0.44692 0.50276 0.1331 0.0
C1183 C 0.38417 0.53306 0.16971 0.0
C1184 C 0.35485 0.05362 0.06951 0.0
C1185 C 0.33942 0.07346 0.09026 0.0
H1186 H 0.36546 0.00682 0.05685 0.0
C1187 C 0.31858 0.0603 0.11153 0.0
H1188 H 0.37093 0.06287 0.05268 0.0
C1189 C 0.31546 0.02811 0.11392 0.0
C1190 C 0.33303 0.00822 0.09508 0.0
H1191 H 0.30609 0.07478 0.12773 0.0
H1192 H 0.30064 0.01886 0.13188 0.0
C1193 C 0.35166 0.02137 0.07187 0.0
C1194 C 0.46508 0.87511 0.57849 0.0
C1195 C 0.45619 0.84761 0.59338 0.0
H1196 H 0.50232 0.906 0.56685 0.0
C1197 C 0.47952 0.82729 0.60301 0.0
H1198 H 0.44786 0.89141 0.57086 0.0
C1199 C 0.51093 0.83548 0.60016 0.0
C1200 C 0.51954 0.86443 0.58816 0.0
H1201 H 0.47349 0.80592 0.61455 0.0
H1202 H 0.52824 0.82035 0.60972 0.0
C1203 C 0.49636 0.88356 0.57626 0.0
C1204 C 0.66921 0.01705 0.11794 0.0
C1205 C 0.65574 0.04148 0.10149 0.0
H1206 H 0.67664 0.96822 0.12095 0.0
C1207 C 0.64276 0.03488 0.07233 0.0
H1208 H 0.67966 0.02123 0.14036 0.0
C1209 C 0.64106 1.00431 0.06113 0.0
C1210 C 0.65233 0.97956 0.07877 0.0
H1211 H 0.63227 0.05304 0.05894 0.0
H1212 H 0.6293 0.99992 0.03941 0.0
C1213 C 0.66757 0.98653 0.10673 0.0
C1214 C 0.53903 0.17985 0.62399 0.0
C1215 C 0.54772 0.16249 0.5978 0.0
H1216 H 0.50196 0.19541 0.65291 0.0
C1217 C 0.5242 0.15148 0.57786 0.0
H1218 H 0.55638 0.18877 0.63987 0.0
C1219 C 0.49286 0.15529 0.58534 0.0
C1220 C 0.48421 0.17015 0.61302 0.0
H1221 H 0.52995 0.1382 0.55734 0.0
H1222 H 0.47553 0.14478 0.57041 0.0
C1223 C 0.50769 0.18357 0.63153 0.0
C1224 C 0.35627 0.01251 0.89973 0.0
C1225 C 0.38551 0.02211 0.91046 0.0
H1226 H 0.32693 0.97393 0.88735 0.0
C1227 C 0.40572 0.9998 0.92216 0.0
H1228 H 0.34043 0.02919 0.8902 0.0
C1229 C 0.39784 0.96829 0.92114 0.0
C1230 C 0.3699 0.95828 0.9075 0.0
H1231 H 0.42849 0.00659 0.9304 0.0
H1232 H 0.41485 0.95172 0.92862 0.0
C1233 C 0.34864 0.98083 0.89798 0.0
C1234 C 0.5236 0.85521 0.40417 0.0
C1235 C 0.54542 0.84566 0.38191 0.0
H1236 H 0.47577 0.86247 0.41506 0.0
C1237 C 0.53438 0.83185 0.35443 0.0
H1238 H 0.53115 0.86581 0.42569 0.0
C1239 C 0.50252 0.83008 0.34828 0.0
C1240 C 0.4808 0.84184 0.36952 0.0
H1241 H 0.55035 0.82407 0.33679 0.0
H1242 H 0.49503 0.82091 0.32611 0.0
C1243 C 0.49171 0.85324 0.3981 0.0
C1244 C 0.69838 0.99733 0.87691 0.0
C1245 C 0.67901 0.00568 0.90167 0.0
H1246 H 0.71671 0.96053 0.84908 0.0
C1247 C 0.66682 0.98193 0.92034 0.0
H1248 H 0.70819 0.01488 0.862 0.0
C1249 C 0.67183 0.95065 0.91302 0.0
C1250 C 0.689 0.94228 0.88668 0.0
H1251 H 0.65193 0.98743 0.93972 0.0
H1252 H 0.66052 0.93311 0.92687 0.0
C1253 C 0.7032 0.96604 0.86945 0.0
C1254 C 0.47328 0.17623 0.39268 0.0
C1255 C 0.46366 0.15862 0.41819 0.0
H1256 H 0.51092 0.19043 0.36373 0.0
C1257 C 0.4865 0.14506 0.43678 0.0
H1258 H 0.45645 0.18714 0.37788 0.0
C1259 C 0.51788 0.14696 0.42864 0.0
C1260 C 0.52719 0.16242 0.40166 0.0
H1261 H 0.48003 0.13146 0.45671 0.0
H1262 H 0.53458 0.13475 0.4425 0.0
C1263 C 0.50462 0.17806 0.3845 0.0
C1264 C 0.11997 0.35303 0.03117 0.0
C1265 C 0.10275 0.37009 0.00968 0.0
H1266 H 0.13045 0.34481 0.07879 0.0
C1267 C 0.07936 0.38958 0.02094 0.0
H1268 H 0.13805 0.3376 0.02346 0.0
C1269 C 0.07486 0.39356 0.05288 0.0
C1270 C 0.09372 0.37827 0.07437 0.0
H1271 H 0.06555 0.40299 1.00516 0.0
H1272 H 0.05773 0.41001 0.06064 0.0
C1273 C 0.11557 0.3571 0.06305 0.0
C1274 C 0.1313 0.69504 0.9335 0.0
C1275 C 0.10843 0.67392 0.92327 0.0
H1276 H 0.156 0.71457 0.97202 0.0
C1277 C 0.08977 0.65932 0.94566 0.0
H1278 H 0.14598 0.70695 0.91706 0.0
C1279 C 0.09547 0.66378 0.97735 0.0
C1280 C 0.12003 0.68292 0.98748 0.0
H1281 H 0.07182 0.64301 0.93877 0.0
H1282 H 0.08176 0.65079 0.9938 0.0
C1283 C 0.13707 0.6994 0.96515 0.0
C1284 C 0.87899 0.57227 0.50878 0.0
C1285 C 0.86457 0.59239 0.48791 0.0
H1286 H 0.88674 0.56037 0.5561 0.0
C1287 C 0.84269 0.61336 0.49951 0.0
H1288 H 0.89578 0.55561 0.5007 0.0
C1289 C 0.83743 0.61602 0.53139 0.0
C1290 C 0.85391 0.59778 0.55247 0.0
H1291 H 0.83096 0.62906 0.48418 0.0
H1292 H 0.82179 0.63372 0.53957 0.0
C1293 C 0.87372 0.57492 0.54066 0.0
C1294 C 0.87195 0.32701 0.02383 0.0
C1295 C 0.89893 0.34371 0.01619 0.0
H1296 H 0.84185 0.31105 0.05979 0.0
C1297 C 0.91858 0.3537 0.04037 0.0
H1298 H 0.85631 0.31885 0.00592 0.0
C1299 C 0.9103 0.34922 0.07138 0.0
C1300 C 0.88212 0.33466 0.07903 0.0
H1301 H 0.93968 0.36645 0.03543 0.0
H1302 H 0.92516 0.35878 0.08929 0.0
C1303 C 0.86365 0.32258 0.05484 0.0
C1304 C 0.12173 0.43621 0.56444 0.0
C1305 C 0.13927 0.41114 0.57489 0.0
H1306 H 0.10321 0.46013 0.52553 0.0
C1307 C 0.15526 0.39323 0.55282 0.0
H1308 H 0.10915 0.45057 0.58067 0.0
C1309 C 0.15194 0.39877 0.52109 0.0
C1310 C 0.13239 0.42228 0.51058 0.0
H1311 H 0.16916 0.37384 0.55995 0.0
H1312 H 0.16326 0.38342 0.50482 0.0
C1313 C 0.11827 0.44165 0.53271 0.0
C1314 C 0.92693 0.61632 0.01934 0.0
C1315 C 0.91376 0.63215 0.99445 0.0
H1316 H 0.9302 0.6117 0.0684 0.0
C1317 C 0.89656 0.65892 1.00056 0.0
H1318 H 0.94013 0.59549 0.01524 0.0
C1319 C 0.89014 0.66785 0.03118 0.0
C1320 C 0.90136 0.65053 0.05617 0.0
H1321 H 0.8858 0.6713 0.98181 0.0
H1322 H 0.87481 0.68714 0.03524 0.0
C1323 C 0.9212 0.62566 0.04984 0.0
C1324 C 0.84035 0.41535 0.53044 0.0
C1325 C 0.82151 0.39037 0.52076 0.0
H1326 H 0.85983 0.44073 0.56859 0.0
C1327 C 0.80408 0.37451 0.54327 0.0
H1328 H 0.85399 0.42823 0.51384 0.0
C1329 C 0.80735 0.38175 0.57479 0.0
C1330 C 0.82823 0.40498 0.58464 0.0
H1331 H 0.7891 0.3553 0.53672 0.0
H1332 H 0.79499 0.36776 0.59148 0.0
C1333 C 0.84369 0.42252 0.56195 0.0
C1334 C 0.15905 0.58887 0.47392 0.0
C1335 C 0.17499 0.61594 0.48321 0.0
H1336 H 0.14146 0.5615 0.43617 0.0
C1337 C 0.18948 0.63394 0.46027 0.0
H1338 H 0.14768 0.57436 0.49085 0.0
C1339 C 0.18598 0.62654 0.42883 0.0
C1340 C 0.16779 0.60096 0.41941 0.0
H1341 H 0.20218 0.65482 0.46649 0.0
H1342 H 0.19594 0.64204 0.4119 0.0
C1343 C 0.15548 0.5815 0.44244 0.0
C1344 C 0.2625 0.1659 0.39477 0.0
C1345 C 0.27396 0.13612 0.38916 0.0
H1346 H 0.22275 0.19494 0.39686 0.0
C1347 C 0.25289 0.1123 0.38096 0.0
H1348 H 0.27805 0.18479 0.40087 0.0
C1349 C 0.22115 0.11803 0.37862 0.0
C1350 C 0.20965 0.1478 0.38419 0.0
H1351 H 0.26089 0.08902 0.3764 0.0
H1352 H 0.20563 0.09907 0.37262 0.0
C1353 C 0.23076 0.17169 0.39219 0.0
C1354 C 0.36646 0.72811 0.83498 0.0
C1355 C 0.38921 0.71103 0.85036 0.0
H1356 H 0.34381 0.77142 0.82968 0.0
C1357 C 0.40709 0.72618 0.87326 0.0
H1358 H 0.352 0.71733 0.81742 0.0
C1359 C 0.40225 0.75761 0.88048 0.0
C1360 C 0.37928 0.77452 0.8651 0.0
H1361 H 0.42458 0.7137 0.88585 0.0
H1362 H 0.41661 0.76867 0.89795 0.0
C1363 C 0.36152 0.75925 0.84228 0.0
C1364 C 0.74674 0.85292 0.36103 0.0
C1365 C 0.73381 0.88212 0.35609 0.0
H1366 H 0.78786 0.8259 0.36318 0.0
C1367 C 0.75396 0.90713 0.34946 0.0
H1368 H 0.73202 0.83313 0.36594 0.0
C1369 C 0.78612 0.90308 0.34787 0.0
C1370 C 0.79904 0.87382 0.35257 0.0
H1371 H 0.74489 0.93002 0.34546 0.0
H1372 H 0.80083 0.92288 0.343 0.0
C1373 C 0.77886 0.84881 0.35916 0.0
C1374 C 0.69691 0.20608 0.83182 0.0
C1375 C 0.67752 0.19088 0.85309 0.0
H1376 H 0.71094 0.24918 0.81158 0.0
C1377 C 0.65605 0.2087 0.86986 0.0
H1378 H 0.71354 0.19312 0.81834 0.0
C1379 C 0.6538 0.24078 0.86515 0.0
C1380 C 0.67348 0.25596 0.84411 0.0
H1381 H 0.64052 0.19779 0.88618 0.0
H1382 H 0.63716 0.25382 0.87856 0.0
C1383 C 0.69524 0.23821 0.82774 0.0
C1384 C 0.25647 0.88505 0.61746 0.0
C1385 C 0.27157 0.8607 0.63253 0.0
H1386 H 0.2134 0.90788 0.60867 0.0
C1387 C 0.25379 0.84074 0.6511 0.0
H1388 H 0.26945 0.90105 0.60321 0.0
C1389 C 0.2219 0.8448 0.65444 0.0
C1390 C 0.20667 0.86901 0.63941 0.0
H1391 H 0.26451 0.82184 0.66325 0.0
H1392 H 0.20911 0.82866 0.66873 0.0
C1393 C 0.22438 0.88918 0.62089 0.0
C1394 C 0.645 0.74331 0.07985 0.0
C1395 C 0.6231 0.72402 0.09466 0.0
H1396 H 0.65928 0.78967 0.06872 0.0
C1397 C 0.59812 0.73792 0.10991 0.0
H1398 H 0.66464 0.73346 0.06789 0.0
C1399 C 0.59503 0.77019 0.11019 0.0
C1400 C 0.61692 0.78949 0.09539 0.0
H1401 H 0.58085 0.72389 0.12153 0.0
H1402 H 0.5754 0.77999 0.1222 0.0
C1403 C 0.64201 0.77561 0.08028 0.0
C1404 C 0.7762 0.1502 0.686 0.0
C1405 C 0.79397 0.13233 0.66542 0.0
H1406 H 0.73184 0.16865 0.69738 0.0
C1407 C 0.77919 0.11951 0.63917 0.0
H1408 H 0.78672 0.16065 0.70633 0.0
C1409 C 0.74751 0.12465 0.63366 0.0
C1410 C 0.72979 0.14244 0.65445 0.0
H1411 H 0.7922 0.10599 0.62257 0.0
H1412 H 0.73681 0.11428 0.6134 0.0
C1413 C 0.74465 0.155 0.68072 0.0
C1414 C 0.39205 0.27495 0.1556 0.0
C1415 C 0.3745 0.25592 0.13535 0.0
H1416 H 0.40786 0.32092 0.16715 0.0
C1417 C 0.35901 0.26977 0.1107 0.0
H1418 H 0.40431 0.26509 0.17492 0.0
C1419 C 0.36116 0.30177 0.10629 0.0
C1420 C 0.37881 0.32081 0.12643 0.0
H1421 H 0.34535 0.2559 0.0947 0.0
H1422 H 0.34891 0.31155 0.08691 0.0
C1423 C 0.39415 0.30702 0.15122 0.0
C1424 C 0.1127 0.45036 0.27375 0.0
C1425 C 0.12006 0.42297 0.25765 0.0
H1426 H 0.10456 0.47226 0.31762 0.0
C1427 C 0.12583 0.39609 0.2747 0.0
H1428 H 0.1083 0.4715 0.26129 0.0
C1429 C 0.12473 0.39683 0.3072 0.0
C1430 C 0.11709 0.42426 0.3232 0.0
H1431 H 0.13197 0.37477 0.26297 0.0
H1432 H 0.12922 0.37578 0.31976 0.0
C1433 C 0.11077 0.45088 0.30604 0.0
C1434 C 0.16251 0.62075 0.68565 0.0
C1435 C 0.14204 0.64184 0.67235 0.0
H1436 H 0.18132 0.60225 0.72731 0.0
C1437 C 0.12479 0.66121 0.6922 0.0
H1438 H 0.17609 0.60548 0.67118 0.0
C1439 C 0.12772 0.65942 0.7244 0.0
C1440 C 0.14796 0.63817 0.73774 0.0
H1441 H 0.10877 0.67783 0.6829 0.0
H1442 H 0.11398 0.67461 0.73882 0.0
C1443 C 0.1654 0.61893 0.71791 0.0
C1444 C 0.88279 0.62567 0.25724 0.0
C1445 C 0.8647 0.64745 0.24159 0.0
H1446 H 0.89522 0.60592 0.30084 0.0
C1447 C 0.84455 0.6661 0.259 0.0
H1448 H 0.89832 0.61067 0.24457 0.0
C1449 C 0.84261 0.66322 0.29113 0.0
C1450 C 0.86061 0.64148 0.30686 0.0
H1451 H 0.8301 0.68298 0.2478 0.0
H1452 H 0.82704 0.67827 0.30367 0.0
C1453 C 0.88072 0.62267 0.28949 0.0
C1454 C 0.83123 0.32631 0.81941 0.0
C1455 C 0.8542 0.34504 0.83335 0.0
H1456 H 0.80688 0.31391 0.77781 0.0
C1457 C 0.86951 0.3672 0.81506 0.0
H1458 H 0.81868 0.30931 0.83288 0.0
C1459 C 0.86197 0.37059 0.78369 0.0
C1460 C 0.83938 0.35146 0.76963 0.0
H1461 H 0.88687 0.38246 0.82513 0.0
H1462 H 0.87438 0.38773 0.77033 0.0
C1463 C 0.82424 0.32918 0.78789 0.0
C1464 C 0.72039 0.84902 0.62597 0.0
C1465 C 0.71162 0.87409 0.60756 0.0
H1466 H 0.75701 0.82668 0.65038 0.0
C1467 C 0.73412 0.89677 0.60044 0.0
H1468 H 0.70366 0.83133 0.63224 0.0
C1469 C 0.7645 0.89447 0.61133 0.0
C1470 C 0.77341 0.86926 0.62944 0.0
H1471 H 0.72825 0.91665 0.58662 0.0
H1472 H 0.78116 0.9122 0.60498 0.0
C1473 C 0.75095 0.84655 0.63664 0.0
C1474 C 0.57624 0.23656 0.07944 0.0
C1475 C 0.59812 0.22261 0.09878 0.0
H1476 H 0.55419 0.2783 0.06545 0.0
C1477 C 0.61425 0.24147 0.12019 0.0
H1478 H 0.56316 0.22283 0.06285 0.0
C1479 C 0.60867 0.27344 0.12207 0.0
C1480 C 0.58701 0.28739 0.1024 0.0
H1481 H 0.63097 0.23151 0.13576 0.0
H1482 H 0.62178 0.28728 0.13853 0.0
C1483 C 0.57088 0.26845 0.08112 0.0
C1484 C 0.25206 0.16497 0.63954 0.0
C1485 C 0.23157 0.1403 0.64639 0.0
H1486 H 0.29872 0.17921 0.62919 0.0
C1487 C 0.24358 0.11037 0.64839 0.0
H1488 H 0.24362 0.1884 0.63783 0.0
C1489 C 0.27507 0.10513 0.64302 0.0
C1490 C 0.29554 0.1297 0.6358 0.0
H1491 H 0.22855 0.09085 0.65344 0.0
H1492 H 0.28334 0.08162 0.64455 0.0
C1493 C 0.28369 0.15977 0.63449 0.0
C1494 C 0.37033 0.80907 0.08633 0.0
C1495 C 0.38619 0.82437 0.11035 0.0
H1496 H 0.35867 0.76573 0.06483 0.0
C1497 C 0.40255 0.80647 0.13191 0.0
H1498 H 0.35758 0.82208 0.06935 0.0
C1499 C 0.4031 0.77412 0.12949 0.0
C1500 C 0.38754 0.75883 0.10528 0.0
H1501 H 0.41499 0.81744 0.15084 0.0
H1502 H 0.41588 0.76114 0.14647 0.0
C1503 C 0.37111 0.77672 0.08375 0.0
C1504 C 0.72574 0.13149 0.41161 0.0
C1505 C 0.71353 0.11766 0.38477 0.0
H1506 H 0.76609 0.14099 0.43881 0.0
C1507 C 0.73394 0.1031 0.36392 0.0
H1508 H 0.71072 0.14282 0.42815 0.0
C1509 C 0.76576 0.10211 0.36991 0.0
C1510 C 0.7779 0.11542 0.39704 0.0
H1511 H 0.72534 0.09228 0.3429 0.0
H1512 H 0.78076 0.09063 0.35346 0.0
C1513 C 0.75752 0.13026 0.41774 0.0
C1514 C 0.40676 0.26693 0.86633 0.0
C1515 C 0.38474 0.27902 0.88681 0.0
H1516 H 0.42961 0.22668 0.84912 0.0
C1517 C 0.36829 0.25833 0.906 0.0
H1518 H 0.4198 0.28208 0.85122 0.0
C1519 C 0.37375 0.22639 0.90474 0.0
C1520 C 0.39594 0.21435 0.88438 0.0
H1521 H 0.35102 0.26678 0.92204 0.0
H1522 H 0.36074 0.2112 0.91983 0.0
C1523 C 0.41234 0.23506 0.86519 0.0
C1524 C 0.24755 0.88068 0.35631 0.0
C1525 C 0.23209 0.89961 0.37789 0.0
H1526 H 0.29024 0.85865 0.3435 0.0
C1527 C 0.2485 0.90964 0.40431 0.0
H1528 H 0.23561 0.87226 0.33585 0.0
C1529 C 0.27928 0.90129 0.40905 0.0
C1530 C 0.29508 0.8829 0.38737 0.0
H1531 H 0.23752 0.92393 0.42174 0.0
H1532 H 0.29088 0.90995 0.4296 0.0
C1533 C 0.27878 0.87262 0.36087 0.0
C1534 C 0.68858 0.70894 0.85591 0.0
C1535 C 0.66402 0.68845 0.84823 0.0
H1536 H 0.70298 0.75584 0.86555 0.0
C1537 C 0.63451 0.70088 0.84374 0.0
H1538 H 0.71167 0.70026 0.85976 0.0
C1539 C 0.62962 0.73276 0.84708 0.0
C1540 C 0.65403 0.7532 0.85523 0.0
H1541 H 0.61503 0.68594 0.83801 0.0
H1542 H 0.60644 0.74132 0.84353 0.0
C1543 C 0.68363 0.74087 0.85947 0.0
C1544 C 0.87748 0.59039 0.78299 0.0
C1545 C 0.89436 0.61003 0.8032 0.0
H1546 H 0.86566 0.57872 0.73613 0.0
C1547 C 0.91203 0.63419 0.79058 0.0
H1548 H 0.86344 0.57157 0.79189 0.0
C1549 C 0.91335 0.63816 0.75848 0.0
C1550 C 0.89687 0.61818 0.73826 0.0
H1551 H 0.92526 0.64971 0.80541 0.0
H1552 H 0.92755 0.65683 0.74953 0.0
C1553 C 0.87865 0.59446 0.75095 0.0
C1554 C 0.87418 0.34428 0.31336 0.0
C1555 C 0.85786 0.36498 0.33265 0.0
H1556 H 0.88635 0.33081 0.2671 0.0
C1557 C 0.84062 0.38844 0.31885 0.0
H1558 H 0.88775 0.32584 0.32311 0.0
C1559 C 0.83987 0.39121 0.28661 0.0
C1560 C 0.85635 0.37061 0.26733 0.0
H1561 H 0.82783 0.40474 0.33293 0.0
H1562 H 0.82639 0.40969 0.2768 0.0
C1563 C 0.87344 0.34705 0.28114 0.0
C1564 C 0.10943 0.39112 0.80773 0.0
C1565 C 0.09028 0.41093 0.82508 0.0
H1566 H 0.12894 0.38015 0.76334 0.0
C1567 C 0.07622 0.43574 0.80981 0.0
H1568 H 0.12092 0.37195 0.81869 0.0
C1569 C 0.08116 0.44069 0.77826 0.0
C1570 C 0.1003 0.42098 0.76086 0.0
H1571 H 0.06158 0.45173 0.82233 0.0
H1572 H 0.06966 0.45994 0.76746 0.0
C1573 C 0.11436 0.39606 0.77602 0.0
C1574 C 0.08466 0.63349 0.22353 0.0
C1575 C 0.11266 0.63999 0.23903 0.0
H1576 H 0.06033 0.63136 0.1804 0.0
C1577 C 0.138 0.65081 0.22168 0.0
H1578 H 0.06463 0.62518 0.23614 0.0
C1579 C 0.1352 0.65523 0.18958 0.0
C1580 C 0.10719 0.64831 0.17413 0.0
H1581 H 0.15976 0.65635 0.23294 0.0
H1582 H 0.1552 0.66325 0.17675 0.0
C1583 C 0.08208 0.63724 0.19155 0.0
loop_
_geom_bond_atom_site_label_1
_geom_bond_atom_site_label_2
_geom_bond_distance
_geom_bond_site_symmetry_2
_ccdc_geom_bond_type
C0 O1 1.160 . S
C0 O7 1.185 . S
O1 C0 1.160 . S
O2 Zn3 1.899 . S
O2 C10 1.284 . S
Zn3 O2 1.899 . S
Zn3 O4 2.032 . S
Zn3 O7 2.086 . S
Zn3 O12 1.977 . S
O4 Zn3 2.032 . S
O4 C8 1.278 . S
C5 O6 1.203 . S
C5 O12 1.267 . S
O6 C5 1.203 . S
O7 C0 1.185 . S
O7 Zn3 2.086 . S
C8 O4 1.278 . S
C8 O9 1.211 . S
O9 C8 1.211 . S
C10 O2 1.284 . S
C10 O11 1.273 . S
O11 C10 1.273 . S
O12 Zn3 1.977 . S
O12 C5 1.267 . S
C13 O14 1.160 . S
C13 O20 1.185 . S
O14 C13 1.160 . S
O15 Zn16 1.899 . S
O15 C23 1.284 . S
Zn16 O15 1.899 . S
Zn16 O17 2.032 . S
Zn16 O20 2.086 . S
Zn16 O25 1.977 . S
O17 Zn16 2.032 . S
O17 C21 1.278 . S
C18 O19 1.203 . S
C18 O25 1.267 . S
O19 C18 1.203 . S
O20 C13 1.185 . S
O20 Zn16 2.086 . S
C21 O17 1.278 . S
C21 O22 1.211 . S
O22 C21 1.211 . S
C23 O15 1.284 . S
C23 O24 1.273 . S
O24 C23 1.273 . S
O25 Zn16 1.977 . S
O25 C18 1.267 . S
C26 O27 1.160 . S
C26 O33 1.185 . S
O27 C26 1.160 . S
O28 Zn29 1.899 . S
O28 C36 1.284 . S
Zn29 O28 1.899 . S
Zn29 O30 2.032 . S
Zn29 O33 2.086 . S
Zn29 O38 1.977 . S
O30 Zn29 2.032 . S
O30 C34 1.278 . S
C31 O32 1.203 . S
C31 O38 1.267 . S
O32 C31 1.203 . S
O33 C26 1.185 . S
O33 Zn29 2.086 . S
C34 O30 1.278 . S
C34 O35 1.211 . S
O35 C34 1.211 . S
C36 O28 1.284 . S
C36 O37 1.273 . S
O37 C36 1.273 . S
O38 Zn29 1.977 . S
O38 C31 1.267 . S
C39 O40 1.160 . S
C39 O46 1.185 . S
O40 C39 1.160 . S
O41 Zn42 1.899 . S
O41 C49 1.284 . S
Zn42 O41 1.899 . S
Zn42 O43 2.032 . S
Zn42 O46 2.086 . S
Zn42 O51 1.977 . S
O43 Zn42 2.032 . S
O43 C47 1.278 . S
C44 O45 1.203 . S
C44 O51 1.267 . S
O45 C44 1.203 . S
O46 C39 1.185 . S
O46 Zn42 2.086 . S
C47 O43 1.278 . S
C47 O48 1.211 . S
O48 C47 1.211 . S
C49 O41 1.284 . S
C49 O50 1.273 . S
O50 C49 1.273 . S
O51 Zn42 1.977 . S
O51 C44 1.267 . S
C52 O53 1.160 . S
C52 O59 1.185 . S
O53 C52 1.160 . S
O54 Zn55 1.899 . S
O54 C62 1.284 . S
Zn55 O54 1.899 . S
Zn55 O56 2.032 . S
Zn55 O59 2.086 . S
Zn55 O64 1.977 . S
O56 Zn55 2.032 . S
O56 C60 1.278 . S
C57 O58 1.203 . S
C57 O64 1.267 . S
O58 C57 1.203 . S
O59 C52 1.185 . S
O59 Zn55 2.086 . S
C60 O56 1.278 . S
C60 O61 1.211 . S
O61 C60 1.211 . S
C62 O54 1.284 . S
C62 O63 1.273 . S
O63 C62 1.273 . S
O64 Zn55 1.977 . S
O64 C57 1.267 . S
C65 O66 1.160 . S
C65 O72 1.185 . S
O66 C65 1.160 . S
O67 Zn68 1.899 . S
O67 C75 1.284 . S
Zn68 O67 1.899 . S
Zn68 O69 2.032 . S
Zn68 O72 2.086 . S
Zn68 O77 1.977 . S
O69 Zn68 2.032 . S
O69 C73 1.278 . S
C70 O71 1.203 . S
C70 O77 1.267 . S
O71 C70 1.203 . S
O72 C65 1.185 . S
O72 Zn68 2.086 . S
C73 O69 1.278 . S
C73 O74 1.211 . S
O74 C73 1.211 . S
C75 O67 1.284 . S
C75 O76 1.273 . S
O76 C75 1.273 . S
O77 Zn68 1.977 . S
O77 C70 1.267 . S
C78 O79 1.160 . S
C78 O85 1.185 . S
O79 C78 1.160 . S
O80 Zn81 1.899 . S
O80 C88 1.284 . S
Zn81 O80 1.899 . S
Zn81 O82 2.032 . S
Zn81 O85 2.086 . S
Zn81 O90 1.977 . S
O82 Zn81 2.032 . S
O82 C86 1.278 . S
C83 O84 1.203 . S
C83 O90 1.267 . S
O84 C83 1.203 . S
O85 C78 1.185 . S
O85 Zn81 2.086 . S
C86 O82 1.278 . S
C86 O87 1.211 . S
O87 C86 1.211 . S
C88 O80 1.284 . S
C88 O89 1.273 . S
O89 C88 1.273 . S
O90 Zn81 1.977 . S
O90 C83 1.267 . S
C91 O92 1.160 . S
C91 O98 1.185 . S
O92 C91 1.160 . S
O93 Zn94 1.899 . S
O93 C101 1.284 . S
Zn94 O93 1.899 . S
Zn94 O95 2.032 . S
Zn94 O98 2.086 . S
Zn94 O103 1.977 . S
O95 Zn94 2.032 . S
O95 C99 1.278 . S
C96 O97 1.203 . S
C96 O103 1.267 . S
O97 C96 1.203 . S
O98 C91 1.185 . S
O98 Zn94 2.086 . S
C99 O95 1.278 . S
C99 O100 1.211 . S
O100 C99 1.211 . S
C101 O93 1.284 . S
C101 O102 1.273 . S
O102 C101 1.273 . S
O103 Zn94 1.977 . S
O103 C96 1.267 . S
C104 O105 1.160 . S
C104 O111 1.185 . S
O105 C104 1.160 . S
O106 Zn107 1.899 . S
O106 C114 1.284 . S
Zn107 O106 1.899 . S
Zn107 O108 2.032 . S
Zn107 O111 2.086 . S
Zn107 O116 1.977 . S
O108 Zn107 2.032 . S
O108 C112 1.278 . S
C109 O110 1.203 . S
C109 O116 1.267 . S
O110 C109 1.203 . S
O111 C104 1.185 . S
O111 Zn107 2.086 . S
C112 O108 1.278 . S
C112 O113 1.211 . S
O113 C112 1.211 . S
C114 O106 1.284 . S
C114 O115 1.273 . S
O115 C114 1.273 . S
O116 Zn107 1.977 . S
O116 C109 1.267 . S
C117 O118 1.160 . S
C117 O124 1.185 . S
O118 C117 1.160 . S
O119 Zn120 1.899 . S
O119 C127 1.284 . S
Zn120 O119 1.899 . S
Zn120 O121 2.032 . S
Zn120 O124 2.086 . S
Zn120 O129 1.977 . S
O121 Zn120 2.032 . S
O121 C125 1.278 . S
C122 O123 1.203 . S
C122 O129 1.267 . S
O123 C122 1.203 . S
O124 C117 1.185 . S
O124 Zn120 2.086 . S
C125 O121 1.278 . S
C125 O126 1.211 . S
O126 C125 1.211 . S
C127 O119 1.284 . S
C127 O128 1.273 . S
O128 C127 1.273 . S
O129 Zn120 1.977 . S
O129 C122 1.267 . S
C130 O131 1.160 . S
C130 O137 1.185 . S
O131 C130 1.160 . S
O132 Zn133 1.899 . S
O132 C140 1.284 . S
Zn133 O132 1.899 . S
Zn133 O134 2.032 . S
Zn133 O137 2.086 . S
Zn133 O142 1.977 . S
O134 Zn133 2.032 . S
O134 C138 1.278 . S
C135 O136 1.203 . S
C135 O142 1.267 . S
O136 C135 1.203 . S
O137 C130 1.185 . S
O137 Zn133 2.086 . S
C138 O134 1.278 . S
C138 O139 1.211 . S
O139 C138 1.211 . S
C140 O132 1.284 . S
C140 O141 1.273 . S
O141 C140 1.273 . S
O142 Zn133 1.977 . S
O142 C135 1.267 . S
C143 O144 1.160 . S
C143 O150 1.185 . S
O144 C143 1.160 . S
O145 Zn146 1.899 . S
O145 C153 1.284 . S
Zn146 O145 1.899 . S
Zn146 O147 2.032 . S
Zn146 O150 2.086 . S
Zn146 O155 1.977 . S
O147 Zn146 2.032 . S
O147 C151 1.278 . S
C148 O149 1.203 . S
C148 O155 1.267 . S
O149 C148 1.203 . S
O150 C143 1.185 . S
O150 Zn146 2.086 . S
C151 O147 1.278 . S
C151 O152 1.211 . S
O152 C151 1.211 . S
C153 O145 1.284 . S
C153 O154 1.273 . S
O154 C153 1.273 . S
O155 Zn146 1.977 . S
O155 C148 1.267 . S
C156 O157 1.160 . S
C156 O163 1.185 . S
O157 C156 1.160 . S
O158 Zn159 1.899 . S
O158 C166 1.284 . S
Zn159 O158 1.899 . S
Zn159 O160 2.032 . S
Zn159 O163 2.086 . S
Zn159 O168 1.977 . S
O160 Zn159 2.032 . S
O160 C164 1.278 . S
C161 O162 1.203 . S
C161 O168 1.267 . S
O162 C161 1.203 . S
O163 C156 1.185 . S
O163 Zn159 2.086 . S
C164 O160 1.278 . S
C164 O165 1.211 . S
O165 C164 1.211 . S
C166 O158 1.284 . S
C166 O167 1.273 . S
O167 C166 1.273 . S
O168 Zn159 1.977 . S
O168 C161 1.267 . S
C169 O170 1.160 . S
C169 O176 1.185 . S
O170 C169 1.160 . S
O171 Zn172 1.899 . S
O171 C179 1.284 . S
Zn172 O171 1.899 . S
Zn172 O173 2.032 . S
Zn172 O176 2.086 . S
Zn172 O181 1.977 . S
O173 Zn172 2.032 . S
O173 C177 1.278 . S
C174 O175 1.203 . S
C174 O181 1.267 . S
O175 C174 1.203 . S
O176 C169 1.185 . S
O176 Zn172 2.086 . S
C177 O173 1.278 . S
C177 O178 1.211 . S
O178 C177 1.211 . S
C179 O171 1.284 . S
C179 O180 1.273 . S
O180 C179 1.273 . S
O181 Zn172 1.977 . S
O181 C174 1.267 . S
C182 O183 1.160 . S
C182 O189 1.185 . S
O183 C182 1.160 . S
O184 Zn185 1.899 . S
O184 C192 1.284 . S
Zn185 O184 1.899 . S
Zn185 O186 2.032 . S
Zn185 O189 2.086 . S
Zn185 O194 1.977 . S
O186 Zn185 2.032 . S
O186 C190 1.278 . S
C187 O188 1.203 . S
C187 O194 1.267 . S
O188 C187 1.203 . S
O189 C182 1.185 . S
O189 Zn185 2.086 . S
C190 O186 1.278 . S
C190 O191 1.211 . S
O191 C190 1.211 . S
C192 O184 1.284 . S
C192 O193 1.273 . S
O193 C192 1.273 . S
O194 Zn185 1.977 . S
O194 C187 1.267 . S
C195 O196 1.160 . S
C195 O202 1.185 . S
O196 C195 1.160 . S
O197 Zn198 1.899 . S
O197 C205 1.284 . S
Zn198 O197 1.899 . S
Zn198 O199 2.032 . S
Zn198 O202 2.086 . S
Zn198 O207 1.977 . S
O199 Zn198 2.032 . S
O199 C203 1.278 . S
C200 O201 1.203 . S
C200 O207 1.267 . S
O201 C200 1.203 . S
O202 C195 1.185 . S
O202 Zn198 2.086 . S
C203 O199 1.278 . S
C203 O204 1.211 . S
O204 C203 1.211 . S
C205 O197 1.284 . S
C205 O206 1.273 . S
O206 C205 1.273 . S
O207 Zn198 1.977 . S
O207 C200 1.267 . S
C208 O209 1.160 . S
C208 O215 1.185 . S
O209 C208 1.160 . S
O210 Zn211 1.899 . S
O210 C218 1.284 . S
Zn211 O210 1.899 . S
Zn211 O212 2.032 . S
Zn211 O215 2.086 . S
Zn211 O220 1.977 . S
O212 Zn211 2.032 . S
O212 C216 1.278 . S
C213 O214 1.203 . S
C213 O220 1.267 . S
O214 C213 1.203 . S
O215 C208 1.185 . S
O215 Zn211 2.086 . S
C216 O212 1.278 . S
C216 O217 1.211 . S
O217 C216 1.211 . S
C218 O210 1.284 . S
C218 O219 1.273 . S
O219 C218 1.273 . S
O220 Zn211 1.977 . S
O220 C213 1.267 . S
C221 O222 1.160 . S
C221 O228 1.185 . S
O222 C221 1.160 . S
O223 Zn224 1.899 . S
O223 C231 1.284 . S
Zn224 O223 1.899 . S
Zn224 O225 2.032 . S
Zn224 O228 2.086 . S
Zn224 O233 1.977 . S
O225 Zn224 2.032 . S
O225 C229 1.278 . S
C226 O227 1.203 . S
C226 O233 1.267 . S
O227 C226 1.203 . S
O228 C221 1.185 . S
O228 Zn224 2.086 . S
C229 O225 1.278 . S
C229 O230 1.211 . S
O230 C229 1.211 . S
C231 O223 1.284 . S
C231 O232 1.273 . S
O232 C231 1.273 . S
O233 Zn224 1.977 . S
O233 C226 1.267 . S
C234 O235 1.160 . S
C234 O241 1.185 . S
O235 C234 1.160 . S
O236 Zn237 1.899 . S
O236 C244 1.284 . S
Zn237 O236 1.899 . S
Zn237 O238 2.032 . S
Zn237 O241 2.086 . S
Zn237 O246 1.977 . S
O238 Zn237 2.032 . S
O238 C242 1.278 . S
C239 O240 1.203 . S
C239 O246 1.267 . S
O240 C239 1.203 . S
O241 C234 1.185 . S
O241 Zn237 2.086 . S
C242 O238 1.278 . S
C242 O243 1.211 . S
O243 C242 1.211 . S
C244 O236 1.284 . S
C244 O245 1.273 . S
O245 C244 1.273 . S
O246 Zn237 1.977 . S
O246 C239 1.267 . S
C247 O248 1.160 . S
C247 O254 1.185 . S
O248 C247 1.160 . S
O249 Zn250 1.899 . S
O249 C257 1.284 . S
Zn250 O249 1.899 . S
Zn250 O251 2.032 . S
Zn250 O254 2.086 . S
Zn250 O259 1.977 . S
O251 Zn250 2.032 . S
O251 C255 1.278 . S
C252 O253 1.203 . S
C252 O259 1.267 . S
O253 C252 1.203 . S
O254 C247 1.185 . S
O254 Zn250 2.086 . S
C255 O251 1.278 . S
C255 O256 1.211 . S
O256 C255 1.211 . S
C257 O249 1.284 . S
C257 O258 1.273 . S
O258 C257 1.273 . S
O259 Zn250 1.977 . S
O259 C252 1.267 . S
C260 O261 1.160 . S
C260 O267 1.185 . S
O261 C260 1.160 . S
O262 Zn263 1.899 . S
O262 C270 1.284 . S
Zn263 O262 1.899 . S
Zn263 O264 2.032 . S
Zn263 O267 2.086 . S
Zn263 O272 1.977 . S
O264 Zn263 2.032 . S
O264 C268 1.278 . S
C265 O266 1.203 . S
C265 O272 1.267 . S
O266 C265 1.203 . S
O267 C260 1.185 . S
O267 Zn263 2.086 . S
C268 O264 1.278 . S
C268 O269 1.211 . S
O269 C268 1.211 . S
C270 O262 1.284 . S
C270 O271 1.273 . S
O271 C270 1.273 . S
O272 Zn263 1.977 . S
O272 C265 1.267 . S
C273 O274 1.160 . S
C273 O280 1.185 . S
O274 C273 1.160 . S
O275 Zn276 1.899 . S
O275 C283 1.284 . S
Zn276 O275 1.899 . S
Zn276 O277 2.032 . S
Zn276 O280 2.086 . S
Zn276 O285 1.977 . S
O277 Zn276 2.032 . S
O277 C281 1.278 . S
C278 O279 1.203 . S
C278 O285 1.267 . S
O279 C278 1.203 . S
O280 C273 1.185 . S
O280 Zn276 2.086 . S
C281 O277 1.278 . S
C281 O282 1.211 . S
O282 C281 1.211 . S
C283 O275 1.284 . S
C283 O284 1.273 . S
O284 C283 1.273 . S
O285 Zn276 1.977 . S
O285 C278 1.267 . S
C286 O287 1.160 . S
C286 O293 1.185 . S
O287 C286 1.160 . S
O288 Zn289 1.899 . S
O288 C296 1.284 . S
Zn289 O288 1.899 . S
Zn289 O290 2.032 . S
Zn289 O293 2.086 . S
Zn289 O298 1.977 . S
O290 Zn289 2.032 . S
O290 C294 1.278 . S
C291 O292 1.203 . S
C291 O298 1.267 . S
O292 C291 1.203 . S
O293 C286 1.185 . S
O293 Zn289 2.086 . S
C294 O290 1.278 . S
C294 O295 1.211 . S
O295 C294 1.211 . S
C296 O288 1.284 . S
C296 O297 1.273 . S
O297 C296 1.273 . S
O298 Zn289 1.977 . S
O298 C291 1.267 . S
C299 O300 1.160 . S
C299 O306 1.185 . S
O300 C299 1.160 . S
O301 Zn302 1.899 . S
O301 C309 1.284 . S
Zn302 O301 1.899 . S
Zn302 O303 2.032 . S
Zn302 O306 2.086 . S
Zn302 O311 1.977 . S
O303 Zn302 2.032 . S
O303 C307 1.278 . S
C304 O305 1.203 . S
C304 O311 1.267 . S
O305 C304 1.203 . S
O306 C299 1.185 . S
O306 Zn302 2.086 . S
C307 O303 1.278 . S
C307 O308 1.211 . S
O308 C307 1.211 . S
C309 O301 1.284 . S
C309 O310 1.273 . S
O310 C309 1.273 . S
O311 Zn302 1.977 . S
O311 C304 1.267 . S
C312 O313 1.160 . S
C312 O319 1.185 . S
O313 C312 1.160 . S
O314 Zn315 1.899 . S
O314 C322 1.284 . S
Zn315 O314 1.899 . S
Zn315 O316 2.032 . S
Zn315 O319 2.086 . S
Zn315 O324 1.977 . S
O316 Zn315 2.032 . S
O316 C320 1.278 . S
C317 O318 1.203 . S
C317 O324 1.267 . S
O318 C317 1.203 . S
O319 C312 1.185 . S
O319 Zn315 2.086 . S
C320 O316 1.278 . S
C320 O321 1.211 . S
O321 C320 1.211 . S
C322 O314 1.284 . S
C322 O323 1.273 . S
O323 C322 1.273 . S
O324 Zn315 1.977 . S
O324 C317 1.267 . S
C325 O326 1.160 . S
C325 O332 1.185 . S
O326 C325 1.160 . S
O327 Zn328 1.899 . S
O327 C335 1.284 . S
Zn328 O327 1.899 . S
Zn328 O329 2.032 . S
Zn328 O332 2.086 . S
Zn328 O337 1.977 . S
O329 Zn328 2.032 . S
O329 C333 1.278 . S
C330 O331 1.203 . S
C330 O337 1.267 . S
O331 C330 1.203 . S
O332 C325 1.185 . S
O332 Zn328 2.086 . S
C333 O329 1.278 . S
C333 O334 1.211 . S
O334 C333 1.211 . S
C335 O327 1.284 . S
C335 O336 1.273 . S
O336 C335 1.273 . S
O337 Zn328 1.977 . S
O337 C330 1.267 . S
C338 O339 1.160 . S
C338 O345 1.185 . S
O339 C338 1.160 . S
O340 Zn341 1.899 . S
O340 C348 1.284 . S
Zn341 O340 1.899 . S
Zn341 O342 2.032 . S
Zn341 O345 2.086 . S
Zn341 O350 1.977 . S
O342 Zn341 2.032 . S
O342 C346 1.278 . S
C343 O344 1.203 . S
C343 O350 1.267 . S
O344 C343 1.203 . S
O345 C338 1.185 . S
O345 Zn341 2.086 . S
C346 O342 1.278 . S
C346 O347 1.211 . S
O347 C346 1.211 . S
C348 O340 1.284 . S
C348 O349 1.273 . S
O349 C348 1.273 . S
O350 Zn341 1.977 . S
O350 C343 1.267 . S
C351 O352 1.160 . S
C351 O358 1.185 . S
O352 C351 1.160 . S
O353 Zn354 1.899 . S
O353 C361 1.284 . S
Zn354 O353 1.899 . S
Zn354 O355 2.032 . S
Zn354 O358 2.086 . S
Zn354 O363 1.977 . S
O355 Zn354 2.032 . S
O355 C359 1.278 . S
C356 O357 1.203 . S
C356 O363 1.267 . S
O357 C356 1.203 . S
O358 C351 1.185 . S
O358 Zn354 2.086 . S
C359 O355 1.278 . S
C359 O360 1.211 . S
O360 C359 1.211 . S
C361 O353 1.284 . S
C361 O362 1.273 . S
O362 C361 1.273 . S
O363 Zn354 1.977 . S
O363 C356 1.267 . S
C364 O365 1.160 . S
C364 O371 1.185 . S
O365 C364 1.160 . S
O366 Zn367 1.899 . S
O366 C374 1.284 . S
Zn367 O366 1.899 . S
Zn367 O368 2.032 . S
Zn367 O371 2.086 . S
Zn367 O376 1.977 . S
O368 Zn367 2.032 . S
O368 C372 1.278 . S
C369 O370 1.203 . S
C369 O376 1.267 . S
O370 C369 1.203 . S
O371 C364 1.185 . S
O371 Zn367 2.086 . S
C372 O368 1.278 . S
C372 O373 1.211 . S
O373 C372 1.211 . S
C374 O366 1.284 . S
C374 O375 1.273 . S
O375 C374 1.273 . S
O376 Zn367 1.977 . S
O376 C369 1.267 . S
C377 O378 1.160 . S
C377 O384 1.185 . S
O378 C377 1.160 . S
O379 Zn380 1.899 . S
O379 C387 1.284 . S
Zn380 O379 1.899 . S
Zn380 O381 2.032 . S
Zn380 O384 2.086 . S
Zn380 O389 1.977 . S
O381 Zn380 2.032 . S
O381 C385 1.278 . S
C382 O383 1.203 . S
C382 O389 1.267 . S
O383 C382 1.203 . S
O384 C377 1.185 . S
O384 Zn380 2.086 . S
C385 O381 1.278 . S
C385 O386 1.211 . S
O386 C385 1.211 . S
C387 O379 1.284 . S
C387 O388 1.273 . S
O388 C387 1.273 . S
O389 Zn380 1.977 . S
O389 C382 1.267 . S
C390 O391 1.160 . S
C390 O397 1.185 . S
O391 C390 1.160 . S
O392 Zn393 1.899 . S
O392 C400 1.284 . S
Zn393 O392 1.899 . S
Zn393 O394 2.032 . S
Zn393 O397 2.086 . S
Zn393 O402 1.977 . S
O394 Zn393 2.032 . S
O394 C398 1.278 . S
C395 O396 1.203 . S
C395 O402 1.267 . S
O396 C395 1.203 . S
O397 C390 1.185 . S
O397 Zn393 2.086 . S
C398 O394 1.278 . S
C398 O399 1.211 . S
O399 C398 1.211 . S
C400 O392 1.284 . S
C400 O401 1.273 . S
O401 C400 1.273 . S
O402 Zn393 1.977 . S
O402 C395 1.267 . S
C403 O404 1.160 . S
C403 O410 1.185 . S
O404 C403 1.160 . S
O405 Zn406 1.899 . S
O405 C413 1.284 . S
Zn406 O405 1.899 . S
Zn406 O407 2.032 . S
Zn406 O410 2.086 . S
Zn406 O415 1.977 . S
O407 Zn406 2.032 . S
O407 C411 1.278 . S
C408 O409 1.203 . S
C408 O415 1.267 . S
O409 C408 1.203 . S
O410 C403 1.185 . S
O410 Zn406 2.086 . S
C411 O407 1.278 . S
C411 O412 1.211 . S
O412 C411 1.211 . S
C413 O405 1.284 . S
C413 O414 1.273 . S
O414 C413 1.273 . S
O415 Zn406 1.977 . S
O415 C408 1.267 . S
C416 O417 1.160 . S
C416 O423 1.185 . S
O417 C416 1.160 . S
O418 Zn419 1.899 . S
O418 C426 1.284 . S
Zn419 O418 1.899 . S
Zn419 O420 2.032 . S
Zn419 O423 2.086 . S
Zn419 O428 1.977 . S
O420 Zn419 2.032 . S
O420 C424 1.278 . S
C421 O422 1.203 . S
C421 O428 1.267 . S
O422 C421 1.203 . S
O423 C416 1.185 . S
O423 Zn419 2.086 . S
C424 O420 1.278 . S
C424 O425 1.211 . S
O425 C424 1.211 . S
C426 O418 1.284 . S
C426 O427 1.273 . S
O427 C426 1.273 . S
O428 Zn419 1.977 . S
O428 C421 1.267 . S
C429 O430 1.160 . S
C429 O436 1.185 . S
O430 C429 1.160 . S
O431 Zn432 1.899 . S
O431 C439 1.284 . S
Zn432 O431 1.899 . S
Zn432 O433 2.032 . S
Zn432 O436 2.086 . S
Zn432 O441 1.977 . S
O433 Zn432 2.032 . S
O433 C437 1.278 . S
C434 O435 1.203 . S
C434 O441 1.267 . S
O435 C434 1.203 . S
O436 C429 1.185 . S
O436 Zn432 2.086 . S
C437 O433 1.278 . S
C437 O438 1.211 . S
O438 C437 1.211 . S
C439 O431 1.284 . S
C439 O440 1.273 . S
O440 C439 1.273 . S
O441 Zn432 1.977 . S
O441 C434 1.267 . S
C442 O443 1.160 . S
C442 O449 1.185 . S
O443 C442 1.160 . S
O444 Zn445 1.899 . S
O444 C452 1.284 . S
Zn445 O444 1.899 . S
Zn445 O446 2.032 . S
Zn445 O449 2.086 . S
Zn445 O454 1.977 . S
O446 Zn445 2.032 . S
O446 C450 1.278 . S
C447 O448 1.203 . S
C447 O454 1.267 . S
O448 C447 1.203 . S
O449 C442 1.185 . S
O449 Zn445 2.086 . S
C450 O446 1.278 . S
C450 O451 1.211 . S
O451 C450 1.211 . S
C452 O444 1.284 . S
C452 O453 1.273 . S
O453 C452 1.273 . S
O454 Zn445 1.977 . S
O454 C447 1.267 . S
C455 O456 1.160 . S
C455 O462 1.185 . S
O456 C455 1.160 . S
O457 Zn458 1.899 . S
O457 C465 1.284 . S
Zn458 O457 1.899 . S
Zn458 O459 2.032 . S
Zn458 O462 2.086 . S
Zn458 O467 1.977 . S
O459 Zn458 2.032 . S
O459 C463 1.278 . S
C460 O461 1.203 . S
C460 O467 1.267 . S
O461 C460 1.203 . S
O462 C455 1.185 . S
O462 Zn458 2.086 . S
C463 O459 1.278 . S
C463 O464 1.211 . S
O464 C463 1.211 . S
C465 O457 1.284 . S
C465 O466 1.273 . S
O466 C465 1.273 . S
O467 Zn458 1.977 . S
O467 C460 1.267 . S
C468 O469 1.160 . S
C468 O475 1.185 . S
O469 C468 1.160 . S
O470 Zn471 1.899 . S
O470 C478 1.284 . S
Zn471 O470 1.899 . S
Zn471 O472 2.032 . S
Zn471 O475 2.086 . S
Zn471 O480 1.977 . S
O472 Zn471 2.032 . S
O472 C476 1.278 . S
C473 O474 1.203 . S
C473 O480 1.267 . S
O474 C473 1.203 . S
O475 C468 1.185 . S
O475 Zn471 2.086 . S
C476 O472 1.278 . S
C476 O477 1.211 . S
O477 C476 1.211 . S
C478 O470 1.284 . S
C478 O479 1.273 . S
O479 C478 1.273 . S
O480 Zn471 1.977 . S
O480 C473 1.267 . S
C481 O482 1.160 . S
C481 O488 1.185 . S
O482 C481 1.160 . S
O483 Zn484 1.899 . S
O483 C491 1.284 . S
Zn484 O483 1.899 . S
Zn484 O485 2.032 . S
Zn484 O488 2.086 . S
Zn484 O493 1.977 . S
O485 Zn484 2.032 . S
O485 C489 1.278 . S
C486 O487 1.203 . S
C486 O493 1.267 . S
O487 C486 1.203 . S
O488 C481 1.185 . S
O488 Zn484 2.086 . S
C489 O485 1.278 . S
C489 O490 1.211 . S
O490 C489 1.211 . S
C491 O483 1.284 . S
C491 O492 1.273 . S
O492 C491 1.273 . S
O493 Zn484 1.977 . S
O493 C486 1.267 . S
C494 O495 1.160 . S
C494 O501 1.185 . S
O495 C494 1.160 . S
O496 Zn497 1.899 . S
O496 C504 1.284 . S
Zn497 O496 1.899 . S
Zn497 O498 2.032 . S
Zn497 O501 2.086 . S
Zn497 O506 1.977 . S
O498 Zn497 2.032 . S
O498 C502 1.278 . S
C499 O500 1.203 . S
C499 O506 1.267 . S
O500 C499 1.203 . S
O501 C494 1.185 . S
O501 Zn497 2.086 . S
C502 O498 1.278 . S
C502 O503 1.211 . S
O503 C502 1.211 . S
C504 O496 1.284 . S
C504 O505 1.273 . S
O505 C504 1.273 . S
O506 Zn497 1.977 . S
O506 C499 1.267 . S
C507 O508 1.160 . S
C507 O514 1.185 . S
O508 C507 1.160 . S
O509 Zn510 1.899 . S
O509 C517 1.284 . S
Zn510 O509 1.899 . S
Zn510 O511 2.032 . S
Zn510 O514 2.086 . S
Zn510 O519 1.977 . S
O511 Zn510 2.032 . S
O511 C515 1.278 . S
C512 O513 1.203 . S
C512 O519 1.267 . S
O513 C512 1.203 . S
O514 C507 1.185 . S
O514 Zn510 2.086 . S
C515 O511 1.278 . S
C515 O516 1.211 . S
O516 C515 1.211 . S
C517 O509 1.284 . S
C517 O518 1.273 . S
O518 C517 1.273 . S
O519 Zn510 1.977 . S
O519 C512 1.267 . S
C520 O521 1.160 . S
C520 O527 1.185 . S
O521 C520 1.160 . S
O522 Zn523 1.899 . S
O522 C530 1.284 . S
Zn523 O522 1.899 . S
Zn523 O524 2.032 . S
Zn523 O527 2.086 . S
Zn523 O532 1.977 . S
O524 Zn523 2.032 . S
O524 C528 1.278 . S
C525 O526 1.203 . S
C525 O532 1.267 . S
O526 C525 1.203 . S
O527 C520 1.185 . S
O527 Zn523 2.086 . S
C528 O524 1.278 . S
C528 O529 1.211 . S
O529 C528 1.211 . S
C530 O522 1.284 . S
C530 O531 1.273 . S
O531 C530 1.273 . S
O532 Zn523 1.977 . S
O532 C525 1.267 . S
C533 O534 1.160 . S
C533 O540 1.185 . S
O534 C533 1.160 . S
O535 Zn536 1.899 . S
O535 C543 1.284 . S
Zn536 O535 1.899 . S
Zn536 O537 2.032 . S
Zn536 O540 2.086 . S
Zn536 O545 1.977 . S
O537 Zn536 2.032 . S
O537 C541 1.278 . S
C538 O539 1.203 . S
C538 O545 1.267 . S
O539 C538 1.203 . S
O540 C533 1.185 . S
O540 Zn536 2.086 . S
C541 O537 1.278 . S
C541 O542 1.211 . S
O542 C541 1.211 . S
C543 O535 1.284 . S
C543 O544 1.273 . S
O544 C543 1.273 . S
O545 Zn536 1.977 . S
O545 C538 1.267 . S
C546 O547 1.160 . S
C546 O553 1.185 . S
O547 C546 1.160 . S
O548 Zn549 1.899 . S
O548 C556 1.284 . S
Zn549 O548 1.899 . S
Zn549 O550 2.032 . S
Zn549 O553 2.086 . S
Zn549 O558 1.977 . S
O550 Zn549 2.032 . S
O550 C554 1.278 . S
C551 O552 1.203 . S
C551 O558 1.267 . S
O552 C551 1.203 . S
O553 C546 1.185 . S
O553 Zn549 2.086 . S
C554 O550 1.278 . S
C554 O555 1.211 . S
O555 C554 1.211 . S
C556 O548 1.284 . S
C556 O557 1.273 . S
O557 C556 1.273 . S
O558 Zn549 1.977 . S
O558 C551 1.267 . S
C559 O560 1.160 . S
C559 O566 1.185 . S
O560 C559 1.160 . S
O561 Zn562 1.899 . S
O561 C569 1.284 . S
Zn562 O561 1.899 . S
Zn562 O563 2.032 . S
Zn562 O566 2.086 . S
Zn562 O571 1.977 . S
O563 Zn562 2.032 . S
O563 C567 1.278 . S
C564 O565 1.203 . S
C564 O571 1.267 . S
O565 C564 1.203 . S
O566 C559 1.185 . S
O566 Zn562 2.086 . S
C567 O563 1.278 . S
C567 O568 1.211 . S
O568 C567 1.211 . S
C569 O561 1.284 . S
C569 O570 1.273 . S
O570 C569 1.273 . S
O571 Zn562 1.977 . S
O571 C564 1.267 . S
C572 O573 1.160 . S
C572 O579 1.185 . S
O573 C572 1.160 . S
O574 Zn575 1.899 . S
O574 C582 1.284 . S
Zn575 O574 1.899 . S
Zn575 O576 2.032 . S
Zn575 O579 2.086 . S
Zn575 O584 1.977 . S
O576 Zn575 2.032 . S
O576 C580 1.278 . S
C577 O578 1.203 . S
C577 O584 1.267 . S
O578 C577 1.203 . S
O579 C572 1.185 . S
O579 Zn575 2.086 . S
C580 O576 1.278 . S
C580 O581 1.211 . S
O581 C580 1.211 . S
C582 O574 1.284 . S
C582 O583 1.273 . S
O583 C582 1.273 . S
O584 Zn575 1.977 . S
O584 C577 1.267 . S
C585 O586 1.160 . S
C585 O592 1.185 . S
O586 C585 1.160 . S
O587 Zn588 1.899 . S
O587 C595 1.284 . S
Zn588 O587 1.899 . S
Zn588 O589 2.032 . S
Zn588 O592 2.086 . S
Zn588 O597 1.977 . S
O589 Zn588 2.032 . S
O589 C593 1.278 . S
C590 O591 1.203 . S
C590 O597 1.267 . S
O591 C590 1.203 . S
O592 C585 1.185 . S
O592 Zn588 2.086 . S
C593 O589 1.278 . S
C593 O594 1.211 . S
O594 C593 1.211 . S
C595 O587 1.284 . S
C595 O596 1.273 . S
O596 C595 1.273 . S
O597 Zn588 1.977 . S
O597 C590 1.267 . S
C598 O599 1.160 . S
C598 O605 1.185 . S
O599 C598 1.160 . S
O600 Zn601 1.899 . S
O600 C608 1.284 . S
Zn601 O600 1.899 . S
Zn601 O602 2.032 . S
Zn601 O605 2.086 . S
Zn601 O610 1.977 . S
O602 Zn601 2.032 . S
O602 C606 1.278 . S
C603 O604 1.203 . S
C603 O610 1.267 . S
O604 C603 1.203 . S
O605 C598 1.185 . S
O605 Zn601 2.086 . S
C606 O602 1.278 . S
C606 O607 1.211 . S
O607 C606 1.211 . S
C608 O600 1.284 . S
C608 O609 1.273 . S
O609 C608 1.273 . S
O610 Zn601 1.977 . S
O610 C603 1.267 . S
C611 O612 1.160 . S
C611 O618 1.185 . S
O612 C611 1.160 . S
O613 Zn614 1.899 . S
O613 C621 1.284 . S
Zn614 O613 1.899 . S
Zn614 O615 2.032 . S
Zn614 O618 2.086 . S
Zn614 O623 1.977 . S
O615 Zn614 2.032 . S
O615 C619 1.278 . S
C616 O617 1.203 . S
C616 O623 1.267 . S
O617 C616 1.203 . S
O618 C611 1.185 . S
O618 Zn614 2.086 . S
C619 O615 1.278 . S
C619 O620 1.211 . S
O620 C619 1.211 . S
C621 O613 1.284 . S
C621 O622 1.273 . S
O622 C621 1.273 . S
O623 Zn614 1.977 . S
O623 C616 1.267 . S
C624 C625 1.387 . S
C624 H628 0.950 . S
C624 C633 1.390 . S
C625 C624 1.387 . S
C625 C627 1.387 . S
H626 C633 0.950 . S
C627 C625 1.387 . S
C627 C629 1.390 . S
C627 H631 0.950 . S
H628 C624 0.950 . S
C629 C627 1.390 . S
C629 C630 1.387 . S
C629 H632 0.950 . S
C630 C629 1.387 . S
C630 C633 1.387 . S
H631 C627 0.950 . S
H632 C629 0.950 . S
C633 C624 1.390 . S
C633 H626 0.950 . S
C633 C630 1.387 . S
C634 C635 1.387 . S
C634 H638 0.950 . S
C634 C643 1.390 . S
C635 C634 1.387 . S
C635 C637 1.387 . S
H636 C643 0.950 . S
C637 C635 1.387 . S
C637 C639 1.390 . S
C637 H641 0.950 . S
H638 C634 0.950 . S
C639 C637 1.390 . S
C639 C640 1.387 . S
C639 H642 0.950 . S
C640 C639 1.387 . S
C640 C643 1.387 . S
H641 C637 0.950 . S
H642 C639 0.950 . S
C643 C634 1.390 . S
C643 H636 0.950 . S
C643 C640 1.387 . S
C644 C645 1.387 . S
C644 H648 0.950 . S
C644 C653 1.390 . S
C645 C644 1.387 . S
C645 C647 1.387 . S
H646 C653 0.950 . S
C647 C645 1.387 . S
C647 C649 1.390 . S
C647 H651 0.950 . S
H648 C644 0.950 . S
C649 C647 1.390 . S
C649 C650 1.387 . S
C649 H652 0.950 . S
C650 C649 1.387 . S
C650 C653 1.387 . S
H651 C647 0.950 . S
H652 C649 0.950 . S
C653 C644 1.390 . S
C653 H646 0.950 . S
C653 C650 1.387 . S
C654 C655 1.387 . S
C654 H658 0.950 . S
C654 C663 1.390 . S
C655 C654 1.387 . S
C655 C657 1.387 . S
H656 C663 0.950 . S
C657 C655 1.387 . S
C657 C659 1.390 . S
C657 H661 0.950 . S
H658 C654 0.950 . S
C659 C657 1.390 . S
C659 C660 1.387 . S
C659 H662 0.950 . S
C660 C659 1.387 . S
C660 C663 1.387 . S
H661 C657 0.950 . S
H662 C659 0.950 . S
C663 C654 1.390 . S
C663 H656 0.950 . S
C663 C660 1.387 . S
C664 C665 1.387 . S
C664 H668 0.950 . S
C664 C673 1.390 . S
C665 C664 1.387 . S
C665 C667 1.387 . S
H666 C673 0.950 . S
C667 C665 1.387 . S
C667 C669 1.390 . S
C667 H671 0.950 . S
H668 C664 0.950 . S
C669 C667 1.390 . S
C669 C670 1.387 . S
C669 H672 0.950 . S
C670 C669 1.387 . S
C670 C673 1.387 . S
H671 C667 0.950 . S
H672 C669 0.950 . S
C673 C664 1.390 . S
C673 H666 0.950 . S
C673 C670 1.387 . S
C674 C675 1.387 . S
C674 H678 0.950 . S
C674 C683 1.390 . S
C675 C674 1.387 . S
C675 C677 1.387 . S
H676 C683 0.950 . S
C677 C675 1.387 . S
C677 C679 1.390 . S
C677 H681 0.950 . S
H678 C674 0.950 . S
C679 C677 1.390 . S
C679 C680 1.387 . S
C679 H682 0.950 . S
C680 C679 1.387 . S
C680 C683 1.387 . S
H681 C677 0.950 . S
H682 C679 0.950 . S
C683 C674 1.390 . S
C683 H676 0.950 . S
C683 C680 1.387 . S
C684 C685 1.387 . S
C684 H688 0.950 . S
C684 C693 1.390 . S
C685 C684 1.387 . S
C685 C687 1.387 . S
H686 C693 0.950 . S
C687 C685 1.387 . S
C687 C689 1.390 . S
C687 H691 0.950 . S
H688 C684 0.950 . S
C689 C687 1.390 . S
C689 C690 1.387 . S
C689 H692 0.950 . S
C690 C689 1.387 . S
C690 C693 1.387 . S
H691 C687 0.950 . S
H692 C689 0.950 . S
C693 C684 1.390 . S
C693 H686 0.950 . S
C693 C690 1.387 . S
C694 C695 1.387 . S
C694 H698 0.950 . S
C694 C703 1.390 . S
C695 C694 1.387 . S
C695 C697 1.387 . S
H696 C703 0.950 . S
C697 C695 1.387 . S
C697 C699 1.390 . S
C697 H701 0.950 . S
H698 C694 0.950 . S
C699 C697 1.390 . S
C699 C700 1.387 . S
C699 H702 0.950 . S
C700 C699 1.387 . S
C700 C703 1.387 . S
H701 C697 0.950 . S
H702 C699 0.950 . S
C703 C694 1.390 . S
C703 H696 0.950 . S
C703 C700 1.387 . S
C704 C705 1.387 . S
C704 H708 0.950 . S
C704 C713 1.390 . S
C705 C704 1.387 . S
C705 C707 1.387 . S
H706 C713 0.950 . S
C707 C705 1.387 . S
C707 C709 1.390 . S
C707 H711 0.950 . S
H708 C704 0.950 . S
C709 C707 1.390 . S
C709 C710 1.387 . S
C709 H712 0.950 . S
C710 C709 1.387 . S
C710 C713 1.387 . S
H711 C707 0.950 . S
H712 C709 0.950 . S
C713 C704 1.390 . S
C713 H706 0.950 . S
C713 C710 1.387 . S
C714 C715 1.387 . S
C714 H718 0.950 . S
C714 C723 1.390 . S
C715 C714 1.387 . S
C715 C717 1.387 . S
H716 C723 0.950 . S
C717 C715 1.387 . S
C717 C719 1.390 . S
C717 H721 0.950 . S
H718 C714 0.950 . S
C719 C717 1.390 . S
C719 C720 1.387 . S
C719 H722 0.950 . S
C720 C719 1.387 . S
C720 C723 1.387 . S
H721 C717 0.950 . S
H722 C719 0.950 . S
C723 C714 1.390 . S
C723 H716 0.950 . S
C723 C720 1.387 . S
C724 C725 1.387 . S
C724 H728 0.950 . S
C724 C733 1.390 . S
C725 C724 1.387 . S
C725 C727 1.387 . S
H726 C733 0.950 . S
C727 C725 1.387 . S
C727 C729 1.390 . S
C727 H731 0.950 . S
H728 C724 0.950 . S
C729 C727 1.390 . S
C729 C730 1.387 . S
C729 H732 0.950 . S
C730 C729 1.387 . S
C730 C733 1.387 . S
H731 C727 0.950 . S
H732 C729 0.950 . S
C733 C724 1.390 . S
C733 H726 0.950 . S
C733 C730 1.387 . S
C734 C735 1.387 . S
C734 H738 0.950 . S
C734 C743 1.390 . S
C735 C734 1.387 . S
C735 C737 1.387 . S
H736 C743 0.950 . S
C737 C735 1.387 . S
C737 C739 1.390 . S
C737 H741 0.950 . S
H738 C734 0.950 . S
C739 C737 1.390 . S
C739 C740 1.387 . S
C739 H742 0.950 . S
C740 C739 1.387 . S
C740 C743 1.387 . S
H741 C737 0.950 . S
H742 C739 0.950 . S
C743 C734 1.390 . S
C743 H736 0.950 . S
C743 C740 1.387 . S
C744 C745 1.387 . S
C744 H748 0.950 . S
C744 C753 1.390 . S
C745 C744 1.387 . S
C745 C747 1.387 . S
H746 C753 0.950 . S
C747 C745 1.387 . S
C747 C749 1.390 . S
C747 H751 0.950 . S
H748 C744 0.950 . S
C749 C747 1.390 . S
C749 C750 1.387 . S
C749 H752 0.950 . S
C750 C749 1.387 . S
C750 C753 1.387 . S
H751 C747 0.950 . S
H752 C749 0.950 . S
C753 C744 1.390 . S
C753 H746 0.950 . S
C753 C750 1.387 . S
C754 C755 1.387 . S
C754 H758 0.950 . S
C754 C763 1.390 . S
C755 C754 1.387 . S
C755 C757 1.387 . S
H756 C763 0.950 . S
C757 C755 1.387 . S
C757 C759 1.390 . S
C757 H761 0.950 . S
H758 C754 0.950 . S
C759 C757 1.390 . S
C759 C760 1.387 . S
C759 H762 0.950 . S
C760 C759 1.387 . S
C760 C763 1.387 . S
H761 C757 0.950 . S
H762 C759 0.950 . S
C763 C754 1.390 . S
C763 H756 0.950 . S
C763 C760 1.387 . S
C764 C765 1.387 . S
C764 H768 0.950 . S
C764 C773 1.390 . S
C765 C764 1.387 . S
C765 C767 1.387 . S
H766 C773 0.950 . S
C767 C765 1.387 . S
C767 C769 1.390 . S
C767 H771 0.950 . S
H768 C764 0.950 . S
C769 C767 1.390 . S
C769 C770 1.387 . S
C769 H772 0.950 . S
C770 C769 1.387 . S
C770 C773 1.387 . S
H771 C767 0.950 . S
H772 C769 0.950 . S
C773 C764 1.390 . S
C773 H766 0.950 . S
C773 C770 1.387 . S
C774 C775 1.387 . S
C774 H778 0.950 . S
C774 C783 1.390 . S
C775 C774 1.387 . S
C775 C777 1.387 . S
H776 C783 0.950 . S
C777 C775 1.387 . S
C777 C779 1.390 . S
C777 H781 0.950 . S
H778 C774 0.950 . S
C779 C777 1.390 . S
C779 C780 1.387 . S
C779 H782 0.950 . S
C780 C779 1.387 . S
C780 C783 1.387 . S
H781 C777 0.950 . S
H782 C779 0.950 . S
C783 C774 1.390 . S
C783 H776 0.950 . S
C783 C780 1.387 . S
C784 C785 1.387 . S
C784 H788 0.950 . S
C784 C793 1.390 . S
C785 C784 1.387 . S
C785 C787 1.387 . S
H786 C793 0.950 . S
C787 C785 1.387 . S
C787 C789 1.390 . S
C787 H791 0.950 . S
H788 C784 0.950 . S
C789 C787 1.390 . S
C789 C790 1.387 . S
C789 H792 0.950 . S
C790 C789 1.387 . S
C790 C793 1.387 . S
H791 C787 0.950 . S
H792 C789 0.950 . S
C793 C784 1.390 . S
C793 H786 0.950 . S
C793 C790 1.387 . S
C794 C795 1.387 . S
C794 H798 0.950 . S
C794 C803 1.390 . S
C795 C794 1.387 . S
C795 C797 1.387 . S
H796 C803 0.950 . S
C797 C795 1.387 . S
C797 C799 1.390 . S
C797 H801 0.950 . S
H798 C794 0.950 . S
C799 C797 1.390 . S
C799 C800 1.387 . S
C799 H802 0.950 . S
C800 C799 1.387 . S
C800 C803 1.387 . S
H801 C797 0.950 . S
H802 C799 0.950 . S
C803 C794 1.390 . S
C803 H796 0.950 . S
C803 C800 1.387 . S
C804 C805 1.387 . S
C804 H808 0.950 . S
C804 C813 1.390 . S
C805 C804 1.387 . S
C805 C807 1.387 . S
H806 C813 0.950 . S
C807 C805 1.387 . S
C807 C809 1.390 . S
C807 H811 0.950 . S
H808 C804 0.950 . S
C809 C807 1.390 . S
C809 C810 1.387 . S
C809 H812 0.950 . S
C810 C809 1.387 . S
C810 C813 1.387 . S
H811 C807 0.950 . S
H812 C809 0.950 . S
C813 C804 1.390 . S
C813 H806 0.950 . S
C813 C810 1.387 . S
C814 C815 1.387 . S
C814 H818 0.950 . S
C814 C823 1.390 . S
C815 C814 1.387 . S
C815 C817 1.387 . S
H816 C823 0.950 . S
C817 C815 1.387 . S
C817 C819 1.390 . S
C817 H821 0.950 . S
H818 C814 0.950 . S
C819 C817 1.390 . S
C819 C820 1.387 . S
C819 H822 0.950 . S
C820 C819 1.387 . S
C820 C823 1.387 . S
H821 C817 0.950 . S
H822 C819 0.950 . S
C823 C814 1.390 . S
C823 H816 0.950 . S
C823 C820 1.387 . S
C824 C825 1.387 . S
C824 H828 0.950 . S
C824 C833 1.390 . S
C825 C824 1.387 . S
C825 C827 1.387 . S
H826 C833 0.950 . S
C827 C825 1.387 . S
C827 C829 1.390 . S
C827 H831 0.950 . S
H828 C824 0.950 . S
C829 C827 1.390 . S
C829 C830 1.387 . S
C829 H832 0.950 . S
C830 C829 1.387 . S
C830 C833 1.387 . S
H831 C827 0.950 . S
H832 C829 0.950 . S
C833 C824 1.390 . S
C833 H826 0.950 . S
C833 C830 1.387 . S
C834 C835 1.387 . S
C834 H838 0.950 . S
C834 C843 1.390 . S
C835 C834 1.387 . S
C835 C837 1.387 . S
H836 C843 0.950 . S
C837 C835 1.387 . S
C837 C839 1.390 . S
C837 H841 0.950 . S
H838 C834 0.950 . S
C839 C837 1.390 . S
C839 C840 1.387 . S
C839 H842 0.950 . S
C840 C839 1.387 . S
C840 C843 1.387 . S
H841 C837 0.950 . S
H842 C839 0.950 . S
C843 C834 1.390 . S
C843 H836 0.950 . S
C843 C840 1.387 . S
C844 C845 1.387 . S
C844 H848 0.950 . S
C844 C853 1.390 . S
C845 C844 1.387 . S
C845 C847 1.387 . S
H846 C853 0.950 . S
C847 C845 1.387 . S
C847 C849 1.390 . S
C847 H851 0.950 . S
H848 C844 0.950 . S
C849 C847 1.390 . S
C849 C850 1.387 . S
C849 H852 0.950 . S
C850 C849 1.387 . S
C850 C853 1.387 . S
H851 C847 0.950 . S
H852 C849 0.950 . S
C853 C844 1.390 . S
C853 H846 0.950 . S
C853 C850 1.387 . S
C854 C855 1.387 . S
C854 H858 0.950 . S
C854 C863 1.390 . S
C855 C854 1.387 . S
C855 C857 1.387 . S
H856 C863 0.950 . S
C857 C855 1.387 . S
C857 C859 1.390 . S
C857 H861 0.950 . S
H858 C854 0.950 . S
C859 C857 1.390 . S
C859 C860 1.387 . S
C859 H862 0.950 . S
C860 C859 1.387 . S
C860 C863 1.387 . S
H861 C857 0.950 . S
H862 C859 0.950 . S
C863 C854 1.390 . S
C863 H856 0.950 . S
C863 C860 1.387 . S
C864 C865 1.387 . S
C864 H868 0.950 . S
C864 C873 1.390 . S
C865 C864 1.387 . S
C865 C867 1.387 . S
H866 C873 0.950 . S
C867 C865 1.387 . S
C867 C869 1.390 . S
C867 H871 0.950 . S
H868 C864 0.950 . S
C869 C867 1.390 . S
C869 C870 1.387 . S
C869 H872 0.950 . S
C870 C869 1.387 . S
C870 C873 1.387 . S
H871 C867 0.950 . S
H872 C869 0.950 . S
C873 C864 1.390 . S
C873 H866 0.950 . S
C873 C870 1.387 . S
C874 C875 1.387 . S
C874 H878 0.950 . S
C874 C883 1.390 1_556 S
C875 C874 1.387 . S
C875 C877 1.387 . S
H876 C883 0.950 . S
C877 C875 1.387 . S
C877 C879 1.390 1_556 S
C877 H881 0.950 . S
H878 C874 0.950 . S
C879 C877 1.390 1_554 S
C879 C880 1.387 . S
C879 H882 0.950 . S
C880 C879 1.387 . S
C880 C883 1.387 . S
H881 C877 0.950 . S
H882 C879 0.950 . S
C883 C874 1.390 1_554 S
C883 H876 0.950 . S
C883 C880 1.387 . S
C884 C885 1.387 . S
C884 H888 0.950 . S
C884 C893 1.390 . S
C885 C884 1.387 . S
C885 C887 1.387 . S
H886 C893 0.950 . S
C887 C885 1.387 . S
C887 C889 1.390 . S
C887 H891 0.950 . S
H888 C884 0.950 . S
C889 C887 1.390 . S
C889 C890 1.387 . S
C889 H892 0.950 . S
C890 C889 1.387 . S
C890 C893 1.387 . S
H891 C887 0.950 . S
H892 C889 0.950 . S
C893 C884 1.390 . S
C893 H886 0.950 . S
C893 C890 1.387 . S
C894 C895 1.387 . S
C894 H898 0.950 . S
C894 C903 1.390 1_556 S
C895 C894 1.387 . S
C895 C897 1.387 . S
H896 C903 0.950 . S
C897 C895 1.387 . S
C897 C899 1.390 1_556 S
C897 H901 0.950 . S
H898 C894 0.950 . S
C899 C897 1.390 1_554 S
C899 C900 1.387 . S
C899 H902 0.950 . S
C900 C899 1.387 . S
C900 C903 1.387 . S
H901 C897 0.950 . S
H902 C899 0.950 . S
C903 C894 1.390 1_554 S
C903 H896 0.950 . S
C903 C900 1.387 . S
C904 C905 1.387 . S
C904 H908 0.950 . S
C904 C913 1.390 . S
C905 C904 1.387 . S
C905 C907 1.387 . S
H906 C913 0.950 . S
C907 C905 1.387 . S
C907 C909 1.390 . S
C907 H911 0.950 . S
H908 C904 0.950 . S
C909 C907 1.390 . S
C909 C910 1.387 . S
C909 H912 0.950 . S
C910 C909 1.387 . S
C910 C913 1.387 . S
H911 C907 0.950 . S
H912 C909 0.950 . S
C913 C904 1.390 . S
C913 H906 0.950 . S
C913 C910 1.387 . S
C914 C915 1.387 . S
C914 H918 0.950 . S
C914 C923 1.390 1_556 S
C915 C914 1.387 . S
C915 C917 1.387 . S
H916 C923 0.950 . S
C917 C915 1.387 . S
C917 C919 1.390 1_556 S
C917 H921 0.950 . S
H918 C914 0.950 . S
C919 C917 1.390 1_554 S
C919 C920 1.387 . S
C919 H922 0.950 . S
C920 C919 1.387 . S
C920 C923 1.387 . S
H921 C917 0.950 . S
H922 C919 0.950 . S
C923 C914 1.390 1_554 S
C923 H916 0.950 . S
C923 C920 1.387 . S
C924 C925 1.387 . S
C924 H928 0.950 . S
C924 C933 1.390 . S
C925 C924 1.387 . S
C925 C927 1.387 . S
H926 C933 0.950 . S
C927 C925 1.387 . S
C927 C929 1.390 . S
C927 H931 0.950 . S
H928 C924 0.950 . S
C929 C927 1.390 . S
C929 C930 1.387 . S
C929 H932 0.950 . S
C930 C929 1.387 . S
C930 C933 1.387 . S
H931 C927 0.950 . S
H932 C929 0.950 . S
C933 C924 1.390 . S
C933 H926 0.950 . S
C933 C930 1.387 . S
C934 C935 1.387 . S
C934 H938 0.950 . S
C934 C943 1.390 1_556 S
C935 C934 1.387 . S
C935 C937 1.387 . S
H936 C943 0.950 . S
C937 C935 1.387 . S
C937 C939 1.390 1_556 S
C937 H941 0.950 . S
H938 C934 0.950 . S
C939 C937 1.390 1_554 S
C939 C940 1.387 . S
C939 H942 0.950 . S
C940 C939 1.387 . S
C940 C943 1.387 . S
H941 C937 0.950 . S
H942 C939 0.950 . S
C943 C934 1.390 1_554 S
C943 H936 0.950 . S
C943 C940 1.387 . S
C944 C945 1.387 . S
C944 H948 0.950 . S
C944 C953 1.390 . S
C945 C944 1.387 . S
C945 C947 1.387 . S
H946 C953 0.950 . S
C947 C945 1.387 . S
C947 C949 1.390 . S
C947 H951 0.950 . S
H948 C944 0.950 . S
C949 C947 1.390 . S
C949 C950 1.387 . S
C949 H952 0.950 . S
C950 C949 1.387 . S
C950 C953 1.387 . S
H951 C947 0.950 . S
H952 C949 0.950 . S
C953 C944 1.390 . S
C953 H946 0.950 . S
C953 C950 1.387 . S
C954 C955 1.387 . S
C954 H958 0.950 . S
C954 C963 1.390 1_565 S
C955 C954 1.387 . S
C955 C957 1.387 . S
H956 C963 0.950 . S
C957 C955 1.387 . S
C957 C959 1.390 1_565 S
C957 H961 0.950 . S
H958 C954 0.950 . S
C959 C957 1.390 1_545 S
C959 C960 1.387 . S
C959 H962 0.950 . S
C960 C959 1.387 . S
C960 C963 1.387 . S
H961 C957 0.950 . S
H962 C959 0.950 . S
C963 C954 1.390 1_545 S
C963 H956 0.950 . S
C963 C960 1.387 . S
C964 C965 1.387 . S
C964 H968 0.950 . S
C964 C973 1.390 . S
C965 C964 1.387 . S
C965 C967 1.387 . S
H966 C973 0.950 . S
C967 C965 1.387 . S
C967 C969 1.390 . S
C967 H971 0.950 . S
H968 C964 0.950 . S
C969 C967 1.390 . S
C969 C970 1.387 . S
C969 H972 0.950 . S
C970 C969 1.387 . S
C970 C973 1.387 . S
H971 C967 0.950 . S
H972 C969 0.950 . S
C973 C964 1.390 . S
C973 H966 0.950 . S
C973 C970 1.387 . S
C974 C975 1.387 . S
C974 H978 0.950 . S
C974 C983 1.390 1_545 S
C975 C974 1.387 . S
C975 C977 1.387 . S
H976 C983 0.950 . S
C977 C975 1.387 . S
C977 C979 1.390 1_545 S
C977 H981 0.950 . S
H978 C974 0.950 . S
C979 C977 1.390 1_565 S
C979 C980 1.387 . S
C979 H982 0.950 . S
C980 C979 1.387 . S
C980 C983 1.387 . S
H981 C977 0.950 . S
H982 C979 0.950 . S
C983 C974 1.390 1_565 S
C983 H976 0.950 . S
C983 C980 1.387 . S
C984 C985 1.387 . S
C984 H988 0.950 . S
C984 C993 1.390 . S
C985 C984 1.387 . S
C985 C987 1.387 . S
H986 C993 0.950 . S
C987 C985 1.387 . S
C987 C989 1.390 . S
C987 H991 0.950 . S
H988 C984 0.950 . S
C989 C987 1.390 . S
C989 C990 1.387 . S
C989 H992 0.950 . S
C990 C989 1.387 . S
C990 C993 1.387 . S
H991 C987 0.950 . S
H992 C989 0.950 . S
C993 C984 1.390 . S
C993 H986 0.950 . S
C993 C990 1.387 . S
C994 C995 1.387 . S
C994 H998 0.950 . S
C994 C1003 1.390 1_565 S
C995 C994 1.387 . S
C995 C997 1.387 . S
H996 C1003 0.950 . S
C997 C995 1.387 . S
C997 C999 1.390 1_565 S
C997 H1001 0.950 . S
H998 C994 0.950 . S
C999 C997 1.390 1_545 S
C999 C1000 1.387 . S
C999 H1002 0.950 . S
C1000 C999 1.387 . S
C1000 C1003 1.387 . S
H1001 C997 0.950 . S
H1002 C999 0.950 . S
C1003 C994 1.390 1_545 S
C1003 H996 0.950 . S
C1003 C1000 1.387 . S
C1004 C1005 1.387 . S
C1004 H1008 0.950 . S
C1004 C1013 1.390 . S
C1005 C1004 1.387 . S
C1005 C1007 1.387 . S
H1006 C1013 0.950 . S
C1007 C1005 1.387 . S
C1007 C1009 1.390 . S
C1007 H1011 0.950 . S
H1008 C1004 0.950 . S
C1009 C1007 1.390 . S
C1009 C1010 1.387 . S
C1009 H1012 0.950 . S
C1010 C1009 1.387 . S
C1010 C1013 1.387 . S
H1011 C1007 0.950 . S
H1012 C1009 0.950 . S
C1013 C1004 1.390 . S
C1013 H1006 0.950 . S
C1013 C1010 1.387 . S
C1014 C1015 1.387 . S
C1014 H1018 0.950 . S
C1014 C1023 1.390 1_565 S
C1015 C1014 1.387 . S
C1015 C1017 1.387 . S
H1016 C1023 0.950 . S
C1017 C1015 1.387 . S
C1017 C1019 1.390 1_565 S
C1017 H1021 0.950 . S
H1018 C1014 0.950 . S
C1019 C1017 1.390 1_545 S
C1019 C1020 1.387 . S
C1019 H1022 0.950 . S
C1020 C1019 1.387 . S
C1020 C1023 1.387 . S
H1021 C1017 0.950 . S
H1022 C1019 0.950 . S
C1023 C1014 1.390 1_545 S
C1023 H1016 0.950 . S
C1023 C1020 1.387 . S
C1024 C1025 1.387 . S
C1024 H1028 0.950 . S
C1024 C1033 1.390 . S
C1025 C1024 1.387 . S
C1025 C1027 1.387 . S
H1026 C1033 0.950 . S
C1027 C1025 1.387 . S
C1027 C1029 1.390 . S
C1027 H1031 0.950 . S
H1028 C1024 0.950 . S
C1029 C1027 1.390 . S
C1029 C1030 1.387 . S
C1029 H1032 0.950 . S
C1030 C1029 1.387 . S
C1030 C1033 1.387 . S
H1031 C1027 0.950 . S
H1032 C1029 0.950 . S
C1033 C1024 1.390 . S
C1033 H1026 0.950 . S
C1033 C1030 1.387 . S
C1034 C1035 1.387 . S
C1034 H1038 0.950 . S
C1034 C1043 1.390 . S
C1035 C1034 1.387 . S
C1035 C1037 1.387 . S
H1036 C1043 0.950 . S
C1037 C1035 1.387 . S
C1037 C1039 1.390 . S
C1037 H1041 0.950 . S
H1038 C1034 0.950 . S
C1039 C1037 1.390 . S
C1039 C1040 1.387 . S
C1039 H1042 0.950 . S
C1040 C1039 1.387 . S
C1040 C1043 1.387 . S
H1041 C1037 0.950 . S
H1042 C1039 0.950 . S
C1043 C1034 1.390 . S
C1043 H1036 0.950 . S
C1043 C1040 1.387 . S
C1044 C1045 1.387 . S
C1044 H1048 0.950 . S
C1044 C1053 1.390 1_455 S
C1045 C1044 1.387 . S
C1045 C1047 1.387 . S
H1046 C1053 0.950 . S
C1047 C1045 1.387 . S
C1047 C1049 1.390 1_455 S
C1047 H1051 0.950 . S
H1048 C1044 0.950 . S
C1049 C1047 1.390 1_655 S
C1049 C1050 1.387 . S
C1049 H1052 0.950 . S
C1050 C1049 1.387 . S
C1050 C1053 1.387 . S
H1051 C1047 0.950 . S
H1052 C1049 0.950 . S
C1053 C1044 1.390 1_655 S
C1053 H1046 0.950 . S
C1053 C1050 1.387 . S
C1054 C1055 1.387 . S
C1054 H1058 0.950 . S
C1054 C1063 1.390 . S
C1055 C1054 1.387 . S
C1055 C1057 1.387 . S
H1056 C1063 0.950 . S
C1057 C1055 1.387 . S
C1057 C1059 1.390 . S
C1057 H1061 0.950 . S
H1058 C1054 0.950 . S
C1059 C1057 1.390 . S
C1059 C1060 1.387 . S
C1059 H1062 0.950 . S
C1060 C1059 1.387 . S
C1060 C1063 1.387 . S
H1061 C1057 0.950 . S
H1062 C1059 0.950 . S
C1063 C1054 1.390 . S
C1063 H1056 0.950 . S
C1063 C1060 1.387 . S
C1064 C1065 1.387 . S
C1064 H1068 0.950 . S
C1064 C1073 1.390 1_455 S
C1065 C1064 1.387 . S
C1065 C1067 1.387 . S
H1066 C1073 0.950 . S
C1067 C1065 1.387 . S
C1067 C1069 1.390 1_455 S
C1067 H1071 0.950 . S
H1068 C1064 0.950 . S
C1069 C1067 1.390 1_655 S
C1069 C1070 1.387 . S
C1069 H1072 0.950 . S
C1070 C1069 1.387 . S
C1070 C1073 1.387 . S
H1071 C1067 0.950 . S
H1072 C1069 0.950 . S
C1073 C1064 1.390 1_655 S
C1073 H1066 0.950 . S
C1073 C1070 1.387 . S
C1074 C1075 1.387 . S
C1074 H1078 0.950 . S
C1074 C1083 1.390 . S
C1075 C1074 1.387 . S
C1075 C1077 1.387 . S
H1076 C1083 0.950 . S
C1077 C1075 1.387 . S
C1077 C1079 1.390 . S
C1077 H1081 0.950 . S
H1078 C1074 0.950 . S
C1079 C1077 1.390 . S
C1079 C1080 1.387 . S
C1079 H1082 0.950 . S
C1080 C1079 1.387 . S
C1080 C1083 1.387 . S
H1081 C1077 0.950 . S
H1082 C1079 0.950 . S
C1083 C1074 1.390 . S
C1083 H1076 0.950 . S
C1083 C1080 1.387 . S
C1084 C1085 1.387 . S
C1084 H1088 0.950 . S
C1084 C1093 1.390 . S
C1085 C1084 1.387 . S
C1085 C1087 1.387 . S
H1086 C1093 0.950 1_455 S
C1087 C1085 1.387 . S
C1087 C1089 1.390 . S
C1087 H1091 0.950 . S
H1088 C1084 0.950 . S
C1089 C1087 1.390 . S
C1089 C1090 1.387 1_655 S
C1089 H1092 0.950 1_655 S
C1090 C1089 1.387 1_455 S
C1090 C1093 1.387 1_455 S
H1091 C1087 0.950 . S
H1092 C1089 0.950 1_455 S
C1093 C1084 1.390 . S
C1093 H1086 0.950 1_655 S
C1093 C1090 1.387 1_655 S
C1094 C1095 1.387 . S
C1094 H1098 0.950 . S
C1094 C1103 1.390 . S
C1095 C1094 1.387 . S
C1095 C1097 1.387 . S
H1096 C1103 0.950 1_655 S
C1097 C1095 1.387 . S
C1097 C1099 1.390 . S
C1097 H1101 0.950 . S
H1098 C1094 0.950 . S
C1099 C1097 1.390 . S
C1099 C1100 1.387 1_455 S
C1099 H1102 0.950 1_455 S
C1100 C1099 1.387 1_655 S
C1100 C1103 1.387 1_655 S
H1101 C1097 0.950 . S
H1102 C1099 0.950 1_655 S
C1103 C1094 1.390 . S
C1103 H1096 0.950 1_455 S
C1103 C1100 1.387 1_455 S
C1104 C1105 1.387 . S
C1104 H1108 0.950 . S
C1104 C1113 1.390 1_655 S
C1105 C1104 1.387 . S
C1105 C1107 1.387 . S
H1106 C1113 0.950 . S
C1107 C1105 1.387 . S
C1107 C1109 1.390 1_655 S
C1107 H1111 0.950 . S
H1108 C1104 0.950 . S
C1109 C1107 1.390 1_455 S
C1109 C1110 1.387 . S
C1109 H1112 0.950 . S
C1110 C1109 1.387 . S
C1110 C1113 1.387 . S
H1111 C1107 0.950 . S
H1112 C1109 0.950 . S
C1113 C1104 1.390 1_455 S
C1113 H1106 0.950 . S
C1113 C1110 1.387 . S
C1114 C1115 1.387 . S
C1114 H1118 0.950 . S
C1114 C1123 1.390 . S
C1115 C1114 1.387 . S
C1115 C1117 1.387 . S
H1116 C1123 0.950 . S
C1117 C1115 1.387 . S
C1117 C1119 1.390 . S
C1117 H1121 0.950 . S
H1118 C1114 0.950 . S
C1119 C1117 1.390 . S
C1119 C1120 1.387 . S
C1119 H1122 0.950 . S
C1120 C1119 1.387 . S
C1120 C1123 1.387 . S
H1121 C1117 0.950 . S
H1122 C1119 0.950 . S
C1123 C1114 1.390 . S
C1123 H1116 0.950 . S
C1123 C1120 1.387 . S
C1124 C1125 1.387 . S
C1124 H1128 0.950 . S
C1124 C1133 1.390 1_455 S
C1125 C1124 1.387 . S
C1125 C1127 1.387 . S
H1126 C1133 0.950 . S
C1127 C1125 1.387 . S
C1127 C1129 1.390 1_455 S
C1127 H1131 0.950 . S
H1128 C1124 0.950 . S
C1129 C1127 1.390 1_655 S
C1129 C1130 1.387 . S
C1129 H1132 0.950 . S
C1130 C1129 1.387 . S
C1130 C1133 1.387 . S
H1131 C1127 0.950 . S
H1132 C1129 0.950 . S
C1133 C1124 1.390 1_655 S
C1133 H1126 0.950 . S
C1133 C1130 1.387 . S
C1134 C1135 1.387 . S
C1134 H1138 0.950 . S
C1134 C1143 1.390 . S
C1135 C1134 1.387 . S
C1135 C1137 1.387 . S
H1136 C1143 0.950 . S
C1137 C1135 1.387 . S
C1137 C1139 1.390 . S
C1137 H1141 0.950 . S
H1138 C1134 0.950 . S
C1139 C1137 1.390 . S
C1139 C1140 1.387 . S
C1139 H1142 0.950 . S
C1140 C1139 1.387 . S
C1140 C1143 1.387 . S
H1141 C1137 0.950 . S
H1142 C1139 0.950 . S
C1143 C1134 1.390 . S
C1143 H1136 0.950 . S
C1143 C1140 1.387 . S
C1144 C1145 1.387 . S
C1144 H1148 0.950 . S
C1144 C1153 1.390 1_655 S
C1145 C1144 1.387 . S
C1145 C1147 1.387 . S
H1146 C1153 0.950 . S
C1147 C1145 1.387 . S
C1147 C1149 1.390 1_655 S
C1147 H1151 0.950 . S
H1148 C1144 0.950 . S
C1149 C1147 1.390 1_455 S
C1149 C1150 1.387 . S
C1149 H1152 0.950 . S
C1150 C1149 1.387 . S
C1150 C1153 1.387 . S
H1151 C1147 0.950 . S
H1152 C1149 0.950 . S
C1153 C1144 1.390 1_455 S
C1153 H1146 0.950 . S
C1153 C1150 1.387 . S
C1154 C1155 1.387 . S
C1154 H1158 0.950 . S
C1154 C1163 1.390 . S
C1155 C1154 1.387 . S
C1155 C1157 1.387 . S
H1156 C1163 0.950 . S
C1157 C1155 1.387 . S
C1157 C1159 1.390 . S
C1157 H1161 0.950 . S
H1158 C1154 0.950 . S
C1159 C1157 1.390 . S
C1159 C1160 1.387 . S
C1159 H1162 0.950 . S
C1160 C1159 1.387 . S
C1160 C1163 1.387 . S
H1161 C1157 0.950 . S
H1162 C1159 0.950 . S
C1163 C1154 1.390 . S
C1163 H1156 0.950 . S
C1163 C1160 1.387 . S
C1164 C1165 1.387 . S
C1164 H1168 0.950 . S
C1164 C1173 1.390 1_655 S
C1165 C1164 1.387 . S
C1165 C1167 1.387 . S
H1166 C1173 0.950 . S
C1167 C1165 1.387 . S
C1167 C1169 1.390 1_655 S
C1167 H1171 0.950 . S
H1168 C1164 0.950 . S
C1169 C1167 1.390 1_455 S
C1169 C1170 1.387 . S
C1169 H1172 0.950 . S
C1170 C1169 1.387 . S
C1170 C1173 1.387 . S
H1171 C1167 0.950 . S
H1172 C1169 0.950 . S
C1173 C1164 1.390 1_455 S
C1173 H1166 0.950 . S
C1173 C1170 1.387 . S
C1174 C1175 1.387 . S
C1174 H1178 0.950 . S
C1174 C1183 1.390 . S
C1175 C1174 1.387 . S
C1175 C1177 1.387 . S
H1176 C1183 0.950 . S
C1177 C1175 1.387 . S
C1177 C1179 1.390 . S
C1177 H1181 0.950 . S
H1178 C1174 0.950 . S
C1179 C1177 1.390 . S
C1179 C1180 1.387 . S
C1179 H1182 0.950 . S
C1180 C1179 1.387 . S
C1180 C1183 1.387 . S
H1181 C1177 0.950 . S
H1182 C1179 0.950 . S
C1183 C1174 1.390 . S
C1183 H1176 0.950 . S
C1183 C1180 1.387 . S
C1184 C1185 1.387 . S
C1184 H1188 0.950 . S
C1184 C1193 1.390 1_545 S
C1185 C1184 1.387 . S
C1185 C1187 1.387 . S
H1186 C1193 0.950 . S
C1187 C1185 1.387 . S
C1187 C1189 1.390 1_545 S
C1187 H1191 0.950 . S
H1188 C1184 0.950 . S
C1189 C1187 1.390 1_565 S
C1189 C1190 1.387 . S
C1189 H1192 0.950 . S
C1190 C1189 1.387 . S
C1190 C1193 1.387 . S
H1191 C1187 0.950 . S
H1192 C1189 0.950 . S
C1193 C1184 1.390 1_565 S
C1193 H1186 0.950 . S
C1193 C1190 1.387 . S
C1194 C1195 1.387 . S
C1194 H1198 0.950 . S
C1194 C1203 1.390 . S
C1195 C1194 1.387 . S
C1195 C1197 1.387 . S
H1196 C1203 0.950 . S
C1197 C1195 1.387 . S
C1197 C1199 1.390 . S
C1197 H1201 0.950 . S
H1198 C1194 0.950 . S
C1199 C1197 1.390 . S
C1199 C1200 1.387 . S
C1199 H1202 0.950 . S
C1200 C1199 1.387 . S
C1200 C1203 1.387 . S
H1201 C1197 0.950 . S
H1202 C1199 0.950 . S
C1203 C1194 1.390 . S
C1203 H1196 0.950 . S
C1203 C1200 1.387 . S
C1204 C1205 1.387 . S
C1204 H1208 0.950 . S
C1204 C1213 1.390 1_545 S
C1205 C1204 1.387 . S
C1205 C1207 1.387 . S
H1206 C1213 0.950 . S
C1207 C1205 1.387 . S
C1207 C1209 1.390 1_545 S
C1207 H1211 0.950 . S
H1208 C1204 0.950 . S
C1209 C1207 1.390 1_565 S
C1209 C1210 1.387 . S
C1209 H1212 0.950 . S
C1210 C1209 1.387 . S
C1210 C1213 1.387 . S
H1211 C1207 0.950 . S
H1212 C1209 0.950 . S
C1213 C1204 1.390 1_565 S
C1213 H1206 0.950 . S
C1213 C1210 1.387 . S
C1214 C1215 1.387 . S
C1214 H1218 0.950 . S
C1214 C1223 1.390 . S
C1215 C1214 1.387 . S
C1215 C1217 1.387 . S
H1216 C1223 0.950 . S
C1217 C1215 1.387 . S
C1217 C1219 1.390 . S
C1217 H1221 0.950 . S
H1218 C1214 0.950 . S
C1219 C1217 1.390 . S
C1219 C1220 1.387 . S
C1219 H1222 0.950 . S
C1220 C1219 1.387 . S
C1220 C1223 1.387 . S
H1221 C1217 0.950 . S
H1222 C1219 0.950 . S
C1223 C1214 1.390 . S
C1223 H1216 0.950 . S
C1223 C1220 1.387 . S
C1224 C1225 1.387 . S
C1224 H1228 0.950 . S
C1224 C1233 1.390 1_545 S
C1225 C1224 1.387 . S
C1225 C1227 1.387 . S
H1226 C1233 0.950 . S
C1227 C1225 1.387 . S
C1227 C1229 1.390 1_545 S
C1227 H1231 0.950 . S
H1228 C1224 0.950 . S
C1229 C1227 1.390 1_565 S
C1229 C1230 1.387 . S
C1229 H1232 0.950 . S
C1230 C1229 1.387 . S
C1230 C1233 1.387 . S
H1231 C1227 0.950 . S
H1232 C1229 0.950 . S
C1233 C1224 1.390 1_565 S
C1233 H1226 0.950 . S
C1233 C1230 1.387 . S
C1234 C1235 1.387 . S
C1234 H1238 0.950 . S
C1234 C1243 1.390 . S
C1235 C1234 1.387 . S
C1235 C1237 1.387 . S
H1236 C1243 0.950 . S
C1237 C1235 1.387 . S
C1237 C1239 1.390 . S
C1237 H1241 0.950 . S
H1238 C1234 0.950 . S
C1239 C1237 1.390 . S
C1239 C1240 1.387 . S
C1239 H1242 0.950 . S
C1240 C1239 1.387 . S
C1240 C1243 1.387 . S
H1241 C1237 0.950 . S
H1242 C1239 0.950 . S
C1243 C1234 1.390 . S
C1243 H1236 0.950 . S
C1243 C1240 1.387 . S
C1244 C1245 1.387 . S
C1244 H1248 0.950 . S
C1244 C1253 1.390 1_545 S
C1245 C1244 1.387 . S
C1245 C1247 1.387 . S
H1246 C1253 0.950 . S
C1247 C1245 1.387 . S
C1247 C1249 1.390 1_545 S
C1247 H1251 0.950 . S
H1248 C1244 0.950 . S
C1249 C1247 1.390 1_565 S
C1249 C1250 1.387 . S
C1249 H1252 0.950 . S
C1250 C1249 1.387 . S
C1250 C1253 1.387 . S
H1251 C1247 0.950 . S
H1252 C1249 0.950 . S
C1253 C1244 1.390 1_565 S
C1253 H1246 0.950 . S
C1253 C1250 1.387 . S
C1254 C1255 1.387 . S
C1254 H1258 0.950 . S
C1254 C1263 1.390 . S
C1255 C1254 1.387 . S
C1255 C1257 1.387 . S
H1256 C1263 0.950 . S
C1257 C1255 1.387 . S
C1257 C1259 1.390 . S
C1257 H1261 0.950 . S
H1258 C1254 0.950 . S
C1259 C1257 1.390 . S
C1259 C1260 1.387 . S
C1259 H1262 0.950 . S
C1260 C1259 1.387 . S
C1260 C1263 1.387 . S
H1261 C1257 0.950 . S
H1262 C1259 0.950 . S
C1263 C1254 1.390 . S
C1263 H1256 0.950 . S
C1263 C1260 1.387 . S
C1264 C1265 1.387 . S
C1264 H1268 0.950 . S
C1264 C1273 1.390 1_556 S
C1265 C1264 1.387 . S
C1265 C1267 1.387 . S
H1266 C1273 0.950 . S
C1267 C1265 1.387 . S
C1267 C1269 1.390 1_556 S
C1267 H1271 0.950 . S
H1268 C1264 0.950 . S
C1269 C1267 1.390 1_554 S
C1269 C1270 1.387 . S
C1269 H1272 0.950 . S
C1270 C1269 1.387 . S
C1270 C1273 1.387 . S
H1271 C1267 0.950 . S
H1272 C1269 0.950 . S
C1273 C1264 1.390 1_554 S
C1273 H1266 0.950 . S
C1273 C1270 1.387 . S
C1274 C1275 1.387 . S
C1274 H1278 0.950 . S
C1274 C1283 1.390 1_556 S
C1275 C1274 1.387 . S
C1275 C1277 1.387 . S
H1276 C1283 0.950 . S
C1277 C1275 1.387 . S
C1277 C1279 1.390 1_556 S
C1277 H1281 0.950 . S
H1278 C1274 0.950 . S
C1279 C1277 1.390 1_554 S
C1279 C1280 1.387 . S
C1279 H1282 0.950 . S
C1280 C1279 1.387 . S
C1280 C1283 1.387 . S
H1281 C1277 0.950 . S
H1282 C1279 0.950 . S
C1283 C1274 1.390 1_554 S
C1283 H1276 0.950 . S
C1283 C1280 1.387 . S
C1284 C1285 1.387 . S
C1284 H1288 0.950 . S
C1284 C1293 1.390 . S
C1285 C1284 1.387 . S
C1285 C1287 1.387 . S
H1286 C1293 0.950 . S
C1287 C1285 1.387 . S
C1287 C1289 1.390 . S
C1287 H1291 0.950 . S
H1288 C1284 0.950 . S
C1289 C1287 1.390 . S
C1289 C1290 1.387 . S
C1289 H1292 0.950 . S
C1290 C1289 1.387 . S
C1290 C1293 1.387 . S
H1291 C1287 0.950 . S
H1292 C1289 0.950 . S
C1293 C1284 1.390 . S
C1293 H1286 0.950 . S
C1293 C1290 1.387 . S
C1294 C1295 1.387 . S
C1294 H1298 0.950 . S
C1294 C1303 1.390 1_556 S
C1295 C1294 1.387 . S
C1295 C1297 1.387 . S
H1296 C1303 0.950 . S
C1297 C1295 1.387 . S
C1297 C1299 1.390 1_556 S
C1297 H1301 0.950 . S
H1298 C1294 0.950 . S
C1299 C1297 1.390 1_554 S
C1299 C1300 1.387 . S
C1299 H1302 0.950 . S
C1300 C1299 1.387 . S
C1300 C1303 1.387 . S
H1301 C1297 0.950 . S
H1302 C1299 0.950 . S
C1303 C1294 1.390 1_554 S
C1303 H1296 0.950 . S
C1303 C1300 1.387 . S
C1304 C1305 1.387 . S
C1304 H1308 0.950 . S
C1304 C1313 1.390 . S
C1305 C1304 1.387 . S
C1305 C1307 1.387 . S
H1306 C1313 0.950 . S
C1307 C1305 1.387 . S
C1307 C1309 1.390 . S
C1307 H1311 0.950 . S
H1308 C1304 0.950 . S
C1309 C1307 1.390 . S
C1309 C1310 1.387 . S
C1309 H1312 0.950 . S
C1310 C1309 1.387 . S
C1310 C1313 1.387 . S
H1311 C1307 0.950 . S
H1312 C1309 0.950 . S
C1313 C1304 1.390 . S
C1313 H1306 0.950 . S
C1313 C1310 1.387 . S
C1314 C1315 1.387 . S
C1314 H1318 0.950 . S
C1314 C1323 1.390 1_556 S
C1315 C1314 1.387 . S
C1315 C1317 1.387 . S
H1316 C1323 0.950 . S
C1317 C1315 1.387 . S
C1317 C1319 1.390 1_556 S
C1317 H1321 0.950 . S
H1318 C1314 0.950 . S
C1319 C1317 1.390 1_554 S
C1319 C1320 1.387 . S
C1319 H1322 0.950 . S
C1320 C1319 1.387 . S
C1320 C1323 1.387 . S
H1321 C1317 0.950 . S
H1322 C1319 0.950 . S
C1323 C1314 1.390 1_554 S
C1323 H1316 0.950 . S
C1323 C1320 1.387 . S
C1324 C1325 1.387 . S
C1324 H1328 0.950 . S
C1324 C1333 1.390 . S
C1325 C1324 1.387 . S
C1325 C1327 1.387 . S
H1326 C1333 0.950 . S
C1327 C1325 1.387 . S
C1327 C1329 1.390 . S
C1327 H1331 0.950 . S
H1328 C1324 0.950 . S
C1329 C1327 1.390 . S
C1329 C1330 1.387 . S
C1329 H1332 0.950 . S
C1330 C1329 1.387 . S
C1330 C1333 1.387 . S
H1331 C1327 0.950 . S
H1332 C1329 0.950 . S
C1333 C1324 1.390 . S
C1333 H1326 0.950 . S
C1333 C1330 1.387 . S
C1334 C1335 1.387 . S
C1334 H1338 0.950 . S
C1334 C1343 1.390 . S
C1335 C1334 1.387 . S
C1335 C1337 1.387 . S
H1336 C1343 0.950 . S
C1337 C1335 1.387 . S
C1337 C1339 1.390 . S
C1337 H1341 0.950 . S
H1338 C1334 0.950 . S
C1339 C1337 1.390 . S
C1339 C1340 1.387 . S
C1339 H1342 0.950 . S
C1340 C1339 1.387 . S
C1340 C1343 1.387 . S
H1341 C1337 0.950 . S
H1342 C1339 0.950 . S
C1343 C1334 1.390 . S
C1343 H1336 0.950 . S
C1343 C1340 1.387 . S
C1344 C1345 1.387 . S
C1344 H1348 0.950 . S
C1344 C1353 1.390 . S
C1345 C1344 1.387 . S
C1345 C1347 1.387 . S
H1346 C1353 0.950 . S
C1347 C1345 1.387 . S
C1347 C1349 1.390 . S
C1347 H1351 0.950 . S
H1348 C1344 0.950 . S
C1349 C1347 1.390 . S
C1349 C1350 1.387 . S
C1349 H1352 0.950 . S
C1350 C1349 1.387 . S
C1350 C1353 1.387 . S
H1351 C1347 0.950 . S
H1352 C1349 0.950 . S
C1353 C1344 1.390 . S
C1353 H1346 0.950 . S
C1353 C1350 1.387 . S
C1354 C1355 1.387 . S
C1354 H1358 0.950 . S
C1354 C1363 1.390 . S
C1355 C1354 1.387 . S
C1355 C1357 1.387 . S
H1356 C1363 0.950 . S
C1357 C1355 1.387 . S
C1357 C1359 1.390 . S
C1357 H1361 0.950 . S
H1358 C1354 0.950 . S
C1359 C1357 1.390 . S
C1359 C1360 1.387 . S
C1359 H1362 0.950 . S
C1360 C1359 1.387 . S
C1360 C1363 1.387 . S
H1361 C1357 0.950 . S
H1362 C1359 0.950 . S
C1363 C1354 1.390 . S
C1363 H1356 0.950 . S
C1363 C1360 1.387 . S
C1364 C1365 1.387 . S
C1364 H1368 0.950 . S
C1364 C1373 1.390 . S
C1365 C1364 1.387 . S
C1365 C1367 1.387 . S
H1366 C1373 0.950 . S
C1367 C1365 1.387 . S
C1367 C1369 1.390 . S
C1367 H1371 0.950 . S
H1368 C1364 0.950 . S
C1369 C1367 1.390 . S
C1369 C1370 1.387 . S
C1369 H1372 0.950 . S
C1370 C1369 1.387 . S
C1370 C1373 1.387 . S
H1371 C1367 0.950 . S
H1372 C1369 0.950 . S
C1373 C1364 1.390 . S
C1373 H1366 0.950 . S
C1373 C1370 1.387 . S
C1374 C1375 1.387 . S
C1374 H1378 0.950 . S
C1374 C1383 1.390 . S
C1375 C1374 1.387 . S
C1375 C1377 1.387 . S
H1376 C1383 0.950 . S
C1377 C1375 1.387 . S
C1377 C1379 1.390 . S
C1377 H1381 0.950 . S
H1378 C1374 0.950 . S
C1379 C1377 1.390 . S
C1379 C1380 1.387 . S
C1379 H1382 0.950 . S
C1380 C1379 1.387 . S
C1380 C1383 1.387 . S
H1381 C1377 0.950 . S
H1382 C1379 0.950 . S
C1383 C1374 1.390 . S
C1383 H1376 0.950 . S
C1383 C1380 1.387 . S
C1384 C1385 1.387 . S
C1384 H1388 0.950 . S
C1384 C1393 1.390 . S
C1385 C1384 1.387 . S
C1385 C1387 1.387 . S
H1386 C1393 0.950 . S
C1387 C1385 1.387 . S
C1387 C1389 1.390 . S
C1387 H1391 0.950 . S
H1388 C1384 0.950 . S
C1389 C1387 1.390 . S
C1389 C1390 1.387 . S
C1389 H1392 0.950 . S
C1390 C1389 1.387 . S
C1390 C1393 1.387 . S
H1391 C1387 0.950 . S
H1392 C1389 0.950 . S
C1393 C1384 1.390 . S
C1393 H1386 0.950 . S
C1393 C1390 1.387 . S
C1394 C1395 1.387 . S
C1394 H1398 0.950 . S
C1394 C1403 1.390 . S
C1395 C1394 1.387 . S
C1395 C1397 1.387 . S
H1396 C1403 0.950 . S
C1397 C1395 1.387 . S
C1397 C1399 1.390 . S
C1397 H1401 0.950 . S
H1398 C1394 0.950 . S
C1399 C1397 1.390 . S
C1399 C1400 1.387 . S
C1399 H1402 0.950 . S
C1400 C1399 1.387 . S
C1400 C1403 1.387 . S
H1401 C1397 0.950 . S
H1402 C1399 0.950 . S
C1403 C1394 1.390 . S
C1403 H1396 0.950 . S
C1403 C1400 1.387 . S
C1404 C1405 1.387 . S
C1404 H1408 0.950 . S
C1404 C1413 1.390 . S
C1405 C1404 1.387 . S
C1405 C1407 1.387 . S
H1406 C1413 0.950 . S
C1407 C1405 1.387 . S
C1407 C1409 1.390 . S
C1407 H1411 0.950 . S
H1408 C1404 0.950 . S
C1409 C1407 1.390 . S
C1409 C1410 1.387 . S
C1409 H1412 0.950 . S
C1410 C1409 1.387 . S
C1410 C1413 1.387 . S
H1411 C1407 0.950 . S
H1412 C1409 0.950 . S
C1413 C1404 1.390 . S
C1413 H1406 0.950 . S
C1413 C1410 1.387 . S
C1414 C1415 1.387 . S
C1414 H1418 0.950 . S
C1414 C1423 1.390 . S
C1415 C1414 1.387 . S
C1415 C1417 1.387 . S
H1416 C1423 0.950 . S
C1417 C1415 1.387 . S
C1417 C1419 1.390 . S
C1417 H1421 0.950 . S
H1418 C1414 0.950 . S
C1419 C1417 1.390 . S
C1419 C1420 1.387 . S
C1419 H1422 0.950 . S
C1420 C1419 1.387 . S
C1420 C1423 1.387 . S
H1421 C1417 0.950 . S
H1422 C1419 0.950 . S
C1423 C1414 1.390 . S
C1423 H1416 0.950 . S
C1423 C1420 1.387 . S
C1424 C1425 1.387 . S
C1424 H1428 0.950 . S
C1424 C1433 1.390 . S
C1425 C1424 1.387 . S
C1425 C1427 1.387 . S
H1426 C1433 0.950 . S
C1427 C1425 1.387 . S
C1427 C1429 1.390 . S
C1427 H1431 0.950 . S
H1428 C1424 0.950 . S
C1429 C1427 1.390 . S
C1429 C1430 1.387 . S
C1429 H1432 0.950 . S
C1430 C1429 1.387 . S
C1430 C1433 1.387 . S
H1431 C1427 0.950 . S
H1432 C1429 0.950 . S
C1433 C1424 1.390 . S
C1433 H1426 0.950 . S
C1433 C1430 1.387 . S
C1434 C1435 1.387 . S
C1434 H1438 0.950 . S
C1434 C1443 1.390 . S
C1435 C1434 1.387 . S
C1435 C1437 1.387 . S
H1436 C1443 0.950 . S
C1437 C1435 1.387 . S
C1437 C1439 1.390 . S
C1437 H1441 0.950 . S
H1438 C1434 0.950 . S
C1439 C1437 1.390 . S
C1439 C1440 1.387 . S
C1439 H1442 0.950 . S
C1440 C1439 1.387 . S
C1440 C1443 1.387 . S
H1441 C1437 0.950 . S
H1442 C1439 0.950 . S
C1443 C1434 1.390 . S
C1443 H1436 0.950 . S
C1443 C1440 1.387 . S
C1444 C1445 1.387 . S
C1444 H1448 0.950 . S
C1444 C1453 1.390 . S
C1445 C1444 1.387 . S
C1445 C1447 1.387 . S
H1446 C1453 0.950 . S
C1447 C1445 1.387 . S
C1447 C1449 1.390 . S
C1447 H1451 0.950 . S
H1448 C1444 0.950 . S
C1449 C1447 1.390 . S
C1449 C1450 1.387 . S
C1449 H1452 0.950 . S
C1450 C1449 1.387 . S
C1450 C1453 1.387 . S
H1451 C1447 0.950 . S
H1452 C1449 0.950 . S
C1453 C1444 1.390 . S
C1453 H1446 0.950 . S
C1453 C1450 1.387 . S
C1454 C1455 1.387 . S
C1454 H1458 0.950 . S
C1454 C1463 1.390 . S
C1455 C1454 1.387 . S
C1455 C1457 1.387 . S
H1456 C1463 0.950 . S
C1457 C1455 1.387 . S
C1457 C1459 1.390 . S
C1457 H1461 0.950 . S
H1458 C1454 0.950 . S
C1459 C1457 1.390 . S
C1459 C1460 1.387 . S
C1459 H1462 0.950 . S
C1460 C1459 1.387 . S
C1460 C1463 1.387 . S
H1461 C1457 0.950 . S
H1462 C1459 0.950 . S
C1463 C1454 1.390 . S
C1463 H1456 0.950 . S
C1463 C1460 1.387 . S
C1464 C1465 1.387 . S
C1464 H1468 0.950 . S
C1464 C1473 1.390 . S
C1465 C1464 1.387 . S
C1465 C1467 1.387 . S
H1466 C1473 0.950 . S
C1467 C1465 1.387 . S
C1467 C1469 1.390 . S
C1467 H1471 0.950 . S
H1468 C1464 0.950 . S
C1469 C1467 1.390 . S
C1469 C1470 1.387 . S
C1469 H1472 0.950 . S
C1470 C1469 1.387 . S
C1470 C1473 1.387 . S
H1471 C1467 0.950 . S
H1472 C1469 0.950 . S
C1473 C1464 1.390 . S
C1473 H1466 0.950 . S
C1473 C1470 1.387 . S
C1474 C1475 1.387 . S
C1474 H1478 0.950 . S
C1474 C1483 1.390 . S
C1475 C1474 1.387 . S
C1475 C1477 1.387 . S
H1476 C1483 0.950 . S
C1477 C1475 1.387 . S
C1477 C1479 1.390 . S
C1477 H1481 0.950 . S
H1478 C1474 0.950 . S
C1479 C1477 1.390 . S
C1479 C1480 1.387 . S
C1479 H1482 0.950 . S
C1480 C1479 1.387 . S
C1480 C1483 1.387 . S
H1481 C1477 0.950 . S
H1482 C1479 0.950 . S
C1483 C1474 1.390 . S
C1483 H1476 0.950 . S
C1483 C1480 1.387 . S
C1484 C1485 1.387 . S
C1484 H1488 0.950 . S
C1484 C1493 1.390 . S
C1485 C1484 1.387 . S
C1485 C1487 1.387 . S
H1486 C1493 0.950 . S
C1487 C1485 1.387 . S
C1487 C1489 1.390 . S
C1487 H1491 0.950 . S
H1488 C1484 0.950 . S
C1489 C1487 1.390 . S
C1489 C1490 1.387 . S
C1489 H1492 0.950 . S
C1490 C1489 1.387 . S
C1490 C1493 1.387 . S
H1491 C1487 0.950 . S
H1492 C1489 0.950 . S
C1493 C1484 1.390 . S
C1493 H1486 0.950 . S
C1493 C1490 1.387 . S
C1494 C1495 1.387 . S
C1494 H1498 0.950 . S
C1494 C1503 1.390 . S
C1495 C1494 1.387 . S
C1495 C1497 1.387 . S
H1496 C1503 0.950 . S
C1497 C1495 1.387 . S
C1497 C1499 1.390 . S
C1497 H1501 0.950 . S
H1498 C1494 0.950 . S
C1499 C1497 1.390 . S
C1499 C1500 1.387 . S
C1499 H1502 0.950 . S
C1500 C1499 1.387 . S
C1500 C1503 1.387 . S
H1501 C1497 0.950 . S
H1502 C1499 0.950 . S
C1503 C1494 1.390 . S
C1503 H1496 0.950 . S
C1503 C1500 1.387 . S
C1504 C1505 1.387 . S
C1504 H1508 0.950 . S
C1504 C1513 1.390 . S
C1505 C1504 1.387 . S
C1505 C1507 1.387 . S
H1506 C1513 0.950 . S
C1507 C1505 1.387 . S
C1507 C1509 1.390 . S
C1507 H1511 0.950 . S
H1508 C1504 0.950 . S
C1509 C1507 1.390 . S
C1509 C1510 1.387 . S
C1509 H1512 0.950 . S
C1510 C1509 1.387 . S
C1510 C1513 1.387 . S
H1511 C1507 0.950 . S
H1512 C1509 0.950 . S
C1513 C1504 1.390 . S
C1513 H1506 0.950 . S
C1513 C1510 1.387 . S
C1514 C1515 1.387 . S
C1514 H1518 0.950 . S
C1514 C1523 1.390 . S
C1515 C1514 1.387 . S
C1515 C1517 1.387 . S
H1516 C1523 0.950 . S
C1517 C1515 1.387 . S
C1517 C1519 1.390 . S
C1517 H1521 0.950 . S
H1518 C1514 0.950 . S
C1519 C1517 1.390 . S
C1519 C1520 1.387 . S
C1519 H1522 0.950 . S
C1520 C1519 1.387 . S
C1520 C1523 1.387 . S
H1521 C1517 0.950 . S
H1522 C1519 0.950 . S
C1523 C1514 1.390 . S
C1523 H1516 0.950 . S
C1523 C1520 1.387 . S
C1524 C1525 1.387 . S
C1524 H1528 0.950 . S
C1524 C1533 1.390 . S
C1525 C1524 1.387 . S
C1525 C1527 1.387 . S
H1526 C1533 0.950 . S
C1527 C1525 1.387 . S
C1527 C1529 1.390 . S
C1527 H1531 0.950 . S
H1528 C1524 0.950 . S
C1529 C1527 1.390 . S
C1529 C1530 1.387 . S
C1529 H1532 0.950 . S
C1530 C1529 1.387 . S
C1530 C1533 1.387 . S
H1531 C1527 0.950 . S
H1532 C1529 0.950 . S
C1533 C1524 1.390 . S
C1533 H1526 0.950 . S
C1533 C1530 1.387 . S
C1534 C1535 1.387 . S
C1534 H1538 0.950 . S
C1534 C1543 1.390 . S
C1535 C1534 1.387 . S
C1535 C1537 1.387 . S
H1536 C1543 0.950 . S
C1537 C1535 1.387 . S
C1537 C1539 1.390 . S
C1537 H1541 0.950 . S
H1538 C1534 0.950 . S
C1539 C1537 1.390 . S
C1539 C1540 1.387 . S
C1539 H1542 0.950 . S
C1540 C1539 1.387 . S
C1540 C1543 1.387 . S
H1541 C1537 0.950 . S
H1542 C1539 0.950 . S
C1543 C1534 1.390 . S
C1543 H1536 0.950 . S
C1543 C1540 1.387 . S
C1544 C1545 1.387 . S
C1544 H1548 0.950 . S
C1544 C1553 1.390 . S
C1545 C1544 1.387 . S
C1545 C1547 1.387 . S
H1546 C1553 0.950 . S
C1547 C1545 1.387 . S
C1547 C1549 1.390 . S
C1547 H1551 0.950 . S
H1548 C1544 0.950 . S
C1549 C1547 1.390 . S
C1549 C1550 1.387 . S
C1549 H1552 0.950 . S
C1550 C1549 1.387 . S
C1550 C1553 1.387 . S
H1551 C1547 0.950 . S
H1552 C1549 0.950 . S
C1553 C1544 1.390 . S
C1553 H1546 0.950 . S
C1553 C1550 1.387 . S
C1554 C1555 1.387 . S
C1554 H1558 0.950 . S
C1554 C1563 1.390 . S
C1555 C1554 1.387 . S
C1555 C1557 1.387 . S
H1556 C1563 0.950 . S
C1557 C1555 1.387 . S
C1557 C1559 1.390 . S
C1557 H1561 0.950 . S
H1558 C1554 0.950 . S
C1559 C1557 1.390 . S
C1559 C1560 1.387 . S
C1559 H1562 0.950 . S
C1560 C1559 1.387 . S
C1560 C1563 1.387 . S
H1561 C1557 0.950 . S
H1562 C1559 0.950 . S
C1563 C1554 1.390 . S
C1563 H1556 0.950 . S
C1563 C1560 1.387 . S
C1564 C1565 1.387 . S
C1564 H1568 0.950 . S
C1564 C1573 1.390 . S
C1565 C1564 1.387 . S
C1565 C1567 1.387 . S
H1566 C1573 0.950 . S
C1567 C1565 1.387 . S
C1567 C1569 1.390 . S
C1567 H1571 0.950 . S
H1568 C1564 0.950 . S
C1569 C1567 1.390 . S
C1569 C1570 1.387 . S
C1569 H1572 0.950 . S
C1570 C1569 1.387 . S
C1570 C1573 1.387 . S
H1571 C1567 0.950 . S
H1572 C1569 0.950 . S
C1573 C1564 1.390 . S
C1573 H1566 0.950 . S
C1573 C1570 1.387 . S
C1574 C1575 1.387 . S
C1574 H1578 0.950 . S
C1574 C1583 1.390 . S
C1575 C1574 1.387 . S
C1575 C1577 1.387 . S
H1576 C1583 0.950 . S
C1577 C1575 1.387 . S
C1577 C1579 1.390 . S
C1577 H1581 0.950 . S
H1578 C1574 0.950 . S
C1579 C1577 1.390 . S
C1579 C1580 1.387 . S
C1579 H1582 0.950 . S
C1580 C1579 1.387 . S
C1580 C1583 1.387 . S
H1581 C1577 0.950 . S
H1582 C1579 0.950 . S
C1583 C1574 1.390 . S
C1583 H1576 0.950 . S
C1583 C1580 1.387 . S
C625 C268 1.259 . S
C630 C8 1.258 . S
C635 C23 1.168 . S
C640 C229 1.187 . S
C645 C34 1.236 . S
C650 C244 1.214 . S
C655 C257 1.163 . S
C660 C49 1.164 . S
C665 C309 1.154 . S
C670 C62 1.159 . S
C675 C73 1.252 . S
C680 C283 1.225 . S
C685 C88 1.147 . S
C690 C296 1.146 . S
C695 C99 1.241 . S
C700 C216 1.242 . S
C705 C112 1.219 . S
C710 C203 1.217 . S
C715 C127 1.209 . S
C720 C166 1.211 . S
C725 C138 1.190 . S
C730 C177 1.187 . S
C735 C192 1.184 . S
C740 C153 1.183 . S
C745 C322 1.291 . S
C750 C582 1.291 . S
C755 C543 1.223 . S
C760 C333 1.229 . S
C765 C348 1.275 . S
C770 C554 1.290 . S
C775 C567 1.240 . S
C780 C359 1.239 . S
C785 C372 1.243 . S
C790 C621 1.234 . S
C795 C593 1.302 . S
C800 C387 1.288 . S
C805 C398 1.245 . S
C810 C606 1.249 . S
C815 C530 1.289 . S
C820 C413 1.283 . S
C825 C426 1.261 . S
C830 C517 1.263 . S
C835 C476 1.294 . S
C840 C437 1.292 . S
C845 C491 1.238 . S
C850 C452 1.237 . S
C855 C502 1.261 . S
C860 C463 1.260 . S
C865 C346 1.129 . S
C870 C10 1.134 . S
C875 C21 1.146 . S
C880 C361 1.135 . S
C885 C36 1.148 . S
C890 C320 1.141 . S
C895 C47 1.151 . S
C900 C335 1.139 . S
C905 C60 1.186 . S
C910 C400 1.177 . S
C915 C411 1.131 . S
C920 C75 1.133 . S
C925 C374 1.139 . S
C930 C86 1.151 . S
C935 C385 1.129 . S
C940 C101 1.137 . S
C945 C478 1.137 . S
C950 C114 1.143 . S
C955 C125 1.143 . S
C960 C489 1.136 . S
C965 C504 1.142 . S
C970 C140 1.142 . S
C975 C151 1.151 . S
C980 C515 1.142 . S
C985 C164 1.154 . S
C990 C424 1.147 . S
C995 C179 1.146 . S
C1000 C439 1.140 . S
C1005 C450 1.144 . S
C1010 C190 1.152 . S
C1015 C465 1.143 . S
C1020 C205 1.138 . S
C1025 C218 1.135 . S
C1030 C569 1.138 . S
C1035 C231 1.158 . S
C1040 C595 1.153 . S
C1045 C608 1.146 . S
C1050 C242 1.152 . S
C1055 C528 1.141 . S
C1060 C255 1.151 . S
C1065 C270 1.127 . S
C1070 C619 1.133 . S
C1075 C541 1.137 . S
C1080 C281 1.143 . S
C1085 C294 1.155 . S
C1090 C556 1.142 . S
C1095 C307 1.164 . S
C1100 C580 1.155 . S
C1105 C364 1.570 . S
C1110 C5 1.546 . S
C1115 C382 1.613 . S
C1120 C13 1.549 . S
C1125 C390 1.585 . S
C1130 C31 1.565 . S
C1135 C39 1.544 . S
C1140 C408 1.605 . S
C1145 C317 1.597 . S
C1150 C52 1.534 . S
C1155 C325 1.583 . S
C1160 C70 1.553 . S
C1165 C78 1.554 . S
C1170 C343 1.626 . S
C1175 C351 1.577 . S
C1180 C96 1.552 . S
C1185 C109 1.555 . S
C1190 C494 1.570 . S
C1195 C117 1.553 . S
C1200 C512 1.577 . S
C1205 C468 1.589 . S
C1210 C135 1.534 . S
C1215 C143 1.564 . S
C1220 C486 1.595 . S
C1225 C447 1.568 . S
C1230 C156 1.567 . S
C1235 C174 1.547 . S
C1240 C455 1.579 . S
C1245 C182 1.552 . S
C1250 C421 1.608 . S
C1255 C200 1.536 . S
C1260 C429 1.574 . S
C1265 C585 1.562 . S
C1270 C213 1.519 . S
C1275 C226 1.586 . S
C1280 C559 1.632 . S
C1285 C234 1.559 . S
C1290 C577 1.584 . S
C1295 C247 1.579 . S
C1300 C538 1.624 . S
C1305 C546 1.558 . S
C1310 C265 1.522 . S
C1315 C525 1.561 . S
C1320 C273 1.538 . S
C1325 C616 1.609 . S
C1330 C286 1.579 . S
C1335 C299 1.581 . S
C1340 C598 1.610 . S
C1345 C195 1.673 . S
C1350 C0 1.658 . S
C1355 C18 1.619 . S
C1360 C161 1.654 . S
C1365 C169 1.688 . S
C1370 C26 1.663 . S
C1375 C187 1.676 . S
C1380 C44 1.671 . S
C1385 C122 1.661 . S
C1390 C57 1.634 . S
C1395 C65 1.691 . S
C1400 C130 1.712 . S
C1405 C83 1.655 . S
C1410 C148 1.674 . S
C1415 C104 1.664 . S
C1420 C91 1.640 . S
C1425 C208 1.689 . S
C1430 C260 1.671 . S
C1435 C304 1.657 . S
C1440 C221 1.748 . S
C1445 C278 1.618 . S
C1450 C239 1.611 . S
C1455 C252 1.660 . S
C1460 C291 1.668 . S
C1465 C507 1.648 . S
C1470 C312 1.677 . S
C1475 C473 1.624 . S
C1480 C330 1.621 . S
C1485 C338 1.692 . S
C1490 C481 1.652 . S
C1495 C499 1.634 . S
C1500 C356 1.648 . S
C1505 C434 1.628 . S
C1510 C369 1.635 . S
C1515 C377 1.706 . S
C1520 C442 1.655 . S
C1525 C395 1.634 . S
C1530 C460 1.635 . S
C1535 C403 1.662 . S
C1540 C416 1.643 . S
C1545 C520 1.660 . S
C1550 C572 1.664 . S
C1555 C611 1.695 . S
C1560 C533 1.691 . S
C1565 C590 1.587 . S
C1570 C551 1.596 . S
C1575 C603 1.652 . S
C1580 C564 1.634 . S
