# Generated by pormake.
# Topology wio, (6)-cn, num edge types: 1
# Building blocks:
#     Node 0, Type 0, BuildingBlock: CUWYAW_clean_sbu_0, # of connection points: 6
#     Node 1, Type 0, BuildingBlock: CUWYAW_clean_sbu_0, # of connection points: 6
#     Node 2, Type 0, BuildingBlock: CUWYAW_clean_sbu_0, # of connection points: 6
#     Node 3, Type 0, BuildingBlock: CUWYAW_clean_sbu_0, # of connection points: 6
#     Node 4, Type 0, BuildingBlock: CUWYAW_clean_sbu_0, # of connection points: 6
#     Node 5, Type 0, BuildingBlock: CUWYAW_clean_sbu_0, # of connection points: 6
#     Node 6, Type 0, BuildingBlock: CUWYAW_clean_sbu_0, # of connection points: 6
#     Node 7, Type 0, BuildingBlock: CUWYAW_clean_sbu_0, # of connection points: 6
#     Node 8, Type 0, BuildingBlock: CUWYAW_clean_sbu_0, # of connection points: 6
#     Node 9, Type 0, BuildingBlock: CUWYAW_clean_sbu_0, # of connection points: 6
#     Node 10, Type 0, BuildingBlock: CUWYAW_clean_sbu_0, # of connection points: 6
#     Node 11, Type 0, BuildingBlock: CUWYAW_clean_sbu_0, # of connection points: 6
#     Node 12, Type 0, BuildingBlock: CUWYAW_clean_sbu_0, # of connection points: 6
#     Node 13, Type 0, BuildingBlock: CUWYAW_clean_sbu_0, # of connection points: 6
#     Node 14, Type 0, BuildingBlock: CUWYAW_clean_sbu_0, # of connection points: 6
#     Node 15, Type 0, BuildingBlock: CUWYAW_clean_sbu_0, # of connection points: 6
#     Node 16, Type 0, BuildingBlock: CUWYAW_clean_sbu_0, # of connection points: 6
#     Node 17, Type 0, BuildingBlock: CUWYAW_clean_sbu_0, # of connection points: 6
#     Node 18, Type 0, BuildingBlock: CUWYAW_clean_sbu_0, # of connection points: 6
#     Node 19, Type 0, BuildingBlock: CUWYAW_clean_sbu_0, # of connection points: 6
#     Node 20, Type 0, BuildingBlock: CUWYAW_clean_sbu_0, # of connection points: 6
#     Node 21, Type 0, BuildingBlock: CUWYAW_clean_sbu_0, # of connection points: 6
#     Node 22, Type 0, BuildingBlock: CUWYAW_clean_sbu_0, # of connection points: 6
#     Node 23, Type 0, BuildingBlock: CUWYAW_clean_sbu_0, # of connection points: 6
#     Node 24, Type 0, BuildingBlock: CUWYAW_clean_sbu_0, # of connection points: 6
#     Node 25, Type 0, BuildingBlock: CUWYAW_clean_sbu_0, # of connection points: 6
#     Node 26, Type 0, BuildingBlock: CUWYAW_clean_sbu_0, # of connection points: 6
#     Node 27, Type 0, BuildingBlock: CUWYAW_clean_sbu_0, # of connection points: 6
#     Node 28, Type 0, BuildingBlock: CUWYAW_clean_sbu_0, # of connection points: 6
#     Node 29, Type 0, BuildingBlock: CUWYAW_clean_sbu_0, # of connection points: 6
#     Node 30, Type 0, BuildingBlock: CUWYAW_clean_sbu_0, # of connection points: 6
#     Node 31, Type 0, BuildingBlock: CUWYAW_clean_sbu_0, # of connection points: 6
#     Edge 32, Type (0, 0), BuildingBlock: OJICUG_clean_linker_0, # of connection points: 2
#     Edge 33, Type (0, 0), BuildingBlock: OJICUG_clean_linker_0, # of connection points: 2
#     Edge 34, Type (0, 0), BuildingBlock: OJICUG_clean_linker_0, # of connection points: 2
#     Edge 35, Type (0, 0), BuildingBlock: OJICUG_clean_linker_0, # of connection points: 2
#     Edge 36, Type (0, 0), BuildingBlock: OJICUG_clean_linker_0, # of connection points: 2
#     Edge 37, Type (0, 0), BuildingBlock: OJICUG_clean_linker_0, # of connection points: 2
#     Edge 38, Type (0, 0), BuildingBlock: OJICUG_clean_linker_0, # of connection points: 2
#     Edge 39, Type (0, 0), BuildingBlock: OJICUG_clean_linker_0, # of connection points: 2
#     Edge 40, Type (0, 0), BuildingBlock: OJICUG_clean_linker_0, # of connection points: 2
#     Edge 41, Type (0, 0), BuildingBlock: OJICUG_clean_linker_0, # of connection points: 2
#     Edge 42, Type (0, 0), BuildingBlock: OJICUG_clean_linker_0, # of connection points: 2
#     Edge 43, Type (0, 0), BuildingBlock: OJICUG_clean_linker_0, # of connection points: 2
#     Edge 44, Type (0, 0), BuildingBlock: OJICUG_clean_linker_0, # of connection points: 2
#     Edge 45, Type (0, 0), BuildingBlock: OJICUG_clean_linker_0, # of connection points: 2
#     Edge 46, Type (0, 0), BuildingBlock: OJICUG_clean_linker_0, # of connection points: 2
#     Edge 47, Type (0, 0), BuildingBlock: OJICUG_clean_linker_0, # of connection points: 2
#     Edge 48, Type (0, 0), BuildingBlock: OJICUG_clean_linker_0, # of connection points: 2
#     Edge 49, Type (0, 0), BuildingBlock: OJICUG_clean_linker_0, # of connection points: 2
#     Edge 50, Type (0, 0), BuildingBlock: OJICUG_clean_linker_0, # of connection points: 2
#     Edge 51, Type (0, 0), BuildingBlock: OJICUG_clean_linker_0, # of connection points: 2
#     Edge 52, Type (0, 0), BuildingBlock: OJICUG_clean_linker_0, # of connection points: 2
#     Edge 53, Type (0, 0), BuildingBlock: OJICUG_clean_linker_0, # of connection points: 2
#     Edge 54, Type (0, 0), BuildingBlock: OJICUG_clean_linker_0, # of connection points: 2
#     Edge 55, Type (0, 0), BuildingBlock: OJICUG_clean_linker_0, # of connection points: 2
#     Edge 56, Type (0, 0), BuildingBlock: OJICUG_clean_linker_0, # of connection points: 2
#     Edge 57, Type (0, 0), BuildingBlock: OJICUG_clean_linker_0, # of connection points: 2
#     Edge 58, Type (0, 0), BuildingBlock: OJICUG_clean_linker_0, # of connection points: 2
#     Edge 59, Type (0, 0), BuildingBlock: OJICUG_clean_linker_0, # of connection points: 2
#     Edge 60, Type (0, 0), BuildingBlock: OJICUG_clean_linker_0, # of connection points: 2
#     Edge 61, Type (0, 0), BuildingBlock: OJICUG_clean_linker_0, # of connection points: 2
#     Edge 62, Type (0, 0), BuildingBlock: OJICUG_clean_linker_0, # of connection points: 2
#     Edge 63, Type (0, 0), BuildingBlock: OJICUG_clean_linker_0, # of connection points: 2
#     Edge 64, Type (0, 0), BuildingBlock: OJICUG_clean_linker_0, # of connection points: 2
#     Edge 65, Type (0, 0), BuildingBlock: OJICUG_clean_linker_0, # of connection points: 2
#     Edge 66, Type (0, 0), BuildingBlock: OJICUG_clean_linker_0, # of connection points: 2
#     Edge 67, Type (0, 0), BuildingBlock: OJICUG_clean_linker_0, # of connection points: 2
#     Edge 68, Type (0, 0), BuildingBlock: OJICUG_clean_linker_0, # of connection points: 2
#     Edge 69, Type (0, 0), BuildingBlock: OJICUG_clean_linker_0, # of connection points: 2
#     Edge 70, Type (0, 0), BuildingBlock: OJICUG_clean_linker_0, # of connection points: 2
#     Edge 71, Type (0, 0), BuildingBlock: OJICUG_clean_linker_0, # of connection points: 2
#     Edge 72, Type (0, 0), BuildingBlock: OJICUG_clean_linker_0, # of connection points: 2
#     Edge 73, Type (0, 0), BuildingBlock: OJICUG_clean_linker_0, # of connection points: 2
#     Edge 74, Type (0, 0), BuildingBlock: OJICUG_clean_linker_0, # of connection points: 2
#     Edge 75, Type (0, 0), BuildingBlock: OJICUG_clean_linker_0, # of connection points: 2
#     Edge 76, Type (0, 0), BuildingBlock: OJICUG_clean_linker_0, # of connection points: 2
#     Edge 77, Type (0, 0), BuildingBlock: OJICUG_clean_linker_0, # of connection points: 2
#     Edge 78, Type (0, 0), BuildingBlock: OJICUG_clean_linker_0, # of connection points: 2
#     Edge 79, Type (0, 0), BuildingBlock: OJICUG_clean_linker_0, # of connection points: 2
#     Edge 80, Type (0, 0), BuildingBlock: OJICUG_clean_linker_0, # of connection points: 2
#     Edge 81, Type (0, 0), BuildingBlock: OJICUG_clean_linker_0, # of connection points: 2
#     Edge 82, Type (0, 0), BuildingBlock: OJICUG_clean_linker_0, # of connection points: 2
#     Edge 83, Type (0, 0), BuildingBlock: OJICUG_clean_linker_0, # of connection points: 2
#     Edge 84, Type (0, 0), BuildingBlock: OJICUG_clean_linker_0, # of connection points: 2
#     Edge 85, Type (0, 0), BuildingBlock: OJICUG_clean_linker_0, # of connection points: 2
#     Edge 86, Type (0, 0), BuildingBlock: OJICUG_clean_linker_0, # of connection points: 2
#     Edge 87, Type (0, 0), BuildingBlock: OJICUG_clean_linker_0, # of connection points: 2
#     Edge 88, Type (0, 0), BuildingBlock: OJICUG_clean_linker_0, # of connection points: 2
#     Edge 89, Type (0, 0), BuildingBlock: OJICUG_clean_linker_0, # of connection points: 2
#     Edge 90, Type (0, 0), BuildingBlock: OJICUG_clean_linker_0, # of connection points: 2
#     Edge 91, Type (0, 0), BuildingBlock: OJICUG_clean_linker_0, # of connection points: 2
#     Edge 92, Type (0, 0), BuildingBlock: OJICUG_clean_linker_0, # of connection points: 2
#     Edge 93, Type (0, 0), BuildingBlock: OJICUG_clean_linker_0, # of connection points: 2
#     Edge 94, Type (0, 0), BuildingBlock: OJICUG_clean_linker_0, # of connection points: 2
#     Edge 95, Type (0, 0), BuildingBlock: OJICUG_clean_linker_0, # of connection points: 2
#     Edge 96, Type (0, 0), BuildingBlock: OJICUG_clean_linker_0, # of connection points: 2
#     Edge 97, Type (0, 0), BuildingBlock: OJICUG_clean_linker_0, # of connection points: 2
#     Edge 98, Type (0, 0), BuildingBlock: OJICUG_clean_linker_0, # of connection points: 2
#     Edge 99, Type (0, 0), BuildingBlock: OJICUG_clean_linker_0, # of connection points: 2
#     Edge 100, Type (0, 0), BuildingBlock: OJICUG_clean_linker_0, # of connection points: 2
#     Edge 101, Type (0, 0), BuildingBlock: OJICUG_clean_linker_0, # of connection points: 2
#     Edge 102, Type (0, 0), BuildingBlock: OJICUG_clean_linker_0, # of connection points: 2
#     Edge 103, Type (0, 0), BuildingBlock: OJICUG_clean_linker_0, # of connection points: 2
#     Edge 104, Type (0, 0), BuildingBlock: OJICUG_clean_linker_0, # of connection points: 2
#     Edge 105, Type (0, 0), BuildingBlock: OJICUG_clean_linker_0, # of connection points: 2
#     Edge 106, Type (0, 0), BuildingBlock: OJICUG_clean_linker_0, # of connection points: 2
#     Edge 107, Type (0, 0), BuildingBlock: OJICUG_clean_linker_0, # of connection points: 2
#     Edge 108, Type (0, 0), BuildingBlock: OJICUG_clean_linker_0, # of connection points: 2
#     Edge 109, Type (0, 0), BuildingBlock: OJICUG_clean_linker_0, # of connection points: 2
#     Edge 110, Type (0, 0), BuildingBlock: OJICUG_clean_linker_0, # of connection points: 2
#     Edge 111, Type (0, 0), BuildingBlock: OJICUG_clean_linker_0, # of connection points: 2
#     Edge 112, Type (0, 0), BuildingBlock: OJICUG_clean_linker_0, # of connection points: 2
#     Edge 113, Type (0, 0), BuildingBlock: OJICUG_clean_linker_0, # of connection points: 2
#     Edge 114, Type (0, 0), BuildingBlock: OJICUG_clean_linker_0, # of connection points: 2
#     Edge 115, Type (0, 0), BuildingBlock: OJICUG_clean_linker_0, # of connection points: 2
#     Edge 116, Type (0, 0), BuildingBlock: OJICUG_clean_linker_0, # of connection points: 2
#     Edge 117, Type (0, 0), BuildingBlock: OJICUG_clean_linker_0, # of connection points: 2
#     Edge 118, Type (0, 0), BuildingBlock: OJICUG_clean_linker_0, # of connection points: 2
#     Edge 119, Type (0, 0), BuildingBlock: OJICUG_clean_linker_0, # of connection points: 2
#     Edge 120, Type (0, 0), BuildingBlock: OJICUG_clean_linker_0, # of connection points: 2
#     Edge 121, Type (0, 0), BuildingBlock: OJICUG_clean_linker_0, # of connection points: 2
#     Edge 122, Type (0, 0), BuildingBlock: OJICUG_clean_linker_0, # of connection points: 2
#     Edge 123, Type (0, 0), BuildingBlock: OJICUG_clean_linker_0, # of connection points: 2
#     Edge 124, Type (0, 0), BuildingBlock: OJICUG_clean_linker_0, # of connection points: 2
#     Edge 125, Type (0, 0), BuildingBlock: OJICUG_clean_linker_0, # of connection points: 2
#     Edge 126, Type (0, 0), BuildingBlock: OJICUG_clean_linker_0, # of connection points: 2
#     Edge 127, Type (0, 0), BuildingBlock: OJICUG_clean_linker_0, # of connection points: 2
# Relax obj value: 0.201
# Max RMSD: 0.240
# Mean RMSD: 0.240
data_MOF--net-wio--node1-CUWYAW_clean_sbu_0--edge1-OJICUG_clean_linker_0
_symmetry_space_group_name_H-M    P1
_symmetry_Int_Tables_number       1
_symmetry_cell_setting            triclinic
loop_
_symmetry_equiv_pos_as_xyz
'x, y, z'
_cell_length_a     49.290907
_cell_length_b     49.297656
_cell_length_c     41.301218
_cell_angle_alpha  89.959354
_cell_angle_beta   89.863718
_cell_angle_gamma 90.068834
loop_
_atom_site_label
_atom_site_type_symbol
_atom_site_fract_x
_atom_site_fract_y
_atom_site_fract_z
_atom_type_partial_charge
C0 C 0.05557 0.14231 0.32227 0.0
Eu1 Eu 0.10275 0.12489 0.30096 0.0
C2 C 0.03832 0.14161 0.35206 0.0
C3 C 0.02591 0.11753 0.36287 0.0
C4 C 1.00837 0.11767 0.38971 0.0
C5 C 1.00267 0.14188 0.40664 0.0
C6 C 0.01539 0.16589 0.39599 0.0
C7 C 0.03293 0.16575 0.3691 0.0
C8 C 0.11401 0.07292 0.28027 0.0
C9 C 0.13512 0.09727 0.36142 0.0
C10 C 0.21099 0.09713 0.28078 0.0
Eu11 Eu 0.16224 0.11363 0.29513 0.0
C12 C 0.23417 0.10665 0.26166 0.0
C13 C 0.23133 0.12782 0.23926 0.0
C14 C 0.25353 0.13617 0.22063 0.0
C15 C 0.27894 0.12357 0.22438 0.0
C16 C 0.28187 0.10323 0.24802 0.0
C17 C 0.25962 0.09479 0.26643 0.0
C18 C 0.15205 0.16074 0.32638 0.0
C19 C 0.13111 0.13909 0.23164 0.0
O20 O 0.07792 0.15649 0.3235 0.0
O21 O 0.05876 0.1199 0.3058 0.0
O22 O 0.09341 0.08728 0.27065 0.0
O23 O 0.12692 0.08645 0.301 0.0
O24 O 0.11411 0.11222 0.35266 0.0
O25 O 0.15407 0.09045 0.34048 0.0
O26 O 0.18933 0.08964 0.26472 0.0
O27 O 0.20525 0.1117 0.30625 0.0
O28 O 0.17249 0.14505 0.33175 0.0
O29 O 0.13877 0.15246 0.30178 0.0
O30 O 0.15318 0.12833 0.24436 0.0
O31 O 0.10848 0.14151 0.24907 0.0
H32 H 0.02936 0.09858 0.35029 0.0
H33 H 0.99868 0.09881 0.39658 0.0
H34 H 1.01184 0.18489 0.40843 0.0
H35 H 0.04205 0.18468 0.36134 0.0
H36 H 0.21187 0.13753 0.23584 0.0
H37 H 0.25049 0.15166 0.20239 0.0
H38 H 0.30124 0.09339 0.2518 0.0
H39 H 0.26221 0.07875 0.2841 0.0
C40 C 0.12894 0.80598 0.57813 0.0
Eu41 Eu 0.14948 0.85032 0.55245 0.0
C42 C 0.13241 0.78785 0.60658 0.0
C43 C 0.15702 0.78637 0.6235 0.0
C44 C 0.15994 0.76842 0.64972 0.0
C45 C 0.13828 0.75157 0.65975 0.0
C46 C 0.11341 0.75382 0.64329 0.0
C47 C 0.11056 0.7717 0.61702 0.0
C48 C 0.20269 0.85832 0.53365 0.0
C49 C 0.17714 0.88682 0.60983 0.0
C50 C 0.18144 0.9556 0.52029 0.0
Eu51 Eu 0.16305 0.90887 0.53987 0.0
C52 C 0.17213 0.97846 0.50042 0.0
C53 C 0.14539 0.9882 0.50253 0.0
C54 C 0.1373 1.01052 0.48404 0.0
C55 C 0.15578 0.02336 0.46305 0.0
C56 C 0.18243 1.01323 0.46082 0.0
C57 C 0.19052 0.99109 0.47943 0.0
C58 C 0.11358 0.90222 0.56797 0.0
C59 C 0.14006 0.87305 0.47924 0.0
O60 O 0.11989 0.83035 0.584 0.0
O61 O 0.14798 0.80599 0.55599 0.0
O62 O 0.18843 0.83686 0.52687 0.0
O63 O 0.18861 0.87346 0.55149 0.0
O64 O 0.16227 0.86521 0.60288 0.0
O65 O 0.18451 0.90409 0.5871 0.0
O66 O 0.18656 0.93284 0.50516 0.0
O67 O 0.16885 0.95195 0.54781 0.0
O68 O 0.12896 0.92323 0.57136 0.0
O69 O 0.12338 0.88674 0.54623 0.0
O70 O 0.15335 0.89473 0.48908 0.0
O71 O 0.13336 0.85339 0.49995 0.0
H72 H 0.17408 0.79889 0.61626 0.0
H73 H 0.17929 0.76763 0.66204 0.0
H74 H 0.09637 0.74108 0.64998 0.0
H75 H 0.09129 0.77262 0.60448 0.0
H76 H 0.13079 0.97865 0.51855 0.0
H77 H 0.11667 0.01783 0.48635 0.0
H78 H 0.197 0.02212 0.44425 0.0
H79 H 0.21118 0.98377 0.47737 0.0
C80 C 0.46692 0.87973 0.83519 0.0
Eu81 Eu 0.42233 0.8989 0.80885 0.0
C82 C 0.48694 0.88437 0.86185 0.0
C83 C 0.51253 0.89554 0.85484 0.0
C84 C 0.5323 0.89818 0.87902 0.0
C85 C 0.52724 0.88965 0.9111 0.0
C86 C 0.5017 0.87818 0.91809 0.0
C87 C 0.48184 0.87557 0.89382 0.0
C88 C 0.41405 0.95199 0.78972 0.0
C89 C 0.38468 0.9264 0.86553 0.0
C90 C 0.3171 0.9288 0.77491 0.0
Eu91 Eu 0.36387 0.91135 0.79535 0.0
C92 C 0.29499 0.92046 0.75308 0.0
C93 C 0.28048 0.89618 0.75795 0.0
C94 C 0.25864 0.88951 0.7379 0.0
C95 C 0.25093 0.90697 0.71265 0.0
C96 C 0.26585 0.93099 0.70758 0.0
C97 C 0.28752 0.93771 0.72769 0.0
C98 C 0.37101 0.86233 0.8243 0.0
C99 C 0.40016 0.88748 0.73571 0.0
O100 O 0.44246 0.87192 0.84316 0.0
O101 O 0.46679 0.89644 0.81054 0.0
O102 O 0.43564 0.93787 0.78327 0.0
O103 O 0.39876 0.93777 0.80731 0.0
O104 O 0.40667 0.91196 0.85894 0.0
O105 O 0.36745 0.93307 0.84255 0.0
O106 O 0.34018 0.93583 0.76152 0.0
O107 O 0.32027 0.91464 0.80138 0.0
O108 O 0.3499 0.87757 0.82764 0.0
O109 O 0.38647 0.87207 0.80246 0.0
O110 O 0.37837 0.9009 0.74488 0.0
O111 O 0.41961 0.8814 0.75686 0.0
H112 H 0.51748 0.90194 0.83043 0.0
H113 H 0.55183 0.90659 0.87234 0.0
H114 H 0.49691 0.8715 0.94242 0.0
H115 H 0.46255 0.86641 0.90011 0.0
H116 H 0.28578 0.88245 0.77741 0.0
H117 H 0.24755 0.87092 0.7425 0.0
H118 H 0.26095 0.94459 0.68784 0.0
H119 H 0.29839 0.95651 0.72348 0.0
C120 C 0.3981 0.21919 0.08157 0.0
Eu121 Eu 0.37828 0.17397 0.05724 0.0
C122 C 0.39476 0.23738 0.11018 0.0
C123 C 0.36951 0.24103 0.12542 0.0
C124 C 0.36669 0.25935 0.15132 0.0
C125 C 0.38902 0.27454 0.16281 0.0
C126 C 0.41446 0.27008 0.14814 0.0
C127 C 0.41724 0.2518 0.12217 0.0
C128 C 0.32589 0.16534 1.03675 0.0
C129 C 0.34914 0.1399 0.11637 0.0
C130 C 0.3453 0.06779 1.03055 0.0
Eu131 Eu 0.36412 0.11473 0.04853 0.0
C132 C 0.3528 0.0452 1.0089 0.0
C133 C 0.37563 0.02885 1.015 0.0
C134 C 0.38166 1.00686 0.99486 0.0
C135 C 0.36497 1.00079 0.96831 0.0
C136 C 0.34236 0.01741 0.96211 0.0
C137 C 0.33628 0.03924 0.98228 0.0
C138 C 0.41244 0.12248 0.07818 0.0
C139 C 0.39088 0.1468 0.98655 0.0
O140 O 0.4084 0.19522 0.08688 0.0
O141 O 0.37849 0.21835 0.06029 0.0
O142 O 0.34062 0.18619 1.02868 0.0
O143 O 0.33907 0.15118 0.05655 0.0
O144 O 0.36425 0.1611 0.10822 0.0
O145 O 0.34207 0.12155 0.09486 0.0
O146 O 0.33813 0.09067 1.01683 0.0
O147 O 0.36024 0.07137 0.0563 0.0
O148 O 0.39646 0.10208 0.08317 0.0
O149 O 0.40371 0.13677 0.05473 0.0
O150 O 0.37817 0.12533 0.99817 0.0
O151 O 0.39539 0.16846 1.00518 0.0
H152 H 0.35187 0.22997 0.11705 0.0
H153 H 0.34683 0.26175 0.16221 0.0
H154 H 0.4321 0.28141 0.15595 0.0
H155 H 0.43699 0.24929 0.111 0.0
H156 H 0.38875 0.03285 1.03545 0.0
H157 H 0.39914 0.9944 1.00036 0.0
H158 H 0.32942 0.01372 0.94141 0.0
H159 H 0.31856 0.05148 0.97709 0.0
C160 C 0.05914 0.88225 0.24328 0.0
Eu161 Eu 0.10421 0.90209 0.26791 0.0
C162 C 0.04069 0.88473 0.2149 0.0
C163 C 0.03616 0.90964 0.19933 0.0
C164 C 0.01727 0.91162 0.17398 0.0
C165 C 1.00238 0.88875 0.16345 0.0
C166 C 1.00782 0.86364 0.17833 0.0
C167 C 0.02668 0.8617 0.20373 0.0
C168 C 0.11343 0.95454 0.28846 0.0
C169 C 0.13972 0.93098 0.20977 0.0
C170 C 0.21053 0.93141 0.29833 0.0
Eu171 Eu 0.16347 0.91459 0.27811 0.0
C172 C 0.232 0.92169 0.32022 0.0
C173 C 0.24114 0.89467 0.31937 0.0
C174 C 0.26219 0.88618 0.33966 0.0
C175 C 0.27439 0.9045 0.36129 0.0
C176 C 0.26477 0.9314 0.36236 0.0
C177 C 0.24391 0.93989 0.34194 0.0
C178 C 0.15532 0.86698 0.24696 0.0
C179 C 0.12953 0.88844 0.33923 0.0
O180 O 0.08316 0.872 0.23805 0.0
O181 O 0.05988 0.90222 0.26411 0.0
O182 O 0.09203 0.94028 0.29573 0.0
O183 O 0.12791 0.94083 0.2694 0.0
O184 O 0.11781 0.9167 0.21747 0.0
O185 O 0.15827 0.937 0.23154 0.0
O186 O 0.18761 0.93886 0.31175 0.0
O187 O 0.20705 0.91768 0.27159 0.0
O188 O 0.17618 0.88257 0.24312 0.0
O189 O 0.14073 0.87555 0.27036 0.0
O190 O 0.15182 0.89995 0.32803 0.0
O191 O 0.10794 0.88522 0.3202 0.0
H192 H 0.04689 0.92768 0.2071 0.0
H193 H 0.01407 0.93125 0.16285 0.0
H194 H 0.99672 0.84563 0.17124 0.0
H195 H 0.02987 0.8422 0.21522 0.0
H196 H 0.23216 0.88014 0.3029 0.0
H197 H 0.2691 0.86538 0.33812 0.0
H198 H 0.27311 0.94592 0.37931 0.0
H199 H 0.23706 0.96075 0.34313 0.0
C200 C 0.38976 0.79953 0.50311 0.0
Eu201 Eu 0.37262 0.84648 0.52549 0.0
C202 C 0.38889 0.78289 0.47294 0.0
C203 C 0.36534 0.78108 0.45393 0.0
C204 C 0.36429 0.76348 0.42719 0.0
C205 C 0.38676 0.74723 0.41859 0.0
C206 C 0.41069 0.75002 0.43685 0.0
C207 C 0.41168 0.76755 0.46371 0.0
C208 C 0.32081 0.85871 0.54543 0.0
C209 C 0.34636 0.88139 0.46518 0.0
C210 C 0.34789 0.95484 0.55042 0.0
Eu211 Eu 0.36305 0.90659 0.53239 0.0
C212 C 0.35689 0.97624 0.57296 0.0
C213 C 0.38328 0.98713 0.57158 0.0
C214 C 0.39094 1.00809 0.59248 0.0
C215 C 0.37242 0.01852 0.61523 0.0
C216 C 0.34619 1.00722 0.61681 0.0
C217 C 0.33851 0.98643 0.5958 0.0
C218 C 0.41047 0.89469 0.50263 0.0
C219 C 0.38626 0.87348 0.59585 0.0
O220 O 0.40423 0.82172 0.50247 0.0
O221 O 0.36716 0.80273 0.51929 0.0
O222 O 0.3345 0.83758 0.55487 0.0
O223 O 0.33501 0.87184 0.52535 0.0
O224 O 0.35972 0.85925 0.47407 0.0
O225 O 0.341 0.90093 0.48589 0.0
O226 O 0.33818 0.93255 0.56335 0.0
O227 O 0.36327 0.95022 0.52517 0.0
O228 O 0.39642 0.9163 0.49702 0.0
O229 O 0.40072 0.88173 0.52664 0.0
O230 O 0.37666 0.89605 0.58308 0.0
O231 O 0.38817 0.85091 0.57819 0.0
H232 H 0.34753 0.79286 0.46011 0.0
H233 H 0.34562 0.7623 0.41348 0.0
H234 H 0.42833 0.73779 0.43125 0.0
H235 H 0.43014 0.76859 0.47786 0.0
H236 H 0.39795 0.97962 0.55422 0.0
H237 H 0.41123 0.01638 0.59048 0.0
H238 H 0.33159 0.01424 0.63453 0.0
H239 H 0.31811 0.9783 0.59739 0.0
C240 C 0.48059 0.13079 0.75469 0.0
Eu241 Eu 0.43193 0.11889 0.77611 0.0
C242 C 0.49594 0.1342 0.72373 0.0
C243 C 0.50107 0.11207 0.70311 0.0
C244 C 0.51794 0.11495 0.6759 0.0
C245 C 0.53019 0.14005 0.66837 0.0
C246 C 0.52434 0.16237 0.68853 0.0
C247 C 0.50751 0.15945 0.71583 0.0
C248 C 0.41525 0.07024 0.80167 0.0
C249 C 0.39573 0.0943 0.71695 0.0
C250 C 0.31991 0.10532 0.79118 0.0
Eu251 Eu 0.37144 0.11628 0.78474 0.0
C252 C 0.29709 0.11246 0.81302 0.0
C253 C 0.28227 0.13664 0.80913 0.0
C254 C 0.26066 0.1428 0.83001 0.0
C255 C 0.25335 0.12484 0.85504 0.0
C256 C 0.26818 0.10065 0.85869 0.0
C257 C 0.28959 0.09448 0.83785 0.0
C258 C 0.39072 0.1659 0.76443 0.0
C259 C 0.40633 0.13284 0.84694 0.0
O260 O 0.4625 0.1492 0.76226 0.0
O261 O 0.47276 0.10629 0.7626 0.0
O262 O 0.43711 0.08319 0.81027 0.0
O263 O 0.40309 0.08412 0.78044 0.0
O264 O 0.42031 0.10105 0.72711 0.0
O265 O 0.37395 0.09785 0.7351 0.0
O266 O 0.33928 0.09055 0.80373 0.0
O267 O 0.32923 0.12415 0.77176 0.0
O268 O 0.37188 0.16282 0.78619 0.0
O269 O 0.39836 0.14277 0.75558 0.0
O270 O 0.38475 0.11967 0.8367 0.0
O271 O 0.4263 0.13904 0.82646 0.0
H272 H 0.49266 0.09225 0.7084 0.0
H273 H 0.52218 0.09711 0.6615 0.0
H274 H 0.533 0.18212 0.68345 0.0
H275 H 0.50404 0.17688 0.73125 0.0
H276 H 0.28732 0.15082 0.79 0.0
H277 H 0.24956 0.16149 0.82637 0.0
H278 H 0.26358 0.08657 0.87808 0.0
H279 H 0.30042 0.07559 0.84136 0.0
C280 C 0.14248 0.22858 0.99679 0.0
Eu281 Eu 0.15741 0.18173 1.02079 0.0
C282 C 0.14026 0.24285 0.96496 0.0
C283 C 0.16346 0.25077 0.94734 0.0
C284 C 0.16117 0.26683 0.91937 0.0
C285 C 0.13563 0.2755 0.90815 0.0
C286 C 0.11239 0.26667 0.92517 0.0
C287 C 0.1147 0.25067 0.95319 0.0
C288 C 0.20774 0.16774 0.0433 0.0
C289 C 0.18174 0.14364 0.96197 0.0
C290 C 0.18682 0.07177 0.04818 0.0
Eu291 Eu 0.1668 0.11846 1.03181 0.0
C292 C 0.17825 0.04793 0.06709 0.0
C293 C 0.15201 0.03696 0.06437 0.0
C294 C 0.14425 0.01475 0.08342 0.0
C295 C 0.16252 1.00326 0.10565 0.0
C296 C 0.18877 0.0144 0.10812 0.0
C297 C 0.19655 0.03638 0.08895 0.0
C298 C 0.11531 0.12827 1.00887 0.0
C299 C 0.14507 0.15592 0.09242 0.0
O300 O 0.12541 0.20885 1.00302 0.0
O301 O 0.16683 0.22353 1.00777 0.0
O302 O 0.1948 0.18982 0.05117 0.0
O303 O 0.19347 0.15445 1.02344 0.0
O304 O 0.17024 0.16695 0.97045 0.0
O305 O 0.18523 0.1234 0.98253 0.0
O306 O 0.19112 0.09406 0.06475 0.0
O307 O 0.17433 0.07606 1.02065 0.0
O308 O 0.12423 0.10428 1.0162 0.0
O309 O 0.13358 0.14474 1.01683 0.0
O310 O 0.15704 0.13342 0.08236 0.0
O311 O 0.14032 0.17684 0.07263 0.0
H312 H 0.18354 0.24525 0.95562 0.0
H313 H 0.1796 0.27336 0.90735 0.0
H314 H 0.09232 0.27244 0.91714 0.0
H315 H 0.09642 0.24496 0.96615 0.0
H316 H 0.13744 0.04565 0.04775 0.0
H317 H 0.12395 1.00664 0.08077 0.0
H318 H 0.20321 1.00663 0.12553 0.0
H319 H 0.21679 0.04468 0.09159 0.0
C320 C 0.82152 0.93329 0.80175 0.0
Eu321 Eu 0.86817 0.91504 0.78173 0.0
C322 C 0.79876 0.92469 0.82255 0.0
C323 C 0.78507 0.89999 0.81749 0.0
C324 C 0.76279 0.89292 0.83678 0.0
C325 C 0.75384 0.91038 0.86147 0.0
C326 C 0.76791 0.93487 0.86668 0.0
C327 C 0.79002 0.94198 0.84732 0.0
C328 C 0.87433 0.86615 0.75217 0.0
C329 C 0.90329 0.89067 0.84227 0.0
C330 C 0.97047 0.87983 0.74291 0.0
Eu331 Eu 0.92658 0.90078 0.76923 0.0
C332 C 0.9884 0.88281 0.71407 0.0
C333 C 0.99092 0.90753 0.69743 0.0
C334 C 1.00889 0.91001 0.6711 0.0
C335 C 0.02477 0.88781 0.66063 0.0
C336 C 0.02141 0.86284 0.67674 0.0
C337 C 1.00349 0.86042 0.70313 0.0
C338 C 0.91948 0.9534 0.7902 0.0
C339 C 0.89095 0.93133 0.7127 0.0
O340 O 0.84447 0.93902 0.81613 0.0
O341 O 0.82488 0.92011 0.77462 0.0
O342 O 0.85388 0.88217 0.74845 0.0
O343 O 0.88967 0.87515 0.77449 0.0
O344 O 0.88175 0.90412 0.83236 0.0
O345 O 0.92307 0.88409 0.82163 0.0
O346 O 0.94596 0.87078 0.73774 0.0
O347 O 0.97085 0.89909 0.76469 0.0
O348 O 0.94058 0.93855 0.79672 0.0
O349 O 0.90432 0.94018 0.77148 0.0
O350 O 0.91215 0.91571 0.7192 0.0
O351 O 0.8736 0.93809 0.73561 0.0
H352 H 0.79142 0.88621 0.79852 0.0
H353 H 0.75238 0.87397 0.8321 0.0
H354 H 0.76206 0.94849 0.88603 0.0
H355 H 0.8003 0.96107 0.85169 0.0
H356 H 0.97925 0.92503 0.70504 0.0
H357 H 1.01051 0.92947 0.65907 0.0
H358 H 0.03334 0.84537 0.66972 0.0
H359 H 1.00179 0.84107 0.71542 0.0
C360 C 0.85378 0.07023 0.54444 0.0
Eu361 Eu 0.86874 0.11955 0.53008 0.0
C362 C 0.86204 0.04748 0.56507 0.0
C363 C 0.88346 0.05001 0.58716 0.0
C364 C 0.89038 0.0282 0.60723 0.0
C365 C 0.87598 1.00357 0.6054 0.0
C366 C 0.85517 1.00096 0.58235 0.0
C367 C 0.84826 0.02274 0.56242 0.0
C368 C 0.91542 0.13318 0.49975 0.0
C369 C 0.89187 0.15183 0.59408 0.0
C370 C 0.89045 0.22899 0.50585 0.0
Eu371 Eu 0.8765 0.17996 0.52511 0.0
C372 C 0.891 0.24589 0.47597 0.0
C373 C 0.90284 0.2718 0.47687 0.0
C374 C 0.90252 0.28877 0.44952 0.0
C375 C 0.89029 0.2803 0.42038 0.0
C376 C 0.87891 0.25399 0.41945 0.0
C377 C 0.87923 0.23704 0.44688 0.0
C378 C 0.82541 0.16512 0.5457 0.0
C379 C 0.85219 0.14612 0.46369 0.0
O380 O 0.84421 0.09177 0.55909 0.0
O381 O 0.87019 0.07619 0.5206 0.0
O382 O 0.90177 0.1113 0.4941 0.0
O383 O 0.90581 0.14564 0.52421 0.0
O384 O 0.88292 0.12912 0.58089 0.0
O385 O 0.89261 0.17485 0.5772 0.0
O386 O 0.90726 0.20858 0.50742 0.0
O387 O 0.86665 0.22279 0.51767 0.0
O388 O 0.83891 0.18593 0.55646 0.0
O389 O 0.83962 0.15348 0.52445 0.0
O390 O 0.86581 0.16788 0.47304 0.0
O391 O 0.84633 0.12645 0.48407 0.0
H392 H 0.89446 0.06895 0.58922 0.0
H393 H 0.90628 0.03096 0.62499 0.0
H394 H 0.8439 0.98218 0.58011 0.0
H395 H 0.83189 0.02038 0.54518 0.0
H396 H 0.91199 0.27916 0.49902 0.0
H397 H 0.91113 0.3089 0.45162 0.0
H398 H 0.86963 0.24644 0.3975 0.0
H399 H 0.86998 0.21715 0.44543 0.0
C400 C 0.71048 0.09879 0.30535 0.0
Eu401 Eu 0.66408 0.11688 0.28468 0.0
C402 C 0.73318 0.10834 0.32533 0.0
C403 C 0.74288 0.13511 0.3231 0.0
C404 C 0.7652 0.14337 0.3415 0.0
C405 C 0.77808 0.12502 0.36251 0.0
C406 C 0.76793 0.09837 0.36492 0.0
C407 C 0.7458 0.09011 0.3464 0.0
C408 C 0.65767 0.16582 0.25541 0.0
C409 C 0.62788 0.14192 0.34363 0.0
C410 C 0.56141 0.1505 0.24465 0.0
Eu411 Eu 0.60552 0.13037 0.27077 0.0
C412 C 0.54115 0.14592 0.21839 0.0
C413 C 0.5146 0.13807 0.22647 0.0
C414 C 0.49473 0.1352 0.20253 0.0
C415 C 0.5007 0.14017 0.16966 0.0
C416 C 0.5272 0.14846 0.16153 0.0
C417 C 0.54719 0.15129 0.18558 0.0
C418 C 0.61302 0.07753 0.29122 0.0
C419 C 0.6426 0.10132 0.21477 0.0
O420 O 0.68751 0.09393 0.32026 0.0
O421 O 0.70724 0.11095 0.27752 0.0
O422 O 0.67885 0.15058 0.25272 0.0
O423 O 0.64194 0.15624 0.27701 0.0
O424 O 0.64954 0.12808 0.33489 0.0
O425 O 0.60859 0.14811 0.32238 0.0
O426 O 0.58601 0.15759 0.23628 0.0
O427 O 0.5612 0.13403 0.26954 0.0
O428 O 0.59148 0.09194 0.297 0.0
O429 O 0.62845 0.09129 0.27332 0.0
O430 O 0.62087 0.11624 0.221 0.0
O431 O 0.65972 0.09462 0.23788 0.0
H432 H 0.73334 0.14959 0.30702 0.0
H433 H 0.77249 0.164 0.33906 0.0
H434 H 0.77682 0.08389 0.38152 0.0
H435 H 0.73851 0.06944 0.34856 0.0
H436 H 0.50905 0.13439 0.25149 0.0
H437 H 0.47447 0.1293 0.20993 0.0
H438 H 0.53262 0.15234 0.13653 0.0
H439 H 0.56733 0.15779 0.17844 0.0
C440 C 0.68309 0.95813 0.05245 0.0
Eu441 Eu 0.66433 0.9116 1.03277 0.0
C442 C 0.67517 0.98072 0.07385 0.0
C443 C 0.65163 0.99612 0.06812 0.0
C444 C 0.64535 0.0183 0.08785 0.0
C445 C 0.66246 0.02547 0.11363 0.0
C446 C 0.68574 1.0097 0.11953 0.0
C447 C 0.69208 0.98769 0.09975 0.0
C448 C 0.61522 0.90503 1.0041 0.0
C449 C 0.63899 0.87676 0.09284 0.0
C450 C 0.62992 0.80849 0.99532 0.0
Eu451 Eu 0.65036 0.85296 1.02045 0.0
C452 C 0.63395 0.78804 0.96905 0.0
C453 C 0.64106 0.76131 0.97714 0.0
C454 C 0.64324 0.74126 0.95324 0.0
C455 C 0.63828 0.74721 0.92038 0.0
C456 C 0.6308 0.77392 0.91225 0.0
C457 C 0.62867 0.79408 0.93626 0.0
C458 C 0.70339 0.86065 0.04006 0.0
C459 C 0.67895 0.8891 0.96307 0.0
O460 O 0.68933 0.93505 0.06629 0.0
O461 O 0.66906 0.95497 1.02591 0.0
O462 O 0.63083 0.92587 1.00046 0.0
O463 O 0.62465 0.88962 1.02609 0.0
O464 O 0.65304 0.89811 0.08337 0.0
O465 O 0.6326 0.85708 0.07213 0.0
O466 O 0.62259 0.83299 0.98699 0.0
O467 O 0.64687 0.80856 1.01968 0.0
O468 O 0.6889 0.8393 0.04666 0.0
O469 O 0.68964 0.87573 1.02183 0.0
O470 O 0.66413 0.86744 0.97011 0.0
O471 O 0.68591 0.90668 0.98557 0.0
H472 H 0.63818 0.99125 0.04826 0.0
H473 H 0.62735 0.03006 0.0826 0.0
H474 H 0.69902 0.0142 0.13968 0.0
H475 H 0.71031 0.97613 0.10463 0.0
H476 H 0.64466 0.75578 1.00216 0.0
H477 H 0.64855 0.72087 0.96067 0.0
H478 H 0.62699 0.77936 0.88727 0.0
H479 H 0.62276 0.81435 0.92908 0.0
C480 C 0.82411 0.09374 0.76966 0.0
Eu481 Eu 0.87051 0.11135 0.79112 0.0
C482 C 0.80156 0.10364 0.74964 0.0
C483 C 0.79157 0.13022 0.75276 0.0
C484 C 0.76933 0.13873 0.73439 0.0
C485 C 0.75681 0.12085 0.71252 0.0
C486 C 0.76729 0.09442 0.70916 0.0
C487 C 0.78934 0.0859 0.72764 0.0
C488 C 0.8768 0.16024 0.82048 0.0
C489 C 0.90721 0.13635 0.7327 0.0
C490 C 0.97354 0.14404 0.83164 0.0
Eu491 Eu 0.92898 0.12438 0.80574 0.0
C492 C 0.99331 0.14051 0.85848 0.0
C493 C 0.02004 0.14973 0.85432 0.0
C494 C 0.03874 0.14868 0.87986 0.0
C495 C 0.03123 0.13836 0.91043 0.0
C496 C 1.00441 0.12878 0.9144 0.0
C497 C 0.98567 0.12989 0.88877 0.0
C498 C 0.92104 0.07178 0.7847 0.0
C499 C 0.89094 0.09574 0.8612 0.0
O500 O 0.84715 0.08902 0.75488 0.0
O501 O 0.82725 0.10544 0.79777 0.0
O502 O 0.85562 0.14495 0.82293 0.0
O503 O 0.89282 0.15073 0.79912 0.0
O504 O 0.88562 0.12228 0.74115 0.0
O505 O 0.92628 0.14264 0.75423 0.0
O506 O 0.94906 0.15184 0.8394 0.0
O507 O 0.97353 0.12631 0.8081 0.0
O508 O 0.94268 0.08609 0.77896 0.0
O509 O 0.90574 0.08545 0.8028 0.0
O510 O 0.91271 0.11081 0.85544 0.0
O511 O 0.87438 0.08875 0.83766 0.0
H512 H 0.80079 0.14434 0.76955 0.0
H513 H 0.76178 0.15918 0.73759 0.0
H514 H 0.75867 0.08032 0.69191 0.0
H515 H 0.79685 0.06539 0.72477 0.0
H516 H 0.02644 0.15811 0.83126 0.0
H517 H 0.05922 0.15576 0.87547 0.0
H518 H 0.99768 0.12088 0.93753 0.0
H519 H 0.96512 0.12279 0.89278 0.0
C520 C 0.6773 0.07039 0.52932 0.0
Eu521 Eu 0.66369 0.1196 0.54564 0.0
C522 C 0.6673 0.04827 0.50877 0.0
C523 C 0.64806 0.05295 0.48445 0.0
C524 C 0.63926 0.0316 0.46476 0.0
C525 C 0.64952 1.00522 0.46924 0.0
C526 C 0.66804 1.00056 0.4945 0.0
C527 C 0.67686 0.02191 0.51404 0.0
C528 C 0.61633 0.13308 0.57438 0.0
C529 C 0.64179 0.15432 0.48279 0.0
C530 C 0.63962 0.22705 0.5765 0.0
Eu531 Eu 0.65603 0.18014 0.55342 0.0
C532 C 0.64073 0.24331 0.60691 0.0
C533 C 0.66405 0.24403 0.6264 0.0
C534 C 0.66529 0.26113 0.65358 0.0
C535 C 0.64323 0.27795 0.66213 0.0
C536 C 0.61949 0.27626 0.64333 0.0
C537 C 0.61831 0.25922 0.61605 0.0
C538 C 0.7074 0.1663 0.5331 0.0
C539 C 0.68122 0.14419 0.61312 0.0
O540 O 0.68663 0.09208 0.51464 0.0
O541 O 0.66229 0.07613 0.55449 0.0
O542 O 0.62956 0.11107 0.58042 0.0
O543 O 0.62703 0.14584 0.5509 0.0
O544 O 0.65063 0.13116 0.49494 0.0
O545 O 0.64061 0.17669 0.50083 0.0
O546 O 0.62485 0.20503 0.57695 0.0
O547 O 0.66216 0.22374 0.5602 0.0
O548 O 0.69442 0.18807 0.52422 0.0
O549 O 0.69277 0.15351 0.55307 0.0
O550 O 0.66846 0.16672 0.60459 0.0
O551 O 0.68606 0.12474 0.59208 0.0
H552 H 0.64021 0.07316 0.48039 0.0
H553 H 0.62523 0.03595 0.44529 0.0
H554 H 0.67608 0.98044 0.49883 0.0
H555 H 0.69142 0.01789 0.53306 0.0
H556 H 0.68154 0.23175 0.62029 0.0
H557 H 0.68379 0.2615 0.66767 0.0
H558 H 0.60218 0.28897 0.64887 0.0
H559 H 0.60003 0.259 0.60155 0.0
C560 C 0.70631 0.93047 0.27801 0.0
Eu561 Eu 0.65745 0.91645 0.29525 0.0
C562 C 0.72811 0.92101 0.25628 0.0
C563 C 0.73801 0.89426 0.25751 0.0
C564 C 0.75944 0.88623 0.2374 0.0
C565 C 0.77131 0.90476 0.21567 0.0
C566 C 0.76095 0.93135 0.21422 0.0
C567 C 0.73971 0.93938 0.23441 0.0
C568 C 0.64398 0.86963 0.32528 0.0
C569 C 0.62426 0.89342 0.23186 0.0
C570 C 0.54915 0.89296 0.32313 0.0
Eu571 Eu 0.59699 0.90846 0.30165 0.0
C572 C 0.53274 0.8918 0.35362 0.0
C573 C 0.52422 0.91545 0.36975 0.0
C574 C 0.50684 0.91394 0.39673 0.0
C575 C 0.49741 0.88872 0.40849 0.0
C576 C 0.5065 0.86506 0.3927 0.0
C577 C 0.52386 0.8666 0.36569 0.0
C578 C 0.61113 0.95946 0.28053 0.0
C579 C 0.63198 0.93424 0.36194 0.0
O580 O 0.68446 0.94025 0.26428 0.0
O581 O 0.70094 0.91549 0.30339 0.0
O582 O 0.66597 0.8831 0.33091 0.0
O583 O 0.63144 0.87954 0.30117 0.0
O584 O 0.64705 0.90241 0.24472 0.0
O585 O 0.60141 0.89255 0.24918 0.0
O586 O 0.57004 0.87677 0.32076 0.0
O587 O 0.55394 0.91668 0.31014 0.0
O588 O 0.58986 0.94608 0.2708 0.0
O589 O 0.62334 0.94532 0.30136 0.0
O590 O 0.60995 0.92058 0.35327 0.0
O591 O 0.65148 0.93948 0.34102 0.0
H592 H 0.72935 0.8796 0.27414 0.0
H593 H 0.76694 0.86564 0.23919 0.0
H594 H 0.76904 0.94599 0.19718 0.0
H595 H 0.73233 0.96005 0.23295 0.0
H596 H 0.53049 0.93525 0.36114 0.0
H597 H 0.5001 0.9327 0.40769 0.0
H598 H 0.5001 0.84525 0.40109 0.0
H599 H 0.52997 0.84799 0.35382 0.0
C600 C 0.84515 0.95746 1.02808 0.0
Eu601 Eu 0.86195 0.90962 0.04551 0.0
C602 C 0.85357 0.97956 1.00606 0.0
C603 C 0.87554 0.99672 1.0136 0.0
C604 C 0.88257 0.01816 0.99301 0.0
C605 C 0.86768 0.02293 0.96465 0.0
C606 C 0.84593 1.00556 0.95703 0.0
C607 C 0.83888 0.98423 0.97758 0.0
C608 C 0.90958 0.9008 0.07639 0.0
C609 C 0.88763 0.87779 0.98252 0.0
C610 C 0.89333 0.80476 0.07603 0.0
Eu611 Eu 0.87419 0.85061 0.05288 0.0
C612 C 0.89038 0.78657 0.10463 0.0
C613 C 0.86543 0.78321 0.12064 0.0
C614 C 0.86295 0.76484 0.14652 0.0
C615 C 0.88535 0.74942 0.15719 0.0
C616 C 0.91053 0.75364 0.14183 0.0
C617 C 0.91296 0.77194 0.11584 0.0
C618 C 0.82186 0.8605 1.03244 0.0
C619 C 0.84508 0.88386 0.1126 0.0
O620 O 0.83643 0.93496 1.01477 0.0
O621 O 0.86038 0.95311 0.05341 0.0
O622 O 0.89342 0.92092 0.08174 0.0
O623 O 0.90128 0.88697 0.0522 0.0
O624 O 0.8762 0.89969 0.99481 0.0
O625 O 0.89098 0.8557 1.0007 0.0
O626 O 0.90449 0.82839 0.08106 0.0
O627 O 0.87308 0.80625 0.05569 0.0
O628 O 0.83629 0.83963 1.02375 0.0
O629 O 0.8354 0.87401 0.05257 0.0
O630 O 0.85939 0.86229 0.10397 0.0
O631 O 0.83928 0.90311 0.09166 0.0
H632 H 0.8872 0.99379 1.03551 0.0
H633 H 0.89933 0.03125 0.99957 0.0
H634 H 0.83439 1.00833 0.93499 0.0
H635 H 0.82183 0.97142 0.97122 0.0
H636 H 0.84775 0.79448 0.11286 0.0
H637 H 0.84331 0.76252 0.15802 0.0
H638 H 0.92817 0.74207 0.14906 0.0
H639 H 0.93248 0.77427 0.10404 0.0
C640 C 0.55716 0.64541 0.8337 0.0
Eu641 Eu 0.60154 0.62511 0.80785 0.0
C642 C 0.53916 0.64276 0.86249 0.0
C643 C 0.53614 0.61809 0.87911 0.0
C644 C 0.51774 0.61584 0.90503 0.0
C645 C 0.50192 0.63821 0.91506 0.0
C646 C 0.50585 0.66314 0.89909 0.0
C647 C 0.5242 0.66534 0.87311 0.0
C648 C 0.60949 0.57294 0.7859 0.0
C649 C 0.63765 0.59524 0.86427 0.0
C650 C 0.70678 0.59349 0.77464 0.0
Eu651 Eu 0.6605 0.6118 0.79548 0.0
C652 C 0.72894 0.60187 0.75276 0.0
C653 C 0.74441 0.62537 0.75865 0.0
C654 C 0.76616 0.63214 0.73839 0.0
C655 C 0.77282 0.61557 0.71189 0.0
C656 C 0.75697 0.59235 0.70581 0.0
C657 C 0.73539 0.58551 0.72613 0.0
C658 C 0.6534 0.65934 0.82719 0.0
C659 C 0.62645 0.64002 0.73644 0.0
O660 O 0.58142 0.65522 0.83857 0.0
O661 O 0.55728 0.62562 0.8126 0.0
O662 O 0.58816 0.58753 0.77965 0.0
O663 O 0.62451 0.58616 0.8048 0.0
O664 O 0.61607 0.61032 0.8578 0.0
O665 O 0.65521 0.58879 0.84148 0.0
O666 O 0.68354 0.58708 0.76126 0.0
O667 O 0.70394 0.60729 0.80146 0.0
O668 O 0.67411 0.64352 0.83061 0.0
O669 O 0.63845 0.65094 0.80418 0.0
O670 O 0.6489 0.62818 0.7464 0.0
O671 O 0.60508 0.64274 0.75604 0.0
H672 H 0.54767 0.60043 0.87174 0.0
H673 H 0.51566 0.59639 0.917 0.0
H674 H 0.49397 0.68073 0.90581 0.0
H675 H 0.52626 0.68465 0.86079 0.0
H676 H 0.73994 0.63841 0.77906 0.0
H677 H 0.778 0.65009 0.74379 0.0
H678 H 0.76109 0.57949 0.68513 0.0
H679 H 0.72377 0.56733 0.72108 0.0
C680 C 0.63173 0.30718 0.07842 0.0
Eu681 Eu 0.65129 0.35295 0.05544 0.0
C682 C 0.63527 0.28791 0.10605 0.0
C683 C 0.6447 0.26153 0.10004 0.0
C684 C 0.64722 0.24264 0.12524 0.0
C685 C 0.64027 0.24946 0.15736 0.0
C686 C 0.63035 0.27576 0.16337 0.0
C687 C 0.62792 0.29477 0.13807 0.0
C688 C 0.70364 0.36165 1.03444 0.0
C689 C 0.68094 0.38536 0.11514 0.0
C690 C 0.68264 0.45981 1.03244 0.0
Eu691 Eu 0.66499 0.41176 0.04829 0.0
C692 C 0.67355 0.48244 1.01222 0.0
C693 C 0.65097 0.47971 0.99189 0.0
C694 C 0.64288 0.50135 0.97227 0.0
C695 C 0.65716 0.52608 0.97296 0.0
C696 C 0.67906 0.52896 0.99449 0.0
C697 C 0.68722 0.50727 1.01388 0.0
C698 C 0.61708 0.4035 0.07912 0.0
C699 C 0.63904 0.38051 0.98522 0.0
O700 O 0.62144 0.33103 0.0846 0.0
O701 O 0.65096 0.30842 0.05658 0.0
O702 O 0.68863 0.34119 1.02592 0.0
O703 O 0.69074 0.37555 0.05486 0.0
O704 O 0.66583 0.36433 0.10659 0.0
O705 O 0.68775 0.40423 0.09409 0.0
O706 O 0.68995 0.43762 1.01735 0.0
O707 O 0.66772 0.45499 0.05793 0.0
O708 O 0.6335 0.4234 0.08449 0.0
O709 O 0.62518 0.3898 0.0548 0.0
O710 O 0.6514 0.40197 0.99738 0.0
O711 O 0.63441 0.35874 1.00358 0.0
H712 H 0.65003 0.25538 0.07566 0.0
H713 H 0.65446 0.22249 0.11943 0.0
H714 H 0.62494 0.28183 0.18774 0.0
H715 H 0.62026 0.31482 0.14364 0.0
H716 H 0.63991 0.46074 0.99085 0.0
H717 H 0.62614 0.49835 0.95572 0.0
H718 H 0.69024 0.54786 0.9959 0.0
H719 H 0.70441 0.5098 1.02992 0.0
C720 C 0.97569 0.38689 0.31818 0.0
Eu721 Eu 0.92753 0.40302 0.29989 0.0
C722 C 0.99182 0.38281 0.34808 0.0
C723 C 0.98763 0.39867 0.37595 0.0
C724 C 1.00528 0.39656 0.40252 0.0
C725 C 0.02755 0.37865 0.40171 0.0
C726 C 0.03078 0.36193 0.37433 0.0
C727 C 1.01314 0.36401 0.34788 0.0
C728 C 0.91201 0.45385 0.28001 0.0
C729 C 0.89348 0.4264 0.36275 0.0
C730 C 0.81644 0.43218 0.28227 0.0
Eu731 Eu 0.86375 0.41224 0.29582 0.0
C732 C 0.79284 0.42343 0.26315 0.0
C733 C 0.78413 0.39627 0.26297 0.0
C734 C 0.76265 0.38817 0.24305 0.0
C735 C 0.74967 0.40704 0.22275 0.0
C736 C 0.75843 0.43426 0.22334 0.0
C737 C 0.77969 0.44234 0.24341 0.0
C738 C 0.87521 0.36109 0.31869 0.0
C739 C 0.89665 0.38965 0.23153 0.0
O740 O 0.95552 0.3702 0.31278 0.0
O741 O 0.96989 0.41193 0.31034 0.0
O742 O 0.93349 0.44106 0.26965 0.0
O743 O 0.90011 0.43905 0.30068 0.0
O744 O 0.91628 0.41536 0.3517 0.0
O745 O 0.87175 0.42995 0.34459 0.0
O746 O 0.83839 0.43792 0.26554 0.0
O747 O 0.82149 0.4186 0.30891 0.0
O748 O 0.85076 0.37009 0.31413 0.0
O749 O 0.89103 0.37915 0.30822 0.0
O750 O 0.8746 0.40037 0.24463 0.0
O751 O 0.91953 0.3866 0.24838 0.0
H752 H 0.9713 0.41333 0.37676 0.0
H753 H 1.00226 0.40992 0.42302 0.0
H754 H 0.04744 0.34766 0.37298 0.0
H755 H 0.01671 0.35147 0.32676 0.0
H756 H 0.79415 0.38122 0.27785 0.0
H757 H 0.75637 0.36712 0.24341 0.0
H758 H 0.74949 0.44928 0.2075 0.0
H759 H 0.7863 0.46332 0.24295 0.0
C760 C 0.89514 0.71997 0.58069 0.0
Eu761 Eu 0.87539 0.67573 0.55388 0.0
C762 C 0.89205 0.73823 0.6092 0.0
C763 C 0.86685 0.74262 0.62421 0.0
C764 C 0.86442 0.76118 0.64992 0.0
C765 C 0.88713 0.77585 0.66135 0.0
C766 C 0.91248 0.77062 0.64689 0.0
C767 C 0.91487 0.7521 0.62116 0.0
C768 C 0.82254 0.66749 0.53397 0.0
C769 C 0.84732 0.63757 0.60959 0.0
C770 C 0.84602 0.57041 0.51842 0.0
Eu771 Eu 0.86306 0.61724 0.53935 0.0
C772 C 0.85592 0.54779 0.49848 0.0
C773 C 0.88313 0.53932 0.49962 0.0
C774 C 0.89168 0.51682 0.48166 0.0
C775 C 0.87317 0.50251 0.4622 0.0
C776 C 0.84608 0.51149 0.46079 0.0
C777 C 0.83755 0.53382 0.47885 0.0
C778 C 0.91191 0.62428 0.56864 0.0
C779 C 0.88649 0.65445 0.48018 0.0
O780 O 0.90451 0.69564 0.58609 0.0
O781 O 0.87603 0.72 0.55874 0.0
O782 O 0.83681 0.68911 0.52788 0.0
O783 O 0.83654 0.65203 0.55151 0.0
O784 O 0.86203 0.65952 0.60361 0.0
O785 O 0.8406 0.62074 0.58617 0.0
O786 O 0.84082 0.59328 0.50355 0.0
O787 O 0.85809 0.57391 0.54622 0.0
O788 O 0.89681 0.60299 0.5713 0.0
O789 O 0.90221 0.63994 0.54708 0.0
O790 O 0.87367 0.63221 0.48912 0.0
O791 O 0.89208 0.67398 0.50145 0.0
H792 H 0.84896 0.73199 0.6158 0.0
H793 H 0.8446 0.76421 0.66069 0.0
H794 H 0.93039 0.78156 0.65464 0.0
H795 H 0.93458 0.74902 0.61009 0.0
H796 H 0.8977 0.54992 0.51461 0.0
H797 H 0.91265 0.51047 0.48329 0.0
H798 H 0.83142 0.50148 0.44536 0.0
H799 H 0.81653 0.54013 0.47755 0.0
C800 C 0.55826 0.38025 0.74663 0.0
Eu801 Eu 0.60243 0.40144 0.77174 0.0
C802 C 0.53797 0.38367 0.72006 0.0
C803 C 0.5141 0.39863 0.72517 0.0
C804 C 0.49411 0.40021 0.70116 0.0
C805 C 0.49724 0.38683 0.67117 0.0
C806 C 0.52103 0.37162 0.66614 0.0
C807 C 0.54108 0.37003 0.69026 0.0
C808 C 0.60944 0.45453 0.79116 0.0
C809 C 0.63805 0.43072 0.71423 0.0
C810 C 0.70743 0.434 0.80323 0.0
Eu811 Eu 0.66066 0.41581 0.78361 0.0
C812 C 0.73042 0.42399 0.8224 0.0
C813 C 0.7396 0.3971 0.81964 0.0
C814 C 0.76184 0.38822 0.83774 0.0
C815 C 0.77515 0.40604 0.85902 0.0
C816 C 0.76562 0.43288 0.86182 0.0
C817 C 0.74357 0.44175 0.84359 0.0
C818 C 0.65472 0.36632 0.75542 0.0
C819 C 0.62541 0.39254 0.84468 0.0
O820 O 0.58286 0.37314 0.7385 0.0
O821 O 0.5581 0.39748 0.77075 0.0
O822 O 0.58821 0.43985 0.79778 0.0
O823 O 0.62478 0.44103 0.77293 0.0
O824 O 0.61664 0.41552 0.72129 0.0
O825 O 0.65546 0.43791 0.73679 0.0
O826 O 0.68475 0.43843 0.81887 0.0
O827 O 0.70363 0.4224 0.7752 0.0
O828 O 0.67532 0.38219 0.75173 0.0
O829 O 0.63919 0.37567 0.7774 0.0
O830 O 0.64659 0.40652 0.83454 0.0
O831 O 0.60615 0.38487 0.82405 0.0
H832 H 0.51061 0.40887 0.748 0.0
H833 H 0.47587 0.41161 0.70642 0.0
H834 H 0.5243 0.36113 0.64345 0.0
H835 H 0.55896 0.35786 0.68564 0.0
H836 H 0.72964 0.38297 0.80347 0.0
H837 H 0.76867 0.36748 0.83496 0.0
H838 H 0.77485 0.44698 0.87861 0.0
H839 H 0.73667 0.46251 0.84618 0.0
C840 C 0.89397 0.30123 0.99761 0.0
Eu841 Eu 0.87408 0.34673 1.02062 0.0
C842 C 0.89215 0.28379 0.9683 0.0
C843 C 0.86856 0.28273 0.94934 0.0
C844 C 0.86696 0.26512 0.92266 0.0
C845 C 0.88894 0.24817 0.91415 0.0
C846 C 0.91286 0.25007 0.93256 0.0
C847 C 0.9144 0.26762 0.95932 0.0
C848 C 0.82182 0.3578 0.03948 0.0
C849 C 0.84803 0.38186 0.96054 0.0
C850 C 0.84659 0.45563 0.04438 0.0
Eu851 Eu 0.86279 0.40703 1.02881 0.0
C852 C 0.85458 0.47798 0.06569 0.0
C853 C 0.87532 0.47486 0.08857 0.0
C854 C 0.88241 0.4965 0.10877 0.0
C855 C 0.86882 0.52151 0.10633 0.0
C856 C 0.84857 0.52464 0.08268 0.0
C857 C 0.84153 0.50304 0.06256 0.0
C858 C 0.91231 0.39576 1.00336 0.0
C859 C 0.88353 0.37259 0.09203 0.0
O860 O 0.90565 0.32485 0.99399 0.0
O861 O 0.87273 0.30248 1.01666 0.0
O862 O 0.83526 0.33618 0.04782 0.0
O863 O 0.83611 0.37158 1.02012 0.0
O864 O 0.8612 0.35966 0.96944 0.0
O865 O 0.84207 0.40115 0.98139 0.0
O866 O 0.83743 0.43356 0.05833 0.0
O867 O 0.86314 0.45056 1.02043 0.0
O868 O 0.89811 0.41685 0.99598 0.0
O869 O 0.90073 0.38256 1.0258 0.0
O870 O 0.87173 0.39458 0.08044 0.0
O871 O 0.88934 0.35153 0.07307 0.0
H872 H 0.85123 0.29525 0.9554 0.0
H873 H 0.84833 0.2646 0.90884 0.0
H874 H 0.9301 0.23726 0.92706 0.0
H875 H 0.93289 0.26817 0.97343 0.0
H876 H 0.88573 0.45562 0.09106 0.0
H877 H 0.89784 0.49337 0.12703 0.0
H878 H 0.83792 0.54371 0.08004 0.0
H879 H 0.82569 0.50583 0.04471 0.0
C880 C 0.96645 0.64263 0.2437 0.0
Eu881 Eu 0.92112 0.6239 0.26925 0.0
C882 C 0.98436 0.64051 0.21467 0.0
C883 C 0.98706 0.61629 0.1971 0.0
C884 C 1.0055 0.61453 0.17112 0.0
C885 C 0.02174 0.63694 0.16198 0.0
C886 C 0.01812 0.66145 0.17892 0.0
C887 C 0.99972 0.66317 0.20492 0.0
C888 C 0.91116 0.57203 0.29148 0.0
C889 C 0.88478 0.5943 0.21274 0.0
C890 C 0.81468 0.59672 0.30176 0.0
Eu891 Eu 0.86189 0.61281 0.28091 0.0
C892 C 0.79305 0.60613 0.32374 0.0
C893 C 0.7817 0.6322 0.32095 0.0
C894 C 0.76036 0.64014 0.34123 0.0
C895 C 0.75006 0.62221 0.36473 0.0
C896 C 0.76187 0.59633 0.36774 0.0
C897 C 0.78302 0.58836 0.34736 0.0
C898 C 0.87072 0.65985 0.24856 0.0
C899 C 0.89687 0.63901 0.34081 0.0
O900 O 0.94276 0.65391 0.23972 0.0
O901 O 0.96532 0.62202 0.26362 0.0
O902 O 0.93273 0.58618 0.2982 0.0
O903 O 0.89679 0.58564 0.27228 0.0
O904 O 0.90677 0.60878 0.21938 0.0
O905 O 0.86654 0.58904 0.23526 0.0
O906 O 0.83755 0.58911 0.31505 0.0
O907 O 0.81823 0.61053 0.27504 0.0
O908 O 0.84973 0.6444 0.24499 0.0
O909 O 0.88524 0.65133 0.27196 0.0
O910 O 0.874 0.62831 0.33028 0.0
O911 O 0.91844 0.64105 0.3214 0.0
H912 H 0.97526 0.59858 0.20377 0.0
H913 H 1.00728 0.5954 0.15842 0.0
H914 H 0.0303 0.67907 0.17296 0.0
H915 H 0.99796 0.68214 0.21797 0.0
H916 H 0.78912 0.64639 0.30294 0.0
H917 H 0.75172 0.66017 0.33819 0.0
H918 H 0.75499 0.58222 0.38612 0.0
H919 H 0.79153 0.56822 0.35002 0.0
C920 C 0.63794 0.73124 0.50366 0.0
Eu921 Eu 0.65346 0.68423 0.52693 0.0
C922 C 0.6372 0.74707 0.4728 0.0
C923 C 0.66117 0.75594 0.45753 0.0
C924 C 0.66017 0.77319 0.43052 0.0
C925 C 0.63518 0.7821 0.41777 0.0
C926 C 0.61119 0.7726 0.43262 0.0
C927 C 0.61221 0.75539 0.45976 0.0
C928 C 0.70438 0.66987 0.54791 0.0
C929 C 0.67691 0.64579 0.4681 0.0
C930 C 0.68245 0.57434 0.55469 0.0
Eu931 Eu 0.66223 0.62098 0.53841 0.0
C932 C 0.67434 0.55044 0.57388 0.0
C933 C 0.649 0.53778 0.56972 0.0
C934 C 0.64186 0.51523 0.58854 0.0
C935 C 0.65987 0.50502 0.61193 0.0
C936 C 0.68516 0.51791 0.61597 0.0
C937 C 0.69233 0.54026 0.59706 0.0
C938 C 0.61079 0.63087 0.51559 0.0
C939 C 0.63997 0.65849 0.5985 0.0
O940 O 0.62169 0.71034 0.50658 0.0
O941 O 0.66161 0.72691 0.51695 0.0
O942 O 0.6918 0.69213 0.55591 0.0
O943 O 0.6893 0.65655 0.52894 0.0
O944 O 0.66663 0.66963 0.47672 0.0
O945 O 0.67958 0.62532 0.48851 0.0
O946 O 0.68708 0.59672 0.57099 0.0
O947 O 0.66949 0.57852 0.52745 0.0
O948 O 0.6196 0.60691 0.52324 0.0
O949 O 0.62916 0.64741 0.52327 0.0
O950 O 0.65151 0.63567 0.58882 0.0
O951 O 0.63629 0.67957 0.57868 0.0
H952 H 0.68082 0.75016 0.46692 0.0
H953 H 0.67916 0.78029 0.42038 0.0
H954 H 0.59154 0.77862 0.42346 0.0
H955 H 0.59337 0.74904 0.47101 0.0
H956 H 0.63466 0.54533 0.55205 0.0
H957 H 0.62229 0.50576 0.5847 0.0
H958 H 0.6993 0.51113 0.63429 0.0
H959 H 0.71189 0.5498 0.60079 0.0
C960 C 0.31856 0.42974 0.30306 0.0
Eu961 Eu 0.36594 0.41218 0.28473 0.0
C962 C 0.29543 0.41994 0.32224 0.0
C963 C 0.28753 0.39255 0.32173 0.0
C964 C 0.26498 0.38388 0.33959 0.0
C965 C 0.25009 0.40246 0.35834 0.0
C966 C 0.25837 0.42982 0.35893 0.0
C967 C 0.28074 0.43846 0.34095 0.0
C968 C 0.37328 0.36328 0.25545 0.0
C969 C 0.39995 0.38853 0.34633 0.0
C970 C 0.46938 0.3789 0.24924 0.0
Eu971 Eu 0.42452 0.39896 0.27399 0.0
C972 C 0.48943 0.38269 0.2224 0.0
C973 C 0.51633 0.38963 0.22982 0.0
C974 C 0.536 0.39181 0.2054 0.0
C975 C 0.52947 0.38704 0.17266 0.0
C976 C 0.50261 0.37963 0.16519 0.0
C977 C 0.48282 0.37751 0.18974 0.0
C978 C 0.41635 0.45191 0.29376 0.0
C979 C 0.38951 0.42811 0.21614 0.0
O980 O 0.34092 0.43507 0.31886 0.0
O981 O 0.32294 0.41732 0.27564 0.0
O982 O 0.35259 0.37893 0.25143 0.0
O983 O 0.38811 0.37252 0.27813 0.0
O984 O 0.37863 0.40198 0.33586 0.0
O985 O 0.42003 0.38195 0.32614 0.0
O986 O 0.44504 0.37057 0.2417 0.0
O987 O 0.46903 0.39666 0.27278 0.0
O988 O 0.43749 0.43738 0.301 0.0
O989 O 0.40167 0.43819 0.27502 0.0
O990 O 0.41091 0.41303 0.22335 0.0
O991 O 0.3718 0.43498 0.23858 0.0
H992 H 0.29871 0.37788 0.30747 0.0
H993 H 0.25914 0.36272 0.33858 0.0
H994 H 0.24789 0.44457 0.3738 0.0
H995 H 0.28665 0.45963 0.34175 0.0
H996 H 0.52228 0.39315 0.2547 0.0
H997 H 0.55653 0.39707 0.21229 0.0
H998 H 0.49675 0.37596 0.14033 0.0
H999 H 0.46237 0.37174 0.18309 0.0
C1000 C 0.34563 0.56817 0.05328 0.0
Eu1001 Eu 0.36305 0.61573 1.03525 0.0
C1002 C 0.35471 0.54546 0.07343 0.0
C1003 C 0.34371 0.51968 0.06805 0.0
C1004 C 0.35205 0.49764 0.08675 0.0
C1005 C 0.37155 0.50105 0.11121 0.0
C1006 C 0.38314 0.52686 0.11588 0.0
C1007 C 0.3748 0.54892 0.09706 0.0
C1008 C 0.41085 0.6244 1.00452 0.0
C1009 C 0.38915 0.64958 0.09609 0.0
C1010 C 0.39326 0.72068 1.00042 0.0
Eu1011 Eu 0.37459 0.67503 1.02501 0.0
C1012 C 0.39048 0.73829 0.9713 0.0
C1013 C 0.36629 0.73951 0.95346 0.0
C1014 C 0.36392 0.75725 0.92694 0.0
C1015 C 0.38569 0.7742 0.91747 0.0
C1016 C 0.41017 0.77217 0.9348 0.0
C1017 C 0.41249 0.75448 0.96137 0.0
C1018 C 0.32202 0.66487 0.04516 0.0
C1019 C 0.34718 0.63944 0.96669 0.0
O1020 O 0.339 0.59072 0.06815 0.0
O1021 O 0.35988 0.57233 1.02706 0.0
O1022 O 0.39548 0.60342 1.00054 0.0
O1023 O 0.40188 0.63901 1.02766 0.0
O1024 O 0.37823 0.62691 0.08515 0.0
O1025 O 0.39139 0.67139 0.07715 0.0
O1026 O 0.40472 0.69711 0.99618 0.0
O1027 O 0.37278 0.7193 1.02056 0.0
O1028 O 0.33603 0.68628 0.05289 0.0
O1029 O 0.33619 0.65082 1.02614 0.0
O1030 O 0.36139 0.66133 0.97429 0.0
O1031 O 0.34087 0.62114 0.98868 0.0
H1032 H 0.32849 0.51662 0.04951 0.0
H1033 H 0.34296 0.47797 0.08236 0.0
H1034 H 0.39793 0.53023 0.13482 0.0
H1035 H 0.38375 0.56868 0.1012 0.0
H1036 H 0.34911 0.72699 0.96026 0.0
H1037 H 0.34486 0.75784 0.91398 0.0
H1038 H 0.42728 0.78496 0.92858 0.0
H1039 H 0.43143 0.75382 0.97461 0.0
C1040 C 0.20796 0.59665 0.80147 0.0
Eu1041 Eu 0.16138 0.61436 0.78086 0.0
C1042 C 0.23008 0.60519 0.8231 0.0
C1043 C 0.24413 0.62976 0.81837 0.0
C1044 C 0.26588 0.63671 0.83842 0.0
C1045 C 0.27393 0.61924 0.8635 0.0
C1046 C 0.25948 0.59492 0.86841 0.0
C1047 C 0.2379 0.58793 0.84832 0.0
C1048 C 0.15442 0.66362 0.75257 0.0
C1049 C 0.12457 0.63739 0.84059 0.0
C1050 C 0.05854 0.64711 0.7403 0.0
Eu1051 Eu 0.10272 0.62729 0.76694 0.0
C1052 C 0.0387 0.64308 0.71329 0.0
C1053 C 1.01277 0.63254 0.71988 0.0
C1054 C 0.99319 0.63044 0.69541 0.0
C1055 C 0.99877 0.6389 0.66343 0.0
C1056 C 0.02463 0.6498 0.65686 0.0
C1057 C 0.04432 0.65187 0.68143 0.0
C1058 C 0.11095 0.57437 0.78648 0.0
C1059 C 0.14051 0.59883 0.71069 0.0
O1060 O 0.18483 0.5901 0.81508 0.0
O1061 O 0.20491 0.61041 0.77468 0.0
O1062 O 0.17561 0.64851 0.74926 0.0
O1063 O 0.13877 0.65361 0.77401 0.0
O1064 O 0.14644 0.62413 0.83128 0.0
O1065 O 0.10526 0.64394 0.81941 0.0
O1066 O 0.08313 0.65487 0.73285 0.0
O1067 O 0.05829 0.63001 0.76458 0.0
O1068 O 0.08917 0.58836 0.7925 0.0
O1069 O 0.12615 0.58856 0.76882 0.0
O1070 O 0.11863 0.61359 0.71698 0.0
O1071 O 0.15758 0.59228 0.7339 0.0
H1072 H 0.23851 0.64351 0.79906 0.0
H1073 H 0.27662 0.65553 0.83399 0.0
H1074 H 0.26466 0.58131 0.88803 0.0
H1075 H 0.22734 0.56894 0.85243 0.0
H1076 H 1.00742 0.6262 0.7442 0.0
H1077 H 0.9734 0.62246 0.70177 0.0
H1078 H 0.02982 0.65641 0.63261 0.0
H1079 H 0.06389 0.66056 0.67545 0.0
C1080 C 0.17383 0.45988 0.53912 0.0
Eu1081 Eu 0.15894 0.41057 0.52494 0.0
C1082 C 0.16726 0.48146 0.56278 0.0
C1083 C 0.14856 0.502 0.55488 0.0
C1084 C 0.14326 0.52315 0.57656 0.0
C1085 C 0.15683 0.52437 0.60636 0.0
C1086 C 0.17528 0.50368 0.61436 0.0
C1087 C 0.18049 0.48252 0.59281 0.0
C1088 C 0.11113 0.39795 0.49665 0.0
C1089 C 0.13521 0.37969 0.58985 0.0
C1090 C 0.12826 0.30402 0.49943 0.0
Eu1091 Eu 0.14755 0.35022 0.52104 0.0
C1092 C 0.13106 0.28632 0.47045 0.0
C1093 C 0.15558 0.28457 0.45318 0.0
C1094 C 0.15813 0.26677 0.42682 0.0
C1095 C 0.13619 0.25034 0.41689 0.0
C1096 C 0.11135 0.25299 0.43346 0.0
C1097 C 0.10886 0.27072 0.45995 0.0
C1098 C 0.19957 0.36201 0.54043 0.0
C1099 C 0.17516 0.38236 0.45911 0.0
O1100 O 0.18643 0.43824 0.5498 0.0
O1101 O 0.15519 0.45409 0.51775 0.0
O1102 O 0.12652 0.41791 0.48791 0.0
O1103 O 0.12086 0.38625 0.52143 0.0
O1104 O 0.14669 0.40119 0.57647 0.0
O1105 O 0.13124 0.35708 0.57283 0.0
O1106 O 0.11637 0.32739 0.49498 0.0
O1107 O 0.14905 0.30589 0.51897 0.0
O1108 O 0.18565 0.34102 0.55013 0.0
O1109 O 0.18573 0.37472 0.51975 0.0
O1110 O 0.1619 0.3606 0.46946 0.0
O1111 O 0.1804 0.40298 0.47833 0.0
H1112 H 0.13825 0.50194 0.53175 0.0
H1113 H 0.12907 0.53888 0.56969 0.0
H1114 H 0.18573 0.50382 0.63741 0.0
H1115 H 0.19509 0.46715 0.59962 0.0
H1116 H 0.17292 0.29667 0.46037 0.0
H1117 H 0.17747 0.26561 0.41442 0.0
H1118 H 0.09411 0.24058 0.42677 0.0
H1119 H 0.08966 0.27185 0.4727 0.0
C1120 C 0.32147 0.59501 0.27117 0.0
Eu1121 Eu 0.36826 0.61137 0.29281 0.0
C1122 C 0.2994 0.60446 0.25005 0.0
C1123 C 0.28865 0.63079 0.25267 0.0
C1124 C 0.2666 0.63863 0.23355 0.0
C1125 C 0.255 0.62031 0.21147 0.0
C1126 C 0.26631 0.59419 0.20853 0.0
C1127 C 0.28818 0.58635 0.22772 0.0
C1128 C 0.37563 0.65902 0.32463 0.0
C1129 C 0.40562 0.63607 0.23457 0.0
C1130 C 0.47189 0.64065 0.33435 0.0
Eu1131 Eu 0.42686 0.62244 0.30783 0.0
C1132 C 0.48962 0.63911 0.36357 0.0
C1133 C 0.50013 0.61445 0.37517 0.0
C1134 C 0.51837 0.61405 0.40134 0.0
C1135 C 0.52668 0.6383 0.41664 0.0
C1136 C 0.51574 0.66288 0.40518 0.0
C1137 C 0.49752 0.66324 0.37908 0.0
C1138 C 0.41768 0.57041 0.28545 0.0
C1139 C 0.38809 0.5936 0.36239 0.0
O1140 O 0.34451 0.58871 0.25724 0.0
O1141 O 0.32465 0.60789 0.29854 0.0
O1142 O 0.35434 0.64383 0.32676 0.0
O1143 O 0.39137 0.65004 0.30257 0.0
O1144 O 0.38277 0.62425 0.24321 0.0
O1145 O 0.42567 0.6398 0.25572 0.0
O1146 O 0.44829 0.65232 0.3376 0.0
O1147 O 0.4709 0.61991 0.31466 0.0
O1148 O 0.43944 0.58454 0.27958 0.0
O1149 O 0.40269 0.58415 0.30389 0.0
O1150 O 0.41001 0.60865 0.35727 0.0
O1151 O 0.37169 0.58737 0.33837 0.0
H1152 H 0.29705 0.6452 0.26972 0.0
H1153 H 0.2584 0.65886 0.23642 0.0
H1154 H 0.25841 0.57979 0.19114 0.0
H1155 H 0.29624 0.56601 0.22524 0.0
H1156 H 0.49461 0.59547 0.36373 0.0
H1157 H 0.5265 0.5947 0.409 0.0
H1158 H 0.5212 0.68195 0.41642 0.0
H1159 H 0.48983 0.68258 0.37066 0.0
C1160 C 0.17849 0.56737 1.02747 0.0
Eu1161 Eu 0.1623 0.61576 0.04389 0.0
C1162 C 0.16888 0.54531 1.00668 0.0
C1163 C 0.18072 0.51964 1.00928 0.0
C1164 C 0.17189 0.49842 0.98956 0.0
C1165 C 0.15121 0.50262 0.96664 0.0
C1166 C 0.13879 0.52828 0.96492 0.0
C1167 C 0.14746 0.5494 0.98497 0.0
C1168 C 0.11428 0.62495 0.0741 0.0
C1169 C 0.138 0.64846 0.98099 0.0
C1170 C 0.13215 0.7207 0.0751 0.0
Eu1171 Eu 0.15097 0.67474 0.05187 0.0
C1172 C 0.13569 0.74058 0.10209 0.0
C1173 C 0.14299 0.76744 0.09487 0.0
C1174 C 0.14491 0.78702 0.11937 0.0
C1175 C 0.13951 0.78044 0.152 0.0
C1176 C 0.13179 0.75359 0.15926 0.0
C1177 C 0.12993 0.7339 0.13464 0.0
C1178 C 0.20374 0.66454 1.03255 0.0
C1179 C 0.17897 0.64082 0.11146 0.0
O1180 O 0.18677 0.58953 1.01293 0.0
O1181 O 0.16341 0.57233 0.05278 0.0
O1182 O 0.13009 0.60459 0.07939 0.0
O1183 O 0.12314 0.63894 0.05027 0.0
O1184 O 0.14919 0.62632 0.99294 0.0
O1185 O 0.13453 0.67027 0.99958 0.0
O1186 O 0.12221 0.69685 0.08216 0.0
O1187 O 0.15095 0.71935 0.05274 0.0
O1188 O 0.18972 0.68572 1.02412 0.0
O1189 O 0.18953 0.65079 0.05189 0.0
O1190 O 0.16514 0.6627 0.10295 0.0
O1191 O 0.18467 0.62172 0.09026 0.0
H1192 H 0.19693 0.51604 1.02643 0.0
H1193 H 0.18154 0.4788 0.99198 0.0
H1194 H 0.12302 0.53236 0.94737 0.0
H1195 H 0.1377 0.56899 0.98333 0.0
H1196 H 0.147 0.77344 0.07007 0.0
H1197 H 0.15043 0.80752 0.11259 0.0
H1198 H 0.12764 0.74767 0.18403 0.0
H1199 H 0.1239 0.71347 0.14114 0.0
C1200 C 0.20632 0.41984 0.78745 0.0
Eu1201 Eu 0.15441 0.41021 0.79167 0.0
C1202 C 0.22942 0.40967 0.7686 0.0
C1203 C 0.22586 0.38937 0.74519 0.0
C1204 C 0.24746 0.38187 0.72508 0.0
C1205 C 0.27286 0.39469 0.72801 0.0
C1206 C 0.27657 0.41408 0.75259 0.0
C1207 C 0.255 0.42151 0.77269 0.0
C1208 C 0.13463 0.36039 0.81012 0.0
C1209 C 0.11991 0.39484 0.7292 0.0
C1210 C 0.04502 0.39647 0.82051 0.0
Eu1211 Eu 0.09397 0.40784 0.79993 0.0
C1212 C 0.03001 0.39221 0.85145 0.0
C1213 C 0.02933 0.41218 0.87578 0.0
C1214 C 1.01272 0.409 0.90317 0.0
C1215 C 0.99636 0.38574 0.90707 0.0
C1216 C 0.99798 0.3653 0.88329 0.0
C1217 C 0.01452 0.36855 0.85584 0.0
C1218 C 0.11103 0.45643 0.77463 0.0
C1219 C 0.13005 0.43148 0.85954 0.0
O1220 O 0.18798 0.43316 0.77101 0.0
O1221 O 0.19569 0.40302 0.80842 0.0
O1222 O 0.15366 0.36375 0.7887 0.0
O1223 O 0.12714 0.38329 0.81978 0.0
O1224 O 0.14132 0.4081 0.73974 0.0
O1225 O 0.1 0.38803 0.74949 0.0
O1226 O 0.0625 0.37786 0.81166 0.0
O1227 O 0.05354 0.42105 0.81413 0.0
O1228 O 0.0893 0.44346 0.76565 0.0
O1229 O 0.1229 0.44257 0.7961 0.0
O1230 O 0.10565 0.42363 0.84994 0.0
O1231 O 0.15145 0.42963 0.84049 0.0
H1232 H 0.20615 0.38005 0.74174 0.0
H1233 H 0.24387 0.36713 0.70612 0.0
H1234 H 0.29596 0.42414 0.75557 0.0
H1235 H 0.25808 0.43713 0.79076 0.0
H1236 H 0.04104 0.43067 0.87326 0.0
H1237 H 1.01188 0.42537 0.9206 0.0
H1238 H 0.98609 0.34691 0.88557 0.0
H1239 H 0.01468 0.35278 0.83758 0.0
C1240 C 0.34595 0.45726 0.534 0.0
Eu1241 Eu 0.35947 0.40806 0.5503 0.0
C1242 C 0.35428 0.47822 0.51037 0.0
C1243 C 0.37049 0.50022 0.52029 0.0
C1244 C 0.37742 0.52083 0.49847 0.0
C1245 C 0.36788 0.51997 0.46654 0.0
C1246 C 0.35208 0.49777 0.45649 0.0
C1247 C 0.34534 0.47712 0.47814 0.0
C1248 C 0.40559 0.39681 0.5831 0.0
C1249 C 0.38332 0.37566 0.48661 0.0
C1250 C 0.38302 0.30092 0.57878 0.0
Eu1251 Eu 0.36863 0.34887 0.55662 0.0
C1252 C 0.38474 0.28521 0.60978 0.0
C1253 C 0.36141 0.27737 0.62723 0.0
C1254 C 0.3634 0.26037 0.65454 0.0
C1255 C 0.38876 0.25061 0.66523 0.0
C1256 C 0.4121 0.25921 0.64823 0.0
C1257 C 0.4101 0.27615 0.62095 0.0
C1258 C 0.31779 0.36167 0.5339 0.0
C1259 C 0.34128 0.38278 0.61658 0.0
O1260 O 0.3337 0.43559 0.52288 0.0
O1261 O 0.36327 0.45167 0.55694 0.0
O1262 O 0.38955 0.41693 0.58891 0.0
O1263 O 0.39772 0.38376 0.55812 0.0
O1264 O 0.37351 0.39809 0.49952 0.0
O1265 O 0.38509 0.35307 0.50422 0.0
O1266 O 0.39994 0.32103 0.57454 0.0
O1267 O 0.35904 0.3064 0.56715 0.0
O1268 O 0.33209 0.34107 0.52407 0.0
O1269 O 0.33089 0.37388 0.55559 0.0
O1270 O 0.35629 0.36162 0.60823 0.0
O1271 O 0.33534 0.40176 0.59535 0.0
H1272 H 0.3775 0.50171 0.54506 0.0
H1273 H 0.38952 0.5378 0.50678 0.0
H1274 H 0.34476 0.49647 0.43182 0.0
H1275 H 0.33284 0.4605 0.46967 0.0
H1276 H 0.34149 0.28382 0.6194 0.0
H1277 H 0.34488 0.25411 0.66656 0.0
H1278 H 0.43205 0.25266 0.65582 0.0
H1279 H 0.42847 0.28173 0.60812 0.0
C1280 C 0.30637 0.15564 0.18955 0.0
C1281 C 0.30124 0.12921 0.20111 0.0
H1282 H 0.32655 0.18004 0.1536 0.0
C1283 C 0.31563 0.10739 0.18762 0.0
H1284 H 0.29577 0.17288 0.19975 0.0
C1285 C 0.33308 0.11152 0.16158 0.0
C1286 C 0.3367 0.13755 0.14856 0.0
H1287 H 0.31202 0.08677 0.19562 0.0
H1288 H 0.34257 0.09406 0.15036 0.0
C1289 C 0.32417 0.15981 0.16349 0.0
C1290 C 0.11654 0.06504 0.40191 0.0
C1291 C 0.13622 0.08424 0.39317 0.0
H1292 H 0.10752 0.0301 0.43082 0.0
C1293 C 0.16034 0.08602 0.41087 0.0
H1294 H 0.09802 0.06309 0.38801 0.0
C1295 C 0.16571 0.06751 0.4355 0.0
C1296 C 0.14732 0.04641 0.44225 0.0
H1297 H 0.17581 0.10067 0.40424 0.0
H1298 H 0.18497 0.06878 0.44798 0.0
C1299 C 0.1221 0.04612 0.42629 0.0
C1300 C 0.21089 0.92093 0.67951 0.0
C1301 C 0.2279 0.9002 0.69096 0.0
H1302 H 0.18102 0.93259 0.64471 0.0
C1303 C 0.22409 0.87359 0.67936 0.0
H1304 H 0.2127 0.94145 0.68861 0.0
C1305 C 0.20523 0.8684 0.6548 0.0
C1306 C 0.19024 0.88979 0.64144 0.0
H1307 H 0.23688 0.85716 0.68763 0.0
H1308 H 0.20405 0.84823 0.64449 0.0
C1309 C 0.19248 0.91583 0.65473 0.0
C1310 C 0.3548 0.94361 0.90883 0.0
C1311 C 0.38119 0.93983 0.89694 0.0
H1312 H 0.32912 0.96517 0.94154 0.0
C1313 C 0.40291 0.95337 0.91174 0.0
H1314 H 0.33777 0.93324 0.8978 0.0
C1315 C 0.3979 0.9723 0.93631 0.0
C1316 C 0.37114 0.97766 0.94649 0.0
H1317 H 0.42339 0.95097 0.90261 0.0
H1318 H 0.41475 0.98394 0.94577 0.0
C1319 C 0.34985 0.96213 0.93357 0.0
C1320 C 0.31404 0.86414 0.42379 0.0
C1321 C 0.33335 0.8834 0.43338 0.0
H1322 H 0.27964 0.85592 0.39374 0.0
C1323 C 0.33556 0.90786 0.41627 0.0
H1324 H 0.3117 0.84535 0.43716 0.0
C1325 C 0.31757 0.91384 0.3913 0.0
C1326 C 0.2965 0.89575 0.38347 0.0
H1327 H 0.35029 0.92304 0.42347 0.0
H1328 H 0.3194 0.93324 0.37917 0.0
C1329 C 0.29563 0.87031 0.39905 0.0
C1330 C 0.40614 0.04133 0.65223 0.0
C1331 C 0.38029 0.04074 0.63775 0.0
H1332 H 0.43158 0.05931 0.68848 0.0
C1333 C 0.36129 0.0607 0.64646 0.0
H1334 H 0.42125 0.02622 0.64619 0.0
C1335 C 0.36712 0.07936 0.67082 0.0
C1336 C 0.39226 0.07882 0.68671 0.0
H1337 H 0.3415 0.0614 0.63515 0.0
H1338 H 0.35152 0.09359 0.6781 0.0
C1339 C 0.41212 0.06032 0.6764 0.0
C1340 C 0.19666 0.11507 0.91587 0.0
C1341 C 0.19494 0.14085 0.93008 0.0
H1342 H 0.2156 0.09005 0.88025 0.0
C1343 C 0.20973 0.1624 0.91647 0.0
H1344 H 0.18526 0.09815 0.92576 0.0
C1345 C 0.22776 0.15762 0.89078 0.0
C1346 C 0.23102 0.13127 0.87816 0.0
H1347 H 0.20892 0.18243 0.9272 0.0
H1348 H 0.24035 0.17419 0.88226 0.0
C1349 C 0.21427 0.11039 0.89002 0.0
C1350 C 0.12233 0.9621 0.1671 0.0
C1351 C 0.14233 0.94414 0.17808 0.0
H1352 H 0.1132 0.99548 0.1358 0.0
C1353 C 0.16739 0.94304 0.16207 0.0
H1354 H 0.10301 0.9635 0.17955 0.0
C1355 C 0.17313 0.96088 0.13677 0.0
C1356 C 0.15418 0.98075 0.1276 0.0
H1357 H 0.18308 0.92928 0.17027 0.0
H1358 H 0.19296 0.95997 0.1255 0.0
C1359 C 0.12826 0.98042 0.14211 0.0
C1360 C 0.71258 0.92337 0.89322 0.0
C1361 C 0.73049 0.90308 0.88256 0.0
H1362 H 0.68172 0.93447 0.9272 0.0
C1363 C 0.72732 0.87651 0.89459 0.0
H1364 H 0.71391 0.94384 0.88378 0.0
C1365 C 0.70819 0.871 0.91887 0.0
C1366 C 0.69227 0.89204 0.93151 0.0
H1367 H 0.74082 0.86042 0.88694 0.0
H1368 H 0.70752 0.85095 0.92961 0.0
C1369 C 0.69388 0.91797 0.91771 0.0
C1370 C 0.85825 0.96941 0.6447 0.0
C1371 C 0.88064 0.98173 0.62955 0.0
H1372 H 0.84425 0.94343 0.68262 0.0
C1373 C 0.90697 0.97443 0.63945 0.0
H1374 H 0.83772 0.97476 0.63796 0.0
C1375 C 0.91071 0.9561 0.66507 0.0
C1376 C 0.88814 0.94525 0.68136 0.0
H1377 H 0.92459 0.98346 0.62801 0.0
H1378 H 0.93109 0.95178 0.67337 0.0
C1379 C 0.86198 0.9515 0.67037 0.0
C1380 C 0.82227 0.11521 0.38982 0.0
C1381 C 0.80124 0.13359 0.38308 0.0
H1382 H 0.85542 0.10519 0.42096 0.0
C1383 C 0.80116 0.15893 0.39882 0.0
H1384 H 0.82344 0.09587 0.37747 0.0
C1385 C 0.82017 0.1646 0.42303 0.0
C1386 C 0.83923 0.14489 0.4319 0.0
H1387 H 0.78523 0.17354 0.39426 0.0
H1388 H 0.81835 0.18323 0.43676 0.0
C1389 C 0.84086 0.12067 0.41432 0.0
C1390 C 0.67717 0.06522 0.14688 0.0
C1391 C 0.65607 0.04887 0.13495 0.0
H1392 H 0.6891 0.09511 0.18154 0.0
C1393 C 0.62936 0.05375 0.14567 0.0
H1394 H 0.69782 0.06258 0.13845 0.0
C1395 C 0.62429 0.07306 0.16979 0.0
C1396 C 0.6459 0.08746 0.18362 0.0
H1397 H 0.61266 0.04147 0.13701 0.0
H1398 H 0.60392 0.0751 0.1794 0.0
C1399 C 0.67216 0.0841 0.1712 0.0
C1400 C 0.7127 0.11115 0.68488 0.0
C1401 C 0.73353 0.12963 0.69226 0.0
H1402 H 0.67931 0.1017 0.65385 0.0
C1403 C 0.73318 0.15545 0.67762 0.0
H1404 H 0.71186 0.09142 0.6964 0.0
C1405 C 0.71386 0.16163 0.65393 0.0
C1406 C 0.6949 0.14197 0.64445 0.0
H1407 H 0.74894 0.17015 0.68269 0.0
H1408 H 0.7153 0.18075 0.64107 0.0
C1409 C 0.69379 0.11715 0.66093 0.0
C1410 C 0.617 0.98005 0.43275 0.0
C1411 C 0.64324 0.98337 0.44563 0.0
H1412 H 0.59248 0.96088 0.39627 0.0
C1413 C 0.6644 0.96714 0.43365 0.0
H1414 H 0.60024 0.99211 0.44172 0.0
C1415 C 0.65993 0.94944 0.40796 0.0
C1416 C 0.63418 0.94732 0.39381 0.0
H1417 H 0.68489 0.96933 0.44271 0.0
H1418 H 0.67702 0.93843 0.39797 0.0
C1419 C 0.61245 0.96196 0.4071 0.0
C1420 C 0.83299 0.90984 0.16143 0.0
C1421 C 0.83156 0.88542 0.14419 0.0
H1422 H 0.81579 0.93463 0.19849 0.0
C1423 C 0.81264 0.86563 0.1535 0.0
H1424 H 0.84741 0.92541 0.15445 0.0
C1425 C 0.79382 0.87121 0.1781 0.0
C1426 C 0.79391 0.89659 0.1938 0.0
H1427 H 0.81092 0.84685 0.14002 0.0
H1428 H 0.77814 0.85641 0.18323 0.0
C1429 C 0.8146 0.91524 0.18626 0.0
C1430 C 0.90764 0.06975 0.90916 0.0
C1431 C 0.88643 0.0827 0.89269 0.0
H1432 H 0.91827 0.04002 0.9449 0.0
C1433 C 0.85962 0.0788 0.90311 0.0
H1434 H 0.92846 0.07231 0.90123 0.0
C1435 C 0.85379 0.06065 0.92797 0.0
C1436 C 0.87464 0.04568 0.94262 0.0
H1437 H 0.84297 0.08875 0.89082 0.0
H1438 H 0.83278 0.05742 0.93473 0.0
C1439 C 0.90176 0.05123 0.93399 0.0
C1440 C 0.80052 0.64935 0.68001 0.0
C1441 C 0.79583 0.62244 0.69009 0.0
H1442 H 0.82143 0.67549 0.64655 0.0
C1443 C 0.81201 0.60163 0.67717 0.0
H1444 H 0.78837 0.66584 0.68945 0.0
C1445 C 0.83057 0.60715 0.65258 0.0
C1446 C 0.83375 0.63365 0.64086 0.0
H1447 H 0.80951 0.58082 0.68508 0.0
H1448 H 0.84146 0.59045 0.64153 0.0
C1449 C 0.81951 0.65494 0.6556 0.0
C1450 C 0.61959 0.5714 0.91349 0.0
C1451 C 0.64145 0.58234 0.89601 0.0
H1452 H 0.60739 0.54473 0.95202 0.0
C1453 C 0.66804 0.57731 0.90644 0.0
H1454 H 0.59891 0.57491 0.9057 0.0
C1455 C 0.6729 0.5602 0.93255 0.0
C1456 C 0.65126 0.5476 0.94883 0.0
H1457 H 0.68524 0.58559 0.89334 0.0
H1458 H 0.69375 0.55559 0.93864 0.0
C1459 C 0.62448 0.55395 0.93967 0.0
C1460 C 0.68996 0.41063 0.16546 0.0
C1461 C 0.69343 0.38693 0.14724 0.0
H1462 H 0.70411 0.43496 0.20469 0.0
C1463 C 0.71306 0.36797 0.1566 0.0
H1464 H 0.67496 0.42556 0.15842 0.0
C1465 C 0.73048 0.37371 0.18246 0.0
C1466 C 0.72829 0.39842 0.19946 0.0
H1467 H 0.71635 0.3498 0.14237 0.0
H1468 H 0.74677 0.35965 0.18761 0.0
C1469 C 0.70693 0.41614 0.19161 0.0
C1470 C 0.86422 0.45701 0.43743 0.0
C1471 C 0.88194 0.47901 0.44222 0.0
H1472 H 0.85443 0.42248 0.40831 0.0
C1473 C 0.90668 0.4796 0.42509 0.0
H1474 H 0.84541 0.45546 0.4509 0.0
C1475 C 0.91223 0.46007 0.40138 0.0
C1476 C 0.89299 0.43995 0.39434 0.0
H1477 H 0.92079 0.49625 0.42814 0.0
H1478 H 0.93024 0.46228 0.38651 0.0
C1479 C 0.86955 0.43786 0.41345 0.0
C1480 C 0.8194 0.4145 0.88696 0.0
C1481 C 0.79798 0.39669 0.87964 0.0
H1482 H 0.85255 0.42332 0.91864 0.0
C1483 C 0.79714 0.37114 0.89494 0.0
H1484 H 0.82114 0.43398 0.87498 0.0
C1485 C 0.81581 0.36471 0.91925 0.0
C1486 C 0.8353 0.38385 0.92867 0.0
H1487 H 0.78088 0.35696 0.88996 0.0
H1488 H 0.81342 0.34594 0.93263 0.0
C1489 C 0.83765 0.40827 0.91155 0.0
C1490 C 0.90423 0.56844 0.16589 0.0
C1491 C 0.88181 0.57999 0.18171 0.0
H1492 H 0.9177 0.54047 0.12938 0.0
C1493 C 0.85558 0.57432 0.17044 0.0
H1494 H 0.92464 0.57234 0.17438 0.0
C1495 C 0.85161 0.55631 0.14497 0.0
C1496 C 0.8738 0.54334 0.1303 0.0
H1497 H 0.83796 0.58298 0.1823 0.0
H1498 H 0.83101 0.55143 0.13796 0.0
C1499 C 0.90022 0.55003 0.14047 0.0
C1500 C 0.7267 0.65662 0.40032 0.0
C1501 C 0.72762 0.6304 0.38679 0.0
H1502 H 0.70908 0.68238 0.43661 0.0
C1503 C 0.70809 0.61124 0.39653 0.0
H1504 H 0.74147 0.67186 0.39346 0.0
C1505 C 0.68986 0.61721 0.42136 0.0
C1506 C 0.69038 0.64264 0.43654 0.0
H1507 H 0.70764 0.59115 0.38594 0.0
H1508 H 0.67628 0.60142 0.42988 0.0
C1509 C 0.70808 0.66273 0.42493 0.0
C1510 C 0.66651 0.44475 0.668 0.0
C1511 C 0.64085 0.44405 0.68264 0.0
H1512 H 0.69231 0.46371 0.63311 0.0
C1513 C 0.62016 0.46079 0.67076 0.0
H1514 H 0.68276 0.432 0.67694 0.0
C1515 C 0.62583 0.4797 0.6463 0.0
C1516 C 0.6522 0.48186 0.63325 0.0
H1517 H 0.60035 0.46086 0.68219 0.0
H1518 H 0.61007 0.4938 0.63929 0.0
C1519 C 0.67204 0.4632 0.64326 0.0
C1520 C 0.18572 0.40543 0.40778 0.0
C1521 C 0.1886 0.38253 0.42753 0.0
H1522 H 0.20234 0.42911 0.36924 0.0
C1523 C 0.20917 0.36373 0.42092 0.0
H1524 H 0.16997 0.4202 0.41271 0.0
C1525 C 0.22834 0.36923 0.39673 0.0
C1526 C 0.22691 0.39348 0.37877 0.0
H1527 H 0.21195 0.34618 0.43638 0.0
H1528 H 0.24537 0.35556 0.39395 0.0
C1529 C 0.20449 0.41068 0.3833 0.0
C1530 C 0.40872 0.45514 0.17026 0.0
C1531 C 0.38678 0.44147 0.18457 0.0
H1532 H 0.4211 0.48512 0.13545 0.0
C1533 C 0.36064 0.44501 0.17196 0.0
H1534 H 0.429 0.45295 0.17995 0.0
C1535 C 0.35609 0.46322 0.14681 0.0
C1536 C 0.37759 0.47854 0.13393 0.0
H1537 H 0.3434 0.43476 0.18283 0.0
H1538 H 0.33541 0.46657 0.13897 0.0
C1539 C 0.40412 0.47375 0.14518 0.0
C1540 C 0.31435 0.60578 0.89614 0.0
C1541 C 0.29684 0.62627 0.8852 0.0
H1542 H 0.34447 0.59426 0.93066 0.0
C1543 C 0.29996 0.65276 0.89743 0.0
H1544 H 0.31304 0.58537 0.88654 0.0
C1545 C 0.31863 0.65799 0.92218 0.0
C1546 C 0.33411 0.63674 0.93505 0.0
H1547 H 0.28676 0.66899 0.88951 0.0
H1548 H 0.31931 0.67801 0.93298 0.0
C1549 C 0.33259 0.6109 0.92106 0.0
C1550 C 0.17044 0.5775 0.66995 0.0
C1551 C 0.1441 0.5849 0.67943 0.0
H1552 H 0.19504 0.55297 0.63907 0.0
C1553 C 0.12184 0.57495 0.6619 0.0
H1554 H 0.18797 0.58511 0.68288 0.0
C1555 C 0.12591 0.55612 0.63689 0.0
C1556 C 0.15226 0.54716 0.62918 0.0
H1557 H 0.10133 0.5802 0.66894 0.0
H1558 H 0.10841 0.54744 0.62494 0.0
C1559 C 0.17448 0.55891 0.64507 0.0
C1560 C 0.21125 0.65938 0.15202 0.0
C1561 C 0.19283 0.63915 0.14272 0.0
H1562 H 0.24598 0.6691 0.1809 0.0
C1563 C 0.19243 0.61439 0.15937 0.0
H1564 H 0.21216 0.67844 0.13898 0.0
C1565 C 0.21144 0.60909 0.18345 0.0
C1566 C 0.23168 0.62823 0.19078 0.0
H1567 H 0.1784 0.5985 0.1524 0.0
H1568 H 0.21113 0.58943 0.19515 0.0
C1569 C 0.23067 0.65392 0.17587 0.0
C1570 C 0.16013 0.44817 0.90327 0.0
C1571 C 0.13381 0.44565 0.89066 0.0
H1572 H 0.18625 0.46826 0.9365 0.0
C1573 C 0.11243 0.45968 0.90567 0.0
H1574 H 0.17704 0.43747 0.89238 0.0
C1575 C 0.11774 0.47739 0.93144 0.0
C1576 C 0.14446 0.48118 0.94266 0.0
H1577 H 0.09194 0.45812 0.89643 0.0
H1578 H 0.10107 0.48869 0.94193 0.0
C1579 C 0.1654 0.46573 0.92884 0.0
C1580 C 0.32338 0.41028 0.66187 0.0
C1581 C 0.32828 0.38454 0.64863 0.0
H1582 H 0.30223 0.43353 0.69736 0.0
C1583 C 0.31734 0.36154 0.66391 0.0
H1584 H 0.33162 0.42833 0.6505 0.0
C1585 C 0.30012 0.36454 0.69077 0.0
C1586 C 0.29411 0.39053 0.70297 0.0
H1587 H 0.3207 0.3415 0.65394 0.0
H1588 H 0.29083 0.34668 0.70134 0.0
C1589 C 0.30664 0.41323 0.68883 0.0
C1590 C 0.35171 0.55306 0.42559 0.0
C1591 C 0.37325 0.54247 0.44371 0.0
H1592 H 0.33969 0.57825 0.38623 0.0
C1593 C 0.3997 0.55226 0.43819 0.0
H1594 H 0.33107 0.54634 0.42989 0.0
C1595 C 0.40471 0.57079 0.41305 0.0
C1596 C 0.38326 0.57963 0.39338 0.0
H1597 H 0.41661 0.54443 0.45202 0.0
H1598 H 0.4254 0.57675 0.40773 0.0
C1599 C 0.35666 0.57143 0.40075 0.0
C1600 C 0.1204 0.22313 0.36763 0.0
C1601 C 0.1401 0.22887 0.39151 0.0
H1602 H 0.10891 0.19799 0.32709 0.0
C1603 C 0.16369 0.21299 0.39205 0.0
H1604 H 0.10203 0.23511 0.36632 0.0
C1605 C 0.1673 0.19172 0.3702 0.0
C1606 C 0.14759 0.18547 0.34669 0.0
H1607 H 0.17916 0.21639 0.41019 0.0
H1608 H 0.18563 0.17975 0.3723 0.0
C1609 C 0.12426 0.20183 0.34516 0.0
C1610 C 0.08318 0.91821 0.61222 0.0
C1611 C 0.08925 0.89804 0.58916 0.0
H1612 H 0.05889 0.93078 0.65234 0.0
C1613 C 0.07292 0.87463 0.58858 0.0
H1614 H 0.09517 0.9366 0.61359 0.0
C1615 C 0.05175 0.8712 0.61141 0.0
C1616 C 0.04616 0.89135 0.63488 0.0
H1617 H 0.07665 0.85891 0.57086 0.0
H1618 H 0.03975 0.8528 0.61066 0.0
C1619 C 0.06209 0.91497 0.63455 0.0
C1620 C 0.35446 0.83096 0.86735 0.0
C1621 C 0.37524 0.83802 0.84541 0.0
H1622 H 0.34144 0.80607 0.90677 0.0
C1623 C 0.39936 0.82282 0.84604 0.0
H1624 H 0.33552 0.84208 0.86773 0.0
C1625 C 0.40285 0.80184 0.86903 0.0
C1626 C 0.38209 0.79529 0.89144 0.0
H1627 H 0.41562 0.82737 0.82924 0.0
H1628 H 0.42181 0.79077 0.86927 0.0
C1629 C 0.35778 0.81004 0.88983 0.0
C1630 C 0.44098 0.1092 0.12503 0.0
C1631 C 0.4365 0.12735 0.09927 0.0
H1632 H 0.46452 0.09864 0.16642 0.0
C1633 C 0.45438 0.1494 0.09555 0.0
H1634 H 0.42791 0.09177 0.12863 0.0
C1635 C 0.47566 0.15353 0.1179 0.0
C1636 C 0.47939 0.13568 0.14432 0.0
H1637 H 0.45176 0.16354 0.07575 0.0
H1638 H 0.48874 0.17102 0.11496 0.0
C1639 C 0.46198 0.11324 0.14705 0.0
C1640 C 0.16893 0.83984 0.19894 0.0
C1641 C 0.15055 0.8435 0.22474 0.0
H1642 H 0.18022 0.8174 0.15689 0.0
C1643 C 0.12864 0.8253 0.22748 0.0
H1644 H 0.18624 0.85317 0.19595 0.0
C1645 C 0.12505 0.80441 0.20435 0.0
C1646 C 0.14323 0.80145 0.17802 0.0
H1647 H 0.11427 0.82728 0.24719 0.0
H1648 H 0.10774 0.791 0.20665 0.0
C1649 C 0.16538 0.81929 0.17614 0.0
C1650 C 0.47797 0.90629 0.4615 0.0
C1651 C 0.47724 0.88733 0.43597 0.0
H1652 H 0.45765 0.92297 0.50306 0.0
C1653 C 0.4559 0.86819 0.43586 0.0
H1654 H 0.49412 0.92114 0.46289 0.0
C1655 C 0.43527 0.86897 0.45945 0.0
C1656 C 0.43556 0.88863 0.48404 0.0
H1657 H 0.45416 0.85358 0.41642 0.0
H1658 H 0.4181 0.85543 0.45698 0.0
C1659 C 0.4573 0.90707 0.48497 0.0
C1660 C 0.37308 0.23149 0.71963 0.0
C1661 C 0.39076 0.23047 0.69269 0.0
H1662 H 0.35944 0.21243 0.7637 0.0
C1663 C 0.40981 0.20918 0.69152 0.0
H1664 H 0.35837 0.24768 0.72182 0.0
C1665 C 0.41054 0.18917 0.71569 0.0
C1666 C 0.39229 0.18967 0.74193 0.0
H1667 H 0.42357 0.20726 0.67118 0.0
H1668 H 0.42491 0.17268 0.71318 0.0
C1669 C 0.37387 0.21141 0.74393 0.0
C1670 C 0.09106 0.1557 0.96604 0.0
C1671 C 0.09204 0.133 0.98658 0.0
H1672 H 0.07114 0.17549 0.9264 0.0
C1673 C 0.07214 0.11276 0.9829 0.0
H1674 H 0.10647 0.17125 0.96754 0.0
C1675 C 0.05211 0.11484 0.95893 0.0
C1676 C 0.05146 0.13717 0.93766 0.0
H1677 H 0.07251 0.09482 0.99805 0.0
H1678 H 0.03774 0.09836 0.95632 0.0
C1679 C 0.07103 0.1578 0.94196 0.0
C1680 C 0.85837 0.83642 0.70727 0.0
C1681 C 0.87805 0.84169 0.73114 0.0
H1682 H 0.84583 0.81236 0.66702 0.0
C1683 C 0.9006 0.82429 0.73293 0.0
H1684 H 0.84068 0.84929 0.70494 0.0
C1685 C 0.90361 0.80271 0.71065 0.0
C1686 C 0.88393 0.79781 0.68644 0.0
H1687 H 0.91596 0.82746 0.75123 0.0
H1688 H 0.92131 0.78982 0.71246 0.0
C1689 C 0.86121 0.81496 0.68543 0.0
C1690 C 0.96437 0.16359 0.43891 0.0
C1691 C 0.98282 0.14201 0.43442 0.0
H1692 H 0.92859 0.1779 0.46338 0.0
C1693 C 0.9809 0.11962 0.45551 0.0
H1694 H 0.96482 0.18104 0.42298 0.0
C1695 C 0.96019 0.11802 0.47875 0.0
C1696 C 0.94107 0.13894 0.48214 0.0
H1697 H 0.99492 0.10282 0.45343 0.0
H1698 H 0.95837 0.09973 0.49316 0.0
C1699 C 0.94369 0.16202 0.46242 0.0
C1700 C 0.66794 0.21315 0.18418 0.0
C1701 C 0.64451 0.22932 0.18421 0.0
H1702 H 0.69022 0.18118 0.2063 0.0
C1703 C 0.62551 0.22552 0.20952 0.0
H1704 H 0.68337 0.21579 0.16573 0.0
C1705 C 0.62957 0.20538 0.23343 0.0
C1706 C 0.65273 0.18875 0.23249 0.0
H1707 H 0.60722 0.23764 0.2104 0.0
H1708 H 0.61452 0.20265 0.25229 0.0
C1709 C 0.67196 0.19332 0.2078 0.0
C1710 C 0.56451 0.91701 0.9368 0.0
C1711 C 0.54847 0.89344 0.93686 0.0
H1712 H 0.59739 0.93889 0.95764 0.0
C1713 C 0.55346 0.87383 0.96115 0.0
H1714 H 0.561 0.93295 0.91925 0.0
C1715 C 0.57457 0.87742 0.9839 0.0
C1716 C 0.59112 0.90068 0.98277 0.0
H1717 H 0.54153 0.85539 0.96208 0.0
H1718 H 0.57816 0.86189 1.00193 0.0
C1719 C 0.58539 0.92051 0.95921 0.0
C1720 C 0.86183 0.21226 0.88559 0.0
C1721 C 0.88603 0.22715 0.88799 0.0
H1722 H 0.84022 0.18011 0.86276 0.0
C1723 C 0.90732 0.22082 0.86625 0.0
H1724 H 0.8451 0.2161 0.902 0.0
C1725 C 0.90444 0.19989 0.84313 0.0
C1726 C 0.88042 0.18451 0.84174 0.0
H1727 H 0.92621 0.23203 0.86714 0.0
H1728 H 0.92107 0.19552 0.82682 0.0
C1729 C 0.85911 0.19136 0.863 0.0
C1730 C 0.57384 0.15834 0.64398 0.0
C1731 C 0.55024 0.14231 0.64095 0.0
H1732 H 0.61316 0.16831 0.62481 0.0
C1733 C 0.54722 0.12671 0.61257 0.0
H1734 H 0.57728 0.17031 0.66556 0.0
C1735 C 0.56789 0.12571 0.58917 0.0
C1736 C 0.59188 0.14069 0.59312 0.0
H1737 H 0.52927 0.11442 0.60893 0.0
H1738 H 0.56573 0.11207 0.56877 0.0
C1739 C 0.59443 0.15742 0.62044 0.0
C1740 C 0.61643 0.84399 0.36621 0.0
C1741 C 0.63743 0.84437 0.34318 0.0
H1742 H 0.5993 0.82442 0.40789 0.0
C1743 C 0.65619 0.82297 0.34305 0.0
H1744 H 0.6024 0.86081 0.36784 0.0
C1745 C 0.65454 0.80203 0.36599 0.0
C1746 C 0.63442 0.80223 0.39032 0.0
H1747 H 0.67294 0.82306 0.32601 0.0
H1748 H 0.66966 0.78614 0.36526 0.0
C1749 C 0.61487 0.82315 0.38944 0.0
C1750 C 0.94056 0.91695 0.11984 0.0
C1751 C 0.93475 0.8972 0.09618 0.0
H1752 H 0.96559 0.92974 0.15906 0.0
C1753 C 0.9522 0.87471 0.09376 0.0
H1754 H 0.92771 0.93459 0.1227 0.0
C1755 C 0.97437 0.87186 0.11521 0.0
C1756 C 0.97982 0.89166 0.13915 0.0
H1757 H 0.94856 0.85924 0.07571 0.0
H1758 H 0.98727 0.8542 0.11302 0.0
C1759 C 0.9626 0.91429 0.14079 0.0
C1760 C 0.6274 0.70143 0.84595 0.0
C1761 C 0.64893 0.68293 0.84924 0.0
H1762 H 0.60692 0.73629 0.86585 0.0
C1763 C 0.66708 0.68653 0.87515 0.0
H1764 H 0.61321 0.69944 0.82611 0.0
C1765 C 0.66367 0.70744 0.89754 0.0
C1766 C 0.64191 0.72566 0.89502 0.0
H1767 H 0.68407 0.6729 0.87849 0.0
H1768 H 0.67832 0.70934 0.91691 0.0
C1769 C 0.62395 0.72264 0.86861 0.0
C1770 C 0.57481 0.37706 0.09736 0.0
C1771 C 0.59307 0.39884 0.10063 0.0
H1772 H 0.54028 0.35599 0.1176 0.0
C1773 C 0.58917 0.41698 0.12657 0.0
H1774 H 0.57701 0.36287 0.07754 0.0
C1775 C 0.56839 0.41323 0.14909 0.0
C1776 C 0.55057 0.39111 0.14677 0.0
H1777 H 0.60253 0.43421 0.12993 0.0
H1778 H 0.56636 0.42783 0.16853 0.0
C1779 C 0.5537 0.37325 0.12023 0.0
C1780 C 0.90544 0.33759 0.35963 0.0
C1781 C 0.88143 0.33835 0.34136 0.0
H1782 H 0.92736 0.31865 0.39843 0.0
C1783 C 0.86125 0.31892 0.34796 0.0
H1784 H 0.92111 0.35262 0.35577 0.0
C1785 C 0.86454 0.29971 0.37271 0.0
C1786 C 0.88812 0.29934 0.39189 0.0
H1787 H 0.84236 0.31911 0.33461 0.0
H1788 H 0.84795 0.28588 0.37765 0.0
C1789 C 0.90876 0.31833 0.38455 0.0
C1790 C 0.94088 0.60877 0.61428 0.0
C1791 C 0.93563 0.62865 0.59059 0.0
H1792 H 0.9646 0.59607 0.65467 0.0
C1793 C 0.9524 0.65177 0.58981 0.0
H1794 H 0.92871 0.59049 0.61563 0.0
C1795 C 0.97328 0.65513 0.61296 0.0
C1796 C 0.97777 0.63544 0.63731 0.0
H1797 H 0.94923 0.6673 0.57169 0.0
H1798 H 0.98544 0.67343 0.61225 0.0
C1799 C 0.96148 0.61206 0.63707 0.0
C1800 C 0.67268 0.33482 0.71347 0.0
C1801 C 0.65134 0.34161 0.73472 0.0
H1802 H 0.68686 0.31015 0.6745 0.0
C1803 C 0.62748 0.32596 0.73347 0.0
H1804 H 0.69149 0.34622 0.71361 0.0
C1805 C 0.6247 0.30501 0.7103 0.0
C1806 C 0.646 0.29884 0.68849 0.0
H1807 H 0.61085 0.33018 0.74983 0.0
H1808 H 0.60589 0.29368 0.7094 0.0
C1809 C 0.67012 0.31387 0.69093 0.0
C1810 C 0.96157 0.39625 0.98909 0.0
C1811 C 0.93523 0.3868 0.98282 0.0
H1812 H 1.00177 0.40284 0.97056 0.0
C1813 C 0.92984 0.37492 0.95263 0.0
H1814 H 0.96606 0.40625 1.01181 0.0
C1815 C 0.95005 0.37325 0.92882 0.0
C1816 C 0.97619 0.38387 0.93432 0.0
H1817 H 0.90952 0.36838 0.94663 0.0
H1818 H 0.94459 0.36518 0.90534 0.0
C1819 C 0.98187 0.39469 0.96519 0.0
C1820 C 0.85881 0.71085 0.18137 0.0
C1821 C 0.88184 0.72759 0.18234 0.0
H1822 H 0.8376 0.67697 0.20103 0.0
C1823 C 0.90143 0.72248 0.20656 0.0
H1824 H 0.84349 0.71368 0.16292 0.0
C1825 C 0.89794 0.70108 0.22904 0.0
C1826 C 0.87506 0.68407 0.22732 0.0
H1827 H 0.91937 0.73508 0.20824 0.0
H1828 H 0.91318 0.69778 0.24743 0.0
C1829 C 0.85553 0.68953 0.20332 0.0
C1830 C 0.56717 0.61534 0.4908 0.0
C1831 C 0.58751 0.63528 0.49316 0.0
H1832 H 0.532 0.60083 0.46578 0.0
C1833 C 0.58702 0.65698 0.47108 0.0
H1834 H 0.56705 0.59822 0.50726 0.0
C1835 C 0.56701 0.65835 0.44683 0.0
C1836 C 0.54701 0.63795 0.44388 0.0
H1837 H 0.60287 0.67214 0.4714 0.0
H1838 H 0.56796 0.67485 0.42956 0.0
C1839 C 0.54719 0.61669 0.46668 0.0
C1840 C 0.40476 0.30139 0.21259 0.0
C1841 C 0.38526 0.29619 0.18824 0.0
H1842 H 0.41626 0.32594 0.25373 0.0
C1843 C 0.36203 0.31266 0.18754 0.0
H1844 H 0.42286 0.28905 0.21415 0.0
C1845 C 0.35846 0.33367 0.20986 0.0
C1846 C 0.37789 0.33921 0.23395 0.0
H1847 H 0.34676 0.30986 0.16903 0.0
H1848 H 0.34036 0.34598 0.20773 0.0
C1849 C 0.40101 0.32253 0.23536 0.0
C1850 C 0.46356 0.61151 0.93943 0.0
C1851 C 0.47989 0.63484 0.94001 0.0
H1852 H 0.42964 0.59025 0.95891 0.0
C1853 C 0.47405 0.6549 0.96349 0.0
H1854 H 0.46694 0.5958 0.92155 0.0
C1855 C 0.45227 0.65163 0.98553 0.0
C1856 C 0.43562 0.62847 0.98409 0.0
H1857 H 0.48632 0.67309 0.96486 0.0
H1858 H 0.44834 0.66727 1.00328 0.0
C1859 C 0.44189 0.60843 0.96094 0.0
C1860 C 0.16649 0.71542 0.68624 0.0
C1861 C 0.14231 0.73043 0.68554 0.0
H1862 H 0.18897 0.68317 0.70759 0.0
C1863 C 0.12206 0.72415 0.7087 0.0
H1864 H 0.18241 0.7192 0.66869 0.0
C1865 C 0.12592 0.70318 0.73157 0.0
C1866 C 0.14988 0.68774 0.73133 0.0
H1867 H 0.10324 0.73545 0.70915 0.0
H1868 H 0.11008 0.69886 0.74902 0.0
C1869 C 0.17017 0.6945 0.70862 0.0
C1870 C 0.07643 0.37959 0.41867 0.0
C1871 C 0.04885 0.37939 0.42753 0.0
H1872 H 0.11751 0.3854 0.43379 0.0
C1873 C 0.04221 0.38194 0.46065 0.0
H1874 H 0.08241 0.37808 0.39349 0.0
C1875 C 0.06265 0.38565 0.48405 0.0
C1876 C 0.09 0.38728 0.47462 0.0
H1877 H 0.02119 0.38178 0.46835 0.0
H1878 H 0.05697 0.38888 0.5091 0.0
C1879 C 0.09663 0.38375 0.44183 0.0
C1880 C 0.40541 0.72024 0.3704 0.0
C1881 C 0.38429 0.72591 0.39264 0.0
H1882 H 0.41918 0.69555 0.33038 0.0
C1883 C 0.36059 0.71017 0.39086 0.0
H1884 H 0.42392 0.73207 0.37082 0.0
C1885 C 0.35814 0.68922 0.36828 0.0
C1886 C 0.37919 0.68313 0.34632 0.0
H1887 H 0.34404 0.71345 0.40769 0.0
H1888 H 0.3396 0.6774 0.36852 0.0
C1889 C 0.40276 0.69926 0.34722 0.0
C1890 C 0.08152 0.60759 0.11518 0.0
C1891 C 0.08876 0.62846 0.09345 0.0
H1892 H 0.05557 0.59389 0.15326 0.0
C1893 C 0.07264 0.65199 0.09298 0.0
H1894 H 0.09328 0.58907 0.11643 0.0
C1895 C 0.05059 0.65483 0.11474 0.0
C1896 C 0.04388 0.63398 0.13698 0.0
H1897 H 0.07735 0.66834 0.07641 0.0
H1898 H 0.03884 0.67337 0.11422 0.0
C1899 C 0.05957 0.61025 0.13639 0.0
C1900 C 0.11359 0.3363 0.85727 0.0
C1901 C 0.13245 0.33617 0.83165 0.0
H1902 H 0.09997 0.3179 0.90128 0.0
C1903 C 0.15099 0.31457 0.82975 0.0
H1904 H 0.09909 0.35269 0.8596 0.0
C1905 C 0.15148 0.29435 0.85384 0.0
C1906 C 0.1334 0.29518 0.88039 0.0
H1907 H 0.16584 0.31387 0.81041 0.0
H1908 H 0.16641 0.27833 0.85195 0.0
C1909 C 0.11405 0.31617 0.88123 0.0
C1910 C 0.46196 0.41393 0.64155 0.0
C1911 C 0.47573 0.38924 0.64554 0.0
H1912 H 0.42979 0.43546 0.61879 0.0
C1913 C 0.46799 0.36717 0.62571 0.0
H1914 H 0.46771 0.43167 0.6554 0.0
C1915 C 0.44612 0.36952 0.6038 0.0
C1916 C 0.43147 0.3939 0.60151 0.0
H1917 H 0.47814 0.3478 0.62796 0.0
H1918 H 0.44013 0.35206 0.58971 0.0
C1919 C 0.44021 0.41615 0.62015 0.0
C1920 C 0.08928 0.02795 0.28099 0.0
C1921 C 0.11385 0.04257 0.28091 0.0
H1922 H 0.06979 0.98899 0.28461 0.0
C1923 C 0.13821 0.02795 0.28427 0.0
H1924 H 0.07012 0.03854 0.27895 0.0
C1925 C 0.13804 0.99946 0.2869 0.0
C1926 C 0.11346 0.98489 0.28755 0.0
H1927 H 0.15745 0.0386 0.28465 0.0
H1928 H 0.15718 0.98878 0.2887 0.0
C1929 C 0.08908 0.99955 0.28469 0.0
C1930 C 0.24758 0.88291 0.53612 0.0
C1931 C 0.233 0.85833 0.53536 0.0
H1932 H 0.28669 0.90228 0.53935 0.0
C1933 C 0.24753 0.83396 0.53891 0.0
H1934 H 0.23698 0.90204 0.53378 0.0
C1935 C 0.27582 0.83416 0.54343 0.0
C1936 C 0.29048 0.85871 0.54369 0.0
H1937 H 0.23695 0.81469 0.53891 0.0
H1938 H 0.2863 0.81499 0.54602 0.0
C1939 C 0.27601 0.88306 0.53961 0.0
C1940 C 0.43881 0.99663 0.79524 0.0
C1941 C 0.41425 0.98232 0.79193 0.0
H1942 H 0.45834 0.03515 0.80211 0.0
C1943 C 0.38985 0.99715 0.79315 0.0
H1944 H 0.45797 0.98591 0.79486 0.0
C1945 C 0.39007 0.02561 0.79677 0.0
C1946 C 0.41464 0.03986 0.8005 0.0
H1947 H 0.37058 0.98674 0.79098 0.0
H1948 H 0.37099 0.0365 0.79672 0.0
C1949 C 0.43898 0.0249 0.79987 0.0
C1950 C 0.25205 0.14201 0.04126 0.0
C1951 C 0.23801 0.16681 0.04251 0.0
H1952 H 0.29091 0.12211 0.03908 0.0
C1953 C 0.25313 0.19102 0.04069 0.0
H1954 H 0.24099 0.12303 0.04228 0.0
C1955 C 0.28149 0.1905 1.03749 0.0
C1956 C 0.29562 0.16575 1.0369 0.0
H1957 H 0.24298 0.2105 0.04111 0.0
H1958 H 0.29242 0.20955 1.03626 0.0
C1959 C 0.28058 0.1415 0.03914 0.0
C1960 C 0.94509 0.02654 0.78649 0.0
C1961 C 0.92077 0.04145 0.78496 0.0
H1962 H 0.96379 0.98728 0.79049 0.0
C1963 C 0.89607 0.02712 0.78611 0.0
H1964 H 0.96447 0.0369 0.78608 0.0
C1965 C 0.89569 0.99861 0.78808 0.0
C1966 C 0.91999 0.98372 0.79009 0.0
H1967 H 0.877 0.03799 0.78526 0.0
H1968 H 0.87634 0.98817 0.78822 0.0
C1969 C 0.94469 0.99808 0.78943 0.0
C1970 C 0.7524 0.19 0.53909 0.0
C1971 C 0.73767 0.16573 0.53531 0.0
H1972 H 0.79122 0.20877 0.54649 0.0
C1973 C 0.75201 0.14106 0.53612 0.0
H1974 H 0.74201 0.20935 0.5391 0.0
C1975 C 0.78047 0.14076 0.53971 0.0
C1976 C 0.7951 0.16505 0.54395 0.0
H1977 H 0.74124 0.12202 0.53363 0.0
H1978 H 0.79104 0.12151 0.53938 0.0
C1979 C 0.78063 0.18965 0.54378 0.0
C1980 C 0.63678 0.03222 0.28968 0.0
C1981 C 0.61251 0.04724 0.28963 0.0
H1982 H 0.65535 0.99271 0.28735 0.0
C1983 C 0.58791 0.03317 0.28545 0.0
H1984 H 0.65608 0.04248 0.29251 0.0
C1985 C 0.58759 1.00487 0.28116 0.0
C1986 C 0.61181 0.98976 0.28177 0.0
H1987 H 0.56887 0.04409 0.28482 0.0
H1988 H 0.56825 0.99475 0.27812 0.0
C1989 C 0.63639 1.00377 0.28641 0.0
C1990 C 0.74829 0.836 1.03643 0.0
C1991 C 0.73376 0.86049 0.03907 0.0
H1992 H 0.78721 0.81678 1.03108 0.0
C1993 C 0.74848 0.88497 0.03846 0.0
H1994 H 0.73762 0.81678 1.03639 0.0
C1995 C 0.777 0.88494 1.03604 0.0
C1996 C 0.79149 0.86048 1.03292 0.0
H1997 H 0.73792 0.90418 0.04015 0.0
H1998 H 0.78774 0.90412 1.03643 0.0
C1999 C 0.77672 0.83601 1.03297 0.0
C2000 C 0.63382 0.528 0.78723 0.0
C2001 C 0.60933 0.5426 0.78576 0.0
H2002 H 0.65302 0.48884 0.78961 0.0
C2003 C 0.58481 0.52795 0.78687 0.0
H2004 H 0.65305 0.53866 0.78676 0.0
C2005 C 0.58479 0.49948 0.78977 0.0
C2006 C 0.60929 0.48486 0.7908 0.0
H2007 H 0.56557 0.53852 0.78625 0.0
H2008 H 0.56554 0.48888 0.79058 0.0
C2009 C 0.6338 0.49949 0.78914 0.0
C2010 C 0.77611 0.33484 1.03794 0.0
C2011 C 0.79155 0.35886 0.03902 0.0
H2012 H 0.73649 0.31686 1.03445 0.0
C2013 C 0.77781 0.38384 1.03755 0.0
H2014 H 0.78604 0.31526 0.0386 0.0
C2015 C 0.74929 0.38475 1.03587 0.0
C2016 C 0.73391 0.36072 1.0343 0.0
H2017 H 0.78912 0.40268 1.03806 0.0
H2018 H 0.73925 0.40428 1.03558 0.0
C2019 C 0.74771 0.33576 1.03515 0.0
C2020 C 0.88682 0.52683 0.2901 0.0
C2021 C 0.91126 0.54169 0.29038 0.0
H2022 H 0.86783 0.48746 0.28726 0.0
C2023 C 0.93574 0.52739 0.28654 0.0
H2024 H 0.8676 0.53727 0.29262 0.0
C2025 C 0.93578 0.49912 0.28209 0.0
C2026 C 0.9114 0.48416 0.28219 0.0
H2027 H 0.95491 0.53814 0.28613 0.0
H2028 H 0.95506 0.48889 0.27915 0.0
C2029 C 0.88692 0.49835 0.28671 0.0
C2030 C 0.74997 0.69304 0.54464 0.0
C2031 C 0.73471 0.66886 0.54544 0.0
H2032 H 0.78915 0.71166 0.53928 0.0
C2033 C 0.74861 0.64415 0.54142 0.0
H2034 H 0.74001 0.7125 0.5472 0.0
C2035 C 0.77706 0.64366 0.53745 0.0
C2036 C 0.7922 0.66791 0.53619 0.0
H2037 H 0.73749 0.62518 0.54158 0.0
H2038 H 0.78724 0.62428 0.53516 0.0
C2039 C 0.77819 0.6926 0.53967 0.0
C2040 C 0.44176 0.52515 0.28824 0.0
C2041 C 0.41744 0.54002 0.28614 0.0
H2042 H 0.46053 0.48602 0.29341 0.0
C2043 C 0.39277 0.52561 0.28739 0.0
H2044 H 0.46113 0.53554 0.28781 0.0
C2045 C 0.39244 0.49711 0.29004 0.0
C2046 C 0.41674 0.48229 0.29268 0.0
H2047 H 0.37367 0.53642 0.28616 0.0
H2048 H 0.37311 0.48662 0.29029 0.0
C2049 C 0.44141 0.49674 0.29187 0.0
C2050 C 0.27709 0.6403 0.04131 0.0
C2051 C 0.29165 0.66484 0.04329 0.0
H2052 H 0.23803 0.62098 1.03693 0.0
C2053 C 0.27703 0.68929 0.04072 0.0
H2054 H 0.28772 0.62112 0.04285 0.0
C2055 C 0.24873 0.68919 1.036 0.0
C2056 C 0.23411 0.66465 1.03453 0.0
H2057 H 0.28756 0.70857 0.04165 0.0
H2058 H 0.23821 0.7084 1.03419 0.0
C2059 C 0.24866 0.64022 1.03761 0.0
C2060 C 0.08684 0.50138 0.7764 0.0
C2061 C 0.11136 0.48672 0.77594 0.0
H2062 H 0.06741 0.54014 0.78123 0.0
C2063 C 0.13577 0.50116 0.77993 0.0
H2064 H 0.06761 0.49094 0.77395 0.0
C2065 C 0.13565 0.52959 0.78357 0.0
C2066 C 0.11107 0.54412 0.78456 0.0
H2067 H 0.15495 0.49046 0.78012 0.0
H2068 H 0.15479 0.54022 0.78588 0.0
C2069 C 0.08668 0.5296 0.78105 0.0
C2070 C 0.24454 0.38648 0.53831 0.0
C2071 C 0.22985 0.36201 0.53936 0.0
H2072 H 0.28386 0.40553 0.53637 0.0
C2073 C 0.24433 0.33748 0.53716 0.0
H2074 H 0.23398 0.4057 0.5396 0.0
C2075 C 0.27273 0.33741 0.53388 0.0
C2076 C 0.2875 0.36185 0.5336 0.0
H2077 H 0.23364 0.31827 0.53741 0.0
H2078 H 0.2832 0.31814 0.53247 0.0
C2079 C 0.27306 0.38638 0.53615 0.0
C2080 C 0.11393 0.15622 0.14229 0.0
C2081 C 0.14009 0.15764 0.12829 0.0
H2082 H 0.09018 0.14943 0.18577 0.0
C2083 C 0.16247 0.15528 0.14905 0.0
H2084 H 0.09619 0.15727 0.12693 0.0
C2085 C 0.1591 0.15075 0.18235 0.0
C2086 C 0.13315 0.14797 0.19654 0.0
H2087 H 0.18287 0.15586 0.13921 0.0
H2088 H 0.1772 0.1485 0.19686 0.0
C2089 C 0.11049 0.15154 0.17606 0.0
C2090 C 0.1586 0.87304 0.423 0.0
C2091 C 0.13576 0.8708 0.4432 0.0
H2092 H 0.17455 0.87936 0.37555 0.0
C2093 C 0.10994 0.87176 0.42834 0.0
H2094 H 0.17877 0.87276 0.43341 0.0
C2095 C 0.10732 0.87602 0.39434 0.0
C2096 C 0.13046 0.87956 0.37446 0.0
H2097 H 0.09183 0.87075 0.44317 0.0
H2098 H 0.08725 0.8779 0.38398 0.0
C2099 C 0.15606 0.87711 0.38952 0.0
C2100 C 0.40073 0.85597 0.68603 0.0
C2101 C 0.40272 0.88213 0.69988 0.0
H2102 H 0.39415 0.83225 0.64252 0.0
C2103 C 0.40166 0.90444 0.67878 0.0
H2104 H 0.40075 0.83827 0.70158 0.0
C2105 C 0.39786 0.90108 0.64535 0.0
C2106 C 0.3945 0.87517 0.63125 0.0
H2107 H 0.40269 0.92486 0.68841 0.0
H2108 H 0.39659 0.91922 0.63063 0.0
C2109 C 0.39676 0.85251 0.6521 0.0
C2110 C 0.40395 0.11533 0.90349 0.0
C2111 C 0.40821 0.13757 0.88289 0.0
H2112 H 0.39626 0.10069 0.95115 0.0
C2113 C 0.40944 0.16362 0.89718 0.0
H2114 H 0.40269 0.09503 0.89352 0.0
C2115 C 0.40521 0.16715 0.93108 0.0
C2116 C 0.39966 0.1447 0.95137 0.0
H2117 H 0.41217 0.18133 0.88199 0.0
H2118 H 0.40503 0.18746 0.94104 0.0
C2119 C 0.40003 0.11874 0.93684 0.0
C2120 C 0.90067 0.90851 0.89872 0.0
C2121 C 0.9051 0.88611 0.87839 0.0
H2122 H 0.8926 0.92359 0.94612 0.0
C2123 C 0.90615 0.86021 0.89313 0.0
H2124 H 0.89944 0.92872 0.88847 0.0
C2125 C 0.90173 0.85701 0.9271 0.0
C2126 C 0.8961 0.87964 0.9471 0.0
H2127 H 0.90893 0.84235 0.87825 0.0
H2128 H 0.90157 0.8368 0.93735 0.0
C2129 C 0.89648 0.90542 0.93213 0.0
C2130 C 0.90531 0.16864 0.68423 0.0
C2131 C 0.90993 0.14253 0.69723 0.0
H2132 H 0.89621 0.19246 0.64154 0.0
C2133 C 0.9111 0.12064 0.67555 0.0
H2134 H 0.90351 0.18588 0.7003 0.0
C2135 C 0.90679 0.12431 0.64227 0.0
C2136 C 0.90076 0.15003 0.62909 0.0
H2137 H 0.91408 0.10023 0.68464 0.0
H2138 H 0.90718 0.1065 0.62695 0.0
C2139 C 0.90093 0.17238 0.6505 0.0
C2140 C 0.62514 0.1288 0.43389 0.0
C2141 C 0.63325 0.15373 0.44764 0.0
H2142 H 0.61659 0.10594 0.39089 0.0
C2143 C 0.63574 0.17619 0.4266 0.0
H2144 H 0.62267 0.11102 0.449 0.0
C2145 C 0.6319 0.17319 0.3927 0.0
C2146 C 0.6251 0.14778 0.37914 0.0
H2147 H 0.64218 0.19565 0.43603 0.0
H2148 H 0.63574 0.19036 0.37696 0.0
C2149 C 0.6213 0.12588 0.40041 0.0
C2150 C 0.65538 0.8753 0.14984 0.0
C2151 C 0.63324 0.8749 0.12855 0.0
H2152 H 0.66989 0.88054 0.19803 0.0
C2153 C 0.60705 0.87824 0.14199 0.0
H2154 H 0.67583 0.87324 0.14044 0.0
C2155 C 0.60344 0.88291 0.17575 0.0
C2156 C 0.62599 0.88454 0.19676 0.0
H2157 H 0.58953 0.87875 0.12623 0.0
H2158 H 0.58322 0.88656 0.18504 0.0
C2159 C 0.65187 0.8798 0.18311 0.0
C2160 C 0.65149 0.6604 0.68918 0.0
C2161 C 0.62687 0.65041 0.70206 0.0
H2162 H 0.67449 0.67147 0.6469 0.0
C2163 C 0.60504 0.6468 0.68046 0.0
H2164 H 0.66885 0.66333 0.70485 0.0
C2165 C 0.60846 0.65142 0.64676 0.0
C2166 C 0.63355 0.66033 0.63398 0.0
H2167 H 0.58597 0.63866 0.68921 0.0
H2168 H 0.59193 0.6466 0.63051 0.0
C2169 C 0.65474 0.66527 0.65585 0.0
C2170 C 0.62032 0.36288 0.89605 0.0
C2171 C 0.62341 0.38843 0.88085 0.0
H2172 H 0.62278 0.33986 0.94077 0.0
C2173 C 0.62914 0.41078 0.9008 0.0
H2174 H 0.61635 0.34507 0.88149 0.0
C2175 C 0.63274 0.40789 0.93425 0.0
C2176 C 0.63115 0.38237 0.94971 0.0
H2177 H 0.63177 0.43075 0.89023 0.0
H2178 H 0.63771 0.42595 0.94788 0.0
C2179 C 0.62418 0.35988 0.9301 0.0
C2180 C 0.86559 0.37947 0.14774 0.0
C2181 C 0.88757 0.37197 0.12807 0.0
H2182 H 0.85097 0.39011 0.1945 0.0
C2183 C 0.91304 0.36834 0.14307 0.0
H2184 H 0.84573 0.38261 0.13715 0.0
C2185 C 0.9164 0.37322 0.17679 0.0
C2186 C 0.8943 0.3817 0.1962 0.0
H2187 H 0.93056 0.36304 0.12854 0.0
H2188 H 0.93636 0.37116 0.18737 0.0
C2189 C 0.86878 0.38399 0.18096 0.0
C2190 C 0.87177 0.65566 0.39016 0.0
C2191 C 0.89676 0.64849 0.37573 0.0
H2192 H 0.84935 0.66378 0.43371 0.0
C2193 C 0.91968 0.64735 0.39615 0.0
H2194 H 0.85355 0.65688 0.3756 0.0
C2195 C 0.91714 0.65154 0.43012 0.0
C2196 C 0.89172 0.65742 0.44441 0.0
H2197 H 0.9392 0.64156 0.38627 0.0
H2198 H 0.93472 0.6486 0.44539 0.0
C2199 C 0.86931 0.65992 0.42368 0.0
C2200 C 0.40222 0.35808 0.39726 0.0
C2201 C 0.40119 0.38397 0.38249 0.0
H2202 H 0.39742 0.33467 0.44145 0.0
C2203 C 0.39638 0.40635 0.40273 0.0
H2204 H 0.40529 0.34024 0.38244 0.0
C2205 C 0.39192 0.40325 0.43608 0.0
C2206 C 0.39162 0.37748 0.45111 0.0
H2207 H 0.39514 0.42655 0.39245 0.0
H2208 H 0.38783 0.42144 0.44996 0.0
C2209 C 0.39748 0.35487 0.43117 0.0
C2210 C 0.40035 0.66775 0.18607 0.0
C2211 C 0.40848 0.64253 0.19912 0.0
H2212 H 0.38846 0.69029 0.14338 0.0
C2213 C 0.41283 0.62108 0.17734 0.0
H2214 H 0.3959 0.6845 0.20218 0.0
C2215 C 0.40818 0.62423 0.14395 0.0
C2216 C 0.39892 0.64899 0.13081 0.0
H2217 H 0.41833 0.60121 0.18643 0.0
H2218 H 0.41079 0.60671 0.12846 0.0
C2219 C 0.39594 0.67105 0.1523 0.0
C2220 C 0.12232 0.66762 0.89148 0.0
C2221 C 0.12179 0.64178 0.87662 0.0
H2222 H 0.12766 0.69046 0.93592 0.0
C2223 C 0.12412 0.61902 0.89688 0.0
H2224 H 0.12126 0.6857 0.87664 0.0
C2225 C 0.12784 0.62168 0.9304 0.0
C2226 C 0.12979 0.64729 0.94552 0.0
H2227 H 0.12418 0.59882 0.8865 0.0
H2228 H 0.13015 0.60328 0.94436 0.0
C2229 C 0.12618 0.67035 0.92555 0.0
C2230 C 0.12518 0.41205 0.67292 0.0
C2231 C 0.11846 0.39025 0.6933 0.0
H2232 H 0.13492 0.42602 0.62558 0.0
C2233 C 0.11501 0.36446 0.67897 0.0
H2234 H 0.12812 0.43214 0.68297 0.0
C2235 C 0.11943 0.36061 0.64521 0.0
C2236 C 0.12731 0.38251 0.62514 0.0
H2237 H 0.1103 0.34709 0.69403 0.0
H2238 H 0.11765 0.34042 0.63514 0.0
C2239 C 0.12929 0.40835 0.6397 0.0
loop_
_geom_bond_atom_site_label_1
_geom_bond_atom_site_label_2
_geom_bond_distance
_geom_bond_site_symmetry_2
_ccdc_geom_bond_type
C0 Eu1 2.835 . S
C0 C2 1.500 . S
C0 O20 1.257 . S
C0 O21 1.260 . S
Eu1 C0 2.835 . S
Eu1 O20 2.473 . S
Eu1 O21 2.480 . S
Eu1 O22 2.430 . S
Eu1 O23 2.670 . S
Eu1 O24 2.394 . S
Eu1 O29 2.355 . S
Eu1 O31 2.374 . S
C2 C0 1.500 . S
C2 C3 1.377 . S
C2 C7 1.377 . S
C3 C2 1.377 . S
C3 C4 1.395 1_455 S
C3 H32 0.931 . S
C4 C3 1.395 1_655 S
C4 C5 1.383 . S
C4 H33 0.931 . S
C5 C4 1.383 . S
C5 C6 1.394 1_655 S
C6 C5 1.394 1_455 S
C6 C7 1.378 . S
C6 H34 0.931 . S
C7 C2 1.377 . S
C7 C6 1.378 . S
C7 H35 0.931 . S
C8 O22 1.259 . S
C8 O23 1.270 . S
C9 O24 1.251 . S
C9 O25 1.251 . S
C10 Eu11 2.835 . S
C10 C12 1.500 . S
C10 O26 1.257 . S
C10 O27 1.260 . S
Eu11 C10 2.835 . S
Eu11 O23 2.355 . S
Eu11 O25 2.374 . S
Eu11 O26 2.473 . S
Eu11 O27 2.480 . S
Eu11 O28 2.430 . S
Eu11 O29 2.670 . S
Eu11 O30 2.394 . S
C12 C10 1.500 . S
C12 C13 1.377 . S
C12 C17 1.377 . S
C13 C12 1.377 . S
C13 C14 1.395 . S
C13 H36 0.931 . S
C14 C13 1.395 . S
C14 C15 1.383 . S
C14 H37 0.931 . S
C15 C14 1.383 . S
C15 C16 1.394 . S
C16 C15 1.394 . S
C16 C17 1.378 . S
C16 H38 0.931 . S
C17 C12 1.377 . S
C17 C16 1.378 . S
C17 H39 0.931 . S
C18 O28 1.259 . S
C18 O29 1.270 . S
C19 O30 1.251 . S
C19 O31 1.251 . S
O20 C0 1.257 . S
O20 Eu1 2.473 . S
O21 C0 1.260 . S
O21 Eu1 2.480 . S
O22 Eu1 2.430 . S
O22 C8 1.259 . S
O23 Eu1 2.670 . S
O23 C8 1.270 . S
O23 Eu11 2.355 . S
O24 Eu1 2.394 . S
O24 C9 1.251 . S
O25 C9 1.251 . S
O25 Eu11 2.374 . S
O26 C10 1.257 . S
O26 Eu11 2.473 . S
O27 C10 1.260 . S
O27 Eu11 2.480 . S
O28 Eu11 2.430 . S
O28 C18 1.259 . S
O29 Eu1 2.355 . S
O29 Eu11 2.670 . S
O29 C18 1.270 . S
O30 Eu11 2.394 . S
O30 C19 1.251 . S
O31 Eu1 2.374 . S
O31 C19 1.251 . S
H32 C3 0.931 . S
H33 C4 0.931 . S
H34 C6 0.931 . S
H35 C7 0.931 . S
H36 C13 0.931 . S
H37 C14 0.931 . S
H38 C16 0.931 . S
H39 C17 0.931 . S
C40 Eu41 2.835 . S
C40 C42 1.500 . S
C40 O60 1.257 . S
C40 O61 1.260 . S
Eu41 C40 2.835 . S
Eu41 O60 2.473 . S
Eu41 O61 2.480 . S
Eu41 O62 2.430 . S
Eu41 O63 2.670 . S
Eu41 O64 2.394 . S
Eu41 O69 2.355 . S
Eu41 O71 2.374 . S
C42 C40 1.500 . S
C42 C43 1.377 . S
C42 C47 1.377 . S
C43 C42 1.377 . S
C43 C44 1.395 . S
C43 H72 0.931 . S
C44 C43 1.395 . S
C44 C45 1.383 . S
C44 H73 0.931 . S
C45 C44 1.383 . S
C45 C46 1.394 . S
C46 C45 1.394 . S
C46 C47 1.378 . S
C46 H74 0.931 . S
C47 C42 1.377 . S
C47 C46 1.378 . S
C47 H75 0.931 . S
C48 O62 1.259 . S
C48 O63 1.270 . S
C49 O64 1.251 . S
C49 O65 1.251 . S
C50 Eu51 2.835 . S
C50 C52 1.500 . S
C50 O66 1.257 . S
C50 O67 1.260 . S
Eu51 C50 2.835 . S
Eu51 O63 2.355 . S
Eu51 O65 2.374 . S
Eu51 O66 2.473 . S
Eu51 O67 2.480 . S
Eu51 O68 2.430 . S
Eu51 O69 2.670 . S
Eu51 O70 2.394 . S
C52 C50 1.500 . S
C52 C53 1.377 . S
C52 C57 1.377 . S
C53 C52 1.377 . S
C53 C54 1.395 1_565 S
C53 H76 0.931 . S
C54 C53 1.395 1_545 S
C54 C55 1.383 . S
C54 H77 0.931 . S
C55 C54 1.383 . S
C55 C56 1.394 1_545 S
C56 C55 1.394 1_565 S
C56 C57 1.378 . S
C56 H78 0.931 . S
C57 C52 1.377 . S
C57 C56 1.378 . S
C57 H79 0.931 . S
C58 O68 1.259 . S
C58 O69 1.270 . S
C59 O70 1.251 . S
C59 O71 1.251 . S
O60 C40 1.257 . S
O60 Eu41 2.473 . S
O61 C40 1.260 . S
O61 Eu41 2.480 . S
O62 Eu41 2.430 . S
O62 C48 1.259 . S
O63 Eu41 2.670 . S
O63 C48 1.270 . S
O63 Eu51 2.355 . S
O64 Eu41 2.394 . S
O64 C49 1.251 . S
O65 C49 1.251 . S
O65 Eu51 2.374 . S
O66 C50 1.257 . S
O66 Eu51 2.473 . S
O67 C50 1.260 . S
O67 Eu51 2.480 . S
O68 Eu51 2.430 . S
O68 C58 1.259 . S
O69 Eu41 2.355 . S
O69 Eu51 2.670 . S
O69 C58 1.270 . S
O70 Eu51 2.394 . S
O70 C59 1.251 . S
O71 Eu41 2.374 . S
O71 C59 1.251 . S
H72 C43 0.931 . S
H73 C44 0.931 . S
H74 C46 0.931 . S
H75 C47 0.931 . S
H76 C53 0.931 . S
H77 C54 0.931 . S
H78 C56 0.931 . S
H79 C57 0.931 . S
C80 Eu81 2.835 . S
C80 C82 1.500 . S
C80 O100 1.257 . S
C80 O101 1.260 . S
Eu81 C80 2.835 . S
Eu81 O100 2.473 . S
Eu81 O101 2.480 . S
Eu81 O102 2.430 . S
Eu81 O103 2.670 . S
Eu81 O104 2.394 . S
Eu81 O109 2.355 . S
Eu81 O111 2.374 . S
C82 C80 1.500 . S
C82 C83 1.377 . S
C82 C87 1.377 . S
C83 C82 1.377 . S
C83 C84 1.395 . S
C83 H112 0.931 . S
C84 C83 1.395 . S
C84 C85 1.383 . S
C84 H113 0.931 . S
C85 C84 1.383 . S
C85 C86 1.394 . S
C86 C85 1.394 . S
C86 C87 1.378 . S
C86 H114 0.931 . S
C87 C82 1.377 . S
C87 C86 1.378 . S
C87 H115 0.931 . S
C88 O102 1.259 . S
C88 O103 1.270 . S
C89 O104 1.251 . S
C89 O105 1.251 . S
C90 Eu91 2.835 . S
C90 C92 1.500 . S
C90 O106 1.257 . S
C90 O107 1.260 . S
Eu91 C90 2.835 . S
Eu91 O103 2.355 . S
Eu91 O105 2.374 . S
Eu91 O106 2.473 . S
Eu91 O107 2.480 . S
Eu91 O108 2.430 . S
Eu91 O109 2.670 . S
Eu91 O110 2.394 . S
C92 C90 1.500 . S
C92 C93 1.377 . S
C92 C97 1.377 . S
C93 C92 1.377 . S
C93 C94 1.395 . S
C93 H116 0.931 . S
C94 C93 1.395 . S
C94 C95 1.383 . S
C94 H117 0.931 . S
C95 C94 1.383 . S
C95 C96 1.394 . S
C96 C95 1.394 . S
C96 C97 1.378 . S
C96 H118 0.931 . S
C97 C92 1.377 . S
C97 C96 1.378 . S
C97 H119 0.931 . S
C98 O108 1.259 . S
C98 O109 1.270 . S
C99 O110 1.251 . S
C99 O111 1.251 . S
O100 C80 1.257 . S
O100 Eu81 2.473 . S
O101 C80 1.260 . S
O101 Eu81 2.480 . S
O102 Eu81 2.430 . S
O102 C88 1.259 . S
O103 Eu81 2.670 . S
O103 C88 1.270 . S
O103 Eu91 2.355 . S
O104 Eu81 2.394 . S
O104 C89 1.251 . S
O105 C89 1.251 . S
O105 Eu91 2.374 . S
O106 C90 1.257 . S
O106 Eu91 2.473 . S
O107 C90 1.260 . S
O107 Eu91 2.480 . S
O108 Eu91 2.430 . S
O108 C98 1.259 . S
O109 Eu81 2.355 . S
O109 Eu91 2.670 . S
O109 C98 1.270 . S
O110 Eu91 2.394 . S
O110 C99 1.251 . S
O111 Eu81 2.374 . S
O111 C99 1.251 . S
H112 C83 0.931 . S
H113 C84 0.931 . S
H114 C86 0.931 . S
H115 C87 0.931 . S
H116 C93 0.931 . S
H117 C94 0.931 . S
H118 C96 0.931 . S
H119 C97 0.931 . S
C120 Eu121 2.835 . S
C120 C122 1.500 . S
C120 O140 1.257 . S
C120 O141 1.260 . S
Eu121 C120 2.835 . S
Eu121 O140 2.473 . S
Eu121 O141 2.480 . S
Eu121 O142 2.434 . S
Eu121 O143 2.660 1_554 S
Eu121 O144 2.394 . S
Eu121 O149 2.355 . S
Eu121 O151 2.374 1_554 S
C122 C120 1.500 . S
C122 C123 1.377 . S
C122 C127 1.377 . S
C123 C122 1.377 . S
C123 C124 1.395 . S
C123 H152 0.931 . S
C124 C123 1.395 . S
C124 C125 1.383 . S
C124 H153 0.931 . S
C125 C124 1.383 . S
C125 C126 1.394 . S
C126 C125 1.394 . S
C126 C127 1.378 . S
C126 H154 0.931 . S
C127 C122 1.377 . S
C127 C126 1.378 . S
C127 H155 0.931 . S
C128 O142 1.258 1_556 S
C128 O143 1.274 . S
C129 O144 1.251 . S
C129 O145 1.251 . S
C130 Eu131 2.835 1_556 S
C130 C132 1.500 . S
C130 O146 1.257 . S
C130 O147 1.260 . S
Eu131 C130 2.835 1_554 S
Eu131 O143 2.345 1_554 S
Eu131 O145 2.374 . S
Eu131 O146 2.473 1_554 S
Eu131 O147 2.480 1_554 S
Eu131 O148 2.430 . S
Eu131 O149 2.670 . S
Eu131 O150 2.394 1_554 S
C132 C130 1.500 . S
C132 C133 1.377 . S
C132 C137 1.377 . S
C133 C132 1.377 . S
C133 C134 1.395 1_545 S
C133 H156 0.931 . S
C134 C133 1.395 1_565 S
C134 C135 1.383 . S
C134 H157 0.931 . S
C135 C134 1.383 . S
C135 C136 1.394 1_565 S
C136 C135 1.394 1_545 S
C136 C137 1.378 . S
C136 H158 0.931 . S
C137 C132 1.377 . S
C137 C136 1.378 . S
C137 H159 0.931 . S
C138 O148 1.259 . S
C138 O149 1.270 . S
C139 O150 1.251 . S
C139 O151 1.251 . S
O140 C120 1.257 . S
O140 Eu121 2.473 . S
O141 C120 1.260 . S
O141 Eu121 2.480 . S
O142 Eu121 2.434 . S
O142 C128 1.258 1_554 S
O143 Eu121 2.660 1_556 S
O143 C128 1.274 . S
O143 Eu131 2.345 1_556 S
O144 Eu121 2.394 . S
O144 C129 1.251 . S
O145 C129 1.251 . S
O145 Eu131 2.374 . S
O146 C130 1.257 . S
O146 Eu131 2.473 1_556 S
O147 C130 1.260 . S
O147 Eu131 2.480 1_556 S
O148 Eu131 2.430 . S
O148 C138 1.259 . S
O149 Eu121 2.355 . S
O149 Eu131 2.670 . S
O149 C138 1.270 . S
O150 Eu131 2.394 1_556 S
O150 C139 1.251 . S
O151 Eu121 2.374 1_556 S
O151 C139 1.251 . S
H152 C123 0.931 . S
H153 C124 0.931 . S
H154 C126 0.931 . S
H155 C127 0.931 . S
H156 C133 0.931 . S
H157 C134 0.931 . S
H158 C136 0.931 . S
H159 C137 0.931 . S
C160 Eu161 2.835 . S
C160 C162 1.500 . S
C160 O180 1.257 . S
C160 O181 1.260 . S
Eu161 C160 2.835 . S
Eu161 O180 2.473 . S
Eu161 O181 2.480 . S
Eu161 O182 2.430 . S
Eu161 O183 2.670 . S
Eu161 O184 2.394 . S
Eu161 O189 2.355 . S
Eu161 O191 2.374 . S
C162 C160 1.500 . S
C162 C163 1.377 . S
C162 C167 1.377 . S
C163 C162 1.377 . S
C163 C164 1.395 1_455 S
C163 H192 0.931 . S
C164 C163 1.395 1_655 S
C164 C165 1.383 . S
C164 H193 0.931 . S
C165 C164 1.383 . S
C165 C166 1.394 1_655 S
C166 C165 1.394 1_455 S
C166 C167 1.378 . S
C166 H194 0.931 . S
C167 C162 1.377 . S
C167 C166 1.378 . S
C167 H195 0.931 . S
C168 O182 1.259 . S
C168 O183 1.270 . S
C169 O184 1.251 . S
C169 O185 1.251 . S
C170 Eu171 2.835 . S
C170 C172 1.500 . S
C170 O186 1.257 . S
C170 O187 1.260 . S
Eu171 C170 2.835 . S
Eu171 O183 2.355 . S
Eu171 O185 2.374 . S
Eu171 O186 2.473 . S
Eu171 O187 2.480 . S
Eu171 O188 2.430 . S
Eu171 O189 2.670 . S
Eu171 O190 2.394 . S
C172 C170 1.500 . S
C172 C173 1.377 . S
C172 C177 1.377 . S
C173 C172 1.377 . S
C173 C174 1.395 . S
C173 H196 0.931 . S
C174 C173 1.395 . S
C174 C175 1.383 . S
C174 H197 0.931 . S
C175 C174 1.383 . S
C175 C176 1.394 . S
C176 C175 1.394 . S
C176 C177 1.378 . S
C176 H198 0.931 . S
C177 C172 1.377 . S
C177 C176 1.378 . S
C177 H199 0.931 . S
C178 O188 1.259 . S
C178 O189 1.270 . S
C179 O190 1.251 . S
C179 O191 1.251 . S
O180 C160 1.257 . S
O180 Eu161 2.473 . S
O181 C160 1.260 . S
O181 Eu161 2.480 . S
O182 Eu161 2.430 . S
O182 C168 1.259 . S
O183 Eu161 2.670 . S
O183 C168 1.270 . S
O183 Eu171 2.355 . S
O184 Eu161 2.394 . S
O184 C169 1.251 . S
O185 C169 1.251 . S
O185 Eu171 2.374 . S
O186 C170 1.257 . S
O186 Eu171 2.473 . S
O187 C170 1.260 . S
O187 Eu171 2.480 . S
O188 Eu171 2.430 . S
O188 C178 1.259 . S
O189 Eu161 2.355 . S
O189 Eu171 2.670 . S
O189 C178 1.270 . S
O190 Eu171 2.394 . S
O190 C179 1.251 . S
O191 Eu161 2.374 . S
O191 C179 1.251 . S
H192 C163 0.931 . S
H193 C164 0.931 . S
H194 C166 0.931 . S
H195 C167 0.931 . S
H196 C173 0.931 . S
H197 C174 0.931 . S
H198 C176 0.931 . S
H199 C177 0.931 . S
C200 Eu201 2.835 . S
C200 C202 1.500 . S
C200 O220 1.257 . S
C200 O221 1.260 . S
Eu201 C200 2.835 . S
Eu201 O220 2.473 . S
Eu201 O221 2.480 . S
Eu201 O222 2.430 . S
Eu201 O223 2.670 . S
Eu201 O224 2.394 . S
Eu201 O229 2.355 . S
Eu201 O231 2.374 . S
C202 C200 1.500 . S
C202 C203 1.377 . S
C202 C207 1.377 . S
C203 C202 1.377 . S
C203 C204 1.395 . S
C203 H232 0.931 . S
C204 C203 1.395 . S
C204 C205 1.383 . S
C204 H233 0.931 . S
C205 C204 1.383 . S
C205 C206 1.394 . S
C206 C205 1.394 . S
C206 C207 1.378 . S
C206 H234 0.931 . S
C207 C202 1.377 . S
C207 C206 1.378 . S
C207 H235 0.931 . S
C208 O222 1.259 . S
C208 O223 1.270 . S
C209 O224 1.251 . S
C209 O225 1.251 . S
C210 Eu211 2.835 . S
C210 C212 1.500 . S
C210 O226 1.257 . S
C210 O227 1.260 . S
Eu211 C210 2.835 . S
Eu211 O223 2.355 . S
Eu211 O225 2.374 . S
Eu211 O226 2.473 . S
Eu211 O227 2.480 . S
Eu211 O228 2.430 . S
Eu211 O229 2.670 . S
Eu211 O230 2.394 . S
C212 C210 1.500 . S
C212 C213 1.377 . S
C212 C217 1.377 . S
C213 C212 1.377 . S
C213 C214 1.395 1_565 S
C213 H236 0.931 . S
C214 C213 1.395 1_545 S
C214 C215 1.383 . S
C214 H237 0.931 . S
C215 C214 1.383 . S
C215 C216 1.394 1_545 S
C216 C215 1.394 1_565 S
C216 C217 1.378 . S
C216 H238 0.931 . S
C217 C212 1.377 . S
C217 C216 1.378 . S
C217 H239 0.931 . S
C218 O228 1.259 . S
C218 O229 1.270 . S
C219 O230 1.251 . S
C219 O231 1.251 . S
O220 C200 1.257 . S
O220 Eu201 2.473 . S
O221 C200 1.260 . S
O221 Eu201 2.480 . S
O222 Eu201 2.430 . S
O222 C208 1.259 . S
O223 Eu201 2.670 . S
O223 C208 1.270 . S
O223 Eu211 2.355 . S
O224 Eu201 2.394 . S
O224 C209 1.251 . S
O225 C209 1.251 . S
O225 Eu211 2.374 . S
O226 C210 1.257 . S
O226 Eu211 2.473 . S
O227 C210 1.260 . S
O227 Eu211 2.480 . S
O228 Eu211 2.430 . S
O228 C218 1.259 . S
O229 Eu201 2.355 . S
O229 Eu211 2.670 . S
O229 C218 1.270 . S
O230 Eu211 2.394 . S
O230 C219 1.251 . S
O231 Eu201 2.374 . S
O231 C219 1.251 . S
H232 C203 0.931 . S
H233 C204 0.931 . S
H234 C206 0.931 . S
H235 C207 0.931 . S
H236 C213 0.931 . S
H237 C214 0.931 . S
H238 C216 0.931 . S
H239 C217 0.931 . S
C240 Eu241 2.835 . S
C240 C242 1.500 . S
C240 O260 1.257 . S
C240 O261 1.260 . S
Eu241 C240 2.835 . S
Eu241 O260 2.473 . S
Eu241 O261 2.480 . S
Eu241 O262 2.430 . S
Eu241 O263 2.670 . S
Eu241 O264 2.394 . S
Eu241 O269 2.355 . S
Eu241 O271 2.374 . S
C242 C240 1.500 . S
C242 C243 1.377 . S
C242 C247 1.377 . S
C243 C242 1.377 . S
C243 C244 1.395 . S
C243 H272 0.931 . S
C244 C243 1.395 . S
C244 C245 1.383 . S
C244 H273 0.931 . S
C245 C244 1.383 . S
C245 C246 1.394 . S
C246 C245 1.394 . S
C246 C247 1.378 . S
C246 H274 0.931 . S
C247 C242 1.377 . S
C247 C246 1.378 . S
C247 H275 0.931 . S
C248 O262 1.259 . S
C248 O263 1.270 . S
C249 O264 1.251 . S
C249 O265 1.251 . S
C250 Eu251 2.835 . S
C250 C252 1.500 . S
C250 O266 1.257 . S
C250 O267 1.260 . S
Eu251 C250 2.835 . S
Eu251 O263 2.355 . S
Eu251 O265 2.374 . S
Eu251 O266 2.473 . S
Eu251 O267 2.480 . S
Eu251 O268 2.430 . S
Eu251 O269 2.670 . S
Eu251 O270 2.394 . S
C252 C250 1.500 . S
C252 C253 1.377 . S
C252 C257 1.377 . S
C253 C252 1.377 . S
C253 C254 1.395 . S
C253 H276 0.931 . S
C254 C253 1.395 . S
C254 C255 1.383 . S
C254 H277 0.931 . S
C255 C254 1.383 . S
C255 C256 1.394 . S
C256 C255 1.394 . S
C256 C257 1.378 . S
C256 H278 0.931 . S
C257 C252 1.377 . S
C257 C256 1.378 . S
C257 H279 0.931 . S
C258 O268 1.259 . S
C258 O269 1.270 . S
C259 O270 1.251 . S
C259 O271 1.251 . S
O260 C240 1.257 . S
O260 Eu241 2.473 . S
O261 C240 1.260 . S
O261 Eu241 2.480 . S
O262 Eu241 2.430 . S
O262 C248 1.259 . S
O263 Eu241 2.670 . S
O263 C248 1.270 . S
O263 Eu251 2.355 . S
O264 Eu241 2.394 . S
O264 C249 1.251 . S
O265 C249 1.251 . S
O265 Eu251 2.374 . S
O266 C250 1.257 . S
O266 Eu251 2.473 . S
O267 C250 1.260 . S
O267 Eu251 2.480 . S
O268 Eu251 2.430 . S
O268 C258 1.259 . S
O269 Eu241 2.355 . S
O269 Eu251 2.670 . S
O269 C258 1.270 . S
O270 Eu251 2.394 . S
O270 C259 1.251 . S
O271 Eu241 2.374 . S
O271 C259 1.251 . S
H272 C243 0.931 . S
H273 C244 0.931 . S
H274 C246 0.931 . S
H275 C247 0.931 . S
H276 C253 0.931 . S
H277 C254 0.931 . S
H278 C256 0.931 . S
H279 C257 0.931 . S
C280 Eu281 2.835 . S
C280 C282 1.500 . S
C280 O300 1.257 . S
C280 O301 1.260 . S
Eu281 C280 2.835 . S
Eu281 O300 2.473 . S
Eu281 O301 2.480 . S
Eu281 O302 2.434 . S
Eu281 O303 2.660 1_556 S
Eu281 O304 2.394 . S
Eu281 O309 2.355 . S
Eu281 O311 2.374 1_556 S
C282 C280 1.500 . S
C282 C283 1.377 . S
C282 C287 1.377 . S
C283 C282 1.377 . S
C283 C284 1.395 . S
C283 H312 0.931 . S
C284 C283 1.395 . S
C284 C285 1.383 . S
C284 H313 0.931 . S
C285 C284 1.383 . S
C285 C286 1.394 . S
C286 C285 1.394 . S
C286 C287 1.378 . S
C286 H314 0.931 . S
C287 C282 1.377 . S
C287 C286 1.378 . S
C287 H315 0.931 . S
C288 O302 1.258 1_554 S
C288 O303 1.274 . S
C289 O304 1.251 . S
C289 O305 1.251 . S
C290 Eu291 2.835 1_554 S
C290 C292 1.500 . S
C290 O306 1.257 . S
C290 O307 1.260 . S
Eu291 C290 2.835 1_556 S
Eu291 O303 2.345 1_556 S
Eu291 O305 2.374 . S
Eu291 O306 2.473 1_556 S
Eu291 O307 2.480 1_556 S
Eu291 O308 2.430 . S
Eu291 O309 2.670 . S
Eu291 O310 2.394 1_556 S
C292 C290 1.500 . S
C292 C293 1.377 . S
C292 C297 1.377 . S
C293 C292 1.377 . S
C293 C294 1.395 1_545 S
C293 H316 0.931 . S
C294 C293 1.395 1_565 S
C294 C295 1.383 . S
C294 H317 0.931 . S
C295 C294 1.383 . S
C295 C296 1.394 1_565 S
C296 C295 1.394 1_545 S
C296 C297 1.378 . S
C296 H318 0.931 . S
C297 C292 1.377 . S
C297 C296 1.378 . S
C297 H319 0.931 . S
C298 O308 1.259 . S
C298 O309 1.270 . S
C299 O310 1.251 . S
C299 O311 1.251 . S
O300 C280 1.257 . S
O300 Eu281 2.473 . S
O301 C280 1.260 . S
O301 Eu281 2.480 . S
O302 Eu281 2.434 . S
O302 C288 1.258 1_556 S
O303 Eu281 2.660 1_554 S
O303 C288 1.274 . S
O303 Eu291 2.345 1_554 S
O304 Eu281 2.394 . S
O304 C289 1.251 . S
O305 C289 1.251 . S
O305 Eu291 2.374 . S
O306 C290 1.257 . S
O306 Eu291 2.473 1_554 S
O307 C290 1.260 . S
O307 Eu291 2.480 1_554 S
O308 Eu291 2.430 . S
O308 C298 1.259 . S
O309 Eu281 2.355 . S
O309 Eu291 2.670 . S
O309 C298 1.270 . S
O310 Eu291 2.394 1_554 S
O310 C299 1.251 . S
O311 Eu281 2.374 1_554 S
O311 C299 1.251 . S
H312 C283 0.931 . S
H313 C284 0.931 . S
H314 C286 0.931 . S
H315 C287 0.931 . S
H316 C293 0.931 . S
H317 C294 0.931 . S
H318 C296 0.931 . S
H319 C297 0.931 . S
C320 Eu321 2.835 . S
C320 C322 1.500 . S
C320 O340 1.257 . S
C320 O341 1.260 . S
Eu321 C320 2.835 . S
Eu321 O340 2.473 . S
Eu321 O341 2.480 . S
Eu321 O342 2.430 . S
Eu321 O343 2.670 . S
Eu321 O344 2.394 . S
Eu321 O349 2.355 . S
Eu321 O351 2.374 . S
C322 C320 1.500 . S
C322 C323 1.377 . S
C322 C327 1.377 . S
C323 C322 1.377 . S
C323 C324 1.395 . S
C323 H352 0.931 . S
C324 C323 1.395 . S
C324 C325 1.383 . S
C324 H353 0.931 . S
C325 C324 1.383 . S
C325 C326 1.394 . S
C326 C325 1.394 . S
C326 C327 1.378 . S
C326 H354 0.931 . S
C327 C322 1.377 . S
C327 C326 1.378 . S
C327 H355 0.931 . S
C328 O342 1.259 . S
C328 O343 1.270 . S
C329 O344 1.251 . S
C329 O345 1.251 . S
C330 Eu331 2.835 . S
C330 C332 1.500 . S
C330 O346 1.257 . S
C330 O347 1.260 . S
Eu331 C330 2.835 . S
Eu331 O343 2.355 . S
Eu331 O345 2.374 . S
Eu331 O346 2.473 . S
Eu331 O347 2.480 . S
Eu331 O348 2.430 . S
Eu331 O349 2.670 . S
Eu331 O350 2.394 . S
C332 C330 1.500 . S
C332 C333 1.377 . S
C332 C337 1.377 . S
C333 C332 1.377 . S
C333 C334 1.395 1_655 S
C333 H356 0.931 . S
C334 C333 1.395 1_455 S
C334 C335 1.383 . S
C334 H357 0.931 . S
C335 C334 1.383 . S
C335 C336 1.394 1_455 S
C336 C335 1.394 1_655 S
C336 C337 1.378 . S
C336 H358 0.931 . S
C337 C332 1.377 . S
C337 C336 1.378 . S
C337 H359 0.931 . S
C338 O348 1.259 . S
C338 O349 1.270 . S
C339 O350 1.251 . S
C339 O351 1.251 . S
O340 C320 1.257 . S
O340 Eu321 2.473 . S
O341 C320 1.260 . S
O341 Eu321 2.480 . S
O342 Eu321 2.430 . S
O342 C328 1.259 . S
O343 Eu321 2.670 . S
O343 C328 1.270 . S
O343 Eu331 2.355 . S
O344 Eu321 2.394 . S
O344 C329 1.251 . S
O345 C329 1.251 . S
O345 Eu331 2.374 . S
O346 C330 1.257 . S
O346 Eu331 2.473 . S
O347 C330 1.260 . S
O347 Eu331 2.480 . S
O348 Eu331 2.430 . S
O348 C338 1.259 . S
O349 Eu321 2.355 . S
O349 Eu331 2.670 . S
O349 C338 1.270 . S
O350 Eu331 2.394 . S
O350 C339 1.251 . S
O351 Eu321 2.374 . S
O351 C339 1.251 . S
H352 C323 0.931 . S
H353 C324 0.931 . S
H354 C326 0.931 . S
H355 C327 0.931 . S
H356 C333 0.931 . S
H357 C334 0.931 . S
H358 C336 0.931 . S
H359 C337 0.931 . S
C360 Eu361 2.835 . S
C360 C362 1.500 . S
C360 O380 1.257 . S
C360 O381 1.260 . S
Eu361 C360 2.835 . S
Eu361 O380 2.473 . S
Eu361 O381 2.480 . S
Eu361 O382 2.430 . S
Eu361 O383 2.670 . S
Eu361 O384 2.394 . S
Eu361 O389 2.355 . S
Eu361 O391 2.374 . S
C362 C360 1.500 . S
C362 C363 1.377 . S
C362 C367 1.377 . S
C363 C362 1.377 . S
C363 C364 1.395 1_545 S
C363 H392 0.931 . S
C364 C363 1.395 1_565 S
C364 C365 1.383 . S
C364 H393 0.931 . S
C365 C364 1.383 . S
C365 C366 1.394 1_565 S
C366 C365 1.394 1_545 S
C366 C367 1.378 . S
C366 H394 0.931 . S
C367 C362 1.377 . S
C367 C366 1.378 . S
C367 H395 0.931 . S
C368 O382 1.259 . S
C368 O383 1.270 . S
C369 O384 1.251 . S
C369 O385 1.251 . S
C370 Eu371 2.835 . S
C370 C372 1.500 . S
C370 O386 1.257 . S
C370 O387 1.260 . S
Eu371 C370 2.835 . S
Eu371 O383 2.355 . S
Eu371 O385 2.374 . S
Eu371 O386 2.473 . S
Eu371 O387 2.480 . S
Eu371 O388 2.430 . S
Eu371 O389 2.670 . S
Eu371 O390 2.394 . S
C372 C370 1.500 . S
C372 C373 1.377 . S
C372 C377 1.377 . S
C373 C372 1.377 . S
C373 C374 1.395 . S
C373 H396 0.931 . S
C374 C373 1.395 . S
C374 C375 1.383 . S
C374 H397 0.931 . S
C375 C374 1.383 . S
C375 C376 1.394 . S
C376 C375 1.394 . S
C376 C377 1.378 . S
C376 H398 0.931 . S
C377 C372 1.377 . S
C377 C376 1.378 . S
C377 H399 0.931 . S
C378 O388 1.259 . S
C378 O389 1.270 . S
C379 O390 1.251 . S
C379 O391 1.251 . S
O380 C360 1.257 . S
O380 Eu361 2.473 . S
O381 C360 1.260 . S
O381 Eu361 2.480 . S
O382 Eu361 2.430 . S
O382 C368 1.259 . S
O383 Eu361 2.670 . S
O383 C368 1.270 . S
O383 Eu371 2.355 . S
O384 Eu361 2.394 . S
O384 C369 1.251 . S
O385 C369 1.251 . S
O385 Eu371 2.374 . S
O386 C370 1.257 . S
O386 Eu371 2.473 . S
O387 C370 1.260 . S
O387 Eu371 2.480 . S
O388 Eu371 2.430 . S
O388 C378 1.259 . S
O389 Eu361 2.355 . S
O389 Eu371 2.670 . S
O389 C378 1.270 . S
O390 Eu371 2.394 . S
O390 C379 1.251 . S
O391 Eu361 2.374 . S
O391 C379 1.251 . S
H392 C363 0.931 . S
H393 C364 0.931 . S
H394 C366 0.931 . S
H395 C367 0.931 . S
H396 C373 0.931 . S
H397 C374 0.931 . S
H398 C376 0.931 . S
H399 C377 0.931 . S
C400 Eu401 2.835 . S
C400 C402 1.500 . S
C400 O420 1.257 . S
C400 O421 1.260 . S
Eu401 C400 2.835 . S
Eu401 O420 2.473 . S
Eu401 O421 2.480 . S
Eu401 O422 2.430 . S
Eu401 O423 2.670 . S
Eu401 O424 2.394 . S
Eu401 O429 2.355 . S
Eu401 O431 2.374 . S
C402 C400 1.500 . S
C402 C403 1.377 . S
C402 C407 1.377 . S
C403 C402 1.377 . S
C403 C404 1.395 . S
C403 H432 0.931 . S
C404 C403 1.395 . S
C404 C405 1.383 . S
C404 H433 0.931 . S
C405 C404 1.383 . S
C405 C406 1.394 . S
C406 C405 1.394 . S
C406 C407 1.378 . S
C406 H434 0.931 . S
C407 C402 1.377 . S
C407 C406 1.378 . S
C407 H435 0.931 . S
C408 O422 1.259 . S
C408 O423 1.270 . S
C409 O424 1.251 . S
C409 O425 1.251 . S
C410 Eu411 2.835 . S
C410 C412 1.500 . S
C410 O426 1.257 . S
C410 O427 1.260 . S
Eu411 C410 2.835 . S
Eu411 O423 2.355 . S
Eu411 O425 2.374 . S
Eu411 O426 2.473 . S
Eu411 O427 2.480 . S
Eu411 O428 2.430 . S
Eu411 O429 2.670 . S
Eu411 O430 2.394 . S
C412 C410 1.500 . S
C412 C413 1.377 . S
C412 C417 1.377 . S
C413 C412 1.377 . S
C413 C414 1.395 . S
C413 H436 0.931 . S
C414 C413 1.395 . S
C414 C415 1.383 . S
C414 H437 0.931 . S
C415 C414 1.383 . S
C415 C416 1.394 . S
C416 C415 1.394 . S
C416 C417 1.378 . S
C416 H438 0.931 . S
C417 C412 1.377 . S
C417 C416 1.378 . S
C417 H439 0.931 . S
C418 O428 1.259 . S
C418 O429 1.270 . S
C419 O430 1.251 . S
C419 O431 1.251 . S
O420 C400 1.257 . S
O420 Eu401 2.473 . S
O421 C400 1.260 . S
O421 Eu401 2.480 . S
O422 Eu401 2.430 . S
O422 C408 1.259 . S
O423 Eu401 2.670 . S
O423 C408 1.270 . S
O423 Eu411 2.355 . S
O424 Eu401 2.394 . S
O424 C409 1.251 . S
O425 C409 1.251 . S
O425 Eu411 2.374 . S
O426 C410 1.257 . S
O426 Eu411 2.473 . S
O427 C410 1.260 . S
O427 Eu411 2.480 . S
O428 Eu411 2.430 . S
O428 C418 1.259 . S
O429 Eu401 2.355 . S
O429 Eu411 2.670 . S
O429 C418 1.270 . S
O430 Eu411 2.394 . S
O430 C419 1.251 . S
O431 Eu401 2.374 . S
O431 C419 1.251 . S
H432 C403 0.931 . S
H433 C404 0.931 . S
H434 C406 0.931 . S
H435 C407 0.931 . S
H436 C413 0.931 . S
H437 C414 0.931 . S
H438 C416 0.931 . S
H439 C417 0.931 . S
C440 Eu441 2.835 1_554 S
C440 C442 1.500 . S
C440 O460 1.257 . S
C440 O461 1.260 . S
Eu441 C440 2.835 1_556 S
Eu441 O460 2.473 1_556 S
Eu441 O461 2.480 1_556 S
Eu441 O462 2.430 . S
Eu441 O463 2.670 . S
Eu441 O464 2.394 1_556 S
Eu441 O469 2.345 1_556 S
Eu441 O471 2.374 . S
C442 C440 1.500 . S
C442 C443 1.377 . S
C442 C447 1.377 . S
C443 C442 1.377 . S
C443 C444 1.395 1_565 S
C443 H472 0.931 . S
C444 C443 1.395 1_545 S
C444 C445 1.383 . S
C444 H473 0.931 . S
C445 C444 1.383 . S
C445 C446 1.394 1_545 S
C446 C445 1.394 1_565 S
C446 C447 1.378 . S
C446 H474 0.931 . S
C447 C442 1.377 . S
C447 C446 1.378 . S
C447 H475 0.931 . S
C448 O462 1.259 . S
C448 O463 1.270 . S
C449 O464 1.251 . S
C449 O465 1.251 . S
C450 Eu451 2.835 . S
C450 C452 1.500 . S
C450 O466 1.257 . S
C450 O467 1.260 . S
Eu451 C450 2.835 . S
Eu451 O463 2.355 . S
Eu451 O465 2.374 1_556 S
Eu451 O466 2.473 . S
Eu451 O467 2.480 . S
Eu451 O468 2.434 . S
Eu451 O469 2.660 1_556 S
Eu451 O470 2.394 . S
C452 C450 1.500 . S
C452 C453 1.377 . S
C452 C457 1.377 . S
C453 C452 1.377 . S
C453 C454 1.395 . S
C453 H476 0.931 . S
C454 C453 1.395 . S
C454 C455 1.383 . S
C454 H477 0.931 . S
C455 C454 1.383 . S
C455 C456 1.394 . S
C456 C455 1.394 . S
C456 C457 1.378 . S
C456 H478 0.931 . S
C457 C452 1.377 . S
C457 C456 1.378 . S
C457 H479 0.931 . S
C458 O468 1.258 1_554 S
C458 O469 1.274 . S
C459 O470 1.251 . S
C459 O471 1.251 . S
O460 C440 1.257 . S
O460 Eu441 2.473 1_554 S
O461 C440 1.260 . S
O461 Eu441 2.480 1_554 S
O462 Eu441 2.430 . S
O462 C448 1.259 . S
O463 Eu441 2.670 . S
O463 C448 1.270 . S
O463 Eu451 2.355 . S
O464 Eu441 2.394 1_554 S
O464 C449 1.251 . S
O465 C449 1.251 . S
O465 Eu451 2.374 1_554 S
O466 C450 1.257 . S
O466 Eu451 2.473 . S
O467 C450 1.260 . S
O467 Eu451 2.480 . S
O468 Eu451 2.434 . S
O468 C458 1.258 1_556 S
O469 Eu441 2.345 1_554 S
O469 Eu451 2.660 1_554 S
O469 C458 1.274 . S
O470 Eu451 2.394 . S
O470 C459 1.251 . S
O471 Eu441 2.374 . S
O471 C459 1.251 . S
H472 C443 0.931 . S
H473 C444 0.931 . S
H474 C446 0.931 . S
H475 C447 0.931 . S
H476 C453 0.931 . S
H477 C454 0.931 . S
H478 C456 0.931 . S
H479 C457 0.931 . S
C480 Eu481 2.835 . S
C480 C482 1.500 . S
C480 O500 1.257 . S
C480 O501 1.260 . S
Eu481 C480 2.835 . S
Eu481 O500 2.473 . S
Eu481 O501 2.480 . S
Eu481 O502 2.430 . S
Eu481 O503 2.670 . S
Eu481 O504 2.394 . S
Eu481 O509 2.355 . S
Eu481 O511 2.374 . S
C482 C480 1.500 . S
C482 C483 1.377 . S
C482 C487 1.377 . S
C483 C482 1.377 . S
C483 C484 1.395 . S
C483 H512 0.931 . S
C484 C483 1.395 . S
C484 C485 1.383 . S
C484 H513 0.931 . S
C485 C484 1.383 . S
C485 C486 1.394 . S
C486 C485 1.394 . S
C486 C487 1.378 . S
C486 H514 0.931 . S
C487 C482 1.377 . S
C487 C486 1.378 . S
C487 H515 0.931 . S
C488 O502 1.259 . S
C488 O503 1.270 . S
C489 O504 1.251 . S
C489 O505 1.251 . S
C490 Eu491 2.835 . S
C490 C492 1.500 . S
C490 O506 1.257 . S
C490 O507 1.260 . S
Eu491 C490 2.835 . S
Eu491 O503 2.355 . S
Eu491 O505 2.374 . S
Eu491 O506 2.473 . S
Eu491 O507 2.480 . S
Eu491 O508 2.430 . S
Eu491 O509 2.670 . S
Eu491 O510 2.394 . S
C492 C490 1.500 . S
C492 C493 1.377 . S
C492 C497 1.377 . S
C493 C492 1.377 . S
C493 C494 1.395 1_655 S
C493 H516 0.931 . S
C494 C493 1.395 1_455 S
C494 C495 1.383 . S
C494 H517 0.931 . S
C495 C494 1.383 . S
C495 C496 1.394 1_455 S
C496 C495 1.394 1_655 S
C496 C497 1.378 . S
C496 H518 0.931 . S
C497 C492 1.377 . S
C497 C496 1.378 . S
C497 H519 0.931 . S
C498 O508 1.259 . S
C498 O509 1.270 . S
C499 O510 1.251 . S
C499 O511 1.251 . S
O500 C480 1.257 . S
O500 Eu481 2.473 . S
O501 C480 1.260 . S
O501 Eu481 2.480 . S
O502 Eu481 2.430 . S
O502 C488 1.259 . S
O503 Eu481 2.670 . S
O503 C488 1.270 . S
O503 Eu491 2.355 . S
O504 Eu481 2.394 . S
O504 C489 1.251 . S
O505 C489 1.251 . S
O505 Eu491 2.374 . S
O506 C490 1.257 . S
O506 Eu491 2.473 . S
O507 C490 1.260 . S
O507 Eu491 2.480 . S
O508 Eu491 2.430 . S
O508 C498 1.259 . S
O509 Eu481 2.355 . S
O509 Eu491 2.670 . S
O509 C498 1.270 . S
O510 Eu491 2.394 . S
O510 C499 1.251 . S
O511 Eu481 2.374 . S
O511 C499 1.251 . S
H512 C483 0.931 . S
H513 C484 0.931 . S
H514 C486 0.931 . S
H515 C487 0.931 . S
H516 C493 0.931 . S
H517 C494 0.931 . S
H518 C496 0.931 . S
H519 C497 0.931 . S
C520 Eu521 2.835 . S
C520 C522 1.500 . S
C520 O540 1.257 . S
C520 O541 1.260 . S
Eu521 C520 2.835 . S
Eu521 O540 2.473 . S
Eu521 O541 2.480 . S
Eu521 O542 2.430 . S
Eu521 O543 2.670 . S
Eu521 O544 2.394 . S
Eu521 O549 2.355 . S
Eu521 O551 2.374 . S
C522 C520 1.500 . S
C522 C523 1.377 . S
C522 C527 1.377 . S
C523 C522 1.377 . S
C523 C524 1.395 1_545 S
C523 H552 0.931 . S
C524 C523 1.395 1_565 S
C524 C525 1.383 . S
C524 H553 0.931 . S
C525 C524 1.383 . S
C525 C526 1.394 1_565 S
C526 C525 1.394 1_545 S
C526 C527 1.378 . S
C526 H554 0.931 . S
C527 C522 1.377 . S
C527 C526 1.378 . S
C527 H555 0.931 . S
C528 O542 1.259 . S
C528 O543 1.270 . S
C529 O544 1.251 . S
C529 O545 1.251 . S
C530 Eu531 2.835 . S
C530 C532 1.500 . S
C530 O546 1.257 . S
C530 O547 1.260 . S
Eu531 C530 2.835 . S
Eu531 O543 2.355 . S
Eu531 O545 2.374 . S
Eu531 O546 2.473 . S
Eu531 O547 2.480 . S
Eu531 O548 2.430 . S
Eu531 O549 2.670 . S
Eu531 O550 2.394 . S
C532 C530 1.500 . S
C532 C533 1.377 . S
C532 C537 1.377 . S
C533 C532 1.377 . S
C533 C534 1.395 . S
C533 H556 0.931 . S
C534 C533 1.395 . S
C534 C535 1.383 . S
C534 H557 0.931 . S
C535 C534 1.383 . S
C535 C536 1.394 . S
C536 C535 1.394 . S
C536 C537 1.378 . S
C536 H558 0.931 . S
C537 C532 1.377 . S
C537 C536 1.378 . S
C537 H559 0.931 . S
C538 O548 1.259 . S
C538 O549 1.270 . S
C539 O550 1.251 . S
C539 O551 1.251 . S
O540 C520 1.257 . S
O540 Eu521 2.473 . S
O541 C520 1.260 . S
O541 Eu521 2.480 . S
O542 Eu521 2.430 . S
O542 C528 1.259 . S
O543 Eu521 2.670 . S
O543 C528 1.270 . S
O543 Eu531 2.355 . S
O544 Eu521 2.394 . S
O544 C529 1.251 . S
O545 C529 1.251 . S
O545 Eu531 2.374 . S
O546 C530 1.257 . S
O546 Eu531 2.473 . S
O547 C530 1.260 . S
O547 Eu531 2.480 . S
O548 Eu531 2.430 . S
O548 C538 1.259 . S
O549 Eu521 2.355 . S
O549 Eu531 2.670 . S
O549 C538 1.270 . S
O550 Eu531 2.394 . S
O550 C539 1.251 . S
O551 Eu521 2.374 . S
O551 C539 1.251 . S
H552 C523 0.931 . S
H553 C524 0.931 . S
H554 C526 0.931 . S
H555 C527 0.931 . S
H556 C533 0.931 . S
H557 C534 0.931 . S
H558 C536 0.931 . S
H559 C537 0.931 . S
C560 Eu561 2.835 . S
C560 C562 1.500 . S
C560 O580 1.257 . S
C560 O581 1.260 . S
Eu561 C560 2.835 . S
Eu561 O580 2.473 . S
Eu561 O581 2.480 . S
Eu561 O582 2.430 . S
Eu561 O583 2.670 . S
Eu561 O584 2.394 . S
Eu561 O589 2.355 . S
Eu561 O591 2.374 . S
C562 C560 1.500 . S
C562 C563 1.377 . S
C562 C567 1.377 . S
C563 C562 1.377 . S
C563 C564 1.395 . S
C563 H592 0.931 . S
C564 C563 1.395 . S
C564 C565 1.383 . S
C564 H593 0.931 . S
C565 C564 1.383 . S
C565 C566 1.394 . S
C566 C565 1.394 . S
C566 C567 1.378 . S
C566 H594 0.931 . S
C567 C562 1.377 . S
C567 C566 1.378 . S
C567 H595 0.931 . S
C568 O582 1.259 . S
C568 O583 1.270 . S
C569 O584 1.251 . S
C569 O585 1.251 . S
C570 Eu571 2.835 . S
C570 C572 1.500 . S
C570 O586 1.257 . S
C570 O587 1.260 . S
Eu571 C570 2.835 . S
Eu571 O583 2.355 . S
Eu571 O585 2.374 . S
Eu571 O586 2.473 . S
Eu571 O587 2.480 . S
Eu571 O588 2.430 . S
Eu571 O589 2.670 . S
Eu571 O590 2.394 . S
C572 C570 1.500 . S
C572 C573 1.377 . S
C572 C577 1.377 . S
C573 C572 1.377 . S
C573 C574 1.395 . S
C573 H596 0.931 . S
C574 C573 1.395 . S
C574 C575 1.383 . S
C574 H597 0.931 . S
C575 C574 1.383 . S
C575 C576 1.394 . S
C576 C575 1.394 . S
C576 C577 1.378 . S
C576 H598 0.931 . S
C577 C572 1.377 . S
C577 C576 1.378 . S
C577 H599 0.931 . S
C578 O588 1.259 . S
C578 O589 1.270 . S
C579 O590 1.251 . S
C579 O591 1.251 . S
O580 C560 1.257 . S
O580 Eu561 2.473 . S
O581 C560 1.260 . S
O581 Eu561 2.480 . S
O582 Eu561 2.430 . S
O582 C568 1.259 . S
O583 Eu561 2.670 . S
O583 C568 1.270 . S
O583 Eu571 2.355 . S
O584 Eu561 2.394 . S
O584 C569 1.251 . S
O585 C569 1.251 . S
O585 Eu571 2.374 . S
O586 C570 1.257 . S
O586 Eu571 2.473 . S
O587 C570 1.260 . S
O587 Eu571 2.480 . S
O588 Eu571 2.430 . S
O588 C578 1.259 . S
O589 Eu561 2.355 . S
O589 Eu571 2.670 . S
O589 C578 1.270 . S
O590 Eu571 2.394 . S
O590 C579 1.251 . S
O591 Eu561 2.374 . S
O591 C579 1.251 . S
H592 C563 0.931 . S
H593 C564 0.931 . S
H594 C566 0.931 . S
H595 C567 0.931 . S
H596 C573 0.931 . S
H597 C574 0.931 . S
H598 C576 0.931 . S
H599 C577 0.931 . S
C600 Eu601 2.835 1_556 S
C600 C602 1.500 . S
C600 O620 1.257 . S
C600 O621 1.260 . S
Eu601 C600 2.835 1_554 S
Eu601 O620 2.473 1_554 S
Eu601 O621 2.480 1_554 S
Eu601 O622 2.430 . S
Eu601 O623 2.670 . S
Eu601 O624 2.394 1_554 S
Eu601 O629 2.345 1_554 S
Eu601 O631 2.374 . S
C602 C600 1.500 . S
C602 C603 1.377 . S
C602 C607 1.377 . S
C603 C602 1.377 . S
C603 C604 1.395 1_565 S
C603 H632 0.931 . S
C604 C603 1.395 1_545 S
C604 C605 1.383 . S
C604 H633 0.931 . S
C605 C604 1.383 . S
C605 C606 1.394 1_545 S
C606 C605 1.394 1_565 S
C606 C607 1.378 . S
C606 H634 0.931 . S
C607 C602 1.377 . S
C607 C606 1.378 . S
C607 H635 0.931 . S
C608 O622 1.259 . S
C608 O623 1.270 . S
C609 O624 1.251 . S
C609 O625 1.251 . S
C610 Eu611 2.835 . S
C610 C612 1.500 . S
C610 O626 1.257 . S
C610 O627 1.260 . S
Eu611 C610 2.835 . S
Eu611 O623 2.355 . S
Eu611 O625 2.374 1_554 S
Eu611 O626 2.473 . S
Eu611 O627 2.480 . S
Eu611 O628 2.434 . S
Eu611 O629 2.660 1_554 S
Eu611 O630 2.394 . S
C612 C610 1.500 . S
C612 C613 1.377 . S
C612 C617 1.377 . S
C613 C612 1.377 . S
C613 C614 1.395 . S
C613 H636 0.931 . S
C614 C613 1.395 . S
C614 C615 1.383 . S
C614 H637 0.931 . S
C615 C614 1.383 . S
C615 C616 1.394 . S
C616 C615 1.394 . S
C616 C617 1.378 . S
C616 H638 0.931 . S
C617 C612 1.377 . S
C617 C616 1.378 . S
C617 H639 0.931 . S
C618 O628 1.258 1_556 S
C618 O629 1.274 . S
C619 O630 1.251 . S
C619 O631 1.251 . S
O620 C600 1.257 . S
O620 Eu601 2.473 1_556 S
O621 C600 1.260 . S
O621 Eu601 2.480 1_556 S
O622 Eu601 2.430 . S
O622 C608 1.259 . S
O623 Eu601 2.670 . S
O623 C608 1.270 . S
O623 Eu611 2.355 . S
O624 Eu601 2.394 1_556 S
O624 C609 1.251 . S
O625 C609 1.251 . S
O625 Eu611 2.374 1_556 S
O626 C610 1.257 . S
O626 Eu611 2.473 . S
O627 C610 1.260 . S
O627 Eu611 2.480 . S
O628 Eu611 2.434 . S
O628 C618 1.258 1_554 S
O629 Eu601 2.345 1_556 S
O629 Eu611 2.660 1_556 S
O629 C618 1.274 . S
O630 Eu611 2.394 . S
O630 C619 1.251 . S
O631 Eu601 2.374 . S
O631 C619 1.251 . S
H632 C603 0.931 . S
H633 C604 0.931 . S
H634 C606 0.931 . S
H635 C607 0.931 . S
H636 C613 0.931 . S
H637 C614 0.931 . S
H638 C616 0.931 . S
H639 C617 0.931 . S
C640 Eu641 2.835 . S
C640 C642 1.500 . S
C640 O660 1.257 . S
C640 O661 1.260 . S
Eu641 C640 2.835 . S
Eu641 O660 2.473 . S
Eu641 O661 2.480 . S
Eu641 O662 2.430 . S
Eu641 O663 2.670 . S
Eu641 O664 2.394 . S
Eu641 O669 2.355 . S
Eu641 O671 2.374 . S
C642 C640 1.500 . S
C642 C643 1.377 . S
C642 C647 1.377 . S
C643 C642 1.377 . S
C643 C644 1.395 . S
C643 H672 0.931 . S
C644 C643 1.395 . S
C644 C645 1.383 . S
C644 H673 0.931 . S
C645 C644 1.383 . S
C645 C646 1.394 . S
C646 C645 1.394 . S
C646 C647 1.378 . S
C646 H674 0.931 . S
C647 C642 1.377 . S
C647 C646 1.378 . S
C647 H675 0.931 . S
C648 O662 1.259 . S
C648 O663 1.270 . S
C649 O664 1.251 . S
C649 O665 1.251 . S
C650 Eu651 2.835 . S
C650 C652 1.500 . S
C650 O666 1.257 . S
C650 O667 1.260 . S
Eu651 C650 2.835 . S
Eu651 O663 2.355 . S
Eu651 O665 2.374 . S
Eu651 O666 2.473 . S
Eu651 O667 2.480 . S
Eu651 O668 2.430 . S
Eu651 O669 2.670 . S
Eu651 O670 2.394 . S
C652 C650 1.500 . S
C652 C653 1.377 . S
C652 C657 1.377 . S
C653 C652 1.377 . S
C653 C654 1.395 . S
C653 H676 0.931 . S
C654 C653 1.395 . S
C654 C655 1.383 . S
C654 H677 0.931 . S
C655 C654 1.383 . S
C655 C656 1.394 . S
C656 C655 1.394 . S
C656 C657 1.378 . S
C656 H678 0.931 . S
C657 C652 1.377 . S
C657 C656 1.378 . S
C657 H679 0.931 . S
C658 O668 1.259 . S
C658 O669 1.270 . S
C659 O670 1.251 . S
C659 O671 1.251 . S
O660 C640 1.257 . S
O660 Eu641 2.473 . S
O661 C640 1.260 . S
O661 Eu641 2.480 . S
O662 Eu641 2.430 . S
O662 C648 1.259 . S
O663 Eu641 2.670 . S
O663 C648 1.270 . S
O663 Eu651 2.355 . S
O664 Eu641 2.394 . S
O664 C649 1.251 . S
O665 C649 1.251 . S
O665 Eu651 2.374 . S
O666 C650 1.257 . S
O666 Eu651 2.473 . S
O667 C650 1.260 . S
O667 Eu651 2.480 . S
O668 Eu651 2.430 . S
O668 C658 1.259 . S
O669 Eu641 2.355 . S
O669 Eu651 2.670 . S
O669 C658 1.270 . S
O670 Eu651 2.394 . S
O670 C659 1.251 . S
O671 Eu641 2.374 . S
O671 C659 1.251 . S
H672 C643 0.931 . S
H673 C644 0.931 . S
H674 C646 0.931 . S
H675 C647 0.931 . S
H676 C653 0.931 . S
H677 C654 0.931 . S
H678 C656 0.931 . S
H679 C657 0.931 . S
C680 Eu681 2.835 . S
C680 C682 1.500 . S
C680 O700 1.257 . S
C680 O701 1.260 . S
Eu681 C680 2.835 . S
Eu681 O700 2.473 . S
Eu681 O701 2.480 . S
Eu681 O702 2.434 . S
Eu681 O703 2.660 1_554 S
Eu681 O704 2.394 . S
Eu681 O709 2.355 . S
Eu681 O711 2.374 1_554 S
C682 C680 1.500 . S
C682 C683 1.377 . S
C682 C687 1.377 . S
C683 C682 1.377 . S
C683 C684 1.395 . S
C683 H712 0.931 . S
C684 C683 1.395 . S
C684 C685 1.383 . S
C684 H713 0.931 . S
C685 C684 1.383 . S
C685 C686 1.394 . S
C686 C685 1.394 . S
C686 C687 1.378 . S
C686 H714 0.931 . S
C687 C682 1.377 . S
C687 C686 1.378 . S
C687 H715 0.931 . S
C688 O702 1.258 1_556 S
C688 O703 1.274 . S
C689 O704 1.251 . S
C689 O705 1.251 . S
C690 Eu691 2.835 1_556 S
C690 C692 1.500 . S
C690 O706 1.257 . S
C690 O707 1.260 . S
Eu691 C690 2.835 1_554 S
Eu691 O703 2.345 1_554 S
Eu691 O705 2.374 . S
Eu691 O706 2.473 1_554 S
Eu691 O707 2.480 1_554 S
Eu691 O708 2.430 . S
Eu691 O709 2.670 . S
Eu691 O710 2.394 1_554 S
C692 C690 1.500 . S
C692 C693 1.377 . S
C692 C697 1.377 . S
C693 C692 1.377 . S
C693 C694 1.395 . S
C693 H716 0.931 . S
C694 C693 1.395 . S
C694 C695 1.383 . S
C694 H717 0.931 . S
C695 C694 1.383 . S
C695 C696 1.394 . S
C696 C695 1.394 . S
C696 C697 1.378 . S
C696 H718 0.931 . S
C697 C692 1.377 . S
C697 C696 1.378 . S
C697 H719 0.931 . S
C698 O708 1.259 . S
C698 O709 1.270 . S
C699 O710 1.251 . S
C699 O711 1.251 . S
O700 C680 1.257 . S
O700 Eu681 2.473 . S
O701 C680 1.260 . S
O701 Eu681 2.480 . S
O702 Eu681 2.434 . S
O702 C688 1.258 1_554 S
O703 Eu681 2.660 1_556 S
O703 C688 1.274 . S
O703 Eu691 2.345 1_556 S
O704 Eu681 2.394 . S
O704 C689 1.251 . S
O705 C689 1.251 . S
O705 Eu691 2.374 . S
O706 C690 1.257 . S
O706 Eu691 2.473 1_556 S
O707 C690 1.260 . S
O707 Eu691 2.480 1_556 S
O708 Eu691 2.430 . S
O708 C698 1.259 . S
O709 Eu681 2.355 . S
O709 Eu691 2.670 . S
O709 C698 1.270 . S
O710 Eu691 2.394 1_556 S
O710 C699 1.251 . S
O711 Eu681 2.374 1_556 S
O711 C699 1.251 . S
H712 C683 0.931 . S
H713 C684 0.931 . S
H714 C686 0.931 . S
H715 C687 0.931 . S
H716 C693 0.931 . S
H717 C694 0.931 . S
H718 C696 0.931 . S
H719 C697 0.931 . S
C720 Eu721 2.835 . S
C720 C722 1.500 . S
C720 O740 1.257 . S
C720 O741 1.260 . S
Eu721 C720 2.835 . S
Eu721 O740 2.473 . S
Eu721 O741 2.480 . S
Eu721 O742 2.430 . S
Eu721 O743 2.670 . S
Eu721 O744 2.394 . S
Eu721 O749 2.355 . S
Eu721 O751 2.374 . S
C722 C720 1.500 . S
C722 C723 1.377 . S
C722 C727 1.377 . S
C723 C722 1.377 . S
C723 C724 1.395 1_655 S
C723 H752 0.931 . S
C724 C723 1.395 1_455 S
C724 C725 1.383 . S
C724 H753 0.931 . S
C725 C724 1.383 . S
C725 C726 1.394 1_455 S
C726 C725 1.394 1_655 S
C726 C727 1.378 . S
C726 H754 0.931 . S
C727 C722 1.377 . S
C727 C726 1.378 . S
C727 H755 0.931 . S
C728 O742 1.259 . S
C728 O743 1.270 . S
C729 O744 1.251 . S
C729 O745 1.251 . S
C730 Eu731 2.835 . S
C730 C732 1.500 . S
C730 O746 1.257 . S
C730 O747 1.260 . S
Eu731 C730 2.835 . S
Eu731 O743 2.355 . S
Eu731 O745 2.374 . S
Eu731 O746 2.473 . S
Eu731 O747 2.480 . S
Eu731 O748 2.430 . S
Eu731 O749 2.670 . S
Eu731 O750 2.394 . S
C732 C730 1.500 . S
C732 C733 1.377 . S
C732 C737 1.377 . S
C733 C732 1.377 . S
C733 C734 1.395 . S
C733 H756 0.931 . S
C734 C733 1.395 . S
C734 C735 1.383 . S
C734 H757 0.931 . S
C735 C734 1.383 . S
C735 C736 1.394 . S
C736 C735 1.394 . S
C736 C737 1.378 . S
C736 H758 0.931 . S
C737 C732 1.377 . S
C737 C736 1.378 . S
C737 H759 0.931 . S
C738 O748 1.259 . S
C738 O749 1.270 . S
C739 O750 1.251 . S
C739 O751 1.251 . S
O740 C720 1.257 . S
O740 Eu721 2.473 . S
O741 C720 1.260 . S
O741 Eu721 2.480 . S
O742 Eu721 2.430 . S
O742 C728 1.259 . S
O743 Eu721 2.670 . S
O743 C728 1.270 . S
O743 Eu731 2.355 . S
O744 Eu721 2.394 . S
O744 C729 1.251 . S
O745 C729 1.251 . S
O745 Eu731 2.374 . S
O746 C730 1.257 . S
O746 Eu731 2.473 . S
O747 C730 1.260 . S
O747 Eu731 2.480 . S
O748 Eu731 2.430 . S
O748 C738 1.259 . S
O749 Eu721 2.355 . S
O749 Eu731 2.670 . S
O749 C738 1.270 . S
O750 Eu731 2.394 . S
O750 C739 1.251 . S
O751 Eu721 2.374 . S
O751 C739 1.251 . S
H752 C723 0.931 . S
H753 C724 0.931 . S
H754 C726 0.931 . S
H755 C727 0.931 . S
H756 C733 0.931 . S
H757 C734 0.931 . S
H758 C736 0.931 . S
H759 C737 0.931 . S
C760 Eu761 2.835 . S
C760 C762 1.500 . S
C760 O780 1.257 . S
C760 O781 1.260 . S
Eu761 C760 2.835 . S
Eu761 O780 2.473 . S
Eu761 O781 2.480 . S
Eu761 O782 2.430 . S
Eu761 O783 2.670 . S
Eu761 O784 2.394 . S
Eu761 O789 2.355 . S
Eu761 O791 2.374 . S
C762 C760 1.500 . S
C762 C763 1.377 . S
C762 C767 1.377 . S
C763 C762 1.377 . S
C763 C764 1.395 . S
C763 H792 0.931 . S
C764 C763 1.395 . S
C764 C765 1.383 . S
C764 H793 0.931 . S
C765 C764 1.383 . S
C765 C766 1.394 . S
C766 C765 1.394 . S
C766 C767 1.378 . S
C766 H794 0.931 . S
C767 C762 1.377 . S
C767 C766 1.378 . S
C767 H795 0.931 . S
C768 O782 1.259 . S
C768 O783 1.270 . S
C769 O784 1.251 . S
C769 O785 1.251 . S
C770 Eu771 2.835 . S
C770 C772 1.500 . S
C770 O786 1.257 . S
C770 O787 1.260 . S
Eu771 C770 2.835 . S
Eu771 O783 2.355 . S
Eu771 O785 2.374 . S
Eu771 O786 2.473 . S
Eu771 O787 2.480 . S
Eu771 O788 2.430 . S
Eu771 O789 2.670 . S
Eu771 O790 2.394 . S
C772 C770 1.500 . S
C772 C773 1.377 . S
C772 C777 1.377 . S
C773 C772 1.377 . S
C773 C774 1.395 . S
C773 H796 0.931 . S
C774 C773 1.395 . S
C774 C775 1.383 . S
C774 H797 0.931 . S
C775 C774 1.383 . S
C775 C776 1.394 . S
C776 C775 1.394 . S
C776 C777 1.378 . S
C776 H798 0.931 . S
C777 C772 1.377 . S
C777 C776 1.378 . S
C777 H799 0.931 . S
C778 O788 1.259 . S
C778 O789 1.270 . S
C779 O790 1.251 . S
C779 O791 1.251 . S
O780 C760 1.257 . S
O780 Eu761 2.473 . S
O781 C760 1.260 . S
O781 Eu761 2.480 . S
O782 Eu761 2.430 . S
O782 C768 1.259 . S
O783 Eu761 2.670 . S
O783 C768 1.270 . S
O783 Eu771 2.355 . S
O784 Eu761 2.394 . S
O784 C769 1.251 . S
O785 C769 1.251 . S
O785 Eu771 2.374 . S
O786 C770 1.257 . S
O786 Eu771 2.473 . S
O787 C770 1.260 . S
O787 Eu771 2.480 . S
O788 Eu771 2.430 . S
O788 C778 1.259 . S
O789 Eu761 2.355 . S
O789 Eu771 2.670 . S
O789 C778 1.270 . S
O790 Eu771 2.394 . S
O790 C779 1.251 . S
O791 Eu761 2.374 . S
O791 C779 1.251 . S
H792 C763 0.931 . S
H793 C764 0.931 . S
H794 C766 0.931 . S
H795 C767 0.931 . S
H796 C773 0.931 . S
H797 C774 0.931 . S
H798 C776 0.931 . S
H799 C777 0.931 . S
C800 Eu801 2.835 . S
C800 C802 1.500 . S
C800 O820 1.257 . S
C800 O821 1.260 . S
Eu801 C800 2.835 . S
Eu801 O820 2.473 . S
Eu801 O821 2.480 . S
Eu801 O822 2.430 . S
Eu801 O823 2.670 . S
Eu801 O824 2.394 . S
Eu801 O829 2.355 . S
Eu801 O831 2.374 . S
C802 C800 1.500 . S
C802 C803 1.377 . S
C802 C807 1.377 . S
C803 C802 1.377 . S
C803 C804 1.395 . S
C803 H832 0.931 . S
C804 C803 1.395 . S
C804 C805 1.383 . S
C804 H833 0.931 . S
C805 C804 1.383 . S
C805 C806 1.394 . S
C806 C805 1.394 . S
C806 C807 1.378 . S
C806 H834 0.931 . S
C807 C802 1.377 . S
C807 C806 1.378 . S
C807 H835 0.931 . S
C808 O822 1.259 . S
C808 O823 1.270 . S
C809 O824 1.251 . S
C809 O825 1.251 . S
C810 Eu811 2.835 . S
C810 C812 1.500 . S
C810 O826 1.257 . S
C810 O827 1.260 . S
Eu811 C810 2.835 . S
Eu811 O823 2.355 . S
Eu811 O825 2.374 . S
Eu811 O826 2.473 . S
Eu811 O827 2.480 . S
Eu811 O828 2.430 . S
Eu811 O829 2.670 . S
Eu811 O830 2.394 . S
C812 C810 1.500 . S
C812 C813 1.377 . S
C812 C817 1.377 . S
C813 C812 1.377 . S
C813 C814 1.395 . S
C813 H836 0.931 . S
C814 C813 1.395 . S
C814 C815 1.383 . S
C814 H837 0.931 . S
C815 C814 1.383 . S
C815 C816 1.394 . S
C816 C815 1.394 . S
C816 C817 1.378 . S
C816 H838 0.931 . S
C817 C812 1.377 . S
C817 C816 1.378 . S
C817 H839 0.931 . S
C818 O828 1.259 . S
C818 O829 1.270 . S
C819 O830 1.251 . S
C819 O831 1.251 . S
O820 C800 1.257 . S
O820 Eu801 2.473 . S
O821 C800 1.260 . S
O821 Eu801 2.480 . S
O822 Eu801 2.430 . S
O822 C808 1.259 . S
O823 Eu801 2.670 . S
O823 C808 1.270 . S
O823 Eu811 2.355 . S
O824 Eu801 2.394 . S
O824 C809 1.251 . S
O825 C809 1.251 . S
O825 Eu811 2.374 . S
O826 C810 1.257 . S
O826 Eu811 2.473 . S
O827 C810 1.260 . S
O827 Eu811 2.480 . S
O828 Eu811 2.430 . S
O828 C818 1.259 . S
O829 Eu801 2.355 . S
O829 Eu811 2.670 . S
O829 C818 1.270 . S
O830 Eu811 2.394 . S
O830 C819 1.251 . S
O831 Eu801 2.374 . S
O831 C819 1.251 . S
H832 C803 0.931 . S
H833 C804 0.931 . S
H834 C806 0.931 . S
H835 C807 0.931 . S
H836 C813 0.931 . S
H837 C814 0.931 . S
H838 C816 0.931 . S
H839 C817 0.931 . S
C840 Eu841 2.835 . S
C840 C842 1.500 . S
C840 O860 1.257 . S
C840 O861 1.260 . S
Eu841 C840 2.835 . S
Eu841 O860 2.473 . S
Eu841 O861 2.480 . S
Eu841 O862 2.434 . S
Eu841 O863 2.660 1_556 S
Eu841 O864 2.394 . S
Eu841 O869 2.355 . S
Eu841 O871 2.374 1_556 S
C842 C840 1.500 . S
C842 C843 1.377 . S
C842 C847 1.377 . S
C843 C842 1.377 . S
C843 C844 1.395 . S
C843 H872 0.931 . S
C844 C843 1.395 . S
C844 C845 1.383 . S
C844 H873 0.931 . S
C845 C844 1.383 . S
C845 C846 1.394 . S
C846 C845 1.394 . S
C846 C847 1.378 . S
C846 H874 0.931 . S
C847 C842 1.377 . S
C847 C846 1.378 . S
C847 H875 0.931 . S
C848 O862 1.258 1_554 S
C848 O863 1.274 . S
C849 O864 1.251 . S
C849 O865 1.251 . S
C850 Eu851 2.835 1_554 S
C850 C852 1.500 . S
C850 O866 1.257 . S
C850 O867 1.260 . S
Eu851 C850 2.835 1_556 S
Eu851 O863 2.345 1_556 S
Eu851 O865 2.374 . S
Eu851 O866 2.473 1_556 S
Eu851 O867 2.480 1_556 S
Eu851 O868 2.430 . S
Eu851 O869 2.670 . S
Eu851 O870 2.394 1_556 S
C852 C850 1.500 . S
C852 C853 1.377 . S
C852 C857 1.377 . S
C853 C852 1.377 . S
C853 C854 1.395 . S
C853 H876 0.931 . S
C854 C853 1.395 . S
C854 C855 1.383 . S
C854 H877 0.931 . S
C855 C854 1.383 . S
C855 C856 1.394 . S
C856 C855 1.394 . S
C856 C857 1.378 . S
C856 H878 0.931 . S
C857 C852 1.377 . S
C857 C856 1.378 . S
C857 H879 0.931 . S
C858 O868 1.259 . S
C858 O869 1.270 . S
C859 O870 1.251 . S
C859 O871 1.251 . S
O860 C840 1.257 . S
O860 Eu841 2.473 . S
O861 C840 1.260 . S
O861 Eu841 2.480 . S
O862 Eu841 2.434 . S
O862 C848 1.258 1_556 S
O863 Eu841 2.660 1_554 S
O863 C848 1.274 . S
O863 Eu851 2.345 1_554 S
O864 Eu841 2.394 . S
O864 C849 1.251 . S
O865 C849 1.251 . S
O865 Eu851 2.374 . S
O866 C850 1.257 . S
O866 Eu851 2.473 1_554 S
O867 C850 1.260 . S
O867 Eu851 2.480 1_554 S
O868 Eu851 2.430 . S
O868 C858 1.259 . S
O869 Eu841 2.355 . S
O869 Eu851 2.670 . S
O869 C858 1.270 . S
O870 Eu851 2.394 1_554 S
O870 C859 1.251 . S
O871 Eu841 2.374 1_554 S
O871 C859 1.251 . S
H872 C843 0.931 . S
H873 C844 0.931 . S
H874 C846 0.931 . S
H875 C847 0.931 . S
H876 C853 0.931 . S
H877 C854 0.931 . S
H878 C856 0.931 . S
H879 C857 0.931 . S
C880 Eu881 2.835 . S
C880 C882 1.500 . S
C880 O900 1.257 . S
C880 O901 1.260 . S
Eu881 C880 2.835 . S
Eu881 O900 2.473 . S
Eu881 O901 2.480 . S
Eu881 O902 2.430 . S
Eu881 O903 2.670 . S
Eu881 O904 2.394 . S
Eu881 O909 2.355 . S
Eu881 O911 2.374 . S
C882 C880 1.500 . S
C882 C883 1.377 . S
C882 C887 1.377 . S
C883 C882 1.377 . S
C883 C884 1.395 1_655 S
C883 H912 0.931 . S
C884 C883 1.395 1_455 S
C884 C885 1.383 . S
C884 H913 0.931 . S
C885 C884 1.383 . S
C885 C886 1.394 1_455 S
C886 C885 1.394 1_655 S
C886 C887 1.378 . S
C886 H914 0.931 . S
C887 C882 1.377 . S
C887 C886 1.378 . S
C887 H915 0.931 . S
C888 O902 1.259 . S
C888 O903 1.270 . S
C889 O904 1.251 . S
C889 O905 1.251 . S
C890 Eu891 2.835 . S
C890 C892 1.500 . S
C890 O906 1.257 . S
C890 O907 1.260 . S
Eu891 C890 2.835 . S
Eu891 O903 2.355 . S
Eu891 O905 2.374 . S
Eu891 O906 2.473 . S
Eu891 O907 2.480 . S
Eu891 O908 2.430 . S
Eu891 O909 2.670 . S
Eu891 O910 2.394 . S
C892 C890 1.500 . S
C892 C893 1.377 . S
C892 C897 1.377 . S
C893 C892 1.377 . S
C893 C894 1.395 . S
C893 H916 0.931 . S
C894 C893 1.395 . S
C894 C895 1.383 . S
C894 H917 0.931 . S
C895 C894 1.383 . S
C895 C896 1.394 . S
C896 C895 1.394 . S
C896 C897 1.378 . S
C896 H918 0.931 . S
C897 C892 1.377 . S
C897 C896 1.378 . S
C897 H919 0.931 . S
C898 O908 1.259 . S
C898 O909 1.270 . S
C899 O910 1.251 . S
C899 O911 1.251 . S
O900 C880 1.257 . S
O900 Eu881 2.473 . S
O901 C880 1.260 . S
O901 Eu881 2.480 . S
O902 Eu881 2.430 . S
O902 C888 1.259 . S
O903 Eu881 2.670 . S
O903 C888 1.270 . S
O903 Eu891 2.355 . S
O904 Eu881 2.394 . S
O904 C889 1.251 . S
O905 C889 1.251 . S
O905 Eu891 2.374 . S
O906 C890 1.257 . S
O906 Eu891 2.473 . S
O907 C890 1.260 . S
O907 Eu891 2.480 . S
O908 Eu891 2.430 . S
O908 C898 1.259 . S
O909 Eu881 2.355 . S
O909 Eu891 2.670 . S
O909 C898 1.270 . S
O910 Eu891 2.394 . S
O910 C899 1.251 . S
O911 Eu881 2.374 . S
O911 C899 1.251 . S
H912 C883 0.931 . S
H913 C884 0.931 . S
H914 C886 0.931 . S
H915 C887 0.931 . S
H916 C893 0.931 . S
H917 C894 0.931 . S
H918 C896 0.931 . S
H919 C897 0.931 . S
C920 Eu921 2.835 . S
C920 C922 1.500 . S
C920 O940 1.257 . S
C920 O941 1.260 . S
Eu921 C920 2.835 . S
Eu921 O940 2.473 . S
Eu921 O941 2.480 . S
Eu921 O942 2.430 . S
Eu921 O943 2.670 . S
Eu921 O944 2.394 . S
Eu921 O949 2.355 . S
Eu921 O951 2.374 . S
C922 C920 1.500 . S
C922 C923 1.377 . S
C922 C927 1.377 . S
C923 C922 1.377 . S
C923 C924 1.395 . S
C923 H952 0.931 . S
C924 C923 1.395 . S
C924 C925 1.383 . S
C924 H953 0.931 . S
C925 C924 1.383 . S
C925 C926 1.394 . S
C926 C925 1.394 . S
C926 C927 1.378 . S
C926 H954 0.931 . S
C927 C922 1.377 . S
C927 C926 1.378 . S
C927 H955 0.931 . S
C928 O942 1.259 . S
C928 O943 1.270 . S
C929 O944 1.251 . S
C929 O945 1.251 . S
C930 Eu931 2.835 . S
C930 C932 1.500 . S
C930 O946 1.257 . S
C930 O947 1.260 . S
Eu931 C930 2.835 . S
Eu931 O943 2.355 . S
Eu931 O945 2.374 . S
Eu931 O946 2.473 . S
Eu931 O947 2.480 . S
Eu931 O948 2.430 . S
Eu931 O949 2.670 . S
Eu931 O950 2.394 . S
C932 C930 1.500 . S
C932 C933 1.377 . S
C932 C937 1.377 . S
C933 C932 1.377 . S
C933 C934 1.395 . S
C933 H956 0.931 . S
C934 C933 1.395 . S
C934 C935 1.383 . S
C934 H957 0.931 . S
C935 C934 1.383 . S
C935 C936 1.394 . S
C936 C935 1.394 . S
C936 C937 1.378 . S
C936 H958 0.931 . S
C937 C932 1.377 . S
C937 C936 1.378 . S
C937 H959 0.931 . S
C938 O948 1.259 . S
C938 O949 1.270 . S
C939 O950 1.251 . S
C939 O951 1.251 . S
O940 C920 1.257 . S
O940 Eu921 2.473 . S
O941 C920 1.260 . S
O941 Eu921 2.480 . S
O942 Eu921 2.430 . S
O942 C928 1.259 . S
O943 Eu921 2.670 . S
O943 C928 1.270 . S
O943 Eu931 2.355 . S
O944 Eu921 2.394 . S
O944 C929 1.251 . S
O945 C929 1.251 . S
O945 Eu931 2.374 . S
O946 C930 1.257 . S
O946 Eu931 2.473 . S
O947 C930 1.260 . S
O947 Eu931 2.480 . S
O948 Eu931 2.430 . S
O948 C938 1.259 . S
O949 Eu921 2.355 . S
O949 Eu931 2.670 . S
O949 C938 1.270 . S
O950 Eu931 2.394 . S
O950 C939 1.251 . S
O951 Eu921 2.374 . S
O951 C939 1.251 . S
H952 C923 0.931 . S
H953 C924 0.931 . S
H954 C926 0.931 . S
H955 C927 0.931 . S
H956 C933 0.931 . S
H957 C934 0.931 . S
H958 C936 0.931 . S
H959 C937 0.931 . S
C960 Eu961 2.835 . S
C960 C962 1.500 . S
C960 O980 1.257 . S
C960 O981 1.260 . S
Eu961 C960 2.835 . S
Eu961 O980 2.473 . S
Eu961 O981 2.480 . S
Eu961 O982 2.430 . S
Eu961 O983 2.670 . S
Eu961 O984 2.394 . S
Eu961 O989 2.355 . S
Eu961 O991 2.374 . S
C962 C960 1.500 . S
C962 C963 1.377 . S
C962 C967 1.377 . S
C963 C962 1.377 . S
C963 C964 1.395 . S
C963 H992 0.931 . S
C964 C963 1.395 . S
C964 C965 1.383 . S
C964 H993 0.931 . S
C965 C964 1.383 . S
C965 C966 1.394 . S
C966 C965 1.394 . S
C966 C967 1.378 . S
C966 H994 0.931 . S
C967 C962 1.377 . S
C967 C966 1.378 . S
C967 H995 0.931 . S
C968 O982 1.259 . S
C968 O983 1.270 . S
C969 O984 1.251 . S
C969 O985 1.251 . S
C970 Eu971 2.835 . S
C970 C972 1.500 . S
C970 O986 1.257 . S
C970 O987 1.260 . S
Eu971 C970 2.835 . S
Eu971 O983 2.355 . S
Eu971 O985 2.374 . S
Eu971 O986 2.473 . S
Eu971 O987 2.480 . S
Eu971 O988 2.430 . S
Eu971 O989 2.670 . S
Eu971 O990 2.394 . S
C972 C970 1.500 . S
C972 C973 1.377 . S
C972 C977 1.377 . S
C973 C972 1.377 . S
C973 C974 1.395 . S
C973 H996 0.931 . S
C974 C973 1.395 . S
C974 C975 1.383 . S
C974 H997 0.931 . S
C975 C974 1.383 . S
C975 C976 1.394 . S
C976 C975 1.394 . S
C976 C977 1.378 . S
C976 H998 0.931 . S
C977 C972 1.377 . S
C977 C976 1.378 . S
C977 H999 0.931 . S
C978 O988 1.259 . S
C978 O989 1.270 . S
C979 O990 1.251 . S
C979 O991 1.251 . S
O980 C960 1.257 . S
O980 Eu961 2.473 . S
O981 C960 1.260 . S
O981 Eu961 2.480 . S
O982 Eu961 2.430 . S
O982 C968 1.259 . S
O983 Eu961 2.670 . S
O983 C968 1.270 . S
O983 Eu971 2.355 . S
O984 Eu961 2.394 . S
O984 C969 1.251 . S
O985 C969 1.251 . S
O985 Eu971 2.374 . S
O986 C970 1.257 . S
O986 Eu971 2.473 . S
O987 C970 1.260 . S
O987 Eu971 2.480 . S
O988 Eu971 2.430 . S
O988 C978 1.259 . S
O989 Eu961 2.355 . S
O989 Eu971 2.670 . S
O989 C978 1.270 . S
O990 Eu971 2.394 . S
O990 C979 1.251 . S
O991 Eu961 2.374 . S
O991 C979 1.251 . S
H992 C963 0.931 . S
H993 C964 0.931 . S
H994 C966 0.931 . S
H995 C967 0.931 . S
H996 C973 0.931 . S
H997 C974 0.931 . S
H998 C976 0.931 . S
H999 C977 0.931 . S
C1000 Eu1001 2.835 1_554 S
C1000 C1002 1.500 . S
C1000 O1020 1.257 . S
C1000 O1021 1.260 . S
Eu1001 C1000 2.835 1_556 S
Eu1001 O1020 2.473 1_556 S
Eu1001 O1021 2.480 1_556 S
Eu1001 O1022 2.430 . S
Eu1001 O1023 2.670 . S
Eu1001 O1024 2.394 1_556 S
Eu1001 O1029 2.345 1_556 S
Eu1001 O1031 2.374 . S
C1002 C1000 1.500 . S
C1002 C1003 1.377 . S
C1002 C1007 1.377 . S
C1003 C1002 1.377 . S
C1003 C1004 1.395 . S
C1003 H1032 0.931 . S
C1004 C1003 1.395 . S
C1004 C1005 1.383 . S
C1004 H1033 0.931 . S
C1005 C1004 1.383 . S
C1005 C1006 1.394 . S
C1006 C1005 1.394 . S
C1006 C1007 1.378 . S
C1006 H1034 0.931 . S
C1007 C1002 1.377 . S
C1007 C1006 1.378 . S
C1007 H1035 0.931 . S
C1008 O1022 1.259 . S
C1008 O1023 1.270 . S
C1009 O1024 1.251 . S
C1009 O1025 1.251 . S
C1010 Eu1011 2.835 . S
C1010 C1012 1.500 . S
C1010 O1026 1.257 . S
C1010 O1027 1.260 . S
Eu1011 C1010 2.835 . S
Eu1011 O1023 2.355 . S
Eu1011 O1025 2.374 1_556 S
Eu1011 O1026 2.473 . S
Eu1011 O1027 2.480 . S
Eu1011 O1028 2.434 . S
Eu1011 O1029 2.660 1_556 S
Eu1011 O1030 2.394 . S
C1012 C1010 1.500 . S
C1012 C1013 1.377 . S
C1012 C1017 1.377 . S
C1013 C1012 1.377 . S
C1013 C1014 1.395 . S
C1013 H1036 0.931 . S
C1014 C1013 1.395 . S
C1014 C1015 1.383 . S
C1014 H1037 0.931 . S
C1015 C1014 1.383 . S
C1015 C1016 1.394 . S
C1016 C1015 1.394 . S
C1016 C1017 1.378 . S
C1016 H1038 0.931 . S
C1017 C1012 1.377 . S
C1017 C1016 1.378 . S
C1017 H1039 0.931 . S
C1018 O1028 1.258 1_554 S
C1018 O1029 1.274 . S
C1019 O1030 1.251 . S
C1019 O1031 1.251 . S
O1020 C1000 1.257 . S
O1020 Eu1001 2.473 1_554 S
O1021 C1000 1.260 . S
O1021 Eu1001 2.480 1_554 S
O1022 Eu1001 2.430 . S
O1022 C1008 1.259 . S
O1023 Eu1001 2.670 . S
O1023 C1008 1.270 . S
O1023 Eu1011 2.355 . S
O1024 Eu1001 2.394 1_554 S
O1024 C1009 1.251 . S
O1025 C1009 1.251 . S
O1025 Eu1011 2.374 1_554 S
O1026 C1010 1.257 . S
O1026 Eu1011 2.473 . S
O1027 C1010 1.260 . S
O1027 Eu1011 2.480 . S
O1028 Eu1011 2.434 . S
O1028 C1018 1.258 1_556 S
O1029 Eu1001 2.345 1_554 S
O1029 Eu1011 2.660 1_554 S
O1029 C1018 1.274 . S
O1030 Eu1011 2.394 . S
O1030 C1019 1.251 . S
O1031 Eu1001 2.374 . S
O1031 C1019 1.251 . S
H1032 C1003 0.931 . S
H1033 C1004 0.931 . S
H1034 C1006 0.931 . S
H1035 C1007 0.931 . S
H1036 C1013 0.931 . S
H1037 C1014 0.931 . S
H1038 C1016 0.931 . S
H1039 C1017 0.931 . S
C1040 Eu1041 2.835 . S
C1040 C1042 1.500 . S
C1040 O1060 1.257 . S
C1040 O1061 1.260 . S
Eu1041 C1040 2.835 . S
Eu1041 O1060 2.473 . S
Eu1041 O1061 2.480 . S
Eu1041 O1062 2.430 . S
Eu1041 O1063 2.670 . S
Eu1041 O1064 2.394 . S
Eu1041 O1069 2.355 . S
Eu1041 O1071 2.374 . S
C1042 C1040 1.500 . S
C1042 C1043 1.377 . S
C1042 C1047 1.377 . S
C1043 C1042 1.377 . S
C1043 C1044 1.395 . S
C1043 H1072 0.931 . S
C1044 C1043 1.395 . S
C1044 C1045 1.383 . S
C1044 H1073 0.931 . S
C1045 C1044 1.383 . S
C1045 C1046 1.394 . S
C1046 C1045 1.394 . S
C1046 C1047 1.378 . S
C1046 H1074 0.931 . S
C1047 C1042 1.377 . S
C1047 C1046 1.378 . S
C1047 H1075 0.931 . S
C1048 O1062 1.259 . S
C1048 O1063 1.270 . S
C1049 O1064 1.251 . S
C1049 O1065 1.251 . S
C1050 Eu1051 2.835 . S
C1050 C1052 1.500 . S
C1050 O1066 1.257 . S
C1050 O1067 1.260 . S
Eu1051 C1050 2.835 . S
Eu1051 O1063 2.355 . S
Eu1051 O1065 2.374 . S
Eu1051 O1066 2.473 . S
Eu1051 O1067 2.480 . S
Eu1051 O1068 2.430 . S
Eu1051 O1069 2.670 . S
Eu1051 O1070 2.394 . S
C1052 C1050 1.500 . S
C1052 C1053 1.377 . S
C1052 C1057 1.377 . S
C1053 C1052 1.377 . S
C1053 C1054 1.395 1_455 S
C1053 H1076 0.931 . S
C1054 C1053 1.395 1_655 S
C1054 C1055 1.383 . S
C1054 H1077 0.931 . S
C1055 C1054 1.383 . S
C1055 C1056 1.394 1_655 S
C1056 C1055 1.394 1_455 S
C1056 C1057 1.378 . S
C1056 H1078 0.931 . S
C1057 C1052 1.377 . S
C1057 C1056 1.378 . S
C1057 H1079 0.931 . S
C1058 O1068 1.259 . S
C1058 O1069 1.270 . S
C1059 O1070 1.251 . S
C1059 O1071 1.251 . S
O1060 C1040 1.257 . S
O1060 Eu1041 2.473 . S
O1061 C1040 1.260 . S
O1061 Eu1041 2.480 . S
O1062 Eu1041 2.430 . S
O1062 C1048 1.259 . S
O1063 Eu1041 2.670 . S
O1063 C1048 1.270 . S
O1063 Eu1051 2.355 . S
O1064 Eu1041 2.394 . S
O1064 C1049 1.251 . S
O1065 C1049 1.251 . S
O1065 Eu1051 2.374 . S
O1066 C1050 1.257 . S
O1066 Eu1051 2.473 . S
O1067 C1050 1.260 . S
O1067 Eu1051 2.480 . S
O1068 Eu1051 2.430 . S
O1068 C1058 1.259 . S
O1069 Eu1041 2.355 . S
O1069 Eu1051 2.670 . S
O1069 C1058 1.270 . S
O1070 Eu1051 2.394 . S
O1070 C1059 1.251 . S
O1071 Eu1041 2.374 . S
O1071 C1059 1.251 . S
H1072 C1043 0.931 . S
H1073 C1044 0.931 . S
H1074 C1046 0.931 . S
H1075 C1047 0.931 . S
H1076 C1053 0.931 . S
H1077 C1054 0.931 . S
H1078 C1056 0.931 . S
H1079 C1057 0.931 . S
C1080 Eu1081 2.835 . S
C1080 C1082 1.500 . S
C1080 O1100 1.257 . S
C1080 O1101 1.260 . S
Eu1081 C1080 2.835 . S
Eu1081 O1100 2.473 . S
Eu1081 O1101 2.480 . S
Eu1081 O1102 2.430 . S
Eu1081 O1103 2.670 . S
Eu1081 O1104 2.394 . S
Eu1081 O1109 2.355 . S
Eu1081 O1111 2.374 . S
C1082 C1080 1.500 . S
C1082 C1083 1.377 . S
C1082 C1087 1.377 . S
C1083 C1082 1.377 . S
C1083 C1084 1.395 . S
C1083 H1112 0.931 . S
C1084 C1083 1.395 . S
C1084 C1085 1.383 . S
C1084 H1113 0.931 . S
C1085 C1084 1.383 . S
C1085 C1086 1.394 . S
C1086 C1085 1.394 . S
C1086 C1087 1.378 . S
C1086 H1114 0.931 . S
C1087 C1082 1.377 . S
C1087 C1086 1.378 . S
C1087 H1115 0.931 . S
C1088 O1102 1.259 . S
C1088 O1103 1.270 . S
C1089 O1104 1.251 . S
C1089 O1105 1.251 . S
C1090 Eu1091 2.835 . S
C1090 C1092 1.500 . S
C1090 O1106 1.257 . S
C1090 O1107 1.260 . S
Eu1091 C1090 2.835 . S
Eu1091 O1103 2.355 . S
Eu1091 O1105 2.374 . S
Eu1091 O1106 2.473 . S
Eu1091 O1107 2.480 . S
Eu1091 O1108 2.430 . S
Eu1091 O1109 2.670 . S
Eu1091 O1110 2.394 . S
C1092 C1090 1.500 . S
C1092 C1093 1.377 . S
C1092 C1097 1.377 . S
C1093 C1092 1.377 . S
C1093 C1094 1.395 . S
C1093 H1116 0.931 . S
C1094 C1093 1.395 . S
C1094 C1095 1.383 . S
C1094 H1117 0.931 . S
C1095 C1094 1.383 . S
C1095 C1096 1.394 . S
C1096 C1095 1.394 . S
C1096 C1097 1.378 . S
C1096 H1118 0.931 . S
C1097 C1092 1.377 . S
C1097 C1096 1.378 . S
C1097 H1119 0.931 . S
C1098 O1108 1.259 . S
C1098 O1109 1.270 . S
C1099 O1110 1.251 . S
C1099 O1111 1.251 . S
O1100 C1080 1.257 . S
O1100 Eu1081 2.473 . S
O1101 C1080 1.260 . S
O1101 Eu1081 2.480 . S
O1102 Eu1081 2.430 . S
O1102 C1088 1.259 . S
O1103 Eu1081 2.670 . S
O1103 C1088 1.270 . S
O1103 Eu1091 2.355 . S
O1104 Eu1081 2.394 . S
O1104 C1089 1.251 . S
O1105 C1089 1.251 . S
O1105 Eu1091 2.374 . S
O1106 C1090 1.257 . S
O1106 Eu1091 2.473 . S
O1107 C1090 1.260 . S
O1107 Eu1091 2.480 . S
O1108 Eu1091 2.430 . S
O1108 C1098 1.259 . S
O1109 Eu1081 2.355 . S
O1109 Eu1091 2.670 . S
O1109 C1098 1.270 . S
O1110 Eu1091 2.394 . S
O1110 C1099 1.251 . S
O1111 Eu1081 2.374 . S
O1111 C1099 1.251 . S
H1112 C1083 0.931 . S
H1113 C1084 0.931 . S
H1114 C1086 0.931 . S
H1115 C1087 0.931 . S
H1116 C1093 0.931 . S
H1117 C1094 0.931 . S
H1118 C1096 0.931 . S
H1119 C1097 0.931 . S
C1120 Eu1121 2.835 . S
C1120 C1122 1.500 . S
C1120 O1140 1.257 . S
C1120 O1141 1.260 . S
Eu1121 C1120 2.835 . S
Eu1121 O1140 2.473 . S
Eu1121 O1141 2.480 . S
Eu1121 O1142 2.430 . S
Eu1121 O1143 2.670 . S
Eu1121 O1144 2.394 . S
Eu1121 O1149 2.355 . S
Eu1121 O1151 2.374 . S
C1122 C1120 1.500 . S
C1122 C1123 1.377 . S
C1122 C1127 1.377 . S
C1123 C1122 1.377 . S
C1123 C1124 1.395 . S
C1123 H1152 0.931 . S
C1124 C1123 1.395 . S
C1124 C1125 1.383 . S
C1124 H1153 0.931 . S
C1125 C1124 1.383 . S
C1125 C1126 1.394 . S
C1126 C1125 1.394 . S
C1126 C1127 1.378 . S
C1126 H1154 0.931 . S
C1127 C1122 1.377 . S
C1127 C1126 1.378 . S
C1127 H1155 0.931 . S
C1128 O1142 1.259 . S
C1128 O1143 1.270 . S
C1129 O1144 1.251 . S
C1129 O1145 1.251 . S
C1130 Eu1131 2.835 . S
C1130 C1132 1.500 . S
C1130 O1146 1.257 . S
C1130 O1147 1.260 . S
Eu1131 C1130 2.835 . S
Eu1131 O1143 2.355 . S
Eu1131 O1145 2.374 . S
Eu1131 O1146 2.473 . S
Eu1131 O1147 2.480 . S
Eu1131 O1148 2.430 . S
Eu1131 O1149 2.670 . S
Eu1131 O1150 2.394 . S
C1132 C1130 1.500 . S
C1132 C1133 1.377 . S
C1132 C1137 1.377 . S
C1133 C1132 1.377 . S
C1133 C1134 1.395 . S
C1133 H1156 0.931 . S
C1134 C1133 1.395 . S
C1134 C1135 1.383 . S
C1134 H1157 0.931 . S
C1135 C1134 1.383 . S
C1135 C1136 1.394 . S
C1136 C1135 1.394 . S
C1136 C1137 1.378 . S
C1136 H1158 0.931 . S
C1137 C1132 1.377 . S
C1137 C1136 1.378 . S
C1137 H1159 0.931 . S
C1138 O1148 1.259 . S
C1138 O1149 1.270 . S
C1139 O1150 1.251 . S
C1139 O1151 1.251 . S
O1140 C1120 1.257 . S
O1140 Eu1121 2.473 . S
O1141 C1120 1.260 . S
O1141 Eu1121 2.480 . S
O1142 Eu1121 2.430 . S
O1142 C1128 1.259 . S
O1143 Eu1121 2.670 . S
O1143 C1128 1.270 . S
O1143 Eu1131 2.355 . S
O1144 Eu1121 2.394 . S
O1144 C1129 1.251 . S
O1145 C1129 1.251 . S
O1145 Eu1131 2.374 . S
O1146 C1130 1.257 . S
O1146 Eu1131 2.473 . S
O1147 C1130 1.260 . S
O1147 Eu1131 2.480 . S
O1148 Eu1131 2.430 . S
O1148 C1138 1.259 . S
O1149 Eu1121 2.355 . S
O1149 Eu1131 2.670 . S
O1149 C1138 1.270 . S
O1150 Eu1131 2.394 . S
O1150 C1139 1.251 . S
O1151 Eu1121 2.374 . S
O1151 C1139 1.251 . S
H1152 C1123 0.931 . S
H1153 C1124 0.931 . S
H1154 C1126 0.931 . S
H1155 C1127 0.931 . S
H1156 C1133 0.931 . S
H1157 C1134 0.931 . S
H1158 C1136 0.931 . S
H1159 C1137 0.931 . S
C1160 Eu1161 2.835 1_556 S
C1160 C1162 1.500 . S
C1160 O1180 1.257 . S
C1160 O1181 1.260 . S
Eu1161 C1160 2.835 1_554 S
Eu1161 O1180 2.473 1_554 S
Eu1161 O1181 2.480 1_554 S
Eu1161 O1182 2.430 . S
Eu1161 O1183 2.670 . S
Eu1161 O1184 2.394 1_554 S
Eu1161 O1189 2.345 1_554 S
Eu1161 O1191 2.374 . S
C1162 C1160 1.500 . S
C1162 C1163 1.377 . S
C1162 C1167 1.377 . S
C1163 C1162 1.377 . S
C1163 C1164 1.395 . S
C1163 H1192 0.931 . S
C1164 C1163 1.395 . S
C1164 C1165 1.383 . S
C1164 H1193 0.931 . S
C1165 C1164 1.383 . S
C1165 C1166 1.394 . S
C1166 C1165 1.394 . S
C1166 C1167 1.378 . S
C1166 H1194 0.931 . S
C1167 C1162 1.377 . S
C1167 C1166 1.378 . S
C1167 H1195 0.931 . S
C1168 O1182 1.259 . S
C1168 O1183 1.270 . S
C1169 O1184 1.251 . S
C1169 O1185 1.251 . S
C1170 Eu1171 2.835 . S
C1170 C1172 1.500 . S
C1170 O1186 1.257 . S
C1170 O1187 1.260 . S
Eu1171 C1170 2.835 . S
Eu1171 O1183 2.355 . S
Eu1171 O1185 2.374 1_554 S
Eu1171 O1186 2.473 . S
Eu1171 O1187 2.480 . S
Eu1171 O1188 2.435 . S
Eu1171 O1189 2.660 1_554 S
Eu1171 O1190 2.394 . S
C1172 C1170 1.500 . S
C1172 C1173 1.377 . S
C1172 C1177 1.377 . S
C1173 C1172 1.377 . S
C1173 C1174 1.395 . S
C1173 H1196 0.931 . S
C1174 C1173 1.395 . S
C1174 C1175 1.383 . S
C1174 H1197 0.931 . S
C1175 C1174 1.383 . S
C1175 C1176 1.394 . S
C1176 C1175 1.394 . S
C1176 C1177 1.378 . S
C1176 H1198 0.931 . S
C1177 C1172 1.377 . S
C1177 C1176 1.378 . S
C1177 H1199 0.931 . S
C1178 O1188 1.258 1_556 S
C1178 O1189 1.274 . S
C1179 O1190 1.251 . S
C1179 O1191 1.251 . S
O1180 C1160 1.257 . S
O1180 Eu1161 2.473 1_556 S
O1181 C1160 1.260 . S
O1181 Eu1161 2.480 1_556 S
O1182 Eu1161 2.430 . S
O1182 C1168 1.259 . S
O1183 Eu1161 2.670 . S
O1183 C1168 1.270 . S
O1183 Eu1171 2.355 . S
O1184 Eu1161 2.394 1_556 S
O1184 C1169 1.251 . S
O1185 C1169 1.251 . S
O1185 Eu1171 2.374 1_556 S
O1186 C1170 1.257 . S
O1186 Eu1171 2.473 . S
O1187 C1170 1.260 . S
O1187 Eu1171 2.480 . S
O1188 Eu1171 2.435 . S
O1188 C1178 1.258 1_554 S
O1189 Eu1161 2.345 1_556 S
O1189 Eu1171 2.660 1_556 S
O1189 C1178 1.274 . S
O1190 Eu1171 2.394 . S
O1190 C1179 1.251 . S
O1191 Eu1161 2.374 . S
O1191 C1179 1.251 . S
H1192 C1163 0.931 . S
H1193 C1164 0.931 . S
H1194 C1166 0.931 . S
H1195 C1167 0.931 . S
H1196 C1173 0.931 . S
H1197 C1174 0.931 . S
H1198 C1176 0.931 . S
H1199 C1177 0.931 . S
C1200 Eu1201 2.835 . S
C1200 C1202 1.500 . S
C1200 O1220 1.257 . S
C1200 O1221 1.260 . S
Eu1201 C1200 2.835 . S
Eu1201 O1220 2.473 . S
Eu1201 O1221 2.480 . S
Eu1201 O1222 2.430 . S
Eu1201 O1223 2.670 . S
Eu1201 O1224 2.394 . S
Eu1201 O1229 2.355 . S
Eu1201 O1231 2.374 . S
C1202 C1200 1.500 . S
C1202 C1203 1.377 . S
C1202 C1207 1.377 . S
C1203 C1202 1.377 . S
C1203 C1204 1.395 . S
C1203 H1232 0.931 . S
C1204 C1203 1.395 . S
C1204 C1205 1.383 . S
C1204 H1233 0.931 . S
C1205 C1204 1.383 . S
C1205 C1206 1.394 . S
C1206 C1205 1.394 . S
C1206 C1207 1.378 . S
C1206 H1234 0.931 . S
C1207 C1202 1.377 . S
C1207 C1206 1.378 . S
C1207 H1235 0.931 . S
C1208 O1222 1.259 . S
C1208 O1223 1.270 . S
C1209 O1224 1.251 . S
C1209 O1225 1.251 . S
C1210 Eu1211 2.835 . S
C1210 C1212 1.500 . S
C1210 O1226 1.257 . S
C1210 O1227 1.260 . S
Eu1211 C1210 2.835 . S
Eu1211 O1223 2.355 . S
Eu1211 O1225 2.374 . S
Eu1211 O1226 2.473 . S
Eu1211 O1227 2.480 . S
Eu1211 O1228 2.430 . S
Eu1211 O1229 2.670 . S
Eu1211 O1230 2.394 . S
C1212 C1210 1.500 . S
C1212 C1213 1.377 . S
C1212 C1217 1.377 . S
C1213 C1212 1.377 . S
C1213 C1214 1.395 1_455 S
C1213 H1236 0.931 . S
C1214 C1213 1.395 1_655 S
C1214 C1215 1.383 . S
C1214 H1237 0.931 . S
C1215 C1214 1.383 . S
C1215 C1216 1.394 1_655 S
C1216 C1215 1.394 1_455 S
C1216 C1217 1.378 . S
C1216 H1238 0.931 . S
C1217 C1212 1.377 . S
C1217 C1216 1.378 . S
C1217 H1239 0.931 . S
C1218 O1228 1.259 . S
C1218 O1229 1.270 . S
C1219 O1230 1.251 . S
C1219 O1231 1.251 . S
O1220 C1200 1.257 . S
O1220 Eu1201 2.473 . S
O1221 C1200 1.260 . S
O1221 Eu1201 2.480 . S
O1222 Eu1201 2.430 . S
O1222 C1208 1.259 . S
O1223 Eu1201 2.670 . S
O1223 C1208 1.270 . S
O1223 Eu1211 2.355 . S
O1224 Eu1201 2.394 . S
O1224 C1209 1.251 . S
O1225 C1209 1.251 . S
O1225 Eu1211 2.374 . S
O1226 C1210 1.257 . S
O1226 Eu1211 2.473 . S
O1227 C1210 1.260 . S
O1227 Eu1211 2.480 . S
O1228 Eu1211 2.430 . S
O1228 C1218 1.259 . S
O1229 Eu1201 2.355 . S
O1229 Eu1211 2.670 . S
O1229 C1218 1.270 . S
O1230 Eu1211 2.394 . S
O1230 C1219 1.251 . S
O1231 Eu1201 2.374 . S
O1231 C1219 1.251 . S
H1232 C1203 0.931 . S
H1233 C1204 0.931 . S
H1234 C1206 0.931 . S
H1235 C1207 0.931 . S
H1236 C1213 0.931 . S
H1237 C1214 0.931 . S
H1238 C1216 0.931 . S
H1239 C1217 0.931 . S
C1240 Eu1241 2.835 . S
C1240 C1242 1.500 . S
C1240 O1260 1.257 . S
C1240 O1261 1.260 . S
Eu1241 C1240 2.835 . S
Eu1241 O1260 2.473 . S
Eu1241 O1261 2.480 . S
Eu1241 O1262 2.430 . S
Eu1241 O1263 2.670 . S
Eu1241 O1264 2.394 . S
Eu1241 O1269 2.355 . S
Eu1241 O1271 2.374 . S
C1242 C1240 1.500 . S
C1242 C1243 1.377 . S
C1242 C1247 1.377 . S
C1243 C1242 1.377 . S
C1243 C1244 1.395 . S
C1243 H1272 0.931 . S
C1244 C1243 1.395 . S
C1244 C1245 1.383 . S
C1244 H1273 0.931 . S
C1245 C1244 1.383 . S
C1245 C1246 1.394 . S
C1246 C1245 1.394 . S
C1246 C1247 1.378 . S
C1246 H1274 0.931 . S
C1247 C1242 1.377 . S
C1247 C1246 1.378 . S
C1247 H1275 0.931 . S
C1248 O1262 1.259 . S
C1248 O1263 1.270 . S
C1249 O1264 1.251 . S
C1249 O1265 1.251 . S
C1250 Eu1251 2.835 . S
C1250 C1252 1.500 . S
C1250 O1266 1.257 . S
C1250 O1267 1.260 . S
Eu1251 C1250 2.835 . S
Eu1251 O1263 2.355 . S
Eu1251 O1265 2.374 . S
Eu1251 O1266 2.473 . S
Eu1251 O1267 2.480 . S
Eu1251 O1268 2.430 . S
Eu1251 O1269 2.670 . S
Eu1251 O1270 2.394 . S
C1252 C1250 1.500 . S
C1252 C1253 1.377 . S
C1252 C1257 1.377 . S
C1253 C1252 1.377 . S
C1253 C1254 1.395 . S
C1253 H1276 0.931 . S
C1254 C1253 1.395 . S
C1254 C1255 1.383 . S
C1254 H1277 0.931 . S
C1255 C1254 1.383 . S
C1255 C1256 1.394 . S
C1256 C1255 1.394 . S
C1256 C1257 1.378 . S
C1256 H1278 0.931 . S
C1257 C1252 1.377 . S
C1257 C1256 1.378 . S
C1257 H1279 0.931 . S
C1258 O1268 1.259 . S
C1258 O1269 1.270 . S
C1259 O1270 1.251 . S
C1259 O1271 1.251 . S
O1260 C1240 1.257 . S
O1260 Eu1241 2.473 . S
O1261 C1240 1.260 . S
O1261 Eu1241 2.480 . S
O1262 Eu1241 2.430 . S
O1262 C1248 1.259 . S
O1263 Eu1241 2.670 . S
O1263 C1248 1.270 . S
O1263 Eu1251 2.355 . S
O1264 Eu1241 2.394 . S
O1264 C1249 1.251 . S
O1265 C1249 1.251 . S
O1265 Eu1251 2.374 . S
O1266 C1250 1.257 . S
O1266 Eu1251 2.473 . S
O1267 C1250 1.260 . S
O1267 Eu1251 2.480 . S
O1268 Eu1251 2.430 . S
O1268 C1258 1.259 . S
O1269 Eu1241 2.355 . S
O1269 Eu1251 2.670 . S
O1269 C1258 1.270 . S
O1270 Eu1251 2.394 . S
O1270 C1259 1.251 . S
O1271 Eu1241 2.374 . S
O1271 C1259 1.251 . S
H1272 C1243 0.931 . S
H1273 C1244 0.931 . S
H1274 C1246 0.931 . S
H1275 C1247 0.931 . S
H1276 C1253 0.931 . S
H1277 C1254 0.931 . S
H1278 C1256 0.931 . S
H1279 C1257 0.931 . S
C1280 C1281 1.387 . S
C1280 H1284 0.950 . S
C1280 C1289 1.390 . S
C1281 C1280 1.387 . S
C1281 C1283 1.387 . S
H1282 C1289 0.950 . S
C1283 C1281 1.387 . S
C1283 C1285 1.390 . S
C1283 H1287 0.950 . S
H1284 C1280 0.950 . S
C1285 C1283 1.390 . S
C1285 C1286 1.387 . S
C1285 H1288 0.950 . S
C1286 C1285 1.387 . S
C1286 C1289 1.387 . S
H1287 C1283 0.950 . S
H1288 C1285 0.950 . S
C1289 C1280 1.390 . S
C1289 H1282 0.950 . S
C1289 C1286 1.387 . S
C1290 C1291 1.387 . S
C1290 H1294 0.950 . S
C1290 C1299 1.390 . S
C1291 C1290 1.387 . S
C1291 C1293 1.387 . S
H1292 C1299 0.950 . S
C1293 C1291 1.387 . S
C1293 C1295 1.390 . S
C1293 H1297 0.950 . S
H1294 C1290 0.950 . S
C1295 C1293 1.390 . S
C1295 C1296 1.387 . S
C1295 H1298 0.950 . S
C1296 C1295 1.387 . S
C1296 C1299 1.387 . S
H1297 C1293 0.950 . S
H1298 C1295 0.950 . S
C1299 C1290 1.390 . S
C1299 H1292 0.950 . S
C1299 C1296 1.387 . S
C1300 C1301 1.387 . S
C1300 H1304 0.950 . S
C1300 C1309 1.390 . S
C1301 C1300 1.387 . S
C1301 C1303 1.387 . S
H1302 C1309 0.950 . S
C1303 C1301 1.387 . S
C1303 C1305 1.390 . S
C1303 H1307 0.950 . S
H1304 C1300 0.950 . S
C1305 C1303 1.390 . S
C1305 C1306 1.387 . S
C1305 H1308 0.950 . S
C1306 C1305 1.387 . S
C1306 C1309 1.387 . S
H1307 C1303 0.950 . S
H1308 C1305 0.950 . S
C1309 C1300 1.390 . S
C1309 H1302 0.950 . S
C1309 C1306 1.387 . S
C1310 C1311 1.387 . S
C1310 H1314 0.950 . S
C1310 C1319 1.390 . S
C1311 C1310 1.387 . S
C1311 C1313 1.387 . S
H1312 C1319 0.950 . S
C1313 C1311 1.387 . S
C1313 C1315 1.390 . S
C1313 H1317 0.950 . S
H1314 C1310 0.950 . S
C1315 C1313 1.390 . S
C1315 C1316 1.387 . S
C1315 H1318 0.950 . S
C1316 C1315 1.387 . S
C1316 C1319 1.387 . S
H1317 C1313 0.950 . S
H1318 C1315 0.950 . S
C1319 C1310 1.390 . S
C1319 H1312 0.950 . S
C1319 C1316 1.387 . S
C1320 C1321 1.387 . S
C1320 H1324 0.950 . S
C1320 C1329 1.390 . S
C1321 C1320 1.387 . S
C1321 C1323 1.387 . S
H1322 C1329 0.950 . S
C1323 C1321 1.387 . S
C1323 C1325 1.390 . S
C1323 H1327 0.950 . S
H1324 C1320 0.950 . S
C1325 C1323 1.390 . S
C1325 C1326 1.387 . S
C1325 H1328 0.950 . S
C1326 C1325 1.387 . S
C1326 C1329 1.387 . S
H1327 C1323 0.950 . S
H1328 C1325 0.950 . S
C1329 C1320 1.390 . S
C1329 H1322 0.950 . S
C1329 C1326 1.387 . S
C1330 C1331 1.387 . S
C1330 H1334 0.950 . S
C1330 C1339 1.390 . S
C1331 C1330 1.387 . S
C1331 C1333 1.387 . S
H1332 C1339 0.950 . S
C1333 C1331 1.387 . S
C1333 C1335 1.390 . S
C1333 H1337 0.950 . S
H1334 C1330 0.950 . S
C1335 C1333 1.390 . S
C1335 C1336 1.387 . S
C1335 H1338 0.950 . S
C1336 C1335 1.387 . S
C1336 C1339 1.387 . S
H1337 C1333 0.950 . S
H1338 C1335 0.950 . S
C1339 C1330 1.390 . S
C1339 H1332 0.950 . S
C1339 C1336 1.387 . S
C1340 C1341 1.387 . S
C1340 H1344 0.950 . S
C1340 C1349 1.390 . S
C1341 C1340 1.387 . S
C1341 C1343 1.387 . S
H1342 C1349 0.950 . S
C1343 C1341 1.387 . S
C1343 C1345 1.390 . S
C1343 H1347 0.950 . S
H1344 C1340 0.950 . S
C1345 C1343 1.390 . S
C1345 C1346 1.387 . S
C1345 H1348 0.950 . S
C1346 C1345 1.387 . S
C1346 C1349 1.387 . S
H1347 C1343 0.950 . S
H1348 C1345 0.950 . S
C1349 C1340 1.390 . S
C1349 H1342 0.950 . S
C1349 C1346 1.387 . S
C1350 C1351 1.387 . S
C1350 H1354 0.950 . S
C1350 C1359 1.390 . S
C1351 C1350 1.387 . S
C1351 C1353 1.387 . S
H1352 C1359 0.950 . S
C1353 C1351 1.387 . S
C1353 C1355 1.390 . S
C1353 H1357 0.950 . S
H1354 C1350 0.950 . S
C1355 C1353 1.390 . S
C1355 C1356 1.387 . S
C1355 H1358 0.950 . S
C1356 C1355 1.387 . S
C1356 C1359 1.387 . S
H1357 C1353 0.950 . S
H1358 C1355 0.950 . S
C1359 C1350 1.390 . S
C1359 H1352 0.950 . S
C1359 C1356 1.387 . S
C1360 C1361 1.387 . S
C1360 H1364 0.950 . S
C1360 C1369 1.390 . S
C1361 C1360 1.387 . S
C1361 C1363 1.387 . S
H1362 C1369 0.950 . S
C1363 C1361 1.387 . S
C1363 C1365 1.390 . S
C1363 H1367 0.950 . S
H1364 C1360 0.950 . S
C1365 C1363 1.390 . S
C1365 C1366 1.387 . S
C1365 H1368 0.950 . S
C1366 C1365 1.387 . S
C1366 C1369 1.387 . S
H1367 C1363 0.950 . S
H1368 C1365 0.950 . S
C1369 C1360 1.390 . S
C1369 H1362 0.950 . S
C1369 C1366 1.387 . S
C1370 C1371 1.387 . S
C1370 H1374 0.950 . S
C1370 C1379 1.390 . S
C1371 C1370 1.387 . S
C1371 C1373 1.387 . S
H1372 C1379 0.950 . S
C1373 C1371 1.387 . S
C1373 C1375 1.390 . S
C1373 H1377 0.950 . S
H1374 C1370 0.950 . S
C1375 C1373 1.390 . S
C1375 C1376 1.387 . S
C1375 H1378 0.950 . S
C1376 C1375 1.387 . S
C1376 C1379 1.387 . S
H1377 C1373 0.950 . S
H1378 C1375 0.950 . S
C1379 C1370 1.390 . S
C1379 H1372 0.950 . S
C1379 C1376 1.387 . S
C1380 C1381 1.387 . S
C1380 H1384 0.950 . S
C1380 C1389 1.390 . S
C1381 C1380 1.387 . S
C1381 C1383 1.387 . S
H1382 C1389 0.950 . S
C1383 C1381 1.387 . S
C1383 C1385 1.390 . S
C1383 H1387 0.950 . S
H1384 C1380 0.950 . S
C1385 C1383 1.390 . S
C1385 C1386 1.387 . S
C1385 H1388 0.950 . S
C1386 C1385 1.387 . S
C1386 C1389 1.387 . S
H1387 C1383 0.950 . S
H1388 C1385 0.950 . S
C1389 C1380 1.390 . S
C1389 H1382 0.950 . S
C1389 C1386 1.387 . S
C1390 C1391 1.387 . S
C1390 H1394 0.950 . S
C1390 C1399 1.390 . S
C1391 C1390 1.387 . S
C1391 C1393 1.387 . S
H1392 C1399 0.950 . S
C1393 C1391 1.387 . S
C1393 C1395 1.390 . S
C1393 H1397 0.950 . S
H1394 C1390 0.950 . S
C1395 C1393 1.390 . S
C1395 C1396 1.387 . S
C1395 H1398 0.950 . S
C1396 C1395 1.387 . S
C1396 C1399 1.387 . S
H1397 C1393 0.950 . S
H1398 C1395 0.950 . S
C1399 C1390 1.390 . S
C1399 H1392 0.950 . S
C1399 C1396 1.387 . S
C1400 C1401 1.387 . S
C1400 H1404 0.950 . S
C1400 C1409 1.390 . S
C1401 C1400 1.387 . S
C1401 C1403 1.387 . S
H1402 C1409 0.950 . S
C1403 C1401 1.387 . S
C1403 C1405 1.390 . S
C1403 H1407 0.950 . S
H1404 C1400 0.950 . S
C1405 C1403 1.390 . S
C1405 C1406 1.387 . S
C1405 H1408 0.950 . S
C1406 C1405 1.387 . S
C1406 C1409 1.387 . S
H1407 C1403 0.950 . S
H1408 C1405 0.950 . S
C1409 C1400 1.390 . S
C1409 H1402 0.950 . S
C1409 C1406 1.387 . S
C1410 C1411 1.387 . S
C1410 H1414 0.950 . S
C1410 C1419 1.390 . S
C1411 C1410 1.387 . S
C1411 C1413 1.387 . S
H1412 C1419 0.950 . S
C1413 C1411 1.387 . S
C1413 C1415 1.390 . S
C1413 H1417 0.950 . S
H1414 C1410 0.950 . S
C1415 C1413 1.390 . S
C1415 C1416 1.387 . S
C1415 H1418 0.950 . S
C1416 C1415 1.387 . S
C1416 C1419 1.387 . S
H1417 C1413 0.950 . S
H1418 C1415 0.950 . S
C1419 C1410 1.390 . S
C1419 H1412 0.950 . S
C1419 C1416 1.387 . S
C1420 C1421 1.387 . S
C1420 H1424 0.950 . S
C1420 C1429 1.390 . S
C1421 C1420 1.387 . S
C1421 C1423 1.387 . S
H1422 C1429 0.950 . S
C1423 C1421 1.387 . S
C1423 C1425 1.390 . S
C1423 H1427 0.950 . S
H1424 C1420 0.950 . S
C1425 C1423 1.390 . S
C1425 C1426 1.387 . S
C1425 H1428 0.950 . S
C1426 C1425 1.387 . S
C1426 C1429 1.387 . S
H1427 C1423 0.950 . S
H1428 C1425 0.950 . S
C1429 C1420 1.390 . S
C1429 H1422 0.950 . S
C1429 C1426 1.387 . S
C1430 C1431 1.387 . S
C1430 H1434 0.950 . S
C1430 C1439 1.390 . S
C1431 C1430 1.387 . S
C1431 C1433 1.387 . S
H1432 C1439 0.950 . S
C1433 C1431 1.387 . S
C1433 C1435 1.390 . S
C1433 H1437 0.950 . S
H1434 C1430 0.950 . S
C1435 C1433 1.390 . S
C1435 C1436 1.387 . S
C1435 H1438 0.950 . S
C1436 C1435 1.387 . S
C1436 C1439 1.387 . S
H1437 C1433 0.950 . S
H1438 C1435 0.950 . S
C1439 C1430 1.390 . S
C1439 H1432 0.950 . S
C1439 C1436 1.387 . S
C1440 C1441 1.387 . S
C1440 H1444 0.950 . S
C1440 C1449 1.390 . S
C1441 C1440 1.387 . S
C1441 C1443 1.387 . S
H1442 C1449 0.950 . S
C1443 C1441 1.387 . S
C1443 C1445 1.390 . S
C1443 H1447 0.950 . S
H1444 C1440 0.950 . S
C1445 C1443 1.390 . S
C1445 C1446 1.387 . S
C1445 H1448 0.950 . S
C1446 C1445 1.387 . S
C1446 C1449 1.387 . S
H1447 C1443 0.950 . S
H1448 C1445 0.950 . S
C1449 C1440 1.390 . S
C1449 H1442 0.950 . S
C1449 C1446 1.387 . S
C1450 C1451 1.387 . S
C1450 H1454 0.950 . S
C1450 C1459 1.390 . S
C1451 C1450 1.387 . S
C1451 C1453 1.387 . S
H1452 C1459 0.950 . S
C1453 C1451 1.387 . S
C1453 C1455 1.390 . S
C1453 H1457 0.950 . S
H1454 C1450 0.950 . S
C1455 C1453 1.390 . S
C1455 C1456 1.387 . S
C1455 H1458 0.950 . S
C1456 C1455 1.387 . S
C1456 C1459 1.387 . S
H1457 C1453 0.950 . S
H1458 C1455 0.950 . S
C1459 C1450 1.390 . S
C1459 H1452 0.950 . S
C1459 C1456 1.387 . S
C1460 C1461 1.387 . S
C1460 H1464 0.950 . S
C1460 C1469 1.390 . S
C1461 C1460 1.387 . S
C1461 C1463 1.387 . S
H1462 C1469 0.950 . S
C1463 C1461 1.387 . S
C1463 C1465 1.390 . S
C1463 H1467 0.950 . S
H1464 C1460 0.950 . S
C1465 C1463 1.390 . S
C1465 C1466 1.387 . S
C1465 H1468 0.950 . S
C1466 C1465 1.387 . S
C1466 C1469 1.387 . S
H1467 C1463 0.950 . S
H1468 C1465 0.950 . S
C1469 C1460 1.390 . S
C1469 H1462 0.950 . S
C1469 C1466 1.387 . S
C1470 C1471 1.387 . S
C1470 H1474 0.950 . S
C1470 C1479 1.390 . S
C1471 C1470 1.387 . S
C1471 C1473 1.387 . S
H1472 C1479 0.950 . S
C1473 C1471 1.387 . S
C1473 C1475 1.390 . S
C1473 H1477 0.950 . S
H1474 C1470 0.950 . S
C1475 C1473 1.390 . S
C1475 C1476 1.387 . S
C1475 H1478 0.950 . S
C1476 C1475 1.387 . S
C1476 C1479 1.387 . S
H1477 C1473 0.950 . S
H1478 C1475 0.950 . S
C1479 C1470 1.390 . S
C1479 H1472 0.950 . S
C1479 C1476 1.387 . S
C1480 C1481 1.387 . S
C1480 H1484 0.950 . S
C1480 C1489 1.390 . S
C1481 C1480 1.387 . S
C1481 C1483 1.387 . S
H1482 C1489 0.950 . S
C1483 C1481 1.387 . S
C1483 C1485 1.390 . S
C1483 H1487 0.950 . S
H1484 C1480 0.950 . S
C1485 C1483 1.390 . S
C1485 C1486 1.387 . S
C1485 H1488 0.950 . S
C1486 C1485 1.387 . S
C1486 C1489 1.387 . S
H1487 C1483 0.950 . S
H1488 C1485 0.950 . S
C1489 C1480 1.390 . S
C1489 H1482 0.950 . S
C1489 C1486 1.387 . S
C1490 C1491 1.387 . S
C1490 H1494 0.950 . S
C1490 C1499 1.390 . S
C1491 C1490 1.387 . S
C1491 C1493 1.387 . S
H1492 C1499 0.950 . S
C1493 C1491 1.387 . S
C1493 C1495 1.390 . S
C1493 H1497 0.950 . S
H1494 C1490 0.950 . S
C1495 C1493 1.390 . S
C1495 C1496 1.387 . S
C1495 H1498 0.950 . S
C1496 C1495 1.387 . S
C1496 C1499 1.387 . S
H1497 C1493 0.950 . S
H1498 C1495 0.950 . S
C1499 C1490 1.390 . S
C1499 H1492 0.950 . S
C1499 C1496 1.387 . S
C1500 C1501 1.387 . S
C1500 H1504 0.950 . S
C1500 C1509 1.390 . S
C1501 C1500 1.387 . S
C1501 C1503 1.387 . S
H1502 C1509 0.950 . S
C1503 C1501 1.387 . S
C1503 C1505 1.390 . S
C1503 H1507 0.950 . S
H1504 C1500 0.950 . S
C1505 C1503 1.390 . S
C1505 C1506 1.387 . S
C1505 H1508 0.950 . S
C1506 C1505 1.387 . S
C1506 C1509 1.387 . S
H1507 C1503 0.950 . S
H1508 C1505 0.950 . S
C1509 C1500 1.390 . S
C1509 H1502 0.950 . S
C1509 C1506 1.387 . S
C1510 C1511 1.387 . S
C1510 H1514 0.950 . S
C1510 C1519 1.390 . S
C1511 C1510 1.387 . S
C1511 C1513 1.387 . S
H1512 C1519 0.950 . S
C1513 C1511 1.387 . S
C1513 C1515 1.390 . S
C1513 H1517 0.950 . S
H1514 C1510 0.950 . S
C1515 C1513 1.390 . S
C1515 C1516 1.387 . S
C1515 H1518 0.950 . S
C1516 C1515 1.387 . S
C1516 C1519 1.387 . S
H1517 C1513 0.950 . S
H1518 C1515 0.950 . S
C1519 C1510 1.390 . S
C1519 H1512 0.950 . S
C1519 C1516 1.387 . S
C1520 C1521 1.387 . S
C1520 H1524 0.950 . S
C1520 C1529 1.390 . S
C1521 C1520 1.387 . S
C1521 C1523 1.387 . S
H1522 C1529 0.950 . S
C1523 C1521 1.387 . S
C1523 C1525 1.390 . S
C1523 H1527 0.950 . S
H1524 C1520 0.950 . S
C1525 C1523 1.390 . S
C1525 C1526 1.387 . S
C1525 H1528 0.950 . S
C1526 C1525 1.387 . S
C1526 C1529 1.387 . S
H1527 C1523 0.950 . S
H1528 C1525 0.950 . S
C1529 C1520 1.390 . S
C1529 H1522 0.950 . S
C1529 C1526 1.387 . S
C1530 C1531 1.387 . S
C1530 H1534 0.950 . S
C1530 C1539 1.390 . S
C1531 C1530 1.387 . S
C1531 C1533 1.387 . S
H1532 C1539 0.950 . S
C1533 C1531 1.387 . S
C1533 C1535 1.390 . S
C1533 H1537 0.950 . S
H1534 C1530 0.950 . S
C1535 C1533 1.390 . S
C1535 C1536 1.387 . S
C1535 H1538 0.950 . S
C1536 C1535 1.387 . S
C1536 C1539 1.387 . S
H1537 C1533 0.950 . S
H1538 C1535 0.950 . S
C1539 C1530 1.390 . S
C1539 H1532 0.950 . S
C1539 C1536 1.387 . S
C1540 C1541 1.387 . S
C1540 H1544 0.950 . S
C1540 C1549 1.390 . S
C1541 C1540 1.387 . S
C1541 C1543 1.387 . S
H1542 C1549 0.950 . S
C1543 C1541 1.387 . S
C1543 C1545 1.390 . S
C1543 H1547 0.950 . S
H1544 C1540 0.950 . S
C1545 C1543 1.390 . S
C1545 C1546 1.387 . S
C1545 H1548 0.950 . S
C1546 C1545 1.387 . S
C1546 C1549 1.387 . S
H1547 C1543 0.950 . S
H1548 C1545 0.950 . S
C1549 C1540 1.390 . S
C1549 H1542 0.950 . S
C1549 C1546 1.387 . S
C1550 C1551 1.387 . S
C1550 H1554 0.950 . S
C1550 C1559 1.390 . S
C1551 C1550 1.387 . S
C1551 C1553 1.387 . S
H1552 C1559 0.950 . S
C1553 C1551 1.387 . S
C1553 C1555 1.390 . S
C1553 H1557 0.950 . S
H1554 C1550 0.950 . S
C1555 C1553 1.390 . S
C1555 C1556 1.387 . S
C1555 H1558 0.950 . S
C1556 C1555 1.387 . S
C1556 C1559 1.387 . S
H1557 C1553 0.950 . S
H1558 C1555 0.950 . S
C1559 C1550 1.390 . S
C1559 H1552 0.950 . S
C1559 C1556 1.387 . S
C1560 C1561 1.387 . S
C1560 H1564 0.950 . S
C1560 C1569 1.390 . S
C1561 C1560 1.387 . S
C1561 C1563 1.387 . S
H1562 C1569 0.950 . S
C1563 C1561 1.387 . S
C1563 C1565 1.390 . S
C1563 H1567 0.950 . S
H1564 C1560 0.950 . S
C1565 C1563 1.390 . S
C1565 C1566 1.387 . S
C1565 H1568 0.950 . S
C1566 C1565 1.387 . S
C1566 C1569 1.387 . S
H1567 C1563 0.950 . S
H1568 C1565 0.950 . S
C1569 C1560 1.390 . S
C1569 H1562 0.950 . S
C1569 C1566 1.387 . S
C1570 C1571 1.387 . S
C1570 H1574 0.950 . S
C1570 C1579 1.390 . S
C1571 C1570 1.387 . S
C1571 C1573 1.387 . S
H1572 C1579 0.950 . S
C1573 C1571 1.387 . S
C1573 C1575 1.390 . S
C1573 H1577 0.950 . S
H1574 C1570 0.950 . S
C1575 C1573 1.390 . S
C1575 C1576 1.387 . S
C1575 H1578 0.950 . S
C1576 C1575 1.387 . S
C1576 C1579 1.387 . S
H1577 C1573 0.950 . S
H1578 C1575 0.950 . S
C1579 C1570 1.390 . S
C1579 H1572 0.950 . S
C1579 C1576 1.387 . S
C1580 C1581 1.387 . S
C1580 H1584 0.950 . S
C1580 C1589 1.390 . S
C1581 C1580 1.387 . S
C1581 C1583 1.387 . S
H1582 C1589 0.950 . S
C1583 C1581 1.387 . S
C1583 C1585 1.390 . S
C1583 H1587 0.950 . S
H1584 C1580 0.950 . S
C1585 C1583 1.390 . S
C1585 C1586 1.387 . S
C1585 H1588 0.950 . S
C1586 C1585 1.387 . S
C1586 C1589 1.387 . S
H1587 C1583 0.950 . S
H1588 C1585 0.950 . S
C1589 C1580 1.390 . S
C1589 H1582 0.950 . S
C1589 C1586 1.387 . S
C1590 C1591 1.387 . S
C1590 H1594 0.950 . S
C1590 C1599 1.390 . S
C1591 C1590 1.387 . S
C1591 C1593 1.387 . S
H1592 C1599 0.950 . S
C1593 C1591 1.387 . S
C1593 C1595 1.390 . S
C1593 H1597 0.950 . S
H1594 C1590 0.950 . S
C1595 C1593 1.390 . S
C1595 C1596 1.387 . S
C1595 H1598 0.950 . S
C1596 C1595 1.387 . S
C1596 C1599 1.387 . S
H1597 C1593 0.950 . S
H1598 C1595 0.950 . S
C1599 C1590 1.390 . S
C1599 H1592 0.950 . S
C1599 C1596 1.387 . S
C1600 C1601 1.387 . S
C1600 H1604 0.950 . S
C1600 C1609 1.390 . S
C1601 C1600 1.387 . S
C1601 C1603 1.387 . S
H1602 C1609 0.950 . S
C1603 C1601 1.387 . S
C1603 C1605 1.390 . S
C1603 H1607 0.950 . S
H1604 C1600 0.950 . S
C1605 C1603 1.390 . S
C1605 C1606 1.387 . S
C1605 H1608 0.950 . S
C1606 C1605 1.387 . S
C1606 C1609 1.387 . S
H1607 C1603 0.950 . S
H1608 C1605 0.950 . S
C1609 C1600 1.390 . S
C1609 H1602 0.950 . S
C1609 C1606 1.387 . S
C1610 C1611 1.387 . S
C1610 H1614 0.950 . S
C1610 C1619 1.390 . S
C1611 C1610 1.387 . S
C1611 C1613 1.387 . S
H1612 C1619 0.950 . S
C1613 C1611 1.387 . S
C1613 C1615 1.390 . S
C1613 H1617 0.950 . S
H1614 C1610 0.950 . S
C1615 C1613 1.390 . S
C1615 C1616 1.387 . S
C1615 H1618 0.950 . S
C1616 C1615 1.387 . S
C1616 C1619 1.387 . S
H1617 C1613 0.950 . S
H1618 C1615 0.950 . S
C1619 C1610 1.390 . S
C1619 H1612 0.950 . S
C1619 C1616 1.387 . S
C1620 C1621 1.387 . S
C1620 H1624 0.950 . S
C1620 C1629 1.390 . S
C1621 C1620 1.387 . S
C1621 C1623 1.387 . S
H1622 C1629 0.950 . S
C1623 C1621 1.387 . S
C1623 C1625 1.390 . S
C1623 H1627 0.950 . S
H1624 C1620 0.950 . S
C1625 C1623 1.390 . S
C1625 C1626 1.387 . S
C1625 H1628 0.950 . S
C1626 C1625 1.387 . S
C1626 C1629 1.387 . S
H1627 C1623 0.950 . S
H1628 C1625 0.950 . S
C1629 C1620 1.390 . S
C1629 H1622 0.950 . S
C1629 C1626 1.387 . S
C1630 C1631 1.387 . S
C1630 H1634 0.950 . S
C1630 C1639 1.390 . S
C1631 C1630 1.387 . S
C1631 C1633 1.387 . S
H1632 C1639 0.950 . S
C1633 C1631 1.387 . S
C1633 C1635 1.390 . S
C1633 H1637 0.950 . S
H1634 C1630 0.950 . S
C1635 C1633 1.390 . S
C1635 C1636 1.387 . S
C1635 H1638 0.950 . S
C1636 C1635 1.387 . S
C1636 C1639 1.387 . S
H1637 C1633 0.950 . S
H1638 C1635 0.950 . S
C1639 C1630 1.390 . S
C1639 H1632 0.950 . S
C1639 C1636 1.387 . S
C1640 C1641 1.387 . S
C1640 H1644 0.950 . S
C1640 C1649 1.390 . S
C1641 C1640 1.387 . S
C1641 C1643 1.387 . S
H1642 C1649 0.950 . S
C1643 C1641 1.387 . S
C1643 C1645 1.390 . S
C1643 H1647 0.950 . S
H1644 C1640 0.950 . S
C1645 C1643 1.390 . S
C1645 C1646 1.387 . S
C1645 H1648 0.950 . S
C1646 C1645 1.387 . S
C1646 C1649 1.387 . S
H1647 C1643 0.950 . S
H1648 C1645 0.950 . S
C1649 C1640 1.390 . S
C1649 H1642 0.950 . S
C1649 C1646 1.387 . S
C1650 C1651 1.387 . S
C1650 H1654 0.950 . S
C1650 C1659 1.390 . S
C1651 C1650 1.387 . S
C1651 C1653 1.387 . S
H1652 C1659 0.950 . S
C1653 C1651 1.387 . S
C1653 C1655 1.390 . S
C1653 H1657 0.950 . S
H1654 C1650 0.950 . S
C1655 C1653 1.390 . S
C1655 C1656 1.387 . S
C1655 H1658 0.950 . S
C1656 C1655 1.387 . S
C1656 C1659 1.387 . S
H1657 C1653 0.950 . S
H1658 C1655 0.950 . S
C1659 C1650 1.390 . S
C1659 H1652 0.950 . S
C1659 C1656 1.387 . S
C1660 C1661 1.387 . S
C1660 H1664 0.950 . S
C1660 C1669 1.390 . S
C1661 C1660 1.387 . S
C1661 C1663 1.387 . S
H1662 C1669 0.950 . S
C1663 C1661 1.387 . S
C1663 C1665 1.390 . S
C1663 H1667 0.950 . S
H1664 C1660 0.950 . S
C1665 C1663 1.390 . S
C1665 C1666 1.387 . S
C1665 H1668 0.950 . S
C1666 C1665 1.387 . S
C1666 C1669 1.387 . S
H1667 C1663 0.950 . S
H1668 C1665 0.950 . S
C1669 C1660 1.390 . S
C1669 H1662 0.950 . S
C1669 C1666 1.387 . S
C1670 C1671 1.387 . S
C1670 H1674 0.950 . S
C1670 C1679 1.390 . S
C1671 C1670 1.387 . S
C1671 C1673 1.387 . S
H1672 C1679 0.950 . S
C1673 C1671 1.387 . S
C1673 C1675 1.390 . S
C1673 H1677 0.950 . S
H1674 C1670 0.950 . S
C1675 C1673 1.390 . S
C1675 C1676 1.387 . S
C1675 H1678 0.950 . S
C1676 C1675 1.387 . S
C1676 C1679 1.387 . S
H1677 C1673 0.950 . S
H1678 C1675 0.950 . S
C1679 C1670 1.390 . S
C1679 H1672 0.950 . S
C1679 C1676 1.387 . S
C1680 C1681 1.387 . S
C1680 H1684 0.950 . S
C1680 C1689 1.390 . S
C1681 C1680 1.387 . S
C1681 C1683 1.387 . S
H1682 C1689 0.950 . S
C1683 C1681 1.387 . S
C1683 C1685 1.390 . S
C1683 H1687 0.950 . S
H1684 C1680 0.950 . S
C1685 C1683 1.390 . S
C1685 C1686 1.387 . S
C1685 H1688 0.950 . S
C1686 C1685 1.387 . S
C1686 C1689 1.387 . S
H1687 C1683 0.950 . S
H1688 C1685 0.950 . S
C1689 C1680 1.390 . S
C1689 H1682 0.950 . S
C1689 C1686 1.387 . S
C1690 C1691 1.387 . S
C1690 H1694 0.950 . S
C1690 C1699 1.390 . S
C1691 C1690 1.387 . S
C1691 C1693 1.387 . S
H1692 C1699 0.950 . S
C1693 C1691 1.387 . S
C1693 C1695 1.390 . S
C1693 H1697 0.950 . S
H1694 C1690 0.950 . S
C1695 C1693 1.390 . S
C1695 C1696 1.387 . S
C1695 H1698 0.950 . S
C1696 C1695 1.387 . S
C1696 C1699 1.387 . S
H1697 C1693 0.950 . S
H1698 C1695 0.950 . S
C1699 C1690 1.390 . S
C1699 H1692 0.950 . S
C1699 C1696 1.387 . S
C1700 C1701 1.387 . S
C1700 H1704 0.950 . S
C1700 C1709 1.390 . S
C1701 C1700 1.387 . S
C1701 C1703 1.387 . S
H1702 C1709 0.950 . S
C1703 C1701 1.387 . S
C1703 C1705 1.390 . S
C1703 H1707 0.950 . S
H1704 C1700 0.950 . S
C1705 C1703 1.390 . S
C1705 C1706 1.387 . S
C1705 H1708 0.950 . S
C1706 C1705 1.387 . S
C1706 C1709 1.387 . S
H1707 C1703 0.950 . S
H1708 C1705 0.950 . S
C1709 C1700 1.390 . S
C1709 H1702 0.950 . S
C1709 C1706 1.387 . S
C1710 C1711 1.387 . S
C1710 H1714 0.950 . S
C1710 C1719 1.390 . S
C1711 C1710 1.387 . S
C1711 C1713 1.387 . S
H1712 C1719 0.950 . S
C1713 C1711 1.387 . S
C1713 C1715 1.390 . S
C1713 H1717 0.950 . S
H1714 C1710 0.950 . S
C1715 C1713 1.390 . S
C1715 C1716 1.387 . S
C1715 H1718 0.950 . S
C1716 C1715 1.387 . S
C1716 C1719 1.387 . S
H1717 C1713 0.950 . S
H1718 C1715 0.950 . S
C1719 C1710 1.390 . S
C1719 H1712 0.950 . S
C1719 C1716 1.387 . S
C1720 C1721 1.387 . S
C1720 H1724 0.950 . S
C1720 C1729 1.390 . S
C1721 C1720 1.387 . S
C1721 C1723 1.387 . S
H1722 C1729 0.950 . S
C1723 C1721 1.387 . S
C1723 C1725 1.390 . S
C1723 H1727 0.950 . S
H1724 C1720 0.950 . S
C1725 C1723 1.390 . S
C1725 C1726 1.387 . S
C1725 H1728 0.950 . S
C1726 C1725 1.387 . S
C1726 C1729 1.387 . S
H1727 C1723 0.950 . S
H1728 C1725 0.950 . S
C1729 C1720 1.390 . S
C1729 H1722 0.950 . S
C1729 C1726 1.387 . S
C1730 C1731 1.387 . S
C1730 H1734 0.950 . S
C1730 C1739 1.390 . S
C1731 C1730 1.387 . S
C1731 C1733 1.387 . S
H1732 C1739 0.950 . S
C1733 C1731 1.387 . S
C1733 C1735 1.390 . S
C1733 H1737 0.950 . S
H1734 C1730 0.950 . S
C1735 C1733 1.390 . S
C1735 C1736 1.387 . S
C1735 H1738 0.950 . S
C1736 C1735 1.387 . S
C1736 C1739 1.387 . S
H1737 C1733 0.950 . S
H1738 C1735 0.950 . S
C1739 C1730 1.390 . S
C1739 H1732 0.950 . S
C1739 C1736 1.387 . S
C1740 C1741 1.387 . S
C1740 H1744 0.950 . S
C1740 C1749 1.390 . S
C1741 C1740 1.387 . S
C1741 C1743 1.387 . S
H1742 C1749 0.950 . S
C1743 C1741 1.387 . S
C1743 C1745 1.390 . S
C1743 H1747 0.950 . S
H1744 C1740 0.950 . S
C1745 C1743 1.390 . S
C1745 C1746 1.387 . S
C1745 H1748 0.950 . S
C1746 C1745 1.387 . S
C1746 C1749 1.387 . S
H1747 C1743 0.950 . S
H1748 C1745 0.950 . S
C1749 C1740 1.390 . S
C1749 H1742 0.950 . S
C1749 C1746 1.387 . S
C1750 C1751 1.387 . S
C1750 H1754 0.950 . S
C1750 C1759 1.390 . S
C1751 C1750 1.387 . S
C1751 C1753 1.387 . S
H1752 C1759 0.950 . S
C1753 C1751 1.387 . S
C1753 C1755 1.390 . S
C1753 H1757 0.950 . S
H1754 C1750 0.950 . S
C1755 C1753 1.390 . S
C1755 C1756 1.387 . S
C1755 H1758 0.950 . S
C1756 C1755 1.387 . S
C1756 C1759 1.387 . S
H1757 C1753 0.950 . S
H1758 C1755 0.950 . S
C1759 C1750 1.390 . S
C1759 H1752 0.950 . S
C1759 C1756 1.387 . S
C1760 C1761 1.387 . S
C1760 H1764 0.950 . S
C1760 C1769 1.390 . S
C1761 C1760 1.387 . S
C1761 C1763 1.387 . S
H1762 C1769 0.950 . S
C1763 C1761 1.387 . S
C1763 C1765 1.390 . S
C1763 H1767 0.950 . S
H1764 C1760 0.950 . S
C1765 C1763 1.390 . S
C1765 C1766 1.387 . S
C1765 H1768 0.950 . S
C1766 C1765 1.387 . S
C1766 C1769 1.387 . S
H1767 C1763 0.950 . S
H1768 C1765 0.950 . S
C1769 C1760 1.390 . S
C1769 H1762 0.950 . S
C1769 C1766 1.387 . S
C1770 C1771 1.387 . S
C1770 H1774 0.950 . S
C1770 C1779 1.390 . S
C1771 C1770 1.387 . S
C1771 C1773 1.387 . S
H1772 C1779 0.950 . S
C1773 C1771 1.387 . S
C1773 C1775 1.390 . S
C1773 H1777 0.950 . S
H1774 C1770 0.950 . S
C1775 C1773 1.390 . S
C1775 C1776 1.387 . S
C1775 H1778 0.950 . S
C1776 C1775 1.387 . S
C1776 C1779 1.387 . S
H1777 C1773 0.950 . S
H1778 C1775 0.950 . S
C1779 C1770 1.390 . S
C1779 H1772 0.950 . S
C1779 C1776 1.387 . S
C1780 C1781 1.387 . S
C1780 H1784 0.950 . S
C1780 C1789 1.390 . S
C1781 C1780 1.387 . S
C1781 C1783 1.387 . S
H1782 C1789 0.950 . S
C1783 C1781 1.387 . S
C1783 C1785 1.390 . S
C1783 H1787 0.950 . S
H1784 C1780 0.950 . S
C1785 C1783 1.390 . S
C1785 C1786 1.387 . S
C1785 H1788 0.950 . S
C1786 C1785 1.387 . S
C1786 C1789 1.387 . S
H1787 C1783 0.950 . S
H1788 C1785 0.950 . S
C1789 C1780 1.390 . S
C1789 H1782 0.950 . S
C1789 C1786 1.387 . S
C1790 C1791 1.387 . S
C1790 H1794 0.950 . S
C1790 C1799 1.390 . S
C1791 C1790 1.387 . S
C1791 C1793 1.387 . S
H1792 C1799 0.950 . S
C1793 C1791 1.387 . S
C1793 C1795 1.390 . S
C1793 H1797 0.950 . S
H1794 C1790 0.950 . S
C1795 C1793 1.390 . S
C1795 C1796 1.387 . S
C1795 H1798 0.950 . S
C1796 C1795 1.387 . S
C1796 C1799 1.387 . S
H1797 C1793 0.950 . S
H1798 C1795 0.950 . S
C1799 C1790 1.390 . S
C1799 H1792 0.950 . S
C1799 C1796 1.387 . S
C1800 C1801 1.387 . S
C1800 H1804 0.950 . S
C1800 C1809 1.390 . S
C1801 C1800 1.387 . S
C1801 C1803 1.387 . S
H1802 C1809 0.950 . S
C1803 C1801 1.387 . S
C1803 C1805 1.390 . S
C1803 H1807 0.950 . S
H1804 C1800 0.950 . S
C1805 C1803 1.390 . S
C1805 C1806 1.387 . S
C1805 H1808 0.950 . S
C1806 C1805 1.387 . S
C1806 C1809 1.387 . S
H1807 C1803 0.950 . S
H1808 C1805 0.950 . S
C1809 C1800 1.390 . S
C1809 H1802 0.950 . S
C1809 C1806 1.387 . S
C1810 C1811 1.387 . S
C1810 H1814 0.950 . S
C1810 C1819 1.390 . S
C1811 C1810 1.387 . S
C1811 C1813 1.387 . S
H1812 C1819 0.950 . S
C1813 C1811 1.387 . S
C1813 C1815 1.390 . S
C1813 H1817 0.950 . S
H1814 C1810 0.950 . S
C1815 C1813 1.390 . S
C1815 C1816 1.387 . S
C1815 H1818 0.950 . S
C1816 C1815 1.387 . S
C1816 C1819 1.387 . S
H1817 C1813 0.950 . S
H1818 C1815 0.950 . S
C1819 C1810 1.390 . S
C1819 H1812 0.950 . S
C1819 C1816 1.387 . S
C1820 C1821 1.387 . S
C1820 H1824 0.950 . S
C1820 C1829 1.390 . S
C1821 C1820 1.387 . S
C1821 C1823 1.387 . S
H1822 C1829 0.950 . S
C1823 C1821 1.387 . S
C1823 C1825 1.390 . S
C1823 H1827 0.950 . S
H1824 C1820 0.950 . S
C1825 C1823 1.390 . S
C1825 C1826 1.387 . S
C1825 H1828 0.950 . S
C1826 C1825 1.387 . S
C1826 C1829 1.387 . S
H1827 C1823 0.950 . S
H1828 C1825 0.950 . S
C1829 C1820 1.390 . S
C1829 H1822 0.950 . S
C1829 C1826 1.387 . S
C1830 C1831 1.387 . S
C1830 H1834 0.950 . S
C1830 C1839 1.390 . S
C1831 C1830 1.387 . S
C1831 C1833 1.387 . S
H1832 C1839 0.950 . S
C1833 C1831 1.387 . S
C1833 C1835 1.390 . S
C1833 H1837 0.950 . S
H1834 C1830 0.950 . S
C1835 C1833 1.390 . S
C1835 C1836 1.387 . S
C1835 H1838 0.950 . S
C1836 C1835 1.387 . S
C1836 C1839 1.387 . S
H1837 C1833 0.950 . S
H1838 C1835 0.950 . S
C1839 C1830 1.390 . S
C1839 H1832 0.950 . S
C1839 C1836 1.387 . S
C1840 C1841 1.387 . S
C1840 H1844 0.950 . S
C1840 C1849 1.390 . S
C1841 C1840 1.387 . S
C1841 C1843 1.387 . S
H1842 C1849 0.950 . S
C1843 C1841 1.387 . S
C1843 C1845 1.390 . S
C1843 H1847 0.950 . S
H1844 C1840 0.950 . S
C1845 C1843 1.390 . S
C1845 C1846 1.387 . S
C1845 H1848 0.950 . S
C1846 C1845 1.387 . S
C1846 C1849 1.387 . S
H1847 C1843 0.950 . S
H1848 C1845 0.950 . S
C1849 C1840 1.390 . S
C1849 H1842 0.950 . S
C1849 C1846 1.387 . S
C1850 C1851 1.387 . S
C1850 H1854 0.950 . S
C1850 C1859 1.390 . S
C1851 C1850 1.387 . S
C1851 C1853 1.387 . S
H1852 C1859 0.950 . S
C1853 C1851 1.387 . S
C1853 C1855 1.390 . S
C1853 H1857 0.950 . S
H1854 C1850 0.950 . S
C1855 C1853 1.390 . S
C1855 C1856 1.387 . S
C1855 H1858 0.950 . S
C1856 C1855 1.387 . S
C1856 C1859 1.387 . S
H1857 C1853 0.950 . S
H1858 C1855 0.950 . S
C1859 C1850 1.390 . S
C1859 H1852 0.950 . S
C1859 C1856 1.387 . S
C1860 C1861 1.387 . S
C1860 H1864 0.950 . S
C1860 C1869 1.390 . S
C1861 C1860 1.387 . S
C1861 C1863 1.387 . S
H1862 C1869 0.950 . S
C1863 C1861 1.387 . S
C1863 C1865 1.390 . S
C1863 H1867 0.950 . S
H1864 C1860 0.950 . S
C1865 C1863 1.390 . S
C1865 C1866 1.387 . S
C1865 H1868 0.950 . S
C1866 C1865 1.387 . S
C1866 C1869 1.387 . S
H1867 C1863 0.950 . S
H1868 C1865 0.950 . S
C1869 C1860 1.390 . S
C1869 H1862 0.950 . S
C1869 C1866 1.387 . S
C1870 C1871 1.387 . S
C1870 H1874 0.950 . S
C1870 C1879 1.390 . S
C1871 C1870 1.387 . S
C1871 C1873 1.387 . S
H1872 C1879 0.950 . S
C1873 C1871 1.387 . S
C1873 C1875 1.390 . S
C1873 H1877 0.950 . S
H1874 C1870 0.950 . S
C1875 C1873 1.390 . S
C1875 C1876 1.387 . S
C1875 H1878 0.950 . S
C1876 C1875 1.387 . S
C1876 C1879 1.387 . S
H1877 C1873 0.950 . S
H1878 C1875 0.950 . S
C1879 C1870 1.390 . S
C1879 H1872 0.950 . S
C1879 C1876 1.387 . S
C1880 C1881 1.387 . S
C1880 H1884 0.950 . S
C1880 C1889 1.390 . S
C1881 C1880 1.387 . S
C1881 C1883 1.387 . S
H1882 C1889 0.950 . S
C1883 C1881 1.387 . S
C1883 C1885 1.390 . S
C1883 H1887 0.950 . S
H1884 C1880 0.950 . S
C1885 C1883 1.390 . S
C1885 C1886 1.387 . S
C1885 H1888 0.950 . S
C1886 C1885 1.387 . S
C1886 C1889 1.387 . S
H1887 C1883 0.950 . S
H1888 C1885 0.950 . S
C1889 C1880 1.390 . S
C1889 H1882 0.950 . S
C1889 C1886 1.387 . S
C1890 C1891 1.387 . S
C1890 H1894 0.950 . S
C1890 C1899 1.390 . S
C1891 C1890 1.387 . S
C1891 C1893 1.387 . S
H1892 C1899 0.950 . S
C1893 C1891 1.387 . S
C1893 C1895 1.390 . S
C1893 H1897 0.950 . S
H1894 C1890 0.950 . S
C1895 C1893 1.390 . S
C1895 C1896 1.387 . S
C1895 H1898 0.950 . S
C1896 C1895 1.387 . S
C1896 C1899 1.387 . S
H1897 C1893 0.950 . S
H1898 C1895 0.950 . S
C1899 C1890 1.390 . S
C1899 H1892 0.950 . S
C1899 C1896 1.387 . S
C1900 C1901 1.387 . S
C1900 H1904 0.950 . S
C1900 C1909 1.390 . S
C1901 C1900 1.387 . S
C1901 C1903 1.387 . S
H1902 C1909 0.950 . S
C1903 C1901 1.387 . S
C1903 C1905 1.390 . S
C1903 H1907 0.950 . S
H1904 C1900 0.950 . S
C1905 C1903 1.390 . S
C1905 C1906 1.387 . S
C1905 H1908 0.950 . S
C1906 C1905 1.387 . S
C1906 C1909 1.387 . S
H1907 C1903 0.950 . S
H1908 C1905 0.950 . S
C1909 C1900 1.390 . S
C1909 H1902 0.950 . S
C1909 C1906 1.387 . S
C1910 C1911 1.387 . S
C1910 H1914 0.950 . S
C1910 C1919 1.390 . S
C1911 C1910 1.387 . S
C1911 C1913 1.387 . S
H1912 C1919 0.950 . S
C1913 C1911 1.387 . S
C1913 C1915 1.390 . S
C1913 H1917 0.950 . S
H1914 C1910 0.950 . S
C1915 C1913 1.390 . S
C1915 C1916 1.387 . S
C1915 H1918 0.950 . S
C1916 C1915 1.387 . S
C1916 C1919 1.387 . S
H1917 C1913 0.950 . S
H1918 C1915 0.950 . S
C1919 C1910 1.390 . S
C1919 H1912 0.950 . S
C1919 C1916 1.387 . S
C1920 C1921 1.387 . S
C1920 H1924 0.950 . S
C1920 C1929 1.390 1_545 S
C1921 C1920 1.387 . S
C1921 C1923 1.387 . S
H1922 C1929 0.950 . S
C1923 C1921 1.387 . S
C1923 C1925 1.390 1_545 S
C1923 H1927 0.950 . S
H1924 C1920 0.950 . S
C1925 C1923 1.390 1_565 S
C1925 C1926 1.387 . S
C1925 H1928 0.950 . S
C1926 C1925 1.387 . S
C1926 C1929 1.387 . S
H1927 C1923 0.950 . S
H1928 C1925 0.950 . S
C1929 C1920 1.390 1_565 S
C1929 H1922 0.950 . S
C1929 C1926 1.387 . S
C1930 C1931 1.387 . S
C1930 H1934 0.950 . S
C1930 C1939 1.390 . S
C1931 C1930 1.387 . S
C1931 C1933 1.387 . S
H1932 C1939 0.950 . S
C1933 C1931 1.387 . S
C1933 C1935 1.390 . S
C1933 H1937 0.950 . S
H1934 C1930 0.950 . S
C1935 C1933 1.390 . S
C1935 C1936 1.387 . S
C1935 H1938 0.950 . S
C1936 C1935 1.387 . S
C1936 C1939 1.387 . S
H1937 C1933 0.950 . S
H1938 C1935 0.950 . S
C1939 C1930 1.390 . S
C1939 H1932 0.950 . S
C1939 C1936 1.387 . S
C1940 C1941 1.387 . S
C1940 H1944 0.950 . S
C1940 C1949 1.390 1_565 S
C1941 C1940 1.387 . S
C1941 C1943 1.387 . S
H1942 C1949 0.950 . S
C1943 C1941 1.387 . S
C1943 C1945 1.390 1_565 S
C1943 H1947 0.950 . S
H1944 C1940 0.950 . S
C1945 C1943 1.390 1_545 S
C1945 C1946 1.387 . S
C1945 H1948 0.950 . S
C1946 C1945 1.387 . S
C1946 C1949 1.387 . S
H1947 C1943 0.950 . S
H1948 C1945 0.950 . S
C1949 C1940 1.390 1_545 S
C1949 H1942 0.950 . S
C1949 C1946 1.387 . S
C1950 C1951 1.387 . S
C1950 H1954 0.950 . S
C1950 C1959 1.390 1_554 S
C1951 C1950 1.387 . S
C1951 C1953 1.387 . S
H1952 C1959 0.950 . S
C1953 C1951 1.387 . S
C1953 C1955 1.390 1_554 S
C1953 H1957 0.950 . S
H1954 C1950 0.950 . S
C1955 C1953 1.390 1_556 S
C1955 C1956 1.387 . S
C1955 H1958 0.950 . S
C1956 C1955 1.387 . S
C1956 C1959 1.387 . S
H1957 C1953 0.950 . S
H1958 C1955 0.950 . S
C1959 C1950 1.390 1_556 S
C1959 H1952 0.950 . S
C1959 C1956 1.387 . S
C1960 C1961 1.387 . S
C1960 H1964 0.950 . S
C1960 C1969 1.390 1_545 S
C1961 C1960 1.387 . S
C1961 C1963 1.387 . S
H1962 C1969 0.950 . S
C1963 C1961 1.387 . S
C1963 C1965 1.390 1_545 S
C1963 H1967 0.950 . S
H1964 C1960 0.950 . S
C1965 C1963 1.390 1_565 S
C1965 C1966 1.387 . S
C1965 H1968 0.950 . S
C1966 C1965 1.387 . S
C1966 C1969 1.387 . S
H1967 C1963 0.950 . S
H1968 C1965 0.950 . S
C1969 C1960 1.390 1_565 S
C1969 H1962 0.950 . S
C1969 C1966 1.387 . S
C1970 C1971 1.387 . S
C1970 H1974 0.950 . S
C1970 C1979 1.390 . S
C1971 C1970 1.387 . S
C1971 C1973 1.387 . S
H1972 C1979 0.950 . S
C1973 C1971 1.387 . S
C1973 C1975 1.390 . S
C1973 H1977 0.950 . S
H1974 C1970 0.950 . S
C1975 C1973 1.390 . S
C1975 C1976 1.387 . S
C1975 H1978 0.950 . S
C1976 C1975 1.387 . S
C1976 C1979 1.387 . S
H1977 C1973 0.950 . S
H1978 C1975 0.950 . S
C1979 C1970 1.390 . S
C1979 H1972 0.950 . S
C1979 C1976 1.387 . S
C1980 C1981 1.387 . S
C1980 H1984 0.950 . S
C1980 C1989 1.390 1_545 S
C1981 C1980 1.387 . S
C1981 C1983 1.387 . S
H1982 C1989 0.950 . S
C1983 C1981 1.387 . S
C1983 C1985 1.390 1_545 S
C1983 H1987 0.950 . S
H1984 C1980 0.950 . S
C1985 C1983 1.390 1_565 S
C1985 C1986 1.387 . S
C1985 H1988 0.950 . S
C1986 C1985 1.387 . S
C1986 C1989 1.387 . S
H1987 C1983 0.950 . S
H1988 C1985 0.950 . S
C1989 C1980 1.390 1_565 S
C1989 H1982 0.950 . S
C1989 C1986 1.387 . S
C1990 C1991 1.387 . S
C1990 H1994 0.950 . S
C1990 C1999 1.390 1_554 S
C1991 C1990 1.387 . S
C1991 C1993 1.387 . S
H1992 C1999 0.950 . S
C1993 C1991 1.387 . S
C1993 C1995 1.390 1_554 S
C1993 H1997 0.950 . S
H1994 C1990 0.950 . S
C1995 C1993 1.390 1_556 S
C1995 C1996 1.387 . S
C1995 H1998 0.950 . S
C1996 C1995 1.387 . S
C1996 C1999 1.387 . S
H1997 C1993 0.950 . S
H1998 C1995 0.950 . S
C1999 C1990 1.390 1_556 S
C1999 H1992 0.950 . S
C1999 C1996 1.387 . S
C2000 C2001 1.387 . S
C2000 H2004 0.950 . S
C2000 C2009 1.390 . S
C2001 C2000 1.387 . S
C2001 C2003 1.387 . S
H2002 C2009 0.950 . S
C2003 C2001 1.387 . S
C2003 C2005 1.390 . S
C2003 H2007 0.950 . S
H2004 C2000 0.950 . S
C2005 C2003 1.390 . S
C2005 C2006 1.387 . S
C2005 H2008 0.950 . S
C2006 C2005 1.387 . S
C2006 C2009 1.387 . S
H2007 C2003 0.950 . S
H2008 C2005 0.950 . S
C2009 C2000 1.390 . S
C2009 H2002 0.950 . S
C2009 C2006 1.387 . S
C2010 C2011 1.387 . S
C2010 H2014 0.950 . S
C2010 C2019 1.390 1_554 S
C2011 C2010 1.387 . S
C2011 C2013 1.387 . S
H2012 C2019 0.950 . S
C2013 C2011 1.387 . S
C2013 C2015 1.390 1_554 S
C2013 H2017 0.950 . S
H2014 C2010 0.950 . S
C2015 C2013 1.390 1_556 S
C2015 C2016 1.387 . S
C2015 H2018 0.950 . S
C2016 C2015 1.387 . S
C2016 C2019 1.387 . S
H2017 C2013 0.950 . S
H2018 C2015 0.950 . S
C2019 C2010 1.390 1_556 S
C2019 H2012 0.950 . S
C2019 C2016 1.387 . S
C2020 C2021 1.387 . S
C2020 H2024 0.950 . S
C2020 C2029 1.390 . S
C2021 C2020 1.387 . S
C2021 C2023 1.387 . S
H2022 C2029 0.950 . S
C2023 C2021 1.387 . S
C2023 C2025 1.390 . S
C2023 H2027 0.950 . S
H2024 C2020 0.950 . S
C2025 C2023 1.390 . S
C2025 C2026 1.387 . S
C2025 H2028 0.950 . S
C2026 C2025 1.387 . S
C2026 C2029 1.387 . S
H2027 C2023 0.950 . S
H2028 C2025 0.950 . S
C2029 C2020 1.390 . S
C2029 H2022 0.950 . S
C2029 C2026 1.387 . S
C2030 C2031 1.387 . S
C2030 H2034 0.950 . S
C2030 C2039 1.390 . S
C2031 C2030 1.387 . S
C2031 C2033 1.387 . S
H2032 C2039 0.950 . S
C2033 C2031 1.387 . S
C2033 C2035 1.390 . S
C2033 H2037 0.950 . S
H2034 C2030 0.950 . S
C2035 C2033 1.390 . S
C2035 C2036 1.387 . S
C2035 H2038 0.950 . S
C2036 C2035 1.387 . S
C2036 C2039 1.387 . S
H2037 C2033 0.950 . S
H2038 C2035 0.950 . S
C2039 C2030 1.390 . S
C2039 H2032 0.950 . S
C2039 C2036 1.387 . S
C2040 C2041 1.387 . S
C2040 H2044 0.950 . S
C2040 C2049 1.390 . S
C2041 C2040 1.387 . S
C2041 C2043 1.387 . S
H2042 C2049 0.950 . S
C2043 C2041 1.387 . S
C2043 C2045 1.390 . S
C2043 H2047 0.950 . S
H2044 C2040 0.950 . S
C2045 C2043 1.390 . S
C2045 C2046 1.387 . S
C2045 H2048 0.950 . S
C2046 C2045 1.387 . S
C2046 C2049 1.387 . S
H2047 C2043 0.950 . S
H2048 C2045 0.950 . S
C2049 C2040 1.390 . S
C2049 H2042 0.950 . S
C2049 C2046 1.387 . S
C2050 C2051 1.387 . S
C2050 H2054 0.950 . S
C2050 C2059 1.390 1_554 S
C2051 C2050 1.387 . S
C2051 C2053 1.387 . S
H2052 C2059 0.950 . S
C2053 C2051 1.387 . S
C2053 C2055 1.390 1_554 S
C2053 H2057 0.950 . S
H2054 C2050 0.950 . S
C2055 C2053 1.390 1_556 S
C2055 C2056 1.387 . S
C2055 H2058 0.950 . S
C2056 C2055 1.387 . S
C2056 C2059 1.387 . S
H2057 C2053 0.950 . S
H2058 C2055 0.950 . S
C2059 C2050 1.390 1_556 S
C2059 H2052 0.950 . S
C2059 C2056 1.387 . S
C2060 C2061 1.387 . S
C2060 H2064 0.950 . S
C2060 C2069 1.390 . S
C2061 C2060 1.387 . S
C2061 C2063 1.387 . S
H2062 C2069 0.950 . S
C2063 C2061 1.387 . S
C2063 C2065 1.390 . S
C2063 H2067 0.950 . S
H2064 C2060 0.950 . S
C2065 C2063 1.390 . S
C2065 C2066 1.387 . S
C2065 H2068 0.950 . S
C2066 C2065 1.387 . S
C2066 C2069 1.387 . S
H2067 C2063 0.950 . S
H2068 C2065 0.950 . S
C2069 C2060 1.390 . S
C2069 H2062 0.950 . S
C2069 C2066 1.387 . S
C2070 C2071 1.387 . S
C2070 H2074 0.950 . S
C2070 C2079 1.390 . S
C2071 C2070 1.387 . S
C2071 C2073 1.387 . S
H2072 C2079 0.950 . S
C2073 C2071 1.387 . S
C2073 C2075 1.390 . S
C2073 H2077 0.950 . S
H2074 C2070 0.950 . S
C2075 C2073 1.390 . S
C2075 C2076 1.387 . S
C2075 H2078 0.950 . S
C2076 C2075 1.387 . S
C2076 C2079 1.387 . S
H2077 C2073 0.950 . S
H2078 C2075 0.950 . S
C2079 C2070 1.390 . S
C2079 H2072 0.950 . S
C2079 C2076 1.387 . S
C2080 C2081 1.387 . S
C2080 H2084 0.950 . S
C2080 C2089 1.390 . S
C2081 C2080 1.387 . S
C2081 C2083 1.387 . S
H2082 C2089 0.950 . S
C2083 C2081 1.387 . S
C2083 C2085 1.390 . S
C2083 H2087 0.950 . S
H2084 C2080 0.950 . S
C2085 C2083 1.390 . S
C2085 C2086 1.387 . S
C2085 H2088 0.950 . S
C2086 C2085 1.387 . S
C2086 C2089 1.387 . S
H2087 C2083 0.950 . S
H2088 C2085 0.950 . S
C2089 C2080 1.390 . S
C2089 H2082 0.950 . S
C2089 C2086 1.387 . S
C2090 C2091 1.387 . S
C2090 H2094 0.950 . S
C2090 C2099 1.390 . S
C2091 C2090 1.387 . S
C2091 C2093 1.387 . S
H2092 C2099 0.950 . S
C2093 C2091 1.387 . S
C2093 C2095 1.390 . S
C2093 H2097 0.950 . S
H2094 C2090 0.950 . S
C2095 C2093 1.390 . S
C2095 C2096 1.387 . S
C2095 H2098 0.950 . S
C2096 C2095 1.387 . S
C2096 C2099 1.387 . S
H2097 C2093 0.950 . S
H2098 C2095 0.950 . S
C2099 C2090 1.390 . S
C2099 H2092 0.950 . S
C2099 C2096 1.387 . S
C2100 C2101 1.387 . S
C2100 H2104 0.950 . S
C2100 C2109 1.390 . S
C2101 C2100 1.387 . S
C2101 C2103 1.387 . S
H2102 C2109 0.950 . S
C2103 C2101 1.387 . S
C2103 C2105 1.390 . S
C2103 H2107 0.950 . S
H2104 C2100 0.950 . S
C2105 C2103 1.390 . S
C2105 C2106 1.387 . S
C2105 H2108 0.950 . S
C2106 C2105 1.387 . S
C2106 C2109 1.387 . S
H2107 C2103 0.950 . S
H2108 C2105 0.950 . S
C2109 C2100 1.390 . S
C2109 H2102 0.950 . S
C2109 C2106 1.387 . S
C2110 C2111 1.387 . S
C2110 H2114 0.950 . S
C2110 C2119 1.390 . S
C2111 C2110 1.387 . S
C2111 C2113 1.387 . S
H2112 C2119 0.950 . S
C2113 C2111 1.387 . S
C2113 C2115 1.390 . S
C2113 H2117 0.950 . S
H2114 C2110 0.950 . S
C2115 C2113 1.390 . S
C2115 C2116 1.387 . S
C2115 H2118 0.950 . S
C2116 C2115 1.387 . S
C2116 C2119 1.387 . S
H2117 C2113 0.950 . S
H2118 C2115 0.950 . S
C2119 C2110 1.390 . S
C2119 H2112 0.950 . S
C2119 C2116 1.387 . S
C2120 C2121 1.387 . S
C2120 H2124 0.950 . S
C2120 C2129 1.390 . S
C2121 C2120 1.387 . S
C2121 C2123 1.387 . S
H2122 C2129 0.950 . S
C2123 C2121 1.387 . S
C2123 C2125 1.390 . S
C2123 H2127 0.950 . S
H2124 C2120 0.950 . S
C2125 C2123 1.390 . S
C2125 C2126 1.387 . S
C2125 H2128 0.950 . S
C2126 C2125 1.387 . S
C2126 C2129 1.387 . S
H2127 C2123 0.950 . S
H2128 C2125 0.950 . S
C2129 C2120 1.390 . S
C2129 H2122 0.950 . S
C2129 C2126 1.387 . S
C2130 C2131 1.387 . S
C2130 H2134 0.950 . S
C2130 C2139 1.390 . S
C2131 C2130 1.387 . S
C2131 C2133 1.387 . S
H2132 C2139 0.950 . S
C2133 C2131 1.387 . S
C2133 C2135 1.390 . S
C2133 H2137 0.950 . S
H2134 C2130 0.950 . S
C2135 C2133 1.390 . S
C2135 C2136 1.387 . S
C2135 H2138 0.950 . S
C2136 C2135 1.387 . S
C2136 C2139 1.387 . S
H2137 C2133 0.950 . S
H2138 C2135 0.950 . S
C2139 C2130 1.390 . S
C2139 H2132 0.950 . S
C2139 C2136 1.387 . S
C2140 C2141 1.387 . S
C2140 H2144 0.950 . S
C2140 C2149 1.390 . S
C2141 C2140 1.387 . S
C2141 C2143 1.387 . S
H2142 C2149 0.950 . S
C2143 C2141 1.387 . S
C2143 C2145 1.390 . S
C2143 H2147 0.950 . S
H2144 C2140 0.950 . S
C2145 C2143 1.390 . S
C2145 C2146 1.387 . S
C2145 H2148 0.950 . S
C2146 C2145 1.387 . S
C2146 C2149 1.387 . S
H2147 C2143 0.950 . S
H2148 C2145 0.950 . S
C2149 C2140 1.390 . S
C2149 H2142 0.950 . S
C2149 C2146 1.387 . S
C2150 C2151 1.387 . S
C2150 H2154 0.950 . S
C2150 C2159 1.390 . S
C2151 C2150 1.387 . S
C2151 C2153 1.387 . S
H2152 C2159 0.950 . S
C2153 C2151 1.387 . S
C2153 C2155 1.390 . S
C2153 H2157 0.950 . S
H2154 C2150 0.950 . S
C2155 C2153 1.390 . S
C2155 C2156 1.387 . S
C2155 H2158 0.950 . S
C2156 C2155 1.387 . S
C2156 C2159 1.387 . S
H2157 C2153 0.950 . S
H2158 C2155 0.950 . S
C2159 C2150 1.390 . S
C2159 H2152 0.950 . S
C2159 C2156 1.387 . S
C2160 C2161 1.387 . S
C2160 H2164 0.950 . S
C2160 C2169 1.390 . S
C2161 C2160 1.387 . S
C2161 C2163 1.387 . S
H2162 C2169 0.950 . S
C2163 C2161 1.387 . S
C2163 C2165 1.390 . S
C2163 H2167 0.950 . S
H2164 C2160 0.950 . S
C2165 C2163 1.390 . S
C2165 C2166 1.387 . S
C2165 H2168 0.950 . S
C2166 C2165 1.387 . S
C2166 C2169 1.387 . S
H2167 C2163 0.950 . S
H2168 C2165 0.950 . S
C2169 C2160 1.390 . S
C2169 H2162 0.950 . S
C2169 C2166 1.387 . S
C2170 C2171 1.387 . S
C2170 H2174 0.950 . S
C2170 C2179 1.390 . S
C2171 C2170 1.387 . S
C2171 C2173 1.387 . S
H2172 C2179 0.950 . S
C2173 C2171 1.387 . S
C2173 C2175 1.390 . S
C2173 H2177 0.950 . S
H2174 C2170 0.950 . S
C2175 C2173 1.390 . S
C2175 C2176 1.387 . S
C2175 H2178 0.950 . S
C2176 C2175 1.387 . S
C2176 C2179 1.387 . S
H2177 C2173 0.950 . S
H2178 C2175 0.950 . S
C2179 C2170 1.390 . S
C2179 H2172 0.950 . S
C2179 C2176 1.387 . S
C2180 C2181 1.387 . S
C2180 H2184 0.950 . S
C2180 C2189 1.390 . S
C2181 C2180 1.387 . S
C2181 C2183 1.387 . S
H2182 C2189 0.950 . S
C2183 C2181 1.387 . S
C2183 C2185 1.390 . S
C2183 H2187 0.950 . S
H2184 C2180 0.950 . S
C2185 C2183 1.390 . S
C2185 C2186 1.387 . S
C2185 H2188 0.950 . S
C2186 C2185 1.387 . S
C2186 C2189 1.387 . S
H2187 C2183 0.950 . S
H2188 C2185 0.950 . S
C2189 C2180 1.390 . S
C2189 H2182 0.950 . S
C2189 C2186 1.387 . S
C2190 C2191 1.387 . S
C2190 H2194 0.950 . S
C2190 C2199 1.390 . S
C2191 C2190 1.387 . S
C2191 C2193 1.387 . S
H2192 C2199 0.950 . S
C2193 C2191 1.387 . S
C2193 C2195 1.390 . S
C2193 H2197 0.950 . S
H2194 C2190 0.950 . S
C2195 C2193 1.390 . S
C2195 C2196 1.387 . S
C2195 H2198 0.950 . S
C2196 C2195 1.387 . S
C2196 C2199 1.387 . S
H2197 C2193 0.950 . S
H2198 C2195 0.950 . S
C2199 C2190 1.390 . S
C2199 H2192 0.950 . S
C2199 C2196 1.387 . S
C2200 C2201 1.387 . S
C2200 H2204 0.950 . S
C2200 C2209 1.390 . S
C2201 C2200 1.387 . S
C2201 C2203 1.387 . S
H2202 C2209 0.950 . S
C2203 C2201 1.387 . S
C2203 C2205 1.390 . S
C2203 H2207 0.950 . S
H2204 C2200 0.950 . S
C2205 C2203 1.390 . S
C2205 C2206 1.387 . S
C2205 H2208 0.950 . S
C2206 C2205 1.387 . S
C2206 C2209 1.387 . S
H2207 C2203 0.950 . S
H2208 C2205 0.950 . S
C2209 C2200 1.390 . S
C2209 H2202 0.950 . S
C2209 C2206 1.387 . S
C2210 C2211 1.387 . S
C2210 H2214 0.950 . S
C2210 C2219 1.390 . S
C2211 C2210 1.387 . S
C2211 C2213 1.387 . S
H2212 C2219 0.950 . S
C2213 C2211 1.387 . S
C2213 C2215 1.390 . S
C2213 H2217 0.950 . S
H2214 C2210 0.950 . S
C2215 C2213 1.390 . S
C2215 C2216 1.387 . S
C2215 H2218 0.950 . S
C2216 C2215 1.387 . S
C2216 C2219 1.387 . S
H2217 C2213 0.950 . S
H2218 C2215 0.950 . S
C2219 C2210 1.390 . S
C2219 H2212 0.950 . S
C2219 C2216 1.387 . S
C2220 C2221 1.387 . S
C2220 H2224 0.950 . S
C2220 C2229 1.390 . S
C2221 C2220 1.387 . S
C2221 C2223 1.387 . S
H2222 C2229 0.950 . S
C2223 C2221 1.387 . S
C2223 C2225 1.390 . S
C2223 H2227 0.950 . S
H2224 C2220 0.950 . S
C2225 C2223 1.390 . S
C2225 C2226 1.387 . S
C2225 H2228 0.950 . S
C2226 C2225 1.387 . S
C2226 C2229 1.387 . S
H2227 C2223 0.950 . S
H2228 C2225 0.950 . S
C2229 C2220 1.390 . S
C2229 H2222 0.950 . S
C2229 C2226 1.387 . S
C2230 C2231 1.387 . S
C2230 H2234 0.950 . S
C2230 C2239 1.390 . S
C2231 C2230 1.387 . S
C2231 C2233 1.387 . S
H2232 C2239 0.950 . S
C2233 C2231 1.387 . S
C2233 C2235 1.390 . S
C2233 H2237 0.950 . S
H2234 C2230 0.950 . S
C2235 C2233 1.390 . S
C2235 C2236 1.387 . S
C2235 H2238 0.950 . S
C2236 C2235 1.387 . S
C2236 C2239 1.387 . S
H2237 C2233 0.950 . S
H2238 C2235 0.950 . S
C2239 C2230 1.390 . S
C2239 H2232 0.950 . S
C2239 C2236 1.387 . S
C1281 C15 1.074 . S
C1286 C129 1.030 . S
C1291 C9 1.032 . S
C1296 C55 1.075 . S
C1301 C95 1.076 . S
C1306 C49 1.027 . S
C1311 C89 1.026 . S
C1316 C135 1.075 . S
C1321 C209 1.031 . S
C1326 C175 1.075 . S
C1331 C215 1.075 . S
C1336 C249 1.032 . S
C1341 C289 1.027 . S
C1346 C255 1.076 . S
C1351 C169 1.032 . S
C1356 C295 1.075 . S
C1361 C325 1.075 . S
C1366 C459 1.031 . S
C1371 C365 1.074 . S
C1376 C339 1.029 . S
C1381 C405 1.075 . S
C1386 C379 1.031 . S
C1391 C445 1.075 . S
C1396 C419 1.032 . S
C1401 C485 1.075 . S
C1406 C539 1.031 . S
C1411 C525 1.076 . S
C1416 C579 1.028 . S
C1421 C619 1.031 . S
C1426 C565 1.075 . S
C1431 C499 1.027 . S
C1436 C605 1.076 . S
C1441 C655 1.075 . S
C1446 C769 1.030 . S
C1451 C649 1.028 . S
C1456 C695 1.074 . S
C1461 C689 1.026 . S
C1466 C735 1.076 . S
C1471 C775 1.076 . S
C1476 C729 1.027 . S
C1481 C815 1.076 . S
C1486 C849 1.027 . S
C1491 C889 1.027 . S
C1496 C855 1.075 . S
C1501 C895 1.075 . S
C1506 C929 1.032 . S
C1511 C809 1.026 . S
C1516 C935 1.075 . S
C1521 C1099 1.031 . S
C1526 C965 1.075 . S
C1531 C979 1.027 . S
C1536 C1005 1.075 . S
C1541 C1045 1.075 . S
C1546 C1019 1.031 . S
C1551 C1059 1.032 . S
C1556 C1085 1.076 . S
C1561 C1179 1.026 . S
C1566 C1125 1.076 . S
C1571 C1219 1.031 . S
C1576 C1165 1.076 . S
C1581 C1259 1.028 . S
C1586 C1205 1.074 . S
C1591 C1245 1.075 . S
C1596 C1139 1.031 . S
C1601 C1095 1.622 . S
C1606 C18 1.522 . S
C1611 C58 1.525 . S
C1616 C335 1.624 . S
C1621 C98 1.524 . S
C1626 C1015 1.624 . S
C1631 C138 1.521 . S
C1636 C415 1.623 . S
C1641 C178 1.521 . S
C1646 C1175 1.623 . S
C1651 C575 1.623 . S
C1656 C218 1.521 . S
C1661 C1255 1.624 . S
C1666 C258 1.523 . S
C1671 C298 1.525 . S
C1676 C495 1.624 . S
C1681 C328 1.521 . S
C1686 C765 1.622 . S
C1691 C5 1.623 . S
C1696 C368 1.521 . S
C1701 C685 1.624 . S
C1706 C408 1.525 . S
C1711 C85 1.623 . S
C1716 C448 1.525 . S
C1721 C845 1.622 . S
C1726 C488 1.522 . S
C1731 C245 1.624 . S
C1736 C528 1.524 . S
C1741 C568 1.521 . S
C1746 C925 1.623 . S
C1751 C608 1.521 . S
C1756 C165 1.623 . S
C1761 C658 1.524 . S
C1766 C455 1.623 . S
C1771 C698 1.524 . S
C1776 C975 1.623 . S
C1781 C738 1.525 . S
C1786 C375 1.624 . S
C1791 C778 1.521 . S
C1796 C1055 1.623 . S
C1801 C818 1.524 . S
C1806 C535 1.624 . S
C1811 C858 1.522 . S
C1816 C1215 1.623 . S
C1821 C615 1.624 . S
C1826 C898 1.525 . S
C1831 C938 1.522 . S
C1836 C1135 1.623 . S
C1841 C125 1.624 . S
C1846 C968 1.525 . S
C1851 C645 1.622 . S
C1856 C1008 1.522 . S
C1861 C45 1.622 . S
C1866 C1048 1.522 . S
C1871 C725 1.623 . S
C1876 C1088 1.521 . S
C1881 C205 1.624 . S
C1886 C1128 1.525 . S
C1891 C1168 1.521 . S
C1896 C885 1.622 . S
C1901 C1208 1.523 . S
C1906 C285 1.624 . S
C1911 C805 1.623 . S
C1916 C1248 1.525 . S
C1921 C8 1.427 . S
C1926 C168 1.427 . S
C1931 C48 1.429 . S
C1936 C208 1.429 . S
C1941 C88 1.427 . S
C1946 C248 1.427 . S
C1951 C288 1.430 . S
C1956 C128 1.430 . S
C1961 C498 1.430 . S
C1966 C338 1.430 . S
C1971 C538 1.429 . S
C1976 C378 1.429 . S
C1981 C418 1.427 . S
C1986 C578 1.427 . S
C1991 C458 1.430 . S
C1996 C618 1.430 . S
C2001 C648 1.430 . S
C2006 C808 1.430 . S
C2011 C848 1.427 . S
C2016 C688 1.427 . S
C2021 C888 1.430 . S
C2026 C728 1.430 . S
C2031 C928 1.427 . S
C2036 C768 1.427 . S
C2041 C1138 1.430 . S
C2046 C978 1.430 . S
C2051 C1018 1.427 . S
C2056 C1178 1.427 . S
C2061 C1218 1.430 . S
C2066 C1058 1.430 . S
C2071 C1098 1.427 . S
C2076 C1258 1.427 . S
C2081 C299 2.612 . S
C2086 C19 2.612 . S
C2091 C59 2.613 . S
C2096 C179 2.613 . S
C2101 C99 2.612 . S
C2106 C219 2.612 . S
C2111 C259 2.612 . S
C2116 C139 2.613 . S
C2121 C329 2.612 . S
C2126 C609 2.612 . S
C2131 C489 2.613 . S
C2136 C369 2.613 . S
C2141 C529 2.612 . S
C2146 C409 2.612 . S
C2151 C449 2.613 . S
C2156 C569 2.613 . S
C2161 C659 2.613 . S
C2166 C939 2.612 . S
C2171 C819 2.612 . S
C2176 C699 2.612 . S
C2181 C859 2.612 . S
C2186 C739 2.612 . S
C2191 C899 2.612 . S
C2196 C779 2.612 . S
C2201 C969 2.613 . S
C2206 C1249 2.613 . S
C2211 C1129 2.613 . S
C2216 C1009 2.613 . S
C2221 C1049 2.613 . S
C2226 C1169 2.613 . S
C2231 C1209 2.612 . S
C2236 C1089 2.612 . S
