# Generated by pormake.
# Topology eci, (8)-cn, num edge types: 1
# Building blocks:
#     Node 0, Type 0, BuildingBlock: TAGTUT_clean_sbu_3, # of connection points: 8
#     Node 1, Type 0, BuildingBlock: TAGTUT_clean_sbu_3, # of connection points: 8
#     Node 2, Type 0, BuildingBlock: TAGTUT_clean_sbu_3, # of connection points: 8
#     Node 3, Type 0, BuildingBlock: TAGTUT_clean_sbu_3, # of connection points: 8
#     Edge 4, Type (0, 0), BuildingBlock: ZUJKAS_clean_linker_0, # of connection points: 2
#     Edge 5, Type (0, 0), BuildingBlock: ZUJKAS_clean_linker_0, # of connection points: 2
#     Edge 6, Type (0, 0), BuildingBlock: ZUJKAS_clean_linker_0, # of connection points: 2
#     Edge 7, Type (0, 0), BuildingBlock: ZUJKAS_clean_linker_0, # of connection points: 2
#     Edge 8, Type (0, 0), BuildingBlock: ZUJKAS_clean_linker_0, # of connection points: 2
#     Edge 9, Type (0, 0), BuildingBlock: ZUJKAS_clean_linker_0, # of connection points: 2
#     Edge 10, Type (0, 0), BuildingBlock: ZUJKAS_clean_linker_0, # of connection points: 2
#     Edge 11, Type (0, 0), BuildingBlock: ZUJKAS_clean_linker_0, # of connection points: 2
#     Edge 12, Type (0, 0), BuildingBlock: ZUJKAS_clean_linker_0, # of connection points: 2
#     Edge 13, Type (0, 0), BuildingBlock: ZUJKAS_clean_linker_0, # of connection points: 2
#     Edge 14, Type (0, 0), BuildingBlock: ZUJKAS_clean_linker_0, # of connection points: 2
#     Edge 15, Type (0, 0), BuildingBlock: ZUJKAS_clean_linker_0, # of connection points: 2
#     Edge 16, Type (0, 0), BuildingBlock: ZUJKAS_clean_linker_0, # of connection points: 2
#     Edge 17, Type (0, 0), BuildingBlock: ZUJKAS_clean_linker_0, # of connection points: 2
#     Edge 18, Type (0, 0), BuildingBlock: ZUJKAS_clean_linker_0, # of connection points: 2
#     Edge 19, Type (0, 0), BuildingBlock: ZUJKAS_clean_linker_0, # of connection points: 2
# Relax obj value: 0.294
# Max RMSD: 0.268
# Mean RMSD: 0.266
data_MOF--net-eci--node1-TAGTUT_clean_sbu_3--edge1-ZUJKAS_clean_linker_0
_symmetry_space_group_name_H-M    P1
_symmetry_Int_Tables_number       1
_symmetry_cell_setting            triclinic
loop_
_symmetry_equiv_pos_as_xyz
'x, y, z'
_cell_length_a     39.996407
_cell_length_b     39.992284
_cell_length_c     20.16799
_cell_angle_alpha  88.646599
_cell_angle_beta   89.871611
_cell_angle_gamma 89.893528
loop_
_atom_site_label
_atom_site_type_symbol
_atom_site_fract_x
_atom_site_fract_y
_atom_site_fract_z
_atom_type_partial_charge
C0 C 0.75904 0.87498 0.00626 0.0
C1 C 0.68597 0.77095 0.97409 0.0
C2 C 0.77916 0.71482 0.03026 0.0
Mg3 Mg 0.83655 0.88737 -0.01042 0.0
Mg4 Mg 0.88521 0.84486 0.89149 0.0
O5 O 0.85334 0.84292 0.95922 0.0
Mg6 Mg 0.8101 0.81799 0.95335 0.0
O7 O 0.76492 0.79651 0.95465 0.0
Mg8 Mg 0.75548 0.79586 0.05274 0.0
Mg9 Mg 0.75542 0.75705 0.91146 0.0
C10 C 0.86694 0.76684 0.89682 0.0
O11 O 0.80753 0.81988 0.83994 0.0
O12 O 0.89142 0.89962 0.0108 0.0
O13 O 0.78029 0.77146 0.82058 0.0
O14 O 0.84258 0.91332 0.88713 0.0
O15 O 0.92457 0.8666 0.95023 0.0
O16 O 0.87075 0.88152 0.81732 0.0
O17 O 0.81048 0.81189 0.06537 0.0
O18 O 0.83133 0.86178 0.0901 0.0
C19 C 0.82008 0.83304 0.10775 0.0
C20 C 0.92047 0.8889 -0.00575 0.0
O21 O 0.84129 0.76976 0.93514 0.0
O22 O 0.70077 0.78316 0.02455 0.0
O23 O 0.88356 0.79186 0.87292 0.0
O24 O 0.77031 0.73904 0.067 0.0
O25 O 0.70196 0.75907 0.92474 0.0
O26 O 0.77758 0.71725 0.96735 0.0
O27 O 0.78371 0.8679 0.96857 0.0
O28 O 0.74364 0.85203 0.03956 0.0
C29 C 0.85545 0.90864 0.83007 0.0
C30 C 0.79788 0.79669 0.80121 0.0
C31 C 0.62638 0.2777 0.27368 0.0
C32 C 0.73809 0.21436 0.21677 0.0
C33 C 0.78615 0.29902 0.30682 0.0
Mg34 Mg 0.60865 0.35477 0.2985 0.0
Mg35 Mg 0.65735 0.40684 0.1804 0.0
O36 O 0.65427 0.37622 0.26008 0.0
Mg37 Mg 0.68135 0.33468 0.24183 0.0
O38 O 0.70476 0.29118 0.22696 0.0
Mg39 Mg 0.7054 0.2714 0.31879 0.0
Mg40 Mg 0.74537 0.29026 0.18184 0.0
C41 C 0.73349 0.39137 0.18773 0.0
O42 O 0.67863 0.34106 0.12832 0.0
O43 O 0.6417 0.40214 0.28769 0.0
O44 O 0.72932 0.3209 0.09849 0.0
O45 O 0.58226 0.37033 0.20145 0.0
O46 O 0.6471 0.45072 0.23845 0.0
O47 O 0.61286 0.39614 0.12209 0.0
O48 O 0.68724 0.32366 0.35282 0.0
O49 O 0.63708 0.33931 0.3907 0.0
C50 C 0.66633 0.32721 0.40017 0.0
C51 C 0.6359 0.43397 0.28813 0.0
O52 O 0.72907 0.36795 0.23177 0.0
O53 O 0.72291 0.22184 0.27079 0.0
O54 O 0.70946 0.40339 0.15259 0.0
O55 O 0.76168 0.28514 0.33802 0.0
O56 O 0.74868 0.23675 0.17533 0.0
O57 O 0.78389 0.30725 0.2456 0.0
O58 O 0.63266 0.30748 0.25223 0.0
O59 O 0.64969 0.25898 0.29784 0.0
C60 C 0.58521 0.38359 0.14332 0.0
C61 C 0.70191 0.33645 0.08531 0.0
C62 C 0.1691 0.17271 0.3443 0.0
C63 C 0.10822 0.06873 0.43056 0.0
C64 C 0.08883 0.12351 0.60757 0.0
Mg65 Mg 0.20795 0.23173 0.41641 0.0
Mg66 Mg 0.2448 0.22088 0.56073 0.0
O67 O 0.20642 0.21509 0.51104 0.0
Mg68 Mg 0.18282 0.17133 0.50147 0.0
O69 O 0.15579 0.13049 0.48467 0.0
Mg70 Mg 0.11257 0.1515 0.45433 0.0
Mg71 Mg 0.15191 0.09471 0.54534 0.0
C72 C 0.20055 0.17637 0.6599 0.0
O73 O 0.22905 0.13572 0.51445 0.0
O74 O 0.22356 0.28382 0.45639 0.0
O75 O 0.20493 0.09079 0.56607 0.0
O76 O 0.26484 0.21714 0.40459 0.0
O77 O 0.24548 0.27441 0.55769 0.0
O78 O 0.28597 0.20351 0.50399 0.0
O79 O 0.13406 0.20125 0.48981 0.0
O80 O 0.15175 0.24517 0.42946 0.0
C81 C 0.12817 0.22895 0.45898 0.0
C82 C 0.23624 0.29437 0.5106 0.0
O83 O 0.17969 0.16705 0.61552 0.0
O84 O 0.09856 0.09897 0.41891 0.0
O85 O 0.22658 0.19417 0.64724 0.0
O86 O 0.08531 0.13985 0.55284 0.0
O87 O 0.12927 0.06108 0.47636 0.0
O88 O 0.11508 0.1062 0.61943 0.0
O89 O 0.19035 0.1782 0.38992 0.0
O90 O 0.13956 0.16237 0.35744 0.0
C91 C 0.28921 0.20704 0.44131 0.0
C92 C 0.23074 0.10712 0.54543 0.0
C93 C 0.3137 0.66701 0.60981 0.0
C94 C 0.40678 0.59454 0.72222 0.0
C95 C 0.34181 0.58881 0.88758 0.0
Mg96 Mg 0.2548 0.71215 0.66986 0.0
Mg97 Mg 0.26103 0.74903 0.81328 0.0
O98 O 0.26649 0.70988 0.76673 0.0
Mg99 Mg 0.30852 0.68299 0.76445 0.0
O100 O 0.34823 0.65263 0.75466 0.0
Mg101 Mg 0.32458 0.61061 0.7279 0.0
Mg102 Mg 0.37974 0.64619 0.8216 0.0
C103 C 0.3021 0.70446 0.91789 0.0
O104 O 0.34561 0.72693 0.78242 0.0
O105 O 0.20219 0.73078 0.70301 0.0
O106 O 0.38592 0.69873 0.83986 0.0
O107 O 0.27504 0.7672 0.65658 0.0
O108 O 0.20751 0.75021 0.80622 0.0
O109 O 0.28304 0.7886 0.75627 0.0
O110 O 0.27561 0.63724 0.75094 0.0
O111 O 0.23682 0.65773 0.682 0.0
C112 C 0.24998 0.6331 0.71424 0.0
C113 C 0.18945 0.74197 0.75679 0.0
O114 O 0.3078 0.68043 0.87808 0.0
O115 O 0.37641 0.58922 0.70515 0.0
O116 O 0.28717 0.73174 0.90071 0.0
O117 O 0.32862 0.58445 0.83081 0.0
O118 O 0.41466 0.61649 0.76491 0.0
O119 O 0.35944 0.61457 0.89868 0.0
O120 O 0.30759 0.68953 0.65227 0.0
O121 O 0.32136 0.63701 0.6275 0.0
C122 C 0.28471 0.79106 0.69331 0.0
C123 C 0.37211 0.72601 0.81884 0.0
H124 H 0.81523 0.77091 0.16647 0.0
H125 H 0.81807 0.75752 0.28565 0.0
H126 H 0.82463 0.8627 0.32695 0.0
H127 H 0.82234 0.87627 0.20887 0.0
H128 H 0.87334 0.82223 0.39184 0.0
H129 H 0.74337 0.77391 0.42247 0.0
H130 H 0.76875 0.75494 0.35994 0.0
H131 H 0.75634 0.79792 0.35004 0.0
C132 C 0.81691 0.79112 0.20115 0.0
C133 C 0.81864 0.82459 0.17871 0.0
C134 C 0.81861 0.78344 0.26888 0.0
C135 C 0.82159 0.80921 0.31441 0.0
C136 C 0.82262 0.84257 0.29212 0.0
H137 H 0.81523 0.85118 0.72385 0.0
H138 H 0.82773 0.85126 0.60465 0.0
C139 C 0.82118 0.85023 0.22479 0.0
C140 C 0.82354 0.80199 0.38581 0.0
H141 H 0.77629 0.77699 0.51812 0.0
C142 C 0.85233 0.81198 0.41966 0.0
C143 C 0.79599 0.78865 0.42118 0.0
C144 C 0.76422 0.7784 0.38688 0.0
C145 C 0.85394 0.80977 0.48886 0.0
C146 C 0.82592 0.79759 0.52426 0.0
C147 C 0.79767 0.78638 0.49025 0.0
C148 C 0.82434 0.79742 0.59684 0.0
C149 C 0.88529 0.82079 0.52353 0.0
C150 C 0.81869 0.76718 0.63108 0.0
C151 C 0.81098 0.76715 0.69811 0.0
C152 C 0.80884 0.79741 0.73192 0.0
C153 C 0.81649 0.82761 0.69855 0.0
C154 C 0.82392 0.82763 0.63092 0.0
H155 H 0.90721 0.82101 0.48959 0.0
H156 H 0.88165 0.84655 0.54154 0.0
H157 H 0.89085 0.80418 0.56703 0.0
H158 H 0.81898 0.7437 0.60529 0.0
H159 H 0.80603 0.7434 0.72316 0.0
H160 H 0.72823 0.33121 0.45593 0.0
H161 H 0.73997 0.33078 0.57547 0.0
H162 H 0.63713 0.30488 0.61632 0.0
H163 H 0.62539 0.30515 0.49807 0.0
H164 H 0.7042 0.37685 0.6532 0.0
H165 H 0.68859 0.24729 0.7514 0.0
H166 H 0.69716 0.25673 0.66496 0.0
H167 H 0.65528 0.26008 0.69696 0.0
C168 C 0.70856 0.32424 0.49058 0.0
C169 C 0.67585 0.31864 0.46843 0.0
C170 C 0.71523 0.32412 0.55851 0.0
C171 C 0.68939 0.31773 0.60422 0.0
C172 C 0.65747 0.30938 0.58168 0.0
H173 H 0.64361 0.33818 0.01565 0.0
H174 H 0.63925 0.34075 0.89429 0.0
C175 C 0.65075 0.30979 0.51422 0.0
C176 C 0.69373 0.32483 0.67473 0.0
H177 H 0.68131 0.29125 0.82935 0.0
C178 C 0.69978 0.35809 0.69195 0.0
C179 C 0.68746 0.3003 0.72457 0.0
C180 C 0.68206 0.26404 0.7086 0.0
C181 C 0.69862 0.36769 0.75819 0.0
C182 C 0.69139 0.34332 0.80774 0.0
C183 C 0.68611 0.30995 0.79065 0.0
C184 C 0.69184 0.35095 0.87847 0.0
C185 C 0.70429 0.40382 0.77475 0.0
C186 C 0.72251 0.35737 0.90877 0.0
C187 C 0.72506 0.35567 0.97743 0.0
C188 C 0.69697 0.34749 0.01639 0.0
C189 C 0.66556 0.34449 -0.01362 0.0
C190 C 0.66308 0.34587 0.91738 0.0
H191 H 0.70209 0.42062 0.73029 0.0
H192 H 0.68613 0.412 0.81286 0.0
H193 H 0.7298 0.40661 0.79538 0.0
H194 H 0.74496 0.36099 0.87932 0.0
H195 H 0.74948 0.35843 -0.00018 0.0
H196 H 0.20503 0.21752 0.76207 0.0
H197 H 0.20504 0.20235 0.87954 0.0
H198 H 0.18515 0.09947 0.83289 0.0
H199 H 0.18406 0.11505 0.7137 0.0
H200 H 0.14992 0.11995 0.94091 0.0
H201 H 0.28176 0.15454 0.97117 0.0
H202 H 0.26033 0.18861 0.9306 0.0
H203 H 0.26329 0.14882 0.89055 0.0
C204 C 0.20026 0.19174 0.77694 0.0
C205 C 0.19482 0.16733 0.72954 0.0
C206 C 0.20069 0.18302 0.84381 0.0
C207 C 0.19655 0.14958 0.86443 0.0
C208 C 0.18912 0.12529 0.81749 0.0
H209 H 0.22656 0.14656 0.29562 0.0
H210 H 0.2366 0.13184 0.1798 0.0
C211 C 0.18819 0.13419 0.74992 0.0
C212 C 0.19935 0.14118 0.93566 0.0
H213 H 0.24572 0.1636 0.06869 0.0
C214 C 0.17122 0.12852 0.96903 0.0
C215 C 0.22768 0.15101 0.97223 0.0
C216 C 0.26009 0.16109 0.939 0.0
C217 C 0.16917 0.12934 0.03828 0.0
C218 C 0.19538 0.14445 0.07395 0.0
C219 C 0.22512 0.15316 0.04112 0.0
C220 C 0.19092 0.15478 0.14315 0.0
C221 C 0.13843 0.11519 0.07207 0.0
C222 C 0.16309 0.17431 0.15989 0.0
C223 C 0.15724 0.18238 0.22554 0.0
C224 C 0.17972 0.17203 0.27506 0.0
C225 C 0.20911 0.15507 0.25779 0.0
C226 C 0.21461 0.14631 0.19203 0.0
H227 H 0.12862 0.09351 0.04472 0.0
H228 H 0.14367 0.10703 0.12403 0.0
H229 H 0.11851 0.13454 0.07222 0.0
H230 H 0.14535 0.18252 0.12239 0.0
H231 H 0.13448 0.19559 0.23807 0.0
H232 H 0.3085 0.64822 -0.00314 0.0
H233 H 0.3203 0.64699 0.11648 0.0
H234 H 0.33609 0.75372 0.10998 0.0
H235 H 0.32389 0.75526 -0.00841 0.0
H236 H 0.37545 0.67463 0.20063 0.0
H237 H 0.25106 0.73604 0.22812 0.0
H238 H 0.2636 0.71591 0.15286 0.0
H239 H 0.28023 0.75617 0.1723 0.0
C240 C 0.31505 0.67122 0.02098 0.0
C241 C 0.31426 0.70195 -0.01389 0.0
C242 C 0.32189 0.6705 0.08883 0.0
C243 C 0.32832 0.70042 0.12146 0.0
C244 C 0.33057 0.73057 0.08538 0.0
H245 H 0.31585 0.72933 0.55042 0.0
H246 H 0.32308 0.7419 0.43146 0.0
C247 C 0.32338 0.73138 0.01812 0.0
C248 C 0.32849 0.70085 0.19398 0.0
H249 H 0.28074 0.72337 0.32575 0.0
C250 C 0.35497 0.68549 0.22821 0.0
C251 C 0.30173 0.7154 0.2291 0.0
C252 C 0.27237 0.73165 0.19397 0.0
C253 C 0.35496 0.68355 0.29752 0.0
C254 C 0.32746 0.69679 0.33249 0.0
C255 C 0.30173 0.71341 0.2983 0.0
C256 C 0.32287 0.68996 0.40359 0.0
C257 C 0.38398 0.66684 0.33273 0.0
C258 C 0.31895 0.65683 0.42587 0.0
C259 C 0.31465 0.64963 0.49291 0.0
C260 C 0.314 0.67553 0.53875 0.0
C261 C 0.31635 0.70893 0.51603 0.0
C262 C 0.32073 0.71611 0.44851 0.0
H263 H 0.40701 0.66775 0.30183 0.0
H264 H 0.38916 0.67878 0.38078 0.0
H265 H 0.37783 0.64015 0.34284 0.0
H266 H 0.3194 0.63648 0.39132 0.0
H267 H 0.31237 0.62367 0.50884 0.0
H268 H 0.39173 0.7409 0.94114 0.0
H269 H 0.4401 0.77403 0.96604 0.0
H270 H 0.44068 0.81431 0.76524 0.0
H271 H 0.39289 0.77856 0.73911 0.0
H272 H 0.49495 0.78797 0.7813 0.0
H273 H 0.48213 0.85704 0.0085 0.0
H274 H 0.46498 0.81702 0.02974 0.0
H275 H 0.44548 0.84277 0.96556 0.0
C276 C 0.40117 0.75807 0.90314 0.0
C277 C 0.38913 0.7568 0.83802 0.0
C278 C 0.42887 0.77748 0.91762 0.0
C279 C 0.44461 0.79683 0.86762 0.0
C280 C 0.42932 0.79936 0.80468 0.0
H281 H 0.6504 0.82568 0.00859 0.0
H282 H 0.59299 0.83959 0.97685 0.0
C283 C 0.40175 0.77925 0.78978 0.0
C284 C 0.48027 0.80642 0.87701 0.0
H285 H 0.53494 0.82158 0.00229 0.0
C286 C 0.50355 0.79648 0.82896 0.0
C287 C 0.49233 0.81862 0.93784 0.0
C288 C 0.4697 0.8348 -0.01231 0.0
C289 C 0.53781 0.79469 0.843 0.0
C290 C 0.54899 0.80114 0.90804 0.0
C291 C 0.52637 0.81491 0.95339 0.0
C292 C 0.58338 0.79225 0.93049 0.0
C293 C 0.5614 0.78525 0.78794 0.0
C294 C 0.59684 0.76048 0.9177 0.0
C295 C 0.62993 0.75284 0.93426 0.0
C296 C 0.64968 0.77622 0.96683 0.0
C297 C 0.63552 0.80702 -0.01586 0.0
C298 C 0.60276 0.81509 0.96561 0.0
H299 H 0.55212 0.79487 0.73921 0.0
H300 H 0.58694 0.79523 0.79577 0.0
H301 H 0.56273 0.7576 0.78521 0.0
H302 H 0.58198 0.74174 0.89361 0.0
H303 H 0.64026 0.72888 0.92067 0.0
H304 H 0.71119 0.15913 0.28018 0.0
H305 H 0.7144 0.10093 0.24547 0.0
H306 H 0.77593 0.13095 0.07876 0.0
H307 H 0.77322 0.18894 0.11302 0.0
H308 H 0.69293 0.07685 0.12021 0.0
H309 H 0.82779 0.05209 0.16441 0.0
H310 H 0.80587 0.0866 0.20112 0.0
H311 H 0.81926 0.08942 0.11605 0.0
C312 C 0.7258 0.15332 0.23665 0.0
C313 C 0.74199 0.17875 0.19947 0.0
C314 C 0.72748 0.12008 0.2168 0.0
C315 C 0.74566 0.11168 0.15997 0.0
C316 C 0.76223 0.13686 0.12338 0.0
H317 H 0.78477 0.93103 0.94465 0.0
H318 H 0.77923 0.98891 0.97947 0.0
C319 C 0.76049 0.17005 0.14297 0.0
C320 C 0.74608 0.07686 0.13684 0.0
H321 H 0.79822 0.01185 0.10286 0.0
C322 C 0.71587 0.06249 0.11682 0.0
C323 C 0.77612 0.05839 0.13213 0.0
C324 C 0.80909 0.07223 0.15508 0.0
C325 C 0.715 0.03025 0.09084 0.0
C326 C 0.74507 0.0118 0.08595 0.0
C327 C 0.77524 0.02616 0.10631 0.0
C328 C 0.74585 0.97724 0.06133 0.0
C329 C 0.68206 0.01654 0.06742 0.0
C330 C 0.72862 0.95159 0.09538 0.0
C331 C 0.73171 0.9185 0.0756 0.0
C332 C 0.75244 0.91039 0.0218 0.0
C333 C 0.76886 0.93633 -0.01341 0.0
C334 C 0.76571 0.96943 0.00637 0.0
H335 H 0.66355 0.03679 0.05748 0.0
H336 H 0.68537 0.002 0.02162 0.0
H337 H 0.67156 0.99959 0.1065 0.0
H338 H 0.71366 0.95699 0.13867 0.0
H339 H 0.71881 0.89917 0.1041 0.0
H340 H 0.30776 0.20021 0.31025 0.0
H341 H 0.36481 0.20132 0.26478 0.0
H342 H 0.40412 0.21173 0.4623 0.0
H343 H 0.34816 0.20852 0.5077 0.0
H344 H 0.40804 0.24705 0.25954 0.0
H345 H 0.4684 0.14554 0.40232 0.0
H346 H 0.42365 0.15094 0.40286 0.0
H347 H 0.44968 0.17304 0.46039 0.0
C348 C 0.32872 0.20183 0.34395 0.0
C349 C 0.32332 0.20386 0.41269 0.0
C350 C 0.36134 0.2026 0.31794 0.0
C351 C 0.38914 0.20584 0.36007 0.0
C352 C 0.38355 0.20777 0.42863 0.0
H353 H 0.56833 0.31437 0.28054 0.0
H354 H 0.51166 0.29399 0.29291 0.0
C355 C 0.35124 0.20621 0.45463 0.0
C356 C 0.42372 0.2103 0.33308 0.0
H357 H 0.50523 0.19164 0.36785 0.0
C358 C 0.42923 0.23435 0.28231 0.0
C359 C 0.45165 0.19315 0.36069 0.0
C360 C 0.4479 0.16396 0.40895 0.0
C361 C 0.46173 0.24327 0.26184 0.0
C362 C 0.48969 0.22909 0.29544 0.0
C363 C 0.48411 0.20338 0.34294 0.0
C364 C 0.5246 0.24156 0.28502 0.0
C365 C 0.46544 0.26769 0.20409 0.0
C366 C 0.55158 0.21913 0.27948 0.0
C367 C 0.58455 0.23088 0.27563 0.0
C368 C 0.59133 0.26538 0.27585 0.0
C369 C 0.56431 0.28775 0.27985 0.0
C370 C 0.53152 0.27601 0.28589 0.0
H371 H 0.44466 0.26485 0.1682 0.0
H372 H 0.46419 0.29361 0.22242 0.0
H373 H 0.48946 0.26422 0.17741 0.0
H374 H 0.54721 0.19242 0.27884 0.0
H375 H 0.60475 0.21292 0.27221 0.0
H376 H 0.29813 0.84875 0.75731 0.0
H377 H 0.3087 0.90386 0.70916 0.0
H378 H 0.30847 0.86287 0.51323 0.0
H379 H 0.2963 0.80723 0.5613 0.0
H380 H 0.35531 0.93369 0.63447 0.0
H381 H 0.23551 0.93077 0.49415 0.0
H382 H 0.2465 0.89863 0.55426 0.0
H383 H 0.26557 0.89935 0.47338 0.0
C384 C 0.30051 0.85118 0.70391 0.0
C385 C 0.29566 0.82352 0.66313 0.0
C386 C 0.30677 0.88287 0.6764 0.0
C387 C 0.30868 0.88782 0.60742 0.0
C388 C 0.30616 0.8599 0.56652 0.0
H389 H 0.26871 0.08685 0.44254 0.0
H390 H 0.30135 0.0349 0.44509 0.0
C391 C 0.29938 0.82806 0.59409 0.0
C392 C 0.31053 0.92266 0.57985 0.0
H393 H 0.26371 0.98146 0.49669 0.0
C394 C 0.33561 0.94401 0.60322 0.0
C395 C 0.28492 0.93626 0.53884 0.0
C396 C 0.25644 0.91524 0.51399 0.0
C397 C 0.33455 0.97871 0.59034 0.0
C398 C 0.30783 0.99241 0.55293 0.0
C399 C 0.28432 0.97085 0.52511 0.0
C400 C 0.29984 0.02871 0.55191 0.0
C401 C 0.36118 0.0006 0.61923 0.0
C402 C 0.28999 0.04355 0.61128 0.0
C403 C 0.27124 0.07306 0.60978 0.0
C404 C 0.26233 0.08833 0.54897 0.0
C405 C 0.27586 0.07592 0.49011 0.0
C406 C 0.29424 0.04604 0.4915 0.0
H407 H 0.38497 0.9866 0.62647 0.0
H408 H 0.36596 0.02296 0.58692 0.0
H409 H 0.35275 0.00921 0.66845 0.0
H410 H 0.29344 0.03043 0.65838 0.0
H411 H 0.26053 0.08182 0.65566 0.0
H412 H 0.89715 0.72699 -0.01149 0.0
H413 H 0.9518 0.70344 0.96235 0.0
H414 H 0.92966 0.7127 0.75378 0.0
H415 H 0.87516 0.73639 0.77988 0.0
H416 H 0.98887 0.66024 0.81736 0.0
H417 H 0.98998 0.79757 0.86183 0.0
H418 H 0.96704 0.77043 0.91787 0.0
H419 H 0.9527 0.77684 0.83437 0.0
C420 C 0.90277 0.72137 0.93737 0.0
C421 C 0.88252 0.73424 0.88607 0.0
C422 C 0.93423 0.70816 0.92238 0.0
C423 C 0.94498 0.7073 0.85613 0.0
C424 C 0.92182 0.71335 0.8052 0.0
H425 H 0.14179 0.72144 0.66854 0.0
H426 H 0.08241 0.71162 0.69096 0.0
C427 C 0.89048 0.72665 0.82022 0.0
C428 C 0.98086 0.71177 0.84103 0.0
H429 H 0.04021 0.77287 0.8306 0.0
C430 C 0.00028 0.68474 0.8204 0.0
C431 C 0.9954 0.74393 0.84472 0.0
C432 C 0.97537 0.774 0.86566 0.0
C433 C 0.0343 0.68902 0.80425 0.0
C434 C 0.04873 0.7213 0.80755 0.0
C435 C 0.02909 0.74821 0.82801 0.0
C436 C 0.08445 0.72788 0.79246 0.0
C437 C 0.05463 0.6589 0.78528 0.0
C438 C 0.10487 0.74196 0.84084 0.0
C439 C 0.13856 0.74827 0.82785 0.0
C440 C 0.15267 0.74054 0.76609 0.0
C441 C 0.13182 0.72764 0.71669 0.0
C442 C 0.09797 0.72151 0.72972 0.0
H443 H 0.04237 0.63516 0.80146 0.0
H444 H 0.05734 0.6587 0.73053 0.0
H445 H 0.08002 0.65976 0.80731 0.0
H446 H 0.09485 0.74749 0.88935 0.0
H447 H 0.15374 0.75819 0.86717 0.0
H448 H 0.77268 0.40548 0.08121 0.0
H449 H 0.80101 0.45907 0.06494 0.0
H450 H 0.78686 0.47986 0.27201 0.0
H451 H 0.75994 0.4256 0.28869 0.0
H452 H 0.75803 0.50894 0.08312 0.0
H453 H 0.87075 0.5333 0.23345 0.0
H454 H 0.8567 0.49148 0.21608 0.0
H455 H 0.8372 0.51486 0.2808 0.0
C456 C 0.77787 0.42042 0.12412 0.0
C457 C 0.76423 0.41146 0.18617 0.0
C458 C 0.79372 0.45128 0.11471 0.0
C459 C 0.79569 0.47382 0.167 0.0
C460 C 0.78612 0.46289 0.231 0.0
H461 H 0.76637 0.68931 0.15578 0.0
H462 H 0.77561 0.63139 0.19535 0.0
C463 C 0.77083 0.43165 0.24065 0.0
C464 C 0.79936 0.51021 0.15147 0.0
H465 H 0.8408 0.58172 0.19181 0.0
C466 C 0.77651 0.52465 0.10632 0.0
C467 C 0.82292 0.53097 0.18274 0.0
C468 C 0.84848 0.51683 0.23055 0.0
C469 C 0.7764 0.55903 0.0918 0.0
C470 C 0.79989 0.57979 0.12285 0.0
C471 C 0.82278 0.56566 0.16823 0.0
C472 C 0.80093 0.61604 0.10619 0.0
C473 C 0.75083 0.57311 0.04366 0.0
C474 C 0.81305 0.62668 0.04401 0.0
C475 C 0.80753 0.65942 0.02112 0.0
C476 C 0.78985 0.68227 0.06009 0.0
C477 C 0.77996 0.67228 0.12455 0.0
C478 C 0.78533 0.63927 0.14732 0.0
H479 H 0.73112 0.55463 0.03202 0.0
H480 H 0.73873 0.59569 0.06402 0.0
H481 H 0.7635 0.58069 -0.00334 0.0
H482 H 0.82512 0.60909 0.0116 0.0
H483 H 0.81594 0.66642 0.97161 0.0
H484 H 0.83948 0.3372 0.26719 0.0
H485 H 0.89747 0.33111 0.30341 0.0
H486 H 0.86723 0.25786 0.4518 0.0
H487 H 0.80891 0.26431 0.41679 0.0
H488 H 0.91895 0.29946 0.49483 0.0
H489 H 0.94793 0.24744 0.24849 0.0
H490 H 0.93025 0.28871 0.24438 0.0
H491 H 0.90568 0.25433 0.27651 0.0
C492 C 0.84502 0.32028 0.30848 0.0
C493 C 0.81957 0.3009 0.33847 0.0
C494 C 0.87825 0.31667 0.32882 0.0
C495 C 0.88683 0.29328 0.37894 0.0
C496 C 0.86123 0.27581 0.41254 0.0
H497 H 0.07248 0.20465 0.52305 0.0
H498 H 0.01435 0.22188 0.50704 0.0
C499 C 0.82785 0.27963 0.3926 0.0
C500 C 0.92254 0.28532 0.39274 0.0
H501 H 0.99369 0.25584 0.32009 0.0
C502 C 0.9353 0.2899 0.45671 0.0
C503 C 0.94383 0.27256 0.34305 0.0
C504 C 0.93123 0.26513 0.27444 0.0
C505 C 0.96895 0.2827 0.47188 0.0
C506 C 0.99022 0.27024 0.42196 0.0
C507 C 0.97743 0.26564 0.35814 0.0
C508 C 0.02572 0.26111 0.4348 0.0
C509 C 0.9816 0.28898 0.54085 0.0
C510 C 0.05148 0.27708 0.39888 0.0
C511 C 0.0848 0.26712 0.40758 0.0
C512 C 0.09301 0.24067 0.45189 0.0
C513 C 0.06712 0.22495 0.48826 0.0
C514 C 0.03384 0.23501 0.47967 0.0
H515 H 0.96489 0.30618 0.56802 0.0
H516 H 0.98272 0.2649 0.56925 0.0
H517 H 0.00717 0.29975 0.53922 0.0
H518 H 0.04576 0.29713 0.36364 0.0
H519 H 0.10402 0.27978 0.37866 0.0
H520 H 0.2083 0.34588 0.43681 0.0
H521 H 0.20854 0.40557 0.46237 0.0
H522 H 0.26869 0.38446 0.63557 0.0
H523 H 0.26896 0.32527 0.61043 0.0
H524 H 0.184 0.43381 0.58096 0.0
H525 H 0.31835 0.46204 0.54318 0.0
H526 H 0.29873 0.42531 0.51042 0.0
H527 H 0.3114 0.42594 0.59593 0.0
C528 C 0.22203 0.35404 0.47972 0.0
C529 C 0.23864 0.33077 0.52152 0.0
C530 C 0.22201 0.38809 0.49435 0.0
C531 C 0.23894 0.39939 0.55041 0.0
C532 C 0.25598 0.37633 0.5914 0.0
H533 H 0.26839 0.57461 0.77661 0.0
H534 H 0.26218 0.51808 0.73509 0.0
C535 C 0.25593 0.34242 0.57706 0.0
C536 C 0.2375 0.43493 0.56887 0.0
H537 H 0.28707 0.50104 0.60686 0.0
C538 C 0.20642 0.44877 0.58574 0.0
C539 C 0.26684 0.45424 0.57505 0.0
C540 C 0.30068 0.44126 0.55457 0.0
C541 C 0.20411 0.48101 0.61155 0.0
C542 C 0.23362 0.4998 0.6199 0.0
C543 C 0.26454 0.48634 0.60106 0.0
C544 C 0.23335 0.53339 0.64893 0.0
C545 C 0.17039 0.49427 0.63198 0.0
C546 C 0.21848 0.56054 0.615 0.0
C547 C 0.22207 0.59293 0.63853 0.0
C548 C 0.24086 0.59866 0.69609 0.0
C549 C 0.25417 0.57111 0.73173 0.0
C550 C 0.25061 0.5388 0.70814 0.0
H551 H 0.15118 0.47425 0.63474 0.0
H552 H 0.17196 0.50627 0.68097 0.0
H553 H 0.16202 0.51352 0.59509 0.0
H554 H 0.20541 0.55688 0.56875 0.0
H555 H 0.21157 0.61356 0.60969 0.0
H556 H 0.12516 0.00205 0.43233 0.0
H557 H 0.10878 0.96007 0.35193 0.0
H558 H 0.04933 0.03412 0.24709 0.0
H559 H 0.06546 0.07604 0.32614 0.0
H560 H 0.04449 0.93876 0.32185 0.0
H561 H 0.10478 0.99354 0.09829 0.0
H562 H 0.11666 0.00484 0.18125 0.0
H563 H 0.08127 0.02455 0.14125 0.0
C564 C 0.10857 0.00938 0.39216 0.0
C565 C 0.09671 0.04247 0.38558 0.0
C566 C 0.09947 0.98542 0.34612 0.0
C567 C 0.07872 0.99433 0.29261 0.0
C568 C 0.06628 0.02706 0.28687 0.0
H569 H 0.92005 0.93513 0.09088 0.0
H570 H 0.96624 0.95219 0.15996 0.0
C571 C 0.07522 0.0509 0.3327 0.0
C572 C 0.06747 0.96927 0.24502 0.0
H573 H 0.0538 0.96113 0.07937 0.0
C574 C 0.04744 0.94287 0.2688 0.0
C575 C 0.07188 0.97426 0.17586 0.0
C576 C 0.09516 0.00064 0.14773 0.0
C577 C 0.0286 0.92384 0.2251 0.0
C578 C 0.02981 0.93171 0.15649 0.0
C579 C 0.0527 0.95547 0.1322 0.0
C580 C 0.00287 0.92095 0.11229 0.0
C581 C 0.0055 0.89722 0.2529 0.0
C582 C 0.00859 0.89848 0.06117 0.0
C583 C 0.98201 0.88847 0.02111 0.0
C584 C 0.94958 0.90118 0.03153 0.0
C585 C 0.94454 0.92462 0.0815 0.0
C586 C 0.97088 0.93432 0.12139 0.0
H587 H 0.01436 0.88745 0.30182 0.0
H588 H 0.98025 0.90815 0.25991 0.0
H589 H 0.00328 0.8761 0.21838 0.0
H590 H 0.03335 0.88829 0.05317 0.0
H591 H 0.98671 0.87043 -0.01702 0.0
H592 H 0.62069 0.49991 0.2979 0.0
H593 H 0.58516 0.52608 0.38047 0.0
H594 H 0.56544 0.42941 0.47162 0.0
H595 H 0.60165 0.40302 0.38979 0.0
H596 H 0.51901 0.51517 0.40183 0.0
H597 H 0.5915 0.48532 0.63015 0.0
H598 H 0.60879 0.48113 0.54797 0.0
H599 H 0.58138 0.44952 0.58201 0.0
C600 C 0.60885 0.48419 0.33559 0.0
C601 C 0.61382 0.4494 0.33732 0.0
C602 C 0.58867 0.4992 0.38281 0.0
C603 C 0.57312 0.47974 0.43266 0.0
C604 C 0.57785 0.44494 0.4344 0.0
H605 H 0.39908 0.53805 0.65135 0.0
H606 H 0.44112 0.50951 0.58584 0.0
C607 C 0.59824 0.42988 0.38726 0.0
C608 C 0.55053 0.49589 0.48034 0.0
H609 H 0.53712 0.50854 0.64517 0.0
C610 C 0.52305 0.51383 0.455 0.0
C611 C 0.55616 0.4944 0.54959 0.0
C612 C 0.58623 0.47683 0.57917 0.0
C613 C 0.50068 0.52994 0.4971 0.0
C614 C 0.50559 0.52744 0.56643 0.0
C615 C 0.53338 0.51006 0.59193 0.0
C616 C 0.48152 0.54235 0.61273 0.0
C617 C 0.4721 0.54974 0.46695 0.0
C618 C 0.49081 0.56935 0.65182 0.0
C619 C 0.4668 0.58575 0.68982 0.0
C620 C 0.43325 0.57532 0.6889 0.0
C621 C 0.42459 0.54711 0.6523 0.0
C622 C 0.44854 0.53072 0.61482 0.0
H623 H 0.47673 0.55621 0.41384 0.0
H624 H 0.44892 0.53457 0.47012 0.0
H625 H 0.46778 0.5732 0.49409 0.0
H626 H 0.51629 0.57849 0.65094 0.0
H627 H 0.47425 0.60729 0.71775 0.0
H628 H 0.02763 0.15389 0.59517 0.0
H629 H 0.97467 0.13147 0.63671 0.0
H630 H 0.02803 0.05686 0.75265 0.0
H631 H 0.081 0.07923 0.71219 0.0
H632 H 0.95696 0.06891 0.60408 0.0
H633 H 0.95212 0.07863 0.87633 0.0
H634 H 0.9802 0.10368 0.82555 0.0
H635 H 0.99137 0.06155 0.85045 0.0
C636 C 0.02822 0.13351 0.63151 0.0
C637 C 0.05866 0.11798 0.64938 0.0
C638 C 0.99782 0.12065 0.65499 0.0
C639 C 0.9973 0.09237 0.69746 0.0
C640 C 0.02772 0.07898 0.7206 0.0
H641 H 0.8945 0.91343 0.71847 0.0
H642 H 0.92069 0.96449 0.67645 0.0
C643 C 0.05814 0.09182 0.69722 0.0
C644 C 0.96576 0.07355 0.70897 0.0
H645 H 0.9214 0.0323 0.82984 0.0
C646 C 0.94865 0.06156 0.65354 0.0
C647 C 0.95455 0.06428 0.77328 0.0
C648 C 0.97035 0.07804 0.83472 0.0
C649 C 0.92229 0.0386 0.66072 0.0
C650 C 0.91314 0.02698 0.72491 0.0
C651 C 0.92856 0.04092 0.78043 0.0
C652 C 0.89089 0.99767 0.73607 0.0
C653 C 0.90518 0.02635 0.59935 0.0
C654 C 0.86421 0.99929 0.78119 0.0
C655 C 0.84919 0.96996 0.80566 0.0
C656 C 0.86096 0.93844 0.78614 0.0
C657 C 0.88487 0.93717 0.73499 0.0
C658 C 0.89992 0.96651 0.71067 0.0
H659 H 0.90568 0.04574 0.55898 0.0
H660 H 0.91867 0.00406 0.58125 0.0
H661 H 0.8788 0.01928 0.60958 0.0
H662 H 0.85668 0.02307 0.80116 0.0
H663 H 0.83057 0.97197 0.84447 0.0
H664 H 0.52118 0.37267 0.18524 0.0
H665 H 0.47097 0.39754 0.13904 0.0
H666 H 0.52687 0.43337 0.9685 0.0
H667 H 0.57817 0.41018 0.0169 0.0
H668 H 0.4973 0.48228 0.01977 0.0
H669 H 0.40205 0.38352 0.00462 0.0
H670 H 0.41895 0.38373 0.08671 0.0
H671 H 0.44567 0.37393 0.01758 0.0
C672 C 0.52286 0.38503 0.13698 0.0
C673 C 0.554 0.38999 0.10543 0.0
C674 C 0.49378 0.39902 0.11016 0.0
C675 C 0.49487 0.41734 0.05005 0.0
C676 C 0.52537 0.41951 0.01522 0.0
H677 H 0.33379 0.52317 0.85715 0.0
H678 H 0.36679 0.4779 0.90593 0.0
C679 C 0.55472 0.40613 0.04279 0.0
C680 C 0.46594 0.43867 0.02976 0.0
H681 H 0.38081 0.44019 0.01381 0.0
C682 C 0.47192 0.47283 0.01759 0.0
C683 C 0.43269 0.42657 0.02666 0.0
C684 C 0.42457 0.38985 0.0339 0.0
C685 C 0.44585 0.49525 0.00336 0.0
C686 C 0.4124 0.4836 0.00462 0.0
C687 C 0.40632 0.44931 0.01516 0.0
C688 C 0.3841 0.5065 -0.0112 0.0
C689 C 0.45471 0.53105 -0.01477 0.0
C690 C 0.38002 0.53648 0.02294 0.0
C691 C 0.36163 0.56285 -0.00564 0.0
C692 C 0.34654 0.55919 0.93206 0.0
C693 C 0.34559 0.52713 0.90461 0.0
C694 C 0.36463 0.50108 0.93238 0.0
H695 H 0.48126 0.53351 0.96949 0.0
H696 H 0.43868 0.54091 0.94435 0.0
H697 H 0.45104 0.54687 0.02911 0.0
H698 H 0.39378 0.54067 0.06818 0.0
H699 H 0.36223 0.58702 0.01752 0.0
loop_
_geom_bond_atom_site_label_1
_geom_bond_atom_site_label_2
_geom_bond_distance
_geom_bond_site_symmetry_2
_ccdc_geom_bond_type
C0 O27 1.312 . S
C0 O28 1.208 . S
C1 O22 1.346 . S
C1 O25 1.244 . S
C2 O24 1.264 . S
C2 O26 1.273 1_554 S
Mg3 O5 1.936 . S
Mg3 O12 2.081 . S
Mg3 O14 2.023 1_554 S
Mg3 O18 2.031 . S
Mg3 O27 2.291 . S
Mg4 O5 1.963 1_556 S
Mg4 O15 1.942 1_556 S
Mg4 O16 1.955 . S
Mg4 O23 1.986 . S
O5 Mg3 1.936 . S
O5 Mg4 1.963 1_554 S
O5 Mg6 1.915 1_554 S
Mg6 O5 1.915 1_556 S
Mg6 O7 1.915 . S
Mg6 O11 2.013 . S
Mg6 O17 2.114 1_556 S
Mg6 O21 2.013 . S
Mg6 O27 2.114 1_556 S
O7 Mg6 1.915 . S
O7 Mg8 1.936 1_556 S
O7 Mg9 1.963 . S
Mg8 O7 1.936 1_554 S
Mg8 O17 2.291 . S
Mg8 O22 2.071 1_554 S
Mg8 O24 2.023 . S
Mg8 O28 2.031 . S
Mg9 O7 1.963 . S
Mg9 O13 1.986 . S
Mg9 O25 1.942 . S
Mg9 O26 1.955 . S
C10 O21 1.191 . S
C10 O23 1.307 . S
O11 Mg6 2.013 . S
O11 C30 1.191 . S
O12 Mg3 2.081 . S
O12 C20 1.331 . S
O13 Mg9 1.986 . S
O13 C30 1.307 . S
O14 Mg3 2.023 1_556 S
O14 C29 1.264 . S
O15 Mg4 1.942 1_554 S
O15 C20 1.244 . S
O16 Mg4 1.955 . S
O16 C29 1.273 . S
O17 Mg6 2.114 1_554 S
O17 Mg8 2.291 . S
O17 C19 1.312 . S
O18 Mg3 2.031 . S
O18 C19 1.208 . S
C19 O17 1.312 . S
C19 O18 1.208 . S
C20 O12 1.331 . S
C20 O15 1.244 . S
O21 Mg6 2.013 . S
O21 C10 1.191 . S
O22 C1 1.346 . S
O22 Mg8 2.071 1_556 S
O23 Mg4 1.986 . S
O23 C10 1.307 . S
O24 C2 1.264 . S
O24 Mg8 2.023 . S
O25 C1 1.244 . S
O25 Mg9 1.942 . S
O26 C2 1.273 1_556 S
O26 Mg9 1.955 . S
O27 C0 1.312 . S
O27 Mg3 2.291 . S
O27 Mg6 2.114 1_554 S
O28 C0 1.208 . S
O28 Mg8 2.031 . S
C29 O14 1.264 . S
C29 O16 1.273 . S
C30 O11 1.191 . S
C30 O13 1.307 . S
C31 O58 1.312 . S
C31 O59 1.208 . S
C32 O53 1.331 . S
C32 O56 1.244 . S
C33 O55 1.264 . S
C33 O57 1.273 . S
Mg34 O36 1.936 . S
Mg34 O43 2.081 . S
Mg34 O45 2.023 . S
Mg34 O49 2.031 . S
Mg34 O58 2.291 . S
Mg35 O36 1.963 . S
Mg35 O46 1.942 . S
Mg35 O47 1.955 . S
Mg35 O54 1.986 . S
O36 Mg34 1.936 . S
O36 Mg35 1.963 . S
O36 Mg37 1.915 . S
Mg37 O36 1.915 . S
Mg37 O38 1.915 . S
Mg37 O42 2.013 . S
Mg37 O48 2.114 . S
Mg37 O52 2.013 . S
Mg37 O58 2.114 . S
O38 Mg37 1.915 . S
O38 Mg39 1.936 . S
O38 Mg40 1.963 . S
Mg39 O38 1.936 . S
Mg39 O48 2.291 . S
Mg39 O53 2.081 . S
Mg39 O55 2.023 . S
Mg39 O59 2.031 . S
Mg40 O38 1.963 . S
Mg40 O44 1.986 . S
Mg40 O56 1.942 . S
Mg40 O57 1.955 . S
C41 O52 1.191 . S
C41 O54 1.307 . S
O42 Mg37 2.013 . S
O42 C61 1.191 . S
O43 Mg34 2.081 . S
O43 C51 1.331 . S
O44 Mg40 1.986 . S
O44 C61 1.307 . S
O45 Mg34 2.023 . S
O45 C60 1.264 . S
O46 Mg35 1.942 . S
O46 C51 1.244 . S
O47 Mg35 1.955 . S
O47 C60 1.273 . S
O48 Mg37 2.114 . S
O48 Mg39 2.291 . S
O48 C50 1.312 . S
O49 Mg34 2.031 . S
O49 C50 1.208 . S
C50 O48 1.312 . S
C50 O49 1.208 . S
C51 O43 1.331 . S
C51 O46 1.244 . S
O52 Mg37 2.013 . S
O52 C41 1.191 . S
O53 C32 1.331 . S
O53 Mg39 2.081 . S
O54 Mg35 1.986 . S
O54 C41 1.307 . S
O55 C33 1.264 . S
O55 Mg39 2.023 . S
O56 C32 1.244 . S
O56 Mg40 1.942 . S
O57 C33 1.273 . S
O57 Mg40 1.955 . S
O58 C31 1.312 . S
O58 Mg34 2.291 . S
O58 Mg37 2.114 . S
O59 C31 1.208 . S
O59 Mg39 2.031 . S
C60 O45 1.264 . S
C60 O47 1.273 . S
C61 O42 1.191 . S
C61 O44 1.307 . S
C62 O89 1.312 . S
C62 O90 1.208 . S
C63 O84 1.331 . S
C63 O87 1.244 . S
C64 O86 1.264 . S
C64 O88 1.273 . S
Mg65 O67 1.936 . S
Mg65 O74 2.081 . S
Mg65 O76 2.023 . S
Mg65 O80 2.031 . S
Mg65 O89 2.291 . S
Mg66 O67 1.963 . S
Mg66 O77 1.942 . S
Mg66 O78 1.955 . S
Mg66 O85 1.986 . S
O67 Mg65 1.936 . S
O67 Mg66 1.963 . S
O67 Mg68 1.915 . S
Mg68 O67 1.915 . S
Mg68 O69 1.915 . S
Mg68 O73 2.013 . S
Mg68 O79 2.114 . S
Mg68 O83 2.013 . S
Mg68 O89 2.114 . S
O69 Mg68 1.915 . S
O69 Mg70 1.936 . S
O69 Mg71 1.963 . S
Mg70 O69 1.936 . S
Mg70 O79 2.291 . S
Mg70 O84 2.081 . S
Mg70 O86 2.023 . S
Mg70 O90 2.031 . S
Mg71 O69 1.963 . S
Mg71 O75 1.986 . S
Mg71 O87 1.942 . S
Mg71 O88 1.955 . S
C72 O83 1.191 . S
C72 O85 1.307 . S
O73 Mg68 2.013 . S
O73 C92 1.191 . S
O74 Mg65 2.081 . S
O74 C82 1.331 . S
O75 Mg71 1.986 . S
O75 C92 1.307 . S
O76 Mg65 2.023 . S
O76 C91 1.264 . S
O77 Mg66 1.942 . S
O77 C82 1.244 . S
O78 Mg66 1.955 . S
O78 C91 1.273 . S
O79 Mg68 2.114 . S
O79 Mg70 2.291 . S
O79 C81 1.312 . S
O80 Mg65 2.031 . S
O80 C81 1.208 . S
C81 O79 1.312 . S
C81 O80 1.208 . S
C82 O74 1.331 . S
C82 O77 1.244 . S
O83 Mg68 2.013 . S
O83 C72 1.191 . S
O84 C63 1.331 . S
O84 Mg70 2.081 . S
O85 Mg66 1.986 . S
O85 C72 1.307 . S
O86 C64 1.264 . S
O86 Mg70 2.023 . S
O87 C63 1.244 . S
O87 Mg71 1.942 . S
O88 C64 1.273 . S
O88 Mg71 1.955 . S
O89 C62 1.312 . S
O89 Mg65 2.291 . S
O89 Mg68 2.114 . S
O90 C62 1.208 . S
O90 Mg70 2.031 . S
C91 O76 1.264 . S
C91 O78 1.273 . S
C92 O73 1.191 . S
C92 O75 1.307 . S
C93 O120 1.312 . S
C93 O121 1.208 . S
C94 O115 1.331 . S
C94 O118 1.244 . S
C95 O117 1.264 . S
C95 O119 1.273 . S
Mg96 O98 1.936 . S
Mg96 O105 2.081 . S
Mg96 O107 2.023 . S
Mg96 O111 2.031 . S
Mg96 O120 2.291 . S
Mg97 O98 1.963 . S
Mg97 O108 1.942 . S
Mg97 O109 1.955 . S
Mg97 O116 1.986 . S
O98 Mg96 1.936 . S
O98 Mg97 1.963 . S
O98 Mg99 1.915 . S
Mg99 O98 1.915 . S
Mg99 O100 1.915 . S
Mg99 O104 2.013 . S
Mg99 O110 2.114 . S
Mg99 O114 2.013 . S
Mg99 O120 2.114 . S
O100 Mg99 1.915 . S
O100 Mg101 1.936 . S
O100 Mg102 1.963 . S
Mg101 O100 1.936 . S
Mg101 O110 2.291 . S
Mg101 O115 2.081 . S
Mg101 O117 2.023 . S
Mg101 O121 2.031 . S
Mg102 O100 1.963 . S
Mg102 O106 1.986 . S
Mg102 O118 1.942 . S
Mg102 O119 1.955 . S
C103 O114 1.191 . S
C103 O116 1.307 . S
O104 Mg99 2.013 . S
O104 C123 1.191 . S
O105 Mg96 2.081 . S
O105 C113 1.331 . S
O106 Mg102 1.986 . S
O106 C123 1.307 . S
O107 Mg96 2.023 . S
O107 C122 1.264 . S
O108 Mg97 1.942 . S
O108 C113 1.244 . S
O109 Mg97 1.955 . S
O109 C122 1.273 . S
O110 Mg99 2.114 . S
O110 Mg101 2.291 . S
O110 C112 1.312 . S
O111 Mg96 2.031 . S
O111 C112 1.208 . S
C112 O110 1.312 . S
C112 O111 1.208 . S
C113 O105 1.331 . S
C113 O108 1.244 . S
O114 Mg99 2.013 . S
O114 C103 1.191 . S
O115 C94 1.331 . S
O115 Mg101 2.081 . S
O116 Mg97 1.986 . S
O116 C103 1.307 . S
O117 C95 1.264 . S
O117 Mg101 2.023 . S
O118 C94 1.244 . S
O118 Mg102 1.942 . S
O119 C95 1.273 . S
O119 Mg102 1.955 . S
O120 C93 1.312 . S
O120 Mg96 2.291 . S
O120 Mg99 2.114 . S
O121 C93 1.208 . S
O121 Mg101 2.031 . S
C122 O107 1.264 . S
C122 O109 1.273 . S
C123 O104 1.191 . S
C123 O106 1.307 . S
H124 C132 0.929 . S
H125 C134 0.930 . S
H126 C136 0.930 . S
H127 C139 0.929 . S
H128 C142 0.930 . S
H129 C144 0.960 . S
H130 C144 0.960 . S
H131 C144 0.960 . S
C132 H124 0.929 . S
C132 C133 1.377 . S
C132 C134 1.384 . S
C133 C132 1.377 . S
C133 C139 1.390 . S
C134 H125 0.930 . S
C134 C132 1.384 . S
C134 C135 1.372 . S
C135 C134 1.372 . S
C135 C136 1.400 . S
C135 C140 1.490 . S
C136 H126 0.930 . S
C136 C135 1.400 . S
C136 C139 1.386 . S
H137 C153 0.930 . S
H138 C154 0.931 . S
C139 H127 0.929 . S
C139 C133 1.390 . S
C139 C136 1.386 . S
C140 C135 1.490 . S
C140 C142 1.395 . S
C140 C143 1.403 . S
H141 C147 0.930 . S
C142 H128 0.930 . S
C142 C140 1.395 . S
C142 C145 1.403 . S
C143 C140 1.403 . S
C143 C144 1.524 . S
C143 C147 1.400 . S
C144 H129 0.960 . S
C144 H130 0.960 . S
C144 H131 0.960 . S
C144 C143 1.524 . S
C145 C142 1.403 . S
C145 C146 1.392 . S
C145 C149 1.495 . S
C146 C145 1.392 . S
C146 C147 1.385 . S
C146 C148 1.478 . S
C147 H141 0.930 . S
C147 C143 1.400 . S
C147 C146 1.385 . S
C148 C146 1.478 . S
C148 C150 1.381 . S
C148 C154 1.383 . S
C149 C145 1.495 . S
C149 H155 0.959 . S
C149 H156 0.961 . S
C149 H157 0.960 . S
C150 C148 1.381 . S
C150 C151 1.394 . S
C150 H158 0.930 . S
C151 C150 1.394 . S
C151 C152 1.383 . S
C151 H159 0.929 . S
C152 C151 1.383 . S
C152 C153 1.377 . S
C153 H137 0.930 . S
C153 C152 1.377 . S
C153 C154 1.379 . S
C154 H138 0.931 . S
C154 C148 1.383 . S
C154 C153 1.379 . S
H155 C149 0.959 . S
H156 C149 0.961 . S
H157 C149 0.960 . S
H158 C150 0.930 . S
H159 C151 0.929 . S
H160 C168 0.929 . S
H161 C170 0.930 . S
H162 C172 0.930 . S
H163 C175 0.929 . S
H164 C178 0.930 . S
H165 C180 0.960 . S
H166 C180 0.960 . S
H167 C180 0.960 . S
C168 H160 0.929 . S
C168 C169 1.377 . S
C168 C170 1.384 . S
C169 C168 1.377 . S
C169 C175 1.390 . S
C170 H161 0.930 . S
C170 C168 1.384 . S
C170 C171 1.372 . S
C171 C170 1.372 . S
C171 C172 1.400 . S
C171 C176 1.490 . S
C172 H162 0.930 . S
C172 C171 1.400 . S
C172 C175 1.386 . S
H173 C189 0.932 . S
H174 C190 0.931 . S
C175 H163 0.929 . S
C175 C169 1.390 . S
C175 C172 1.386 . S
C176 C171 1.490 . S
C176 C178 1.395 . S
C176 C179 1.403 . S
H177 C183 0.930 . S
C178 H164 0.930 . S
C178 C176 1.395 . S
C178 C181 1.403 . S
C179 C176 1.403 . S
C179 C180 1.524 . S
C179 C183 1.400 . S
C180 H165 0.960 . S
C180 H166 0.960 . S
C180 H167 0.960 . S
C180 C179 1.524 . S
C181 C178 1.403 . S
C181 C182 1.392 . S
C181 C185 1.495 . S
C182 C181 1.392 . S
C182 C183 1.385 . S
C182 C184 1.478 . S
C183 H177 0.930 . S
C183 C179 1.400 . S
C183 C182 1.385 . S
C184 C182 1.478 . S
C184 C186 1.381 . S
C184 C190 1.383 . S
C185 C181 1.495 . S
C185 H191 0.959 . S
C185 H192 0.961 . S
C185 H193 0.960 . S
C186 C184 1.381 . S
C186 C187 1.394 1_556 S
C186 H194 0.930 . S
C187 C186 1.394 1_554 S
C187 C188 1.383 . S
C187 H195 0.929 . S
C188 C187 1.383 . S
C188 C189 1.380 . S
C189 H173 0.932 . S
C189 C188 1.380 . S
C189 C190 1.374 1_554 S
C190 H174 0.931 . S
C190 C184 1.383 . S
C190 C189 1.374 1_556 S
H191 C185 0.959 . S
H192 C185 0.961 . S
H193 C185 0.960 . S
H194 C186 0.930 . S
H195 C187 0.929 . S
H196 C204 0.929 . S
H197 C206 0.930 . S
H198 C208 0.930 . S
H199 C211 0.929 . S
H200 C214 0.930 . S
H201 C216 0.960 . S
H202 C216 0.960 . S
H203 C216 0.960 . S
C204 H196 0.929 . S
C204 C205 1.377 . S
C204 C206 1.384 . S
C205 C204 1.377 . S
C205 C211 1.390 . S
C206 H197 0.930 . S
C206 C204 1.384 . S
C206 C207 1.372 . S
C207 C206 1.372 . S
C207 C208 1.400 . S
C207 C212 1.490 . S
C208 H198 0.930 . S
C208 C207 1.400 . S
C208 C211 1.386 . S
H209 C225 0.930 . S
H210 C226 0.931 . S
C211 H199 0.929 . S
C211 C205 1.390 . S
C211 C208 1.386 . S
C212 C207 1.490 . S
C212 C214 1.395 . S
C212 C215 1.403 . S
H213 C219 0.930 . S
C214 H200 0.930 . S
C214 C212 1.395 . S
C214 C217 1.403 1_556 S
C215 C212 1.403 . S
C215 C216 1.524 . S
C215 C219 1.400 1_556 S
C216 H201 0.960 . S
C216 H202 0.960 . S
C216 H203 0.960 . S
C216 C215 1.524 . S
C217 C214 1.403 1_554 S
C217 C218 1.392 . S
C217 C221 1.495 . S
C218 C217 1.392 . S
C218 C219 1.385 . S
C218 C220 1.478 . S
C219 H213 0.930 . S
C219 C215 1.400 1_554 S
C219 C218 1.385 . S
C220 C218 1.478 . S
C220 C222 1.381 . S
C220 C226 1.383 . S
C221 C217 1.495 . S
C221 H227 0.959 . S
C221 H228 0.961 . S
C221 H229 0.960 . S
C222 C220 1.381 . S
C222 C223 1.394 . S
C222 H230 0.930 . S
C223 C222 1.394 . S
C223 C224 1.383 . S
C223 H231 0.929 . S
C224 C223 1.383 . S
C224 C225 1.377 . S
C225 H209 0.930 . S
C225 C224 1.377 . S
C225 C226 1.379 . S
C226 H210 0.931 . S
C226 C220 1.383 . S
C226 C225 1.379 . S
H227 C221 0.959 . S
H228 C221 0.961 . S
H229 C221 0.960 . S
H230 C222 0.930 . S
H231 C223 0.929 . S
H232 C240 0.929 1_556 S
H233 C242 0.930 . S
H234 C244 0.930 . S
H235 C247 0.929 1_556 S
H236 C250 0.930 . S
H237 C252 0.960 . S
H238 C252 0.960 . S
H239 C252 0.960 . S
C240 H232 0.929 1_554 S
C240 C241 1.377 1_554 S
C240 C242 1.384 . S
C241 C240 1.377 1_556 S
C241 C247 1.390 1_556 S
C242 H233 0.930 . S
C242 C240 1.384 . S
C242 C243 1.372 . S
C243 C242 1.372 . S
C243 C244 1.400 . S
C243 C248 1.490 . S
C244 H234 0.930 . S
C244 C243 1.400 . S
C244 C247 1.386 . S
H245 C261 0.930 . S
H246 C262 0.931 . S
C247 H235 0.929 1_554 S
C247 C241 1.390 1_554 S
C247 C244 1.386 . S
C248 C243 1.490 . S
C248 C250 1.395 . S
C248 C251 1.403 . S
H249 C255 0.930 . S
C250 H236 0.930 . S
C250 C248 1.395 . S
C250 C253 1.403 . S
C251 C248 1.403 . S
C251 C252 1.524 . S
C251 C255 1.400 . S
C252 H237 0.960 . S
C252 H238 0.960 . S
C252 H239 0.960 . S
C252 C251 1.524 . S
C253 C250 1.403 . S
C253 C254 1.392 . S
C253 C257 1.495 . S
C254 C253 1.392 . S
C254 C255 1.385 . S
C254 C256 1.478 . S
C255 H249 0.930 . S
C255 C251 1.400 . S
C255 C254 1.385 . S
C256 C254 1.478 . S
C256 C258 1.381 . S
C256 C262 1.383 . S
C257 C253 1.495 . S
C257 H263 0.959 . S
C257 H264 0.961 . S
C257 H265 0.960 . S
C258 C256 1.381 . S
C258 C259 1.394 . S
C258 H266 0.930 . S
C259 C258 1.394 . S
C259 C260 1.383 . S
C259 H267 0.929 . S
C260 C259 1.383 . S
C260 C261 1.377 . S
C261 H245 0.930 . S
C261 C260 1.377 . S
C261 C262 1.379 . S
C262 H246 0.931 . S
C262 C256 1.383 . S
C262 C261 1.379 . S
H263 C257 0.959 . S
H264 C257 0.961 . S
H265 C257 0.960 . S
H266 C258 0.930 . S
H267 C259 0.929 . S
H268 C276 0.929 . S
H269 C278 0.930 . S
H270 C280 0.930 . S
H271 C283 0.929 . S
H272 C286 0.930 . S
H273 C288 0.960 . S
H274 C288 0.960 . S
H275 C288 0.960 . S
C276 H268 0.929 . S
C276 C277 1.377 . S
C276 C278 1.384 . S
C277 C276 1.377 . S
C277 C283 1.390 . S
C278 H269 0.930 . S
C278 C276 1.384 . S
C278 C279 1.372 . S
C279 C278 1.372 . S
C279 C280 1.400 . S
C279 C284 1.490 . S
C280 H270 0.930 . S
C280 C279 1.400 . S
C280 C283 1.386 . S
H281 C297 0.930 . S
H282 C298 0.931 . S
C283 H271 0.929 . S
C283 C277 1.390 . S
C283 C280 1.386 . S
C284 C279 1.490 . S
C284 C286 1.395 . S
C284 C287 1.403 . S
H285 C291 0.930 . S
C286 H272 0.930 . S
C286 C284 1.395 . S
C286 C289 1.403 . S
C287 C284 1.403 . S
C287 C288 1.524 . S
C287 C291 1.400 . S
C288 H273 0.960 . S
C288 H274 0.960 . S
C288 H275 0.960 . S
C288 C287 1.524 . S
C289 C286 1.403 . S
C289 C290 1.392 . S
C289 C293 1.495 . S
C290 C289 1.392 . S
C290 C291 1.385 . S
C290 C292 1.478 . S
C291 H285 0.930 . S
C291 C287 1.400 . S
C291 C290 1.385 . S
C292 C290 1.478 . S
C292 C294 1.381 . S
C292 C298 1.383 . S
C293 C289 1.495 . S
C293 H299 0.959 . S
C293 H300 0.961 . S
C293 H301 0.960 . S
C294 C292 1.381 . S
C294 C295 1.394 . S
C294 H302 0.930 . S
C295 C294 1.394 . S
C295 C296 1.383 . S
C295 H303 0.929 . S
C296 C295 1.383 . S
C296 C297 1.377 . S
C297 H281 0.930 . S
C297 C296 1.377 . S
C297 C298 1.379 . S
C298 H282 0.931 . S
C298 C292 1.383 . S
C298 C297 1.379 . S
H299 C293 0.959 . S
H300 C293 0.961 . S
H301 C293 0.960 . S
H302 C294 0.930 . S
H303 C295 0.929 . S
H304 C312 0.929 . S
H305 C314 0.930 . S
H306 C316 0.930 . S
H307 C319 0.929 . S
H308 C322 0.930 . S
H309 C324 0.960 . S
H310 C324 0.960 . S
H311 C324 0.960 . S
C312 H304 0.929 . S
C312 C313 1.377 . S
C312 C314 1.384 . S
C313 C312 1.377 . S
C313 C319 1.390 . S
C314 H305 0.930 . S
C314 C312 1.384 . S
C314 C315 1.372 . S
C315 C314 1.372 . S
C315 C316 1.400 . S
C315 C320 1.490 . S
C316 H306 0.930 . S
C316 C315 1.400 . S
C316 C319 1.386 . S
H317 C333 0.930 . S
H318 C334 0.931 1_545 S
C319 H307 0.929 . S
C319 C313 1.390 . S
C319 C316 1.386 . S
C320 C315 1.490 . S
C320 C322 1.395 . S
C320 C323 1.403 . S
H321 C327 0.930 . S
C322 H308 0.930 . S
C322 C320 1.395 . S
C322 C325 1.403 . S
C323 C320 1.403 . S
C323 C324 1.524 . S
C323 C327 1.400 . S
C324 H309 0.960 . S
C324 H310 0.960 . S
C324 H311 0.960 . S
C324 C323 1.524 . S
C325 C322 1.403 . S
C325 C326 1.392 . S
C325 C329 1.495 . S
C326 C325 1.392 . S
C326 C327 1.385 . S
C326 C328 1.478 1_545 S
C327 H321 0.930 . S
C327 C323 1.400 . S
C327 C326 1.385 . S
C328 C326 1.478 1_565 S
C328 C330 1.381 . S
C328 C334 1.383 1_554 S
C329 C325 1.495 . S
C329 H335 0.959 . S
C329 H336 0.961 . S
C329 H337 0.958 1_545 S
C330 C328 1.381 . S
C330 C331 1.394 . S
C330 H338 0.930 . S
C331 C330 1.394 . S
C331 C332 1.383 . S
C331 H339 0.929 . S
C332 C331 1.383 . S
C332 C333 1.377 1_554 S
C333 H317 0.930 . S
C333 C332 1.377 1_556 S
C333 C334 1.379 . S
C334 H318 0.931 1_565 S
C334 C328 1.383 1_556 S
C334 C333 1.379 . S
H335 C329 0.959 . S
H336 C329 0.961 . S
H337 C329 0.958 1_565 S
H338 C330 0.930 . S
H339 C331 0.929 . S
H340 C348 0.929 . S
H341 C350 0.930 . S
H342 C352 0.930 . S
H343 C355 0.929 . S
H344 C358 0.930 . S
H345 C360 0.960 . S
H346 C360 0.960 . S
H347 C360 0.960 . S
C348 H340 0.929 . S
C348 C349 1.377 . S
C348 C350 1.384 . S
C349 C348 1.377 . S
C349 C355 1.390 . S
C350 H341 0.930 . S
C350 C348 1.384 . S
C350 C351 1.372 . S
C351 C350 1.372 . S
C351 C352 1.400 . S
C351 C356 1.490 . S
C352 H342 0.930 . S
C352 C351 1.400 . S
C352 C355 1.386 . S
H353 C369 0.930 . S
H354 C370 0.931 . S
C355 H343 0.929 . S
C355 C349 1.390 . S
C355 C352 1.386 . S
C356 C351 1.490 . S
C356 C358 1.395 . S
C356 C359 1.403 . S
H357 C363 0.930 . S
C358 H344 0.930 . S
C358 C356 1.395 . S
C358 C361 1.403 . S
C359 C356 1.403 . S
C359 C360 1.524 . S
C359 C363 1.400 . S
C360 H345 0.960 . S
C360 H346 0.960 . S
C360 H347 0.960 . S
C360 C359 1.524 . S
C361 C358 1.403 . S
C361 C362 1.392 . S
C361 C365 1.495 . S
C362 C361 1.392 . S
C362 C363 1.385 . S
C362 C364 1.478 . S
C363 H357 0.930 . S
C363 C359 1.400 . S
C363 C362 1.385 . S
C364 C362 1.478 . S
C364 C366 1.381 . S
C364 C370 1.383 . S
C365 C361 1.495 . S
C365 H371 0.959 . S
C365 H372 0.961 . S
C365 H373 0.960 . S
C366 C364 1.381 . S
C366 C367 1.394 . S
C366 H374 0.930 . S
C367 C366 1.394 . S
C367 C368 1.383 . S
C367 H375 0.929 . S
C368 C367 1.383 . S
C368 C369 1.377 . S
C369 H353 0.930 . S
C369 C368 1.377 . S
C369 C370 1.379 . S
C370 H354 0.931 . S
C370 C364 1.383 . S
C370 C369 1.379 . S
H371 C365 0.959 . S
H372 C365 0.961 . S
H373 C365 0.960 . S
H374 C366 0.930 . S
H375 C367 0.929 . S
H376 C384 0.929 . S
H377 C386 0.930 . S
H378 C388 0.930 . S
H379 C391 0.929 . S
H380 C394 0.930 . S
H381 C396 0.960 . S
H382 C396 0.960 . S
H383 C396 0.960 . S
C384 H376 0.929 . S
C384 C385 1.377 . S
C384 C386 1.384 . S
C385 C384 1.377 . S
C385 C391 1.390 . S
C386 H377 0.930 . S
C386 C384 1.384 . S
C386 C387 1.372 . S
C387 C386 1.372 . S
C387 C388 1.400 . S
C387 C392 1.490 . S
C388 H378 0.930 . S
C388 C387 1.400 . S
C388 C391 1.386 . S
H389 C405 0.930 . S
H390 C406 0.931 . S
C391 H379 0.929 . S
C391 C385 1.390 . S
C391 C388 1.386 . S
C392 C387 1.490 . S
C392 C394 1.395 . S
C392 C395 1.403 . S
H393 C399 0.930 . S
C394 H380 0.930 . S
C394 C392 1.395 . S
C394 C397 1.403 . S
C395 C392 1.403 . S
C395 C396 1.524 . S
C395 C399 1.400 . S
C396 H381 0.960 . S
C396 H382 0.960 . S
C396 H383 0.960 . S
C396 C395 1.524 . S
C397 C394 1.403 . S
C397 C398 1.392 . S
C397 C401 1.495 . S
C398 C397 1.392 . S
C398 C399 1.385 . S
C398 C400 1.478 . S
C399 H393 0.930 . S
C399 C395 1.400 . S
C399 C398 1.385 . S
C400 C398 1.478 . S
C400 C402 1.381 1_565 S
C400 C406 1.383 1_565 S
C401 C397 1.495 . S
C401 H407 0.959 . S
C401 H408 0.961 . S
C401 H409 0.960 . S
C402 C400 1.381 1_545 S
C402 C403 1.394 . S
C402 H410 0.930 1_545 S
C403 C402 1.394 . S
C403 C404 1.383 . S
C403 H411 0.929 . S
C404 C403 1.383 . S
C404 C405 1.377 . S
C405 H389 0.930 . S
C405 C404 1.377 . S
C405 C406 1.379 . S
C406 H390 0.931 . S
C406 C400 1.383 1_545 S
C406 C405 1.379 . S
H407 C401 0.959 . S
H408 C401 0.961 . S
H409 C401 0.960 . S
H410 C402 0.930 1_565 S
H411 C403 0.929 . S
H412 C420 0.929 . S
H413 C422 0.930 1_554 S
H414 C424 0.927 1_455 S
H415 C427 0.929 . S
H416 C430 0.930 . S
H417 C432 0.962 . S
H418 C432 0.960 1_554 S
H419 C432 0.960 . S
C420 H412 0.929 . S
C420 C421 1.377 1_554 S
C420 C422 1.384 1_554 S
C421 C420 1.377 1_556 S
C421 C427 1.390 . S
C422 H413 0.930 1_556 S
C422 C420 1.384 1_556 S
C422 C423 1.370 . S
C423 C422 1.370 . S
C423 C424 1.398 . S
C423 C428 1.493 1_655 S
C424 H414 0.927 1_655 S
C424 C423 1.398 . S
C424 C427 1.386 . S
H425 C441 0.930 . S
H426 C442 0.931 . S
C427 H415 0.929 . S
C427 C421 1.390 . S
C427 C424 1.386 . S
C428 C423 1.493 1_455 S
C428 C430 1.395 . S
C428 C431 1.403 . S
H429 C435 0.930 . S
C430 H416 0.930 . S
C430 C428 1.395 . S
C430 C433 1.403 . S
C431 C428 1.403 . S
C431 C432 1.524 . S
C431 C435 1.400 . S
C432 H417 0.962 . S
C432 H418 0.960 1_556 S
C432 H419 0.960 . S
C432 C431 1.524 . S
C433 C430 1.403 . S
C433 C434 1.392 . S
C433 C437 1.495 . S
C434 C433 1.392 . S
C434 C435 1.385 . S
C434 C436 1.478 . S
C435 H429 0.930 . S
C435 C431 1.400 . S
C435 C434 1.385 . S
C436 C434 1.478 . S
C436 C438 1.381 . S
C436 C442 1.383 . S
C437 C433 1.495 . S
C437 H443 0.959 . S
C437 H444 0.961 . S
C437 H445 0.960 . S
C438 C436 1.381 . S
C438 C439 1.394 . S
C438 H446 0.930 . S
C439 C438 1.394 . S
C439 C440 1.383 . S
C439 H447 0.929 . S
C440 C439 1.383 . S
C440 C441 1.377 . S
C441 H425 0.930 . S
C441 C440 1.377 . S
C441 C442 1.379 . S
C442 H426 0.931 . S
C442 C436 1.383 . S
C442 C441 1.379 . S
H443 C437 0.959 . S
H444 C437 0.961 . S
H445 C437 0.960 . S
H446 C438 0.930 . S
H447 C439 0.929 . S
H448 C456 0.929 . S
H449 C458 0.930 . S
H450 C460 0.930 . S
H451 C463 0.929 . S
H452 C466 0.930 . S
H453 C468 0.960 . S
H454 C468 0.960 . S
H455 C468 0.960 . S
C456 H448 0.929 . S
C456 C457 1.377 . S
C456 C458 1.384 . S
C457 C456 1.377 . S
C457 C463 1.390 . S
C458 H449 0.930 . S
C458 C456 1.384 . S
C458 C459 1.372 . S
C459 C458 1.372 . S
C459 C460 1.400 . S
C459 C464 1.490 . S
C460 H450 0.930 . S
C460 C459 1.400 . S
C460 C463 1.386 . S
H461 C477 0.930 . S
H462 C478 0.931 . S
C463 H451 0.929 . S
C463 C457 1.390 . S
C463 C460 1.386 . S
C464 C459 1.490 . S
C464 C466 1.395 . S
C464 C467 1.403 . S
H465 C471 0.930 . S
C466 H452 0.930 . S
C466 C464 1.395 . S
C466 C469 1.403 . S
C467 C464 1.403 . S
C467 C468 1.524 . S
C467 C471 1.400 . S
C468 H453 0.960 . S
C468 H454 0.960 . S
C468 H455 0.960 . S
C468 C467 1.524 . S
C469 C466 1.403 . S
C469 C470 1.392 . S
C469 C473 1.495 . S
C470 C469 1.392 . S
C470 C471 1.385 . S
C470 C472 1.478 . S
C471 H465 0.930 . S
C471 C467 1.400 . S
C471 C470 1.385 . S
C472 C470 1.478 . S
C472 C474 1.381 . S
C472 C478 1.383 . S
C473 C469 1.495 . S
C473 H479 0.959 . S
C473 H480 0.961 1_554 S
C473 H481 0.960 . S
C474 C472 1.381 . S
C474 C475 1.394 . S
C474 H482 0.930 . S
C475 C474 1.394 . S
C475 C476 1.383 . S
C475 H483 0.929 . S
C476 C475 1.383 . S
C476 C477 1.377 . S
C477 H461 0.930 . S
C477 C476 1.377 . S
C477 C478 1.379 . S
C478 H462 0.931 . S
C478 C472 1.383 . S
C478 C477 1.379 . S
H479 C473 0.959 . S
H480 C473 0.961 1_556 S
H481 C473 0.960 . S
H482 C474 0.930 . S
H483 C475 0.929 . S
H484 C492 0.929 . S
H485 C494 0.930 . S
H486 C496 0.930 . S
H487 C499 0.929 . S
H488 C502 0.930 . S
H489 C504 0.960 . S
H490 C504 0.960 . S
H491 C504 0.960 . S
C492 H484 0.929 . S
C492 C493 1.377 . S
C492 C494 1.384 . S
C493 C492 1.377 . S
C493 C499 1.390 . S
C494 H485 0.930 . S
C494 C492 1.384 . S
C494 C495 1.372 . S
C495 C494 1.372 . S
C495 C496 1.400 . S
C495 C500 1.490 . S
C496 H486 0.930 . S
C496 C495 1.400 . S
C496 C499 1.386 . S
H497 C513 0.930 . S
H498 C514 0.931 1_655 S
C499 H487 0.929 . S
C499 C493 1.390 . S
C499 C496 1.386 . S
C500 C495 1.490 . S
C500 C502 1.395 . S
C500 C503 1.403 . S
H501 C507 0.930 . S
C502 H488 0.930 . S
C502 C500 1.395 . S
C502 C505 1.403 . S
C503 C500 1.403 . S
C503 C504 1.524 . S
C503 C507 1.400 . S
C504 H489 0.960 . S
C504 H490 0.960 . S
C504 H491 0.960 . S
C504 C503 1.524 . S
C505 C502 1.403 . S
C505 C506 1.392 . S
C505 C509 1.495 . S
C506 C505 1.392 . S
C506 C507 1.385 . S
C506 C508 1.478 . S
C507 H501 0.930 . S
C507 C503 1.400 . S
C507 C506 1.385 . S
C508 C506 1.478 . S
C508 C510 1.381 1_655 S
C508 C514 1.383 1_655 S
C509 C505 1.495 . S
C509 H515 0.959 . S
C509 H516 0.961 . S
C509 H517 0.960 . S
C510 C508 1.381 1_455 S
C510 C511 1.394 . S
C510 H518 0.930 . S
C511 C510 1.394 . S
C511 C512 1.383 . S
C511 H519 0.929 . S
C512 C511 1.383 . S
C512 C513 1.377 . S
C513 H497 0.930 . S
C513 C512 1.377 . S
C513 C514 1.379 . S
C514 H498 0.931 1_455 S
C514 C508 1.383 1_455 S
C514 C513 1.379 . S
H515 C509 0.959 . S
H516 C509 0.961 . S
H517 C509 0.960 . S
H518 C510 0.930 . S
H519 C511 0.929 . S
H520 C528 0.929 . S
H521 C530 0.930 . S
H522 C532 0.930 . S
H523 C535 0.929 . S
H524 C538 0.930 . S
H525 C540 0.960 . S
H526 C540 0.960 . S
H527 C540 0.960 . S
C528 H520 0.929 . S
C528 C529 1.377 . S
C528 C530 1.384 . S
C529 C528 1.377 . S
C529 C535 1.390 . S
C530 H521 0.930 . S
C530 C528 1.384 . S
C530 C531 1.372 . S
C531 C530 1.372 . S
C531 C532 1.400 . S
C531 C536 1.490 . S
C532 H522 0.930 . S
C532 C531 1.400 . S
C532 C535 1.386 . S
H533 C549 0.930 . S
H534 C550 0.931 . S
C535 H523 0.929 . S
C535 C529 1.390 . S
C535 C532 1.386 . S
C536 C531 1.490 . S
C536 C538 1.395 . S
C536 C539 1.403 . S
H537 C543 0.930 . S
C538 H524 0.930 . S
C538 C536 1.395 . S
C538 C541 1.403 . S
C539 C536 1.403 . S
C539 C540 1.524 . S
C539 C543 1.400 . S
C540 H525 0.960 . S
C540 H526 0.960 . S
C540 H527 0.960 . S
C540 C539 1.524 . S
C541 C538 1.403 . S
C541 C542 1.392 . S
C541 C545 1.495 . S
C542 C541 1.392 . S
C542 C543 1.385 . S
C542 C544 1.478 . S
C543 H537 0.930 . S
C543 C539 1.400 . S
C543 C542 1.385 . S
C544 C542 1.478 . S
C544 C546 1.381 . S
C544 C550 1.383 . S
C545 C541 1.495 . S
C545 H551 0.959 . S
C545 H552 0.961 . S
C545 H553 0.960 . S
C546 C544 1.381 . S
C546 C547 1.394 . S
C546 H554 0.930 . S
C547 C546 1.394 . S
C547 C548 1.383 . S
C547 H555 0.929 . S
C548 C547 1.383 . S
C548 C549 1.377 . S
C549 H533 0.930 . S
C549 C548 1.377 . S
C549 C550 1.379 . S
C550 H534 0.931 . S
C550 C544 1.383 . S
C550 C549 1.379 . S
H551 C545 0.959 . S
H552 C545 0.961 . S
H553 C545 0.960 . S
H554 C546 0.930 . S
H555 C547 0.929 . S
H556 C564 0.929 . S
H557 C566 0.930 1_565 S
H558 C568 0.930 . S
H559 C571 0.929 . S
H560 C574 0.930 . S
H561 C576 0.960 . S
H562 C576 0.960 . S
H563 C576 0.960 . S
C564 H556 0.929 . S
C564 C565 1.377 . S
C564 C566 1.384 . S
C565 C564 1.377 . S
C565 C571 1.390 . S
C566 H557 0.930 1_545 S
C566 C564 1.384 . S
C566 C567 1.372 . S
C567 C566 1.372 . S
C567 C568 1.400 . S
C567 C572 1.490 1_545 S
C568 H558 0.930 . S
C568 C567 1.400 . S
C568 C571 1.386 . S
H569 C585 0.930 . S
H570 C586 0.931 . S
C571 H559 0.929 . S
C571 C565 1.390 . S
C571 C568 1.386 . S
C572 C567 1.490 1_565 S
C572 C574 1.395 . S
C572 C575 1.403 . S
H573 C579 0.930 . S
C574 H560 0.930 . S
C574 C572 1.395 . S
C574 C577 1.403 . S
C575 C572 1.403 . S
C575 C576 1.524 1_565 S
C575 C579 1.400 . S
C576 H561 0.960 . S
C576 H562 0.960 . S
C576 H563 0.960 . S
C576 C575 1.524 1_545 S
C577 C574 1.403 . S
C577 C578 1.392 . S
C577 C581 1.495 . S
C578 C577 1.392 . S
C578 C579 1.385 . S
C578 C580 1.478 1_455 S
C579 H573 0.930 . S
C579 C575 1.400 . S
C579 C578 1.385 . S
C580 C578 1.478 1_655 S
C580 C582 1.381 1_655 S
C580 C586 1.383 . S
C581 C577 1.495 . S
C581 H587 0.959 . S
C581 H588 0.961 . S
C581 H589 0.960 . S
C582 C580 1.381 1_455 S
C582 C583 1.394 1_455 S
C582 H590 0.930 . S
C583 C582 1.394 1_655 S
C583 C584 1.383 . S
C583 H591 0.929 . S
C584 C583 1.383 . S
C584 C585 1.377 . S
C585 H569 0.930 . S
C585 C584 1.377 . S
C585 C586 1.379 . S
C586 H570 0.931 . S
C586 C580 1.383 . S
C586 C585 1.379 . S
H587 C581 0.959 . S
H588 C581 0.961 . S
H589 C581 0.960 . S
H590 C582 0.930 . S
H591 C583 0.929 . S
H592 C600 0.929 . S
H593 C602 0.930 . S
H594 C604 0.930 . S
H595 C607 0.929 . S
H596 C610 0.930 . S
H597 C612 0.960 . S
H598 C612 0.960 . S
H599 C612 0.960 . S
C600 H592 0.929 . S
C600 C601 1.377 . S
C600 C602 1.384 . S
C601 C600 1.377 . S
C601 C607 1.390 . S
C602 H593 0.930 . S
C602 C600 1.384 . S
C602 C603 1.372 . S
C603 C602 1.372 . S
C603 C604 1.400 . S
C603 C608 1.490 . S
C604 H594 0.930 . S
C604 C603 1.400 . S
C604 C607 1.386 . S
H605 C621 0.930 . S
H606 C622 0.931 . S
C607 H595 0.929 . S
C607 C601 1.390 . S
C607 C604 1.386 . S
C608 C603 1.490 . S
C608 C610 1.395 . S
C608 C611 1.403 . S
H609 C615 0.930 . S
C610 H596 0.930 . S
C610 C608 1.395 . S
C610 C613 1.403 . S
C611 C608 1.403 . S
C611 C612 1.524 . S
C611 C615 1.400 . S
C612 H597 0.960 . S
C612 H598 0.960 . S
C612 H599 0.960 . S
C612 C611 1.524 . S
C613 C610 1.403 . S
C613 C614 1.392 . S
C613 C617 1.495 . S
C614 C613 1.392 . S
C614 C615 1.385 . S
C614 C616 1.478 . S
C615 H609 0.930 . S
C615 C611 1.400 . S
C615 C614 1.385 . S
C616 C614 1.478 . S
C616 C618 1.381 . S
C616 C622 1.383 . S
C617 C613 1.495 . S
C617 H623 0.959 . S
C617 H624 0.961 . S
C617 H625 0.960 . S
C618 C616 1.381 . S
C618 C619 1.394 . S
C618 H626 0.930 . S
C619 C618 1.394 . S
C619 C620 1.383 . S
C619 H627 0.929 . S
C620 C619 1.383 . S
C620 C621 1.377 . S
C621 H605 0.930 . S
C621 C620 1.377 . S
C621 C622 1.379 . S
C622 H606 0.931 . S
C622 C616 1.383 . S
C622 C621 1.379 . S
H623 C617 0.959 . S
H624 C617 0.961 . S
H625 C617 0.960 . S
H626 C618 0.930 . S
H627 C619 0.929 . S
H628 C636 0.929 . S
H629 C638 0.902 1_655 S
H630 C640 0.930 . S
H631 C643 0.929 . S
H632 C646 0.930 . S
H633 C648 0.960 . S
H634 C648 0.960 . S
H635 C648 0.960 . S
C636 H628 0.929 . S
C636 C637 1.377 . S
C636 C638 1.402 . S
C637 C636 1.377 . S
C637 C643 1.390 . S
C638 H629 0.902 1_455 S
C638 C636 1.402 . S
C638 C639 1.382 . S
C639 C638 1.382 . S
C639 C640 1.400 . S
C639 C644 1.490 1_455 S
C640 H630 0.930 . S
C640 C639 1.400 . S
C640 C643 1.386 . S
H641 C657 0.930 . S
H642 C658 0.931 . S
C643 H631 0.929 . S
C643 C637 1.390 . S
C643 C640 1.386 . S
C644 C639 1.490 1_655 S
C644 C646 1.395 . S
C644 C647 1.403 . S
H645 C651 0.930 . S
C646 H632 0.930 . S
C646 C644 1.395 . S
C646 C649 1.403 . S
C647 C644 1.403 . S
C647 C648 1.524 1_655 S
C647 C651 1.400 . S
C648 H633 0.960 . S
C648 H634 0.960 . S
C648 H635 0.960 . S
C648 C647 1.524 1_455 S
C649 C646 1.403 . S
C649 C650 1.392 . S
C649 C653 1.487 1_545 S
C650 C649 1.392 . S
C650 C651 1.385 . S
C650 C652 1.478 1_545 S
C651 H645 0.930 . S
C651 C647 1.400 . S
C651 C650 1.385 . S
C652 C650 1.478 1_565 S
C652 C654 1.381 . S
C652 C658 1.383 . S
C653 C649 1.487 1_565 S
C653 H659 0.953 1_565 S
C653 H660 0.982 . S
C653 H661 0.954 1_565 S
C654 C652 1.381 . S
C654 C655 1.394 . S
C654 H662 0.930 1_565 S
C655 C654 1.394 . S
C655 C656 1.383 . S
C655 H663 0.929 . S
C656 C655 1.383 . S
C656 C657 1.377 . S
C657 H641 0.930 . S
C657 C656 1.377 . S
C657 C658 1.379 . S
C658 H642 0.931 . S
C658 C652 1.383 . S
C658 C657 1.379 . S
H659 C653 0.953 1_545 S
H660 C653 0.982 . S
H661 C653 0.954 1_545 S
H662 C654 0.930 1_545 S
H663 C655 0.929 . S
H664 C672 0.929 . S
H665 C674 0.930 . S
H666 C676 0.930 . S
H667 C679 0.929 . S
H668 C682 0.930 . S
H669 C684 0.960 . S
H670 C684 0.960 . S
H671 C684 0.960 . S
C672 H664 0.929 . S
C672 C673 1.377 . S
C672 C674 1.384 . S
C673 C672 1.377 . S
C673 C679 1.390 . S
C674 H665 0.930 . S
C674 C672 1.384 . S
C674 C675 1.372 . S
C675 C674 1.372 . S
C675 C676 1.400 . S
C675 C680 1.490 . S
C676 H666 0.930 . S
C676 C675 1.400 . S
C676 C679 1.386 . S
H677 C693 0.930 . S
H678 C694 0.931 . S
C679 H667 0.929 . S
C679 C673 1.390 . S
C679 C676 1.386 . S
C680 C675 1.490 . S
C680 C682 1.395 . S
C680 C683 1.403 . S
H681 C687 0.930 . S
C682 H668 0.930 . S
C682 C680 1.395 . S
C682 C685 1.403 1_554 S
C683 C680 1.403 . S
C683 C684 1.524 . S
C683 C687 1.400 . S
C684 H669 0.960 . S
C684 H670 0.960 . S
C684 H671 0.960 . S
C684 C683 1.524 . S
C685 C682 1.403 1_556 S
C685 C686 1.392 . S
C685 C689 1.495 . S
C686 C685 1.392 . S
C686 C687 1.385 1_556 S
C686 C688 1.478 . S
C687 H681 0.930 . S
C687 C683 1.400 . S
C687 C686 1.385 1_554 S
C688 C686 1.478 . S
C688 C690 1.381 . S
C688 C694 1.383 . S
C689 C685 1.495 . S
C689 H695 0.959 . S
C689 H696 0.961 . S
C689 H697 0.960 . S
C690 C688 1.381 . S
C690 C691 1.394 . S
C690 H698 0.930 . S
C691 C690 1.394 . S
C691 C692 1.383 . S
C691 H699 0.929 . S
C692 C691 1.383 . S
C692 C693 1.377 . S
C693 H677 0.930 . S
C693 C692 1.377 . S
C693 C694 1.379 . S
C694 H678 0.931 . S
C694 C688 1.383 . S
C694 C693 1.379 . S
H695 C689 0.959 . S
H696 C689 0.961 . S
H697 C689 0.960 . S
H698 C690 0.930 . S
H699 C691 0.929 . S
C133 C19 1.173 . S
C152 C30 1.209 . S
C169 C50 1.174 . S
C188 C61 1.197 . S
C205 C72 1.179 . S
C224 C62 1.131 . S
C241 C103 1.188 . S
C260 C93 1.161 . S
C277 C123 1.481 . S
C296 C1 1.613 . S
C313 C32 1.735 . S
C332 C0 1.714 . S
C349 C91 1.967 . S
C368 C31 1.949 . S
C385 C122 1.838 . S
C404 C92 1.698 . S
C421 C10 1.491 . S
C440 C113 1.621 . S
C457 C41 1.710 . S
C476 C2 1.829 . S
C493 C33 1.966 . S
C512 C81 1.954 . S
C529 C82 1.734 . S
C548 C112 1.710 . S
C565 C63 0.484 . S
C584 C20 0.566 . S
C601 C51 0.488 . S
C620 C94 0.552 . S
C637 C64 0.500 . S
C656 C29 0.547 . S
C673 C60 0.471 . S
C692 C95 0.387 . S
