# Generated by pormake.
# Topology rkf, (6)-cn, num edge types: 1
# Building blocks:
#     Node 0, Type 0, BuildingBlock: BETDIP_clean_sbu_0, # of connection points: 6
#     Node 1, Type 0, BuildingBlock: BETDIP_clean_sbu_0, # of connection points: 6
#     Node 2, Type 0, BuildingBlock: BETDIP_clean_sbu_0, # of connection points: 6
#     Node 3, Type 0, BuildingBlock: BETDIP_clean_sbu_0, # of connection points: 6
#     Node 4, Type 0, BuildingBlock: BETDIP_clean_sbu_0, # of connection points: 6
#     Node 5, Type 0, BuildingBlock: BETDIP_clean_sbu_0, # of connection points: 6
#     Edge 6, Type (0, 0), BuildingBlock: UVAHIK_clean_linker_0, # of connection points: 2
#     Edge 7, Type (0, 0), BuildingBlock: UVAHIK_clean_linker_0, # of connection points: 2
#     Edge 8, Type (0, 0), BuildingBlock: UVAHIK_clean_linker_0, # of connection points: 2
#     Edge 9, Type (0, 0), BuildingBlock: UVAHIK_clean_linker_0, # of connection points: 2
#     Edge 10, Type (0, 0), BuildingBlock: UVAHIK_clean_linker_0, # of connection points: 2
#     Edge 11, Type (0, 0), BuildingBlock: UVAHIK_clean_linker_0, # of connection points: 2
#     Edge 12, Type (0, 0), BuildingBlock: UVAHIK_clean_linker_0, # of connection points: 2
#     Edge 13, Type (0, 0), BuildingBlock: UVAHIK_clean_linker_0, # of connection points: 2
#     Edge 14, Type (0, 0), BuildingBlock: UVAHIK_clean_linker_0, # of connection points: 2
#     Edge 15, Type (0, 0), BuildingBlock: UVAHIK_clean_linker_0, # of connection points: 2
#     Edge 16, Type (0, 0), BuildingBlock: UVAHIK_clean_linker_0, # of connection points: 2
#     Edge 17, Type (0, 0), BuildingBlock: UVAHIK_clean_linker_0, # of connection points: 2
#     Edge 18, Type (0, 0), BuildingBlock: UVAHIK_clean_linker_0, # of connection points: 2
#     Edge 19, Type (0, 0), BuildingBlock: UVAHIK_clean_linker_0, # of connection points: 2
#     Edge 20, Type (0, 0), BuildingBlock: UVAHIK_clean_linker_0, # of connection points: 2
#     Edge 21, Type (0, 0), BuildingBlock: UVAHIK_clean_linker_0, # of connection points: 2
#     Edge 22, Type (0, 0), BuildingBlock: UVAHIK_clean_linker_0, # of connection points: 2
#     Edge 23, Type (0, 0), BuildingBlock: UVAHIK_clean_linker_0, # of connection points: 2
# Relax obj value: 0.544
# Max RMSD: 0.247
# Mean RMSD: 0.247
data_MOF--net-rkf--node1-BETDIP_clean_sbu_0--edge1-UVAHIK_clean_linker_0
_symmetry_space_group_name_H-M    P1
_symmetry_Int_Tables_number       1
_symmetry_cell_setting            triclinic
loop_
_symmetry_equiv_pos_as_xyz
'x, y, z'
_cell_length_a     31.037292
_cell_length_b     31.051569
_cell_length_c     58.749503
_cell_angle_alpha  90.140116
_cell_angle_beta   89.955086
_cell_angle_gamma 120.17852
loop_
_atom_site_label
_atom_site_type_symbol
_atom_site_fract_x
_atom_site_fract_y
_atom_site_fract_z
_atom_type_partial_charge
Tb0 Tb 0.31333 0.13891 0.10448 0.0
Tb1 Tb 0.36997 0.24401 0.09152 0.0
C2 C 0.28929 0.04957 0.11082 0.0
C3 C 0.28783 0.01837 0.12983 0.0
C4 C 0.29511 0.97806 0.12559 0.0
C5 C 0.29099 0.94614 0.14325 0.0
C6 C 0.27927 0.954 0.16544 0.0
C7 C 0.27342 -0.00453 0.16966 0.0
C8 C 0.27797 0.02752 0.15205 0.0
C9 C 0.25773 0.1777 0.09142 0.0
C10 C 0.33385 0.2137 0.14463 0.0
C11 C 0.39871 0.33462 1.08538 0.0
C12 C 0.40158 0.36786 1.06701 0.0
C13 C 0.44243 0.4165 1.06618 0.0
C14 C 0.44548 0.44935 1.04922 0.0
C15 C 0.40737 0.43406 1.03297 0.0
C16 C 0.36658 0.38513 1.03377 0.0
C17 C 0.3638 0.35219 1.05059 0.0
C18 C 0.42617 0.20496 0.09969 0.0
C19 C 0.33768 0.16544 1.05062 0.0
O20 O 0.33369 0.08388 0.10417 0.0
O21 O 0.25777 0.06588 0.11177 0.0
O22 O 0.29858 0.18577 1.08367 0.0
O23 O 0.24511 0.14395 0.10707 0.0
O24 O 0.32023 0.16693 0.13954 0.0
O25 O 0.35192 0.24824 0.12831 0.0
O26 O 0.354 0.30186 0.09245 0.0
O27 O 0.428 0.31587 1.0835 0.0
O28 O 0.38817 0.19685 0.11114 0.0
O29 O 0.4351 0.23815 1.08432 0.0
O30 O 0.35276 0.2128 1.0561 0.0
O31 O 0.32472 0.13205 1.06728 0.0
H32 H 0.3032 0.9708 0.10852 0.0
H33 H 0.29641 0.91504 0.13947 0.0
H34 H 0.26353 0.00229 0.18642 0.0
H35 H 0.27256 0.05871 0.15569 0.0
H36 H 0.4719 0.42914 1.07876 0.0
H37 H 0.47724 0.48684 1.04896 0.0
H38 H 0.33715 0.37212 1.02117 0.0
H39 H 0.33213 0.31464 1.05081 0.0
Tb40 Tb 0.2793 0.31743 0.43784 0.0
Tb41 Tb 0.23155 0.37539 0.42549 0.0
C42 C 0.34459 0.29333 0.44357 0.0
C43 C 0.37617 0.29383 0.46225 0.0
C44 C 0.42403 0.30224 0.45746 0.0
C45 C 0.45363 0.30015 0.47485 0.0
C46 C 0.43562 0.28935 0.49731 0.0
C47 C 0.38802 0.28238 0.50206 0.0
C48 C 0.35873 0.28494 0.48473 0.0
C49 C 0.18394 0.26301 0.42557 0.0
C50 C 0.22507 0.337 0.47814 0.0
C51 C 0.17301 0.40828 0.41994 0.0
C52 C 0.15746 0.43013 0.40188 0.0
C53 C 0.10697 0.41551 0.40001 0.0
C54 C 0.09058 0.434 0.3825 0.0
C55 C 0.12455 0.46777 0.36656 0.0
C56 C 0.17554 0.48375 0.36901 0.0
C57 C 0.19185 0.46486 0.38645 0.0
C58 C 0.32789 0.42968 0.43188 0.0
C59 C 0.27591 0.34274 0.38391 0.0
O60 O 0.3545 0.337 0.43605 0.0
O61 O 0.29666 0.26221 0.44559 0.0
O62 O 0.2171 0.3037 0.41786 0.0
O63 O 0.20536 0.24947 0.44068 0.0
O64 O 0.26011 0.32602 0.47304 0.0
O65 O 0.20633 0.35237 0.46167 0.0
O66 O 0.15973 0.36129 0.4174 0.0
O67 O 0.2187 0.43525 0.42742 0.0
O68 O 0.29809 0.39283 0.44403 0.0
O69 O 0.3032 0.43801 0.41644 0.0
O70 O 0.2469 0.36153 0.38972 0.0
O71 O 0.29422 0.3266 0.40026 0.0
H72 H 0.43821 0.30966 0.44019 0.0
H73 H 0.49031 0.3064 0.47065 0.0
H74 H 0.37246 0.27312 0.51904 0.0
H75 H 0.32199 0.27874 0.48881 0.0
H76 H 0.07996 0.3888 0.41182 0.0
H77 H 0.05097 0.42007 0.3809 0.0
H78 H 0.20273 0.51005 0.35716 0.0
H79 H 0.23112 0.47682 0.38764 0.0
Tb80 Tb 0.07442 0.28946 0.77311 0.0
Tb81 Tb 0.96809 0.24167 0.761 0.0
C82 C 0.16397 0.35583 0.77831 0.0
C83 C 0.1936 0.39131 0.79623 0.0
C84 C 0.2372 0.43548 0.79047 0.0
C85 C 0.26642 0.46919 0.80744 0.0
C86 C 0.25244 0.45908 0.83045 0.0
C87 C 0.2079 0.41512 0.83601 0.0
C88 C 0.17861 0.3817 0.81904 0.0
C89 C 0.03262 0.19381 0.76131 0.0
C90 C 0.00056 0.23738 0.81386 0.0
C91 C 0.87628 0.18279 0.75576 0.0
C92 C 0.83853 0.165 0.73768 0.0
C93 C 0.8039 0.11398 0.73625 0.0
C94 C 0.76846 0.09554 0.71888 0.0
C95 C 0.76681 0.12793 0.70266 0.0
C96 C 0.80061 0.1794 0.70463 0.0
C97 C 0.83637 0.19777 0.72192 0.0
C98 C 0.01119 0.33816 0.76696 0.0
C99 C 0.04477 0.28375 0.71905 0.0
O100 O 0.13059 0.36376 0.76868 0.0
O101 O 0.1468 0.30864 0.78281 0.0
O102 O 0.02501 0.22676 0.75359 0.0
O103 O 0.06869 0.21583 0.77596 0.0
O104 O 0.04684 0.27173 0.80846 0.0
O105 O 0.96593 0.21837 0.79753 0.0
O106 O 0.90982 0.16912 0.75421 0.0
O107 O 0.89539 0.22929 0.76208 0.0
O108 O 0.01814 0.30857 0.77921 0.0
O109 O 0.97757 0.31319 0.75169 0.0
O110 O -0.00318 0.25564 0.72509 0.0
O111 O 0.07972 0.30208 0.73529 0.0
H112 H 0.24888 0.44367 0.77287 0.0
H113 H 0.30012 0.50291 0.80255 0.0
H114 H 0.19637 0.40558 0.85355 0.0
H115 H 0.14477 0.34793 0.82377 0.0
H116 H 0.80495 0.08818 0.74832 0.0
H117 H 0.74376 0.05564 0.71766 0.0
H118 H 0.80005 0.20539 0.69254 0.0
H119 H 0.86264 0.23742 0.72276 0.0
Tb120 Tb 0.90018 0.09706 0.10965 0.0
Tb121 Tb 0.82272 -0.00759 0.09952 0.0
C122 C 0.94115 0.18619 0.12245 0.0
C123 C 0.93696 0.21608 0.14091 0.0
C124 C 0.92159 0.25036 0.13555 0.0
C125 C 0.91908 0.28079 0.15238 0.0
C126 C 0.93238 0.27789 0.17492 0.0
C127 C 0.94706 0.24295 0.18034 0.0
C128 C 0.94924 0.21224 0.1635 0.0
C129 C 0.93595 0.04135 0.09463 0.0
C130 C 0.86262 0.01755 0.15089 0.0
C131 C 0.76794 0.90322 1.08728 0.0
C132 C 0.75459 0.87136 1.06712 0.0
C133 C 0.7751 0.89093 1.0458 0.0
C134 C 0.76477 0.8591 1.02722 0.0
C135 C 0.73332 0.80724 1.02967 0.0
C136 C 0.71142 0.78818 1.05096 0.0
C137 C 0.72215 0.82005 1.06955 0.0
C138 C 0.78834 0.04803 0.11678 0.0
C139 C 0.8758 0.07187 1.05729 0.0
O140 O 0.90314 0.16559 0.1085 0.0
O141 O 0.95865 0.15663 0.12734 0.0
O142 O 0.89877 0.02783 0.10725 0.0
O143 O 0.95788 0.08922 0.09183 0.0
O144 O 0.88334 0.06529 0.14483 0.0
O145 O 0.83999 0.98197 0.1352 0.0
O146 O 0.81363 0.92149 0.09467 0.0
O147 O 0.7534 0.9361 1.08758 0.0
O148 O 0.8223 0.06107 0.10206 0.0
O149 O 0.77198 0.00188 0.12185 0.0
O150 O 0.84494 0.02488 1.06401 0.0
O151 O 0.89947 0.10736 1.0727 0.0
H152 H 0.91195 0.25401 0.11822 0.0
H153 H 0.90711 0.30685 0.14768 0.0
H154 H 0.95841 0.24033 0.19746 0.0
H155 H 0.9613 0.18621 0.16814 0.0
H156 H 0.79986 0.93055 1.04361 0.0
H157 H 0.78292 0.87504 1.01117 0.0
H158 H 0.68657 0.7486 1.05335 0.0
H159 H 0.70579 0.80451 1.08596 0.0
Tb160 Tb 0.91054 0.90752 0.44377 0.0
Tb161 Tb 0.93904 0.83179 0.43187 0.0
C162 C 0.86119 0.94598 0.45791 0.0
C163 C 0.82709 0.93987 0.4767 0.0
C164 C 0.77658 0.922 0.4718 0.0
C165 C 0.74367 0.91806 0.48894 0.0
C166 C 0.7607 0.93236 0.51134 0.0
C167 C 0.81118 0.94947 0.51631 0.0
C168 C 0.84406 0.95312 0.49917 0.0
C169 C 0.00234 0.94575 0.4285 0.0
C170 C 0.95416 0.86891 0.48368 0.0
C171 C 0.97431 0.77927 0.41761 0.0
C172 C -0.00795 0.76845 0.39646 0.0
C173 C -0.00886 0.79063 0.3759 0.0
C174 C 0.01144 0.7825 0.35628 0.0
C175 C 0.03221 0.75125 0.35681 0.0
C176 C 0.03123 0.72764 0.37737 0.0
C177 C 0.01153 0.73642 0.39705 0.0
C178 C 0.84879 0.79517 0.44932 0.0
C179 C 0.91083 0.8863 0.39112 0.0
O180 O 0.84411 0.90895 0.44341 0.0
O181 O 0.9086 0.96413 0.46259 0.0
O182 O 0.97892 0.90748 0.4405 0.0
O183 O 0.97586 0.96723 0.42657 0.0
O184 O 0.92623 0.88891 0.47832 0.0
O185 O 0.96746 0.84766 0.46749 0.0
O186 O 0.00154 0.82438 0.42575 0.0
O187 O 0.92662 0.76368 0.4187 0.0
O188 O 0.86948 0.83014 0.43508 0.0
O189 O 0.87898 0.77901 0.45378 0.0
O190 O 0.92738 0.8555 0.39704 0.0
O191 O 0.8991 0.90892 0.40703 0.0
H192 H 0.76259 0.91162 0.45458 0.0
H193 H 0.70499 0.90427 0.48459 0.0
H194 H 0.82576 0.96166 0.53331 0.0
H195 H 0.88281 0.96717 0.50346 0.0
H196 H 0.97556 0.81487 0.37507 0.0
H197 H 0.01217 0.802 0.34091 0.0
H198 H 0.04607 0.70273 0.37833 0.0
H199 H 0.01205 0.71865 0.41282 0.0
Tb200 Tb 0.11888 0.91884 0.77473 0.0
Tb201 Tb 0.22396 0.95003 0.76287 0.0
C202 C 0.03115 0.86886 0.78909 0.0
C203 C 0.00354 0.83796 0.80877 0.0
C204 C 0.97096 0.78671 0.8055 0.0
C205 C 0.94172 0.75687 0.82339 0.0
C206 C 0.94415 0.7778 0.8449 0.0
C207 C 0.97766 0.82899 0.84827 0.0
C208 C 0.00715 0.85879 0.8304 0.0
C209 C 0.17067 0.00998 0.75869 0.0
C210 C 0.20161 0.96565 0.81448 0.0
C211 C 0.31215 0.98786 0.74858 0.0
C212 C 0.34062 0.00531 0.72741 0.0
C213 C 0.3173 0.00393 0.70683 0.0
C214 C 0.34574 0.02449 0.68723 0.0
C215 C 0.39799 0.04603 0.68782 0.0
C216 C 0.42083 0.04539 0.70839 0.0
C217 C 0.39234 0.02541 0.72804 0.0
C218 C 0.17198 0.85989 0.78051 0.0
C219 C 0.14014 0.91783 0.72226 0.0
O220 O 0.0525 0.85061 0.77614 0.0
O221 O 0.05896 0.91716 0.79209 0.0
O222 O 0.18654 0.9883 0.77121 0.0
O223 O 0.12275 0.9821 0.75653 0.0
O224 O 0.15362 0.93647 0.80922 0.0
O225 O 0.2362 0.97944 0.79828 0.0
O226 O 0.29257 0.01394 0.75609 0.0
O227 O 0.28145 0.9399 0.75022 0.0
O228 O 0.15685 0.87959 0.7662 0.0
O229 O 0.21834 0.89102 0.78493 0.0
O230 O 0.188 0.93649 0.72811 0.0
O231 O 0.10564 0.90493 0.73818 0.0
H232 H 0.96748 0.76982 0.78893 0.0
H233 H 0.91673 0.71754 0.8203 0.0
H234 H 0.97985 0.84653 0.86452 0.0
H235 H 0.03185 0.89821 0.83342 0.0
H236 H 0.27733 0.98789 0.70598 0.0
H237 H 0.32679 0.0249 0.67184 0.0
H238 H 0.46076 0.06082 0.7094 0.0
H239 H 0.41081 0.02634 0.74383 0.0
C240 C 0.91871 0.98373 1.06204 0.0
C241 C 0.94802 0.00903 1.08106 0.0
C242 C 0.94142 0.97942 1.04227 0.0
C243 C 0.06743 0.02684 1.01815 0.0
H244 H 0.067 0.15075 1.02473 0.0
C245 C 0.17027 0.15414 1.08159 0.0
C246 C 0.22086 0.17858 1.07581 0.0
C247 C 0.13434 0.1402 1.06452 0.0
C248 C 0.06801 0.11691 1.02147 0.0
H249 H 0.0197 0.03591 0.09703 0.0
H250 H 0.05778 0.02237 1.06397 0.0
H251 H -0.01108 0.0731 1.02114 0.0
H252 H 0.27363 0.21495 1.04821 0.0
H253 H 0.21075 0.18579 1.01834 0.0
H254 H 0.14673 0.07056 1.02086 0.0
C255 C 0.01823 0.00938 1.06323 0.0
C256 C 0.0231 0.07197 1.01926 0.0
C257 C -0.00344 0.01738 1.08234 0.0
C258 C 0.23487 0.19456 1.05315 0.0
C259 C 0.19899 0.17859 1.03596 0.0
C260 C 0.11262 0.07189 1.0193 0.0
C261 C -0.00706 -0.0023 1.04218 0.0
C262 C 0.02298 0.02692 1.02247 0.0
C263 C 0.1486 0.14913 1.04147 0.0
C264 C 0.11236 0.11605 1.02435 0.0
H265 H 0.88017 0.97348 1.06121 0.0
H266 H 0.92057 0.96897 1.02647 0.0
H267 H 0.06825 -0.00755 1.0194 0.0
H268 H 0.15838 0.14195 0.09889 0.0
H269 H 0.09543 0.11747 1.06912 0.0
C270 C 0.08549 0.00821 0.41502 0.0
C271 C 0.0462 0.959 0.41426 0.0
C272 C 0.11355 0.03003 0.39551 0.0
C273 C 0.0516 0.03142 0.35258 0.0
H274 H 0.17532 0.15702 0.35273 0.0
C275 C 0.14256 0.24218 0.38762 0.0
C276 C 0.14489 0.22713 0.41003 0.0
C277 C 0.12119 0.20701 0.37019 0.0
C278 C 0.14011 0.12233 0.35159 0.0
H279 H 0.01434 0.89072 0.39482 0.0
H280 H 0.05598 0.9309 0.35945 0.0
H281 H 0.17696 0.07989 0.35059 0.0
H282 H 0.11825 0.16376 0.43253 0.0
H283 H 0.07727 0.10212 0.40237 0.0
H284 H 0.01537 0.07345 0.35917 0.0
C285 C 0.06703 0.95226 0.37512 0.0
C286 C 0.14111 0.0779 0.35004 0.0
C287 C 0.04184 0.92957 0.39526 0.0
C288 C 0.11767 0.17641 0.41542 0.0
C289 C 0.09422 0.14123 0.39812 0.0
C290 C 0.05049 0.07558 0.35519 0.0
C291 C 0.09903 0.00402 0.37462 0.0
C292 C 0.09749 0.03284 0.35495 0.0
C293 C 0.09924 0.15634 0.3752 0.0
C294 C 0.09544 0.12068 0.35763 0.0
H295 H 0.09042 0.03153 0.42967 0.0
H296 H 0.13926 0.06984 0.39592 0.0
H297 H 0.01684 -0.00332 0.35484 0.0
H298 H 0.16191 0.28115 0.38301 0.0
H299 H 0.1256 0.21946 0.35268 0.0
C300 C 0.19138 0.094 0.74695 0.0
C301 C 0.20064 0.05457 0.7448 0.0
C302 C 0.19612 0.12306 0.72804 0.0
C303 C 0.12858 0.06338 0.68536 0.0
H304 H 0.12748 0.18705 0.68817 0.0
C305 C 0.00867 0.15069 0.72379 0.0
C306 C 0.02839 0.15432 0.74582 0.0
C307 C 0.02202 0.12996 0.70595 0.0
C308 C 0.12674 0.15194 0.68628 0.0
H309 H 0.23434 0.02316 0.72326 0.0
H310 H 0.23349 0.06702 0.68916 0.0
H311 H 0.2062 0.18882 0.68466 0.0
H312 H 0.06859 0.13013 0.7674 0.0
H313 H 0.08838 0.09004 0.7366 0.0
H314 H 0.05041 0.02689 0.6926 0.0
C315 C 0.2248 0.07733 0.70544 0.0
C316 C 0.1721 0.15304 0.68396 0.0
C317 C 0.22362 0.05089 0.72488 0.0
C318 C 0.05357 0.12856 0.75059 0.0
C319 C 0.06484 0.10568 0.73292 0.0
C320 C 0.08344 0.06217 0.68876 0.0
C321 C 0.20553 0.10956 0.70645 0.0
C322 C 0.17347 0.10913 0.68775 0.0
C323 C 0.05252 0.10979 0.71026 0.0
C324 C 0.08367 0.10696 0.69209 0.0
H325 H 0.17449 0.0983 0.7623 0.0
H326 H 0.18241 0.14887 0.72959 0.0
H327 H 0.12843 0.02851 0.68689 0.0
H328 H -0.01238 0.16876 0.71971 0.0
H329 H 0.01222 0.13358 0.68865 0.0
C330 C 0.36828 0.47157 1.00904 0.0
C331 C 0.41042 0.46824 1.01474 0.0
C332 C 0.36871 0.49817 0.98989 0.0
C333 C 0.422 0.52224 0.93396 0.0
H334 H 0.34189 0.58471 0.92582 0.0
C335 C 0.33752 0.51159 0.84751 0.0
C336 C 0.28569 0.49178 0.84885 0.0
C337 C 0.36769 0.53382 0.86654 0.0
C338 C 0.36468 0.56763 0.92777 0.0
H339 H 0.48716 0.49285 1.00588 0.0
H340 H 0.48777 0.53916 0.97212 0.0
H341 H 0.36898 0.57772 0.96397 0.0
H342 H 0.22587 0.48526 0.87034 0.0
H343 H 0.27762 0.52134 0.90373 0.0
H344 H 0.41441 0.50803 0.89833 0.0
C345 C 0.45447 0.52117 0.98252 0.0
C346 C 0.38033 0.56384 0.9496 0.0
C347 C 0.45414 0.4948 1.00182 0.0
C348 C 0.26546 0.49886 0.86894 0.0
C349 C 0.29546 0.52047 0.88803 0.0
C350 C 0.40602 0.52558 0.91222 0.0
C351 C 0.4112 0.52172 0.97595 0.0
C352 C 0.40699 0.53883 0.95299 0.0
C353 C 0.34657 0.53608 0.88738 0.0
C354 C 0.37491 0.54592 0.90901 0.0
H355 H 0.33435 0.452 1.01894 0.0
H356 H 0.3346 0.4974 0.98516 0.0
H357 H 0.4422 0.50244 0.93602 0.0
H358 H 0.35448 0.50698 0.83228 0.0
H359 H 0.4071 0.54649 0.86529 0.0
C360 C 0.12575 0.48107 0.32462 0.0
C361 C 0.10585 0.48115 0.34608 0.0
C362 C 0.10193 0.4827 0.30485 0.0
C363 C 0.97486 0.43501 0.28683 0.0
H364 H 0.04138 0.47078 0.22835 0.0
C365 C 0.95327 0.36377 0.18722 0.0
C366 C 0.93408 0.31318 0.19248 0.0
C367 C 0.96204 0.39837 0.20443 0.0
C368 C 0.02145 0.46131 0.24437 0.0
H369 H 0.04853 0.48885 0.36362 0.0
H370 H 0.00631 0.49098 0.32889 0.0
H371 H 0.08612 0.51587 0.26219 0.0
H372 H 0.90448 0.25857 0.21957 0.0
H373 H 0.92181 0.31871 0.24962 0.0
H374 H 0.91071 0.37928 0.26912 0.0
C375 C 0.04005 0.48897 0.32745 0.0
C376 C 0.04743 0.48697 0.26385 0.0
C377 C 0.06409 0.48751 0.34731 0.0
C378 C 0.92039 0.29743 0.21504 0.0
C379 C 0.92951 0.33199 0.23224 0.0
C380 C 0.94864 0.40977 0.26731 0.0
C381 C 0.05748 0.4843 0.30603 0.0
C382 C 0.02562 0.47149 0.28544 0.0
C383 C 0.95222 0.38316 0.22728 0.0
C384 C 0.97288 0.42015 0.24612 0.0
H385 H 0.15748 0.47568 0.32296 0.0
H386 H 0.11615 0.47828 0.28871 0.0
H387 H 0.95665 0.4223 0.30317 0.0
H388 H 0.96426 0.37724 0.17 0.0
H389 H 0.97884 0.43735 0.19997 0.0
C390 C 0.68636 0.06453 0.6842 0.0
C391 C 0.73393 0.10725 0.68245 0.0
C392 C 0.66023 0.03912 0.66463 0.0
C393 C 0.66608 0.04418 0.60097 0.0
H394 H 0.641 0.90918 0.60679 0.0
C395 C 0.7309 0.92024 0.55172 0.0
C396 C 0.72707 0.93283 0.52919 0.0
C397 C 0.70557 0.92869 0.56918 0.0
C398 C 0.6473 0.94659 0.60483 0.0
H399 H 0.78933 0.15897 0.65872 0.0
H400 H 0.74429 0.11526 0.62495 0.0
H401 H 0.64465 0.95572 0.64071 0.0
H402 H 0.6901 0.96012 0.50703 0.0
H403 H 0.64477 0.97352 0.53744 0.0
H404 H 0.67437 0.03718 0.56539 0.0
C405 C 0.72655 0.10134 0.64129 0.0
C406 C 0.6487 0.97313 0.62429 0.0
C407 C 0.75265 0.12653 0.66077 0.0
C408 C 0.69396 0.95003 0.52422 0.0
C409 C 0.66825 0.95813 0.54169 0.0
C410 C 0.6653 0.01788 0.58154 0.0
C411 C 0.68113 0.05613 0.64298 0.0
C412 C 0.6616 0.02339 0.62266 0.0
C413 C 0.67545 0.94959 0.56448 0.0
C414 C 0.65933 0.97001 0.58345 0.0
H415 H 0.6704 0.04939 0.70069 0.0
H416 H 0.62498 0.00478 0.66647 0.0
H417 H 0.67477 0.08243 0.59914 0.0
H418 H 0.75523 0.90587 0.55604 0.0
H419 H 0.71253 0.92201 0.5865 0.0
C420 C 0.72803 0.72921 1.01433 0.0
C421 C 0.72675 0.77326 1.0105 0.0
C422 C 0.73085 0.70188 0.99605 0.0
C423 C 0.73373 0.69836 0.9322 0.0
H424 H 0.84529 0.67797 0.94322 0.0
C425 C 0.85901 0.71372 0.85851 0.0
C426 C 0.90944 0.74754 0.86332 0.0
C427 C 0.8246 0.69159 0.87616 0.0
C428 C 0.81387 0.6831 0.93982 0.0
H429 H 0.72195 0.82008 0.9845 0.0
H430 H 0.72944 0.77435 0.9528 0.0
H431 H 0.80084 0.6865 0.9752 0.0
H432 H 0.96412 0.78062 0.89034 0.0
H433 H 0.9043 0.74431 0.92098 0.0
H434 H 0.7504 0.70069 0.89689 0.0
C435 C 0.72754 0.7601 0.96979 0.0
C436 C 0.78775 0.68728 0.95822 0.0
C437 C 0.72416 0.78703 0.98803 0.0
C438 C 0.92534 0.75566 0.88608 0.0
C439 C 0.89097 0.73398 0.90369 0.0
C440 C 0.76044 0.6951 0.91382 0.0
C441 C 0.73304 0.71836 0.97359 0.0
C442 C 0.74938 0.69813 0.95462 0.0
C443 C 0.83985 0.70321 0.89896 0.0
C444 C 0.80281 0.69061 0.9175 0.0
H445 H 0.73003 0.71744 1.03144 0.0
H446 H 0.73405 0.66939 0.99959 0.0
H447 H 0.70328 0.70504 0.92883 0.0
H448 H 0.84544 0.70659 0.84115 0.0
H449 H 0.78569 0.66739 0.87191 0.0
C450 C 0.03943 0.74642 0.31445 0.0
C451 C 0.05741 0.74602 0.33633 0.0
C452 C 0.06728 0.74977 0.29522 0.0
C453 C 0.1988 0.79958 0.27994 0.0
H454 H 0.14009 0.76765 0.21972 0.0
C455 C 0.28251 0.9337 0.20645 0.0
C456 C 0.26949 0.91749 0.18386 0.0
C457 C 0.26523 0.89958 0.22429 0.0
C458 C 0.15774 0.77604 0.23629 0.0
H459 H 0.11703 0.74446 0.35497 0.0
H460 H 0.16426 0.74767 0.32139 0.0
H461 H 0.08908 0.7251 0.25246 0.0
H462 H 0.23201 0.85207 0.16217 0.0
H463 H 0.20394 0.79241 0.19323 0.0
H464 H 0.26758 0.85012 0.26375 0.0
C465 C 0.12943 0.74723 0.31911 0.0
C466 C 0.12807 0.75212 0.25519 0.0
C467 C 0.10191 0.74472 0.33841 0.0
C468 C 0.2427 0.86599 0.17937 0.0
C469 C 0.22601 0.83171 0.19724 0.0
C470 C 0.22874 0.82267 0.261 0.0
C471 C 0.11352 0.75192 0.29732 0.0
C472 C 0.14744 0.76596 0.27733 0.0
C473 C 0.23513 0.84819 0.21998 0.0
C474 C 0.20784 0.8136 0.23907 0.0
H475 H 0.00466 0.74611 0.31216 0.0
H476 H 0.05371 0.75371 0.27884 0.0
H477 H 0.21542 0.81123 0.29664 0.0
H478 H 0.3042 0.97303 0.21047 0.0
H479 H 0.27292 0.91408 0.24149 0.0
C480 C 0.41019 0.05375 0.64549 0.0
C481 C 0.42841 0.07174 0.66742 0.0
C482 C 0.43458 0.08194 0.62634 0.0
C483 C 0.51526 0.2138 0.61131 0.0
H484 H 0.489 0.15524 0.55103 0.0
C485 C 0.48971 0.25564 0.51086 0.0
C486 C 0.4642 0.28145 0.51549 0.0
C487 C 0.50866 0.24016 0.52862 0.0
C488 C 0.49815 0.17291 0.56761 0.0
H489 H 0.48921 0.13188 0.68623 0.0
H490 H 0.53306 0.17976 0.65278 0.0
H491 H 0.48137 0.10462 0.58369 0.0
H492 H 0.44368 0.31606 0.5422 0.0
H493 H 0.47357 0.28671 0.57305 0.0
H494 H 0.53264 0.28225 0.5952 0.0
C495 C 0.49887 0.1446 0.6504 0.0
C496 C 0.49285 0.14342 0.58647 0.0
C497 C 0.47397 0.11672 0.66962 0.0
C498 C 0.46183 0.295 0.53807 0.0
C499 C 0.47997 0.27885 0.55582 0.0
C500 C 0.52171 0.2436 0.5924 0.0
C501 C 0.4784 0.12857 0.62856 0.0
C502 C 0.49809 0.16263 0.60863 0.0
C503 C 0.50182 0.24944 0.55141 0.0
C504 C 0.50999 0.22272 0.57044 0.0
H505 H 0.37591 0.01865 0.6431 0.0
H506 H 0.41715 0.06827 0.60992 0.0
H507 H 0.52004 0.2303 0.62803 0.0
H508 H 0.49241 0.24463 0.49366 0.0
H509 H 0.5264 0.21871 0.5245 0.0
C510 C 0.45511 0.15541 0.12296 0.0
C511 C 0.46224 0.18832 0.10507 0.0
C512 C 0.49107 0.14152 0.12743 0.0
C513 C 0.62483 0.18336 0.11712 0.0
H514 H 0.58628 0.04515 0.12639 0.0
C515 C 0.76367 0.11136 0.10646 0.0
C516 C 0.75726 0.07143 0.12006 0.0
C517 C 0.72931 0.12814 0.10754 0.0
C518 C 0.59787 0.0841 0.12422 0.0
H519 H 0.51213 0.2317 1.07768 0.0
H520 H 0.57391 0.20786 1.08543 0.0
H521 H 0.52215 0.0684 0.12349 0.0
H522 H 0.71166 0.01975 0.14637 0.0
H523 H 0.65264 0.04962 0.14866 0.0
H524 H 0.70041 0.1992 0.1176 0.0
C525 C 0.54132 0.19319 0.09627 0.0
C526 C 0.56094 0.09737 0.12255 0.0
C527 C 0.50556 0.20662 0.09174 0.0
C528 C 0.71734 0.05035 0.13553 0.0
C529 C 0.68321 0.06719 0.13669 0.0
C530 C 0.6617 0.17017 0.11887 0.0
C531 C 0.5349 0.16076 0.11423 0.0
C532 C 0.57392 0.14705 0.11855 0.0
C533 C 0.68794 0.10552 0.12233 0.0
C534 C 0.64879 0.12023 0.12206 0.0
H535 H 0.42203 0.14062 0.13348 0.0
H536 H 0.48497 0.11638 0.1414 0.0
H537 H 0.63623 0.22215 0.11444 0.0
H538 H 0.79398 0.12824 0.09432 0.0
H539 H 0.73413 0.15749 0.09608 0.0
C540 C 0.40719 0.45921 0.45477 0.0
C541 C 0.38109 0.46574 0.43683 0.0
C542 C 0.45729 0.4953 0.45906 0.0
C543 C 0.54911 0.62882 0.44859 0.0
H544 H 0.64946 0.59142 0.45798 0.0
C545 C 0.76041 0.76986 0.43907 0.0
C546 C 0.79418 0.76338 0.45246 0.0
C547 C 0.7092 0.73503 0.43992 0.0
C548 C 0.62192 0.60272 0.45579 0.0
H549 H 0.38733 0.51467 0.40914 0.0
H550 H 0.47346 0.57684 0.41662 0.0
H551 H 0.56195 0.52681 0.45487 0.0
H552 H 0.80057 0.71706 0.47819 0.0
H553 H 0.71152 0.65727 0.48017 0.0
H554 H 0.60872 0.70458 0.4494 0.0
C555 C 0.45557 0.54453 0.4276 0.0
C556 C 0.57164 0.5655 0.45398 0.0
C557 C 0.40611 0.50857 0.42323 0.0
C558 C 0.77547 0.72283 0.46752 0.0
C559 C 0.72438 0.68824 0.46849 0.0
C560 C 0.59924 0.666 0.45054 0.0
C561 C 0.48183 0.53873 0.44565 0.0
C562 C 0.5347 0.57806 0.44994 0.0
C563 C 0.69054 0.69308 0.4543 0.0
C564 C 0.63656 0.65355 0.4538 0.0
H565 H 0.38891 0.42652 0.46551 0.0
H566 H 0.47652 0.48969 0.4731 0.0
H567 H 0.52151 0.63988 0.44587 0.0
H568 H 0.77373 0.80065 0.42724 0.0
H569 H 0.68456 0.73999 0.42859 0.0
C570 C 0.01087 0.41624 0.7582 0.0
C571 C 0.02923 0.39156 0.77162 0.0
C572 C 0.0253 0.46595 0.7623 0.0
C573 C 0.12341 0.58285 0.78707 0.0
H574 H 0.02175 0.62042 0.78374 0.0
C575 C 0.1726 0.78772 0.79891 0.0
C576 C 0.14963 0.8055 0.78404 0.0
C577 C 0.15598 0.73672 0.80033 0.0
C578 C 0.05075 0.61079 0.78452 0.0
H579 H 0.07828 0.40025 0.79964 0.0
H580 H 0.10436 0.48833 0.80674 0.0
H581 H -0.00193 0.53295 0.78093 0.0
H582 H 0.08998 0.78357 0.75959 0.0
H583 H 0.06123 0.69459 0.76175 0.0
H584 H 0.17631 0.66077 0.79 0.0
C585 C 0.07832 0.46861 0.79309 0.0
C586 C 0.03713 0.56052 0.78299 0.0
C587 C 0.06337 0.41825 0.78908 0.0
C588 C 0.10832 0.77098 0.77127 0.0
C589 C 0.0918 0.71988 0.77259 0.0
C590 C 0.13712 0.63327 0.78847 0.0
C591 C 0.05887 0.49281 0.77987 0.0
C592 C 0.07332 0.54592 0.78386 0.0
C593 C 0.11602 0.70208 0.78683 0.0
C594 C 0.10105 0.64806 0.78688 0.0
H595 H 0.98483 0.397 0.74448 0.0
H596 H 0.01041 0.48356 0.75147 0.0
H597 H 0.15226 0.57297 0.78759 0.0
H598 H 0.20433 0.81343 0.8091 0.0
H599 H 0.17491 0.72455 0.81187 0.0
C600 C 0.3094 0.19213 0.18683 0.0
C601 C 0.32861 0.22785 0.16917 0.0
C602 C 0.30372 0.20491 0.20946 0.0
C603 C 0.30197 0.30776 0.24537 0.0
H604 H 0.30977 0.23218 0.29586 0.0
C605 C 0.25944 0.3421 0.34059 0.0
C606 C 0.28324 0.33296 0.35894 0.0
C607 C 0.2647 0.33012 0.31768 0.0
C608 C 0.30781 0.25441 0.28219 0.0
H609 H 0.35679 0.30614 0.1626 0.0
H610 H 0.34763 0.32839 0.20154 0.0
H611 H 0.32042 0.21128 0.25714 0.0
H612 H 0.33188 0.30354 0.36643 0.0
H613 H 0.34152 0.28375 0.32733 0.0
H614 H 0.2903 0.35151 0.27054 0.0
C615 C 0.33611 0.28988 0.19798 0.0
C616 C 0.31332 0.24172 0.25953 0.0
C617 C 0.34185 0.27707 0.17535 0.0
C618 C 0.31268 0.31152 0.35318 0.0
C619 C 0.31789 0.29952 0.33039 0.0
C620 C 0.29632 0.32039 0.26807 0.0
C621 C 0.31687 0.25418 0.21574 0.0
C622 C 0.31067 0.26804 0.24041 0.0
C623 C 0.29389 0.30817 0.31193 0.0
C624 C 0.29926 0.2942 0.28718 0.0
H625 H 0.2983 0.15373 0.18318 0.0
H626 H 0.28804 0.17545 0.22198 0.0
H627 H 0.29885 0.32918 0.23164 0.0
H628 H 0.23597 0.35797 0.34393 0.0
H629 H 0.24478 0.33726 0.30451 0.0
C630 C 0.16883 0.34308 0.50907 0.0
C631 C 0.20598 0.3316 0.5028 0.0
C632 C 0.15101 0.33775 0.53184 0.0
C633 C 0.17993 0.31867 0.59358 0.0
H634 H 0.0467 0.29405 0.60538 0.0
C635 C 0.11223 0.31899 0.68789 0.0
C636 C 0.06129 0.29018 0.69394 0.0
C637 C 0.12877 0.32364 0.66498 0.0
C638 C 0.08399 0.30053 0.60272 0.0
H639 H 0.25264 0.30481 0.51689 0.0
H640 H 0.22183 0.29508 0.55588 0.0
H641 H 0.0762 0.30166 0.56631 0.0
H642 H -0.01177 0.2433 0.67926 0.0
H643 H 0.01655 0.25103 0.6397 0.0
H644 H 0.18741 0.31642 0.6299 0.0
C645 C 0.20655 0.30914 0.54333 0.0
C646 C 0.1015 0.30565 0.57988 0.0
C647 C 0.22433 0.31447 0.52056 0.0
C648 C 0.02766 0.26632 0.67573 0.0
C649 C 0.04423 0.27099 0.65272 0.0
C650 C 0.16247 0.31363 0.61638 0.0
C651 C 0.16931 0.32061 0.54972 0.0
C652 C 0.15006 0.31492 0.57458 0.0
C653 C 0.0954 0.29964 0.64664 0.0
C654 C 0.11399 0.30452 0.62171 0.0
H655 H 0.15331 0.35647 0.49629 0.0
H656 H 0.12311 0.34797 0.5354 0.0
H657 H 0.21762 0.32626 0.591 0.0
H658 H 0.13996 0.3382 0.701 0.0
H659 H 0.16825 0.34688 0.66174 0.0
C660 C 0.02355 0.23646 0.85617 0.0
C661 C -0.01286 0.21948 0.83873 0.0
C662 C 0.01141 0.21969 0.8791 0.0
C663 C 0.90615 0.12091 0.91716 0.0
H664 H -0.00827 0.20339 0.9659 0.0
C665 C 0.8694 0.05109 1.01392 0.0
C666 C 0.88624 0.08628 1.03191 0.0
C667 C 0.88117 0.06589 0.99064 0.0
C668 C 0.96654 0.17947 0.95281 0.0
H669 H 0.90816 0.17039 0.83305 0.0
H670 H 0.88694 0.14227 0.87241 0.0
H671 H 0.01134 0.23155 0.92684 0.0
H672 H 0.92943 0.16578 1.0382 0.0
H673 H 0.94849 0.19107 0.99872 0.0
H674 H 0.86059 0.06945 0.94333 0.0
C675 C 0.9256 0.16813 0.8685 0.0
C676 C 0.97852 0.19567 0.92982 0.0
C677 C 0.93784 0.18479 0.84554 0.0
C678 C 0.91534 0.13684 1.02533 0.0
C679 C 0.92689 0.15159 1.00222 0.0
C680 C 0.89407 0.10473 0.94021 0.0
C681 C 0.96199 0.185 0.88607 0.0
C682 C 0.94875 0.16701 0.91119 0.0
C683 C 0.91044 0.11673 0.98405 0.0
C684 C 0.92378 0.13359 0.95882 0.0
H685 H 0.06206 0.26282 0.85211 0.0
H686 H 0.04157 0.23377 0.8913 0.0
H687 H 0.8818 0.09644 0.90397 0.0
H688 H 0.84746 0.01176 1.01779 0.0
H689 H 0.86774 0.03693 0.97783 0.0
C690 C 0.84606 0.95365 0.18271 0.0
C691 C 0.86693 0.00375 0.17561 0.0
C692 C 0.85131 0.9409 0.2054 0.0
C693 C 0.89039 -0.00466 0.26579 0.0
H694 H 0.88599 0.87075 0.27805 0.0
C695 C 0.88689 0.92909 0.36033 0.0
C696 C 0.90627 0.89785 0.36605 0.0
C697 C 0.88307 0.94148 0.33748 0.0
C698 C 0.88781 0.90604 0.27522 0.0
H699 H 0.91043 0.0795 0.18805 0.0
H700 H 0.92002 0.05785 0.22691 0.0
H701 H 0.87838 0.89289 0.23906 0.0
H702 H 0.93753 0.85607 0.35081 0.0
H703 H 0.93129 0.87761 0.31123 0.0
H704 H 0.90107 0.00916 0.30179 0.0
C705 C 0.89858 0.02773 0.21512 0.0
C706 C 0.88266 0.91869 0.25247 0.0
C707 C 0.89326 0.04044 0.19243 0.0
C708 C 0.92188 0.87972 0.34755 0.0
C709 C 0.91805 0.89218 0.32455 0.0
C710 C 0.89551 0.9827 0.28849 0.0
C711 C 0.87783 0.97754 0.22232 0.0
C712 C 0.88368 0.96371 0.24705 0.0
C713 C 0.89856 0.92356 0.31883 0.0
C714 C 0.89415 0.93756 0.29396 0.0
H715 H 0.82544 0.9238 0.17064 0.0
H716 H 0.83374 0.90179 0.20965 0.0
H717 H 0.89104 0.03011 0.26311 0.0
H718 H 0.87427 0.94428 0.37365 0.0
H719 H 0.86698 0.96483 0.33454 0.0
C720 C 0.96197 0.89774 0.52541 0.0
C721 C 0.97301 0.87284 0.50819 0.0
C722 C 0.98074 0.90301 0.54792 0.0
C723 C 0.07746 0.89094 0.584 0.0
H724 H 0.00312 0.90242 0.63423 0.0
C725 C 0.15728 0.93102 0.67881 0.0
C726 C 0.12356 0.91255 0.69729 0.0
C727 C 0.14041 0.92698 0.6559 0.0
C728 C 0.02467 0.89883 0.62064 0.0
H729 H 0.0135 0.83388 0.50225 0.0
H730 H 0.04517 0.84212 0.54107 0.0
H731 H 0.97102 0.89227 0.59573 0.0
H732 H 0.04459 0.87497 0.70504 0.0
H733 H 0.01582 0.86728 0.66606 0.0
H734 H 0.13057 0.89637 0.60914 0.0
C735 C 0.02246 0.85854 0.53722 0.0
C736 C 0.00626 0.89366 0.59808 0.0
C737 C 0.00369 0.85332 0.51468 0.0
C738 C 0.07238 0.88992 0.6917 0.0
C739 C 0.0556 0.88586 0.66895 0.0
C740 C 0.09593 0.89615 0.60662 0.0
C741 C 0.01161 0.88363 0.55453 0.0
C742 C 0.03198 0.88944 0.57906 0.0
C743 C 0.08899 0.9044 0.65033 0.0
C744 C 0.06993 0.89999 0.62564 0.0
H745 H 0.93898 0.91385 0.52147 0.0
H746 H 0.9715 0.92336 0.56007 0.0
H747 H 0.09954 0.88862 0.57032 0.0
H748 H 0.19696 0.94924 0.68202 0.0
H749 H 0.16811 0.94254 0.64255 0.0
C750 C 0.18085 0.97135 0.85642 0.0
C751 C 0.21654 0.98547 0.83882 0.0
C752 C 0.19433 0.99097 0.87881 0.0
C753 C 0.29863 0.09644 0.91332 0.0
H754 H 0.22458 0.01583 0.96492 0.0
C755 C 0.33373 0.1787 1.00739 0.0
C756 C 0.32724 0.14703 1.02593 0.0
C757 C 0.32109 0.1601 0.98473 0.0
C758 C 0.24628 0.03921 0.95089 0.0
H759 H 0.29539 0.03248 0.83199 0.0
H760 H 0.31876 0.06608 0.87057 0.0
H761 H 0.20227 0.98179 0.92656 0.0
H762 H 0.30178 0.06989 1.03416 0.0
H763 H 0.28056 0.03812 0.99541 0.0
H764 H 0.34306 0.15365 0.93776 0.0
C765 C 0.27987 0.04 0.86713 0.0
C766 C 0.23285 0.01959 0.92851 0.0
C767 C 0.2664 0.02017 0.84475 0.0
C768 C 0.30771 0.09606 1.0207 0.0
C769 C 0.29491 0.07749 0.99817 0.0
C770 C 0.31189 0.1162 0.93573 0.0
C771 C 0.2442 0.02601 0.88479 0.0
C772 C 0.25873 0.04756 0.90908 0.0
C773 C 0.30098 0.10886 0.97954 0.0
C774 C 0.28623 0.08803 0.95516 0.0
H775 H 0.14199 0.94513 0.85289 0.0
H776 H 0.16503 0.97914 0.89138 0.0
H777 H 0.31964 0.12012 0.89923 0.0
H778 H 0.34805 0.21801 1.01038 0.0
H779 H 0.32618 0.18606 0.97132 0.0
loop_
_geom_bond_atom_site_label_1
_geom_bond_atom_site_label_2
_geom_bond_distance
_geom_bond_site_symmetry_2
_ccdc_geom_bond_type
Tb0 C2 2.809 . S
Tb0 O20 2.484 . S
Tb0 O21 2.440 . S
Tb0 O22 2.658 1_554 S
Tb0 O23 2.409 . S
Tb0 O24 2.378 . S
Tb0 O28 2.325 . S
Tb0 O31 2.341 1_554 S
Tb1 C11 2.809 . S
Tb1 O22 2.325 . S
Tb1 O25 2.341 1_556 S
Tb1 O26 2.484 . S
Tb1 O27 2.440 . S
Tb1 O28 2.658 1_556 S
Tb1 O29 2.409 . S
Tb1 O30 2.378 . S
C2 Tb0 2.809 . S
C2 C3 1.514 . S
C2 O20 1.248 . S
C2 O21 1.266 . S
C3 C2 1.514 . S
C3 C4 1.359 . S
C3 C8 1.348 . S
C4 C3 1.359 . S
C4 C5 1.380 . S
C4 H32 0.929 . S
C5 C4 1.380 . S
C5 C6 1.347 . S
C5 H33 0.931 . S
C6 C5 1.347 . S
C6 C7 1.369 . S
C7 C6 1.369 . S
C7 C8 1.408 . S
C7 H34 0.930 . S
C8 C3 1.348 . S
C8 C7 1.408 . S
C8 H35 0.930 . S
C9 O22 1.281 1_554 S
C9 O23 1.254 . S
C10 O24 1.236 . S
C10 O25 1.266 . S
C11 Tb1 2.809 . S
C11 C12 1.514 . S
C11 O26 1.248 . S
C11 O27 1.266 . S
C12 C11 1.514 . S
C12 C13 1.359 . S
C12 C17 1.348 . S
C13 C12 1.359 . S
C13 C14 1.380 . S
C13 H36 0.929 . S
C14 C13 1.380 . S
C14 C15 1.347 . S
C14 H37 0.931 . S
C15 C14 1.347 . S
C15 C16 1.369 . S
C16 C15 1.369 . S
C16 C17 1.408 . S
C16 H38 0.930 . S
C17 C12 1.348 . S
C17 C16 1.408 . S
C17 H39 0.930 . S
C18 O28 1.281 . S
C18 O29 1.254 1_554 S
C19 O30 1.236 . S
C19 O31 1.266 . S
O20 Tb0 2.484 . S
O20 C2 1.248 . S
O21 Tb0 2.440 . S
O21 C2 1.266 . S
O22 Tb0 2.658 1_556 S
O22 Tb1 2.325 . S
O22 C9 1.281 1_556 S
O23 Tb0 2.409 . S
O23 C9 1.254 . S
O24 Tb0 2.378 . S
O24 C10 1.236 . S
O25 Tb1 2.341 1_554 S
O25 C10 1.266 . S
O26 Tb1 2.484 . S
O26 C11 1.248 . S
O27 Tb1 2.440 . S
O27 C11 1.266 . S
O28 Tb0 2.325 . S
O28 Tb1 2.658 1_554 S
O28 C18 1.281 . S
O29 Tb1 2.409 . S
O29 C18 1.254 1_556 S
O30 Tb1 2.378 . S
O30 C19 1.236 . S
O31 Tb0 2.341 1_556 S
O31 C19 1.266 . S
H32 C4 0.929 . S
H33 C5 0.931 . S
H34 C7 0.930 . S
H35 C8 0.930 . S
H36 C13 0.929 . S
H37 C14 0.931 . S
H38 C16 0.930 . S
H39 C17 0.930 . S
Tb40 C42 2.809 . S
Tb40 O60 2.484 . S
Tb40 O61 2.440 . S
Tb40 O62 2.658 . S
Tb40 O63 2.409 . S
Tb40 O64 2.378 . S
Tb40 O68 2.325 . S
Tb40 O71 2.341 . S
Tb41 C51 2.809 . S
Tb41 O62 2.325 . S
Tb41 O65 2.341 . S
Tb41 O66 2.484 . S
Tb41 O67 2.440 . S
Tb41 O68 2.658 . S
Tb41 O69 2.409 . S
Tb41 O70 2.378 . S
C42 Tb40 2.809 . S
C42 C43 1.514 . S
C42 O60 1.248 . S
C42 O61 1.266 . S
C43 C42 1.514 . S
C43 C44 1.359 . S
C43 C48 1.348 . S
C44 C43 1.359 . S
C44 C45 1.380 . S
C44 H72 0.929 . S
C45 C44 1.380 . S
C45 C46 1.347 . S
C45 H73 0.931 . S
C46 C45 1.347 . S
C46 C47 1.369 . S
C47 C46 1.369 . S
C47 C48 1.408 . S
C47 H74 0.930 . S
C48 C43 1.348 . S
C48 C47 1.408 . S
C48 H75 0.930 . S
C49 O62 1.281 . S
C49 O63 1.254 . S
C50 O64 1.236 . S
C50 O65 1.266 . S
C51 Tb41 2.809 . S
C51 C52 1.514 . S
C51 O66 1.248 . S
C51 O67 1.266 . S
C52 C51 1.514 . S
C52 C53 1.359 . S
C52 C57 1.348 . S
C53 C52 1.359 . S
C53 C54 1.380 . S
C53 H76 0.929 . S
C54 C53 1.380 . S
C54 C55 1.347 . S
C54 H77 0.931 . S
C55 C54 1.347 . S
C55 C56 1.369 . S
C56 C55 1.369 . S
C56 C57 1.408 . S
C56 H78 0.930 . S
C57 C52 1.348 . S
C57 C56 1.408 . S
C57 H79 0.930 . S
C58 O68 1.281 . S
C58 O69 1.254 . S
C59 O70 1.236 . S
C59 O71 1.266 . S
O60 Tb40 2.484 . S
O60 C42 1.248 . S
O61 Tb40 2.440 . S
O61 C42 1.266 . S
O62 Tb40 2.658 . S
O62 Tb41 2.325 . S
O62 C49 1.281 . S
O63 Tb40 2.409 . S
O63 C49 1.254 . S
O64 Tb40 2.378 . S
O64 C50 1.236 . S
O65 Tb41 2.341 . S
O65 C50 1.266 . S
O66 Tb41 2.484 . S
O66 C51 1.248 . S
O67 Tb41 2.440 . S
O67 C51 1.266 . S
O68 Tb40 2.325 . S
O68 Tb41 2.658 . S
O68 C58 1.281 . S
O69 Tb41 2.409 . S
O69 C58 1.254 . S
O70 Tb41 2.378 . S
O70 C59 1.236 . S
O71 Tb40 2.341 . S
O71 C59 1.266 . S
H72 C44 0.929 . S
H73 C45 0.931 . S
H74 C47 0.930 . S
H75 C48 0.930 . S
H76 C53 0.929 . S
H77 C54 0.931 . S
H78 C56 0.930 . S
H79 C57 0.930 . S
Tb80 C82 2.809 . S
Tb80 O100 2.484 . S
Tb80 O101 2.440 . S
Tb80 O102 2.658 . S
Tb80 O103 2.409 . S
Tb80 O104 2.378 . S
Tb80 O108 2.325 . S
Tb80 O111 2.341 . S
Tb81 C91 2.809 . S
Tb81 O102 2.325 1_655 S
Tb81 O105 2.341 . S
Tb81 O106 2.484 . S
Tb81 O107 2.440 . S
Tb81 O108 2.658 1_655 S
Tb81 O109 2.409 . S
Tb81 O110 2.378 1_655 S
C82 Tb80 2.809 . S
C82 C83 1.514 . S
C82 O100 1.248 . S
C82 O101 1.266 . S
C83 C82 1.514 . S
C83 C84 1.359 . S
C83 C88 1.348 . S
C84 C83 1.359 . S
C84 C85 1.380 . S
C84 H112 0.929 . S
C85 C84 1.380 . S
C85 C86 1.347 . S
C85 H113 0.931 . S
C86 C85 1.347 . S
C86 C87 1.369 . S
C87 C86 1.369 . S
C87 C88 1.408 . S
C87 H114 0.930 . S
C88 C83 1.348 . S
C88 C87 1.408 . S
C88 H115 0.930 . S
C89 O102 1.281 . S
C89 O103 1.254 . S
C90 O104 1.236 1_655 S
C90 O105 1.266 . S
C91 Tb81 2.809 . S
C91 C92 1.514 . S
C91 O106 1.248 . S
C91 O107 1.266 . S
C92 C91 1.514 . S
C92 C93 1.359 . S
C92 C97 1.348 . S
C93 C92 1.359 . S
C93 C94 1.380 . S
C93 H116 0.929 . S
C94 C93 1.380 . S
C94 C95 1.347 . S
C94 H117 0.931 . S
C95 C94 1.347 . S
C95 C96 1.369 . S
C96 C95 1.369 . S
C96 C97 1.408 . S
C96 H118 0.930 . S
C97 C92 1.348 . S
C97 C96 1.408 . S
C97 H119 0.930 . S
C98 O108 1.281 1_655 S
C98 O109 1.254 . S
C99 O110 1.236 . S
C99 O111 1.266 . S
O100 Tb80 2.484 . S
O100 C82 1.248 . S
O101 Tb80 2.440 . S
O101 C82 1.266 . S
O102 Tb80 2.658 . S
O102 Tb81 2.325 1_455 S
O102 C89 1.281 . S
O103 Tb80 2.409 . S
O103 C89 1.254 . S
O104 Tb80 2.378 . S
O104 C90 1.236 1_455 S
O105 Tb81 2.341 . S
O105 C90 1.266 . S
O106 Tb81 2.484 . S
O106 C91 1.248 . S
O107 Tb81 2.440 . S
O107 C91 1.266 . S
O108 Tb80 2.325 . S
O108 Tb81 2.658 1_455 S
O108 C98 1.281 1_455 S
O109 Tb81 2.409 . S
O109 C98 1.254 . S
O110 Tb81 2.378 1_455 S
O110 C99 1.236 . S
O111 Tb80 2.341 . S
O111 C99 1.266 . S
H112 C84 0.929 . S
H113 C85 0.931 . S
H114 C87 0.930 . S
H115 C88 0.930 . S
H116 C93 0.929 . S
H117 C94 0.931 . S
H118 C96 0.930 . S
H119 C97 0.930 . S
Tb120 C122 2.809 . S
Tb120 O140 2.484 . S
Tb120 O141 2.440 . S
Tb120 O142 2.658 1_554 S
Tb120 O143 2.409 . S
Tb120 O144 2.378 . S
Tb120 O148 2.325 . S
Tb120 O151 2.341 1_554 S
Tb121 C131 2.809 . S
Tb121 O142 2.325 1_565 S
Tb121 O145 2.341 1_556 S
Tb121 O146 2.484 . S
Tb121 O147 2.440 . S
Tb121 O148 2.658 1_566 S
Tb121 O149 2.409 . S
Tb121 O150 2.378 1_565 S
C122 Tb120 2.809 . S
C122 C123 1.514 . S
C122 O140 1.248 . S
C122 O141 1.266 . S
C123 C122 1.514 . S
C123 C124 1.359 . S
C123 C128 1.348 . S
C124 C123 1.359 . S
C124 C125 1.380 . S
C124 H152 0.929 . S
C125 C124 1.380 . S
C125 C126 1.347 . S
C125 H153 0.931 . S
C126 C125 1.347 . S
C126 C127 1.369 . S
C127 C126 1.369 . S
C127 C128 1.408 . S
C127 H154 0.930 . S
C128 C123 1.348 . S
C128 C127 1.408 . S
C128 H155 0.930 . S
C129 O142 1.281 1_554 S
C129 O143 1.254 . S
C130 O144 1.236 1_565 S
C130 O145 1.266 . S
C131 Tb121 2.809 . S
C131 C132 1.514 . S
C131 O146 1.248 . S
C131 O147 1.266 . S
C132 C131 1.514 . S
C132 C133 1.359 . S
C132 C137 1.348 . S
C133 C132 1.359 . S
C133 C134 1.380 . S
C133 H156 0.929 . S
C134 C133 1.380 . S
C134 C135 1.347 . S
C134 H157 0.931 . S
C135 C134 1.347 . S
C135 C136 1.369 . S
C136 C135 1.369 . S
C136 C137 1.408 . S
C136 H158 0.930 . S
C137 C132 1.348 . S
C137 C136 1.408 . S
C137 H159 0.930 . S
C138 O148 1.281 1_565 S
C138 O149 1.254 1_554 S
C139 O150 1.236 . S
C139 O151 1.266 . S
O140 Tb120 2.484 . S
O140 C122 1.248 . S
O141 Tb120 2.440 . S
O141 C122 1.266 . S
O142 Tb120 2.658 1_556 S
O142 Tb121 2.325 1_545 S
O142 C129 1.281 1_556 S
O143 Tb120 2.409 . S
O143 C129 1.254 . S
O144 Tb120 2.378 . S
O144 C130 1.236 1_545 S
O145 Tb121 2.341 1_554 S
O145 C130 1.266 . S
O146 Tb121 2.484 . S
O146 C131 1.248 . S
O147 Tb121 2.440 . S
O147 C131 1.266 . S
O148 Tb120 2.325 . S
O148 Tb121 2.658 1_544 S
O148 C138 1.281 1_545 S
O149 Tb121 2.409 . S
O149 C138 1.254 1_556 S
O150 Tb121 2.378 1_545 S
O150 C139 1.236 . S
O151 Tb120 2.341 1_556 S
O151 C139 1.266 . S
H152 C124 0.929 . S
H153 C125 0.931 . S
H154 C127 0.930 . S
H155 C128 0.930 . S
H156 C133 0.929 . S
H157 C134 0.931 . S
H158 C136 0.930 . S
H159 C137 0.930 . S
Tb160 C162 2.809 . S
Tb160 O180 2.484 . S
Tb160 O181 2.440 . S
Tb160 O182 2.658 . S
Tb160 O183 2.409 . S
Tb160 O184 2.378 . S
Tb160 O188 2.325 . S
Tb160 O191 2.341 . S
Tb161 C171 2.811 . S
Tb161 O182 2.325 . S
Tb161 O185 2.341 . S
Tb161 O186 2.484 1_655 S
Tb161 O187 2.440 . S
Tb161 O188 2.658 . S
Tb161 O189 2.409 . S
Tb161 O190 2.378 . S
C162 Tb160 2.809 . S
C162 C163 1.514 . S
C162 O180 1.248 . S
C162 O181 1.266 . S
C163 C162 1.514 . S
C163 C164 1.359 . S
C163 C168 1.348 . S
C164 C163 1.359 . S
C164 C165 1.380 . S
C164 H192 0.929 . S
C165 C164 1.380 . S
C165 C166 1.347 . S
C165 H193 0.931 . S
C166 C165 1.347 . S
C166 C167 1.369 . S
C167 C166 1.369 . S
C167 C168 1.408 . S
C167 H194 0.930 . S
C168 C163 1.348 . S
C168 C167 1.408 . S
C168 H195 0.930 . S
C169 O182 1.281 1_455 S
C169 O183 1.254 1_455 S
C170 O184 1.236 . S
C170 O185 1.266 . S
C171 Tb161 2.811 . S
C171 C172 1.512 1_655 S
C171 O186 1.249 1_655 S
C171 O187 1.267 . S
C172 C171 1.512 1_455 S
C172 C173 1.359 . S
C172 C177 1.348 1_455 S
C173 C172 1.359 . S
C173 C174 1.380 . S
C173 H196 0.929 . S
C174 C173 1.380 . S
C174 C175 1.347 . S
C174 H197 0.931 . S
C175 C174 1.347 . S
C175 C176 1.369 . S
C176 C175 1.369 . S
C176 C177 1.408 1_455 S
C176 H198 0.930 1_455 S
C177 C172 1.348 1_655 S
C177 C176 1.408 1_655 S
C177 H199 0.930 . S
C178 O188 1.281 . S
C178 O189 1.254 . S
C179 O190 1.236 . S
C179 O191 1.266 . S
O180 Tb160 2.484 . S
O180 C162 1.248 . S
O181 Tb160 2.440 . S
O181 C162 1.266 . S
O182 Tb160 2.658 . S
O182 Tb161 2.325 . S
O182 C169 1.281 1_655 S
O183 Tb160 2.409 . S
O183 C169 1.254 1_655 S
O184 Tb160 2.378 . S
O184 C170 1.236 . S
O185 Tb161 2.341 . S
O185 C170 1.266 . S
O186 Tb161 2.484 1_455 S
O186 C171 1.249 1_455 S
O187 Tb161 2.440 . S
O187 C171 1.267 . S
O188 Tb160 2.325 . S
O188 Tb161 2.658 . S
O188 C178 1.281 . S
O189 Tb161 2.409 . S
O189 C178 1.254 . S
O190 Tb161 2.378 . S
O190 C179 1.236 . S
O191 Tb160 2.341 . S
O191 C179 1.266 . S
H192 C164 0.929 . S
H193 C165 0.931 . S
H194 C167 0.930 . S
H195 C168 0.930 . S
H196 C173 0.929 . S
H197 C174 0.931 . S
H198 C176 0.930 1_655 S
H199 C177 0.930 . S
Tb200 C202 2.809 . S
Tb200 O220 2.484 . S
Tb200 O221 2.440 . S
Tb200 O222 2.658 . S
Tb200 O223 2.409 . S
Tb200 O224 2.378 . S
Tb200 O228 2.325 . S
Tb200 O231 2.341 . S
Tb201 C211 2.809 1_565 S
Tb201 O222 2.325 . S
Tb201 O225 2.341 . S
Tb201 O226 2.484 1_565 S
Tb201 O227 2.440 . S
Tb201 O228 2.658 . S
Tb201 O229 2.409 . S
Tb201 O230 2.378 . S
C202 Tb200 2.809 . S
C202 C203 1.514 . S
C202 O220 1.248 . S
C202 O221 1.266 . S
C203 C202 1.514 . S
C203 C204 1.359 . S
C203 C208 1.348 . S
C204 C203 1.359 . S
C204 C205 1.380 . S
C204 H232 0.929 . S
C205 C204 1.380 . S
C205 C206 1.347 . S
C205 H233 0.931 . S
C206 C205 1.347 . S
C206 C207 1.369 . S
C207 C206 1.369 . S
C207 C208 1.408 . S
C207 H234 0.930 . S
C208 C203 1.348 . S
C208 C207 1.408 . S
C208 H235 0.930 . S
C209 O222 1.281 1_545 S
C209 O223 1.254 1_545 S
C210 O224 1.236 . S
C210 O225 1.266 . S
C211 Tb201 2.809 1_545 S
C211 C212 1.514 . S
C211 O226 1.248 . S
C211 O227 1.266 1_545 S
C212 C211 1.514 . S
C212 C213 1.359 . S
C212 C217 1.348 . S
C213 C212 1.359 . S
C213 C214 1.380 . S
C213 H236 0.929 . S
C214 C213 1.380 . S
C214 C215 1.347 . S
C214 H237 0.931 . S
C215 C214 1.347 . S
C215 C216 1.369 . S
C216 C215 1.369 . S
C216 C217 1.408 . S
C216 H238 0.930 . S
C217 C212 1.348 . S
C217 C216 1.408 . S
C217 H239 0.930 1_545 S
C218 O228 1.281 . S
C218 O229 1.254 . S
C219 O230 1.236 . S
C219 O231 1.266 . S
O220 Tb200 2.484 . S
O220 C202 1.248 . S
O221 Tb200 2.440 . S
O221 C202 1.266 . S
O222 Tb200 2.658 . S
O222 Tb201 2.325 . S
O222 C209 1.281 1_565 S
O223 Tb200 2.409 . S
O223 C209 1.254 1_565 S
O224 Tb200 2.378 . S
O224 C210 1.236 . S
O225 Tb201 2.341 . S
O225 C210 1.266 . S
O226 Tb201 2.484 1_545 S
O226 C211 1.248 . S
O227 Tb201 2.440 . S
O227 C211 1.266 1_565 S
O228 Tb200 2.325 . S
O228 Tb201 2.658 . S
O228 C218 1.281 . S
O229 Tb201 2.409 . S
O229 C218 1.254 . S
O230 Tb201 2.378 . S
O230 C219 1.236 . S
O231 Tb200 2.341 . S
O231 C219 1.266 . S
H232 C204 0.929 . S
H233 C205 0.931 . S
H234 C207 0.930 . S
H235 C208 0.930 . S
H236 C213 0.929 . S
H237 C214 0.931 . S
H238 C216 0.930 . S
H239 C217 0.930 1_565 S
C240 C241 1.349 1_546 S
C240 C242 1.327 . S
C240 H265 0.950 . S
C241 C240 1.349 1_564 S
C241 C257 1.349 . S
C242 C240 1.327 . S
C242 C261 1.442 1_556 S
C242 H266 0.950 . S
C243 C260 1.574 . S
C243 C262 1.368 . S
C243 H267 0.949 . S
H244 C248 0.949 . S
C245 C246 1.349 . S
C245 C247 1.327 . S
C245 H268 0.950 . S
C246 C245 1.349 . S
C246 C258 1.349 1_554 S
C247 C245 1.327 . S
C247 C263 1.429 . S
C247 H269 0.950 . S
C248 H244 0.949 . S
C248 C256 1.574 . S
C248 C264 1.368 1_556 S
H249 C257 0.950 . S
H250 C255 0.950 . S
H251 C256 0.949 . S
H252 C258 0.950 . S
H253 C259 0.950 . S
H254 C260 0.949 . S
C255 H250 0.950 . S
C255 C257 1.327 1_545 S
C255 C261 1.432 . S
C256 C248 1.574 . S
C256 H251 0.949 . S
C256 C262 1.368 1_556 S
C257 C241 1.349 . S
C257 H249 0.950 . S
C257 C255 1.327 1_565 S
C258 C246 1.349 1_556 S
C258 H252 0.950 . S
C258 C259 1.327 . S
C259 H253 0.950 . S
C259 C258 1.327 . S
C259 C263 1.429 1_556 S
C260 C243 1.574 . S
C260 H254 0.949 . S
C260 C264 1.368 . S
C261 C242 1.442 1_554 S
C261 C255 1.432 . S
C261 C262 1.507 1_655 S
C262 C243 1.368 . S
C262 C256 1.368 1_554 S
C262 C261 1.507 1_455 S
C263 C247 1.429 . S
C263 C259 1.429 1_554 S
C263 C264 1.523 . S
C264 C248 1.368 1_554 S
C264 C260 1.368 . S
C264 C263 1.523 . S
H265 C240 0.950 . S
H266 C242 0.950 . S
H267 C243 0.949 . S
H268 C245 0.950 . S
H269 C247 0.950 . S
C270 C271 1.349 . S
C270 C272 1.327 . S
C270 H295 0.950 . S
C271 C270 1.349 . S
C271 C287 1.349 . S
C272 C270 1.327 . S
C272 C291 1.429 1_565 S
C272 H296 0.951 . S
C273 C290 1.574 . S
C273 C292 1.368 . S
C273 H297 0.949 . S
H274 C278 0.949 . S
C275 C276 1.349 . S
C275 C277 1.327 . S
C275 H298 0.950 . S
C276 C275 1.349 . S
C276 C288 1.349 . S
C277 C275 1.327 . S
C277 C293 1.429 . S
C277 H299 0.950 . S
C278 H274 0.949 . S
C278 C286 1.574 . S
C278 C294 1.368 . S
H279 C287 0.950 1_655 S
H280 C285 0.950 . S
H281 C286 0.949 . S
H282 C288 0.950 . S
H283 C289 0.950 . S
H284 C290 0.949 . S
C285 H280 0.950 . S
C285 C287 1.327 . S
C285 C291 1.429 1_565 S
C286 C278 1.574 . S
C286 H281 0.949 . S
C286 C292 1.368 . S
C287 C271 1.349 . S
C287 H279 0.950 1_455 S
C287 C285 1.327 . S
C288 C276 1.349 . S
C288 H282 0.950 . S
C288 C289 1.327 . S
C289 H283 0.950 . S
C289 C288 1.327 . S
C289 C293 1.429 . S
C290 C273 1.574 . S
C290 H284 0.949 . S
C290 C294 1.368 . S
C291 C272 1.429 1_545 S
C291 C285 1.429 1_545 S
C291 C292 1.523 . S
C292 C273 1.368 . S
C292 C286 1.368 . S
C292 C291 1.523 . S
C293 C277 1.429 . S
C293 C289 1.429 . S
C293 C294 1.523 . S
C294 C278 1.368 . S
C294 C290 1.368 . S
C294 C293 1.523 . S
H295 C270 0.950 . S
H296 C272 0.951 . S
H297 C273 0.949 . S
H298 C275 0.950 . S
H299 C277 0.950 . S
C300 C301 1.349 . S
C300 C302 1.327 . S
C300 H325 0.950 . S
C301 C300 1.349 . S
C301 C317 1.349 . S
C302 C300 1.327 . S
C302 C321 1.429 . S
C302 H326 0.950 . S
C303 C320 1.574 . S
C303 C322 1.368 . S
C303 H327 0.949 . S
H304 C308 0.949 . S
C305 C306 1.349 . S
C305 C307 1.327 1_655 S
C305 H328 0.950 . S
C306 C305 1.349 . S
C306 C318 1.349 1_655 S
C307 C305 1.327 1_455 S
C307 C323 1.429 . S
C307 H329 0.950 . S
C308 H304 0.949 . S
C308 C316 1.574 . S
C308 C324 1.368 . S
H309 C317 0.950 1_565 S
H310 C315 0.950 . S
H311 C316 0.949 . S
H312 C318 0.950 . S
H313 C319 0.950 . S
H314 C320 0.949 . S
C315 H310 0.950 . S
C315 C317 1.327 . S
C315 C321 1.429 . S
C316 C308 1.574 . S
C316 H311 0.949 . S
C316 C322 1.368 . S
C317 C301 1.349 . S
C317 H309 0.950 1_545 S
C317 C315 1.327 . S
C318 C306 1.349 1_455 S
C318 H312 0.950 . S
C318 C319 1.327 . S
C319 H313 0.950 . S
C319 C318 1.327 . S
C319 C323 1.429 . S
C320 C303 1.574 . S
C320 H314 0.949 . S
C320 C324 1.368 . S
C321 C302 1.429 . S
C321 C315 1.429 . S
C321 C322 1.523 . S
C322 C303 1.368 . S
C322 C316 1.368 . S
C322 C321 1.523 . S
C323 C307 1.429 . S
C323 C319 1.429 . S
C323 C324 1.523 . S
C324 C308 1.368 . S
C324 C320 1.368 . S
C324 C323 1.523 . S
H325 C300 0.950 . S
H326 C302 0.950 . S
H327 C303 0.949 . S
H328 C305 0.950 . S
H329 C307 0.950 . S
C330 C331 1.349 . S
C330 C332 1.327 . S
C330 H355 0.950 . S
C331 C330 1.349 . S
C331 C347 1.349 . S
C332 C330 1.327 . S
C332 C351 1.429 . S
C332 H356 0.950 . S
C333 C350 1.574 . S
C333 C352 1.368 . S
C333 H357 0.949 . S
H334 C338 0.949 . S
C335 C336 1.349 . S
C335 C337 1.327 . S
C335 H358 0.950 . S
C336 C335 1.349 . S
C336 C348 1.349 . S
C337 C335 1.327 . S
C337 C353 1.429 . S
C337 H359 0.950 . S
C338 H334 0.949 . S
C338 C346 1.574 . S
C338 C354 1.368 . S
H339 C347 0.950 . S
H340 C345 0.950 . S
H341 C346 0.949 . S
H342 C348 0.950 . S
H343 C349 0.950 . S
H344 C350 0.949 . S
C345 H340 0.950 . S
C345 C347 1.327 . S
C345 C351 1.429 . S
C346 C338 1.574 . S
C346 H341 0.949 . S
C346 C352 1.368 . S
C347 C331 1.349 . S
C347 H339 0.950 . S
C347 C345 1.327 . S
C348 C336 1.349 . S
C348 H342 0.950 . S
C348 C349 1.327 . S
C349 H343 0.950 . S
C349 C348 1.327 . S
C349 C353 1.429 . S
C350 C333 1.574 . S
C350 H344 0.949 . S
C350 C354 1.368 . S
C351 C332 1.429 . S
C351 C345 1.429 . S
C351 C352 1.523 . S
C352 C333 1.368 . S
C352 C346 1.368 . S
C352 C351 1.523 . S
C353 C337 1.429 . S
C353 C349 1.429 . S
C353 C354 1.523 . S
C354 C338 1.368 . S
C354 C350 1.368 . S
C354 C353 1.523 . S
H355 C330 0.950 . S
H356 C332 0.950 . S
H357 C333 0.949 . S
H358 C335 0.950 . S
H359 C337 0.950 . S
C360 C361 1.349 . S
C360 C362 1.327 . S
C360 H385 0.950 . S
C361 C360 1.349 . S
C361 C377 1.349 . S
C362 C360 1.327 . S
C362 C381 1.429 . S
C362 H386 0.950 . S
C363 C380 1.574 1_455 S
C363 C382 1.368 . S
C363 H387 0.949 . S
H364 C368 0.949 . S
C365 C366 1.349 . S
C365 C367 1.327 . S
C365 H388 0.950 . S
C366 C365 1.349 . S
C366 C378 1.349 . S
C367 C365 1.327 . S
C367 C383 1.429 . S
C367 H389 0.950 . S
C368 H364 0.949 . S
C368 C376 1.574 . S
C368 C384 1.368 1_455 S
H369 C377 0.950 . S
H370 C375 0.950 . S
H371 C376 0.949 . S
H372 C378 0.950 . S
H373 C379 0.950 . S
H374 C380 0.949 . S
C375 H370 0.950 . S
C375 C377 1.327 . S
C375 C381 1.429 . S
C376 C368 1.574 . S
C376 H371 0.949 . S
C376 C382 1.368 . S
C377 C361 1.349 . S
C377 H369 0.950 . S
C377 C375 1.327 . S
C378 C366 1.349 . S
C378 H372 0.950 . S
C378 C379 1.327 . S
C379 H373 0.950 . S
C379 C378 1.327 . S
C379 C383 1.429 . S
C380 C363 1.574 1_655 S
C380 H374 0.949 . S
C380 C384 1.368 . S
C381 C362 1.429 . S
C381 C375 1.429 . S
C381 C382 1.523 . S
C382 C363 1.368 . S
C382 C376 1.368 . S
C382 C381 1.523 . S
C383 C367 1.429 . S
C383 C379 1.429 . S
C383 C384 1.523 . S
C384 C368 1.368 1_655 S
C384 C380 1.368 . S
C384 C383 1.523 . S
H385 C360 0.950 . S
H386 C362 0.950 . S
H387 C363 0.949 . S
H388 C365 0.950 . S
H389 C367 0.950 . S
C390 C391 1.349 . S
C390 C392 1.327 . S
C390 H415 0.950 . S
C391 C390 1.349 . S
C391 C407 1.349 . S
C392 C390 1.327 . S
C392 C411 1.429 . S
C392 H416 0.950 . S
C393 C410 1.574 . S
C393 C412 1.368 . S
C393 H417 0.949 . S
H394 C398 0.949 . S
C395 C396 1.349 . S
C395 C397 1.327 . S
C395 H418 0.950 . S
C396 C395 1.349 . S
C396 C408 1.349 . S
C397 C395 1.327 . S
C397 C413 1.429 . S
C397 H419 0.950 . S
C398 H394 0.949 . S
C398 C406 1.574 1_565 S
C398 C414 1.368 . S
H399 C407 0.950 . S
H400 C405 0.950 . S
H401 C406 0.949 . S
H402 C408 0.950 . S
H403 C409 0.950 . S
H404 C410 0.949 . S
C405 H400 0.950 . S
C405 C407 1.327 . S
C405 C411 1.429 . S
C406 C398 1.574 1_545 S
C406 H401 0.949 . S
C406 C412 1.368 . S
C407 C391 1.349 . S
C407 H399 0.950 . S
C407 C405 1.327 . S
C408 C396 1.349 . S
C408 H402 0.950 . S
C408 C409 1.327 . S
C409 H403 0.950 . S
C409 C408 1.327 . S
C409 C413 1.429 . S
C410 C393 1.574 . S
C410 H404 0.949 . S
C410 C414 1.368 1_545 S
C411 C392 1.429 . S
C411 C405 1.429 . S
C411 C412 1.523 . S
C412 C393 1.368 . S
C412 C406 1.368 . S
C412 C411 1.523 . S
C413 C397 1.429 . S
C413 C409 1.429 . S
C413 C414 1.523 . S
C414 C398 1.368 . S
C414 C410 1.368 1_565 S
C414 C413 1.523 . S
H415 C390 0.950 . S
H416 C392 0.950 . S
H417 C393 0.949 . S
H418 C395 0.950 . S
H419 C397 0.950 . S
C420 C421 1.349 . S
C420 C422 1.327 . S
C420 H445 0.950 . S
C421 C420 1.349 . S
C421 C437 1.349 . S
C422 C420 1.327 . S
C422 C441 1.429 . S
C422 H446 0.950 . S
C423 C440 1.574 . S
C423 C442 1.368 . S
C423 H447 0.949 . S
H424 C428 0.949 . S
C425 C426 1.349 . S
C425 C427 1.327 . S
C425 H448 0.950 . S
C426 C425 1.349 . S
C426 C438 1.349 . S
C427 C425 1.327 . S
C427 C443 1.429 1_455 S
C427 H449 0.950 1_455 S
C428 H424 0.949 . S
C428 C436 1.574 . S
C428 C444 1.368 . S
H429 C437 0.950 . S
H430 C435 0.950 . S
H431 C436 0.949 . S
H432 C438 0.950 . S
H433 C439 0.950 . S
H434 C440 0.949 . S
C435 H430 0.950 . S
C435 C437 1.327 . S
C435 C441 1.429 . S
C436 C428 1.574 . S
C436 H431 0.949 . S
C436 C442 1.368 . S
C437 C421 1.349 . S
C437 H429 0.950 . S
C437 C435 1.327 . S
C438 C426 1.349 . S
C438 H432 0.950 . S
C438 C439 1.327 . S
C439 H433 0.950 . S
C439 C438 1.327 . S
C439 C443 1.429 1_455 S
C440 C423 1.574 . S
C440 H434 0.949 . S
C440 C444 1.368 . S
C441 C422 1.429 . S
C441 C435 1.429 . S
C441 C442 1.523 . S
C442 C423 1.368 . S
C442 C436 1.368 . S
C442 C441 1.523 . S
C443 C427 1.429 1_655 S
C443 C439 1.429 1_655 S
C443 C444 1.523 . S
C444 C428 1.368 . S
C444 C440 1.368 . S
C444 C443 1.523 . S
H445 C420 0.950 . S
H446 C422 0.950 . S
H447 C423 0.949 . S
H448 C425 0.950 . S
H449 C427 0.950 1_655 S
C450 C451 1.349 . S
C450 C452 1.327 . S
C450 H475 0.950 1_455 S
C451 C450 1.349 . S
C451 C467 1.349 . S
C452 C450 1.327 . S
C452 C471 1.429 . S
C452 H476 0.950 . S
C453 C470 1.574 . S
C453 C472 1.368 . S
C453 H477 0.949 . S
H454 C458 0.949 . S
C455 C456 1.349 . S
C455 C457 1.327 . S
C455 H478 0.950 . S
C456 C455 1.349 . S
C456 C468 1.349 . S
C457 C455 1.327 . S
C457 C473 1.429 . S
C457 H479 0.950 . S
C458 H454 0.949 . S
C458 C466 1.574 . S
C458 C474 1.368 . S
H459 C467 0.950 . S
H460 C465 0.950 . S
H461 C466 0.949 . S
H462 C468 0.950 . S
H463 C469 0.950 1_565 S
H464 C470 0.949 . S
C465 H460 0.950 . S
C465 C467 1.327 . S
C465 C471 1.429 . S
C466 C458 1.574 . S
C466 H461 0.949 . S
C466 C472 1.368 . S
C467 C451 1.349 . S
C467 H459 0.950 . S
C467 C465 1.327 . S
C468 C456 1.349 . S
C468 H462 0.950 . S
C468 C469 1.327 . S
C469 H463 0.950 1_545 S
C469 C468 1.327 . S
C469 C473 1.429 . S
C470 C453 1.574 . S
C470 H464 0.949 . S
C470 C474 1.368 . S
C471 C452 1.429 . S
C471 C465 1.429 . S
C471 C472 1.523 . S
C472 C453 1.368 . S
C472 C466 1.368 . S
C472 C471 1.523 . S
C473 C457 1.429 . S
C473 C469 1.429 . S
C473 C474 1.523 1_545 S
C474 C458 1.368 . S
C474 C470 1.368 . S
C474 C473 1.523 1_565 S
H475 C450 0.950 1_655 S
H476 C452 0.950 . S
H477 C453 0.949 . S
H478 C455 0.950 . S
H479 C457 0.950 . S
C480 C481 1.349 . S
C480 C482 1.327 . S
C480 H505 0.950 . S
C481 C480 1.349 . S
C481 C497 1.349 . S
C482 C480 1.327 . S
C482 C501 1.429 . S
C482 H506 0.950 . S
C483 C500 1.574 . S
C483 C502 1.368 . S
C483 H507 0.949 . S
H484 C488 0.949 . S
C485 C486 1.349 . S
C485 C487 1.327 . S
C485 H508 0.950 . S
C486 C485 1.349 . S
C486 C498 1.349 . S
C487 C485 1.327 . S
C487 C503 1.429 . S
C487 H509 0.950 . S
C488 H484 0.949 . S
C488 C496 1.574 . S
C488 C504 1.368 . S
H489 C497 0.950 . S
H490 C495 0.950 . S
H491 C496 0.949 . S
H492 C498 0.950 . S
H493 C499 0.950 . S
H494 C500 0.949 . S
C495 H490 0.950 . S
C495 C497 1.327 . S
C495 C501 1.429 . S
C496 C488 1.574 . S
C496 H491 0.949 . S
C496 C502 1.368 . S
C497 C481 1.349 . S
C497 H489 0.950 . S
C497 C495 1.327 . S
C498 C486 1.349 . S
C498 H492 0.950 . S
C498 C499 1.327 . S
C499 H493 0.950 . S
C499 C498 1.327 . S
C499 C503 1.429 . S
C500 C483 1.574 . S
C500 H494 0.949 . S
C500 C504 1.368 . S
C501 C482 1.429 . S
C501 C495 1.429 . S
C501 C502 1.523 . S
C502 C483 1.368 . S
C502 C496 1.368 . S
C502 C501 1.523 . S
C503 C487 1.429 . S
C503 C499 1.429 . S
C503 C504 1.523 . S
C504 C488 1.368 . S
C504 C500 1.368 . S
C504 C503 1.523 . S
H505 C480 0.950 . S
H506 C482 0.950 . S
H507 C483 0.949 . S
H508 C485 0.950 . S
H509 C487 0.950 . S
C510 C511 1.349 . S
C510 C512 1.327 . S
C510 H535 0.950 . S
C511 C510 1.349 . S
C511 C527 1.349 1_554 S
C512 C510 1.327 . S
C512 C531 1.429 . S
C512 H536 0.950 . S
C513 C530 1.574 . S
C513 C532 1.368 1_556 S
C513 H537 0.949 . S
H514 C518 0.949 . S
C515 C516 1.349 1_556 S
C515 C517 1.327 . S
C515 H538 0.950 . S
C516 C515 1.349 1_554 S
C516 C528 1.346 . S
C517 C515 1.327 . S
C517 C533 1.429 1_556 S
C517 H539 0.950 . S
C518 H514 0.949 . S
C518 C526 1.574 . S
C518 C534 1.368 . S
H519 C527 0.950 . S
H520 C525 0.950 . S
H521 C526 0.949 . S
H522 C528 0.938 1_565 S
H523 C529 0.950 . S
H524 C530 0.949 . S
C525 H520 0.950 . S
C525 C527 1.327 . S
C525 C531 1.429 1_556 S
C526 C518 1.574 . S
C526 H521 0.949 . S
C526 C532 1.368 . S
C527 C511 1.349 1_556 S
C527 H519 0.950 . S
C527 C525 1.327 . S
C528 C516 1.346 . S
C528 H522 0.938 1_545 S
C528 C529 1.341 . S
C529 H523 0.950 . S
C529 C528 1.341 . S
C529 C533 1.429 . S
C530 C513 1.574 . S
C530 H524 0.949 . S
C530 C534 1.368 1_556 S
C531 C512 1.429 . S
C531 C525 1.429 1_554 S
C531 C532 1.523 . S
C532 C513 1.368 1_554 S
C532 C526 1.368 . S
C532 C531 1.523 . S
C533 C517 1.429 1_554 S
C533 C529 1.429 . S
C533 C534 1.523 . S
C534 C518 1.368 . S
C534 C530 1.368 1_554 S
C534 C533 1.523 . S
H535 C510 0.950 . S
H536 C512 0.950 . S
H537 C513 0.949 . S
H538 C515 0.950 . S
H539 C517 0.950 . S
C540 C541 1.349 . S
C540 C542 1.327 . S
C540 H565 0.950 . S
C541 C540 1.349 . S
C541 C557 1.349 . S
C542 C540 1.327 . S
C542 C561 1.429 . S
C542 H566 0.950 . S
C543 C560 1.574 . S
C543 C562 1.368 . S
C543 H567 0.949 . S
H544 C548 0.949 . S
C545 C546 1.349 . S
C545 C547 1.327 . S
C545 H568 0.950 . S
C546 C545 1.349 . S
C546 C558 1.349 . S
C547 C545 1.327 . S
C547 C563 1.429 . S
C547 H569 0.950 . S
C548 H544 0.949 . S
C548 C556 1.574 . S
C548 C564 1.368 . S
H549 C557 0.950 . S
H550 C555 0.950 . S
H551 C556 0.949 . S
H552 C558 0.950 . S
H553 C559 0.950 . S
H554 C560 0.949 . S
C555 H550 0.950 . S
C555 C557 1.327 . S
C555 C561 1.429 . S
C556 C548 1.574 . S
C556 H551 0.949 . S
C556 C562 1.368 . S
C557 C541 1.349 . S
C557 H549 0.950 . S
C557 C555 1.327 . S
C558 C546 1.349 . S
C558 H552 0.950 . S
C558 C559 1.327 . S
C559 H553 0.950 . S
C559 C558 1.327 . S
C559 C563 1.429 . S
C560 C543 1.574 . S
C560 H554 0.949 . S
C560 C564 1.368 . S
C561 C542 1.429 . S
C561 C555 1.429 . S
C561 C562 1.523 . S
C562 C543 1.368 . S
C562 C556 1.368 . S
C562 C561 1.523 . S
C563 C547 1.429 . S
C563 C559 1.429 . S
C563 C564 1.523 . S
C564 C548 1.368 . S
C564 C560 1.368 . S
C564 C563 1.523 . S
H565 C540 0.950 . S
H566 C542 0.950 . S
H567 C543 0.949 . S
H568 C545 0.950 . S
H569 C547 0.950 . S
C570 C571 1.336 1_655 S
C570 C572 1.327 1_655 S
C570 H595 0.950 . S
C571 C570 1.336 1_455 S
C571 C587 1.362 . S
C572 C570 1.327 1_455 S
C572 C591 1.429 . S
C572 H596 0.950 . S
C573 C590 1.574 . S
C573 C592 1.368 . S
C573 H597 0.949 . S
H574 C578 0.949 . S
C575 C576 1.349 . S
C575 C577 1.327 . S
C575 H598 0.950 . S
C576 C575 1.349 . S
C576 C588 1.349 . S
C577 C575 1.327 . S
C577 C593 1.429 . S
C577 H599 0.950 . S
C578 H574 0.949 . S
C578 C586 1.574 . S
C578 C594 1.368 . S
H579 C587 0.950 . S
H580 C585 0.950 . S
H581 C586 0.949 . S
H582 C588 0.950 . S
H583 C589 0.950 . S
H584 C590 0.949 . S
C585 H580 0.950 . S
C585 C587 1.327 . S
C585 C591 1.429 . S
C586 C578 1.574 . S
C586 H581 0.949 . S
C586 C592 1.368 . S
C587 C571 1.362 . S
C587 H579 0.950 . S
C587 C585 1.327 . S
C588 C576 1.349 . S
C588 H582 0.950 . S
C588 C589 1.327 . S
C589 H583 0.950 . S
C589 C588 1.327 . S
C589 C593 1.429 . S
C590 C573 1.574 . S
C590 H584 0.949 . S
C590 C594 1.368 . S
C591 C572 1.429 . S
C591 C585 1.429 . S
C591 C592 1.523 . S
C592 C573 1.368 . S
C592 C586 1.368 . S
C592 C591 1.523 . S
C593 C577 1.429 . S
C593 C589 1.429 . S
C593 C594 1.523 . S
C594 C578 1.368 . S
C594 C590 1.368 . S
C594 C593 1.523 . S
H595 C570 0.950 . S
H596 C572 0.950 . S
H597 C573 0.949 . S
H598 C575 0.950 . S
H599 C577 0.950 . S
C600 C601 1.349 . S
C600 C602 1.327 . S
C600 H625 0.950 . S
C601 C600 1.349 . S
C601 C617 1.349 . S
C602 C600 1.327 . S
C602 C621 1.429 . S
C602 H626 0.950 . S
C603 C620 1.574 . S
C603 C622 1.368 . S
C603 H627 0.949 . S
H604 C608 0.949 . S
C605 C606 1.349 . S
C605 C607 1.327 . S
C605 H628 0.950 . S
C606 C605 1.349 . S
C606 C618 1.349 . S
C607 C605 1.327 . S
C607 C623 1.429 . S
C607 H629 0.950 . S
C608 H604 0.949 . S
C608 C616 1.574 . S
C608 C624 1.368 . S
H609 C617 0.950 . S
H610 C615 0.950 . S
H611 C616 0.949 . S
H612 C618 0.950 . S
H613 C619 0.950 . S
H614 C620 0.949 . S
C615 H610 0.950 . S
C615 C617 1.327 . S
C615 C621 1.429 . S
C616 C608 1.574 . S
C616 H611 0.949 . S
C616 C622 1.368 . S
C617 C601 1.349 . S
C617 H609 0.950 . S
C617 C615 1.327 . S
C618 C606 1.349 . S
C618 H612 0.950 . S
C618 C619 1.327 . S
C619 H613 0.950 . S
C619 C618 1.327 . S
C619 C623 1.429 . S
C620 C603 1.574 . S
C620 H614 0.949 . S
C620 C624 1.368 . S
C621 C602 1.429 . S
C621 C615 1.429 . S
C621 C622 1.523 . S
C622 C603 1.368 . S
C622 C616 1.368 . S
C622 C621 1.523 . S
C623 C607 1.429 . S
C623 C619 1.429 . S
C623 C624 1.523 . S
C624 C608 1.368 . S
C624 C620 1.368 . S
C624 C623 1.523 . S
H625 C600 0.950 . S
H626 C602 0.950 . S
H627 C603 0.949 . S
H628 C605 0.950 . S
H629 C607 0.950 . S
C630 C631 1.349 . S
C630 C632 1.327 . S
C630 H655 0.950 . S
C631 C630 1.349 . S
C631 C647 1.349 . S
C632 C630 1.327 . S
C632 C651 1.429 . S
C632 H656 0.950 . S
C633 C650 1.574 . S
C633 C652 1.368 . S
C633 H657 0.949 . S
H634 C638 0.949 . S
C635 C636 1.349 . S
C635 C637 1.327 . S
C635 H658 0.950 . S
C636 C635 1.349 . S
C636 C648 1.349 . S
C637 C635 1.327 . S
C637 C653 1.429 . S
C637 H659 0.950 . S
C638 H634 0.949 . S
C638 C646 1.574 . S
C638 C654 1.368 . S
H639 C647 0.950 . S
H640 C645 0.950 . S
H641 C646 0.949 . S
H642 C648 0.950 . S
H643 C649 0.950 . S
H644 C650 0.949 . S
C645 H640 0.950 . S
C645 C647 1.327 . S
C645 C651 1.429 . S
C646 C638 1.574 . S
C646 H641 0.949 . S
C646 C652 1.368 . S
C647 C631 1.349 . S
C647 H639 0.950 . S
C647 C645 1.327 . S
C648 C636 1.349 . S
C648 H642 0.950 . S
C648 C649 1.327 . S
C649 H643 0.950 . S
C649 C648 1.327 . S
C649 C653 1.429 . S
C650 C633 1.574 . S
C650 H644 0.949 . S
C650 C654 1.368 . S
C651 C632 1.429 . S
C651 C645 1.429 . S
C651 C652 1.523 . S
C652 C633 1.368 . S
C652 C646 1.368 . S
C652 C651 1.523 . S
C653 C637 1.429 . S
C653 C649 1.429 . S
C653 C654 1.523 . S
C654 C638 1.368 . S
C654 C650 1.368 . S
C654 C653 1.523 . S
H655 C630 0.950 . S
H656 C632 0.950 . S
H657 C633 0.949 . S
H658 C635 0.950 . S
H659 C637 0.950 . S
C660 C661 1.349 . S
C660 C662 1.327 . S
C660 H685 0.950 . S
C661 C660 1.349 . S
C661 C677 1.349 . S
C662 C660 1.327 . S
C662 C681 1.429 . S
C662 H686 0.950 . S
C663 C680 1.574 . S
C663 C682 1.368 . S
C663 H687 0.949 . S
H664 C668 0.949 . S
C665 C666 1.349 . S
C665 C667 1.327 . S
C665 H688 0.950 . S
C666 C665 1.349 . S
C666 C678 1.349 . S
C667 C665 1.327 . S
C667 C683 1.429 . S
C667 H689 0.950 . S
C668 H664 0.949 . S
C668 C676 1.574 . S
C668 C684 1.368 . S
H669 C677 0.950 . S
H670 C675 0.950 . S
H671 C676 0.949 . S
H672 C678 0.950 . S
H673 C679 0.950 . S
H674 C680 0.949 . S
C675 H670 0.950 . S
C675 C677 1.327 . S
C675 C681 1.429 . S
C676 C668 1.574 . S
C676 H671 0.949 . S
C676 C682 1.368 . S
C677 C661 1.349 . S
C677 H669 0.950 . S
C677 C675 1.327 . S
C678 C666 1.349 . S
C678 H672 0.950 . S
C678 C679 1.327 . S
C679 H673 0.950 . S
C679 C678 1.327 . S
C679 C683 1.429 . S
C680 C663 1.574 . S
C680 H674 0.949 . S
C680 C684 1.368 . S
C681 C662 1.429 . S
C681 C675 1.429 . S
C681 C682 1.523 . S
C682 C663 1.368 . S
C682 C676 1.368 . S
C682 C681 1.523 . S
C683 C667 1.429 . S
C683 C679 1.429 . S
C683 C684 1.523 . S
C684 C668 1.368 . S
C684 C680 1.368 . S
C684 C683 1.523 . S
H685 C660 0.950 . S
H686 C662 0.950 . S
H687 C663 0.949 . S
H688 C665 0.950 . S
H689 C667 0.950 . S
C690 C691 1.349 . S
C690 C692 1.327 . S
C690 H715 0.950 . S
C691 C690 1.349 . S
C691 C707 1.349 . S
C692 C690 1.327 . S
C692 C711 1.429 . S
C692 H716 0.950 . S
C693 C710 1.574 . S
C693 C712 1.368 . S
C693 H717 0.949 . S
H694 C698 0.949 . S
C695 C696 1.349 . S
C695 C697 1.327 . S
C695 H718 0.950 . S
C696 C695 1.349 . S
C696 C708 1.349 . S
C697 C695 1.327 . S
C697 C713 1.429 . S
C697 H719 0.950 . S
C698 H694 0.949 . S
C698 C706 1.574 . S
C698 C714 1.368 . S
H699 C707 0.950 . S
H700 C705 0.950 . S
H701 C706 0.949 . S
H702 C708 0.950 . S
H703 C709 0.950 . S
H704 C710 0.949 . S
C705 H700 0.950 . S
C705 C707 1.327 . S
C705 C711 1.429 . S
C706 C698 1.574 . S
C706 H701 0.949 . S
C706 C712 1.368 . S
C707 C691 1.349 . S
C707 H699 0.950 . S
C707 C705 1.327 . S
C708 C696 1.349 . S
C708 H702 0.950 . S
C708 C709 1.327 . S
C709 H703 0.950 . S
C709 C708 1.327 . S
C709 C713 1.429 . S
C710 C693 1.574 . S
C710 H704 0.949 . S
C710 C714 1.368 . S
C711 C692 1.429 . S
C711 C705 1.429 . S
C711 C712 1.523 . S
C712 C693 1.368 . S
C712 C706 1.368 . S
C712 C711 1.523 . S
C713 C697 1.429 . S
C713 C709 1.429 . S
C713 C714 1.523 . S
C714 C698 1.368 . S
C714 C710 1.368 . S
C714 C713 1.523 . S
H715 C690 0.950 . S
H716 C692 0.950 . S
H717 C693 0.949 . S
H718 C695 0.950 . S
H719 C697 0.950 . S
C720 C721 1.349 . S
C720 C722 1.327 . S
C720 H745 0.950 1_455 S
C721 C720 1.349 . S
C721 C737 1.349 . S
C722 C720 1.327 . S
C722 C741 1.429 . S
C722 H746 0.950 . S
C723 C740 1.574 . S
C723 C742 1.368 . S
C723 H747 0.949 . S
H724 C728 0.949 . S
C725 C726 1.349 . S
C725 C727 1.327 . S
C725 H748 0.950 . S
C726 C725 1.349 . S
C726 C738 1.349 . S
C727 C725 1.327 . S
C727 C743 1.429 . S
C727 H749 0.950 . S
C728 H724 0.949 . S
C728 C736 1.574 . S
C728 C744 1.368 . S
H729 C737 0.950 . S
H730 C735 0.950 . S
H731 C736 0.949 . S
H732 C738 0.950 . S
H733 C739 0.950 . S
H734 C740 0.949 . S
C735 H730 0.950 . S
C735 C737 1.327 . S
C735 C741 1.429 . S
C736 C728 1.574 . S
C736 H731 0.949 . S
C736 C742 1.368 . S
C737 C721 1.349 . S
C737 H729 0.950 . S
C737 C735 1.327 . S
C738 C726 1.349 . S
C738 H732 0.950 . S
C738 C739 1.327 . S
C739 H733 0.950 . S
C739 C738 1.327 . S
C739 C743 1.429 . S
C740 C723 1.574 . S
C740 H734 0.949 . S
C740 C744 1.368 . S
C741 C722 1.429 . S
C741 C735 1.429 . S
C741 C742 1.523 . S
C742 C723 1.368 . S
C742 C736 1.368 . S
C742 C741 1.523 . S
C743 C727 1.429 . S
C743 C739 1.429 . S
C743 C744 1.523 . S
C744 C728 1.368 . S
C744 C740 1.368 . S
C744 C743 1.523 . S
H745 C720 0.950 1_655 S
H746 C722 0.950 . S
H747 C723 0.949 . S
H748 C725 0.950 . S
H749 C727 0.950 . S
C750 C751 1.349 1_565 S
C750 C752 1.327 . S
C750 H775 0.950 . S
C751 C750 1.349 1_545 S
C751 C767 1.349 . S
C752 C750 1.327 . S
C752 C771 1.429 1_565 S
C752 H776 0.950 . S
C753 C770 1.574 . S
C753 C772 1.368 . S
C753 H777 0.949 . S
H754 C758 0.949 . S
C755 C756 1.349 . S
C755 C757 1.327 . S
C755 H778 0.950 . S
C756 C755 1.349 . S
C756 C768 1.349 . S
C757 C755 1.327 . S
C757 C773 1.429 . S
C757 H779 0.950 . S
C758 H754 0.949 . S
C758 C766 1.574 . S
C758 C774 1.368 . S
H759 C767 0.950 . S
H760 C765 0.950 . S
H761 C766 0.949 1_565 S
H762 C768 0.950 . S
H763 C769 0.950 . S
H764 C770 0.949 . S
C765 H760 0.950 . S
C765 C767 1.327 . S
C765 C771 1.429 . S
C766 C758 1.574 . S
C766 H761 0.949 1_545 S
C766 C772 1.368 . S
C767 C751 1.349 . S
C767 H759 0.950 . S
C767 C765 1.327 . S
C768 C756 1.349 . S
C768 H762 0.950 . S
C768 C769 1.327 . S
C769 H763 0.950 . S
C769 C768 1.327 . S
C769 C773 1.429 . S
C770 C753 1.574 . S
C770 H764 0.949 . S
C770 C774 1.368 . S
C771 C752 1.429 1_545 S
C771 C765 1.429 . S
C771 C772 1.523 . S
C772 C753 1.368 . S
C772 C766 1.368 . S
C772 C771 1.523 . S
C773 C757 1.429 . S
C773 C769 1.429 . S
C773 C774 1.523 . S
C774 C758 1.368 . S
C774 C770 1.368 . S
C774 C773 1.523 . S
H775 C750 0.950 . S
H776 C752 0.950 . S
H777 C753 0.949 . S
H778 C755 0.950 . S
H779 C757 0.950 . S
C241 C129 1.081 1_565 S
C246 C9 1.081 . S
C271 C169 1.081 . S
C276 C49 1.081 . S
C301 C209 1.081 . S
C306 C89 1.081 1_655 S
C331 C15 0.598 . S
C336 C86 0.567 . S
C361 C55 0.598 . S
C366 C126 0.567 . S
C391 C95 0.598 . S
C396 C166 0.567 . S
C421 C135 0.598 . S
C426 C206 0.567 . S
C451 C175 0.598 . S
C456 C6 0.567 . S
C481 C215 0.598 . S
C486 C46 0.567 . S
C511 C18 1.283 . S
C516 C138 1.283 1_545 S
C541 C58 1.283 . S
C546 C178 1.283 . S
C571 C98 1.286 1_455 S
C576 C218 1.284 . S
C601 C10 3.890 . S
C606 C59 3.943 . S
C631 C50 3.890 . S
C636 C99 3.943 . S
C661 C90 3.890 . S
C666 C139 3.943 . S
C691 C130 3.890 . S
C696 C179 3.943 . S
C721 C170 3.890 1_455 S
C726 C219 3.943 . S
C751 C210 3.890 1_545 S
C756 C19 3.943 . S
