# Generated by pormake.
# Topology uoc, (4)-cn, num edge types: 1
# Building blocks:
#     Node 0, Type 0, BuildingBlock: QUQFOY_clean_sbu_1, # of connection points: 4
#     Node 1, Type 0, BuildingBlock: QUQFOY_clean_sbu_1, # of connection points: 4
#     Node 2, Type 0, BuildingBlock: QUQFOY_clean_sbu_1, # of connection points: 4
#     Node 3, Type 0, BuildingBlock: QUQFOY_clean_sbu_1, # of connection points: 4
#     Node 4, Type 0, BuildingBlock: QUQFOY_clean_sbu_1, # of connection points: 4
#     Node 5, Type 0, BuildingBlock: QUQFOY_clean_sbu_1, # of connection points: 4
#     Node 6, Type 0, BuildingBlock: QUQFOY_clean_sbu_1, # of connection points: 4
#     Node 7, Type 0, BuildingBlock: QUQFOY_clean_sbu_1, # of connection points: 4
#     Edge 8, Type (0, 0), BuildingBlock: UVAHIK_clean_linker_0, # of connection points: 2
#     Edge 9, Type (0, 0), BuildingBlock: UVAHIK_clean_linker_0, # of connection points: 2
#     Edge 10, Type (0, 0), BuildingBlock: UVAHIK_clean_linker_0, # of connection points: 2
#     Edge 11, Type (0, 0), BuildingBlock: UVAHIK_clean_linker_0, # of connection points: 2
#     Edge 12, Type (0, 0), BuildingBlock: UVAHIK_clean_linker_0, # of connection points: 2
#     Edge 13, Type (0, 0), BuildingBlock: UVAHIK_clean_linker_0, # of connection points: 2
#     Edge 14, Type (0, 0), BuildingBlock: UVAHIK_clean_linker_0, # of connection points: 2
#     Edge 15, Type (0, 0), BuildingBlock: UVAHIK_clean_linker_0, # of connection points: 2
#     Edge 16, Type (0, 0), BuildingBlock: UVAHIK_clean_linker_0, # of connection points: 2
#     Edge 17, Type (0, 0), BuildingBlock: UVAHIK_clean_linker_0, # of connection points: 2
#     Edge 18, Type (0, 0), BuildingBlock: UVAHIK_clean_linker_0, # of connection points: 2
#     Edge 19, Type (0, 0), BuildingBlock: UVAHIK_clean_linker_0, # of connection points: 2
#     Edge 20, Type (0, 0), BuildingBlock: UVAHIK_clean_linker_0, # of connection points: 2
#     Edge 21, Type (0, 0), BuildingBlock: UVAHIK_clean_linker_0, # of connection points: 2
#     Edge 22, Type (0, 0), BuildingBlock: UVAHIK_clean_linker_0, # of connection points: 2
#     Edge 23, Type (0, 0), BuildingBlock: UVAHIK_clean_linker_0, # of connection points: 2
# Relax obj value: 0.074
# Max RMSD: 0.105
# Mean RMSD: 0.105
data_MOF--net-uoc--node1-QUQFOY_clean_sbu_1--edge1-UVAHIK_clean_linker_0
_symmetry_space_group_name_H-M    P1
_symmetry_Int_Tables_number       1
_symmetry_cell_setting            triclinic
loop_
_symmetry_equiv_pos_as_xyz
'x, y, z'
_cell_length_a     35.500326
_cell_length_b     35.494727
_cell_length_c     72.809014
_cell_angle_alpha  89.968385
_cell_angle_beta   89.870696
_cell_angle_gamma 111.22368
loop_
_atom_site_label
_atom_site_type_symbol
_atom_site_fract_x
_atom_site_fract_y
_atom_site_fract_z
_atom_type_partial_charge
O0 O 0.14009 0.22273 0.11899 0.0
Cd1 Cd 0.17768 0.28208 0.12268 0.0
Cd2 Cd 0.10652 0.29107 0.12732 0.0
O3 O 0.08352 0.23431 0.116 0.0
O4 O 0.22894 0.2858 0.11027 0.0
O5 O 0.18954 0.31759 0.1003 0.0
C6 C 0.22082 0.30763 0.09784 0.0
C7 C 0.07922 0.33914 0.1184 0.0
C8 C 0.10263 0.21025 0.11524 0.0
C9 C 0.16078 0.30113 0.16038 0.0
O10 O 0.12547 0.29444 0.15424 0.0
O11 O 0.1893 0.30242 0.1495 0.0
O12 O 0.05955 0.30897 0.12876 0.0
O13 O 0.11457 0.34176 0.11269 0.0
O14 O 0.72636 0.63389 0.3993 0.0
Cd15 Cd 0.78564 0.67121 0.39501 0.0
Cd16 Cd 0.79316 0.59916 0.39056 0.0
O17 O 0.73663 0.57659 0.40218 0.0
O18 O 0.78882 0.72289 0.40682 0.0
O19 O 0.82123 0.68456 0.41735 0.0
C20 C 0.81065 0.71555 0.41946 0.0
C21 C 0.84149 0.57218 0.39936 0.0
C22 C 0.71325 0.59641 0.40312 0.0
C23 C 0.80275 0.65278 0.35721 0.0
O24 O 0.79572 0.61756 0.36359 0.0
O25 O 0.80513 0.68186 0.36793 0.0
O26 O 0.81112 0.55223 0.38923 0.0
O27 O 0.84415 0.60761 0.40492 0.0
O28 O 0.35309 0.26722 0.62066 0.0
Cd29 Cd 0.31478 0.2083 0.62353 0.0
Cd30 Cd 0.38477 0.19455 0.6274 0.0
O31 O 0.40918 0.25418 0.61886 0.0
O32 O 0.26436 0.20335 0.61014 0.0
O33 O 0.30711 0.17462 0.60081 0.0
C34 C 0.27525 0.18326 0.59777 0.0
C35 C 0.41481 0.14946 0.61706 0.0
C36 C 0.39098 0.2791 0.61801 0.0
C37 C 0.32823 0.18092 0.66036 0.0
O38 O 0.36232 0.18344 0.65386 0.0
O39 O 0.30211 0.1872 0.65012 0.0
O40 O 0.4324 0.17755 0.62872 0.0
O41 O 0.38021 0.1475 0.61072 0.0
O42 O 0.77701 0.85208 0.89654 0.0
Cd43 Cd 0.71692 0.81611 0.89356 0.0
Cd44 Cd 0.71026 0.88812 0.89031 0.0
O45 O 0.76718 0.90898 0.90158 0.0
O46 O 0.71199 0.76438 0.90585 0.0
O47 O 0.68295 0.80576 0.91643 0.0
C48 C 0.69178 0.77374 0.91868 0.0
C49 C 0.66273 0.91572 0.89983 0.0
C50 C 0.79059 0.88911 0.90114 0.0
C51 C 0.69805 0.83566 0.85646 0.0
O52 O 0.7067 0.87087 0.86311 0.0
O53 O 0.69501 0.80596 0.86691 0.0
O54 O 0.69334 0.93585 0.8898 0.0
O55 O 0.65949 0.87982 0.90496 0.0
O56 O 0.63901 0.72151 0.61928 0.0
Cd57 Cd 0.67507 0.78159 0.62225 0.0
Cd58 Cd 0.60226 0.78739 0.62684 0.0
O59 O 0.5808 0.72983 0.61623 0.0
O60 O 0.72733 0.78486 0.61093 0.0
O61 O 0.68808 0.81477 0.59905 0.0
C62 C 0.71974 0.80505 0.59764 0.0
C63 C 0.57453 0.8346 0.61711 0.0
C64 C 0.60143 0.70714 0.61577 0.0
C65 C 0.65718 0.80121 0.65981 0.0
O66 O 0.6215 0.79259 0.65374 0.0
O67 O 0.68596 0.80355 0.64888 0.0
O68 O 0.55484 0.80474 0.62764 0.0
O69 O 0.61004 0.83724 0.61162 0.0
O70 O 0.23144 0.13811 0.89846 0.0
Cd71 Cd 0.28949 0.17799 0.89484 0.0
Cd72 Cd 0.30286 0.10667 0.88928 0.0
O73 O 0.24317 0.08122 0.8976 0.0
O74 O 0.289 0.22868 0.90634 0.0
O75 O 0.32412 0.19356 0.91748 0.0
C76 C 0.31153 0.22331 0.91918 0.0
C77 C 0.34822 0.07655 0.89903 0.0
C78 C 0.21896 0.09989 0.89984 0.0
C79 C 0.31585 0.16567 0.85731 0.0
O80 O 0.31421 0.13143 0.86326 0.0
O81 O 0.30895 0.19079 0.86799 0.0
O82 O 0.32057 0.05964 0.88709 0.0
O83 O 0.34962 0.11053 0.90595 0.0
O84 O 0.85702 0.7691 0.11923 0.0
Cd85 Cd 0.82057 0.70926 0.12275 0.0
Cd86 Cd 0.89316 0.70316 0.12755 0.0
O87 O 0.91499 0.76016 0.11636 0.0
O88 O 0.76858 0.70605 0.11131 0.0
O89 O 0.80762 0.6754 0.09981 0.0
C90 C 0.7762 0.68543 0.09819 0.0
C91 C 0.921 0.65571 0.11837 0.0
C92 C 0.8946 0.78302 0.11559 0.0
C93 C 0.83811 0.69073 0.16051 0.0
O94 O 0.8738 0.69906 0.15444 0.0
O95 O 0.8094 0.68812 0.14956 0.0
O96 O 0.94051 0.68585 0.12872 0.0
O97 O 0.88555 0.65285 0.11278 0.0
O98 O 0.27369 0.35121 0.39755 0.0
Cd99 Cd 0.21348 0.31585 0.39424 0.0
Cd100 Cd 0.20662 0.38719 0.39085 0.0
O101 O 0.26275 0.40749 0.40281 0.0
O102 O 0.20499 0.26417 0.40739 0.0
O103 O 0.17995 0.30967 0.41695 0.0
C104 C 0.18622 0.27646 0.41988 0.0
C105 C 0.159 0.41495 0.39994 0.0
C106 C 0.28654 0.38803 0.40251 0.0
C107 C 0.19562 0.33528 0.35702 0.0
O108 O 0.20436 0.37054 0.36363 0.0
O109 O 0.19193 0.30557 0.36756 0.0
O110 O 0.19006 0.43511 0.39016 0.0
O111 O 0.15532 0.3789 0.40502 0.0
C112 C 0.2329 0.33723 0.06607 0.0
C113 C 0.24361 0.31628 0.08027 0.0
C114 C 0.24922 0.33872 0.04843 0.0
C115 C 0.32701 0.31396 0.02114 0.0
H116 H 0.2461 0.29137 0.98289 0.0
C117 C 0.33468 0.23614 0.95194 0.0
C118 C 0.31804 0.24739 0.93631 0.0
C119 C 0.33335 0.25377 0.96902 0.0
C120 C 0.26938 0.29842 0.9933 0.0
H121 H 0.28188 0.28271 0.08738 0.0
H122 H 0.30953 0.28453 0.05673 0.0
H123 H 0.2297 0.30639 0.01371 0.0
H124 H 0.28988 0.28828 0.92611 0.0
H125 H 0.28794 0.31914 0.95578 0.0
H126 H 0.36604 0.30407 1.00066 0.0
C127 C 0.28899 0.30034 0.05913 0.0
C128 C 0.25999 0.30718 0.01104 0.0
C129 C 0.27291 0.2991 0.07675 0.0
C130 C 0.30266 0.27862 0.93789 0.0
C131 C 0.30131 0.29617 0.95493 0.0
C132 C 0.33633 0.30491 1.00336 0.0
C133 C 0.27639 0.31903 0.04458 0.0
C134 C 0.28842 0.31447 0.02529 0.0
C135 C 0.31532 0.28296 0.97081 0.0
C136 C 0.3074 0.29649 0.98929 0.0
H137 H 0.21061 0.35103 0.06834 0.0
H138 H 0.2395 0.35421 0.03768 0.0
H139 H 0.34989 0.31999 0.03168 0.0
H140 H 0.34672 0.21216 0.9512 0.0
H141 H 0.34426 0.24277 0.981 0.0
C142 C 0.8285 0.69536 0.32896 0.0
C143 C 0.80488 0.65847 0.33706 0.0
C144 C 0.83043 0.6995 0.30978 0.0
C145 C 0.80583 0.63694 0.26676 0.0
H146 H 0.82473 0.74056 0.2436 0.0
C147 C 0.79343 0.66339 0.18802 0.0
C148 C 0.8312 0.68699 0.18058 0.0
C149 C 0.78788 0.66008 0.20711 0.0
C150 C 0.81921 0.71144 0.24996 0.0
H151 H 0.7633 0.59763 0.33159 0.0
H152 H 0.76464 0.60535 0.29853 0.0
H153 H 0.81919 0.73478 0.27702 0.0
H154 H 0.89228 0.72659 0.18724 0.0
H155 H 0.88201 0.72179 0.22047 0.0
H156 H 0.80461 0.61368 0.23948 0.0
C157 C 0.78346 0.63065 0.30666 0.0
C158 C 0.8165 0.70812 0.26912 0.0
C159 C 0.78241 0.62624 0.32571 0.0
C160 C 0.86293 0.70787 0.19256 0.0
C161 C 0.85707 0.7054 0.21154 0.0
C162 C 0.80756 0.64013 0.24763 0.0
C163 C 0.80793 0.66711 0.29833 0.0
C164 C 0.8101 0.67084 0.27785 0.0
C165 C 0.81966 0.68128 0.21897 0.0
C166 C 0.81461 0.67744 0.2391 0.0
H167 H 0.84616 0.72067 0.33741 0.0
H168 H 0.85014 0.7279 0.30399 0.0
H169 H 0.80195 0.60791 0.27281 0.0
H170 H 0.76849 0.64701 0.1791 0.0
H171 H 0.75878 0.64123 0.21263 0.0
C172 C 0.21706 0.17886 0.57737 0.0
C173 C 0.25526 0.17592 0.57961 0.0
C174 C 0.20191 0.1806 0.55978 0.0
C175 C 0.23834 0.22617 0.51723 0.0
H176 H 0.13869 0.15853 0.49382 0.0
C177 C 0.17555 0.27857 0.45372 0.0
C178 C 0.17805 0.25643 0.43807 0.0
C179 C 0.17766 0.26354 0.47129 0.0
C180 C 0.16646 0.17764 0.50031 0.0
H181 H 0.30648 0.17026 0.5652 0.0
H182 H 0.28043 0.17456 0.5345 0.0
H183 H 0.15731 0.13915 0.52407 0.0
H184 H 0.18124 0.19977 0.42855 0.0
H185 H 0.1835 0.17297 0.4594 0.0
H186 H 0.24712 0.26527 0.49391 0.0
C187 C 0.2621 0.1749 0.54638 0.0
C188 C 0.17707 0.16659 0.51749 0.0
C189 C 0.27687 0.17228 0.56394 0.0
C190 C 0.17925 0.21751 0.44036 0.0
C191 C 0.18049 0.20213 0.45797 0.0
C192 C 0.22729 0.23768 0.50036 0.0
C193 C 0.22505 0.18018 0.54419 0.0
C194 C 0.21332 0.19066 0.52597 0.0
C195 C 0.1813 0.22572 0.47353 0.0
C196 C 0.19138 0.2135 0.49173 0.0
H197 H 0.19974 0.18175 0.58919 0.0
H198 H 0.17335 0.1849 0.55838 0.0
H199 H 0.26625 0.24535 0.5236 0.0
H200 H 0.17486 0.30872 0.45243 0.0
H201 H 0.17824 0.28221 0.48314 0.0
C202 C 0.71794 0.8626 0.82492 0.0
C203 C 0.69486 0.83059 0.8363 0.0
C204 C 0.71598 0.85867 0.80586 0.0
C205 C 0.67869 0.78232 0.76817 0.0
H206 H 0.69409 0.87836 0.73902 0.0
C207 C 0.63201 0.78537 0.69196 0.0
C208 C 0.66401 0.80535 0.67987 0.0
C209 C 0.63797 0.78769 0.71092 0.0
C210 C 0.69011 0.85143 0.74703 0.0
H211 H 0.65146 0.7693 0.83669 0.0
H212 H 0.64592 0.76301 0.80328 0.0
H213 H 0.69786 0.88339 0.77236 0.0
H214 H 0.72725 0.84376 0.67819 0.0
H215 H 0.73718 0.84928 0.71166 0.0
H216 H 0.66842 0.75028 0.74254 0.0
C217 C 0.66681 0.7908 0.80903 0.0
C218 C 0.69249 0.8542 0.76617 0.0
C219 C 0.66964 0.79442 0.82821 0.0
C220 C 0.70209 0.82808 0.68718 0.0
C221 C 0.70777 0.83125 0.70625 0.0
C222 C 0.67535 0.77947 0.74903 0.0
C223 C 0.68998 0.82296 0.79755 0.0
C224 C 0.68701 0.81972 0.77707 0.0
C225 C 0.67578 0.81078 0.71822 0.0
C226 C 0.68118 0.81404 0.73834 0.0
H227 H 0.73824 0.89063 0.83078 0.0
H228 H 0.73532 0.88371 0.79769 0.0
H229 H 0.67504 0.75519 0.77592 0.0
H230 H 0.6024 0.76731 0.68675 0.0
H231 H 0.61287 0.77188 0.71993 0.0
C232 C 0.16832 0.2939 0.32871 0.0
C233 C 0.19316 0.33015 0.33687 0.0
C234 C 0.1663 0.29015 0.30953 0.0
C235 C 0.19344 0.35322 0.26665 0.0
H236 H 0.17086 0.24923 0.2433 0.0
C237 C 0.20555 0.32646 0.18789 0.0
C238 C 0.16739 0.30453 0.18045 0.0
C239 C 0.2109 0.32939 0.20698 0.0
C240 C 0.17741 0.27844 0.24972 0.0
H241 H 0.2367 0.39021 0.3315 0.0
H242 H 0.23514 0.38305 0.29841 0.0
H243 H 0.17629 0.25441 0.27672 0.0
H244 H 0.10532 0.26755 0.18706 0.0
H245 H 0.11518 0.27168 0.2203 0.0
H246 H 0.1958 0.37713 0.23942 0.0
C247 C 0.21551 0.35805 0.30652 0.0
C248 C 0.18006 0.28144 0.26887 0.0
C249 C 0.21667 0.36212 0.32557 0.0
C250 C 0.135 0.28497 0.1924 0.0
C251 C 0.14061 0.28705 0.21138 0.0
C252 C 0.19175 0.35031 0.24751 0.0
C253 C 0.18991 0.32224 0.29814 0.0
C254 C 0.18778 0.31885 0.27766 0.0
C255 C 0.17846 0.30947 0.21881 0.0
C256 C 0.18338 0.31289 0.23893 0.0
H257 H 0.14984 0.26882 0.33713 0.0
H258 H 0.14571 0.26229 0.3037 0.0
H259 H 0.19839 0.38241 0.27276 0.0
H260 H 0.231 0.3418 0.17899 0.0
H261 H 0.24034 0.34693 0.21251 0.0
C262 C 0.73112 0.82688 0.56459 0.0
C263 C 0.74366 0.81189 0.58039 0.0
C264 C 0.74894 0.82578 0.54751 0.0
C265 C 0.79743 0.76457 0.52375 0.0
H266 H 0.81624 0.84391 0.48484 0.0
C267 C 0.83941 0.72888 0.45133 0.0
C268 C 0.81832 0.73865 0.43691 0.0
C269 C 0.83982 0.74519 0.46888 0.0
C270 C 0.81096 0.82133 0.49553 0.0
H271 H 0.78686 0.78686 0.59083 0.0
H272 H 0.81795 0.78522 0.56114 0.0
H273 H 0.79886 0.85964 0.51568 0.0
H274 H 0.78332 0.77528 0.42936 0.0
H275 H 0.78324 0.80283 0.45984 0.0
H276 H 0.80754 0.72549 0.50365 0.0
C277 C 0.79391 0.79718 0.56189 0.0
C278 C 0.80109 0.83043 0.5132 0.0
C279 C 0.77621 0.79837 0.57893 0.0
C280 C 0.79988 0.76706 0.44014 0.0
C281 C 0.8 0.78308 0.45769 0.0
C282 C 0.80695 0.75536 0.50609 0.0
C283 C 0.77959 0.80958 0.54588 0.0
C284 C 0.79372 0.80194 0.52747 0.0
C285 C 0.81886 0.77138 0.47245 0.0
C286 C 0.81329 0.78334 0.49165 0.0
H287 H 0.7061 0.83745 0.56523 0.0
H288 H 0.73709 0.83543 0.53543 0.0
H289 H 0.79125 0.74162 0.53432 0.0
H290 H 0.85414 0.70729 0.44929 0.0
H291 H 0.85551 0.73621 0.47978 0.0
C292 C 0.29515 0.19019 0.68962 0.0
C293 C 0.32126 0.17482 0.68036 0.0
C294 C 0.29393 0.19041 0.70885 0.0
C295 C 0.35685 0.18548 0.74894 0.0
H296 H 0.25979 0.17207 0.77692 0.0
C297 C 0.34095 0.15298 0.82673 0.0
C298 C 0.3223 0.17425 0.83742 0.0
C299 C 0.34257 0.15686 0.80763 0.0
C300 C 0.28721 0.17636 0.76924 0.0
H301 H 0.3644 0.14509 0.68392 0.0
H302 H 0.36095 0.14374 0.71727 0.0
H303 H 0.25648 0.16783 0.74343 0.0
H304 H 0.29154 0.21702 0.83652 0.0
H305 H 0.29385 0.22329 0.80296 0.0
H306 H 0.38717 0.19263 0.77483 0.0
C307 C 0.34263 0.15721 0.70982 0.0
C308 C 0.28536 0.17393 0.75005 0.0
C309 C 0.34429 0.15756 0.69067 0.0
C310 C 0.30635 0.20046 0.82864 0.0
C311 C 0.30734 0.20378 0.80946 0.0
C312 C 0.35855 0.18738 0.76809 0.0
C313 C 0.31843 0.17479 0.71921 0.0
C314 C 0.32011 0.17807 0.73964 0.0
C315 C 0.32501 0.18159 0.79878 0.0
C316 C 0.32372 0.18255 0.77844 0.0
H317 H 0.27726 0.20399 0.68205 0.0
H318 H 0.27508 0.2044 0.71555 0.0
H319 H 0.38451 0.18999 0.74143 0.0
H320 H 0.35352 0.13257 0.8331 0.0
H321 H 0.3562 0.13925 0.79973 0.0
C322 C 0.72081 0.69291 0.0791 0.0
C323 C 0.75276 0.67861 0.08087 0.0
C324 C 0.70385 0.69427 0.06192 0.0
C325 C 0.69739 0.66025 0.01344 0.0
H326 H 0.6944 0.76631 1.00313 0.0
C327 C 0.70123 0.72234 0.93987 0.0
C328 C 0.68384 0.75148 0.93638 0.0
C329 C 0.70065 0.70676 0.95756 0.0
C330 C 0.69403 0.73616 1.00578 0.0
H331 H 0.78992 0.6518 0.06613 0.0
H332 H 0.76018 0.65406 0.03611 0.0
H333 H 0.70923 0.75006 0.034 0.0
H334 H 0.64945 0.78472 0.94847 0.0
H335 H 0.64721 0.75655 0.9792 0.0
H336 H 0.68266 0.64655 0.9851 0.0
C337 C 0.74825 0.66422 0.04804 0.0
C338 C 0.70271 0.72688 0.02355 0.0
C339 C 0.76536 0.66298 0.06526 0.0
C340 C 0.66339 0.76255 0.95071 0.0
C341 C 0.66247 0.74665 0.96839 0.0
C342 C 0.68833 0.66942 0.99565 0.0
C343 C 0.71831 0.68124 0.0461 0.0
C344 C 0.70514 0.68908 0.02755 0.0
C345 C 0.68234 0.71962 0.9722 0.0
C346 C 0.68724 0.7078 0.99149 0.0
H347 H 0.71013 0.70494 0.09084 0.0
H348 H 0.68033 0.70688 0.06093 0.0
H349 H 0.69866 0.63072 0.01613 0.0
H350 H 0.71732 0.71314 0.92917 0.0
H351 H 0.7166 0.68634 0.95989 0.0
C352 C 0.03879 0.15229 0.10807 0.0
C353 C 0.08078 0.1671 0.11094 0.0
C354 C 0.01767 0.11102 0.10549 0.0
C355 C 0.02974 0.01441 0.09423 0.0
H356 H 0.93269 0.96779 0.12368 0.0
C357 C 0.95721 0.84381 0.11014 0.0
C358 C 0.91486 0.82644 0.11132 0.0
C359 C 0.97641 0.88542 0.10755 0.0
C360 C 0.95931 0.98033 0.1151 0.0
H361 H 0.13373 0.15033 0.11266 0.0
H362 H 0.09674 0.0783 0.10831 0.0
H363 H 0.96808 0.04061 0.12346 0.0
H364 H 0.85939 0.83885 0.10984 0.0
H365 H 0.8929 0.91126 0.10504 0.0
H366 H 0.02119 0.95391 0.0861 0.0
C367 C 0.08024 0.09865 0.10792 0.0
C368 C 0.97961 0.0221 0.11499 0.0
C369 C 0.10136 0.13991 0.11052 0.0
C370 C 0.8921 0.85133 0.10918 0.0
C371 C 0.91129 0.89287 0.10651 0.0
C372 C 0.00933 0.97255 0.0943 0.0
C373 C 0.03808 0.0837 0.1057 0.0
C374 C 0.01525 0.03957 0.10471 0.0
C375 C 0.95368 0.91048 0.106 0.0
C376 C 0.9741 0.95503 0.10489 0.0
H377 H 0.02204 0.17242 0.10819 0.0
H378 H 0.98524 0.10041 0.10356 0.0
H379 H 0.0569 0.0271 0.08601 0.0
H380 H 0.97563 0.82549 0.11174 0.0
H381 H 0.00913 0.89808 0.10741 0.0
C382 C 0.13018 0.46911 0.39639 0.0
C383 C 0.12791 0.4323 0.40437 0.0
C384 C 0.09971 0.48457 0.39939 0.0
C385 C 0.04033 0.52095 0.4132 0.0
H386 H 0.92973 0.4451 0.41259 0.0
C387 C 0.90509 0.57531 0.41554 0.0
C388 C 0.87287 0.55518 0.40371 0.0
C389 C 0.93558 0.55978 0.41876 0.0
C390 C 0.96044 0.46676 0.41271 0.0
H391 H 0.09248 0.38344 0.42226 0.0
H392 H 0.03958 0.41094 0.4279 0.0
H393 H 0.98491 0.41992 0.41215 0.0
H394 H 0.84716 0.50276 0.38615 0.0
H395 H 0.90045 0.47647 0.3913 0.0
H396 H 0.01586 0.56783 0.41263 0.0
C397 C 0.06456 0.42747 0.41898 0.0
C398 C 0.99217 0.45226 0.41273 0.0
C399 C 0.09499 0.41179 0.41585 0.0
C400 C 0.87144 0.51896 0.39542 0.0
C401 C 0.90195 0.50365 0.3985 0.0
C402 C 0.00859 0.53546 0.413 0.0
C403 C 0.06629 0.46383 0.4106 0.0
C404 C 0.03257 0.47917 0.4126 0.0
C405 C 0.9346 0.52394 0.41012 0.0
C406 C 0.96823 0.50856 0.41236 0.0
H407 H 0.15503 0.48562 0.3874 0.0
H408 H 0.10183 0.5122 0.3924 0.0
H409 H 0.07103 0.5426 0.41347 0.0
H410 H 0.90695 0.6032 0.4222 0.0
H411 H 0.95998 0.57595 0.42797 0.0
C412 C 0.45639 0.3369 0.61276 0.0
C413 C 0.41406 0.32242 0.61444 0.0
C414 C 0.47819 0.37815 0.61033 0.0
C415 C 0.46784 0.47443 0.59676 0.0
H416 H 0.56238 0.52264 0.62735 0.0
C417 C 0.53915 0.64588 0.61055 0.0
C418 C 0.58141 0.66341 0.6121 0.0
C419 C 0.52013 0.6041 0.60856 0.0
C420 C 0.53646 0.50961 0.61847 0.0
H421 H 0.3614 0.33987 0.61444 0.0
H422 H 0.39948 0.4117 0.61037 0.0
H423 H 0.52681 0.44976 0.6279 0.0
H424 H 0.63696 0.65095 0.61196 0.0
H425 H 0.60376 0.57821 0.60825 0.0
H426 H 0.4772 0.53445 0.58755 0.0
C427 C 0.41578 0.39116 0.61075 0.0
C428 C 0.51607 0.46782 0.6188 0.0
C429 C 0.394 0.34998 0.61322 0.0
C430 C 0.6043 0.6384 0.61097 0.0
C431 C 0.58529 0.59667 0.60894 0.0
C432 C 0.48829 0.51627 0.59641 0.0
C433 C 0.45814 0.40576 0.60948 0.0
C434 C 0.48128 0.44982 0.60811 0.0
C435 C 0.54295 0.57897 0.60801 0.0
C436 C 0.52259 0.53436 0.60742 0.0
H437 H 0.47277 0.31649 0.61357 0.0
H438 H 0.5108 0.38847 0.60919 0.0
H439 H 0.44142 0.46134 0.58818 0.0
H440 H 0.52062 0.66426 0.61138 0.0
H441 H 0.48743 0.59138 0.60808 0.0
C442 C 0.63435 0.97044 0.89709 0.0
C443 C 0.63158 0.93292 0.90446 0.0
C444 C 0.60384 0.98579 0.90021 0.0
C445 C 0.54394 0.02122 0.91445 0.0
H446 H 0.43329 0.94604 0.91139 0.0
C447 C 0.40916 0.0763 0.91656 0.0
C448 C 0.37832 0.05813 0.90378 0.0
C449 C 0.43901 0.05996 0.91991 0.0
C450 C 0.46401 0.96751 0.91223 0.0
H451 H 0.59512 0.88267 0.92141 0.0
H452 H 0.54203 0.90989 0.92719 0.0
H453 H 0.4883 0.92054 0.91097 0.0
H454 H 0.35423 0.00811 0.88476 0.0
H455 H 0.40634 0.98036 0.89024 0.0
H456 H 0.51975 0.06833 0.91463 0.0
C457 C 0.56753 0.92711 0.91869 0.0
C458 C 0.49562 0.95281 0.91225 0.0
C459 C 0.59806 0.91159 0.91548 0.0
C460 C 0.37745 0.02284 0.89475 0.0
C461 C 0.40727 0.00668 0.89802 0.0
C462 C 0.51234 0.03594 0.91429 0.0
C463 C 0.5698 0.9642 0.9109 0.0
C464 C 0.53606 0.97952 0.91297 0.0
C465 C 0.43871 0.0252 0.91049 0.0
C466 C 0.47199 0.00933 0.91279 0.0
H467 H 0.65966 0.98763 0.88848 0.0
H468 H 0.6064 0.01405 0.89369 0.0
H469 H 0.57465 0.04268 0.91536 0.0
H470 H 0.41059 0.10345 0.92379 0.0
H471 H 0.46247 0.07474 0.92979 0.0
C472 C 0.97489 0.62654 0.12197 0.0
C473 C 0.9384 0.6247 0.11384 0.0
C474 C 0.99043 0.5962 0.11883 0.0
C475 C 0.02735 0.53756 0.10467 0.0
H476 H 0.9517 0.42685 0.10476 0.0
C477 C 0.08221 0.4027 0.10212 0.0
C478 C 0.06204 0.37033 0.11394 0.0
C479 C 0.06656 0.4331 0.09887 0.0
C480 C 0.97329 0.45759 0.10477 0.0
H481 H 0.89022 0.59012 0.09556 0.0
H482 H 0.91785 0.53737 0.08972 0.0
H483 H 0.92635 0.48195 0.10533 0.0
H484 H 0.00933 0.34421 0.13141 0.0
H485 H 0.98278 0.39731 0.12616 0.0
H486 H 0.07429 0.5132 0.10523 0.0
C487 C 0.93405 0.56197 0.09883 0.0
C488 C 0.95871 0.48927 0.10483 0.0
C489 C 0.91831 0.5923 0.10209 0.0
C490 C 0.02559 0.36862 0.12216 0.0
C491 C 0.01014 0.39902 0.11902 0.0
C492 C 0.04193 0.50587 0.10477 0.0
C493 C 0.9701 0.5633 0.10735 0.0
C494 C 0.98555 0.52969 0.10517 0.0
C495 C 0.03052 0.43185 0.10745 0.0
C496 C 0.01509 0.46546 0.10522 0.0
H497 H 0.99109 0.65098 0.13117 0.0
H498 H 0.0178 0.59798 0.12592 0.0
H499 H 0.04895 0.5683 0.10457 0.0
H500 H 0.11027 0.40479 0.09553 0.0
H501 H 0.08281 0.45766 0.08969 0.0
C502 C 0.35678 0.38827 0.40632 0.0
C503 C 0.32971 0.40896 0.40702 0.0
C504 C 0.39807 0.4089 0.40915 0.0
C505 C 0.47459 0.51015 0.40442 0.0
H506 H 0.5429 0.4656 0.43142 0.0
C507 C 0.64498 0.59777 0.41063 0.0
C508 C 0.67007 0.5755 0.40768 0.0
C509 C 0.60354 0.57806 0.41338 0.0
C510 C 0.52423 0.4783 0.42374 0.0
H511 H 0.3246 0.46723 0.41199 0.0
H512 H 0.39658 0.5031 0.41695 0.0
H513 H 0.46975 0.42954 0.43111 0.0
H514 H 0.67157 0.51503 0.40593 0.0
H515 H 0.59912 0.48064 0.41032 0.0
H516 H 0.52877 0.55822 0.39657 0.0
C517 C 0.38589 0.47103 0.414 0.0
C518 C 0.4824 0.45769 0.42359 0.0
C519 C 0.34463 0.45042 0.41123 0.0
C520 C 0.65306 0.53307 0.40818 0.0
C521 C 0.61154 0.51335 0.4108 0.0
C522 C 0.51632 0.53062 0.4045 0.0
C523 C 0.41311 0.45064 0.41267 0.0
C524 C 0.45721 0.47331 0.41382 0.0
C525 C 0.58621 0.53563 0.4131 0.0
C526 C 0.54168 0.51483 0.41404 0.0
H527 H 0.34626 0.3563 0.40316 0.0
H528 H 0.41838 0.39246 0.4079 0.0
H529 H 0.45603 0.52258 0.39649 0.0
H530 H 0.65722 0.63052 0.41053 0.0
H531 H 0.58499 0.59611 0.41547 0.0
C532 C 0.41405 0.08788 0.59971 0.0
C533 C 0.43313 0.1194 0.61206 0.0
C534 C 0.4302 0.0579 0.59628 0.0
C535 C 0.45444 0.98483 0.60213 0.0
H536 H 0.56992 0.0086 0.60396 0.0
C537 C 0.52032 0.86362 0.62005 0.0
C538 C 0.55729 0.8656 0.6123 0.0
C539 C 0.50497 0.89404 0.61672 0.0
C540 C 0.53761 0.00134 0.60311 0.0
H541 H 0.48467 0.14466 0.63015 0.0
H542 H 0.51212 0.09236 0.62453 0.0
H543 H 0.54467 0.06379 0.60324 0.0
H544 H 0.60654 0.90056 0.59448 0.0
H545 H 0.5793 0.95348 0.58834 0.0
H546 H 0.44739 0.92239 0.60179 0.0
C547 C 0.48518 0.09095 0.61716 0.0
C548 C 0.52307 0.03306 0.60295 0.0
C549 C 0.4692 0.12089 0.6205 0.0
C550 C 0.57805 0.89824 0.60072 0.0
C551 C 0.56253 0.92867 0.59729 0.0
C552 C 0.46899 0.95312 0.60215 0.0
C553 C 0.46569 0.05876 0.60517 0.0
C554 C 0.48126 0.02523 0.60295 0.0
C555 C 0.526 0.9272 0.60544 0.0
C556 C 0.51074 0.96091 0.60311 0.0
H557 H 0.38628 0.08595 0.59293 0.0
H558 H 0.41466 0.03386 0.58677 0.0
H559 H 0.42207 0.97753 0.60224 0.0
H560 H 0.50357 0.839 0.62911 0.0
H561 H 0.47718 0.89212 0.62353 0.0
C562 C 0.86078 0.88851 0.90339 0.0
C563 C 0.83421 0.90966 0.90489 0.0
C564 C 0.9024 0.90866 0.90537 0.0
C565 C 0.97966 0.00992 0.90029 0.0
H566 H 0.0494 0.96298 0.92463 0.0
C567 C 0.14967 0.09817 0.90743 0.0
C568 C 0.17557 0.07723 0.90343 0.0
C569 C 0.10827 0.07739 0.90959 0.0
C570 C 0.03031 0.97631 0.91767 0.0
H571 H 0.83044 0.96826 0.91043 0.0
H572 H 0.903 0.0033 0.91403 0.0
H573 H 0.97618 0.92729 0.92519 0.0
H574 H 0.17835 0.01782 0.89913 0.0
H575 H 0.10575 0.98148 0.90267 0.0
H576 H 0.03351 0.05854 0.89251 0.0
C577 C 0.89166 0.97124 0.91103 0.0
C578 C 0.98842 0.95592 0.91801 0.0
C579 C 0.85005 0.95111 0.90906 0.0
C580 C 0.15923 0.03484 0.9022 0.0
C581 C 0.11766 0.01402 0.90431 0.0
C582 C 0.02141 0.03022 0.89994 0.0
C583 C 0.91833 0.95039 0.90888 0.0
C584 C 0.96268 0.97249 0.90928 0.0
C585 C 0.09167 0.03516 0.90774 0.0
C586 C 0.04724 0.01366 0.90859 0.0
H587 H 0.84958 0.85652 0.90021 0.0
H588 H 0.92217 0.89181 0.90348 0.0
H589 H 0.96073 0.0231 0.89311 0.0
H590 H 0.16128 0.13081 0.90867 0.0
H591 H 0.08917 0.09449 0.91258 0.0
loop_
_geom_bond_atom_site_label_1
_geom_bond_atom_site_label_2
_geom_bond_distance
_geom_bond_site_symmetry_2
_ccdc_geom_bond_type
O0 Cd1 2.223 . S
O0 C8 1.315 . S
Cd1 O0 2.223 . S
Cd1 O4 2.297 . S
Cd1 O5 2.439 . S
Cd1 O11 2.240 . S
Cd2 O3 2.240 . S
Cd2 O10 2.223 . S
Cd2 O12 2.297 . S
Cd2 O13 2.439 . S
O3 Cd2 2.240 . S
O3 C8 1.279 . S
O4 Cd1 2.297 . S
O4 C6 1.247 . S
O5 Cd1 2.439 . S
O5 C6 1.208 . S
C6 O4 1.247 . S
C6 O5 1.208 . S
C7 O12 1.247 . S
C7 O13 1.208 . S
C8 O0 1.315 . S
C8 O3 1.279 . S
C9 O10 1.315 . S
C9 O11 1.279 . S
O10 Cd2 2.223 . S
O10 C9 1.315 . S
O11 Cd1 2.240 . S
O11 C9 1.279 . S
O12 Cd2 2.297 . S
O12 C7 1.247 . S
O13 Cd2 2.439 . S
O13 C7 1.208 . S
O14 Cd15 2.223 . S
O14 C22 1.315 . S
Cd15 O14 2.223 . S
Cd15 O18 2.297 . S
Cd15 O19 2.439 . S
Cd15 O25 2.240 . S
Cd16 O17 2.240 . S
Cd16 O24 2.223 . S
Cd16 O26 2.297 . S
Cd16 O27 2.439 . S
O17 Cd16 2.240 . S
O17 C22 1.279 . S
O18 Cd15 2.297 . S
O18 C20 1.247 . S
O19 Cd15 2.439 . S
O19 C20 1.208 . S
C20 O18 1.247 . S
C20 O19 1.208 . S
C21 O26 1.247 . S
C21 O27 1.208 . S
C22 O14 1.315 . S
C22 O17 1.279 . S
C23 O24 1.315 . S
C23 O25 1.279 . S
O24 Cd16 2.223 . S
O24 C23 1.315 . S
O25 Cd15 2.240 . S
O25 C23 1.279 . S
O26 Cd16 2.297 . S
O26 C21 1.247 . S
O27 Cd16 2.439 . S
O27 C21 1.208 . S
O28 Cd29 2.223 . S
O28 C36 1.315 . S
Cd29 O28 2.223 . S
Cd29 O32 2.297 . S
Cd29 O33 2.439 . S
Cd29 O39 2.240 . S
Cd30 O31 2.240 . S
Cd30 O38 2.223 . S
Cd30 O40 2.297 . S
Cd30 O41 2.439 . S
O31 Cd30 2.240 . S
O31 C36 1.279 . S
O32 Cd29 2.297 . S
O32 C34 1.247 . S
O33 Cd29 2.439 . S
O33 C34 1.208 . S
C34 O32 1.247 . S
C34 O33 1.208 . S
C35 O40 1.247 . S
C35 O41 1.208 . S
C36 O28 1.315 . S
C36 O31 1.279 . S
C37 O38 1.315 . S
C37 O39 1.279 . S
O38 Cd30 2.223 . S
O38 C37 1.315 . S
O39 Cd29 2.240 . S
O39 C37 1.279 . S
O40 Cd30 2.297 . S
O40 C35 1.247 . S
O41 Cd30 2.439 . S
O41 C35 1.208 . S
O42 Cd43 2.223 . S
O42 C50 1.315 . S
Cd43 O42 2.223 . S
Cd43 O46 2.297 . S
Cd43 O47 2.439 . S
Cd43 O53 2.240 . S
Cd44 O45 2.240 . S
Cd44 O52 2.223 . S
Cd44 O54 2.297 . S
Cd44 O55 2.439 . S
O45 Cd44 2.240 . S
O45 C50 1.279 . S
O46 Cd43 2.297 . S
O46 C48 1.247 . S
O47 Cd43 2.439 . S
O47 C48 1.208 . S
C48 O46 1.247 . S
C48 O47 1.208 . S
C49 O54 1.247 . S
C49 O55 1.208 . S
C50 O42 1.315 . S
C50 O45 1.279 . S
C51 O52 1.315 . S
C51 O53 1.279 . S
O52 Cd44 2.223 . S
O52 C51 1.315 . S
O53 Cd43 2.240 . S
O53 C51 1.279 . S
O54 Cd44 2.297 . S
O54 C49 1.247 . S
O55 Cd44 2.439 . S
O55 C49 1.208 . S
O56 Cd57 2.223 . S
O56 C64 1.315 . S
Cd57 O56 2.223 . S
Cd57 O60 2.297 . S
Cd57 O61 2.439 . S
Cd57 O67 2.240 . S
Cd58 O59 2.240 . S
Cd58 O66 2.223 . S
Cd58 O68 2.297 . S
Cd58 O69 2.439 . S
O59 Cd58 2.240 . S
O59 C64 1.279 . S
O60 Cd57 2.297 . S
O60 C62 1.247 . S
O61 Cd57 2.439 . S
O61 C62 1.208 . S
C62 O60 1.247 . S
C62 O61 1.208 . S
C63 O68 1.247 . S
C63 O69 1.208 . S
C64 O56 1.315 . S
C64 O59 1.279 . S
C65 O66 1.315 . S
C65 O67 1.279 . S
O66 Cd58 2.223 . S
O66 C65 1.315 . S
O67 Cd57 2.240 . S
O67 C65 1.279 . S
O68 Cd58 2.297 . S
O68 C63 1.247 . S
O69 Cd58 2.439 . S
O69 C63 1.208 . S
O70 Cd71 2.223 . S
O70 C78 1.315 . S
Cd71 O70 2.223 . S
Cd71 O74 2.297 . S
Cd71 O75 2.439 . S
Cd71 O81 2.240 . S
Cd72 O73 2.240 . S
Cd72 O80 2.223 . S
Cd72 O82 2.297 . S
Cd72 O83 2.439 . S
O73 Cd72 2.240 . S
O73 C78 1.279 . S
O74 Cd71 2.297 . S
O74 C76 1.247 . S
O75 Cd71 2.439 . S
O75 C76 1.208 . S
C76 O74 1.247 . S
C76 O75 1.208 . S
C77 O82 1.247 . S
C77 O83 1.208 . S
C78 O70 1.315 . S
C78 O73 1.279 . S
C79 O80 1.315 . S
C79 O81 1.279 . S
O80 Cd72 2.223 . S
O80 C79 1.315 . S
O81 Cd71 2.240 . S
O81 C79 1.279 . S
O82 Cd72 2.297 . S
O82 C77 1.247 . S
O83 Cd72 2.439 . S
O83 C77 1.208 . S
O84 Cd85 2.223 . S
O84 C92 1.315 . S
Cd85 O84 2.223 . S
Cd85 O88 2.297 . S
Cd85 O89 2.439 . S
Cd85 O95 2.240 . S
Cd86 O87 2.240 . S
Cd86 O94 2.223 . S
Cd86 O96 2.297 . S
Cd86 O97 2.439 . S
O87 Cd86 2.240 . S
O87 C92 1.279 . S
O88 Cd85 2.297 . S
O88 C90 1.247 . S
O89 Cd85 2.439 . S
O89 C90 1.208 . S
C90 O88 1.247 . S
C90 O89 1.208 . S
C91 O96 1.247 . S
C91 O97 1.208 . S
C92 O84 1.315 . S
C92 O87 1.279 . S
C93 O94 1.315 . S
C93 O95 1.279 . S
O94 Cd86 2.223 . S
O94 C93 1.315 . S
O95 Cd85 2.240 . S
O95 C93 1.279 . S
O96 Cd86 2.297 . S
O96 C91 1.247 . S
O97 Cd86 2.439 . S
O97 C91 1.208 . S
O98 Cd99 2.223 . S
O98 C106 1.315 . S
Cd99 O98 2.223 . S
Cd99 O102 2.297 . S
Cd99 O103 2.439 . S
Cd99 O109 2.240 . S
Cd100 O101 2.240 . S
Cd100 O108 2.223 . S
Cd100 O110 2.297 . S
Cd100 O111 2.439 . S
O101 Cd100 2.240 . S
O101 C106 1.279 . S
O102 Cd99 2.297 . S
O102 C104 1.247 . S
O103 Cd99 2.439 . S
O103 C104 1.208 . S
C104 O102 1.247 . S
C104 O103 1.208 . S
C105 O110 1.247 . S
C105 O111 1.208 . S
C106 O98 1.315 . S
C106 O101 1.279 . S
C107 O108 1.315 . S
C107 O109 1.279 . S
O108 Cd100 2.223 . S
O108 C107 1.315 . S
O109 Cd99 2.240 . S
O109 C107 1.279 . S
O110 Cd100 2.297 . S
O110 C105 1.247 . S
O111 Cd100 2.439 . S
O111 C105 1.208 . S
C112 C113 1.349 . S
C112 C114 1.327 . S
C112 H137 0.950 . S
C113 C112 1.349 . S
C113 C129 1.349 . S
C114 C112 1.327 . S
C114 C133 1.429 . S
C114 H138 0.950 . S
C115 C132 1.574 1_554 S
C115 C134 1.368 . S
C115 H139 0.949 . S
H116 C120 0.949 . S
C117 C118 1.349 . S
C117 C119 1.327 . S
C117 H140 0.950 . S
C118 C117 1.349 . S
C118 C130 1.349 . S
C119 C117 1.327 . S
C119 C135 1.429 . S
C119 H141 0.950 . S
C120 H116 0.949 . S
C120 C128 1.574 1_556 S
C120 C136 1.368 . S
H121 C129 0.950 . S
H122 C127 0.950 . S
H123 C128 0.949 . S
H124 C130 0.950 . S
H125 C131 0.950 . S
H126 C132 0.949 . S
C127 H122 0.950 . S
C127 C129 1.327 . S
C127 C133 1.429 . S
C128 C120 1.574 1_554 S
C128 H123 0.949 . S
C128 C134 1.368 . S
C129 C113 1.349 . S
C129 H121 0.950 . S
C129 C127 1.327 . S
C130 C118 1.349 . S
C130 H124 0.950 . S
C130 C131 1.327 . S
C131 H125 0.950 . S
C131 C130 1.327 . S
C131 C135 1.429 . S
C132 C115 1.574 1_556 S
C132 H126 0.949 . S
C132 C136 1.368 . S
C133 C114 1.429 . S
C133 C127 1.429 . S
C133 C134 1.523 . S
C134 C115 1.368 . S
C134 C128 1.368 . S
C134 C133 1.523 . S
C135 C119 1.429 . S
C135 C131 1.429 . S
C135 C136 1.523 . S
C136 C120 1.368 . S
C136 C132 1.368 . S
C136 C135 1.523 . S
H137 C112 0.950 . S
H138 C114 0.950 . S
H139 C115 0.949 . S
H140 C117 0.950 . S
H141 C119 0.950 . S
C142 C143 1.349 . S
C142 C144 1.327 . S
C142 H167 0.950 . S
C143 C142 1.349 . S
C143 C159 1.349 . S
C144 C142 1.327 . S
C144 C163 1.429 . S
C144 H168 0.950 . S
C145 C162 1.574 . S
C145 C164 1.368 . S
C145 H169 0.949 . S
H146 C150 0.949 . S
C147 C148 1.349 . S
C147 C149 1.327 . S
C147 H170 0.950 . S
C148 C147 1.349 . S
C148 C160 1.349 . S
C149 C147 1.327 . S
C149 C165 1.429 . S
C149 H171 0.950 . S
C150 H146 0.949 . S
C150 C158 1.574 . S
C150 C166 1.368 . S
H151 C159 0.950 . S
H152 C157 0.950 . S
H153 C158 0.949 . S
H154 C160 0.950 . S
H155 C161 0.950 . S
H156 C162 0.949 . S
C157 H152 0.950 . S
C157 C159 1.327 . S
C157 C163 1.429 . S
C158 C150 1.574 . S
C158 H153 0.949 . S
C158 C164 1.368 . S
C159 C143 1.349 . S
C159 H151 0.950 . S
C159 C157 1.327 . S
C160 C148 1.349 . S
C160 H154 0.950 . S
C160 C161 1.327 . S
C161 H155 0.950 . S
C161 C160 1.327 . S
C161 C165 1.429 . S
C162 C145 1.574 . S
C162 H156 0.949 . S
C162 C166 1.368 . S
C163 C144 1.429 . S
C163 C157 1.429 . S
C163 C164 1.523 . S
C164 C145 1.368 . S
C164 C158 1.368 . S
C164 C163 1.523 . S
C165 C149 1.429 . S
C165 C161 1.429 . S
C165 C166 1.523 . S
C166 C150 1.368 . S
C166 C162 1.368 . S
C166 C165 1.523 . S
H167 C142 0.950 . S
H168 C144 0.950 . S
H169 C145 0.949 . S
H170 C147 0.950 . S
H171 C149 0.950 . S
C172 C173 1.349 . S
C172 C174 1.327 . S
C172 H197 0.950 . S
C173 C172 1.349 . S
C173 C189 1.349 . S
C174 C172 1.327 . S
C174 C193 1.429 . S
C174 H198 0.950 . S
C175 C192 1.574 . S
C175 C194 1.368 . S
C175 H199 0.949 . S
H176 C180 0.949 . S
C177 C178 1.349 . S
C177 C179 1.327 . S
C177 H200 0.950 . S
C178 C177 1.349 . S
C178 C190 1.349 . S
C179 C177 1.327 . S
C179 C195 1.429 . S
C179 H201 0.950 . S
C180 H176 0.949 . S
C180 C188 1.574 . S
C180 C196 1.368 . S
H181 C189 0.950 . S
H182 C187 0.950 . S
H183 C188 0.949 . S
H184 C190 0.950 . S
H185 C191 0.950 . S
H186 C192 0.949 . S
C187 H182 0.950 . S
C187 C189 1.327 . S
C187 C193 1.429 . S
C188 C180 1.574 . S
C188 H183 0.949 . S
C188 C194 1.368 . S
C189 C173 1.349 . S
C189 H181 0.950 . S
C189 C187 1.327 . S
C190 C178 1.349 . S
C190 H184 0.950 . S
C190 C191 1.327 . S
C191 H185 0.950 . S
C191 C190 1.327 . S
C191 C195 1.429 . S
C192 C175 1.574 . S
C192 H186 0.949 . S
C192 C196 1.368 . S
C193 C174 1.429 . S
C193 C187 1.429 . S
C193 C194 1.523 . S
C194 C175 1.368 . S
C194 C188 1.368 . S
C194 C193 1.523 . S
C195 C179 1.429 . S
C195 C191 1.429 . S
C195 C196 1.523 . S
C196 C180 1.368 . S
C196 C192 1.368 . S
C196 C195 1.523 . S
H197 C172 0.950 . S
H198 C174 0.950 . S
H199 C175 0.949 . S
H200 C177 0.950 . S
H201 C179 0.950 . S
C202 C203 1.349 . S
C202 C204 1.327 . S
C202 H227 0.950 . S
C203 C202 1.349 . S
C203 C219 1.349 . S
C204 C202 1.327 . S
C204 C223 1.429 . S
C204 H228 0.950 . S
C205 C222 1.574 . S
C205 C224 1.368 . S
C205 H229 0.949 . S
H206 C210 0.949 . S
C207 C208 1.349 . S
C207 C209 1.327 . S
C207 H230 0.950 . S
C208 C207 1.349 . S
C208 C220 1.349 . S
C209 C207 1.327 . S
C209 C225 1.429 . S
C209 H231 0.950 . S
C210 H206 0.949 . S
C210 C218 1.574 . S
C210 C226 1.368 . S
H211 C219 0.950 . S
H212 C217 0.950 . S
H213 C218 0.949 . S
H214 C220 0.950 . S
H215 C221 0.950 . S
H216 C222 0.949 . S
C217 H212 0.950 . S
C217 C219 1.327 . S
C217 C223 1.429 . S
C218 C210 1.574 . S
C218 H213 0.949 . S
C218 C224 1.368 . S
C219 C203 1.349 . S
C219 H211 0.950 . S
C219 C217 1.327 . S
C220 C208 1.349 . S
C220 H214 0.950 . S
C220 C221 1.327 . S
C221 H215 0.950 . S
C221 C220 1.327 . S
C221 C225 1.429 . S
C222 C205 1.574 . S
C222 H216 0.949 . S
C222 C226 1.368 . S
C223 C204 1.429 . S
C223 C217 1.429 . S
C223 C224 1.523 . S
C224 C205 1.368 . S
C224 C218 1.368 . S
C224 C223 1.523 . S
C225 C209 1.429 . S
C225 C221 1.429 . S
C225 C226 1.523 . S
C226 C210 1.368 . S
C226 C222 1.368 . S
C226 C225 1.523 . S
H227 C202 0.950 . S
H228 C204 0.950 . S
H229 C205 0.949 . S
H230 C207 0.950 . S
H231 C209 0.950 . S
C232 C233 1.349 . S
C232 C234 1.327 . S
C232 H257 0.950 . S
C233 C232 1.349 . S
C233 C249 1.349 . S
C234 C232 1.327 . S
C234 C253 1.429 . S
C234 H258 0.950 . S
C235 C252 1.574 . S
C235 C254 1.368 . S
C235 H259 0.949 . S
H236 C240 0.949 . S
C237 C238 1.349 . S
C237 C239 1.327 . S
C237 H260 0.950 . S
C238 C237 1.349 . S
C238 C250 1.349 . S
C239 C237 1.327 . S
C239 C255 1.429 . S
C239 H261 0.950 . S
C240 H236 0.949 . S
C240 C248 1.574 . S
C240 C256 1.368 . S
H241 C249 0.950 . S
H242 C247 0.950 . S
H243 C248 0.949 . S
H244 C250 0.950 . S
H245 C251 0.950 . S
H246 C252 0.949 . S
C247 H242 0.950 . S
C247 C249 1.327 . S
C247 C253 1.429 . S
C248 C240 1.574 . S
C248 H243 0.949 . S
C248 C254 1.368 . S
C249 C233 1.349 . S
C249 H241 0.950 . S
C249 C247 1.327 . S
C250 C238 1.349 . S
C250 H244 0.950 . S
C250 C251 1.327 . S
C251 H245 0.950 . S
C251 C250 1.327 . S
C251 C255 1.429 . S
C252 C235 1.574 . S
C252 H246 0.949 . S
C252 C256 1.368 . S
C253 C234 1.429 . S
C253 C247 1.429 . S
C253 C254 1.523 . S
C254 C235 1.368 . S
C254 C248 1.368 . S
C254 C253 1.523 . S
C255 C239 1.429 . S
C255 C251 1.429 . S
C255 C256 1.523 . S
C256 C240 1.368 . S
C256 C252 1.368 . S
C256 C255 1.523 . S
H257 C232 0.950 . S
H258 C234 0.950 . S
H259 C235 0.949 . S
H260 C237 0.950 . S
H261 C239 0.950 . S
C262 C263 1.349 . S
C262 C264 1.327 . S
C262 H287 0.950 . S
C263 C262 1.349 . S
C263 C279 1.349 . S
C264 C262 1.327 . S
C264 C283 1.429 . S
C264 H288 0.950 . S
C265 C282 1.574 . S
C265 C284 1.368 . S
C265 H289 0.949 . S
H266 C270 0.949 . S
C267 C268 1.349 . S
C267 C269 1.327 . S
C267 H290 0.950 . S
C268 C267 1.349 . S
C268 C280 1.349 . S
C269 C267 1.327 . S
C269 C285 1.429 . S
C269 H291 0.950 . S
C270 H266 0.949 . S
C270 C278 1.574 . S
C270 C286 1.368 . S
H271 C279 0.950 . S
H272 C277 0.950 . S
H273 C278 0.949 . S
H274 C280 0.950 . S
H275 C281 0.950 . S
H276 C282 0.949 . S
C277 H272 0.950 . S
C277 C279 1.327 . S
C277 C283 1.429 . S
C278 C270 1.574 . S
C278 H273 0.949 . S
C278 C284 1.368 . S
C279 C263 1.349 . S
C279 H271 0.950 . S
C279 C277 1.327 . S
C280 C268 1.349 . S
C280 H274 0.950 . S
C280 C281 1.327 . S
C281 H275 0.950 . S
C281 C280 1.327 . S
C281 C285 1.429 . S
C282 C265 1.574 . S
C282 H276 0.949 . S
C282 C286 1.368 . S
C283 C264 1.429 . S
C283 C277 1.429 . S
C283 C284 1.523 . S
C284 C265 1.368 . S
C284 C278 1.368 . S
C284 C283 1.523 . S
C285 C269 1.429 . S
C285 C281 1.429 . S
C285 C286 1.523 . S
C286 C270 1.368 . S
C286 C282 1.368 . S
C286 C285 1.523 . S
H287 C262 0.950 . S
H288 C264 0.950 . S
H289 C265 0.949 . S
H290 C267 0.950 . S
H291 C269 0.950 . S
C292 C293 1.349 . S
C292 C294 1.327 . S
C292 H317 0.950 . S
C293 C292 1.349 . S
C293 C309 1.349 . S
C294 C292 1.327 . S
C294 C313 1.429 . S
C294 H318 0.950 . S
C295 C312 1.574 . S
C295 C314 1.368 . S
C295 H319 0.949 . S
H296 C300 0.949 . S
C297 C298 1.349 . S
C297 C299 1.327 . S
C297 H320 0.950 . S
C298 C297 1.349 . S
C298 C310 1.349 . S
C299 C297 1.327 . S
C299 C315 1.429 . S
C299 H321 0.950 . S
C300 H296 0.949 . S
C300 C308 1.574 . S
C300 C316 1.368 . S
H301 C309 0.950 . S
H302 C307 0.950 . S
H303 C308 0.949 . S
H304 C310 0.950 . S
H305 C311 0.950 . S
H306 C312 0.949 . S
C307 H302 0.950 . S
C307 C309 1.327 . S
C307 C313 1.429 . S
C308 C300 1.574 . S
C308 H303 0.949 . S
C308 C314 1.368 . S
C309 C293 1.349 . S
C309 H301 0.950 . S
C309 C307 1.327 . S
C310 C298 1.349 . S
C310 H304 0.950 . S
C310 C311 1.327 . S
C311 H305 0.950 . S
C311 C310 1.327 . S
C311 C315 1.429 . S
C312 C295 1.574 . S
C312 H306 0.949 . S
C312 C316 1.368 . S
C313 C294 1.429 . S
C313 C307 1.429 . S
C313 C314 1.523 . S
C314 C295 1.368 . S
C314 C308 1.368 . S
C314 C313 1.523 . S
C315 C299 1.429 . S
C315 C311 1.429 . S
C315 C316 1.523 . S
C316 C300 1.368 . S
C316 C312 1.368 . S
C316 C315 1.523 . S
H317 C292 0.950 . S
H318 C294 0.950 . S
H319 C295 0.949 . S
H320 C297 0.950 . S
H321 C299 0.950 . S
C322 C323 1.349 . S
C322 C324 1.327 . S
C322 H347 0.950 . S
C323 C322 1.349 . S
C323 C339 1.349 . S
C324 C322 1.327 . S
C324 C343 1.429 . S
C324 H348 0.950 . S
C325 C342 1.574 1_554 S
C325 C344 1.368 . S
C325 H349 0.949 . S
H326 C330 0.949 . S
C327 C328 1.349 . S
C327 C329 1.327 . S
C327 H350 0.950 . S
C328 C327 1.349 . S
C328 C340 1.349 . S
C329 C327 1.327 . S
C329 C345 1.429 . S
C329 H351 0.950 . S
C330 H326 0.949 . S
C330 C338 1.574 1_556 S
C330 C346 1.368 . S
H331 C339 0.950 . S
H332 C337 0.950 . S
H333 C338 0.949 . S
H334 C340 0.950 . S
H335 C341 0.950 . S
H336 C342 0.949 . S
C337 H332 0.950 . S
C337 C339 1.327 . S
C337 C343 1.429 . S
C338 C330 1.574 1_554 S
C338 H333 0.949 . S
C338 C344 1.368 . S
C339 C323 1.349 . S
C339 H331 0.950 . S
C339 C337 1.327 . S
C340 C328 1.349 . S
C340 H334 0.950 . S
C340 C341 1.327 . S
C341 H335 0.950 . S
C341 C340 1.327 . S
C341 C345 1.429 . S
C342 C325 1.574 1_556 S
C342 H336 0.949 . S
C342 C346 1.368 . S
C343 C324 1.429 . S
C343 C337 1.429 . S
C343 C344 1.523 . S
C344 C325 1.368 . S
C344 C338 1.368 . S
C344 C343 1.523 . S
C345 C329 1.429 . S
C345 C341 1.429 . S
C345 C346 1.523 . S
C346 C330 1.368 . S
C346 C342 1.368 . S
C346 C345 1.523 . S
H347 C322 0.950 . S
H348 C324 0.950 . S
H349 C325 0.949 . S
H350 C327 0.950 . S
H351 C329 0.950 . S
C352 C353 1.349 . S
C352 C354 1.327 . S
C352 H377 0.950 . S
C353 C352 1.349 . S
C353 C369 1.349 . S
C354 C352 1.327 . S
C354 C373 1.429 . S
C354 H378 0.950 . S
C355 C372 1.574 1_545 S
C355 C374 1.368 . S
C355 H379 0.949 . S
H356 C360 0.949 . S
C357 C358 1.349 . S
C357 C359 1.327 . S
C357 H380 0.950 . S
C358 C357 1.349 . S
C358 C370 1.349 . S
C359 C357 1.327 . S
C359 C375 1.429 . S
C359 H381 0.950 . S
C360 H356 0.949 . S
C360 C368 1.574 1_565 S
C360 C376 1.368 . S
H361 C369 0.950 . S
H362 C367 0.950 . S
H363 C368 0.949 . S
H364 C370 0.950 . S
H365 C371 0.950 . S
H366 C372 0.949 . S
C367 H362 0.950 . S
C367 C369 1.327 . S
C367 C373 1.429 . S
C368 C360 1.574 1_545 S
C368 H363 0.949 . S
C368 C374 1.368 1_655 S
C369 C353 1.349 . S
C369 H361 0.950 . S
C369 C367 1.327 . S
C370 C358 1.349 . S
C370 H364 0.950 . S
C370 C371 1.327 . S
C371 H365 0.950 . S
C371 C370 1.327 . S
C371 C375 1.429 . S
C372 C355 1.574 1_565 S
C372 H366 0.949 . S
C372 C376 1.368 1_455 S
C373 C354 1.429 . S
C373 C367 1.429 . S
C373 C374 1.523 . S
C374 C355 1.368 . S
C374 C368 1.368 1_455 S
C374 C373 1.523 . S
C375 C359 1.429 . S
C375 C371 1.429 . S
C375 C376 1.523 . S
C376 C360 1.368 . S
C376 C372 1.368 1_655 S
C376 C375 1.523 . S
H377 C352 0.950 . S
H378 C354 0.950 . S
H379 C355 0.949 . S
H380 C357 0.950 . S
H381 C359 0.950 . S
C382 C383 1.349 . S
C382 C384 1.327 . S
C382 H407 0.950 . S
C383 C382 1.349 . S
C383 C399 1.349 . S
C384 C382 1.327 . S
C384 C403 1.429 . S
C384 H408 0.950 . S
C385 C402 1.574 . S
C385 C404 1.368 . S
C385 H409 0.949 . S
H386 C390 0.949 . S
C387 C388 1.349 . S
C387 C389 1.327 . S
C387 H410 0.950 . S
C388 C387 1.349 . S
C388 C400 1.349 . S
C389 C387 1.327 . S
C389 C405 1.429 . S
C389 H411 0.950 . S
C390 H386 0.949 . S
C390 C398 1.574 . S
C390 C406 1.368 . S
H391 C399 0.950 . S
H392 C397 0.950 . S
H393 C398 0.949 . S
H394 C400 0.950 . S
H395 C401 0.950 . S
H396 C402 0.949 . S
C397 H392 0.950 . S
C397 C399 1.327 . S
C397 C403 1.429 . S
C398 C390 1.574 . S
C398 H393 0.949 . S
C398 C404 1.368 1_655 S
C399 C383 1.349 . S
C399 H391 0.950 . S
C399 C397 1.327 . S
C400 C388 1.349 . S
C400 H394 0.950 . S
C400 C401 1.327 . S
C401 H395 0.950 . S
C401 C400 1.327 . S
C401 C405 1.429 . S
C402 C385 1.574 . S
C402 H396 0.949 . S
C402 C406 1.368 1_455 S
C403 C384 1.429 . S
C403 C397 1.429 . S
C403 C404 1.523 . S
C404 C385 1.368 . S
C404 C398 1.368 1_455 S
C404 C403 1.523 . S
C405 C389 1.429 . S
C405 C401 1.429 . S
C405 C406 1.523 . S
C406 C390 1.368 . S
C406 C402 1.368 1_655 S
C406 C405 1.523 . S
H407 C382 0.950 . S
H408 C384 0.950 . S
H409 C385 0.949 . S
H410 C387 0.950 . S
H411 C389 0.950 . S
C412 C413 1.349 . S
C412 C414 1.327 . S
C412 H437 0.950 . S
C413 C412 1.349 . S
C413 C429 1.349 . S
C414 C412 1.327 . S
C414 C433 1.429 . S
C414 H438 0.950 . S
C415 C432 1.574 . S
C415 C434 1.368 . S
C415 H439 0.949 . S
H416 C420 0.949 . S
C417 C418 1.349 . S
C417 C419 1.327 . S
C417 H440 0.950 . S
C418 C417 1.349 . S
C418 C430 1.349 . S
C419 C417 1.327 . S
C419 C435 1.429 . S
C419 H441 0.950 . S
C420 H416 0.949 . S
C420 C428 1.574 . S
C420 C436 1.368 . S
H421 C429 0.950 . S
H422 C427 0.950 . S
H423 C428 0.949 . S
H424 C430 0.950 . S
H425 C431 0.950 . S
H426 C432 0.949 . S
C427 H422 0.950 . S
C427 C429 1.327 . S
C427 C433 1.429 . S
C428 C420 1.574 . S
C428 H423 0.949 . S
C428 C434 1.368 . S
C429 C413 1.349 . S
C429 H421 0.950 . S
C429 C427 1.327 . S
C430 C418 1.349 . S
C430 H424 0.950 . S
C430 C431 1.327 . S
C431 H425 0.950 . S
C431 C430 1.327 . S
C431 C435 1.429 . S
C432 C415 1.574 . S
C432 H426 0.949 . S
C432 C436 1.368 . S
C433 C414 1.429 . S
C433 C427 1.429 . S
C433 C434 1.523 . S
C434 C415 1.368 . S
C434 C428 1.368 . S
C434 C433 1.523 . S
C435 C419 1.429 . S
C435 C431 1.429 . S
C435 C436 1.523 . S
C436 C420 1.368 . S
C436 C432 1.368 . S
C436 C435 1.523 . S
H437 C412 0.950 . S
H438 C414 0.950 . S
H439 C415 0.949 . S
H440 C417 0.950 . S
H441 C419 0.950 . S
C442 C443 1.349 . S
C442 C444 1.327 . S
C442 H467 0.950 . S
C443 C442 1.349 . S
C443 C459 1.349 . S
C444 C442 1.327 . S
C444 C463 1.429 . S
C444 H468 0.950 . S
C445 C462 1.574 . S
C445 C464 1.368 1_545 S
C445 H469 0.949 . S
H446 C450 0.949 . S
C447 C448 1.349 . S
C447 C449 1.327 . S
C447 H470 0.950 . S
C448 C447 1.349 . S
C448 C460 1.349 . S
C449 C447 1.327 . S
C449 C465 1.429 . S
C449 H471 0.950 . S
C450 H446 0.949 . S
C450 C458 1.574 . S
C450 C466 1.368 1_565 S
H451 C459 0.950 . S
H452 C457 0.950 . S
H453 C458 0.949 . S
H454 C460 0.950 . S
H455 C461 0.950 . S
H456 C462 0.949 . S
C457 H452 0.950 . S
C457 C459 1.327 . S
C457 C463 1.429 . S
C458 C450 1.574 . S
C458 H453 0.949 . S
C458 C464 1.368 . S
C459 C443 1.349 . S
C459 H451 0.950 . S
C459 C457 1.327 . S
C460 C448 1.349 . S
C460 H454 0.950 . S
C460 C461 1.327 . S
C461 H455 0.950 . S
C461 C460 1.327 . S
C461 C465 1.429 . S
C462 C445 1.574 . S
C462 H456 0.949 . S
C462 C466 1.368 . S
C463 C444 1.429 . S
C463 C457 1.429 . S
C463 C464 1.523 . S
C464 C445 1.368 1_565 S
C464 C458 1.368 . S
C464 C463 1.523 . S
C465 C449 1.429 . S
C465 C461 1.429 . S
C465 C466 1.523 . S
C466 C450 1.368 1_545 S
C466 C462 1.368 . S
C466 C465 1.523 . S
H467 C442 0.950 . S
H468 C444 0.950 . S
H469 C445 0.949 . S
H470 C447 0.950 . S
H471 C449 0.950 . S
C472 C473 1.349 . S
C472 C474 1.327 . S
C472 H497 0.950 . S
C473 C472 1.349 . S
C473 C489 1.349 . S
C474 C472 1.327 . S
C474 C493 1.429 . S
C474 H498 0.950 . S
C475 C492 1.574 . S
C475 C494 1.368 1_455 S
C475 H499 0.949 . S
H476 C480 0.949 . S
C477 C478 1.349 . S
C477 C479 1.327 . S
C477 H500 0.950 . S
C478 C477 1.349 . S
C478 C490 1.349 . S
C479 C477 1.327 . S
C479 C495 1.429 . S
C479 H501 0.950 . S
C480 H476 0.949 . S
C480 C488 1.574 . S
C480 C496 1.368 1_655 S
H481 C489 0.950 . S
H482 C487 0.950 . S
H483 C488 0.949 . S
H484 C490 0.950 . S
H485 C491 0.950 . S
H486 C492 0.949 . S
C487 H482 0.950 . S
C487 C489 1.327 . S
C487 C493 1.429 . S
C488 C480 1.574 . S
C488 H483 0.949 . S
C488 C494 1.368 . S
C489 C473 1.349 . S
C489 H481 0.950 . S
C489 C487 1.327 . S
C490 C478 1.349 . S
C490 H484 0.950 . S
C490 C491 1.327 . S
C491 H485 0.950 . S
C491 C490 1.327 . S
C491 C495 1.429 . S
C492 C475 1.574 . S
C492 H486 0.949 . S
C492 C496 1.368 . S
C493 C474 1.429 . S
C493 C487 1.429 . S
C493 C494 1.523 . S
C494 C475 1.368 1_655 S
C494 C488 1.368 . S
C494 C493 1.523 . S
C495 C479 1.429 . S
C495 C491 1.429 . S
C495 C496 1.523 . S
C496 C480 1.368 1_455 S
C496 C492 1.368 . S
C496 C495 1.523 . S
H497 C472 0.950 . S
H498 C474 0.950 . S
H499 C475 0.949 . S
H500 C477 0.950 . S
H501 C479 0.950 . S
C502 C503 1.349 . S
C502 C504 1.327 . S
C502 H527 0.950 . S
C503 C502 1.349 . S
C503 C519 1.349 . S
C504 C502 1.327 . S
C504 C523 1.429 . S
C504 H528 0.950 . S
C505 C522 1.574 . S
C505 C524 1.368 . S
C505 H529 0.949 . S
H506 C510 0.949 . S
C507 C508 1.349 . S
C507 C509 1.327 . S
C507 H530 0.950 . S
C508 C507 1.349 . S
C508 C520 1.349 . S
C509 C507 1.327 . S
C509 C525 1.429 . S
C509 H531 0.950 . S
C510 H506 0.949 . S
C510 C518 1.574 . S
C510 C526 1.368 . S
H511 C519 0.950 . S
H512 C517 0.950 . S
H513 C518 0.949 . S
H514 C520 0.950 . S
H515 C521 0.950 . S
H516 C522 0.949 . S
C517 H512 0.950 . S
C517 C519 1.327 . S
C517 C523 1.429 . S
C518 C510 1.574 . S
C518 H513 0.949 . S
C518 C524 1.368 . S
C519 C503 1.349 . S
C519 H511 0.950 . S
C519 C517 1.327 . S
C520 C508 1.349 . S
C520 H514 0.950 . S
C520 C521 1.327 . S
C521 H515 0.950 . S
C521 C520 1.327 . S
C521 C525 1.429 . S
C522 C505 1.574 . S
C522 H516 0.949 . S
C522 C526 1.368 . S
C523 C504 1.429 . S
C523 C517 1.429 . S
C523 C524 1.523 . S
C524 C505 1.368 . S
C524 C518 1.368 . S
C524 C523 1.523 . S
C525 C509 1.429 . S
C525 C521 1.429 . S
C525 C526 1.523 . S
C526 C510 1.368 . S
C526 C522 1.368 . S
C526 C525 1.523 . S
H527 C502 0.950 . S
H528 C504 0.950 . S
H529 C505 0.949 . S
H530 C507 0.950 . S
H531 C509 0.950 . S
C532 C533 1.349 . S
C532 C534 1.327 . S
C532 H557 0.950 . S
C533 C532 1.349 . S
C533 C549 1.349 . S
C534 C532 1.327 . S
C534 C553 1.429 . S
C534 H558 0.950 . S
C535 C552 1.574 . S
C535 C554 1.368 1_565 S
C535 H559 0.949 . S
H536 C540 0.949 . S
C537 C538 1.349 . S
C537 C539 1.327 . S
C537 H560 0.950 . S
C538 C537 1.349 . S
C538 C550 1.349 . S
C539 C537 1.327 . S
C539 C555 1.429 . S
C539 H561 0.950 . S
C540 H536 0.949 . S
C540 C548 1.574 . S
C540 C556 1.368 1_545 S
H541 C549 0.950 . S
H542 C547 0.950 . S
H543 C548 0.949 . S
H544 C550 0.950 . S
H545 C551 0.950 . S
H546 C552 0.949 . S
C547 H542 0.950 . S
C547 C549 1.327 . S
C547 C553 1.429 . S
C548 C540 1.574 . S
C548 H543 0.949 . S
C548 C554 1.368 . S
C549 C533 1.349 . S
C549 H541 0.950 . S
C549 C547 1.327 . S
C550 C538 1.349 . S
C550 H544 0.950 . S
C550 C551 1.327 . S
C551 H545 0.950 . S
C551 C550 1.327 . S
C551 C555 1.429 . S
C552 C535 1.574 . S
C552 H546 0.949 . S
C552 C556 1.368 . S
C553 C534 1.429 . S
C553 C547 1.429 . S
C553 C554 1.523 . S
C554 C535 1.368 1_545 S
C554 C548 1.368 . S
C554 C553 1.523 . S
C555 C539 1.429 . S
C555 C551 1.429 . S
C555 C556 1.523 . S
C556 C540 1.368 1_565 S
C556 C552 1.368 . S
C556 C555 1.523 . S
H557 C532 0.950 . S
H558 C534 0.950 . S
H559 C535 0.949 . S
H560 C537 0.950 . S
H561 C539 0.950 . S
C562 C563 1.349 . S
C562 C564 1.327 . S
C562 H587 0.950 . S
C563 C562 1.349 . S
C563 C579 1.349 . S
C564 C562 1.327 . S
C564 C583 1.429 . S
C564 H588 0.950 . S
C565 C582 1.574 1_655 S
C565 C584 1.368 1_545 S
C565 H589 0.949 . S
H566 C570 0.949 . S
C567 C568 1.349 . S
C567 C569 1.327 . S
C567 H590 0.950 . S
C568 C567 1.349 . S
C568 C580 1.349 . S
C569 C567 1.327 . S
C569 C585 1.429 . S
C569 H591 0.950 . S
C570 H566 0.949 . S
C570 C578 1.574 1_455 S
C570 C586 1.368 1_565 S
H571 C579 0.950 . S
H572 C577 0.950 . S
H573 C578 0.949 . S
H574 C580 0.950 . S
H575 C581 0.950 . S
H576 C582 0.949 . S
C577 H572 0.950 . S
C577 C579 1.327 . S
C577 C583 1.429 . S
C578 C570 1.574 1_655 S
C578 H573 0.949 . S
C578 C584 1.368 . S
C579 C563 1.349 . S
C579 H571 0.950 . S
C579 C577 1.327 . S
C580 C568 1.349 . S
C580 H574 0.950 . S
C580 C581 1.327 . S
C581 H575 0.950 . S
C581 C580 1.327 . S
C581 C585 1.429 . S
C582 C565 1.574 1_455 S
C582 H576 0.949 . S
C582 C586 1.368 . S
C583 C564 1.429 . S
C583 C577 1.429 . S
C583 C584 1.523 . S
C584 C565 1.368 1_565 S
C584 C578 1.368 . S
C584 C583 1.523 . S
C585 C569 1.429 . S
C585 C581 1.429 . S
C585 C586 1.523 . S
C586 C570 1.368 1_545 S
C586 C582 1.368 . S
C586 C585 1.523 . S
H587 C562 0.950 . S
H588 C564 0.950 . S
H589 C565 0.949 . S
H590 C567 0.950 . S
H591 C569 0.950 . S
C113 C6 1.306 . S
C118 C76 1.306 . S
C143 C23 1.181 . S
C148 C93 1.181 . S
C173 C34 1.306 . S
C178 C104 1.306 . S
C203 C51 1.181 . S
C208 C65 1.181 . S
C233 C107 1.181 . S
C238 C9 1.181 . S
C263 C62 1.306 . S
C268 C20 1.306 . S
C293 C37 1.181 . S
C298 C79 1.181 . S
C323 C90 1.306 . S
C328 C48 1.306 . S
C353 C8 1.568 . S
C358 C92 1.568 . S
C383 C105 1.644 . S
C388 C21 1.644 . S
C413 C36 1.568 . S
C418 C64 1.568 . S
C443 C49 1.644 . S
C448 C77 1.644 . S
C473 C91 1.644 . S
C478 C7 1.644 . S
C503 C106 1.568 . S
C508 C22 1.568 . S
C533 C35 1.644 . S
C538 C63 1.644 . S
C563 C50 1.568 . S
C568 C78 1.568 . S
