# Generated by pormake.
# Topology whr, (6)-cn, num edge types: 1
# Building blocks:
#     Node 0, Type 0, BuildingBlock: OJICUG_clean_sbu_0, # of connection points: 6
#     Node 1, Type 0, BuildingBlock: OJICUG_clean_sbu_0, # of connection points: 6
#     Node 2, Type 0, BuildingBlock: OJICUG_clean_sbu_0, # of connection points: 6
#     Node 3, Type 0, BuildingBlock: OJICUG_clean_sbu_0, # of connection points: 6
#     Node 4, Type 0, BuildingBlock: OJICUG_clean_sbu_0, # of connection points: 6
#     Node 5, Type 0, BuildingBlock: OJICUG_clean_sbu_0, # of connection points: 6
#     Node 6, Type 0, BuildingBlock: OJICUG_clean_sbu_0, # of connection points: 6
#     Node 7, Type 0, BuildingBlock: OJICUG_clean_sbu_0, # of connection points: 6
#     Node 8, Type 0, BuildingBlock: OJICUG_clean_sbu_0, # of connection points: 6
#     Node 9, Type 0, BuildingBlock: OJICUG_clean_sbu_0, # of connection points: 6
#     Node 10, Type 0, BuildingBlock: OJICUG_clean_sbu_0, # of connection points: 6
#     Node 11, Type 0, BuildingBlock: OJICUG_clean_sbu_0, # of connection points: 6
#     Node 12, Type 0, BuildingBlock: OJICUG_clean_sbu_0, # of connection points: 6
#     Node 13, Type 0, BuildingBlock: OJICUG_clean_sbu_0, # of connection points: 6
#     Node 14, Type 0, BuildingBlock: OJICUG_clean_sbu_0, # of connection points: 6
#     Node 15, Type 0, BuildingBlock: OJICUG_clean_sbu_0, # of connection points: 6
#     Edge 16, Type (0, 0), BuildingBlock: OJICUG_clean_linker_0, # of connection points: 2
#     Edge 17, Type (0, 0), BuildingBlock: OJICUG_clean_linker_0, # of connection points: 2
#     Edge 18, Type (0, 0), BuildingBlock: OJICUG_clean_linker_0, # of connection points: 2
#     Edge 19, Type (0, 0), BuildingBlock: OJICUG_clean_linker_0, # of connection points: 2
#     Edge 20, Type (0, 0), BuildingBlock: OJICUG_clean_linker_0, # of connection points: 2
#     Edge 21, Type (0, 0), BuildingBlock: OJICUG_clean_linker_0, # of connection points: 2
#     Edge 22, Type (0, 0), BuildingBlock: OJICUG_clean_linker_0, # of connection points: 2
#     Edge 23, Type (0, 0), BuildingBlock: OJICUG_clean_linker_0, # of connection points: 2
#     Edge 24, Type (0, 0), BuildingBlock: OJICUG_clean_linker_0, # of connection points: 2
#     Edge 25, Type (0, 0), BuildingBlock: OJICUG_clean_linker_0, # of connection points: 2
#     Edge 26, Type (0, 0), BuildingBlock: OJICUG_clean_linker_0, # of connection points: 2
#     Edge 27, Type (0, 0), BuildingBlock: OJICUG_clean_linker_0, # of connection points: 2
#     Edge 28, Type (0, 0), BuildingBlock: OJICUG_clean_linker_0, # of connection points: 2
#     Edge 29, Type (0, 0), BuildingBlock: OJICUG_clean_linker_0, # of connection points: 2
#     Edge 30, Type (0, 0), BuildingBlock: OJICUG_clean_linker_0, # of connection points: 2
#     Edge 31, Type (0, 0), BuildingBlock: OJICUG_clean_linker_0, # of connection points: 2
#     Edge 32, Type (0, 0), BuildingBlock: OJICUG_clean_linker_0, # of connection points: 2
#     Edge 33, Type (0, 0), BuildingBlock: OJICUG_clean_linker_0, # of connection points: 2
#     Edge 34, Type (0, 0), BuildingBlock: OJICUG_clean_linker_0, # of connection points: 2
#     Edge 35, Type (0, 0), BuildingBlock: OJICUG_clean_linker_0, # of connection points: 2
#     Edge 36, Type (0, 0), BuildingBlock: OJICUG_clean_linker_0, # of connection points: 2
#     Edge 37, Type (0, 0), BuildingBlock: OJICUG_clean_linker_0, # of connection points: 2
#     Edge 38, Type (0, 0), BuildingBlock: OJICUG_clean_linker_0, # of connection points: 2
#     Edge 39, Type (0, 0), BuildingBlock: OJICUG_clean_linker_0, # of connection points: 2
#     Edge 40, Type (0, 0), BuildingBlock: OJICUG_clean_linker_0, # of connection points: 2
#     Edge 41, Type (0, 0), BuildingBlock: OJICUG_clean_linker_0, # of connection points: 2
#     Edge 42, Type (0, 0), BuildingBlock: OJICUG_clean_linker_0, # of connection points: 2
#     Edge 43, Type (0, 0), BuildingBlock: OJICUG_clean_linker_0, # of connection points: 2
#     Edge 44, Type (0, 0), BuildingBlock: OJICUG_clean_linker_0, # of connection points: 2
#     Edge 45, Type (0, 0), BuildingBlock: OJICUG_clean_linker_0, # of connection points: 2
#     Edge 46, Type (0, 0), BuildingBlock: OJICUG_clean_linker_0, # of connection points: 2
#     Edge 47, Type (0, 0), BuildingBlock: OJICUG_clean_linker_0, # of connection points: 2
#     Edge 48, Type (0, 0), BuildingBlock: OJICUG_clean_linker_0, # of connection points: 2
#     Edge 49, Type (0, 0), BuildingBlock: OJICUG_clean_linker_0, # of connection points: 2
#     Edge 50, Type (0, 0), BuildingBlock: OJICUG_clean_linker_0, # of connection points: 2
#     Edge 51, Type (0, 0), BuildingBlock: OJICUG_clean_linker_0, # of connection points: 2
#     Edge 52, Type (0, 0), BuildingBlock: OJICUG_clean_linker_0, # of connection points: 2
#     Edge 53, Type (0, 0), BuildingBlock: OJICUG_clean_linker_0, # of connection points: 2
#     Edge 54, Type (0, 0), BuildingBlock: OJICUG_clean_linker_0, # of connection points: 2
#     Edge 55, Type (0, 0), BuildingBlock: OJICUG_clean_linker_0, # of connection points: 2
#     Edge 56, Type (0, 0), BuildingBlock: OJICUG_clean_linker_0, # of connection points: 2
#     Edge 57, Type (0, 0), BuildingBlock: OJICUG_clean_linker_0, # of connection points: 2
#     Edge 58, Type (0, 0), BuildingBlock: OJICUG_clean_linker_0, # of connection points: 2
#     Edge 59, Type (0, 0), BuildingBlock: OJICUG_clean_linker_0, # of connection points: 2
#     Edge 60, Type (0, 0), BuildingBlock: OJICUG_clean_linker_0, # of connection points: 2
#     Edge 61, Type (0, 0), BuildingBlock: OJICUG_clean_linker_0, # of connection points: 2
#     Edge 62, Type (0, 0), BuildingBlock: OJICUG_clean_linker_0, # of connection points: 2
#     Edge 63, Type (0, 0), BuildingBlock: OJICUG_clean_linker_0, # of connection points: 2
# Relax obj value: 0.342
# Max RMSD: 0.271
# Mean RMSD: 0.271
data_MOF--net-whr--node1-OJICUG_clean_sbu_0--edge1-OJICUG_clean_linker_0
_symmetry_space_group_name_H-M    P1
_symmetry_Int_Tables_number       1
_symmetry_cell_setting            triclinic
loop_
_symmetry_equiv_pos_as_xyz
'x, y, z'
_cell_length_a     36.516892
_cell_length_b     36.514229
_cell_length_c     22.332301
_cell_angle_alpha  89.998553
_cell_angle_beta   89.99745
_cell_angle_gamma 90.031522
loop_
_atom_site_label
_atom_site_type_symbol
_atom_site_fract_x
_atom_site_fract_y
_atom_site_fract_z
_atom_type_partial_charge
Sc0 Sc 0.18346 0.0512 0.11533 0.0
Sc1 Sc 0.23633 0.10728 0.02471 0.0
Sc2 Sc 0.26216 0.01644 0.05091 0.0
O3 O 0.22731 0.05855 0.06323 0.0
C4 C 0.24538 0.00494 0.18344 0.0
C5 C 0.20825 0.12872 0.15713 0.0
C6 C 0.31671 0.08509 0.04514 0.0
C7 C 0.15142 0.10577 0.01569 0.0
C8 C 0.18365 0.97749 0.05002 0.0
C9 C 0.25536 0.04763 0.92215 0.0
O10 O 0.21212 0.01373 0.17412 0.0
O11 O 0.21899 0.13762 0.10456 0.0
O12 O 0.31006 0.05114 0.03847 0.0
O13 O 0.1485 0.08709 0.06355 0.0
O14 O 0.21842 0.97561 0.05528 0.0
O15 O 0.25228 0.08075 0.94048 0.0
O16 O 0.16586 0.0066 0.06072 0.0
O17 O 0.18189 0.11143 0.99001 0.0
O18 O 0.2548 0.01995 0.9567 0.0
O19 O 0.1995 0.09612 0.17143 0.0
O20 O 0.27087 0.01143 0.14601 0.0
O21 O 0.29172 0.1081 0.05683 0.0
Sc22 Sc 0.05081 0.81708 0.87232 0.0
Sc23 Sc 0.10708 0.76405 0.96219 0.0
Sc24 Sc 0.01633 0.73794 0.9358 0.0
O25 O 0.0583 0.77304 0.9239 0.0
C26 C 0.97729 0.81638 0.93811 0.0
C27 C 0.1054 0.84887 0.97218 0.0
C28 C 0.0476 0.74406 0.06463 0.0
C29 C 0.12824 0.79257 0.82994 0.0
C30 C 0.0046 0.75542 0.80351 0.0
C31 C 0.08518 0.68371 0.94019 0.0
O32 O 0.00634 0.83431 0.9274 0.0
O33 O 0.11104 0.81834 -0.00235 0.0
O34 O 0.01992 0.74468 0.03011 0.0
O35 O 0.09561 0.80128 0.81584 0.0
O36 O 0.01123 0.72978 0.84057 0.0
O37 O 0.10808 0.70891 0.92913 0.0
O38 O 0.01324 0.78867 0.81332 0.0
O39 O 0.13727 0.78185 0.88245 0.0
O40 O 0.05122 0.69009 0.94718 0.0
O41 O 0.08678 0.85189 0.92429 0.0
O42 O 0.97543 0.78163 0.93238 0.0
O43 O 0.08069 0.74748 0.04628 0.0
Sc44 Sc 0.73768 0.98355 0.05089 0.0
Sc45 Sc 0.76384 0.8928 0.02482 0.0
Sc46 Sc 0.81643 0.94901 0.11556 0.0
O47 O 0.77267 0.94156 0.06332 0.0
C48 C 0.81615 0.02265 0.04993 0.0
C49 C 0.74453 0.95231 0.92215 0.0
C50 C 0.84868 0.8945 0.01598 0.0
C51 C 0.68342 0.91466 0.04557 0.0
C52 C 0.75439 0.99523 0.18345 0.0
C53 C 0.79183 0.87146 0.15732 0.0
O54 O 0.78136 0.02447 0.05506 0.0
O55 O 0.74774 0.91921 0.94055 0.0
O56 O 0.8515 0.9131 0.06394 0.0
O57 O 0.68988 0.94863 0.03868 0.0
O58 O 0.78767 0.9865 0.17422 0.0
O59 O 0.78128 0.86253 0.10467 0.0
O60 O 0.72895 0.98864 0.14598 0.0
O61 O 0.70853 0.89178 0.05712 0.0
O62 O 0.80038 0.9041 0.1717 0.0
O63 O 0.74501 0.98 0.95667 0.0
O64 O 0.83399 0.99361 0.06089 0.0
O65 O 0.81827 0.88892 0.99009 0.0
Sc66 Sc 0.98363 0.26206 0.93547 0.0
Sc67 Sc 0.89282 0.2361 0.96168 0.0
Sc68 Sc 0.94911 0.18297 0.87194 0.0
O69 O 0.94162 0.22701 0.92349 0.0
C70 C 0.99526 0.24471 0.80315 0.0
C71 C 0.91488 0.31641 0.94018 0.0
C72 C 0.87167 0.20752 0.82949 0.0
C73 C 0.95231 0.25585 0.0642 0.0
C74 C 0.0227 0.18365 0.93754 0.0
C75 C 0.89441 0.15123 0.97174 0.0
O76 O 0.98866 0.27033 0.84028 0.0
O77 O 0.89197 0.29128 0.92871 0.0
O78 O 0.90428 0.19869 0.81547 0.0
O79 O 0.98003 0.25515 0.02974 0.0
O80 O 0.99364 0.16573 0.92696 0.0
O81 O 0.88868 0.18179 -0.00293 0.0
O82 O 0.02454 0.21841 0.93179 0.0
O83 O 0.91922 0.25256 0.0458 0.0
O84 O 0.91317 0.14816 0.924 0.0
O85 O 0.94882 0.30992 0.94719 0.0
O86 O 0.98662 0.21144 0.81291 0.0
O87 O 0.86264 0.21838 0.88192 0.0
Sc88 Sc 0.73734 0.01711 0.55095 0.0
Sc89 Sc 0.76389 0.10778 0.5244 0.0
Sc90 Sc 0.81678 0.05127 0.61409 0.0
O91 O 0.77266 0.05894 0.56271 0.0
C92 C 0.75516 0.00513 0.68315 0.0
C93 C 0.68337 0.08623 0.54746 0.0
C94 C 0.79265 0.1288 0.65657 0.0
C95 C 0.74339 0.04848 0.422 0.0
C96 C 0.8157 0.97779 0.54802 0.0
C97 C 0.84869 0.10574 0.51417 0.0
O98 O 0.72947 0.01182 0.64621 0.0
O99 O 0.70875 0.10914 0.55743 0.0
O100 O 0.80126 0.09613 0.67064 0.0
O101 O 0.74371 0.0208 0.45655 0.0
O102 O 0.83375 0.00673 0.55892 0.0
O103 O 0.81816 0.11149 0.48879 0.0
O104 O 0.78093 0.97606 0.55367 0.0
O105 O 0.74716 0.08153 0.44031 0.0
O106 O 0.85167 0.08711 0.56204 0.0
O107 O 0.68955 0.05221 0.54056 0.0
O108 O 0.7884 0.01377 0.67323 0.0
O109 O 0.78189 0.13787 0.6041 0.0
Sc110 Sc 0.05125 0.1832 0.37091 0.0
Sc111 Sc 0.10744 0.23589 0.46152 0.0
Sc112 Sc 0.01672 0.26198 0.43541 0.0
O113 O 0.0587 0.22698 0.42306 0.0
C114 C 0.00521 0.2453 0.30287 0.0
C115 C 0.12885 0.20771 0.32917 0.0
C116 C 0.08558 0.31622 0.441 0.0
C117 C 0.10565 0.15104 0.4707 0.0
C118 C 0.97753 0.18359 0.43618 0.0
C119 C 0.04787 0.25519 0.5641 0.0
O120 O 0.01387 0.212 0.31216 0.0
O121 O 0.13776 0.21834 0.38179 0.0
O122 O 0.05163 0.30973 0.448 0.0
O123 O 0.08706 0.14816 0.42275 0.0
O124 O 0.97575 0.21837 0.43093 0.0
O125 O 0.08097 0.2521 0.5457 0.0
O126 O 0.00659 0.16572 0.4255 0.0
O127 O 0.11132 0.18149 0.49643 0.0
O128 O 0.02018 0.25454 0.5296 0.0
O129 O 0.09622 0.19913 0.3148 0.0
O130 O 0.01179 0.27075 0.34033 0.0
O131 O 0.10839 0.29114 0.42892 0.0
Sc132 Sc 0.18261 0.94872 0.61451 0.0
Sc133 Sc 0.23554 0.89241 0.52453 0.0
Sc134 Sc 0.26176 0.98314 0.55096 0.0
O135 O 0.22662 0.9412 0.56287 0.0
C136 C 0.18339 0.0223 0.54886 0.0
C137 C 0.15071 0.89424 0.51459 0.0
C138 C 0.25554 0.9519 0.42213 0.0
C139 C 0.20703 0.87123 0.65676 0.0
C140 C 0.24439 0.9948 0.68328 0.0
C141 C 0.31592 0.91425 0.54645 0.0
O142 O 0.16542 0.99328 0.55955 0.0
O143 O 0.18123 0.88852 0.48914 0.0
O144 O 0.25495 0.97959 0.45666 0.0
O145 O 0.19833 0.90386 0.67089 0.0
O146 O 0.26999 0.98817 0.64615 0.0
O147 O 0.29071 0.89134 0.55745 0.0
O148 O 0.21112 0.9862 0.67355 0.0
O149 O 0.21775 0.86221 0.60425 0.0
O150 O 0.30954 0.94822 0.53951 0.0
O151 O 0.14772 0.91286 0.56248 0.0
O152 O 0.21815 0.02409 0.55452 0.0
O153 O 0.25209 0.91881 0.44045 0.0
Sc154 Sc 0.9828 0.73793 0.43575 0.0
Sc155 Sc 0.89208 0.76411 0.46203 0.0
Sc156 Sc 0.94824 0.81664 0.37108 0.0
O157 O 0.94081 0.77291 0.42339 0.0
C158 C 0.02192 0.81638 0.43646 0.0
C159 C 0.9517 0.7449 0.56457 0.0
C160 C 0.89372 0.84899 0.47055 0.0
C161 C 0.91396 0.68364 0.44165 0.0
C162 C 0.99441 0.75457 0.3032 0.0
C163 C 0.87069 0.79202 0.32949 0.0
O164 O 0.02372 0.78159 0.4313 0.0
O165 O 0.91859 0.74811 0.54628 0.0
O166 O 0.91233 0.85175 0.4226 0.0
O167 O 0.94793 0.69015 0.44825 0.0
O168 O 0.98572 0.78786 0.31245 0.0
O169 O 0.86177 0.78149 0.38217 0.0
O170 O 0.98779 0.72913 0.34066 0.0
O171 O 0.89103 0.70871 0.43003 0.0
O172 O 0.90332 0.80053 0.31504 0.0
O173 O 0.97935 0.74535 0.52996 0.0
O174 O 0.99285 0.83424 0.42567 0.0
O175 O 0.88817 0.81861 0.49657 0.0
Sc176 Sc 0.68279 0.55087 0.61604 0.0
Sc177 Sc 0.73597 0.60713 0.52634 0.0
Sc178 Sc 0.7619 0.51635 0.55275 0.0
O179 O 0.72687 0.55834 0.56457 0.0
C180 C 0.74428 0.50455 0.68499 0.0
C181 C 0.70735 0.62826 0.65848 0.0
C182 C 0.81621 0.58522 0.54823 0.0
C183 C 0.65118 0.60548 0.5161 0.0
C184 C 0.68341 0.47742 0.55007 0.0
C185 C 0.75603 0.54767 0.42396 0.0
O186 O 0.71106 0.51321 0.67506 0.0
O187 O 0.71808 0.6373 0.60598 0.0
O188 O 0.80978 0.55125 0.54125 0.0
O189 O 0.64811 0.5869 0.56402 0.0
O190 O 0.71814 0.47547 0.55611 0.0
O191 O 0.75268 0.58076 0.44234 0.0
O192 O 0.66553 0.50648 0.56076 0.0
O193 O 0.68173 0.6111 0.49066 0.0
O194 O 0.7552 0.51996 0.45842 0.0
O195 O 0.69865 0.59562 0.67259 0.0
O196 O 0.76998 0.51123 0.64802 0.0
O197 O 0.79105 0.60806 0.55971 0.0
Sc198 Sc 0.55303 0.31665 0.36809 0.0
Sc199 Sc 0.60635 0.26439 0.46382 0.0
Sc200 Sc 0.51659 0.23889 0.43065 0.0
O201 O 0.55906 0.27325 0.42099 0.0
C202 C 0.47799 0.31715 0.4285 0.0
C203 C 0.60525 0.34919 0.47059 0.0
C204 C 0.54312 0.24865 0.56107 0.0
C205 C 0.63114 0.29135 0.33207 0.0
C206 C 0.50815 0.25402 0.29886 0.0
C207 C 0.58473 0.18422 0.44354 0.0
O208 O 0.50755 0.33478 0.42042 0.0
O209 O 0.60938 0.31903 0.49796 0.0
O210 O 0.51729 0.24941 0.5231 0.0
O211 O 0.59887 0.29956 0.31522 0.0
O212 O 0.51475 0.22863 0.33629 0.0
O213 O 0.60794 0.20905 0.43211 0.0
O214 O 0.51639 0.28744 0.30841 0.0
O215 O 0.63881 0.28152 0.38571 0.0
O216 O 0.55071 0.19105 0.44856 0.0
O217 O 0.58831 0.35172 0.42096 0.0
O218 O 0.47594 0.28254 0.42093 0.0
O219 O 0.57712 0.24861 0.54653 0.0
Sc220 Sc 0.23876 0.48215 0.55272 0.0
Sc221 Sc 0.26438 0.39144 0.52466 0.0
Sc222 Sc 0.31835 0.44736 0.61388 0.0
O223 O 0.27388 0.44008 0.56324 0.0
C224 C 0.31713 0.52131 0.54954 0.0
C225 C 0.24393 0.45153 0.42347 0.0
C226 C 0.34932 0.39323 0.51248 0.0
C227 C 0.18427 0.4135 0.54781 0.0
C228 C 0.25713 0.493 0.68486 0.0
C229 C 0.29338 0.36986 0.6562 0.0
O230 O 0.28244 0.52307 0.55615 0.0
O231 O 0.24744 0.41834 0.44126 0.0
O232 O 0.35282 0.41185 0.56032 0.0
O233 O 0.19077 0.44748 0.5413 0.0
O234 O 0.29034 0.4845 0.67424 0.0
O235 O 0.28222 0.3609 0.60391 0.0
O236 O 0.23125 0.48658 0.64814 0.0
O237 O 0.20942 0.39052 0.55856 0.0
O238 O 0.30298 0.40229 0.66998 0.0
O239 O 0.24494 0.47906 0.45831 0.0
O240 O 0.33514 0.4922 0.55921 0.0
O241 O 0.31848 0.38728 0.4882 0.0
Sc242 Sc 0.48332 0.76173 0.43717 0.0
Sc243 Sc 0.39256 0.7354 0.46304 0.0
Sc244 Sc 0.44885 0.68297 0.37223 0.0
O245 O 0.44135 0.72669 0.42456 0.0
C246 C 0.49504 0.74516 0.3046 0.0
C247 C 0.41448 0.81592 0.44256 0.0
C248 C 0.37129 0.7076 0.33034 0.0
C249 C 0.45203 0.75457 0.56589 0.0
C250 C 0.52251 0.68335 0.43784 0.0
C251 C 0.39439 0.6505 0.47165 0.0
O252 O 0.48847 0.77056 0.34213 0.0
O253 O 0.39154 0.7908 0.43116 0.0
O254 O 0.40391 0.69892 0.31609 0.0
O255 O 0.47972 0.75428 0.53137 0.0
O256 O 0.49348 0.66545 0.42683 0.0
O257 O 0.38862 0.68089 0.49747 0.0
O258 O 0.52428 0.71815 0.4329 0.0
O259 O 0.41895 0.75129 0.54747 0.0
O260 O 0.41305 0.64775 0.42376 0.0
O261 O 0.44844 0.80947 0.4494 0.0
O262 O 0.48627 0.71187 0.31368 0.0
O263 O 0.36233 0.71817 0.38298 0.0
Sc264 Sc 0.23734 0.51642 0.05288 0.0
Sc265 Sc 0.26406 0.6069 0.02562 0.0
Sc266 Sc 0.31581 0.55122 0.11836 0.0
O267 O 0.27243 0.55839 0.06519 0.0
C268 C 0.2531 0.50555 0.18572 0.0
C269 C 0.1834 0.58542 0.04531 0.0
C270 C 0.29139 0.62915 0.15817 0.0
C271 C 0.24542 0.54667 0.92369 0.0
C272 C 0.31559 0.47686 0.05516 0.0
C273 C 0.34894 0.60488 0.01825 0.0
O274 O 0.22788 0.51197 0.14782 0.0
O275 O 0.20852 0.60834 0.05678 0.0
O276 O 0.29961 0.59657 0.17328 0.0
O277 O 0.24548 0.51923 0.95875 0.0
O278 O 0.33349 0.50601 0.06533 0.0
O279 O 0.3187 0.61032 0.9918 0.0
O280 O 0.28073 0.47535 0.05898 0.0
O281 O 0.24851 0.57989 0.94153 0.0
O282 O 0.35145 0.58661 0.0666 0.0
O283 O 0.1898 0.5514 0.03909 0.0
O284 O 0.28643 0.51432 0.17706 0.0
O285 O 0.28118 0.63775 0.10518 0.0
Sc286 Sc 0.55113 0.68214 0.87404 0.0
Sc287 Sc 0.60742 0.73544 0.96362 0.0
Sc288 Sc 0.51663 0.76132 0.93718 0.0
O289 O 0.55863 0.72629 0.92541 0.0
C290 C 0.50487 0.74362 0.80494 0.0
C291 C 0.62852 0.70681 0.83147 0.0
C292 C 0.58539 0.81574 0.94144 0.0
C293 C 0.60581 0.65058 0.97392 0.0
C294 C 0.47767 0.68281 0.94001 0.0
C295 C 0.54798 0.75545 0.066 0.0
O296 O 0.51353 0.71039 0.81489 0.0
O297 O 0.63757 0.71768 0.88389 0.0
O298 O 0.55143 0.80927 0.94832 0.0
O299 O 0.58712 0.64746 0.92613 0.0
O300 O 0.47579 0.71755 0.93403 0.0
O301 O 0.58106 0.75201 0.04766 0.0
O302 O 0.5067 0.6649 0.92928 0.0
O303 O 0.61151 0.68117 -0.0008 0.0
O304 O 0.52028 0.75475 0.03152 0.0
O305 O 0.59591 0.69792 0.81748 0.0
O306 O 0.51149 0.76932 0.84192 0.0
O307 O 0.60835 0.79059 0.93054 0.0
Sc308 Sc 0.68394 0.44848 0.11802 0.0
Sc309 Sc 0.73647 0.39218 0.02727 0.0
Sc310 Sc 0.76247 0.48312 0.05258 0.0
O311 O 0.72761 0.44102 0.06552 0.0
C312 C 0.68398 0.52206 0.05222 0.0
C313 C 0.65143 0.39359 0.01924 0.0
C314 C 0.75506 0.45163 0.924 0.0
C315 C 0.70931 0.37113 0.16041 0.0
C316 C 0.74615 0.49491 0.18521 0.0
C317 C 0.81697 0.41452 0.04665 0.0
O318 O 0.66618 0.49299 0.06333 0.0
O319 O 0.68182 0.38773 0.99345 0.0
O320 O 0.75481 0.47937 0.95844 0.0
O321 O 0.70017 0.40369 0.17429 0.0
O322 O 0.7715 0.48838 0.14758 0.0
O323 O 0.79201 0.3915 0.05851 0.0
O324 O 0.71286 0.48607 0.17627 0.0
O325 O 0.71987 0.36208 0.10781 0.0
O326 O 0.81034 0.44845 0.03992 0.0
O327 O 0.64869 0.41251 0.06685 0.0
O328 O 0.71877 0.52394 0.05706 0.0
O329 O 0.75187 0.41855 0.94253 0.0
Sc330 Sc 0.48308 0.23809 0.93598 0.0
Sc331 Sc 0.39138 0.26246 0.96284 0.0
Sc332 Sc 0.44753 0.31841 0.87735 0.0
O333 O 0.4404 0.27298 0.92566 0.0
C334 C 0.52217 0.31636 0.941 0.0
C335 C 0.45112 0.24222 0.06437 0.0
C336 C 0.39296 0.34761 0.97894 0.0
C337 C 0.41492 0.18286 0.9387 0.0
C338 C 0.49223 0.25783 0.80341 0.0
C339 C 0.36994 0.29336 0.83278 0.0
O340 O 0.5239 0.28172 0.93439 0.0
O341 O 0.418 0.24559 0.04627 0.0
O342 O 0.41316 0.35201 0.93319 0.0
O343 O 0.44879 0.18964 0.94576 0.0
O344 O 0.48258 0.29058 0.81488 0.0
O345 O 0.36091 0.28004 0.88359 0.0
O346 O 0.48904 0.23161 0.84066 0.0
O347 O 0.39182 0.20782 0.92763 0.0
O348 O 0.40197 0.30497 0.82104 0.0
O349 O 0.47889 0.24352 0.03012 0.0
O350 O 0.49308 0.33435 0.93135 0.0
O351 O 0.38538 0.31628 0.00026 0.0
C352 C 0.20487 0.15284 0.26154 0.0
C353 C 0.19791 0.15762 0.20016 0.0
H354 H 0.18919 0.16677 0.35121 0.0
C355 C 0.17333 0.18505 0.18205 0.0
H356 H 0.22336 0.13154 0.27656 0.0
C357 C 0.15294 0.20438 0.22471 0.0
C358 C 0.15775 0.19745 0.28609 0.0
H359 H 0.167 0.18881 0.13504 0.0
H360 H 0.13151 0.22272 0.20969 0.0
C361 C 0.18538 0.17308 0.3042 0.0
C362 C 0.15201 0.79563 0.72532 0.0
C363 C 0.15702 0.80274 0.7866 0.0
H364 H 0.16574 0.811 0.63542 0.0
C365 C 0.18466 0.82722 0.80432 0.0
H366 H 0.13056 0.77719 0.71061 0.0
C367 C 0.20398 0.84739 0.76135 0.0
C368 C 0.19681 0.84244 0.70006 0.0
H369 H 0.1886 0.83366 0.85125 0.0
H370 H 0.22249 0.86878 0.77606 0.0
C371 C 0.17223 0.8149 0.68234 0.0
C372 C 0.84652 0.79536 0.22509 0.0
C373 C 0.8418 0.80241 0.28646 0.0
H374 H 0.83258 0.81097 0.1354 0.0
C375 C 0.81445 0.82708 0.30454 0.0
H376 H 0.86776 0.77679 0.2101 0.0
C377 C 0.79515 0.84748 0.26184 0.0
C378 C 0.80203 0.84257 0.20047 0.0
H379 H 0.81073 0.83348 0.35153 0.0
H380 H 0.77687 0.86897 0.27684 0.0
C381 C 0.82631 0.81486 0.1824 0.0
C382 C 0.7959 0.15264 0.76114 0.0
C383 C 0.80301 0.15755 0.69984 0.0
H384 H 0.81134 0.16643 0.85098 0.0
C385 C 0.8276 0.18506 0.68201 0.0
H386 H 0.77738 0.13127 0.77593 0.0
C387 C 0.84785 0.20436 0.7249 0.0
C388 C 0.84288 0.19731 0.7862 0.0
H389 H 0.83403 0.18893 0.63505 0.0
H390 H 0.8693 0.22278 0.71011 0.0
C391 C 0.81525 0.17284 0.80403 0.0
C392 C 0.68497 0.67231 0.80593 0.0
C393 C 0.6573 0.69671 0.78815 0.0
H394 H 0.72283 0.6308 0.77776 0.0
C395 C 0.65228 0.70377 0.72686 0.0
H396 H 0.68892 0.66592 0.85288 0.0
C397 C 0.67252 0.68451 0.68394 0.0
C398 C 0.69713 0.65704 0.70173 0.0
H399 H 0.6308 0.72214 0.71213 0.0
H400 H 0.66603 0.68836 0.637 0.0
C401 C 0.7043 0.65214 0.76301 0.0
C402 C 0.65772 0.29315 0.22928 0.0
C403 C 0.66085 0.30158 0.29047 0.0
H404 H 0.67238 0.30794 0.13953 0.0
C405 C 0.68663 0.3279 0.30859 0.0
H406 H 0.63765 0.27331 0.21422 0.0
C407 C 0.70564 0.34852 0.2658 0.0
C408 C 0.70001 0.34232 0.20436 0.0
H409 H 0.68907 0.33539 0.35538 0.0
H410 H 0.72251 0.37121 0.2806 0.0
C411 C 0.67763 0.31296 0.18657 0.0
C412 C 0.31317 0.32637 0.80478 0.0
C413 C 0.34142 0.30229 0.78849 0.0
H414 H 0.27539 0.36735 0.77441 0.0
C415 C 0.34757 0.29499 0.72755 0.0
H416 H 0.30843 0.33294 0.85146 0.0
C417 C 0.32787 0.31383 0.6835 0.0
C418 C 0.3027 0.3411 0.6999 0.0
H419 H 0.36961 0.27694 0.71403 0.0
H420 H 0.33527 0.30996 0.63693 0.0
C421 C 0.29435 0.34611 0.76076 0.0
C422 C 0.29446 0.65391 0.26221 0.0
C423 C 0.30188 0.65821 0.20086 0.0
H424 H 0.30992 0.66795 0.35194 0.0
C425 C 0.32714 0.68506 0.18279 0.0
H426 H 0.27545 0.63304 0.27723 0.0
C427 C 0.34769 0.70419 0.22553 0.0
C428 C 0.34241 0.69765 0.28694 0.0
H429 H 0.33384 0.68843 0.13584 0.0
H430 H 0.36958 0.72203 0.21058 0.0
C431 C 0.31414 0.67395 0.30492 0.0
C432 C 0.12911 0.94791 0.00284 0.0
C433 C 0.16301 0.94451 0.03215 0.0
H434 H 0.08433 0.92019 0.96053 0.0
C435 C 0.17688 0.90943 0.04419 0.0
H436 H 0.11778 0.97465 0.99296 0.0
C437 C 0.15732 0.8783 0.02684 0.0
C438 C 0.12394 0.8817 -0.00403 0.0
H439 H 0.20279 0.90603 0.06716 0.0
H440 H 0.16894 0.85158 0.03594 0.0
C441 C 0.10996 0.91679 0.9843 0.0
C442 C 0.91665 0.88976 0.00471 0.0
C443 C 0.88155 0.87592 0.99254 0.0
H444 H 0.9745 0.88187 -0.00365 0.0
C445 C 0.87815 0.84265 0.96129 0.0
H446 H 0.92005 0.91529 0.0288 0.0
C447 C 0.90926 0.82312 0.94394 0.0
C448 C 0.94434 0.83689 0.95634 0.0
H449 H 0.85142 0.83113 0.95182 0.0
H450 H 0.90585 0.79733 0.92059 0.0
C451 C 0.94775 0.87063 0.98616 0.0
C452 C 0.84239 0.12183 0.02626 0.0
C453 C 0.87584 0.11841 -0.00445 0.0
H454 H 0.79689 0.09414 0.06653 0.0
C455 C 0.88985 0.08331 0.9841 0.0
H456 H 0.83074 0.14856 0.03518 0.0
C457 C 0.8707 0.05221 0.00272 0.0
C458 C 0.83676 0.05562 0.0319 0.0
H459 H 0.91553 0.07989 0.96045 0.0
H460 H 0.88207 0.02546 0.99302 0.0
C461 C 0.82284 0.09072 0.04368 0.0
C462 C 0.09076 0.17704 0.94348 0.0
C463 C 0.05569 0.16317 0.95571 0.0
H464 H 0.14861 0.16919 0.9516 0.0
C465 C 0.05233 0.12938 0.9854 0.0
H466 H 0.09414 0.20287 0.92024 0.0
C467 C 0.08346 0.11032 0.00403 0.0
C468 C 0.11854 0.12428 0.99207 0.0
H469 H 0.0256 0.11806 -0.00455 0.0
H470 H 0.08008 0.08475 0.02802 0.0
C471 C 0.1219 0.15758 0.96092 0.0
C472 C 0.86978 0.94813 0.49972 0.0
C473 C 0.8361 0.94478 0.52973 0.0
H474 H 0.91439 0.92035 0.4571 0.0
C475 C 0.82237 0.90972 0.54243 0.0
H476 H 0.88099 0.97486 0.4893 0.0
C477 C 0.8419 0.87857 0.52522 0.0
C478 C 0.87512 0.88191 0.49383 0.0
H479 H 0.79663 0.90637 0.56594 0.0
H480 H 0.83042 0.85186 0.53495 0.0
C481 C 0.8889 0.91698 0.48131 0.0
C482 C 0.87826 0.15756 0.45942 0.0
C483 C 0.88157 0.12416 0.49031 0.0
H484 H 0.90612 0.20293 0.41907 0.0
C485 C 0.91662 0.11007 0.50194 0.0
H486 H 0.85158 0.16926 0.45035 0.0
C487 C 0.94778 0.12913 0.48336 0.0
C488 C 0.94449 0.16304 0.45405 0.0
H489 H 0.91995 0.08443 0.52572 0.0
H490 H 0.97449 0.11772 0.49323 0.0
C491 C 0.90945 0.17701 0.44204 0.0
C492 C 0.1574 0.1215 0.5255 0.0
C493 C 0.12412 0.11815 0.49432 0.0
H494 H 0.20266 0.0937 0.56621 0.0
C495 C 0.11014 0.08309 0.48233 0.0
H496 H 0.16902 0.1482 0.53484 0.0
C497 C 0.12917 0.05195 0.50095 0.0
C498 C 0.16295 0.05529 0.53067 0.0
H499 H 0.08458 0.07973 0.4583 0.0
H500 H 0.11784 0.02522 0.49088 0.0
C501 C 0.17684 0.09035 0.54294 0.0
C502 C 0.12115 0.84243 0.45982 0.0
C503 C 0.11783 0.87581 0.49072 0.0
H504 H 0.09332 0.79706 0.4194 0.0
C505 C 0.08278 0.8899 0.50232 0.0
H506 H 0.14784 0.83073 0.45076 0.0
C507 C 0.05162 0.87085 0.48369 0.0
C508 C 0.05493 0.83695 0.45436 0.0
H509 H 0.07943 0.91554 0.52611 0.0
H510 H 0.0249 0.88225 0.49353 0.0
C511 C 0.08998 0.82298 0.44238 0.0
C512 C 0.62968 0.44817 0.50007 0.0
C513 C 0.66286 0.44458 0.53142 0.0
H514 H 0.58547 0.42066 0.45577 0.0
C515 C 0.67604 0.40944 0.54493 0.0
H516 H 0.61893 0.47498 0.48901 0.0
C517 C 0.65645 0.37843 0.52718 0.0
C518 C 0.62377 0.382 0.49441 0.0
H519 H 0.7014 0.40592 0.56945 0.0
H520 H 0.66749 0.35163 0.53753 0.0
C521 C 0.61054 0.41715 0.48107 0.0
C522 C 0.37871 0.34268 0.45409 0.0
C523 C 0.38212 0.37539 0.48689 0.0
H524 H 0.4064 0.29828 0.41068 0.0
C525 C 0.41724 0.38942 0.49836 0.0
H526 H 0.352 0.33103 0.44495 0.0
C527 C 0.44833 0.37092 0.47802 0.0
C528 C 0.44495 0.33761 0.44693 0.0
H529 H 0.4207 0.41457 0.52348 0.0
H530 H 0.47507 0.38222 0.4881 0.0
C531 C 0.40983 0.32377 0.43486 0.0
C532 C 0.32359 0.5894 0.5442 0.0
C533 C 0.33746 0.55442 0.53143 0.0
H534 H 0.33129 0.6473 0.53652 0.0
C535 C 0.3711 0.55125 0.50126 0.0
H536 H 0.29787 0.59262 0.56782 0.0
C537 C 0.39001 0.5825 0.48269 0.0
C538 C 0.37604 0.61749 0.49516 0.0
H539 H 0.38242 0.52459 0.49079 0.0
H540 H 0.41546 0.57928 0.45834 0.0
C541 C 0.3429 0.62065 0.52679 0.0
C542 C 0.59058 0.67681 0.44394 0.0
C543 C 0.55551 0.66281 0.4558 0.0
H544 H 0.64843 0.66907 0.45242 0.0
C545 C 0.55215 0.62889 0.48505 0.0
H546 H 0.59394 0.70275 0.42102 0.0
C547 C 0.58328 0.60984 0.5037 0.0
C548 C 0.61835 0.62394 0.4922 0.0
H549 H 0.52542 0.61746 0.49481 0.0
H550 H 0.5799 0.58417 0.52742 0.0
C551 C 0.62172 0.65735 0.46138 0.0
C552 C 0.39045 0.41504 -0.00338 0.0
C553 C 0.37488 0.38019 0.0044 0.0
H554 H 0.38399 0.47287 0.007 0.0
C555 C 0.34023 0.3772 0.03138 0.0
H556 H 0.41712 0.41814 0.97596 0.0
C557 C 0.32089 0.40861 0.04806 0.0
C558 C 0.33618 0.4435 0.03912 0.0
H559 H 0.32742 0.35069 0.03743 0.0
H560 H 0.29392 0.40557 0.06765 0.0
C561 C 0.37145 0.44635 0.01433 0.0
C562 C 0.41699 0.60974 0.00771 0.0
C563 C 0.38192 0.62339 -0.00506 0.0
H564 H 0.47487 0.61774 -0.00042 0.0
C565 C 0.37856 0.65642 0.96304 0.0
H566 H 0.42035 0.58439 0.03232 0.0
C567 C 0.40968 0.67591 0.94555 0.0
C568 C 0.44474 0.66232 0.95846 0.0
H569 H 0.35185 0.6678 0.95309 0.0
H570 H 0.40629 0.70151 0.92167 0.0
C571 C 0.44813 0.62882 0.98899 0.0
C572 C 0.65777 0.62122 0.02855 0.0
C573 C 0.62433 0.61778 -0.00214 0.0
H574 H 0.70325 0.59355 0.06881 0.0
C575 C 0.61025 0.58267 0.98652 0.0
H576 H 0.66946 0.64796 0.0374 0.0
C577 C 0.62936 0.55158 0.0052 0.0
C578 C 0.66333 0.55501 0.0343 0.0
H579 H 0.58456 0.57924 0.96291 0.0
H580 H 0.61797 0.52482 -0.00445 0.0
C581 C 0.67729 0.59012 0.04602 0.0
C582 C 0.59027 0.32266 0.94699 0.0
C583 C 0.55528 0.33664 0.9594 0.0
H584 H 0.64817 0.33026 0.95495 0.0
C585 C 0.55214 0.37033 0.98943 0.0
H586 H 0.5935 0.2969 0.92352 0.0
C587 C 0.5834 0.38921 0.0081 0.0
C588 C 0.61839 0.37517 -0.00412 0.0
H589 H 0.52548 0.38174 -0.00034 0.0
H590 H 0.58018 0.41473 0.03228 0.0
C591 C 0.62154 0.34194 0.96448 0.0
C592 C 0.27999 0.00023 0.77806 0.0
C593 C 0.25248 0.0134 0.74007 0.0
H594 H 0.3022 0.00095 0.86693 0.0
C595 C 0.22941 0.04175 0.75986 0.0
H596 H 0.29789 0.97827 0.76371 0.0
C597 C 0.23247 0.0554 0.81807 0.0
C598 C 0.25794 0.04007 0.85768 0.0
H599 H 0.20803 0.05231 0.73098 0.0
H600 H 0.21321 0.07594 0.83336 0.0
C601 C 0.28235 0.01313 0.83687 0.0
C602 C 0.04191 0.76913 0.22732 0.0
C603 C 0.01321 0.74631 0.24665 0.0
H604 H 0.0764 0.78534 0.15419 0.0
C605 C 0.99981 0.71911 0.20827 0.0
H606 H 0.05263 0.79029 0.25651 0.0
C607 C 0.0128 0.71688 0.1495 0.0
C608 C 0.04005 0.74113 0.12909 0.0
H609 H 0.97757 0.70142 0.22225 0.0
H610 H 0.00043 0.69732 0.11913 0.0
C611 C 0.05563 0.76621 0.16913 0.0
C612 C 0.76748 0.94467 0.81806 0.0
C613 C 0.7419 0.95983 0.85766 0.0
H614 H 0.7919 0.94788 0.73096 0.0
C615 C 0.71733 0.98661 0.83682 0.0
H616 H 0.78687 0.92426 0.83337 0.0
C617 C 0.7196 0.99951 0.778 0.0
C618 C 0.7472 0.98651 0.74 0.0
H619 H 0.6974 0.99867 0.86688 0.0
H620 H 0.70156 0.02135 0.76364 0.0
C621 C 0.77045 0.95831 0.75983 0.0
C622 C 0.94416 0.23369 0.16864 0.0
C623 C 0.95981 0.25876 0.12866 0.0
H624 H 0.94702 0.2096 0.25603 0.0
C625 C 0.98704 0.28298 0.14914 0.0
H626 H 0.92338 0.21458 0.15363 0.0
C627 C -4e-05 0.28075 0.20795 0.0
C628 C 0.98648 0.25356 0.24628 0.0
H629 H 0.99947 0.30254 0.1188 0.0
H630 H 0.02219 0.29843 0.222 0.0
C631 C 0.9578 0.23075 0.22687 0.0
C632 C 0.76903 0.04257 0.25956 0.0
C633 C 0.74611 0.01402 0.24002 0.0
H634 H 0.78516 0.07699 0.33282 0.0
C635 C 0.71868 0.00078 0.27814 0.0
H636 H 0.79035 0.05317 0.23058 0.0
C637 C 0.71631 0.01381 0.33688 0.0
C638 C 0.74062 0.04092 0.35751 0.0
H639 H 0.7009 0.97866 0.26398 0.0
H640 H 0.69656 0.00156 0.36707 0.0
C641 C 0.76596 0.05633 0.31771 0.0
C642 C 0.01334 0.2823 0.64925 0.0
C643 C 0.04036 0.25793 0.62858 0.0
H644 H 0.97848 0.29794 0.72235 0.0
C645 C 0.05584 0.23266 0.66838 0.0
H646 H 0.00106 0.30201 0.61905 0.0
C647 C 0.04227 0.22974 0.72667 0.0
C648 C 0.01384 0.25276 0.74632 0.0
H649 H 0.07644 0.21344 0.6532 0.0
H650 H 0.05293 0.20849 0.7557 0.0
C651 C 0.00052 0.28009 0.70812 0.0
C652 C 0.2335 0.94385 0.31758 0.0
C653 C 0.25853 0.95945 0.35768 0.0
H654 H 0.20955 0.94677 0.2301 0.0
C655 C 0.28281 0.98667 0.33731 0.0
H656 H 0.21435 0.92308 0.3325 0.0
C657 C 0.28068 0.99961 0.2785 0.0
C658 C 0.25354 0.98618 0.24004 0.0
H659 H 0.30234 0.99906 0.36773 0.0
H660 H 0.2984 0.02183 0.26454 0.0
C661 C 0.23067 0.95752 0.25935 0.0
C662 C 0.9576 0.77051 0.72706 0.0
C663 C 0.98596 0.74741 0.7467 0.0
H664 H 0.92339 0.78685 0.65366 0.0
C665 C 0.99916 0.72001 0.70852 0.0
H666 H 0.94702 0.79181 0.75608 0.0
C667 C 0.98626 0.71778 0.6497 0.0
C668 C 0.9593 0.74222 0.62904 0.0
H669 H 0.02115 0.70209 0.72274 0.0
H670 H 0.99845 0.69801 0.61951 0.0
C671 C 0.94395 0.76758 0.66882 0.0
C672 C 0.78327 0.51272 0.33935 0.0
C673 C 0.75923 0.54019 0.35951 0.0
H674 H 0.79872 0.47743 0.26669 0.0
C675 C 0.73464 0.55617 0.31912 0.0
H676 H 0.80248 0.50005 0.36998 0.0
C677 C 0.73192 0.54262 0.2608 0.0
C678 C 0.75449 0.5137 0.24172 0.0
H679 H 0.71569 0.57715 0.33385 0.0
H680 H 0.71107 0.55363 0.23133 0.0
C681 C 0.78126 0.49988 0.28047 0.0
C682 C 0.55167 0.23289 0.67052 0.0
C683 C 0.5316 0.2496 0.62425 0.0
H684 H 0.55411 0.22126 0.76516 0.0
C685 C 0.49807 0.26658 0.63766 0.0
H686 H 0.57742 0.21936 0.66109 0.0
C687 C 0.48495 0.26736 0.69572 0.0
C688 C 0.50483 0.25112 0.74215 0.0
H689 H 0.48196 0.27989 0.60319 0.0
H690 H 0.45934 0.28139 0.70458 0.0
C691 C 0.53813 0.23342 0.72947 0.0
C692 C 0.21844 0.50058 0.28133 0.0
C693 C 0.24466 0.4865 0.24187 0.0
H694 H 0.19788 0.50025 0.37122 0.0
C695 C 0.26678 0.457 0.25995 0.0
H696 H 0.20133 0.52346 0.26826 0.0
C697 C 0.26426 0.44315 0.31808 0.0
C698 C 0.24032 0.45939 0.35922 0.0
H699 H 0.2872 0.4458 0.22987 0.0
H700 H 0.28293 0.42174 0.33207 0.0
C701 C 0.21661 0.4874 0.34001 0.0
C702 C 0.44453 0.73125 0.66982 0.0
C703 C 0.45956 0.75704 0.63042 0.0
H704 H 0.44785 0.7066 0.75674 0.0
C705 C 0.48623 0.7817 0.65144 0.0
H706 H 0.42421 0.71179 0.65436 0.0
C707 C 0.49914 0.77933 0.71025 0.0
C708 C 0.48627 0.75156 0.74805 0.0
H709 H 0.49819 0.80179 0.62154 0.0
H710 H 0.52088 0.79748 0.72475 0.0
C711 C 0.4582 0.72819 0.72803 0.0
C712 C 0.21875 0.51206 0.83818 0.0
C713 C 0.24345 0.53868 0.85927 0.0
H714 H 0.20306 0.47733 0.76492 0.0
C715 C 0.26964 0.55328 0.82016 0.0
H716 H 0.19837 0.50041 0.86787 0.0
C717 C 0.27295 0.53935 0.76214 0.0
C718 C 0.24942 0.51145 0.74199 0.0
H719 H 0.28915 0.57353 0.8357 0.0
H720 H 0.29474 0.54947 0.73363 0.0
C721 C 0.22136 0.49892 0.77953 0.0
C722 C 0.51315 0.78265 0.15075 0.0
C723 C 0.54047 0.7585 0.13044 0.0
H724 H 0.47792 0.79809 0.22349 0.0
C725 C 0.55624 0.73363 0.17061 0.0
H726 H 0.50065 0.80206 0.12028 0.0
C727 C 0.54261 0.73078 0.22885 0.0
C728 C 0.51382 0.75348 0.24809 0.0
H729 H 0.57709 0.71459 0.15574 0.0
H730 H 0.55346 0.70976 0.25815 0.0
C731 C 0.50024 0.7805 0.20957 0.0
C732 C 0.78235 0.48567 0.83843 0.0
C733 C 0.75756 0.45911 0.85946 0.0
H734 H 0.79828 0.52027 0.76513 0.0
C735 C 0.73171 0.4442 0.82007 0.0
H736 H 0.8025 0.49753 0.86832 0.0
C737 C 0.72871 0.45789 0.76186 0.0
C738 C 0.7522 0.48587 0.74183 0.0
H739 H 0.71215 0.42398 0.83554 0.0
H740 H 0.70707 0.44765 0.73316 0.0
C741 C 0.78004 0.49859 0.77962 0.0
C742 C 0.4599 0.26901 0.22497 0.0
C743 C 0.48832 0.24569 0.24356 0.0
H744 H 0.42452 0.28511 0.15307 0.0
C745 C 0.49983 0.21719 0.20614 0.0
H746 H 0.45048 0.291 0.25371 0.0
C747 C 0.48545 0.21428 0.14843 0.0
C748 C 0.45874 0.23917 0.12847 0.0
H749 H 0.5217 0.19897 0.21983 0.0
H750 H 0.49654 0.19385 0.11827 0.0
C751 C 0.44482 0.26547 0.16792 0.0
C752 C 0.37733 0.12623 0.92876 0.0
C753 C 0.39981 0.1488 0.96371 0.0
H754 H 0.33437 0.08626 0.92853 0.0
C755 C 0.39964 0.14465 0.02638 0.0
H756 H 0.37638 0.12962 0.88059 0.0
C757 C 0.37458 0.12103 0.05398 0.0
C758 C 0.35046 0.1002 0.01908 0.0
H759 H 0.41615 0.16247 0.05427 0.0
H760 H 0.37226 0.12101 0.10234 0.0
C761 C 0.35333 0.10154 0.95629 0.0
C762 C 0.14729 0.60272 0.95644 0.0
C763 C 0.14975 0.60066 0.01921 0.0
H764 H 0.12452 0.63147 0.88122 0.0
C765 C 0.12537 0.621 0.05436 0.0
H766 H 0.16649 0.58784 0.92855 0.0
C767 C 0.10039 0.64481 0.02708 0.0
C768 C 0.10055 0.64962 0.96455 0.0
H769 H 0.12741 0.62044 0.10275 0.0
H770 H 0.08364 0.66225 0.05523 0.0
C771 C 0.12334 0.62758 0.92928 0.0
C772 C 0.62597 0.87826 0.05558 0.0
C773 C 0.64962 0.89929 0.02013 0.0
H774 H 0.58493 0.8363 0.05688 0.0
C775 C 0.64647 0.89766 0.95739 0.0
H776 H 0.62856 0.87847 0.1039 0.0
C777 C 0.62263 0.87256 0.93046 0.0
C778 C 0.60063 0.84986 0.96597 0.0
H779 H 0.66511 0.91306 0.92923 0.0
H780 H 0.62333 0.86904 0.8823 0.0
C781 C 0.60108 0.85422 0.02858 0.0
C782 C 0.85355 0.39796 0.95785 0.0
C783 C 0.85068 0.39933 0.02065 0.0
H784 H 0.87643 0.36976 0.88215 0.0
C785 C 0.87454 0.37823 0.05556 0.0
H786 H 0.83473 0.41341 0.9301 0.0
C787 C 0.89938 0.3544 0.02798 0.0
C788 C 0.89957 0.35032 0.96532 0.0
H789 H 0.87217 0.37823 0.10392 0.0
H790 H 0.91572 0.33644 0.05588 0.0
C791 C 0.87733 0.37307 0.93034 0.0
C792 C 0.64122 0.09934 0.46359 0.0
C793 C 0.64871 0.10163 0.52531 0.0
H794 H 0.61477 0.12462 0.38813 0.0
C795 C 0.62903 0.12655 0.56049 0.0
H796 H 0.65684 0.08094 0.43535 0.0
C797 C 0.60409 0.15054 0.53371 0.0
C798 C 0.59951 0.15083 0.47119 0.0
H799 H 0.63498 0.12934 0.6078 0.0
H800 H 0.59119 0.17134 0.56117 0.0
C801 C 0.61727 0.12429 0.43647 0.0
C802 C 0.1024 0.35255 0.52997 0.0
C803 C 0.10101 0.34979 0.46716 0.0
H804 H 0.13073 0.3752 0.60575 0.0
C805 C 0.12223 0.3736 0.43233 0.0
H806 H 0.08683 0.33378 0.55766 0.0
C807 C 0.14619 0.39829 0.46 0.0
C808 C 0.15028 0.39837 0.52266 0.0
H809 H 0.1222 0.37131 0.38396 0.0
H810 H 0.16422 0.41461 0.43216 0.0
C811 C 0.12742 0.37618 0.55757 0.0
C812 C 0.39766 0.85306 0.53055 0.0
C813 C 0.39918 0.84977 0.46783 0.0
H814 H 0.36921 0.8764 0.60563 0.0
C815 C 0.37815 0.87336 0.43233 0.0
H816 H 0.41306 0.83446 0.55876 0.0
C817 C 0.35421 0.89832 0.45927 0.0
C818 C 0.34996 0.89893 0.52189 0.0
H819 H 0.37829 0.87065 0.38401 0.0
H820 H 0.33627 0.91443 0.43096 0.0
C821 C 0.37266 0.87698 0.55745 0.0
C822 C 0.89751 0.64692 0.53039 0.0
C823 C 0.89873 0.64991 0.4676 0.0
H824 H 0.86957 0.62376 0.60614 0.0
C825 C 0.87765 0.62601 0.4327 0.0
H826 H 0.91296 0.66574 0.55815 0.0
C827 C 0.85399 0.601 0.46029 0.0
C828 C 0.85005 0.60065 0.52298 0.0
H829 H 0.87756 0.62846 0.38435 0.0
H830 H 0.83603 0.58462 0.43242 0.0
C831 C 0.87278 0.62296 0.55793 0.0
loop_
_geom_bond_atom_site_label_1
_geom_bond_atom_site_label_2
_geom_bond_distance
_geom_bond_site_symmetry_2
_ccdc_geom_bond_type
Sc0 O3 2.025 . S
Sc0 O10 2.105 . S
Sc0 O13 2.105 . S
Sc0 O16 2.105 1_545 S
Sc0 O19 2.105 . S
Sc1 O3 2.025 . S
Sc1 O11 2.105 . S
Sc1 O15 2.105 1_554 S
Sc1 O17 2.105 1_554 S
Sc1 O21 2.105 . S
Sc2 O3 2.025 . S
Sc2 O12 2.105 . S
Sc2 O14 2.105 1_545 S
Sc2 O18 2.105 1_554 S
Sc2 O20 2.105 . S
O3 Sc0 2.025 . S
O3 Sc1 2.025 . S
O3 Sc2 2.025 . S
C4 O10 1.268 . S
C4 O20 1.268 . S
C5 O11 1.268 . S
C5 O19 1.268 . S
C6 O12 1.268 . S
C6 O21 1.268 . S
C7 O13 1.268 . S
C7 O17 1.268 1_554 S
C8 O14 1.268 . S
C8 O16 1.268 . S
C9 O15 1.268 . S
C9 O18 1.268 . S
O10 Sc0 2.105 . S
O10 C4 1.268 . S
O11 Sc1 2.105 . S
O11 C5 1.268 . S
O12 Sc2 2.105 . S
O12 C6 1.268 . S
O13 Sc0 2.105 . S
O13 C7 1.268 . S
O14 Sc2 2.105 1_565 S
O14 C8 1.268 . S
O15 Sc1 2.105 1_556 S
O15 C9 1.268 . S
O16 Sc0 2.105 1_565 S
O16 C8 1.268 . S
O17 Sc1 2.105 1_556 S
O17 C7 1.268 1_556 S
O18 Sc2 2.105 1_556 S
O18 C9 1.268 . S
O19 Sc0 2.105 . S
O19 C5 1.268 . S
O20 Sc2 2.105 . S
O20 C4 1.268 . S
O21 Sc1 2.105 . S
O21 C6 1.268 . S
Sc22 O25 2.025 . S
Sc22 O32 2.105 1_455 S
Sc22 O35 2.105 . S
Sc22 O38 2.105 . S
Sc22 O41 2.105 . S
Sc23 O25 2.025 . S
Sc23 O33 2.105 1_556 S
Sc23 O37 2.105 . S
Sc23 O39 2.105 . S
Sc23 O43 2.105 1_556 S
Sc24 O25 2.025 . S
Sc24 O34 2.105 1_556 S
Sc24 O36 2.105 . S
Sc24 O40 2.105 . S
Sc24 O42 2.105 1_455 S
O25 Sc22 2.025 . S
O25 Sc23 2.025 . S
O25 Sc24 2.025 . S
C26 O32 1.268 . S
C26 O42 1.268 . S
C27 O33 1.268 1_556 S
C27 O41 1.268 . S
C28 O34 1.268 . S
C28 O43 1.268 . S
C29 O35 1.268 . S
C29 O39 1.268 . S
C30 O36 1.268 . S
C30 O38 1.268 . S
C31 O37 1.268 . S
C31 O40 1.268 . S
O32 Sc22 2.105 1_655 S
O32 C26 1.268 . S
O33 Sc23 2.105 1_554 S
O33 C27 1.268 1_554 S
O34 Sc24 2.105 1_554 S
O34 C28 1.268 . S
O35 Sc22 2.105 . S
O35 C29 1.268 . S
O36 Sc24 2.105 . S
O36 C30 1.268 . S
O37 Sc23 2.105 . S
O37 C31 1.268 . S
O38 Sc22 2.105 . S
O38 C30 1.268 . S
O39 Sc23 2.105 . S
O39 C29 1.268 . S
O40 Sc24 2.105 . S
O40 C31 1.268 . S
O41 Sc22 2.105 . S
O41 C27 1.268 . S
O42 Sc24 2.105 1_655 S
O42 C26 1.268 . S
O43 Sc23 2.105 1_554 S
O43 C28 1.268 . S
Sc44 O47 2.025 . S
Sc44 O54 2.105 1_565 S
Sc44 O57 2.105 . S
Sc44 O60 2.105 . S
Sc44 O63 2.105 1_554 S
Sc45 O47 2.025 . S
Sc45 O55 2.105 1_554 S
Sc45 O59 2.105 . S
Sc45 O61 2.105 . S
Sc45 O65 2.105 1_554 S
Sc46 O47 2.025 . S
Sc46 O56 2.105 . S
Sc46 O58 2.105 . S
Sc46 O62 2.105 . S
Sc46 O64 2.105 1_565 S
O47 Sc44 2.025 . S
O47 Sc45 2.025 . S
O47 Sc46 2.025 . S
C48 O54 1.268 . S
C48 O64 1.268 . S
C49 O55 1.268 . S
C49 O63 1.268 . S
C50 O56 1.268 . S
C50 O65 1.268 1_554 S
C51 O57 1.268 . S
C51 O61 1.268 . S
C52 O58 1.268 . S
C52 O60 1.268 . S
C53 O59 1.268 . S
C53 O62 1.268 . S
O54 Sc44 2.105 1_545 S
O54 C48 1.268 . S
O55 Sc45 2.105 1_556 S
O55 C49 1.268 . S
O56 Sc46 2.105 . S
O56 C50 1.268 . S
O57 Sc44 2.105 . S
O57 C51 1.268 . S
O58 Sc46 2.105 . S
O58 C52 1.268 . S
O59 Sc45 2.105 . S
O59 C53 1.268 . S
O60 Sc44 2.105 . S
O60 C52 1.268 . S
O61 Sc45 2.105 . S
O61 C51 1.268 . S
O62 Sc46 2.105 . S
O62 C53 1.268 . S
O63 Sc44 2.105 1_556 S
O63 C49 1.268 . S
O64 Sc46 2.105 1_545 S
O64 C48 1.268 . S
O65 Sc45 2.105 1_556 S
O65 C50 1.268 1_556 S
Sc66 O69 2.025 . S
Sc66 O76 2.105 . S
Sc66 O79 2.105 1_556 S
Sc66 O82 2.105 1_655 S
Sc66 O85 2.105 . S
Sc67 O69 2.025 . S
Sc67 O77 2.105 . S
Sc67 O81 2.105 1_556 S
Sc67 O83 2.105 1_556 S
Sc67 O87 2.105 . S
Sc68 O69 2.025 . S
Sc68 O78 2.105 . S
Sc68 O80 2.105 1_655 S
Sc68 O84 2.105 . S
Sc68 O86 2.105 . S
O69 Sc66 2.025 . S
O69 Sc67 2.025 . S
O69 Sc68 2.025 . S
C70 O76 1.268 . S
C70 O86 1.268 . S
C71 O77 1.268 . S
C71 O85 1.268 . S
C72 O78 1.268 . S
C72 O87 1.268 . S
C73 O79 1.268 . S
C73 O83 1.268 . S
C74 O80 1.268 . S
C74 O82 1.268 . S
C75 O81 1.268 1_556 S
C75 O84 1.268 . S
O76 Sc66 2.105 . S
O76 C70 1.268 . S
O77 Sc67 2.105 . S
O77 C71 1.268 . S
O78 Sc68 2.105 . S
O78 C72 1.268 . S
O79 Sc66 2.105 1_554 S
O79 C73 1.268 . S
O80 Sc68 2.105 1_455 S
O80 C74 1.268 . S
O81 Sc67 2.105 1_554 S
O81 C75 1.268 1_554 S
O82 Sc66 2.105 1_455 S
O82 C74 1.268 . S
O83 Sc67 2.105 1_554 S
O83 C73 1.268 . S
O84 Sc68 2.105 . S
O84 C75 1.268 . S
O85 Sc66 2.105 . S
O85 C71 1.268 . S
O86 Sc68 2.105 . S
O86 C70 1.268 . S
O87 Sc67 2.105 . S
O87 C72 1.268 . S
Sc88 O91 2.025 . S
Sc88 O98 2.105 . S
Sc88 O101 2.105 . S
Sc88 O104 2.105 1_545 S
Sc88 O107 2.105 . S
Sc89 O91 2.025 . S
Sc89 O99 2.105 . S
Sc89 O103 2.105 . S
Sc89 O105 2.105 . S
Sc89 O109 2.105 . S
Sc90 O91 2.025 . S
Sc90 O100 2.105 . S
Sc90 O102 2.105 1_545 S
Sc90 O106 2.105 . S
Sc90 O108 2.105 . S
O91 Sc88 2.025 . S
O91 Sc89 2.025 . S
O91 Sc90 2.025 . S
C92 O98 1.268 . S
C92 O108 1.268 . S
C93 O99 1.268 . S
C93 O107 1.268 . S
C94 O100 1.268 . S
C94 O109 1.268 . S
C95 O101 1.268 . S
C95 O105 1.268 . S
C96 O102 1.268 . S
C96 O104 1.268 . S
C97 O103 1.268 . S
C97 O106 1.268 . S
O98 Sc88 2.105 . S
O98 C92 1.268 . S
O99 Sc89 2.105 . S
O99 C93 1.268 . S
O100 Sc90 2.105 . S
O100 C94 1.268 . S
O101 Sc88 2.105 . S
O101 C95 1.268 . S
O102 Sc90 2.105 1_565 S
O102 C96 1.268 . S
O103 Sc89 2.105 . S
O103 C97 1.268 . S
O104 Sc88 2.105 1_565 S
O104 C96 1.268 . S
O105 Sc89 2.105 . S
O105 C95 1.268 . S
O106 Sc90 2.105 . S
O106 C97 1.268 . S
O107 Sc88 2.105 . S
O107 C93 1.268 . S
O108 Sc90 2.105 . S
O108 C92 1.268 . S
O109 Sc89 2.105 . S
O109 C94 1.268 . S
Sc110 O113 2.025 . S
Sc110 O120 2.105 . S
Sc110 O123 2.105 . S
Sc110 O126 2.105 1_455 S
Sc110 O129 2.105 . S
Sc111 O113 2.025 . S
Sc111 O121 2.105 . S
Sc111 O125 2.105 . S
Sc111 O127 2.105 . S
Sc111 O131 2.105 . S
Sc112 O113 2.025 . S
Sc112 O122 2.105 . S
Sc112 O124 2.105 1_455 S
Sc112 O128 2.105 . S
Sc112 O130 2.105 . S
O113 Sc110 2.025 . S
O113 Sc111 2.025 . S
O113 Sc112 2.025 . S
C114 O120 1.268 . S
C114 O130 1.268 . S
C115 O121 1.268 . S
C115 O129 1.268 . S
C116 O122 1.268 . S
C116 O131 1.268 . S
C117 O123 1.268 . S
C117 O127 1.268 . S
C118 O124 1.268 . S
C118 O126 1.268 . S
C119 O125 1.268 . S
C119 O128 1.268 . S
O120 Sc110 2.105 . S
O120 C114 1.268 . S
O121 Sc111 2.105 . S
O121 C115 1.268 . S
O122 Sc112 2.105 . S
O122 C116 1.268 . S
O123 Sc110 2.105 . S
O123 C117 1.268 . S
O124 Sc112 2.105 1_655 S
O124 C118 1.268 . S
O125 Sc111 2.105 . S
O125 C119 1.268 . S
O126 Sc110 2.105 1_655 S
O126 C118 1.268 . S
O127 Sc111 2.105 . S
O127 C117 1.268 . S
O128 Sc112 2.105 . S
O128 C119 1.268 . S
O129 Sc110 2.105 . S
O129 C115 1.268 . S
O130 Sc112 2.105 . S
O130 C114 1.268 . S
O131 Sc111 2.105 . S
O131 C116 1.268 . S
Sc132 O135 2.025 . S
Sc132 O142 2.105 1_565 S
Sc132 O145 2.105 . S
Sc132 O148 2.105 . S
Sc132 O151 2.105 . S
Sc133 O135 2.025 . S
Sc133 O143 2.105 . S
Sc133 O147 2.105 . S
Sc133 O149 2.105 . S
Sc133 O153 2.105 . S
Sc134 O135 2.025 . S
Sc134 O144 2.105 . S
Sc134 O146 2.105 . S
Sc134 O150 2.105 . S
Sc134 O152 2.105 1_565 S
O135 Sc132 2.025 . S
O135 Sc133 2.025 . S
O135 Sc134 2.025 . S
C136 O142 1.268 . S
C136 O152 1.268 . S
C137 O143 1.268 . S
C137 O151 1.268 . S
C138 O144 1.268 . S
C138 O153 1.268 . S
C139 O145 1.268 . S
C139 O149 1.268 . S
C140 O146 1.268 . S
C140 O148 1.268 . S
C141 O147 1.268 . S
C141 O150 1.268 . S
O142 Sc132 2.105 1_545 S
O142 C136 1.268 . S
O143 Sc133 2.105 . S
O143 C137 1.268 . S
O144 Sc134 2.105 . S
O144 C138 1.268 . S
O145 Sc132 2.105 . S
O145 C139 1.268 . S
O146 Sc134 2.105 . S
O146 C140 1.268 . S
O147 Sc133 2.105 . S
O147 C141 1.268 . S
O148 Sc132 2.105 . S
O148 C140 1.268 . S
O149 Sc133 2.105 . S
O149 C139 1.268 . S
O150 Sc134 2.105 . S
O150 C141 1.268 . S
O151 Sc132 2.105 . S
O151 C137 1.268 . S
O152 Sc134 2.105 1_545 S
O152 C136 1.268 . S
O153 Sc133 2.105 . S
O153 C138 1.268 . S
Sc154 O157 2.025 . S
Sc154 O164 2.105 1_655 S
Sc154 O167 2.105 . S
Sc154 O170 2.105 . S
Sc154 O173 2.105 . S
Sc155 O157 2.025 . S
Sc155 O165 2.105 . S
Sc155 O169 2.105 . S
Sc155 O171 2.105 . S
Sc155 O175 2.105 . S
Sc156 O157 2.025 . S
Sc156 O166 2.105 . S
Sc156 O168 2.105 . S
Sc156 O172 2.105 . S
Sc156 O174 2.105 1_655 S
O157 Sc154 2.025 . S
O157 Sc155 2.025 . S
O157 Sc156 2.025 . S
C158 O164 1.268 . S
C158 O174 1.268 . S
C159 O165 1.268 . S
C159 O173 1.268 . S
C160 O166 1.268 . S
C160 O175 1.268 . S
C161 O167 1.268 . S
C161 O171 1.268 . S
C162 O168 1.268 . S
C162 O170 1.268 . S
C163 O169 1.268 . S
C163 O172 1.268 . S
O164 Sc154 2.105 1_455 S
O164 C158 1.268 . S
O165 Sc155 2.105 . S
O165 C159 1.268 . S
O166 Sc156 2.105 . S
O166 C160 1.268 . S
O167 Sc154 2.105 . S
O167 C161 1.268 . S
O168 Sc156 2.105 . S
O168 C162 1.268 . S
O169 Sc155 2.105 . S
O169 C163 1.268 . S
O170 Sc154 2.105 . S
O170 C162 1.268 . S
O171 Sc155 2.105 . S
O171 C161 1.268 . S
O172 Sc156 2.105 . S
O172 C163 1.268 . S
O173 Sc154 2.105 . S
O173 C159 1.268 . S
O174 Sc156 2.105 1_455 S
O174 C158 1.268 . S
O175 Sc155 2.105 . S
O175 C160 1.268 . S
Sc176 O179 2.025 . S
Sc176 O186 2.105 . S
Sc176 O189 2.105 . S
Sc176 O192 2.105 . S
Sc176 O195 2.105 . S
Sc177 O179 2.025 . S
Sc177 O187 2.105 . S
Sc177 O191 2.105 . S
Sc177 O193 2.105 . S
Sc177 O197 2.105 . S
Sc178 O179 2.025 . S
Sc178 O188 2.105 . S
Sc178 O190 2.105 . S
Sc178 O194 2.105 . S
Sc178 O196 2.105 . S
O179 Sc176 2.025 . S
O179 Sc177 2.025 . S
O179 Sc178 2.025 . S
C180 O186 1.268 . S
C180 O196 1.268 . S
C181 O187 1.268 . S
C181 O195 1.268 . S
C182 O188 1.268 . S
C182 O197 1.268 . S
C183 O189 1.268 . S
C183 O193 1.268 . S
C184 O190 1.268 . S
C184 O192 1.268 . S
C185 O191 1.268 . S
C185 O194 1.268 . S
O186 Sc176 2.105 . S
O186 C180 1.268 . S
O187 Sc177 2.105 . S
O187 C181 1.268 . S
O188 Sc178 2.105 . S
O188 C182 1.268 . S
O189 Sc176 2.105 . S
O189 C183 1.268 . S
O190 Sc178 2.105 . S
O190 C184 1.268 . S
O191 Sc177 2.105 . S
O191 C185 1.268 . S
O192 Sc176 2.105 . S
O192 C184 1.268 . S
O193 Sc177 2.105 . S
O193 C183 1.268 . S
O194 Sc178 2.105 . S
O194 C185 1.268 . S
O195 Sc176 2.105 . S
O195 C181 1.268 . S
O196 Sc178 2.105 . S
O196 C180 1.268 . S
O197 Sc177 2.105 . S
O197 C182 1.268 . S
Sc198 O201 2.025 . S
Sc198 O208 2.105 . S
Sc198 O211 2.105 . S
Sc198 O214 2.105 . S
Sc198 O217 2.105 . S
Sc199 O201 2.025 . S
Sc199 O209 2.105 . S
Sc199 O213 2.105 . S
Sc199 O215 2.105 . S
Sc199 O219 2.105 . S
Sc200 O201 2.025 . S
Sc200 O210 2.105 . S
Sc200 O212 2.105 . S
Sc200 O216 2.105 . S
Sc200 O218 2.105 . S
O201 Sc198 2.025 . S
O201 Sc199 2.025 . S
O201 Sc200 2.025 . S
C202 O208 1.268 . S
C202 O218 1.268 . S
C203 O209 1.268 . S
C203 O217 1.268 . S
C204 O210 1.268 . S
C204 O219 1.268 . S
C205 O211 1.268 . S
C205 O215 1.268 . S
C206 O212 1.268 . S
C206 O214 1.268 . S
C207 O213 1.268 . S
C207 O216 1.268 . S
O208 Sc198 2.105 . S
O208 C202 1.268 . S
O209 Sc199 2.105 . S
O209 C203 1.268 . S
O210 Sc200 2.105 . S
O210 C204 1.268 . S
O211 Sc198 2.105 . S
O211 C205 1.268 . S
O212 Sc200 2.105 . S
O212 C206 1.268 . S
O213 Sc199 2.105 . S
O213 C207 1.268 . S
O214 Sc198 2.105 . S
O214 C206 1.268 . S
O215 Sc199 2.105 . S
O215 C205 1.268 . S
O216 Sc200 2.105 . S
O216 C207 1.268 . S
O217 Sc198 2.105 . S
O217 C203 1.268 . S
O218 Sc200 2.105 . S
O218 C202 1.268 . S
O219 Sc199 2.105 . S
O219 C204 1.268 . S
Sc220 O223 2.025 . S
Sc220 O230 2.105 . S
Sc220 O233 2.105 . S
Sc220 O236 2.105 . S
Sc220 O239 2.105 . S
Sc221 O223 2.025 . S
Sc221 O231 2.105 . S
Sc221 O235 2.105 . S
Sc221 O237 2.105 . S
Sc221 O241 2.105 . S
Sc222 O223 2.025 . S
Sc222 O232 2.105 . S
Sc222 O234 2.105 . S
Sc222 O238 2.105 . S
Sc222 O240 2.105 . S
O223 Sc220 2.025 . S
O223 Sc221 2.025 . S
O223 Sc222 2.025 . S
C224 O230 1.268 . S
C224 O240 1.268 . S
C225 O231 1.268 . S
C225 O239 1.268 . S
C226 O232 1.268 . S
C226 O241 1.268 . S
C227 O233 1.268 . S
C227 O237 1.268 . S
C228 O234 1.268 . S
C228 O236 1.268 . S
C229 O235 1.268 . S
C229 O238 1.268 . S
O230 Sc220 2.105 . S
O230 C224 1.268 . S
O231 Sc221 2.105 . S
O231 C225 1.268 . S
O232 Sc222 2.105 . S
O232 C226 1.268 . S
O233 Sc220 2.105 . S
O233 C227 1.268 . S
O234 Sc222 2.105 . S
O234 C228 1.268 . S
O235 Sc221 2.105 . S
O235 C229 1.268 . S
O236 Sc220 2.105 . S
O236 C228 1.268 . S
O237 Sc221 2.105 . S
O237 C227 1.268 . S
O238 Sc222 2.105 . S
O238 C229 1.268 . S
O239 Sc220 2.105 . S
O239 C225 1.268 . S
O240 Sc222 2.105 . S
O240 C224 1.268 . S
O241 Sc221 2.105 . S
O241 C226 1.268 . S
Sc242 O245 2.025 . S
Sc242 O252 2.105 . S
Sc242 O255 2.105 . S
Sc242 O258 2.105 . S
Sc242 O261 2.105 . S
Sc243 O245 2.025 . S
Sc243 O253 2.105 . S
Sc243 O257 2.105 . S
Sc243 O259 2.105 . S
Sc243 O263 2.105 . S
Sc244 O245 2.025 . S
Sc244 O254 2.105 . S
Sc244 O256 2.105 . S
Sc244 O260 2.105 . S
Sc244 O262 2.105 . S
O245 Sc242 2.025 . S
O245 Sc243 2.025 . S
O245 Sc244 2.025 . S
C246 O252 1.268 . S
C246 O262 1.268 . S
C247 O253 1.268 . S
C247 O261 1.268 . S
C248 O254 1.268 . S
C248 O263 1.268 . S
C249 O255 1.268 . S
C249 O259 1.268 . S
C250 O256 1.268 . S
C250 O258 1.268 . S
C251 O257 1.268 . S
C251 O260 1.268 . S
O252 Sc242 2.105 . S
O252 C246 1.268 . S
O253 Sc243 2.105 . S
O253 C247 1.268 . S
O254 Sc244 2.105 . S
O254 C248 1.268 . S
O255 Sc242 2.105 . S
O255 C249 1.268 . S
O256 Sc244 2.105 . S
O256 C250 1.268 . S
O257 Sc243 2.105 . S
O257 C251 1.268 . S
O258 Sc242 2.105 . S
O258 C250 1.268 . S
O259 Sc243 2.105 . S
O259 C249 1.268 . S
O260 Sc244 2.105 . S
O260 C251 1.268 . S
O261 Sc242 2.105 . S
O261 C247 1.268 . S
O262 Sc244 2.105 . S
O262 C246 1.268 . S
O263 Sc243 2.105 . S
O263 C248 1.268 . S
Sc264 O267 2.025 . S
Sc264 O274 2.105 . S
Sc264 O277 2.105 1_554 S
Sc264 O280 2.105 . S
Sc264 O283 2.105 . S
Sc265 O267 2.025 . S
Sc265 O275 2.105 . S
Sc265 O279 2.105 1_554 S
Sc265 O281 2.105 1_554 S
Sc265 O285 2.105 . S
Sc266 O267 2.025 . S
Sc266 O276 2.105 . S
Sc266 O278 2.105 . S
Sc266 O282 2.105 . S
Sc266 O284 2.105 . S
O267 Sc264 2.025 . S
O267 Sc265 2.025 . S
O267 Sc266 2.025 . S
C268 O274 1.268 . S
C268 O284 1.268 . S
C269 O275 1.268 . S
C269 O283 1.268 . S
C270 O276 1.268 . S
C270 O285 1.268 . S
C271 O277 1.268 . S
C271 O281 1.268 . S
C272 O278 1.268 . S
C272 O280 1.268 . S
C273 O279 1.268 1_554 S
C273 O282 1.268 . S
O274 Sc264 2.105 . S
O274 C268 1.268 . S
O275 Sc265 2.105 . S
O275 C269 1.268 . S
O276 Sc266 2.105 . S
O276 C270 1.268 . S
O277 Sc264 2.105 1_556 S
O277 C271 1.268 . S
O278 Sc266 2.105 . S
O278 C272 1.268 . S
O279 Sc265 2.105 1_556 S
O279 C273 1.268 1_556 S
O280 Sc264 2.105 . S
O280 C272 1.268 . S
O281 Sc265 2.105 1_556 S
O281 C271 1.268 . S
O282 Sc266 2.105 . S
O282 C273 1.268 . S
O283 Sc264 2.105 . S
O283 C269 1.268 . S
O284 Sc266 2.105 . S
O284 C268 1.268 . S
O285 Sc265 2.105 . S
O285 C270 1.268 . S
Sc286 O289 2.025 . S
Sc286 O296 2.105 . S
Sc286 O299 2.105 . S
Sc286 O302 2.105 . S
Sc286 O305 2.105 . S
Sc287 O289 2.025 . S
Sc287 O297 2.105 . S
Sc287 O301 2.105 1_556 S
Sc287 O303 2.105 1_556 S
Sc287 O307 2.105 . S
Sc288 O289 2.025 . S
Sc288 O298 2.105 . S
Sc288 O300 2.105 . S
Sc288 O304 2.105 1_556 S
Sc288 O306 2.105 . S
O289 Sc286 2.025 . S
O289 Sc287 2.025 . S
O289 Sc288 2.025 . S
C290 O296 1.268 . S
C290 O306 1.268 . S
C291 O297 1.268 . S
C291 O305 1.268 . S
C292 O298 1.268 . S
C292 O307 1.268 . S
C293 O299 1.268 . S
C293 O303 1.268 1_556 S
C294 O300 1.268 . S
C294 O302 1.268 . S
C295 O301 1.268 . S
C295 O304 1.268 . S
O296 Sc286 2.105 . S
O296 C290 1.268 . S
O297 Sc287 2.105 . S
O297 C291 1.268 . S
O298 Sc288 2.105 . S
O298 C292 1.268 . S
O299 Sc286 2.105 . S
O299 C293 1.268 . S
O300 Sc288 2.105 . S
O300 C294 1.268 . S
O301 Sc287 2.105 1_554 S
O301 C295 1.268 . S
O302 Sc286 2.105 . S
O302 C294 1.268 . S
O303 Sc287 2.105 1_554 S
O303 C293 1.268 1_554 S
O304 Sc288 2.105 1_554 S
O304 C295 1.268 . S
O305 Sc286 2.105 . S
O305 C291 1.268 . S
O306 Sc288 2.105 . S
O306 C290 1.268 . S
O307 Sc287 2.105 . S
O307 C292 1.268 . S
Sc308 O311 2.025 . S
Sc308 O318 2.105 . S
Sc308 O321 2.105 . S
Sc308 O324 2.105 . S
Sc308 O327 2.105 . S
Sc309 O311 2.025 . S
Sc309 O319 2.105 1_554 S
Sc309 O323 2.105 . S
Sc309 O325 2.105 . S
Sc309 O329 2.105 1_554 S
Sc310 O311 2.025 . S
Sc310 O320 2.105 1_554 S
Sc310 O322 2.105 . S
Sc310 O326 2.105 . S
Sc310 O328 2.105 . S
O311 Sc308 2.025 . S
O311 Sc309 2.025 . S
O311 Sc310 2.025 . S
C312 O318 1.268 . S
C312 O328 1.268 . S
C313 O319 1.268 1_554 S
C313 O327 1.268 . S
C314 O320 1.268 . S
C314 O329 1.268 . S
C315 O321 1.268 . S
C315 O325 1.268 . S
C316 O322 1.268 . S
C316 O324 1.268 . S
C317 O323 1.268 . S
C317 O326 1.268 . S
O318 Sc308 2.105 . S
O318 C312 1.268 . S
O319 Sc309 2.105 1_556 S
O319 C313 1.268 1_556 S
O320 Sc310 2.105 1_556 S
O320 C314 1.268 . S
O321 Sc308 2.105 . S
O321 C315 1.268 . S
O322 Sc310 2.105 . S
O322 C316 1.268 . S
O323 Sc309 2.105 . S
O323 C317 1.268 . S
O324 Sc308 2.105 . S
O324 C316 1.268 . S
O325 Sc309 2.105 . S
O325 C315 1.268 . S
O326 Sc310 2.105 . S
O326 C317 1.268 . S
O327 Sc308 2.105 . S
O327 C313 1.268 . S
O328 Sc310 2.105 . S
O328 C312 1.268 . S
O329 Sc309 2.105 1_556 S
O329 C314 1.268 . S
Sc330 O333 2.025 . S
Sc330 O340 2.105 . S
Sc330 O343 2.105 . S
Sc330 O346 2.105 . S
Sc330 O349 2.105 1_556 S
Sc331 O333 2.025 . S
Sc331 O341 2.105 1_556 S
Sc331 O345 2.105 . S
Sc331 O347 2.105 . S
Sc331 O351 2.105 1_556 S
Sc332 O333 2.025 . S
Sc332 O342 2.105 . S
Sc332 O344 2.105 . S
Sc332 O348 2.105 . S
Sc332 O350 2.105 . S
O333 Sc330 2.025 . S
O333 Sc331 2.025 . S
O333 Sc332 2.025 . S
C334 O340 1.268 . S
C334 O350 1.268 . S
C335 O341 1.268 . S
C335 O349 1.268 . S
C336 O342 1.268 . S
C336 O351 1.268 1_556 S
C337 O343 1.268 . S
C337 O347 1.268 . S
C338 O344 1.268 . S
C338 O346 1.268 . S
C339 O345 1.268 . S
C339 O348 1.268 . S
O340 Sc330 2.105 . S
O340 C334 1.268 . S
O341 Sc331 2.105 1_554 S
O341 C335 1.268 . S
O342 Sc332 2.105 . S
O342 C336 1.268 . S
O343 Sc330 2.105 . S
O343 C337 1.268 . S
O344 Sc332 2.105 . S
O344 C338 1.268 . S
O345 Sc331 2.105 . S
O345 C339 1.268 . S
O346 Sc330 2.105 . S
O346 C338 1.268 . S
O347 Sc331 2.105 . S
O347 C337 1.268 . S
O348 Sc332 2.105 . S
O348 C339 1.268 . S
O349 Sc330 2.105 1_554 S
O349 C335 1.268 . S
O350 Sc332 2.105 . S
O350 C334 1.268 . S
O351 Sc331 2.105 1_554 S
O351 C336 1.268 1_554 S
C352 C353 1.387 . S
C352 H356 0.950 . S
C352 C361 1.390 . S
C353 C352 1.387 . S
C353 C355 1.387 . S
H354 C361 0.950 . S
C355 C353 1.387 . S
C355 C357 1.390 . S
C355 H359 0.950 . S
H356 C352 0.950 . S
C357 C355 1.390 . S
C357 C358 1.387 . S
C357 H360 0.950 . S
C358 C357 1.387 . S
C358 C361 1.387 . S
H359 C355 0.950 . S
H360 C357 0.950 . S
C361 C352 1.390 . S
C361 H354 0.950 . S
C361 C358 1.387 . S
C362 C363 1.387 . S
C362 H366 0.950 . S
C362 C371 1.390 . S
C363 C362 1.387 . S
C363 C365 1.387 . S
H364 C371 0.950 . S
C365 C363 1.387 . S
C365 C367 1.390 . S
C365 H369 0.950 . S
H366 C362 0.950 . S
C367 C365 1.390 . S
C367 C368 1.387 . S
C367 H370 0.950 . S
C368 C367 1.387 . S
C368 C371 1.387 . S
H369 C365 0.950 . S
H370 C367 0.950 . S
C371 C362 1.390 . S
C371 H364 0.950 . S
C371 C368 1.387 . S
C372 C373 1.387 . S
C372 H376 0.950 . S
C372 C381 1.390 . S
C373 C372 1.387 . S
C373 C375 1.387 . S
H374 C381 0.950 . S
C375 C373 1.387 . S
C375 C377 1.390 . S
C375 H379 0.950 . S
H376 C372 0.950 . S
C377 C375 1.390 . S
C377 C378 1.387 . S
C377 H380 0.950 . S
C378 C377 1.387 . S
C378 C381 1.387 . S
H379 C375 0.950 . S
H380 C377 0.950 . S
C381 C372 1.390 . S
C381 H374 0.950 . S
C381 C378 1.387 . S
C382 C383 1.387 . S
C382 H386 0.950 . S
C382 C391 1.390 . S
C383 C382 1.387 . S
C383 C385 1.387 . S
H384 C391 0.950 . S
C385 C383 1.387 . S
C385 C387 1.390 . S
C385 H389 0.950 . S
H386 C382 0.950 . S
C387 C385 1.390 . S
C387 C388 1.387 . S
C387 H390 0.950 . S
C388 C387 1.387 . S
C388 C391 1.387 . S
H389 C385 0.950 . S
H390 C387 0.950 . S
C391 C382 1.390 . S
C391 H384 0.950 . S
C391 C388 1.387 . S
C392 C393 1.387 . S
C392 H396 0.950 . S
C392 C401 1.390 . S
C393 C392 1.387 . S
C393 C395 1.387 . S
H394 C401 0.950 . S
C395 C393 1.387 . S
C395 C397 1.390 . S
C395 H399 0.950 . S
H396 C392 0.950 . S
C397 C395 1.390 . S
C397 C398 1.387 . S
C397 H400 0.950 . S
C398 C397 1.387 . S
C398 C401 1.387 . S
H399 C395 0.950 . S
H400 C397 0.950 . S
C401 C392 1.390 . S
C401 H394 0.950 . S
C401 C398 1.387 . S
C402 C403 1.387 . S
C402 H406 0.950 . S
C402 C411 1.390 . S
C403 C402 1.387 . S
C403 C405 1.387 . S
H404 C411 0.950 . S
C405 C403 1.387 . S
C405 C407 1.390 . S
C405 H409 0.950 . S
H406 C402 0.950 . S
C407 C405 1.390 . S
C407 C408 1.387 . S
C407 H410 0.950 . S
C408 C407 1.387 . S
C408 C411 1.387 . S
H409 C405 0.950 . S
H410 C407 0.950 . S
C411 C402 1.390 . S
C411 H404 0.950 . S
C411 C408 1.387 . S
C412 C413 1.387 . S
C412 H416 0.950 . S
C412 C421 1.390 . S
C413 C412 1.387 . S
C413 C415 1.387 . S
H414 C421 0.950 . S
C415 C413 1.387 . S
C415 C417 1.390 . S
C415 H419 0.950 . S
H416 C412 0.950 . S
C417 C415 1.390 . S
C417 C418 1.387 . S
C417 H420 0.950 . S
C418 C417 1.387 . S
C418 C421 1.387 . S
H419 C415 0.950 . S
H420 C417 0.950 . S
C421 C412 1.390 . S
C421 H414 0.950 . S
C421 C418 1.387 . S
C422 C423 1.387 . S
C422 H426 0.950 . S
C422 C431 1.390 . S
C423 C422 1.387 . S
C423 C425 1.387 . S
H424 C431 0.950 . S
C425 C423 1.387 . S
C425 C427 1.390 . S
C425 H429 0.950 . S
H426 C422 0.950 . S
C427 C425 1.390 . S
C427 C428 1.387 . S
C427 H430 0.950 . S
C428 C427 1.387 . S
C428 C431 1.387 . S
H429 C425 0.950 . S
H430 C427 0.950 . S
C431 C422 1.390 . S
C431 H424 0.950 . S
C431 C428 1.387 . S
C432 C433 1.387 . S
C432 H436 0.950 . S
C432 C441 1.390 . S
C433 C432 1.387 . S
C433 C435 1.387 1_554 S
H434 C441 0.950 . S
C435 C433 1.387 1_556 S
C435 C437 1.390 . S
C435 H439 0.950 . S
H436 C432 0.950 . S
C437 C435 1.390 . S
C437 C438 1.387 1_556 S
C437 H440 0.950 . S
C438 C437 1.387 1_554 S
C438 C441 1.387 . S
H439 C435 0.950 . S
H440 C437 0.950 . S
C441 C432 1.390 . S
C441 H434 0.950 . S
C441 C438 1.387 . S
C442 C443 1.387 1_554 S
C442 H446 0.950 . S
C442 C451 1.390 . S
C443 C442 1.387 1_556 S
C443 C445 1.387 . S
H444 C451 0.950 . S
C445 C443 1.387 . S
C445 C447 1.390 . S
C445 H449 0.950 . S
H446 C442 0.950 . S
C447 C445 1.390 . S
C447 C448 1.387 . S
C447 H450 0.950 . S
C448 C447 1.387 . S
C448 C451 1.387 1_556 S
H449 C445 0.950 . S
H450 C447 0.950 . S
C451 C442 1.390 . S
C451 H444 0.950 . S
C451 C448 1.387 1_554 S
C452 C453 1.387 . S
C452 H456 0.950 . S
C452 C461 1.390 . S
C453 C452 1.387 . S
C453 C455 1.387 1_554 S
H454 C461 0.950 . S
C455 C453 1.387 1_556 S
C455 C457 1.390 . S
C455 H459 0.950 . S
H456 C452 0.950 . S
C457 C455 1.390 . S
C457 C458 1.387 1_556 S
C457 H460 0.950 . S
C458 C457 1.387 1_554 S
C458 C461 1.387 . S
H459 C455 0.950 . S
H460 C457 0.950 . S
C461 C452 1.390 . S
C461 H454 0.950 . S
C461 C458 1.387 . S
C462 C463 1.387 . S
C462 H466 0.950 . S
C462 C471 1.390 . S
C463 C462 1.387 . S
C463 C465 1.387 1_556 S
H464 C471 0.950 . S
C465 C463 1.387 1_554 S
C465 C467 1.390 . S
C465 H469 0.950 . S
H466 C462 0.950 . S
C467 C465 1.390 . S
C467 C468 1.387 1_554 S
C467 H470 0.950 . S
C468 C467 1.387 1_556 S
C468 C471 1.387 . S
H469 C465 0.950 . S
H470 C467 0.950 . S
C471 C462 1.390 . S
C471 H464 0.950 . S
C471 C468 1.387 . S
C472 C473 1.387 . S
C472 H476 0.950 . S
C472 C481 1.390 . S
C473 C472 1.387 . S
C473 C475 1.387 . S
H474 C481 0.950 . S
C475 C473 1.387 . S
C475 C477 1.390 . S
C475 H479 0.950 . S
H476 C472 0.950 . S
C477 C475 1.390 . S
C477 C478 1.387 . S
C477 H480 0.950 . S
C478 C477 1.387 . S
C478 C481 1.387 . S
H479 C475 0.950 . S
H480 C477 0.950 . S
C481 C472 1.390 . S
C481 H474 0.950 . S
C481 C478 1.387 . S
C482 C483 1.387 . S
C482 H486 0.950 . S
C482 C491 1.390 . S
C483 C482 1.387 . S
C483 C485 1.387 . S
H484 C491 0.950 . S
C485 C483 1.387 . S
C485 C487 1.390 . S
C485 H489 0.950 . S
H486 C482 0.950 . S
C487 C485 1.390 . S
C487 C488 1.387 . S
C487 H490 0.950 . S
C488 C487 1.387 . S
C488 C491 1.387 . S
H489 C485 0.950 . S
H490 C487 0.950 . S
C491 C482 1.390 . S
C491 H484 0.950 . S
C491 C488 1.387 . S
C492 C493 1.387 . S
C492 H496 0.950 . S
C492 C501 1.390 . S
C493 C492 1.387 . S
C493 C495 1.387 . S
H494 C501 0.950 . S
C495 C493 1.387 . S
C495 C497 1.390 . S
C495 H499 0.950 . S
H496 C492 0.950 . S
C497 C495 1.390 . S
C497 C498 1.387 . S
C497 H500 0.950 . S
C498 C497 1.387 . S
C498 C501 1.387 . S
H499 C495 0.950 . S
H500 C497 0.950 . S
C501 C492 1.390 . S
C501 H494 0.950 . S
C501 C498 1.387 . S
C502 C503 1.387 . S
C502 H506 0.950 . S
C502 C511 1.390 . S
C503 C502 1.387 . S
C503 C505 1.387 . S
H504 C511 0.950 . S
C505 C503 1.387 . S
C505 C507 1.390 . S
C505 H509 0.950 . S
H506 C502 0.950 . S
C507 C505 1.390 . S
C507 C508 1.387 . S
C507 H510 0.950 . S
C508 C507 1.387 . S
C508 C511 1.387 . S
H509 C505 0.950 . S
H510 C507 0.950 . S
C511 C502 1.390 . S
C511 H504 0.950 . S
C511 C508 1.387 . S
C512 C513 1.387 . S
C512 H516 0.950 . S
C512 C521 1.390 . S
C513 C512 1.387 . S
C513 C515 1.387 . S
H514 C521 0.950 . S
C515 C513 1.387 . S
C515 C517 1.390 . S
C515 H519 0.950 . S
H516 C512 0.950 . S
C517 C515 1.390 . S
C517 C518 1.387 . S
C517 H520 0.950 . S
C518 C517 1.387 . S
C518 C521 1.387 . S
H519 C515 0.950 . S
H520 C517 0.950 . S
C521 C512 1.390 . S
C521 H514 0.950 . S
C521 C518 1.387 . S
C522 C523 1.387 . S
C522 H526 0.950 . S
C522 C531 1.390 . S
C523 C522 1.387 . S
C523 C525 1.387 . S
H524 C531 0.950 . S
C525 C523 1.387 . S
C525 C527 1.390 . S
C525 H529 0.950 . S
H526 C522 0.950 . S
C527 C525 1.390 . S
C527 C528 1.387 . S
C527 H530 0.950 . S
C528 C527 1.387 . S
C528 C531 1.387 . S
H529 C525 0.950 . S
H530 C527 0.950 . S
C531 C522 1.390 . S
C531 H524 0.950 . S
C531 C528 1.387 . S
C532 C533 1.387 . S
C532 H536 0.950 . S
C532 C541 1.390 . S
C533 C532 1.387 . S
C533 C535 1.387 . S
H534 C541 0.950 . S
C535 C533 1.387 . S
C535 C537 1.390 . S
C535 H539 0.950 . S
H536 C532 0.950 . S
C537 C535 1.390 . S
C537 C538 1.387 . S
C537 H540 0.950 . S
C538 C537 1.387 . S
C538 C541 1.387 . S
H539 C535 0.950 . S
H540 C537 0.950 . S
C541 C532 1.390 . S
C541 H534 0.950 . S
C541 C538 1.387 . S
C542 C543 1.387 . S
C542 H546 0.950 . S
C542 C551 1.390 . S
C543 C542 1.387 . S
C543 C545 1.387 . S
H544 C551 0.950 . S
C545 C543 1.387 . S
C545 C547 1.390 . S
C545 H549 0.950 . S
H546 C542 0.950 . S
C547 C545 1.390 . S
C547 C548 1.387 . S
C547 H550 0.950 . S
C548 C547 1.387 . S
C548 C551 1.387 . S
H549 C545 0.950 . S
H550 C547 0.950 . S
C551 C542 1.390 . S
C551 H544 0.950 . S
C551 C548 1.387 . S
C552 C553 1.387 . S
C552 H556 0.950 . S
C552 C561 1.390 . S
C553 C552 1.387 . S
C553 C555 1.387 1_554 S
H554 C561 0.950 . S
C555 C553 1.387 1_556 S
C555 C557 1.390 . S
C555 H559 0.950 . S
H556 C552 0.950 . S
C557 C555 1.390 . S
C557 C558 1.387 1_556 S
C557 H560 0.950 . S
C558 C557 1.387 1_554 S
C558 C561 1.387 . S
H559 C555 0.950 . S
H560 C557 0.950 . S
C561 C552 1.390 . S
C561 H554 0.950 . S
C561 C558 1.387 . S
C562 C563 1.387 1_554 S
C562 H566 0.950 . S
C562 C571 1.390 . S
C563 C562 1.387 1_556 S
C563 C565 1.387 . S
H564 C571 0.950 . S
C565 C563 1.387 . S
C565 C567 1.390 . S
C565 H569 0.950 . S
H566 C562 0.950 . S
C567 C565 1.390 . S
C567 C568 1.387 . S
C567 H570 0.950 . S
C568 C567 1.387 . S
C568 C571 1.387 1_556 S
H569 C565 0.950 . S
H570 C567 0.950 . S
C571 C562 1.390 . S
C571 H564 0.950 . S
C571 C568 1.387 1_554 S
C572 C573 1.387 . S
C572 H576 0.950 . S
C572 C581 1.390 . S
C573 C572 1.387 . S
C573 C575 1.387 1_554 S
H574 C581 0.950 . S
C575 C573 1.387 1_556 S
C575 C577 1.390 . S
C575 H579 0.950 . S
H576 C572 0.950 . S
C577 C575 1.390 . S
C577 C578 1.387 1_556 S
C577 H580 0.950 . S
C578 C577 1.387 1_554 S
C578 C581 1.387 . S
H579 C575 0.950 . S
H580 C577 0.950 . S
C581 C572 1.390 . S
C581 H574 0.950 . S
C581 C578 1.387 . S
C582 C583 1.387 . S
C582 H586 0.950 . S
C582 C591 1.390 . S
C583 C582 1.387 . S
C583 C585 1.387 1_556 S
H584 C591 0.950 . S
C585 C583 1.387 1_554 S
C585 C587 1.390 . S
C585 H589 0.950 . S
H586 C582 0.950 . S
C587 C585 1.390 . S
C587 C588 1.387 1_554 S
C587 H590 0.950 . S
C588 C587 1.387 1_556 S
C588 C591 1.387 . S
H589 C585 0.950 . S
H590 C587 0.950 . S
C591 C582 1.390 . S
C591 H584 0.950 . S
C591 C588 1.387 . S
C592 C593 1.387 . S
C592 H596 0.950 . S
C592 C601 1.390 1_565 S
C593 C592 1.387 . S
C593 C595 1.387 1_565 S
H594 C601 0.950 1_565 S
C595 C593 1.387 1_545 S
C595 C597 1.390 . S
C595 H599 0.950 . S
H596 C592 0.950 . S
C597 C595 1.390 . S
C597 C598 1.387 . S
C597 H600 0.950 . S
C598 C597 1.387 . S
C598 C601 1.387 . S
H599 C595 0.950 . S
H600 C597 0.950 . S
C601 C592 1.390 1_545 S
C601 H594 0.950 1_545 S
C601 C598 1.387 . S
C602 C603 1.387 1_455 S
C602 H606 0.950 . S
C602 C611 1.390 . S
C603 C602 1.387 1_655 S
C603 C605 1.387 1_655 S
H604 C611 0.950 . S
C605 C603 1.387 1_455 S
C605 C607 1.390 . S
C605 H609 0.947 1_455 S
H606 C602 0.950 . S
C607 C605 1.390 . S
C607 C608 1.387 . S
C607 H610 0.950 . S
C608 C607 1.387 . S
C608 C611 1.387 . S
H609 C605 0.947 1_655 S
H610 C607 0.950 . S
C611 C602 1.390 . S
C611 H604 0.950 . S
C611 C608 1.387 . S
C612 C613 1.387 . S
C612 H616 0.950 . S
C612 C621 1.390 . S
C613 C612 1.387 . S
C613 C615 1.387 . S
H614 C621 0.950 . S
C615 C613 1.387 . S
C615 C617 1.390 1_565 S
C615 H619 0.950 1_565 S
H616 C612 0.950 . S
C617 C615 1.390 1_545 S
C617 C618 1.387 . S
C617 H620 0.950 . S
C618 C617 1.387 . S
C618 C621 1.387 1_545 S
H619 C615 0.950 1_545 S
H620 C617 0.950 . S
C621 C612 1.390 . S
C621 H614 0.950 . S
C621 C618 1.387 1_565 S
C622 C623 1.387 . S
C622 H626 0.950 . S
C622 C631 1.390 . S
C623 C622 1.387 . S
C623 C625 1.387 . S
H624 C631 0.959 . S
C625 C623 1.387 . S
C625 C627 1.390 . S
C625 H629 0.950 . S
H626 C622 0.950 . S
C627 C625 1.390 . S
C627 C628 1.387 1_655 S
C627 H630 0.950 . S
C628 C627 1.387 1_455 S
C628 C631 1.387 1_455 S
H629 C625 0.950 . S
H630 C627 0.950 . S
C631 C622 1.390 . S
C631 H624 0.959 . S
C631 C628 1.387 1_655 S
C632 C633 1.387 1_545 S
C632 H636 0.943 1_545 S
C632 C641 1.398 . S
C633 C632 1.387 1_565 S
C633 C635 1.387 1_565 S
H634 C641 0.950 . S
C635 C633 1.387 1_545 S
C635 C637 1.390 . S
C635 H639 0.950 . S
H636 C632 0.943 1_565 S
C637 C635 1.390 . S
C637 C638 1.387 . S
C637 H640 0.950 . S
C638 C637 1.387 . S
C638 C641 1.387 . S
H639 C635 0.950 . S
H640 C637 0.950 . S
C641 C632 1.398 . S
C641 H634 0.950 . S
C641 C638 1.387 . S
C642 C643 1.387 . S
C642 H646 0.950 . S
C642 C651 1.389 1_455 S
C643 C642 1.387 . S
C643 C645 1.387 . S
H644 C651 0.951 . S
C645 C643 1.387 . S
C645 C647 1.390 . S
C645 H649 0.950 . S
H646 C642 0.950 . S
C647 C645 1.390 . S
C647 C648 1.387 1_455 S
C647 H650 0.950 . S
C648 C647 1.387 1_655 S
C648 C651 1.388 . S
H649 C645 0.950 . S
H650 C647 0.950 . S
C651 C642 1.389 1_655 S
C651 H644 0.951 . S
C651 C648 1.388 . S
C652 C653 1.387 . S
C652 H656 0.950 . S
C652 C661 1.390 . S
C653 C652 1.387 . S
C653 C655 1.387 . S
H654 C661 0.950 . S
C655 C653 1.387 . S
C655 C657 1.390 1_565 S
C655 H659 0.950 1_565 S
H656 C652 0.950 . S
C657 C655 1.390 1_545 S
C657 C658 1.387 . S
C657 H660 0.950 . S
C658 C657 1.387 . S
C658 C661 1.387 1_545 S
H659 C655 0.950 1_545 S
H660 C657 0.950 . S
C661 C652 1.390 . S
C661 H654 0.950 . S
C661 C658 1.387 1_565 S
C662 C663 1.387 1_655 S
C662 H666 0.945 1_655 S
C662 C671 1.395 . S
C663 C662 1.387 1_455 S
C663 C665 1.387 1_455 S
H664 C671 0.950 . S
C665 C663 1.387 1_655 S
C665 C667 1.390 . S
C665 H669 0.950 . S
H666 C662 0.945 1_455 S
C667 C665 1.390 . S
C667 C668 1.387 . S
C667 H670 0.950 . S
C668 C667 1.387 . S
C668 C671 1.387 . S
H669 C665 0.950 . S
H670 C667 0.950 . S
C671 C662 1.395 . S
C671 H664 0.950 . S
C671 C668 1.387 . S
C672 C673 1.387 . S
C672 H676 0.950 . S
C672 C681 1.390 . S
C673 C672 1.387 . S
C673 C675 1.387 . S
H674 C681 0.950 . S
C675 C673 1.387 . S
C675 C677 1.390 . S
C675 H679 0.950 . S
H676 C672 0.950 . S
C677 C675 1.390 . S
C677 C678 1.387 . S
C677 H680 0.950 . S
C678 C677 1.387 . S
C678 C681 1.387 . S
H679 C675 0.950 . S
H680 C677 0.950 . S
C681 C672 1.390 . S
C681 H674 0.950 . S
C681 C678 1.387 . S
C682 C683 1.387 . S
C682 H686 0.950 . S
C682 C691 1.390 . S
C683 C682 1.387 . S
C683 C685 1.387 . S
H684 C691 0.950 . S
C685 C683 1.387 . S
C685 C687 1.390 . S
C685 H689 0.950 . S
H686 C682 0.950 . S
C687 C685 1.390 . S
C687 C688 1.387 . S
C687 H690 0.950 . S
C688 C687 1.387 . S
C688 C691 1.387 . S
H689 C685 0.950 . S
H690 C687 0.950 . S
C691 C682 1.390 . S
C691 H684 0.950 . S
C691 C688 1.387 . S
C692 C693 1.387 . S
C692 H696 0.950 . S
C692 C701 1.390 . S
C693 C692 1.387 . S
C693 C695 1.387 . S
H694 C701 0.950 . S
C695 C693 1.387 . S
C695 C697 1.390 . S
C695 H699 0.950 . S
H696 C692 0.950 . S
C697 C695 1.390 . S
C697 C698 1.387 . S
C697 H700 0.950 . S
C698 C697 1.387 . S
C698 C701 1.387 . S
H699 C695 0.950 . S
H700 C697 0.950 . S
C701 C692 1.390 . S
C701 H694 0.950 . S
C701 C698 1.387 . S
C702 C703 1.387 . S
C702 H706 0.950 . S
C702 C711 1.390 . S
C703 C702 1.387 . S
C703 C705 1.387 . S
H704 C711 0.950 . S
C705 C703 1.387 . S
C705 C707 1.390 . S
C705 H709 0.950 . S
H706 C702 0.950 . S
C707 C705 1.390 . S
C707 C708 1.387 . S
C707 H710 0.950 . S
C708 C707 1.387 . S
C708 C711 1.387 . S
H709 C705 0.950 . S
H710 C707 0.950 . S
C711 C702 1.390 . S
C711 H704 0.950 . S
C711 C708 1.387 . S
C712 C713 1.387 . S
C712 H716 0.950 . S
C712 C721 1.390 . S
C713 C712 1.387 . S
C713 C715 1.387 . S
H714 C721 0.950 . S
C715 C713 1.387 . S
C715 C717 1.390 . S
C715 H719 0.950 . S
H716 C712 0.950 . S
C717 C715 1.390 . S
C717 C718 1.387 . S
C717 H720 0.950 . S
C718 C717 1.387 . S
C718 C721 1.387 . S
H719 C715 0.950 . S
H720 C717 0.950 . S
C721 C712 1.390 . S
C721 H714 0.950 . S
C721 C718 1.387 . S
C722 C723 1.387 . S
C722 H726 0.950 . S
C722 C731 1.390 . S
C723 C722 1.387 . S
C723 C725 1.387 . S
H724 C731 0.950 . S
C725 C723 1.387 . S
C725 C727 1.390 . S
C725 H729 0.950 . S
H726 C722 0.950 . S
C727 C725 1.390 . S
C727 C728 1.387 . S
C727 H730 0.950 . S
C728 C727 1.387 . S
C728 C731 1.387 . S
H729 C725 0.950 . S
H730 C727 0.950 . S
C731 C722 1.390 . S
C731 H724 0.950 . S
C731 C728 1.387 . S
C732 C733 1.387 . S
C732 H736 0.950 . S
C732 C741 1.390 . S
C733 C732 1.387 . S
C733 C735 1.387 . S
H734 C741 0.950 . S
C735 C733 1.387 . S
C735 C737 1.390 . S
C735 H739 0.950 . S
H736 C732 0.950 . S
C737 C735 1.390 . S
C737 C738 1.387 . S
C737 H740 0.950 . S
C738 C737 1.387 . S
C738 C741 1.387 . S
H739 C735 0.950 . S
H740 C737 0.950 . S
C741 C732 1.390 . S
C741 H734 0.950 . S
C741 C738 1.387 . S
C742 C743 1.387 . S
C742 H746 0.950 . S
C742 C751 1.390 . S
C743 C742 1.387 . S
C743 C745 1.387 . S
H744 C751 0.950 . S
C745 C743 1.387 . S
C745 C747 1.390 . S
C745 H749 0.950 . S
H746 C742 0.950 . S
C747 C745 1.390 . S
C747 C748 1.387 . S
C747 H750 0.950 . S
C748 C747 1.387 . S
C748 C751 1.387 . S
H749 C745 0.950 . S
H750 C747 0.950 . S
C751 C742 1.390 . S
C751 H744 0.950 . S
C751 C748 1.387 . S
C752 C753 1.387 . S
C752 H756 0.950 . S
C752 C761 1.390 1_556 S
C753 C752 1.387 . S
C753 C755 1.387 . S
H754 C761 0.950 . S
C755 C753 1.387 . S
C755 C757 1.390 1_556 S
C755 H759 0.950 . S
H756 C752 0.950 . S
C757 C755 1.390 1_554 S
C757 C758 1.387 . S
C757 H760 0.950 . S
C758 C757 1.387 . S
C758 C761 1.387 . S
H759 C755 0.950 . S
H760 C757 0.950 . S
C761 C752 1.390 1_554 S
C761 H754 0.950 . S
C761 C758 1.387 . S
C762 C763 1.387 1_556 S
C762 H766 0.950 . S
C762 C771 1.390 . S
C763 C762 1.387 1_554 S
C763 C765 1.387 . S
H764 C771 0.950 . S
C765 C763 1.387 . S
C765 C767 1.390 . S
C765 H769 0.950 . S
H766 C762 0.950 . S
C767 C765 1.390 . S
C767 C768 1.387 1_554 S
C767 H770 0.950 . S
C768 C767 1.387 1_556 S
C768 C771 1.387 . S
H769 C765 0.950 . S
H770 C767 0.950 . S
C771 C762 1.390 . S
C771 H764 0.950 . S
C771 C768 1.387 . S
C772 C773 1.387 . S
C772 H776 0.950 . S
C772 C781 1.390 . S
C773 C772 1.387 . S
C773 C775 1.387 1_554 S
H774 C781 0.950 . S
C775 C773 1.387 1_556 S
C775 C777 1.390 . S
C775 H779 0.950 . S
H776 C772 0.950 . S
C777 C775 1.390 . S
C777 C778 1.387 . S
C777 H780 0.950 . S
C778 C777 1.387 . S
C778 C781 1.387 1_556 S
H779 C775 0.950 . S
H780 C777 0.950 . S
C781 C772 1.390 . S
C781 H774 0.950 . S
C781 C778 1.387 1_554 S
C782 C783 1.387 1_556 S
C782 H786 0.950 . S
C782 C791 1.390 . S
C783 C782 1.387 1_554 S
C783 C785 1.387 . S
H784 C791 0.950 . S
C785 C783 1.387 . S
C785 C787 1.390 . S
C785 H789 0.950 . S
H786 C782 0.950 . S
C787 C785 1.390 . S
C787 C788 1.387 1_554 S
C787 H790 0.950 . S
C788 C787 1.387 1_556 S
C788 C791 1.387 . S
H789 C785 0.950 . S
H790 C787 0.950 . S
C791 C782 1.390 . S
C791 H784 0.950 . S
C791 C788 1.387 . S
C792 C793 1.387 . S
C792 H796 0.950 . S
C792 C801 1.390 . S
C793 C792 1.387 . S
C793 C795 1.387 . S
H794 C801 0.950 . S
C795 C793 1.387 . S
C795 C797 1.390 . S
C795 H799 0.950 . S
H796 C792 0.950 . S
C797 C795 1.390 . S
C797 C798 1.387 . S
C797 H800 0.950 . S
C798 C797 1.387 . S
C798 C801 1.387 . S
H799 C795 0.950 . S
H800 C797 0.950 . S
C801 C792 1.390 . S
C801 H794 0.950 . S
C801 C798 1.387 . S
C802 C803 1.387 . S
C802 H806 0.950 . S
C802 C811 1.390 . S
C803 C802 1.387 . S
C803 C805 1.387 . S
H804 C811 0.950 . S
C805 C803 1.387 . S
C805 C807 1.390 . S
C805 H809 0.950 . S
H806 C802 0.950 . S
C807 C805 1.390 . S
C807 C808 1.387 . S
C807 H810 0.950 . S
C808 C807 1.387 . S
C808 C811 1.387 . S
H809 C805 0.950 . S
H810 C807 0.950 . S
C811 C802 1.390 . S
C811 H804 0.950 . S
C811 C808 1.387 . S
C812 C813 1.387 . S
C812 H816 0.950 . S
C812 C821 1.390 . S
C813 C812 1.387 . S
C813 C815 1.387 . S
H814 C821 0.950 . S
C815 C813 1.387 . S
C815 C817 1.390 . S
C815 H819 0.950 . S
H816 C812 0.950 . S
C817 C815 1.390 . S
C817 C818 1.387 . S
C817 H820 0.950 . S
C818 C817 1.387 . S
C818 C821 1.387 . S
H819 C815 0.950 . S
H820 C817 0.950 . S
C821 C812 1.390 . S
C821 H814 0.950 . S
C821 C818 1.387 . S
C822 C823 1.387 . S
C822 H826 0.950 . S
C822 C831 1.390 . S
C823 C822 1.387 . S
C823 C825 1.387 . S
H824 C831 0.950 . S
C825 C823 1.387 . S
C825 C827 1.390 . S
C825 H829 0.950 . S
H826 C822 0.950 . S
C827 C825 1.390 . S
C827 C828 1.387 . S
C827 H830 0.950 . S
C828 C827 1.387 . S
C828 C831 1.387 . S
H829 C825 0.950 . S
H830 C827 0.950 . S
C831 C822 1.390 . S
C831 H824 0.950 . S
C831 C828 1.387 . S
C353 C5 1.379 . S
C358 C115 1.382 . S
C363 C29 1.382 . S
C368 C139 1.379 . S
C373 C163 1.381 . S
C378 C53 1.382 . S
C383 C94 1.382 . S
C388 C72 1.380 . S
C393 C291 1.382 . S
C398 C181 1.379 . S
C403 C205 1.382 . S
C408 C315 1.379 . S
C413 C339 1.382 . S
C418 C229 1.380 . S
C423 C270 1.382 . S
C428 C248 1.381 . S
C433 C8 1.462 . S
C438 C27 1.344 1_554 S
C443 C50 1.346 1_556 S
C448 C26 1.462 . S
C453 C75 1.346 1_554 S
C458 C48 1.462 . S
C463 C74 1.461 . S
C468 C7 1.342 1_556 S
C473 C96 1.462 . S
C478 C160 1.346 . S
C483 C97 1.343 . S
C488 C118 1.461 . S
C493 C117 1.342 . S
C498 C136 1.461 . S
C503 C137 1.346 . S
C508 C158 1.462 . S
C513 C184 1.461 . S
C518 C203 1.342 . S
C523 C226 1.342 . S
C528 C202 1.461 . S
C533 C224 1.463 . S
C538 C251 1.346 . S
C543 C250 1.461 . S
C548 C183 1.342 . S
C553 C336 1.343 1_554 S
C558 C272 1.462 . S
C563 C273 1.342 1_556 S
C568 C294 1.461 . S
C573 C293 1.342 1_554 S
C578 C312 1.461 . S
C583 C334 1.463 . S
C588 C313 1.346 1_556 S
C593 C140 1.489 . S
C598 C9 1.561 . S
C603 C162 1.491 . S
C608 C28 1.562 . S
C613 C49 1.562 . S
C618 C92 1.492 . S
C623 C73 1.562 . S
C628 C114 1.491 . S
C633 C52 1.491 . S
C638 C95 1.562 . S
C643 C119 1.562 . S
C648 C70 1.490 . S
C653 C138 1.560 . S
C658 C4 1.488 . S
C663 C30 1.488 . S
C668 C159 1.560 . S
C673 C185 1.562 . S
C678 C316 1.491 . S
C683 C204 1.560 . S
C688 C338 1.488 . S
C693 C268 1.491 . S
C698 C225 1.562 . S
C703 C249 1.562 . S
C708 C290 1.491 . S
C713 C271 1.560 . S
C718 C228 1.488 . S
C723 C295 1.562 . S
C728 C246 1.490 . S
C733 C314 1.560 . S
C738 C180 1.488 . S
C743 C206 1.489 . S
C748 C335 1.560 . S
C753 C337 1.623 . S
C758 C6 1.623 . S
C763 C269 1.624 . S
C768 C31 1.625 . S
C773 C51 1.623 . S
C778 C292 1.624 . S
C783 C317 1.627 . S
C788 C71 1.628 . S
C793 C93 1.623 . S
C798 C207 1.624 . S
C803 C116 1.624 . S
C808 C227 1.623 . S
C813 C247 1.623 . S
C818 C141 1.623 . S
C823 C161 1.624 . S
C828 C182 1.623 . S
