# Generated by pormake.
# Topology can, (4)-cn, num edge types: 1
# Building blocks:
#     Node 0, Type 0, BuildingBlock: QUQFOY_clean_sbu_1, # of connection points: 4
#     Node 1, Type 0, BuildingBlock: QUQFOY_clean_sbu_1, # of connection points: 4
#     Node 2, Type 0, BuildingBlock: QUQFOY_clean_sbu_1, # of connection points: 4
#     Node 3, Type 0, BuildingBlock: QUQFOY_clean_sbu_1, # of connection points: 4
#     Node 4, Type 0, BuildingBlock: QUQFOY_clean_sbu_1, # of connection points: 4
#     Node 5, Type 0, BuildingBlock: QUQFOY_clean_sbu_1, # of connection points: 4
#     Node 6, Type 0, BuildingBlock: QUQFOY_clean_sbu_1, # of connection points: 4
#     Node 7, Type 0, BuildingBlock: QUQFOY_clean_sbu_1, # of connection points: 4
#     Node 8, Type 0, BuildingBlock: QUQFOY_clean_sbu_1, # of connection points: 4
#     Node 9, Type 0, BuildingBlock: QUQFOY_clean_sbu_1, # of connection points: 4
#     Node 10, Type 0, BuildingBlock: QUQFOY_clean_sbu_1, # of connection points: 4
#     Node 11, Type 0, BuildingBlock: QUQFOY_clean_sbu_1, # of connection points: 4
#     Edge 12, Type (0, 0), BuildingBlock: MIFKUJ_clean_linker_0, # of connection points: 2
#     Edge 13, Type (0, 0), BuildingBlock: MIFKUJ_clean_linker_0, # of connection points: 2
#     Edge 14, Type (0, 0), BuildingBlock: MIFKUJ_clean_linker_0, # of connection points: 2
#     Edge 15, Type (0, 0), BuildingBlock: MIFKUJ_clean_linker_0, # of connection points: 2
#     Edge 16, Type (0, 0), BuildingBlock: MIFKUJ_clean_linker_0, # of connection points: 2
#     Edge 17, Type (0, 0), BuildingBlock: MIFKUJ_clean_linker_0, # of connection points: 2
#     Edge 18, Type (0, 0), BuildingBlock: MIFKUJ_clean_linker_0, # of connection points: 2
#     Edge 19, Type (0, 0), BuildingBlock: MIFKUJ_clean_linker_0, # of connection points: 2
#     Edge 20, Type (0, 0), BuildingBlock: MIFKUJ_clean_linker_0, # of connection points: 2
#     Edge 21, Type (0, 0), BuildingBlock: MIFKUJ_clean_linker_0, # of connection points: 2
#     Edge 22, Type (0, 0), BuildingBlock: MIFKUJ_clean_linker_0, # of connection points: 2
#     Edge 23, Type (0, 0), BuildingBlock: MIFKUJ_clean_linker_0, # of connection points: 2
#     Edge 24, Type (0, 0), BuildingBlock: MIFKUJ_clean_linker_0, # of connection points: 2
#     Edge 25, Type (0, 0), BuildingBlock: MIFKUJ_clean_linker_0, # of connection points: 2
#     Edge 26, Type (0, 0), BuildingBlock: MIFKUJ_clean_linker_0, # of connection points: 2
#     Edge 27, Type (0, 0), BuildingBlock: MIFKUJ_clean_linker_0, # of connection points: 2
#     Edge 28, Type (0, 0), BuildingBlock: MIFKUJ_clean_linker_0, # of connection points: 2
#     Edge 29, Type (0, 0), BuildingBlock: MIFKUJ_clean_linker_0, # of connection points: 2
#     Edge 30, Type (0, 0), BuildingBlock: MIFKUJ_clean_linker_0, # of connection points: 2
#     Edge 31, Type (0, 0), BuildingBlock: MIFKUJ_clean_linker_0, # of connection points: 2
#     Edge 32, Type (0, 0), BuildingBlock: MIFKUJ_clean_linker_0, # of connection points: 2
#     Edge 33, Type (0, 0), BuildingBlock: MIFKUJ_clean_linker_0, # of connection points: 2
#     Edge 34, Type (0, 0), BuildingBlock: MIFKUJ_clean_linker_0, # of connection points: 2
#     Edge 35, Type (0, 0), BuildingBlock: MIFKUJ_clean_linker_0, # of connection points: 2
# Relax obj value: 0.067
# Max RMSD: 0.098
# Mean RMSD: 0.098
data_MOF--net-can--node1-QUQFOY_clean_sbu_1--edge1-MIFKUJ_clean_linker_0
_symmetry_space_group_name_H-M    P1
_symmetry_Int_Tables_number       1
_symmetry_cell_setting            triclinic
loop_
_symmetry_equiv_pos_as_xyz
'x, y, z'
_cell_length_a     73.715345
_cell_length_b     73.741879
_cell_length_c     37.121513
_cell_angle_alpha  90.015619
_cell_angle_beta   90.179191
_cell_angle_gamma 119.98829
loop_
_atom_site_label
_atom_site_type_symbol
_atom_site_fract_x
_atom_site_fract_y
_atom_site_fract_z
_atom_type_partial_charge
O0 O 0.05168 0.37988 0.19802 0.0
Cd1 Cd 0.06984 0.39872 0.23981 0.0
Cd2 Cd 0.03052 0.38134 0.2704 0.0
O3 O 0.02035 0.36434 0.22289 0.0
O4 O 0.09855 0.40789 0.22155 0.0
O5 O 0.08628 0.38985 0.27181 0.0
C6 C 0.1013 0.39871 0.24876 0.0
C7 C 0.02191 0.36589 0.32747 0.0
C8 C 0.03213 0.36704 0.19605 0.0
C9 C 0.0541 0.42805 0.25932 0.0
O10 O 0.03697 0.41192 0.2681 0.0
O11 O 0.06956 0.42628 0.24883 0.0
O12 O 0.00825 0.36728 0.30761 0.0
O13 O 0.04036 0.37249 0.31417 0.0
O14 O 0.67184 0.05652 0.69632 0.0
Cd15 Cd 0.67094 0.0723 0.74153 0.0
Cd16 Cd 0.6509 0.03268 0.76777 0.0
O17 O 0.65944 0.02498 0.71948 0.0
O18 O 0.68949 0.10227 0.72865 0.0
O19 O 0.69686 0.08683 0.77274 0.0
C20 C 0.70214 0.10338 0.75367 0.0
C21 C 0.65845 0.02404 0.82423 0.0
C22 C 0.66705 0.03748 0.69297 0.0
C23 C 0.62569 0.05417 0.76141 0.0
O24 O 0.6253 0.03692 0.7663 0.0
O25 O 0.6428 0.07063 0.75375 0.0
O26 O 0.64424 0.01003 0.80355 0.0
O27 O 0.66918 0.04293 0.81201 0.0
O28 O 0.6102 0.66919 0.19326 0.0
Cd29 Cd 0.59631 0.66998 0.24099 0.0
Cd30 Cd 0.61637 0.6501 0.26399 0.0
O31 O 0.63139 0.65872 0.21457 0.0
O32 O 0.58472 0.6887 0.23038 0.0
O33 O 0.61016 0.69682 0.2699 0.0
C34 C 0.59797 0.70189 0.25311 0.0
C35 C 0.63353 0.65777 0.31967 0.0
C36 C 0.62481 0.66504 0.18839 0.0
C37 C 0.56966 0.62526 0.26296 0.0
O38 O 0.5865 0.6245 0.26396 0.0
O39 O 0.57029 0.64257 0.25747 0.0
O40 O 0.63315 0.64364 0.29862 0.0
O41 O 0.6251 0.66843 0.30813 0.0
O42 O 0.9502 0.62159 0.6943 0.0
Cd43 Cd 0.932 0.6029 0.73596 0.0
Cd44 Cd 0.97102 0.62026 0.76773 0.0
O45 O 0.98121 0.63758 0.72065 0.0
O46 O 0.90324 0.59399 0.71798 0.0
O47 O 0.91599 0.61201 0.76833 0.0
C48 C 0.90078 0.60321 0.74542 0.0
C49 C 0.98029 0.63548 0.82513 0.0
C50 C 0.96971 0.63467 0.69316 0.0
C51 C 0.94769 0.5736 0.75542 0.0
O52 O 0.96476 0.58974 0.76458 0.0
O53 O 0.93218 0.57531 0.74487 0.0
O54 O 0.99369 0.63416 0.80464 0.0
O55 O 0.96169 0.62893 0.81236 0.0
O56 O 0.33254 0.94473 0.19782 0.0
Cd57 Cd 0.33287 0.92848 0.2428 0.0
Cd58 Cd 0.35306 0.9679 0.27078 0.0
O59 O 0.34462 0.9759 0.22256 0.0
O60 O 0.31447 0.89855 0.22921 0.0
O61 O 0.30652 0.91386 0.27269 0.0
C62 C 0.30154 0.89738 0.25357 0.0
C63 C 0.3462 0.97716 0.32728 0.0
C64 C 0.33734 0.96382 0.19535 0.0
C65 C 0.37799 0.94614 0.26372 0.0
O66 O 0.37852 0.96342 0.26912 0.0
O67 O 0.36082 0.92982 0.25561 0.0
O68 O 0.36041 0.99086 0.30642 0.0
O69 O 0.33509 0.95824 0.31525 0.0
O70 O 0.39048 0.33168 0.69689 0.0
Cd71 Cd 0.40628 0.33213 0.74316 0.0
Cd72 Cd 0.38611 0.35207 0.76771 0.0
O73 O 0.37038 0.34329 0.71869 0.0
O74 O 0.41833 0.3142 0.72957 0.0
O75 O 0.39497 0.30569 0.77283 0.0
C76 C 0.40665 0.30099 0.75366 0.0
C77 C 0.36965 0.34411 0.82381 0.0
C78 C 0.37603 0.33611 0.69252 0.0
C79 C 0.43283 0.37732 0.76446 0.0
O80 O 0.4159 0.37782 0.76727 0.0
O81 O 0.43231 0.36016 0.7577 0.0
O82 O 0.36946 0.3581 0.80316 0.0
O83 O 0.37829 0.33379 0.81172 0.0
O84 O 0.61571 0.94382 0.32807 0.0
Cd85 Cd 0.60011 0.92824 0.28174 0.0
Cd86 Cd 0.61987 0.96765 0.25622 0.0
O87 O 0.63606 0.97502 0.30461 0.0
O88 O 0.58876 0.89812 0.29346 0.0
O89 O 0.61274 0.9146 0.25159 0.0
C90 C 0.60111 0.89767 0.26948 0.0
C91 C 0.63579 0.97566 0.19973 0.0
C92 C 0.6304 0.96269 0.33147 0.0
C93 C 0.57328 0.94641 0.26044 0.0
O94 O 0.5902 0.9638 0.25753 0.0
O95 O 0.57382 0.92976 0.26697 0.0
O96 O 0.63601 0.98998 0.22005 0.0
O97 O 0.62743 0.95685 0.21242 0.0
O98 O 0.67354 0.61829 0.82511 0.0
Cd99 Cd 0.67328 0.6003 0.78233 0.0
Cd100 Cd 0.65249 0.61862 0.75192 0.0
O101 O 0.65967 0.63554 0.79949 0.0
O102 O 0.69256 0.59066 0.80024 0.0
O103 O 0.69888 0.60975 0.75108 0.0
C104 C 0.70478 0.6004 0.7737 0.0
C105 C 0.65986 0.63401 0.69481 0.0
C106 C 0.66766 0.63179 0.82692 0.0
C107 C 0.62828 0.57192 0.76186 0.0
O108 O 0.62766 0.5884 0.75417 0.0
O109 O 0.64539 0.57309 0.77166 0.0
O110 O 0.64512 0.63332 0.71446 0.0
O111 O 0.67115 0.62677 0.70836 0.0
O112 O 0.06402 0.6705 0.32752 0.0
Cd113 Cd 0.07807 0.67041 0.27955 0.0
Cd114 Cd 0.03814 0.65143 0.2574 0.0
O115 O 0.03246 0.66095 0.30664 0.0
O116 O 0.10858 0.6889 0.289 0.0
O117 O 0.09098 0.69685 0.24985 0.0
C118 C 0.1084 0.70191 0.26607 0.0
C119 C 0.0301 0.65987 0.2012 0.0
C120 C 0.04552 0.66709 0.33263 0.0
C121 C 0.05867 0.62537 0.25842 0.0
O122 O 0.04133 0.62517 0.25788 0.0
O123 O 0.0757 0.64248 0.26331 0.0
O124 O 0.01564 0.64614 0.22172 0.0
O125 O 0.04906 0.66973 0.21361 0.0
O126 O 0.38884 0.05839 0.83058 0.0
Cd127 Cd 0.4047 0.07366 0.78446 0.0
Cd128 Cd 0.38406 0.03378 0.75992 0.0
O129 O 0.36806 0.02689 0.8083 0.0
O130 O 0.41705 0.10369 0.79802 0.0
O131 O 0.39358 0.08894 0.75461 0.0
C132 C 0.40542 0.10531 0.77378 0.0
C133 C 0.3683 0.02623 0.70312 0.0
C134 C 0.37405 0.03965 0.83466 0.0
C135 C 0.43065 0.05435 0.76411 0.0
O136 O 0.41352 0.03709 0.76151 0.0
O137 O 0.43051 0.07125 0.77016 0.0
O138 O 0.36758 0.01166 0.72339 0.0
O139 O 0.37701 0.04504 0.71607 0.0
O140 O 0.32919 0.3845 0.32903 0.0
Cd141 Cd 0.32932 0.40233 0.28616 0.0
Cd142 Cd 0.35007 0.38376 0.25614 0.0
O143 O 0.34269 0.36686 0.30378 0.0
O144 O 0.30988 0.41179 0.30369 0.0
O145 O 0.30369 0.39261 0.25457 0.0
C146 C 0.29768 0.4019 0.27706 0.0
C147 C 0.34323 0.36822 0.19899 0.0
C148 C 0.33484 0.37083 0.33107 0.0
C149 C 0.37418 0.43066 0.26579 0.0
O150 O 0.37476 0.41412 0.25836 0.0
O151 O 0.35711 0.42953 0.27551 0.0
O152 O 0.35797 0.36921 0.21922 0.0
O153 O 0.33161 0.37518 0.212 0.0
O154 O 0.93898 0.33259 0.82961 0.0
Cd155 Cd 0.9243 0.3319 0.78179 0.0
Cd156 Cd 0.96382 0.35034 0.7582 0.0
O157 O 0.96996 0.34118 0.80745 0.0
O158 O 0.89395 0.31343 0.79202 0.0
O159 O 0.91122 0.30506 0.75305 0.0
C160 C 0.89397 0.30012 0.76958 0.0
C161 C 0.97227 0.34198 0.70236 0.0
C162 C 0.95744 0.3357 0.83402 0.0
C163 C 0.94341 0.37652 0.75885 0.0
O164 O 0.96072 0.37666 0.75818 0.0
O165 O 0.92642 0.35951 0.76443 0.0
O166 O 0.98653 0.35575 0.72328 0.0
O167 O 0.95322 0.33207 0.71409 0.0
H168 H 0.0526 0.36257 0.13869 0.0
H169 H 0.03929 0.35198 0.07749 0.0
H170 H 0.9782 0.33939 0.11162 0.0
H171 H 0.99131 0.34949 0.17333 0.0
H172 H 0.97484 0.31149 0.06119 0.0
H173 H 0.01298 0.38647 0.0742 0.0
H174 H 0.04343 0.42068 0.09018 0.0
H175 H 0.08114 0.41095 0.01323 0.0
H176 H 0.05096 0.37654 0.99714 0.0
H177 H 0.93535 0.32697 0.89674 0.0
H178 H 0.94777 0.32743 0.95777 0.0
H179 H 0.0079 0.34117 0.91622 0.0
H180 H 0.99571 0.34123 0.85479 0.0
H181 H 0.01263 0.36677 0.96971 0.0
H182 H 0.97261 0.29245 0.95305 0.0
H183 H 0.94141 0.25881 0.93714 0.0
H184 H 0.90636 0.2677 0.02056 0.0
H185 H 0.93727 0.30154 0.03667 0.0
C186 C 0.03622 0.35718 0.13337 0.0
C187 C 0.02307 0.35712 0.16082 0.0
C188 C 0.02866 0.35121 0.0983 0.0
C189 C 0.00788 0.3454 0.08975 0.0
C190 C 0.99432 0.34395 0.11754 0.0
C191 C 0.00184 0.34972 0.15282 0.0
C192 C 1.00081 0.34241 0.05154 0.0
C193 C 0.98299 0.32361 0.04121 0.0
C194 C 0.01166 0.3581 0.02529 0.0
C195 C 0.02978 0.37884 0.03474 0.0
C196 C 0.02781 0.39157 0.06087 0.0
C197 C 0.04501 0.411 0.06992 0.0
C198 C 0.06422 0.41796 0.0528 0.0
C199 C 0.06625 0.40552 0.02651 0.0
C200 C 0.0491 0.38606 0.0174 0.0
C201 C 0.95116 0.32986 0.90042 0.0
C202 C 0.96454 0.33411 0.87075 0.0
C203 C 0.9582 0.32999 0.93544 0.0
C204 C 0.9787 0.33409 0.94167 0.0
C205 C 0.99199 0.33791 0.91209 0.0
C206 C 0.98499 0.3379 0.87697 0.0
C207 C 0.98664 0.3358 0.97916 0.0
C208 C 0.0046 0.35447 0.98947 0.0
C209 C 0.97581 0.32005 1.00534 0.0
C210 C 0.95724 0.29962 0.99589 0.0
C211 C 0.95822 0.2873 0.96785 0.0
C212 C 0.94058 0.26818 0.95882 0.0
C213 C 0.92191 0.26114 0.97778 0.0
C214 C 0.92084 0.27318 1.00588 0.0
C215 C 0.93842 0.29231 0.01501 0.0
H216 H 0.90827 0.24634 0.97074 0.0
H217 H 0.07752 0.433 0.05984 0.0
H218 H 0.65826 0.00312 0.35159 0.0
H219 H 0.66999 0.01637 0.4127 0.0
H220 H 0.63463 0.95355 0.45435 0.0
H221 H 0.62306 0.94016 0.39354 0.0
H222 H 0.64507 0.01407 0.4671 0.0
H223 H 0.65701 0.9493 0.53207 0.0
H224 H 0.66923 0.9249 0.51479 0.0
H225 H 0.70646 0.96655 0.4303 0.0
H226 H 0.6947 0.99133 0.44737 0.0
H227 H 0.65059 0.99673 0.67049 0.0
H228 H 0.64914 0.98438 0.60868 0.0
H229 H 0.68598 0.04824 0.57248 0.0
H230 H 0.68722 0.0607 0.63379 0.0
H231 H 0.67703 0.98824 0.55648 0.0
H232 H 0.66572 0.05375 0.49399 0.0
H233 H 0.65229 0.07719 0.51126 0.0
H234 H 0.61228 0.03263 0.59013 0.0
H235 H 0.62524 0.00882 0.57298 0.0
C236 C 0.65328 0.99207 0.37366 0.0
C237 C 0.63964 0.97058 0.36763 0.0
C238 C 0.65995 0.99968 0.4086 0.0
C239 C 0.65328 0.98596 0.43812 0.0
C240 C 0.64025 0.96442 0.432 0.0
C241 C 0.63355 0.95681 0.39715 0.0
C242 C 0.65842 0.99424 0.4755 0.0
C243 C 0.65247 0.00874 0.48641 0.0
C244 C 0.66742 0.98676 0.50105 0.0
C245 C 0.6748 0.97208 0.49082 0.0
C246 C 0.66787 0.95329 0.5099 0.0
C247 C 0.67471 0.93939 0.50013 0.0
C248 C 0.68856 0.94414 0.4714 0.0
C249 C 0.69566 0.96284 0.45246 0.0
C250 C 0.68889 0.97681 0.46214 0.0
C251 C 0.65866 0.00813 0.64947 0.0
C252 C 0.66876 0.02971 0.65702 0.0
C253 C 0.65784 0.00104 0.61416 0.0
C254 C 0.66711 0.0154 0.58587 0.0
C255 C 0.67836 0.03688 0.59377 0.0
C256 C 0.67909 0.04397 0.6289 0.0
C257 C 0.66376 0.0081 0.54786 0.0
C258 C 0.66989 0.99373 0.53697 0.0
C259 C 0.65476 0.01555 0.52225 0.0
C260 C 0.64665 0.02963 0.53247 0.0
C261 C 0.65401 0.04894 0.51493 0.0
C262 C 0.64648 0.06229 0.52471 0.0
C263 C 0.6315 0.05644 0.55187 0.0
C264 C 0.62395 0.03718 0.5692 0.0
C265 C 0.63139 0.02377 0.55949 0.0
H266 H 0.62571 0.0668 0.55942 0.0
H267 H 0.69382 0.93335 0.46386 0.0
H268 H 0.65439 0.65524 0.1658 0.0
H269 H 0.66502 0.65414 0.10375 0.0
H270 H 0.62425 0.67625 0.06533 0.0
H271 H 0.61347 0.67729 0.12695 0.0
H272 H 0.61813 0.64199 0.02887 0.0
H273 H 0.67709 0.70794 0.0643 0.0
H274 H 0.70704 0.73171 0.10261 0.0
H275 H 0.73636 0.69494 0.08255 0.0
H276 H 0.70643 0.67078 0.0445 0.0
H277 H 0.64792 0.65349 0.84637 0.0
H278 H 0.64401 0.66371 0.90735 0.0
H279 H 0.68383 0.64118 0.94886 0.0
H280 H 0.68793 0.63105 0.88814 0.0
H281 H 0.69106 0.67703 0.98326 0.0
H282 H 0.63238 0.61017 0.95221 0.0
H283 H 0.60244 0.58493 0.91531 0.0
H284 H 0.57264 0.62178 0.92885 0.0
H285 H 0.60255 0.6474 0.96545 0.0
C286 C 0.64789 0.66013 0.1442 0.0
C287 C 0.63301 0.66628 0.15143 0.0
C288 C 0.65403 0.65954 0.10873 0.0
C289 C 0.64547 0.66517 0.07987 0.0
C290 C 0.63103 0.6718 0.08713 0.0
C291 C 0.62493 0.67243 0.12247 0.0
C292 C 0.65056 0.66301 0.04196 0.0
C293 C 0.63405 0.64996 0.01875 0.0
C294 C 0.67139 0.6729 0.02903 0.0
C295 C 0.68942 0.68743 0.05182 0.0
C296 C 0.68984 0.70482 0.06829 0.0
C297 C 0.70683 0.71839 0.08992 0.0
C298 C 0.72357 0.71481 0.09508 0.0
C299 C 0.72337 0.69768 0.07856 0.0
C300 C 0.70641 0.68406 0.05693 0.0
C301 C 0.6562 0.65111 0.86834 0.0
C302 C 0.66807 0.64126 0.86239 0.0
C303 C 0.65386 0.65686 0.90322 0.0
C304 C 0.66336 0.65289 0.93272 0.0
C305 C 0.67629 0.64432 0.92654 0.0
C306 C 0.67856 0.63848 0.89177 0.0
C307 C 0.65861 0.65619 0.97021 0.0
C308 C 0.67514 0.66928 0.99335 0.0
C309 C 0.63781 0.64618 0.98328 0.0
C310 C 0.61982 0.63084 0.9612 0.0
C311 C 0.61953 0.61299 0.94704 0.0
C312 C 0.60255 0.5986 0.92624 0.0
C313 C 0.58568 0.60179 0.91964 0.0
C314 C 0.58574 0.61936 0.93391 0.0
C315 C 0.60269 0.63382 0.95471 0.0
H316 H 0.57254 0.59061 0.90356 0.0
H317 H 0.73671 0.72533 0.11183 0.0
H318 H 0.00681 0.65921 0.35569 0.0
H319 H 0.99569 0.65903 0.41788 0.0
H320 H 0.05827 0.67874 0.45549 0.0
H321 H 0.06948 0.67889 0.39373 0.0
H322 H 0.0295 0.64514 0.49197 0.0
H323 H 0.03926 0.71208 0.4578 0.0
H324 H 0.03449 0.73697 0.42025 0.0
H325 H 0.96832 0.70279 0.44038 0.0
H326 H 0.97265 0.6775 0.47766 0.0
H327 H 0.01131 0.65594 0.67477 0.0
H328 H 0.02595 0.66683 0.61432 0.0
H329 H 0.96416 0.64634 0.57183 0.0
H330 H 0.94942 0.63556 0.63203 0.0
H331 H 0.99382 0.68225 0.53861 0.0
H332 H 0.9833 0.61419 0.56813 0.0
H333 H 0.98713 0.58841 0.60479 0.0
H334 H 0.0539 0.62388 0.59192 0.0
H335 H 0.05047 0.65006 0.55561 0.0
C336 C 0.01827 0.66378 0.37714 0.0
C337 C 0.03902 0.66897 0.36964 0.0
C338 C 0.0119 0.66373 0.41269 0.0
C339 C 0.02617 0.66892 0.44137 0.0
C340 C 0.04698 0.67464 0.43383 0.0
C341 C 0.05337 0.67475 0.39841 0.0
C342 C 0.01917 0.66707 0.47938 0.0
C343 C 0.02205 0.65357 0.50231 0.0
C344 C 0.00892 0.6776 0.49264 0.0
C345 C 0.00626 0.69278 0.47025 0.0
C346 C 0.02367 0.70976 0.45397 0.0
C347 C 0.02105 0.72396 0.43279 0.0
C348 C 1.00111 0.72143 0.42786 0.0
C349 C 0.98375 0.70471 0.44418 0.0
C350 C 0.98628 0.69045 0.46537 0.0
C351 C 1.00089 0.65417 0.65273 0.0
C352 C 0.97916 0.64466 0.65821 0.0
C353 C 0.00927 0.66031 0.61815 0.0
C354 C 0.99609 0.65708 0.58847 0.0
C355 C 0.97461 0.64892 0.59428 0.0
C356 C 0.96621 0.64269 0.62876 0.0
C357 C 0.00432 0.66046 0.5511 0.0
C358 C 1.00152 0.67406 0.52829 0.0
C359 C 0.01454 0.64993 0.53776 0.0
C360 C 0.01665 0.63421 0.55954 0.0
C361 C 0.99881 0.61659 0.57339 0.0
C362 C 1.00091 0.60189 0.59406 0.0
C363 C 0.02075 0.60454 0.60078 0.0
C364 C 0.03854 0.62187 0.58676 0.0
C365 C 0.03653 0.63664 0.56613 0.0
H366 H 0.02234 0.59314 0.61677 0.0
H367 H 0.99912 0.73245 0.41145 0.0
H368 H 0.34652 0.99958 0.85715 0.0
H369 H 0.336 0.98768 0.91912 0.0
H370 H 0.37124 0.0515 0.95679 0.0
H371 H 0.38196 0.06348 0.89524 0.0
H372 H 0.38138 0.02686 0.99366 0.0
H373 H 0.31769 0.02454 0.95849 0.0
H374 H 0.28659 0.01466 0.92057 0.0
H375 H 0.26464 0.94962 0.94085 0.0
H376 H 0.29578 0.95911 0.9785 0.0
H377 H 0.35249 0.00484 0.17616 0.0
H378 H 0.35447 0.01862 0.11544 0.0
H379 H 0.32177 0.95573 0.07302 0.0
H380 H 0.31956 0.9418 0.13351 0.0
H381 H 0.30938 0.98093 0.03941 0.0
H382 H 0.37377 0.98283 0.07003 0.0
H383 H 0.40501 0.99203 0.10714 0.0
H384 H 0.42576 0.05739 0.09407 0.0
H385 H 0.39445 0.04854 0.05728 0.0
C386 C 0.35173 0.01112 0.87854 0.0
C387 C 0.3652 0.03248 0.87118 0.0
C388 C 0.34566 0.00429 0.91397 0.0
C389 C 0.35283 0.01871 0.94264 0.0
C390 C 0.36558 0.04009 0.93515 0.0
C391 C 0.37166 0.04691 0.89986 0.0
C392 C 0.34847 0.01147 0.98065 0.0
C393 C 0.3656 0.01715 1.00379 0.0
C394 C 0.32793 0.9983 0.99365 0.0
C395 C 0.30918 0.99254 0.97105 0.0
C396 C 0.30633 0.00813 0.95462 0.0
C397 C 0.28867 0.0026 0.93322 0.0
C398 C 0.27367 0.98153 0.92823 0.0
C399 C 0.27628 0.96594 0.94471 0.0
C400 C 0.29392 0.97138 0.96611 0.0
C401 C 0.3454 0.99392 0.15403 0.0
C402 C 0.33607 0.97222 0.15969 0.0
C403 C 0.34661 0.00183 0.11932 0.0
C404 C 0.33853 0.9882 0.08964 0.0
C405 C 0.32815 0.96653 0.09549 0.0
C406 C 0.32699 0.95861 0.13013 0.0
C407 C 0.34228 0.99648 0.05228 0.0
C408 C 0.32511 0.99087 0.02927 0.0
C409 C 0.3628 0.00966 0.03922 0.0
C410 C 0.38165 0.01502 0.06127 0.0
C411 C 0.3849 0.99916 0.07533 0.0
C412 C 0.40264 0.00431 0.09626 0.0
C413 C 0.41733 0.02528 0.10306 0.0
C414 C 0.41434 0.04115 0.08885 0.0
C415 C 0.39661 0.03608 0.06795 0.0
H416 H 0.43106 0.02924 0.11925 0.0
H417 H 0.26001 0.97728 0.91166 0.0
H418 H 0.31751 0.37487 0.3933 0.0
H419 H 0.3208 0.3638 0.45361 0.0
H420 H 0.35346 0.33383 0.41031 0.0
H421 H 0.35059 0.34524 0.34965 0.0
H422 H 0.30931 0.32799 0.48842 0.0
H423 H 0.39307 0.34229 0.46809 0.0
H424 H 0.42394 0.36327 0.42981 0.0
H425 H 0.40498 0.4092 0.4153 0.0
H426 H 0.37418 0.38864 0.45386 0.0
H427 H 0.38274 0.31877 0.63269 0.0
H428 H 0.37147 0.3192 0.57106 0.0
H429 H 0.33832 0.35025 0.60704 0.0
H430 H 0.34937 0.34966 0.66911 0.0
H431 H 0.38178 0.35304 0.53166 0.0
H432 H 0.29764 0.33873 0.54874 0.0
H433 H 0.26708 0.3191 0.58826 0.0
H434 H 0.2871 0.27475 0.61144 0.0
H435 H 0.31762 0.29394 0.5717 0.0
C436 C 0.32518 0.3657 0.39641 0.0
C437 C 0.33403 0.36118 0.36658 0.0
C438 C 0.32697 0.3593 0.431 0.0
C439 C 0.33768 0.34829 0.43663 0.0
C440 C 0.34542 0.34263 0.40669 0.0
C441 C 0.34368 0.34907 0.37198 0.0
C442 C 0.34196 0.34414 0.47402 0.0
C443 C 0.32516 0.33355 0.49796 0.0
C444 C 0.36262 0.35118 0.48642 0.0
C445 C 0.3812 0.36378 0.46347 0.0
C446 C 0.39553 0.35689 0.45678 0.0
C447 C 0.41301 0.36871 0.43504 0.0
C448 C 0.41637 0.38751 0.42001 0.0
C449 C 0.40231 0.39459 0.42682 0.0
C450 C 0.38483 0.38285 0.44858 0.0
C451 C 0.37281 0.32545 0.62769 0.0
C452 C 0.36705 0.33428 0.65593 0.0
C453 C 0.36641 0.32571 0.59234 0.0
C454 C 0.35403 0.33472 0.58433 0.0
C455 C 0.34765 0.34296 0.61258 0.0
C456 C 0.35403 0.34266 0.64808 0.0
C457 C 0.34913 0.33681 0.54617 0.0
C458 C 0.36588 0.34718 0.52209 0.0
C459 C 0.32846 0.32972 0.53383 0.0
C460 C 0.31003 0.31791 0.5575 0.0
C461 C 0.29548 0.32475 0.56216 0.0
C462 C 0.27817 0.3137 0.58462 0.0
C463 C 0.27519 0.29573 0.60244 0.0
C464 C 0.28948 0.28872 0.59774 0.0
C465 C 0.3068 0.2997 0.57529 0.0
H466 H 0.26178 0.28721 0.61983 0.0
H467 H 0.4299 0.39663 0.40317 0.0
H468 H 0.9539 0.63139 0.88038 0.0
H469 H 0.96293 0.63973 0.94404 0.0
H470 H 0.02828 0.66478 0.91892 0.0
H471 H 0.01926 0.65584 0.85556 0.0
H472 H 0.01906 0.64013 0.97313 0.0
H473 H 0.00662 0.69628 0.94488 0.0
H474 H 0.98698 0.71275 0.92141 0.0
H475 H 0.9377 0.67807 0.99722 0.0
H476 H 0.95693 0.66118 0.02085 0.0
H477 H 0.05777 0.68074 0.14679 0.0
H478 H 0.04975 0.68087 0.08276 0.0
H479 H 0.98369 0.64526 0.10585 0.0
H480 H 0.99155 0.64495 0.16989 0.0
H481 H 0.99403 0.6769 0.05316 0.0
H482 H 0.00632 0.61975 0.07862 0.0
H483 H 0.02653 0.60393 0.10226 0.0
H484 H 0.07714 0.64189 0.03069 0.0
H485 H 0.05733 0.65818 1.00701 0.0
C486 C 0.97022 0.63897 0.88835 0.0
C487 C 0.98585 0.64291 0.86288 0.0
C488 C 0.9754 0.64381 0.92481 0.0
C489 C 0.99635 0.65305 0.93646 0.0
C490 C 0.01201 0.6576 0.91077 0.0
C491 C 0.00683 0.65254 0.87446 0.0
C492 C 0.00186 0.65668 0.97555 0.0
C493 C 0.01388 0.64853 0.99036 0.0
C494 C 0.99473 0.66717 0.99852 0.0
C495 C 0.98313 0.67732 0.98441 0.0
C496 C 0.99152 0.69204 0.95636 0.0
C497 C 0.98048 0.70148 0.94306 0.0
C498 C 0.96108 0.69642 0.95775 0.0
C499 C 0.95272 0.68195 0.98584 0.0
C500 C 0.96369 0.67246 0.99923 0.0
C501 C 0.04152 0.67326 0.13838 0.0
C502 C 0.0253 0.66271 0.16345 0.0
C503 C 0.03697 0.67329 0.10174 0.0
C504 C 0.01612 0.66288 0.08949 0.0
C505 C 0.99988 0.65338 0.1147 0.0
C506 C 0.00442 0.65317 0.15129 0.0
C507 C 0.0113 0.66052 0.05026 0.0
C508 C 0.99934 0.66873 0.03562 0.0
C509 C 0.01857 0.65021 0.0273 0.0
C510 C 0.03045 0.64035 0.04134 0.0
C511 C 0.02183 0.62485 0.06815 0.0
C512 C 0.0332 0.61578 0.08151 0.0
C513 C 0.05314 0.62195 0.06806 0.0
C514 C 0.06172 0.63716 0.04113 0.0
C515 C 0.05042 0.64631 0.02772 0.0
H516 H 0.06191 0.6149 0.07843 0.0
H517 H 0.95256 0.70374 0.94742 0.0
H518 H 0.32405 0.95083 0.38266 0.0
H519 H 0.32424 0.96006 0.44601 0.0
H520 H 0.3635 0.02544 0.42006 0.0
H521 H 0.36385 0.01626 0.35696 0.0
H522 H 0.37914 0.01655 0.47523 0.0
H523 H 0.31049 0.0034 0.44488 0.0
H524 H 0.27458 0.98344 0.42056 0.0
H525 H 0.25997 0.93437 0.49702 0.0
H526 H 0.2959 0.95392 0.5215 0.0
H527 H 0.37571 0.0543 0.64899 0.0
H528 H 0.36825 0.04672 0.58467 0.0
H529 H 0.33755 0.98053 0.60674 0.0
H530 H 0.34504 0.98795 0.67102 0.0
H531 H 0.31675 0.99099 0.55372 0.0
H532 H 0.38611 0.00356 0.58104 0.0
H533 H 0.42198 0.02376 0.60551 0.0
H534 H 0.43496 0.07455 0.53395 0.0
H535 H 0.39904 0.05475 0.50941 0.0
C536 C 0.33245 0.9672 0.39035 0.0
C537 C 0.34396 0.9828 0.36474 0.0
C538 C 0.33249 0.97248 0.42664 0.0
C539 C 0.34378 0.99349 0.43796 0.0
C540 C 0.35472 0.00912 0.41213 0.0
C541 C 0.35484 0.00384 0.37598 0.0
C542 C 0.34539 0.99912 0.47692 0.0
C543 C 0.36543 0.01126 0.49213 0.0
C544 C 0.32759 0.99184 0.49941 0.0
C545 C 0.30596 0.98005 0.4848 0.0
C546 C 0.29967 0.98828 0.45633 0.0
C547 C 0.2793 0.97706 0.44255 0.0
C548 C 0.26502 0.95763 0.45718 0.0
C549 C 0.27106 0.94941 0.48569 0.0
C550 C 0.29142 0.96057 0.49955 0.0
C551 C 0.36704 0.03812 0.64026 0.0
C552 C 0.36109 0.02173 0.66512 0.0
C553 C 0.36285 0.03382 0.60347 0.0
C554 C 0.35254 0.01306 0.59088 0.0
C555 C 0.34554 0.99665 0.61585 0.0
C556 C 0.34989 1.00094 0.65259 0.0
C557 C 0.35042 0.00846 0.55161 0.0
C558 C 0.33036 0.99643 0.53651 0.0
C559 C 0.36818 0.01589 0.5291 0.0
C560 C 0.38981 0.02777 0.54369 0.0
C561 C 0.39655 0.01911 0.57074 0.0
C562 C 0.4169 0.03047 0.58458 0.0
C563 C 0.43072 0.05045 0.57137 0.0
C564 C 0.42423 0.05908 0.54421 0.0
C565 C 0.40388 0.0478 0.53031 0.0
H566 H 0.44647 0.05921 0.58211 0.0
H567 H 0.24925 0.94896 0.44647 0.0
H568 H 0.3431 0.35617 0.85187 0.0
H569 H 0.33379 0.35592 0.91506 0.0
H570 H 0.37022 0.32702 0.94416 0.0
H571 H 0.3788 0.3264 0.88069 0.0
H572 H 0.33756 0.31194 0.98534 0.0
H573 H 0.38959 0.3815 0.95127 0.0
H574 H 0.40505 0.41381 0.91502 0.0
H575 H 0.35346 0.42284 0.94162 0.0
H576 H 0.33755 0.39042 0.97767 0.0
H577 H 0.36275 0.34932 0.16662 0.0
H578 H 0.36233 0.34102 0.10279 0.0
H579 H 0.31869 0.36255 0.08141 0.0
H580 H 0.31902 0.37093 0.14539 0.0
H581 H 0.35267 0.3803 0.03641 0.0
H582 H 0.30282 0.31097 0.07608 0.0
H583 H 0.28993 0.27953 0.1141 0.0
H584 H 0.34077 0.27121 0.07911 0.0
H585 H 0.35414 0.30279 0.04124 0.0
C586 C 0.34887 0.34947 0.87167 0.0
C587 C 0.36182 0.34145 0.8613 0.0
C588 C 0.34365 0.34946 0.90788 0.0
C589 C 0.35175 0.34197 0.93468 0.0
C590 C 0.36384 0.333 0.92413 0.0
C591 C 0.36875 0.33265 0.88779 0.0
C592 C 0.34847 0.34441 0.97366 0.0
C593 C 0.34105 0.32694 0.99651 0.0
C594 C 0.35272 0.3639 0.98842 0.0
C595 C 0.36227 0.38342 0.96683 0.0
C596 C 0.38147 0.3903 0.94917 0.0
C597 C 0.39033 0.40864 0.9287 0.0
C598 C 0.38021 0.42034 0.92593 0.0
C599 C 0.36125 0.41375 0.94373 0.0
C600 C 0.35232 0.3954 0.9642 0.0
C601 C 0.35279 0.352 0.14847 0.0
C602 C 0.34093 0.36082 0.16114 0.0
C603 C 0.35253 0.34717 0.11195 0.0
C604 C 0.34041 0.35107 0.08727 0.0
C605 C 0.32813 0.35938 0.09997 0.0
C606 C 0.32827 0.36408 0.13658 0.0
C607 C 0.34176 0.34787 0.04798 0.0
C608 C 0.34896 0.36525 0.02512 0.0
C609 C 0.33766 0.32842 0.03343 0.0
C610 C 0.32958 0.30935 0.05603 0.0
C611 C 0.31134 0.30253 0.07669 0.0
C612 C 0.30393 0.28467 0.09818 0.0
C613 C 0.31454 0.2734 0.09908 0.0
C614 C 0.33257 0.27996 0.07841 0.0
C615 C 0.34006 0.29782 0.05689 0.0
H616 H 0.30878 0.25958 0.11574 0.0
H617 H 0.38709 0.43453 0.91007 0.0
H618 H 0.94535 0.32342 0.64571 0.0
H619 H 0.95439 0.32345 0.58244 0.0
H620 H 0.01993 0.35406 0.61101 0.0
H621 H 0.01098 0.3548 0.67411 0.0
H622 H 0.01563 0.37343 0.55763 0.0
H623 H 0.99049 0.30094 0.58081 0.0
H624 H 0.96561 0.26528 0.60189 0.0
H625 H 0.91977 0.2611 0.52558 0.0
H626 H 0.94429 0.29685 0.50433 0.0
H627 H 0.04889 0.36827 0.38071 0.0
H628 H 0.04099 0.35998 0.44468 0.0
H629 H 0.97582 0.33875 0.42377 0.0
H630 H 0.98356 0.347 0.3599 0.0
H631 H 0.98139 0.31333 0.47316 0.0
H632 H 0.00603 0.3868 0.45389 0.0
H633 H 0.03107 0.42244 0.4329 0.0
H634 H 0.07845 0.42422 0.50283 0.0
H635 H 0.05375 0.38844 0.52386 0.0
C636 C 0.96166 0.32982 0.6386 0.0
C637 C 0.97745 0.33913 0.66496 0.0
C638 C 0.96683 0.32976 0.60234 0.0
C639 C 0.98788 0.33861 0.59174 0.0
C640 C 0.00359 0.34719 0.61833 0.0
C641 C 0.99845 0.34753 0.65448 0.0
C642 C 0.99363 0.34036 0.55285 0.0
C643 C 0.00841 0.36013 0.53943 0.0
C644 C 0.98393 0.32321 0.52862 0.0
C645 C 0.96918 0.30165 0.54118 0.0
C646 C 0.97506 0.29247 0.56868 0.0
C647 C 0.96103 0.27223 0.58064 0.0
C648 C 0.94111 0.26095 0.56514 0.0
C649 C 0.9352 0.26986 0.53757 0.0
C650 C 0.94917 0.29011 0.52553 0.0
C651 C 0.03282 0.36153 0.38961 0.0
C652 C 0.01688 0.35843 0.36522 0.0
C653 C 0.02834 0.35686 0.42621 0.0
C654 C 0.00784 0.34895 0.43908 0.0
C655 C 0.99174 0.34485 0.41448 0.0
C656 C 0.99622 0.34965 0.37797 0.0
C657 C 0.00336 0.34629 0.47837 0.0
C658 C 0.98876 0.32646 0.49168 0.0
C659 C 0.01329 0.36334 0.50262 0.0
C660 C 0.02812 0.38487 0.49013 0.0
C661 C 0.02184 0.39473 0.46456 0.0
C662 C 0.03596 0.41496 0.4527 0.0
C663 C 0.05636 0.42556 0.46644 0.0
C664 C 0.06266 0.41597 0.49216 0.0
C665 C 0.0486 0.39572 0.50407 0.0
H666 H 0.06727 0.44123 0.45723 0.0
H667 H 0.93026 0.24529 0.57444 0.0
H668 H 0.67963 0.05098 0.87974 0.0
H669 H 0.67965 0.0422 0.94325 0.0
H670 H 0.64313 0.97645 0.9172 0.0
H671 H 0.64251 0.98518 0.85392 0.0
H672 H 0.62618 0.98436 0.97121 0.0
H673 H 0.69637 0.00117 0.94404 0.0
H674 H 0.73232 0.02276 0.92109 0.0
H675 H 0.74351 0.07118 0.99714 0.0
H676 H 0.70752 0.05 0.02024 0.0
H677 H 0.63001 0.94796 0.14569 0.0
H678 H 0.63788 0.95576 0.08164 0.0
H679 H 0.66582 0.02176 0.10407 0.0
H680 H 0.65796 0.01412 0.1681 0.0
H681 H 0.68809 0.01282 0.05222 0.0
H682 H 0.61742 0.99689 0.07619 0.0
H683 H 0.58147 0.97543 0.09928 0.0
H684 H 0.57151 0.92515 0.02855 0.0
H685 H 0.60752 0.94623 1.00539 0.0
C686 C 0.67191 0.03464 0.88745 0.0
C687 C 0.66103 0.01878 0.86176 0.0
C688 C 0.67198 0.02962 0.92383 0.0
C689 C 0.66149 0.00862 0.93517 0.0
C690 C 0.65128 0.99276 0.90926 0.0
C691 C 0.65101 0.99778 0.87301 0.0
C692 C 0.65984 0.00317 0.97418 0.0
C693 C 0.63981 0.99028 0.98866 0.0
C694 C 0.6775 0.01131 0.99741 0.0
C695 C 0.69918 0.02406 0.98365 0.0
C696 C 0.70644 0.01649 0.95569 0.0
C697 C 0.72684 0.02864 0.94269 0.0
C698 C 0.74017 0.04835 0.95759 0.0
C699 C 0.73316 0.05592 0.9856 0.0
C700 C 0.71277 0.04384 0.99869 0.0
C701 C 0.63816 0.96416 0.13711 0.0
C702 C 0.64322 0.98041 0.16198 0.0
C703 C 0.64259 0.96858 0.10047 0.0
C704 C 0.65224 0.98933 0.08804 0.0
C705 C 0.65836 0.00565 0.11306 0.0
C706 C 0.65378 0.00123 0.14965 0.0
C707 C 0.65453 0.99393 0.0488 0.0
C708 C 0.67458 0.00674 0.03446 0.0
C709 C 0.63692 0.9857 0.02559 0.0
C710 C 0.61524 0.97304 0.03936 0.0
C711 C 0.60762 0.98119 0.06579 0.0
C712 C 0.58723 0.96911 0.07884 0.0
C713 C 0.57424 0.94891 0.06547 0.0
C714 C 0.5816 0.94078 0.03894 0.0
C715 C 0.602 0.95279 0.02582 0.0
H716 H 0.55845 0.93959 0.07561 0.0
H717 H 0.75596 0.05774 0.94748 0.0
H718 H 0.62883 0.67933 0.37561 0.0
H719 H 0.63807 0.67911 0.43885 0.0
H720 H 0.66602 0.64162 0.41155 0.0
H721 H 0.65625 0.64126 0.3485 0.0
H722 H 0.64159 0.62495 0.46595 0.0
H723 H 0.6956 0.69457 0.43883 0.0
H724 H 0.7107 0.73063 0.41595 0.0
H725 H 0.67458 0.74296 0.49241 0.0
H726 H 0.65904 0.70687 0.51544 0.0
H727 H 0.68196 0.62836 0.64108 0.0
H728 H 0.68218 0.63632 0.57693 0.0
H729 H 0.64373 0.66389 0.59862 0.0
H730 H 0.64327 0.65583 0.66268 0.0
H731 H 0.67586 0.68658 0.54725 0.0
H732 H 0.62039 0.61604 0.57074 0.0
H733 H 0.60565 0.58002 0.59364 0.0
H734 H 0.64575 0.56983 0.52301 0.0
H735 H 0.66095 0.60594 0.50007 0.0
C736 C 0.63727 0.67135 0.38297 0.0
C737 C 0.64176 0.66027 0.35698 0.0
C738 C 0.64262 0.67129 0.4192 0.0
C739 C 0.65289 0.66045 0.43014 0.0
C740 C 0.65806 0.65005 0.40393 0.0
C741 C 0.65253 0.64992 0.36781 0.0
C742 C 0.65685 0.65862 0.46906 0.0
C743 C 0.64948 0.63852 0.48345 0.0
C744 C 0.66667 0.67621 0.49236 0.0
C745 C 0.67602 0.69794 0.47864 0.0
C746 C 0.69075 0.70492 0.45058 0.0
C747 C 0.69942 0.72537 0.43762 0.0
C748 C 0.69357 0.73906 0.45266 0.0
C749 C 0.67908 0.73233 0.48076 0.0
C750 C 0.67036 0.71188 0.49381 0.0
C751 C 0.67385 0.63644 0.63231 0.0
C752 C 0.66249 0.64135 0.65696 0.0
C753 C 0.67394 0.64092 0.59562 0.0
C754 C 0.66283 0.65054 0.58297 0.0
C755 C 0.65242 0.65647 0.60779 0.0
C756 C 0.65211 0.65178 0.64439 0.0
C757 C 0.66071 0.65301 0.54369 0.0
C758 C 0.66826 0.67314 0.52942 0.0
C759 C 0.65116 0.63548 0.52037 0.0
C760 C 0.64198 0.61376 0.53401 0.0
C761 C 0.6262 0.60618 0.56033 0.0
C762 C 0.61774 0.58574 0.57327 0.0
C763 C 0.62481 0.57267 0.55987 0.0
C764 C 0.64032 0.57999 0.53342 0.0
C765 C 0.64886 0.60044 0.52043 0.0
H766 H 0.61823 0.55684 0.56991 0.0
H767 H 0.70029 0.75489 0.44258 0.0
H768 H 0.0253 0.58549 0.26048 0.0
H769 H 0.02604 0.55273 0.25988 0.0
H770 H 0.09323 0.58726 0.24883 0.0
H771 H 0.0927 0.62021 0.24959 0.0
H772 H 0.07298 0.55153 0.20347 0.0
H773 H 0.07474 0.56998 0.3281 0.0
H774 H 0.06261 0.58028 0.38207 0.0
H775 H 0.00309 0.52364 0.37504 0.0
H776 H 0.01476 0.51314 0.32067 0.0
H777 H 0.08875 0.46638 0.24665 0.0
H778 H 0.09085 0.50054 0.24614 0.0
H779 H 0.0252 0.47105 0.27245 0.0
H780 H 0.02307 0.43698 0.27386 0.0
H781 H 0.04642 0.5054 0.31066 0.0
H782 H 0.04344 0.4871 0.18574 0.0
H783 H 0.05454 0.47649 0.13085 0.0
H784 H 0.1149 0.53216 0.13702 0.0
H785 H 0.10426 0.54296 0.19227 0.0
C786 C 0.04024 0.58616 0.25762 0.0
C787 C 0.05896 0.60549 0.2553 0.0
C788 C 0.04063 0.56741 0.2574 0.0
C789 C 0.05971 0.56762 0.25468 0.0
C790 C 0.07836 0.58681 0.25104 0.0
C791 C 0.07801 0.6056 0.25159 0.0
C792 C 0.06019 0.5478 0.25677 0.0
C793 C 0.06746 0.54155 0.22706 0.0
C794 C 0.05258 0.53465 0.28731 0.0
C795 C 0.04556 0.54087 0.32011 0.0
C796 C 0.059 0.5598 0.33788 0.0
C797 C 0.05222 0.56566 0.36858 0.0
C798 C 0.03207 0.55265 0.38192 0.0
C799 C 0.01868 0.53372 0.36464 0.0
C800 C 0.02538 0.52779 0.3339 0.0
C801 C 0.07477 0.46717 0.25246 0.0
C802 C 0.05572 0.44891 0.26017 0.0
C803 C 0.07597 0.48671 0.25197 0.0
C804 C 0.0581 0.48834 0.25874 0.0
C805 C 0.03919 0.47019 0.26709 0.0
C806 C 0.038 0.45069 0.26782 0.0
C807 C 0.059 0.5089 0.25715 0.0
C808 C 0.05201 0.51535 0.28704 0.0
C809 C 0.06671 0.52214 0.22664 0.0
C810 C 0.07313 0.51572 0.19336 0.0
C811 C 0.05914 0.497 0.17555 0.0
C812 C 0.06533 0.49096 0.14435 0.0
C813 C 0.08543 0.50361 0.13051 0.0
C814 C 0.09935 0.52236 0.1478 0.0
C815 C 0.09324 0.52845 0.17905 0.0
H816 H 0.0902 0.49892 0.10635 0.0
H817 H 0.02685 0.55721 0.40569 0.0
H818 H 0.46999 0.08846 0.75818 0.0
H819 H 0.50337 0.08884 0.75693 0.0
H820 H 0.47047 0.02146 0.76372 0.0
H821 H 0.43702 0.02088 0.76478 0.0
H822 H 0.50361 0.04111 0.8129 0.0
H823 H 0.49062 0.0432 0.68646 0.0
H824 H 0.48261 0.05696 0.63185 0.0
H825 H 0.53869 0.11622 0.64727 0.0
H826 H 0.54687 0.10291 0.70234 0.0
H827 H 0.58604 0.02159 0.77287 0.0
H828 H 0.55343 0.02253 0.77334 0.0
H829 H 0.58789 0.08919 0.75494 0.0
H830 H 0.62064 0.08835 0.75374 0.0
H831 H 0.55426 0.07086 0.71223 0.0
H832 H 0.5677 0.0693 0.83792 0.0
H833 H 0.5758 0.05629 0.89336 0.0
H834 H 0.51925 0.99713 0.88063 0.0
H835 H 0.51095 0.00969 0.8248 0.0
C836 C 0.46983 0.07371 0.7592 0.0
C837 C 0.45083 0.05463 0.76158 0.0
C838 C 0.48892 0.07396 0.7584 0.0
C839 C 0.48935 0.05517 0.76014 0.0
C840 C 0.47044 0.03612 0.76238 0.0
C841 C 0.45135 0.03583 0.76281 0.0
C842 C 0.50955 0.0554 0.76048 0.0
C843 C 0.51459 0.04736 0.79071 0.0
C844 C 0.52407 0.06412 0.73195 0.0
C845 C 0.51924 0.07213 0.69875 0.0
C846 C 0.50115 0.05923 0.67839 0.0
C847 C 0.49659 0.06693 0.64732 0.0
C848 C 0.5101 0.08747 0.63615 0.0
C849 C 0.52822 0.10032 0.65599 0.0
C850 C 0.53283 0.0927 0.68712 0.0
C851 C 0.58674 0.0365 0.76912 0.0
C852 C 0.60599 0.05491 0.76336 0.0
C853 C 0.56806 0.03701 0.76951 0.0
C854 C 0.56823 0.05597 0.76455 0.0
C855 C 0.5874 0.07439 0.75884 0.0
C856 C 0.60611 0.07388 0.75831 0.0
C857 C 0.54833 0.05645 0.76464 0.0
C858 C 0.54333 0.06465 0.7345 0.0
C859 C 0.53388 0.04798 0.79337 0.0
C860 C 0.5388 0.04038 0.82698 0.0
C861 C 0.55707 0.05346 0.84678 0.0
C862 C 0.56169 0.04617 0.8783 0.0
C863 C 0.54808 0.02588 0.89046 0.0
C864 C 0.52979 0.01284 0.87115 0.0
C865 C 0.52511 0.02004 0.83959 0.0
H866 H 0.55168 0.02027 0.91488 0.0
H867 H 0.50655 0.0934 0.61208 0.0
H868 H 0.56204 0.58496 0.26282 0.0
H869 H 0.52806 0.55275 0.26366 0.0
H870 H 0.49691 0.58893 0.27112 0.0
H871 H 0.53087 0.62133 0.27015 0.0
H872 H 0.48036 0.554 0.3177 0.0
H873 H 0.49792 0.56996 0.19288 0.0
H874 H 0.52055 0.57881 0.13942 0.0
H875 H 0.52168 0.52143 0.15052 0.0
H876 H 0.4993 0.51237 0.2044 0.0
H877 H 0.37874 0.46961 0.27546 0.0
H878 H 0.41125 0.50338 0.27499 0.0
H879 H 0.44629 0.47209 0.25322 0.0
H880 H 0.41389 0.43839 0.2528 0.0
H881 H 0.46028 0.5058 0.21299 0.0
H882 H 0.44418 0.49011 0.33844 0.0
H883 H 0.42231 0.48106 0.39292 0.0
H884 H 0.41908 0.53735 0.38198 0.0
H885 H 0.44072 0.5466 0.32712 0.0
C886 C 0.54799 0.58611 0.26493 0.0
C887 C 0.54917 0.60574 0.26622 0.0
C888 C 0.52859 0.56768 0.26528 0.0
C889 C 0.51 0.5685 0.26706 0.0
C890 C 0.5111 0.588 0.26963 0.0
C891 C 0.53051 0.60648 0.26897 0.0
C892 C 0.48943 0.54897 0.26524 0.0
C893 C 0.47579 0.54357 0.29462 0.0
C894 C 0.48373 0.53524 0.23539 0.0
C895 C 0.4971 0.54059 0.20288 0.0
C896 C 0.50314 0.55931 0.1841 0.0
C897 C 0.51589 0.56435 0.15369 0.0
C898 C 0.52259 0.55072 0.14163 0.0
C899 C 0.5165 0.53199 0.15991 0.0
C900 C 0.50377 0.52688 0.19037 0.0
C901 C 0.39335 0.46991 0.27044 0.0
C902 C 0.3937 0.45126 0.26429 0.0
C903 C 0.41195 0.48923 0.27036 0.0
C904 C 0.43126 0.49025 0.26459 0.0
C905 C 0.43159 0.4717 0.25779 0.0
C906 C 0.41302 0.45242 0.25762 0.0
C907 C 0.45119 0.51059 0.26568 0.0
C908 C 0.46474 0.5162 0.23608 0.0
C909 C 0.45685 0.52443 0.29546 0.0
C910 C 0.44388 0.51893 0.32846 0.0
C911 C 0.43867 0.50047 0.34749 0.0
C912 C 0.42634 0.49532 0.37847 0.0
C913 C 0.41925 0.50859 0.39084 0.0
C914 C 0.42454 0.52707 0.37232 0.0
C915 C 0.43685 0.53228 0.3413 0.0
H916 H 0.40971 0.50457 0.41483 0.0
H917 H 0.53246 0.55465 0.11808 0.0
H918 H 0.91292 0.53516 0.7436 0.0
H919 H 0.91099 0.50105 0.74226 0.0
H920 H 0.97701 0.5308 0.7664 0.0
H921 H 0.97913 0.56492 0.76781 0.0
H922 H 0.9652 0.50257 0.71001 0.0
H923 H 0.94227 0.50487 0.8308 0.0
H924 H 0.92006 0.50871 0.8762 0.0
H925 H 0.86541 0.45642 0.83017 0.0
H926 H 0.88729 0.45246 0.78417 0.0
H927 H 0.97679 0.41641 0.75909 0.0
H928 H 0.97612 0.4491 0.75592 0.0
H929 H 0.90879 0.41435 0.74547 0.0
H930 H 0.90929 0.38151 0.74975 0.0
H931 H 0.91949 0.44448 0.79199 0.0
H932 H 0.94155 0.44067 0.67294 0.0
H933 H 0.96295 0.43655 0.62625 0.0
H934 H 0.01787 0.49105 0.6662 0.0
H935 H 0.99686 0.49534 0.71346 0.0
C936 C 0.92702 0.53445 0.74878 0.0
C937 C 0.94617 0.55279 0.75587 0.0
C938 C 0.92587 0.51494 0.74806 0.0
C939 C 0.94385 0.51342 0.75436 0.0
C940 C 0.96296 0.53166 0.76142 0.0
C941 C 0.96411 0.55113 0.76238 0.0
C942 C 0.94287 0.49286 0.75321 0.0
C943 C 0.95538 0.48991 0.72816 0.0
C944 C 0.92954 0.47617 0.77612 0.0
C945 C 0.91639 0.47852 0.80381 0.0
C946 C 0.9255 0.49431 0.83017 0.0
C947 C 0.91297 0.49648 0.85605 0.0
C948 C 0.89133 0.48286 0.856 0.0
C949 C 0.88218 0.46699 0.83014 0.0
C950 C 0.89463 0.46476 0.80418 0.0
C951 C 0.96184 0.41569 0.75582 0.0
C952 C 0.94309 0.39633 0.75463 0.0
C953 C 0.96149 0.43443 0.75385 0.0
C954 C 0.94242 0.43422 0.74998 0.0
C955 C 0.92369 0.41491 0.74843 0.0
C956 C 0.92401 0.39615 0.75078 0.0
C957 C 0.94201 0.45416 0.74896 0.0
C958 C 0.92922 0.45703 0.7736 0.0
C959 C 0.95495 0.47072 0.7254 0.0
C960 C 0.96765 0.46822 0.69694 0.0
C961 C 0.95822 0.45169 0.67194 0.0
C962 C 0.97028 0.44934 0.64534 0.0
C963 C 0.99176 0.4635 0.64331 0.0
C964 C 1.00123 0.48008 0.66782 0.0
C965 C 0.98925 0.48249 0.6945 0.0
H966 H 1.00107 0.46165 0.6227 0.0
H967 H 0.88166 0.48456 0.87606 0.0
H968 H 0.38274 0.91186 0.25475 0.0
H969 H 0.41544 0.91097 0.25331 0.0
H970 H 0.4504 0.97743 0.27382 0.0
H971 H 0.41783 0.97853 0.27508 0.0
H972 H 0.46686 0.96589 0.21827 0.0
H973 H 0.44341 0.94305 0.33985 0.0
H974 H 0.41817 0.9206 0.38601 0.0
H975 H 0.41677 0.86651 0.33986 0.0
H976 H 0.44181 0.88862 0.29311 0.0
H977 H 0.56612 0.97934 0.26156 0.0
H978 H 0.53244 0.9781 0.26077 0.0
H979 H 0.50055 0.91074 0.25193 0.0
H980 H 0.53425 0.91182 0.25397 0.0
H981 H 0.48161 0.92129 0.29932 0.0
H982 H 0.50532 0.94306 0.17918 0.0
H983 H 0.53006 0.96454 0.13166 0.0
H984 H 0.53009 0.01912 0.1721 0.0
H985 H 0.50559 0.99802 0.22021 0.0
C986 C 0.39736 0.92628 0.25922 0.0
C987 C 0.39764 0.94527 0.26507 0.0
C988 C 0.41604 0.92572 0.25845 0.0
C989 C 0.43534 0.94412 0.26362 0.0
C990 C 0.43567 0.96306 0.26972 0.0
C991 C 0.41702 0.96363 0.27059 0.0
C992 C 0.45525 0.94375 0.26191 0.0
C993 C 0.47022 0.95634 0.23626 0.0
C994 C 0.45929 0.93074 0.28457 0.0
C995 C 0.44432 0.91746 0.31278 0.0
C996 C 0.43759 0.92635 0.33938 0.0
C997 C 0.42335 0.91369 0.36568 0.0
C998 C 0.41583 0.89214 0.36581 0.0
C999 C 0.42259 0.88321 0.3397 0.0
C1000 C 0.43682 0.89579 0.31332 0.0
C1001 C 0.55196 0.96426 0.25916 0.0
C1002 C 0.55288 0.94568 0.25775 0.0
C1003 C 0.53269 0.96357 0.25855 0.0
C1004 C 0.51392 0.94434 0.25577 0.0
C1005 C 0.5148 0.92577 0.25406 0.0
C1006 C 0.53408 0.92642 0.25512 0.0
C1007 C 0.4934 0.94361 0.25585 0.0
C1008 C 0.47827 0.93079 0.28116 0.0
C1009 C 0.48912 0.95625 0.23259 0.0
C1010 C 0.50374 0.96897 0.2035 0.0
C1011 C 0.51071 0.95967 0.1781 0.0
C1012 C 0.52468 0.97177 0.15103 0.0
C1013 C 0.53167 0.99319 0.14891 0.0
C1014 C 0.52467 0.00253 0.17379 0.0
C1015 C 0.51073 0.9905 0.20095 0.0
H1016 H 0.54249 0.00253 0.12794 0.0
H1017 H 0.4048 0.88236 0.38619 0.0
H1018 H 0.58823 0.56438 0.75406 0.0
H1019 H 0.5558 0.53067 0.7562 0.0
H1020 H 0.59131 0.49915 0.76999 0.0
H1021 H 0.62396 0.53289 0.76806 0.0
H1022 H 0.55821 0.47988 0.71912 0.0
H1023 H 0.56958 0.50557 0.84081 0.0
H1024 H 0.57692 0.532 0.88786 0.0
H1025 H 0.5205 0.5323 0.85994 0.0
H1026 H 0.513 0.5061 0.81229 0.0
H1027 H 0.47195 0.38169 0.7665 0.0
H1028 H 0.50565 0.41418 0.76819 0.0
H1029 H 0.47381 0.44987 0.77007 0.0
H1030 H 0.44003 0.41744 0.76932 0.0
H1031 H 0.50608 0.46671 0.81463 0.0
H1032 H 0.49515 0.44314 0.69185 0.0
H1033 H 0.48781 0.41815 0.64219 0.0
H1034 H 0.54286 0.41508 0.66949 0.0
H1035 H 0.55038 0.43985 0.71965 0.0
C1036 C 0.58921 0.5503 0.75733 0.0
C1037 C 0.60871 0.55135 0.76103 0.0
C1038 C 0.57064 0.53106 0.75869 0.0
C1039 C 0.57119 0.51248 0.76363 0.0
C1040 C 0.59059 0.51336 0.76628 0.0
C1041 C 0.60921 0.53264 0.76525 0.0
C1042 C 0.55142 0.49221 0.7665 0.0
C1043 C 0.54693 0.47682 0.74031 0.0
C1044 C 0.53655 0.48853 0.79367 0.0
C1045 C 0.54083 0.50401 0.82275 0.0
C1046 C 0.55881 0.51138 0.84452 0.0
C1047 C 0.56299 0.52631 0.87133 0.0
C1048 C 0.54922 0.53387 0.87682 0.0
C1049 C 0.53118 0.52645 0.85562 0.0
C1050 C 0.52694 0.51154 0.82873 0.0
C1051 C 0.47209 0.39644 0.76748 0.0
C1052 C 0.45327 0.39695 0.76752 0.0
C1053 C 0.49139 0.41502 0.76828 0.0
C1054 C 0.49228 0.43449 0.76862 0.0
C1055 C 0.47353 0.43504 0.76972 0.0
C1056 C 0.45421 0.41646 0.76921 0.0
C1057 C 0.51272 0.4543 0.76707 0.0
C1058 C 0.51737 0.46965 0.79352 0.0
C1059 C 0.52766 0.45804 0.73991 0.0
C1060 C 0.5232 0.44317 0.70974 0.0
C1061 C 0.5056 0.437 0.68744 0.0
C1062 C 0.50142 0.42291 0.65917 0.0
C1063 C 0.51483 0.41499 0.65275 0.0
C1064 C 0.53247 0.4212 0.67453 0.0
C1065 C 0.53671 0.43528 0.70287 0.0
H1066 H 0.51157 0.40408 0.63085 0.0
H1067 H 0.5525 0.54545 0.89755 0.0
H1068 H 0.11787 0.3915 0.30973 0.0
H1069 H 0.15095 0.39114 0.31496 0.0
H1070 H 0.1616 0.40332 0.20117 0.0
H1071 H 0.129 0.40424 0.19587 0.0
H1072 H 0.16753 0.36906 0.23112 0.0
H1073 H 0.18752 0.44205 0.24877 0.0
H1074 H 0.18507 0.47064 0.27857 0.0
H1075 H 0.19994 0.45355 0.3804 0.0
H1076 H 0.20218 0.42464 0.35124 0.0
H1077 H 0.27372 0.39445 0.21625 0.0
H1078 H 0.23996 0.39321 0.21139 0.0
H1079 H 0.24115 0.40427 0.32585 0.0
H1080 H 0.2753 0.40675 0.33028 0.0
H1081 H 0.22813 0.42599 0.29625 0.0
H1082 H 0.20906 0.3541 0.28267 0.0
H1083 H 0.21007 0.3238 0.25684 0.0
H1084 H 0.1917 0.33573 0.15366 0.0
H1085 H 0.19084 0.36628 0.17877 0.0
C1086 C 0.12727 0.39408 0.28588 0.0
C1087 C 0.12093 0.39802 0.25245 0.0
C1088 C 0.14612 0.39387 0.28889 0.0
C1089 C 0.15864 0.3972 0.25841 0.0
C1090 C 0.1521 0.40068 0.22494 0.0
C1091 C 0.13354 0.40131 0.22204 0.0
C1092 C 0.17886 0.3976 0.2614 0.0
C1093 C 0.18089 0.38156 0.24508 0.0
C1094 C 0.19601 0.41362 0.28043 0.0
C1095 C 0.19477 0.43105 0.2979 0.0
C1096 C 0.19007 0.44427 0.27757 0.0
C1097 C 0.18876 0.46055 0.29433 0.0
C1098 C 0.19228 0.46387 0.33137 0.0
C1099 C 0.19718 0.45094 0.35172 0.0
C1100 C 0.19848 0.43461 0.33509 0.0
C1101 C 0.26673 0.39662 0.24029 0.0
C1102 C 0.27714 0.40074 0.2736 0.0
C1103 C 0.24735 0.39575 0.23759 0.0
C1104 C 0.23772 0.3983 0.26837 0.0
C1105 C 0.24817 0.40232 0.30164 0.0
C1106 C 0.26771 0.40369 0.30417 0.0
C1107 C 0.21703 0.3973 0.26607 0.0
C1108 C 0.21486 0.41331 0.28243 0.0
C1109 C 0.19961 0.38096 0.24771 0.0
C1110 C 0.20009 0.3626 0.23252 0.0
C1111 C 0.20539 0.35035 0.25441 0.0
C1112 C 0.20591 0.33312 0.23991 0.0
C1113 C 0.20101 0.32788 0.20361 0.0
C1114 C 0.19552 0.33983 0.18176 0.0
C1115 C 0.195 0.35709 0.19611 0.0
H1116 H 0.20142 0.31453 0.19243 0.0
H1117 H 0.19127 0.47649 0.3443 0.0
H1118 H 0.89138 0.26324 0.74934 0.0
H1119 H 0.85996 0.22851 0.74802 0.0
H1120 H 0.8222 0.25604 0.77645 0.0
H1121 H 0.85366 0.29047 0.77975 0.0
H1122 H 0.81003 0.22385 0.81451 0.0
H1123 H 0.82414 0.23683 0.68794 0.0
H1124 H 0.84523 0.2455 0.63253 0.0
H1125 H 0.85229 0.1916 0.64739 0.0
H1126 H 0.83144 0.18275 0.70315 0.0
H1127 H 0.71266 0.14246 0.73087 0.0
H1128 H 0.74673 0.17447 0.73574 0.0
H1129 H 0.77174 0.14046 0.79148 0.0
H1130 H 0.73742 0.1083 0.78762 0.0
H1131 H 0.79109 0.17351 0.71335 0.0
H1132 H 0.77757 0.16377 0.84573 0.0
H1133 H 0.7537 0.1561 0.89718 0.0
H1134 H 0.74277 0.20576 0.86488 0.0
H1135 H 0.76636 0.21348 0.81293 0.0
C1136 C 0.87632 0.26185 0.75489 0.0
C1137 C 0.87492 0.27952 0.76461 0.0
C1138 C 0.85834 0.24199 0.75405 0.0
C1139 C 0.83858 0.23957 0.76186 0.0
C1140 C 0.83721 0.25739 0.77057 0.0
C1141 C 0.85519 0.2771 0.77225 0.0
C1142 C 0.81935 0.21851 0.76224 0.0
C1143 C 0.80601 0.21295 0.79225 0.0
C1144 C 0.81396 0.20401 0.73349 0.0
C1145 C 0.82643 0.20926 0.69992 0.0
C1146 C 0.83032 0.22691 0.67953 0.0
C1147 C 0.84221 0.23184 0.64804 0.0
C1148 C 0.85015 0.21914 0.63651 0.0
C1149 C 0.84616 0.20144 0.65639 0.0
C1150 C 0.83429 0.19645 0.68792 0.0
C1151 C 0.72534 0.1418 0.74449 0.0
C1152 C 0.72237 0.12289 0.75897 0.0
C1153 C 0.74477 0.16008 0.74716 0.0
C1154 C 0.76163 0.15975 0.76398 0.0
C1155 C 0.7588 0.14097 0.77862 0.0
C1156 C 0.73921 0.12268 0.77649 0.0
C1157 C 0.78221 0.17915 0.76547 0.0
C1158 C 0.79557 0.18441 0.73572 0.0
C1159 C 0.7875 0.19354 0.79404 0.0
C1160 C 0.77348 0.18901 0.8253 0.0
C1161 C 0.76989 0.17289 0.84942 0.0
C1162 C 0.75647 0.16857 0.87871 0.0
C1163 C 0.74667 0.18039 0.88423 0.0
C1164 C 0.75033 0.19659 0.86054 0.0
C1165 C 0.76373 0.20095 0.83119 0.0
H1166 H 0.73628 0.17703 0.90692 0.0
H1167 H 0.85936 0.22299 0.61213 0.0
H1168 H 0.63253 0.73898 0.27179 0.0
H1169 H 0.63567 0.77365 0.27309 0.0
H1170 H 0.56975 0.74555 0.24825 0.0
H1171 H 0.56697 0.71121 0.2448 0.0
H1172 H 0.58855 0.77726 0.20935 0.0
H1173 H 0.59317 0.76598 0.33568 0.0
H1174 H 0.60709 0.75816 0.39035 0.0
H1175 H 0.66746 0.81205 0.37128 0.0
H1176 H 0.65395 0.82005 0.31623 0.0
H1177 H 0.57107 0.85775 0.28472 0.0
H1178 H 0.57349 0.82593 0.27953 0.0
H1179 H 0.63629 0.8622 0.2385 0.0
H1180 H 0.63378 0.89418 0.24256 0.0
H1181 H 0.62254 0.82897 0.30796 0.0
H1182 H 0.61463 0.83932 0.17996 0.0
H1183 H 0.59726 0.84631 0.12933 0.0
H1184 H 0.53867 0.79234 0.15757 0.0
H1185 H 0.55566 0.78523 0.20874 0.0
C1186 C 0.61871 0.74026 0.26704 0.0
C1187 C 0.59951 0.72246 0.25823 0.0
C1188 C 0.62047 0.76007 0.26788 0.0
C1189 C 0.6029 0.76232 0.26106 0.0
C1190 C 0.5836 0.74436 0.25334 0.0
C1191 C 0.58197 0.72469 0.25158 0.0
C1192 C 0.60459 0.78333 0.26054 0.0
C1193 C 0.59591 0.78843 0.23113 0.0
C1194 C 0.61446 0.79823 0.28853 0.0
C1195 C 0.62261 0.79347 0.32163 0.0
C1196 C 0.60945 0.77607 0.34301 0.0
C1197 C 0.61726 0.77162 0.37408 0.0
C1198 C 0.63816 0.78456 0.38422 0.0
C1199 C 0.65128 0.80202 0.36336 0.0
C1200 C 0.64355 0.80653 0.33224 0.0
C1201 C 0.58534 0.85894 0.27427 0.0
C1202 C 0.60223 0.87842 0.26395 0.0
C1203 C 0.58668 0.84078 0.27139 0.0
C1204 C 0.60506 0.84182 0.25875 0.0
C1205 C 0.62198 0.86118 0.2483 0.0
C1206 C 0.62048 0.87935 0.25044 0.0
C1207 C 0.60642 0.82251 0.2571 0.0
C1208 C 0.61552 0.81776 0.28613 0.0
C1209 C 0.59656 0.80773 0.22925 0.0
C1210 C 0.58637 0.8119 0.19838 0.0
C1211 C 0.598 0.82908 0.1756 0.0
C1212 C 0.58824 0.83303 0.14675 0.0
C1213 C 0.56686 0.81981 0.1403 0.0
C1214 C 0.55522 0.80258 0.16263 0.0
C1215 C 0.56491 0.79858 0.19153 0.0
H1216 H 0.55933 0.82289 0.11795 0.0
H1217 H 0.64418 0.78109 0.40828 0.0
H1218 H 0.87276 0.59804 0.69302 0.0
H1219 H 0.84027 0.59908 0.69917 0.0
H1220 H 0.85165 0.61053 0.81314 0.0
H1221 H 0.88465 0.61008 0.80706 0.0
H1222 H 0.80876 0.57533 0.78708 0.0
H1223 H 0.85901 0.64909 0.77328 0.0
H1224 H 0.88809 0.67937 0.74296 0.0
H1225 H 0.85131 0.66515 0.64623 0.0
H1226 H 0.82211 0.63457 0.67582 0.0
H1227 H 0.72652 0.5942 0.82674 0.0
H1228 H 0.76025 0.5958 0.82245 0.0
H1229 H 0.76266 0.6093 0.70884 0.0
H1230 H 0.72922 0.6088 0.71354 0.0
H1231 H 0.79932 0.63205 0.73496 0.0
H1232 H 0.74989 0.55915 0.74373 0.0
H1233 H 0.7204 0.52697 0.7688 0.0
H1234 H 0.75438 0.53653 0.86775 0.0
H1235 H 0.78398 0.56894 0.84344 0.0
C1236 C 0.86839 0.60082 0.71942 0.0
C1237 C 0.88122 0.60395 0.74961 0.0
C1238 C 0.84987 0.60147 0.72282 0.0
C1239 C 0.84366 0.60492 0.75655 0.0
C1240 C 0.85628 0.60787 0.78687 0.0
C1241 C 0.87509 0.60766 0.78336 0.0
C1242 C 0.82372 0.60503 0.75994 0.0
C1243 C 0.8067 0.58787 0.7763 0.0
C1244 C 0.82096 0.62098 0.74442 0.0
C1245 C 0.83846 0.63941 0.72666 0.0
C1246 C 0.8572 0.65229 0.74543 0.0
C1247 C 0.87368 0.66954 0.7284 0.0
C1248 C 0.87157 0.67415 0.69266 0.0
C1249 C 0.85294 0.66155 0.6739 0.0
C1250 C 0.83641 0.64427 0.6908 0.0
C1251 C 0.7342 0.59746 0.80079 0.0
C1252 C 0.72515 0.6012 0.77038 0.0
C1253 C 0.75347 0.59826 0.79832 0.0
C1254 C 0.76386 0.60217 0.76514 0.0
C1255 C 0.75495 0.60616 0.73474 0.0
C1256 C 0.73581 0.60581 0.73739 0.0
C1257 C 0.7841 0.60233 0.76243 0.0
C1258 C 0.80122 0.61949 0.74599 0.0
C1259 C 0.78683 0.58609 0.77716 0.0
C1260 C 0.76907 0.56659 0.79188 0.0
C1261 C 0.75101 0.55448 0.77093 0.0
C1262 C 0.73429 0.53618 0.78499 0.0
C1263 C 0.73549 0.52974 0.81988 0.0
C1264 C 0.75345 0.54156 0.84075 0.0
C1265 C 0.77022 0.55988 0.82683 0.0
H1266 H 0.72253 0.51557 0.83071 0.0
H1267 H 0.88435 0.68751 0.67952 0.0
H1268 H 0.29351 0.85772 0.24223 0.0
H1269 H 0.25966 0.82549 0.24381 0.0
H1270 H 0.22976 0.86089 0.27349 0.0
H1271 H 0.26401 0.89309 0.27419 0.0
H1272 H 0.21111 0.82652 0.30674 0.0
H1273 H 0.22911 0.84247 0.18369 0.0
H1274 H 0.25092 0.8517 0.12912 0.0
H1275 H 0.25227 0.79429 0.13696 0.0
H1276 H 0.2307 0.78484 0.19188 0.0
H1277 H 0.11109 0.73876 0.24526 0.0
H1278 H 0.14297 0.77334 0.24181 0.0
H1279 H 0.18046 0.74549 0.26963 0.0
H1280 H 0.14875 0.71113 0.27434 0.0
H1281 H 0.19253 0.77739 0.20366 0.0
H1282 H 0.17608 0.76523 0.33319 0.0
H1283 H 0.15192 0.75715 0.38427 0.0
H1284 H 0.14468 0.80984 0.35753 0.0
H1285 H 0.16857 0.81802 0.30592 0.0
C1286 C 0.27973 0.85857 0.24948 0.0
C1287 C 0.28131 0.87786 0.2579 0.0
C1288 C 0.26033 0.84017 0.25001 0.0
C1289 C 0.24196 0.84075 0.25757 0.0
C1290 C 0.24363 0.85998 0.26727 0.0
C1291 C 0.26319 0.87837 0.26772 0.0
C1292 C 0.22112 0.8213 0.25508 0.0
C1293 C 0.20702 0.81601 0.28386 0.0
C1294 C 0.21548 0.80746 0.2252 0.0
C1295 C 0.22841 0.81303 0.19208 0.0
C1296 C 0.23416 0.83187 0.17391 0.0
C1297 C 0.24648 0.83713 0.1429 0.0
C1298 C 0.25301 0.82361 0.12963 0.0
C1299 C 0.24721 0.80476 0.14729 0.0
C1300 C 0.23492 0.79943 0.17834 0.0
C1301 C 0.12616 0.74002 0.25024 0.0
C1302 C 0.12749 0.72231 0.26011 0.0
C1303 C 0.14429 0.75973 0.2484 0.0
C1304 C 0.16396 0.76186 0.25561 0.0
C1305 C 0.16538 0.74409 0.26404 0.0
C1306 C 0.14728 0.72452 0.26674 0.0
C1307 C 0.18312 0.78266 0.25552 0.0
C1308 C 0.19675 0.78814 0.22621 0.0
C1309 C 0.18806 0.7969 0.28434 0.0
C1310 C 0.17386 0.79205 0.31547 0.0
C1311 C 0.16915 0.77494 0.33798 0.0
C1312 C 0.15556 0.77038 0.36708 0.0
C1313 C 0.14671 0.78293 0.37407 0.0
C1314 C 0.1515 0.80011 0.35204 0.0
C1315 C 0.16507 0.80471 0.32288 0.0
H1316 H 0.13619 0.77938 0.39662 0.0
H1317 H 0.26255 0.82771 0.10561 0.0
H1318 H 0.37934 0.26669 0.79327 0.0
H1319 H 0.37774 0.23272 0.7964 0.0
H1320 H 0.43153 0.25593 0.72674 0.0
H1321 H 0.43289 0.28957 0.7228 0.0
H1322 H 0.40333 0.21855 0.70558 0.0
H1323 H 0.43491 0.25037 0.81908 0.0
H1324 H 0.43727 0.26727 0.87762 0.0
H1325 H 0.38027 0.21323 0.9118 0.0
H1326 H 0.37744 0.19612 0.85326 0.0
H1327 H 0.43241 0.14309 0.80381 0.0
H1328 H 0.43149 0.17559 0.79966 0.0
H1329 H 0.37681 0.14508 0.73127 0.0
H1330 H 0.37798 0.11248 0.73458 0.0
H1331 H 0.40398 0.18539 0.82144 0.0
H1332 H 0.37603 0.18118 0.67459 0.0
H1333 H 0.37778 0.16633 0.61598 0.0
H1334 H 0.43493 0.16876 0.64838 0.0
H1335 H 0.43365 0.18387 0.70696 0.0
C1336 C 0.3909 0.26457 0.77883 0.0
C1337 C 0.40625 0.28083 0.75783 0.0
C1338 C 0.38998 0.24515 0.78066 0.0
C1339 C 0.40458 0.24177 0.76191 0.0
C1340 C 0.42002 0.25809 0.74126 0.0
C1341 C 0.42084 0.27738 0.7392 0.0
C1342 C 0.40386 0.22127 0.76344 0.0
C1343 C 0.40339 0.21126 0.73094 0.0
C1344 C 0.40416 0.21182 0.79645 0.0
C1345 C 0.40585 0.22206 0.83167 0.0
C1346 C 0.4228 0.24216 0.83899 0.0
C1347 C 0.42423 0.25176 0.87218 0.0
C1348 C 0.4089 0.24136 0.89837 0.0
C1349 C 0.39212 0.22129 0.89146 0.0
C1350 C 0.3906 0.21163 0.85829 0.0
C1351 C 0.42026 0.14329 0.78764 0.0
C1352 C 0.4053 0.12521 0.76943 0.0
C1353 C 0.41969 0.16189 0.78546 0.0
C1354 C 0.40412 0.16285 0.76511 0.0
C1355 C 0.38915 0.14482 0.74676 0.0
C1356 C 0.38982 0.12619 0.74868 0.0
C1357 C 0.40363 0.18276 0.76357 0.0
C1358 C 0.40375 0.19259 0.79607 0.0
C1359 C 0.40356 0.19231 0.73055 0.0
C1360 C 0.4046 0.18342 0.69529 0.0
C1361 C 0.38899 0.1786 0.66914 0.0
C1362 C 0.3899 0.17013 0.63594 0.0
C1363 C 0.40641 0.16653 0.62851 0.0
C1364 C 0.4221 0.17147 0.65422 0.0
C1365 C 0.42128 0.17996 0.68744 0.0
H1366 H 0.40708 0.15996 0.60281 0.0
H1367 H 0.41004 0.24882 0.92405 0.0
loop_
_geom_bond_atom_site_label_1
_geom_bond_atom_site_label_2
_geom_bond_distance
_geom_bond_site_symmetry_2
_ccdc_geom_bond_type
O0 Cd1 2.223 . S
O0 C8 1.315 . S
Cd1 O0 2.223 . S
Cd1 O4 2.297 . S
Cd1 O5 2.439 . S
Cd1 O11 2.240 . S
Cd2 O3 2.240 . S
Cd2 O10 2.223 . S
Cd2 O12 2.297 . S
Cd2 O13 2.439 . S
O3 Cd2 2.240 . S
O3 C8 1.279 . S
O4 Cd1 2.297 . S
O4 C6 1.247 . S
O5 Cd1 2.439 . S
O5 C6 1.208 . S
C6 O4 1.247 . S
C6 O5 1.208 . S
C7 O12 1.247 . S
C7 O13 1.208 . S
C8 O0 1.315 . S
C8 O3 1.279 . S
C9 O10 1.315 . S
C9 O11 1.279 . S
O10 Cd2 2.223 . S
O10 C9 1.315 . S
O11 Cd1 2.240 . S
O11 C9 1.279 . S
O12 Cd2 2.297 . S
O12 C7 1.247 . S
O13 Cd2 2.439 . S
O13 C7 1.208 . S
O14 Cd15 2.223 . S
O14 C22 1.315 . S
Cd15 O14 2.223 . S
Cd15 O18 2.297 . S
Cd15 O19 2.439 . S
Cd15 O25 2.240 . S
Cd16 O17 2.240 . S
Cd16 O24 2.223 . S
Cd16 O26 2.297 . S
Cd16 O27 2.439 . S
O17 Cd16 2.240 . S
O17 C22 1.279 . S
O18 Cd15 2.297 . S
O18 C20 1.247 . S
O19 Cd15 2.439 . S
O19 C20 1.208 . S
C20 O18 1.247 . S
C20 O19 1.208 . S
C21 O26 1.247 . S
C21 O27 1.208 . S
C22 O14 1.315 . S
C22 O17 1.279 . S
C23 O24 1.315 . S
C23 O25 1.279 . S
O24 Cd16 2.223 . S
O24 C23 1.315 . S
O25 Cd15 2.240 . S
O25 C23 1.279 . S
O26 Cd16 2.297 . S
O26 C21 1.247 . S
O27 Cd16 2.439 . S
O27 C21 1.208 . S
O28 Cd29 2.223 . S
O28 C36 1.315 . S
Cd29 O28 2.223 . S
Cd29 O32 2.297 . S
Cd29 O33 2.439 . S
Cd29 O39 2.240 . S
Cd30 O31 2.240 . S
Cd30 O38 2.223 . S
Cd30 O40 2.297 . S
Cd30 O41 2.439 . S
O31 Cd30 2.240 . S
O31 C36 1.279 . S
O32 Cd29 2.297 . S
O32 C34 1.247 . S
O33 Cd29 2.439 . S
O33 C34 1.208 . S
C34 O32 1.247 . S
C34 O33 1.208 . S
C35 O40 1.247 . S
C35 O41 1.208 . S
C36 O28 1.315 . S
C36 O31 1.279 . S
C37 O38 1.315 . S
C37 O39 1.279 . S
O38 Cd30 2.223 . S
O38 C37 1.315 . S
O39 Cd29 2.240 . S
O39 C37 1.279 . S
O40 Cd30 2.297 . S
O40 C35 1.247 . S
O41 Cd30 2.439 . S
O41 C35 1.208 . S
O42 Cd43 2.223 . S
O42 C50 1.315 . S
Cd43 O42 2.223 . S
Cd43 O46 2.297 . S
Cd43 O47 2.439 . S
Cd43 O53 2.240 . S
Cd44 O45 2.240 . S
Cd44 O52 2.223 . S
Cd44 O54 2.297 . S
Cd44 O55 2.439 . S
O45 Cd44 2.240 . S
O45 C50 1.279 . S
O46 Cd43 2.297 . S
O46 C48 1.247 . S
O47 Cd43 2.439 . S
O47 C48 1.208 . S
C48 O46 1.247 . S
C48 O47 1.208 . S
C49 O54 1.247 . S
C49 O55 1.208 . S
C50 O42 1.315 . S
C50 O45 1.279 . S
C51 O52 1.315 . S
C51 O53 1.279 . S
O52 Cd44 2.223 . S
O52 C51 1.315 . S
O53 Cd43 2.240 . S
O53 C51 1.279 . S
O54 Cd44 2.297 . S
O54 C49 1.247 . S
O55 Cd44 2.439 . S
O55 C49 1.208 . S
O56 Cd57 2.223 . S
O56 C64 1.315 . S
Cd57 O56 2.223 . S
Cd57 O60 2.297 . S
Cd57 O61 2.439 . S
Cd57 O67 2.240 . S
Cd58 O59 2.240 . S
Cd58 O66 2.223 . S
Cd58 O68 2.297 . S
Cd58 O69 2.439 . S
O59 Cd58 2.240 . S
O59 C64 1.279 . S
O60 Cd57 2.297 . S
O60 C62 1.247 . S
O61 Cd57 2.439 . S
O61 C62 1.208 . S
C62 O60 1.247 . S
C62 O61 1.208 . S
C63 O68 1.247 . S
C63 O69 1.208 . S
C64 O56 1.315 . S
C64 O59 1.279 . S
C65 O66 1.315 . S
C65 O67 1.279 . S
O66 Cd58 2.223 . S
O66 C65 1.315 . S
O67 Cd57 2.240 . S
O67 C65 1.279 . S
O68 Cd58 2.297 . S
O68 C63 1.247 . S
O69 Cd58 2.439 . S
O69 C63 1.208 . S
O70 Cd71 2.223 . S
O70 C78 1.315 . S
Cd71 O70 2.223 . S
Cd71 O74 2.297 . S
Cd71 O75 2.439 . S
Cd71 O81 2.240 . S
Cd72 O73 2.240 . S
Cd72 O80 2.223 . S
Cd72 O82 2.297 . S
Cd72 O83 2.439 . S
O73 Cd72 2.240 . S
O73 C78 1.279 . S
O74 Cd71 2.297 . S
O74 C76 1.247 . S
O75 Cd71 2.439 . S
O75 C76 1.208 . S
C76 O74 1.247 . S
C76 O75 1.208 . S
C77 O82 1.247 . S
C77 O83 1.208 . S
C78 O70 1.315 . S
C78 O73 1.279 . S
C79 O80 1.315 . S
C79 O81 1.279 . S
O80 Cd72 2.223 . S
O80 C79 1.315 . S
O81 Cd71 2.240 . S
O81 C79 1.279 . S
O82 Cd72 2.297 . S
O82 C77 1.247 . S
O83 Cd72 2.439 . S
O83 C77 1.208 . S
O84 Cd85 2.223 . S
O84 C92 1.315 . S
Cd85 O84 2.223 . S
Cd85 O88 2.297 . S
Cd85 O89 2.439 . S
Cd85 O95 2.240 . S
Cd86 O87 2.240 . S
Cd86 O94 2.223 . S
Cd86 O96 2.297 . S
Cd86 O97 2.439 . S
O87 Cd86 2.240 . S
O87 C92 1.279 . S
O88 Cd85 2.297 . S
O88 C90 1.247 . S
O89 Cd85 2.439 . S
O89 C90 1.208 . S
C90 O88 1.247 . S
C90 O89 1.208 . S
C91 O96 1.247 . S
C91 O97 1.208 . S
C92 O84 1.315 . S
C92 O87 1.279 . S
C93 O94 1.315 . S
C93 O95 1.279 . S
O94 Cd86 2.223 . S
O94 C93 1.315 . S
O95 Cd85 2.240 . S
O95 C93 1.279 . S
O96 Cd86 2.297 . S
O96 C91 1.247 . S
O97 Cd86 2.439 . S
O97 C91 1.208 . S
O98 Cd99 2.223 . S
O98 C106 1.315 . S
Cd99 O98 2.223 . S
Cd99 O102 2.297 . S
Cd99 O103 2.439 . S
Cd99 O109 2.240 . S
Cd100 O101 2.240 . S
Cd100 O108 2.223 . S
Cd100 O110 2.297 . S
Cd100 O111 2.439 . S
O101 Cd100 2.240 . S
O101 C106 1.279 . S
O102 Cd99 2.297 . S
O102 C104 1.247 . S
O103 Cd99 2.439 . S
O103 C104 1.208 . S
C104 O102 1.247 . S
C104 O103 1.208 . S
C105 O110 1.247 . S
C105 O111 1.208 . S
C106 O98 1.315 . S
C106 O101 1.279 . S
C107 O108 1.315 . S
C107 O109 1.279 . S
O108 Cd100 2.223 . S
O108 C107 1.315 . S
O109 Cd99 2.240 . S
O109 C107 1.279 . S
O110 Cd100 2.297 . S
O110 C105 1.247 . S
O111 Cd100 2.439 . S
O111 C105 1.208 . S
O112 Cd113 2.223 . S
O112 C120 1.315 . S
Cd113 O112 2.223 . S
Cd113 O116 2.297 . S
Cd113 O117 2.439 . S
Cd113 O123 2.240 . S
Cd114 O115 2.240 . S
Cd114 O122 2.223 . S
Cd114 O124 2.297 . S
Cd114 O125 2.439 . S
O115 Cd114 2.240 . S
O115 C120 1.279 . S
O116 Cd113 2.297 . S
O116 C118 1.247 . S
O117 Cd113 2.439 . S
O117 C118 1.208 . S
C118 O116 1.247 . S
C118 O117 1.208 . S
C119 O124 1.247 . S
C119 O125 1.208 . S
C120 O112 1.315 . S
C120 O115 1.279 . S
C121 O122 1.315 . S
C121 O123 1.279 . S
O122 Cd114 2.223 . S
O122 C121 1.315 . S
O123 Cd113 2.240 . S
O123 C121 1.279 . S
O124 Cd114 2.297 . S
O124 C119 1.247 . S
O125 Cd114 2.439 . S
O125 C119 1.208 . S
O126 Cd127 2.223 . S
O126 C134 1.315 . S
Cd127 O126 2.223 . S
Cd127 O130 2.297 . S
Cd127 O131 2.439 . S
Cd127 O137 2.240 . S
Cd128 O129 2.240 . S
Cd128 O136 2.223 . S
Cd128 O138 2.297 . S
Cd128 O139 2.439 . S
O129 Cd128 2.240 . S
O129 C134 1.279 . S
O130 Cd127 2.297 . S
O130 C132 1.247 . S
O131 Cd127 2.439 . S
O131 C132 1.208 . S
C132 O130 1.247 . S
C132 O131 1.208 . S
C133 O138 1.247 . S
C133 O139 1.208 . S
C134 O126 1.315 . S
C134 O129 1.279 . S
C135 O136 1.315 . S
C135 O137 1.279 . S
O136 Cd128 2.223 . S
O136 C135 1.315 . S
O137 Cd127 2.240 . S
O137 C135 1.279 . S
O138 Cd128 2.297 . S
O138 C133 1.247 . S
O139 Cd128 2.439 . S
O139 C133 1.208 . S
O140 Cd141 2.223 . S
O140 C148 1.315 . S
Cd141 O140 2.223 . S
Cd141 O144 2.297 . S
Cd141 O145 2.439 . S
Cd141 O151 2.240 . S
Cd142 O143 2.240 . S
Cd142 O150 2.223 . S
Cd142 O152 2.297 . S
Cd142 O153 2.439 . S
O143 Cd142 2.240 . S
O143 C148 1.279 . S
O144 Cd141 2.297 . S
O144 C146 1.247 . S
O145 Cd141 2.439 . S
O145 C146 1.208 . S
C146 O144 1.247 . S
C146 O145 1.208 . S
C147 O152 1.247 . S
C147 O153 1.208 . S
C148 O140 1.315 . S
C148 O143 1.279 . S
C149 O150 1.315 . S
C149 O151 1.279 . S
O150 Cd142 2.223 . S
O150 C149 1.315 . S
O151 Cd141 2.240 . S
O151 C149 1.279 . S
O152 Cd142 2.297 . S
O152 C147 1.247 . S
O153 Cd142 2.439 . S
O153 C147 1.208 . S
O154 Cd155 2.223 . S
O154 C162 1.315 . S
Cd155 O154 2.223 . S
Cd155 O158 2.297 . S
Cd155 O159 2.439 . S
Cd155 O165 2.240 . S
Cd156 O157 2.240 . S
Cd156 O164 2.223 . S
Cd156 O166 2.297 . S
Cd156 O167 2.439 . S
O157 Cd156 2.240 . S
O157 C162 1.279 . S
O158 Cd155 2.297 . S
O158 C160 1.247 . S
O159 Cd155 2.439 . S
O159 C160 1.208 . S
C160 O158 1.247 . S
C160 O159 1.208 . S
C161 O166 1.247 . S
C161 O167 1.208 . S
C162 O154 1.315 . S
C162 O157 1.279 . S
C163 O164 1.315 . S
C163 O165 1.279 . S
O164 Cd156 2.223 . S
O164 C163 1.315 . S
O165 Cd155 2.240 . S
O165 C163 1.279 . S
O166 Cd156 2.297 . S
O166 C161 1.247 . S
O167 Cd156 2.439 . S
O167 C161 1.208 . S
H168 C186 0.951 . S
H169 C188 0.951 . S
H170 C190 0.950 . S
H171 C191 0.950 . S
H172 C193 0.950 . S
H173 C196 0.950 . S
H174 C197 0.950 . S
H175 C199 0.950 . S
H176 C200 0.950 1_556 S
H177 C201 0.951 . S
H178 C203 0.951 . S
H179 C205 0.950 . S
H180 C206 0.950 . S
H181 C208 0.950 . S
H182 C211 0.950 . S
H183 C212 0.950 . S
H184 C214 0.950 . S
H185 C215 0.950 1_554 S
C186 H168 0.951 . S
C186 C187 1.366 . S
C186 C188 1.388 . S
C187 C186 1.366 . S
C187 C191 1.385 . S
C188 H169 0.951 . S
C188 C186 1.388 . S
C188 C189 1.366 . S
C189 C188 1.366 . S
C189 C190 1.414 . S
C189 C192 1.499 . S
C190 H170 0.950 . S
C190 C189 1.414 . S
C190 C191 1.374 . S
C191 H171 0.950 . S
C191 C187 1.385 . S
C191 C190 1.374 . S
C192 C189 1.499 . S
C192 C193 1.373 1_455 S
C192 C194 1.389 . S
C193 H172 0.950 . S
C193 C192 1.373 1_655 S
C193 C209 1.377 1_554 S
C194 C192 1.389 . S
C194 C195 1.524 . S
C194 C208 1.377 1_554 S
C195 C194 1.524 . S
C195 C196 1.397 . S
C195 C200 1.363 . S
C196 H173 0.950 . S
C196 C195 1.397 . S
C196 C197 1.334 . S
C197 H174 0.950 . S
C197 C196 1.334 . S
C197 C198 1.287 . S
C198 C197 1.287 . S
C198 C199 1.524 . S
C198 H217 0.913 . S
C199 H175 0.950 . S
C199 C198 1.524 . S
C199 C200 1.415 . S
C200 H176 0.950 1_554 S
C200 C195 1.363 . S
C200 C199 1.415 . S
C201 H177 0.951 . S
C201 C202 1.366 . S
C201 C203 1.388 . S
C202 C201 1.366 . S
C202 C206 1.385 . S
C203 H178 0.951 . S
C203 C201 1.388 . S
C203 C204 1.366 . S
C204 C203 1.366 . S
C204 C205 1.414 . S
C204 C207 1.499 . S
C205 H179 0.950 . S
C205 C204 1.414 . S
C205 C206 1.374 . S
C206 H180 0.950 . S
C206 C202 1.385 . S
C206 C205 1.374 . S
C207 C204 1.499 . S
C207 C208 1.373 1_655 S
C207 C209 1.389 . S
C208 H181 0.950 . S
C208 C194 1.377 1_556 S
C208 C207 1.373 1_455 S
C209 C193 1.377 1_556 S
C209 C207 1.389 . S
C209 C210 1.524 . S
C210 C209 1.524 . S
C210 C211 1.397 . S
C210 C215 1.363 . S
C211 H182 0.950 . S
C211 C210 1.397 . S
C211 C212 1.334 . S
C212 H183 0.950 . S
C212 C211 1.334 . S
C212 C213 1.287 . S
C213 C212 1.287 . S
C213 C214 1.524 . S
C213 H216 0.999 . S
C214 H184 0.950 . S
C214 C213 1.524 . S
C214 C215 1.415 . S
C215 H185 0.950 1_556 S
C215 C210 1.363 . S
C215 C214 1.415 . S
H216 C213 0.999 . S
H217 C198 0.913 . S
H218 C236 0.951 . S
H219 C238 0.951 . S
H220 C240 0.950 . S
H221 C241 0.950 . S
H222 C243 0.950 . S
H223 C246 0.950 . S
H224 C247 0.950 . S
H225 C249 0.950 . S
H226 C250 0.950 . S
H227 C251 0.951 . S
H228 C253 0.951 . S
H229 C255 0.950 . S
H230 C256 0.950 . S
H231 C258 0.950 . S
H232 C261 0.950 . S
H233 C262 0.950 . S
H234 C264 0.950 . S
H235 C265 0.950 . S
C236 H218 0.951 . S
C236 C237 1.366 . S
C236 C238 1.388 . S
C237 C236 1.366 . S
C237 C241 1.385 . S
C238 H219 0.951 . S
C238 C236 1.388 . S
C238 C239 1.366 . S
C239 C238 1.366 . S
C239 C240 1.414 . S
C239 C242 1.499 . S
C240 H220 0.950 . S
C240 C239 1.414 . S
C240 C241 1.374 . S
C241 H221 0.950 . S
C241 C237 1.385 . S
C241 C240 1.374 . S
C242 C239 1.499 . S
C242 C243 1.373 1_565 S
C242 C244 1.389 . S
C243 H222 0.950 . S
C243 C242 1.373 1_545 S
C243 C259 1.377 . S
C244 C242 1.389 . S
C244 C245 1.524 . S
C244 C258 1.377 . S
C245 C244 1.524 . S
C245 C246 1.397 . S
C245 C250 1.363 . S
C246 H223 0.950 . S
C246 C245 1.397 . S
C246 C247 1.334 . S
C247 H224 0.950 . S
C247 C246 1.334 . S
C247 C248 1.287 . S
C248 C247 1.287 . S
C248 C249 1.524 . S
C248 H267 0.913 . S
C249 H225 0.950 . S
C249 C248 1.524 . S
C249 C250 1.415 . S
C250 H226 0.950 . S
C250 C245 1.363 . S
C250 C249 1.415 . S
C251 H227 0.951 . S
C251 C252 1.366 . S
C251 C253 1.388 . S
C252 C251 1.366 . S
C252 C256 1.385 . S
C253 H228 0.951 . S
C253 C251 1.388 . S
C253 C254 1.366 . S
C254 C253 1.366 . S
C254 C255 1.414 . S
C254 C257 1.499 . S
C255 H229 0.950 . S
C255 C254 1.414 . S
C255 C256 1.374 . S
C256 H230 0.950 . S
C256 C252 1.385 . S
C256 C255 1.374 . S
C257 C254 1.499 . S
C257 C258 1.373 1_545 S
C257 C259 1.389 . S
C258 H231 0.950 . S
C258 C244 1.377 . S
C258 C257 1.373 1_565 S
C259 C243 1.377 . S
C259 C257 1.389 . S
C259 C260 1.524 . S
C260 C259 1.524 . S
C260 C261 1.397 . S
C260 C265 1.363 . S
C261 H232 0.950 . S
C261 C260 1.397 . S
C261 C262 1.334 . S
C262 H233 0.950 . S
C262 C261 1.334 . S
C262 C263 1.287 . S
C263 C262 1.287 . S
C263 C264 1.524 . S
C263 H266 0.999 . S
C264 H234 0.950 . S
C264 C263 1.524 . S
C264 C265 1.415 . S
C265 H235 0.950 . S
C265 C260 1.363 . S
C265 C264 1.415 . S
H266 C263 0.999 . S
H267 C248 0.913 . S
H268 C286 0.951 . S
H269 C288 0.951 . S
H270 C290 0.950 . S
H271 C291 0.950 . S
H272 C293 0.950 . S
H273 C296 0.950 . S
H274 C297 0.950 . S
H275 C299 0.950 . S
H276 C300 0.950 . S
H277 C301 0.951 . S
H278 C303 0.951 . S
H279 C305 0.950 . S
H280 C306 0.950 . S
H281 C308 0.950 . S
H282 C311 0.950 . S
H283 C312 0.950 . S
H284 C314 0.950 . S
H285 C315 0.950 . S
C286 H268 0.951 . S
C286 C287 1.366 . S
C286 C288 1.388 . S
C287 C286 1.366 . S
C287 C291 1.385 . S
C288 H269 0.951 . S
C288 C286 1.388 . S
C288 C289 1.366 . S
C289 C288 1.366 . S
C289 C290 1.414 . S
C289 C292 1.499 . S
C290 H270 0.950 . S
C290 C289 1.414 . S
C290 C291 1.374 . S
C291 H271 0.950 . S
C291 C287 1.385 . S
C291 C290 1.374 . S
C292 C289 1.499 . S
C292 C293 1.373 . S
C292 C294 1.389 . S
C293 H272 0.950 . S
C293 C292 1.373 . S
C293 C309 1.377 1_554 S
C294 C292 1.389 . S
C294 C295 1.524 . S
C294 C308 1.377 1_554 S
C295 C294 1.524 . S
C295 C296 1.397 . S
C295 C300 1.363 . S
C296 H273 0.950 . S
C296 C295 1.397 . S
C296 C297 1.334 . S
C297 H274 0.950 . S
C297 C296 1.334 . S
C297 C298 1.287 . S
C298 C297 1.287 . S
C298 C299 1.524 . S
C298 H317 0.913 . S
C299 H275 0.950 . S
C299 C298 1.524 . S
C299 C300 1.415 . S
C300 H276 0.950 . S
C300 C295 1.363 . S
C300 C299 1.415 . S
C301 H277 0.951 . S
C301 C302 1.366 . S
C301 C303 1.388 . S
C302 C301 1.366 . S
C302 C306 1.385 . S
C303 H278 0.951 . S
C303 C301 1.388 . S
C303 C304 1.366 . S
C304 C303 1.366 . S
C304 C305 1.414 . S
C304 C307 1.499 . S
C305 H279 0.950 . S
C305 C304 1.414 . S
C305 C306 1.374 . S
C306 H280 0.950 . S
C306 C302 1.385 . S
C306 C305 1.374 . S
C307 C304 1.499 . S
C307 C308 1.373 . S
C307 C309 1.389 . S
C308 H281 0.950 . S
C308 C294 1.377 1_556 S
C308 C307 1.373 . S
C309 C293 1.377 1_556 S
C309 C307 1.389 . S
C309 C310 1.524 . S
C310 C309 1.524 . S
C310 C311 1.397 . S
C310 C315 1.363 . S
C311 H282 0.950 . S
C311 C310 1.397 . S
C311 C312 1.334 . S
C312 H283 0.950 . S
C312 C311 1.334 . S
C312 C313 1.287 . S
C313 C312 1.287 . S
C313 C314 1.524 . S
C313 H316 0.999 . S
C314 H284 0.950 . S
C314 C313 1.524 . S
C314 C315 1.415 . S
C315 H285 0.950 . S
C315 C310 1.363 . S
C315 C314 1.415 . S
H316 C313 0.999 . S
H317 C298 0.913 . S
H318 C336 0.951 . S
H319 C338 0.951 . S
H320 C340 0.950 . S
H321 C341 0.950 . S
H322 C343 0.950 . S
H323 C346 0.950 . S
H324 C347 0.950 . S
H325 C349 0.950 . S
H326 C350 0.950 . S
H327 C351 0.951 . S
H328 C353 0.951 . S
H329 C355 0.950 . S
H330 C356 0.950 . S
H331 C358 0.950 . S
H332 C361 0.950 . S
H333 C362 0.950 . S
H334 C364 0.950 . S
H335 C365 0.950 . S
C336 H318 0.951 . S
C336 C337 1.366 . S
C336 C338 1.388 . S
C337 C336 1.366 . S
C337 C341 1.385 . S
C338 H319 0.951 . S
C338 C336 1.388 . S
C338 C339 1.366 . S
C339 C338 1.366 . S
C339 C340 1.414 . S
C339 C342 1.499 . S
C340 H320 0.950 . S
C340 C339 1.414 . S
C340 C341 1.374 . S
C341 H321 0.950 . S
C341 C337 1.385 . S
C341 C340 1.374 . S
C342 C339 1.499 . S
C342 C343 1.373 1_455 S
C342 C344 1.389 . S
C343 H322 0.950 . S
C343 C342 1.373 1_655 S
C343 C359 1.377 . S
C344 C342 1.389 . S
C344 C345 1.524 . S
C344 C358 1.377 . S
C345 C344 1.524 . S
C345 C346 1.397 . S
C345 C350 1.363 . S
C346 H323 0.950 . S
C346 C345 1.397 . S
C346 C347 1.334 . S
C347 H324 0.950 . S
C347 C346 1.334 . S
C347 C348 1.287 . S
C348 C347 1.287 . S
C348 C349 1.524 . S
C348 H367 0.913 . S
C349 H325 0.950 . S
C349 C348 1.524 . S
C349 C350 1.415 . S
C350 H326 0.950 . S
C350 C345 1.363 . S
C350 C349 1.415 . S
C351 H327 0.951 . S
C351 C352 1.366 . S
C351 C353 1.388 . S
C352 C351 1.366 . S
C352 C356 1.385 . S
C353 H328 0.951 . S
C353 C351 1.388 . S
C353 C354 1.366 . S
C354 C353 1.366 . S
C354 C355 1.414 . S
C354 C357 1.499 . S
C355 H329 0.950 . S
C355 C354 1.414 . S
C355 C356 1.374 . S
C356 H330 0.950 . S
C356 C352 1.385 . S
C356 C355 1.374 . S
C357 C354 1.499 . S
C357 C358 1.373 1_655 S
C357 C359 1.389 . S
C358 H331 0.950 . S
C358 C344 1.377 . S
C358 C357 1.373 1_455 S
C359 C343 1.377 . S
C359 C357 1.389 . S
C359 C360 1.524 . S
C360 C359 1.524 . S
C360 C361 1.397 . S
C360 C365 1.363 . S
C361 H332 0.950 . S
C361 C360 1.397 . S
C361 C362 1.334 . S
C362 H333 0.950 . S
C362 C361 1.334 . S
C362 C363 1.287 . S
C363 C362 1.287 . S
C363 C364 1.524 . S
C363 H366 0.999 . S
C364 H334 0.950 . S
C364 C363 1.524 . S
C364 C365 1.415 . S
C365 H335 0.950 . S
C365 C360 1.363 . S
C365 C364 1.415 . S
H366 C363 0.999 . S
H367 C348 0.913 . S
H368 C386 0.951 . S
H369 C388 0.951 1_565 S
H370 C390 0.950 . S
H371 C391 0.950 . S
H372 C393 0.950 . S
H373 C396 0.950 . S
H374 C397 0.950 . S
H375 C399 0.950 1_565 S
H376 C400 0.950 . S
H377 C401 0.951 . S
H378 C403 0.951 1_545 S
H379 C405 0.950 . S
H380 C406 0.950 . S
H381 C408 0.950 . S
H382 C411 0.950 . S
H383 C412 0.950 . S
H384 C414 0.950 1_545 S
H385 C415 0.950 . S
C386 H368 0.951 . S
C386 C387 1.366 . S
C386 C388 1.388 . S
C387 C386 1.366 . S
C387 C391 1.385 . S
C388 H369 0.951 1_545 S
C388 C386 1.388 . S
C388 C389 1.366 . S
C389 C388 1.366 . S
C389 C390 1.414 . S
C389 C392 1.499 . S
C390 H370 0.950 . S
C390 C389 1.414 . S
C390 C391 1.374 . S
C391 H371 0.950 . S
C391 C387 1.385 . S
C391 C390 1.374 . S
C392 C389 1.499 . S
C392 C393 1.373 . S
C392 C394 1.389 . S
C393 H372 0.950 . S
C393 C392 1.373 . S
C393 C409 1.377 1_546 S
C394 C392 1.389 . S
C394 C395 1.524 . S
C394 C408 1.377 1_546 S
C395 C394 1.524 . S
C395 C396 1.397 . S
C395 C400 1.363 1_545 S
C396 H373 0.950 . S
C396 C395 1.397 . S
C396 C397 1.334 . S
C397 H374 0.950 . S
C397 C396 1.334 . S
C397 C398 1.287 . S
C398 C397 1.287 . S
C398 C399 1.524 . S
C398 H417 0.913 . S
C399 H375 0.950 1_545 S
C399 C398 1.524 . S
C399 C400 1.415 1_545 S
C400 H376 0.950 . S
C400 C395 1.363 1_565 S
C400 C399 1.415 1_565 S
C401 H377 0.951 . S
C401 C402 1.366 . S
C401 C403 1.388 . S
C402 C401 1.366 . S
C402 C406 1.385 . S
C403 H378 0.951 1_565 S
C403 C401 1.388 . S
C403 C404 1.366 . S
C404 C403 1.366 . S
C404 C405 1.414 . S
C404 C407 1.499 . S
C405 H379 0.950 . S
C405 C404 1.414 . S
C405 C406 1.374 . S
C406 H380 0.950 . S
C406 C402 1.385 . S
C406 C405 1.374 . S
C407 C404 1.499 . S
C407 C408 1.373 . S
C407 C409 1.389 . S
C408 H381 0.950 . S
C408 C394 1.377 1_564 S
C408 C407 1.373 . S
C409 C393 1.377 1_564 S
C409 C407 1.389 . S
C409 C410 1.524 . S
C410 C409 1.524 . S
C410 C411 1.397 . S
C410 C415 1.363 1_565 S
C411 H382 0.950 . S
C411 C410 1.397 . S
C411 C412 1.334 . S
C412 H383 0.950 . S
C412 C411 1.334 . S
C412 C413 1.287 . S
C413 C412 1.287 . S
C413 C414 1.524 . S
C413 H416 0.999 . S
C414 H384 0.950 1_565 S
C414 C413 1.524 . S
C414 C415 1.415 1_565 S
C415 H385 0.950 . S
C415 C410 1.363 1_545 S
C415 C414 1.415 1_545 S
H416 C413 0.999 . S
H417 C398 0.913 . S
H418 C436 0.951 . S
H419 C438 0.951 . S
H420 C440 0.950 . S
H421 C441 0.950 . S
H422 C443 0.950 . S
H423 C446 0.950 . S
H424 C447 0.950 . S
H425 C449 0.950 . S
H426 C450 0.950 . S
H427 C451 0.951 . S
H428 C453 0.951 . S
H429 C455 0.950 . S
H430 C456 0.950 . S
H431 C458 0.950 . S
H432 C461 0.950 . S
H433 C462 0.950 . S
H434 C464 0.950 . S
H435 C465 0.950 . S
C436 H418 0.951 . S
C436 C437 1.366 . S
C436 C438 1.388 . S
C437 C436 1.366 . S
C437 C441 1.385 . S
C438 H419 0.951 . S
C438 C436 1.388 . S
C438 C439 1.366 . S
C439 C438 1.366 . S
C439 C440 1.414 . S
C439 C442 1.499 . S
C440 H420 0.950 . S
C440 C439 1.414 . S
C440 C441 1.374 . S
C441 H421 0.950 . S
C441 C437 1.385 . S
C441 C440 1.374 . S
C442 C439 1.499 . S
C442 C443 1.373 . S
C442 C444 1.389 . S
C443 H422 0.950 . S
C443 C442 1.373 . S
C443 C459 1.377 . S
C444 C442 1.389 . S
C444 C445 1.524 . S
C444 C458 1.377 . S
C445 C444 1.524 . S
C445 C446 1.397 . S
C445 C450 1.363 . S
C446 H423 0.950 . S
C446 C445 1.397 . S
C446 C447 1.334 . S
C447 H424 0.950 . S
C447 C446 1.334 . S
C447 C448 1.287 . S
C448 C447 1.287 . S
C448 C449 1.524 . S
C448 H467 0.913 . S
C449 H425 0.950 . S
C449 C448 1.524 . S
C449 C450 1.415 . S
C450 H426 0.950 . S
C450 C445 1.363 . S
C450 C449 1.415 . S
C451 H427 0.951 . S
C451 C452 1.366 . S
C451 C453 1.388 . S
C452 C451 1.366 . S
C452 C456 1.385 . S
C453 H428 0.951 . S
C453 C451 1.388 . S
C453 C454 1.366 . S
C454 C453 1.366 . S
C454 C455 1.414 . S
C454 C457 1.499 . S
C455 H429 0.950 . S
C455 C454 1.414 . S
C455 C456 1.374 . S
C456 H430 0.950 . S
C456 C452 1.385 . S
C456 C455 1.374 . S
C457 C454 1.499 . S
C457 C458 1.373 . S
C457 C459 1.389 . S
C458 H431 0.950 . S
C458 C444 1.377 . S
C458 C457 1.373 . S
C459 C443 1.377 . S
C459 C457 1.389 . S
C459 C460 1.524 . S
C460 C459 1.524 . S
C460 C461 1.397 . S
C460 C465 1.363 . S
C461 H432 0.950 . S
C461 C460 1.397 . S
C461 C462 1.334 . S
C462 H433 0.950 . S
C462 C461 1.334 . S
C462 C463 1.287 . S
C463 C462 1.287 . S
C463 C464 1.524 . S
C463 H466 0.999 . S
C464 H434 0.950 . S
C464 C463 1.524 . S
C464 C465 1.415 . S
C465 H435 0.950 . S
C465 C460 1.363 . S
C465 C464 1.415 . S
H466 C463 0.999 . S
H467 C448 0.913 . S
H468 C486 0.951 . S
H469 C488 0.951 . S
H470 C490 0.950 . S
H471 C491 0.950 1_455 S
H472 C493 0.950 . S
H473 C496 0.950 1_455 S
H474 C497 0.961 . S
H475 C499 0.950 . S
H476 C500 0.950 1_554 S
H477 C501 0.951 . S
H478 C503 0.951 . S
H479 C505 0.950 . S
H480 C506 0.950 1_655 S
H481 C508 0.950 . S
H482 C511 0.950 1_655 S
H483 C512 0.961 . S
H484 C514 0.950 . S
H485 C515 0.950 1_556 S
C486 H468 0.951 . S
C486 C487 1.366 . S
C486 C488 1.388 . S
C487 C486 1.366 . S
C487 C491 1.385 . S
C488 H469 0.951 . S
C488 C486 1.388 . S
C488 C489 1.366 . S
C489 C488 1.366 . S
C489 C490 1.414 1_655 S
C489 C492 1.499 . S
C490 H470 0.950 . S
C490 C489 1.414 1_455 S
C490 C491 1.374 1_455 S
C491 H471 0.950 1_655 S
C491 C487 1.385 . S
C491 C490 1.374 1_655 S
C492 C489 1.499 . S
C492 C493 1.373 1_655 S
C492 C494 1.389 . S
C493 H472 0.950 . S
C493 C492 1.373 1_455 S
C493 C509 1.377 1_556 S
C494 C492 1.389 . S
C494 C495 1.524 . S
C494 C508 1.377 1_556 S
C495 C494 1.524 . S
C495 C496 1.397 . S
C495 C500 1.363 . S
C496 H473 0.950 1_655 S
C496 C495 1.397 . S
C496 C497 1.334 . S
C497 H474 0.961 . S
C497 C496 1.334 . S
C497 C498 1.287 . S
C498 C497 1.287 . S
C498 C499 1.524 . S
C498 H517 0.913 . S
C499 H475 0.950 . S
C499 C498 1.524 . S
C499 C500 1.415 . S
C500 H476 0.950 1_556 S
C500 C495 1.363 . S
C500 C499 1.415 . S
C501 H477 0.951 . S
C501 C502 1.366 . S
C501 C503 1.388 . S
C502 C501 1.366 . S
C502 C506 1.385 . S
C503 H478 0.951 . S
C503 C501 1.388 . S
C503 C504 1.366 . S
C504 C503 1.366 . S
C504 C505 1.414 1_455 S
C504 C507 1.499 . S
C505 H479 0.950 . S
C505 C504 1.414 1_655 S
C505 C506 1.374 1_655 S
C506 H480 0.950 1_455 S
C506 C502 1.385 . S
C506 C505 1.374 1_455 S
C507 C504 1.499 . S
C507 C508 1.373 1_455 S
C507 C509 1.389 . S
C508 H481 0.950 . S
C508 C494 1.377 1_554 S
C508 C507 1.373 1_655 S
C509 C493 1.377 1_554 S
C509 C507 1.389 . S
C509 C510 1.524 . S
C510 C509 1.524 . S
C510 C511 1.397 . S
C510 C515 1.363 . S
C511 H482 0.950 1_455 S
C511 C510 1.397 . S
C511 C512 1.334 . S
C512 H483 0.961 . S
C512 C511 1.334 . S
C512 C513 1.287 . S
C513 C512 1.287 . S
C513 C514 1.524 . S
C513 H516 0.999 . S
C514 H484 0.950 . S
C514 C513 1.524 . S
C514 C515 1.415 . S
C515 H485 0.950 1_554 S
C515 C510 1.363 . S
C515 C514 1.415 . S
H516 C513 0.999 . S
H517 C498 0.913 . S
H518 C536 0.951 . S
H519 C538 0.951 . S
H520 C540 0.950 . S
H521 C541 0.950 1_545 S
H522 C543 0.950 . S
H523 C546 0.950 1_545 S
H524 C547 0.950 . S
H525 C549 0.950 . S
H526 C550 0.950 . S
H527 C551 0.951 . S
H528 C553 0.951 . S
H529 C555 0.950 . S
H530 C556 0.950 1_565 S
H531 C558 0.950 . S
H532 C561 0.950 1_565 S
H533 C562 0.950 . S
H534 C564 0.950 . S
H535 C565 0.950 . S
C536 H518 0.951 . S
C536 C537 1.366 . S
C536 C538 1.388 . S
C537 C536 1.366 . S
C537 C541 1.385 . S
C538 H519 0.951 . S
C538 C536 1.388 . S
C538 C539 1.366 . S
C539 C538 1.366 . S
C539 C540 1.414 1_565 S
C539 C542 1.499 . S
C540 H520 0.950 . S
C540 C539 1.414 1_545 S
C540 C541 1.374 1_545 S
C541 H521 0.950 1_565 S
C541 C537 1.385 . S
C541 C540 1.374 1_565 S
C542 C539 1.499 . S
C542 C543 1.373 1_565 S
C542 C544 1.389 . S
C543 H522 0.950 . S
C543 C542 1.373 1_545 S
C543 C559 1.377 . S
C544 C542 1.389 . S
C544 C545 1.524 . S
C544 C558 1.377 . S
C545 C544 1.524 . S
C545 C546 1.397 . S
C545 C550 1.363 . S
C546 H523 0.950 1_565 S
C546 C545 1.397 . S
C546 C547 1.334 . S
C547 H524 0.950 . S
C547 C546 1.334 . S
C547 C548 1.287 . S
C548 C547 1.287 . S
C548 C549 1.524 . S
C548 H567 0.913 . S
C549 H525 0.950 . S
C549 C548 1.524 . S
C549 C550 1.415 . S
C550 H526 0.950 . S
C550 C545 1.363 . S
C550 C549 1.415 . S
C551 H527 0.951 . S
C551 C552 1.366 . S
C551 C553 1.388 . S
C552 C551 1.366 . S
C552 C556 1.385 . S
C553 H528 0.951 . S
C553 C551 1.388 . S
C553 C554 1.366 . S
C554 C553 1.366 . S
C554 C555 1.414 1_545 S
C554 C557 1.499 . S
C555 H529 0.950 . S
C555 C554 1.414 1_565 S
C555 C556 1.374 1_565 S
C556 H530 0.950 1_545 S
C556 C552 1.385 . S
C556 C555 1.374 1_545 S
C557 C554 1.499 . S
C557 C558 1.373 1_545 S
C557 C559 1.389 . S
C558 H531 0.950 . S
C558 C544 1.377 . S
C558 C557 1.373 1_565 S
C559 C543 1.377 . S
C559 C557 1.389 . S
C559 C560 1.524 . S
C560 C559 1.524 . S
C560 C561 1.397 . S
C560 C565 1.363 . S
C561 H532 0.950 1_545 S
C561 C560 1.397 . S
C561 C562 1.334 . S
C562 H533 0.950 . S
C562 C561 1.334 . S
C562 C563 1.287 . S
C563 C562 1.287 . S
C563 C564 1.524 . S
C563 H566 0.999 . S
C564 H534 0.950 . S
C564 C563 1.524 . S
C564 C565 1.415 . S
C565 H535 0.950 . S
C565 C560 1.363 . S
C565 C564 1.415 . S
H566 C563 0.999 . S
H567 C548 0.913 . S
H568 C586 0.951 . S
H569 C588 0.951 . S
H570 C590 0.950 . S
H571 C591 0.950 . S
H572 C593 0.950 . S
H573 C596 0.950 . S
H574 C597 0.950 . S
H575 C599 0.950 . S
H576 C600 0.950 . S
H577 C601 0.951 . S
H578 C603 0.951 . S
H579 C605 0.950 . S
H580 C606 0.950 . S
H581 C608 0.950 . S
H582 C611 0.950 . S
H583 C612 0.950 . S
H584 C614 0.950 . S
H585 C615 0.950 . S
C586 H568 0.951 . S
C586 C587 1.366 . S
C586 C588 1.388 . S
C587 C586 1.366 . S
C587 C591 1.385 . S
C588 H569 0.951 . S
C588 C586 1.388 . S
C588 C589 1.366 . S
C589 C588 1.366 . S
C589 C590 1.414 . S
C589 C592 1.499 . S
C590 H570 0.950 . S
C590 C589 1.414 . S
C590 C591 1.374 . S
C591 H571 0.950 . S
C591 C587 1.385 . S
C591 C590 1.374 . S
C592 C589 1.499 . S
C592 C593 1.373 . S
C592 C594 1.389 . S
C593 H572 0.950 . S
C593 C592 1.373 . S
C593 C609 1.377 1_556 S
C594 C592 1.389 . S
C594 C595 1.524 . S
C594 C608 1.377 1_556 S
C595 C594 1.524 . S
C595 C596 1.397 . S
C595 C600 1.363 . S
C596 H573 0.950 . S
C596 C595 1.397 . S
C596 C597 1.334 . S
C597 H574 0.950 . S
C597 C596 1.334 . S
C597 C598 1.287 . S
C598 C597 1.287 . S
C598 C599 1.524 . S
C598 H617 0.913 . S
C599 H575 0.950 . S
C599 C598 1.524 . S
C599 C600 1.415 . S
C600 H576 0.950 . S
C600 C595 1.363 . S
C600 C599 1.415 . S
C601 H577 0.951 . S
C601 C602 1.366 . S
C601 C603 1.388 . S
C602 C601 1.366 . S
C602 C606 1.385 . S
C603 H578 0.951 . S
C603 C601 1.388 . S
C603 C604 1.366 . S
C604 C603 1.366 . S
C604 C605 1.414 . S
C604 C607 1.499 . S
C605 H579 0.950 . S
C605 C604 1.414 . S
C605 C606 1.374 . S
C606 H580 0.950 . S
C606 C602 1.385 . S
C606 C605 1.374 . S
C607 C604 1.499 . S
C607 C608 1.373 . S
C607 C609 1.389 . S
C608 H581 0.950 . S
C608 C594 1.377 1_554 S
C608 C607 1.373 . S
C609 C593 1.377 1_554 S
C609 C607 1.389 . S
C609 C610 1.524 . S
C610 C609 1.524 . S
C610 C611 1.397 . S
C610 C615 1.363 . S
C611 H582 0.950 . S
C611 C610 1.397 . S
C611 C612 1.334 . S
C612 H583 0.950 . S
C612 C611 1.334 . S
C612 C613 1.287 . S
C613 C612 1.287 . S
C613 C614 1.524 . S
C613 H616 0.999 . S
C614 H584 0.950 . S
C614 C613 1.524 . S
C614 C615 1.415 . S
C615 H585 0.950 . S
C615 C610 1.363 . S
C615 C614 1.415 . S
H616 C613 0.999 . S
H617 C598 0.913 . S
H618 C636 0.951 . S
H619 C638 0.951 . S
H620 C640 0.950 . S
H621 C641 0.950 1_455 S
H622 C643 0.950 . S
H623 C646 0.950 . S
H624 C647 0.950 . S
H625 C649 0.950 . S
H626 C650 0.950 . S
H627 C651 0.951 . S
H628 C653 0.951 . S
H629 C655 0.950 . S
H630 C656 0.950 1_655 S
H631 C658 0.950 . S
H632 C661 0.950 . S
H633 C662 0.950 . S
H634 C664 0.950 . S
H635 C665 0.950 . S
C636 H618 0.951 . S
C636 C637 1.366 . S
C636 C638 1.388 . S
C637 C636 1.366 . S
C637 C641 1.385 . S
C638 H619 0.951 . S
C638 C636 1.388 . S
C638 C639 1.366 . S
C639 C638 1.366 . S
C639 C640 1.414 1_655 S
C639 C642 1.499 . S
C640 H620 0.950 . S
C640 C639 1.414 1_455 S
C640 C641 1.374 1_455 S
C641 H621 0.950 1_655 S
C641 C637 1.385 . S
C641 C640 1.374 1_655 S
C642 C639 1.499 . S
C642 C643 1.373 1_655 S
C642 C644 1.389 . S
C643 H622 0.950 . S
C643 C642 1.373 1_455 S
C643 C659 1.377 . S
C644 C642 1.389 . S
C644 C645 1.524 . S
C644 C658 1.377 . S
C645 C644 1.524 . S
C645 C646 1.397 . S
C645 C650 1.363 . S
C646 H623 0.950 . S
C646 C645 1.397 . S
C646 C647 1.334 . S
C647 H624 0.950 . S
C647 C646 1.334 . S
C647 C648 1.287 . S
C648 C647 1.287 . S
C648 C649 1.524 . S
C648 H667 0.913 . S
C649 H625 0.950 . S
C649 C648 1.524 . S
C649 C650 1.415 . S
C650 H626 0.950 . S
C650 C645 1.363 . S
C650 C649 1.415 . S
C651 H627 0.951 . S
C651 C652 1.366 . S
C651 C653 1.388 . S
C652 C651 1.366 . S
C652 C656 1.385 . S
C653 H628 0.951 . S
C653 C651 1.388 . S
C653 C654 1.366 . S
C654 C653 1.366 . S
C654 C655 1.414 1_455 S
C654 C657 1.499 . S
C655 H629 0.950 . S
C655 C654 1.414 1_655 S
C655 C656 1.374 1_655 S
C656 H630 0.950 1_455 S
C656 C652 1.385 . S
C656 C655 1.374 1_455 S
C657 C654 1.499 . S
C657 C658 1.373 1_455 S
C657 C659 1.389 . S
C658 H631 0.950 . S
C658 C644 1.377 . S
C658 C657 1.373 1_655 S
C659 C643 1.377 . S
C659 C657 1.389 . S
C659 C660 1.524 . S
C660 C659 1.524 . S
C660 C661 1.397 . S
C660 C665 1.363 . S
C661 H632 0.950 . S
C661 C660 1.397 . S
C661 C662 1.334 . S
C662 H633 0.950 . S
C662 C661 1.334 . S
C662 C663 1.287 . S
C663 C662 1.287 . S
C663 C664 1.524 . S
C663 H666 0.999 . S
C664 H634 0.950 . S
C664 C663 1.524 . S
C664 C665 1.415 . S
C665 H635 0.950 . S
C665 C660 1.363 . S
C665 C664 1.415 . S
H666 C663 0.999 . S
H667 C648 0.913 . S
H668 C686 0.951 . S
H669 C688 0.951 . S
H670 C690 0.950 . S
H671 C691 0.950 1_565 S
H672 C693 0.950 . S
H673 C696 0.950 . S
H674 C697 0.950 . S
H675 C699 0.946 1_554 S
H676 C700 0.950 1_554 S
H677 C701 0.951 . S
H678 C703 0.951 . S
H679 C705 0.950 . S
H680 C706 0.950 1_545 S
H681 C708 0.950 . S
H682 C711 0.950 . S
H683 C712 0.950 . S
H684 C714 0.946 1_556 S
H685 C715 0.950 1_556 S
C686 H668 0.951 . S
C686 C687 1.366 . S
C686 C688 1.388 . S
C687 C686 1.366 . S
C687 C691 1.385 . S
C688 H669 0.951 . S
C688 C686 1.388 . S
C688 C689 1.366 . S
C689 C688 1.366 . S
C689 C690 1.414 1_545 S
C689 C692 1.499 . S
C690 H670 0.950 . S
C690 C689 1.414 1_565 S
C690 C691 1.374 1_565 S
C691 H671 0.950 1_545 S
C691 C687 1.385 . S
C691 C690 1.374 1_545 S
C692 C689 1.499 . S
C692 C693 1.373 1_545 S
C692 C694 1.389 . S
C693 H672 0.950 . S
C693 C692 1.373 1_565 S
C693 C709 1.377 1_556 S
C694 C692 1.389 . S
C694 C695 1.524 . S
C694 C708 1.377 1_556 S
C695 C694 1.524 . S
C695 C696 1.397 . S
C695 C700 1.363 . S
C696 H673 0.950 . S
C696 C695 1.397 . S
C696 C697 1.334 . S
C697 H674 0.950 . S
C697 C696 1.334 . S
C697 C698 1.287 . S
C698 C697 1.287 . S
C698 C699 1.524 . S
C698 H717 0.913 . S
C699 H675 0.946 1_556 S
C699 C698 1.524 . S
C699 C700 1.415 . S
C700 H676 0.950 1_556 S
C700 C695 1.363 . S
C700 C699 1.415 . S
C701 H677 0.951 . S
C701 C702 1.366 . S
C701 C703 1.388 . S
C702 C701 1.366 . S
C702 C706 1.385 . S
C703 H678 0.951 . S
C703 C701 1.388 . S
C703 C704 1.366 . S
C704 C703 1.366 . S
C704 C705 1.414 1_565 S
C704 C707 1.499 . S
C705 H679 0.950 . S
C705 C704 1.414 1_545 S
C705 C706 1.374 1_545 S
C706 H680 0.950 1_565 S
C706 C702 1.385 . S
C706 C705 1.374 1_565 S
C707 C704 1.499 . S
C707 C708 1.373 1_565 S
C707 C709 1.389 . S
C708 H681 0.950 . S
C708 C694 1.377 1_554 S
C708 C707 1.373 1_545 S
C709 C693 1.377 1_554 S
C709 C707 1.389 . S
C709 C710 1.524 . S
C710 C709 1.524 . S
C710 C711 1.397 . S
C710 C715 1.363 . S
C711 H682 0.950 . S
C711 C710 1.397 . S
C711 C712 1.334 . S
C712 H683 0.950 . S
C712 C711 1.334 . S
C712 C713 1.287 . S
C713 C712 1.287 . S
C713 C714 1.524 . S
C713 H716 0.999 . S
C714 H684 0.946 1_554 S
C714 C713 1.524 . S
C714 C715 1.415 . S
C715 H685 0.950 1_554 S
C715 C710 1.363 . S
C715 C714 1.415 . S
H716 C713 0.999 . S
H717 C698 0.913 . S
H718 C736 0.951 . S
H719 C738 0.951 . S
H720 C740 0.950 . S
H721 C741 0.950 . S
H722 C743 0.950 . S
H723 C746 0.950 . S
H724 C747 0.950 . S
H725 C749 0.950 . S
H726 C750 0.950 . S
H727 C751 0.951 . S
H728 C753 0.951 . S
H729 C755 0.950 . S
H730 C756 0.950 . S
H731 C758 0.950 . S
H732 C761 0.950 . S
H733 C762 0.950 . S
H734 C764 0.950 . S
H735 C765 0.950 . S
C736 H718 0.951 . S
C736 C737 1.366 . S
C736 C738 1.388 . S
C737 C736 1.366 . S
C737 C741 1.385 . S
C738 H719 0.951 . S
C738 C736 1.388 . S
C738 C739 1.366 . S
C739 C738 1.366 . S
C739 C740 1.414 . S
C739 C742 1.499 . S
C740 H720 0.950 . S
C740 C739 1.414 . S
C740 C741 1.374 . S
C741 H721 0.950 . S
C741 C737 1.385 . S
C741 C740 1.374 . S
C742 C739 1.499 . S
C742 C743 1.373 . S
C742 C744 1.389 . S
C743 H722 0.950 . S
C743 C742 1.373 . S
C743 C759 1.377 . S
C744 C742 1.389 . S
C744 C745 1.524 . S
C744 C758 1.377 . S
C745 C744 1.524 . S
C745 C746 1.397 . S
C745 C750 1.363 . S
C746 H723 0.950 . S
C746 C745 1.397 . S
C746 C747 1.334 . S
C747 H724 0.950 . S
C747 C746 1.334 . S
C747 C748 1.287 . S
C748 C747 1.287 . S
C748 C749 1.524 . S
C748 H767 0.913 . S
C749 H725 0.950 . S
C749 C748 1.524 . S
C749 C750 1.415 . S
C750 H726 0.950 . S
C750 C745 1.363 . S
C750 C749 1.415 . S
C751 H727 0.951 . S
C751 C752 1.366 . S
C751 C753 1.388 . S
C752 C751 1.366 . S
C752 C756 1.385 . S
C753 H728 0.951 . S
C753 C751 1.388 . S
C753 C754 1.366 . S
C754 C753 1.366 . S
C754 C755 1.414 . S
C754 C757 1.499 . S
C755 H729 0.950 . S
C755 C754 1.414 . S
C755 C756 1.374 . S
C756 H730 0.950 . S
C756 C752 1.385 . S
C756 C755 1.374 . S
C757 C754 1.499 . S
C757 C758 1.373 . S
C757 C759 1.389 . S
C758 H731 0.950 . S
C758 C744 1.377 . S
C758 C757 1.373 . S
C759 C743 1.377 . S
C759 C757 1.389 . S
C759 C760 1.524 . S
C760 C759 1.524 . S
C760 C761 1.397 . S
C760 C765 1.363 . S
C761 H732 0.950 . S
C761 C760 1.397 . S
C761 C762 1.334 . S
C762 H733 0.950 . S
C762 C761 1.334 . S
C762 C763 1.287 . S
C763 C762 1.287 . S
C763 C764 1.524 . S
C763 H766 0.999 . S
C764 H734 0.950 . S
C764 C763 1.524 . S
C764 C765 1.415 . S
C765 H735 0.950 . S
C765 C760 1.363 . S
C765 C764 1.415 . S
H766 C763 0.999 . S
H767 C748 0.913 . S
H768 C786 0.951 . S
H769 C788 0.951 . S
H770 C790 0.950 . S
H771 C791 0.950 . S
H772 C793 0.950 . S
H773 C796 0.950 . S
H774 C797 0.950 . S
H775 C799 0.950 1_655 S
H776 C800 0.950 . S
H777 C801 0.951 . S
H778 C803 0.951 . S
H779 C805 0.950 . S
H780 C806 0.950 . S
H781 C808 0.950 . S
H782 C811 0.950 . S
H783 C812 0.950 . S
H784 C814 0.950 . S
H785 C815 0.950 . S
C786 H768 0.951 . S
C786 C787 1.366 . S
C786 C788 1.388 . S
C787 C786 1.366 . S
C787 C791 1.385 . S
C788 H769 0.951 . S
C788 C786 1.388 . S
C788 C789 1.366 . S
C789 C788 1.366 . S
C789 C790 1.414 . S
C789 C792 1.499 . S
C790 H770 0.950 . S
C790 C789 1.414 . S
C790 C791 1.374 . S
C791 H771 0.950 . S
C791 C787 1.385 . S
C791 C790 1.374 . S
C792 C789 1.499 . S
C792 C793 1.373 . S
C792 C794 1.389 . S
C793 H772 0.950 . S
C793 C792 1.373 . S
C793 C809 1.377 . S
C794 C792 1.389 . S
C794 C795 1.524 . S
C794 C808 1.377 . S
C795 C794 1.524 . S
C795 C796 1.397 . S
C795 C800 1.363 . S
C796 H773 0.950 . S
C796 C795 1.397 . S
C796 C797 1.334 . S
C797 H774 0.950 . S
C797 C796 1.334 . S
C797 C798 1.287 . S
C798 C797 1.287 . S
C798 C799 1.524 . S
C798 H817 0.913 . S
C799 H775 0.950 1_455 S
C799 C798 1.524 . S
C799 C800 1.415 . S
C800 H776 0.950 . S
C800 C795 1.363 . S
C800 C799 1.415 . S
C801 H777 0.951 . S
C801 C802 1.366 . S
C801 C803 1.388 . S
C802 C801 1.366 . S
C802 C806 1.385 . S
C803 H778 0.951 . S
C803 C801 1.388 . S
C803 C804 1.366 . S
C804 C803 1.366 . S
C804 C805 1.414 . S
C804 C807 1.499 . S
C805 H779 0.950 . S
C805 C804 1.414 . S
C805 C806 1.374 . S
C806 H780 0.950 . S
C806 C802 1.385 . S
C806 C805 1.374 . S
C807 C804 1.499 . S
C807 C808 1.373 . S
C807 C809 1.389 . S
C808 H781 0.950 . S
C808 C794 1.377 . S
C808 C807 1.373 . S
C809 C793 1.377 . S
C809 C807 1.389 . S
C809 C810 1.524 . S
C810 C809 1.524 . S
C810 C811 1.397 . S
C810 C815 1.363 . S
C811 H782 0.950 . S
C811 C810 1.397 . S
C811 C812 1.334 . S
C812 H783 0.950 . S
C812 C811 1.334 . S
C812 C813 1.287 . S
C813 C812 1.287 . S
C813 C814 1.524 . S
C813 H816 0.999 . S
C814 H784 0.950 . S
C814 C813 1.524 . S
C814 C815 1.415 . S
C815 H785 0.950 . S
C815 C810 1.363 . S
C815 C814 1.415 . S
H816 C813 0.999 . S
H817 C798 0.913 . S
H818 C836 0.951 . S
H819 C838 0.951 . S
H820 C840 0.950 . S
H821 C841 0.950 . S
H822 C843 0.950 . S
H823 C846 0.950 . S
H824 C847 0.950 . S
H825 C849 0.950 . S
H826 C850 0.950 . S
H827 C851 0.951 . S
H828 C853 0.951 . S
H829 C855 0.950 . S
H830 C856 0.950 . S
H831 C858 0.950 . S
H832 C861 0.950 . S
H833 C862 0.950 . S
H834 C864 0.950 1_565 S
H835 C865 0.950 . S
C836 H818 0.951 . S
C836 C837 1.366 . S
C836 C838 1.388 . S
C837 C836 1.366 . S
C837 C841 1.385 . S
C838 H819 0.951 . S
C838 C836 1.388 . S
C838 C839 1.366 . S
C839 C838 1.366 . S
C839 C840 1.414 . S
C839 C842 1.499 . S
C840 H820 0.950 . S
C840 C839 1.414 . S
C840 C841 1.374 . S
C841 H821 0.950 . S
C841 C837 1.385 . S
C841 C840 1.374 . S
C842 C839 1.499 . S
C842 C843 1.373 . S
C842 C844 1.389 . S
C843 H822 0.950 . S
C843 C842 1.373 . S
C843 C859 1.377 . S
C844 C842 1.389 . S
C844 C845 1.524 . S
C844 C858 1.377 . S
C845 C844 1.524 . S
C845 C846 1.397 . S
C845 C850 1.363 . S
C846 H823 0.950 . S
C846 C845 1.397 . S
C846 C847 1.334 . S
C847 H824 0.950 . S
C847 C846 1.334 . S
C847 C848 1.287 . S
C848 C847 1.287 . S
C848 C849 1.524 . S
C848 H867 0.913 . S
C849 H825 0.950 . S
C849 C848 1.524 . S
C849 C850 1.415 . S
C850 H826 0.950 . S
C850 C845 1.363 . S
C850 C849 1.415 . S
C851 H827 0.951 . S
C851 C852 1.366 . S
C851 C853 1.388 . S
C852 C851 1.366 . S
C852 C856 1.385 . S
C853 H828 0.951 . S
C853 C851 1.388 . S
C853 C854 1.366 . S
C854 C853 1.366 . S
C854 C855 1.414 . S
C854 C857 1.499 . S
C855 H829 0.950 . S
C855 C854 1.414 . S
C855 C856 1.374 . S
C856 H830 0.950 . S
C856 C852 1.385 . S
C856 C855 1.374 . S
C857 C854 1.499 . S
C857 C858 1.373 . S
C857 C859 1.389 . S
C858 H831 0.950 . S
C858 C844 1.377 . S
C858 C857 1.373 . S
C859 C843 1.377 . S
C859 C857 1.389 . S
C859 C860 1.524 . S
C860 C859 1.524 . S
C860 C861 1.397 . S
C860 C865 1.363 . S
C861 H832 0.950 . S
C861 C860 1.397 . S
C861 C862 1.334 . S
C862 H833 0.950 . S
C862 C861 1.334 . S
C862 C863 1.287 . S
C863 C862 1.287 . S
C863 C864 1.524 . S
C863 H866 0.999 . S
C864 H834 0.950 1_545 S
C864 C863 1.524 . S
C864 C865 1.415 . S
C865 H835 0.950 . S
C865 C860 1.363 . S
C865 C864 1.415 . S
H866 C863 0.999 . S
H867 C848 0.913 . S
H868 C886 0.951 . S
H869 C888 0.951 . S
H870 C890 0.950 . S
H871 C891 0.950 . S
H872 C893 0.950 . S
H873 C896 0.950 . S
H874 C897 0.950 . S
H875 C899 0.950 . S
H876 C900 0.950 . S
H877 C901 0.951 . S
H878 C903 0.951 . S
H879 C905 0.950 . S
H880 C906 0.950 . S
H881 C908 0.950 . S
H882 C911 0.950 . S
H883 C912 0.950 . S
H884 C914 0.950 . S
H885 C915 0.950 . S
C886 H868 0.951 . S
C886 C887 1.366 . S
C886 C888 1.388 . S
C887 C886 1.366 . S
C887 C891 1.385 . S
C888 H869 0.951 . S
C888 C886 1.388 . S
C888 C889 1.366 . S
C889 C888 1.366 . S
C889 C890 1.414 . S
C889 C892 1.499 . S
C890 H870 0.950 . S
C890 C889 1.414 . S
C890 C891 1.374 . S
C891 H871 0.950 . S
C891 C887 1.385 . S
C891 C890 1.374 . S
C892 C889 1.499 . S
C892 C893 1.373 . S
C892 C894 1.389 . S
C893 H872 0.950 . S
C893 C892 1.373 . S
C893 C909 1.377 . S
C894 C892 1.389 . S
C894 C895 1.524 . S
C894 C908 1.377 . S
C895 C894 1.524 . S
C895 C896 1.397 . S
C895 C900 1.363 . S
C896 H873 0.950 . S
C896 C895 1.397 . S
C896 C897 1.334 . S
C897 H874 0.950 . S
C897 C896 1.334 . S
C897 C898 1.287 . S
C898 C897 1.287 . S
C898 C899 1.524 . S
C898 H917 0.913 . S
C899 H875 0.950 . S
C899 C898 1.524 . S
C899 C900 1.415 . S
C900 H876 0.950 . S
C900 C895 1.363 . S
C900 C899 1.415 . S
C901 H877 0.951 . S
C901 C902 1.366 . S
C901 C903 1.388 . S
C902 C901 1.366 . S
C902 C906 1.385 . S
C903 H878 0.951 . S
C903 C901 1.388 . S
C903 C904 1.366 . S
C904 C903 1.366 . S
C904 C905 1.414 . S
C904 C907 1.499 . S
C905 H879 0.950 . S
C905 C904 1.414 . S
C905 C906 1.374 . S
C906 H880 0.950 . S
C906 C902 1.385 . S
C906 C905 1.374 . S
C907 C904 1.499 . S
C907 C908 1.373 . S
C907 C909 1.389 . S
C908 H881 0.950 . S
C908 C894 1.377 . S
C908 C907 1.373 . S
C909 C893 1.377 . S
C909 C907 1.389 . S
C909 C910 1.524 . S
C910 C909 1.524 . S
C910 C911 1.397 . S
C910 C915 1.363 . S
C911 H882 0.950 . S
C911 C910 1.397 . S
C911 C912 1.334 . S
C912 H883 0.950 . S
C912 C911 1.334 . S
C912 C913 1.287 . S
C913 C912 1.287 . S
C913 C914 1.524 . S
C913 H916 0.999 . S
C914 H884 0.950 . S
C914 C913 1.524 . S
C914 C915 1.415 . S
C915 H885 0.950 . S
C915 C910 1.363 . S
C915 C914 1.415 . S
H916 C913 0.999 . S
H917 C898 0.913 . S
H918 C936 0.951 . S
H919 C938 0.951 . S
H920 C940 0.950 . S
H921 C941 0.950 . S
H922 C943 0.950 . S
H923 C946 0.950 . S
H924 C947 0.950 . S
H925 C949 0.950 . S
H926 C950 0.950 . S
H927 C951 0.951 . S
H928 C953 0.951 . S
H929 C955 0.950 . S
H930 C956 0.950 . S
H931 C958 0.950 . S
H932 C961 0.950 . S
H933 C962 0.950 . S
H934 C964 0.950 . S
H935 C965 0.950 . S
C936 H918 0.951 . S
C936 C937 1.366 . S
C936 C938 1.388 . S
C937 C936 1.366 . S
C937 C941 1.385 . S
C938 H919 0.951 . S
C938 C936 1.388 . S
C938 C939 1.366 . S
C939 C938 1.366 . S
C939 C940 1.414 . S
C939 C942 1.499 . S
C940 H920 0.950 . S
C940 C939 1.414 . S
C940 C941 1.374 . S
C941 H921 0.950 . S
C941 C937 1.385 . S
C941 C940 1.374 . S
C942 C939 1.499 . S
C942 C943 1.373 . S
C942 C944 1.389 . S
C943 H922 0.950 . S
C943 C942 1.373 . S
C943 C959 1.377 . S
C944 C942 1.389 . S
C944 C945 1.524 . S
C944 C958 1.377 . S
C945 C944 1.524 . S
C945 C946 1.397 . S
C945 C950 1.363 . S
C946 H923 0.950 . S
C946 C945 1.397 . S
C946 C947 1.334 . S
C947 H924 0.950 . S
C947 C946 1.334 . S
C947 C948 1.287 . S
C948 C947 1.287 . S
C948 C949 1.524 . S
C948 H967 0.913 . S
C949 H925 0.950 . S
C949 C948 1.524 . S
C949 C950 1.415 . S
C950 H926 0.950 . S
C950 C945 1.363 . S
C950 C949 1.415 . S
C951 H927 0.951 . S
C951 C952 1.366 . S
C951 C953 1.388 . S
C952 C951 1.366 . S
C952 C956 1.385 . S
C953 H928 0.951 . S
C953 C951 1.388 . S
C953 C954 1.366 . S
C954 C953 1.366 . S
C954 C955 1.414 . S
C954 C957 1.499 . S
C955 H929 0.950 . S
C955 C954 1.414 . S
C955 C956 1.374 . S
C956 H930 0.950 . S
C956 C952 1.385 . S
C956 C955 1.374 . S
C957 C954 1.499 . S
C957 C958 1.373 . S
C957 C959 1.389 . S
C958 H931 0.950 . S
C958 C944 1.377 . S
C958 C957 1.373 . S
C959 C943 1.377 . S
C959 C957 1.389 . S
C959 C960 1.524 . S
C960 C959 1.524 . S
C960 C961 1.397 . S
C960 C965 1.363 1_655 S
C961 H932 0.950 . S
C961 C960 1.397 . S
C961 C962 1.334 . S
C962 H933 0.950 . S
C962 C961 1.334 . S
C962 C963 1.287 1_655 S
C963 C962 1.287 1_455 S
C963 C964 1.524 . S
C963 H966 0.999 . S
C964 H934 0.950 . S
C964 C963 1.524 . S
C964 C965 1.415 . S
C965 H935 0.950 . S
C965 C960 1.363 1_455 S
C965 C964 1.415 . S
H966 C963 0.999 . S
H967 C948 0.913 . S
H968 C986 0.951 . S
H969 C988 0.951 . S
H970 C990 0.950 . S
H971 C991 0.950 . S
H972 C993 0.950 . S
H973 C996 0.950 . S
H974 C997 0.950 . S
H975 C999 0.950 . S
H976 C1000 0.950 . S
H977 C1001 0.951 . S
H978 C1003 0.951 . S
H979 C1005 0.950 . S
H980 C1006 0.950 . S
H981 C1008 0.950 . S
H982 C1011 0.950 1_565 S
H983 C1012 0.950 . S
H984 C1014 0.950 . S
H985 C1015 0.950 . S
C986 H968 0.951 . S
C986 C987 1.366 . S
C986 C988 1.388 . S
C987 C986 1.366 . S
C987 C991 1.385 . S
C988 H969 0.951 . S
C988 C986 1.388 . S
C988 C989 1.366 . S
C989 C988 1.366 . S
C989 C990 1.414 . S
C989 C992 1.499 . S
C990 H970 0.950 . S
C990 C989 1.414 . S
C990 C991 1.374 . S
C991 H971 0.950 . S
C991 C987 1.385 . S
C991 C990 1.374 . S
C992 C989 1.499 . S
C992 C993 1.373 . S
C992 C994 1.389 . S
C993 H972 0.950 . S
C993 C992 1.373 . S
C993 C1009 1.377 . S
C994 C992 1.389 . S
C994 C995 1.524 . S
C994 C1008 1.377 . S
C995 C994 1.524 . S
C995 C996 1.397 . S
C995 C1000 1.363 . S
C996 H973 0.950 . S
C996 C995 1.397 . S
C996 C997 1.334 . S
C997 H974 0.950 . S
C997 C996 1.334 . S
C997 C998 1.287 . S
C998 C997 1.287 . S
C998 C999 1.524 . S
C998 H1017 0.913 . S
C999 H975 0.950 . S
C999 C998 1.524 . S
C999 C1000 1.415 . S
C1000 H976 0.950 . S
C1000 C995 1.363 . S
C1000 C999 1.415 . S
C1001 H977 0.951 . S
C1001 C1002 1.366 . S
C1001 C1003 1.388 . S
C1002 C1001 1.366 . S
C1002 C1006 1.385 . S
C1003 H978 0.951 . S
C1003 C1001 1.388 . S
C1003 C1004 1.366 . S
C1004 C1003 1.366 . S
C1004 C1005 1.414 . S
C1004 C1007 1.499 . S
C1005 H979 0.950 . S
C1005 C1004 1.414 . S
C1005 C1006 1.374 . S
C1006 H980 0.950 . S
C1006 C1002 1.385 . S
C1006 C1005 1.374 . S
C1007 C1004 1.499 . S
C1007 C1008 1.373 . S
C1007 C1009 1.389 . S
C1008 H981 0.950 . S
C1008 C994 1.377 . S
C1008 C1007 1.373 . S
C1009 C993 1.377 . S
C1009 C1007 1.389 . S
C1009 C1010 1.559 . S
C1010 C1009 1.559 . S
C1010 C1011 1.401 1_565 S
C1010 C1015 1.324 1_565 S
C1011 H982 0.950 1_545 S
C1011 C1010 1.401 1_545 S
C1011 C1012 1.334 . S
C1012 H983 0.950 . S
C1012 C1011 1.334 . S
C1012 C1013 1.287 . S
C1013 C1012 1.287 . S
C1013 C1014 1.524 . S
C1013 H1016 0.999 . S
C1014 H984 0.950 . S
C1014 C1013 1.524 . S
C1014 C1015 1.415 . S
C1015 H985 0.950 . S
C1015 C1010 1.324 1_545 S
C1015 C1014 1.415 . S
H1016 C1013 0.999 . S
H1017 C998 0.913 . S
H1018 C1036 0.951 . S
H1019 C1038 0.951 . S
H1020 C1040 0.950 . S
H1021 C1041 0.950 . S
H1022 C1043 0.950 . S
H1023 C1046 0.950 . S
H1024 C1047 0.950 . S
H1025 C1049 0.950 . S
H1026 C1050 0.950 . S
H1027 C1051 0.951 . S
H1028 C1053 0.951 . S
H1029 C1055 0.950 . S
H1030 C1056 0.950 . S
H1031 C1058 0.950 . S
H1032 C1061 0.950 . S
H1033 C1062 0.950 . S
H1034 C1064 0.950 . S
H1035 C1065 0.950 . S
C1036 H1018 0.951 . S
C1036 C1037 1.366 . S
C1036 C1038 1.388 . S
C1037 C1036 1.366 . S
C1037 C1041 1.385 . S
C1038 H1019 0.951 . S
C1038 C1036 1.388 . S
C1038 C1039 1.366 . S
C1039 C1038 1.366 . S
C1039 C1040 1.414 . S
C1039 C1042 1.499 . S
C1040 H1020 0.950 . S
C1040 C1039 1.414 . S
C1040 C1041 1.374 . S
C1041 H1021 0.950 . S
C1041 C1037 1.385 . S
C1041 C1040 1.374 . S
C1042 C1039 1.499 . S
C1042 C1043 1.373 . S
C1042 C1044 1.389 . S
C1043 H1022 0.950 . S
C1043 C1042 1.373 . S
C1043 C1059 1.377 . S
C1044 C1042 1.389 . S
C1044 C1045 1.524 . S
C1044 C1058 1.377 . S
C1045 C1044 1.524 . S
C1045 C1046 1.397 . S
C1045 C1050 1.363 . S
C1046 H1023 0.950 . S
C1046 C1045 1.397 . S
C1046 C1047 1.334 . S
C1047 H1024 0.950 . S
C1047 C1046 1.334 . S
C1047 C1048 1.287 . S
C1048 C1047 1.287 . S
C1048 C1049 1.524 . S
C1048 H1067 0.913 . S
C1049 H1025 0.950 . S
C1049 C1048 1.524 . S
C1049 C1050 1.415 . S
C1050 H1026 0.950 . S
C1050 C1045 1.363 . S
C1050 C1049 1.415 . S
C1051 H1027 0.951 . S
C1051 C1052 1.366 . S
C1051 C1053 1.388 . S
C1052 C1051 1.366 . S
C1052 C1056 1.385 . S
C1053 H1028 0.951 . S
C1053 C1051 1.388 . S
C1053 C1054 1.366 . S
C1054 C1053 1.366 . S
C1054 C1055 1.414 . S
C1054 C1057 1.499 . S
C1055 H1029 0.950 . S
C1055 C1054 1.414 . S
C1055 C1056 1.374 . S
C1056 H1030 0.950 . S
C1056 C1052 1.385 . S
C1056 C1055 1.374 . S
C1057 C1054 1.499 . S
C1057 C1058 1.373 . S
C1057 C1059 1.389 . S
C1058 H1031 0.950 . S
C1058 C1044 1.377 . S
C1058 C1057 1.373 . S
C1059 C1043 1.377 . S
C1059 C1057 1.389 . S
C1059 C1060 1.524 . S
C1060 C1059 1.524 . S
C1060 C1061 1.397 . S
C1060 C1065 1.363 . S
C1061 H1032 0.950 . S
C1061 C1060 1.397 . S
C1061 C1062 1.334 . S
C1062 H1033 0.950 . S
C1062 C1061 1.334 . S
C1062 C1063 1.287 . S
C1063 C1062 1.287 . S
C1063 C1064 1.524 . S
C1063 H1066 0.999 . S
C1064 H1034 0.950 . S
C1064 C1063 1.524 . S
C1064 C1065 1.415 . S
C1065 H1035 0.950 . S
C1065 C1060 1.363 . S
C1065 C1064 1.415 . S
H1066 C1063 0.999 . S
H1067 C1048 0.913 . S
H1068 C1086 0.951 . S
H1069 C1088 0.951 . S
H1070 C1090 0.950 . S
H1071 C1091 0.950 . S
H1072 C1093 0.950 . S
H1073 C1096 0.950 . S
H1074 C1097 0.950 . S
H1075 C1099 0.950 . S
H1076 C1100 0.950 . S
H1077 C1101 0.951 . S
H1078 C1103 0.951 . S
H1079 C1105 0.950 . S
H1080 C1106 0.950 . S
H1081 C1108 0.950 . S
H1082 C1111 0.950 . S
H1083 C1112 0.950 . S
H1084 C1114 0.950 . S
H1085 C1115 0.950 . S
C1086 H1068 0.951 . S
C1086 C1087 1.366 . S
C1086 C1088 1.388 . S
C1087 C1086 1.366 . S
C1087 C1091 1.385 . S
C1088 H1069 0.951 . S
C1088 C1086 1.388 . S
C1088 C1089 1.366 . S
C1089 C1088 1.366 . S
C1089 C1090 1.414 . S
C1089 C1092 1.499 . S
C1090 H1070 0.950 . S
C1090 C1089 1.414 . S
C1090 C1091 1.374 . S
C1091 H1071 0.950 . S
C1091 C1087 1.385 . S
C1091 C1090 1.374 . S
C1092 C1089 1.499 . S
C1092 C1093 1.373 . S
C1092 C1094 1.389 . S
C1093 H1072 0.950 . S
C1093 C1092 1.373 . S
C1093 C1109 1.377 . S
C1094 C1092 1.389 . S
C1094 C1095 1.524 . S
C1094 C1108 1.377 . S
C1095 C1094 1.524 . S
C1095 C1096 1.397 . S
C1095 C1100 1.363 . S
C1096 H1073 0.950 . S
C1096 C1095 1.397 . S
C1096 C1097 1.334 . S
C1097 H1074 0.950 . S
C1097 C1096 1.334 . S
C1097 C1098 1.287 . S
C1098 C1097 1.287 . S
C1098 C1099 1.524 . S
C1098 H1117 0.913 . S
C1099 H1075 0.950 . S
C1099 C1098 1.524 . S
C1099 C1100 1.415 . S
C1100 H1076 0.950 . S
C1100 C1095 1.363 . S
C1100 C1099 1.415 . S
C1101 H1077 0.951 . S
C1101 C1102 1.366 . S
C1101 C1103 1.388 . S
C1102 C1101 1.366 . S
C1102 C1106 1.385 . S
C1103 H1078 0.951 . S
C1103 C1101 1.388 . S
C1103 C1104 1.366 . S
C1104 C1103 1.366 . S
C1104 C1105 1.414 . S
C1104 C1107 1.499 . S
C1105 H1079 0.950 . S
C1105 C1104 1.414 . S
C1105 C1106 1.374 . S
C1106 H1080 0.950 . S
C1106 C1102 1.385 . S
C1106 C1105 1.374 . S
C1107 C1104 1.499 . S
C1107 C1108 1.373 . S
C1107 C1109 1.389 . S
C1108 H1081 0.950 . S
C1108 C1094 1.377 . S
C1108 C1107 1.373 . S
C1109 C1093 1.377 . S
C1109 C1107 1.389 . S
C1109 C1110 1.524 . S
C1110 C1109 1.524 . S
C1110 C1111 1.397 . S
C1110 C1115 1.363 . S
C1111 H1082 0.950 . S
C1111 C1110 1.397 . S
C1111 C1112 1.334 . S
C1112 H1083 0.950 . S
C1112 C1111 1.334 . S
C1112 C1113 1.287 . S
C1113 C1112 1.287 . S
C1113 C1114 1.524 . S
C1113 H1116 0.999 . S
C1114 H1084 0.950 . S
C1114 C1113 1.524 . S
C1114 C1115 1.415 . S
C1115 H1085 0.950 . S
C1115 C1110 1.363 . S
C1115 C1114 1.415 . S
H1116 C1113 0.999 . S
H1117 C1098 0.913 . S
H1118 C1136 0.951 . S
H1119 C1138 0.951 . S
H1120 C1140 0.950 . S
H1121 C1141 0.950 . S
H1122 C1143 0.950 . S
H1123 C1146 0.950 . S
H1124 C1147 0.950 . S
H1125 C1149 0.950 . S
H1126 C1150 0.950 . S
H1127 C1151 0.951 . S
H1128 C1153 0.951 . S
H1129 C1155 0.950 . S
H1130 C1156 0.950 . S
H1131 C1158 0.950 . S
H1132 C1161 0.950 . S
H1133 C1162 0.950 . S
H1134 C1164 0.950 . S
H1135 C1165 0.950 . S
C1136 H1118 0.951 . S
C1136 C1137 1.366 . S
C1136 C1138 1.388 . S
C1137 C1136 1.366 . S
C1137 C1141 1.385 . S
C1138 H1119 0.951 . S
C1138 C1136 1.388 . S
C1138 C1139 1.366 . S
C1139 C1138 1.366 . S
C1139 C1140 1.414 . S
C1139 C1142 1.499 . S
C1140 H1120 0.950 . S
C1140 C1139 1.414 . S
C1140 C1141 1.374 . S
C1141 H1121 0.950 . S
C1141 C1137 1.385 . S
C1141 C1140 1.374 . S
C1142 C1139 1.499 . S
C1142 C1143 1.373 . S
C1142 C1144 1.389 . S
C1143 H1122 0.950 . S
C1143 C1142 1.373 . S
C1143 C1159 1.377 . S
C1144 C1142 1.389 . S
C1144 C1145 1.524 . S
C1144 C1158 1.377 . S
C1145 C1144 1.524 . S
C1145 C1146 1.397 . S
C1145 C1150 1.363 . S
C1146 H1123 0.950 . S
C1146 C1145 1.397 . S
C1146 C1147 1.334 . S
C1147 H1124 0.950 . S
C1147 C1146 1.334 . S
C1147 C1148 1.287 . S
C1148 C1147 1.287 . S
C1148 C1149 1.524 . S
C1148 H1167 0.913 . S
C1149 H1125 0.950 . S
C1149 C1148 1.524 . S
C1149 C1150 1.415 . S
C1150 H1126 0.950 . S
C1150 C1145 1.363 . S
C1150 C1149 1.415 . S
C1151 H1127 0.951 . S
C1151 C1152 1.366 . S
C1151 C1153 1.388 . S
C1152 C1151 1.366 . S
C1152 C1156 1.385 . S
C1153 H1128 0.951 . S
C1153 C1151 1.388 . S
C1153 C1154 1.366 . S
C1154 C1153 1.366 . S
C1154 C1155 1.414 . S
C1154 C1157 1.499 . S
C1155 H1129 0.950 . S
C1155 C1154 1.414 . S
C1155 C1156 1.374 . S
C1156 H1130 0.950 . S
C1156 C1152 1.385 . S
C1156 C1155 1.374 . S
C1157 C1154 1.499 . S
C1157 C1158 1.373 . S
C1157 C1159 1.389 . S
C1158 H1131 0.950 . S
C1158 C1144 1.377 . S
C1158 C1157 1.373 . S
C1159 C1143 1.377 . S
C1159 C1157 1.389 . S
C1159 C1160 1.524 . S
C1160 C1159 1.524 . S
C1160 C1161 1.397 . S
C1160 C1165 1.363 . S
C1161 H1132 0.950 . S
C1161 C1160 1.397 . S
C1161 C1162 1.334 . S
C1162 H1133 0.950 . S
C1162 C1161 1.334 . S
C1162 C1163 1.287 . S
C1163 C1162 1.287 . S
C1163 C1164 1.524 . S
C1163 H1166 0.999 . S
C1164 H1134 0.950 . S
C1164 C1163 1.524 . S
C1164 C1165 1.415 . S
C1165 H1135 0.950 . S
C1165 C1160 1.363 . S
C1165 C1164 1.415 . S
H1166 C1163 0.999 . S
H1167 C1148 0.913 . S
H1168 C1186 0.951 . S
H1169 C1188 0.951 . S
H1170 C1190 0.950 . S
H1171 C1191 0.950 . S
H1172 C1193 0.950 . S
H1173 C1196 0.950 . S
H1174 C1197 0.950 . S
H1175 C1199 0.950 . S
H1176 C1200 0.950 . S
H1177 C1201 0.951 . S
H1178 C1203 0.951 . S
H1179 C1205 0.950 . S
H1180 C1206 0.950 . S
H1181 C1208 0.950 . S
H1182 C1211 0.950 . S
H1183 C1212 0.950 . S
H1184 C1214 0.950 . S
H1185 C1215 0.950 . S
C1186 H1168 0.951 . S
C1186 C1187 1.366 . S
C1186 C1188 1.388 . S
C1187 C1186 1.366 . S
C1187 C1191 1.385 . S
C1188 H1169 0.951 . S
C1188 C1186 1.388 . S
C1188 C1189 1.366 . S
C1189 C1188 1.366 . S
C1189 C1190 1.414 . S
C1189 C1192 1.499 . S
C1190 H1170 0.950 . S
C1190 C1189 1.414 . S
C1190 C1191 1.374 . S
C1191 H1171 0.950 . S
C1191 C1187 1.385 . S
C1191 C1190 1.374 . S
C1192 C1189 1.499 . S
C1192 C1193 1.373 . S
C1192 C1194 1.389 . S
C1193 H1172 0.950 . S
C1193 C1192 1.373 . S
C1193 C1209 1.377 . S
C1194 C1192 1.389 . S
C1194 C1195 1.524 . S
C1194 C1208 1.377 . S
C1195 C1194 1.524 . S
C1195 C1196 1.397 . S
C1195 C1200 1.363 . S
C1196 H1173 0.950 . S
C1196 C1195 1.397 . S
C1196 C1197 1.334 . S
C1197 H1174 0.950 . S
C1197 C1196 1.334 . S
C1197 C1198 1.287 . S
C1198 C1197 1.287 . S
C1198 C1199 1.524 . S
C1198 H1217 0.913 . S
C1199 H1175 0.950 . S
C1199 C1198 1.524 . S
C1199 C1200 1.415 . S
C1200 H1176 0.950 . S
C1200 C1195 1.363 . S
C1200 C1199 1.415 . S
C1201 H1177 0.951 . S
C1201 C1202 1.366 . S
C1201 C1203 1.388 . S
C1202 C1201 1.366 . S
C1202 C1206 1.385 . S
C1203 H1178 0.951 . S
C1203 C1201 1.388 . S
C1203 C1204 1.366 . S
C1204 C1203 1.366 . S
C1204 C1205 1.414 . S
C1204 C1207 1.499 . S
C1205 H1179 0.950 . S
C1205 C1204 1.414 . S
C1205 C1206 1.374 . S
C1206 H1180 0.950 . S
C1206 C1202 1.385 . S
C1206 C1205 1.374 . S
C1207 C1204 1.499 . S
C1207 C1208 1.373 . S
C1207 C1209 1.389 . S
C1208 H1181 0.950 . S
C1208 C1194 1.377 . S
C1208 C1207 1.373 . S
C1209 C1193 1.377 . S
C1209 C1207 1.389 . S
C1209 C1210 1.524 . S
C1210 C1209 1.524 . S
C1210 C1211 1.397 . S
C1210 C1215 1.363 . S
C1211 H1182 0.950 . S
C1211 C1210 1.397 . S
C1211 C1212 1.334 . S
C1212 H1183 0.950 . S
C1212 C1211 1.334 . S
C1212 C1213 1.287 . S
C1213 C1212 1.287 . S
C1213 C1214 1.524 . S
C1213 H1216 0.999 . S
C1214 H1184 0.950 . S
C1214 C1213 1.524 . S
C1214 C1215 1.415 . S
C1215 H1185 0.950 . S
C1215 C1210 1.363 . S
C1215 C1214 1.415 . S
H1216 C1213 0.999 . S
H1217 C1198 0.913 . S
H1218 C1236 0.951 . S
H1219 C1238 0.951 . S
H1220 C1240 0.950 . S
H1221 C1241 0.950 . S
H1222 C1243 0.950 . S
H1223 C1246 0.950 . S
H1224 C1247 0.950 . S
H1225 C1249 0.950 . S
H1226 C1250 0.950 . S
H1227 C1251 0.951 . S
H1228 C1253 0.951 . S
H1229 C1255 0.950 . S
H1230 C1256 0.950 . S
H1231 C1258 0.950 . S
H1232 C1261 0.950 . S
H1233 C1262 0.950 . S
H1234 C1264 0.950 . S
H1235 C1265 0.950 . S
C1236 H1218 0.951 . S
C1236 C1237 1.366 . S
C1236 C1238 1.388 . S
C1237 C1236 1.366 . S
C1237 C1241 1.385 . S
C1238 H1219 0.951 . S
C1238 C1236 1.388 . S
C1238 C1239 1.366 . S
C1239 C1238 1.366 . S
C1239 C1240 1.414 . S
C1239 C1242 1.499 . S
C1240 H1220 0.950 . S
C1240 C1239 1.414 . S
C1240 C1241 1.374 . S
C1241 H1221 0.950 . S
C1241 C1237 1.385 . S
C1241 C1240 1.374 . S
C1242 C1239 1.499 . S
C1242 C1243 1.373 . S
C1242 C1244 1.389 . S
C1243 H1222 0.950 . S
C1243 C1242 1.373 . S
C1243 C1259 1.377 . S
C1244 C1242 1.389 . S
C1244 C1245 1.524 . S
C1244 C1258 1.377 . S
C1245 C1244 1.524 . S
C1245 C1246 1.397 . S
C1245 C1250 1.363 . S
C1246 H1223 0.950 . S
C1246 C1245 1.397 . S
C1246 C1247 1.334 . S
C1247 H1224 0.950 . S
C1247 C1246 1.334 . S
C1247 C1248 1.287 . S
C1248 C1247 1.287 . S
C1248 C1249 1.524 . S
C1248 H1267 0.913 . S
C1249 H1225 0.950 . S
C1249 C1248 1.524 . S
C1249 C1250 1.415 . S
C1250 H1226 0.950 . S
C1250 C1245 1.363 . S
C1250 C1249 1.415 . S
C1251 H1227 0.951 . S
C1251 C1252 1.366 . S
C1251 C1253 1.388 . S
C1252 C1251 1.366 . S
C1252 C1256 1.385 . S
C1253 H1228 0.951 . S
C1253 C1251 1.388 . S
C1253 C1254 1.366 . S
C1254 C1253 1.366 . S
C1254 C1255 1.414 . S
C1254 C1257 1.499 . S
C1255 H1229 0.950 . S
C1255 C1254 1.414 . S
C1255 C1256 1.374 . S
C1256 H1230 0.950 . S
C1256 C1252 1.385 . S
C1256 C1255 1.374 . S
C1257 C1254 1.499 . S
C1257 C1258 1.373 . S
C1257 C1259 1.389 . S
C1258 H1231 0.950 . S
C1258 C1244 1.377 . S
C1258 C1257 1.373 . S
C1259 C1243 1.377 . S
C1259 C1257 1.389 . S
C1259 C1260 1.524 . S
C1260 C1259 1.524 . S
C1260 C1261 1.397 . S
C1260 C1265 1.363 . S
C1261 H1232 0.950 . S
C1261 C1260 1.397 . S
C1261 C1262 1.334 . S
C1262 H1233 0.950 . S
C1262 C1261 1.334 . S
C1262 C1263 1.287 . S
C1263 C1262 1.287 . S
C1263 C1264 1.524 . S
C1263 H1266 0.999 . S
C1264 H1234 0.950 . S
C1264 C1263 1.524 . S
C1264 C1265 1.415 . S
C1265 H1235 0.950 . S
C1265 C1260 1.363 . S
C1265 C1264 1.415 . S
H1266 C1263 0.999 . S
H1267 C1248 0.913 . S
H1268 C1286 0.951 . S
H1269 C1288 0.951 . S
H1270 C1290 0.950 . S
H1271 C1291 0.950 . S
H1272 C1293 0.950 . S
H1273 C1296 0.950 . S
H1274 C1297 0.950 . S
H1275 C1299 0.950 . S
H1276 C1300 0.950 . S
H1277 C1301 0.951 . S
H1278 C1303 0.951 . S
H1279 C1305 0.950 . S
H1280 C1306 0.950 . S
H1281 C1308 0.950 . S
H1282 C1311 0.950 . S
H1283 C1312 0.950 . S
H1284 C1314 0.950 . S
H1285 C1315 0.950 . S
C1286 H1268 0.951 . S
C1286 C1287 1.366 . S
C1286 C1288 1.388 . S
C1287 C1286 1.366 . S
C1287 C1291 1.385 . S
C1288 H1269 0.951 . S
C1288 C1286 1.388 . S
C1288 C1289 1.366 . S
C1289 C1288 1.366 . S
C1289 C1290 1.414 . S
C1289 C1292 1.499 . S
C1290 H1270 0.950 . S
C1290 C1289 1.414 . S
C1290 C1291 1.374 . S
C1291 H1271 0.950 . S
C1291 C1287 1.385 . S
C1291 C1290 1.374 . S
C1292 C1289 1.499 . S
C1292 C1293 1.373 . S
C1292 C1294 1.389 . S
C1293 H1272 0.950 . S
C1293 C1292 1.373 . S
C1293 C1309 1.377 . S
C1294 C1292 1.389 . S
C1294 C1295 1.524 . S
C1294 C1308 1.377 . S
C1295 C1294 1.524 . S
C1295 C1296 1.397 . S
C1295 C1300 1.363 . S
C1296 H1273 0.950 . S
C1296 C1295 1.397 . S
C1296 C1297 1.334 . S
C1297 H1274 0.950 . S
C1297 C1296 1.334 . S
C1297 C1298 1.287 . S
C1298 C1297 1.287 . S
C1298 C1299 1.524 . S
C1298 H1317 0.913 . S
C1299 H1275 0.950 . S
C1299 C1298 1.524 . S
C1299 C1300 1.415 . S
C1300 H1276 0.950 . S
C1300 C1295 1.363 . S
C1300 C1299 1.415 . S
C1301 H1277 0.951 . S
C1301 C1302 1.366 . S
C1301 C1303 1.388 . S
C1302 C1301 1.366 . S
C1302 C1306 1.385 . S
C1303 H1278 0.951 . S
C1303 C1301 1.388 . S
C1303 C1304 1.366 . S
C1304 C1303 1.366 . S
C1304 C1305 1.414 . S
C1304 C1307 1.499 . S
C1305 H1279 0.950 . S
C1305 C1304 1.414 . S
C1305 C1306 1.374 . S
C1306 H1280 0.950 . S
C1306 C1302 1.385 . S
C1306 C1305 1.374 . S
C1307 C1304 1.499 . S
C1307 C1308 1.373 . S
C1307 C1309 1.389 . S
C1308 H1281 0.950 . S
C1308 C1294 1.377 . S
C1308 C1307 1.373 . S
C1309 C1293 1.377 . S
C1309 C1307 1.389 . S
C1309 C1310 1.524 . S
C1310 C1309 1.524 . S
C1310 C1311 1.397 . S
C1310 C1315 1.363 . S
C1311 H1282 0.950 . S
C1311 C1310 1.397 . S
C1311 C1312 1.334 . S
C1312 H1283 0.950 . S
C1312 C1311 1.334 . S
C1312 C1313 1.287 . S
C1313 C1312 1.287 . S
C1313 C1314 1.524 . S
C1313 H1316 0.999 . S
C1314 H1284 0.950 . S
C1314 C1313 1.524 . S
C1314 C1315 1.415 . S
C1315 H1285 0.950 . S
C1315 C1310 1.363 . S
C1315 C1314 1.415 . S
H1316 C1313 0.999 . S
H1317 C1298 0.913 . S
H1318 C1336 0.951 . S
H1319 C1338 0.951 . S
H1320 C1340 0.950 . S
H1321 C1341 0.950 . S
H1322 C1343 0.950 . S
H1323 C1346 0.950 . S
H1324 C1347 0.950 . S
H1325 C1349 0.950 . S
H1326 C1350 0.950 . S
H1327 C1351 0.951 . S
H1328 C1353 0.951 . S
H1329 C1355 0.950 . S
H1330 C1356 0.950 . S
H1331 C1358 0.950 . S
H1332 C1361 0.950 . S
H1333 C1362 0.950 . S
H1334 C1364 0.950 . S
H1335 C1365 0.950 . S
C1336 H1318 0.951 . S
C1336 C1337 1.366 . S
C1336 C1338 1.388 . S
C1337 C1336 1.366 . S
C1337 C1341 1.385 . S
C1338 H1319 0.951 . S
C1338 C1336 1.388 . S
C1338 C1339 1.366 . S
C1339 C1338 1.366 . S
C1339 C1340 1.414 . S
C1339 C1342 1.499 . S
C1340 H1320 0.950 . S
C1340 C1339 1.414 . S
C1340 C1341 1.374 . S
C1341 H1321 0.950 . S
C1341 C1337 1.385 . S
C1341 C1340 1.374 . S
C1342 C1339 1.499 . S
C1342 C1343 1.373 . S
C1342 C1344 1.389 . S
C1343 H1322 0.950 . S
C1343 C1342 1.373 . S
C1343 C1359 1.377 . S
C1344 C1342 1.389 . S
C1344 C1345 1.524 . S
C1344 C1358 1.377 . S
C1345 C1344 1.524 . S
C1345 C1346 1.397 . S
C1345 C1350 1.363 . S
C1346 H1323 0.950 . S
C1346 C1345 1.397 . S
C1346 C1347 1.334 . S
C1347 H1324 0.950 . S
C1347 C1346 1.334 . S
C1347 C1348 1.287 . S
C1348 C1347 1.287 . S
C1348 C1349 1.524 . S
C1348 H1367 0.913 . S
C1349 H1325 0.950 . S
C1349 C1348 1.524 . S
C1349 C1350 1.415 . S
C1350 H1326 0.950 . S
C1350 C1345 1.363 . S
C1350 C1349 1.415 . S
C1351 H1327 0.951 . S
C1351 C1352 1.366 . S
C1351 C1353 1.388 . S
C1352 C1351 1.366 . S
C1352 C1356 1.385 . S
C1353 H1328 0.951 . S
C1353 C1351 1.388 . S
C1353 C1354 1.366 . S
C1354 C1353 1.366 . S
C1354 C1355 1.414 . S
C1354 C1357 1.499 . S
C1355 H1329 0.950 . S
C1355 C1354 1.414 . S
C1355 C1356 1.374 . S
C1356 H1330 0.950 . S
C1356 C1352 1.385 . S
C1356 C1355 1.374 . S
C1357 C1354 1.499 . S
C1357 C1358 1.373 . S
C1357 C1359 1.389 . S
C1358 H1331 0.950 . S
C1358 C1344 1.377 . S
C1358 C1357 1.373 . S
C1359 C1343 1.377 . S
C1359 C1357 1.389 . S
C1359 C1360 1.524 . S
C1360 C1359 1.524 . S
C1360 C1361 1.397 . S
C1360 C1365 1.363 . S
C1361 H1332 0.950 . S
C1361 C1360 1.397 . S
C1361 C1362 1.334 . S
C1362 H1333 0.950 . S
C1362 C1361 1.334 . S
C1362 C1363 1.287 . S
C1363 C1362 1.287 . S
C1363 C1364 1.524 . S
C1363 H1366 0.999 . S
C1364 H1334 0.950 . S
C1364 C1363 1.524 . S
C1364 C1365 1.415 . S
C1365 H1335 0.950 . S
C1365 C1360 1.363 . S
C1365 C1364 1.415 . S
H1366 C1363 0.999 . S
H1367 C1348 0.913 . S
C187 C8 1.911 . S
C202 C162 1.911 . S
C237 C92 1.911 . S
C252 C22 1.911 . S
C287 C36 1.911 . S
C302 C106 1.911 . S
C337 C120 1.911 . S
C352 C50 1.911 . S
C387 C134 1.911 . S
C402 C64 1.911 . S
C437 C148 1.911 . S
C452 C78 1.911 . S
C487 C49 0.848 . S
C502 C119 0.849 . S
C537 C63 0.848 . S
C552 C133 0.849 . S
C587 C77 0.849 . S
C602 C147 0.849 . S
C637 C161 0.848 . S
C652 C7 0.849 . S
C687 C21 0.848 . S
C702 C91 0.849 . S
C737 C35 0.849 . S
C752 C105 0.849 . S
C787 C121 1.826 . S
C802 C9 1.826 . S
C837 C135 1.827 . S
C852 C23 1.827 . S
C887 C37 1.826 . S
C902 C149 1.826 . S
C937 C51 1.827 . S
C952 C163 1.827 . S
C987 C65 1.826 . S
C1002 C93 1.826 . S
C1037 C107 1.826 . S
C1052 C79 1.826 . S
C1087 C6 1.740 . S
C1102 C146 1.739 . S
C1137 C160 1.739 . S
C1152 C20 1.740 . S
C1187 C34 1.740 . S
C1202 C90 1.740 . S
C1237 C48 1.739 . S
C1252 C104 1.740 . S
C1287 C62 1.740 . S
C1302 C118 1.739 . S
C1337 C76 1.740 . S
C1352 C132 1.739 . S
