# Generated by pormake.
# Topology unu, (4)-cn, num edge types: 1
# Building blocks:
#     Node 0, Type 0, BuildingBlock: NAHDIM_clean_sbu_0, # of connection points: 4
#     Node 1, Type 0, BuildingBlock: NAHDIM_clean_sbu_0, # of connection points: 4
#     Node 2, Type 0, BuildingBlock: NAHDIM_clean_sbu_0, # of connection points: 4
#     Node 3, Type 0, BuildingBlock: NAHDIM_clean_sbu_0, # of connection points: 4
#     Node 4, Type 0, BuildingBlock: NAHDIM_clean_sbu_0, # of connection points: 4
#     Node 5, Type 0, BuildingBlock: NAHDIM_clean_sbu_0, # of connection points: 4
#     Node 6, Type 0, BuildingBlock: NAHDIM_clean_sbu_0, # of connection points: 4
#     Node 7, Type 0, BuildingBlock: NAHDIM_clean_sbu_0, # of connection points: 4
#     Node 8, Type 0, BuildingBlock: NAHDIM_clean_sbu_0, # of connection points: 4
#     Node 9, Type 0, BuildingBlock: NAHDIM_clean_sbu_0, # of connection points: 4
#     Node 10, Type 0, BuildingBlock: NAHDIM_clean_sbu_0, # of connection points: 4
#     Node 11, Type 0, BuildingBlock: NAHDIM_clean_sbu_0, # of connection points: 4
#     Node 12, Type 0, BuildingBlock: NAHDIM_clean_sbu_0, # of connection points: 4
#     Node 13, Type 0, BuildingBlock: NAHDIM_clean_sbu_0, # of connection points: 4
#     Node 14, Type 0, BuildingBlock: NAHDIM_clean_sbu_0, # of connection points: 4
#     Node 15, Type 0, BuildingBlock: NAHDIM_clean_sbu_0, # of connection points: 4
#     Node 16, Type 0, BuildingBlock: NAHDIM_clean_sbu_0, # of connection points: 4
#     Node 17, Type 0, BuildingBlock: NAHDIM_clean_sbu_0, # of connection points: 4
#     Node 18, Type 0, BuildingBlock: NAHDIM_clean_sbu_0, # of connection points: 4
#     Node 19, Type 0, BuildingBlock: NAHDIM_clean_sbu_0, # of connection points: 4
#     Node 20, Type 0, BuildingBlock: NAHDIM_clean_sbu_0, # of connection points: 4
#     Node 21, Type 0, BuildingBlock: NAHDIM_clean_sbu_0, # of connection points: 4
#     Node 22, Type 0, BuildingBlock: NAHDIM_clean_sbu_0, # of connection points: 4
#     Node 23, Type 0, BuildingBlock: NAHDIM_clean_sbu_0, # of connection points: 4
#     Node 24, Type 0, BuildingBlock: NAHDIM_clean_sbu_0, # of connection points: 4
#     Node 25, Type 0, BuildingBlock: NAHDIM_clean_sbu_0, # of connection points: 4
#     Node 26, Type 0, BuildingBlock: NAHDIM_clean_sbu_0, # of connection points: 4
#     Node 27, Type 0, BuildingBlock: NAHDIM_clean_sbu_0, # of connection points: 4
#     Node 28, Type 0, BuildingBlock: NAHDIM_clean_sbu_0, # of connection points: 4
#     Node 29, Type 0, BuildingBlock: NAHDIM_clean_sbu_0, # of connection points: 4
#     Node 30, Type 0, BuildingBlock: NAHDIM_clean_sbu_0, # of connection points: 4
#     Node 31, Type 0, BuildingBlock: NAHDIM_clean_sbu_0, # of connection points: 4
#     Node 32, Type 0, BuildingBlock: NAHDIM_clean_sbu_0, # of connection points: 4
#     Node 33, Type 0, BuildingBlock: NAHDIM_clean_sbu_0, # of connection points: 4
#     Node 34, Type 0, BuildingBlock: NAHDIM_clean_sbu_0, # of connection points: 4
#     Node 35, Type 0, BuildingBlock: NAHDIM_clean_sbu_0, # of connection points: 4
#     Edge 36, Type (0, 0), BuildingBlock: AJUNOK_clean_linker_0, # of connection points: 2
#     Edge 37, Type (0, 0), BuildingBlock: AJUNOK_clean_linker_0, # of connection points: 2
#     Edge 38, Type (0, 0), BuildingBlock: AJUNOK_clean_linker_0, # of connection points: 2
#     Edge 39, Type (0, 0), BuildingBlock: AJUNOK_clean_linker_0, # of connection points: 2
#     Edge 40, Type (0, 0), BuildingBlock: AJUNOK_clean_linker_0, # of connection points: 2
#     Edge 41, Type (0, 0), BuildingBlock: AJUNOK_clean_linker_0, # of connection points: 2
#     Edge 42, Type (0, 0), BuildingBlock: AJUNOK_clean_linker_0, # of connection points: 2
#     Edge 43, Type (0, 0), BuildingBlock: AJUNOK_clean_linker_0, # of connection points: 2
#     Edge 44, Type (0, 0), BuildingBlock: AJUNOK_clean_linker_0, # of connection points: 2
#     Edge 45, Type (0, 0), BuildingBlock: AJUNOK_clean_linker_0, # of connection points: 2
#     Edge 46, Type (0, 0), BuildingBlock: AJUNOK_clean_linker_0, # of connection points: 2
#     Edge 47, Type (0, 0), BuildingBlock: AJUNOK_clean_linker_0, # of connection points: 2
#     Edge 48, Type (0, 0), BuildingBlock: AJUNOK_clean_linker_0, # of connection points: 2
#     Edge 49, Type (0, 0), BuildingBlock: AJUNOK_clean_linker_0, # of connection points: 2
#     Edge 50, Type (0, 0), BuildingBlock: AJUNOK_clean_linker_0, # of connection points: 2
#     Edge 51, Type (0, 0), BuildingBlock: AJUNOK_clean_linker_0, # of connection points: 2
#     Edge 52, Type (0, 0), BuildingBlock: AJUNOK_clean_linker_0, # of connection points: 2
#     Edge 53, Type (0, 0), BuildingBlock: AJUNOK_clean_linker_0, # of connection points: 2
#     Edge 54, Type (0, 0), BuildingBlock: AJUNOK_clean_linker_0, # of connection points: 2
#     Edge 55, Type (0, 0), BuildingBlock: AJUNOK_clean_linker_0, # of connection points: 2
#     Edge 56, Type (0, 0), BuildingBlock: AJUNOK_clean_linker_0, # of connection points: 2
#     Edge 57, Type (0, 0), BuildingBlock: AJUNOK_clean_linker_0, # of connection points: 2
#     Edge 58, Type (0, 0), BuildingBlock: AJUNOK_clean_linker_0, # of connection points: 2
#     Edge 59, Type (0, 0), BuildingBlock: AJUNOK_clean_linker_0, # of connection points: 2
#     Edge 60, Type (0, 0), BuildingBlock: AJUNOK_clean_linker_0, # of connection points: 2
#     Edge 61, Type (0, 0), BuildingBlock: AJUNOK_clean_linker_0, # of connection points: 2
#     Edge 62, Type (0, 0), BuildingBlock: AJUNOK_clean_linker_0, # of connection points: 2
#     Edge 63, Type (0, 0), BuildingBlock: AJUNOK_clean_linker_0, # of connection points: 2
#     Edge 64, Type (0, 0), BuildingBlock: AJUNOK_clean_linker_0, # of connection points: 2
#     Edge 65, Type (0, 0), BuildingBlock: AJUNOK_clean_linker_0, # of connection points: 2
#     Edge 66, Type (0, 0), BuildingBlock: AJUNOK_clean_linker_0, # of connection points: 2
#     Edge 67, Type (0, 0), BuildingBlock: AJUNOK_clean_linker_0, # of connection points: 2
#     Edge 68, Type (0, 0), BuildingBlock: AJUNOK_clean_linker_0, # of connection points: 2
#     Edge 69, Type (0, 0), BuildingBlock: AJUNOK_clean_linker_0, # of connection points: 2
#     Edge 70, Type (0, 0), BuildingBlock: AJUNOK_clean_linker_0, # of connection points: 2
#     Edge 71, Type (0, 0), BuildingBlock: AJUNOK_clean_linker_0, # of connection points: 2
#     Edge 72, Type (0, 0), BuildingBlock: AJUNOK_clean_linker_0, # of connection points: 2
#     Edge 73, Type (0, 0), BuildingBlock: AJUNOK_clean_linker_0, # of connection points: 2
#     Edge 74, Type (0, 0), BuildingBlock: AJUNOK_clean_linker_0, # of connection points: 2
#     Edge 75, Type (0, 0), BuildingBlock: AJUNOK_clean_linker_0, # of connection points: 2
#     Edge 76, Type (0, 0), BuildingBlock: AJUNOK_clean_linker_0, # of connection points: 2
#     Edge 77, Type (0, 0), BuildingBlock: AJUNOK_clean_linker_0, # of connection points: 2
#     Edge 78, Type (0, 0), BuildingBlock: AJUNOK_clean_linker_0, # of connection points: 2
#     Edge 79, Type (0, 0), BuildingBlock: AJUNOK_clean_linker_0, # of connection points: 2
#     Edge 80, Type (0, 0), BuildingBlock: AJUNOK_clean_linker_0, # of connection points: 2
#     Edge 81, Type (0, 0), BuildingBlock: AJUNOK_clean_linker_0, # of connection points: 2
#     Edge 82, Type (0, 0), BuildingBlock: AJUNOK_clean_linker_0, # of connection points: 2
#     Edge 83, Type (0, 0), BuildingBlock: AJUNOK_clean_linker_0, # of connection points: 2
#     Edge 84, Type (0, 0), BuildingBlock: AJUNOK_clean_linker_0, # of connection points: 2
#     Edge 85, Type (0, 0), BuildingBlock: AJUNOK_clean_linker_0, # of connection points: 2
#     Edge 86, Type (0, 0), BuildingBlock: AJUNOK_clean_linker_0, # of connection points: 2
#     Edge 87, Type (0, 0), BuildingBlock: AJUNOK_clean_linker_0, # of connection points: 2
#     Edge 88, Type (0, 0), BuildingBlock: AJUNOK_clean_linker_0, # of connection points: 2
#     Edge 89, Type (0, 0), BuildingBlock: AJUNOK_clean_linker_0, # of connection points: 2
#     Edge 90, Type (0, 0), BuildingBlock: AJUNOK_clean_linker_0, # of connection points: 2
#     Edge 91, Type (0, 0), BuildingBlock: AJUNOK_clean_linker_0, # of connection points: 2
#     Edge 92, Type (0, 0), BuildingBlock: AJUNOK_clean_linker_0, # of connection points: 2
#     Edge 93, Type (0, 0), BuildingBlock: AJUNOK_clean_linker_0, # of connection points: 2
#     Edge 94, Type (0, 0), BuildingBlock: AJUNOK_clean_linker_0, # of connection points: 2
#     Edge 95, Type (0, 0), BuildingBlock: AJUNOK_clean_linker_0, # of connection points: 2
#     Edge 96, Type (0, 0), BuildingBlock: AJUNOK_clean_linker_0, # of connection points: 2
#     Edge 97, Type (0, 0), BuildingBlock: AJUNOK_clean_linker_0, # of connection points: 2
#     Edge 98, Type (0, 0), BuildingBlock: AJUNOK_clean_linker_0, # of connection points: 2
#     Edge 99, Type (0, 0), BuildingBlock: AJUNOK_clean_linker_0, # of connection points: 2
#     Edge 100, Type (0, 0), BuildingBlock: AJUNOK_clean_linker_0, # of connection points: 2
#     Edge 101, Type (0, 0), BuildingBlock: AJUNOK_clean_linker_0, # of connection points: 2
#     Edge 102, Type (0, 0), BuildingBlock: AJUNOK_clean_linker_0, # of connection points: 2
#     Edge 103, Type (0, 0), BuildingBlock: AJUNOK_clean_linker_0, # of connection points: 2
#     Edge 104, Type (0, 0), BuildingBlock: AJUNOK_clean_linker_0, # of connection points: 2
#     Edge 105, Type (0, 0), BuildingBlock: AJUNOK_clean_linker_0, # of connection points: 2
#     Edge 106, Type (0, 0), BuildingBlock: AJUNOK_clean_linker_0, # of connection points: 2
#     Edge 107, Type (0, 0), BuildingBlock: AJUNOK_clean_linker_0, # of connection points: 2
# Relax obj value: 0.298
# Max RMSD: 0.283
# Mean RMSD: 0.283
data_MOF--net-unu--node1-NAHDIM_clean_sbu_0--edge1-AJUNOK_clean_linker_0
_symmetry_space_group_name_H-M    P1
_symmetry_Int_Tables_number       1
_symmetry_cell_setting            triclinic
loop_
_symmetry_equiv_pos_as_xyz
'x, y, z'
_cell_length_a     29.392849
_cell_length_b     29.465881
_cell_length_c     92.681308
_cell_angle_alpha  90.044023
_cell_angle_beta   90.118362
_cell_angle_gamma 119.99293
loop_
_atom_site_label
_atom_site_type_symbol
_atom_site_fract_x
_atom_site_fract_y
_atom_site_fract_z
_atom_type_partial_charge
C0 C 0.31853 0.07913 0.09222 0.0
O1 O 0.31792 0.07061 0.10614 0.0
O2 O 0.17474 0.02328 0.1026 0.0
Zn3 Zn 0.23736 0.09599 0.10151 0.0
O4 O 0.27448 0.12054 0.12053 0.0
C5 C 0.21478 0.18169 0.10293 0.0
O6 O 0.25297 0.20175 0.11248 0.0
O7 O 0.28754 0.0937 0.08719 0.0
C8 C 0.25217 0.11106 0.13274 0.0
O9 O 0.20072 0.08287 0.13339 0.0
C10 C 0.17028 0.98253 0.10862 0.0
O11 O 0.21041 0.98529 0.11566 0.0
O12 O 0.20608 0.1408 0.096 0.0
C13 C 0.94175 0.27972 0.10394 0.0
O14 O 0.95476 0.28967 0.11762 0.0
O15 O 0.99794 0.18391 0.11052 0.0
Zn16 Zn 0.92813 0.18079 0.11232 0.0
O17 O 0.91244 0.19168 0.13258 0.0
C18 C 0.88276 0.08211 0.09786 0.0
O19 O 0.92398 0.10817 0.08953 0.0
O20 O 0.9267 0.23392 0.09913 0.0
C21 C 0.90879 0.15987 0.14235 0.0
O22 O 0.92109 0.12377 0.13929 0.0
C23 C 0.04339 0.22427 0.10979 0.0
O24 O 0.04869 0.27107 0.11105 0.0
O25 O 0.87361 0.10699 0.10752 0.0
C26 C 0.74605 0.70508 0.09836 0.0
O27 O 0.7386 0.71992 0.11108 0.0
O28 O 0.84565 0.84944 0.10257 0.0
Zn29 Zn 0.84803 0.78352 0.10599 0.0
O30 O 0.8328 0.75994 0.12663 0.0
C31 C 0.95625 0.81161 0.11131 0.0
O32 O 0.93888 0.79722 0.1245 0.0
O33 O 0.79254 0.72689 0.09333 0.0
C34 C 0.82756 0.71514 0.12902 0.0
O35 O 0.83188 0.68895 0.11813 0.0
C36 C 0.81365 0.8632 0.10714 0.0
O37 O 0.77519 0.83184 0.11572 0.0
O38 O 0.92355 0.8046 0.1013 0.0
C39 C 0.07965 0.3071 0.39211 0.0
O40 O 0.06546 0.30798 0.37871 0.0
O41 O 0.02061 0.17183 0.37705 0.0
Zn42 Zn 0.09521 0.23101 0.37891 0.0
O43 O 0.11518 0.27242 0.36061 0.0
C44 C 0.12241 0.15823 0.3902 0.0
O45 O 0.08306 0.14934 0.39867 0.0
O46 O 0.09801 0.27732 0.39524 0.0
C47 C 0.13172 0.25973 0.34957 0.0
O48 O 0.1374 0.21827 0.35011 0.0
C49 C 0.9875 0.15686 0.38731 0.0
O50 O 0.00086 0.18327 0.39949 0.0
O51 O 0.13941 0.19657 0.3815 0.0
C52 C 0.67538 0.74197 0.39815 0.0
O53 O 0.67803 0.7324 0.38443 0.0
O54 O 0.82168 0.82527 0.39086 0.0
Zn55 Zn 0.76034 0.83707 0.38895 0.0
O56 O 0.72984 0.82437 0.36894 0.0
C57 C 0.82129 0.94115 0.38299 0.0
O58 O 0.82539 0.91653 0.37168 0.0
O59 O 0.7059 0.78792 0.40293 0.0
C60 C 0.69742 0.8403 0.3668 0.0
O61 O 0.68593 0.86169 0.3776 0.0
C62 C 0.83213 0.79328 0.38459 0.0
O63 O 0.80048 0.76204 0.3745 0.0
O64 O 0.79107 0.91397 0.39321 0.0
C65 C 0.23949 0.90186 0.38987 0.0
O66 O 0.25266 0.91603 0.3764 0.0
O67 O 0.1411 0.94947 0.37988 0.0
Zn68 Zn 0.14189 0.88157 0.37841 0.0
O69 O 0.16382 0.86874 0.35899 0.0
C70 C 0.0443 0.8341 0.39268 0.0
O71 O 0.07378 0.86977 0.40224 0.0
O72 O 0.19173 0.88308 0.39353 0.0
C73 C 0.13046 0.8405 0.34947 0.0
O74 O 0.08036 0.82308 0.35184 0.0
C75 C 0.17748 0.99703 0.37913 0.0
O76 O 0.22525 0.00833 0.37559 0.0
O77 O 0.06667 0.82683 0.38194 0.0
C78 C 0.66854 0.91093 0.89124 0.0
O79 O 0.65487 0.90601 0.87759 0.0
O80 O 0.83028 0.97348 0.8817 0.0
Zn81 Zn 0.75844 0.90979 0.87954 0.0
O82 O 0.72741 0.90551 0.86003 0.0
C83 C 0.80157 0.85091 0.8912 0.0
O84 O 0.81461 0.88624 0.90142 0.0
O85 O 0.71047 0.9111 0.89477 0.0
C86 C 0.74068 0.88834 0.84923 0.0
O87 O 0.77892 0.87781 0.85067 0.0
C88 C 0.842 0.01846 0.88649 0.0
O89 O 0.80442 0.02882 0.88943 0.0
O90 O 0.77098 0.8491 0.88125 0.0
C91 C 0.06701 0.7414 0.88725 0.0
O92 O 0.04406 0.73234 0.87456 0.0
O93 O 0.00056 0.81966 0.8846 0.0
Zn94 Zn 0.07426 0.83628 0.88039 0.0
O95 O 0.08731 0.82793 0.85954 0.0
C96 C 0.10384 0.93806 0.87637 0.0
O97 O 0.06793 0.9109 0.86659 0.0
O98 O 0.08757 0.78748 0.89246 0.0
C99 C 0.13559 0.84646 0.85656 0.0
O100 O 0.17017 0.86682 0.86706 0.0
C101 C 0.95895 0.79655 0.87708 0.0
O102 O 0.96058 0.77822 0.86428 0.0
O103 O 0.11807 0.9135 0.88487 0.0
C104 C 0.25702 0.3109 0.89353 0.0
O105 O 0.26488 0.30716 0.87973 0.0
O106 O 0.16182 0.18414 0.87662 0.0
Zn107 Zn 0.15652 0.24664 0.8829 0.0
O108 O 0.1713 0.29466 0.86612 0.0
C109 C 0.06171 0.1738 0.89619 0.0
O110 O 0.0944 0.16176 0.90243 0.0
O111 O 0.21017 0.28663 0.89826 0.0
C112 C 0.1493 0.27817 0.85396 0.0
O113 O 0.11474 0.22816 0.8524 0.0
C114 C 0.17949 0.16064 0.88431 0.0
O115 O 0.20376 0.18214 0.89648 0.0
O116 O 0.08041 0.21532 0.88866 0.0
C117 C 0.86542 0.6343 0.59217 0.0
O118 O 0.85029 0.62019 0.60554 0.0
O119 O 0.95329 0.80042 0.59784 0.0
Zn120 Zn 0.88564 0.73477 0.60247 0.0
O121 O 0.88667 0.70823 0.62225 0.0
C122 C 0.83433 0.78916 0.59288 0.0
O123 O 0.86745 0.80002 0.58217 0.0
O124 O 0.87663 0.67993 0.58807 0.0
C125 C 0.87539 0.72611 0.63328 0.0
O126 O 0.86841 0.76656 0.63178 0.0
C127 C -0.00043 0.81506 0.60221 0.0
O128 O 0.00748 0.78566 0.61136 0.0
O129 O 0.8301 0.7556 0.60216 0.0
C130 C 0.30574 0.22685 0.59572 0.0
O131 O 0.30781 0.23632 0.60963 0.0
O132 O 0.15525 0.14075 0.60379 0.0
Zn133 Zn 0.21813 0.13133 0.6051 0.0
O134 O 0.2464 0.14615 0.62526 0.0
C135 C 0.15558 0.03188 0.59174 0.0
O136 O 0.14271 0.06024 0.58361 0.0
O137 O 0.27173 0.18179 0.59108 0.0
C138 C 0.2793 0.13224 0.6289 0.0
O139 O 0.29339 0.10884 0.61929 0.0
C140 C 0.15462 0.18297 0.60603 0.0
O141 O 0.19798 0.22534 0.60999 0.0
O142 O 0.19188 0.0551 0.60103 0.0
C143 C 0.73498 0.05348 0.59915 0.0
O144 O 0.72722 0.03213 0.612 0.0
O145 O 0.82414 -0.0009 0.60277 0.0
Zn146 Zn 0.83583 0.07165 0.60598 0.0
O147 O 0.83027 0.08651 0.62691 0.0
C148 C 0.94596 0.15574 0.60661 0.0
O149 O 0.93266 0.1718 0.61822 0.0
O150 O 0.78136 0.07677 0.59409 0.0
C151 C 0.82528 0.12595 0.62982 0.0
O152 O 0.82186 0.1533 0.61911 0.0
C153 C 0.79473 0.95602 0.60915 0.0
O154 O 0.76598 0.95497 0.62011 0.0
O155 O 0.91039 0.11821 0.59927 0.0
C156 C 0.98553 0.37731 0.43484 0.0
O157 O 0.9782 0.35879 0.44803 0.0
O158 O 0.83806 0.32067 0.44132 0.0
Zn159 Zn 0.90194 0.39173 0.44371 0.0
O160 O 0.92669 0.40178 0.46417 0.0
C161 C 0.84278 0.43198 0.43022 0.0
O162 O 0.83088 0.3919 0.4217 0.0
O163 O 0.95794 0.39673 0.43039 0.0
C164 C 0.96022 0.44762 0.4683 0.0
O165 O 0.97762 0.4862 0.45895 0.0
C166 C 0.82703 0.28037 0.44877 0.0
O167 O 0.85973 0.28346 0.45893 0.0
O168 O 0.87781 0.4435 0.43982 0.0
C169 C 0.59502 0.56243 0.43562 0.0
O170 O 0.61537 0.56933 0.44861 0.0
O171 O 0.64124 0.46177 0.43795 0.0
Zn172 Zn 0.57326 0.45977 0.44201 0.0
O173 O 0.56481 0.47047 0.46306 0.0
C174 C 0.48776 0.35208 0.44481 0.0
O175 O 0.48211 0.3671 0.45769 0.0
O176 O 0.57224 0.51655 0.43021 0.0
C177 C 0.5269 0.47788 0.46614 0.0
O178 O 0.49739 0.47857 0.45557 0.0
C179 C 0.68831 0.49481 0.44133 0.0
O180 O 0.69811 0.53526 0.44946 0.0
O181 O 0.51934 0.38633 0.43598 0.0
C182 C 0.40494 0.9892 0.43266 0.0
O183 O 0.39245 0.99238 0.44607 0.0
O184 O 0.49066 0.13708 0.43979 0.0
Zn185 Zn 0.50053 0.07515 0.44251 0.0
O186 O 0.48287 0.0489 0.46285 0.0
C187 C 0.60884 0.11979 0.44966 0.0
O188 O 0.58909 0.11455 0.46264 0.0
O189 O 0.45183 0.01976 0.42853 0.0
C190 C 0.48883 0.01094 0.46677 0.0
O191 O 0.50487 0.989 0.45723 0.0
C192 C 0.45237 0.14154 0.44435 0.0
O193 O 0.41535 0.10356 0.45199 0.0
O194 O 0.57783 0.10259 0.43887 0.0
C195 C 0.73837 0.66393 0.72314 0.0
O196 O 0.72468 0.65483 0.70949 0.0
O197 O 0.6882 0.52811 0.71354 0.0
Zn198 Zn 0.76215 0.58791 0.71552 0.0
O199 O 0.79151 0.62405 0.69669 0.0
C200 C 0.84564 0.56073 0.718 0.0
O201 O 0.87415 0.60165 0.70982 0.0
O202 O 0.75899 0.63941 0.72898 0.0
C203 C 0.80117 0.6037 0.6859 0.0
O204 O 0.79064 0.55487 0.68664 0.0
C205 C 0.65716 0.51565 0.70284 0.0
O206 O 0.67267 0.54441 0.69111 0.0
O207 O 0.80176 0.55313 0.72267 0.0
C208 C 0.34881 0.10392 0.72174 0.0
O209 O 0.35021 0.0897 0.70839 0.0
O210 O 0.49728 0.18688 0.71314 0.0
Zn211 Zn 0.43475 0.1963 0.7107 0.0
O212 O 0.40453 0.17428 0.6908 0.0
C213 C 0.48805 0.30092 0.70179 0.0
O214 O 0.48781 0.27596 0.69002 0.0
O215 O 0.38107 0.15084 0.72553 0.0
C216 C 0.36801 0.1826 0.68682 0.0
O217 O 0.35125 0.20534 0.69588 0.0
C218 C 0.50408 0.15213 0.70705 0.0
O219 O 0.4678 0.11836 0.69825 0.0
O220 O 0.46373 0.2742 0.71285 0.0
C221 C 0.92579 0.2815 0.72038 0.0
O222 O 0.93804 0.29429 0.70679 0.0
O223 O 0.83464 0.33676 0.71114 0.0
Zn224 Zn 0.82783 0.26549 0.71 0.0
O225 O 0.84172 0.24795 0.69013 0.0
C226 C 0.71833 0.1969 0.70482 0.0
O227 O 0.7352 0.20394 0.69145 0.0
O228 O 0.87865 0.26465 0.72436 0.0
C229 C 0.83743 0.20318 0.68836 0.0
O230 O 0.82774 0.17283 0.69966 0.0
C231 C 0.87581 0.38162 0.71179 0.0
O232 O 0.92222 0.38599 0.71021 0.0
O233 O 0.75166 0.21641 0.71504 0.0
C234 C 0.34268 0.23522 0.22445 0.0
O235 O 0.3375 0.23861 0.21047 0.0
O236 O 0.48175 0.27345 0.21112 0.0
Zn237 Zn 0.41405 0.20556 0.21388 0.0
O238 O 0.37044 0.17896 0.19583 0.0
C239 C 0.44701 0.12976 0.2105 0.0
O240 O 0.4275 0.12647 0.19754 0.0
O241 O 0.37265 0.2186 0.22894 0.0
C242 C 0.38617 0.19807 0.18336 0.0
O243 O 0.43447 0.23699 0.18177 0.0
C244 C 0.49087 0.31975 0.21354 0.0
O245 O 0.45191 0.32776 0.21668 0.0
O246 O 0.44002 0.15672 0.22006 0.0
C247 C 0.73736 0.07231 0.23063 0.0
O248 O 0.72484 0.05665 0.2172 0.0
O249 O 0.67352 0.14997 0.21759 0.0
Zn250 Zn 0.74819 0.16455 0.21805 0.0
O251 O 0.77099 0.15084 0.19893 0.0
C252 C 0.79259 0.26813 0.21066 0.0
O253 O 0.76592 0.2423 0.19918 0.0
O254 O 0.75272 0.11993 0.23366 0.0
C255 C 0.81482 0.15235 0.19797 0.0
O256 O 0.84173 0.15702 0.20976 0.0
C257 C 0.63348 0.1107 0.21214 0.0
O258 O 0.63898 0.07432 0.20552 0.0
O259 O 0.7925 0.24211 0.22163 0.0
C260 C 0.90331 0.63341 0.21716 0.0
O261 O 0.91343 0.62771 0.20369 0.0
O262 O 0.82262 0.49767 0.2045 0.0
Zn263 Zn 0.80596 0.55566 0.20708 0.0
O264 O 0.81483 0.59079 0.1881 0.0
C265 C 0.70987 0.48061 0.22016 0.0
O266 O 0.74187 0.46804 0.22659 0.0
O267 O 0.85622 0.60684 0.22159 0.0
C268 C 0.80618 0.62864 0.18661 0.0
O269 O 0.79207 0.64555 0.19792 0.0
C270 C 0.84367 0.48381 0.21425 0.0
O271 O 0.85804 0.50993 0.22648 0.0
O272 O 0.72916 0.52122 0.21227 0.0
C273 C 0.58997 0.0044 0.93163 0.0
O274 O 0.59794 0.00445 0.94557 0.0
O275 O 0.65785 0.15223 0.94054 0.0
Zn276 Zn 0.58331 0.09213 0.94047 0.0
O277 O 0.5609 0.05969 0.95991 0.0
C278 C 0.55881 0.16464 0.92789 0.0
O279 O 0.60331 0.17814 0.9213 0.0
O280 O 0.57925 0.03805 0.92651 0.0
C281 C 0.5745 0.08486 0.97171 0.0
O282 O 0.6066 0.13577 0.97147 0.0
C283 C 0.70082 0.15187 0.94137 0.0
O284 O 0.70021 0.10748 0.94344 0.0
O285 O 0.53814 0.12357 0.9356 0.0
C286 C 0.00273 0.56262 0.92441 0.0
O287 O 0.00849 0.57027 0.93841 0.0
O288 O 0.85638 0.47938 0.93555 0.0
Zn289 Zn 0.9177 0.46698 0.93439 0.0
O290 O 0.95461 0.47845 0.95342 0.0
C291 C 0.88736 0.35658 0.93626 0.0
O292 O 0.92255 0.37195 0.94662 0.0
O293 O 0.96731 0.51815 0.91975 0.0
C294 C 0.93098 0.46465 0.96544 0.0
O295 O 0.87952 0.44209 0.96566 0.0
C296 C 0.85584 0.52078 0.93907 0.0
O297 O 0.89922 0.5619 0.94363 0.0
O298 O 0.88396 0.3909 0.92875 0.0
C299 C 0.43964 0.41215 0.93119 0.0
O300 O 0.43389 0.40672 0.94524 0.0
O301 O 0.53793 0.36844 0.9424 0.0
Zn302 Zn 0.54168 0.43809 0.93998 0.0
O303 O 0.53187 0.46806 0.95843 0.0
C304 C 0.65234 0.50656 0.94203 0.0
O305 O 0.6397 0.5111 0.95532 0.0
O306 O 0.4851 0.42821 0.92589 0.0
C307 C 0.52292 0.44589 0.97066 0.0
O308 O 0.52014 0.40013 0.97172 0.0
C309 C 0.50164 0.32406 0.93799 0.0
O310 O 0.45748 0.31917 0.93308 0.0
O311 O 0.61587 0.48272 0.93278 0.0
C312 C 0.6515 0.7633 0.75884 0.0
O313 O 0.64902 0.75434 0.77278 0.0
O314 O 0.51211 0.72806 0.77063 0.0
Zn315 Zn 0.581 0.79495 0.76798 0.0
O316 O 0.6225 0.81971 0.78632 0.0
C317 C 0.56103 0.882 0.76927 0.0
O318 O 0.5932 0.89736 0.78037 0.0
O319 O 0.62481 0.78261 0.7536 0.0
C320 C 0.60443 0.81817 0.79882 0.0
O321 O 0.55388 0.80036 0.80045 0.0
C322 C 0.49961 0.68218 0.76642 0.0
O323 O 0.53578 0.67309 0.7612 0.0
O324 O 0.55727 0.8449 0.76141 0.0
C325 C 0.26432 0.93912 0.76407 0.0
O326 O 0.28016 0.9511 0.77751 0.0
O327 O 0.33199 0.85949 0.77043 0.0
Zn328 Zn 0.25808 0.84477 0.7732 0.0
O329 O 0.2447 0.85738 0.79361 0.0
C330 C 0.21625 0.73928 0.77868 0.0
O331 O 0.24711 0.76264 0.78979 0.0
O332 O 0.24855 0.89265 0.75968 0.0
C333 C 0.19728 0.84082 0.7972 0.0
O334 O 0.1604 0.81835 0.78733 0.0
C335 C 0.3741 0.898 0.77526 0.0
O336 O 0.37163 0.93241 0.78376 0.0
O337 O 0.21187 0.76763 0.76904 0.0
C338 C 0.09113 0.36722 0.76341 0.0
O339 O 0.0789 0.36438 0.77713 0.0
O340 O 0.17141 0.50208 0.78039 0.0
Zn341 Zn 0.18596 0.44365 0.77564 0.0
O342 O 0.17299 0.39859 0.79303 0.0
C343 C 0.27977 0.52017 0.76262 0.0
O344 O 0.24543 0.5287 0.75589 0.0
O345 O 0.13801 0.39943 0.75962 0.0
C346 C 0.19808 0.41763 0.8047 0.0
O347 O 0.23323 0.46775 0.80523 0.0
C348 C 0.15092 0.51953 0.77146 0.0
O349 O 0.13249 0.49469 0.75918 0.0
O350 O 0.26319 0.48036 0.77076 0.0
C351 C 0.40569 0.9851 0.0548 0.0
O352 O 0.39146 0.97814 0.04117 0.0
O353 O 0.34511 0.84725 0.04547 0.0
Zn354 Zn 0.42106 0.90317 0.04645 0.0
O355 O 0.44833 0.93572 0.02711 0.0
C356 C 0.49738 0.86664 0.04649 0.0
O357 O 0.52236 0.90281 0.03669 0.0
O358 O 0.42382 0.95754 0.06015 0.0
C359 C 0.48928 0.98071 0.02646 0.0
O360 O 0.51243 0.00476 0.03851 0.0
C361 C 0.30915 0.8428 0.03697 0.0
O362 O 0.32047 0.87782 0.02679 0.0
O363 O 0.45777 0.86413 0.05281 0.0
C364 C 0.00609 0.44357 0.06124 0.0
O365 O 0.99727 0.42874 0.04767 0.0
O366 O 0.15084 0.5315 0.04701 0.0
Zn367 Zn 0.08436 0.53549 0.0476 0.0
O368 O 0.04186 0.51134 0.0293 0.0
C369 C 0.11845 0.64182 0.03963 0.0
O370 O 0.0976 0.6195 0.02723 0.0
O371 O 0.04103 0.4905 0.06415 0.0
C372 C 0.0587 0.50627 0.01717 0.0
O373 O 0.10773 0.51727 0.01604 0.0
C374 C 0.15802 0.49519 0.05186 0.0
O375 O 0.11776 0.4514 0.05648 0.0
O376 O 0.11192 0.61281 0.0505 0.0
C377 C 0.56674 0.5855 0.0609 0.0
O378 O 0.57554 0.58377 0.04707 0.0
O379 O 0.48029 0.63863 0.04476 0.0
Zn380 Zn 0.4698 0.56683 0.04918 0.0
O381 O 0.48122 0.53245 0.03195 0.0
C382 C 0.3747 0.54858 0.06159 0.0
O383 O 0.40749 0.59489 0.06702 0.0
O384 O 0.52136 0.57599 0.06485 0.0
C385 C 0.48931 0.55115 0.01928 0.0
O386 O 0.48995 0.59548 0.01703 0.0
C387 C 0.52176 0.68272 0.04657 0.0
O388 O 0.56578 0.68447 0.05023 0.0
O389 O 0.3933 0.52421 0.0547 0.0
C390 C 0.97982 0.56157 0.55836 0.0
O391 O 0.98968 0.57717 0.54488 0.0
O392 O 0.12742 0.63776 0.55461 0.0
Zn393 Zn 0.07274 0.56151 0.55281 0.0
O394 O 0.05095 0.54306 0.53212 0.0
C395 C 0.15091 0.53996 0.55022 0.0
O396 O 0.15489 0.57056 0.53942 0.0
O397 O 0.01024 0.54881 0.5647 0.0
C398 C 0.02614 0.49531 0.52828 0.0
O399 O 0.0151 0.45896 0.53804 0.0
C400 C 0.14003 0.67113 0.54456 0.0
O401 O 0.11265 0.65715 0.53253 0.0
O402 O 0.11182 0.52421 0.55869 0.0
C403 C 0.39339 0.40577 0.55745 0.0
O404 O 0.3778 0.39975 0.54394 0.0
O405 O 0.35471 0.50798 0.54865 0.0
Zn406 Zn 0.4234 0.50946 0.5499 0.0
O407 O 0.44192 0.50015 0.52978 0.0
C408 C 0.50406 0.61827 0.54856 0.0
O409 O 0.51365 0.60452 0.53596 0.0
O410 O 0.41638 0.45166 0.56283 0.0
C411 C 0.479 0.49199 0.52636 0.0
O412 O 0.50809 0.48851 0.53661 0.0
C413 C 0.31597 0.48771 0.55726 0.0
O414 O 0.31569 0.45863 0.56803 0.0
O415 O 0.47224 0.58278 0.55709 0.0
C416 C 0.55804 0.97262 0.56026 0.0
O417 O 0.56788 0.97709 0.54636 0.0
O418 O 0.47683 0.82044 0.55169 0.0
Zn419 Zn 0.46525 0.88187 0.55025 0.0
O420 O 0.48085 0.91117 0.53015 0.0
C421 C 0.35859 0.82902 0.54325 0.0
O422 O 0.38068 0.82731 0.53112 0.0
O423 O 0.51391 0.9358 0.56463 0.0
C424 C 0.46705 0.94425 0.52668 0.0
O425 O 0.44534 0.95941 0.53653 0.0
C426 C 0.51972 0.82158 0.54892 0.0
O427 O 0.56026 0.86542 0.54444 0.0
O428 O 0.38788 0.85305 0.554 0.0
C429 C 0.28005 0.35224 0.26196 0.0
O430 O 0.29567 0.36125 0.27547 0.0
O431 O 0.32178 0.48826 0.27386 0.0
Zn432 Zn 0.25095 0.42417 0.27077 0.0
O433 O 0.22547 0.38535 0.28942 0.0
C434 C 0.22508 0.49168 0.25604 0.0
O435 O 0.26952 0.50307 0.24974 0.0
O436 O 0.25802 0.37629 0.25667 0.0
C437 C 0.19068 0.38586 0.29739 0.0
O438 O 0.16938 0.41397 0.29352 0.0
C439 C 0.32097 0.52369 0.28148 0.0
O440 O 0.27699 0.513 0.28795 0.0
O441 O 0.20388 0.45223 0.26438 0.0
C442 C 0.64217 0.92609 0.2772 0.0
O443 O 0.64551 0.94519 0.29022 0.0
O444 O 0.50226 0.88285 0.28789 0.0
Zn445 Zn 0.54709 0.84901 0.28927 0.0
O446 O 0.57919 0.85608 0.30883 0.0
C447 C 0.49984 0.73605 0.28023 0.0
O448 O 0.54501 0.74552 0.27481 0.0
O449 O 0.60325 0.88134 0.27421 0.0
C450 C 0.60703 0.83448 0.31039 0.0
O451 O 0.61375 0.81101 0.29922 0.0
C452 C 0.48734 0.88492 0.27512 0.0
O453 O 0.5067 0.8707 0.26441 0.0
O454 O 0.49598 0.77296 0.28604 0.0
C455 C 0.07945 0.72783 0.25689 0.0
O456 O 0.0713 0.71806 0.27076 0.0
O457 O 0.19219 0.69368 0.26525 0.0
Zn458 Zn 0.18273 0.75679 0.26611 0.0
O459 O 0.16317 0.76809 0.28599 0.0
C460 C 0.28115 0.85673 0.26892 0.0
O461 O 0.25747 0.86704 0.27935 0.0
O462 O 0.12594 0.74665 0.25206 0.0
C463 C 0.18984 0.77314 0.29728 0.0
O464 O 0.23201 0.76866 0.29631 0.0
C465 C 0.15809 0.64609 0.26282 0.0
O466 O 0.10831 0.63249 0.26171 0.0
O467 O 0.25469 0.81644 0.26107 0.0
C468 C 0.33908 0.16772 0.14459 0.0
C469 C 0.28471 0.13275 0.14592 0.0
C470 C 0.37132 0.1889 0.15673 0.0
C471 C 0.35069 0.17577 0.17074 0.0
H472 H 0.35718 0.17904 0.13405 0.0
H473 H 0.4129 0.21539 0.15507 0.0
S474 S 0.21069 0.08684 0.18026 0.0
N475 N 0.21148 0.08657 0.16245 0.0
N476 N 0.27207 0.12625 0.18531 0.0
C477 C 0.29631 0.14107 0.17228 0.0
C478 C 0.26335 0.11965 0.15988 0.0
C479 C 0.87195 0.13406 0.18192 0.0
C480 C 0.83775 0.15402 0.18369 0.0
C481 C 0.89502 0.13632 0.16851 0.0
C482 C 0.88574 0.15985 0.15652 0.0
H483 H 0.88047 0.11599 0.19091 0.0
H484 H 0.92054 0.11978 0.16757 0.0
S485 S 0.80077 0.21996 0.15575 0.0
N486 N 0.79638 0.19888 0.17246 0.0
N487 N 0.84053 0.20427 0.14738 0.0
C488 C 0.85225 0.18078 0.15824 0.0
C489 C 0.82798 0.1775 0.17179 0.0
C490 C 0.81851 0.62772 0.16005 0.0
C491 C 0.81081 0.65193 0.17216 0.0
C492 C 0.82314 0.64821 0.14621 0.0
C493 C 0.8206 0.69401 0.14384 0.0
H494 H 0.82094 0.59241 0.16122 0.0
H495 H 0.82928 0.628 0.13731 0.0
S496 S 0.80038 0.77244 0.17182 0.0
N497 N 0.80032 0.72415 0.18086 0.0
N498 N 0.80926 0.76288 0.15475 0.0
C499 C 0.81264 0.71866 0.15581 0.0
C500 C 0.80768 0.69757 0.16997 0.0
C501 C 0.17589 0.28632 0.32562 0.0
C502 C 0.14528 0.2919 0.33632 0.0
C503 C 0.19031 0.31695 0.31312 0.0
C504 C 0.17427 0.35409 0.31074 0.0
H505 H 0.18945 0.25848 0.32694 0.0
H506 H 0.21416 0.3112 0.30524 0.0
S507 S 0.09229 0.38296 0.33531 0.0
N508 N 0.09846 0.33685 0.34365 0.0
N509 N 0.12537 0.39424 0.32011 0.0
C510 C 0.1431 0.35972 0.32129 0.0
C511 C 0.12871 0.32873 0.33409 0.0
C512 C 0.64485 0.86204 0.34991 0.0
C513 C 0.67454 0.83728 0.35232 0.0
C514 C 0.62344 0.86102 0.33634 0.0
C515 C 0.63068 0.83508 0.32459 0.0
H516 H 0.63823 0.88284 0.35855 0.0
H517 H 0.60104 0.88087 0.33509 0.0
S518 S 0.7044 0.76295 0.32525 0.0
N519 N 0.70954 0.78531 0.34185 0.0
N520 N 0.66926 0.78325 0.31632 0.0
C521 C 0.66009 0.80983 0.32684 0.0
C522 C 0.68201 0.81096 0.3407 0.0
C523 C 0.11127 0.79982 0.32495 0.0
C524 C 0.14727 0.82434 0.3363 0.0
C525 C 0.12532 0.78284 0.31251 0.0
C526 C 0.17579 0.78918 0.31094 0.0
H527 H 0.07185 0.79382 0.32561 0.0
H528 H 0.0962 0.76454 0.30404 0.0
S529 S 0.2848 0.8507 0.33752 0.0
N530 N 0.23586 0.85396 0.34518 0.0
N531 N 0.26206 0.82177 0.32179 0.0
C532 C 0.21217 0.81327 0.32223 0.0
C533 C 0.19801 0.83102 0.33488 0.0
C534 C 0.62478 0.85051 0.82425 0.0
C535 C 0.64059 0.8375 0.81134 0.0
C536 C 0.65815 0.86856 0.83627 0.0
C537 C 0.70842 0.87364 0.83593 0.0
H538 H 0.58631 0.8468 0.82509 0.0
H539 H 0.64378 0.87741 0.84601 0.0
S540 S 0.76911 0.84566 0.80462 0.0
N541 N 0.71047 0.83196 0.79882 0.0
N542 N 0.77287 0.86538 0.82147 0.0
C543 C 0.72501 0.86136 0.82304 0.0
C544 C 0.69121 0.84344 0.81074 0.0
C545 C 0.11504 0.82348 0.83046 0.0
C546 C 0.15268 0.84607 0.84154 0.0
C547 C 0.12996 0.82253 0.81618 0.0
C548 C 0.18314 0.84412 0.81236 0.0
H549 H 0.07356 0.80615 0.83281 0.0
H550 H 0.09932 0.80433 0.8081 0.0
S551 S 0.29744 0.90904 0.83724 0.0
N552 N 0.24581 0.89136 0.84765 0.0
N553 N 0.27375 0.88956 0.82083 0.0
C554 C 0.22131 0.86726 0.8233 0.0
C555 C 0.20611 0.8682 0.83787 0.0
C556 C 0.1342 0.2973 0.82869 0.0
C557 C 0.16279 0.31482 0.84165 0.0
C558 C 0.146 0.33084 0.81686 0.0
C559 C 0.18695 0.38336 0.81747 0.0
H560 H 0.10221 0.25733 0.82763 0.0
H561 H 0.12254 0.31528 0.80717 0.0
S562 S 0.27482 0.44851 0.84881 0.0
N563 N 0.23466 0.38817 0.85433 0.0
N564 N 0.25676 0.45112 0.8321 0.0
C565 C 0.21609 0.40144 0.83035 0.0
C566 C 0.20403 0.36723 0.84242 0.0
C567 C 0.82347 0.68281 0.67111 0.0
C568 C 0.82344 0.63526 0.67268 0.0
C569 C 0.84223 0.71283 0.65857 0.0
C570 C 0.86197 0.69672 0.64706 0.0
H571 H 0.80775 0.69658 0.67952 0.0
H572 H 0.83993 0.74831 0.65779 0.0
S573 S 0.87538 0.57778 0.64628 0.0
N574 N 0.84807 0.57514 0.66204 0.0
N575 N 0.88381 0.63173 0.63846 0.0
C576 C 0.86417 0.65027 0.6487 0.0
C577 C 0.8447 0.61947 0.66148 0.0
C578 C 0.3096 0.18332 0.66734 0.0
C579 C 0.34549 0.16815 0.6721 0.0
C580 C 0.28835 0.17129 0.65341 0.0
C581 C 0.30203 0.14347 0.64364 0.0
H582 H 0.29798 0.20512 0.67437 0.0
H583 H 0.26117 0.18426 0.65028 0.0
S584 S 0.39314 0.09308 0.65093 0.0
N585 N 0.39297 0.12267 0.66604 0.0
N586 N 0.35301 0.10001 0.63985 0.0
C587 C 0.33749 0.12752 0.6483 0.0
C588 C 0.35921 0.13985 0.66251 0.0
C589 C 0.83524 0.21164 0.66159 0.0
C590 C 0.83658 0.18321 0.67361 0.0
C591 C 0.83107 0.19245 0.64755 0.0
C592 C 0.82836 0.14413 0.6449 0.0
H593 H 0.83668 0.24884 0.66299 0.0
H594 H 0.8301 0.21599 0.63871 0.0
S595 S 0.83164 0.05477 0.6726 0.0
N596 N 0.83576 0.10444 0.68193 0.0
N597 N 0.82804 0.06842 0.65551 0.0
C598 C 0.8302 0.11542 0.6568 0.0
C599 C 0.8343 0.13494 0.67115 0.0
C600 C 0.02346 0.52155 0.50283 0.0
C601 C 0.00975 0.48142 0.51303 0.0
C602 C 0.00788 0.51011 0.48839 0.0
C603 C 0.97774 0.45809 0.48354 0.0
H604 H 0.04627 0.56235 0.50598 0.0
H605 H 0.01911 0.54255 0.48104 0.0
S606 S 0.93298 0.33833 0.50576 0.0
N607 N 0.96534 0.38727 0.51716 0.0
N608 N 0.93597 0.36579 0.49001 0.0
C609 C 0.96427 0.41743 0.49357 0.0
C610 C 0.9803 0.4291 0.5083 0.0
C611 C 0.53261 0.48135 0.5071 0.0
C612 C 0.49032 0.48847 0.51094 0.0
C613 C 0.54441 0.47843 0.49261 0.0
C614 C 0.51436 0.48248 0.48136 0.0
H615 H 0.55697 0.47799 0.51534 0.0
H616 H 0.57728 0.47272 0.49024 0.0
S617 S 0.39947 0.5018 0.48559 0.0
N618 N 0.41829 0.49975 0.50224 0.0
N619 N 0.44052 0.49438 0.47508 0.0
C620 C 0.47204 0.48981 0.48504 0.0
C621 C 0.45998 0.49275 0.49979 0.0
C622 C 0.49543 0.95698 0.48654 0.0
C623 C 0.48183 0.99426 0.48207 0.0
C624 C 0.49097 0.94156 0.50098 0.0
C625 C 0.47252 0.96264 0.51157 0.0
H626 H 0.51005 0.93963 0.47885 0.0
H627 H 0.50195 0.91265 0.50381 0.0
S628 S 0.43122 0.06146 0.50552 0.0
N629 N 0.44878 0.05182 0.48942 0.0
N630 N 0.44037 0.02283 0.51656 0.0
C631 C 0.45861 -9e-05 0.50727 0.0
C632 C 0.46323 0.0157 0.49253 0.0
C633 C 0.54969 0.05912 0.01184 0.0
C634 C 0.51073 0.00587 0.01237 0.0
C635 C 0.57024 0.08425 -0.00134 0.0
C636 C 0.55288 0.05702 0.9855 0.0
H637 H 0.56421 0.08192 0.02166 0.0
H638 H 0.5999 0.12539 -0.00117 0.0
S639 S 0.45251 0.91629 0.98102 0.0
N640 N 0.45626 0.9263 -0.0014 0.0
N641 N 0.49485 0.97323 0.97387 0.0
C642 C 0.5143 0.00347 0.9859 0.0
C643 C 0.4932 0.97799 -0.00069 0.0
C644 C 0.01612 0.49152 0.97799 0.0
C645 C 0.96179 0.47313 0.97886 0.0
C646 C 0.04681 0.5009 0.9904 0.0
C647 C 0.02457 0.49267 0.00423 0.0
H648 H 0.03543 0.49905 0.96761 0.0
H649 H 0.0885 0.51569 0.9891 0.0
S650 S 0.88375 0.44267 0.01254 0.0
N651 N 0.88672 0.44545 -0.00524 0.0
N652 N 0.94436 0.46319 0.01811 0.0
C653 C 0.97011 0.47344 0.0053 0.0
C654 C 0.93876 0.46364 0.99263 0.0
C655 C 0.51326 0.5183 0.98148 0.0
C656 C 0.51468 0.47159 0.98336 0.0
C657 C 0.5051 0.54358 0.99314 0.0
C658 C 0.49803 0.52331 0.0072 0.0
H659 H 0.51826 0.53564 0.97089 0.0
H660 H 0.50423 0.57929 0.99105 0.0
S661 S 0.4993 0.4025 0.01806 0.0
N662 N 0.50896 0.40634 0.00046 0.0
N663 N 0.49368 0.45379 0.0224 0.0
C664 C 0.49961 0.47671 0.00928 0.0
C665 C 0.5079 0.45088 -0.00263 0.0
C666 C 0.37188 0.03579 0.08823 0.0
C667 C 0.34852 0.06363 0.08253 0.0
C668 C 0.39325 0.01314 0.07922 0.0
C669 C 0.39222 0.0175 0.06414 0.0
H670 H 0.37157 0.02918 0.09974 0.0
H671 H 0.40831 0.98991 0.08412 0.0
S672 S 0.34443 0.09446 0.04391 0.0
N673 N 0.3319 0.1001 0.06096 0.0
N674 N 0.37241 0.05789 0.04398 0.0
C675 C 0.37278 0.04874 0.05835 0.0
C676 C 0.35083 0.0717 0.06755 0.0
C677 C 0.95253 0.35033 0.06892 0.0
C678 C 0.98286 0.40356 0.07277 0.0
C679 C 0.93726 0.31069 0.07921 0.0
C680 C 0.95141 0.32254 0.09381 0.0
H681 H 0.94229 0.33882 0.05775 0.0
H682 H 0.9158 0.27038 0.07555 0.0
S683 S 0.02389 0.4559 0.10989 0.0
N684 N 0.02161 0.4662 0.09247 0.0
N685 N 0.99266 0.39164 0.11187 0.0
C686 C 0.97851 0.37565 0.098 0.0
C687 C 0.9943 0.41615 0.08748 0.0
C688 C 0.66334 0.63217 0.06578 0.0
C689 C 0.61163 0.60837 0.07114 0.0
C690 C 0.70676 0.66141 0.07478 0.0
C691 C 0.70027 0.66797 0.08952 0.0
H692 H 0.67052 0.63025 0.0544 0.0
H693 H 0.74553 0.68073 0.06999 0.0
S694 S 0.5736 0.60668 0.10938 0.0
N695 N 0.5568 0.58837 0.09246 0.0
N696 N 0.63827 0.64297 0.10942 0.0
C697 C 0.64898 0.64142 0.09522 0.0
C698 C 0.60473 0.61171 0.08603 0.0
C699 C 0.01799 0.37882 0.40986 0.0
C700 C 0.01843 0.36757 0.42459 0.0
C701 C 0.04091 0.36186 0.39955 0.0
C702 C 0.06522 0.3329 0.40352 0.0
H703 H 0.99765 0.39877 0.40613 0.0
H704 H 0.03731 0.36958 0.38831 0.0
S705 S 0.08498 0.30087 0.44091 0.0
N706 N 0.0513 0.33156 0.44282 0.0
N707 N 0.09416 0.29944 0.42339 0.0
C708 C 0.06965 0.32496 0.4183 0.0
C709 C 0.04629 0.34233 0.42884 0.0
C710 C 0.5988 0.60249 0.4116 0.0
C711 C 0.60616 0.60837 0.42662 0.0
C712 C 0.61815 0.64618 0.40255 0.0
C713 C 0.64561 0.6975 0.40814 0.0
H714 H 0.58054 0.56397 0.40668 0.0
H715 H 0.61384 0.63942 0.39101 0.0
S716 S 0.66576 0.73393 0.44694 0.0
N717 N 0.63564 0.6693 0.44687 0.0
N718 N 0.67217 0.75148 0.42982 0.0
C719 C 0.64899 0.70388 0.42322 0.0
C720 C 0.62928 0.65929 0.43247 0.0
C721 C 0.37438 0.96613 0.40714 0.0
C722 C 0.3631 0.95824 0.42197 0.0
C723 C 0.3342 0.94516 0.39681 0.0
C724 C 0.28108 0.91547 0.40088 0.0
H725 H 0.41433 0.99086 0.40345 0.0
H726 H 0.34497 0.9545 0.38558 0.0
S727 S 0.23123 0.87541 0.43817 0.0
N728 N 0.29542 0.91266 0.44011 0.0
N729 N 0.21989 0.87345 0.42067 0.0
C730 C 0.26951 0.90379 0.41559 0.0
C731 C 0.31052 0.92512 0.42614 0.0
C732 C 0.61198 0.94919 0.89716 0.0
C733 C 0.64113 0.926 0.90191 0.0
C734 C 0.59315 0.97213 0.90693 0.0
C735 C 0.60224 0.97222 0.92184 0.0
H736 H 0.60596 0.95225 0.88574 0.0
H737 H 0.5731 0.9917 0.90268 0.0
S738 S 0.66913 0.90883 0.93992 0.0
N739 N 0.67309 0.89911 0.92254 0.0
N740 N 0.63712 0.94145 0.94099 0.0
C741 C 0.62787 0.94554 0.9268 0.0
C742 C 0.64753 0.92268 0.91682 0.0
C743 C 0.01289 0.60175 0.89991 0.0
C744 C 0.02873 0.60786 0.91444 0.0
C745 C 0.02838 0.64522 0.89095 0.0
C746 C 0.06026 0.69664 0.89616 0.0
H747 H 0.98602 0.56329 0.89556 0.0
H748 H 0.01286 0.63829 0.88006 0.0
S749 S 0.12085 0.73354 0.93256 0.0
N750 N 0.08453 0.66905 0.93303 0.0
N751 N 0.11329 0.75078 0.91619 0.0
C752 C 0.08011 0.70315 0.91029 0.0
C753 C 0.06445 0.65876 0.91943 0.0
C754 C 0.398 0.38665 0.90677 0.0
C755 C 0.39277 0.3916 0.92168 0.0
C756 C 0.3539 0.36163 0.89778 0.0
C757 C 0.30264 0.34045 0.90328 0.0
H758 H 0.43639 0.40076 0.90203 0.0
H759 H 0.36025 0.35784 0.88644 0.0
S760 S 0.26748 0.34778 0.94132 0.0
N761 N 0.3322 0.37678 0.9414 0.0
N762 N 0.24936 0.32956 0.92446 0.0
C763 C 0.29682 0.34705 0.91807 0.0
C764 C 0.34183 0.37268 0.92726 0.0
C765 C 0.89141 0.61539 0.56838 0.0
C766 C 0.88277 0.60427 0.58318 0.0
C767 C 0.91953 0.59785 0.5602 0.0
C768 C 0.94082 0.5691 0.56654 0.0
H769 H 0.87876 0.64022 0.56322 0.0
H770 H 0.92729 0.60986 0.54901 0.0
S771 S 0.92158 0.52196 0.60437 0.0
N772 N 0.89155 0.55656 0.60345 0.0
N773 N 0.94512 0.52416 0.58806 0.0
C774 C 0.92861 0.55383 0.58104 0.0
C775 C 0.89933 0.57123 0.58936 0.0
C776 C 0.36369 0.32242 0.59101 0.0
C777 C 0.33533 0.27091 0.58559 0.0
C778 C 0.3846 0.36575 0.58179 0.0
C779 C 0.37809 0.3594 0.56675 0.0
H780 H 0.3679 0.32969 0.60253 0.0
H781 H 0.40404 0.40451 0.58657 0.0
S782 S 0.31477 0.23271 0.54692 0.0
N783 N 0.30741 0.21594 0.5641 0.0
N784 N 0.34689 0.29738 0.54674 0.0
C785 C 0.35317 0.30809 0.56111 0.0
C786 C 0.33179 0.26387 0.57053 0.0
C787 C 0.6383 0.00569 0.59458 0.0
C788 C 0.6893 0.04198 0.58986 0.0
C789 C 0.59522 0.98617 0.58519 0.0
C790 C 0.60138 0.00219 0.57068 0.0
H791 H 0.63176 0.98992 0.60541 0.0
H792 H 0.55741 0.9561 0.58916 0.0
S793 S 0.72475 0.10456 0.55376 0.0
N794 N 0.74213 0.09905 0.57033 0.0
N795 N 0.66112 0.06255 0.55266 0.0
C796 C 0.65129 0.042 0.56618 0.0
C797 C 0.69526 0.06185 0.57576 0.0
C798 C 0.72474 0.69434 0.74705 0.0
C799 C 0.72301 0.6961 0.73192 0.0
C800 C 0.70346 0.71817 0.75563 0.0
C801 C 0.67959 0.74476 0.74943 0.0
H802 H 0.74074 0.67262 0.75236 0.0
H803 H 0.70423 0.71402 0.76722 0.0
S804 S 0.67189 0.76732 0.71033 0.0
N805 N 0.7007 0.73156 0.71108 0.0
N806 N 0.66049 0.77616 0.72723 0.0
C807 C 0.68052 0.74965 0.73433 0.0
C808 C 0.70227 0.72537 0.72557 0.0
C809 C 0.32986 0.07429 0.7474 0.0
C810 C 0.3178 0.06344 0.73266 0.0
C811 C 0.30921 0.0341 0.75767 0.0
C812 C 0.2758 0.98151 0.75359 0.0
H813 H 0.35789 0.11357 0.75098 0.0
H814 H 0.32218 0.04416 0.76875 0.0
S815 S 0.22318 0.93405 0.71682 0.0
N816 N 0.2636 0.99755 0.71483 0.0
N817 N 0.22511 0.92203 0.73413 0.0
C818 C 0.25961 0.97085 0.7391 0.0
C819 C 0.28054 0.01182 0.72863 0.0
C820 C 0.02063 0.32972 0.72734 0.0
C821 C 0.96794 0.29584 0.73123 0.0
C822 C 0.06062 0.35075 0.73774 0.0
C823 C 0.04956 0.33863 0.75245 0.0
H824 H 0.03099 0.34212 0.71625 0.0
H825 H 0.10014 0.37837 0.73424 0.0
S826 S 0.91924 0.24522 0.768 0.0
N827 N 0.90773 0.24641 0.7506 0.0
N828 N 0.98283 0.28562 0.77016 0.0
C829 C 0.99757 0.302 0.75637 0.0
C830 C 0.9568 0.28069 0.74577 0.0
C831 C 0.29723 0.28634 0.22892 0.0
C832 C 0.32121 0.25895 0.23451 0.0
C833 C 0.28258 0.31503 0.23791 0.0
C834 C 0.29124 0.3175 0.25288 0.0
H835 H 0.29118 0.2872 0.21741 0.0
H836 H 0.26576 0.33667 0.23299 0.0
S837 S 0.34672 0.24746 0.2732 0.0
N838 N 0.34867 0.23234 0.25615 0.0
N839 N 0.32099 0.28604 0.27309 0.0
C840 C 0.31269 0.28808 0.25873 0.0
C841 C 0.32766 0.25885 0.24955 0.0
C842 C 0.70748 0.0149 0.26818 0.0
C843 C 0.67588 0.96083 0.26551 0.0
C844 C 0.73056 0.05053 0.25685 0.0
C845 C 0.72317 0.03351 0.24241 0.0
H846 H 0.71191 0.0304 0.27901 0.0
H847 H 0.75188 0.09194 0.25944 0.0
S848 S 0.65356 0.89505 0.22992 0.0
N849 N 0.6454 0.89125 0.24758 0.0
N850 N 0.68908 0.95816 0.22626 0.0
C851 C 0.69614 0.97915 0.2397 0.0
C852 C 0.67239 0.94282 0.25126 0.0
C853 C 0.99941 0.68662 0.22237 0.0
C854 C 0.9473 0.66394 0.22733 0.0
C855 C 0.04201 0.7094 0.23193 0.0
C856 C 0.03433 0.71047 0.24687 0.0
H857 H 0.00755 0.68515 0.21104 0.0
H858 H 0.08113 0.72441 0.22759 0.0
S859 S 0.90615 0.66327 0.26522 0.0
N860 N 0.89072 0.64891 0.24804 0.0
N861 N 0.97079 0.69189 0.26603 0.0
C862 C 0.98263 0.69091 0.2519 0.0
C863 C 0.93915 0.66765 0.24214 0.0
C864 C 0.0813 0.17105 0.1004 0.0
C865 C 0.0893 0.21756 0.10695 0.0
C866 C 0.12286 0.16145 0.09831 0.0
C867 C 0.17417 0.19758 0.10292 0.0
H868 H 0.04234 0.14124 0.097 0.0
H869 H 0.11399 0.12421 0.09363 0.0
S870 S 0.21698 0.32739 0.11961 0.0
N871 N 0.15314 0.30194 0.11711 0.0
N872 N 0.23136 0.28342 0.11347 0.0
C873 C 0.18322 0.24524 0.10897 0.0
C874 C 0.14082 0.25537 0.11091 0.0
C875 C 0.87564 0.99774 0.09012 0.0
C876 C 0.85615 0.02406 0.09849 0.0
C877 C 0.85963 0.94506 0.09259 0.0
C878 C 0.82319 0.91625 0.10348 0.0
H879 H 0.90563 0.01854 0.08206 0.0
H880 H 0.87759 0.9274 0.08622 0.0
S881 S 0.75388 0.96438 0.1269 0.0
N882 N 0.79357 0.01554 0.11699 0.0
N883 N 0.76345 0.91629 0.1216 0.0
C884 C 0.80018 0.94078 0.11117 0.0
C885 C 0.81665 0.99471 0.10868 0.0
C886 C 0.02982 0.88543 0.09806 0.0
C887 C 0.01319 0.84775 0.10908 0.0
C888 C 0.08138 0.92763 0.09769 0.0
C889 C 0.11863 0.93351 0.10821 0.0
H890 H 0.00209 0.8843 0.09014 0.0
H891 H 0.09157 0.95686 0.08935 0.0
S892 S 0.097 0.8411 0.13807 0.0
N893 N 0.03948 0.81579 0.12986 0.0
N894 N 0.1367 0.89486 0.12906 0.0
C895 C 0.10367 0.89393 0.11863 0.0
C896 C 0.05088 0.85115 0.1191 0.0
C897 C 0.18239 0.12861 0.37988 0.0
C898 C 0.13973 0.11882 0.38884 0.0
C899 C 0.1954 0.08959 0.37706 0.0
C900 C 0.1657 0.03903 0.38291 0.0
H901 H 0.20529 0.16639 0.37472 0.0
H902 H 0.2279 0.09862 0.36989 0.0
S903 S 0.05288 0.99405 0.408 0.0
N904 N 0.07006 0.05533 0.40433 0.0
N905 N 0.094 0.9823 0.39886 0.0
C906 C 0.1241 0.02922 0.39226 0.0
C907 C 0.1113 0.06902 0.39529 0.0
C908 C 0.92526 0.07858 0.37295 0.0
C909 C 0.93862 0.10528 0.38624 0.0
C910 C 0.88509 0.02641 0.37195 0.0
C911 C 0.85647 0.99857 0.38418 0.0
H912 H 0.94739 0.09735 0.3633 0.0
H913 H 0.87791 0.00723 0.36154 0.0
S914 S 0.87087 0.0524 0.42117 0.0
N915 N 0.91615 0.10159 0.41167 0.0
N916 N 0.84051 0.00314 0.40973 0.0
C917 C 0.86668 0.02575 0.39734 0.0
C918 C 0.90779 0.0792 0.39838 0.0
C919 C 0.9577 0.78829 0.37972 0.0
C920 C 0.98678 0.81392 0.39221 0.0
C921 C 0.90642 0.77901 0.37764 0.0
C922 C 0.88242 0.79522 0.38793 0.0
H923 H 0.97553 0.77777 0.3711 0.0
H924 H 0.88668 0.76162 0.36755 0.0
S925 S 0.93757 0.85477 0.42366 0.0
N926 N 0.9846 0.84847 0.4159 0.0
N927 N 0.88865 0.83138 0.41195 0.0
C928 C 0.9094 0.81704 0.40095 0.0
C929 C 0.96142 0.82621 0.40311 0.0
C930 C 0.83466 0.80509 0.87524 0.0
C931 C 0.83334 0.82513 0.88896 0.0
C932 C 0.87334 0.79235 0.87173 0.0
C933 C 0.91206 0.79907 0.88181 0.0
H934 H 0.80784 0.80238 0.86681 0.0
H935 H 0.87471 0.78027 0.86078 0.0
S936 S 0.91891 0.83928 0.92013 0.0
N937 N 0.86904 0.84314 0.91332 0.0
N938 N 0.94141 0.81893 0.9068 0.0
C939 C 0.90802 0.8142 0.89597 0.0
C940 C 0.86873 0.82726 0.89952 0.0
C941 C 0.16768 0.02629 0.88677 0.0
C942 C 0.12474 0.99534 0.87767 0.0
C943 C 0.1864 0.08016 0.88849 0.0
C944 C 0.16305 0.10515 0.88113 0.0
H945 H 0.18667 0.00874 0.89275 0.0
H946 H 0.21896 0.10218 0.89582 0.0
S947 S 0.04841 0.04144 0.85628 0.0
N948 N 0.05888 0.99379 0.86133 0.0
N949 N 0.09408 0.09441 0.86449 0.0
C950 C 0.12048 0.07472 0.87184 0.0
C951 C 0.10132 0.02001 0.87014 0.0
C952 C 0.96751 0.14902 0.89233 0.0
C953 C 0.00525 0.13392 0.89496 0.0
C954 C 0.91454 0.11149 0.88986 0.0
C955 C 0.89772 0.0576 0.88953 0.0
H956 H 0.97906 0.19016 0.89208 0.0
H957 H 0.88685 0.12488 0.88784 0.0
S958 S 0.98113 0.99749 0.89576 0.0
N959 N 0.02187 0.06113 0.89725 0.0
N960 N 0.92308 0.99104 0.89233 0.0
C961 C 0.9351 0.04202 0.89223 0.0
C962 C 0.98865 0.08005 0.89502 0.0
C963 C 0.81917 0.90906 0.59111 0.0
C964 C 0.7961 0.90852 0.60445 0.0
C965 C 0.8277 0.86824 0.587 0.0
C966 C 0.81385 0.8251 0.5961 0.0
H967 H 0.83247 0.94222 0.5839 0.0
H968 H 0.84771 0.872 0.57689 0.0
S969 S 0.74581 0.80119 0.63139 0.0
N970 N 0.75458 0.85855 0.62614 0.0
N971 N 0.77065 0.78161 0.61846 0.0
C972 C 0.78733 0.82216 0.60905 0.0
C973 C 0.77849 0.8639 0.61322 0.0
C974 C 0.12677 0.94555 0.60381 0.0
C975 C 0.12074 0.9741 0.59249 0.0
C976 C 0.0887 0.89318 0.60647 0.0
C977 C 0.04306 0.8674 0.59794 0.0
H978 H 0.15986 0.96441 0.61115 0.0
H979 H 0.09394 0.87372 0.6157 0.0
S980 S 0.01273 0.92138 0.56546 0.0
N981 N 0.06869 0.97018 0.57157 0.0
N982 N 0.99728 0.8721 0.57659 0.0
C983 C 0.03842 0.8942 0.58596 0.0
C984 C 0.07724 0.9474 0.58322 0.0
C985 C 0.06345 0.14309 0.59642 0.0
C986 C 0.10435 0.18276 0.60462 0.0
C987 C 0.01327 0.13731 0.59622 0.0
C988 C 0.00163 0.1705 0.60439 0.0
H989 H 0.06974 0.11511 0.59043 0.0
H990 H 0.98275 0.10459 0.59024 0.0
S991 S 0.09666 0.28492 0.62614 0.0
N992 N 0.13146 0.25931 0.61988 0.0
N993 N 0.03668 0.24803 0.61967 0.0
C994 C 0.04302 0.21251 0.61187 0.0
C995 C 0.09448 0.21875 0.61195 0.0
C996 C 0.77828 0.5067 0.4447 0.0
C997 C 0.73097 0.48489 0.43686 0.0
C998 C 0.81595 0.49188 0.44187 0.0
C999 C 0.80788 0.45494 0.43103 0.0
H1000 H 0.78524 0.53345 0.45355 0.0
H1001 H 0.85054 0.50781 0.44869 0.0
S1002 S 0.69419 0.39308 0.40584 0.0
N1003 N 0.68088 0.42941 0.41666 0.0
N1004 N 0.75156 0.40189 0.41127 0.0
C1005 C 0.76247 0.43595 0.4224 0.0
C1006 C 0.72402 0.45076 0.42535 0.0
C1007 C 0.42735 0.20717 0.45234 0.0
C1008 C 0.45334 0.19187 0.44244 0.0
C1009 C 0.43548 0.25827 0.4523 0.0
C1010 C 0.46948 0.29579 0.44227 0.0
H1011 H 0.40307 0.18059 0.46074 0.0
H1012 H 0.41712 0.26915 0.46069 0.0
S1013 S 0.53903 0.27197 0.41235 0.0
N1014 N 0.50863 0.21577 0.4211 0.0
N1015 N 0.52358 0.31154 0.4209 0.0
C1016 C 0.4918 0.27939 0.43147 0.0
C1017 C 0.48392 0.22752 0.43161 0.0
C1018 C 0.75294 0.1987 0.45919 0.0
C1019 C 0.77411 0.23343 0.4475 0.0
C1020 C 0.69989 0.15969 0.45937 0.0
C1021 C 0.66621 0.15335 0.44777 0.0
H1022 H 0.77662 0.2035 0.46866 0.0
H1023 H 0.68462 0.13571 0.46895 0.0
S1024 S 0.70396 0.22957 0.41373 0.0
N1025 N 0.75856 0.25556 0.42337 0.0
N1026 N 0.65895 0.18184 0.42368 0.0
C1027 C 0.68776 0.18513 0.43554 0.0
C1028 C 0.74169 0.22533 0.43542 0.0
C1029 C 0.90156 0.52148 0.71149 0.0
C1030 C 0.85728 0.5171 0.71866 0.0
C1031 C 0.9084 0.47792 0.70971 0.0
C1032 C 0.87083 0.42825 0.71485 0.0
H1033 H 0.93027 0.55836 0.70673 0.0
H1034 H 0.9422 0.48276 0.70375 0.0
S1035 S 0.75173 0.39678 0.73611 0.0
N1036 N 0.77827 0.45967 0.73234 0.0
N1037 N 0.79076 0.37813 0.72872 0.0
C1038 C 0.82794 0.42385 0.72271 0.0
C1039 C 0.82133 0.46819 0.72472 0.0
C1040 C 0.54373 0.38693 0.6897 0.0
C1041 C 0.52348 0.35845 0.70257 0.0
C1042 C 0.58477 0.43906 0.6899 0.0
C1043 C 0.60756 0.46459 0.70297 0.0
H1044 H 0.5293 0.36815 0.67933 0.0
H1045 H 0.60061 0.45836 0.67969 0.0
S1046 S 0.56393 0.41022 0.73974 0.0
N1047 N 0.52544 0.36174 0.72881 0.0
N1048 N 0.60278 0.45964 0.72919 0.0
C1049 C 0.58521 0.43787 0.71595 0.0
C1050 C 0.54306 0.38486 0.71575 0.0
C1051 C 0.62511 0.14562 0.69669 0.0
C1052 C 0.66169 0.17639 0.7074 0.0
C1053 C 0.573 0.13485 0.69717 0.0
C1054 C 0.55577 0.15516 0.70827 0.0
H1055 H 0.63742 0.1317 0.6875 0.0
H1056 H 0.54705 0.11312 0.68832 0.0
S1057 S 0.63412 0.23217 0.73991 0.0
N1058 N 0.67552 0.22237 0.73023 0.0
N1059 N 0.57774 0.20256 0.73108 0.0
C1060 C 0.59093 0.18287 0.71958 0.0
C1061 C 0.64385 0.19331 0.71917 0.0
C1062 C 0.57439 0.13986 0.22284 0.0
C1063 C 0.58178 0.10809 0.21285 0.0
C1064 C 0.52859 0.14334 0.22277 0.0
C1065 C 0.48852 0.11572 0.21257 0.0
H1066 H 0.60496 0.16362 0.23053 0.0
H1067 H 0.52615 0.17035 0.23024 0.0
S1068 S 0.48533 0.0219 0.18528 0.0
N1069 N 0.54262 0.04425 0.19344 0.0
N1070 N 0.45675 0.05138 0.19318 0.0
C1071 C 0.49386 0.08127 0.20311 0.0
C1072 C 0.54039 0.07728 0.20328 0.0
C1073 C 0.82557 0.35156 0.22466 0.0
C1074 C 0.81553 0.32569 0.21128 0.0
C1075 C 0.83824 0.40414 0.2255 0.0
C1076 C 0.84115 0.43255 0.21299 0.0
H1077 H 0.82083 0.33039 0.23461 0.0
H1078 H 0.84269 0.42153 0.23608 0.0
S1079 S 0.82862 0.38591 0.17522 0.0
N1080 N 0.81709 0.33477 0.18514 0.0
N1081 N 0.84039 0.43326 0.18676 0.0
C1082 C 0.83539 0.40839 0.19951 0.0
C1083 C 0.82272 0.35503 0.19864 0.0
C1084 C 0.63669 0.38844 0.2214 0.0
C1085 C 0.6531 0.44173 0.21936 0.0
C1086 C 0.5844 0.34959 0.21924 0.0
C1087 C 0.54599 0.36236 0.21521 0.0
H1088 H 0.66469 0.37625 0.2243 0.0
H1089 H 0.57402 0.30914 0.22088 0.0
S1090 S 0.56794 0.49619 0.20902 0.0
N1091 N 0.62662 0.5055 0.21327 0.0
N1092 N 0.52756 0.4322 0.20961 0.0
C1093 C 0.56143 0.41554 0.21345 0.0
C1094 C 0.61515 0.45526 0.21541 0.0
C1095 C 0.57921 0.25715 0.92902 0.0
C1096 C 0.5414 0.20354 0.92952 0.0
C1097 C 0.56593 0.29548 0.93212 0.0
C1098 C 0.51405 0.28188 0.93554 0.0
H1099 H 0.6199 0.26979 0.92663 0.0
H1100 H 0.59662 0.33622 0.93164 0.0
S1101 S 0.39986 0.1472 0.93777 0.0
N1102 N 0.44971 0.13867 0.93357 0.0
N1103 N 0.42426 0.21122 0.93889 0.0
C1104 C 0.47548 0.22853 0.93575 0.0
C1105 C 0.48929 0.18925 0.9329 0.0
C1106 C 0.7953 0.29074 0.92956 0.0
C1107 C 0.8433 0.30163 0.9359 0.0
C1108 C 0.74998 0.24195 0.93124 0.0
C1109 C 0.75073 0.20151 0.93909 0.0
H1110 H 0.79182 0.32085 0.92381 0.0
H1111 H 0.71379 0.23625 0.92648 0.0
S1112 S 0.86738 0.20765 0.95652 0.0
N1113 N 0.88968 0.26651 0.9495 0.0
N1114 N 0.80428 0.17409 0.95237 0.0
C1115 C 0.79895 0.21063 0.94479 0.0
C1116 C 0.84523 0.26083 0.94327 0.0
C1117 C 0.79734 0.55478 0.9474 0.0
C1118 C 0.80586 0.52158 0.93829 0.0
C1119 C 0.7482 0.55183 0.94794 0.0
C1120 C 0.70614 0.51642 0.93916 0.0
H1121 H 0.82803 0.58153 0.95466 0.0
H1122 H 0.74259 0.57625 0.95565 0.0
S1123 S 0.71001 0.42479 0.91231 0.0
N1124 N 0.7694 0.45493 0.9195 0.0
N1125 N 0.67759 0.45002 0.92033 0.0
C1126 C 0.7152 0.48529 0.92936 0.0
C1127 C 0.76488 0.48765 0.92899 0.0
C1128 C 0.4678 0.92788 0.7816 0.0
C1129 C 0.42508 0.90135 0.7721 0.0
C1130 C 0.51368 0.92492 0.77993 0.0
C1131 C 0.51865 0.89553 0.76866 0.0
H1132 H 0.46479 0.94875 0.79084 0.0
H1133 H 0.54416 0.94344 0.78804 0.0
S1134 S 0.42189 0.82779 0.73921 0.0
N1135 N 0.39344 0.85114 0.74985 0.0
N1136 N 0.47962 0.84596 0.74662 0.0
C1137 C 0.47795 0.87278 0.75836 0.0
C1138 C 0.43114 0.87547 0.76013 0.0
C1139 C 0.197 0.65255 0.78834 0.0
C1140 C 0.19178 0.68162 0.77706 0.0
C1141 C 0.18077 0.59942 0.78669 0.0
C1142 C 0.15855 0.57286 0.77367 0.0
H1143 H 0.21542 0.67127 0.79845 0.0
H1144 H 0.18762 0.57962 0.79555 0.0
S1145 S 0.13045 0.62939 0.74133 0.0
N1146 N 0.15849 0.67876 0.75283 0.0
N1147 N 0.12778 0.57866 0.74969 0.0
C1148 C 0.15005 0.60055 0.76258 0.0
C1149 C 0.16672 0.65495 0.76428 0.0
C1150 C 0.42843 0.5878 0.76618 0.0
C1151 C 0.44346 0.64123 0.76562 0.0
C1152 C 0.37535 0.54858 0.76512 0.0
C1153 C 0.33574 0.56148 0.76304 0.0
H1154 H 0.45779 0.57621 0.76762 0.0
H1155 H 0.36529 0.50791 0.76585 0.0
S1156 S 0.35443 0.6956 0.7607 0.0
N1157 N 0.41424 0.70489 0.76287 0.0
N1158 N 0.31511 0.63147 0.76059 0.0
C1159 C 0.35035 0.61476 0.76231 0.0
C1160 C 0.40406 0.65456 0.76368 0.0
C1161 C 0.46417 0.77175 0.05071 0.0
C1162 C 0.50667 0.82179 0.04759 0.0
C1163 C 0.46951 0.72722 0.05011 0.0
C1164 C 0.51785 0.7309 0.04668 0.0
H1165 H 0.42582 0.76651 0.05317 0.0
H1166 H 0.43533 0.68959 0.05245 0.0
S1167 S 0.64195 0.85303 0.03826 0.0
N1168 N 0.59906 0.87268 0.04119 0.0
N1169 N 0.60955 0.78884 0.04054 0.0
C1170 C 0.56112 0.7808 0.04393 0.0
C1171 C 0.5554 0.82624 0.04425 0.0
C1172 C 0.19664 0.71618 0.05143 0.0
C1173 C 0.16051 0.69768 0.03992 0.0
C1174 C 0.24342 0.76424 0.05058 0.0
C1175 C 0.25594 0.79612 0.03824 0.0
H1176 H 0.19041 0.69213 0.06088 0.0
H1177 H 0.27084 0.77549 0.0595 0.0
S1178 S 0.17051 0.76983 0.00614 0.0
N1179 N 0.13733 0.71806 0.01654 0.0
N1180 N 0.22534 0.80865 0.01497 0.0
C1181 C 0.21827 0.78019 0.02714 0.0
C1182 C 0.17056 0.73094 0.02798 0.0
C1183 C 0.30398 0.57119 0.05971 0.0
C1184 C 0.31838 0.53231 0.06015 0.0
C1185 C 0.25229 0.55859 0.05679 0.0
C1186 C 0.21244 0.50642 0.05447 0.0
H1187 H 0.33317 0.61211 0.0612 0.0
H1188 H 0.24351 0.59018 0.05647 0.0
S1189 S 0.22892 0.38957 0.05508 0.0
N1190 N 0.2885 0.43926 0.05826 0.0
N1191 N 0.1905 0.41526 0.05323 0.0
C1192 C 0.22585 0.46686 0.05524 0.0
C1193 C 0.279 0.47988 0.05793 0.0
C1194 C 0.18357 0.48143 0.55977 0.0
C1195 C 0.19324 0.52752 0.55262 0.0
C1196 C 0.22348 0.46866 0.56134 0.0
C1197 C 0.27419 0.50154 0.55581 0.0
H1198 H 0.14477 0.45463 0.5639 0.0
H1199 H 0.21433 0.43243 0.56671 0.0
S1200 S 0.32141 0.63052 0.5381 0.0
N1201 N 0.25861 0.60856 0.54126 0.0
N1202 N 0.33301 0.58466 0.54417 0.0
C1203 C 0.28466 0.54864 0.54912 0.0
C1204 C 0.24433 0.5616 0.54755 0.0
C1205 C 0.48225 0.68284 0.55914 0.0
C1206 C 0.51624 0.67302 0.55074 0.0
C1207 C 0.48502 0.73162 0.55883 0.0
C1208 C 0.52238 0.77287 0.55029 0.0
H1209 H 0.45106 0.65176 0.56535 0.0
H1210 H 0.4565 0.73647 0.56503 0.0
S1211 S 0.62494 0.76946 0.52779 0.0
N1212 N 0.59154 0.70995 0.53467 0.0
N1213 N 0.59739 0.80217 0.53428 0.0
C1214 C 0.55903 0.76481 0.54263 0.0
C1215 C 0.55576 0.71476 0.54281 0.0
C1216 C 0.27004 0.78252 0.53187 0.0
C1217 C 0.30076 0.7975 0.54452 0.0
C1218 C 0.21669 0.74456 0.53217 0.0
C1219 C 0.19209 0.71957 0.54511 0.0
H1220 H 0.28788 0.79852 0.52152 0.0
H1221 H 0.19563 0.73245 0.52201 0.0
S1222 S 0.25308 0.75053 0.58156 0.0
N1223 N 0.30126 0.78911 0.57061 0.0
N1224 N 0.20089 0.71734 0.57119 0.0
C1225 C 0.22131 0.73722 0.55802 0.0
C1226 C 0.27567 0.77633 0.55772 0.0
C1227 C 0.15554 0.5158 0.26038 0.0
C1228 C 0.20741 0.53084 0.25643 0.0
C1229 C 0.13957 0.55314 0.26221 0.0
C1230 C 0.17521 0.60701 0.26048 0.0
H1231 H 0.12715 0.47489 0.26222 0.0
H1232 H 0.09931 0.53972 0.26531 0.0
S1233 S 0.31561 0.66702 0.25005 0.0
N1234 N 0.29422 0.60354 0.25063 0.0
N1235 N 0.26459 0.6734 0.25427 0.0
C1236 C 0.22712 0.62252 0.25641 0.0
C1237 C 0.24309 0.58454 0.25432 0.0
C1238 C 0.45921 0.63893 0.27664 0.0
C1239 C 0.45364 0.68227 0.28029 0.0
C1240 C 0.41627 0.58769 0.27718 0.0
C1241 C 0.36623 0.57783 0.28148 0.0
H1242 H 0.49709 0.64446 0.27346 0.0
H1243 H 0.42244 0.55555 0.27428 0.0
S1244 S 0.32962 0.67783 0.29109 0.0
N1245 N 0.39305 0.71186 0.2876 0.0
N1246 N 0.31298 0.61594 0.28874 0.0
C1247 C 0.35993 0.62084 0.28496 0.0
C1248 C 0.40342 0.67292 0.28432 0.0
C1249 C 0.41472 0.8979 0.2845 0.0
C1250 C 0.44103 0.89159 0.27266 0.0
C1251 C 0.36455 0.89195 0.28293 0.0
C1252 C 0.33873 0.87904 0.26948 0.0
H1253 H 0.43137 0.9041 0.29525 0.0
H1254 H 0.3443 0.89315 0.29255 0.0
S1255 S 0.39475 0.86958 0.23458 0.0
N1256 N 0.44085 0.88078 0.24657 0.0
N1257 N 0.34615 0.86842 0.24378 0.0
C1258 C 0.36658 0.87784 0.25734 0.0
C1259 C 0.41788 0.88446 0.25889 0.0
loop_
_geom_bond_atom_site_label_1
_geom_bond_atom_site_label_2
_geom_bond_distance
_geom_bond_site_symmetry_2
_ccdc_geom_bond_type
C0 O1 1.160 . S
C0 O7 1.185 . S
O1 C0 1.160 . S
O2 Zn3 1.899 . S
O2 C10 1.284 1_545 S
Zn3 O2 1.899 . S
Zn3 O4 2.032 . S
Zn3 O7 2.086 . S
Zn3 O12 1.977 . S
O4 Zn3 2.032 . S
O4 C8 1.278 . S
C5 O6 1.203 . S
C5 O12 1.267 . S
O6 C5 1.203 . S
O7 C0 1.185 . S
O7 Zn3 2.086 . S
C8 O4 1.278 . S
C8 O9 1.211 . S
O9 C8 1.211 . S
C10 O2 1.284 1_565 S
C10 O11 1.273 1_565 S
O11 C10 1.273 1_545 S
O12 Zn3 1.977 . S
O12 C5 1.267 . S
C13 O14 1.160 . S
C13 O20 1.185 . S
O14 C13 1.160 . S
O15 Zn16 1.899 . S
O15 C23 1.284 1_655 S
Zn16 O15 1.899 . S
Zn16 O17 2.032 . S
Zn16 O20 2.086 . S
Zn16 O25 1.977 . S
O17 Zn16 2.032 . S
O17 C21 1.278 . S
C18 O19 1.203 . S
C18 O25 1.267 . S
O19 C18 1.203 . S
O20 C13 1.185 . S
O20 Zn16 2.086 . S
C21 O17 1.278 . S
C21 O22 1.211 . S
O22 C21 1.211 . S
C23 O15 1.284 1_455 S
C23 O24 1.273 1_455 S
O24 C23 1.273 1_655 S
O25 Zn16 1.977 . S
O25 C18 1.267 . S
C26 O27 1.160 . S
C26 O33 1.185 . S
O27 C26 1.160 . S
O28 Zn29 1.899 . S
O28 C36 1.284 . S
Zn29 O28 1.899 . S
Zn29 O30 2.032 . S
Zn29 O33 2.086 . S
Zn29 O38 1.977 . S
O30 Zn29 2.032 . S
O30 C34 1.278 . S
C31 O32 1.203 . S
C31 O38 1.267 . S
O32 C31 1.203 . S
O33 C26 1.185 . S
O33 Zn29 2.086 . S
C34 O30 1.278 . S
C34 O35 1.211 . S
O35 C34 1.211 . S
C36 O28 1.284 . S
C36 O37 1.273 . S
O37 C36 1.273 . S
O38 Zn29 1.977 . S
O38 C31 1.267 . S
C39 O40 1.160 . S
C39 O46 1.185 . S
O40 C39 1.160 . S
O41 Zn42 1.899 . S
O41 C49 1.284 1_455 S
Zn42 O41 1.899 . S
Zn42 O43 2.032 . S
Zn42 O46 2.086 . S
Zn42 O51 1.977 . S
O43 Zn42 2.032 . S
O43 C47 1.278 . S
C44 O45 1.203 . S
C44 O51 1.267 . S
O45 C44 1.203 . S
O46 C39 1.185 . S
O46 Zn42 2.086 . S
C47 O43 1.278 . S
C47 O48 1.211 . S
O48 C47 1.211 . S
C49 O41 1.284 1_655 S
C49 O50 1.273 1_655 S
O50 C49 1.273 1_455 S
O51 Zn42 1.977 . S
O51 C44 1.267 . S
C52 O53 1.160 . S
C52 O59 1.185 . S
O53 C52 1.160 . S
O54 Zn55 1.899 . S
O54 C62 1.284 . S
Zn55 O54 1.899 . S
Zn55 O56 2.032 . S
Zn55 O59 2.086 . S
Zn55 O64 1.977 . S
O56 Zn55 2.032 . S
O56 C60 1.278 . S
C57 O58 1.203 . S
C57 O64 1.267 . S
O58 C57 1.203 . S
O59 C52 1.185 . S
O59 Zn55 2.086 . S
C60 O56 1.278 . S
C60 O61 1.211 . S
O61 C60 1.211 . S
C62 O54 1.284 . S
C62 O63 1.273 . S
O63 C62 1.273 . S
O64 Zn55 1.977 . S
O64 C57 1.267 . S
C65 O66 1.160 . S
C65 O72 1.185 . S
O66 C65 1.160 . S
O67 Zn68 1.899 . S
O67 C75 1.284 1_565 S
Zn68 O67 1.899 . S
Zn68 O69 2.032 . S
Zn68 O72 2.086 . S
Zn68 O77 1.977 . S
O69 Zn68 2.032 . S
O69 C73 1.278 . S
C70 O71 1.203 . S
C70 O77 1.267 . S
O71 C70 1.203 . S
O72 C65 1.185 . S
O72 Zn68 2.086 . S
C73 O69 1.278 . S
C73 O74 1.211 . S
O74 C73 1.211 . S
C75 O67 1.284 1_545 S
C75 O76 1.273 1_545 S
O76 C75 1.273 1_565 S
O77 Zn68 1.977 . S
O77 C70 1.267 . S
C78 O79 1.160 . S
C78 O85 1.185 . S
O79 C78 1.160 . S
O80 Zn81 1.899 . S
O80 C88 1.284 1_565 S
Zn81 O80 1.899 . S
Zn81 O82 2.032 . S
Zn81 O85 2.086 . S
Zn81 O90 1.977 . S
O82 Zn81 2.032 . S
O82 C86 1.278 . S
C83 O84 1.203 . S
C83 O90 1.267 . S
O84 C83 1.203 . S
O85 C78 1.185 . S
O85 Zn81 2.086 . S
C86 O82 1.278 . S
C86 O87 1.211 . S
O87 C86 1.211 . S
C88 O80 1.284 1_545 S
C88 O89 1.273 1_545 S
O89 C88 1.273 1_565 S
O90 Zn81 1.977 . S
O90 C83 1.267 . S
C91 O92 1.160 . S
C91 O98 1.185 . S
O92 C91 1.160 . S
O93 Zn94 1.899 . S
O93 C101 1.284 1_455 S
Zn94 O93 1.899 . S
Zn94 O95 2.032 . S
Zn94 O98 2.086 . S
Zn94 O103 1.977 . S
O95 Zn94 2.032 . S
O95 C99 1.278 . S
C96 O97 1.203 . S
C96 O103 1.267 . S
O97 C96 1.203 . S
O98 C91 1.185 . S
O98 Zn94 2.086 . S
C99 O95 1.278 . S
C99 O100 1.211 . S
O100 C99 1.211 . S
C101 O93 1.284 1_655 S
C101 O102 1.273 1_655 S
O102 C101 1.273 1_455 S
O103 Zn94 1.977 . S
O103 C96 1.267 . S
C104 O105 1.160 . S
C104 O111 1.185 . S
O105 C104 1.160 . S
O106 Zn107 1.899 . S
O106 C114 1.284 . S
Zn107 O106 1.899 . S
Zn107 O108 2.032 . S
Zn107 O111 2.086 . S
Zn107 O116 1.977 . S
O108 Zn107 2.032 . S
O108 C112 1.278 . S
C109 O110 1.203 . S
C109 O116 1.267 . S
O110 C109 1.203 . S
O111 C104 1.185 . S
O111 Zn107 2.086 . S
C112 O108 1.278 . S
C112 O113 1.211 . S
O113 C112 1.211 . S
C114 O106 1.284 . S
C114 O115 1.273 . S
O115 C114 1.273 . S
O116 Zn107 1.977 . S
O116 C109 1.267 . S
C117 O118 1.160 . S
C117 O124 1.185 . S
O118 C117 1.160 . S
O119 Zn120 1.899 . S
O119 C127 1.284 1_655 S
Zn120 O119 1.899 . S
Zn120 O121 2.032 . S
Zn120 O124 2.086 . S
Zn120 O129 1.977 . S
O121 Zn120 2.032 . S
O121 C125 1.278 . S
C122 O123 1.203 . S
C122 O129 1.267 . S
O123 C122 1.203 . S
O124 C117 1.185 . S
O124 Zn120 2.086 . S
C125 O121 1.278 . S
C125 O126 1.211 . S
O126 C125 1.211 . S
C127 O119 1.284 1_455 S
C127 O128 1.273 1_455 S
O128 C127 1.273 1_655 S
O129 Zn120 1.977 . S
O129 C122 1.267 . S
C130 O131 1.160 . S
C130 O137 1.185 . S
O131 C130 1.160 . S
O132 Zn133 1.899 . S
O132 C140 1.284 . S
Zn133 O132 1.899 . S
Zn133 O134 2.032 . S
Zn133 O137 2.086 . S
Zn133 O142 1.977 . S
O134 Zn133 2.032 . S
O134 C138 1.278 . S
C135 O136 1.203 . S
C135 O142 1.267 . S
O136 C135 1.203 . S
O137 C130 1.185 . S
O137 Zn133 2.086 . S
C138 O134 1.278 . S
C138 O139 1.211 . S
O139 C138 1.211 . S
C140 O132 1.284 . S
C140 O141 1.273 . S
O141 C140 1.273 . S
O142 Zn133 1.977 . S
O142 C135 1.267 . S
C143 O144 1.160 . S
C143 O150 1.185 . S
O144 C143 1.160 . S
O145 Zn146 1.899 . S
O145 C153 1.284 1_545 S
Zn146 O145 1.899 . S
Zn146 O147 2.032 . S
Zn146 O150 2.086 . S
Zn146 O155 1.977 . S
O147 Zn146 2.032 . S
O147 C151 1.278 . S
C148 O149 1.203 . S
C148 O155 1.267 . S
O149 C148 1.203 . S
O150 C143 1.185 . S
O150 Zn146 2.086 . S
C151 O147 1.278 . S
C151 O152 1.211 . S
O152 C151 1.211 . S
C153 O145 1.284 1_565 S
C153 O154 1.273 1_565 S
O154 C153 1.273 1_545 S
O155 Zn146 1.977 . S
O155 C148 1.267 . S
C156 O157 1.160 . S
C156 O163 1.185 . S
O157 C156 1.160 . S
O158 Zn159 1.899 . S
O158 C166 1.284 . S
Zn159 O158 1.899 . S
Zn159 O160 2.032 . S
Zn159 O163 2.086 . S
Zn159 O168 1.977 . S
O160 Zn159 2.032 . S
O160 C164 1.278 . S
C161 O162 1.203 . S
C161 O168 1.267 . S
O162 C161 1.203 . S
O163 C156 1.185 . S
O163 Zn159 2.086 . S
C164 O160 1.278 . S
C164 O165 1.211 . S
O165 C164 1.211 . S
C166 O158 1.284 . S
C166 O167 1.273 . S
O167 C166 1.273 . S
O168 Zn159 1.977 . S
O168 C161 1.267 . S
C169 O170 1.160 . S
C169 O176 1.185 . S
O170 C169 1.160 . S
O171 Zn172 1.899 . S
O171 C179 1.284 . S
Zn172 O171 1.899 . S
Zn172 O173 2.032 . S
Zn172 O176 2.086 . S
Zn172 O181 1.977 . S
O173 Zn172 2.032 . S
O173 C177 1.278 . S
C174 O175 1.203 . S
C174 O181 1.267 . S
O175 C174 1.203 . S
O176 C169 1.185 . S
O176 Zn172 2.086 . S
C177 O173 1.278 . S
C177 O178 1.211 . S
O178 C177 1.211 . S
C179 O171 1.284 . S
C179 O180 1.273 . S
O180 C179 1.273 . S
O181 Zn172 1.977 . S
O181 C174 1.267 . S
C182 O183 1.160 . S
C182 O189 1.185 . S
O183 C182 1.160 . S
O184 Zn185 1.899 . S
O184 C192 1.284 . S
Zn185 O184 1.899 . S
Zn185 O186 2.032 . S
Zn185 O189 2.086 . S
Zn185 O194 1.977 . S
O186 Zn185 2.032 . S
O186 C190 1.278 . S
C187 O188 1.203 . S
C187 O194 1.267 . S
O188 C187 1.203 . S
O189 C182 1.185 . S
O189 Zn185 2.086 . S
C190 O186 1.278 . S
C190 O191 1.211 . S
O191 C190 1.211 . S
C192 O184 1.284 . S
C192 O193 1.273 . S
O193 C192 1.273 . S
O194 Zn185 1.977 . S
O194 C187 1.267 . S
C195 O196 1.160 . S
C195 O202 1.185 . S
O196 C195 1.160 . S
O197 Zn198 1.899 . S
O197 C205 1.284 . S
Zn198 O197 1.899 . S
Zn198 O199 2.032 . S
Zn198 O202 2.086 . S
Zn198 O207 1.977 . S
O199 Zn198 2.032 . S
O199 C203 1.278 . S
C200 O201 1.203 . S
C200 O207 1.267 . S
O201 C200 1.203 . S
O202 C195 1.185 . S
O202 Zn198 2.086 . S
C203 O199 1.278 . S
C203 O204 1.211 . S
O204 C203 1.211 . S
C205 O197 1.284 . S
C205 O206 1.273 . S
O206 C205 1.273 . S
O207 Zn198 1.977 . S
O207 C200 1.267 . S
C208 O209 1.160 . S
C208 O215 1.185 . S
O209 C208 1.160 . S
O210 Zn211 1.899 . S
O210 C218 1.284 . S
Zn211 O210 1.899 . S
Zn211 O212 2.032 . S
Zn211 O215 2.086 . S
Zn211 O220 1.977 . S
O212 Zn211 2.032 . S
O212 C216 1.278 . S
C213 O214 1.203 . S
C213 O220 1.267 . S
O214 C213 1.203 . S
O215 C208 1.185 . S
O215 Zn211 2.086 . S
C216 O212 1.278 . S
C216 O217 1.211 . S
O217 C216 1.211 . S
C218 O210 1.284 . S
C218 O219 1.273 . S
O219 C218 1.273 . S
O220 Zn211 1.977 . S
O220 C213 1.267 . S
C221 O222 1.160 . S
C221 O228 1.185 . S
O222 C221 1.160 . S
O223 Zn224 1.899 . S
O223 C231 1.284 . S
Zn224 O223 1.899 . S
Zn224 O225 2.032 . S
Zn224 O228 2.086 . S
Zn224 O233 1.977 . S
O225 Zn224 2.032 . S
O225 C229 1.278 . S
C226 O227 1.203 . S
C226 O233 1.267 . S
O227 C226 1.203 . S
O228 C221 1.185 . S
O228 Zn224 2.086 . S
C229 O225 1.278 . S
C229 O230 1.211 . S
O230 C229 1.211 . S
C231 O223 1.284 . S
C231 O232 1.273 . S
O232 C231 1.273 . S
O233 Zn224 1.977 . S
O233 C226 1.267 . S
C234 O235 1.160 . S
C234 O241 1.185 . S
O235 C234 1.160 . S
O236 Zn237 1.899 . S
O236 C244 1.284 . S
Zn237 O236 1.899 . S
Zn237 O238 2.032 . S
Zn237 O241 2.086 . S
Zn237 O246 1.977 . S
O238 Zn237 2.032 . S
O238 C242 1.278 . S
C239 O240 1.203 . S
C239 O246 1.267 . S
O240 C239 1.203 . S
O241 C234 1.185 . S
O241 Zn237 2.086 . S
C242 O238 1.278 . S
C242 O243 1.211 . S
O243 C242 1.211 . S
C244 O236 1.284 . S
C244 O245 1.273 . S
O245 C244 1.273 . S
O246 Zn237 1.977 . S
O246 C239 1.267 . S
C247 O248 1.160 . S
C247 O254 1.185 . S
O248 C247 1.160 . S
O249 Zn250 1.899 . S
O249 C257 1.284 . S
Zn250 O249 1.899 . S
Zn250 O251 2.032 . S
Zn250 O254 2.086 . S
Zn250 O259 1.977 . S
O251 Zn250 2.032 . S
O251 C255 1.278 . S
C252 O253 1.203 . S
C252 O259 1.267 . S
O253 C252 1.203 . S
O254 C247 1.185 . S
O254 Zn250 2.086 . S
C255 O251 1.278 . S
C255 O256 1.211 . S
O256 C255 1.211 . S
C257 O249 1.284 . S
C257 O258 1.273 . S
O258 C257 1.273 . S
O259 Zn250 1.977 . S
O259 C252 1.267 . S
C260 O261 1.160 . S
C260 O267 1.185 . S
O261 C260 1.160 . S
O262 Zn263 1.899 . S
O262 C270 1.284 . S
Zn263 O262 1.899 . S
Zn263 O264 2.032 . S
Zn263 O267 2.086 . S
Zn263 O272 1.977 . S
O264 Zn263 2.032 . S
O264 C268 1.278 . S
C265 O266 1.203 . S
C265 O272 1.267 . S
O266 C265 1.203 . S
O267 C260 1.185 . S
O267 Zn263 2.086 . S
C268 O264 1.278 . S
C268 O269 1.211 . S
O269 C268 1.211 . S
C270 O262 1.284 . S
C270 O271 1.273 . S
O271 C270 1.273 . S
O272 Zn263 1.977 . S
O272 C265 1.267 . S
C273 O274 1.160 . S
C273 O280 1.185 . S
O274 C273 1.160 . S
O275 Zn276 1.899 . S
O275 C283 1.284 . S
Zn276 O275 1.899 . S
Zn276 O277 2.032 . S
Zn276 O280 2.086 . S
Zn276 O285 1.977 . S
O277 Zn276 2.032 . S
O277 C281 1.278 . S
C278 O279 1.203 . S
C278 O285 1.267 . S
O279 C278 1.203 . S
O280 C273 1.185 . S
O280 Zn276 2.086 . S
C281 O277 1.278 . S
C281 O282 1.211 . S
O282 C281 1.211 . S
C283 O275 1.284 . S
C283 O284 1.273 . S
O284 C283 1.273 . S
O285 Zn276 1.977 . S
O285 C278 1.267 . S
C286 O287 1.160 . S
C286 O293 1.185 . S
O287 C286 1.160 . S
O288 Zn289 1.899 . S
O288 C296 1.284 . S
Zn289 O288 1.899 . S
Zn289 O290 2.032 . S
Zn289 O293 2.086 . S
Zn289 O298 1.977 . S
O290 Zn289 2.032 . S
O290 C294 1.278 . S
C291 O292 1.203 . S
C291 O298 1.267 . S
O292 C291 1.203 . S
O293 C286 1.185 . S
O293 Zn289 2.086 . S
C294 O290 1.278 . S
C294 O295 1.211 . S
O295 C294 1.211 . S
C296 O288 1.284 . S
C296 O297 1.273 . S
O297 C296 1.273 . S
O298 Zn289 1.977 . S
O298 C291 1.267 . S
C299 O300 1.160 . S
C299 O306 1.185 . S
O300 C299 1.160 . S
O301 Zn302 1.899 . S
O301 C309 1.284 . S
Zn302 O301 1.899 . S
Zn302 O303 2.032 . S
Zn302 O306 2.086 . S
Zn302 O311 1.977 . S
O303 Zn302 2.032 . S
O303 C307 1.278 . S
C304 O305 1.203 . S
C304 O311 1.267 . S
O305 C304 1.203 . S
O306 C299 1.185 . S
O306 Zn302 2.086 . S
C307 O303 1.278 . S
C307 O308 1.211 . S
O308 C307 1.211 . S
C309 O301 1.284 . S
C309 O310 1.273 . S
O310 C309 1.273 . S
O311 Zn302 1.977 . S
O311 C304 1.267 . S
C312 O313 1.160 . S
C312 O319 1.185 . S
O313 C312 1.160 . S
O314 Zn315 1.899 . S
O314 C322 1.284 . S
Zn315 O314 1.899 . S
Zn315 O316 2.032 . S
Zn315 O319 2.086 . S
Zn315 O324 1.977 . S
O316 Zn315 2.032 . S
O316 C320 1.278 . S
C317 O318 1.203 . S
C317 O324 1.267 . S
O318 C317 1.203 . S
O319 C312 1.185 . S
O319 Zn315 2.086 . S
C320 O316 1.278 . S
C320 O321 1.211 . S
O321 C320 1.211 . S
C322 O314 1.284 . S
C322 O323 1.273 . S
O323 C322 1.273 . S
O324 Zn315 1.977 . S
O324 C317 1.267 . S
C325 O326 1.160 . S
C325 O332 1.185 . S
O326 C325 1.160 . S
O327 Zn328 1.899 . S
O327 C335 1.284 . S
Zn328 O327 1.899 . S
Zn328 O329 2.032 . S
Zn328 O332 2.086 . S
Zn328 O337 1.977 . S
O329 Zn328 2.032 . S
O329 C333 1.278 . S
C330 O331 1.203 . S
C330 O337 1.267 . S
O331 C330 1.203 . S
O332 C325 1.185 . S
O332 Zn328 2.086 . S
C333 O329 1.278 . S
C333 O334 1.211 . S
O334 C333 1.211 . S
C335 O327 1.284 . S
C335 O336 1.273 . S
O336 C335 1.273 . S
O337 Zn328 1.977 . S
O337 C330 1.267 . S
C338 O339 1.160 . S
C338 O345 1.185 . S
O339 C338 1.160 . S
O340 Zn341 1.899 . S
O340 C348 1.284 . S
Zn341 O340 1.899 . S
Zn341 O342 2.032 . S
Zn341 O345 2.086 . S
Zn341 O350 1.977 . S
O342 Zn341 2.032 . S
O342 C346 1.278 . S
C343 O344 1.203 . S
C343 O350 1.267 . S
O344 C343 1.203 . S
O345 C338 1.185 . S
O345 Zn341 2.086 . S
C346 O342 1.278 . S
C346 O347 1.211 . S
O347 C346 1.211 . S
C348 O340 1.284 . S
C348 O349 1.273 . S
O349 C348 1.273 . S
O350 Zn341 1.977 . S
O350 C343 1.267 . S
C351 O352 1.160 . S
C351 O358 1.185 . S
O352 C351 1.160 . S
O353 Zn354 1.899 . S
O353 C361 1.284 . S
Zn354 O353 1.899 . S
Zn354 O355 2.032 . S
Zn354 O358 2.086 . S
Zn354 O363 1.977 . S
O355 Zn354 2.032 . S
O355 C359 1.278 . S
C356 O357 1.203 . S
C356 O363 1.267 . S
O357 C356 1.203 . S
O358 C351 1.185 . S
O358 Zn354 2.086 . S
C359 O355 1.278 . S
C359 O360 1.211 . S
O360 C359 1.211 . S
C361 O353 1.284 . S
C361 O362 1.273 . S
O362 C361 1.273 . S
O363 Zn354 1.977 . S
O363 C356 1.267 . S
C364 O365 1.160 . S
C364 O371 1.185 . S
O365 C364 1.160 . S
O366 Zn367 1.899 . S
O366 C374 1.284 . S
Zn367 O366 1.899 . S
Zn367 O368 2.032 . S
Zn367 O371 2.086 . S
Zn367 O376 1.977 . S
O368 Zn367 2.032 . S
O368 C372 1.278 . S
C369 O370 1.203 . S
C369 O376 1.267 . S
O370 C369 1.203 . S
O371 C364 1.185 . S
O371 Zn367 2.086 . S
C372 O368 1.278 . S
C372 O373 1.211 . S
O373 C372 1.211 . S
C374 O366 1.284 . S
C374 O375 1.273 . S
O375 C374 1.273 . S
O376 Zn367 1.977 . S
O376 C369 1.267 . S
C377 O378 1.160 . S
C377 O384 1.185 . S
O378 C377 1.160 . S
O379 Zn380 1.899 . S
O379 C387 1.284 . S
Zn380 O379 1.899 . S
Zn380 O381 2.032 . S
Zn380 O384 2.086 . S
Zn380 O389 1.977 . S
O381 Zn380 2.032 . S
O381 C385 1.278 . S
C382 O383 1.203 . S
C382 O389 1.267 . S
O383 C382 1.203 . S
O384 C377 1.185 . S
O384 Zn380 2.086 . S
C385 O381 1.278 . S
C385 O386 1.211 . S
O386 C385 1.211 . S
C387 O379 1.284 . S
C387 O388 1.273 . S
O388 C387 1.273 . S
O389 Zn380 1.977 . S
O389 C382 1.267 . S
C390 O391 1.160 . S
C390 O397 1.185 . S
O391 C390 1.160 . S
O392 Zn393 1.899 . S
O392 C400 1.284 . S
Zn393 O392 1.899 . S
Zn393 O394 2.032 . S
Zn393 O397 2.086 . S
Zn393 O402 1.977 . S
O394 Zn393 2.032 . S
O394 C398 1.278 . S
C395 O396 1.203 . S
C395 O402 1.267 . S
O396 C395 1.203 . S
O397 C390 1.185 . S
O397 Zn393 2.086 . S
C398 O394 1.278 . S
C398 O399 1.211 . S
O399 C398 1.211 . S
C400 O392 1.284 . S
C400 O401 1.273 . S
O401 C400 1.273 . S
O402 Zn393 1.977 . S
O402 C395 1.267 . S
C403 O404 1.160 . S
C403 O410 1.185 . S
O404 C403 1.160 . S
O405 Zn406 1.899 . S
O405 C413 1.284 . S
Zn406 O405 1.899 . S
Zn406 O407 2.032 . S
Zn406 O410 2.086 . S
Zn406 O415 1.977 . S
O407 Zn406 2.032 . S
O407 C411 1.278 . S
C408 O409 1.203 . S
C408 O415 1.267 . S
O409 C408 1.203 . S
O410 C403 1.185 . S
O410 Zn406 2.086 . S
C411 O407 1.278 . S
C411 O412 1.211 . S
O412 C411 1.211 . S
C413 O405 1.284 . S
C413 O414 1.273 . S
O414 C413 1.273 . S
O415 Zn406 1.977 . S
O415 C408 1.267 . S
C416 O417 1.160 . S
C416 O423 1.185 . S
O417 C416 1.160 . S
O418 Zn419 1.899 . S
O418 C426 1.284 . S
Zn419 O418 1.899 . S
Zn419 O420 2.032 . S
Zn419 O423 2.086 . S
Zn419 O428 1.977 . S
O420 Zn419 2.032 . S
O420 C424 1.278 . S
C421 O422 1.203 . S
C421 O428 1.267 . S
O422 C421 1.203 . S
O423 C416 1.185 . S
O423 Zn419 2.086 . S
C424 O420 1.278 . S
C424 O425 1.211 . S
O425 C424 1.211 . S
C426 O418 1.284 . S
C426 O427 1.273 . S
O427 C426 1.273 . S
O428 Zn419 1.977 . S
O428 C421 1.267 . S
C429 O430 1.160 . S
C429 O436 1.185 . S
O430 C429 1.160 . S
O431 Zn432 1.899 . S
O431 C439 1.284 . S
Zn432 O431 1.899 . S
Zn432 O433 2.032 . S
Zn432 O436 2.086 . S
Zn432 O441 1.977 . S
O433 Zn432 2.032 . S
O433 C437 1.278 . S
C434 O435 1.203 . S
C434 O441 1.267 . S
O435 C434 1.203 . S
O436 C429 1.185 . S
O436 Zn432 2.086 . S
C437 O433 1.278 . S
C437 O438 1.211 . S
O438 C437 1.211 . S
C439 O431 1.284 . S
C439 O440 1.273 . S
O440 C439 1.273 . S
O441 Zn432 1.977 . S
O441 C434 1.267 . S
C442 O443 1.160 . S
C442 O449 1.185 . S
O443 C442 1.160 . S
O444 Zn445 1.899 . S
O444 C452 1.284 . S
Zn445 O444 1.899 . S
Zn445 O446 2.032 . S
Zn445 O449 2.086 . S
Zn445 O454 1.977 . S
O446 Zn445 2.032 . S
O446 C450 1.278 . S
C447 O448 1.203 . S
C447 O454 1.267 . S
O448 C447 1.203 . S
O449 C442 1.185 . S
O449 Zn445 2.086 . S
C450 O446 1.278 . S
C450 O451 1.211 . S
O451 C450 1.211 . S
C452 O444 1.284 . S
C452 O453 1.273 . S
O453 C452 1.273 . S
O454 Zn445 1.977 . S
O454 C447 1.267 . S
C455 O456 1.160 . S
C455 O462 1.185 . S
O456 C455 1.160 . S
O457 Zn458 1.899 . S
O457 C465 1.284 . S
Zn458 O457 1.899 . S
Zn458 O459 2.032 . S
Zn458 O462 2.086 . S
Zn458 O467 1.977 . S
O459 Zn458 2.032 . S
O459 C463 1.278 . S
C460 O461 1.203 . S
C460 O467 1.267 . S
O461 C460 1.203 . S
O462 C455 1.185 . S
O462 Zn458 2.086 . S
C463 O459 1.278 . S
C463 O464 1.211 . S
O464 C463 1.211 . S
C465 O457 1.284 . S
C465 O466 1.273 . S
O466 C465 1.273 . S
O467 Zn458 1.977 . S
O467 C460 1.267 . S
C468 C469 1.369 . S
C468 C470 1.419 . S
C468 H472 0.930 . S
C469 C468 1.369 . S
C469 C478 1.429 . S
C470 C468 1.419 . S
C470 C471 1.363 . S
C470 H473 0.929 . S
C471 C470 1.363 . S
C471 C477 1.428 . S
H472 C468 0.930 . S
H473 C470 0.929 . S
S474 N475 1.613 . S
S474 N476 1.610 . S
N475 S474 1.613 . S
N475 C478 1.350 . S
N476 S474 1.610 . S
N476 C477 1.351 . S
C477 C471 1.428 . S
C477 N476 1.351 . S
C477 C478 1.434 . S
C478 C469 1.429 . S
C478 N475 1.350 . S
C478 C477 1.434 . S
C479 C480 1.369 . S
C479 C481 1.419 . S
C479 H483 0.930 . S
C480 C479 1.369 . S
C480 C489 1.429 . S
C481 C479 1.419 . S
C481 C482 1.363 . S
C481 H484 0.929 . S
C482 C481 1.363 . S
C482 C488 1.428 . S
H483 C479 0.930 . S
H484 C481 0.929 . S
S485 N486 1.613 . S
S485 N487 1.610 . S
N486 S485 1.613 . S
N486 C489 1.350 . S
N487 S485 1.610 . S
N487 C488 1.351 . S
C488 C482 1.428 . S
C488 N487 1.351 . S
C488 C489 1.434 . S
C489 C480 1.429 . S
C489 N486 1.350 . S
C489 C488 1.434 . S
C490 C491 1.369 . S
C490 C492 1.419 . S
C490 H494 0.930 . S
C491 C490 1.369 . S
C491 C500 1.429 . S
C492 C490 1.419 . S
C492 C493 1.363 . S
C492 H495 0.929 . S
C493 C492 1.363 . S
C493 C499 1.428 . S
H494 C490 0.930 . S
H495 C492 0.929 . S
S496 N497 1.613 . S
S496 N498 1.610 . S
N497 S496 1.613 . S
N497 C500 1.350 . S
N498 S496 1.610 . S
N498 C499 1.351 . S
C499 C493 1.428 . S
C499 N498 1.351 . S
C499 C500 1.434 . S
C500 C491 1.429 . S
C500 N497 1.350 . S
C500 C499 1.434 . S
C501 C502 1.369 . S
C501 C503 1.419 . S
C501 H505 0.930 . S
C502 C501 1.369 . S
C502 C511 1.429 . S
C503 C501 1.419 . S
C503 C504 1.363 . S
C503 H506 0.929 . S
C504 C503 1.363 . S
C504 C510 1.428 . S
H505 C501 0.930 . S
H506 C503 0.929 . S
S507 N508 1.613 . S
S507 N509 1.610 . S
N508 S507 1.613 . S
N508 C511 1.350 . S
N509 S507 1.610 . S
N509 C510 1.351 . S
C510 C504 1.428 . S
C510 N509 1.351 . S
C510 C511 1.434 . S
C511 C502 1.429 . S
C511 N508 1.350 . S
C511 C510 1.434 . S
C512 C513 1.369 . S
C512 C514 1.419 . S
C512 H516 0.930 . S
C513 C512 1.369 . S
C513 C522 1.429 . S
C514 C512 1.419 . S
C514 C515 1.363 . S
C514 H517 0.929 . S
C515 C514 1.363 . S
C515 C521 1.428 . S
H516 C512 0.930 . S
H517 C514 0.929 . S
S518 N519 1.613 . S
S518 N520 1.610 . S
N519 S518 1.613 . S
N519 C522 1.350 . S
N520 S518 1.610 . S
N520 C521 1.351 . S
C521 C515 1.428 . S
C521 N520 1.351 . S
C521 C522 1.434 . S
C522 C513 1.429 . S
C522 N519 1.350 . S
C522 C521 1.434 . S
C523 C524 1.369 . S
C523 C525 1.419 . S
C523 H527 0.930 . S
C524 C523 1.369 . S
C524 C533 1.429 . S
C525 C523 1.419 . S
C525 C526 1.363 . S
C525 H528 0.929 . S
C526 C525 1.363 . S
C526 C532 1.428 . S
H527 C523 0.930 . S
H528 C525 0.929 . S
S529 N530 1.613 . S
S529 N531 1.610 . S
N530 S529 1.613 . S
N530 C533 1.350 . S
N531 S529 1.610 . S
N531 C532 1.351 . S
C532 C526 1.428 . S
C532 N531 1.351 . S
C532 C533 1.434 . S
C533 C524 1.429 . S
C533 N530 1.350 . S
C533 C532 1.434 . S
C534 C535 1.369 . S
C534 C536 1.419 . S
C534 H538 0.930 . S
C535 C534 1.369 . S
C535 C544 1.429 . S
C536 C534 1.419 . S
C536 C537 1.363 . S
C536 H539 0.929 . S
C537 C536 1.363 . S
C537 C543 1.428 . S
H538 C534 0.930 . S
H539 C536 0.929 . S
S540 N541 1.613 . S
S540 N542 1.610 . S
N541 S540 1.613 . S
N541 C544 1.350 . S
N542 S540 1.610 . S
N542 C543 1.351 . S
C543 C537 1.428 . S
C543 N542 1.351 . S
C543 C544 1.434 . S
C544 C535 1.429 . S
C544 N541 1.350 . S
C544 C543 1.434 . S
C545 C546 1.369 . S
C545 C547 1.419 . S
C545 H549 0.930 . S
C546 C545 1.369 . S
C546 C555 1.429 . S
C547 C545 1.419 . S
C547 C548 1.363 . S
C547 H550 0.929 . S
C548 C547 1.363 . S
C548 C554 1.428 . S
H549 C545 0.930 . S
H550 C547 0.929 . S
S551 N552 1.613 . S
S551 N553 1.610 . S
N552 S551 1.613 . S
N552 C555 1.350 . S
N553 S551 1.610 . S
N553 C554 1.351 . S
C554 C548 1.428 . S
C554 N553 1.351 . S
C554 C555 1.434 . S
C555 C546 1.429 . S
C555 N552 1.350 . S
C555 C554 1.434 . S
C556 C557 1.369 . S
C556 C558 1.419 . S
C556 H560 0.930 . S
C557 C556 1.369 . S
C557 C566 1.429 . S
C558 C556 1.419 . S
C558 C559 1.363 . S
C558 H561 0.929 . S
C559 C558 1.363 . S
C559 C565 1.428 . S
H560 C556 0.930 . S
H561 C558 0.929 . S
S562 N563 1.613 . S
S562 N564 1.610 . S
N563 S562 1.613 . S
N563 C566 1.350 . S
N564 S562 1.610 . S
N564 C565 1.351 . S
C565 C559 1.428 . S
C565 N564 1.351 . S
C565 C566 1.434 . S
C566 C557 1.429 . S
C566 N563 1.350 . S
C566 C565 1.434 . S
C567 C568 1.369 . S
C567 C569 1.419 . S
C567 H571 0.930 . S
C568 C567 1.369 . S
C568 C577 1.429 . S
C569 C567 1.419 . S
C569 C570 1.363 . S
C569 H572 0.929 . S
C570 C569 1.363 . S
C570 C576 1.428 . S
H571 C567 0.930 . S
H572 C569 0.929 . S
S573 N574 1.613 . S
S573 N575 1.610 . S
N574 S573 1.613 . S
N574 C577 1.350 . S
N575 S573 1.610 . S
N575 C576 1.351 . S
C576 C570 1.428 . S
C576 N575 1.351 . S
C576 C577 1.434 . S
C577 C568 1.429 . S
C577 N574 1.350 . S
C577 C576 1.434 . S
C578 C579 1.369 . S
C578 C580 1.419 . S
C578 H582 0.930 . S
C579 C578 1.369 . S
C579 C588 1.429 . S
C580 C578 1.419 . S
C580 C581 1.363 . S
C580 H583 0.929 . S
C581 C580 1.363 . S
C581 C587 1.428 . S
H582 C578 0.930 . S
H583 C580 0.929 . S
S584 N585 1.613 . S
S584 N586 1.610 . S
N585 S584 1.613 . S
N585 C588 1.350 . S
N586 S584 1.610 . S
N586 C587 1.351 . S
C587 C581 1.428 . S
C587 N586 1.351 . S
C587 C588 1.434 . S
C588 C579 1.429 . S
C588 N585 1.350 . S
C588 C587 1.434 . S
C589 C590 1.369 . S
C589 C591 1.419 . S
C589 H593 0.930 . S
C590 C589 1.369 . S
C590 C599 1.429 . S
C591 C589 1.419 . S
C591 C592 1.363 . S
C591 H594 0.929 . S
C592 C591 1.363 . S
C592 C598 1.428 . S
H593 C589 0.930 . S
H594 C591 0.929 . S
S595 N596 1.613 . S
S595 N597 1.610 . S
N596 S595 1.613 . S
N596 C599 1.350 . S
N597 S595 1.610 . S
N597 C598 1.351 . S
C598 C592 1.428 . S
C598 N597 1.351 . S
C598 C599 1.434 . S
C599 C590 1.429 . S
C599 N596 1.350 . S
C599 C598 1.434 . S
C600 C601 1.369 1_655 S
C600 C602 1.419 . S
C600 H604 0.930 . S
C601 C600 1.369 1_455 S
C601 C610 1.429 . S
C602 C600 1.419 . S
C602 C603 1.363 . S
C602 H605 0.929 . S
C603 C602 1.363 . S
C603 C609 1.428 1_655 S
H604 C600 0.930 . S
H605 C602 0.929 . S
S606 N607 1.613 . S
S606 N608 1.610 . S
N607 S606 1.613 . S
N607 C610 1.350 . S
N608 S606 1.610 . S
N608 C609 1.351 . S
C609 C603 1.428 1_455 S
C609 N608 1.351 . S
C609 C610 1.434 . S
C610 C601 1.429 . S
C610 N607 1.350 . S
C610 C609 1.434 . S
C611 C612 1.369 . S
C611 C613 1.419 . S
C611 H615 0.930 . S
C612 C611 1.369 . S
C612 C621 1.429 . S
C613 C611 1.419 . S
C613 C614 1.363 . S
C613 H616 0.929 . S
C614 C613 1.363 . S
C614 C620 1.428 . S
H615 C611 0.930 . S
H616 C613 0.929 . S
S617 N618 1.613 . S
S617 N619 1.610 . S
N618 S617 1.613 . S
N618 C621 1.350 . S
N619 S617 1.610 . S
N619 C620 1.351 . S
C620 C614 1.428 . S
C620 N619 1.351 . S
C620 C621 1.434 . S
C621 C612 1.429 . S
C621 N618 1.350 . S
C621 C620 1.434 . S
C622 C623 1.369 . S
C622 C624 1.419 . S
C622 H626 0.930 . S
C623 C622 1.369 . S
C623 C632 1.429 1_545 S
C624 C622 1.419 . S
C624 C625 1.363 1_545 S
C624 H627 0.929 . S
C625 C624 1.363 1_565 S
C625 C631 1.428 . S
H626 C622 0.930 . S
H627 C624 0.929 . S
S628 N629 1.613 . S
S628 N630 1.610 . S
N629 S628 1.613 . S
N629 C632 1.350 . S
N630 S628 1.610 . S
N630 C631 1.351 . S
C631 C625 1.428 . S
C631 N630 1.351 . S
C631 C632 1.434 . S
C632 C623 1.429 1_565 S
C632 N629 1.350 . S
C632 C631 1.434 . S
C633 C634 1.369 . S
C633 C635 1.415 1_564 S
C633 H637 0.939 1_565 S
C634 C633 1.369 . S
C634 C643 1.481 . S
C635 C633 1.415 1_546 S
C635 C636 1.363 . S
C635 H638 0.929 . S
C636 C635 1.363 . S
C636 C642 1.428 1_545 S
H637 C633 0.939 1_545 S
H638 C635 0.929 . S
S639 N640 1.629 . S
S639 N641 1.610 . S
N640 S639 1.629 . S
N640 C643 1.346 1_556 S
N641 S639 1.610 . S
N641 C642 1.351 . S
C642 C636 1.428 1_565 S
C642 N641 1.351 . S
C642 C643 1.380 1_556 S
C643 C634 1.481 . S
C643 N640 1.346 1_554 S
C643 C642 1.380 1_554 S
C644 C645 1.369 1_455 S
C644 C646 1.426 1_556 S
C644 H648 0.930 . S
C645 C644 1.369 1_655 S
C645 C654 1.388 1_556 S
C646 C644 1.426 1_554 S
C646 C647 1.355 . S
C646 H649 0.928 1_554 S
C647 C646 1.355 . S
C647 C653 1.428 1_455 S
H648 C644 0.930 . S
H649 C646 0.928 1_556 S
S650 N651 1.613 . S
S650 N652 1.610 . S
N651 S650 1.613 . S
N651 C654 1.358 . S
N652 S650 1.610 . S
N652 C653 1.351 . S
C653 C647 1.428 1_655 S
C653 N652 1.351 . S
C653 C654 1.473 . S
C654 C645 1.388 1_554 S
C654 N651 1.358 . S
C654 C653 1.473 . S
C655 C656 1.369 . S
C655 C657 1.398 1_556 S
C655 H659 0.930 . S
C656 C655 1.369 . S
C656 C665 1.428 1_556 S
C657 C655 1.398 1_554 S
C657 C658 1.384 . S
C657 H660 0.929 1_554 S
C658 C657 1.384 . S
C658 C664 1.428 . S
H659 C655 0.930 . S
H660 C657 0.929 1_556 S
S661 N662 1.613 . S
S661 N663 1.610 . S
N662 S661 1.613 . S
N662 C665 1.350 . S
N663 S661 1.610 . S
N663 C664 1.351 . S
C664 C658 1.428 . S
C664 N663 1.351 . S
C664 C665 1.434 . S
C665 C656 1.428 1_554 S
C665 N662 1.350 . S
C665 C664 1.434 . S
C666 C667 1.369 . S
C666 C668 1.419 . S
C666 H670 0.930 . S
C667 C666 1.369 . S
C667 C676 1.429 . S
C668 C666 1.419 . S
C668 C669 1.363 1_545 S
C668 H671 0.929 . S
C669 C668 1.363 1_565 S
C669 C675 1.428 . S
H670 C666 0.930 . S
H671 C668 0.929 . S
S672 N673 1.613 . S
S672 N674 1.610 . S
N673 S672 1.613 . S
N673 C676 1.350 1_565 S
N674 S672 1.610 . S
N674 C675 1.351 . S
C675 C669 1.428 . S
C675 N674 1.351 . S
C675 C676 1.434 1_565 S
C676 C667 1.429 . S
C676 N673 1.350 1_545 S
C676 C675 1.434 1_545 S
C677 C678 1.369 . S
C677 C679 1.419 1_455 S
C677 H681 0.930 . S
C678 C677 1.369 . S
C678 C687 1.429 1_455 S
C679 C677 1.419 1_655 S
C679 C680 1.363 . S
C679 H682 0.929 . S
C680 C679 1.363 . S
C680 C686 1.428 . S
H681 C677 0.930 . S
H682 C679 0.929 . S
S683 N684 1.613 . S
S683 N685 1.610 . S
N684 S683 1.613 . S
N684 C687 1.350 . S
N685 S683 1.610 . S
N685 C686 1.351 . S
C686 C680 1.428 . S
C686 N685 1.351 . S
C686 C687 1.434 . S
C687 C678 1.429 1_655 S
C687 N684 1.350 . S
C687 C686 1.434 . S
C688 C689 1.369 . S
C688 C690 1.419 . S
C688 H692 0.930 . S
C689 C688 1.369 . S
C689 C698 1.429 . S
C690 C688 1.419 . S
C690 C691 1.363 . S
C690 H693 0.929 . S
C691 C690 1.363 . S
C691 C697 1.428 . S
H692 C688 0.930 . S
H693 C690 0.929 . S
S694 N695 1.613 . S
S694 N696 1.610 . S
N695 S694 1.613 . S
N695 C698 1.350 . S
N696 S694 1.610 . S
N696 C697 1.351 . S
C697 C691 1.428 . S
C697 N696 1.351 . S
C697 C698 1.434 . S
C698 C689 1.429 . S
C698 N695 1.350 . S
C698 C697 1.434 . S
C699 C700 1.369 1_455 S
C699 C701 1.419 . S
C699 H703 0.930 . S
C700 C699 1.369 1_655 S
C700 C709 1.429 . S
C701 C699 1.419 . S
C701 C702 1.363 . S
C701 H704 0.929 . S
C702 C701 1.363 . S
C702 C708 1.428 . S
H703 C699 0.930 . S
H704 C701 0.929 . S
S705 N706 1.613 . S
S705 N707 1.610 . S
N706 S705 1.613 . S
N706 C709 1.350 . S
N707 S705 1.610 . S
N707 C708 1.351 1_655 S
C708 C702 1.428 . S
C708 N707 1.351 1_455 S
C708 C709 1.434 1_455 S
C709 C700 1.429 . S
C709 N706 1.350 . S
C709 C708 1.434 1_655 S
C710 C711 1.369 . S
C710 C712 1.419 . S
C710 H714 0.930 . S
C711 C710 1.369 . S
C711 C720 1.429 . S
C712 C710 1.419 . S
C712 C713 1.363 . S
C712 H715 0.929 . S
C713 C712 1.363 . S
C713 C719 1.428 . S
H714 C710 0.930 . S
H715 C712 0.929 . S
S716 N717 1.613 . S
S716 N718 1.610 . S
N717 S716 1.613 . S
N717 C720 1.350 . S
N718 S716 1.610 . S
N718 C719 1.351 . S
C719 C713 1.428 . S
C719 N718 1.351 . S
C719 C720 1.434 . S
C720 C711 1.429 . S
C720 N717 1.350 . S
C720 C719 1.434 . S
C721 C722 1.369 . S
C721 C723 1.419 1_545 S
C721 H725 0.930 . S
C722 C721 1.369 . S
C722 C731 1.429 1_545 S
C723 C721 1.419 1_565 S
C723 C724 1.363 . S
C723 H726 0.929 1_565 S
C724 C723 1.363 . S
C724 C730 1.428 . S
H725 C721 0.930 . S
H726 C723 0.929 1_545 S
S727 N728 1.613 . S
S727 N729 1.610 . S
N728 S727 1.613 . S
N728 C731 1.350 . S
N729 S727 1.610 . S
N729 C730 1.351 . S
C730 C724 1.428 . S
C730 N729 1.351 . S
C730 C731 1.434 . S
C731 C722 1.429 1_565 S
C731 N728 1.350 . S
C731 C730 1.434 . S
C732 C733 1.369 . S
C732 C734 1.419 . S
C732 H736 0.930 . S
C733 C732 1.369 . S
C733 C742 1.413 1_565 S
C734 C732 1.419 . S
C734 C735 1.363 1_565 S
C734 H737 0.929 . S
C735 C734 1.363 1_545 S
C735 C741 1.428 . S
H736 C732 0.930 . S
H737 C734 0.929 . S
S738 N739 1.613 . S
S738 N740 1.610 . S
N739 S738 1.613 . S
N739 C742 1.349 . S
N740 S738 1.610 . S
N740 C741 1.351 . S
C741 C735 1.428 . S
C741 N740 1.351 . S
C741 C742 1.452 . S
C742 C733 1.413 1_545 S
C742 N739 1.349 . S
C742 C741 1.452 . S
C743 C744 1.369 . S
C743 C745 1.419 . S
C743 H747 0.930 . S
C744 C743 1.369 . S
C744 C753 1.429 1_655 S
C745 C743 1.419 . S
C745 C746 1.363 1_655 S
C745 H748 0.929 . S
C746 C745 1.363 1_455 S
C746 C752 1.428 . S
H747 C743 0.930 . S
H748 C745 0.929 . S
S749 N750 1.613 . S
S749 N751 1.610 . S
N750 S749 1.613 . S
N750 C753 1.350 . S
N751 S749 1.610 . S
N751 C752 1.351 . S
C752 C746 1.428 . S
C752 N751 1.351 . S
C752 C753 1.434 . S
C753 C744 1.429 1_455 S
C753 N750 1.350 . S
C753 C752 1.434 . S
C754 C755 1.369 . S
C754 C756 1.419 . S
C754 H758 0.930 . S
C755 C754 1.369 . S
C755 C764 1.429 . S
C756 C754 1.419 . S
C756 C757 1.363 . S
C756 H759 0.929 . S
C757 C756 1.363 . S
C757 C763 1.428 . S
H758 C754 0.930 . S
H759 C756 0.929 . S
S760 N761 1.613 . S
S760 N762 1.610 . S
N761 S760 1.613 . S
N761 C764 1.350 . S
N762 S760 1.610 . S
N762 C763 1.351 . S
C763 C757 1.428 . S
C763 N762 1.351 . S
C763 C764 1.434 . S
C764 C755 1.429 . S
C764 N761 1.350 . S
C764 C763 1.434 . S
C765 C766 1.369 . S
C765 C767 1.419 1_655 S
C765 H769 0.930 1_655 S
C766 C765 1.369 . S
C766 C775 1.429 . S
C767 C765 1.419 1_455 S
C767 C768 1.363 . S
C767 H770 0.929 . S
C768 C767 1.363 . S
C768 C774 1.428 1_455 S
H769 C765 0.930 1_455 S
H770 C767 0.929 . S
S771 N772 1.613 . S
S771 N773 1.610 . S
N772 S771 1.613 . S
N772 C775 1.350 . S
N773 S771 1.610 . S
N773 C774 1.351 . S
C774 C768 1.428 1_655 S
C774 N773 1.351 . S
C774 C775 1.434 . S
C775 C766 1.429 . S
C775 N772 1.350 . S
C775 C774 1.434 . S
C776 C777 1.369 . S
C776 C778 1.419 . S
C776 H780 0.930 . S
C777 C776 1.369 . S
C777 C786 1.429 . S
C778 C776 1.419 . S
C778 C779 1.363 . S
C778 H781 0.929 . S
C779 C778 1.363 . S
C779 C785 1.428 . S
H780 C776 0.930 . S
H781 C778 0.929 . S
S782 N783 1.613 . S
S782 N784 1.610 . S
N783 S782 1.613 . S
N783 C786 1.350 . S
N784 S782 1.610 . S
N784 C785 1.351 . S
C785 C779 1.428 . S
C785 N784 1.351 . S
C785 C786 1.434 . S
C786 C777 1.429 . S
C786 N783 1.350 . S
C786 C785 1.434 . S
C787 C788 1.369 . S
C787 C789 1.419 . S
C787 H791 0.930 . S
C788 C787 1.369 . S
C788 C797 1.429 1_545 S
C789 C787 1.419 . S
C789 C790 1.363 1_545 S
C789 H792 0.929 . S
C790 C789 1.363 1_565 S
C790 C796 1.428 . S
H791 C787 0.930 . S
H792 C789 0.929 . S
S793 N794 1.613 . S
S793 N795 1.610 . S
N794 S793 1.613 . S
N794 C797 1.350 . S
N795 S793 1.610 . S
N795 C796 1.351 . S
C796 C790 1.428 . S
C796 N795 1.351 . S
C796 C797 1.434 . S
C797 C788 1.429 1_565 S
C797 N794 1.350 . S
C797 C796 1.434 . S
C798 C799 1.369 . S
C798 C800 1.419 . S
C798 H802 0.930 . S
C799 C798 1.369 . S
C799 C808 1.429 . S
C800 C798 1.419 . S
C800 C801 1.363 . S
C800 H803 0.929 . S
C801 C800 1.363 . S
C801 C807 1.428 . S
H802 C798 0.930 . S
H803 C800 0.929 . S
S804 N805 1.613 . S
S804 N806 1.610 . S
N805 S804 1.613 . S
N805 C808 1.350 . S
N806 S804 1.610 . S
N806 C807 1.351 . S
C807 C801 1.428 . S
C807 N806 1.351 . S
C807 C808 1.434 . S
C808 C799 1.429 . S
C808 N805 1.350 . S
C808 C807 1.434 . S
C809 C810 1.369 . S
C809 C811 1.419 1_545 S
C809 H813 0.930 . S
C810 C809 1.369 . S
C810 C819 1.429 . S
C811 C809 1.419 1_565 S
C811 C812 1.363 . S
C811 H814 0.929 . S
C812 C811 1.363 . S
C812 C818 1.428 . S
H813 C809 0.930 . S
H814 C811 0.929 . S
S815 N816 1.613 1_565 S
S815 N817 1.610 . S
N816 S815 1.613 1_545 S
N816 C819 1.350 . S
N817 S815 1.610 . S
N817 C818 1.351 . S
C818 C812 1.428 . S
C818 N817 1.351 . S
C818 C819 1.434 1_565 S
C819 C810 1.429 . S
C819 N816 1.350 . S
C819 C818 1.434 1_545 S
C820 C821 1.369 . S
C820 C822 1.419 1_655 S
C820 H824 0.930 . S
C821 C820 1.369 . S
C821 C830 1.429 . S
C822 C820 1.419 1_455 S
C822 C823 1.363 . S
C822 H825 0.929 . S
C823 C822 1.363 . S
C823 C829 1.428 . S
H824 C820 0.930 . S
H825 C822 0.929 . S
S826 N827 1.613 . S
S826 N828 1.610 1_655 S
N827 S826 1.613 . S
N827 C830 1.350 . S
N828 S826 1.610 1_455 S
N828 C829 1.351 . S
C829 C823 1.428 . S
C829 N828 1.351 . S
C829 C830 1.434 1_455 S
C830 C821 1.429 . S
C830 N827 1.350 . S
C830 C829 1.434 1_655 S
C831 C832 1.369 . S
C831 C833 1.419 . S
C831 H835 0.930 . S
C832 C831 1.369 . S
C832 C841 1.429 . S
C833 C831 1.419 . S
C833 C834 1.363 . S
C833 H836 0.929 . S
C834 C833 1.363 . S
C834 C840 1.428 . S
H835 C831 0.930 . S
H836 C833 0.929 . S
S837 N838 1.613 . S
S837 N839 1.610 . S
N838 S837 1.613 . S
N838 C841 1.350 . S
N839 S837 1.610 . S
N839 C840 1.351 . S
C840 C834 1.428 . S
C840 N839 1.351 . S
C840 C841 1.434 . S
C841 C832 1.429 . S
C841 N838 1.350 . S
C841 C840 1.434 . S
C842 C843 1.369 . S
C842 C844 1.419 1_565 S
C842 H846 0.930 . S
C843 C842 1.369 . S
C843 C852 1.429 . S
C844 C842 1.419 1_545 S
C844 C845 1.363 . S
C844 H847 0.929 . S
C845 C844 1.363 . S
C845 C851 1.428 . S
H846 C842 0.930 . S
H847 C844 0.929 . S
S848 N849 1.613 . S
S848 N850 1.610 1_565 S
N849 S848 1.613 . S
N849 C852 1.350 . S
N850 S848 1.610 1_545 S
N850 C851 1.351 . S
C851 C845 1.428 . S
C851 N850 1.351 . S
C851 C852 1.434 1_545 S
C852 C843 1.429 . S
C852 N849 1.350 . S
C852 C851 1.434 1_565 S
C853 C854 1.369 . S
C853 C855 1.419 1_655 S
C853 H857 0.930 . S
C854 C853 1.369 . S
C854 C863 1.429 . S
C855 C853 1.419 1_455 S
C855 C856 1.363 . S
C855 H858 0.929 . S
C856 C855 1.363 . S
C856 C862 1.428 . S
H857 C853 0.930 . S
H858 C855 0.929 . S
S859 N860 1.613 . S
S859 N861 1.610 1_655 S
N860 S859 1.613 . S
N860 C863 1.350 . S
N861 S859 1.610 1_455 S
N861 C862 1.351 . S
C862 C856 1.428 . S
C862 N861 1.351 . S
C862 C863 1.434 1_455 S
C863 C854 1.429 . S
C863 N860 1.350 . S
C863 C862 1.434 1_655 S
C864 C865 1.369 . S
C864 C866 1.419 . S
C864 H868 0.930 . S
C865 C864 1.369 . S
C865 C874 1.429 . S
C866 C864 1.419 . S
C866 C867 1.363 . S
C866 H869 0.929 . S
C867 C866 1.363 . S
C867 C873 1.428 . S
H868 C864 0.930 . S
H869 C866 0.929 . S
S870 N871 1.613 . S
S870 N872 1.610 . S
N871 S870 1.613 . S
N871 C874 1.350 . S
N872 S870 1.610 . S
N872 C873 1.351 . S
C873 C867 1.428 . S
C873 N872 1.351 . S
C873 C874 1.434 . S
C874 C865 1.429 . S
C874 N871 1.350 . S
C874 C873 1.434 . S
C875 C876 1.369 . S
C875 C877 1.419 . S
C875 H879 0.930 1_565 S
C876 C875 1.369 . S
C876 C885 1.429 . S
C877 C875 1.419 . S
C877 C878 1.363 . S
C877 H880 0.929 . S
C878 C877 1.363 . S
C878 C884 1.428 . S
H879 C875 0.930 1_545 S
H880 C877 0.929 . S
S881 N882 1.613 . S
S881 N883 1.610 . S
N882 S881 1.613 . S
N882 C885 1.350 . S
N883 S881 1.610 . S
N883 C884 1.351 . S
C884 C878 1.428 . S
C884 N883 1.351 . S
C884 C885 1.434 . S
C885 C876 1.429 . S
C885 N882 1.350 . S
C885 C884 1.434 . S
C886 C887 1.369 . S
C886 C888 1.419 . S
C886 H890 0.930 1_455 S
C887 C886 1.369 . S
C887 C896 1.429 . S
C888 C886 1.419 . S
C888 C889 1.363 . S
C888 H891 0.929 . S
C889 C888 1.363 . S
C889 C895 1.428 . S
H890 C886 0.930 1_655 S
H891 C888 0.929 . S
S892 N893 1.613 . S
S892 N894 1.610 . S
N893 S892 1.613 . S
N893 C896 1.350 . S
N894 S892 1.610 . S
N894 C895 1.351 . S
C895 C889 1.428 . S
C895 N894 1.351 . S
C895 C896 1.434 . S
C896 C887 1.429 . S
C896 N893 1.350 . S
C896 C895 1.434 . S
C897 C898 1.369 . S
C897 C899 1.419 . S
C897 H901 0.930 . S
C898 C897 1.369 . S
C898 C907 1.429 . S
C899 C897 1.419 . S
C899 C900 1.363 . S
C899 H902 0.929 . S
C900 C899 1.363 . S
C900 C906 1.428 . S
H901 C897 0.930 . S
H902 C899 0.929 . S
S903 N904 1.613 . S
S903 N905 1.610 . S
N904 S903 1.613 . S
N904 C907 1.350 . S
N905 S903 1.610 . S
N905 C906 1.351 . S
C906 C900 1.428 . S
C906 N905 1.351 . S
C906 C907 1.434 . S
C907 C898 1.429 . S
C907 N904 1.350 . S
C907 C906 1.434 . S
C908 C909 1.369 . S
C908 C910 1.419 . S
C908 H912 0.930 . S
C909 C908 1.369 . S
C909 C918 1.429 . S
C910 C908 1.419 . S
C910 C911 1.363 . S
C910 H913 0.929 . S
C911 C910 1.363 . S
C911 C917 1.428 . S
H912 C908 0.930 . S
H913 C910 0.929 . S
S914 N915 1.613 . S
S914 N916 1.610 . S
N915 S914 1.613 . S
N915 C918 1.350 . S
N916 S914 1.610 . S
N916 C917 1.351 . S
C917 C911 1.428 . S
C917 N916 1.351 . S
C917 C918 1.434 . S
C918 C909 1.429 . S
C918 N915 1.350 . S
C918 C917 1.434 . S
C919 C920 1.369 . S
C919 C921 1.419 . S
C919 H923 0.930 1_655 S
C920 C919 1.369 . S
C920 C929 1.429 . S
C921 C919 1.419 . S
C921 C922 1.363 . S
C921 H924 0.929 . S
C922 C921 1.363 . S
C922 C928 1.428 . S
H923 C919 0.930 1_455 S
H924 C921 0.929 . S
S925 N926 1.613 . S
S925 N927 1.610 . S
N926 S925 1.613 . S
N926 C929 1.350 . S
N927 S925 1.610 . S
N927 C928 1.351 . S
C928 C922 1.428 . S
C928 N927 1.351 . S
C928 C929 1.434 . S
C929 C920 1.429 . S
C929 N926 1.350 . S
C929 C928 1.434 . S
C930 C931 1.369 . S
C930 C932 1.419 . S
C930 H934 0.930 . S
C931 C930 1.369 . S
C931 C940 1.429 . S
C932 C930 1.419 . S
C932 C933 1.363 . S
C932 H935 0.929 . S
C933 C932 1.363 . S
C933 C939 1.428 . S
H934 C930 0.930 . S
H935 C932 0.929 . S
S936 N937 1.613 . S
S936 N938 1.610 . S
N937 S936 1.613 . S
N937 C940 1.350 . S
N938 S936 1.610 . S
N938 C939 1.351 . S
C939 C933 1.428 . S
C939 N938 1.351 . S
C939 C940 1.434 . S
C940 C931 1.429 . S
C940 N937 1.350 . S
C940 C939 1.434 . S
C941 C942 1.369 . S
C941 C943 1.419 . S
C941 H945 0.930 . S
C942 C941 1.369 . S
C942 C951 1.429 . S
C943 C941 1.419 . S
C943 C944 1.363 . S
C943 H946 0.929 . S
C944 C943 1.363 . S
C944 C950 1.428 . S
H945 C941 0.930 . S
H946 C943 0.929 . S
S947 N948 1.613 1_545 S
S947 N949 1.610 . S
N948 S947 1.613 1_565 S
N948 C951 1.350 1_565 S
N949 S947 1.610 . S
N949 C950 1.351 . S
C950 C944 1.428 . S
C950 N949 1.351 . S
C950 C951 1.434 . S
C951 C942 1.429 . S
C951 N948 1.350 1_545 S
C951 C950 1.434 . S
C952 C953 1.369 . S
C952 C954 1.419 . S
C952 H956 0.930 1_655 S
C953 C952 1.369 . S
C953 C962 1.429 . S
C954 C952 1.419 . S
C954 C955 1.363 . S
C954 H957 0.929 . S
C955 C954 1.363 . S
C955 C961 1.428 . S
H956 C952 0.930 1_455 S
H957 C954 0.929 . S
S958 N959 1.613 . S
S958 N960 1.610 . S
N959 S958 1.613 . S
N959 C962 1.350 . S
N960 S958 1.610 . S
N960 C961 1.351 . S
C961 C955 1.428 . S
C961 N960 1.351 . S
C961 C962 1.434 . S
C962 C953 1.429 . S
C962 N959 1.350 . S
C962 C961 1.434 . S
C963 C964 1.369 . S
C963 C965 1.419 . S
C963 H967 0.930 . S
C964 C963 1.369 . S
C964 C973 1.429 . S
C965 C963 1.419 . S
C965 C966 1.363 . S
C965 H968 0.929 . S
C966 C965 1.363 . S
C966 C972 1.428 . S
H967 C963 0.930 . S
H968 C965 0.929 . S
S969 N970 1.613 . S
S969 N971 1.610 . S
N970 S969 1.613 . S
N970 C973 1.350 . S
N971 S969 1.610 . S
N971 C972 1.351 . S
C972 C966 1.428 . S
C972 N971 1.351 . S
C972 C973 1.434 . S
C973 C964 1.429 . S
C973 N970 1.350 . S
C973 C972 1.434 . S
C974 C975 1.369 . S
C974 C976 1.419 . S
C974 H978 0.930 1_565 S
C975 C974 1.369 . S
C975 C984 1.429 . S
C976 C974 1.419 . S
C976 C977 1.363 . S
C976 H979 0.929 . S
C977 C976 1.363 . S
C977 C983 1.428 . S
H978 C974 0.930 1_545 S
H979 C976 0.929 . S
S980 N981 1.613 . S
S980 N982 1.610 . S
N981 S980 1.613 . S
N981 C984 1.350 . S
N982 S980 1.610 . S
N982 C983 1.351 . S
C983 C977 1.428 . S
C983 N982 1.351 . S
C983 C984 1.434 . S
C984 C975 1.429 . S
C984 N981 1.350 . S
C984 C983 1.434 . S
C985 C986 1.369 . S
C985 C987 1.419 . S
C985 H989 0.930 . S
C986 C985 1.369 . S
C986 C995 1.429 . S
C987 C985 1.419 . S
C987 C988 1.363 . S
C987 H990 0.929 1_455 S
C988 C987 1.363 . S
C988 C994 1.428 . S
H989 C985 0.930 . S
H990 C987 0.929 1_655 S
S991 N992 1.613 . S
S991 N993 1.610 . S
N992 S991 1.613 . S
N992 C995 1.350 . S
N993 S991 1.610 . S
N993 C994 1.351 . S
C994 C988 1.428 . S
C994 N993 1.351 . S
C994 C995 1.434 . S
C995 C986 1.429 . S
C995 N992 1.350 . S
C995 C994 1.434 . S
C996 C997 1.369 . S
C996 C998 1.419 . S
C996 H1000 0.930 . S
C997 C996 1.369 . S
C997 C1006 1.429 . S
C998 C996 1.419 . S
C998 C999 1.363 . S
C998 H1001 0.929 . S
C999 C998 1.363 . S
C999 C1005 1.428 . S
H1000 C996 0.930 . S
H1001 C998 0.929 . S
S1002 N1003 1.613 . S
S1002 N1004 1.610 . S
N1003 S1002 1.613 . S
N1003 C1006 1.350 . S
N1004 S1002 1.610 . S
N1004 C1005 1.351 . S
C1005 C999 1.428 . S
C1005 N1004 1.351 . S
C1005 C1006 1.434 . S
C1006 C997 1.429 . S
C1006 N1003 1.350 . S
C1006 C1005 1.434 . S
C1007 C1008 1.369 . S
C1007 C1009 1.419 . S
C1007 H1011 0.930 . S
C1008 C1007 1.369 . S
C1008 C1017 1.429 . S
C1009 C1007 1.419 . S
C1009 C1010 1.363 . S
C1009 H1012 0.929 . S
C1010 C1009 1.363 . S
C1010 C1016 1.428 . S
H1011 C1007 0.930 . S
H1012 C1009 0.929 . S
S1013 N1014 1.613 . S
S1013 N1015 1.610 . S
N1014 S1013 1.613 . S
N1014 C1017 1.350 . S
N1015 S1013 1.610 . S
N1015 C1016 1.351 . S
C1016 C1010 1.428 . S
C1016 N1015 1.351 . S
C1016 C1017 1.434 . S
C1017 C1008 1.429 . S
C1017 N1014 1.350 . S
C1017 C1016 1.434 . S
C1018 C1019 1.369 . S
C1018 C1020 1.419 . S
C1018 H1022 0.930 . S
C1019 C1018 1.369 . S
C1019 C1028 1.429 . S
C1020 C1018 1.419 . S
C1020 C1021 1.363 . S
C1020 H1023 0.929 . S
C1021 C1020 1.363 . S
C1021 C1027 1.428 . S
H1022 C1018 0.930 . S
H1023 C1020 0.929 . S
S1024 N1025 1.613 . S
S1024 N1026 1.610 . S
N1025 S1024 1.613 . S
N1025 C1028 1.350 . S
N1026 S1024 1.610 . S
N1026 C1027 1.351 . S
C1027 C1021 1.428 . S
C1027 N1026 1.351 . S
C1027 C1028 1.434 . S
C1028 C1019 1.429 . S
C1028 N1025 1.350 . S
C1028 C1027 1.434 . S
C1029 C1030 1.369 . S
C1029 C1031 1.419 . S
C1029 H1033 0.930 . S
C1030 C1029 1.369 . S
C1030 C1039 1.429 . S
C1031 C1029 1.419 . S
C1031 C1032 1.363 . S
C1031 H1034 0.929 . S
C1032 C1031 1.363 . S
C1032 C1038 1.428 . S
H1033 C1029 0.930 . S
H1034 C1031 0.929 . S
S1035 N1036 1.613 . S
S1035 N1037 1.610 . S
N1036 S1035 1.613 . S
N1036 C1039 1.350 . S
N1037 S1035 1.610 . S
N1037 C1038 1.351 . S
C1038 C1032 1.428 . S
C1038 N1037 1.351 . S
C1038 C1039 1.434 . S
C1039 C1030 1.429 . S
C1039 N1036 1.350 . S
C1039 C1038 1.434 . S
C1040 C1041 1.369 . S
C1040 C1042 1.419 . S
C1040 H1044 0.930 . S
C1041 C1040 1.369 . S
C1041 C1050 1.429 . S
C1042 C1040 1.419 . S
C1042 C1043 1.363 . S
C1042 H1045 0.929 . S
C1043 C1042 1.363 . S
C1043 C1049 1.428 . S
H1044 C1040 0.930 . S
H1045 C1042 0.929 . S
S1046 N1047 1.613 . S
S1046 N1048 1.610 . S
N1047 S1046 1.613 . S
N1047 C1050 1.350 . S
N1048 S1046 1.610 . S
N1048 C1049 1.351 . S
C1049 C1043 1.428 . S
C1049 N1048 1.351 . S
C1049 C1050 1.434 . S
C1050 C1041 1.429 . S
C1050 N1047 1.350 . S
C1050 C1049 1.434 . S
C1051 C1052 1.369 . S
C1051 C1053 1.419 . S
C1051 H1055 0.930 . S
C1052 C1051 1.369 . S
C1052 C1061 1.429 . S
C1053 C1051 1.419 . S
C1053 C1054 1.363 . S
C1053 H1056 0.929 . S
C1054 C1053 1.363 . S
C1054 C1060 1.428 . S
H1055 C1051 0.930 . S
H1056 C1053 0.929 . S
S1057 N1058 1.613 . S
S1057 N1059 1.610 . S
N1058 S1057 1.613 . S
N1058 C1061 1.350 . S
N1059 S1057 1.610 . S
N1059 C1060 1.351 . S
C1060 C1054 1.428 . S
C1060 N1059 1.351 . S
C1060 C1061 1.434 . S
C1061 C1052 1.429 . S
C1061 N1058 1.350 . S
C1061 C1060 1.434 . S
C1062 C1063 1.369 . S
C1062 C1064 1.419 . S
C1062 H1066 0.930 . S
C1063 C1062 1.369 . S
C1063 C1072 1.429 . S
C1064 C1062 1.419 . S
C1064 C1065 1.363 . S
C1064 H1067 0.929 . S
C1065 C1064 1.363 . S
C1065 C1071 1.428 . S
H1066 C1062 0.930 . S
H1067 C1064 0.929 . S
S1068 N1069 1.613 . S
S1068 N1070 1.610 . S
N1069 S1068 1.613 . S
N1069 C1072 1.350 . S
N1070 S1068 1.610 . S
N1070 C1071 1.351 . S
C1071 C1065 1.428 . S
C1071 N1070 1.351 . S
C1071 C1072 1.434 . S
C1072 C1063 1.429 . S
C1072 N1069 1.350 . S
C1072 C1071 1.434 . S
C1073 C1074 1.369 . S
C1073 C1075 1.419 . S
C1073 H1077 0.930 . S
C1074 C1073 1.369 . S
C1074 C1083 1.429 . S
C1075 C1073 1.419 . S
C1075 C1076 1.363 . S
C1075 H1078 0.929 . S
C1076 C1075 1.363 . S
C1076 C1082 1.428 . S
H1077 C1073 0.930 . S
H1078 C1075 0.929 . S
S1079 N1080 1.613 . S
S1079 N1081 1.610 . S
N1080 S1079 1.613 . S
N1080 C1083 1.350 . S
N1081 S1079 1.610 . S
N1081 C1082 1.351 . S
C1082 C1076 1.428 . S
C1082 N1081 1.351 . S
C1082 C1083 1.434 . S
C1083 C1074 1.429 . S
C1083 N1080 1.350 . S
C1083 C1082 1.434 . S
C1084 C1085 1.369 . S
C1084 C1086 1.419 . S
C1084 H1088 0.930 . S
C1085 C1084 1.369 . S
C1085 C1094 1.429 . S
C1086 C1084 1.419 . S
C1086 C1087 1.363 . S
C1086 H1089 0.929 . S
C1087 C1086 1.363 . S
C1087 C1093 1.428 . S
H1088 C1084 0.930 . S
H1089 C1086 0.929 . S
S1090 N1091 1.613 . S
S1090 N1092 1.610 . S
N1091 S1090 1.613 . S
N1091 C1094 1.350 . S
N1092 S1090 1.610 . S
N1092 C1093 1.351 . S
C1093 C1087 1.428 . S
C1093 N1092 1.351 . S
C1093 C1094 1.434 . S
C1094 C1085 1.429 . S
C1094 N1091 1.350 . S
C1094 C1093 1.434 . S
C1095 C1096 1.369 . S
C1095 C1097 1.419 . S
C1095 H1099 0.930 . S
C1096 C1095 1.369 . S
C1096 C1105 1.429 . S
C1097 C1095 1.419 . S
C1097 C1098 1.363 . S
C1097 H1100 0.929 . S
C1098 C1097 1.363 . S
C1098 C1104 1.428 . S
H1099 C1095 0.930 . S
H1100 C1097 0.929 . S
S1101 N1102 1.613 . S
S1101 N1103 1.610 . S
N1102 S1101 1.613 . S
N1102 C1105 1.350 . S
N1103 S1101 1.610 . S
N1103 C1104 1.351 . S
C1104 C1098 1.428 . S
C1104 N1103 1.351 . S
C1104 C1105 1.434 . S
C1105 C1096 1.429 . S
C1105 N1102 1.350 . S
C1105 C1104 1.434 . S
C1106 C1107 1.369 . S
C1106 C1108 1.419 . S
C1106 H1110 0.930 . S
C1107 C1106 1.369 . S
C1107 C1116 1.429 . S
C1108 C1106 1.419 . S
C1108 C1109 1.363 . S
C1108 H1111 0.929 . S
C1109 C1108 1.363 . S
C1109 C1115 1.428 . S
H1110 C1106 0.930 . S
H1111 C1108 0.929 . S
S1112 N1113 1.613 . S
S1112 N1114 1.610 . S
N1113 S1112 1.613 . S
N1113 C1116 1.350 . S
N1114 S1112 1.610 . S
N1114 C1115 1.351 . S
C1115 C1109 1.428 . S
C1115 N1114 1.351 . S
C1115 C1116 1.434 . S
C1116 C1107 1.429 . S
C1116 N1113 1.350 . S
C1116 C1115 1.434 . S
C1117 C1118 1.369 . S
C1117 C1119 1.419 . S
C1117 H1121 0.930 . S
C1118 C1117 1.369 . S
C1118 C1127 1.429 . S
C1119 C1117 1.419 . S
C1119 C1120 1.363 . S
C1119 H1122 0.929 . S
C1120 C1119 1.363 . S
C1120 C1126 1.428 . S
H1121 C1117 0.930 . S
H1122 C1119 0.929 . S
S1123 N1124 1.613 . S
S1123 N1125 1.610 . S
N1124 S1123 1.613 . S
N1124 C1127 1.350 . S
N1125 S1123 1.610 . S
N1125 C1126 1.351 . S
C1126 C1120 1.428 . S
C1126 N1125 1.351 . S
C1126 C1127 1.434 . S
C1127 C1118 1.429 . S
C1127 N1124 1.350 . S
C1127 C1126 1.434 . S
C1128 C1129 1.369 . S
C1128 C1130 1.419 . S
C1128 H1132 0.930 . S
C1129 C1128 1.369 . S
C1129 C1138 1.429 . S
C1130 C1128 1.419 . S
C1130 C1131 1.363 . S
C1130 H1133 0.929 . S
C1131 C1130 1.363 . S
C1131 C1137 1.428 . S
H1132 C1128 0.930 . S
H1133 C1130 0.929 . S
S1134 N1135 1.613 . S
S1134 N1136 1.610 . S
N1135 S1134 1.613 . S
N1135 C1138 1.350 . S
N1136 S1134 1.610 . S
N1136 C1137 1.351 . S
C1137 C1131 1.428 . S
C1137 N1136 1.351 . S
C1137 C1138 1.434 . S
C1138 C1129 1.429 . S
C1138 N1135 1.350 . S
C1138 C1137 1.434 . S
C1139 C1140 1.369 . S
C1139 C1141 1.419 . S
C1139 H1143 0.930 . S
C1140 C1139 1.369 . S
C1140 C1149 1.429 . S
C1141 C1139 1.419 . S
C1141 C1142 1.363 . S
C1141 H1144 0.929 . S
C1142 C1141 1.363 . S
C1142 C1148 1.428 . S
H1143 C1139 0.930 . S
H1144 C1141 0.929 . S
S1145 N1146 1.613 . S
S1145 N1147 1.610 . S
N1146 S1145 1.613 . S
N1146 C1149 1.350 . S
N1147 S1145 1.610 . S
N1147 C1148 1.351 . S
C1148 C1142 1.428 . S
C1148 N1147 1.351 . S
C1148 C1149 1.434 . S
C1149 C1140 1.429 . S
C1149 N1146 1.350 . S
C1149 C1148 1.434 . S
C1150 C1151 1.369 . S
C1150 C1152 1.419 . S
C1150 H1154 0.930 . S
C1151 C1150 1.369 . S
C1151 C1160 1.429 . S
C1152 C1150 1.419 . S
C1152 C1153 1.363 . S
C1152 H1155 0.929 . S
C1153 C1152 1.363 . S
C1153 C1159 1.428 . S
H1154 C1150 0.930 . S
H1155 C1152 0.929 . S
S1156 N1157 1.613 . S
S1156 N1158 1.610 . S
N1157 S1156 1.613 . S
N1157 C1160 1.350 . S
N1158 S1156 1.610 . S
N1158 C1159 1.351 . S
C1159 C1153 1.428 . S
C1159 N1158 1.351 . S
C1159 C1160 1.434 . S
C1160 C1151 1.429 . S
C1160 N1157 1.350 . S
C1160 C1159 1.434 . S
C1161 C1162 1.369 . S
C1161 C1163 1.419 . S
C1161 H1165 0.930 . S
C1162 C1161 1.369 . S
C1162 C1171 1.429 . S
C1163 C1161 1.419 . S
C1163 C1164 1.363 . S
C1163 H1166 0.929 . S
C1164 C1163 1.363 . S
C1164 C1170 1.428 . S
H1165 C1161 0.930 . S
H1166 C1163 0.929 . S
S1167 N1168 1.613 . S
S1167 N1169 1.610 . S
N1168 S1167 1.613 . S
N1168 C1171 1.350 . S
N1169 S1167 1.610 . S
N1169 C1170 1.351 . S
C1170 C1164 1.428 . S
C1170 N1169 1.351 . S
C1170 C1171 1.434 . S
C1171 C1162 1.429 . S
C1171 N1168 1.350 . S
C1171 C1170 1.434 . S
C1172 C1173 1.369 . S
C1172 C1174 1.419 . S
C1172 H1176 0.930 . S
C1173 C1172 1.369 . S
C1173 C1182 1.429 . S
C1174 C1172 1.419 . S
C1174 C1175 1.363 . S
C1174 H1177 0.929 . S
C1175 C1174 1.363 . S
C1175 C1181 1.428 . S
H1176 C1172 0.930 . S
H1177 C1174 0.929 . S
S1178 N1179 1.613 . S
S1178 N1180 1.610 . S
N1179 S1178 1.613 . S
N1179 C1182 1.350 . S
N1180 S1178 1.610 . S
N1180 C1181 1.351 . S
C1181 C1175 1.428 . S
C1181 N1180 1.351 . S
C1181 C1182 1.434 . S
C1182 C1173 1.429 . S
C1182 N1179 1.350 . S
C1182 C1181 1.434 . S
C1183 C1184 1.369 . S
C1183 C1185 1.419 . S
C1183 H1187 0.930 . S
C1184 C1183 1.369 . S
C1184 C1193 1.429 . S
C1185 C1183 1.419 . S
C1185 C1186 1.363 . S
C1185 H1188 0.929 . S
C1186 C1185 1.363 . S
C1186 C1192 1.428 . S
H1187 C1183 0.930 . S
H1188 C1185 0.929 . S
S1189 N1190 1.613 . S
S1189 N1191 1.610 . S
N1190 S1189 1.613 . S
N1190 C1193 1.350 . S
N1191 S1189 1.610 . S
N1191 C1192 1.351 . S
C1192 C1186 1.428 . S
C1192 N1191 1.351 . S
C1192 C1193 1.434 . S
C1193 C1184 1.429 . S
C1193 N1190 1.350 . S
C1193 C1192 1.434 . S
C1194 C1195 1.369 . S
C1194 C1196 1.419 . S
C1194 H1198 0.930 . S
C1195 C1194 1.369 . S
C1195 C1204 1.429 . S
C1196 C1194 1.419 . S
C1196 C1197 1.363 . S
C1196 H1199 0.929 . S
C1197 C1196 1.363 . S
C1197 C1203 1.428 . S
H1198 C1194 0.930 . S
H1199 C1196 0.929 . S
S1200 N1201 1.613 . S
S1200 N1202 1.610 . S
N1201 S1200 1.613 . S
N1201 C1204 1.350 . S
N1202 S1200 1.610 . S
N1202 C1203 1.351 . S
C1203 C1197 1.428 . S
C1203 N1202 1.351 . S
C1203 C1204 1.434 . S
C1204 C1195 1.429 . S
C1204 N1201 1.350 . S
C1204 C1203 1.434 . S
C1205 C1206 1.369 . S
C1205 C1207 1.419 . S
C1205 H1209 0.930 . S
C1206 C1205 1.369 . S
C1206 C1215 1.429 . S
C1207 C1205 1.419 . S
C1207 C1208 1.363 . S
C1207 H1210 0.929 . S
C1208 C1207 1.363 . S
C1208 C1214 1.428 . S
H1209 C1205 0.930 . S
H1210 C1207 0.929 . S
S1211 N1212 1.613 . S
S1211 N1213 1.610 . S
N1212 S1211 1.613 . S
N1212 C1215 1.350 . S
N1213 S1211 1.610 . S
N1213 C1214 1.351 . S
C1214 C1208 1.428 . S
C1214 N1213 1.351 . S
C1214 C1215 1.434 . S
C1215 C1206 1.429 . S
C1215 N1212 1.350 . S
C1215 C1214 1.434 . S
C1216 C1217 1.369 . S
C1216 C1218 1.419 . S
C1216 H1220 0.930 . S
C1217 C1216 1.369 . S
C1217 C1226 1.429 . S
C1218 C1216 1.419 . S
C1218 C1219 1.363 . S
C1218 H1221 0.929 . S
C1219 C1218 1.363 . S
C1219 C1225 1.428 . S
H1220 C1216 0.930 . S
H1221 C1218 0.929 . S
S1222 N1223 1.613 . S
S1222 N1224 1.610 . S
N1223 S1222 1.613 . S
N1223 C1226 1.350 . S
N1224 S1222 1.610 . S
N1224 C1225 1.351 . S
C1225 C1219 1.428 . S
C1225 N1224 1.351 . S
C1225 C1226 1.434 . S
C1226 C1217 1.429 . S
C1226 N1223 1.350 . S
C1226 C1225 1.434 . S
C1227 C1228 1.369 . S
C1227 C1229 1.419 . S
C1227 H1231 0.930 . S
C1228 C1227 1.369 . S
C1228 C1237 1.429 . S
C1229 C1227 1.419 . S
C1229 C1230 1.363 . S
C1229 H1232 0.929 . S
C1230 C1229 1.363 . S
C1230 C1236 1.428 . S
H1231 C1227 0.930 . S
H1232 C1229 0.929 . S
S1233 N1234 1.613 . S
S1233 N1235 1.610 . S
N1234 S1233 1.613 . S
N1234 C1237 1.350 . S
N1235 S1233 1.610 . S
N1235 C1236 1.351 . S
C1236 C1230 1.428 . S
C1236 N1235 1.351 . S
C1236 C1237 1.434 . S
C1237 C1228 1.429 . S
C1237 N1234 1.350 . S
C1237 C1236 1.434 . S
C1238 C1239 1.369 . S
C1238 C1240 1.419 . S
C1238 H1242 0.930 . S
C1239 C1238 1.369 . S
C1239 C1248 1.429 . S
C1240 C1238 1.419 . S
C1240 C1241 1.363 . S
C1240 H1243 0.929 . S
C1241 C1240 1.363 . S
C1241 C1247 1.428 . S
H1242 C1238 0.930 . S
H1243 C1240 0.929 . S
S1244 N1245 1.613 . S
S1244 N1246 1.610 . S
N1245 S1244 1.613 . S
N1245 C1248 1.350 . S
N1246 S1244 1.610 . S
N1246 C1247 1.351 . S
C1247 C1241 1.428 . S
C1247 N1246 1.351 . S
C1247 C1248 1.434 . S
C1248 C1239 1.429 . S
C1248 N1245 1.350 . S
C1248 C1247 1.434 . S
C1249 C1250 1.369 . S
C1249 C1251 1.419 . S
C1249 H1253 0.930 . S
C1250 C1249 1.369 . S
C1250 C1259 1.429 . S
C1251 C1249 1.419 . S
C1251 C1252 1.363 . S
C1251 H1254 0.929 . S
C1252 C1251 1.363 . S
C1252 C1258 1.428 . S
H1253 C1249 0.930 . S
H1254 C1251 0.929 . S
S1255 N1256 1.613 . S
S1255 N1257 1.610 . S
N1256 S1255 1.613 . S
N1256 C1259 1.350 . S
N1257 S1255 1.610 . S
N1257 C1258 1.351 . S
C1258 C1252 1.428 . S
C1258 N1257 1.351 . S
C1258 C1259 1.434 . S
C1259 C1250 1.429 . S
C1259 N1256 1.350 . S
C1259 C1258 1.434 . S
C469 C8 1.369 . S
C471 C242 1.368 . S
C480 C255 1.370 . S
C482 C21 1.368 . S
C491 C268 1.364 . S
C493 C34 1.372 . S
C502 C47 1.372 . S
C504 C437 1.365 . S
C513 C60 1.373 . S
C515 C450 1.365 . S
C524 C73 1.369 . S
C526 C463 1.369 . S
C535 C320 1.368 . S
C537 C86 1.369 . S
C546 C99 1.368 . S
C548 C333 1.369 . S
C557 C112 1.373 . S
C559 C346 1.365 . S
C568 C203 1.368 . S
C570 C125 1.368 . S
C579 C216 1.373 . S
C581 C138 1.365 . S
C590 C229 1.364 . S
C592 C151 1.372 . S
C601 C398 1.368 . S
C603 C164 1.368 . S
C612 C411 1.373 . S
C614 C177 1.365 . S
C623 C190 1.373 . S
C625 C424 1.365 . S
C634 C359 1.370 . S
C636 C281 1.367 . S
C645 C294 1.370 . S
C647 C372 1.367 . S
C656 C307 1.372 . S
C658 C385 1.366 . S
C667 C0 1.455 . S
C669 C351 1.454 . S
C678 C364 1.463 . S
C680 C13 1.458 . S
C689 C377 1.452 . S
C691 C26 1.455 . S
C700 C156 1.453 . S
C702 C39 1.458 . S
C711 C169 1.453 . S
C713 C52 1.459 . S
C722 C182 1.462 . S
C724 C65 1.463 . S
C733 C78 1.458 . S
C735 C273 1.454 . S
C744 C286 1.462 . S
C746 C91 1.463 . S
C755 C299 1.454 . S
C757 C104 1.461 . S
C766 C117 1.459 . S
C768 C390 1.463 . S
C777 C130 1.464 . S
C779 C403 1.458 . S
C788 C143 1.457 . S
C790 C416 1.454 . S
C799 C195 1.454 . S
C801 C312 1.459 . S
C810 C208 1.456 . S
C812 C325 1.461 . S
C821 C221 1.456 . S
C823 C338 1.454 . S
C832 C234 1.456 . S
C834 C429 1.454 . S
C843 C442 1.458 . S
C845 C247 1.454 . S
C854 C260 1.455 . S
C856 C455 1.454 . S
C865 C23 1.387 . S
C867 C5 1.098 . S
C876 C18 1.109 1_565 S
C878 C36 1.385 . S
C887 C31 1.106 1_455 S
C889 C10 1.386 . S
C898 C44 1.118 . S
C900 C75 1.383 . S
C909 C49 1.386 . S
C911 C57 1.107 1_545 S
C920 C70 1.117 1_655 S
C922 C62 1.382 . S
C931 C83 1.115 . S
C933 C101 1.382 . S
C942 C96 1.098 1_545 S
C944 C114 1.384 . S
C953 C109 1.116 1_655 S
C955 C88 1.382 . S
C964 C153 1.386 . S
C966 C122 1.098 . S
C975 C135 1.116 1_565 S
C977 C127 1.382 . S
C986 C140 1.386 . S
C988 C148 1.107 1_455 S
C997 C179 1.382 . S
C999 C161 1.112 . S
C1008 C192 1.385 . S
C1010 C174 1.100 . S
C1019 C166 1.383 . S
C1021 C187 1.106 . S
C1030 C200 1.100 . S
C1032 C231 1.384 . S
C1041 C213 1.114 . S
C1043 C205 1.382 . S
C1052 C226 1.105 . S
C1054 C218 1.383 . S
C1063 C257 1.387 . S
C1065 C239 1.105 . S
C1074 C252 1.095 . S
C1076 C270 1.386 . S
C1085 C265 1.101 . S
C1087 C244 1.387 . S
C1096 C278 1.103 . S
C1098 C309 1.387 . S
C1107 C291 1.105 . S
C1109 C283 1.386 . S
C1118 C296 1.381 . S
C1120 C304 1.112 . S
C1129 C335 1.382 . S
C1131 C317 1.115 . S
C1140 C330 1.104 . S
C1142 C348 1.386 . S
C1151 C322 1.382 . S
C1153 C343 1.111 . S
C1162 C356 1.104 . S
C1164 C387 1.386 . S
C1173 C369 1.098 . S
C1175 C361 1.387 . S
C1184 C382 1.096 . S
C1186 C374 1.387 . S
C1195 C395 1.101 . S
C1197 C413 1.384 . S
C1206 C408 1.116 . S
C1208 C426 1.384 . S
C1217 C421 1.107 . S
C1219 C400 1.383 . S
C1228 C434 1.110 . S
C1230 C465 1.382 . S
C1239 C447 1.095 . S
C1241 C439 1.386 . S
C1250 C452 1.385 . S
C1252 C460 1.111 . S
