# Generated by pormake.
# Topology nfa, (4)-cn, num edge types: 1
# Building blocks:
#     Node 0, Type 0, BuildingBlock: NAWXER_clean_sbu_0, # of connection points: 4
#     Node 1, Type 0, BuildingBlock: NAWXER_clean_sbu_0, # of connection points: 4
#     Node 2, Type 0, BuildingBlock: NAWXER_clean_sbu_0, # of connection points: 4
#     Node 3, Type 0, BuildingBlock: NAWXER_clean_sbu_0, # of connection points: 4
#     Node 4, Type 0, BuildingBlock: NAWXER_clean_sbu_0, # of connection points: 4
#     Node 5, Type 0, BuildingBlock: NAWXER_clean_sbu_0, # of connection points: 4
#     Node 6, Type 0, BuildingBlock: NAWXER_clean_sbu_0, # of connection points: 4
#     Node 7, Type 0, BuildingBlock: NAWXER_clean_sbu_0, # of connection points: 4
#     Node 8, Type 0, BuildingBlock: NAWXER_clean_sbu_0, # of connection points: 4
#     Node 9, Type 0, BuildingBlock: NAWXER_clean_sbu_0, # of connection points: 4
#     Node 10, Type 0, BuildingBlock: NAWXER_clean_sbu_0, # of connection points: 4
#     Node 11, Type 0, BuildingBlock: NAWXER_clean_sbu_0, # of connection points: 4
#     Node 12, Type 0, BuildingBlock: NAWXER_clean_sbu_0, # of connection points: 4
#     Node 13, Type 0, BuildingBlock: NAWXER_clean_sbu_0, # of connection points: 4
#     Node 14, Type 0, BuildingBlock: NAWXER_clean_sbu_0, # of connection points: 4
#     Node 15, Type 0, BuildingBlock: NAWXER_clean_sbu_0, # of connection points: 4
#     Node 16, Type 0, BuildingBlock: NAWXER_clean_sbu_0, # of connection points: 4
#     Node 17, Type 0, BuildingBlock: NAWXER_clean_sbu_0, # of connection points: 4
#     Node 18, Type 0, BuildingBlock: NAWXER_clean_sbu_0, # of connection points: 4
#     Node 19, Type 0, BuildingBlock: NAWXER_clean_sbu_0, # of connection points: 4
#     Node 20, Type 0, BuildingBlock: NAWXER_clean_sbu_0, # of connection points: 4
#     Node 21, Type 0, BuildingBlock: NAWXER_clean_sbu_0, # of connection points: 4
#     Node 22, Type 0, BuildingBlock: NAWXER_clean_sbu_0, # of connection points: 4
#     Node 23, Type 0, BuildingBlock: NAWXER_clean_sbu_0, # of connection points: 4
#     Edge 24, Type (0, 0), BuildingBlock: UVAHIK_clean_linker_0, # of connection points: 2
#     Edge 25, Type (0, 0), BuildingBlock: UVAHIK_clean_linker_0, # of connection points: 2
#     Edge 26, Type (0, 0), BuildingBlock: UVAHIK_clean_linker_0, # of connection points: 2
#     Edge 27, Type (0, 0), BuildingBlock: UVAHIK_clean_linker_0, # of connection points: 2
#     Edge 28, Type (0, 0), BuildingBlock: UVAHIK_clean_linker_0, # of connection points: 2
#     Edge 29, Type (0, 0), BuildingBlock: UVAHIK_clean_linker_0, # of connection points: 2
#     Edge 30, Type (0, 0), BuildingBlock: UVAHIK_clean_linker_0, # of connection points: 2
#     Edge 31, Type (0, 0), BuildingBlock: UVAHIK_clean_linker_0, # of connection points: 2
#     Edge 32, Type (0, 0), BuildingBlock: UVAHIK_clean_linker_0, # of connection points: 2
#     Edge 33, Type (0, 0), BuildingBlock: UVAHIK_clean_linker_0, # of connection points: 2
#     Edge 34, Type (0, 0), BuildingBlock: UVAHIK_clean_linker_0, # of connection points: 2
#     Edge 35, Type (0, 0), BuildingBlock: UVAHIK_clean_linker_0, # of connection points: 2
#     Edge 36, Type (0, 0), BuildingBlock: UVAHIK_clean_linker_0, # of connection points: 2
#     Edge 37, Type (0, 0), BuildingBlock: UVAHIK_clean_linker_0, # of connection points: 2
#     Edge 38, Type (0, 0), BuildingBlock: UVAHIK_clean_linker_0, # of connection points: 2
#     Edge 39, Type (0, 0), BuildingBlock: UVAHIK_clean_linker_0, # of connection points: 2
#     Edge 40, Type (0, 0), BuildingBlock: UVAHIK_clean_linker_0, # of connection points: 2
#     Edge 41, Type (0, 0), BuildingBlock: UVAHIK_clean_linker_0, # of connection points: 2
#     Edge 42, Type (0, 0), BuildingBlock: UVAHIK_clean_linker_0, # of connection points: 2
#     Edge 43, Type (0, 0), BuildingBlock: UVAHIK_clean_linker_0, # of connection points: 2
#     Edge 44, Type (0, 0), BuildingBlock: UVAHIK_clean_linker_0, # of connection points: 2
#     Edge 45, Type (0, 0), BuildingBlock: UVAHIK_clean_linker_0, # of connection points: 2
#     Edge 46, Type (0, 0), BuildingBlock: UVAHIK_clean_linker_0, # of connection points: 2
#     Edge 47, Type (0, 0), BuildingBlock: UVAHIK_clean_linker_0, # of connection points: 2
#     Edge 48, Type (0, 0), BuildingBlock: UVAHIK_clean_linker_0, # of connection points: 2
#     Edge 49, Type (0, 0), BuildingBlock: UVAHIK_clean_linker_0, # of connection points: 2
#     Edge 50, Type (0, 0), BuildingBlock: UVAHIK_clean_linker_0, # of connection points: 2
#     Edge 51, Type (0, 0), BuildingBlock: UVAHIK_clean_linker_0, # of connection points: 2
#     Edge 52, Type (0, 0), BuildingBlock: UVAHIK_clean_linker_0, # of connection points: 2
#     Edge 53, Type (0, 0), BuildingBlock: UVAHIK_clean_linker_0, # of connection points: 2
#     Edge 54, Type (0, 0), BuildingBlock: UVAHIK_clean_linker_0, # of connection points: 2
#     Edge 55, Type (0, 0), BuildingBlock: UVAHIK_clean_linker_0, # of connection points: 2
#     Edge 56, Type (0, 0), BuildingBlock: UVAHIK_clean_linker_0, # of connection points: 2
#     Edge 57, Type (0, 0), BuildingBlock: UVAHIK_clean_linker_0, # of connection points: 2
#     Edge 58, Type (0, 0), BuildingBlock: UVAHIK_clean_linker_0, # of connection points: 2
#     Edge 59, Type (0, 0), BuildingBlock: UVAHIK_clean_linker_0, # of connection points: 2
#     Edge 60, Type (0, 0), BuildingBlock: UVAHIK_clean_linker_0, # of connection points: 2
#     Edge 61, Type (0, 0), BuildingBlock: UVAHIK_clean_linker_0, # of connection points: 2
#     Edge 62, Type (0, 0), BuildingBlock: UVAHIK_clean_linker_0, # of connection points: 2
#     Edge 63, Type (0, 0), BuildingBlock: UVAHIK_clean_linker_0, # of connection points: 2
#     Edge 64, Type (0, 0), BuildingBlock: UVAHIK_clean_linker_0, # of connection points: 2
#     Edge 65, Type (0, 0), BuildingBlock: UVAHIK_clean_linker_0, # of connection points: 2
#     Edge 66, Type (0, 0), BuildingBlock: UVAHIK_clean_linker_0, # of connection points: 2
#     Edge 67, Type (0, 0), BuildingBlock: UVAHIK_clean_linker_0, # of connection points: 2
#     Edge 68, Type (0, 0), BuildingBlock: UVAHIK_clean_linker_0, # of connection points: 2
#     Edge 69, Type (0, 0), BuildingBlock: UVAHIK_clean_linker_0, # of connection points: 2
#     Edge 70, Type (0, 0), BuildingBlock: UVAHIK_clean_linker_0, # of connection points: 2
#     Edge 71, Type (0, 0), BuildingBlock: UVAHIK_clean_linker_0, # of connection points: 2
# Relax obj value: 0.171
# Max RMSD: 0.184
# Mean RMSD: 0.184
data_MOF--net-nfa--node1-NAWXER_clean_sbu_0--edge1-UVAHIK_clean_linker_0
_symmetry_space_group_name_H-M    P1
_symmetry_Int_Tables_number       1
_symmetry_cell_setting            triclinic
loop_
_symmetry_equiv_pos_as_xyz
'x, y, z'
_cell_length_a     52.205561
_cell_length_b     52.052972
_cell_length_c     52.103001
_cell_angle_alpha  90.04365
_cell_angle_beta   89.982356
_cell_angle_gamma 90.087148
loop_
_atom_site_label
_atom_site_type_symbol
_atom_site_fract_x
_atom_site_fract_y
_atom_site_fract_z
_atom_type_partial_charge
C0 C 0.13535 0.37464 0.43637 0.0
C1 C 0.14217 0.40331 0.34773 0.0
O2 O 0.11517 0.38635 0.42868 0.0
Zn3 Zn 0.10188 0.40462 0.39434 0.0
O4 O 0.15455 0.37282 0.42148 0.0
Zn5 Zn 0.13951 0.38914 0.39201 0.0
O6 O 0.13775 0.42896 0.40207 0.0
O7 O 0.09713 0.44059 0.403 0.0
O8 O 0.15927 0.39165 0.36059 0.0
O9 O 0.12048 0.40842 0.35802 0.0
O10 O 0.07245 0.38382 0.38614 0.0
O11 O 0.109 0.36284 0.3825 0.0
C12 C 0.12071 0.44642 0.40494 0.0
C13 C 0.08444 0.36312 0.38131 0.0
C14 C 0.88626 0.83378 0.61052 0.0
C15 C 0.82086 0.89329 0.64089 0.0
O16 O 0.89227 0.85737 0.60662 0.0
Zn17 Zn 0.8765 0.89468 0.61447 0.0
O18 O 0.8652 0.82833 0.62151 0.0
Zn19 Zn 0.85357 0.86303 0.62682 0.0
O20 O 0.84635 0.87652 0.5888 0.0
O21 O 0.87155 0.90975 0.5808 0.0
O22 O 0.82029 0.8689 0.64226 0.0
O23 O 0.84068 0.90458 0.63173 0.0
O24 O 0.90162 0.90927 0.6374 0.0
O25 O 0.88041 0.87687 0.6546 0.0
C26 C 0.85383 0.8945 0.57377 0.0
C27 C 0.89775 0.89427 0.65624 0.0
C28 C 0.3511 0.69293 0.87706 0.0
C29 C 0.38499 0.61553 0.83707 0.0
O30 O 0.35324 0.67434 0.89305 0.0
Zn31 Zn 0.36585 0.63499 0.89256 0.0
O32 O 0.3559 0.68911 0.85346 0.0
Zn33 Zn 0.36666 0.65376 0.85672 0.0
O34 O 0.33218 0.63216 0.86408 0.0
O35 O 0.33632 0.61536 0.90266 0.0
O36 O 0.37968 0.63694 0.82668 0.0
O37 O 0.38115 0.61246 0.86122 0.0
O38 O 0.39394 0.63759 0.91654 0.0
O39 O 0.40021 0.65879 0.88033 0.0
C40 C 0.32332 0.61811 0.88226 0.0
C41 C 0.40782 0.65218 0.90277 0.0
C42 C 0.61137 0.09673 0.16476 0.0
C43 C 0.64958 0.08971 0.07948 0.0
O44 O 0.62434 0.11667 0.15831 0.0
Zn45 Zn 0.64588 0.13013 0.12588 0.0
O46 O 0.60985 0.0778 0.14939 0.0
Zn47 Zn 0.62963 0.09257 0.12179 0.0
O48 O 0.66745 0.09392 0.13687 0.0
O49 O 0.68065 0.13426 0.13854 0.0
O50 O 0.63599 0.07284 0.09075 0.0
O51 O 0.65374 0.1114 0.09032 0.0
O52 O 0.6265 0.15985 0.11563 0.0
O53 O 0.60548 0.12347 0.10984 0.0
C54 C 0.68497 0.11044 0.14178 0.0
C55 C 0.60629 0.14807 0.10872 0.0
C56 C 0.16533 0.59071 0.10075 0.0
C57 C 0.09072 0.64254 0.12083 0.0
O58 O 0.17046 0.60862 0.11687 0.0
Zn59 Zn 0.15043 0.63903 0.13608 0.0
O60 O 0.143 0.58905 0.09123 0.0
Zn61 Zn 0.12788 0.61674 0.11039 0.0
O62 O 0.14389 0.65105 0.09451 0.0
O63 O 0.16679 0.67038 0.1244 0.0
O64 O 0.09202 0.62348 0.10564 0.0
O65 O 0.11063 0.64961 0.13345 0.0
O66 O 0.15454 0.62865 0.17143 0.0
O67 O 0.13017 0.60233 0.14879 0.0
C68 C 0.15774 0.67007 0.10176 0.0
C69 C 0.14118 0.60825 0.16998 0.0
C70 C 0.59223 0.89063 0.34172 0.0
C71 C 0.63322 0.88725 0.4257 0.0
O72 O 0.60918 0.87291 0.34336 0.0
Zn73 Zn 0.63441 0.85735 0.37162 0.0
O74 O 0.58773 0.90484 0.36105 0.0
Zn75 Zn 0.61151 0.88892 0.38452 0.0
O76 O 0.64829 0.8989 0.36948 0.0
O77 O 0.66871 0.86362 0.35797 0.0
O78 O 0.61563 0.90271 0.4189 0.0
O79 O 0.64069 0.86962 0.41025 0.0
O80 O 0.62145 0.8226 0.37523 0.0
O81 O 0.59478 0.85177 0.39043 0.0
C82 C 0.66847 0.88792 0.3608 0.0
C83 C 0.60022 0.82819 0.38581 0.0
C84 C 0.3627 0.41745 0.60878 0.0
C85 C 0.43948 0.36465 0.61331 0.0
O86 O 0.36077 0.39921 0.62519 0.0
Zn87 Zn 0.3841 0.36904 0.64006 0.0
O88 O 0.38315 0.41983 0.59576 0.0
Zn89 Zn 0.40197 0.39191 0.6113 0.0
O90 O 0.38371 0.3574 0.59782 0.0
O91 O 0.36645 0.33744 0.63091 0.0
O92 O 0.43626 0.38436 0.59925 0.0
O93 O 0.42218 0.35819 0.62955 0.0
O94 O 0.38697 0.37843 0.6757 0.0
O95 O 0.40725 0.40534 0.65 0.0
C96 C 0.37189 0.33789 0.60711 0.0
C97 C 0.40025 0.39869 0.67265 0.0
C98 C 0.86749 0.09476 0.91709 0.0
C99 C 0.94214 0.08119 0.86229 0.0
O100 O 0.86365 0.10184 0.89384 0.0
Zn101 Zn 0.88419 0.10191 0.85817 0.0
O102 O 0.88916 0.08572 0.92348 0.0
Zn103 Zn 0.90493 0.08708 0.88994 0.0
O104 O 0.91025 0.12743 0.88244 0.0
O105 O 0.88664 0.13777 0.84886 0.0
O106 O 0.94 0.07535 0.8859 0.0
O107 O 0.92273 0.09023 0.85025 0.0
O108 O 0.86335 0.07941 0.83739 0.0
O109 O 0.88238 0.05932 0.86937 0.0
C110 C 0.90287 0.14413 0.86592 0.0
C111 C 0.86715 0.05892 0.85006 0.0
C112 C 0.41625 0.13268 0.35382 0.0
C113 C 0.3322 0.14098 0.3936 0.0
O114 O 0.41219 0.11565 0.37114 0.0
Zn115 Zn 0.38194 0.10474 0.39676 0.0
O116 O 0.3991 0.14932 0.34908 0.0
Zn117 Zn 0.37376 0.13712 0.37312 0.0
O118 O 0.38997 0.14595 0.40979 0.0
O119 O 0.39613 0.1098 0.43098 0.0
O120 O 0.34159 0.1553 0.37621 0.0
O121 O 0.34499 0.12174 0.40199 0.0
O122 O 0.37405 0.07044 0.38478 0.0
O123 O 0.36314 0.10057 0.35706 0.0
C124 C 0.39704 0.13421 0.43019 0.0
C125 C 0.36454 0.07675 0.36323 0.0
C126 C 0.11818 0.1784 0.62269 0.0
C127 C 0.14656 0.09496 0.65421 0.0
O128 O 0.13773 0.17978 0.63753 0.0
Zn129 Zn 0.16221 0.15457 0.65866 0.0
O130 O 0.10789 0.15669 0.6182 0.0
Zn131 Zn 0.13127 0.13629 0.63844 0.0
O132 O 0.12288 0.14741 0.67677 0.0
O133 O 0.15738 0.16461 0.6944 0.0
O134 O 0.12709 0.09938 0.64024 0.0
O135 O 0.16075 0.11365 0.66166 0.0
O136 O 0.19459 0.16076 0.64119 0.0
O137 O 0.16585 0.1408 0.6172 0.0
C138 C 0.13412 0.15751 0.69616 0.0
C139 C 0.18823 0.15054 0.61992 0.0
C140 C 0.1477 0.90407 0.84448 0.0
C141 C 0.11461 0.85995 0.9198 0.0
O142 O 0.14633 0.87967 0.84113 0.0
Zn143 Zn 0.13419 0.84662 0.86281 0.0
O144 O 0.14106 0.91368 0.86589 0.0
Zn145 Zn 0.13045 0.88241 0.88215 0.0
O146 O 0.16571 0.86262 0.88834 0.0
O147 O 0.16485 0.82597 0.86695 0.0
O148 O 0.11773 0.884 0.91699 0.0
O149 O 0.11936 0.84469 0.90108 0.0
O150 O 0.1066 0.83359 0.84204 0.0
O151 O 0.09797 0.87129 0.85941 0.0
C152 C 0.17627 0.84131 0.88212 0.0
C153 C 0.09144 0.85247 0.8449 0.0
C154 C 0.35477 0.91845 0.1408 0.0
C155 C 0.38805 0.87446 0.06515 0.0
O156 O 0.35439 0.89393 0.14348 0.0
Zn157 Zn 0.36557 0.86082 0.12118 0.0
O158 O 0.36278 0.9281 0.1199 0.0
Zn159 Zn 0.37212 0.8966 0.10307 0.0
O160 O 0.33638 0.87839 0.09414 0.0
O161 O 0.33408 0.84188 0.11549 0.0
O162 O 0.38647 0.89853 0.06893 0.0
O163 O 0.38174 0.85884 0.08311 0.0
O164 O 0.39147 0.84568 0.14261 0.0
O165 O 0.40302 0.88322 0.12673 0.0
C166 C 0.32451 0.85746 0.09935 0.0
C167 C 0.40781 0.86372 0.14098 0.0
C168 C 0.38724 0.30576 0.10385 0.0
C169 C 0.33897 0.38226 0.1275 0.0
O170 O 0.39452 0.32616 0.0922 0.0
Zn171 Zn 0.38615 0.36613 0.09144 0.0
O172 O 0.36933 0.30689 0.12037 0.0
Zn173 Zn 0.36288 0.34345 0.11697 0.0
O174 O 0.34906 0.34676 0.07863 0.0
O175 O 0.37524 0.37149 0.05621 0.0
O176 O 0.33517 0.35957 0.13575 0.0
O177 O 0.35728 0.38672 0.11174 0.0
O178 O 0.41806 0.38069 0.10391 0.0
O179 O 0.39665 0.35936 0.13367 0.0
C180 C 0.35498 0.35791 0.05753 0.0
C181 C 0.41617 0.37268 0.12688 0.0
C182 C 0.87489 0.89359 0.15296 0.0
C183 C 0.84092 0.82529 0.09895 0.0
O184 O 0.8819 0.89572 0.12944 0.0
Zn185 Zn 0.87578 0.87581 0.09358 0.0
O186 O 0.86105 0.87465 0.15978 0.0
Zn187 Zn 0.85738 0.85976 0.12623 0.0
O188 O 0.89515 0.84581 0.1188 0.0
O189 O 0.90979 0.86485 0.08383 0.0
O190 O 0.83695 0.82905 0.12269 0.0
O191 O 0.85432 0.84151 0.08617 0.0
O192 O 0.85926 0.90258 0.0739 0.0
O193 O 0.83676 0.8899 0.10743 0.0
C194 C 0.91287 0.84895 0.10207 0.0
C195 C 0.83979 0.90513 0.08833 0.0
C196 C 0.08881 0.60143 0.6581 0.0
C197 C 0.12778 0.59771 0.57291 0.0
O198 O 0.10531 0.61929 0.65422 0.0
Zn199 Zn 0.13055 0.63178 0.62433 0.0
O200 O 0.08472 0.58478 0.6407 0.0
Zn201 Zn 0.10775 0.59888 0.61518 0.0
O202 O 0.1446 0.59079 0.63072 0.0
O203 O 0.16484 0.62731 0.63818 0.0
O204 O 0.11112 0.58227 0.58188 0.0
O205 O 0.13566 0.61659 0.58659 0.0
O206 O 0.11789 0.66586 0.61792 0.0
O207 O 0.09053 0.63547 0.60658 0.0
C208 C 0.16463 0.60288 0.63822 0.0
C209 C 0.09624 0.65936 0.60878 0.0
C210 C 0.63295 0.80833 0.87136 0.0
C211 C 0.59869 0.88658 0.8336 0.0
O212 O 0.63173 0.82684 0.88758 0.0
Zn213 Zn 0.61968 0.8664 0.88805 0.0
O214 O 0.62707 0.81233 0.84804 0.0
Zn215 Zn 0.61716 0.84784 0.85218 0.0
O216 O 0.65257 0.8682 0.85862 0.0
O217 O 0.65007 0.88499 0.89737 0.0
O218 O 0.60329 0.86515 0.82291 0.0
O219 O 0.60357 0.8895 0.85758 0.0
O220 O 0.59261 0.86396 0.9132 0.0
O221 O 0.58457 0.84305 0.87716 0.0
C222 C 0.66249 0.88172 0.87668 0.0
C223 C 0.578 0.84959 0.89996 0.0
C224 C 0.88352 0.10174 0.32972 0.0
C225 C 0.86524 0.15239 0.40636 0.0
O226 O 0.89622 0.09463 0.34953 0.0
Zn227 Zn 0.89959 0.10416 0.38936 0.0
O228 O 0.8677 0.12024 0.33148 0.0
Zn229 Zn 0.87322 0.12699 0.36759 0.0
O230 O 0.91182 0.14046 0.36797 0.0
O231 O 0.9353 0.11481 0.39217 0.0
O232 O 0.85553 0.1551 0.38416 0.0
O233 O 0.8811 0.13407 0.41052 0.0
O234 O 0.88764 0.07234 0.40506 0.0
O235 O 0.85727 0.09305 0.38415 0.0
C236 C 0.93345 0.13459 0.37794 0.0
C237 C 0.86454 0.07364 0.39739 0.0
C238 C 0.61947 0.07358 0.60142 0.0
C239 C 0.54143 0.12467 0.59971 0.0
O240 O 0.62037 0.09296 0.61659 0.0
Zn241 Zn 0.59597 0.12375 0.62835 0.0
O242 O 0.59969 0.06991 0.58769 0.0
Zn243 Zn 0.57999 0.09879 0.60015 0.0
O244 O 0.59943 0.13201 0.58533 0.0
O245 O 0.6139 0.15469 0.61807 0.0
O246 O 0.54612 0.10486 0.58623 0.0
O247 O 0.55797 0.13278 0.61599 0.0
O248 O 0.59191 0.11648 0.6644 0.0
O249 O 0.57296 0.08789 0.63941 0.0
C250 C 0.61087 0.15203 0.594 0.0
C251 C 0.57884 0.096 0.66192 0.0
C252 C 0.1305 0.38381 0.90312 0.0
C253 C 0.05331 0.41383 0.86002 0.0
O254 O 0.13125 0.38083 0.8787 0.0
Zn255 Zn 0.10764 0.38861 0.84605 0.0
O256 O 0.11071 0.39358 0.91349 0.0
Zn257 Zn 0.09167 0.39944 0.88228 0.0
O258 O 0.08269 0.36138 0.86981 0.0
O259 O 0.10031 0.35478 0.83185 0.0
O260 O 0.0576 0.41415 0.88404 0.0
O261 O 0.07046 0.40545 0.84456 0.0
O262 O 0.12889 0.41259 0.82728 0.0
O263 O 0.11455 0.42838 0.86391 0.0
C264 C 0.08656 0.34681 0.85038 0.0
C265 C 0.1279 0.43094 0.84339 0.0
C266 C 0.33454 0.6091 0.40427 0.0
C267 C 0.37431 0.61214 0.31958 0.0
O268 O 0.33018 0.63005 0.39213 0.0
Zn269 Zn 0.339 0.6472 0.35583 0.0
O270 O 0.34968 0.59256 0.39465 0.0
Zn271 Zn 0.35581 0.61082 0.36271 0.0
O272 O 0.37935 0.64316 0.37351 0.0
O273 O 0.35732 0.67812 0.36455 0.0
O274 O 0.37612 0.59456 0.33639 0.0
O275 O 0.36089 0.6322 0.3244 0.0
O276 O 0.30449 0.65015 0.34264 0.0
O277 O 0.31733 0.61006 0.34767 0.0
C278 C 0.3777 0.66776 0.37287 0.0
C279 C 0.29976 0.62619 0.34174 0.0
C280 C 0.87959 0.62519 0.93426 0.0
C281 C 0.84203 0.58859 0.85714 0.0
O282 O 0.87712 0.64175 0.91625 0.0
Zn283 Zn 0.86317 0.64307 0.87761 0.0
O284 O 0.87427 0.60175 0.92999 0.0
Zn285 Zn 0.86217 0.60641 0.89523 0.0
O286 O 0.89566 0.61367 0.87243 0.0
O287 O 0.89268 0.65329 0.85777 0.0
O288 O 0.84755 0.57744 0.8781 0.0
O289 O 0.84651 0.61273 0.85461 0.0
O290 O 0.83548 0.66746 0.88253 0.0
O291 O 0.82976 0.63055 0.90259 0.0
C292 C 0.90482 0.6322 0.85904 0.0
C293 C 0.82221 0.65338 0.89741 0.0
C294 C 0.60231 0.63188 0.06258 0.0
C295 C 0.63418 0.59703 0.14321 0.0
O296 O 0.60445 0.64909 0.08008 0.0
Zn297 Zn 0.61666 0.65136 0.11948 0.0
O298 O 0.60719 0.60857 0.06787 0.0
Zn299 Zn 0.6174 0.61419 0.10308 0.0
O300 O 0.58242 0.62379 0.12289 0.0
O301 O 0.58681 0.66342 0.13733 0.0
O302 O 0.62999 0.58535 0.12222 0.0
O303 O 0.63014 0.62132 0.14466 0.0
O304 O 0.64563 0.67452 0.11591 0.0
O305 O 0.65117 0.63685 0.09724 0.0
C306 C 0.57343 0.64311 0.13527 0.0
C307 C 0.65937 0.65946 0.10254 0.0
C308 C 0.61161 0.34548 0.39939 0.0
C309 C 0.64191 0.41544 0.34451 0.0
O310 O 0.62537 0.33783 0.3805 0.0
Zn311 Zn 0.64611 0.35387 0.34885 0.0
O312 O 0.60616 0.3692 0.4015 0.0
Zn313 Zn 0.62544 0.38095 0.37181 0.0
O314 O 0.6049 0.36611 0.33949 0.0
O315 O 0.63014 0.33901 0.31888 0.0
O316 O 0.62746 0.41727 0.36408 0.0
O317 O 0.65 0.39327 0.33745 0.0
O318 O 0.68062 0.34358 0.35839 0.0
O319 O 0.66324 0.37233 0.38432 0.0
C320 C 0.60885 0.35069 0.3207 0.0
C321 C 0.68202 0.35775 0.37824 0.0
C322 C 0.86469 0.35906 0.68021 0.0
C323 C 0.79361 0.35655 0.61973 0.0
O324 O 0.86845 0.37283 0.66017 0.0
Zn325 Zn 0.84906 0.38255 0.62551 0.0
O326 O 0.84451 0.34545 0.68184 0.0
Zn327 Zn 0.82901 0.35647 0.64986 0.0
O328 O 0.85145 0.33877 0.62024 0.0
O329 O 0.87019 0.36959 0.59804 0.0
O330 O 0.79528 0.3438 0.64047 0.0
O331 O 0.81188 0.37146 0.61282 0.0
O332 O 0.84567 0.41907 0.6295 0.0
O333 O 0.82272 0.39681 0.65739 0.0
C334 C 0.86566 0.34585 0.60146 0.0
C335 C 0.83042 0.41851 0.64853 0.0
C336 C 0.11309 0.36224 0.47704 0.0
C337 C 0.13444 0.36004 0.4607 0.0
C338 C 0.1095 0.34496 0.49722 0.0
C339 C 0.12496 0.27862 0.51346 0.0
H340 H 0.09988 0.29587 0.58139 0.0
C341 C 0.11977 0.22577 0.6159 0.0
C342 C 0.11065 0.20154 0.60815 0.0
C343 C 0.11815 0.24685 0.59946 0.0
C344 C 0.10678 0.2908 0.56244 0.0
H345 H 0.16966 0.33904 0.45386 0.0
H346 H 0.16343 0.30896 0.48921 0.0
H347 H 0.10913 0.33019 0.55059 0.0
H348 H 0.09077 0.18089 0.57797 0.0
H349 H 0.08789 0.21785 0.54919 0.0
H350 H 0.12308 0.23936 0.52527 0.0
C351 C 0.14929 0.32385 0.48611 0.0
C352 C 0.11202 0.3104 0.54484 0.0
C353 C 0.15297 0.34124 0.46602 0.0
C354 C 0.098 0.1993 0.58447 0.0
C355 C 0.09656 0.22039 0.56791 0.0
C356 C 0.11955 0.25907 0.53093 0.0
C357 C 0.12712 0.32504 0.50139 0.0
C358 C 0.12148 0.3045 0.52028 0.0
C359 C 0.10751 0.2441 0.57487 0.0
C360 C 0.11061 0.26493 0.55569 0.0
H361 H 0.09849 0.37657 0.47352 0.0
H362 H 0.09223 0.34634 0.50866 0.0
H363 H 0.13181 0.27345 0.49452 0.0
H364 H 0.12948 0.22814 0.63412 0.0
H365 H 0.12683 0.26482 0.60536 0.0
C366 C 0.93839 0.90751 0.67822 0.0
C367 C 0.91467 0.89475 0.67899 0.0
C368 C 0.95601 0.90447 0.69819 0.0
C369 C 0.99478 0.87651 0.73162 0.0
H370 H 0.97651 0.8764 0.8038 0.0
C371 C 0.06363 0.83796 0.80847 0.0
C372 C 0.06774 0.85438 0.8295 0.0
C373 C 0.04332 0.8424 0.79158 0.0
C374 C 0.98187 0.8764 0.78371 0.0
H375 H 0.89018 0.87012 0.702 0.0
H376 H 0.92083 0.86502 0.73684 0.0
H377 H 0.94438 0.88802 0.77165 0.0
H378 H 0.05285 0.88737 0.85015 0.0
H379 H 0.01735 0.89492 0.82078 0.0
H380 H 0.03222 0.86495 0.74358 0.0
C381 C 0.92586 0.87728 0.72081 0.0
C382 C 0.96349 0.88296 0.76534 0.0
C383 C 0.90835 0.88013 0.70078 0.0
C384 C 0.05028 0.87442 0.83408 0.0
C385 C 0.02987 0.87871 0.81731 0.0
C386 C 0.01306 0.86975 0.74994 0.0
C387 C 0.95013 0.88884 0.7194 0.0
C388 C 0.96978 0.8831 0.73911 0.0
C389 C 0.0266 0.86317 0.79551 0.0
C390 C 0.0068 0.86959 0.77617 0.0
H391 H 0.94382 0.9189 0.6617 0.0
H392 H 0.97448 0.91388 0.69679 0.0
H393 H 9e-05 0.8761 0.71153 0.0
H394 H 0.07672 0.82235 0.80441 0.0
H395 H 0.04101 0.82988 0.77511 0.0
C396 C 0.40173 0.83919 0.03581 0.0
C397 C 0.39184 0.86406 0.03906 0.0
C398 C 0.3993 0.82651 0.01228 0.0
C399 C 0.39755 0.80819 0.95584 0.0
H400 H 0.32542 0.79993 0.9396 0.0
C401 C 0.36315 0.73929 0.87646 0.0
C402 C 0.34863 0.71927 0.88729 0.0
C403 C 0.36708 0.76215 0.89008 0.0
C404 C 0.34563 0.80241 0.94363 0.0
H405 H 0.37268 0.89562 0.01996 0.0
H406 H 0.3678 0.87309 0.97894 0.0
H407 H 0.33865 0.83109 0.97231 0.0
H408 H 0.32508 0.70824 0.91969 0.0
H409 H 0.331 0.74864 0.94294 0.0
H410 H 0.4045 0.77904 0.92761 0.0
C411 C 0.37782 0.86367 0.99451 0.0
C412 C 0.35321 0.82026 0.96223 0.0
C413 C 0.38083 0.87661 0.01788 0.0
C414 C 0.33622 0.72342 0.91085 0.0
C415 C 0.33963 0.7465 0.92415 0.0
C416 C 0.39004 0.79076 0.93683 0.0
C417 C 0.38639 0.83825 0.99176 0.0
C418 C 0.37915 0.82278 0.96901 0.0
C419 C 0.35599 0.76559 0.91439 0.0
C420 C 0.36396 0.78721 0.93109 0.0
H421 H 0.41011 0.82902 0.05188 0.0
H422 H 0.40591 0.80685 0.0107 0.0
H423 H 0.41765 0.80972 0.9608 0.0
H424 H 0.37322 0.73651 0.85849 0.0
H425 H 0.37975 0.77663 0.88218 0.0
C426 C 0.44256 0.14618 0.31582 0.0
C427 C 0.43988 0.13131 0.33816 0.0
C428 C 0.46359 0.14265 0.29956 0.0
C429 C 0.51187 0.09378 0.28227 0.0
H430 H 0.54318 0.15039 0.2455 0.0
C431 C 0.59998 0.1172 0.20662 0.0
C432 C 0.59615 0.09734 0.18872 0.0
C433 C 0.58327 0.12033 0.22731 0.0
C434 C 0.53491 0.13435 0.25585 0.0
H435 H 0.45781 0.10192 0.36155 0.0
H436 H 0.49465 0.09616 0.33351 0.0
H437 H 0.51015 0.15908 0.2773 0.0
H438 H 0.57246 0.06444 0.17921 0.0
H439 H 0.54305 0.0701 0.21514 0.0
H440 H 0.53684 0.06908 0.26099 0.0
C441 C 0.48023 0.11012 0.32821 0.0
C442 C 0.51571 0.13934 0.27385 0.0
C443 C 0.45918 0.11357 0.34439 0.0
C444 C 0.57599 0.07988 0.19271 0.0
C445 C 0.55915 0.08311 0.21336 0.0
C446 C 0.53113 0.08879 0.2643 0.0
C447 C 0.48246 0.12425 0.30535 0.0
C448 C 0.50379 0.11911 0.28713 0.0
C449 C 0.56222 0.10378 0.23053 0.0
C450 C 0.54275 0.10901 0.25072 0.0
H451 H 0.42798 0.15993 0.3104 0.0
H452 H 0.46456 0.1537 0.28198 0.0
H453 H 0.5029 0.07769 0.29192 0.0
H454 H 0.61548 0.13085 0.20425 0.0
H455 H 0.58656 0.13609 0.2405 0.0
C456 C 0.0997 0.82395 0.94712 0.0
C457 C 0.11046 0.84859 0.94535 0.0
C458 C 0.10239 0.80957 0.9695 0.0
C459 C 0.14897 0.80107 0.02056 0.0
H460 H 0.10043 0.74909 0.04249 0.0
C461 C 0.16631 0.71719 0.09503 0.0
C462 C 0.15884 0.69312 0.08517 0.0
C463 C 0.16144 0.73971 0.0811 0.0
C464 C 0.11412 0.76363 0.03667 0.0
H465 H 0.13083 0.87834 0.96615 0.0
H466 H 0.13554 0.85308 0.00553 0.0
H467 H 0.08609 0.78398 0.0148 0.0
H468 H 0.14249 0.67371 0.05208 0.0
H469 H 0.13396 0.71279 0.02814 0.0
H470 H 0.17713 0.78005 0.04208 0.0
C471 C 0.12512 0.84489 0.98951 0.0
C472 C 0.10593 0.78357 0.02086 0.0
C473 C 0.12213 0.85945 0.96711 0.0
C474 C 0.14825 0.6919 0.0604 0.0
C475 C 0.1432 0.71428 0.04671 0.0
C476 C 0.15713 0.78114 0.03664 0.0
C477 C 0.11611 0.81944 0.99054 0.0
C478 C 0.12345 0.80195 0.0118 0.0
C479 C 0.14887 0.73839 0.05731 0.0
C480 C 0.13994 0.76176 0.04397 0.0
H481 H 0.0907 0.8151 0.93058 0.0
H482 H 0.09538 0.78997 0.96952 0.0
H483 H 0.16301 0.81479 0.01371 0.0
H484 H 0.17447 0.71878 0.11407 0.0
H485 H 0.16613 0.75816 0.08952 0.0
C486 C 0.55312 0.90585 0.31832 0.0
C487 C 0.57648 0.89247 0.3182 0.0
C488 C 0.53652 0.90421 0.29731 0.0
C489 C 0.49877 0.87921 0.2604 0.0
H490 H 0.52117 0.88157 0.18944 0.0
C491 C 0.433 0.84662 0.17814 0.0
C492 C 0.43075 0.864 0.15765 0.0
C493 C 0.45248 0.84957 0.19631 0.0
C494 C 0.51466 0.8809 0.20917 0.0
H495 H 0.60141 0.86816 0.29537 0.0
H496 H 0.57255 0.86549 0.25877 0.0
H497 H 0.55179 0.89062 0.22386 0.0
H498 H 0.44811 0.89716 0.1393 0.0
H499 H 0.48216 0.90213 0.1709 0.0
H500 H 0.46168 0.86957 0.24582 0.0
C501 C 0.56702 0.87717 0.27507 0.0
C502 C 0.53217 0.88598 0.22885 0.0
C503 C 0.5835 0.87862 0.29611 0.0
C504 C 0.44926 0.88348 0.1549 0.0
C505 C 0.46883 0.8863 0.17296 0.0
C506 C 0.48134 0.87394 0.24078 0.0
C507 C 0.54307 0.88939 0.27571 0.0
C508 C 0.52439 0.8852 0.25467 0.0
C509 C 0.47022 0.86981 0.19423 0.0
C510 C 0.48909 0.87469 0.21496 0.0
H511 H 0.54716 0.91668 0.33504 0.0
H512 H 0.5183 0.91411 0.29818 0.0
H513 H 0.49228 0.87813 0.28012 0.0
H514 H 0.41909 0.83139 0.1808 0.0
H515 H 0.45334 0.83632 0.21232 0.0
C516 C 0.36464 0.29024 0.60217 0.0
C517 C 0.37005 0.31433 0.59113 0.0
C518 C 0.36889 0.26753 0.58824 0.0
C519 C 0.40982 0.24362 0.53636 0.0
H520 H 0.36031 0.18876 0.5275 0.0
C521 C 0.41072 0.17525 0.45054 0.0
C522 C 0.40247 0.14972 0.45336 0.0
C523 C 0.41051 0.19208 0.47138 0.0
C524 C 0.37459 0.20362 0.53025 0.0
H525 H 0.38254 0.33336 0.5562 0.0
H526 H 0.38983 0.29404 0.53222 0.0
H527 H 0.35042 0.2248 0.55605 0.0
H528 H 0.3887 0.12142 0.48056 0.0
H529 H 0.38823 0.15104 0.51722 0.0
H530 H 0.43375 0.22295 0.51018 0.0
C531 C 0.38272 0.29265 0.55171 0.0
C532 C 0.36885 0.2243 0.54651 0.0
C533 C 0.37826 0.31521 0.56542 0.0
C534 C 0.3954 0.14094 0.47787 0.0
C535 C 0.39486 0.15795 0.49877 0.0
C536 C 0.41558 0.22298 0.52024 0.0
C537 C 0.37885 0.26857 0.56319 0.0
C538 C 0.38605 0.24492 0.54899 0.0
C539 C 0.40177 0.1839 0.49556 0.0
C540 C 0.3977 0.20315 0.51631 0.0
H541 H 0.35847 0.28883 0.62196 0.0
H542 H 0.3656 0.24918 0.59748 0.0
H543 H 0.42371 0.25897 0.53843 0.0
H544 H 0.4162 0.18258 0.43186 0.0
H545 H 0.41573 0.21196 0.46812 0.0
C546 C 0.09352 0.16213 0.72018 0.0
C547 C 0.12008 0.15823 0.72066 0.0
C548 C 0.07865 0.15691 0.74175 0.0
C549 C 0.07743 0.11294 0.79573 0.0
H550 H 0.01415 0.14907 0.81023 0.0
C551 C 0.99019 0.08424 0.86422 0.0
C552 C 0.9675 0.08272 0.84967 0.0
C553 C 0.01302 0.09286 0.85285 0.0
C554 C 0.03192 0.13895 0.80661 0.0
H555 H 0.15224 0.1471 0.74438 0.0
H556 H 0.12603 0.13771 0.78245 0.0
H557 H 0.04709 0.1698 0.7842 0.0
H558 H 0.95159 0.08664 0.81138 0.0
H559 H 0.99118 0.10173 0.79186 0.0
H560 H 0.06151 0.08171 0.81762 0.0
C561 C 0.11679 0.1449 0.7653 0.0
C562 C 0.05073 0.15075 0.7917 0.0
C563 C 0.1318 0.15053 0.74367 0.0
C564 C 0.96863 0.08779 0.8232 0.0
C565 C 0.99124 0.09654 0.812 0.0
C566 C 0.05859 0.10118 0.8109 0.0
C567 C 0.08996 0.14737 0.76428 0.0
C568 C 0.07321 0.13747 0.78513 0.0
C569 C 0.01329 0.1001 0.82691 0.0
C570 C 0.03532 0.11377 0.81554 0.0
H571 H 0.08403 0.16793 0.70262 0.0
H572 H 0.05805 0.15874 0.74013 0.0
H573 H 0.09446 0.10212 0.79086 0.0
H574 H 0.98992 0.08059 0.88468 0.0
H575 H 0.02993 0.09542 0.86462 0.0
C576 C 0.20992 0.57384 0.10345 0.0
C577 C 0.18406 0.56982 0.09713 0.0
C578 C 0.22668 0.55308 0.10552 0.0
C579 C 0.22621 0.48594 0.12354 0.0
H580 H 0.29533 0.48507 0.09645 0.0
C581 C 0.2942 0.39823 0.13205 0.0
C582 C 0.32063 0.40308 0.13257 0.0
C583 C 0.27687 0.41857 0.12957 0.0
C584 C 0.27625 0.48519 0.1046 0.0
H585 H 0.15575 0.54107 0.08678 0.0
H586 H 0.18512 0.50471 0.09066 0.0
H587 H 0.26676 0.52027 0.08537 0.0
H588 H 0.3497 0.43278 0.13339 0.0
H589 H 0.31955 0.46829 0.13059 0.0
H590 H 0.23581 0.45126 0.14338 0.0
C591 C 0.19231 0.52396 0.094 0.0
C592 C 0.25984 0.50525 0.09799 0.0
C593 C 0.17562 0.54478 0.0915 0.0
C594 C 0.32936 0.42858 0.13287 0.0
C595 C 0.31209 0.44887 0.13088 0.0
C596 C 0.24274 0.46599 0.13044 0.0
C597 C 0.2178 0.52789 0.10168 0.0
C598 C 0.2347 0.50584 0.10743 0.0
C599 C 0.28573 0.44409 0.12793 0.0
C600 C 0.26803 0.46543 0.12116 0.0
H601 H 0.21693 0.59292 0.10792 0.0
H602 H 0.24624 0.55663 0.11151 0.0
H603 H 0.20699 0.48617 0.13138 0.0
H604 H 0.28703 0.37869 0.13147 0.0
H605 H 0.25673 0.41412 0.12729 0.0
C606 C 0.85777 0.0124 0.8574 0.0
C607 C 0.85153 0.03566 0.84524 0.0
C608 C 0.84057 0.99183 0.85725 0.0
C609 C 0.77928 0.96781 0.82904 0.0
H610 H 0.77135 0.93659 0.89614 0.0
C611 C 0.69709 0.91176 0.89132 0.0
C612 C 0.68737 0.89485 0.87266 0.0
C613 C 0.7194 0.92585 0.88666 0.0
C614 C 0.77325 0.94514 0.8773 0.0
H615 H 0.82304 0.05497 0.82197 0.0
H616 H 0.7928 0.01931 0.82212 0.0
H617 H 0.80612 0.96673 0.88871 0.0
H618 H 0.69401 0.8789 0.83475 0.0
H619 H 0.7332 0.9032 0.82681 0.0
H620 H 0.74553 0.94715 0.81809 0.0
C621 C 0.81112 0.01677 0.83151 0.0
C622 C 0.79346 0.96218 0.87289 0.0
C623 C 0.82846 0.03729 0.83146 0.0
C624 C 0.70091 0.89182 0.84952 0.0
C625 C 0.72329 0.90589 0.84488 0.0
C626 C 0.75897 0.95081 0.83349 0.0
C627 C 0.8166 0.9941 0.84517 0.0
C628 C 0.79655 0.97404 0.84882 0.0
C629 C 0.73263 0.92333 0.86326 0.0
C630 C 0.75546 0.93961 0.85782 0.0
H631 H 0.87553 0.01043 0.86796 0.0
H632 H 0.84571 0.97443 0.86739 0.0
H633 H 0.78122 0.97637 0.81021 0.0
H634 H 0.68711 0.91465 0.90932 0.0
H635 H 0.72581 0.93936 0.90113 0.0
C636 C 0.82006 0.05636 0.39798 0.0
C637 C 0.84645 0.05196 0.40073 0.0
C638 C 0.80289 0.03587 0.39644 0.0
C639 C 0.79939 0.96857 0.37615 0.0
H640 H 0.73084 0.97383 0.40428 0.0
C641 C 0.71635 0.89274 0.36356 0.0
C642 C 0.69211 0.90355 0.35884 0.0
C643 C 0.73752 0.90864 0.36865 0.0
C644 C 0.74989 0.97212 0.3962 0.0
H645 H 0.87546 0.02254 0.40502 0.0
H646 H 0.84524 0.98645 0.40238 0.0
H647 H 0.7633 0.00503 0.41677 0.0
H648 H 0.6716 0.93933 0.35346 0.0
H649 H 0.70835 0.9668 0.36191 0.0
H650 H 0.78558 0.93566 0.35532 0.0
C651 C 0.83795 0.00589 0.4013 0.0
C652 C 0.7685 0.98997 0.4034 0.0
C653 C 0.8552 0.02653 0.4031 0.0
C654 C 0.68995 0.9304 0.35724 0.0
C655 C 0.71095 0.94616 0.36233 0.0
C656 C 0.78068 0.95053 0.36901 0.0
C657 C 0.81164 0.01036 0.39747 0.0
C658 C 0.79327 0.98891 0.3929 0.0
C659 C 0.73469 0.93551 0.36914 0.0
C660 C 0.75553 0.95265 0.37838 0.0
H661 H 0.81271 0.07572 0.39606 0.0
H662 H 0.78284 0.04008 0.39321 0.0
H663 H 0.81825 0.96729 0.3676 0.0
H664 H 0.71857 0.87212 0.36515 0.0
H665 H 0.75565 0.89992 0.37373 0.0
C666 C 0.71431 0.07791 0.15949 0.0
C667 C 0.71104 0.10051 0.14526 0.0
C668 C 0.73513 0.06187 0.15472 0.0
C669 C 0.77233 0.04326 0.09889 0.0
H670 H 0.80044 0.99387 0.14681 0.0
C671 C 0.83242 0.9506 0.07407 0.0
C672 C 0.82385 0.92859 0.08723 0.0
C673 C 0.82151 0.97466 0.07922 0.0
C674 C 0.79279 0.00761 0.13322 0.0
H675 H 0.7281 0.12549 0.11676 0.0
H676 H 0.76482 0.09747 0.1085 0.0
H677 H 0.78068 0.03308 0.16304 0.0
H678 H 0.7954 0.91417 0.114 0.0
H679 H 0.77656 0.95593 0.12287 0.0
H680 H 0.78408 0.01725 0.0691 0.0
C681 C 0.75118 0.09206 0.12322 0.0
C682 C 0.78156 0.03006 0.14249 0.0
C683 C 0.73042 0.10831 0.12825 0.0
C684 C 0.80267 0.93075 0.10374 0.0
C685 C 0.792 0.95469 0.10902 0.0
C686 C 0.78385 0.02084 0.08958 0.0
C687 C 0.75295 0.06802 0.13541 0.0
C688 C 0.77027 0.04767 0.12551 0.0
C689 C 0.80204 0.97696 0.09768 0.0
C690 C 0.79324 0.00239 0.10676 0.0
H691 H 0.69945 0.07139 0.17248 0.0
H692 H 0.73574 0.04348 0.16441 0.0
H693 H 0.76356 0.05627 0.08528 0.0
H694 H 0.84874 0.9496 0.06126 0.0
H695 H 0.82938 0.99161 0.07007 0.0
C696 C 0.18594 0.56224 0.65072 0.0
C697 C 0.18813 0.58785 0.64261 0.0
C698 C 0.20651 0.54541 0.64816 0.0
C699 C 0.27571 0.53954 0.6334 0.0
H700 H 0.25374 0.47439 0.60451 0.0
C701 C 0.34721 0.46178 0.59797 0.0
C702 C 0.34223 0.43701 0.6075 0.0
C703 C 0.32893 0.48129 0.60056 0.0
C704 C 0.26018 0.49243 0.61266 0.0
H705 H 0.21407 0.6165 0.62727 0.0
H706 H 0.25017 0.5869 0.62254 0.0
H707 H 0.22201 0.5068 0.61527 0.0
H708 H 0.31382 0.41296 0.62613 0.0
H709 H 0.28198 0.44673 0.63033 0.0
H710 H 0.31402 0.5249 0.63069 0.0
C711 C 0.23258 0.5799 0.63106 0.0
C712 C 0.24201 0.51097 0.61899 0.0
C713 C 0.21196 0.59689 0.63389 0.0
C714 C 0.31824 0.43184 0.61857 0.0
C715 C 0.29995 0.45119 0.62092 0.0
C716 C 0.29398 0.52092 0.62699 0.0
C717 C 0.22964 0.55371 0.6371 0.0
C718 C 0.24947 0.53456 0.62988 0.0
C719 C 0.30525 0.47624 0.61241 0.0
C720 C 0.28633 0.49701 0.61693 0.0
H721 H 0.16781 0.55483 0.65768 0.0
H722 H 0.20388 0.52553 0.65374 0.0
H723 H 0.28206 0.55752 0.64172 0.0
H724 H 0.3656 0.46639 0.58948 0.0
H725 H 0.33342 0.50038 0.5936 0.0
C726 C 0.15304 0.47989 0.41586 0.0
C727 C 0.12923 0.47347 0.40505 0.0
C728 C 0.16486 0.50324 0.4099 0.0
C729 C 0.1825 0.55837 0.39802 0.0
H730 H 0.19267 0.56162 0.32428 0.0
C731 C 0.25345 0.62991 0.35271 0.0
C732 C 0.27317 0.61664 0.34 0.0
C733 C 0.23031 0.61751 0.3584 0.0
C734 C 0.18966 0.56123 0.34485 0.0
H735 H 0.09844 0.48697 0.38069 0.0
H736 H 0.11945 0.52765 0.36977 0.0
H737 H 0.16149 0.53136 0.34219 0.0
H738 H 0.28343 0.5809 0.3214 0.0
H739 H 0.24262 0.55966 0.33028 0.0
H740 H 0.21139 0.58754 0.40071 0.0
C741 C 0.12874 0.51474 0.38313 0.0
C742 C 0.17174 0.54405 0.3551 0.0
C743 C 0.11663 0.49159 0.38959 0.0
C744 C 0.26846 0.59164 0.331 0.0
C745 C 0.24513 0.57948 0.33615 0.0
C746 C 0.20007 0.57588 0.38774 0.0
C747 C 0.15334 0.52036 0.39256 0.0
C748 C 0.16855 0.54192 0.38182 0.0
C749 C 0.2263 0.59189 0.35089 0.0
C750 C 0.20437 0.57692 0.36111 0.0
H751 H 0.16324 0.46616 0.42765 0.0
H752 H 0.18389 0.50699 0.4173 0.0
H753 H 0.18046 0.55706 0.41868 0.0
H754 H 0.2567 0.64905 0.36024 0.0
H755 H 0.21606 0.62749 0.36975 0.0
C756 C 0.29388 0.58206 0.89431 0.0
C757 C 0.29963 0.60293 0.87819 0.0
C758 C 0.27365 0.56545 0.88843 0.0
C759 C 0.2442 0.52428 0.85897 0.0
H760 H 0.17557 0.54718 0.84213 0.0
C761 C 0.16663 0.45313 0.82551 0.0
C762 C 0.14423 0.45401 0.84044 0.0
C763 C 0.18447 0.47321 0.82666 0.0
C764 C 0.1947 0.54057 0.84666 0.0
H765 H 0.28781 0.62346 0.84396 0.0
H766 H 0.25208 0.59466 0.83406 0.0
H767 H 0.20877 0.57888 0.85273 0.0
H768 H 0.12208 0.47736 0.86681 0.0
H769 H 0.15296 0.51253 0.86841 0.0
H770 H 0.23026 0.48603 0.85312 0.0
C771 C 0.26342 0.5911 0.85109 0.0
C772 C 0.21366 0.55867 0.85265 0.0
C773 C 0.2839 0.60754 0.85676 0.0
C774 C 0.13921 0.4761 0.85515 0.0
C775 C 0.15685 0.4963 0.856 0.0
C776 C 0.2254 0.50625 0.85262 0.0
C777 C 0.25852 0.56953 0.86652 0.0
C778 C 0.23849 0.55064 0.85924 0.0
C779 C 0.18003 0.49469 0.84243 0.0
C780 C 0.20038 0.51417 0.8467 0.0
H781 H 0.30561 0.57791 0.91093 0.0
H782 H 0.27007 0.54914 0.90084 0.0
H783 H 0.26327 0.51758 0.86369 0.0
H784 H 0.17108 0.43634 0.81406 0.0
H785 H 0.20211 0.4716 0.81582 0.0
C786 C 0.62162 0.76175 0.87065 0.0
C787 C 0.63609 0.78195 0.88122 0.0
C788 C 0.61861 0.73868 0.88412 0.0
C789 C 0.64251 0.69947 0.93787 0.0
H790 H 0.57083 0.68863 0.95453 0.0
C791 C 0.58654 0.66368 0.03054 0.0
C792 C 0.59881 0.64026 0.03574 0.0
C793 C 0.58857 0.675 0.00633 0.0
C794 C 0.59087 0.69113 0.94973 0.0
H795 H 0.66051 0.79314 0.91293 0.0
H796 H 0.65606 0.75254 0.93595 0.0
H797 H 0.5826 0.71913 0.9208 0.0
H798 H 0.62158 0.60959 0.01931 0.0
H799 H 0.6256 0.62975 0.97704 0.0
H800 H 0.65083 0.67226 0.96754 0.0
C801 C 0.6468 0.75461 0.91746 0.0
C802 C 0.59761 0.70845 0.93036 0.0
C803 C 0.64935 0.77784 0.9043 0.0
C804 C 0.61172 0.62753 0.01577 0.0
C805 C 0.61421 0.63914 0.99167 0.0
C806 C 0.63575 0.68182 0.95693 0.0
C807 C 0.63052 0.73526 0.90804 0.0
C808 C 0.62353 0.71337 0.92482 0.0
C809 C 0.60331 0.66335 0.98701 0.0
C810 C 0.60991 0.67809 0.96359 0.0
H811 H 0.61094 0.7645 0.85304 0.0
H812 H 0.60603 0.724 0.87644 0.0
H813 H 0.6626 0.70297 0.93399 0.0
H814 H 0.57655 0.67394 0.04562 0.0
H815 H 0.58012 0.69376 0.00332 0.0
C816 C 0.59646 0.34294 0.27486 0.0
C817 C 0.58938 0.34872 0.30025 0.0
C818 C 0.57852 0.34488 0.25498 0.0
C819 C 0.50971 0.34518 0.24141 0.0
H820 H 0.5267 0.38864 0.18337 0.0
C821 C 0.4315 0.37638 0.17183 0.0
C822 C 0.43715 0.37606 0.14551 0.0
C823 C 0.45103 0.37449 0.18996 0.0
C824 C 0.52174 0.37618 0.19925 0.0
H825 H 0.55785 0.35991 0.32492 0.0
H826 H 0.52647 0.36258 0.29038 0.0
H827 H 0.55914 0.37962 0.21601 0.0
H828 H 0.46768 0.37473 0.11741 0.0
H829 H 0.50198 0.37071 0.14912 0.0
H830 H 0.47259 0.34123 0.22478 0.0
C831 C 0.54588 0.35682 0.28579 0.0
C832 C 0.54033 0.37102 0.21791 0.0
C833 C 0.56384 0.35533 0.30554 0.0
C834 C 0.46285 0.37524 0.13762 0.0
C835 C 0.48247 0.37289 0.15582 0.0
C836 C 0.49127 0.35007 0.22269 0.0
C837 C 0.55315 0.35212 0.26027 0.0
C838 C 0.53433 0.35577 0.23934 0.0
C839 C 0.47668 0.37166 0.1822 0.0
C840 C 0.49686 0.366 0.20158 0.0
H841 H 0.61607 0.33801 0.27022 0.0
H842 H 0.58453 0.341 0.23546 0.0
H843 H 0.5047 0.33311 0.25759 0.0
H844 H 0.41183 0.37724 0.17842 0.0
H845 H 0.44589 0.3745 0.2101 0.0
C846 C 0.87264 0.30041 0.58778 0.0
C847 C 0.87272 0.32671 0.58173 0.0
C848 C 0.87398 0.28194 0.56836 0.0
C849 C 0.85434 0.27266 0.50245 0.0
H850 H 0.89744 0.21216 0.50429 0.0
C851 C 0.85578 0.19744 0.42028 0.0
C852 C 0.86117 0.1718 0.42665 0.0
C853 C 0.85674 0.21665 0.43908 0.0
C854 C 0.88491 0.2287 0.50367 0.0
H855 H 0.87536 0.35431 0.55067 0.0
H856 H 0.87734 0.32192 0.51667 0.0
H857 H 0.90245 0.24523 0.53704 0.0
H858 H 0.86999 0.14586 0.45791 0.0
H859 H 0.87036 0.17898 0.49086 0.0
H860 H 0.83608 0.25589 0.46973 0.0
C861 C 0.87634 0.31569 0.53648 0.0
C862 C 0.888 0.24774 0.52233 0.0
C863 C 0.87548 0.33419 0.55595 0.0
C864 C 0.86596 0.16551 0.4524 0.0
C865 C 0.86649 0.18459 0.47124 0.0
C866 C 0.85095 0.25344 0.48399 0.0
C867 C 0.87497 0.28942 0.54249 0.0
C868 C 0.87274 0.26988 0.52191 0.0
C869 C 0.86273 0.21054 0.46472 0.0
C870 C 0.86613 0.23112 0.48439 0.0
H871 H 0.87046 0.29409 0.60747 0.0
H872 H 0.87283 0.26181 0.5735 0.0
H873 H 0.84204 0.28941 0.50195 0.0
H874 H 0.85229 0.2029 0.40053 0.0
H875 H 0.85391 0.23639 0.43322 0.0
C876 C 0.93594 0.6027 0.83765 0.0
C877 C 0.9279 0.62791 0.8431 0.0
C878 C 0.95573 0.59823 0.82018 0.0
C879 C 0.01153 0.62636 0.78881 0.0
H880 H 0.99411 0.58217 0.73143 0.0
C881 C 0.07223 0.62432 0.69673 0.0
C882 C 0.07343 0.60176 0.68196 0.0
C883 C 0.05636 0.62575 0.71822 0.0
C884 C -0.00038 0.5941 0.74753 0.0
H885 H 0.93509 0.6682 0.83538 0.0
H886 H 0.97026 0.66032 0.80526 0.0
H887 H 0.96359 0.58801 0.76629 0.0
H888 H 0.05959 0.56265 0.67868 0.0
H889 H 0.03261 0.56468 0.71693 0.0
H890 H 0.04772 0.63215 0.77054 0.0
C891 C 0.96099 0.64409 0.8144 0.0
C892 C 0.98201 0.59756 0.76744 0.0
C893 C 0.94085 0.64859 0.83156 0.0
C894 C 0.05895 0.58035 0.68961 0.0
C895 C 0.04333 0.58162 0.71144 0.0
C896 C 0.02936 0.62255 0.76915 0.0
C897 C 0.9682 0.61885 0.80815 0.0
C898 C 0.98765 0.61401 0.78804 0.0
C899 C 0.04153 0.60449 0.72584 0.0
C900 C 0.02349 0.60673 0.74797 0.0
H901 H 0.92631 0.58633 0.84612 0.0
H902 H 0.96107 0.57861 0.81578 0.0
H903 H 0.01641 0.63893 0.80466 0.0
H904 H 0.08294 0.64129 0.69123 0.0
H905 H 0.05517 0.64388 0.72834 0.0
C906 C 0.60754 0.30055 0.41531 0.0
C907 C 0.60596 0.32703 0.42026 0.0
C908 C 0.60796 0.28291 0.43543 0.0
C909 C 0.59657 0.27384 0.50508 0.0
H910 H 0.6465 0.21942 0.49613 0.0
C911 C 0.61803 0.19879 0.58456 0.0
C912 C 0.61696 0.17318 0.57601 0.0
C913 C 0.61884 0.21905 0.56686 0.0
C914 C 0.63244 0.23445 0.49891 0.0
H915 H 0.60214 0.35569 0.45021 0.0
H916 H 0.603 0.32475 0.48555 0.0
H917 H 0.64129 0.25171 0.4628 0.0
H918 H 0.61729 0.1487 0.54233 0.0
H919 H 0.61917 0.18384 0.51163 0.0
H920 H 0.58774 0.25632 0.54128 0.0
C921 C 0.60376 0.31765 0.46603 0.0
C922 C 0.62932 0.2529 0.47974 0.0
C923 C 0.60315 0.33539 0.44577 0.0
C924 C 0.61815 0.16821 0.54953 0.0
C925 C 0.61927 0.18838 0.53192 0.0
C926 C 0.59977 0.25537 0.52437 0.0
C927 C 0.60707 0.29127 0.46108 0.0
C928 C 0.61099 0.27253 0.48232 0.0
C929 C 0.61898 0.21403 0.54033 0.0
C930 C 0.61744 0.23521 0.52127 0.0
H931 H 0.60953 0.29349 0.39584 0.0
H932 H 0.60975 0.26268 0.43088 0.0
H933 H 0.58225 0.28866 0.50767 0.0
H934 H 0.61691 0.20325 0.60484 0.0
H935 H 0.61885 0.23863 0.5739 0.0
C936 C 0.00584 0.40878 0.8619 0.0
C937 C 0.02761 0.41874 0.84955 0.0
C938 C 0.98281 0.40598 0.84838 0.0
C939 C 0.94982 0.42256 0.78733 0.0
H940 H 0.92766 0.35135 0.7879 0.0
C941 C 0.90465 0.37682 0.69934 0.0
C942 C 0.88211 0.36235 0.70238 0.0
C943 C 0.91892 0.3844 0.72062 0.0
C944 C 0.93329 0.37139 0.78783 0.0
H945 H 0.04194 0.4358 0.8145 0.0
H946 H 0.00185 0.43161 0.79118 0.0
H947 H 0.95712 0.36686 0.82096 0.0
H948 H 0.85772 0.34317 0.73013 0.0
H949 H 0.88316 0.35618 0.76755 0.0
H950 H 0.92697 0.4268 0.75355 0.0
C951 C 0.00235 0.42576 0.81112 0.0
C952 C 0.95004 0.38034 0.80682 0.0
C953 C 0.02536 0.42817 0.82445 0.0
C954 C 0.87503 0.35427 0.72716 0.0
C955 C 0.88949 0.3618 0.74857 0.0
C956 C 0.93318 0.41362 0.76837 0.0
C957 C 0.98118 0.41354 0.82252 0.0
C958 C 0.95919 0.40579 0.8062 0.0
C959 C 0.91111 0.37764 0.74549 0.0
C960 C 0.92551 0.38772 0.76787 0.0
H961 H 0.0072 0.40109 0.88117 0.0
H962 H 0.96672 0.39671 0.8577 0.0
H963 H 0.95622 0.44235 0.78659 0.0
H964 H 0.91083 0.38319 0.68054 0.0
H965 H 0.93591 0.39599 0.71761 0.0
C966 C 0.86356 0.62644 0.97902 0.0
C967 C 0.88138 0.63505 0.96069 0.0
C968 C 0.85751 0.64183 0.00019 0.0
C969 C 0.8372 0.69852 0.01377 0.0
H970 H 0.87414 0.71818 0.07527 0.0
C971 C 0.83362 0.79833 0.06009 0.0
C972 C 0.83458 0.80038 0.08695 0.0
C973 C 0.83415 0.77426 0.04827 0.0
C974 C 0.86328 0.71251 0.05848 0.0
H975 H 0.90873 0.66494 0.9514 0.0
H976 H 0.89907 0.69117 0.9892 0.0
H977 H 0.88896 0.68144 0.04974 0.0
H978 H 0.83516 0.77884 0.12256 0.0
H979 H 0.83651 0.73667 0.10178 0.0
H980 H 0.81237 0.73034 0.02148 0.0
C981 C 0.88957 0.67278 0.98691 0.0
C982 C 0.87186 0.69164 0.0439 0.0
C983 C 0.89518 0.65775 0.96543 0.0
C984 C 0.83423 0.77785 0.10181 0.0
C985 C 0.83523 0.75373 0.08995 0.0
C986 C 0.82874 0.71947 0.02818 0.0
C987 C 0.86981 0.66553 0.00365 0.0
C988 C 0.85905 0.68479 0.02129 0.0
C989 C 0.83606 0.75179 0.06308 0.0
C990 C 0.84205 0.72704 0.05036 0.0
H991 H 0.85227 0.60931 0.97555 0.0
H992 H 0.84202 0.63611 0.01281 0.0
H993 H 0.82746 0.69381 0.99602 0.0
H994 H 0.83392 0.81537 0.04817 0.0
H995 H 0.83491 0.77335 0.02751 0.0
C996 C 0.38427 0.628 0.27541 0.0
C997 C 0.38959 0.61105 0.29569 0.0
C998 C 0.40079 0.62976 0.25438 0.0
C999 C 0.45701 0.59866 0.22272 0.0
H1000 H 0.47037 0.66811 0.19933 0.0
C1001 C 0.54161 0.65886 0.16763 0.0
C1002 C 0.54864 0.64078 0.1489 0.0
C1003 C 0.51972 0.65508 0.18262 0.0
C1004 C 0.467 0.6486 0.20571 0.0
H1005 H 0.41583 0.58187 0.30932 0.0
H1006 H 0.44503 0.58539 0.27306 0.0
H1007 H 0.43714 0.6605 0.23104 0.0
H1008 H 0.53751 0.60515 0.13034 0.0
H1009 H 0.49893 0.59895 0.15593 0.0
H1010 H 0.48792 0.58699 0.19848 0.0
C1011 C 0.42785 0.59701 0.27304 0.0
C1012 C 0.4476 0.64415 0.22364 0.0
C1013 C 0.41114 0.59502 0.29393 0.0
C1014 C 0.53272 0.61937 0.14475 0.0
C1015 C 0.51069 0.61571 0.15958 0.0
C1016 C 0.47658 0.60315 0.20494 0.0
C1017 C 0.42322 0.61486 0.25328 0.0
C1018 C 0.44253 0.61916 0.23264 0.0
C1019 C 0.50418 0.63324 0.17906 0.0
C1020 C 0.48206 0.62823 0.19645 0.0
H1021 H 0.36766 0.64044 0.27608 0.0
H1022 H 0.39623 0.64324 0.23925 0.0
H1023 H 0.45345 0.57913 0.22891 0.0
H1024 H 0.55354 0.67548 0.17143 0.0
H1025 H 0.51558 0.66883 0.19765 0.0
C1026 C 0.80027 0.93498 0.65125 0.0
C1027 C 0.79767 0.90883 0.64521 0.0
C1028 C 0.7796 0.95168 0.64841 0.0
C1029 C 0.70962 0.95603 0.63562 0.0
H1030 H 0.7299 0.01966 0.60254 0.0
C1031 C 0.63639 0.02902 0.59431 0.0
C1032 C 0.64044 0.05454 0.6022 0.0
C1033 C 0.65517 0.01032 0.59861 0.0
C1034 C 0.72394 0.00204 0.61187 0.0
H1035 H 0.77102 0.87924 0.63322 0.0
H1036 H 0.73486 0.9085 0.62786 0.0
H1037 H 0.76242 0.98863 0.61477 0.0
H1038 H 0.66769 0.08068 0.61977 0.0
H1039 H 0.70045 0.04826 0.62684 0.0
H1040 H 0.67098 0.96961 0.63233 0.0
C1041 C 0.75278 0.9161 0.63508 0.0
C1042 C 0.74258 0.9843 0.61908 0.0
C1043 C 0.77347 0.89929 0.63826 0.0
C1044 C 0.66399 0.06119 0.61345 0.0
C1045 C 0.6828 0.04263 0.61745 0.0
C1046 C 0.6909 0.97379 0.62824 0.0
C1047 C 0.75597 0.94267 0.63905 0.0
C1048 C 0.73573 0.96124 0.63139 0.0
C1049 C 0.67843 0.01691 0.61052 0.0
C1050 C 0.69793 0.99711 0.61657 0.0
H1051 H 0.8187 0.94281 0.6568 0.0
H1052 H 0.78249 0.97189 0.65244 0.0
H1053 H 0.70369 0.93849 0.6451 0.0
H1054 H 0.61837 0.02328 0.58574 0.0
H1055 H 0.65142 0.99067 0.59285 0.0
C1056 C 0.12163 0.57037 0.19154 0.0
C1057 C 0.14063 0.5895 0.1912 0.0
C1058 C 0.12318 0.54993 0.20872 0.0
C1059 C 0.16982 0.51176 0.24406 0.0
H1060 H 0.10973 0.48582 0.27929 0.0
C1061 C 0.17047 0.43076 0.32096 0.0
C1062 C 0.14813 0.41588 0.32321 0.0
C1063 C 0.17194 0.45024 0.30251 0.0
C1064 C 0.12662 0.4925 0.26921 0.0
H1065 H 0.17573 0.6027 0.20915 0.0
H1066 H 0.17843 0.56673 0.23937 0.0
H1067 H 0.10675 0.5252 0.25449 0.0
H1068 H 0.11119 0.40743 0.30636 0.0
H1069 H 0.11428 0.44035 0.27328 0.0
H1070 H 0.18964 0.47881 0.25871 0.0
C1071 C 0.16242 0.56763 0.22619 0.0
C1072 C 0.12493 0.51521 0.2552 0.0
C1073 C 0.1607 0.58833 0.20913 0.0
C1074 C 0.1286 0.41872 0.30498 0.0
C1075 C 0.13023 0.43783 0.28633 0.0
C1076 C 0.17151 0.48886 0.25805 0.0
C1077 C 0.14388 0.54801 0.2258 0.0
C1078 C 0.14641 0.52498 0.24229 0.0
C1079 C 0.15118 0.45484 0.28592 0.0
C1080 C 0.14982 0.47882 0.27054 0.0
H1081 H 0.10595 0.57074 0.17792 0.0
H1082 H 0.10869 0.53502 0.20786 0.0
H1083 H 0.18663 0.51873 0.23405 0.0
H1084 H 0.18563 0.42916 0.33507 0.0
H1085 H 0.18837 0.46296 0.30269 0.0
C1086 C 0.82741 0.87847 0.53778 0.0
C1087 C 0.83846 0.89938 0.55065 0.0
C1088 C 0.80686 0.88216 0.52116 0.0
C1089 C 0.75194 0.92437 0.51491 0.0
H1090 H 0.73784 0.88077 0.45623 0.0
C1091 C 0.65672 0.91784 0.45408 0.0
C1092 C 0.64957 0.89246 0.44815 0.0
C1093 C 0.67933 0.92266 0.46781 0.0
C1094 C 0.74152 0.89305 0.47262 0.0
H1095 H 0.83793 0.94075 0.5551 0.0
H1096 H 0.80173 0.94731 0.52582 0.0
H1097 H 0.78131 0.88345 0.47304 0.0
H1098 H 0.65846 0.85233 0.45451 0.0
H1099 H 0.69745 0.86072 0.47877 0.0
H1100 H 0.71178 0.93353 0.51453 0.0
C1101 C 0.80902 0.92805 0.52866 0.0
C1102 C 0.7664 0.89467 0.48216 0.0
C1103 C 0.82993 0.92435 0.54509 0.0
C1104 C 0.6636 0.87207 0.45873 0.0
C1105 C 0.68605 0.87686 0.47234 0.0
C1106 C 0.72696 0.92288 0.50518 0.0
C1107 C 0.79671 0.90685 0.51728 0.0
C1108 C 0.77173 0.9096 0.50396 0.0
C1109 C 0.69486 0.90212 0.4757 0.0
C1110 C 0.72144 0.90645 0.48455 0.0
H1111 H 0.83354 0.85902 0.54195 0.0
H1112 H 0.79773 0.86538 0.51291 0.0
H1113 H 0.75541 0.93589 0.53187 0.0
H1114 H 0.6464 0.93392 0.44591 0.0
H1115 H 0.6857 0.94231 0.47034 0.0
C1116 C 0.38763 0.59315 0.79469 0.0
C1117 C 0.39297 0.59342 0.82113 0.0
C1118 C 0.39174 0.57094 0.78021 0.0
C1119 C 0.38164 0.51485 0.76465 0.0
H1120 H 0.44637 0.47878 0.75856 0.0
C1121 C 0.38854 0.41623 0.71579 0.0
C1122 C 0.4049 0.41639 0.69436 0.0
C1123 C 0.38973 0.43601 0.73391 0.0
C1124 C 0.42818 0.48863 0.76029 0.0
H1125 H 0.40816 0.57114 0.85281 0.0
H1126 H 0.41608 0.53247 0.82714 0.0
H1127 H 0.44383 0.51834 0.78434 0.0
H1128 H 0.43658 0.43629 0.67614 0.0
H1129 H 0.43907 0.47048 0.70827 0.0
H1130 H 0.36585 0.48522 0.74091 0.0
C1131 C 0.4084 0.5494 0.81785 0.0
C1132 C 0.42674 0.51114 0.77498 0.0
C1133 C 0.40381 0.57147 0.83248 0.0
C1134 C 0.42368 0.4357 0.69242 0.0
C1135 C 0.42517 0.45521 0.71081 0.0
C1136 C 0.38295 0.49214 0.75048 0.0
C1137 C 0.40176 0.54876 0.79176 0.0
C1138 C 0.40351 0.52458 0.77696 0.0
C1139 C 0.40764 0.456 0.73122 0.0
C1140 C 0.40625 0.47894 0.74796 0.0
H1141 H 0.37918 0.6097 0.78539 0.0
H1142 H 0.38662 0.57089 0.76006 0.0
H1143 H 0.36349 0.5248 0.76608 0.0
H1144 H 0.37382 0.40168 0.71777 0.0
H1145 H 0.3761 0.43618 0.74959 0.0
C1146 C 0.82423 0.11002 0.93063 0.0
C1147 C 0.84566 0.09442 0.93519 0.0
C1148 C 0.80202 0.10723 0.94532 0.0
C1149 C 0.77612 0.07727 0.00502 0.0
H1150 H 0.71131 0.08787 0.97018 0.0
C1151 C 0.67945 0.06091 0.05595 0.0
C1152 C 0.66477 0.08349 0.05652 0.0
C1153 C 0.69988 0.05857 0.03869 0.0
C1154 C 0.72928 0.08471 0.98008 0.0
H1155 H 0.86085 0.064 0.95908 0.0
H1156 H 0.82187 0.05853 0.98428 0.0
H1157 H 0.75125 0.09193 0.94627 0.0
H1158 H 0.65857 0.12043 0.03853 0.0
H1159 H 0.69341 0.11583 0.00757 0.0
H1160 H 0.75385 0.06976 0.03875 0.0
C1161 C 0.82231 0.07339 0.96976 0.0
C1162 C 0.75223 0.08733 0.9665 0.0
C1163 C 0.84472 0.07651 0.95531 0.0
C1164 C 0.66942 0.1027 0.0382 0.0
C1165 C 0.6894 0.1001 0.02058 0.0
C1166 C 0.75313 0.07425 0.01847 0.0
C1167 C 0.80047 0.08839 0.96463 0.0
C1168 C 0.77601 0.08418 0.9789 0.0
C1169 C 0.70549 0.07851 0.02139 0.0
C1170 C 0.72952 0.07838 0.00624 0.0
H1171 H 0.82445 0.12412 0.91534 0.0
H1172 H 0.78596 0.11972 0.94127 0.0
H1173 H 0.79395 0.07496 0.01535 0.0
H1174 H 0.67656 0.04608 0.07024 0.0
H1175 H 0.71199 0.04171 0.03962 0.0
C1176 C 0.30718 0.17365 0.41761 0.0
C1177 C 0.3092 0.14853 0.40797 0.0
C1178 C 0.29066 0.17891 0.43811 0.0
C1179 C 0.23706 0.15404 0.4768 0.0
H1180 H 0.27626 0.17716 0.53576 0.0
C1181 C 0.20235 0.13268 0.57814 0.0
C1182 C 0.20508 0.15151 0.59723 0.0
C1183 C 0.21444 0.13547 0.55448 0.0
C1184 C 0.26485 0.17115 0.51947 0.0
H1185 H 0.29424 0.10982 0.41039 0.0
H1186 H 0.26456 0.11921 0.44532 0.0
H1187 H 0.29538 0.17871 0.49301 0.0
H1188 H 0.22332 0.1876 0.607 0.0
H1189 H 0.24433 0.19279 0.56524 0.0
H1190 H 0.20662 0.14624 0.50304 0.0
C1191 C 0.27586 0.13476 0.43738 0.0
C1192 C 0.27579 0.17211 0.49497 0.0
C1193 C 0.29276 0.12938 0.41735 0.0
C1194 C 0.22114 0.17268 0.59266 0.0
C1195 C 0.23305 0.17567 0.56871 0.0
C1196 C 0.22603 0.15337 0.50119 0.0
C1197 C 0.27557 0.15924 0.44875 0.0
C1198 C 0.26224 0.16287 0.47355 0.0
C1199 C 0.22923 0.15741 0.54911 0.0
C1200 C 0.24009 0.16108 0.52295 0.0
H1201 H 0.32001 0.18861 0.41096 0.0
H1202 H 0.29067 0.19794 0.44653 0.0
H1203 H 0.22618 0.14699 0.46055 0.0
H1204 H 0.19024 0.11604 0.58126 0.0
H1205 H 0.21178 0.12057 0.54021 0.0
C1206 C 0.13143 0.05174 0.66885 0.0
C1207 C 0.15158 0.06914 0.6647 0.0
C1208 C 0.13523 0.03001 0.68418 0.0
C1209 C 0.14939 0.98163 0.7139 0.0
H1210 H 0.18778 -0.00135 0.77537 0.0
C1211 C 0.15939 0.91043 0.79828 0.0
C1212 C 0.15463 0.92094 0.8227 0.0
C1213 C 0.16294 0.92641 0.77704 0.0
C1214 C 0.17703 0.99357 0.75833 0.0
H1215 H 0.19204 0.07618 0.67096 0.0
H1216 H 0.19885 0.03795 0.69693 0.0
H1217 H 0.18617 0.02911 0.74012 0.0
H1218 H 0.15084 0.95649 0.84411 0.0
H1219 H 0.15691 0.98432 0.8071 0.0
H1220 H 0.13921 0.94658 0.73283 0.0
C1221 C 0.17992 0.04145 0.68919 0.0
C1222 C 0.17637 0.01089 0.73793 0.0
C1223 C 0.17607 0.06326 0.67417 0.0
C1224 C 0.15451 0.94776 0.82559 0.0
C1225 C 0.1581 0.96373 0.80437 0.0
C1226 C 0.15004 0.96428 0.73437 0.0
C1227 C 0.1593 0.02523 0.69537 0.0
C1228 C 0.1622 0.00534 0.71562 0.0
C1229 C 0.16191 0.95324 0.77978 0.0
C1230 C 0.16345 0.97031 0.75702 0.0
H1231 H 0.11234 0.05586 0.66186 0.0
H1232 H 0.11888 0.01798 0.68863 0.0
H1233 H 0.13849 0.97668 0.69692 0.0
H1234 H 0.15966 0.88982 0.79539 0.0
H1235 H 0.16618 0.91777 0.7584 0.0
C1236 C 0.29826 0.82338 0.07763 0.0
C1237 C 0.30336 0.84957 0.08218 0.0
C1238 C 0.28457 0.81581 0.05571 0.0
C1239 C 0.28043 0.83559 0.99087 0.0
H1240 H 0.21445 0.80247 0.98239 0.0
C1241 C 0.21646 0.85231 0.90476 0.0
C1242 C 0.19908 0.83341 0.89668 0.0
C1243 C 0.2332 0.84749 0.925 0.0
C1244 C 0.23326 0.81104 0.98436 0.0
H1245 H 0.29567 0.88833 0.06902 0.0
H1246 H 0.27201 0.87507 0.03099 0.0
H1247 H 0.23276 0.80721 0.02548 0.0
H1248 H 0.18673 0.79404 0.90205 0.0
H1249 H 0.21618 0.7855 0.93768 0.0
H1250 H 0.28095 0.84007 0.9501 0.0
C1251 C 0.27885 0.86047 0.04412 0.0
C1252 C 0.24358 0.81389 0.00903 0.0
C1253 C 0.29228 0.86802 0.06595 0.0
C1254 C 0.20021 0.80883 0.90773 0.0
C1255 C 0.2168 0.80407 0.92833 0.0
C1256 C 0.27036 0.83246 0.9663 0.0
C1257 C 0.27593 0.83436 0.03823 0.0
C1258 C 0.26675 0.82709 0.01245 0.0
C1259 C 0.23272 0.82372 0.93783 0.0
C1260 C 0.24615 0.82117 0.96283 0.0
H1261 H 0.30664 0.8087 0.0897 0.0
H1262 H 0.28239 0.79554 0.05149 0.0
H1263 H 0.29848 0.84562 0.99317 0.0
H1264 H 0.21579 0.87147 0.89667 0.0
H1265 H 0.245 0.86316 0.93191 0.0
C1266 C 0.34021 0.06321 0.32416 0.0
C1267 C 0.35728 0.05704 0.3441 0.0
C1268 C 0.33607 0.04605 0.30392 0.0
C1269 C 0.32424 -0.00109 0.26921 0.0
H1270 H 0.38732 0.98116 0.23404 0.0
C1271 C 0.3358 0.92547 0.18451 0.0
C1272 C 0.34909 0.93516 0.16309 0.0
C1273 C 0.33367 0.94008 0.20698 0.0
C1274 C 0.36958 0.98594 0.24372 0.0
H1275 H 0.38268 0.02771 0.35895 0.0
H1276 H 0.37595 0.99796 0.32309 0.0
H1277 H 0.38908 0.00529 0.27432 0.0
H1278 H 0.36984 0.96808 0.14822 0.0
H1279 H 0.36663 0.99324 0.1877 0.0
H1280 H 0.30481 0.97924 0.23856 0.0
C1281 C 0.3656 0.01598 0.32338 0.0
C1282 C 0.37059 -0.00048 0.26682 0.0
C1283 C 0.36933 0.03292 0.34393 0.0
C1284 C 0.35937 0.96011 0.16431 0.0
C1285 C 0.3577 0.97445 0.18692 0.0
C1286 C 0.32326 0.98478 0.24632 0.0
C1287 C 0.34931 0.02262 0.30297 0.0
C1288 C 0.34795 0.00638 0.27964 0.0
C1289 C 0.34524 0.96438 0.20858 0.0
C1290 C 0.34593 0.97854 0.23322 0.0
H1291 H 0.33062 0.08165 0.32382 0.0
H1292 H 0.32353 0.05167 0.28835 0.0
H1293 H 0.30653 0.00402 0.27876 0.0
H1294 H 0.32767 0.90631 0.18414 0.0
H1295 H 0.32401 0.93192 0.22349 0.0
C1296 C 0.56048 0.14889 0.09489 0.0
C1297 C 0.58282 0.16235 0.10184 0.0
C1298 C 0.53736 0.16186 0.09148 0.0
C1299 C 0.48907 0.19159 0.1047 0.0
H1300 H 0.486 0.25833 0.072 0.0
C1301 C 0.40743 0.26532 0.11984 0.0
C1302 C 0.40194 0.28206 0.09949 0.0
C1303 C 0.42676 0.24688 0.11721 0.0
C1304 C 0.48638 0.23952 0.08085 0.0
H1305 H 0.5986 0.20011 0.10969 0.0
H1306 H 0.55818 0.22277 0.10379 0.0
H1307 H 0.52604 0.23455 0.07189 0.0
H1308 H 0.41013 0.29104 0.05971 0.0
H1309 H 0.44312 0.25841 0.05484 0.0
H1310 H 0.44934 0.19668 0.11374 0.0
C1311 C 0.55861 0.20218 0.10083 0.0
C1312 C 0.50945 0.22606 0.08107 0.0
C1313 C 0.58176 0.1892 0.10427 0.0
C1314 C 0.41426 0.27853 0.0758 0.0
C1315 C 0.43328 0.25999 0.07308 0.0
C1316 C 0.46594 0.20509 0.1045 0.0
C1317 C 0.53607 0.18857 0.09488 0.0
C1318 C 0.51114 0.20209 0.09324 0.0
C1319 C 0.44063 0.24485 0.09411 0.0
C1320 C 0.4644 0.22931 0.09275 0.0
H1321 H 0.56064 0.12819 0.09273 0.0
H1322 H 0.52042 0.15091 0.08647 0.0
H1323 H 0.48985 0.17324 0.11447 0.0
H1324 H 0.39829 0.26779 0.13834 0.0
H1325 H 0.432 0.23552 0.13379 0.0
C1326 C 0.93172 0.17715 0.88515 0.0
C1327 C 0.91704 0.16871 0.86419 0.0
C1328 C 0.94986 0.19665 0.88213 0.0
C1329 C 0.97342 0.24782 0.83823 0.0
H1330 H 0.03735 0.23524 0.874 0.0
C1331 C 0.06293 0.31293 0.82559 0.0
C1332 C 0.07255 0.32219 0.84903 0.0
C1333 C 0.04534 0.29255 0.82523 0.0
C1334 C 0.01962 0.239 0.86388 0.0
H1335 H 0.90879 0.17518 0.82393 0.0
H1336 H 0.94068 0.2091 0.81855 0.0
H1337 H 0.00215 0.20482 0.8783 0.0
H1338 H 0.07257 0.31654 0.89023 0.0
H1339 H 0.04258 0.28068 0.88956 0.0
H1340 H 0.99119 0.28209 0.82379 0.0
C1341 C 0.93804 0.2008 0.83741 0.0
C1342 C -0.00067 0.2217 0.8665 0.0
C1343 C 0.91966 0.1814 0.84052 0.0
C1344 C 0.0655 0.30976 0.87188 0.0
C1345 C 0.04835 0.2892 0.87149 0.0
C1346 C 0.99385 0.26508 0.83545 0.0
C1347 C 0.95399 0.208 0.85798 0.0
C1348 C 0.97578 0.22613 0.85415 0.0
C1349 C 0.03753 0.28082 0.84827 0.0
C1350 C 0.017 0.26106 0.84863 0.0
H1351 H 0.93002 0.16788 0.90369 0.0
H1352 H 0.96122 0.20226 0.89859 0.0
H1353 H 0.95555 0.25189 0.8285 0.0
H1354 H 0.06784 0.32236 0.80772 0.0
H1355 H 0.03741 0.28633 0.80705 0.0
C1356 C 0.05364 0.66259 0.09839 0.0
C1357 C 0.06808 0.65941 0.12089 0.0
C1358 C 0.03632 0.68293 0.09627 0.0
C1359 C 0.02446 0.74698 0.12533 0.0
H1360 H 0.96327 0.74527 0.08322 0.0
C1361 C 0.94409 0.82297 0.12685 0.0
C1362 C 0.93529 0.83191 0.10303 0.0
C1363 C 0.96215 0.80331 0.12807 0.0
C1364 C 0.9805 0.74602 0.09478 0.0
H1365 H 0.07424 0.67343 0.15953 0.0
H1366 H 0.04295 0.70793 0.15648 0.0
H1367 H 0.98835 0.70614 0.08892 0.0
H1368 H 0.93884 0.82796 0.06178 0.0
H1369 H 0.97019 0.7929 0.06394 0.0
H1370 H 0.01582 0.78667 0.13197 0.0
C1371 C 0.04578 0.69559 0.13998 0.0
C1372 C 0.99488 0.72363 0.09809 0.0
C1373 C 0.06345 0.6756 0.14191 0.0
C1374 C 0.94558 0.82157 0.08037 0.0
C1375 C 0.96326 0.80142 0.08159 0.0
C1376 C 0.00983 0.76919 0.12237 0.0
C1377 C 0.03279 0.7002 0.11677 0.0
C1378 C 0.01702 0.72379 0.1135 0.0
C1379 C 0.97128 0.79186 0.10548 0.0
C1380 C 0.98774 0.76888 0.10711 0.0
H1381 H 0.05705 0.65055 0.08178 0.0
H1382 H 0.02684 0.68589 0.07803 0.0
H1383 H 0.04175 0.74812 0.13674 0.0
H1384 H 0.93634 0.83061 0.14458 0.0
H1385 H 0.96799 0.79616 0.14669 0.0
C1386 C 0.42155 0.67279 0.39202 0.0
C1387 C 0.40017 0.68377 0.37985 0.0
C1388 C 0.44363 0.68739 0.39658 0.0
C1389 C 0.49323 0.71693 0.38885 0.0
H1390 H 0.48872 0.79002 0.40208 0.0
C1391 C 0.5796 0.78574 0.37597 0.0
C1392 C 0.58059 0.80826 0.3908 0.0
C1393 C 0.55864 0.76902 0.37792 0.0
C1394 C 0.4905 0.76955 0.39883 0.0
H1395 H 0.38513 0.71882 0.36326 0.0
H1396 H 0.42368 0.74401 0.37049 0.0
H1397 H 0.44993 0.76447 0.4006 0.0
H1398 H 0.5614 0.82999 0.4206 0.0
H1399 H 0.52558 0.80037 0.42493 0.0
H1400 H 0.53391 0.72194 0.38785 0.0
C1401 C 0.42332 0.72431 0.37715 0.0
C1402 C 0.46808 0.75491 0.39753 0.0
C1403 C 0.40117 0.70981 0.37286 0.0
C1404 C 0.56102 0.81292 0.4087 0.0
C1405 C 0.54033 0.79602 0.41098 0.0
C1406 C 0.51571 0.73154 0.39046 0.0
C1407 C 0.44498 0.71326 0.38884 0.0
C1408 C 0.46906 0.72847 0.39211 0.0
C1409 C 0.53839 0.77426 0.39504 0.0
C1410 C 0.51466 0.75815 0.39513 0.0
H1411 H 0.42136 0.6528 0.39777 0.0
H1412 H 0.45967 0.67831 0.40608 0.0
H1413 H 0.49484 0.69668 0.38437 0.0
H1414 H 0.59432 0.78174 0.36187 0.0
H1415 H 0.55781 0.75265 0.36512 0.0
C1416 C 0.05533 0.67259 0.58767 0.0
C1417 C 0.07661 0.67893 0.60297 0.0
C1418 C 0.03501 0.68982 0.58492 0.0
C1419 C 0.00207 0.73881 0.62095 0.0
H1420 H 0.96983 0.75791 0.55665 0.0
C1421 C 0.92534 0.8185 0.58737 0.0
C1422 C 0.90509 0.81348 0.60447 0.0
C1423 C 0.94521 0.8008 0.58431 0.0
C1424 C 0.97865 0.75262 0.5747 0.0
H1425 H 0.09371 0.70865 0.62663 0.0
H1426 H 0.05788 0.73856 0.62221 0.0
H1427 H 0.00825 0.7307 0.55629 0.0
H1428 H 0.88926 0.78557 0.63099 0.0
H1429 H 0.92433 0.75485 0.62599 0.0
H1430 H 0.97239 0.76032 0.63943 0.0
C1431 C 0.05708 0.72029 0.61227 0.0
C1432 C 0.00053 0.73711 0.5745 0.0
C1433 C 0.07762 0.70325 0.61465 0.0
C1434 C 0.90455 0.78994 0.61763 0.0
C1435 C 0.92467 0.77244 0.6149 0.0
C1436 C 0.97998 0.75387 0.62118 0.0
C1437 C 0.03541 0.71351 0.59778 0.0
C1438 C 0.01252 0.73025 0.59764 0.0
C1439 C 0.94541 0.77797 0.59861 0.0
C1440 C 0.96812 0.76099 0.59808 0.0
H1441 H 0.05406 0.65401 0.57837 0.0
H1442 H 0.01847 0.68412 0.57371 0.0
H1443 H 0.0108 0.73354 0.63905 0.0
H1444 H 0.92622 0.83645 0.5769 0.0
H1445 H 0.96103 0.80553 0.5717 0.0
C1446 C 0.08381 0.31633 0.37004 0.0
C1447 C 0.07038 0.33887 0.37635 0.0
C1448 C 0.07097 0.29287 0.36767 0.0
C1449 C 0.04202 0.24385 0.38065 0.0
H1450 H 0.97394 0.24078 0.35124 0.0
C1451 C 0.9727 0.1574 0.39387 0.0
C1452 C 0.95511 0.15242 0.37411 0.0
C1453 C 0.98957 0.1783 0.39202 0.0
C1454 C 0.9931 0.24113 0.35919 0.0
H1455 H 0.03279 0.35449 0.38463 0.0
H1456 H 0.01041 0.31357 0.38082 0.0
H1457 H -0.00278 0.28116 0.3511 0.0
H1458 H 0.94282 0.16375 0.33606 0.0
H1459 H 0.97279 0.19936 0.33235 0.0
H1460 H 0.03794 0.20361 0.38838 0.0
C1461 C 0.03086 0.31404 0.37734 0.0
C1462 C 0.00631 0.26445 0.35945 0.0
C1463 C 0.0437 0.33753 0.3796 0.0
C1464 C 0.95601 0.16737 0.35172 0.0
C1465 C 0.97302 0.18793 0.34971 0.0
C1466 C 0.02881 0.22043 0.38029 0.0
C1467 C 0.04438 0.29136 0.37163 0.0
C1468 C 0.03084 0.2662 0.37037 0.0
C1469 C 0.98926 0.19436 0.37025 0.0
C1470 C 0.00412 0.2188 0.36967 0.0
H1471 H 0.10438 0.31668 0.3673 0.0
H1472 H 0.08191 0.27589 0.3628 0.0
H1473 H 0.06078 0.24455 0.38948 0.0
H1474 H 0.97226 0.14626 0.41142 0.0
H1475 H 0.00176 0.18272 0.40825 0.0
C1476 C 0.42777 0.67719 0.93823 0.0
C1477 C 0.42992 0.66585 0.91383 0.0
C1478 C 0.44492 0.69644 0.94579 0.0
C1479 C 0.46693 0.75134 0.936 0.0
H1480 H 0.54115 0.74948 0.93307 0.0
C1481 C 0.53479 0.82963 0.89716 0.0
C1482 C 0.55636 0.83596 0.91194 0.0
C1483 C 0.5176 0.81087 0.90564 0.0
C1484 C 0.52045 0.75022 0.93443 0.0
H1485 H 0.45263 0.66409 0.87912 0.0
H1486 H 0.48344 0.69677 0.89292 0.0
H1487 H 0.51678 0.70916 0.93294 0.0
H1488 H 0.5764 0.8286 0.94759 0.0
H1489 H 0.54673 0.79498 0.96198 0.0
H1490 H 0.47053 0.79243 0.93512 0.0
C1491 C 0.46832 0.69105 0.90599 0.0
C1492 C 0.50658 0.72722 0.93428 0.0
C1493 C 0.45077 0.67237 0.89812 0.0
C1494 C 0.55964 0.82438 0.93607 0.0
C1495 C 0.54284 0.80505 0.94421 0.0
C1496 C 0.48078 0.77434 0.9355 0.0
C1497 C 0.46487 0.704 0.92938 0.0
C1498 C 0.47971 0.72764 0.93451 0.0
C1499 C 0.52215 0.79766 0.92867 0.0
C1500 C 0.50761 0.77393 0.93417 0.0
H1501 H 0.41157 0.67281 0.95049 0.0
H1502 H 0.44187 0.7063 0.96385 0.0
H1503 H 0.44619 0.75209 0.93586 0.0
H1504 H 0.53205 0.8381 0.87837 0.0
H1505 H 0.50188 0.80529 0.89325 0.0
C1506 C 0.58049 0.93104 0.83003 0.0
C1507 C 0.58955 0.90858 0.81813 0.0
C1508 C 0.57382 0.95252 0.81534 0.0
C1509 C 0.56152 0.97342 0.74772 0.0
H1510 H 0.58067 0.04038 0.7741 0.0
C1511 C 0.58951 0.07933 0.70559 0.0
C1512 C 0.57297 0.07972 0.68437 0.0
C1513 C 0.58688 0.06045 0.7245 0.0
C1514 C 0.57533 0.02184 0.76632 0.0
H1515 H 0.59841 0.89094 0.78148 0.0
H1516 H 0.58775 0.92841 0.75605 0.0
H1517 H 0.58554 0.00268 0.80111 0.0
H1518 H 0.53938 0.06218 0.66735 0.0
H1519 H 0.53379 0.03022 0.70099 0.0
H1520 H 0.55317 0.99211 0.71234 0.0
C1521 C 0.58499 0.9294 0.77662 0.0
C1522 C 0.57774 0.00017 0.78202 0.0
C1523 C 0.59129 0.90786 0.79125 0.0
C1524 C 0.55259 0.06213 0.68338 0.0
C1525 C 0.54958 0.04363 0.70257 0.0
C1526 C 0.55952 0.99497 0.7319 0.0
C1527 C 0.57637 0.95214 0.78844 0.0
C1528 C 0.57134 0.97558 0.77275 0.0
C1529 C 0.5673 0.04184 0.72287 0.0
C1530 C 0.56681 0.01946 0.7408 0.0
H1531 H 0.57879 0.93213 0.85072 0.0
H1532 H 0.56683 0.96947 0.82514 0.0
H1533 H 0.55582 0.95495 0.74003 0.0
H1534 H 0.60553 0.09254 0.70674 0.0
H1535 H 0.60111 0.05967 0.73958 0.0
C1536 C 0.17501 0.3666 0.90659 0.0
C1537 C 0.15347 0.37759 0.91852 0.0
C1538 C 0.19764 0.36276 0.92029 0.0
C1539 C 0.24726 0.37295 0.94885 0.0
H1540 H 0.24584 0.34796 0.01887 0.0
C1541 C 0.33421 0.3768 0.01848 0.0
C1542 C 0.33654 0.35657 0.03613 0.0
C1543 C 0.3132 0.37774 0.00178 0.0
C1544 C 0.24662 0.3547 -0.00078 0.0
H1545 H 0.13865 0.3926 0.9544 0.0
H1546 H 0.17827 0.38596 0.97836 0.0
H1547 H 0.20592 0.35228 0.9952 0.0
H1548 H 0.32014 0.32038 0.04866 0.0
H1549 H 0.28407 0.32168 0.01922 0.0
H1550 H 0.28807 0.37509 0.95288 0.0
C1551 C 0.17755 0.38016 0.9584 0.0
C1552 C 0.22369 0.35749 0.98578 0.0
C1553 C 0.15485 0.38401 0.94468 0.0
C1554 C 0.31865 0.3364 0.03548 0.0
C1555 C 0.29787 0.33723 0.01876 0.0
C1556 C 0.27025 0.37017 0.96233 0.0
C1557 C 0.19929 0.3698 0.94625 0.0
C1558 C 0.22372 0.36666 0.96046 0.0
C1559 C 0.29435 0.35837 0.00242 0.0
C1560 C 0.27018 0.36096 0.98765 0.0
H1561 H 0.17459 0.3613 0.88649 0.0
H1562 H 0.21388 0.3543 0.91051 0.0
H1563 H 0.2479 0.38036 0.92944 0.0
H1564 H 0.34767 0.39266 0.01868 0.0
H1565 H 0.31101 0.39431 0.98943 0.0
C1566 C 0.90679 0.06974 0.30305 0.0
C1567 C 0.88589 0.08646 0.30597 0.0
C1568 C 0.90722 0.05177 0.28324 0.0
C1569 C 0.90769 0.01995 0.23466 0.0
H1570 H 0.84437 0.98152 0.22778 0.0
C1571 C 0.89454 0.93628 0.1627 0.0
C1572 C 0.8802 0.91493 0.17095 0.0
C1573 C 0.89646 0.9582 0.17802 0.0
C1574 C 0.86223 0.99197 0.22963 0.0
H1575 H 0.84977 0.0986 0.28947 0.0
H1576 H 0.85057 0.06709 0.25455 0.0
H1577 H 0.8454 0.01996 0.25449 0.0
H1578 H 0.85759 0.89943 0.20227 0.0
H1579 H 0.86133 0.93761 0.22923 0.0
H1580 H 0.92472 0.99144 0.21048 0.0
C1581 C 0.86648 0.06778 0.26786 0.0
C1582 C 0.86271 0.01424 0.24457 0.0
C1583 C 0.86613 0.08595 0.28769 0.0
C1584 C 0.86876 0.91555 0.19535 0.0
C1585 C 0.87066 0.93752 0.21067 0.0
C1586 C 0.9072 0.99768 0.21969 0.0
C1587 C 0.88671 0.05004 0.2659 0.0
C1588 C 0.88554 0.02827 0.24754 0.0
C1589 C 0.88409 0.95927 0.20192 0.0
C1590 C 0.88455 0.98325 0.21732 0.0
H1591 H 0.92239 0.06977 0.31676 0.0
H1592 H 0.92298 0.03829 0.28242 0.0
H1593 H 0.92552 0.03046 0.23646 0.0
H1594 H 0.90358 0.93648 0.14399 0.0
H1595 H 0.90683 0.97467 0.17068 0.0
C1596 C 0.1489 0.5677 0.54195 0.0
C1597 C 0.14106 0.59268 0.54847 0.0
C1598 C 0.16748 0.56394 0.52287 0.0
C1599 C 0.20322 0.59725 0.47071 0.0
H1600 H 0.26195 0.55882 0.4953 0.0
C1601 C 0.30323 0.62238 0.43758 0.0
C1602 C 0.31745 0.60263 0.42597 0.0
C1603 C 0.28151 0.6167 0.45203 0.0
C1604 C 0.24557 0.56929 0.48804 0.0
H1605 H 0.1448 0.633 0.53905 0.0
H1606 H 0.17655 0.62654 0.50562 0.0
H1607 H 0.22104 0.55597 0.51825 0.0
H1608 H 0.32138 0.5613 0.42246 0.0
H1609 H 0.28345 0.55136 0.44852 0.0
H1610 H 0.22808 0.61169 0.44142 0.0
C1611 C 0.16862 0.60979 0.51506 0.0
C1612 C 0.22211 0.56755 0.50102 0.0
C1613 C 0.15044 0.61355 0.53427 0.0
C1614 C 0.31091 0.57693 0.43128 0.0
C1615 C 0.2891 0.57122 0.44598 0.0
C1616 C 0.22663 0.59916 0.45795 0.0
C1617 C 0.17812 0.58508 0.50981 0.0
C1618 C 0.20096 0.58228 0.49301 0.0
C1619 C 0.27359 0.59115 0.45539 0.0
C1620 C 0.24823 0.58593 0.46703 0.0
H1621 H 0.14217 0.55133 0.55287 0.0
H1622 H 0.17431 0.54466 0.5191 0.0
H1623 H 0.18717 0.60842 0.46376 0.0
H1624 H 0.30787 0.64236 0.43404 0.0
H1625 H 0.27018 0.63239 0.45963 0.0
C1626 C 0.684 0.69393 0.0799 0.0
C1627 C 0.68259 0.66864 0.08923 0.0
C1628 C 0.70213 0.70046 0.06114 0.0
C1629 C 0.7597 0.67616 0.02637 0.0
H1630 H 0.72705 0.70505 0.96601 0.0
C1631 C 0.7833 0.64737 0.92413 0.0
C1632 C 0.80133 0.66416 0.91318 0.0
C1633 C 0.76858 0.65514 0.94506 0.0
C1634 C 0.73652 0.69747 0.98288 0.0
H1635 H 0.70033 0.63108 0.08817 0.0
H1636 H 0.73199 0.6424 0.05599 0.0
H1637 H 0.70472 0.70601 0.00741 0.0
H1638 H 0.81678 0.70284 0.91436 0.0
H1639 H 0.79076 0.71642 0.95127 0.0
H1640 H 0.79039 0.66554 0.00126 0.0
C1641 C 0.71923 0.65728 0.06289 0.0
C1642 C 0.72388 0.69811 0.00659 0.0
C1643 C 0.70102 0.65072 0.08131 0.0
C1644 C 0.80276 0.68963 0.92217 0.0
C1645 C 0.78807 0.69736 0.94334 0.0
C1646 C 0.77213 0.6753 0.00269 0.0
C1647 C 0.71931 0.68189 0.05176 0.0
C1648 C 0.73497 0.68662 0.0284 0.0
C1649 C 0.77161 0.6798 0.95541 0.0
C1650 C 0.76037 0.68537 0.98072 0.0
H1651 H 0.66987 0.70807 0.08553 0.0
H1652 H 0.7019 0.71964 0.05311 0.0
H1653 H 0.76886 0.66739 0.04282 0.0
H1654 H 0.78188 0.62763 0.91767 0.0
H1655 H 0.75599 0.64134 0.95422 0.0
C1656 C 0.66046 0.4349 0.30484 0.0
C1657 C 0.64776 0.43816 0.32841 0.0
C1658 C 0.66357 0.45548 0.288 0.0
C1659 C 0.63439 0.51805 0.27226 0.0
H1660 H 0.69072 0.5211 0.22377 0.0
C1661 C 0.63868 0.59332 0.19092 0.0
C1662 C 0.64177 0.58248 0.16638 0.0
C1663 C 0.64319 0.57867 0.21294 0.0
C1664 C 0.67492 0.52051 0.23725 0.0
H1665 H 0.62958 0.46604 0.35337 0.0
H1666 H 0.63562 0.5023 0.32421 0.0
H1667 H 0.6924 0.49079 0.25945 0.0
H1668 H 0.65316 0.54817 0.14571 0.0
H1669 H 0.66144 0.52275 0.1842 0.0
H1670 H 0.61696 0.54776 0.24988 0.0
C1671 C 0.64261 0.48358 0.31847 0.0
C1672 C 0.67579 0.50309 0.25764 0.0
C1673 C 0.63929 0.46284 0.33528 0.0
C1674 C 0.65054 0.55705 0.16433 0.0
C1675 C 0.65542 0.54254 0.18636 0.0
C1676 C 0.63371 0.53571 0.25207 0.0
C1677 C 0.6543 0.48003 0.29435 0.0
C1678 C 0.65519 0.5011 0.27499 0.0
C1679 C 0.65128 0.55304 0.21087 0.0
C1680 C 0.65366 0.53664 0.234 0.0
H1681 H 0.66721 0.41616 0.29884 0.0
H1682 H 0.67227 0.45178 0.26951 0.0
H1683 H 0.61801 0.51691 0.28495 0.0
H1684 H 0.6319 0.61285 0.19316 0.0
H1685 H 0.64 0.58727 0.23162 0.0
C1686 C 0.76312 0.37319 0.58773 0.0
C1687 C 0.77292 0.35212 0.60122 0.0
C1688 C 0.75007 0.36953 0.56472 0.0
C1689 C 0.75186 0.32636 0.51024 0.0
H1690 H 0.69743 0.37053 0.48571 0.0
C1691 C 0.70827 0.3295 0.40622 0.0
C1692 C 0.70217 0.35432 0.3976 0.0
C1693 C 0.71856 0.32598 0.43082 0.0
C1694 C 0.71276 0.35816 0.49227 0.0
H1695 H 0.77567 0.31064 0.60231 0.0
H1696 H 0.75271 0.30412 0.5617 0.0
H1697 H 0.70679 0.36878 0.53145 0.0
H1698 H 0.70477 0.39491 0.40622 0.0
H1699 H 0.72344 0.38887 0.44863 0.0
H1700 H 0.75799 0.31615 0.47073 0.0
C1701 C 0.75506 0.32346 0.56904 0.0
C1702 C 0.71797 0.35702 0.51846 0.0
C1703 C 0.76782 0.32714 0.5924 0.0
C1704 C 0.70932 0.3756 0.41249 0.0
C1705 C 0.71965 0.37212 0.43686 0.0
C1706 C 0.74653 0.3274 0.48391 0.0
C1707 C 0.74693 0.34471 0.55454 0.0
C1708 C 0.73809 0.34176 0.52766 0.0
C1709 C 0.72285 0.34728 0.44685 0.0
C1710 C 0.72749 0.34401 0.47467 0.0
H1711 H 0.76717 0.39262 0.59406 0.0
H1712 H 0.74427 0.38633 0.55393 0.0
H1713 H 0.76766 0.31459 0.51676 0.0
H1714 H 0.70258 0.31277 0.39521 0.0
H1715 H 0.72102 0.30664 0.43805 0.0
C1716 C 0.82356 0.58556 0.81281 0.0
C1717 C 0.83339 0.57337 0.83479 0.0
C1718 C 0.81885 0.57146 0.79041 0.0
C1719 C 0.79998 0.52845 0.75155 0.0
H1720 H 0.86144 0.49462 0.72683 0.0
C1721 C 0.80459 0.44223 0.6812 0.0
C1722 C 0.82436 0.44223 0.66287 0.0
C1723 C 0.80222 0.4625 0.69863 0.0
C1724 C 0.8442 0.50423 0.7333 0.0
H1725 H 0.84502 0.53674 0.85084 0.0
H1726 H 0.83739 0.51238 0.81154 0.0
H1727 H 0.86322 0.52052 0.76588 0.0
H1728 H 0.85596 0.46431 0.64718 0.0
H1729 H 0.85207 0.4995 0.67801 0.0
H1730 H 0.78073 0.5111 0.71944 0.0
C1731 C 0.83315 0.53275 0.81179 0.0
C1732 C 0.84519 0.5188 0.75573 0.0
C1733 C 0.83739 0.54669 0.83428 0.0
C1734 C 0.84053 0.46375 0.66108 0.0
C1735 C 0.8384 0.48383 0.67877 0.0
C1736 C 0.79886 0.51338 0.72929 0.0
C1737 C 0.82436 0.54511 0.78957 0.0
C1738 C 0.82307 0.5308 0.76516 0.0
C1739 C 0.81979 0.48292 0.69823 0.0
C1740 C 0.82098 0.50104 0.72009 0.0
H1741 H 0.82023 0.60609 0.81267 0.0
H1742 H 0.8121 0.58134 0.77342 0.0
H1743 H 0.78272 0.5376 0.75857 0.0
H1744 H 0.79175 0.42595 0.68294 0.0
H1745 H 0.78779 0.46129 0.71353 0.0
C1746 C 0.51595 0.15025 0.56871 0.0
C1747 C 0.51971 0.14158 0.59395 0.0
C1748 C 0.50249 0.17306 0.56418 0.0
C1749 C 0.46287 0.22349 0.59546 0.0
H1750 H 0.50878 0.27145 0.56156 0.0
C1751 C 0.46549 0.3271 0.6256 0.0
C1752 C 0.45836 0.34478 0.60659 0.0
C1753 C 0.47305 0.30236 0.61883 0.0
C1754 C 0.49561 0.25821 0.5707 0.0
H1755 H 0.51045 0.14814 0.63387 0.0
H1756 H 0.4863 0.18724 0.62605 0.0
H1757 H 0.51621 0.22513 0.55763 0.0
H1758 H 0.45649 0.35152 0.56556 0.0
H1759 H 0.47057 0.30817 0.55372 0.0
H1760 H 0.4432 0.25658 0.60973 0.0
C1761 C 0.49374 0.17679 0.6097 0.0
C1762 C 0.49967 0.23173 0.56831 0.0
C1763 C 0.50753 0.15435 0.61423 0.0
C1764 C 0.46219 0.33837 0.58062 0.0
C1765 C 0.46988 0.31349 0.57382 0.0
C1766 C 0.45894 0.24985 0.59795 0.0
C1767 C 0.49228 0.18713 0.58482 0.0
C1768 C 0.48396 0.21417 0.58159 0.0
C1769 C 0.47383 0.29495 0.59294 0.0
C1770 C 0.47593 0.26739 0.58652 0.0
H1771 H 0.52555 0.14091 0.5528 0.0
H1772 H 0.50149 0.18053 0.54481 0.0
H1773 H 0.45025 0.21041 0.60556 0.0
H1774 H 0.46269 0.33153 0.64573 0.0
H1775 H 0.47657 0.28845 0.63388 0.0
loop_
_geom_bond_atom_site_label_1
_geom_bond_atom_site_label_2
_geom_bond_distance
_geom_bond_site_symmetry_2
_ccdc_geom_bond_type
C0 O2 1.247 . S
C0 O4 1.258 . S
C1 O8 1.247 . S
C1 O9 1.258 . S
O2 C0 1.247 . S
O2 Zn3 2.028 . S
Zn3 O2 2.028 . S
Zn3 O7 2.035 . S
Zn3 O9 2.035 . S
Zn3 O10 2.028 . S
O4 C0 1.258 . S
O4 Zn5 2.035 . S
Zn5 O4 2.035 . S
Zn5 O6 2.028 . S
Zn5 O8 2.028 . S
Zn5 O11 2.035 . S
O6 Zn5 2.028 . S
O6 C12 1.247 . S
O7 Zn3 2.035 . S
O7 C12 1.258 . S
O8 C1 1.247 . S
O8 Zn5 2.028 . S
O9 C1 1.258 . S
O9 Zn3 2.035 . S
O10 Zn3 2.028 . S
O10 C13 1.247 . S
O11 Zn5 2.035 . S
O11 C13 1.258 . S
C12 O6 1.247 . S
C12 O7 1.258 . S
C13 O10 1.247 . S
C13 O11 1.258 . S
C14 O16 1.247 . S
C14 O18 1.258 . S
C15 O22 1.247 . S
C15 O23 1.258 . S
O16 C14 1.247 . S
O16 Zn17 2.028 . S
Zn17 O16 2.028 . S
Zn17 O21 2.035 . S
Zn17 O23 2.035 . S
Zn17 O24 2.028 . S
O18 C14 1.258 . S
O18 Zn19 2.035 . S
Zn19 O18 2.035 . S
Zn19 O20 2.028 . S
Zn19 O22 2.028 . S
Zn19 O25 2.035 . S
O20 Zn19 2.028 . S
O20 C26 1.247 . S
O21 Zn17 2.035 . S
O21 C26 1.258 . S
O22 C15 1.247 . S
O22 Zn19 2.028 . S
O23 C15 1.258 . S
O23 Zn17 2.035 . S
O24 Zn17 2.028 . S
O24 C27 1.247 . S
O25 Zn19 2.035 . S
O25 C27 1.258 . S
C26 O20 1.247 . S
C26 O21 1.258 . S
C27 O24 1.247 . S
C27 O25 1.258 . S
C28 O30 1.247 . S
C28 O32 1.258 . S
C29 O36 1.247 . S
C29 O37 1.258 . S
O30 C28 1.247 . S
O30 Zn31 2.028 . S
Zn31 O30 2.028 . S
Zn31 O35 2.035 . S
Zn31 O37 2.035 . S
Zn31 O38 2.028 . S
O32 C28 1.258 . S
O32 Zn33 2.035 . S
Zn33 O32 2.035 . S
Zn33 O34 2.028 . S
Zn33 O36 2.028 . S
Zn33 O39 2.035 . S
O34 Zn33 2.028 . S
O34 C40 1.247 . S
O35 Zn31 2.035 . S
O35 C40 1.258 . S
O36 C29 1.247 . S
O36 Zn33 2.028 . S
O37 C29 1.258 . S
O37 Zn31 2.035 . S
O38 Zn31 2.028 . S
O38 C41 1.247 . S
O39 Zn33 2.035 . S
O39 C41 1.258 . S
C40 O34 1.247 . S
C40 O35 1.258 . S
C41 O38 1.247 . S
C41 O39 1.258 . S
C42 O44 1.247 . S
C42 O46 1.258 . S
C43 O50 1.247 . S
C43 O51 1.258 . S
O44 C42 1.247 . S
O44 Zn45 2.028 . S
Zn45 O44 2.028 . S
Zn45 O49 2.035 . S
Zn45 O51 2.035 . S
Zn45 O52 2.028 . S
O46 C42 1.258 . S
O46 Zn47 2.035 . S
Zn47 O46 2.035 . S
Zn47 O48 2.028 . S
Zn47 O50 2.028 . S
Zn47 O53 2.035 . S
O48 Zn47 2.028 . S
O48 C54 1.247 . S
O49 Zn45 2.035 . S
O49 C54 1.258 . S
O50 C43 1.247 . S
O50 Zn47 2.028 . S
O51 C43 1.258 . S
O51 Zn45 2.035 . S
O52 Zn45 2.028 . S
O52 C55 1.247 . S
O53 Zn47 2.035 . S
O53 C55 1.258 . S
C54 O48 1.247 . S
C54 O49 1.258 . S
C55 O52 1.247 . S
C55 O53 1.258 . S
C56 O58 1.247 . S
C56 O60 1.258 . S
C57 O64 1.247 . S
C57 O65 1.258 . S
O58 C56 1.247 . S
O58 Zn59 2.028 . S
Zn59 O58 2.028 . S
Zn59 O63 2.035 . S
Zn59 O65 2.035 . S
Zn59 O66 2.028 . S
O60 C56 1.258 . S
O60 Zn61 2.035 . S
Zn61 O60 2.035 . S
Zn61 O62 2.028 . S
Zn61 O64 2.028 . S
Zn61 O67 2.035 . S
O62 Zn61 2.028 . S
O62 C68 1.247 . S
O63 Zn59 2.035 . S
O63 C68 1.258 . S
O64 C57 1.247 . S
O64 Zn61 2.028 . S
O65 C57 1.258 . S
O65 Zn59 2.035 . S
O66 Zn59 2.028 . S
O66 C69 1.247 . S
O67 Zn61 2.035 . S
O67 C69 1.258 . S
C68 O62 1.247 . S
C68 O63 1.258 . S
C69 O66 1.247 . S
C69 O67 1.258 . S
C70 O72 1.247 . S
C70 O74 1.258 . S
C71 O78 1.247 . S
C71 O79 1.258 . S
O72 C70 1.247 . S
O72 Zn73 2.028 . S
Zn73 O72 2.028 . S
Zn73 O77 2.035 . S
Zn73 O79 2.035 . S
Zn73 O80 2.028 . S
O74 C70 1.258 . S
O74 Zn75 2.035 . S
Zn75 O74 2.035 . S
Zn75 O76 2.028 . S
Zn75 O78 2.028 . S
Zn75 O81 2.035 . S
O76 Zn75 2.028 . S
O76 C82 1.247 . S
O77 Zn73 2.035 . S
O77 C82 1.258 . S
O78 C71 1.247 . S
O78 Zn75 2.028 . S
O79 C71 1.258 . S
O79 Zn73 2.035 . S
O80 Zn73 2.028 . S
O80 C83 1.247 . S
O81 Zn75 2.035 . S
O81 C83 1.258 . S
C82 O76 1.247 . S
C82 O77 1.258 . S
C83 O80 1.247 . S
C83 O81 1.258 . S
C84 O86 1.247 . S
C84 O88 1.258 . S
C85 O92 1.247 . S
C85 O93 1.258 . S
O86 C84 1.247 . S
O86 Zn87 2.028 . S
Zn87 O86 2.028 . S
Zn87 O91 2.035 . S
Zn87 O93 2.035 . S
Zn87 O94 2.028 . S
O88 C84 1.258 . S
O88 Zn89 2.035 . S
Zn89 O88 2.035 . S
Zn89 O90 2.028 . S
Zn89 O92 2.028 . S
Zn89 O95 2.035 . S
O90 Zn89 2.028 . S
O90 C96 1.247 . S
O91 Zn87 2.035 . S
O91 C96 1.258 . S
O92 C85 1.247 . S
O92 Zn89 2.028 . S
O93 C85 1.258 . S
O93 Zn87 2.035 . S
O94 Zn87 2.028 . S
O94 C97 1.247 . S
O95 Zn89 2.035 . S
O95 C97 1.258 . S
C96 O90 1.247 . S
C96 O91 1.258 . S
C97 O94 1.247 . S
C97 O95 1.258 . S
C98 O100 1.247 . S
C98 O102 1.258 . S
C99 O106 1.247 . S
C99 O107 1.258 . S
O100 C98 1.247 . S
O100 Zn101 2.028 . S
Zn101 O100 2.028 . S
Zn101 O105 2.035 . S
Zn101 O107 2.035 . S
Zn101 O108 2.028 . S
O102 C98 1.258 . S
O102 Zn103 2.035 . S
Zn103 O102 2.035 . S
Zn103 O104 2.028 . S
Zn103 O106 2.028 . S
Zn103 O109 2.035 . S
O104 Zn103 2.028 . S
O104 C110 1.247 . S
O105 Zn101 2.035 . S
O105 C110 1.258 . S
O106 C99 1.247 . S
O106 Zn103 2.028 . S
O107 C99 1.258 . S
O107 Zn101 2.035 . S
O108 Zn101 2.028 . S
O108 C111 1.247 . S
O109 Zn103 2.035 . S
O109 C111 1.258 . S
C110 O104 1.247 . S
C110 O105 1.258 . S
C111 O108 1.247 . S
C111 O109 1.258 . S
C112 O114 1.247 . S
C112 O116 1.258 . S
C113 O120 1.247 . S
C113 O121 1.258 . S
O114 C112 1.247 . S
O114 Zn115 2.028 . S
Zn115 O114 2.028 . S
Zn115 O119 2.035 . S
Zn115 O121 2.035 . S
Zn115 O122 2.028 . S
O116 C112 1.258 . S
O116 Zn117 2.035 . S
Zn117 O116 2.035 . S
Zn117 O118 2.028 . S
Zn117 O120 2.028 . S
Zn117 O123 2.035 . S
O118 Zn117 2.028 . S
O118 C124 1.247 . S
O119 Zn115 2.035 . S
O119 C124 1.258 . S
O120 C113 1.247 . S
O120 Zn117 2.028 . S
O121 C113 1.258 . S
O121 Zn115 2.035 . S
O122 Zn115 2.028 . S
O122 C125 1.247 . S
O123 Zn117 2.035 . S
O123 C125 1.258 . S
C124 O118 1.247 . S
C124 O119 1.258 . S
C125 O122 1.247 . S
C125 O123 1.258 . S
C126 O128 1.247 . S
C126 O130 1.258 . S
C127 O134 1.247 . S
C127 O135 1.258 . S
O128 C126 1.247 . S
O128 Zn129 2.028 . S
Zn129 O128 2.028 . S
Zn129 O133 2.035 . S
Zn129 O135 2.035 . S
Zn129 O136 2.028 . S
O130 C126 1.258 . S
O130 Zn131 2.035 . S
Zn131 O130 2.035 . S
Zn131 O132 2.028 . S
Zn131 O134 2.028 . S
Zn131 O137 2.035 . S
O132 Zn131 2.028 . S
O132 C138 1.247 . S
O133 Zn129 2.035 . S
O133 C138 1.258 . S
O134 C127 1.247 . S
O134 Zn131 2.028 . S
O135 C127 1.258 . S
O135 Zn129 2.035 . S
O136 Zn129 2.028 . S
O136 C139 1.247 . S
O137 Zn131 2.035 . S
O137 C139 1.258 . S
C138 O132 1.247 . S
C138 O133 1.258 . S
C139 O136 1.247 . S
C139 O137 1.258 . S
C140 O142 1.247 . S
C140 O144 1.258 . S
C141 O148 1.247 . S
C141 O149 1.258 . S
O142 C140 1.247 . S
O142 Zn143 2.028 . S
Zn143 O142 2.028 . S
Zn143 O147 2.035 . S
Zn143 O149 2.035 . S
Zn143 O150 2.028 . S
O144 C140 1.258 . S
O144 Zn145 2.035 . S
Zn145 O144 2.035 . S
Zn145 O146 2.028 . S
Zn145 O148 2.028 . S
Zn145 O151 2.035 . S
O146 Zn145 2.028 . S
O146 C152 1.247 . S
O147 Zn143 2.035 . S
O147 C152 1.258 . S
O148 C141 1.247 . S
O148 Zn145 2.028 . S
O149 C141 1.258 . S
O149 Zn143 2.035 . S
O150 Zn143 2.028 . S
O150 C153 1.247 . S
O151 Zn145 2.035 . S
O151 C153 1.258 . S
C152 O146 1.247 . S
C152 O147 1.258 . S
C153 O150 1.247 . S
C153 O151 1.258 . S
C154 O156 1.247 . S
C154 O158 1.258 . S
C155 O162 1.247 . S
C155 O163 1.258 . S
O156 C154 1.247 . S
O156 Zn157 2.028 . S
Zn157 O156 2.028 . S
Zn157 O161 2.035 . S
Zn157 O163 2.035 . S
Zn157 O164 2.028 . S
O158 C154 1.258 . S
O158 Zn159 2.035 . S
Zn159 O158 2.035 . S
Zn159 O160 2.028 . S
Zn159 O162 2.028 . S
Zn159 O165 2.035 . S
O160 Zn159 2.028 . S
O160 C166 1.247 . S
O161 Zn157 2.035 . S
O161 C166 1.258 . S
O162 C155 1.247 . S
O162 Zn159 2.028 . S
O163 C155 1.258 . S
O163 Zn157 2.035 . S
O164 Zn157 2.028 . S
O164 C167 1.247 . S
O165 Zn159 2.035 . S
O165 C167 1.258 . S
C166 O160 1.247 . S
C166 O161 1.258 . S
C167 O164 1.247 . S
C167 O165 1.258 . S
C168 O170 1.247 . S
C168 O172 1.258 . S
C169 O176 1.247 . S
C169 O177 1.258 . S
O170 C168 1.247 . S
O170 Zn171 2.028 . S
Zn171 O170 2.028 . S
Zn171 O175 2.035 . S
Zn171 O177 2.035 . S
Zn171 O178 2.028 . S
O172 C168 1.258 . S
O172 Zn173 2.035 . S
Zn173 O172 2.035 . S
Zn173 O174 2.028 . S
Zn173 O176 2.028 . S
Zn173 O179 2.035 . S
O174 Zn173 2.028 . S
O174 C180 1.247 . S
O175 Zn171 2.035 . S
O175 C180 1.258 . S
O176 C169 1.247 . S
O176 Zn173 2.028 . S
O177 C169 1.258 . S
O177 Zn171 2.035 . S
O178 Zn171 2.028 . S
O178 C181 1.247 . S
O179 Zn173 2.035 . S
O179 C181 1.258 . S
C180 O174 1.247 . S
C180 O175 1.258 . S
C181 O178 1.247 . S
C181 O179 1.258 . S
C182 O184 1.247 . S
C182 O186 1.258 . S
C183 O190 1.247 . S
C183 O191 1.258 . S
O184 C182 1.247 . S
O184 Zn185 2.028 . S
Zn185 O184 2.028 . S
Zn185 O189 2.035 . S
Zn185 O191 2.035 . S
Zn185 O192 2.028 . S
O186 C182 1.258 . S
O186 Zn187 2.035 . S
Zn187 O186 2.035 . S
Zn187 O188 2.028 . S
Zn187 O190 2.028 . S
Zn187 O193 2.035 . S
O188 Zn187 2.028 . S
O188 C194 1.247 . S
O189 Zn185 2.035 . S
O189 C194 1.258 . S
O190 C183 1.247 . S
O190 Zn187 2.028 . S
O191 C183 1.258 . S
O191 Zn185 2.035 . S
O192 Zn185 2.028 . S
O192 C195 1.247 . S
O193 Zn187 2.035 . S
O193 C195 1.258 . S
C194 O188 1.247 . S
C194 O189 1.258 . S
C195 O192 1.247 . S
C195 O193 1.258 . S
C196 O198 1.247 . S
C196 O200 1.258 . S
C197 O204 1.247 . S
C197 O205 1.258 . S
O198 C196 1.247 . S
O198 Zn199 2.028 . S
Zn199 O198 2.028 . S
Zn199 O203 2.035 . S
Zn199 O205 2.035 . S
Zn199 O206 2.028 . S
O200 C196 1.258 . S
O200 Zn201 2.035 . S
Zn201 O200 2.035 . S
Zn201 O202 2.028 . S
Zn201 O204 2.028 . S
Zn201 O207 2.035 . S
O202 Zn201 2.028 . S
O202 C208 1.247 . S
O203 Zn199 2.035 . S
O203 C208 1.258 . S
O204 C197 1.247 . S
O204 Zn201 2.028 . S
O205 C197 1.258 . S
O205 Zn199 2.035 . S
O206 Zn199 2.028 . S
O206 C209 1.247 . S
O207 Zn201 2.035 . S
O207 C209 1.258 . S
C208 O202 1.247 . S
C208 O203 1.258 . S
C209 O206 1.247 . S
C209 O207 1.258 . S
C210 O212 1.247 . S
C210 O214 1.258 . S
C211 O218 1.247 . S
C211 O219 1.258 . S
O212 C210 1.247 . S
O212 Zn213 2.028 . S
Zn213 O212 2.028 . S
Zn213 O217 2.035 . S
Zn213 O219 2.035 . S
Zn213 O220 2.028 . S
O214 C210 1.258 . S
O214 Zn215 2.035 . S
Zn215 O214 2.035 . S
Zn215 O216 2.028 . S
Zn215 O218 2.028 . S
Zn215 O221 2.035 . S
O216 Zn215 2.028 . S
O216 C222 1.247 . S
O217 Zn213 2.035 . S
O217 C222 1.258 . S
O218 C211 1.247 . S
O218 Zn215 2.028 . S
O219 C211 1.258 . S
O219 Zn213 2.035 . S
O220 Zn213 2.028 . S
O220 C223 1.247 . S
O221 Zn215 2.035 . S
O221 C223 1.258 . S
C222 O216 1.247 . S
C222 O217 1.258 . S
C223 O220 1.247 . S
C223 O221 1.258 . S
C224 O226 1.247 . S
C224 O228 1.258 . S
C225 O232 1.247 . S
C225 O233 1.258 . S
O226 C224 1.247 . S
O226 Zn227 2.028 . S
Zn227 O226 2.028 . S
Zn227 O231 2.035 . S
Zn227 O233 2.035 . S
Zn227 O234 2.028 . S
O228 C224 1.258 . S
O228 Zn229 2.035 . S
Zn229 O228 2.035 . S
Zn229 O230 2.028 . S
Zn229 O232 2.028 . S
Zn229 O235 2.035 . S
O230 Zn229 2.028 . S
O230 C236 1.247 . S
O231 Zn227 2.035 . S
O231 C236 1.258 . S
O232 C225 1.247 . S
O232 Zn229 2.028 . S
O233 C225 1.258 . S
O233 Zn227 2.035 . S
O234 Zn227 2.028 . S
O234 C237 1.247 . S
O235 Zn229 2.035 . S
O235 C237 1.258 . S
C236 O230 1.247 . S
C236 O231 1.258 . S
C237 O234 1.247 . S
C237 O235 1.258 . S
C238 O240 1.247 . S
C238 O242 1.258 . S
C239 O246 1.247 . S
C239 O247 1.258 . S
O240 C238 1.247 . S
O240 Zn241 2.028 . S
Zn241 O240 2.028 . S
Zn241 O245 2.035 . S
Zn241 O247 2.035 . S
Zn241 O248 2.028 . S
O242 C238 1.258 . S
O242 Zn243 2.035 . S
Zn243 O242 2.035 . S
Zn243 O244 2.028 . S
Zn243 O246 2.028 . S
Zn243 O249 2.035 . S
O244 Zn243 2.028 . S
O244 C250 1.247 . S
O245 Zn241 2.035 . S
O245 C250 1.258 . S
O246 C239 1.247 . S
O246 Zn243 2.028 . S
O247 C239 1.258 . S
O247 Zn241 2.035 . S
O248 Zn241 2.028 . S
O248 C251 1.247 . S
O249 Zn243 2.035 . S
O249 C251 1.258 . S
C250 O244 1.247 . S
C250 O245 1.258 . S
C251 O248 1.247 . S
C251 O249 1.258 . S
C252 O254 1.247 . S
C252 O256 1.258 . S
C253 O260 1.247 . S
C253 O261 1.258 . S
O254 C252 1.247 . S
O254 Zn255 2.028 . S
Zn255 O254 2.028 . S
Zn255 O259 2.035 . S
Zn255 O261 2.035 . S
Zn255 O262 2.028 . S
O256 C252 1.258 . S
O256 Zn257 2.035 . S
Zn257 O256 2.035 . S
Zn257 O258 2.028 . S
Zn257 O260 2.028 . S
Zn257 O263 2.035 . S
O258 Zn257 2.028 . S
O258 C264 1.247 . S
O259 Zn255 2.035 . S
O259 C264 1.258 . S
O260 C253 1.247 . S
O260 Zn257 2.028 . S
O261 C253 1.258 . S
O261 Zn255 2.035 . S
O262 Zn255 2.028 . S
O262 C265 1.247 . S
O263 Zn257 2.035 . S
O263 C265 1.258 . S
C264 O258 1.247 . S
C264 O259 1.258 . S
C265 O262 1.247 . S
C265 O263 1.258 . S
C266 O268 1.247 . S
C266 O270 1.258 . S
C267 O274 1.247 . S
C267 O275 1.258 . S
O268 C266 1.247 . S
O268 Zn269 2.028 . S
Zn269 O268 2.028 . S
Zn269 O273 2.035 . S
Zn269 O275 2.035 . S
Zn269 O276 2.028 . S
O270 C266 1.258 . S
O270 Zn271 2.035 . S
Zn271 O270 2.035 . S
Zn271 O272 2.028 . S
Zn271 O274 2.028 . S
Zn271 O277 2.035 . S
O272 Zn271 2.028 . S
O272 C278 1.247 . S
O273 Zn269 2.035 . S
O273 C278 1.258 . S
O274 C267 1.247 . S
O274 Zn271 2.028 . S
O275 C267 1.258 . S
O275 Zn269 2.035 . S
O276 Zn269 2.028 . S
O276 C279 1.247 . S
O277 Zn271 2.035 . S
O277 C279 1.258 . S
C278 O272 1.247 . S
C278 O273 1.258 . S
C279 O276 1.247 . S
C279 O277 1.258 . S
C280 O282 1.247 . S
C280 O284 1.258 . S
C281 O288 1.247 . S
C281 O289 1.258 . S
O282 C280 1.247 . S
O282 Zn283 2.028 . S
Zn283 O282 2.028 . S
Zn283 O287 2.035 . S
Zn283 O289 2.035 . S
Zn283 O290 2.028 . S
O284 C280 1.258 . S
O284 Zn285 2.035 . S
Zn285 O284 2.035 . S
Zn285 O286 2.028 . S
Zn285 O288 2.028 . S
Zn285 O291 2.035 . S
O286 Zn285 2.028 . S
O286 C292 1.247 . S
O287 Zn283 2.035 . S
O287 C292 1.258 . S
O288 C281 1.247 . S
O288 Zn285 2.028 . S
O289 C281 1.258 . S
O289 Zn283 2.035 . S
O290 Zn283 2.028 . S
O290 C293 1.247 . S
O291 Zn285 2.035 . S
O291 C293 1.258 . S
C292 O286 1.247 . S
C292 O287 1.258 . S
C293 O290 1.247 . S
C293 O291 1.258 . S
C294 O296 1.247 . S
C294 O298 1.258 . S
C295 O302 1.247 . S
C295 O303 1.258 . S
O296 C294 1.247 . S
O296 Zn297 2.028 . S
Zn297 O296 2.028 . S
Zn297 O301 2.035 . S
Zn297 O303 2.035 . S
Zn297 O304 2.028 . S
O298 C294 1.258 . S
O298 Zn299 2.035 . S
Zn299 O298 2.035 . S
Zn299 O300 2.028 . S
Zn299 O302 2.028 . S
Zn299 O305 2.035 . S
O300 Zn299 2.028 . S
O300 C306 1.247 . S
O301 Zn297 2.035 . S
O301 C306 1.258 . S
O302 C295 1.247 . S
O302 Zn299 2.028 . S
O303 C295 1.258 . S
O303 Zn297 2.035 . S
O304 Zn297 2.028 . S
O304 C307 1.247 . S
O305 Zn299 2.035 . S
O305 C307 1.258 . S
C306 O300 1.247 . S
C306 O301 1.258 . S
C307 O304 1.247 . S
C307 O305 1.258 . S
C308 O310 1.247 . S
C308 O312 1.258 . S
C309 O316 1.247 . S
C309 O317 1.258 . S
O310 C308 1.247 . S
O310 Zn311 2.028 . S
Zn311 O310 2.028 . S
Zn311 O315 2.035 . S
Zn311 O317 2.035 . S
Zn311 O318 2.028 . S
O312 C308 1.258 . S
O312 Zn313 2.035 . S
Zn313 O312 2.035 . S
Zn313 O314 2.028 . S
Zn313 O316 2.028 . S
Zn313 O319 2.035 . S
O314 Zn313 2.028 . S
O314 C320 1.247 . S
O315 Zn311 2.035 . S
O315 C320 1.258 . S
O316 C309 1.247 . S
O316 Zn313 2.028 . S
O317 C309 1.258 . S
O317 Zn311 2.035 . S
O318 Zn311 2.028 . S
O318 C321 1.247 . S
O319 Zn313 2.035 . S
O319 C321 1.258 . S
C320 O314 1.247 . S
C320 O315 1.258 . S
C321 O318 1.247 . S
C321 O319 1.258 . S
C322 O324 1.247 . S
C322 O326 1.258 . S
C323 O330 1.247 . S
C323 O331 1.258 . S
O324 C322 1.247 . S
O324 Zn325 2.028 . S
Zn325 O324 2.028 . S
Zn325 O329 2.035 . S
Zn325 O331 2.035 . S
Zn325 O332 2.028 . S
O326 C322 1.258 . S
O326 Zn327 2.035 . S
Zn327 O326 2.035 . S
Zn327 O328 2.028 . S
Zn327 O330 2.028 . S
Zn327 O333 2.035 . S
O328 Zn327 2.028 . S
O328 C334 1.247 . S
O329 Zn325 2.035 . S
O329 C334 1.258 . S
O330 C323 1.247 . S
O330 Zn327 2.028 . S
O331 C323 1.258 . S
O331 Zn325 2.035 . S
O332 Zn325 2.028 . S
O332 C335 1.247 . S
O333 Zn327 2.035 . S
O333 C335 1.258 . S
C334 O328 1.247 . S
C334 O329 1.258 . S
C335 O332 1.247 . S
C335 O333 1.258 . S
C336 C337 1.349 . S
C336 C338 1.327 . S
C336 H361 0.950 . S
C337 C336 1.349 . S
C337 C353 1.349 . S
C338 C336 1.327 . S
C338 C357 1.429 . S
C338 H362 0.950 . S
C339 C356 1.574 . S
C339 C358 1.368 . S
C339 H363 0.949 . S
H340 C344 0.949 . S
C341 C342 1.349 . S
C341 C343 1.327 . S
C341 H364 0.950 . S
C342 C341 1.349 . S
C342 C354 1.349 . S
C343 C341 1.327 . S
C343 C359 1.429 . S
C343 H365 0.950 . S
C344 H340 0.949 . S
C344 C352 1.574 . S
C344 C360 1.368 . S
H345 C353 0.950 . S
H346 C351 0.950 . S
H347 C352 0.949 . S
H348 C354 0.950 . S
H349 C355 0.950 . S
H350 C356 0.949 . S
C351 H346 0.950 . S
C351 C353 1.327 . S
C351 C357 1.429 . S
C352 C344 1.574 . S
C352 H347 0.949 . S
C352 C358 1.368 . S
C353 C337 1.349 . S
C353 H345 0.950 . S
C353 C351 1.327 . S
C354 C342 1.349 . S
C354 H348 0.950 . S
C354 C355 1.327 . S
C355 H349 0.950 . S
C355 C354 1.327 . S
C355 C359 1.429 . S
C356 C339 1.574 . S
C356 H350 0.949 . S
C356 C360 1.368 . S
C357 C338 1.429 . S
C357 C351 1.429 . S
C357 C358 1.523 . S
C358 C339 1.368 . S
C358 C352 1.368 . S
C358 C357 1.523 . S
C359 C343 1.429 . S
C359 C355 1.429 . S
C359 C360 1.523 . S
C360 C344 1.368 . S
C360 C356 1.368 . S
C360 C359 1.523 . S
H361 C336 0.950 . S
H362 C338 0.950 . S
H363 C339 0.949 . S
H364 C341 0.950 . S
H365 C343 0.950 . S
C366 C367 1.349 . S
C366 C368 1.327 . S
C366 H391 0.950 . S
C367 C366 1.349 . S
C367 C383 1.349 . S
C368 C366 1.327 . S
C368 C387 1.429 . S
C368 H392 0.950 . S
C369 C386 1.572 1_655 S
C369 C388 1.370 . S
C369 H393 0.949 . S
H370 C374 0.949 . S
C371 C372 1.349 . S
C371 C373 1.327 . S
C371 H394 0.950 . S
C372 C371 1.349 . S
C372 C384 1.349 . S
C373 C371 1.327 . S
C373 C389 1.429 . S
C373 H395 0.950 . S
C374 H370 0.949 . S
C374 C382 1.574 1_455 S
C374 C390 1.368 . S
H375 C383 0.950 . S
H376 C381 0.950 . S
H377 C382 0.949 . S
H378 C384 0.950 . S
H379 C385 0.950 . S
H380 C386 0.949 . S
C381 H376 0.950 . S
C381 C383 1.327 . S
C381 C387 1.429 . S
C382 C374 1.574 1_655 S
C382 H377 0.949 . S
C382 C388 1.368 . S
C383 C367 1.349 . S
C383 H375 0.950 . S
C383 C381 1.327 . S
C384 C372 1.349 . S
C384 H378 0.950 . S
C384 C385 1.327 . S
C385 H379 0.950 . S
C385 C384 1.327 . S
C385 C389 1.429 . S
C386 C369 1.572 1_455 S
C386 H380 0.949 . S
C386 C390 1.368 . S
C387 C368 1.429 . S
C387 C381 1.429 . S
C387 C388 1.523 . S
C388 C369 1.370 . S
C388 C382 1.368 . S
C388 C387 1.523 . S
C389 C373 1.429 . S
C389 C385 1.429 . S
C389 C390 1.523 . S
C390 C374 1.368 . S
C390 C386 1.368 . S
C390 C389 1.523 . S
H391 C366 0.950 . S
H392 C368 0.950 . S
H393 C369 0.949 . S
H394 C371 0.950 . S
H395 C373 0.950 . S
C396 C397 1.349 . S
C396 C398 1.327 . S
C396 H421 0.950 . S
C397 C396 1.349 . S
C397 C413 1.349 . S
C398 C396 1.327 . S
C398 C417 1.429 . S
C398 H422 0.950 . S
C399 C416 1.574 . S
C399 C418 1.368 1_556 S
C399 H423 0.949 . S
H400 C404 0.951 . S
C401 C402 1.349 . S
C401 C403 1.327 . S
C401 H424 0.950 . S
C402 C401 1.349 . S
C402 C414 1.349 . S
C403 C401 1.327 . S
C403 C419 1.429 . S
C403 H425 0.950 . S
C404 H400 0.951 . S
C404 C412 1.596 . S
C404 C420 1.346 1_554 S
H405 C413 0.950 . S
H406 C411 0.950 . S
H407 C412 0.949 . S
H408 C414 0.950 . S
H409 C415 0.950 . S
H410 C416 0.949 . S
C411 H406 0.950 . S
C411 C413 1.327 . S
C411 C417 1.429 . S
C412 C404 1.596 . S
C412 H407 0.949 . S
C412 C418 1.368 . S
C413 C397 1.349 . S
C413 H405 0.950 . S
C413 C411 1.327 . S
C414 C402 1.349 . S
C414 H408 0.950 . S
C414 C415 1.327 . S
C415 H409 0.950 . S
C415 C414 1.327 . S
C415 C419 1.429 . S
C416 C399 1.574 . S
C416 H410 0.949 . S
C416 C420 1.368 . S
C417 C398 1.429 . S
C417 C411 1.429 . S
C417 C418 1.523 . S
C418 C399 1.368 1_554 S
C418 C412 1.368 . S
C418 C417 1.523 . S
C419 C403 1.429 . S
C419 C415 1.429 . S
C419 C420 1.523 . S
C420 C404 1.346 1_556 S
C420 C416 1.368 . S
C420 C419 1.523 . S
H421 C396 0.950 . S
H422 C398 0.950 . S
H423 C399 0.949 . S
H424 C401 0.950 . S
H425 C403 0.950 . S
C426 C427 1.349 . S
C426 C428 1.327 . S
C426 H451 0.950 . S
C427 C426 1.349 . S
C427 C443 1.349 . S
C428 C426 1.327 . S
C428 C447 1.429 . S
C428 H452 0.950 . S
C429 C446 1.574 . S
C429 C448 1.368 . S
C429 H453 0.949 . S
H430 C434 0.949 . S
C431 C432 1.349 . S
C431 C433 1.327 . S
C431 H454 0.950 . S
C432 C431 1.349 . S
C432 C444 1.349 . S
C433 C431 1.327 . S
C433 C449 1.429 . S
C433 H455 0.950 . S
C434 H430 0.949 . S
C434 C442 1.574 . S
C434 C450 1.368 . S
H435 C443 0.950 . S
H436 C441 0.950 . S
H437 C442 0.949 . S
H438 C444 0.950 . S
H439 C445 0.950 . S
H440 C446 0.949 . S
C441 H436 0.950 . S
C441 C443 1.327 . S
C441 C447 1.429 . S
C442 C434 1.574 . S
C442 H437 0.949 . S
C442 C448 1.368 . S
C443 C427 1.349 . S
C443 H435 0.950 . S
C443 C441 1.327 . S
C444 C432 1.349 . S
C444 H438 0.950 . S
C444 C445 1.327 . S
C445 H439 0.950 . S
C445 C444 1.327 . S
C445 C449 1.429 . S
C446 C429 1.574 . S
C446 H440 0.949 . S
C446 C450 1.368 . S
C447 C428 1.429 . S
C447 C441 1.429 . S
C447 C448 1.523 . S
C448 C429 1.368 . S
C448 C442 1.368 . S
C448 C447 1.523 . S
C449 C433 1.429 . S
C449 C445 1.429 . S
C449 C450 1.523 . S
C450 C434 1.368 . S
C450 C446 1.368 . S
C450 C449 1.523 . S
H451 C426 0.950 . S
H452 C428 0.950 . S
H453 C429 0.949 . S
H454 C431 0.950 . S
H455 C433 0.950 . S
C456 C457 1.349 . S
C456 C458 1.327 . S
C456 H481 0.950 . S
C457 C456 1.349 . S
C457 C473 1.349 . S
C458 C456 1.327 . S
C458 C477 1.429 . S
C458 H482 0.950 . S
C459 C476 1.575 . S
C459 C478 1.367 1_554 S
C459 H483 0.948 1_554 S
H460 C464 0.949 . S
C461 C462 1.349 . S
C461 C463 1.327 . S
C461 H484 0.950 . S
C462 C461 1.349 . S
C462 C474 1.349 . S
C463 C461 1.327 . S
C463 C479 1.429 . S
C463 H485 0.950 . S
C464 H460 0.949 . S
C464 C472 1.574 1_554 S
C464 C480 1.368 . S
H465 C473 0.950 . S
H466 C471 0.950 . S
H467 C472 0.949 . S
H468 C474 0.950 . S
H469 C475 0.950 . S
H470 C476 0.949 . S
C471 H466 0.950 . S
C471 C473 1.327 . S
C471 C477 1.429 . S
C472 C464 1.574 1_556 S
C472 H467 0.949 . S
C472 C478 1.368 . S
C473 C457 1.349 . S
C473 H465 0.950 . S
C473 C471 1.327 . S
C474 C462 1.349 . S
C474 H468 0.950 . S
C474 C475 1.327 . S
C475 H469 0.950 . S
C475 C474 1.327 . S
C475 C479 1.429 . S
C476 C459 1.575 . S
C476 H470 0.949 . S
C476 C480 1.368 . S
C477 C458 1.429 . S
C477 C471 1.429 . S
C477 C478 1.523 . S
C478 C459 1.367 1_556 S
C478 C472 1.368 . S
C478 C477 1.523 . S
C479 C463 1.429 . S
C479 C475 1.429 . S
C479 C480 1.523 . S
C480 C464 1.368 . S
C480 C476 1.368 . S
C480 C479 1.523 . S
H481 C456 0.950 . S
H482 C458 0.950 . S
H483 C459 0.948 1_556 S
H484 C461 0.950 . S
H485 C463 0.950 . S
C486 C487 1.349 . S
C486 C488 1.327 . S
C486 H511 0.950 . S
C487 C486 1.349 . S
C487 C503 1.349 . S
C488 C486 1.327 . S
C488 C507 1.429 . S
C488 H512 0.950 . S
C489 C506 1.574 . S
C489 C508 1.368 . S
C489 H513 0.949 . S
H490 C494 0.949 . S
C491 C492 1.349 . S
C491 C493 1.327 . S
C491 H514 0.950 . S
C492 C491 1.349 . S
C492 C504 1.349 . S
C493 C491 1.327 . S
C493 C509 1.429 . S
C493 H515 0.950 . S
C494 H490 0.949 . S
C494 C502 1.574 . S
C494 C510 1.368 . S
H495 C503 0.950 . S
H496 C501 0.950 . S
H497 C502 0.949 . S
H498 C504 0.950 . S
H499 C505 0.950 . S
H500 C506 0.949 . S
C501 H496 0.950 . S
C501 C503 1.327 . S
C501 C507 1.429 . S
C502 C494 1.574 . S
C502 H497 0.949 . S
C502 C508 1.368 . S
C503 C487 1.349 . S
C503 H495 0.950 . S
C503 C501 1.327 . S
C504 C492 1.349 . S
C504 H498 0.950 . S
C504 C505 1.327 . S
C505 H499 0.950 . S
C505 C504 1.327 . S
C505 C509 1.429 . S
C506 C489 1.574 . S
C506 H500 0.949 . S
C506 C510 1.368 . S
C507 C488 1.429 . S
C507 C501 1.429 . S
C507 C508 1.523 . S
C508 C489 1.368 . S
C508 C502 1.368 . S
C508 C507 1.523 . S
C509 C493 1.429 . S
C509 C505 1.429 . S
C509 C510 1.523 . S
C510 C494 1.368 . S
C510 C506 1.368 . S
C510 C509 1.523 . S
H511 C486 0.950 . S
H512 C488 0.950 . S
H513 C489 0.949 . S
H514 C491 0.950 . S
H515 C493 0.950 . S
C516 C517 1.349 . S
C516 C518 1.327 . S
C516 H541 0.950 . S
C517 C516 1.349 . S
C517 C533 1.349 . S
C518 C516 1.327 . S
C518 C537 1.429 . S
C518 H542 0.950 . S
C519 C536 1.574 . S
C519 C538 1.368 . S
C519 H543 0.949 . S
H520 C524 0.949 . S
C521 C522 1.349 . S
C521 C523 1.327 . S
C521 H544 0.950 . S
C522 C521 1.349 . S
C522 C534 1.349 . S
C523 C521 1.327 . S
C523 C539 1.429 . S
C523 H545 0.950 . S
C524 H520 0.949 . S
C524 C532 1.574 . S
C524 C540 1.368 . S
H525 C533 0.950 . S
H526 C531 0.950 . S
H527 C532 0.949 . S
H528 C534 0.950 . S
H529 C535 0.950 . S
H530 C536 0.949 . S
C531 H526 0.950 . S
C531 C533 1.327 . S
C531 C537 1.429 . S
C532 C524 1.574 . S
C532 H527 0.949 . S
C532 C538 1.368 . S
C533 C517 1.349 . S
C533 H525 0.950 . S
C533 C531 1.327 . S
C534 C522 1.349 . S
C534 H528 0.950 . S
C534 C535 1.327 . S
C535 H529 0.950 . S
C535 C534 1.327 . S
C535 C539 1.429 . S
C536 C519 1.574 . S
C536 H530 0.949 . S
C536 C540 1.368 . S
C537 C518 1.429 . S
C537 C531 1.429 . S
C537 C538 1.523 . S
C538 C519 1.368 . S
C538 C532 1.368 . S
C538 C537 1.523 . S
C539 C523 1.429 . S
C539 C535 1.429 . S
C539 C540 1.523 . S
C540 C524 1.368 . S
C540 C536 1.368 . S
C540 C539 1.523 . S
H541 C516 0.950 . S
H542 C518 0.950 . S
H543 C519 0.949 . S
H544 C521 0.950 . S
H545 C523 0.950 . S
C546 C547 1.349 . S
C546 C548 1.327 . S
C546 H571 0.950 . S
C547 C546 1.349 . S
C547 C563 1.349 . S
C548 C546 1.327 . S
C548 C567 1.429 . S
C548 H572 0.950 . S
C549 C566 1.574 . S
C549 C568 1.368 . S
C549 H573 0.949 . S
H550 C554 0.949 . S
C551 C552 1.349 . S
C551 C553 1.327 . S
C551 H574 0.950 . S
C552 C551 1.349 . S
C552 C564 1.349 . S
C553 C551 1.327 . S
C553 C569 1.429 . S
C553 H575 0.950 . S
C554 H550 0.949 . S
C554 C562 1.574 1_655 S
C554 C570 1.368 . S
H555 C563 0.950 . S
H556 C561 0.950 . S
H557 C562 0.949 . S
H558 C564 0.950 . S
H559 C565 0.950 . S
H560 C566 0.948 1_655 S
C561 H556 0.950 . S
C561 C563 1.327 . S
C561 C567 1.429 . S
C562 C554 1.574 1_455 S
C562 H557 0.949 . S
C562 C568 1.368 . S
C563 C547 1.349 . S
C563 H555 0.950 . S
C563 C561 1.327 . S
C564 C552 1.349 . S
C564 H558 0.950 . S
C564 C565 1.327 . S
C565 H559 0.950 . S
C565 C564 1.327 . S
C565 C569 1.429 . S
C566 C549 1.574 . S
C566 H560 0.948 1_455 S
C566 C570 1.368 1_455 S
C567 C548 1.429 . S
C567 C561 1.429 . S
C567 C568 1.523 . S
C568 C549 1.368 . S
C568 C562 1.368 . S
C568 C567 1.523 . S
C569 C553 1.429 . S
C569 C565 1.429 . S
C569 C570 1.523 . S
C570 C554 1.368 . S
C570 C566 1.368 1_655 S
C570 C569 1.523 . S
H571 C546 0.950 . S
H572 C548 0.950 . S
H573 C549 0.949 . S
H574 C551 0.950 . S
H575 C553 0.950 . S
C576 C577 1.349 . S
C576 C578 1.327 . S
C576 H601 0.950 . S
C577 C576 1.349 . S
C577 C593 1.349 . S
C578 C576 1.327 . S
C578 C597 1.429 . S
C578 H602 0.950 . S
C579 C596 1.574 . S
C579 C598 1.368 . S
C579 H603 0.949 . S
H580 C584 0.949 . S
C581 C582 1.349 . S
C581 C583 1.327 . S
C581 H604 0.950 . S
C582 C581 1.349 . S
C582 C594 1.349 . S
C583 C581 1.327 . S
C583 C599 1.429 . S
C583 H605 0.950 . S
C584 H580 0.949 . S
C584 C592 1.574 . S
C584 C600 1.368 . S
H585 C593 0.950 . S
H586 C591 0.950 . S
H587 C592 0.949 . S
H588 C594 0.950 . S
H589 C595 0.950 . S
H590 C596 0.949 . S
C591 H586 0.950 . S
C591 C593 1.327 . S
C591 C597 1.429 . S
C592 C584 1.574 . S
C592 H587 0.949 . S
C592 C598 1.368 . S
C593 C577 1.349 . S
C593 H585 0.950 . S
C593 C591 1.327 . S
C594 C582 1.349 . S
C594 H588 0.950 . S
C594 C595 1.327 . S
C595 H589 0.950 . S
C595 C594 1.327 . S
C595 C599 1.429 . S
C596 C579 1.574 . S
C596 H590 0.949 . S
C596 C600 1.368 . S
C597 C578 1.429 . S
C597 C591 1.429 . S
C597 C598 1.523 . S
C598 C579 1.368 . S
C598 C592 1.368 . S
C598 C597 1.523 . S
C599 C583 1.429 . S
C599 C595 1.429 . S
C599 C600 1.523 . S
C600 C584 1.368 . S
C600 C596 1.368 . S
C600 C599 1.523 . S
H601 C576 0.950 . S
H602 C578 0.950 . S
H603 C579 0.949 . S
H604 C581 0.950 . S
H605 C583 0.950 . S
C606 C607 1.349 . S
C606 C608 1.327 . S
C606 H631 0.950 . S
C607 C606 1.349 . S
C607 C623 1.349 . S
C608 C606 1.327 . S
C608 C627 1.429 . S
C608 H632 0.950 . S
C609 C626 1.575 . S
C609 C628 1.368 . S
C609 H633 0.949 . S
H610 C614 0.949 . S
C611 C612 1.349 . S
C611 C613 1.327 . S
C611 H634 0.950 . S
C612 C611 1.349 . S
C612 C624 1.349 . S
C613 C611 1.327 . S
C613 C629 1.429 . S
C613 H635 0.950 . S
C614 H610 0.949 . S
C614 C622 1.574 1_565 S
C614 C630 1.368 . S
H615 C623 0.950 . S
H616 C621 0.950 . S
H617 C622 0.949 . S
H618 C624 0.950 . S
H619 C625 0.950 . S
H620 C626 0.948 1_565 S
C621 H616 0.950 . S
C621 C623 1.327 . S
C621 C627 1.429 . S
C622 C614 1.574 1_545 S
C622 H617 0.949 . S
C622 C628 1.368 . S
C623 C607 1.349 . S
C623 H615 0.950 . S
C623 C621 1.327 . S
C624 C612 1.349 . S
C624 H618 0.950 . S
C624 C625 1.327 . S
C625 H619 0.950 . S
C625 C624 1.327 . S
C625 C629 1.429 . S
C626 C609 1.575 . S
C626 H620 0.948 1_545 S
C626 C630 1.367 1_545 S
C627 C608 1.429 . S
C627 C621 1.429 . S
C627 C628 1.523 . S
C628 C609 1.368 . S
C628 C622 1.368 . S
C628 C627 1.523 . S
C629 C613 1.429 . S
C629 C625 1.429 . S
C629 C630 1.523 . S
C630 C614 1.368 . S
C630 C626 1.367 1_565 S
C630 C629 1.523 . S
H631 C606 0.950 . S
H632 C608 0.950 . S
H633 C609 0.949 . S
H634 C611 0.950 . S
H635 C613 0.950 . S
C636 C637 1.349 . S
C636 C638 1.327 . S
C636 H661 0.950 . S
C637 C636 1.349 . S
C637 C653 1.349 . S
C638 C636 1.327 . S
C638 C657 1.429 . S
C638 H662 0.950 . S
C639 C656 1.581 . S
C639 C658 1.362 1_565 S
C639 H663 0.948 1_565 S
H640 C644 0.949 . S
C641 C642 1.349 . S
C641 C643 1.327 . S
C641 H664 0.950 . S
C642 C641 1.349 . S
C642 C654 1.349 . S
C643 C641 1.327 . S
C643 C659 1.429 . S
C643 H665 0.950 . S
C644 H640 0.949 . S
C644 C652 1.574 1_565 S
C644 C660 1.368 . S
H645 C653 0.950 . S
H646 C651 0.950 . S
H647 C652 0.949 . S
H648 C654 0.950 . S
H649 C655 0.950 . S
H650 C656 0.949 . S
C651 H646 0.950 . S
C651 C653 1.327 . S
C651 C657 1.429 . S
C652 C644 1.574 1_545 S
C652 H647 0.949 . S
C652 C658 1.368 . S
C653 C637 1.349 . S
C653 H645 0.950 . S
C653 C651 1.327 . S
C654 C642 1.349 . S
C654 H648 0.950 . S
C654 C655 1.327 . S
C655 H649 0.950 . S
C655 C654 1.327 . S
C655 C659 1.429 . S
C656 C639 1.581 . S
C656 H650 0.949 . S
C656 C660 1.368 . S
C657 C638 1.429 . S
C657 C651 1.429 . S
C657 C658 1.523 . S
C658 C639 1.362 1_545 S
C658 C652 1.368 . S
C658 C657 1.523 . S
C659 C643 1.429 . S
C659 C655 1.429 . S
C659 C660 1.523 . S
C660 C644 1.368 . S
C660 C656 1.368 . S
C660 C659 1.523 . S
H661 C636 0.950 . S
H662 C638 0.950 . S
H663 C639 0.948 1_545 S
H664 C641 0.950 . S
H665 C643 0.950 . S
C666 C667 1.349 . S
C666 C668 1.327 . S
C666 H691 0.950 . S
C667 C666 1.349 . S
C667 C683 1.349 . S
C668 C666 1.327 . S
C668 C687 1.429 . S
C668 H692 0.950 . S
C669 C686 1.583 . S
C669 C688 1.368 . S
C669 H693 0.949 . S
H670 C674 0.949 . S
C671 C672 1.349 . S
C671 C673 1.327 . S
C671 H694 0.950 . S
C672 C671 1.349 . S
C672 C684 1.349 . S
C673 C671 1.327 . S
C673 C689 1.429 . S
C673 H695 0.950 . S
C674 H670 0.949 . S
C674 C682 1.574 1_565 S
C674 C690 1.368 . S
H675 C683 0.950 . S
H676 C681 0.950 . S
H677 C682 0.949 . S
H678 C684 0.950 . S
H679 C685 0.950 . S
H680 C686 0.948 1_565 S
C681 H676 0.950 . S
C681 C683 1.327 . S
C681 C687 1.429 . S
C682 C674 1.574 1_545 S
C682 H677 0.949 . S
C682 C688 1.368 . S
C683 C667 1.349 . S
C683 H675 0.950 . S
C683 C681 1.327 . S
C684 C672 1.349 . S
C684 H678 0.950 . S
C684 C685 1.327 . S
C685 H679 0.950 . S
C685 C684 1.327 . S
C685 C689 1.429 . S
C686 C669 1.583 . S
C686 H680 0.948 1_545 S
C686 C690 1.360 1_545 S
C687 C668 1.429 . S
C687 C681 1.429 . S
C687 C688 1.523 . S
C688 C669 1.368 . S
C688 C682 1.368 . S
C688 C687 1.523 . S
C689 C673 1.429 . S
C689 C685 1.429 . S
C689 C690 1.523 . S
C690 C674 1.368 . S
C690 C686 1.360 1_565 S
C690 C689 1.523 . S
H691 C666 0.950 . S
H692 C668 0.950 . S
H693 C669 0.949 . S
H694 C671 0.950 . S
H695 C673 0.950 . S
C696 C697 1.349 . S
C696 C698 1.327 . S
C696 H721 0.950 . S
C697 C696 1.349 . S
C697 C713 1.349 . S
C698 C696 1.327 . S
C698 C717 1.429 . S
C698 H722 0.950 . S
C699 C716 1.574 . S
C699 C718 1.368 . S
C699 H723 0.949 . S
H700 C704 0.949 . S
C701 C702 1.349 . S
C701 C703 1.327 . S
C701 H724 0.950 . S
C702 C701 1.349 . S
C702 C714 1.349 . S
C703 C701 1.327 . S
C703 C719 1.429 . S
C703 H725 0.950 . S
C704 H700 0.949 . S
C704 C712 1.574 . S
C704 C720 1.368 . S
H705 C713 0.950 . S
H706 C711 0.950 . S
H707 C712 0.949 . S
H708 C714 0.950 . S
H709 C715 0.950 . S
H710 C716 0.949 . S
C711 H706 0.950 . S
C711 C713 1.327 . S
C711 C717 1.429 . S
C712 C704 1.574 . S
C712 H707 0.949 . S
C712 C718 1.368 . S
C713 C697 1.349 . S
C713 H705 0.950 . S
C713 C711 1.327 . S
C714 C702 1.349 . S
C714 H708 0.950 . S
C714 C715 1.327 . S
C715 H709 0.950 . S
C715 C714 1.327 . S
C715 C719 1.429 . S
C716 C699 1.574 . S
C716 H710 0.949 . S
C716 C720 1.368 . S
C717 C698 1.429 . S
C717 C711 1.429 . S
C717 C718 1.523 . S
C718 C699 1.368 . S
C718 C712 1.368 . S
C718 C717 1.523 . S
C719 C703 1.429 . S
C719 C715 1.429 . S
C719 C720 1.523 . S
C720 C704 1.368 . S
C720 C716 1.368 . S
C720 C719 1.523 . S
H721 C696 0.950 . S
H722 C698 0.950 . S
H723 C699 0.949 . S
H724 C701 0.950 . S
H725 C703 0.950 . S
C726 C727 1.349 . S
C726 C728 1.327 . S
C726 H751 0.950 . S
C727 C726 1.349 . S
C727 C743 1.349 . S
C728 C726 1.327 . S
C728 C747 1.429 . S
C728 H752 0.950 . S
C729 C746 1.574 . S
C729 C748 1.368 . S
C729 H753 0.949 . S
H730 C734 0.949 . S
C731 C732 1.349 . S
C731 C733 1.327 . S
C731 H754 0.950 . S
C732 C731 1.349 . S
C732 C744 1.349 . S
C733 C731 1.327 . S
C733 C749 1.429 . S
C733 H755 0.950 . S
C734 H730 0.949 . S
C734 C742 1.574 . S
C734 C750 1.368 . S
H735 C743 0.950 . S
H736 C741 0.950 . S
H737 C742 0.949 . S
H738 C744 0.950 . S
H739 C745 0.950 . S
H740 C746 0.949 . S
C741 H736 0.950 . S
C741 C743 1.327 . S
C741 C747 1.429 . S
C742 C734 1.574 . S
C742 H737 0.949 . S
C742 C748 1.368 . S
C743 C727 1.349 . S
C743 H735 0.950 . S
C743 C741 1.327 . S
C744 C732 1.349 . S
C744 H738 0.950 . S
C744 C745 1.327 . S
C745 H739 0.950 . S
C745 C744 1.327 . S
C745 C749 1.429 . S
C746 C729 1.574 . S
C746 H740 0.949 . S
C746 C750 1.368 . S
C747 C728 1.429 . S
C747 C741 1.429 . S
C747 C748 1.523 . S
C748 C729 1.368 . S
C748 C742 1.368 . S
C748 C747 1.523 . S
C749 C733 1.429 . S
C749 C745 1.429 . S
C749 C750 1.523 . S
C750 C734 1.368 . S
C750 C746 1.368 . S
C750 C749 1.523 . S
H751 C726 0.950 . S
H752 C728 0.950 . S
H753 C729 0.949 . S
H754 C731 0.950 . S
H755 C733 0.950 . S
C756 C757 1.349 . S
C756 C758 1.327 . S
C756 H781 0.950 . S
C757 C756 1.349 . S
C757 C773 1.349 . S
C758 C756 1.327 . S
C758 C777 1.429 . S
C758 H782 0.950 . S
C759 C776 1.574 . S
C759 C778 1.368 . S
C759 H783 0.949 . S
H760 C764 0.949 . S
C761 C762 1.349 . S
C761 C763 1.327 . S
C761 H784 0.950 . S
C762 C761 1.349 . S
C762 C774 1.349 . S
C763 C761 1.327 . S
C763 C779 1.429 . S
C763 H785 0.950 . S
C764 H760 0.949 . S
C764 C772 1.574 . S
C764 C780 1.368 . S
H765 C773 0.950 . S
H766 C771 0.950 . S
H767 C772 0.949 . S
H768 C774 0.950 . S
H769 C775 0.950 . S
H770 C776 0.949 . S
C771 H766 0.950 . S
C771 C773 1.327 . S
C771 C777 1.429 . S
C772 C764 1.574 . S
C772 H767 0.949 . S
C772 C778 1.368 . S
C773 C757 1.349 . S
C773 H765 0.950 . S
C773 C771 1.327 . S
C774 C762 1.349 . S
C774 H768 0.950 . S
C774 C775 1.327 . S
C775 H769 0.950 . S
C775 C774 1.327 . S
C775 C779 1.429 . S
C776 C759 1.574 . S
C776 H770 0.949 . S
C776 C780 1.368 . S
C777 C758 1.429 . S
C777 C771 1.429 . S
C777 C778 1.523 . S
C778 C759 1.368 . S
C778 C772 1.368 . S
C778 C777 1.523 . S
C779 C763 1.429 . S
C779 C775 1.429 . S
C779 C780 1.523 . S
C780 C764 1.368 . S
C780 C776 1.368 . S
C780 C779 1.523 . S
H781 C756 0.950 . S
H782 C758 0.950 . S
H783 C759 0.949 . S
H784 C761 0.950 . S
H785 C763 0.950 . S
C786 C787 1.349 . S
C786 C788 1.327 . S
C786 H811 0.950 . S
C787 C786 1.349 . S
C787 C803 1.349 . S
C788 C786 1.327 . S
C788 C807 1.429 . S
C788 H812 0.950 . S
C789 C806 1.574 . S
C789 C808 1.368 1_554 S
C789 H813 0.949 . S
H790 C794 0.949 . S
C791 C792 1.349 . S
C791 C793 1.327 . S
C791 H814 0.950 . S
C792 C791 1.349 . S
C792 C804 1.349 . S
C793 C791 1.327 . S
C793 C809 1.429 . S
C793 H815 0.950 . S
C794 H790 0.949 . S
C794 C802 1.574 . S
C794 C810 1.368 1_556 S
H795 C803 0.950 . S
H796 C801 0.950 . S
H797 C802 0.949 . S
H798 C804 0.950 . S
H799 C805 0.950 . S
H800 C806 0.949 . S
C801 H796 0.950 . S
C801 C803 1.327 . S
C801 C807 1.429 . S
C802 C794 1.574 . S
C802 H797 0.949 . S
C802 C808 1.368 . S
C803 C787 1.349 . S
C803 H795 0.950 . S
C803 C801 1.327 . S
C804 C792 1.349 . S
C804 H798 0.950 . S
C804 C805 1.327 . S
C805 H799 0.950 . S
C805 C804 1.327 . S
C805 C809 1.429 . S
C806 C789 1.574 . S
C806 H800 0.949 . S
C806 C810 1.368 . S
C807 C788 1.429 . S
C807 C801 1.429 . S
C807 C808 1.523 . S
C808 C789 1.368 1_556 S
C808 C802 1.368 . S
C808 C807 1.523 . S
C809 C793 1.429 . S
C809 C805 1.429 . S
C809 C810 1.523 . S
C810 C794 1.368 1_554 S
C810 C806 1.368 . S
C810 C809 1.523 . S
H811 C786 0.950 . S
H812 C788 0.950 . S
H813 C789 0.949 . S
H814 C791 0.950 . S
H815 C793 0.950 . S
C816 C817 1.349 . S
C816 C818 1.327 . S
C816 H841 0.950 . S
C817 C816 1.349 . S
C817 C833 1.349 . S
C818 C816 1.327 . S
C818 C837 1.429 . S
C818 H842 0.950 . S
C819 C836 1.574 . S
C819 C838 1.368 . S
C819 H843 0.949 . S
H820 C824 0.949 . S
C821 C822 1.349 . S
C821 C823 1.327 . S
C821 H844 0.950 . S
C822 C821 1.349 . S
C822 C834 1.349 . S
C823 C821 1.327 . S
C823 C839 1.429 . S
C823 H845 0.950 . S
C824 H820 0.949 . S
C824 C832 1.574 . S
C824 C840 1.368 . S
H825 C833 0.950 . S
H826 C831 0.950 . S
H827 C832 0.949 . S
H828 C834 0.950 . S
H829 C835 0.950 . S
H830 C836 0.949 . S
C831 H826 0.950 . S
C831 C833 1.327 . S
C831 C837 1.429 . S
C832 C824 1.574 . S
C832 H827 0.949 . S
C832 C838 1.368 . S
C833 C817 1.349 . S
C833 H825 0.950 . S
C833 C831 1.327 . S
C834 C822 1.349 . S
C834 H828 0.950 . S
C834 C835 1.327 . S
C835 H829 0.950 . S
C835 C834 1.327 . S
C835 C839 1.429 . S
C836 C819 1.574 . S
C836 H830 0.949 . S
C836 C840 1.368 . S
C837 C818 1.429 . S
C837 C831 1.429 . S
C837 C838 1.523 . S
C838 C819 1.368 . S
C838 C832 1.368 . S
C838 C837 1.523 . S
C839 C823 1.429 . S
C839 C835 1.429 . S
C839 C840 1.523 . S
C840 C824 1.368 . S
C840 C836 1.368 . S
C840 C839 1.523 . S
H841 C816 0.950 . S
H842 C818 0.950 . S
H843 C819 0.949 . S
H844 C821 0.950 . S
H845 C823 0.950 . S
C846 C847 1.349 . S
C846 C848 1.327 . S
C846 H871 0.950 . S
C847 C846 1.349 . S
C847 C863 1.349 . S
C848 C846 1.327 . S
C848 C867 1.429 . S
C848 H872 0.950 . S
C849 C866 1.574 . S
C849 C868 1.368 . S
C849 H873 0.949 . S
H850 C854 0.949 . S
C851 C852 1.349 . S
C851 C853 1.327 . S
C851 H874 0.950 . S
C852 C851 1.349 . S
C852 C864 1.349 . S
C853 C851 1.327 . S
C853 C869 1.429 . S
C853 H875 0.950 . S
C854 H850 0.949 . S
C854 C862 1.574 . S
C854 C870 1.368 . S
H855 C863 0.950 . S
H856 C861 0.950 . S
H857 C862 0.949 . S
H858 C864 0.950 . S
H859 C865 0.950 . S
H860 C866 0.949 . S
C861 H856 0.950 . S
C861 C863 1.327 . S
C861 C867 1.429 . S
C862 C854 1.574 . S
C862 H857 0.949 . S
C862 C868 1.368 . S
C863 C847 1.349 . S
C863 H855 0.950 . S
C863 C861 1.327 . S
C864 C852 1.349 . S
C864 H858 0.950 . S
C864 C865 1.327 . S
C865 H859 0.950 . S
C865 C864 1.327 . S
C865 C869 1.429 . S
C866 C849 1.574 . S
C866 H860 0.949 . S
C866 C870 1.368 . S
C867 C848 1.429 . S
C867 C861 1.429 . S
C867 C868 1.523 . S
C868 C849 1.368 . S
C868 C862 1.368 . S
C868 C867 1.523 . S
C869 C853 1.429 . S
C869 C865 1.429 . S
C869 C870 1.523 . S
C870 C854 1.368 . S
C870 C866 1.368 . S
C870 C869 1.523 . S
H871 C846 0.950 . S
H872 C848 0.950 . S
H873 C849 0.949 . S
H874 C851 0.950 . S
H875 C853 0.950 . S
C876 C877 1.349 . S
C876 C878 1.327 . S
C876 H901 0.950 . S
C877 C876 1.349 . S
C877 C893 1.349 . S
C878 C876 1.327 . S
C878 C897 1.429 . S
C878 H902 0.950 . S
C879 C896 1.574 1_655 S
C879 C898 1.368 . S
C879 H903 0.949 . S
H880 C884 0.948 . S
C881 C882 1.349 . S
C881 C883 1.327 . S
C881 H904 0.950 . S
C882 C881 1.349 . S
C882 C894 1.349 . S
C883 C881 1.327 . S
C883 C899 1.429 . S
C883 H905 0.950 . S
C884 H880 0.948 . S
C884 C892 1.577 1_455 S
C884 C900 1.365 . S
H885 C893 0.950 . S
H886 C891 0.950 . S
H887 C892 0.949 . S
H888 C894 0.950 . S
H889 C895 0.950 . S
H890 C896 0.949 . S
C891 H886 0.950 . S
C891 C893 1.327 . S
C891 C897 1.429 . S
C892 C884 1.577 1_655 S
C892 H887 0.949 . S
C892 C898 1.368 . S
C893 C877 1.349 . S
C893 H885 0.950 . S
C893 C891 1.327 . S
C894 C882 1.349 . S
C894 H888 0.950 . S
C894 C895 1.327 . S
C895 H889 0.950 . S
C895 C894 1.327 . S
C895 C899 1.429 . S
C896 C879 1.574 1_455 S
C896 H890 0.949 . S
C896 C900 1.368 . S
C897 C878 1.429 . S
C897 C891 1.429 . S
C897 C898 1.523 . S
C898 C879 1.368 . S
C898 C892 1.368 . S
C898 C897 1.523 . S
C899 C883 1.429 . S
C899 C895 1.429 . S
C899 C900 1.523 . S
C900 C884 1.365 . S
C900 C896 1.368 . S
C900 C899 1.523 . S
H901 C876 0.950 . S
H902 C878 0.950 . S
H903 C879 0.949 . S
H904 C881 0.950 . S
H905 C883 0.950 . S
C906 C907 1.349 . S
C906 C908 1.327 . S
C906 H931 0.950 . S
C907 C906 1.349 . S
C907 C923 1.349 . S
C908 C906 1.327 . S
C908 C927 1.429 . S
C908 H932 0.950 . S
C909 C926 1.574 . S
C909 C928 1.368 . S
C909 H933 0.949 . S
H910 C914 0.949 . S
C911 C912 1.349 . S
C911 C913 1.327 . S
C911 H934 0.950 . S
C912 C911 1.349 . S
C912 C924 1.349 . S
C913 C911 1.327 . S
C913 C929 1.429 . S
C913 H935 0.950 . S
C914 H910 0.949 . S
C914 C922 1.574 . S
C914 C930 1.368 . S
H915 C923 0.950 . S
H916 C921 0.950 . S
H917 C922 0.949 . S
H918 C924 0.950 . S
H919 C925 0.950 . S
H920 C926 0.949 . S
C921 H916 0.950 . S
C921 C923 1.327 . S
C921 C927 1.429 . S
C922 C914 1.574 . S
C922 H917 0.949 . S
C922 C928 1.368 . S
C923 C907 1.349 . S
C923 H915 0.950 . S
C923 C921 1.327 . S
C924 C912 1.349 . S
C924 H918 0.950 . S
C924 C925 1.327 . S
C925 H919 0.950 . S
C925 C924 1.327 . S
C925 C929 1.429 . S
C926 C909 1.574 . S
C926 H920 0.949 . S
C926 C930 1.368 . S
C927 C908 1.429 . S
C927 C921 1.429 . S
C927 C928 1.523 . S
C928 C909 1.368 . S
C928 C922 1.368 . S
C928 C927 1.523 . S
C929 C913 1.429 . S
C929 C925 1.429 . S
C929 C930 1.523 . S
C930 C914 1.368 . S
C930 C926 1.368 . S
C930 C929 1.523 . S
H931 C906 0.950 . S
H932 C908 0.950 . S
H933 C909 0.949 . S
H934 C911 0.950 . S
H935 C913 0.950 . S
C936 C937 1.349 . S
C936 C938 1.327 . S
C936 H961 0.950 . S
C937 C936 1.349 . S
C937 C953 1.349 . S
C938 C936 1.327 . S
C938 C957 1.429 . S
C938 H962 0.950 . S
C939 C956 1.574 1_455 S
C939 C958 1.368 . S
C939 H963 0.949 . S
H940 C944 0.949 . S
C941 C942 1.349 . S
C941 C943 1.327 . S
C941 H964 0.950 . S
C942 C941 1.349 . S
C942 C954 1.349 . S
C943 C941 1.327 . S
C943 C959 1.429 . S
C943 H965 0.950 . S
C944 H940 0.949 . S
C944 C952 1.576 1_655 S
C944 C960 1.368 . S
H945 C953 0.950 . S
H946 C951 0.950 . S
H947 C952 0.949 . S
H948 C954 0.950 . S
H949 C955 0.950 . S
H950 C956 0.949 . S
C951 H946 0.950 . S
C951 C953 1.327 . S
C951 C957 1.429 . S
C952 C944 1.576 1_455 S
C952 H947 0.949 . S
C952 C958 1.366 . S
C953 C937 1.349 . S
C953 H945 0.950 . S
C953 C951 1.327 . S
C954 C942 1.349 . S
C954 H948 0.950 . S
C954 C955 1.327 . S
C955 H949 0.950 . S
C955 C954 1.327 . S
C955 C959 1.429 . S
C956 C939 1.574 1_655 S
C956 H950 0.949 . S
C956 C960 1.368 . S
C957 C938 1.429 . S
C957 C951 1.429 . S
C957 C958 1.523 . S
C958 C939 1.368 . S
C958 C952 1.366 . S
C958 C957 1.523 . S
C959 C943 1.429 . S
C959 C955 1.429 . S
C959 C960 1.523 . S
C960 C944 1.368 . S
C960 C956 1.368 . S
C960 C959 1.523 . S
H961 C936 0.950 . S
H962 C938 0.950 . S
H963 C939 0.949 . S
H964 C941 0.950 . S
H965 C943 0.950 . S
C966 C967 1.349 . S
C966 C968 1.327 . S
C966 H991 0.950 . S
C967 C966 1.349 . S
C967 C983 1.349 . S
C968 C966 1.327 . S
C968 C987 1.429 . S
C968 H992 0.950 . S
C969 C986 1.574 . S
C969 C988 1.368 . S
C969 H993 0.949 . S
H970 C974 0.949 . S
C971 C972 1.349 . S
C971 C973 1.327 . S
C971 H994 0.950 . S
C972 C971 1.349 . S
C972 C984 1.349 . S
C973 C971 1.327 . S
C973 C989 1.429 . S
C973 H995 0.950 . S
C974 H970 0.949 . S
C974 C982 1.574 . S
C974 C990 1.368 . S
H975 C983 0.950 . S
H976 C981 0.950 . S
H977 C982 0.949 . S
H978 C984 0.950 . S
H979 C985 0.950 . S
H980 C986 0.949 . S
C981 H976 0.950 . S
C981 C983 1.327 . S
C981 C987 1.429 . S
C982 C974 1.574 . S
C982 H977 0.949 . S
C982 C988 1.368 1_554 S
C983 C967 1.349 . S
C983 H975 0.950 . S
C983 C981 1.327 . S
C984 C972 1.349 . S
C984 H978 0.950 . S
C984 C985 1.327 . S
C985 H979 0.950 . S
C985 C984 1.327 . S
C985 C989 1.429 . S
C986 C969 1.574 . S
C986 H980 0.949 . S
C986 C990 1.368 1_556 S
C987 C968 1.429 . S
C987 C981 1.429 . S
C987 C988 1.523 . S
C988 C969 1.368 . S
C988 C982 1.368 1_556 S
C988 C987 1.523 . S
C989 C973 1.429 . S
C989 C985 1.429 . S
C989 C990 1.523 . S
C990 C974 1.368 . S
C990 C986 1.368 1_554 S
C990 C989 1.523 . S
H991 C966 0.950 . S
H992 C968 0.950 . S
H993 C969 0.949 . S
H994 C971 0.950 . S
H995 C973 0.950 . S
C996 C997 1.349 . S
C996 C998 1.327 . S
C996 H1021 0.950 . S
C997 C996 1.349 . S
C997 C1013 1.349 . S
C998 C996 1.327 . S
C998 C1017 1.429 . S
C998 H1022 0.950 . S
C999 C1016 1.574 . S
C999 C1018 1.368 . S
C999 H1023 0.949 . S
H1000 C1004 0.949 . S
C1001 C1002 1.349 . S
C1001 C1003 1.327 . S
C1001 H1024 0.950 . S
C1002 C1001 1.349 . S
C1002 C1014 1.349 . S
C1003 C1001 1.327 . S
C1003 C1019 1.429 . S
C1003 H1025 0.950 . S
C1004 H1000 0.949 . S
C1004 C1012 1.574 . S
C1004 C1020 1.368 . S
H1005 C1013 0.950 . S
H1006 C1011 0.950 . S
H1007 C1012 0.949 . S
H1008 C1014 0.950 . S
H1009 C1015 0.950 . S
H1010 C1016 0.949 . S
C1011 H1006 0.950 . S
C1011 C1013 1.327 . S
C1011 C1017 1.429 . S
C1012 C1004 1.574 . S
C1012 H1007 0.949 . S
C1012 C1018 1.368 . S
C1013 C997 1.349 . S
C1013 H1005 0.950 . S
C1013 C1011 1.327 . S
C1014 C1002 1.349 . S
C1014 H1008 0.950 . S
C1014 C1015 1.327 . S
C1015 H1009 0.950 . S
C1015 C1014 1.327 . S
C1015 C1019 1.429 . S
C1016 C999 1.574 . S
C1016 H1010 0.949 . S
C1016 C1020 1.368 . S
C1017 C998 1.429 . S
C1017 C1011 1.429 . S
C1017 C1018 1.523 . S
C1018 C999 1.368 . S
C1018 C1012 1.368 . S
C1018 C1017 1.523 . S
C1019 C1003 1.429 . S
C1019 C1015 1.429 . S
C1019 C1020 1.523 . S
C1020 C1004 1.368 . S
C1020 C1016 1.368 . S
C1020 C1019 1.523 . S
H1021 C996 0.950 . S
H1022 C998 0.950 . S
H1023 C999 0.949 . S
H1024 C1001 0.950 . S
H1025 C1003 0.950 . S
C1026 C1027 1.349 . S
C1026 C1028 1.327 . S
C1026 H1051 0.950 . S
C1027 C1026 1.349 . S
C1027 C1043 1.349 . S
C1028 C1026 1.327 . S
C1028 C1047 1.429 . S
C1028 H1052 0.950 . S
C1029 C1046 1.580 . S
C1029 C1048 1.368 . S
C1029 H1053 0.949 . S
H1030 C1034 0.949 . S
C1031 C1032 1.349 . S
C1031 C1033 1.327 . S
C1031 H1054 0.950 . S
C1032 C1031 1.349 . S
C1032 C1044 1.349 . S
C1033 C1031 1.327 . S
C1033 C1049 1.429 . S
C1033 H1055 0.950 . S
C1034 H1030 0.949 . S
C1034 C1042 1.574 1_545 S
C1034 C1050 1.368 . S
H1035 C1043 0.950 . S
H1036 C1041 0.950 . S
H1037 C1042 0.949 . S
H1038 C1044 0.950 . S
H1039 C1045 0.950 . S
H1040 C1046 0.948 1_545 S
C1041 H1036 0.950 . S
C1041 C1043 1.327 . S
C1041 C1047 1.429 . S
C1042 C1034 1.574 1_565 S
C1042 H1037 0.949 . S
C1042 C1048 1.368 . S
C1043 C1027 1.349 . S
C1043 H1035 0.950 . S
C1043 C1041 1.327 . S
C1044 C1032 1.349 . S
C1044 H1038 0.950 . S
C1044 C1045 1.327 . S
C1045 H1039 0.950 . S
C1045 C1044 1.327 . S
C1045 C1049 1.429 . S
C1046 C1029 1.580 . S
C1046 H1040 0.948 1_565 S
C1046 C1050 1.362 1_565 S
C1047 C1028 1.429 . S
C1047 C1041 1.429 . S
C1047 C1048 1.523 . S
C1048 C1029 1.368 . S
C1048 C1042 1.368 . S
C1048 C1047 1.523 . S
C1049 C1033 1.429 . S
C1049 C1045 1.429 . S
C1049 C1050 1.523 . S
C1050 C1034 1.368 . S
C1050 C1046 1.362 1_545 S
C1050 C1049 1.523 . S
H1051 C1026 0.950 . S
H1052 C1028 0.950 . S
H1053 C1029 0.949 . S
H1054 C1031 0.950 . S
H1055 C1033 0.950 . S
C1056 C1057 1.349 . S
C1056 C1058 1.327 . S
C1056 H1081 0.950 . S
C1057 C1056 1.349 . S
C1057 C1073 1.349 . S
C1058 C1056 1.327 . S
C1058 C1077 1.429 . S
C1058 H1082 0.950 . S
C1059 C1076 1.574 . S
C1059 C1078 1.368 . S
C1059 H1083 0.949 . S
H1060 C1064 0.949 . S
C1061 C1062 1.349 . S
C1061 C1063 1.327 . S
C1061 H1084 0.950 . S
C1062 C1061 1.349 . S
C1062 C1074 1.349 . S
C1063 C1061 1.327 . S
C1063 C1079 1.429 . S
C1063 H1085 0.950 . S
C1064 H1060 0.949 . S
C1064 C1072 1.574 . S
C1064 C1080 1.368 . S
H1065 C1073 0.950 . S
H1066 C1071 0.950 . S
H1067 C1072 0.949 . S
H1068 C1074 0.950 . S
H1069 C1075 0.950 . S
H1070 C1076 0.949 . S
C1071 H1066 0.950 . S
C1071 C1073 1.327 . S
C1071 C1077 1.429 . S
C1072 C1064 1.574 . S
C1072 H1067 0.949 . S
C1072 C1078 1.368 . S
C1073 C1057 1.349 . S
C1073 H1065 0.950 . S
C1073 C1071 1.327 . S
C1074 C1062 1.349 . S
C1074 H1068 0.950 . S
C1074 C1075 1.327 . S
C1075 H1069 0.950 . S
C1075 C1074 1.327 . S
C1075 C1079 1.429 . S
C1076 C1059 1.574 . S
C1076 H1070 0.949 . S
C1076 C1080 1.368 . S
C1077 C1058 1.429 . S
C1077 C1071 1.429 . S
C1077 C1078 1.523 . S
C1078 C1059 1.368 . S
C1078 C1072 1.368 . S
C1078 C1077 1.523 . S
C1079 C1063 1.429 . S
C1079 C1075 1.429 . S
C1079 C1080 1.523 . S
C1080 C1064 1.368 . S
C1080 C1076 1.368 . S
C1080 C1079 1.523 . S
H1081 C1056 0.950 . S
H1082 C1058 0.950 . S
H1083 C1059 0.949 . S
H1084 C1061 0.950 . S
H1085 C1063 0.950 . S
C1086 C1087 1.349 . S
C1086 C1088 1.327 . S
C1086 H1111 0.950 . S
C1087 C1086 1.349 . S
C1087 C1103 1.349 . S
C1088 C1086 1.327 . S
C1088 C1107 1.429 . S
C1088 H1112 0.950 . S
C1089 C1106 1.574 . S
C1089 C1108 1.368 . S
C1089 H1113 0.949 . S
H1090 C1094 0.949 . S
C1091 C1092 1.349 . S
C1091 C1093 1.327 . S
C1091 H1114 0.950 . S
C1092 C1091 1.349 . S
C1092 C1104 1.349 . S
C1093 C1091 1.327 . S
C1093 C1109 1.429 . S
C1093 H1115 0.950 . S
C1094 H1090 0.949 . S
C1094 C1102 1.574 . S
C1094 C1110 1.368 . S
H1095 C1103 0.950 . S
H1096 C1101 0.950 . S
H1097 C1102 0.949 . S
H1098 C1104 0.950 . S
H1099 C1105 0.950 . S
H1100 C1106 0.949 . S
C1101 H1096 0.950 . S
C1101 C1103 1.327 . S
C1101 C1107 1.429 . S
C1102 C1094 1.574 . S
C1102 H1097 0.949 . S
C1102 C1108 1.368 . S
C1103 C1087 1.349 . S
C1103 H1095 0.950 . S
C1103 C1101 1.327 . S
C1104 C1092 1.349 . S
C1104 H1098 0.950 . S
C1104 C1105 1.327 . S
C1105 H1099 0.950 . S
C1105 C1104 1.327 . S
C1105 C1109 1.429 . S
C1106 C1089 1.574 . S
C1106 H1100 0.949 . S
C1106 C1110 1.368 . S
C1107 C1088 1.429 . S
C1107 C1101 1.429 . S
C1107 C1108 1.523 . S
C1108 C1089 1.368 . S
C1108 C1102 1.368 . S
C1108 C1107 1.523 . S
C1109 C1093 1.429 . S
C1109 C1105 1.429 . S
C1109 C1110 1.523 . S
C1110 C1094 1.368 . S
C1110 C1106 1.368 . S
C1110 C1109 1.523 . S
H1111 C1086 0.950 . S
H1112 C1088 0.950 . S
H1113 C1089 0.949 . S
H1114 C1091 0.950 . S
H1115 C1093 0.950 . S
C1116 C1117 1.349 . S
C1116 C1118 1.327 . S
C1116 H1141 0.950 . S
C1117 C1116 1.349 . S
C1117 C1133 1.349 . S
C1118 C1116 1.327 . S
C1118 C1137 1.429 . S
C1118 H1142 0.950 . S
C1119 C1136 1.574 . S
C1119 C1138 1.368 . S
C1119 H1143 0.949 . S
H1120 C1124 0.949 . S
C1121 C1122 1.349 . S
C1121 C1123 1.327 . S
C1121 H1144 0.950 . S
C1122 C1121 1.349 . S
C1122 C1134 1.349 . S
C1123 C1121 1.327 . S
C1123 C1139 1.429 . S
C1123 H1145 0.950 . S
C1124 H1120 0.949 . S
C1124 C1132 1.574 . S
C1124 C1140 1.368 . S
H1125 C1133 0.950 . S
H1126 C1131 0.950 . S
H1127 C1132 0.949 . S
H1128 C1134 0.950 . S
H1129 C1135 0.950 . S
H1130 C1136 0.949 . S
C1131 H1126 0.950 . S
C1131 C1133 1.327 . S
C1131 C1137 1.429 . S
C1132 C1124 1.574 . S
C1132 H1127 0.949 . S
C1132 C1138 1.368 . S
C1133 C1117 1.349 . S
C1133 H1125 0.950 . S
C1133 C1131 1.327 . S
C1134 C1122 1.349 . S
C1134 H1128 0.950 . S
C1134 C1135 1.327 . S
C1135 H1129 0.950 . S
C1135 C1134 1.327 . S
C1135 C1139 1.429 . S
C1136 C1119 1.574 . S
C1136 H1130 0.949 . S
C1136 C1140 1.368 . S
C1137 C1118 1.429 . S
C1137 C1131 1.429 . S
C1137 C1138 1.523 . S
C1138 C1119 1.368 . S
C1138 C1132 1.368 . S
C1138 C1137 1.523 . S
C1139 C1123 1.429 . S
C1139 C1135 1.429 . S
C1139 C1140 1.523 . S
C1140 C1124 1.368 . S
C1140 C1136 1.368 . S
C1140 C1139 1.523 . S
H1141 C1116 0.950 . S
H1142 C1118 0.950 . S
H1143 C1119 0.949 . S
H1144 C1121 0.950 . S
H1145 C1123 0.950 . S
C1146 C1147 1.349 . S
C1146 C1148 1.327 . S
C1146 H1171 0.950 . S
C1147 C1146 1.349 . S
C1147 C1163 1.349 . S
C1148 C1146 1.327 . S
C1148 C1167 1.429 . S
C1148 H1172 0.950 . S
C1149 C1166 1.574 . S
C1149 C1168 1.368 1_554 S
C1149 H1173 0.949 . S
H1150 C1154 0.949 . S
C1151 C1152 1.349 . S
C1151 C1153 1.327 . S
C1151 H1174 0.950 . S
C1152 C1151 1.349 . S
C1152 C1164 1.349 . S
C1153 C1151 1.327 . S
C1153 C1169 1.429 . S
C1153 H1175 0.950 . S
C1154 H1150 0.949 . S
C1154 C1162 1.574 . S
C1154 C1170 1.368 1_556 S
H1155 C1163 0.950 . S
H1156 C1161 0.950 . S
H1157 C1162 0.949 . S
H1158 C1164 0.950 . S
H1159 C1165 0.950 . S
H1160 C1166 0.949 . S
C1161 H1156 0.950 . S
C1161 C1163 1.327 . S
C1161 C1167 1.429 . S
C1162 C1154 1.574 . S
C1162 H1157 0.949 . S
C1162 C1168 1.368 . S
C1163 C1147 1.349 . S
C1163 H1155 0.950 . S
C1163 C1161 1.327 . S
C1164 C1152 1.349 . S
C1164 H1158 0.950 . S
C1164 C1165 1.327 . S
C1165 H1159 0.950 . S
C1165 C1164 1.327 . S
C1165 C1169 1.429 . S
C1166 C1149 1.574 . S
C1166 H1160 0.949 . S
C1166 C1170 1.368 . S
C1167 C1148 1.429 . S
C1167 C1161 1.429 . S
C1167 C1168 1.523 . S
C1168 C1149 1.368 1_556 S
C1168 C1162 1.368 . S
C1168 C1167 1.523 . S
C1169 C1153 1.429 . S
C1169 C1165 1.429 . S
C1169 C1170 1.523 . S
C1170 C1154 1.368 1_554 S
C1170 C1166 1.368 . S
C1170 C1169 1.523 . S
H1171 C1146 0.950 . S
H1172 C1148 0.950 . S
H1173 C1149 0.949 . S
H1174 C1151 0.950 . S
H1175 C1153 0.950 . S
C1176 C1177 1.349 . S
C1176 C1178 1.327 . S
C1176 H1201 0.950 . S
C1177 C1176 1.349 . S
C1177 C1193 1.349 . S
C1178 C1176 1.327 . S
C1178 C1197 1.429 . S
C1178 H1202 0.950 . S
C1179 C1196 1.574 . S
C1179 C1198 1.368 . S
C1179 H1203 0.949 . S
H1180 C1184 0.949 . S
C1181 C1182 1.349 . S
C1181 C1183 1.327 . S
C1181 H1204 0.950 . S
C1182 C1181 1.349 . S
C1182 C1194 1.349 . S
C1183 C1181 1.327 . S
C1183 C1199 1.429 . S
C1183 H1205 0.950 . S
C1184 H1180 0.949 . S
C1184 C1192 1.574 . S
C1184 C1200 1.368 . S
H1185 C1193 0.950 . S
H1186 C1191 0.950 . S
H1187 C1192 0.949 . S
H1188 C1194 0.950 . S
H1189 C1195 0.950 . S
H1190 C1196 0.949 . S
C1191 H1186 0.950 . S
C1191 C1193 1.327 . S
C1191 C1197 1.429 . S
C1192 C1184 1.574 . S
C1192 H1187 0.949 . S
C1192 C1198 1.368 . S
C1193 C1177 1.349 . S
C1193 H1185 0.950 . S
C1193 C1191 1.327 . S
C1194 C1182 1.349 . S
C1194 H1188 0.950 . S
C1194 C1195 1.327 . S
C1195 H1189 0.950 . S
C1195 C1194 1.327 . S
C1195 C1199 1.429 . S
C1196 C1179 1.574 . S
C1196 H1190 0.949 . S
C1196 C1200 1.368 . S
C1197 C1178 1.429 . S
C1197 C1191 1.429 . S
C1197 C1198 1.523 . S
C1198 C1179 1.368 . S
C1198 C1192 1.368 . S
C1198 C1197 1.523 . S
C1199 C1183 1.429 . S
C1199 C1195 1.429 . S
C1199 C1200 1.523 . S
C1200 C1184 1.368 . S
C1200 C1196 1.368 . S
C1200 C1199 1.523 . S
H1201 C1176 0.950 . S
H1202 C1178 0.950 . S
H1203 C1179 0.949 . S
H1204 C1181 0.950 . S
H1205 C1183 0.950 . S
C1206 C1207 1.349 . S
C1206 C1208 1.327 . S
C1206 H1231 0.950 . S
C1207 C1206 1.349 . S
C1207 C1223 1.349 . S
C1208 C1206 1.327 . S
C1208 C1227 1.429 . S
C1208 H1232 0.950 . S
C1209 C1226 1.574 1_545 S
C1209 C1228 1.368 . S
C1209 H1233 0.949 . S
H1210 C1214 0.949 . S
C1211 C1212 1.349 . S
C1211 C1213 1.327 . S
C1211 H1234 0.950 . S
C1212 C1211 1.349 . S
C1212 C1224 1.349 . S
C1213 C1211 1.327 . S
C1213 C1229 1.429 . S
C1213 H1235 0.950 . S
C1214 H1210 0.949 . S
C1214 C1222 1.574 1_565 S
C1214 C1230 1.368 . S
H1215 C1223 0.950 . S
H1216 C1221 0.950 . S
H1217 C1222 0.949 . S
H1218 C1224 0.950 . S
H1219 C1225 0.950 . S
H1220 C1226 0.949 . S
C1221 H1216 0.950 . S
C1221 C1223 1.327 . S
C1221 C1227 1.429 . S
C1222 C1214 1.574 1_545 S
C1222 H1217 0.949 . S
C1222 C1228 1.368 . S
C1223 C1207 1.349 . S
C1223 H1215 0.950 . S
C1223 C1221 1.327 . S
C1224 C1212 1.349 . S
C1224 H1218 0.950 . S
C1224 C1225 1.327 . S
C1225 H1219 0.950 . S
C1225 C1224 1.327 . S
C1225 C1229 1.429 . S
C1226 C1209 1.574 1_565 S
C1226 H1220 0.949 . S
C1226 C1230 1.368 . S
C1227 C1208 1.429 . S
C1227 C1221 1.429 . S
C1227 C1228 1.523 . S
C1228 C1209 1.368 . S
C1228 C1222 1.368 . S
C1228 C1227 1.523 . S
C1229 C1213 1.429 . S
C1229 C1225 1.429 . S
C1229 C1230 1.523 . S
C1230 C1214 1.368 . S
C1230 C1226 1.368 . S
C1230 C1229 1.523 . S
H1231 C1206 0.950 . S
H1232 C1208 0.950 . S
H1233 C1209 0.949 . S
H1234 C1211 0.950 . S
H1235 C1213 0.950 . S
C1236 C1237 1.349 . S
C1236 C1238 1.327 . S
C1236 H1261 0.950 . S
C1237 C1236 1.349 . S
C1237 C1253 1.349 . S
C1238 C1236 1.327 . S
C1238 C1257 1.429 . S
C1238 H1262 0.950 . S
C1239 C1256 1.574 1_554 S
C1239 C1258 1.368 . S
C1239 H1263 0.949 . S
H1240 C1244 0.949 . S
C1241 C1242 1.349 . S
C1241 C1243 1.327 . S
C1241 H1264 0.950 . S
C1242 C1241 1.349 . S
C1242 C1254 1.349 . S
C1243 C1241 1.327 . S
C1243 C1259 1.429 . S
C1243 H1265 0.950 . S
C1244 H1240 0.949 . S
C1244 C1252 1.574 1_556 S
C1244 C1260 1.368 . S
H1245 C1253 0.950 . S
H1246 C1251 0.950 . S
H1247 C1252 0.949 . S
H1248 C1254 0.950 . S
H1249 C1255 0.950 . S
H1250 C1256 0.949 . S
C1251 H1246 0.950 . S
C1251 C1253 1.327 . S
C1251 C1257 1.429 . S
C1252 C1244 1.574 1_554 S
C1252 H1247 0.949 . S
C1252 C1258 1.368 . S
C1253 C1237 1.349 . S
C1253 H1245 0.950 . S
C1253 C1251 1.327 . S
C1254 C1242 1.349 . S
C1254 H1248 0.950 . S
C1254 C1255 1.327 . S
C1255 H1249 0.950 . S
C1255 C1254 1.327 . S
C1255 C1259 1.429 . S
C1256 C1239 1.574 1_556 S
C1256 H1250 0.949 . S
C1256 C1260 1.368 . S
C1257 C1238 1.429 . S
C1257 C1251 1.429 . S
C1257 C1258 1.523 . S
C1258 C1239 1.368 . S
C1258 C1252 1.368 . S
C1258 C1257 1.523 . S
C1259 C1243 1.429 . S
C1259 C1255 1.429 . S
C1259 C1260 1.523 . S
C1260 C1244 1.368 . S
C1260 C1256 1.368 . S
C1260 C1259 1.523 . S
H1261 C1236 0.950 . S
H1262 C1238 0.950 . S
H1263 C1239 0.949 . S
H1264 C1241 0.950 . S
H1265 C1243 0.950 . S
C1266 C1267 1.349 . S
C1266 C1268 1.327 . S
C1266 H1291 0.950 . S
C1267 C1266 1.349 . S
C1267 C1283 1.349 . S
C1268 C1266 1.327 . S
C1268 C1287 1.429 . S
C1268 H1292 0.950 . S
C1269 C1286 1.574 . S
C1269 C1288 1.368 1_565 S
C1269 H1293 0.949 . S
H1270 C1274 0.949 . S
C1271 C1272 1.349 . S
C1271 C1273 1.327 . S
C1271 H1294 0.950 . S
C1272 C1271 1.349 . S
C1272 C1284 1.349 . S
C1273 C1271 1.327 . S
C1273 C1289 1.429 . S
C1273 H1295 0.950 . S
C1274 H1270 0.949 . S
C1274 C1282 1.574 . S
C1274 C1290 1.368 1_545 S
H1275 C1283 0.950 . S
H1276 C1281 0.950 . S
H1277 C1282 0.949 . S
H1278 C1284 0.950 . S
H1279 C1285 0.950 . S
H1280 C1286 0.949 . S
C1281 H1276 0.950 . S
C1281 C1283 1.327 . S
C1281 C1287 1.429 . S
C1282 C1274 1.574 . S
C1282 H1277 0.949 . S
C1282 C1288 1.368 . S
C1283 C1267 1.349 . S
C1283 H1275 0.950 . S
C1283 C1281 1.327 . S
C1284 C1272 1.349 . S
C1284 H1278 0.950 . S
C1284 C1285 1.327 . S
C1285 H1279 0.950 . S
C1285 C1284 1.327 . S
C1285 C1289 1.429 . S
C1286 C1269 1.574 . S
C1286 H1280 0.949 . S
C1286 C1290 1.368 . S
C1287 C1268 1.429 . S
C1287 C1281 1.429 . S
C1287 C1288 1.523 . S
C1288 C1269 1.368 1_545 S
C1288 C1282 1.368 . S
C1288 C1287 1.523 . S
C1289 C1273 1.429 . S
C1289 C1285 1.429 . S
C1289 C1290 1.523 . S
C1290 C1274 1.368 1_565 S
C1290 C1286 1.368 . S
C1290 C1289 1.523 . S
H1291 C1266 0.950 . S
H1292 C1268 0.950 . S
H1293 C1269 0.949 . S
H1294 C1271 0.950 . S
H1295 C1273 0.950 . S
C1296 C1297 1.349 . S
C1296 C1298 1.327 . S
C1296 H1321 0.950 . S
C1297 C1296 1.349 . S
C1297 C1313 1.349 . S
C1298 C1296 1.327 . S
C1298 C1317 1.429 . S
C1298 H1322 0.950 . S
C1299 C1316 1.574 . S
C1299 C1318 1.368 . S
C1299 H1323 0.949 . S
H1300 C1304 0.949 . S
C1301 C1302 1.349 . S
C1301 C1303 1.327 . S
C1301 H1324 0.950 . S
C1302 C1301 1.349 . S
C1302 C1314 1.349 . S
C1303 C1301 1.327 . S
C1303 C1319 1.429 . S
C1303 H1325 0.950 . S
C1304 H1300 0.949 . S
C1304 C1312 1.574 . S
C1304 C1320 1.368 . S
H1305 C1313 0.950 . S
H1306 C1311 0.950 . S
H1307 C1312 0.949 . S
H1308 C1314 0.950 . S
H1309 C1315 0.950 . S
H1310 C1316 0.949 . S
C1311 H1306 0.950 . S
C1311 C1313 1.327 . S
C1311 C1317 1.429 . S
C1312 C1304 1.574 . S
C1312 H1307 0.949 . S
C1312 C1318 1.368 . S
C1313 C1297 1.349 . S
C1313 H1305 0.950 . S
C1313 C1311 1.327 . S
C1314 C1302 1.349 . S
C1314 H1308 0.950 . S
C1314 C1315 1.327 . S
C1315 H1309 0.950 . S
C1315 C1314 1.327 . S
C1315 C1319 1.429 . S
C1316 C1299 1.574 . S
C1316 H1310 0.949 . S
C1316 C1320 1.368 . S
C1317 C1298 1.429 . S
C1317 C1311 1.429 . S
C1317 C1318 1.523 . S
C1318 C1299 1.368 . S
C1318 C1312 1.368 . S
C1318 C1317 1.523 . S
C1319 C1303 1.429 . S
C1319 C1315 1.429 . S
C1319 C1320 1.523 . S
C1320 C1304 1.368 . S
C1320 C1316 1.368 . S
C1320 C1319 1.523 . S
H1321 C1296 0.950 . S
H1322 C1298 0.950 . S
H1323 C1299 0.949 . S
H1324 C1301 0.950 . S
H1325 C1303 0.950 . S
C1326 C1327 1.349 . S
C1326 C1328 1.327 . S
C1326 H1351 0.950 . S
C1327 C1326 1.349 . S
C1327 C1343 1.349 . S
C1328 C1326 1.327 . S
C1328 C1347 1.429 . S
C1328 H1352 0.950 . S
C1329 C1346 1.574 1_655 S
C1329 C1348 1.368 . S
C1329 H1353 0.949 . S
H1330 C1334 0.949 . S
C1331 C1332 1.349 . S
C1331 C1333 1.327 . S
C1331 H1354 0.950 . S
C1332 C1331 1.349 . S
C1332 C1344 1.349 . S
C1333 C1331 1.327 . S
C1333 C1349 1.429 . S
C1333 H1355 0.950 . S
C1334 H1330 0.949 . S
C1334 C1342 1.574 1_455 S
C1334 C1350 1.368 . S
H1335 C1343 0.950 . S
H1336 C1341 0.950 . S
H1337 C1342 0.949 . S
H1338 C1344 0.950 . S
H1339 C1345 0.950 . S
H1340 C1346 0.949 . S
C1341 H1336 0.950 . S
C1341 C1343 1.327 . S
C1341 C1347 1.429 . S
C1342 C1334 1.574 1_655 S
C1342 H1337 0.949 . S
C1342 C1348 1.368 . S
C1343 C1327 1.349 . S
C1343 H1335 0.950 . S
C1343 C1341 1.327 . S
C1344 C1332 1.349 . S
C1344 H1338 0.950 . S
C1344 C1345 1.327 . S
C1345 H1339 0.950 . S
C1345 C1344 1.327 . S
C1345 C1349 1.429 . S
C1346 C1329 1.574 1_455 S
C1346 H1340 0.949 . S
C1346 C1350 1.368 . S
C1347 C1328 1.429 . S
C1347 C1341 1.429 . S
C1347 C1348 1.523 . S
C1348 C1329 1.368 . S
C1348 C1342 1.368 . S
C1348 C1347 1.523 . S
C1349 C1333 1.429 . S
C1349 C1345 1.429 . S
C1349 C1350 1.523 . S
C1350 C1334 1.368 . S
C1350 C1346 1.368 . S
C1350 C1349 1.523 . S
H1351 C1326 0.950 . S
H1352 C1328 0.950 . S
H1353 C1329 0.949 . S
H1354 C1331 0.950 . S
H1355 C1333 0.950 . S
C1356 C1357 1.349 . S
C1356 C1358 1.327 . S
C1356 H1381 0.950 . S
C1357 C1356 1.349 . S
C1357 C1373 1.349 . S
C1358 C1356 1.327 . S
C1358 C1377 1.429 . S
C1358 H1382 0.950 . S
C1359 C1376 1.574 . S
C1359 C1378 1.368 . S
C1359 H1383 0.949 . S
H1360 C1364 0.949 . S
C1361 C1362 1.349 . S
C1361 C1363 1.327 . S
C1361 H1384 0.950 . S
C1362 C1361 1.349 . S
C1362 C1374 1.349 . S
C1363 C1361 1.327 . S
C1363 C1379 1.429 . S
C1363 H1385 0.950 . S
C1364 H1360 0.949 . S
C1364 C1372 1.574 . S
C1364 C1380 1.368 . S
H1365 C1373 0.950 . S
H1366 C1371 0.950 . S
H1367 C1372 0.949 . S
H1368 C1374 0.950 . S
H1369 C1375 0.950 . S
H1370 C1376 0.949 . S
C1371 H1366 0.950 . S
C1371 C1373 1.327 . S
C1371 C1377 1.429 . S
C1372 C1364 1.574 . S
C1372 H1367 0.949 . S
C1372 C1378 1.368 1_655 S
C1373 C1357 1.349 . S
C1373 H1365 0.950 . S
C1373 C1371 1.327 . S
C1374 C1362 1.349 . S
C1374 H1368 0.950 . S
C1374 C1375 1.327 . S
C1375 H1369 0.950 . S
C1375 C1374 1.327 . S
C1375 C1379 1.429 . S
C1376 C1359 1.574 . S
C1376 H1370 0.949 . S
C1376 C1380 1.368 1_455 S
C1377 C1358 1.429 . S
C1377 C1371 1.429 . S
C1377 C1378 1.523 . S
C1378 C1359 1.368 . S
C1378 C1372 1.368 1_455 S
C1378 C1377 1.523 . S
C1379 C1363 1.429 . S
C1379 C1375 1.429 . S
C1379 C1380 1.523 . S
C1380 C1364 1.368 . S
C1380 C1376 1.368 1_655 S
C1380 C1379 1.523 . S
H1381 C1356 0.950 . S
H1382 C1358 0.950 . S
H1383 C1359 0.949 . S
H1384 C1361 0.950 . S
H1385 C1363 0.950 . S
C1386 C1387 1.349 . S
C1386 C1388 1.327 . S
C1386 H1411 0.950 . S
C1387 C1386 1.349 . S
C1387 C1403 1.349 . S
C1388 C1386 1.327 . S
C1388 C1407 1.429 . S
C1388 H1412 0.950 . S
C1389 C1406 1.574 . S
C1389 C1408 1.368 . S
C1389 H1413 0.949 . S
H1390 C1394 0.949 . S
C1391 C1392 1.349 . S
C1391 C1393 1.327 . S
C1391 H1414 0.950 . S
C1392 C1391 1.349 . S
C1392 C1404 1.349 . S
C1393 C1391 1.327 . S
C1393 C1409 1.429 . S
C1393 H1415 0.950 . S
C1394 H1390 0.949 . S
C1394 C1402 1.574 . S
C1394 C1410 1.368 . S
H1395 C1403 0.950 . S
H1396 C1401 0.950 . S
H1397 C1402 0.949 . S
H1398 C1404 0.950 . S
H1399 C1405 0.950 . S
H1400 C1406 0.949 . S
C1401 H1396 0.950 . S
C1401 C1403 1.327 . S
C1401 C1407 1.429 . S
C1402 C1394 1.574 . S
C1402 H1397 0.949 . S
C1402 C1408 1.368 . S
C1403 C1387 1.349 . S
C1403 H1395 0.950 . S
C1403 C1401 1.327 . S
C1404 C1392 1.349 . S
C1404 H1398 0.950 . S
C1404 C1405 1.327 . S
C1405 H1399 0.950 . S
C1405 C1404 1.327 . S
C1405 C1409 1.429 . S
C1406 C1389 1.574 . S
C1406 H1400 0.949 . S
C1406 C1410 1.368 . S
C1407 C1388 1.429 . S
C1407 C1401 1.429 . S
C1407 C1408 1.523 . S
C1408 C1389 1.368 . S
C1408 C1402 1.368 . S
C1408 C1407 1.523 . S
C1409 C1393 1.429 . S
C1409 C1405 1.429 . S
C1409 C1410 1.523 . S
C1410 C1394 1.368 . S
C1410 C1406 1.368 . S
C1410 C1409 1.523 . S
H1411 C1386 0.950 . S
H1412 C1388 0.950 . S
H1413 C1389 0.949 . S
H1414 C1391 0.950 . S
H1415 C1393 0.950 . S
C1416 C1417 1.349 . S
C1416 C1418 1.327 . S
C1416 H1441 0.950 . S
C1417 C1416 1.349 . S
C1417 C1433 1.349 . S
C1418 C1416 1.327 . S
C1418 C1437 1.429 . S
C1418 H1442 0.950 . S
C1419 C1436 1.574 1_455 S
C1419 C1438 1.368 . S
C1419 H1443 0.949 . S
H1420 C1424 0.949 . S
C1421 C1422 1.349 . S
C1421 C1423 1.327 . S
C1421 H1444 0.950 . S
C1422 C1421 1.349 . S
C1422 C1434 1.349 . S
C1423 C1421 1.327 . S
C1423 C1439 1.429 . S
C1423 H1445 0.950 . S
C1424 H1420 0.949 . S
C1424 C1432 1.574 1_655 S
C1424 C1440 1.368 . S
H1425 C1433 0.950 . S
H1426 C1431 0.950 . S
H1427 C1432 0.949 . S
H1428 C1434 0.950 . S
H1429 C1435 0.950 . S
H1430 C1436 0.949 . S
C1431 H1426 0.950 . S
C1431 C1433 1.327 . S
C1431 C1437 1.429 . S
C1432 C1424 1.574 1_455 S
C1432 H1427 0.949 . S
C1432 C1438 1.368 . S
C1433 C1417 1.349 . S
C1433 H1425 0.950 . S
C1433 C1431 1.327 . S
C1434 C1422 1.349 . S
C1434 H1428 0.950 . S
C1434 C1435 1.327 . S
C1435 H1429 0.950 . S
C1435 C1434 1.327 . S
C1435 C1439 1.429 . S
C1436 C1419 1.574 1_655 S
C1436 H1430 0.949 . S
C1436 C1440 1.368 . S
C1437 C1418 1.429 . S
C1437 C1431 1.429 . S
C1437 C1438 1.523 . S
C1438 C1419 1.368 . S
C1438 C1432 1.368 . S
C1438 C1437 1.523 . S
C1439 C1423 1.429 . S
C1439 C1435 1.429 . S
C1439 C1440 1.523 . S
C1440 C1424 1.368 . S
C1440 C1436 1.368 . S
C1440 C1439 1.523 . S
H1441 C1416 0.950 . S
H1442 C1418 0.950 . S
H1443 C1419 0.949 . S
H1444 C1421 0.950 . S
H1445 C1423 0.950 . S
C1446 C1447 1.349 . S
C1446 C1448 1.327 . S
C1446 H1471 0.950 . S
C1447 C1446 1.349 . S
C1447 C1463 1.349 . S
C1448 C1446 1.327 . S
C1448 C1467 1.429 . S
C1448 H1472 0.950 . S
C1449 C1466 1.574 . S
C1449 C1468 1.368 1_655 S
C1449 H1473 0.949 . S
H1450 C1454 0.949 . S
C1451 C1452 1.349 . S
C1451 C1453 1.327 . S
C1451 H1474 0.950 . S
C1452 C1451 1.349 . S
C1452 C1464 1.349 . S
C1453 C1451 1.327 . S
C1453 C1469 1.429 . S
C1453 H1475 0.950 . S
C1454 H1450 0.949 . S
C1454 C1462 1.574 . S
C1454 C1470 1.368 1_455 S
H1455 C1463 0.950 . S
H1456 C1461 0.950 . S
H1457 C1462 0.949 . S
H1458 C1464 0.950 . S
H1459 C1465 0.950 . S
H1460 C1466 0.949 . S
C1461 H1456 0.950 . S
C1461 C1463 1.327 . S
C1461 C1467 1.429 . S
C1462 C1454 1.574 . S
C1462 H1457 0.949 . S
C1462 C1468 1.368 . S
C1463 C1447 1.349 . S
C1463 H1455 0.950 . S
C1463 C1461 1.327 . S
C1464 C1452 1.349 . S
C1464 H1458 0.950 . S
C1464 C1465 1.327 . S
C1465 H1459 0.950 . S
C1465 C1464 1.327 . S
C1465 C1469 1.429 . S
C1466 C1449 1.574 . S
C1466 H1460 0.949 . S
C1466 C1470 1.368 . S
C1467 C1448 1.429 . S
C1467 C1461 1.429 . S
C1467 C1468 1.523 . S
C1468 C1449 1.368 1_455 S
C1468 C1462 1.368 . S
C1468 C1467 1.523 . S
C1469 C1453 1.429 . S
C1469 C1465 1.429 . S
C1469 C1470 1.523 . S
C1470 C1454 1.368 1_655 S
C1470 C1466 1.368 . S
C1470 C1469 1.523 . S
H1471 C1446 0.950 . S
H1472 C1448 0.950 . S
H1473 C1449 0.949 . S
H1474 C1451 0.950 . S
H1475 C1453 0.950 . S
C1476 C1477 1.349 . S
C1476 C1478 1.327 . S
C1476 H1501 0.950 . S
C1477 C1476 1.349 . S
C1477 C1493 1.349 . S
C1478 C1476 1.327 . S
C1478 C1497 1.429 . S
C1478 H1502 0.950 . S
C1479 C1496 1.574 . S
C1479 C1498 1.368 . S
C1479 H1503 0.949 . S
H1480 C1484 0.949 . S
C1481 C1482 1.349 . S
C1481 C1483 1.327 . S
C1481 H1504 0.950 . S
C1482 C1481 1.349 . S
C1482 C1494 1.349 . S
C1483 C1481 1.327 . S
C1483 C1499 1.429 . S
C1483 H1505 0.950 . S
C1484 H1480 0.949 . S
C1484 C1492 1.574 . S
C1484 C1500 1.368 . S
H1485 C1493 0.950 . S
H1486 C1491 0.950 . S
H1487 C1492 0.949 . S
H1488 C1494 0.950 . S
H1489 C1495 0.950 . S
H1490 C1496 0.949 . S
C1491 H1486 0.950 . S
C1491 C1493 1.327 . S
C1491 C1497 1.429 . S
C1492 C1484 1.574 . S
C1492 H1487 0.949 . S
C1492 C1498 1.368 . S
C1493 C1477 1.349 . S
C1493 H1485 0.950 . S
C1493 C1491 1.327 . S
C1494 C1482 1.349 . S
C1494 H1488 0.950 . S
C1494 C1495 1.327 . S
C1495 H1489 0.950 . S
C1495 C1494 1.327 . S
C1495 C1499 1.429 . S
C1496 C1479 1.574 . S
C1496 H1490 0.949 . S
C1496 C1500 1.368 . S
C1497 C1478 1.429 . S
C1497 C1491 1.429 . S
C1497 C1498 1.523 . S
C1498 C1479 1.368 . S
C1498 C1492 1.368 . S
C1498 C1497 1.523 . S
C1499 C1483 1.429 . S
C1499 C1495 1.429 . S
C1499 C1500 1.523 . S
C1500 C1484 1.368 . S
C1500 C1496 1.368 . S
C1500 C1499 1.523 . S
H1501 C1476 0.950 . S
H1502 C1478 0.950 . S
H1503 C1479 0.949 . S
H1504 C1481 0.950 . S
H1505 C1483 0.950 . S
C1506 C1507 1.349 . S
C1506 C1508 1.327 . S
C1506 H1531 0.950 . S
C1507 C1506 1.349 . S
C1507 C1523 1.349 . S
C1508 C1506 1.327 . S
C1508 C1527 1.429 . S
C1508 H1532 0.950 . S
C1509 C1526 1.574 . S
C1509 C1528 1.368 1_545 S
C1509 H1533 0.949 . S
H1510 C1514 0.949 . S
C1511 C1512 1.349 . S
C1511 C1513 1.327 . S
C1511 H1534 0.950 . S
C1512 C1511 1.349 . S
C1512 C1524 1.349 . S
C1513 C1511 1.327 . S
C1513 C1529 1.429 . S
C1513 H1535 0.950 . S
C1514 H1510 0.949 . S
C1514 C1522 1.574 . S
C1514 C1530 1.368 1_565 S
H1515 C1523 0.950 . S
H1516 C1521 0.950 . S
H1517 C1522 0.949 . S
H1518 C1524 0.950 . S
H1519 C1525 0.950 . S
H1520 C1526 0.949 . S
C1521 H1516 0.950 . S
C1521 C1523 1.327 . S
C1521 C1527 1.429 . S
C1522 C1514 1.574 . S
C1522 H1517 0.949 . S
C1522 C1528 1.368 . S
C1523 C1507 1.349 . S
C1523 H1515 0.950 . S
C1523 C1521 1.327 . S
C1524 C1512 1.349 . S
C1524 H1518 0.950 . S
C1524 C1525 1.327 . S
C1525 H1519 0.950 . S
C1525 C1524 1.327 . S
C1525 C1529 1.429 . S
C1526 C1509 1.574 . S
C1526 H1520 0.949 . S
C1526 C1530 1.368 . S
C1527 C1508 1.429 . S
C1527 C1521 1.429 . S
C1527 C1528 1.523 . S
C1528 C1509 1.368 1_565 S
C1528 C1522 1.368 . S
C1528 C1527 1.523 . S
C1529 C1513 1.429 . S
C1529 C1525 1.429 . S
C1529 C1530 1.523 . S
C1530 C1514 1.368 1_545 S
C1530 C1526 1.368 . S
C1530 C1529 1.523 . S
H1531 C1506 0.950 . S
H1532 C1508 0.950 . S
H1533 C1509 0.949 . S
H1534 C1511 0.950 . S
H1535 C1513 0.950 . S
C1536 C1537 1.349 . S
C1536 C1538 1.327 . S
C1536 H1561 0.950 . S
C1537 C1536 1.349 . S
C1537 C1553 1.349 . S
C1538 C1536 1.327 . S
C1538 C1557 1.429 . S
C1538 H1562 0.950 . S
C1539 C1556 1.574 . S
C1539 C1558 1.368 1_554 S
C1539 H1563 0.949 . S
H1540 C1544 0.949 . S
C1541 C1542 1.349 . S
C1541 C1543 1.327 . S
C1541 H1564 0.950 . S
C1542 C1541 1.349 . S
C1542 C1554 1.349 . S
C1543 C1541 1.327 . S
C1543 C1559 1.429 . S
C1543 H1565 0.950 . S
C1544 H1540 0.949 . S
C1544 C1552 1.574 . S
C1544 C1560 1.368 1_556 S
H1545 C1553 0.950 . S
H1546 C1551 0.950 . S
H1547 C1552 0.949 . S
H1548 C1554 0.950 . S
H1549 C1555 0.950 . S
H1550 C1556 0.949 . S
C1551 H1546 0.950 . S
C1551 C1553 1.327 . S
C1551 C1557 1.429 . S
C1552 C1544 1.574 . S
C1552 H1547 0.949 . S
C1552 C1558 1.368 . S
C1553 C1537 1.349 . S
C1553 H1545 0.950 . S
C1553 C1551 1.327 . S
C1554 C1542 1.349 . S
C1554 H1548 0.950 . S
C1554 C1555 1.327 . S
C1555 H1549 0.950 . S
C1555 C1554 1.327 . S
C1555 C1559 1.429 . S
C1556 C1539 1.574 . S
C1556 H1550 0.949 . S
C1556 C1560 1.368 . S
C1557 C1538 1.429 . S
C1557 C1551 1.429 . S
C1557 C1558 1.523 . S
C1558 C1539 1.368 1_556 S
C1558 C1552 1.368 . S
C1558 C1557 1.523 . S
C1559 C1543 1.429 . S
C1559 C1555 1.429 . S
C1559 C1560 1.523 . S
C1560 C1544 1.368 1_554 S
C1560 C1556 1.368 . S
C1560 C1559 1.523 . S
H1561 C1536 0.950 . S
H1562 C1538 0.950 . S
H1563 C1539 0.949 . S
H1564 C1541 0.950 . S
H1565 C1543 0.950 . S
C1566 C1567 1.349 . S
C1566 C1568 1.327 . S
C1566 H1591 0.950 . S
C1567 C1566 1.349 . S
C1567 C1583 1.349 . S
C1568 C1566 1.327 . S
C1568 C1587 1.429 . S
C1568 H1592 0.950 . S
C1569 C1586 1.574 . S
C1569 C1588 1.368 . S
C1569 H1593 0.949 . S
H1570 C1574 0.949 . S
C1571 C1572 1.349 . S
C1571 C1573 1.327 . S
C1571 H1594 0.950 . S
C1572 C1571 1.349 . S
C1572 C1584 1.349 . S
C1573 C1571 1.327 . S
C1573 C1589 1.429 . S
C1573 H1595 0.950 . S
C1574 H1570 0.949 . S
C1574 C1582 1.574 . S
C1574 C1590 1.368 . S
H1575 C1583 0.950 . S
H1576 C1581 0.950 . S
H1577 C1582 0.949 . S
H1578 C1584 0.950 . S
H1579 C1585 0.950 . S
H1580 C1586 0.949 . S
C1581 H1576 0.950 . S
C1581 C1583 1.327 . S
C1581 C1587 1.429 . S
C1582 C1574 1.574 . S
C1582 H1577 0.949 . S
C1582 C1588 1.368 1_565 S
C1583 C1567 1.349 . S
C1583 H1575 0.950 . S
C1583 C1581 1.327 . S
C1584 C1572 1.349 . S
C1584 H1578 0.950 . S
C1584 C1585 1.327 . S
C1585 H1579 0.950 . S
C1585 C1584 1.327 . S
C1585 C1589 1.429 . S
C1586 C1569 1.574 . S
C1586 H1580 0.949 . S
C1586 C1590 1.368 1_545 S
C1587 C1568 1.429 . S
C1587 C1581 1.429 . S
C1587 C1588 1.523 . S
C1588 C1569 1.368 . S
C1588 C1582 1.368 1_545 S
C1588 C1587 1.523 . S
C1589 C1573 1.429 . S
C1589 C1585 1.429 . S
C1589 C1590 1.523 . S
C1590 C1574 1.368 . S
C1590 C1586 1.368 1_565 S
C1590 C1589 1.523 . S
H1591 C1566 0.950 . S
H1592 C1568 0.950 . S
H1593 C1569 0.949 . S
H1594 C1571 0.950 . S
H1595 C1573 0.950 . S
C1596 C1597 1.349 . S
C1596 C1598 1.327 . S
C1596 H1621 0.950 . S
C1597 C1596 1.349 . S
C1597 C1613 1.349 . S
C1598 C1596 1.327 . S
C1598 C1617 1.429 . S
C1598 H1622 0.950 . S
C1599 C1616 1.574 . S
C1599 C1618 1.368 . S
C1599 H1623 0.949 . S
H1600 C1604 0.949 . S
C1601 C1602 1.349 . S
C1601 C1603 1.327 . S
C1601 H1624 0.950 . S
C1602 C1601 1.349 . S
C1602 C1614 1.349 . S
C1603 C1601 1.327 . S
C1603 C1619 1.429 . S
C1603 H1625 0.950 . S
C1604 H1600 0.949 . S
C1604 C1612 1.574 . S
C1604 C1620 1.368 . S
H1605 C1613 0.950 . S
H1606 C1611 0.950 . S
H1607 C1612 0.949 . S
H1608 C1614 0.950 . S
H1609 C1615 0.950 . S
H1610 C1616 0.949 . S
C1611 H1606 0.950 . S
C1611 C1613 1.327 . S
C1611 C1617 1.429 . S
C1612 C1604 1.574 . S
C1612 H1607 0.949 . S
C1612 C1618 1.368 . S
C1613 C1597 1.349 . S
C1613 H1605 0.950 . S
C1613 C1611 1.327 . S
C1614 C1602 1.349 . S
C1614 H1608 0.950 . S
C1614 C1615 1.327 . S
C1615 H1609 0.950 . S
C1615 C1614 1.327 . S
C1615 C1619 1.429 . S
C1616 C1599 1.574 . S
C1616 H1610 0.949 . S
C1616 C1620 1.368 . S
C1617 C1598 1.429 . S
C1617 C1611 1.429 . S
C1617 C1618 1.523 . S
C1618 C1599 1.368 . S
C1618 C1612 1.368 . S
C1618 C1617 1.523 . S
C1619 C1603 1.429 . S
C1619 C1615 1.429 . S
C1619 C1620 1.523 . S
C1620 C1604 1.368 . S
C1620 C1616 1.368 . S
C1620 C1619 1.523 . S
H1621 C1596 0.950 . S
H1622 C1598 0.950 . S
H1623 C1599 0.949 . S
H1624 C1601 0.950 . S
H1625 C1603 0.950 . S
C1626 C1627 1.349 . S
C1626 C1628 1.327 . S
C1626 H1651 0.950 . S
C1627 C1626 1.349 . S
C1627 C1643 1.349 . S
C1628 C1626 1.327 . S
C1628 C1647 1.429 . S
C1628 H1652 0.950 . S
C1629 C1646 1.574 1_554 S
C1629 C1648 1.368 . S
C1629 H1653 0.949 . S
H1630 C1634 0.949 . S
C1631 C1632 1.349 . S
C1631 C1633 1.327 . S
C1631 H1654 0.950 . S
C1632 C1631 1.349 . S
C1632 C1644 1.349 . S
C1633 C1631 1.327 . S
C1633 C1649 1.429 . S
C1633 H1655 0.950 . S
C1634 H1630 0.949 . S
C1634 C1642 1.574 1_556 S
C1634 C1650 1.368 . S
H1635 C1643 0.950 . S
H1636 C1641 0.950 . S
H1637 C1642 0.949 . S
H1638 C1644 0.950 . S
H1639 C1645 0.950 . S
H1640 C1646 0.949 . S
C1641 H1636 0.950 . S
C1641 C1643 1.327 . S
C1641 C1647 1.429 . S
C1642 C1634 1.574 1_554 S
C1642 H1637 0.949 . S
C1642 C1648 1.368 . S
C1643 C1627 1.349 . S
C1643 H1635 0.950 . S
C1643 C1641 1.327 . S
C1644 C1632 1.349 . S
C1644 H1638 0.950 . S
C1644 C1645 1.327 . S
C1645 H1639 0.950 . S
C1645 C1644 1.327 . S
C1645 C1649 1.429 . S
C1646 C1629 1.574 1_556 S
C1646 H1640 0.949 . S
C1646 C1650 1.368 . S
C1647 C1628 1.429 . S
C1647 C1641 1.429 . S
C1647 C1648 1.523 . S
C1648 C1629 1.368 . S
C1648 C1642 1.368 . S
C1648 C1647 1.523 . S
C1649 C1633 1.429 . S
C1649 C1645 1.429 . S
C1649 C1650 1.523 . S
C1650 C1634 1.368 . S
C1650 C1646 1.368 . S
C1650 C1649 1.523 . S
H1651 C1626 0.950 . S
H1652 C1628 0.950 . S
H1653 C1629 0.949 . S
H1654 C1631 0.950 . S
H1655 C1633 0.950 . S
C1656 C1657 1.349 . S
C1656 C1658 1.327 . S
C1656 H1681 0.950 . S
C1657 C1656 1.349 . S
C1657 C1673 1.349 . S
C1658 C1656 1.327 . S
C1658 C1677 1.429 . S
C1658 H1682 0.950 . S
C1659 C1676 1.574 . S
C1659 C1678 1.368 . S
C1659 H1683 0.949 . S
H1660 C1664 0.949 . S
C1661 C1662 1.349 . S
C1661 C1663 1.327 . S
C1661 H1684 0.950 . S
C1662 C1661 1.349 . S
C1662 C1674 1.349 . S
C1663 C1661 1.327 . S
C1663 C1679 1.429 . S
C1663 H1685 0.950 . S
C1664 H1660 0.949 . S
C1664 C1672 1.574 . S
C1664 C1680 1.368 . S
H1665 C1673 0.950 . S
H1666 C1671 0.950 . S
H1667 C1672 0.949 . S
H1668 C1674 0.950 . S
H1669 C1675 0.950 . S
H1670 C1676 0.949 . S
C1671 H1666 0.950 . S
C1671 C1673 1.327 . S
C1671 C1677 1.429 . S
C1672 C1664 1.574 . S
C1672 H1667 0.949 . S
C1672 C1678 1.368 . S
C1673 C1657 1.349 . S
C1673 H1665 0.950 . S
C1673 C1671 1.327 . S
C1674 C1662 1.349 . S
C1674 H1668 0.950 . S
C1674 C1675 1.327 . S
C1675 H1669 0.950 . S
C1675 C1674 1.327 . S
C1675 C1679 1.429 . S
C1676 C1659 1.574 . S
C1676 H1670 0.949 . S
C1676 C1680 1.368 . S
C1677 C1658 1.429 . S
C1677 C1671 1.429 . S
C1677 C1678 1.523 . S
C1678 C1659 1.368 . S
C1678 C1672 1.368 . S
C1678 C1677 1.523 . S
C1679 C1663 1.429 . S
C1679 C1675 1.429 . S
C1679 C1680 1.523 . S
C1680 C1664 1.368 . S
C1680 C1676 1.368 . S
C1680 C1679 1.523 . S
H1681 C1656 0.950 . S
H1682 C1658 0.950 . S
H1683 C1659 0.949 . S
H1684 C1661 0.950 . S
H1685 C1663 0.950 . S
C1686 C1687 1.349 . S
C1686 C1688 1.327 . S
C1686 H1711 0.950 . S
C1687 C1686 1.349 . S
C1687 C1703 1.349 . S
C1688 C1686 1.327 . S
C1688 C1707 1.429 . S
C1688 H1712 0.950 . S
C1689 C1706 1.574 . S
C1689 C1708 1.368 . S
C1689 H1713 0.949 . S
H1690 C1694 0.949 . S
C1691 C1692 1.349 . S
C1691 C1693 1.327 . S
C1691 H1714 0.950 . S
C1692 C1691 1.349 . S
C1692 C1704 1.349 . S
C1693 C1691 1.327 . S
C1693 C1709 1.429 . S
C1693 H1715 0.950 . S
C1694 H1690 0.949 . S
C1694 C1702 1.574 . S
C1694 C1710 1.368 . S
H1695 C1703 0.950 . S
H1696 C1701 0.950 . S
H1697 C1702 0.949 . S
H1698 C1704 0.950 . S
H1699 C1705 0.950 . S
H1700 C1706 0.949 . S
C1701 H1696 0.950 . S
C1701 C1703 1.327 . S
C1701 C1707 1.429 . S
C1702 C1694 1.574 . S
C1702 H1697 0.949 . S
C1702 C1708 1.368 . S
C1703 C1687 1.349 . S
C1703 H1695 0.950 . S
C1703 C1701 1.327 . S
C1704 C1692 1.349 . S
C1704 H1698 0.950 . S
C1704 C1705 1.327 . S
C1705 H1699 0.950 . S
C1705 C1704 1.327 . S
C1705 C1709 1.429 . S
C1706 C1689 1.574 . S
C1706 H1700 0.949 . S
C1706 C1710 1.368 . S
C1707 C1688 1.429 . S
C1707 C1701 1.429 . S
C1707 C1708 1.523 . S
C1708 C1689 1.368 . S
C1708 C1702 1.368 . S
C1708 C1707 1.523 . S
C1709 C1693 1.429 . S
C1709 C1705 1.429 . S
C1709 C1710 1.523 . S
C1710 C1694 1.368 . S
C1710 C1706 1.368 . S
C1710 C1709 1.523 . S
H1711 C1686 0.950 . S
H1712 C1688 0.950 . S
H1713 C1689 0.949 . S
H1714 C1691 0.950 . S
H1715 C1693 0.950 . S
C1716 C1717 1.349 . S
C1716 C1718 1.327 . S
C1716 H1741 0.950 . S
C1717 C1716 1.349 . S
C1717 C1733 1.349 . S
C1718 C1716 1.327 . S
C1718 C1737 1.429 . S
C1718 H1742 0.950 . S
C1719 C1736 1.574 . S
C1719 C1738 1.368 . S
C1719 H1743 0.949 . S
H1720 C1724 0.949 . S
C1721 C1722 1.349 . S
C1721 C1723 1.327 . S
C1721 H1744 0.950 . S
C1722 C1721 1.349 . S
C1722 C1734 1.349 . S
C1723 C1721 1.327 . S
C1723 C1739 1.429 . S
C1723 H1745 0.950 . S
C1724 H1720 0.949 . S
C1724 C1732 1.574 . S
C1724 C1740 1.368 . S
H1725 C1733 0.950 . S
H1726 C1731 0.950 . S
H1727 C1732 0.949 . S
H1728 C1734 0.950 . S
H1729 C1735 0.950 . S
H1730 C1736 0.949 . S
C1731 H1726 0.950 . S
C1731 C1733 1.327 . S
C1731 C1737 1.429 . S
C1732 C1724 1.574 . S
C1732 H1727 0.949 . S
C1732 C1738 1.368 . S
C1733 C1717 1.349 . S
C1733 H1725 0.950 . S
C1733 C1731 1.327 . S
C1734 C1722 1.349 . S
C1734 H1728 0.950 . S
C1734 C1735 1.327 . S
C1735 H1729 0.950 . S
C1735 C1734 1.327 . S
C1735 C1739 1.429 . S
C1736 C1719 1.574 . S
C1736 H1730 0.949 . S
C1736 C1740 1.368 . S
C1737 C1718 1.429 . S
C1737 C1731 1.429 . S
C1737 C1738 1.523 . S
C1738 C1719 1.368 . S
C1738 C1732 1.368 . S
C1738 C1737 1.523 . S
C1739 C1723 1.429 . S
C1739 C1735 1.429 . S
C1739 C1740 1.523 . S
C1740 C1724 1.368 . S
C1740 C1736 1.368 . S
C1740 C1739 1.523 . S
H1741 C1716 0.950 . S
H1742 C1718 0.950 . S
H1743 C1719 0.949 . S
H1744 C1721 0.950 . S
H1745 C1723 0.950 . S
C1746 C1747 1.349 . S
C1746 C1748 1.327 . S
C1746 H1771 0.950 . S
C1747 C1746 1.349 . S
C1747 C1763 1.349 . S
C1748 C1746 1.327 . S
C1748 C1767 1.429 . S
C1748 H1772 0.950 . S
C1749 C1766 1.574 . S
C1749 C1768 1.368 . S
C1749 H1773 0.949 . S
H1750 C1754 0.949 . S
C1751 C1752 1.349 . S
C1751 C1753 1.327 . S
C1751 H1774 0.950 . S
C1752 C1751 1.349 . S
C1752 C1764 1.349 . S
C1753 C1751 1.327 . S
C1753 C1769 1.429 . S
C1753 H1775 0.950 . S
C1754 H1750 0.949 . S
C1754 C1762 1.574 . S
C1754 C1770 1.368 . S
H1755 C1763 0.950 . S
H1756 C1761 0.950 . S
H1757 C1762 0.949 . S
H1758 C1764 0.950 . S
H1759 C1765 0.950 . S
H1760 C1766 0.949 . S
C1761 H1756 0.950 . S
C1761 C1763 1.327 . S
C1761 C1767 1.429 . S
C1762 C1754 1.574 . S
C1762 H1757 0.949 . S
C1762 C1768 1.368 . S
C1763 C1747 1.349 . S
C1763 H1755 0.950 . S
C1763 C1761 1.327 . S
C1764 C1752 1.349 . S
C1764 H1758 0.950 . S
C1764 C1765 1.327 . S
C1765 H1759 0.950 . S
C1765 C1764 1.327 . S
C1765 C1769 1.429 . S
C1766 C1749 1.574 . S
C1766 H1760 0.949 . S
C1766 C1770 1.368 . S
C1767 C1748 1.429 . S
C1767 C1761 1.429 . S
C1767 C1768 1.523 . S
C1768 C1749 1.368 . S
C1768 C1762 1.368 . S
C1768 C1767 1.523 . S
C1769 C1753 1.429 . S
C1769 C1765 1.429 . S
C1769 C1770 1.523 . S
C1770 C1754 1.368 . S
C1770 C1766 1.368 . S
C1770 C1769 1.523 . S
H1771 C1746 0.950 . S
H1772 C1748 0.950 . S
H1773 C1749 0.949 . S
H1774 C1751 0.950 . S
H1775 C1753 0.950 . S
C337 C0 1.416 . S
C342 C126 1.416 . S
C367 C27 1.417 . S
C372 C153 1.417 . S
C397 C155 1.417 . S
C402 C28 1.416 . S
C427 C112 1.416 . S
C432 C42 1.416 . S
C457 C141 1.417 . S
C462 C68 1.416 . S
C487 C70 1.416 . S
C492 C167 1.417 . S
C517 C96 1.416 . S
C522 C124 1.416 . S
C547 C138 1.416 . S
C552 C99 1.417 . S
C577 C56 1.416 . S
C582 C169 1.417 . S
C607 C111 1.417 . S
C612 C222 1.416 . S
C637 C237 1.417 . S
C642 C82 1.416 . S
C667 C54 1.416 . S
C672 C195 1.417 . S
C697 C208 1.416 . S
C702 C84 1.416 . S
C727 C12 1.416 . S
C732 C279 1.417 . S
C757 C40 1.416 . S
C762 C265 1.417 . S
C787 C210 1.416 . S
C792 C294 1.416 . S
C817 C320 1.416 . S
C822 C181 1.417 . S
C847 C334 1.416 . S
C852 C225 1.417 . S
C877 C292 1.416 . S
C882 C196 1.416 . S
C907 C308 1.416 . S
C912 C250 1.416 . S
C937 C253 1.417 . S
C942 C322 1.416 . S
C967 C280 1.416 . S
C972 C183 1.417 . S
C997 C267 1.417 . S
C1002 C306 1.416 . S
C1027 C15 1.417 . S
C1032 C238 1.416 . S
C1057 C69 0.740 . S
C1062 C1 0.740 . S
C1087 C26 0.740 . S
C1092 C71 0.740 . S
C1117 C29 0.740 . S
C1122 C97 0.740 . S
C1147 C98 0.740 . S
C1152 C43 0.740 . S
C1177 C113 0.740 . S
C1182 C139 0.740 . S
C1207 C127 0.740 . S
C1212 C140 0.740 . S
C1237 C166 0.740 . S
C1242 C152 0.740 . S
C1267 C125 0.740 . S
C1272 C154 0.740 . S
C1297 C55 0.740 . S
C1302 C168 0.740 . S
C1327 C110 0.740 . S
C1332 C264 0.740 . S
C1357 C57 0.740 . S
C1362 C194 0.740 . S
C1387 C278 0.740 . S
C1392 C83 0.740 . S
C1417 C209 0.740 . S
C1422 C14 0.740 . S
C1447 C13 0.740 . S
C1452 C236 0.740 . S
C1477 C41 0.740 . S
C1482 C223 0.740 . S
C1507 C211 0.740 . S
C1512 C251 0.740 . S
C1537 C252 0.740 . S
C1542 C180 0.740 . S
C1567 C224 0.740 . S
C1572 C182 0.740 . S
C1597 C197 0.740 . S
C1602 C266 0.740 . S
C1627 C307 0.740 . S
C1632 C293 0.740 . S
C1657 C309 0.740 . S
C1662 C295 0.740 . S
C1687 C323 0.740 . S
C1692 C321 0.740 . S
C1717 C281 0.740 . S
C1722 C335 0.740 . S
C1747 C239 0.740 . S
C1752 C85 0.740 . S
