# Generated by pormake.
# Topology uoc, (4)-cn, num edge types: 1
# Building blocks:
#     Node 0, Type 0, BuildingBlock: QUQFOY_clean_sbu_3, # of connection points: 4
#     Node 1, Type 0, BuildingBlock: QUQFOY_clean_sbu_3, # of connection points: 4
#     Node 2, Type 0, BuildingBlock: QUQFOY_clean_sbu_3, # of connection points: 4
#     Node 3, Type 0, BuildingBlock: QUQFOY_clean_sbu_3, # of connection points: 4
#     Node 4, Type 0, BuildingBlock: QUQFOY_clean_sbu_3, # of connection points: 4
#     Node 5, Type 0, BuildingBlock: QUQFOY_clean_sbu_3, # of connection points: 4
#     Node 6, Type 0, BuildingBlock: QUQFOY_clean_sbu_3, # of connection points: 4
#     Node 7, Type 0, BuildingBlock: QUQFOY_clean_sbu_3, # of connection points: 4
#     Edge 8, Type (0, 0), BuildingBlock: XUDNAN_clean_linker_2, # of connection points: 2
#     Edge 9, Type (0, 0), BuildingBlock: XUDNAN_clean_linker_2, # of connection points: 2
#     Edge 10, Type (0, 0), BuildingBlock: XUDNAN_clean_linker_2, # of connection points: 2
#     Edge 11, Type (0, 0), BuildingBlock: XUDNAN_clean_linker_2, # of connection points: 2
#     Edge 12, Type (0, 0), BuildingBlock: XUDNAN_clean_linker_2, # of connection points: 2
#     Edge 13, Type (0, 0), BuildingBlock: XUDNAN_clean_linker_2, # of connection points: 2
#     Edge 14, Type (0, 0), BuildingBlock: XUDNAN_clean_linker_2, # of connection points: 2
#     Edge 15, Type (0, 0), BuildingBlock: XUDNAN_clean_linker_2, # of connection points: 2
#     Edge 16, Type (0, 0), BuildingBlock: XUDNAN_clean_linker_2, # of connection points: 2
#     Edge 17, Type (0, 0), BuildingBlock: XUDNAN_clean_linker_2, # of connection points: 2
#     Edge 18, Type (0, 0), BuildingBlock: XUDNAN_clean_linker_2, # of connection points: 2
#     Edge 19, Type (0, 0), BuildingBlock: XUDNAN_clean_linker_2, # of connection points: 2
#     Edge 20, Type (0, 0), BuildingBlock: XUDNAN_clean_linker_2, # of connection points: 2
#     Edge 21, Type (0, 0), BuildingBlock: XUDNAN_clean_linker_2, # of connection points: 2
#     Edge 22, Type (0, 0), BuildingBlock: XUDNAN_clean_linker_2, # of connection points: 2
#     Edge 23, Type (0, 0), BuildingBlock: XUDNAN_clean_linker_2, # of connection points: 2
# Relax obj value: 0.101
# Max RMSD: 0.112
# Mean RMSD: 0.112
data_MOF--net-uoc--node1-QUQFOY_clean_sbu_3--edge1-XUDNAN_clean_linker_2
_symmetry_space_group_name_H-M    P1
_symmetry_Int_Tables_number       1
_symmetry_cell_setting            triclinic
loop_
_symmetry_equiv_pos_as_xyz
'x, y, z'
_cell_length_a     28.017291
_cell_length_b     27.866747
_cell_length_c     58.80388
_cell_angle_alpha  90.134892
_cell_angle_beta   90.036087
_cell_angle_gamma 95.487018
loop_
_atom_site_label
_atom_site_type_symbol
_atom_site_fract_x
_atom_site_fract_y
_atom_site_fract_z
_atom_type_partial_charge
C0 C 0.21148 0.22985 0.0506 0.0
O1 O 0.22813 0.20242 0.06524 0.0
Cd2 Cd 0.19488 0.18661 0.10236 0.0
O3 O 0.17644 0.25398 0.05556 0.0
Cd4 Cd 0.12548 0.26859 0.08914 0.0
C5 C 0.07792 0.15125 0.08722 0.0
O6 O 0.18545 0.26292 0.11931 0.0
O7 O 0.11234 0.2683 0.13005 0.0
O8 O 0.13617 0.35449 0.08023 0.0
C9 C 0.15582 0.2659 0.13543 0.0
O10 O 0.11796 0.14063 0.09507 0.0
C11 C 0.09186 0.36071 0.08025 0.0
O12 O 0.07115 0.19486 0.08272 0.0
O13 O 0.06274 0.32357 0.08366 0.0
C14 C 0.73487 0.70935 0.38326 0.0
O15 O 0.7135 0.73891 0.37154 0.0
Cd16 Cd 0.69391 0.71951 0.33251 0.0
O17 O 0.74817 0.67133 0.37416 0.0
Cd18 Cd 0.7506 0.6277 0.33744 0.0
C19 C 0.63049 0.60822 0.3412 0.0
O20 O 0.76203 0.6965 0.31151 0.0
O21 O 0.74109 0.62693 0.29621 0.0
O22 O 0.83389 0.62845 0.34717 0.0
C23 C 0.75466 0.67131 0.29356 0.0
O24 O 0.63219 0.65298 0.33663 0.0
C25 C 0.83787 0.58386 0.3446 0.0
O26 O 0.6689 0.58741 0.34335 0.0
O27 O 0.80013 0.55765 0.33868 0.0
C28 C 0.27226 0.24979 0.55115 0.0
O29 O 0.25286 0.27498 0.56589 0.0
Cd30 Cd 0.28285 0.2871 0.60363 0.0
O31 O 0.30788 0.2268 0.55649 0.0
Cd32 Cd 0.35424 0.21092 0.59172 0.0
C33 C 0.40073 0.32778 0.59339 0.0
O34 O 0.28879 0.20857 0.61927 0.0
O35 O 0.36005 0.21445 0.63353 0.0
O36 O 0.34568 0.12561 0.58153 0.0
C37 C 0.31516 0.20809 0.63676 0.0
O38 O 0.35936 0.33696 0.60012 0.0
C39 C 0.38989 0.11938 0.58264 0.0
O40 O 0.40882 0.28486 0.5882 0.0
O41 O 0.41836 0.15624 0.58756 0.0
C42 C 0.73836 0.75763 0.8809 0.0
O43 O 0.76294 0.73892 0.86573 0.0
Cd44 Cd 0.78258 0.77769 0.82997 0.0
O45 O 0.72014 0.7969 0.87688 0.0
Cd46 Cd 0.71857 0.85308 0.84415 0.0
C47 C 0.83779 0.88374 0.84924 0.0
O48 O 0.71303 0.80121 0.80993 0.0
O49 O 0.74038 0.87569 0.80535 0.0
O50 O 0.63285 0.86515 0.84787 0.0
C51 C 0.72477 0.83582 0.79641 0.0
O52 O 0.84334 0.84498 0.83846 0.0
C53 C 0.6403 0.91016 0.85161 0.0
O54 O 0.79603 0.89376 0.85489 0.0
O55 O 0.68375 0.92784 0.85232 0.0
C56 C 0.71024 0.7367 0.54864 0.0
O57 O 0.73781 0.72194 0.56368 0.0
Cd58 Cd 0.71477 0.70741 0.60223 0.0
O59 O 0.66865 0.74798 0.55408 0.0
Cd60 Cd 0.62047 0.75249 0.58995 0.0
C61 C 0.61224 0.63079 0.59394 0.0
O62 O 0.68401 0.77837 0.61705 0.0
O63 O 0.61711 0.74874 0.63179 0.0
O64 O 0.60103 0.83398 0.58089 0.0
C65 C 0.65849 0.77059 0.63469 0.0
O66 O 0.65589 0.63698 0.60025 0.0
C67 C 0.55586 0.82435 0.58111 0.0
O68 O 0.5898 0.66666 0.58829 0.0
O69 O 0.54032 0.7807 0.58482 0.0
C70 C 0.24667 0.20235 0.88691 0.0
O71 O 0.22491 0.23095 0.87482 0.0
Cd72 Cd 0.19838 0.20322 0.83764 0.0
O73 O 0.25775 0.16275 0.87858 0.0
Cd74 Cd 0.25616 0.11578 0.84294 0.0
C75 C 0.13865 0.09301 0.85203 0.0
O76 O 0.2605 0.17768 0.81299 0.0
O77 O 0.23215 0.10506 0.8037 0.0
O78 O 0.34141 0.12 0.8481 0.0
C79 C 0.2464 0.14758 0.79752 0.0
O80 O 0.13797 0.13702 0.84636 0.0
C81 C 0.3455 0.07511 0.84769 0.0
O82 O 0.17802 0.07364 0.85314 0.0
O83 O 0.30713 0.04738 0.84475 0.0
C84 C 0.77233 0.72555 0.04404 0.0
O85 O 0.74351 0.74671 0.05629 0.0
Cd86 Cd 0.76618 0.77441 0.09406 0.0
O87 O 0.81302 0.71706 0.05186 0.0
Cd88 Cd 0.8608 0.72889 0.08722 0.0
C89 C 0.86627 0.85003 0.08155 0.0
O90 O 0.8007 0.7158 0.11794 0.0
O91 O 0.86938 0.75401 0.12644 0.0
O92 O 0.8814 0.6458 0.08531 0.0
C93 C 0.82925 0.73423 0.13313 0.0
O94 O 0.8227 0.84529 0.08801 0.0
C95 C 0.92628 0.65616 0.08326 0.0
O96 O 0.88921 0.81316 0.07847 0.0
O97 O 0.94116 0.70072 0.08316 0.0
C98 C 0.23171 0.27873 0.3873 0.0
O99 O 0.26257 0.25855 0.3758 0.0
Cd100 Cd 0.28211 0.27918 0.33661 0.0
O101 O 0.20978 0.31218 0.3786 0.0
Cd102 Cd 0.20977 0.35805 0.34288 0.0
C103 C 0.33112 0.39328 0.34437 0.0
O104 O 0.21002 0.29093 0.31534 0.0
O105 O 0.21405 0.36368 0.30205 0.0
O106 O 0.12396 0.37041 0.34673 0.0
C107 C 0.21089 0.31875 0.29822 0.0
O108 O 0.33909 0.35089 0.33837 0.0
C109 C 0.13137 0.41601 0.34831 0.0
O110 O 0.28847 0.40353 0.34814 0.0
O111 O 0.17474 0.43395 0.34756 0.0
H112 H 0.17444 0.26983 0.0125 0.0
H113 H 0.29197 0.19127 0.03555 0.0
H114 H 0.31972 0.18515 -0.00399 0.0
H115 H 0.14675 0.20038 0.96473 0.0
H116 H 0.13221 0.24908 0.94665 0.0
H117 H 0.12553 0.25379 -0.02304 0.0
H118 H 0.18115 0.33361 -0.02294 0.0
H119 H 0.18794 0.32921 0.94665 0.0
H120 H 0.24017 0.33496 0.96473 0.0
H121 H 0.32839 0.17767 0.95416 0.0
H122 H 0.31798 0.1704 0.91259 0.0
H123 H 0.1962 0.25525 0.91617 0.0
C124 C 0.20674 0.25244 0.00931 0.0
C125 C 0.23112 0.2312 0.02719 0.0
C126 C 0.2727 0.20792 0.02219 0.0
C127 C 0.2889 0.20441 -0.00023 0.0
C128 C 0.26338 0.22466 -0.0175 0.0
C129 C 0.22339 0.24854 -0.01302 0.0
C130 C 0.2001 0.2634 0.96514 0.0
C131 C 0.14809 0.24026 0.96327 0.0
C132 C 0.2025 0.31858 0.96329 0.0
C133 C 0.23227 0.24263 0.9477 0.0
C134 C 0.26884 0.22088 0.95812 0.0
C135 C 0.30056 0.19543 0.94576 0.0
C136 C 0.29428 0.19137 0.92218 0.0
C137 C 0.25669 0.21278 0.91117 0.0
C138 C 0.22599 0.23961 0.92408 0.0
H139 H 0.73335 0.62831 0.25224 0.0
H140 H 0.79757 0.76077 0.2831 0.0
H141 H 0.81845 0.79325 0.24499 0.0
H142 H 0.81885 0.62034 0.20905 0.0
H143 H 0.77659 0.59784 0.18753 0.0
H144 H 0.76353 0.58619 0.21708 0.0
H145 H 0.68348 0.62484 0.21297 0.0
H146 H 0.69624 0.63653 0.18335 0.0
H147 H 0.68395 0.68525 0.20202 0.0
H148 H 0.8398 0.80784 0.20426 0.0
H149 H 0.85613 0.80585 0.16305 0.0
H150 H 0.77418 0.66612 0.15792 0.0
C151 C 0.75126 0.6644 0.25096 0.0
C152 C 0.76391 0.69203 0.27066 0.0
C153 C 0.78742 0.73902 0.26827 0.0
C154 C 0.79942 0.75778 0.24669 0.0
C155 C 0.78708 0.72935 0.22766 0.0
C156 C 0.76304 0.6839 0.22953 0.0
C157 C 0.75528 0.66028 0.20637 0.0
C158 C 0.78005 0.6134 0.20493 0.0
C159 C 0.70154 0.65121 0.20086 0.0
C160 C 0.77976 0.69913 0.19124 0.0
C161 C 0.79787 0.73861 0.20393 0.0
C162 C 0.82506 0.77756 0.19409 0.0
C163 C 0.83428 0.77602 0.17071 0.0
C164 C 0.8159 0.73612 0.15736 0.0
C165 C 0.78771 0.6975 0.1677 0.0
H166 H 0.3164 0.22009 0.51244 0.0
H167 H 0.18687 0.2779 0.53636 0.0
H168 H 0.15827 0.28214 0.49687 0.0
H169 H 0.33353 0.29513 0.4653 0.0
H170 H 0.35549 0.25069 0.44669 0.0
H171 H 0.36315 0.24603 0.47695 0.0
H172 H 0.31977 0.15964 0.47614 0.0
H173 H 0.31194 0.16406 0.44581 0.0
H174 H 0.26066 0.1496 0.46388 0.0
H175 H 0.1473 0.28833 0.45513 0.0
H176 H 0.15542 0.29746 0.41359 0.0
H177 H 0.29166 0.23542 0.41618 0.0
C178 C 0.28155 0.23262 0.5094 0.0
C179 C 0.25379 0.24845 0.52753 0.0
C180 C 0.2088 0.26555 0.52278 0.0
C181 C 0.19209 0.26787 0.5004 0.0
C182 C 0.22065 0.25284 0.4829 0.0
C183 C 0.26438 0.23544 0.48709 0.0
C184 C 0.28979 0.22546 0.46506 0.0
C185 C 0.33834 0.25617 0.46341 0.0
C186 C 0.29588 0.17147 0.46258 0.0
C187 C 0.25413 0.24135 0.44789 0.0
C188 C 0.21425 0.25642 0.45858 0.0
C189 C 0.17797 0.27594 0.44651 0.0
C190 C 0.18297 0.28108 0.42292 0.0
C191 C 0.22397 0.26681 0.41162 0.0
C192 C 0.25945 0.24574 0.42427 0.0
H193 H 0.66512 0.77292 0.77084 0.0
H194 H 0.78229 0.886 0.76579 0.0
H195 H 0.7801 0.87902 0.72395 0.0
H196 H 0.69809 0.70047 0.72259 0.0
H197 H 0.63697 0.68615 0.71342 0.0
H198 H 0.65004 0.6973 0.74307 0.0
H199 H 0.59155 0.76393 0.74355 0.0
H200 H 0.57841 0.75306 0.7139 0.0
H201 H 0.59977 0.81279 0.72346 0.0
H202 H 0.7652 0.86041 0.68286 0.0
H203 H 0.73498 0.835 0.64482 0.0
H204 H 0.62381 0.73779 0.67612 0.0
C205 C 0.69068 0.79566 0.76088 0.0
C206 C 0.7242 0.82967 0.77148 0.0
C207 C 0.75641 0.85964 0.75795 0.0
C208 C 0.75554 0.85585 0.7342 0.0
C209 C 0.72179 0.82236 0.72422 0.0
C210 C 0.68965 0.79304 0.73706 0.0
C211 C 0.6551 0.76223 0.72195 0.0
C212 C 0.66039 0.70834 0.72547 0.0
C213 C 0.60313 0.77371 0.72596 0.0
C214 C 0.67286 0.77891 0.69866 0.0
C215 C 0.71174 0.81316 0.70039 0.0
C216 C 0.73471 0.83369 0.68126 0.0
C217 C 0.71734 0.81899 0.65974 0.0
C218 C 0.67699 0.78462 0.65754 0.0
C219 C 0.65456 0.76436 0.6773 0.0
H220 H 0.15996 0.35424 0.26402 0.0
H221 H 0.25192 0.24229 0.27978 0.0
H222 H 0.2491 0.21642 0.2393 0.0
H223 H 0.0838 0.28176 0.22437 0.0
H224 H 0.07551 0.33232 0.20621 0.0
H225 H 0.08573 0.34166 0.2362 0.0
H226 H 0.15812 0.40377 0.22724 0.0
H227 H 0.1484 0.39433 0.19723 0.0
H228 H 0.20599 0.38611 0.20953 0.0
H229 H 0.24141 0.20846 0.19613 0.0
H230 H 0.21958 0.2105 0.15523 0.0
H231 H 0.12578 0.32185 0.16936 0.0
C232 C 0.17931 0.32413 0.25892 0.0
C233 C 0.20649 0.30037 0.27478 0.0
C234 C 0.23086 0.26074 0.26773 0.0
C235 C 0.22963 0.24607 0.24483 0.0
C236 C 0.20292 0.27077 0.22948 0.0
C237 C 0.17731 0.30824 0.23639 0.0
C238 C 0.14986 0.32779 0.21688 0.0
C239 C 0.09551 0.32042 0.22118 0.0
C240 C 0.16662 0.38115 0.21247 0.0
C241 C 0.16452 0.29601 0.19776 0.0
C242 C 0.19578 0.26386 0.20522 0.0
C243 C 0.21635 0.23291 0.1902 0.0
C244 C 0.20403 0.23447 0.16706 0.0
C245 C 0.17072 0.26593 0.1594 0.0
C246 C 0.15079 0.29696 0.17495 0.0
H247 H 0.66136 0.76509 0.51088 0.0
H248 H 0.79404 0.70885 0.53164 0.0
H249 H 0.81735 0.70216 0.49154 0.0
H250 H 0.63836 0.6895 0.46377 0.0
H251 H 0.61527 0.73421 0.44578 0.0
H252 H 0.61052 0.73905 0.4762 0.0
H253 H 0.65481 0.82497 0.47486 0.0
H254 H 0.65955 0.82047 0.44437 0.0
H255 H 0.7127 0.8343 0.46135 0.0
H256 H 0.82222 0.69209 0.44965 0.0
H257 H 0.81047 0.6844 0.40812 0.0
H258 H 0.67729 0.75112 0.41377 0.0
C259 C 0.6957 0.7522 0.50701 0.0
C260 C 0.7258 0.73751 0.52451 0.0
C261 C 0.77029 0.72045 0.51864 0.0
C262 C 0.78396 0.71652 0.49587 0.0
C263 C 0.75311 0.73034 0.47907 0.0
C264 C 0.71018 0.7484 0.48429 0.0
C265 C 0.68282 0.75871 0.46285 0.0
C266 C 0.63386 0.72856 0.46211 0.0
C267 C 0.67715 0.81284 0.46074 0.0
C268 C 0.71651 0.74234 0.44485 0.0
C269 C 0.75685 0.72613 0.45463 0.0
C270 C 0.79132 0.70558 0.44172 0.0
C271 C 0.78427 0.70121 0.41819 0.0
C272 C 0.74341 0.71782 0.40778 0.0
C273 C 0.70946 0.73925 0.42127 0.0
H274 H 0.35971 0.22714 0.67789 0.0
H275 H 0.2237 0.17349 0.64749 0.0
H276 H 0.18944 0.15809 0.68573 0.0
H277 H 0.35871 0.14378 0.72277 0.0
H278 H 0.38446 0.18625 0.74359 0.0
H279 H 0.39757 0.19567 0.71389 0.0
H280 H 0.36718 0.28048 0.71627 0.0
H281 H 0.35391 0.27129 0.74602 0.0
H282 H 0.30764 0.28664 0.72679 0.0
H283 H 0.17286 0.14005 0.72662 0.0
H284 H 0.17329 0.12555 0.76809 0.0
H285 H 0.31739 0.19685 0.77259 0.0
C286 C 0.3226 0.21257 0.67931 0.0
C287 C 0.29435 0.20134 0.65974 0.0
C288 C 0.24592 0.18245 0.66226 0.0
C289 C 0.22614 0.1736 0.6839 0.0
C290 C 0.25502 0.18466 0.70285 0.0
C291 C 0.302 0.2043 0.70082 0.0
C292 C 0.32548 0.21193 0.72396 0.0
C293 C 0.36912 0.18265 0.72617 0.0
C294 C 0.33936 0.26579 0.72853 0.0
C295 C 0.28476 0.19222 0.73926 0.0
C296 C 0.24448 0.17659 0.72668 0.0
C297 C 0.20373 0.15311 0.73672 0.0
C298 C 0.2043 0.14496 0.76021 0.0
C299 C 0.24497 0.16099 0.77339 0.0
C300 C 0.28539 0.18558 0.76287 0.0
H301 H 0.71798 0.77474 0.0152 0.0
H302 H 0.80336 0.65311 0.01831 0.0
H303 H 0.79308 0.64077 -0.0231 0.0
H304 H 0.63565 0.72935 -0.03199 0.0
H305 H 0.63653 0.78849 0.95556 0.0
H306 H 0.64281 0.78218 -0.0141 0.0
H307 H 0.72242 0.83771 -0.01527 0.0
H308 H 0.71646 0.84406 0.95448 0.0
H309 H 0.76993 0.82253 0.96616 0.0
H310 H 0.78165 0.64731 0.93495 0.0
H311 H 0.77413 0.67481 0.89542 0.0
H312 H 0.6988 0.79447 0.91921 0.0
C313 C 0.73306 0.7445 0.00726 0.0
C314 C 0.76077 0.71431 0.01997 0.0
C315 C 0.78161 0.6763 0.00888 0.0
C316 C 0.77579 0.66892 -0.0146 0.0
C317 C 0.74928 0.70008 -0.02678 0.0
C318 C 0.72832 0.73721 -0.01625 0.0
C319 C 0.70693 0.76925 0.96643 0.0
C320 C 0.65222 0.76717 -0.03086 0.0
C321 C 0.73036 0.82145 -0.03195 0.0
C322 C 0.72041 0.74522 0.94452 0.0
C323 C 0.74396 0.70483 0.94883 0.0
C324 C 0.76267 0.67848 0.93135 0.0
C325 C 0.75824 0.69445 0.90892 0.0
C326 C 0.73574 0.73676 0.90412 0.0
C327 C 0.71562 0.76165 0.92221 0.0
H328 H 0.08516 0.05395 0.08813 0.0
H329 H 0.9829 0.1596 0.07788 0.0
H330 H 0.91812 0.09358 0.0731 0.0
H331 H 0.03275 0.9659 0.04711 0.0
H332 H 0.04522 0.91517 0.06435 0.0
H333 H 0.0837 0.97071 0.066 0.0
H334 H 0.07004 0.97393 0.10955 0.0
H335 H 0.03161 0.91844 0.10804 0.0
H336 H 0.00969 0.97134 0.12042 0.0
H337 H 0.86382 0.01608 0.07214 0.0
H338 H 0.82433 0.93309 0.07395 0.0
H339 H 0.96281 0.87821 0.08341 0.0
C340 C 0.04921 0.06335 0.08475 0.0
C341 C 0.03911 0.11205 0.08343 0.0
C342 C -0.00844 0.12262 0.07891 0.0
C343 C 0.95454 0.08536 0.07617 0.0
C344 C 0.96578 0.03779 0.07774 0.0
C345 C 0.01203 0.02672 0.08177 0.0
C346 C 0.01455 0.97274 0.08317 0.0
C347 C 0.04591 0.9551 0.06401 0.0
C348 C 0.03252 0.95829 0.10669 0.0
C349 C 0.96229 0.95508 0.07971 0.0
C350 C 0.93474 -0.00684 0.07659 0.0
C351 C 0.8851 0.98598 0.07428 0.0
C352 C 0.86301 0.93871 0.07538 0.0
C353 C 0.89054 0.89916 0.07863 0.0
C354 C 0.9409 0.9076 0.08051 0.0
H355 H 0.03448 0.39196 0.34151 0.0
H356 H 0.13892 0.51097 0.35996 0.0
H357 H 0.07439 0.56482 0.36257 0.0
H358 H 0.96315 0.46061 0.30613 0.0
H359 H 0.90658 0.4293 0.31441 0.0
H360 H 0.96034 0.39874 0.31534 0.0
H361 H 0.94495 0.37856 0.35784 0.0
H362 H 0.89106 0.40903 0.35704 0.0
H363 H 0.93707 0.42658 0.37768 0.0
H364 H 0.00047 0.60637 0.36219 0.0
H365 H 0.92069 0.63477 0.35789 0.0
H366 H 0.86213 0.49024 0.33881 0.0
C367 C 0.04361 0.42923 0.34634 0.0
C368 C 0.09176 0.44723 0.35064 0.0
C369 C 0.10237 0.49635 0.35661 0.0
C370 C 0.06594 0.52723 0.3582 0.0
C371 C 0.01901 0.50855 0.35369 0.0
C372 C 0.00758 0.46081 0.34783 0.0
C373 C 0.95428 0.45081 0.34294 0.0
C374 C 0.9456 0.43388 0.31824 0.0
C375 C 0.93044 0.41407 0.35989 0.0
C376 C 0.93779 0.50055 0.34675 0.0
C377 C 0.97585 0.53304 0.35311 0.0
C378 C 0.97031 0.5813 0.35729 0.0
C379 C 0.92471 0.59705 0.35476 0.0
C380 C 0.88499 0.56479 0.348 0.0
C381 C 0.89169 0.51573 0.34408 0.0
H382 H 0.39251 0.42519 0.59401 0.0
H383 H 0.49727 0.32034 0.58963 0.0
H384 H 0.56245 0.3866 0.58871 0.0
H385 H 0.45414 0.51275 0.5559 0.0
H386 H 0.43751 0.56386 0.57188 0.0
H387 H 0.39909 0.5082 0.57195 0.0
H388 H 0.40253 0.50637 0.61597 0.0
H389 H 0.44104 0.56193 0.61604 0.0
H390 H 0.45995 0.50945 0.63003 0.0
H391 H 0.61622 0.46386 0.59028 0.0
H392 H 0.65507 0.547 0.59189 0.0
H393 H 0.51529 0.60207 0.59358 0.0
C394 C 0.42914 0.4161 0.59281 0.0
C395 C 0.43979 0.36749 0.59198 0.0
C396 C 0.48821 0.35724 0.59023 0.0
C397 C 0.52548 0.39463 0.58975 0.0
C398 C 0.51372 0.44208 0.59076 0.0
C399 C 0.46673 0.45296 0.59203 0.0
C400 C 0.46382 0.50701 0.59279 0.0
C401 C 0.43706 0.52394 0.57188 0.0
C402 C 0.44046 0.52206 0.61503 0.0
C403 C 0.51659 0.52485 0.59202 0.0
C404 C 0.54472 0.48675 0.59097 0.0
C405 C 0.59457 0.49398 0.59091 0.0
C406 C 0.61628 0.54138 0.59192 0.0
C407 C 0.58824 0.5811 0.59277 0.0
C408 C 0.53769 0.57253 0.59271 0.0
H409 H 0.54333 0.88515 0.8461 0.0
H410 H 0.64774 0.00567 0.86247 0.0
H411 H 0.58301 0.05937 0.86456 0.0
H412 H 0.47042 0.95016 0.8103 0.0
H413 H 0.41428 0.91935 0.81951 0.0
H414 H 0.46823 0.88913 0.82064 0.0
H415 H 0.45459 0.87247 0.86358 0.0
H416 H 0.40044 0.9025 0.86257 0.0
H417 H 0.44708 0.92204 0.88259 0.0
H418 H 0.50895 0.10083 0.86304 0.0
H419 H 0.4287 0.12826 0.85865 0.0
H420 H 0.37037 0.98165 0.84332 0.0
C421 C 0.55245 0.92271 0.8504 0.0
C422 C 0.60063 0.94119 0.85419 0.0
C423 C 0.61115 -0.00935 0.85954 0.0
C424 C 0.57462 0.02147 0.86079 0.0
C425 C 0.52768 0.00232 0.85669 0.0
C426 C 0.51631 0.95413 0.85169 0.0
C427 C 0.46292 0.94341 0.84732 0.0
C428 C 0.45343 0.9244 0.82299 0.0
C429 C 0.4399 0.90801 0.86508 0.0
C430 C 0.44631 -0.00672 0.85034 0.0
C431 C 0.4844 0.02653 0.85582 0.0
C432 C 0.47875 0.07513 0.8589 0.0
C433 C 0.43294 0.09034 0.8563 0.0
C434 C 0.39315 0.05711 0.85066 0.0
C435 C 0.4 0.00784 0.84775 0.0
H436 H 0.90379 0.55836 0.08537 0.0
H437 H 0.0235 0.6675 0.07629 0.0
H438 H 0.07843 0.60351 0.07276 0.0
H439 H 0.96608 0.47885 0.11941 0.0
H440 H 0.93619 0.42473 0.10714 0.0
H441 H 0.90629 0.47908 0.10808 0.0
H442 H 0.89329 0.47415 0.06446 0.0
H443 H 0.92333 0.41984 0.06338 0.0
H444 H 0.94418 0.47074 0.04598 0.0
H445 H 0.12047 0.52751 0.07107 0.0
H446 H 0.14692 0.44556 0.07247 0.0
H447 H -0.0004 0.38615 0.08282 0.0
C448 C 0.94153 0.56887 0.08254 0.0
C449 C 0.95935 0.61798 0.08105 0.0
C450 C 0.00902 0.63014 0.07746 0.0
C451 C 0.04047 0.59404 0.07539 0.0
C452 C 0.02168 0.54598 0.07694 0.0
C453 C 0.97338 0.53335 0.08048 0.0
C454 C 0.96247 0.47915 0.08214 0.0
C455 C 0.94153 0.46462 0.10559 0.0
C456 C 0.92883 0.45985 0.06284 0.0
C457 C 0.01226 0.46321 0.07916 0.0
C458 C 0.04588 0.50228 0.07605 0.0
C459 C 0.09443 0.49665 0.0734 0.0
C460 C 0.10909 0.44992 0.0742 0.0
C461 C 0.07534 0.40938 0.07769 0.0
C462 C 0.02625 0.41631 0.07997 0.0
H463 H 0.42751 0.38533 0.33753 0.0
H464 H 0.32642 0.48756 0.35633 0.0
H465 H 0.39287 0.55176 0.35922 0.0
H466 H 0.52486 0.43447 0.37467 0.0
H467 H 0.57106 0.42432 0.35438 0.0
H468 H 0.51587 0.38537 0.35463 0.0
H469 H 0.5026 0.40379 0.31206 0.0
H470 H 0.5577 0.44277 0.31168 0.0
H471 H 0.50243 0.46553 0.30299 0.0
H472 H 0.46818 0.60555 0.35817 0.0
H473 H 0.54922 0.64663 0.3538 0.0
H474 H 0.6036 0.51038 0.33647 0.0
C475 C 0.41935 0.42113 0.34242 0.0
C476 C 0.37159 0.43132 0.3467 0.0
C477 C 0.36256 0.47874 0.35296 0.0
C478 C 0.4001 0.5155 0.35469 0.0
C479 C 0.44656 0.50431 0.35023 0.0
C480 C 0.4565 0.45836 0.3443 0.0
C481 C 0.5097 0.45658 0.33985 0.0
C482 C 0.53166 0.4232 0.35691 0.0
C483 C 0.51861 0.44127 0.31518 0.0
C484 C 0.52791 0.50893 0.34391 0.0
C485 C 0.4907 0.53562 0.34991 0.0
C486 C 0.4977 0.58504 0.35365 0.0
C487 C 0.54391 0.60805 0.35103 0.0
C488 C 0.58278 0.58172 0.34481 0.0
C489 C 0.5747 0.53132 0.34148 0.0
H490 H 0.48262 0.09429 0.58384 0.0
H491 H 0.33504 0.03478 0.57421 0.0
H492 H 0.36175 0.95324 0.5709 0.0
H493 H 0.53602 0.01255 0.54444 0.0
H494 H 0.58812 0.00826 0.56204 0.0
H495 H 0.55766 0.06235 0.56248 0.0
H496 H 0.5475 0.05473 0.60616 0.0
H497 H 0.57781 0.00062 0.60585 0.0
H498 H 0.51866 -0.00024 0.61797 0.0
H499 H 0.40378 0.8774 0.57126 0.0
H500 H 0.45871 0.81325 0.57403 0.0
H501 H 0.57902 0.92211 0.58233 0.0
C502 C 0.45598 0.06419 0.58078 0.0
C503 C 0.40671 0.071 0.57927 0.0
C504 C 0.37299 0.03055 0.57538 0.0
C505 C 0.38779 0.98404 0.57347 0.0
C506 C 0.43652 0.97848 0.57531 0.0
C507 C 0.47016 0.01746 0.57871 0.0
C508 C 0.52019 0.00143 0.58067 0.0
C509 C 0.55239 0.02239 0.56124 0.0
C510 C 0.54232 0.01493 0.60405 0.0
C511 C 0.5093 0.94733 0.5782 0.0
C512 C 0.46082 0.93482 0.5751 0.0
C513 C 0.4419 0.8868 0.57342 0.0
C514 C 0.47333 0.8506 0.57505 0.0
C515 C 0.52315 0.86264 0.57821 0.0
C516 C 0.5412 0.91173 0.5796 0.0
H517 H 0.93295 0.87645 0.839 0.0
H518 H 0.83762 0.97001 0.87144 0.0
H519 H 0.90608 0.03028 0.87853 0.0
H520 H 0.03682 0.90765 0.87668 0.0
H521 H 0.07952 0.90565 0.85386 0.0
H522 H 0.0237 0.86774 0.85284 0.0
H523 H 0.00466 0.90343 0.81359 0.0
H524 H 0.06033 0.94138 0.81448 0.0
H525 H 0.00464 0.9678 0.81061 0.0
H526 H 0.98207 0.08352 0.87881 0.0
H527 H 0.06242 0.12613 0.87312 0.0
H528 H 0.11053 -0.002 0.84196 0.0
C529 C 0.92656 0.9093 0.84789 0.0
C530 C 0.87978 0.91838 0.85467 0.0
C531 C 0.873 0.96207 0.86609 0.0
C532 C 0.91172 -0.00344 0.87026 0.0
C533 C 0.95714 0.98676 0.86311 0.0
C534 C 0.96493 0.94414 0.85231 0.0
C535 C 0.01711 0.9438 0.84544 0.0
C536 C 0.04067 0.90383 0.85796 0.0
C537 C 0.02195 0.93882 0.81949 0.0
C538 C 0.03708 -0.00663 0.8536 0.0
C539 C 0.00176 0.01736 0.86381 0.0
C540 C 0.01026 0.06488 0.87121 0.0
C541 C 0.05591 0.0888 0.86785 0.0
C542 C 0.09264 0.0651 0.85737 0.0
C543 C 0.08333 0.0165 0.8505 0.0
loop_
_geom_bond_atom_site_label_1
_geom_bond_atom_site_label_2
_geom_bond_distance
_geom_bond_site_symmetry_2
_ccdc_geom_bond_type
C0 O1 1.306 . S
C0 O3 1.160 . S
O1 C0 1.306 . S
O1 Cd2 2.228 . S
Cd2 O1 2.228 . S
Cd2 O6 2.273 . S
Cd2 O10 2.277 . S
O3 C0 1.160 . S
O3 Cd4 2.203 . S
Cd4 O3 2.203 . S
Cd4 O6 2.411 . S
Cd4 O7 2.333 . S
Cd4 O8 2.352 . S
Cd4 O12 2.277 . S
Cd4 O13 2.356 . S
C5 O10 1.209 . S
C5 O12 1.226 . S
O6 Cd2 2.273 . S
O6 Cd4 2.411 . S
O6 C9 1.320 . S
O7 Cd4 2.333 . S
O7 C9 1.214 . S
O8 Cd4 2.352 . S
O8 C11 1.258 . S
C9 O6 1.320 . S
C9 O7 1.214 . S
O10 Cd2 2.277 . S
O10 C5 1.209 . S
C11 O8 1.258 . S
C11 O13 1.282 . S
O12 Cd4 2.277 . S
O12 C5 1.226 . S
O13 Cd4 2.356 . S
O13 C11 1.282 . S
C14 O15 1.306 . S
C14 O17 1.160 . S
O15 C14 1.306 . S
O15 Cd16 2.228 . S
Cd16 O15 2.228 . S
Cd16 O20 2.273 . S
Cd16 O24 2.277 . S
O17 C14 1.160 . S
O17 Cd18 2.203 . S
Cd18 O17 2.203 . S
Cd18 O20 2.411 . S
Cd18 O21 2.333 . S
Cd18 O22 2.352 . S
Cd18 O26 2.277 . S
Cd18 O27 2.356 . S
C19 O24 1.209 . S
C19 O26 1.226 . S
O20 Cd16 2.273 . S
O20 Cd18 2.411 . S
O20 C23 1.320 . S
O21 Cd18 2.333 . S
O21 C23 1.214 . S
O22 Cd18 2.352 . S
O22 C25 1.258 . S
C23 O20 1.320 . S
C23 O21 1.214 . S
O24 Cd16 2.277 . S
O24 C19 1.209 . S
C25 O22 1.258 . S
C25 O27 1.282 . S
O26 Cd18 2.277 . S
O26 C19 1.226 . S
O27 Cd18 2.356 . S
O27 C25 1.282 . S
C28 O29 1.306 . S
C28 O31 1.160 . S
O29 C28 1.306 . S
O29 Cd30 2.228 . S
Cd30 O29 2.228 . S
Cd30 O34 2.273 . S
Cd30 O38 2.277 . S
O31 C28 1.160 . S
O31 Cd32 2.203 . S
Cd32 O31 2.203 . S
Cd32 O34 2.411 . S
Cd32 O35 2.333 . S
Cd32 O36 2.352 . S
Cd32 O40 2.277 . S
Cd32 O41 2.356 . S
C33 O38 1.209 . S
C33 O40 1.226 . S
O34 Cd30 2.273 . S
O34 Cd32 2.411 . S
O34 C37 1.320 . S
O35 Cd32 2.333 . S
O35 C37 1.214 . S
O36 Cd32 2.352 . S
O36 C39 1.258 . S
C37 O34 1.320 . S
C37 O35 1.214 . S
O38 Cd30 2.277 . S
O38 C33 1.209 . S
C39 O36 1.258 . S
C39 O41 1.282 . S
O40 Cd32 2.277 . S
O40 C33 1.226 . S
O41 Cd32 2.356 . S
O41 C39 1.282 . S
C42 O43 1.306 . S
C42 O45 1.160 . S
O43 C42 1.306 . S
O43 Cd44 2.228 . S
Cd44 O43 2.228 . S
Cd44 O48 2.273 . S
Cd44 O52 2.277 . S
O45 C42 1.160 . S
O45 Cd46 2.203 . S
Cd46 O45 2.203 . S
Cd46 O48 2.411 . S
Cd46 O49 2.333 . S
Cd46 O50 2.352 . S
Cd46 O54 2.277 . S
Cd46 O55 2.356 . S
C47 O52 1.209 . S
C47 O54 1.226 . S
O48 Cd44 2.273 . S
O48 Cd46 2.411 . S
O48 C51 1.320 . S
O49 Cd46 2.333 . S
O49 C51 1.214 . S
O50 Cd46 2.352 . S
O50 C53 1.258 . S
C51 O48 1.320 . S
C51 O49 1.214 . S
O52 Cd44 2.277 . S
O52 C47 1.209 . S
C53 O50 1.258 . S
C53 O55 1.282 . S
O54 Cd46 2.277 . S
O54 C47 1.226 . S
O55 Cd46 2.356 . S
O55 C53 1.282 . S
C56 O57 1.306 . S
C56 O59 1.160 . S
O57 C56 1.306 . S
O57 Cd58 2.228 . S
Cd58 O57 2.228 . S
Cd58 O62 2.273 . S
Cd58 O66 2.277 . S
O59 C56 1.160 . S
O59 Cd60 2.203 . S
Cd60 O59 2.203 . S
Cd60 O62 2.411 . S
Cd60 O63 2.333 . S
Cd60 O64 2.352 . S
Cd60 O68 2.277 . S
Cd60 O69 2.356 . S
C61 O66 1.209 . S
C61 O68 1.226 . S
O62 Cd58 2.273 . S
O62 Cd60 2.411 . S
O62 C65 1.320 . S
O63 Cd60 2.333 . S
O63 C65 1.214 . S
O64 Cd60 2.352 . S
O64 C67 1.258 . S
C65 O62 1.320 . S
C65 O63 1.214 . S
O66 Cd58 2.277 . S
O66 C61 1.209 . S
C67 O64 1.258 . S
C67 O69 1.282 . S
O68 Cd60 2.277 . S
O68 C61 1.226 . S
O69 Cd60 2.356 . S
O69 C67 1.282 . S
C70 O71 1.306 . S
C70 O73 1.160 . S
O71 C70 1.306 . S
O71 Cd72 2.228 . S
Cd72 O71 2.228 . S
Cd72 O76 2.273 . S
Cd72 O80 2.277 . S
O73 C70 1.160 . S
O73 Cd74 2.203 . S
Cd74 O73 2.203 . S
Cd74 O76 2.411 . S
Cd74 O77 2.333 . S
Cd74 O78 2.352 . S
Cd74 O82 2.277 . S
Cd74 O83 2.356 . S
C75 O80 1.209 . S
C75 O82 1.226 . S
O76 Cd72 2.273 . S
O76 Cd74 2.411 . S
O76 C79 1.320 . S
O77 Cd74 2.333 . S
O77 C79 1.214 . S
O78 Cd74 2.352 . S
O78 C81 1.258 . S
C79 O76 1.320 . S
C79 O77 1.214 . S
O80 Cd72 2.277 . S
O80 C75 1.209 . S
C81 O78 1.258 . S
C81 O83 1.282 . S
O82 Cd74 2.277 . S
O82 C75 1.226 . S
O83 Cd74 2.356 . S
O83 C81 1.282 . S
C84 O85 1.306 . S
C84 O87 1.160 . S
O85 C84 1.306 . S
O85 Cd86 2.228 . S
Cd86 O85 2.228 . S
Cd86 O90 2.273 . S
Cd86 O94 2.277 . S
O87 C84 1.160 . S
O87 Cd88 2.203 . S
Cd88 O87 2.203 . S
Cd88 O90 2.411 . S
Cd88 O91 2.333 . S
Cd88 O92 2.352 . S
Cd88 O96 2.277 . S
Cd88 O97 2.356 . S
C89 O94 1.209 . S
C89 O96 1.226 . S
O90 Cd86 2.273 . S
O90 Cd88 2.411 . S
O90 C93 1.320 . S
O91 Cd88 2.333 . S
O91 C93 1.214 . S
O92 Cd88 2.352 . S
O92 C95 1.258 . S
C93 O90 1.320 . S
C93 O91 1.214 . S
O94 Cd86 2.277 . S
O94 C89 1.209 . S
C95 O92 1.258 . S
C95 O97 1.282 . S
O96 Cd88 2.277 . S
O96 C89 1.226 . S
O97 Cd88 2.356 . S
O97 C95 1.282 . S
C98 O99 1.306 . S
C98 O101 1.160 . S
O99 C98 1.306 . S
O99 Cd100 2.228 . S
Cd100 O99 2.228 . S
Cd100 O104 2.273 . S
Cd100 O108 2.277 . S
O101 C98 1.160 . S
O101 Cd102 2.203 . S
Cd102 O101 2.203 . S
Cd102 O104 2.411 . S
Cd102 O105 2.333 . S
Cd102 O106 2.352 . S
Cd102 O110 2.277 . S
Cd102 O111 2.356 . S
C103 O108 1.209 . S
C103 O110 1.226 . S
O104 Cd100 2.273 . S
O104 Cd102 2.411 . S
O104 C107 1.320 . S
O105 Cd102 2.333 . S
O105 C107 1.214 . S
O106 Cd102 2.352 . S
O106 C109 1.258 . S
C107 O104 1.320 . S
C107 O105 1.214 . S
O108 Cd100 2.277 . S
O108 C103 1.209 . S
C109 O106 1.258 . S
C109 O111 1.282 . S
O110 Cd102 2.277 . S
O110 C103 1.226 . S
O111 Cd102 2.356 . S
O111 C109 1.282 . S
H112 C124 0.930 . S
H113 C126 0.930 . S
H114 C127 0.930 . S
H115 C131 0.959 . S
H116 C131 0.959 . S
H117 C131 0.975 . S
H118 C132 0.960 1_554 S
H119 C132 0.961 . S
H120 C132 0.959 . S
H121 C135 0.929 . S
H122 C136 0.931 . S
H123 C138 0.930 . S
C124 H112 0.930 . S
C124 C125 1.399 . S
C124 C129 1.399 . S
C125 C124 1.399 . S
C125 C126 1.376 . S
C126 H113 0.930 . S
C126 C125 1.376 . S
C126 C127 1.388 . S
C127 H114 0.930 . S
C127 C126 1.388 . S
C127 C128 1.390 . S
C128 C127 1.390 . S
C128 C129 1.394 . S
C128 C134 1.465 1_554 S
C129 C124 1.399 . S
C129 C128 1.394 . S
C129 C130 1.516 1_554 S
C130 C129 1.516 1_556 S
C130 C131 1.502 . S
C130 C132 1.561 . S
C130 C133 1.526 . S
C131 H115 0.959 . S
C131 H116 0.959 . S
C131 H117 0.975 . S
C131 C130 1.502 . S
C132 H118 0.960 1_556 S
C132 H119 0.961 . S
C132 H120 0.959 . S
C132 C130 1.561 . S
C133 C130 1.526 . S
C133 C134 1.396 . S
C133 C138 1.390 . S
C134 C128 1.465 1_556 S
C134 C133 1.396 . S
C134 C135 1.399 . S
C135 H121 0.929 . S
C135 C134 1.399 . S
C135 C136 1.385 . S
C136 H122 0.931 . S
C136 C135 1.385 . S
C136 C137 1.389 . S
C137 C136 1.389 . S
C137 C138 1.387 . S
C138 H123 0.930 . S
C138 C133 1.390 . S
C138 C137 1.387 . S
H139 C151 0.930 . S
H140 C153 0.930 . S
H141 C154 0.930 . S
H142 C158 0.959 . S
H143 C158 0.959 . S
H144 C158 0.961 . S
H145 C159 0.960 . S
H146 C159 0.961 . S
H147 C159 0.959 . S
H148 C162 0.929 . S
H149 C163 0.931 . S
H150 C165 0.930 . S
C151 H139 0.930 . S
C151 C152 1.399 . S
C151 C156 1.399 . S
C152 C151 1.399 . S
C152 C153 1.376 . S
C153 H140 0.930 . S
C153 C152 1.376 . S
C153 C154 1.388 . S
C154 H141 0.930 . S
C154 C153 1.388 . S
C154 C155 1.390 . S
C155 C154 1.390 . S
C155 C156 1.394 . S
C155 C161 1.465 . S
C156 C151 1.399 . S
C156 C155 1.394 . S
C156 C157 1.516 . S
C157 C156 1.516 . S
C157 C158 1.502 . S
C157 C159 1.561 . S
C157 C160 1.526 . S
C158 H142 0.959 . S
C158 H143 0.959 . S
C158 H144 0.961 . S
C158 C157 1.502 . S
C159 H145 0.960 . S
C159 H146 0.961 . S
C159 H147 0.959 . S
C159 C157 1.561 . S
C160 C157 1.526 . S
C160 C161 1.396 . S
C160 C165 1.390 . S
C161 C155 1.465 . S
C161 C160 1.396 . S
C161 C162 1.399 . S
C162 H148 0.929 . S
C162 C161 1.399 . S
C162 C163 1.385 . S
C163 H149 0.931 . S
C163 C162 1.385 . S
C163 C164 1.389 . S
C164 C163 1.389 . S
C164 C165 1.387 . S
C165 H150 0.930 . S
C165 C160 1.390 . S
C165 C164 1.387 . S
H166 C178 0.930 . S
H167 C180 0.930 . S
H168 C181 0.930 . S
H169 C185 0.959 . S
H170 C185 0.959 . S
H171 C185 0.961 . S
H172 C186 0.960 . S
H173 C186 0.961 . S
H174 C186 0.959 . S
H175 C189 0.929 . S
H176 C190 0.931 . S
H177 C192 0.930 . S
C178 H166 0.930 . S
C178 C179 1.399 . S
C178 C183 1.399 . S
C179 C178 1.399 . S
C179 C180 1.376 . S
C180 H167 0.930 . S
C180 C179 1.376 . S
C180 C181 1.388 . S
C181 H168 0.930 . S
C181 C180 1.388 . S
C181 C182 1.390 . S
C182 C181 1.390 . S
C182 C183 1.394 . S
C182 C188 1.465 . S
C183 C178 1.399 . S
C183 C182 1.394 . S
C183 C184 1.516 . S
C184 C183 1.516 . S
C184 C185 1.502 . S
C184 C186 1.561 . S
C184 C187 1.526 . S
C185 H169 0.959 . S
C185 H170 0.959 . S
C185 H171 0.961 . S
C185 C184 1.502 . S
C186 H172 0.960 . S
C186 H173 0.961 . S
C186 H174 0.959 . S
C186 C184 1.561 . S
C187 C184 1.526 . S
C187 C188 1.396 . S
C187 C192 1.390 . S
C188 C182 1.465 . S
C188 C187 1.396 . S
C188 C189 1.399 . S
C189 H175 0.929 . S
C189 C188 1.399 . S
C189 C190 1.385 . S
C190 H176 0.931 . S
C190 C189 1.385 . S
C190 C191 1.389 . S
C191 C190 1.389 . S
C191 C192 1.387 . S
C192 H177 0.930 . S
C192 C187 1.390 . S
C192 C191 1.387 . S
H193 C205 0.930 . S
H194 C207 0.930 . S
H195 C208 0.930 . S
H196 C212 0.959 . S
H197 C212 0.959 . S
H198 C212 0.961 . S
H199 C213 0.960 . S
H200 C213 0.961 . S
H201 C213 0.959 . S
H202 C216 0.929 . S
H203 C217 0.931 . S
H204 C219 0.930 . S
C205 H193 0.930 . S
C205 C206 1.399 . S
C205 C210 1.399 . S
C206 C205 1.399 . S
C206 C207 1.376 . S
C207 H194 0.930 . S
C207 C206 1.376 . S
C207 C208 1.388 . S
C208 H195 0.930 . S
C208 C207 1.388 . S
C208 C209 1.390 . S
C209 C208 1.390 . S
C209 C210 1.394 . S
C209 C215 1.465 . S
C210 C205 1.399 . S
C210 C209 1.394 . S
C210 C211 1.516 . S
C211 C210 1.516 . S
C211 C212 1.502 . S
C211 C213 1.561 . S
C211 C214 1.526 . S
C212 H196 0.959 . S
C212 H197 0.959 . S
C212 H198 0.961 . S
C212 C211 1.502 . S
C213 H199 0.960 . S
C213 H200 0.961 . S
C213 H201 0.959 . S
C213 C211 1.561 . S
C214 C211 1.526 . S
C214 C215 1.396 . S
C214 C219 1.390 . S
C215 C209 1.465 . S
C215 C214 1.396 . S
C215 C216 1.399 . S
C216 H202 0.929 . S
C216 C215 1.399 . S
C216 C217 1.385 . S
C217 H203 0.931 . S
C217 C216 1.385 . S
C217 C218 1.389 . S
C218 C217 1.389 . S
C218 C219 1.387 . S
C219 H204 0.930 . S
C219 C214 1.390 . S
C219 C218 1.387 . S
H220 C232 0.930 . S
H221 C234 0.930 . S
H222 C235 0.930 . S
H223 C239 0.959 . S
H224 C239 0.959 . S
H225 C239 0.961 . S
H226 C240 0.960 . S
H227 C240 0.961 . S
H228 C240 0.959 . S
H229 C243 0.929 . S
H230 C244 0.931 . S
H231 C246 0.930 . S
C232 H220 0.930 . S
C232 C233 1.399 . S
C232 C237 1.399 . S
C233 C232 1.399 . S
C233 C234 1.376 . S
C234 H221 0.930 . S
C234 C233 1.376 . S
C234 C235 1.388 . S
C235 H222 0.930 . S
C235 C234 1.388 . S
C235 C236 1.390 . S
C236 C235 1.390 . S
C236 C237 1.394 . S
C236 C242 1.465 . S
C237 C232 1.399 . S
C237 C236 1.394 . S
C237 C238 1.516 . S
C238 C237 1.516 . S
C238 C239 1.502 . S
C238 C240 1.561 . S
C238 C241 1.526 . S
C239 H223 0.959 . S
C239 H224 0.959 . S
C239 H225 0.961 . S
C239 C238 1.502 . S
C240 H226 0.960 . S
C240 H227 0.961 . S
C240 H228 0.959 . S
C240 C238 1.561 . S
C241 C238 1.526 . S
C241 C242 1.396 . S
C241 C246 1.390 . S
C242 C236 1.465 . S
C242 C241 1.396 . S
C242 C243 1.399 . S
C243 H229 0.929 . S
C243 C242 1.399 . S
C243 C244 1.385 . S
C244 H230 0.931 . S
C244 C243 1.385 . S
C244 C245 1.389 . S
C245 C244 1.389 . S
C245 C246 1.387 . S
C246 H231 0.930 . S
C246 C241 1.390 . S
C246 C245 1.387 . S
H247 C259 0.930 . S
H248 C261 0.930 . S
H249 C262 0.930 . S
H250 C266 0.959 . S
H251 C266 0.959 . S
H252 C266 0.961 . S
H253 C267 0.960 . S
H254 C267 0.961 . S
H255 C267 0.959 . S
H256 C270 0.929 . S
H257 C271 0.931 . S
H258 C273 0.930 . S
C259 H247 0.930 . S
C259 C260 1.399 . S
C259 C264 1.399 . S
C260 C259 1.399 . S
C260 C261 1.376 . S
C261 H248 0.930 . S
C261 C260 1.376 . S
C261 C262 1.388 . S
C262 H249 0.930 . S
C262 C261 1.388 . S
C262 C263 1.390 . S
C263 C262 1.390 . S
C263 C264 1.394 . S
C263 C269 1.465 . S
C264 C259 1.399 . S
C264 C263 1.394 . S
C264 C265 1.516 . S
C265 C264 1.516 . S
C265 C266 1.502 . S
C265 C267 1.561 . S
C265 C268 1.526 . S
C266 H250 0.959 . S
C266 H251 0.959 . S
C266 H252 0.961 . S
C266 C265 1.502 . S
C267 H253 0.960 . S
C267 H254 0.961 . S
C267 H255 0.959 . S
C267 C265 1.561 . S
C268 C265 1.526 . S
C268 C269 1.396 . S
C268 C273 1.390 . S
C269 C263 1.465 . S
C269 C268 1.396 . S
C269 C270 1.399 . S
C270 H256 0.929 . S
C270 C269 1.399 . S
C270 C271 1.385 . S
C271 H257 0.931 . S
C271 C270 1.385 . S
C271 C272 1.389 . S
C272 C271 1.389 . S
C272 C273 1.387 . S
C273 H258 0.930 . S
C273 C268 1.390 . S
C273 C272 1.387 . S
H274 C286 0.930 . S
H275 C288 0.930 . S
H276 C289 0.930 . S
H277 C293 0.959 . S
H278 C293 0.959 . S
H279 C293 0.961 . S
H280 C294 0.960 . S
H281 C294 0.961 . S
H282 C294 0.959 . S
H283 C297 0.929 . S
H284 C298 0.931 . S
H285 C300 0.930 . S
C286 H274 0.930 . S
C286 C287 1.399 . S
C286 C291 1.399 . S
C287 C286 1.399 . S
C287 C288 1.376 . S
C288 H275 0.930 . S
C288 C287 1.376 . S
C288 C289 1.388 . S
C289 H276 0.930 . S
C289 C288 1.388 . S
C289 C290 1.390 . S
C290 C289 1.390 . S
C290 C291 1.394 . S
C290 C296 1.465 . S
C291 C286 1.399 . S
C291 C290 1.394 . S
C291 C292 1.516 . S
C292 C291 1.516 . S
C292 C293 1.502 . S
C292 C294 1.561 . S
C292 C295 1.526 . S
C293 H277 0.959 . S
C293 H278 0.959 . S
C293 H279 0.961 . S
C293 C292 1.502 . S
C294 H280 0.960 . S
C294 H281 0.961 . S
C294 H282 0.959 . S
C294 C292 1.561 . S
C295 C292 1.526 . S
C295 C296 1.396 . S
C295 C300 1.390 . S
C296 C290 1.465 . S
C296 C295 1.396 . S
C296 C297 1.399 . S
C297 H283 0.929 . S
C297 C296 1.399 . S
C297 C298 1.385 . S
C298 H284 0.931 . S
C298 C297 1.385 . S
C298 C299 1.389 . S
C299 C298 1.389 . S
C299 C300 1.387 . S
C300 H285 0.930 . S
C300 C295 1.390 . S
C300 C299 1.387 . S
H301 C313 0.930 . S
H302 C315 0.930 . S
H303 C316 0.930 . S
H304 C320 0.959 . S
H305 C320 0.945 1_556 S
H306 C320 0.961 . S
H307 C321 0.960 . S
H308 C321 0.961 1_556 S
H309 C321 0.959 1_556 S
H310 C324 0.929 . S
H311 C325 0.931 . S
H312 C327 0.930 . S
C313 H301 0.930 . S
C313 C314 1.399 . S
C313 C318 1.399 . S
C314 C313 1.399 . S
C314 C315 1.376 . S
C315 H302 0.930 . S
C315 C314 1.376 . S
C315 C316 1.388 . S
C316 H303 0.930 . S
C316 C315 1.388 . S
C316 C317 1.390 . S
C317 C316 1.390 . S
C317 C318 1.394 . S
C317 C323 1.465 1_554 S
C318 C313 1.399 . S
C318 C317 1.394 . S
C318 C319 1.516 . S
C319 C318 1.516 . S
C319 C320 1.502 . S
C319 C321 1.561 . S
C319 C322 1.526 1_554 S
C320 H304 0.959 . S
C320 H305 0.945 1_554 S
C320 H306 0.961 . S
C320 C319 1.502 . S
C321 H307 0.960 . S
C321 H308 0.961 1_554 S
C321 H309 0.959 1_554 S
C321 C319 1.561 . S
C322 C319 1.526 1_556 S
C322 C323 1.396 . S
C322 C327 1.390 . S
C323 C317 1.465 1_556 S
C323 C322 1.396 . S
C323 C324 1.399 . S
C324 H310 0.929 . S
C324 C323 1.399 . S
C324 C325 1.385 . S
C325 H311 0.931 . S
C325 C324 1.385 . S
C325 C326 1.389 . S
C326 C325 1.389 . S
C326 C327 1.387 . S
C327 H312 0.930 . S
C327 C322 1.390 . S
C327 C326 1.387 . S
H328 C340 0.930 . S
H329 C342 0.930 . S
H330 C343 0.930 1_655 S
H331 C347 0.967 . S
H332 C347 0.959 . S
H333 C347 0.961 1_545 S
H334 C348 0.960 . S
H335 C348 0.961 . S
H336 C348 0.959 . S
H337 C351 0.929 . S
H338 C352 0.931 . S
H339 C354 0.930 . S
C340 H328 0.930 . S
C340 C341 1.399 . S
C340 C345 1.399 . S
C341 C340 1.399 . S
C341 C342 1.376 . S
C342 H329 0.930 . S
C342 C341 1.376 . S
C342 C343 1.388 . S
C343 H330 0.930 1_455 S
C343 C342 1.388 . S
C343 C344 1.390 . S
C344 C343 1.390 . S
C344 C345 1.394 . S
C344 C350 1.465 1_445 S
C345 C340 1.399 . S
C345 C344 1.394 . S
C345 C346 1.516 1_545 S
C346 C345 1.516 1_565 S
C346 C347 1.502 . S
C346 C348 1.561 . S
C346 C349 1.526 1_455 S
C347 H331 0.967 . S
C347 H332 0.959 . S
C347 H333 0.961 1_565 S
C347 C346 1.502 . S
C348 H334 0.960 . S
C348 H335 0.961 . S
C348 H336 0.959 . S
C348 C346 1.561 . S
C349 C346 1.526 1_655 S
C349 C350 1.396 . S
C349 C354 1.390 . S
C350 C344 1.465 1_665 S
C350 C349 1.396 . S
C350 C351 1.399 . S
C351 H337 0.929 . S
C351 C350 1.399 . S
C351 C352 1.385 . S
C352 H338 0.931 . S
C352 C351 1.385 . S
C352 C353 1.389 . S
C353 C352 1.389 . S
C353 C354 1.387 . S
C354 H339 0.930 . S
C354 C349 1.390 . S
C354 C353 1.387 . S
H355 C367 0.930 . S
H356 C369 0.930 . S
H357 C370 0.930 . S
H358 C374 0.959 . S
H359 C374 0.959 . S
H360 C374 0.961 . S
H361 C375 0.960 . S
H362 C375 0.961 . S
H363 C375 0.969 . S
H364 C378 0.929 1_455 S
H365 C379 0.931 . S
H366 C381 0.930 . S
C367 H355 0.930 . S
C367 C368 1.399 . S
C367 C372 1.399 . S
C368 C367 1.399 . S
C368 C369 1.376 . S
C369 H356 0.930 . S
C369 C368 1.376 . S
C369 C370 1.388 . S
C370 H357 0.930 . S
C370 C369 1.388 . S
C370 C371 1.390 . S
C371 C370 1.390 . S
C371 C372 1.394 . S
C371 C377 1.465 1_455 S
C372 C367 1.399 . S
C372 C371 1.394 . S
C372 C373 1.516 1_455 S
C373 C372 1.516 1_655 S
C373 C374 1.502 . S
C373 C375 1.561 . S
C373 C376 1.526 . S
C374 H358 0.959 . S
C374 H359 0.959 . S
C374 H360 0.961 . S
C374 C373 1.502 . S
C375 H361 0.960 . S
C375 H362 0.961 . S
C375 H363 0.969 . S
C375 C373 1.561 . S
C376 C373 1.526 . S
C376 C377 1.396 . S
C376 C381 1.390 . S
C377 C371 1.465 1_655 S
C377 C376 1.396 . S
C377 C378 1.399 . S
C378 H364 0.929 1_655 S
C378 C377 1.399 . S
C378 C379 1.385 . S
C379 H365 0.931 . S
C379 C378 1.385 . S
C379 C380 1.389 . S
C380 C379 1.389 . S
C380 C381 1.387 . S
C381 H366 0.930 . S
C381 C376 1.390 . S
C381 C380 1.387 . S
H382 C394 0.930 . S
H383 C396 0.930 . S
H384 C397 0.930 . S
H385 C401 0.959 . S
H386 C401 0.959 . S
H387 C401 0.961 . S
H388 C402 0.960 . S
H389 C402 0.961 . S
H390 C402 0.959 . S
H391 C405 0.929 . S
H392 C406 0.931 . S
H393 C408 0.930 . S
C394 H382 0.930 . S
C394 C395 1.399 . S
C394 C399 1.399 . S
C395 C394 1.399 . S
C395 C396 1.376 . S
C396 H383 0.930 . S
C396 C395 1.376 . S
C396 C397 1.388 . S
C397 H384 0.930 . S
C397 C396 1.388 . S
C397 C398 1.390 . S
C398 C397 1.390 . S
C398 C399 1.394 . S
C398 C404 1.465 . S
C399 C394 1.399 . S
C399 C398 1.394 . S
C399 C400 1.516 . S
C400 C399 1.516 . S
C400 C401 1.502 . S
C400 C402 1.561 . S
C400 C403 1.526 . S
C401 H385 0.959 . S
C401 H386 0.959 . S
C401 H387 0.961 . S
C401 C400 1.502 . S
C402 H388 0.960 . S
C402 H389 0.961 . S
C402 H390 0.959 . S
C402 C400 1.561 . S
C403 C400 1.526 . S
C403 C404 1.396 . S
C403 C408 1.390 . S
C404 C398 1.465 . S
C404 C403 1.396 . S
C404 C405 1.399 . S
C405 H391 0.929 . S
C405 C404 1.399 . S
C405 C406 1.385 . S
C406 H392 0.931 . S
C406 C405 1.385 . S
C406 C407 1.389 . S
C407 C406 1.389 . S
C407 C408 1.387 . S
C408 H393 0.930 . S
C408 C403 1.390 . S
C408 C407 1.387 . S
H409 C421 0.930 . S
H410 C423 0.930 . S
H411 C424 0.930 . S
H412 C428 0.959 . S
H413 C428 0.959 . S
H414 C428 0.961 . S
H415 C429 0.960 . S
H416 C429 0.961 . S
H417 C429 0.959 . S
H418 C432 0.929 . S
H419 C433 0.931 . S
H420 C435 0.930 . S
C421 H409 0.930 . S
C421 C422 1.399 . S
C421 C426 1.399 . S
C422 C421 1.399 . S
C422 C423 1.376 . S
C423 H410 0.930 . S
C423 C422 1.376 . S
C423 C424 1.388 . S
C424 H411 0.930 . S
C424 C423 1.388 . S
C424 C425 1.390 . S
C425 C424 1.390 . S
C425 C426 1.394 . S
C425 C431 1.465 1_565 S
C426 C421 1.399 . S
C426 C425 1.394 . S
C426 C427 1.516 . S
C427 C426 1.516 . S
C427 C428 1.502 . S
C427 C429 1.561 1_565 S
C427 C430 1.526 1_565 S
C428 H412 0.959 . S
C428 H413 0.959 . S
C428 H414 0.961 . S
C428 C427 1.502 . S
C429 H415 0.960 . S
C429 H416 0.961 . S
C429 H417 0.959 . S
C429 C427 1.561 1_545 S
C430 C427 1.526 1_545 S
C430 C431 1.396 . S
C430 C435 1.390 . S
C431 C425 1.465 1_545 S
C431 C430 1.396 . S
C431 C432 1.399 . S
C432 H418 0.929 . S
C432 C431 1.399 . S
C432 C433 1.385 . S
C433 H419 0.931 . S
C433 C432 1.385 . S
C433 C434 1.389 . S
C434 C433 1.389 . S
C434 C435 1.387 . S
C435 H420 0.930 . S
C435 C430 1.390 . S
C435 C434 1.387 . S
H436 C448 0.930 . S
H437 C450 0.930 . S
H438 C451 0.930 . S
H439 C455 0.959 . S
H440 C455 0.959 . S
H441 C455 0.961 . S
H442 C456 0.960 . S
H443 C456 0.961 1_455 S
H444 C456 0.959 1_455 S
H445 C459 0.929 . S
H446 C460 0.931 . S
H447 C462 0.930 . S
C448 H436 0.930 . S
C448 C449 1.399 . S
C448 C453 1.399 . S
C449 C448 1.399 . S
C449 C450 1.376 . S
C450 H437 0.930 . S
C450 C449 1.376 . S
C450 C451 1.388 1_655 S
C451 H438 0.930 . S
C451 C450 1.388 1_455 S
C451 C452 1.390 . S
C452 C451 1.390 . S
C452 C453 1.394 1_455 S
C452 C458 1.465 . S
C453 C448 1.399 . S
C453 C452 1.394 1_655 S
C453 C454 1.516 . S
C454 C453 1.516 . S
C454 C455 1.502 . S
C454 C456 1.561 . S
C454 C457 1.526 1_655 S
C455 H439 0.959 . S
C455 H440 0.959 . S
C455 H441 0.961 . S
C455 C454 1.502 . S
C456 H442 0.960 . S
C456 H443 0.961 1_655 S
C456 H444 0.959 1_655 S
C456 C454 1.561 . S
C457 C454 1.526 1_455 S
C457 C458 1.396 . S
C457 C462 1.390 . S
C458 C452 1.465 . S
C458 C457 1.396 . S
C458 C459 1.399 . S
C459 H445 0.929 . S
C459 C458 1.399 . S
C459 C460 1.385 . S
C460 H446 0.931 . S
C460 C459 1.385 . S
C460 C461 1.389 . S
C461 C460 1.389 . S
C461 C462 1.387 . S
C462 H447 0.930 . S
C462 C457 1.390 . S
C462 C461 1.387 . S
H463 C475 0.930 . S
H464 C477 0.930 . S
H465 C478 0.930 . S
H466 C482 0.959 . S
H467 C482 0.959 . S
H468 C482 0.961 . S
H469 C483 0.960 . S
H470 C483 0.961 . S
H471 C483 0.959 . S
H472 C486 0.929 . S
H473 C487 0.931 . S
H474 C489 0.930 . S
C475 H463 0.930 . S
C475 C476 1.399 . S
C475 C480 1.399 . S
C476 C475 1.399 . S
C476 C477 1.376 . S
C477 H464 0.930 . S
C477 C476 1.376 . S
C477 C478 1.388 . S
C478 H465 0.930 . S
C478 C477 1.388 . S
C478 C479 1.390 . S
C479 C478 1.390 . S
C479 C480 1.394 . S
C479 C485 1.465 . S
C480 C475 1.399 . S
C480 C479 1.394 . S
C480 C481 1.516 . S
C481 C480 1.516 . S
C481 C482 1.502 . S
C481 C483 1.561 . S
C481 C484 1.526 . S
C482 H466 0.959 . S
C482 H467 0.959 . S
C482 H468 0.961 . S
C482 C481 1.502 . S
C483 H469 0.960 . S
C483 H470 0.961 . S
C483 H471 0.959 . S
C483 C481 1.561 . S
C484 C481 1.526 . S
C484 C485 1.396 . S
C484 C489 1.390 . S
C485 C479 1.465 . S
C485 C484 1.396 . S
C485 C486 1.399 . S
C486 H472 0.929 . S
C486 C485 1.399 . S
C486 C487 1.385 . S
C487 H473 0.931 . S
C487 C486 1.385 . S
C487 C488 1.389 . S
C488 C487 1.389 . S
C488 C489 1.387 . S
C489 H474 0.930 . S
C489 C484 1.390 . S
C489 C488 1.387 . S
H490 C502 0.930 . S
H491 C504 0.930 . S
H492 C505 0.930 . S
H493 C509 0.959 . S
H494 C509 0.959 . S
H495 C509 0.961 . S
H496 C510 0.960 1_545 S
H497 C510 0.961 . S
H498 C510 0.959 . S
H499 C513 0.929 . S
H500 C514 0.931 . S
H501 C516 0.930 . S
C502 H490 0.930 . S
C502 C503 1.399 . S
C502 C507 1.399 . S
C503 C502 1.399 . S
C503 C504 1.376 . S
C504 H491 0.930 . S
C504 C503 1.376 . S
C504 C505 1.388 . S
C505 H492 0.930 . S
C505 C504 1.388 . S
C505 C506 1.390 . S
C506 C505 1.390 . S
C506 C507 1.394 . S
C506 C512 1.465 1_545 S
C507 C502 1.399 . S
C507 C506 1.394 . S
C507 C508 1.516 . S
C508 C507 1.516 . S
C508 C509 1.502 . S
C508 C510 1.561 1_545 S
C508 C511 1.526 1_545 S
C509 H493 0.959 . S
C509 H494 0.959 . S
C509 H495 0.961 . S
C509 C508 1.502 . S
C510 H496 0.960 1_565 S
C510 H497 0.961 . S
C510 H498 0.959 . S
C510 C508 1.561 1_565 S
C511 C508 1.526 1_565 S
C511 C512 1.396 . S
C511 C516 1.390 . S
C512 C506 1.465 1_565 S
C512 C511 1.396 . S
C512 C513 1.399 . S
C513 H499 0.929 . S
C513 C512 1.399 . S
C513 C514 1.385 . S
C514 H500 0.931 . S
C514 C513 1.385 . S
C514 C515 1.389 . S
C515 C514 1.389 . S
C515 C516 1.387 . S
C516 H501 0.930 . S
C516 C511 1.390 . S
C516 C515 1.387 . S
H517 C529 0.930 . S
H518 C531 0.930 . S
H519 C532 0.930 1_545 S
H520 C536 0.959 . S
H521 C536 0.959 . S
H522 C536 0.961 . S
H523 C537 0.960 1_565 S
H524 C537 0.961 1_455 S
H525 C537 0.959 . S
H526 C540 0.929 . S
H527 C541 0.931 . S
H528 C543 0.930 . S
C529 H517 0.930 . S
C529 C530 1.399 . S
C529 C534 1.399 . S
C530 C529 1.399 . S
C530 C531 1.376 . S
C531 H518 0.930 . S
C531 C530 1.376 . S
C531 C532 1.388 . S
C532 H519 0.930 1_565 S
C532 C531 1.388 . S
C532 C533 1.390 . S
C533 C532 1.390 . S
C533 C534 1.394 . S
C533 C539 1.465 1_665 S
C534 C529 1.399 . S
C534 C533 1.394 . S
C534 C535 1.516 1_655 S
C535 C534 1.516 1_455 S
C535 C536 1.502 . S
C535 C537 1.561 1_465 S
C535 C538 1.526 1_565 S
C536 H520 0.959 . S
C536 H521 0.959 . S
C536 H522 0.961 . S
C536 C535 1.502 . S
C537 H523 0.960 1_545 S
C537 H524 0.961 1_655 S
C537 H525 0.959 . S
C537 C535 1.561 1_645 S
C538 C535 1.526 1_545 S
C538 C539 1.396 . S
C538 C543 1.390 . S
C539 C533 1.465 1_445 S
C539 C538 1.396 . S
C539 C540 1.399 . S
C540 H526 0.929 . S
C540 C539 1.399 . S
C540 C541 1.385 . S
C541 H527 0.931 . S
C541 C540 1.385 . S
C541 C542 1.389 . S
C542 C541 1.389 . S
C542 C543 1.387 . S
C543 H528 0.930 . S
C543 C538 1.390 . S
C543 C542 1.387 . S
C125 C0 1.217 . S
C137 C70 1.209 . S
C152 C23 1.241 . S
C164 C93 1.229 . S
C179 C28 1.218 . S
C191 C98 1.210 . S
C206 C51 1.171 . S
C218 C65 1.180 . S
C233 C107 1.237 . S
C245 C9 1.235 . S
C260 C56 1.219 . S
C272 C14 1.211 . S
C287 C37 1.243 . S
C299 C79 1.225 . S
C314 C84 1.224 . S
C326 C42 1.231 . S
C341 C5 1.570 . S
C353 C89 1.577 . S
C368 C109 1.546 . S
C380 C25 1.577 . S
C395 C33 1.569 . S
C407 C61 1.577 . S
C422 C53 1.547 . S
C434 C81 1.562 . S
C449 C95 1.545 . S
C461 C11 1.572 . S
C476 C103 1.557 . S
C488 C19 1.566 . S
C503 C39 1.587 . S
C515 C67 1.563 . S
C530 C47 1.557 . S
C542 C75 1.567 . S
