# Generated by pormake.
# Topology fne, (5)-cn, num edge types: 1
# Building blocks:
#     Node 0, Type 0, BuildingBlock: XOMCOT_clean_sbu_0, # of connection points: 5
#     Node 1, Type 0, BuildingBlock: XOMCOT_clean_sbu_0, # of connection points: 5
#     Node 2, Type 0, BuildingBlock: XOMCOT_clean_sbu_0, # of connection points: 5
#     Node 3, Type 0, BuildingBlock: XOMCOT_clean_sbu_0, # of connection points: 5
#     Node 4, Type 0, BuildingBlock: XOMCOT_clean_sbu_0, # of connection points: 5
#     Node 5, Type 0, BuildingBlock: XOMCOT_clean_sbu_0, # of connection points: 5
#     Edge 6, Type (0, 0), BuildingBlock: OJICUG_clean_linker_0, # of connection points: 2
#     Edge 7, Type (0, 0), BuildingBlock: OJICUG_clean_linker_0, # of connection points: 2
#     Edge 8, Type (0, 0), BuildingBlock: OJICUG_clean_linker_0, # of connection points: 2
#     Edge 9, Type (0, 0), BuildingBlock: OJICUG_clean_linker_0, # of connection points: 2
#     Edge 10, Type (0, 0), BuildingBlock: OJICUG_clean_linker_0, # of connection points: 2
#     Edge 11, Type (0, 0), BuildingBlock: OJICUG_clean_linker_0, # of connection points: 2
#     Edge 12, Type (0, 0), BuildingBlock: OJICUG_clean_linker_0, # of connection points: 2
#     Edge 13, Type (0, 0), BuildingBlock: OJICUG_clean_linker_0, # of connection points: 2
#     Edge 14, Type (0, 0), BuildingBlock: OJICUG_clean_linker_0, # of connection points: 2
#     Edge 15, Type (0, 0), BuildingBlock: OJICUG_clean_linker_0, # of connection points: 2
#     Edge 16, Type (0, 0), BuildingBlock: OJICUG_clean_linker_0, # of connection points: 2
#     Edge 17, Type (0, 0), BuildingBlock: OJICUG_clean_linker_0, # of connection points: 2
#     Edge 18, Type (0, 0), BuildingBlock: OJICUG_clean_linker_0, # of connection points: 2
#     Edge 19, Type (0, 0), BuildingBlock: OJICUG_clean_linker_0, # of connection points: 2
#     Edge 20, Type (0, 0), BuildingBlock: OJICUG_clean_linker_0, # of connection points: 2
# Relax obj value: 0.073
# Max RMSD: 0.102
# Mean RMSD: 0.102
data_MOF--net-fne--node1-XOMCOT_clean_sbu_0--edge1-OJICUG_clean_linker_0
_symmetry_space_group_name_H-M    P1
_symmetry_Int_Tables_number       1
_symmetry_cell_setting            triclinic
loop_
_symmetry_equiv_pos_as_xyz
'x, y, z'
_cell_length_a     34.351359
_cell_length_b     34.339846
_cell_length_c     13.460445
_cell_angle_alpha  89.996527
_cell_angle_beta   90.005697
_cell_angle_gamma 119.97062
loop_
_atom_site_label
_atom_site_type_symbol
_atom_site_fract_x
_atom_site_fract_y
_atom_site_fract_z
_atom_type_partial_charge
Co0 Co 0.37383 0.10737 0.07449 0.0
C1 C 0.37614 0.1 0.29372 0.0
C2 C 0.31251 0.05111 0.23432 0.0
C3 C 0.30956 0.04974 0.33645 0.0
N4 N 0.35469 0.08198 0.20706 0.0
N5 N 0.34965 0.08073 0.37364 0.0
H6 H 0.4088 0.12974 0.29879 0.0
H7 H 0.28465 0.03305 0.18394 0.0
C8 C 0.31831 1.00848 0.02794 0.0
O9 O 0.34038 1.00039 0.09706 0.0
N10 N 0.39206 0.133 0.9434 0.0
C11 C 0.43331 0.16578 0.91646 0.0
C12 C 0.43517 0.16851 0.81425 0.0
C13 C 0.36926 0.1166 0.85771 0.0
N14 N 0.39493 0.13729 0.77748 0.0
C15 C 0.45477 0.10918 0.1363 0.0
C16 C 0.45682 0.05449 0.98845 0.0
C17 C 0.49104 0.07151 0.06038 0.0
C18 C 0.48993 0.09991 0.13382 0.0
C19 C 0.42237 0.06506 0.99321 0.0
N20 N 0.42034 0.09033 0.0695 0.0
H21 H 0.45644 0.13304 0.19011 0.0
H22 H 0.3976 0.05317 0.93462 0.0
H23 H 0.46087 0.18458 0.96724 0.0
H24 H 0.33556 0.08815 0.85362 0.0
O25 O 0.40886 0.16637 0.13295 0.0
O26 O 0.33735 0.13569 0.08962 0.0
O27 O 0.32714 0.04876 0.01168 0.0
C28 C 0.37256 0.16925 0.13041 0.0
H29 H 0.27958 0.02898 0.37948 0.0
H30 H 0.4644 0.19071 0.77054 0.0
H31 H 0.4564 0.03303 0.92907 0.0
H32 H 0.51667 0.11593 0.18795 0.0
Co33 Co 0.3172 0.36146 0.40617 0.0
C34 C 0.32688 0.36379 0.62541 0.0
C35 C 0.31222 0.30015 0.56604 0.0
C36 C 0.31063 0.2972 0.66816 0.0
N37 N 0.32348 0.34234 0.53876 0.0
N38 N 0.31969 0.3373 0.70534 0.0
H39 H 0.32975 0.39645 0.63046 0.0
H40 H 0.30246 0.27228 0.51568 0.0
C41 C 0.36061 0.30597 0.35965 0.0
O42 O 0.39079 0.32815 0.42864 0.0
N43 N 0.30976 0.37968 0.27509 0.0
C44 C 0.31817 0.42093 0.24814 0.0
C45 C 0.31726 0.42278 0.14593 0.0
C46 C 0.30339 0.35687 0.1894 0.0
N47 N 0.30831 0.38254 0.10916 0.0
C48 C 0.39639 0.44236 0.46797 0.0
C49 C 0.45297 0.4443 0.31989 0.0
C50 C 0.47027 0.47847 0.39196 0.0
C51 C 0.44085 0.47743 0.46549 0.0
C52 C 0.40794 0.40996 0.32463 0.0
N53 N 0.38072 0.40796 0.40106 0.0
H54 H 0.37426 0.44406 0.5219 0.0
H55 H 0.39499 0.38521 0.26599 0.0
H56 H 0.32688 0.44849 0.29891 0.0
H57 H 0.2982 0.32317 0.1853 0.0
O58 O 0.29327 0.39654 0.46464 0.0
O59 O 0.25246 0.325 0.4214 0.0
O60 O 0.32911 0.31472 0.34343 0.0
C61 C 0.25411 0.36023 0.46218 0.0
H62 H 0.30145 0.26721 0.71121 0.0
H63 H 0.32425 0.45201 0.10221 0.0
H64 H 0.47394 0.44382 0.26044 0.0
H65 H 0.45165 0.50415 0.51974 0.0
Co66 Co 1.00681 0.30431 0.73969 0.0
C67 C 1.01366 0.31348 0.95874 0.0
C68 C 0.06346 0.3 0.89939 0.0
C69 C 0.06445 0.29784 1.00145 0.0
N70 N 1.03226 0.31092 0.87218 0.0
N71 N 1.03274 0.3059 0.03848 0.0
H72 H 0.9844 0.31722 0.9637 0.0
H73 H 0.08171 0.29044 0.849 0.0
C74 C 0.10567 0.34804 0.69255 0.0
O75 O 0.11363 0.37838 0.76114 0.0
N76 N 0.9812 0.2964 0.60868 0.0
C77 C 0.94908 0.30554 0.57982 0.0
C78 C 0.94656 0.30376 0.47752 0.0
C79 C 0.99741 0.28875 0.52429 0.0
N80 N 0.97737 0.29369 0.44287 0.0
C81 C 1.00496 0.38355 0.80058 0.0
C82 C 0.05929 0.43991 0.65188 0.0
C83 C 0.04255 0.45733 0.72397 0.0
C84 C 1.01427 0.428 0.79775 0.0
C85 C 0.04865 0.39487 0.65693 0.0
N86 N 1.02362 0.36778 0.73372 0.0
H87 H 0.98127 0.3615 0.85477 0.0
H88 H 0.06035 0.3818 0.59832 0.0
H89 H 0.93085 0.31561 0.62919 0.0
H90 H 1.02458 0.28146 0.52209 0.0
O91 O 0.94783 0.2804 0.79805 0.0
O92 O 0.97871 0.23959 0.75581 0.0
O93 O 0.06549 0.3163 0.67698 0.0
C94 C 0.94512 0.24128 0.79636 0.0
H95 H 0.08449 0.28765 0.04444 0.0
H96 H 0.92578 0.31217 0.43216 0.0
H97 H 0.08063 0.46079 0.59221 0.0
H98 H 0.99842 0.43887 0.85199 0.0
Co99 Co 0.75356 0.9943 0.07444 0.0
C100 C 0.75126 1.00167 0.29367 0.0
C101 C 0.81489 0.05054 0.23429 0.0
C102 C 0.81784 0.05192 0.33642 0.0
N103 N 0.7727 1.01968 0.20702 0.0
N104 N 0.77774 1.02094 0.3736 0.0
H105 H 0.71859 0.97193 0.29874 0.0
H106 H 0.84275 0.0686 0.18392 0.0
C107 C 0.80909 0.0932 0.02791 0.0
O108 O 0.78702 0.10128 0.09703 0.0
N109 N 0.73532 0.96868 0.94336 0.0
C110 C 0.69407 0.93591 0.9164 0.0
C111 C 0.69221 0.93317 0.81419 0.0
C112 C 0.75812 0.98507 0.85768 0.0
N113 N 0.73245 0.96438 0.77743 0.0
C114 C 0.67262 0.99248 0.13624 0.0
C115 C 0.67057 0.0472 0.98844 0.0
C116 C 0.63636 0.03017 0.06036 0.0
C117 C 0.63746 1.00176 0.13377 0.0
C118 C 0.70502 0.03663 0.99318 0.0
N119 N 0.70705 1.01134 0.06946 0.0
H120 H 0.67095 0.96861 0.19003 0.0
H121 H 0.72979 0.04852 0.9346 0.0
H122 H 0.6665 0.9171 0.96718 0.0
H123 H 0.79183 1.01352 0.85359 0.0
O124 O 0.71853 0.9353 0.13289 0.0
O125 O 0.79003 0.96598 0.08957 0.0
O126 O 0.80025 0.05291 0.01164 0.0
C127 C 0.75483 0.93242 0.13036 0.0
H128 H 0.84782 0.07268 0.37946 0.0
H129 H 0.66298 0.91098 0.77047 0.0
H130 H 0.67099 0.06867 0.92907 0.0
H131 H 0.61072 0.98573 0.18789 0.0
Co132 Co 0.81018 0.74018 0.40609 0.0
C133 C 0.80052 0.73786 0.62532 0.0
C134 C 0.81518 0.8015 0.56594 0.0
C135 C 0.81677 0.80445 0.66806 0.0
N136 N 0.80391 0.75931 0.53867 0.0
N137 N 0.80771 0.76435 0.70525 0.0
H138 H 0.79764 0.70519 0.63038 0.0
H139 H 0.82495 0.82937 0.51557 0.0
C140 C 0.76677 0.79567 0.35956 0.0
O141 O 0.7366 0.7735 0.42856 0.0
N142 N 0.81761 0.72196 0.27501 0.0
C143 C 0.80921 0.68071 0.24807 0.0
C144 C 0.81011 0.67886 0.14587 0.0
C145 C 0.82399 0.74476 0.18933 0.0
N146 N 0.81906 0.71909 0.10909 0.0
C147 C 0.73101 0.65928 0.4679 0.0
C148 C 0.67441 0.65734 0.31985 0.0
C149 C 0.65711 0.62318 0.39192 0.0
C150 C 0.68655 0.62421 0.46544 0.0
C151 C 0.71944 0.69168 0.32457 0.0
N152 N 0.74667 0.69368 0.40099 0.0
H153 H 0.75314 0.65758 0.52182 0.0
H154 H 0.73238 0.71643 0.26592 0.0
H155 H 0.80049 0.65314 0.29885 0.0
H156 H 0.82918 0.77847 0.18522 0.0
O157 O 0.83413 0.7051 0.46458 0.0
O158 O 0.87493 0.77664 0.42131 0.0
O159 O 0.79827 0.78691 0.34333 0.0
C160 C 0.87329 0.74142 0.46211 0.0
H161 H 0.82596 0.83444 0.7111 0.0
H162 H 0.80312 0.64963 0.10215 0.0
H163 H 0.65343 0.65782 0.2604 0.0
H164 H 0.67575 0.59749 0.51968 0.0
Co165 Co 0.1206 0.79736 0.73965 0.0
C166 C 0.11375 0.78819 0.9587 0.0
C167 C 0.06396 0.80166 0.89933 0.0
C168 C 0.06296 0.80383 1.00138 0.0
N169 N 0.09515 0.79074 0.87214 0.0
N170 N 0.09467 0.79577 0.03843 0.0
H171 H 0.14301 0.78445 0.96368 0.0
H172 H 0.0457 0.81123 0.84892 0.0
C173 C 1.02175 0.75362 0.69249 0.0
O174 O 1.01379 0.72328 0.76108 0.0
N175 N 0.14621 0.80528 0.60865 0.0
C176 C 0.17834 0.79614 0.57982 0.0
C177 C 0.18086 0.79792 0.47752 0.0
C178 C 0.13 0.81292 0.52426 0.0
N179 N 0.15004 0.80798 0.44285 0.0
C180 C 0.12246 0.71813 0.80056 0.0
C181 C 0.06813 0.66177 0.65186 0.0
C182 C 0.08488 0.64434 0.72395 0.0
C183 C 0.11315 0.67368 0.79774 0.0
C184 C 0.07877 0.7068 0.6569 0.0
N185 N 0.1038 0.73389 0.73369 0.0
H186 H 0.14615 0.74017 0.85477 0.0
H187 H 0.06707 0.71987 0.59828 0.0
H188 H 0.19657 0.78607 0.6292 0.0
H189 H 0.10283 0.82021 0.52204 0.0
O190 O 0.17959 0.82127 0.79804 0.0
O191 O 0.14869 0.86208 0.75577 0.0
O192 O 0.06192 0.78537 0.67692 0.0
C193 C 0.18229 0.8604 0.79635 0.0
H194 H 0.04292 0.81402 0.04436 0.0
H195 H 0.20164 0.78952 0.43217 0.0
H196 H 0.04679 0.64088 0.59218 0.0
H197 H 0.12901 0.6628 0.852 0.0
C198 C 0.54614 0.05569 0.96909 0.0
C199 C 0.52805 0.06057 0.05901 0.0
H200 H 0.5938 0.04183 0.89846 0.0
C201 C 0.54608 0.05546 0.14869 0.0
H202 H 0.53359 0.05989 0.89847 0.0
C203 C 0.58133 0.04622 0.14868 0.0
C204 C 0.59935 0.04112 0.059 0.0
H205 H 0.53275 0.05825 0.21954 0.0
H206 H 0.59465 0.04342 0.21953 0.0
C207 C 0.58126 0.04601 0.96908 0.0
C208 C 0.58597 0.56837 0.48028 0.0
C209 C 0.60912 0.5863 0.3906 0.0
H210 H 0.52529 0.52001 0.55115 0.0
C211 C 0.58611 0.5683 0.30069 0.0
H212 H 0.60212 0.58164 0.55113 0.0
C213 C 0.54126 0.53335 0.3007 0.0
C214 C 0.51827 0.51534 0.39062 0.0
H215 H 0.60285 0.58077 0.23005 0.0
H216 H 0.52451 0.52087 0.23007 0.0
C217 C 0.54143 0.53328 0.48029 0.0
C218 C 0.05898 0.52856 0.81221 0.0
C219 C 0.05372 0.50537 0.72255 0.0
H220 H 0.07132 0.58926 0.88308 0.0
C221 C 0.05873 0.52839 0.63262 0.0
H222 H 0.05611 0.51242 0.88308 0.0
C223 C 0.06869 0.57329 0.63262 0.0
C224 C 0.0737 0.59631 0.72254 0.0
H225 H 0.05445 0.51163 0.562 0.0
H226 H 0.07298 0.59005 0.562 0.0
C227 C 0.06845 0.57312 0.81221 0.0
C228 C 0.40584 0.11642 0.50767 0.0
C229 C 0.36084 0.09474 0.47583 0.0
H230 H 0.45195 0.14669 0.62794 0.0
C231 C 0.32729 0.08793 0.54492 0.0
H232 H 0.43247 0.1216 0.45701 0.0
C233 C 0.33852 0.10244 0.64327 0.0
C234 C 0.38354 0.12412 0.67498 0.0
H235 H 0.29238 0.07205 0.52289 0.0
H236 H 0.31192 0.09701 0.69429 0.0
C237 C 0.41706 0.13099 0.60584 0.0
C238 C 0.29012 0.31491 0.87661 0.0
C239 C 0.31683 0.34848 0.80753 0.0
H240 H 0.26568 0.29951 0.02597 0.0
C241 C 0.34009 0.39349 0.83936 0.0
H242 H 0.27114 0.27999 0.85457 0.0
C243 C 0.33672 0.4047 0.93753 0.0
C244 C 0.31012 0.37116 1.00667 0.0
H245 H 0.36151 0.42014 0.78872 0.0
H246 H 0.35587 0.4396 0.95964 0.0
C247 C 0.28682 0.32612 0.97496 0.0
C248 C 0.04908 0.31073 0.21823 0.0
C249 C 1.01843 0.30173 0.14057 0.0
H250 H 0.06038 0.31586 0.37491 0.0
C251 C 0.97361 0.28858 0.16429 0.0
H252 H 0.08387 0.32131 0.20245 0.0
C253 C 0.96002 0.28532 0.26327 0.0
C254 C 0.99083 0.29492 0.3409 0.0
H255 H 0.94876 0.28027 0.10655 0.0
H256 H 0.92531 0.27503 0.2791 0.0
C257 C 1.03549 0.30741 0.31719 0.0
C258 C 0.71033 0.97069 0.60578 0.0
C259 C 0.74384 0.97756 0.67494 0.0
H260 H 0.69492 0.98008 0.45694 0.0
C261 C 0.78887 0.99922 0.64325 0.0
H262 H 0.67544 0.955 0.62787 0.0
C263 C 0.8001 1.01373 0.5449 0.0
C264 C 0.76655 1.00693 0.47579 0.0
H265 H 0.81546 1.00464 0.69428 0.0
H266 H 0.83501 0.0296 0.52288 0.0
C267 C 0.72155 0.98525 0.50761 0.0
C268 C 0.83728 0.78674 0.87653 0.0
C269 C 0.81056 0.75317 0.80744 0.0
H270 H 0.86171 0.80213 0.0259 0.0
C271 C 0.7873 0.70815 0.83928 0.0
H272 H 0.85626 0.82166 0.85449 0.0
C273 C 0.79066 0.69694 0.93745 0.0
C274 C 0.81727 0.73048 1.0066 0.0
H275 H 0.76587 0.68151 0.78863 0.0
H276 H 0.77151 0.66204 0.95956 0.0
C277 C 0.84057 0.77552 0.97488 0.0
C278 C 0.09192 0.79425 0.31714 0.0
C279 C 0.13658 0.80675 0.34087 0.0
H280 H 0.04354 0.78035 0.20238 0.0
C281 C 0.16739 0.81636 0.26326 0.0
H282 H 0.06704 0.7858 0.37486 0.0
C283 C 0.15381 0.8131 0.16426 0.0
C284 C 0.10898 0.79994 0.14053 0.0
H285 H 0.20211 0.82665 0.27909 0.0
H286 H 0.17865 0.82141 0.10654 0.0
C287 C 0.07833 0.79094 0.21817 0.0
C288 C 0.40573 0.23524 0.24567 0.0
C289 C 0.37034 0.20611 0.18286 0.0
H290 H 0.43026 0.28902 0.35112 0.0
C291 C 0.33194 0.21063 0.17704 0.0
H292 H 0.43568 0.23248 0.25259 0.0
C293 C 0.3289 0.24333 0.23356 0.0
C294 C 0.36395 0.27181 0.2981 0.0
H295 H 0.30402 0.18858 0.12973 0.0
H296 H 0.29875 0.24579 0.22781 0.0
C297 C 0.4025 0.26752 0.30287 0.0
C298 C 0.17216 0.31962 0.50888 0.0
C299 C 0.21507 0.358 0.5148 0.0
H300 H 0.10389 0.28637 0.55985 0.0
C301 C 0.22137 0.39332 0.57795 0.0
H302 H 0.16626 0.29177 0.46128 0.0
C303 C 0.18591 0.39002 0.63543 0.0
C304 C 0.1431 0.35147 0.63064 0.0
H305 H 0.25406 0.42325 0.58494 0.0
H306 H 0.19221 0.41772 0.68396 0.0
C307 C 0.13648 0.31651 0.5657 0.0
C308 C 0.87112 0.12375 0.90042 0.0
C309 C 0.84318 0.13061 0.96612 0.0
H310 H 0.92524 0.15324 0.79501 0.0
C311 C 0.84792 0.17363 0.97171 0.0
H312 H 0.86835 0.09102 0.89406 0.0
C313 C 0.88 0.20899 0.91395 0.0
C314 C 0.90851 0.20241 0.84975 0.0
H315 H 0.82688 0.18013 0.02097 0.0
H316 H 0.88313 0.24184 0.92152 0.0
C317 C 0.90364 0.15935 0.84334 0.0
C318 C 0.79544 0.89102 0.17697 0.0
C319 C 0.75704 0.89555 0.1828 0.0
H320 H 0.82863 0.85586 0.22772 0.0
C321 C 0.72165 0.86641 0.2456 0.0
H322 H 0.82335 0.91307 0.12966 0.0
C323 C 0.72489 0.83413 0.30279 0.0
C324 C 0.76343 0.82983 0.29801 0.0
H325 H 0.69171 0.86918 0.25253 0.0
H326 H 0.69713 0.81263 0.35104 0.0
C327 C 0.79848 0.85832 0.23348 0.0
C328 C 0.9415 0.71164 0.63536 0.0
C329 C 0.98431 0.75019 0.63057 0.0
H330 H 0.87334 0.6784 0.58488 0.0
C331 C 0.99092 0.78515 0.56563 0.0
H332 H 0.93521 0.68394 0.6839 0.0
C333 C 0.95523 0.78203 0.5088 0.0
C334 C 0.91232 0.74365 0.51473 0.0
H335 H 1.02351 0.81529 0.55977 0.0
H336 H 0.96113 0.80988 0.4612 0.0
C337 C 0.90604 0.70833 0.57787 0.0
C338 C 0.22376 0.94232 0.84334 0.0
C339 C 0.21889 0.89927 0.84974 0.0
H340 H 0.25904 1.01065 0.89407 0.0
C341 C 0.24741 0.89268 0.91396 0.0
H342 H 0.20216 0.94842 0.795 0.0
C343 C 0.27949 0.92805 0.97172 0.0
C344 C 0.28422 0.97106 0.96613 0.0
H345 H 0.24429 0.85983 0.92151 0.0
H346 H 0.30053 0.92154 0.02099 0.0
C347 C 0.25627 0.97792 0.90043 0.0
loop_
_geom_bond_atom_site_label_1
_geom_bond_atom_site_label_2
_geom_bond_distance
_geom_bond_site_symmetry_2
_ccdc_geom_bond_type
Co0 N4 2.148 . S
Co0 N10 2.128 1_554 S
Co0 N20 2.194 . S
Co0 O25 2.351 . S
Co0 O26 2.155 . S
Co0 O27 2.096 1_545 S
C1 N4 1.301 . S
C1 N5 1.328 . S
C1 H6 0.930 . S
C2 C3 1.333 . S
C2 N4 1.317 1_565 S
C2 H7 0.930 . S
C3 C2 1.333 . S
C3 N5 1.350 1_565 S
C3 H29 0.931 . S
N4 Co0 2.148 . S
N4 C1 1.301 . S
N4 C2 1.317 1_545 S
N5 C1 1.328 . S
N5 C3 1.350 1_545 S
H6 C1 0.930 . S
H7 C2 0.930 . S
C8 O9 1.224 . S
C8 O27 1.247 1_556 S
O9 C8 1.224 . S
N10 Co0 2.128 1_556 S
N10 C11 1.355 . S
N10 C13 1.311 . S
C11 N10 1.355 . S
C11 C12 1.363 . S
C11 H23 0.929 . S
C12 C11 1.363 . S
C12 N14 1.375 . S
C12 H30 0.931 . S
C13 N10 1.311 . S
C13 N14 1.347 . S
C13 H24 0.929 . S
N14 C12 1.375 . S
N14 C13 1.347 . S
C15 C18 1.365 . S
C15 N20 1.328 . S
C15 H21 0.929 . S
C16 C17 1.362 1_565 S
C16 C19 1.378 . S
C16 H31 0.929 . S
C17 C16 1.362 1_545 S
C17 C18 1.366 . S
C18 C15 1.365 . S
C18 C17 1.366 . S
C18 H32 0.930 . S
C19 C16 1.378 . S
C19 N20 1.315 1_565 S
C19 H22 0.930 . S
N20 Co0 2.194 . S
N20 C15 1.328 . S
N20 C19 1.315 1_545 S
H21 C15 0.929 . S
H22 C19 0.930 . S
H23 C11 0.929 . S
H24 C13 0.929 . S
O25 Co0 2.351 . S
O25 C28 1.244 . S
O26 Co0 2.155 . S
O26 C28 1.240 . S
O27 Co0 2.096 1_565 S
O27 C8 1.247 1_554 S
C28 O25 1.244 . S
C28 O26 1.240 . S
H29 C3 0.931 . S
H30 C12 0.931 . S
H31 C16 0.929 . S
H32 C18 0.930 . S
Co33 N37 2.148 . S
Co33 N43 2.128 . S
Co33 N53 2.194 . S
Co33 O58 2.351 . S
Co33 O59 2.155 . S
Co33 O60 2.096 . S
C34 N37 1.301 . S
C34 N38 1.328 . S
C34 H39 0.930 . S
C35 C36 1.333 . S
C35 N37 1.317 . S
C35 H40 0.930 . S
C36 C35 1.333 . S
C36 N38 1.350 . S
C36 H62 0.931 . S
N37 Co33 2.148 . S
N37 C34 1.301 . S
N37 C35 1.317 . S
N38 C34 1.328 . S
N38 C36 1.350 . S
H39 C34 0.930 . S
H40 C35 0.930 . S
C41 O42 1.224 . S
C41 O60 1.247 . S
O42 C41 1.224 . S
N43 Co33 2.128 . S
N43 C44 1.355 . S
N43 C46 1.311 . S
C44 N43 1.355 . S
C44 C45 1.363 . S
C44 H56 0.929 . S
C45 C44 1.363 . S
C45 N47 1.375 . S
C45 H63 0.931 . S
C46 N43 1.311 . S
C46 N47 1.347 . S
C46 H57 0.929 . S
N47 C45 1.375 . S
N47 C46 1.347 . S
C48 C51 1.365 . S
C48 N53 1.328 . S
C48 H54 0.929 . S
C49 C50 1.362 . S
C49 C52 1.378 . S
C49 H64 0.929 . S
C50 C49 1.362 . S
C50 C51 1.366 . S
C51 C48 1.365 . S
C51 C50 1.366 . S
C51 H65 0.930 . S
C52 C49 1.378 . S
C52 N53 1.315 . S
C52 H55 0.930 . S
N53 Co33 2.194 . S
N53 C48 1.328 . S
N53 C52 1.315 . S
H54 C48 0.929 . S
H55 C52 0.930 . S
H56 C44 0.929 . S
H57 C46 0.929 . S
O58 Co33 2.351 . S
O58 C61 1.244 . S
O59 Co33 2.155 . S
O59 C61 1.240 . S
O60 Co33 2.096 . S
O60 C41 1.247 . S
C61 O58 1.244 . S
C61 O59 1.240 . S
H62 C36 0.931 . S
H63 C45 0.931 . S
H64 C49 0.929 . S
H65 C51 0.930 . S
Co66 N70 2.148 . S
Co66 N76 2.128 . S
Co66 N86 2.194 . S
Co66 O91 2.351 1_455 S
Co66 O92 2.155 1_455 S
Co66 O93 2.096 . S
C67 N70 1.301 . S
C67 N71 1.328 1_556 S
C67 H72 0.930 1_455 S
C68 C69 1.333 1_556 S
C68 N70 1.317 . S
C68 H73 0.930 . S
C69 C68 1.333 1_554 S
C69 N71 1.350 . S
C69 H95 0.931 . S
N70 Co66 2.148 . S
N70 C67 1.301 . S
N70 C68 1.317 . S
N71 C67 1.328 1_554 S
N71 C69 1.350 . S
H72 C67 0.930 1_655 S
H73 C68 0.930 . S
C74 O75 1.224 . S
C74 O93 1.247 . S
O75 C74 1.224 . S
N76 Co66 2.128 . S
N76 C77 1.355 1_455 S
N76 C79 1.311 . S
C77 N76 1.355 1_655 S
C77 C78 1.363 . S
C77 H89 0.929 . S
C78 C77 1.363 . S
C78 N80 1.375 1_655 S
C78 H96 0.931 . S
C79 N76 1.311 . S
C79 N80 1.347 . S
C79 H90 0.929 . S
N80 C78 1.375 1_455 S
N80 C79 1.347 . S
C81 C84 1.365 . S
C81 N86 1.328 1_655 S
C81 H87 0.929 . S
C82 C83 1.362 . S
C82 C85 1.378 . S
C82 H97 0.929 . S
C83 C82 1.362 . S
C83 C84 1.366 1_455 S
C84 C81 1.365 . S
C84 C83 1.366 1_655 S
C84 H98 0.930 . S
C85 C82 1.378 . S
C85 N86 1.315 . S
C85 H88 0.930 . S
N86 Co66 2.194 . S
N86 C81 1.328 1_455 S
N86 C85 1.315 . S
H87 C81 0.929 . S
H88 C85 0.930 . S
H89 C77 0.929 . S
H90 C79 0.929 . S
O91 Co66 2.351 1_655 S
O91 C94 1.244 . S
O92 Co66 2.155 1_655 S
O92 C94 1.240 . S
O93 Co66 2.096 . S
O93 C74 1.247 . S
C94 O91 1.244 . S
C94 O92 1.240 . S
H95 C69 0.931 . S
H96 C78 0.931 . S
H97 C82 0.929 . S
H98 C84 0.930 . S
Co99 N103 2.148 . S
Co99 N109 2.128 1_554 S
Co99 N119 2.194 . S
Co99 O124 2.351 1_545 S
Co99 O125 2.155 1_545 S
Co99 O126 2.096 . S
C100 N103 1.301 . S
C100 N104 1.328 . S
C100 H105 0.930 1_545 S
C101 C102 1.333 . S
C101 N103 1.317 . S
C101 H106 0.930 . S
C102 C101 1.333 . S
C102 N104 1.350 . S
C102 H128 0.931 . S
N103 Co99 2.148 . S
N103 C100 1.301 . S
N103 C101 1.317 . S
N104 C100 1.328 . S
N104 C102 1.350 . S
H105 C100 0.930 1_565 S
H106 C101 0.930 . S
C107 O108 1.224 . S
C107 O126 1.247 1_556 S
O108 C107 1.224 . S
N109 Co99 2.128 1_556 S
N109 C110 1.355 1_545 S
N109 C112 1.311 . S
C110 N109 1.355 1_565 S
C110 C111 1.363 . S
C110 H122 0.929 . S
C111 C110 1.363 . S
C111 N113 1.375 1_565 S
C111 H129 0.931 . S
C112 N109 1.311 . S
C112 N113 1.347 . S
C112 H123 0.929 . S
N113 C111 1.375 1_545 S
N113 C112 1.347 . S
C114 C117 1.365 . S
C114 N119 1.328 1_565 S
C114 H120 0.929 . S
C115 C116 1.362 . S
C115 C118 1.378 . S
C115 H130 0.929 . S
C116 C115 1.362 . S
C116 C117 1.366 1_545 S
C117 C114 1.365 . S
C117 C116 1.366 1_565 S
C117 H131 0.930 . S
C118 C115 1.378 . S
C118 N119 1.315 . S
C118 H121 0.930 . S
N119 Co99 2.194 . S
N119 C114 1.328 1_545 S
N119 C118 1.315 . S
H120 C114 0.929 . S
H121 C118 0.930 . S
H122 C110 0.929 . S
H123 C112 0.929 . S
O124 Co99 2.351 1_565 S
O124 C127 1.244 . S
O125 Co99 2.155 1_565 S
O125 C127 1.240 . S
O126 Co99 2.096 . S
O126 C107 1.247 1_554 S
C127 O124 1.244 . S
C127 O125 1.240 . S
H128 C102 0.931 . S
H129 C111 0.931 . S
H130 C115 0.929 . S
H131 C117 0.930 . S
Co132 N136 2.148 . S
Co132 N142 2.128 . S
Co132 N152 2.194 . S
Co132 O157 2.351 . S
Co132 O158 2.155 . S
Co132 O159 2.096 . S
C133 N136 1.301 . S
C133 N137 1.328 . S
C133 H138 0.930 . S
C134 C135 1.333 . S
C134 N136 1.317 . S
C134 H139 0.930 . S
C135 C134 1.333 . S
C135 N137 1.350 . S
C135 H161 0.931 . S
N136 Co132 2.148 . S
N136 C133 1.301 . S
N136 C134 1.317 . S
N137 C133 1.328 . S
N137 C135 1.350 . S
H138 C133 0.930 . S
H139 C134 0.930 . S
C140 O141 1.224 . S
C140 O159 1.247 . S
O141 C140 1.224 . S
N142 Co132 2.128 . S
N142 C143 1.355 . S
N142 C145 1.311 . S
C143 N142 1.355 . S
C143 C144 1.363 . S
C143 H155 0.929 . S
C144 C143 1.363 . S
C144 N146 1.375 . S
C144 H162 0.931 . S
C145 N142 1.311 . S
C145 N146 1.347 . S
C145 H156 0.929 . S
N146 C144 1.375 . S
N146 C145 1.347 . S
C147 C150 1.365 . S
C147 N152 1.328 . S
C147 H153 0.929 . S
C148 C149 1.362 . S
C148 C151 1.378 . S
C148 H163 0.929 . S
C149 C148 1.362 . S
C149 C150 1.366 . S
C150 C147 1.365 . S
C150 C149 1.366 . S
C150 H164 0.930 . S
C151 C148 1.378 . S
C151 N152 1.315 . S
C151 H154 0.930 . S
N152 Co132 2.194 . S
N152 C147 1.328 . S
N152 C151 1.315 . S
H153 C147 0.929 . S
H154 C151 0.930 . S
H155 C143 0.929 . S
H156 C145 0.929 . S
O157 Co132 2.351 . S
O157 C160 1.244 . S
O158 Co132 2.155 . S
O158 C160 1.240 . S
O159 Co132 2.096 . S
O159 C140 1.247 . S
C160 O157 1.244 . S
C160 O158 1.240 . S
H161 C135 0.931 . S
H162 C144 0.931 . S
H163 C148 0.929 . S
H164 C150 0.930 . S
Co165 N169 2.148 . S
Co165 N175 2.128 . S
Co165 N185 2.194 . S
Co165 O190 2.351 . S
Co165 O191 2.155 . S
Co165 O192 2.096 1_455 S
C166 N169 1.301 . S
C166 N170 1.328 1_556 S
C166 H171 0.930 . S
C167 C168 1.333 1_556 S
C167 N169 1.317 1_655 S
C167 H172 0.930 . S
C168 C167 1.333 1_554 S
C168 N170 1.350 1_655 S
C168 H194 0.931 . S
N169 Co165 2.148 . S
N169 C166 1.301 . S
N169 C167 1.317 1_455 S
N170 C166 1.328 1_554 S
N170 C168 1.350 1_455 S
H171 C166 0.930 . S
H172 C167 0.930 . S
C173 O174 1.224 . S
C173 O192 1.247 . S
O174 C173 1.224 . S
N175 Co165 2.128 . S
N175 C176 1.355 . S
N175 C178 1.311 . S
C176 N175 1.355 . S
C176 C177 1.363 . S
C176 H188 0.929 . S
C177 C176 1.363 . S
C177 N179 1.375 . S
C177 H195 0.931 . S
C178 N175 1.311 . S
C178 N179 1.347 . S
C178 H189 0.929 . S
N179 C177 1.375 . S
N179 C178 1.347 . S
C180 C183 1.365 . S
C180 N185 1.328 . S
C180 H186 0.929 . S
C181 C182 1.362 1_655 S
C181 C184 1.378 . S
C181 H196 0.929 . S
C182 C181 1.362 1_455 S
C182 C183 1.366 . S
C183 C180 1.365 . S
C183 C182 1.366 . S
C183 H197 0.930 . S
C184 C181 1.378 . S
C184 N185 1.315 1_655 S
C184 H187 0.930 . S
N185 Co165 2.194 . S
N185 C180 1.328 . S
N185 C184 1.315 1_455 S
H186 C180 0.929 . S
H187 C184 0.930 . S
H188 C176 0.929 . S
H189 C178 0.929 . S
O190 Co165 2.351 . S
O190 C193 1.244 . S
O191 Co165 2.155 . S
O191 C193 1.240 . S
O192 Co165 2.096 1_655 S
O192 C173 1.247 . S
C193 O190 1.244 . S
C193 O191 1.240 . S
H194 C168 0.931 . S
H195 C177 0.931 . S
H196 C181 0.929 . S
H197 C183 0.930 . S
C198 C199 1.387 1_556 S
C198 H202 0.950 . S
C198 C207 1.390 . S
C199 C198 1.387 1_554 S
C199 C201 1.387 . S
H200 C207 0.950 . S
C201 C199 1.387 . S
C201 C203 1.390 . S
C201 H205 0.950 . S
H202 C198 0.950 . S
C203 C201 1.390 . S
C203 C204 1.387 . S
C203 H206 0.950 . S
C204 C203 1.387 . S
C204 C207 1.387 1_554 S
H205 C201 0.950 . S
H206 C203 0.950 . S
C207 C198 1.390 . S
C207 H200 0.950 . S
C207 C204 1.387 1_556 S
C208 C209 1.387 . S
C208 H212 0.950 . S
C208 C217 1.390 . S
C209 C208 1.387 . S
C209 C211 1.387 . S
H210 C217 0.950 . S
C211 C209 1.387 . S
C211 C213 1.390 . S
C211 H215 0.950 . S
H212 C208 0.950 . S
C213 C211 1.390 . S
C213 C214 1.387 . S
C213 H216 0.950 . S
C214 C213 1.387 . S
C214 C217 1.387 . S
H215 C211 0.950 . S
H216 C213 0.950 . S
C217 C208 1.390 . S
C217 H210 0.950 . S
C217 C214 1.387 . S
C218 C219 1.387 . S
C218 H222 0.950 . S
C218 C227 1.390 . S
C219 C218 1.387 . S
C219 C221 1.387 . S
H220 C227 0.950 . S
C221 C219 1.387 . S
C221 C223 1.390 . S
C221 H225 0.950 . S
H222 C218 0.950 . S
C223 C221 1.390 . S
C223 C224 1.387 . S
C223 H226 0.950 . S
C224 C223 1.387 . S
C224 C227 1.387 . S
H225 C221 0.950 . S
H226 C223 0.950 . S
C227 C218 1.390 . S
C227 H220 0.950 . S
C227 C224 1.387 . S
C228 C229 1.387 . S
C228 H232 0.950 . S
C228 C237 1.390 . S
C229 C228 1.387 . S
C229 C231 1.388 1_545 S
H230 C237 0.950 . S
C231 C229 1.388 1_565 S
C231 C233 1.386 1_565 S
C231 H235 0.953 . S
H232 C228 0.950 . S
C233 C231 1.386 1_545 S
C233 C234 1.387 . S
C233 H236 0.950 1_545 S
C234 C233 1.387 . S
C234 C237 1.387 . S
H235 C231 0.953 . S
H236 C233 0.950 1_565 S
C237 C228 1.390 . S
C237 H230 0.950 . S
C237 C234 1.387 . S
C238 C239 1.387 . S
C238 H242 0.950 . S
C238 C247 1.390 . S
C239 C238 1.387 . S
C239 C241 1.387 . S
H240 C247 0.950 . S
C241 C239 1.387 . S
C241 C243 1.390 . S
C241 H245 0.950 . S
H242 C238 0.950 . S
C243 C241 1.390 . S
C243 C244 1.387 . S
C243 H246 0.950 . S
C244 C243 1.387 . S
C244 C247 1.387 . S
H245 C241 0.950 . S
H246 C243 0.950 . S
C247 C238 1.390 . S
C247 H240 0.950 . S
C247 C244 1.387 . S
C248 C249 1.387 . S
C248 H252 0.950 . S
C248 C257 1.390 . S
C249 C248 1.387 . S
C249 C251 1.374 1_455 S
H250 C257 0.950 . S
C251 C249 1.374 1_655 S
C251 C253 1.397 . S
C251 H255 0.958 . S
H252 C248 0.950 . S
C253 C251 1.397 . S
C253 C254 1.387 1_655 S
C253 H256 0.950 . S
C254 C253 1.387 1_455 S
C254 C257 1.387 . S
H255 C251 0.958 . S
H256 C253 0.950 . S
C257 C248 1.390 . S
C257 H250 0.950 . S
C257 C254 1.387 . S
C258 C259 1.387 . S
C258 H262 0.950 . S
C258 C267 1.390 . S
C259 C258 1.387 . S
C259 C261 1.387 . S
H260 C267 0.950 . S
C261 C259 1.387 . S
C261 C263 1.390 . S
C261 H265 0.950 . S
H262 C258 0.950 . S
C263 C261 1.390 . S
C263 C264 1.387 . S
C263 H266 0.950 . S
C264 C263 1.387 . S
C264 C267 1.387 . S
H265 C261 0.950 . S
H266 C263 0.950 . S
C267 C258 1.390 . S
C267 H260 0.950 . S
C267 C264 1.387 . S
C268 C269 1.387 . S
C268 H272 0.950 . S
C268 C277 1.390 . S
C269 C268 1.387 . S
C269 C271 1.387 . S
H270 C277 0.950 . S
C271 C269 1.387 . S
C271 C273 1.390 . S
C271 H275 0.950 . S
H272 C268 0.950 . S
C273 C271 1.390 . S
C273 C274 1.387 . S
C273 H276 0.950 . S
C274 C273 1.387 . S
C274 C277 1.387 . S
H275 C271 0.950 . S
H276 C273 0.950 . S
C277 C268 1.390 . S
C277 H270 0.950 . S
C277 C274 1.387 . S
C278 C279 1.387 . S
C278 H282 0.950 1_455 S
C278 C287 1.390 1_455 S
C279 C278 1.387 . S
C279 C281 1.387 . S
H280 C287 0.950 . S
C281 C279 1.387 . S
C281 C283 1.390 . S
C281 H285 0.950 . S
H282 C278 0.950 1_655 S
C283 C281 1.390 . S
C283 C284 1.387 . S
C283 H286 0.950 . S
C284 C283 1.387 . S
C284 C287 1.387 1_455 S
H285 C281 0.950 . S
H286 C283 0.950 . S
C287 C278 1.390 1_655 S
C287 H280 0.950 . S
C287 C284 1.387 1_655 S
C288 C289 1.387 . S
C288 H292 0.950 . S
C288 C297 1.390 . S
C289 C288 1.387 . S
C289 C291 1.387 . S
H290 C297 0.950 . S
C291 C289 1.387 . S
C291 C293 1.390 . S
C291 H295 0.950 . S
H292 C288 0.950 . S
C293 C291 1.390 . S
C293 C294 1.387 . S
C293 H296 0.950 . S
C294 C293 1.387 . S
C294 C297 1.387 . S
H295 C291 0.950 . S
H296 C293 0.950 . S
C297 C288 1.390 . S
C297 H290 0.950 . S
C297 C294 1.387 . S
C298 C299 1.387 . S
C298 H302 0.950 . S
C298 C307 1.390 . S
C299 C298 1.387 . S
C299 C301 1.387 . S
H300 C307 0.950 . S
C301 C299 1.387 . S
C301 C303 1.390 . S
C301 H305 0.950 . S
H302 C298 0.950 . S
C303 C301 1.390 . S
C303 C304 1.387 . S
C303 H306 0.950 . S
C304 C303 1.387 . S
C304 C307 1.387 . S
H305 C301 0.950 . S
H306 C303 0.950 . S
C307 C298 1.390 . S
C307 H300 0.950 . S
C307 C304 1.387 . S
C308 C309 1.387 . S
C308 H312 0.950 . S
C308 C317 1.390 . S
C309 C308 1.387 . S
C309 C311 1.387 . S
H310 C317 0.950 . S
C311 C309 1.387 . S
C311 C313 1.390 . S
C311 H315 0.950 1_556 S
H312 C308 0.950 . S
C313 C311 1.390 . S
C313 C314 1.387 . S
C313 H316 0.950 . S
C314 C313 1.387 . S
C314 C317 1.387 . S
H315 C311 0.950 1_554 S
H316 C313 0.950 . S
C317 C308 1.390 . S
C317 H310 0.950 . S
C317 C314 1.387 . S
C318 C319 1.387 . S
C318 H322 0.950 . S
C318 C327 1.390 . S
C319 C318 1.387 . S
C319 C321 1.387 . S
H320 C327 0.950 . S
C321 C319 1.387 . S
C321 C323 1.390 . S
C321 H325 0.950 . S
H322 C318 0.950 . S
C323 C321 1.390 . S
C323 C324 1.387 . S
C323 H326 0.950 . S
C324 C323 1.387 . S
C324 C327 1.387 . S
H325 C321 0.950 . S
H326 C323 0.950 . S
C327 C318 1.390 . S
C327 H320 0.950 . S
C327 C324 1.387 . S
C328 C329 1.387 . S
C328 H332 0.950 . S
C328 C337 1.390 . S
C329 C328 1.387 . S
C329 C331 1.387 . S
H330 C337 0.950 . S
C331 C329 1.387 . S
C331 C333 1.390 . S
C331 H335 0.950 . S
H332 C328 0.950 . S
C333 C331 1.390 . S
C333 C334 1.387 . S
C333 H336 0.950 . S
C334 C333 1.387 . S
C334 C337 1.387 . S
H335 C331 0.950 . S
H336 C333 0.950 . S
C337 C328 1.390 . S
C337 H330 0.950 . S
C337 C334 1.387 . S
C338 C339 1.387 . S
C338 H342 0.950 . S
C338 C347 1.390 . S
C339 C338 1.387 . S
C339 C341 1.387 . S
H340 C347 0.950 . S
C341 C339 1.387 . S
C341 C343 1.390 . S
C341 H345 0.950 . S
H342 C338 0.950 . S
C343 C341 1.390 . S
C343 C344 1.387 . S
C343 H346 0.950 1_556 S
C344 C343 1.387 . S
C344 C347 1.387 . S
H345 C341 0.950 . S
H346 C343 0.950 1_554 S
C347 C338 1.390 . S
C347 H340 0.950 . S
C347 C344 1.387 . S
C199 C17 1.567 . S
C204 C116 1.567 . S
C209 C149 1.567 . S
C214 C50 1.567 . S
C219 C83 1.567 . S
C224 C182 1.567 . S
C229 N5 1.324 . S
C234 N14 1.320 . S
C239 N38 1.323 . S
C244 N47 1.318 1_556 S
C249 N71 1.323 . S
C254 N80 1.318 . S
C259 N113 1.319 . S
C264 N104 1.324 . S
C269 N137 1.323 . S
C274 N146 1.319 1_556 S
C279 N179 1.318 . S
C284 N170 1.323 . S
C289 C28 1.551 . S
C294 C41 1.542 . S
C299 C61 1.553 . S
C304 C74 1.544 . S
C309 C107 1.543 . S
C314 C94 1.552 . S
C319 C127 1.552 . S
C324 C140 1.543 . S
C329 C173 1.542 . S
C334 C160 1.551 . S
C339 C193 1.552 . S
C344 C8 1.543 . S
