# Generated by pormake.
# Topology acs-a, (4)-cn, num edge types: 1
# Building blocks:
#     Node 0, Type 0, BuildingBlock: NAHDIM_clean_sbu_0, # of connection points: 4
#     Node 1, Type 0, BuildingBlock: NAHDIM_clean_sbu_0, # of connection points: 4
#     Node 2, Type 0, BuildingBlock: NAHDIM_clean_sbu_0, # of connection points: 4
#     Node 3, Type 0, BuildingBlock: NAHDIM_clean_sbu_0, # of connection points: 4
#     Node 4, Type 0, BuildingBlock: NAHDIM_clean_sbu_0, # of connection points: 4
#     Node 5, Type 0, BuildingBlock: NAHDIM_clean_sbu_0, # of connection points: 4
#     Node 6, Type 0, BuildingBlock: NAHDIM_clean_sbu_0, # of connection points: 4
#     Node 7, Type 0, BuildingBlock: NAHDIM_clean_sbu_0, # of connection points: 4
#     Node 8, Type 0, BuildingBlock: NAHDIM_clean_sbu_0, # of connection points: 4
#     Node 9, Type 0, BuildingBlock: NAHDIM_clean_sbu_0, # of connection points: 4
#     Node 10, Type 0, BuildingBlock: NAHDIM_clean_sbu_0, # of connection points: 4
#     Node 11, Type 0, BuildingBlock: NAHDIM_clean_sbu_0, # of connection points: 4
#     Edge 12, Type (0, 0), BuildingBlock: CIFDUS_clean_linker_0, # of connection points: 2
#     Edge 13, Type (0, 0), BuildingBlock: CIFDUS_clean_linker_0, # of connection points: 2
#     Edge 14, Type (0, 0), BuildingBlock: CIFDUS_clean_linker_0, # of connection points: 2
#     Edge 15, Type (0, 0), BuildingBlock: CIFDUS_clean_linker_0, # of connection points: 2
#     Edge 16, Type (0, 0), BuildingBlock: CIFDUS_clean_linker_0, # of connection points: 2
#     Edge 17, Type (0, 0), BuildingBlock: CIFDUS_clean_linker_0, # of connection points: 2
#     Edge 18, Type (0, 0), BuildingBlock: CIFDUS_clean_linker_0, # of connection points: 2
#     Edge 19, Type (0, 0), BuildingBlock: CIFDUS_clean_linker_0, # of connection points: 2
#     Edge 20, Type (0, 0), BuildingBlock: CIFDUS_clean_linker_0, # of connection points: 2
#     Edge 21, Type (0, 0), BuildingBlock: CIFDUS_clean_linker_0, # of connection points: 2
#     Edge 22, Type (0, 0), BuildingBlock: CIFDUS_clean_linker_0, # of connection points: 2
#     Edge 23, Type (0, 0), BuildingBlock: CIFDUS_clean_linker_0, # of connection points: 2
#     Edge 24, Type (0, 0), BuildingBlock: CIFDUS_clean_linker_0, # of connection points: 2
#     Edge 25, Type (0, 0), BuildingBlock: CIFDUS_clean_linker_0, # of connection points: 2
#     Edge 26, Type (0, 0), BuildingBlock: CIFDUS_clean_linker_0, # of connection points: 2
#     Edge 27, Type (0, 0), BuildingBlock: CIFDUS_clean_linker_0, # of connection points: 2
#     Edge 28, Type (0, 0), BuildingBlock: CIFDUS_clean_linker_0, # of connection points: 2
#     Edge 29, Type (0, 0), BuildingBlock: CIFDUS_clean_linker_0, # of connection points: 2
#     Edge 30, Type (0, 0), BuildingBlock: CIFDUS_clean_linker_0, # of connection points: 2
#     Edge 31, Type (0, 0), BuildingBlock: CIFDUS_clean_linker_0, # of connection points: 2
#     Edge 32, Type (0, 0), BuildingBlock: CIFDUS_clean_linker_0, # of connection points: 2
#     Edge 33, Type (0, 0), BuildingBlock: CIFDUS_clean_linker_0, # of connection points: 2
#     Edge 34, Type (0, 0), BuildingBlock: CIFDUS_clean_linker_0, # of connection points: 2
#     Edge 35, Type (0, 0), BuildingBlock: CIFDUS_clean_linker_0, # of connection points: 2
# Relax obj value: 0.411
# Max RMSD: 0.208
# Mean RMSD: 0.203
data_MOF--net-acs-a--node1-NAHDIM_clean_sbu_0--edge1-CIFDUS_clean_linker_0
_symmetry_space_group_name_H-M    P1
_symmetry_Int_Tables_number       1
_symmetry_cell_setting            triclinic
loop_
_symmetry_equiv_pos_as_xyz
'x, y, z'
_cell_length_a     42.158837
_cell_length_b     42.140658
_cell_length_c     37.78934
_cell_angle_alpha  89.83691
_cell_angle_beta   90.377978
_cell_angle_gamma 113.87634
loop_
_atom_site_label
_atom_site_type_symbol
_atom_site_fract_x
_atom_site_fract_y
_atom_site_fract_z
_atom_type_partial_charge
C0 C 0.61131 0.09362 0.95556 0.0
O1 O 0.64457 0.10379 0.94912 0.0
O2 O 0.61666 0.19308 0.98729 0.0
Zn3 Zn 0.6315 0.15508 0.00055 0.0
O4 O 0.62709 0.15028 0.05341 0.0
C5 C 0.70073 0.16002 0.00772 0.0
O6 O 0.68541 0.13336 0.02878 0.0
O7 O 0.60119 0.11128 0.97621 0.0
C8 C 0.60985 0.12312 0.0711 0.0
O9 O 0.59215 0.09387 0.05445 0.0
C10 C 0.58834 0.19268 -0.00091 0.0
O11 O 0.56807 0.16588 0.01779 0.0
O12 O 0.68206 0.17139 0.9896 0.0
C13 C 0.43931 0.53556 0.54622 0.0
O14 O 0.4099 0.53588 0.53495 0.0
O15 O 0.37896 0.55799 0.59069 0.0
Zn16 Zn 0.43009 0.57723 0.60128 0.0
O17 O 0.43661 0.57464 0.65362 0.0
C18 C 0.43856 0.63563 0.55857 0.0
O19 O 0.41971 0.61082 0.53678 0.0
O20 O 0.45312 0.55175 0.5744 0.0
C21 C 0.42192 0.58993 0.67202 0.0
O22 O 0.40476 0.60571 0.6557 0.0
C23 C 0.35577 0.53446 0.60852 0.0
O24 O 0.36502 0.51968 0.63494 0.0
O25 O 0.44868 0.62744 0.58756 0.0
C26 C 0.93361 0.43352 0.10247 0.0
O27 O 0.91281 0.44598 0.11694 0.0
O28 O 0.86029 0.32489 0.0932 0.0
Zn29 Zn 0.87881 0.36918 0.12106 0.0
O30 O 0.88287 0.35891 0.17236 0.0
C31 C 0.83562 0.3953 0.08368 0.0
O32 O 0.84818 0.38435 0.05687 0.0
O33 O 0.92476 0.40091 0.10183 0.0
C34 C 0.88774 0.38187 0.19591 0.0
O35 O 0.89056 0.41288 0.1863 0.0
C36 C 0.86088 0.2964 0.10352 0.0
O37 O 0.87566 0.29524 0.13392 0.0
O38 O 0.84501 0.39162 0.11491 0.0
C39 C 0.39754 0.89378 0.51113 0.0
O40 O 0.41107 0.88476 0.53875 0.0
O41 O 0.36635 0.7985 0.51818 0.0
Zn42 Zn 0.34337 0.83067 0.52997 0.0
O43 O 0.34874 0.83934 0.5825 0.0
C44 C 0.26893 0.80844 0.53659 0.0
O45 O 0.27766 0.83496 0.5583 0.0
O46 O 0.36659 0.87465 0.50194 0.0
C47 C 0.35175 0.86682 0.59867 0.0
O48 O 0.35139 0.89334 0.58057 0.0
C49 C 0.39104 0.79717 0.53675 0.0
O50 O 0.40283 0.81825 0.56384 0.0
O51 O 0.29258 0.804 0.51931 0.0
C52 C 0.60724 0.48599 0.01719 0.0
O53 O 0.63365 0.48384 0.00073 0.0
O54 O 0.6634 0.44765 0.06208 0.0
Zn55 Zn 0.6117 0.43302 0.06488 0.0
O56 O 0.59865 0.42467 0.11611 0.0
C57 C 0.56368 0.36218 0.04914 0.0
O58 O 0.54561 0.36656 0.07543 0.0
O59 O 0.59487 0.46731 0.04431 0.0
C60 C 0.57949 0.43636 0.13257 0.0
O61 O 0.56563 0.45482 0.11543 0.0
C62 C 0.68285 0.45968 0.08896 0.0
O63 O 0.66984 0.46792 0.11723 0.0
O64 O 0.59105 0.3875 0.03932 0.0
C65 C 0.04586 0.51843 0.60085 0.0
O66 O 0.04558 0.54597 0.61682 0.0
O67 O 0.13319 0.59581 0.57 0.0
Zn68 Zn 0.12054 0.55622 0.60466 0.0
O69 O 0.12212 0.57568 0.65351 0.0
C70 C 0.16223 0.51757 0.62305 0.0
O71 O 0.13934 0.50395 0.64821 0.0
O72 O 0.07473 0.51746 0.59315 0.0
C73 C 0.10644 0.55908 0.68071 0.0
O74 O 0.08606 0.52596 0.67794 0.0
C75 C 0.12795 0.6229 0.57644 0.0
O76 O 0.11022 0.62354 0.60468 0.0
O77 O 0.15846 0.53912 0.60166 0.0
C78 C 0.89136 0.36284 0.50824 0.0
O79 O 0.89489 0.34328 0.48289 0.0
O80 O 0.79561 0.37666 0.47768 0.0
Zn81 Zn 0.82882 0.35415 0.46994 0.0
O82 O 0.85386 0.37262 0.4241 0.0
C83 C 0.78127 0.29749 0.43548 0.0
O84 O 0.78471 0.32416 0.41537 0.0
O85 O 0.86379 0.36812 0.50946 0.0
C86 C 0.86411 0.3548 0.40372 0.0
O87 O 0.86023 0.3235 0.41351 0.0
C88 C 0.79859 0.40459 0.46232 0.0
O89 O 0.82556 0.42086 0.44209 0.0
O90 O 0.79896 0.30277 0.46397 0.0
C91 C 0.44854 0.92941 0.88524 0.0
O92 O 0.45792 0.90879 0.86597 0.0
O93 O 0.33782 0.85763 0.89862 0.0
Zn94 Zn 0.38471 0.87306 0.87607 0.0
O95 O 0.38011 0.87301 0.82313 0.0
C96 C 0.40207 0.82849 0.92233 0.0
O97 O 0.38536 0.83953 0.94507 0.0
O98 O 0.41674 0.91991 0.89296 0.0
C99 C 0.37015 0.84434 0.80666 0.0
O100 O 0.36341 0.81567 0.82473 0.0
C101 C 0.31065 0.85569 0.88228 0.0
O102 O 0.31311 0.86651 0.84937 0.0
O103 O 0.40527 0.83937 0.8906 0.0
C104 C 0.50507 0.42262 0.42168 0.0
O105 O 0.4913 0.40518 0.39271 0.0
O106 O 0.53572 0.34694 0.4178 0.0
Zn107 Zn 0.55844 0.39825 0.40886 0.0
O108 O 0.56106 0.40727 0.35661 0.0
C109 C 0.61151 0.40424 0.45849 0.0
O110 O 0.58434 0.38586 0.47766 0.0
O111 O 0.53353 0.42299 0.4333 0.0
C112 C 0.57922 0.39531 0.33882 0.0
O113 O 0.59506 0.37837 0.35542 0.0
C114 C 0.51667 0.32524 0.39518 0.0
O115 O 0.50856 0.33662 0.36553 0.0
O116 O 0.60683 0.4143 0.42794 0.0
C117 C 0.08606 0.57762 0.99538 0.0
O118 O 0.10369 0.56328 0.97792 0.0
O119 O 0.17418 0.62543 0.97394 0.0
Zn120 Zn 0.13196 0.63201 0.95648 0.0
O121 O 0.11743 0.60945 0.90881 0.0
C122 C 0.16355 0.70277 0.97702 0.0
O123 O 0.16692 0.68837 0.00691 0.0
O124 O 0.09333 0.60965 0.99073 0.0
C125 C 0.13217 0.62527 0.88089 0.0
O126 O 0.15681 0.65667 0.88354 0.0
C127 C 0.1843 0.60301 0.96182 0.0
O128 O 0.16644 0.5821 0.93639 0.0
O129 O 0.14609 0.68329 0.95204 0.0
C130 C 0.49613 0.04202 0.3706 0.0
O131 O 0.48388 0.05226 0.34281 0.0
O132 O 0.60505 0.12439 0.37074 0.0
Zn133 Zn 0.55736 0.09884 0.34965 0.0
O134 O 0.56166 0.08574 0.29936 0.0
C135 C 0.52648 0.14319 0.37665 0.0
O136 O 0.53167 0.13086 0.40708 0.0
O137 O 0.52805 0.05776 0.37859 0.0
C138 C 0.58109 0.11071 0.28009 0.0
O139 O 0.59703 0.14151 0.29455 0.0
C140 C 0.61304 0.12574 0.40338 0.0
O141 O 0.58938 0.10734 0.42627 0.0
O142 O 0.53474 0.1325 0.34823 0.0
C143 C 0.4876 0.58412 0.96192 0.0
O144 O 0.49723 0.60069 0.93173 0.0
O145 O 0.44475 0.65293 0.95846 0.0
Zn146 Zn 0.42944 0.60158 0.95085 0.0
O147 O 0.42926 0.59441 0.89834 0.0
C148 C 0.36688 0.59354 0.98682 0.0
O149 O 0.38812 0.62115 0.00392 0.0
O150 O 0.45935 0.58167 0.97587 0.0
C151 C 0.40937 0.60508 0.88131 0.0
O152 O 0.39114 0.61863 0.899 0.0
C153 C 0.46455 0.675 0.93669 0.0
O154 O 0.47999 0.66454 0.91209 0.0
O155 O 0.37941 0.57857 0.96533 0.0
H156 H 0.6214 0.15886 0.23362 0.0
H157 H 0.54768 0.05216 0.24015 0.0
H158 H 0.55075 0.04611 0.17603 0.0
H159 H 0.57291 0.07199 0.11779 0.0
H160 H 0.64623 0.17906 0.11237 0.0
H161 H 0.6447 0.18396 0.17638 0.0
C162 C 0.60607 0.13419 0.22112 0.0
C163 C 0.58424 0.10607 0.24166 0.0
C164 C 0.60777 0.13098 0.18436 0.0
C165 C 0.5647 0.07426 0.22496 0.0
C166 C 0.56638 0.0708 0.18828 0.0
C167 C 0.58864 0.09634 0.13063 0.0
C168 C 0.60947 0.12514 0.11019 0.0
C169 C 0.58759 0.09911 0.16765 0.0
C170 C 0.62977 0.15649 0.12733 0.0
C171 C 0.62897 0.15936 0.164 0.0
H172 H 0.388 0.61465 0.71731 0.0
H173 H 0.45891 0.56415 0.71443 0.0
H174 H 0.46109 0.56401 0.77913 0.0
H175 H 0.4431 0.57876 0.83648 0.0
H176 H 0.37174 0.62887 0.83842 0.0
H177 H 0.3695 0.62852 0.77404 0.0
C178 C 0.40399 0.60363 0.73076 0.0
C179 C 0.42334 0.58955 0.71108 0.0
C180 C 0.40501 0.60352 0.76781 0.0
C181 C 0.44376 0.5752 0.72898 0.0
C182 C 0.44503 0.57511 0.76596 0.0
C183 C 0.42702 0.58953 0.8228 0.0
C184 C 0.40766 0.60384 0.84226 0.0
C185 C 0.42579 0.58926 0.78565 0.0
C186 C 0.38691 0.61767 0.82414 0.0
C187 C 0.38561 0.61753 0.78729 0.0
H188 H 0.89221 0.42307 0.25256 0.0
H189 H 0.88316 0.32051 0.22435 0.0
H190 H 0.87841 0.30417 0.2867 0.0
H191 H 0.8724 0.31755 0.34873 0.0
H192 H 0.87935 0.41943 0.37672 0.0
H193 H 0.88976 0.43756 0.31496 0.0
C194 C 0.8895 0.39723 0.26003 0.0
C195 C 0.88773 0.37298 0.23379 0.0
C196 C 0.88634 0.38784 0.2959 0.0
C197 C 0.88436 0.33964 0.24398 0.0
C198 C 0.88163 0.33025 0.27965 0.0
C199 C 0.87669 0.34387 0.34143 0.0
C200 C 0.87488 0.36701 0.36727 0.0
C201 C 0.88196 0.35393 0.30578 0.0
C202 C 0.88042 0.40102 0.35731 0.0
C203 C 0.88629 0.4114 0.32199 0.0
H204 H 0.37413 0.89711 0.76264 0.0
H205 H 0.35627 0.7887 0.76329 0.0
H206 H 0.34904 0.78629 0.69914 0.0
H207 H 0.34789 0.81474 0.64304 0.0
H208 H 0.36481 0.92287 0.64186 0.0
H209 H 0.37226 0.92554 0.70617 0.0
C210 C 0.36872 0.87297 0.74875 0.0
C211 C 0.36583 0.84315 0.76776 0.0
C212 C 0.36438 0.87168 0.71182 0.0
C213 C 0.35861 0.81204 0.74935 0.0
C214 C 0.35448 0.81062 0.71265 0.0
C215 C 0.35321 0.83895 0.65677 0.0
C216 C 0.35585 0.86858 0.63762 0.0
C217 C 0.35733 0.84026 0.69365 0.0
C218 C 0.36262 0.89965 0.65594 0.0
C219 C 0.36693 0.90122 0.69271 0.0
H220 H 0.54876 0.42752 0.29645 0.0
H221 H 0.61602 0.37282 0.29394 0.0
H222 H 0.62118 0.38001 0.22995 0.0
H223 H 0.60741 0.40234 0.17499 0.0
H224 H 0.54056 0.45746 0.17681 0.0
H225 H 0.53433 0.4494 0.24089 0.0
C226 C 0.56454 0.41716 0.2819 0.0
C227 C 0.58205 0.39974 0.3 0.0
C228 C 0.56745 0.4214 0.24503 0.0
C229 C 0.60232 0.3864 0.28073 0.0
C230 C 0.60528 0.39047 0.2441 0.0
C231 C 0.59135 0.41252 0.1893 0.0
C232 C 0.5745 0.43051 0.17111 0.0
C233 C 0.58805 0.40798 0.22603 0.0
C234 C 0.55383 0.44352 0.19016 0.0
C235 C 0.55029 0.43896 0.2268 0.0
H236 H 0.07973 0.5314 0.74473 0.0
H237 H 0.14799 0.62674 0.69477 0.0
H238 H 0.16138 0.65561 0.75207 0.0
H239 H 0.15516 0.65356 0.81646 0.0
H240 H 0.08697 0.55852 0.86683 0.0
H241 H 0.07211 0.52989 0.80928 0.0
C242 C 0.0974 0.55853 0.74635 0.0
C243 C 0.11291 0.57677 0.71546 0.0
C244 C 0.10513 0.57506 0.77948 0.0
C245 C 0.13572 0.61197 0.71808 0.0
C246 C 0.14346 0.62856 0.75087 0.0
C247 C 0.137 0.6266 0.8149 0.0
C248 C 0.12234 0.60822 0.84594 0.0
C249 C 0.12856 0.61029 0.78176 0.0
C250 C 0.09868 0.57332 0.84336 0.0
C251 C 0.09018 0.55689 0.81044 0.0
H252 H 0.54153 0.06914 0.96115 0.0
H253 H 0.62285 0.04728 0.91237 0.0
H254 H 0.57941 -0.00514 0.88543 0.0
H255 H 0.51843 0.95493 0.87668 0.0
H256 H 0.43759 0.97732 0.92592 0.0
H257 H 0.48101 0.03014 0.95164 0.0
C258 C 0.54986 0.05297 0.94462 0.0
C259 C 0.5854 0.06205 0.93887 0.0
C260 C 0.52487 0.02305 0.92927 0.0
C261 C 0.59566 0.04085 0.91726 0.0
C262 C 0.57085 0.01089 0.90185 0.0
C263 C 0.51028 0.97143 0.89291 0.0
C264 C 0.47482 0.96216 0.89942 0.0
C265 C 0.53539 0.00171 0.90778 0.0
C266 C 0.46471 0.98383 0.92051 0.0
C267 C 0.48951 0.01402 0.93528 0.0
H268 H 0.41605 0.49759 0.4862 0.0
H269 H 0.50018 0.53036 0.56223 0.0
H270 H 0.52772 0.49827 0.53024 0.0
H271 H 0.5279 0.46094 0.48116 0.0
H272 H 0.44408 0.4278 0.40484 0.0
H273 H 0.41638 0.46012 0.43664 0.0
C274 C 0.44042 0.49774 0.49577 0.0
C275 C 0.45601 0.51632 0.52656 0.0
C276 C 0.45614 0.47919 0.47728 0.0
C277 C 0.48759 0.51626 0.53861 0.0
C278 C 0.50338 0.49791 0.52035 0.0
C279 C 0.50356 0.46072 0.47141 0.0
C280 C 0.48806 0.44196 0.44069 0.0
C281 C 0.48785 0.47928 0.48973 0.0
C282 C 0.45654 0.44202 0.42845 0.0
C283 C 0.4407 0.46049 0.4466 0.0
H284 H 0.06781 0.51024 0.0123 0.0
H285 H 0.04074 0.59712 0.03151 0.0
H286 H -0.00792 0.56041 0.0682 0.0
H287 H 0.95584 0.50302 0.09236 0.0
H288 H 0.98288 0.41626 0.07197 0.0
H289 H 0.03325 0.4538 0.03827 0.0
C290 C 0.05137 0.52125 0.02458 0.0
C291 C 0.0577 0.55627 0.01899 0.0
C292 C 0.02347 0.50004 0.04537 0.0
C293 C 0.03631 0.57017 0.03532 0.0
C294 C 0.0085 0.54921 0.05626 0.0
C295 C 0.97289 0.49237 0.08078 0.0
C296 C 0.9655 0.45686 0.08449 0.0
C297 C 0.00163 0.51401 0.06112 0.0
C298 C 0.98788 0.44347 0.06937 0.0
C299 C 0.01667 0.4649 0.05006 0.0
H300 H 0.51116 0.02176 0.43439 0.0
H301 H 0.42868 -0.00163 0.35741 0.0
H302 H 0.39026 0.95123 0.39476 0.0
H303 H 0.38057 0.91588 0.44877 0.0
H304 H 0.46341 0.93991 0.52552 0.0
H305 H 0.50105 0.98775 0.48883 0.0
C306 C 0.48481 0.00632 0.4257 0.0
C307 C 0.47289 0.01342 0.39307 0.0
C308 C 0.46285 0.97944 0.44733 0.0
C309 C 0.43855 -0.00662 0.38239 0.0
C310 C 0.41654 0.96644 0.40374 0.0
C311 C 0.40677 0.93173 0.45757 0.0
C312 C 0.41916 0.92421 0.48978 0.0
C313 C 0.42846 0.95916 0.43622 0.0
C314 C 0.4532 0.94501 0.5008 0.0
C315 C 0.47482 0.97238 0.4798 0.0
H316 H 0.54664 0.58091 0.93684 0.0
H317 H 0.47454 0.54761 0.02379 0.0
H318 H 0.50615 0.5156 0.04911 0.0
H319 H 0.55255 0.49512 0.0454 0.0
H320 H 0.6244 0.52739 0.95824 0.0
H321 H 0.5946 0.56195 0.93429 0.0
C322 C 0.53794 0.56684 0.96144 0.0
C323 C 0.50814 0.56655 0.97827 0.0
C324 C 0.5561 0.54823 0.97577 0.0
C325 C 0.49731 0.54821 0.01019 0.0
C326 C 0.51535 0.52985 0.0247 0.0
C327 C 0.56186 0.5098 0.02123 0.0
C328 C 0.59057 0.50848 0.00354 0.0
C329 C 0.54451 0.52937 0.00751 0.0
C330 C 0.60231 0.52784 0.97234 0.0
C331 C 0.58526 0.54758 0.9586 0.0
H332 H 0.89639 0.41512 0.55297 0.0
H333 H 0.95491 0.35992 0.51166 0.0
H334 H 0.00769 0.40216 0.53902 0.0
H335 H 0.03806 0.45771 0.56947 0.0
H336 H 0.9798 0.51395 0.6089 0.0
H337 H 0.92603 0.46823 0.58741 0.0
C338 C 0.92055 0.41193 0.5504 0.0
C339 C 0.92172 0.38454 0.52997 0.0
C340 C 0.95094 0.43677 0.56544 0.0
C341 C 0.95328 0.38085 0.52705 0.0
C342 C 0.98352 0.4051 0.54255 0.0
C343 C 0.01359 0.4599 0.57361 0.0
C344 C 0.01304 0.48946 0.59038 0.0
C345 C 0.98281 0.43369 0.5609 0.0
C346 C 0.98104 0.49164 0.59583 0.0
C347 C 0.95026 0.46549 0.58356 0.0
H348 H 0.53836 0.20582 0.03336 0.0
H349 H 0.62359 0.25123 0.96068 0.0
H350 H 0.61971 0.30719 0.96584 0.0
H351 H 0.59776 0.3447 -0.00281 0.0
H352 H 0.51451 0.30024 0.0722 0.0
H353 H 0.51155 0.24234 0.05934 0.0
C354 C 0.55567 0.22778 0.01812 0.0
C355 C 0.58162 0.22447 -0.00285 0.0
C356 C 0.55385 0.26015 0.02184 0.0
C357 C 0.60366 0.25315 0.97739 0.0
C358 C 0.60152 0.28521 0.98036 0.0
C359 C 0.57853 0.32232 0.01032 0.0
C360 C 0.55684 0.3269 0.03612 0.0
C361 C 0.57759 0.28927 0.00351 0.0
C362 C 0.53177 0.29753 0.05247 0.0
C363 C 0.53017 0.26439 0.04526 0.0
H364 H 0.30059 0.49785 0.65045 0.0
H365 H 0.3283 0.55683 0.55337 0.0
H366 H 0.26954 0.55372 0.54763 0.0
H367 H 0.21233 0.53952 0.57308 0.0
H368 H 0.18454 0.48212 0.67102 0.0
H369 H 0.24116 0.47899 0.67323 0.0
C370 C 0.29362 0.50954 0.62775 0.0
C371 C 0.31893 0.52789 0.60262 0.0
C372 C 0.25986 0.50819 0.62488 0.0
C373 C 0.30944 0.54283 0.5733 0.0
C374 C 0.27583 0.54113 0.57 0.0
C375 C 0.21846 0.52598 0.59475 0.0
C376 C 0.1944 0.51149 0.62208 0.0
C377 C 0.25115 0.52473 0.59613 0.0
C378 C 0.20265 0.49369 0.64972 0.0
C379 C 0.23508 0.49198 0.65107 0.0
H380 H 0.83558 0.29061 0.03668 0.0
H381 H 0.83783 0.22969 0.12789 0.0
H382 H 0.79187 0.1786 0.10189 0.0
H383 H 0.74415 0.15488 0.05886 0.0
H384 H 0.74044 0.21701 0.96915 0.0
H385 H 0.79443 0.26363 0.98849 0.0
C386 C 0.82649 0.26597 0.05056 0.0
C387 C 0.83943 0.26413 0.08454 0.0
C388 C 0.7996 0.23696 0.03583 0.0
C389 C 0.828 0.2319 0.10187 0.0
C390 C 0.80158 0.2027 0.08708 0.0
C391 C 0.75563 0.1782 0.04297 0.0
C392 C 0.73779 0.18283 0.01314 0.0
C393 C 0.7861 0.2054 0.05487 0.0
C394 C 0.75331 0.21303 0.99259 0.0
C395 C 0.7841 0.23981 0.00374 0.0
H396 H 0.43851 0.78334 0.57543 0.0
H397 H 0.37041 0.74794 0.48472 0.0
H398 H 0.38352 0.69678 0.48033 0.0
H399 H 0.40824 0.65872 0.50681 0.0
H400 H 0.4741 0.69277 0.59925 0.0
H401 H 0.46844 0.74814 0.59791 0.0
C402 C 0.4269 0.76471 0.55437 0.0
C403 C 0.40305 0.76917 0.53084 0.0
C404 C 0.43402 0.735 0.5524 0.0
C405 C 0.38855 0.74495 0.50348 0.0
C406 C 0.39599 0.71564 0.50095 0.0
C407 C 0.42192 0.67847 0.52628 0.0
C408 C 0.44111 0.67138 0.55341 0.0
C409 C 0.41779 0.70986 0.52596 0.0
C410 C 0.45886 0.69741 0.57827 0.0
C411 C 0.45552 0.72904 0.57763 0.0
H412 H 0.7145 0.43802 0.03761 0.0
H413 H 0.72686 0.47392 0.14581 0.0
H414 H 0.77657 0.45877 0.1532 0.0
H415 H 0.81293 0.43015 0.13075 0.0
H416 H 0.80023 0.39399 0.02267 0.0
H417 H 0.75428 0.41441 0.01353 0.0
C418 C 0.72837 0.44307 0.06266 0.0
C419 C 0.71664 0.45672 0.09121 0.0
C420 C 0.75662 0.43379 0.06694 0.0
C421 C 0.73515 0.46329 0.12339 0.0
C422 C 0.7635 0.45444 0.12774 0.0
C423 C 0.80024 0.42692 0.10514 0.0
C424 C 0.80969 0.41015 0.0776 0.0
C425 C 0.77382 0.43875 0.10002 0.0
C426 C 0.79335 0.40663 0.04441 0.0
C427 C 0.76703 0.41829 0.03914 0.0
H428 H 0.1347 0.68834 0.59241 0.0
H429 H 0.16725 0.63071 0.51721 0.0
H430 H 0.21051 0.68471 0.4937 0.0
H431 H 0.24519 0.74694 0.50125 0.0
H432 H 0.21476 0.80435 0.57858 0.0
H433 H 0.16419 0.75193 0.59386 0.0
C434 C 0.15071 0.68758 0.57035 0.0
C435 C 0.14819 0.65544 0.55712 0.0
C436 C 0.17622 0.71873 0.55754 0.0
C437 C 0.16895 0.65503 0.52828 0.0
C438 C 0.1938 0.68593 0.51486 0.0
C439 C 0.22712 0.74823 0.52092 0.0
C440 C 0.23424 0.77942 0.53928 0.0
C441 C 0.19866 0.71777 0.53033 0.0
C442 C 0.21022 0.78064 0.56431 0.0
C443 C 0.18134 0.75059 0.57323 0.0
H444 H 0.74348 0.38192 0.50662 0.0
H445 H 0.78747 0.45067 0.41836 0.0
H446 H 0.73422 0.45999 0.41202 0.0
H447 H 0.67285 0.44269 0.42674 0.0
H448 H 0.62875 0.37336 0.5146 0.0
H449 H 0.68456 0.37062 0.52617 0.0
C450 C 0.74161 0.39935 0.48632 0.0
C451 C 0.76914 0.41508 0.46261 0.0
C452 C 0.71081 0.40429 0.48257 0.0
C453 C 0.76657 0.43804 0.43682 0.0
C454 C 0.73605 0.44326 0.43306 0.0
C455 C 0.67557 0.42741 0.44876 0.0
C456 C 0.64652 0.40777 0.46936 0.0
C457 C 0.70763 0.4256 0.45503 0.0
C458 C 0.6506 0.38851 0.49812 0.0
C459 C 0.68249 0.38679 0.50469 0.0
H460 H 0.29631 0.83694 0.95101 0.0
H461 H 0.248 0.82748 0.84826 0.0
H462 H 0.19462 0.7825 0.87095 0.0
H463 H 0.16588 0.73921 0.91682 0.0
H464 H 0.21507 0.74765 0.01903 0.0
H465 H 0.26348 0.80017 -0.0001 0.0
C466 C 0.27386 0.82554 0.93376 0.0
C467 C 0.27637 0.83494 0.89782 0.0
C468 C 0.24348 0.79927 0.9468 0.0
C469 C 0.24688 0.82046 0.87596 0.0
C470 C 0.21638 0.79458 0.88887 0.0
C471 C 0.18678 0.75298 0.93522 0.0
C472 C 0.18727 0.739 0.96899 0.0
C473 C 0.21497 0.78273 0.92379 0.0
C474 C 0.21423 0.75753 0.9927 0.0
C475 C 0.24208 0.78749 0.98172 0.0
H476 H 0.52257 0.18266 0.43174 0.0
H477 H 0.50651 0.16967 0.31884 0.0
H478 H 0.49679 0.22289 0.31555 0.0
H479 H 0.49999 0.2765 0.34353 0.0
H480 H 0.52006 0.29141 0.45573 0.0
H481 H 0.52048 0.23379 0.46059 0.0
C482 C 0.51637 0.19114 0.4065 0.0
C483 C 0.51567 0.17245 0.37554 0.0
C484 C 0.51171 0.22224 0.40465 0.0
C485 C 0.50757 0.18379 0.34304 0.0
C486 C 0.50202 0.21424 0.34112 0.0
C487 C 0.50369 0.26685 0.36918 0.0
C488 C 0.51025 0.28828 0.39916 0.0
C489 C 0.50507 0.2342 0.37158 0.0
C490 C 0.51519 0.27547 0.43219 0.0
C491 C 0.51556 0.24258 0.43498 0.0
H492 H 0.21205 0.55721 0.94376 0.0
H493 H 0.23028 0.6468 0.00926 0.0
H494 H 0.28687 0.64883 0.02654 0.0
H495 H 0.33334 0.6288 0.01852 0.0
H496 H 0.31599 0.54031 0.95167 0.0
H497 H 0.25666 0.53383 0.94013 0.0
C498 C 0.22826 0.577 0.96206 0.0
C499 C 0.2171 0.60208 0.97478 0.0
C500 C 0.26096 0.57822 0.97171 0.0
C501 C 0.2383 0.62731 -0.0012 0.0
C502 C 0.27071 0.62852 0.00873 0.0
C503 C 0.31643 0.60768 0.00195 0.0
C504 C 0.32927 0.58533 0.98569 0.0
C505 C 0.28261 0.60459 0.99472 0.0
C506 C 0.30688 0.55803 0.96439 0.0
C507 C 0.27297 0.55441 0.95759 0.0
H508 H 0.66517 0.16962 0.36281 0.0
H509 H 0.63739 0.14078 0.47158 0.0
H510 H 0.69002 0.18932 0.49153 0.0
H511 H 0.74061 0.24401 0.4779 0.0
H512 H 0.76512 0.27371 0.36882 0.0
H513 H 0.71742 0.22068 0.34922 0.0
C514 C 0.67075 0.17359 0.39091 0.0
C515 C 0.64711 0.15179 0.41563 0.0
C516 C 0.70051 0.20193 0.40217 0.0
C517 C 0.65501 0.15728 0.45193 0.0
C518 C 0.68508 0.18512 0.46338 0.0
C519 C 0.73585 0.23838 0.4499 0.0
C520 C 0.75613 0.26271 0.42481 0.0
C521 C 0.70756 0.2082 0.43875 0.0
C522 C 0.7496 0.25542 0.38859 0.0
C523 C 0.72232 0.22515 0.37735 0.0
H524 H 0.43123 0.70266 0.98019 0.0
H525 H 0.4935 0.72422 0.88567 0.0
H526 H 0.4812 0.77509 0.87395 0.0
H527 H 0.44789 0.8098 0.88718 0.0
H528 H 0.38545 0.78801 0.98152 0.0
H529 H 0.4027 0.74086 -0.00341 0.0
C530 C 0.44263 0.7188 0.95734 0.0
C531 C 0.46293 0.70935 0.93364 0.0
C532 C 0.43501 0.7477 0.95042 0.0
C533 C 0.47767 0.73075 0.90431 0.0
C534 C 0.47046 0.75975 0.89743 0.0
C535 C 0.43826 0.79489 0.91117 0.0
C536 C 0.41506 0.80209 0.93293 0.0
C537 C 0.44832 0.76784 0.91972 0.0
C538 C 0.40321 0.7829 0.9642 0.0
C539 C 0.41303 0.75589 0.97284 0.0
loop_
_geom_bond_atom_site_label_1
_geom_bond_atom_site_label_2
_geom_bond_distance
_geom_bond_site_symmetry_2
_ccdc_geom_bond_type
C0 O1 1.160 . S
C0 O7 1.185 . S
O1 C0 1.160 . S
O2 Zn3 1.899 . S
O2 C10 1.284 . S
Zn3 O2 1.899 . S
Zn3 O4 2.032 . S
Zn3 O7 2.086 . S
Zn3 O12 1.977 . S
O4 Zn3 2.032 . S
O4 C8 1.278 . S
C5 O6 1.203 . S
C5 O12 1.267 . S
O6 C5 1.203 . S
O7 C0 1.185 . S
O7 Zn3 2.086 . S
C8 O4 1.278 . S
C8 O9 1.211 . S
O9 C8 1.211 . S
C10 O2 1.284 . S
C10 O11 1.273 . S
O11 C10 1.273 . S
O12 Zn3 1.977 . S
O12 C5 1.267 . S
C13 O14 1.160 . S
C13 O20 1.185 . S
O14 C13 1.160 . S
O15 Zn16 1.899 . S
O15 C23 1.284 . S
Zn16 O15 1.899 . S
Zn16 O17 2.032 . S
Zn16 O20 2.086 . S
Zn16 O25 1.977 . S
O17 Zn16 2.032 . S
O17 C21 1.278 . S
C18 O19 1.203 . S
C18 O25 1.267 . S
O19 C18 1.203 . S
O20 C13 1.185 . S
O20 Zn16 2.086 . S
C21 O17 1.278 . S
C21 O22 1.211 . S
O22 C21 1.211 . S
C23 O15 1.284 . S
C23 O24 1.273 . S
O24 C23 1.273 . S
O25 Zn16 1.977 . S
O25 C18 1.267 . S
C26 O27 1.160 . S
C26 O33 1.185 . S
O27 C26 1.160 . S
O28 Zn29 1.899 . S
O28 C36 1.284 . S
Zn29 O28 1.899 . S
Zn29 O30 2.032 . S
Zn29 O33 2.086 . S
Zn29 O38 1.977 . S
O30 Zn29 2.032 . S
O30 C34 1.278 . S
C31 O32 1.203 . S
C31 O38 1.267 . S
O32 C31 1.203 . S
O33 C26 1.185 . S
O33 Zn29 2.086 . S
C34 O30 1.278 . S
C34 O35 1.211 . S
O35 C34 1.211 . S
C36 O28 1.284 . S
C36 O37 1.273 . S
O37 C36 1.273 . S
O38 Zn29 1.977 . S
O38 C31 1.267 . S
C39 O40 1.160 . S
C39 O46 1.185 . S
O40 C39 1.160 . S
O41 Zn42 1.899 . S
O41 C49 1.284 . S
Zn42 O41 1.899 . S
Zn42 O43 2.032 . S
Zn42 O46 2.086 . S
Zn42 O51 1.977 . S
O43 Zn42 2.032 . S
O43 C47 1.278 . S
C44 O45 1.203 . S
C44 O51 1.267 . S
O45 C44 1.203 . S
O46 C39 1.185 . S
O46 Zn42 2.086 . S
C47 O43 1.278 . S
C47 O48 1.211 . S
O48 C47 1.211 . S
C49 O41 1.284 . S
C49 O50 1.273 . S
O50 C49 1.273 . S
O51 Zn42 1.977 . S
O51 C44 1.267 . S
C52 O53 1.160 . S
C52 O59 1.185 . S
O53 C52 1.160 . S
O54 Zn55 1.899 . S
O54 C62 1.284 . S
Zn55 O54 1.899 . S
Zn55 O56 2.032 . S
Zn55 O59 2.086 . S
Zn55 O64 1.977 . S
O56 Zn55 2.032 . S
O56 C60 1.278 . S
C57 O58 1.203 . S
C57 O64 1.267 . S
O58 C57 1.203 . S
O59 C52 1.185 . S
O59 Zn55 2.086 . S
C60 O56 1.278 . S
C60 O61 1.211 . S
O61 C60 1.211 . S
C62 O54 1.284 . S
C62 O63 1.273 . S
O63 C62 1.273 . S
O64 Zn55 1.977 . S
O64 C57 1.267 . S
C65 O66 1.160 . S
C65 O72 1.185 . S
O66 C65 1.160 . S
O67 Zn68 1.899 . S
O67 C75 1.284 . S
Zn68 O67 1.899 . S
Zn68 O69 2.032 . S
Zn68 O72 2.086 . S
Zn68 O77 1.977 . S
O69 Zn68 2.032 . S
O69 C73 1.278 . S
C70 O71 1.203 . S
C70 O77 1.267 . S
O71 C70 1.203 . S
O72 C65 1.185 . S
O72 Zn68 2.086 . S
C73 O69 1.278 . S
C73 O74 1.211 . S
O74 C73 1.211 . S
C75 O67 1.284 . S
C75 O76 1.273 . S
O76 C75 1.273 . S
O77 Zn68 1.977 . S
O77 C70 1.267 . S
C78 O79 1.160 . S
C78 O85 1.185 . S
O79 C78 1.160 . S
O80 Zn81 1.899 . S
O80 C88 1.284 . S
Zn81 O80 1.899 . S
Zn81 O82 2.032 . S
Zn81 O85 2.086 . S
Zn81 O90 1.977 . S
O82 Zn81 2.032 . S
O82 C86 1.278 . S
C83 O84 1.203 . S
C83 O90 1.267 . S
O84 C83 1.203 . S
O85 C78 1.185 . S
O85 Zn81 2.086 . S
C86 O82 1.278 . S
C86 O87 1.211 . S
O87 C86 1.211 . S
C88 O80 1.284 . S
C88 O89 1.273 . S
O89 C88 1.273 . S
O90 Zn81 1.977 . S
O90 C83 1.267 . S
C91 O92 1.160 . S
C91 O98 1.185 . S
O92 C91 1.160 . S
O93 Zn94 1.899 . S
O93 C101 1.284 . S
Zn94 O93 1.899 . S
Zn94 O95 2.032 . S
Zn94 O98 2.086 . S
Zn94 O103 1.977 . S
O95 Zn94 2.032 . S
O95 C99 1.278 . S
C96 O97 1.203 . S
C96 O103 1.267 . S
O97 C96 1.203 . S
O98 C91 1.185 . S
O98 Zn94 2.086 . S
C99 O95 1.278 . S
C99 O100 1.211 . S
O100 C99 1.211 . S
C101 O93 1.284 . S
C101 O102 1.273 . S
O102 C101 1.273 . S
O103 Zn94 1.977 . S
O103 C96 1.267 . S
C104 O105 1.160 . S
C104 O111 1.185 . S
O105 C104 1.160 . S
O106 Zn107 1.899 . S
O106 C114 1.284 . S
Zn107 O106 1.899 . S
Zn107 O108 2.032 . S
Zn107 O111 2.086 . S
Zn107 O116 1.977 . S
O108 Zn107 2.032 . S
O108 C112 1.278 . S
C109 O110 1.203 . S
C109 O116 1.267 . S
O110 C109 1.203 . S
O111 C104 1.185 . S
O111 Zn107 2.086 . S
C112 O108 1.278 . S
C112 O113 1.211 . S
O113 C112 1.211 . S
C114 O106 1.284 . S
C114 O115 1.273 . S
O115 C114 1.273 . S
O116 Zn107 1.977 . S
O116 C109 1.267 . S
C117 O118 1.160 . S
C117 O124 1.185 . S
O118 C117 1.160 . S
O119 Zn120 1.899 . S
O119 C127 1.284 . S
Zn120 O119 1.899 . S
Zn120 O121 2.032 . S
Zn120 O124 2.086 . S
Zn120 O129 1.977 . S
O121 Zn120 2.032 . S
O121 C125 1.278 . S
C122 O123 1.203 . S
C122 O129 1.267 . S
O123 C122 1.203 . S
O124 C117 1.185 . S
O124 Zn120 2.086 . S
C125 O121 1.278 . S
C125 O126 1.211 . S
O126 C125 1.211 . S
C127 O119 1.284 . S
C127 O128 1.273 . S
O128 C127 1.273 . S
O129 Zn120 1.977 . S
O129 C122 1.267 . S
C130 O131 1.160 . S
C130 O137 1.185 . S
O131 C130 1.160 . S
O132 Zn133 1.899 . S
O132 C140 1.284 . S
Zn133 O132 1.899 . S
Zn133 O134 2.032 . S
Zn133 O137 2.086 . S
Zn133 O142 1.977 . S
O134 Zn133 2.032 . S
O134 C138 1.278 . S
C135 O136 1.203 . S
C135 O142 1.267 . S
O136 C135 1.203 . S
O137 C130 1.185 . S
O137 Zn133 2.086 . S
C138 O134 1.278 . S
C138 O139 1.211 . S
O139 C138 1.211 . S
C140 O132 1.284 . S
C140 O141 1.273 . S
O141 C140 1.273 . S
O142 Zn133 1.977 . S
O142 C135 1.267 . S
C143 O144 1.160 . S
C143 O150 1.185 . S
O144 C143 1.160 . S
O145 Zn146 1.899 . S
O145 C153 1.284 . S
Zn146 O145 1.899 . S
Zn146 O147 2.032 . S
Zn146 O150 2.086 . S
Zn146 O155 1.977 . S
O147 Zn146 2.032 . S
O147 C151 1.278 . S
C148 O149 1.203 . S
C148 O155 1.267 . S
O149 C148 1.203 . S
O150 C143 1.185 . S
O150 Zn146 2.086 . S
C151 O147 1.278 . S
C151 O152 1.211 . S
O152 C151 1.211 . S
C153 O145 1.284 . S
C153 O154 1.273 . S
O154 C153 1.273 . S
O155 Zn146 1.977 . S
O155 C148 1.267 . S
H156 C162 0.930 . S
H157 C165 0.930 . S
H158 C166 0.930 . S
H159 C167 0.930 . S
H160 C170 0.930 . S
H161 C171 0.930 . S
C162 H156 0.930 . S
C162 C163 1.355 . S
C162 C164 1.415 . S
C163 C162 1.355 . S
C163 C165 1.419 . S
C164 C162 1.415 . S
C164 C169 1.425 . S
C164 C171 1.409 . S
C165 H157 0.930 . S
C165 C163 1.419 . S
C165 C166 1.362 . S
C166 H158 0.930 . S
C166 C165 1.362 . S
C166 C169 1.409 . S
C167 H159 0.930 . S
C167 C168 1.355 . S
C167 C169 1.415 . S
C168 C167 1.355 . S
C168 C170 1.419 . S
C169 C164 1.425 . S
C169 C166 1.409 . S
C169 C167 1.415 . S
C170 H160 0.930 . S
C170 C168 1.419 . S
C170 C171 1.362 . S
C171 H161 0.930 . S
C171 C164 1.409 . S
C171 C170 1.362 . S
H172 C178 0.930 . S
H173 C181 0.930 . S
H174 C182 0.930 . S
H175 C183 0.930 . S
H176 C186 0.930 . S
H177 C187 0.930 . S
C178 H172 0.930 . S
C178 C179 1.355 . S
C178 C180 1.415 . S
C179 C178 1.355 . S
C179 C181 1.419 . S
C180 C178 1.415 . S
C180 C185 1.425 . S
C180 C187 1.409 . S
C181 H173 0.930 . S
C181 C179 1.419 . S
C181 C182 1.362 . S
C182 H174 0.930 . S
C182 C181 1.362 . S
C182 C185 1.409 . S
C183 H175 0.930 . S
C183 C184 1.355 . S
C183 C185 1.415 . S
C184 C183 1.355 . S
C184 C186 1.419 . S
C185 C180 1.425 . S
C185 C182 1.409 . S
C185 C183 1.415 . S
C186 H176 0.930 . S
C186 C184 1.419 . S
C186 C187 1.362 . S
C187 H177 0.930 . S
C187 C180 1.409 . S
C187 C186 1.362 . S
H188 C194 0.930 . S
H189 C197 0.930 . S
H190 C198 0.930 . S
H191 C199 0.930 . S
H192 C202 0.930 . S
H193 C203 0.930 . S
C194 H188 0.930 . S
C194 C195 1.355 . S
C194 C196 1.415 . S
C195 C194 1.355 . S
C195 C197 1.419 . S
C196 C194 1.415 . S
C196 C201 1.425 . S
C196 C203 1.409 . S
C197 H189 0.930 . S
C197 C195 1.419 . S
C197 C198 1.362 . S
C198 H190 0.930 . S
C198 C197 1.362 . S
C198 C201 1.409 . S
C199 H191 0.930 . S
C199 C200 1.355 . S
C199 C201 1.415 . S
C200 C199 1.355 . S
C200 C202 1.419 . S
C201 C196 1.425 . S
C201 C198 1.409 . S
C201 C199 1.415 . S
C202 H192 0.930 . S
C202 C200 1.419 . S
C202 C203 1.362 . S
C203 H193 0.930 . S
C203 C196 1.409 . S
C203 C202 1.362 . S
H204 C210 0.930 . S
H205 C213 0.930 . S
H206 C214 0.930 . S
H207 C215 0.930 . S
H208 C218 0.930 . S
H209 C219 0.930 . S
C210 H204 0.930 . S
C210 C211 1.355 . S
C210 C212 1.415 . S
C211 C210 1.355 . S
C211 C213 1.419 . S
C212 C210 1.415 . S
C212 C217 1.425 . S
C212 C219 1.409 . S
C213 H205 0.930 . S
C213 C211 1.419 . S
C213 C214 1.362 . S
C214 H206 0.930 . S
C214 C213 1.362 . S
C214 C217 1.409 . S
C215 H207 0.930 . S
C215 C216 1.355 . S
C215 C217 1.415 . S
C216 C215 1.355 . S
C216 C218 1.419 . S
C217 C212 1.425 . S
C217 C214 1.409 . S
C217 C215 1.415 . S
C218 H208 0.930 . S
C218 C216 1.419 . S
C218 C219 1.362 . S
C219 H209 0.930 . S
C219 C212 1.409 . S
C219 C218 1.362 . S
H220 C226 0.930 . S
H221 C229 0.930 . S
H222 C230 0.930 . S
H223 C231 0.930 . S
H224 C234 0.930 . S
H225 C235 0.930 . S
C226 H220 0.930 . S
C226 C227 1.355 . S
C226 C228 1.415 . S
C227 C226 1.355 . S
C227 C229 1.419 . S
C228 C226 1.415 . S
C228 C233 1.425 . S
C228 C235 1.409 . S
C229 H221 0.930 . S
C229 C227 1.419 . S
C229 C230 1.362 . S
C230 H222 0.930 . S
C230 C229 1.362 . S
C230 C233 1.409 . S
C231 H223 0.930 . S
C231 C232 1.355 . S
C231 C233 1.415 . S
C232 C231 1.355 . S
C232 C234 1.419 . S
C233 C228 1.425 . S
C233 C230 1.409 . S
C233 C231 1.415 . S
C234 H224 0.930 . S
C234 C232 1.419 . S
C234 C235 1.362 . S
C235 H225 0.930 . S
C235 C228 1.409 . S
C235 C234 1.362 . S
H236 C242 0.930 . S
H237 C245 0.930 . S
H238 C246 0.930 . S
H239 C247 0.930 . S
H240 C250 0.930 . S
H241 C251 0.930 . S
C242 H236 0.930 . S
C242 C243 1.355 . S
C242 C244 1.415 . S
C243 C242 1.355 . S
C243 C245 1.419 . S
C244 C242 1.415 . S
C244 C249 1.425 . S
C244 C251 1.409 . S
C245 H237 0.930 . S
C245 C243 1.419 . S
C245 C246 1.362 . S
C246 H238 0.930 . S
C246 C245 1.362 . S
C246 C249 1.409 . S
C247 H239 0.930 . S
C247 C248 1.355 . S
C247 C249 1.415 . S
C248 C247 1.355 . S
C248 C250 1.419 . S
C249 C244 1.425 . S
C249 C246 1.409 . S
C249 C247 1.415 . S
C250 H240 0.930 . S
C250 C248 1.419 . S
C250 C251 1.362 . S
C251 H241 0.930 . S
C251 C244 1.409 . S
C251 C250 1.362 . S
H252 C258 0.930 1_556 S
H253 C261 0.930 . S
H254 C262 0.930 . S
H255 C263 0.930 1_554 S
H256 C266 0.930 . S
H257 C267 0.930 . S
C258 H252 0.930 1_554 S
C258 C259 1.355 . S
C258 C260 1.415 1_554 S
C259 C258 1.355 . S
C259 C261 1.419 . S
C260 C258 1.415 1_556 S
C260 C265 1.425 1_546 S
C260 C267 1.409 1_545 S
C261 H253 0.930 . S
C261 C259 1.419 . S
C261 C262 1.362 . S
C262 H254 0.930 . S
C262 C261 1.362 . S
C262 C265 1.409 1_545 S
C263 H255 0.930 1_556 S
C263 C264 1.355 . S
C263 C265 1.415 1_556 S
C264 C263 1.355 . S
C264 C266 1.419 . S
C265 C260 1.425 1_564 S
C265 C262 1.409 1_565 S
C265 C263 1.415 1_554 S
C266 H256 0.930 . S
C266 C264 1.419 . S
C266 C267 1.362 . S
C267 H257 0.930 . S
C267 C260 1.409 1_565 S
C267 C266 1.362 . S
H268 C274 0.930 . S
H269 C277 0.930 . S
H270 C278 0.930 . S
H271 C279 0.930 . S
H272 C282 0.930 . S
H273 C283 0.930 . S
C274 H268 0.930 . S
C274 C275 1.355 . S
C274 C276 1.415 . S
C275 C274 1.355 . S
C275 C277 1.419 . S
C276 C274 1.415 . S
C276 C281 1.425 . S
C276 C283 1.409 . S
C277 H269 0.930 . S
C277 C275 1.419 . S
C277 C278 1.362 . S
C278 H270 0.930 . S
C278 C277 1.362 . S
C278 C281 1.409 . S
C279 H271 0.930 . S
C279 C280 1.355 . S
C279 C281 1.415 . S
C280 C279 1.355 . S
C280 C282 1.419 . S
C281 C276 1.425 . S
C281 C278 1.409 . S
C281 C279 1.415 . S
C282 H272 0.930 . S
C282 C280 1.419 . S
C282 C283 1.362 . S
C283 H273 0.930 . S
C283 C276 1.409 . S
C283 C282 1.362 . S
H284 C290 0.930 . S
H285 C293 0.930 . S
H286 C294 0.930 . S
H287 C295 0.930 . S
H288 C298 0.930 . S
H289 C299 0.930 . S
C290 H284 0.930 . S
C290 C291 1.355 . S
C290 C292 1.415 1_455 S
C291 C290 1.355 . S
C291 C293 1.419 1_556 S
C292 C290 1.415 1_655 S
C292 C297 1.425 1_656 S
C292 C299 1.409 . S
C293 H285 0.930 . S
C293 C291 1.419 1_554 S
C293 C294 1.362 . S
C294 H286 0.930 . S
C294 C293 1.362 . S
C294 C297 1.409 . S
C295 H287 0.930 . S
C295 C296 1.355 . S
C295 C297 1.415 1_655 S
C296 C295 1.355 . S
C296 C298 1.419 1_554 S
C297 C292 1.425 1_454 S
C297 C294 1.409 . S
C297 C295 1.415 1_455 S
C298 H288 0.930 . S
C298 C296 1.419 1_556 S
C298 C299 1.362 . S
C299 H289 0.930 . S
C299 C292 1.409 . S
C299 C298 1.362 . S
H300 C306 0.930 . S
H301 C309 0.930 . S
H302 C310 0.930 . S
H303 C311 0.930 . S
H304 C314 0.930 . S
H305 C315 0.930 . S
C306 H300 0.930 . S
C306 C307 1.355 . S
C306 C308 1.415 . S
C307 C306 1.355 . S
C307 C309 1.419 . S
C308 C306 1.415 . S
C308 C313 1.425 1_545 S
C308 C315 1.409 . S
C309 H301 0.930 . S
C309 C307 1.419 . S
C309 C310 1.362 1_545 S
C310 H302 0.930 . S
C310 C309 1.362 1_565 S
C310 C313 1.409 . S
C311 H303 0.930 . S
C311 C312 1.355 . S
C311 C313 1.415 . S
C312 C311 1.355 . S
C312 C314 1.419 . S
C313 C308 1.425 1_565 S
C313 C310 1.409 . S
C313 C311 1.415 . S
C314 H304 0.930 . S
C314 C312 1.419 . S
C314 C315 1.362 1_565 S
C315 H305 0.930 . S
C315 C308 1.409 . S
C315 C314 1.362 1_545 S
H316 C322 0.930 . S
H317 C325 0.930 . S
H318 C326 0.930 . S
H319 C327 0.930 . S
H320 C330 0.930 . S
H321 C331 0.930 . S
C322 H316 0.930 . S
C322 C323 1.355 . S
C322 C324 1.415 1_556 S
C323 C322 1.355 . S
C323 C325 1.419 . S
C324 C322 1.415 1_554 S
C324 C329 1.425 1_554 S
C324 C331 1.409 . S
C325 H317 0.930 . S
C325 C323 1.419 . S
C325 C326 1.362 . S
C326 H318 0.930 . S
C326 C325 1.362 . S
C326 C329 1.409 . S
C327 H319 0.930 . S
C327 C328 1.355 . S
C327 C329 1.415 1_554 S
C328 C327 1.355 . S
C328 C330 1.419 . S
C329 C324 1.425 1_556 S
C329 C326 1.409 . S
C329 C327 1.415 1_556 S
C330 H320 0.930 . S
C330 C328 1.419 . S
C330 C331 1.362 . S
C331 H321 0.930 . S
C331 C324 1.409 . S
C331 C330 1.362 . S
H332 C338 0.930 . S
H333 C341 0.930 . S
H334 C342 0.930 . S
H335 C343 0.930 . S
H336 C346 0.930 . S
H337 C347 0.930 . S
C338 H332 0.930 . S
C338 C339 1.355 . S
C338 C340 1.415 . S
C339 C338 1.355 . S
C339 C341 1.419 . S
C340 C338 1.415 . S
C340 C345 1.425 1_655 S
C340 C347 1.409 . S
C341 H333 0.930 . S
C341 C339 1.419 . S
C341 C342 1.362 1_655 S
C342 H334 0.930 . S
C342 C341 1.362 1_455 S
C342 C345 1.409 . S
C343 H335 0.930 . S
C343 C344 1.355 . S
C343 C345 1.415 . S
C344 C343 1.355 . S
C344 C346 1.419 . S
C345 C340 1.425 1_455 S
C345 C342 1.409 . S
C345 C343 1.415 . S
C346 H336 0.930 . S
C346 C344 1.419 . S
C346 C347 1.362 1_455 S
C347 H337 0.930 . S
C347 C340 1.409 . S
C347 C346 1.362 1_655 S
H348 C354 0.930 . S
H349 C357 0.930 . S
H350 C358 0.930 . S
H351 C359 0.930 . S
H352 C362 0.930 . S
H353 C363 0.930 . S
C354 H348 0.930 . S
C354 C355 1.355 . S
C354 C356 1.415 . S
C355 C354 1.355 . S
C355 C357 1.419 . S
C356 C354 1.415 . S
C356 C361 1.425 . S
C356 C363 1.409 . S
C357 H349 0.930 . S
C357 C355 1.419 . S
C357 C358 1.362 . S
C358 H350 0.930 . S
C358 C357 1.362 . S
C358 C361 1.409 . S
C359 H351 0.930 . S
C359 C360 1.355 . S
C359 C361 1.415 . S
C360 C359 1.355 . S
C360 C362 1.419 . S
C361 C356 1.425 . S
C361 C358 1.409 . S
C361 C359 1.415 . S
C362 H352 0.930 . S
C362 C360 1.419 . S
C362 C363 1.362 . S
C363 H353 0.930 . S
C363 C356 1.409 . S
C363 C362 1.362 . S
H364 C370 0.930 . S
H365 C373 0.930 . S
H366 C374 0.930 . S
H367 C375 0.930 . S
H368 C378 0.930 . S
H369 C379 0.930 . S
C370 H364 0.930 . S
C370 C371 1.355 . S
C370 C372 1.415 . S
C371 C370 1.355 . S
C371 C373 1.419 . S
C372 C370 1.415 . S
C372 C377 1.425 . S
C372 C379 1.409 . S
C373 H365 0.930 . S
C373 C371 1.419 . S
C373 C374 1.362 . S
C374 H366 0.930 . S
C374 C373 1.362 . S
C374 C377 1.409 . S
C375 H367 0.930 . S
C375 C376 1.355 . S
C375 C377 1.415 . S
C376 C375 1.355 . S
C376 C378 1.419 . S
C377 C372 1.425 . S
C377 C374 1.409 . S
C377 C375 1.415 . S
C378 H368 0.930 . S
C378 C376 1.419 . S
C378 C379 1.362 . S
C379 H369 0.930 . S
C379 C372 1.409 . S
C379 C378 1.362 . S
H380 C386 0.930 . S
H381 C389 0.930 . S
H382 C390 0.930 . S
H383 C391 0.930 . S
H384 C394 0.930 . S
H385 C395 0.930 . S
C386 H380 0.930 . S
C386 C387 1.355 . S
C386 C388 1.415 . S
C387 C386 1.355 . S
C387 C389 1.419 . S
C388 C386 1.415 . S
C388 C393 1.425 . S
C388 C395 1.409 . S
C389 H381 0.930 . S
C389 C387 1.419 . S
C389 C390 1.362 . S
C390 H382 0.930 . S
C390 C389 1.362 . S
C390 C393 1.409 . S
C391 H383 0.930 . S
C391 C392 1.355 . S
C391 C393 1.415 . S
C392 C391 1.355 . S
C392 C394 1.419 . S
C393 C388 1.425 . S
C393 C390 1.409 . S
C393 C391 1.415 . S
C394 H384 0.930 . S
C394 C392 1.419 . S
C394 C395 1.362 . S
C395 H385 0.930 . S
C395 C388 1.409 . S
C395 C394 1.362 . S
H396 C402 0.930 . S
H397 C405 0.930 . S
H398 C406 0.930 . S
H399 C407 0.930 . S
H400 C410 0.930 . S
H401 C411 0.930 . S
C402 H396 0.930 . S
C402 C403 1.355 . S
C402 C404 1.415 . S
C403 C402 1.355 . S
C403 C405 1.419 . S
C404 C402 1.415 . S
C404 C409 1.425 . S
C404 C411 1.409 . S
C405 H397 0.930 . S
C405 C403 1.419 . S
C405 C406 1.362 . S
C406 H398 0.930 . S
C406 C405 1.362 . S
C406 C409 1.409 . S
C407 H399 0.930 . S
C407 C408 1.355 . S
C407 C409 1.415 . S
C408 C407 1.355 . S
C408 C410 1.419 . S
C409 C404 1.425 . S
C409 C406 1.409 . S
C409 C407 1.415 . S
C410 H400 0.930 . S
C410 C408 1.419 . S
C410 C411 1.362 . S
C411 H401 0.930 . S
C411 C404 1.409 . S
C411 C410 1.362 . S
H412 C418 0.930 . S
H413 C421 0.930 . S
H414 C422 0.930 . S
H415 C423 0.930 . S
H416 C426 0.930 . S
H417 C427 0.930 . S
C418 H412 0.930 . S
C418 C419 1.355 . S
C418 C420 1.415 . S
C419 C418 1.355 . S
C419 C421 1.419 . S
C420 C418 1.415 . S
C420 C425 1.425 . S
C420 C427 1.409 . S
C421 H413 0.930 . S
C421 C419 1.419 . S
C421 C422 1.362 . S
C422 H414 0.930 . S
C422 C421 1.362 . S
C422 C425 1.409 . S
C423 H415 0.930 . S
C423 C424 1.355 . S
C423 C425 1.415 . S
C424 C423 1.355 . S
C424 C426 1.419 . S
C425 C420 1.425 . S
C425 C422 1.409 . S
C425 C423 1.415 . S
C426 H416 0.930 . S
C426 C424 1.419 . S
C426 C427 1.362 . S
C427 H417 0.930 . S
C427 C420 1.409 . S
C427 C426 1.362 . S
H428 C434 0.930 . S
H429 C437 0.930 . S
H430 C438 0.930 . S
H431 C439 0.930 . S
H432 C442 0.930 . S
H433 C443 0.930 . S
C434 H428 0.930 . S
C434 C435 1.355 . S
C434 C436 1.415 . S
C435 C434 1.355 . S
C435 C437 1.419 . S
C436 C434 1.415 . S
C436 C441 1.425 . S
C436 C443 1.409 . S
C437 H429 0.930 . S
C437 C435 1.419 . S
C437 C438 1.362 . S
C438 H430 0.930 . S
C438 C437 1.362 . S
C438 C441 1.409 . S
C439 H431 0.930 . S
C439 C440 1.355 . S
C439 C441 1.415 . S
C440 C439 1.355 . S
C440 C442 1.419 . S
C441 C436 1.425 . S
C441 C438 1.409 . S
C441 C439 1.415 . S
C442 H432 0.930 . S
C442 C440 1.419 . S
C442 C443 1.362 . S
C443 H433 0.930 . S
C443 C436 1.409 . S
C443 C442 1.362 . S
H444 C450 0.930 . S
H445 C453 0.930 . S
H446 C454 0.930 . S
H447 C455 0.930 . S
H448 C458 0.930 . S
H449 C459 0.930 . S
C450 H444 0.930 . S
C450 C451 1.355 . S
C450 C452 1.415 . S
C451 C450 1.355 . S
C451 C453 1.419 . S
C452 C450 1.415 . S
C452 C457 1.425 . S
C452 C459 1.409 . S
C453 H445 0.930 . S
C453 C451 1.419 . S
C453 C454 1.362 . S
C454 H446 0.930 . S
C454 C453 1.362 . S
C454 C457 1.409 . S
C455 H447 0.930 . S
C455 C456 1.355 . S
C455 C457 1.415 . S
C456 C455 1.355 . S
C456 C458 1.419 . S
C457 C452 1.425 . S
C457 C454 1.409 . S
C457 C455 1.415 . S
C458 H448 0.930 . S
C458 C456 1.419 . S
C458 C459 1.362 . S
C459 H449 0.930 . S
C459 C452 1.409 . S
C459 C458 1.362 . S
H460 C466 0.930 . S
H461 C469 0.930 . S
H462 C470 0.930 . S
H463 C471 0.930 . S
H464 C474 0.930 . S
H465 C475 0.930 . S
C466 H460 0.930 . S
C466 C467 1.355 . S
C466 C468 1.415 . S
C467 C466 1.355 . S
C467 C469 1.419 . S
C468 C466 1.415 . S
C468 C473 1.425 . S
C468 C475 1.409 . S
C469 H461 0.930 . S
C469 C467 1.419 . S
C469 C470 1.362 . S
C470 H462 0.930 . S
C470 C469 1.362 . S
C470 C473 1.409 . S
C471 H463 0.930 . S
C471 C472 1.355 . S
C471 C473 1.415 . S
C472 C471 1.355 . S
C472 C474 1.419 . S
C473 C468 1.425 . S
C473 C470 1.409 . S
C473 C471 1.415 . S
C474 H464 0.930 . S
C474 C472 1.419 . S
C474 C475 1.362 . S
C475 H465 0.930 . S
C475 C468 1.409 . S
C475 C474 1.362 . S
H476 C482 0.930 . S
H477 C485 0.930 . S
H478 C486 0.930 . S
H479 C487 0.930 . S
H480 C490 0.930 . S
H481 C491 0.930 . S
C482 H476 0.930 . S
C482 C483 1.355 . S
C482 C484 1.415 . S
C483 C482 1.355 . S
C483 C485 1.419 . S
C484 C482 1.415 . S
C484 C489 1.425 . S
C484 C491 1.409 . S
C485 H477 0.930 . S
C485 C483 1.419 . S
C485 C486 1.362 . S
C486 H478 0.930 . S
C486 C485 1.362 . S
C486 C489 1.409 . S
C487 H479 0.930 . S
C487 C488 1.355 . S
C487 C489 1.415 . S
C488 C487 1.355 . S
C488 C490 1.419 . S
C489 C484 1.425 . S
C489 C486 1.409 . S
C489 C487 1.415 . S
C490 H480 0.930 . S
C490 C488 1.419 . S
C490 C491 1.362 . S
C491 H481 0.930 . S
C491 C484 1.409 . S
C491 C490 1.362 . S
H492 C498 0.930 . S
H493 C501 0.930 . S
H494 C502 0.930 . S
H495 C503 0.930 . S
H496 C506 0.930 . S
H497 C507 0.930 . S
C498 H492 0.930 . S
C498 C499 1.355 . S
C498 C500 1.415 . S
C499 C498 1.355 . S
C499 C501 1.419 . S
C500 C498 1.415 . S
C500 C505 1.425 . S
C500 C507 1.409 . S
C501 H493 0.930 . S
C501 C499 1.419 . S
C501 C502 1.362 . S
C502 H494 0.930 . S
C502 C501 1.362 . S
C502 C505 1.409 . S
C503 H495 0.930 . S
C503 C504 1.355 . S
C503 C505 1.415 . S
C504 C503 1.355 . S
C504 C506 1.419 . S
C505 C500 1.425 . S
C505 C502 1.409 . S
C505 C503 1.415 . S
C506 H496 0.930 . S
C506 C504 1.419 . S
C506 C507 1.362 . S
C507 H497 0.930 . S
C507 C500 1.409 . S
C507 C506 1.362 . S
H508 C514 0.930 . S
H509 C517 0.930 . S
H510 C518 0.930 . S
H511 C519 0.930 . S
H512 C522 0.930 . S
H513 C523 0.930 . S
C514 H508 0.930 . S
C514 C515 1.355 . S
C514 C516 1.415 . S
C515 C514 1.355 . S
C515 C517 1.419 . S
C516 C514 1.415 . S
C516 C521 1.425 . S
C516 C523 1.409 . S
C517 H509 0.930 . S
C517 C515 1.419 . S
C517 C518 1.362 . S
C518 H510 0.930 . S
C518 C517 1.362 . S
C518 C521 1.409 . S
C519 H511 0.930 . S
C519 C520 1.355 . S
C519 C521 1.415 . S
C520 C519 1.355 . S
C520 C522 1.419 . S
C521 C516 1.425 . S
C521 C518 1.409 . S
C521 C519 1.415 . S
C522 H512 0.930 . S
C522 C520 1.419 . S
C522 C523 1.362 . S
C523 H513 0.930 . S
C523 C516 1.409 . S
C523 C522 1.362 . S
H524 C530 0.930 . S
H525 C533 0.930 . S
H526 C534 0.930 . S
H527 C535 0.930 . S
H528 C538 0.930 . S
H529 C539 0.930 . S
C530 H524 0.930 . S
C530 C531 1.355 . S
C530 C532 1.415 . S
C531 C530 1.355 . S
C531 C533 1.419 . S
C532 C530 1.415 . S
C532 C537 1.425 . S
C532 C539 1.409 . S
C533 H525 0.930 . S
C533 C531 1.419 . S
C533 C534 1.362 . S
C534 H526 0.930 . S
C534 C533 1.362 . S
C534 C537 1.409 . S
C535 H527 0.930 . S
C535 C536 1.355 . S
C535 C537 1.415 . S
C536 C535 1.355 . S
C536 C538 1.419 . S
C537 C532 1.425 . S
C537 C534 1.409 . S
C537 C535 1.415 . S
C538 H528 0.930 . S
C538 C536 1.419 . S
C538 C539 1.362 . S
C539 H529 0.930 . S
C539 C532 1.409 . S
C539 C538 1.362 . S
C163 C138 1.427 . S
C168 C8 1.440 . S
C179 C21 1.347 . S
C184 C151 1.331 . S
C195 C34 1.480 . S
C200 C86 1.418 . S
C211 C99 1.406 . S
C216 C47 1.474 . S
C227 C112 1.381 . S
C232 C60 1.313 . S
C243 C73 1.446 . S
C248 C125 1.481 . S
C259 C0 0.920 . S
C264 C91 1.006 . S
C275 C13 0.924 . S
C280 C104 0.864 . S
C291 C117 0.987 . S
C296 C26 0.989 . S
C307 C130 1.004 . S
C312 C39 1.018 . S
C323 C143 0.921 . S
C328 C52 0.872 . S
C339 C78 0.966 . S
C344 C65 1.011 . S
C355 C10 0.993 . S
C360 C57 0.934 . S
C371 C23 1.014 . S
C376 C70 0.896 . S
C387 C36 0.993 . S
C392 C5 0.852 . S
C403 C49 0.986 . S
C408 C18 0.947 . S
C419 C62 0.949 . S
C424 C31 0.913 . S
C435 C75 0.942 . S
C440 C44 0.993 . S
C451 C88 0.954 . S
C456 C109 0.868 . S
C467 C101 0.951 . S
C472 C122 0.890 . S
C483 C135 1.000 . S
C488 C114 0.939 . S
C499 C127 0.981 . S
C504 C148 0.956 . S
C515 C140 0.991 . S
C520 C83 0.853 . S
C531 C153 0.994 . S
C536 C96 0.885 . S
