# Generated by pormake.
# Topology bcu-i, (5)-cn, num edge types: 1
# Building blocks:
#     Node 0, Type 0, BuildingBlock: BEQFEK_clean_sbu_0, # of connection points: 5
#     Node 1, Type 0, BuildingBlock: BEQFEK_clean_sbu_0, # of connection points: 5
#     Node 2, Type 0, BuildingBlock: BEQFEK_clean_sbu_0, # of connection points: 5
#     Node 3, Type 0, BuildingBlock: BEQFEK_clean_sbu_0, # of connection points: 5
#     Node 4, Type 0, BuildingBlock: BEQFEK_clean_sbu_0, # of connection points: 5
#     Node 5, Type 0, BuildingBlock: BEQFEK_clean_sbu_0, # of connection points: 5
#     Node 6, Type 0, BuildingBlock: BEQFEK_clean_sbu_0, # of connection points: 5
#     Node 7, Type 0, BuildingBlock: BEQFEK_clean_sbu_0, # of connection points: 5
#     Node 8, Type 0, BuildingBlock: BEQFEK_clean_sbu_0, # of connection points: 5
#     Node 9, Type 0, BuildingBlock: BEQFEK_clean_sbu_0, # of connection points: 5
#     Node 10, Type 0, BuildingBlock: BEQFEK_clean_sbu_0, # of connection points: 5
#     Node 11, Type 0, BuildingBlock: BEQFEK_clean_sbu_0, # of connection points: 5
#     Node 12, Type 0, BuildingBlock: BEQFEK_clean_sbu_0, # of connection points: 5
#     Node 13, Type 0, BuildingBlock: BEQFEK_clean_sbu_0, # of connection points: 5
#     Node 14, Type 0, BuildingBlock: BEQFEK_clean_sbu_0, # of connection points: 5
#     Node 15, Type 0, BuildingBlock: BEQFEK_clean_sbu_0, # of connection points: 5
#     Edge 16, Type (0, 0), BuildingBlock: XIVTED_clean_linker_0, # of connection points: 2
#     Edge 17, Type (0, 0), BuildingBlock: XIVTED_clean_linker_0, # of connection points: 2
#     Edge 18, Type (0, 0), BuildingBlock: XIVTED_clean_linker_0, # of connection points: 2
#     Edge 19, Type (0, 0), BuildingBlock: XIVTED_clean_linker_0, # of connection points: 2
#     Edge 20, Type (0, 0), BuildingBlock: XIVTED_clean_linker_0, # of connection points: 2
#     Edge 21, Type (0, 0), BuildingBlock: XIVTED_clean_linker_0, # of connection points: 2
#     Edge 22, Type (0, 0), BuildingBlock: XIVTED_clean_linker_0, # of connection points: 2
#     Edge 23, Type (0, 0), BuildingBlock: XIVTED_clean_linker_0, # of connection points: 2
#     Edge 24, Type (0, 0), BuildingBlock: XIVTED_clean_linker_0, # of connection points: 2
#     Edge 25, Type (0, 0), BuildingBlock: XIVTED_clean_linker_0, # of connection points: 2
#     Edge 26, Type (0, 0), BuildingBlock: XIVTED_clean_linker_0, # of connection points: 2
#     Edge 27, Type (0, 0), BuildingBlock: XIVTED_clean_linker_0, # of connection points: 2
#     Edge 28, Type (0, 0), BuildingBlock: XIVTED_clean_linker_0, # of connection points: 2
#     Edge 29, Type (0, 0), BuildingBlock: XIVTED_clean_linker_0, # of connection points: 2
#     Edge 30, Type (0, 0), BuildingBlock: XIVTED_clean_linker_0, # of connection points: 2
#     Edge 31, Type (0, 0), BuildingBlock: XIVTED_clean_linker_0, # of connection points: 2
#     Edge 32, Type (0, 0), BuildingBlock: XIVTED_clean_linker_0, # of connection points: 2
#     Edge 33, Type (0, 0), BuildingBlock: XIVTED_clean_linker_0, # of connection points: 2
#     Edge 34, Type (0, 0), BuildingBlock: XIVTED_clean_linker_0, # of connection points: 2
#     Edge 35, Type (0, 0), BuildingBlock: XIVTED_clean_linker_0, # of connection points: 2
#     Edge 36, Type (0, 0), BuildingBlock: XIVTED_clean_linker_0, # of connection points: 2
#     Edge 37, Type (0, 0), BuildingBlock: XIVTED_clean_linker_0, # of connection points: 2
#     Edge 38, Type (0, 0), BuildingBlock: XIVTED_clean_linker_0, # of connection points: 2
#     Edge 39, Type (0, 0), BuildingBlock: XIVTED_clean_linker_0, # of connection points: 2
#     Edge 40, Type (0, 0), BuildingBlock: XIVTED_clean_linker_0, # of connection points: 2
#     Edge 41, Type (0, 0), BuildingBlock: XIVTED_clean_linker_0, # of connection points: 2
#     Edge 42, Type (0, 0), BuildingBlock: XIVTED_clean_linker_0, # of connection points: 2
#     Edge 43, Type (0, 0), BuildingBlock: XIVTED_clean_linker_0, # of connection points: 2
#     Edge 44, Type (0, 0), BuildingBlock: XIVTED_clean_linker_0, # of connection points: 2
#     Edge 45, Type (0, 0), BuildingBlock: XIVTED_clean_linker_0, # of connection points: 2
#     Edge 46, Type (0, 0), BuildingBlock: XIVTED_clean_linker_0, # of connection points: 2
#     Edge 47, Type (0, 0), BuildingBlock: XIVTED_clean_linker_0, # of connection points: 2
#     Edge 48, Type (0, 0), BuildingBlock: XIVTED_clean_linker_0, # of connection points: 2
#     Edge 49, Type (0, 0), BuildingBlock: XIVTED_clean_linker_0, # of connection points: 2
#     Edge 50, Type (0, 0), BuildingBlock: XIVTED_clean_linker_0, # of connection points: 2
#     Edge 51, Type (0, 0), BuildingBlock: XIVTED_clean_linker_0, # of connection points: 2
#     Edge 52, Type (0, 0), BuildingBlock: XIVTED_clean_linker_0, # of connection points: 2
#     Edge 53, Type (0, 0), BuildingBlock: XIVTED_clean_linker_0, # of connection points: 2
#     Edge 54, Type (0, 0), BuildingBlock: XIVTED_clean_linker_0, # of connection points: 2
#     Edge 55, Type (0, 0), BuildingBlock: XIVTED_clean_linker_0, # of connection points: 2
# Relax obj value: 0.893
# Max RMSD: 0.187
# Mean RMSD: 0.187
data_MOF--net-bcu-i--node1-BEQFEK_clean_sbu_0--edge1-XIVTED_clean_linker_0
_symmetry_space_group_name_H-M    P1
_symmetry_Int_Tables_number       1
_symmetry_cell_setting            triclinic
loop_
_symmetry_equiv_pos_as_xyz
'x, y, z'
_cell_length_a     48.223607
_cell_length_b     48.205274
_cell_length_c     35.50847
_cell_angle_alpha  89.955472
_cell_angle_beta   90.050792
_cell_angle_gamma 89.998116
loop_
_atom_site_label
_atom_site_type_symbol
_atom_site_fract_x
_atom_site_fract_y
_atom_site_fract_z
_atom_type_partial_charge
Co0 Co 0.2175 0.10743 0.32208 0.0
Co1 Co 0.21752 0.057 0.26655 0.0
C2 C 0.18336 0.10858 0.25277 0.0
O3 O 0.19297 0.12056 0.28192 0.0
O4 O 0.1905 0.08393 0.24393 0.0
C5 C 0.20381 0.15507 0.37001 0.0
O6 O 0.18654 0.1632 0.34359 0.0
C7 C 0.19423 0.00663 0.23239 0.0
C8 C 0.23155 0.98775 0.20708 0.0
C9 C 0.20345 0.98333 0.21283 0.0
N10 N 0.21596 0.02358 0.23809 0.0
N11 N 0.23808 0.01241 0.22231 0.0
C12 C 0.16595 0.0121 0.24805 0.0
H13 H 0.15185 0.0182 0.22477 0.0
H14 H 0.16659 0.02931 0.26877 0.0
H15 H 0.1575 0.99314 0.26156 0.0
C16 C 0.19792 0.06511 0.37432 0.0
N17 N 0.20555 0.07271 0.33949 0.0
N18 N 0.20829 0.05055 0.31818 0.0
C19 C 0.20378 0.02786 0.33975 0.0
C20 C 0.1965 0.03655 0.37567 0.0
C21 C 0.19487 0.0847 0.40678 0.0
H22 H 0.2156 0.09285 0.4146 0.0
H23 H 0.1815 0.10236 0.39837 0.0
H24 H 0.18569 0.07444 0.43179 0.0
O25 O 0.25578 0.10471 0.30489 0.0
O26 O 0.25626 0.07082 0.26271 0.0
H27 H 0.22402 -0.00215 0.30433 0.0
H28 H 0.21615 0.98581 0.35149 0.0
C29 C 0.20867 -0.00141 0.32753 0.0
H30 H 0.18884 0.98952 0.31765 0.0
H31 H 0.25786 0.02119 0.22303 0.0
O32 O 0.21824 0.13336 0.36504 0.0
C33 C 0.26865 0.08962 0.28139 0.0
Co34 Co 0.8919 0.21827 0.32055 0.0
Co35 Co 0.93898 0.22016 0.25989 0.0
C36 C 0.88813 0.1844 0.25113 0.0
O37 O 0.87751 0.19366 0.28139 0.0
O38 O 0.91203 0.19213 0.23991 0.0
C39 C 0.84626 0.20295 0.37058 0.0
O40 O 0.83654 0.18796 0.34265 0.0
C41 C 0.98802 0.19776 0.2223 0.0
C42 C 0.00587 0.23519 0.19587 0.0
C43 C 0.01074 0.20714 0.20172 0.0
N44 N 0.97098 0.21932 0.22854 0.0
N45 N 0.98145 0.24151 0.212 0.0
C46 C 0.98345 0.16956 0.23888 0.0
H47 H 0.96664 0.17009 0.26018 0.0
H48 H 0.00281 0.16165 0.25194 0.0
H49 H 0.97724 0.15503 0.21618 0.0
C50 C 0.93777 0.20039 0.36822 0.0
N51 N 0.92788 0.20753 0.33425 0.0
N52 N 0.94861 0.21128 0.31072 0.0
C53 C 0.97263 0.20806 0.32992 0.0
C54 C 0.96637 0.20043 0.36666 0.0
C55 C 0.92021 0.19697 0.40268 0.0
H56 H 0.90264 0.18287 0.39639 0.0
H57 H 0.93214 0.18845 0.42674 0.0
H58 H 0.91175 0.21748 0.41093 0.0
O59 O 0.89224 0.25679 0.30349 0.0
O60 O 0.92332 0.25833 0.25742 0.0
H61 H 0.01451 0.22266 0.33745 0.0
H62 H 0.01035 0.1955 0.30355 0.0
C63 C 0.0008 0.21469 0.31478 0.0
H64 H -0.00064 0.23028 0.2919 0.0
H65 H 0.97253 0.26121 0.21312 0.0
O66 O 0.86818 0.21711 0.36587 0.0
C67 C 0.90529 0.27008 0.27817 0.0
Co68 Co 0.77414 0.8887 0.31941 0.0
Co69 Co 0.77454 0.93792 0.26172 0.0
C70 C 0.80767 0.88579 0.24948 0.0
O71 O 0.79788 0.87456 0.27905 0.0
O72 O 0.80114 0.91044 0.23985 0.0
C73 C 0.79001 0.84239 0.36799 0.0
O74 O 0.80737 0.83515 0.34126 0.0
C75 C 0.79811 0.98733 0.22572 0.0
C76 C 0.7608 0.00663 0.20083 0.0
C77 C 0.78903 0.01064 0.20605 0.0
N78 N 0.77619 0.97077 0.23205 0.0
N79 N 0.75407 0.98214 0.21645 0.0
C80 C 0.82643 0.98167 0.2412 0.0
H81 H 0.82575 0.96461 0.26218 0.0
H82 H 0.83519 0.00063 0.25432 0.0
H83 H 0.84031 0.97528 0.21786 0.0
C84 C 0.79418 0.93203 0.3698 0.0
N85 N 0.78668 0.92365 0.33525 0.0
N86 N 0.78413 0.94533 0.31295 0.0
C87 C 0.78862 0.96849 0.33352 0.0
C88 C 0.79575 0.96061 0.36988 0.0
C89 C 0.79643 0.91321 0.40326 0.0
H90 H 0.77557 0.90497 0.41019 0.0
H91 H 0.81023 0.89554 0.39639 0.0
H92 H 0.80473 0.92406 0.42837 0.0
O93 O 0.73557 0.89168 0.30304 0.0
O94 O 0.73574 0.92434 0.25895 0.0
H95 H 0.76792 -0.00234 0.29722 0.0
H96 H 0.77662 0.01093 0.34346 0.0
C97 C 0.78365 -0.00254 0.31999 0.0
H98 H 0.80333 0.00616 0.30907 0.0
H99 H 0.73417 0.9737 0.21774 0.0
O100 O 0.77432 0.86324 0.36311 0.0
C101 C 0.72301 0.90641 0.27874 0.0
Co102 Co 0.10261 0.77291 0.31912 0.0
Co103 Co 0.05359 0.77289 0.26121 0.0
C104 C 0.10419 0.80845 0.2507 0.0
O105 O 0.11571 0.79822 0.27982 0.0
O106 O 0.07986 0.80123 0.24056 0.0
C107 C 0.14734 0.79089 0.36837 0.0
O108 O 0.15301 0.80931 0.34221 0.0
C109 C 0.0039 0.79564 0.22525 0.0
C110 C 0.98501 0.75811 0.20045 0.0
C111 C 0.98075 0.78632 0.20553 0.0
N112 N 0.02069 0.7739 0.23164 0.0
N113 N 0.00955 0.75164 0.21615 0.0
C114 C 0.00916 0.824 0.24086 0.0
H115 H 0.02592 0.82339 0.26229 0.0
H116 H 0.98998 0.83261 0.25353 0.0
H117 H 0.01578 0.83796 0.2177 0.0
C118 C 0.05849 0.79022 0.37007 0.0
N119 N 0.0672 0.78361 0.33535 0.0
N120 N 0.0457 0.78103 0.31276 0.0
C121 C 0.02235 0.78471 0.33324 0.0
C122 C 0.02991 0.79123 0.3699 0.0
C123 C 0.07706 0.79268 0.40374 0.0
H124 H 0.08633 0.77212 0.40996 0.0
H125 H 0.094 0.80752 0.39752 0.0
H126 H 0.0657 0.79991 0.42904 0.0
O127 O 0.1013 0.73463 0.30127 0.0
O128 O 0.0689 0.73473 0.25679 0.0
H129 H 0.99361 0.76399 0.29645 0.0
H130 H 0.97984 0.7727 0.34242 0.0
C131 C 0.99354 0.77972 0.31919 0.0
H132 H 0.98497 0.7994 0.30797 0.0
H133 H 0.0182 0.73182 0.21753 0.0
O134 O 0.12795 0.77353 0.3629 0.0
C135 C 0.08722 0.72218 0.2762 0.0
Co136 Co 0.20692 0.88878 0.68161 0.0
Co137 Co 0.21054 0.9362 0.7416 0.0
C138 C 0.17503 0.88528 0.75263 0.0
O139 O 0.18353 0.87449 0.72206 0.0
O140 O 0.18298 0.9093 0.76321 0.0
C141 C 0.1909 0.84306 0.63148 0.0
O142 O 0.1751 0.83365 0.65876 0.0
C143 C 0.19048 0.98665 0.779 0.0
C144 C 0.22897 0.00254 0.80493 0.0
C145 C 0.20123 0.00895 0.79925 0.0
N146 N 0.21103 0.9684 0.77272 0.0
N147 N 0.23383 0.97773 0.78899 0.0
C148 C 0.16194 0.98349 0.76294 0.0
H149 H 0.16132 0.96639 0.74206 0.0
H150 H 0.15504 0.00312 0.74958 0.0
H151 H 0.14729 0.9784 0.786 0.0
C152 C 0.18827 0.93437 0.63414 0.0
N153 N 0.19566 0.92467 0.6681 0.0
N154 N 0.20045 0.94554 0.69106 0.0
C155 C 0.19781 0.96942 0.67137 0.0
C156 C 0.18938 0.96299 0.63497 0.0
C157 C 0.18419 0.9165 0.60009 0.0
H158 H 0.17035 0.89889 0.6072 0.0
H159 H 0.17503 0.9282 0.57625 0.0
H160 H 0.20455 0.90811 0.59106 0.0
O161 O 0.24588 0.88949 0.69644 0.0
O162 O 0.24877 0.92073 0.74214 0.0
H163 H 0.22178 0.9955 0.70828 0.0
H164 H 0.21484 0.01022 0.66229 0.0
C165 C 0.2062 -0.00257 0.68547 0.0
H166 H 0.18767 0.00834 0.69646 0.0
H167 H 0.25301 0.96774 0.7878 0.0
O168 O 0.20529 0.86477 0.63667 0.0
C169 C 0.25993 0.90274 0.72076 0.0
Co170 Co 0.11265 0.22049 0.67963 0.0
Co171 Co 0.06173 0.22172 0.73414 0.0
C172 C 0.11272 0.18716 0.74967 0.0
O173 O 0.1252 0.19634 0.72065 0.0
O174 O 0.08812 0.19479 0.75779 0.0
C175 C 0.15964 0.20419 0.63241 0.0
O176 O 0.166 0.186 0.6586 0.0
C177 C 0.01147 0.19854 0.76836 0.0
C178 C 0.99235 0.23587 0.79332 0.0
C179 C 0.98823 0.20764 0.78812 0.0
N180 N 0.02812 0.22041 0.76213 0.0
N181 N 0.0168 0.24257 0.77763 0.0
C182 C 0.01725 0.17017 0.75315 0.0
H183 H 0.03431 0.17085 0.73223 0.0
H184 H -0.00166 0.16134 0.73997 0.0
H185 H 0.02371 0.15638 0.7766 0.0
C186 C 0.07058 0.20089 0.62687 0.0
N187 N 0.07803 0.20851 0.66178 0.0
N188 N 0.05573 0.21177 0.68268 0.0
C189 C 0.03317 0.20757 0.66081 0.0
C190 C 0.04201 0.19998 0.62505 0.0
C191 C 0.09035 0.19778 0.59464 0.0
H192 H 0.09905 0.21841 0.5874 0.0
H193 H 0.10761 0.18389 0.60303 0.0
H194 H 0.08012 0.18911 0.56927 0.0
O195 O 0.10968 0.25919 0.6953 0.0
O196 O 0.0755 0.26053 0.73706 0.0
H197 H 0.00334 0.22906 0.69508 0.0
H198 H 0.99122 0.22001 0.64832 0.0
C199 C 0.00393 0.21308 0.67265 0.0
H200 H 0.99469 0.19364 0.68361 0.0
H201 H 0.0254 0.26242 0.77659 0.0
O202 O 0.13912 0.22028 0.63727 0.0
C203 C 0.09435 0.27253 0.71802 0.0
Co204 Co 0.78247 0.10585 0.68094 0.0
Co205 Co 0.78032 0.0562 0.73776 0.0
C206 C 0.81552 0.10666 0.75152 0.0
O207 O 0.80624 0.11852 0.72208 0.0
O208 O 0.80811 0.08215 0.76064 0.0
C209 C 0.80088 0.15191 0.63372 0.0
O210 O 0.81842 0.15798 0.66081 0.0
C211 C 0.80069 0.00501 0.77311 0.0
C212 C 0.76203 0.98765 0.79672 0.0
C213 C 0.79003 0.98206 0.79205 0.0
N214 N 0.77987 0.02294 0.76671 0.0
N215 N 0.75694 0.01269 0.78153 0.0
C216 C 0.82946 0.00912 0.75834 0.0
H217 H 0.82999 0.02633 0.73758 0.0
H218 H 0.83725 0.98977 0.74515 0.0
H219 H 0.84343 0.01454 0.78206 0.0
C220 C 0.80086 0.06221 0.63003 0.0
N221 N 0.79371 0.0706 0.66469 0.0
N222 N 0.78996 0.04884 0.68653 0.0
C223 C 0.79324 0.02571 0.66549 0.0
C224 C 0.80087 0.0336 0.62934 0.0
C225 C 0.80417 0.08122 0.59694 0.0
H226 H 0.78374 0.0904 0.58977 0.0
H227 H 0.81866 0.09823 0.60434 0.0
H228 H 0.81225 0.07021 0.57183 0.0
O229 O 0.74363 0.10433 0.6961 0.0
O230 O 0.74213 0.07155 0.73997 0.0
H231 H 0.77886 0.98418 0.65435 0.0
H232 H 0.80538 0.98697 0.68949 0.0
C233 C 0.78639 -0.00306 0.67826 0.0
H234 H 0.77041 -0.00256 0.70066 0.0
H235 H 0.73758 0.02229 0.77999 0.0
O236 O 0.78421 0.13176 0.6379 0.0
C237 C 0.73029 0.09002 0.72003 0.0
Co238 Co 0.88264 0.77065 0.67818 0.0
Co239 Co 0.9317 0.76931 0.73606 0.0
C240 C 0.8804 0.80371 0.74853 0.0
O241 O 0.86893 0.79445 0.71881 0.0
O242 O 0.9048 0.79635 0.75814 0.0
C243 C 0.83743 0.78882 0.62939 0.0
O244 O 0.83113 0.80653 0.65615 0.0
C245 C 0.98103 0.79208 0.77302 0.0
C246 C -0.00031 0.75452 0.79813 0.0
C247 C 0.00396 0.78277 0.79334 0.0
N248 N 0.96444 0.77029 0.76602 0.0
N249 N 0.97544 0.748 0.78168 0.0
C250 C 0.97569 0.82053 0.75774 0.0
H251 H 0.95894 0.82005 0.7363 0.0
H252 H 0.99485 0.82929 0.74519 0.0
H253 H 0.96899 0.83429 0.78105 0.0
C254 C 0.92662 0.79008 0.6283 0.0
N255 N 0.91792 0.78257 0.66271 0.0
N256 N 0.93945 0.77929 0.6851 0.0
C257 C 0.96278 0.78334 0.66474 0.0
C258 C 0.95524 0.79091 0.62841 0.0
C259 C 0.908 0.79285 0.5947 0.0
H260 H 0.89917 0.77224 0.58773 0.0
H261 H 0.89074 0.8072 0.60145 0.0
H262 H 0.91916 0.80082 0.56965 0.0
O263 O 0.88482 0.73178 0.6937 0.0
O264 O 0.91743 0.73068 0.73787 0.0
H265 H 0.99123 0.76141 0.70073 0.0
H266 H 0.00507 0.77072 0.655 0.0
C267 C 0.99154 0.77755 0.67849 0.0
H268 H 0.0005 0.79685 0.69028 0.0
H269 H 0.96686 0.72817 0.78003 0.0
O270 O 0.85733 0.77196 0.63434 0.0
C271 C 0.89929 0.71857 0.71767 0.0
Co272 Co 0.71923 0.61053 0.82084 0.0
Co273 Co 0.71431 0.56092 0.76425 0.0
C274 C 0.68414 0.61538 0.75294 0.0
O275 O 0.69496 0.62621 0.78211 0.0
O276 O 0.68947 0.59046 0.74337 0.0
C277 C 0.70988 0.65896 0.86838 0.0
O278 O 0.69434 0.66851 0.84086 0.0
C279 C 0.68364 0.51359 0.73505 0.0
C280 C 0.71565 0.4903 0.70391 0.0
C281 C 0.68818 0.4892 0.71525 0.0
N282 N 0.70739 0.52808 0.73601 0.0
N283 N 0.72634 0.51435 0.71667 0.0
C284 C 0.6571 0.52329 0.75254 0.0
H285 H 0.65546 0.54618 0.75034 0.0
H286 H 0.65685 0.51789 0.78285 0.0
H287 H 0.63897 0.5134 0.73871 0.0
C288 C 0.69829 0.56894 0.87326 0.0
N289 N 0.70487 0.57668 0.83806 0.0
N290 N 0.70625 0.55464 0.81629 0.0
C291 C 0.70228 0.53188 0.83791 0.0
C292 C 0.6964 0.54041 0.87434 0.0
C293 C 0.69726 0.58818 0.9063 0.0
H294 H 0.71866 0.59461 0.9137 0.0
H295 H 0.68509 0.60693 0.89888 0.0
H296 H 0.68774 0.57811 0.93125 0.0
O297 O 0.7569 0.60441 0.80175 0.0
O298 O 0.75394 0.57113 0.75858 0.0
H299 H 0.71982 0.50221 0.79918 0.0
H300 H 0.71946 0.49142 0.84793 0.0
C301 C 0.70779 0.50269 0.82572 0.0
H302 H 0.68782 0.4917 0.82181 0.0
H303 H 0.74685 0.52084 0.71348 0.0
O304 O 0.72239 0.63598 0.8643 0.0
C305 C 0.76806 0.5886 0.77743 0.0
Co306 Co 0.38452 0.7163 0.80545 0.0
Co307 Co 0.43581 0.72124 0.75187 0.0
C308 C 0.3905 0.68087 0.73656 0.0
O309 O 0.37698 0.69008 0.76458 0.0
O310 O 0.41438 0.69032 0.72828 0.0
C311 C 0.35181 0.68469 0.85456 0.0
O312 O 0.36374 0.66466 0.83543 0.0
C313 C 0.48822 0.70392 0.71815 0.0
C314 C 0.50648 0.74393 0.70069 0.0
C315 C 0.5119 0.71569 0.70242 0.0
N316 N 0.47004 0.7243 0.72557 0.0
N317 N 0.48082 0.7481 0.7144 0.0
C318 C 0.48366 0.67436 0.72957 0.0
H319 H 0.47839 0.66195 0.70425 0.0
H320 H 0.46623 0.67277 0.74985 0.0
H321 H 0.50271 0.66554 0.7424 0.0
C322 C 0.42829 0.7074 0.86175 0.0
N323 N 0.4202 0.71086 0.8258 0.0
N324 N 0.44222 0.71367 0.80417 0.0
C325 C 0.46514 0.71215 0.8261 0.0
C326 C 0.45689 0.70751 0.86303 0.0
C327 C 0.40922 0.70802 0.89505 0.0
H328 H 0.39249 0.7234 0.8905 0.0
H329 H 0.40004 0.68715 0.89897 0.0
H330 H 0.42034 0.71368 0.92131 0.0
O331 O 0.38204 0.75452 0.78843 0.0
O332 O 0.41644 0.75782 0.74689 0.0
H333 H 0.49485 0.73391 0.79218 0.0
H334 H 0.50861 0.72079 0.83613 0.0
C335 C 0.49419 0.71648 0.81252 0.0
H336 H 0.50143 0.69743 0.79821 0.0
H337 H 0.47114 0.76732 0.71756 0.0
O338 O 0.35646 0.70965 0.84501 0.0
C339 C 0.39609 0.7684 0.76473 0.0
Co340 Co 0.27841 0.37952 0.81764 0.0
Co341 Co 0.28076 0.42963 0.76138 0.0
C342 C 0.31265 0.37634 0.74886 0.0
O343 O 0.30266 0.3649 0.77819 0.0
O344 O 0.30635 0.40115 0.73967 0.0
C345 C 0.28987 0.33226 0.86774 0.0
O346 O 0.30738 0.32317 0.84225 0.0
C347 C 0.30711 0.47846 0.72699 0.0
C348 C 0.27159 0.49781 0.69773 0.0
C349 C 0.2996 0.50139 0.70529 0.0
N350 N 0.28453 0.46252 0.73206 0.0
N351 N 0.26349 0.47397 0.71401 0.0
C352 C 0.33455 0.47234 0.74487 0.0
H353 H 0.33252 0.45565 0.76623 0.0
H354 H 0.34317 0.49129 0.75817 0.0
H355 H 0.34924 0.46517 0.72291 0.0
C356 C 0.29815 0.42165 0.86981 0.0
N357 N 0.29163 0.41394 0.83464 0.0
N358 N 0.2899 0.43604 0.81296 0.0
C359 C 0.29406 0.45879 0.83449 0.0
C360 C 0.29947 0.45024 0.87115 0.0
C361 C 0.30167 0.40204 0.90219 0.0
H362 H 0.31396 0.3838 0.89311 0.0
H363 H 0.31246 0.41213 0.92617 0.0
H364 H 0.28098 0.3949 0.91176 0.0
O365 O 0.24035 0.38393 0.79968 0.0
O366 O 0.24137 0.41791 0.75754 0.0
H367 H 0.28113 0.50087 0.84502 0.0
H368 H 0.30939 0.49707 0.81267 0.0
C369 C 0.28934 0.48798 0.82166 0.0
H370 H 0.27467 0.48849 0.79762 0.0
H371 H 0.24342 0.46589 0.71362 0.0
O372 O 0.27607 0.3542 0.86136 0.0
C373 C 0.22816 0.39965 0.77618 0.0
Co374 Co 0.59992 0.26693 0.82886 0.0
Co375 Co 0.55501 0.26649 0.76507 0.0
C376 C 0.6032 0.30599 0.76391 0.0
O377 O 0.61298 0.29531 0.79388 0.0
O378 O 0.58068 0.29716 0.74934 0.0
C379 C 0.64633 0.27899 0.87855 0.0
O380 O 0.65833 0.28994 0.84886 0.0
C381 C 0.50671 0.28768 0.72445 0.0
C382 C 0.49058 0.24976 0.69726 0.0
C383 C 0.48491 0.27769 0.70259 0.0
N384 N 0.52405 0.26656 0.73184 0.0
N385 N 0.51463 0.24409 0.71487 0.0
C386 C 0.50991 0.31594 0.74135 0.0
H387 H 0.52555 0.31565 0.7643 0.0
H388 H 0.48979 0.32354 0.75242 0.0
H389 H 0.51706 0.33058 0.71927 0.0
C390 C 0.55196 0.27933 0.87534 0.0
N391 N 0.56306 0.27425 0.84146 0.0
N392 N 0.54324 0.27214 0.81608 0.0
C393 C 0.51854 0.27479 0.83382 0.0
C394 C 0.52354 0.27986 0.87167 0.0
C395 C 0.5683 0.28224 0.91101 0.0
H396 H 0.57796 0.262 0.918 0.0
H397 H 0.58503 0.29773 0.9069 0.0
H398 H 0.55513 0.28884 0.93499 0.0
O399 O 0.60266 0.22962 0.80808 0.0
O400 O 0.57286 0.22948 0.76035 0.0
H401 H 0.49233 0.2558 0.79214 0.0
H402 H 0.47565 0.2626 0.83689 0.0
C403 C 0.49078 0.27055 0.81595 0.0
H404 H 0.48293 0.29072 0.80539 0.0
H405 H 0.52396 0.2246 0.71669 0.0
O406 O 0.62255 0.26794 0.87524 0.0
C407 C 0.59084 0.21734 0.7808 0.0
Co408 Co 0.71431 0.385 0.18243 0.0
Co409 Co 0.71619 0.43455 0.23935 0.0
C410 C 0.6791 0.38526 0.25115 0.0
O411 O 0.68883 0.37322 0.22219 0.0
O412 O 0.68709 0.40945 0.2608 0.0
C413 C 0.69621 0.33822 0.13703 0.0
O414 O 0.6799 0.33202 0.16542 0.0
C415 C 0.695 0.48559 0.27348 0.0
C416 C 0.73295 0.5034 0.29858 0.0
C417 C 0.70501 0.50875 0.29261 0.0
N418 N 0.71613 0.46784 0.26817 0.0
N419 N 0.73862 0.47834 0.28389 0.0
C420 C 0.66663 0.48107 0.25748 0.0
H421 H 0.66676 0.46375 0.23693 0.0
H422 H 0.65893 0.50024 0.24367 0.0
H423 H 0.65219 0.47562 0.28064 0.0
C424 C 0.69879 0.42922 0.13037 0.0
N425 N 0.70486 0.42059 0.16536 0.0
N426 N 0.70825 0.44219 0.18756 0.0
C427 C 0.70566 0.46546 0.16658 0.0
C428 C 0.69897 0.45785 0.12998 0.0
C429 C 0.69607 0.41035 0.09707 0.0
H430 H 0.68063 0.39394 0.10335 0.0
H431 H 0.68958 0.42165 0.07132 0.0
H432 H 0.71635 0.40027 0.09161 0.0
O433 O 0.7527 0.3853 0.19993 0.0
O434 O 0.75401 0.4182 0.24368 0.0
H435 H 0.71961 0.50737 0.15686 0.0
H436 H 0.69233 0.50376 0.19067 0.0
C437 C 0.71173 0.4942 0.18016 0.0
H438 H 0.72719 0.49371 0.20325 0.0
H439 H 0.75809 0.4689 0.28327 0.0
O440 O 0.71239 0.35892 0.13956 0.0
C441 C 0.76581 0.39927 0.22451 0.0
Co442 Co 0.61256 0.72172 0.17522 0.0
Co443 Co 0.56141 0.72134 0.2296 0.0
C444 C 0.61134 0.68535 0.24301 0.0
O445 O 0.62389 0.69567 0.21477 0.0
O446 O 0.58677 0.69276 0.25167 0.0
C447 C 0.66046 0.7058 0.1298 0.0
O448 O 0.66659 0.68824 0.15687 0.0
C449 C 0.50998 0.69952 0.26252 0.0
C450 C 0.49197 0.73738 0.28762 0.0
C451 C 0.48687 0.70939 0.28183 0.0
N452 N 0.52757 0.72076 0.2571 0.0
N453 N 0.5169 0.74321 0.2727 0.0
C454 C 0.51461 0.67114 0.24666 0.0
H455 H 0.53159 0.67145 0.22558 0.0
H456 H 0.49531 0.66316 0.23353 0.0
H457 H 0.52065 0.65686 0.26977 0.0
C458 C 0.57002 0.70772 0.12018 0.0
N459 N 0.57761 0.71201 0.15605 0.0
N460 N 0.55535 0.71399 0.17735 0.0
C461 C 0.5327 0.71189 0.15505 0.0
C462 C 0.54144 0.70776 0.11823 0.0
C463 C 0.58981 0.70526 0.08788 0.0
H464 H 0.60664 0.69058 0.09533 0.0
H465 H 0.57931 0.6977 0.06203 0.0
H466 H 0.5991 0.72587 0.08206 0.0
O467 O 0.6108 0.7598 0.19371 0.0
O468 O 0.57651 0.75941 0.23539 0.0
H469 H 0.49058 0.72466 0.14396 0.0
H470 H 0.49449 0.69749 0.17815 0.0
C471 C 0.50359 0.71715 0.16767 0.0
H472 H 0.50331 0.7326 0.19077 0.0
H473 H 0.52624 0.76273 0.27215 0.0
O474 O 0.63958 0.72162 0.13335 0.0
C475 C 0.59559 0.77209 0.21766 0.0
Co476 Co 0.27609 0.61573 0.17258 0.0
Co477 Co 0.2769 0.565 0.22822 0.0
C478 C 0.30976 0.6155 0.24427 0.0
O479 O 0.2999 0.62715 0.21501 0.0
O480 O 0.30326 0.59075 0.2531 0.0
C481 C 0.30614 0.64858 0.12276 0.0
O482 O 0.32626 0.63798 0.14319 0.0
C483 C 0.2963 0.51667 0.2723 0.0
C484 C 0.26011 0.48886 0.2671 0.0
C485 C 0.28712 0.48994 0.28046 0.0
N486 N 0.27597 0.53019 0.2539 0.0
N487 N 0.25419 0.51366 0.25173 0.0
C488 C 0.32356 0.52959 0.28227 0.0
H489 H 0.3202 0.55102 0.29243 0.0
H490 H 0.33686 0.53061 0.25682 0.0
H491 H 0.33429 0.51778 0.30481 0.0
C492 C 0.29227 0.5722 0.11894 0.0
N493 N 0.28674 0.58068 0.15421 0.0
N494 N 0.28817 0.55933 0.17729 0.0
C495 C 0.29562 0.53668 0.15733 0.0
C496 C 0.29874 0.54428 0.11986 0.0
C497 C 0.28699 0.58911 0.08422 0.0
H498 H 0.27047 0.6046 0.08932 0.0
H499 H 0.30641 0.59975 0.07592 0.0
H500 H 0.28042 0.57578 0.06036 0.0
O501 O 0.23734 0.61385 0.18713 0.0
O502 O 0.23806 0.57976 0.22942 0.0
H503 H 0.27869 0.50028 0.18282 0.0
H504 H 0.30814 0.49369 0.15266 0.0
C505 C 0.29914 0.50825 0.17353 0.0
H506 H 0.31303 0.50925 0.19834 0.0
H507 H 0.23571 0.51887 0.23816 0.0
O508 O 0.28123 0.64336 0.13197 0.0
C509 C 0.22508 0.59824 0.21069 0.0
Co510 Co 0.37594 0.27865 0.18398 0.0
Co511 Co 0.42734 0.27707 0.23792 0.0
C512 C 0.37684 0.31242 0.25344 0.0
O513 O 0.36385 0.3032 0.22484 0.0
O514 O 0.40148 0.30459 0.26114 0.0
C515 C 0.32909 0.29483 0.13556 0.0
O516 O 0.32297 0.31399 0.1605 0.0
C517 C 0.47874 0.29956 0.27027 0.0
C518 C 0.49706 0.26213 0.29618 0.0
C519 C 0.50203 0.29007 0.28968 0.0
N520 N 0.46126 0.27813 0.26541 0.0
N521 N 0.47212 0.25595 0.28151 0.0
C522 C 0.4737 0.32779 0.25406 0.0
H523 H 0.45625 0.32729 0.23368 0.0
H524 H 0.49267 0.33566 0.24 0.0
H525 H 0.46816 0.34228 0.27712 0.0
C526 C 0.41815 0.29641 0.13016 0.0
N527 N 0.41071 0.29002 0.16555 0.0
N528 N 0.43305 0.2863 0.18625 0.0
C529 C 0.45555 0.28881 0.16388 0.0
C530 C 0.44675 0.29582 0.12783 0.0
C531 C 0.3982 0.29889 0.09798 0.0
H532 H 0.38924 0.27818 0.09188 0.0
H533 H 0.38118 0.31323 0.1058 0.0
H534 H 0.40829 0.30674 0.07206 0.0
O535 O 0.37867 0.24 0.20023 0.0
O536 O 0.41319 0.2385 0.24156 0.0
H537 H 0.4844 0.26594 0.19817 0.0
H538 H 0.49691 0.2743 0.15139 0.0
C539 C 0.48455 0.28187 0.17563 0.0
H540 H 0.49474 0.30084 0.18653 0.0
H541 H 0.46289 0.23637 0.28147 0.0
O542 O 0.34927 0.27853 0.14168 0.0
C543 C 0.39407 0.22661 0.22291 0.0
H544 H 0.22652 0.932 0.21172 0.0
H545 H 0.08156 0.85218 0.2118 0.0
H546 H 0.14786 0.97338 0.19705 0.0
H547 H 0.15978 0.81674 0.24609 0.0
H548 H 0.10613 0.89425 0.1915 0.0
H549 H 0.20291 0.88753 0.20876 0.0
C550 C 0.20425 0.93181 0.20764 0.0
C551 C 0.18905 0.9566 0.20618 0.0
C552 C 0.1179 0.87702 0.20283 0.0
C553 C 0.16177 0.90549 0.20297 0.0
C554 C 0.10395 0.85298 0.21415 0.0
C555 C 0.11868 0.83117 0.23107 0.0
C556 C 0.14671 0.87899 0.20823 0.0
C557 C 0.14761 0.83326 0.23366 0.0
C558 C 0.19077 0.90632 0.20606 0.0
C559 C 0.16029 0.9549 0.20025 0.0
N560 N 0.16062 0.85684 0.22271 0.0
N561 N 0.14749 0.92975 0.1994 0.0
H562 H 0.14148 0.08578 0.21048 0.0
H563 H 0.06189 0.23071 0.20201 0.0
H564 H 0.17525 0.16422 0.24686 0.0
H565 H 0.02131 0.15182 0.18577 0.0
H566 H 0.10653 0.20722 0.20192 0.0
H567 H 0.10064 0.11028 0.18591 0.0
C568 C 0.1406 0.10819 0.21247 0.0
C569 C 0.16153 0.123 0.2312 0.0
C570 C 0.08788 0.19501 0.19816 0.0
C571 C 0.11509 0.15098 0.2034 0.0
C572 C 0.06232 0.20843 0.19805 0.0
C573 C 0.03768 0.19309 0.19547 0.0
C574 C 0.08889 0.16598 0.19564 0.0
C575 C 0.03966 0.16433 0.18977 0.0
C576 C 0.11725 0.12211 0.19867 0.0
C577 C 0.15937 0.15197 0.23313 0.0
N578 N 0.06484 0.1516 0.19066 0.0
N579 N 0.13645 0.16496 0.21977 0.0
H580 H 0.84426 0.01982 0.18815 0.0
H581 H 0.83238 0.17772 0.24667 0.0
H582 H 0.76694 0.06235 0.20836 0.0
H583 H 0.90944 0.14091 0.21066 0.0
H584 H 0.80761 0.137 0.22413 0.0
H585 H 0.86821 0.06458 0.18834 0.0
C586 C 0.83231 0.03849 0.1927 0.0
C587 C 0.80371 0.03722 0.1998 0.0
C588 C 0.82988 0.13789 0.22052 0.0
C589 C 0.83082 0.08849 0.19904 0.0
C590 C 0.84402 0.16117 0.2334 0.0
C591 C 0.87297 0.16247 0.23087 0.0
C592 C 0.84485 0.11539 0.20576 0.0
C593 C 0.88707 0.14062 0.21316 0.0
C594 C 0.84595 0.06409 0.19231 0.0
C595 C 0.78909 0.06224 0.20344 0.0
N596 N 0.8729 0.11764 0.20193 0.0
N597 N 0.80286 0.08676 0.20363 0.0
H598 H 0.81336 0.82993 0.24321 0.0
H599 H 0.97165 0.84131 0.18645 0.0
H600 H 0.85137 0.90702 0.20943 0.0
H601 H 0.92904 0.7642 0.20793 0.0
H602 H 0.92693 0.86528 0.18572 0.0
H603 H 0.85388 0.80494 0.22049 0.0
C604 C 0.8301 0.84154 0.23035 0.0
C605 C 0.82923 0.87057 0.22861 0.0
C606 C 0.92738 0.84306 0.19017 0.0
C607 C 0.87607 0.84218 0.20334 0.0
C608 C 0.95295 0.82941 0.19108 0.0
C609 C 0.95417 0.80089 0.1988 0.0
C610 C 0.90295 0.828 0.19701 0.0
C611 C 0.92916 0.7863 0.20254 0.0
C612 C 0.85328 0.82728 0.21739 0.0
C613 C 0.85133 0.88461 0.21138 0.0
N614 N 0.90464 0.80008 0.20223 0.0
N615 N 0.87418 0.8703 0.20008 0.0
H616 H 0.088 0.14681 0.79259 0.0
H617 H 0.22781 0.0586 0.79861 0.0
H618 H 0.16795 0.17609 0.7552 0.0
H619 H 0.14669 0.02288 0.81542 0.0
H620 H 0.20712 0.10462 0.79917 0.0
H621 H 0.11022 0.10459 0.81666 0.0
C622 C 0.1103 0.14468 0.7903 0.0
C623 C 0.12614 0.16476 0.77139 0.0
C624 C 0.19382 0.08673 0.80295 0.0
C625 C 0.15153 0.11665 0.79858 0.0
C626 C 0.20563 0.06039 0.80278 0.0
C627 C 0.18882 0.0367 0.80543 0.0
C628 C 0.16494 0.08952 0.80585 0.0
C629 C 0.16028 0.04043 0.81138 0.0
C630 C 0.12292 0.12052 0.80381 0.0
C631 C 0.15491 0.16093 0.76909 0.0
N632 N 0.14914 0.06636 0.81081 0.0
N633 N 0.16663 0.13722 0.78214 0.0
H634 H 0.85963 0.0838 0.78926 0.0
H635 H 0.93665 0.23003 0.79154 0.0
H636 H 0.82197 0.16216 0.76037 0.0
H637 H 0.97936 0.15189 0.80448 0.0
H638 H 0.89262 0.20581 0.79617 0.0
H639 H 0.90128 0.10873 0.81033 0.0
C640 C 0.85984 0.10627 0.78839 0.0
C641 C 0.83758 0.121 0.77261 0.0
C642 C 0.91162 0.1939 0.79812 0.0
C643 C 0.88491 0.14945 0.79621 0.0
C644 C 0.93686 0.20775 0.79556 0.0
C645 C 0.96187 0.19287 0.79592 0.0
C646 C 0.91124 0.16488 0.80103 0.0
C647 C 0.96068 0.16409 0.80194 0.0
C648 C 0.88364 0.12045 0.80012 0.0
C649 C 0.83889 0.15003 0.77188 0.0
N650 N 0.93575 0.15093 0.80365 0.0
N651 N 0.86226 0.16327 0.78308 0.0
H652 H 0.82481 0.81245 0.75346 0.0
H653 H 0.8443 0.96979 0.81167 0.0
H654 H 0.90339 0.84598 0.7896 0.0
H655 H 0.7652 0.93163 0.78827 0.0
H656 H 0.86573 0.92378 0.81234 0.0
H657 H 0.80184 0.85431 0.77569 0.0
C658 C 0.83716 0.82847 0.76676 0.0
C659 C 0.86605 0.82595 0.76929 0.0
C660 C 0.84363 0.9255 0.80746 0.0
C661 C 0.84 0.87432 0.794 0.0
C662 C 0.83144 0.95181 0.80658 0.0
C663 C 0.80311 0.95466 0.79841 0.0
C664 C 0.8273 0.90196 0.80013 0.0
C665 C 0.78722 0.93049 0.79405 0.0
C666 C 0.82405 0.85243 0.77942 0.0
C667 C 0.88104 0.8472 0.78704 0.0
N668 N 0.79959 0.90524 0.79437 0.0
N669 N 0.8679 0.87081 0.79805 0.0
H670 H 0.05557 0.76032 0.79514 0.0
H671 H 0.13231 0.90682 0.79441 0.0
H672 H 0.01294 0.83816 0.81113 0.0
H673 H 0.16844 0.82954 0.75788 0.0
H674 H 0.09146 0.8812 0.81683 0.0
H675 H 0.09965 0.78464 0.79863 0.0
C676 C 0.05541 0.78254 0.79969 0.0
C677 C 0.0304 0.79736 0.80118 0.0
C678 C 0.10861 0.86986 0.8046 0.0
C679 C 0.08102 0.82543 0.80495 0.0
C680 C 0.13196 0.88442 0.79207 0.0
C681 C 0.15351 0.87024 0.77383 0.0
C682 C 0.10712 0.84102 0.79907 0.0
C683 C 0.15205 0.84127 0.7713 0.0
C684 C 0.08066 0.79644 0.80156 0.0
C685 C 0.03163 0.82606 0.8078 0.0
N686 N 0.12913 0.82766 0.7834 0.0
N687 N 0.05655 0.83927 0.80882 0.0
H688 H 0.67989 0.45213 0.65781 0.0
H689 H 0.64872 0.33191 0.79238 0.0
H690 H 0.65957 0.46754 0.77422 0.0
H691 H 0.58895 0.33788 0.70189 0.0
H692 H 0.66688 0.37711 0.77482 0.0
H693 H 0.65776 0.40601 0.66311 0.0
C694 C 0.67021 0.44609 0.68409 0.0
C695 C 0.67112 0.4638 0.71547 0.0
C696 C 0.65003 0.36825 0.75857 0.0
C697 C 0.64696 0.4115 0.72181 0.0
C698 C 0.63963 0.34243 0.76841 0.0
C699 C 0.61693 0.33115 0.74891 0.0
C700 C 0.6381 0.38283 0.72865 0.0
C701 C 0.60632 0.3459 0.71785 0.0
C702 C 0.65766 0.41997 0.687 0.0
C703 C 0.65877 0.45493 0.7491 0.0
N704 N 0.61694 0.37125 0.70867 0.0
N705 N 0.64766 0.4292 0.75157 0.0
H706 H 0.56219 0.7396 0.71398 0.0
H707 H 0.64362 0.59586 0.70546 0.0
H708 H 0.5248 0.66288 0.67741 0.0
H709 H 0.67578 0.67131 0.75425 0.0
H710 H 0.60361 0.62195 0.68179 0.0
H711 H 0.60728 0.7169 0.71472 0.0
C712 C 0.56347 0.71801 0.70572 0.0
C713 C 0.53949 0.70282 0.69705 0.0
C714 C 0.61968 0.63284 0.69714 0.0
C715 C 0.59114 0.67659 0.69815 0.0
C716 C 0.64258 0.618 0.7105 0.0
C717 C 0.66281 0.63137 0.73239 0.0
C718 C 0.61717 0.66119 0.70563 0.0
C719 C 0.66043 0.66007 0.73804 0.0
C720 C 0.58925 0.70501 0.70631 0.0
C721 C 0.54253 0.67503 0.68603 0.0
N722 N 0.63787 0.67394 0.72512 0.0
N723 N 0.56785 0.66264 0.68747 0.0
H724 H 0.35632 0.5087 0.69429 0.0
H725 H 0.41854 0.63904 0.70025 0.0
H726 H 0.27869 0.55323 0.69645 0.0
H727 H 0.33627 0.66728 0.72845 0.0
H728 H 0.39897 0.59448 0.68052 0.0
H729 H 0.38091 0.55265 0.69076 0.0
C730 C 0.34439 0.52766 0.69412 0.0
C731 C 0.31537 0.52719 0.69738 0.0
C732 C 0.38513 0.61037 0.69087 0.0
C733 C 0.3434 0.5779 0.69126 0.0
C734 C 0.3963 0.63601 0.70157 0.0
C735 C 0.37902 0.65663 0.71662 0.0
C736 C 0.35652 0.60555 0.69538 0.0
C737 C 0.35039 0.65174 0.71766 0.0
C738 C 0.35851 0.55293 0.69126 0.0
C739 C 0.30108 0.55247 0.69471 0.0
N740 N 0.34013 0.62666 0.7076 0.0
N741 N 0.31523 0.5767 0.69242 0.0
H742 H 0.35371 0.39785 0.70413 0.0
H743 H 0.43411 0.25339 0.70259 0.0
H744 H 0.32077 0.32047 0.7459 0.0
H745 H 0.47401 0.33231 0.68387 0.0
H746 H 0.38917 0.27642 0.70078 0.0
H747 H 0.39421 0.37279 0.67995 0.0
C748 C 0.35468 0.37552 0.70742 0.0
C749 C 0.33413 0.36123 0.72759 0.0
C750 C 0.40774 0.28871 0.69675 0.0
C751 C 0.38021 0.33262 0.7002 0.0
C752 C 0.43344 0.27556 0.69761 0.0
C753 C 0.45792 0.29114 0.69487 0.0
C754 C 0.40648 0.31766 0.69304 0.0
C755 C 0.45572 0.31971 0.68789 0.0
C756 C 0.37784 0.36129 0.6938 0.0
C757 C 0.3364 0.33235 0.73107 0.0
N758 N 0.43042 0.33218 0.68782 0.0
N759 N 0.35917 0.31905 0.71789 0.0
H760 H 0.5872 0.64318 0.28344 0.0
H761 H 0.72978 0.5593 0.29072 0.0
H762 H 0.66667 0.67532 0.24857 0.0
H763 H 0.64992 0.52096 0.30807 0.0
H764 H 0.70752 0.60455 0.29037 0.0
H765 H 0.61042 0.60118 0.30668 0.0
C766 C 0.60957 0.64167 0.28146 0.0
C767 C 0.62503 0.66253 0.26358 0.0
C768 C 0.69482 0.58626 0.2944 0.0
C769 C 0.65156 0.61476 0.28987 0.0
C770 C 0.70754 0.56035 0.29476 0.0
C771 C 0.69157 0.53613 0.2979 0.0
C772 C 0.66585 0.58809 0.29723 0.0
C773 C 0.6629 0.53893 0.30366 0.0
C774 C 0.62276 0.61766 0.29451 0.0
C775 C 0.65392 0.65953 0.26164 0.0
N776 N 0.65086 0.56445 0.30257 0.0
N777 N 0.66619 0.636 0.27427 0.0
H778 H 0.47633 0.65453 0.3002 0.0
H779 H 0.31694 0.6712 0.25118 0.0
H780 H 0.43583 0.73304 0.28046 0.0
H781 H 0.35356 0.59289 0.28271 0.0
H782 H 0.35887 0.69487 0.27189 0.0
H783 H 0.43089 0.63206 0.3027 0.0
C784 C 0.45796 0.66703 0.29623 0.0
C785 C 0.45994 0.69553 0.28861 0.0
C786 C 0.35765 0.67255 0.27499 0.0
C787 C 0.4079 0.67014 0.2925 0.0
C788 C 0.33365 0.65905 0.26323 0.0
C789 C 0.33195 0.63005 0.26485 0.0
C790 C 0.38038 0.6569 0.28771 0.0
C791 C 0.35408 0.6153 0.28094 0.0
C792 C 0.43198 0.65426 0.29819 0.0
C793 C 0.43534 0.71093 0.28576 0.0
N794 N 0.37768 0.62885 0.29104 0.0
N795 N 0.4104 0.69799 0.28712 0.0
H796 H 0.34254 0.47841 0.26861 0.0
H797 H 0.32194 0.32192 0.26637 0.0
H798 H 0.26766 0.44369 0.31577 0.0
H799 H 0.40329 0.35598 0.28681 0.0
H800 H 0.30133 0.36557 0.28754 0.0
H801 H 0.36573 0.43438 0.27823 0.0
C802 C 0.33122 0.46207 0.28263 0.0
C803 C 0.30315 0.46518 0.2923 0.0
C804 C 0.32366 0.36323 0.28838 0.0
C805 C 0.32936 0.41383 0.30093 0.0
C806 C 0.33541 0.33838 0.27623 0.0
C807 C 0.36432 0.33553 0.27454 0.0
C808 C 0.34099 0.38559 0.2977 0.0
C809 C 0.38089 0.35741 0.28767 0.0
C810 C 0.34449 0.43665 0.28764 0.0
C811 C 0.28932 0.44228 0.30801 0.0
N812 N 0.369 0.38186 0.29776 0.0
N813 N 0.30238 0.41739 0.31113 0.0
H814 H 0.55289 0.26604 0.29144 0.0
H815 H 0.63563 0.4094 0.28876 0.0
H816 H 0.51308 0.34569 0.30409 0.0
H817 H 0.66979 0.32995 0.25765 0.0
H818 H 0.59292 0.38597 0.30907 0.0
H819 H 0.5978 0.28878 0.29429 0.0
C820 C 0.55352 0.28834 0.29502 0.0
C821 C 0.52903 0.30406 0.29597 0.0
C822 C 0.61 0.37368 0.29845 0.0
C823 C 0.58067 0.33035 0.29907 0.0
C824 C 0.63441 0.38699 0.28715 0.0
C825 C 0.65605 0.37156 0.2711 0.0
C826 C 0.60751 0.34482 0.29389 0.0
C827 C 0.65341 0.34263 0.2694 0.0
C828 C 0.57925 0.30134 0.29654 0.0
C829 C 0.5313 0.33284 0.30127 0.0
N830 N 0.6295 0.33025 0.28029 0.0
N831 N 0.5567 0.34515 0.30209 0.0
H832 H 0.23579 0.14168 0.43099 0.0
H833 H 0.14914 0.23727 0.57145 0.0
H834 H 0.17131 0.19803 0.39519 0.0
H835 H 0.19968 0.16816 0.60731 0.0
H836 H 0.165 0.23021 0.507 0.0
H837 H 0.23047 0.15838 0.49534 0.0
C838 C 0.22071 0.15782 0.43653 0.0
C839 C 0.2036 0.16814 0.40769 0.0
C840 C 0.17286 0.2168 0.52903 0.0
C841 C 0.19749 0.18734 0.48147 0.0
C842 C 0.16387 0.22082 0.56591 0.0
C843 C 0.17272 0.20294 0.59479 0.0
C844 C 0.19092 0.19481 0.52091 0.0
C845 C 0.19208 0.18224 0.58591 0.0
C846 C 0.21769 0.16731 0.47335 0.0
C847 C 0.18472 0.18928 0.41657 0.0
N848 N 0.20031 0.17855 0.54965 0.0
N849 N 0.18198 0.19799 0.45278 0.0
H850 H 0.80238 0.17097 0.39382 0.0
H851 H 0.83727 0.19244 0.6112 0.0
H852 H 0.86311 0.22952 0.43467 0.0
H853 H 0.76963 0.14177 0.57092 0.0
H854 H 0.84432 0.20952 0.54709 0.0
H855 H 0.78722 0.16315 0.45864 0.0
C856 C 0.81231 0.18241 0.41633 0.0
C857 C 0.83432 0.20061 0.40881 0.0
C858 C 0.82773 0.1949 0.55237 0.0
C859 C 0.81726 0.1916 0.48308 0.0
C860 C 0.82368 0.18516 0.589 0.0
C861 C 0.80308 0.16536 0.59639 0.0
C862 C 0.81118 0.18461 0.5229 0.0
C863 C 0.786 0.15679 0.56651 0.0
C864 C 0.80367 0.17793 0.45337 0.0
C865 C 0.84631 0.215 0.43913 0.0
N866 N 0.79064 0.16621 0.53104 0.0
N867 N 0.83786 0.20994 0.47493 0.0
H868 H 0.84911 0.75819 0.5665 0.0
H869 H 0.75952 0.85523 0.43054 0.0
H870 H 0.79731 0.82529 0.60569 0.0
H871 H 0.82388 0.8 0.39158 0.0
H872 H 0.76644 0.83803 0.49445 0.0
H873 H 0.83322 0.76692 0.50236 0.0
C874 C 0.83413 0.77457 0.56174 0.0
C875 C 0.82483 0.79133 0.59153 0.0
C876 C 0.77886 0.82948 0.47187 0.0
C877 C 0.80658 0.80138 0.518 0.0
C878 C 0.77491 0.83925 0.4353 0.0
C879 C 0.79144 0.82933 0.40566 0.0
C880 C 0.79942 0.80955 0.47894 0.0
C881 C 0.81085 0.80843 0.41358 0.0
C882 C 0.82512 0.77955 0.52504 0.0
C883 C 0.80523 0.81203 0.58359 0.0
N884 N 0.81447 0.7994 0.44954 0.0
N885 N 0.79694 0.81664 0.54752 0.0
H886 H 0.13664 0.75885 0.43038 0.0
H887 H 0.22027 0.8587 0.56922 0.0
H888 H 0.18582 0.82856 0.39329 0.0
H889 H 0.15901 0.79947 0.60668 0.0
H890 H 0.2145 0.84198 0.50498 0.0
H891 H 0.15153 0.76758 0.49497 0.0
C892 C 0.15086 0.77579 0.4357 0.0
C893 C 0.15967 0.79329 0.40638 0.0
C894 C 0.20249 0.83247 0.52727 0.0
C895 C 0.17674 0.80335 0.48038 0.0
C896 C 0.20575 0.84199 0.56404 0.0
C897 C 0.18978 0.83073 0.59338 0.0
C898 C 0.18315 0.81148 0.51967 0.0
C899 C 0.17157 0.80892 0.58491 0.0
C900 C 0.15928 0.78078 0.47265 0.0
C901 C 0.17829 0.81471 0.41501 0.0
N902 N 0.16857 0.80015 0.54874 0.0
N903 N 0.18601 0.8193 0.45129 0.0
H904 H 0.68033 0.70468 0.89088 0.0
H905 H 0.70209 0.67041 0.10809 0.0
H906 H 0.73769 0.64286 0.93196 0.0
H907 H 0.65101 0.73761 0.06727 0.0
H908 H 0.71991 0.66384 0.04431 0.0
H909 H 0.67388 0.72099 0.9554 0.0
C910 C 0.69187 0.69478 0.91336 0.0
C911 C 0.70918 0.67204 0.90604 0.0
C912 C 0.70507 0.68026 0.04941 0.0
C913 C 0.70168 0.6904 0.98003 0.0
C914 C 0.6949 0.68404 0.08586 0.0
C915 C 0.67468 0.70428 0.09295 0.0
C916 C 0.69478 0.69671 0.01981 0.0
C917 C 0.66629 0.72146 0.06305 0.0
C918 C 0.68815 0.70408 0.95025 0.0
C919 C 0.72377 0.66017 0.93631 0.0
N920 N 0.67609 0.71703 0.02774 0.0
N921 N 0.71939 0.66923 0.972 0.0
H922 H 0.35801 0.63778 0.89639 0.0
H923 H 0.27173 0.67765 0.07519 0.0
H924 H 0.31947 0.71863 0.89848 0.0
H925 H 0.35391 0.64251 0.08299 0.0
H926 H 0.28011 0.68741 0.00804 0.0
H927 H 0.34595 0.63164 0.96262 0.0
C928 C 0.34647 0.654 0.91049 0.0
C929 C 0.33988 0.67885 0.89199 0.0
C930 C 0.29629 0.67789 0.02482 0.0
C931 C 0.32609 0.67184 0.96758 0.0
C932 C 0.29163 0.67242 0.06298 0.0
C933 C 0.31217 0.65925 0.08466 0.0
C934 C 0.32125 0.66933 0.00833 0.0
C935 C 0.33753 0.65278 0.06746 0.0
C936 C 0.33989 0.65057 0.94834 0.0
C937 C 0.32504 0.69923 0.91186 0.0
N938 N 0.34116 0.65741 0.03013 0.0
N939 N 0.31859 0.69529 0.94878 0.0
H940 H 0.32129 0.28943 0.89587 0.0
H941 H 0.28957 0.3305 0.10779 0.0
H942 H 0.25787 0.34818 0.92748 0.0
H943 H 0.33966 0.25991 0.07665 0.0
H944 H 0.27462 0.3348 0.04222 0.0
H945 H 0.32543 0.27555 0.96188 0.0
C946 C 0.30796 0.29913 0.91655 0.0
C947 C 0.28957 0.32035 0.90617 0.0
C948 C 0.28859 0.31813 0.04986 0.0
C949 C 0.2944 0.30481 0.98182 0.0
C950 C 0.29712 0.31567 0.08733 0.0
C951 C 0.31626 0.29512 0.09767 0.0
C952 C 0.29951 0.30009 0.02252 0.0
C953 C 0.3252 0.27636 0.06992 0.0
C954 C 0.31034 0.29122 0.95428 0.0
C955 C 0.27268 0.33205 0.93422 0.0
N956 N 0.31708 0.27955 0.03356 0.0
N957 N 0.2758 0.32443 0.97079 0.0
H958 H 0.69297 0.30807 0.89856 0.0
H959 H 0.66022 0.29634 0.11849 0.0
H960 H 0.62736 0.25768 0.94509 0.0
H961 H 0.72535 0.34746 0.07214 0.0
H962 H 0.65192 0.27714 0.05584 0.0
H963 H 0.70915 0.3179 0.96244 0.0
C964 C 0.68216 0.2988 0.92215 0.0
C965 C 0.65854 0.28235 0.91647 0.0
C966 C 0.66822 0.29236 0.05945 0.0
C967 C 0.67682 0.29365 0.98962 0.0
C968 C 0.673 0.3033 0.09526 0.0
C969 C 0.69326 0.3238 0.10051 0.0
C970 C 0.68375 0.30207 0.02866 0.0
C971 C 0.70929 0.33191 0.06936 0.0
C972 C 0.69138 0.30447 0.95864 0.0
C973 C 0.64543 0.2708 0.94812 0.0
N974 N 0.70399 0.32123 0.03473 0.0
N975 N 0.65458 0.27689 0.98331 0.0
H976 H 0.29894 0.07904 0.21748 0.0
H977 H 0.3732 0.19087 0.17131 0.0
H978 H 0.30513 0.11493 0.32845 0.0
H979 H 0.40224 0.19488 0.28607 0.0
H980 H 0.35397 0.14534 0.18354 0.0
H981 H 0.3427 0.10155 0.20053 0.0
C982 C 0.30979 0.09122 0.23846 0.0
C983 C 0.29789 0.09624 0.2738 0.0
C984 C 0.36543 0.15544 0.20584 0.0
C985 C 0.3471 0.12269 0.2544 0.0
C986 C 0.3761 0.18174 0.19894 0.0
C987 C 0.38851 0.19689 0.2281 0.0
C988 C 0.36671 0.14447 0.24247 0.0
C989 C 0.39232 0.18399 0.26306 0.0
C990 C 0.3346 0.10431 0.22869 0.0
C991 C 0.31309 0.11151 0.30032 0.0
N992 N 0.38067 0.15878 0.26964 0.0
N993 N 0.33664 0.1247 0.28982 0.0
H994 H 0.79538 0.40444 0.29014 0.0
H995 H 0.9078 0.29913 0.21191 0.0
H996 H 0.80259 0.37787 0.17456 0.0
H997 H 0.8839 0.3067 0.32852 0.0
H998 H 0.88268 0.34214 0.19811 0.0
H999 H 0.84043 0.38293 0.30357 0.0
C1000 C 0.80676 0.39469 0.26744 0.0
C1001 C 0.795 0.39209 0.23152 0.0
C1002 C 0.88358 0.33473 0.2269 0.0
C1003 C 0.84621 0.36776 0.24648 0.0
C1004 C 0.89796 0.31027 0.23477 0.0
C1005 C 0.89708 0.29901 0.27113 0.0
C1006 C 0.86843 0.34782 0.25566 0.0
C1007 C 0.88431 0.31435 0.29985 0.0
C1008 C 0.83241 0.38244 0.27507 0.0
C1009 C 0.81065 0.37956 0.20294 0.0
N1010 N 0.87002 0.33774 0.29138 0.0
N1011 N 0.83528 0.36746 0.21116 0.0
H1012 H 0.694 0.91347 0.21311 0.0
H1013 H 0.58761 0.80034 0.28369 0.0
H1014 H 0.68524 0.88551 0.32795 0.0
H1015 H 0.61637 0.8105 0.16949 0.0
H1016 H 0.60742 0.84576 0.29938 0.0
H1017 H 0.64988 0.891 0.19769 0.0
C1018 C 0.68238 0.90334 0.23531 0.0
C1019 C 0.69363 0.90034 0.27146 0.0
C1020 C 0.60868 0.83833 0.27065 0.0
C1021 C 0.64358 0.87474 0.25414 0.0
C1022 C 0.59744 0.81246 0.26174 0.0
C1023 C 0.60135 0.80141 0.22566 0.0
C1024 C 0.62368 0.853 0.24317 0.0
C1025 C 0.61382 0.818 0.19802 0.0
C1026 C 0.65726 0.89052 0.22651 0.0
C1027 C 0.67762 0.88741 0.29936 0.0
N1028 N 0.62499 0.84281 0.20751 0.0
N1029 N 0.65363 0.87454 0.28994 0.0
H1030 H 0.10687 0.68335 0.32483 0.0
H1031 H 0.18672 0.61728 0.16097 0.0
H1032 H 0.08417 0.69535 0.20845 0.0
H1033 H 0.19622 0.59064 0.27623 0.0
H1034 H 0.14128 0.63612 0.17628 0.0
H1035 H 0.1304 0.64047 0.30784 0.0
C1036 C 0.10636 0.67656 0.29576 0.0
C1037 C 0.09444 0.69324 0.26774 0.0
C1038 C 0.15291 0.62559 0.19813 0.0
C1039 C 0.12183 0.64463 0.24792 0.0
C1040 C 0.17893 0.61495 0.18941 0.0
C1041 C 0.19549 0.60327 0.21773 0.0
C1042 C 0.14383 0.62525 0.23568 0.0
C1043 C 0.18424 0.60004 0.25381 0.0
C1044 C 0.11971 0.65201 0.28605 0.0
C1045 C 0.09366 0.68327 0.23073 0.0
N1046 N 0.15935 0.61173 0.26206 0.0
N1047 N 0.10796 0.65995 0.22165 0.0
H1048 H 0.39758 0.79757 0.69844 0.0
H1049 H 0.29205 0.90681 0.78423 0.0
H1050 H 0.37589 0.80471 0.81585 0.0
H1051 H 0.29453 0.8816 0.66771 0.0
H1052 H 0.33662 0.88354 0.7944 0.0
H1053 H 0.37388 0.8418 0.68628 0.0
C1054 C 0.38848 0.80884 0.72175 0.0
C1055 C 0.38783 0.79728 0.75792 0.0
C1056 C 0.3277 0.88375 0.76639 0.0
C1057 C 0.36109 0.84746 0.74447 0.0
C1058 C 0.30234 0.89704 0.7606 0.0
C1059 C 0.28929 0.89524 0.72543 0.0
C1060 C 0.33988 0.86876 0.73675 0.0
C1061 C 0.30358 0.88266 0.69559 0.0
C1062 C 0.37498 0.83398 0.71485 0.0
C1063 C 0.37606 0.81267 0.78732 0.0
N1064 N 0.32792 0.86942 0.70207 0.0
N1065 N 0.36276 0.8368 0.77986 0.0
H1066 H 0.19753 0.41342 0.71353 0.0
H1067 H 0.11396 0.30882 0.66619 0.0
H1068 H 0.19096 0.37542 0.82323 0.0
H1069 H 0.0885 0.30336 0.78231 0.0
H1070 H 0.13583 0.35301 0.6791 0.0
H1071 H 0.1518 0.39479 0.69749 0.0
C1072 C 0.18627 0.40153 0.73441 0.0
C1073 C 0.19849 0.39479 0.76907 0.0
C1074 C 0.12458 0.34298 0.70164 0.0
C1075 C 0.14689 0.37278 0.75067 0.0
C1076 C 0.11232 0.31745 0.69428 0.0
C1077 C 0.10026 0.30214 0.72356 0.0
C1078 C 0.12528 0.35292 0.73881 0.0
C1079 C 0.09811 0.31438 0.75916 0.0
C1080 C 0.16028 0.39067 0.72515 0.0
C1081 C 0.18273 0.38007 0.79555 0.0
N1082 N 0.11134 0.33873 0.76612 0.0
N1083 N 0.15798 0.36906 0.78552 0.0
H1084 H 0.61038 0.17859 0.82957 0.0
H1085 H 0.69398 0.11094 0.66887 0.0
H1086 H 0.59143 0.19158 0.71212 0.0
H1087 H 0.69979 0.0841 0.78453 0.0
H1088 H 0.64908 0.13175 0.68232 0.0
H1089 H 0.63477 0.13606 0.81327 0.0
C1090 C 0.61098 0.17216 0.80034 0.0
C1091 C 0.59973 0.18895 0.77194 0.0
C1092 C 0.65978 0.12079 0.70464 0.0
C1093 C 0.62798 0.14064 0.75299 0.0
C1094 C 0.68549 0.10903 0.697 0.0
C1095 C 0.70088 0.09663 0.72599 0.0
C1096 C 0.64982 0.12079 0.74176 0.0
C1097 C 0.68874 0.094 0.76161 0.0
C1098 C 0.62478 0.14779 0.79105 0.0
C1099 C 0.60036 0.17941 0.73473 0.0
N1100 N 0.66417 0.1067 0.7688 0.0
N1101 N 0.615 0.15619 0.72615 0.0
H1102 H 0.80865 0.60261 0.82681 0.0
H1103 H 0.87944 0.68194 0.66616 0.0
H1104 H 0.79437 0.58471 0.70945 0.0
H1105 H 0.90521 0.68799 0.7822 0.0
H1106 H 0.85858 0.63702 0.67949 0.0
H1107 H 0.8533 0.62296 0.81069 0.0
C1108 C 0.81532 0.60238 0.79767 0.0
C1109 C 0.79758 0.59288 0.7692 0.0
C1110 C 0.86935 0.64775 0.70194 0.0
C1111 C 0.84816 0.61681 0.75037 0.0
C1112 C 0.88114 0.67349 0.69435 0.0
C1113 C 0.89313 0.68901 0.72349 0.0
C1114 C 0.86884 0.63794 0.73917 0.0
C1115 C 0.89556 0.67687 0.75918 0.0
C1116 C 0.84085 0.61395 0.78844 0.0
C1117 C 0.80732 0.59237 0.73209 0.0
N1118 N 0.88275 0.65233 0.76632 0.0
N1119 N 0.83168 0.60504 0.72354 0.0
H1120 H 0.14962 0.02417 0.41397 0.0
H1121 H 0.23469 0.98292 0.59932 0.0
H1122 H 0.23844 0.01561 0.41743 0.0
H1123 H 0.1456 0.97957 0.59268 0.0
H1124 H 0.23629 -0.00063 0.53409 0.0
H1125 H 0.14721 0.00919 0.47991 0.0
C1126 C 0.16848 0.01817 0.42845 0.0
C1127 C 0.19419 0.02041 0.41048 0.0
C1128 C 0.21633 0.9955 0.54702 0.0
C1129 C 0.19189 0.00469 0.48585 0.0
C1130 C 0.21545 0.98665 0.58437 0.0
C1131 C 0.18997 0.98044 0.60115 0.0
C1132 C 0.19153 -0.00209 0.52647 0.0
C1133 C 0.16557 0.98468 0.58059 0.0
C1134 C 0.1672 0.01009 0.46611 0.0
C1135 C 0.21823 0.01346 0.43039 0.0
N1136 N 0.16693 0.99298 0.5441 0.0
N1137 N 0.21654 0.00609 0.46722 0.0
H1138 H 0.98879 0.24422 0.40316 0.0
H1139 H 0.02968 0.15416 0.58428 0.0
H1140 H 0.98189 0.15521 0.40676 0.0
H1141 H 0.02159 0.2431 0.58501 0.0
H1142 H 0.01457 0.15351 0.51829 0.0
H1143 H 0.00628 0.24385 0.46796 0.0
C1144 C 0.99196 0.22455 0.41732 0.0
C1145 C 0.98443 0.19968 0.39985 0.0
C1146 C 0.01563 0.17314 0.53303 0.0
C1147 C 0.0031 0.19904 0.47401 0.0
C1148 C 0.0238 0.17342 0.5707 0.0
C1149 C 0.02615 0.19865 0.58988 0.0
C1150 C 0.01028 0.19835 0.5145 0.0
C1151 C 0.01935 0.22323 0.57111 0.0
C1152 C 0.00141 0.22433 0.45442 0.0
C1153 C 0.98801 0.17471 0.41939 0.0
N1154 N 0.01188 0.22252 0.53426 0.0
N1155 N -0.00308 0.17501 0.45567 0.0
H1156 H 0.75336 0.98459 0.40748 0.0
H1157 H 0.84577 0.01762 0.58916 0.0
H1158 H 0.84171 0.972 0.41084 0.0
H1159 H 0.75653 0.01548 0.58989 0.0
H1160 H 0.84541 0.00235 0.52328 0.0
H1161 H 0.75472 0.00055 0.47295 0.0
C1162 C 0.77315 0.98616 0.42179 0.0
C1163 C 0.79753 0.97755 0.40402 0.0
C1164 C 0.8259 0.0047 0.53801 0.0
C1165 C 0.79924 0.99447 0.47887 0.0
C1166 C 0.82617 0.01295 0.57563 0.0
C1167 C 0.80117 0.0171 0.59473 0.0
C1168 C 0.8004 0.00113 0.51947 0.0
C1169 C 0.77619 0.01183 0.57603 0.0
C1170 C 0.77391 0.99473 0.45925 0.0
C1171 C 0.82262 0.97903 0.42373 0.0
N1172 N 0.7764 0.00433 0.53921 0.0
N1173 N 0.82284 0.98716 0.46032 0.0
H1174 H 0.97835 0.74758 0.59179 0.0
H1175 H 0.01452 0.83704 0.40858 0.0
H1176 H 0.96774 0.83618 0.58652 0.0
H1177 H 0.00993 0.74786 0.40965 0.0
H1178 H -0.00132 0.83787 0.47419 0.0
H1179 H 0.99448 0.74783 0.52639 0.0
C1180 C 0.98039 0.76717 0.57708 0.0
C1181 C 0.97229 0.79195 0.5943 0.0
C1182 C 0.00059 0.81813 0.45989 0.0
C1183 C 0.98939 0.79241 0.51949 0.0
C1184 C 0.00915 0.81773 0.4224 0.0
C1185 C 0.01281 0.79239 0.4039 0.0
C1186 C 0.99622 0.79294 0.47892 0.0
C1187 C 0.00668 0.76778 0.42302 0.0
C1188 C 0.98905 0.76731 0.53965 0.0
C1189 C 0.97437 0.81678 0.57407 0.0
N1190 N -0.0011 0.76863 0.45972 0.0
N1191 N 0.98258 0.8164 0.53751 0.0
H1192 H 0.6512 0.52453 0.91408 0.0
H1193 H 0.74209 0.48216 0.09391 0.0
H1194 H 0.74043 0.52179 0.91417 0.0
H1195 H 0.65375 0.46992 0.08784 0.0
H1196 H 0.74139 0.50117 0.02984 0.0
H1197 H 0.65106 0.50653 0.97876 0.0
C1198 C 0.67069 0.51932 0.92755 0.0
C1199 C 0.69583 0.5239 0.90899 0.0
C1200 C 0.72208 0.49468 0.04266 0.0
C1201 C 0.69604 0.50463 0.98288 0.0
C1202 C 0.72246 0.48429 0.0793 0.0
C1203 C 0.69788 0.47502 0.09592 0.0
C1204 C 0.6969 0.49562 0.02269 0.0
C1205 C 0.67301 0.47736 0.07585 0.0
C1206 C 0.67068 0.50943 0.96447 0.0
C1207 C 0.72067 0.51785 0.92761 0.0
N1208 N 0.67313 0.48734 0.04009 0.0
N1209 N 0.72019 0.50865 0.96374 0.0
H1210 H 0.4908 0.74741 0.89196 0.0
H1211 H 0.50434 0.67008 0.09117 0.0
H1212 H 0.4584 0.66567 0.91364 0.0
H1213 H 0.54337 0.74823 0.06572 0.0
H1214 H 0.4849 0.66913 0.02716 0.0
H1215 H 0.5102 0.74835 0.95575 0.0
C1216 C 0.48854 0.72936 0.9099 0.0
C1217 C 0.47353 0.70624 0.89767 0.0
C1218 C 0.49751 0.68662 0.03568 0.0
C1219 C 0.49442 0.7075 0.97081 0.0
C1220 C 0.50824 0.68726 0.07222 0.0
C1221 C 0.52526 0.70926 0.08327 0.0
C1222 C 0.50398 0.70817 0.01039 0.0
C1223 C 0.5302 0.73096 0.05791 0.0
C1224 C 0.49919 0.73002 0.94643 0.0
C1225 C 0.47023 0.68369 0.92218 0.0
N1226 N 0.51974 0.72981 0.02251 0.0
N1227 N 0.48045 0.68493 0.95775 0.0
H1228 H 0.26954 0.4983 0.09983 0.0
H1229 H 0.33622 0.49028 0.89335 0.0
H1230 H 0.33619 0.55158 0.06372 0.0
H1231 H 0.2625 0.44665 0.92783 0.0
H1232 H 0.33881 0.51162 0.95628 0.0
H1233 H 0.27039 0.47543 0.03842 0.0
C1234 C 0.28483 0.50463 0.0792 0.0
C1235 C 0.30289 0.52665 0.08657 0.0
C1236 C 0.322 0.49747 0.94994 0.0
C1237 C 0.30343 0.50147 0.01606 0.0
C1238 C 0.32042 0.48561 0.91408 0.0
C1239 C 0.29924 0.46674 0.9059 0.0
C1240 C 0.30226 0.49019 0.97741 0.0
C1241 C 0.27927 0.46101 0.93343 0.0
C1242 C 0.28507 0.49192 0.04399 0.0
C1243 C 0.32196 0.53458 0.0588 0.0
N1244 N 0.28136 0.47254 0.96805 0.0
N1245 N 0.32161 0.52213 0.02453 0.0
H1246 H 0.50163 0.32671 0.90101 0.0
H1247 H 0.46759 0.24967 0.09514 0.0
H1248 H 0.50506 0.23814 0.91567 0.0
H1249 H 0.45793 0.33769 0.0791 0.0
H1250 H 0.48242 0.24523 0.0295 0.0
H1251 H 0.48345 0.33135 0.96516 0.0
C1252 C 0.49742 0.3082 0.91738 0.0
C1253 C 0.50416 0.282 0.90322 0.0
C1254 C 0.47741 0.2656 0.04037 0.0
C1255 C 0.48496 0.28704 0.97676 0.0
C1256 C 0.46946 0.26814 0.07792 0.0
C1257 C 0.46214 0.29413 0.0923 0.0
C1258 C 0.47782 0.28923 0.01716 0.0
C1259 C 0.46397 0.31741 0.06888 0.0
C1260 C 0.48756 0.31083 0.95411 0.0
C1261 C 0.49945 0.25861 0.92563 0.0
N1262 N 0.47153 0.31442 0.03228 0.0
N1263 N 0.49039 0.26168 0.96155 0.0
loop_
_geom_bond_atom_site_label_1
_geom_bond_atom_site_label_2
_geom_bond_distance
_geom_bond_site_symmetry_2
_ccdc_geom_bond_type
Co0 O3 1.970 . S
Co0 N17 1.989 . S
Co0 O25 1.967 . S
Co0 O32 1.920 . S
Co1 O4 1.966 . S
Co1 N10 2.022 . S
Co1 N18 1.993 . S
Co1 O26 1.941 . S
C2 O3 1.258 . S
C2 O4 1.263 . S
O3 Co0 1.970 . S
O3 C2 1.258 . S
O4 Co1 1.966 . S
O4 C2 1.263 . S
C5 O6 1.235 . S
C5 O32 1.289 . S
O6 C5 1.235 . S
C7 C9 1.400 1_545 S
C7 N10 1.351 . S
C7 C12 1.501 . S
C8 C9 1.387 . S
C8 N11 1.341 1_565 S
C9 C7 1.400 1_565 S
C9 C8 1.387 . S
N10 Co1 2.022 . S
N10 C7 1.351 . S
N10 N11 1.365 . S
N11 C8 1.341 1_545 S
N11 N10 1.365 . S
N11 H31 0.862 . S
C12 C7 1.501 . S
C12 H13 0.961 . S
C12 H14 0.961 . S
C12 H15 0.960 . S
H13 C12 0.961 . S
H14 C12 0.961 . S
H15 C12 0.960 . S
C16 N17 1.342 . S
C16 C20 1.401 . S
C16 C21 1.499 . S
N17 Co0 1.989 . S
N17 C16 1.342 . S
N17 N18 1.388 . S
N18 Co1 1.993 . S
N18 N17 1.388 . S
N18 C19 1.346 . S
C19 N18 1.346 . S
C19 C20 1.396 . S
C19 C29 1.510 . S
C20 C16 1.401 . S
C20 C19 1.396 . S
C21 C16 1.499 . S
C21 H22 0.959 . S
C21 H23 0.960 . S
C21 H24 0.961 . S
H22 C21 0.959 . S
H23 C21 0.960 . S
H24 C21 0.961 . S
O25 Co0 1.967 . S
O25 C33 1.258 . S
O26 Co1 1.941 . S
O26 C33 1.266 . S
H27 C29 0.959 . S
H28 C29 0.972 . S
C29 C19 1.510 . S
C29 H27 0.959 . S
C29 H28 0.972 . S
C29 H30 0.960 . S
H30 C29 0.960 . S
H31 N11 0.862 . S
O32 Co0 1.920 . S
O32 C5 1.289 . S
C33 O25 1.258 . S
C33 O26 1.266 . S
Co34 O37 1.970 . S
Co34 N51 1.989 . S
Co34 O59 1.967 . S
Co34 O66 1.920 . S
Co35 O38 1.966 . S
Co35 N44 2.022 . S
Co35 N52 1.993 . S
Co35 O60 1.941 . S
C36 O37 1.258 . S
C36 O38 1.263 . S
O37 Co34 1.970 . S
O37 C36 1.258 . S
O38 Co35 1.966 . S
O38 C36 1.263 . S
C39 O40 1.235 . S
C39 O66 1.289 . S
O40 C39 1.235 . S
C41 C43 1.400 1_655 S
C41 N44 1.351 . S
C41 C46 1.501 . S
C42 C43 1.387 . S
C42 N45 1.341 1_455 S
C43 C41 1.400 1_455 S
C43 C42 1.387 . S
N44 Co35 2.022 . S
N44 C41 1.351 . S
N44 N45 1.365 . S
N45 C42 1.341 1_655 S
N45 N44 1.365 . S
N45 H65 0.862 . S
C46 C41 1.501 . S
C46 H47 0.961 . S
C46 H48 0.961 . S
C46 H49 0.960 . S
H47 C46 0.961 . S
H48 C46 0.961 . S
H49 C46 0.960 . S
C50 N51 1.342 . S
C50 C54 1.401 . S
C50 C55 1.499 . S
N51 Co34 1.989 . S
N51 C50 1.342 . S
N51 N52 1.388 . S
N52 Co35 1.993 . S
N52 N51 1.388 . S
N52 C53 1.346 . S
C53 N52 1.346 . S
C53 C54 1.396 . S
C53 C63 1.510 . S
C54 C50 1.401 . S
C54 C53 1.396 . S
C55 C50 1.499 . S
C55 H56 0.959 . S
C55 H57 0.960 . S
C55 H58 0.961 . S
H56 C55 0.959 . S
H57 C55 0.960 . S
H58 C55 0.961 . S
O59 Co34 1.967 . S
O59 C67 1.258 . S
O60 Co35 1.941 . S
O60 C67 1.266 . S
H61 C63 0.959 . S
H62 C63 0.972 . S
C63 C53 1.510 . S
C63 H61 0.959 . S
C63 H62 0.972 . S
C63 H64 0.960 . S
H64 C63 0.960 . S
H65 N45 0.862 . S
O66 Co34 1.920 . S
O66 C39 1.289 . S
C67 O59 1.258 . S
C67 O60 1.266 . S
Co68 O71 1.970 . S
Co68 N85 1.989 . S
Co68 O93 1.967 . S
Co68 O100 1.920 . S
Co69 O72 1.966 . S
Co69 N78 2.022 . S
Co69 N86 1.993 . S
Co69 O94 1.941 . S
C70 O71 1.258 . S
C70 O72 1.263 . S
O71 Co68 1.970 . S
O71 C70 1.258 . S
O72 Co69 1.966 . S
O72 C70 1.263 . S
C73 O74 1.235 . S
C73 O100 1.289 . S
O74 C73 1.235 . S
C75 C77 1.400 1_565 S
C75 N78 1.351 . S
C75 C80 1.501 . S
C76 C77 1.387 . S
C76 N79 1.341 1_545 S
C77 C75 1.400 1_545 S
C77 C76 1.387 . S
N78 Co69 2.022 . S
N78 C75 1.351 . S
N78 N79 1.365 . S
N79 C76 1.341 1_565 S
N79 N78 1.365 . S
N79 H99 0.862 . S
C80 C75 1.501 . S
C80 H81 0.961 . S
C80 H82 0.961 . S
C80 H83 0.960 . S
H81 C80 0.961 . S
H82 C80 0.961 . S
H83 C80 0.960 . S
C84 N85 1.342 . S
C84 C88 1.401 . S
C84 C89 1.499 . S
N85 Co68 1.989 . S
N85 C84 1.342 . S
N85 N86 1.388 . S
N86 Co69 1.993 . S
N86 N85 1.388 . S
N86 C87 1.346 . S
C87 N86 1.346 . S
C87 C88 1.396 . S
C87 C97 1.510 . S
C88 C84 1.401 . S
C88 C87 1.396 . S
C89 C84 1.499 . S
C89 H90 0.959 . S
C89 H91 0.960 . S
C89 H92 0.961 . S
H90 C89 0.959 . S
H91 C89 0.960 . S
H92 C89 0.961 . S
O93 Co68 1.967 . S
O93 C101 1.258 . S
O94 Co69 1.941 . S
O94 C101 1.266 . S
H95 C97 0.959 . S
H96 C97 0.972 . S
C97 C87 1.510 . S
C97 H95 0.959 . S
C97 H96 0.972 . S
C97 H98 0.960 . S
H98 C97 0.960 . S
H99 N79 0.862 . S
O100 Co68 1.920 . S
O100 C73 1.289 . S
C101 O93 1.258 . S
C101 O94 1.266 . S
Co102 O105 1.970 . S
Co102 N119 1.989 . S
Co102 O127 1.967 . S
Co102 O134 1.920 . S
Co103 O106 1.966 . S
Co103 N112 2.022 . S
Co103 N120 1.993 . S
Co103 O128 1.941 . S
C104 O105 1.258 . S
C104 O106 1.263 . S
O105 Co102 1.970 . S
O105 C104 1.258 . S
O106 Co103 1.966 . S
O106 C104 1.263 . S
C107 O108 1.235 . S
C107 O134 1.289 . S
O108 C107 1.235 . S
C109 C111 1.400 1_455 S
C109 N112 1.351 . S
C109 C114 1.501 . S
C110 C111 1.387 . S
C110 N113 1.341 1_655 S
C111 C109 1.400 1_655 S
C111 C110 1.387 . S
N112 Co103 2.022 . S
N112 C109 1.351 . S
N112 N113 1.365 . S
N113 C110 1.341 1_455 S
N113 N112 1.365 . S
N113 H133 0.862 . S
C114 C109 1.501 . S
C114 H115 0.961 . S
C114 H116 0.961 . S
C114 H117 0.960 . S
H115 C114 0.961 . S
H116 C114 0.961 . S
H117 C114 0.960 . S
C118 N119 1.342 . S
C118 C122 1.401 . S
C118 C123 1.499 . S
N119 Co102 1.989 . S
N119 C118 1.342 . S
N119 N120 1.388 . S
N120 Co103 1.993 . S
N120 N119 1.388 . S
N120 C121 1.346 . S
C121 N120 1.346 . S
C121 C122 1.396 . S
C121 C131 1.510 . S
C122 C118 1.401 . S
C122 C121 1.396 . S
C123 C118 1.499 . S
C123 H124 0.959 . S
C123 H125 0.960 . S
C123 H126 0.961 . S
H124 C123 0.959 . S
H125 C123 0.960 . S
H126 C123 0.961 . S
O127 Co102 1.967 . S
O127 C135 1.258 . S
O128 Co103 1.941 . S
O128 C135 1.266 . S
H129 C131 0.959 . S
H130 C131 0.972 . S
C131 C121 1.510 . S
C131 H129 0.959 . S
C131 H130 0.972 . S
C131 H132 0.960 . S
H132 C131 0.960 . S
H133 N113 0.862 . S
O134 Co102 1.920 . S
O134 C107 1.289 . S
C135 O127 1.258 . S
C135 O128 1.266 . S
Co136 O139 1.970 . S
Co136 N153 1.989 . S
Co136 O161 1.967 . S
Co136 O168 1.920 . S
Co137 O140 1.966 . S
Co137 N146 2.022 . S
Co137 N154 1.993 . S
Co137 O162 1.941 . S
C138 O139 1.258 . S
C138 O140 1.263 . S
O139 Co136 1.970 . S
O139 C138 1.258 . S
O140 Co137 1.966 . S
O140 C138 1.263 . S
C141 O142 1.235 . S
C141 O168 1.289 . S
O142 C141 1.235 . S
C143 C145 1.400 1_565 S
C143 N146 1.351 . S
C143 C148 1.501 . S
C144 C145 1.387 . S
C144 N147 1.341 1_545 S
C145 C143 1.400 1_545 S
C145 C144 1.387 . S
N146 Co137 2.022 . S
N146 C143 1.351 . S
N146 N147 1.365 . S
N147 C144 1.341 1_565 S
N147 N146 1.365 . S
N147 H167 0.862 . S
C148 C143 1.501 . S
C148 H149 0.961 . S
C148 H150 0.961 . S
C148 H151 0.960 . S
H149 C148 0.961 . S
H150 C148 0.961 . S
H151 C148 0.960 . S
C152 N153 1.342 . S
C152 C156 1.401 . S
C152 C157 1.499 . S
N153 Co136 1.989 . S
N153 C152 1.342 . S
N153 N154 1.388 . S
N154 Co137 1.993 . S
N154 N153 1.388 . S
N154 C155 1.346 . S
C155 N154 1.346 . S
C155 C156 1.396 . S
C155 C165 1.510 . S
C156 C152 1.401 . S
C156 C155 1.396 . S
C157 C152 1.499 . S
C157 H158 0.959 . S
C157 H159 0.960 . S
C157 H160 0.961 . S
H158 C157 0.959 . S
H159 C157 0.960 . S
H160 C157 0.961 . S
O161 Co136 1.967 . S
O161 C169 1.258 . S
O162 Co137 1.941 . S
O162 C169 1.266 . S
H163 C165 0.959 . S
H164 C165 0.972 . S
C165 C155 1.510 . S
C165 H163 0.959 . S
C165 H164 0.972 . S
C165 H166 0.960 . S
H166 C165 0.960 . S
H167 N147 0.862 . S
O168 Co136 1.920 . S
O168 C141 1.289 . S
C169 O161 1.258 . S
C169 O162 1.266 . S
Co170 O173 1.970 . S
Co170 N187 1.989 . S
Co170 O195 1.967 . S
Co170 O202 1.920 . S
Co171 O174 1.966 . S
Co171 N180 2.022 . S
Co171 N188 1.993 . S
Co171 O196 1.941 . S
C172 O173 1.258 . S
C172 O174 1.263 . S
O173 Co170 1.970 . S
O173 C172 1.258 . S
O174 Co171 1.966 . S
O174 C172 1.263 . S
C175 O176 1.235 . S
C175 O202 1.289 . S
O176 C175 1.235 . S
C177 C179 1.400 1_455 S
C177 N180 1.351 . S
C177 C182 1.501 . S
C178 C179 1.387 . S
C178 N181 1.341 1_655 S
C179 C177 1.400 1_655 S
C179 C178 1.387 . S
N180 Co171 2.022 . S
N180 C177 1.351 . S
N180 N181 1.365 . S
N181 C178 1.341 1_455 S
N181 N180 1.365 . S
N181 H201 0.862 . S
C182 C177 1.501 . S
C182 H183 0.961 . S
C182 H184 0.961 . S
C182 H185 0.960 . S
H183 C182 0.961 . S
H184 C182 0.961 . S
H185 C182 0.960 . S
C186 N187 1.342 . S
C186 C190 1.401 . S
C186 C191 1.499 . S
N187 Co170 1.989 . S
N187 C186 1.342 . S
N187 N188 1.388 . S
N188 Co171 1.993 . S
N188 N187 1.388 . S
N188 C189 1.346 . S
C189 N188 1.346 . S
C189 C190 1.396 . S
C189 C199 1.510 . S
C190 C186 1.401 . S
C190 C189 1.396 . S
C191 C186 1.499 . S
C191 H192 0.959 . S
C191 H193 0.960 . S
C191 H194 0.961 . S
H192 C191 0.959 . S
H193 C191 0.960 . S
H194 C191 0.961 . S
O195 Co170 1.967 . S
O195 C203 1.258 . S
O196 Co171 1.941 . S
O196 C203 1.266 . S
H197 C199 0.959 . S
H198 C199 0.972 . S
C199 C189 1.510 . S
C199 H197 0.959 . S
C199 H198 0.972 . S
C199 H200 0.960 . S
H200 C199 0.960 . S
H201 N181 0.862 . S
O202 Co170 1.920 . S
O202 C175 1.289 . S
C203 O195 1.258 . S
C203 O196 1.266 . S
Co204 O207 1.970 . S
Co204 N221 1.989 . S
Co204 O229 1.967 . S
Co204 O236 1.920 . S
Co205 O208 1.966 . S
Co205 N214 2.022 . S
Co205 N222 1.993 . S
Co205 O230 1.941 . S
C206 O207 1.258 . S
C206 O208 1.263 . S
O207 Co204 1.970 . S
O207 C206 1.258 . S
O208 Co205 1.966 . S
O208 C206 1.263 . S
C209 O210 1.235 . S
C209 O236 1.289 . S
O210 C209 1.235 . S
C211 C213 1.400 1_545 S
C211 N214 1.351 . S
C211 C216 1.501 . S
C212 C213 1.387 . S
C212 N215 1.341 1_565 S
C213 C211 1.400 1_565 S
C213 C212 1.387 . S
N214 Co205 2.022 . S
N214 C211 1.351 . S
N214 N215 1.365 . S
N215 C212 1.341 1_545 S
N215 N214 1.365 . S
N215 H235 0.862 . S
C216 C211 1.501 . S
C216 H217 0.961 . S
C216 H218 0.961 . S
C216 H219 0.960 . S
H217 C216 0.961 . S
H218 C216 0.961 . S
H219 C216 0.960 . S
C220 N221 1.342 . S
C220 C224 1.401 . S
C220 C225 1.499 . S
N221 Co204 1.989 . S
N221 C220 1.342 . S
N221 N222 1.388 . S
N222 Co205 1.993 . S
N222 N221 1.388 . S
N222 C223 1.346 . S
C223 N222 1.346 . S
C223 C224 1.396 . S
C223 C233 1.510 . S
C224 C220 1.401 . S
C224 C223 1.396 . S
C225 C220 1.499 . S
C225 H226 0.959 . S
C225 H227 0.960 . S
C225 H228 0.961 . S
H226 C225 0.959 . S
H227 C225 0.960 . S
H228 C225 0.961 . S
O229 Co204 1.967 . S
O229 C237 1.258 . S
O230 Co205 1.941 . S
O230 C237 1.266 . S
H231 C233 0.959 . S
H232 C233 0.972 . S
C233 C223 1.510 . S
C233 H231 0.959 . S
C233 H232 0.972 . S
C233 H234 0.960 . S
H234 C233 0.960 . S
H235 N215 0.862 . S
O236 Co204 1.920 . S
O236 C209 1.289 . S
C237 O229 1.258 . S
C237 O230 1.266 . S
Co238 O241 1.970 . S
Co238 N255 1.989 . S
Co238 O263 1.967 . S
Co238 O270 1.920 . S
Co239 O242 1.966 . S
Co239 N248 2.022 . S
Co239 N256 1.993 . S
Co239 O264 1.941 . S
C240 O241 1.258 . S
C240 O242 1.263 . S
O241 Co238 1.970 . S
O241 C240 1.258 . S
O242 Co239 1.966 . S
O242 C240 1.263 . S
C243 O244 1.235 . S
C243 O270 1.289 . S
O244 C243 1.235 . S
C245 C247 1.400 1_655 S
C245 N248 1.351 . S
C245 C250 1.501 . S
C246 C247 1.387 . S
C246 N249 1.341 1_455 S
C247 C245 1.400 1_455 S
C247 C246 1.387 . S
N248 Co239 2.022 . S
N248 C245 1.351 . S
N248 N249 1.365 . S
N249 C246 1.341 1_655 S
N249 N248 1.365 . S
N249 H269 0.862 . S
C250 C245 1.501 . S
C250 H251 0.961 . S
C250 H252 0.961 . S
C250 H253 0.960 . S
H251 C250 0.961 . S
H252 C250 0.961 . S
H253 C250 0.960 . S
C254 N255 1.342 . S
C254 C258 1.401 . S
C254 C259 1.499 . S
N255 Co238 1.989 . S
N255 C254 1.342 . S
N255 N256 1.388 . S
N256 Co239 1.993 . S
N256 N255 1.388 . S
N256 C257 1.346 . S
C257 N256 1.346 . S
C257 C258 1.396 . S
C257 C267 1.510 . S
C258 C254 1.401 . S
C258 C257 1.396 . S
C259 C254 1.499 . S
C259 H260 0.959 . S
C259 H261 0.960 . S
C259 H262 0.961 . S
H260 C259 0.959 . S
H261 C259 0.960 . S
H262 C259 0.961 . S
O263 Co238 1.967 . S
O263 C271 1.258 . S
O264 Co239 1.941 . S
O264 C271 1.266 . S
H265 C267 0.959 . S
H266 C267 0.972 . S
C267 C257 1.510 . S
C267 H265 0.959 . S
C267 H266 0.972 . S
C267 H268 0.960 . S
H268 C267 0.960 . S
H269 N249 0.862 . S
O270 Co238 1.920 . S
O270 C243 1.289 . S
C271 O263 1.258 . S
C271 O264 1.266 . S
Co272 O275 1.970 . S
Co272 N289 1.989 . S
Co272 O297 1.967 . S
Co272 O304 1.920 . S
Co273 O276 1.966 . S
Co273 N282 2.022 . S
Co273 N290 1.993 . S
Co273 O298 1.941 . S
C274 O275 1.258 . S
C274 O276 1.263 . S
O275 Co272 1.970 . S
O275 C274 1.258 . S
O276 Co273 1.966 . S
O276 C274 1.263 . S
C277 O278 1.235 . S
C277 O304 1.289 . S
O278 C277 1.235 . S
C279 C281 1.400 . S
C279 N282 1.351 . S
C279 C284 1.501 . S
C280 C281 1.387 . S
C280 N283 1.341 . S
C281 C279 1.400 . S
C281 C280 1.387 . S
N282 Co273 2.022 . S
N282 C279 1.351 . S
N282 N283 1.365 . S
N283 C280 1.341 . S
N283 N282 1.365 . S
N283 H303 0.862 . S
C284 C279 1.501 . S
C284 H285 0.961 . S
C284 H286 0.961 . S
C284 H287 0.960 . S
H285 C284 0.961 . S
H286 C284 0.961 . S
H287 C284 0.960 . S
C288 N289 1.342 . S
C288 C292 1.401 . S
C288 C293 1.499 . S
N289 Co272 1.989 . S
N289 C288 1.342 . S
N289 N290 1.388 . S
N290 Co273 1.993 . S
N290 N289 1.388 . S
N290 C291 1.346 . S
C291 N290 1.346 . S
C291 C292 1.396 . S
C291 C301 1.510 . S
C292 C288 1.401 . S
C292 C291 1.396 . S
C293 C288 1.499 . S
C293 H294 0.959 . S
C293 H295 0.960 . S
C293 H296 0.961 . S
H294 C293 0.959 . S
H295 C293 0.960 . S
H296 C293 0.961 . S
O297 Co272 1.967 . S
O297 C305 1.258 . S
O298 Co273 1.941 . S
O298 C305 1.266 . S
H299 C301 0.959 . S
H300 C301 0.961 . S
C301 C291 1.510 . S
C301 H299 0.959 . S
C301 H300 0.961 . S
C301 H302 0.960 . S
H302 C301 0.960 . S
H303 N283 0.862 . S
O304 Co272 1.920 . S
O304 C277 1.289 . S
C305 O297 1.258 . S
C305 O298 1.266 . S
Co306 O309 1.970 . S
Co306 N323 1.989 . S
Co306 O331 1.967 . S
Co306 O338 1.920 . S
Co307 O310 1.966 . S
Co307 N316 2.022 . S
Co307 N324 1.993 . S
Co307 O332 1.941 . S
C308 O309 1.258 . S
C308 O310 1.263 . S
O309 Co306 1.970 . S
O309 C308 1.258 . S
O310 Co307 1.966 . S
O310 C308 1.263 . S
C311 O312 1.235 . S
C311 O338 1.289 . S
O312 C311 1.235 . S
C313 C315 1.400 . S
C313 N316 1.351 . S
C313 C318 1.501 . S
C314 C315 1.387 . S
C314 N317 1.341 . S
C315 C313 1.400 . S
C315 C314 1.387 . S
N316 Co307 2.022 . S
N316 C313 1.351 . S
N316 N317 1.365 . S
N317 C314 1.341 . S
N317 N316 1.365 . S
N317 H337 0.862 . S
C318 C313 1.501 . S
C318 H319 0.961 . S
C318 H320 0.961 . S
C318 H321 0.960 . S
H319 C318 0.961 . S
H320 C318 0.961 . S
H321 C318 0.960 . S
C322 N323 1.342 . S
C322 C326 1.401 . S
C322 C327 1.499 . S
N323 Co306 1.989 . S
N323 C322 1.342 . S
N323 N324 1.388 . S
N324 Co307 1.993 . S
N324 N323 1.388 . S
N324 C325 1.346 . S
C325 N324 1.346 . S
C325 C326 1.396 . S
C325 C335 1.510 . S
C326 C322 1.401 . S
C326 C325 1.396 . S
C327 C322 1.499 . S
C327 H328 0.959 . S
C327 H329 0.960 . S
C327 H330 0.961 . S
H328 C327 0.959 . S
H329 C327 0.960 . S
H330 C327 0.961 . S
O331 Co306 1.967 . S
O331 C339 1.258 . S
O332 Co307 1.941 . S
O332 C339 1.266 . S
H333 C335 0.959 . S
H334 C335 0.961 . S
C335 C325 1.510 . S
C335 H333 0.959 . S
C335 H334 0.961 . S
C335 H336 0.960 . S
H336 C335 0.960 . S
H337 N317 0.862 . S
O338 Co306 1.920 . S
O338 C311 1.289 . S
C339 O331 1.258 . S
C339 O332 1.266 . S
Co340 O343 1.970 . S
Co340 N357 1.989 . S
Co340 O365 1.967 . S
Co340 O372 1.920 . S
Co341 O344 1.966 . S
Co341 N350 2.022 . S
Co341 N358 1.993 . S
Co341 O366 1.941 . S
C342 O343 1.258 . S
C342 O344 1.263 . S
O343 Co340 1.970 . S
O343 C342 1.258 . S
O344 Co341 1.966 . S
O344 C342 1.263 . S
C345 O346 1.235 . S
C345 O372 1.289 . S
O346 C345 1.235 . S
C347 C349 1.400 . S
C347 N350 1.351 . S
C347 C352 1.501 . S
C348 C349 1.387 . S
C348 N351 1.341 . S
C349 C347 1.400 . S
C349 C348 1.387 . S
N350 Co341 2.022 . S
N350 C347 1.351 . S
N350 N351 1.365 . S
N351 C348 1.341 . S
N351 N350 1.365 . S
N351 H371 0.862 . S
C352 C347 1.501 . S
C352 H353 0.961 . S
C352 H354 0.961 . S
C352 H355 0.960 . S
H353 C352 0.961 . S
H354 C352 0.961 . S
H355 C352 0.960 . S
C356 N357 1.342 . S
C356 C360 1.401 . S
C356 C361 1.499 . S
N357 Co340 1.989 . S
N357 C356 1.342 . S
N357 N358 1.388 . S
N358 Co341 1.993 . S
N358 N357 1.388 . S
N358 C359 1.346 . S
C359 N358 1.346 . S
C359 C360 1.396 . S
C359 C369 1.510 . S
C360 C356 1.401 . S
C360 C359 1.396 . S
C361 C356 1.499 . S
C361 H362 0.959 . S
C361 H363 0.960 . S
C361 H364 0.961 . S
H362 C361 0.959 . S
H363 C361 0.960 . S
H364 C361 0.961 . S
O365 Co340 1.967 . S
O365 C373 1.258 . S
O366 Co341 1.941 . S
O366 C373 1.266 . S
H367 C369 0.959 . S
H368 C369 0.961 . S
C369 C359 1.510 . S
C369 H367 0.959 . S
C369 H368 0.961 . S
C369 H370 0.960 . S
H370 C369 0.960 . S
H371 N351 0.862 . S
O372 Co340 1.920 . S
O372 C345 1.289 . S
C373 O365 1.258 . S
C373 O366 1.266 . S
Co374 O377 1.970 . S
Co374 N391 1.989 . S
Co374 O399 1.967 . S
Co374 O406 1.920 . S
Co375 O378 1.966 . S
Co375 N384 2.022 . S
Co375 N392 1.993 . S
Co375 O400 1.941 . S
C376 O377 1.258 . S
C376 O378 1.263 . S
O377 Co374 1.970 . S
O377 C376 1.258 . S
O378 Co375 1.966 . S
O378 C376 1.263 . S
C379 O380 1.235 . S
C379 O406 1.289 . S
O380 C379 1.235 . S
C381 C383 1.400 . S
C381 N384 1.351 . S
C381 C386 1.501 . S
C382 C383 1.387 . S
C382 N385 1.341 . S
C383 C381 1.400 . S
C383 C382 1.387 . S
N384 Co375 2.022 . S
N384 C381 1.351 . S
N384 N385 1.365 . S
N385 C382 1.341 . S
N385 N384 1.365 . S
N385 H405 0.862 . S
C386 C381 1.501 . S
C386 H387 0.961 . S
C386 H388 0.961 . S
C386 H389 0.960 . S
H387 C386 0.961 . S
H388 C386 0.961 . S
H389 C386 0.960 . S
C390 N391 1.342 . S
C390 C394 1.401 . S
C390 C395 1.499 . S
N391 Co374 1.989 . S
N391 C390 1.342 . S
N391 N392 1.388 . S
N392 Co375 1.993 . S
N392 N391 1.388 . S
N392 C393 1.346 . S
C393 N392 1.346 . S
C393 C394 1.396 . S
C393 C403 1.510 . S
C394 C390 1.401 . S
C394 C393 1.396 . S
C395 C390 1.499 . S
C395 H396 0.959 . S
C395 H397 0.960 . S
C395 H398 0.961 . S
H396 C395 0.959 . S
H397 C395 0.960 . S
H398 C395 0.961 . S
O399 Co374 1.967 . S
O399 C407 1.258 . S
O400 Co375 1.941 . S
O400 C407 1.266 . S
H401 C403 0.959 . S
H402 C403 0.961 . S
C403 C393 1.510 . S
C403 H401 0.959 . S
C403 H402 0.961 . S
C403 H404 0.960 . S
H404 C403 0.960 . S
H405 N385 0.862 . S
O406 Co374 1.920 . S
O406 C379 1.289 . S
C407 O399 1.258 . S
C407 O400 1.266 . S
Co408 O411 1.970 . S
Co408 N425 1.989 . S
Co408 O433 1.967 . S
Co408 O440 1.920 . S
Co409 O412 1.966 . S
Co409 N418 2.022 . S
Co409 N426 1.993 . S
Co409 O434 1.941 . S
C410 O411 1.258 . S
C410 O412 1.263 . S
O411 Co408 1.970 . S
O411 C410 1.258 . S
O412 Co409 1.966 . S
O412 C410 1.263 . S
C413 O414 1.235 . S
C413 O440 1.289 . S
O414 C413 1.235 . S
C415 C417 1.400 . S
C415 N418 1.351 . S
C415 C420 1.501 . S
C416 C417 1.387 . S
C416 N419 1.341 . S
C417 C415 1.400 . S
C417 C416 1.387 . S
N418 Co409 2.022 . S
N418 C415 1.351 . S
N418 N419 1.365 . S
N419 C416 1.341 . S
N419 N418 1.365 . S
N419 H439 0.862 . S
C420 C415 1.501 . S
C420 H421 0.961 . S
C420 H422 0.961 . S
C420 H423 0.960 . S
H421 C420 0.961 . S
H422 C420 0.961 . S
H423 C420 0.960 . S
C424 N425 1.342 . S
C424 C428 1.401 . S
C424 C429 1.499 . S
N425 Co408 1.989 . S
N425 C424 1.342 . S
N425 N426 1.388 . S
N426 Co409 1.993 . S
N426 N425 1.388 . S
N426 C427 1.346 . S
C427 N426 1.346 . S
C427 C428 1.396 . S
C427 C437 1.510 . S
C428 C424 1.401 . S
C428 C427 1.396 . S
C429 C424 1.499 . S
C429 H430 0.959 . S
C429 H431 0.960 . S
C429 H432 0.961 . S
H430 C429 0.959 . S
H431 C429 0.960 . S
H432 C429 0.961 . S
O433 Co408 1.967 . S
O433 C441 1.258 . S
O434 Co409 1.941 . S
O434 C441 1.266 . S
H435 C437 0.959 . S
H436 C437 0.961 . S
C437 C427 1.510 . S
C437 H435 0.959 . S
C437 H436 0.961 . S
C437 H438 0.960 . S
H438 C437 0.960 . S
H439 N419 0.862 . S
O440 Co408 1.920 . S
O440 C413 1.289 . S
C441 O433 1.258 . S
C441 O434 1.266 . S
Co442 O445 1.970 . S
Co442 N459 1.989 . S
Co442 O467 1.967 . S
Co442 O474 1.920 . S
Co443 O446 1.966 . S
Co443 N452 2.022 . S
Co443 N460 1.993 . S
Co443 O468 1.941 . S
C444 O445 1.258 . S
C444 O446 1.263 . S
O445 Co442 1.970 . S
O445 C444 1.258 . S
O446 Co443 1.966 . S
O446 C444 1.263 . S
C447 O448 1.235 . S
C447 O474 1.289 . S
O448 C447 1.235 . S
C449 C451 1.400 . S
C449 N452 1.351 . S
C449 C454 1.501 . S
C450 C451 1.387 . S
C450 N453 1.341 . S
C451 C449 1.400 . S
C451 C450 1.387 . S
N452 Co443 2.022 . S
N452 C449 1.351 . S
N452 N453 1.365 . S
N453 C450 1.341 . S
N453 N452 1.365 . S
N453 H473 0.862 . S
C454 C449 1.501 . S
C454 H455 0.961 . S
C454 H456 0.961 . S
C454 H457 0.960 . S
H455 C454 0.961 . S
H456 C454 0.961 . S
H457 C454 0.960 . S
C458 N459 1.342 . S
C458 C462 1.401 . S
C458 C463 1.499 . S
N459 Co442 1.989 . S
N459 C458 1.342 . S
N459 N460 1.388 . S
N460 Co443 1.993 . S
N460 N459 1.388 . S
N460 C461 1.346 . S
C461 N460 1.346 . S
C461 C462 1.396 . S
C461 C471 1.510 . S
C462 C458 1.401 . S
C462 C461 1.396 . S
C463 C458 1.499 . S
C463 H464 0.959 . S
C463 H465 0.960 . S
C463 H466 0.961 . S
H464 C463 0.959 . S
H465 C463 0.960 . S
H466 C463 0.961 . S
O467 Co442 1.967 . S
O467 C475 1.258 . S
O468 Co443 1.941 . S
O468 C475 1.266 . S
H469 C471 0.959 . S
H470 C471 0.961 . S
C471 C461 1.510 . S
C471 H469 0.959 . S
C471 H470 0.961 . S
C471 H472 0.960 . S
H472 C471 0.960 . S
H473 N453 0.862 . S
O474 Co442 1.920 . S
O474 C447 1.289 . S
C475 O467 1.258 . S
C475 O468 1.266 . S
Co476 O479 1.970 . S
Co476 N493 1.989 . S
Co476 O501 1.967 . S
Co476 O508 1.920 . S
Co477 O480 1.966 . S
Co477 N486 2.022 . S
Co477 N494 1.993 . S
Co477 O502 1.941 . S
C478 O479 1.258 . S
C478 O480 1.263 . S
O479 Co476 1.970 . S
O479 C478 1.258 . S
O480 Co477 1.966 . S
O480 C478 1.263 . S
C481 O482 1.235 . S
C481 O508 1.289 . S
O482 C481 1.235 . S
C483 C485 1.400 . S
C483 N486 1.351 . S
C483 C488 1.501 . S
C484 C485 1.387 . S
C484 N487 1.341 . S
C485 C483 1.400 . S
C485 C484 1.387 . S
N486 Co477 2.022 . S
N486 C483 1.351 . S
N486 N487 1.365 . S
N487 C484 1.341 . S
N487 N486 1.365 . S
N487 H507 0.862 . S
C488 C483 1.501 . S
C488 H489 0.961 . S
C488 H490 0.961 . S
C488 H491 0.960 . S
H489 C488 0.961 . S
H490 C488 0.961 . S
H491 C488 0.960 . S
C492 N493 1.342 . S
C492 C496 1.401 . S
C492 C497 1.499 . S
N493 Co476 1.989 . S
N493 C492 1.342 . S
N493 N494 1.388 . S
N494 Co477 1.993 . S
N494 N493 1.388 . S
N494 C495 1.346 . S
C495 N494 1.346 . S
C495 C496 1.396 . S
C495 C505 1.510 . S
C496 C492 1.401 . S
C496 C495 1.396 . S
C497 C492 1.499 . S
C497 H498 0.959 . S
C497 H499 0.960 . S
C497 H500 0.961 . S
H498 C497 0.959 . S
H499 C497 0.960 . S
H500 C497 0.961 . S
O501 Co476 1.967 . S
O501 C509 1.258 . S
O502 Co477 1.941 . S
O502 C509 1.266 . S
H503 C505 0.959 . S
H504 C505 0.961 . S
C505 C495 1.510 . S
C505 H503 0.959 . S
C505 H504 0.961 . S
C505 H506 0.960 . S
H506 C505 0.960 . S
H507 N487 0.862 . S
O508 Co476 1.920 . S
O508 C481 1.289 . S
C509 O501 1.258 . S
C509 O502 1.266 . S
Co510 O513 1.970 . S
Co510 N527 1.989 . S
Co510 O535 1.967 . S
Co510 O542 1.920 . S
Co511 O514 1.966 . S
Co511 N520 2.022 . S
Co511 N528 1.993 . S
Co511 O536 1.941 . S
C512 O513 1.258 . S
C512 O514 1.263 . S
O513 Co510 1.970 . S
O513 C512 1.258 . S
O514 Co511 1.966 . S
O514 C512 1.263 . S
C515 O516 1.235 . S
C515 O542 1.289 . S
O516 C515 1.235 . S
C517 C519 1.400 . S
C517 N520 1.351 . S
C517 C522 1.501 . S
C518 C519 1.387 . S
C518 N521 1.341 . S
C519 C517 1.400 . S
C519 C518 1.387 . S
N520 Co511 2.022 . S
N520 C517 1.351 . S
N520 N521 1.365 . S
N521 C518 1.341 . S
N521 N520 1.365 . S
N521 H541 0.862 . S
C522 C517 1.501 . S
C522 H523 0.961 . S
C522 H524 0.961 . S
C522 H525 0.960 . S
H523 C522 0.961 . S
H524 C522 0.961 . S
H525 C522 0.960 . S
C526 N527 1.342 . S
C526 C530 1.401 . S
C526 C531 1.499 . S
N527 Co510 1.989 . S
N527 C526 1.342 . S
N527 N528 1.388 . S
N528 Co511 1.993 . S
N528 N527 1.388 . S
N528 C529 1.346 . S
C529 N528 1.346 . S
C529 C530 1.396 . S
C529 C539 1.510 . S
C530 C526 1.401 . S
C530 C529 1.396 . S
C531 C526 1.499 . S
C531 H532 0.959 . S
C531 H533 0.960 . S
C531 H534 0.961 . S
H532 C531 0.959 . S
H533 C531 0.960 . S
H534 C531 0.961 . S
O535 Co510 1.967 . S
O535 C543 1.258 . S
O536 Co511 1.941 . S
O536 C543 1.266 . S
H537 C539 0.959 . S
H538 C539 0.961 . S
C539 C529 1.510 . S
C539 H537 0.959 . S
C539 H538 0.961 . S
C539 H540 0.960 . S
H540 C539 0.960 . S
H541 N521 0.862 . S
O542 Co510 1.920 . S
O542 C515 1.289 . S
C543 O535 1.258 . S
C543 O536 1.266 . S
H544 C550 0.930 . S
H545 C554 0.930 . S
H546 C559 0.929 . S
H547 C557 0.929 . S
H548 C552 0.929 . S
H549 C558 0.929 . S
C550 H544 0.930 . S
C550 C551 1.367 . S
C550 C558 1.378 . S
C551 C550 1.367 . S
C551 C559 1.433 . S
C552 H548 0.929 . S
C552 C554 1.378 . S
C552 C556 1.350 . S
C553 C556 1.463 . S
C553 C558 1.350 . S
C553 N561 1.427 . S
C554 H545 0.930 . S
C554 C552 1.378 . S
C554 C555 1.367 . S
C555 C554 1.367 . S
C555 C557 1.433 . S
C556 C552 1.350 . S
C556 C553 1.463 . S
C556 N560 1.427 . S
C557 H547 0.929 . S
C557 C555 1.433 . S
C557 N560 1.384 . S
C558 H549 0.929 . S
C558 C550 1.378 . S
C558 C553 1.350 . S
C559 H546 0.929 . S
C559 C551 1.433 . S
C559 N561 1.384 . S
N560 C556 1.427 . S
N560 C557 1.384 . S
N561 C553 1.427 . S
N561 C559 1.384 . S
H562 C568 0.930 . S
H563 C572 0.930 . S
H564 C577 0.929 . S
H565 C575 0.929 . S
H566 C570 0.929 . S
H567 C576 0.929 . S
C568 H562 0.930 . S
C568 C569 1.367 . S
C568 C576 1.378 . S
C569 C568 1.367 . S
C569 C577 1.433 . S
C570 H566 0.929 . S
C570 C572 1.378 . S
C570 C574 1.350 . S
C571 C574 1.463 . S
C571 C576 1.350 . S
C571 N579 1.427 . S
C572 H563 0.930 . S
C572 C570 1.378 . S
C572 C573 1.367 . S
C573 C572 1.367 . S
C573 C575 1.433 . S
C574 C570 1.350 . S
C574 C571 1.463 . S
C574 N578 1.427 . S
C575 H565 0.929 . S
C575 C573 1.433 . S
C575 N578 1.384 . S
C576 H567 0.929 . S
C576 C568 1.378 . S
C576 C571 1.350 . S
C577 H564 0.929 . S
C577 C569 1.433 . S
C577 N579 1.384 . S
N578 C574 1.427 . S
N578 C575 1.384 . S
N579 C571 1.427 . S
N579 C577 1.384 . S
H580 C586 0.930 . S
H581 C590 0.930 . S
H582 C595 0.929 . S
H583 C593 0.929 . S
H584 C588 0.929 . S
H585 C594 0.929 . S
C586 H580 0.930 . S
C586 C587 1.367 . S
C586 C594 1.378 . S
C587 C586 1.367 . S
C587 C595 1.433 . S
C588 H584 0.929 . S
C588 C590 1.378 . S
C588 C592 1.350 . S
C589 C592 1.463 . S
C589 C594 1.350 . S
C589 N597 1.427 . S
C590 H581 0.930 . S
C590 C588 1.378 . S
C590 C591 1.367 . S
C591 C590 1.367 . S
C591 C593 1.433 . S
C592 C588 1.350 . S
C592 C589 1.463 . S
C592 N596 1.427 . S
C593 H583 0.929 . S
C593 C591 1.433 . S
C593 N596 1.384 . S
C594 H585 0.929 . S
C594 C586 1.378 . S
C594 C589 1.350 . S
C595 H582 0.929 . S
C595 C587 1.433 . S
C595 N597 1.384 . S
N596 C592 1.427 . S
N596 C593 1.384 . S
N597 C589 1.427 . S
N597 C595 1.384 . S
H598 C604 0.930 . S
H599 C608 0.930 . S
H600 C613 0.929 . S
H601 C611 0.929 . S
H602 C606 0.929 . S
H603 C612 0.929 . S
C604 H598 0.930 . S
C604 C605 1.367 . S
C604 C612 1.378 . S
C605 C604 1.367 . S
C605 C613 1.433 . S
C606 H602 0.929 . S
C606 C608 1.378 . S
C606 C610 1.350 . S
C607 C610 1.463 . S
C607 C612 1.350 . S
C607 N615 1.427 . S
C608 H599 0.930 . S
C608 C606 1.378 . S
C608 C609 1.367 . S
C609 C608 1.367 . S
C609 C611 1.433 . S
C610 C606 1.350 . S
C610 C607 1.463 . S
C610 N614 1.427 . S
C611 H601 0.929 . S
C611 C609 1.433 . S
C611 N614 1.384 . S
C612 H603 0.929 . S
C612 C604 1.378 . S
C612 C607 1.350 . S
C613 H600 0.929 . S
C613 C605 1.433 . S
C613 N615 1.384 . S
N614 C610 1.427 . S
N614 C611 1.384 . S
N615 C607 1.427 . S
N615 C613 1.384 . S
H616 C622 0.930 . S
H617 C626 0.930 . S
H618 C631 0.929 . S
H619 C629 0.929 . S
H620 C624 0.929 . S
H621 C630 0.929 . S
C622 H616 0.930 . S
C622 C623 1.367 . S
C622 C630 1.378 . S
C623 C622 1.367 . S
C623 C631 1.433 . S
C624 H620 0.929 . S
C624 C626 1.378 . S
C624 C628 1.350 . S
C625 C628 1.463 . S
C625 C630 1.350 . S
C625 N633 1.427 . S
C626 H617 0.930 . S
C626 C624 1.378 . S
C626 C627 1.367 . S
C627 C626 1.367 . S
C627 C629 1.433 . S
C628 C624 1.350 . S
C628 C625 1.463 . S
C628 N632 1.427 . S
C629 H619 0.929 . S
C629 C627 1.433 . S
C629 N632 1.384 . S
C630 H621 0.929 . S
C630 C622 1.378 . S
C630 C625 1.350 . S
C631 H618 0.929 . S
C631 C623 1.433 . S
C631 N633 1.384 . S
N632 C628 1.427 . S
N632 C629 1.384 . S
N633 C625 1.427 . S
N633 C631 1.384 . S
H634 C640 0.930 . S
H635 C644 0.930 . S
H636 C649 0.929 . S
H637 C647 0.929 . S
H638 C642 0.929 . S
H639 C648 0.929 . S
C640 H634 0.930 . S
C640 C641 1.367 . S
C640 C648 1.378 . S
C641 C640 1.367 . S
C641 C649 1.433 . S
C642 H638 0.929 . S
C642 C644 1.378 . S
C642 C646 1.350 . S
C643 C646 1.463 . S
C643 C648 1.350 . S
C643 N651 1.427 . S
C644 H635 0.930 . S
C644 C642 1.378 . S
C644 C645 1.367 . S
C645 C644 1.367 . S
C645 C647 1.433 . S
C646 C642 1.350 . S
C646 C643 1.463 . S
C646 N650 1.427 . S
C647 H637 0.929 . S
C647 C645 1.433 . S
C647 N650 1.384 . S
C648 H639 0.929 . S
C648 C640 1.378 . S
C648 C643 1.350 . S
C649 H636 0.929 . S
C649 C641 1.433 . S
C649 N651 1.384 . S
N650 C646 1.427 . S
N650 C647 1.384 . S
N651 C643 1.427 . S
N651 C649 1.384 . S
H652 C658 0.930 . S
H653 C662 0.930 . S
H654 C667 0.929 . S
H655 C665 0.929 . S
H656 C660 0.929 . S
H657 C666 0.929 . S
C658 H652 0.930 . S
C658 C659 1.367 . S
C658 C666 1.378 . S
C659 C658 1.367 . S
C659 C667 1.433 . S
C660 H656 0.929 . S
C660 C662 1.378 . S
C660 C664 1.350 . S
C661 C664 1.463 . S
C661 C666 1.350 . S
C661 N669 1.427 . S
C662 H653 0.930 . S
C662 C660 1.378 . S
C662 C663 1.367 . S
C663 C662 1.367 . S
C663 C665 1.433 . S
C664 C660 1.350 . S
C664 C661 1.463 . S
C664 N668 1.427 . S
C665 H655 0.929 . S
C665 C663 1.433 . S
C665 N668 1.384 . S
C666 H657 0.929 . S
C666 C658 1.378 . S
C666 C661 1.350 . S
C667 H654 0.929 . S
C667 C659 1.433 . S
C667 N669 1.384 . S
N668 C664 1.427 . S
N668 C665 1.384 . S
N669 C661 1.427 . S
N669 C667 1.384 . S
H670 C676 0.930 . S
H671 C680 0.930 . S
H672 C685 0.929 . S
H673 C683 0.929 . S
H674 C678 0.929 . S
H675 C684 0.929 . S
C676 H670 0.930 . S
C676 C677 1.367 . S
C676 C684 1.378 . S
C677 C676 1.367 . S
C677 C685 1.433 . S
C678 H674 0.929 . S
C678 C680 1.378 . S
C678 C682 1.350 . S
C679 C682 1.463 . S
C679 C684 1.350 . S
C679 N687 1.427 . S
C680 H671 0.930 . S
C680 C678 1.378 . S
C680 C681 1.367 . S
C681 C680 1.367 . S
C681 C683 1.433 . S
C682 C678 1.350 . S
C682 C679 1.463 . S
C682 N686 1.427 . S
C683 H673 0.929 . S
C683 C681 1.433 . S
C683 N686 1.384 . S
C684 H675 0.929 . S
C684 C676 1.378 . S
C684 C679 1.350 . S
C685 H672 0.929 . S
C685 C677 1.433 . S
C685 N687 1.384 . S
N686 C682 1.427 . S
N686 C683 1.384 . S
N687 C679 1.427 . S
N687 C685 1.384 . S
H688 C694 0.930 . S
H689 C698 0.930 . S
H690 C703 0.929 . S
H691 C701 0.929 . S
H692 C696 0.929 . S
H693 C702 0.929 . S
C694 H688 0.930 . S
C694 C695 1.367 . S
C694 C702 1.378 . S
C695 C694 1.367 . S
C695 C703 1.433 . S
C696 H692 0.929 . S
C696 C698 1.378 . S
C696 C700 1.350 . S
C697 C700 1.463 . S
C697 C702 1.350 . S
C697 N705 1.427 . S
C698 H689 0.930 . S
C698 C696 1.378 . S
C698 C699 1.367 . S
C699 C698 1.367 . S
C699 C701 1.433 . S
C700 C696 1.350 . S
C700 C697 1.463 . S
C700 N704 1.427 . S
C701 H691 0.929 . S
C701 C699 1.433 . S
C701 N704 1.384 . S
C702 H693 0.929 . S
C702 C694 1.378 . S
C702 C697 1.350 . S
C703 H690 0.929 . S
C703 C695 1.433 . S
C703 N705 1.384 . S
N704 C700 1.427 . S
N704 C701 1.384 . S
N705 C697 1.427 . S
N705 C703 1.384 . S
H706 C712 0.930 . S
H707 C716 0.930 . S
H708 C721 0.929 . S
H709 C719 0.929 . S
H710 C714 0.929 . S
H711 C720 0.929 . S
C712 H706 0.930 . S
C712 C713 1.367 . S
C712 C720 1.378 . S
C713 C712 1.367 . S
C713 C721 1.433 . S
C714 H710 0.929 . S
C714 C716 1.378 . S
C714 C718 1.350 . S
C715 C718 1.463 . S
C715 C720 1.350 . S
C715 N723 1.427 . S
C716 H707 0.930 . S
C716 C714 1.378 . S
C716 C717 1.367 . S
C717 C716 1.367 . S
C717 C719 1.433 . S
C718 C714 1.350 . S
C718 C715 1.463 . S
C718 N722 1.427 . S
C719 H709 0.929 . S
C719 C717 1.433 . S
C719 N722 1.384 . S
C720 H711 0.929 . S
C720 C712 1.378 . S
C720 C715 1.350 . S
C721 H708 0.929 . S
C721 C713 1.433 . S
C721 N723 1.384 . S
N722 C718 1.427 . S
N722 C719 1.384 . S
N723 C715 1.427 . S
N723 C721 1.384 . S
H724 C730 0.930 . S
H725 C734 0.930 . S
H726 C739 0.929 . S
H727 C737 0.929 . S
H728 C732 0.929 . S
H729 C738 0.929 . S
C730 H724 0.930 . S
C730 C731 1.367 . S
C730 C738 1.378 . S
C731 C730 1.367 . S
C731 C739 1.433 . S
C732 H728 0.929 . S
C732 C734 1.378 . S
C732 C736 1.350 . S
C733 C736 1.463 . S
C733 C738 1.350 . S
C733 N741 1.427 . S
C734 H725 0.930 . S
C734 C732 1.378 . S
C734 C735 1.367 . S
C735 C734 1.367 . S
C735 C737 1.433 . S
C736 C732 1.350 . S
C736 C733 1.463 . S
C736 N740 1.427 . S
C737 H727 0.929 . S
C737 C735 1.433 . S
C737 N740 1.384 . S
C738 H729 0.929 . S
C738 C730 1.378 . S
C738 C733 1.350 . S
C739 H726 0.929 . S
C739 C731 1.433 . S
C739 N741 1.384 . S
N740 C736 1.427 . S
N740 C737 1.384 . S
N741 C733 1.427 . S
N741 C739 1.384 . S
H742 C748 0.930 . S
H743 C752 0.930 . S
H744 C757 0.929 . S
H745 C755 0.929 . S
H746 C750 0.929 . S
H747 C756 0.929 . S
C748 H742 0.930 . S
C748 C749 1.367 . S
C748 C756 1.378 . S
C749 C748 1.367 . S
C749 C757 1.433 . S
C750 H746 0.929 . S
C750 C752 1.378 . S
C750 C754 1.350 . S
C751 C754 1.463 . S
C751 C756 1.350 . S
C751 N759 1.427 . S
C752 H743 0.930 . S
C752 C750 1.378 . S
C752 C753 1.367 . S
C753 C752 1.367 . S
C753 C755 1.433 . S
C754 C750 1.350 . S
C754 C751 1.463 . S
C754 N758 1.427 . S
C755 H745 0.929 . S
C755 C753 1.433 . S
C755 N758 1.384 . S
C756 H747 0.929 . S
C756 C748 1.378 . S
C756 C751 1.350 . S
C757 H744 0.929 . S
C757 C749 1.433 . S
C757 N759 1.384 . S
N758 C754 1.427 . S
N758 C755 1.384 . S
N759 C751 1.427 . S
N759 C757 1.384 . S
H760 C766 0.930 . S
H761 C770 0.930 . S
H762 C775 0.929 . S
H763 C773 0.929 . S
H764 C768 0.929 . S
H765 C774 0.929 . S
C766 H760 0.930 . S
C766 C767 1.367 . S
C766 C774 1.378 . S
C767 C766 1.367 . S
C767 C775 1.433 . S
C768 H764 0.929 . S
C768 C770 1.378 . S
C768 C772 1.350 . S
C769 C772 1.463 . S
C769 C774 1.350 . S
C769 N777 1.427 . S
C770 H761 0.930 . S
C770 C768 1.378 . S
C770 C771 1.367 . S
C771 C770 1.367 . S
C771 C773 1.433 . S
C772 C768 1.350 . S
C772 C769 1.463 . S
C772 N776 1.427 . S
C773 H763 0.929 . S
C773 C771 1.433 . S
C773 N776 1.384 . S
C774 H765 0.929 . S
C774 C766 1.378 . S
C774 C769 1.350 . S
C775 H762 0.929 . S
C775 C767 1.433 . S
C775 N777 1.384 . S
N776 C772 1.427 . S
N776 C773 1.384 . S
N777 C769 1.427 . S
N777 C775 1.384 . S
H778 C784 0.930 . S
H779 C788 0.930 . S
H780 C793 0.929 . S
H781 C791 0.929 . S
H782 C786 0.929 . S
H783 C792 0.929 . S
C784 H778 0.930 . S
C784 C785 1.367 . S
C784 C792 1.378 . S
C785 C784 1.367 . S
C785 C793 1.433 . S
C786 H782 0.929 . S
C786 C788 1.378 . S
C786 C790 1.350 . S
C787 C790 1.463 . S
C787 C792 1.350 . S
C787 N795 1.427 . S
C788 H779 0.930 . S
C788 C786 1.378 . S
C788 C789 1.367 . S
C789 C788 1.367 . S
C789 C791 1.433 . S
C790 C786 1.350 . S
C790 C787 1.463 . S
C790 N794 1.427 . S
C791 H781 0.929 . S
C791 C789 1.433 . S
C791 N794 1.384 . S
C792 H783 0.929 . S
C792 C784 1.378 . S
C792 C787 1.350 . S
C793 H780 0.929 . S
C793 C785 1.433 . S
C793 N795 1.384 . S
N794 C790 1.427 . S
N794 C791 1.384 . S
N795 C787 1.427 . S
N795 C793 1.384 . S
H796 C802 0.930 . S
H797 C806 0.930 . S
H798 C811 0.929 . S
H799 C809 0.929 . S
H800 C804 0.929 . S
H801 C810 0.929 . S
C802 H796 0.930 . S
C802 C803 1.367 . S
C802 C810 1.378 . S
C803 C802 1.367 . S
C803 C811 1.433 . S
C804 H800 0.929 . S
C804 C806 1.378 . S
C804 C808 1.350 . S
C805 C808 1.463 . S
C805 C810 1.350 . S
C805 N813 1.427 . S
C806 H797 0.930 . S
C806 C804 1.378 . S
C806 C807 1.367 . S
C807 C806 1.367 . S
C807 C809 1.433 . S
C808 C804 1.350 . S
C808 C805 1.463 . S
C808 N812 1.427 . S
C809 H799 0.929 . S
C809 C807 1.433 . S
C809 N812 1.384 . S
C810 H801 0.929 . S
C810 C802 1.378 . S
C810 C805 1.350 . S
C811 H798 0.929 . S
C811 C803 1.433 . S
C811 N813 1.384 . S
N812 C808 1.427 . S
N812 C809 1.384 . S
N813 C805 1.427 . S
N813 C811 1.384 . S
H814 C820 0.930 . S
H815 C824 0.930 . S
H816 C829 0.929 . S
H817 C827 0.929 . S
H818 C822 0.929 . S
H819 C828 0.929 . S
C820 H814 0.930 . S
C820 C821 1.367 . S
C820 C828 1.378 . S
C821 C820 1.367 . S
C821 C829 1.433 . S
C822 H818 0.929 . S
C822 C824 1.378 . S
C822 C826 1.350 . S
C823 C826 1.463 . S
C823 C828 1.350 . S
C823 N831 1.427 . S
C824 H815 0.930 . S
C824 C822 1.378 . S
C824 C825 1.367 . S
C825 C824 1.367 . S
C825 C827 1.433 . S
C826 C822 1.350 . S
C826 C823 1.463 . S
C826 N830 1.427 . S
C827 H817 0.929 . S
C827 C825 1.433 . S
C827 N830 1.384 . S
C828 H819 0.929 . S
C828 C820 1.378 . S
C828 C823 1.350 . S
C829 H816 0.929 . S
C829 C821 1.433 . S
C829 N831 1.384 . S
N830 C826 1.427 . S
N830 C827 1.384 . S
N831 C823 1.427 . S
N831 C829 1.384 . S
H832 C838 0.930 . S
H833 C842 0.930 . S
H834 C847 0.929 . S
H835 C845 0.929 . S
H836 C840 0.929 . S
H837 C846 0.929 . S
C838 H832 0.930 . S
C838 C839 1.367 . S
C838 C846 1.378 . S
C839 C838 1.367 . S
C839 C847 1.433 . S
C840 H836 0.929 . S
C840 C842 1.378 . S
C840 C844 1.350 . S
C841 C844 1.463 . S
C841 C846 1.350 . S
C841 N849 1.427 . S
C842 H833 0.930 . S
C842 C840 1.378 . S
C842 C843 1.367 . S
C843 C842 1.367 . S
C843 C845 1.433 . S
C844 C840 1.350 . S
C844 C841 1.463 . S
C844 N848 1.427 . S
C845 H835 0.929 . S
C845 C843 1.433 . S
C845 N848 1.384 . S
C846 H837 0.929 . S
C846 C838 1.378 . S
C846 C841 1.350 . S
C847 H834 0.929 . S
C847 C839 1.433 . S
C847 N849 1.384 . S
N848 C844 1.427 . S
N848 C845 1.384 . S
N849 C841 1.427 . S
N849 C847 1.384 . S
H850 C856 0.930 . S
H851 C860 0.930 . S
H852 C865 0.929 . S
H853 C863 0.929 . S
H854 C858 0.929 . S
H855 C864 0.929 . S
C856 H850 0.930 . S
C856 C857 1.367 . S
C856 C864 1.378 . S
C857 C856 1.367 . S
C857 C865 1.433 . S
C858 H854 0.929 . S
C858 C860 1.378 . S
C858 C862 1.350 . S
C859 C862 1.463 . S
C859 C864 1.350 . S
C859 N867 1.427 . S
C860 H851 0.930 . S
C860 C858 1.378 . S
C860 C861 1.367 . S
C861 C860 1.367 . S
C861 C863 1.433 . S
C862 C858 1.350 . S
C862 C859 1.463 . S
C862 N866 1.427 . S
C863 H853 0.929 . S
C863 C861 1.433 . S
C863 N866 1.384 . S
C864 H855 0.929 . S
C864 C856 1.378 . S
C864 C859 1.350 . S
C865 H852 0.929 . S
C865 C857 1.433 . S
C865 N867 1.384 . S
N866 C862 1.427 . S
N866 C863 1.384 . S
N867 C859 1.427 . S
N867 C865 1.384 . S
H868 C874 0.930 . S
H869 C878 0.930 . S
H870 C883 0.929 . S
H871 C881 0.929 . S
H872 C876 0.929 . S
H873 C882 0.929 . S
C874 H868 0.930 . S
C874 C875 1.367 . S
C874 C882 1.378 . S
C875 C874 1.367 . S
C875 C883 1.433 . S
C876 H872 0.929 . S
C876 C878 1.378 . S
C876 C880 1.350 . S
C877 C880 1.463 . S
C877 C882 1.350 . S
C877 N885 1.427 . S
C878 H869 0.930 . S
C878 C876 1.378 . S
C878 C879 1.367 . S
C879 C878 1.367 . S
C879 C881 1.433 . S
C880 C876 1.350 . S
C880 C877 1.463 . S
C880 N884 1.427 . S
C881 H871 0.929 . S
C881 C879 1.433 . S
C881 N884 1.384 . S
C882 H873 0.929 . S
C882 C874 1.378 . S
C882 C877 1.350 . S
C883 H870 0.929 . S
C883 C875 1.433 . S
C883 N885 1.384 . S
N884 C880 1.427 . S
N884 C881 1.384 . S
N885 C877 1.427 . S
N885 C883 1.384 . S
H886 C892 0.930 . S
H887 C896 0.930 . S
H888 C901 0.929 . S
H889 C899 0.929 . S
H890 C894 0.929 . S
H891 C900 0.929 . S
C892 H886 0.930 . S
C892 C893 1.367 . S
C892 C900 1.378 . S
C893 C892 1.367 . S
C893 C901 1.433 . S
C894 H890 0.929 . S
C894 C896 1.378 . S
C894 C898 1.350 . S
C895 C898 1.463 . S
C895 C900 1.350 . S
C895 N903 1.427 . S
C896 H887 0.930 . S
C896 C894 1.378 . S
C896 C897 1.367 . S
C897 C896 1.367 . S
C897 C899 1.433 . S
C898 C894 1.350 . S
C898 C895 1.463 . S
C898 N902 1.427 . S
C899 H889 0.929 . S
C899 C897 1.433 . S
C899 N902 1.384 . S
C900 H891 0.929 . S
C900 C892 1.378 . S
C900 C895 1.350 . S
C901 H888 0.929 . S
C901 C893 1.433 . S
C901 N903 1.384 . S
N902 C898 1.427 . S
N902 C899 1.384 . S
N903 C895 1.427 . S
N903 C901 1.384 . S
H904 C910 0.930 . S
H905 C914 0.930 . S
H906 C919 0.929 . S
H907 C917 0.929 . S
H908 C912 0.929 . S
H909 C918 0.929 . S
C910 H904 0.930 . S
C910 C911 1.367 . S
C910 C918 1.378 . S
C911 C910 1.367 . S
C911 C919 1.433 . S
C912 H908 0.929 . S
C912 C914 1.378 . S
C912 C916 1.350 . S
C913 C916 1.463 1_556 S
C913 C918 1.350 . S
C913 N921 1.427 . S
C914 H905 0.930 . S
C914 C912 1.378 . S
C914 C915 1.367 . S
C915 C914 1.367 . S
C915 C917 1.433 . S
C916 C912 1.350 . S
C916 C913 1.463 1_554 S
C916 N920 1.427 . S
C917 H907 0.929 . S
C917 C915 1.433 . S
C917 N920 1.384 . S
C918 H909 0.929 . S
C918 C910 1.378 . S
C918 C913 1.350 . S
C919 H906 0.929 . S
C919 C911 1.433 . S
C919 N921 1.384 . S
N920 C916 1.427 . S
N920 C917 1.384 . S
N921 C913 1.427 . S
N921 C919 1.384 . S
H922 C928 0.930 . S
H923 C932 0.930 . S
H924 C937 0.929 . S
H925 C935 0.929 . S
H926 C930 0.929 . S
H927 C936 0.929 . S
C928 H922 0.930 . S
C928 C929 1.367 . S
C928 C936 1.378 . S
C929 C928 1.367 . S
C929 C937 1.433 . S
C930 H926 0.929 . S
C930 C932 1.378 . S
C930 C934 1.350 . S
C931 C934 1.463 1_556 S
C931 C936 1.350 . S
C931 N939 1.427 . S
C932 H923 0.930 . S
C932 C930 1.378 . S
C932 C933 1.367 . S
C933 C932 1.367 . S
C933 C935 1.433 . S
C934 C930 1.350 . S
C934 C931 1.463 1_554 S
C934 N938 1.427 . S
C935 H925 0.929 . S
C935 C933 1.433 . S
C935 N938 1.384 . S
C936 H927 0.929 . S
C936 C928 1.378 . S
C936 C931 1.350 . S
C937 H924 0.929 . S
C937 C929 1.433 . S
C937 N939 1.384 . S
N938 C934 1.427 . S
N938 C935 1.384 . S
N939 C931 1.427 . S
N939 C937 1.384 . S
H940 C946 0.930 . S
H941 C950 0.930 . S
H942 C955 0.929 . S
H943 C953 0.929 . S
H944 C948 0.929 . S
H945 C954 0.929 . S
C946 H940 0.930 . S
C946 C947 1.367 . S
C946 C954 1.378 . S
C947 C946 1.367 . S
C947 C955 1.433 . S
C948 H944 0.929 . S
C948 C950 1.378 . S
C948 C952 1.350 . S
C949 C952 1.463 1_556 S
C949 C954 1.350 . S
C949 N957 1.427 . S
C950 H941 0.930 . S
C950 C948 1.378 . S
C950 C951 1.367 . S
C951 C950 1.367 . S
C951 C953 1.433 . S
C952 C948 1.350 . S
C952 C949 1.463 1_554 S
C952 N956 1.427 . S
C953 H943 0.929 . S
C953 C951 1.433 . S
C953 N956 1.384 . S
C954 H945 0.929 . S
C954 C946 1.378 . S
C954 C949 1.350 . S
C955 H942 0.929 . S
C955 C947 1.433 . S
C955 N957 1.384 . S
N956 C952 1.427 . S
N956 C953 1.384 . S
N957 C949 1.427 . S
N957 C955 1.384 . S
H958 C964 0.930 . S
H959 C968 0.930 . S
H960 C973 0.929 . S
H961 C971 0.929 . S
H962 C966 0.929 . S
H963 C972 0.929 . S
C964 H958 0.930 . S
C964 C965 1.367 . S
C964 C972 1.378 . S
C965 C964 1.367 . S
C965 C973 1.433 . S
C966 H962 0.929 . S
C966 C968 1.378 . S
C966 C970 1.350 . S
C967 C970 1.463 1_556 S
C967 C972 1.350 . S
C967 N975 1.427 . S
C968 H959 0.930 . S
C968 C966 1.378 . S
C968 C969 1.367 . S
C969 C968 1.367 . S
C969 C971 1.433 . S
C970 C966 1.350 . S
C970 C967 1.463 1_554 S
C970 N974 1.427 . S
C971 H961 0.929 . S
C971 C969 1.433 . S
C971 N974 1.384 . S
C972 H963 0.929 . S
C972 C964 1.378 . S
C972 C967 1.350 . S
C973 H960 0.929 . S
C973 C965 1.433 . S
C973 N975 1.384 . S
N974 C970 1.427 . S
N974 C971 1.384 . S
N975 C967 1.427 . S
N975 C973 1.384 . S
H976 C982 0.930 . S
H977 C986 0.930 . S
H978 C991 0.929 . S
H979 C989 0.929 . S
H980 C984 0.929 . S
H981 C990 0.929 . S
C982 H976 0.930 . S
C982 C983 1.367 . S
C982 C990 1.378 . S
C983 C982 1.367 . S
C983 C991 1.433 . S
C984 H980 0.929 . S
C984 C986 1.378 . S
C984 C988 1.350 . S
C985 C988 1.463 . S
C985 C990 1.350 . S
C985 N993 1.427 . S
C986 H977 0.930 . S
C986 C984 1.378 . S
C986 C987 1.367 . S
C987 C986 1.367 . S
C987 C989 1.433 . S
C988 C984 1.350 . S
C988 C985 1.463 . S
C988 N992 1.427 . S
C989 H979 0.929 . S
C989 C987 1.433 . S
C989 N992 1.384 . S
C990 H981 0.929 . S
C990 C982 1.378 . S
C990 C985 1.350 . S
C991 H978 0.929 . S
C991 C983 1.433 . S
C991 N993 1.384 . S
N992 C988 1.427 . S
N992 C989 1.384 . S
N993 C985 1.427 . S
N993 C991 1.384 . S
H994 C1000 0.930 . S
H995 C1004 0.930 . S
H996 C1009 0.929 . S
H997 C1007 0.929 . S
H998 C1002 0.929 . S
H999 C1008 0.929 . S
C1000 H994 0.930 . S
C1000 C1001 1.367 . S
C1000 C1008 1.378 . S
C1001 C1000 1.367 . S
C1001 C1009 1.433 . S
C1002 H998 0.929 . S
C1002 C1004 1.378 . S
C1002 C1006 1.350 . S
C1003 C1006 1.463 . S
C1003 C1008 1.350 . S
C1003 N1011 1.427 . S
C1004 H995 0.930 . S
C1004 C1002 1.378 . S
C1004 C1005 1.367 . S
C1005 C1004 1.367 . S
C1005 C1007 1.433 . S
C1006 C1002 1.350 . S
C1006 C1003 1.463 . S
C1006 N1010 1.427 . S
C1007 H997 0.929 . S
C1007 C1005 1.433 . S
C1007 N1010 1.384 . S
C1008 H999 0.929 . S
C1008 C1000 1.378 . S
C1008 C1003 1.350 . S
C1009 H996 0.929 . S
C1009 C1001 1.433 . S
C1009 N1011 1.384 . S
N1010 C1006 1.427 . S
N1010 C1007 1.384 . S
N1011 C1003 1.427 . S
N1011 C1009 1.384 . S
H1012 C1018 0.930 . S
H1013 C1022 0.930 . S
H1014 C1027 0.929 . S
H1015 C1025 0.929 . S
H1016 C1020 0.929 . S
H1017 C1026 0.929 . S
C1018 H1012 0.930 . S
C1018 C1019 1.367 . S
C1018 C1026 1.378 . S
C1019 C1018 1.367 . S
C1019 C1027 1.433 . S
C1020 H1016 0.929 . S
C1020 C1022 1.378 . S
C1020 C1024 1.350 . S
C1021 C1024 1.463 . S
C1021 C1026 1.350 . S
C1021 N1029 1.427 . S
C1022 H1013 0.930 . S
C1022 C1020 1.378 . S
C1022 C1023 1.367 . S
C1023 C1022 1.367 . S
C1023 C1025 1.433 . S
C1024 C1020 1.350 . S
C1024 C1021 1.463 . S
C1024 N1028 1.427 . S
C1025 H1015 0.929 . S
C1025 C1023 1.433 . S
C1025 N1028 1.384 . S
C1026 H1017 0.929 . S
C1026 C1018 1.378 . S
C1026 C1021 1.350 . S
C1027 H1014 0.929 . S
C1027 C1019 1.433 . S
C1027 N1029 1.384 . S
N1028 C1024 1.427 . S
N1028 C1025 1.384 . S
N1029 C1021 1.427 . S
N1029 C1027 1.384 . S
H1030 C1036 0.930 . S
H1031 C1040 0.930 . S
H1032 C1045 0.929 . S
H1033 C1043 0.929 . S
H1034 C1038 0.929 . S
H1035 C1044 0.929 . S
C1036 H1030 0.930 . S
C1036 C1037 1.367 . S
C1036 C1044 1.378 . S
C1037 C1036 1.367 . S
C1037 C1045 1.433 . S
C1038 H1034 0.929 . S
C1038 C1040 1.378 . S
C1038 C1042 1.350 . S
C1039 C1042 1.463 . S
C1039 C1044 1.350 . S
C1039 N1047 1.427 . S
C1040 H1031 0.930 . S
C1040 C1038 1.378 . S
C1040 C1041 1.367 . S
C1041 C1040 1.367 . S
C1041 C1043 1.433 . S
C1042 C1038 1.350 . S
C1042 C1039 1.463 . S
C1042 N1046 1.427 . S
C1043 H1033 0.929 . S
C1043 C1041 1.433 . S
C1043 N1046 1.384 . S
C1044 H1035 0.929 . S
C1044 C1036 1.378 . S
C1044 C1039 1.350 . S
C1045 H1032 0.929 . S
C1045 C1037 1.433 . S
C1045 N1047 1.384 . S
N1046 C1042 1.427 . S
N1046 C1043 1.384 . S
N1047 C1039 1.427 . S
N1047 C1045 1.384 . S
H1048 C1054 0.930 . S
H1049 C1058 0.930 . S
H1050 C1063 0.929 . S
H1051 C1061 0.929 . S
H1052 C1056 0.929 . S
H1053 C1062 0.929 . S
C1054 H1048 0.930 . S
C1054 C1055 1.367 . S
C1054 C1062 1.378 . S
C1055 C1054 1.367 . S
C1055 C1063 1.433 . S
C1056 H1052 0.929 . S
C1056 C1058 1.378 . S
C1056 C1060 1.350 . S
C1057 C1060 1.463 . S
C1057 C1062 1.350 . S
C1057 N1065 1.427 . S
C1058 H1049 0.930 . S
C1058 C1056 1.378 . S
C1058 C1059 1.367 . S
C1059 C1058 1.367 . S
C1059 C1061 1.433 . S
C1060 C1056 1.350 . S
C1060 C1057 1.463 . S
C1060 N1064 1.427 . S
C1061 H1051 0.929 . S
C1061 C1059 1.433 . S
C1061 N1064 1.384 . S
C1062 H1053 0.929 . S
C1062 C1054 1.378 . S
C1062 C1057 1.350 . S
C1063 H1050 0.929 . S
C1063 C1055 1.433 . S
C1063 N1065 1.384 . S
N1064 C1060 1.427 . S
N1064 C1061 1.384 . S
N1065 C1057 1.427 . S
N1065 C1063 1.384 . S
H1066 C1072 0.930 . S
H1067 C1076 0.930 . S
H1068 C1081 0.929 . S
H1069 C1079 0.929 . S
H1070 C1074 0.929 . S
H1071 C1080 0.929 . S
C1072 H1066 0.930 . S
C1072 C1073 1.367 . S
C1072 C1080 1.378 . S
C1073 C1072 1.367 . S
C1073 C1081 1.433 . S
C1074 H1070 0.929 . S
C1074 C1076 1.378 . S
C1074 C1078 1.350 . S
C1075 C1078 1.463 . S
C1075 C1080 1.350 . S
C1075 N1083 1.427 . S
C1076 H1067 0.930 . S
C1076 C1074 1.378 . S
C1076 C1077 1.367 . S
C1077 C1076 1.367 . S
C1077 C1079 1.433 . S
C1078 C1074 1.350 . S
C1078 C1075 1.463 . S
C1078 N1082 1.427 . S
C1079 H1069 0.929 . S
C1079 C1077 1.433 . S
C1079 N1082 1.384 . S
C1080 H1071 0.929 . S
C1080 C1072 1.378 . S
C1080 C1075 1.350 . S
C1081 H1068 0.929 . S
C1081 C1073 1.433 . S
C1081 N1083 1.384 . S
N1082 C1078 1.427 . S
N1082 C1079 1.384 . S
N1083 C1075 1.427 . S
N1083 C1081 1.384 . S
H1084 C1090 0.930 . S
H1085 C1094 0.930 . S
H1086 C1099 0.929 . S
H1087 C1097 0.929 . S
H1088 C1092 0.929 . S
H1089 C1098 0.929 . S
C1090 H1084 0.930 . S
C1090 C1091 1.367 . S
C1090 C1098 1.378 . S
C1091 C1090 1.367 . S
C1091 C1099 1.433 . S
C1092 H1088 0.929 . S
C1092 C1094 1.378 . S
C1092 C1096 1.350 . S
C1093 C1096 1.463 . S
C1093 C1098 1.350 . S
C1093 N1101 1.427 . S
C1094 H1085 0.930 . S
C1094 C1092 1.378 . S
C1094 C1095 1.367 . S
C1095 C1094 1.367 . S
C1095 C1097 1.433 . S
C1096 C1092 1.350 . S
C1096 C1093 1.463 . S
C1096 N1100 1.427 . S
C1097 H1087 0.929 . S
C1097 C1095 1.433 . S
C1097 N1100 1.384 . S
C1098 H1089 0.929 . S
C1098 C1090 1.378 . S
C1098 C1093 1.350 . S
C1099 H1086 0.929 . S
C1099 C1091 1.433 . S
C1099 N1101 1.384 . S
N1100 C1096 1.427 . S
N1100 C1097 1.384 . S
N1101 C1093 1.427 . S
N1101 C1099 1.384 . S
H1102 C1108 0.930 . S
H1103 C1112 0.930 . S
H1104 C1117 0.929 . S
H1105 C1115 0.929 . S
H1106 C1110 0.929 . S
H1107 C1116 0.929 . S
C1108 H1102 0.930 . S
C1108 C1109 1.367 . S
C1108 C1116 1.378 . S
C1109 C1108 1.367 . S
C1109 C1117 1.433 . S
C1110 H1106 0.929 . S
C1110 C1112 1.378 . S
C1110 C1114 1.350 . S
C1111 C1114 1.463 . S
C1111 C1116 1.350 . S
C1111 N1119 1.427 . S
C1112 H1103 0.930 . S
C1112 C1110 1.378 . S
C1112 C1113 1.367 . S
C1113 C1112 1.367 . S
C1113 C1115 1.433 . S
C1114 C1110 1.350 . S
C1114 C1111 1.463 . S
C1114 N1118 1.427 . S
C1115 H1105 0.929 . S
C1115 C1113 1.433 . S
C1115 N1118 1.384 . S
C1116 H1107 0.929 . S
C1116 C1108 1.378 . S
C1116 C1111 1.350 . S
C1117 H1104 0.929 . S
C1117 C1109 1.433 . S
C1117 N1119 1.384 . S
N1118 C1114 1.427 . S
N1118 C1115 1.384 . S
N1119 C1111 1.427 . S
N1119 C1117 1.384 . S
H1120 C1126 0.930 . S
H1121 C1130 0.930 . S
H1122 C1135 0.929 . S
H1123 C1133 0.929 . S
H1124 C1128 0.929 . S
H1125 C1134 0.929 . S
C1126 H1120 0.930 . S
C1126 C1127 1.367 . S
C1126 C1134 1.378 . S
C1127 C1126 1.367 . S
C1127 C1135 1.433 . S
C1128 H1124 0.929 . S
C1128 C1130 1.378 . S
C1128 C1132 1.350 . S
C1129 C1132 1.463 1_545 S
C1129 C1134 1.350 . S
C1129 N1137 1.427 1_545 S
C1130 H1121 0.930 . S
C1130 C1128 1.378 . S
C1130 C1131 1.367 . S
C1131 C1130 1.367 . S
C1131 C1133 1.433 . S
C1132 C1128 1.350 . S
C1132 C1129 1.463 1_565 S
C1132 N1136 1.427 1_565 S
C1133 H1123 0.929 . S
C1133 C1131 1.433 . S
C1133 N1136 1.384 1_565 S
C1134 H1125 0.929 . S
C1134 C1126 1.378 . S
C1134 C1129 1.350 . S
C1135 H1122 0.929 . S
C1135 C1127 1.433 . S
C1135 N1137 1.384 1_545 S
N1136 C1132 1.427 1_545 S
N1136 C1133 1.384 1_545 S
N1137 C1129 1.427 1_565 S
N1137 C1135 1.384 1_565 S
H1138 C1144 0.930 . S
H1139 C1148 0.930 . S
H1140 C1153 0.929 1_455 S
H1141 C1151 0.929 1_655 S
H1142 C1146 0.929 . S
H1143 C1152 0.929 . S
C1144 H1138 0.930 . S
C1144 C1145 1.367 . S
C1144 C1152 1.378 . S
C1145 C1144 1.367 . S
C1145 C1153 1.433 . S
C1146 H1142 0.929 . S
C1146 C1148 1.378 . S
C1146 C1150 1.350 . S
C1147 C1150 1.463 1_655 S
C1147 C1152 1.350 . S
C1147 N1155 1.427 1_655 S
C1148 H1139 0.930 . S
C1148 C1146 1.378 . S
C1148 C1149 1.367 . S
C1149 C1148 1.367 . S
C1149 C1151 1.433 . S
C1150 C1146 1.350 . S
C1150 C1147 1.463 1_455 S
C1150 N1154 1.427 1_455 S
C1151 H1141 0.929 1_455 S
C1151 C1149 1.433 . S
C1151 N1154 1.384 1_455 S
C1152 H1143 0.929 . S
C1152 C1144 1.378 . S
C1152 C1147 1.350 . S
C1153 H1140 0.929 1_655 S
C1153 C1145 1.433 . S
C1153 N1155 1.384 1_655 S
N1154 C1150 1.427 1_655 S
N1154 C1151 1.384 1_655 S
N1155 C1147 1.427 1_455 S
N1155 C1153 1.384 1_455 S
H1156 C1162 0.930 . S
H1157 C1166 0.930 . S
H1158 C1171 0.929 . S
H1159 C1169 0.929 . S
H1160 C1164 0.929 . S
H1161 C1170 0.929 . S
C1162 H1156 0.930 . S
C1162 C1163 1.367 . S
C1162 C1170 1.378 1_565 S
C1163 C1162 1.367 . S
C1163 C1171 1.433 . S
C1164 H1160 0.929 . S
C1164 C1166 1.378 1_565 S
C1164 C1168 1.350 1_565 S
C1165 C1168 1.463 1_565 S
C1165 C1170 1.350 1_565 S
C1165 N1173 1.427 . S
C1166 H1157 0.930 . S
C1166 C1164 1.378 1_545 S
C1166 C1167 1.367 . S
C1167 C1166 1.367 . S
C1167 C1169 1.433 . S
C1168 C1164 1.350 1_545 S
C1168 C1165 1.463 1_545 S
C1168 N1172 1.427 . S
C1169 H1159 0.929 . S
C1169 C1167 1.433 . S
C1169 N1172 1.384 . S
C1170 H1161 0.929 . S
C1170 C1162 1.378 1_545 S
C1170 C1165 1.350 1_545 S
C1171 H1158 0.929 . S
C1171 C1163 1.433 . S
C1171 N1173 1.384 . S
N1172 C1168 1.427 . S
N1172 C1169 1.384 . S
N1173 C1165 1.427 . S
N1173 C1171 1.384 . S
H1174 C1180 0.930 . S
H1175 C1184 0.930 . S
H1176 C1189 0.929 . S
H1177 C1187 0.929 . S
H1178 C1182 0.929 . S
H1179 C1188 0.929 . S
C1180 H1174 0.930 . S
C1180 C1181 1.367 . S
C1180 C1188 1.378 . S
C1181 C1180 1.367 . S
C1181 C1189 1.433 . S
C1182 H1178 0.929 . S
C1182 C1184 1.378 . S
C1182 C1186 1.350 . S
C1183 C1186 1.463 1_655 S
C1183 C1188 1.350 . S
C1183 N1191 1.427 1_655 S
C1184 H1175 0.930 . S
C1184 C1182 1.378 . S
C1184 C1185 1.367 . S
C1185 C1184 1.367 . S
C1185 C1187 1.433 . S
C1186 C1182 1.350 . S
C1186 C1183 1.463 1_455 S
C1186 N1190 1.427 1_455 S
C1187 H1177 0.929 . S
C1187 C1185 1.433 . S
C1187 N1190 1.384 1_455 S
C1188 H1179 0.929 . S
C1188 C1180 1.378 . S
C1188 C1183 1.350 . S
C1189 H1176 0.929 . S
C1189 C1181 1.433 . S
C1189 N1191 1.384 1_655 S
N1190 C1186 1.427 1_655 S
N1190 C1187 1.384 1_655 S
N1191 C1183 1.427 1_455 S
N1191 C1189 1.384 1_455 S
H1192 C1198 0.930 . S
H1193 C1202 0.930 . S
H1194 C1207 0.929 . S
H1195 C1205 0.929 . S
H1196 C1200 0.929 1_556 S
H1197 C1206 0.929 1_554 S
C1198 H1192 0.930 . S
C1198 C1199 1.367 . S
C1198 C1206 1.378 . S
C1199 C1198 1.367 . S
C1199 C1207 1.433 . S
C1200 H1196 0.929 1_554 S
C1200 C1202 1.378 . S
C1200 C1204 1.350 . S
C1201 C1204 1.463 1_556 S
C1201 C1206 1.350 . S
C1201 N1209 1.427 . S
C1202 H1193 0.930 . S
C1202 C1200 1.378 . S
C1202 C1203 1.367 . S
C1203 C1202 1.367 . S
C1203 C1205 1.433 . S
C1204 C1200 1.350 . S
C1204 C1201 1.463 1_554 S
C1204 N1208 1.427 . S
C1205 H1195 0.929 . S
C1205 C1203 1.433 . S
C1205 N1208 1.384 . S
C1206 H1197 0.929 1_556 S
C1206 C1198 1.378 . S
C1206 C1201 1.350 . S
C1207 H1194 0.929 . S
C1207 C1199 1.433 . S
C1207 N1209 1.384 . S
N1208 C1204 1.427 . S
N1208 C1205 1.384 . S
N1209 C1201 1.427 . S
N1209 C1207 1.384 . S
H1210 C1216 0.930 . S
H1211 C1220 0.930 . S
H1212 C1225 0.929 . S
H1213 C1223 0.929 . S
H1214 C1218 0.929 . S
H1215 C1224 0.929 . S
C1216 H1210 0.930 . S
C1216 C1217 1.367 . S
C1216 C1224 1.378 . S
C1217 C1216 1.367 . S
C1217 C1225 1.433 . S
C1218 H1214 0.929 . S
C1218 C1220 1.378 . S
C1218 C1222 1.350 . S
C1219 C1222 1.463 1_556 S
C1219 C1224 1.350 . S
C1219 N1227 1.427 . S
C1220 H1211 0.930 . S
C1220 C1218 1.378 . S
C1220 C1221 1.367 . S
C1221 C1220 1.367 . S
C1221 C1223 1.433 . S
C1222 C1218 1.350 . S
C1222 C1219 1.463 1_554 S
C1222 N1226 1.427 . S
C1223 H1213 0.929 . S
C1223 C1221 1.433 . S
C1223 N1226 1.384 . S
C1224 H1215 0.929 . S
C1224 C1216 1.378 . S
C1224 C1219 1.350 . S
C1225 H1212 0.929 . S
C1225 C1217 1.433 . S
C1225 N1227 1.384 . S
N1226 C1222 1.427 . S
N1226 C1223 1.384 . S
N1227 C1219 1.427 . S
N1227 C1225 1.384 . S
H1228 C1234 0.930 . S
H1229 C1238 0.930 . S
H1230 C1243 0.929 . S
H1231 C1241 0.929 . S
H1232 C1236 0.929 . S
H1233 C1242 0.929 . S
C1234 H1228 0.930 . S
C1234 C1235 1.367 . S
C1234 C1242 1.378 . S
C1235 C1234 1.367 . S
C1235 C1243 1.433 . S
C1236 H1232 0.929 . S
C1236 C1238 1.378 . S
C1236 C1240 1.350 . S
C1237 C1240 1.463 1_554 S
C1237 C1242 1.350 . S
C1237 N1245 1.427 . S
C1238 H1229 0.930 . S
C1238 C1236 1.378 . S
C1238 C1239 1.367 . S
C1239 C1238 1.367 . S
C1239 C1241 1.433 . S
C1240 C1236 1.350 . S
C1240 C1237 1.463 1_556 S
C1240 N1244 1.427 . S
C1241 H1231 0.929 . S
C1241 C1239 1.433 . S
C1241 N1244 1.384 . S
C1242 H1233 0.929 . S
C1242 C1234 1.378 . S
C1242 C1237 1.350 . S
C1243 H1230 0.929 . S
C1243 C1235 1.433 . S
C1243 N1245 1.384 . S
N1244 C1240 1.427 . S
N1244 C1241 1.384 . S
N1245 C1237 1.427 . S
N1245 C1243 1.384 . S
H1246 C1252 0.930 . S
H1247 C1256 0.930 . S
H1248 C1261 0.929 . S
H1249 C1259 0.929 . S
H1250 C1254 0.929 . S
H1251 C1260 0.929 . S
C1252 H1246 0.930 . S
C1252 C1253 1.367 . S
C1252 C1260 1.378 . S
C1253 C1252 1.367 . S
C1253 C1261 1.433 . S
C1254 H1250 0.929 . S
C1254 C1256 1.378 . S
C1254 C1258 1.350 . S
C1255 C1258 1.463 1_556 S
C1255 C1260 1.350 . S
C1255 N1263 1.427 . S
C1256 H1247 0.930 . S
C1256 C1254 1.378 . S
C1256 C1257 1.367 . S
C1257 C1256 1.367 . S
C1257 C1259 1.433 . S
C1258 C1254 1.350 . S
C1258 C1255 1.463 1_554 S
C1258 N1262 1.427 . S
C1259 H1249 0.929 . S
C1259 C1257 1.433 . S
C1259 N1262 1.384 . S
C1260 H1251 0.929 . S
C1260 C1252 1.378 . S
C1260 C1255 1.350 . S
C1261 H1248 0.929 . S
C1261 C1253 1.433 . S
C1261 N1263 1.384 . S
N1262 C1258 1.427 . S
N1262 C1259 1.384 . S
N1263 C1255 1.427 . S
N1263 C1261 1.384 . S
C551 C9 2.079 . S
C555 C104 2.117 . S
C569 C2 2.117 . S
C573 C43 2.078 . S
C587 C77 2.087 . S
C591 C36 2.111 . S
C605 C70 2.113 . S
C609 C111 2.084 . S
C623 C172 2.117 . S
C627 C145 2.079 . S
C641 C206 2.113 . S
C645 C179 2.086 . S
C659 C240 2.115 . S
C663 C213 2.081 . S
C677 C247 2.079 . S
C681 C138 2.117 . S
C695 C281 2.086 . S
C699 C376 2.112 . S
C713 C315 2.079 . S
C717 C274 2.117 . S
C731 C349 2.079 . S
C735 C308 2.117 . S
C749 C342 2.117 . S
C753 C383 2.079 . S
C767 C444 2.117 . S
C771 C417 2.079 . S
C785 C451 2.085 . S
C789 C478 2.113 . S
C803 C485 2.083 . S
C807 C512 2.114 . S
C821 C519 2.081 . S
C825 C410 2.116 . S
C839 C5 1.067 . S
C843 C175 1.068 . S
C857 C39 1.082 . S
C861 C209 1.055 . S
C875 C243 1.081 . S
C879 C73 1.056 . S
C893 C107 1.082 . S
C897 C141 1.055 . S
C911 C277 1.067 . S
C915 C447 1.072 . S
C929 C311 1.056 . S
C933 C481 1.082 . S
C947 C345 1.074 . S
C951 C515 1.065 . S
C965 C379 1.061 . S
C969 C413 1.078 . S
C983 C33 0.326 . S
C987 C543 0.339 . S
C1001 C441 0.343 . S
C1005 C67 0.346 . S
C1019 C101 0.344 . S
C1023 C475 0.345 . S
C1037 C135 0.297 . S
C1041 C509 0.292 . S
C1055 C339 0.321 . S
C1059 C169 0.335 . S
C1073 C373 0.322 . S
C1077 C203 0.336 . S
C1091 C407 0.292 . S
C1095 C237 0.296 . S
C1109 C305 0.293 . S
C1113 C271 0.293 . S
C1127 C20 1.184 . S
C1131 C156 1.195 . S
C1145 C54 1.192 . S
C1149 C190 1.185 . S
C1163 C88 1.200 . S
C1167 C224 1.191 . S
C1181 C258 1.195 . S
C1185 C122 1.184 . S
C1199 C292 1.187 . S
C1203 C428 1.189 . S
C1217 C326 1.198 . S
C1221 C462 1.195 . S
C1235 C496 1.198 . S
C1239 C360 1.195 . S
C1253 C394 1.184 . S
C1257 C530 1.196 . S
