# Generated by pormake.
# Topology xfw, (5)-cn, num edge types: 1
# Building blocks:
#     Node 0, Type 0, BuildingBlock: XOMCOT_clean_sbu_0, # of connection points: 5
#     Node 1, Type 0, BuildingBlock: XOMCOT_clean_sbu_0, # of connection points: 5
#     Node 2, Type 0, BuildingBlock: XOMCOT_clean_sbu_0, # of connection points: 5
#     Node 3, Type 0, BuildingBlock: XOMCOT_clean_sbu_0, # of connection points: 5
#     Node 4, Type 0, BuildingBlock: XOMCOT_clean_sbu_0, # of connection points: 5
#     Node 5, Type 0, BuildingBlock: XOMCOT_clean_sbu_0, # of connection points: 5
#     Node 6, Type 0, BuildingBlock: XOMCOT_clean_sbu_0, # of connection points: 5
#     Node 7, Type 0, BuildingBlock: XOMCOT_clean_sbu_0, # of connection points: 5
#     Edge 8, Type (0, 0), BuildingBlock: MIFKUJ_clean_linker_0, # of connection points: 2
#     Edge 9, Type (0, 0), BuildingBlock: MIFKUJ_clean_linker_0, # of connection points: 2
#     Edge 10, Type (0, 0), BuildingBlock: MIFKUJ_clean_linker_0, # of connection points: 2
#     Edge 11, Type (0, 0), BuildingBlock: MIFKUJ_clean_linker_0, # of connection points: 2
#     Edge 12, Type (0, 0), BuildingBlock: MIFKUJ_clean_linker_0, # of connection points: 2
#     Edge 13, Type (0, 0), BuildingBlock: MIFKUJ_clean_linker_0, # of connection points: 2
#     Edge 14, Type (0, 0), BuildingBlock: MIFKUJ_clean_linker_0, # of connection points: 2
#     Edge 15, Type (0, 0), BuildingBlock: MIFKUJ_clean_linker_0, # of connection points: 2
#     Edge 16, Type (0, 0), BuildingBlock: MIFKUJ_clean_linker_0, # of connection points: 2
#     Edge 17, Type (0, 0), BuildingBlock: MIFKUJ_clean_linker_0, # of connection points: 2
#     Edge 18, Type (0, 0), BuildingBlock: MIFKUJ_clean_linker_0, # of connection points: 2
#     Edge 19, Type (0, 0), BuildingBlock: MIFKUJ_clean_linker_0, # of connection points: 2
#     Edge 20, Type (0, 0), BuildingBlock: MIFKUJ_clean_linker_0, # of connection points: 2
#     Edge 21, Type (0, 0), BuildingBlock: MIFKUJ_clean_linker_0, # of connection points: 2
#     Edge 22, Type (0, 0), BuildingBlock: MIFKUJ_clean_linker_0, # of connection points: 2
#     Edge 23, Type (0, 0), BuildingBlock: MIFKUJ_clean_linker_0, # of connection points: 2
#     Edge 24, Type (0, 0), BuildingBlock: MIFKUJ_clean_linker_0, # of connection points: 2
#     Edge 25, Type (0, 0), BuildingBlock: MIFKUJ_clean_linker_0, # of connection points: 2
#     Edge 26, Type (0, 0), BuildingBlock: MIFKUJ_clean_linker_0, # of connection points: 2
#     Edge 27, Type (0, 0), BuildingBlock: MIFKUJ_clean_linker_0, # of connection points: 2
# Relax obj value: 0.388
# Max RMSD: 0.286
# Mean RMSD: 0.286
data_MOF--net-xfw--node1-XOMCOT_clean_sbu_0--edge1-MIFKUJ_clean_linker_0
_symmetry_space_group_name_H-M    P1
_symmetry_Int_Tables_number       1
_symmetry_cell_setting            triclinic
loop_
_symmetry_equiv_pos_as_xyz
'x, y, z'
_cell_length_a     37.381389
_cell_length_b     37.317314
_cell_length_c     73.610547
_cell_angle_alpha  90.014126
_cell_angle_beta   89.950179
_cell_angle_gamma 90.001147
loop_
_atom_site_label
_atom_site_type_symbol
_atom_site_fract_x
_atom_site_fract_y
_atom_site_fract_z
_atom_type_partial_charge
Co0 Co 0.18247 0.0601 0.62639 0.0
C1 C 0.19854 0.11029 0.65623 0.0
C2 C 0.17376 0.13767 0.63409 0.0
C3 C 0.17481 0.16048 0.64885 0.0
N4 N 0.18925 0.10615 0.63858 0.0
N5 N 0.18996 0.14289 0.66281 0.0
H6 H 0.2077 0.08875 0.66483 0.0
H7 H 0.15897 0.14265 0.62176 0.0
C8 C 0.19167 0.10905 0.594 0.0
O9 O 0.22023 0.12345 0.60142 0.0
N10 N 0.17496 0.01402 0.61481 0.0
C11 C 0.18709 0.98228 0.62099 0.0
C12 C 0.18006 0.95633 0.6082 0.0
C13 C 0.16059 0.00691 0.59838 0.0
N14 N 0.1636 0.97188 0.59394 0.0
C15 C 0.25629 0.05311 0.63623 0.0
C16 C 0.28118 0.03809 0.60167 0.0
C17 C 0.30505 0.03657 0.6163 0.0
C18 C 0.29224 0.04452 0.63374 0.0
C19 C 0.2454 0.0468 0.60476 0.0
N20 N 0.23338 0.05469 0.62185 0.0
H21 H 0.24666 0.05652 0.64987 0.0
H22 H 0.2271 0.04575 0.59344 0.0
H23 H 0.20154 0.97851 0.63356 0.0
H24 H 0.149 0.02696 0.58963 0.0
O25 O 0.17922 0.03663 0.64983 0.0
O26 O 0.13381 0.06053 0.63458 0.0
O27 O 0.17438 0.08451 0.60231 0.0
C28 C 0.14526 0.04413 0.64904 0.0
H29 H 0.1618 0.18633 0.64983 0.0
H30 H 0.18819 0.92853 0.60894 0.0
H31 H 0.28985 0.03185 0.58799 0.0
H32 H 0.30942 0.04242 0.64554 0.0
Co33 Co 0.07235 0.81428 0.38678 0.0
C34 C 0.12893 0.81855 0.35827 0.0
C35 C 0.13878 0.7748 0.37628 0.0
C36 C 0.16283 0.77294 0.36208 0.0
N37 N 0.11701 0.80329 0.37385 0.0
N38 N 0.15638 0.80044 0.35069 0.0
H39 H 0.11635 0.84094 0.35164 0.0
H40 H 0.13566 0.75469 0.38666 0.0
C41 C 0.11652 0.79915 0.42145 0.0
O42 O 0.12089 0.76477 0.41846 0.0
N43 N 0.02787 0.82526 0.39938 0.0
C44 C 0.99476 0.824 0.39208 0.0
C45 C 0.96998 0.83089 0.40544 0.0
C46 C 0.02264 0.83263 0.41718 0.0
N47 N 0.98755 0.83596 0.42117 0.0
C48 C 0.06102 0.74302 0.37425 0.0
C49 C 0.04077 0.71396 0.40725 0.0
C50 C 0.04043 0.6922 0.39175 0.0
C51 C 0.05066 0.70714 0.37506 0.0
C52 C 0.0511 0.74975 0.40581 0.0
N53 N 0.06191 0.76365 0.38955 0.0
H54 H 0.06818 0.7545 0.36126 0.0
H55 H 0.05018 0.76627 0.41783 0.0
H56 H 0.98869 0.81724 0.37815 0.0
H57 H 0.0437 0.83436 0.42721 0.0
O58 O 0.04847 0.82261 0.36372 0.0
O59 O 0.07661 0.86367 0.38025 0.0
O60 O 0.09914 0.81891 0.41041 0.0
C61 C 0.05773 0.85602 0.36593 0.0
H62 H 0.18218 0.75182 0.35985 0.0
H63 H 0.94117 0.83035 0.40393 0.0
H64 H 0.03225 0.70368 0.42032 0.0
H65 H 0.05068 0.69125 0.36275 0.0
Co66 Co 0.7959 0.92623 0.61551 0.0
C67 C 0.79878 0.87698 0.64677 0.0
C68 C 0.83243 0.85922 0.62511 0.0
C69 C 0.84107 0.84021 0.64054 0.0
N70 N 0.80554 0.88222 0.62891 0.0
N71 N 0.82007 0.85178 0.65422 0.0
H72 H 0.7827 0.89473 0.65491 0.0
H73 H 0.84759 0.85905 0.6126 0.0
C74 C 0.79473 0.86952 0.58632 0.0
O75 O 0.77839 0.8468 0.59714 0.0
N76 N 0.78771 0.97028 0.60248 0.0
C77 C 0.76499 0.99685 0.60695 0.0
C78 C 0.76698 0.02305 0.59378 0.0
C79 C 0.80341 0.98063 0.58685 0.0
N80 N 0.79116 0.0128 0.58115 0.0
C81 C 0.72634 0.92139 0.63165 0.0
C82 C 0.68873 0.91652 0.59944 0.0
C83 C 0.66982 0.92058 0.61574 0.0
C84 C 0.6891 0.9221 0.63202 0.0
C85 C 0.72606 0.91568 0.59967 0.0
N86 N 0.74454 0.91791 0.61567 0.0
H87 H 0.74026 0.92644 0.64414 0.0
H88 H 0.73985 0.91604 0.58681 0.0
H89 H 0.7481 0.99706 0.61888 0.0
H90 H 0.823 0.96463 0.57969 0.0
O91 O 0.8009 0.95269 0.63805 0.0
O92 O 0.84489 0.93945 0.61881 0.0
O93 O 0.80232 0.90115 0.59161 0.0
C94 C 0.83484 0.95357 0.63412 0.0
H95 H 0.86312 0.82162 0.6419 0.0
H96 H 0.75205 0.04789 0.59366 0.0
H97 H 0.67497 0.91645 0.58649 0.0
H98 H 0.6756 0.92558 0.64493 0.0
Co99 Co 0.95416 0.19634 0.38688 0.0
C100 C 0.90353 0.19777 0.356 0.0
C101 C 0.88596 0.16178 0.37675 0.0
C102 C 0.86453 0.15723 0.36171 0.0
N103 N 0.91011 0.18784 0.37336 0.0
N104 N 0.87587 0.17971 0.34858 0.0
H105 H 0.92113 0.21452 0.34812 0.0
H106 H 0.88571 0.14494 0.38868 0.0
C107 C 0.89949 0.19055 0.41681 0.0
O108 O 0.8785 0.21267 0.40791 0.0
N109 N 0.99831 0.20389 0.39991 0.0
C110 C 0.02444 0.22708 0.39543 0.0
C111 C 0.05046 0.22589 0.40864 0.0
C112 C 0.00874 0.18875 0.41566 0.0
N113 N 0.04052 0.20186 0.42141 0.0
C114 C 0.94285 0.26895 0.37554 0.0
C115 C 0.94126 0.29829 0.40999 0.0
C116 C 0.94128 0.3213 0.39494 0.0
C117 C 0.94152 0.30608 0.37753 0.0
C118 C 0.94292 0.26128 0.40738 0.0
N119 N 0.94319 0.24688 0.3903 0.0
H120 H 0.94638 0.25837 0.36209 0.0
H121 H 0.94617 0.24447 0.41918 0.0
H122 H 0.02427 0.24411 0.38354 0.0
H123 H 0.99291 0.16928 0.42298 0.0
O124 O 0.97989 0.19908 0.36404 0.0
O125 O 0.97009 0.1494 0.37999 0.0
O126 O 0.93011 0.1822 0.41036 0.0
C127 C 0.98334 0.16454 0.36557 0.0
H128 H 0.84362 0.1374 0.36027 0.0
H129 H 0.07478 0.24159 0.40878 0.0
H130 H 0.94142 0.30874 0.42372 0.0
H131 H 0.94305 0.32267 0.36549 0.0
Co132 Co 0.80499 0.07471 0.12093 0.0
C133 C 0.79376 0.1225 0.15231 0.0
C134 C 0.81134 0.15271 0.12934 0.0
C135 C 0.81151 0.17474 0.14444 0.0
N136 N 0.79981 0.1198 0.13424 0.0
N137 N 0.80055 0.1555 0.15892 0.0
H138 H 0.78775 0.09985 0.16089 0.0
H139 H 0.82192 0.15979 0.11618 0.0
C140 C 0.79714 0.12214 0.08754 0.0
O141 O 0.76539 0.13387 0.09237 0.0
N142 N 0.81112 0.02977 0.10813 0.0
C143 C 0.79651 0.99815 0.11292 0.0
C144 C 0.80303 0.97365 0.09935 0.0
C145 C 0.82671 0.02401 0.09183 0.0
N146 N 0.82178 0.98999 0.08605 0.0
C147 C 0.73091 0.07447 0.13084 0.0
C148 C 0.70506 0.05318 0.09737 0.0
C149 C 0.68136 0.05525 0.11211 0.0
C150 C 0.69462 0.06715 0.12887 0.0
C151 C 0.74114 0.06153 0.09984 0.0
N152 N 0.7538 0.07174 0.11649 0.0
H153 H 0.74066 0.08055 0.1442 0.0
H154 H 0.7592 0.05822 0.08851 0.0
H155 H 0.78085 0.99364 0.12506 0.0
H156 H 0.83968 0.04466 0.08389 0.0
O157 O 0.80732 0.04859 0.14363 0.0
O158 O 0.85356 0.07252 0.12894 0.0
O159 O 0.81462 0.1007 0.09764 0.0
C160 C 0.84158 0.05484 0.1429 0.0
H161 H 0.82104 0.2021 0.14485 0.0
H162 H 0.7939 0.94613 0.09914 0.0
H163 H 0.69632 0.04354 0.08423 0.0
H164 H 0.67738 0.06969 0.14063 0.0
Co165 Co 0.04092 0.18994 0.88208 0.0
C166 C 0.09712 0.19173 0.85391 0.0
C167 C 0.11879 0.20772 0.87957 0.0
C168 C 0.14572 0.20927 0.86661 0.0
N169 N 0.08825 0.19662 0.87152 0.0
N170 N 0.13175 0.19873 0.85064 0.0
H171 H 0.07882 0.18366 0.84333 0.0
H172 H 0.12149 0.21427 0.8938 0.0
C173 C 0.04987 0.19286 0.92289 0.0
O174 O 0.02202 0.21423 0.92415 0.0
N175 N 0.99337 0.18288 0.89208 0.0
C176 C 0.96306 0.20078 0.88807 0.0
C177 C 0.93635 0.18947 0.89957 0.0
C178 C 0.98402 0.15946 0.9052 0.0
N179 N 0.94975 0.16394 0.91059 0.0
C180 C 0.01714 0.25895 0.87012 0.0
C181 C 0.04714 0.29903 0.89769 0.0
C182 C 0.02506 0.31631 0.885 0.0
C183 C 0.01102 0.2958 0.87072 0.0
C184 C 0.05301 0.26211 0.89639 0.0
N185 N 0.03605 0.24204 0.88346 0.0
H186 H 0.00582 0.24392 0.85901 0.0
H187 H 0.0713 0.25008 0.90586 0.0
H188 H 0.96033 0.22146 0.87797 0.0
H189 H 0.00265 0.14102 0.91145 0.0
O190 O 0.02101 0.18128 0.85803 0.0
O191 O 0.04315 0.13986 0.8764 0.0
O192 O 0.06271 0.18481 0.90725 0.0
C193 C 0.02894 0.14773 0.86082 0.0
H194 H 0.17333 0.21687 0.86878 0.0
H195 H 0.90991 0.20112 0.90059 0.0
H196 H 0.05939 0.31364 0.90876 0.0
H197 H 0.99531 0.30802 0.86004 0.0
Co198 Co 0.18979 0.93346 0.1214 0.0
C199 C 0.2088 0.88873 0.15237 0.0
C200 C 0.18272 0.85739 0.13187 0.0
C201 C 0.18549 0.83707 0.14752 0.0
N202 N 0.19723 0.88983 0.13504 0.0
N203 N 0.20138 0.85716 0.16046 0.0
H204 H 0.21982 0.91171 0.15939 0.0
H205 H 0.16827 0.85015 0.11969 0.0
C206 C 0.20575 0.91391 0.08304 0.0
O207 O 0.22792 0.94126 0.08284 0.0
N208 N 0.18083 0.97797 0.10804 0.0
C209 C 0.18638 0.0118 0.11387 0.0
C210 C 0.17471 0.03544 0.10085 0.0
C211 C 0.16362 0.98195 0.09196 0.0
N212 N 0.16078 0.0167 0.08688 0.0
C213 C 0.25699 0.96862 0.12852 0.0
C214 C 0.29936 0.91727 0.11204 0.0
C215 C 0.31523 0.94847 0.11875 0.0
C216 C 0.2939 0.97383 0.12762 0.0
C217 C 0.26247 0.91282 0.11362 0.0
N218 N 0.24143 0.93961 0.12048 0.0
H219 H 0.24118 0.9876 0.13601 0.0
H220 H 0.25068 0.88805 0.10895 0.0
H221 H 0.19652 0.01937 0.12702 0.0
H222 H 0.15307 0.95985 0.08417 0.0
O223 O 0.18011 0.95827 0.14393 0.0
O224 O 0.13962 0.9304 0.12681 0.0
O225 O 0.18927 0.90574 0.09773 0.0
C226 C 0.14719 0.94817 0.14153 0.0
H227 H 0.17375 0.81091 0.1497 0.0
H228 H 0.17568 0.06433 0.10194 0.0
H229 H 0.31536 0.89648 0.10574 0.0
H230 H 0.30558 0.99768 0.13355 0.0
Co231 Co 0.95167 0.81689 0.88252 0.0
C232 C 0.89708 0.81369 0.85353 0.0
C233 C 0.88332 0.85164 0.87414 0.0
C234 C 0.86139 0.85717 0.85937 0.0
N235 N 0.90571 0.82407 0.8706 0.0
N236 N 0.86997 0.833 0.84655 0.0
H237 H 0.91347 0.79653 0.84518 0.0
H238 H 0.88572 0.86957 0.88561 0.0
C239 C 0.90174 0.82471 0.91456 0.0
O240 O 0.87903 0.80205 0.90723 0.0
N241 N 0.99747 0.81123 0.89417 0.0
C242 C 0.02239 0.78602 0.8909 0.0
C243 C 0.04923 0.78958 0.90362 0.0
C244 C 0.00955 0.83004 0.90851 0.0
N245 N 0.041 0.81719 0.91477 0.0
C246 C 0.93896 0.74357 0.87263 0.0
C247 C 0.94539 0.71577 0.90728 0.0
C248 C 0.94229 0.6922 0.89255 0.0
C249 C 0.93833 0.70653 0.87511 0.0
C250 C 0.94524 0.75276 0.90423 0.0
N251 N 0.94199 0.76636 0.88705 0.0
H252 H 0.93969 0.75352 0.85897 0.0
H253 H 0.95022 0.77029 0.91562 0.0
H254 H 0.02045 0.76564 0.8805 0.0
H255 H 0.99522 0.85236 0.91439 0.0
O256 O 0.97438 0.81343 0.85883 0.0
O257 O 0.96575 0.86362 0.87456 0.0
O258 O 0.93105 0.83214 0.90654 0.0
C259 C 0.97743 0.84813 0.85991 0.0
H260 H 0.84337 0.87955 0.85743 0.0
H261 H 0.07218 0.77212 0.90497 0.0
H262 H 0.94914 0.70571 0.92094 0.0
H263 H 0.93718 0.68922 0.8633 0.0
H264 H 0.14536 0.90265 0.58809 0.0
H265 H 0.13759 0.87297 0.55872 0.0
H266 H 0.15666 0.97335 0.53131 0.0
H267 H 0.16419 0.00316 0.56064 0.0
H268 H 0.10425 0.93749 0.51506 0.0
H269 H 0.22282 0.90976 0.53535 0.0
H270 H 0.26835 0.88762 0.55681 0.0
H271 H 0.22038 0.78308 0.55581 0.0
H272 H 0.17423 0.80475 0.53453 0.0
H273 H 0.13575 0.86823 0.4277 0.0
H274 H 0.14591 0.89719 0.457 0.0
H275 H 0.12961 0.79602 0.48417 0.0
H276 H 0.12103 0.76659 0.4547 0.0
H277 H 0.18023 0.83219 0.50072 0.0
H278 H 0.06398 0.86085 0.47743 0.0
H279 H 0.01932 0.88527 0.45626 0.0
H280 H 0.06345 0.99054 0.46259 0.0
H281 H 0.10901 0.96681 0.4836 0.0
C282 C 0.14782 0.91838 0.5758 0.0
C283 C 0.15569 0.95519 0.57672 0.0
C284 C 0.14342 0.9014 0.55902 0.0
C285 C 0.14725 0.92076 0.54277 0.0
C286 C 0.15369 0.9578 0.54365 0.0
C287 C 0.15787 0.97486 0.56045 0.0
C288 C 0.14544 0.90226 0.52487 0.0
C289 C 0.12123 0.9148 0.51179 0.0
C290 C 0.16705 0.87214 0.52077 0.0
C291 C 0.19487 0.85897 0.53349 0.0
C292 C 0.22183 0.88212 0.53981 0.0
C293 C 0.24777 0.86964 0.55193 0.0
C294 C 0.24721 0.83399 0.55771 0.0
C295 C 0.22075 0.81071 0.55134 0.0
C296 C 0.19471 0.82306 0.53924 0.0
C297 C 0.13492 0.85206 0.43991 0.0
C298 C 0.12744 0.81519 0.43895 0.0
C299 C 0.14049 0.86868 0.45667 0.0
C300 C 0.13755 0.84902 0.47287 0.0
C301 C 0.13179 0.81182 0.47188 0.0
C302 C 0.12696 0.79499 0.45504 0.0
C303 C 0.13907 0.86747 0.49079 0.0
C304 C 0.16325 0.85492 0.50391 0.0
C305 C 0.11755 0.8978 0.49484 0.0
C306 C 0.09035 0.91191 0.48195 0.0
C307 C 0.06463 0.88911 0.47412 0.0
C308 C 0.03901 0.90285 0.46219 0.0
C309 C 0.03862 0.93933 0.45801 0.0
C310 C 0.06385 0.96224 0.4658 0.0
C311 C 0.08957 0.94868 0.47773 0.0
H312 H 0.01869 0.94986 0.44879 0.0
H313 H 0.26731 0.82438 0.56709 0.0
H314 H 0.79712 0.90964 0.55577 0.0
H315 H 0.82801 0.89534 0.52737 0.0
H316 H 0.85542 0.79104 0.54837 0.0
H317 H 0.82344 0.80489 0.57678 0.0
H318 H 0.91496 0.84015 0.53528 0.0
H319 H 0.80484 0.78581 0.5165 0.0
H320 H 0.73957 0.78318 0.51194 0.0
H321 H 0.74497 0.87429 0.47643 0.0
H322 H 0.81024 0.87781 0.48099 0.0
H323 H 0.00506 0.79944 0.45154 0.0
H324 H 0.97223 0.7995 0.48038 0.0
H325 H 0.90118 0.88077 0.45931 0.0
H326 H 0.933 0.87912 0.43026 0.0
H327 H 0.86298 0.83321 0.47343 0.0
H328 H 0.96433 0.90001 0.49919 0.0
H329 H 0.02706 0.91268 0.50747 0.0
H330 H 0.03757 0.80682 0.52969 0.0
H331 H 0.97438 0.79416 0.52224 0.0
C332 C 0.80896 0.88332 0.55414 0.0
C333 C 0.80784 0.85826 0.56836 0.0
C334 C 0.82657 0.87522 0.53795 0.0
C335 C 0.84393 0.84219 0.53585 0.0
C336 C 0.84199 0.81661 0.54979 0.0
C337 C 0.82357 0.82442 0.56589 0.0
C338 C 0.86652 0.83617 0.51965 0.0
C339 C 0.90374 0.83777 0.52173 0.0
C340 C 0.85167 0.83437 0.50206 0.0
C341 C 0.81243 0.83222 0.49919 0.0
C342 C 0.79209 0.80547 0.50784 0.0
C343 C 0.75509 0.80378 0.50522 0.0
C344 C 0.73812 0.82859 0.49393 0.0
C345 C 0.75815 0.85509 0.48518 0.0
C346 C 0.79516 0.85692 0.48775 0.0
C347 C 0.98275 0.81763 0.45328 0.0
C348 C 0.97133 0.83922 0.43878 0.0
C349 C 0.96411 0.81788 0.46979 0.0
C350 C 0.93421 0.84031 0.47217 0.0
C351 C 0.9239 0.86297 0.45784 0.0
C352 C 0.94206 0.86216 0.44127 0.0
C353 C 0.91181 0.83833 0.48889 0.0
C354 C 0.87449 0.83511 0.48692 0.0
C355 C 0.92652 0.83947 0.5066 0.0
C356 C 0.96496 0.846 0.50994 0.0
C357 C 0.98017 0.87938 0.5057 0.0
C358 C 0.01566 0.88665 0.5104 0.0
C359 C 0.0364 0.86043 0.51893 0.0
C360 C 0.02154 0.82703 0.523 0.0
C361 C 0.98581 0.81991 0.51871 0.0
H362 H 0.0639 0.86602 0.5225 0.0
H363 H 0.70948 0.82723 0.49192 0.0
H364 H 0.85411 0.00779 0.56287 0.0
H365 H 0.87121 0.03985 0.53529 0.0
H366 H 0.76929 0.094 0.53505 0.0
H367 H 0.75157 0.06124 0.56237 0.0
H368 H 0.78695 0.07046 0.50148 0.0
H369 H 0.84438 0.13721 0.54891 0.0
H370 H 0.88264 0.14585 0.57582 0.0
H371 H 0.97334 0.10601 0.54623 0.0
H372 H 0.9355 0.09662 0.5192 0.0
H373 H 0.8355 0.19987 0.43455 0.0
H374 H 0.81605 0.17166 0.46292 0.0
H375 H 0.917 0.11617 0.46666 0.0
H376 H 0.93679 0.14447 0.43855 0.0
H377 H 0.89829 0.14265 0.49892 0.0
H378 H 0.84139 0.07344 0.45212 0.0
H379 H 0.80379 0.06365 0.42507 0.0
H380 H 0.71291 0.10683 0.45329 0.0
H381 H 0.75012 0.11736 0.48044 0.0
C382 C 0.83518 0.02628 0.55691 0.0
C383 C 0.80146 0.03196 0.56492 0.0
C384 C 0.84514 0.04487 0.54121 0.0
C385 C 0.8217 0.06968 0.53322 0.0
C386 C 0.78788 0.07512 0.54103 0.0
C387 C 0.77791 0.05658 0.55676 0.0
C388 C 0.83237 0.08967 0.51661 0.0
C389 C 0.811 0.08671 0.501 0.0
C390 C 0.86418 0.11022 0.51585 0.0
C391 C 0.88701 0.1159 0.53208 0.0
C392 C 0.87242 0.13001 0.54818 0.0
C393 C 0.89404 0.13509 0.56345 0.0
C394 C 0.93038 0.1264 0.56275 0.0
C395 C 0.94518 0.11268 0.54676 0.0
C396 C 0.92366 0.1075 0.53146 0.0
C397 C 0.8536 0.18175 0.44144 0.0
C398 C 0.88768 0.17439 0.43422 0.0
C399 C 0.84238 0.16552 0.45762 0.0
C400 C 0.86492 0.14148 0.46683 0.0
C401 C 0.89913 0.1346 0.45981 0.0
C402 C 0.91036 0.15078 0.44367 0.0
C403 C 0.85299 0.12328 0.48376 0.0
C404 C 0.87414 0.12656 0.49942 0.0
C405 C 0.82108 0.10289 0.48454 0.0
C406 C 0.79864 0.09656 0.46824 0.0
C407 C 0.81346 0.08114 0.45251 0.0
C408 C 0.79221 0.0754 0.43716 0.0
C409 C 0.75601 0.08471 0.43744 0.0
C410 C 0.74097 0.0997 0.45308 0.0
C411 C 0.76212 0.10554 0.46846 0.0
H412 H 0.73959 0.08024 0.42555 0.0
H413 H 0.94708 0.13037 0.57459 0.0
H414 H 0.2163 0.16501 0.57309 0.0
H415 H 0.19505 0.18305 0.54287 0.0
H416 H 0.11854 0.09663 0.54342 0.0
H417 H 0.13871 0.07908 0.5735 0.0
H418 H 0.15841 0.10211 0.51061 0.0
H419 H 0.08945 0.17598 0.55202 0.0
H420 H 0.08219 0.22017 0.57666 0.0
H421 H 0.14065 0.29803 0.54559 0.0
H422 H 0.14869 0.25408 0.52086 0.0
H423 H 0.03359 0.1415 0.44183 0.0
H424 H 0.06369 0.12794 0.47037 0.0
H425 H 0.12073 0.22824 0.4673 0.0
H426 H 0.08959 0.24275 0.43915 0.0
H427 H 0.09717 0.21837 0.50053 0.0
H428 H 0.162 0.14821 0.45798 0.0
H429 H 0.17146 0.105 0.43311 0.0
H430 H 0.12542 0.02132 0.46554 0.0
H431 H 0.11491 0.06415 0.49051 0.0
C432 C 0.19497 0.14987 0.56676 0.0
C433 C 0.17938 0.12045 0.57573 0.0
C434 C 0.18287 0.16021 0.54952 0.0
C435 C 0.1553 0.14107 0.54093 0.0
C436 C 0.14 0.11159 0.54977 0.0
C437 C 0.15163 0.10162 0.56703 0.0
C438 C 0.14169 0.15176 0.52282 0.0
C439 C 0.1448 0.12741 0.50838 0.0
C440 C 0.12493 0.18521 0.51986 0.0
C441 C 0.12006 0.21162 0.5347 0.0
C442 C 0.10106 0.20241 0.55052 0.0
C443 C 0.09674 0.22744 0.56449 0.0
C444 C 0.11106 0.26185 0.56272 0.0
C445 C 0.12964 0.27134 0.54696 0.0
C446 C 0.13408 0.24639 0.53296 0.0
C447 C 0.05231 0.16086 0.44723 0.0
C448 C 0.05911 0.19324 0.43806 0.0
C449 C 0.06985 0.15286 0.46349 0.0
C450 C 0.09489 0.17684 0.47088 0.0
C451 C 0.10166 0.20922 0.46183 0.0
C452 C 0.08402 0.21733 0.4456 0.0
C453 C 0.11333 0.16844 0.48825 0.0
C454 C 0.11112 0.1932 0.5026 0.0
C455 C 0.13129 0.13548 0.49107 0.0
C456 C 0.13734 0.10954 0.47607 0.0
C457 C 0.15353 0.12067 0.45976 0.0
C458 C 0.15911 0.09623 0.44565 0.0
C459 C 0.14889 0.06045 0.44773 0.0
C460 C 0.13315 0.04905 0.46394 0.0
C461 C 0.12739 0.07341 0.47809 0.0
H462 H 0.15328 0.04154 0.4368 0.0
H463 H 0.10767 0.28119 0.57355 0.0
H464 H 0.84302 0.81585 0.93666 0.0
H465 H 0.83012 0.84698 0.96524 0.0
H466 H 0.9286 0.90644 0.96013 0.0
H467 H 0.94195 0.87519 0.93194 0.0
H468 H 0.9219 0.8845 0.9934 0.0
H469 H 0.84672 0.9453 0.95145 0.0
H470 H 0.80104 0.95228 0.92757 0.0
H471 H 0.72184 0.90598 0.96273 0.0
H472 H 0.76719 0.89823 0.98674 0.0
H473 H 0.87737 0.00916 0.06433 0.0
H474 H 0.89208 0.98435 0.03437 0.0
H475 H 0.80161 0.91299 0.03813 0.0
H476 H 0.78642 0.93803 0.06774 0.0
H477 H 0.80611 0.94544 0.00485 0.0
H478 H 0.88581 0.88343 0.04652 0.0
H479 H 0.93313 0.88036 0.0698 0.0
H480 H 0.00589 0.93456 0.03394 0.0
H481 H 0.9588 0.93841 0.01055 0.0
C482 C 0.86191 0.83553 0.94164 0.0
C483 C 0.8935 0.84295 0.93198 0.0
C484 C 0.85442 0.85348 0.95793 0.0
C485 C 0.8782 0.87941 0.96476 0.0
C486 C 0.90983 0.8866 0.95518 0.0
C487 C 0.91738 0.86864 0.93899 0.0
C488 C 0.87063 0.89858 0.98206 0.0
C489 C 0.89673 0.89821 0.99578 0.0
C490 C 0.83779 0.91643 0.98526 0.0
C491 C 0.81046 0.92081 0.97082 0.0
C492 C 0.81964 0.93628 0.95403 0.0
C493 C 0.79379 0.94045 0.94048 0.0
C494 C 0.75858 0.92948 0.94361 0.0
C495 C 0.74914 0.9144 0.96031 0.0
C496 C 0.7749 0.91014 0.9739 0.0
C497 C 0.8606 0.98825 0.05873 0.0
C498 C 0.83095 0.9753 0.06852 0.0
C499 C 0.86915 0.97396 0.04168 0.0
C500 C 0.84813 0.94656 0.03412 0.0
C501 C 0.81827 0.93402 0.04374 0.0
C502 C 0.80984 0.94811 0.06077 0.0
C503 C 0.85704 0.93059 0.01622 0.0
C504 C 0.83126 0.93174 0.00238 0.0
C505 C 0.89038 0.91395 0.0128 0.0
C506 C 0.91867 0.91155 0.02687 0.0
C507 C 0.9118 0.89496 0.04366 0.0
C508 C 0.9386 0.89303 0.05687 0.0
C509 C 0.97246 0.90735 0.05338 0.0
C510 C 0.97963 0.92354 0.03665 0.0
C511 C 0.9529 0.92559 0.02341 0.0
H512 H 0.99317 0.90581 0.06361 0.0
H513 H 0.7386 0.93275 0.93311 0.0
H514 H 0.76185 0.14214 0.05642 0.0
H515 H 0.78766 0.14745 0.0258 0.0
H516 H 0.89245 0.12496 0.04748 0.0
H517 H 0.86707 0.11967 0.07787 0.0
H518 H 0.89426 0.17922 0.02308 0.0
H519 H 0.84737 0.06077 0.02768 0.0
H520 H 0.80197 0.01399 0.03293 0.0
H521 H 0.73979 0.054 0.98838 0.0
H522 H 0.78413 0.10188 0.98321 0.0
H523 H 0.98485 0.14496 0.9413 0.0
H524 H 0.95916 0.13739 0.9712 0.0
H525 H 0.85316 0.14884 0.94877 0.0
H526 H 0.87915 0.15735 0.91854 0.0
H527 H 0.85249 0.09863 0.97385 0.0
H528 H 0.90106 0.21974 0.97087 0.0
H529 H 0.94977 0.26311 0.96551 0.0
H530 H 0.01259 0.21323 0.00726 0.0
H531 H 0.96443 0.1693 0.01271 0.0
C532 C 0.79045 0.13899 0.05466 0.0
C533 C 0.81242 0.13048 0.06951 0.0
C534 C 0.8051 0.14167 0.03718 0.0
C535 C 0.84191 0.13616 0.03438 0.0
C536 C 0.864 0.12921 0.04933 0.0
C537 C 0.84941 0.12619 0.06668 0.0
C538 C 0.85763 0.137 0.0159 0.0
C539 C 0.88523 0.16147 0.01234 0.0
C540 C 0.84588 0.11377 1.00192 0.0
C541 C 0.81888 0.08528 0.00521 0.0
C542 C 0.82379 0.05995 0.01915 0.0
C543 C 0.79831 0.03314 0.02208 0.0
C544 C 0.7681 0.03097 0.01099 0.0
C545 C 0.7632 0.05573 0.99698 0.0
C546 C 0.78845 0.08278 0.99407 0.0
C547 C 0.95609 0.14523 0.94257 0.0
C548 C 0.93413 0.15235 0.92751 0.0
C549 C 0.94131 0.14089 0.9598 0.0
C550 C 0.90415 0.14279 0.96236 0.0
C551 C 0.88194 0.14745 0.94717 0.0
C552 C 0.8968 0.15239 0.92991 0.0
C553 C 0.88852 0.14146 0.98091 0.0
C554 C 0.86117 0.11666 0.98454 0.0
C555 C 0.90075 0.16411 0.99506 0.0
C556 C 0.92921 0.1912 0.99215 0.0
C557 C 0.92528 0.21803 0.97889 0.0
C558 C 0.9528 0.24268 0.97583 0.0
C559 C 0.98423 0.24095 0.98605 0.0
C560 C 0.98819 0.2146 0.99939 0.0
C561 C 0.96079 0.18984 0.00248 0.0
H562 H 0.00555 0.25998 0.98362 0.0
H563 H 0.74851 0.01007 0.01324 0.0
H564 H 0.1018 0.14116 0.92484 0.0
H565 H 0.11765 0.10406 0.95094 0.0
H566 H 0.04113 0.16102 0.98398 0.0
H567 H 0.02502 0.19823 0.95789 0.0
H568 H 0.14713 0.11924 0.98122 0.0
H569 H 0.0072 0.10455 0.01726 0.0
H570 H 0.94441 0.09 0.01006 0.0
H571 H 0.97657 0.0486 0.95813 0.0
H572 H 0.03951 0.06281 0.96501 0.0
H573 H 0.17238 0.08331 0.073 0.0
H574 H 0.15218 0.10691 0.04412 0.0
H575 H 0.10077 0.00633 0.03192 0.0
H576 H 0.11963 0.98267 0.06134 0.0
H577 H 0.05918 0.05964 0.02165 0.0
H578 H 0.17904 0.02783 0.01142 0.0
H579 H 0.24385 0.02359 0.01718 0.0
H580 H 0.25354 0.13788 0.01253 0.0
H581 H 0.18864 0.14289 0.00701 0.0
C582 C 0.08853 0.1461 0.93769 0.0
C583 C 0.06227 0.17294 0.93924 0.0
C584 C 0.09747 0.12464 0.9526 0.0
C585 C 0.08028 0.12931 0.96943 0.0
C586 C 0.05435 0.15638 0.97109 0.0
C587 C 0.04554 0.17804 0.9562 0.0
C588 C 0.09126 0.10761 0.98551 0.0
C589 C 0.12777 0.10626 0.99001 0.0
C590 C 0.06631 0.08943 0.99675 0.0
C591 C 0.02814 0.08492 0.99164 0.0
C592 C 0.00086 0.09255 0.00425 0.0
C593 C 0.96525 0.08413 1.00028 0.0
C594 C 0.95658 0.06787 0.98377 0.0
C595 C 0.98337 0.06089 0.97099 0.0
C596 C 0.01899 0.06942 0.97486 0.0
C597 C 0.15634 0.06613 0.06445 0.0
C598 C 0.14771 0.03091 0.06978 0.0
C599 C 0.14514 0.07966 0.04772 0.0
C600 C 0.12539 0.05829 0.03567 0.0
C601 C 0.11611 0.02333 0.04095 0.0
C602 C 0.1272 0.00974 0.0578 0.0
C603 C 0.1146 0.07286 0.01764 0.0
C604 C 0.07832 0.07281 0.0128 0.0
C605 C 0.1398 0.08851 0.00568 0.0
C606 C 0.1789 0.08576 0.00895 0.0
C607 C 0.19493 0.0521 0.01176 0.0
C608 C 0.2317 0.04955 0.01496 0.0
C609 C 0.25279 0.08045 0.01526 0.0
C610 C 0.23716 0.11397 0.01231 0.0
C611 C 0.20038 0.11668 0.00913 0.0
H612 H 0.28125 0.07843 0.01773 0.0
H613 H 0.92903 0.06122 0.98075 0.0
H614 H 0.01437 0.85474 0.94355 0.0
H615 H 0.04585 0.8713 0.97126 0.0
H616 H 0.14176 0.82093 0.95107 0.0
H617 H 0.11081 0.80494 0.92303 0.0
H618 H 0.1253 0.79996 0.98578 0.0
H619 H 0.13403 0.91028 0.95198 0.0
H620 H 0.1129 0.96372 0.93549 0.0
H621 H 0.05428 0.99788 0.9826 0.0
H622 H 0.07434 0.94426 0.99925 0.0
H623 H 0.23124 0.92952 0.04925 0.0
H624 H 0.20648 0.91084 0.02013 0.0
H625 H 0.12899 0.84481 0.04779 0.0
H626 H 0.15369 0.86333 0.07713 0.0
H627 H 0.13849 0.92414 0.00884 0.0
H628 H 0.10798 0.77438 0.01887 0.0
H629 H 0.131 0.72252 0.03604 0.0
H630 H 0.23607 0.76904 0.03634 0.0
H631 H 0.21377 0.82094 0.01897 0.0
C632 C 0.04232 0.84768 0.94474 0.0
C633 C 0.05997 0.82841 0.9309 0.0
C634 C 0.06025 0.85712 0.9607 0.0
C635 C 0.09616 0.84747 0.9632 0.0
C636 C 0.11398 0.82854 0.94942 0.0
C637 C 0.09616 0.81929 0.93341 0.0
C638 C 0.11477 0.85577 0.98047 0.0
C639 C 0.12821 0.82714 0.99081 0.0
C640 C 0.11843 0.89124 0.98706 0.0
C641 C 0.10534 0.9229 0.97679 0.0
C642 C 0.11618 0.92887 0.95874 0.0
C643 C 0.10447 0.95928 0.94938 0.0
C644 C 0.08215 0.98412 0.95796 0.0
C645 C 0.07145 0.97858 0.97593 0.0
C646 C 0.08296 0.94815 0.98533 0.0
C647 C 0.20932 0.91054 0.0492 0.0
C648 C 0.19435 0.89802 0.06555 0.0
C649 C 0.1951 0.90003 0.03251 0.0
C650 C 0.16586 0.87655 0.0318 0.0
C651 C 0.15175 0.86277 0.04805 0.0
C652 C 0.16592 0.87337 0.0648 0.0
C653 C 0.14892 0.86837 0.01409 0.0
C654 C 0.13555 0.89699 0.00377 0.0
C655 C 0.1452 0.83296 0.00755 0.0
C656 C 0.1591 0.80168 0.01777 0.0
C657 C 0.13602 0.77346 0.02254 0.0
C658 C 0.14894 0.74408 0.03231 0.0
C659 C 0.18495 0.74254 0.03732 0.0
C660 C 0.20815 0.77033 0.03251 0.0
C661 C 0.19537 0.79976 0.02272 0.0
H662 H 0.1949 0.71978 0.04491 0.0
H663 H 0.07325 0.00771 0.9507 0.0
H664 H 0.61805 0.88721 0.59538 0.0
H665 H 0.55418 0.90213 0.59403 0.0
H666 H 0.57013 0.98498 0.63412 0.0
H667 H 0.63353 0.97048 0.63546 0.0
H668 H 0.51105 0.94696 0.64129 0.0
H669 H 0.56466 0.00453 0.58904 0.0
H670 H 0.59887 0.00604 0.56039 0.0
H671 H 0.52294 0.93474 0.53572 0.0
H672 H 0.48854 0.93242 0.56433 0.0
H673 H 0.36543 0.06322 0.63224 0.0
H674 H 0.426 0.03882 0.63054 0.0
H675 H 0.38994 0.95788 0.59295 0.0
H676 H 0.32908 0.98177 0.59476 0.0
H677 H 0.45614 0.98752 0.58347 0.0
H678 H 0.39965 0.9347 0.63533 0.0
H679 H 0.36535 0.93484 0.66395 0.0
H680 H 0.447 0.99824 0.68944 0.0
H681 H 0.48154 0.99895 0.66086 0.0
C682 C 0.60783 0.90853 0.60392 0.0
C683 C 0.63078 0.92751 0.61561 0.0
C684 C 0.57142 0.91701 0.60314 0.0
C685 C 0.55753 0.94481 0.6139 0.0
C686 C 0.58027 0.96328 0.62579 0.0
C687 C 0.6165 0.95481 0.6266 0.0
C688 C 0.51951 0.95553 0.61267 0.0
C689 C 0.49912 0.95601 0.62867 0.0
C690 C 0.50371 0.96646 0.5961 0.0
C691 C 0.52428 0.96796 0.57888 0.0
C692 C 0.55543 0.98894 0.57755 0.0
C693 C 0.57482 0.98998 0.56131 0.0
C694 C 0.56315 0.9704 0.54626 0.0
C695 C 0.53199 0.94982 0.5474 0.0
C696 C 0.51253 0.94865 0.56362 0.0
C697 C 0.37038 0.04026 0.62358 0.0
C698 C 0.34242 0.02424 0.61375 0.0
C699 C 0.40497 0.02643 0.62259 0.0
C700 C 0.41221 0.99627 0.61182 0.0
C701 C 0.38479 0.98116 0.60135 0.0
C702 C 0.3501 0.99495 0.60235 0.0
C703 C 0.44813 0.97976 0.61217 0.0
C704 C 0.46801 0.97807 0.59603 0.0
C705 C 0.46356 0.9678 0.62863 0.0
C706 C 0.44305 0.9671 0.6459 0.0
C707 C 0.41017 0.94888 0.647 0.0
C708 C 0.3907 0.94878 0.66322 0.0
C709 C 0.40396 0.9666 0.67849 0.0
C710 C 0.43676 0.98447 0.67759 0.0
C711 C 0.45631 0.9847 0.66139 0.0
H712 H 0.38884 0.96649 0.69104 0.0
H713 H 0.57819 0.97125 0.5337 0.0
H714 H 0.99533 0.65643 0.36886 0.0
H715 H 0.97556 0.59405 0.37105 0.0
H716 H 0.03863 0.58041 0.4196 0.0
H717 H 0.05894 0.64264 0.41735 0.0
H718 H 0.04725 0.52516 0.39509 0.0
H719 H 0.95053 0.58952 0.42321 0.0
H720 H 0.90353 0.63576 0.42492 0.0
H721 H 0.85159 0.59028 0.3783 0.0
H722 H 0.89859 0.54405 0.37614 0.0
H723 H 0.98159 0.35699 0.42019 0.0
H724 H 0.99401 0.42096 0.42161 0.0
H725 H 0.92489 0.43883 0.37561 0.0
H726 H 0.91065 0.37491 0.37469 0.0
H727 H 0.91882 0.49244 0.39946 0.0
H728 H 0.01524 0.43023 0.37015 0.0
H729 H 0.06227 0.38423 0.36727 0.0
H730 H 0.11503 0.4261 0.41453 0.0
H731 H 0.068 0.47206 0.41784 0.0
C732 C 0.00517 0.64005 0.37992 0.0
C733 C 0.02867 0.65436 0.39294 0.0
C734 C 0.99361 0.60456 0.38124 0.0
C735 C 0.00537 0.5828 0.39559 0.0
C736 C 0.02915 0.59687 0.40848 0.0
C737 C 0.04055 0.63241 0.40723 0.0
C738 C 0.99334 0.54513 0.39697 0.0
C739 C 0.01922 0.51799 0.39633 0.0
C740 C 0.95669 0.53589 0.39807 0.0
C741 C 0.92827 0.56352 0.39942 0.0
C742 C 0.92924 0.58954 0.41323 0.0
C743 C 0.90257 0.61572 0.4143 0.0
C744 C 0.87464 0.61601 0.4017 0.0
C745 C 0.87327 0.59005 0.38804 0.0
C746 C 0.89989 0.56383 0.3869 0.0
C747 C 0.96813 0.37453 0.41068 0.0
C748 C 0.94528 0.36068 0.39722 0.0
C749 C 0.97567 0.41111 0.41138 0.0
C750 C 0.96104 0.43451 0.39845 0.0
C751 C 0.93671 0.42117 0.38562 0.0
C752 C 0.92886 0.38459 0.38502 0.0
C753 C 0.97276 0.47242 0.39765 0.0
C754 C 0.94686 0.4996 0.39832 0.0
C755 C 0.00941 0.48175 0.3964 0.0
C756 C 0.03791 0.45435 0.39434 0.0
C757 C 0.03674 0.42947 0.38 0.0
C758 C 0.06341 0.40343 0.37828 0.0
C759 C 0.09157 0.40219 0.39074 0.0
C760 C 0.09317 0.42706 0.4049 0.0
C761 C 0.06653 0.45313 0.4067 0.0
H762 H 0.11219 0.382 0.38939 0.0
H763 H 0.85402 0.6363 0.40255 0.0
H764 H 0.64203 0.01922 0.13757 0.0
H765 H 0.58077 0.99854 0.13533 0.0
H766 H 0.57466 0.03831 0.08037 0.0
H767 H 0.63556 0.06179 0.08299 0.0
H768 H 0.5157 0.05319 0.09685 0.0
H769 H 0.58277 0.94677 0.09003 0.0
H770 H 0.62907 0.90161 0.09667 0.0
H771 H 0.58 0.87984 0.14826 0.0
H772 H 0.53368 0.92526 0.14206 0.0
H773 H 0.35208 0.95043 0.08702 0.0
H774 H 0.41563 0.96516 0.08275 0.0
H775 H 0.42839 0.97488 0.14077 0.0
H776 H 0.36464 0.9612 0.14506 0.0
H777 H 0.4838 0.93088 0.11787 0.0
H778 H 0.42139 0.04623 0.124 0.0
H779 H 0.37458 0.08914 0.11486 0.0
H780 H 0.41562 0.08965 0.06036 0.0
H781 H 0.46237 0.04626 0.06914 0.0
C782 C 0.62762 0.0243 0.12508 0.0
C783 C 0.64381 0.04251 0.1105 0.0
C784 C 0.59268 0.01175 0.1237 0.0
C785 C 0.57334 0.01609 0.10754 0.0
C786 C 0.58921 0.03437 0.09294 0.0
C787 C 0.62413 0.04753 0.09441 0.0
C788 C 0.53617 0.00243 0.1063 0.0
C789 C 0.50892 0.0262 0.1011 0.0
C790 C 0.52714 0.96716 0.11182 0.0
C791 C 0.55484 0.93962 0.11561 0.0
C792 C 0.58197 0.93253 0.10285 0.0
C793 C 0.60821 0.90686 0.10653 0.0
C794 C 0.60751 0.88791 0.12289 0.0
C795 C 0.58051 0.89454 0.13559 0.0
C796 C 0.55422 0.92022 0.13199 0.0
C797 C 0.36864 0.95543 0.09882 0.0
C798 C 0.3538 0.95481 0.11635 0.0
C799 C 0.40472 0.96383 0.09638 0.0
C800 C 0.42639 0.97102 0.11147 0.0
C801 C 0.41189 0.96927 0.12901 0.0
C802 C 0.37565 0.96164 0.13144 0.0
C803 C 0.4639 0.98198 0.10898 0.0
C804 C 0.49099 0.95763 0.1134 0.0
C805 C 0.47285 0.01633 0.10236 0.0
C806 C 0.44505 0.04269 0.09716 0.0
C807 C 0.4202 0.05523 0.11003 0.0
C808 C 0.39374 0.07969 0.10492 0.0
C809 C 0.39205 0.09203 0.08702 0.0
C810 C 0.41692 0.08002 0.07421 0.0
C811 C 0.4434 0.05551 0.07924 0.0
H812 H 0.37154 0.11097 0.0831 0.0
H813 H 0.62785 0.86805 0.12572 0.0
H814 H 0.068 0.37126 0.89742 0.0
H815 H 0.05237 0.43458 0.90068 0.0
H816 H 0.94739 0.41328 0.87907 0.0
H817 H 0.96192 0.34979 0.87656 0.0
H818 H 0.98427 0.47296 0.86287 0.0
H819 H 0.95282 0.42549 0.92184 0.0
H820 H 0.96475 0.39306 0.95037 0.0
H821 H 0.04846 0.46753 0.96342 0.0
H822 H 0.03737 0.50011 0.9348 0.0
H823 H 0.9011 0.6384 0.87863 0.0
H824 H 0.91356 0.57402 0.87929 0.0
H825 H 0.0079 0.59359 0.91157 0.0
H826 H 0.99486 0.65785 0.91139 0.0
H827 H 0.97769 0.53436 0.92259 0.0
H828 H 0.01217 0.58152 0.86488 0.0
H829 H 0.00442 0.61445 0.83611 0.0
H830 H 0.92137 0.54152 0.82011 0.0
H831 H 0.92825 0.50845 0.84892 0.0
C832 C 0.04139 0.37982 0.89359 0.0
C833 C 0.01629 0.35517 0.88669 0.0
C834 C 0.03261 0.4161 0.89537 0.0
C835 C -0.00127 0.42849 0.89014 0.0
C836 C 0.97376 0.4042 0.8831 0.0
C837 C 0.98228 0.36791 0.88155 0.0
C838 C 0.98929 0.46688 0.89182 0.0
C839 C 0.98236 0.48634 0.87592 0.0
C840 C 0.98797 0.48444 0.90883 0.0
C841 C 0.99452 0.465 0.92608 0.0
C842 C 0.97399 0.43476 0.93071 0.0
C843 C 0.98055 0.41639 0.94691 0.0
C844 C 0.00741 0.42817 0.95868 0.0
C845 C 0.0277 0.45841 0.95428 0.0
C846 C 0.02126 0.47685 0.93807 0.0
C847 C 0.9242 0.62883 0.88606 0.0
C848 C 0.94709 0.65306 0.8949 0.0
C849 C 0.93143 0.59211 0.88636 0.0
C850 C 0.96216 0.579 0.89512 0.0
C851 C 0.98411 0.60303 0.90468 0.0
C852 C 0.97659 0.63973 0.9046 0.0
C853 C 0.97228 0.54058 0.89361 0.0
C854 C 0.97951 0.52109 0.90951 0.0
C855 C 0.97453 0.52308 0.87655 0.0
C856 C 0.97048 0.54273 0.85914 0.0
C857 C 0.99208 0.57265 0.85528 0.0
C858 C 0.98786 0.59132 0.83896 0.0
C859 C 0.96236 0.58014 0.82631 0.0
C860 C 0.94108 0.55018 0.82993 0.0
C861 C 0.94513 0.53145 0.84625 0.0
H862 H 0.95913 0.59463 0.81368 0.0
H863 H 0.01246 0.41391 0.97122 0.0
H864 H 0.15026 0.98707 0.67219 0.0
H865 H 0.10035 0.9609 0.68933 0.0
H866 H 0.03457 0.05178 0.67532 0.0
H867 H 0.08391 0.07764 0.65826 0.0
H868 H 0.00946 0.01468 0.70723 0.0
H869 H 0.04558 0.99066 0.64078 0.0
H870 H 0.0922 0.96924 0.61957 0.0
H871 H 0.10562 0.87399 0.6516 0.0
H872 H 0.05931 0.89515 0.67307 0.0
H873 H 0.89142 0.99604 0.62782 0.0
H874 H 0.94497 0.00071 0.64663 0.0
H875 H 0.89495 0.93601 0.68801 0.0
H876 H 0.84024 0.9326 0.66942 0.0
H877 H 0.97982 0.93262 0.6564 0.0
H878 H 0.95018 0.96924 0.72757 0.0
H879 H 0.90219 0.99478 0.74668 0.0
H880 H 0.87265 0.06611 0.70344 0.0
H881 H 0.92063 0.04109 0.68415 0.0
C882 C 0.12559 0.00208 0.67348 0.0
C883 C 0.12023 0.03362 0.66345 0.0
C884 C 0.09725 0.9873 0.68342 0.0
C885 C 0.0636 0.00411 0.68331 0.0
C886 C 0.06026 0.03831 0.67559 0.0
C887 C 0.08827 0.05279 0.66555 0.0
C888 C 0.03041 0.98294 0.68514 0.0
C889 C 0.00309 0.9955 0.69665 0.0
C890 C 0.02205 0.95758 0.67149 0.0
C891 C 0.04921 0.94443 0.65847 0.0
C892 C 0.05848 0.96512 0.64322 0.0
C893 C 0.08487 0.9531 0.63121 0.0
C894 C 0.10183 0.92026 0.63423 0.0
C895 C 0.09246 0.89942 0.64928 0.0
C896 C 0.06618 0.9114 0.66138 0.0
C897 C 0.89136 0.98408 0.64124 0.0
C898 C 0.86191 0.96435 0.64732 0.0
C899 C 0.92192 0.98644 0.65189 0.0
C900 C 0.92379 0.9684 0.66859 0.0
C901 C 0.89369 0.95029 0.67523 0.0
C902 C 0.86257 0.94859 0.66468 0.0
C903 C 0.95883 0.96632 0.67764 0.0
C904 C 0.98635 0.94927 0.66804 0.0
C905 C 0.96712 0.98734 0.69298 0.0
C906 C 0.93876 0.0032 0.70444 0.0
C907 C 0.9335 0.99048 0.7222 0.0
C908 C 0.90633 0.00485 0.73305 0.0
C909 C 0.88441 0.03208 0.72628 0.0
C910 C 0.88964 0.04502 0.70866 0.0
C911 C 0.91678 0.03073 0.69776 0.0
H912 H 0.8633 0.04308 0.73467 0.0
H913 H 0.12218 0.91091 0.6249 0.0
H914 H 0.0064 0.85605 0.33916 0.0
H915 H 0.99138 0.90631 0.31882 0.0
H916 H 0.0776 0.96804 0.34215 0.0
H917 H 0.0925 0.91872 0.36201 0.0
H918 H 0.96812 0.96916 0.33028 0.0
H919 H 0.11473 0.02371 0.3164 0.0
H920 H 0.17113 0.99879 0.30465 0.0
H921 H 0.1136 0.91351 0.27865 0.0
H922 H 0.05662 0.93829 0.28987 0.0
H923 H 0.04141 0.12175 0.36635 0.0
H924 H 0.05312 0.07173 0.34577 0.0
H925 H 0.96443 0.10451 0.31225 0.0
H926 H 0.95392 0.15578 0.33234 0.0
H927 H 0.06072 0.05284 0.3072 0.0
H928 H 0.91578 0.02324 0.30901 0.0
H929 H 0.85921 0.04659 0.3217 0.0
H930 H 0.91338 0.07547 0.37101 0.0
H931 H 0.97018 0.05224 0.35856 0.0
C932 C 0.02246 0.88019 0.33956 0.0
C933 C 0.05025 0.88381 0.35228 0.0
C934 C 0.014 0.90872 0.32792 0.0
C935 C 0.03376 0.94073 0.32868 0.0
C936 C 0.06253 0.94338 0.34086 0.0
C937 C 0.07068 0.91529 0.35248 0.0
C938 C 0.02158 0.9739 0.31951 0.0
C939 C 0.98777 0.98709 0.32435 0.0
C940 C 0.04675 0.9972 0.3113 0.0
C941 C 0.08114 0.98312 0.30392 0.0
C942 C 0.11388 1e-05 0.30793 0.0
C943 C 0.14605 0.98578 0.30142 0.0
C944 C 0.14595 0.95463 0.29088 0.0
C945 C 0.11364 0.93767 0.28679 0.0
C946 C 0.08139 0.95182 0.29323 0.0
C947 C 0.02579 0.11933 0.35401 0.0
C948 C 0.99704 0.1424 0.35076 0.0
C949 C 0.03252 0.09092 0.3422 0.0
C950 C 0.00972 0.08453 0.32739 0.0
C951 C 0.98282 0.10946 0.32328 0.0
C952 C 0.97671 0.13854 0.33485 0.0
C953 C 0.00904 0.04789 0.31977 0.0
C954 C 0.04027 0.0343 0.31175 0.0
C955 C 0.9813 0.024 0.32473 0.0
C956 C 0.94722 0.03675 0.33269 0.0
C957 C 0.91557 0.03474 0.32251 0.0
C958 C 0.88349 0.04785 0.32968 0.0
C959 C 0.88273 0.06256 0.34714 0.0
C960 C 0.91403 0.06411 0.35748 0.0
C961 C 0.94615 0.051 0.35037 0.0
H962 H 0.85785 0.07258 0.35268 0.0
H963 H 0.17089 0.94359 0.28592 0.0
H964 H 0.11586 0.89853 0.16291 0.0
H965 H 0.06313 0.90723 0.18232 0.0
H966 H 0.06413 0.02021 0.1695 0.0
H967 H 0.11787 0.01161 0.15099 0.0
H968 H 0.0343 0.01013 0.20218 0.0
H969 H 0.02235 0.9561 0.14068 0.0
H970 H 0.03435 0.908 0.11845 0.0
H971 H 0.99214 0.83 0.15564 0.0
H972 H 0.98021 0.87772 0.17813 0.0
H973 H 0.9055 0.08373 0.15137 0.0
H974 H 0.95176 0.0575 0.17021 0.0
H975 H 0.88015 0.97167 0.18529 0.0
H976 H 0.83325 0.99826 0.16617 0.0
H977 H 0.93793 0.94777 0.1684 0.0
H978 H 0.91986 0.02093 0.2184 0.0
H979 H 0.90448 0.0763 0.2347 0.0
H980 H 0.00153 0.12563 0.21617 0.0
H981 H 0.01679 0.07129 0.19891 0.0
C982 C 0.10521 0.92529 0.16477 0.0
C983 C 0.11997 0.95441 0.15536 0.0
C984 C 0.07534 0.93029 0.17588 0.0
C985 C 0.05921 0.96421 0.17704 0.0
C986 C 0.07609 0.99379 0.16885 0.0
C987 C 0.10648 0.98891 0.15812 0.0
C988 C 0.02169 0.96817 0.18321 0.0
C989 C 0.01298 0.99635 0.19507 0.0
C990 C 0.99383 0.94889 0.17458 0.0
C991 C 0.00086 0.92027 0.16111 0.0
C992 C 0.01579 0.92865 0.1441 0.0
C993 C 0.02257 0.90149 0.13148 0.0
C994 C 0.01413 0.86595 0.13566 0.0
C995 C -0.00122 0.85752 0.15245 0.0
C996 C 0.99202 0.88459 0.16514 0.0
C997 C 0.89927 0.05979 0.15907 0.0
C998 C 0.86623 0.04252 0.15707 0.0
C999 C 0.92556 0.04508 0.17011 0.0
C1000 C 0.91936 0.01271 0.17931 0.0
C1001 C 0.88532 0.99684 0.17844 0.0
C1002 C 0.8587 0.0119 0.16748 0.0
C1003 C 0.95076 0.99234 0.18584 0.0
C1004 C 0.95856 0.96054 0.17652 0.0
C1005 C 0.97766 0.00906 0.19639 0.0
C1006 C 0.96962 0.04163 0.20739 0.0
C1007 C 0.93798 0.04354 0.21774 0.0
C1008 C 0.92921 0.07486 0.22714 0.0
C1009 C 0.95214 0.10437 0.22663 0.0
C1010 C 0.98387 0.10266 0.21664 0.0
C1011 C 0.99258 0.07156 0.207 0.0
H1012 H 0.94523 0.12864 0.23388 0.0
H1013 H 0.01939 0.84495 0.12587 0.0
H1014 H 0.02796 0.89887 0.8618 0.0
H1015 H 0.0384 0.94648 0.83983 0.0
H1016 H 0.96352 0.8972 0.80283 0.0
H1017 H 0.95441 0.84805 0.82478 0.0
H1018 H 0.05713 0.95453 0.80192 0.0
H1019 H 0.91403 0.97477 0.78961 0.0
H1020 H 0.85289 0.95841 0.79936 0.0
H1021 H 0.88891 0.94899 0.85455 0.0
H1022 H 0.95014 0.96556 0.84509 0.0
H1023 H 0.9916 0.15048 0.82854 0.0
H1024 H 0.98633 0.10215 0.80584 0.0
H1025 H 0.05671 0.03629 0.83817 0.0
H1026 H 0.06187 0.08351 0.86042 0.0
H1027 H 0.95701 0.03822 0.81406 0.0
H1028 H 0.10398 0.98554 0.81886 0.0
H1029 H 0.16483 0.00861 0.81364 0.0
H1030 H 0.12364 0.08775 0.777 0.0
H1031 H 0.0622 0.06547 0.78209 0.0
C1032 C 0.01501 0.89738 0.84865 0.0
C1033 C 0.99053 0.87009 0.84485 0.0
C1034 C 0.02096 0.92449 0.83607 0.0
C1035 C 0.00174 0.92537 0.81969 0.0
C1036 C 0.97885 0.8968 0.81531 0.0
C1037 C 0.97369 0.86887 0.8278 0.0
C1038 C 0.0018 0.95946 0.80947 0.0
C1039 C 0.03505 0.97299 0.8039 0.0
C1040 C 0.97247 0.98319 0.81101 0.0
C1041 C 0.93654 0.97091 0.81662 0.0
C1042 C 0.90886 0.96898 0.8038 0.0
C1043 C 0.87418 0.95994 0.80929 0.0
C1044 C 0.86696 0.95294 0.82759 0.0
C1045 C 0.89449 0.95462 0.84041 0.0
C1046 C 0.92917 0.96373 0.83498 0.0
C1047 C 0.00625 0.12576 0.83055 0.0
C1048 C 0.02655 0.12041 0.8464 0.0
C1049 C 0.00353 0.09841 0.81751 0.0
C1050 C 0.02182 0.06587 0.82002 0.0
C1051 C 0.04326 0.06146 0.83551 0.0
C1052 C 0.04559 0.08832 0.8485 0.0
C1053 C 0.01363 0.03352 0.8091 0.0
C1054 C 0.97864 0.0202 0.8104 0.0
C1055 C 0.04151 0.01006 0.80383 0.0
C1056 C 0.07841 0.02358 0.80073 0.0
C1057 C 0.10781 0.00769 0.80956 0.0
C1058 C 0.14238 0.02083 0.80673 0.0
C1059 C 0.14801 0.04972 0.79503 0.0
C1060 C 0.11906 0.0656 0.78616 0.0
C1061 C 0.08435 0.05284 0.78908 0.0
H1062 H 0.17481 0.05981 0.79281 0.0
H1063 H 0.84014 0.94586 0.8318 0.0
H1064 H 0.20423 0.2076 0.67779 0.0
H1065 H 0.19941 0.22378 0.7102 0.0
H1066 H 0.16478 0.11626 0.72255 0.0
H1067 H 0.16973 0.10014 0.6905 0.0
H1068 H 0.12143 0.17115 0.7378 0.0
H1069 H 0.24674 0.13781 0.73185 0.0
H1070 H 0.30731 0.14356 0.71888 0.0
H1071 H 0.3124 0.25299 0.73676 0.0
H1072 H 0.25159 0.24801 0.74961 0.0
H1073 H 0.12932 0.14036 0.82966 0.0
H1074 H 0.14574 0.13679 0.79758 0.0
H1075 H 0.18663 0.24477 0.79977 0.0
H1076 H 0.17083 0.24795 0.83229 0.0
H1077 H 0.22614 0.20094 0.77639 0.0
H1078 H 0.1051 0.23137 0.78704 0.0
H1079 H 0.04527 0.22565 0.80076 0.0
H1080 H 0.02971 0.12536 0.77334 0.0
H1081 H 0.08967 0.13011 0.75964 0.0
C1082 C 0.19576 0.18756 0.68752 0.0
C1083 C 0.18786 0.15255 0.68172 0.0
C1084 C 0.19308 0.19673 0.70595 0.0
C1085 C 0.18187 0.17113 0.71875 0.0
C1086 C 0.17357 0.13636 0.7129 0.0
C1087 C 0.17674 0.12709 0.69462 0.0
C1088 C 0.17824 0.18015 0.7383 0.0
C1089 C 0.14428 0.1775 0.74629 0.0
C1090 C 0.20794 0.18975 0.74916 0.0
C1091 C 0.24447 0.19268 0.74148 0.0
C1092 C 0.26064 0.1632 0.73286 0.0
C1093 C 0.29504 0.16629 0.72556 0.0
C1094 C 0.31365 0.19866 0.72694 0.0
C1095 C 0.29792 0.22796 0.73566 0.0
C1096 C 0.2635 0.22502 0.74296 0.0
C1097 C 0.14276 0.16291 0.82338 0.0
C1098 C 0.14875 0.19447 0.83328 0.0
C1099 C 0.15192 0.16096 0.80507 0.0
C1100 C 0.16653 0.19081 0.79617 0.0
C1101 C 0.17515 0.22151 0.80636 0.0
C1102 C 0.16631 0.2233 0.82488 0.0
C1103 C 0.16946 0.19058 0.77605 0.0
C1104 C 0.20314 0.19508 0.76792 0.0
C1105 C 0.13932 0.18301 0.76498 0.0
C1106 C 0.10245 0.1807 0.77262 0.0
C1107 C 0.08916 0.20786 0.78407 0.0
C1108 C 0.05513 0.20484 0.79182 0.0
C1109 C 0.0338 0.17505 0.78801 0.0
C1110 C 0.04636 0.14833 0.77635 0.0
C1111 C 0.0804 0.15118 0.76859 0.0
H1112 H 0.00746 0.17278 0.79401 0.0
H1113 H 0.34029 0.201 0.72129 0.0
H1114 H 0.19043 0.90473 0.18763 0.0
H1115 H 0.1895 0.89268 0.22012 0.0
H1116 H 0.21225 0.78116 0.20977 0.0
H1117 H 0.21259 0.7932 0.17693 0.0
H1118 H 0.16121 0.78713 0.23436 0.0
H1119 H 0.27704 0.84046 0.22708 0.0
H1120 H 0.32018 0.8863 0.21693 0.0
H1121 H 0.26697 0.96547 0.24955 0.0
H1122 H 0.22321 0.92023 0.25971 0.0
H1123 H 0.18346 0.74985 0.32785 0.0
H1124 H 0.19851 0.75764 0.29579 0.0
H1125 H 0.17343 0.8702 0.2997 0.0
H1126 H 0.15975 0.86291 0.33192 0.0
H1127 H 0.23041 0.86017 0.27836 0.0
H1128 H 0.11233 0.80983 0.28344 0.0
H1129 H 0.06756 0.76558 0.29357 0.0
H1130 H 0.12362 0.6824 0.26499 0.0
H1131 H 0.16903 0.72611 0.2549 0.0
C1132 C 0.19594 0.87775 0.19224 0.0
C1133 C 0.20224 0.84998 0.17971 0.0
C1134 C 0.19535 0.87087 0.21087 0.0
C1135 C 0.20159 0.83614 0.2175 0.0
C1136 C 0.20761 0.80823 0.20501 0.0
C1137 C 0.20784 0.81508 0.18628 0.0
C1138 C 0.20044 0.82899 0.23741 0.0
C1139 C 0.17694 0.80261 0.24394 0.0
C1140 C 0.22021 0.84978 0.25002 0.0
C1141 C 0.24671 0.87698 0.24406 0.0
C1142 C 0.27442 0.86769 0.23201 0.0
C1143 C 0.29899 0.89357 0.22626 0.0
C1144 C 0.29628 0.92878 0.23257 0.0
C1145 C 0.26904 0.93818 0.24468 0.0
C1146 C 0.24437 0.91242 0.25045 0.0
C1147 C 0.18196 0.77643 0.32205 0.0
C1148 C 0.16995 0.80567 0.33248 0.0
C1149 C 0.1902 0.78077 0.30362 0.0
C1150 C 0.18639 0.81436 0.29522 0.0
C1151 C 0.17634 0.84396 0.30582 0.0
C1152 C 0.16824 0.83968 0.32424 0.0
C1153 C 0.19113 0.81846 0.27525 0.0
C1154 C 0.21514 0.84436 0.26874 0.0
C1155 C 0.17169 0.79739 0.26265 0.0
C1156 C 0.14427 0.77115 0.26858 0.0
C1157 C 0.11524 0.78205 0.27942 0.0
C1158 C 0.08974 0.75708 0.28515 0.0
C1159 C 0.0928 0.72118 0.27997 0.0
C1160 C 0.12132 0.7102 0.26902 0.0
C1161 C 0.14694 0.73506 0.26328 0.0
H1162 H 0.07303 0.70188 0.28442 0.0
H1163 H 0.31532 0.94878 0.2281 0.0
H1164 H 0.8312 0.78757 0.82617 0.0
H1165 H 0.82267 0.79052 0.79302 0.0
H1166 H 0.8865 0.88689 0.79115 0.0
H1167 H 0.89444 0.88369 0.82422 0.0
H1168 H 0.82982 0.89366 0.76962 0.0
H1169 H 0.92184 0.80747 0.77929 0.0
H1170 H 0.94956 0.75362 0.79263 0.0
H1171 H 0.86882 0.68755 0.76816 0.0
H1172 H 0.84026 0.74111 0.7549 0.0
H1173 H 0.88193 0.83483 0.67172 0.0
H1174 H 0.89115 0.83169 0.70455 0.0
H1175 H 0.77933 0.85429 0.71336 0.0
H1176 H 0.76983 0.85705 0.68052 0.0
H1177 H 0.86405 0.78991 0.73115 0.0
H1178 H 0.77117 0.90879 0.74987 0.0
H1179 H 0.75082 0.96629 0.73694 0.0
H1180 H 0.84593 0.97241 0.70444 0.0
H1181 H 0.86708 0.91506 0.71728 0.0
C1182 C 0.84276 0.80956 0.81857 0.0
C1183 C 0.8626 0.83602 0.82753 0.0
C1184 C 0.83817 0.81117 0.79972 0.0
C1185 C 0.85399 0.83895 0.78958 0.0
C1186 C 0.87364 0.86552 0.79867 0.0
C1187 C 0.87798 0.86394 0.81749 0.0
C1188 C 0.85086 0.83993 0.76948 0.0
C1189 C 0.83715 0.87091 0.76123 0.0
C1190 C 0.86143 0.81066 0.75846 0.0
C1191 C 0.87872 0.77834 0.76625 0.0
C1192 C 0.90985 0.78149 0.77686 0.0
C1193 C 0.92573 0.75101 0.78439 0.0
C1194 C 0.91092 0.71719 0.78127 0.0
C1195 C 0.88024 0.71377 0.77058 0.0
C1196 C 0.8642 0.74418 0.76304 0.0
C1197 C 0.85913 0.83841 0.6806 0.0
C1198 C 0.82508 0.84619 0.67346 0.0
C1199 C 0.86451 0.83686 0.69939 0.0
C1200 C 0.83605 0.84325 0.71141 0.0
C1201 C 0.80184 0.84991 0.70434 0.0
C1202 C 0.79642 0.8514 0.68558 0.0
C1203 C 0.84208 0.84328 0.73136 0.0
C1204 C 0.85648 0.81255 0.73957 0.0
C1205 C 0.83304 0.87314 0.74231 0.0
C1206 C 0.82045 0.90742 0.73436 0.0
C1207 C 0.78774 0.9224 0.73995 0.0
C1208 C 0.77608 0.95494 0.73263 0.0
C1209 C 0.79703 0.97286 0.7198 0.0
C1210 C 0.82968 0.95829 0.71426 0.0
C1211 C 0.84147 0.92575 0.72152 0.0
H1212 H 0.78802 0.99809 0.71418 0.0
H1213 H 0.92325 0.69363 0.78712 0.0
H1214 H 0.84376 0.12618 0.3294 0.0
H1215 H 0.82899 0.12623 0.29721 0.0
H1216 H 0.87096 0.23343 0.29208 0.0
H1217 H 0.88436 0.2342 0.32454 0.0
H1218 H 0.81228 0.22872 0.27313 0.0
H1219 H 0.92262 0.16097 0.27057 0.0
H1220 H 0.96672 0.11491 0.27928 0.0
H1221 H 0.88609 0.0334 0.27486 0.0
H1222 H 0.84183 0.07898 0.26546 0.0
H1223 H 0.84081 0.20804 0.17477 0.0
H1224 H 0.84992 0.21722 0.20739 0.0
H1225 H 0.77543 0.13222 0.21909 0.0
H1226 H 0.76464 0.12402 0.18671 0.0
H1227 H 0.85224 0.12791 0.2341 0.0
H1228 H 0.74618 0.20295 0.22974 0.0
H1229 H 0.71112 0.25318 0.21725 0.0
H1230 H 0.79267 0.32724 0.2339 0.0
H1231 H 0.82849 0.27733 0.24625 0.0
C1232 C 0.84951 0.14997 0.32156 0.0
C1233 C 0.8655 0.18013 0.32966 0.0
C1234 C 0.8415 0.14977 0.30301 0.0
C1235 C 0.84954 0.17956 0.29207 0.0
C1236 C 0.86473 0.21 0.30017 0.0
C1237 C 0.87261 0.21029 0.31875 0.0
C1238 C 0.84166 0.17898 0.27226 0.0
C1239 C 0.82136 0.20685 0.26458 0.0
C1240 C 0.85337 0.15059 0.261 0.0
C1241 C 0.87899 0.12329 0.26749 0.0
C1242 C 0.9143 0.13324 0.2716 0.0
C1243 C 0.93935 0.10721 0.27651 0.0
C1244 C 0.92917 0.07127 0.27774 0.0
C1245 C 0.89392 0.06125 0.27394 0.0
C1246 C 0.86891 0.08712 0.26867 0.0
C1247 C 0.82561 0.19191 0.18422 0.0
C1248 C 0.80243 0.16479 0.17798 0.0
C1249 C 0.83104 0.19708 0.20288 0.0
C1250 C 0.8136 0.17512 0.21557 0.0
C1251 C 0.78936 0.1492 0.20947 0.0
C1252 C 0.78345 0.14443 0.19091 0.0
C1253 C 0.82242 0.17724 0.23513 0.0
C1254 C 0.84306 0.14968 0.2427 0.0
C1255 C 0.81174 0.20639 0.24611 0.0
C1256 C 0.7902 0.23636 0.23872 0.0
C1257 C 0.75682 0.22989 0.23056 0.0
C1258 C 0.73676 0.25832 0.22355 0.0
C1259 C 0.74971 0.29337 0.22473 0.0
C1260 C 0.78271 0.30007 0.23297 0.0
C1261 C 0.80288 0.27173 0.23999 0.0
H1262 H 0.73414 0.31534 0.2193 0.0
H1263 H 0.94864 0.05119 0.28159 0.0
loop_
_geom_bond_atom_site_label_1
_geom_bond_atom_site_label_2
_geom_bond_distance
_geom_bond_site_symmetry_2
_ccdc_geom_bond_type
Co0 N4 2.148 . S
Co0 N10 2.128 . S
Co0 N20 2.194 . S
Co0 O25 2.351 . S
Co0 O26 2.155 . S
Co0 O27 2.096 . S
C1 N4 1.301 . S
C1 N5 1.328 . S
C1 H6 0.930 . S
C2 C3 1.333 . S
C2 N4 1.317 . S
C2 H7 0.930 . S
C3 C2 1.333 . S
C3 N5 1.350 . S
C3 H29 0.931 . S
N4 Co0 2.148 . S
N4 C1 1.301 . S
N4 C2 1.317 . S
N5 C1 1.328 . S
N5 C3 1.350 . S
H6 C1 0.930 . S
H7 C2 0.930 . S
C8 O9 1.224 . S
C8 O27 1.247 . S
O9 C8 1.224 . S
N10 Co0 2.128 . S
N10 C11 1.355 1_545 S
N10 C13 1.311 . S
C11 N10 1.355 1_565 S
C11 C12 1.363 . S
C11 H23 0.929 . S
C12 C11 1.363 . S
C12 N14 1.375 1_565 S
C12 H30 0.931 . S
C13 N10 1.311 . S
C13 N14 1.347 . S
C13 H24 0.929 . S
N14 C12 1.375 1_545 S
N14 C13 1.347 . S
C15 C18 1.365 . S
C15 N20 1.328 . S
C15 H21 0.929 . S
C16 C17 1.362 . S
C16 C19 1.378 . S
C16 H31 0.929 . S
C17 C16 1.362 . S
C17 C18 1.366 . S
C18 C15 1.365 . S
C18 C17 1.366 . S
C18 H32 0.930 . S
C19 C16 1.378 . S
C19 N20 1.315 . S
C19 H22 0.930 . S
N20 Co0 2.194 . S
N20 C15 1.328 . S
N20 C19 1.315 . S
H21 C15 0.929 . S
H22 C19 0.930 . S
H23 C11 0.929 . S
H24 C13 0.929 . S
O25 Co0 2.351 . S
O25 C28 1.244 . S
O26 Co0 2.155 . S
O26 C28 1.240 . S
O27 Co0 2.096 . S
O27 C8 1.247 . S
C28 O25 1.244 . S
C28 O26 1.240 . S
H29 C3 0.931 . S
H30 C12 0.931 . S
H31 C16 0.929 . S
H32 C18 0.930 . S
Co33 N37 2.148 . S
Co33 N43 2.128 . S
Co33 N53 2.194 . S
Co33 O58 2.351 . S
Co33 O59 2.155 . S
Co33 O60 2.096 . S
C34 N37 1.301 . S
C34 N38 1.328 . S
C34 H39 0.930 . S
C35 C36 1.333 . S
C35 N37 1.317 . S
C35 H40 0.930 . S
C36 C35 1.333 . S
C36 N38 1.350 . S
C36 H62 0.931 . S
N37 Co33 2.148 . S
N37 C34 1.301 . S
N37 C35 1.317 . S
N38 C34 1.328 . S
N38 C36 1.350 . S
H39 C34 0.930 . S
H40 C35 0.930 . S
C41 O42 1.224 . S
C41 O60 1.247 . S
O42 C41 1.224 . S
N43 Co33 2.128 . S
N43 C44 1.355 1_455 S
N43 C46 1.311 . S
C44 N43 1.355 1_655 S
C44 C45 1.363 . S
C44 H56 0.929 . S
C45 C44 1.363 . S
C45 N47 1.375 1_655 S
C45 H63 0.931 . S
C46 N43 1.311 . S
C46 N47 1.347 . S
C46 H57 0.929 . S
N47 C45 1.375 1_455 S
N47 C46 1.347 . S
C48 C51 1.365 . S
C48 N53 1.328 . S
C48 H54 0.929 . S
C49 C50 1.362 . S
C49 C52 1.378 . S
C49 H64 0.929 . S
C50 C49 1.362 . S
C50 C51 1.366 . S
C51 C48 1.365 . S
C51 C50 1.366 . S
C51 H65 0.930 . S
C52 C49 1.378 . S
C52 N53 1.315 . S
C52 H55 0.930 . S
N53 Co33 2.194 . S
N53 C48 1.328 . S
N53 C52 1.315 . S
H54 C48 0.929 . S
H55 C52 0.930 . S
H56 C44 0.929 . S
H57 C46 0.929 . S
O58 Co33 2.351 . S
O58 C61 1.244 . S
O59 Co33 2.155 . S
O59 C61 1.240 . S
O60 Co33 2.096 . S
O60 C41 1.247 . S
C61 O58 1.244 . S
C61 O59 1.240 . S
H62 C36 0.931 . S
H63 C45 0.931 . S
H64 C49 0.929 . S
H65 C51 0.930 . S
Co66 N70 2.148 . S
Co66 N76 2.128 . S
Co66 N86 2.194 . S
Co66 O91 2.351 . S
Co66 O92 2.155 . S
Co66 O93 2.096 . S
C67 N70 1.301 . S
C67 N71 1.328 . S
C67 H72 0.930 . S
C68 C69 1.333 . S
C68 N70 1.317 . S
C68 H73 0.930 . S
C69 C68 1.333 . S
C69 N71 1.350 . S
C69 H95 0.931 . S
N70 Co66 2.148 . S
N70 C67 1.301 . S
N70 C68 1.317 . S
N71 C67 1.328 . S
N71 C69 1.350 . S
H72 C67 0.930 . S
H73 C68 0.930 . S
C74 O75 1.224 . S
C74 O93 1.247 . S
O75 C74 1.224 . S
N76 Co66 2.128 . S
N76 C77 1.355 1_565 S
N76 C79 1.311 . S
C77 N76 1.355 1_545 S
C77 C78 1.363 . S
C77 H89 0.929 . S
C78 C77 1.363 . S
C78 N80 1.375 1_545 S
C78 H96 0.931 . S
C79 N76 1.311 . S
C79 N80 1.347 . S
C79 H90 0.929 . S
N80 C78 1.375 1_565 S
N80 C79 1.347 . S
C81 C84 1.365 . S
C81 N86 1.328 . S
C81 H87 0.929 . S
C82 C83 1.362 . S
C82 C85 1.378 . S
C82 H97 0.929 . S
C83 C82 1.362 . S
C83 C84 1.366 . S
C84 C81 1.365 . S
C84 C83 1.366 . S
C84 H98 0.930 . S
C85 C82 1.378 . S
C85 N86 1.315 . S
C85 H88 0.930 . S
N86 Co66 2.194 . S
N86 C81 1.328 . S
N86 C85 1.315 . S
H87 C81 0.929 . S
H88 C85 0.930 . S
H89 C77 0.929 . S
H90 C79 0.929 . S
O91 Co66 2.351 . S
O91 C94 1.244 . S
O92 Co66 2.155 . S
O92 C94 1.240 . S
O93 Co66 2.096 . S
O93 C74 1.247 . S
C94 O91 1.244 . S
C94 O92 1.240 . S
H95 C69 0.931 . S
H96 C78 0.931 . S
H97 C82 0.929 . S
H98 C84 0.930 . S
Co99 N103 2.148 . S
Co99 N109 2.128 . S
Co99 N119 2.194 . S
Co99 O124 2.351 . S
Co99 O125 2.155 . S
Co99 O126 2.096 . S
C100 N103 1.301 . S
C100 N104 1.328 . S
C100 H105 0.930 . S
C101 C102 1.333 . S
C101 N103 1.317 . S
C101 H106 0.930 . S
C102 C101 1.333 . S
C102 N104 1.350 . S
C102 H128 0.931 . S
N103 Co99 2.148 . S
N103 C100 1.301 . S
N103 C101 1.317 . S
N104 C100 1.328 . S
N104 C102 1.350 . S
H105 C100 0.930 . S
H106 C101 0.930 . S
C107 O108 1.224 . S
C107 O126 1.247 . S
O108 C107 1.224 . S
N109 Co99 2.128 . S
N109 C110 1.355 1_655 S
N109 C112 1.311 . S
C110 N109 1.355 1_455 S
C110 C111 1.363 . S
C110 H122 0.929 . S
C111 C110 1.363 . S
C111 N113 1.375 1_455 S
C111 H129 0.931 . S
C112 N109 1.311 . S
C112 N113 1.347 . S
C112 H123 0.929 . S
N113 C111 1.375 1_655 S
N113 C112 1.347 . S
C114 C117 1.365 . S
C114 N119 1.328 . S
C114 H120 0.929 . S
C115 C116 1.362 . S
C115 C118 1.378 . S
C115 H130 0.929 . S
C116 C115 1.362 . S
C116 C117 1.366 . S
C117 C114 1.365 . S
C117 C116 1.366 . S
C117 H131 0.930 . S
C118 C115 1.378 . S
C118 N119 1.315 . S
C118 H121 0.930 . S
N119 Co99 2.194 . S
N119 C114 1.328 . S
N119 C118 1.315 . S
H120 C114 0.929 . S
H121 C118 0.930 . S
H122 C110 0.929 . S
H123 C112 0.929 . S
O124 Co99 2.351 . S
O124 C127 1.244 . S
O125 Co99 2.155 . S
O125 C127 1.240 . S
O126 Co99 2.096 . S
O126 C107 1.247 . S
C127 O124 1.244 . S
C127 O125 1.240 . S
H128 C102 0.931 . S
H129 C111 0.931 . S
H130 C115 0.929 . S
H131 C117 0.930 . S
Co132 N136 2.148 . S
Co132 N142 2.128 . S
Co132 N152 2.194 . S
Co132 O157 2.351 . S
Co132 O158 2.155 . S
Co132 O159 2.096 . S
C133 N136 1.301 . S
C133 N137 1.328 . S
C133 H138 0.930 . S
C134 C135 1.333 . S
C134 N136 1.317 . S
C134 H139 0.930 . S
C135 C134 1.333 . S
C135 N137 1.350 . S
C135 H161 0.931 . S
N136 Co132 2.148 . S
N136 C133 1.301 . S
N136 C134 1.317 . S
N137 C133 1.328 . S
N137 C135 1.350 . S
H138 C133 0.930 . S
H139 C134 0.930 . S
C140 O141 1.224 . S
C140 O159 1.247 . S
O141 C140 1.224 . S
N142 Co132 2.128 . S
N142 C143 1.355 1_545 S
N142 C145 1.311 . S
C143 N142 1.355 1_565 S
C143 C144 1.363 . S
C143 H155 0.929 . S
C144 C143 1.363 . S
C144 N146 1.375 1_565 S
C144 H162 0.931 . S
C145 N142 1.311 . S
C145 N146 1.347 . S
C145 H156 0.929 . S
N146 C144 1.375 1_545 S
N146 C145 1.347 . S
C147 C150 1.365 . S
C147 N152 1.328 . S
C147 H153 0.929 . S
C148 C149 1.362 . S
C148 C151 1.378 . S
C148 H163 0.929 . S
C149 C148 1.362 . S
C149 C150 1.366 . S
C150 C147 1.365 . S
C150 C149 1.366 . S
C150 H164 0.930 . S
C151 C148 1.378 . S
C151 N152 1.315 . S
C151 H154 0.930 . S
N152 Co132 2.194 . S
N152 C147 1.328 . S
N152 C151 1.315 . S
H153 C147 0.929 . S
H154 C151 0.930 . S
H155 C143 0.929 . S
H156 C145 0.929 . S
O157 Co132 2.351 . S
O157 C160 1.244 . S
O158 Co132 2.155 . S
O158 C160 1.240 . S
O159 Co132 2.096 . S
O159 C140 1.247 . S
C160 O157 1.244 . S
C160 O158 1.240 . S
H161 C135 0.931 . S
H162 C144 0.931 . S
H163 C148 0.929 . S
H164 C150 0.930 . S
Co165 N169 2.148 . S
Co165 N175 2.128 . S
Co165 N185 2.194 . S
Co165 O190 2.351 . S
Co165 O191 2.155 . S
Co165 O192 2.096 . S
C166 N169 1.301 . S
C166 N170 1.328 . S
C166 H171 0.930 . S
C167 C168 1.333 . S
C167 N169 1.317 . S
C167 H172 0.930 . S
C168 C167 1.333 . S
C168 N170 1.350 . S
C168 H194 0.931 . S
N169 Co165 2.148 . S
N169 C166 1.301 . S
N169 C167 1.317 . S
N170 C166 1.328 . S
N170 C168 1.350 . S
H171 C166 0.930 . S
H172 C167 0.930 . S
C173 O174 1.224 . S
C173 O192 1.247 . S
O174 C173 1.224 . S
N175 Co165 2.128 . S
N175 C176 1.355 1_455 S
N175 C178 1.311 . S
C176 N175 1.355 1_655 S
C176 C177 1.363 . S
C176 H188 0.929 . S
C177 C176 1.363 . S
C177 N179 1.375 1_655 S
C177 H195 0.931 . S
C178 N175 1.311 . S
C178 N179 1.347 . S
C178 H189 0.929 . S
N179 C177 1.375 1_455 S
N179 C178 1.347 . S
C180 C183 1.365 . S
C180 N185 1.328 . S
C180 H186 0.929 . S
C181 C182 1.362 . S
C181 C184 1.378 . S
C181 H196 0.929 . S
C182 C181 1.362 . S
C182 C183 1.366 . S
C183 C180 1.365 . S
C183 C182 1.366 . S
C183 H197 0.930 . S
C184 C181 1.378 . S
C184 N185 1.315 . S
C184 H187 0.930 . S
N185 Co165 2.194 . S
N185 C180 1.328 . S
N185 C184 1.315 . S
H186 C180 0.929 . S
H187 C184 0.930 . S
H188 C176 0.929 . S
H189 C178 0.929 . S
O190 Co165 2.351 . S
O190 C193 1.244 . S
O191 Co165 2.155 . S
O191 C193 1.240 . S
O192 Co165 2.096 . S
O192 C173 1.247 . S
C193 O190 1.244 . S
C193 O191 1.240 . S
H194 C168 0.931 . S
H195 C177 0.931 . S
H196 C181 0.929 . S
H197 C183 0.930 . S
Co198 N202 2.148 . S
Co198 N208 2.128 . S
Co198 N218 2.194 . S
Co198 O223 2.351 . S
Co198 O224 2.155 . S
Co198 O225 2.096 . S
C199 N202 1.301 . S
C199 N203 1.328 . S
C199 H204 0.930 . S
C200 C201 1.333 . S
C200 N202 1.317 . S
C200 H205 0.930 . S
C201 C200 1.333 . S
C201 N203 1.350 . S
C201 H227 0.931 . S
N202 Co198 2.148 . S
N202 C199 1.301 . S
N202 C200 1.317 . S
N203 C199 1.328 . S
N203 C201 1.350 . S
H204 C199 0.930 . S
H205 C200 0.930 . S
C206 O207 1.224 . S
C206 O225 1.247 . S
O207 C206 1.224 . S
N208 Co198 2.128 . S
N208 C209 1.355 1_565 S
N208 C211 1.311 . S
C209 N208 1.355 1_545 S
C209 C210 1.363 . S
C209 H221 0.929 . S
C210 C209 1.363 . S
C210 N212 1.375 1_545 S
C210 H228 0.931 . S
C211 N208 1.311 . S
C211 N212 1.347 . S
C211 H222 0.929 . S
N212 C210 1.375 1_565 S
N212 C211 1.347 . S
C213 C216 1.365 . S
C213 N218 1.328 . S
C213 H219 0.929 . S
C214 C215 1.362 . S
C214 C217 1.378 . S
C214 H229 0.929 . S
C215 C214 1.362 . S
C215 C216 1.366 . S
C216 C213 1.365 . S
C216 C215 1.366 . S
C216 H230 0.930 . S
C217 C214 1.378 . S
C217 N218 1.315 . S
C217 H220 0.930 . S
N218 Co198 2.194 . S
N218 C213 1.328 . S
N218 C217 1.315 . S
H219 C213 0.929 . S
H220 C217 0.930 . S
H221 C209 0.929 . S
H222 C211 0.929 . S
O223 Co198 2.351 . S
O223 C226 1.244 . S
O224 Co198 2.155 . S
O224 C226 1.240 . S
O225 Co198 2.096 . S
O225 C206 1.247 . S
C226 O223 1.244 . S
C226 O224 1.240 . S
H227 C201 0.931 . S
H228 C210 0.931 . S
H229 C214 0.929 . S
H230 C216 0.930 . S
Co231 N235 2.148 . S
Co231 N241 2.128 . S
Co231 N251 2.194 . S
Co231 O256 2.351 . S
Co231 O257 2.155 . S
Co231 O258 2.096 . S
C232 N235 1.301 . S
C232 N236 1.328 . S
C232 H237 0.930 . S
C233 C234 1.333 . S
C233 N235 1.317 . S
C233 H238 0.930 . S
C234 C233 1.333 . S
C234 N236 1.350 . S
C234 H260 0.931 . S
N235 Co231 2.148 . S
N235 C232 1.301 . S
N235 C233 1.317 . S
N236 C232 1.328 . S
N236 C234 1.350 . S
H237 C232 0.930 . S
H238 C233 0.930 . S
C239 O240 1.224 . S
C239 O258 1.247 . S
O240 C239 1.224 . S
N241 Co231 2.128 . S
N241 C242 1.355 1_655 S
N241 C244 1.311 . S
C242 N241 1.355 1_455 S
C242 C243 1.363 . S
C242 H254 0.929 . S
C243 C242 1.363 . S
C243 N245 1.375 1_455 S
C243 H261 0.931 . S
C244 N241 1.311 . S
C244 N245 1.347 . S
C244 H255 0.929 . S
N245 C243 1.375 1_655 S
N245 C244 1.347 . S
C246 C249 1.365 . S
C246 N251 1.328 . S
C246 H252 0.929 . S
C247 C248 1.362 . S
C247 C250 1.378 . S
C247 H262 0.929 . S
C248 C247 1.362 . S
C248 C249 1.366 . S
C249 C246 1.365 . S
C249 C248 1.366 . S
C249 H263 0.930 . S
C250 C247 1.378 . S
C250 N251 1.315 . S
C250 H253 0.930 . S
N251 Co231 2.194 . S
N251 C246 1.328 . S
N251 C250 1.315 . S
H252 C246 0.929 . S
H253 C250 0.930 . S
H254 C242 0.929 . S
H255 C244 0.929 . S
O256 Co231 2.351 . S
O256 C259 1.244 . S
O257 Co231 2.155 . S
O257 C259 1.240 . S
O258 Co231 2.096 . S
O258 C239 1.247 . S
C259 O256 1.244 . S
C259 O257 1.240 . S
H260 C234 0.931 . S
H261 C243 0.931 . S
H262 C247 0.929 . S
H263 C249 0.930 . S
H264 C282 0.951 . S
H265 C284 0.951 . S
H266 C286 0.947 1_545 S
H267 C287 0.950 . S
H268 C289 0.950 . S
H269 C292 0.950 . S
H270 C293 0.950 . S
H271 C295 0.950 . S
H272 C296 0.950 . S
H273 C297 0.951 . S
H274 C299 0.951 . S
H275 C301 0.950 . S
H276 C302 0.950 . S
H277 C304 0.950 . S
H278 C307 0.950 . S
H279 C308 0.950 . S
H280 C310 0.950 . S
H281 C311 0.950 . S
C282 H264 0.951 . S
C282 C283 1.366 . S
C282 C284 1.388 . S
C283 C282 1.366 . S
C283 C287 1.385 1_565 S
C284 H265 0.951 . S
C284 C282 1.388 . S
C284 C285 1.366 . S
C285 C284 1.366 . S
C285 C286 1.414 . S
C285 C288 1.499 . S
C286 H266 0.947 1_565 S
C286 C285 1.414 . S
C286 C287 1.374 1_565 S
C287 H267 0.950 . S
C287 C283 1.385 1_545 S
C287 C286 1.374 1_545 S
C288 C285 1.499 . S
C288 C289 1.373 . S
C288 C290 1.389 . S
C289 H268 0.950 . S
C289 C288 1.373 . S
C289 C305 1.377 . S
C290 C288 1.389 . S
C290 C291 1.524 . S
C290 C304 1.377 . S
C291 C290 1.524 . S
C291 C292 1.397 . S
C291 C296 1.363 . S
C292 H269 0.950 . S
C292 C291 1.397 . S
C292 C293 1.334 . S
C293 H270 0.950 . S
C293 C292 1.334 . S
C293 C294 1.287 . S
C294 C293 1.287 . S
C294 C295 1.524 . S
C294 H313 0.913 . S
C295 H271 0.950 . S
C295 C294 1.524 . S
C295 C296 1.415 . S
C296 H272 0.950 . S
C296 C291 1.363 . S
C296 C295 1.415 . S
C297 H273 0.951 . S
C297 C298 1.366 . S
C297 C299 1.388 . S
C298 C297 1.366 . S
C298 C302 1.385 . S
C299 H274 0.951 . S
C299 C297 1.388 . S
C299 C300 1.366 . S
C300 C299 1.366 . S
C300 C301 1.414 . S
C300 C303 1.499 . S
C301 H275 0.950 . S
C301 C300 1.414 . S
C301 C302 1.374 . S
C302 H276 0.950 . S
C302 C298 1.385 . S
C302 C301 1.374 . S
C303 C300 1.499 . S
C303 C304 1.373 . S
C303 C305 1.389 . S
C304 H277 0.950 . S
C304 C290 1.377 . S
C304 C303 1.373 . S
C305 C289 1.377 . S
C305 C303 1.389 . S
C305 C306 1.524 . S
C306 C305 1.524 . S
C306 C307 1.397 . S
C306 C311 1.363 . S
C307 H278 0.950 . S
C307 C306 1.397 . S
C307 C308 1.334 . S
C308 H279 0.950 . S
C308 C307 1.334 . S
C308 C309 1.287 . S
C309 C308 1.287 . S
C309 C310 1.524 . S
C309 H312 0.999 . S
C310 H280 0.950 . S
C310 C309 1.524 . S
C310 C311 1.415 . S
C311 H281 0.950 . S
C311 C306 1.363 . S
C311 C310 1.415 . S
H312 C309 0.999 . S
H313 C294 0.913 . S
H314 C332 0.951 . S
H315 C334 0.951 . S
H316 C336 0.950 . S
H317 C337 0.950 . S
H318 C339 0.950 . S
H319 C342 0.950 . S
H320 C343 0.950 . S
H321 C345 0.950 . S
H322 C346 0.950 . S
H323 C347 0.951 . S
H324 C349 0.951 . S
H325 C351 0.950 . S
H326 C352 0.950 . S
H327 C354 0.950 . S
H328 C357 0.950 . S
H329 C358 0.950 . S
H330 C360 0.950 . S
H331 C361 0.952 1_655 S
C332 H314 0.951 . S
C332 C333 1.366 . S
C332 C334 1.388 . S
C333 C332 1.366 . S
C333 C337 1.385 . S
C334 H315 0.951 . S
C334 C332 1.388 . S
C334 C335 1.366 . S
C335 C334 1.366 . S
C335 C336 1.414 . S
C335 C338 1.499 . S
C336 H316 0.950 . S
C336 C335 1.414 . S
C336 C337 1.374 . S
C337 H317 0.950 . S
C337 C333 1.385 . S
C337 C336 1.374 . S
C338 C335 1.499 . S
C338 C339 1.373 . S
C338 C340 1.389 . S
C339 H318 0.950 . S
C339 C338 1.373 . S
C339 C355 1.377 . S
C340 C338 1.389 . S
C340 C341 1.524 . S
C340 C354 1.377 . S
C341 C340 1.524 . S
C341 C342 1.397 . S
C341 C346 1.363 . S
C342 H319 0.950 . S
C342 C341 1.397 . S
C342 C343 1.334 . S
C343 H320 0.950 . S
C343 C342 1.334 . S
C343 C344 1.287 . S
C344 C343 1.287 . S
C344 C345 1.524 . S
C344 H363 0.913 . S
C345 H321 0.950 . S
C345 C344 1.524 . S
C345 C346 1.415 . S
C346 H322 0.950 . S
C346 C341 1.363 . S
C346 C345 1.415 . S
C347 H323 0.951 . S
C347 C348 1.366 1_455 S
C347 C349 1.388 1_455 S
C348 C347 1.366 1_655 S
C348 C352 1.385 . S
C349 H324 0.951 . S
C349 C347 1.388 1_655 S
C349 C350 1.366 . S
C350 C349 1.366 . S
C350 C351 1.414 . S
C350 C353 1.499 . S
C351 H325 0.950 . S
C351 C350 1.414 . S
C351 C352 1.374 . S
C352 H326 0.950 . S
C352 C348 1.385 . S
C352 C351 1.374 . S
C353 C350 1.499 . S
C353 C354 1.373 . S
C353 C355 1.389 . S
C354 H327 0.950 . S
C354 C340 1.377 . S
C354 C353 1.373 . S
C355 C339 1.377 . S
C355 C353 1.389 . S
C355 C356 1.524 . S
C356 C355 1.524 . S
C356 C357 1.397 . S
C356 C361 1.364 1_655 S
C357 H328 0.950 . S
C357 C356 1.397 . S
C357 C358 1.334 1_655 S
C358 H329 0.950 . S
C358 C357 1.334 1_455 S
C358 C359 1.287 . S
C359 C358 1.287 . S
C359 C360 1.524 . S
C359 H362 0.999 . S
C360 H330 0.950 . S
C360 C359 1.524 . S
C360 C361 1.412 . S
C361 H331 0.952 1_455 S
C361 C356 1.364 1_455 S
C361 C360 1.412 . S
H362 C359 0.999 . S
H363 C344 0.913 . S
H364 C382 0.951 . S
H365 C384 0.951 . S
H366 C386 0.950 . S
H367 C387 0.950 1_565 S
H368 C389 0.950 . S
H369 C392 0.950 . S
H370 C393 0.950 . S
H371 C395 0.950 . S
H372 C396 0.950 . S
H373 C397 0.951 . S
H374 C399 0.951 . S
H375 C401 0.950 . S
H376 C402 0.950 . S
H377 C404 0.950 . S
H378 C407 0.950 . S
H379 C408 0.950 . S
H380 C410 0.950 . S
H381 C411 0.950 . S
C382 H364 0.951 . S
C382 C383 1.366 . S
C382 C384 1.388 . S
C383 C382 1.366 . S
C383 C387 1.385 . S
C384 H365 0.951 . S
C384 C382 1.388 . S
C384 C385 1.366 . S
C385 C384 1.366 . S
C385 C386 1.414 . S
C385 C388 1.499 . S
C386 H366 0.950 . S
C386 C385 1.414 . S
C386 C387 1.374 . S
C387 H367 0.950 1_545 S
C387 C383 1.385 . S
C387 C386 1.374 . S
C388 C385 1.499 . S
C388 C389 1.373 . S
C388 C390 1.389 . S
C389 H368 0.950 . S
C389 C388 1.373 . S
C389 C405 1.377 . S
C390 C388 1.389 . S
C390 C391 1.524 . S
C390 C404 1.377 . S
C391 C390 1.524 . S
C391 C392 1.397 . S
C391 C396 1.363 . S
C392 H369 0.950 . S
C392 C391 1.397 . S
C392 C393 1.334 . S
C393 H370 0.950 . S
C393 C392 1.334 . S
C393 C394 1.287 . S
C394 C393 1.287 . S
C394 C395 1.524 . S
C394 H413 0.913 . S
C395 H371 0.950 . S
C395 C394 1.524 . S
C395 C396 1.415 . S
C396 H372 0.950 . S
C396 C391 1.363 . S
C396 C395 1.415 . S
C397 H373 0.951 . S
C397 C398 1.366 . S
C397 C399 1.388 . S
C398 C397 1.366 . S
C398 C402 1.385 . S
C399 H374 0.951 . S
C399 C397 1.388 . S
C399 C400 1.366 . S
C400 C399 1.366 . S
C400 C401 1.414 . S
C400 C403 1.499 . S
C401 H375 0.950 . S
C401 C400 1.414 . S
C401 C402 1.374 . S
C402 H376 0.950 . S
C402 C398 1.385 . S
C402 C401 1.374 . S
C403 C400 1.499 . S
C403 C404 1.373 . S
C403 C405 1.389 . S
C404 H377 0.950 . S
C404 C390 1.377 . S
C404 C403 1.373 . S
C405 C389 1.377 . S
C405 C403 1.389 . S
C405 C406 1.524 . S
C406 C405 1.524 . S
C406 C407 1.397 . S
C406 C411 1.363 . S
C407 H378 0.950 . S
C407 C406 1.397 . S
C407 C408 1.334 . S
C408 H379 0.950 . S
C408 C407 1.334 . S
C408 C409 1.287 . S
C409 C408 1.287 . S
C409 C410 1.524 . S
C409 H412 0.999 . S
C410 H380 0.950 . S
C410 C409 1.524 . S
C410 C411 1.415 . S
C411 H381 0.950 . S
C411 C406 1.363 . S
C411 C410 1.415 . S
H412 C409 0.999 . S
H413 C394 0.913 . S
H414 C432 0.951 . S
H415 C434 0.951 . S
H416 C436 0.950 . S
H417 C437 0.950 . S
H418 C439 0.950 . S
H419 C442 0.950 . S
H420 C443 0.950 . S
H421 C445 0.950 . S
H422 C446 0.950 . S
H423 C447 0.951 1_655 S
H424 C449 0.951 . S
H425 C451 0.950 . S
H426 C452 0.950 . S
H427 C454 0.950 . S
H428 C457 0.950 . S
H429 C458 0.950 . S
H430 C460 0.950 . S
H431 C461 0.950 . S
C432 H414 0.951 . S
C432 C433 1.366 . S
C432 C434 1.388 . S
C433 C432 1.366 . S
C433 C437 1.385 . S
C434 H415 0.951 . S
C434 C432 1.388 . S
C434 C435 1.366 . S
C435 C434 1.366 . S
C435 C436 1.414 . S
C435 C438 1.499 . S
C436 H416 0.950 . S
C436 C435 1.414 . S
C436 C437 1.374 . S
C437 H417 0.950 . S
C437 C433 1.385 . S
C437 C436 1.374 . S
C438 C435 1.499 . S
C438 C439 1.373 . S
C438 C440 1.389 . S
C439 H418 0.950 . S
C439 C438 1.373 . S
C439 C455 1.377 . S
C440 C438 1.389 . S
C440 C441 1.524 . S
C440 C454 1.377 . S
C441 C440 1.524 . S
C441 C442 1.397 . S
C441 C446 1.363 . S
C442 H419 0.950 . S
C442 C441 1.397 . S
C442 C443 1.334 . S
C443 H420 0.950 . S
C443 C442 1.334 . S
C443 C444 1.287 . S
C444 C443 1.287 . S
C444 C445 1.524 . S
C444 H463 0.913 . S
C445 H421 0.950 . S
C445 C444 1.524 . S
C445 C446 1.415 . S
C446 H422 0.950 . S
C446 C441 1.363 . S
C446 C445 1.415 . S
C447 H423 0.951 1_455 S
C447 C448 1.366 . S
C447 C449 1.388 . S
C448 C447 1.366 . S
C448 C452 1.385 . S
C449 H424 0.951 . S
C449 C447 1.388 . S
C449 C450 1.366 . S
C450 C449 1.366 . S
C450 C451 1.414 . S
C450 C453 1.499 . S
C451 H425 0.950 . S
C451 C450 1.414 . S
C451 C452 1.374 . S
C452 H426 0.950 . S
C452 C448 1.385 . S
C452 C451 1.374 . S
C453 C450 1.499 . S
C453 C454 1.373 . S
C453 C455 1.389 . S
C454 H427 0.950 . S
C454 C440 1.377 . S
C454 C453 1.373 . S
C455 C439 1.377 . S
C455 C453 1.389 . S
C455 C456 1.524 . S
C456 C455 1.524 . S
C456 C457 1.397 . S
C456 C461 1.363 . S
C457 H428 0.950 . S
C457 C456 1.397 . S
C457 C458 1.334 . S
C458 H429 0.950 . S
C458 C457 1.334 . S
C458 C459 1.287 . S
C459 C458 1.287 . S
C459 C460 1.524 . S
C459 H462 0.999 . S
C460 H430 0.950 . S
C460 C459 1.524 . S
C460 C461 1.415 . S
C461 H431 0.950 . S
C461 C456 1.363 . S
C461 C460 1.415 . S
H462 C459 0.999 . S
H463 C444 0.913 . S
H464 C482 0.951 . S
H465 C484 0.951 . S
H466 C486 0.950 . S
H467 C487 0.950 . S
H468 C489 0.950 . S
H469 C492 0.950 . S
H470 C493 0.950 . S
H471 C495 0.950 . S
H472 C496 0.950 . S
H473 C497 0.943 1_545 S
H474 C499 0.951 . S
H475 C501 0.950 . S
H476 C502 0.950 . S
H477 C504 0.950 . S
H478 C507 0.950 . S
H479 C508 0.950 . S
H480 C510 0.950 . S
H481 C511 0.950 . S
C482 H464 0.951 . S
C482 C483 1.366 . S
C482 C484 1.388 . S
C483 C482 1.366 . S
C483 C487 1.385 . S
C484 H465 0.951 . S
C484 C482 1.388 . S
C484 C485 1.366 . S
C485 C484 1.366 . S
C485 C486 1.414 . S
C485 C488 1.499 . S
C486 H466 0.950 . S
C486 C485 1.414 . S
C486 C487 1.374 . S
C487 H467 0.950 . S
C487 C483 1.385 . S
C487 C486 1.374 . S
C488 C485 1.499 . S
C488 C489 1.373 . S
C488 C490 1.389 . S
C489 H468 0.950 . S
C489 C488 1.373 . S
C489 C505 1.377 1_556 S
C490 C488 1.389 . S
C490 C491 1.524 . S
C490 C504 1.377 . S
C491 C490 1.524 . S
C491 C492 1.397 . S
C491 C496 1.363 . S
C492 H469 0.950 . S
C492 C491 1.397 . S
C492 C493 1.334 . S
C493 H470 0.950 . S
C493 C492 1.334 . S
C493 C494 1.287 . S
C494 C493 1.287 . S
C494 C495 1.524 . S
C494 H513 0.913 . S
C495 H471 0.950 . S
C495 C494 1.524 . S
C495 C496 1.415 . S
C496 H472 0.950 . S
C496 C491 1.363 . S
C496 C495 1.415 . S
C497 H473 0.943 1_565 S
C497 C498 1.366 . S
C497 C499 1.388 . S
C498 C497 1.366 . S
C498 C502 1.385 . S
C499 H474 0.951 . S
C499 C497 1.388 . S
C499 C500 1.366 . S
C500 C499 1.366 . S
C500 C501 1.414 . S
C500 C503 1.499 . S
C501 H475 0.950 . S
C501 C500 1.414 . S
C501 C502 1.374 . S
C502 H476 0.950 . S
C502 C498 1.385 . S
C502 C501 1.374 . S
C503 C500 1.499 . S
C503 C504 1.373 1_554 S
C503 C505 1.389 . S
C504 H477 0.950 . S
C504 C490 1.377 . S
C504 C503 1.373 1_556 S
C505 C489 1.377 1_554 S
C505 C503 1.389 . S
C505 C506 1.524 . S
C506 C505 1.524 . S
C506 C507 1.397 . S
C506 C511 1.363 . S
C507 H478 0.950 . S
C507 C506 1.397 . S
C507 C508 1.334 . S
C508 H479 0.950 . S
C508 C507 1.334 . S
C508 C509 1.287 . S
C509 C508 1.287 . S
C509 C510 1.524 . S
C509 H512 0.999 . S
C510 H480 0.950 . S
C510 C509 1.524 . S
C510 C511 1.415 . S
C511 H481 0.950 . S
C511 C506 1.363 . S
C511 C510 1.415 . S
H512 C509 0.999 . S
H513 C494 0.913 . S
H514 C532 0.951 . S
H515 C534 0.951 . S
H516 C536 0.950 . S
H517 C537 0.950 . S
H518 C539 0.950 . S
H519 C542 0.950 . S
H520 C543 0.950 . S
H521 C545 0.950 . S
H522 C546 0.950 . S
H523 C547 0.951 . S
H524 C549 0.951 . S
H525 C551 0.950 . S
H526 C552 0.950 . S
H527 C554 0.950 . S
H528 C557 0.985 . S
H529 C558 0.950 . S
H530 C560 0.950 . S
H531 C561 0.950 . S
C532 H514 0.951 . S
C532 C533 1.366 . S
C532 C534 1.388 . S
C533 C532 1.366 . S
C533 C537 1.385 . S
C534 H515 0.951 . S
C534 C532 1.388 . S
C534 C535 1.366 . S
C535 C534 1.366 . S
C535 C536 1.414 . S
C535 C538 1.499 . S
C536 H516 0.950 . S
C536 C535 1.414 . S
C536 C537 1.374 . S
C537 H517 0.950 . S
C537 C533 1.385 . S
C537 C536 1.374 . S
C538 C535 1.499 . S
C538 C539 1.373 . S
C538 C540 1.389 . S
C539 H518 0.950 . S
C539 C538 1.373 . S
C539 C555 1.377 . S
C540 C538 1.389 . S
C540 C541 1.524 . S
C540 C554 1.377 1_554 S
C541 C540 1.524 . S
C541 C542 1.397 . S
C541 C546 1.363 1_554 S
C542 H519 0.950 . S
C542 C541 1.397 . S
C542 C543 1.334 . S
C543 H520 0.950 . S
C543 C542 1.334 . S
C543 C544 1.287 1_554 S
C544 C543 1.287 1_556 S
C544 C545 1.524 . S
C544 H563 0.913 . S
C545 H521 0.950 . S
C545 C544 1.524 . S
C545 C546 1.415 . S
C546 H522 0.950 . S
C546 C541 1.363 1_556 S
C546 C545 1.415 . S
C547 H523 0.951 . S
C547 C548 1.366 1_455 S
C547 C549 1.388 1_455 S
C548 C547 1.366 1_655 S
C548 C552 1.385 . S
C549 H524 0.951 . S
C549 C547 1.388 1_655 S
C549 C550 1.366 . S
C550 C549 1.366 . S
C550 C551 1.414 . S
C550 C553 1.499 . S
C551 H525 0.950 . S
C551 C550 1.414 . S
C551 C552 1.374 . S
C552 H526 0.950 . S
C552 C548 1.385 . S
C552 C551 1.374 . S
C553 C550 1.499 . S
C553 C554 1.373 . S
C553 C555 1.389 1_556 S
C554 H527 0.950 . S
C554 C540 1.377 1_556 S
C554 C553 1.373 . S
C555 C539 1.377 . S
C555 C553 1.389 1_554 S
C555 C556 1.524 . S
C556 C555 1.524 . S
C556 C557 1.397 . S
C556 C561 1.363 . S
C557 H528 0.985 . S
C557 C556 1.397 . S
C557 C558 1.334 . S
C558 H529 0.950 . S
C558 C557 1.334 . S
C558 C559 1.287 1_655 S
C559 C558 1.287 1_455 S
C559 C560 1.524 . S
C559 H562 0.999 . S
C560 H530 0.950 . S
C560 C559 1.524 . S
C560 C561 1.415 1_455 S
C561 H531 0.950 . S
C561 C556 1.363 . S
C561 C560 1.415 1_655 S
H562 C559 0.999 . S
H563 C544 0.913 . S
H564 C582 0.951 . S
H565 C584 0.951 . S
H566 C586 0.950 . S
H567 C587 0.950 . S
H568 C589 0.950 . S
H569 C592 0.950 . S
H570 C593 0.950 . S
H571 C595 0.950 . S
H572 C596 0.950 . S
H573 C597 0.951 . S
H574 C599 0.951 . S
H575 C601 0.950 . S
H576 C602 0.971 . S
H577 C604 0.950 . S
H578 C607 0.950 . S
H579 C608 0.950 1_565 S
H580 C610 0.950 . S
H581 C611 0.950 . S
C582 H564 0.951 . S
C582 C583 1.366 . S
C582 C584 1.388 . S
C583 C582 1.366 . S
C583 C587 1.385 . S
C584 H565 0.951 . S
C584 C582 1.388 . S
C584 C585 1.366 . S
C585 C584 1.366 . S
C585 C586 1.414 . S
C585 C588 1.499 . S
C586 H566 0.950 . S
C586 C585 1.414 . S
C586 C587 1.374 . S
C587 H567 0.950 . S
C587 C583 1.385 . S
C587 C586 1.374 . S
C588 C585 1.499 . S
C588 C589 1.373 . S
C588 C590 1.389 . S
C589 H568 0.950 . S
C589 C588 1.373 . S
C589 C605 1.377 . S
C590 C588 1.389 . S
C590 C591 1.524 . S
C590 C604 1.377 1_556 S
C591 C590 1.524 . S
C591 C592 1.397 . S
C591 C596 1.363 . S
C592 H569 0.950 . S
C592 C591 1.397 . S
C592 C593 1.334 . S
C593 H570 0.950 . S
C593 C592 1.334 . S
C593 C594 1.287 . S
C594 C593 1.287 . S
C594 C595 1.524 . S
C594 H613 0.913 . S
C595 H571 0.950 . S
C595 C594 1.524 . S
C595 C596 1.415 . S
C596 H572 0.950 . S
C596 C591 1.363 . S
C596 C595 1.415 . S
C597 H573 0.951 . S
C597 C598 1.366 . S
C597 C599 1.388 . S
C598 C597 1.366 . S
C598 C602 1.381 1_545 S
C599 H574 0.951 . S
C599 C597 1.388 . S
C599 C600 1.366 . S
C600 C599 1.366 . S
C600 C601 1.414 . S
C600 C603 1.499 . S
C601 H575 0.950 . S
C601 C600 1.414 . S
C601 C602 1.357 1_545 S
C602 H576 0.971 . S
C602 C598 1.381 1_565 S
C602 C601 1.357 1_565 S
C603 C600 1.499 . S
C603 C604 1.373 . S
C603 C605 1.389 1_554 S
C604 H577 0.950 . S
C604 C590 1.377 1_554 S
C604 C603 1.373 . S
C605 C589 1.377 . S
C605 C603 1.389 1_556 S
C605 C606 1.524 . S
C606 C605 1.524 . S
C606 C607 1.397 . S
C606 C611 1.363 . S
C607 H578 0.950 . S
C607 C606 1.397 . S
C607 C608 1.334 . S
C608 H579 0.950 1_545 S
C608 C607 1.334 . S
C608 C609 1.287 . S
C609 C608 1.287 . S
C609 C610 1.524 . S
C609 H612 0.999 . S
C610 H580 0.950 . S
C610 C609 1.524 . S
C610 C611 1.415 . S
C611 H581 0.950 . S
C611 C606 1.363 . S
C611 C610 1.415 . S
H612 C609 0.999 . S
H613 C594 0.913 . S
H614 C632 0.951 1_655 S
H615 C634 0.951 . S
H616 C636 0.950 . S
H617 C637 0.950 . S
H618 C639 0.950 . S
H619 C642 0.950 . S
H620 C643 0.950 . S
H621 C645 0.950 . S
H622 C646 0.950 . S
H623 C647 0.951 . S
H624 C649 0.951 . S
H625 C651 0.950 . S
H626 C652 0.950 . S
H627 C654 0.950 . S
H628 C657 0.950 . S
H629 C658 0.950 . S
H630 C660 0.950 . S
H631 C661 0.950 . S
C632 H614 0.951 1_455 S
C632 C633 1.366 . S
C632 C634 1.388 . S
C633 C632 1.366 . S
C633 C637 1.385 . S
C634 H615 0.951 . S
C634 C632 1.388 . S
C634 C635 1.366 . S
C635 C634 1.366 . S
C635 C636 1.414 . S
C635 C638 1.499 . S
C636 H616 0.950 . S
C636 C635 1.414 . S
C636 C637 1.374 . S
C637 H617 0.950 . S
C637 C633 1.385 . S
C637 C636 1.374 . S
C638 C635 1.499 . S
C638 C639 1.373 1_556 S
C638 C640 1.389 . S
C639 H618 0.950 . S
C639 C638 1.373 1_554 S
C639 C655 1.377 . S
C640 C638 1.389 . S
C640 C641 1.524 . S
C640 C654 1.377 1_556 S
C641 C640 1.524 . S
C641 C642 1.397 . S
C641 C646 1.363 . S
C642 H619 0.950 . S
C642 C641 1.397 . S
C642 C643 1.334 . S
C643 H620 0.950 . S
C643 C642 1.334 . S
C643 C644 1.287 . S
C644 C643 1.287 . S
C644 C645 1.524 . S
C644 H663 0.913 . S
C645 H621 0.950 . S
C645 C644 1.524 . S
C645 C646 1.415 . S
C646 H622 0.950 . S
C646 C641 1.363 . S
C646 C645 1.415 . S
C647 H623 0.951 . S
C647 C648 1.366 . S
C647 C649 1.388 . S
C648 C647 1.366 . S
C648 C652 1.385 . S
C649 H624 0.951 . S
C649 C647 1.388 . S
C649 C650 1.366 . S
C650 C649 1.366 . S
C650 C651 1.414 . S
C650 C653 1.499 . S
C651 H625 0.950 . S
C651 C650 1.414 . S
C651 C652 1.374 . S
C652 H626 0.950 . S
C652 C648 1.385 . S
C652 C651 1.374 . S
C653 C650 1.499 . S
C653 C654 1.373 . S
C653 C655 1.389 . S
C654 H627 0.950 . S
C654 C640 1.377 1_554 S
C654 C653 1.373 . S
C655 C639 1.377 . S
C655 C653 1.389 . S
C655 C656 1.524 . S
C656 C655 1.524 . S
C656 C657 1.397 . S
C656 C661 1.363 . S
C657 H628 0.950 . S
C657 C656 1.397 . S
C657 C658 1.334 . S
C658 H629 0.950 . S
C658 C657 1.334 . S
C658 C659 1.287 . S
C659 C658 1.287 . S
C659 C660 1.524 . S
C659 H662 0.999 . S
C660 H630 0.950 . S
C660 C659 1.524 . S
C660 C661 1.415 . S
C661 H631 0.950 . S
C661 C656 1.363 . S
C661 C660 1.415 . S
H662 C659 0.999 . S
H663 C644 0.913 . S
H664 C682 0.951 . S
H665 C684 0.951 . S
H666 C686 0.950 . S
H667 C687 0.934 1_545 S
H668 C689 0.950 1_545 S
H669 C692 0.950 . S
H670 C693 0.950 . S
H671 C695 0.950 . S
H672 C696 0.950 . S
H673 C697 0.951 . S
H674 C699 0.951 . S
H675 C701 0.950 . S
H676 C702 0.934 1_565 S
H677 C704 0.950 1_565 S
H678 C707 0.950 . S
H679 C708 0.950 . S
H680 C710 0.950 . S
H681 C711 0.950 . S
C682 H664 0.951 . S
C682 C683 1.366 . S
C682 C684 1.388 . S
C683 C682 1.366 . S
C683 C687 1.407 . S
C684 H665 0.951 . S
C684 C682 1.388 . S
C684 C685 1.366 . S
C685 C684 1.366 . S
C685 C686 1.414 1_565 S
C685 C688 1.499 . S
C686 H666 0.950 . S
C686 C685 1.414 1_545 S
C686 C687 1.368 1_545 S
C687 H667 0.934 1_565 S
C687 C683 1.407 . S
C687 C686 1.368 1_565 S
C688 C685 1.499 . S
C688 C689 1.373 . S
C688 C690 1.389 . S
C689 H668 0.950 1_565 S
C689 C688 1.373 . S
C689 C705 1.377 1_565 S
C690 C688 1.389 . S
C690 C691 1.524 . S
C690 C704 1.377 1_565 S
C691 C690 1.524 . S
C691 C692 1.397 1_565 S
C691 C696 1.363 . S
C692 H669 0.950 . S
C692 C691 1.397 1_545 S
C692 C693 1.334 . S
C693 H670 0.950 . S
C693 C692 1.334 . S
C693 C694 1.287 1_545 S
C694 C693 1.287 1_565 S
C694 C695 1.524 . S
C694 H713 0.913 . S
C695 H671 0.950 . S
C695 C694 1.524 . S
C695 C696 1.415 . S
C696 H672 0.950 . S
C696 C691 1.363 . S
C696 C695 1.415 . S
C697 H673 0.951 . S
C697 C698 1.366 . S
C697 C699 1.388 . S
C698 C697 1.366 . S
C698 C702 1.407 . S
C699 H674 0.951 . S
C699 C697 1.388 . S
C699 C700 1.366 . S
C700 C699 1.366 . S
C700 C701 1.414 1_545 S
C700 C703 1.499 . S
C701 H675 0.950 . S
C701 C700 1.414 1_565 S
C701 C702 1.368 1_565 S
C702 H676 0.934 1_545 S
C702 C698 1.407 . S
C702 C701 1.368 1_545 S
C703 C700 1.499 . S
C703 C704 1.373 . S
C703 C705 1.389 . S
C704 H677 0.950 1_545 S
C704 C690 1.377 1_545 S
C704 C703 1.373 . S
C705 C689 1.377 1_545 S
C705 C703 1.389 . S
C705 C706 1.524 . S
C706 C705 1.524 . S
C706 C707 1.397 1_545 S
C706 C711 1.363 . S
C707 H678 0.950 . S
C707 C706 1.397 1_565 S
C707 C708 1.334 . S
C708 H679 0.950 . S
C708 C707 1.334 . S
C708 C709 1.287 1_565 S
C709 C708 1.287 1_545 S
C709 C710 1.524 . S
C709 H712 0.999 . S
C710 H680 0.950 . S
C710 C709 1.524 . S
C710 C711 1.415 . S
C711 H681 0.950 . S
C711 C706 1.363 . S
C711 C710 1.415 . S
H712 C709 0.999 . S
H713 C694 0.913 . S
H714 C732 0.951 . S
H715 C734 0.951 . S
H716 C736 0.950 . S
H717 C737 0.950 . S
H718 C739 0.950 . S
H719 C742 0.950 . S
H720 C743 0.950 . S
H721 C745 0.950 . S
H722 C746 0.950 . S
H723 C747 0.951 . S
H724 C749 0.951 . S
H725 C751 0.950 . S
H726 C752 0.950 . S
H727 C754 0.950 . S
H728 C757 0.950 . S
H729 C758 0.950 . S
H730 C760 0.950 . S
H731 C761 0.950 . S
C732 H714 0.951 . S
C732 C733 1.366 1_655 S
C732 C734 1.388 . S
C733 C732 1.366 1_455 S
C733 C737 1.385 . S
C734 H715 0.951 . S
C734 C732 1.388 . S
C734 C735 1.366 1_655 S
C735 C734 1.366 1_455 S
C735 C736 1.414 . S
C735 C738 1.499 . S
C736 H716 0.950 . S
C736 C735 1.414 . S
C736 C737 1.374 . S
C737 H717 0.950 . S
C737 C733 1.385 . S
C737 C736 1.374 . S
C738 C735 1.499 . S
C738 C739 1.373 . S
C738 C740 1.389 1_455 S
C739 H718 0.950 . S
C739 C738 1.373 . S
C739 C755 1.377 . S
C740 C738 1.389 1_655 S
C740 C741 1.524 . S
C740 C754 1.377 . S
C741 C740 1.524 . S
C741 C742 1.397 . S
C741 C746 1.363 . S
C742 H719 0.950 . S
C742 C741 1.397 . S
C742 C743 1.334 . S
C743 H720 0.950 . S
C743 C742 1.334 . S
C743 C744 1.287 . S
C744 C743 1.287 . S
C744 C745 1.524 . S
C744 H763 0.913 . S
C745 H721 0.950 . S
C745 C744 1.524 . S
C745 C746 1.415 . S
C746 H722 0.950 . S
C746 C741 1.363 . S
C746 C745 1.415 . S
C747 H723 0.951 . S
C747 C748 1.366 1_455 S
C747 C749 1.388 . S
C748 C747 1.366 1_655 S
C748 C752 1.385 . S
C749 H724 0.951 . S
C749 C747 1.388 . S
C749 C750 1.366 1_455 S
C750 C749 1.366 1_655 S
C750 C751 1.414 . S
C750 C753 1.499 . S
C751 H725 0.950 . S
C751 C750 1.414 . S
C751 C752 1.374 . S
C752 H726 0.950 . S
C752 C748 1.385 . S
C752 C751 1.374 . S
C753 C750 1.499 . S
C753 C754 1.373 . S
C753 C755 1.389 1_655 S
C754 H727 0.950 . S
C754 C740 1.377 . S
C754 C753 1.373 . S
C755 C739 1.377 . S
C755 C753 1.389 1_455 S
C755 C756 1.524 . S
C756 C755 1.524 . S
C756 C757 1.397 . S
C756 C761 1.363 . S
C757 H728 0.950 . S
C757 C756 1.397 . S
C757 C758 1.334 . S
C758 H729 0.950 . S
C758 C757 1.334 . S
C758 C759 1.287 . S
C759 C758 1.287 . S
C759 C760 1.524 . S
C759 H762 0.999 . S
C760 H730 0.950 . S
C760 C759 1.524 . S
C760 C761 1.415 . S
C761 H731 0.950 . S
C761 C756 1.363 . S
C761 C760 1.415 . S
H762 C759 0.999 . S
H763 C744 0.913 . S
H764 C782 0.968 . S
H765 C784 0.951 . S
H766 C786 0.950 . S
H767 C787 0.950 . S
H768 C789 0.950 . S
H769 C792 0.950 . S
H770 C793 0.950 . S
H771 C795 0.950 . S
H772 C796 0.950 . S
H773 C797 0.968 . S
H774 C799 0.951 . S
H775 C801 0.950 . S
H776 C802 0.950 . S
H777 C804 0.950 . S
H778 C807 0.950 . S
H779 C808 0.950 . S
H780 C810 0.950 . S
H781 C811 0.950 . S
C782 H764 0.968 . S
C782 C783 1.344 1_565 S
C782 C784 1.393 . S
C783 C782 1.344 1_545 S
C783 C787 1.385 . S
C784 H765 0.951 . S
C784 C782 1.393 . S
C784 C785 1.366 1_565 S
C785 C784 1.366 1_545 S
C785 C786 1.414 . S
C785 C788 1.499 . S
C786 H766 0.950 . S
C786 C785 1.414 . S
C786 C787 1.374 . S
C787 H767 0.950 . S
C787 C783 1.385 . S
C787 C786 1.374 . S
C788 C785 1.499 . S
C788 C789 1.373 . S
C788 C790 1.389 1_545 S
C789 H768 0.950 . S
C789 C788 1.373 . S
C789 C805 1.377 . S
C790 C788 1.389 1_565 S
C790 C791 1.524 . S
C790 C804 1.377 . S
C791 C790 1.524 . S
C791 C792 1.397 . S
C791 C796 1.363 . S
C792 H769 0.950 . S
C792 C791 1.397 . S
C792 C793 1.334 . S
C793 H770 0.950 . S
C793 C792 1.334 . S
C793 C794 1.287 . S
C794 C793 1.287 . S
C794 C795 1.524 . S
C794 H813 0.913 . S
C795 H771 0.950 . S
C795 C794 1.524 . S
C795 C796 1.415 . S
C796 H772 0.950 . S
C796 C791 1.363 . S
C796 C795 1.415 . S
C797 H773 0.968 . S
C797 C798 1.344 1_545 S
C797 C799 1.393 . S
C798 C797 1.344 1_565 S
C798 C802 1.385 . S
C799 H774 0.951 . S
C799 C797 1.393 . S
C799 C800 1.366 1_545 S
C800 C799 1.366 1_565 S
C800 C801 1.414 . S
C800 C803 1.499 . S
C801 H775 0.950 . S
C801 C800 1.414 . S
C801 C802 1.374 . S
C802 H776 0.950 . S
C802 C798 1.385 . S
C802 C801 1.374 . S
C803 C800 1.499 . S
C803 C804 1.373 . S
C803 C805 1.389 1_565 S
C804 H777 0.950 . S
C804 C790 1.377 . S
C804 C803 1.373 . S
C805 C789 1.377 . S
C805 C803 1.389 1_545 S
C805 C806 1.524 . S
C806 C805 1.524 . S
C806 C807 1.397 . S
C806 C811 1.363 . S
C807 H778 0.950 . S
C807 C806 1.397 . S
C807 C808 1.334 . S
C808 H779 0.950 . S
C808 C807 1.334 . S
C808 C809 1.287 . S
C809 C808 1.287 . S
C809 C810 1.524 . S
C809 H812 0.999 . S
C810 H780 0.950 . S
C810 C809 1.524 . S
C810 C811 1.415 . S
C811 H781 0.950 . S
C811 C806 1.363 . S
C811 C810 1.415 . S
H812 C809 0.999 . S
H813 C794 0.913 . S
H814 C832 0.951 . S
H815 C834 0.951 . S
H816 C836 0.950 . S
H817 C837 0.950 . S
H818 C839 0.950 . S
H819 C842 0.950 1_655 S
H820 C843 0.950 . S
H821 C845 0.950 . S
H822 C846 0.950 . S
H823 C847 0.951 . S
H824 C849 0.951 . S
H825 C851 0.950 . S
H826 C852 0.950 . S
H827 C854 0.950 . S
H828 C857 0.950 1_455 S
H829 C858 0.950 . S
H830 C860 0.950 . S
H831 C861 0.950 . S
C832 H814 0.951 . S
C832 C833 1.366 . S
C832 C834 1.388 . S
C833 C832 1.366 . S
C833 C837 1.385 1_455 S
C834 H815 0.951 . S
C834 C832 1.388 . S
C834 C835 1.366 . S
C835 C834 1.366 . S
C835 C836 1.414 1_455 S
C835 C838 1.499 . S
C836 H816 0.950 . S
C836 C835 1.414 1_655 S
C836 C837 1.374 . S
C837 H817 0.950 . S
C837 C833 1.385 1_655 S
C837 C836 1.374 . S
C838 C835 1.499 . S
C838 C839 1.373 1_455 S
C838 C840 1.389 . S
C839 H818 0.950 . S
C839 C838 1.373 1_655 S
C839 C855 1.377 . S
C840 C838 1.389 . S
C840 C841 1.524 . S
C840 C854 1.377 . S
C841 C840 1.524 . S
C841 C842 1.397 . S
C841 C846 1.363 . S
C842 H819 0.950 1_455 S
C842 C841 1.397 . S
C842 C843 1.334 . S
C843 H820 0.950 . S
C843 C842 1.334 . S
C843 C844 1.287 . S
C844 C843 1.287 . S
C844 C845 1.524 . S
C844 H863 0.913 . S
C845 H821 0.950 . S
C845 C844 1.524 . S
C845 C846 1.415 . S
C846 H822 0.950 . S
C846 C841 1.363 . S
C846 C845 1.415 . S
C847 H823 0.951 . S
C847 C848 1.366 . S
C847 C849 1.388 . S
C848 C847 1.366 . S
C848 C852 1.385 1_655 S
C849 H824 0.951 . S
C849 C847 1.388 . S
C849 C850 1.366 . S
C850 C849 1.366 . S
C850 C851 1.414 1_655 S
C850 C853 1.499 . S
C851 H825 0.950 . S
C851 C850 1.414 1_455 S
C851 C852 1.374 . S
C852 H826 0.950 . S
C852 C848 1.385 1_455 S
C852 C851 1.374 . S
C853 C850 1.499 . S
C853 C854 1.373 1_655 S
C853 C855 1.389 . S
C854 H827 0.950 . S
C854 C840 1.377 . S
C854 C853 1.373 1_455 S
C855 C839 1.377 . S
C855 C853 1.389 . S
C855 C856 1.524 . S
C856 C855 1.524 . S
C856 C857 1.397 . S
C856 C861 1.363 . S
C857 H828 0.950 1_655 S
C857 C856 1.397 . S
C857 C858 1.334 . S
C858 H829 0.950 . S
C858 C857 1.334 . S
C858 C859 1.287 . S
C859 C858 1.287 . S
C859 C860 1.524 . S
C859 H862 0.999 . S
C860 H830 0.950 . S
C860 C859 1.524 . S
C860 C861 1.415 . S
C861 H831 0.950 . S
C861 C856 1.363 . S
C861 C860 1.415 . S
H862 C859 0.999 . S
H863 C844 0.913 . S
H864 C882 0.951 . S
H865 C884 0.951 . S
H866 C886 0.950 . S
H867 C887 0.950 . S
H868 C889 0.950 . S
H869 C892 0.950 1_545 S
H870 C893 0.950 . S
H871 C895 0.950 . S
H872 C896 0.950 . S
H873 C897 0.951 . S
H874 C899 0.951 . S
H875 C901 0.950 . S
H876 C902 0.950 . S
H877 C904 0.950 . S
H878 C907 0.950 1_565 S
H879 C908 0.950 . S
H880 C910 0.950 . S
H881 C911 0.950 . S
C882 H864 0.951 . S
C882 C883 1.366 1_565 S
C882 C884 1.388 . S
C883 C882 1.366 1_545 S
C883 C887 1.385 . S
C884 H865 0.951 . S
C884 C882 1.388 . S
C884 C885 1.366 1_565 S
C885 C884 1.366 1_545 S
C885 C886 1.414 . S
C885 C888 1.499 . S
C886 H866 0.950 . S
C886 C885 1.414 . S
C886 C887 1.374 . S
C887 H867 0.950 . S
C887 C883 1.385 . S
C887 C886 1.374 . S
C888 C885 1.499 . S
C888 C889 1.373 . S
C888 C890 1.389 1_545 S
C889 H868 0.950 . S
C889 C888 1.373 . S
C889 C905 1.377 1_455 S
C890 C888 1.389 1_565 S
C890 C891 1.524 . S
C890 C904 1.377 1_455 S
C891 C890 1.524 . S
C891 C892 1.397 . S
C891 C896 1.363 . S
C892 H869 0.950 1_565 S
C892 C891 1.397 . S
C892 C893 1.334 . S
C893 H870 0.950 . S
C893 C892 1.334 . S
C893 C894 1.287 . S
C894 C893 1.287 . S
C894 C895 1.524 . S
C894 H913 0.913 . S
C895 H871 0.950 . S
C895 C894 1.524 . S
C895 C896 1.415 . S
C896 H872 0.950 . S
C896 C891 1.363 . S
C896 C895 1.415 . S
C897 H873 0.951 . S
C897 C898 1.366 1_545 S
C897 C899 1.388 . S
C898 C897 1.366 1_565 S
C898 C902 1.385 . S
C899 H874 0.951 . S
C899 C897 1.388 . S
C899 C900 1.366 1_545 S
C900 C899 1.366 1_565 S
C900 C901 1.414 . S
C900 C903 1.499 . S
C901 H875 0.950 . S
C901 C900 1.414 . S
C901 C902 1.374 . S
C902 H876 0.950 . S
C902 C898 1.385 . S
C902 C901 1.374 . S
C903 C900 1.499 . S
C903 C904 1.373 . S
C903 C905 1.389 1_565 S
C904 H877 0.950 . S
C904 C890 1.377 1_655 S
C904 C903 1.373 . S
C905 C889 1.377 1_655 S
C905 C903 1.389 1_545 S
C905 C906 1.524 . S
C906 C905 1.524 . S
C906 C907 1.397 . S
C906 C911 1.363 . S
C907 H878 0.950 1_545 S
C907 C906 1.397 . S
C907 C908 1.334 . S
C908 H879 0.950 . S
C908 C907 1.334 . S
C908 C909 1.287 . S
C909 C908 1.287 . S
C909 C910 1.524 . S
C909 H912 0.999 . S
C910 H880 0.950 . S
C910 C909 1.524 . S
C910 C911 1.415 . S
C911 H881 0.950 . S
C911 C906 1.363 . S
C911 C910 1.415 . S
H912 C909 0.999 . S
H913 C894 0.913 . S
H914 C932 0.951 . S
H915 C934 0.951 . S
H916 C936 0.950 1_655 S
H917 C937 0.952 . S
H918 C939 0.950 . S
H919 C942 0.950 . S
H920 C943 0.950 . S
H921 C945 0.950 . S
H922 C946 0.964 . S
H923 C947 0.951 . S
H924 C949 0.951 . S
H925 C951 0.950 1_455 S
H926 C952 0.952 . S
H927 C954 0.950 . S
H928 C957 0.950 . S
H929 C958 0.950 . S
H930 C960 0.950 . S
H931 C961 0.964 . S
C932 H914 0.951 . S
C932 C933 1.366 . S
C932 C934 1.388 . S
C933 C932 1.366 . S
C933 C937 1.385 . S
C934 H915 0.951 . S
C934 C932 1.388 . S
C934 C935 1.366 . S
C935 C934 1.366 . S
C935 C936 1.414 . S
C935 C938 1.499 . S
C936 H916 0.950 1_455 S
C936 C935 1.414 . S
C936 C937 1.374 . S
C937 H917 0.952 . S
C937 C933 1.385 . S
C937 C936 1.374 . S
C938 C935 1.499 . S
C938 C939 1.373 1_455 S
C938 C940 1.389 . S
C939 H918 0.950 . S
C939 C938 1.373 1_655 S
C939 C955 1.377 1_565 S
C940 C938 1.389 . S
C940 C941 1.524 . S
C940 C954 1.377 1_565 S
C941 C940 1.524 . S
C941 C942 1.397 . S
C941 C946 1.363 . S
C942 H919 0.950 . S
C942 C941 1.397 . S
C942 C943 1.334 . S
C943 H920 0.950 . S
C943 C942 1.334 . S
C943 C944 1.287 . S
C944 C943 1.287 . S
C944 C945 1.524 . S
C944 H963 0.913 . S
C945 H921 0.950 . S
C945 C944 1.524 . S
C945 C946 1.415 . S
C946 H922 0.964 . S
C946 C941 1.363 . S
C946 C945 1.415 . S
C947 H923 0.951 . S
C947 C948 1.366 . S
C947 C949 1.388 . S
C948 C947 1.366 . S
C948 C952 1.385 . S
C949 H924 0.951 . S
C949 C947 1.388 . S
C949 C950 1.366 . S
C950 C949 1.366 . S
C950 C951 1.414 . S
C950 C953 1.499 . S
C951 H925 0.950 1_655 S
C951 C950 1.414 . S
C951 C952 1.374 . S
C952 H926 0.952 . S
C952 C948 1.385 . S
C952 C951 1.374 . S
C953 C950 1.499 . S
C953 C954 1.373 1_655 S
C953 C955 1.389 . S
C954 H927 0.950 . S
C954 C940 1.377 1_545 S
C954 C953 1.373 1_455 S
C955 C939 1.377 1_545 S
C955 C953 1.389 . S
C955 C956 1.524 . S
C956 C955 1.524 . S
C956 C957 1.397 . S
C956 C961 1.363 . S
C957 H928 0.950 . S
C957 C956 1.397 . S
C957 C958 1.334 . S
C958 H929 0.950 . S
C958 C957 1.334 . S
C958 C959 1.287 . S
C959 C958 1.287 . S
C959 C960 1.524 . S
C959 H962 0.999 . S
C960 H930 0.950 . S
C960 C959 1.524 . S
C960 C961 1.415 . S
C961 H931 0.964 . S
C961 C956 1.363 . S
C961 C960 1.415 . S
H962 C959 0.999 . S
H963 C944 0.913 . S
H964 C982 0.951 . S
H965 C984 0.951 . S
H966 C986 0.950 . S
H967 C987 0.950 . S
H968 C989 0.950 . S
H969 C992 0.950 . S
H970 C993 0.950 . S
H971 C995 0.950 . S
H972 C996 0.950 1_655 S
H973 C997 0.951 . S
H974 C999 0.951 . S
H975 C1001 0.950 . S
H976 C1002 0.950 . S
H977 C1004 0.950 . S
H978 C1007 0.950 . S
H979 C1008 0.950 . S
H980 C1010 0.950 . S
H981 C1011 0.950 1_455 S
C982 H964 0.951 . S
C982 C983 1.366 . S
C982 C984 1.388 . S
C983 C982 1.366 . S
C983 C987 1.385 1_565 S
C984 H965 0.951 . S
C984 C982 1.388 . S
C984 C985 1.366 . S
C985 C984 1.366 . S
C985 C986 1.414 1_565 S
C985 C988 1.499 . S
C986 H966 0.950 . S
C986 C985 1.414 1_545 S
C986 C987 1.374 . S
C987 H967 0.950 . S
C987 C983 1.385 1_545 S
C987 C986 1.374 . S
C988 C985 1.499 . S
C988 C989 1.373 1_565 S
C988 C990 1.389 . S
C989 H968 0.950 . S
C989 C988 1.373 1_545 S
C989 C1005 1.377 1_455 S
C990 C988 1.389 . S
C990 C991 1.524 . S
C990 C1004 1.377 1_455 S
C991 C990 1.524 . S
C991 C992 1.397 . S
C991 C996 1.363 . S
C992 H969 0.950 . S
C992 C991 1.397 . S
C992 C993 1.334 . S
C993 H970 0.950 . S
C993 C992 1.334 . S
C993 C994 1.287 . S
C994 C993 1.287 . S
C994 C995 1.524 . S
C994 H1013 0.913 . S
C995 H971 0.950 . S
C995 C994 1.524 . S
C995 C996 1.415 . S
C996 H972 0.950 1_455 S
C996 C991 1.363 . S
C996 C995 1.415 . S
C997 H973 0.951 . S
C997 C998 1.366 . S
C997 C999 1.388 . S
C998 C997 1.366 . S
C998 C1002 1.385 1_545 S
C999 H974 0.951 . S
C999 C997 1.388 . S
C999 C1000 1.366 . S
C1000 C999 1.366 . S
C1000 C1001 1.414 1_545 S
C1000 C1003 1.499 . S
C1001 H975 0.950 . S
C1001 C1000 1.414 1_565 S
C1001 C1002 1.374 . S
C1002 H976 0.950 . S
C1002 C998 1.385 1_565 S
C1002 C1001 1.374 . S
C1003 C1000 1.499 . S
C1003 C1004 1.373 1_545 S
C1003 C1005 1.389 . S
C1004 H977 0.950 . S
C1004 C990 1.377 1_655 S
C1004 C1003 1.373 1_565 S
C1005 C989 1.377 1_655 S
C1005 C1003 1.389 . S
C1005 C1006 1.524 . S
C1006 C1005 1.524 . S
C1006 C1007 1.397 . S
C1006 C1011 1.363 . S
C1007 H978 0.950 . S
C1007 C1006 1.397 . S
C1007 C1008 1.334 . S
C1008 H979 0.950 . S
C1008 C1007 1.334 . S
C1008 C1009 1.287 . S
C1009 C1008 1.287 . S
C1009 C1010 1.524 . S
C1009 H1012 0.999 . S
C1010 H980 0.950 . S
C1010 C1009 1.524 . S
C1010 C1011 1.415 . S
C1011 H981 0.950 1_655 S
C1011 C1006 1.363 . S
C1011 C1010 1.415 . S
H1012 C1009 0.999 . S
H1013 C994 0.913 . S
H1014 C1032 0.951 . S
H1015 C1034 0.951 . S
H1016 C1036 0.950 . S
H1017 C1037 0.950 . S
H1018 C1039 0.950 . S
H1019 C1042 0.950 . S
H1020 C1043 0.950 . S
H1021 C1045 0.950 . S
H1022 C1046 0.950 . S
H1023 C1047 0.951 . S
H1024 C1049 0.951 . S
H1025 C1051 0.950 . S
H1026 C1052 0.950 . S
H1027 C1054 0.950 . S
H1028 C1057 0.950 . S
H1029 C1058 0.950 . S
H1030 C1060 0.950 . S
H1031 C1061 0.950 . S
C1032 H1014 0.951 . S
C1032 C1033 1.366 . S
C1032 C1034 1.388 . S
C1033 C1032 1.366 . S
C1033 C1037 1.385 . S
C1034 H1015 0.951 . S
C1034 C1032 1.388 . S
C1034 C1035 1.366 . S
C1035 C1034 1.366 . S
C1035 C1036 1.414 . S
C1035 C1038 1.499 . S
C1036 H1016 0.950 . S
C1036 C1035 1.414 . S
C1036 C1037 1.374 . S
C1037 H1017 0.950 . S
C1037 C1033 1.385 . S
C1037 C1036 1.374 . S
C1038 C1035 1.499 . S
C1038 C1039 1.373 1_655 S
C1038 C1040 1.389 . S
C1039 H1018 0.950 . S
C1039 C1038 1.373 1_455 S
C1039 C1055 1.377 1_565 S
C1040 C1038 1.389 . S
C1040 C1041 1.524 . S
C1040 C1054 1.377 1_565 S
C1041 C1040 1.524 . S
C1041 C1042 1.397 . S
C1041 C1046 1.363 . S
C1042 H1019 0.950 . S
C1042 C1041 1.397 . S
C1042 C1043 1.334 . S
C1043 H1020 0.950 . S
C1043 C1042 1.334 . S
C1043 C1044 1.287 . S
C1044 C1043 1.287 . S
C1044 C1045 1.524 . S
C1044 H1063 0.913 . S
C1045 H1021 0.950 . S
C1045 C1044 1.524 . S
C1045 C1046 1.415 . S
C1046 H1022 0.950 . S
C1046 C1041 1.363 . S
C1046 C1045 1.415 . S
C1047 H1023 0.951 . S
C1047 C1048 1.366 . S
C1047 C1049 1.388 . S
C1048 C1047 1.366 . S
C1048 C1052 1.385 . S
C1049 H1024 0.951 . S
C1049 C1047 1.388 . S
C1049 C1050 1.366 . S
C1050 C1049 1.366 . S
C1050 C1051 1.414 . S
C1050 C1053 1.499 . S
C1051 H1025 0.950 . S
C1051 C1050 1.414 . S
C1051 C1052 1.374 . S
C1052 H1026 0.950 . S
C1052 C1048 1.385 . S
C1052 C1051 1.374 . S
C1053 C1050 1.499 . S
C1053 C1054 1.373 1_455 S
C1053 C1055 1.389 . S
C1054 H1027 0.950 . S
C1054 C1040 1.377 1_545 S
C1054 C1053 1.373 1_655 S
C1055 C1039 1.377 1_545 S
C1055 C1053 1.389 . S
C1055 C1056 1.524 . S
C1056 C1055 1.524 . S
C1056 C1057 1.397 . S
C1056 C1061 1.363 . S
C1057 H1028 0.950 . S
C1057 C1056 1.397 . S
C1057 C1058 1.334 . S
C1058 H1029 0.950 . S
C1058 C1057 1.334 . S
C1058 C1059 1.287 . S
C1059 C1058 1.287 . S
C1059 C1060 1.524 . S
C1059 H1062 0.999 . S
C1060 H1030 0.950 . S
C1060 C1059 1.524 . S
C1060 C1061 1.415 . S
C1061 H1031 0.950 . S
C1061 C1056 1.363 . S
C1061 C1060 1.415 . S
H1062 C1059 0.999 . S
H1063 C1044 0.913 . S
H1064 C1082 0.951 . S
H1065 C1084 0.951 . S
H1066 C1086 0.950 . S
H1067 C1087 0.950 . S
H1068 C1089 0.950 . S
H1069 C1092 0.950 . S
H1070 C1093 0.950 . S
H1071 C1095 0.950 . S
H1072 C1096 0.950 . S
H1073 C1097 0.951 . S
H1074 C1099 0.951 . S
H1075 C1101 0.950 . S
H1076 C1102 0.950 . S
H1077 C1104 0.950 . S
H1078 C1107 0.950 . S
H1079 C1108 0.950 . S
H1080 C1110 0.950 . S
H1081 C1111 0.950 . S
C1082 H1064 0.951 . S
C1082 C1083 1.366 . S
C1082 C1084 1.388 . S
C1083 C1082 1.366 . S
C1083 C1087 1.385 . S
C1084 H1065 0.951 . S
C1084 C1082 1.388 . S
C1084 C1085 1.366 . S
C1085 C1084 1.366 . S
C1085 C1086 1.414 . S
C1085 C1088 1.499 . S
C1086 H1066 0.950 . S
C1086 C1085 1.414 . S
C1086 C1087 1.374 . S
C1087 H1067 0.950 . S
C1087 C1083 1.385 . S
C1087 C1086 1.374 . S
C1088 C1085 1.499 . S
C1088 C1089 1.373 . S
C1088 C1090 1.389 . S
C1089 H1068 0.950 . S
C1089 C1088 1.373 . S
C1089 C1105 1.377 . S
C1090 C1088 1.389 . S
C1090 C1091 1.524 . S
C1090 C1104 1.377 . S
C1091 C1090 1.524 . S
C1091 C1092 1.397 . S
C1091 C1096 1.363 . S
C1092 H1069 0.950 . S
C1092 C1091 1.397 . S
C1092 C1093 1.334 . S
C1093 H1070 0.950 . S
C1093 C1092 1.334 . S
C1093 C1094 1.287 . S
C1094 C1093 1.287 . S
C1094 C1095 1.524 . S
C1094 H1113 0.913 . S
C1095 H1071 0.950 . S
C1095 C1094 1.524 . S
C1095 C1096 1.415 . S
C1096 H1072 0.950 . S
C1096 C1091 1.363 . S
C1096 C1095 1.415 . S
C1097 H1073 0.951 . S
C1097 C1098 1.366 . S
C1097 C1099 1.388 . S
C1098 C1097 1.366 . S
C1098 C1102 1.385 . S
C1099 H1074 0.951 . S
C1099 C1097 1.388 . S
C1099 C1100 1.366 . S
C1100 C1099 1.366 . S
C1100 C1101 1.414 . S
C1100 C1103 1.499 . S
C1101 H1075 0.950 . S
C1101 C1100 1.414 . S
C1101 C1102 1.374 . S
C1102 H1076 0.950 . S
C1102 C1098 1.385 . S
C1102 C1101 1.374 . S
C1103 C1100 1.499 . S
C1103 C1104 1.373 . S
C1103 C1105 1.389 . S
C1104 H1077 0.950 . S
C1104 C1090 1.377 . S
C1104 C1103 1.373 . S
C1105 C1089 1.377 . S
C1105 C1103 1.389 . S
C1105 C1106 1.524 . S
C1106 C1105 1.524 . S
C1106 C1107 1.397 . S
C1106 C1111 1.363 . S
C1107 H1078 0.950 . S
C1107 C1106 1.397 . S
C1107 C1108 1.334 . S
C1108 H1079 0.950 . S
C1108 C1107 1.334 . S
C1108 C1109 1.287 . S
C1109 C1108 1.287 . S
C1109 C1110 1.524 . S
C1109 H1112 0.999 1_455 S
C1110 H1080 0.950 . S
C1110 C1109 1.524 . S
C1110 C1111 1.415 . S
C1111 H1081 0.950 . S
C1111 C1106 1.363 . S
C1111 C1110 1.415 . S
H1112 C1109 0.999 1_655 S
H1113 C1094 0.913 . S
H1114 C1132 0.951 . S
H1115 C1134 0.951 . S
H1116 C1136 0.950 . S
H1117 C1137 0.950 . S
H1118 C1139 0.950 . S
H1119 C1142 0.950 . S
H1120 C1143 0.950 . S
H1121 C1145 0.950 . S
H1122 C1146 0.950 . S
H1123 C1147 0.951 . S
H1124 C1149 0.951 . S
H1125 C1151 0.950 . S
H1126 C1152 0.950 . S
H1127 C1154 0.950 . S
H1128 C1157 0.950 . S
H1129 C1158 0.950 . S
H1130 C1160 0.950 . S
H1131 C1161 0.950 . S
C1132 H1114 0.951 . S
C1132 C1133 1.366 . S
C1132 C1134 1.388 . S
C1133 C1132 1.366 . S
C1133 C1137 1.385 . S
C1134 H1115 0.951 . S
C1134 C1132 1.388 . S
C1134 C1135 1.366 . S
C1135 C1134 1.366 . S
C1135 C1136 1.414 . S
C1135 C1138 1.499 . S
C1136 H1116 0.950 . S
C1136 C1135 1.414 . S
C1136 C1137 1.374 . S
C1137 H1117 0.950 . S
C1137 C1133 1.385 . S
C1137 C1136 1.374 . S
C1138 C1135 1.499 . S
C1138 C1139 1.373 . S
C1138 C1140 1.389 . S
C1139 H1118 0.950 . S
C1139 C1138 1.373 . S
C1139 C1155 1.377 . S
C1140 C1138 1.389 . S
C1140 C1141 1.524 . S
C1140 C1154 1.377 . S
C1141 C1140 1.524 . S
C1141 C1142 1.397 . S
C1141 C1146 1.363 . S
C1142 H1119 0.950 . S
C1142 C1141 1.397 . S
C1142 C1143 1.334 . S
C1143 H1120 0.950 . S
C1143 C1142 1.334 . S
C1143 C1144 1.287 . S
C1144 C1143 1.287 . S
C1144 C1145 1.524 . S
C1144 H1163 0.913 . S
C1145 H1121 0.950 . S
C1145 C1144 1.524 . S
C1145 C1146 1.415 . S
C1146 H1122 0.950 . S
C1146 C1141 1.363 . S
C1146 C1145 1.415 . S
C1147 H1123 0.951 . S
C1147 C1148 1.366 . S
C1147 C1149 1.388 . S
C1148 C1147 1.366 . S
C1148 C1152 1.385 . S
C1149 H1124 0.951 . S
C1149 C1147 1.388 . S
C1149 C1150 1.366 . S
C1150 C1149 1.366 . S
C1150 C1151 1.414 . S
C1150 C1153 1.499 . S
C1151 H1125 0.950 . S
C1151 C1150 1.414 . S
C1151 C1152 1.374 . S
C1152 H1126 0.950 . S
C1152 C1148 1.385 . S
C1152 C1151 1.374 . S
C1153 C1150 1.499 . S
C1153 C1154 1.373 . S
C1153 C1155 1.389 . S
C1154 H1127 0.950 . S
C1154 C1140 1.377 . S
C1154 C1153 1.373 . S
C1155 C1139 1.377 . S
C1155 C1153 1.389 . S
C1155 C1156 1.524 . S
C1156 C1155 1.524 . S
C1156 C1157 1.397 . S
C1156 C1161 1.363 . S
C1157 H1128 0.950 . S
C1157 C1156 1.397 . S
C1157 C1158 1.334 . S
C1158 H1129 0.950 . S
C1158 C1157 1.334 . S
C1158 C1159 1.287 . S
C1159 C1158 1.287 . S
C1159 C1160 1.524 . S
C1159 H1162 0.999 . S
C1160 H1130 0.950 . S
C1160 C1159 1.524 . S
C1160 C1161 1.415 . S
C1161 H1131 0.950 . S
C1161 C1156 1.363 . S
C1161 C1160 1.415 . S
H1162 C1159 0.999 . S
H1163 C1144 0.913 . S
H1164 C1182 0.951 . S
H1165 C1184 0.951 . S
H1166 C1186 0.950 . S
H1167 C1187 0.950 . S
H1168 C1189 0.950 . S
H1169 C1192 0.950 . S
H1170 C1193 0.950 . S
H1171 C1195 0.950 . S
H1172 C1196 0.950 . S
H1173 C1197 0.951 . S
H1174 C1199 0.951 . S
H1175 C1201 0.950 . S
H1176 C1202 0.950 . S
H1177 C1204 0.950 . S
H1178 C1207 0.950 . S
H1179 C1208 0.950 . S
H1180 C1210 0.950 . S
H1181 C1211 0.950 . S
C1182 H1164 0.951 . S
C1182 C1183 1.366 . S
C1182 C1184 1.388 . S
C1183 C1182 1.366 . S
C1183 C1187 1.385 . S
C1184 H1165 0.951 . S
C1184 C1182 1.388 . S
C1184 C1185 1.366 . S
C1185 C1184 1.366 . S
C1185 C1186 1.414 . S
C1185 C1188 1.499 . S
C1186 H1166 0.950 . S
C1186 C1185 1.414 . S
C1186 C1187 1.374 . S
C1187 H1167 0.950 . S
C1187 C1183 1.385 . S
C1187 C1186 1.374 . S
C1188 C1185 1.499 . S
C1188 C1189 1.373 . S
C1188 C1190 1.389 . S
C1189 H1168 0.950 . S
C1189 C1188 1.373 . S
C1189 C1205 1.377 . S
C1190 C1188 1.389 . S
C1190 C1191 1.524 . S
C1190 C1204 1.377 . S
C1191 C1190 1.524 . S
C1191 C1192 1.397 . S
C1191 C1196 1.363 . S
C1192 H1169 0.950 . S
C1192 C1191 1.397 . S
C1192 C1193 1.334 . S
C1193 H1170 0.950 . S
C1193 C1192 1.334 . S
C1193 C1194 1.287 . S
C1194 C1193 1.287 . S
C1194 C1195 1.524 . S
C1194 H1213 0.913 . S
C1195 H1171 0.950 . S
C1195 C1194 1.524 . S
C1195 C1196 1.415 . S
C1196 H1172 0.950 . S
C1196 C1191 1.363 . S
C1196 C1195 1.415 . S
C1197 H1173 0.951 . S
C1197 C1198 1.366 . S
C1197 C1199 1.388 . S
C1198 C1197 1.366 . S
C1198 C1202 1.385 . S
C1199 H1174 0.951 . S
C1199 C1197 1.388 . S
C1199 C1200 1.366 . S
C1200 C1199 1.366 . S
C1200 C1201 1.414 . S
C1200 C1203 1.499 . S
C1201 H1175 0.950 . S
C1201 C1200 1.414 . S
C1201 C1202 1.374 . S
C1202 H1176 0.950 . S
C1202 C1198 1.385 . S
C1202 C1201 1.374 . S
C1203 C1200 1.499 . S
C1203 C1204 1.373 . S
C1203 C1205 1.389 . S
C1204 H1177 0.950 . S
C1204 C1190 1.377 . S
C1204 C1203 1.373 . S
C1205 C1189 1.377 . S
C1205 C1203 1.389 . S
C1205 C1206 1.524 . S
C1206 C1205 1.524 . S
C1206 C1207 1.397 . S
C1206 C1211 1.363 . S
C1207 H1178 0.950 . S
C1207 C1206 1.397 . S
C1207 C1208 1.334 . S
C1208 H1179 0.950 . S
C1208 C1207 1.334 . S
C1208 C1209 1.287 . S
C1209 C1208 1.287 . S
C1209 C1210 1.524 . S
C1209 H1212 0.999 . S
C1210 H1180 0.950 . S
C1210 C1209 1.524 . S
C1210 C1211 1.415 . S
C1211 H1181 0.950 . S
C1211 C1206 1.363 . S
C1211 C1210 1.415 . S
H1212 C1209 0.999 . S
H1213 C1194 0.913 . S
H1214 C1232 0.951 . S
H1215 C1234 0.951 . S
H1216 C1236 0.950 . S
H1217 C1237 0.950 . S
H1218 C1239 0.950 . S
H1219 C1242 0.950 . S
H1220 C1243 0.950 . S
H1221 C1245 0.950 . S
H1222 C1246 0.950 . S
H1223 C1247 0.951 . S
H1224 C1249 0.951 . S
H1225 C1251 0.950 . S
H1226 C1252 0.950 . S
H1227 C1254 0.950 . S
H1228 C1257 0.950 . S
H1229 C1258 0.950 . S
H1230 C1260 0.950 . S
H1231 C1261 0.950 . S
C1232 H1214 0.951 . S
C1232 C1233 1.366 . S
C1232 C1234 1.388 . S
C1233 C1232 1.366 . S
C1233 C1237 1.385 . S
C1234 H1215 0.951 . S
C1234 C1232 1.388 . S
C1234 C1235 1.366 . S
C1235 C1234 1.366 . S
C1235 C1236 1.414 . S
C1235 C1238 1.499 . S
C1236 H1216 0.950 . S
C1236 C1235 1.414 . S
C1236 C1237 1.374 . S
C1237 H1217 0.950 . S
C1237 C1233 1.385 . S
C1237 C1236 1.374 . S
C1238 C1235 1.499 . S
C1238 C1239 1.373 . S
C1238 C1240 1.389 . S
C1239 H1218 0.950 . S
C1239 C1238 1.373 . S
C1239 C1255 1.377 . S
C1240 C1238 1.389 . S
C1240 C1241 1.524 . S
C1240 C1254 1.377 . S
C1241 C1240 1.524 . S
C1241 C1242 1.397 . S
C1241 C1246 1.363 . S
C1242 H1219 0.950 . S
C1242 C1241 1.397 . S
C1242 C1243 1.334 . S
C1243 H1220 0.950 . S
C1243 C1242 1.334 . S
C1243 C1244 1.287 . S
C1244 C1243 1.287 . S
C1244 C1245 1.524 . S
C1244 H1263 0.913 . S
C1245 H1221 0.950 . S
C1245 C1244 1.524 . S
C1245 C1246 1.415 . S
C1246 H1222 0.950 . S
C1246 C1241 1.363 . S
C1246 C1245 1.415 . S
C1247 H1223 0.951 . S
C1247 C1248 1.366 . S
C1247 C1249 1.388 . S
C1248 C1247 1.366 . S
C1248 C1252 1.385 . S
C1249 H1224 0.951 . S
C1249 C1247 1.388 . S
C1249 C1250 1.366 . S
C1250 C1249 1.366 . S
C1250 C1251 1.414 . S
C1250 C1253 1.499 . S
C1251 H1225 0.950 . S
C1251 C1250 1.414 . S
C1251 C1252 1.374 . S
C1252 H1226 0.950 . S
C1252 C1248 1.385 . S
C1252 C1251 1.374 . S
C1253 C1250 1.499 . S
C1253 C1254 1.373 . S
C1253 C1255 1.389 . S
C1254 H1227 0.950 . S
C1254 C1240 1.377 . S
C1254 C1253 1.373 . S
C1255 C1239 1.377 . S
C1255 C1253 1.389 . S
C1255 C1256 1.524 . S
C1256 C1255 1.524 . S
C1256 C1257 1.397 . S
C1256 C1261 1.363 . S
C1257 H1228 0.950 . S
C1257 C1256 1.397 . S
C1257 C1258 1.334 . S
C1258 H1229 0.950 . S
C1258 C1257 1.334 . S
C1258 C1259 1.287 . S
C1259 C1258 1.287 . S
C1259 C1260 1.524 . S
C1259 H1262 0.999 . S
C1260 H1230 0.950 . S
C1260 C1259 1.524 . S
C1260 C1261 1.415 . S
C1261 H1231 0.950 . S
C1261 C1256 1.363 . S
C1261 C1260 1.415 . S
H1262 C1259 0.999 . S
H1263 C1244 0.913 . S
C283 N14 0.845 1_565 S
C298 C41 0.841 . S
C333 C74 0.839 . S
C348 N47 0.844 1_655 S
C383 N80 0.846 1_545 S
C398 C107 0.840 . S
C433 C8 0.840 . S
C448 N113 0.846 1_455 S
C483 C239 0.840 . S
C498 N146 0.846 1_565 S
C533 C140 0.841 . S
C548 N179 0.844 1_655 S
C583 C173 0.840 . S
C598 N212 0.844 1_545 S
C633 N245 0.846 1_455 S
C648 C206 0.839 . S
C683 C83 1.224 . S
C698 C17 1.224 . S
C733 C50 1.224 . S
C748 C116 1.224 . S
C783 C149 1.224 . S
C798 C215 1.224 . S
C833 C182 1.224 . S
C848 C248 1.224 . S
C883 C28 0.533 . S
C898 C94 0.530 . S
C933 C61 0.534 . S
C948 C127 0.534 . S
C983 C226 0.534 . S
C998 C160 0.531 . S
C1033 C259 0.534 . S
C1048 C193 0.533 . S
C1083 N5 1.618 . S
C1098 N170 1.618 . S
C1133 N203 1.618 . S
C1148 N38 1.618 . S
C1183 N236 1.618 . S
C1198 N71 1.618 . S
C1233 N104 1.618 . S
C1248 N137 1.618 . S
