# Generated by pormake.
# Topology mok, (4)-cn, num edge types: 1
# Building blocks:
#     Node 0, Type 0, BuildingBlock: QUQFOY_clean_sbu_1, # of connection points: 4
#     Node 1, Type 0, BuildingBlock: QUQFOY_clean_sbu_1, # of connection points: 4
#     Node 2, Type 0, BuildingBlock: QUQFOY_clean_sbu_1, # of connection points: 4
#     Node 3, Type 0, BuildingBlock: QUQFOY_clean_sbu_1, # of connection points: 4
#     Node 4, Type 0, BuildingBlock: QUQFOY_clean_sbu_1, # of connection points: 4
#     Node 5, Type 0, BuildingBlock: QUQFOY_clean_sbu_1, # of connection points: 4
#     Node 6, Type 0, BuildingBlock: QUQFOY_clean_sbu_1, # of connection points: 4
#     Node 7, Type 0, BuildingBlock: QUQFOY_clean_sbu_1, # of connection points: 4
#     Edge 8, Type (0, 0), BuildingBlock: XIVTED_clean_linker_0, # of connection points: 2
#     Edge 9, Type (0, 0), BuildingBlock: XIVTED_clean_linker_0, # of connection points: 2
#     Edge 10, Type (0, 0), BuildingBlock: XIVTED_clean_linker_0, # of connection points: 2
#     Edge 11, Type (0, 0), BuildingBlock: XIVTED_clean_linker_0, # of connection points: 2
#     Edge 12, Type (0, 0), BuildingBlock: XIVTED_clean_linker_0, # of connection points: 2
#     Edge 13, Type (0, 0), BuildingBlock: XIVTED_clean_linker_0, # of connection points: 2
#     Edge 14, Type (0, 0), BuildingBlock: XIVTED_clean_linker_0, # of connection points: 2
#     Edge 15, Type (0, 0), BuildingBlock: XIVTED_clean_linker_0, # of connection points: 2
#     Edge 16, Type (0, 0), BuildingBlock: XIVTED_clean_linker_0, # of connection points: 2
#     Edge 17, Type (0, 0), BuildingBlock: XIVTED_clean_linker_0, # of connection points: 2
#     Edge 18, Type (0, 0), BuildingBlock: XIVTED_clean_linker_0, # of connection points: 2
#     Edge 19, Type (0, 0), BuildingBlock: XIVTED_clean_linker_0, # of connection points: 2
#     Edge 20, Type (0, 0), BuildingBlock: XIVTED_clean_linker_0, # of connection points: 2
#     Edge 21, Type (0, 0), BuildingBlock: XIVTED_clean_linker_0, # of connection points: 2
#     Edge 22, Type (0, 0), BuildingBlock: XIVTED_clean_linker_0, # of connection points: 2
#     Edge 23, Type (0, 0), BuildingBlock: XIVTED_clean_linker_0, # of connection points: 2
# Relax obj value: 0.035
# Max RMSD: 0.075
# Mean RMSD: 0.075
data_MOF--net-mok--node1-QUQFOY_clean_sbu_1--edge1-XIVTED_clean_linker_0
_symmetry_space_group_name_H-M    P1
_symmetry_Int_Tables_number       1
_symmetry_cell_setting            triclinic
loop_
_symmetry_equiv_pos_as_xyz
'x, y, z'
_cell_length_a     55.338098
_cell_length_b     15.861662
_cell_length_c     28.791764
_cell_angle_alpha  89.995577
_cell_angle_beta   89.96476
_cell_angle_gamma 89.963235
loop_
_atom_site_label
_atom_site_type_symbol
_atom_site_fract_x
_atom_site_fract_y
_atom_site_fract_z
_atom_type_partial_charge
O0 O 0.61387 0.31322 0.99562 0.0
Cd1 Cd 0.62106 0.24132 0.05318 0.0
Cd2 Cd 0.62702 0.39372 0.09204 0.0
O3 O 0.61448 0.43876 0.02837 0.0
O4 O 0.6055 0.13111 0.03843 0.0
O5 O 0.59351 0.21318 0.09617 0.0
C6 C 0.59023 0.14649 0.07125 0.0
C7 C 0.61035 0.43011 0.16383 0.0
C8 C 0.61133 0.39258 0.99269 0.0
C9 C 0.671 0.28182 0.08473 0.0
O10 O 0.66255 0.35394 0.09517 0.0
O11 O 0.6573 0.22431 0.06872 0.0
O12 O 0.62322 0.48314 0.14047 0.0
O13 O 0.60581 0.35783 0.14512 0.0
O14 O 0.4071 0.68221 0.99656 0.0
Cd15 Cd 0.40077 0.75058 0.0563 0.0
Cd16 Cd 0.39534 0.59627 0.09044 0.0
O17 O 0.40976 0.55598 0.02801 0.0
O18 O 0.41626 0.86189 0.04325 0.0
O19 O 0.42907 0.77495 0.09806 0.0
C20 C 0.43201 0.84366 0.07473 0.0
C21 C 0.41123 0.56087 0.1627 0.0
C22 C 0.41139 0.60382 0.99271 0.0
C23 C 0.35091 0.70482 0.08577 0.0
O24 O 0.35942 0.63075 0.09023 0.0
O25 O 0.36489 0.76611 0.07596 0.0
O26 O 0.3994 0.50637 0.13838 0.0
O27 O 0.41498 0.6344 0.14488 0.0
O28 O 0.61767 0.70546 0.66495 0.0
Cd29 Cd 0.62258 0.76536 0.60224 0.0
Cd30 Cd 0.6255 0.60574 0.57087 0.0
O31 O 0.61166 0.57795 0.6364 0.0
O32 O 0.60634 0.87865 0.60505 0.0
O33 O 0.59302 0.772 0.56267 0.0
C34 C 0.59002 0.84776 0.57787 0.0
C35 C 0.60893 0.56317 0.49983 0.0
C36 C 0.61202 0.62849 0.67085 0.0
C37 C 0.67099 0.70958 0.56883 0.0
O38 O 0.66165 0.63637 0.56751 0.0
O39 O 0.65791 0.77361 0.57799 0.0
O40 O 0.62022 0.51011 0.52604 0.0
O41 O 0.60582 0.63862 0.51541 0.0
O42 O 0.40563 0.30037 0.66426 0.0
Cd43 Cd 0.40069 0.23928 0.60179 0.0
Cd44 Cd 0.39546 0.39738 0.57087 0.0
O45 O 0.40998 0.42806 0.63497 0.0
O46 O 0.41737 0.12693 0.60544 0.0
O47 O 0.43021 0.23269 0.56183 0.0
C48 C 0.4335 0.15754 0.57772 0.0
C49 C 0.41144 0.43974 0.4996 0.0
C50 C 0.41064 0.37803 0.66955 0.0
C51 C 0.35124 0.28856 0.57045 0.0
O52 O 0.35955 0.36326 0.56948 0.0
O53 O 0.36532 0.22655 0.57831 0.0
O54 O 0.39981 0.49234 0.52559 0.0
O55 O 0.41497 0.36461 0.51533 0.0
O56 O 0.11529 0.81695 0.99477 0.0
Cd57 Cd 0.12147 0.74887 0.05467 0.0
Cd58 Cd 0.12664 0.90312 0.08866 0.0
O59 O 0.11226 0.94311 0.02617 0.0
O60 O 0.10643 0.63704 0.04122 0.0
O61 O 0.09292 0.72334 0.09573 0.0
C62 C 0.09038 0.65455 0.07229 0.0
C63 C 0.11061 0.9382 0.1609 0.0
C64 C 0.11084 0.89522 0.99086 0.0
C65 C 0.17119 0.79537 0.08453 0.0
O66 O 0.16262 0.86941 0.08864 0.0
O67 O 0.15727 0.73387 0.07483 0.0
O68 O 0.12236 0.99292 0.13655 0.0
O69 O 0.10699 0.86457 0.14309 0.0
O70 O 0.90803 0.18702 0.9947 0.0
Cd71 Cd 0.90086 0.25966 0.05201 0.0
Cd72 Cd 0.89418 0.10807 0.09116 0.0
O73 O 0.90682 0.06197 0.02792 0.0
O74 O 0.91714 0.36878 0.03762 0.0
O75 O 0.92819 0.28604 0.09577 0.0
C76 C 0.93203 0.35247 0.07092 0.0
C77 C 0.91033 0.06908 0.16284 0.0
C78 C 0.91028 0.10752 0.99212 0.0
C79 C 0.85064 0.22189 0.08293 0.0
O80 O 0.85879 0.14955 0.09376 0.0
O81 O 0.86462 0.2786 0.06691 0.0
O82 O 0.89722 0.01755 0.13904 0.0
O83 O 0.91533 0.1415 0.14472 0.0
O84 O 0.11643 0.19863 0.66235 0.0
Cd85 Cd 0.12167 0.25989 0.59998 0.0
Cd86 Cd 0.12689 0.10177 0.56898 0.0
O87 O 0.11235 0.07085 0.63305 0.0
O88 O 0.10529 0.37272 0.60381 0.0
O89 O 0.09233 0.26792 0.55967 0.0
C90 C 0.0892 0.34302 0.57576 0.0
C91 C 0.11087 0.05956 0.49775 0.0
C92 C 0.11152 0.12088 0.66761 0.0
C93 C 0.17119 0.21029 0.56897 0.0
O94 O 0.16283 0.13568 0.56764 0.0
O95 O 0.15714 0.27231 0.57698 0.0
O96 O 0.12251 0.00693 0.52366 0.0
O97 O 0.10736 0.13469 0.51351 0.0
O98 O 0.90526 0.799 0.6637 0.0
Cd99 Cd 0.90069 0.73888 0.60087 0.0
Cd100 Cd 0.89446 0.89686 0.57055 0.0
O101 O 0.90871 0.9275 0.63508 0.0
O102 O 0.91742 0.62673 0.60451 0.0
O103 O 0.93027 0.73254 0.56095 0.0
C104 C 0.93352 0.65728 0.57673 0.0
C105 C 0.91036 0.94036 0.4993 0.0
C106 C 0.90968 0.87697 0.66944 0.0
C107 C 0.85093 0.78498 0.56963 0.0
O108 O 0.8587 0.86039 0.56873 0.0
O109 O 0.86543 0.72421 0.5775 0.0
O110 O 0.89853 0.99225 0.52537 0.0
O111 O 0.9142 0.86534 0.51496 0.0
H112 H 0.82198 0.3023 0.02002 0.0
H113 H 0.70108 0.32742 0.15547 0.0
H114 H 0.81972 0.17372 0.15193 0.0
H115 H 0.70054 0.20728 0.02114 0.0
H116 H 0.74545 0.31353 0.15738 0.0
H117 H 0.77759 0.31344 0.02174 0.0
C118 C 0.81215 0.27784 0.04966 0.0
C119 C 0.82439 0.23721 0.08595 0.0
C120 C 0.73548 0.28996 0.12774 0.0
C121 C 0.77413 0.25089 0.08831 0.0
C122 C 0.71032 0.29772 0.1266 0.0
C123 C 0.69727 0.26765 0.08827 0.0
C124 C 0.74755 0.25506 0.08951 0.0
C125 C 0.71 0.2302 0.05152 0.0
C126 C 0.78696 0.28357 0.05038 0.0
C127 C 0.81086 0.20543 0.12332 0.0
N128 N 0.73455 0.22619 0.05266 0.0
N129 N 0.78638 0.21369 0.12383 0.0
H130 H 0.20629 0.91513 0.09607 0.0
H131 H 0.31575 0.58539 0.09766 0.0
H132 H 0.19657 0.64606 0.08313 0.0
H133 H 0.32557 0.85419 0.08331 0.0
H134 H 0.27212 0.60681 0.10065 0.0
H135 H 0.24991 0.89385 0.09969 0.0
C136 C 0.21328 0.85142 0.09424 0.0
C137 C 0.19764 0.78224 0.08912 0.0
C138 C 0.28381 0.66115 0.09697 0.0
C139 C 0.24777 0.7576 0.09326 0.0
C140 C 0.30878 0.64908 0.09539 0.0
C141 C 0.32445 0.71814 0.09006 0.0
C142 C 0.27431 0.74293 0.09347 0.0
C143 C 0.31424 0.79906 0.0873 0.0
C144 C 0.23825 0.83943 0.09618 0.0
C145 C 0.20787 0.70129 0.08693 0.0
N146 N 0.28983 0.80919 0.089 0.0
N147 N 0.23228 0.69124 0.08898 0.0
H148 H 0.82715 0.63314 0.57167 0.0
H149 H 0.70328 0.58829 0.54206 0.0
H150 H 0.8147 0.90019 0.5553 0.0
H151 H 0.6992 0.85111 0.58021 0.0
H152 H 0.74695 0.60026 0.53651 0.0
H153 H 0.78377 0.60936 0.56754 0.0
C154 C 0.81532 0.68672 0.56646 0.0
C155 C 0.82469 0.76876 0.56373 0.0
C156 C 0.73669 0.65518 0.54682 0.0
C157 C 0.77466 0.74198 0.5579 0.0
C158 C 0.71158 0.64861 0.5495 0.0
C159 C 0.69747 0.71857 0.5622 0.0
C160 C 0.74794 0.7322 0.55739 0.0
C161 C 0.70932 0.79533 0.57061 0.0
C162 C 0.79042 0.67305 0.56367 0.0
C163 C 0.80836 0.83577 0.55748 0.0
N164 N 0.73386 0.79996 0.56824 0.0
N165 N 0.78419 0.82093 0.5551 0.0
H166 H 0.19618 0.36016 0.56758 0.0
H167 H 0.32629 0.13857 0.56834 0.0
H168 H 0.20654 0.09083 0.55847 0.0
H169 H 0.31591 0.40796 0.55984 0.0
H170 H 0.28248 0.1196 0.56358 0.0
H171 H 0.24001 0.37907 0.56358 0.0
C172 C 0.20762 0.30503 0.56446 0.0
C173 C 0.19759 0.22377 0.56355 0.0
C174 C 0.28981 0.18284 0.56249 0.0
C175 C 0.24786 0.24494 0.55926 0.0
C176 C 0.31485 0.19371 0.56521 0.0
C177 C 0.32487 0.275 0.56467 0.0
C178 C 0.27462 0.25375 0.55951 0.0
C179 C 0.30907 0.34406 0.56049 0.0
C180 C 0.23267 0.31586 0.56218 0.0
C181 C 0.21339 0.15471 0.5594 0.0
N182 N 0.28479 0.33187 0.55836 0.0
N183 N 0.23769 0.16685 0.55771 0.0
H184 H 0.59641 0.31886 0.2315 0.0
H185 H 0.59345 0.66952 0.4313 0.0
H186 H 0.60858 0.58378 0.20684 0.0
H187 H 0.60938 0.40752 0.45791 0.0
H188 H 0.58837 0.63657 0.34893 0.0
H189 H 0.5907 0.34922 0.31433 0.0
C190 C 0.59742 0.38358 0.24333 0.0
C191 C 0.60316 0.44887 0.21229 0.0
C192 C 0.59268 0.58616 0.37292 0.0
C193 C 0.5966 0.48382 0.3068 0.0
C194 C 0.59547 0.60475 0.42001 0.0
C195 C 0.60209 0.54127 0.45155 0.0
C196 C 0.59629 0.50334 0.35721 0.0
C197 C 0.60446 0.45852 0.43479 0.0
C198 C 0.59431 0.40071 0.29061 0.0
C199 C 0.60437 0.53148 0.2296 0.0
N200 N 0.6017 0.44199 0.3887 0.0
N201 N 0.60122 0.54655 0.2757 0.0
H202 H 0.41401 0.40665 0.20481 0.0
H203 H 0.41086 0.59554 0.45824 0.0
H204 H 0.42371 0.6723 0.23115 0.0
H205 H 0.42719 0.33403 0.43103 0.0
H206 H 0.41654 0.6263 0.37562 0.0
H207 H 0.41981 0.37863 0.28754 0.0
C208 C 0.41769 0.45897 0.22793 0.0
C209 C 0.41821 0.54196 0.21115 0.0
C210 C 0.41925 0.56244 0.38788 0.0
C211 C 0.42446 0.51054 0.30598 0.0
C212 C 0.41598 0.54483 0.43502 0.0
C213 C 0.41834 0.46197 0.45149 0.0
C214 C 0.4245 0.49646 0.35692 0.0
C215 C 0.42508 0.39878 0.41986 0.0
C216 C 0.42104 0.44295 0.27515 0.0
C217 C 0.42313 0.60734 0.24264 0.0
N218 N 0.42754 0.41709 0.37399 0.0
N219 N 0.42567 0.59039 0.28868 0.0
H220 H 0.41583 0.4372 0.9677 0.0
H221 H 0.41964 0.54148 0.6957 0.0
H222 H 0.41845 0.68931 0.91132 0.0
H223 H 0.41313 0.28956 0.75118 0.0
H224 H 0.4242 0.5954 0.77467 0.0
H225 H 0.41986 0.38077 0.88898 0.0
C226 C 0.41752 0.48071 0.93889 0.0
C227 C 0.41654 0.56816 0.94616 0.0
C228 C 0.42195 0.52823 0.76955 0.0
C229 C 0.42103 0.50399 0.85594 0.0
C230 C 0.41938 0.49735 0.7244 0.0
C231 C 0.41575 0.4109 0.71672 0.0
C232 C 0.42085 0.47236 0.80739 0.0
C233 C 0.41569 0.35678 0.75538 0.0
C234 C 0.41976 0.44844 0.89391 0.0
C235 C 0.41888 0.62145 0.90743 0.0
N236 N 0.418 0.38846 0.79901 0.0
N237 N 0.42083 0.58854 0.86405 0.0
H238 H 0.59925 0.31037 0.91268 0.0
H239 H 0.61162 0.71901 0.75196 0.0
H240 H 0.61235 0.56001 0.96682 0.0
H241 H 0.60195 0.46659 0.69903 0.0
H242 H 0.60756 0.6648 0.83093 0.0
H243 H 0.59566 0.36948 0.83497 0.0
C244 C 0.60118 0.37787 0.90835 0.0
C245 C 0.60636 0.43018 0.94646 0.0
C246 C 0.60615 0.62135 0.80205 0.0
C247 C 0.60238 0.49841 0.85696 0.0
C248 C 0.60845 0.65222 0.75684 0.0
C249 C 0.60733 0.59719 0.71862 0.0
C250 C 0.60273 0.53468 0.80932 0.0
C251 C 0.60307 0.51139 0.7273 0.0
C252 C 0.59914 0.41158 0.86381 0.0
C253 C 0.60844 0.51722 0.93852 0.0
N254 N 0.60109 0.48278 0.77169 0.0
N255 N 0.60666 0.54852 0.89459 0.0
H256 H 0.10754 0.0924 0.20292 0.0
H257 H 0.1114 0.90373 0.45643 0.0
H258 H 0.09841 0.82658 0.2295 0.0
H259 H 0.095 0.16518 0.42925 0.0
H260 H 0.10556 0.87283 0.3739 0.0
H261 H 0.10184 0.12044 0.28568 0.0
C262 C 0.104 0.04003 0.2261 0.0
C263 C 0.10362 0.957 0.20937 0.0
C264 C 0.10287 0.93671 0.38615 0.0
C265 C 0.09749 0.98845 0.30425 0.0
C266 C 0.10623 0.9544 0.43324 0.0
C267 C 0.1039 0.03729 0.44969 0.0
C268 C 0.09755 0.00263 0.35519 0.0
C269 C 0.09709 0.10041 0.41808 0.0
C270 C 0.10071 0.05607 0.27334 0.0
C271 C 0.09888 0.89157 0.24094 0.0
N272 N 0.09453 0.08202 0.37225 0.0
N273 N 0.09639 0.90854 0.28701 0.0
H274 H 0.91009 0.09692 0.45874 0.0
H275 H 0.91174 0.91396 0.20408 0.0
H276 H 0.92554 0.83539 0.42987 0.0
H277 H 0.92407 0.17773 0.23184 0.0
H278 H 0.91734 0.88368 0.28665 0.0
H279 H 0.91574 0.12912 0.37623 0.0
C280 C 0.915 0.04649 0.43518 0.0
C281 C 0.91716 0.96324 0.45118 0.0
C282 C 0.91919 0.94804 0.2746 0.0
C283 C 0.92327 -0.0006 0.3567 0.0
C284 C 0.91596 0.96536 0.22748 0.0
C285 C 0.91731 0.04853 0.21112 0.0
C286 C 0.92328 0.01458 0.30582 0.0
C287 C 0.92289 0.11267 0.24298 0.0
C288 C 0.91826 0.06493 0.38811 0.0
C289 C 0.92362 0.90044 0.41909 0.0
N290 N 0.92527 0.09457 0.28895 0.0
N291 N 0.92607 0.91957 0.3733 0.0
H292 H 0.9198 0.03941 0.69601 0.0
H293 H 0.91015 0.93934 0.96797 0.0
H294 H 0.91031 0.78852 0.75128 0.0
H295 H 0.92147 0.18811 0.91109 0.0
H296 H 0.91388 0.88054 0.88957 0.0
H297 H 0.92406 0.09288 0.77511 0.0
C298 C 0.9188 0.9954 0.72471 0.0
C299 C 0.91448 0.9094 0.71687 0.0
C300 C 0.91576 0.94792 0.89438 0.0
C301 C 0.9192 0.97037 0.80779 0.0
C302 C 0.9137 0.98149 0.93917 0.0
C303 C 0.91525 0.06891 0.94617 0.0
C304 C 0.91936 0.00219 0.85635 0.0
C305 C 0.91989 0.12041 0.90744 0.0
C306 C 0.92122 0.02599 0.76995 0.0
C307 C 0.91347 0.8554 0.75557 0.0
N308 N 0.92158 0.0864 0.8643 0.0
N309 N 0.91561 0.88685 0.7993 0.0
H310 H 0.10603 0.06169 0.96578 0.0
H311 H 0.10281 0.95722 0.69377 0.0
H312 H 0.1042 0.80949 0.90944 0.0
H313 H 0.10867 0.20934 0.74922 0.0
H314 H 0.0983 0.9032 0.77275 0.0
H315 H 0.10197 0.11797 0.88703 0.0
C316 C 0.10452 0.01812 0.93697 0.0
C317 C 0.10572 0.9307 0.94427 0.0
C318 C 0.10039 0.97043 0.76762 0.0
C319 C 0.10119 0.99471 0.85401 0.0
C320 C 0.10294 0.00137 0.72247 0.0
C321 C 0.10638 0.08792 0.71477 0.0
C322 C 0.10133 0.02633 0.80545 0.0
C323 C 0.10627 0.14205 0.75343 0.0
C324 C 0.10226 0.0503 0.89198 0.0
C325 C 0.1036 0.87734 0.90553 0.0
N326 N 0.10398 0.11031 0.79706 0.0
N327 N 0.10162 0.91017 0.86213 0.0
H328 H 0.46245 0.85446 0.15008 0.0
H329 H 0.56985 0.04481 1.00622 0.0
H330 H 0.45254 0.94626 0.01029 0.0
H331 H 0.55993 0.13251 0.14686 0.0
H332 H 0.53069 0.974 0.01038 0.0
H333 H 0.50173 0.92772 0.15309 0.0
C334 C 0.4684 0.89066 0.1203 0.0
C335 C 0.4542 0.89469 0.07993 0.0
C336 C 0.53724 0.00818 0.04042 0.0
C337 C 0.4991 0.97525 0.08268 0.0
C338 C 0.55965 0.04795 0.03829 0.0
C339 C 0.56814 0.09475 0.07626 0.0
C340 C 0.52343 0.01343 0.08113 0.0
C341 C 0.55398 0.09721 0.11679 0.0
C342 C 0.49073 0.93217 0.12208 0.0
C343 C 0.46279 0.94203 0.04222 0.0
N344 N 0.53227 0.05668 0.11832 0.0
N345 N 0.48485 0.97928 0.04423 0.0
H346 H 0.54698 0.78362 0.5481 0.0
H347 H 0.47653 0.22219 0.54806 0.0
H348 H 0.5815 0.01761 0.58599 0.0
H349 H 0.44215 0.98794 0.58594 0.0
H350 H 0.51515 0.14751 0.54095 0.0
H351 H 0.50844 0.85858 0.5409 0.0
C352 C 0.54655 0.85101 0.55415 0.0
C353 C 0.56746 0.89448 0.56789 0.0
C354 C 0.49907 0.11252 0.55033 0.0
C355 C 0.52351 0.98026 0.55933 0.0
C356 C 0.47701 0.1548 0.55411 0.0
C357 C 0.45612 0.11116 0.56782 0.0
C358 C 0.50013 0.02572 0.55935 0.0
C359 C 0.45785 0.024 0.57554 0.0
C360 C 0.52453 0.89347 0.5503 0.0
C361 C 0.56578 0.98167 0.57556 0.0
N362 N 0.47949 0.98403 0.57114 0.0
N363 N 0.54416 0.02181 0.57113 0.0
H364 H 0.07159 0.547 1.00833 0.0
H365 H 0.96098 0.36805 0.14825 0.0
H366 H 0.05862 0.64559 0.14583 0.0
H367 H 0.95428 0.44873 1.00569 0.0
H368 H 1.00036 0.44057 0.15253 0.0
H369 H 0.03247 0.4756 0.01125 0.0
C370 C 0.06072 0.5524 0.0395 0.0
C371 C 0.06834 0.60247 0.07688 0.0
C372 C 0.99004 0.44269 0.1206 0.0
C373 C 0.02369 0.52048 0.08036 0.0
C374 C 0.96767 0.4016 0.1181 0.0
C375 C 0.95432 0.40281 0.0766 0.0
C376 C 0.99933 0.48242 0.08089 0.0
C377 C 0.96384 0.44676 0.03846 0.0
C378 C 0.03835 0.51226 0.04091 0.0
C379 C 0.05335 0.60776 0.11623 0.0
N380 N 0.98592 0.48364 0.0413 0.0
N381 N 0.03169 0.56688 0.11709 0.0
H382 H 0.04609 0.28036 0.54538 0.0
H383 H 0.97667 0.72107 0.54703 0.0
H384 H 0.08107 0.51288 0.58435 0.0
H385 H 0.94176 0.48741 0.58423 0.0
H386 H 0.01509 0.64525 0.53938 0.0
H387 H 1.00772 0.35654 0.53824 0.0
C388 C 0.04579 0.34769 0.55166 0.0
C389 C 0.06677 0.39039 0.56571 0.0
C390 C 0.99893 0.61065 0.54871 0.0
C391 C 0.02305 0.47756 0.55721 0.0
C392 C 0.977 0.6536 0.55282 0.0
C393 C 0.95602 0.61043 0.56652 0.0
C394 C 0.99979 0.5237 0.55741 0.0
C395 C 0.95754 0.52312 0.57387 0.0
C396 C 0.02388 0.39084 0.54784 0.0
C397 C 0.06529 0.47753 0.57369 0.0
N398 N 0.97906 0.48252 0.56918 0.0
N399 N 0.04378 0.51836 0.56929 0.0
loop_
_geom_bond_atom_site_label_1
_geom_bond_atom_site_label_2
_geom_bond_distance
_geom_bond_site_symmetry_2
_ccdc_geom_bond_type
O0 Cd1 2.223 1_556 S
O0 C8 1.315 . S
Cd1 O0 2.223 1_554 S
Cd1 O4 2.297 1_554 S
Cd1 O5 2.439 . S
Cd1 O11 2.240 . S
Cd2 O3 2.240 . S
Cd2 O10 2.223 . S
Cd2 O12 2.297 . S
Cd2 O13 2.439 . S
O3 Cd2 2.240 . S
O3 C8 1.279 1_554 S
O4 Cd1 2.297 1_556 S
O4 C6 1.247 1_556 S
O5 Cd1 2.439 . S
O5 C6 1.208 . S
C6 O4 1.247 1_554 S
C6 O5 1.208 . S
C7 O12 1.247 . S
C7 O13 1.208 . S
C8 O0 1.315 . S
C8 O3 1.279 1_556 S
C9 O10 1.315 . S
C9 O11 1.279 . S
O10 Cd2 2.223 . S
O10 C9 1.315 . S
O11 Cd1 2.240 . S
O11 C9 1.279 . S
O12 Cd2 2.297 . S
O12 C7 1.247 . S
O13 Cd2 2.439 . S
O13 C7 1.208 . S
O14 Cd15 2.223 1_556 S
O14 C22 1.315 . S
Cd15 O14 2.223 1_554 S
Cd15 O18 2.297 1_554 S
Cd15 O19 2.439 . S
Cd15 O25 2.240 . S
Cd16 O17 2.240 . S
Cd16 O24 2.223 . S
Cd16 O26 2.297 . S
Cd16 O27 2.439 . S
O17 Cd16 2.240 . S
O17 C22 1.279 1_554 S
O18 Cd15 2.297 1_556 S
O18 C20 1.247 1_556 S
O19 Cd15 2.439 . S
O19 C20 1.208 . S
C20 O18 1.247 1_554 S
C20 O19 1.208 . S
C21 O26 1.247 . S
C21 O27 1.208 . S
C22 O14 1.315 . S
C22 O17 1.279 1_556 S
C23 O24 1.315 . S
C23 O25 1.279 . S
O24 Cd16 2.223 . S
O24 C23 1.315 . S
O25 Cd15 2.240 . S
O25 C23 1.279 . S
O26 Cd16 2.297 . S
O26 C21 1.247 . S
O27 Cd16 2.439 . S
O27 C21 1.208 . S
O28 Cd29 2.223 . S
O28 C36 1.315 . S
Cd29 O28 2.223 . S
Cd29 O32 2.297 . S
Cd29 O33 2.439 . S
Cd29 O39 2.240 . S
Cd30 O31 2.240 . S
Cd30 O38 2.223 . S
Cd30 O40 2.297 . S
Cd30 O41 2.439 . S
O31 Cd30 2.240 . S
O31 C36 1.279 . S
O32 Cd29 2.297 . S
O32 C34 1.247 . S
O33 Cd29 2.439 . S
O33 C34 1.208 . S
C34 O32 1.247 . S
C34 O33 1.208 . S
C35 O40 1.247 . S
C35 O41 1.208 . S
C36 O28 1.315 . S
C36 O31 1.279 . S
C37 O38 1.315 . S
C37 O39 1.279 . S
O38 Cd30 2.223 . S
O38 C37 1.315 . S
O39 Cd29 2.240 . S
O39 C37 1.279 . S
O40 Cd30 2.297 . S
O40 C35 1.247 . S
O41 Cd30 2.439 . S
O41 C35 1.208 . S
O42 Cd43 2.223 . S
O42 C50 1.315 . S
Cd43 O42 2.223 . S
Cd43 O46 2.297 . S
Cd43 O47 2.439 . S
Cd43 O53 2.240 . S
Cd44 O45 2.240 . S
Cd44 O52 2.223 . S
Cd44 O54 2.297 . S
Cd44 O55 2.439 . S
O45 Cd44 2.240 . S
O45 C50 1.279 . S
O46 Cd43 2.297 . S
O46 C48 1.247 . S
O47 Cd43 2.439 . S
O47 C48 1.208 . S
C48 O46 1.247 . S
C48 O47 1.208 . S
C49 O54 1.247 . S
C49 O55 1.208 . S
C50 O42 1.315 . S
C50 O45 1.279 . S
C51 O52 1.315 . S
C51 O53 1.279 . S
O52 Cd44 2.223 . S
O52 C51 1.315 . S
O53 Cd43 2.240 . S
O53 C51 1.279 . S
O54 Cd44 2.297 . S
O54 C49 1.247 . S
O55 Cd44 2.439 . S
O55 C49 1.208 . S
O56 Cd57 2.223 1_556 S
O56 C64 1.315 . S
Cd57 O56 2.223 1_554 S
Cd57 O60 2.297 1_554 S
Cd57 O61 2.439 . S
Cd57 O67 2.240 . S
Cd58 O59 2.240 . S
Cd58 O66 2.223 . S
Cd58 O68 2.297 . S
Cd58 O69 2.439 . S
O59 Cd58 2.240 . S
O59 C64 1.279 1_554 S
O60 Cd57 2.297 1_556 S
O60 C62 1.247 1_556 S
O61 Cd57 2.439 . S
O61 C62 1.208 . S
C62 O60 1.247 1_554 S
C62 O61 1.208 . S
C63 O68 1.247 . S
C63 O69 1.208 . S
C64 O56 1.315 . S
C64 O59 1.279 1_556 S
C65 O66 1.315 . S
C65 O67 1.279 . S
O66 Cd58 2.223 . S
O66 C65 1.315 . S
O67 Cd57 2.240 . S
O67 C65 1.279 . S
O68 Cd58 2.297 . S
O68 C63 1.247 . S
O69 Cd58 2.439 . S
O69 C63 1.208 . S
O70 Cd71 2.223 1_556 S
O70 C78 1.315 . S
Cd71 O70 2.223 1_554 S
Cd71 O74 2.297 1_554 S
Cd71 O75 2.439 . S
Cd71 O81 2.240 . S
Cd72 O73 2.240 . S
Cd72 O80 2.223 . S
Cd72 O82 2.297 . S
Cd72 O83 2.439 . S
O73 Cd72 2.240 . S
O73 C78 1.279 1_554 S
O74 Cd71 2.297 1_556 S
O74 C76 1.247 1_556 S
O75 Cd71 2.439 . S
O75 C76 1.208 . S
C76 O74 1.247 1_554 S
C76 O75 1.208 . S
C77 O82 1.247 . S
C77 O83 1.208 . S
C78 O70 1.315 . S
C78 O73 1.279 1_556 S
C79 O80 1.315 . S
C79 O81 1.279 . S
O80 Cd72 2.223 . S
O80 C79 1.315 . S
O81 Cd71 2.240 . S
O81 C79 1.279 . S
O82 Cd72 2.297 . S
O82 C77 1.247 . S
O83 Cd72 2.439 . S
O83 C77 1.208 . S
O84 Cd85 2.223 . S
O84 C92 1.315 . S
Cd85 O84 2.223 . S
Cd85 O88 2.297 . S
Cd85 O89 2.439 . S
Cd85 O95 2.240 . S
Cd86 O87 2.240 . S
Cd86 O94 2.223 . S
Cd86 O96 2.297 . S
Cd86 O97 2.439 . S
O87 Cd86 2.240 . S
O87 C92 1.279 . S
O88 Cd85 2.297 . S
O88 C90 1.247 . S
O89 Cd85 2.439 . S
O89 C90 1.208 . S
C90 O88 1.247 . S
C90 O89 1.208 . S
C91 O96 1.247 . S
C91 O97 1.208 . S
C92 O84 1.315 . S
C92 O87 1.279 . S
C93 O94 1.315 . S
C93 O95 1.279 . S
O94 Cd86 2.223 . S
O94 C93 1.315 . S
O95 Cd85 2.240 . S
O95 C93 1.279 . S
O96 Cd86 2.297 . S
O96 C91 1.247 . S
O97 Cd86 2.439 . S
O97 C91 1.208 . S
O98 Cd99 2.223 . S
O98 C106 1.315 . S
Cd99 O98 2.223 . S
Cd99 O102 2.297 . S
Cd99 O103 2.439 . S
Cd99 O109 2.240 . S
Cd100 O101 2.240 . S
Cd100 O108 2.223 . S
Cd100 O110 2.297 . S
Cd100 O111 2.439 . S
O101 Cd100 2.240 . S
O101 C106 1.279 . S
O102 Cd99 2.297 . S
O102 C104 1.247 . S
O103 Cd99 2.439 . S
O103 C104 1.208 . S
C104 O102 1.247 . S
C104 O103 1.208 . S
C105 O110 1.247 . S
C105 O111 1.208 . S
C106 O98 1.315 . S
C106 O101 1.279 . S
C107 O108 1.315 . S
C107 O109 1.279 . S
O108 Cd100 2.223 . S
O108 C107 1.315 . S
O109 Cd99 2.240 . S
O109 C107 1.279 . S
O110 Cd100 2.297 . S
O110 C105 1.247 . S
O111 Cd100 2.439 . S
O111 C105 1.208 . S
H112 C118 0.943 . S
H113 C122 0.930 . S
H114 C127 0.929 . S
H115 C125 0.929 . S
H116 C120 0.929 . S
H117 C126 0.942 . S
C118 H112 0.943 . S
C118 C119 1.354 1_556 S
C118 C126 1.378 . S
C119 C118 1.354 1_554 S
C119 C127 1.433 . S
C120 H116 0.929 . S
C120 C122 1.378 . S
C120 C124 1.350 . S
C121 C124 1.463 . S
C121 C126 1.337 1_554 S
C121 N129 1.427 . S
C122 H113 0.930 . S
C122 C120 1.378 . S
C122 C123 1.367 . S
C123 C122 1.367 . S
C123 C125 1.433 1_554 S
C124 C120 1.350 . S
C124 C121 1.463 . S
C124 N128 1.409 1_554 S
C125 H115 0.929 . S
C125 C123 1.433 1_556 S
C125 N128 1.384 . S
C126 H117 0.942 . S
C126 C118 1.378 . S
C126 C121 1.337 1_556 S
C127 H114 0.929 . S
C127 C119 1.433 . S
C127 N129 1.384 . S
N128 C124 1.409 1_556 S
N128 C125 1.384 . S
N129 C121 1.427 . S
N129 C127 1.384 . S
H130 C136 0.930 . S
H131 C140 0.930 . S
H132 C145 0.929 . S
H133 C143 0.929 . S
H134 C138 0.929 . S
H135 C144 0.929 . S
C136 H130 0.930 . S
C136 C137 1.367 . S
C136 C144 1.378 . S
C137 C136 1.367 . S
C137 C145 1.433 . S
C138 H134 0.929 . S
C138 C140 1.378 . S
C138 C142 1.350 . S
C139 C142 1.463 . S
C139 C144 1.350 . S
C139 N147 1.427 . S
C140 H131 0.930 . S
C140 C138 1.378 . S
C140 C141 1.367 . S
C141 C140 1.367 . S
C141 C143 1.433 . S
C142 C138 1.350 . S
C142 C139 1.463 . S
C142 N146 1.427 . S
C143 H133 0.929 . S
C143 C141 1.433 . S
C143 N146 1.384 . S
C144 H135 0.929 . S
C144 C136 1.378 . S
C144 C139 1.350 . S
C145 H132 0.929 . S
C145 C137 1.433 . S
C145 N147 1.384 . S
N146 C142 1.427 . S
N146 C143 1.384 . S
N147 C139 1.427 . S
N147 C145 1.384 . S
H148 C154 0.930 . S
H149 C158 0.930 . S
H150 C163 0.929 . S
H151 C161 0.929 . S
H152 C156 0.929 . S
H153 C162 0.929 . S
C154 H148 0.930 . S
C154 C155 1.367 . S
C154 C162 1.378 . S
C155 C154 1.367 . S
C155 C163 1.433 . S
C156 H152 0.929 . S
C156 C158 1.378 . S
C156 C160 1.350 . S
C157 C160 1.463 . S
C157 C162 1.350 . S
C157 N165 1.427 . S
C158 H149 0.930 . S
C158 C156 1.378 . S
C158 C159 1.367 . S
C159 C158 1.367 . S
C159 C161 1.433 . S
C160 C156 1.350 . S
C160 C157 1.463 . S
C160 N164 1.427 . S
C161 H151 0.929 . S
C161 C159 1.433 . S
C161 N164 1.384 . S
C162 H153 0.929 . S
C162 C154 1.378 . S
C162 C157 1.350 . S
C163 H150 0.929 . S
C163 C155 1.433 . S
C163 N165 1.384 . S
N164 C160 1.427 . S
N164 C161 1.384 . S
N165 C157 1.427 . S
N165 C163 1.384 . S
H166 C172 0.930 . S
H167 C176 0.930 . S
H168 C181 0.929 . S
H169 C179 0.929 . S
H170 C174 0.929 . S
H171 C180 0.929 . S
C172 H166 0.930 . S
C172 C173 1.367 . S
C172 C180 1.378 . S
C173 C172 1.367 . S
C173 C181 1.433 . S
C174 H170 0.929 . S
C174 C176 1.378 . S
C174 C178 1.350 . S
C175 C178 1.463 . S
C175 C180 1.350 . S
C175 N183 1.427 . S
C176 H167 0.930 . S
C176 C174 1.378 . S
C176 C177 1.367 . S
C177 C176 1.367 . S
C177 C179 1.433 . S
C178 C174 1.350 . S
C178 C175 1.463 . S
C178 N182 1.427 . S
C179 H169 0.929 . S
C179 C177 1.433 . S
C179 N182 1.384 . S
C180 H171 0.929 . S
C180 C172 1.378 . S
C180 C175 1.350 . S
C181 H168 0.929 . S
C181 C173 1.433 . S
C181 N183 1.384 . S
N182 C178 1.427 . S
N182 C179 1.384 . S
N183 C175 1.427 . S
N183 C181 1.384 . S
H184 C190 0.930 . S
H185 C194 0.930 . S
H186 C199 0.929 . S
H187 C197 0.929 . S
H188 C192 0.929 . S
H189 C198 0.929 . S
C190 H184 0.930 . S
C190 C191 1.367 . S
C190 C198 1.378 . S
C191 C190 1.367 . S
C191 C199 1.433 . S
C192 H188 0.929 . S
C192 C194 1.378 . S
C192 C196 1.350 . S
C193 C196 1.463 . S
C193 C198 1.350 . S
C193 N201 1.427 . S
C194 H185 0.930 . S
C194 C192 1.378 . S
C194 C195 1.367 . S
C195 C194 1.367 . S
C195 C197 1.433 . S
C196 C192 1.350 . S
C196 C193 1.463 . S
C196 N200 1.427 . S
C197 H187 0.929 . S
C197 C195 1.433 . S
C197 N200 1.384 . S
C198 H189 0.929 . S
C198 C190 1.378 . S
C198 C193 1.350 . S
C199 H186 0.929 . S
C199 C191 1.433 . S
C199 N201 1.384 . S
N200 C196 1.427 . S
N200 C197 1.384 . S
N201 C193 1.427 . S
N201 C199 1.384 . S
H202 C208 0.930 . S
H203 C212 0.930 . S
H204 C217 0.929 . S
H205 C215 0.929 . S
H206 C210 0.929 . S
H207 C216 0.929 . S
C208 H202 0.930 . S
C208 C209 1.367 . S
C208 C216 1.378 . S
C209 C208 1.367 . S
C209 C217 1.433 . S
C210 H206 0.929 . S
C210 C212 1.378 . S
C210 C214 1.350 . S
C211 C214 1.463 . S
C211 C216 1.350 . S
C211 N219 1.427 . S
C212 H203 0.930 . S
C212 C210 1.378 . S
C212 C213 1.367 . S
C213 C212 1.367 . S
C213 C215 1.433 . S
C214 C210 1.350 . S
C214 C211 1.463 . S
C214 N218 1.427 . S
C215 H205 0.929 . S
C215 C213 1.433 . S
C215 N218 1.384 . S
C216 H207 0.929 . S
C216 C208 1.378 . S
C216 C211 1.350 . S
C217 H204 0.929 . S
C217 C209 1.433 . S
C217 N219 1.384 . S
N218 C214 1.427 . S
N218 C215 1.384 . S
N219 C211 1.427 . S
N219 C217 1.384 . S
H220 C226 0.930 . S
H221 C230 0.930 . S
H222 C235 0.929 . S
H223 C233 0.929 . S
H224 C228 0.929 . S
H225 C234 0.929 . S
C226 H220 0.930 . S
C226 C227 1.367 . S
C226 C234 1.378 . S
C227 C226 1.367 . S
C227 C235 1.433 . S
C228 H224 0.929 . S
C228 C230 1.378 . S
C228 C232 1.350 . S
C229 C232 1.463 . S
C229 C234 1.350 . S
C229 N237 1.427 . S
C230 H221 0.930 . S
C230 C228 1.378 . S
C230 C231 1.367 . S
C231 C230 1.367 . S
C231 C233 1.433 . S
C232 C228 1.350 . S
C232 C229 1.463 . S
C232 N236 1.427 . S
C233 H223 0.929 . S
C233 C231 1.433 . S
C233 N236 1.384 . S
C234 H225 0.929 . S
C234 C226 1.378 . S
C234 C229 1.350 . S
C235 H222 0.929 . S
C235 C227 1.433 . S
C235 N237 1.384 . S
N236 C232 1.427 . S
N236 C233 1.384 . S
N237 C229 1.427 . S
N237 C235 1.384 . S
H238 C244 0.930 . S
H239 C248 0.930 . S
H240 C253 0.929 . S
H241 C251 0.929 . S
H242 C246 0.929 . S
H243 C252 0.929 . S
C244 H238 0.930 . S
C244 C245 1.367 . S
C244 C252 1.378 . S
C245 C244 1.367 . S
C245 C253 1.433 . S
C246 H242 0.929 . S
C246 C248 1.378 . S
C246 C250 1.350 . S
C247 C250 1.463 . S
C247 C252 1.350 . S
C247 N255 1.427 . S
C248 H239 0.930 . S
C248 C246 1.378 . S
C248 C249 1.367 . S
C249 C248 1.367 . S
C249 C251 1.433 . S
C250 C246 1.350 . S
C250 C247 1.463 . S
C250 N254 1.427 . S
C251 H241 0.929 . S
C251 C249 1.433 . S
C251 N254 1.384 . S
C252 H243 0.929 . S
C252 C244 1.378 . S
C252 C247 1.350 . S
C253 H240 0.929 . S
C253 C245 1.433 . S
C253 N255 1.384 . S
N254 C250 1.427 . S
N254 C251 1.384 . S
N255 C247 1.427 . S
N255 C253 1.384 . S
H256 C262 0.932 . S
H257 C266 0.932 . S
H258 C271 0.929 . S
H259 C269 0.929 . S
H260 C264 0.929 . S
H261 C270 0.929 . S
C262 H256 0.932 . S
C262 C263 1.364 1_545 S
C262 C270 1.379 . S
C263 C262 1.364 1_565 S
C263 C271 1.433 . S
C264 H260 0.929 . S
C264 C266 1.379 . S
C264 C268 1.350 1_565 S
C265 C268 1.463 1_565 S
C265 C270 1.350 1_565 S
C265 N273 1.427 . S
C266 H257 0.932 . S
C266 C264 1.379 . S
C266 C267 1.364 1_565 S
C267 C266 1.364 1_545 S
C267 C269 1.433 . S
C268 C264 1.350 1_545 S
C268 C265 1.463 1_545 S
C268 N272 1.427 . S
C269 H259 0.929 . S
C269 C267 1.433 . S
C269 N272 1.384 . S
C270 H261 0.929 . S
C270 C262 1.379 . S
C270 C265 1.350 1_545 S
C271 H258 0.929 . S
C271 C263 1.433 . S
C271 N273 1.384 . S
N272 C268 1.427 . S
N272 C269 1.384 . S
N273 C265 1.427 . S
N273 C271 1.384 . S
H274 C280 0.930 . S
H275 C284 0.930 . S
H276 C289 0.929 . S
H277 C287 0.929 . S
H278 C282 0.929 . S
H279 C288 0.929 . S
C280 H274 0.930 . S
C280 C281 1.367 1_545 S
C280 C288 1.378 . S
C281 C280 1.367 1_565 S
C281 C289 1.433 . S
C282 H278 0.929 . S
C282 C284 1.378 . S
C282 C286 1.350 1_565 S
C283 C286 1.463 1_565 S
C283 C288 1.350 1_565 S
C283 N291 1.427 . S
C284 H275 0.930 . S
C284 C282 1.378 . S
C284 C285 1.367 1_565 S
C285 C284 1.367 1_545 S
C285 C287 1.433 . S
C286 C282 1.350 1_545 S
C286 C283 1.463 1_545 S
C286 N290 1.427 . S
C287 H277 0.929 . S
C287 C285 1.433 . S
C287 N290 1.384 . S
C288 H279 0.929 . S
C288 C280 1.378 . S
C288 C283 1.350 1_545 S
C289 H276 0.929 . S
C289 C281 1.433 . S
C289 N291 1.384 . S
N290 C286 1.427 . S
N290 C287 1.384 . S
N291 C283 1.427 . S
N291 C289 1.384 . S
H292 C298 0.930 1_545 S
H293 C302 0.930 1_565 S
H294 C307 0.929 . S
H295 C305 0.929 . S
H296 C300 0.929 . S
H297 C306 0.929 . S
C298 H292 0.930 1_565 S
C298 C299 1.367 . S
C298 C306 1.378 1_565 S
C299 C298 1.367 . S
C299 C307 1.433 . S
C300 H296 0.929 . S
C300 C302 1.378 1_565 S
C300 C304 1.350 1_565 S
C301 C304 1.463 1_565 S
C301 C306 1.350 1_565 S
C301 N309 1.427 . S
C302 H293 0.930 1_545 S
C302 C300 1.378 1_545 S
C302 C303 1.367 . S
C303 C302 1.367 . S
C303 C305 1.433 . S
C304 C300 1.350 1_545 S
C304 C301 1.463 1_545 S
C304 N308 1.427 . S
C305 H295 0.929 . S
C305 C303 1.433 . S
C305 N308 1.384 . S
C306 H297 0.929 . S
C306 C298 1.378 1_545 S
C306 C301 1.350 1_545 S
C307 H294 0.929 . S
C307 C299 1.433 . S
C307 N309 1.384 . S
N308 C304 1.427 . S
N308 C305 1.384 . S
N309 C301 1.427 . S
N309 C307 1.384 . S
H310 C316 0.930 . S
H311 C320 0.930 . S
H312 C325 0.929 . S
H313 C323 0.929 . S
H314 C318 0.929 . S
H315 C324 0.929 . S
C316 H310 0.930 . S
C316 C317 1.367 . S
C316 C324 1.378 1_565 S
C317 C316 1.367 . S
C317 C325 1.433 . S
C318 H314 0.929 . S
C318 C320 1.378 1_565 S
C318 C322 1.350 1_565 S
C319 C322 1.463 1_565 S
C319 C324 1.350 1_565 S
C319 N327 1.427 . S
C320 H311 0.930 . S
C320 C318 1.378 1_545 S
C320 C321 1.367 . S
C321 C320 1.367 . S
C321 C323 1.433 . S
C322 C318 1.350 1_545 S
C322 C319 1.463 1_545 S
C322 N326 1.427 . S
C323 H313 0.929 . S
C323 C321 1.433 . S
C323 N326 1.384 . S
C324 H315 0.929 . S
C324 C316 1.378 1_545 S
C324 C319 1.350 1_545 S
C325 H312 0.929 . S
C325 C317 1.433 . S
C325 N327 1.384 . S
N326 C322 1.427 . S
N326 C323 1.384 . S
N327 C319 1.427 . S
N327 C325 1.384 . S
H328 C334 0.930 . S
H329 C338 0.930 . S
H330 C343 0.929 . S
H331 C341 0.929 . S
H332 C336 0.929 . S
H333 C342 0.929 . S
C334 H328 0.930 . S
C334 C335 1.367 . S
C334 C342 1.378 . S
C335 C334 1.367 . S
C335 C343 1.433 1_554 S
C336 H332 0.929 . S
C336 C338 1.378 . S
C336 C340 1.350 1_556 S
C337 C340 1.463 1_565 S
C337 C342 1.350 . S
C337 N345 1.427 1_554 S
C338 H329 0.930 . S
C338 C336 1.378 . S
C338 C339 1.367 1_556 S
C339 C338 1.367 1_554 S
C339 C341 1.433 . S
C340 C336 1.350 1_554 S
C340 C337 1.463 1_545 S
C340 N344 1.427 . S
C341 H331 0.929 . S
C341 C339 1.433 . S
C341 N344 1.384 . S
C342 H333 0.929 . S
C342 C334 1.378 . S
C342 C337 1.350 . S
C343 H330 0.929 . S
C343 C335 1.433 1_556 S
C343 N345 1.384 . S
N344 C340 1.427 . S
N344 C341 1.384 . S
N345 C337 1.427 1_556 S
N345 C343 1.384 . S
H346 C352 0.930 . S
H347 C356 0.930 . S
H348 C361 0.929 . S
H349 C359 0.929 . S
H350 C354 0.929 . S
H351 C360 0.929 . S
C352 H346 0.930 . S
C352 C353 1.367 . S
C352 C360 1.378 . S
C353 C352 1.367 . S
C353 C361 1.433 . S
C354 H350 0.929 . S
C354 C356 1.378 . S
C354 C358 1.350 . S
C355 C358 1.463 1_565 S
C355 C360 1.350 . S
C355 N363 1.427 1_565 S
C356 H347 0.930 . S
C356 C354 1.378 . S
C356 C357 1.367 . S
C357 C356 1.367 . S
C357 C359 1.433 . S
C358 C354 1.350 . S
C358 C355 1.463 1_545 S
C358 N362 1.427 1_545 S
C359 H349 0.929 . S
C359 C357 1.433 . S
C359 N362 1.384 1_545 S
C360 H351 0.929 . S
C360 C352 1.378 . S
C360 C355 1.350 . S
C361 H348 0.929 . S
C361 C353 1.433 . S
C361 N363 1.384 1_565 S
N362 C358 1.427 1_565 S
N362 C359 1.384 1_565 S
N363 C355 1.427 1_545 S
N363 C361 1.384 1_545 S
H364 C370 0.930 . S
H365 C374 0.930 . S
H366 C379 0.929 . S
H367 C377 0.929 . S
H368 C372 0.929 . S
H369 C378 0.929 . S
C370 H364 0.930 . S
C370 C371 1.367 1_556 S
C370 C378 1.378 . S
C371 C370 1.367 1_554 S
C371 C379 1.433 . S
C372 H368 0.929 . S
C372 C374 1.378 . S
C372 C376 1.350 . S
C373 C376 1.463 1_455 S
C373 C378 1.350 1_554 S
C373 N381 1.427 . S
C374 H365 0.930 . S
C374 C372 1.378 . S
C374 C375 1.367 . S
C375 C374 1.367 . S
C375 C377 1.433 1_554 S
C376 C372 1.350 . S
C376 C373 1.463 1_655 S
C376 N380 1.427 1_554 S
C377 H367 0.929 . S
C377 C375 1.433 1_556 S
C377 N380 1.384 . S
C378 H369 0.929 . S
C378 C370 1.378 . S
C378 C373 1.350 1_556 S
C379 H366 0.929 . S
C379 C371 1.433 . S
C379 N381 1.384 . S
N380 C376 1.427 1_556 S
N380 C377 1.384 . S
N381 C373 1.427 . S
N381 C379 1.384 . S
H382 C388 0.930 . S
H383 C392 0.930 . S
H384 C397 0.929 . S
H385 C395 0.929 . S
H386 C390 0.929 1_455 S
H387 C396 0.929 1_655 S
C388 H382 0.930 . S
C388 C389 1.367 . S
C388 C396 1.378 . S
C389 C388 1.367 . S
C389 C397 1.433 . S
C390 H386 0.929 1_655 S
C390 C392 1.378 . S
C390 C394 1.350 . S
C391 C394 1.463 1_455 S
C391 C396 1.350 . S
C391 N399 1.427 . S
C392 H383 0.930 . S
C392 C390 1.378 . S
C392 C393 1.367 . S
C393 C392 1.367 . S
C393 C395 1.433 . S
C394 C390 1.350 . S
C394 C391 1.463 1_655 S
C394 N398 1.427 . S
C395 H385 0.929 . S
C395 C393 1.433 . S
C395 N398 1.384 . S
C396 H387 0.929 1_455 S
C396 C388 1.378 . S
C396 C391 1.350 . S
C397 H384 0.929 . S
C397 C389 1.433 . S
C397 N399 1.384 . S
N398 C394 1.427 . S
N398 C395 1.384 . S
N399 C391 1.427 . S
N399 C397 1.384 . S
C119 C79 1.493 . S
C123 C9 1.486 . S
C137 C65 1.485 . S
C141 C23 1.487 . S
C155 C107 1.493 . S
C159 C37 1.487 . S
C173 C93 1.494 . S
C177 C51 1.488 . S
C191 C7 1.519 . S
C195 C35 1.521 . S
C209 C21 1.514 . S
C213 C49 1.512 . S
C227 C22 1.542 . S
C231 C50 1.540 . S
C245 C8 1.539 . S
C249 C36 1.540 . S
C263 C63 1.514 . S
C267 C91 1.512 . S
C281 C105 1.513 . S
C285 C77 1.512 . S
C299 C106 1.544 . S
C303 C78 1.544 . S
C317 C64 1.543 . S
C321 C92 1.542 . S
C335 C20 1.521 . S
C339 C6 1.519 . S
C353 C34 1.520 . S
C357 C48 1.522 . S
C371 C62 1.517 . S
C375 C76 1.519 . S
C389 C90 1.522 . S
C393 C104 1.520 . S
