# Generated by pormake.
# Topology tfs, (6)-cn, num edge types: 1
# Building blocks:
#     Node 0, Type 0, BuildingBlock: VOLQOD_clean_sbu_1, # of connection points: 6
#     Node 1, Type 0, BuildingBlock: VOLQOD_clean_sbu_1, # of connection points: 6
#     Node 2, Type 0, BuildingBlock: VOLQOD_clean_sbu_1, # of connection points: 6
#     Node 3, Type 0, BuildingBlock: VOLQOD_clean_sbu_1, # of connection points: 6
#     Node 4, Type 0, BuildingBlock: VOLQOD_clean_sbu_1, # of connection points: 6
#     Node 5, Type 0, BuildingBlock: VOLQOD_clean_sbu_1, # of connection points: 6
#     Edge 6, Type (0, 0), BuildingBlock: CIFDUS_clean_linker_0, # of connection points: 2
#     Edge 7, Type (0, 0), BuildingBlock: CIFDUS_clean_linker_0, # of connection points: 2
#     Edge 8, Type (0, 0), BuildingBlock: CIFDUS_clean_linker_0, # of connection points: 2
#     Edge 9, Type (0, 0), BuildingBlock: CIFDUS_clean_linker_0, # of connection points: 2
#     Edge 10, Type (0, 0), BuildingBlock: CIFDUS_clean_linker_0, # of connection points: 2
#     Edge 11, Type (0, 0), BuildingBlock: CIFDUS_clean_linker_0, # of connection points: 2
#     Edge 12, Type (0, 0), BuildingBlock: CIFDUS_clean_linker_0, # of connection points: 2
#     Edge 13, Type (0, 0), BuildingBlock: CIFDUS_clean_linker_0, # of connection points: 2
#     Edge 14, Type (0, 0), BuildingBlock: CIFDUS_clean_linker_0, # of connection points: 2
#     Edge 15, Type (0, 0), BuildingBlock: CIFDUS_clean_linker_0, # of connection points: 2
#     Edge 16, Type (0, 0), BuildingBlock: CIFDUS_clean_linker_0, # of connection points: 2
#     Edge 17, Type (0, 0), BuildingBlock: CIFDUS_clean_linker_0, # of connection points: 2
#     Edge 18, Type (0, 0), BuildingBlock: CIFDUS_clean_linker_0, # of connection points: 2
#     Edge 19, Type (0, 0), BuildingBlock: CIFDUS_clean_linker_0, # of connection points: 2
#     Edge 20, Type (0, 0), BuildingBlock: CIFDUS_clean_linker_0, # of connection points: 2
#     Edge 21, Type (0, 0), BuildingBlock: CIFDUS_clean_linker_0, # of connection points: 2
#     Edge 22, Type (0, 0), BuildingBlock: CIFDUS_clean_linker_0, # of connection points: 2
#     Edge 23, Type (0, 0), BuildingBlock: CIFDUS_clean_linker_0, # of connection points: 2
# Relax obj value: 0.115
# Max RMSD: 0.091
# Mean RMSD: 0.091
data_MOF--net-tfs--node1-VOLQOD_clean_sbu_1--edge1-CIFDUS_clean_linker_0
_symmetry_space_group_name_H-M    P1
_symmetry_Int_Tables_number       1
_symmetry_cell_setting            triclinic
loop_
_symmetry_equiv_pos_as_xyz
'x, y, z'
_cell_length_a     40.980832
_cell_length_b     41.067437
_cell_length_c     15.289712
_cell_angle_alpha  89.907733
_cell_angle_beta   89.946285
_cell_angle_gamma 120.31272
loop_
_atom_site_label
_atom_site_type_symbol
_atom_site_fract_x
_atom_site_fract_y
_atom_site_fract_z
_atom_type_partial_charge
O0 O 0.27449 0.48962 0.9377 0.0
Zn1 Zn 0.2185 0.45687 0.92346 0.0
O2 O 0.19817 0.41562 0.00719 0.0
Zn3 Zn 0.17735 0.36743 0.94398 0.0
Zn4 Zn 0.23828 0.42186 0.0863 0.0
Zn5 Zn 0.159 0.4176 0.07512 0.0
O6 O 0.12094 0.33452 0.96684 0.0
O7 O 0.10936 0.37111 0.05319 0.0
O8 O 0.20835 0.4382 0.80028 0.0
O9 O 0.18419 0.3763 0.81362 0.0
O10 O 0.20494 0.33984 0.97647 0.0
O11 O 0.24766 0.37917 0.07132 0.0
O12 O 0.22423 0.4217 0.21261 0.0
O13 O 0.19698 0.49059 0.94124 0.0
O14 O 0.16931 0.42009 0.20358 0.0
O15 O 0.15495 0.46342 0.0476 0.0
C16 C 0.298 0.49256 -0.00407 0.0
C17 C 0.0981 0.34052 0.0111 0.0
C18 C 0.23282 0.34876 0.02737 0.0
C19 C 0.19582 0.40574 0.76661 0.0
C20 C 0.19597 0.42125 0.24845 0.0
C21 C 0.17232 0.49007 -0.00729 0.0
O22 O 0.28779 0.4696 0.06008 0.0
O23 O 0.77131 0.27222 0.93834 0.0
Zn24 Zn 0.75061 0.21702 0.9289 0.0
O25 O 0.77285 0.2002 0.01629 0.0
Zn26 Zn 0.80094 0.17918 0.95595 0.0
Zn27 Zn 0.80643 0.2425 0.09145 0.0
Zn28 Zn 0.73171 0.16257 0.0881 0.0
O29 O 0.7763 0.12298 0.98315 0.0
O30 O 0.72934 0.11346 0.07268 0.0
O31 O 0.7611 0.20709 0.80833 0.0
O32 O 0.8004 0.18514 0.82334 0.0
O33 O 0.85615 0.20671 -0.00618 0.0
O34 O 0.8586 0.25132 0.08055 0.0
O35 O 0.79308 0.23086 0.21972 0.0
O36 O 0.69476 0.19282 0.94172 0.0
O37 O 0.74021 0.17511 0.21531 0.0
O38 O 0.68064 0.15598 0.05814 0.0
C39 C 0.79261 0.29802 -0.00854 0.0
C40 C 0.748 0.10132 0.03122 0.0
C41 C 0.87458 0.23541 0.04293 0.0
C42 C 0.78195 0.19564 0.77532 0.0
C43 C 0.76577 0.20273 0.25796 0.0
C44 C 0.67071 0.16979 -0.00384 0.0
O45 O 0.80753 0.29099 0.0566 0.0
O46 O 0.50223 0.79097 0.86536 0.0
Zn47 Zn 0.53149 0.76458 0.84779 0.0
O48 O 0.57228 0.78193 0.93189 0.0
Zn49 Zn 0.62087 0.80597 0.86856 0.0
Zn50 Zn 0.57037 0.81813 0.01132 0.0
Zn51 Zn 0.56515 0.73849 -0.00022 0.0
O52 O 0.64985 0.77937 0.89688 0.0
O53 O 0.6101 0.73223 0.98348 0.0
O54 O 0.55044 0.77295 0.72481 0.0
O55 O 0.613 0.80398 0.73765 0.0
O56 O 0.65303 0.86114 0.90019 0.0
O57 O 0.61674 0.8686 -0.00337 0.0
O58 O 0.56935 0.80348 0.13732 0.0
O59 O 0.49421 0.70953 0.86167 0.0
O60 O 0.56176 0.74608 0.12826 0.0
O61 O 0.51717 0.69035 0.96827 0.0
C62 C 0.50123 0.8121 0.92484 0.0
C63 C 0.64159 0.75037 0.94331 0.0
C64 C 0.64713 0.8818 0.9523 0.0
C65 C 0.58327 0.78936 0.69084 0.0
C66 C 0.56494 0.77354 0.17317 0.0
C67 C 0.49174 0.68363 0.91177 0.0
O68 O 0.52463 0.82359 -0.01189 0.0
O69 O 0.71289 0.50179 0.94484 0.0
Zn70 Zn 0.76897 0.53471 0.93177 0.0
O71 O 0.78854 0.57599 0.01488 0.0
Zn72 Zn 0.80882 0.62404 0.95088 0.0
Zn73 Zn 0.748 0.56914 0.09367 0.0
Zn74 Zn 0.82807 0.57483 0.08298 0.0
O75 O 0.86535 0.65724 0.97137 0.0
O76 O 0.87764 0.6213 0.0585 0.0
O77 O 0.77941 0.55331 0.80826 0.0
O78 O 0.80148 0.61487 0.8209 0.0
O79 O 0.78099 0.65136 0.98377 0.0
O80 O 0.73823 0.61165 0.07857 0.0
O81 O 0.76183 0.56912 0.22016 0.0
O82 O 0.79065 0.50121 0.95178 0.0
O83 O 0.81784 0.57302 0.21127 0.0
O84 O 0.83214 0.52878 0.05856 0.0
C85 C 0.68895 0.49858 0.00231 0.0
C86 C 0.88856 0.6516 0.0151 0.0
C87 C 0.75296 0.64214 0.03461 0.0
C88 C 0.79082 0.58558 0.77422 0.0
C89 C 0.79063 0.57076 0.25605 0.0
C90 C 0.81504 0.50192 0.00438 0.0
O91 O 0.69868 0.5213 0.06664 0.0
O92 O 0.21853 0.72108 0.93199 0.0
Zn93 Zn 0.2376 0.77624 0.92675 0.0
O94 O 0.2138 0.79153 0.01381 0.0
Zn95 Zn 0.18706 0.81412 0.95398 0.0
Zn96 Zn 0.17948 0.74726 0.08256 0.0
Zn97 Zn 0.25248 0.82763 0.09284 0.0
O98 O 0.2114 0.86974 -0.01478 0.0
O99 O 0.25743 0.87791 0.07567 0.0
O100 O 0.22729 0.78639 0.80598 0.0
O101 O 0.19113 0.81203 0.82114 0.0
O102 O 0.13109 0.78578 -0.01167 0.0
O103 O 0.12794 0.74006 0.07285 0.0
O104 O 0.19189 0.75421 0.21107 0.0
O105 O 0.29327 0.80185 0.94471 0.0
O106 O 0.23839 0.81381 0.21935 0.0
O107 O 0.30382 0.83275 0.07002 0.0
C108 C 0.19515 0.694 0.97996 0.0
C109 C 0.23961 0.89084 0.03369 0.0
C110 C 0.11232 0.75659 0.03636 0.0
C111 C 0.20841 0.80016 0.77312 0.0
C112 C 0.21456 0.78294 0.25574 0.0
C113 C 0.3156 0.82197 0.00525 0.0
O114 O 0.17776 0.6995 0.042 0.0
O115 O 0.48514 0.20318 0.85639 0.0
Zn116 Zn 0.45546 0.22917 0.84079 0.0
O117 O 0.41469 0.21078 0.92553 0.0
Zn118 Zn 0.36603 0.18601 0.86293 0.0
Zn119 Zn 0.41746 0.17485 0.0046 0.0
Zn120 Zn 0.42117 0.2538 -0.00644 0.0
O121 O 0.33663 0.21222 0.89061 0.0
O122 O 0.37601 0.25956 0.97668 0.0
O123 O 0.43638 0.22102 0.71818 0.0
O124 O 0.37386 0.18781 0.73187 0.0
O125 O 0.33433 0.13084 0.89632 0.0
O126 O 0.37139 0.12414 -0.00829 0.0
O127 O 0.41888 0.18937 0.13086 0.0
O128 O 0.49257 0.28422 0.85575 0.0
O129 O 0.42416 0.24583 0.12186 0.0
O130 O 0.46917 0.3023 0.96353 0.0
C131 C 0.48646 0.18182 0.91492 0.0
C132 C 0.3446 0.24118 0.93662 0.0
C133 C 0.34075 0.11052 0.94853 0.0
C134 C 0.40355 0.20351 0.68464 0.0
C135 C 0.42214 0.21879 0.16672 0.0
C136 C 0.49483 0.30962 0.90705 0.0
O137 O 0.46324 0.16985 0.97876 0.0
H138 H 0.3411 0.28359 0.06633 0.0
H139 H 0.28555 0.2267 0.82782 0.0
H140 H 0.24288 0.25204 0.83938 0.0
H141 H 0.22515 0.2947 0.91161 0.0
H142 H 0.28197 0.35129 0.14983 0.0
H143 H 0.32004 0.32122 0.14443 0.0
C144 C 0.31962 0.27663 0.01684 0.0
C145 C 0.31687 0.25387 0.94558 0.0
C146 C 0.29538 0.29118 0.02395 0.0
C147 C 0.28836 0.24441 0.88307 0.0
C148 C 0.26402 0.25891 0.88961 0.0
C149 C 0.24539 0.29991 0.9631 0.0
C150 C 0.251 0.32556 0.03042 0.0
C151 C 0.26773 0.2829 0.95903 0.0
C152 C 0.27736 0.33201 0.09669 0.0
C153 C 0.29924 0.3149 0.09365 0.0
H154 H 0.04688 0.33496 0.12953 0.0
H155 H 0.05747 0.28331 0.89398 0.0
H156 H 0.98852 0.24301 0.88687 0.0
H157 H 0.92501 0.22721 0.94061 0.0
H158 H 0.91659 0.28118 0.17499 0.0
H159 H 0.98491 0.31563 0.18951 0.0
C160 C 0.0342 0.31471 0.07683 0.0
C161 C 0.05719 0.31253 0.0117 0.0
C162 C -0.00514 0.29218 0.07264 0.0
C163 C 0.04033 0.28563 0.94484 0.0
C164 C 0.00092 0.26272 0.94053 0.0
C165 C 0.93817 0.24609 -0.00454 0.0
C166 C 0.91571 0.25201 0.05582 0.0
C167 C 0.97783 0.26642 0.00301 0.0
C168 C 0.93317 0.27652 0.12674 0.0
C169 C 0.97229 0.29625 0.1353 0.0
H170 H 0.75681 0.05692 0.91133 0.0
H171 H 0.70822 0.05426 0.16386 0.0
H172 H 0.67582 0.98574 0.16508 0.0
H173 H 0.65537 0.92691 0.088 0.0
H174 H 0.70159 0.92768 0.83396 0.0
H175 H 0.74125 -0.00345 0.84022 0.0
C176 C 0.73975 0.04129 0.96726 0.0
C177 C 0.73445 0.06057 0.03676 0.0
C178 C 0.72044 0.00161 0.96689 0.0
C179 C 0.71227 0.04002 0.10892 0.0
C180 C 0.69369 0.00083 0.10975 0.0
C181 C 0.67437 0.94208 0.03423 0.0
C182 C 0.67508 0.9224 0.96002 0.0
C183 C 0.69655 0.98139 0.03789 0.0
C184 C 0.70041 0.94231 0.89169 0.0
C185 C 0.72295 0.98167 0.89509 0.0
H186 H 0.76123 0.69695 0.9199 0.0
H187 H 0.70247 0.63829 0.15542 0.0
H188 H 0.66423 0.66818 0.1495 0.0
H189 H 0.6438 0.70651 0.07183 0.0
H190 H 0.7014 0.7655 0.83608 0.0
H191 H 0.74393 0.74004 0.84802 0.0
C192 C 0.74051 0.69123 0.9707 0.0
C193 C 0.73446 0.66508 0.03742 0.0
C194 C 0.7181 0.70815 0.96635 0.0
C195 C 0.70747 0.65797 0.10276 0.0
C196 C 0.68549 0.67498 0.09942 0.0
C197 C 0.66569 0.7139 0.02301 0.0
C198 C 0.66907 0.73735 0.95244 0.0
C199 C 0.68988 0.69928 0.03034 0.0
C200 C 0.69809 0.74729 0.8908 0.0
C201 C 0.72236 0.73271 0.89755 0.0
H202 H 0.06125 0.76397 0.93421 0.0
H203 H 0.07122 0.71254 0.17174 0.0
H204 H 0.00306 0.67844 0.1897 0.0
H205 H 0.94067 0.6585 0.13214 0.0
H206 H 0.92833 0.70754 0.8938 0.0
H207 H -0.00277 0.74767 0.88276 0.0
C208 C 0.04844 0.74573 -0.00955 0.0
C209 C 0.07129 0.74038 0.05072 0.0
C210 C 0.00881 0.72556 6e-05 0.0
C211 C 0.05431 0.71672 0.12348 0.0
C212 C 0.01528 0.69718 0.13404 0.0
C213 C 0.95296 0.67816 0.07799 0.0
C214 C 0.92948 0.67963 0.01326 0.0
C215 C 0.99228 0.7006 0.07161 0.0
C216 C 0.94584 0.70578 0.94444 0.0
C217 C 0.98523 0.72858 0.93788 0.0
H218 H 0.22981 0.93526 0.91547 0.0
H219 H 0.28256 0.93848 0.16226 0.0
H220 H 0.31565 0.00703 0.16103 0.0
H221 H 0.33494 0.06565 0.08337 0.0
H222 H 0.28444 0.06421 0.83492 0.0
H223 H 0.24473 0.99539 0.84386 0.0
C224 C 0.24798 0.95101 0.96966 0.0
C225 C 0.25413 0.93182 0.03821 0.0
C226 C 0.26762 0.99069 0.96788 0.0
C227 C 0.27776 0.95258 0.10806 0.0
C228 C 0.29674 0.9918 0.10748 0.0
C229 C 0.31504 0.05036 0.03136 0.0
C230 C 0.31308 0.06986 0.95793 0.0
C231 C 0.2928 0.01107 0.0365 0.0
C232 C 0.28661 0.04975 0.89199 0.0
C233 C 0.26402 0.01042 0.89692 0.0
H234 H 0.15335 0.62983 0.07667 0.0
H235 H 0.22446 0.67254 0.8472 0.0
H236 H 0.22043 0.61197 0.82657 0.0
H237 H 0.20118 0.54885 0.87927 0.0
H238 H 0.13128 0.50557 0.1101 0.0
H239 H 0.12989 0.56416 0.12339 0.0
C240 C 0.16767 0.62578 0.02172 0.0
C241 C 0.18956 0.65594 0.96435 0.0
C242 C 0.16554 0.59079 0.01035 0.0
C243 C 0.20773 0.65005 0.8931 0.0
C244 C 0.20545 0.61536 0.88103 0.0
C245 C 0.18528 0.55197 0.93209 0.0
C246 C 0.16674 0.52298 -0.00591 0.0
C247 C 0.1851 0.58583 0.9402 0.0
C248 C 0.14595 0.52746 0.06151 0.0
C249 C 0.14528 0.56105 0.06946 0.0
H250 H 0.50981 0.15175 0.04333 0.0
H251 H 0.53371 0.19389 0.778 0.0
H252 H 0.59088 0.18985 0.77731 0.0
H253 H 0.63742 0.18107 0.85628 0.0
H254 H 0.61552 0.14045 0.12254 0.0
H255 H 0.55393 0.13657 0.11797 0.0
C256 C 0.52719 0.15945 -0.01509 0.0
C257 C 0.51773 0.17366 0.91136 0.0
C258 C 0.56054 0.1576 -0.01478 0.0
C259 C 0.54052 0.18336 0.83603 0.0
C260 C 0.57329 0.18108 0.83546 0.0
C261 C 0.61904 0.17097 0.91315 0.0
C262 C 0.63127 0.16164 -0.00996 0.0
C263 C 0.58412 0.16936 0.91047 0.0
C264 C 0.60683 0.14798 0.06258 0.0
C265 C 0.5717 0.14594 0.06016 0.0
H266 H 0.46573 0.62772 0.03474 0.0
H267 H 0.43915 0.65554 0.78216 0.0
H268 H 0.37787 0.59768 0.78412 0.0
H269 H 0.33007 0.54198 0.86163 0.0
H270 H 0.35507 0.51418 0.11593 0.0
H271 H 0.41882 0.56917 0.10878 0.0
C272 C 0.44677 0.62083 0.97954 0.0
C273 C 0.45696 0.64611 0.9087 0.0
C274 C 0.41114 0.58773 0.98169 0.0
C275 C 0.43195 0.63678 0.83785 0.0
C276 C 0.39684 0.60371 0.83892 0.0
C277 C 0.34944 0.54773 0.91549 0.0
C278 C 0.33758 0.52415 -0.01038 0.0
C279 C 0.38582 0.57946 0.91131 0.0
C280 C 0.36333 0.53193 0.05822 0.0
C281 C 0.3998 0.56341 0.05423 0.0
H282 H 0.79014 0.44488 0.88766 0.0
H283 H 0.8519 0.48462 0.12968 0.0
H284 H 0.85265 0.4257 0.14497 0.0
H285 H 0.83075 0.36056 0.09553 0.0
H286 H 0.76811 0.32191 0.85385 0.0
H287 H 0.7728 0.38268 0.83305 0.0
C288 C 0.80413 0.44091 0.94344 0.0
C289 C 0.82055 0.46898 0.00782 0.0
C290 C 0.80398 0.40691 0.95248 0.0
C291 C 0.83894 0.46345 0.0791 0.0
C292 C 0.8392 0.42966 0.08819 0.0
C293 C 0.81842 0.36556 0.03801 0.0
C294 C 0.79868 0.33639 0.97714 0.0
C295 C 0.821 0.40079 0.02627 0.0
C296 C 0.78311 0.34354 0.90254 0.0
C297 C 0.78579 0.37839 0.89029 0.0
H298 H 0.35244 0.81671 0.86448 0.0
H299 H 0.36754 0.84532 0.13862 0.0
H300 H 0.4291 0.84902 0.13588 0.0
H301 H 0.47504 0.8369 0.05881 0.0
H302 H 0.45743 0.80613 0.78565 0.0
H303 H 0.40055 0.81074 0.78494 0.0
C304 C 0.3693 0.82413 0.92362 0.0
C305 C 0.35514 0.83014 0.00194 0.0
C306 C 0.40414 0.82554 0.92187 0.0
C307 C 0.3777 0.84039 0.07749 0.0
C308 C 0.41282 0.84232 0.07604 0.0
C309 C 0.4591 0.83186 -0.00118 0.0
C310 C 0.47023 0.82068 0.92272 0.0
C311 C 0.42583 0.83389 -0.00089 0.0
C312 C 0.44926 0.81428 0.84547 0.0
C313 C 0.41669 0.8169 0.84491 0.0
H314 H 0.65754 0.45087 0.86536 0.0
H315 H 0.63114 0.47573 0.12127 0.0
H316 H 0.56719 0.42127 0.11084 0.0
H317 H 0.52038 0.36397 0.03321 0.0
H318 H 0.54828 0.33911 0.77886 0.0
H319 H 0.6099 0.3965 0.7844 0.0
C320 C 0.63783 0.44457 0.9189 0.0
C321 C 0.64935 0.46718 -0.00559 0.0
C322 C 0.6013 0.41318 0.91275 0.0
C323 C 0.62316 0.45873 0.06253 0.0
C324 C 0.58656 0.42756 0.05665 0.0
C325 C 0.5397 0.37142 0.97839 0.0
C326 C 0.52976 0.34709 0.90598 0.0
C327 C 0.57552 0.40423 0.9826 0.0
C328 C 0.55525 0.35714 0.83569 0.0
C329 C 0.59057 0.38993 0.83882 0.0
H330 H 0.1813 0.44582 0.64922 0.0
H331 H 0.21015 0.35865 0.67022 0.0
H332 H 0.21429 0.3567 0.51062 0.0
H333 H 0.21079 0.3809 0.36515 0.0
H334 H 0.17595 0.46365 0.34473 0.0
H335 H 0.17315 0.46648 0.50428 0.0
C336 C 0.18839 0.42637 0.61861 0.0
C337 C 0.19572 0.40264 0.67077 0.0
C338 C 0.1898 0.42481 0.52724 0.0
C339 C 0.20431 0.37709 0.6309 0.0
C340 C 0.20685 0.37611 0.53989 0.0
C341 C 0.2027 0.39956 0.39606 0.0
C342 C 0.19403 0.42239 0.34418 0.0
C343 C 0.19991 0.40004 0.48747 0.0
C344 C 0.18282 0.44595 0.38403 0.0
C345 C 0.18124 0.44758 0.47495 0.0
H346 H 0.72791 0.18443 0.65952 0.0
H347 H 0.84269 0.20749 0.67587 0.0
H348 H 0.84873 0.21401 0.51617 0.0
H349 H 0.8213 0.21444 0.37192 0.0
H350 H 0.70486 0.1862 0.35743 0.0
H351 H 0.69953 0.18092 0.51683 0.0
C352 C 0.75422 0.19073 0.62806 0.0
C353 C 0.78491 0.19573 0.6791 0.0
C354 C 0.75723 0.19394 0.53685 0.0
C355 C 0.81864 0.20335 0.63767 0.0
C356 C 0.82216 0.20735 0.54659 0.0
C357 C 0.79496 0.20746 0.40418 0.0
C358 C 0.76366 0.20133 0.35395 0.0
C359 C 0.79174 0.20309 0.49559 0.0
C360 C 0.72931 0.19134 0.39543 0.0
C361 C 0.72625 0.18821 0.48626 0.0
H362 H 0.53778 0.73645 0.57508 0.0
H363 H 0.63597 0.84771 0.59255 0.0
H364 H 0.6382 0.85333 0.43275 0.0
H365 H 0.61107 0.82682 0.28825 0.0
H366 H 0.51662 0.71326 0.27132 0.0
H367 H 0.51381 0.70817 0.43104 0.0
C368 C 0.55971 0.76185 0.54366 0.0
C369 C 0.58648 0.79176 0.5949 0.0
C370 C 0.56128 0.76446 0.45222 0.0
C371 C 0.61515 0.82433 0.55397 0.0
C372 C 0.6163 0.8276 0.46286 0.0
C373 C 0.58988 0.80108 0.31993 0.0
C374 C 0.56375 0.77061 0.26899 0.0
C375 C 0.58931 0.79795 0.41141 0.0
C376 C 0.53687 0.73704 0.30986 0.0
C377 C 0.53527 0.73415 0.40088 0.0
H378 H 0.8065 0.54654 0.6565 0.0
H379 H 0.77462 0.63148 0.67812 0.0
H380 H 0.77008 0.63335 0.51864 0.0
H381 H 0.77425 0.6098 0.37302 0.0
H382 H 0.8121 0.52941 0.35194 0.0
H383 H 0.81513 0.5265 0.51141 0.0
C384 C 0.79865 0.56549 0.62605 0.0
C385 C 0.79061 0.58862 0.67838 0.0
C386 C 0.79701 0.56703 0.53472 0.0
C387 C 0.78103 0.61352 0.63869 0.0
C388 C 0.77826 0.61445 0.54774 0.0
C389 C 0.78303 0.59163 0.40378 0.0
C390 C 0.79251 0.5695 0.35175 0.0
C391 C 0.78596 0.59114 0.49516 0.0
C392 C 0.8046 0.54657 0.39138 0.0
C393 C 0.80631 0.54491 0.48226 0.0
H394 H 0.21643 0.83463 0.36861 0.0
H395 H 0.20697 0.7253 0.35698 0.0
H396 H 0.2038 0.72092 0.51675 0.0
H397 H 0.20486 0.74868 0.6592 0.0
H398 H 0.20865 0.85539 0.67225 0.0
H399 H 0.21235 0.86026 0.51207 0.0
C400 C 0.2138 0.80997 0.40144 0.0
C401 C 0.21248 0.78053 0.35183 0.0
C402 C 0.2107 0.80714 0.49305 0.0
C403 C 0.20821 0.7483 0.3943 0.0
C404 C 0.20639 0.74581 0.4854 0.0
C405 C 0.20631 0.77292 0.62681 0.0
C406 C 0.20682 0.80181 0.67697 0.0
C407 C 0.20772 0.77509 0.53531 0.0
C408 C 0.20811 0.83279 0.63463 0.0
C409 C 0.21046 0.83565 0.5433 0.0
H410 H 0.44829 0.25668 0.56786 0.0
H411 H 0.35166 0.14443 0.58733 0.0
H412 H 0.34978 0.1385 0.42768 0.0
H413 H 0.37678 0.16509 0.28267 0.0
H414 H 0.46962 0.27949 0.26383 0.0
H415 H 0.47213 0.28486 0.42342 0.0
C416 C 0.42677 0.231 0.53694 0.0
C417 C 0.40035 0.20091 0.58872 0.0
C418 C 0.42541 0.22818 0.44557 0.0
C419 C 0.3722 0.16796 0.54836 0.0
C420 C 0.37126 0.16451 0.45732 0.0
C421 C 0.39757 0.19106 0.31394 0.0
C422 C 0.42333 0.2217 0.2625 0.0
C423 C 0.39794 0.19433 0.40535 0.0
C424 C 0.44968 0.25557 0.30279 0.0
C425 C 0.4511 0.25863 0.39373 0.0
loop_
_geom_bond_atom_site_label_1
_geom_bond_atom_site_label_2
_geom_bond_distance
_geom_bond_site_symmetry_2
_ccdc_geom_bond_type
O0 Zn1 1.953 . S
O0 C16 1.225 . S
Zn1 O0 1.953 . S
Zn1 O2 1.949 1_556 S
Zn1 O8 1.919 . S
Zn1 O13 1.924 . S
O2 Zn1 1.949 1_554 S
O2 Zn3 1.923 1_554 S
O2 Zn4 1.950 . S
O2 Zn5 1.945 . S
Zn3 O2 1.923 1_556 S
Zn3 O6 1.933 . S
Zn3 O9 1.941 . S
Zn3 O10 1.965 . S
Zn4 O2 1.950 . S
Zn4 O11 1.938 . S
Zn4 O12 1.906 . S
Zn4 O22 1.953 . S
Zn5 O2 1.945 . S
Zn5 O7 1.932 . S
Zn5 O14 1.977 . S
Zn5 O15 1.910 . S
O6 Zn3 1.933 . S
O6 C17 1.230 . S
O7 Zn5 1.932 . S
O7 C17 1.303 1_554 S
O8 Zn1 1.919 . S
O8 C19 1.253 . S
O9 Zn3 1.941 . S
O9 C19 1.283 . S
O10 Zn3 1.965 . S
O10 C18 1.303 1_556 S
O11 Zn4 1.938 . S
O11 C18 1.247 . S
O12 Zn4 1.906 . S
O12 C20 1.304 . S
O13 Zn1 1.924 . S
O13 C21 1.311 . S
O14 Zn5 1.977 . S
O14 C20 1.272 . S
O15 Zn5 1.910 . S
O15 C21 1.231 1_554 S
C16 O0 1.225 . S
C16 O22 1.298 1_556 S
C17 O6 1.230 . S
C17 O7 1.303 1_556 S
C18 O10 1.303 1_554 S
C18 O11 1.247 . S
C19 O8 1.253 . S
C19 O9 1.283 . S
C20 O12 1.304 . S
C20 O14 1.272 . S
C21 O13 1.311 . S
C21 O15 1.231 1_556 S
O22 Zn4 1.953 . S
O22 C16 1.298 1_554 S
O23 Zn24 1.953 . S
O23 C39 1.225 . S
Zn24 O23 1.953 . S
Zn24 O25 1.949 1_556 S
Zn24 O31 1.919 . S
Zn24 O36 1.924 . S
O25 Zn24 1.949 1_554 S
O25 Zn26 1.923 1_554 S
O25 Zn27 1.950 . S
O25 Zn28 1.945 . S
Zn26 O25 1.923 1_556 S
Zn26 O29 1.933 . S
Zn26 O32 1.941 . S
Zn26 O33 1.965 . S
Zn27 O25 1.950 . S
Zn27 O34 1.938 . S
Zn27 O35 1.906 . S
Zn27 O45 1.953 . S
Zn28 O25 1.945 . S
Zn28 O30 1.932 . S
Zn28 O37 1.977 . S
Zn28 O38 1.910 . S
O29 Zn26 1.933 . S
O29 C40 1.230 . S
O30 Zn28 1.932 . S
O30 C40 1.303 1_554 S
O31 Zn24 1.919 . S
O31 C42 1.253 . S
O32 Zn26 1.941 . S
O32 C42 1.283 . S
O33 Zn26 1.965 . S
O33 C41 1.303 1_556 S
O34 Zn27 1.938 . S
O34 C41 1.247 . S
O35 Zn27 1.906 . S
O35 C43 1.304 . S
O36 Zn24 1.924 . S
O36 C44 1.311 . S
O37 Zn28 1.977 . S
O37 C43 1.272 . S
O38 Zn28 1.910 . S
O38 C44 1.231 1_554 S
C39 O23 1.225 . S
C39 O45 1.298 1_556 S
C40 O29 1.230 . S
C40 O30 1.303 1_556 S
C41 O33 1.303 1_554 S
C41 O34 1.247 . S
C42 O31 1.253 . S
C42 O32 1.283 . S
C43 O35 1.304 . S
C43 O37 1.272 . S
C44 O36 1.311 . S
C44 O38 1.231 1_556 S
O45 Zn27 1.953 . S
O45 C39 1.298 1_554 S
O46 Zn47 1.953 . S
O46 C62 1.225 . S
Zn47 O46 1.953 . S
Zn47 O48 1.949 1_556 S
Zn47 O54 1.919 . S
Zn47 O59 1.924 . S
O48 Zn47 1.949 1_554 S
O48 Zn49 1.923 1_554 S
O48 Zn50 1.950 . S
O48 Zn51 1.945 . S
Zn49 O48 1.923 1_556 S
Zn49 O52 1.933 . S
Zn49 O55 1.941 . S
Zn49 O56 1.965 . S
Zn50 O48 1.950 . S
Zn50 O57 1.938 . S
Zn50 O58 1.906 . S
Zn50 O68 1.953 . S
Zn51 O48 1.945 . S
Zn51 O53 1.932 . S
Zn51 O60 1.977 . S
Zn51 O61 1.910 . S
O52 Zn49 1.933 . S
O52 C63 1.230 . S
O53 Zn51 1.932 . S
O53 C63 1.303 1_554 S
O54 Zn47 1.919 . S
O54 C65 1.253 . S
O55 Zn49 1.941 . S
O55 C65 1.283 . S
O56 Zn49 1.965 . S
O56 C64 1.303 1_556 S
O57 Zn50 1.938 . S
O57 C64 1.247 . S
O58 Zn50 1.906 . S
O58 C66 1.304 . S
O59 Zn47 1.924 . S
O59 C67 1.311 . S
O60 Zn51 1.977 . S
O60 C66 1.272 . S
O61 Zn51 1.910 . S
O61 C67 1.231 1_554 S
C62 O46 1.225 . S
C62 O68 1.298 1_556 S
C63 O52 1.230 . S
C63 O53 1.303 1_556 S
C64 O56 1.303 1_554 S
C64 O57 1.247 . S
C65 O54 1.253 . S
C65 O55 1.283 . S
C66 O58 1.304 . S
C66 O60 1.272 . S
C67 O59 1.311 . S
C67 O61 1.231 1_556 S
O68 Zn50 1.953 . S
O68 C62 1.298 1_554 S
O69 Zn70 1.953 . S
O69 C85 1.225 . S
Zn70 O69 1.953 . S
Zn70 O71 1.949 1_556 S
Zn70 O77 1.919 . S
Zn70 O82 1.924 . S
O71 Zn70 1.949 1_554 S
O71 Zn72 1.923 1_554 S
O71 Zn73 1.950 . S
O71 Zn74 1.945 . S
Zn72 O71 1.923 1_556 S
Zn72 O75 1.933 . S
Zn72 O78 1.941 . S
Zn72 O79 1.965 . S
Zn73 O71 1.950 . S
Zn73 O80 1.938 . S
Zn73 O81 1.906 . S
Zn73 O91 1.953 . S
Zn74 O71 1.945 . S
Zn74 O76 1.932 . S
Zn74 O83 1.977 . S
Zn74 O84 1.910 . S
O75 Zn72 1.933 . S
O75 C86 1.230 . S
O76 Zn74 1.932 . S
O76 C86 1.303 1_554 S
O77 Zn70 1.919 . S
O77 C88 1.253 . S
O78 Zn72 1.941 . S
O78 C88 1.283 . S
O79 Zn72 1.965 . S
O79 C87 1.303 1_556 S
O80 Zn73 1.938 . S
O80 C87 1.247 . S
O81 Zn73 1.906 . S
O81 C89 1.304 . S
O82 Zn70 1.924 . S
O82 C90 1.311 . S
O83 Zn74 1.977 . S
O83 C89 1.272 . S
O84 Zn74 1.910 . S
O84 C90 1.231 1_554 S
C85 O69 1.225 . S
C85 O91 1.298 1_556 S
C86 O75 1.230 . S
C86 O76 1.303 1_556 S
C87 O79 1.303 1_554 S
C87 O80 1.247 . S
C88 O77 1.253 . S
C88 O78 1.283 . S
C89 O81 1.304 . S
C89 O83 1.272 . S
C90 O82 1.311 . S
C90 O84 1.231 1_556 S
O91 Zn73 1.953 . S
O91 C85 1.298 1_554 S
O92 Zn93 1.953 . S
O92 C108 1.225 . S
Zn93 O92 1.953 . S
Zn93 O94 1.949 1_556 S
Zn93 O100 1.919 . S
Zn93 O105 1.924 . S
O94 Zn93 1.949 1_554 S
O94 Zn95 1.923 1_554 S
O94 Zn96 1.950 . S
O94 Zn97 1.945 . S
Zn95 O94 1.923 1_556 S
Zn95 O98 1.933 . S
Zn95 O101 1.941 . S
Zn95 O102 1.965 . S
Zn96 O94 1.950 . S
Zn96 O103 1.938 . S
Zn96 O104 1.906 . S
Zn96 O114 1.953 . S
Zn97 O94 1.945 . S
Zn97 O99 1.932 . S
Zn97 O106 1.977 . S
Zn97 O107 1.910 . S
O98 Zn95 1.933 . S
O98 C109 1.230 . S
O99 Zn97 1.932 . S
O99 C109 1.303 1_554 S
O100 Zn93 1.919 . S
O100 C111 1.253 . S
O101 Zn95 1.941 . S
O101 C111 1.283 . S
O102 Zn95 1.965 . S
O102 C110 1.303 1_556 S
O103 Zn96 1.938 . S
O103 C110 1.247 . S
O104 Zn96 1.906 . S
O104 C112 1.304 . S
O105 Zn93 1.924 . S
O105 C113 1.311 . S
O106 Zn97 1.977 . S
O106 C112 1.272 . S
O107 Zn97 1.910 . S
O107 C113 1.231 1_554 S
C108 O92 1.225 . S
C108 O114 1.298 1_556 S
C109 O98 1.230 . S
C109 O99 1.303 1_556 S
C110 O102 1.303 1_554 S
C110 O103 1.247 . S
C111 O100 1.253 . S
C111 O101 1.283 . S
C112 O104 1.304 . S
C112 O106 1.272 . S
C113 O105 1.311 . S
C113 O107 1.231 1_556 S
O114 Zn96 1.953 . S
O114 C108 1.298 1_554 S
O115 Zn116 1.953 . S
O115 C131 1.225 . S
Zn116 O115 1.953 . S
Zn116 O117 1.949 1_556 S
Zn116 O123 1.919 . S
Zn116 O128 1.924 . S
O117 Zn116 1.949 1_554 S
O117 Zn118 1.923 1_554 S
O117 Zn119 1.950 . S
O117 Zn120 1.945 . S
Zn118 O117 1.923 1_556 S
Zn118 O121 1.933 . S
Zn118 O124 1.941 . S
Zn118 O125 1.965 . S
Zn119 O117 1.950 . S
Zn119 O126 1.938 . S
Zn119 O127 1.906 . S
Zn119 O137 1.953 . S
Zn120 O117 1.945 . S
Zn120 O122 1.932 . S
Zn120 O129 1.977 . S
Zn120 O130 1.910 . S
O121 Zn118 1.933 . S
O121 C132 1.230 . S
O122 Zn120 1.932 . S
O122 C132 1.303 1_554 S
O123 Zn116 1.919 . S
O123 C134 1.253 . S
O124 Zn118 1.941 . S
O124 C134 1.283 . S
O125 Zn118 1.965 . S
O125 C133 1.303 1_556 S
O126 Zn119 1.938 . S
O126 C133 1.247 . S
O127 Zn119 1.906 . S
O127 C135 1.304 . S
O128 Zn116 1.924 . S
O128 C136 1.311 . S
O129 Zn120 1.977 . S
O129 C135 1.272 . S
O130 Zn120 1.910 . S
O130 C136 1.231 1_554 S
C131 O115 1.225 . S
C131 O137 1.298 1_556 S
C132 O121 1.230 . S
C132 O122 1.303 1_556 S
C133 O125 1.303 1_554 S
C133 O126 1.247 . S
C134 O123 1.253 . S
C134 O124 1.283 . S
C135 O127 1.304 . S
C135 O129 1.272 . S
C136 O128 1.311 . S
C136 O130 1.231 1_556 S
O137 Zn119 1.953 . S
O137 C131 1.298 1_554 S
H138 C144 0.930 . S
H139 C147 0.930 . S
H140 C148 0.930 . S
H141 C149 0.930 . S
H142 C152 0.930 . S
H143 C153 0.930 . S
C144 H138 0.930 . S
C144 C145 1.355 1_556 S
C144 C146 1.415 . S
C145 C144 1.355 1_554 S
C145 C147 1.419 . S
C146 C144 1.415 . S
C146 C151 1.425 1_556 S
C146 C153 1.409 . S
C147 H139 0.930 . S
C147 C145 1.419 . S
C147 C148 1.362 . S
C148 H140 0.930 . S
C148 C147 1.362 . S
C148 C151 1.409 . S
C149 H141 0.930 . S
C149 C150 1.355 1_554 S
C149 C151 1.415 . S
C150 C149 1.355 1_556 S
C150 C152 1.419 . S
C151 C146 1.425 1_554 S
C151 C148 1.409 . S
C151 C149 1.415 . S
C152 H142 0.930 . S
C152 C150 1.419 . S
C152 C153 1.362 . S
C153 H143 0.930 . S
C153 C146 1.409 . S
C153 C152 1.362 . S
H154 C160 0.930 . S
H155 C163 0.930 . S
H156 C164 0.930 1_655 S
H157 C165 0.930 1_554 S
H158 C168 0.930 . S
H159 C169 0.930 . S
C160 H154 0.930 . S
C160 C161 1.354 1_556 S
C160 C162 1.415 1_455 S
C161 C160 1.354 1_554 S
C161 C163 1.420 . S
C162 C160 1.415 1_655 S
C162 C167 1.425 1_556 S
C162 C169 1.409 . S
C163 H155 0.930 . S
C163 C161 1.420 . S
C163 C164 1.362 . S
C164 H156 0.930 1_455 S
C164 C163 1.362 . S
C164 C167 1.409 1_455 S
C165 H157 0.930 1_556 S
C165 C166 1.355 . S
C165 C167 1.415 1_556 S
C166 C165 1.355 . S
C166 C168 1.419 . S
C167 C162 1.425 1_554 S
C167 C164 1.409 1_655 S
C167 C165 1.415 1_554 S
C168 H158 0.930 . S
C168 C166 1.419 . S
C168 C169 1.362 . S
C169 H159 0.930 . S
C169 C162 1.409 . S
C169 C168 1.362 . S
H170 C176 0.930 . S
H171 C179 0.930 . S
H172 C180 0.929 . S
H173 C181 0.930 . S
H174 C184 0.930 . S
H175 C185 0.930 . S
C176 H170 0.930 . S
C176 C177 1.355 1_554 S
C176 C178 1.415 1_545 S
C177 C176 1.355 1_556 S
C177 C179 1.419 . S
C178 C176 1.415 1_565 S
C178 C183 1.425 1_554 S
C178 C185 1.409 . S
C179 H171 0.930 . S
C179 C177 1.419 . S
C179 C180 1.354 1_545 S
C180 H172 0.929 . S
C180 C179 1.354 1_565 S
C180 C183 1.418 . S
C181 H173 0.930 . S
C181 C182 1.352 1_556 S
C181 C183 1.415 . S
C182 C181 1.352 1_554 S
C182 C184 1.423 . S
C183 C178 1.425 1_556 S
C183 C180 1.418 . S
C183 C181 1.415 . S
C184 H174 0.930 . S
C184 C182 1.423 . S
C184 C185 1.362 . S
C185 H175 0.930 . S
C185 C178 1.409 . S
C185 C184 1.362 . S
H186 C192 0.930 . S
H187 C195 0.930 . S
H188 C196 0.930 . S
H189 C197 0.930 . S
H190 C200 0.930 . S
H191 C201 0.930 . S
C192 H186 0.930 . S
C192 C193 1.352 1_556 S
C192 C194 1.415 . S
C193 C192 1.352 1_554 S
C193 C195 1.423 . S
C194 C192 1.415 . S
C194 C199 1.425 1_556 S
C194 C201 1.409 . S
C195 H187 0.930 . S
C195 C193 1.423 . S
C195 C196 1.362 . S
C196 H188 0.930 . S
C196 C195 1.362 . S
C196 C199 1.409 . S
C197 H189 0.930 . S
C197 C198 1.355 1_554 S
C197 C199 1.415 . S
C198 C197 1.355 1_556 S
C198 C200 1.419 . S
C199 C194 1.425 1_554 S
C199 C196 1.409 . S
C199 C197 1.415 . S
C200 H190 0.930 . S
C200 C198 1.419 . S
C200 C201 1.362 . S
C201 H191 0.930 . S
C201 C194 1.409 . S
C201 C200 1.362 . S
H202 C208 0.930 . S
H203 C211 0.930 . S
H204 C212 0.930 . S
H205 C213 0.930 . S
H206 C216 0.930 . S
H207 C217 0.930 1_455 S
C208 H202 0.930 . S
C208 C209 1.356 . S
C208 C210 1.415 . S
C209 C208 1.356 . S
C209 C211 1.418 1_556 S
C210 C208 1.415 . S
C210 C215 1.425 1_556 S
C210 C217 1.409 1_455 S
C211 H203 0.930 . S
C211 C209 1.418 1_554 S
C211 C212 1.362 . S
C212 H204 0.930 . S
C212 C211 1.362 . S
C212 C215 1.409 . S
C213 H205 0.930 . S
C213 C214 1.355 1_554 S
C213 C215 1.415 1_655 S
C214 C213 1.355 1_556 S
C214 C216 1.419 . S
C215 C210 1.425 1_554 S
C215 C212 1.409 . S
C215 C213 1.415 1_455 S
C216 H206 0.930 . S
C216 C214 1.419 . S
C216 C217 1.362 . S
C217 H207 0.930 1_655 S
C217 C210 1.409 1_655 S
C217 C216 1.362 . S
H218 C224 0.930 . S
H219 C227 0.930 . S
H220 C228 0.927 . S
H221 C229 0.930 . S
H222 C232 0.930 . S
H223 C233 0.930 . S
C224 H218 0.930 . S
C224 C225 1.355 . S
C224 C226 1.415 1_565 S
C225 C224 1.355 . S
C225 C227 1.419 1_556 S
C226 C224 1.415 1_545 S
C226 C231 1.425 1_556 S
C226 C233 1.409 . S
C227 H219 0.930 . S
C227 C225 1.419 1_554 S
C227 C228 1.344 1_565 S
C228 H220 0.927 . S
C228 C227 1.344 1_545 S
C228 C231 1.431 . S
C229 H221 0.930 . S
C229 C230 1.355 1_554 S
C229 C231 1.415 . S
C230 C229 1.355 1_556 S
C230 C232 1.419 . S
C231 C226 1.425 1_554 S
C231 C228 1.431 . S
C231 C229 1.415 . S
C232 H222 0.930 . S
C232 C230 1.419 . S
C232 C233 1.362 . S
C233 H223 0.930 . S
C233 C226 1.409 . S
C233 C232 1.362 . S
H234 C240 0.930 . S
H235 C243 0.930 . S
H236 C244 0.930 . S
H237 C245 0.930 . S
H238 C248 0.930 . S
H239 C249 0.930 . S
C240 H234 0.930 . S
C240 C241 1.355 1_554 S
C240 C242 1.415 . S
C241 C240 1.355 1_556 S
C241 C243 1.419 . S
C242 C240 1.415 . S
C242 C247 1.425 1_554 S
C242 C249 1.409 . S
C243 H235 0.930 . S
C243 C241 1.419 . S
C243 C244 1.362 . S
C244 H236 0.930 . S
C244 C243 1.362 . S
C244 C247 1.409 . S
C245 H237 0.930 . S
C245 C246 1.355 1_556 S
C245 C247 1.415 . S
C246 C245 1.355 1_554 S
C246 C248 1.419 . S
C247 C242 1.425 1_556 S
C247 C244 1.409 . S
C247 C245 1.415 . S
C248 H238 0.930 . S
C248 C246 1.419 . S
C248 C249 1.362 . S
C249 H239 0.930 . S
C249 C242 1.409 . S
C249 C248 1.362 . S
H250 C256 0.930 . S
H251 C259 0.930 . S
H252 C260 0.930 . S
H253 C261 0.930 . S
H254 C264 0.930 . S
H255 C265 0.930 . S
C256 H250 0.930 . S
C256 C257 1.355 1_556 S
C256 C258 1.415 . S
C257 C256 1.355 1_554 S
C257 C259 1.419 . S
C258 C256 1.415 . S
C258 C263 1.425 1_556 S
C258 C265 1.409 . S
C259 H251 0.930 . S
C259 C257 1.419 . S
C259 C260 1.362 . S
C260 H252 0.930 . S
C260 C259 1.362 . S
C260 C263 1.409 . S
C261 H253 0.930 . S
C261 C262 1.355 1_554 S
C261 C263 1.415 . S
C262 C261 1.355 1_556 S
C262 C264 1.419 . S
C263 C258 1.425 1_554 S
C263 C260 1.409 . S
C263 C261 1.415 . S
C264 H254 0.930 . S
C264 C262 1.419 . S
C264 C265 1.362 . S
C265 H255 0.930 . S
C265 C258 1.409 . S
C265 C264 1.362 . S
H266 C272 0.930 . S
H267 C275 0.930 . S
H268 C276 0.930 . S
H269 C277 0.930 . S
H270 C280 0.930 . S
H271 C281 0.930 . S
C272 H266 0.930 . S
C272 C273 1.355 1_554 S
C272 C274 1.415 . S
C273 C272 1.355 1_556 S
C273 C275 1.419 . S
C274 C272 1.415 . S
C274 C279 1.425 1_554 S
C274 C281 1.409 . S
C275 H267 0.930 . S
C275 C273 1.419 . S
C275 C276 1.362 . S
C276 H268 0.930 . S
C276 C275 1.362 . S
C276 C279 1.409 . S
C277 H269 0.930 . S
C277 C278 1.355 1_556 S
C277 C279 1.415 . S
C278 C277 1.355 1_554 S
C278 C280 1.419 . S
C279 C274 1.425 1_556 S
C279 C276 1.409 . S
C279 C277 1.415 . S
C280 H270 0.930 . S
C280 C278 1.419 . S
C280 C281 1.362 . S
C281 H271 0.930 . S
C281 C274 1.409 . S
C281 C280 1.362 . S
H282 C288 0.930 . S
H283 C291 0.930 . S
H284 C292 0.930 . S
H285 C293 0.930 . S
H286 C296 0.930 . S
H287 C297 0.930 . S
C288 H282 0.930 . S
C288 C289 1.355 1_556 S
C288 C290 1.415 . S
C289 C288 1.355 1_554 S
C289 C291 1.419 . S
C290 C288 1.415 . S
C290 C295 1.425 1_556 S
C290 C297 1.409 . S
C291 H283 0.930 . S
C291 C289 1.419 . S
C291 C292 1.362 . S
C292 H284 0.930 . S
C292 C291 1.362 . S
C292 C295 1.409 . S
C293 H285 0.930 . S
C293 C294 1.355 1_554 S
C293 C295 1.415 . S
C294 C293 1.355 1_556 S
C294 C296 1.419 . S
C295 C290 1.425 1_554 S
C295 C292 1.409 . S
C295 C293 1.415 . S
C296 H286 0.930 . S
C296 C294 1.419 . S
C296 C297 1.362 . S
C297 H287 0.930 . S
C297 C290 1.409 . S
C297 C296 1.362 . S
H298 C304 0.930 . S
H299 C307 0.930 . S
H300 C308 0.930 . S
H301 C309 0.930 . S
H302 C312 0.930 . S
H303 C313 0.930 . S
C304 H298 0.930 . S
C304 C305 1.355 1_556 S
C304 C306 1.415 . S
C305 C304 1.355 1_554 S
C305 C307 1.419 . S
C306 C304 1.415 . S
C306 C311 1.425 1_556 S
C306 C313 1.409 . S
C307 H299 0.930 . S
C307 C305 1.419 . S
C307 C308 1.362 . S
C308 H300 0.930 . S
C308 C307 1.362 . S
C308 C311 1.409 . S
C309 H301 0.930 . S
C309 C310 1.355 1_554 S
C309 C311 1.415 . S
C310 C309 1.355 1_556 S
C310 C312 1.419 . S
C311 C306 1.425 1_554 S
C311 C308 1.409 . S
C311 C309 1.415 . S
C312 H302 0.930 . S
C312 C310 1.419 . S
C312 C313 1.362 . S
C313 H303 0.930 . S
C313 C306 1.409 . S
C313 C312 1.362 . S
H314 C320 0.930 . S
H315 C323 0.930 . S
H316 C324 0.930 . S
H317 C325 0.930 . S
H318 C328 0.930 . S
H319 C329 0.930 . S
C320 H314 0.930 . S
C320 C321 1.355 1_556 S
C320 C322 1.415 . S
C321 C320 1.355 1_554 S
C321 C323 1.419 . S
C322 C320 1.415 . S
C322 C327 1.425 1_556 S
C322 C329 1.409 . S
C323 H315 0.930 . S
C323 C321 1.419 . S
C323 C324 1.362 . S
C324 H316 0.930 . S
C324 C323 1.362 . S
C324 C327 1.409 . S
C325 H317 0.930 . S
C325 C326 1.355 1_554 S
C325 C327 1.415 . S
C326 C325 1.355 1_556 S
C326 C328 1.419 . S
C327 C322 1.425 1_554 S
C327 C324 1.409 . S
C327 C325 1.415 . S
C328 H318 0.930 . S
C328 C326 1.419 . S
C328 C329 1.362 . S
C329 H319 0.930 . S
C329 C322 1.409 . S
C329 C328 1.362 . S
H330 C336 0.930 . S
H331 C339 0.930 . S
H332 C340 0.930 . S
H333 C341 0.930 . S
H334 C344 0.930 . S
H335 C345 0.930 . S
C336 H330 0.930 . S
C336 C337 1.355 . S
C336 C338 1.415 . S
C337 C336 1.355 . S
C337 C339 1.419 . S
C338 C336 1.415 . S
C338 C343 1.425 . S
C338 C345 1.409 . S
C339 H331 0.930 . S
C339 C337 1.419 . S
C339 C340 1.362 . S
C340 H332 0.930 . S
C340 C339 1.362 . S
C340 C343 1.409 . S
C341 H333 0.930 . S
C341 C342 1.355 . S
C341 C343 1.415 . S
C342 C341 1.355 . S
C342 C344 1.419 . S
C343 C338 1.425 . S
C343 C340 1.409 . S
C343 C341 1.415 . S
C344 H334 0.930 . S
C344 C342 1.419 . S
C344 C345 1.362 . S
C345 H335 0.930 . S
C345 C338 1.409 . S
C345 C344 1.362 . S
H346 C352 0.930 . S
H347 C355 0.930 . S
H348 C356 0.930 . S
H349 C357 0.930 . S
H350 C360 0.930 . S
H351 C361 0.930 . S
C352 H346 0.930 . S
C352 C353 1.355 . S
C352 C354 1.415 . S
C353 C352 1.355 . S
C353 C355 1.419 . S
C354 C352 1.415 . S
C354 C359 1.425 . S
C354 C361 1.409 . S
C355 H347 0.930 . S
C355 C353 1.419 . S
C355 C356 1.362 . S
C356 H348 0.930 . S
C356 C355 1.362 . S
C356 C359 1.409 . S
C357 H349 0.930 . S
C357 C358 1.355 . S
C357 C359 1.415 . S
C358 C357 1.355 . S
C358 C360 1.419 . S
C359 C354 1.425 . S
C359 C356 1.409 . S
C359 C357 1.415 . S
C360 H350 0.930 . S
C360 C358 1.419 . S
C360 C361 1.362 . S
C361 H351 0.930 . S
C361 C354 1.409 . S
C361 C360 1.362 . S
H362 C368 0.930 . S
H363 C371 0.930 . S
H364 C372 0.930 . S
H365 C373 0.930 . S
H366 C376 0.930 . S
H367 C377 0.930 . S
C368 H362 0.930 . S
C368 C369 1.355 . S
C368 C370 1.415 . S
C369 C368 1.355 . S
C369 C371 1.419 . S
C370 C368 1.415 . S
C370 C375 1.425 . S
C370 C377 1.409 . S
C371 H363 0.930 . S
C371 C369 1.419 . S
C371 C372 1.362 . S
C372 H364 0.930 . S
C372 C371 1.362 . S
C372 C375 1.409 . S
C373 H365 0.930 . S
C373 C374 1.355 . S
C373 C375 1.415 . S
C374 C373 1.355 . S
C374 C376 1.419 . S
C375 C370 1.425 . S
C375 C372 1.409 . S
C375 C373 1.415 . S
C376 H366 0.930 . S
C376 C374 1.419 . S
C376 C377 1.362 . S
C377 H367 0.930 . S
C377 C370 1.409 . S
C377 C376 1.362 . S
H378 C384 0.930 . S
H379 C387 0.930 . S
H380 C388 0.930 . S
H381 C389 0.930 . S
H382 C392 0.930 . S
H383 C393 0.930 . S
C384 H378 0.930 . S
C384 C385 1.355 . S
C384 C386 1.415 . S
C385 C384 1.355 . S
C385 C387 1.419 . S
C386 C384 1.415 . S
C386 C391 1.425 . S
C386 C393 1.409 . S
C387 H379 0.930 . S
C387 C385 1.419 . S
C387 C388 1.362 . S
C388 H380 0.930 . S
C388 C387 1.362 . S
C388 C391 1.409 . S
C389 H381 0.930 . S
C389 C390 1.355 . S
C389 C391 1.415 . S
C390 C389 1.355 . S
C390 C392 1.419 . S
C391 C386 1.425 . S
C391 C388 1.409 . S
C391 C389 1.415 . S
C392 H382 0.930 . S
C392 C390 1.419 . S
C392 C393 1.362 . S
C393 H383 0.930 . S
C393 C386 1.409 . S
C393 C392 1.362 . S
H394 C400 0.930 . S
H395 C403 0.930 . S
H396 C404 0.930 . S
H397 C405 0.930 . S
H398 C408 0.930 . S
H399 C409 0.930 . S
C400 H394 0.930 . S
C400 C401 1.355 . S
C400 C402 1.415 . S
C401 C400 1.355 . S
C401 C403 1.419 . S
C402 C400 1.415 . S
C402 C407 1.425 . S
C402 C409 1.409 . S
C403 H395 0.930 . S
C403 C401 1.419 . S
C403 C404 1.362 . S
C404 H396 0.930 . S
C404 C403 1.362 . S
C404 C407 1.409 . S
C405 H397 0.930 . S
C405 C406 1.355 . S
C405 C407 1.415 . S
C406 C405 1.355 . S
C406 C408 1.419 . S
C407 C402 1.425 . S
C407 C404 1.409 . S
C407 C405 1.415 . S
C408 H398 0.930 . S
C408 C406 1.419 . S
C408 C409 1.362 . S
C409 H399 0.930 . S
C409 C402 1.409 . S
C409 C408 1.362 . S
H410 C416 0.930 . S
H411 C419 0.930 . S
H412 C420 0.930 . S
H413 C421 0.930 . S
H414 C424 0.930 . S
H415 C425 0.930 . S
C416 H410 0.930 . S
C416 C417 1.355 . S
C416 C418 1.415 . S
C417 C416 1.355 . S
C417 C419 1.419 . S
C418 C416 1.415 . S
C418 C423 1.425 . S
C418 C425 1.409 . S
C419 H411 0.930 . S
C419 C417 1.419 . S
C419 C420 1.362 . S
C420 H412 0.930 . S
C420 C419 1.362 . S
C420 C423 1.409 . S
C421 H413 0.930 . S
C421 C422 1.355 . S
C421 C423 1.415 . S
C422 C421 1.355 . S
C422 C424 1.419 . S
C423 C418 1.425 . S
C423 C420 1.409 . S
C423 C421 1.415 . S
C424 H414 0.930 . S
C424 C422 1.419 . S
C424 C425 1.362 . S
C425 H415 0.930 . S
C425 C418 1.409 . S
C425 C424 1.362 . S
C145 C132 1.488 1_554 S
C150 C18 1.486 1_556 S
C161 C17 1.491 1_554 S
C166 C41 1.481 1_556 S
C177 C40 1.477 . S
C182 C64 1.446 . S
C193 C87 1.456 . S
C198 C63 1.493 . S
C209 C110 1.458 1_556 S
C214 C86 1.493 . S
C225 C109 1.472 . S
C230 C133 1.455 1_556 S
C241 C108 1.448 . S
C246 C21 1.461 1_554 S
C257 C131 1.452 1_554 S
C262 C44 1.455 . S
C273 C67 1.462 . S
C278 C16 1.474 1_554 S
C289 C90 1.466 1_554 S
C294 C39 1.450 . S
C305 C113 1.478 1_554 S
C310 C62 1.463 . S
C321 C85 1.478 1_554 S
C326 C136 1.467 . S
C337 C19 1.447 . S
C342 C20 1.434 . S
C353 C42 1.425 . S
C358 C43 1.452 . S
C369 C65 1.413 . S
C374 C66 1.470 . S
C385 C88 1.412 . S
C390 C89 1.477 . S
C401 C112 1.434 . S
C406 C111 1.448 . S
C417 C134 1.436 . S
C422 C135 1.442 . S
