# Generated by pormake.
# Topology lcy-a-x, (5)-cn, num edge types: 1
# Building blocks:
#     Node 0, Type 0, BuildingBlock: BEQFEK_clean_sbu_0, # of connection points: 5
#     Node 1, Type 0, BuildingBlock: BEQFEK_clean_sbu_0, # of connection points: 5
#     Node 2, Type 0, BuildingBlock: BEQFEK_clean_sbu_0, # of connection points: 5
#     Node 3, Type 0, BuildingBlock: BEQFEK_clean_sbu_0, # of connection points: 5
#     Node 4, Type 0, BuildingBlock: BEQFEK_clean_sbu_0, # of connection points: 5
#     Node 5, Type 0, BuildingBlock: BEQFEK_clean_sbu_0, # of connection points: 5
#     Node 6, Type 0, BuildingBlock: BEQFEK_clean_sbu_0, # of connection points: 5
#     Node 7, Type 0, BuildingBlock: BEQFEK_clean_sbu_0, # of connection points: 5
#     Node 8, Type 0, BuildingBlock: BEQFEK_clean_sbu_0, # of connection points: 5
#     Node 9, Type 0, BuildingBlock: BEQFEK_clean_sbu_0, # of connection points: 5
#     Node 10, Type 0, BuildingBlock: BEQFEK_clean_sbu_0, # of connection points: 5
#     Node 11, Type 0, BuildingBlock: BEQFEK_clean_sbu_0, # of connection points: 5
#     Node 12, Type 0, BuildingBlock: BEQFEK_clean_sbu_0, # of connection points: 5
#     Node 13, Type 0, BuildingBlock: BEQFEK_clean_sbu_0, # of connection points: 5
#     Node 14, Type 0, BuildingBlock: BEQFEK_clean_sbu_0, # of connection points: 5
#     Node 15, Type 0, BuildingBlock: BEQFEK_clean_sbu_0, # of connection points: 5
#     Node 16, Type 0, BuildingBlock: BEQFEK_clean_sbu_0, # of connection points: 5
#     Node 17, Type 0, BuildingBlock: BEQFEK_clean_sbu_0, # of connection points: 5
#     Node 18, Type 0, BuildingBlock: BEQFEK_clean_sbu_0, # of connection points: 5
#     Node 19, Type 0, BuildingBlock: BEQFEK_clean_sbu_0, # of connection points: 5
#     Node 20, Type 0, BuildingBlock: BEQFEK_clean_sbu_0, # of connection points: 5
#     Node 21, Type 0, BuildingBlock: BEQFEK_clean_sbu_0, # of connection points: 5
#     Node 22, Type 0, BuildingBlock: BEQFEK_clean_sbu_0, # of connection points: 5
#     Node 23, Type 0, BuildingBlock: BEQFEK_clean_sbu_0, # of connection points: 5
#     Edge 24, Type (0, 0), BuildingBlock: AJUNOK_clean_linker_0, # of connection points: 2
#     Edge 25, Type (0, 0), BuildingBlock: AJUNOK_clean_linker_0, # of connection points: 2
#     Edge 26, Type (0, 0), BuildingBlock: AJUNOK_clean_linker_0, # of connection points: 2
#     Edge 27, Type (0, 0), BuildingBlock: AJUNOK_clean_linker_0, # of connection points: 2
#     Edge 28, Type (0, 0), BuildingBlock: AJUNOK_clean_linker_0, # of connection points: 2
#     Edge 29, Type (0, 0), BuildingBlock: AJUNOK_clean_linker_0, # of connection points: 2
#     Edge 30, Type (0, 0), BuildingBlock: AJUNOK_clean_linker_0, # of connection points: 2
#     Edge 31, Type (0, 0), BuildingBlock: AJUNOK_clean_linker_0, # of connection points: 2
#     Edge 32, Type (0, 0), BuildingBlock: AJUNOK_clean_linker_0, # of connection points: 2
#     Edge 33, Type (0, 0), BuildingBlock: AJUNOK_clean_linker_0, # of connection points: 2
#     Edge 34, Type (0, 0), BuildingBlock: AJUNOK_clean_linker_0, # of connection points: 2
#     Edge 35, Type (0, 0), BuildingBlock: AJUNOK_clean_linker_0, # of connection points: 2
#     Edge 36, Type (0, 0), BuildingBlock: AJUNOK_clean_linker_0, # of connection points: 2
#     Edge 37, Type (0, 0), BuildingBlock: AJUNOK_clean_linker_0, # of connection points: 2
#     Edge 38, Type (0, 0), BuildingBlock: AJUNOK_clean_linker_0, # of connection points: 2
#     Edge 39, Type (0, 0), BuildingBlock: AJUNOK_clean_linker_0, # of connection points: 2
#     Edge 40, Type (0, 0), BuildingBlock: AJUNOK_clean_linker_0, # of connection points: 2
#     Edge 41, Type (0, 0), BuildingBlock: AJUNOK_clean_linker_0, # of connection points: 2
#     Edge 42, Type (0, 0), BuildingBlock: AJUNOK_clean_linker_0, # of connection points: 2
#     Edge 43, Type (0, 0), BuildingBlock: AJUNOK_clean_linker_0, # of connection points: 2
#     Edge 44, Type (0, 0), BuildingBlock: AJUNOK_clean_linker_0, # of connection points: 2
#     Edge 45, Type (0, 0), BuildingBlock: AJUNOK_clean_linker_0, # of connection points: 2
#     Edge 46, Type (0, 0), BuildingBlock: AJUNOK_clean_linker_0, # of connection points: 2
#     Edge 47, Type (0, 0), BuildingBlock: AJUNOK_clean_linker_0, # of connection points: 2
#     Edge 48, Type (0, 0), BuildingBlock: AJUNOK_clean_linker_0, # of connection points: 2
#     Edge 49, Type (0, 0), BuildingBlock: AJUNOK_clean_linker_0, # of connection points: 2
#     Edge 50, Type (0, 0), BuildingBlock: AJUNOK_clean_linker_0, # of connection points: 2
#     Edge 51, Type (0, 0), BuildingBlock: AJUNOK_clean_linker_0, # of connection points: 2
#     Edge 52, Type (0, 0), BuildingBlock: AJUNOK_clean_linker_0, # of connection points: 2
#     Edge 53, Type (0, 0), BuildingBlock: AJUNOK_clean_linker_0, # of connection points: 2
#     Edge 54, Type (0, 0), BuildingBlock: AJUNOK_clean_linker_0, # of connection points: 2
#     Edge 55, Type (0, 0), BuildingBlock: AJUNOK_clean_linker_0, # of connection points: 2
#     Edge 56, Type (0, 0), BuildingBlock: AJUNOK_clean_linker_0, # of connection points: 2
#     Edge 57, Type (0, 0), BuildingBlock: AJUNOK_clean_linker_0, # of connection points: 2
#     Edge 58, Type (0, 0), BuildingBlock: AJUNOK_clean_linker_0, # of connection points: 2
#     Edge 59, Type (0, 0), BuildingBlock: AJUNOK_clean_linker_0, # of connection points: 2
#     Edge 60, Type (0, 0), BuildingBlock: AJUNOK_clean_linker_0, # of connection points: 2
#     Edge 61, Type (0, 0), BuildingBlock: AJUNOK_clean_linker_0, # of connection points: 2
#     Edge 62, Type (0, 0), BuildingBlock: AJUNOK_clean_linker_0, # of connection points: 2
#     Edge 63, Type (0, 0), BuildingBlock: AJUNOK_clean_linker_0, # of connection points: 2
#     Edge 64, Type (0, 0), BuildingBlock: AJUNOK_clean_linker_0, # of connection points: 2
#     Edge 65, Type (0, 0), BuildingBlock: AJUNOK_clean_linker_0, # of connection points: 2
#     Edge 66, Type (0, 0), BuildingBlock: AJUNOK_clean_linker_0, # of connection points: 2
#     Edge 67, Type (0, 0), BuildingBlock: AJUNOK_clean_linker_0, # of connection points: 2
#     Edge 68, Type (0, 0), BuildingBlock: AJUNOK_clean_linker_0, # of connection points: 2
#     Edge 69, Type (0, 0), BuildingBlock: AJUNOK_clean_linker_0, # of connection points: 2
#     Edge 70, Type (0, 0), BuildingBlock: AJUNOK_clean_linker_0, # of connection points: 2
#     Edge 71, Type (0, 0), BuildingBlock: AJUNOK_clean_linker_0, # of connection points: 2
#     Edge 72, Type (0, 0), BuildingBlock: AJUNOK_clean_linker_0, # of connection points: 2
#     Edge 73, Type (0, 0), BuildingBlock: AJUNOK_clean_linker_0, # of connection points: 2
#     Edge 74, Type (0, 0), BuildingBlock: AJUNOK_clean_linker_0, # of connection points: 2
#     Edge 75, Type (0, 0), BuildingBlock: AJUNOK_clean_linker_0, # of connection points: 2
#     Edge 76, Type (0, 0), BuildingBlock: AJUNOK_clean_linker_0, # of connection points: 2
#     Edge 77, Type (0, 0), BuildingBlock: AJUNOK_clean_linker_0, # of connection points: 2
#     Edge 78, Type (0, 0), BuildingBlock: AJUNOK_clean_linker_0, # of connection points: 2
#     Edge 79, Type (0, 0), BuildingBlock: AJUNOK_clean_linker_0, # of connection points: 2
#     Edge 80, Type (0, 0), BuildingBlock: AJUNOK_clean_linker_0, # of connection points: 2
#     Edge 81, Type (0, 0), BuildingBlock: AJUNOK_clean_linker_0, # of connection points: 2
#     Edge 82, Type (0, 0), BuildingBlock: AJUNOK_clean_linker_0, # of connection points: 2
#     Edge 83, Type (0, 0), BuildingBlock: AJUNOK_clean_linker_0, # of connection points: 2
# Relax obj value: 1.287
# Max RMSD: 0.174
# Mean RMSD: 0.174
data_MOF--net-lcy-a-x--node1-BEQFEK_clean_sbu_0--edge1-AJUNOK_clean_linker_0
_symmetry_space_group_name_H-M    P1
_symmetry_Int_Tables_number       1
_symmetry_cell_setting            triclinic
loop_
_symmetry_equiv_pos_as_xyz
'x, y, z'
_cell_length_a     40.088708
_cell_length_b     40.00743
_cell_length_c     40.261228
_cell_angle_alpha  90.251469
_cell_angle_beta   90.042751
_cell_angle_gamma 90.358556
loop_
_atom_site_label
_atom_site_type_symbol
_atom_site_fract_x
_atom_site_fract_y
_atom_site_fract_z
_atom_type_partial_charge
Co0 Co 0.01933 0.03746 0.73467 0.0
Co1 Co 0.03787 0.05939 0.66239 0.0
C2 C 0.98235 0.0099 0.67676 0.0
O3 O 0.9858 0.01237 0.70809 0.0
O4 O 0.00093 0.02655 0.65722 0.0
C5 C 0.99 0.00812 0.7931 0.0
O6 O 0.98569 0.98186 0.77385 0.0
C7 C 0.01627 0.09104 0.60335 0.0
C8 C 0.06201 0.11331 0.58203 0.0
C9 C 0.02756 0.11247 0.57901 0.0
N10 N 0.04264 0.07995 0.62039 0.0
N11 N 0.0701 0.09251 0.60705 0.0
C12 C 0.98079 0.08587 0.61417 0.0
H13 H 0.97156 0.0617 0.60401 0.0
H14 H 0.97931 0.08481 0.64165 0.0
H15 H 0.96427 0.10607 0.60524 0.0
C16 C 0.00809 0.11016 0.742 0.0
N17 N 0.01854 0.08352 0.72431 0.0
N18 N 0.02762 0.09336 0.69454 0.0
C19 C 0.02385 0.12693 0.69274 0.0
C20 C 0.01089 0.13856 0.72255 0.0
C21 C 0.99525 0.1083 0.77681 0.0
H22 H 0.01475 0.09732 0.79289 0.0
H23 H 0.97299 0.09169 0.77752 0.0
H24 H 0.98867 0.13333 0.78673 0.0
O25 O 0.06364 0.01745 0.72544 0.0
O26 O 0.07754 0.0329 0.67406 0.0
H27 H 0.0529 0.139 0.64978 0.0
H28 H 0.0328 0.17435 0.66835 0.0
C29 C 0.02995 0.14746 0.66236 0.0
H30 H 0.00835 0.14484 0.64539 0.0
H31 H 0.09401 0.08908 0.61667 0.0
O32 O 0.00643 0.03291 0.78196 0.0
C33 C 0.08351 0.01684 0.70064 0.0
Co34 Co 0.44481 0.69828 0.90383 0.0
Co35 Co 0.42774 0.76284 0.86368 0.0
C36 C 0.43247 0.69515 0.83094 0.0
O37 O 0.43822 0.68032 0.85822 0.0
O38 O 0.42864 0.72665 0.8301 0.0
C39 C 0.45491 0.6302 0.92527 0.0
O40 O 0.46785 0.6259 0.89562 0.0
C41 C 0.3845 0.80006 0.82039 0.0
C42 C 0.3948 0.85268 0.83383 0.0
C43 C 0.37429 0.83244 0.81451 0.0
N44 N 0.40994 0.80096 0.84206 0.0
N45 N 0.4166 0.83254 0.84945 0.0
C46 C 0.36685 0.76855 0.80993 0.0
H47 H 0.3695 0.74902 0.82919 0.0
H48 H 0.33993 0.77298 0.80541 0.0
H49 H 0.37811 0.7593 0.78651 0.0
C50 C 0.38463 0.71931 0.94118 0.0
N51 N 0.4075 0.72423 0.91712 0.0
N52 N 0.39975 0.75122 0.90033 0.0
C53 C 0.3715 0.76428 0.91325 0.0
C54 C 0.36102 0.74446 0.93962 0.0
C55 C 0.38557 0.69112 0.96545 0.0
H56 H 0.41048 0.69051 0.97742 0.0
H57 H 0.38164 0.66715 0.95199 0.0
H58 H 0.36631 0.69376 0.98503 0.0
O59 O 0.48667 0.72519 0.90536 0.0
O60 O 0.4742 0.77195 0.87845 0.0
H61 H 0.37036 0.81509 0.89676 0.0
H62 H 0.33124 0.80053 0.91377 0.0
C63 C 0.35323 0.79336 0.89881 0.0
H64 H 0.34416 0.78662 0.8737 0.0
H65 H 0.43453 0.84018 0.86673 0.0
O66 O 0.44673 0.6595 0.93426 0.0
C67 C 0.49492 0.75396 0.89431 0.0
Co68 Co 0.53956 0.00155 0.27481 0.0
Co69 Co 0.50651 0.97539 0.20924 0.0
C70 C 0.56036 0.02959 0.21101 0.0
O71 O 0.56537 0.02803 0.2422 0.0
O72 O 0.53878 0.01086 0.19703 0.0
C73 C 0.56836 0.03627 0.33133 0.0
O74 O 0.56455 0.06369 0.31395 0.0
C75 C 0.52148 0.94291 0.14804 0.0
C76 C 0.47342 0.92356 0.12909 0.0
C77 C 0.50741 0.92435 0.12278 0.0
N78 N 0.49718 0.95317 0.16847 0.0
N79 N 0.46831 0.94196 0.15686 0.0
C80 C 0.55806 0.94682 0.15495 0.0
H81 H 0.56865 0.96601 0.13814 0.0
H82 H 0.56262 0.95432 0.18109 0.0
H83 H 0.57125 0.92304 0.14979 0.0
C84 C 0.55574 0.93029 0.28175 0.0
N85 N 0.54075 0.95554 0.26567 0.0
N86 N 0.52542 0.94381 0.23918 0.0
C87 C 0.5299 0.91037 0.23787 0.0
C88 C 0.54926 0.9008 0.26474 0.0
C89 C 0.5782 0.93492 0.31116 0.0
H90 H 0.56277 0.94049 0.33334 0.0
H91 H 0.59519 0.95648 0.30694 0.0
H92 H 0.59322 0.91228 0.31609 0.0
O93 O 0.49388 0.01835 0.27385 0.0
O94 O 0.46798 -1e-05 0.2282 0.0
H95 H 0.49161 0.89657 0.20297 0.0
H96 H 0.51367 0.86173 0.22095 0.0
C97 C 0.51625 0.88765 0.2115 0.0
H98 H 0.5337 0.88714 0.19017 0.0
H99 H 0.44541 0.94559 0.1686 0.0
O100 O 0.55829 0.00862 0.31934 0.0
C101 C 0.46835 0.01708 0.25506 0.0
Co102 Co 0.10387 0.35126 0.4256 0.0
Co103 Co 0.13085 0.28319 0.39595 0.0
C104 C 0.13145 0.34724 0.35712 0.0
O105 O 0.12 0.36425 0.3812 0.0
O106 O 0.13616 0.31603 0.35982 0.0
C107 C 0.0924 0.42189 0.43412 0.0
O108 O 0.08564 0.42047 0.40221 0.0
C109 C 0.18575 0.24708 0.36712 0.0
C110 C 0.17676 0.19459 0.38146 0.0
C111 C 0.19982 0.2156 0.36645 0.0
N112 N 0.15579 0.245 0.38195 0.0
N113 N 0.15016 0.21341 0.38985 0.0
C114 C 0.20276 0.27944 0.35867 0.0
H115 H 0.19525 0.29934 0.37636 0.0
H116 H 0.23031 0.27701 0.35923 0.0
H117 H 0.19521 0.28705 0.33332 0.0
C118 C 0.1562 0.33682 0.47556 0.0
N119 N 0.13795 0.328 0.44871 0.0
N120 N 0.14923 0.29956 0.4368 0.0
C121 C 0.17481 0.28927 0.45609 0.0
C122 C 0.18013 0.31262 0.48121 0.0
C123 C 0.15154 0.36846 0.49482 0.0
H124 H 0.12517 0.37004 0.50292 0.0
H125 H 0.15707 0.39014 0.4786 0.0
H126 H 0.16791 0.36954 0.51705 0.0
O127 O 0.06289 0.32244 0.4194 0.0
O128 O 0.08211 0.27379 0.40015 0.0
H129 H 0.18028 0.23753 0.44349 0.0
H130 H 0.21325 0.25351 0.46937 0.0
C131 C 0.19622 0.2596 0.44868 0.0
H132 H 0.21195 0.26501 0.42678 0.0
H133 H 0.12918 0.20506 0.40278 0.0
O134 O 0.09649 0.39462 0.44976 0.0
C135 C 0.05788 0.2925 0.40892 0.0
Co136 Co 0.53233 0.50453 0.31994 0.0
Co137 Co 0.5541 0.4892 0.39256 0.0
C138 C 0.49734 0.5364 0.37616 0.0
O139 O 0.49908 0.53107 0.34503 0.0
O140 O 0.5172 0.52199 0.39602 0.0
C141 C 0.50628 0.5312 0.25939 0.0
O142 O 0.50595 0.55943 0.27618 0.0
C143 C 0.53187 0.46242 0.45357 0.0
C144 C 0.57696 0.44238 0.4777 0.0
C145 C 0.54247 0.44339 0.47996 0.0
N146 N 0.55867 0.47226 0.43622 0.0
N147 N 0.58575 0.46102 0.45115 0.0
C148 C 0.49661 0.46582 0.44146 0.0
H149 H 0.49576 0.46515 0.41396 0.0
H150 H 0.48022 0.44566 0.45112 0.0
H151 H 0.48659 0.49014 0.45004 0.0
C152 C 0.51955 0.4314 0.31932 0.0
N153 N 0.53186 0.45934 0.33385 0.0
N154 N 0.54268 0.45211 0.36375 0.0
C155 C 0.53831 0.41885 0.36876 0.0
C156 C 0.52289 0.40471 0.34107 0.0
C157 C 0.50424 0.43055 0.28541 0.0
H158 H 0.5227 0.43991 0.26712 0.0
H159 H 0.48238 0.44743 0.28482 0.0
H160 H 0.49643 0.4049 0.27808 0.0
O161 O 0.57657 0.52651 0.32608 0.0
O162 O 0.59345 0.51597 0.37775 0.0
H163 H 0.56917 0.41152 0.41157 0.0
H164 H 0.55006 0.37396 0.39608 0.0
C165 C 0.54622 0.40101 0.40034 0.0
H166 H 0.52502 0.4036 0.41776 0.0
H167 H 0.60987 0.46369 0.44176 0.0
O168 O 0.51881 0.50554 0.27288 0.0
C169 C 0.59769 0.52996 0.34962 0.0
Co170 Co 0.59864 0.19756 0.62992 0.0
Co171 Co 0.6269 0.26454 0.66082 0.0
C172 C 0.62604 0.19925 0.69829 0.0
O173 O 0.61399 0.18256 0.67414 0.0
O174 O 0.63156 0.23039 0.69563 0.0
C175 C 0.58412 0.12776 0.61779 0.0
O176 O 0.57762 0.12756 0.64977 0.0
C177 C 0.68443 0.29814 0.68773 0.0
C178 C 0.6724 0.35182 0.6853 0.0
C179 C 0.69739 0.32956 0.69352 0.0
N180 N 0.65305 0.30124 0.67655 0.0
N181 N 0.64572 0.33342 0.67556 0.0
C182 C 0.70304 0.26583 0.68954 0.0
H183 H 0.70496 0.25806 0.71586 0.0
H184 H 0.69021 0.24595 0.67503 0.0
H185 H 0.72884 0.26913 0.68006 0.0
C186 C 0.6516 0.21286 0.58037 0.0
N187 N 0.63343 0.22098 0.60739 0.0
N188 N 0.64432 0.2497 0.6193 0.0
C189 C 0.66917 0.26113 0.5996 0.0
C190 C 0.67507 0.23784 0.57465 0.0
C191 C 0.64657 0.18169 0.56034 0.0
H192 H 0.62047 0.18096 0.55126 0.0
H193 H 0.65065 0.15955 0.57631 0.0
H194 H 0.66362 0.18066 0.53866 0.0
O195 O 0.55852 0.22697 0.63714 0.0
O196 O 0.57873 0.27499 0.65756 0.0
H197 H 0.67228 0.31206 0.61657 0.0
H198 H 0.6992 0.30276 0.58233 0.0
C199 C 0.68854 0.29271 0.6056 0.0
H200 H 0.70959 0.28749 0.62257 0.0
H201 H 0.62308 0.34284 0.66703 0.0
O202 O 0.5895 0.15571 0.60373 0.0
C203 C 0.55413 0.25659 0.64861 0.0
Co204 Co 0.03747 0.54609 0.77237 0.0
Co205 Co 0.00883 0.5748 0.83941 0.0
C206 C 0.06334 0.5226 0.83679 0.0
O207 O 0.06522 0.52223 0.80523 0.0
O208 O 0.04297 0.54171 0.85175 0.0
C209 C 0.07004 0.51103 0.71841 0.0
O210 O 0.07122 0.48573 0.73907 0.0
C211 C 0.02325 0.61035 0.8997 0.0
C212 C 0.97565 0.63402 0.91364 0.0
C213 C 0.00912 0.63236 0.92202 0.0
N214 N -0.00061 0.59926 0.87896 0.0
N215 N 0.97076 0.61295 0.88775 0.0
C216 C 0.05975 0.60384 0.89508 0.0
H217 H 0.06645 0.5808 0.90868 0.0
H218 H 0.06555 0.60013 0.86839 0.0
H219 H 0.07517 0.62474 0.905 0.0
C220 C 0.05317 0.61715 0.762 0.0
N221 N 0.03868 0.59251 0.77966 0.0
N222 N 0.0255 0.60514 0.80681 0.0
C223 C 0.03093 0.63853 0.80688 0.0
C224 C 0.04858 0.64705 0.7786 0.0
C225 C 0.07349 0.61173 0.73133 0.0
H226 H 0.05659 0.60395 0.71089 0.0
H227 H 0.0917 0.59141 0.73557 0.0
H228 H 0.08699 0.63478 0.72378 0.0
O229 O 0.99193 0.52826 0.7764 0.0
O230 O 0.97032 0.54752 0.82379 0.0
H231 H 0.02054 0.68831 0.82472 0.0
H232 H 0.03898 0.66083 0.85456 0.0
C233 C 0.0208 0.66217 0.83387 0.0
H234 H 0.99564 0.65554 0.8431 0.0
H235 H 0.94838 0.60954 0.87486 0.0
O236 O 0.05524 0.53755 0.72734 0.0
C237 C 0.96829 0.5297 0.7975 0.0
Co238 Co 0.94327 0.88027 0.13916 0.0
Co239 Co 0.9293 0.81207 0.17526 0.0
C240 C 0.93306 0.87787 0.21214 0.0
O241 O 0.9378 0.89485 0.18591 0.0
O242 O 0.92996 0.84625 0.2108 0.0
C243 C 0.95067 0.95005 0.12155 0.0
O244 O 0.96345 0.95324 0.15144 0.0
C245 C 0.88498 0.77198 0.21519 0.0
C246 C 0.89957 0.72003 0.20406 0.0
C247 C 0.87637 0.73904 0.22119 0.0
N248 N 0.91197 0.7726 0.19547 0.0
N249 N 0.92105 0.74146 0.18937 0.0
C250 C 0.86524 0.80235 0.22433 0.0
H251 H 0.87349 0.81141 0.2491 0.0
H252 H 0.86936 0.82256 0.20599 0.0
H253 H 0.8382 0.79641 0.22569 0.0
C254 C 0.88238 0.85933 0.10255 0.0
N255 N 0.90621 0.85385 0.12552 0.0
N256 N 0.90047 0.82492 0.13994 0.0
C257 C 0.87289 0.81098 0.12622 0.0
C258 C 0.86058 0.83234 0.10221 0.0
C259 C 0.87937 0.8908 0.08286 0.0
H260 H 0.87987 0.91264 0.09993 0.0
H261 H 0.85599 0.89133 0.06812 0.0
H262 H 0.901 0.89286 0.06582 0.0
O263 O 0.98551 0.85462 0.13454 0.0
O264 O 0.97561 0.80571 0.15893 0.0
H265 H 0.84204 0.76785 0.11519 0.0
H266 H 0.84393 0.77976 0.15823 0.0
C267 C 0.85873 0.77749 0.1351 0.0
H268 H 0.87912 0.75942 0.13912 0.0
H269 H 0.94076 0.73485 0.17381 0.0
O270 O 0.94349 0.92093 0.11088 0.0
C271 C 0.99514 0.82563 0.1435 0.0
Co272 Co 0.80987 0.09025 0.08346 0.0
Co273 Co 0.73585 0.11766 0.09436 0.0
C274 C 0.75105 0.05993 0.04754 0.0
O275 O 0.7824 0.06092 0.05307 0.0
O276 O 0.73145 0.08039 0.06181 0.0
C277 C 0.86861 0.05281 0.06548 0.0
O278 O 0.8521 0.04647 0.03795 0.0
C279 C 0.66996 0.1032 0.11727 0.0
C280 C 0.64997 0.15195 0.13331 0.0
C281 C 0.64314 0.11795 0.13282 0.0
N282 N 0.6918 0.12718 0.10876 0.0
N283 N 0.67945 0.15646 0.11767 0.0
C284 C 0.67723 0.0665 0.1155 0.0
H285 H 0.70447 0.06203 0.11615 0.0
H286 H 0.66528 0.05285 0.13632 0.0
H287 H 0.66705 0.05629 0.09192 0.0
C288 C 0.80244 0.0759 0.15447 0.0
N289 N 0.7906 0.0881 0.12577 0.0
N290 N 0.7614 0.10218 0.13113 0.0
C291 C 0.75417 0.09969 0.16373 0.0
C292 C 0.77979 0.083 0.1792 0.0
C293 C 0.83425 0.05687 0.15786 0.0
H294 H 0.85549 0.0746 0.15572 0.0
H295 H 0.8362 0.03813 0.13758 0.0
H296 H 0.83585 0.04408 0.18221 0.0
O297 O 0.80846 0.13885 0.07336 0.0
O298 O 0.7579 0.15657 0.07255 0.0
H299 H 0.71685 0.13754 0.16916 0.0
H300 H 0.72824 0.11714 0.20735 0.0
C301 C 0.72379 0.11335 0.18037 0.0
H302 H 0.70289 0.09531 0.17758 0.0
H303 H 0.6921 0.17918 0.11512 0.0
O304 O 0.85609 0.07285 0.08657 0.0
C305 C 0.78393 0.14893 0.05627 0.0
Co306 Co 0.33146 0.48405 0.18395 0.0
Co307 Co 0.25981 0.45387 0.19453 0.0
C308 C 0.32293 0.42246 0.22098 0.0
O309 O 0.34228 0.44611 0.21241 0.0
O310 O 0.29176 0.42396 0.21564 0.0
C311 C 0.40005 0.49534 0.17228 0.0
O312 O 0.39825 0.46441 0.16126 0.0
C313 C 0.20981 0.42963 0.23955 0.0
C314 C 0.16754 0.41581 0.20696 0.0
C315 C 0.17838 0.4154 0.23964 0.0
N316 N 0.21729 0.43849 0.20834 0.0
N317 N 0.19184 0.43051 0.1889 0.0
C318 C 0.23394 0.43131 0.26795 0.0
H319 H 0.24408 0.40599 0.27251 0.0
H320 H 0.25482 0.44872 0.26236 0.0
H321 H 0.22123 0.43967 0.29095 0.0
C322 C 0.30042 0.53948 0.22009 0.0
N323 N 0.29766 0.51096 0.20251 0.0
N324 N 0.26718 0.49915 0.20564 0.0
C325 C 0.24937 0.52044 0.22448 0.0
C326 C 0.27017 0.54594 0.23558 0.0
C327 C 0.33299 0.55667 0.22697 0.0
H328 H 0.3435 0.56587 0.20322 0.0
H329 H 0.35088 0.53858 0.23766 0.0
H330 H 0.32992 0.57814 0.24424 0.0
O331 O 0.3189 0.46245 0.14157 0.0
O332 O 0.2667 0.4442 0.14779 0.0
H333 H 0.20011 0.49978 0.21793 0.0
H334 H 0.20192 0.53768 0.24231 0.0
C335 C 0.21475 0.5138 0.23678 0.0
H336 H 0.21589 0.49932 0.26015 0.0
H337 H 0.19163 0.4338 0.16321 0.0
O338 O 0.37322 0.51003 0.18021 0.0
C339 C 0.29335 0.4466 0.13082 0.0
Co340 Co 0.71152 0.97287 0.57726 0.0
Co341 Co 0.78268 0.93839 0.58374 0.0
C342 C 0.77195 0.00525 0.54837 0.0
O343 O 0.74083 0.0061 0.55456 0.0
O344 O 0.78942 0.98044 0.55748 0.0
C345 C 0.65595 0.01592 0.56276 0.0
O346 O 0.67131 0.01955 0.53418 0.0
C347 C 0.8486 0.94728 0.60862 0.0
C348 C 0.8725 0.89783 0.60598 0.0
C349 C 0.87765 0.93071 0.6158 0.0
N350 N 0.82675 0.92547 0.59537 0.0
N351 N 0.84118 0.89586 0.59353 0.0
C352 C 0.84144 0.98341 0.61526 0.0
H353 H 0.85204 -0.00137 0.59482 0.0
H354 H 0.81422 0.98786 0.61665 0.0
H355 H 0.85339 0.99178 0.63876 0.0
C356 C 0.71871 0.97117 0.6506 0.0
N357 N 0.72965 0.96361 0.61988 0.0
N358 N 0.75813 0.94757 0.62243 0.0
C359 C 0.76512 0.94296 0.65474 0.0
C360 C 0.74083 0.95823 0.67359 0.0
C361 C 0.68955 0.99322 0.65762 0.0
H362 H 0.66637 0.98011 0.6498 0.0
H363 H 0.6918 0.01649 0.64286 0.0
H364 H 0.68772 -0.0004 0.68441 0.0
O365 O 0.70898 0.92962 0.551 0.0
O366 O 0.75589 0.90446 0.55953 0.0
H367 H 0.80222 0.90449 0.65154 0.0
H368 H 0.79031 0.91586 0.69335 0.0
C369 C 0.79521 0.92554 0.668 0.0
H370 H 0.81621 0.94357 0.66977 0.0
H371 H 0.82958 0.87435 0.58428 0.0
O372 O 0.66739 0.99492 0.58346 0.0
C373 C 0.73535 0.9166 0.53886 0.0
Co374 Co 0.25129 0.55378 0.64694 0.0
Co375 Co 0.32459 0.58326 0.65959 0.0
C376 C 0.2668 0.62751 0.64089 0.0
O377 O 0.24623 0.60306 0.63879 0.0
O378 O 0.2972 0.62286 0.64885 0.0
C379 C 0.18058 0.54189 0.6351 0.0
O380 O 0.18147 0.56974 0.61798 0.0
C381 C 0.37057 0.62343 0.69809 0.0
C382 C 0.41834 0.59674 0.69274 0.0
C383 C 0.4031 0.62283 0.70949 0.0
N384 N 0.36654 0.59869 0.67583 0.0
N385 N 0.39539 0.58332 0.67201 0.0
C386 C 0.34245 0.64367 0.71194 0.0
H387 H 0.31847 0.6299 0.7094 0.0
H388 H 0.34676 0.6499 0.7385 0.0
H389 H 0.3407 0.66738 0.6979 0.0
C390 C 0.26025 0.53131 0.71523 0.0
N391 N 0.27105 0.54818 0.68852 0.0
N392 N 0.30225 0.5578 0.69321 0.0
C393 C 0.31217 0.54723 0.72339 0.0
C394 C 0.28586 0.5303 0.73809 0.0
C395 C 0.22723 0.51376 0.7173 0.0
H396 H 0.22586 0.49453 0.69742 0.0
H397 H 0.2069 0.53198 0.71321 0.0
H398 H 0.22356 0.50121 0.74154 0.0
O399 O 0.28322 0.53149 0.61779 0.0
O400 O 0.33044 0.55755 0.61783 0.0
H401 H 0.35012 0.53917 0.76114 0.0
H402 H 0.34766 0.58063 0.74533 0.0
C403 C 0.34578 0.55391 0.73835 0.0
H404 H 0.3655 0.54797 0.72007 0.0
H405 H 0.39881 0.56227 0.65702 0.0
O406 O 0.20758 0.53057 0.64697 0.0
C407 C 0.30355 0.55032 0.6027 0.0
Co408 Co 0.31295 0.4909 0.96717 0.0
Co409 Co 0.24363 0.455 0.95805 0.0
C410 C 0.25336 0.5195 -0.00175 0.0
O411 O 0.28414 0.52295 0.99119 0.0
O412 O 0.23666 0.49468 0.98722 0.0
C413 C 0.37151 0.52998 0.98424 0.0
O414 O 0.35532 0.53656 0.01185 0.0
C415 C 0.17852 0.46325 0.93119 0.0
C416 C 0.15826 0.41212 0.92538 0.0
C417 C 0.15164 0.44545 0.91909 0.0
N418 N 0.2003 0.44173 0.94429 0.0
N419 N 0.18789 0.41114 0.94138 0.0
C420 C 0.18551 0.49968 0.9257 0.0
H421 H 0.21215 0.50576 0.93004 0.0
H422 H 0.1787 0.5068 0.89996 0.0
H423 H 0.1698 0.51467 0.94275 0.0
C424 C 0.30897 0.49111 0.89449 0.0
N425 N 0.29698 0.48226 0.92435 0.0
N426 N 0.26923 0.46508 0.9203 0.0
C427 C 0.26336 0.46144 0.88756 0.0
C428 C 0.2881 0.47804 0.87036 0.0
C429 C 0.3379 0.51432 0.88939 0.0
H430 H 0.36127 0.50038 0.8938 0.0
H431 H 0.33675 0.53528 0.90748 0.0
H432 H 0.33847 0.52441 0.86376 0.0
O433 O 0.31309 0.44963 0.99347 0.0
O434 O 0.26581 0.42149 0.9849 0.0
H435 H 0.22733 0.42146 0.88759 0.0
H436 H 0.24015 0.4351 0.8468 0.0
C437 C 0.2342 0.44347 0.87244 0.0
H438 H 0.21274 0.46068 0.87091 0.0
H439 H 0.20037 0.38956 0.94866 0.0
O440 O 0.35851 0.50996 0.96329 0.0
C441 C 0.29398 0.42466 -0.00074 0.0
Co442 Co 0.74865 0.00054 0.40057 0.0
Co443 Co 0.82226 0.97394 0.38809 0.0
C444 C 0.7656 0.92695 0.40466 0.0
O445 O 0.74469 0.95079 0.40746 0.0
O446 O 0.79594 0.93271 0.39693 0.0
C447 C 0.67855 0.01006 0.4148 0.0
O448 O 0.68053 0.98166 0.4309 0.0
C449 C 0.87019 0.93744 0.34923 0.0
C450 C 0.91656 0.96689 0.35576 0.0
C451 C 0.9027 0.94044 0.33808 0.0
N452 N 0.86487 0.96122 0.37214 0.0
N453 N 0.8929 0.97821 0.3767 0.0
C454 C 0.84302 0.91611 0.33453 0.0
H455 H 0.84155 0.89229 0.34847 0.0
H456 H 0.81862 0.92887 0.33657 0.0
H457 H 0.84804 0.91022 0.30805 0.0
C458 C 0.75662 0.0245 0.33279 0.0
N459 N 0.76786 0.00759 0.3592 0.0
N460 N 0.79947 -0.0003 0.35476 0.0
C461 C 0.80923 0.01151 0.32493 0.0
C462 C 0.78247 0.02763 0.31038 0.0
C463 C 0.72274 0.03988 0.33062 0.0
H464 H 0.72074 0.05973 0.34981 0.0
H465 H 0.70339 0.02065 0.33582 0.0
H466 H 0.71804 0.05118 0.30598 0.0
O467 O 0.78075 0.02368 0.42905 0.0
O468 O 0.82724 0.99745 0.43143 0.0
H469 H 0.86257 0.01314 0.32811 0.0
H470 H 0.84666 0.02106 0.28697 0.0
C471 C 0.84296 0.0063 0.30989 0.0
H472 H 0.84566 0.97967 0.30298 0.0
H473 H 0.89517 -0.00098 0.39229 0.0
O474 O 0.70475 0.02244 0.40199 0.0
C475 C 0.79989 0.00492 0.4453 0.0
Co476 Co 0.22385 0.57885 0.46631 0.0
Co477 Co 0.2946 0.61491 0.45851 0.0
C478 C 0.28459 0.54966 0.49683 0.0
O479 O 0.25349 0.54739 0.49078 0.0
O480 O 0.30141 0.57445 0.48627 0.0
C481 C 0.16885 0.53499 0.48255 0.0
O482 O 0.18513 0.53181 0.51068 0.0
C483 C 0.3593 0.60428 0.43153 0.0
C484 C 0.38826 0.65011 0.44216 0.0
C485 C 0.39045 0.61848 0.42812 0.0
N486 N 0.33906 0.62643 0.44628 0.0
N487 N 0.35645 0.65393 0.45266 0.0
C488 C 0.34981 0.5689 0.4233 0.0
H489 H 0.32268 0.56459 0.42627 0.0
H490 H 0.35712 0.56284 0.3974 0.0
H491 H 0.3636 0.55173 0.4399 0.0
C492 C 0.23018 0.57919 0.3928 0.0
N493 N 0.24156 0.58709 0.42333 0.0
N494 N 0.26937 0.6045 0.42029 0.0
C495 C 0.27552 0.60952 0.38785 0.0
C496 C 0.25122 0.59339 0.36939 0.0
C497 C 0.20126 0.55632 0.38626 0.0
H498 H 0.17797 0.56901 0.39394 0.0
H499 H 0.20383 0.53337 0.40143 0.0
H500 H 0.19939 0.54948 0.35957 0.0
O501 O 0.22141 0.62365 0.48964 0.0
O502 O 0.26902 0.64901 0.48342 0.0
H503 H 0.31273 0.6484 0.39153 0.0
H504 H 0.29826 0.63956 0.34982 0.0
C505 C 0.30476 0.62835 0.37414 0.0
H506 H 0.32571 0.6109 0.36988 0.0
H507 H 0.34693 0.67484 0.46485 0.0
O508 O 0.17968 0.55583 0.46125 0.0
C509 C 0.24723 0.63692 0.50305 0.0
Co510 Co 0.81597 0.06037 0.87368 0.0
Co511 Co 0.74344 0.08877 0.86519 0.0
C512 C 0.80653 0.13014 0.8547 0.0
O513 O 0.82688 0.10611 0.85813 0.0
O514 O 0.77531 0.12524 0.85686 0.0
C515 C 0.88609 0.04751 0.88152 0.0
O516 O 0.88673 0.07792 0.894 0.0
C517 C 0.69802 0.12047 0.82071 0.0
C518 C 0.64916 0.11852 0.84589 0.0
C519 C 0.66507 0.12914 0.81726 0.0
N520 N 0.70187 0.1051 0.84995 0.0
N521 N 0.67258 0.10396 0.86506 0.0
C522 C 0.72527 0.12581 0.79584 0.0
H523 H 0.73393 0.15214 0.79718 0.0
H524 H 0.74659 0.10899 0.80075 0.0
H525 H 0.71568 0.12132 0.77031 0.0
C526 C 0.78958 0.01288 0.82386 0.0
N527 N 0.78524 0.03811 0.84556 0.0
N528 N 0.75451 0.049 0.84301 0.0
C529 C 0.73814 0.03052 0.82011 0.0
C530 C 0.76002 0.0075 0.8067 0.0
C531 C 0.82215 0.99585 0.81795 0.0
H532 H 0.82935 0.98261 0.84095 0.0
H533 H 0.84173 0.01474 0.81237 0.0
H534 H 0.82051 0.9774 0.79733 0.0
O535 O 0.79778 0.06778 0.91871 0.0
O536 O 0.74498 0.08397 0.91316 0.0
H537 H 0.68758 0.04545 0.82929 0.0
H538 H 0.69199 0.0144 0.79719 0.0
C539 C 0.70338 0.03714 0.80832 0.0
H540 H 0.704 0.05678 0.78901 0.0
H541 H 0.66862 0.09334 0.88835 0.0
O542 O 0.85808 0.03455 0.87395 0.0
C543 C 0.77033 0.07794 0.9312 0.0
Co544 Co 0.13504 0.77879 0.01082 0.0
Co545 Co 0.15022 0.717 0.05546 0.0
C546 C 0.0994 0.71564 -0.00114 0.0
O547 O 0.10532 0.74535 0.98916 0.0
O548 O 0.11495 0.70348 0.02349 0.0
C549 C 0.11109 0.83215 0.96915 0.0
O550 O 0.08167 0.81782 0.97211 0.0
C551 C 0.17433 0.65004 0.05277 0.0
C552 C 0.18972 0.63797 0.10393 0.0
C553 C 0.18907 0.62564 0.07171 0.0
N554 N 0.16618 0.67575 0.07262 0.0
N555 N 0.17502 0.66831 0.10336 0.0
C556 C 0.17249 0.65063 0.01558 0.0
H557 H 0.15114 0.63501 0.00719 0.0
H558 H 0.16938 0.67644 0.00627 0.0
H559 H 0.19542 0.63977 0.00462 0.0
C560 C 0.207 0.77262 -0.00337 0.0
N561 N 0.17933 0.7635 0.01339 0.0
N562 N 0.18651 0.73885 0.03357 0.0
C563 C 0.21937 0.73195 0.03065 0.0
C564 C 0.23331 0.75299 0.00707 0.0
C565 C 0.20749 0.79763 0.9691 0.0
H566 H 0.20604 0.82306 0.98 0.0
H567 H 0.18549 0.79378 0.95276 0.0
H568 H 0.23058 0.79584 0.95404 0.0
O569 O 0.11636 0.78856 0.05495 0.0
O570 O 0.12714 0.74601 0.08872 0.0
H571 H 0.22679 0.70334 0.07505 0.0
H572 H 0.26444 0.71234 0.05198 0.0
C573 C 0.23756 0.70583 0.04985 0.0
H574 H 0.2356 0.68154 0.03663 0.0
H575 H 0.17244 0.68446 0.12362 0.0
O576 O 0.13576 0.82004 0.9846 0.0
C577 C 0.11412 0.77456 0.08322 0.0
Co578 Co 0.63844 0.79223 0.02108 0.0
Co579 Co 0.65179 0.86028 0.9845 0.0
C580 C 0.60128 0.85373 0.03972 0.0
O581 O 0.6079 0.82309 0.04449 0.0
O582 O 0.61665 0.87046 0.01764 0.0
C583 C 0.61486 0.7422 0.06518 0.0
O584 O 0.5857 0.75603 0.06017 0.0
C585 C 0.67253 0.92943 0.9882 0.0
C586 C 0.69445 0.93977 0.93901 0.0
C587 C 0.68986 0.9534 0.97039 0.0
N588 N 0.66716 0.90273 0.96849 0.0
N589 N 0.6797 0.9093 0.93883 0.0
C590 C 0.66588 0.92977 0.02485 0.0
H591 H 0.6674 0.90414 0.03508 0.0
H592 H 0.68393 0.94609 0.03824 0.0
H593 H 0.64043 0.93952 0.02928 0.0
C594 C 0.70997 0.799 0.03597 0.0
N595 N 0.68228 0.80938 0.02021 0.0
N596 N 0.68869 0.83753 0.00467 0.0
C597 C 0.72111 0.84577 0.00997 0.0
C598 C 0.7355 0.82169 0.03015 0.0
C599 C 0.71161 0.76849 0.05728 0.0
H600 H 0.70232 0.74655 0.04304 0.0
H601 H 0.69534 0.77193 0.07928 0.0
H602 H 0.73744 0.76339 0.06569 0.0
O603 O 0.62028 0.78511 0.97664 0.0
O604 O 0.62823 0.83292 0.9495 0.0
H605 H 0.73104 0.88252 0.97263 0.0
H606 H 0.76469 0.87715 0.00173 0.0
C607 C 0.73723 0.87771 -0.00104 0.0
H608 H 0.72798 0.89858 0.01447 0.0
H609 H 0.68006 0.89224 0.91915 0.0
O610 O 0.63895 0.75028 0.04643 0.0
C611 C 0.61649 0.80314 0.95094 0.0
Co612 Co 0.40979 0.18658 0.35419 0.0
Co613 Co 0.39416 0.21059 0.28342 0.0
C614 C 0.34086 0.20034 0.33712 0.0
O615 O 0.36119 0.19382 0.36045 0.0
O616 O 0.35153 0.20589 0.30798 0.0
C617 C 0.41487 0.15807 0.41896 0.0
O618 O 0.38664 0.14308 0.41122 0.0
C619 C 0.36712 0.26762 0.25446 0.0
C620 C 0.38317 0.26729 0.20202 0.0
C621 C 0.3672 0.28634 0.22602 0.0
N622 N 0.38237 0.23861 0.24806 0.0
N623 N 0.39149 0.23808 0.2165 0.0
C624 C 0.35791 0.27985 0.28856 0.0
H625 H 0.33057 0.27745 0.29193 0.0
H626 H 0.37061 0.26548 0.30819 0.0
H627 H 0.36455 0.30668 0.29156 0.0
C628 C 0.45167 0.24911 0.3538 0.0
N629 N 0.43196 0.22582 0.33905 0.0
N630 N 0.42789 0.23377 0.30775 0.0
C631 C 0.44585 0.26167 0.30128 0.0
C632 C 0.46104 0.27271 0.33023 0.0
C633 C 0.45947 0.24984 0.39012 0.0
H634 H 0.47795 0.2301 0.39562 0.0
H635 H 0.43658 0.24422 0.40461 0.0
H636 H 0.46994 0.27443 0.39785 0.0
O637 O 0.4154 0.14816 0.32289 0.0
O638 O 0.40771 0.16519 0.27092 0.0
H639 H 0.44627 0.25939 0.24793 0.0
H640 H 0.47306 0.29121 0.26578 0.0
C641 C 0.44866 0.27814 0.26811 0.0
H642 H 0.4289 0.2972 0.26569 0.0
H643 H 0.40513 0.21887 0.2055 0.0
O644 O 0.42953 0.17563 0.39721 0.0
C645 C 0.41402 0.14212 0.29171 0.0
Co646 Co 0.89841 0.26017 0.50091 0.0
Co647 Co 0.88095 0.19565 0.45976 0.0
C648 C 0.9297 0.19815 0.51835 0.0
O649 O 0.92453 0.22814 0.52739 0.0
O650 O 0.91435 0.18565 0.49369 0.0
C651 C 0.92934 0.31846 0.52691 0.0
O652 O 0.95648 0.30485 0.51475 0.0
C653 C 0.85272 0.1324 0.47691 0.0
C654 C 0.83765 0.108 0.43007 0.0
C655 C 0.83699 0.10441 0.46434 0.0
N656 N 0.8626 0.15193 0.45156 0.0
N657 N 0.85382 0.13704 0.42345 0.0
C658 C 0.85486 0.142 0.5129 0.0
H659 H 0.85642 0.16948 0.51598 0.0
H660 H 0.83288 0.13243 0.52675 0.0
H661 H 0.87745 0.13062 0.52387 0.0
C662 C 0.82574 0.25929 0.51122 0.0
N663 N 0.85348 0.24792 0.49624 0.0
N664 N 0.84569 0.22274 0.47664 0.0
C665 C 0.81237 0.21776 0.47808 0.0
C666 C 0.79869 0.24047 0.50026 0.0
C667 C 0.82595 0.28514 0.53822 0.0
H668 H 0.83151 0.30993 0.52719 0.0
H669 H 0.84607 0.27956 0.55628 0.0
H670 H 0.80162 0.28632 0.5513 0.0
O671 O 0.9211 0.26231 0.45802 0.0
O672 O 0.90985 0.21839 0.42542 0.0
H673 H 0.76759 0.1983 0.45553 0.0
H674 H 0.7931 0.16792 0.47572 0.0
C675 C 0.79376 0.19066 0.46014 0.0
H676 H 0.80608 0.18486 0.43618 0.0
H677 H 0.85763 0.14722 0.39991 0.0
O678 O 0.90147 0.30389 0.52253 0.0
C679 C 0.92531 0.24603 0.43113 0.0
Co680 Co 0.16931 0.8558 0.78128 0.0
Co681 Co 0.18976 0.83302 0.70968 0.0
C682 C 0.23985 0.84669 0.76564 0.0
O683 O 0.2176 0.85241 0.78739 0.0
O684 O 0.2319 0.83977 0.73573 0.0
C685 C 0.15759 0.88429 0.847 0.0
O686 O 0.18481 0.90218 0.84262 0.0
C687 C 0.22097 0.77994 0.67292 0.0
C688 C 0.20095 0.78416 0.62207 0.0
C689 C 0.22053 0.76424 0.64226 0.0
N690 N 0.20258 0.80784 0.6712 0.0
N691 N 0.19113 0.81064 0.64053 0.0
C692 C 0.23393 0.7655 0.70469 0.0
H693 H 0.26132 0.76923 0.70587 0.0
H694 H 0.22222 0.77754 0.72655 0.0
H695 H 0.22903 0.73818 0.70554 0.0
C696 C 0.12949 0.79398 0.77787 0.0
N697 N 0.15085 0.81605 0.76421 0.0
N698 N 0.15789 0.80667 0.7337 0.0
C699 C 0.14059 0.77831 0.72681 0.0
C700 C 0.12219 0.76939 0.75466 0.0
C701 C 0.11556 0.7971 0.81223 0.0
H702 H 0.10052 0.82022 0.8138 0.0
H703 H 0.1363 0.79927 0.83039 0.0
H704 H 0.09935 0.77558 0.81885 0.0
O705 O 0.16021 0.893 0.75172 0.0
O706 O 0.17097 0.87842 0.69944 0.0
H707 H 0.14277 0.77655 0.67358 0.0
H708 H 0.12179 0.74116 0.69196 0.0
C709 C 0.14272 0.75912 0.69487 0.0
H710 H 0.16605 0.74447 0.69459 0.0
H711 H 0.17504 0.82946 0.63272 0.0
O712 O 0.14772 0.86474 0.82409 0.0
C713 C 0.16122 0.8999 0.72093 0.0
Co714 Co 0.40567 0.29909 0.55217 0.0
Co715 Co 0.38751 0.36259 0.59409 0.0
C716 C 0.43994 0.36078 0.5385 0.0
O717 O 0.4346 0.3312 0.52792 0.0
O718 O 0.42345 0.37237 0.5627 0.0
C719 C 0.43237 0.23493 0.53334 0.0
O720 O 0.45938 0.24381 0.54971 0.0
C721 C 0.35944 0.42471 0.57495 0.0
C722 C 0.34838 0.45271 0.62078 0.0
C723 C 0.34587 0.454 0.58643 0.0
N724 N 0.36967 0.4064 0.60094 0.0
N725 N 0.3632 0.42338 0.62849 0.0
C726 C 0.36057 0.41374 0.53932 0.0
H727 H 0.37823 0.43002 0.52553 0.0
H728 H 0.36833 0.3874 0.53675 0.0
H729 H 0.33562 0.41681 0.52778 0.0
C730 C 0.3332 0.29964 0.53986 0.0
N731 N 0.36085 0.31168 0.55481 0.0
N732 N 0.3527 0.33634 0.57477 0.0
C733 C 0.31935 0.34062 0.57329 0.0
C734 C 0.30598 0.31761 0.55111 0.0
C735 C 0.33333 0.27288 0.51379 0.0
H736 H 0.33712 0.24834 0.52592 0.0
H737 H 0.35441 0.27708 0.49642 0.0
H738 H 0.30948 0.27209 0.49977 0.0
O739 O 0.42466 0.29599 0.59655 0.0
O740 O 0.41266 0.33867 0.63025 0.0
H741 H 0.31344 0.37341 0.61534 0.0
H742 H 0.27483 0.35746 0.59776 0.0
C743 C 0.30035 0.36668 0.59197 0.0
H744 H 0.29782 0.38925 0.57631 0.0
H745 H 0.3682 0.41478 0.6523 0.0
O746 O 0.40791 0.25483 0.53155 0.0
C747 C 0.4271 0.3107 0.62452 0.0
Co748 Co 0.90741 0.35559 0.71291 0.0
Co749 Co 0.88706 0.33555 0.78447 0.0
C750 C 0.8374 0.34272 0.72716 0.0
O751 O 0.85956 0.34804 0.70524 0.0
O752 O 0.84546 0.33862 0.75744 0.0
C753 C 0.91633 0.38453 0.6491 0.0
O754 O 0.89014 0.40231 0.65738 0.0
C755 C 0.85602 0.28262 0.81929 0.0
C756 C 0.87495 0.28598 0.8707 0.0
C757 C 0.8561 0.26628 0.84929 0.0
N758 N 0.87396 0.31084 0.82241 0.0
N759 N 0.88482 0.31318 0.85338 0.0
C760 C 0.84349 0.26893 0.7868 0.0
H761 H 0.86012 0.27664 0.7662 0.0
H762 H 0.84179 0.24124 0.78718 0.0
H763 H 0.81821 0.27895 0.782 0.0
C764 C 0.94749 0.29397 0.7183 0.0
N765 N 0.9276 0.31766 0.73143 0.0
N766 N 0.92082 0.31017 0.76243 0.0
C767 C 0.93705 0.28174 0.77024 0.0
C768 C 0.95406 0.27036 0.74251 0.0
C769 C 0.95738 0.29253 0.68249 0.0
H770 H 0.97587 0.31264 0.67755 0.0
H771 H 0.93526 0.29713 0.6666 0.0
H772 H 0.96853 0.26807 0.67588 0.0
O773 O 0.91223 0.39533 0.74149 0.0
O774 O 0.90148 0.38231 0.79406 0.0
H775 H 0.93583 0.28403 0.82348 0.0
H776 H 0.95866 0.24906 0.80671 0.0
C777 C 0.93637 0.26505 0.80341 0.0
H778 H 0.914 0.24876 0.80513 0.0
H779 H 0.90065 0.33209 0.86207 0.0
O780 O 0.92846 0.3644 0.67007 0.0
C781 C 0.90925 0.40372 0.77189 0.0
Co782 Co 0.67335 0.69554 0.2595 0.0
Co783 Co 0.696 0.72023 0.33027 0.0
C784 C 0.74517 0.71042 0.27481 0.0
O785 O 0.72198 0.70204 0.25497 0.0
O786 O 0.73871 0.71771 0.30487 0.0
C787 C 0.66665 0.71476 0.19584 0.0
O788 O 0.68679 0.73698 0.20936 0.0
C789 C 0.72621 0.77242 0.37038 0.0
C790 C 0.70083 0.76859 0.4188 0.0
C791 C 0.72288 0.78832 0.40082 0.0
N792 N 0.70694 0.74475 0.37011 0.0
N793 N 0.69239 0.74214 0.39946 0.0
C794 C 0.74275 0.78658 0.34009 0.0
H795 H 0.76905 0.77824 0.33946 0.0
H796 H 0.7299 0.77797 0.3172 0.0
H797 H 0.7427 0.81431 0.34056 0.0
C798 C 0.62616 0.75176 0.26742 0.0
N799 N 0.65161 0.73294 0.27852 0.0
N800 N 0.66253 0.74532 0.30687 0.0
C801 C 0.64511 0.77347 0.31378 0.0
C802 C 0.62164 0.77837 0.28887 0.0
C803 C 0.60413 0.74313 0.23856 0.0
H804 H 0.60361 0.71578 0.23419 0.0
H805 H 0.61333 0.75605 0.2161 0.0
H806 H 0.57831 0.7519 0.24317 0.0
O807 O 0.66546 0.65637 0.28712 0.0
O808 O 0.67917 0.67252 0.33856 0.0
H809 H 0.65019 0.78251 0.366 0.0
H810 H 0.63459 0.81785 0.34333 0.0
C811 C 0.652 0.79652 0.34241 0.0
H812 H 0.67738 0.80709 0.33995 0.0
H813 H 0.67493 0.72367 0.4055 0.0
O814 O 0.65689 0.69022 0.21337 0.0
C815 C 0.66876 0.65014 0.31797 0.0
C816 C 0.12758 0.98695 0.73137 0.0
C817 C 0.11083 0.9924 0.70136 0.0
C818 C 0.14643 0.95816 0.73613 0.0
C819 C 0.1487 0.93326 0.71131 0.0
H820 H 0.12444 0.00408 0.75205 0.0
H821 H 0.15756 0.95447 0.76037 0.0
S822 S 0.11304 0.93799 0.62652 0.0
N823 N 0.10078 0.97279 0.64492 0.0
N824 N 0.13583 0.918 0.65419 0.0
C825 C 0.13456 0.93982 0.6801 0.0
C826 C 0.11563 0.96957 0.67507 0.0
C827 C 0.58414 0.75673 0.92513 0.0
C828 C 0.59134 0.79119 0.92657 0.0
C829 C 0.55361 0.74487 0.9129 0.0
C830 C 0.52904 0.76693 0.90135 0.0
H831 H 0.60118 0.73888 0.93594 0.0
H832 H 0.54866 0.71825 0.91412 0.0
S833 S 0.53807 0.85906 0.89383 0.0
N834 N 0.57335 0.84693 0.91103 0.0
N835 N 0.516 0.82462 0.88756 0.0
C836 C 0.53731 0.80117 0.89931 0.0
C837 C 0.56853 0.81329 0.91191 0.0
C838 C 0.42399 0.08189 0.30377 0.0
C839 C 0.42033 0.10746 0.28011 0.0
C840 C 0.43523 0.05019 0.2946 0.0
C841 C 0.44303 0.04272 0.26143 0.0
H842 H 0.42007 0.08681 0.32995 0.0
H843 H 0.44067 0.03234 0.31401 0.0
S844 S 0.43196 0.09846 0.18901 0.0
N845 N 0.42076 0.12143 0.22126 0.0
N846 N 0.44209 0.0616 0.20418 0.0
C847 C 0.436 0.06667 0.23702 0.0
C848 C 0.42471 0.09919 0.24634 0.0
C849 C 0.96305 0.29047 0.41062 0.0
C850 C 0.95539 0.25611 0.41225 0.0
C851 C 0.99609 0.30188 0.40809 0.0
C852 C 0.02297 0.27943 0.40683 0.0
H853 H 0.94359 0.30876 0.41447 0.0
H854 H 0.0006 0.3286 0.40877 0.0
S855 S 0.01592 0.18678 0.40509 0.0
N856 N 0.97703 0.19969 0.40862 0.0
N857 N 0.03916 0.22094 0.40315 0.0
C858 C 0.0154 0.24496 0.40507 0.0
C859 C 0.98161 0.23336 0.40777 0.0
C860 C 0.62767 0.58149 0.36901 0.0
C861 C 0.62402 0.55564 0.34535 0.0
C862 C 0.64452 0.61143 0.36111 0.0
C863 C 0.65827 0.61632 0.32932 0.0
H864 H 0.61507 0.57974 0.39275 0.0
H865 H 0.64461 0.63164 0.37909 0.0
S866 S 0.66157 0.55313 0.26141 0.0
N867 N 0.63963 0.53486 0.29096 0.0
N868 N 0.672 0.59029 0.27625 0.0
C869 C 0.65766 0.58916 0.30683 0.0
C870 C 0.64032 0.55903 0.31479 0.0
C871 C 0.48244 0.31872 0.65049 0.0
C872 C 0.45438 0.29805 0.64551 0.0
C873 C 0.51456 0.30504 0.65336 0.0
C874 C 0.5197 0.27022 0.65119 0.0
H875 H 0.48015 0.3456 0.64838 0.0
H876 H 0.53565 0.32204 0.65481 0.0
S877 S 0.4532 0.2054 0.64589 0.0
N878 N 0.43302 0.24121 0.64432 0.0
N879 N 0.49304 0.21539 0.64978 0.0
C880 C 0.49135 0.24931 0.65008 0.0
C881 C 0.45877 0.26327 0.64749 0.0
C882 C 0.92626 0.44793 0.81312 0.0
C883 C 0.91596 0.43908 0.78084 0.0
C884 C 0.93928 0.47993 0.81984 0.0
C885 C 0.94237 0.50381 0.79445 0.0
H886 H 0.92668 0.42939 0.83264 0.0
H887 H 0.95005 0.48475 0.8441 0.0
S888 S 0.91168 0.49584 0.7081 0.0
N889 N 0.90374 0.45913 0.72501 0.0
N890 N 0.92921 0.51862 0.7377 0.0
C891 C 0.92877 0.49651 0.76324 0.0
C892 C 0.91532 0.46423 0.75639 0.0
C893 C 0.06754 0.76783 0.12371 0.0
C894 C 0.08984 0.78901 0.10681 0.0
C895 C 0.03771 0.78019 0.13712 0.0
C896 C 0.02915 0.81419 0.13416 0.0
H897 H 0.07174 0.74111 0.12422 0.0
H898 H 0.02043 0.76253 0.14814 0.0
S899 S 0.08283 0.88097 0.09835 0.0
N900 N 0.104 0.84622 0.09232 0.0
N901 N 0.04831 0.86963 0.1177 0.0
C902 C 0.0529 0.83609 0.12017 0.0
C903 C 0.08316 0.82346 0.10651 0.0
C904 C 0.80625 0.11486 0.00959 0.0
C905 C 0.77901 0.13147 0.02407 0.0
C906 C 0.80237 0.09519 0.98121 0.0
C907 C 0.77131 0.09214 0.96515 0.0
H908 H 0.83088 0.11647 0.0206 0.0
H909 H 0.82441 0.08327 0.97123 0.0
S910 S 0.69204 0.13161 0.99199 0.0
N911 N 0.71985 0.14449 0.01952 0.0
N912 N 0.71257 0.10743 0.96587 0.0
C913 C 0.74379 0.10893 0.97902 0.0
C914 C 0.74774 0.12904 0.00815 0.0
C915 C 0.32805 0.41665 0.04902 0.0
C916 C 0.29863 0.40836 0.0317 0.0
C917 C 0.32637 0.42793 0.08182 0.0
C918 C 0.29565 0.42891 0.0987 0.0
H919 H 0.35124 0.42032 0.03566 0.0
H920 H 0.34885 0.43804 0.09304 0.0
S921 S 0.21623 0.3905 0.06961 0.0
N922 N 0.24156 0.38806 0.03739 0.0
N923 N 0.23826 0.40824 0.0996 0.0
C924 C 0.26807 0.41259 0.08409 0.0
C925 C 0.2699 0.40147 0.05055 0.0
C926 C 0.73301 0.96005 0.49459 0.0
C927 C 0.75066 0.93439 0.51039 0.0
C928 C 0.74924 0.98242 0.47354 0.0
C929 C 0.78339 0.97915 0.46598 0.0
H930 H 0.70703 0.96455 0.50032 0.0
H931 H 0.73501 0.00318 0.46405 0.0
S932 S 0.83904 0.91144 0.49493 0.0
N933 N 0.80286 0.90352 0.51285 0.0
N934 N 0.83328 0.94548 0.47272 0.0
C935 C 0.80061 0.9517 0.47912 0.0
C936 C 0.78413 0.92904 0.50098 0.0
C937 C 0.24098 0.59523 0.54867 0.0
C938 C 0.26051 0.61972 0.53281 0.0
C939 C 0.25507 0.57336 0.57153 0.0
C940 C 0.2889 0.576 0.58077 0.0
H941 H 0.21511 0.59133 0.54181 0.0
H942 H 0.2394 0.55355 0.58122 0.0
S943 S 0.34897 0.64061 0.55196 0.0
N944 N 0.31415 0.64879 0.53179 0.0
N945 N 0.34049 0.60791 0.57537 0.0
C946 C 0.30793 0.6024 0.56751 0.0
C947 C 0.29365 0.62449 0.54379 0.0
C948 C 0.9568 0.14302 0.52663 0.0
C949 C 0.95556 0.17743 0.53433 0.0
C950 C 0.98156 0.12255 0.53968 0.0
C951 C 0.00633 0.13569 0.56056 0.0
H952 H 0.93826 0.13152 0.5106 0.0
H953 H 0.9808 0.09601 0.53416 0.0
S954 S 0.01556 0.22384 0.58788 0.0
N955 N 0.98215 0.22376 0.56383 0.0
N956 N 0.02903 0.18489 0.58819 0.0
C957 C 0.00617 0.17001 0.56796 0.0
C958 C 0.98063 0.19097 0.55497 0.0
C959 C 0.31715 0.85531 0.81962 0.0
C960 C 0.34225 0.84182 0.79946 0.0
C961 C 0.28432 0.85778 0.80804 0.0
C962 C 0.27548 0.84705 0.77577 0.0
H963 H 0.32251 0.86222 0.84514 0.0
H964 H 0.26558 0.86723 0.82496 0.0
S965 S 0.3337 0.81332 0.71228 0.0
N966 N 0.35728 0.8199 0.74533 0.0
N967 N 0.29581 0.82527 0.7229 0.0
C968 C 0.30107 0.83542 0.75473 0.0
C969 C 0.3344 0.83259 0.76676 0.0
C970 C 0.56861 0.9047 0.0549 0.0
C971 C 0.57488 0.87039 0.05963 0.0
C972 C 0.54504 0.92164 0.07417 0.0
C973 C 0.52632 0.90481 0.09833 0.0
H974 H 0.58254 0.91893 0.03673 0.0
H975 H 0.54219 0.94835 0.0709 0.0
S976 S 0.53192 0.81537 0.12053 0.0
N977 N 0.55941 0.82024 0.09039 0.0
N978 N 0.51484 0.85241 0.12615 0.0
C979 C 0.53132 0.87052 0.10279 0.0
C980 C 0.55565 0.85321 0.08352 0.0
C981 C 0.25693 0.19603 0.38165 0.0
C982 C 0.23464 0.20782 0.35749 0.0
C983 C 0.2912 0.19333 0.37485 0.0
C984 C 0.30429 0.20204 0.34354 0.0
H985 H 0.24801 0.19015 0.40635 0.0
H986 H 0.30756 0.18483 0.39446 0.0
S987 S 0.25504 0.23217 0.27125 0.0
N988 N 0.22722 0.22688 0.30097 0.0
N989 N 0.29114 0.2213 0.28756 0.0
C990 C 0.2817 0.21271 0.31883 0.0
C991 C 0.24701 0.21573 0.32597 0.0
C992 C 0.49281 0.3676 0.50565 0.0
C993 C 0.467 0.3819 0.52458 0.0
C994 C 0.51917 0.38731 0.49347 0.0
C995 C 0.52043 0.42187 0.49977 0.0
H996 H 0.49258 0.3411 0.50003 0.0
H997 H 0.53777 0.37576 0.47772 0.0
S998 S 0.46001 0.47166 0.54818 0.0
N999 N 0.44524 0.43311 0.5495 0.0
N1000 N 0.49467 0.46959 0.52623 0.0
C1001 C 0.49546 0.43633 0.5192 0.0
C1002 C 0.46873 0.4165 0.53164 0.0
C1003 C 0.77722 0.33592 0.74257 0.0
C1004 C 0.80153 0.34139 0.7178 0.0
C1005 C 0.74327 0.33356 0.73466 0.0
C1006 C 0.7323 0.33716 0.70185 0.0
H1007 H 0.7844 0.33286 0.76831 0.0
H1008 H 0.72551 0.32818 0.75424 0.0
S1009 S 0.78477 0.35127 0.62754 0.0
N1010 N 0.81158 0.35005 0.65868 0.0
N1011 N 0.74753 0.34598 0.64428 0.0
C1012 C 0.75589 0.34305 0.67685 0.0
C1013 C 0.79057 0.34514 0.68472 0.0
C1014 C 0.05484 0.70812 0.95541 0.0
C1015 C 0.07405 0.69462 0.98141 0.0
C1016 C 0.03199 0.68827 0.93755 0.0
C1017 C 0.02774 0.65426 0.94497 0.0
H1018 H 0.05792 0.73403 0.94827 0.0
H1019 H 0.01873 0.69918 0.91684 0.0
S1020 S 0.06971 0.60683 0.0115 0.0
N1021 N 0.08511 0.64506 0.0148 0.0
N1022 N 0.04304 0.60799 0.98028 0.0
C1023 C 0.0458 0.64062 0.97132 0.0
C1024 C 0.06871 0.66075 0.98982 0.0
C1025 C 0.83607 0.73743 0.26832 0.0
C1026 C 0.84485 0.72723 0.23611 0.0
C1027 C 0.80431 0.73047 0.28124 0.0
C1028 C 0.77988 0.71374 0.26209 0.0
H1029 H 0.85363 0.75161 0.28333 0.0
H1030 H 0.7986 0.7393 0.306 0.0
S1031 S 0.79154 0.68067 0.17644 0.0
N1032 N 0.82765 0.69841 0.18577 0.0
N1033 N 0.76774 0.68565 0.20952 0.0
C1034 C 0.78895 0.70245 0.2301 0.0
C1035 C 0.82148 0.70913 0.21724 0.0
C1036 C 0.61918 0.10049 0.18698 0.0
C1037 C 0.61778 0.09987 0.15216 0.0
C1038 C 0.60028 0.07791 0.20588 0.0
C1039 C 0.57922 0.05407 0.19054 0.0
H1040 H 0.63625 0.11739 0.19962 0.0
H1041 H 0.60274 0.07877 0.23267 0.0
S1042 S 0.56554 0.04444 0.09953 0.0
N1043 N 0.59317 0.07503 0.10289 0.0
N1044 N 0.55682 0.0331 0.13795 0.0
C1045 C 0.57668 0.0544 0.15554 0.0
C1046 C 0.59619 0.07717 0.13647 0.0
C1047 C 0.1555 0.41594 0.29698 0.0
C1048 C 0.16257 0.39818 0.26774 0.0
C1049 C 0.14448 0.39935 0.32551 0.0
C1050 C 0.14051 0.36433 0.32581 0.0
H1051 H 0.15921 0.44278 0.29799 0.0
H1052 H 0.14005 0.41402 0.34773 0.0
S1053 S 0.15432 0.3069 0.2544 0.0
N1054 N 0.16374 0.34433 0.2399 0.0
N1055 N 0.14291 0.31278 0.29338 0.0
C1056 C 0.14653 0.34648 0.29617 0.0
C1057 C 0.15752 0.36352 0.26711 0.0
C1058 C 0.93205 0.96035 0.61311 0.0
C1059 C 0.90693 0.94555 0.63233 0.0
C1060 C 0.95662 0.9806 0.62785 0.0
C1061 C 0.95677 0.98698 0.66237 0.0
H1062 H 0.93194 0.95731 0.58635 0.0
H1063 H 0.97523 0.99186 0.61185 0.0
S1064 S 0.8957 0.95338 0.72331 0.0
N1065 N 0.88339 0.93786 0.68722 0.0
N1066 N 0.92936 0.97596 0.71529 0.0
C1067 C 0.93198 0.9715 0.6819 0.0
C1068 C 0.90707 0.95081 0.66678 0.0
C1069 C 0.42259 0.69274 0.76959 0.0
C1070 C 0.42875 0.67571 0.79957 0.0
C1071 C 0.41583 0.67538 0.74008 0.0
C1072 C 0.41565 0.64037 0.73922 0.0
H1073 H 0.42208 0.71978 0.76893 0.0
H1074 H 0.40982 0.68942 0.71793 0.0
S1075 S 0.4312 0.58345 0.80981 0.0
N1076 N 0.43495 0.62132 0.82591 0.0
N1077 N 0.4228 0.58893 0.77005 0.0
C1078 C 0.42299 0.62286 0.76841 0.0
C1079 C 0.42945 0.64048 0.79869 0.0
C1080 C 0.10287 0.48207 0.91204 0.0
C1081 C 0.12547 0.45953 0.89799 0.0
C1082 C 0.08246 0.5017 0.89197 0.0
C1083 C 0.08444 0.50009 0.85701 0.0
H1084 H 0.10184 0.48538 0.93876 0.0
H1085 H 0.06561 0.51888 0.90414 0.0
S1086 S 0.14013 0.44433 0.80846 0.0
N1087 N 0.14869 0.43579 0.84763 0.0
N1088 N 0.11074 0.47307 0.80943 0.0
C1089 C 0.10663 0.47691 0.84272 0.0
C1090 C 0.12706 0.45655 0.86334 0.0
C1091 C 0.92347 0.87552 0.27346 0.0
C1092 C 0.92942 0.89485 0.24481 0.0
C1093 C 0.91659 0.89054 0.30411 0.0
C1094 C 0.9159 0.92539 0.30743 0.0
H1095 H 0.92303 0.84848 0.27212 0.0
H1096 H 0.91069 0.87478 0.32516 0.0
S1097 S 0.9309 0.98768 0.24118 0.0
N1098 N 0.93514 0.95115 0.22246 0.0
N1099 N 0.9225 0.97913 0.28039 0.0
C1100 C 0.92312 0.94516 0.27962 0.0
C1101 C 0.92981 0.92995 0.24822 0.0
C1102 C 0.44614 0.57137 0.36877 0.0
C1103 C 0.47173 0.55959 0.3896 0.0
C1104 C 0.42068 0.5918 0.38116 0.0
C1105 C 0.42011 0.6016 0.41468 0.0
H1106 H 0.44518 0.56408 0.34284 0.0
H1107 H 0.4008 0.59932 0.36459 0.0
S1108 S 0.48122 0.57907 0.4796 0.0
N1109 N 0.49509 0.56055 0.44562 0.0
N1110 N 0.44702 0.59891 0.46847 0.0
C1111 C 0.4458 0.59103 0.43562 0.0
C1112 C 0.47166 0.57001 0.42319 0.0
C1113 C 0.62675 0.1479 0.73393 0.0
C1114 C 0.63383 0.18226 0.73007 0.0
C1115 C 0.63525 0.13102 0.76317 0.0
C1116 C 0.65102 0.14794 0.78945 0.0
H1117 H 0.61516 0.13371 0.71402 0.0
H1118 H 0.63056 0.10437 0.76479 0.0
S1119 S 0.67409 0.23754 0.79313 0.0
N1120 N 0.65653 0.23261 0.75634 0.0
N1121 N 0.67295 0.20035 0.8107 0.0
C1122 C 0.65762 0.18215 0.78645 0.0
C1123 C 0.64885 0.19948 0.75692 0.0
C1124 C 0.25548 0.56941 0.03639 0.0
C1125 C 0.23655 0.54464 0.01973 0.0
C1126 C 0.24003 0.59437 0.05546 0.0
C1127 C 0.20518 0.5955 0.05838 0.0
H1128 H 0.2824 0.56999 0.03418 0.0
H1129 H 0.25532 0.61384 0.06662 0.0
S1130 S 0.14408 0.53625 0.0217 0.0
N1131 N 0.18072 0.52221 0.00942 0.0
N1132 N 0.15213 0.56976 0.04446 0.0
C1133 C 0.186 0.57057 0.04289 0.0
C1134 C 0.20157 0.54494 0.02382 0.0
C1135 C 0.70151 0.03213 0.02111 0.0
C1136 C 0.7365 0.03484 0.02412 0.0
C1137 C 0.6866 0.0068 0.00202 0.0
C1138 C 0.706 0.98355 0.98459 0.0
H1139 H 0.68529 0.04901 0.03445 0.0
H1140 H 0.65964 0.00466 0.00181 0.0
S1141 S 0.79828 0.98159 0.98043 0.0
N1142 N 0.79005 0.01337 0.00536 0.0
N1143 N 0.76172 0.96605 0.96909 0.0
C1144 C 0.74085 0.98708 0.98545 0.0
C1145 C 0.75618 0.01263 0.00532 0.0
C1146 C 0.32448 0.32966 0.23385 0.0
C1147 C 0.35706 0.32139 0.22449 0.0
C1148 C 0.31453 0.36293 0.23587 0.0
C1149 C 0.33683 0.38922 0.22847 0.0
H1150 H 0.30644 0.31017 0.23938 0.0
H1151 H 0.28868 0.36792 0.24185 0.0
S1152 S 0.42683 0.38016 0.20839 0.0
N1153 N 0.41286 0.3414 0.21184 0.0
N1154 N 0.39438 0.40443 0.21539 0.0
C1155 C 0.37026 0.38117 0.22124 0.0
C1156 C 0.38027 0.3471 0.21903 0.0
C1157 C 0.83836 0.05506 0.50186 0.0
C1158 C 0.81969 0.0786 0.48416 0.0
C1159 C 0.82275 0.03193 0.52297 0.0
C1160 C 0.78787 0.03193 0.52781 0.0
H1161 H 0.86525 0.05446 0.49924 0.0
H1162 H 0.83824 0.01374 0.53535 0.0
S1163 S 0.72832 0.09079 0.48859 0.0
N1164 N 0.76506 0.10184 0.47352 0.0
N1165 N 0.73549 0.05916 0.51377 0.0
C1166 C 0.76911 0.05629 0.51088 0.0
C1167 C 0.78507 0.0794 0.48891 0.0
C1168 C 0.27709 0.68925 0.64309 0.0
C1169 C 0.25521 0.66243 0.6359 0.0
C1170 C 0.26608 0.72238 0.64307 0.0
C1171 C 0.2329 0.73017 0.63537 0.0
H1172 H 0.30271 0.68469 0.65017 0.0
H1173 H 0.28338 0.74201 0.65036 0.0
S1174 S 0.16625 0.67021 0.61127 0.0
N1175 N 0.19916 0.64658 0.61812 0.0
N1176 N 0.17869 0.70909 0.61805 0.0
C1177 C 0.2112 0.70408 0.62607 0.0
C1178 C 0.22229 0.67015 0.62635 0.0
C1179 C 0.29642 0.47722 0.55701 0.0
C1180 C 0.3303 0.47982 0.56556 0.0
C1181 C 0.28198 0.49939 0.53422 0.0
C1182 C 0.30101 0.52482 0.51895 0.0
H1183 H 0.28107 0.45772 0.5678 0.0
H1184 H 0.25562 0.49672 0.52886 0.0
S1185 S 0.39166 0.54052 0.53234 0.0
N1186 N 0.38285 0.50853 0.55666 0.0
N1187 N 0.3563 0.5502 0.51378 0.0
C1188 C 0.33528 0.52705 0.52703 0.0
C1189 C 0.34977 0.50454 0.55033 0.0
C1190 C 0.85335 0.17223 0.85632 0.0
C1191 C 0.81902 0.16513 0.85269 0.0
C1192 C 0.86523 0.20531 0.85727 0.0
C1193 C 0.8432 0.2323 0.8546 0.0
H1194 H 0.8712 0.15216 0.85857 0.0
H1195 H 0.89186 0.2098 0.85904 0.0
S1196 S 0.75155 0.22817 0.84498 0.0
N1197 N 0.76328 0.18877 0.84685 0.0
N1198 N 0.78613 0.2505 0.84821 0.0
C1199 C 0.80908 0.22581 0.85113 0.0
C1200 C 0.79685 0.19234 0.85024 0.0
C1201 C 0.76747 0.83195 0.40362 0.0
C1202 C 0.73394 0.82292 0.40848 0.0
C1203 C 0.77761 0.86553 0.40401 0.0
C1204 C 0.75455 0.89157 0.40898 0.0
H1205 H 0.78579 0.81293 0.39807 0.0
H1206 H 0.80361 0.87104 0.39906 0.0
S1207 S 0.66401 0.88056 0.42585 0.0
N1208 N 0.67796 0.84213 0.42073 0.0
N1209 N 0.69679 0.90537 0.42161 0.0
C1210 C 0.72115 0.88263 0.4158 0.0
C1211 C 0.71092 0.84829 0.41554 0.0
C1212 C 0.01662 0.20092 0.72782 0.0
C1213 C 0.99647 0.17201 0.72903 0.0
C1214 C 0.00279 0.23287 0.73194 0.0
C1215 C 0.96852 0.23676 0.73789 0.0
H1216 H 0.04318 0.19879 0.72346 0.0
H1217 H 0.01896 0.25463 0.73066 0.0
S1218 S 0.90505 0.16925 0.74273 0.0
N1219 N 0.94045 0.14951 0.73577 0.0
N1220 N 0.91472 0.2094 0.74446 0.0
C1221 C 0.94821 0.20811 0.73943 0.0
C1222 C 0.96215 0.17573 0.73484 0.0
C1223 C 0.27623 0.72149 0.97509 0.0
C1224 C 0.26684 0.75076 0.99196 0.0
C1225 C 0.30694 0.71958 0.95852 0.0
C1226 C 0.32941 0.74674 0.95862 0.0
H1227 H 0.25934 0.70027 0.97396 0.0
H1228 H 0.31288 0.69691 0.94501 0.0
S1229 S 0.31761 0.82779 0.00185 0.0
N1230 N 0.28275 0.80683 0.00916 0.0
N1231 N 0.34113 0.80281 0.97911 0.0
C1232 C 0.32073 0.7757 0.97641 0.0
C1233 C 0.28925 0.77782 0.99282 0.0
C1234 C 0.58707 0.85513 0.24659 0.0
C1235 C 0.56498 0.86804 0.27038 0.0
C1236 C 0.60482 0.82574 0.25269 0.0
C1237 C 0.60086 0.80819 0.28265 0.0
H1238 H 0.59147 0.86843 0.2236 0.0
H1239 H 0.62247 0.8172 0.23418 0.0
S1240 S 0.54301 0.82976 0.35108 0.0
N1241 N 0.53834 0.86022 0.32391 0.0
N1242 N 0.57085 0.80412 0.3349 0.0
C1243 C 0.57768 0.82005 0.30594 0.0
C1244 C 0.55995 0.85025 0.29992 0.0
C1245 C 0.26274 0.34358 0.51543 0.0
C1246 C 0.27216 0.31759 0.53673 0.0
C1247 C 0.23216 0.34242 0.49855 0.0
C1248 C 0.20995 0.31543 0.50279 0.0
H1249 H 0.27968 0.36426 0.51084 0.0
H1250 H 0.22641 0.36213 0.48113 0.0
S1251 S 0.22161 0.2433 0.55894 0.0
N1252 N 0.25637 0.2654 0.56297 0.0
N1253 N 0.19809 0.26386 0.5323 0.0
C1254 C 0.21837 0.29028 0.52548 0.0
C1255 C 0.24976 0.29117 0.54218 0.0
C1256 C 0.52607 0.34171 0.34146 0.0
C1257 C 0.50694 0.37101 0.33868 0.0
C1258 C 0.51105 0.30979 0.33996 0.0
C1259 C 0.47647 0.30618 0.33533 0.0
H1260 H 0.55288 0.34348 0.3444 0.0
H1261 H 0.52663 0.28784 0.34164 0.0
S1262 S 0.4152 0.37466 0.3273 0.0
N1263 N 0.45139 0.39405 0.33211 0.0
N1264 N 0.42351 0.3343 0.32828 0.0
C1265 C 0.45712 0.33518 0.33263 0.0
C1266 C 0.47227 0.36753 0.33451 0.0
C1267 C 0.74205 0.26325 0.51273 0.0
C1268 C 0.76578 0.23789 0.51653 0.0
C1269 C 0.71183 0.26227 0.53037 0.0
C1270 C 0.70484 0.23631 0.55285 0.0
H1271 H 0.74711 0.28413 0.49642 0.0
H1272 H 0.69416 0.28233 0.52698 0.0
S1273 S 0.75908 0.16389 0.57113 0.0
N1274 N 0.78016 0.18575 0.5434 0.0
N1275 N 0.72403 0.18446 0.57742 0.0
C1276 C 0.72819 0.21048 0.55621 0.0
C1277 C 0.75859 0.21121 0.5379 0.0
C1278 C 0.09461 0.68685 0.79125 0.0
C1279 C 0.06627 0.67871 0.77234 0.0
C1280 C 0.11265 0.71625 0.78515 0.0
C1281 C 0.10267 0.7385 0.76018 0.0
H1282 H 0.10306 0.67016 0.8106 0.0
H1283 H 0.13464 0.72159 0.79996 0.0
S1284 S 0.02903 0.72911 0.70519 0.0
N1285 N 0.02856 0.69504 0.72826 0.0
N1286 N 0.06178 0.7512 0.71754 0.0
C1287 C 0.07401 0.73086 0.7415 0.0
C1288 C 0.05593 0.70067 0.74742 0.0
C1289 C 0.76842 0.82516 0.08268 0.0
C1290 C 0.76789 0.82368 0.04777 0.0
C1291 C 0.79862 0.82749 0.10013 0.0
C1292 C 0.8292 0.8288 0.08321 0.0
H1293 H 0.74528 0.82481 0.09657 0.0
H1294 H 0.79804 0.82881 0.12701 0.0
S1295 S 0.84149 0.82369 0.99218 0.0
N1296 N 0.80059 0.82175 -0.00296 0.0
N1297 N 0.85742 0.82722 0.02991 0.0
C1298 C 0.82909 0.827 0.0484 0.0
C1299 C 0.79837 0.82417 0.03063 0.0
C1300 C 0.75879 0.03107 0.25376 0.0
C1301 C 0.78127 0.04337 0.27765 0.0
C1302 C 0.75803 0.04465 0.22191 0.0
C1303 C 0.78003 0.0705 0.21317 0.0
H1304 H 0.74207 0.01054 0.25964 0.0
H1305 H 0.74067 0.03446 0.2038 0.0
S1306 S 0.84182 0.11283 0.26734 0.0
N1307 N 0.82433 0.08425 0.2913 0.0
N1308 N 0.82376 0.10894 0.2306 0.0
C1309 C 0.80219 0.08342 0.23686 0.0
C1310 C 0.80259 0.07001 0.26945 0.0
C1311 C 0.23949 0.59726 0.30856 0.0
C1312 C 0.25592 0.58187 0.33516 0.0
C1313 C 0.24495 0.58638 0.27582 0.0
C1314 C 0.26713 0.56013 0.26919 0.0
H1315 H 0.22237 0.61761 0.31315 0.0
H1316 H 0.23153 0.59814 0.25569 0.0
S1317 S 0.31518 0.51145 0.33092 0.0
N1318 N 0.29465 0.53928 0.35319 0.0
N1319 N 0.30461 0.51842 0.29193 0.0
C1320 C 0.28355 0.54467 0.2958 0.0
C1321 C 0.27802 0.5557 0.32881 0.0
C1322 C 0.72736 0.95679 0.73402 0.0
C1323 C 0.74589 0.97012 0.70764 0.0
C1324 C 0.73283 0.9681 0.7666 0.0
C1325 C 0.75685 0.99297 0.77329 0.0
H1326 H 0.70864 0.93768 0.72941 0.0
H1327 H 0.71797 0.95775 0.78657 0.0
S1328 S 0.81113 0.03589 0.71212 0.0
N1329 N 0.78886 0.00914 0.68986 0.0
N1330 N 0.79871 0.03092 0.75089 0.0
C1331 C 0.7755 0.00629 0.74695 0.0
C1332 C 0.77008 0.99472 0.71407 0.0
C1333 C 0.30784 0.49074 0.78004 0.0
C1334 C 0.2849 0.5156 0.77129 0.0
C1335 C 0.30852 0.47803 0.81231 0.0
C1336 C 0.28582 0.48947 0.83613 0.0
H1337 H 0.32563 0.48153 0.762 0.0
H1338 H 0.32698 0.45949 0.81878 0.0
S1339 S 0.22049 0.55348 0.82525 0.0
N1340 N 0.23899 0.55098 0.78868 0.0
N1341 N 0.23959 0.52619 0.84922 0.0
C1342 C 0.26223 0.51359 0.82746 0.0
C1343 C 0.26187 0.52686 0.7949 0.0
C1344 C 0.94502 0.05334 0.86218 0.0
C1345 C 0.91696 0.03277 0.86746 0.0
C1346 C 0.97051 0.04358 0.84051 0.0
C1347 C 0.96881 0.01303 0.82302 0.0
H1348 H 0.94621 0.07825 0.87278 0.0
H1349 H 0.99047 0.06124 0.83575 0.0
S1350 S 0.9056 0.94611 0.83591 0.0
N1351 N 0.89294 0.9773 0.85964 0.0
N1352 N 0.9403 0.95932 0.81808 0.0
C1353 C 0.94311 0.99048 0.83142 0.0
C1354 C 0.91729 0.0003 0.85381 0.0
C1355 C 0.42575 0.60691 0.97506 0.0
C1356 C 0.44167 0.60129 0.94436 0.0
C1357 C 0.4052 0.58251 0.98945 0.0
C1358 C 0.39993 0.55144 0.9738 0.0
H1359 H 0.42739 0.6311 0.98712 0.0
H1360 H 0.3916 0.58905 0.01177 0.0
S1361 S 0.44271 0.52093 0.89785 0.0
N1362 N 0.45561 0.55998 0.90208 0.0
N1363 N 0.41758 0.51393 0.92956 0.0
C1364 C 0.41886 0.54403 0.94529 0.0
C1365 C 0.43966 0.56897 0.93049 0.0
C1366 C 0.61904 -0.0005 0.40057 0.0
C1367 C 0.6459 0.02211 0.4029 0.0
C1368 C 0.59197 0.00601 0.37971 0.0
C1369 C 0.59078 0.03534 0.36054 0.0
H1370 H 0.6202 0.97529 0.41245 0.0
H1371 H 0.57314 0.98669 0.37669 0.0
S1372 S 0.65023 0.10664 0.36557 0.0
N1373 N 0.66615 0.07809 0.39036 0.0
N1374 N 0.61534 0.09023 0.35075 0.0
C1375 C 0.61517 0.06012 0.36625 0.0
C1376 C 0.64278 0.05348 0.38756 0.0
C1377 C 0.13223 0.50791 0.4395 0.0
C1378 C 0.14296 0.50987 0.47277 0.0
C1379 C 0.1135 0.48055 0.42783 0.0
C1380 C 0.10457 0.45396 0.44892 0.0
H1381 H 0.13988 0.52665 0.42173 0.0
H1382 H 0.10785 0.4794 0.40153 0.0
S1383 S 0.11949 0.45077 0.53987 0.0
N1384 N 0.13842 0.48545 0.52788 0.0
N1385 N 0.10273 0.4344 0.50599 0.0
C1386 C 0.11216 0.45727 0.48293 0.0
C1387 C 0.13145 0.48509 0.49483 0.0
C1388 C 0.48424 0.49513 0.21354 0.0
C1389 C 0.48502 0.52653 0.22951 0.0
C1390 C 0.45825 0.48631 0.19194 0.0
C1391 C 0.43205 0.50857 0.18548 0.0
H1392 H 0.50247 0.47624 0.21957 0.0
H1393 H 0.45737 0.4609 0.18256 0.0
S1394 S 0.42733 0.59691 0.21349 0.0
N1395 N 0.46097 0.58224 0.23192 0.0
N1396 N 0.41227 0.56567 0.19102 0.0
C1397 C 0.43489 0.54146 0.19776 0.0
C1398 C 0.46138 0.55047 0.21984 0.0
C1399 C 0.62002 0.04104 0.60716 0.0
C1400 C 0.6308 0.04088 0.57387 0.0
C1401 C 0.6024 0.06813 0.62047 0.0
C1402 C 0.59465 0.09624 0.60105 0.0
H1403 H 0.62683 0.02101 0.62375 0.0
H1404 H 0.59676 0.06783 0.64677 0.0
S1405 S 0.6098 0.10462 0.51048 0.0
N1406 N 0.62735 0.06878 0.52036 0.0
N1407 N 0.59357 0.11928 0.54526 0.0
C1408 C 0.60206 0.09478 0.56688 0.0
C1409 C 0.62027 0.06724 0.55333 0.0
C1410 C 0.12174 0.4925 0.68942 0.0
C1411 C 0.09317 0.51268 0.68976 0.0
C1412 C 0.14885 0.50017 0.66885 0.0
C1413 C 0.14854 0.52846 0.6481 0.0
H1414 H 0.1244 0.47226 0.70699 0.0
H1415 H 0.1711 0.48515 0.67111 0.0
S1416 S 0.07571 0.58315 0.63282 0.0
N1417 N 0.06309 0.55726 0.66213 0.0
N1418 N 0.11437 0.57225 0.62403 0.0
C1419 C 0.11845 0.54611 0.64506 0.0
C1420 C 0.09071 0.53811 0.66584 0.0
C1421 C 0.90126 0.00012 0.05912 0.0
C1422 C 0.89641 0.03072 0.07574 0.0
C1423 C 0.92127 0.97511 0.07282 0.0
C1424 C 0.93715 0.97957 0.10377 0.0
H1425 H 0.8878 0.99445 0.03642 0.0
H1426 H 0.92266 0.95138 0.05988 0.0
S1427 S 0.9387 0.05809 0.15338 0.0
N1428 N 0.91404 0.06639 0.12166 0.0
N1429 N 0.95111 0.0192 0.1478 0.0
C1430 C 0.93534 0.01134 0.11888 0.0
C1431 C 0.91507 0.03692 0.10479 0.0
C1432 C 0.11015 0.86594 0.88243 0.0
C1433 C 0.14194 0.88094 0.88007 0.0
C1434 C 0.09836 0.85331 0.91259 0.0
C1435 C 0.11805 0.85518 0.9414 0.0
H1436 H 0.09521 0.86175 0.86036 0.0
H1437 H 0.07507 0.83942 0.91252 0.0
S1438 S 0.19901 0.89978 0.95034 0.0
N1439 N 0.18997 0.90264 0.91044 0.0
N1440 N 0.16756 0.87921 0.96732 0.0
C1441 C 0.14786 0.87393 0.94029 0.0
C1442 C 0.15989 0.88681 0.90954 0.0
C1443 C 0.64074 0.69514 0.14233 0.0
C1444 C 0.65177 0.72147 0.16303 0.0
C1445 C 0.62759 0.70162 0.11061 0.0
C1446 C 0.62427 0.73459 0.09941 0.0
H1447 H 0.6432 0.66944 0.15028 0.0
H1448 H 0.62058 0.68088 0.09464 0.0
S1449 S 0.6469 0.81227 0.14467 0.0
N1450 N 0.65711 0.78182 0.17017 0.0
N1451 N 0.63147 0.79365 0.11136 0.0
C1452 C 0.63401 0.76101 0.12026 0.0
C1453 C 0.64804 0.75454 0.15192 0.0
C1454 C 0.40103 0.18973 0.50482 0.0
C1455 C 0.43185 0.20531 0.51159 0.0
C1456 C 0.39674 0.16972 0.47658 0.0
C1457 C 0.42303 0.16533 0.45395 0.0
H1458 H 0.37936 0.19539 0.51985 0.0
H1459 H 0.37179 0.16101 0.47063 0.0
S1460 S 0.51052 0.19391 0.46483 0.0
N1461 N 0.49058 0.20962 0.49716 0.0
N1462 N 0.4824 0.17234 0.44356 0.0
C1463 C 0.455 0.17698 0.46286 0.0
C1464 C 0.45946 0.19701 0.4919 0.0
C1465 C 0.89912 0.38026 0.59008 0.0
C1466 C 0.92471 0.37908 0.61389 0.0
C1467 C 0.90227 0.3633 0.55981 0.0
C1468 C 0.93124 0.34507 0.5523 0.0
H1469 H 0.87521 0.3912 0.59612 0.0
H1470 H 0.8808 0.36209 0.54347 0.0
S1471 S 0.00848 0.34191 0.60293 0.0
N1472 N 0.9822 0.36407 0.62548 0.0
N1473 N 0.98831 0.33236 0.56835 0.0
C1474 C 0.95868 0.34775 0.5739 0.0
C1475 C 0.95534 0.36477 0.60486 0.0
loop_
_geom_bond_atom_site_label_1
_geom_bond_atom_site_label_2
_geom_bond_distance
_geom_bond_site_symmetry_2
_ccdc_geom_bond_type
Co0 O3 1.970 . S
Co0 N17 1.989 1_565 S
Co0 O25 1.967 . S
Co0 O32 1.920 1_455 S
Co1 O4 1.966 . S
Co1 N10 2.022 . S
Co1 N18 1.993 . S
Co1 O26 1.941 1_545 S
C2 O3 1.258 . S
C2 O4 1.264 1_565 S
O3 Co0 1.970 . S
O3 C2 1.258 . S
O4 Co1 1.966 . S
O4 C2 1.264 1_545 S
C5 O6 1.235 1_565 S
C5 O32 1.289 . S
O6 C5 1.235 1_545 S
C7 C9 1.400 . S
C7 N10 1.351 . S
C7 C12 1.501 . S
C8 C9 1.387 . S
C8 N11 1.341 . S
C9 C7 1.400 . S
C9 C8 1.387 . S
N10 Co1 2.022 . S
N10 C7 1.351 . S
N10 N11 1.365 . S
N11 C8 1.341 . S
N11 N10 1.365 . S
N11 H31 0.862 . S
C12 C7 1.501 . S
C12 H13 0.961 . S
C12 H14 0.961 . S
C12 H15 0.960 . S
H13 C12 0.961 . S
H14 C12 0.961 . S
H15 C12 0.960 . S
C16 N17 1.342 . S
C16 C20 1.401 . S
C16 C21 1.499 . S
N17 Co0 1.989 1_545 S
N17 C16 1.342 . S
N17 N18 1.388 . S
N18 Co1 1.993 . S
N18 N17 1.388 . S
N18 C19 1.346 . S
C19 N18 1.346 . S
C19 C20 1.396 . S
C19 C29 1.510 . S
C20 C16 1.401 . S
C20 C19 1.396 . S
C21 C16 1.499 . S
C21 H22 0.959 . S
C21 H23 0.960 . S
C21 H24 0.961 . S
H22 C21 0.959 . S
H23 C21 0.960 . S
H24 C21 0.961 . S
O25 Co0 1.967 . S
O25 C33 1.258 . S
O26 Co1 1.941 1_565 S
O26 C33 1.266 . S
H27 C29 0.959 . S
H28 C29 0.961 . S
C29 C19 1.510 . S
C29 H27 0.959 . S
C29 H28 0.961 . S
C29 H30 0.960 . S
H30 C29 0.960 . S
H31 N11 0.862 . S
O32 Co0 1.920 1_655 S
O32 C5 1.289 . S
C33 O25 1.258 . S
C33 O26 1.266 . S
Co34 O37 1.970 1_554 S
Co34 N51 1.989 . S
Co34 O59 1.967 . S
Co34 O66 1.920 . S
Co35 O38 1.966 . S
Co35 N44 2.022 . S
Co35 N52 1.993 . S
Co35 O60 1.941 . S
C36 O37 1.258 . S
C36 O38 1.263 . S
O37 Co34 1.970 1_556 S
O37 C36 1.258 . S
O38 Co35 1.966 . S
O38 C36 1.263 . S
C39 O40 1.235 . S
C39 O66 1.289 . S
O40 C39 1.235 . S
C41 C43 1.400 . S
C41 N44 1.351 . S
C41 C46 1.501 . S
C42 C43 1.387 . S
C42 N45 1.341 . S
C43 C41 1.400 . S
C43 C42 1.387 . S
N44 Co35 2.022 . S
N44 C41 1.351 . S
N44 N45 1.365 . S
N45 C42 1.341 . S
N45 N44 1.365 . S
N45 H65 0.862 . S
C46 C41 1.501 . S
C46 H47 0.961 . S
C46 H48 0.961 . S
C46 H49 0.960 . S
H47 C46 0.961 . S
H48 C46 0.961 . S
H49 C46 0.960 . S
C50 N51 1.342 . S
C50 C54 1.401 . S
C50 C55 1.499 . S
N51 Co34 1.989 . S
N51 C50 1.342 . S
N51 N52 1.388 1_554 S
N52 Co35 1.993 . S
N52 N51 1.388 1_556 S
N52 C53 1.346 1_556 S
C53 N52 1.346 1_554 S
C53 C54 1.396 . S
C53 C63 1.510 1_554 S
C54 C50 1.401 . S
C54 C53 1.396 . S
C55 C50 1.499 . S
C55 H56 0.959 . S
C55 H57 0.960 . S
C55 H58 0.961 . S
H56 C55 0.959 . S
H57 C55 0.960 . S
H58 C55 0.961 . S
O59 Co34 1.967 . S
O59 C67 1.258 1_554 S
O60 Co35 1.941 . S
O60 C67 1.266 . S
H61 C63 0.959 . S
H62 C63 0.961 . S
C63 C53 1.510 1_556 S
C63 H61 0.959 . S
C63 H62 0.961 . S
C63 H64 0.960 . S
H64 C63 0.960 . S
H65 N45 0.862 . S
O66 Co34 1.920 . S
O66 C39 1.289 . S
C67 O59 1.258 1_556 S
C67 O60 1.266 . S
Co68 O71 1.970 . S
Co68 N85 1.989 . S
Co68 O93 1.967 . S
Co68 O100 1.920 . S
Co69 O72 1.966 . S
Co69 N78 2.022 . S
Co69 N86 1.993 . S
Co69 O94 1.941 . S
C70 O71 1.258 . S
C70 O72 1.263 . S
O71 Co68 1.970 . S
O71 C70 1.258 . S
O72 Co69 1.966 . S
O72 C70 1.263 . S
C73 O74 1.235 . S
C73 O100 1.289 . S
O74 C73 1.235 . S
C75 C77 1.400 1_545 S
C75 N78 1.351 . S
C75 C80 1.501 . S
C76 C77 1.387 . S
C76 N79 1.341 1_565 S
C77 C75 1.400 1_565 S
C77 C76 1.387 . S
N78 Co69 2.022 . S
N78 C75 1.351 . S
N78 N79 1.365 . S
N79 C76 1.341 1_545 S
N79 N78 1.365 . S
N79 H99 0.862 . S
C80 C75 1.501 . S
C80 H81 0.961 . S
C80 H82 0.961 1_545 S
C80 H83 0.960 . S
H81 C80 0.961 . S
H82 C80 0.961 1_565 S
H83 C80 0.960 . S
C84 N85 1.342 1_565 S
C84 C88 1.401 . S
C84 C89 1.499 1_565 S
N85 Co68 1.989 . S
N85 C84 1.342 1_545 S
N85 N86 1.388 . S
N86 Co69 1.993 . S
N86 N85 1.388 . S
N86 C87 1.346 1_545 S
C87 N86 1.346 1_565 S
C87 C88 1.396 . S
C87 C97 1.510 . S
C88 C84 1.401 . S
C88 C87 1.396 . S
C89 C84 1.499 1_545 S
C89 H90 0.959 . S
C89 H91 0.959 1_545 S
C89 H92 0.961 . S
H90 C89 0.959 . S
H91 C89 0.959 1_565 S
H92 C89 0.961 . S
O93 Co68 1.967 . S
O93 C101 1.258 . S
O94 Co69 1.941 . S
O94 C101 1.266 . S
H95 C97 0.959 . S
H96 C97 0.961 . S
C97 C87 1.510 . S
C97 H95 0.959 . S
C97 H96 0.961 . S
C97 H98 0.960 . S
H98 C97 0.960 . S
H99 N79 0.862 . S
O100 Co68 1.920 . S
O100 C73 1.289 . S
C101 O93 1.258 . S
C101 O94 1.266 . S
Co102 O105 1.970 . S
Co102 N119 1.989 . S
Co102 O127 1.967 . S
Co102 O134 1.920 . S
Co103 O106 1.966 . S
Co103 N112 2.022 . S
Co103 N120 1.993 . S
Co103 O128 1.941 . S
C104 O105 1.258 . S
C104 O106 1.263 . S
O105 Co102 1.970 . S
O105 C104 1.258 . S
O106 Co103 1.966 . S
O106 C104 1.263 . S
C107 O108 1.235 . S
C107 O134 1.289 . S
O108 C107 1.235 . S
C109 C111 1.400 . S
C109 N112 1.351 . S
C109 C114 1.501 . S
C110 C111 1.387 . S
C110 N113 1.341 . S
C111 C109 1.400 . S
C111 C110 1.387 . S
N112 Co103 2.022 . S
N112 C109 1.351 . S
N112 N113 1.365 . S
N113 C110 1.341 . S
N113 N112 1.365 . S
N113 H133 0.862 . S
C114 C109 1.501 . S
C114 H115 0.961 . S
C114 H116 0.961 . S
C114 H117 0.960 . S
H115 C114 0.961 . S
H116 C114 0.961 . S
H117 C114 0.960 . S
C118 N119 1.342 . S
C118 C122 1.401 . S
C118 C123 1.499 . S
N119 Co102 1.989 . S
N119 C118 1.342 . S
N119 N120 1.388 . S
N120 Co103 1.993 . S
N120 N119 1.388 . S
N120 C121 1.346 . S
C121 N120 1.346 . S
C121 C122 1.396 . S
C121 C131 1.510 . S
C122 C118 1.401 . S
C122 C121 1.396 . S
C123 C118 1.499 . S
C123 H124 0.959 . S
C123 H125 0.960 . S
C123 H126 0.961 . S
H124 C123 0.959 . S
H125 C123 0.960 . S
H126 C123 0.961 . S
O127 Co102 1.967 . S
O127 C135 1.258 . S
O128 Co103 1.941 . S
O128 C135 1.266 . S
H129 C131 0.959 . S
H130 C131 0.961 . S
C131 C121 1.510 . S
C131 H129 0.959 . S
C131 H130 0.961 . S
C131 H132 0.960 . S
H132 C131 0.960 . S
H133 N113 0.862 . S
O134 Co102 1.920 . S
O134 C107 1.289 . S
C135 O127 1.258 . S
C135 O128 1.266 . S
Co136 O139 1.970 . S
Co136 N153 1.989 . S
Co136 O161 1.967 . S
Co136 O168 1.920 . S
Co137 O140 1.966 . S
Co137 N146 2.022 . S
Co137 N154 1.993 . S
Co137 O162 1.941 . S
C138 O139 1.258 . S
C138 O140 1.263 . S
O139 Co136 1.970 . S
O139 C138 1.258 . S
O140 Co137 1.966 . S
O140 C138 1.263 . S
C141 O142 1.235 . S
C141 O168 1.289 . S
O142 C141 1.235 . S
C143 C145 1.400 . S
C143 N146 1.351 . S
C143 C148 1.501 . S
C144 C145 1.387 . S
C144 N147 1.341 . S
C145 C143 1.400 . S
C145 C144 1.387 . S
N146 Co137 2.022 . S
N146 C143 1.351 . S
N146 N147 1.365 . S
N147 C144 1.341 . S
N147 N146 1.365 . S
N147 H167 0.862 . S
C148 C143 1.501 . S
C148 H149 0.961 . S
C148 H150 0.961 . S
C148 H151 0.960 . S
H149 C148 0.961 . S
H150 C148 0.961 . S
H151 C148 0.960 . S
C152 N153 1.342 . S
C152 C156 1.401 . S
C152 C157 1.499 . S
N153 Co136 1.989 . S
N153 C152 1.342 . S
N153 N154 1.388 . S
N154 Co137 1.993 . S
N154 N153 1.388 . S
N154 C155 1.346 . S
C155 N154 1.346 . S
C155 C156 1.396 . S
C155 C165 1.510 . S
C156 C152 1.401 . S
C156 C155 1.396 . S
C157 C152 1.499 . S
C157 H158 0.959 . S
C157 H159 0.960 . S
C157 H160 0.961 . S
H158 C157 0.959 . S
H159 C157 0.960 . S
H160 C157 0.961 . S
O161 Co136 1.967 . S
O161 C169 1.258 . S
O162 Co137 1.941 . S
O162 C169 1.266 . S
H163 C165 0.959 . S
H164 C165 0.961 . S
C165 C155 1.510 . S
C165 H163 0.959 . S
C165 H164 0.961 . S
C165 H166 0.960 . S
H166 C165 0.960 . S
H167 N147 0.862 . S
O168 Co136 1.920 . S
O168 C141 1.289 . S
C169 O161 1.258 . S
C169 O162 1.266 . S
Co170 O173 1.970 . S
Co170 N187 1.989 . S
Co170 O195 1.967 . S
Co170 O202 1.920 . S
Co171 O174 1.966 . S
Co171 N180 2.022 . S
Co171 N188 1.993 . S
Co171 O196 1.941 . S
C172 O173 1.258 . S
C172 O174 1.263 . S
O173 Co170 1.970 . S
O173 C172 1.258 . S
O174 Co171 1.966 . S
O174 C172 1.263 . S
C175 O176 1.235 . S
C175 O202 1.289 . S
O176 C175 1.235 . S
C177 C179 1.400 . S
C177 N180 1.351 . S
C177 C182 1.501 . S
C178 C179 1.387 . S
C178 N181 1.341 . S
C179 C177 1.400 . S
C179 C178 1.387 . S
N180 Co171 2.022 . S
N180 C177 1.351 . S
N180 N181 1.365 . S
N181 C178 1.341 . S
N181 N180 1.365 . S
N181 H201 0.862 . S
C182 C177 1.501 . S
C182 H183 0.961 . S
C182 H184 0.961 . S
C182 H185 0.960 . S
H183 C182 0.961 . S
H184 C182 0.961 . S
H185 C182 0.960 . S
C186 N187 1.342 . S
C186 C190 1.401 . S
C186 C191 1.499 . S
N187 Co170 1.989 . S
N187 C186 1.342 . S
N187 N188 1.388 . S
N188 Co171 1.993 . S
N188 N187 1.388 . S
N188 C189 1.346 . S
C189 N188 1.346 . S
C189 C190 1.396 . S
C189 C199 1.510 . S
C190 C186 1.401 . S
C190 C189 1.396 . S
C191 C186 1.499 . S
C191 H192 0.959 . S
C191 H193 0.960 . S
C191 H194 0.961 . S
H192 C191 0.959 . S
H193 C191 0.960 . S
H194 C191 0.961 . S
O195 Co170 1.967 . S
O195 C203 1.258 . S
O196 Co171 1.941 . S
O196 C203 1.266 . S
H197 C199 0.959 . S
H198 C199 0.961 . S
C199 C189 1.510 . S
C199 H197 0.959 . S
C199 H198 0.961 . S
C199 H200 0.960 . S
H200 C199 0.960 . S
H201 N181 0.862 . S
O202 Co170 1.920 . S
O202 C175 1.289 . S
C203 O195 1.258 . S
C203 O196 1.266 . S
Co204 O207 1.970 . S
Co204 N221 1.989 . S
Co204 O229 1.967 1_455 S
Co204 O236 1.920 . S
Co205 O208 1.966 1_655 S
Co205 N214 2.022 . S
Co205 N222 1.993 . S
Co205 O230 1.941 . S
C206 O207 1.258 . S
C206 O208 1.263 . S
O207 Co204 1.970 . S
O207 C206 1.258 . S
O208 Co205 1.966 1_455 S
O208 C206 1.263 . S
C209 O210 1.235 . S
C209 O236 1.289 . S
O210 C209 1.235 . S
C211 C213 1.400 . S
C211 N214 1.351 . S
C211 C216 1.501 . S
C212 C213 1.387 . S
C212 N215 1.341 . S
C213 C211 1.400 . S
C213 C212 1.387 . S
N214 Co205 2.022 . S
N214 C211 1.351 . S
N214 N215 1.365 . S
N215 C212 1.341 . S
N215 N214 1.365 . S
N215 H235 0.862 . S
C216 C211 1.501 . S
C216 H217 0.961 . S
C216 H218 0.961 . S
C216 H219 0.960 . S
H217 C216 0.961 . S
H218 C216 0.961 . S
H219 C216 0.960 . S
C220 N221 1.342 . S
C220 C224 1.401 1_455 S
C220 C225 1.499 . S
N221 Co204 1.989 . S
N221 C220 1.342 . S
N221 N222 1.388 1_455 S
N222 Co205 1.993 . S
N222 N221 1.388 1_655 S
N222 C223 1.346 . S
C223 N222 1.346 . S
C223 C224 1.396 . S
C223 C233 1.510 . S
C224 C220 1.401 1_655 S
C224 C223 1.396 . S
C225 C220 1.499 . S
C225 H226 0.959 . S
C225 H227 0.960 . S
C225 H228 0.961 . S
H226 C225 0.959 . S
H227 C225 0.960 . S
H228 C225 0.961 . S
O229 Co204 1.967 1_655 S
O229 C237 1.258 . S
O230 Co205 1.941 . S
O230 C237 1.266 . S
H231 C233 0.959 . S
H232 C233 0.961 . S
C233 C223 1.510 . S
C233 H231 0.959 . S
C233 H232 0.961 . S
C233 H234 0.960 . S
H234 C233 0.960 . S
H235 N215 0.862 . S
O236 Co204 1.920 . S
O236 C209 1.289 . S
C237 O229 1.258 . S
C237 O230 1.266 . S
Co238 O241 1.970 . S
Co238 N255 1.989 . S
Co238 O263 1.967 . S
Co238 O270 1.920 . S
Co239 O242 1.966 . S
Co239 N248 2.022 . S
Co239 N256 1.993 . S
Co239 O264 1.941 . S
C240 O241 1.258 . S
C240 O242 1.263 . S
O241 Co238 1.970 . S
O241 C240 1.258 . S
O242 Co239 1.966 . S
O242 C240 1.263 . S
C243 O244 1.235 . S
C243 O270 1.289 . S
O244 C243 1.235 . S
C245 C247 1.400 . S
C245 N248 1.351 . S
C245 C250 1.501 . S
C246 C247 1.387 . S
C246 N249 1.341 . S
C247 C245 1.400 . S
C247 C246 1.387 . S
N248 Co239 2.022 . S
N248 C245 1.351 . S
N248 N249 1.365 . S
N249 C246 1.341 . S
N249 N248 1.365 . S
N249 H269 0.862 . S
C250 C245 1.501 . S
C250 H251 0.961 . S
C250 H252 0.961 . S
C250 H253 0.960 . S
H251 C250 0.961 . S
H252 C250 0.961 . S
H253 C250 0.960 . S
C254 N255 1.342 . S
C254 C258 1.401 . S
C254 C259 1.499 1_554 S
N255 Co238 1.989 . S
N255 C254 1.342 . S
N255 N256 1.388 . S
N256 Co239 1.993 . S
N256 N255 1.388 . S
N256 C257 1.346 . S
C257 N256 1.346 . S
C257 C258 1.396 . S
C257 C267 1.510 . S
C258 C254 1.401 . S
C258 C257 1.396 . S
C259 C254 1.499 1_556 S
C259 H260 0.959 . S
C259 H261 0.960 . S
C259 H262 0.961 . S
H260 C259 0.959 . S
H261 C259 0.960 . S
H262 C259 0.961 . S
O263 Co238 1.967 . S
O263 C271 1.258 . S
O264 Co239 1.941 . S
O264 C271 1.266 . S
H265 C267 0.959 . S
H266 C267 0.961 . S
C267 C257 1.510 . S
C267 H265 0.959 . S
C267 H266 0.961 . S
C267 H268 0.960 . S
H268 C267 0.960 . S
H269 N249 0.862 . S
O270 Co238 1.920 . S
O270 C243 1.289 . S
C271 O263 1.258 . S
C271 O264 1.266 . S
Co272 O275 1.970 . S
Co272 N289 1.989 1_556 S
Co272 O297 1.967 . S
Co272 O304 1.920 1_545 S
Co273 O276 1.966 . S
Co273 N282 2.022 . S
Co273 N290 1.993 . S
Co273 O298 1.941 1_554 S
C274 O275 1.258 . S
C274 O276 1.264 1_556 S
O275 Co272 1.970 . S
O275 C274 1.258 . S
O276 Co273 1.966 . S
O276 C274 1.264 1_554 S
C277 O278 1.235 1_556 S
C277 O304 1.289 . S
O278 C277 1.235 1_554 S
C279 C281 1.400 . S
C279 N282 1.351 . S
C279 C284 1.501 . S
C280 C281 1.387 . S
C280 N283 1.341 . S
C281 C279 1.400 . S
C281 C280 1.387 . S
N282 Co273 2.022 . S
N282 C279 1.351 . S
N282 N283 1.365 . S
N283 C280 1.341 . S
N283 N282 1.365 . S
N283 H303 0.862 . S
C284 C279 1.501 . S
C284 H285 0.961 . S
C284 H286 0.961 . S
C284 H287 0.960 . S
H285 C284 0.961 . S
H286 C284 0.961 . S
H287 C284 0.960 . S
C288 N289 1.342 . S
C288 C292 1.401 . S
C288 C293 1.499 . S
N289 Co272 1.989 1_554 S
N289 C288 1.342 . S
N289 N290 1.388 . S
N290 Co273 1.993 . S
N290 N289 1.388 . S
N290 C291 1.346 . S
C291 N290 1.346 . S
C291 C292 1.396 . S
C291 C301 1.510 . S
C292 C288 1.401 . S
C292 C291 1.396 . S
C293 C288 1.499 . S
C293 H294 0.959 . S
C293 H295 0.960 . S
C293 H296 0.961 . S
H294 C293 0.959 . S
H295 C293 0.960 . S
H296 C293 0.961 . S
O297 Co272 1.967 . S
O297 C305 1.258 . S
O298 Co273 1.941 1_556 S
O298 C305 1.266 . S
H299 C301 0.959 . S
H300 C301 0.961 . S
C301 C291 1.510 . S
C301 H299 0.959 . S
C301 H300 0.961 . S
C301 H302 0.960 . S
H302 C301 0.960 . S
H303 N283 0.862 . S
O304 Co272 1.920 1_565 S
O304 C277 1.289 . S
C305 O297 1.258 . S
C305 O298 1.266 . S
Co306 O309 1.970 . S
Co306 N323 1.989 . S
Co306 O331 1.967 . S
Co306 O338 1.920 . S
Co307 O310 1.966 . S
Co307 N316 2.022 . S
Co307 N324 1.993 . S
Co307 O332 1.941 . S
C308 O309 1.258 . S
C308 O310 1.263 . S
O309 Co306 1.970 . S
O309 C308 1.258 . S
O310 Co307 1.966 . S
O310 C308 1.263 . S
C311 O312 1.235 . S
C311 O338 1.289 . S
O312 C311 1.235 . S
C313 C315 1.400 . S
C313 N316 1.351 . S
C313 C318 1.501 . S
C314 C315 1.387 . S
C314 N317 1.341 . S
C315 C313 1.400 . S
C315 C314 1.387 . S
N316 Co307 2.022 . S
N316 C313 1.351 . S
N316 N317 1.365 . S
N317 C314 1.341 . S
N317 N316 1.365 . S
N317 H337 0.862 . S
C318 C313 1.501 . S
C318 H319 0.961 . S
C318 H320 0.961 . S
C318 H321 0.960 . S
H319 C318 0.961 . S
H320 C318 0.961 . S
H321 C318 0.960 . S
C322 N323 1.342 . S
C322 C326 1.401 . S
C322 C327 1.499 . S
N323 Co306 1.989 . S
N323 C322 1.342 . S
N323 N324 1.388 . S
N324 Co307 1.993 . S
N324 N323 1.388 . S
N324 C325 1.346 . S
C325 N324 1.346 . S
C325 C326 1.396 . S
C325 C335 1.510 . S
C326 C322 1.401 . S
C326 C325 1.396 . S
C327 C322 1.499 . S
C327 H328 0.959 . S
C327 H329 0.960 . S
C327 H330 0.961 . S
H328 C327 0.959 . S
H329 C327 0.960 . S
H330 C327 0.961 . S
O331 Co306 1.967 . S
O331 C339 1.258 . S
O332 Co307 1.941 . S
O332 C339 1.266 . S
H333 C335 0.959 . S
H334 C335 0.961 . S
C335 C325 1.510 . S
C335 H333 0.959 . S
C335 H334 0.961 . S
C335 H336 0.960 . S
H336 C335 0.960 . S
H337 N317 0.862 . S
O338 Co306 1.920 . S
O338 C311 1.289 . S
C339 O331 1.258 . S
C339 O332 1.266 . S
Co340 O343 1.970 . S
Co340 N357 1.989 . S
Co340 O365 1.967 1_545 S
Co340 O372 1.920 . S
Co341 O344 1.966 1_565 S
Co341 N350 2.022 . S
Co341 N358 1.993 . S
Co341 O366 1.941 . S
C342 O343 1.258 . S
C342 O344 1.263 . S
O343 Co340 1.970 . S
O343 C342 1.258 . S
O344 Co341 1.966 1_545 S
O344 C342 1.263 . S
C345 O346 1.235 . S
C345 O372 1.289 . S
O346 C345 1.235 . S
C347 C349 1.400 . S
C347 N350 1.351 . S
C347 C352 1.501 . S
C348 C349 1.387 . S
C348 N351 1.341 . S
C349 C347 1.400 . S
C349 C348 1.387 . S
N350 Co341 2.022 . S
N350 C347 1.351 . S
N350 N351 1.365 . S
N351 C348 1.341 . S
N351 N350 1.365 . S
N351 H371 0.862 . S
C352 C347 1.501 . S
C352 H353 0.961 . S
C352 H354 0.961 . S
C352 H355 0.960 . S
H353 C352 0.961 . S
H354 C352 0.961 . S
H355 C352 0.960 . S
C356 N357 1.342 . S
C356 C360 1.401 1_545 S
C356 C361 1.499 . S
N357 Co340 1.989 . S
N357 C356 1.342 . S
N357 N358 1.388 1_545 S
N358 Co341 1.993 . S
N358 N357 1.388 1_565 S
N358 C359 1.346 . S
C359 N358 1.346 . S
C359 C360 1.396 . S
C359 C369 1.510 . S
C360 C356 1.401 1_565 S
C360 C359 1.396 . S
C361 C356 1.499 . S
C361 H362 0.959 . S
C361 H363 0.960 . S
C361 H364 0.961 . S
H362 C361 0.959 . S
H363 C361 0.960 . S
H364 C361 0.961 . S
O365 Co340 1.967 1_565 S
O365 C373 1.258 . S
O366 Co341 1.941 . S
O366 C373 1.266 . S
H367 C369 0.959 . S
H368 C369 0.961 . S
C369 C359 1.510 . S
C369 H367 0.959 . S
C369 H368 0.961 . S
C369 H370 0.960 . S
H370 C369 0.960 . S
H371 N351 0.862 . S
O372 Co340 1.920 . S
O372 C345 1.289 . S
C373 O365 1.258 . S
C373 O366 1.266 . S
Co374 O377 1.970 . S
Co374 N391 1.989 . S
Co374 O399 1.967 . S
Co374 O406 1.920 . S
Co375 O378 1.966 . S
Co375 N384 2.022 . S
Co375 N392 1.993 . S
Co375 O400 1.941 . S
C376 O377 1.258 . S
C376 O378 1.263 . S
O377 Co374 1.970 . S
O377 C376 1.258 . S
O378 Co375 1.966 . S
O378 C376 1.263 . S
C379 O380 1.235 . S
C379 O406 1.289 . S
O380 C379 1.235 . S
C381 C383 1.400 . S
C381 N384 1.351 . S
C381 C386 1.501 . S
C382 C383 1.387 . S
C382 N385 1.341 . S
C383 C381 1.400 . S
C383 C382 1.387 . S
N384 Co375 2.022 . S
N384 C381 1.351 . S
N384 N385 1.365 . S
N385 C382 1.341 . S
N385 N384 1.365 . S
N385 H405 0.862 . S
C386 C381 1.501 . S
C386 H387 0.961 . S
C386 H388 0.961 . S
C386 H389 0.960 . S
H387 C386 0.961 . S
H388 C386 0.961 . S
H389 C386 0.960 . S
C390 N391 1.342 . S
C390 C394 1.401 . S
C390 C395 1.499 . S
N391 Co374 1.989 . S
N391 C390 1.342 . S
N391 N392 1.388 . S
N392 Co375 1.993 . S
N392 N391 1.388 . S
N392 C393 1.346 . S
C393 N392 1.346 . S
C393 C394 1.396 . S
C393 C403 1.510 . S
C394 C390 1.401 . S
C394 C393 1.396 . S
C395 C390 1.499 . S
C395 H396 0.959 . S
C395 H397 0.960 . S
C395 H398 0.961 . S
H396 C395 0.959 . S
H397 C395 0.960 . S
H398 C395 0.961 . S
O399 Co374 1.967 . S
O399 C407 1.258 . S
O400 Co375 1.941 . S
O400 C407 1.266 . S
H401 C403 0.959 . S
H402 C403 0.961 . S
C403 C393 1.510 . S
C403 H401 0.959 . S
C403 H402 0.961 . S
C403 H404 0.960 . S
H404 C403 0.960 . S
H405 N385 0.862 . S
O406 Co374 1.920 . S
O406 C379 1.289 . S
C407 O399 1.258 . S
C407 O400 1.266 . S
Co408 O411 1.970 . S
Co408 N425 1.989 . S
Co408 O433 1.967 . S
Co408 O440 1.920 . S
Co409 O412 1.966 . S
Co409 N418 2.022 . S
Co409 N426 1.993 . S
Co409 O434 1.941 . S
C410 O411 1.258 . S
C410 O412 1.263 . S
O411 Co408 1.970 . S
O411 C410 1.258 . S
O412 Co409 1.966 . S
O412 C410 1.263 . S
C413 O414 1.235 . S
C413 O440 1.289 . S
O414 C413 1.235 . S
C415 C417 1.400 1_554 S
C415 N418 1.351 . S
C415 C420 1.501 . S
C416 C417 1.387 . S
C416 N419 1.341 1_556 S
C417 C415 1.400 1_556 S
C417 C416 1.387 . S
N418 Co409 2.022 . S
N418 C415 1.351 . S
N418 N419 1.365 . S
N419 C416 1.341 1_554 S
N419 N418 1.365 . S
N419 H439 0.862 . S
C420 C415 1.501 . S
C420 H421 0.961 . S
C420 H422 0.961 1_554 S
C420 H423 0.960 . S
H421 C420 0.961 . S
H422 C420 0.961 1_556 S
H423 C420 0.960 . S
C424 N425 1.342 1_556 S
C424 C428 1.401 . S
C424 C429 1.499 1_556 S
N425 Co408 1.989 . S
N425 C424 1.342 1_554 S
N425 N426 1.388 . S
N426 Co409 1.993 . S
N426 N425 1.388 . S
N426 C427 1.346 1_554 S
C427 N426 1.346 1_556 S
C427 C428 1.396 . S
C427 C437 1.510 . S
C428 C424 1.401 . S
C428 C427 1.396 . S
C429 C424 1.499 1_554 S
C429 H430 0.959 . S
C429 H431 0.959 1_554 S
C429 H432 0.961 . S
H430 C429 0.959 . S
H431 C429 0.959 1_556 S
H432 C429 0.961 . S
O433 Co408 1.967 . S
O433 C441 1.258 . S
O434 Co409 1.941 . S
O434 C441 1.266 . S
H435 C437 0.959 . S
H436 C437 0.961 . S
C437 C427 1.510 . S
C437 H435 0.959 . S
C437 H436 0.961 . S
C437 H438 0.960 . S
H438 C437 0.960 . S
H439 N419 0.862 . S
O440 Co408 1.920 . S
O440 C413 1.289 . S
C441 O433 1.258 . S
C441 O434 1.266 . S
Co442 O445 1.970 1_545 S
Co442 N459 1.989 . S
Co442 O467 1.967 . S
Co442 O474 1.920 . S
Co443 O446 1.966 . S
Co443 N452 2.022 . S
Co443 N460 1.993 . S
Co443 O468 1.941 . S
C444 O445 1.258 . S
C444 O446 1.263 . S
O445 Co442 1.970 1_565 S
O445 C444 1.258 . S
O446 Co443 1.966 . S
O446 C444 1.263 . S
C447 O448 1.235 . S
C447 O474 1.289 . S
O448 C447 1.235 . S
C449 C451 1.400 . S
C449 N452 1.351 . S
C449 C454 1.501 . S
C450 C451 1.387 . S
C450 N453 1.341 . S
C451 C449 1.400 . S
C451 C450 1.387 . S
N452 Co443 2.022 . S
N452 C449 1.351 . S
N452 N453 1.365 . S
N453 C450 1.341 . S
N453 N452 1.365 . S
N453 H473 0.862 . S
C454 C449 1.501 . S
C454 H455 0.961 . S
C454 H456 0.961 . S
C454 H457 0.960 . S
H455 C454 0.961 . S
H456 C454 0.961 . S
H457 C454 0.960 . S
C458 N459 1.342 . S
C458 C462 1.401 . S
C458 C463 1.499 . S
N459 Co442 1.989 . S
N459 C458 1.342 . S
N459 N460 1.388 1_545 S
N460 Co443 1.993 . S
N460 N459 1.388 1_565 S
N460 C461 1.346 1_565 S
C461 N460 1.346 1_545 S
C461 C462 1.396 . S
C461 C471 1.510 1_545 S
C462 C458 1.401 . S
C462 C461 1.396 . S
C463 C458 1.499 . S
C463 H464 0.959 . S
C463 H465 0.960 . S
C463 H466 0.961 . S
H464 C463 0.959 . S
H465 C463 0.960 . S
H466 C463 0.961 . S
O467 Co442 1.967 . S
O467 C475 1.258 1_545 S
O468 Co443 1.941 . S
O468 C475 1.266 . S
H469 C471 0.959 . S
H470 C471 0.961 . S
C471 C461 1.510 1_565 S
C471 H469 0.959 . S
C471 H470 0.961 . S
C471 H472 0.960 . S
H472 C471 0.960 . S
H473 N453 0.862 . S
O474 Co442 1.920 . S
O474 C447 1.289 . S
C475 O467 1.258 1_565 S
C475 O468 1.266 . S
Co476 O479 1.970 . S
Co476 N493 1.989 . S
Co476 O501 1.967 . S
Co476 O508 1.920 . S
Co477 O480 1.966 . S
Co477 N486 2.022 . S
Co477 N494 1.993 . S
Co477 O502 1.941 . S
C478 O479 1.258 . S
C478 O480 1.263 . S
O479 Co476 1.970 . S
O479 C478 1.258 . S
O480 Co477 1.966 . S
O480 C478 1.263 . S
C481 O482 1.235 . S
C481 O508 1.289 . S
O482 C481 1.235 . S
C483 C485 1.400 . S
C483 N486 1.351 . S
C483 C488 1.501 . S
C484 C485 1.387 . S
C484 N487 1.341 . S
C485 C483 1.400 . S
C485 C484 1.387 . S
N486 Co477 2.022 . S
N486 C483 1.351 . S
N486 N487 1.365 . S
N487 C484 1.341 . S
N487 N486 1.365 . S
N487 H507 0.862 . S
C488 C483 1.501 . S
C488 H489 0.961 . S
C488 H490 0.961 . S
C488 H491 0.960 . S
H489 C488 0.961 . S
H490 C488 0.961 . S
H491 C488 0.960 . S
C492 N493 1.342 . S
C492 C496 1.401 . S
C492 C497 1.499 . S
N493 Co476 1.989 . S
N493 C492 1.342 . S
N493 N494 1.388 . S
N494 Co477 1.993 . S
N494 N493 1.388 . S
N494 C495 1.346 . S
C495 N494 1.346 . S
C495 C496 1.396 . S
C495 C505 1.510 . S
C496 C492 1.401 . S
C496 C495 1.396 . S
C497 C492 1.499 . S
C497 H498 0.959 . S
C497 H499 0.960 . S
C497 H500 0.961 . S
H498 C497 0.959 . S
H499 C497 0.960 . S
H500 C497 0.961 . S
O501 Co476 1.967 . S
O501 C509 1.258 . S
O502 Co477 1.941 . S
O502 C509 1.266 . S
H503 C505 0.959 . S
H504 C505 0.961 . S
C505 C495 1.510 . S
C505 H503 0.959 . S
C505 H504 0.961 . S
C505 H506 0.960 . S
H506 C505 0.960 . S
H507 N487 0.862 . S
O508 Co476 1.920 . S
O508 C481 1.289 . S
C509 O501 1.258 . S
C509 O502 1.266 . S
Co510 O513 1.970 . S
Co510 N527 1.989 . S
Co510 O535 1.967 . S
Co510 O542 1.920 . S
Co511 O514 1.966 . S
Co511 N520 2.022 . S
Co511 N528 1.993 . S
Co511 O536 1.941 . S
C512 O513 1.258 . S
C512 O514 1.263 . S
O513 Co510 1.970 . S
O513 C512 1.258 . S
O514 Co511 1.966 . S
O514 C512 1.263 . S
C515 O516 1.235 . S
C515 O542 1.289 . S
O516 C515 1.235 . S
C517 C519 1.400 . S
C517 N520 1.351 . S
C517 C522 1.501 . S
C518 C519 1.387 . S
C518 N521 1.341 . S
C519 C517 1.400 . S
C519 C518 1.387 . S
N520 Co511 2.022 . S
N520 C517 1.351 . S
N520 N521 1.365 . S
N521 C518 1.341 . S
N521 N520 1.365 . S
N521 H541 0.862 . S
C522 C517 1.501 . S
C522 H523 0.961 . S
C522 H524 0.961 . S
C522 H525 0.960 . S
H523 C522 0.961 . S
H524 C522 0.961 . S
H525 C522 0.960 . S
C526 N527 1.342 . S
C526 C530 1.401 . S
C526 C531 1.499 1_545 S
N527 Co510 1.989 . S
N527 C526 1.342 . S
N527 N528 1.388 . S
N528 Co511 1.993 . S
N528 N527 1.388 . S
N528 C529 1.346 . S
C529 N528 1.346 . S
C529 C530 1.396 . S
C529 C539 1.510 . S
C530 C526 1.401 . S
C530 C529 1.396 . S
C531 C526 1.499 1_565 S
C531 H532 0.959 . S
C531 H533 0.960 . S
C531 H534 0.961 . S
H532 C531 0.959 . S
H533 C531 0.960 . S
H534 C531 0.961 . S
O535 Co510 1.967 . S
O535 C543 1.258 . S
O536 Co511 1.941 . S
O536 C543 1.266 . S
H537 C539 0.959 . S
H538 C539 0.961 . S
C539 C529 1.510 . S
C539 H537 0.959 . S
C539 H538 0.961 . S
C539 H540 0.960 . S
H540 C539 0.960 . S
H541 N521 0.862 . S
O542 Co510 1.920 . S
O542 C515 1.289 . S
C543 O535 1.258 . S
C543 O536 1.266 . S
Co544 O547 1.970 . S
Co544 N561 1.989 1_655 S
Co544 O569 1.967 . S
Co544 O576 1.920 1_554 S
Co545 O548 1.966 . S
Co545 N554 2.022 . S
Co545 N562 1.993 . S
Co545 O570 1.941 1_455 S
C546 O547 1.258 . S
C546 O548 1.264 1_655 S
O547 Co544 1.970 . S
O547 C546 1.258 . S
O548 Co545 1.966 . S
O548 C546 1.264 1_455 S
C549 O550 1.235 1_655 S
C549 O576 1.289 . S
O550 C549 1.235 1_455 S
C551 C553 1.400 . S
C551 N554 1.351 . S
C551 C556 1.501 . S
C552 C553 1.387 . S
C552 N555 1.341 . S
C553 C551 1.400 . S
C553 C552 1.387 . S
N554 Co545 2.022 . S
N554 C551 1.351 . S
N554 N555 1.365 . S
N555 C552 1.341 . S
N555 N554 1.365 . S
N555 H575 0.862 . S
C556 C551 1.501 . S
C556 H557 0.961 . S
C556 H558 0.961 . S
C556 H559 0.960 . S
H557 C556 0.961 . S
H558 C556 0.961 . S
H559 C556 0.960 . S
C560 N561 1.342 . S
C560 C564 1.401 . S
C560 C565 1.499 . S
N561 Co544 1.989 1_455 S
N561 C560 1.342 . S
N561 N562 1.388 . S
N562 Co545 1.993 . S
N562 N561 1.388 . S
N562 C563 1.346 . S
C563 N562 1.346 . S
C563 C564 1.396 . S
C563 C573 1.510 . S
C564 C560 1.401 . S
C564 C563 1.396 . S
C565 C560 1.499 . S
C565 H566 0.959 . S
C565 H567 0.960 . S
C565 H568 0.961 . S
H566 C565 0.959 . S
H567 C565 0.960 . S
H568 C565 0.961 . S
O569 Co544 1.967 . S
O569 C577 1.258 . S
O570 Co545 1.941 1_655 S
O570 C577 1.266 . S
H571 C573 0.959 . S
H572 C573 0.961 . S
C573 C563 1.510 . S
C573 H571 0.959 . S
C573 H572 0.961 . S
C573 H574 0.960 . S
H574 C573 0.960 . S
H575 N555 0.862 . S
O576 Co544 1.920 1_556 S
O576 C549 1.289 . S
C577 O569 1.258 . S
C577 O570 1.266 . S
Co578 O581 1.970 . S
Co578 N595 1.989 . S
Co578 O603 1.967 1_554 S
Co578 O610 1.920 . S
Co579 O582 1.966 1_556 S
Co579 N588 2.022 . S
Co579 N596 1.993 . S
Co579 O604 1.941 . S
C580 O581 1.258 . S
C580 O582 1.263 . S
O581 Co578 1.970 . S
O581 C580 1.258 . S
O582 Co579 1.966 1_554 S
O582 C580 1.263 . S
C583 O584 1.235 . S
C583 O610 1.289 . S
O584 C583 1.235 . S
C585 C587 1.400 . S
C585 N588 1.351 . S
C585 C590 1.501 . S
C586 C587 1.387 . S
C586 N589 1.341 . S
C587 C585 1.400 . S
C587 C586 1.387 . S
N588 Co579 2.022 . S
N588 C585 1.351 . S
N588 N589 1.365 . S
N589 C586 1.341 . S
N589 N588 1.365 . S
N589 H609 0.862 . S
C590 C585 1.501 . S
C590 H591 0.961 . S
C590 H592 0.961 . S
C590 H593 0.960 . S
H591 C590 0.961 . S
H592 C590 0.961 . S
H593 C590 0.960 . S
C594 N595 1.342 . S
C594 C598 1.401 1_554 S
C594 C599 1.499 . S
N595 Co578 1.989 . S
N595 C594 1.342 . S
N595 N596 1.388 1_554 S
N596 Co579 1.993 . S
N596 N595 1.388 1_556 S
N596 C597 1.346 . S
C597 N596 1.346 . S
C597 C598 1.396 . S
C597 C607 1.510 . S
C598 C594 1.401 1_556 S
C598 C597 1.396 . S
C599 C594 1.499 . S
C599 H600 0.959 . S
C599 H601 0.960 . S
C599 H602 0.961 . S
H600 C599 0.959 . S
H601 C599 0.960 . S
H602 C599 0.961 . S
O603 Co578 1.967 1_556 S
O603 C611 1.258 . S
O604 Co579 1.941 . S
O604 C611 1.266 . S
H605 C607 0.959 . S
H606 C607 0.961 . S
C607 C597 1.510 . S
C607 H605 0.959 . S
C607 H606 0.961 . S
C607 H608 0.960 . S
H608 C607 0.960 . S
H609 N589 0.862 . S
O610 Co578 1.920 . S
O610 C583 1.289 . S
C611 O603 1.258 . S
C611 O604 1.266 . S
Co612 O615 1.970 . S
Co612 N629 1.989 . S
Co612 O637 1.967 . S
Co612 O644 1.920 . S
Co613 O616 1.966 . S
Co613 N622 2.022 . S
Co613 N630 1.993 . S
Co613 O638 1.941 . S
C614 O615 1.258 . S
C614 O616 1.263 . S
O615 Co612 1.970 . S
O615 C614 1.258 . S
O616 Co613 1.966 . S
O616 C614 1.263 . S
C617 O618 1.235 . S
C617 O644 1.289 . S
O618 C617 1.235 . S
C619 C621 1.400 . S
C619 N622 1.351 . S
C619 C624 1.501 . S
C620 C621 1.387 . S
C620 N623 1.341 . S
C621 C619 1.400 . S
C621 C620 1.387 . S
N622 Co613 2.022 . S
N622 C619 1.351 . S
N622 N623 1.365 . S
N623 C620 1.341 . S
N623 N622 1.365 . S
N623 H643 0.862 . S
C624 C619 1.501 . S
C624 H625 0.961 . S
C624 H626 0.961 . S
C624 H627 0.960 . S
H625 C624 0.961 . S
H626 C624 0.961 . S
H627 C624 0.960 . S
C628 N629 1.342 . S
C628 C632 1.401 . S
C628 C633 1.499 . S
N629 Co612 1.989 . S
N629 C628 1.342 . S
N629 N630 1.388 . S
N630 Co613 1.993 . S
N630 N629 1.388 . S
N630 C631 1.346 . S
C631 N630 1.346 . S
C631 C632 1.396 . S
C631 C641 1.510 . S
C632 C628 1.401 . S
C632 C631 1.396 . S
C633 C628 1.499 . S
C633 H634 0.959 . S
C633 H635 0.960 . S
C633 H636 0.961 . S
H634 C633 0.959 . S
H635 C633 0.960 . S
H636 C633 0.961 . S
O637 Co612 1.967 . S
O637 C645 1.258 . S
O638 Co613 1.941 . S
O638 C645 1.266 . S
H639 C641 0.959 . S
H640 C641 0.961 . S
C641 C631 1.510 . S
C641 H639 0.959 . S
C641 H640 0.961 . S
C641 H642 0.960 . S
H642 C641 0.960 . S
H643 N623 0.862 . S
O644 Co612 1.920 . S
O644 C617 1.289 . S
C645 O637 1.258 . S
C645 O638 1.266 . S
Co646 O649 1.970 . S
Co646 N663 1.989 . S
Co646 O671 1.967 . S
Co646 O678 1.920 . S
Co647 O650 1.966 . S
Co647 N656 2.022 . S
Co647 N664 1.993 . S
Co647 O672 1.941 . S
C648 O649 1.258 . S
C648 O650 1.263 . S
O649 Co646 1.970 . S
O649 C648 1.258 . S
O650 Co647 1.966 . S
O650 C648 1.263 . S
C651 O652 1.235 . S
C651 O678 1.289 . S
O652 C651 1.235 . S
C653 C655 1.400 1_455 S
C653 N656 1.351 . S
C653 C658 1.501 . S
C654 C655 1.387 . S
C654 N657 1.341 1_655 S
C655 C653 1.400 1_655 S
C655 C654 1.387 . S
N656 Co647 2.022 . S
N656 C653 1.351 . S
N656 N657 1.365 . S
N657 C654 1.341 1_455 S
N657 N656 1.365 . S
N657 H677 0.862 . S
C658 C653 1.501 . S
C658 H659 0.961 . S
C658 H660 0.961 1_455 S
C658 H661 0.960 . S
H659 C658 0.961 . S
H660 C658 0.961 1_655 S
H661 C658 0.960 . S
C662 N663 1.342 1_655 S
C662 C666 1.401 . S
C662 C667 1.499 1_655 S
N663 Co646 1.989 . S
N663 C662 1.342 1_455 S
N663 N664 1.388 . S
N664 Co647 1.993 . S
N664 N663 1.388 . S
N664 C665 1.346 1_455 S
C665 N664 1.346 1_655 S
C665 C666 1.396 . S
C665 C675 1.510 . S
C666 C662 1.401 . S
C666 C665 1.396 . S
C667 C662 1.499 1_455 S
C667 H668 0.959 . S
C667 H669 0.959 1_455 S
C667 H670 0.961 . S
H668 C667 0.959 . S
H669 C667 0.959 1_655 S
H670 C667 0.961 . S
O671 Co646 1.967 . S
O671 C679 1.258 . S
O672 Co647 1.941 . S
O672 C679 1.266 . S
H673 C675 0.959 . S
H674 C675 0.961 . S
C675 C665 1.510 . S
C675 H673 0.959 . S
C675 H674 0.961 . S
C675 H676 0.960 . S
H676 C675 0.960 . S
H677 N657 0.862 . S
O678 Co646 1.920 . S
O678 C651 1.289 . S
C679 O671 1.258 . S
C679 O672 1.266 . S
Co680 O683 1.970 . S
Co680 N697 1.989 . S
Co680 O705 1.967 . S
Co680 O712 1.920 . S
Co681 O684 1.966 . S
Co681 N690 2.022 . S
Co681 N698 1.993 . S
Co681 O706 1.941 . S
C682 O683 1.258 . S
C682 O684 1.263 . S
O683 Co680 1.970 . S
O683 C682 1.258 . S
O684 Co681 1.966 . S
O684 C682 1.263 . S
C685 O686 1.235 . S
C685 O712 1.289 . S
O686 C685 1.235 . S
C687 C689 1.400 . S
C687 N690 1.351 . S
C687 C692 1.501 . S
C688 C689 1.387 . S
C688 N691 1.341 . S
C689 C687 1.400 . S
C689 C688 1.387 . S
N690 Co681 2.022 . S
N690 C687 1.351 . S
N690 N691 1.365 . S
N691 C688 1.341 . S
N691 N690 1.365 . S
N691 H711 0.862 . S
C692 C687 1.501 . S
C692 H693 0.961 . S
C692 H694 0.961 . S
C692 H695 0.960 . S
H693 C692 0.961 . S
H694 C692 0.961 . S
H695 C692 0.960 . S
C696 N697 1.342 . S
C696 C700 1.401 . S
C696 C701 1.499 1_455 S
N697 Co680 1.989 . S
N697 C696 1.342 . S
N697 N698 1.388 . S
N698 Co681 1.993 . S
N698 N697 1.388 . S
N698 C699 1.346 . S
C699 N698 1.346 . S
C699 C700 1.396 . S
C699 C709 1.510 . S
C700 C696 1.401 . S
C700 C699 1.396 . S
C701 C696 1.499 1_655 S
C701 H702 0.959 . S
C701 H703 0.960 . S
C701 H704 0.961 . S
H702 C701 0.959 . S
H703 C701 0.960 . S
H704 C701 0.961 . S
O705 Co680 1.967 . S
O705 C713 1.258 . S
O706 Co681 1.941 . S
O706 C713 1.266 . S
H707 C709 0.959 . S
H708 C709 0.961 . S
C709 C699 1.510 . S
C709 H707 0.959 . S
C709 H708 0.961 . S
C709 H710 0.960 . S
H710 C709 0.960 . S
H711 N691 0.862 . S
O712 Co680 1.920 . S
O712 C685 1.289 . S
C713 O705 1.258 . S
C713 O706 1.266 . S
Co714 O717 1.970 . S
Co714 N731 1.989 . S
Co714 O739 1.967 . S
Co714 O746 1.920 . S
Co715 O718 1.966 . S
Co715 N724 2.022 . S
Co715 N732 1.993 . S
Co715 O740 1.941 . S
C716 O717 1.258 . S
C716 O718 1.263 . S
O717 Co714 1.970 . S
O717 C716 1.258 . S
O718 Co715 1.966 . S
O718 C716 1.263 . S
C719 O720 1.235 . S
C719 O746 1.289 . S
O720 C719 1.235 . S
C721 C723 1.400 . S
C721 N724 1.351 . S
C721 C726 1.501 . S
C722 C723 1.387 . S
C722 N725 1.341 . S
C723 C721 1.400 . S
C723 C722 1.387 . S
N724 Co715 2.022 . S
N724 C721 1.351 . S
N724 N725 1.365 . S
N725 C722 1.341 . S
N725 N724 1.365 . S
N725 H745 0.862 . S
C726 C721 1.501 . S
C726 H727 0.961 . S
C726 H728 0.961 . S
C726 H729 0.960 . S
H727 C726 0.961 . S
H728 C726 0.961 . S
H729 C726 0.960 . S
C730 N731 1.342 . S
C730 C734 1.401 . S
C730 C735 1.499 . S
N731 Co714 1.989 . S
N731 C730 1.342 . S
N731 N732 1.388 . S
N732 Co715 1.993 . S
N732 N731 1.388 . S
N732 C733 1.346 . S
C733 N732 1.346 . S
C733 C734 1.396 . S
C733 C743 1.510 . S
C734 C730 1.401 . S
C734 C733 1.396 . S
C735 C730 1.499 . S
C735 H736 0.959 . S
C735 H737 0.960 . S
C735 H738 0.961 . S
H736 C735 0.959 . S
H737 C735 0.960 . S
H738 C735 0.961 . S
O739 Co714 1.967 . S
O739 C747 1.258 . S
O740 Co715 1.941 . S
O740 C747 1.266 . S
H741 C743 0.959 . S
H742 C743 0.961 . S
C743 C733 1.510 . S
C743 H741 0.959 . S
C743 H742 0.961 . S
C743 H744 0.960 . S
H744 C743 0.960 . S
H745 N725 0.862 . S
O746 Co714 1.920 . S
O746 C719 1.289 . S
C747 O739 1.258 . S
C747 O740 1.266 . S
Co748 O751 1.970 1_455 S
Co748 N765 1.989 . S
Co748 O773 1.967 . S
Co748 O780 1.920 . S
Co749 O752 1.966 . S
Co749 N758 2.022 . S
Co749 N766 1.993 . S
Co749 O774 1.941 . S
C750 O751 1.258 . S
C750 O752 1.263 . S
O751 Co748 1.970 1_655 S
O751 C750 1.258 . S
O752 Co749 1.966 . S
O752 C750 1.263 . S
C753 O754 1.235 . S
C753 O780 1.289 . S
O754 C753 1.235 . S
C755 C757 1.400 . S
C755 N758 1.351 . S
C755 C760 1.501 . S
C756 C757 1.387 . S
C756 N759 1.341 . S
C757 C755 1.400 . S
C757 C756 1.387 . S
N758 Co749 2.022 . S
N758 C755 1.351 . S
N758 N759 1.365 . S
N759 C756 1.341 . S
N759 N758 1.365 . S
N759 H779 0.862 . S
C760 C755 1.501 . S
C760 H761 0.961 . S
C760 H762 0.961 . S
C760 H763 0.960 . S
H761 C760 0.961 . S
H762 C760 0.961 . S
H763 C760 0.960 . S
C764 N765 1.342 . S
C764 C768 1.401 . S
C764 C769 1.499 . S
N765 Co748 1.989 . S
N765 C764 1.342 . S
N765 N766 1.388 1_455 S
N766 Co749 1.993 . S
N766 N765 1.388 1_655 S
N766 C767 1.346 1_655 S
C767 N766 1.346 1_455 S
C767 C768 1.396 . S
C767 C777 1.510 1_455 S
C768 C764 1.401 . S
C768 C767 1.396 . S
C769 C764 1.499 . S
C769 H770 0.959 . S
C769 H771 0.960 . S
C769 H772 0.961 . S
H770 C769 0.959 . S
H771 C769 0.960 . S
H772 C769 0.961 . S
O773 Co748 1.967 . S
O773 C781 1.258 1_455 S
O774 Co749 1.941 . S
O774 C781 1.266 . S
H775 C777 0.959 . S
H776 C777 0.961 . S
C777 C767 1.510 1_655 S
C777 H775 0.959 . S
C777 H776 0.961 . S
C777 H778 0.960 . S
H778 C777 0.960 . S
H779 N759 0.862 . S
O780 Co748 1.920 . S
O780 C753 1.289 . S
C781 O773 1.258 1_655 S
C781 O774 1.266 . S
Co782 O785 1.970 . S
Co782 N799 1.989 . S
Co782 O807 1.967 . S
Co782 O814 1.920 . S
Co783 O786 1.966 . S
Co783 N792 2.022 . S
Co783 N800 1.993 . S
Co783 O808 1.941 . S
C784 O785 1.258 . S
C784 O786 1.263 . S
O785 Co782 1.970 . S
O785 C784 1.258 . S
O786 Co783 1.966 . S
O786 C784 1.263 . S
C787 O788 1.235 . S
C787 O814 1.289 . S
O788 C787 1.235 . S
C789 C791 1.400 . S
C789 N792 1.351 . S
C789 C794 1.501 . S
C790 C791 1.387 . S
C790 N793 1.341 . S
C791 C789 1.400 . S
C791 C790 1.387 . S
N792 Co783 2.022 . S
N792 C789 1.351 . S
N792 N793 1.365 . S
N793 C790 1.341 . S
N793 N792 1.365 . S
N793 H813 0.862 . S
C794 C789 1.501 . S
C794 H795 0.961 . S
C794 H796 0.961 . S
C794 H797 0.960 . S
H795 C794 0.961 . S
H796 C794 0.961 . S
H797 C794 0.960 . S
C798 N799 1.342 . S
C798 C802 1.401 . S
C798 C803 1.499 . S
N799 Co782 1.989 . S
N799 C798 1.342 . S
N799 N800 1.388 . S
N800 Co783 1.993 . S
N800 N799 1.388 . S
N800 C801 1.346 . S
C801 N800 1.346 . S
C801 C802 1.396 . S
C801 C811 1.510 . S
C802 C798 1.401 . S
C802 C801 1.396 . S
C803 C798 1.499 . S
C803 H804 0.959 . S
C803 H805 0.960 . S
C803 H806 0.961 . S
H804 C803 0.959 . S
H805 C803 0.960 . S
H806 C803 0.961 . S
O807 Co782 1.967 . S
O807 C815 1.258 . S
O808 Co783 1.941 . S
O808 C815 1.266 . S
H809 C811 0.959 . S
H810 C811 0.961 . S
C811 C801 1.510 . S
C811 H809 0.959 . S
C811 H810 0.961 . S
C811 H812 0.960 . S
H812 C811 0.960 . S
H813 N793 0.862 . S
O814 Co782 1.920 . S
O814 C787 1.289 . S
C815 O807 1.258 . S
C815 O808 1.266 . S
C816 C817 1.369 . S
C816 C818 1.419 . S
C816 H820 0.930 . S
C817 C816 1.369 . S
C817 C826 1.429 . S
C818 C816 1.419 . S
C818 C819 1.363 . S
C818 H821 0.929 . S
C819 C818 1.363 . S
C819 C825 1.428 . S
H820 C816 0.930 . S
H821 C818 0.929 . S
S822 N823 1.613 . S
S822 N824 1.610 . S
N823 S822 1.613 . S
N823 C826 1.350 . S
N824 S822 1.610 . S
N824 C825 1.351 . S
C825 C819 1.428 . S
C825 N824 1.351 . S
C825 C826 1.434 . S
C826 C817 1.429 . S
C826 N823 1.350 . S
C826 C825 1.434 . S
C827 C828 1.369 . S
C827 C829 1.419 1_556 S
C827 H831 0.930 1_556 S
C828 C827 1.369 . S
C828 C837 1.429 . S
C829 C827 1.419 1_554 S
C829 C830 1.363 1_554 S
C829 H832 0.929 . S
C830 C829 1.363 1_556 S
C830 C836 1.428 . S
H831 C827 0.930 1_554 S
H832 C829 0.929 . S
S833 N834 1.613 . S
S833 N835 1.610 . S
N834 S833 1.613 . S
N834 C837 1.350 . S
N835 S833 1.610 . S
N835 C836 1.351 . S
C836 C830 1.428 . S
C836 N835 1.351 . S
C836 C837 1.434 . S
C837 C828 1.429 . S
C837 N834 1.350 . S
C837 C836 1.434 . S
C838 C839 1.369 . S
C838 C840 1.419 . S
C838 H842 0.930 . S
C839 C838 1.369 . S
C839 C848 1.429 . S
C840 C838 1.419 . S
C840 C841 1.363 . S
C840 H843 0.929 . S
C841 C840 1.363 . S
C841 C847 1.428 . S
H842 C838 0.930 . S
H843 C840 0.929 . S
S844 N845 1.613 . S
S844 N846 1.610 . S
N845 S844 1.613 . S
N845 C848 1.350 . S
N846 S844 1.610 . S
N846 C847 1.351 . S
C847 C841 1.428 . S
C847 N846 1.351 . S
C847 C848 1.434 . S
C848 C839 1.429 . S
C848 N845 1.350 . S
C848 C847 1.434 . S
C849 C850 1.369 . S
C849 C851 1.419 . S
C849 H853 0.930 . S
C850 C849 1.369 . S
C850 C859 1.429 . S
C851 C849 1.419 . S
C851 C852 1.363 . S
C851 H854 0.929 . S
C852 C851 1.363 . S
C852 C858 1.428 . S
H853 C849 0.930 . S
H854 C851 0.929 . S
S855 N856 1.613 . S
S855 N857 1.610 . S
N856 S855 1.613 . S
N856 C859 1.350 . S
N857 S855 1.610 . S
N857 C858 1.351 . S
C858 C852 1.428 . S
C858 N857 1.351 . S
C858 C859 1.434 . S
C859 C850 1.429 . S
C859 N856 1.350 . S
C859 C858 1.434 . S
C860 C861 1.369 . S
C860 C862 1.419 . S
C860 H864 0.930 . S
C861 C860 1.369 . S
C861 C870 1.429 . S
C862 C860 1.419 . S
C862 C863 1.363 . S
C862 H865 0.929 . S
C863 C862 1.363 . S
C863 C869 1.428 . S
H864 C860 0.930 . S
H865 C862 0.929 . S
S866 N867 1.613 . S
S866 N868 1.610 . S
N867 S866 1.613 . S
N867 C870 1.350 . S
N868 S866 1.610 . S
N868 C869 1.351 . S
C869 C863 1.428 . S
C869 N868 1.351 . S
C869 C870 1.434 . S
C870 C861 1.429 . S
C870 N867 1.350 . S
C870 C869 1.434 . S
C871 C872 1.369 . S
C871 C873 1.419 . S
C871 H875 0.930 . S
C872 C871 1.369 . S
C872 C881 1.429 . S
C873 C871 1.419 . S
C873 C874 1.363 . S
C873 H876 0.929 . S
C874 C873 1.363 . S
C874 C880 1.428 . S
H875 C871 0.930 . S
H876 C873 0.929 . S
S877 N878 1.613 . S
S877 N879 1.610 . S
N878 S877 1.613 . S
N878 C881 1.350 . S
N879 S877 1.610 . S
N879 C880 1.351 . S
C880 C874 1.428 . S
C880 N879 1.351 . S
C880 C881 1.434 . S
C881 C872 1.429 . S
C881 N878 1.350 . S
C881 C880 1.434 . S
C882 C883 1.369 . S
C882 C884 1.419 . S
C882 H886 0.930 . S
C883 C882 1.369 . S
C883 C892 1.429 1_655 S
C884 C882 1.419 . S
C884 C885 1.363 . S
C884 H887 0.929 . S
C885 C884 1.363 . S
C885 C891 1.405 1_655 S
H886 C882 0.930 . S
H887 C884 0.929 . S
S888 N889 1.613 . S
S888 N890 1.610 . S
N889 S888 1.613 . S
N889 C892 1.350 . S
N890 S888 1.610 . S
N890 C891 1.366 . S
C891 C885 1.405 1_455 S
C891 N890 1.366 . S
C891 C892 1.445 . S
C892 C883 1.429 1_455 S
C892 N889 1.350 . S
C892 C891 1.445 . S
C893 C894 1.369 . S
C893 C895 1.419 . S
C893 H897 0.930 . S
C894 C893 1.369 . S
C894 C903 1.429 . S
C895 C893 1.419 . S
C895 C896 1.363 . S
C895 H898 0.929 . S
C896 C895 1.363 . S
C896 C902 1.428 . S
H897 C893 0.930 . S
H898 C895 0.929 . S
S899 N900 1.613 . S
S899 N901 1.610 . S
N900 S899 1.613 . S
N900 C903 1.350 . S
N901 S899 1.610 . S
N901 C902 1.351 . S
C902 C896 1.428 . S
C902 N901 1.351 . S
C902 C903 1.434 . S
C903 C894 1.429 . S
C903 N900 1.350 . S
C903 C902 1.434 . S
C904 C905 1.369 . S
C904 C906 1.419 . S
C904 H908 0.930 . S
C905 C904 1.369 . S
C905 C914 1.429 . S
C906 C904 1.419 . S
C906 C907 1.363 . S
C906 H909 0.929 . S
C907 C906 1.363 . S
C907 C913 1.428 . S
H908 C904 0.930 . S
H909 C906 0.929 . S
S910 N911 1.613 . S
S910 N912 1.610 . S
N911 S910 1.613 . S
N911 C914 1.350 . S
N912 S910 1.610 . S
N912 C913 1.351 . S
C913 C907 1.428 . S
C913 N912 1.351 . S
C913 C914 1.434 . S
C914 C905 1.429 . S
C914 N911 1.350 . S
C914 C913 1.434 . S
C915 C916 1.369 . S
C915 C917 1.419 . S
C915 H919 0.930 . S
C916 C915 1.369 . S
C916 C925 1.429 . S
C917 C915 1.419 . S
C917 C918 1.363 . S
C917 H920 0.929 . S
C918 C917 1.363 . S
C918 C924 1.428 . S
H919 C915 0.930 . S
H920 C917 0.929 . S
S921 N922 1.613 . S
S921 N923 1.610 . S
N922 S921 1.613 . S
N922 C925 1.350 . S
N923 S921 1.610 . S
N923 C924 1.351 . S
C924 C918 1.428 . S
C924 N923 1.351 . S
C924 C925 1.434 . S
C925 C916 1.429 . S
C925 N922 1.350 . S
C925 C924 1.434 . S
C926 C927 1.369 . S
C926 C928 1.419 . S
C926 H930 0.930 . S
C927 C926 1.369 . S
C927 C936 1.429 . S
C928 C926 1.419 . S
C928 C929 1.363 . S
C928 H931 0.929 1_565 S
C929 C928 1.363 . S
C929 C935 1.428 . S
H930 C926 0.930 . S
H931 C928 0.929 1_545 S
S932 N933 1.613 . S
S932 N934 1.610 . S
N933 S932 1.613 . S
N933 C936 1.350 . S
N934 S932 1.610 . S
N934 C935 1.351 . S
C935 C929 1.428 . S
C935 N934 1.351 . S
C935 C936 1.434 . S
C936 C927 1.429 . S
C936 N933 1.350 . S
C936 C935 1.434 . S
C937 C938 1.369 . S
C937 C939 1.419 . S
C937 H941 0.930 . S
C938 C937 1.369 . S
C938 C947 1.429 . S
C939 C937 1.419 . S
C939 C940 1.363 . S
C939 H942 0.929 . S
C940 C939 1.363 . S
C940 C946 1.428 . S
H941 C937 0.930 . S
H942 C939 0.929 . S
S943 N944 1.613 . S
S943 N945 1.610 . S
N944 S943 1.613 . S
N944 C947 1.350 . S
N945 S943 1.610 . S
N945 C946 1.351 . S
C946 C940 1.428 . S
C946 N945 1.351 . S
C946 C947 1.434 . S
C947 C938 1.429 . S
C947 N944 1.350 . S
C947 C946 1.434 . S
C948 C949 1.369 . S
C948 C950 1.419 . S
C948 H952 0.930 . S
C949 C948 1.369 . S
C949 C958 1.429 . S
C950 C948 1.419 . S
C950 C951 1.363 . S
C950 H953 0.929 . S
C951 C950 1.363 . S
C951 C957 1.428 . S
H952 C948 0.930 . S
H953 C950 0.929 . S
S954 N955 1.613 . S
S954 N956 1.610 . S
N955 S954 1.613 . S
N955 C958 1.350 . S
N956 S954 1.610 . S
N956 C957 1.351 . S
C957 C951 1.428 . S
C957 N956 1.351 . S
C957 C958 1.434 . S
C958 C949 1.429 . S
C958 N955 1.350 . S
C958 C957 1.434 . S
C959 C960 1.369 . S
C959 C961 1.419 . S
C959 H963 0.930 . S
C960 C959 1.369 . S
C960 C969 1.429 . S
C961 C959 1.419 . S
C961 C962 1.363 . S
C961 H964 0.929 . S
C962 C961 1.363 . S
C962 C968 1.428 . S
H963 C959 0.930 . S
H964 C961 0.929 . S
S965 N966 1.613 . S
S965 N967 1.610 . S
N966 S965 1.613 . S
N966 C969 1.350 . S
N967 S965 1.610 . S
N967 C968 1.351 . S
C968 C962 1.428 . S
C968 N967 1.351 . S
C968 C969 1.434 . S
C969 C960 1.429 . S
C969 N966 1.350 . S
C969 C968 1.434 . S
C970 C971 1.369 . S
C970 C972 1.419 . S
C970 H974 0.930 . S
C971 C970 1.369 . S
C971 C980 1.429 . S
C972 C970 1.419 . S
C972 C973 1.363 . S
C972 H975 0.929 . S
C973 C972 1.363 . S
C973 C979 1.428 . S
H974 C970 0.930 . S
H975 C972 0.929 . S
S976 N977 1.613 . S
S976 N978 1.610 . S
N977 S976 1.613 . S
N977 C980 1.350 . S
N978 S976 1.610 . S
N978 C979 1.351 . S
C979 C973 1.428 . S
C979 N978 1.351 . S
C979 C980 1.434 . S
C980 C971 1.429 . S
C980 N977 1.350 . S
C980 C979 1.434 . S
C981 C982 1.369 . S
C981 C983 1.419 . S
C981 H985 0.930 . S
C982 C981 1.369 . S
C982 C991 1.429 . S
C983 C981 1.419 . S
C983 C984 1.363 . S
C983 H986 0.929 . S
C984 C983 1.363 . S
C984 C990 1.428 . S
H985 C981 0.930 . S
H986 C983 0.929 . S
S987 N988 1.613 . S
S987 N989 1.610 . S
N988 S987 1.613 . S
N988 C991 1.350 . S
N989 S987 1.610 . S
N989 C990 1.351 . S
C990 C984 1.428 . S
C990 N989 1.351 . S
C990 C991 1.434 . S
C991 C982 1.429 . S
C991 N988 1.350 . S
C991 C990 1.434 . S
C992 C993 1.369 . S
C992 C994 1.419 . S
C992 H996 0.930 . S
C993 C992 1.369 . S
C993 C1002 1.429 . S
C994 C992 1.419 . S
C994 C995 1.363 . S
C994 H997 0.929 . S
C995 C994 1.363 . S
C995 C1001 1.428 . S
H996 C992 0.930 . S
H997 C994 0.929 . S
S998 N999 1.613 . S
S998 N1000 1.610 . S
N999 S998 1.613 . S
N999 C1002 1.350 . S
N1000 S998 1.610 . S
N1000 C1001 1.351 . S
C1001 C995 1.428 . S
C1001 N1000 1.351 . S
C1001 C1002 1.434 . S
C1002 C993 1.429 . S
C1002 N999 1.350 . S
C1002 C1001 1.434 . S
C1003 C1004 1.369 . S
C1003 C1005 1.419 . S
C1003 H1007 0.930 . S
C1004 C1003 1.369 . S
C1004 C1013 1.429 . S
C1005 C1003 1.419 . S
C1005 C1006 1.363 . S
C1005 H1008 0.929 . S
C1006 C1005 1.363 . S
C1006 C1012 1.428 . S
H1007 C1003 0.930 . S
H1008 C1005 0.929 . S
S1009 N1010 1.613 . S
S1009 N1011 1.610 . S
N1010 S1009 1.613 . S
N1010 C1013 1.350 . S
N1011 S1009 1.610 . S
N1011 C1012 1.351 . S
C1012 C1006 1.428 . S
C1012 N1011 1.351 . S
C1012 C1013 1.434 . S
C1013 C1004 1.429 . S
C1013 N1010 1.350 . S
C1013 C1012 1.434 . S
C1014 C1015 1.369 . S
C1014 C1016 1.419 . S
C1014 H1018 0.930 1_655 S
C1015 C1014 1.369 . S
C1015 C1024 1.429 . S
C1016 C1014 1.419 . S
C1016 C1017 1.363 . S
C1016 H1019 0.929 . S
C1017 C1016 1.363 . S
C1017 C1023 1.428 . S
H1018 C1014 0.930 1_455 S
H1019 C1016 0.929 . S
S1020 N1021 1.613 . S
S1020 N1022 1.610 1_554 S
N1021 S1020 1.613 . S
N1021 C1024 1.350 1_554 S
N1022 S1020 1.610 1_556 S
N1022 C1023 1.351 . S
C1023 C1017 1.428 . S
C1023 N1022 1.351 . S
C1023 C1024 1.434 . S
C1024 C1015 1.429 . S
C1024 N1021 1.350 1_556 S
C1024 C1023 1.434 . S
C1025 C1026 1.369 . S
C1025 C1027 1.419 . S
C1025 H1029 0.930 . S
C1026 C1025 1.369 . S
C1026 C1035 1.429 . S
C1027 C1025 1.419 . S
C1027 C1028 1.363 . S
C1027 H1030 0.929 . S
C1028 C1027 1.363 . S
C1028 C1034 1.428 . S
H1029 C1025 0.930 . S
H1030 C1027 0.929 . S
S1031 N1032 1.613 . S
S1031 N1033 1.610 . S
N1032 S1031 1.613 . S
N1032 C1035 1.350 . S
N1033 S1031 1.610 . S
N1033 C1034 1.351 . S
C1034 C1028 1.428 . S
C1034 N1033 1.351 . S
C1034 C1035 1.434 . S
C1035 C1026 1.429 . S
C1035 N1032 1.350 . S
C1035 C1034 1.434 . S
C1036 C1037 1.369 . S
C1036 C1038 1.419 . S
C1036 H1040 0.930 . S
C1037 C1036 1.369 . S
C1037 C1046 1.429 . S
C1038 C1036 1.419 . S
C1038 C1039 1.363 . S
C1038 H1041 0.929 . S
C1039 C1038 1.363 . S
C1039 C1045 1.428 . S
H1040 C1036 0.930 . S
H1041 C1038 0.929 . S
S1042 N1043 1.613 . S
S1042 N1044 1.610 . S
N1043 S1042 1.613 . S
N1043 C1046 1.350 . S
N1044 S1042 1.610 . S
N1044 C1045 1.351 . S
C1045 C1039 1.428 . S
C1045 N1044 1.351 . S
C1045 C1046 1.434 . S
C1046 C1037 1.429 . S
C1046 N1043 1.350 . S
C1046 C1045 1.434 . S
C1047 C1048 1.369 . S
C1047 C1049 1.419 . S
C1047 H1051 0.930 . S
C1048 C1047 1.369 . S
C1048 C1057 1.429 . S
C1049 C1047 1.419 . S
C1049 C1050 1.363 . S
C1049 H1052 0.929 . S
C1050 C1049 1.363 . S
C1050 C1056 1.428 . S
H1051 C1047 0.930 . S
H1052 C1049 0.929 . S
S1053 N1054 1.613 . S
S1053 N1055 1.610 . S
N1054 S1053 1.613 . S
N1054 C1057 1.350 . S
N1055 S1053 1.610 . S
N1055 C1056 1.351 . S
C1056 C1050 1.428 . S
C1056 N1055 1.351 . S
C1056 C1057 1.434 . S
C1057 C1048 1.429 . S
C1057 N1054 1.350 . S
C1057 C1056 1.434 . S
C1058 C1059 1.369 . S
C1058 C1060 1.419 1_655 S
C1058 H1062 0.930 . S
C1059 C1058 1.369 . S
C1059 C1068 1.429 . S
C1060 C1058 1.419 1_455 S
C1060 C1061 1.363 1_455 S
C1060 H1063 0.929 . S
C1061 C1060 1.363 1_655 S
C1061 C1067 1.428 . S
H1062 C1058 0.930 . S
H1063 C1060 0.929 . S
S1064 N1065 1.613 . S
S1064 N1066 1.610 . S
N1065 S1064 1.613 . S
N1065 C1068 1.350 . S
N1066 S1064 1.610 . S
N1066 C1067 1.351 . S
C1067 C1061 1.428 . S
C1067 N1066 1.351 . S
C1067 C1068 1.434 . S
C1068 C1059 1.429 . S
C1068 N1065 1.350 . S
C1068 C1067 1.434 . S
C1069 C1070 1.369 . S
C1069 C1071 1.419 . S
C1069 H1073 0.930 . S
C1070 C1069 1.369 . S
C1070 C1079 1.429 . S
C1071 C1069 1.419 . S
C1071 C1072 1.363 . S
C1071 H1074 0.929 . S
C1072 C1071 1.363 . S
C1072 C1078 1.428 . S
H1073 C1069 0.930 . S
H1074 C1071 0.929 . S
S1075 N1076 1.613 . S
S1075 N1077 1.610 . S
N1076 S1075 1.613 . S
N1076 C1079 1.350 . S
N1077 S1075 1.610 . S
N1077 C1078 1.351 . S
C1078 C1072 1.428 . S
C1078 N1077 1.351 . S
C1078 C1079 1.434 . S
C1079 C1070 1.429 . S
C1079 N1076 1.350 . S
C1079 C1078 1.434 . S
C1080 C1081 1.369 . S
C1080 C1082 1.419 . S
C1080 H1084 0.930 . S
C1081 C1080 1.369 . S
C1081 C1090 1.429 . S
C1082 C1080 1.419 . S
C1082 C1083 1.363 . S
C1082 H1085 0.929 . S
C1083 C1082 1.363 . S
C1083 C1089 1.428 . S
H1084 C1080 0.930 . S
H1085 C1082 0.929 . S
S1086 N1087 1.613 . S
S1086 N1088 1.610 . S
N1087 S1086 1.613 . S
N1087 C1090 1.350 . S
N1088 S1086 1.610 . S
N1088 C1089 1.351 . S
C1089 C1083 1.428 . S
C1089 N1088 1.351 . S
C1089 C1090 1.434 . S
C1090 C1081 1.429 . S
C1090 N1087 1.350 . S
C1090 C1089 1.434 . S
C1091 C1092 1.369 . S
C1091 C1093 1.419 . S
C1091 H1095 0.930 . S
C1092 C1091 1.369 . S
C1092 C1101 1.429 . S
C1093 C1091 1.419 . S
C1093 C1094 1.363 . S
C1093 H1096 0.929 . S
C1094 C1093 1.363 . S
C1094 C1100 1.428 . S
H1095 C1091 0.930 . S
H1096 C1093 0.929 . S
S1097 N1098 1.613 . S
S1097 N1099 1.610 . S
N1098 S1097 1.613 . S
N1098 C1101 1.350 . S
N1099 S1097 1.610 . S
N1099 C1100 1.351 . S
C1100 C1094 1.428 . S
C1100 N1099 1.351 . S
C1100 C1101 1.434 . S
C1101 C1092 1.429 . S
C1101 N1098 1.350 . S
C1101 C1100 1.434 . S
C1102 C1103 1.369 . S
C1102 C1104 1.419 . S
C1102 H1106 0.930 . S
C1103 C1102 1.369 . S
C1103 C1112 1.429 . S
C1104 C1102 1.419 . S
C1104 C1105 1.363 . S
C1104 H1107 0.929 . S
C1105 C1104 1.363 . S
C1105 C1111 1.428 . S
H1106 C1102 0.930 . S
H1107 C1104 0.929 . S
S1108 N1109 1.613 . S
S1108 N1110 1.610 . S
N1109 S1108 1.613 . S
N1109 C1112 1.350 . S
N1110 S1108 1.610 . S
N1110 C1111 1.351 . S
C1111 C1105 1.428 . S
C1111 N1110 1.351 . S
C1111 C1112 1.434 . S
C1112 C1103 1.429 . S
C1112 N1109 1.350 . S
C1112 C1111 1.434 . S
C1113 C1114 1.369 . S
C1113 C1115 1.419 . S
C1113 H1117 0.930 . S
C1114 C1113 1.369 . S
C1114 C1123 1.429 . S
C1115 C1113 1.419 . S
C1115 C1116 1.363 . S
C1115 H1118 0.929 . S
C1116 C1115 1.363 . S
C1116 C1122 1.428 . S
H1117 C1113 0.930 . S
H1118 C1115 0.929 . S
S1119 N1120 1.613 . S
S1119 N1121 1.610 . S
N1120 S1119 1.613 . S
N1120 C1123 1.350 . S
N1121 S1119 1.610 . S
N1121 C1122 1.351 . S
C1122 C1116 1.428 . S
C1122 N1121 1.351 . S
C1122 C1123 1.434 . S
C1123 C1114 1.429 . S
C1123 N1120 1.350 . S
C1123 C1122 1.434 . S
C1124 C1125 1.369 . S
C1124 C1126 1.419 . S
C1124 H1128 0.930 . S
C1125 C1124 1.369 . S
C1125 C1134 1.429 . S
C1126 C1124 1.419 . S
C1126 C1127 1.363 . S
C1126 H1129 0.929 . S
C1127 C1126 1.363 . S
C1127 C1133 1.428 . S
H1128 C1124 0.930 . S
H1129 C1126 0.929 . S
S1130 N1131 1.613 . S
S1130 N1132 1.610 . S
N1131 S1130 1.613 . S
N1131 C1134 1.350 . S
N1132 S1130 1.610 . S
N1132 C1133 1.351 . S
C1133 C1127 1.428 . S
C1133 N1132 1.351 . S
C1133 C1134 1.434 . S
C1134 C1125 1.429 . S
C1134 N1131 1.350 . S
C1134 C1133 1.434 . S
C1135 C1136 1.369 . S
C1135 C1137 1.419 . S
C1135 H1139 0.930 1_565 S
C1136 C1135 1.369 . S
C1136 C1145 1.429 . S
C1137 C1135 1.419 . S
C1137 C1138 1.363 . S
C1137 H1140 0.929 . S
C1138 C1137 1.363 . S
C1138 C1144 1.428 . S
H1139 C1135 0.930 1_545 S
H1140 C1137 0.929 . S
S1141 N1142 1.613 . S
S1141 N1143 1.610 . S
N1142 S1141 1.613 . S
N1142 C1145 1.350 . S
N1143 S1141 1.610 . S
N1143 C1144 1.351 . S
C1144 C1138 1.428 . S
C1144 N1143 1.351 . S
C1144 C1145 1.434 . S
C1145 C1136 1.429 . S
C1145 N1142 1.350 . S
C1145 C1144 1.434 . S
C1146 C1147 1.369 . S
C1146 C1148 1.419 . S
C1146 H1150 0.930 . S
C1147 C1146 1.369 . S
C1147 C1156 1.429 . S
C1148 C1146 1.419 . S
C1148 C1149 1.363 . S
C1148 H1151 0.929 . S
C1149 C1148 1.363 . S
C1149 C1155 1.428 . S
H1150 C1146 0.930 . S
H1151 C1148 0.929 . S
S1152 N1153 1.613 . S
S1152 N1154 1.610 . S
N1153 S1152 1.613 . S
N1153 C1156 1.350 . S
N1154 S1152 1.610 . S
N1154 C1155 1.351 . S
C1155 C1149 1.428 . S
C1155 N1154 1.351 . S
C1155 C1156 1.434 . S
C1156 C1147 1.429 . S
C1156 N1153 1.350 . S
C1156 C1155 1.434 . S
C1157 C1158 1.369 . S
C1157 C1159 1.419 . S
C1157 H1161 0.930 . S
C1158 C1157 1.369 . S
C1158 C1167 1.429 . S
C1159 C1157 1.419 . S
C1159 C1160 1.363 . S
C1159 H1162 0.929 . S
C1160 C1159 1.363 . S
C1160 C1166 1.428 . S
H1161 C1157 0.930 . S
H1162 C1159 0.929 . S
S1163 N1164 1.613 . S
S1163 N1165 1.610 . S
N1164 S1163 1.613 . S
N1164 C1167 1.350 . S
N1165 S1163 1.610 . S
N1165 C1166 1.351 . S
C1166 C1160 1.428 . S
C1166 N1165 1.351 . S
C1166 C1167 1.434 . S
C1167 C1158 1.429 . S
C1167 N1164 1.350 . S
C1167 C1166 1.434 . S
C1168 C1169 1.369 . S
C1168 C1170 1.419 . S
C1168 H1172 0.930 . S
C1169 C1168 1.369 . S
C1169 C1178 1.429 . S
C1170 C1168 1.419 . S
C1170 C1171 1.363 . S
C1170 H1173 0.929 . S
C1171 C1170 1.363 . S
C1171 C1177 1.428 . S
H1172 C1168 0.930 . S
H1173 C1170 0.929 . S
S1174 N1175 1.613 . S
S1174 N1176 1.610 . S
N1175 S1174 1.613 . S
N1175 C1178 1.350 . S
N1176 S1174 1.610 . S
N1176 C1177 1.351 . S
C1177 C1171 1.428 . S
C1177 N1176 1.351 . S
C1177 C1178 1.434 . S
C1178 C1169 1.429 . S
C1178 N1175 1.350 . S
C1178 C1177 1.434 . S
C1179 C1180 1.369 . S
C1179 C1181 1.419 . S
C1179 H1183 0.930 . S
C1180 C1179 1.369 . S
C1180 C1189 1.429 . S
C1181 C1179 1.419 . S
C1181 C1182 1.363 . S
C1181 H1184 0.929 . S
C1182 C1181 1.363 . S
C1182 C1188 1.428 . S
H1183 C1179 0.930 . S
H1184 C1181 0.929 . S
S1185 N1186 1.613 . S
S1185 N1187 1.610 . S
N1186 S1185 1.613 . S
N1186 C1189 1.350 . S
N1187 S1185 1.610 . S
N1187 C1188 1.351 . S
C1188 C1182 1.428 . S
C1188 N1187 1.351 . S
C1188 C1189 1.434 . S
C1189 C1180 1.429 . S
C1189 N1186 1.350 . S
C1189 C1188 1.434 . S
C1190 C1191 1.369 . S
C1190 C1192 1.419 . S
C1190 H1194 0.930 . S
C1191 C1190 1.369 . S
C1191 C1200 1.429 . S
C1192 C1190 1.419 . S
C1192 C1193 1.363 . S
C1192 H1195 0.929 . S
C1193 C1192 1.363 . S
C1193 C1199 1.428 . S
H1194 C1190 0.930 . S
H1195 C1192 0.929 . S
S1196 N1197 1.613 . S
S1196 N1198 1.610 . S
N1197 S1196 1.613 . S
N1197 C1200 1.350 . S
N1198 S1196 1.610 . S
N1198 C1199 1.351 . S
C1199 C1193 1.428 . S
C1199 N1198 1.351 . S
C1199 C1200 1.434 . S
C1200 C1191 1.429 . S
C1200 N1197 1.350 . S
C1200 C1199 1.434 . S
C1201 C1202 1.369 . S
C1201 C1203 1.419 . S
C1201 H1205 0.930 . S
C1202 C1201 1.369 . S
C1202 C1211 1.429 . S
C1203 C1201 1.419 . S
C1203 C1204 1.363 . S
C1203 H1206 0.929 . S
C1204 C1203 1.363 . S
C1204 C1210 1.428 . S
H1205 C1201 0.930 . S
H1206 C1203 0.929 . S
S1207 N1208 1.613 . S
S1207 N1209 1.610 . S
N1208 S1207 1.613 . S
N1208 C1211 1.350 . S
N1209 S1207 1.610 . S
N1209 C1210 1.351 . S
C1210 C1204 1.428 . S
C1210 N1209 1.351 . S
C1210 C1211 1.434 . S
C1211 C1202 1.429 . S
C1211 N1208 1.350 . S
C1211 C1210 1.434 . S
C1212 C1213 1.369 . S
C1212 C1214 1.419 . S
C1212 H1216 0.930 . S
C1213 C1212 1.369 . S
C1213 C1222 1.429 . S
C1214 C1212 1.419 . S
C1214 C1215 1.363 . S
C1214 H1217 0.929 . S
C1215 C1214 1.363 . S
C1215 C1221 1.428 . S
H1216 C1212 0.930 . S
H1217 C1214 0.929 . S
S1218 N1219 1.613 1_655 S
S1218 N1220 1.610 . S
N1219 S1218 1.613 1_455 S
N1219 C1222 1.350 . S
N1220 S1218 1.610 . S
N1220 C1221 1.351 1_655 S
C1221 C1215 1.428 . S
C1221 N1220 1.351 1_455 S
C1221 C1222 1.434 . S
C1222 C1213 1.429 . S
C1222 N1219 1.350 . S
C1222 C1221 1.434 . S
C1223 C1224 1.369 . S
C1223 C1225 1.419 . S
C1223 H1227 0.930 . S
C1224 C1223 1.369 . S
C1224 C1233 1.429 . S
C1225 C1223 1.419 . S
C1225 C1226 1.363 . S
C1225 H1228 0.929 . S
C1226 C1225 1.363 . S
C1226 C1232 1.428 . S
H1227 C1223 0.930 . S
H1228 C1225 0.929 . S
S1229 N1230 1.613 . S
S1229 N1231 1.610 . S
N1230 S1229 1.613 . S
N1230 C1233 1.350 . S
N1231 S1229 1.610 . S
N1231 C1232 1.351 . S
C1232 C1226 1.428 . S
C1232 N1231 1.351 . S
C1232 C1233 1.434 . S
C1233 C1224 1.429 . S
C1233 N1230 1.350 . S
C1233 C1232 1.434 . S
C1234 C1235 1.369 . S
C1234 C1236 1.419 . S
C1234 H1238 0.930 . S
C1235 C1234 1.369 . S
C1235 C1244 1.429 . S
C1236 C1234 1.419 . S
C1236 C1237 1.363 . S
C1236 H1239 0.929 . S
C1237 C1236 1.363 . S
C1237 C1243 1.428 . S
H1238 C1234 0.930 . S
H1239 C1236 0.929 . S
S1240 N1241 1.613 . S
S1240 N1242 1.610 . S
N1241 S1240 1.613 . S
N1241 C1244 1.350 . S
N1242 S1240 1.610 . S
N1242 C1243 1.351 . S
C1243 C1237 1.428 . S
C1243 N1242 1.351 . S
C1243 C1244 1.434 . S
C1244 C1235 1.429 . S
C1244 N1241 1.350 . S
C1244 C1243 1.434 . S
C1245 C1246 1.369 . S
C1245 C1247 1.419 . S
C1245 H1249 0.930 . S
C1246 C1245 1.369 . S
C1246 C1255 1.429 . S
C1247 C1245 1.419 . S
C1247 C1248 1.363 . S
C1247 H1250 0.929 . S
C1248 C1247 1.363 . S
C1248 C1254 1.428 . S
H1249 C1245 0.930 . S
H1250 C1247 0.929 . S
S1251 N1252 1.613 . S
S1251 N1253 1.610 . S
N1252 S1251 1.613 . S
N1252 C1255 1.350 . S
N1253 S1251 1.610 . S
N1253 C1254 1.351 . S
C1254 C1248 1.428 . S
C1254 N1253 1.351 . S
C1254 C1255 1.434 . S
C1255 C1246 1.429 . S
C1255 N1252 1.350 . S
C1255 C1254 1.434 . S
C1256 C1257 1.369 . S
C1256 C1258 1.419 . S
C1256 H1260 0.930 . S
C1257 C1256 1.369 . S
C1257 C1266 1.429 . S
C1258 C1256 1.419 . S
C1258 C1259 1.363 . S
C1258 H1261 0.929 . S
C1259 C1258 1.363 . S
C1259 C1265 1.428 . S
H1260 C1256 0.930 . S
H1261 C1258 0.929 . S
S1262 N1263 1.613 . S
S1262 N1264 1.610 . S
N1263 S1262 1.613 . S
N1263 C1266 1.350 . S
N1264 S1262 1.610 . S
N1264 C1265 1.351 . S
C1265 C1259 1.428 . S
C1265 N1264 1.351 . S
C1265 C1266 1.434 . S
C1266 C1257 1.429 . S
C1266 N1263 1.350 . S
C1266 C1265 1.434 . S
C1267 C1268 1.369 . S
C1267 C1269 1.419 . S
C1267 H1271 0.930 . S
C1268 C1267 1.369 . S
C1268 C1277 1.429 . S
C1269 C1267 1.419 . S
C1269 C1270 1.363 . S
C1269 H1272 0.929 . S
C1270 C1269 1.363 . S
C1270 C1276 1.428 . S
H1271 C1267 0.930 . S
H1272 C1269 0.929 . S
S1273 N1274 1.613 . S
S1273 N1275 1.610 . S
N1274 S1273 1.613 . S
N1274 C1277 1.350 . S
N1275 S1273 1.610 . S
N1275 C1276 1.351 . S
C1276 C1270 1.428 . S
C1276 N1275 1.351 . S
C1276 C1277 1.434 . S
C1277 C1268 1.429 . S
C1277 N1274 1.350 . S
C1277 C1276 1.434 . S
C1278 C1279 1.369 . S
C1278 C1280 1.419 1_655 S
C1278 H1282 0.930 . S
C1279 C1278 1.369 . S
C1279 C1288 1.429 1_655 S
C1280 C1278 1.419 1_455 S
C1280 C1281 1.363 . S
C1280 H1283 0.929 . S
C1281 C1280 1.363 . S
C1281 C1287 1.428 . S
H1282 C1278 0.930 . S
H1283 C1280 0.929 . S
S1284 N1285 1.613 . S
S1284 N1286 1.610 . S
N1285 S1284 1.613 . S
N1285 C1288 1.350 . S
N1286 S1284 1.610 . S
N1286 C1287 1.351 . S
C1287 C1281 1.428 . S
C1287 N1286 1.351 . S
C1287 C1288 1.433 . S
C1288 C1279 1.429 1_455 S
C1288 N1285 1.350 . S
C1288 C1287 1.433 . S
C1289 C1290 1.369 1_554 S
C1289 C1291 1.419 . S
C1289 H1293 0.930 . S
C1290 C1289 1.369 1_556 S
C1290 C1299 1.429 . S
C1291 C1289 1.419 . S
C1291 C1292 1.363 . S
C1291 H1294 0.929 . S
C1292 C1291 1.363 . S
C1292 C1298 1.428 1_554 S
H1293 C1289 0.930 . S
H1294 C1291 0.929 . S
S1295 N1296 1.613 . S
S1295 N1297 1.610 . S
N1296 S1295 1.613 . S
N1296 C1299 1.350 . S
N1297 S1295 1.610 . S
N1297 C1298 1.351 . S
C1298 C1292 1.428 1_556 S
C1298 N1297 1.351 . S
C1298 C1299 1.434 . S
C1299 C1290 1.429 . S
C1299 N1296 1.350 . S
C1299 C1298 1.434 . S
C1300 C1301 1.369 . S
C1300 C1302 1.419 . S
C1300 H1304 0.930 . S
C1301 C1300 1.369 . S
C1301 C1310 1.429 . S
C1302 C1300 1.419 . S
C1302 C1303 1.363 . S
C1302 H1305 0.929 . S
C1303 C1302 1.363 . S
C1303 C1309 1.428 . S
H1304 C1300 0.930 . S
H1305 C1302 0.929 . S
S1306 N1307 1.613 . S
S1306 N1308 1.610 . S
N1307 S1306 1.613 . S
N1307 C1310 1.350 . S
N1308 S1306 1.610 . S
N1308 C1309 1.351 . S
C1309 C1303 1.428 . S
C1309 N1308 1.351 . S
C1309 C1310 1.434 . S
C1310 C1301 1.429 . S
C1310 N1307 1.350 . S
C1310 C1309 1.434 . S
C1311 C1312 1.369 . S
C1311 C1313 1.419 . S
C1311 H1315 0.930 . S
C1312 C1311 1.369 . S
C1312 C1321 1.429 . S
C1313 C1311 1.419 . S
C1313 C1314 1.363 . S
C1313 H1316 0.929 . S
C1314 C1313 1.363 . S
C1314 C1320 1.428 . S
H1315 C1311 0.930 . S
H1316 C1313 0.929 . S
S1317 N1318 1.613 . S
S1317 N1319 1.610 . S
N1318 S1317 1.613 . S
N1318 C1321 1.350 . S
N1319 S1317 1.610 . S
N1319 C1320 1.351 . S
C1320 C1314 1.428 . S
C1320 N1319 1.351 . S
C1320 C1321 1.434 . S
C1321 C1312 1.429 . S
C1321 N1318 1.350 . S
C1321 C1320 1.434 . S
C1322 C1323 1.369 . S
C1322 C1324 1.419 . S
C1322 H1326 0.930 . S
C1323 C1322 1.369 . S
C1323 C1332 1.429 1_565 S
C1324 C1322 1.419 . S
C1324 C1325 1.363 1_565 S
C1324 H1327 0.929 . S
C1325 C1324 1.363 1_545 S
C1325 C1331 1.428 . S
H1326 C1322 0.930 . S
H1327 C1324 0.929 . S
S1328 N1329 1.613 . S
S1328 N1330 1.610 . S
N1329 S1328 1.613 . S
N1329 C1332 1.350 . S
N1330 S1328 1.610 . S
N1330 C1331 1.351 . S
C1331 C1325 1.428 . S
C1331 N1330 1.351 . S
C1331 C1332 1.434 . S
C1332 C1323 1.429 1_545 S
C1332 N1329 1.350 . S
C1332 C1331 1.434 . S
C1333 C1334 1.369 . S
C1333 C1335 1.419 . S
C1333 H1337 0.930 . S
C1334 C1333 1.369 . S
C1334 C1343 1.429 . S
C1335 C1333 1.419 . S
C1335 C1336 1.363 . S
C1335 H1338 0.929 . S
C1336 C1335 1.363 . S
C1336 C1342 1.428 . S
H1337 C1333 0.930 . S
H1338 C1335 0.929 . S
S1339 N1340 1.613 . S
S1339 N1341 1.610 . S
N1340 S1339 1.613 . S
N1340 C1343 1.350 . S
N1341 S1339 1.610 . S
N1341 C1342 1.351 . S
C1342 C1336 1.428 . S
C1342 N1341 1.351 . S
C1342 C1343 1.434 . S
C1343 C1334 1.429 . S
C1343 N1340 1.350 . S
C1343 C1342 1.434 . S
C1344 C1345 1.369 1_545 S
C1344 C1346 1.419 . S
C1344 H1348 0.930 . S
C1345 C1344 1.369 1_565 S
C1345 C1354 1.429 . S
C1346 C1344 1.419 . S
C1346 C1347 1.363 1_545 S
C1346 H1349 0.929 . S
C1347 C1346 1.363 1_565 S
C1347 C1353 1.428 . S
H1348 C1344 0.930 . S
H1349 C1346 0.929 . S
S1350 N1351 1.613 . S
S1350 N1352 1.610 . S
N1351 S1350 1.613 . S
N1351 C1354 1.350 . S
N1352 S1350 1.610 . S
N1352 C1353 1.351 . S
C1353 C1347 1.428 . S
C1353 N1352 1.351 . S
C1353 C1354 1.434 . S
C1354 C1345 1.429 . S
C1354 N1351 1.350 . S
C1354 C1353 1.434 . S
C1355 C1356 1.369 . S
C1355 C1357 1.419 . S
C1355 H1359 0.930 . S
C1356 C1355 1.369 . S
C1356 C1365 1.429 . S
C1357 C1355 1.419 . S
C1357 C1358 1.363 . S
C1357 H1360 0.929 . S
C1358 C1357 1.363 . S
C1358 C1364 1.428 . S
H1359 C1355 0.930 . S
H1360 C1357 0.929 . S
S1361 N1362 1.613 1_556 S
S1361 N1363 1.610 1_556 S
N1362 S1361 1.613 1_554 S
N1362 C1365 1.350 . S
N1363 S1361 1.610 1_554 S
N1363 C1364 1.351 . S
C1364 C1358 1.428 . S
C1364 N1363 1.351 . S
C1364 C1365 1.434 . S
C1365 C1356 1.429 . S
C1365 N1362 1.350 . S
C1365 C1364 1.434 . S
C1366 C1367 1.369 . S
C1366 C1368 1.419 . S
C1366 H1370 0.930 . S
C1367 C1366 1.369 . S
C1367 C1376 1.429 . S
C1368 C1366 1.419 . S
C1368 C1369 1.363 . S
C1368 H1371 0.929 . S
C1369 C1368 1.363 . S
C1369 C1375 1.428 . S
H1370 C1366 0.930 . S
H1371 C1368 0.929 . S
S1372 N1373 1.613 . S
S1372 N1374 1.610 . S
N1373 S1372 1.613 . S
N1373 C1376 1.350 . S
N1374 S1372 1.610 . S
N1374 C1375 1.351 . S
C1375 C1369 1.428 . S
C1375 N1374 1.351 . S
C1375 C1376 1.434 . S
C1376 C1367 1.429 . S
C1376 N1373 1.350 . S
C1376 C1375 1.434 . S
C1377 C1378 1.369 . S
C1377 C1379 1.419 . S
C1377 H1381 0.930 . S
C1378 C1377 1.369 . S
C1378 C1387 1.429 . S
C1379 C1377 1.419 . S
C1379 C1380 1.363 . S
C1379 H1382 0.929 . S
C1380 C1379 1.363 . S
C1380 C1386 1.428 . S
H1381 C1377 0.930 . S
H1382 C1379 0.929 . S
S1383 N1384 1.613 . S
S1383 N1385 1.610 . S
N1384 S1383 1.613 . S
N1384 C1387 1.350 . S
N1385 S1383 1.610 . S
N1385 C1386 1.351 . S
C1386 C1380 1.428 . S
C1386 N1385 1.351 . S
C1386 C1387 1.434 . S
C1387 C1378 1.429 . S
C1387 N1384 1.350 . S
C1387 C1386 1.434 . S
C1388 C1389 1.369 . S
C1388 C1390 1.419 . S
C1388 H1392 0.930 . S
C1389 C1388 1.369 . S
C1389 C1398 1.429 . S
C1390 C1388 1.419 . S
C1390 C1391 1.363 . S
C1390 H1393 0.929 . S
C1391 C1390 1.363 . S
C1391 C1397 1.428 . S
H1392 C1388 0.930 . S
H1393 C1390 0.929 . S
S1394 N1395 1.613 . S
S1394 N1396 1.610 . S
N1395 S1394 1.613 . S
N1395 C1398 1.350 . S
N1396 S1394 1.610 . S
N1396 C1397 1.351 . S
C1397 C1391 1.428 . S
C1397 N1396 1.351 . S
C1397 C1398 1.434 . S
C1398 C1389 1.429 . S
C1398 N1395 1.350 . S
C1398 C1397 1.434 . S
C1399 C1400 1.369 . S
C1399 C1401 1.419 . S
C1399 H1403 0.930 . S
C1400 C1399 1.369 . S
C1400 C1409 1.429 . S
C1401 C1399 1.419 . S
C1401 C1402 1.363 . S
C1401 H1404 0.929 . S
C1402 C1401 1.363 . S
C1402 C1408 1.428 . S
H1403 C1399 0.930 . S
H1404 C1401 0.929 . S
S1405 N1406 1.613 . S
S1405 N1407 1.610 . S
N1406 S1405 1.613 . S
N1406 C1409 1.350 . S
N1407 S1405 1.610 . S
N1407 C1408 1.351 . S
C1408 C1402 1.428 . S
C1408 N1407 1.351 . S
C1408 C1409 1.434 . S
C1409 C1400 1.429 . S
C1409 N1406 1.350 . S
C1409 C1408 1.434 . S
C1410 C1411 1.369 . S
C1410 C1412 1.419 . S
C1410 H1414 0.930 . S
C1411 C1410 1.369 . S
C1411 C1420 1.429 . S
C1412 C1410 1.419 . S
C1412 C1413 1.363 . S
C1412 H1415 0.929 . S
C1413 C1412 1.363 . S
C1413 C1419 1.428 . S
H1414 C1410 0.930 . S
H1415 C1412 0.929 . S
S1416 N1417 1.613 . S
S1416 N1418 1.610 . S
N1417 S1416 1.613 . S
N1417 C1420 1.350 . S
N1418 S1416 1.610 . S
N1418 C1419 1.351 . S
C1419 C1413 1.428 . S
C1419 N1418 1.351 . S
C1419 C1420 1.434 . S
C1420 C1411 1.429 . S
C1420 N1417 1.350 . S
C1420 C1419 1.434 . S
C1421 C1422 1.369 . S
C1421 C1423 1.418 1_556 S
C1421 H1425 0.930 . S
C1422 C1421 1.369 . S
C1422 C1431 1.429 . S
C1423 C1421 1.418 1_554 S
C1423 C1424 1.363 1_554 S
C1423 H1426 0.930 . S
C1424 C1423 1.363 1_556 S
C1424 C1430 1.428 . S
H1425 C1421 0.930 . S
H1426 C1423 0.930 . S
S1427 N1428 1.613 . S
S1427 N1429 1.610 . S
N1428 S1427 1.613 . S
N1428 C1431 1.350 . S
N1429 S1427 1.610 . S
N1429 C1430 1.351 . S
C1430 C1424 1.428 . S
C1430 N1429 1.351 . S
C1430 C1431 1.434 . S
C1431 C1422 1.429 . S
C1431 N1428 1.350 . S
C1431 C1430 1.434 . S
C1432 C1433 1.386 . S
C1432 C1434 1.419 . S
C1432 H1436 0.930 . S
C1433 C1432 1.386 . S
C1433 C1442 1.413 1_655 S
C1434 C1432 1.419 . S
C1434 C1435 1.363 . S
C1434 H1437 0.929 . S
C1435 C1434 1.363 . S
C1435 C1441 1.428 1_655 S
H1436 C1432 0.930 . S
H1437 C1434 0.929 . S
S1438 N1439 1.613 . S
S1438 N1440 1.610 . S
N1439 S1438 1.613 . S
N1439 C1442 1.350 . S
N1440 S1438 1.610 . S
N1440 C1441 1.351 . S
C1441 C1435 1.428 1_455 S
C1441 N1440 1.351 . S
C1441 C1442 1.434 . S
C1442 C1433 1.413 1_455 S
C1442 N1439 1.350 . S
C1442 C1441 1.434 . S
C1443 C1444 1.369 . S
C1443 C1445 1.419 . S
C1443 H1447 0.930 . S
C1444 C1443 1.369 . S
C1444 C1453 1.429 . S
C1445 C1443 1.419 . S
C1445 C1446 1.363 . S
C1445 H1448 0.929 . S
C1446 C1445 1.363 . S
C1446 C1452 1.428 . S
H1447 C1443 0.930 . S
H1448 C1445 0.929 . S
S1449 N1450 1.613 . S
S1449 N1451 1.610 . S
N1450 S1449 1.613 . S
N1450 C1453 1.350 . S
N1451 S1449 1.610 . S
N1451 C1452 1.351 . S
C1452 C1446 1.428 . S
C1452 N1451 1.351 . S
C1452 C1453 1.434 . S
C1453 C1444 1.429 . S
C1453 N1450 1.350 . S
C1453 C1452 1.434 . S
C1454 C1455 1.369 . S
C1454 C1456 1.419 . S
C1454 H1458 0.930 . S
C1455 C1454 1.369 . S
C1455 C1464 1.429 . S
C1456 C1454 1.419 . S
C1456 C1457 1.363 . S
C1456 H1459 0.929 . S
C1457 C1456 1.363 . S
C1457 C1463 1.428 . S
H1458 C1454 0.930 . S
H1459 C1456 0.929 . S
S1460 N1461 1.613 . S
S1460 N1462 1.610 . S
N1461 S1460 1.613 . S
N1461 C1464 1.350 . S
N1462 S1460 1.610 . S
N1462 C1463 1.351 . S
C1463 C1457 1.428 . S
C1463 N1462 1.351 . S
C1463 C1464 1.434 . S
C1464 C1455 1.429 . S
C1464 N1461 1.350 . S
C1464 C1463 1.434 . S
C1465 C1466 1.369 . S
C1465 C1467 1.419 . S
C1465 H1469 0.930 . S
C1466 C1465 1.369 . S
C1466 C1475 1.429 . S
C1467 C1465 1.419 . S
C1467 C1468 1.363 . S
C1467 H1470 0.929 . S
C1468 C1467 1.363 . S
C1468 C1474 1.428 . S
H1469 C1465 0.930 . S
H1470 C1467 0.929 . S
S1471 N1472 1.613 . S
S1471 N1473 1.610 . S
N1472 S1471 1.613 . S
N1472 C1475 1.350 . S
N1473 S1471 1.610 . S
N1473 C1474 1.351 . S
C1474 C1468 1.428 . S
C1474 N1473 1.351 . S
C1474 C1475 1.434 . S
C1475 C1466 1.429 . S
C1475 N1472 1.350 . S
C1475 C1474 1.434 . S
C817 C33 0.900 . S
C819 C713 0.924 . S
C828 C611 0.925 . S
C830 C67 0.906 . S
C839 C645 0.921 . S
C841 C101 0.910 . S
C850 C679 0.905 . S
C852 C135 0.922 . S
C861 C169 0.927 . S
C863 C815 0.904 . S
C872 C747 0.925 . S
C874 C203 0.905 . S
C883 C781 0.924 . S
C885 C237 0.906 . S
C894 C577 0.920 . S
C896 C271 0.908 . S
C905 C305 0.906 . S
C907 C543 0.921 . S
C916 C441 0.908 . S
C918 C339 0.920 . S
C927 C373 0.902 . S
C929 C475 0.924 . S
C938 C509 0.903 . S
C940 C407 0.923 . S
C949 C648 2.097 . S
C951 C9 1.997 . S
C960 C43 1.998 . S
C962 C682 2.099 . S
C971 C580 2.097 . S
C973 C77 1.998 . S
C982 C111 1.998 . S
C984 C614 2.099 . S
C993 C716 2.099 . S
C995 C145 1.998 . S
C1004 C750 2.098 . S
C1006 C179 1.995 . S
C1015 C546 2.097 1_556 S
C1017 C213 2.000 . S
C1026 C247 1.993 . S
C1028 C784 2.098 . S
C1037 C281 1.999 . S
C1039 C70 2.097 . S
C1048 C315 2.001 . S
C1050 C104 2.097 . S
C1059 C349 1.993 . S
C1061 C2 2.097 1_655 S
C1070 C36 2.099 . S
C1072 C383 1.994 . S
C1081 C417 1.994 . S
C1083 C206 2.096 . S
C1092 C240 2.098 . S
C1094 C451 1.994 . S
C1103 C138 2.099 . S
C1105 C485 1.998 . S
C1114 C172 2.098 . S
C1116 C519 2.000 . S
C1125 C410 2.097 . S
C1127 C553 2.001 . S
C1136 C274 2.097 1_565 S
C1138 C587 1.999 . S
C1147 C621 1.994 . S
C1149 C308 2.099 . S
C1158 C655 1.995 . S
C1160 C342 2.096 . S
C1169 C376 2.099 . S
C1171 C689 1.994 . S
C1180 C723 2.001 . S
C1182 C478 2.097 . S
C1191 C512 2.099 . S
C1193 C757 1.999 . S
C1202 C791 1.997 . S
C1204 C444 2.097 . S
C1213 C20 1.457 . S
C1215 C768 1.458 . S
C1224 C564 1.466 . S
C1226 C54 1.466 . S
C1235 C88 1.467 . S
C1237 C802 1.466 . S
C1246 C734 1.462 . S
C1248 C122 1.465 . S
C1257 C156 1.457 . S
C1259 C632 1.458 . S
C1268 C666 1.463 . S
C1270 C190 1.460 . S
C1279 C224 1.461 . S
C1281 C700 1.462 . S
C1290 C598 1.465 . S
C1292 C258 1.460 . S
C1301 C462 1.465 . S
C1303 C292 1.466 . S
C1312 C496 1.457 . S
C1314 C326 1.459 . S
C1323 C360 1.457 . S
C1325 C530 1.456 . S
C1334 C394 1.462 . S
C1336 C428 1.460 . S
C1345 C515 1.315 1_565 S
C1347 C5 1.312 . S
C1356 C39 1.307 . S
C1358 C413 1.311 . S
C1367 C447 1.307 . S
C1369 C73 1.307 . S
C1378 C481 1.305 . S
C1380 C107 1.307 . S
C1389 C141 1.317 . S
C1391 C311 1.318 . S
C1400 C345 1.312 . S
C1402 C175 1.312 . S
C1411 C209 1.310 . S
C1413 C379 1.305 . S
C1422 C277 1.321 . S
C1424 C243 1.318 1_556 S
C1433 C685 1.296 1_655 S
C1435 C549 1.307 . S
C1444 C787 1.306 . S
C1446 C583 1.303 . S
C1455 C719 1.319 . S
C1457 C617 1.319 . S
C1466 C753 1.307 . S
C1468 C651 1.307 . S
