# Generated by pormake.
# Topology mon, (4)-cn, num edge types: 1
# Building blocks:
#     Node 0, Type 0, BuildingBlock: CEKHIL_clean_sbu_0, # of connection points: 4
#     Node 1, Type 0, BuildingBlock: CEKHIL_clean_sbu_0, # of connection points: 4
#     Node 2, Type 0, BuildingBlock: CEKHIL_clean_sbu_0, # of connection points: 4
#     Node 3, Type 0, BuildingBlock: CEKHIL_clean_sbu_0, # of connection points: 4
#     Node 4, Type 0, BuildingBlock: CEKHIL_clean_sbu_0, # of connection points: 4
#     Node 5, Type 0, BuildingBlock: CEKHIL_clean_sbu_0, # of connection points: 4
#     Node 6, Type 0, BuildingBlock: CEKHIL_clean_sbu_0, # of connection points: 4
#     Node 7, Type 0, BuildingBlock: CEKHIL_clean_sbu_0, # of connection points: 4
#     Node 8, Type 0, BuildingBlock: CEKHIL_clean_sbu_0, # of connection points: 4
#     Node 9, Type 0, BuildingBlock: CEKHIL_clean_sbu_0, # of connection points: 4
#     Node 10, Type 0, BuildingBlock: CEKHIL_clean_sbu_0, # of connection points: 4
#     Node 11, Type 0, BuildingBlock: CEKHIL_clean_sbu_0, # of connection points: 4
#     Node 12, Type 0, BuildingBlock: CEKHIL_clean_sbu_0, # of connection points: 4
#     Node 13, Type 0, BuildingBlock: CEKHIL_clean_sbu_0, # of connection points: 4
#     Node 14, Type 0, BuildingBlock: CEKHIL_clean_sbu_0, # of connection points: 4
#     Node 15, Type 0, BuildingBlock: CEKHIL_clean_sbu_0, # of connection points: 4
#     Edge 16, Type (0, 0), BuildingBlock: TEMPAE_clean_linker_10, # of connection points: 2
#     Edge 17, Type (0, 0), BuildingBlock: TEMPAE_clean_linker_10, # of connection points: 2
#     Edge 18, Type (0, 0), BuildingBlock: TEMPAE_clean_linker_10, # of connection points: 2
#     Edge 19, Type (0, 0), BuildingBlock: TEMPAE_clean_linker_10, # of connection points: 2
#     Edge 20, Type (0, 0), BuildingBlock: TEMPAE_clean_linker_10, # of connection points: 2
#     Edge 21, Type (0, 0), BuildingBlock: TEMPAE_clean_linker_10, # of connection points: 2
#     Edge 22, Type (0, 0), BuildingBlock: TEMPAE_clean_linker_10, # of connection points: 2
#     Edge 23, Type (0, 0), BuildingBlock: TEMPAE_clean_linker_10, # of connection points: 2
#     Edge 24, Type (0, 0), BuildingBlock: TEMPAE_clean_linker_10, # of connection points: 2
#     Edge 25, Type (0, 0), BuildingBlock: TEMPAE_clean_linker_10, # of connection points: 2
#     Edge 26, Type (0, 0), BuildingBlock: TEMPAE_clean_linker_10, # of connection points: 2
#     Edge 27, Type (0, 0), BuildingBlock: TEMPAE_clean_linker_10, # of connection points: 2
#     Edge 28, Type (0, 0), BuildingBlock: TEMPAE_clean_linker_10, # of connection points: 2
#     Edge 29, Type (0, 0), BuildingBlock: TEMPAE_clean_linker_10, # of connection points: 2
#     Edge 30, Type (0, 0), BuildingBlock: TEMPAE_clean_linker_10, # of connection points: 2
#     Edge 31, Type (0, 0), BuildingBlock: TEMPAE_clean_linker_10, # of connection points: 2
#     Edge 32, Type (0, 0), BuildingBlock: TEMPAE_clean_linker_10, # of connection points: 2
#     Edge 33, Type (0, 0), BuildingBlock: TEMPAE_clean_linker_10, # of connection points: 2
#     Edge 34, Type (0, 0), BuildingBlock: TEMPAE_clean_linker_10, # of connection points: 2
#     Edge 35, Type (0, 0), BuildingBlock: TEMPAE_clean_linker_10, # of connection points: 2
#     Edge 36, Type (0, 0), BuildingBlock: TEMPAE_clean_linker_10, # of connection points: 2
#     Edge 37, Type (0, 0), BuildingBlock: TEMPAE_clean_linker_10, # of connection points: 2
#     Edge 38, Type (0, 0), BuildingBlock: TEMPAE_clean_linker_10, # of connection points: 2
#     Edge 39, Type (0, 0), BuildingBlock: TEMPAE_clean_linker_10, # of connection points: 2
#     Edge 40, Type (0, 0), BuildingBlock: TEMPAE_clean_linker_10, # of connection points: 2
#     Edge 41, Type (0, 0), BuildingBlock: TEMPAE_clean_linker_10, # of connection points: 2
#     Edge 42, Type (0, 0), BuildingBlock: TEMPAE_clean_linker_10, # of connection points: 2
#     Edge 43, Type (0, 0), BuildingBlock: TEMPAE_clean_linker_10, # of connection points: 2
#     Edge 44, Type (0, 0), BuildingBlock: TEMPAE_clean_linker_10, # of connection points: 2
#     Edge 45, Type (0, 0), BuildingBlock: TEMPAE_clean_linker_10, # of connection points: 2
#     Edge 46, Type (0, 0), BuildingBlock: TEMPAE_clean_linker_10, # of connection points: 2
#     Edge 47, Type (0, 0), BuildingBlock: TEMPAE_clean_linker_10, # of connection points: 2
# Relax obj value: 0.188
# Max RMSD: 0.178
# Mean RMSD: 0.178
data_MOF--net-mon--node1-CEKHIL_clean_sbu_0--edge1-TEMPAE_clean_linker_10
_symmetry_space_group_name_H-M    P1
_symmetry_Int_Tables_number       1
_symmetry_cell_setting            triclinic
loop_
_symmetry_equiv_pos_as_xyz
'x, y, z'
_cell_length_a     33.768217
_cell_length_b     33.723228
_cell_length_c     85.772331
_cell_angle_alpha  89.977922
_cell_angle_beta   90.016213
_cell_angle_gamma 90.026122
loop_
_atom_site_label
_atom_site_type_symbol
_atom_site_fract_x
_atom_site_fract_y
_atom_site_fract_z
_atom_type_partial_charge
Co0 Co 0.02632 0.03941 0.58396 0.0
O1 O 0.05054 0.08886 0.57792 0.0
O2 O 0.98901 0.08263 0.58645 0.0
C3 C 0.07782 0.01842 0.59838 0.0
O4 O 0.99155 0.994 0.59175 0.0
Co5 Co 0.0641 0.9576 0.57572 0.0
O6 O 0.02698 0.93747 0.59182 0.0
C7 C 0.02264 0.00499 0.55156 0.0
C8 C 0.01741 0.10578 0.58169 0.0
C9 C 0.99639 0.95739 0.59555 0.0
O10 O 0.00898 0.02944 0.56177 0.0
O11 O 0.04738 0.97732 0.55469 0.0
O12 O 0.05182 0.0422 0.60447 0.0
O13 O 0.07316 0.01008 0.58387 0.0
Co14 Co 0.23092 0.7627 0.83154 0.0
O15 O 0.18121 0.78509 0.82466 0.0
O16 O 0.18736 0.7286 0.83754 0.0
C17 C 0.25619 0.81962 0.84152 0.0
O18 O 0.27631 0.73017 0.84094 0.0
Co19 Co 0.31223 0.79243 0.81851 0.0
O20 O 0.33533 0.75546 0.83378 0.0
C21 C 0.26347 0.736 0.80025 0.0
C22 C 0.1642 0.75451 0.83098 0.0
C23 C 0.31451 0.73018 0.84116 0.0
O24 O 0.23693 0.73386 0.81099 0.0
O25 O 0.29367 0.75886 0.80086 0.0
O26 O 0.23148 0.79842 0.84963 0.0
O27 O 0.26214 0.80761 0.82747 0.0
Co28 Co 0.49586 0.96956 0.08486 0.0
O29 O 0.46815 0.92179 0.07878 0.0
O30 O 0.52945 0.92377 0.08786 0.0
C31 C 0.44612 0.99636 0.09886 0.0
O32 O 0.53393 0.01205 0.09289 0.0
Co33 Co 0.46555 0.0536 0.07477 0.0
O34 O 0.51169 0.07319 0.08671 0.0
C35 C 0.50143 0.99964 0.05183 0.0
C36 C 0.49982 0.90261 0.08291 0.0
C37 C 0.53685 0.05013 0.09303 0.0
O38 O 0.51527 0.97717 0.06271 0.0
O39 O 0.47724 0.02813 0.05428 0.0
O40 O 0.46849 0.9693 0.10508 0.0
O41 O 0.45223 0.0035 0.08432 0.0
Co42 Co 0.29728 0.23722 0.33516 0.0
O43 O 0.34664 0.21249 0.32947 0.0
O44 O 0.34119 0.27247 0.33971 0.0
C45 C 0.27161 0.18426 0.34756 0.0
O46 O 0.25164 0.27197 0.34281 0.0
Co47 Co 0.21719 0.20301 0.3224 0.0
O48 O 0.19339 0.24655 0.33467 0.0
C49 C 0.27062 0.24796 0.30183 0.0
C50 C 0.364 0.24443 0.33442 0.0
C51 C 0.21352 0.27273 0.3419 0.0
O52 O 0.29176 0.25964 0.31343 0.0
O53 O 0.24299 0.22216 0.30283 0.0
O54 O 0.29613 0.2075 0.35483 0.0
O55 O 0.26621 0.19169 0.33301 0.0
Co56 Co 0.03031 0.96819 0.40839 0.0
O57 O 0.05286 0.91991 0.41659 0.0
O58 O 0.99536 0.92373 0.40434 0.0
C59 C 0.08661 0.98963 0.39694 0.0
O60 O 0.99791 0.012 0.39781 0.0
Co61 Co 0.06242 0.0521 0.41718 0.0
O62 O 0.03213 0.06916 0.39863 0.0
C63 C 0.00895 0.00848 0.43884 0.0
C64 C 0.02195 0.90175 0.41112 0.0
C65 C 0.00332 0.04836 0.39364 0.0
O66 O 0.00415 0.97962 0.42914 0.0
O67 O 0.03206 0.03793 0.43636 0.0
O68 O 0.06404 0.9642 0.38979 0.0
O69 O 0.07578 0.99903 0.41082 0.0
Co70 Co 0.29241 0.77154 0.65762 0.0
O71 O 0.34203 0.79572 0.66318 0.0
O72 O 0.33609 0.73616 0.65267 0.0
C73 C 0.26696 0.82543 0.6458 0.0
O74 O 0.24605 0.73774 0.64995 0.0
Co75 Co 0.21327 0.80611 0.67085 0.0
O76 O 0.18852 0.7669 0.65669 0.0
C77 C 0.26676 0.75981 0.69098 0.0
C78 C 0.35919 0.7639 0.65807 0.0
C79 C 0.20789 0.73951 0.64984 0.0
O80 O 0.28748 0.74835 0.67923 0.0
O81 O 0.23929 0.78583 0.6902 0.0
O82 O 0.2904 0.80193 0.63812 0.0
O83 O 0.26238 0.81742 0.66034 0.0
Co84 Co 0.49636 0.03113 0.90808 0.0
O85 O 0.47007 0.07801 0.91612 0.0
O86 O 0.52909 0.07748 0.90499 0.0
C87 C 0.44304 0.00621 0.8953 0.0
O88 O 0.53319 0.9906 0.89783 0.0
Co89 Co 0.47063 0.94448 0.91553 0.0
O90 O 0.50411 0.93066 0.89744 0.0
C91 C 0.51722 0.99056 0.93865 0.0
C92 C 0.50072 0.09791 0.91131 0.0
C93 C 0.53136 0.95433 0.8932 0.0
O94 O 0.52096 0.02024 0.92924 0.0
O95 O 0.49679 0.95962 0.93548 0.0
O96 O 0.46422 0.0341 0.88896 0.0
O97 O 0.45297 0.9965 0.90929 0.0
Co98 Co 0.22843 0.23799 0.16035 0.0
O99 O 0.17898 0.21423 0.16658 0.0
O100 O 0.1845 0.27192 0.15449 0.0
C101 C 0.25472 0.18207 0.15014 0.0
O102 O 0.27407 0.2712 0.15146 0.0
Co103 Co 0.30932 0.20817 0.1738 0.0
O104 O 0.33243 0.24313 0.15779 0.0
C105 C 0.25936 0.26339 0.19208 0.0
C106 C 0.16163 0.24487 0.1605 0.0
C107 C 0.31222 0.26949 0.15073 0.0
O108 O 0.23323 0.26571 0.18118 0.0
O109 O 0.28989 0.24101 0.19153 0.0
O110 O 0.23028 0.2034 0.14195 0.0
O111 O 0.25973 0.19339 0.16433 0.0
Co112 Co 0.79699 0.27268 0.15821 0.0
O113 O 0.84627 0.29514 0.16551 0.0
O114 O 0.84025 0.2367 0.15393 0.0
C115 C 0.77535 0.32798 0.14617 0.0
O116 O 0.75227 0.23984 0.14865 0.0
Co117 Co 0.71443 0.3062 0.16763 0.0
O118 O 0.69468 0.27282 0.15036 0.0
C119 C 0.75865 0.25323 0.18925 0.0
C120 C 0.86311 0.26339 0.16014 0.0
C121 C 0.71531 0.24398 0.14529 0.0
O122 O 0.78708 0.24827 0.17941 0.0
O123 O 0.729 0.2761 0.18686 0.0
O124 O 0.79971 0.30425 0.13908 0.0
O125 O 0.76693 0.31908 0.16038 0.0
Co126 Co 0.72494 0.74124 0.65891 0.0
O127 O 0.67603 0.71739 0.66583 0.0
O128 O 0.68083 0.77625 0.65457 0.0
C129 C 0.74776 0.68653 0.64692 0.0
O130 O 0.76937 0.77525 0.64967 0.0
Co131 Co 0.80801 0.70973 0.66854 0.0
O132 O 0.82629 0.74079 0.65035 0.0
C133 C 0.76213 0.76139 0.69008 0.0
C134 C 0.65836 0.74872 0.66046 0.0
C135 C 0.80573 0.77001 0.64561 0.0
O136 O 0.73357 0.7653 0.68022 0.0
O137 O 0.79276 0.73986 0.68771 0.0
O138 O 0.72338 0.71002 0.63971 0.0
O139 O 0.75591 0.69549 0.66116 0.0
Co140 Co 0.72967 0.26951 0.33493 0.0
O141 O 0.68024 0.2947 0.32959 0.0
O142 O 0.68592 0.23334 0.33845 0.0
C143 C 0.75383 0.32123 0.34853 0.0
O144 O 0.77491 0.23378 0.34214 0.0
Co145 Co 0.81107 0.30487 0.32464 0.0
O146 O 0.83342 0.26511 0.33922 0.0
C147 C 0.75888 0.26467 0.30184 0.0
C148 C 0.66301 0.26201 0.33378 0.0
C149 C 0.81261 0.23621 0.34414 0.0
O150 O 0.73636 0.25096 0.3127 0.0
O151 O 0.78702 0.28942 0.30419 0.0
O152 O 0.73011 0.29616 0.35527 0.0
O153 O 0.76018 0.31562 0.33392 0.0
Co154 Co 0.79833 0.72739 0.83447 0.0
O155 O 0.84647 0.70119 0.82784 0.0
O156 O 0.84372 0.76049 0.83881 0.0
C157 C 0.77099 0.67443 0.84662 0.0
O158 O 0.75569 0.76401 0.84329 0.0
Co159 Co 0.71428 0.70038 0.82355 0.0
O160 O 0.69547 0.73648 0.8402 0.0
C161 C 0.76738 0.74324 0.802 0.0
C162 C 0.86524 0.73222 0.83297 0.0
C163 C 0.71811 0.76307 0.8458 0.0
O164 O 0.79184 0.75155 0.81305 0.0
O165 O 0.73729 0.72055 0.80359 0.0
O166 O 0.79762 0.69567 0.8537 0.0
O167 O 0.76432 0.68384 0.8323 0.0
Co168 Co 0.52684 0.53688 0.08496 0.0
O169 O 0.54956 0.58718 0.07919 0.0
O170 O 0.48926 0.57936 0.08879 0.0
C171 C 0.58009 0.51444 0.09808 0.0
O172 O 0.49385 0.48997 0.0926 0.0
Co173 Co 0.56539 0.45782 0.07352 0.0
O174 O 0.52463 0.43257 0.08685 0.0
C175 C 0.52021 0.50813 0.05177 0.0
C176 C 0.51652 0.60325 0.08358 0.0
C177 C 0.49619 0.45183 0.09303 0.0
O178 O 0.50648 0.5293 0.06302 0.0
O179 O 0.54707 0.48173 0.05345 0.0
O180 O 0.55485 0.53757 0.105 0.0
O181 O 0.57408 0.50832 0.08348 0.0
Co182 Co 0.9898 0.47138 0.58566 0.0
O183 O 0.96575 0.42166 0.58 0.0
O184 O 0.02661 0.42809 0.58925 0.0
C185 C 0.9375 0.49473 0.59908 0.0
O186 O 0.02402 0.51762 0.59316 0.0
Co187 Co 0.95231 0.55126 0.57451 0.0
O188 O 0.99411 0.57563 0.58755 0.0
C189 C 0.99446 0.49945 0.55238 0.0
C190 C 0.9986 0.40486 0.58419 0.0
C191 C 0.02235 0.5558 0.59361 0.0
O192 O 0.00913 0.47858 0.56355 0.0
O193 O 0.96811 0.52623 0.55434 0.0
O194 O 0.96255 0.47111 0.60588 0.0
O195 O 0.94321 0.50082 0.58446 0.0
Co196 Co 0.5256 0.46458 0.91084 0.0
O197 O 0.54728 0.41514 0.91837 0.0
O198 O 0.49082 0.4208 0.90552 0.0
C199 C 0.58254 0.48824 0.9003 0.0
O200 O 0.494 0.51003 0.90089 0.0
Co201 Co 0.55722 0.54627 0.92285 0.0
O202 O 0.52369 0.56826 0.90617 0.0
C203 C 0.49995 0.50036 0.94179 0.0
C204 C 0.51649 0.39789 0.91236 0.0
C205 C 0.49677 0.54805 0.89946 0.0
O206 O 0.49718 0.47294 0.93138 0.0
O207 O 0.52341 0.53003 0.94075 0.0
O208 O 0.56093 0.46301 0.89262 0.0
O209 O 0.57104 0.49532 0.91434 0.0
Co210 Co 0.996 0.53569 0.40937 0.0
O211 O 0.97364 0.58501 0.41652 0.0
O212 O 0.03268 0.57904 0.40564 0.0
C213 C 0.94114 0.51494 0.39682 0.0
O214 O 0.02849 0.49018 0.40008 0.0
Co215 Co 0.95936 0.45409 0.41896 0.0
O216 O 0.99585 0.43251 0.40314 0.0
C217 C 0.01317 0.49701 0.4406 0.0
C218 C 0.00577 0.60206 0.41165 0.0
C219 C 0.02478 0.45255 0.39778 0.0
O220 O 0.01919 0.52522 0.43073 0.0
O221 O 0.98927 0.46816 0.43824 0.0
O222 O 0.96561 0.53899 0.38993 0.0
O223 O 0.94901 0.50654 0.41111 0.0
C224 C 0.9846 0.1687 0.59035 0.0
C225 C 0.01342 0.14953 0.58133 0.0
C226 C 0.9827 0.21034 0.59098 0.0
C227 C 0.0097 0.23332 0.58211 0.0
C228 C 0.03827 0.21403 0.57271 0.0
C229 C 0.04005 0.17242 0.57257 0.0
C230 C 0.95224 0.22976 0.60135 0.0
C231 C 0.06697 0.23735 0.5628 0.0
C232 C 0.97982 0.33946 0.57283 0.0
C233 C 0.00308 0.36125 0.58332 0.0
C234 C 0.98223 0.29794 0.57213 0.0
C235 C 0.00774 0.27754 0.58248 0.0
C236 C 0.0313 0.2994 0.59314 0.0
C237 C 0.02909 0.34109 0.59328 0.0
C238 C 0.95742 0.27592 0.56031 0.0
C239 C 0.05826 0.27872 0.60458 0.0
H240 H 0.9642 0.15115 0.59725 0.0
H241 H 0.06234 0.15775 0.56555 0.0
H242 H 0.96718 0.24929 0.60994 0.0
H243 H 0.9323 0.24874 0.59428 0.0
H244 H 0.93397 0.20774 0.60776 0.0
H245 H 0.08662 0.21786 0.55579 0.0
H246 H 0.05048 0.25715 0.55476 0.0
H247 H 0.08568 0.25648 0.57031 0.0
H248 H 0.95984 0.35498 0.56503 0.0
H249 H 0.04685 0.35783 0.6015 0.0
H250 H 0.9364 0.25586 0.56635 0.0
H251 H 0.97669 0.25717 0.55287 0.0
H252 H 0.94028 0.29628 0.55268 0.0
H253 H 0.04074 0.25821 0.61199 0.0
H254 H 0.07421 0.29993 0.61225 0.0
H255 H 0.08039 0.26056 0.59824 0.0
C256 C 0.92909 0.7625 0.84186 0.0
C257 C 0.90907 0.735 0.83245 0.0
C258 C 0.97065 0.76497 0.84175 0.0
C259 C 0.99277 0.73991 0.83176 0.0
C260 C 0.97265 0.71235 0.82213 0.0
C261 C 0.93109 0.70994 0.82271 0.0
C262 C 0.99092 0.79426 0.85242 0.0
C263 C 0.99504 0.68562 0.8111 0.0
C264 C 0.09701 0.77373 0.82119 0.0
C265 C 0.12048 0.74989 0.8309 0.0
C266 C 0.05551 0.77032 0.82117 0.0
C267 C 0.0369 0.74286 0.8313 0.0
C268 C 0.06046 0.71869 0.84113 0.0
C269 C 0.10196 0.72226 0.84072 0.0
C270 C 0.03157 0.79624 0.81034 0.0
C271 C 0.04179 0.68948 0.85227 0.0
H272 H 0.91228 0.78175 0.8495 0.0
H273 H 0.91578 0.68874 0.81536 0.0
H274 H 0.01208 0.77852 0.86015 0.0
H275 H 0.00824 0.81585 0.84544 0.0
H276 H 0.96955 0.81086 0.85979 0.0
H277 H 0.97501 0.66619 0.80423 0.0
H278 H 0.01291 0.70377 0.80292 0.0
H279 H 0.01593 0.66666 0.81774 0.0
H280 H 0.1111 0.79502 0.81351 0.0
H281 H 0.11989 0.70387 0.84832 0.0
H282 H 0.0118 0.81582 0.81721 0.0
H283 H 0.01243 0.77757 0.80281 0.0
H284 H 0.05058 0.81504 0.80278 0.0
H285 H 0.02193 0.70536 0.86047 0.0
H286 H 0.0642 0.67285 0.85914 0.0
H287 H 0.02331 0.66793 0.84575 0.0
C288 C 0.53452 0.66947 0.07268 0.0
C289 C 0.51103 0.64681 0.08281 0.0
C290 C 0.53138 0.71097 0.07221 0.0
C291 C 0.50477 0.73049 0.08239 0.0
C292 C 0.48072 0.70773 0.09258 0.0
C293 C 0.48379 0.66608 0.09253 0.0
C294 C 0.55688 0.73395 0.06091 0.0
C295 C 0.45257 0.72743 0.10383 0.0
C296 C 0.52888 0.8382 0.09181 0.0
C297 C 0.50142 0.85868 0.08256 0.0
C298 C 0.5297 0.79653 0.09211 0.0
C299 C 0.50306 0.77475 0.08264 0.0
C300 C 0.47558 0.79532 0.07312 0.0
C301 C 0.47477 0.83702 0.07335 0.0
C302 C 0.55895 0.7758 0.10264 0.0
C303 C 0.44735 0.77329 0.06257 0.0
H304 H 0.55543 0.65469 0.06506 0.0
H305 H 0.46577 0.6487 0.10045 0.0
H306 H 0.53816 0.75362 0.05361 0.0
H307 H 0.57779 0.75317 0.06742 0.0
H308 H 0.57425 0.71421 0.05312 0.0
H309 H 0.43555 0.70557 0.11083 0.0
H310 H 0.4694 0.74688 0.1119 0.0
H311 H 0.4314 0.74654 0.09741 0.0
H312 H 0.54929 0.85478 0.09907 0.0
H313 H 0.45356 0.85271 0.06614 0.0
H314 H 0.57968 0.75771 0.09558 0.0
H315 H 0.5431 0.75525 0.11059 0.0
H316 H 0.57649 0.79697 0.10977 0.0
H317 H 0.46427 0.7545 0.05431 0.0
H318 H 0.42806 0.79364 0.05579 0.0
H319 H 0.42829 0.75323 0.06956 0.0
C320 C 0.59997 0.23051 0.34305 0.0
C321 C 0.61927 0.25844 0.33362 0.0
C322 C 0.55836 0.22855 0.34357 0.0
C323 C 0.53558 0.25448 0.33414 0.0
C324 C 0.55502 0.28225 0.3244 0.0
C325 C 0.59658 0.2842 0.3244 0.0
C326 C 0.53877 0.19907 0.35434 0.0
C327 C 0.53194 0.30978 0.3139 0.0
C328 C 0.43012 0.22353 0.32431 0.0
C329 C 0.40774 0.24799 0.33417 0.0
C330 C 0.47165 0.22562 0.32409 0.0
C331 C 0.49143 0.25217 0.33424 0.0
C332 C 0.46897 0.27678 0.3443 0.0
C333 C 0.42734 0.27473 0.34401 0.0
C334 C 0.49437 0.19954 0.31292 0.0
C335 C 0.48894 0.30492 0.35551 0.0
H336 H 0.61738 0.21081 0.35031 0.0
H337 H 0.61136 0.30576 0.31705 0.0
H338 H 0.51869 0.21477 0.36251 0.0
H339 H 0.52038 0.17808 0.3475 0.0
H340 H 0.56063 0.18179 0.36124 0.0
H341 H 0.55154 0.32908 0.30678 0.0
H342 H 0.5128 0.29228 0.30594 0.0
H343 H 0.5122 0.32892 0.32098 0.0
H344 H 0.4151 0.20293 0.31662 0.0
H345 H 0.41018 0.29345 0.35174 0.0
H346 H 0.51437 0.17953 0.3195 0.0
H347 H 0.5132 0.2181 0.30522 0.0
H348 H 0.47452 0.18119 0.30553 0.0
H349 H 0.50932 0.28824 0.36326 0.0
H350 H 0.46732 0.32129 0.36285 0.0
H351 H 0.50707 0.32675 0.34898 0.0
C352 C 0.99193 0.83748 0.40229 0.0
C353 C 0.01855 0.85791 0.41193 0.0
C354 C 0.99047 0.79577 0.40225 0.0
C355 C 0.01574 0.77397 0.41229 0.0
C356 C 0.04212 0.79452 0.42226 0.0
C357 C 0.04344 0.83617 0.42187 0.0
C358 C 0.96227 0.77501 0.39129 0.0
C359 C 0.06902 0.77251 0.43335 0.0
C360 C 0.98528 0.66814 0.42207 0.0
C361 C 0.01021 0.64579 0.41238 0.0
C362 C 0.98725 0.70975 0.42234 0.0
C363 C 0.01433 0.72968 0.41247 0.0
C364 C 0.0398 0.70726 0.40273 0.0
C365 C 0.0377 0.66556 0.40291 0.0
C366 C 0.9601 0.7324 0.43313 0.0
C367 C 0.06871 0.72736 0.39187 0.0
H368 H 0.97284 0.85406 0.3945 0.0
H369 H 0.06402 0.85176 0.42939 0.0
H370 H 0.97901 0.75499 0.38343 0.0
H371 H 0.94129 0.75634 0.39802 0.0
H372 H 0.94499 0.79618 0.38407 0.0
H373 H 0.08715 0.79288 0.44061 0.0
H374 H 0.05119 0.75333 0.44118 0.0
H375 H 0.08923 0.75285 0.42671 0.0
H376 H 0.96407 0.65306 0.42948 0.0
H377 H 0.05683 0.64848 0.39531 0.0
H378 H 0.94003 0.75163 0.42622 0.0
H379 H 0.97773 0.75206 0.44084 0.0
H380 H 0.94182 0.71245 0.44051 0.0
H381 H 0.05245 0.74681 0.38362 0.0
H382 H 0.0865 0.70576 0.38506 0.0
H383 H 0.08919 0.74654 0.39861 0.0
C384 C 0.42545 0.78786 0.66692 0.0
C385 C 0.40298 0.76021 0.65847 0.0
C386 C 0.46694 0.78582 0.66733 0.0
C387 C 0.48671 0.75567 0.65891 0.0
C388 C 0.46424 0.72762 0.65032 0.0
C389 C 0.42259 0.73005 0.6503 0.0
C390 C 0.48964 0.81597 0.67682 0.0
C391 C 0.48424 0.69533 0.64104 0.0
C392 C 0.59516 0.77505 0.64924 0.0
C393 C 0.61459 0.75161 0.66036 0.0
C394 C 0.55357 0.7759 0.64839 0.0
C395 C 0.53088 0.75362 0.65919 0.0
C396 C 0.55044 0.73041 0.67061 0.0
C397 C 0.59203 0.72929 0.67092 0.0
C398 C 0.5339 0.80038 0.63585 0.0
C399 C 0.52742 0.70704 0.68258 0.0
H400 H 0.41056 0.81119 0.67333 0.0
H401 H 0.40544 0.7087 0.64369 0.0
H402 H 0.50845 0.80067 0.68555 0.0
H403 H 0.50965 0.83321 0.66912 0.0
H404 H 0.46979 0.83698 0.683 0.0
H405 H 0.46264 0.67612 0.63484 0.0
H406 H 0.50458 0.70869 0.63234 0.0
H407 H 0.50245 0.67651 0.64886 0.0
H408 H 0.6125 0.79195 0.64093 0.0
H409 H 0.60696 0.71118 0.67955 0.0
H410 H 0.51534 0.82379 0.64123 0.0
H411 H 0.51397 0.78138 0.62877 0.0
H412 H 0.55572 0.81472 0.62796 0.0
H413 H 0.50825 0.7273 0.68943 0.0
H414 H 0.54708 0.69074 0.69076 0.0
H415 H 0.50772 0.68539 0.6767 0.0
C416 C 0.53384 0.33166 0.92366 0.0
C417 C 0.51167 0.35413 0.91301 0.0
C418 C 0.53094 0.29007 0.92407 0.0
C419 C 0.50587 0.27027 0.91336 0.0
C420 C 0.48316 0.29285 0.90265 0.0
C421 C 0.48603 0.33451 0.90271 0.0
C422 C 0.55511 0.26728 0.93587 0.0
C423 C 0.45659 0.27294 0.89085 0.0
C424 C 0.53103 0.16289 0.90368 0.0
C425 C 0.50253 0.14189 0.91226 0.0
C426 C 0.53217 0.20457 0.90383 0.0
C427 C 0.50456 0.22593 0.913 0.0
C428 C 0.47605 0.20487 0.92186 0.0
C429 C 0.47515 0.16314 0.92128 0.0
C430 C 0.56272 0.22578 0.89403 0.0
C431 C 0.44652 0.22643 0.93199 0.0
H432 H 0.55353 0.34662 0.93173 0.0
H433 H 0.46897 0.35167 0.8944 0.0
H434 H 0.53559 0.24751 0.94279 0.0
H435 H 0.5769 0.24818 0.92978 0.0
H436 H 0.57136 0.28715 0.94398 0.0
H437 H 0.44031 0.29466 0.88352 0.0
H438 H 0.47454 0.25363 0.88312 0.0
H439 H 0.43477 0.25365 0.89685 0.0
H440 H 0.55212 0.14675 0.89659 0.0
H441 H 0.45308 0.14714 0.92797 0.0
H442 H 0.5821 0.24411 0.90159 0.0
H443 H 0.54783 0.24615 0.88574 0.0
H444 H 0.58158 0.2049 0.88732 0.0
H445 H 0.46233 0.24536 0.94055 0.0
H446 H 0.42678 0.20576 0.93842 0.0
H447 H 0.42797 0.24631 0.92471 0.0
C448 C 0.09464 0.21368 0.16163 0.0
C449 C 0.11787 0.24799 0.16024 0.0
C450 C 0.0531 0.21568 0.16139 0.0
C451 C 0.03422 0.25299 0.16004 0.0
C452 C 0.05754 0.28781 0.1587 0.0
C453 C 0.09912 0.28485 0.15865 0.0
C454 C 0.02942 0.1778 0.1626 0.0
C455 C 0.03855 0.32818 0.15739 0.0
C456 C 0.92698 0.25345 0.14624 0.0
C457 C 0.90653 0.2592 0.16025 0.0
C458 C 0.96859 0.25227 0.14595 0.0
C459 C 0.99007 0.25547 0.1601 0.0
C460 C 0.96929 0.26041 0.17433 0.0
C461 C 0.92773 0.26303 0.17418 0.0
C462 C 0.98957 0.24813 0.13049 0.0
C463 C 0.99095 0.26271 0.1897 0.0
H464 H 0.10898 0.18506 0.1627 0.0
H465 H 0.11697 0.31146 0.15765 0.0
H466 H 0.00991 0.1789 0.17299 0.0
H467 H 0.01002 0.17456 0.15224 0.0
H468 H 0.0486 0.15113 0.16345 0.0
H469 H 0.06079 0.35235 0.15643 0.0
H470 H 0.01892 0.32921 0.14703 0.0
H471 H 0.01978 0.33387 0.16777 0.0
H472 H 0.91041 0.25113 0.13545 0.0
H473 H 0.91171 0.26749 0.185 0.0
H474 H 0.00772 0.22072 0.13042 0.0
H475 H 0.01007 0.27347 0.12875 0.0
H476 H 0.96859 0.24705 0.12052 0.0
H477 H 0.00904 0.23559 0.19141 0.0
H478 H 0.9704 0.26579 0.19974 0.0
H479 H 0.01156 0.28832 0.18966 0.0
C480 C 0.98443 0.043 0.46244 0.0
C481 C 0.98988 0.00728 0.45433 0.0
C482 C 0.97867 0.04326 0.47858 0.0
C483 C 0.97796 0.00685 0.48673 0.0
C484 C 0.97741 0.9707 0.4783 0.0
C485 C 0.98366 0.97127 0.46209 0.0
C486 C 0.97879 0.0825 0.48705 0.0
C487 C 0.97475 0.93134 0.48657 0.0
C488 C 0.03912 0.00514 0.52358 0.0
C489 C 0.01031 0.00853 0.5352 0.0
C490 C 0.02869 0.00476 0.50783 0.0
C491 C 0.98818 0.00667 0.50357 0.0
C492 C 0.95875 0.00987 0.51529 0.0
C493 C 0.9703 0.01153 0.53104 0.0
C494 C 0.06123 1.00226 0.49576 0.0
C495 C 0.91527 0.01139 0.51128 0.0
H496 H 0.98801 0.07099 0.45637 0.0
H497 H 0.98716 0.94358 0.45583 0.0
H498 H 0.95624 0.08279 0.49643 0.0
H499 H 0.00817 0.08709 0.49257 0.0
H500 H 0.97301 0.10774 0.47903 0.0
H501 H 0.96584 0.90718 0.4785 0.0
H502 H 0.00413 0.92377 0.49156 0.0
H503 H 0.95323 0.93282 0.49634 0.0
H504 H 0.07006 0.00283 0.52687 0.0
H505 H 0.94803 0.01365 0.54011 0.0
H506 H 0.05919 0.02773 0.4876 0.0
H507 H 0.05786 0.97475 0.4888 0.0
H508 H 0.09124 1.00226 0.50107 0.0
H509 H 0.90714 0.04214 0.50799 0.0
H510 H 0.89657 0.00255 0.52135 0.0
H511 H 0.90826 0.99183 0.50125 0.0
C512 C 0.29244 0.69711 0.77878 0.0
C513 C 0.25868 0.71375 0.78567 0.0
C514 C 0.29404 0.69067 0.76269 0.0
C515 C 0.26127 0.70176 0.75343 0.0
C516 C 0.225 0.71216 0.76069 0.0
C517 C 0.22411 0.71812 0.77688 0.0
C518 C 0.33275 0.678 0.75547 0.0
C519 C 0.18893 0.72272 0.75119 0.0
C520 C 0.28193 0.76742 0.71878 0.0
C521 C 0.27358 0.7422 0.70632 0.0
C522 C 0.27983 0.75378 0.73413 0.0
C523 C 0.26826 0.71402 0.73705 0.0
C524 C 0.26178 0.68777 0.72442 0.0
C525 C 0.26463 0.70227 0.70908 0.0
C526 C 0.28802 0.78269 0.74722 0.0
C527 C 0.24934 0.64531 0.72699 0.0
H528 H 0.31898 0.69304 0.78573 0.0
H529 H 0.19791 0.73068 0.78227 0.0
H530 H 0.3277 0.65905 0.74509 0.0
H531 H 0.34932 0.70471 0.75163 0.0
H532 H 0.35145 0.66157 0.76395 0.0
H533 H 0.16154 0.72199 0.75837 0.0
H534 H 0.19249 0.75314 0.74644 0.0
H535 H 0.18544 0.70214 0.7412 0.0
H536 H 0.28855 0.79837 0.7165 0.0
H537 H 0.25745 0.68309 0.69934 0.0
H538 H 0.31068 0.77043 0.75524 0.0
H539 H 0.2606 0.78766 0.75407 0.0
H540 H 0.29868 0.81184 0.74287 0.0
H541 H 0.26362 0.63243 0.73748 0.0
H542 H 0.25654 0.62654 0.71673 0.0
H543 H 0.21682 0.64425 0.72878 0.0
C544 C 0.48442 0.99625 0.02396 0.0
C545 C 0.5134 0.99348 0.03555 0.0
C546 C 0.49461 0.99593 0.00819 0.0
C547 C 0.53504 0.99369 0.00386 0.0
C548 C 0.56461 0.99065 0.01554 0.0
C549 C 0.55331 0.98992 0.03134 0.0
C550 C 0.46193 0.99842 -0.00384 0.0
C551 C 0.608 0.9886 0.01143 0.0
C552 C 0.5392 0.95653 0.96281 0.0
C553 C 0.53445 0.99211 0.95449 0.0
C554 C 0.54416 0.95657 0.97899 0.0
C555 C 0.54504 0.99312 0.98701 0.0
C556 C 0.54601 0.0291 0.97845 0.0
C557 C 0.54038 0.02824 0.9622 0.0
C558 C 0.54324 0.9175 0.9876 0.0
C559 C 0.54879 0.06862 0.9866 0.0
H560 H 0.45355 0.99908 0.02728 0.0
H561 H 0.57571 0.98837 0.04038 0.0
H562 H 0.46541 0.02578 0.98911 0.0
H563 H 0.4637 0.97279 0.98808 0.0
H564 H 0.432 0.99872 0.00153 0.0
H565 H 0.62707 0.99635 0.02154 0.0
H566 H 0.61549 0.958 0.00774 0.0
H567 H 0.61513 0.00877 0.0016 0.0
H568 H 0.53591 0.92839 0.95683 0.0
H569 H 0.53748 0.05584 0.95581 0.0
H570 H 0.51369 0.91352 0.99305 0.0
H571 H 0.56559 0.91704 -0.00294 0.0
H572 H 0.54876 0.89198 0.9797 0.0
H573 H 0.51942 0.07642 0.99152 0.0
H574 H 0.55788 0.09258 0.97846 0.0
H575 H 0.57023 0.06722 -0.00361 0.0
C576 C 0.22137 0.27663 0.21614 0.0
C577 C 0.2539 0.28525 0.20667 0.0
C578 C 0.22348 0.28311 0.23228 0.0
C579 C 0.25883 0.29867 0.23881 0.0
C580 C 0.2889 0.31325 0.2289 0.0
C581 C 0.28628 0.30589 0.21287 0.0
C582 C 0.19031 0.26808 0.24248 0.0
C583 C 0.3263 0.33145 0.23533 0.0
C584 C 0.2626 0.30325 0.28304 0.0
C585 C 0.27691 0.26524 0.28641 0.0
C586 C 0.25831 0.31585 0.26751 0.0
C587 C 0.26853 0.28956 0.2553 0.0
C588 C 0.28565 0.2522 0.25881 0.0
C589 C 0.2893 0.24042 0.27436 0.0
C590 C 0.24027 0.35593 0.26429 0.0
C591 C 0.29775 0.22346 0.24616 0.0
H592 H 0.19637 0.26066 0.21128 0.0
H593 H 0.31127 0.31286 0.20541 0.0
H594 H 0.19897 0.23913 0.24761 0.0
H595 H 0.18454 0.2889 0.25221 0.0
H596 H 0.1625 0.2638 0.23576 0.0
H597 H 0.34178 0.34959 0.2264 0.0
H598 H 0.31984 0.35031 0.24562 0.0
H599 H 0.34665 0.30748 0.23913 0.0
H600 H 0.25232 0.32201 0.29248 0.0
H601 H 0.2999 0.21087 0.27712 0.0
H602 H 0.20803 0.35234 0.26225 0.0
H603 H 0.25327 0.36976 0.25373 0.0
H604 H 0.24428 0.37636 0.27433 0.0
H605 H 0.27123 0.21388 0.23951 0.0
H606 H 0.31256 0.19665 0.25092 0.0
H607 H 0.31827 0.23804 0.23784 0.0
C608 C 0.79577 0.23315 0.21315 0.0
C609 C 0.76034 0.23421 0.2047 0.0
C610 C 0.79516 0.22714 0.22936 0.0
C611 C 0.75833 0.22213 0.23707 0.0
C612 C 0.72333 0.21771 0.22821 0.0
C613 C 0.72475 0.22396 0.2121 0.0
C614 C 0.83328 0.23092 0.23841 0.0
C615 C 0.68358 0.21153 0.23589 0.0
C616 C 0.75541 0.21233 0.28132 0.0
C617 C 0.75268 0.25227 0.28565 0.0
C618 C 0.75688 0.20156 0.26548 0.0
C619 C 0.75507 0.23155 0.25392 0.0
C620 C 0.75036 0.27173 0.25839 0.0
C621 C 0.74968 0.28156 0.2742 0.0
C622 C 0.76238 0.15854 0.26119 0.0
C623 C 0.74722 0.30465 0.24648 0.0
H624 H 0.82336 0.24074 0.20741 0.0
H625 H 0.6974 0.22392 0.20546 0.0
H626 H 0.83495 0.26092 0.24369 0.0
H627 H 0.83437 0.20893 0.24802 0.0
H628 H 0.85959 0.22678 0.2308 0.0
H629 H 0.66108 0.20061 0.22747 0.0
H630 H 0.68581 0.19014 0.24567 0.0
H631 H 0.67306 0.24016 0.24074 0.0
H632 H 0.75847 0.18985 0.29028 0.0
H633 H 0.7477 0.31243 0.27767 0.0
H634 H 0.79358 0.15364 0.25764 0.0
H635 H 0.74335 0.15024 0.25117 0.0
H636 H 0.75567 0.13853 0.27114 0.0
H637 H 0.77491 0.30629 0.23955 0.0
H638 H 0.74203 0.33405 0.25195 0.0
H639 H 0.72256 0.29852 0.23827 0.0
C640 C 0.79322 0.79557 0.71248 0.0
C641 C 0.75911 0.77959 0.7056 0.0
C642 C 0.79537 0.80136 0.72863 0.0
C643 C 0.763 0.78985 0.73804 0.0
C644 C 0.72687 0.77822 0.73093 0.0
C645 C 0.72527 0.77347 0.71468 0.0
C646 C 0.83388 0.81527 0.73569 0.0
C647 C 0.6915 0.76612 0.74057 0.0
C648 C 0.78508 0.73173 0.77465 0.0
C649 C 0.77441 0.75857 0.78629 0.0
C650 C 0.78315 0.7424 0.75892 0.0
C651 C 0.76976 0.78083 0.75478 0.0
C652 C 0.76097 0.80884 0.76658 0.0
C653 C 0.76325 0.79724 0.78231 0.0
C654 C 0.79336 0.71168 0.74674 0.0
C655 C 0.74695 0.85012 0.76266 0.0
H656 H 0.81925 0.8008 0.70536 0.0
H657 H 0.69891 0.76111 0.70932 0.0
H658 H 0.82844 0.8351 0.74578 0.0
H659 H 0.85079 0.78924 0.73996 0.0
H660 H 0.85245 0.83121 0.72702 0.0
H661 H 0.6641 0.76427 0.73343 0.0
H662 H 0.69711 0.73654 0.74581 0.0
H663 H 0.68659 0.78735 0.75024 0.0
H664 H 0.7932 0.7017 0.77787 0.0
H665 H 0.75425 0.81762 0.79142 0.0
H666 H 0.81613 0.72346 0.73865 0.0
H667 H 0.76667 0.70454 0.73973 0.0
H668 H 0.80474 0.68378 0.75197 0.0
H669 H 0.76357 0.86248 0.75261 0.0
H670 H 0.75007 0.87054 0.77275 0.0
H671 H 0.71521 0.84901 0.75934 0.0
C672 C 0.47877 0.46245 0.96521 0.0
C673 C 0.47762 0.49738 0.95644 0.0
C674 C 0.47239 0.46375 0.98139 0.0
C675 C 0.4651 0.5008 0.98866 0.0
C676 C 0.45728 0.53454 0.9794 0.0
C677 C 0.46378 0.53243 0.96332 0.0
C678 C 0.4791 0.42673 0.99088 0.0
C679 C 0.44823 0.57433 0.98661 0.0
C680 C 0.46387 0.5074 0.03299 0.0
C681 C 0.50426 0.51298 0.03601 0.0
C682 C 0.45005 0.50396 0.01758 0.0
C683 C 0.4774 0.50666 0.00511 0.0
C684 C 0.51791 0.51448 0.00823 0.0
C685 C 0.53082 0.51708 0.02365 0.0
C686 C 0.40682 0.49516 0.01479 0.0
C687 C 0.54808 0.51871 0.9953 0.0
H688 H 0.48902 0.43521 0.95984 0.0
H689 H 0.46203 0.55929 0.95639 0.0
H690 H 0.50964 0.42712 0.99566 0.0
H691 H 0.4582 0.42535 0.00084 0.0
H692 H 0.4756 0.39956 0.98368 0.0
H693 H 0.43428 0.59476 0.97806 0.0
H694 H 0.42835 0.57113 -0.00318 0.0
H695 H 0.47625 0.58805 0.99071 0.0
H696 H 0.44355 0.50348 0.04266 0.0
H697 H 0.56207 0.52125 0.02611 0.0
H698 H 0.40304 0.46276 0.01311 0.0
H699 H 0.3957 0.51016 0.00415 0.0
H700 H 0.38832 0.50429 0.02488 0.0
H701 H 0.55058 0.49038 0.9888 0.0
H702 H 0.57791 0.52673 -0.00023 0.0
H703 H 0.53855 0.54189 0.98692 0.0
C704 C 0.04865 0.49237 0.53272 0.0
C705 C 0.00821 0.49339 0.53634 0.0
C706 C 0.06133 0.49318 0.51709 0.0
C707 C 0.0327 0.49449 0.50502 0.0
C708 C 0.99183 0.49373 0.50875 0.0
C709 C 0.98018 0.49356 0.52435 0.0
C710 C 0.10509 0.49456 0.5136 0.0
C711 C 0.96016 0.49399 0.49627 0.0
C712 C 0.03684 0.53353 0.46417 0.0
C713 C 0.03243 0.4979 0.456 0.0
C714 C 0.04291 0.5331 0.48038 0.0
C715 C 0.0442 0.49627 0.48835 0.0
C716 C 0.04574 0.46058 0.47976 0.0
C717 C 0.03981 0.46185 0.46364 0.0
C718 C 0.04285 0.57183 0.48916 0.0
C719 C 0.04792 0.42072 0.48773 0.0
H720 H 0.07026 0.49289 0.54207 0.0
H721 H 0.94891 0.49427 0.52724 0.0
H722 H 0.11261 0.4759 0.50338 0.0
H723 H 0.1136 0.5255 0.51075 0.0
H724 H 0.12304 0.48469 0.52374 0.0
H725 H 0.92983 0.49179 0.50121 0.0
H726 H 0.96211 0.52176 0.48938 0.0
H727 H 0.96462 0.46881 0.48814 0.0
H728 H 0.03179 0.56147 0.45824 0.0
H729 H 0.03755 0.43425 0.4572 0.0
H730 H 0.06415 0.5709 0.499 0.0
H731 H 0.01291 0.57708 0.49408 0.0
H732 H 0.05043 0.59717 0.48143 0.0
H733 H 0.06894 0.42142 0.49766 0.0
H734 H 0.0571 0.39695 0.47952 0.0
H735 H 0.01825 0.41301 0.49241 0.0
C736 C 0.22341 0.84992 0.62445 0.0
C737 C 0.24343 0.85685 0.63845 0.0
C738 C 0.19663 0.87806 0.61857 0.0
C739 C 0.19102 0.91431 0.62666 0.0
C740 C 0.21251 0.9219 0.64049 0.0
C741 C 0.2379 0.89268 0.64639 0.0
C742 C 0.17342 0.8685 0.604 0.0
C743 C 0.20841 0.96069 0.64914 0.0
C744 C 0.14689 0.99734 0.60255 0.0
C745 C 0.10747 0.99699 0.60753 0.0
C746 C 0.17487 0.9718 0.60921 0.0
C747 C 0.16257 0.94421 0.62066 0.0
C748 C 0.12276 0.94432 0.62594 0.0
C749 C 0.0957 0.97127 0.61944 0.0
C750 C 0.21725 0.97346 0.60362 0.0
C751 C 0.1083 0.91463 0.63783 0.0
H752 H 0.22729 0.8218 0.61852 0.0
H753 H 0.25349 0.89779 0.65727 0.0
H754 H 0.14121 0.86967 0.60653 0.0
H755 H 0.17953 0.89093 0.59485 0.0
H756 H 0.18067 0.83869 0.59929 0.0
H757 H 0.22912 0.96283 0.65917 0.0
H758 H 0.21413 0.98588 0.64112 0.0
H759 H 0.17771 0.96398 0.65354 0.0
H760 H 0.15561 0.01709 0.59317 0.0
H761 H 0.06486 0.97056 0.62296 0.0
H762 H 0.2245 0.94595 0.59715 0.0
H763 H 0.23778 0.97527 0.61371 0.0
H764 H 0.22274 0.99923 0.59584 0.0
H765 H 0.11193 0.88414 0.63318 0.0
H766 H 0.07665 0.91916 0.64089 0.0
H767 H 0.12627 0.91664 0.64862 0.0
C768 C 0.26694 0.87226 0.86173 0.0
C769 C 0.27971 0.85235 0.84831 0.0
C770 C 0.29024 0.90227 0.86849 0.0
C771 C 0.32776 0.9114 0.86199 0.0
C772 C 0.34024 0.89202 0.84822 0.0
C773 C 0.31573 0.86331 0.84141 0.0
C774 C 0.27534 0.92322 0.88288 0.0
C775 C 0.38058 0.8997 0.84121 0.0
C776 C 0.39016 0.99999 0.87481 0.0
C777 C 0.41329 0.98285 0.88658 0.0
C778 C 0.36096 0.97759 0.86703 0.0
C779 C 0.35623 0.93684 0.87068 0.0
C780 C 0.38006 0.91943 0.88237 0.0
C781 C 0.40744 0.94286 0.89041 0.0
C782 C 0.33495 0.99751 0.85506 0.0
C783 C 0.37727 0.87576 0.88624 0.0
H784 H 0.23881 0.86431 0.86696 0.0
H785 H 0.32573 0.84831 0.83098 0.0
H786 H 0.2922 0.91296 0.89322 0.0
H787 H 0.28 0.9557 0.88183 0.0
H788 H 0.24338 0.91745 0.88497 0.0
H789 H 0.38475 0.88406 0.82993 0.0
H790 H 0.38515 0.93188 0.83931 0.0
H791 H 0.40386 0.88954 0.84943 0.0
H792 H 0.39421 0.03106 0.87198 0.0
H793 H 0.42486 0.92932 0.89952 0.0
H794 H 0.30333 0.99324 0.85817 0.0
H795 H 0.33948 0.98374 0.84346 0.0
H796 H 0.34104 0.02979 0.85411 0.0
H797 H 0.34731 0.86866 0.89073 0.0
H798 H 0.3994 0.8665 0.89511 0.0
H799 H 0.38193 0.85779 0.87556 0.0
C800 C 0.38846 0.00264 0.11684 0.0
C801 C 0.41815 0.02048 0.10789 0.0
C802 C 0.35907 0.02586 0.12403 0.0
C803 C 0.36057 0.06772 0.12259 0.0
C804 C 0.3915 0.0857 0.11399 0.0
C805 C 0.41942 0.06176 0.10649 0.0
C806 C 0.3259 0.00567 0.13275 0.0
C807 C 0.39509 0.13025 0.11266 0.0
C808 C 0.27248 0.13611 0.12825 0.0
C809 C 0.27932 0.15019 0.14338 0.0
C810 C 0.29745 0.10736 0.12162 0.0
C811 C 0.33041 0.09321 0.13022 0.0
C812 C 0.33672 0.10655 0.14564 0.0
C813 C 0.31081 0.13447 0.15209 0.0
C814 C 0.28933 0.09307 0.10526 0.0
C815 C 0.372 0.09293 0.15506 0.0
H816 H 0.38733 0.97058 0.11769 0.0
H817 H 0.44246 0.07546 0.09957 0.0
H818 H 0.32475 0.01646 0.14495 0.0
H819 H 0.29713 0.01322 0.12725 0.0
H820 H 0.32921 0.9729 0.13288 0.0
H821 H 0.42215 0.13944 0.10623 0.0
H822 H 0.36888 0.14244 0.10651 0.0
H823 H 0.39586 0.14381 0.12444 0.0
H824 H 0.24792 0.14784 0.12155 0.0
H825 H 0.3161 0.14487 0.16385 0.0
H826 H 0.29021 0.0602 0.10481 0.0
H827 H 0.31265 0.10425 0.09728 0.0
H828 H 0.2601 0.1033 0.10087 0.0
H829 H 0.37329 0.0601 0.15543 0.0
H830 H 0.37131 0.10431 0.16722 0.0
H831 H 0.39967 0.10341 0.14942 0.0
C832 C 0.12189 0.01343 0.37295 0.0
C833 C 0.11869 0.01192 0.38921 0.0
C834 C 0.14933 0.03902 0.36579 0.0
C835 C 0.17399 0.06329 0.37517 0.0
C836 C 0.17211 0.06027 0.39159 0.0
C837 C 0.14448 0.03466 0.39839 0.0
C838 C 0.15065 0.04144 0.34823 0.0
C839 C 0.19794 0.08551 0.40201 0.0
C840 C 0.26332 0.11622 0.35803 0.0
C841 C 0.24791 0.15416 0.35555 0.0
C842 C 0.23944 0.08596 0.36422 0.0
C843 C 0.19944 0.09422 0.36799 0.0
C844 C 0.184 0.1328 0.36556 0.0
C845 C 0.2085 0.16231 0.35929 0.0
C846 C 0.25683 0.04519 0.36664 0.0
C847 C 0.14164 0.14291 0.36957 0.0
H848 H 0.10194 0.99592 0.36583 0.0
H849 H 0.14234 0.03329 0.411 0.0
H850 H 0.13939 0.07076 0.34439 0.0
H851 H 0.1816 0.03882 0.34403 0.0
H852 H 0.13247 0.01796 0.34263 0.0
H853 H 0.19502 0.07732 0.41451 0.0
H854 H 0.22948 0.08265 0.39859 0.0
H855 H 0.18968 0.11717 0.40067 0.0
H856 H 0.29379 0.11008 0.35485 0.0
H857 H 0.19679 0.19175 0.35724 0.0
H858 H 0.23952 0.02295 0.35997 0.0
H859 H 0.25493 0.03683 0.37912 0.0
H860 H 0.28829 0.04353 0.36291 0.0
H861 H 0.1211 0.12315 0.36312 0.0
H862 H 0.13416 0.17418 0.36675 0.0
H863 H 0.13639 0.13798 0.3822 0.0
C864 C 0.98353 0.10257 0.37548 0.0
C865 C 0.97301 0.06882 0.3841 0.0
C866 C 0.95468 0.12616 0.36827 0.0
C867 C 0.91417 0.11612 0.36987 0.0
C868 C 0.90341 0.08108 0.37795 0.0
C869 C 0.93304 0.05763 0.38489 0.0
C870 C 0.96754 0.16281 0.35949 0.0
C871 C 0.86054 0.06952 0.37999 0.0
C872 C 0.84655 0.20569 0.36684 0.0
C873 C 0.83357 0.20288 0.35141 0.0
C874 C 0.87099 0.17627 0.3733 0.0
C875 C 0.88336 0.14391 0.36393 0.0
C876 C 0.86914 0.14046 0.34844 0.0
C877 C 0.84418 0.17001 0.34239 0.0
C878 C 0.88499 0.18075 0.38992 0.0
C879 C 0.88203 0.10682 0.33801 0.0
H880 H 0.01442 0.11116 0.37471 0.0
H881 H 0.9247 0.03172 0.39162 0.0
H882 H 0.95392 0.16332 0.34772 0.0
H883 H 0.95725 0.18967 0.36576 0.0
H884 H 1.00023 0.16458 0.35819 0.0
H885 H 0.85725 0.03955 0.38521 0.0
H886 H 0.84566 0.09134 0.38769 0.0
H887 H 0.8449 0.07007 0.36862 0.0
H888 H 0.83836 0.2314 0.37371 0.0
H889 H 0.8343 0.16833 0.33037 0.0
H890 H 0.91725 0.18698 0.39004 0.0
H891 H 0.88018 0.15278 0.39647 0.0
H892 H 0.86952 0.20521 0.39609 0.0
H893 H 0.91401 0.11 0.3353 0.0
H894 H 0.86526 0.10622 0.32687 0.0
H895 H 0.87812 0.07794 0.34401 0.0
C896 C 0.57295 0.07161 0.1168 0.0
C897 C 0.57109 0.06883 0.10056 0.0
C898 C 0.60081 0.09659 0.12399 0.0
C899 C 0.62747 0.11878 0.11464 0.0
C900 C 0.62736 0.11367 0.09826 0.0
C901 C 0.59873 0.08911 0.09139 0.0
C902 C 0.59973 0.10146 0.14148 0.0
C903 C 0.65565 0.13619 0.0879 0.0
C904 C 0.65685 0.2198 0.13019 0.0
C905 C 0.69473 0.21259 0.13628 0.0
C906 C 0.63506 0.18962 0.12295 0.0
C907 C 0.65146 0.15111 0.12174 0.0
C908 C 0.69012 0.14378 0.12745 0.0
C909 C 0.71138 0.17467 0.13463 0.0
C910 C 0.59407 0.19882 0.11687 0.0
C911 C 0.70859 0.10314 0.12631 0.0
H912 H 0.55107 0.05619 0.1238 0.0
H913 H 0.59693 0.08693 0.0788 0.0
H914 H 0.63 0.09936 0.14643 0.0
H915 H 0.58806 0.13131 0.1444 0.0
H916 H 0.58064 0.07887 0.14718 0.0
H917 H 0.65573 0.12454 0.07579 0.0
H918 H 0.64694 0.1679 0.08754 0.0
H919 H 0.68622 0.13473 0.0926 0.0
H920 H 0.64386 0.24907 0.13127 0.0
H921 H 0.74056 0.16875 0.13935 0.0
H922 H 0.57188 0.18019 0.12299 0.0
H923 H 0.59219 0.19164 0.10427 0.0
H924 H 0.58593 0.23047 0.11848 0.0
H925 H 0.69132 0.08178 0.13343 0.0
H926 H 0.73979 0.10288 0.13042 0.0
H927 H 0.70772 0.09245 0.11408 0.0
C928 C 0.67074 0.78783 0.86565 0.0
C929 C 0.69926 0.79596 0.85427 0.0
C930 C 0.64814 0.81839 0.87223 0.0
C931 C 0.65314 0.8578 0.86682 0.0
C932 C 0.68292 0.86632 0.85568 0.0
C933 C 0.70611 0.83525 0.84969 0.0
C934 C 0.61765 0.80818 0.88448 0.0
C935 C 0.68849 0.90767 0.84932 0.0
C936 C 0.55751 0.91519 0.87101 0.0
C937 C 0.56471 0.93711 0.88455 0.0
C938 C 0.58734 0.89175 0.86436 0.0
C939 C 0.62465 0.88893 0.87185 0.0
C940 C 0.63259 0.91254 0.88515 0.0
C941 C 0.60255 0.93687 0.89123 0.0
C942 C 0.57807 0.86813 0.84986 0.0
C943 C 0.67152 0.90965 0.89373 0.0
H944 H 0.66559 0.75736 0.86917 0.0
H945 H 0.72788 0.84133 0.84071 0.0
H946 H 0.62006 0.82874 0.89453 0.0
H947 H 0.58749 0.81156 0.87952 0.0
H948 H 0.62092 0.77727 0.88878 0.0
H949 H 0.71575 0.91027 0.84214 0.0
H950 H 0.66264 0.91557 0.84195 0.0
H951 H 0.68995 0.92965 0.85891 0.0
H952 H 0.52808 0.91537 0.86594 0.0
H953 H 0.60776 0.95339 0.90189 0.0
H954 H 0.57502 0.83631 0.85292 0.0
H955 H 0.60257 0.87071 0.8413 0.0
H956 H 0.55014 0.87803 0.84423 0.0
H957 H 0.67304 0.88073 0.89988 0.0
H958 H 0.67505 0.93371 0.90246 0.0
H959 H 0.69677 0.91081 0.88548 0.0
C960 C 0.8539 0.78983 0.62513 0.0
C961 C 0.82632 0.80085 0.63651 0.0
C962 C 0.87797 0.81826 0.61787 0.0
C963 C 0.87534 0.85848 0.62252 0.0
C964 C 0.84659 0.86993 0.63368 0.0
C965 C 0.82195 0.84096 0.64039 0.0
C966 C 0.90731 0.80495 0.60566 0.0
C967 C 0.84353 0.91227 0.63925 0.0
C968 C 0.97195 0.91418 0.61694 0.0
C969 C 0.96407 0.93624 0.60349 0.0
C970 C 0.94247 0.89054 0.62378 0.0
C971 C 0.9048 0.88767 0.61656 0.0
C972 C 0.89656 0.91055 0.60309 0.0
C973 C 0.9262 0.93516 0.59685 0.0
C974 C 0.95208 0.86771 0.63844 0.0
C975 C 0.85729 0.90735 0.59477 0.0
H976 H 0.85713 0.75876 0.62211 0.0
H977 H 0.80092 0.84935 0.64935 0.0
H978 H 0.90538 0.82424 0.5952 0.0
H979 H 0.93784 0.80755 0.61033 0.0
H980 H 0.90235 0.7737 0.60205 0.0
H981 H 0.81746 0.91697 0.64693 0.0
H982 H 0.87069 0.92014 0.64585 0.0
H983 H 0.84151 0.93292 0.62922 0.0
H984 H 1.00134 0.9152 0.62204 0.0
H985 H 0.92044 0.95194 0.58631 0.0
H986 H 0.95319 0.83552 0.63582 0.0
H987 H 0.9286 0.87228 0.64731 0.0
H988 H 0.981 0.87667 0.64353 0.0
H989 H 0.85403 0.87708 0.58986 0.0
H990 H 0.85456 0.92916 0.58512 0.0
H991 H 0.83248 0.91193 0.60304 0.0
C992 C 0.73146 0.34923 0.12446 0.0
C993 C 0.75247 0.35859 0.13802 0.0
C994 C 0.70412 0.37619 0.11814 0.0
C995 C 0.6989 0.41373 0.12531 0.0
C996 C 0.7216 0.42385 0.13859 0.0
C997 C 0.74752 0.39575 0.145 0.0
C998 C 0.6796 0.36385 0.10424 0.0
C999 C 0.71792 0.46401 0.14624 0.0
C1000 C 0.64965 0.49235 0.10033 0.0
C1001 C 0.61116 0.49254 0.10636 0.0
C1002 C 0.67898 0.46797 0.1068 0.0
C1003 C 0.66894 0.44198 0.11914 0.0
C1004 C 0.62999 0.44232 0.12533 0.0
C1005 C 0.60163 0.4682 0.119 0.0
C1006 C 0.72045 0.4695 0.10025 0.0
C1007 C 0.61785 0.41418 0.13817 0.0
H1008 H 0.73479 0.32003 0.11933 0.0
H1009 H 0.76371 0.40265 0.15558 0.0
H1010 H 0.64771 0.36429 0.10738 0.0
H1011 H 0.68377 0.38514 0.09453 0.0
H1012 H 0.68732 0.33366 0.10005 0.0
H1013 H 0.74021 0.4684 0.15561 0.0
H1014 H 0.72154 0.48785 0.13743 0.0
H1015 H 0.68796 0.46733 0.15137 0.0
H1016 H 0.6567 0.51114 0.09044 0.0
H1017 H 0.5715 0.46792 0.12338 0.0
H1018 H 0.72759 0.44097 0.09447 0.0
H1019 H 0.74224 0.47377 0.10979 0.0
H1020 H 0.72417 0.49378 0.09161 0.0
H1021 H 0.6221 0.38311 0.13425 0.0
H1022 H 0.58641 0.41816 0.14165 0.0
H1023 H 0.63684 0.41862 0.14857 0.0
C1024 C 0.778 0.39017 0.35024 0.0
C1025 C 0.77548 0.35235 0.35689 0.0
C1026 C 0.80251 0.41934 0.35673 0.0
C1027 C 0.8262 0.4098 0.3698 0.0
C1028 C 0.82331 0.37165 0.3767 0.0
C1029 C 0.79738 0.34344 0.37027 0.0
C1030 C 0.80374 0.46001 0.34936 0.0
C1031 C 0.84888 0.36008 0.3904 0.0
C1032 C 0.92074 0.46911 0.37566 0.0
C1033 C 0.91058 0.49256 0.38848 0.0
C1034 C 0.89348 0.44194 0.36943 0.0
C1035 C 0.85494 0.43932 0.37593 0.0
C1036 C 0.84413 0.46446 0.38843 0.0
C1037 C 0.87245 0.49021 0.39478 0.0
C1038 C 0.90644 0.41487 0.35638 0.0
C1039 C 0.80297 0.46357 0.39529 0.0
H1040 H 0.76103 0.39677 0.33982 0.0
H1041 H 0.79585 0.31382 0.37516 0.0
H1042 H 0.79927 0.4832 0.35837 0.0
H1043 H 0.83325 0.46516 0.34405 0.0
H1044 H 0.78084 0.46365 0.34017 0.0
H1045 H 0.84282 0.32938 0.39446 0.0
H1046 H 0.88059 0.36229 0.38711 0.0
H1047 H 0.84398 0.38078 0.40026 0.0
H1048 H 0.95066 0.47044 0.37109 0.0
H1049 H 0.86497 0.50826 0.40482 0.0
H1050 H 0.88674 0.4186 0.34614 0.0
H1051 H 0.90402 0.38351 0.36018 0.0
H1052 H 0.93744 0.42063 0.35268 0.0
H1053 H 0.78051 0.46691 0.38594 0.0
H1054 H 0.79841 0.48739 0.40406 0.0
H1055 H 0.79764 0.43454 0.401 0.0
C1056 C 0.91488 0.53538 0.62163 0.0
C1057 C 0.90669 0.51684 0.60742 0.0
C1058 C 0.88749 0.56183 0.62826 0.0
C1059 C 0.8508 0.56865 0.62065 0.0
C1060 C 0.84172 0.54815 0.60672 0.0
C1061 C 0.87013 0.52304 0.60012 0.0
C1062 C 0.89859 0.58393 0.64292 0.0
C1063 C 0.80248 0.55359 0.59855 0.0
C1064 C 0.76939 0.6168 0.64451 0.0
C1065 C 0.77047 0.65573 0.63891 0.0
C1066 C 0.79457 0.58774 0.63833 0.0
C1067 C 0.82263 0.59857 0.62683 0.0
C1068 C 0.82376 0.63807 0.62117 0.0
C1069 C 0.79701 0.6661 0.6271 0.0
C1070 C 0.79148 0.54566 0.64422 0.0
C1071 C 0.85406 0.65105 0.60927 0.0
H1072 H 0.94351 0.53093 0.62709 0.0
H1073 H 0.86398 0.50855 0.58909 0.0
H1074 H 0.89997 0.6162 0.64043 0.0
H1075 H 0.87571 0.5795 0.65202 0.0
H1076 H 0.92768 0.57432 0.64765 0.0
H1077 H 0.79857 0.53247 0.58873 0.0
H1078 H 0.77772 0.5495 0.6069 0.0
H1079 H 0.80033 0.5842 0.59389 0.0
H1080 H 0.74894 0.6092 0.65379 0.0
H1081 H 0.79814 0.69655 0.62306 0.0
H1082 H 0.81919 0.53724 0.65032 0.0
H1083 H 0.78774 0.52493 0.63428 0.0
H1084 H 0.76627 0.54164 0.65239 0.0
H1085 H 0.88433 0.64485 0.61368 0.0
H1086 H 0.85182 0.68317 0.60651 0.0
H1087 H 0.85023 0.63395 0.59833 0.0
C1088 C 0.76236 0.62055 0.86647 0.0
C1089 C 0.74646 0.64452 0.85469 0.0
C1090 C 0.73902 0.59137 0.87379 0.0
C1091 C 0.69852 0.58751 0.86969 0.0
C1092 C 0.68238 0.61203 0.85791 0.0
C1093 C 0.7068 0.63947 0.85032 0.0
C1094 C 0.75763 0.56468 0.88586 0.0
C1095 C 0.63899 0.61019 0.85362 0.0
C1096 C 0.63332 0.49875 0.87933 0.0
C1097 C 0.61441 0.51184 0.89292 0.0
C1098 C 0.66266 0.52204 0.87211 0.0
C1099 C 0.67203 0.55987 0.87831 0.0
C1100 C 0.65328 0.5729 0.89213 0.0
C1101 C 0.62542 0.54837 0.89943 0.0
C1102 C 0.68304 0.50655 0.85769 0.0
C1103 C 0.66118 0.61361 0.89882 0.0
H1104 H 0.7932 0.62404 0.8697 0.0
H1105 H 0.69432 0.65774 0.84121 0.0
H1106 H 0.74442 0.57058 0.89746 0.0
H1107 H 0.75154 0.53316 0.88299 0.0
H1108 H 0.79018 0.56899 0.88668 0.0
H1109 H 0.63095 0.63211 0.84448 0.0
H1110 H 0.63131 0.58015 0.84934 0.0
H1111 H 0.62057 0.61596 0.86409 0.0
H1112 H 0.62528 0.4703 0.87437 0.0
H1113 H 0.61127 0.55867 0.90997 0.0
H1114 H 0.7156 0.51022 0.85875 0.0
H1115 H 0.67339 0.52384 0.84737 0.0
H1116 H 0.67632 0.47476 0.85556 0.0
H1117 H 0.69319 0.6174 0.90125 0.0
H1118 H 0.64447 0.61902 0.90977 0.0
H1119 H 0.65267 0.63663 0.8902 0.0
C1120 C 0.43884 0.55146 0.88087 0.0
C1121 C 0.4661 0.57047 0.89071 0.0
C1122 C 0.40995 0.5734 0.87272 0.0
C1123 C 0.40811 0.61512 0.87463 0.0
C1124 C 0.43486 0.63418 0.88486 0.0
C1125 C 0.46351 0.61176 0.89266 0.0
C1126 C 0.38211 0.55216 0.86179 0.0
C1127 C 0.4339 0.67858 0.88731 0.0
C1128 C 0.37274 0.68555 0.84336 0.0
C1129 C 0.33601 0.69794 0.84925 0.0
C1130 C 0.39515 0.65651 0.85098 0.0
C1131 C 0.38092 0.63984 0.86503 0.0
C1132 C 0.34311 0.651 0.87074 0.0
C1133 C 0.32083 0.67974 0.86267 0.0
C1134 C 0.43502 0.64515 0.84435 0.0
C1135 C 0.32715 0.63416 0.88578 0.0
H1136 H 0.44044 0.5196 0.87934 0.0
H1137 H 0.48394 0.62686 0.90039 0.0
H1138 H 0.35097 0.56005 0.86449 0.0
H1139 H 0.38797 0.56173 0.84962 0.0
H1140 H 0.38538 0.51942 0.86245 0.0
H1141 H 0.45488 0.68843 0.89651 0.0
H1142 H 0.44168 0.69391 0.87628 0.0
H1143 H 0.40364 0.68822 0.89061 0.0
H1144 H 0.38424 0.69886 0.83278 0.0
H1145 H 0.29234 0.68907 0.86718 0.0
H1146 H 0.43809 0.61243 0.84388 0.0
H1147 H 0.45887 0.65661 0.85202 0.0
H1148 H 0.43966 0.65729 0.83244 0.0
H1149 H 0.33 0.6014 0.88588 0.0
H1150 H 0.2956 0.64214 0.88766 0.0
H1151 H 0.34478 0.64574 0.8957 0.0
C1152 C 0.07722 0.56185 0.61328 0.0
C1153 C 0.05478 0.57835 0.60114 0.0
C1154 C 0.10587 0.5846 0.62117 0.0
C1155 C 0.11261 0.62444 0.61659 0.0
C1156 C 0.0914 0.64046 0.60383 0.0
C1157 C 0.06257 0.61738 0.59637 0.0
C1158 C 0.12757 0.56664 0.63483 0.0
C1159 C 0.09804 0.68258 0.59842 0.0
C1160 C 0.14478 0.70247 0.64569 0.0
C1161 C 0.1848 0.70807 0.64184 0.0
C1162 C 0.12159 0.6741 0.63801 0.0
C1163 C 0.13857 0.65091 0.62601 0.0
C1164 C 0.17921 0.65558 0.62231 0.0
C1165 C 0.20197 0.68398 0.63035 0.0
C1166 C 0.07849 0.66982 0.64246 0.0
C1167 C 0.19824 0.63162 0.60948 0.0
H1168 H 0.07133 0.5317 0.61701 0.0
H1169 H 0.0458 0.63011 0.58682 0.0
H1170 H 0.15993 0.5715 0.63368 0.0
H1171 H 0.11798 0.58144 0.64575 0.0
H1172 H 0.12188 0.53432 0.63596 0.0
H1173 H 0.08199 0.68925 0.58742 0.0
H1174 H 0.08772 0.70353 0.60752 0.0
H1175 H 0.13007 0.68816 0.59657 0.0
H1176 H 0.13134 0.72047 0.65471 0.0
H1177 H 0.23287 0.68806 0.62733 0.0
H1178 H 0.07144 0.63831 0.64494 0.0
H1179 H 0.05948 0.67932 0.63259 0.0
H1180 H 0.07065 0.68784 0.65284 0.0
H1181 H 0.19243 0.59956 0.61124 0.0
H1182 H 0.23076 0.6364 0.60888 0.0
H1183 H 0.18506 0.63999 0.5981 0.0
C1184 C 0.08408 0.45001 0.37995 0.0
C1185 C 0.05635 0.43052 0.38943 0.0
C1186 C 0.11355 0.42854 0.37197 0.0
C1187 C 0.11556 0.38679 0.37372 0.0
C1188 C 0.08831 0.36723 0.38361 0.0
C1189 C 0.059 0.38922 0.39123 0.0
C1190 C 0.14182 0.45031 0.36137 0.0
C1191 C 0.08956 0.3228 0.38592 0.0
C1192 C 0.15496 0.3174 0.34283 0.0
C1193 C 0.1913 0.30557 0.34925 0.0
C1194 C 0.13134 0.34596 0.35016 0.0
C1195 C 0.14395 0.36267 0.36444 0.0
C1196 C 0.18145 0.35223 0.37065 0.0
C1197 C 0.20492 0.32397 0.36289 0.0
C1198 C 0.09187 0.35664 0.343 0.0
C1199 C 0.19573 0.36911 0.38594 0.0
H1200 H 0.08229 0.4819 0.37852 0.0
H1201 H 0.03815 0.37386 0.3987 0.0
H1202 H 0.17287 0.44286 0.36441 0.0
H1203 H 0.13698 0.44076 0.34914 0.0
H1204 H 0.13802 0.48299 0.36203 0.0
H1205 H 0.06792 0.3125 0.3948 0.0
H1206 H 0.08292 0.30763 0.37475 0.0
H1207 H 0.11964 0.31343 0.3896 0.0
H1208 H 0.14461 0.30378 0.33213 0.0
H1209 H 0.23303 0.31495 0.36786 0.0
H1210 H 0.08812 0.38931 0.34261 0.0
H1211 H 0.06759 0.34445 0.35028 0.0
H1212 H 0.08861 0.34474 0.33099 0.0
H1213 H 0.19215 0.4018 0.3861 0.0
H1214 H 0.22727 0.3618 0.38824 0.0
H1215 H 0.17752 0.35694 0.39559 0.0
C1216 C 0.45867 0.38874 0.09673 0.0
C1217 C 0.46418 0.42877 0.10064 0.0
C1218 C 0.4298 0.36562 0.10416 0.0
C1219 C 0.40611 0.3827 0.11598 0.0
C1220 C 0.41059 0.42342 0.11967 0.0
C1221 C 0.43942 0.44609 0.11186 0.0
C1222 C 0.42576 0.32243 0.09975 0.0
C1223 C 0.38621 0.44256 0.13235 0.0
C1224 C 0.31773 0.32158 0.12976 0.0
C1225 C 0.33459 0.30044 0.14218 0.0
C1226 C 0.34025 0.34944 0.12131 0.0
C1227 C 0.38017 0.35665 0.12559 0.0
C1228 C 0.39667 0.33651 0.13851 0.0
C1229 C 0.37383 0.30856 0.14654 0.0
C1230 C 0.32182 0.37009 0.10749 0.0
C1231 C 0.43893 0.34364 0.14362 0.0
H1232 H 0.47721 0.37524 0.08789 0.0
H1233 H 0.44344 0.47702 0.11492 0.0
H1234 H 0.43578 0.30354 0.10959 0.0
H1235 H 0.39429 0.31503 0.09744 0.0
H1236 H 0.44352 0.31474 0.08928 0.0
H1237 H 0.39037 0.47522 0.13274 0.0
H1238 H 0.3543 0.43606 0.13062 0.0
H1239 H 0.3948 0.43002 0.14382 0.0
H1240 H 0.28741 0.3155 0.12636 0.0
H1241 H 0.38691 0.2929 0.15631 0.0
H1242 H 0.3369 0.36046 0.09664 0.0
H1243 H 0.32588 0.40264 0.10845 0.0
H1244 H 0.2897 0.36356 0.10639 0.0
H1245 H 0.45957 0.33344 0.1344 0.0
H1246 H 0.44627 0.32781 0.15461 0.0
H1247 H 0.44422 0.3758 0.14537 0.0
loop_
_geom_bond_atom_site_label_1
_geom_bond_atom_site_label_2
_geom_bond_distance
_geom_bond_site_symmetry_2
_ccdc_geom_bond_type
Co0 O1 2.216 . S
Co0 O2 2.091 1_455 S
Co0 O4 2.004 1_455 S
Co0 O10 2.021 1_455 S
Co0 O12 2.137 . S
Co0 O13 2.244 1_545 S
O1 Co0 2.216 . S
O1 C8 1.247 . S
O2 Co0 2.091 1_655 S
O2 C8 1.261 1_655 S
C3 O12 1.247 . S
C3 O13 1.272 1_545 S
O4 Co0 2.004 1_655 S
O4 C9 1.259 1_545 S
Co5 O6 2.061 1_455 S
Co5 O11 2.052 . S
Co5 O13 2.135 . S
O6 Co5 2.061 1_655 S
O6 C9 1.235 . S
C7 O10 1.238 1_455 S
C7 O11 1.241 1_545 S
C8 O1 1.247 . S
C8 O2 1.261 1_455 S
C9 O4 1.259 1_565 S
C9 O6 1.235 . S
O10 Co0 2.021 1_655 S
O10 C7 1.238 1_655 S
O11 Co5 2.052 . S
O11 C7 1.241 1_565 S
O12 Co0 2.137 . S
O12 C3 1.247 . S
O13 Co0 2.244 1_565 S
O13 C3 1.272 1_565 S
O13 Co5 2.135 . S
Co14 O15 2.216 . S
Co14 O16 2.091 . S
Co14 O18 2.004 . S
Co14 O24 2.021 . S
Co14 O26 2.137 . S
Co14 O27 2.244 . S
O15 Co14 2.216 . S
O15 C22 1.247 . S
O16 Co14 2.091 . S
O16 C22 1.261 . S
C17 O26 1.247 . S
C17 O27 1.272 . S
O18 Co14 2.004 . S
O18 C23 1.259 . S
Co19 O20 2.061 . S
Co19 O25 2.052 . S
Co19 O27 2.135 . S
O20 Co19 2.061 . S
O20 C23 1.235 . S
C21 O24 1.238 . S
C21 O25 1.241 . S
C22 O15 1.247 . S
C22 O16 1.261 . S
C23 O18 1.259 . S
C23 O20 1.235 . S
O24 Co14 2.021 . S
O24 C21 1.238 . S
O25 Co19 2.052 . S
O25 C21 1.241 . S
O26 Co14 2.137 . S
O26 C17 1.247 . S
O27 Co14 2.244 . S
O27 C17 1.272 . S
O27 Co19 2.135 . S
Co28 O29 2.216 . S
Co28 O30 2.091 . S
Co28 O32 2.004 . S
Co28 O38 2.021 . S
Co28 O40 2.137 . S
Co28 O41 2.244 1_565 S
O29 Co28 2.216 . S
O29 C36 1.247 . S
O30 Co28 2.091 . S
O30 C36 1.261 . S
C31 O40 1.247 . S
C31 O41 1.272 1_565 S
O32 Co28 2.004 . S
O32 C37 1.259 1_565 S
Co33 O34 2.061 . S
Co33 O39 2.052 . S
Co33 O41 2.135 . S
O34 Co33 2.061 . S
O34 C37 1.235 . S
C35 O38 1.238 . S
C35 O39 1.241 1_565 S
C36 O29 1.247 . S
C36 O30 1.261 . S
C37 O32 1.259 1_545 S
C37 O34 1.235 . S
O38 Co28 2.021 . S
O38 C35 1.238 . S
O39 Co33 2.052 . S
O39 C35 1.241 1_545 S
O40 Co28 2.137 . S
O40 C31 1.247 . S
O41 Co28 2.244 1_545 S
O41 C31 1.272 1_545 S
O41 Co33 2.135 . S
Co42 O43 2.216 . S
Co42 O44 2.091 . S
Co42 O46 2.004 . S
Co42 O52 2.021 . S
Co42 O54 2.137 . S
Co42 O55 2.244 . S
O43 Co42 2.216 . S
O43 C50 1.247 . S
O44 Co42 2.091 . S
O44 C50 1.261 . S
C45 O54 1.247 . S
C45 O55 1.272 . S
O46 Co42 2.004 . S
O46 C51 1.259 . S
Co47 O48 2.061 . S
Co47 O53 2.052 . S
Co47 O55 2.135 . S
O48 Co47 2.061 . S
O48 C51 1.235 . S
C49 O52 1.238 . S
C49 O53 1.241 . S
C50 O43 1.247 . S
C50 O44 1.261 . S
C51 O46 1.259 . S
C51 O48 1.235 . S
O52 Co42 2.021 . S
O52 C49 1.238 . S
O53 Co47 2.052 . S
O53 C49 1.241 . S
O54 Co42 2.137 . S
O54 C45 1.247 . S
O55 Co42 2.244 . S
O55 C45 1.272 . S
O55 Co47 2.135 . S
Co56 O57 2.216 . S
Co56 O58 2.091 1_455 S
Co56 O60 2.004 1_455 S
Co56 O66 2.021 1_455 S
Co56 O68 2.137 . S
Co56 O69 2.244 1_565 S
O57 Co56 2.216 . S
O57 C64 1.247 . S
O58 Co56 2.091 1_655 S
O58 C64 1.261 1_655 S
C59 O68 1.247 . S
C59 O69 1.272 1_565 S
O60 Co56 2.004 1_655 S
O60 C65 1.259 1_565 S
Co61 O62 2.061 1_455 S
Co61 O67 2.052 . S
Co61 O69 2.135 . S
O62 Co61 2.061 1_655 S
O62 C65 1.235 . S
C63 O66 1.238 1_455 S
C63 O67 1.241 1_565 S
C64 O57 1.247 . S
C64 O58 1.261 1_455 S
C65 O60 1.259 1_545 S
C65 O62 1.235 . S
O66 Co56 2.021 1_655 S
O66 C63 1.238 1_655 S
O67 Co61 2.052 . S
O67 C63 1.241 1_545 S
O68 Co56 2.137 . S
O68 C59 1.247 . S
O69 Co56 2.244 1_545 S
O69 C59 1.272 1_545 S
O69 Co61 2.135 . S
Co70 O71 2.216 . S
Co70 O72 2.091 . S
Co70 O74 2.004 . S
Co70 O80 2.021 . S
Co70 O82 2.137 . S
Co70 O83 2.244 . S
O71 Co70 2.216 . S
O71 C78 1.247 . S
O72 Co70 2.091 . S
O72 C78 1.261 . S
C73 O82 1.247 . S
C73 O83 1.272 . S
O74 Co70 2.004 . S
O74 C79 1.259 . S
Co75 O76 2.061 . S
Co75 O81 2.052 . S
Co75 O83 2.135 . S
O76 Co75 2.061 . S
O76 C79 1.235 . S
C77 O80 1.238 . S
C77 O81 1.241 . S
C78 O71 1.247 . S
C78 O72 1.261 . S
C79 O74 1.259 . S
C79 O76 1.235 . S
O80 Co70 2.021 . S
O80 C77 1.238 . S
O81 Co75 2.052 . S
O81 C77 1.241 . S
O82 Co70 2.137 . S
O82 C73 1.247 . S
O83 Co70 2.244 . S
O83 C73 1.272 . S
O83 Co75 2.135 . S
Co84 O85 2.216 . S
Co84 O86 2.091 . S
Co84 O88 2.004 . S
Co84 O94 2.021 . S
Co84 O96 2.137 . S
Co84 O97 2.244 1_545 S
O85 Co84 2.216 . S
O85 C92 1.247 . S
O86 Co84 2.091 . S
O86 C92 1.261 . S
C87 O96 1.247 . S
C87 O97 1.272 1_545 S
O88 Co84 2.004 . S
O88 C93 1.259 1_545 S
Co89 O90 2.061 . S
Co89 O95 2.052 . S
Co89 O97 2.135 . S
O90 Co89 2.061 . S
O90 C93 1.235 . S
C91 O94 1.238 . S
C91 O95 1.241 1_545 S
C92 O85 1.247 . S
C92 O86 1.261 . S
C93 O88 1.259 1_565 S
C93 O90 1.235 . S
O94 Co84 2.021 . S
O94 C91 1.238 . S
O95 Co89 2.052 . S
O95 C91 1.241 1_565 S
O96 Co84 2.137 . S
O96 C87 1.247 . S
O97 Co84 2.244 1_565 S
O97 C87 1.272 1_565 S
O97 Co89 2.135 . S
Co98 O99 2.216 . S
Co98 O100 2.091 . S
Co98 O102 2.004 . S
Co98 O108 2.021 . S
Co98 O110 2.137 . S
Co98 O111 2.244 . S
O99 Co98 2.216 . S
O99 C106 1.247 . S
O100 Co98 2.091 . S
O100 C106 1.261 . S
C101 O110 1.247 . S
C101 O111 1.272 . S
O102 Co98 2.004 . S
O102 C107 1.259 . S
Co103 O104 2.061 . S
Co103 O109 2.052 . S
Co103 O111 2.135 . S
O104 Co103 2.061 . S
O104 C107 1.235 . S
C105 O108 1.238 . S
C105 O109 1.241 . S
C106 O99 1.247 . S
C106 O100 1.261 . S
C107 O102 1.259 . S
C107 O104 1.235 . S
O108 Co98 2.021 . S
O108 C105 1.238 . S
O109 Co103 2.052 . S
O109 C105 1.241 . S
O110 Co98 2.137 . S
O110 C101 1.247 . S
O111 Co98 2.244 . S
O111 C101 1.272 . S
O111 Co103 2.135 . S
Co112 O113 2.216 . S
Co112 O114 2.091 . S
Co112 O116 2.004 . S
Co112 O122 2.021 . S
Co112 O124 2.137 . S
Co112 O125 2.244 . S
O113 Co112 2.216 . S
O113 C120 1.247 . S
O114 Co112 2.091 . S
O114 C120 1.261 . S
C115 O124 1.247 . S
C115 O125 1.272 . S
O116 Co112 2.004 . S
O116 C121 1.259 . S
Co117 O118 2.061 . S
Co117 O123 2.052 . S
Co117 O125 2.135 . S
O118 Co117 2.061 . S
O118 C121 1.235 . S
C119 O122 1.238 . S
C119 O123 1.241 . S
C120 O113 1.247 . S
C120 O114 1.261 . S
C121 O116 1.259 . S
C121 O118 1.235 . S
O122 Co112 2.021 . S
O122 C119 1.238 . S
O123 Co117 2.052 . S
O123 C119 1.241 . S
O124 Co112 2.137 . S
O124 C115 1.247 . S
O125 Co112 2.244 . S
O125 C115 1.272 . S
O125 Co117 2.135 . S
Co126 O127 2.216 . S
Co126 O128 2.091 . S
Co126 O130 2.004 . S
Co126 O136 2.021 . S
Co126 O138 2.137 . S
Co126 O139 2.244 . S
O127 Co126 2.216 . S
O127 C134 1.247 . S
O128 Co126 2.091 . S
O128 C134 1.261 . S
C129 O138 1.247 . S
C129 O139 1.272 . S
O130 Co126 2.004 . S
O130 C135 1.259 . S
Co131 O132 2.061 . S
Co131 O137 2.052 . S
Co131 O139 2.135 . S
O132 Co131 2.061 . S
O132 C135 1.235 . S
C133 O136 1.238 . S
C133 O137 1.241 . S
C134 O127 1.247 . S
C134 O128 1.261 . S
C135 O130 1.259 . S
C135 O132 1.235 . S
O136 Co126 2.021 . S
O136 C133 1.238 . S
O137 Co131 2.052 . S
O137 C133 1.241 . S
O138 Co126 2.137 . S
O138 C129 1.247 . S
O139 Co126 2.244 . S
O139 C129 1.272 . S
O139 Co131 2.135 . S
Co140 O141 2.216 . S
Co140 O142 2.091 . S
Co140 O144 2.004 . S
Co140 O150 2.021 . S
Co140 O152 2.137 . S
Co140 O153 2.244 . S
O141 Co140 2.216 . S
O141 C148 1.247 . S
O142 Co140 2.091 . S
O142 C148 1.261 . S
C143 O152 1.247 . S
C143 O153 1.272 . S
O144 Co140 2.004 . S
O144 C149 1.259 . S
Co145 O146 2.061 . S
Co145 O151 2.052 . S
Co145 O153 2.135 . S
O146 Co145 2.061 . S
O146 C149 1.235 . S
C147 O150 1.238 . S
C147 O151 1.241 . S
C148 O141 1.247 . S
C148 O142 1.261 . S
C149 O144 1.259 . S
C149 O146 1.235 . S
O150 Co140 2.021 . S
O150 C147 1.238 . S
O151 Co145 2.052 . S
O151 C147 1.241 . S
O152 Co140 2.137 . S
O152 C143 1.247 . S
O153 Co140 2.244 . S
O153 C143 1.272 . S
O153 Co145 2.135 . S
Co154 O155 2.216 . S
Co154 O156 2.091 . S
Co154 O158 2.004 . S
Co154 O164 2.021 . S
Co154 O166 2.137 . S
Co154 O167 2.244 . S
O155 Co154 2.216 . S
O155 C162 1.247 . S
O156 Co154 2.091 . S
O156 C162 1.261 . S
C157 O166 1.247 . S
C157 O167 1.272 . S
O158 Co154 2.004 . S
O158 C163 1.259 . S
Co159 O160 2.061 . S
Co159 O165 2.052 . S
Co159 O167 2.135 . S
O160 Co159 2.061 . S
O160 C163 1.235 . S
C161 O164 1.238 . S
C161 O165 1.241 . S
C162 O155 1.247 . S
C162 O156 1.261 . S
C163 O158 1.259 . S
C163 O160 1.235 . S
O164 Co154 2.021 . S
O164 C161 1.238 . S
O165 Co159 2.052 . S
O165 C161 1.241 . S
O166 Co154 2.137 . S
O166 C157 1.247 . S
O167 Co154 2.244 . S
O167 C157 1.272 . S
O167 Co159 2.135 . S
Co168 O169 2.216 . S
Co168 O170 2.091 . S
Co168 O172 2.004 . S
Co168 O178 2.021 . S
Co168 O180 2.137 . S
Co168 O181 2.244 . S
O169 Co168 2.216 . S
O169 C176 1.247 . S
O170 Co168 2.091 . S
O170 C176 1.261 . S
C171 O180 1.247 . S
C171 O181 1.272 . S
O172 Co168 2.004 . S
O172 C177 1.259 . S
Co173 O174 2.061 . S
Co173 O179 2.052 . S
Co173 O181 2.135 . S
O174 Co173 2.061 . S
O174 C177 1.235 . S
C175 O178 1.238 . S
C175 O179 1.241 . S
C176 O169 1.247 . S
C176 O170 1.261 . S
C177 O172 1.259 . S
C177 O174 1.235 . S
O178 Co168 2.021 . S
O178 C175 1.238 . S
O179 Co173 2.052 . S
O179 C175 1.241 . S
O180 Co168 2.137 . S
O180 C171 1.247 . S
O181 Co168 2.244 . S
O181 C171 1.272 . S
O181 Co173 2.135 . S
Co182 O183 2.216 1_455 S
Co182 O184 2.091 . S
Co182 O186 2.004 . S
Co182 O192 2.021 . S
Co182 O194 2.137 1_455 S
Co182 O195 2.244 1_455 S
O183 Co182 2.216 1_655 S
O183 C190 1.247 . S
O184 Co182 2.091 . S
O184 C190 1.261 1_455 S
C185 O194 1.247 . S
C185 O195 1.272 . S
O186 Co182 2.004 . S
O186 C191 1.259 . S
Co187 O188 2.061 1_655 S
Co187 O193 2.052 . S
Co187 O195 2.135 . S
O188 Co187 2.061 1_455 S
O188 C191 1.235 . S
C189 O192 1.238 . S
C189 O193 1.241 1_455 S
C190 O183 1.247 . S
C190 O184 1.261 1_655 S
C191 O186 1.259 . S
C191 O188 1.235 . S
O192 Co182 2.021 . S
O192 C189 1.238 . S
O193 Co187 2.052 . S
O193 C189 1.241 1_655 S
O194 Co182 2.137 1_655 S
O194 C185 1.247 . S
O195 Co182 2.244 1_655 S
O195 C185 1.272 . S
O195 Co187 2.135 . S
Co196 O197 2.216 . S
Co196 O198 2.091 . S
Co196 O200 2.004 . S
Co196 O206 2.021 . S
Co196 O208 2.137 . S
Co196 O209 2.244 . S
O197 Co196 2.216 . S
O197 C204 1.247 . S
O198 Co196 2.091 . S
O198 C204 1.261 . S
C199 O208 1.247 . S
C199 O209 1.272 . S
O200 Co196 2.004 . S
O200 C205 1.259 . S
Co201 O202 2.061 . S
Co201 O207 2.052 . S
Co201 O209 2.135 . S
O202 Co201 2.061 . S
O202 C205 1.235 . S
C203 O206 1.238 . S
C203 O207 1.241 . S
C204 O197 1.247 . S
C204 O198 1.261 . S
C205 O200 1.259 . S
C205 O202 1.235 . S
O206 Co196 2.021 . S
O206 C203 1.238 . S
O207 Co201 2.052 . S
O207 C203 1.241 . S
O208 Co196 2.137 . S
O208 C199 1.247 . S
O209 Co196 2.244 . S
O209 C199 1.272 . S
O209 Co201 2.135 . S
Co210 O211 2.216 1_455 S
Co210 O212 2.091 . S
Co210 O214 2.004 . S
Co210 O220 2.021 . S
Co210 O222 2.137 1_455 S
Co210 O223 2.244 1_455 S
O211 Co210 2.216 1_655 S
O211 C218 1.247 . S
O212 Co210 2.091 . S
O212 C218 1.261 1_455 S
C213 O222 1.247 . S
C213 O223 1.272 . S
O214 Co210 2.004 . S
O214 C219 1.259 . S
Co215 O216 2.061 1_655 S
Co215 O221 2.052 . S
Co215 O223 2.135 . S
O216 Co215 2.061 1_455 S
O216 C219 1.235 . S
C217 O220 1.238 . S
C217 O221 1.241 1_455 S
C218 O211 1.247 . S
C218 O212 1.261 1_655 S
C219 O214 1.259 . S
C219 O216 1.235 . S
O220 Co210 2.021 . S
O220 C217 1.238 . S
O221 Co215 2.052 . S
O221 C217 1.241 1_655 S
O222 Co210 2.137 1_655 S
O222 C213 1.247 . S
O223 Co210 2.244 1_655 S
O223 C213 1.272 . S
O223 Co215 2.135 . S
C224 C225 1.391 1_655 S
C224 C226 1.394 . S
C224 H240 0.931 . S
C225 C224 1.391 1_455 S
C225 C229 1.376 . S
C226 C224 1.394 . S
C226 C227 1.369 1_655 S
C226 C230 1.531 . S
C227 C226 1.369 1_455 S
C227 C228 1.410 . S
C227 C235 1.503 . S
C228 C227 1.410 . S
C228 C229 1.392 . S
C228 C231 1.511 . S
C229 C225 1.376 . S
C229 C228 1.392 . S
C229 H241 0.929 . S
C230 C226 1.531 . S
C230 H242 0.960 . S
C230 H243 0.962 . S
C230 H244 0.960 . S
C231 C228 1.511 . S
C231 H245 0.961 . S
C231 H246 0.961 . S
C231 H247 0.961 . S
C232 C233 1.370 1_455 S
C232 C234 1.363 . S
C232 H248 0.931 . S
C233 C232 1.370 1_655 S
C233 C237 1.408 . S
C234 C232 1.363 . S
C234 C235 1.370 . S
C234 C238 1.524 . S
C235 C227 1.503 . S
C235 C234 1.370 . S
C235 C236 1.403 1_455 S
C236 C235 1.403 1_655 S
C236 C237 1.404 . S
C236 C239 1.539 . S
C237 C233 1.408 . S
C237 C236 1.404 . S
C237 H249 0.930 . S
C238 C234 1.524 . S
C238 H250 0.956 . S
C238 H251 0.961 . S
C238 H252 0.961 . S
C239 C236 1.539 . S
C239 H253 0.958 . S
C239 H254 0.961 . S
C239 H255 0.960 1_655 S
H240 C224 0.931 . S
H241 C229 0.929 . S
H242 C230 0.960 . S
H243 C230 0.962 . S
H244 C230 0.960 . S
H245 C231 0.961 . S
H246 C231 0.961 . S
H247 C231 0.961 . S
H248 C232 0.931 . S
H249 C237 0.930 . S
H250 C238 0.956 . S
H251 C238 0.961 . S
H252 C238 0.961 . S
H253 C239 0.958 . S
H254 C239 0.961 . S
H255 C239 0.960 1_455 S
C256 C257 1.391 . S
C256 C258 1.394 . S
C256 H272 0.931 . S
C257 C256 1.391 . S
C257 C261 1.376 . S
C258 C256 1.394 . S
C258 C259 1.369 . S
C258 C262 1.531 . S
C259 C258 1.369 . S
C259 C260 1.410 . S
C259 C267 1.503 1_655 S
C260 C259 1.410 . S
C260 C261 1.392 . S
C260 C263 1.511 . S
C261 C257 1.376 . S
C261 C260 1.392 . S
C261 H273 0.929 . S
C262 C258 1.531 . S
C262 H274 0.960 1_655 S
C262 H275 0.962 . S
C262 H276 0.960 . S
C263 C260 1.511 . S
C263 H277 0.961 . S
C263 H278 0.961 1_655 S
C263 H279 0.961 . S
C264 C265 1.370 . S
C264 C266 1.363 . S
C264 H280 0.931 . S
C265 C264 1.370 . S
C265 C269 1.408 . S
C266 C264 1.363 . S
C266 C267 1.370 . S
C266 C270 1.524 . S
C267 C259 1.503 1_455 S
C267 C266 1.370 . S
C267 C268 1.403 . S
C268 C267 1.403 . S
C268 C269 1.404 . S
C268 C271 1.539 . S
C269 C265 1.408 . S
C269 C268 1.404 . S
C269 H281 0.930 . S
C270 C266 1.524 . S
C270 H282 0.956 . S
C270 H283 0.961 1_455 S
C270 H284 0.961 . S
C271 C268 1.539 . S
C271 H285 0.958 . S
C271 H286 0.961 . S
C271 H287 0.960 . S
H272 C256 0.931 . S
H273 C261 0.929 . S
H274 C262 0.960 1_455 S
H275 C262 0.962 . S
H276 C262 0.960 . S
H277 C263 0.961 . S
H278 C263 0.961 1_455 S
H279 C263 0.961 . S
H280 C264 0.931 . S
H281 C269 0.930 . S
H282 C270 0.956 . S
H283 C270 0.961 1_655 S
H284 C270 0.961 . S
H285 C271 0.958 . S
H286 C271 0.961 . S
H287 C271 0.960 . S
C288 C289 1.391 . S
C288 C290 1.394 . S
C288 H304 0.931 . S
C289 C288 1.391 . S
C289 C293 1.376 . S
C290 C288 1.394 . S
C290 C291 1.369 . S
C290 C294 1.531 . S
C291 C290 1.369 . S
C291 C292 1.410 . S
C291 C299 1.503 . S
C292 C291 1.410 . S
C292 C293 1.392 . S
C292 C295 1.511 . S
C293 C289 1.376 . S
C293 C292 1.392 . S
C293 H305 0.929 . S
C294 C290 1.531 . S
C294 H306 0.960 . S
C294 H307 0.962 . S
C294 H308 0.960 . S
C295 C292 1.511 . S
C295 H309 0.961 . S
C295 H310 0.961 . S
C295 H311 0.961 . S
C296 C297 1.370 . S
C296 C298 1.363 . S
C296 H312 0.931 . S
C297 C296 1.370 . S
C297 C301 1.408 . S
C298 C296 1.363 . S
C298 C299 1.370 . S
C298 C302 1.524 . S
C299 C291 1.503 . S
C299 C298 1.370 . S
C299 C300 1.403 . S
C300 C299 1.403 . S
C300 C301 1.404 . S
C300 C303 1.539 . S
C301 C297 1.408 . S
C301 C300 1.404 . S
C301 H313 0.930 . S
C302 C298 1.524 . S
C302 H314 0.956 . S
C302 H315 0.961 . S
C302 H316 0.961 . S
C303 C300 1.539 . S
C303 H317 0.958 . S
C303 H318 0.961 . S
C303 H319 0.960 . S
H304 C288 0.931 . S
H305 C293 0.929 . S
H306 C294 0.960 . S
H307 C294 0.962 . S
H308 C294 0.960 . S
H309 C295 0.961 . S
H310 C295 0.961 . S
H311 C295 0.961 . S
H312 C296 0.931 . S
H313 C301 0.930 . S
H314 C302 0.956 . S
H315 C302 0.961 . S
H316 C302 0.961 . S
H317 C303 0.958 . S
H318 C303 0.961 . S
H319 C303 0.960 . S
C320 C321 1.391 . S
C320 C322 1.394 . S
C320 H336 0.931 . S
C321 C320 1.391 . S
C321 C325 1.376 . S
C322 C320 1.394 . S
C322 C323 1.369 . S
C322 C326 1.531 . S
C323 C322 1.369 . S
C323 C324 1.410 . S
C323 C331 1.503 . S
C324 C323 1.410 . S
C324 C325 1.392 . S
C324 C327 1.511 . S
C325 C321 1.376 . S
C325 C324 1.392 . S
C325 H337 0.929 . S
C326 C322 1.531 . S
C326 H338 0.960 . S
C326 H339 0.962 . S
C326 H340 0.960 . S
C327 C324 1.511 . S
C327 H341 0.961 . S
C327 H342 0.961 . S
C327 H343 0.961 . S
C328 C329 1.370 . S
C328 C330 1.363 . S
C328 H344 0.931 . S
C329 C328 1.370 . S
C329 C333 1.408 . S
C330 C328 1.363 . S
C330 C331 1.370 . S
C330 C334 1.524 . S
C331 C323 1.503 . S
C331 C330 1.370 . S
C331 C332 1.403 . S
C332 C331 1.403 . S
C332 C333 1.404 . S
C332 C335 1.539 . S
C333 C329 1.408 . S
C333 C332 1.404 . S
C333 H345 0.930 . S
C334 C330 1.524 . S
C334 H346 0.956 . S
C334 H347 0.961 . S
C334 H348 0.961 . S
C335 C332 1.539 . S
C335 H349 0.958 . S
C335 H350 0.961 . S
C335 H351 0.960 . S
H336 C320 0.931 . S
H337 C325 0.929 . S
H338 C326 0.960 . S
H339 C326 0.962 . S
H340 C326 0.960 . S
H341 C327 0.961 . S
H342 C327 0.961 . S
H343 C327 0.961 . S
H344 C328 0.931 . S
H345 C333 0.930 . S
H346 C334 0.956 . S
H347 C334 0.961 . S
H348 C334 0.961 . S
H349 C335 0.958 . S
H350 C335 0.961 . S
H351 C335 0.960 . S
C352 C353 1.391 1_655 S
C352 C354 1.394 . S
C352 H368 0.931 . S
C353 C352 1.391 1_455 S
C353 C357 1.376 . S
C354 C352 1.394 . S
C354 C355 1.369 1_655 S
C354 C358 1.531 . S
C355 C354 1.369 1_455 S
C355 C356 1.410 . S
C355 C363 1.503 . S
C356 C355 1.410 . S
C356 C357 1.392 . S
C356 C359 1.511 . S
C357 C353 1.376 . S
C357 C356 1.392 . S
C357 H369 0.929 . S
C358 C354 1.531 . S
C358 H370 0.960 . S
C358 H371 0.962 . S
C358 H372 0.960 . S
C359 C356 1.511 . S
C359 H373 0.961 . S
C359 H374 0.961 . S
C359 H375 0.961 . S
C360 C361 1.370 . S
C360 C362 1.363 . S
C360 H376 0.931 . S
C361 C360 1.370 . S
C361 C365 1.408 1_655 S
C362 C360 1.363 . S
C362 C363 1.370 1_655 S
C362 C366 1.524 . S
C363 C355 1.503 . S
C363 C362 1.370 1_455 S
C363 C364 1.403 . S
C364 C363 1.403 . S
C364 C365 1.404 . S
C364 C367 1.539 . S
C365 C361 1.408 1_455 S
C365 C364 1.404 . S
C365 H377 0.930 . S
C366 C362 1.524 . S
C366 H378 0.956 . S
C366 H379 0.968 . S
C366 H380 0.961 . S
C367 C364 1.539 . S
C367 H381 0.958 . S
C367 H382 0.961 . S
C367 H383 0.960 . S
H368 C352 0.931 . S
H369 C357 0.929 . S
H370 C358 0.960 . S
H371 C358 0.962 . S
H372 C358 0.960 . S
H373 C359 0.961 . S
H374 C359 0.961 . S
H375 C359 0.961 . S
H376 C360 0.931 . S
H377 C365 0.930 . S
H378 C366 0.956 . S
H379 C366 0.968 . S
H380 C366 0.961 . S
H381 C367 0.958 . S
H382 C367 0.961 . S
H383 C367 0.960 . S
C384 C385 1.391 . S
C384 C386 1.394 . S
C384 H400 0.931 . S
C385 C384 1.391 . S
C385 C389 1.376 . S
C386 C384 1.394 . S
C386 C387 1.369 . S
C386 C390 1.531 . S
C387 C386 1.369 . S
C387 C388 1.410 . S
C387 C395 1.503 . S
C388 C387 1.410 . S
C388 C389 1.392 . S
C388 C391 1.511 . S
C389 C385 1.376 . S
C389 C388 1.392 . S
C389 H401 0.929 . S
C390 C386 1.531 . S
C390 H402 0.960 . S
C390 H403 0.962 . S
C390 H404 0.960 . S
C391 C388 1.511 . S
C391 H405 0.961 . S
C391 H406 0.961 . S
C391 H407 0.961 . S
C392 C393 1.370 . S
C392 C394 1.363 . S
C392 H408 0.931 . S
C393 C392 1.370 . S
C393 C397 1.408 . S
C394 C392 1.363 . S
C394 C395 1.370 . S
C394 C398 1.524 . S
C395 C387 1.503 . S
C395 C394 1.370 . S
C395 C396 1.403 . S
C396 C395 1.403 . S
C396 C397 1.404 . S
C396 C399 1.539 . S
C397 C393 1.408 . S
C397 C396 1.404 . S
C397 H409 0.930 . S
C398 C394 1.524 . S
C398 H410 0.956 . S
C398 H411 0.961 . S
C398 H412 0.961 . S
C399 C396 1.539 . S
C399 H413 0.958 . S
C399 H414 0.961 . S
C399 H415 0.960 . S
H400 C384 0.931 . S
H401 C389 0.929 . S
H402 C390 0.960 . S
H403 C390 0.962 . S
H404 C390 0.960 . S
H405 C391 0.961 . S
H406 C391 0.961 . S
H407 C391 0.961 . S
H408 C392 0.931 . S
H409 C397 0.930 . S
H410 C398 0.956 . S
H411 C398 0.961 . S
H412 C398 0.961 . S
H413 C399 0.958 . S
H414 C399 0.961 . S
H415 C399 0.960 . S
C416 C417 1.391 . S
C416 C418 1.394 . S
C416 H432 0.931 . S
C417 C416 1.391 . S
C417 C421 1.376 . S
C418 C416 1.394 . S
C418 C419 1.369 . S
C418 C422 1.531 . S
C419 C418 1.369 . S
C419 C420 1.410 . S
C419 C427 1.503 . S
C420 C419 1.410 . S
C420 C421 1.392 . S
C420 C423 1.511 . S
C421 C417 1.376 . S
C421 C420 1.392 . S
C421 H433 0.929 . S
C422 C418 1.531 . S
C422 H434 0.960 . S
C422 H435 0.962 . S
C422 H436 0.960 . S
C423 C420 1.511 . S
C423 H437 0.961 . S
C423 H438 0.961 . S
C423 H439 0.961 . S
C424 C425 1.370 . S
C424 C426 1.363 . S
C424 H440 0.931 . S
C425 C424 1.370 . S
C425 C429 1.408 . S
C426 C424 1.363 . S
C426 C427 1.370 . S
C426 C430 1.524 . S
C427 C419 1.503 . S
C427 C426 1.370 . S
C427 C428 1.403 . S
C428 C427 1.403 . S
C428 C429 1.404 . S
C428 C431 1.539 . S
C429 C425 1.408 . S
C429 C428 1.404 . S
C429 H441 0.930 . S
C430 C426 1.524 . S
C430 H442 0.956 . S
C430 H443 0.961 . S
C430 H444 0.961 . S
C431 C428 1.539 . S
C431 H445 0.958 . S
C431 H446 0.961 . S
C431 H447 0.960 . S
H432 C416 0.931 . S
H433 C421 0.929 . S
H434 C422 0.960 . S
H435 C422 0.962 . S
H436 C422 0.960 . S
H437 C423 0.961 . S
H438 C423 0.961 . S
H439 C423 0.961 . S
H440 C424 0.931 . S
H441 C429 0.930 . S
H442 C430 0.956 . S
H443 C430 0.961 . S
H444 C430 0.961 . S
H445 C431 0.958 . S
H446 C431 0.961 . S
H447 C431 0.960 . S
C448 C449 1.391 . S
C448 C450 1.394 . S
C448 H464 0.931 . S
C449 C448 1.391 . S
C449 C453 1.376 . S
C450 C448 1.394 . S
C450 C451 1.369 . S
C450 C454 1.531 . S
C451 C450 1.369 . S
C451 C452 1.410 . S
C451 C459 1.503 1_455 S
C452 C451 1.410 . S
C452 C453 1.392 . S
C452 C455 1.511 . S
C453 C449 1.376 . S
C453 C452 1.392 . S
C453 H465 0.929 . S
C454 C450 1.531 . S
C454 H466 0.960 1_455 S
C454 H467 0.962 . S
C454 H468 0.960 . S
C455 C452 1.511 . S
C455 H469 0.961 . S
C455 H470 0.961 . S
C455 H471 0.961 . S
C456 C457 1.370 . S
C456 C458 1.363 . S
C456 H472 0.931 . S
C457 C456 1.370 . S
C457 C461 1.408 . S
C458 C456 1.363 . S
C458 C459 1.370 . S
C458 C462 1.524 1_655 S
C459 C451 1.503 1_655 S
C459 C458 1.370 . S
C459 C460 1.403 . S
C460 C459 1.403 . S
C460 C461 1.404 . S
C460 C463 1.539 . S
C461 C457 1.408 . S
C461 C460 1.404 . S
C461 H473 0.930 . S
C462 C458 1.524 1_455 S
C462 H474 0.956 . S
C462 H475 0.961 . S
C462 H476 0.961 1_455 S
C463 C460 1.539 . S
C463 H477 0.958 . S
C463 H478 0.961 . S
C463 H479 0.960 1_655 S
H464 C448 0.931 . S
H465 C453 0.929 . S
H466 C454 0.960 1_655 S
H467 C454 0.962 . S
H468 C454 0.960 . S
H469 C455 0.961 . S
H470 C455 0.961 . S
H471 C455 0.961 . S
H472 C456 0.931 . S
H473 C461 0.930 . S
H474 C462 0.956 . S
H475 C462 0.961 . S
H476 C462 0.961 1_655 S
H477 C463 0.958 . S
H478 C463 0.961 . S
H479 C463 0.960 1_455 S
C480 C481 1.391 1_445 S
C480 C482 1.394 . S
C480 H496 0.931 . S
C481 C480 1.391 1_665 S
C481 C485 1.376 . S
C482 C480 1.394 . S
C482 C483 1.369 1_455 S
C482 C486 1.531 . S
C483 C482 1.369 1_655 S
C483 C484 1.410 1_545 S
C483 C491 1.503 . S
C484 C483 1.410 1_565 S
C484 C485 1.392 . S
C484 C487 1.511 . S
C485 C481 1.376 . S
C485 C484 1.392 . S
C485 H497 0.929 . S
C486 C482 1.531 . S
C486 H498 0.960 . S
C486 H499 0.962 . S
C486 H500 0.960 . S
C487 C484 1.511 . S
C487 H501 0.961 . S
C487 H502 0.961 . S
C487 H503 0.961 . S
C488 C489 1.354 1_465 S
C488 C490 1.363 . S
C488 H504 0.931 . S
C489 C488 1.354 1_645 S
C489 C493 1.426 . S
C490 C488 1.363 . S
C490 C491 1.370 1_465 S
C490 C494 1.524 . S
C491 C483 1.503 . S
C491 C490 1.370 1_645 S
C491 C492 1.403 . S
C492 C491 1.403 . S
C492 C493 1.404 . S
C492 C495 1.539 . S
C493 C489 1.426 . S
C493 C492 1.404 . S
C493 H505 0.930 . S
C494 C490 1.524 . S
C494 H506 0.956 . S
C494 H507 0.961 . S
C494 H508 0.961 . S
C495 C492 1.539 . S
C495 H509 0.958 . S
C495 H510 0.961 . S
C495 H511 0.960 . S
H496 C480 0.931 . S
H497 C485 0.929 . S
H498 C486 0.960 . S
H499 C486 0.962 . S
H500 C486 0.960 . S
H501 C487 0.961 . S
H502 C487 0.961 . S
H503 C487 0.961 . S
H504 C488 0.931 . S
H505 C493 0.930 . S
H506 C494 0.956 . S
H507 C494 0.961 . S
H508 C494 0.961 . S
H509 C495 0.958 . S
H510 C495 0.961 . S
H511 C495 0.960 . S
C512 C513 1.391 . S
C512 C514 1.394 . S
C512 H528 0.931 . S
C513 C512 1.391 . S
C513 C517 1.376 . S
C514 C512 1.394 . S
C514 C515 1.369 . S
C514 C518 1.531 . S
C515 C514 1.369 . S
C515 C516 1.410 . S
C515 C523 1.503 . S
C516 C515 1.410 . S
C516 C517 1.392 . S
C516 C519 1.511 . S
C517 C513 1.376 . S
C517 C516 1.392 . S
C517 H529 0.929 . S
C518 C514 1.531 . S
C518 H530 0.960 . S
C518 H531 0.962 . S
C518 H532 0.960 . S
C519 C516 1.511 . S
C519 H533 0.961 . S
C519 H534 0.961 . S
C519 H535 0.961 . S
C520 C521 1.370 . S
C520 C522 1.363 . S
C520 H536 0.931 . S
C521 C520 1.370 . S
C521 C525 1.408 . S
C522 C520 1.363 . S
C522 C523 1.370 . S
C522 C526 1.524 . S
C523 C515 1.503 . S
C523 C522 1.370 . S
C523 C524 1.403 . S
C524 C523 1.403 . S
C524 C525 1.404 . S
C524 C527 1.539 . S
C525 C521 1.408 . S
C525 C524 1.404 . S
C525 H537 0.930 . S
C526 C522 1.524 . S
C526 H538 0.956 . S
C526 H539 0.961 . S
C526 H540 0.961 . S
C527 C524 1.539 . S
C527 H541 0.958 . S
C527 H542 0.961 . S
C527 H543 0.960 . S
H528 C512 0.931 . S
H529 C517 0.929 . S
H530 C518 0.960 . S
H531 C518 0.962 . S
H532 C518 0.960 . S
H533 C519 0.961 . S
H534 C519 0.961 . S
H535 C519 0.961 . S
H536 C520 0.931 . S
H537 C525 0.930 . S
H538 C526 0.956 . S
H539 C526 0.961 . S
H540 C526 0.961 . S
H541 C527 0.958 . S
H542 C527 0.961 . S
H543 C527 0.960 . S
C544 C545 1.391 1_545 S
C544 C546 1.394 . S
C544 H560 0.931 . S
C545 C544 1.391 1_565 S
C545 C549 1.376 . S
C546 C544 1.394 . S
C546 C547 1.369 . S
C546 C550 1.531 . S
C547 C546 1.369 . S
C547 C548 1.410 1_545 S
C547 C555 1.503 1_554 S
C548 C547 1.410 1_565 S
C548 C549 1.392 . S
C548 C551 1.511 . S
C549 C545 1.376 . S
C549 C548 1.392 . S
C549 H561 0.929 . S
C550 C546 1.531 . S
C550 H562 0.960 . S
C550 H563 0.962 . S
C550 H564 0.960 . S
C551 C548 1.511 . S
C551 H565 0.961 . S
C551 H566 0.961 1_554 S
C551 H567 0.961 . S
C552 C553 1.370 1_565 S
C552 C554 1.363 . S
C552 H568 0.931 . S
C553 C552 1.370 1_545 S
C553 C557 1.408 . S
C554 C552 1.363 . S
C554 C555 1.370 1_565 S
C554 C558 1.524 . S
C555 C547 1.503 1_556 S
C555 C554 1.370 1_545 S
C555 C556 1.403 . S
C556 C555 1.403 . S
C556 C557 1.404 . S
C556 C559 1.539 . S
C557 C553 1.408 . S
C557 C556 1.404 . S
C557 H569 0.930 . S
C558 C554 1.524 . S
C558 H570 0.956 . S
C558 H571 0.961 . S
C558 H572 0.961 . S
C559 C556 1.539 . S
C559 H573 0.958 . S
C559 H574 0.961 . S
C559 H575 0.960 1_556 S
H560 C544 0.931 . S
H561 C549 0.929 . S
H562 C550 0.960 . S
H563 C550 0.962 . S
H564 C550 0.960 . S
H565 C551 0.961 . S
H566 C551 0.961 1_556 S
H567 C551 0.961 . S
H568 C552 0.931 . S
H569 C557 0.930 . S
H570 C558 0.956 . S
H571 C558 0.961 . S
H572 C558 0.961 . S
H573 C559 0.958 . S
H574 C559 0.961 . S
H575 C559 0.960 1_554 S
C576 C577 1.391 . S
C576 C578 1.394 . S
C576 H592 0.931 . S
C577 C576 1.391 . S
C577 C581 1.376 . S
C578 C576 1.394 . S
C578 C579 1.369 . S
C578 C582 1.531 . S
C579 C578 1.369 . S
C579 C580 1.410 . S
C579 C587 1.503 . S
C580 C579 1.410 . S
C580 C581 1.392 . S
C580 C583 1.511 . S
C581 C577 1.376 . S
C581 C580 1.392 . S
C581 H593 0.929 . S
C582 C578 1.531 . S
C582 H594 0.960 . S
C582 H595 0.962 . S
C582 H596 0.960 . S
C583 C580 1.511 . S
C583 H597 0.961 . S
C583 H598 0.961 . S
C583 H599 0.961 . S
C584 C585 1.370 . S
C584 C586 1.363 . S
C584 H600 0.931 . S
C585 C584 1.370 . S
C585 C589 1.408 . S
C586 C584 1.363 . S
C586 C587 1.370 . S
C586 C590 1.524 . S
C587 C579 1.503 . S
C587 C586 1.370 . S
C587 C588 1.403 . S
C588 C587 1.403 . S
C588 C589 1.404 . S
C588 C591 1.539 . S
C589 C585 1.408 . S
C589 C588 1.404 . S
C589 H601 0.930 . S
C590 C586 1.524 . S
C590 H602 0.956 . S
C590 H603 0.961 . S
C590 H604 0.961 . S
C591 C588 1.539 . S
C591 H605 0.958 . S
C591 H606 0.961 . S
C591 H607 0.960 . S
H592 C576 0.931 . S
H593 C581 0.929 . S
H594 C582 0.960 . S
H595 C582 0.962 . S
H596 C582 0.960 . S
H597 C583 0.961 . S
H598 C583 0.961 . S
H599 C583 0.961 . S
H600 C584 0.931 . S
H601 C589 0.930 . S
H602 C590 0.956 . S
H603 C590 0.961 . S
H604 C590 0.961 . S
H605 C591 0.958 . S
H606 C591 0.961 . S
H607 C591 0.960 . S
C608 C609 1.391 . S
C608 C610 1.394 . S
C608 H624 0.931 . S
C609 C608 1.391 . S
C609 C613 1.376 . S
C610 C608 1.394 . S
C610 C611 1.369 . S
C610 C614 1.531 . S
C611 C610 1.369 . S
C611 C612 1.410 . S
C611 C619 1.503 . S
C612 C611 1.410 . S
C612 C613 1.392 . S
C612 C615 1.511 . S
C613 C609 1.376 . S
C613 C612 1.392 . S
C613 H625 0.929 . S
C614 C610 1.531 . S
C614 H626 0.960 . S
C614 H627 0.962 . S
C614 H628 0.960 . S
C615 C612 1.511 . S
C615 H629 0.961 . S
C615 H630 0.961 . S
C615 H631 0.961 . S
C616 C617 1.370 . S
C616 C618 1.363 . S
C616 H632 0.931 . S
C617 C616 1.370 . S
C617 C621 1.408 . S
C618 C616 1.363 . S
C618 C619 1.370 . S
C618 C622 1.524 . S
C619 C611 1.503 . S
C619 C618 1.370 . S
C619 C620 1.403 . S
C620 C619 1.403 . S
C620 C621 1.404 . S
C620 C623 1.539 . S
C621 C617 1.408 . S
C621 C620 1.404 . S
C621 H633 0.930 . S
C622 C618 1.524 . S
C622 H634 0.956 . S
C622 H635 0.961 . S
C622 H636 0.961 . S
C623 C620 1.539 . S
C623 H637 0.958 . S
C623 H638 0.961 . S
C623 H639 0.960 . S
H624 C608 0.931 . S
H625 C613 0.929 . S
H626 C614 0.960 . S
H627 C614 0.962 . S
H628 C614 0.960 . S
H629 C615 0.961 . S
H630 C615 0.961 . S
H631 C615 0.961 . S
H632 C616 0.931 . S
H633 C621 0.930 . S
H634 C622 0.956 . S
H635 C622 0.961 . S
H636 C622 0.961 . S
H637 C623 0.958 . S
H638 C623 0.961 . S
H639 C623 0.960 . S
C640 C641 1.391 . S
C640 C642 1.394 . S
C640 H656 0.931 . S
C641 C640 1.391 . S
C641 C645 1.376 . S
C642 C640 1.394 . S
C642 C643 1.369 . S
C642 C646 1.531 . S
C643 C642 1.369 . S
C643 C644 1.410 . S
C643 C651 1.503 . S
C644 C643 1.410 . S
C644 C645 1.392 . S
C644 C647 1.511 . S
C645 C641 1.376 . S
C645 C644 1.392 . S
C645 H657 0.929 . S
C646 C642 1.531 . S
C646 H658 0.960 . S
C646 H659 0.962 . S
C646 H660 0.960 . S
C647 C644 1.511 . S
C647 H661 0.961 . S
C647 H662 0.961 . S
C647 H663 0.961 . S
C648 C649 1.370 . S
C648 C650 1.363 . S
C648 H664 0.931 . S
C649 C648 1.370 . S
C649 C653 1.408 . S
C650 C648 1.363 . S
C650 C651 1.370 . S
C650 C654 1.524 . S
C651 C643 1.503 . S
C651 C650 1.370 . S
C651 C652 1.403 . S
C652 C651 1.403 . S
C652 C653 1.404 . S
C652 C655 1.539 . S
C653 C649 1.408 . S
C653 C652 1.404 . S
C653 H665 0.930 . S
C654 C650 1.524 . S
C654 H666 0.956 . S
C654 H667 0.961 . S
C654 H668 0.961 . S
C655 C652 1.539 . S
C655 H669 0.958 . S
C655 H670 0.961 . S
C655 H671 0.960 . S
H656 C640 0.931 . S
H657 C645 0.929 . S
H658 C646 0.960 . S
H659 C646 0.962 . S
H660 C646 0.960 . S
H661 C647 0.961 . S
H662 C647 0.961 . S
H663 C647 0.961 . S
H664 C648 0.931 . S
H665 C653 0.930 . S
H666 C654 0.956 . S
H667 C654 0.961 . S
H668 C654 0.961 . S
H669 C655 0.958 . S
H670 C655 0.961 . S
H671 C655 0.960 . S
C672 C673 1.391 . S
C672 C674 1.394 . S
C672 H688 0.931 . S
C673 C672 1.391 . S
C673 C677 1.376 . S
C674 C672 1.394 . S
C674 C675 1.369 . S
C674 C678 1.531 . S
C675 C674 1.369 . S
C675 C676 1.410 . S
C675 C683 1.503 1_556 S
C676 C675 1.410 . S
C676 C677 1.392 . S
C676 C679 1.511 . S
C677 C673 1.376 . S
C677 C676 1.392 . S
C677 H689 0.929 . S
C678 C674 1.531 . S
C678 H690 0.960 1_556 S
C678 H691 0.967 . S
C678 H692 0.960 . S
C679 C676 1.511 . S
C679 H693 0.961 . S
C679 H694 0.961 . S
C679 H695 0.961 . S
C680 C681 1.370 . S
C680 C682 1.363 . S
C680 H696 0.931 . S
C681 C680 1.370 . S
C681 C685 1.408 . S
C682 C680 1.363 . S
C682 C683 1.370 . S
C682 C686 1.524 . S
C683 C675 1.503 1_554 S
C683 C682 1.370 . S
C683 C684 1.403 . S
C684 C683 1.403 . S
C684 C685 1.404 . S
C684 C687 1.539 . S
C685 C681 1.408 . S
C685 C684 1.404 . S
C685 H697 0.930 . S
C686 C682 1.524 . S
C686 H698 0.956 . S
C686 H699 0.961 1_554 S
C686 H700 0.961 . S
C687 C684 1.539 . S
C687 H701 0.958 . S
C687 H702 0.961 . S
C687 H703 0.968 . S
H688 C672 0.931 . S
H689 C677 0.929 . S
H690 C678 0.960 1_554 S
H691 C678 0.967 . S
H692 C678 0.960 . S
H693 C679 0.961 . S
H694 C679 0.961 . S
H695 C679 0.961 . S
H696 C680 0.931 . S
H697 C685 0.930 . S
H698 C686 0.956 . S
H699 C686 0.961 1_556 S
H700 C686 0.961 . S
H701 C687 0.958 . S
H702 C687 0.961 . S
H703 C687 0.968 . S
C704 C705 1.391 . S
C704 C706 1.394 . S
C704 H720 0.931 . S
C705 C704 1.391 . S
C705 C709 1.376 1_455 S
C706 C704 1.394 . S
C706 C707 1.369 . S
C706 C710 1.531 . S
C707 C706 1.369 . S
C707 C708 1.410 1_455 S
C707 C715 1.503 . S
C708 C707 1.410 1_655 S
C708 C709 1.392 . S
C708 C711 1.511 . S
C709 C705 1.376 1_655 S
C709 C708 1.392 . S
C709 H721 0.929 . S
C710 C706 1.531 . S
C710 H722 0.960 . S
C710 H723 0.962 . S
C710 H724 0.960 . S
C711 C708 1.511 . S
C711 H725 0.961 . S
C711 H726 0.961 . S
C711 H727 0.961 . S
C712 C713 1.370 . S
C712 C714 1.363 . S
C712 H728 0.931 . S
C713 C712 1.370 . S
C713 C717 1.408 1_455 S
C714 C712 1.363 . S
C714 C715 1.370 . S
C714 C718 1.524 . S
C715 C707 1.503 . S
C715 C714 1.370 . S
C715 C716 1.403 1_455 S
C716 C715 1.403 1_655 S
C716 C717 1.404 . S
C716 C719 1.539 . S
C717 C713 1.408 1_655 S
C717 C716 1.404 . S
C717 H729 0.930 . S
C718 C714 1.524 . S
C718 H730 0.956 . S
C718 H731 0.961 . S
C718 H732 0.961 . S
C719 C716 1.539 . S
C719 H733 0.958 . S
C719 H734 0.961 . S
C719 H735 0.960 . S
H720 C704 0.931 . S
H721 C709 0.929 . S
H722 C710 0.960 . S
H723 C710 0.962 . S
H724 C710 0.960 . S
H725 C711 0.961 . S
H726 C711 0.961 . S
H727 C711 0.961 . S
H728 C712 0.931 . S
H729 C717 0.930 . S
H730 C718 0.956 . S
H731 C718 0.961 . S
H732 C718 0.961 . S
H733 C719 0.958 . S
H734 C719 0.961 . S
H735 C719 0.960 . S
C736 C737 1.391 . S
C736 C738 1.394 . S
C736 H752 0.931 . S
C737 C736 1.391 . S
C737 C741 1.376 . S
C738 C736 1.394 . S
C738 C739 1.369 . S
C738 C742 1.531 . S
C739 C738 1.369 . S
C739 C740 1.410 . S
C739 C747 1.503 . S
C740 C739 1.410 . S
C740 C741 1.392 . S
C740 C743 1.511 . S
C741 C737 1.376 . S
C741 C740 1.392 . S
C741 H753 0.929 . S
C742 C738 1.531 . S
C742 H754 0.960 . S
C742 H755 0.962 . S
C742 H756 0.960 . S
C743 C740 1.511 . S
C743 H757 0.961 . S
C743 H758 0.961 . S
C743 H759 0.961 . S
C744 C745 1.370 . S
C744 C746 1.363 . S
C744 H760 0.931 . S
C745 C744 1.370 . S
C745 C749 1.408 . S
C746 C744 1.363 . S
C746 C747 1.370 . S
C746 C750 1.524 . S
C747 C739 1.503 . S
C747 C746 1.370 . S
C747 C748 1.403 . S
C748 C747 1.403 . S
C748 C749 1.404 . S
C748 C751 1.539 . S
C749 C745 1.408 . S
C749 C748 1.404 . S
C749 H761 0.930 . S
C750 C746 1.524 . S
C750 H762 0.956 . S
C750 H763 0.961 . S
C750 H764 0.961 . S
C751 C748 1.539 . S
C751 H765 0.958 . S
C751 H766 0.961 . S
C751 H767 0.960 . S
H752 C736 0.931 . S
H753 C741 0.929 . S
H754 C742 0.960 . S
H755 C742 0.962 . S
H756 C742 0.960 . S
H757 C743 0.961 . S
H758 C743 0.961 . S
H759 C743 0.961 . S
H760 C744 0.931 . S
H761 C749 0.930 . S
H762 C750 0.956 . S
H763 C750 0.961 . S
H764 C750 0.961 . S
H765 C751 0.958 . S
H766 C751 0.961 . S
H767 C751 0.960 . S
C768 C769 1.391 . S
C768 C770 1.394 . S
C768 H784 0.931 . S
C769 C768 1.391 . S
C769 C773 1.376 . S
C770 C768 1.394 . S
C770 C771 1.369 . S
C770 C774 1.531 . S
C771 C770 1.369 . S
C771 C772 1.410 . S
C771 C779 1.503 . S
C772 C771 1.410 . S
C772 C773 1.392 . S
C772 C775 1.511 . S
C773 C769 1.376 . S
C773 C772 1.392 . S
C773 H785 0.929 . S
C774 C770 1.531 . S
C774 H786 0.960 . S
C774 H787 0.962 . S
C774 H788 0.960 . S
C775 C772 1.511 . S
C775 H789 0.961 . S
C775 H790 0.961 . S
C775 H791 0.961 . S
C776 C777 1.370 . S
C776 C778 1.363 . S
C776 H792 0.931 1_565 S
C777 C776 1.370 . S
C777 C781 1.408 . S
C778 C776 1.363 . S
C778 C779 1.370 . S
C778 C782 1.524 . S
C779 C771 1.503 . S
C779 C778 1.370 . S
C779 C780 1.403 . S
C780 C779 1.403 . S
C780 C781 1.404 . S
C780 C783 1.539 . S
C781 C777 1.408 . S
C781 C780 1.404 . S
C781 H793 0.930 . S
C782 C778 1.524 . S
C782 H794 0.956 . S
C782 H795 0.961 . S
C782 H796 0.961 . S
C783 C780 1.539 . S
C783 H797 0.958 . S
C783 H798 0.961 . S
C783 H799 0.960 . S
H784 C768 0.931 . S
H785 C773 0.929 . S
H786 C774 0.960 . S
H787 C774 0.962 . S
H788 C774 0.960 . S
H789 C775 0.961 . S
H790 C775 0.961 . S
H791 C775 0.961 . S
H792 C776 0.931 1_545 S
H793 C781 0.930 . S
H794 C782 0.956 . S
H795 C782 0.961 . S
H796 C782 0.961 . S
H797 C783 0.958 . S
H798 C783 0.961 . S
H799 C783 0.960 . S
C800 C801 1.391 . S
C800 C802 1.394 . S
C800 H816 0.931 1_545 S
C801 C800 1.391 . S
C801 C805 1.376 . S
C802 C800 1.394 . S
C802 C803 1.369 . S
C802 C806 1.531 . S
C803 C802 1.369 . S
C803 C804 1.410 . S
C803 C811 1.503 . S
C804 C803 1.410 . S
C804 C805 1.392 . S
C804 C807 1.511 . S
C805 C801 1.376 . S
C805 C804 1.392 . S
C805 H817 0.929 . S
C806 C802 1.531 . S
C806 H818 0.960 . S
C806 H819 0.962 . S
C806 H820 0.960 1_545 S
C807 C804 1.511 . S
C807 H821 0.961 . S
C807 H822 0.961 . S
C807 H823 0.961 . S
C808 C809 1.370 . S
C808 C810 1.363 . S
C808 H824 0.931 . S
C809 C808 1.370 . S
C809 C813 1.408 . S
C810 C808 1.363 . S
C810 C811 1.370 . S
C810 C814 1.524 . S
C811 C803 1.503 . S
C811 C810 1.370 . S
C811 C812 1.403 . S
C812 C811 1.403 . S
C812 C813 1.404 . S
C812 C815 1.539 . S
C813 C809 1.408 . S
C813 C812 1.404 . S
C813 H825 0.930 . S
C814 C810 1.524 . S
C814 H826 0.956 . S
C814 H827 0.961 . S
C814 H828 0.961 . S
C815 C812 1.539 . S
C815 H829 0.958 . S
C815 H830 0.961 . S
C815 H831 0.960 . S
H816 C800 0.931 1_565 S
H817 C805 0.929 . S
H818 C806 0.960 . S
H819 C806 0.962 . S
H820 C806 0.960 1_565 S
H821 C807 0.961 . S
H822 C807 0.961 . S
H823 C807 0.961 . S
H824 C808 0.931 . S
H825 C813 0.930 . S
H826 C814 0.956 . S
H827 C814 0.961 . S
H828 C814 0.961 . S
H829 C815 0.958 . S
H830 C815 0.961 . S
H831 C815 0.960 . S
C832 C833 1.391 . S
C832 C834 1.394 . S
C832 H848 0.931 . S
C833 C832 1.391 . S
C833 C837 1.376 . S
C834 C832 1.394 . S
C834 C835 1.369 . S
C834 C838 1.531 . S
C835 C834 1.369 . S
C835 C836 1.410 . S
C835 C843 1.503 . S
C836 C835 1.410 . S
C836 C837 1.392 . S
C836 C839 1.511 . S
C837 C833 1.376 . S
C837 C836 1.392 . S
C837 H849 0.929 . S
C838 C834 1.531 . S
C838 H850 0.960 . S
C838 H851 0.962 . S
C838 H852 0.960 . S
C839 C836 1.511 . S
C839 H853 0.961 . S
C839 H854 0.961 . S
C839 H855 0.961 . S
C840 C841 1.370 . S
C840 C842 1.363 . S
C840 H856 0.931 . S
C841 C840 1.370 . S
C841 C845 1.408 . S
C842 C840 1.363 . S
C842 C843 1.370 . S
C842 C846 1.524 . S
C843 C835 1.503 . S
C843 C842 1.370 . S
C843 C844 1.403 . S
C844 C843 1.403 . S
C844 C845 1.404 . S
C844 C847 1.539 . S
C845 C841 1.408 . S
C845 C844 1.404 . S
C845 H857 0.930 . S
C846 C842 1.524 . S
C846 H858 0.956 . S
C846 H859 0.961 . S
C846 H860 0.961 . S
C847 C844 1.539 . S
C847 H861 0.958 . S
C847 H862 0.961 . S
C847 H863 0.960 . S
H848 C832 0.931 . S
H849 C837 0.929 . S
H850 C838 0.960 . S
H851 C838 0.962 . S
H852 C838 0.960 . S
H853 C839 0.961 . S
H854 C839 0.961 . S
H855 C839 0.961 . S
H856 C840 0.931 . S
H857 C845 0.930 . S
H858 C846 0.956 . S
H859 C846 0.961 . S
H860 C846 0.961 . S
H861 C847 0.958 . S
H862 C847 0.961 . S
H863 C847 0.960 . S
C864 C865 1.391 . S
C864 C866 1.394 . S
C864 H880 0.931 . S
C865 C864 1.391 . S
C865 C869 1.376 . S
C866 C864 1.394 . S
C866 C867 1.369 . S
C866 C870 1.531 . S
C867 C866 1.369 . S
C867 C868 1.410 . S
C867 C875 1.503 . S
C868 C867 1.410 . S
C868 C869 1.392 . S
C868 C871 1.511 . S
C869 C865 1.376 . S
C869 C868 1.392 . S
C869 H881 0.929 . S
C870 C866 1.531 . S
C870 H882 0.960 . S
C870 H883 0.962 . S
C870 H884 0.960 . S
C871 C868 1.511 . S
C871 H885 0.961 . S
C871 H886 0.961 . S
C871 H887 0.961 . S
C872 C873 1.370 . S
C872 C874 1.363 . S
C872 H888 0.931 . S
C873 C872 1.370 . S
C873 C877 1.408 . S
C874 C872 1.363 . S
C874 C875 1.370 . S
C874 C878 1.524 . S
C875 C867 1.503 . S
C875 C874 1.370 . S
C875 C876 1.403 . S
C876 C875 1.403 . S
C876 C877 1.404 . S
C876 C879 1.539 . S
C877 C873 1.408 . S
C877 C876 1.404 . S
C877 H889 0.930 . S
C878 C874 1.524 . S
C878 H890 0.956 . S
C878 H891 0.961 . S
C878 H892 0.961 . S
C879 C876 1.539 . S
C879 H893 0.958 . S
C879 H894 0.961 . S
C879 H895 0.960 . S
H880 C864 0.931 . S
H881 C869 0.929 . S
H882 C870 0.960 . S
H883 C870 0.962 . S
H884 C870 0.960 . S
H885 C871 0.961 . S
H886 C871 0.961 . S
H887 C871 0.961 . S
H888 C872 0.931 . S
H889 C877 0.930 . S
H890 C878 0.956 . S
H891 C878 0.961 . S
H892 C878 0.961 . S
H893 C879 0.958 . S
H894 C879 0.961 . S
H895 C879 0.960 . S
C896 C897 1.391 . S
C896 C898 1.394 . S
C896 H912 0.931 . S
C897 C896 1.391 . S
C897 C901 1.376 . S
C898 C896 1.394 . S
C898 C899 1.369 . S
C898 C902 1.531 . S
C899 C898 1.369 . S
C899 C900 1.410 . S
C899 C907 1.503 . S
C900 C899 1.410 . S
C900 C901 1.392 . S
C900 C903 1.511 . S
C901 C897 1.376 . S
C901 C900 1.392 . S
C901 H913 0.929 . S
C902 C898 1.531 . S
C902 H914 0.960 . S
C902 H915 0.962 . S
C902 H916 0.960 . S
C903 C900 1.511 . S
C903 H917 0.961 . S
C903 H918 0.961 . S
C903 H919 0.961 . S
C904 C905 1.370 . S
C904 C906 1.363 . S
C904 H920 0.931 . S
C905 C904 1.370 . S
C905 C909 1.408 . S
C906 C904 1.363 . S
C906 C907 1.370 . S
C906 C910 1.524 . S
C907 C899 1.503 . S
C907 C906 1.370 . S
C907 C908 1.403 . S
C908 C907 1.403 . S
C908 C909 1.404 . S
C908 C911 1.539 . S
C909 C905 1.408 . S
C909 C908 1.404 . S
C909 H921 0.930 . S
C910 C906 1.524 . S
C910 H922 0.956 . S
C910 H923 0.961 . S
C910 H924 0.961 . S
C911 C908 1.539 . S
C911 H925 0.958 . S
C911 H926 0.961 . S
C911 H927 0.960 . S
H912 C896 0.931 . S
H913 C901 0.929 . S
H914 C902 0.960 . S
H915 C902 0.962 . S
H916 C902 0.960 . S
H917 C903 0.961 . S
H918 C903 0.961 . S
H919 C903 0.961 . S
H920 C904 0.931 . S
H921 C909 0.930 . S
H922 C910 0.956 . S
H923 C910 0.961 . S
H924 C910 0.961 . S
H925 C911 0.958 . S
H926 C911 0.961 . S
H927 C911 0.960 . S
C928 C929 1.391 . S
C928 C930 1.394 . S
C928 H944 0.931 . S
C929 C928 1.391 . S
C929 C933 1.376 . S
C930 C928 1.394 . S
C930 C931 1.369 . S
C930 C934 1.531 . S
C931 C930 1.369 . S
C931 C932 1.410 . S
C931 C939 1.503 . S
C932 C931 1.410 . S
C932 C933 1.392 . S
C932 C935 1.511 . S
C933 C929 1.376 . S
C933 C932 1.392 . S
C933 H945 0.929 . S
C934 C930 1.531 . S
C934 H946 0.960 . S
C934 H947 0.962 . S
C934 H948 0.960 . S
C935 C932 1.511 . S
C935 H949 0.961 . S
C935 H950 0.961 . S
C935 H951 0.961 . S
C936 C937 1.370 . S
C936 C938 1.363 . S
C936 H952 0.931 . S
C937 C936 1.370 . S
C937 C941 1.408 . S
C938 C936 1.363 . S
C938 C939 1.370 . S
C938 C942 1.524 . S
C939 C931 1.503 . S
C939 C938 1.370 . S
C939 C940 1.403 . S
C940 C939 1.403 . S
C940 C941 1.404 . S
C940 C943 1.539 . S
C941 C937 1.408 . S
C941 C940 1.404 . S
C941 H953 0.930 . S
C942 C938 1.524 . S
C942 H954 0.956 . S
C942 H955 0.961 . S
C942 H956 0.961 . S
C943 C940 1.539 . S
C943 H957 0.958 . S
C943 H958 0.961 . S
C943 H959 0.960 . S
H944 C928 0.931 . S
H945 C933 0.929 . S
H946 C934 0.960 . S
H947 C934 0.962 . S
H948 C934 0.960 . S
H949 C935 0.961 . S
H950 C935 0.961 . S
H951 C935 0.961 . S
H952 C936 0.931 . S
H953 C941 0.930 . S
H954 C942 0.956 . S
H955 C942 0.961 . S
H956 C942 0.961 . S
H957 C943 0.958 . S
H958 C943 0.961 . S
H959 C943 0.960 . S
C960 C961 1.391 . S
C960 C962 1.394 . S
C960 H976 0.931 . S
C961 C960 1.391 . S
C961 C965 1.376 . S
C962 C960 1.394 . S
C962 C963 1.369 . S
C962 C966 1.531 . S
C963 C962 1.369 . S
C963 C964 1.410 . S
C963 C971 1.503 . S
C964 C963 1.410 . S
C964 C965 1.392 . S
C964 C967 1.511 . S
C965 C961 1.376 . S
C965 C964 1.392 . S
C965 H977 0.929 . S
C966 C962 1.531 . S
C966 H978 0.960 . S
C966 H979 0.962 . S
C966 H980 0.960 . S
C967 C964 1.511 . S
C967 H981 0.961 . S
C967 H982 0.961 . S
C967 H983 0.961 . S
C968 C969 1.370 . S
C968 C970 1.363 . S
C968 H984 0.931 . S
C969 C968 1.370 . S
C969 C973 1.408 . S
C970 C968 1.363 . S
C970 C971 1.370 . S
C970 C974 1.524 . S
C971 C963 1.503 . S
C971 C970 1.370 . S
C971 C972 1.403 . S
C972 C971 1.403 . S
C972 C973 1.404 . S
C972 C975 1.539 . S
C973 C969 1.408 . S
C973 C972 1.404 . S
C973 H985 0.930 . S
C974 C970 1.524 . S
C974 H986 0.956 . S
C974 H987 0.961 . S
C974 H988 0.961 . S
C975 C972 1.539 . S
C975 H989 0.958 . S
C975 H990 0.961 . S
C975 H991 0.960 . S
H976 C960 0.931 . S
H977 C965 0.929 . S
H978 C966 0.960 . S
H979 C966 0.962 . S
H980 C966 0.960 . S
H981 C967 0.961 . S
H982 C967 0.961 . S
H983 C967 0.961 . S
H984 C968 0.931 . S
H985 C973 0.930 . S
H986 C974 0.956 . S
H987 C974 0.961 . S
H988 C974 0.961 . S
H989 C975 0.958 . S
H990 C975 0.961 . S
H991 C975 0.960 . S
C992 C993 1.391 . S
C992 C994 1.394 . S
C992 H1008 0.931 . S
C993 C992 1.391 . S
C993 C997 1.376 . S
C994 C992 1.394 . S
C994 C995 1.369 . S
C994 C998 1.531 . S
C995 C994 1.369 . S
C995 C996 1.410 . S
C995 C1003 1.503 . S
C996 C995 1.410 . S
C996 C997 1.392 . S
C996 C999 1.511 . S
C997 C993 1.376 . S
C997 C996 1.392 . S
C997 H1009 0.929 . S
C998 C994 1.531 . S
C998 H1010 0.960 . S
C998 H1011 0.962 . S
C998 H1012 0.960 . S
C999 C996 1.511 . S
C999 H1013 0.961 . S
C999 H1014 0.961 . S
C999 H1015 0.961 . S
C1000 C1001 1.370 . S
C1000 C1002 1.363 . S
C1000 H1016 0.931 . S
C1001 C1000 1.370 . S
C1001 C1005 1.408 . S
C1002 C1000 1.363 . S
C1002 C1003 1.370 . S
C1002 C1006 1.524 . S
C1003 C995 1.503 . S
C1003 C1002 1.370 . S
C1003 C1004 1.403 . S
C1004 C1003 1.403 . S
C1004 C1005 1.404 . S
C1004 C1007 1.539 . S
C1005 C1001 1.408 . S
C1005 C1004 1.404 . S
C1005 H1017 0.930 . S
C1006 C1002 1.524 . S
C1006 H1018 0.956 . S
C1006 H1019 0.961 . S
C1006 H1020 0.961 . S
C1007 C1004 1.539 . S
C1007 H1021 0.958 . S
C1007 H1022 0.961 . S
C1007 H1023 0.960 . S
H1008 C992 0.931 . S
H1009 C997 0.929 . S
H1010 C998 0.960 . S
H1011 C998 0.962 . S
H1012 C998 0.960 . S
H1013 C999 0.961 . S
H1014 C999 0.961 . S
H1015 C999 0.961 . S
H1016 C1000 0.931 . S
H1017 C1005 0.930 . S
H1018 C1006 0.956 . S
H1019 C1006 0.961 . S
H1020 C1006 0.961 . S
H1021 C1007 0.958 . S
H1022 C1007 0.961 . S
H1023 C1007 0.960 . S
C1024 C1025 1.391 . S
C1024 C1026 1.394 . S
C1024 H1040 0.931 . S
C1025 C1024 1.391 . S
C1025 C1029 1.376 . S
C1026 C1024 1.394 . S
C1026 C1027 1.369 . S
C1026 C1030 1.531 . S
C1027 C1026 1.369 . S
C1027 C1028 1.410 . S
C1027 C1035 1.503 . S
C1028 C1027 1.410 . S
C1028 C1029 1.392 . S
C1028 C1031 1.511 . S
C1029 C1025 1.376 . S
C1029 C1028 1.392 . S
C1029 H1041 0.929 . S
C1030 C1026 1.531 . S
C1030 H1042 0.960 . S
C1030 H1043 0.962 . S
C1030 H1044 0.960 . S
C1031 C1028 1.511 . S
C1031 H1045 0.961 . S
C1031 H1046 0.961 . S
C1031 H1047 0.961 . S
C1032 C1033 1.370 . S
C1032 C1034 1.363 . S
C1032 H1048 0.931 . S
C1033 C1032 1.370 . S
C1033 C1037 1.408 . S
C1034 C1032 1.363 . S
C1034 C1035 1.370 . S
C1034 C1038 1.524 . S
C1035 C1027 1.503 . S
C1035 C1034 1.370 . S
C1035 C1036 1.403 . S
C1036 C1035 1.403 . S
C1036 C1037 1.404 . S
C1036 C1039 1.539 . S
C1037 C1033 1.408 . S
C1037 C1036 1.404 . S
C1037 H1049 0.930 . S
C1038 C1034 1.524 . S
C1038 H1050 0.956 . S
C1038 H1051 0.961 . S
C1038 H1052 0.961 . S
C1039 C1036 1.539 . S
C1039 H1053 0.958 . S
C1039 H1054 0.961 . S
C1039 H1055 0.960 . S
H1040 C1024 0.931 . S
H1041 C1029 0.929 . S
H1042 C1030 0.960 . S
H1043 C1030 0.962 . S
H1044 C1030 0.960 . S
H1045 C1031 0.961 . S
H1046 C1031 0.961 . S
H1047 C1031 0.961 . S
H1048 C1032 0.931 . S
H1049 C1037 0.930 . S
H1050 C1038 0.956 . S
H1051 C1038 0.961 . S
H1052 C1038 0.961 . S
H1053 C1039 0.958 . S
H1054 C1039 0.961 . S
H1055 C1039 0.960 . S
C1056 C1057 1.391 . S
C1056 C1058 1.394 . S
C1056 H1072 0.931 . S
C1057 C1056 1.391 . S
C1057 C1061 1.376 . S
C1058 C1056 1.394 . S
C1058 C1059 1.369 . S
C1058 C1062 1.531 . S
C1059 C1058 1.369 . S
C1059 C1060 1.410 . S
C1059 C1067 1.503 . S
C1060 C1059 1.410 . S
C1060 C1061 1.392 . S
C1060 C1063 1.511 . S
C1061 C1057 1.376 . S
C1061 C1060 1.392 . S
C1061 H1073 0.929 . S
C1062 C1058 1.531 . S
C1062 H1074 0.960 . S
C1062 H1075 0.962 . S
C1062 H1076 0.960 . S
C1063 C1060 1.511 . S
C1063 H1077 0.961 . S
C1063 H1078 0.961 . S
C1063 H1079 0.961 . S
C1064 C1065 1.370 . S
C1064 C1066 1.363 . S
C1064 H1080 0.931 . S
C1065 C1064 1.370 . S
C1065 C1069 1.408 . S
C1066 C1064 1.363 . S
C1066 C1067 1.370 . S
C1066 C1070 1.524 . S
C1067 C1059 1.503 . S
C1067 C1066 1.370 . S
C1067 C1068 1.403 . S
C1068 C1067 1.403 . S
C1068 C1069 1.404 . S
C1068 C1071 1.539 . S
C1069 C1065 1.408 . S
C1069 C1068 1.404 . S
C1069 H1081 0.930 . S
C1070 C1066 1.524 . S
C1070 H1082 0.956 . S
C1070 H1083 0.961 . S
C1070 H1084 0.961 . S
C1071 C1068 1.539 . S
C1071 H1085 0.958 . S
C1071 H1086 0.961 . S
C1071 H1087 0.960 . S
H1072 C1056 0.931 . S
H1073 C1061 0.929 . S
H1074 C1062 0.960 . S
H1075 C1062 0.962 . S
H1076 C1062 0.960 . S
H1077 C1063 0.961 . S
H1078 C1063 0.961 . S
H1079 C1063 0.961 . S
H1080 C1064 0.931 . S
H1081 C1069 0.930 . S
H1082 C1070 0.956 . S
H1083 C1070 0.961 . S
H1084 C1070 0.961 . S
H1085 C1071 0.958 . S
H1086 C1071 0.961 . S
H1087 C1071 0.960 . S
C1088 C1089 1.391 . S
C1088 C1090 1.394 . S
C1088 H1104 0.931 . S
C1089 C1088 1.391 . S
C1089 C1093 1.376 . S
C1090 C1088 1.394 . S
C1090 C1091 1.369 . S
C1090 C1094 1.531 . S
C1091 C1090 1.369 . S
C1091 C1092 1.410 . S
C1091 C1099 1.503 . S
C1092 C1091 1.410 . S
C1092 C1093 1.392 . S
C1092 C1095 1.511 . S
C1093 C1089 1.376 . S
C1093 C1092 1.392 . S
C1093 H1105 0.929 . S
C1094 C1090 1.531 . S
C1094 H1106 0.960 . S
C1094 H1107 0.962 . S
C1094 H1108 0.960 . S
C1095 C1092 1.511 . S
C1095 H1109 0.961 . S
C1095 H1110 0.961 . S
C1095 H1111 0.961 . S
C1096 C1097 1.370 . S
C1096 C1098 1.363 . S
C1096 H1112 0.931 . S
C1097 C1096 1.370 . S
C1097 C1101 1.408 . S
C1098 C1096 1.363 . S
C1098 C1099 1.370 . S
C1098 C1102 1.524 . S
C1099 C1091 1.503 . S
C1099 C1098 1.370 . S
C1099 C1100 1.403 . S
C1100 C1099 1.403 . S
C1100 C1101 1.404 . S
C1100 C1103 1.539 . S
C1101 C1097 1.408 . S
C1101 C1100 1.404 . S
C1101 H1113 0.930 . S
C1102 C1098 1.524 . S
C1102 H1114 0.956 . S
C1102 H1115 0.961 . S
C1102 H1116 0.961 . S
C1103 C1100 1.539 . S
C1103 H1117 0.958 . S
C1103 H1118 0.961 . S
C1103 H1119 0.960 . S
H1104 C1088 0.931 . S
H1105 C1093 0.929 . S
H1106 C1094 0.960 . S
H1107 C1094 0.962 . S
H1108 C1094 0.960 . S
H1109 C1095 0.961 . S
H1110 C1095 0.961 . S
H1111 C1095 0.961 . S
H1112 C1096 0.931 . S
H1113 C1101 0.930 . S
H1114 C1102 0.956 . S
H1115 C1102 0.961 . S
H1116 C1102 0.961 . S
H1117 C1103 0.958 . S
H1118 C1103 0.961 . S
H1119 C1103 0.960 . S
C1120 C1121 1.391 . S
C1120 C1122 1.394 . S
C1120 H1136 0.931 . S
C1121 C1120 1.391 . S
C1121 C1125 1.376 . S
C1122 C1120 1.394 . S
C1122 C1123 1.369 . S
C1122 C1126 1.531 . S
C1123 C1122 1.369 . S
C1123 C1124 1.410 . S
C1123 C1131 1.503 . S
C1124 C1123 1.410 . S
C1124 C1125 1.392 . S
C1124 C1127 1.511 . S
C1125 C1121 1.376 . S
C1125 C1124 1.392 . S
C1125 H1137 0.929 . S
C1126 C1122 1.531 . S
C1126 H1138 0.960 . S
C1126 H1139 0.962 . S
C1126 H1140 0.960 . S
C1127 C1124 1.511 . S
C1127 H1141 0.961 . S
C1127 H1142 0.961 . S
C1127 H1143 0.961 . S
C1128 C1129 1.370 . S
C1128 C1130 1.363 . S
C1128 H1144 0.931 . S
C1129 C1128 1.370 . S
C1129 C1133 1.408 . S
C1130 C1128 1.363 . S
C1130 C1131 1.370 . S
C1130 C1134 1.524 . S
C1131 C1123 1.503 . S
C1131 C1130 1.370 . S
C1131 C1132 1.403 . S
C1132 C1131 1.403 . S
C1132 C1133 1.404 . S
C1132 C1135 1.539 . S
C1133 C1129 1.408 . S
C1133 C1132 1.404 . S
C1133 H1145 0.930 . S
C1134 C1130 1.524 . S
C1134 H1146 0.956 . S
C1134 H1147 0.961 . S
C1134 H1148 0.961 . S
C1135 C1132 1.539 . S
C1135 H1149 0.958 . S
C1135 H1150 0.961 . S
C1135 H1151 0.960 . S
H1136 C1120 0.931 . S
H1137 C1125 0.929 . S
H1138 C1126 0.960 . S
H1139 C1126 0.962 . S
H1140 C1126 0.960 . S
H1141 C1127 0.961 . S
H1142 C1127 0.961 . S
H1143 C1127 0.961 . S
H1144 C1128 0.931 . S
H1145 C1133 0.930 . S
H1146 C1134 0.956 . S
H1147 C1134 0.961 . S
H1148 C1134 0.961 . S
H1149 C1135 0.958 . S
H1150 C1135 0.961 . S
H1151 C1135 0.960 . S
C1152 C1153 1.391 . S
C1152 C1154 1.394 . S
C1152 H1168 0.931 . S
C1153 C1152 1.391 . S
C1153 C1157 1.376 . S
C1154 C1152 1.394 . S
C1154 C1155 1.369 . S
C1154 C1158 1.531 . S
C1155 C1154 1.369 . S
C1155 C1156 1.410 . S
C1155 C1163 1.503 . S
C1156 C1155 1.410 . S
C1156 C1157 1.392 . S
C1156 C1159 1.511 . S
C1157 C1153 1.376 . S
C1157 C1156 1.392 . S
C1157 H1169 0.929 . S
C1158 C1154 1.531 . S
C1158 H1170 0.960 . S
C1158 H1171 0.962 . S
C1158 H1172 0.960 . S
C1159 C1156 1.511 . S
C1159 H1173 0.961 . S
C1159 H1174 0.961 . S
C1159 H1175 0.961 . S
C1160 C1161 1.370 . S
C1160 C1162 1.363 . S
C1160 H1176 0.931 . S
C1161 C1160 1.370 . S
C1161 C1165 1.408 . S
C1162 C1160 1.363 . S
C1162 C1163 1.370 . S
C1162 C1166 1.524 . S
C1163 C1155 1.503 . S
C1163 C1162 1.370 . S
C1163 C1164 1.403 . S
C1164 C1163 1.403 . S
C1164 C1165 1.404 . S
C1164 C1167 1.539 . S
C1165 C1161 1.408 . S
C1165 C1164 1.404 . S
C1165 H1177 0.930 . S
C1166 C1162 1.524 . S
C1166 H1178 0.956 . S
C1166 H1179 0.961 . S
C1166 H1180 0.961 . S
C1167 C1164 1.539 . S
C1167 H1181 0.958 . S
C1167 H1182 0.961 . S
C1167 H1183 0.960 . S
H1168 C1152 0.931 . S
H1169 C1157 0.929 . S
H1170 C1158 0.960 . S
H1171 C1158 0.962 . S
H1172 C1158 0.960 . S
H1173 C1159 0.961 . S
H1174 C1159 0.961 . S
H1175 C1159 0.961 . S
H1176 C1160 0.931 . S
H1177 C1165 0.930 . S
H1178 C1166 0.956 . S
H1179 C1166 0.961 . S
H1180 C1166 0.961 . S
H1181 C1167 0.958 . S
H1182 C1167 0.961 . S
H1183 C1167 0.960 . S
C1184 C1185 1.391 . S
C1184 C1186 1.394 . S
C1184 H1200 0.931 . S
C1185 C1184 1.391 . S
C1185 C1189 1.376 . S
C1186 C1184 1.394 . S
C1186 C1187 1.369 . S
C1186 C1190 1.531 . S
C1187 C1186 1.369 . S
C1187 C1188 1.410 . S
C1187 C1195 1.503 . S
C1188 C1187 1.410 . S
C1188 C1189 1.392 . S
C1188 C1191 1.511 . S
C1189 C1185 1.376 . S
C1189 C1188 1.392 . S
C1189 H1201 0.929 . S
C1190 C1186 1.531 . S
C1190 H1202 0.960 . S
C1190 H1203 0.962 . S
C1190 H1204 0.960 . S
C1191 C1188 1.511 . S
C1191 H1205 0.961 . S
C1191 H1206 0.961 . S
C1191 H1207 0.961 . S
C1192 C1193 1.370 . S
C1192 C1194 1.363 . S
C1192 H1208 0.931 . S
C1193 C1192 1.370 . S
C1193 C1197 1.408 . S
C1194 C1192 1.363 . S
C1194 C1195 1.370 . S
C1194 C1198 1.524 . S
C1195 C1187 1.503 . S
C1195 C1194 1.370 . S
C1195 C1196 1.403 . S
C1196 C1195 1.403 . S
C1196 C1197 1.404 . S
C1196 C1199 1.539 . S
C1197 C1193 1.408 . S
C1197 C1196 1.404 . S
C1197 H1209 0.930 . S
C1198 C1194 1.524 . S
C1198 H1210 0.956 . S
C1198 H1211 0.961 . S
C1198 H1212 0.961 . S
C1199 C1196 1.539 . S
C1199 H1213 0.958 . S
C1199 H1214 0.961 . S
C1199 H1215 0.960 . S
H1200 C1184 0.931 . S
H1201 C1189 0.929 . S
H1202 C1190 0.960 . S
H1203 C1190 0.962 . S
H1204 C1190 0.960 . S
H1205 C1191 0.961 . S
H1206 C1191 0.961 . S
H1207 C1191 0.961 . S
H1208 C1192 0.931 . S
H1209 C1197 0.930 . S
H1210 C1198 0.956 . S
H1211 C1198 0.961 . S
H1212 C1198 0.961 . S
H1213 C1199 0.958 . S
H1214 C1199 0.961 . S
H1215 C1199 0.960 . S
C1216 C1217 1.391 . S
C1216 C1218 1.394 . S
C1216 H1232 0.931 . S
C1217 C1216 1.391 . S
C1217 C1221 1.376 . S
C1218 C1216 1.394 . S
C1218 C1219 1.369 . S
C1218 C1222 1.531 . S
C1219 C1218 1.369 . S
C1219 C1220 1.410 . S
C1219 C1227 1.503 . S
C1220 C1219 1.410 . S
C1220 C1221 1.392 . S
C1220 C1223 1.511 . S
C1221 C1217 1.376 . S
C1221 C1220 1.392 . S
C1221 H1233 0.929 . S
C1222 C1218 1.531 . S
C1222 H1234 0.960 . S
C1222 H1235 0.962 . S
C1222 H1236 0.960 . S
C1223 C1220 1.511 . S
C1223 H1237 0.961 . S
C1223 H1238 0.961 . S
C1223 H1239 0.961 . S
C1224 C1225 1.370 . S
C1224 C1226 1.363 . S
C1224 H1240 0.931 . S
C1225 C1224 1.370 . S
C1225 C1229 1.408 . S
C1226 C1224 1.363 . S
C1226 C1227 1.370 . S
C1226 C1230 1.524 . S
C1227 C1219 1.503 . S
C1227 C1226 1.370 . S
C1227 C1228 1.403 . S
C1228 C1227 1.403 . S
C1228 C1229 1.404 . S
C1228 C1231 1.539 . S
C1229 C1225 1.408 . S
C1229 C1228 1.404 . S
C1229 H1241 0.930 . S
C1230 C1226 1.524 . S
C1230 H1242 0.956 . S
C1230 H1243 0.961 . S
C1230 H1244 0.961 . S
C1231 C1228 1.539 . S
C1231 H1245 0.958 . S
C1231 H1246 0.961 . S
C1231 H1247 0.960 . S
H1232 C1216 0.931 . S
H1233 C1221 0.929 . S
H1234 C1222 0.960 . S
H1235 C1222 0.962 . S
H1236 C1222 0.960 . S
H1237 C1223 0.961 . S
H1238 C1223 0.961 . S
H1239 C1223 0.961 . S
H1240 C1224 0.931 . S
H1241 C1229 0.930 . S
H1242 C1230 0.956 . S
H1243 C1230 0.961 . S
H1244 C1230 0.961 . S
H1245 C1231 0.958 . S
H1246 C1231 0.961 . S
H1247 C1231 0.960 . S
C225 C8 1.289 . S
C233 C190 1.297 . S
C257 C162 1.315 . S
C265 C22 1.288 . S
C289 C176 1.282 . S
C297 C36 1.303 . S
C321 C148 1.309 . S
C329 C50 1.289 . S
C353 C64 1.304 . S
C361 C218 1.291 . S
C385 C78 1.305 . S
C393 C134 1.293 . S
C417 C204 1.272 . S
C425 C92 1.306 . S
C449 C106 1.308 . S
C457 C120 1.292 . S
C481 C63 1.578 1_655 S
C489 C7 1.594 1_655 S
C513 C21 1.605 . S
C521 C77 1.584 . S
C545 C35 1.570 . S
C553 C91 1.599 . S
C577 C105 1.560 . S
C585 C49 1.593 . S
C609 C119 1.568 . S
C617 C147 1.588 . S
C641 C133 1.602 . S
C649 C161 1.586 . S
C673 C203 1.579 . S
C681 C175 1.584 . S
C705 C189 1.598 . S
C713 C217 1.577 . S
C737 C73 1.416 . S
C745 C3 1.438 1_565 S
C769 C17 1.426 . S
C777 C87 1.429 1_565 S
C801 C31 1.438 1_545 S
C809 C101 1.429 . S
C833 C59 1.418 1_545 S
C841 C45 1.432 . S
C865 C65 1.209 . S
C873 C149 1.218 . S
C897 C37 1.228 . S
C905 C121 1.222 . S
C929 C163 1.219 . S
C937 C93 1.221 . S
C961 C135 1.210 . S
C969 C9 1.219 . S
C993 C115 1.415 . S
C1001 C171 1.436 . S
C1025 C143 1.451 . S
C1033 C213 1.436 . S
C1057 C185 1.419 . S
C1065 C129 1.431 . S
C1089 C157 1.437 . S
C1097 C199 1.429 . S
C1121 C205 1.223 . S
C1129 C23 1.209 . S
C1153 C191 1.234 . S
C1161 C79 1.218 . S
C1185 C219 1.227 . S
C1193 C51 1.211 . S
C1217 C177 1.186 . S
C1225 C107 1.208 . S
