# Generated by pormake.
# Topology whw, (6)-cn, num edge types: 1
# Building blocks:
#     Node 0, Type 0, BuildingBlock: CUWYAW_clean_sbu_0, # of connection points: 6
#     Node 1, Type 0, BuildingBlock: CUWYAW_clean_sbu_0, # of connection points: 6
#     Node 2, Type 0, BuildingBlock: CUWYAW_clean_sbu_0, # of connection points: 6
#     Node 3, Type 0, BuildingBlock: CUWYAW_clean_sbu_0, # of connection points: 6
#     Node 4, Type 0, BuildingBlock: CUWYAW_clean_sbu_0, # of connection points: 6
#     Node 5, Type 0, BuildingBlock: CUWYAW_clean_sbu_0, # of connection points: 6
#     Node 6, Type 0, BuildingBlock: CUWYAW_clean_sbu_0, # of connection points: 6
#     Node 7, Type 0, BuildingBlock: CUWYAW_clean_sbu_0, # of connection points: 6
#     Node 8, Type 0, BuildingBlock: CUWYAW_clean_sbu_0, # of connection points: 6
#     Node 9, Type 0, BuildingBlock: CUWYAW_clean_sbu_0, # of connection points: 6
#     Node 10, Type 0, BuildingBlock: CUWYAW_clean_sbu_0, # of connection points: 6
#     Node 11, Type 0, BuildingBlock: CUWYAW_clean_sbu_0, # of connection points: 6
#     Node 12, Type 0, BuildingBlock: CUWYAW_clean_sbu_0, # of connection points: 6
#     Node 13, Type 0, BuildingBlock: CUWYAW_clean_sbu_0, # of connection points: 6
#     Node 14, Type 0, BuildingBlock: CUWYAW_clean_sbu_0, # of connection points: 6
#     Node 15, Type 0, BuildingBlock: CUWYAW_clean_sbu_0, # of connection points: 6
#     Edge 16, Type (0, 0), BuildingBlock: ZUJKAS_clean_linker_0, # of connection points: 2
#     Edge 17, Type (0, 0), BuildingBlock: ZUJKAS_clean_linker_0, # of connection points: 2
#     Edge 18, Type (0, 0), BuildingBlock: ZUJKAS_clean_linker_0, # of connection points: 2
#     Edge 19, Type (0, 0), BuildingBlock: ZUJKAS_clean_linker_0, # of connection points: 2
#     Edge 20, Type (0, 0), BuildingBlock: ZUJKAS_clean_linker_0, # of connection points: 2
#     Edge 21, Type (0, 0), BuildingBlock: ZUJKAS_clean_linker_0, # of connection points: 2
#     Edge 22, Type (0, 0), BuildingBlock: ZUJKAS_clean_linker_0, # of connection points: 2
#     Edge 23, Type (0, 0), BuildingBlock: ZUJKAS_clean_linker_0, # of connection points: 2
#     Edge 24, Type (0, 0), BuildingBlock: ZUJKAS_clean_linker_0, # of connection points: 2
#     Edge 25, Type (0, 0), BuildingBlock: ZUJKAS_clean_linker_0, # of connection points: 2
#     Edge 26, Type (0, 0), BuildingBlock: ZUJKAS_clean_linker_0, # of connection points: 2
#     Edge 27, Type (0, 0), BuildingBlock: ZUJKAS_clean_linker_0, # of connection points: 2
#     Edge 28, Type (0, 0), BuildingBlock: ZUJKAS_clean_linker_0, # of connection points: 2
#     Edge 29, Type (0, 0), BuildingBlock: ZUJKAS_clean_linker_0, # of connection points: 2
#     Edge 30, Type (0, 0), BuildingBlock: ZUJKAS_clean_linker_0, # of connection points: 2
#     Edge 31, Type (0, 0), BuildingBlock: ZUJKAS_clean_linker_0, # of connection points: 2
#     Edge 32, Type (0, 0), BuildingBlock: ZUJKAS_clean_linker_0, # of connection points: 2
#     Edge 33, Type (0, 0), BuildingBlock: ZUJKAS_clean_linker_0, # of connection points: 2
#     Edge 34, Type (0, 0), BuildingBlock: ZUJKAS_clean_linker_0, # of connection points: 2
#     Edge 35, Type (0, 0), BuildingBlock: ZUJKAS_clean_linker_0, # of connection points: 2
#     Edge 36, Type (0, 0), BuildingBlock: ZUJKAS_clean_linker_0, # of connection points: 2
#     Edge 37, Type (0, 0), BuildingBlock: ZUJKAS_clean_linker_0, # of connection points: 2
#     Edge 38, Type (0, 0), BuildingBlock: ZUJKAS_clean_linker_0, # of connection points: 2
#     Edge 39, Type (0, 0), BuildingBlock: ZUJKAS_clean_linker_0, # of connection points: 2
#     Edge 40, Type (0, 0), BuildingBlock: ZUJKAS_clean_linker_0, # of connection points: 2
#     Edge 41, Type (0, 0), BuildingBlock: ZUJKAS_clean_linker_0, # of connection points: 2
#     Edge 42, Type (0, 0), BuildingBlock: ZUJKAS_clean_linker_0, # of connection points: 2
#     Edge 43, Type (0, 0), BuildingBlock: ZUJKAS_clean_linker_0, # of connection points: 2
#     Edge 44, Type (0, 0), BuildingBlock: ZUJKAS_clean_linker_0, # of connection points: 2
#     Edge 45, Type (0, 0), BuildingBlock: ZUJKAS_clean_linker_0, # of connection points: 2
#     Edge 46, Type (0, 0), BuildingBlock: ZUJKAS_clean_linker_0, # of connection points: 2
#     Edge 47, Type (0, 0), BuildingBlock: ZUJKAS_clean_linker_0, # of connection points: 2
#     Edge 48, Type (0, 0), BuildingBlock: ZUJKAS_clean_linker_0, # of connection points: 2
#     Edge 49, Type (0, 0), BuildingBlock: ZUJKAS_clean_linker_0, # of connection points: 2
#     Edge 50, Type (0, 0), BuildingBlock: ZUJKAS_clean_linker_0, # of connection points: 2
#     Edge 51, Type (0, 0), BuildingBlock: ZUJKAS_clean_linker_0, # of connection points: 2
#     Edge 52, Type (0, 0), BuildingBlock: ZUJKAS_clean_linker_0, # of connection points: 2
#     Edge 53, Type (0, 0), BuildingBlock: ZUJKAS_clean_linker_0, # of connection points: 2
#     Edge 54, Type (0, 0), BuildingBlock: ZUJKAS_clean_linker_0, # of connection points: 2
#     Edge 55, Type (0, 0), BuildingBlock: ZUJKAS_clean_linker_0, # of connection points: 2
#     Edge 56, Type (0, 0), BuildingBlock: ZUJKAS_clean_linker_0, # of connection points: 2
#     Edge 57, Type (0, 0), BuildingBlock: ZUJKAS_clean_linker_0, # of connection points: 2
#     Edge 58, Type (0, 0), BuildingBlock: ZUJKAS_clean_linker_0, # of connection points: 2
#     Edge 59, Type (0, 0), BuildingBlock: ZUJKAS_clean_linker_0, # of connection points: 2
#     Edge 60, Type (0, 0), BuildingBlock: ZUJKAS_clean_linker_0, # of connection points: 2
#     Edge 61, Type (0, 0), BuildingBlock: ZUJKAS_clean_linker_0, # of connection points: 2
#     Edge 62, Type (0, 0), BuildingBlock: ZUJKAS_clean_linker_0, # of connection points: 2
#     Edge 63, Type (0, 0), BuildingBlock: ZUJKAS_clean_linker_0, # of connection points: 2
# Relax obj value: 0.410
# Max RMSD: 0.236
# Mean RMSD: 0.216
data_MOF--net-whw--node1-CUWYAW_clean_sbu_0--edge1-ZUJKAS_clean_linker_0
_symmetry_space_group_name_H-M    P1
_symmetry_Int_Tables_number       1
_symmetry_cell_setting            triclinic
loop_
_symmetry_equiv_pos_as_xyz
'x, y, z'
_cell_length_a     59.783075
_cell_length_b     59.787284
_cell_length_c     41.790801
_cell_angle_alpha  95.288743
_cell_angle_beta   85.503364
_cell_angle_gamma 91.209367
loop_
_atom_site_label
_atom_site_type_symbol
_atom_site_fract_x
_atom_site_fract_y
_atom_site_fract_z
_atom_type_partial_charge
C0 C 0.95153 0.12246 0.18128 0.0
Eu1 Eu 0.992 0.13315 0.19594 0.0
C2 C 0.94219 0.11152 0.15238 0.0
C3 C 0.91931 0.1132 0.14818 0.0
C4 C 0.9107 0.1039 0.1197 0.0
C5 C 0.9249 0.09278 0.09509 0.0
C6 C 0.94771 0.09047 0.10001 0.0
C7 C 0.95629 0.09986 0.12838 0.0
C8 C 0.01145 0.17178 0.21788 0.0
C9 C 0.03189 0.14353 0.14311 0.0
C10 C 0.07813 0.12754 0.23268 0.0
Eu11 Eu 0.03735 0.12645 0.21514 0.0
C12 C 0.08627 0.1326 0.26485 0.0
C13 C 0.10445 0.12087 0.27399 0.0
C14 C 0.11017 0.12333 0.30598 0.0
C15 C 0.09778 0.13757 0.32922 0.0
C16 C 0.07984 0.1496 0.31974 0.0
C17 C 0.07409 0.14708 0.28791 0.0
C18 C 0.01768 0.08866 0.18649 0.0
C19 C -0.00209 0.12924 0.2737 0.0
O20 O 0.96391 0.10959 0.19629 0.0
O21 O 0.96043 0.14247 0.1784 0.0
O22 O 0.9971 0.17043 0.19592 0.0
O23 O 0.01294 0.15327 0.22952 0.0
O24 O 0.01034 0.13796 0.14721 0.0
O25 O 0.04525 0.14206 0.16684 0.0
O26 O 0.0693 0.14425 0.22008 0.0
O27 O 0.06612 0.10909 0.22944 0.0
O28 O 0.02846 0.08885 0.21221 0.0
O29 O 0.01764 0.10821 0.17798 0.0
O30 O 0.01982 0.12985 0.26604 0.0
O31 O 0.98396 0.12871 0.25035 0.0
H32 H 0.90823 0.1221 0.1666 0.0
H33 H 0.89304 0.10582 0.11661 0.0
H34 H 0.95916 0.08234 0.08135 0.0
H35 H 0.97405 0.0985 0.13127 0.0
H36 H 0.11379 0.10936 0.25661 0.0
H37 H 0.12417 0.11398 0.31259 0.0
H38 H 0.06974 0.16041 0.33717 0.0
H39 H 0.05967 0.15592 0.28157 0.0
C40 C 0.18375 0.6635 0.40871 0.0
Eu41 Eu 0.17241 0.70384 0.43284 0.0
C42 C 0.19352 0.6534 0.37734 0.0
C43 C 0.18163 0.63641 0.36022 0.0
C44 C 0.18941 0.62835 0.32899 0.0
C45 C 0.20931 0.63709 0.31438 0.0
C46 C 0.22183 0.65322 0.33228 0.0
C47 C 0.21398 0.66134 0.36341 0.0
C48 C 0.13155 0.72054 0.45274 0.0
C49 C 0.15864 0.74315 0.39011 0.0
C50 C 0.17439 0.78833 0.49815 0.0
Eu51 Eu 0.17447 0.75061 0.46203 0.0
C52 C 0.16901 0.79438 0.5327 0.0
C53 C 0.18047 0.81229 0.54854 0.0
C54 C 0.1768 0.81706 0.5819 0.0
C55 C 0.16156 0.80399 0.59989 0.0
C56 C 0.15005 0.78608 0.58385 0.0
C57 C 0.1538 0.78126 0.55056 0.0
C58 C 0.21059 0.73837 0.42054 0.0
C59 C 0.17218 0.71007 0.51126 0.0
O60 O 0.19677 0.67696 0.42565 0.0
O61 O 0.16344 0.67118 0.40908 0.0
O62 O 0.13551 0.70667 0.42724 0.0
O63 O 0.14901 0.72384 0.46744 0.0
O64 O 0.16921 0.72364 0.38874 0.0
O65 O 0.15537 0.75553 0.41809 0.0
O66 O 0.15757 0.78145 0.48117 0.0
O67 O 0.19227 0.77601 0.49127 0.0
O68 O 0.20076 0.75748 0.42177 0.0
O69 O 0.20124 0.72673 0.44159 0.0
O70 O 0.17503 0.73183 0.50778 0.0
O71 O 0.17028 0.69563 0.48552 0.0
H72 H 0.16586 0.62998 0.37054 0.0
H73 H 0.1792 0.61612 0.31574 0.0
H74 H 0.23737 0.66008 0.32186 0.0
H75 H 0.22364 0.67427 0.3761 0.0
H76 H 0.19245 0.82241 0.53514 0.0
H77 H 0.18575 0.83107 0.5936 0.0
H78 H 0.13845 0.77553 0.59715 0.0
H79 H 0.1451 0.76708 0.53886 0.0
C80 C 0.64057 0.88271 0.53744 0.0
Eu81 Eu 0.60486 0.86561 0.56596 0.0
C82 C 0.64548 0.89611 0.50961 0.0
C83 C 0.65277 0.88548 0.47938 0.0
C84 C 0.65621 0.89784 0.45267 0.0
C85 C 0.65254 0.92114 0.45559 0.0
C86 C 0.64589 0.93192 0.48597 0.0
C87 C 0.64259 0.91956 0.51279 0.0
C88 C 0.59724 0.82775 0.59506 0.0
C89 C 0.56768 0.84121 0.51802 0.0
C90 C 0.51629 0.85594 0.62011 0.0
Eu91 Eu 0.55584 0.86083 0.59066 0.0
C92 C 0.50744 0.85278 0.6532 0.0
C93 C 0.49 0.83723 0.65852 0.0
C94 C 0.48214 0.83332 0.68993 0.0
C95 C 0.49166 0.84494 0.71649 0.0
C96 C 0.50885 0.86087 0.71096 0.0
C97 C 0.51667 0.86472 0.67963 0.0
C98 C 0.56676 0.89761 0.55839 0.0
C99 C 0.59349 0.87 0.64378 0.0
O100 O 0.62921 0.89283 0.5625 0.0
O101 O 0.63409 0.86175 0.53129 0.0
O102 O 0.61693 0.83731 0.59165 0.0
O103 O 0.5836 0.83681 0.57858 0.0
O104 O 0.58733 0.85217 0.51998 0.0
O105 O 0.55351 0.84003 0.54369 0.0
O106 O 0.5276 0.83918 0.60483 0.0
O107 O 0.52563 0.87549 0.61549 0.0
O108 O 0.54871 0.88563 0.55477 0.0
O109 O 0.57789 0.88995 0.57918 0.0
O110 O 0.57256 0.86459 0.63784 0.0
O111 O 0.60902 0.87334 0.62005 0.0
H112 H 0.65539 0.86751 0.47621 0.0
H113 H 0.66103 0.88897 0.42945 0.0
H114 H 0.6432 0.94986 0.48896 0.0
H115 H 0.63748 0.92839 0.53591 0.0
H116 H 0.48265 0.82789 0.63838 0.0
H117 H 0.46877 0.82108 0.6934 0.0
H118 H 0.51691 0.86973 0.73082 0.0
H119 H 0.53019 0.87679 0.67609 0.0
C120 C 0.39734 0.32407 0.81375 0.0
Eu121 Eu 0.42004 0.28873 0.8227 0.0
C122 C 0.39557 0.3392 0.78848 0.0
C123 C 0.4129 0.34074 0.76418 0.0
C124 C 0.4103 0.35388 0.73886 0.0
C125 C 0.39027 0.36557 0.73732 0.0
C126 C 0.37305 0.36418 0.76198 0.0
C127 C 0.37573 0.35109 0.78743 0.0
C128 C 0.46486 0.28484 0.82187 0.0
C129 C 0.44208 0.25344 0.76429 0.0
C130 C 0.44299 0.2054 0.85808 0.0
Eu131 Eu 0.43272 0.24322 0.83729 0.0
C132 C 0.44943 0.19584 0.88722 0.0
C133 C 0.43413 0.1815 0.90267 0.0
C134 C 0.43943 0.17203 0.93025 0.0
C135 C 0.46038 0.17636 0.94279 0.0
C136 C 0.47584 0.19063 0.92715 0.0
C137 C 0.47041 0.20033 0.89959 0.0
C138 C 0.39161 0.24621 0.81394 0.0
C139 C 0.42616 0.28141 0.89866 0.0
O140 O 0.39038 0.30345 0.80671 0.0
O141 O 0.41605 0.32506 0.82814 0.0
O142 O 0.45494 0.29657 0.80255 0.0
O143 O 0.45055 0.27619 0.84118 0.0
O144 O 0.42797 0.27054 0.77154 0.0
O145 O 0.4495 0.24252 0.78728 0.0
O146 O 0.45767 0.21788 0.84248 0.0
O147 O 0.42255 0.21307 0.85976 0.0
O148 O 0.40603 0.23091 0.80378 0.0
O149 O 0.39966 0.25945 0.83543 0.0
O150 O 0.43198 0.26061 0.88827 0.0
O151 O 0.41965 0.29528 0.87814 0.0
H152 H 0.42821 0.33138 0.76441 0.0
H153 H 0.42369 0.35425 0.71988 0.0
H154 H 0.35749 0.37303 0.76144 0.0
H155 H 0.36213 0.3499 0.80596 0.0
H156 H 0.41788 0.1777 0.8935 0.0
H157 H 0.42692 0.16154 0.94199 0.0
H158 H 0.49221 0.19414 0.93602 0.0
H159 H 0.4826 0.21124 0.88803 0.0
C160 C 0.98942 0.85541 0.84313 0.0
Eu161 Eu 0.00216 0.86415 0.90206 0.0
C162 C 0.98258 0.84923 0.80923 0.0
C163 C 0.97176 0.86447 0.79197 0.0
C164 C 0.96594 0.85848 0.76005 0.0
C165 C 0.97063 0.83695 0.74411 0.0
C166 C 0.98137 0.82175 0.76165 0.0
C167 C 0.98722 0.82775 0.79343 0.0
C168 C 0.01103 0.901 0.94218 0.0
C169 C 0.05612 0.86039 0.89845 0.0
C170 C 0.05108 0.8515 1.01528 0.0
Eu171 Eu 0.026 0.85489 0.96678 0.0
C172 C 0.05543 0.84102 0.04579 0.0
C173 C 0.06936 0.82213 0.04422 0.0
C174 C 0.07618 0.81372 0.07228 0.0
C175 C 0.06943 0.82381 0.10334 0.0
C176 C 0.05518 0.84257 0.10492 0.0
C177 C 0.04841 0.85107 0.0767 0.0
C178 C -0.00067 0.82176 0.94182 0.0
C179 C 0.9732 0.86665 0.97034 0.0
O180 O 0.00066 0.84152 0.85798 0.0
O181 O 0.98494 0.87449 0.86043 0.0
O182 O 0.99491 0.89973 0.92265 0.0
O183 O 0.02328 0.88372 0.93713 0.0
O184 O 0.03847 0.86747 0.88536 0.0
O185 O 0.05513 0.8538 0.928 0.0
O186 O 0.03593 0.86718 1.01534 0.0
O187 O 0.05283 0.83868 0.98804 0.0
O188 O 0.00352 0.82404 0.9719 0.0
O189 O 0.01159 0.83498 0.92628 0.0
O190 O 0.99214 0.86908 0.98524 0.0
O191 O 0.97273 0.86092 0.93886 0.0
H192 H 0.96783 0.88114 0.80311 0.0
H193 H 0.95747 0.87075 0.74803 0.0
H194 H 0.98574 0.80515 0.75067 0.0
H195 H 0.99559 0.81546 0.80558 0.0
H196 H 0.07566 0.81413 1.02106 0.0
H197 H 0.08747 0.79964 0.06934 0.0
H198 H 0.04921 0.85085 0.12803 0.0
H199 H 0.03801 0.86583 0.07916 0.0
C200 C 0.43958 0.65511 0.21068 0.0
Eu201 Eu 0.44832 0.69291 0.18582 0.0
C202 C 0.42969 0.64797 0.24123 0.0
C203 C 0.42395 0.62532 0.24342 0.0
C204 C 0.41336 0.6184 0.27187 0.0
C205 C 0.40846 0.6341 0.29852 0.0
C206 C 0.41408 0.65687 0.29607 0.0
C207 C 0.42454 0.66379 0.26752 0.0
C208 C 0.48323 0.7049 0.14555 0.0
C209 C 0.46919 0.73383 0.23442 0.0
C210 C 0.44762 0.77881 0.14344 0.0
Eu211 Eu 0.44646 0.7409 0.16953 0.0
C212 C 0.45184 0.78448 0.11015 0.0
C213 C 0.44671 0.8058 0.10174 0.0
C214 C 0.44976 0.81067 0.06958 0.0
C215 C 0.45775 0.79415 0.04542 0.0
C216 C 0.46278 0.7728 0.05416 0.0
C217 C 0.46012 0.76814 0.08625 0.0
C218 C 0.41277 0.72878 0.21252 0.0
C219 C 0.43838 0.69981 0.11295 0.0
O220 O 0.42562 0.66494 0.19408 0.0
O221 O 0.45924 0.66523 0.21112 0.0
O222 O 0.47539 0.68448 0.14542 0.0
O223 O 0.47389 0.71695 0.16894 0.0
O224 O 0.46098 0.71288 0.23131 0.0
O225 O 0.46767 0.7475 0.21159 0.0
O226 O 0.46479 0.77092 0.15621 0.0
O227 O 0.4291 0.76731 0.14928 0.0
O228 O 0.42271 0.74823 0.21369 0.0
O229 O 0.4202 0.71676 0.18759 0.0
O230 O 0.4428 0.72132 0.12056 0.0
O231 O 0.43685 0.68542 0.13528 0.0
H232 H 0.42759 0.613 0.22308 0.0
H233 H 0.40944 0.60073 0.27327 0.0
H234 H 0.4103 0.66932 0.31618 0.0
H235 H 0.42851 0.68144 0.26589 0.0
H236 H 0.44016 0.81857 0.11995 0.0
H237 H 0.44543 0.82719 0.06355 0.0
H238 H 0.46917 0.75975 0.03626 0.0
H239 H 0.46443 0.75169 0.09237 0.0
C240 C 0.62562 0.16154 0.42078 0.0
Eu241 Eu 0.5851 0.15358 0.40352 0.0
C242 C 0.63803 0.15226 0.44521 0.0
C243 C 0.62747 0.1366 0.46455 0.0
C244 C 0.63925 0.12709 0.48727 0.0
C245 C 0.66185 0.13304 0.491 0.0
C246 C 0.67243 0.14864 0.4713 0.0
C247 C 0.66058 0.15815 0.44848 0.0
C248 C 0.55344 0.18003 0.38425 0.0
C249 C 0.54129 0.15604 0.45247 0.0
C250 C 0.51114 0.11062 0.35179 0.0
Eu251 Eu 0.54437 0.12894 0.38178 0.0
C252 C 0.50529 0.11034 0.31833 0.0
C253 C 0.48716 0.09738 0.30733 0.0
C254 C 0.48217 0.09701 0.27506 0.0
C255 C 0.49537 0.10956 0.25352 0.0
C256 C 0.51339 0.12258 0.26495 0.0
C257 C 0.51833 0.12285 0.2969 0.0
C258 C 0.5671 0.10677 0.42294 0.0
C259 C 0.58541 0.1408 0.32664 0.0
O260 O 0.62085 0.14701 0.39694 0.0
O261 O 0.60852 0.17406 0.43167 0.0
O262 O 0.56632 0.18699 0.4069 0.0
O263 O 0.55935 0.16111 0.37193 0.0
O264 O 0.56335 0.15352 0.45057 0.0
O265 O 0.52984 0.15042 0.42679 0.0
O266 O 0.50992 0.13025 0.3686 0.0
O267 O 0.5295 0.09991 0.35565 0.0
O268 O 0.54554 0.10809 0.4238 0.0
O269 O 0.57597 0.11689 0.39977 0.0
O270 O 0.5666 0.12924 0.33348 0.0
O271 O 0.59529 0.15263 0.34999 0.0
H272 H 0.61006 0.13178 0.46211 0.0
H273 H 0.63045 0.1155 0.50245 0.0
H274 H 0.68984 0.15346 0.47351 0.0
H275 H 0.66899 0.17005 0.43341 0.0
H276 H 0.47697 0.08753 0.32358 0.0
H277 H 0.46821 0.08676 0.26691 0.0
H278 H 0.52359 0.13288 0.24931 0.0
H279 H 0.53238 0.1329 0.30475 0.0
C280 C 0.14687 0.30057 0.56392 0.0
Eu281 Eu 0.15559 0.28739 0.62009 0.0
C282 C 0.14093 0.3078 0.53189 0.0
C283 C 0.15688 0.31782 0.51078 0.0
C284 C 0.15119 0.32399 0.48056 0.0
C285 C 0.12931 0.32036 0.47021 0.0
C286 C 0.11336 0.31051 0.49165 0.0
C287 C 0.11905 0.30437 0.52178 0.0
C288 C 0.19273 0.27659 0.64829 0.0
C289 C 0.14874 0.23337 0.61795 0.0
C290 C 0.14363 0.24001 0.73726 0.0
Eu291 Eu 0.14678 0.26424 0.68749 0.0
C292 C 0.13517 0.23704 0.7716 0.0
C293 C 0.11253 0.24035 0.7829 0.0
C294 C 0.10426 0.23427 0.81357 0.0
C295 C 0.11827 0.22451 0.83409 0.0
C296 C 0.14107 0.22177 0.8229 0.0
C297 C 0.14931 0.22789 0.79228 0.0
C298 C 0.11475 0.29179 0.67236 0.0
C299 C 0.16157 0.31657 0.68744 0.0
O300 O 0.13242 0.28994 0.58245 0.0
O301 O 0.1664 0.30416 0.57594 0.0
O302 O 0.19222 0.2926 0.6291 0.0
O303 O 0.17445 0.26543 0.64879 0.0
O304 O 0.15566 0.25085 0.60247 0.0
O305 O 0.14341 0.23464 0.6495 0.0
O306 O 0.16087 0.25338 0.73092 0.0
O307 O 0.12889 0.2396 0.71556 0.0
O308 O 0.11768 0.28793 0.70173 0.0
O309 O 0.12672 0.27893 0.65294 0.0
O310 O 0.16363 0.2976 0.70133 0.0
O311 O 0.15486 0.31703 0.65789 0.0
H312 H 0.1739 0.32073 0.51746 0.0
H313 H 0.16417 0.33125 0.46502 0.0
H314 H 0.09624 0.30771 0.48537 0.0
H315 H 0.10617 0.29685 0.53722 0.0
H316 H 0.101 0.24719 0.76772 0.0
H317 H 0.08674 0.23715 0.82107 0.0
H318 H 0.15254 0.2141 0.83728 0.0
H319 H 0.16673 0.22471 0.78429 0.0
C320 C 0.94431 0.16717 0.69947 0.0
Eu321 Eu 0.93815 0.20781 0.68518 0.0
C322 C 0.93859 0.1549 0.72785 0.0
C323 C 0.95102 0.13615 0.73301 0.0
C324 C 0.94533 0.12418 0.75974 0.0
C325 C 0.92703 0.13075 0.78162 0.0
C326 C 0.91455 0.14953 0.77612 0.0
C327 C 0.92038 0.16158 0.7496 0.0
C328 C 0.96619 0.23862 0.65957 0.0
C329 C 0.93799 0.24996 0.73745 0.0
C330 C 0.90516 0.28732 0.65095 0.0
Eu331 Eu 0.91589 0.2479 0.66646 0.0
C332 C 0.90773 0.29757 0.62031 0.0
C333 C 0.90106 0.31969 0.61833 0.0
C334 C 0.90322 0.32902 0.58867 0.0
C335 C 0.91202 0.31625 0.5607 0.0
C336 C 0.91897 0.2942 0.5631 0.0
C337 C 0.91678 0.28497 0.59258 0.0
C338 C 0.88664 0.21882 0.69568 0.0
C339 C 0.92672 0.20799 0.60878 0.0
O340 O 0.92711 0.17307 0.68471 0.0
O341 O 0.95959 0.18311 0.70249 0.0
O342 O 0.97168 0.22703 0.68254 0.0
O343 O 0.9476 0.2321 0.65045 0.0
O344 O 0.93867 0.22778 0.73367 0.0
O345 O 0.93118 0.26134 0.71411 0.0
O346 O 0.92388 0.28345 0.66356 0.0
O347 O 0.89112 0.27028 0.65167 0.0
O348 O 0.88283 0.22885 0.67051 0.0
O349 O 0.90598 0.22441 0.70401 0.0
O350 O 0.92176 0.22952 0.61573 0.0
O351 O 0.93173 0.1959 0.63231 0.0
H352 H 0.96515 0.13083 0.71643 0.0
H353 H 0.95551 0.11004 0.76356 0.0
H354 H 0.9002 0.15489 0.79221 0.0
H355 H 0.91056 0.17604 0.74597 0.0
H356 H 0.89404 0.32964 0.63958 0.0
H357 H 0.89767 0.34603 0.58751 0.0
H358 H 0.92626 0.28408 0.5422 0.0
H359 H 0.9221 0.26792 0.59366 0.0
C360 C 0.64673 0.81394 0.07158 0.0
Eu361 Eu 0.64976 0.80549 0.1316 0.0
C362 C 0.64444 0.81804 0.03702 0.0
C363 C 0.65415 0.8371 1.02372 0.0
C364 C 0.65088 0.84141 0.99179 0.0
C365 C 0.63788 0.82673 0.972 0.0
C366 C 0.62836 0.80755 0.98535 0.0
C367 C 0.6315 0.80336 1.0173 0.0
C368 C 0.68545 0.79933 0.16606 0.0
C369 C 0.64194 0.75121 0.14009 0.0
C370 C 0.63244 0.7794 0.26191 0.0
Eu371 Eu 0.63722 0.78758 0.20085 0.0
C372 C 0.6211 0.76638 0.28795 0.0
C373 C 0.59774 0.76709 0.29591 0.0
C374 C 0.58795 0.75733 0.3233 0.0
C375 C 0.60119 0.74675 0.3439 0.0
C376 C 0.62448 0.74557 0.33524 0.0
C377 C 0.63422 0.75522 0.30786 0.0
C378 C 0.60287 0.79372 0.16358 0.0
C379 C 0.64613 0.84045 0.19216 0.0
O380 O 0.63775 0.79625 0.084 0.0
O381 O 0.65836 0.82681 0.09154 0.0
O382 O 0.68554 0.81306 0.14362 0.0
O383 O 0.66775 0.78736 0.16621 0.0
O384 O 0.64508 0.76799 0.12156 0.0
O385 O 0.63969 0.75385 0.17197 0.0
O386 O 0.64765 0.76972 0.24105 0.0
O387 O 0.62076 0.79416 0.24924 0.0
O388 O 0.60265 0.77872 0.1842 0.0
O389 O 0.62016 0.80579 0.16615 0.0
O390 O 0.65032 0.82345 0.20897 0.0
O391 O 0.64003 0.83713 0.16235 0.0
H392 H 0.66412 0.84887 0.0381 0.0
H393 H 0.65872 0.85623 0.98253 0.0
H394 H 0.61798 0.79595 0.97135 0.0
H395 H 0.62343 0.7887 1.02673 0.0
H396 H 0.58702 0.77567 0.28142 0.0
H397 H 0.57004 0.75873 0.32884 0.0
H398 H 0.63537 0.73722 0.34975 0.0
H399 H 0.65225 0.75448 0.30274 0.0
C400 C 0.65111 0.16116 0.9007 0.0
Eu401 Eu 0.64576 0.20209 0.92632 0.0
C402 C 0.65975 0.15156 0.86874 0.0
C403 C 0.66069 0.16467 0.84255 0.0
C404 C 0.66955 0.1559 0.8123 0.0
C405 C 0.67794 0.13391 0.80768 0.0
C406 C 0.6772 0.12091 0.83417 0.0
C407 C 0.66817 0.12971 0.86451 0.0
C408 C 0.61026 0.22518 0.9538 0.0
C409 C 0.63981 0.24404 0.88422 0.0
C410 C 0.66507 0.28762 0.9845 0.0
Eu411 Eu 0.65898 0.24735 0.95659 0.0
C412 C 0.66091 0.29661 1.01838 0.0
C413 C 0.67196 0.31623 0.03021 0.0
C414 C 0.66946 0.32357 0.06313 0.0
C415 C 0.65573 0.31145 0.08454 0.0
C416 C 0.64467 0.29186 0.0725 0.0
C417 C 0.6474 0.28442 0.03983 0.0
C418 C 0.69345 0.22326 0.92347 0.0
C419 C 0.65208 0.20734 1.00465 0.0
O420 O 0.66608 0.17209 0.91762 0.0
O421 O 0.63201 0.17173 0.90198 0.0
O422 O 0.609 0.21015 0.92937 0.0
O423 O 0.62941 0.22543 0.96456 0.0
O424 O 0.64238 0.22195 0.88293 0.0
O425 O 0.64377 0.2571 0.91081 0.0
O426 O 0.6474 0.28175 0.96895 0.0
O427 O 0.68081 0.27264 0.9794 0.0
O428 O 0.69489 0.23457 0.95114 0.0
O429 O 0.67397 0.22525 0.91486 0.0
O430 O 0.65342 0.22933 1.00262 0.0
O431 O 0.65078 0.19351 0.97808 0.0
H432 H 0.65448 0.18169 0.84548 0.0
H433 H 0.66938 0.16626 0.79239 0.0
H434 H 0.68369 0.10401 0.8315 0.0
H435 H 0.66785 0.11952 0.88468 0.0
H436 H 0.68277 0.32564 1.01411 0.0
H437 H 0.67815 0.33874 0.07183 0.0
H438 H 0.63431 0.28197 0.08852 0.0
H439 H 0.63932 0.26886 0.03153 0.0
C440 C 0.91304 0.81621 0.31028 0.0
Eu441 Eu 0.9227 0.77869 0.33234 0.0
C442 C 0.90021 0.82086 0.28326 0.0
C443 C 0.89162 0.80299 0.26351 0.0
C444 C 0.87993 0.80721 0.23717 0.0
C445 C 0.87673 0.8294 0.23013 0.0
C446 C 0.8844 0.84728 0.25094 0.0
C447 C 0.89609 0.84301 0.27737 0.0
C448 C 0.95953 0.7623 0.35447 0.0
C449 C 0.93617 0.73741 0.27531 0.0
C450 C 0.91403 0.69115 0.37163 0.0
Eu451 Eu 0.91738 0.72993 0.34779 0.0
C452 C 0.91809 0.6837 0.40304 0.0
C453 C 0.90894 0.66329 0.41225 0.0
C454 C 0.91088 0.65731 0.44347 0.0
C455 C 0.9219 0.67177 0.46585 0.0
C456 C 0.93158 0.6919 0.4561 0.0
C457 C 0.92958 0.69783 0.42503 0.0
C458 C 0.88252 0.74665 0.32005 0.0
C459 C 0.91996 0.77045 0.40798 0.0
O460 O 0.90112 0.80756 0.3338 0.0
O461 O 0.93219 0.80602 0.30265 0.0
O462 O 0.95471 0.78359 0.35812 0.0
O463 O 0.94623 0.75182 0.33639 0.0
O464 O 0.92963 0.75865 0.28229 0.0
O465 O 0.93522 0.7232 0.298 0.0
O466 O 0.93173 0.69754 0.35415 0.0
O467 O 0.89726 0.70489 0.37208 0.0
O468 O 0.89004 0.72651 0.31326 0.0
O469 O 0.89319 0.75685 0.34202 0.0
O470 O 0.92073 0.74871 0.398 0.0
O471 O 0.91839 0.78571 0.38714 0.0
H472 H 0.89439 0.78576 0.26808 0.0
H473 H 0.8741 0.79315 0.22161 0.0
H474 H 0.88243 0.86452 0.24579 0.0
H475 H 0.9024 0.85696 0.29269 0.0
H476 H 0.89982 0.6523 0.39559 0.0
H477 H 0.90315 0.64175 0.45041 0.0
H478 H 0.94053 0.70319 0.4726 0.0
H479 H 0.93659 0.71369 0.41842 0.0
C480 C 0.44721 0.61233 0.68523 0.0
Eu481 Eu 0.48465 0.63302 0.69748 0.0
C482 C 0.43715 0.60265 0.65623 0.0
C483 C 0.44753 0.60598 0.62582 0.0
C484 C 0.43732 0.59801 0.59812 0.0
C485 C 0.41657 0.58641 0.60029 0.0
C486 C 0.40657 0.58252 0.63093 0.0
C487 C 0.41682 0.59062 0.65874 0.0
C488 C 0.49583 0.67494 0.71862 0.0
C489 C 0.52172 0.6525 0.64493 0.0
C490 C 0.57249 0.65655 0.73904 0.0
Eu491 Eu 0.53566 0.64074 0.71615 0.0
C492 C 0.57886 0.66461 0.77138 0.0
C493 C 0.60096 0.6621 0.77919 0.0
C494 C 0.60648 0.6662 0.81111 0.0
C495 C 0.58998 0.67308 0.83582 0.0
C496 C 0.56798 0.67629 0.82753 0.0
C497 C 0.56246 0.6718 0.79572 0.0
C498 C 0.5296 0.59977 0.68168 0.0
C499 C 0.49683 0.63095 0.77387 0.0
O500 O 0.46495 0.60204 0.69274 0.0
O501 O 0.44955 0.63427 0.68782 0.0
O502 O 0.48076 0.67061 0.69786 0.0
O503 O 0.50289 0.65722 0.72822 0.0
O504 O 0.50246 0.64093 0.64901 0.0
O505 O 0.53549 0.65654 0.66847 0.0
O506 O 0.55866 0.669 0.72557 0.0
O507 O 0.56735 0.6351 0.73572 0.0
O508 O 0.54859 0.60662 0.69224 0.0
O509 O 0.5157 0.61477 0.69105 0.0
O510 O 0.51837 0.63455 0.7652 0.0
O511 O 0.48136 0.62935 0.75234 0.0
H512 H 0.46326 0.61526 0.62355 0.0
H513 H 0.4453 0.60178 0.57503 0.0
H514 H 0.39071 0.57351 0.63341 0.0
H515 H 0.40871 0.58785 0.68217 0.0
H516 H 0.61375 0.65606 0.7608 0.0
H517 H 0.62351 0.66315 0.8165 0.0
H518 H 0.55486 0.6819 0.84565 0.0
H519 H 0.54522 0.67314 0.79037 0.0
C520 C 0.10794 0.37864 0.04289 0.0
Eu521 Eu 0.07061 0.371 0.07641 0.0
C522 C 0.11288 0.39077 1.01424 0.0
C523 C 0.09535 0.39997 0.99951 0.0
C524 C 0.09988 0.4111 0.97176 0.0
C525 C 0.12204 0.41316 0.95831 0.0
C526 C 0.13965 0.40478 0.97401 0.0
C527 C 0.13507 0.39364 1.00181 0.0
C528 C 0.05332 0.33563 0.10598 0.0
C529 C 0.0274 0.35834 0.03217 0.0
C530 C 0.98512 0.38445 0.1415 0.0
Eu531 Eu 0.02293 0.37891 0.10629 0.0
C532 C 0.97728 0.38031 0.1746 0.0
C533 C 0.95559 0.38642 0.18698 0.0
C534 C 0.9486 0.3836 0.21912 0.0
C535 C 0.96327 0.37469 0.23928 0.0
C536 C 0.98486 0.36825 0.22647 0.0
C537 C 0.99178 0.37114 0.19449 0.0
C538 C 0.04129 0.41233 0.07234 0.0
C539 C 0.06461 0.37617 0.15426 0.0
O540 O 0.10073 0.3913 0.06867 0.0
O541 O 0.09631 0.35989 0.03871 0.0
O542 O 0.07481 0.33955 0.10138 0.0
O543 O 0.04266 0.34867 0.09076 0.0
O544 O 0.04915 0.36372 0.03274 0.0
O545 O 0.01379 0.36064 0.05889 0.0
O546 O 0.98945 0.36667 0.12149 0.0
O547 O 0.00057 0.40014 0.13899 0.0
O548 O 0.02057 0.40574 0.07194 0.0
O549 O 0.05117 0.40163 0.09159 0.0
O550 O 0.04272 0.37627 0.15085 0.0
O551 O 0.07936 0.37631 0.12883 0.0
H552 H 0.07811 0.39817 1.00915 0.0
H553 H 0.08602 0.41751 0.96027 0.0
H554 H 0.15685 0.40584 0.96392 0.0
H555 H 0.14879 0.38684 1.01318 0.0
H556 H 0.94422 0.39366 0.17195 0.0
H557 H 0.93192 0.38886 0.22838 0.0
H558 H 0.99643 0.36092 0.24113 0.0
H559 H 0.00853 0.36632 0.18538 0.0
C560 C 0.49278 0.37592 0.33141 0.0
Eu561 Eu 0.50593 0.38427 0.38996 0.0
C562 C 0.48531 0.36961 0.29797 0.0
C563 C 0.48136 0.38588 0.2768 0.0
C564 C 0.47598 0.37958 0.24477 0.0
C565 C 0.47418 0.35674 0.23267 0.0
C566 C 0.4777 0.34056 0.25434 0.0
C567 C 0.48326 0.34685 0.28616 0.0
C568 C 0.5198 0.41959 0.42855 0.0
C569 C 0.56049 0.37345 0.38765 0.0
C570 C 0.54207 0.36135 0.50875 0.0
Eu571 Eu 0.52896 0.37074 0.45293 0.0
C572 C 0.54877 0.35439 0.54054 0.0
C573 C 0.54024 0.33426 0.55221 0.0
C574 C 0.54728 0.32662 0.58068 0.0
C575 C 0.56317 0.33878 0.59892 0.0
C576 C 0.57158 0.3591 0.58734 0.0
C577 C 0.56454 0.36673 0.55868 0.0
C578 C 0.51076 0.33823 0.41305 0.0
C579 C 0.47782 0.39049 0.45745 0.0
O580 O 0.5021 0.36114 0.34718 0.0
O581 O 0.4902 0.39573 0.34773 0.0
O582 O 0.50482 0.42091 0.4076 0.0
O583 O 0.52937 0.40057 0.42428 0.0
O584 O 0.54242 0.3784 0.37338 0.0
O585 O 0.56022 0.37046 0.41873 0.0
O586 O 0.55094 0.37813 0.4936 0.0
O587 O 0.52576 0.35087 0.49419 0.0
O588 O 0.52932 0.33563 0.42628 0.0
O589 O 0.503 0.35718 0.42172 0.0
O590 O 0.49702 0.3893 0.47131 0.0
O591 O 0.47598 0.38487 0.42623 0.0
H592 H 0.48295 0.40356 0.28475 0.0
H593 H 0.47378 0.39278 0.22929 0.0
H594 H 0.47604 0.32282 0.24693 0.0
H595 H 0.48603 0.33373 0.30157 0.0
H596 H 0.52829 0.32403 0.53894 0.0
H597 H 0.54054 0.31074 0.58787 0.0
H598 H 0.58358 0.3693 0.6005 0.0
H599 H 0.57161 0.38225 0.55059 0.0
C600 C 0.12846 0.66743 0.92529 0.0
Eu601 Eu 0.08792 0.65905 0.90876 0.0
C602 C 0.14081 0.66177 0.95225 0.0
C603 C 0.13185 0.64584 0.97249 0.0
C604 C 0.14421 0.63912 0.99678 0.0
C605 C 0.16566 0.64836 1.00135 0.0
C606 C 0.17442 0.66463 0.98136 0.0
C607 C 0.16208 0.67121 0.95682 0.0
C608 C 0.05712 0.68615 0.88853 0.0
C609 C 0.04615 0.65727 0.96006 0.0
C610 C 0.00848 0.62366 0.86609 0.0
Eu611 Eu 0.04814 0.63574 0.88371 0.0
C612 C 0.99749 0.62571 0.83645 0.0
C613 C 0.97481 0.61981 0.83444 0.0
C614 C 0.96463 0.62155 0.80574 0.0
C615 C 0.97713 0.62912 0.7788 0.0
C616 C -0.00024 0.63538 0.78129 0.0
C617 C 0.00983 0.63366 0.80984 0.0
C618 C 0.07733 0.6071 0.9055 0.0
C619 C 0.08795 0.64663 0.82974 0.0
O620 O 0.12299 0.65012 0.9058 0.0
O621 O 0.11205 0.68166 0.93228 0.0
O622 O 0.06818 0.69184 0.91365 0.0
O623 O 0.06395 0.66782 0.87528 0.0
O624 O 0.06831 0.65798 0.95711 0.0
O625 O 0.03481 0.65095 0.93451 0.0
O626 O 0.01253 0.64262 0.88293 0.0
O627 O 0.02561 0.6102 0.86312 0.0
O628 O 0.06733 0.60339 0.87912 0.0
O629 O 0.07175 0.62614 0.91907 0.0
O630 O 0.06623 0.64199 0.83481 0.0
O631 O 0.10004 0.6516 0.85487 0.0
H632 H 0.11541 0.63842 0.96922 0.0
H633 H 0.13687 0.62687 1.01221 0.0
H634 H 0.19092 0.67198 0.98439 0.0
H635 H 0.16924 0.68344 0.94121 0.0
H636 H 0.96506 0.61374 0.85491 0.0
H637 H 0.94717 0.61662 0.80443 0.0
H638 H 0.00968 0.64174 0.76118 0.0
H639 H 0.02729 0.63849 0.81109 0.0
H640 H 0.01022 0.14645 0.08764 0.0
H641 H 0.02505 0.15978 0.03635 0.0
H642 H 0.08929 0.17291 0.07483 0.0
H643 H 0.07468 0.15917 0.12596 0.0
H644 H 0.04097 0.19943 1.01967 0.0
H645 H 0.10986 0.13876 0.99138 0.0
H646 H 0.08833 0.13565 1.02345 0.0
H647 H 0.11169 0.15465 0.02965 0.0
C648 C 0.02758 0.15201 0.08525 0.0
C649 C 0.0412 0.15146 0.11129 0.0
C650 C 0.03609 0.15973 0.05569 0.0
C651 C 0.05856 0.16711 0.05092 0.0
C652 C 0.07211 0.16681 0.07705 0.0
H653 H 0.13956 0.22381 0.89091 0.0
H654 H 0.12509 0.21034 0.94217 0.0
C655 C 0.06363 0.15903 0.10661 0.0
C656 C 0.06749 0.17559 1.0191 0.0
H657 H 0.10979 0.16911 0.95843 0.0
C658 C 0.05596 0.19264 1.0063 0.0
C659 C 0.08713 0.16699 1.00111 0.0
C660 C 0.09986 0.14786 1.01188 0.0
C661 C 0.06359 0.20148 0.97695 0.0
C662 C 0.08324 0.19291 0.95904 0.0
C663 C 0.0948 0.17589 0.97183 0.0
C664 C 0.09205 0.20129 0.92713 0.0
C665 C 0.05076 0.22043 0.9659 0.0
C666 C 0.07864 0.20063 0.90076 0.0
C667 C 0.08698 0.20824 0.87105 0.0
C668 C 0.10914 0.21674 0.8664 0.0
C669 C 0.12255 0.21724 0.89287 0.0
C670 C 0.1142 0.20957 0.92255 0.0
H671 H 0.04039 0.22936 0.98617 0.0
H672 H 0.06228 0.2328 0.95467 0.0
H673 H 0.03929 0.2135 0.94772 0.0
H674 H 0.06172 0.19384 0.90291 0.0
H675 H 0.07608 0.20695 0.85145 0.0
H676 H 0.15657 0.72061 0.32928 0.0
H677 H 0.14158 0.73392 0.28138 0.0
H678 H 0.12572 0.79737 0.33483 0.0
H679 H 0.14053 0.78423 0.38266 0.0
H680 H 0.0976 0.74942 0.27236 0.0
H681 H 0.16091 0.81692 0.25325 0.0
H682 H 0.16505 0.79478 0.27872 0.0
H683 H 0.14732 0.81802 0.29325 0.0
C684 C 0.15002 0.73746 0.33089 0.0
C685 C 0.14999 0.75129 0.36017 0.0
C686 C 0.14134 0.74507 0.30334 0.0
C687 C 0.13266 0.76688 0.30394 0.0
C688 C 0.1326 0.78066 0.33317 0.0
H689 H 0.07804 0.84737 0.16191 0.0
H690 H 0.09199 0.83334 0.20964 0.0
C691 C 0.14105 0.77301 0.36075 0.0
C692 C 0.12332 0.77507 0.27443 0.0
H693 H 0.12978 0.81581 0.22143 0.0
C694 C 0.10476 0.76387 0.26116 0.0
C695 C 0.13232 0.79408 0.25959 0.0
C696 C 0.15261 0.80659 0.27167 0.0
C697 C 0.09479 0.77131 0.23436 0.0
C698 C 0.10393 0.79022 0.21924 0.0
C699 C 0.12254 0.80137 0.23256 0.0
C700 C 0.09458 0.79868 0.18977 0.0
C701 C 0.07396 0.75918 0.2234 0.0
C702 C 0.09125 0.78422 0.1619 0.0
C703 C 0.08282 0.79218 0.13449 0.0
C704 C 0.0777 0.81509 0.13349 0.0
C705 C 0.08124 0.82959 0.16139 0.0
C706 C 0.08953 0.82156 0.18889 0.0
H707 H 0.06497 0.75058 0.2432 0.0
H708 H 0.0622 0.77088 0.21448 0.0
H709 H 0.07881 0.74613 0.20359 0.0
H710 H 0.09545 0.76664 0.16102 0.0
H711 H 0.08025 0.78017 0.11407 0.0
H712 H 0.47368 0.77752 0.25869 0.0
H713 H 0.49342 0.79287 0.30478 0.0
H714 H 0.5118 0.72604 0.32262 0.0
H715 H 0.4908 0.71042 0.27713 0.0
H716 H 0.50296 0.74761 0.37728 0.0
H717 H 0.5576 0.80542 0.31062 0.0
H718 H 0.52891 0.8115 0.30606 0.0
H719 H 0.54018 0.78456 0.29033 0.0
C720 C 0.48192 0.76599 0.27234 0.0
C721 C 0.4807 0.74266 0.26383 0.0
C722 C 0.49355 0.77489 0.29865 0.0
C723 C 0.50503 0.76087 0.31693 0.0
C724 C 0.50342 0.73744 0.30895 0.0
H725 H 0.59372 0.82727 0.46158 0.0
H726 H 0.58106 0.80581 0.41279 0.0
C727 C 0.49133 0.72845 0.28288 0.0
C728 C 0.51784 0.77074 0.34489 0.0
H729 H 0.55343 0.814 0.3683 0.0
C730 C 0.51414 0.76198 0.37504 0.0
C731 C 0.53319 0.78914 0.34244 0.0
C732 C 0.54041 0.79799 0.31051 0.0
C733 C 0.52414 0.77174 0.40266 0.0
C734 C 0.53777 0.7914 0.40076 0.0
C735 C 0.54257 0.79936 0.37031 0.0
C736 C 0.54601 0.80457 0.43027 0.0
C737 C 0.52006 0.76067 0.43367 0.0
C738 C 0.53068 0.81173 0.45621 0.0
C739 C 0.53788 0.82377 0.48401 0.0
C740 C 0.56068 0.82956 0.48683 0.0
C741 C 0.57606 0.82317 0.46041 0.0
C742 C 0.5688 0.8108 0.43248 0.0
H743 H 0.51611 0.74249 0.42895 0.0
H744 H 0.53487 0.76258 0.4482 0.0
H745 H 0.50543 0.76852 0.44808 0.0
H746 H 0.51293 0.80811 0.45498 0.0
H747 H 0.52536 0.82861 0.50343 0.0
H748 H 0.45151 0.21046 0.74142 0.0
H749 H 0.4663 0.19573 0.68791 0.0
H750 H 0.46533 0.26207 0.65555 0.0
H751 H 0.44931 0.27687 0.70946 0.0
H752 H 0.45461 0.2324 0.60784 0.0
H753 H 0.52976 0.19958 0.65483 0.0
H754 H 0.50494 0.18743 0.6733 0.0
H755 H 0.51017 0.21727 0.67989 0.0
C756 C 0.45435 0.22203 0.72299 0.0
C757 C 0.44942 0.24499 0.73013 0.0
C758 C 0.46307 0.21354 0.69223 0.0
C759 C 0.4679 0.22775 0.6675 0.0
C760 C 0.46214 0.25063 0.67407 0.0
H761 H 0.56046 0.18005 0.50254 0.0
H762 H 0.54242 0.1984 0.55212 0.0
C763 C 0.45291 0.25913 0.70497 0.0
C764 C 0.47905 0.21851 0.63529 0.0
H765 H 0.52231 0.18527 0.60139 0.0
C766 C 0.46953 0.22225 0.60648 0.0
C767 C 0.49889 0.20556 0.63283 0.0
C768 C 0.51166 0.20245 0.66184 0.0
C769 C 0.4788 0.21307 0.5759 0.0
C770 C 0.49784 0.19894 0.57368 0.0
C771 C 0.50758 0.19567 0.6025 0.0
C772 C 0.50855 0.18802 0.54206 0.0
C773 C 0.46835 0.21925 0.54629 0.0
C774 C 0.49592 0.17567 0.51909 0.0
C775 C 0.50632 0.16539 0.49004 0.0
C776 C 0.52978 0.16657 0.48342 0.0
C777 C 0.5424 0.17854 0.50664 0.0
C778 C 0.532 0.18914 0.53526 0.0
H779 H 0.4594 0.23546 0.55102 0.0
H780 H 0.48115 0.22063 0.52581 0.0
H781 H 0.45584 0.20612 0.53914 0.0
H782 H 0.47796 0.17365 0.52371 0.0
H783 H 0.49599 0.15624 0.47296 0.0
H784 H 0.89139 0.80948 0.17197 0.0
H785 H 0.88656 0.82236 0.11983 0.0
H786 H 0.83944 0.872 0.16385 0.0
H787 H 0.84534 0.85972 0.21707 0.0
H788 H 0.85637 0.829 0.07926 0.0
H789 H 0.88621 0.91306 0.13012 0.0
H790 H 0.88489 0.88968 0.15439 0.0
H791 H 0.85947 0.90236 0.14484 0.0
C792 C 0.87951 0.82273 0.17057 0.0
C793 C 0.86904 0.83386 0.19858 0.0
C794 C 0.87668 0.83011 0.14061 0.0
C795 C 0.8631 0.84863 0.13785 0.0
C796 C 0.85061 0.85821 0.16544 0.0
H797 H 0.93061 0.86831 0.95 0.0
H798 H 0.89516 0.87075 0.98389 0.0
C799 C 0.85387 0.85111 0.19576 0.0
C800 C 0.86556 0.8594 0.10709 0.0
H801 H 0.89686 0.90201 0.07677 0.0
C802 C 0.86458 0.84531 0.07837 0.0
C803 C 0.87557 0.88104 0.10578 0.0
C804 C 0.87669 0.89748 0.13532 0.0
C805 C 0.87724 0.85024 0.0501 0.0
C806 C 0.89019 0.87033 0.05043 0.0
C807 C 0.88735 0.88636 0.07707 0.0
C808 C 0.91095 0.87201 0.02891 0.0
C809 C 0.87895 0.83263 1.02175 0.0
C810 C 0.93157 0.87287 0.04295 0.0
C811 C 0.95169 0.87187 1.02387 0.0
C812 C 0.95173 0.8697 0.99015 0.0
C813 C 0.93111 0.86967 0.97595 0.0
C814 C 0.91084 0.87099 0.99524 0.0
H815 H 0.86863 0.81741 1.02626 0.0
H816 H 0.87316 0.83968 1.00024 0.0
H817 H 0.89667 0.8275 1.01613 0.0
H818 H 0.93213 0.87353 0.06889 0.0
H819 H 0.96719 0.87203 0.03569 0.0
H820 H 0.91398 0.14887 0.84239 0.0
H821 H 0.90667 0.1294 0.89093 0.0
H822 H 0.92092 0.06596 0.83617 0.0
H823 H 0.92769 0.08526 0.78689 0.0
H824 H 0.87542 0.0886 0.90298 0.0
H825 H 0.96724 0.07656 0.90959 0.0
H826 H 0.95717 0.09783 0.88652 0.0
H827 H 0.9544 0.06873 0.8725 0.0
C828 C 0.91507 0.13073 0.84038 0.0
C829 C 0.92147 0.11864 0.81072 0.0
C830 C 0.91094 0.11965 0.86818 0.0
C831 C 0.91327 0.09632 0.86698 0.0
C832 C 0.9191 0.08402 0.83743 0.0
H833 H 0.93385 0.05402 0.05607 0.0
H834 H 0.92635 0.04669 0.99921 0.0
C835 C 0.92313 0.0951 0.80945 0.0
C836 C 0.91137 0.08557 0.89743 0.0
H837 H 0.94382 0.07236 0.95615 0.0
C838 C 0.89027 0.08443 0.91443 0.0
C839 C 0.93075 0.07987 0.91196 0.0
C840 C 0.95375 0.08077 0.89441 0.0
C841 C 0.88824 0.0793 0.94661 0.0
C842 C 0.90788 0.0759 0.96224 0.0
C843 C 0.92875 0.07505 0.94424 0.0
C844 C 0.9079 0.07731 0.99781 0.0
C845 C 0.86516 0.07847 0.96387 0.0
C846 C 0.89956 0.09665 1.01608 0.0
C847 C 0.9038 0.10085 0.0484 0.0
C848 C 0.91673 0.08592 0.06304 0.0
C849 C 0.92399 0.0659 0.04529 0.0
C850 C 0.91962 0.06164 1.0129 0.0
H851 H 0.85262 0.07178 0.94704 0.0
H852 H 0.86471 0.06789 0.9844 0.0
H853 H 0.86007 0.09576 0.97313 0.0
H854 H 0.89114 0.10938 1.00482 0.0
H855 H 0.89831 0.1166 0.06121 0.0
H856 H 0.70296 0.15521 0.76162 0.0
H857 H 0.70904 0.14261 0.70456 0.0
H858 H 0.67945 0.07809 0.72249 0.0
H859 H 0.67181 0.09113 0.77938 0.0
H860 H 0.7291 0.10879 0.66483 0.0
H861 H 0.63589 0.10164 0.66539 0.0
H862 H 0.6496 0.11354 0.7 0.0
H863 H 0.6489 0.0836 0.69028 0.0
C864 C 0.69777 0.13831 0.75349 0.0
C865 C 0.68619 0.12447 0.77487 0.0
C866 C 0.70156 0.131 0.72091 0.0
C867 C 0.69411 0.10964 0.70916 0.0
C868 C 0.68479 0.09487 0.73098 0.0
H869 H 0.66044 0.09013 0.50925 0.0
H870 H 0.67346 0.0778 0.55876 0.0
C871 C 0.68063 0.1023 0.76357 0.0
C872 C 0.69335 0.10443 0.67394 0.0
H873 H 0.65625 0.09946 0.61566 0.0
C874 C 0.71323 0.10627 0.65399 0.0
C875 C 0.6726 0.10116 0.65984 0.0
C876 C 0.6505 0.10002 0.67987 0.0
C877 C 0.71273 0.10622 0.62045 0.0
C878 C 0.69186 0.10436 0.60671 0.0
C879 C 0.67224 0.1008 0.62634 0.0
C880 C 0.68917 0.10964 0.57337 0.0
C881 C 0.73442 0.10903 0.60017 0.0
C882 C 0.69419 0.13145 0.56484 0.0
C883 C 0.68654 0.13863 0.53685 0.0
C884 C 0.67361 0.12414 0.51699 0.0
C885 C 0.67002 0.1018 0.52439 0.0
C886 C 0.67764 0.09464 0.55245 0.0
H887 H 0.74879 0.10245 0.6116 0.0
H888 H 0.73363 0.1003 0.57563 0.0
H889 H 0.73765 0.12717 0.59783 0.0
H890 H 0.70255 0.14348 0.58103 0.0
H891 H 0.68938 0.156 0.53206 0.0
H892 H 0.6855 0.91825 0.40679 0.0
H893 H 0.6829 0.92928 0.35295 0.0
H894 H 0.62109 0.96372 0.3841 0.0
H895 H 0.62311 0.95148 0.43806 0.0
H896 H 0.61327 0.93383 0.33992 0.0
H897 H 0.68867 0.97514 0.29149 0.0
H898 H 0.69878 0.95352 0.31317 0.0
H899 H 0.68194 0.97578 0.33451 0.0
C900 C 0.67169 0.92872 0.40242 0.0
C901 C 0.65424 0.93351 0.42634 0.0
C902 C 0.67041 0.93549 0.37164 0.0
C903 C 0.65182 0.94751 0.3642 0.0
C904 C 0.63564 0.95453 0.38917 0.0
H905 H 0.62483 0.87834 0.17861 0.0
H906 H 0.62411 0.91503 0.21069 0.0
C907 C 0.63682 0.94754 0.42005 0.0
C908 C 0.64674 0.94695 0.32989 0.0
H909 H 0.6765 0.93949 0.25693 0.0
C910 C 0.62664 0.93619 0.32142 0.0
C911 C 0.66371 0.95056 0.30528 0.0
C912 C 0.68433 0.96465 0.31176 0.0
C913 C 0.62496 0.92514 0.29063 0.0
C914 C 0.64383 0.92499 0.26804 0.0
C915 C 0.66224 0.93914 0.27463 0.0
C916 C 0.64741 0.90549 0.24395 0.0
C917 C 0.60432 0.91099 0.28409 0.0
C918 C 0.66123 0.88839 0.25155 0.0
C919 C 0.66142 0.86755 0.23378 0.0
C920 C 0.64794 0.86346 0.2078 0.0
C921 C 0.6353 0.88108 0.19865 0.0
C922 C 0.63491 0.902 0.21683 0.0
H923 H 0.59066 0.91392 0.30355 0.0
H924 H 0.59795 0.91483 0.261 0.0
H925 H 0.60866 0.89291 0.28186 0.0
H926 H 0.67088 0.89072 0.27254 0.0
H927 H 0.67158 0.85439 0.24108 0.0
H928 H 0.61951 0.74621 0.4026 0.0
H929 H 0.60386 0.73035 0.45142 0.0
H930 H 0.5436 0.71116 0.40512 0.0
H931 H 0.55936 0.72648 0.35574 0.0
H932 H 0.56707 0.74037 0.49192 0.0
H933 H 0.55783 0.65245 0.43901 0.0
H934 H 0.57356 0.67342 0.41794 0.0
H935 H 0.54342 0.67266 0.41928 0.0
C936 C 0.60304 0.73834 0.40239 0.0
C937 C 0.59104 0.73743 0.37449 0.0
C938 C 0.59397 0.72938 0.43069 0.0
C939 C 0.5726 0.71901 0.43223 0.0
C940 C 0.56032 0.71849 0.40471 0.0
H941 H 0.49835 0.65092 0.58973 0.0
H942 H 0.50933 0.66735 0.53888 0.0
C943 C 0.56934 0.72757 0.37637 0.0
C944 C 0.56333 0.70915 0.46275 0.0
H945 H 0.5439 0.66032 0.4933 0.0
C946 C 0.56205 0.72284 0.4921 0.0
C947 C 0.55648 0.68628 0.46346 0.0
C948 C 0.55803 0.67025 0.43333 0.0
C949 C 0.55427 0.71449 0.52165 0.0
C950 C 0.54791 0.69149 0.52251 0.0
C951 C 0.54874 0.67789 0.49307 0.0
C952 C 0.54107 0.68116 0.55368 0.0
C953 C 0.55256 0.73067 0.55164 0.0
C954 C 0.55524 0.68282 0.57918 0.0
C955 C 0.54895 0.67349 0.60833 0.0
C956 C 0.52833 0.66186 0.61308 0.0
C957 C 0.51431 0.65974 0.58729 0.0
C958 C 0.52062 0.66918 0.55803 0.0
H959 H 0.55076 0.74824 0.5457 0.0
H960 H 0.53808 0.72639 0.56838 0.0
H961 H 0.56814 0.72993 0.56427 0.0
H962 H 0.57138 0.69127 0.57653 0.0
H963 H 0.56044 0.67543 0.62722 0.0
H964 H 0.63199 0.22313 0.82427 0.0
H965 H 0.61926 0.23954 0.77747 0.0
H966 H 0.61764 0.30486 0.83046 0.0
H967 H 0.62993 0.28844 0.87772 0.0
H968 H 0.58129 0.29926 0.79688 0.0
H969 H 0.65446 0.27447 0.71297 0.0
H970 H 0.64073 0.25085 0.72995 0.0
H971 H 0.65411 0.27204 0.7557 0.0
C972 C 0.62907 0.24104 0.82609 0.0
C973 C 0.63234 0.25436 0.85509 0.0
C974 C 0.62188 0.25051 0.79898 0.0
C975 C 0.61782 0.27371 0.79965 0.0
C976 C 0.62073 0.28699 0.82878 0.0
H977 H 0.60497 0.34352 0.62417 0.0
H978 H 0.61744 0.32907 0.67261 0.0
C979 C 0.62791 0.27753 0.85595 0.0
C980 C 0.61019 0.28398 0.77042 0.0
H981 H 0.62306 0.28832 0.68956 0.0
C982 C 0.59055 0.29688 0.77351 0.0
C983 C 0.62219 0.2814 0.73957 0.0
C984 C 0.64416 0.26915 0.73432 0.0
C985 C 0.58247 0.30672 0.74709 0.0
C986 C 0.59398 0.30339 0.71594 0.0
C987 C 0.61388 0.29086 0.713 0.0
C988 C 0.5859 0.31283 0.68632 0.0
C989 C 0.56187 0.32109 0.75324 0.0
C990 C 0.56394 0.30866 0.67697 0.0
C991 C 0.55659 0.31722 0.64925 0.0
C992 C 0.57099 0.33011 0.62938 0.0
C993 C 0.59305 0.33411 0.6387 0.0
C994 C 0.60036 0.32559 0.66651 0.0
H995 H 0.55943 0.32783 0.77894 0.0
H996 H 0.56289 0.33541 0.73804 0.0
H997 H 0.54685 0.31071 0.74753 0.0
H998 H 0.55239 0.29849 0.69092 0.0
H999 H 0.53944 0.31376 0.64361 0.0
H1000 H 0.05036 0.34426 0.97383 0.0
H1001 H 0.03521 0.32707 0.92444 0.0
H1002 H 0.9681 0.33361 0.96977 0.0
H1003 H 0.98322 0.35001 1.01951 0.0
H1004 H 0.97041 0.29478 0.93805 0.0
H1005 H 0.00792 0.35359 0.85383 0.0
H1006 H 0.02896 0.34039 0.8736 0.0
H1007 H 0.00906 0.35881 0.89685 0.0
C1008 C 0.03235 0.34223 0.97331 0.0
C1009 C 0.01813 0.34875 1.00102 0.0
C1010 C 0.0236 0.33248 0.94471 0.0
C1011 C 0.00028 0.32926 0.94251 0.0
C1012 C 0.98611 0.33581 0.97024 0.0
H1013 H 0.93793 0.29564 0.75746 0.0
H1014 H 0.95203 0.31473 0.80669 0.0
C1015 C 0.99484 0.34533 0.9989 0.0
C1016 C 0.99062 0.31839 0.9121 0.0
H1017 H 0.99162 0.31993 0.82993 0.0
C1018 C 0.97506 0.30046 0.9145 0.0
C1019 C 0.9961 0.32572 0.88095 0.0
C1020 C 0.01123 0.34583 0.87612 0.0
C1021 C 0.96531 0.28962 0.88725 0.0
C1022 C 0.9716 0.29622 0.85592 0.0
C1023 C 0.98682 0.31444 0.85354 0.0
C1024 C 0.96268 0.28447 0.82555 0.0
C1025 C 0.94781 0.27152 0.8927 0.0
C1026 C 0.96399 0.26098 0.81882 0.0
C1027 C 0.95565 0.24999 0.79081 0.0
C1028 C 0.94597 0.26205 0.76801 0.0
C1029 C 0.945 0.28562 0.77437 0.0
C1030 C 0.95322 0.29663 0.80264 0.0
H1031 H 0.93948 0.27374 0.91748 0.0
H1032 H 0.93472 0.27143 0.87525 0.0
H1033 H 0.95601 0.25491 0.88981 0.0
H1034 H 0.97179 0.251 0.83508 0.0
H1035 H 0.95714 0.23191 0.78685 0.0
H1036 H 0.94198 0.76078 0.2207 0.0
H1037 H 0.95896 0.74761 0.16697 0.0
H1038 H 0.97044 0.68304 0.20022 0.0
H1039 H 0.95323 0.69586 0.25345 0.0
H1040 H 0.00027 0.73355 0.14528 0.0
H1041 H 0.94157 0.66283 0.11906 0.0
H1042 H 0.93613 0.68379 0.15251 0.0
H1043 H 0.95443 0.66073 0.15599 0.0
C1044 C 0.94792 0.74369 0.21656 0.0
C1045 C 0.94592 0.72944 0.24178 0.0
C1046 C 0.95775 0.73615 0.18566 0.0
C1047 C 0.96578 0.71405 0.17881 0.0
C1048 C 0.96394 0.69991 0.20409 0.0
H1049 H 0.06377 0.66789 1.01871 0.0
H1050 H 0.04441 0.68163 0.07027 0.0
C1051 C 0.95413 0.70741 0.23487 0.0
C1052 C 0.97659 0.70595 0.14578 0.0
H1053 H 0.97542 0.66336 0.08476 0.0
C1054 C 0.99469 0.71824 0.13208 0.0
C1055 C 0.96936 0.68614 0.12775 0.0
C1056 C 0.94917 0.67274 0.13939 0.0
C1057 C 0.00594 0.71111 0.10182 0.0
C1058 C -0.00062 0.69072 0.08451 0.0
C1059 C 0.98089 0.67877 0.09781 0.0
C1060 C 0.01131 0.68162 0.05268 0.0
C1061 C 0.02451 0.72588 0.08847 0.0
C1062 C -0.00064 0.67593 1.02519 0.0
C1063 C 0.01047 0.66769 0.99546 0.0
C1064 C 0.03392 0.66473 0.9922 0.0
C1065 C 0.04576 0.66999 1.0199 0.0
C1066 C 0.03466 0.67814 0.04959 0.0
H1067 H 0.02276 0.74359 0.09891 0.0
H1068 H 0.04088 0.71981 0.09475 0.0
H1069 H 0.02475 0.72549 0.06183 0.0
H1070 H 0.98138 0.67821 1.02653 0.0
H1071 H 0.00065 0.66398 0.97486 0.0
H1072 H 0.43345 0.38168 0.44808 0.0
H1073 H 0.40152 0.38868 0.48816 0.0
H1074 H 0.44595 0.42267 0.55401 0.0
H1075 H 0.47739 0.41629 0.51422 0.0
H1076 H 0.40044 0.36927 0.54151 0.0
H1077 H 0.39148 0.45915 0.57802 0.0
H1078 H 0.40582 0.44901 0.5399 0.0
H1079 H 0.42074 0.45298 0.576 0.0
C1080 C 0.43617 0.39129 0.47074 0.0
C1081 C 0.45792 0.39801 0.47838 0.0
C1082 C 0.41793 0.39536 0.49355 0.0
C1083 C 0.42123 0.40642 0.52403 0.0
C1084 C 0.44274 0.41463 0.53049 0.0
H1085 H 0.42017 0.39345 0.70761 0.0
H1086 H 0.41799 0.40734 0.6549 0.0
C1087 C 0.46086 0.41055 0.50788 0.0
C1088 C 0.40409 0.4051 0.55142 0.0
H1089 H 0.38842 0.43417 0.62345 0.0
C1090 C 0.39688 0.38359 0.55894 0.0
C1091 C 0.39917 0.42378 0.57401 0.0
C1092 C 0.40455 0.44752 0.56627 0.0
C1093 C 0.38797 0.37983 0.59003 0.0
C1094 C 0.3859 0.3982 0.61392 0.0
C1095 C 0.39033 0.42007 0.6052 0.0
C1096 C 0.38439 0.3944 0.64848 0.0
C1097 C 0.38333 0.35593 0.59793 0.0
C1098 C 0.36582 0.3834 0.66293 0.0
C1099 C 0.36716 0.37513 0.69296 0.0
C1100 C 0.38707 0.3779 0.70889 0.0
C1101 C 0.40482 0.39067 0.69557 0.0
C1102 C 0.40348 0.39883 0.66563 0.0
H1103 H 0.38754 0.34349 0.57702 0.0
H1104 H 0.39317 0.35202 0.61813 0.0
H1105 H 0.36527 0.35385 0.60558 0.0
H1106 H 0.35084 0.38005 0.65019 0.0
H1107 H 0.35319 0.36537 0.70267 0.0
H1108 H 0.43482 0.57 0.54101 0.0
H1109 H 0.41786 0.57059 0.49014 0.0
H1110 H 0.35414 0.58785 0.54122 0.0
H1111 H 0.37152 0.58915 0.59238 0.0
H1112 H 0.38434 0.5533 0.45714 0.0
H1113 H 0.36721 0.64345 0.49681 0.0
H1114 H 0.38266 0.62634 0.52036 0.0
H1115 H 0.35272 0.62288 0.51967 0.0
C1116 C 0.41715 0.57378 0.5415 0.0
C1117 C 0.40477 0.58041 0.57067 0.0
C1118 C 0.40736 0.57382 0.51236 0.0
C1119 C 0.38491 0.58007 0.51184 0.0
C1120 C 0.3717 0.58374 0.54106 0.0
H1121 H 0.37284 0.60525 0.30844 0.0
H1122 H 0.35883 0.59091 0.35963 0.0
C1123 C 0.38163 0.58419 0.57033 0.0
C1124 C 0.37705 0.58605 0.48101 0.0
H1125 H 0.36773 0.6324 0.44225 0.0
C1126 C 0.38012 0.57045 0.45384 0.0
C1127 C 0.37142 0.60848 0.47688 0.0
C1128 C 0.3684 0.62634 0.50485 0.0
C1129 C 0.38029 0.5772 0.42254 0.0
C1130 C 0.37652 0.60002 0.41853 0.0
C1131 C 0.37079 0.61497 0.44561 0.0
C1132 C 0.38299 0.6097 0.38776 0.0
C1133 C 0.38662 0.56039 0.39424 0.0
C1134 C 0.40062 0.62557 0.38692 0.0
C1135 C 0.40839 0.63394 0.35805 0.0
C1136 C 0.39876 0.62649 0.32935 0.0
C1137 C 0.3807 0.61103 0.33025 0.0
C1138 C 0.37273 0.60281 0.35936 0.0
H1139 H 0.39167 0.54404 0.40192 0.0
H1140 H 0.37206 0.55729 0.37944 0.0
H1141 H 0.40069 0.56705 0.37875 0.0
H1142 H 0.40885 0.63104 0.40855 0.0
H1143 H 0.42248 0.64564 0.358 0.0
H1144 H 0.20738 0.59581 0.27981 0.0
H1145 H 0.2104 0.58835 0.22101 0.0
H1146 H 0.22735 0.65807 0.21178 0.0
H1147 H 0.2243 0.66564 0.27002 0.0
H1148 H 0.18189 0.60828 0.18655 0.0
H1149 H 0.26813 0.62812 0.1398 0.0
H1150 H 0.26127 0.62259 0.18125 0.0
H1151 H 0.25755 0.65019 0.16857 0.0
C1152 C 0.21225 0.60941 0.2652 0.0
C1153 C 0.21545 0.63134 0.27957 0.0
C1154 C 0.21414 0.60509 0.23166 0.0
C1155 C 0.21938 0.62259 0.21202 0.0
C1156 C 0.22394 0.64416 0.22639 0.0
H1157 H 0.1877 0.6754 0.04505 0.0
H1158 H 0.20442 0.66438 0.09271 0.0
C1159 C 0.22208 0.64849 0.25982 0.0
C1160 C 0.21601 0.6196 0.17719 0.0
H1161 H 0.23857 0.63399 0.10424 0.0
C1162 C 0.19448 0.61323 0.16831 0.0
C1163 C 0.23243 0.62617 0.15353 0.0
C1164 C 0.2562 0.63192 0.16127 0.0
C1165 C 0.18833 0.61506 0.13702 0.0
C1166 C 0.20435 0.62303 0.11386 0.0
C1167 C 0.22632 0.62798 0.12213 0.0
C1168 C 0.1977 0.62884 0.08238 0.0
C1169 C 0.16428 0.61004 0.12973 0.0
C1170 C 0.18912 0.6124 0.06032 0.0
C1171 C 0.1794 0.61867 0.03325 0.0
C1172 C 0.17838 0.64146 1.02768 0.0
C1173 C 0.18833 0.65773 0.04871 0.0
C1174 C 0.19788 0.65146 0.07589 0.0
H1175 H 0.1532 0.60782 0.15186 0.0
H1176 H 0.15753 0.62376 0.11728 0.0
H1177 H 0.16354 0.59429 0.11356 0.0
H1178 H 0.18919 0.59482 0.06468 0.0
H1179 H 0.1722 0.60577 1.01705 0.0
H1180 H 0.15819 0.35948 0.66971 0.0
H1181 H 0.16053 0.39466 0.70442 0.0
H1182 H 0.17502 0.35709 0.78356 0.0
H1183 H 0.1736 0.3224 0.74916 0.0
H1184 H 0.13391 0.40744 0.7529 0.0
H1185 H 0.21606 0.40832 0.80077 0.0
H1186 H 0.21024 0.39054 0.76494 0.0
H1187 H 0.20524 0.38051 0.80445 0.0
C1188 C 0.16246 0.35882 0.69431 0.0
C1189 C 0.16559 0.33809 0.70671 0.0
C1190 C 0.16384 0.37896 0.71408 0.0
C1191 C 0.16844 0.37868 0.74649 0.0
C1192 C 0.1723 0.35799 0.7584 0.0
H1193 H 0.0998 0.4003 0.90568 0.0
H1194 H 0.11212 0.40466 0.8502 0.0
C1195 C 0.17112 0.338 0.73872 0.0
C1196 C 0.16569 0.39898 0.76962 0.0
H1197 H 0.18364 0.41726 0.84275 0.0
C1198 C 0.1452 0.4103 0.772 0.0
C1199 C 0.18076 0.40402 0.7938 0.0
C1200 C 0.20441 0.39535 0.79049 0.0
C1201 C 0.13785 0.42322 0.80046 0.0
C1202 C 0.15087 0.42384 0.8274 0.0
C1203 C 0.17301 0.41604 0.82277 0.0
C1204 C 0.14038 0.42675 0.86095 0.0
C1205 C 0.11548 0.43461 0.80208 0.0
C1206 C 0.1519 0.43779 0.88607 0.0
C1207 C 0.14509 0.43474 0.91823 0.0
C1208 C 0.12653 0.42082 0.9257 0.0
C1209 C 0.11395 0.41141 0.90074 0.0
C1210 C 0.12093 0.41413 0.86878 0.0
H1211 H 0.11386 0.44288 0.77964 0.0
H1212 H 0.10178 0.42184 0.80363 0.0
H1213 H 0.11327 0.4474 0.82305 0.0
H1214 H 0.16698 0.44756 0.88077 0.0
H1215 H 0.15497 0.44232 0.93712 0.0
H1216 H 0.0093 0.33233 0.1272 0.0
H1217 H 0.99395 0.32035 0.17871 0.0
H1218 H 0.06006 0.29901 0.19707 0.0
H1219 H 0.07556 0.31404 0.14802 0.0
H1220 H 0.98687 0.28617 0.19826 0.0
H1221 H 0.04417 0.31884 0.28541 0.0
H1222 H 0.04452 0.33002 0.2467 0.0
H1223 H 0.06292 0.30737 0.25299 0.0
C1224 C 0.02053 0.32582 0.14292 0.0
C1225 C 0.04359 0.32477 0.13416 0.0
C1226 C 0.0118 0.31879 0.17235 0.0
C1227 C 0.02587 0.30957 0.193 0.0
C1228 C 0.04886 0.30739 0.18312 0.0
H1229 H 0.04369 0.20204 0.20404 0.0
H1230 H 0.04338 0.24167 0.22395 0.0
C1231 C 0.05768 0.31531 0.15437 0.0
C1232 C 0.0163 0.29855 0.22166 0.0
H1233 H 0.03677 0.27538 0.28455 0.0
C1234 C 0.99714 0.28482 0.21821 0.0
C1235 C 0.02843 0.29727 0.24926 0.0
C1236 C 0.04595 0.3145 0.25892 0.0
C1237 C 0.99298 0.26685 0.23707 0.0
C1238 C 0.00905 0.26203 0.25845 0.0
C1239 C 0.02509 0.2785 0.26692 0.0
C1240 C 0.0151 0.23836 0.2591 0.0
C1241 C 0.97382 0.25085 0.22961 0.0
C1242 C 0.00046 0.22319 0.27407 0.0
C1243 C 0.00075 0.20047 0.26263 0.0
C1244 C 0.01566 0.19306 0.23635 0.0
C1245 C 0.03208 0.20764 0.22427 0.0
C1246 C 0.03201 0.23018 0.23594 0.0
H1247 H 0.96137 0.25849 0.21565 0.0
H1248 H 0.98042 0.23552 0.21523 0.0
H1249 H 0.96509 0.24575 0.25227 0.0
H1250 H 0.98733 0.22923 0.29192 0.0
H1251 H 0.98799 0.18919 0.27217 0.0
H1252 H 0.96798 0.71799 0.35308 0.0
H1253 H 0.98243 0.69846 0.39549 0.0
H1254 H 0.99745 0.76262 0.44654 0.0
H1255 H 0.97956 0.78172 0.40668 0.0
H1256 H 0.01801 0.69393 0.41018 0.0
H1257 H 0.98171 0.73374 0.5234 0.0
H1258 H 0.9694 0.73762 0.48624 0.0
H1259 H 0.99046 0.75714 0.50164 0.0
C1260 C 0.97358 0.72775 0.3741 0.0
C1261 C 0.97201 0.7512 0.37722 0.0
C1262 C 0.98209 0.71664 0.39824 0.0
C1263 C 0.99038 0.72886 0.42527 0.0
C1264 C 0.98991 0.75251 0.42733 0.0
H1265 H 0.10062 0.75268 0.45334 0.0
H1266 H 0.06056 0.74814 0.4683 0.0
C1267 C 0.98039 0.76355 0.40389 0.0
C1268 C 0.00315 0.71742 0.44798 0.0
H1269 H 0.02532 0.731 0.51989 0.0
C1270 C 0.01869 0.70113 0.43484 0.0
C1271 C 0.00378 0.72556 0.48083 0.0
C1272 C 0.98513 0.73922 0.49878 0.0
C1273 C 0.03725 0.69649 0.45124 0.0
C1274 C 0.04068 0.70921 0.48073 0.0
C1275 C 0.02307 0.72199 0.4966 0.0
C1276 C 0.06381 0.71587 0.48716 0.0
C1277 C 0.05489 0.68091 0.43432 0.0
C1278 C 0.07891 0.70005 0.49515 0.0
C1279 C 0.10177 0.70262 0.48633 0.0
C1280 C 0.10943 0.72109 0.46989 0.0
C1281 C 0.0948 0.7383 0.46585 0.0
C1282 C 0.07203 0.7358 0.47479 0.0
H1283 H 0.04867 0.67092 0.41298 0.0
H1284 H 0.06982 0.69082 0.42611 0.0
H1285 H 0.06024 0.66909 0.45112 0.0
H1286 H 0.07283 0.6846 0.50464 0.0
H1287 H 0.11311 0.6893 0.48977 0.0
H1288 H 0.49515 0.71235 0.68683 0.0
H1289 H 0.51588 0.74732 0.69909 0.0
H1290 H 0.53615 0.72278 0.78625 0.0
H1291 H 0.51444 0.68795 0.7744 0.0
H1292 H 0.52087 0.78159 0.75718 0.0
H1293 H 0.59429 0.7262 0.72226 0.0
H1294 H 0.56691 0.71525 0.71351 0.0
H1295 H 0.57379 0.72054 0.75462 0.0
C1296 C 0.50345 0.71473 0.70906 0.0
C1297 C 0.5042 0.69734 0.72909 0.0
C1298 C 0.51516 0.73469 0.71618 0.0
C1299 C 0.52774 0.7374 0.74336 0.0
C1300 C 0.52671 0.72086 0.76506 0.0
H1301 H 0.6234 0.81903 0.64267 0.0
H1302 H 0.6114 0.80345 0.69346 0.0
C1303 C 0.51477 0.70093 0.758 0.0
C1304 C 0.54492 0.75533 0.7443 0.0
H1305 H 0.59473 0.76145 0.70072 0.0
C1306 C 0.53757 0.77755 0.74642 0.0
C1307 C 0.56697 0.75018 0.73132 0.0
C1308 C 0.57615 0.72679 0.73037 0.0
C1309 C 0.55005 0.79368 0.7302 0.0
C1310 C 0.56973 0.78703 0.71115 0.0
C1311 C 0.57918 0.76623 0.71455 0.0
C1312 C 0.57693 0.79822 0.68202 0.0
C1313 C 0.5407 0.81681 0.73016 0.0
C1314 C 0.56167 0.79958 0.65833 0.0
C1315 C 0.56849 0.80821 0.62923 0.0
C1316 C 0.59065 0.8156 0.62339 0.0
C1317 C 0.60613 0.81347 0.64662 0.0
C1318 C 0.5993 0.80486 0.67578 0.0
H1319 H 0.53201 0.82228 0.75398 0.0
H1320 H 0.55404 0.82927 0.72421 0.0
H1321 H 0.52829 0.81632 0.71176 0.0
H1322 H 0.54452 0.79359 0.66213 0.0
H1323 H 0.55646 0.80919 0.61142 0.0
H1324 H 0.61355 0.26394 0.99319 0.0
H1325 H 0.59001 0.29705 0.99233 0.0
H1326 H 0.54304 0.25618 0.93843 0.0
H1327 H 0.56752 0.22407 0.93666 0.0
H1328 H 0.58485 0.30415 0.92219 0.0
H1329 H 0.51287 0.278 0.98424 0.0
H1330 H 0.50398 0.30635 0.99529 0.0
H1331 H 0.52959 0.29653 1.00955 0.0
C1332 C 0.5981 0.26216 0.98155 0.0
C1333 C 0.59293 0.24205 0.96342 0.0
C1334 C 0.58445 0.28088 0.98169 0.0
C1335 C 0.56486 0.27903 0.96526 0.0
C1336 C 0.55803 0.2579 0.95152 0.0
H1337 H 0.49718 0.25883 0.83935 0.0
H1338 H 0.52624 0.27136 0.8753 0.0
C1339 C 0.57212 0.23959 0.9502 0.0
C1340 C 0.55514 0.2988 0.95342 0.0
H1341 H 0.50209 0.30969 0.93649 0.0
C1342 C 0.5669 0.30675 0.92621 0.0
C1343 C 0.53192 0.3026 0.95902 0.0
C1344 C 0.5189 0.29561 0.98888 0.0
C1345 C 0.55524 0.31325 0.90088 0.0
C1346 C 0.53163 0.31263 0.90398 0.0
C1347 C 0.5203 0.30971 0.93406 0.0
C1348 C 0.51901 0.30672 0.87558 0.0
C1349 C 0.56798 0.31693 0.86923 0.0
C1350 C 0.50637 0.32264 0.86271 0.0
C1351 C 0.49027 0.3155 0.84134 0.0
C1352 C 0.48639 0.2924 0.83357 0.0
C1353 C 0.50022 0.27668 0.84464 0.0
C1354 C 0.51665 0.28384 0.86523 0.0
H1355 H 0.58516 0.32361 0.87292 0.0
H1356 H 0.56954 0.30057 0.85442 0.0
H1357 H 0.55902 0.32866 0.85572 0.0
H1358 H 0.50789 0.34031 0.8708 0.0
H1359 H 0.4794 0.32787 0.83353 0.0
H1360 H 0.98781 0.78101 0.96037 0.0
H1361 H 0.96396 0.75313 0.93421 0.0
H1362 H 0.94546 0.80127 0.86997 0.0
H1363 H 0.97041 0.82883 0.89574 0.0
H1364 H 0.92598 0.7382 0.91191 0.0
H1365 H 0.96789 0.76147 0.79854 0.0
H1366 H 0.97652 0.78068 0.83091 0.0
H1367 H 0.94731 0.77889 0.82222 0.0
C1368 C 0.97855 0.78563 0.94075 0.0
C1369 C 0.98206 0.80651 0.92865 0.0
C1370 C 0.96454 0.76973 0.92581 0.0
C1371 C 0.95348 0.77447 0.89856 0.0
C1372 C 0.95464 0.79654 0.88952 0.0
H1373 H 0.0365 0.67904 0.83328 0.0
H1374 H -0.00155 0.68956 0.82354 0.0
C1375 C 0.96916 0.8123 0.90407 0.0
C1376 C 0.94601 0.75528 0.87629 0.0
H1377 H 0.9852 0.73074 0.82231 0.0
C1378 C 0.93807 0.73615 0.89115 0.0
C1379 C 0.95892 0.75138 0.84645 0.0
C1380 C 0.96278 0.76913 0.82321 0.0
C1381 C 0.9509 0.71653 0.88644 0.0
C1382 C 0.97003 0.71614 0.8643 0.0
C1383 C 0.97175 0.73188 0.84134 0.0
C1384 C 0.99112 0.70586 0.87149 0.0
C1385 C 0.9461 0.69811 0.90835 0.0
C1386 C -0.00016 0.71196 0.9015 0.0
C1387 C 0.02166 0.70631 0.90695 0.0
C1388 C 0.0351 0.69451 0.88244 0.0
C1389 C 0.02639 0.6883 0.85252 0.0
C1390 C 0.0046 0.69398 0.84704 0.0
H1391 H 0.92771 0.69518 0.91218 0.0
H1392 H 0.95429 0.6822 0.89835 0.0
H1393 H 0.9524 0.70332 0.93224 0.0
H1394 H 0.99008 0.72184 0.92042 0.0
H1395 H 0.0279 0.71095 0.93034 0.0
H1396 H 0.6016 0.82187 0.11533 0.0
H1397 H 0.58682 0.81254 0.06224 0.0
H1398 H 0.56291 0.74867 0.09316 0.0
H1399 H 0.57738 0.75789 0.14504 0.0
H1400 H 0.58461 0.74438 0.02868 0.0
H1401 H 0.52294 0.81192 0.03575 0.0
H1402 H 0.55284 0.81713 0.03614 0.0
H1403 H 0.53655 0.81114 0.07254 0.0
C1404 C 0.59297 0.80594 0.11056 0.0
C1405 C 0.59105 0.79033 0.13389 0.0
C1406 C 0.58471 0.80058 0.0802 0.0
C1407 C 0.57427 0.77965 0.07315 0.0
C1408 C 0.57147 0.76469 0.09735 0.0
H1409 H 0.50358 0.74542 0.14411 0.0
H1410 H 0.52096 0.7624 0.09784 0.0
C1411 C 0.57956 0.77004 0.12733 0.0
C1412 C 0.56404 0.77327 0.04232 0.0
H1413 H 0.50793 0.77406 0.03855 0.0
C1414 C 0.56789 0.75106 0.02919 0.0
C1415 C 0.54292 0.78238 0.03863 0.0
C1416 C 0.53854 0.80707 0.04602 0.0
C1417 C 0.54963 0.73596 1.02708 0.0
C1418 C 0.52791 0.74432 0.03641 0.0
C1419 C 0.52471 0.76743 0.03481 0.0
C1420 C 0.51463 0.73403 0.06303 0.0
C1421 C 0.5541 0.71115 1.02199 0.0
C1422 C 0.50541 0.71223 0.0595 0.0
C1423 C 0.4959 0.70225 0.08657 0.0
C1424 C 0.49504 0.71415 0.11733 0.0
C1425 C 0.504 0.73592 0.12071 0.0
C1426 C 0.51371 0.7457 0.094 0.0
H1427 H 0.57093 0.70775 1.00949 0.0
H1428 H 0.55346 0.70404 0.04568 0.0
H1429 H 0.54124 0.70244 1.00743 0.0
H1430 H 0.50569 0.70287 0.03604 0.0
H1431 H 0.48885 0.68544 0.08334 0.0
H1432 H 0.53532 0.22008 0.40973 0.0
H1433 H 0.5029 0.23838 0.39159 0.0
H1434 H 0.49406 0.18254 0.32026 0.0
H1435 H 0.52702 0.16497 0.33732 0.0
H1436 H 0.45639 0.2248 0.38454 0.0
H1437 H 0.50139 0.23492 0.26488 0.0
H1438 H 0.49552 0.20765 0.27898 0.0
H1439 H 0.51739 0.22515 0.29551 0.0
C1440 C 0.52643 0.21179 0.39025 0.0
C1441 C 0.53369 0.19123 0.37473 0.0
C1442 C 0.50778 0.22203 0.38011 0.0
C1443 C 0.49606 0.21175 0.35451 0.0
C1444 C 0.50286 0.19083 0.33982 0.0
H1445 H 0.52841 0.29955 0.38403 0.0
H1446 H 0.50936 0.27053 0.35133 0.0
C1447 C 0.52167 0.1808 0.34967 0.0
C1448 C 0.47868 0.22469 0.34147 0.0
H1449 H 0.48371 0.2669 0.2924 0.0
C1450 C 0.46147 0.23351 0.36344 0.0
C1451 C 0.48388 0.23517 0.31272 0.0
C1452 C 0.50043 0.22525 0.28642 0.0
C1453 C 0.45443 0.25555 0.36202 0.0
C1454 C 0.46587 0.26852 0.33916 0.0
C1455 C 0.47651 0.25717 0.31142 0.0
C1456 C 0.47804 0.28856 0.35249 0.0
C1457 C 0.43923 0.26625 0.38933 0.0
C1458 C 0.46697 0.30849 0.3637 0.0
C1459 C 0.4779 0.32498 0.38291 0.0
C1460 C 0.49999 0.32172 0.3909 0.0
C1461 C 0.51137 0.30234 0.37835 0.0
C1462 C 0.50052 0.28593 0.35928 0.0
H1463 H 0.42802 0.25354 0.40038 0.0
H1464 H 0.44953 0.27437 0.40826 0.0
H1465 H 0.42882 0.27929 0.38071 0.0
H1466 H 0.44969 0.31084 0.35884 0.0
H1467 H 0.46884 0.33998 0.39228 0.0
H1468 H 0.07431 0.3021 0.70176 0.0
H1469 H 0.04589 0.32462 0.68267 0.0
H1470 H 0.09298 0.3441 0.60585 0.0
H1471 H 0.12117 0.32047 0.62461 0.0
H1472 H 0.03323 0.3645 0.66511 0.0
H1473 H 0.05109 0.31509 0.54821 0.0
H1474 H 0.06963 0.30829 0.57755 0.0
H1475 H 0.07012 0.33622 0.56428 0.0
C1476 C 0.07862 0.31138 0.68101 0.0
C1477 C 0.09937 0.30856 0.66348 0.0
C1478 C 0.06245 0.3246 0.67017 0.0
C1479 C 0.06686 0.33562 0.64182 0.0
C1480 C 0.0887 0.33508 0.62681 0.0
H1481 H 0.96011 0.25935 0.60626 0.0
H1482 H 0.97482 0.29608 0.59257 0.0
C1483 C 0.10476 0.32133 0.6373 0.0
C1484 C 0.04738 0.34254 0.62519 0.0
H1485 H 0.01786 0.30435 0.57993 0.0
C1486 C 0.02954 0.35228 0.64532 0.0
C1487 C 0.04187 0.32883 0.59734 0.0
C1488 C 0.05914 0.32177 0.57028 0.0
C1489 C 0.00843 0.34152 0.64618 0.0
C1490 C 0.00545 0.32215 0.62484 0.0
C1491 C 0.02078 0.31817 0.59789 0.0
C1492 C 0.99261 0.30249 0.63568 0.0
C1493 C 0.99092 0.34862 0.67283 0.0
C1494 C -0.00197 0.29371 0.66421 0.0
C1495 C 0.98992 0.27264 0.67184 0.0
C1496 C 0.97628 0.26005 0.65102 0.0
C1497 C 0.97062 0.26889 0.62271 0.0
C1498 C 0.97876 0.28992 0.61503 0.0
H1499 H 0.99046 0.36723 0.67689 0.0
H1500 H 0.97401 0.34204 0.66724 0.0
H1501 H 0.99537 0.34218 0.69556 0.0
H1502 H 0.00936 0.30271 0.67998 0.0
H1503 H 0.99427 0.26627 0.69396 0.0
H1504 H 0.01818 0.08698 0.12123 0.0
H1505 H 0.01646 0.05404 0.08266 0.0
H1506 H 0.00848 0.01145 0.16086 0.0
H1507 H 0.01183 0.04461 0.1997 0.0
H1508 H 0.03461 0.9917 0.11748 0.0
H1509 H 0.96492 0.01953 0.05284 0.0
H1510 H 0.98735 0.03973 0.05078 0.0
H1511 H 0.97317 0.03479 0.08931 0.0
C1512 C 0.01586 0.07062 0.1303 0.0
C1513 C 0.01494 0.06842 0.16359 0.0
C1514 C 0.01466 0.0517 0.10811 0.0
C1515 C 0.01165 0.03007 0.11855 0.0
C1516 C 0.01065 0.02786 0.15195 0.0
H1517 H 0.97558 0.92153 0.97614 0.0
H1518 H 0.97575 0.95067 1.02099 0.0
C1519 C 0.01245 0.04683 0.17421 0.0
C1520 C 0.01051 0.00984 0.09456 0.0
H1521 H 0.98771 0.99023 1.02468 0.0
C1522 C 0.0241 0.99129 0.09743 0.0
C1523 C 0.9965 0.00881 0.06856 0.0
C1524 C 0.9795 0.02668 0.06544 0.0
C1525 C 0.02445 0.97218 0.07492 0.0
C1526 C 0.01173 0.97191 0.04759 0.0
C1527 C -0.00218 0.9903 0.04513 0.0
C1528 C 0.01197 0.95271 1.02163 0.0
C1529 C 0.03801 0.95231 0.08144 0.0
C1530 C 0.03221 0.94355 1.00685 0.0
C1531 C 0.03204 0.92614 0.9818 0.0
C1532 C 0.0117 0.91822 0.97005 0.0
C1533 C 0.99155 0.92743 0.98453 0.0
C1534 C 0.99166 0.9442 1.01021 0.0
H1535 H 0.03979 0.95192 0.10765 0.0
H1536 H 0.03021 0.93618 0.07234 0.0
H1537 H 0.05513 0.95369 0.06941 0.0
H1538 H 0.0482 0.95014 1.01412 0.0
H1539 H 0.04782 0.91947 0.97083 0.0
H1540 H 0.23882 0.70261 0.42164 0.0
H1541 H 0.27275 0.6937 0.3859 0.0
H1542 H 0.26237 0.75195 0.33551 0.0
H1543 H 0.22836 0.76051 0.37045 0.0
H1544 H 0.27442 0.71534 0.29371 0.0
H1545 H 0.33271 0.72667 0.39147 0.0
H1546 H 0.31073 0.70609 0.39676 0.0
H1547 H 0.30382 0.73524 0.39745 0.0
C1548 C 0.24376 0.71341 0.40282 0.0
C1549 C 0.23093 0.73228 0.39893 0.0
C1550 C 0.26325 0.70841 0.38252 0.0
C1551 C 0.2704 0.72232 0.35817 0.0
C1552 C 0.25732 0.74094 0.35405 0.0
H1553 H 0.39555 0.75543 0.26395 0.0
H1554 H 0.36148 0.7499 0.29835 0.0
C1555 C 0.23789 0.74588 0.37419 0.0
C1556 C 0.29165 0.7181 0.33725 0.0
H1557 H 0.34879 0.7179 0.33883 0.0
C1558 C 0.29068 0.71564 0.30358 0.0
C1559 C 0.31293 0.71859 0.35005 0.0
C1560 C 0.31527 0.72196 0.38587 0.0
C1561 C 0.3103 0.71445 0.28247 0.0
C1562 C 0.33159 0.71538 0.29528 0.0
C1563 C 0.33252 0.71703 0.32894 0.0
C1564 C 0.35298 0.71752 0.27456 0.0
C1565 C 0.30806 0.71339 0.24665 0.0
C1566 C 0.36 0.70096 0.24979 0.0
C1567 C 0.37966 0.70417 0.22973 0.0
C1568 C 0.39264 0.72396 0.2342 0.0
C1569 C 0.38589 0.74007 0.25961 0.0
C1570 C 0.36639 0.73689 0.27946 0.0
H1571 H 0.29072 0.71699 0.24099 0.0
H1572 H 0.31977 0.72556 0.23533 0.0
H1573 H 0.31239 0.6963 0.23556 0.0
H1574 H 0.35024 0.68563 0.24586 0.0
H1575 H 0.38451 0.69136 0.21056 0.0
H1576 H 0.5639 0.10044 0.48604 0.0
H1577 H 0.57127 0.06582 0.51007 0.0
H1578 H 0.59771 0.03602 0.41717 0.0
H1579 H 0.59134 0.07123 0.39355 0.0
H1580 H 0.54965 0.02909 0.49552 0.0
H1581 H 0.63991 0.00978 0.4725 0.0
H1582 H 0.629 0.03707 0.4675 0.0
H1583 H 0.6271 0.01436 0.43632 0.0
C1584 C 0.57221 0.08681 0.47111 0.0
C1585 C 0.57735 0.08856 0.43811 0.0
C1586 C 0.57625 0.06693 0.48477 0.0
C1587 C 0.58508 0.04812 0.46558 0.0
C1588 C 0.59138 0.05031 0.4328 0.0
H1589 H 0.54693 0.91244 0.50813 0.0
H1590 H 0.5532 0.94821 0.48454 0.0
C1591 C 0.58775 0.07046 0.41924 0.0
C1592 C 0.58459 0.02572 0.47897 0.0
H1593 H 0.6156 0.97948 0.48771 0.0
C1594 C 0.5642 0.0184 0.49397 0.0
C1595 C 0.60349 0.01159 0.47717 0.0
C1596 C 0.62616 0.01869 0.46278 0.0
C1597 C 0.56209 0.99751 0.50685 0.0
C1598 C 0.5807 0.98302 0.50395 0.0
C1599 C 0.60124 0.9904 0.48951 0.0
C1600 C 0.57889 0.96022 0.51587 0.0
C1601 C 0.53993 0.99136 0.52394 0.0
C1602 C 0.59197 0.9545 0.54036 0.0
C1603 C 0.58852 0.93388 0.55373 0.0
C1604 C 0.57197 0.91862 0.54279 0.0
C1605 C 0.55961 0.92397 0.51736 0.0
C1606 C 0.56314 0.94446 0.5039 0.0
H1607 H 0.52979 0.00647 0.53215 0.0
H1608 H 0.53011 0.98043 0.50709 0.0
H1609 H 0.54245 0.98209 0.54518 0.0
H1610 H 0.60434 0.96629 0.54985 0.0
H1611 H 0.59835 0.93018 0.57324 0.0
H1612 H 0.35825 0.2768 0.83279 0.0
H1613 H 0.32343 0.28145 0.80678 0.0
H1614 H 0.34061 0.22487 0.7382 0.0
H1615 H 0.37572 0.22084 0.76316 0.0
H1616 H 0.32723 0.25831 0.70813 0.0
H1617 H 0.26537 0.24643 0.81117 0.0
H1618 H 0.28523 0.26867 0.81978 0.0
H1619 H 0.29471 0.24018 0.81192 0.0
C1620 C 0.35458 0.26541 0.81212 0.0
C1621 C 0.36985 0.24861 0.79983 0.0
C1622 C 0.33452 0.26789 0.79749 0.0
C1623 C 0.32912 0.25332 0.7707 0.0
C1624 C 0.34427 0.23633 0.75881 0.0
H1625 H 0.19938 0.24157 0.68467 0.0
H1626 H 0.2322 0.23551 0.7147 0.0
C1627 C 0.36436 0.234 0.77318 0.0
C1628 C 0.30836 0.25628 0.75386 0.0
H1629 H 0.25114 0.25978 0.76478 0.0
C1630 C 0.3106 0.25853 0.72058 0.0
C1631 C 0.28655 0.25625 0.76984 0.0
C1632 C 0.28274 0.25252 0.80507 0.0
C1633 C 0.29185 0.26103 0.70299 0.0
C1634 C 0.27011 0.26196 0.71919 0.0
C1635 C 0.26777 0.25932 0.75237 0.0
C1636 C 0.24975 0.2659 0.70206 0.0
C1637 C 0.29554 0.26219 0.66703 0.0
C1638 C 0.24838 0.28519 0.68555 0.0
C1639 C 0.22983 0.28853 0.66824 0.0
C1640 C 0.21199 0.27284 0.66739 0.0
C1641 C 0.21293 0.25388 0.68476 0.0
C1642 C 0.23166 0.25044 0.70196 0.0
H1643 H 0.31164 0.25437 0.6572 0.0
H1644 H 0.28169 0.25366 0.65424 0.0
H1645 H 0.29628 0.28005 0.66175 0.0
H1646 H 0.26175 0.29769 0.68596 0.0
H1647 H 0.22946 0.30348 0.6555 0.0
H1648 H 0.73781 0.22575 0.93555 0.0
H1649 H 0.77056 0.22025 0.89661 0.0
H1650 H 0.72684 0.20194 0.82088 0.0
H1651 H 0.69402 0.20753 0.8597 0.0
H1652 H 0.78578 0.18259 0.85238 0.0
H1653 H 0.764 0.25599 0.78908 0.0
H1654 H 0.75141 0.251 0.82851 0.0
H1655 H 0.74216 0.23511 0.79326 0.0
C1656 C 0.73517 0.22032 0.91067 0.0
C1657 C 0.71329 0.21731 0.90068 0.0
C1658 C 0.75393 0.21717 0.88841 0.0
C1659 C 0.75122 0.21106 0.85565 0.0
C1660 C 0.72939 0.20705 0.84589 0.0
H1661 H 0.84333 0.20901 0.68296 0.0
H1662 H 0.81101 0.20447 0.7216 0.0
C1663 C 0.71063 0.21014 0.86815 0.0
C1664 C 0.77114 0.20991 0.83159 0.0
H1665 H 0.79527 0.23501 0.76687 0.0
C1666 C 0.78786 0.19402 0.83364 0.0
C1667 C 0.77395 0.22484 0.80713 0.0
C1668 C 0.75707 0.24285 0.80436 0.0
C1669 C 0.80705 0.19243 0.81162 0.0
C1670 C 0.80994 0.2075 0.78727 0.0
C1671 C 0.79315 0.22335 0.78531 0.0
C1672 C 0.83018 0.20747 0.76367 0.0
C1673 C 0.82374 0.17424 0.81427 0.0
C1674 C 0.85199 0.2102 0.7741 0.0
C1675 C 0.87061 0.21252 0.75187 0.0
C1676 C 0.8678 0.21254 0.71875 0.0
C1677 C 0.8461 0.20906 0.70828 0.0
C1678 C 0.82756 0.20656 0.73042 0.0
H1679 H 0.8159 0.16012 0.82683 0.0
H1680 H 0.83107 0.16752 0.79016 0.0
H1681 H 0.83755 0.18132 0.82852 0.0
H1682 H 0.85458 0.21149 0.79956 0.0
H1683 H 0.88706 0.21539 0.76081 0.0
H1684 H 0.85961 0.78617 0.33644 0.0
H1685 H 0.82653 0.79884 0.31189 0.0
H1686 H 0.82841 0.73876 0.24621 0.0
H1687 H 0.86145 0.72638 0.27001 0.0
H1688 H 0.8214 0.77666 0.21598 0.0
H1689 H 0.76273 0.77279 0.3254 0.0
H1690 H 0.78731 0.79021 0.33033 0.0
H1691 H 0.79018 0.76038 0.32178 0.0
C1692 C 0.85299 0.77578 0.31668 0.0
C1693 C 0.86304 0.75522 0.30528 0.0
C1694 C 0.834 0.78293 0.30282 0.0
C1695 C 0.82473 0.76956 0.27752 0.0
C1696 C 0.83515 0.74932 0.26576 0.0
H1697 H 0.69253 0.76555 0.20437 0.0
H1698 H 0.7264 0.75953 0.23208 0.0
C1699 C 0.85402 0.74223 0.2795 0.0
C1700 C 0.80413 0.77623 0.26307 0.0
H1701 H 0.74778 0.78454 0.2792 0.0
C1702 C 0.80532 0.77852 0.22984 0.0
C1703 C 0.78309 0.77833 0.28107 0.0
C1704 C 0.78057 0.77514 0.31657 0.0
C1705 C 0.78609 0.78258 0.21405 0.0
C1706 C 0.76504 0.78493 0.23208 0.0
C1707 C 0.76388 0.78283 0.26539 0.0
C1708 C 0.74404 0.78916 0.21665 0.0
C1709 C 0.78844 0.78351 0.17796 0.0
C1710 C 0.74239 0.80807 0.19943 0.0
C1711 C 0.7232 0.81139 0.18343 0.0
C1712 C 0.70507 0.79605 0.18465 0.0
C1713 C 0.70629 0.77758 0.2029 0.0
C1714 C 0.72562 0.77416 0.21875 0.0
H1715 H 0.80398 0.77517 0.16687 0.0
H1716 H 0.77384 0.77536 0.16652 0.0
H1717 H 0.78939 0.80132 0.17245 0.0
H1718 H 0.75605 0.82022 0.19815 0.0
H1719 H 0.72264 0.82595 0.16991 0.0
H1720 H 0.55729 0.56425 0.67064 0.0
H1721 H 0.55499 0.53187 0.63083 0.0
H1722 H 0.49333 0.55684 0.60147 0.0
H1723 H 0.49537 0.58922 0.64209 0.0
H1724 H 0.49194 0.51069 0.60397 0.0
H1725 H 0.57049 0.53521 0.53573 0.0
H1726 H 0.57424 0.53183 0.57715 0.0
H1727 H 0.55651 0.55374 0.56718 0.0
C1728 C 0.54312 0.56276 0.6559 0.0
C1729 C 0.52652 0.5793 0.65947 0.0
C1730 C 0.54192 0.5443 0.63294 0.0
C1731 C 0.5243 0.54211 0.61248 0.0
C1732 C 0.50719 0.5582 0.61678 0.0
H1733 H 0.49289 0.4553 0.44499 0.0
H1734 H 0.49403 0.4833 0.49104 0.0
C1735 C 0.50829 0.57666 0.64008 0.0
C1736 C 0.52414 0.52329 0.58632 0.0
H1737 H 0.55522 0.49924 0.52019 0.0
C1738 C 0.50576 0.50825 0.58562 0.0
C1739 C 0.54217 0.51998 0.56226 0.0
C1740 C 0.56187 0.53616 0.56034 0.0
C1741 C 0.50504 0.48997 0.56187 0.0
C1742 C 0.52309 0.48669 0.53793 0.0
C1743 C 0.54153 0.50159 0.53874 0.0
C1744 C 0.5224 0.46898 0.51045 0.0
C1745 C 0.48503 0.47415 0.56269 0.0
C1746 C 0.53831 0.45172 0.50549 0.0
C1747 C 0.53772 0.43551 0.4789 0.0
C1748 C 0.52142 0.43655 0.45662 0.0
C1749 C 0.50573 0.454 0.4616 0.0
C1750 C 0.50621 0.46996 0.48814 0.0
H1751 H 0.47575 0.47522 0.58687 0.0
H1752 H 0.47333 0.47866 0.54504 0.0
H1753 H 0.49023 0.4565 0.55601 0.0
H1754 H 0.5511 0.45074 0.52227 0.0
H1755 H 0.55002 0.4223 0.47568 0.0
H1756 H 0.08505 0.60764 0.96955 0.0
H1757 H 0.08764 0.57504 1.00058 0.0
H1758 H 0.08371 0.53082 0.91355 0.0
H1759 H 0.08191 0.5632 0.88248 0.0
H1760 H 0.05534 0.54529 1.00825 0.0
H1761 H 0.12987 0.49859 0.95482 0.0
H1762 H 0.12508 0.52724 0.94695 0.0
H1763 H 0.11186 0.50419 0.92429 0.0
C1764 C 0.08549 0.59099 0.95691 0.0
C1765 C 0.08324 0.58803 0.92354 0.0
C1766 C 0.08686 0.57232 0.9747 0.0
C1767 C 0.08608 0.55032 0.95949 0.0
C1768 C 0.08493 0.54748 0.92591 0.0
H1769 H 0.02118 0.43436 0.02892 0.0
H1770 H 0.03458 0.46765 1.00313 0.0
C1771 C 0.08371 0.56609 0.90813 0.0
C1772 C 0.08343 0.53051 0.9789 0.0
H1773 H 0.10117 0.47678 0.98295 0.0
C1774 C 0.06569 0.53051 1.00304 0.0
C1775 C 0.09693 0.51112 0.97247 0.0
C1776 C 0.11714 0.51037 0.94844 0.0
C1777 C 0.06041 0.51149 1.01968 0.0
C1778 C 0.07293 0.49165 1.0117 0.0
C1779 C 0.09139 0.49189 0.98878 0.0
C1780 C 0.06602 0.47028 1.0256 0.0
C1781 C 0.04116 0.51267 0.04537 0.0
C1782 C 0.07961 0.46012 0.04598 0.0
C1783 C 0.07192 0.44096 0.0609 0.0
C1784 C 0.05062 0.4316 0.05541 0.0
C1785 C 0.03755 0.44131 0.03397 0.0
C1786 C 0.04517 0.46037 1.01921 0.0
H1787 H 0.03747 0.53029 0.05482 0.0
H1788 H 0.02587 0.50529 0.03488 0.0
H1789 H 0.04481 0.50301 0.06578 0.0
H1790 H 0.09584 0.4674 0.05106 0.0
H1791 H 0.08239 0.43381 0.07722 0.0
H1792 H 0.10748 0.10397 0.36625 0.0
H1793 H 0.11416 0.10766 0.42375 0.0
H1794 H 0.10665 0.17942 0.42658 0.0
H1795 H 0.1 0.1759 0.36951 0.0
H1796 H 0.14684 0.13111 0.45623 0.0
H1797 H 0.0636 0.1635 0.50156 0.0
H1798 H 0.06904 0.14995 0.46131 0.0
H1799 H 0.07536 0.17941 0.46986 0.0
C1800 C 0.10739 0.12053 0.37916 0.0
C1801 C 0.10303 0.13965 0.36347 0.0
C1802 C 0.11105 0.12257 0.412 0.0
C1803 C 0.11027 0.14373 0.42959 0.0
C1804 C 0.10656 0.16285 0.41371 0.0
H1805 H 0.17253 0.22015 0.56196 0.0
H1806 H 0.16332 0.18966 0.52266 0.0
C1807 C 0.10287 0.16083 0.38106 0.0
C1808 C 0.11432 0.14642 0.46424 0.0
H1809 H 0.09458 0.17553 0.53425 0.0
C1810 C 0.13519 0.14027 0.47362 0.0
C1811 C 0.09883 0.1576 0.48728 0.0
C1812 C 0.07535 0.16273 0.47954 0.0
C1813 C 0.14194 0.14739 0.50438 0.0
C1814 C 0.12765 0.16137 0.52581 0.0
C1815 C 0.10577 0.16515 0.51772 0.0
C1816 C 0.13629 0.17593 0.55291 0.0
C1817 C 0.16478 0.14082 0.51297 0.0
C1818 C 0.12441 0.17834 0.58341 0.0
C1819 C 0.12959 0.1961 0.60606 0.0
C1820 C 0.14646 0.21182 0.59818 0.0
C1821 C 0.15932 0.20838 0.56861 0.0
C1822 C 0.15425 0.19069 0.54621 0.0
H1823 H 0.16888 0.12355 0.50228 0.0
H1824 H 0.17767 0.15237 0.50278 0.0
H1825 H 0.16581 0.14159 0.53947 0.0
H1826 H 0.11034 0.16727 0.58897 0.0
H1827 H 0.11937 0.19843 0.62866 0.0
H1828 H 0.12124 0.80602 0.63502 0.0
H1829 H 0.1141 0.81481 0.69307 0.0
H1830 H 0.18526 0.82202 0.70288 0.0
H1831 H 0.19253 0.81346 0.64445 0.0
H1832 H 0.12801 0.79305 0.74317 0.0
H1833 H 0.16104 0.88102 0.74776 0.0
H1834 H 0.15575 0.86505 0.71027 0.0
H1835 H 0.17992 0.85926 0.73092 0.0
C1836 C 0.13538 0.80936 0.64954 0.0
C1837 C 0.15743 0.80913 0.63521 0.0
C1838 C 0.1313 0.8144 0.68269 0.0
C1839 C 0.14914 0.81927 0.70225 0.0
C1840 C 0.17123 0.81873 0.68815 0.0
H1841 H 0.09251 0.83407 0.90441 0.0
H1842 H 0.12269 0.82438 0.86239 0.0
C1843 C 0.17534 0.81384 0.65483 0.0
C1844 C 0.14411 0.82506 0.73728 0.0
H1845 H 0.14251 0.86941 0.79497 0.0
C1846 C 0.13153 0.80959 0.75481 0.0
C1847 C 0.14888 0.84663 0.75229 0.0
C1848 C 0.16201 0.86407 0.73442 0.0
C1849 C 0.12203 0.81564 0.78608 0.0
C1850 C 0.12574 0.83764 0.8005 0.0
C1851 C 0.13982 0.85253 0.7839 0.0
C1852 C 0.11157 0.84681 0.82922 0.0
C1853 C 0.10656 0.79903 0.8022 0.0
C1854 C 0.09643 0.86378 0.82542 0.0
C1855 C 0.07947 0.86949 0.84934 0.0
C1856 C 0.07724 0.85831 0.87758 0.0
C1857 C 0.09371 0.84285 0.88279 0.0
C1858 C 0.11083 0.83717 0.85872 0.0
H1859 H 0.10317 0.78385 0.7858 0.0
H1860 H 0.11434 0.79354 0.82337 0.0
H1861 H 0.09029 0.80694 0.81082 0.0
H1862 H 0.09675 0.87158 0.80298 0.0
H1863 H 0.06729 0.88175 0.84478 0.0
H1864 H 0.44765 0.7668 0.99224 0.0
H1865 H 0.4535 0.77452 0.93579 0.0
H1866 H 0.47958 0.8405 0.96474 0.0
H1867 H 0.47473 0.83255 1.02123 0.0
H1868 H 0.4351 0.80735 0.90535 0.0
H1869 H 0.52788 0.81626 0.89757 0.0
H1870 H 0.51224 0.80442 0.93084 0.0
H1871 H 0.51424 0.83439 0.92951 0.0
C1872 C 0.45495 0.78284 0.98659 0.0
C1873 C 0.46083 0.79904 1.01121 0.0
C1874 C 0.45813 0.78726 0.95434 0.0
C1875 C 0.46728 0.80793 0.94611 0.0
C1876 C 0.47291 0.82426 0.97059 0.0
H1877 H 0.48599 0.87383 0.77115 0.0
H1878 H 0.4792 0.86409 0.82673 0.0
C1879 C 0.46984 0.81981 1.00286 0.0
C1880 C 0.47028 0.81265 0.91192 0.0
H1881 H 0.50931 0.8278 0.85349 0.0
C1882 C 0.45134 0.81166 0.89393 0.0
C1883 C 0.49154 0.81813 0.89709 0.0
C1884 C 0.51268 0.81815 0.91463 0.0
C1885 C 0.45304 0.81656 0.86166 0.0
C1886 C 0.47415 0.82258 0.84722 0.0
C1887 C 0.49313 0.82332 0.86496 0.0
C1888 C 0.47688 0.82834 0.81364 0.0
C1889 C 0.43229 0.81568 0.84322 0.0
C1890 C 0.47761 0.81137 0.78816 0.0
C1891 C 0.48163 0.81682 0.75643 0.0
C1892 C 0.48503 0.83936 0.74979 0.0
C1893 C 0.4837 0.85632 0.7755 0.0
C1894 C 0.47976 0.85083 0.80719 0.0
H1895 H 0.4168 0.8126 0.85877 0.0
H1896 H 0.43058 0.8317 0.83218 0.0
H1897 H 0.43389 0.80201 0.82335 0.0
H1898 H 0.47563 0.79389 0.79289 0.0
H1899 H 0.48301 0.80332 0.73727 0.0
H1900 H 0.5252 0.10848 0.20058 0.0
H1901 H 0.51769 0.11596 0.14614 0.0
H1902 H 0.44667 0.11754 0.17403 0.0
H1903 H 0.45417 0.11138 0.22929 0.0
H1904 H 0.49421 0.09627 0.0992 0.0
H1905 H 0.45782 0.17918 0.1436 0.0
H1906 H 0.4718 0.16223 0.16922 0.0
H1907 H 0.44333 0.15577 0.16012 0.0
C1908 C 0.50796 0.11044 0.19517 0.0
C1909 C 0.49031 0.10991 0.21943 0.0
C1910 C 0.50369 0.11451 0.16397 0.0
C1911 C 0.48168 0.1179 0.1563 0.0
C1912 C 0.46383 0.11558 0.17974 0.0
H1913 H 0.44943 0.13418 0.96009 0.0
H1914 H 0.45446 0.11923 1.01129 0.0
C1915 C 0.46812 0.11177 0.21118 0.0
C1916 C 0.47785 0.12525 0.12436 0.0
H1917 H 0.45807 0.16873 0.08783 0.0
C1918 C 0.48624 0.11207 0.09665 0.0
C1919 C 0.46786 0.14611 0.1212 0.0
C1920 C 0.45987 0.16177 0.15008 0.0
C1921 C 0.48507 0.11926 0.06582 0.0
C1922 C 0.4746 0.13986 0.06265 0.0
C1923 C 0.46603 0.15292 0.09035 0.0
C1924 C 0.47249 0.14845 0.03095 0.0
C1925 C 0.49573 0.10508 0.03713 0.0
C1926 C 0.48057 0.17005 1.0252 0.0
C1927 C 0.47716 0.17894 0.99626 0.0
C1928 C 0.46563 0.16635 0.97249 0.0
C1929 C 0.45808 0.14448 0.97805 0.0
C1930 C 0.46125 0.13573 1.00714 0.0
H1931 H 0.50871 0.09389 0.04431 0.0
H1932 H 0.48265 0.09427 1.02586 0.0
H1933 H 0.50361 0.11569 1.01878 0.0
H1934 H 0.48921 0.18019 0.04336 0.0
H1935 H 0.48291 0.19593 0.993 0.0
H1936 H 0.92138 0.74437 0.45922 0.0
H1937 H 0.92881 0.75596 0.51512 0.0
H1938 H 0.93509 0.82482 0.4927 0.0
H1939 H 0.92711 0.81334 0.43694 0.0
H1940 H 0.9631 0.77386 0.54304 0.0
H1941 H 0.89516 0.83517 0.57256 0.0
H1942 H 0.89664 0.81662 0.53595 0.0
H1943 H 0.91325 0.84214 0.53856 0.0
C1944 C 0.92405 0.76205 0.46611 0.0
C1945 C 0.92325 0.77784 0.44309 0.0
C1946 C 0.9284 0.76873 0.4984 0.0
C1947 C 0.93212 0.79149 0.50912 0.0
C1948 C 0.93158 0.80726 0.48602 0.0
H1949 H 0.9694 0.86354 0.69283 0.0
H1950 H 0.96026 0.85258 0.63739 0.0
C1951 C 0.92709 0.8006 0.45374 0.0
C1952 C 0.93732 0.79846 0.54385 0.0
H1953 H 0.92302 0.83525 0.61029 0.0
C1954 C 0.9542 0.78724 0.55759 0.0
C1955 C 0.92587 0.81594 0.56368 0.0
C1956 C 0.90657 0.82801 0.55209 0.0
C1957 C 0.96024 0.79314 0.58949 0.0
C1958 C 0.94887 0.81066 0.60924 0.0
C1959 C 0.93197 0.82191 0.59559 0.0
C1960 C 0.95417 0.81745 0.64393 0.0
C1961 C 0.97932 0.78085 0.6013 0.0
C1962 C 0.95349 0.80169 0.66712 0.0
C1963 C 0.95864 0.80797 0.69919 0.0
C1964 C 0.96456 0.83035 0.7096 0.0
C1965 C 0.96479 0.8462 0.68643 0.0
C1966 C 0.95962 0.83988 0.65433 0.0
H1967 H 0.99047 0.77307 0.58095 0.0
H1968 H 0.98958 0.79229 0.61692 0.0
H1969 H 0.97238 0.76718 0.61554 0.0
H1970 H 0.94872 0.78441 0.66057 0.0
H1971 H 0.95761 0.79518 0.71597 0.0
H1972 H 0.93975 0.16519 0.58463 0.0
H1973 H 0.95052 0.15121 0.52865 0.0
H1974 H 0.93468 0.21528 0.49736 0.0
H1975 H 0.92418 0.22947 0.55329 0.0
H1976 H 0.92925 0.14514 0.47331 0.0
H1977 H -0.00234 0.20773 0.45611 0.0
H1978 H 0.98381 0.20393 0.4952 0.0
H1979 H 0.97089 0.22024 0.46777 0.0
C1980 C 0.93837 0.17634 0.5659 0.0
C1981 C 0.93105 0.19859 0.57397 0.0
C1982 C 0.94461 0.16827 0.53365 0.0
C1983 C 0.94398 0.18218 0.50827 0.0
C1984 C 0.93598 0.20419 0.51617 0.0
H1985 H 0.95409 0.13526 0.29967 0.0
H1986 H 0.94082 0.14732 0.35548 0.0
C1987 C 0.9297 0.21227 0.5484 0.0
C1988 C 0.95176 0.1737 0.47386 0.0
H1989 H 0.98842 0.18477 0.4095 0.0
C1990 C 0.94219 0.15388 0.45945 0.0
C1991 C 0.96896 0.18464 0.45539 0.0
C1992 C 0.98111 0.20518 0.46944 0.0
C1993 C 0.94895 0.14506 0.42752 0.0
C1994 C 0.96567 0.15639 0.40872 0.0
C1995 C 0.97547 0.17602 0.42333 0.0
C1996 C 0.97359 0.14804 0.3743 0.0
C1997 C 0.93843 0.12327 0.41458 0.0
C1998 C 0.99656 0.14454 0.36531 0.0
C1999 C 0.00423 0.13762 0.33319 0.0
C2000 C 0.98924 0.13407 0.30865 0.0
C2001 C 0.96622 0.13741 0.31768 0.0
C2002 C 0.95855 0.14431 0.34988 0.0
H2003 H 0.93115 0.11349 0.43433 0.0
H2004 H 0.92465 0.12698 0.39965 0.0
H2005 H 0.95088 0.11269 0.3993 0.0
H2006 H 0.00871 0.14727 0.38323 0.0
H2007 H 0.02209 0.13554 0.3275 0.0
H2008 H 0.63677 0.16529 1.01938 0.0
H2009 H 0.62548 0.1527 0.0725 0.0
H2010 H 0.64642 0.21666 0.11758 0.0
H2011 H 0.65683 0.22964 0.06454 0.0
H2012 H 0.64466 0.14529 0.12419 0.0
H2013 H 0.58556 0.21439 0.16127 0.0
H2014 H 0.59848 0.21004 0.12081 0.0
H2015 H 0.61339 0.22493 0.15229 0.0
C2016 C 0.63911 0.1767 0.04057 0.0
C2017 C 0.64768 0.19861 0.03732 0.0
C2018 C 0.63255 0.16945 0.07115 0.0
C2019 C 0.63437 0.18381 0.09958 0.0
C2020 C 0.64392 0.20535 0.09637 0.0
H2021 H 0.62024 0.16753 0.30506 0.0
H2022 H 0.63125 0.1764 0.25009 0.0
C2023 C 0.6502 0.21271 0.06581 0.0
C2024 C 0.62642 0.17626 0.13229 0.0
H2025 H 0.59473 0.19195 0.20272 0.0
C2026 C 0.63357 0.15549 0.14111 0.0
C2027 C 0.61169 0.18922 0.15482 0.0
C2028 C 0.60164 0.21075 0.14671 0.0
C2029 C 0.62705 0.14783 0.17161 0.0
C2030 C 0.61301 0.16116 0.19432 0.0
C2031 C 0.60559 0.18171 0.1855 0.0
C2032 C 0.60662 0.1545 0.22777 0.0
C2033 C 0.63553 0.12566 0.17981 0.0
C2034 C 0.5891 0.13897 0.23395 0.0
C2035 C 0.5826 0.13382 0.26574 0.0
C2036 C 0.59351 0.14402 0.29221 0.0
C2037 C 0.61138 0.15916 0.28562 0.0
C2038 C 0.61773 0.16438 0.25402 0.0
H2039 H 0.647 0.11753 0.16015 0.0
H2040 H 0.64452 0.1282 0.20216 0.0
H2041 H 0.62109 0.11414 0.18458 0.0
H2042 H 0.58016 0.13112 0.21422 0.0
H2043 H 0.56876 0.12216 0.26958 0.0
H2044 H 0.56553 0.8718 0.69912 0.0
H2045 H 0.57428 0.86552 0.75351 0.0
H2046 H 0.64402 0.85745 0.72049 0.0
H2047 H 0.63537 0.8646 0.66593 0.0
H2048 H 0.58871 0.83046 0.77701 0.0
H2049 H 0.65167 0.89804 0.79981 0.0
H2050 H 0.63494 0.89671 0.76561 0.0
H2051 H 0.65949 0.87962 0.76458 0.0
C2052 C 0.58285 0.86919 0.70339 0.0
C2053 C 0.59974 0.8691 0.67785 0.0
C2054 C 0.58785 0.86541 0.73473 0.0
C2055 C 0.60991 0.8612 0.74179 0.0
C2056 C 0.62692 0.86124 0.71636 0.0
H2057 H 0.63638 0.79684 0.91754 0.0
H2058 H 0.62993 0.80456 0.86256 0.0
C2059 C 0.62195 0.86536 0.68495 0.0
C2060 C 0.61466 0.85597 0.77536 0.0
H2061 H 0.64751 0.87081 0.8379 0.0
C2062 C 0.60157 0.83938 0.79026 0.0
C2063 C 0.63119 0.86764 0.79331 0.0
C2064 C 0.64497 0.88664 0.78018 0.0
C2065 C 0.60452 0.83418 0.82201 0.0
C2066 C 0.62158 0.84532 0.83957 0.0
C2067 C 0.63458 0.86199 0.82472 0.0
C2068 C 0.62587 0.84042 0.87346 0.0
C2069 C 0.58869 0.81727 0.83668 0.0
C2070 C 0.62668 0.85793 0.89838 0.0
C2071 C 0.63068 0.85356 0.93 0.0
C2072 C 0.63402 0.83149 0.9379 0.0
C2073 C 0.63347 0.81401 0.91283 0.0
C2074 C 0.62966 0.81842 0.88116 0.0
H2075 H 0.57271 0.81573 0.82467 0.0
H2076 H 0.59663 0.80052 0.83359 0.0
H2077 H 0.58469 0.82189 0.86282 0.0
H2078 H 0.62391 0.87509 0.89348 0.0
H2079 H 0.63072 0.86752 0.94843 0.0
H2080 H 0.62915 0.6895 0.85979 0.0
H2081 H 0.63841 0.69393 0.91573 0.0
H2082 H 0.57223 0.67007 0.94606 0.0
H2083 H 0.56338 0.66381 0.88996 0.0
H2084 H 0.62008 0.72102 0.96242 0.0
H2085 H 0.6089 0.6342 0.99813 0.0
H2086 H 0.60952 0.64055 0.95668 0.0
H2087 H 0.58431 0.64467 0.98292 0.0
C2088 C 0.61671 0.68463 0.87818 0.0
C2089 C 0.59553 0.6762 0.87012 0.0
C2090 C 0.62199 0.68734 0.91026 0.0
C2091 C 0.60618 0.68194 0.93512 0.0
C2092 C 0.58494 0.67376 0.9273 0.0
H2093 H 0.60342 0.72696 0.13649 0.0
H2094 H 0.5944 0.70428 0.08718 0.0
C2095 C 0.57976 0.67065 0.89513 0.0
C2096 C 0.61153 0.68651 0.9692 0.0
H2097 H 0.61368 0.66313 0.04063 0.0
C2098 C 0.61886 0.70826 0.97936 0.0
C2099 C 0.60974 0.6699 0.99145 0.0
C2100 C 0.60289 0.64597 0.98169 0.0
C2101 C 0.62447 0.71391 1.01098 0.0
C2102 C 0.62269 0.69736 0.03317 0.0
C2103 C 0.61506 0.67568 1.0234 0.0
C2104 C 0.62874 0.70293 0.06657 0.0
C2105 C 0.63224 0.73766 1.02044 0.0
C2106 C 0.65116 0.70812 0.07215 0.0
C2107 C 0.65623 0.72136 0.09997 0.0
C2108 C 0.63895 0.72912 0.12267 0.0
C2109 C 0.61699 0.72097 0.11938 0.0
C2110 C 0.61182 0.70808 0.09119 0.0
H2111 H 0.62832 0.74934 1.00252 0.0
H2112 H 0.62435 0.744 0.04442 0.0
H2113 H 0.65069 0.73791 1.02199 0.0
H2114 H 0.66441 0.70423 0.05336 0.0
H2115 H 0.67322 0.72774 0.10184 0.0
H2116 H 0.57205 0.39533 0.33505 0.0
H2117 H 0.60014 0.38432 0.29173 0.0
H2118 H 0.62469 0.3344 0.34806 0.0
H2119 H 0.59567 0.345 0.39163 0.0
H2120 H 0.64481 0.38003 0.28037 0.0
H2121 H 0.60253 0.29587 0.27216 0.0
H2122 H 0.59122 0.31904 0.29866 0.0
H2123 H 0.61535 0.30453 0.30883 0.0
C2124 C 0.5837 0.38229 0.33859 0.0
C2125 C 0.58137 0.37068 0.36642 0.0
C2126 C 0.59988 0.37608 0.3138 0.0
C2127 C 0.61417 0.35812 0.31621 0.0
C2128 C 0.61345 0.34795 0.34536 0.0
H2129 H 0.6883 0.32368 0.1257 0.0
H2130 H 0.68314 0.33353 0.18418 0.0
C2131 C 0.59706 0.35417 0.37037 0.0
C2132 C 0.62726 0.34873 0.28648 0.0
H2133 H 0.62638 0.30473 0.22837 0.0
C2134 C 0.64123 0.36337 0.2692 0.0
C2135 C 0.62242 0.32702 0.27189 0.0
C2136 C 0.60698 0.31068 0.28862 0.0
C2137 C 0.64898 0.35761 0.23691 0.0
C2138 C 0.6431 0.33637 0.22184 0.0
C2139 C 0.63072 0.32106 0.23996 0.0
C2140 C 0.64689 0.33068 0.18649 0.0
C2141 C 0.66192 0.37495 0.21859 0.0
C2142 C 0.62832 0.32552 0.16843 0.0
C2143 C 0.63124 0.31964 0.13532 0.0
C2144 C 0.65283 0.31892 0.11943 0.0
C2145 C 0.67146 0.32439 0.13734 0.0
C2146 C 0.66853 0.33004 0.1707 0.0
H2147 H 0.66139 0.39187 0.23204 0.0
H2148 H 0.67974 0.36993 0.2143 0.0
H2149 H 0.65515 0.37612 0.19481 0.0
H2150 H 0.61145 0.32602 0.18002 0.0
H2151 H 0.61658 0.31567 0.12208 0.0
H2152 H 0.92289 0.35951 0.26519 0.0
H2153 H 0.9124 0.35383 0.32173 0.0
H2154 H 0.97753 0.37847 0.34736 0.0
H2155 H 0.98808 0.38437 0.29106 0.0
H2156 H 0.96538 0.33705 0.36963 0.0
H2157 H 0.89764 0.39929 0.40054 0.0
H2158 H 0.89425 0.38101 0.36458 0.0
H2159 H 0.91748 0.40054 0.36581 0.0
C2160 C 0.93481 0.3641 0.28297 0.0
C2161 C 0.95633 0.3723 0.27366 0.0
C2162 C 0.92879 0.36089 0.31524 0.0
C2163 C 0.94411 0.36599 0.33871 0.0
C2164 C 0.96546 0.37451 0.32958 0.0
H2165 H 0.92688 0.35826 0.54686 0.0
H2166 H 0.93372 0.372 0.49332 0.0
C2167 C 0.9715 0.37771 0.29739 0.0
C2168 C 0.93859 0.36084 0.37236 0.0
H2169 H 0.90192 0.37245 0.43841 0.0
C2170 C 0.95161 0.3449 0.38474 0.0
C2171 C 0.92071 0.37126 0.39201 0.0
C2172 C 0.90681 0.38914 0.38024 0.0
C2173 C 0.94688 0.33867 0.41607 0.0
C2174 C 0.92857 0.34852 0.43534 0.0
C2175 C 0.91586 0.36487 0.42335 0.0
C2176 C 0.92218 0.34139 0.46768 0.0
C2177 C 0.96143 0.32151 0.42838 0.0
C2178 C 0.91288 0.31993 0.47075 0.0
C2179 C 0.90886 0.31211 0.50111 0.0
C2180 C 0.91414 0.32561 0.52895 0.0
C2181 C 0.92255 0.34753 0.52587 0.0
C2182 C 0.92653 0.35537 0.49538 0.0
H2183 H 0.97733 0.3188 0.41301 0.0
H2184 H 0.96551 0.32682 0.45345 0.0
H2185 H 0.95216 0.30524 0.42859 0.0
H2186 H 0.90922 0.30904 0.44957 0.0
H2187 H 0.90193 0.29533 0.50275 0.0
H2188 H 0.99509 0.61554 0.71851 0.0
H2189 H 0.98047 0.622 0.66722 0.0
H2190 H 0.92147 0.65227 0.71785 0.0
H2191 H 0.93617 0.64615 0.76958 0.0
H2192 H 0.91647 0.61882 0.65692 0.0
H2193 H 0.97662 0.6903 0.64405 0.0
H2194 H 0.9882 0.66474 0.65481 0.0
H2195 H 0.96823 0.67991 0.6825 0.0
C2196 C 0.97896 0.62349 0.71875 0.0
C2197 C 0.9669 0.63065 0.748 0.0
C2198 C 0.9706 0.62704 0.68949 0.0
C2199 C 0.95006 0.63776 0.68898 0.0
C2200 C 0.93738 0.64395 0.71797 0.0
H2201 H 0.91481 0.69998 0.52059 0.0
H2202 H 0.91848 0.69167 0.57607 0.0
C2203 C 0.94575 0.6404 0.74739 0.0
C2204 C 0.94284 0.64388 0.65811 0.0
H2205 H 0.95727 0.67772 0.59831 0.0
C2206 C 0.92517 0.63182 0.64412 0.0
C2207 C 0.95416 0.66102 0.64189 0.0
C2208 C 0.97276 0.67491 0.65658 0.0
C2209 C 0.919 0.63601 0.61352 0.0
C2210 C 0.93102 0.65247 0.59666 0.0
C2211 C 0.94817 0.66502 0.61125 0.0
C2212 C 0.92664 0.65672 0.56349 0.0
C2213 C 0.89972 0.62283 0.59952 0.0
C2214 C 0.93002 0.63978 0.5381 0.0
C2215 C 0.92804 0.6445 0.50634 0.0
C2216 C 0.92288 0.66629 0.49951 0.0
C2217 C 0.91913 0.68311 0.52509 0.0
C2218 C 0.92105 0.67836 0.55678 0.0
H2219 H 0.88849 0.61568 0.61859 0.0
H2220 H 0.88966 0.6335 0.58584 0.0
H2221 H 0.90644 0.60867 0.58271 0.0
H2222 H 0.93491 0.6231 0.54274 0.0
H2223 H 0.93127 0.6313 0.48707 0.0
H2224 H 0.48718 0.3184 0.19302 0.0
H2225 H 0.47819 0.30689 0.13789 0.0
H2226 H 0.44077 0.36743 0.13637 0.0
H2227 H 0.44904 0.37888 0.19195 0.0
H2228 H 0.43673 0.29862 0.11146 0.0
H2229 H 0.48156 0.36791 0.05282 0.0
H2230 H 0.48615 0.36175 0.09327 0.0
H2231 H 0.4617 0.37686 0.08578 0.0
C2232 C 0.4768 0.32932 0.18142 0.0
C2233 C 0.46893 0.34976 0.19788 0.0
C2234 C 0.47178 0.32269 0.14941 0.0
C2235 C 0.45899 0.3363 0.13223 0.0
C2236 C 0.45109 0.35668 0.14842 0.0
H2237 H 0.41548 0.32268 0.93251 0.0
H2238 H 0.42262 0.33577 0.9884 0.0
C2239 C 0.45593 0.36328 0.18056 0.0
C2240 C 0.45353 0.32886 0.0979 0.0
H2241 H 0.45956 0.34339 1.01992 0.0
C2242 C 0.44181 0.30845 0.09151 0.0
C2243 C 0.45989 0.34152 0.07141 0.0
C2244 C 0.47319 0.36314 0.07594 0.0
C2245 C 0.43603 0.30065 0.06008 0.0
C2246 C 0.44266 0.31315 0.03343 0.0
C2247 C 0.45432 0.33363 0.03987 0.0
C2248 C 0.43803 0.30508 0.99889 0.0
C2249 C 0.42222 0.27931 0.05609 0.0
C2250 C 0.44442 0.28352 0.98521 0.0
C2251 C 0.44007 0.27589 0.95332 0.0
C2252 C 0.42945 0.28963 0.93345 0.0
C2253 C 0.42342 0.3114 0.94687 0.0
C2254 C 0.42764 0.31898 0.979 0.0
H2255 H 0.41235 0.27606 0.07888 0.0
H2256 H 0.41047 0.27996 0.03692 0.0
H2257 H 0.4336 0.26491 0.04945 0.0
H2258 H 0.45316 0.27253 0.99906 0.0
H2259 H 0.44546 0.25919 0.94409 0.0
H2260 H 0.43706 0.6559 0.08572 0.0
H2261 H 0.44465 0.64219 0.02893 0.0
H2262 H 0.45153 0.71041 1.00365 0.0
H2263 H 0.44295 0.72415 0.05997 0.0
H2264 H 0.4308 0.68641 0.9588 0.0
H2265 H 0.50544 0.63898 0.98167 0.0
H2266 H 0.48048 0.62983 1.00369 0.0
H2267 H 0.4912 0.65794 1.01226 0.0
C2268 C 0.43979 0.66803 0.06807 0.0
C2269 C 0.4395 0.69124 0.07786 0.0
C2270 C 0.44451 0.66013 0.03546 0.0
C2271 C 0.44939 0.67515 1.01168 0.0
C2272 C 0.44808 0.69831 1.02123 0.0
H2273 H 0.52262 0.64331 0.82439 0.0
H2274 H 0.51038 0.65333 0.88072 0.0
C2275 C 0.44316 0.70621 0.05371 0.0
C2276 C 0.45599 0.66691 0.97705 0.0
H2277 H 0.49323 0.63344 0.9288 0.0
C2278 C 0.44445 0.6748 0.95232 0.0
C2279 C 0.47417 0.65214 0.96808 0.0
C2280 C 0.48871 0.64441 0.99276 0.0
C2281 C 0.45033 0.66831 0.91938 0.0
C2282 C 0.46788 0.65275 0.91045 0.0
C2283 C 0.47954 0.64501 0.93522 0.0
C2284 C 0.47527 0.64529 0.87573 0.0
C2285 C 0.43817 0.679 0.89452 0.0
C2286 C 0.45993 0.63664 0.85355 0.0
C2287 C 0.46692 0.6311 0.82079 0.0
C2288 C 0.48957 0.63356 0.80933 0.0
C2289 C 0.50504 0.64109 0.83195 0.0
C2290 C 0.49801 0.64691 0.86448 0.0
H2291 H 0.43046 0.69515 0.9046 0.0
H2292 H 0.44966 0.68226 0.87322 0.0
H2293 H 0.42447 0.66756 0.88642 0.0
H2294 H 0.44242 0.63437 0.86144 0.0
H2295 H 0.45446 0.6253 0.80435 0.0
H2296 H 0.16934 0.73561 0.57002 0.0
H2297 H 0.15664 0.72394 0.62321 0.0
H2298 H 0.14873 0.65585 0.58165 0.0
H2299 H 0.16157 0.66736 0.52848 0.0
H2300 H 0.1168 0.70637 0.64511 0.0
H2301 H 0.18284 0.64514 0.65828 0.0
H2302 H 0.18529 0.66453 0.62751 0.0
H2303 H 0.16875 0.63917 0.62203 0.0
C2304 C 0.16527 0.71805 0.57214 0.0
C2305 C 0.16681 0.70247 0.54456 0.0
C2306 C 0.15784 0.71138 0.60277 0.0
C2307 C 0.15188 0.68885 0.60705 0.0
C2308 C 0.15363 0.67322 0.5796 0.0
H2309 H 0.06672 0.64462 0.77309 0.0
H2310 H 0.08193 0.65429 0.71988 0.0
C2311 C 0.16099 0.67989 0.54894 0.0
C2312 C 0.14307 0.68196 0.63979 0.0
H2313 H 0.15113 0.64537 0.69651 0.0
C2314 C 0.12439 0.69304 0.65626 0.0
C2315 C 0.15293 0.66474 0.65505 0.0
C2316 C 0.17369 0.65283 0.64001 0.0
C2317 C 0.11522 0.68724 0.68675 0.0
C2318 C 0.12463 0.66953 0.70154 0.0
C2319 C 0.14357 0.65873 0.68536 0.0
C2320 C 0.11544 0.66239 0.73396 0.0
C2321 C 0.09575 0.70058 0.70319 0.0
C2322 C 0.12918 0.6627 0.75991 0.0
C2323 C 0.1205 0.65698 0.79053 0.0
C2324 C 0.0978 0.65051 0.79624 0.0
C2325 C 0.08425 0.64949 0.76994 0.0
C2326 C 0.09293 0.65529 0.73936 0.0
H2327 H 0.09453 0.71713 0.6934 0.0
H2328 H 0.0799 0.69111 0.69916 0.0
H2329 H 0.09726 0.70343 0.72958 0.0
H2330 H 0.14661 0.66793 0.75671 0.0
H2331 H 0.13157 0.65806 0.80994 0.0
H2332 H 0.04096 0.38242 0.21384 0.0
H2333 H 0.05238 0.37427 0.26643 0.0
H2334 H 0.11727 0.35389 0.22267 0.0
H2335 H 0.10584 0.36195 0.16983 0.0
H2336 H 0.10221 0.32417 0.2634 0.0
H2337 H 0.09086 0.40831 0.32873 0.0
H2338 H 0.06579 0.39772 0.31143 0.0
H2339 H 0.09029 0.40365 0.28554 0.0
C2340 C 0.05779 0.37647 0.2153 0.0
C2341 C 0.07246 0.37312 0.18717 0.0
C2342 C 0.06444 0.37196 0.24573 0.0
C2343 C 0.08595 0.36368 0.24925 0.0
C2344 C 0.10063 0.36031 0.22115 0.0
H2345 H 0.14484 0.35614 0.43598 0.0
H2346 H 0.13498 0.36591 0.38324 0.0
C2347 C 0.09408 0.36511 0.19074 0.0
C2348 C 0.0928 0.35774 0.28173 0.0
H2349 H 0.09634 0.37826 0.36086 0.0
C2350 C 0.10091 0.33609 0.28461 0.0
C2351 C 0.09158 0.37314 0.30984 0.0
C2352 C 0.08438 0.39707 0.30876 0.0
C2353 C 0.10726 0.32939 0.31429 0.0
C2354 C 0.10536 0.34457 0.34263 0.0
C2355 C 0.09768 0.36636 0.33961 0.0
C2356 C 0.11149 0.33831 0.37531 0.0
C2357 C 0.11647 0.30614 0.3147 0.0
C2358 C 0.10158 0.3196 0.38942 0.0
C2359 C 0.10732 0.31384 0.41975 0.0
C2360 C 0.12316 0.32663 0.43743 0.0
C2361 C 0.13289 0.34551 0.42335 0.0
C2362 C 0.12708 0.35128 0.39302 0.0
H2363 H 0.12311 0.29925 0.29028 0.0
H2364 H 0.13009 0.30609 0.33128 0.0
H2365 H 0.10279 0.29473 0.32304 0.0
H2366 H 0.08915 0.30942 0.37707 0.0
H2367 H 0.09945 0.29908 0.42913 0.0
loop_
_geom_bond_atom_site_label_1
_geom_bond_atom_site_label_2
_geom_bond_distance
_geom_bond_site_symmetry_2
_ccdc_geom_bond_type
C0 Eu1 2.835 . S
C0 C2 1.500 . S
C0 O20 1.257 . S
C0 O21 1.260 . S
Eu1 C0 2.835 . S
Eu1 O20 2.473 . S
Eu1 O21 2.480 . S
Eu1 O22 2.430 . S
Eu1 O23 2.670 . S
Eu1 O24 2.394 . S
Eu1 O29 2.355 . S
Eu1 O31 2.374 . S
C2 C0 1.500 . S
C2 C3 1.377 1_455 S
C2 C7 1.377 . S
C3 C2 1.377 1_655 S
C3 C4 1.395 . S
C3 H32 0.931 . S
C4 C3 1.395 . S
C4 C5 1.383 1_554 S
C4 H33 0.931 1_554 S
C5 C4 1.383 1_556 S
C5 C6 1.394 . S
C6 C5 1.394 . S
C6 C7 1.378 1_656 S
C6 H34 0.930 1_655 S
C7 C2 1.377 . S
C7 C6 1.378 1_454 S
C7 H35 0.931 . S
C8 O22 1.259 . S
C8 O23 1.270 . S
C9 O24 1.251 . S
C9 O25 1.251 . S
C10 Eu11 2.835 . S
C10 C12 1.500 . S
C10 O26 1.257 . S
C10 O27 1.260 . S
Eu11 C10 2.835 . S
Eu11 O23 2.355 . S
Eu11 O25 2.374 . S
Eu11 O26 2.473 . S
Eu11 O27 2.480 . S
Eu11 O28 2.430 . S
Eu11 O29 2.670 . S
Eu11 O30 2.394 . S
C12 C10 1.500 . S
C12 C13 1.377 . S
C12 C17 1.377 . S
C13 C12 1.377 . S
C13 C14 1.395 . S
C13 H36 0.931 . S
C14 C13 1.395 . S
C14 C15 1.383 . S
C14 H37 0.931 . S
C15 C14 1.383 . S
C15 C16 1.394 . S
C16 C15 1.394 . S
C16 C17 1.378 . S
C16 H38 0.931 . S
C17 C12 1.377 . S
C17 C16 1.378 . S
C17 H39 0.931 . S
C18 O28 1.259 . S
C18 O29 1.270 . S
C19 O30 1.251 . S
C19 O31 1.251 . S
O20 C0 1.257 . S
O20 Eu1 2.473 . S
O21 C0 1.260 . S
O21 Eu1 2.480 . S
O22 Eu1 2.430 . S
O22 C8 1.259 . S
O23 Eu1 2.670 . S
O23 C8 1.270 . S
O23 Eu11 2.355 . S
O24 Eu1 2.394 . S
O24 C9 1.251 . S
O25 C9 1.251 . S
O25 Eu11 2.374 . S
O26 C10 1.257 . S
O26 Eu11 2.473 . S
O27 C10 1.260 . S
O27 Eu11 2.480 . S
O28 Eu11 2.430 . S
O28 C18 1.259 . S
O29 Eu1 2.355 . S
O29 Eu11 2.670 . S
O29 C18 1.270 . S
O30 Eu11 2.394 . S
O30 C19 1.251 . S
O31 Eu1 2.374 . S
O31 C19 1.251 . S
H32 C3 0.931 . S
H33 C4 0.931 1_556 S
H34 C6 0.930 1_455 S
H35 C7 0.931 . S
H36 C13 0.931 . S
H37 C14 0.931 . S
H38 C16 0.931 . S
H39 C17 0.931 . S
C40 Eu41 2.835 . S
C40 C42 1.500 . S
C40 O60 1.257 . S
C40 O61 1.260 . S
Eu41 C40 2.835 . S
Eu41 O60 2.473 . S
Eu41 O61 2.480 . S
Eu41 O62 2.430 . S
Eu41 O63 2.670 . S
Eu41 O64 2.394 . S
Eu41 O69 2.355 . S
Eu41 O71 2.374 . S
C42 C40 1.500 . S
C42 C43 1.377 . S
C42 C47 1.377 . S
C43 C42 1.377 . S
C43 C44 1.395 . S
C43 H72 0.931 . S
C44 C43 1.395 . S
C44 C45 1.383 . S
C44 H73 0.931 . S
C45 C44 1.383 . S
C45 C46 1.394 . S
C46 C45 1.394 . S
C46 C47 1.378 . S
C46 H74 0.931 . S
C47 C42 1.377 . S
C47 C46 1.378 . S
C47 H75 0.931 . S
C48 O62 1.259 . S
C48 O63 1.270 . S
C49 O64 1.251 . S
C49 O65 1.251 . S
C50 Eu51 2.835 . S
C50 C52 1.500 . S
C50 O66 1.257 . S
C50 O67 1.260 . S
Eu51 C50 2.835 . S
Eu51 O63 2.355 . S
Eu51 O65 2.374 . S
Eu51 O66 2.473 . S
Eu51 O67 2.480 . S
Eu51 O68 2.430 . S
Eu51 O69 2.670 . S
Eu51 O70 2.394 . S
C52 C50 1.500 . S
C52 C53 1.377 . S
C52 C57 1.377 . S
C53 C52 1.377 . S
C53 C54 1.395 . S
C53 H76 0.931 . S
C54 C53 1.395 . S
C54 C55 1.383 . S
C54 H77 0.931 . S
C55 C54 1.383 . S
C55 C56 1.394 . S
C56 C55 1.394 . S
C56 C57 1.378 . S
C56 H78 0.931 . S
C57 C52 1.377 . S
C57 C56 1.378 . S
C57 H79 0.931 . S
C58 O68 1.259 . S
C58 O69 1.270 . S
C59 O70 1.251 . S
C59 O71 1.251 . S
O60 C40 1.257 . S
O60 Eu41 2.473 . S
O61 C40 1.260 . S
O61 Eu41 2.480 . S
O62 Eu41 2.430 . S
O62 C48 1.259 . S
O63 Eu41 2.670 . S
O63 C48 1.270 . S
O63 Eu51 2.355 . S
O64 Eu41 2.394 . S
O64 C49 1.251 . S
O65 C49 1.251 . S
O65 Eu51 2.374 . S
O66 C50 1.257 . S
O66 Eu51 2.473 . S
O67 C50 1.260 . S
O67 Eu51 2.480 . S
O68 Eu51 2.430 . S
O68 C58 1.259 . S
O69 Eu41 2.355 . S
O69 Eu51 2.670 . S
O69 C58 1.270 . S
O70 Eu51 2.394 . S
O70 C59 1.251 . S
O71 Eu41 2.374 . S
O71 C59 1.251 . S
H72 C43 0.931 . S
H73 C44 0.931 . S
H74 C46 0.931 . S
H75 C47 0.931 . S
H76 C53 0.931 . S
H77 C54 0.931 . S
H78 C56 0.931 . S
H79 C57 0.931 . S
C80 Eu81 2.835 . S
C80 C82 1.500 . S
C80 O100 1.257 . S
C80 O101 1.260 . S
Eu81 C80 2.835 . S
Eu81 O100 2.473 . S
Eu81 O101 2.480 . S
Eu81 O102 2.430 . S
Eu81 O103 2.670 . S
Eu81 O104 2.394 . S
Eu81 O109 2.355 . S
Eu81 O111 2.374 . S
C82 C80 1.500 . S
C82 C83 1.377 . S
C82 C87 1.377 . S
C83 C82 1.377 . S
C83 C84 1.395 . S
C83 H112 0.931 . S
C84 C83 1.395 . S
C84 C85 1.383 . S
C84 H113 0.931 . S
C85 C84 1.383 . S
C85 C86 1.394 . S
C86 C85 1.394 . S
C86 C87 1.378 . S
C86 H114 0.931 . S
C87 C82 1.377 . S
C87 C86 1.378 . S
C87 H115 0.931 . S
C88 O102 1.259 . S
C88 O103 1.270 . S
C89 O104 1.251 . S
C89 O105 1.251 . S
C90 Eu91 2.835 . S
C90 C92 1.500 . S
C90 O106 1.257 . S
C90 O107 1.260 . S
Eu91 C90 2.835 . S
Eu91 O103 2.355 . S
Eu91 O105 2.374 . S
Eu91 O106 2.473 . S
Eu91 O107 2.480 . S
Eu91 O108 2.430 . S
Eu91 O109 2.670 . S
Eu91 O110 2.394 . S
C92 C90 1.500 . S
C92 C93 1.377 . S
C92 C97 1.377 . S
C93 C92 1.377 . S
C93 C94 1.395 . S
C93 H116 0.931 . S
C94 C93 1.395 . S
C94 C95 1.383 . S
C94 H117 0.931 . S
C95 C94 1.383 . S
C95 C96 1.394 . S
C96 C95 1.394 . S
C96 C97 1.378 . S
C96 H118 0.931 . S
C97 C92 1.377 . S
C97 C96 1.378 . S
C97 H119 0.931 . S
C98 O108 1.259 . S
C98 O109 1.270 . S
C99 O110 1.251 . S
C99 O111 1.251 . S
O100 C80 1.257 . S
O100 Eu81 2.473 . S
O101 C80 1.260 . S
O101 Eu81 2.480 . S
O102 Eu81 2.430 . S
O102 C88 1.259 . S
O103 Eu81 2.670 . S
O103 C88 1.270 . S
O103 Eu91 2.355 . S
O104 Eu81 2.394 . S
O104 C89 1.251 . S
O105 C89 1.251 . S
O105 Eu91 2.374 . S
O106 C90 1.257 . S
O106 Eu91 2.473 . S
O107 C90 1.260 . S
O107 Eu91 2.480 . S
O108 Eu91 2.430 . S
O108 C98 1.259 . S
O109 Eu81 2.355 . S
O109 Eu91 2.670 . S
O109 C98 1.270 . S
O110 Eu91 2.394 . S
O110 C99 1.251 . S
O111 Eu81 2.374 . S
O111 C99 1.251 . S
H112 C83 0.931 . S
H113 C84 0.931 . S
H114 C86 0.931 . S
H115 C87 0.931 . S
H116 C93 0.931 . S
H117 C94 0.931 . S
H118 C96 0.931 . S
H119 C97 0.931 . S
C120 Eu121 2.835 . S
C120 C122 1.500 . S
C120 O140 1.257 . S
C120 O141 1.260 . S
Eu121 C120 2.835 . S
Eu121 O140 2.473 . S
Eu121 O141 2.480 . S
Eu121 O142 2.430 . S
Eu121 O143 2.670 . S
Eu121 O144 2.394 . S
Eu121 O149 2.355 . S
Eu121 O151 2.374 . S
C122 C120 1.500 . S
C122 C123 1.377 . S
C122 C127 1.377 . S
C123 C122 1.377 . S
C123 C124 1.395 . S
C123 H152 0.931 . S
C124 C123 1.395 . S
C124 C125 1.383 . S
C124 H153 0.931 . S
C125 C124 1.383 . S
C125 C126 1.394 . S
C126 C125 1.394 . S
C126 C127 1.378 . S
C126 H154 0.931 . S
C127 C122 1.377 . S
C127 C126 1.378 . S
C127 H155 0.931 . S
C128 O142 1.259 . S
C128 O143 1.270 . S
C129 O144 1.251 . S
C129 O145 1.251 . S
C130 Eu131 2.835 . S
C130 C132 1.500 . S
C130 O146 1.257 . S
C130 O147 1.260 . S
Eu131 C130 2.835 . S
Eu131 O143 2.355 . S
Eu131 O145 2.374 . S
Eu131 O146 2.473 . S
Eu131 O147 2.480 . S
Eu131 O148 2.430 . S
Eu131 O149 2.670 . S
Eu131 O150 2.394 . S
C132 C130 1.500 . S
C132 C133 1.377 . S
C132 C137 1.377 . S
C133 C132 1.377 . S
C133 C134 1.395 . S
C133 H156 0.931 . S
C134 C133 1.395 . S
C134 C135 1.383 . S
C134 H157 0.931 . S
C135 C134 1.383 . S
C135 C136 1.394 . S
C136 C135 1.394 . S
C136 C137 1.378 . S
C136 H158 0.931 . S
C137 C132 1.377 . S
C137 C136 1.378 . S
C137 H159 0.931 . S
C138 O148 1.259 . S
C138 O149 1.270 . S
C139 O150 1.251 . S
C139 O151 1.251 . S
O140 C120 1.257 . S
O140 Eu121 2.473 . S
O141 C120 1.260 . S
O141 Eu121 2.480 . S
O142 Eu121 2.430 . S
O142 C128 1.259 . S
O143 Eu121 2.670 . S
O143 C128 1.270 . S
O143 Eu131 2.355 . S
O144 Eu121 2.394 . S
O144 C129 1.251 . S
O145 C129 1.251 . S
O145 Eu131 2.374 . S
O146 C130 1.257 . S
O146 Eu131 2.473 . S
O147 C130 1.260 . S
O147 Eu131 2.480 . S
O148 Eu131 2.430 . S
O148 C138 1.259 . S
O149 Eu121 2.355 . S
O149 Eu131 2.670 . S
O149 C138 1.270 . S
O150 Eu131 2.394 . S
O150 C139 1.251 . S
O151 Eu121 2.374 . S
O151 C139 1.251 . S
H152 C123 0.931 . S
H153 C124 0.931 . S
H154 C126 0.931 . S
H155 C127 0.931 . S
H156 C133 0.931 . S
H157 C134 0.931 . S
H158 C136 0.931 . S
H159 C137 0.931 . S
C160 Eu161 2.835 . S
C160 C162 1.500 . S
C160 O180 1.257 . S
C160 O181 1.260 . S
Eu161 C160 2.835 . S
Eu161 O180 2.473 . S
Eu161 O181 2.480 . S
Eu161 O182 2.430 . S
Eu161 O183 2.670 1_655 S
Eu161 O184 2.394 1_655 S
Eu161 O189 2.355 1_655 S
Eu161 O191 2.374 . S
C162 C160 1.500 . S
C162 C163 1.377 . S
C162 C167 1.377 . S
C163 C162 1.377 . S
C163 C164 1.395 . S
C163 H192 0.931 . S
C164 C163 1.395 . S
C164 C165 1.383 . S
C164 H193 0.931 . S
C165 C164 1.383 . S
C165 C166 1.394 . S
C166 C165 1.394 . S
C166 C167 1.378 . S
C166 H194 0.931 . S
C167 C162 1.377 . S
C167 C166 1.378 . S
C167 H195 0.931 . S
C168 O182 1.279 . S
C168 O183 1.261 1_655 S
C169 O184 1.251 . S
C169 O185 1.251 . S
C170 Eu171 2.835 . S
C170 C172 1.500 1_556 S
C170 O186 1.257 . S
C170 O187 1.260 . S
Eu171 C170 2.835 . S
Eu171 O183 2.355 . S
Eu171 O185 2.374 . S
Eu171 O186 2.473 . S
Eu171 O187 2.480 . S
Eu171 O188 2.430 . S
Eu171 O189 2.670 . S
Eu171 O190 2.394 . S
C172 C170 1.500 1_554 S
C172 C173 1.377 . S
C172 C177 1.377 . S
C173 C172 1.377 . S
C173 C174 1.395 . S
C173 H196 0.931 . S
C174 C173 1.395 . S
C174 C175 1.383 . S
C174 H197 0.931 . S
C175 C174 1.383 . S
C175 C176 1.394 . S
C176 C175 1.394 . S
C176 C177 1.378 . S
C176 H198 0.931 . S
C177 C172 1.377 . S
C177 C176 1.378 . S
C177 H199 0.931 . S
C178 O188 1.259 . S
C178 O189 1.270 . S
C179 O190 1.251 1_655 S
C179 O191 1.251 . S
O180 C160 1.257 . S
O180 Eu161 2.473 . S
O181 C160 1.260 . S
O181 Eu161 2.480 . S
O182 Eu161 2.430 . S
O182 C168 1.279 . S
O183 Eu161 2.670 1_455 S
O183 C168 1.261 1_455 S
O183 Eu171 2.355 . S
O184 Eu161 2.394 1_455 S
O184 C169 1.251 . S
O185 C169 1.251 . S
O185 Eu171 2.374 . S
O186 C170 1.257 . S
O186 Eu171 2.473 . S
O187 C170 1.260 . S
O187 Eu171 2.480 . S
O188 Eu171 2.430 . S
O188 C178 1.259 . S
O189 Eu161 2.355 1_455 S
O189 Eu171 2.670 . S
O189 C178 1.270 . S
O190 Eu171 2.394 . S
O190 C179 1.251 1_455 S
O191 Eu161 2.374 . S
O191 C179 1.251 . S
H192 C163 0.931 . S
H193 C164 0.931 . S
H194 C166 0.931 . S
H195 C167 0.931 . S
H196 C173 0.931 . S
H197 C174 0.931 . S
H198 C176 0.931 . S
H199 C177 0.931 . S
C200 Eu201 2.835 . S
C200 C202 1.500 . S
C200 O220 1.257 . S
C200 O221 1.260 . S
Eu201 C200 2.835 . S
Eu201 O220 2.473 . S
Eu201 O221 2.480 . S
Eu201 O222 2.430 . S
Eu201 O223 2.670 . S
Eu201 O224 2.394 . S
Eu201 O229 2.355 . S
Eu201 O231 2.374 . S
C202 C200 1.500 . S
C202 C203 1.377 . S
C202 C207 1.377 . S
C203 C202 1.377 . S
C203 C204 1.395 . S
C203 H232 0.931 . S
C204 C203 1.395 . S
C204 C205 1.383 . S
C204 H233 0.931 . S
C205 C204 1.383 . S
C205 C206 1.394 . S
C206 C205 1.394 . S
C206 C207 1.378 . S
C206 H234 0.931 . S
C207 C202 1.377 . S
C207 C206 1.378 . S
C207 H235 0.931 . S
C208 O222 1.259 . S
C208 O223 1.270 . S
C209 O224 1.251 . S
C209 O225 1.251 . S
C210 Eu211 2.835 . S
C210 C212 1.500 . S
C210 O226 1.257 . S
C210 O227 1.260 . S
Eu211 C210 2.835 . S
Eu211 O223 2.355 . S
Eu211 O225 2.374 . S
Eu211 O226 2.473 . S
Eu211 O227 2.480 . S
Eu211 O228 2.430 . S
Eu211 O229 2.670 . S
Eu211 O230 2.394 . S
C212 C210 1.500 . S
C212 C213 1.377 . S
C212 C217 1.377 . S
C213 C212 1.377 . S
C213 C214 1.395 1_554 S
C213 H236 0.931 . S
C214 C213 1.395 1_556 S
C214 C215 1.383 . S
C214 H237 0.931 . S
C215 C214 1.383 . S
C215 C216 1.394 . S
C216 C215 1.394 . S
C216 C217 1.378 1_556 S
C216 H238 0.931 . S
C217 C212 1.377 . S
C217 C216 1.378 1_554 S
C217 H239 0.931 . S
C218 O228 1.259 . S
C218 O229 1.270 . S
C219 O230 1.251 . S
C219 O231 1.251 . S
O220 C200 1.257 . S
O220 Eu201 2.473 . S
O221 C200 1.260 . S
O221 Eu201 2.480 . S
O222 Eu201 2.430 . S
O222 C208 1.259 . S
O223 Eu201 2.670 . S
O223 C208 1.270 . S
O223 Eu211 2.355 . S
O224 Eu201 2.394 . S
O224 C209 1.251 . S
O225 C209 1.251 . S
O225 Eu211 2.374 . S
O226 C210 1.257 . S
O226 Eu211 2.473 . S
O227 C210 1.260 . S
O227 Eu211 2.480 . S
O228 Eu211 2.430 . S
O228 C218 1.259 . S
O229 Eu201 2.355 . S
O229 Eu211 2.670 . S
O229 C218 1.270 . S
O230 Eu211 2.394 . S
O230 C219 1.251 . S
O231 Eu201 2.374 . S
O231 C219 1.251 . S
H232 C203 0.931 . S
H233 C204 0.931 . S
H234 C206 0.931 . S
H235 C207 0.931 . S
H236 C213 0.931 . S
H237 C214 0.931 . S
H238 C216 0.931 . S
H239 C217 0.931 . S
C240 Eu241 2.835 . S
C240 C242 1.500 . S
C240 O260 1.257 . S
C240 O261 1.260 . S
Eu241 C240 2.835 . S
Eu241 O260 2.473 . S
Eu241 O261 2.480 . S
Eu241 O262 2.430 . S
Eu241 O263 2.670 . S
Eu241 O264 2.394 . S
Eu241 O269 2.355 . S
Eu241 O271 2.374 . S
C242 C240 1.500 . S
C242 C243 1.377 . S
C242 C247 1.377 . S
C243 C242 1.377 . S
C243 C244 1.395 . S
C243 H272 0.931 . S
C244 C243 1.395 . S
C244 C245 1.383 . S
C244 H273 0.931 . S
C245 C244 1.383 . S
C245 C246 1.394 . S
C246 C245 1.394 . S
C246 C247 1.378 . S
C246 H274 0.931 . S
C247 C242 1.377 . S
C247 C246 1.378 . S
C247 H275 0.931 . S
C248 O262 1.259 . S
C248 O263 1.270 . S
C249 O264 1.251 . S
C249 O265 1.251 . S
C250 Eu251 2.835 . S
C250 C252 1.500 . S
C250 O266 1.257 . S
C250 O267 1.260 . S
Eu251 C250 2.835 . S
Eu251 O263 2.355 . S
Eu251 O265 2.374 . S
Eu251 O266 2.473 . S
Eu251 O267 2.480 . S
Eu251 O268 2.430 . S
Eu251 O269 2.670 . S
Eu251 O270 2.394 . S
C252 C250 1.500 . S
C252 C253 1.377 . S
C252 C257 1.377 . S
C253 C252 1.377 . S
C253 C254 1.395 . S
C253 H276 0.931 . S
C254 C253 1.395 . S
C254 C255 1.383 . S
C254 H277 0.931 . S
C255 C254 1.383 . S
C255 C256 1.394 . S
C256 C255 1.394 . S
C256 C257 1.378 . S
C256 H278 0.931 . S
C257 C252 1.377 . S
C257 C256 1.378 . S
C257 H279 0.931 . S
C258 O268 1.259 . S
C258 O269 1.270 . S
C259 O270 1.251 . S
C259 O271 1.251 . S
O260 C240 1.257 . S
O260 Eu241 2.473 . S
O261 C240 1.260 . S
O261 Eu241 2.480 . S
O262 Eu241 2.430 . S
O262 C248 1.259 . S
O263 Eu241 2.670 . S
O263 C248 1.270 . S
O263 Eu251 2.355 . S
O264 Eu241 2.394 . S
O264 C249 1.251 . S
O265 C249 1.251 . S
O265 Eu251 2.374 . S
O266 C250 1.257 . S
O266 Eu251 2.473 . S
O267 C250 1.260 . S
O267 Eu251 2.480 . S
O268 Eu251 2.430 . S
O268 C258 1.259 . S
O269 Eu241 2.355 . S
O269 Eu251 2.670 . S
O269 C258 1.270 . S
O270 Eu251 2.394 . S
O270 C259 1.251 . S
O271 Eu241 2.374 . S
O271 C259 1.251 . S
H272 C243 0.931 . S
H273 C244 0.931 . S
H274 C246 0.931 . S
H275 C247 0.931 . S
H276 C253 0.931 . S
H277 C254 0.931 . S
H278 C256 0.931 . S
H279 C257 0.931 . S
C280 Eu281 2.835 . S
C280 C282 1.500 . S
C280 O300 1.257 . S
C280 O301 1.260 . S
Eu281 C280 2.835 . S
Eu281 O300 2.473 . S
Eu281 O301 2.480 . S
Eu281 O302 2.430 . S
Eu281 O303 2.670 . S
Eu281 O304 2.394 . S
Eu281 O309 2.355 . S
Eu281 O311 2.374 . S
C282 C280 1.500 . S
C282 C283 1.377 . S
C282 C287 1.377 . S
C283 C282 1.377 . S
C283 C284 1.395 . S
C283 H312 0.931 . S
C284 C283 1.395 . S
C284 C285 1.383 . S
C284 H313 0.931 . S
C285 C284 1.383 . S
C285 C286 1.394 . S
C286 C285 1.394 . S
C286 C287 1.378 . S
C286 H314 0.931 . S
C287 C282 1.377 . S
C287 C286 1.378 . S
C287 H315 0.931 . S
C288 O302 1.259 . S
C288 O303 1.270 . S
C289 O304 1.251 . S
C289 O305 1.251 . S
C290 Eu291 2.835 . S
C290 C292 1.500 . S
C290 O306 1.257 . S
C290 O307 1.260 . S
Eu291 C290 2.835 . S
Eu291 O303 2.355 . S
Eu291 O305 2.374 . S
Eu291 O306 2.473 . S
Eu291 O307 2.480 . S
Eu291 O308 2.430 . S
Eu291 O309 2.670 . S
Eu291 O310 2.394 . S
C292 C290 1.500 . S
C292 C293 1.377 . S
C292 C297 1.377 . S
C293 C292 1.377 . S
C293 C294 1.395 . S
C293 H316 0.931 . S
C294 C293 1.395 . S
C294 C295 1.383 . S
C294 H317 0.931 . S
C295 C294 1.383 . S
C295 C296 1.394 . S
C296 C295 1.394 . S
C296 C297 1.378 . S
C296 H318 0.931 . S
C297 C292 1.377 . S
C297 C296 1.378 . S
C297 H319 0.931 . S
C298 O308 1.259 . S
C298 O309 1.270 . S
C299 O310 1.251 . S
C299 O311 1.251 . S
O300 C280 1.257 . S
O300 Eu281 2.473 . S
O301 C280 1.260 . S
O301 Eu281 2.480 . S
O302 Eu281 2.430 . S
O302 C288 1.259 . S
O303 Eu281 2.670 . S
O303 C288 1.270 . S
O303 Eu291 2.355 . S
O304 Eu281 2.394 . S
O304 C289 1.251 . S
O305 C289 1.251 . S
O305 Eu291 2.374 . S
O306 C290 1.257 . S
O306 Eu291 2.473 . S
O307 C290 1.260 . S
O307 Eu291 2.480 . S
O308 Eu291 2.430 . S
O308 C298 1.259 . S
O309 Eu281 2.355 . S
O309 Eu291 2.670 . S
O309 C298 1.270 . S
O310 Eu291 2.394 . S
O310 C299 1.251 . S
O311 Eu281 2.374 . S
O311 C299 1.251 . S
H312 C283 0.931 . S
H313 C284 0.931 . S
H314 C286 0.931 . S
H315 C287 0.931 . S
H316 C293 0.931 . S
H317 C294 0.931 . S
H318 C296 0.931 . S
H319 C297 0.931 . S
C320 Eu321 2.835 . S
C320 C322 1.500 . S
C320 O340 1.257 . S
C320 O341 1.260 . S
Eu321 C320 2.835 . S
Eu321 O340 2.473 . S
Eu321 O341 2.480 . S
Eu321 O342 2.430 . S
Eu321 O343 2.670 . S
Eu321 O344 2.394 . S
Eu321 O349 2.355 . S
Eu321 O351 2.374 . S
C322 C320 1.500 . S
C322 C323 1.377 . S
C322 C327 1.377 . S
C323 C322 1.377 . S
C323 C324 1.395 . S
C323 H352 0.931 . S
C324 C323 1.395 . S
C324 C325 1.383 . S
C324 H353 0.931 . S
C325 C324 1.383 . S
C325 C326 1.394 . S
C326 C325 1.394 . S
C326 C327 1.378 . S
C326 H354 0.931 . S
C327 C322 1.377 . S
C327 C326 1.378 . S
C327 H355 0.931 . S
C328 O342 1.259 . S
C328 O343 1.270 . S
C329 O344 1.251 . S
C329 O345 1.251 . S
C330 Eu331 2.835 . S
C330 C332 1.500 . S
C330 O346 1.257 . S
C330 O347 1.260 . S
Eu331 C330 2.835 . S
Eu331 O343 2.355 . S
Eu331 O345 2.374 . S
Eu331 O346 2.473 . S
Eu331 O347 2.480 . S
Eu331 O348 2.430 . S
Eu331 O349 2.670 . S
Eu331 O350 2.394 . S
C332 C330 1.500 . S
C332 C333 1.377 . S
C332 C337 1.377 . S
C333 C332 1.377 . S
C333 C334 1.395 . S
C333 H356 0.931 . S
C334 C333 1.395 . S
C334 C335 1.383 . S
C334 H357 0.931 . S
C335 C334 1.383 . S
C335 C336 1.394 . S
C336 C335 1.394 . S
C336 C337 1.378 . S
C336 H358 0.931 . S
C337 C332 1.377 . S
C337 C336 1.378 . S
C337 H359 0.931 . S
C338 O348 1.259 . S
C338 O349 1.270 . S
C339 O350 1.251 . S
C339 O351 1.251 . S
O340 C320 1.257 . S
O340 Eu321 2.473 . S
O341 C320 1.260 . S
O341 Eu321 2.480 . S
O342 Eu321 2.430 . S
O342 C328 1.259 . S
O343 Eu321 2.670 . S
O343 C328 1.270 . S
O343 Eu331 2.355 . S
O344 Eu321 2.394 . S
O344 C329 1.251 . S
O345 C329 1.251 . S
O345 Eu331 2.374 . S
O346 C330 1.257 . S
O346 Eu331 2.473 . S
O347 C330 1.260 . S
O347 Eu331 2.480 . S
O348 Eu331 2.430 . S
O348 C338 1.259 . S
O349 Eu321 2.355 . S
O349 Eu331 2.670 . S
O349 C338 1.270 . S
O350 Eu331 2.394 . S
O350 C339 1.251 . S
O351 Eu321 2.374 . S
O351 C339 1.251 . S
H352 C323 0.931 . S
H353 C324 0.931 . S
H354 C326 0.931 . S
H355 C327 0.931 . S
H356 C333 0.931 . S
H357 C334 0.931 . S
H358 C336 0.931 . S
H359 C337 0.931 . S
C360 Eu361 2.835 . S
C360 C362 1.500 . S
C360 O380 1.257 . S
C360 O381 1.260 . S
Eu361 C360 2.835 . S
Eu361 O380 2.473 . S
Eu361 O381 2.480 . S
Eu361 O382 2.430 . S
Eu361 O383 2.670 . S
Eu361 O384 2.394 . S
Eu361 O389 2.355 . S
Eu361 O391 2.374 . S
C362 C360 1.500 . S
C362 C363 1.377 . S
C362 C367 1.369 1_554 S
C363 C362 1.377 . S
C363 C364 1.395 1_554 S
C363 H392 0.931 . S
C364 C363 1.395 1_556 S
C364 C365 1.383 . S
C364 H393 0.931 . S
C365 C364 1.383 . S
C365 C366 1.394 . S
C366 C365 1.394 . S
C366 C367 1.392 . S
C366 H394 0.931 . S
C367 C362 1.369 1_556 S
C367 C366 1.392 . S
C367 H395 0.925 1_556 S
C368 O382 1.259 . S
C368 O383 1.270 . S
C369 O384 1.251 . S
C369 O385 1.251 . S
C370 Eu371 2.835 . S
C370 C372 1.500 . S
C370 O386 1.257 . S
C370 O387 1.260 . S
Eu371 C370 2.835 . S
Eu371 O383 2.355 . S
Eu371 O385 2.374 . S
Eu371 O386 2.473 . S
Eu371 O387 2.480 . S
Eu371 O388 2.430 . S
Eu371 O389 2.670 . S
Eu371 O390 2.394 . S
C372 C370 1.500 . S
C372 C373 1.377 . S
C372 C377 1.377 . S
C373 C372 1.377 . S
C373 C374 1.395 . S
C373 H396 0.931 . S
C374 C373 1.395 . S
C374 C375 1.383 . S
C374 H397 0.931 . S
C375 C374 1.383 . S
C375 C376 1.394 . S
C376 C375 1.394 . S
C376 C377 1.378 . S
C376 H398 0.931 . S
C377 C372 1.377 . S
C377 C376 1.378 . S
C377 H399 0.931 . S
C378 O388 1.259 . S
C378 O389 1.270 . S
C379 O390 1.251 . S
C379 O391 1.251 . S
O380 C360 1.257 . S
O380 Eu361 2.473 . S
O381 C360 1.260 . S
O381 Eu361 2.480 . S
O382 Eu361 2.430 . S
O382 C368 1.259 . S
O383 Eu361 2.670 . S
O383 C368 1.270 . S
O383 Eu371 2.355 . S
O384 Eu361 2.394 . S
O384 C369 1.251 . S
O385 C369 1.251 . S
O385 Eu371 2.374 . S
O386 C370 1.257 . S
O386 Eu371 2.473 . S
O387 C370 1.260 . S
O387 Eu371 2.480 . S
O388 Eu371 2.430 . S
O388 C378 1.259 . S
O389 Eu361 2.355 . S
O389 Eu371 2.670 . S
O389 C378 1.270 . S
O390 Eu371 2.394 . S
O390 C379 1.251 . S
O391 Eu361 2.374 . S
O391 C379 1.251 . S
H392 C363 0.931 . S
H393 C364 0.931 . S
H394 C366 0.931 . S
H395 C367 0.925 1_554 S
H396 C373 0.931 . S
H397 C374 0.931 . S
H398 C376 0.931 . S
H399 C377 0.931 . S
C400 Eu401 2.835 . S
C400 C402 1.500 . S
C400 O420 1.257 . S
C400 O421 1.260 . S
Eu401 C400 2.835 . S
Eu401 O420 2.473 . S
Eu401 O421 2.480 . S
Eu401 O422 2.430 . S
Eu401 O423 2.670 . S
Eu401 O424 2.394 . S
Eu401 O429 2.355 . S
Eu401 O431 2.374 . S
C402 C400 1.500 . S
C402 C403 1.377 . S
C402 C407 1.377 . S
C403 C402 1.377 . S
C403 C404 1.395 . S
C403 H432 0.931 . S
C404 C403 1.395 . S
C404 C405 1.383 . S
C404 H433 0.931 . S
C405 C404 1.383 . S
C405 C406 1.394 . S
C406 C405 1.394 . S
C406 C407 1.378 . S
C406 H434 0.931 . S
C407 C402 1.377 . S
C407 C406 1.378 . S
C407 H435 0.931 . S
C408 O422 1.259 . S
C408 O423 1.270 . S
C409 O424 1.251 . S
C409 O425 1.251 . S
C410 Eu411 2.835 . S
C410 C412 1.500 1_556 S
C410 O426 1.257 . S
C410 O427 1.260 . S
Eu411 C410 2.835 . S
Eu411 O423 2.355 . S
Eu411 O425 2.374 . S
Eu411 O426 2.473 . S
Eu411 O427 2.480 . S
Eu411 O428 2.430 . S
Eu411 O429 2.670 . S
Eu411 O430 2.394 . S
C412 C410 1.500 1_554 S
C412 C413 1.377 . S
C412 C417 1.377 . S
C413 C412 1.377 . S
C413 C414 1.395 . S
C413 H436 0.931 . S
C414 C413 1.395 . S
C414 C415 1.383 . S
C414 H437 0.931 . S
C415 C414 1.383 . S
C415 C416 1.394 . S
C416 C415 1.394 . S
C416 C417 1.378 . S
C416 H438 0.931 . S
C417 C412 1.377 . S
C417 C416 1.378 . S
C417 H439 0.931 . S
C418 O428 1.259 . S
C418 O429 1.270 . S
C419 O430 1.251 . S
C419 O431 1.251 . S
O420 C400 1.257 . S
O420 Eu401 2.473 . S
O421 C400 1.260 . S
O421 Eu401 2.480 . S
O422 Eu401 2.430 . S
O422 C408 1.259 . S
O423 Eu401 2.670 . S
O423 C408 1.270 . S
O423 Eu411 2.355 . S
O424 Eu401 2.394 . S
O424 C409 1.251 . S
O425 C409 1.251 . S
O425 Eu411 2.374 . S
O426 C410 1.257 . S
O426 Eu411 2.473 . S
O427 C410 1.260 . S
O427 Eu411 2.480 . S
O428 Eu411 2.430 . S
O428 C418 1.259 . S
O429 Eu401 2.355 . S
O429 Eu411 2.670 . S
O429 C418 1.270 . S
O430 Eu411 2.394 . S
O430 C419 1.251 . S
O431 Eu401 2.374 . S
O431 C419 1.251 . S
H432 C403 0.931 . S
H433 C404 0.931 . S
H434 C406 0.931 . S
H435 C407 0.931 . S
H436 C413 0.931 . S
H437 C414 0.931 . S
H438 C416 0.931 . S
H439 C417 0.931 . S
C440 Eu441 2.835 . S
C440 C442 1.500 . S
C440 O460 1.257 . S
C440 O461 1.260 . S
Eu441 C440 2.835 . S
Eu441 O460 2.473 . S
Eu441 O461 2.480 . S
Eu441 O462 2.430 . S
Eu441 O463 2.670 . S
Eu441 O464 2.394 . S
Eu441 O469 2.355 . S
Eu441 O471 2.374 . S
C442 C440 1.500 . S
C442 C443 1.377 . S
C442 C447 1.377 . S
C443 C442 1.377 . S
C443 C444 1.395 . S
C443 H472 0.931 . S
C444 C443 1.395 . S
C444 C445 1.383 . S
C444 H473 0.931 . S
C445 C444 1.383 . S
C445 C446 1.394 . S
C446 C445 1.394 . S
C446 C447 1.378 . S
C446 H474 0.931 . S
C447 C442 1.377 . S
C447 C446 1.378 . S
C447 H475 0.931 . S
C448 O462 1.259 . S
C448 O463 1.270 . S
C449 O464 1.251 . S
C449 O465 1.251 . S
C450 Eu451 2.835 . S
C450 C452 1.500 . S
C450 O466 1.257 . S
C450 O467 1.260 . S
Eu451 C450 2.835 . S
Eu451 O463 2.355 . S
Eu451 O465 2.374 . S
Eu451 O466 2.473 . S
Eu451 O467 2.480 . S
Eu451 O468 2.430 . S
Eu451 O469 2.670 . S
Eu451 O470 2.394 . S
C452 C450 1.500 . S
C452 C453 1.377 . S
C452 C457 1.377 . S
C453 C452 1.377 . S
C453 C454 1.395 . S
C453 H476 0.931 . S
C454 C453 1.395 . S
C454 C455 1.383 . S
C454 H477 0.931 . S
C455 C454 1.383 . S
C455 C456 1.394 . S
C456 C455 1.394 . S
C456 C457 1.378 . S
C456 H478 0.931 . S
C457 C452 1.377 . S
C457 C456 1.378 . S
C457 H479 0.931 . S
C458 O468 1.259 . S
C458 O469 1.270 . S
C459 O470 1.251 . S
C459 O471 1.251 . S
O460 C440 1.257 . S
O460 Eu441 2.473 . S
O461 C440 1.260 . S
O461 Eu441 2.480 . S
O462 Eu441 2.430 . S
O462 C448 1.259 . S
O463 Eu441 2.670 . S
O463 C448 1.270 . S
O463 Eu451 2.355 . S
O464 Eu441 2.394 . S
O464 C449 1.251 . S
O465 C449 1.251 . S
O465 Eu451 2.374 . S
O466 C450 1.257 . S
O466 Eu451 2.473 . S
O467 C450 1.260 . S
O467 Eu451 2.480 . S
O468 Eu451 2.430 . S
O468 C458 1.259 . S
O469 Eu441 2.355 . S
O469 Eu451 2.670 . S
O469 C458 1.270 . S
O470 Eu451 2.394 . S
O470 C459 1.251 . S
O471 Eu441 2.374 . S
O471 C459 1.251 . S
H472 C443 0.931 . S
H473 C444 0.931 . S
H474 C446 0.931 . S
H475 C447 0.931 . S
H476 C453 0.931 . S
H477 C454 0.931 . S
H478 C456 0.931 . S
H479 C457 0.931 . S
C480 Eu481 2.835 . S
C480 C482 1.500 . S
C480 O500 1.257 . S
C480 O501 1.260 . S
Eu481 C480 2.835 . S
Eu481 O500 2.473 . S
Eu481 O501 2.480 . S
Eu481 O502 2.430 . S
Eu481 O503 2.670 . S
Eu481 O504 2.394 . S
Eu481 O509 2.355 . S
Eu481 O511 2.374 . S
C482 C480 1.500 . S
C482 C483 1.377 . S
C482 C487 1.377 . S
C483 C482 1.377 . S
C483 C484 1.395 . S
C483 H512 0.931 . S
C484 C483 1.395 . S
C484 C485 1.383 . S
C484 H513 0.931 . S
C485 C484 1.383 . S
C485 C486 1.394 . S
C486 C485 1.394 . S
C486 C487 1.378 . S
C486 H514 0.931 . S
C487 C482 1.377 . S
C487 C486 1.378 . S
C487 H515 0.931 . S
C488 O502 1.259 . S
C488 O503 1.270 . S
C489 O504 1.251 . S
C489 O505 1.251 . S
C490 Eu491 2.835 . S
C490 C492 1.500 . S
C490 O506 1.257 . S
C490 O507 1.260 . S
Eu491 C490 2.835 . S
Eu491 O503 2.355 . S
Eu491 O505 2.374 . S
Eu491 O506 2.473 . S
Eu491 O507 2.480 . S
Eu491 O508 2.430 . S
Eu491 O509 2.670 . S
Eu491 O510 2.394 . S
C492 C490 1.500 . S
C492 C493 1.377 . S
C492 C497 1.377 . S
C493 C492 1.377 . S
C493 C494 1.395 . S
C493 H516 0.931 . S
C494 C493 1.395 . S
C494 C495 1.383 . S
C494 H517 0.931 . S
C495 C494 1.383 . S
C495 C496 1.394 . S
C496 C495 1.394 . S
C496 C497 1.378 . S
C496 H518 0.931 . S
C497 C492 1.377 . S
C497 C496 1.378 . S
C497 H519 0.931 . S
C498 O508 1.259 . S
C498 O509 1.270 . S
C499 O510 1.251 . S
C499 O511 1.251 . S
O500 C480 1.257 . S
O500 Eu481 2.473 . S
O501 C480 1.260 . S
O501 Eu481 2.480 . S
O502 Eu481 2.430 . S
O502 C488 1.259 . S
O503 Eu481 2.670 . S
O503 C488 1.270 . S
O503 Eu491 2.355 . S
O504 Eu481 2.394 . S
O504 C489 1.251 . S
O505 C489 1.251 . S
O505 Eu491 2.374 . S
O506 C490 1.257 . S
O506 Eu491 2.473 . S
O507 C490 1.260 . S
O507 Eu491 2.480 . S
O508 Eu491 2.430 . S
O508 C498 1.259 . S
O509 Eu481 2.355 . S
O509 Eu491 2.670 . S
O509 C498 1.270 . S
O510 Eu491 2.394 . S
O510 C499 1.251 . S
O511 Eu481 2.374 . S
O511 C499 1.251 . S
H512 C483 0.931 . S
H513 C484 0.931 . S
H514 C486 0.931 . S
H515 C487 0.931 . S
H516 C493 0.931 . S
H517 C494 0.931 . S
H518 C496 0.931 . S
H519 C497 0.931 . S
C520 Eu521 2.835 1_556 S
C520 C522 1.500 . S
C520 O540 1.257 1_556 S
C520 O541 1.260 1_556 S
Eu521 C520 2.835 1_554 S
Eu521 O540 2.473 . S
Eu521 O541 2.480 . S
Eu521 O542 2.430 . S
Eu521 O543 2.670 . S
Eu521 O544 2.394 . S
Eu521 O549 2.355 . S
Eu521 O551 2.374 . S
C522 C520 1.500 . S
C522 C523 1.377 . S
C522 C527 1.377 . S
C523 C522 1.377 . S
C523 C524 1.395 . S
C523 H552 0.931 . S
C524 C523 1.395 . S
C524 C525 1.383 . S
C524 H553 0.931 . S
C525 C524 1.383 . S
C525 C526 1.394 . S
C526 C525 1.394 . S
C526 C527 1.378 . S
C526 H554 0.931 . S
C527 C522 1.377 . S
C527 C526 1.378 . S
C527 H555 0.931 . S
C528 O542 1.259 . S
C528 O543 1.270 . S
C529 O544 1.251 . S
C529 O545 1.251 . S
C530 Eu531 2.840 . S
C530 C532 1.495 1_455 S
C530 O546 1.268 . S
C530 O547 1.255 1_455 S
Eu531 C530 2.840 . S
Eu531 O543 2.355 . S
Eu531 O545 2.374 . S
Eu531 O546 2.473 . S
Eu531 O547 2.480 1_455 S
Eu531 O548 2.430 . S
Eu531 O549 2.670 . S
Eu531 O550 2.394 . S
C532 C530 1.495 1_655 S
C532 C533 1.377 . S
C532 C537 1.377 . S
C533 C532 1.377 . S
C533 C534 1.395 . S
C533 H556 0.931 . S
C534 C533 1.395 . S
C534 C535 1.383 . S
C534 H557 0.931 . S
C535 C534 1.383 . S
C535 C536 1.394 . S
C536 C535 1.394 . S
C536 C537 1.378 . S
C536 H558 0.931 . S
C537 C532 1.377 . S
C537 C536 1.378 . S
C537 H559 0.931 1_655 S
C538 O548 1.259 . S
C538 O549 1.270 . S
C539 O550 1.251 . S
C539 O551 1.251 . S
O540 C520 1.257 1_554 S
O540 Eu521 2.473 . S
O541 C520 1.260 1_554 S
O541 Eu521 2.480 . S
O542 Eu521 2.430 . S
O542 C528 1.259 . S
O543 Eu521 2.670 . S
O543 C528 1.270 . S
O543 Eu531 2.355 . S
O544 Eu521 2.394 . S
O544 C529 1.251 . S
O545 C529 1.251 . S
O545 Eu531 2.374 . S
O546 C530 1.268 . S
O546 Eu531 2.473 . S
O547 C530 1.255 1_655 S
O547 Eu531 2.480 1_655 S
O548 Eu531 2.430 . S
O548 C538 1.259 . S
O549 Eu521 2.355 . S
O549 Eu531 2.670 . S
O549 C538 1.270 . S
O550 Eu531 2.394 . S
O550 C539 1.251 . S
O551 Eu521 2.374 . S
O551 C539 1.251 . S
H552 C523 0.931 . S
H553 C524 0.931 . S
H554 C526 0.931 . S
H555 C527 0.931 . S
H556 C533 0.931 . S
H557 C534 0.931 . S
H558 C536 0.931 . S
H559 C537 0.931 1_455 S
C560 Eu561 2.835 . S
C560 C562 1.500 . S
C560 O580 1.257 . S
C560 O581 1.260 . S
Eu561 C560 2.835 . S
Eu561 O580 2.473 . S
Eu561 O581 2.480 . S
Eu561 O582 2.430 . S
Eu561 O583 2.670 . S
Eu561 O584 2.394 . S
Eu561 O589 2.355 . S
Eu561 O591 2.374 . S
C562 C560 1.500 . S
C562 C563 1.377 . S
C562 C567 1.377 . S
C563 C562 1.377 . S
C563 C564 1.395 . S
C563 H592 0.931 . S
C564 C563 1.395 . S
C564 C565 1.383 . S
C564 H593 0.931 . S
C565 C564 1.383 . S
C565 C566 1.394 . S
C566 C565 1.394 . S
C566 C567 1.378 . S
C566 H594 0.931 . S
C567 C562 1.377 . S
C567 C566 1.378 . S
C567 H595 0.931 . S
C568 O582 1.259 . S
C568 O583 1.270 . S
C569 O584 1.251 . S
C569 O585 1.251 . S
C570 Eu571 2.835 . S
C570 C572 1.500 . S
C570 O586 1.257 . S
C570 O587 1.260 . S
Eu571 C570 2.835 . S
Eu571 O583 2.355 . S
Eu571 O585 2.374 . S
Eu571 O586 2.473 . S
Eu571 O587 2.480 . S
Eu571 O588 2.430 . S
Eu571 O589 2.670 . S
Eu571 O590 2.394 . S
C572 C570 1.500 . S
C572 C573 1.377 . S
C572 C577 1.377 . S
C573 C572 1.377 . S
C573 C574 1.395 . S
C573 H596 0.931 . S
C574 C573 1.395 . S
C574 C575 1.383 . S
C574 H597 0.931 . S
C575 C574 1.383 . S
C575 C576 1.394 . S
C576 C575 1.394 . S
C576 C577 1.378 . S
C576 H598 0.931 . S
C577 C572 1.377 . S
C577 C576 1.378 . S
C577 H599 0.931 . S
C578 O588 1.259 . S
C578 O589 1.270 . S
C579 O590 1.251 . S
C579 O591 1.251 . S
O580 C560 1.257 . S
O580 Eu561 2.473 . S
O581 C560 1.260 . S
O581 Eu561 2.480 . S
O582 Eu561 2.430 . S
O582 C568 1.259 . S
O583 Eu561 2.670 . S
O583 C568 1.270 . S
O583 Eu571 2.355 . S
O584 Eu561 2.394 . S
O584 C569 1.251 . S
O585 C569 1.251 . S
O585 Eu571 2.374 . S
O586 C570 1.257 . S
O586 Eu571 2.473 . S
O587 C570 1.260 . S
O587 Eu571 2.480 . S
O588 Eu571 2.430 . S
O588 C578 1.259 . S
O589 Eu561 2.355 . S
O589 Eu571 2.670 . S
O589 C578 1.270 . S
O590 Eu571 2.394 . S
O590 C579 1.251 . S
O591 Eu561 2.374 . S
O591 C579 1.251 . S
H592 C563 0.931 . S
H593 C564 0.931 . S
H594 C566 0.931 . S
H595 C567 0.931 . S
H596 C573 0.931 . S
H597 C574 0.931 . S
H598 C576 0.931 . S
H599 C577 0.931 . S
C600 Eu601 2.835 . S
C600 C602 1.500 . S
C600 O620 1.257 . S
C600 O621 1.260 . S
Eu601 C600 2.835 . S
Eu601 O620 2.473 . S
Eu601 O621 2.480 . S
Eu601 O622 2.430 . S
Eu601 O623 2.670 . S
Eu601 O624 2.394 . S
Eu601 O629 2.355 . S
Eu601 O631 2.374 . S
C602 C600 1.500 . S
C602 C603 1.377 . S
C602 C607 1.377 . S
C603 C602 1.377 . S
C603 C604 1.395 1_556 S
C603 H632 0.931 . S
C604 C603 1.395 1_554 S
C604 C605 1.383 . S
C604 H633 0.931 . S
C605 C604 1.383 . S
C605 C606 1.394 . S
C606 C605 1.394 . S
C606 C607 1.378 1_554 S
C606 H634 0.931 . S
C607 C602 1.377 . S
C607 C606 1.378 1_556 S
C607 H635 0.931 . S
C608 O622 1.259 . S
C608 O623 1.270 . S
C609 O624 1.251 . S
C609 O625 1.251 . S
C610 Eu611 2.835 . S
C610 C612 1.500 . S
C610 O626 1.257 . S
C610 O627 1.260 . S
Eu611 C610 2.835 . S
Eu611 O623 2.355 . S
Eu611 O625 2.374 . S
Eu611 O626 2.473 . S
Eu611 O627 2.480 . S
Eu611 O628 2.430 . S
Eu611 O629 2.670 . S
Eu611 O630 2.394 . S
C612 C610 1.500 . S
C612 C613 1.377 . S
C612 C617 1.377 . S
C613 C612 1.377 . S
C613 C614 1.395 1_455 S
C613 H636 0.931 . S
C614 C613 1.395 1_655 S
C614 C615 1.383 . S
C614 H637 0.931 . S
C615 C614 1.383 . S
C615 C616 1.394 1_655 S
C616 C615 1.394 1_455 S
C616 C617 1.378 . S
C616 H638 0.931 . S
C617 C612 1.377 . S
C617 C616 1.378 . S
C617 H639 0.931 . S
C618 O628 1.259 . S
C618 O629 1.270 . S
C619 O630 1.251 . S
C619 O631 1.251 . S
O620 C600 1.257 . S
O620 Eu601 2.473 . S
O621 C600 1.260 . S
O621 Eu601 2.480 . S
O622 Eu601 2.430 . S
O622 C608 1.259 . S
O623 Eu601 2.670 . S
O623 C608 1.270 . S
O623 Eu611 2.355 . S
O624 Eu601 2.394 . S
O624 C609 1.251 . S
O625 C609 1.251 . S
O625 Eu611 2.374 . S
O626 C610 1.257 . S
O626 Eu611 2.473 . S
O627 C610 1.260 . S
O627 Eu611 2.480 . S
O628 Eu611 2.430 . S
O628 C618 1.259 . S
O629 Eu601 2.355 . S
O629 Eu611 2.670 . S
O629 C618 1.270 . S
O630 Eu611 2.394 . S
O630 C619 1.251 . S
O631 Eu601 2.374 . S
O631 C619 1.251 . S
H632 C603 0.931 . S
H633 C604 0.931 . S
H634 C606 0.931 . S
H635 C607 0.931 . S
H636 C613 0.931 . S
H637 C614 0.931 . S
H638 C616 0.931 . S
H639 C617 0.931 . S
H640 C648 0.929 . S
H641 C650 0.930 1_556 S
H642 C652 0.930 . S
H643 C655 0.929 . S
H644 C658 0.930 . S
H645 C660 0.960 . S
H646 C660 0.960 . S
H647 C660 0.960 . S
C648 H640 0.929 . S
C648 C649 1.377 . S
C648 C650 1.384 . S
C649 C648 1.377 . S
C649 C655 1.390 . S
C650 H641 0.930 1_554 S
C650 C648 1.384 . S
C650 C651 1.374 . S
C651 C650 1.374 . S
C651 C652 1.430 . S
C651 C656 1.460 1_554 S
C652 H642 0.930 . S
C652 C651 1.430 . S
C652 C655 1.386 . S
H653 C669 0.930 . S
H654 C670 0.931 . S
C655 H643 0.929 . S
C655 C649 1.390 . S
C655 C652 1.386 . S
C656 C651 1.460 1_556 S
C656 C658 1.395 . S
C656 C659 1.403 . S
H657 C663 0.930 . S
C658 H644 0.930 . S
C658 C656 1.395 . S
C658 C661 1.403 . S
C659 C656 1.403 . S
C659 C660 1.524 . S
C659 C663 1.400 . S
C660 H645 0.960 . S
C660 H646 0.960 . S
C660 H647 0.960 . S
C660 C659 1.524 . S
C661 C658 1.403 . S
C661 C662 1.392 . S
C661 C665 1.495 . S
C662 C661 1.392 . S
C662 C663 1.385 . S
C662 C664 1.478 . S
C663 H657 0.930 . S
C663 C659 1.400 . S
C663 C662 1.385 . S
C664 C662 1.478 . S
C664 C666 1.381 . S
C664 C670 1.383 . S
C665 C661 1.495 . S
C665 H671 0.959 . S
C665 H672 0.961 . S
C665 H673 0.960 . S
C666 C664 1.381 . S
C666 C667 1.394 . S
C666 H674 0.930 . S
C667 C666 1.394 . S
C667 C668 1.383 . S
C667 H675 0.929 . S
C668 C667 1.383 . S
C668 C669 1.377 . S
C669 H653 0.930 . S
C669 C668 1.377 . S
C669 C670 1.379 . S
C670 H654 0.931 . S
C670 C664 1.383 . S
C670 C669 1.379 . S
H671 C665 0.959 . S
H672 C665 0.961 . S
H673 C665 0.960 . S
H674 C666 0.930 . S
H675 C667 0.929 . S
H676 C684 0.929 . S
H677 C686 0.930 . S
H678 C688 0.930 . S
H679 C691 0.929 . S
H680 C694 0.930 . S
H681 C696 0.960 . S
H682 C696 0.960 . S
H683 C696 0.960 . S
C684 H676 0.929 . S
C684 C685 1.377 . S
C684 C686 1.384 . S
C685 C684 1.377 . S
C685 C691 1.390 . S
C686 H677 0.930 . S
C686 C684 1.384 . S
C686 C687 1.372 . S
C687 C686 1.372 . S
C687 C688 1.400 . S
C687 C692 1.490 . S
C688 H678 0.930 . S
C688 C687 1.400 . S
C688 C691 1.386 . S
H689 C705 0.930 . S
H690 C706 0.931 . S
C691 H679 0.929 . S
C691 C685 1.390 . S
C691 C688 1.386 . S
C692 C687 1.490 . S
C692 C694 1.395 . S
C692 C695 1.403 . S
H693 C699 0.930 . S
C694 H680 0.930 . S
C694 C692 1.395 . S
C694 C697 1.403 . S
C695 C692 1.403 . S
C695 C696 1.524 . S
C695 C699 1.400 . S
C696 H681 0.960 . S
C696 H682 0.960 . S
C696 H683 0.960 . S
C696 C695 1.524 . S
C697 C694 1.403 . S
C697 C698 1.392 . S
C697 C701 1.495 . S
C698 C697 1.392 . S
C698 C699 1.385 . S
C698 C700 1.478 . S
C699 H693 0.930 . S
C699 C695 1.400 . S
C699 C698 1.385 . S
C700 C698 1.478 . S
C700 C702 1.381 . S
C700 C706 1.383 . S
C701 C697 1.495 . S
C701 H707 0.959 . S
C701 H708 0.961 . S
C701 H709 0.960 . S
C702 C700 1.381 . S
C702 C703 1.394 . S
C702 H710 0.930 . S
C703 C702 1.394 . S
C703 C704 1.383 . S
C703 H711 0.929 . S
C704 C703 1.383 . S
C704 C705 1.377 . S
C705 H689 0.930 . S
C705 C704 1.377 . S
C705 C706 1.379 . S
C706 H690 0.931 . S
C706 C700 1.383 . S
C706 C705 1.379 . S
H707 C701 0.959 . S
H708 C701 0.961 . S
H709 C701 0.960 . S
H710 C702 0.930 . S
H711 C703 0.929 . S
H712 C720 0.929 . S
H713 C722 0.930 . S
H714 C724 0.930 . S
H715 C727 0.929 . S
H716 C730 0.930 . S
H717 C732 0.960 . S
H718 C732 0.960 . S
H719 C732 0.960 . S
C720 H712 0.929 . S
C720 C721 1.377 . S
C720 C722 1.384 . S
C721 C720 1.377 . S
C721 C727 1.390 . S
C722 H713 0.930 . S
C722 C720 1.384 . S
C722 C723 1.372 . S
C723 C722 1.372 . S
C723 C724 1.400 . S
C723 C728 1.490 . S
C724 H714 0.930 . S
C724 C723 1.400 . S
C724 C727 1.386 . S
H725 C741 0.930 . S
H726 C742 0.931 . S
C727 H715 0.929 . S
C727 C721 1.390 . S
C727 C724 1.386 . S
C728 C723 1.490 . S
C728 C730 1.395 . S
C728 C731 1.403 . S
H729 C735 0.930 . S
C730 H716 0.930 . S
C730 C728 1.395 . S
C730 C733 1.403 . S
C731 C728 1.403 . S
C731 C732 1.524 . S
C731 C735 1.400 . S
C732 H717 0.960 . S
C732 H718 0.960 . S
C732 H719 0.960 . S
C732 C731 1.524 . S
C733 C730 1.403 . S
C733 C734 1.392 . S
C733 C737 1.495 . S
C734 C733 1.392 . S
C734 C735 1.385 . S
C734 C736 1.478 . S
C735 H729 0.930 . S
C735 C731 1.400 . S
C735 C734 1.385 . S
C736 C734 1.478 . S
C736 C738 1.381 . S
C736 C742 1.383 . S
C737 C733 1.495 . S
C737 H743 0.959 . S
C737 H744 0.961 . S
C737 H745 0.960 . S
C738 C736 1.381 . S
C738 C739 1.394 . S
C738 H746 0.930 . S
C739 C738 1.394 . S
C739 C740 1.383 . S
C739 H747 0.929 . S
C740 C739 1.383 . S
C740 C741 1.377 . S
C741 H725 0.930 . S
C741 C740 1.377 . S
C741 C742 1.379 . S
C742 H726 0.931 . S
C742 C736 1.383 . S
C742 C741 1.379 . S
H743 C737 0.959 . S
H744 C737 0.961 . S
H745 C737 0.960 . S
H746 C738 0.930 . S
H747 C739 0.929 . S
H748 C756 0.929 . S
H749 C758 0.930 . S
H750 C760 0.930 . S
H751 C763 0.929 . S
H752 C766 0.930 . S
H753 C768 0.960 . S
H754 C768 0.960 . S
H755 C768 0.960 . S
C756 H748 0.929 . S
C756 C757 1.377 . S
C756 C758 1.384 . S
C757 C756 1.377 . S
C757 C763 1.390 . S
C758 H749 0.930 . S
C758 C756 1.384 . S
C758 C759 1.372 . S
C759 C758 1.372 . S
C759 C760 1.400 . S
C759 C764 1.490 . S
C760 H750 0.930 . S
C760 C759 1.400 . S
C760 C763 1.386 . S
H761 C777 0.930 . S
H762 C778 0.931 . S
C763 H751 0.929 . S
C763 C757 1.390 . S
C763 C760 1.386 . S
C764 C759 1.490 . S
C764 C766 1.395 . S
C764 C767 1.403 . S
H765 C771 0.930 . S
C766 H752 0.930 . S
C766 C764 1.395 . S
C766 C769 1.403 . S
C767 C764 1.403 . S
C767 C768 1.524 . S
C767 C771 1.400 . S
C768 H753 0.960 . S
C768 H754 0.960 . S
C768 H755 0.960 . S
C768 C767 1.524 . S
C769 C766 1.403 . S
C769 C770 1.392 . S
C769 C773 1.495 . S
C770 C769 1.392 . S
C770 C771 1.385 . S
C770 C772 1.478 . S
C771 H765 0.930 . S
C771 C767 1.400 . S
C771 C770 1.385 . S
C772 C770 1.478 . S
C772 C774 1.381 . S
C772 C778 1.383 . S
C773 C769 1.495 . S
C773 H779 0.959 . S
C773 H780 0.961 . S
C773 H781 0.960 . S
C774 C772 1.381 . S
C774 C775 1.394 . S
C774 H782 0.930 . S
C775 C774 1.394 . S
C775 C776 1.383 . S
C775 H783 0.929 . S
C776 C775 1.383 . S
C776 C777 1.377 . S
C777 H761 0.930 . S
C777 C776 1.377 . S
C777 C778 1.379 . S
C778 H762 0.931 . S
C778 C772 1.383 . S
C778 C777 1.379 . S
H779 C773 0.959 . S
H780 C773 0.961 . S
H781 C773 0.960 . S
H782 C774 0.930 . S
H783 C775 0.929 . S
H784 C792 0.929 . S
H785 C794 0.930 . S
H786 C796 0.930 . S
H787 C799 0.929 . S
H788 C802 0.930 . S
H789 C804 0.960 . S
H790 C804 0.960 . S
H791 C804 0.960 . S
C792 H784 0.929 . S
C792 C793 1.377 . S
C792 C794 1.384 . S
C793 C792 1.377 . S
C793 C799 1.390 . S
C794 H785 0.930 . S
C794 C792 1.384 . S
C794 C795 1.372 . S
C795 C794 1.372 . S
C795 C796 1.400 . S
C795 C800 1.490 . S
C796 H786 0.930 . S
C796 C795 1.400 . S
C796 C799 1.386 . S
H797 C813 0.930 . S
H798 C814 0.931 . S
C799 H787 0.929 . S
C799 C793 1.390 . S
C799 C796 1.386 . S
C800 C795 1.490 . S
C800 C802 1.395 . S
C800 C803 1.403 . S
H801 C807 0.930 . S
C802 H788 0.930 . S
C802 C800 1.395 . S
C802 C805 1.403 . S
C803 C800 1.403 . S
C803 C804 1.524 . S
C803 C807 1.400 . S
C804 H789 0.960 . S
C804 H790 0.960 . S
C804 H791 0.960 . S
C804 C803 1.524 . S
C805 C802 1.403 . S
C805 C806 1.392 . S
C805 C809 1.495 . S
C806 C805 1.392 . S
C806 C807 1.385 . S
C806 C808 1.480 1_554 S
C807 H801 0.930 . S
C807 C803 1.400 . S
C807 C806 1.385 . S
C808 C806 1.480 1_556 S
C808 C810 1.381 . S
C808 C814 1.380 . S
C809 C805 1.495 . S
C809 H815 0.959 . S
C809 H816 0.961 . S
C809 H817 0.960 1_655 S
C810 C808 1.381 . S
C810 C811 1.394 . S
C810 H818 0.936 1_556 S
C811 C810 1.394 . S
C811 C812 1.383 . S
C811 H819 0.929 1_655 S
C812 C811 1.383 . S
C812 C813 1.377 . S
C813 H797 0.930 . S
C813 C812 1.377 . S
C813 C814 1.379 . S
C814 H798 0.931 . S
C814 C808 1.380 . S
C814 C813 1.379 . S
H815 C809 0.959 . S
H816 C809 0.961 . S
H817 C809 0.960 1_455 S
H818 C810 0.936 1_554 S
H819 C811 0.929 1_455 S
H820 C828 0.929 . S
H821 C830 0.930 . S
H822 C832 0.930 . S
H823 C835 0.929 . S
H824 C838 0.930 . S
H825 C840 0.960 . S
H826 C840 0.960 . S
H827 C840 0.960 . S
C828 H820 0.929 . S
C828 C829 1.377 . S
C828 C830 1.384 . S
C829 C828 1.377 . S
C829 C835 1.390 . S
C830 H821 0.930 . S
C830 C828 1.384 . S
C830 C831 1.372 . S
C831 C830 1.372 . S
C831 C832 1.400 . S
C831 C836 1.490 . S
C832 H822 0.930 . S
C832 C831 1.400 . S
C832 C835 1.386 . S
H833 C849 0.956 . S
H834 C850 0.931 . S
C835 H823 0.929 . S
C835 C829 1.390 . S
C835 C832 1.386 . S
C836 C831 1.490 . S
C836 C838 1.395 . S
C836 C839 1.403 . S
H837 C843 0.930 . S
C838 H824 0.930 . S
C838 C836 1.395 . S
C838 C841 1.403 . S
C839 C836 1.403 . S
C839 C840 1.524 . S
C839 C843 1.400 . S
C840 H825 0.960 . S
C840 H826 0.960 . S
C840 H827 0.960 . S
C840 C839 1.524 . S
C841 C838 1.403 . S
C841 C842 1.392 . S
C841 C845 1.495 . S
C842 C841 1.392 . S
C842 C843 1.385 . S
C842 C844 1.478 . S
C843 H837 0.930 . S
C843 C839 1.400 . S
C843 C842 1.385 . S
C844 C842 1.478 . S
C844 C846 1.381 . S
C844 C850 1.383 . S
C845 C841 1.495 . S
C845 H851 0.959 . S
C845 H852 0.961 . S
C845 H853 0.998 . S
C846 C844 1.381 . S
C846 C847 1.394 1_655 S
C846 H854 0.930 1_655 S
C847 C846 1.394 1_455 S
C847 C848 1.390 1_455 S
C847 H855 0.929 . S
C848 C847 1.390 1_655 S
C848 C849 1.380 1_556 S
C849 H833 0.956 . S
C849 C848 1.380 1_554 S
C849 C850 1.352 1_554 S
C850 H834 0.931 . S
C850 C844 1.383 . S
C850 C849 1.352 1_556 S
H851 C845 0.959 . S
H852 C845 0.961 . S
H853 C845 0.998 . S
H854 C846 0.930 1_455 S
H855 C847 0.929 . S
H856 C864 0.929 . S
H857 C866 0.930 . S
H858 C868 0.930 . S
H859 C871 0.929 . S
H860 C874 0.930 . S
H861 C876 0.960 . S
H862 C876 0.960 . S
H863 C876 0.960 . S
C864 H856 0.929 . S
C864 C865 1.377 . S
C864 C866 1.384 . S
C865 C864 1.377 . S
C865 C871 1.390 . S
C866 H857 0.930 . S
C866 C864 1.384 . S
C866 C867 1.372 . S
C867 C866 1.372 . S
C867 C868 1.400 . S
C867 C872 1.490 . S
C868 H858 0.930 . S
C868 C867 1.400 . S
C868 C871 1.386 . S
H869 C885 0.930 . S
H870 C886 0.931 . S
C871 H859 0.929 . S
C871 C865 1.390 . S
C871 C868 1.386 . S
C872 C867 1.490 . S
C872 C874 1.395 . S
C872 C875 1.403 . S
H873 C879 0.930 . S
C874 H860 0.930 . S
C874 C872 1.395 . S
C874 C877 1.403 . S
C875 C872 1.403 . S
C875 C876 1.524 . S
C875 C879 1.400 . S
C876 H861 0.960 . S
C876 H862 0.960 . S
C876 H863 0.960 . S
C876 C875 1.524 . S
C877 C874 1.403 . S
C877 C878 1.392 . S
C877 C881 1.495 . S
C878 C877 1.392 . S
C878 C879 1.385 . S
C878 C880 1.478 . S
C879 H873 0.930 . S
C879 C875 1.400 . S
C879 C878 1.385 . S
C880 C878 1.478 . S
C880 C882 1.381 . S
C880 C886 1.383 . S
C881 C877 1.495 . S
C881 H887 0.959 . S
C881 H888 0.961 . S
C881 H889 0.960 . S
C882 C880 1.381 . S
C882 C883 1.394 . S
C882 H890 0.930 . S
C883 C882 1.394 . S
C883 C884 1.383 . S
C883 H891 0.929 . S
C884 C883 1.383 . S
C884 C885 1.377 . S
C885 H869 0.930 . S
C885 C884 1.377 . S
C885 C886 1.379 . S
C886 H870 0.931 . S
C886 C880 1.383 . S
C886 C885 1.379 . S
H887 C881 0.959 . S
H888 C881 0.961 . S
H889 C881 0.960 . S
H890 C882 0.930 . S
H891 C883 0.929 . S
H892 C900 0.929 . S
H893 C902 0.930 . S
H894 C904 0.930 . S
H895 C907 0.929 . S
H896 C910 0.930 . S
H897 C912 0.960 . S
H898 C912 0.960 . S
H899 C912 0.960 . S
C900 H892 0.929 . S
C900 C901 1.377 . S
C900 C902 1.384 . S
C901 C900 1.377 . S
C901 C907 1.390 . S
C902 H893 0.930 . S
C902 C900 1.384 . S
C902 C903 1.372 . S
C903 C902 1.372 . S
C903 C904 1.400 . S
C903 C908 1.490 . S
C904 H894 0.930 . S
C904 C903 1.400 . S
C904 C907 1.386 . S
H905 C921 0.930 . S
H906 C922 0.931 . S
C907 H895 0.929 . S
C907 C901 1.390 . S
C907 C904 1.386 . S
C908 C903 1.490 . S
C908 C910 1.395 . S
C908 C911 1.403 . S
H909 C915 0.930 . S
C910 H896 0.930 . S
C910 C908 1.395 . S
C910 C913 1.403 . S
C911 C908 1.403 . S
C911 C912 1.524 . S
C911 C915 1.400 . S
C912 H897 0.960 . S
C912 H898 0.960 . S
C912 H899 0.960 . S
C912 C911 1.524 . S
C913 C910 1.403 . S
C913 C914 1.392 . S
C913 C917 1.495 . S
C914 C913 1.392 . S
C914 C915 1.385 . S
C914 C916 1.478 . S
C915 H909 0.930 . S
C915 C911 1.400 . S
C915 C914 1.385 . S
C916 C914 1.478 . S
C916 C918 1.381 . S
C916 C922 1.383 . S
C917 C913 1.495 . S
C917 H923 0.959 . S
C917 H924 0.961 . S
C917 H925 0.960 . S
C918 C916 1.381 . S
C918 C919 1.394 . S
C918 H926 0.930 . S
C919 C918 1.394 . S
C919 C920 1.383 . S
C919 H927 0.929 . S
C920 C919 1.383 . S
C920 C921 1.377 . S
C921 H905 0.930 . S
C921 C920 1.377 . S
C921 C922 1.379 . S
C922 H906 0.931 . S
C922 C916 1.383 . S
C922 C921 1.379 . S
H923 C917 0.959 . S
H924 C917 0.961 . S
H925 C917 0.960 . S
H926 C918 0.930 . S
H927 C919 0.929 . S
H928 C936 0.929 . S
H929 C938 0.930 . S
H930 C940 0.930 . S
H931 C943 0.929 . S
H932 C946 0.930 . S
H933 C948 0.960 . S
H934 C948 0.960 . S
H935 C948 0.960 . S
C936 H928 0.929 . S
C936 C937 1.377 . S
C936 C938 1.384 . S
C937 C936 1.377 . S
C937 C943 1.390 . S
C938 H929 0.930 . S
C938 C936 1.384 . S
C938 C939 1.372 . S
C939 C938 1.372 . S
C939 C940 1.400 . S
C939 C944 1.490 . S
C940 H930 0.930 . S
C940 C939 1.400 . S
C940 C943 1.386 . S
H941 C957 0.930 . S
H942 C958 0.931 . S
C943 H931 0.929 . S
C943 C937 1.390 . S
C943 C940 1.386 . S
C944 C939 1.490 . S
C944 C946 1.395 . S
C944 C947 1.403 . S
H945 C951 0.930 . S
C946 H932 0.930 . S
C946 C944 1.395 . S
C946 C949 1.403 . S
C947 C944 1.403 . S
C947 C948 1.524 . S
C947 C951 1.400 . S
C948 H933 0.960 . S
C948 H934 0.960 . S
C948 H935 0.960 . S
C948 C947 1.524 . S
C949 C946 1.403 . S
C949 C950 1.392 . S
C949 C953 1.495 . S
C950 C949 1.392 . S
C950 C951 1.385 . S
C950 C952 1.478 . S
C951 H945 0.930 . S
C951 C947 1.400 . S
C951 C950 1.385 . S
C952 C950 1.478 . S
C952 C954 1.381 . S
C952 C958 1.383 . S
C953 C949 1.495 . S
C953 H959 0.959 . S
C953 H960 0.961 . S
C953 H961 0.960 . S
C954 C952 1.381 . S
C954 C955 1.394 . S
C954 H962 0.930 . S
C955 C954 1.394 . S
C955 C956 1.383 . S
C955 H963 0.929 . S
C956 C955 1.383 . S
C956 C957 1.377 . S
C957 H941 0.930 . S
C957 C956 1.377 . S
C957 C958 1.379 . S
C958 H942 0.931 . S
C958 C952 1.383 . S
C958 C957 1.379 . S
H959 C953 0.959 . S
H960 C953 0.961 . S
H961 C953 0.960 . S
H962 C954 0.930 . S
H963 C955 0.929 . S
H964 C972 0.929 . S
H965 C974 0.930 . S
H966 C976 0.930 . S
H967 C979 0.929 . S
H968 C982 0.930 . S
H969 C984 0.960 . S
H970 C984 0.960 . S
H971 C984 0.960 . S
C972 H964 0.929 . S
C972 C973 1.377 . S
C972 C974 1.384 . S
C973 C972 1.377 . S
C973 C979 1.390 . S
C974 H965 0.930 . S
C974 C972 1.384 . S
C974 C975 1.372 . S
C975 C974 1.372 . S
C975 C976 1.400 . S
C975 C980 1.490 . S
C976 H966 0.930 . S
C976 C975 1.400 . S
C976 C979 1.386 . S
H977 C993 0.930 . S
H978 C994 0.931 . S
C979 H967 0.929 . S
C979 C973 1.390 . S
C979 C976 1.386 . S
C980 C975 1.490 . S
C980 C982 1.395 . S
C980 C983 1.403 . S
H981 C987 0.930 . S
C982 H968 0.930 . S
C982 C980 1.395 . S
C982 C985 1.403 . S
C983 C980 1.403 . S
C983 C984 1.524 . S
C983 C987 1.400 . S
C984 H969 0.960 . S
C984 H970 0.960 . S
C984 H971 0.960 . S
C984 C983 1.524 . S
C985 C982 1.403 . S
C985 C986 1.392 . S
C985 C989 1.495 . S
C986 C985 1.392 . S
C986 C987 1.385 . S
C986 C988 1.478 . S
C987 H981 0.930 . S
C987 C983 1.400 . S
C987 C986 1.385 . S
C988 C986 1.478 . S
C988 C990 1.381 . S
C988 C994 1.383 . S
C989 C985 1.495 . S
C989 H995 0.959 . S
C989 H996 0.961 . S
C989 H997 0.960 . S
C990 C988 1.381 . S
C990 C991 1.394 . S
C990 H998 0.930 . S
C991 C990 1.394 . S
C991 C992 1.383 . S
C991 H999 0.929 . S
C992 C991 1.383 . S
C992 C993 1.377 . S
C993 H977 0.930 . S
C993 C992 1.377 . S
C993 C994 1.379 . S
C994 H978 0.931 . S
C994 C988 1.383 . S
C994 C993 1.379 . S
H995 C989 0.959 . S
H996 C989 0.961 . S
H997 C989 0.960 . S
H998 C990 0.930 . S
H999 C991 0.929 . S
H1000 C1008 0.929 . S
H1001 C1010 0.930 . S
H1002 C1012 0.930 . S
H1003 C1015 0.929 . S
H1004 C1018 0.930 . S
H1005 C1020 0.960 . S
H1006 C1020 0.960 . S
H1007 C1020 0.960 . S
C1008 H1000 0.929 . S
C1008 C1009 1.377 . S
C1008 C1010 1.384 . S
C1009 C1008 1.377 . S
C1009 C1015 1.390 1_455 S
C1010 H1001 0.930 . S
C1010 C1008 1.384 . S
C1010 C1011 1.372 1_455 S
C1011 C1010 1.372 1_655 S
C1011 C1012 1.400 . S
C1011 C1016 1.490 . S
C1012 H1002 0.930 . S
C1012 C1011 1.400 . S
C1012 C1015 1.386 . S
H1013 C1029 0.930 . S
H1014 C1030 0.931 . S
C1015 H1003 0.929 . S
C1015 C1009 1.390 1_655 S
C1015 C1012 1.386 . S
C1016 C1011 1.490 . S
C1016 C1018 1.395 . S
C1016 C1019 1.403 . S
H1017 C1023 0.930 . S
C1018 H1004 0.930 . S
C1018 C1016 1.395 . S
C1018 C1021 1.403 . S
C1019 C1016 1.403 . S
C1019 C1020 1.524 . S
C1019 C1023 1.400 . S
C1020 H1005 0.960 . S
C1020 H1006 0.960 . S
C1020 H1007 0.960 . S
C1020 C1019 1.524 . S
C1021 C1018 1.403 . S
C1021 C1022 1.392 . S
C1021 C1025 1.495 . S
C1022 C1021 1.392 . S
C1022 C1023 1.385 . S
C1022 C1024 1.478 . S
C1023 H1017 0.930 . S
C1023 C1019 1.400 . S
C1023 C1022 1.385 . S
C1024 C1022 1.478 . S
C1024 C1026 1.381 . S
C1024 C1030 1.383 . S
C1025 C1021 1.495 . S
C1025 H1031 0.959 . S
C1025 H1032 0.961 . S
C1025 H1033 0.960 . S
C1026 C1024 1.381 . S
C1026 C1027 1.394 . S
C1026 H1034 0.930 . S
C1027 C1026 1.394 . S
C1027 C1028 1.383 . S
C1027 H1035 0.929 . S
C1028 C1027 1.383 . S
C1028 C1029 1.377 . S
C1029 H1013 0.930 . S
C1029 C1028 1.377 . S
C1029 C1030 1.379 . S
C1030 H1014 0.931 . S
C1030 C1024 1.383 . S
C1030 C1029 1.379 . S
H1031 C1025 0.959 . S
H1032 C1025 0.961 . S
H1033 C1025 0.960 . S
H1034 C1026 0.930 . S
H1035 C1027 0.929 . S
H1036 C1044 0.929 . S
H1037 C1046 0.930 . S
H1038 C1048 0.930 . S
H1039 C1051 0.929 . S
H1040 C1054 0.930 . S
H1041 C1056 0.960 . S
H1042 C1056 0.960 . S
H1043 C1056 0.960 . S
C1044 H1036 0.929 . S
C1044 C1045 1.377 . S
C1044 C1046 1.384 . S
C1045 C1044 1.377 . S
C1045 C1051 1.390 . S
C1046 H1037 0.930 . S
C1046 C1044 1.384 . S
C1046 C1047 1.372 . S
C1047 C1046 1.372 . S
C1047 C1048 1.400 . S
C1047 C1052 1.490 . S
C1048 H1038 0.930 . S
C1048 C1047 1.400 . S
C1048 C1051 1.386 . S
H1049 C1065 0.930 . S
H1050 C1066 0.931 . S
C1051 H1039 0.929 . S
C1051 C1045 1.390 . S
C1051 C1048 1.386 . S
C1052 C1047 1.490 . S
C1052 C1054 1.395 . S
C1052 C1055 1.403 . S
H1053 C1059 0.930 . S
C1054 H1040 0.930 . S
C1054 C1052 1.395 . S
C1054 C1057 1.403 . S
C1055 C1052 1.403 . S
C1055 C1056 1.524 . S
C1055 C1059 1.400 . S
C1056 H1041 0.960 . S
C1056 H1042 0.960 . S
C1056 H1043 0.960 . S
C1056 C1055 1.524 . S
C1057 C1054 1.403 . S
C1057 C1058 1.392 . S
C1057 C1061 1.495 . S
C1058 C1057 1.392 . S
C1058 C1059 1.385 . S
C1058 C1060 1.478 . S
C1059 H1053 0.930 . S
C1059 C1055 1.400 . S
C1059 C1058 1.385 . S
C1060 C1058 1.478 . S
C1060 C1062 1.381 . S
C1060 C1066 1.383 1_655 S
C1061 C1057 1.495 . S
C1061 H1067 0.959 . S
C1061 H1068 0.961 . S
C1061 H1069 0.960 . S
C1062 C1060 1.381 . S
C1062 C1063 1.394 1_554 S
C1062 H1070 0.930 . S
C1063 C1062 1.394 1_556 S
C1063 C1064 1.383 1_655 S
C1063 H1071 0.929 . S
C1064 C1063 1.383 1_455 S
C1064 C1065 1.377 . S
C1065 H1049 0.930 . S
C1065 C1064 1.377 . S
C1065 C1066 1.379 1_556 S
C1066 H1050 0.931 . S
C1066 C1060 1.383 1_455 S
C1066 C1065 1.379 1_554 S
H1067 C1061 0.959 . S
H1068 C1061 0.961 . S
H1069 C1061 0.960 . S
H1070 C1062 0.930 . S
H1071 C1063 0.929 . S
H1072 C1080 0.929 . S
H1073 C1082 0.930 . S
H1074 C1084 0.930 . S
H1075 C1087 0.929 . S
H1076 C1090 0.930 . S
H1077 C1092 0.960 . S
H1078 C1092 0.960 . S
H1079 C1092 0.960 . S
C1080 H1072 0.929 . S
C1080 C1081 1.377 . S
C1080 C1082 1.384 . S
C1081 C1080 1.377 . S
C1081 C1087 1.390 . S
C1082 H1073 0.930 . S
C1082 C1080 1.384 . S
C1082 C1083 1.372 . S
C1083 C1082 1.372 . S
C1083 C1084 1.400 . S
C1083 C1088 1.490 . S
C1084 H1074 0.930 . S
C1084 C1083 1.400 . S
C1084 C1087 1.386 . S
H1085 C1101 0.930 . S
H1086 C1102 0.931 . S
C1087 H1075 0.929 . S
C1087 C1081 1.390 . S
C1087 C1084 1.386 . S
C1088 C1083 1.490 . S
C1088 C1090 1.395 . S
C1088 C1091 1.403 . S
H1089 C1095 0.930 . S
C1090 H1076 0.930 . S
C1090 C1088 1.395 . S
C1090 C1093 1.403 . S
C1091 C1088 1.403 . S
C1091 C1092 1.524 . S
C1091 C1095 1.400 . S
C1092 H1077 0.960 . S
C1092 H1078 0.960 . S
C1092 H1079 0.960 . S
C1092 C1091 1.524 . S
C1093 C1090 1.403 . S
C1093 C1094 1.392 . S
C1093 C1097 1.495 . S
C1094 C1093 1.392 . S
C1094 C1095 1.385 . S
C1094 C1096 1.478 . S
C1095 H1089 0.930 . S
C1095 C1091 1.400 . S
C1095 C1094 1.385 . S
C1096 C1094 1.478 . S
C1096 C1098 1.381 . S
C1096 C1102 1.383 . S
C1097 C1093 1.495 . S
C1097 H1103 0.959 . S
C1097 H1104 0.961 . S
C1097 H1105 0.960 . S
C1098 C1096 1.381 . S
C1098 C1099 1.394 . S
C1098 H1106 0.930 . S
C1099 C1098 1.394 . S
C1099 C1100 1.383 . S
C1099 H1107 0.929 . S
C1100 C1099 1.383 . S
C1100 C1101 1.377 . S
C1101 H1085 0.930 . S
C1101 C1100 1.377 . S
C1101 C1102 1.379 . S
C1102 H1086 0.931 . S
C1102 C1096 1.383 . S
C1102 C1101 1.379 . S
H1103 C1097 0.959 . S
H1104 C1097 0.961 . S
H1105 C1097 0.960 . S
H1106 C1098 0.930 . S
H1107 C1099 0.929 . S
H1108 C1116 0.929 . S
H1109 C1118 0.930 . S
H1110 C1120 0.930 . S
H1111 C1123 0.929 . S
H1112 C1126 0.930 . S
H1113 C1128 0.960 . S
H1114 C1128 0.960 . S
H1115 C1128 0.960 . S
C1116 H1108 0.929 . S
C1116 C1117 1.377 . S
C1116 C1118 1.384 . S
C1117 C1116 1.377 . S
C1117 C1123 1.390 . S
C1118 H1109 0.930 . S
C1118 C1116 1.384 . S
C1118 C1119 1.372 . S
C1119 C1118 1.372 . S
C1119 C1120 1.400 . S
C1119 C1124 1.490 . S
C1120 H1110 0.930 . S
C1120 C1119 1.400 . S
C1120 C1123 1.386 . S
H1121 C1137 0.930 . S
H1122 C1138 0.931 . S
C1123 H1111 0.929 . S
C1123 C1117 1.390 . S
C1123 C1120 1.386 . S
C1124 C1119 1.490 . S
C1124 C1126 1.395 . S
C1124 C1127 1.403 . S
H1125 C1131 0.930 . S
C1126 H1112 0.930 . S
C1126 C1124 1.395 . S
C1126 C1129 1.403 . S
C1127 C1124 1.403 . S
C1127 C1128 1.524 . S
C1127 C1131 1.400 . S
C1128 H1113 0.960 . S
C1128 H1114 0.960 . S
C1128 H1115 0.960 . S
C1128 C1127 1.524 . S
C1129 C1126 1.403 . S
C1129 C1130 1.392 . S
C1129 C1133 1.495 . S
C1130 C1129 1.392 . S
C1130 C1131 1.385 . S
C1130 C1132 1.478 . S
C1131 H1125 0.930 . S
C1131 C1127 1.400 . S
C1131 C1130 1.385 . S
C1132 C1130 1.478 . S
C1132 C1134 1.381 . S
C1132 C1138 1.383 . S
C1133 C1129 1.495 . S
C1133 H1139 0.959 . S
C1133 H1140 0.961 . S
C1133 H1141 0.960 . S
C1134 C1132 1.381 . S
C1134 C1135 1.394 . S
C1134 H1142 0.930 . S
C1135 C1134 1.394 . S
C1135 C1136 1.383 . S
C1135 H1143 0.929 . S
C1136 C1135 1.383 . S
C1136 C1137 1.377 . S
C1137 H1121 0.930 . S
C1137 C1136 1.377 . S
C1137 C1138 1.379 . S
C1138 H1122 0.931 . S
C1138 C1132 1.383 . S
C1138 C1137 1.379 . S
H1139 C1133 0.959 . S
H1140 C1133 0.961 . S
H1141 C1133 0.960 . S
H1142 C1134 0.930 . S
H1143 C1135 0.929 . S
H1144 C1152 0.929 . S
H1145 C1154 0.930 . S
H1146 C1156 0.930 . S
H1147 C1159 0.929 . S
H1148 C1162 0.930 . S
H1149 C1164 0.960 . S
H1150 C1164 0.960 . S
H1151 C1164 0.960 . S
C1152 H1144 0.929 . S
C1152 C1153 1.377 . S
C1152 C1154 1.384 . S
C1153 C1152 1.377 . S
C1153 C1159 1.390 . S
C1154 H1145 0.930 . S
C1154 C1152 1.384 . S
C1154 C1155 1.372 . S
C1155 C1154 1.372 . S
C1155 C1156 1.400 . S
C1155 C1160 1.490 . S
C1156 H1146 0.930 . S
C1156 C1155 1.400 . S
C1156 C1159 1.386 . S
H1157 C1173 0.930 . S
H1158 C1174 0.931 . S
C1159 H1147 0.929 . S
C1159 C1153 1.390 . S
C1159 C1156 1.386 . S
C1160 C1155 1.490 . S
C1160 C1162 1.395 . S
C1160 C1163 1.403 . S
H1161 C1167 0.930 . S
C1162 H1148 0.930 . S
C1162 C1160 1.395 . S
C1162 C1165 1.403 . S
C1163 C1160 1.403 . S
C1163 C1164 1.524 . S
C1163 C1167 1.400 . S
C1164 H1149 0.960 . S
C1164 H1150 0.960 . S
C1164 H1151 0.960 . S
C1164 C1163 1.524 . S
C1165 C1162 1.403 . S
C1165 C1166 1.392 . S
C1165 C1169 1.495 . S
C1166 C1165 1.392 . S
C1166 C1167 1.385 . S
C1166 C1168 1.478 . S
C1167 H1161 0.930 . S
C1167 C1163 1.400 . S
C1167 C1166 1.385 . S
C1168 C1166 1.478 . S
C1168 C1170 1.381 . S
C1168 C1174 1.383 . S
C1169 C1165 1.495 . S
C1169 H1175 0.959 . S
C1169 H1176 0.961 . S
C1169 H1177 0.960 . S
C1170 C1168 1.381 . S
C1170 C1171 1.394 . S
C1170 H1178 0.930 . S
C1171 C1170 1.394 . S
C1171 C1172 1.383 . S
C1171 H1179 0.929 . S
C1172 C1171 1.383 . S
C1172 C1173 1.377 . S
C1173 H1157 0.930 . S
C1173 C1172 1.377 . S
C1173 C1174 1.379 . S
C1174 H1158 0.931 . S
C1174 C1168 1.383 . S
C1174 C1173 1.379 . S
H1175 C1169 0.959 . S
H1176 C1169 0.961 . S
H1177 C1169 0.960 . S
H1178 C1170 0.930 . S
H1179 C1171 0.929 . S
H1180 C1188 0.929 . S
H1181 C1190 0.930 . S
H1182 C1192 0.930 . S
H1183 C1195 0.929 . S
H1184 C1198 0.930 . S
H1185 C1200 0.960 . S
H1186 C1200 0.960 . S
H1187 C1200 0.960 . S
C1188 H1180 0.929 . S
C1188 C1189 1.377 . S
C1188 C1190 1.384 . S
C1189 C1188 1.377 . S
C1189 C1195 1.390 . S
C1190 H1181 0.930 . S
C1190 C1188 1.384 . S
C1190 C1191 1.372 . S
C1191 C1190 1.372 . S
C1191 C1192 1.400 . S
C1191 C1196 1.490 . S
C1192 H1182 0.930 . S
C1192 C1191 1.400 . S
C1192 C1195 1.386 . S
H1193 C1209 0.930 . S
H1194 C1210 0.931 . S
C1195 H1183 0.929 . S
C1195 C1189 1.390 . S
C1195 C1192 1.386 . S
C1196 C1191 1.490 . S
C1196 C1198 1.395 . S
C1196 C1199 1.403 . S
H1197 C1203 0.930 . S
C1198 H1184 0.930 . S
C1198 C1196 1.395 . S
C1198 C1201 1.403 . S
C1199 C1196 1.403 . S
C1199 C1200 1.524 . S
C1199 C1203 1.400 . S
C1200 H1185 0.960 . S
C1200 H1186 0.960 . S
C1200 H1187 0.960 . S
C1200 C1199 1.524 . S
C1201 C1198 1.403 . S
C1201 C1202 1.392 . S
C1201 C1205 1.495 . S
C1202 C1201 1.392 . S
C1202 C1203 1.385 . S
C1202 C1204 1.478 . S
C1203 H1197 0.930 . S
C1203 C1199 1.400 . S
C1203 C1202 1.385 . S
C1204 C1202 1.478 . S
C1204 C1206 1.381 . S
C1204 C1210 1.383 . S
C1205 C1201 1.495 . S
C1205 H1211 0.959 . S
C1205 H1212 0.961 . S
C1205 H1213 0.960 . S
C1206 C1204 1.381 . S
C1206 C1207 1.394 . S
C1206 H1214 0.930 . S
C1207 C1206 1.394 . S
C1207 C1208 1.383 . S
C1207 H1215 0.929 . S
C1208 C1207 1.383 . S
C1208 C1209 1.377 . S
C1209 H1193 0.930 . S
C1209 C1208 1.377 . S
C1209 C1210 1.379 . S
C1210 H1194 0.931 . S
C1210 C1204 1.383 . S
C1210 C1209 1.379 . S
H1211 C1205 0.959 . S
H1212 C1205 0.961 . S
H1213 C1205 0.960 . S
H1214 C1206 0.930 . S
H1215 C1207 0.929 . S
H1216 C1224 0.929 . S
H1217 C1226 0.930 . S
H1218 C1228 0.930 . S
H1219 C1231 0.929 . S
H1220 C1234 0.930 . S
H1221 C1236 0.960 . S
H1222 C1236 0.960 . S
H1223 C1236 0.960 . S
C1224 H1216 0.929 . S
C1224 C1225 1.377 . S
C1224 C1226 1.384 . S
C1225 C1224 1.377 . S
C1225 C1231 1.390 . S
C1226 H1217 0.930 . S
C1226 C1224 1.384 . S
C1226 C1227 1.372 . S
C1227 C1226 1.372 . S
C1227 C1228 1.400 . S
C1227 C1232 1.490 . S
C1228 H1218 0.930 . S
C1228 C1227 1.400 . S
C1228 C1231 1.386 . S
H1229 C1245 0.930 . S
H1230 C1246 0.931 . S
C1231 H1219 0.929 . S
C1231 C1225 1.390 . S
C1231 C1228 1.386 . S
C1232 C1227 1.490 . S
C1232 C1234 1.395 . S
C1232 C1235 1.403 . S
H1233 C1239 0.930 . S
C1234 H1220 0.930 . S
C1234 C1232 1.395 . S
C1234 C1237 1.403 . S
C1235 C1232 1.403 . S
C1235 C1236 1.524 . S
C1235 C1239 1.400 . S
C1236 H1221 0.960 . S
C1236 H1222 0.960 . S
C1236 H1223 0.960 . S
C1236 C1235 1.524 . S
C1237 C1234 1.403 . S
C1237 C1238 1.392 . S
C1237 C1241 1.495 . S
C1238 C1237 1.392 . S
C1238 C1239 1.385 . S
C1238 C1240 1.478 . S
C1239 H1233 0.930 . S
C1239 C1235 1.400 . S
C1239 C1238 1.385 . S
C1240 C1238 1.478 . S
C1240 C1242 1.381 . S
C1240 C1246 1.383 . S
C1241 C1237 1.495 . S
C1241 H1247 0.960 1_455 S
C1241 H1248 0.961 . S
C1241 H1249 0.960 . S
C1242 C1240 1.381 . S
C1242 C1243 1.394 . S
C1242 H1250 0.930 . S
C1243 C1242 1.394 . S
C1243 C1244 1.383 . S
C1243 H1251 0.929 . S
C1244 C1243 1.383 . S
C1244 C1245 1.377 . S
C1245 H1229 0.930 . S
C1245 C1244 1.377 . S
C1245 C1246 1.379 . S
C1246 H1230 0.931 . S
C1246 C1240 1.383 . S
C1246 C1245 1.379 . S
H1247 C1241 0.960 1_655 S
H1248 C1241 0.961 . S
H1249 C1241 0.960 . S
H1250 C1242 0.930 . S
H1251 C1243 0.929 . S
H1252 C1260 0.929 . S
H1253 C1262 0.930 1_455 S
H1254 C1264 0.930 . S
H1255 C1267 0.929 . S
H1256 C1270 0.930 . S
H1257 C1272 0.945 1_455 S
H1258 C1272 0.978 . S
H1259 C1272 0.991 . S
C1260 H1252 0.929 . S
C1260 C1261 1.377 . S
C1260 C1262 1.384 . S
C1261 C1260 1.377 . S
C1261 C1267 1.390 . S
C1262 H1253 0.930 1_655 S
C1262 C1260 1.384 . S
C1262 C1263 1.372 . S
C1263 C1262 1.372 . S
C1263 C1264 1.400 . S
C1263 C1268 1.490 1_655 S
C1264 H1254 0.930 . S
C1264 C1263 1.400 . S
C1264 C1267 1.386 . S
H1265 C1281 0.930 . S
H1266 C1282 0.931 . S
C1267 H1255 0.929 . S
C1267 C1261 1.390 . S
C1267 C1264 1.386 . S
C1268 C1263 1.490 1_455 S
C1268 C1270 1.395 . S
C1268 C1271 1.403 . S
H1269 C1275 0.930 . S
C1270 H1256 0.930 . S
C1270 C1268 1.395 . S
C1270 C1273 1.403 . S
C1271 C1268 1.403 . S
C1271 C1272 1.493 1_455 S
C1271 C1275 1.400 . S
C1272 H1257 0.945 1_655 S
C1272 H1258 0.978 . S
C1272 H1259 0.991 . S
C1272 C1271 1.493 1_655 S
C1273 C1270 1.403 . S
C1273 C1274 1.392 . S
C1273 C1277 1.495 . S
C1274 C1273 1.392 . S
C1274 C1275 1.385 . S
C1274 C1276 1.478 . S
C1275 H1269 0.930 . S
C1275 C1271 1.400 . S
C1275 C1274 1.385 . S
C1276 C1274 1.478 . S
C1276 C1278 1.381 . S
C1276 C1282 1.383 . S
C1277 C1273 1.495 . S
C1277 H1283 0.959 . S
C1277 H1284 0.961 . S
C1277 H1285 0.960 . S
C1278 C1276 1.381 . S
C1278 C1279 1.394 . S
C1278 H1286 0.930 . S
C1279 C1278 1.394 . S
C1279 C1280 1.383 . S
C1279 H1287 0.929 . S
C1280 C1279 1.383 . S
C1280 C1281 1.377 . S
C1281 H1265 0.930 . S
C1281 C1280 1.377 . S
C1281 C1282 1.379 . S
C1282 H1266 0.931 . S
C1282 C1276 1.383 . S
C1282 C1281 1.379 . S
H1283 C1277 0.959 . S
H1284 C1277 0.961 . S
H1285 C1277 0.960 . S
H1286 C1278 0.930 . S
H1287 C1279 0.929 . S
H1288 C1296 0.929 . S
H1289 C1298 0.930 . S
H1290 C1300 0.930 . S
H1291 C1303 0.929 . S
H1292 C1306 0.930 . S
H1293 C1308 0.960 . S
H1294 C1308 0.960 . S
H1295 C1308 0.960 . S
C1296 H1288 0.929 . S
C1296 C1297 1.377 . S
C1296 C1298 1.384 . S
C1297 C1296 1.377 . S
C1297 C1303 1.390 . S
C1298 H1289 0.930 . S
C1298 C1296 1.384 . S
C1298 C1299 1.372 . S
C1299 C1298 1.372 . S
C1299 C1300 1.400 . S
C1299 C1304 1.490 . S
C1300 H1290 0.930 . S
C1300 C1299 1.400 . S
C1300 C1303 1.386 . S
H1301 C1317 0.930 . S
H1302 C1318 0.931 . S
C1303 H1291 0.929 . S
C1303 C1297 1.390 . S
C1303 C1300 1.386 . S
C1304 C1299 1.490 . S
C1304 C1306 1.395 . S
C1304 C1307 1.403 . S
H1305 C1311 0.930 . S
C1306 H1292 0.930 . S
C1306 C1304 1.395 . S
C1306 C1309 1.403 . S
C1307 C1304 1.403 . S
C1307 C1308 1.524 . S
C1307 C1311 1.400 . S
C1308 H1293 0.960 . S
C1308 H1294 0.960 . S
C1308 H1295 0.960 . S
C1308 C1307 1.524 . S
C1309 C1306 1.403 . S
C1309 C1310 1.392 . S
C1309 C1313 1.495 . S
C1310 C1309 1.392 . S
C1310 C1311 1.385 . S
C1310 C1312 1.478 . S
C1311 H1305 0.930 . S
C1311 C1307 1.400 . S
C1311 C1310 1.385 . S
C1312 C1310 1.478 . S
C1312 C1314 1.381 . S
C1312 C1318 1.383 . S
C1313 C1309 1.495 . S
C1313 H1319 0.959 . S
C1313 H1320 0.961 . S
C1313 H1321 0.960 . S
C1314 C1312 1.381 . S
C1314 C1315 1.394 . S
C1314 H1322 0.930 . S
C1315 C1314 1.394 . S
C1315 C1316 1.383 . S
C1315 H1323 0.929 . S
C1316 C1315 1.383 . S
C1316 C1317 1.377 . S
C1317 H1301 0.930 . S
C1317 C1316 1.377 . S
C1317 C1318 1.379 . S
C1318 H1302 0.931 . S
C1318 C1312 1.383 . S
C1318 C1317 1.379 . S
H1319 C1313 0.959 . S
H1320 C1313 0.961 . S
H1321 C1313 0.960 . S
H1322 C1314 0.930 . S
H1323 C1315 0.929 . S
H1324 C1332 0.929 . S
H1325 C1334 0.930 . S
H1326 C1336 0.930 . S
H1327 C1339 0.929 . S
H1328 C1342 0.930 . S
H1329 C1344 0.960 . S
H1330 C1344 0.960 . S
H1331 C1344 0.960 . S
C1332 H1324 0.929 . S
C1332 C1333 1.377 . S
C1332 C1334 1.384 . S
C1333 C1332 1.377 . S
C1333 C1339 1.390 . S
C1334 H1325 0.930 . S
C1334 C1332 1.384 . S
C1334 C1335 1.372 . S
C1335 C1334 1.372 . S
C1335 C1336 1.400 . S
C1335 C1340 1.490 . S
C1336 H1326 0.930 . S
C1336 C1335 1.400 . S
C1336 C1339 1.386 . S
H1337 C1353 0.930 . S
H1338 C1354 0.931 . S
C1339 H1327 0.929 . S
C1339 C1333 1.390 . S
C1339 C1336 1.386 . S
C1340 C1335 1.490 . S
C1340 C1342 1.395 . S
C1340 C1343 1.403 . S
H1341 C1347 0.930 . S
C1342 H1328 0.930 . S
C1342 C1340 1.395 . S
C1342 C1345 1.403 . S
C1343 C1340 1.403 . S
C1343 C1344 1.524 . S
C1343 C1347 1.400 . S
C1344 H1329 0.960 . S
C1344 H1330 0.960 . S
C1344 H1331 0.960 . S
C1344 C1343 1.524 . S
C1345 C1342 1.403 . S
C1345 C1346 1.392 . S
C1345 C1349 1.495 . S
C1346 C1345 1.392 . S
C1346 C1347 1.385 . S
C1346 C1348 1.478 . S
C1347 H1341 0.930 . S
C1347 C1343 1.400 . S
C1347 C1346 1.385 . S
C1348 C1346 1.478 . S
C1348 C1350 1.381 . S
C1348 C1354 1.383 . S
C1349 C1345 1.495 . S
C1349 H1355 0.959 . S
C1349 H1356 0.961 . S
C1349 H1357 0.960 . S
C1350 C1348 1.381 . S
C1350 C1351 1.394 . S
C1350 H1358 0.930 . S
C1351 C1350 1.394 . S
C1351 C1352 1.383 . S
C1351 H1359 0.929 . S
C1352 C1351 1.383 . S
C1352 C1353 1.377 . S
C1353 H1337 0.930 . S
C1353 C1352 1.377 . S
C1353 C1354 1.379 . S
C1354 H1338 0.931 . S
C1354 C1348 1.383 . S
C1354 C1353 1.379 . S
H1355 C1349 0.959 . S
H1356 C1349 0.961 . S
H1357 C1349 0.960 . S
H1358 C1350 0.930 . S
H1359 C1351 0.929 . S
H1360 C1368 0.933 . S
H1361 C1370 0.930 . S
H1362 C1372 0.930 . S
H1363 C1375 0.929 . S
H1364 C1378 0.930 1_655 S
H1365 C1380 0.960 . S
H1366 C1380 0.960 . S
H1367 C1380 0.960 . S
C1368 H1360 0.933 . S
C1368 C1369 1.378 . S
C1368 C1370 1.379 1_655 S
C1369 C1368 1.378 . S
C1369 C1375 1.389 1_655 S
C1370 H1361 0.930 . S
C1370 C1368 1.379 1_455 S
C1370 C1371 1.372 . S
C1371 C1370 1.372 . S
C1371 C1372 1.400 . S
C1371 C1376 1.490 . S
C1372 H1362 0.930 . S
C1372 C1371 1.400 . S
C1372 C1375 1.386 . S
H1373 C1389 0.930 . S
H1374 C1390 0.931 . S
C1375 H1363 0.929 . S
C1375 C1369 1.389 1_455 S
C1375 C1372 1.386 . S
C1376 C1371 1.490 . S
C1376 C1378 1.395 . S
C1376 C1379 1.403 . S
H1377 C1383 0.930 . S
C1378 H1364 0.930 1_455 S
C1378 C1376 1.395 . S
C1378 C1381 1.403 . S
C1379 C1376 1.403 . S
C1379 C1380 1.524 . S
C1379 C1383 1.400 . S
C1380 H1365 0.960 . S
C1380 H1366 0.960 . S
C1380 H1367 0.960 . S
C1380 C1379 1.524 . S
C1381 C1378 1.403 . S
C1381 C1382 1.392 . S
C1381 C1385 1.495 1_455 S
C1382 C1381 1.392 . S
C1382 C1383 1.385 . S
C1382 C1384 1.478 . S
C1383 H1377 0.930 . S
C1383 C1379 1.400 . S
C1383 C1382 1.385 . S
C1384 C1382 1.478 . S
C1384 C1386 1.381 . S
C1384 C1390 1.383 . S
C1385 C1381 1.495 1_655 S
C1385 H1391 0.959 . S
C1385 H1392 0.961 . S
C1385 H1393 0.960 . S
C1386 C1384 1.381 . S
C1386 C1387 1.394 . S
C1386 H1394 0.930 . S
C1387 C1386 1.394 . S
C1387 C1388 1.383 . S
C1387 H1395 0.929 . S
C1388 C1387 1.383 . S
C1388 C1389 1.377 . S
C1389 H1373 0.930 . S
C1389 C1388 1.377 . S
C1389 C1390 1.379 . S
C1390 H1374 0.931 . S
C1390 C1384 1.383 . S
C1390 C1389 1.379 . S
H1391 C1385 0.959 . S
H1392 C1385 0.961 . S
H1393 C1385 0.960 . S
H1394 C1386 0.930 . S
H1395 C1387 0.929 . S
H1396 C1404 0.929 . S
H1397 C1406 0.930 . S
H1398 C1408 0.930 . S
H1399 C1411 0.929 . S
H1400 C1414 0.930 . S
H1401 C1416 0.960 . S
H1402 C1416 0.960 . S
H1403 C1416 0.960 . S
C1404 H1396 0.929 . S
C1404 C1405 1.377 . S
C1404 C1406 1.384 . S
C1405 C1404 1.377 . S
C1405 C1411 1.390 . S
C1406 H1397 0.930 . S
C1406 C1404 1.384 . S
C1406 C1407 1.372 . S
C1407 C1406 1.372 . S
C1407 C1408 1.400 . S
C1407 C1412 1.490 . S
C1408 H1398 0.930 . S
C1408 C1407 1.400 . S
C1408 C1411 1.386 . S
H1409 C1425 0.930 . S
H1410 C1426 0.931 . S
C1411 H1399 0.929 . S
C1411 C1405 1.390 . S
C1411 C1408 1.386 . S
C1412 C1407 1.490 . S
C1412 C1414 1.395 . S
C1412 C1415 1.403 . S
H1413 C1419 0.930 . S
C1414 H1400 0.930 . S
C1414 C1412 1.395 . S
C1414 C1417 1.403 . S
C1415 C1412 1.403 . S
C1415 C1416 1.524 . S
C1415 C1419 1.400 . S
C1416 H1401 0.960 . S
C1416 H1402 0.960 . S
C1416 H1403 0.960 . S
C1416 C1415 1.524 . S
C1417 C1414 1.403 . S
C1417 C1418 1.392 . S
C1417 C1421 1.495 . S
C1418 C1417 1.392 . S
C1418 C1419 1.385 . S
C1418 C1420 1.478 . S
C1419 H1413 0.930 . S
C1419 C1415 1.400 . S
C1419 C1418 1.385 . S
C1420 C1418 1.478 . S
C1420 C1422 1.381 . S
C1420 C1426 1.383 . S
C1421 C1417 1.495 . S
C1421 H1427 0.959 . S
C1421 H1428 0.961 . S
C1421 H1429 0.960 . S
C1422 C1420 1.381 . S
C1422 C1423 1.394 . S
C1422 H1430 0.930 . S
C1423 C1422 1.394 . S
C1423 C1424 1.383 . S
C1423 H1431 0.929 . S
C1424 C1423 1.383 . S
C1424 C1425 1.377 . S
C1425 H1409 0.930 . S
C1425 C1424 1.377 . S
C1425 C1426 1.379 . S
C1426 H1410 0.931 . S
C1426 C1420 1.383 . S
C1426 C1425 1.379 . S
H1427 C1421 0.959 . S
H1428 C1421 0.961 . S
H1429 C1421 0.960 . S
H1430 C1422 0.930 . S
H1431 C1423 0.929 . S
H1432 C1440 0.929 . S
H1433 C1442 0.930 . S
H1434 C1444 0.930 . S
H1435 C1447 0.929 . S
H1436 C1450 0.930 . S
H1437 C1452 0.960 . S
H1438 C1452 0.960 . S
H1439 C1452 0.960 . S
C1440 H1432 0.929 . S
C1440 C1441 1.377 . S
C1440 C1442 1.384 . S
C1441 C1440 1.377 . S
C1441 C1447 1.390 . S
C1442 H1433 0.930 . S
C1442 C1440 1.384 . S
C1442 C1443 1.372 . S
C1443 C1442 1.372 . S
C1443 C1444 1.400 . S
C1443 C1448 1.490 . S
C1444 H1434 0.930 . S
C1444 C1443 1.400 . S
C1444 C1447 1.386 . S
H1445 C1461 0.930 . S
H1446 C1462 0.931 . S
C1447 H1435 0.929 . S
C1447 C1441 1.390 . S
C1447 C1444 1.386 . S
C1448 C1443 1.490 . S
C1448 C1450 1.395 . S
C1448 C1451 1.403 . S
H1449 C1455 0.930 . S
C1450 H1436 0.930 . S
C1450 C1448 1.395 . S
C1450 C1453 1.403 . S
C1451 C1448 1.403 . S
C1451 C1452 1.524 . S
C1451 C1455 1.400 . S
C1452 H1437 0.960 . S
C1452 H1438 0.960 . S
C1452 H1439 0.960 . S
C1452 C1451 1.524 . S
C1453 C1450 1.403 . S
C1453 C1454 1.392 . S
C1453 C1457 1.495 . S
C1454 C1453 1.392 . S
C1454 C1455 1.385 . S
C1454 C1456 1.478 . S
C1455 H1449 0.930 . S
C1455 C1451 1.400 . S
C1455 C1454 1.385 . S
C1456 C1454 1.478 . S
C1456 C1458 1.381 . S
C1456 C1462 1.383 . S
C1457 C1453 1.495 . S
C1457 H1463 0.959 . S
C1457 H1464 0.961 . S
C1457 H1465 0.960 . S
C1458 C1456 1.381 . S
C1458 C1459 1.394 . S
C1458 H1466 0.930 . S
C1459 C1458 1.394 . S
C1459 C1460 1.383 . S
C1459 H1467 0.929 . S
C1460 C1459 1.383 . S
C1460 C1461 1.377 . S
C1461 H1445 0.930 . S
C1461 C1460 1.377 . S
C1461 C1462 1.379 . S
C1462 H1446 0.931 . S
C1462 C1456 1.383 . S
C1462 C1461 1.379 . S
H1463 C1457 0.959 . S
H1464 C1457 0.961 . S
H1465 C1457 0.960 . S
H1466 C1458 0.930 . S
H1467 C1459 0.929 . S
H1468 C1476 0.929 . S
H1469 C1478 0.930 . S
H1470 C1480 0.930 . S
H1471 C1483 0.929 . S
H1472 C1486 0.930 . S
H1473 C1488 0.960 . S
H1474 C1488 0.960 . S
H1475 C1488 0.960 . S
C1476 H1468 0.929 . S
C1476 C1477 1.377 . S
C1476 C1478 1.384 . S
C1477 C1476 1.377 . S
C1477 C1483 1.390 . S
C1478 H1469 0.930 . S
C1478 C1476 1.384 . S
C1478 C1479 1.372 . S
C1479 C1478 1.372 . S
C1479 C1480 1.400 . S
C1479 C1484 1.490 . S
C1480 H1470 0.930 . S
C1480 C1479 1.400 . S
C1480 C1483 1.386 . S
H1481 C1497 0.930 . S
H1482 C1498 0.931 . S
C1483 H1471 0.929 . S
C1483 C1477 1.390 . S
C1483 C1480 1.386 . S
C1484 C1479 1.490 . S
C1484 C1486 1.395 . S
C1484 C1487 1.403 . S
H1485 C1491 0.930 . S
C1486 H1472 0.930 . S
C1486 C1484 1.395 . S
C1486 C1489 1.403 . S
C1487 C1484 1.403 . S
C1487 C1488 1.524 . S
C1487 C1491 1.400 . S
C1488 H1473 0.960 . S
C1488 H1474 0.960 . S
C1488 H1475 0.960 . S
C1488 C1487 1.524 . S
C1489 C1486 1.403 . S
C1489 C1490 1.392 . S
C1489 C1493 1.495 . S
C1490 C1489 1.392 . S
C1490 C1491 1.385 . S
C1490 C1492 1.478 1_455 S
C1491 H1485 0.930 . S
C1491 C1487 1.400 . S
C1491 C1490 1.385 . S
C1492 C1490 1.478 1_655 S
C1492 C1494 1.381 . S
C1492 C1498 1.383 . S
C1493 C1489 1.495 . S
C1493 H1499 0.959 . S
C1493 H1500 0.961 . S
C1493 H1501 0.960 . S
C1494 C1492 1.381 . S
C1494 C1495 1.394 . S
C1494 H1502 0.930 . S
C1495 C1494 1.394 . S
C1495 C1496 1.383 . S
C1495 H1503 0.929 . S
C1496 C1495 1.383 . S
C1496 C1497 1.377 . S
C1497 H1481 0.930 . S
C1497 C1496 1.377 . S
C1497 C1498 1.379 . S
C1498 H1482 0.931 . S
C1498 C1492 1.383 . S
C1498 C1497 1.379 . S
H1499 C1493 0.959 . S
H1500 C1493 0.961 . S
H1501 C1493 0.960 . S
H1502 C1494 0.930 . S
H1503 C1495 0.929 . S
H1504 C1512 0.929 . S
H1505 C1514 0.930 . S
H1506 C1516 0.930 . S
H1507 C1519 0.929 . S
H1508 C1522 0.931 . S
H1509 C1524 0.960 . S
H1510 C1524 0.967 . S
H1511 C1524 0.960 . S
C1512 H1504 0.929 . S
C1512 C1513 1.377 . S
C1512 C1514 1.384 . S
C1513 C1512 1.377 . S
C1513 C1519 1.390 . S
C1514 H1505 0.930 . S
C1514 C1512 1.384 . S
C1514 C1515 1.372 . S
C1515 C1514 1.372 . S
C1515 C1516 1.400 . S
C1515 C1520 1.490 . S
C1516 H1506 0.930 . S
C1516 C1515 1.400 . S
C1516 C1519 1.386 . S
H1517 C1533 0.930 1_655 S
H1518 C1534 0.931 1_554 S
C1519 H1507 0.929 . S
C1519 C1513 1.390 . S
C1519 C1516 1.386 . S
C1520 C1515 1.490 . S
C1520 C1522 1.403 . S
C1520 C1523 1.403 . S
H1521 C1527 0.930 1_655 S
C1522 H1508 0.931 . S
C1522 C1520 1.403 . S
C1522 C1525 1.394 1_545 S
C1523 C1520 1.403 . S
C1523 C1524 1.524 1_455 S
C1523 C1527 1.400 1_545 S
C1524 H1509 0.960 . S
C1524 H1510 0.967 . S
C1524 H1511 0.960 . S
C1524 C1523 1.524 1_655 S
C1525 C1522 1.394 1_565 S
C1525 C1526 1.392 . S
C1525 C1529 1.495 . S
C1526 C1525 1.392 . S
C1526 C1527 1.385 . S
C1526 C1528 1.478 1_554 S
C1527 H1521 0.930 1_455 S
C1527 C1523 1.400 1_565 S
C1527 C1526 1.385 . S
C1528 C1526 1.478 1_556 S
C1528 C1530 1.381 . S
C1528 C1534 1.383 . S
C1529 C1525 1.495 . S
C1529 H1535 0.959 . S
C1529 H1536 0.961 . S
C1529 H1537 0.960 1_554 S
C1530 C1528 1.381 . S
C1530 C1531 1.394 . S
C1530 H1538 0.930 . S
C1531 C1530 1.394 . S
C1531 C1532 1.383 . S
C1531 H1539 0.929 . S
C1532 C1531 1.383 . S
C1532 C1533 1.377 . S
C1533 H1517 0.930 1_455 S
C1533 C1532 1.377 . S
C1533 C1534 1.379 . S
C1534 H1518 0.931 1_556 S
C1534 C1528 1.383 . S
C1534 C1533 1.379 . S
H1535 C1529 0.959 . S
H1536 C1529 0.961 . S
H1537 C1529 0.960 1_556 S
H1538 C1530 0.930 . S
H1539 C1531 0.929 . S
H1540 C1548 0.929 . S
H1541 C1550 0.930 . S
H1542 C1552 0.930 . S
H1543 C1555 0.929 . S
H1544 C1558 0.930 . S
H1545 C1560 0.960 . S
H1546 C1560 0.960 . S
H1547 C1560 0.960 . S
C1548 H1540 0.929 . S
C1548 C1549 1.377 . S
C1548 C1550 1.384 . S
C1549 C1548 1.377 . S
C1549 C1555 1.390 . S
C1550 H1541 0.930 . S
C1550 C1548 1.384 . S
C1550 C1551 1.372 . S
C1551 C1550 1.372 . S
C1551 C1552 1.400 . S
C1551 C1556 1.490 . S
C1552 H1542 0.930 . S
C1552 C1551 1.400 . S
C1552 C1555 1.386 . S
H1553 C1569 0.930 . S
H1554 C1570 0.931 . S
C1555 H1543 0.929 . S
C1555 C1549 1.390 . S
C1555 C1552 1.386 . S
C1556 C1551 1.490 . S
C1556 C1558 1.395 . S
C1556 C1559 1.403 . S
H1557 C1563 0.930 . S
C1558 H1544 0.930 . S
C1558 C1556 1.395 . S
C1558 C1561 1.403 . S
C1559 C1556 1.403 . S
C1559 C1560 1.524 . S
C1559 C1563 1.400 . S
C1560 H1545 0.960 . S
C1560 H1546 0.960 . S
C1560 H1547 0.960 . S
C1560 C1559 1.524 . S
C1561 C1558 1.403 . S
C1561 C1562 1.392 . S
C1561 C1565 1.495 . S
C1562 C1561 1.392 . S
C1562 C1563 1.385 . S
C1562 C1564 1.478 . S
C1563 H1557 0.930 . S
C1563 C1559 1.400 . S
C1563 C1562 1.385 . S
C1564 C1562 1.478 . S
C1564 C1566 1.381 . S
C1564 C1570 1.383 . S
C1565 C1561 1.495 . S
C1565 H1571 0.959 . S
C1565 H1572 0.961 . S
C1565 H1573 0.960 . S
C1566 C1564 1.381 . S
C1566 C1567 1.394 . S
C1566 H1574 0.930 . S
C1567 C1566 1.394 . S
C1567 C1568 1.383 . S
C1567 H1575 0.929 . S
C1568 C1567 1.383 . S
C1568 C1569 1.377 . S
C1569 H1553 0.930 . S
C1569 C1568 1.377 . S
C1569 C1570 1.379 . S
C1570 H1554 0.931 . S
C1570 C1564 1.383 . S
C1570 C1569 1.379 . S
H1571 C1565 0.959 . S
H1572 C1565 0.961 . S
H1573 C1565 0.960 . S
H1574 C1566 0.930 . S
H1575 C1567 0.929 . S
H1576 C1584 0.929 . S
H1577 C1586 0.930 . S
H1578 C1588 0.930 . S
H1579 C1591 0.929 . S
H1580 C1594 0.930 . S
H1581 C1596 0.960 . S
H1582 C1596 0.960 1_545 S
H1583 C1596 0.960 . S
C1584 H1576 0.929 . S
C1584 C1585 1.377 . S
C1584 C1586 1.384 . S
C1585 C1584 1.377 . S
C1585 C1591 1.390 . S
C1586 H1577 0.930 . S
C1586 C1584 1.384 . S
C1586 C1587 1.372 . S
C1587 C1586 1.372 . S
C1587 C1588 1.400 . S
C1587 C1592 1.490 . S
C1588 H1578 0.930 . S
C1588 C1587 1.400 . S
C1588 C1591 1.386 . S
H1589 C1605 0.930 . S
H1590 C1606 0.931 . S
C1591 H1579 0.929 . S
C1591 C1585 1.390 . S
C1591 C1588 1.386 . S
C1592 C1587 1.490 . S
C1592 C1594 1.395 . S
C1592 C1595 1.403 1_545 S
H1593 C1599 0.930 . S
C1594 H1580 0.930 . S
C1594 C1592 1.395 . S
C1594 C1597 1.377 1_545 S
C1595 C1592 1.403 1_565 S
C1595 C1596 1.524 . S
C1595 C1599 1.400 . S
C1596 H1581 0.960 . S
C1596 H1582 0.960 1_565 S
C1596 H1583 0.960 . S
C1596 C1595 1.524 . S
C1597 C1594 1.377 1_565 S
C1597 C1598 1.420 . S
C1597 C1601 1.494 1_565 S
C1598 C1597 1.420 . S
C1598 C1599 1.385 . S
C1598 C1600 1.478 . S
C1599 H1593 0.930 . S
C1599 C1595 1.400 . S
C1599 C1598 1.385 . S
C1600 C1598 1.478 . S
C1600 C1602 1.381 . S
C1600 C1606 1.383 . S
C1601 C1597 1.494 1_545 S
C1601 H1607 0.959 . S
C1601 H1608 0.961 1_545 S
C1601 H1609 0.960 . S
C1602 C1600 1.381 . S
C1602 C1603 1.394 . S
C1602 H1610 0.930 . S
C1603 C1602 1.394 . S
C1603 C1604 1.383 . S
C1603 H1611 0.929 . S
C1604 C1603 1.383 . S
C1604 C1605 1.377 . S
C1605 H1589 0.930 . S
C1605 C1604 1.377 . S
C1605 C1606 1.379 . S
C1606 H1590 0.931 . S
C1606 C1600 1.383 . S
C1606 C1605 1.379 . S
H1607 C1601 0.959 . S
H1608 C1601 0.961 1_565 S
H1609 C1601 0.960 . S
H1610 C1602 0.930 . S
H1611 C1603 0.929 . S
H1612 C1620 0.929 . S
H1613 C1622 0.930 . S
H1614 C1624 0.930 . S
H1615 C1627 0.929 . S
H1616 C1630 0.930 . S
H1617 C1632 0.960 . S
H1618 C1632 0.960 . S
H1619 C1632 0.960 . S
C1620 H1612 0.929 . S
C1620 C1621 1.377 . S
C1620 C1622 1.384 . S
C1621 C1620 1.377 . S
C1621 C1627 1.390 . S
C1622 H1613 0.930 . S
C1622 C1620 1.384 . S
C1622 C1623 1.372 . S
C1623 C1622 1.372 . S
C1623 C1624 1.400 . S
C1623 C1628 1.490 . S
C1624 H1614 0.930 . S
C1624 C1623 1.400 . S
C1624 C1627 1.386 . S
H1625 C1641 0.930 . S
H1626 C1642 0.931 . S
C1627 H1615 0.929 . S
C1627 C1621 1.390 . S
C1627 C1624 1.386 . S
C1628 C1623 1.490 . S
C1628 C1630 1.395 . S
C1628 C1631 1.403 . S
H1629 C1635 0.930 . S
C1630 H1616 0.930 . S
C1630 C1628 1.395 . S
C1630 C1633 1.403 . S
C1631 C1628 1.403 . S
C1631 C1632 1.524 . S
C1631 C1635 1.400 . S
C1632 H1617 0.960 . S
C1632 H1618 0.960 . S
C1632 H1619 0.960 . S
C1632 C1631 1.524 . S
C1633 C1630 1.403 . S
C1633 C1634 1.392 . S
C1633 C1637 1.495 . S
C1634 C1633 1.392 . S
C1634 C1635 1.385 . S
C1634 C1636 1.478 . S
C1635 H1629 0.930 . S
C1635 C1631 1.400 . S
C1635 C1634 1.385 . S
C1636 C1634 1.478 . S
C1636 C1638 1.381 . S
C1636 C1642 1.383 . S
C1637 C1633 1.495 . S
C1637 H1643 0.959 . S
C1637 H1644 0.961 . S
C1637 H1645 0.960 . S
C1638 C1636 1.381 . S
C1638 C1639 1.394 . S
C1638 H1646 0.930 . S
C1639 C1638 1.394 . S
C1639 C1640 1.383 . S
C1639 H1647 0.929 . S
C1640 C1639 1.383 . S
C1640 C1641 1.377 . S
C1641 H1625 0.930 . S
C1641 C1640 1.377 . S
C1641 C1642 1.379 . S
C1642 H1626 0.931 . S
C1642 C1636 1.383 . S
C1642 C1641 1.379 . S
H1643 C1637 0.959 . S
H1644 C1637 0.961 . S
H1645 C1637 0.960 . S
H1646 C1638 0.930 . S
H1647 C1639 0.929 . S
H1648 C1656 0.929 . S
H1649 C1658 0.930 . S
H1650 C1660 0.930 . S
H1651 C1663 0.929 . S
H1652 C1666 0.930 . S
H1653 C1668 0.960 . S
H1654 C1668 0.960 . S
H1655 C1668 0.960 . S
C1656 H1648 0.929 . S
C1656 C1657 1.377 . S
C1656 C1658 1.384 . S
C1657 C1656 1.377 . S
C1657 C1663 1.390 . S
C1658 H1649 0.930 . S
C1658 C1656 1.384 . S
C1658 C1659 1.372 . S
C1659 C1658 1.372 . S
C1659 C1660 1.400 . S
C1659 C1664 1.490 . S
C1660 H1650 0.930 . S
C1660 C1659 1.400 . S
C1660 C1663 1.386 . S
H1661 C1677 0.930 . S
H1662 C1678 0.931 . S
C1663 H1651 0.929 . S
C1663 C1657 1.390 . S
C1663 C1660 1.386 . S
C1664 C1659 1.490 . S
C1664 C1666 1.395 . S
C1664 C1667 1.403 . S
H1665 C1671 0.930 . S
C1666 H1652 0.930 . S
C1666 C1664 1.395 . S
C1666 C1669 1.403 . S
C1667 C1664 1.403 . S
C1667 C1668 1.524 . S
C1667 C1671 1.400 . S
C1668 H1653 0.960 . S
C1668 H1654 0.960 . S
C1668 H1655 0.960 . S
C1668 C1667 1.524 . S
C1669 C1666 1.403 . S
C1669 C1670 1.392 . S
C1669 C1673 1.495 . S
C1670 C1669 1.392 . S
C1670 C1671 1.385 . S
C1670 C1672 1.478 . S
C1671 H1665 0.930 . S
C1671 C1667 1.400 . S
C1671 C1670 1.385 . S
C1672 C1670 1.478 . S
C1672 C1674 1.381 . S
C1672 C1678 1.383 . S
C1673 C1669 1.495 . S
C1673 H1679 0.959 . S
C1673 H1680 0.961 . S
C1673 H1681 0.960 . S
C1674 C1672 1.381 . S
C1674 C1675 1.394 . S
C1674 H1682 0.930 . S
C1675 C1674 1.394 . S
C1675 C1676 1.383 . S
C1675 H1683 0.929 . S
C1676 C1675 1.383 . S
C1676 C1677 1.377 . S
C1677 H1661 0.930 . S
C1677 C1676 1.377 . S
C1677 C1678 1.379 . S
C1678 H1662 0.931 . S
C1678 C1672 1.383 . S
C1678 C1677 1.379 . S
H1679 C1673 0.959 . S
H1680 C1673 0.961 . S
H1681 C1673 0.960 . S
H1682 C1674 0.930 . S
H1683 C1675 0.929 . S
H1684 C1692 0.929 . S
H1685 C1694 0.930 . S
H1686 C1696 0.930 . S
H1687 C1699 0.929 . S
H1688 C1702 0.930 . S
H1689 C1704 0.960 . S
H1690 C1704 0.960 . S
H1691 C1704 0.960 . S
C1692 H1684 0.929 . S
C1692 C1693 1.377 . S
C1692 C1694 1.384 . S
C1693 C1692 1.377 . S
C1693 C1699 1.390 . S
C1694 H1685 0.930 . S
C1694 C1692 1.384 . S
C1694 C1695 1.372 . S
C1695 C1694 1.372 . S
C1695 C1696 1.400 . S
C1695 C1700 1.490 . S
C1696 H1686 0.930 . S
C1696 C1695 1.400 . S
C1696 C1699 1.386 . S
H1697 C1713 0.930 . S
H1698 C1714 0.931 . S
C1699 H1687 0.929 . S
C1699 C1693 1.390 . S
C1699 C1696 1.386 . S
C1700 C1695 1.490 . S
C1700 C1702 1.395 . S
C1700 C1703 1.403 . S
H1701 C1707 0.930 . S
C1702 H1688 0.930 . S
C1702 C1700 1.395 . S
C1702 C1705 1.403 . S
C1703 C1700 1.403 . S
C1703 C1704 1.524 . S
C1703 C1707 1.400 . S
C1704 H1689 0.960 . S
C1704 H1690 0.960 . S
C1704 H1691 0.960 . S
C1704 C1703 1.524 . S
C1705 C1702 1.403 . S
C1705 C1706 1.392 . S
C1705 C1709 1.495 . S
C1706 C1705 1.392 . S
C1706 C1707 1.385 . S
C1706 C1708 1.478 . S
C1707 H1701 0.930 . S
C1707 C1703 1.400 . S
C1707 C1706 1.385 . S
C1708 C1706 1.478 . S
C1708 C1710 1.381 . S
C1708 C1714 1.383 . S
C1709 C1705 1.495 . S
C1709 H1715 0.959 . S
C1709 H1716 0.961 . S
C1709 H1717 0.960 . S
C1710 C1708 1.381 . S
C1710 C1711 1.394 . S
C1710 H1718 0.930 . S
C1711 C1710 1.394 . S
C1711 C1712 1.383 . S
C1711 H1719 0.929 . S
C1712 C1711 1.383 . S
C1712 C1713 1.377 . S
C1713 H1697 0.930 . S
C1713 C1712 1.377 . S
C1713 C1714 1.379 . S
C1714 H1698 0.931 . S
C1714 C1708 1.383 . S
C1714 C1713 1.379 . S
H1715 C1709 0.959 . S
H1716 C1709 0.961 . S
H1717 C1709 0.960 . S
H1718 C1710 0.930 . S
H1719 C1711 0.929 . S
H1720 C1728 0.929 . S
H1721 C1730 0.930 . S
H1722 C1732 0.930 . S
H1723 C1735 0.929 . S
H1724 C1738 0.930 . S
H1725 C1740 0.960 . S
H1726 C1740 0.960 . S
H1727 C1740 0.960 . S
C1728 H1720 0.929 . S
C1728 C1729 1.377 . S
C1728 C1730 1.384 . S
C1729 C1728 1.377 . S
C1729 C1735 1.390 . S
C1730 H1721 0.930 . S
C1730 C1728 1.384 . S
C1730 C1731 1.372 . S
C1731 C1730 1.372 . S
C1731 C1732 1.400 . S
C1731 C1736 1.490 . S
C1732 H1722 0.930 . S
C1732 C1731 1.400 . S
C1732 C1735 1.386 . S
H1733 C1749 0.930 . S
H1734 C1750 0.931 . S
C1735 H1723 0.929 . S
C1735 C1729 1.390 . S
C1735 C1732 1.386 . S
C1736 C1731 1.490 . S
C1736 C1738 1.395 . S
C1736 C1739 1.403 . S
H1737 C1743 0.930 . S
C1738 H1724 0.930 . S
C1738 C1736 1.395 . S
C1738 C1741 1.403 . S
C1739 C1736 1.403 . S
C1739 C1740 1.524 . S
C1739 C1743 1.400 . S
C1740 H1725 0.960 . S
C1740 H1726 0.960 . S
C1740 H1727 0.960 . S
C1740 C1739 1.524 . S
C1741 C1738 1.403 . S
C1741 C1742 1.392 . S
C1741 C1745 1.495 . S
C1742 C1741 1.392 . S
C1742 C1743 1.385 . S
C1742 C1744 1.478 . S
C1743 H1737 0.930 . S
C1743 C1739 1.400 . S
C1743 C1742 1.385 . S
C1744 C1742 1.478 . S
C1744 C1746 1.381 . S
C1744 C1750 1.383 . S
C1745 C1741 1.495 . S
C1745 H1751 0.959 . S
C1745 H1752 0.961 . S
C1745 H1753 0.960 . S
C1746 C1744 1.381 . S
C1746 C1747 1.394 . S
C1746 H1754 0.930 . S
C1747 C1746 1.394 . S
C1747 C1748 1.383 . S
C1747 H1755 0.929 . S
C1748 C1747 1.383 . S
C1748 C1749 1.377 . S
C1749 H1733 0.930 . S
C1749 C1748 1.377 . S
C1749 C1750 1.379 . S
C1750 H1734 0.931 . S
C1750 C1744 1.383 . S
C1750 C1749 1.379 . S
H1751 C1745 0.959 . S
H1752 C1745 0.961 . S
H1753 C1745 0.960 . S
H1754 C1746 0.930 . S
H1755 C1747 0.929 . S
H1756 C1764 0.929 . S
H1757 C1766 0.930 . S
H1758 C1768 0.930 . S
H1759 C1771 0.929 . S
H1760 C1774 0.930 . S
H1761 C1776 0.960 . S
H1762 C1776 0.960 . S
H1763 C1776 0.960 . S
C1764 H1756 0.929 . S
C1764 C1765 1.377 . S
C1764 C1766 1.384 . S
C1765 C1764 1.377 . S
C1765 C1771 1.390 . S
C1766 H1757 0.930 . S
C1766 C1764 1.384 . S
C1766 C1767 1.372 . S
C1767 C1766 1.372 . S
C1767 C1768 1.400 . S
C1767 C1772 1.490 . S
C1768 H1758 0.930 . S
C1768 C1767 1.400 . S
C1768 C1771 1.386 . S
H1769 C1785 0.930 . S
H1770 C1786 0.931 1_556 S
C1771 H1759 0.929 . S
C1771 C1765 1.390 . S
C1771 C1768 1.386 . S
C1772 C1767 1.490 . S
C1772 C1774 1.395 . S
C1772 C1775 1.403 . S
H1773 C1779 0.930 . S
C1774 H1760 0.930 . S
C1774 C1772 1.395 . S
C1774 C1777 1.403 . S
C1775 C1772 1.403 . S
C1775 C1776 1.524 . S
C1775 C1779 1.400 . S
C1776 H1761 0.960 . S
C1776 H1762 0.960 . S
C1776 H1763 0.960 . S
C1776 C1775 1.524 . S
C1777 C1774 1.403 . S
C1777 C1778 1.392 . S
C1777 C1781 1.495 1_556 S
C1778 C1777 1.392 . S
C1778 C1779 1.385 . S
C1778 C1780 1.478 1_556 S
C1779 H1773 0.930 . S
C1779 C1775 1.400 . S
C1779 C1778 1.385 . S
C1780 C1778 1.478 1_554 S
C1780 C1782 1.381 . S
C1780 C1786 1.383 . S
C1781 C1777 1.495 1_554 S
C1781 H1787 0.959 . S
C1781 H1788 0.961 . S
C1781 H1789 0.960 . S
C1782 C1780 1.381 . S
C1782 C1783 1.394 . S
C1782 H1790 0.930 . S
C1783 C1782 1.394 . S
C1783 C1784 1.383 . S
C1783 H1791 0.929 . S
C1784 C1783 1.383 . S
C1784 C1785 1.377 . S
C1785 H1769 0.930 . S
C1785 C1784 1.377 . S
C1785 C1786 1.379 . S
C1786 H1770 0.931 1_554 S
C1786 C1780 1.383 . S
C1786 C1785 1.379 . S
H1787 C1781 0.959 . S
H1788 C1781 0.961 . S
H1789 C1781 0.960 . S
H1790 C1782 0.930 . S
H1791 C1783 0.929 . S
H1792 C1800 0.929 . S
H1793 C1802 0.930 . S
H1794 C1804 0.930 . S
H1795 C1807 0.929 . S
H1796 C1810 0.930 . S
H1797 C1812 0.960 . S
H1798 C1812 0.960 . S
H1799 C1812 0.960 . S
C1800 H1792 0.929 . S
C1800 C1801 1.377 . S
C1800 C1802 1.384 . S
C1801 C1800 1.377 . S
C1801 C1807 1.390 . S
C1802 H1793 0.930 . S
C1802 C1800 1.384 . S
C1802 C1803 1.372 . S
C1803 C1802 1.372 . S
C1803 C1804 1.400 . S
C1803 C1808 1.490 . S
C1804 H1794 0.930 . S
C1804 C1803 1.400 . S
C1804 C1807 1.386 . S
H1805 C1821 0.930 . S
H1806 C1822 0.931 . S
C1807 H1795 0.929 . S
C1807 C1801 1.390 . S
C1807 C1804 1.386 . S
C1808 C1803 1.490 . S
C1808 C1810 1.395 . S
C1808 C1811 1.403 . S
H1809 C1815 0.930 . S
C1810 H1796 0.930 . S
C1810 C1808 1.395 . S
C1810 C1813 1.403 . S
C1811 C1808 1.403 . S
C1811 C1812 1.524 . S
C1811 C1815 1.400 . S
C1812 H1797 0.960 . S
C1812 H1798 0.960 . S
C1812 H1799 0.960 . S
C1812 C1811 1.524 . S
C1813 C1810 1.403 . S
C1813 C1814 1.392 . S
C1813 C1817 1.495 . S
C1814 C1813 1.392 . S
C1814 C1815 1.385 . S
C1814 C1816 1.478 . S
C1815 H1809 0.930 . S
C1815 C1811 1.400 . S
C1815 C1814 1.385 . S
C1816 C1814 1.478 . S
C1816 C1818 1.381 . S
C1816 C1822 1.383 . S
C1817 C1813 1.495 . S
C1817 H1823 0.959 . S
C1817 H1824 0.961 . S
C1817 H1825 0.960 . S
C1818 C1816 1.381 . S
C1818 C1819 1.394 . S
C1818 H1826 0.930 . S
C1819 C1818 1.394 . S
C1819 C1820 1.383 . S
C1819 H1827 0.929 . S
C1820 C1819 1.383 . S
C1820 C1821 1.377 . S
C1821 H1805 0.930 . S
C1821 C1820 1.377 . S
C1821 C1822 1.379 . S
C1822 H1806 0.931 . S
C1822 C1816 1.383 . S
C1822 C1821 1.379 . S
H1823 C1817 0.959 . S
H1824 C1817 0.961 . S
H1825 C1817 0.960 . S
H1826 C1818 0.930 . S
H1827 C1819 0.929 . S
H1828 C1836 0.929 . S
H1829 C1838 0.930 . S
H1830 C1840 0.930 . S
H1831 C1843 0.929 . S
H1832 C1846 0.930 . S
H1833 C1848 0.960 . S
H1834 C1848 0.960 . S
H1835 C1848 0.960 . S
C1836 H1828 0.929 . S
C1836 C1837 1.377 . S
C1836 C1838 1.384 . S
C1837 C1836 1.377 . S
C1837 C1843 1.390 . S
C1838 H1829 0.930 . S
C1838 C1836 1.384 . S
C1838 C1839 1.372 . S
C1839 C1838 1.372 . S
C1839 C1840 1.400 . S
C1839 C1844 1.490 . S
C1840 H1830 0.930 . S
C1840 C1839 1.400 . S
C1840 C1843 1.386 . S
H1841 C1857 0.930 . S
H1842 C1858 0.931 . S
C1843 H1831 0.929 . S
C1843 C1837 1.390 . S
C1843 C1840 1.386 . S
C1844 C1839 1.490 . S
C1844 C1846 1.395 . S
C1844 C1847 1.403 . S
H1845 C1851 0.930 . S
C1846 H1832 0.930 . S
C1846 C1844 1.395 . S
C1846 C1849 1.403 . S
C1847 C1844 1.403 . S
C1847 C1848 1.524 . S
C1847 C1851 1.400 . S
C1848 H1833 0.960 . S
C1848 H1834 0.960 . S
C1848 H1835 0.960 . S
C1848 C1847 1.524 . S
C1849 C1846 1.403 . S
C1849 C1850 1.392 . S
C1849 C1853 1.495 . S
C1850 C1849 1.392 . S
C1850 C1851 1.385 . S
C1850 C1852 1.478 . S
C1851 H1845 0.930 . S
C1851 C1847 1.400 . S
C1851 C1850 1.385 . S
C1852 C1850 1.478 . S
C1852 C1854 1.381 . S
C1852 C1858 1.383 . S
C1853 C1849 1.495 . S
C1853 H1859 0.959 . S
C1853 H1860 0.961 . S
C1853 H1861 0.960 . S
C1854 C1852 1.381 . S
C1854 C1855 1.394 . S
C1854 H1862 0.930 . S
C1855 C1854 1.394 . S
C1855 C1856 1.383 . S
C1855 H1863 0.929 . S
C1856 C1855 1.383 . S
C1856 C1857 1.377 . S
C1857 H1841 0.930 . S
C1857 C1856 1.377 . S
C1857 C1858 1.379 . S
C1858 H1842 0.931 . S
C1858 C1852 1.383 . S
C1858 C1857 1.379 . S
H1859 C1853 0.959 . S
H1860 C1853 0.961 . S
H1861 C1853 0.960 . S
H1862 C1854 0.930 . S
H1863 C1855 0.929 . S
H1864 C1872 0.929 . S
H1865 C1874 0.930 . S
H1866 C1876 0.930 . S
H1867 C1879 0.929 . S
H1868 C1882 0.930 . S
H1869 C1884 0.960 . S
H1870 C1884 0.960 . S
H1871 C1884 0.960 . S
C1872 H1864 0.929 . S
C1872 C1873 1.377 . S
C1872 C1874 1.384 . S
C1873 C1872 1.377 . S
C1873 C1879 1.390 . S
C1874 H1865 0.930 . S
C1874 C1872 1.384 . S
C1874 C1875 1.372 . S
C1875 C1874 1.372 . S
C1875 C1876 1.400 . S
C1875 C1880 1.490 . S
C1876 H1866 0.930 . S
C1876 C1875 1.400 . S
C1876 C1879 1.386 . S
H1877 C1893 0.930 . S
H1878 C1894 0.931 . S
C1879 H1867 0.929 . S
C1879 C1873 1.390 . S
C1879 C1876 1.386 . S
C1880 C1875 1.490 . S
C1880 C1882 1.395 . S
C1880 C1883 1.403 . S
H1881 C1887 0.930 . S
C1882 H1868 0.930 . S
C1882 C1880 1.395 . S
C1882 C1885 1.403 . S
C1883 C1880 1.403 . S
C1883 C1884 1.524 . S
C1883 C1887 1.400 . S
C1884 H1869 0.960 . S
C1884 H1870 0.960 . S
C1884 H1871 0.960 . S
C1884 C1883 1.524 . S
C1885 C1882 1.403 . S
C1885 C1886 1.392 . S
C1885 C1889 1.495 . S
C1886 C1885 1.392 . S
C1886 C1887 1.385 . S
C1886 C1888 1.478 . S
C1887 H1881 0.930 . S
C1887 C1883 1.400 . S
C1887 C1886 1.385 . S
C1888 C1886 1.478 . S
C1888 C1890 1.381 . S
C1888 C1894 1.383 . S
C1889 C1885 1.495 . S
C1889 H1895 0.959 . S
C1889 H1896 0.961 . S
C1889 H1897 0.960 . S
C1890 C1888 1.381 . S
C1890 C1891 1.394 . S
C1890 H1898 0.930 . S
C1891 C1890 1.394 . S
C1891 C1892 1.383 . S
C1891 H1899 0.929 . S
C1892 C1891 1.383 . S
C1892 C1893 1.377 . S
C1893 H1877 0.930 . S
C1893 C1892 1.377 . S
C1893 C1894 1.379 . S
C1894 H1878 0.931 . S
C1894 C1888 1.383 . S
C1894 C1893 1.379 . S
H1895 C1889 0.959 . S
H1896 C1889 0.961 . S
H1897 C1889 0.960 . S
H1898 C1890 0.930 . S
H1899 C1891 0.929 . S
H1900 C1908 0.929 . S
H1901 C1910 0.930 . S
H1902 C1912 0.930 . S
H1903 C1915 0.929 . S
H1904 C1918 0.930 . S
H1905 C1920 0.960 . S
H1906 C1920 0.960 . S
H1907 C1920 0.960 . S
C1908 H1900 0.929 . S
C1908 C1909 1.377 . S
C1908 C1910 1.384 . S
C1909 C1908 1.377 . S
C1909 C1915 1.390 . S
C1910 H1901 0.930 . S
C1910 C1908 1.384 . S
C1910 C1911 1.372 . S
C1911 C1910 1.372 . S
C1911 C1912 1.400 . S
C1911 C1916 1.490 . S
C1912 H1902 0.930 . S
C1912 C1911 1.400 . S
C1912 C1915 1.386 . S
H1913 C1929 0.930 . S
H1914 C1930 0.931 . S
C1915 H1903 0.929 . S
C1915 C1909 1.390 . S
C1915 C1912 1.386 . S
C1916 C1911 1.490 . S
C1916 C1918 1.395 . S
C1916 C1919 1.403 . S
H1917 C1923 0.930 . S
C1918 H1904 0.930 . S
C1918 C1916 1.395 . S
C1918 C1921 1.403 . S
C1919 C1916 1.403 . S
C1919 C1920 1.524 . S
C1919 C1923 1.400 . S
C1920 H1905 0.960 . S
C1920 H1906 0.960 . S
C1920 H1907 0.960 . S
C1920 C1919 1.524 . S
C1921 C1918 1.403 . S
C1921 C1922 1.392 . S
C1921 C1925 1.495 . S
C1922 C1921 1.392 . S
C1922 C1923 1.385 . S
C1922 C1924 1.478 . S
C1923 H1917 0.930 . S
C1923 C1919 1.400 . S
C1923 C1922 1.385 . S
C1924 C1922 1.478 . S
C1924 C1926 1.381 . S
C1924 C1930 1.383 . S
C1925 C1921 1.495 . S
C1925 H1931 0.959 . S
C1925 H1932 0.961 . S
C1925 H1933 0.960 . S
C1926 C1924 1.381 . S
C1926 C1927 1.394 1_554 S
C1926 H1934 0.930 . S
C1927 C1926 1.394 1_556 S
C1927 C1928 1.383 . S
C1927 H1935 0.929 . S
C1928 C1927 1.383 . S
C1928 C1929 1.377 1_556 S
C1929 H1913 0.930 . S
C1929 C1928 1.377 1_554 S
C1929 C1930 1.379 . S
C1930 H1914 0.931 . S
C1930 C1924 1.383 . S
C1930 C1929 1.379 . S
H1931 C1925 0.959 . S
H1932 C1925 0.961 . S
H1933 C1925 0.960 . S
H1934 C1926 0.930 . S
H1935 C1927 0.929 . S
H1936 C1944 0.929 . S
H1937 C1946 0.930 . S
H1938 C1948 0.930 . S
H1939 C1951 0.929 . S
H1940 C1954 0.930 . S
H1941 C1956 0.960 . S
H1942 C1956 0.960 . S
H1943 C1956 0.960 . S
C1944 H1936 0.929 . S
C1944 C1945 1.377 . S
C1944 C1946 1.384 . S
C1945 C1944 1.377 . S
C1945 C1951 1.390 . S
C1946 H1937 0.930 . S
C1946 C1944 1.384 . S
C1946 C1947 1.372 . S
C1947 C1946 1.372 . S
C1947 C1948 1.400 . S
C1947 C1952 1.490 . S
C1948 H1938 0.930 . S
C1948 C1947 1.400 . S
C1948 C1951 1.386 . S
H1949 C1965 0.930 . S
H1950 C1966 0.931 . S
C1951 H1939 0.929 . S
C1951 C1945 1.390 . S
C1951 C1948 1.386 . S
C1952 C1947 1.490 . S
C1952 C1954 1.395 . S
C1952 C1955 1.403 . S
H1953 C1959 0.930 . S
C1954 H1940 0.930 . S
C1954 C1952 1.395 . S
C1954 C1957 1.403 . S
C1955 C1952 1.403 . S
C1955 C1956 1.524 . S
C1955 C1959 1.400 . S
C1956 H1941 0.960 . S
C1956 H1942 0.960 . S
C1956 H1943 0.960 . S
C1956 C1955 1.524 . S
C1957 C1954 1.403 . S
C1957 C1958 1.392 . S
C1957 C1961 1.495 . S
C1958 C1957 1.392 . S
C1958 C1959 1.385 . S
C1958 C1960 1.478 . S
C1959 H1953 0.930 . S
C1959 C1955 1.400 . S
C1959 C1958 1.385 . S
C1960 C1958 1.478 . S
C1960 C1962 1.381 . S
C1960 C1966 1.383 . S
C1961 C1957 1.495 . S
C1961 H1967 0.959 . S
C1961 H1968 0.961 . S
C1961 H1969 0.960 . S
C1962 C1960 1.381 . S
C1962 C1963 1.394 . S
C1962 H1970 0.930 . S
C1963 C1962 1.394 . S
C1963 C1964 1.383 . S
C1963 H1971 0.929 . S
C1964 C1963 1.383 . S
C1964 C1965 1.377 . S
C1965 H1949 0.930 . S
C1965 C1964 1.377 . S
C1965 C1966 1.379 . S
C1966 H1950 0.931 . S
C1966 C1960 1.383 . S
C1966 C1965 1.379 . S
H1967 C1961 0.959 . S
H1968 C1961 0.961 . S
H1969 C1961 0.960 . S
H1970 C1962 0.930 . S
H1971 C1963 0.929 . S
H1972 C1980 0.929 . S
H1973 C1982 0.930 . S
H1974 C1984 0.930 . S
H1975 C1987 0.929 . S
H1976 C1990 0.930 . S
H1977 C1992 0.960 . S
H1978 C1992 0.960 . S
H1979 C1992 0.960 . S
C1980 H1972 0.929 . S
C1980 C1981 1.377 . S
C1980 C1982 1.384 . S
C1981 C1980 1.377 . S
C1981 C1987 1.390 . S
C1982 H1973 0.930 . S
C1982 C1980 1.384 . S
C1982 C1983 1.372 . S
C1983 C1982 1.372 . S
C1983 C1984 1.400 . S
C1983 C1988 1.490 . S
C1984 H1974 0.930 . S
C1984 C1983 1.400 . S
C1984 C1987 1.386 . S
H1985 C2001 0.930 . S
H1986 C2002 0.931 . S
C1987 H1975 0.929 . S
C1987 C1981 1.390 . S
C1987 C1984 1.386 . S
C1988 C1983 1.490 . S
C1988 C1990 1.395 . S
C1988 C1991 1.403 . S
H1989 C1995 0.930 . S
C1990 H1976 0.930 . S
C1990 C1988 1.395 . S
C1990 C1993 1.403 . S
C1991 C1988 1.403 . S
C1991 C1992 1.524 . S
C1991 C1995 1.400 . S
C1992 H1977 0.960 . S
C1992 H1978 0.960 . S
C1992 H1979 0.960 . S
C1992 C1991 1.524 . S
C1993 C1990 1.403 . S
C1993 C1994 1.392 . S
C1993 C1997 1.495 . S
C1994 C1993 1.392 . S
C1994 C1995 1.385 . S
C1994 C1996 1.478 . S
C1995 H1989 0.930 . S
C1995 C1991 1.400 . S
C1995 C1994 1.385 . S
C1996 C1994 1.478 . S
C1996 C1998 1.381 1_655 S
C1996 C2002 1.383 . S
C1997 C1993 1.495 . S
C1997 H2003 0.959 . S
C1997 H2004 0.961 . S
C1997 H2005 0.960 1_655 S
C1998 C1996 1.381 1_455 S
C1998 C1999 1.394 . S
C1998 H2006 0.930 . S
C1999 C1998 1.394 . S
C1999 C2000 1.383 . S
C1999 H2007 0.929 . S
C2000 C1999 1.383 . S
C2000 C2001 1.377 1_455 S
C2001 H1985 0.930 . S
C2001 C2000 1.377 1_655 S
C2001 C2002 1.379 . S
C2002 H1986 0.931 . S
C2002 C1996 1.383 . S
C2002 C2001 1.379 . S
H2003 C1997 0.959 . S
H2004 C1997 0.961 . S
H2005 C1997 0.960 1_455 S
H2006 C1998 0.930 . S
H2007 C1999 0.929 . S
H2008 C2016 0.929 . S
H2009 C2018 0.930 . S
H2010 C2020 0.930 . S
H2011 C2023 0.929 . S
H2012 C2026 0.930 . S
H2013 C2028 0.960 . S
H2014 C2028 0.960 . S
H2015 C2028 0.960 . S
C2016 H2008 0.929 . S
C2016 C2017 1.377 . S
C2016 C2018 1.384 . S
C2017 C2016 1.377 . S
C2017 C2023 1.390 . S
C2018 H2009 0.930 . S
C2018 C2016 1.384 . S
C2018 C2019 1.372 . S
C2019 C2018 1.372 . S
C2019 C2020 1.400 . S
C2019 C2024 1.490 . S
C2020 H2010 0.930 . S
C2020 C2019 1.400 . S
C2020 C2023 1.386 . S
H2021 C2037 0.930 . S
H2022 C2038 0.931 . S
C2023 H2011 0.929 . S
C2023 C2017 1.390 . S
C2023 C2020 1.386 . S
C2024 C2019 1.490 . S
C2024 C2026 1.395 . S
C2024 C2027 1.403 . S
H2025 C2031 0.930 . S
C2026 H2012 0.930 . S
C2026 C2024 1.395 . S
C2026 C2029 1.403 . S
C2027 C2024 1.403 . S
C2027 C2028 1.524 . S
C2027 C2031 1.400 . S
C2028 H2013 0.960 . S
C2028 H2014 0.960 . S
C2028 H2015 0.960 . S
C2028 C2027 1.524 . S
C2029 C2026 1.403 . S
C2029 C2030 1.392 . S
C2029 C2033 1.495 . S
C2030 C2029 1.392 . S
C2030 C2031 1.385 . S
C2030 C2032 1.478 . S
C2031 H2025 0.930 . S
C2031 C2027 1.400 . S
C2031 C2030 1.385 . S
C2032 C2030 1.478 . S
C2032 C2034 1.381 . S
C2032 C2038 1.383 . S
C2033 C2029 1.495 . S
C2033 H2039 0.959 . S
C2033 H2040 0.961 . S
C2033 H2041 0.960 . S
C2034 C2032 1.381 . S
C2034 C2035 1.394 . S
C2034 H2042 0.930 . S
C2035 C2034 1.394 . S
C2035 C2036 1.383 . S
C2035 H2043 0.929 . S
C2036 C2035 1.383 . S
C2036 C2037 1.377 . S
C2037 H2021 0.930 . S
C2037 C2036 1.377 . S
C2037 C2038 1.379 . S
C2038 H2022 0.931 . S
C2038 C2032 1.383 . S
C2038 C2037 1.379 . S
H2039 C2033 0.959 . S
H2040 C2033 0.961 . S
H2041 C2033 0.960 . S
H2042 C2034 0.930 . S
H2043 C2035 0.929 . S
H2044 C2052 0.929 . S
H2045 C2054 0.930 . S
H2046 C2056 0.930 . S
H2047 C2059 0.929 . S
H2048 C2062 0.930 . S
H2049 C2064 0.960 . S
H2050 C2064 0.960 . S
H2051 C2064 0.960 . S
C2052 H2044 0.929 . S
C2052 C2053 1.377 . S
C2052 C2054 1.384 . S
C2053 C2052 1.377 . S
C2053 C2059 1.390 . S
C2054 H2045 0.930 . S
C2054 C2052 1.384 . S
C2054 C2055 1.372 . S
C2055 C2054 1.372 . S
C2055 C2056 1.400 . S
C2055 C2060 1.490 . S
C2056 H2046 0.930 . S
C2056 C2055 1.400 . S
C2056 C2059 1.386 . S
H2057 C2073 0.930 . S
H2058 C2074 0.931 . S
C2059 H2047 0.929 . S
C2059 C2053 1.390 . S
C2059 C2056 1.386 . S
C2060 C2055 1.490 . S
C2060 C2062 1.395 . S
C2060 C2063 1.403 . S
H2061 C2067 0.930 . S
C2062 H2048 0.930 . S
C2062 C2060 1.395 . S
C2062 C2065 1.403 . S
C2063 C2060 1.403 . S
C2063 C2064 1.524 . S
C2063 C2067 1.400 . S
C2064 H2049 0.960 . S
C2064 H2050 0.960 . S
C2064 H2051 0.960 . S
C2064 C2063 1.524 . S
C2065 C2062 1.403 . S
C2065 C2066 1.392 . S
C2065 C2069 1.495 . S
C2066 C2065 1.392 . S
C2066 C2067 1.385 . S
C2066 C2068 1.478 . S
C2067 H2061 0.930 . S
C2067 C2063 1.400 . S
C2067 C2066 1.385 . S
C2068 C2066 1.478 . S
C2068 C2070 1.381 . S
C2068 C2074 1.383 . S
C2069 C2065 1.495 . S
C2069 H2075 0.959 . S
C2069 H2076 0.961 . S
C2069 H2077 0.960 . S
C2070 C2068 1.381 . S
C2070 C2071 1.394 . S
C2070 H2078 0.930 . S
C2071 C2070 1.394 . S
C2071 C2072 1.383 . S
C2071 H2079 0.929 . S
C2072 C2071 1.383 . S
C2072 C2073 1.377 . S
C2073 H2057 0.930 . S
C2073 C2072 1.377 . S
C2073 C2074 1.379 . S
C2074 H2058 0.931 . S
C2074 C2068 1.383 . S
C2074 C2073 1.379 . S
H2075 C2069 0.959 . S
H2076 C2069 0.961 . S
H2077 C2069 0.960 . S
H2078 C2070 0.930 . S
H2079 C2071 0.929 . S
H2080 C2088 0.929 . S
H2081 C2090 0.930 . S
H2082 C2092 0.930 . S
H2083 C2095 0.929 . S
H2084 C2098 0.930 . S
H2085 C2100 0.960 . S
H2086 C2100 0.960 . S
H2087 C2100 0.960 . S
C2088 H2080 0.929 . S
C2088 C2089 1.377 . S
C2088 C2090 1.384 . S
C2089 C2088 1.377 . S
C2089 C2095 1.390 . S
C2090 H2081 0.930 . S
C2090 C2088 1.384 . S
C2090 C2091 1.372 . S
C2091 C2090 1.372 . S
C2091 C2092 1.400 . S
C2091 C2096 1.490 . S
C2092 H2082 0.930 . S
C2092 C2091 1.400 . S
C2092 C2095 1.386 . S
H2093 C2109 0.930 . S
H2094 C2110 0.931 . S
C2095 H2083 0.929 . S
C2095 C2089 1.390 . S
C2095 C2092 1.386 . S
C2096 C2091 1.490 . S
C2096 C2098 1.395 . S
C2096 C2099 1.403 . S
H2097 C2103 0.930 . S
C2098 H2084 0.930 . S
C2098 C2096 1.395 . S
C2098 C2101 1.403 . S
C2099 C2096 1.403 . S
C2099 C2100 1.524 . S
C2099 C2103 1.400 . S
C2100 H2085 0.960 . S
C2100 H2086 0.960 . S
C2100 H2087 0.960 . S
C2100 C2099 1.524 . S
C2101 C2098 1.403 . S
C2101 C2102 1.392 . S
C2101 C2105 1.495 . S
C2102 C2101 1.392 . S
C2102 C2103 1.385 . S
C2102 C2104 1.478 . S
C2103 H2097 0.930 . S
C2103 C2099 1.400 . S
C2103 C2102 1.385 . S
C2104 C2102 1.478 . S
C2104 C2106 1.381 . S
C2104 C2110 1.383 1_556 S
C2105 C2101 1.495 . S
C2105 H2111 0.959 . S
C2105 H2112 0.961 . S
C2105 H2113 0.960 . S
C2106 C2104 1.381 . S
C2106 C2107 1.394 1_556 S
C2106 H2114 0.930 . S
C2107 C2106 1.394 1_554 S
C2107 C2108 1.383 . S
C2107 H2115 0.929 . S
C2108 C2107 1.383 . S
C2108 C2109 1.377 . S
C2109 H2093 0.930 . S
C2109 C2108 1.377 . S
C2109 C2110 1.379 . S
C2110 H2094 0.931 . S
C2110 C2104 1.383 1_554 S
C2110 C2109 1.379 . S
H2111 C2105 0.959 . S
H2112 C2105 0.961 . S
H2113 C2105 0.960 . S
H2114 C2106 0.930 . S
H2115 C2107 0.929 . S
H2116 C2124 0.929 . S
H2117 C2126 0.930 . S
H2118 C2128 0.930 . S
H2119 C2131 0.929 . S
H2120 C2134 0.930 . S
H2121 C2136 0.960 . S
H2122 C2136 0.960 . S
H2123 C2136 0.960 . S
C2124 H2116 0.929 . S
C2124 C2125 1.377 . S
C2124 C2126 1.384 . S
C2125 C2124 1.377 . S
C2125 C2131 1.390 . S
C2126 H2117 0.930 . S
C2126 C2124 1.384 . S
C2126 C2127 1.372 . S
C2127 C2126 1.372 . S
C2127 C2128 1.400 . S
C2127 C2132 1.490 . S
C2128 H2118 0.930 . S
C2128 C2127 1.400 . S
C2128 C2131 1.386 . S
H2129 C2145 0.930 . S
H2130 C2146 0.931 . S
C2131 H2119 0.929 . S
C2131 C2125 1.390 . S
C2131 C2128 1.386 . S
C2132 C2127 1.490 . S
C2132 C2134 1.395 . S
C2132 C2135 1.403 . S
H2133 C2139 0.930 . S
C2134 H2120 0.930 . S
C2134 C2132 1.395 . S
C2134 C2137 1.403 . S
C2135 C2132 1.403 . S
C2135 C2136 1.524 . S
C2135 C2139 1.400 . S
C2136 H2121 0.960 . S
C2136 H2122 0.960 . S
C2136 H2123 0.960 . S
C2136 C2135 1.524 . S
C2137 C2134 1.403 . S
C2137 C2138 1.392 . S
C2137 C2141 1.495 . S
C2138 C2137 1.392 . S
C2138 C2139 1.385 . S
C2138 C2140 1.478 . S
C2139 H2133 0.930 . S
C2139 C2135 1.400 . S
C2139 C2138 1.385 . S
C2140 C2138 1.478 . S
C2140 C2142 1.381 . S
C2140 C2146 1.383 . S
C2141 C2137 1.495 . S
C2141 H2147 0.959 . S
C2141 H2148 0.961 . S
C2141 H2149 0.960 . S
C2142 C2140 1.381 . S
C2142 C2143 1.394 . S
C2142 H2150 0.930 . S
C2143 C2142 1.394 . S
C2143 C2144 1.383 . S
C2143 H2151 0.929 . S
C2144 C2143 1.383 . S
C2144 C2145 1.377 . S
C2145 H2129 0.930 . S
C2145 C2144 1.377 . S
C2145 C2146 1.379 . S
C2146 H2130 0.931 . S
C2146 C2140 1.383 . S
C2146 C2145 1.379 . S
H2147 C2141 0.959 . S
H2148 C2141 0.961 . S
H2149 C2141 0.960 . S
H2150 C2142 0.930 . S
H2151 C2143 0.929 . S
H2152 C2160 0.929 . S
H2153 C2162 0.930 . S
H2154 C2164 0.930 . S
H2155 C2167 0.929 . S
H2156 C2170 0.930 . S
H2157 C2172 0.960 . S
H2158 C2172 0.960 . S
H2159 C2172 0.960 . S
C2160 H2152 0.929 . S
C2160 C2161 1.377 . S
C2160 C2162 1.384 . S
C2161 C2160 1.377 . S
C2161 C2167 1.390 . S
C2162 H2153 0.930 . S
C2162 C2160 1.384 . S
C2162 C2163 1.372 . S
C2163 C2162 1.372 . S
C2163 C2164 1.400 . S
C2163 C2168 1.490 . S
C2164 H2154 0.930 . S
C2164 C2163 1.400 . S
C2164 C2167 1.386 . S
H2165 C2181 0.930 . S
H2166 C2182 0.931 . S
C2167 H2155 0.929 . S
C2167 C2161 1.390 . S
C2167 C2164 1.386 . S
C2168 C2163 1.490 . S
C2168 C2170 1.395 . S
C2168 C2171 1.403 . S
H2169 C2175 0.930 . S
C2170 H2156 0.930 . S
C2170 C2168 1.395 . S
C2170 C2173 1.403 . S
C2171 C2168 1.403 . S
C2171 C2172 1.524 . S
C2171 C2175 1.400 . S
C2172 H2157 0.960 . S
C2172 H2158 0.960 . S
C2172 H2159 0.960 . S
C2172 C2171 1.524 . S
C2173 C2170 1.403 . S
C2173 C2174 1.392 . S
C2173 C2177 1.495 . S
C2174 C2173 1.392 . S
C2174 C2175 1.385 . S
C2174 C2176 1.478 . S
C2175 H2169 0.930 . S
C2175 C2171 1.400 . S
C2175 C2174 1.385 . S
C2176 C2174 1.478 . S
C2176 C2178 1.381 . S
C2176 C2182 1.383 . S
C2177 C2173 1.495 . S
C2177 H2183 0.959 . S
C2177 H2184 0.961 . S
C2177 H2185 0.960 . S
C2178 C2176 1.381 . S
C2178 C2179 1.394 . S
C2178 H2186 0.930 . S
C2179 C2178 1.394 . S
C2179 C2180 1.383 . S
C2179 H2187 0.929 . S
C2180 C2179 1.383 . S
C2180 C2181 1.377 . S
C2181 H2165 0.930 . S
C2181 C2180 1.377 . S
C2181 C2182 1.379 . S
C2182 H2166 0.931 . S
C2182 C2176 1.383 . S
C2182 C2181 1.379 . S
H2183 C2177 0.959 . S
H2184 C2177 0.961 . S
H2185 C2177 0.960 . S
H2186 C2178 0.930 . S
H2187 C2179 0.929 . S
H2188 C2196 0.909 1_455 S
H2189 C2198 0.930 . S
H2190 C2200 0.930 . S
H2191 C2203 0.929 . S
H2192 C2206 0.930 . S
H2193 C2208 0.960 . S
H2194 C2208 0.960 . S
H2195 C2208 0.960 . S
C2196 H2188 0.909 1_655 S
C2196 C2197 1.385 . S
C2196 C2198 1.397 . S
C2197 C2196 1.385 . S
C2197 C2203 1.390 . S
C2198 H2189 0.930 . S
C2198 C2196 1.397 . S
C2198 C2199 1.372 . S
C2199 C2198 1.372 . S
C2199 C2200 1.400 . S
C2199 C2204 1.490 . S
C2200 H2190 0.930 . S
C2200 C2199 1.400 . S
C2200 C2203 1.386 . S
H2201 C2217 0.930 . S
H2202 C2218 0.931 . S
C2203 H2191 0.929 . S
C2203 C2197 1.390 . S
C2203 C2200 1.386 . S
C2204 C2199 1.490 . S
C2204 C2206 1.395 . S
C2204 C2207 1.403 . S
H2205 C2211 0.930 . S
C2206 H2192 0.930 . S
C2206 C2204 1.395 . S
C2206 C2209 1.403 . S
C2207 C2204 1.403 . S
C2207 C2208 1.524 . S
C2207 C2211 1.400 . S
C2208 H2193 0.960 . S
C2208 H2194 0.960 . S
C2208 H2195 0.960 . S
C2208 C2207 1.524 . S
C2209 C2206 1.403 . S
C2209 C2210 1.392 . S
C2209 C2213 1.495 . S
C2210 C2209 1.392 . S
C2210 C2211 1.385 . S
C2210 C2212 1.478 . S
C2211 H2205 0.930 . S
C2211 C2207 1.400 . S
C2211 C2210 1.385 . S
C2212 C2210 1.478 . S
C2212 C2214 1.381 . S
C2212 C2218 1.383 . S
C2213 C2209 1.495 . S
C2213 H2219 0.959 . S
C2213 H2220 0.961 . S
C2213 H2221 0.960 . S
C2214 C2212 1.381 . S
C2214 C2215 1.394 . S
C2214 H2222 0.930 . S
C2215 C2214 1.394 . S
C2215 C2216 1.383 . S
C2215 H2223 0.929 . S
C2216 C2215 1.383 . S
C2216 C2217 1.377 . S
C2217 H2201 0.930 . S
C2217 C2216 1.377 . S
C2217 C2218 1.379 . S
C2218 H2202 0.931 . S
C2218 C2212 1.383 . S
C2218 C2217 1.379 . S
H2219 C2213 0.959 . S
H2220 C2213 0.961 . S
H2221 C2213 0.960 . S
H2222 C2214 0.930 . S
H2223 C2215 0.929 . S
H2224 C2232 0.929 . S
H2225 C2234 0.930 . S
H2226 C2236 0.930 . S
H2227 C2239 0.929 . S
H2228 C2242 0.930 . S
H2229 C2244 0.960 . S
H2230 C2244 0.960 . S
H2231 C2244 0.960 . S
C2232 H2224 0.929 . S
C2232 C2233 1.377 . S
C2232 C2234 1.384 . S
C2233 C2232 1.377 . S
C2233 C2239 1.390 . S
C2234 H2225 0.930 . S
C2234 C2232 1.384 . S
C2234 C2235 1.372 . S
C2235 C2234 1.372 . S
C2235 C2236 1.400 . S
C2235 C2240 1.490 . S
C2236 H2226 0.930 . S
C2236 C2235 1.400 . S
C2236 C2239 1.386 . S
H2237 C2253 0.930 . S
H2238 C2254 0.931 . S
C2239 H2227 0.929 . S
C2239 C2233 1.390 . S
C2239 C2236 1.386 . S
C2240 C2235 1.490 . S
C2240 C2242 1.395 . S
C2240 C2243 1.403 . S
H2241 C2247 0.930 . S
C2242 H2228 0.930 . S
C2242 C2240 1.395 . S
C2242 C2245 1.403 . S
C2243 C2240 1.403 . S
C2243 C2244 1.524 . S
C2243 C2247 1.400 . S
C2244 H2229 0.960 . S
C2244 H2230 0.960 . S
C2244 H2231 0.960 . S
C2244 C2243 1.524 . S
C2245 C2242 1.403 . S
C2245 C2246 1.392 . S
C2245 C2249 1.495 . S
C2246 C2245 1.392 . S
C2246 C2247 1.385 . S
C2246 C2248 1.478 1_554 S
C2247 H2241 0.930 . S
C2247 C2243 1.400 . S
C2247 C2246 1.385 . S
C2248 C2246 1.478 1_556 S
C2248 C2250 1.381 . S
C2248 C2254 1.383 . S
C2249 C2245 1.495 . S
C2249 H2255 0.959 . S
C2249 H2256 0.961 . S
C2249 H2257 0.960 . S
C2250 C2248 1.381 . S
C2250 C2251 1.394 . S
C2250 H2258 0.930 . S
C2251 C2250 1.394 . S
C2251 C2252 1.383 . S
C2251 H2259 0.929 . S
C2252 C2251 1.383 . S
C2252 C2253 1.377 . S
C2253 H2237 0.930 . S
C2253 C2252 1.377 . S
C2253 C2254 1.379 . S
C2254 H2238 0.931 . S
C2254 C2248 1.383 . S
C2254 C2253 1.379 . S
H2255 C2249 0.959 . S
H2256 C2249 0.961 . S
H2257 C2249 0.960 . S
H2258 C2250 0.930 . S
H2259 C2251 0.929 . S
H2260 C2268 0.929 . S
H2261 C2270 0.930 . S
H2262 C2272 0.930 . S
H2263 C2275 0.929 . S
H2264 C2278 0.930 . S
H2265 C2280 0.960 . S
H2266 C2280 0.960 . S
H2267 C2280 0.960 . S
C2268 H2260 0.929 . S
C2268 C2269 1.377 . S
C2268 C2270 1.384 1_554 S
C2269 C2268 1.377 . S
C2269 C2275 1.390 . S
C2270 H2261 0.930 . S
C2270 C2268 1.384 1_556 S
C2270 C2271 1.372 . S
C2271 C2270 1.372 . S
C2271 C2272 1.400 . S
C2271 C2276 1.490 . S
C2272 H2262 0.930 . S
C2272 C2271 1.400 . S
C2272 C2275 1.386 1_556 S
H2273 C2289 0.930 . S
H2274 C2290 0.931 . S
C2275 H2263 0.929 . S
C2275 C2269 1.390 . S
C2275 C2272 1.386 1_554 S
C2276 C2271 1.490 . S
C2276 C2278 1.395 . S
C2276 C2279 1.403 . S
H2277 C2283 0.930 . S
C2278 H2264 0.930 . S
C2278 C2276 1.395 . S
C2278 C2281 1.403 . S
C2279 C2276 1.403 . S
C2279 C2280 1.524 . S
C2279 C2283 1.400 . S
C2280 H2265 0.960 . S
C2280 H2266 0.960 . S
C2280 H2267 0.960 . S
C2280 C2279 1.524 . S
C2281 C2278 1.403 . S
C2281 C2282 1.392 . S
C2281 C2285 1.495 . S
C2282 C2281 1.392 . S
C2282 C2283 1.385 . S
C2282 C2284 1.478 . S
C2283 H2277 0.930 . S
C2283 C2279 1.400 . S
C2283 C2282 1.385 . S
C2284 C2282 1.478 . S
C2284 C2286 1.381 . S
C2284 C2290 1.383 . S
C2285 C2281 1.495 . S
C2285 H2291 0.959 . S
C2285 H2292 0.961 . S
C2285 H2293 0.960 . S
C2286 C2284 1.381 . S
C2286 C2287 1.394 . S
C2286 H2294 0.930 . S
C2287 C2286 1.394 . S
C2287 C2288 1.383 . S
C2287 H2295 0.929 . S
C2288 C2287 1.383 . S
C2288 C2289 1.377 . S
C2289 H2273 0.930 . S
C2289 C2288 1.377 . S
C2289 C2290 1.379 . S
C2290 H2274 0.931 . S
C2290 C2284 1.383 . S
C2290 C2289 1.379 . S
H2291 C2285 0.959 . S
H2292 C2285 0.961 . S
H2293 C2285 0.960 . S
H2294 C2286 0.930 . S
H2295 C2287 0.929 . S
H2296 C2304 0.929 . S
H2297 C2306 0.930 . S
H2298 C2308 0.930 . S
H2299 C2311 0.929 . S
H2300 C2314 0.930 . S
H2301 C2316 0.960 . S
H2302 C2316 0.960 . S
H2303 C2316 0.960 . S
C2304 H2296 0.929 . S
C2304 C2305 1.377 . S
C2304 C2306 1.384 . S
C2305 C2304 1.377 . S
C2305 C2311 1.390 . S
C2306 H2297 0.930 . S
C2306 C2304 1.384 . S
C2306 C2307 1.372 . S
C2307 C2306 1.372 . S
C2307 C2308 1.400 . S
C2307 C2312 1.490 . S
C2308 H2298 0.930 . S
C2308 C2307 1.400 . S
C2308 C2311 1.386 . S
H2309 C2325 0.930 . S
H2310 C2326 0.931 . S
C2311 H2299 0.929 . S
C2311 C2305 1.390 . S
C2311 C2308 1.386 . S
C2312 C2307 1.490 . S
C2312 C2314 1.395 . S
C2312 C2315 1.403 . S
H2313 C2319 0.930 . S
C2314 H2300 0.930 . S
C2314 C2312 1.395 . S
C2314 C2317 1.403 . S
C2315 C2312 1.403 . S
C2315 C2316 1.524 . S
C2315 C2319 1.400 . S
C2316 H2301 0.960 . S
C2316 H2302 0.960 . S
C2316 H2303 0.960 . S
C2316 C2315 1.524 . S
C2317 C2314 1.403 . S
C2317 C2318 1.392 . S
C2317 C2321 1.495 . S
C2318 C2317 1.392 . S
C2318 C2319 1.385 . S
C2318 C2320 1.478 . S
C2319 H2313 0.930 . S
C2319 C2315 1.400 . S
C2319 C2318 1.385 . S
C2320 C2318 1.478 . S
C2320 C2322 1.381 . S
C2320 C2326 1.383 . S
C2321 C2317 1.495 . S
C2321 H2327 0.959 . S
C2321 H2328 0.961 . S
C2321 H2329 0.960 . S
C2322 C2320 1.381 . S
C2322 C2323 1.394 . S
C2322 H2330 0.930 . S
C2323 C2322 1.394 . S
C2323 C2324 1.383 . S
C2323 H2331 0.929 . S
C2324 C2323 1.383 . S
C2324 C2325 1.377 . S
C2325 H2309 0.930 . S
C2325 C2324 1.377 . S
C2325 C2326 1.379 . S
C2326 H2310 0.931 . S
C2326 C2320 1.383 . S
C2326 C2325 1.379 . S
H2327 C2321 0.959 . S
H2328 C2321 0.961 . S
H2329 C2321 0.960 . S
H2330 C2322 0.930 . S
H2331 C2323 0.929 . S
H2332 C2340 0.929 . S
H2333 C2342 0.930 . S
H2334 C2344 0.930 . S
H2335 C2347 0.929 . S
H2336 C2350 0.930 . S
H2337 C2352 0.960 . S
H2338 C2352 0.960 . S
H2339 C2352 0.960 . S
C2340 H2332 0.929 . S
C2340 C2341 1.377 . S
C2340 C2342 1.384 . S
C2341 C2340 1.377 . S
C2341 C2347 1.390 . S
C2342 H2333 0.930 . S
C2342 C2340 1.384 . S
C2342 C2343 1.372 . S
C2343 C2342 1.372 . S
C2343 C2344 1.400 . S
C2343 C2348 1.490 . S
C2344 H2334 0.930 . S
C2344 C2343 1.400 . S
C2344 C2347 1.386 . S
H2345 C2361 0.930 . S
H2346 C2362 0.931 . S
C2347 H2335 0.929 . S
C2347 C2341 1.390 . S
C2347 C2344 1.386 . S
C2348 C2343 1.490 . S
C2348 C2350 1.395 . S
C2348 C2351 1.403 . S
H2349 C2355 0.930 . S
C2350 H2336 0.930 . S
C2350 C2348 1.395 . S
C2350 C2353 1.403 . S
C2351 C2348 1.403 . S
C2351 C2352 1.524 . S
C2351 C2355 1.400 . S
C2352 H2337 0.960 . S
C2352 H2338 0.960 . S
C2352 H2339 0.960 . S
C2352 C2351 1.524 . S
C2353 C2350 1.403 . S
C2353 C2354 1.392 . S
C2353 C2357 1.495 . S
C2354 C2353 1.392 . S
C2354 C2355 1.385 . S
C2354 C2356 1.478 . S
C2355 H2349 0.930 . S
C2355 C2351 1.400 . S
C2355 C2354 1.385 . S
C2356 C2354 1.478 . S
C2356 C2358 1.381 . S
C2356 C2362 1.383 . S
C2357 C2353 1.495 . S
C2357 H2363 0.959 . S
C2357 H2364 0.961 . S
C2357 H2365 0.960 . S
C2358 C2356 1.381 . S
C2358 C2359 1.394 . S
C2358 H2366 0.930 . S
C2359 C2358 1.394 . S
C2359 C2360 1.383 . S
C2359 H2367 0.929 . S
C2360 C2359 1.383 . S
C2360 C2361 1.377 . S
C2361 H2345 0.930 . S
C2361 C2360 1.377 . S
C2361 C2362 1.379 . S
C2362 H2346 0.931 . S
C2362 C2356 1.383 . S
C2362 C2361 1.379 . S
H2363 C2357 0.959 . S
H2364 C2357 0.961 . S
H2365 C2357 0.960 . S
H2366 C2358 0.930 . S
H2367 C2359 0.929 . S
C649 C9 1.965 . S
C668 C295 1.963 . S
C685 C49 1.978 . S
C704 C175 1.981 . S
C721 C209 2.564 . S
C740 C89 2.584 . S
C757 C129 2.544 . S
C776 C249 2.538 . S
C793 C445 0.682 . S
C812 C179 0.696 . S
C829 C325 0.986 . S
C848 C5 0.968 . S
C865 C405 1.003 . S
C884 C245 1.017 . S
C901 C85 0.721 . S
C920 C379 0.720 . S
C937 C375 1.984 . S
C956 C489 1.938 . S
C973 C409 1.975 . S
C992 C575 1.993 . S
C1009 C529 2.589 1_556 S
C1028 C329 2.563 . S
C1045 C449 2.548 . S
C1064 C609 2.519 . S
C1081 C579 0.728 . S
C1100 C125 0.685 . S
C1117 C485 0.976 . S
C1136 C205 0.988 . S
C1153 C45 1.003 . S
C1172 C605 0.975 . S
C1189 C299 0.699 . S
C1208 C525 0.690 . S
C1225 C528 0.467 . S
C1244 C8 0.728 . S
C1261 C448 0.545 . S
C1280 C48 0.685 . S
C1297 C488 0.739 . S
C1316 C88 0.445 . S
C1333 C408 0.752 . S
C1352 C128 0.505 . S
C1369 C178 0.800 1_655 S
C1388 C608 0.596 . S
C1405 C378 0.835 . S
C1424 C208 0.562 . S
C1441 C248 0.559 . S
C1460 C578 0.776 . S
C1477 C298 0.809 . S
C1496 C328 0.579 . S
C1513 C18 1.649 . S
C1532 C168 1.664 1_455 S
C1549 C58 1.570 . S
C1568 C218 1.506 . S
C1585 C258 1.048 . S
C1604 C98 1.075 . S
C1621 C138 1.251 . S
C1640 C288 1.255 . S
C1657 C418 1.562 . S
C1676 C338 1.500 . S
C1693 C458 1.251 . S
C1712 C368 1.259 . S
C1729 C498 1.654 . S
C1748 C568 1.652 . S
C1765 C618 1.051 . S
C1784 C538 1.088 . S
C1801 C15 1.025 . S
C1820 C289 1.045 . S
C1837 C55 1.026 . S
C1856 C169 1.048 . S
C1873 C215 0.362 . S
C1892 C95 0.430 . S
C1909 C255 0.384 . S
C1928 C135 0.401 . S
C1945 C459 2.808 . S
C1964 C165 2.739 . S
C1981 C339 3.526 . S
C2000 C19 3.549 . S
C2017 C419 3.574 1_554 S
C2036 C259 3.555 . S
C2053 C99 2.792 . S
C2072 C365 2.729 . S
C2089 C495 1.034 . S
C2108 C369 1.065 . S
C2125 C569 1.051 . S
C2144 C415 1.052 . S
C2161 C535 0.412 . S
C2180 C335 0.337 . S
C2197 C615 0.395 . S
C2216 C455 0.489 . S
C2233 C565 2.752 . S
C2252 C139 2.803 . S
C2269 C219 3.528 . S
C2288 C499 3.544 . S
C2305 C59 3.576 . S
C2324 C619 3.544 . S
C2341 C539 2.790 . S
C2360 C285 2.743 . S
