# Generated by pormake.
# Topology uox, (4)-cn, num edge types: 1
# Building blocks:
#     Node 0, Type 0, BuildingBlock: UXUYUI_clean_sbu_0, # of connection points: 4
#     Node 1, Type 0, BuildingBlock: UXUYUI_clean_sbu_0, # of connection points: 4
#     Node 2, Type 0, BuildingBlock: UXUYUI_clean_sbu_0, # of connection points: 4
#     Node 3, Type 0, BuildingBlock: UXUYUI_clean_sbu_0, # of connection points: 4
#     Node 4, Type 0, BuildingBlock: UXUYUI_clean_sbu_0, # of connection points: 4
#     Node 5, Type 0, BuildingBlock: UXUYUI_clean_sbu_0, # of connection points: 4
#     Node 6, Type 0, BuildingBlock: UXUYUI_clean_sbu_0, # of connection points: 4
#     Node 7, Type 0, BuildingBlock: UXUYUI_clean_sbu_0, # of connection points: 4
#     Node 8, Type 0, BuildingBlock: UXUYUI_clean_sbu_0, # of connection points: 4
#     Node 9, Type 0, BuildingBlock: UXUYUI_clean_sbu_0, # of connection points: 4
#     Node 10, Type 0, BuildingBlock: UXUYUI_clean_sbu_0, # of connection points: 4
#     Node 11, Type 0, BuildingBlock: UXUYUI_clean_sbu_0, # of connection points: 4
#     Node 12, Type 0, BuildingBlock: UXUYUI_clean_sbu_0, # of connection points: 4
#     Node 13, Type 0, BuildingBlock: UXUYUI_clean_sbu_0, # of connection points: 4
#     Node 14, Type 0, BuildingBlock: UXUYUI_clean_sbu_0, # of connection points: 4
#     Node 15, Type 0, BuildingBlock: UXUYUI_clean_sbu_0, # of connection points: 4
#     Node 16, Type 0, BuildingBlock: UXUYUI_clean_sbu_0, # of connection points: 4
#     Node 17, Type 0, BuildingBlock: UXUYUI_clean_sbu_0, # of connection points: 4
#     Node 18, Type 0, BuildingBlock: UXUYUI_clean_sbu_0, # of connection points: 4
#     Node 19, Type 0, BuildingBlock: UXUYUI_clean_sbu_0, # of connection points: 4
#     Node 20, Type 0, BuildingBlock: UXUYUI_clean_sbu_0, # of connection points: 4
#     Node 21, Type 0, BuildingBlock: UXUYUI_clean_sbu_0, # of connection points: 4
#     Node 22, Type 0, BuildingBlock: UXUYUI_clean_sbu_0, # of connection points: 4
#     Node 23, Type 0, BuildingBlock: UXUYUI_clean_sbu_0, # of connection points: 4
#     Node 24, Type 0, BuildingBlock: UXUYUI_clean_sbu_0, # of connection points: 4
#     Node 25, Type 0, BuildingBlock: UXUYUI_clean_sbu_0, # of connection points: 4
#     Node 26, Type 0, BuildingBlock: UXUYUI_clean_sbu_0, # of connection points: 4
#     Node 27, Type 0, BuildingBlock: UXUYUI_clean_sbu_0, # of connection points: 4
#     Node 28, Type 0, BuildingBlock: UXUYUI_clean_sbu_0, # of connection points: 4
#     Node 29, Type 0, BuildingBlock: UXUYUI_clean_sbu_0, # of connection points: 4
#     Node 30, Type 0, BuildingBlock: UXUYUI_clean_sbu_0, # of connection points: 4
#     Node 31, Type 0, BuildingBlock: UXUYUI_clean_sbu_0, # of connection points: 4
#     Edge 32, Type (0, 0), BuildingBlock: TEMPAE_clean_linker_10, # of connection points: 2
#     Edge 33, Type (0, 0), BuildingBlock: TEMPAE_clean_linker_10, # of connection points: 2
#     Edge 34, Type (0, 0), BuildingBlock: TEMPAE_clean_linker_10, # of connection points: 2
#     Edge 35, Type (0, 0), BuildingBlock: TEMPAE_clean_linker_10, # of connection points: 2
#     Edge 36, Type (0, 0), BuildingBlock: TEMPAE_clean_linker_10, # of connection points: 2
#     Edge 37, Type (0, 0), BuildingBlock: TEMPAE_clean_linker_10, # of connection points: 2
#     Edge 38, Type (0, 0), BuildingBlock: TEMPAE_clean_linker_10, # of connection points: 2
#     Edge 39, Type (0, 0), BuildingBlock: TEMPAE_clean_linker_10, # of connection points: 2
#     Edge 40, Type (0, 0), BuildingBlock: TEMPAE_clean_linker_10, # of connection points: 2
#     Edge 41, Type (0, 0), BuildingBlock: TEMPAE_clean_linker_10, # of connection points: 2
#     Edge 42, Type (0, 0), BuildingBlock: TEMPAE_clean_linker_10, # of connection points: 2
#     Edge 43, Type (0, 0), BuildingBlock: TEMPAE_clean_linker_10, # of connection points: 2
#     Edge 44, Type (0, 0), BuildingBlock: TEMPAE_clean_linker_10, # of connection points: 2
#     Edge 45, Type (0, 0), BuildingBlock: TEMPAE_clean_linker_10, # of connection points: 2
#     Edge 46, Type (0, 0), BuildingBlock: TEMPAE_clean_linker_10, # of connection points: 2
#     Edge 47, Type (0, 0), BuildingBlock: TEMPAE_clean_linker_10, # of connection points: 2
#     Edge 48, Type (0, 0), BuildingBlock: TEMPAE_clean_linker_10, # of connection points: 2
#     Edge 49, Type (0, 0), BuildingBlock: TEMPAE_clean_linker_10, # of connection points: 2
#     Edge 50, Type (0, 0), BuildingBlock: TEMPAE_clean_linker_10, # of connection points: 2
#     Edge 51, Type (0, 0), BuildingBlock: TEMPAE_clean_linker_10, # of connection points: 2
#     Edge 52, Type (0, 0), BuildingBlock: TEMPAE_clean_linker_10, # of connection points: 2
#     Edge 53, Type (0, 0), BuildingBlock: TEMPAE_clean_linker_10, # of connection points: 2
#     Edge 54, Type (0, 0), BuildingBlock: TEMPAE_clean_linker_10, # of connection points: 2
#     Edge 55, Type (0, 0), BuildingBlock: TEMPAE_clean_linker_10, # of connection points: 2
#     Edge 56, Type (0, 0), BuildingBlock: TEMPAE_clean_linker_10, # of connection points: 2
#     Edge 57, Type (0, 0), BuildingBlock: TEMPAE_clean_linker_10, # of connection points: 2
#     Edge 58, Type (0, 0), BuildingBlock: TEMPAE_clean_linker_10, # of connection points: 2
#     Edge 59, Type (0, 0), BuildingBlock: TEMPAE_clean_linker_10, # of connection points: 2
#     Edge 60, Type (0, 0), BuildingBlock: TEMPAE_clean_linker_10, # of connection points: 2
#     Edge 61, Type (0, 0), BuildingBlock: TEMPAE_clean_linker_10, # of connection points: 2
#     Edge 62, Type (0, 0), BuildingBlock: TEMPAE_clean_linker_10, # of connection points: 2
#     Edge 63, Type (0, 0), BuildingBlock: TEMPAE_clean_linker_10, # of connection points: 2
#     Edge 64, Type (0, 0), BuildingBlock: TEMPAE_clean_linker_10, # of connection points: 2
#     Edge 65, Type (0, 0), BuildingBlock: TEMPAE_clean_linker_10, # of connection points: 2
#     Edge 66, Type (0, 0), BuildingBlock: TEMPAE_clean_linker_10, # of connection points: 2
#     Edge 67, Type (0, 0), BuildingBlock: TEMPAE_clean_linker_10, # of connection points: 2
#     Edge 68, Type (0, 0), BuildingBlock: TEMPAE_clean_linker_10, # of connection points: 2
#     Edge 69, Type (0, 0), BuildingBlock: TEMPAE_clean_linker_10, # of connection points: 2
#     Edge 70, Type (0, 0), BuildingBlock: TEMPAE_clean_linker_10, # of connection points: 2
#     Edge 71, Type (0, 0), BuildingBlock: TEMPAE_clean_linker_10, # of connection points: 2
#     Edge 72, Type (0, 0), BuildingBlock: TEMPAE_clean_linker_10, # of connection points: 2
#     Edge 73, Type (0, 0), BuildingBlock: TEMPAE_clean_linker_10, # of connection points: 2
#     Edge 74, Type (0, 0), BuildingBlock: TEMPAE_clean_linker_10, # of connection points: 2
#     Edge 75, Type (0, 0), BuildingBlock: TEMPAE_clean_linker_10, # of connection points: 2
#     Edge 76, Type (0, 0), BuildingBlock: TEMPAE_clean_linker_10, # of connection points: 2
#     Edge 77, Type (0, 0), BuildingBlock: TEMPAE_clean_linker_10, # of connection points: 2
#     Edge 78, Type (0, 0), BuildingBlock: TEMPAE_clean_linker_10, # of connection points: 2
#     Edge 79, Type (0, 0), BuildingBlock: TEMPAE_clean_linker_10, # of connection points: 2
#     Edge 80, Type (0, 0), BuildingBlock: TEMPAE_clean_linker_10, # of connection points: 2
#     Edge 81, Type (0, 0), BuildingBlock: TEMPAE_clean_linker_10, # of connection points: 2
#     Edge 82, Type (0, 0), BuildingBlock: TEMPAE_clean_linker_10, # of connection points: 2
#     Edge 83, Type (0, 0), BuildingBlock: TEMPAE_clean_linker_10, # of connection points: 2
#     Edge 84, Type (0, 0), BuildingBlock: TEMPAE_clean_linker_10, # of connection points: 2
#     Edge 85, Type (0, 0), BuildingBlock: TEMPAE_clean_linker_10, # of connection points: 2
#     Edge 86, Type (0, 0), BuildingBlock: TEMPAE_clean_linker_10, # of connection points: 2
#     Edge 87, Type (0, 0), BuildingBlock: TEMPAE_clean_linker_10, # of connection points: 2
#     Edge 88, Type (0, 0), BuildingBlock: TEMPAE_clean_linker_10, # of connection points: 2
#     Edge 89, Type (0, 0), BuildingBlock: TEMPAE_clean_linker_10, # of connection points: 2
#     Edge 90, Type (0, 0), BuildingBlock: TEMPAE_clean_linker_10, # of connection points: 2
#     Edge 91, Type (0, 0), BuildingBlock: TEMPAE_clean_linker_10, # of connection points: 2
#     Edge 92, Type (0, 0), BuildingBlock: TEMPAE_clean_linker_10, # of connection points: 2
#     Edge 93, Type (0, 0), BuildingBlock: TEMPAE_clean_linker_10, # of connection points: 2
#     Edge 94, Type (0, 0), BuildingBlock: TEMPAE_clean_linker_10, # of connection points: 2
#     Edge 95, Type (0, 0), BuildingBlock: TEMPAE_clean_linker_10, # of connection points: 2
# Relax obj value: 0.188
# Max RMSD: 0.179
# Mean RMSD: 0.179
data_MOF--net-uox--node1-UXUYUI_clean_sbu_0--edge1-TEMPAE_clean_linker_10
_symmetry_space_group_name_H-M    P1
_symmetry_Int_Tables_number       1
_symmetry_cell_setting            triclinic
loop_
_symmetry_equiv_pos_as_xyz
'x, y, z'
_cell_length_a     66.031344
_cell_length_b     66.035674
_cell_length_c     117.33526
_cell_angle_alpha  90.002285
_cell_angle_beta   89.99444
_cell_angle_gamma 89.996443
loop_
_atom_site_label
_atom_site_type_symbol
_atom_site_fract_x
_atom_site_fract_y
_atom_site_fract_z
_atom_type_partial_charge
Li0 Li 0.44866 0.03917 0.15085 0.0
Li1 Li 0.43026 0.03257 0.16856 0.0
Li2 Li 0.42194 0.01474 0.15104 0.0
Li3 Li 0.41383 0.05084 0.15329 0.0
C4 C 0.45157 0.99363 0.15992 0.0
N5 N 0.45749 0.95221 0.16005 0.0
C6 C 0.44807 0.98249 0.16985 0.0
C7 C 0.45819 0.98373 0.15007 0.0
C8 C 0.45115 0.96156 0.16974 0.0
C9 C 0.46104 0.96277 0.1503 0.0
C10 C 0.44501 0.06883 0.17133 0.0
C11 C 0.43915 0.08724 0.18876 0.0
N12 N 0.45939 0.08699 0.19093 0.0
C13 C 0.46575 0.06879 0.1737 0.0
C14 C 0.43159 0.07817 0.17889 0.0
C15 C 0.47272 0.07806 0.18366 0.0
C16 C 0.47582 0.0678 0.14286 0.0
N17 N 0.47369 0.04752 0.14437 0.0
C18 C 0.50611 0.04147 0.13597 0.0
C19 C 0.48839 0.03432 0.14112 0.0
C20 C 0.50867 0.06239 0.13422 0.0
C21 C 0.49325 0.0756 0.13782 0.0
H22 H 0.46386 0.07793 0.14554 0.0
H23 H 0.48628 0.01826 0.14241 0.0
C24 C 0.4148 0.02728 0.19066 0.0
N25 N 0.43221 0.02934 0.18462 0.0
C26 C 0.41546 0.02326 0.20232 0.0
C27 C 0.45203 0.02372 0.20137 0.0
C28 C 0.45065 0.02771 0.1897 0.0
C29 C 0.43425 0.02118 0.20779 0.0
H30 H 0.40036 0.02827 0.1864 0.0
H31 H 0.46426 0.02897 0.18462 0.0
C32 C 0.43476 0.04307 0.1302 0.0
N33 N 0.45502 0.05663 0.11106 0.0
C34 C 0.433 0.06327 0.12678 0.0
C35 C 0.44671 0.02973 0.12384 0.0
C36 C 0.44338 0.06983 0.11708 0.0
C37 C 0.45687 0.03689 0.11421 0.0
C38 C 0.38303 0.03125 0.16274 0.0
C39 C 0.36944 0.01988 0.15622 0.0
C40 C 0.37574 0.04686 0.16968 0.0
C41 C 0.34878 0.02437 0.15672 0.0
C42 C 0.35498 0.0509 0.16992 0.0
N43 N 0.34204 0.03966 0.16349 0.0
C44 C 0.40469 0.97646 0.15342 0.0
C45 C 0.40937 0.98642 0.13419 0.0
C46 C 0.39467 0.95891 0.15001 0.0
N47 N 0.41158 0.98985 0.14553 0.0
C48 C 0.39937 0.96905 0.13038 0.0
C49 C 0.39148 0.95526 0.13836 0.0
H50 H 0.40632 0.97982 0.1624 0.0
H51 H 0.41463 0.99754 0.12812 0.0
C52 C 0.40095 0.09129 0.15192 0.0
N53 N 0.39567 0.07199 0.14926 0.0
C54 C 0.38892 0.10748 0.14839 0.0
C55 C 0.36592 0.08359 0.13967 0.0
C56 C 0.37867 0.0679 0.14316 0.0
C57 C 0.37109 0.10379 0.14215 0.0
H58 H 0.41487 0.09416 0.1565 0.0
H59 H 0.37512 0.05245 0.14086 0.0
O60 O 0.44837 0.0141 0.15981 0.0
O61 O 0.43785 0.0595 0.16174 0.0
O62 O 0.42522 0.0365 0.13986 0.0
O63 O 0.40334 0.02716 0.16234 0.0
H64 H 0.44284 0.98986 0.17754 0.0
H65 H 0.46076 0.99208 0.14228 0.0
H66 H 0.44841 0.95273 0.17736 0.0
H67 H 0.46601 0.9549 0.14272 0.0
H68 H 0.42893 0.09446 0.19472 0.0
H69 H 0.47633 0.06148 0.16798 0.0
H70 H 0.41549 0.0783 0.17718 0.0
H71 H 0.48872 0.07807 0.18564 0.0
H72 H 0.51751 0.03073 0.13325 0.0
H73 H 0.4947 0.09184 0.13686 0.0
H74 H 0.40139 0.02161 0.20697 0.0
H75 H 0.46682 0.02198 0.20523 0.0
H76 H 0.42391 0.07382 0.13162 0.0
H77 H 0.44836 0.01409 0.12642 0.0
H78 H 0.44225 0.08545 0.11437 0.0
H79 H 0.46629 0.02677 0.10926 0.0
H80 H 0.37475 0.00784 0.15074 0.0
H81 H 0.38604 0.0559 0.17472 0.0
H82 H 0.33811 0.01573 0.15169 0.0
H83 H 0.34916 0.063 0.1752 0.0
H84 H 0.38897 0.9486 0.15643 0.0
H85 H 0.39695 0.96698 0.12132 0.0
H86 H 0.39393 0.12273 0.15025 0.0
H87 H 0.35228 0.07988 0.13501 0.0
Li88 Li 0.20414 0.19915 0.40082 0.0
Li89 Li 0.21162 0.18067 0.41849 0.0
Li90 Li 0.22841 0.17225 0.40059 0.0
Li91 Li 0.1926 0.16431 0.4035 0.0
C92 C 0.25012 0.20163 0.40912 0.0
N93 N 0.29158 0.2071 0.40843 0.0
C94 C 0.26198 0.19686 0.41861 0.0
C95 C 0.25932 0.20936 0.39931 0.0
C96 C 0.28292 0.1997 0.41809 0.0
C97 C 0.28032 0.21195 0.39912 0.0
C98 C 0.17479 0.19629 0.42141 0.0
C99 C 0.15845 0.19182 0.43963 0.0
N100 N 0.15565 0.21219 0.44034 0.0
C101 C 0.17169 0.21717 0.42231 0.0
C102 C 0.16805 0.18348 0.43011 0.0
C103 C 0.16199 0.22491 0.43195 0.0
C104 C 0.17753 0.22593 0.39008 0.0
N105 N 0.19642 0.22451 0.39458 0.0
C106 C 0.20306 0.25921 0.39021 0.0
C107 C 0.20918 0.24064 0.39477 0.0
C108 C 0.18367 0.26109 0.38533 0.0
C109 C 0.17093 0.24403 0.38525 0.0
H110 H 0.16759 0.21292 0.39023 0.0
H111 H 0.22401 0.23916 0.39858 0.0
C112 C 0.22434 0.16601 0.43966 0.0
N113 N 0.21631 0.18252 0.43444 0.0
C114 C 0.22959 0.16674 0.45116 0.0
C115 C 0.21788 0.20139 0.4518 0.0
C116 C 0.21326 0.20011 0.4402 0.0
C117 C 0.22635 0.1846 0.45744 0.0
H118 H 0.2272 0.15241 0.43479 0.0
H119 H 0.20744 0.21323 0.43578 0.0
C120 C 0.1999 0.18454 0.37989 0.0
N121 N 0.18713 0.20289 0.35998 0.0
C122 C 0.18044 0.18085 0.37568 0.0
C123 C 0.21291 0.19746 0.37393 0.0
C124 C 0.17426 0.19029 0.36561 0.0
C125 C 0.20615 0.20664 0.3639 0.0
C126 C 0.21175 0.13371 0.41244 0.0
C127 C 0.21974 0.12041 0.40433 0.0
C128 C 0.19845 0.12644 0.42075 0.0
C129 C 0.21417 0.10001 0.40465 0.0
C130 C 0.19323 0.10594 0.42076 0.0
N131 N 0.20113 0.09326 0.41278 0.0
C132 C 0.26601 0.15355 0.40228 0.0
C133 C 0.25643 0.16097 0.38326 0.0
C134 C 0.28338 0.14362 0.39853 0.0
N135 N 0.25292 0.1618 0.39465 0.0
C136 C 0.27362 0.1511 0.37911 0.0
C137 C 0.28717 0.14196 0.38679 0.0
H138 H 0.26254 0.15409 0.41129 0.0
H139 H 0.24559 0.16737 0.37738 0.0
C140 C 0.15357 0.14701 0.40548 0.0
N141 N 0.17156 0.14572 0.39993 0.0
C142 C 0.13741 0.13462 0.4023 0.0
C143 C 0.15874 0.11955 0.38785 0.0
C144 C 0.17449 0.13223 0.39133 0.0
C145 C 0.13978 0.12088 0.39325 0.0
H146 H 0.15158 0.15801 0.4122 0.0
H147 H 0.1889 0.13177 0.38695 0.0
O148 O 0.22965 0.19856 0.40937 0.0
O149 O 0.18428 0.18841 0.41205 0.0
O150 O 0.20614 0.17567 0.38982 0.0
O151 O 0.21666 0.15381 0.41213 0.0
H152 H 0.25512 0.19086 0.42627 0.0
H153 H 0.25037 0.21313 0.39189 0.0
H154 H 0.2923 0.19597 0.42535 0.0
H155 H 0.28766 0.21779 0.39156 0.0
H156 H 0.15328 0.18211 0.44646 0.0
H157 H 0.17682 0.22731 0.41567 0.0
H158 H 0.17043 0.1673 0.42958 0.0
H159 H 0.15954 0.24104 0.43278 0.0
H160 H 0.21328 0.272 0.39068 0.0
H161 H 0.15601 0.24455 0.38144 0.0
H162 H 0.23658 0.15356 0.45498 0.0
H163 H 0.21489 0.21543 0.45625 0.0
H164 H 0.17011 0.17102 0.38021 0.0
H165 H 0.22798 0.20055 0.37708 0.0
H166 H 0.15921 0.18765 0.36229 0.0
H167 H 0.21601 0.21677 0.35924 0.0
H168 H 0.22995 0.12582 0.39779 0.0
H169 H 0.19212 0.13656 0.42707 0.0
H170 H 0.22016 0.08956 0.3984 0.0
H171 H 0.18287 0.10012 0.42711 0.0
H172 H 0.29322 0.13648 0.40472 0.0
H173 H 0.27605 0.15021 0.36999 0.0
H174 H 0.12313 0.13599 0.40677 0.0
H175 H 0.16115 0.10938 0.38074 0.0
Li176 Li 0.04707 0.956 0.65153 0.0
Li177 Li 0.06672 0.96425 0.66915 0.0
Li178 Li 0.0763 0.97774 0.65118 0.0
Li179 Li 0.08156 0.94233 0.65467 0.0
C180 C 0.04815 0.00272 0.65803 0.0
N181 N 0.04546 0.0441 0.65491 0.0
C182 C 0.05548 0.01593 0.66637 0.0
C183 C 0.0392 0.01054 0.64817 0.0
C184 C 0.05404 0.0368 0.66462 0.0
C185 C 0.03805 0.03151 0.64674 0.0
C186 C 0.06051 0.92245 0.6718 0.0
C187 C 0.08163 0.90818 0.68652 0.0
N188 N 0.06829 0.89263 0.68772 0.0
C189 C 0.04703 0.90633 0.67317 0.0
C190 C 0.07797 0.92341 0.67852 0.0
C191 C 0.05122 0.8914 0.68127 0.0
C192 C 0.0217 0.93148 0.63901 0.0
N193 N 0.02183 0.94883 0.64521 0.0
C194 C 0.9866 0.95402 0.64165 0.0
C195 C 0.00484 0.96018 0.64662 0.0
C196 C 0.98603 0.93614 0.63515 0.0
C197 C 0.0039 0.92483 0.63386 0.0
H198 H 0.03551 0.92281 0.63808 0.0
H199 H 0.00548 0.97396 0.65159 0.0
C200 C 0.08063 0.98084 0.68944 0.0
N201 N 0.06506 0.97014 0.68487 0.0
C202 C 0.08 0.98683 0.70082 0.0
C203 C 0.04738 0.97047 0.70263 0.0
C204 C 0.04865 0.96478 0.69117 0.0
C205 C 0.06313 0.98182 0.70755 0.0
H206 H 0.09338 0.98503 0.68417 0.0
H207 H 0.03644 0.95638 0.68724 0.0
C208 C 0.06923 0.95782 0.62946 0.0
N209 N 0.06736 0.96307 0.60611 0.0
C210 C 0.08495 0.95082 0.62251 0.0
C211 C 0.05243 0.96723 0.62451 0.0
C212 C 0.08376 0.95371 0.61073 0.0
C213 C 0.0518 0.96981 0.6127 0.0
C214 C 0.11442 0.96616 0.65991 0.0
C215 C 0.12026 0.96543 0.64847 0.0
C216 C 0.12921 0.9676 0.66839 0.0
C217 C 0.14081 0.96622 0.64569 0.0
C218 C 0.14962 0.96834 0.66527 0.0
N219 N 0.15495 0.96764 0.65408 0.0
C220 C 0.09935 0.01256 0.65256 0.0
C221 C 0.08709 0.00737 0.63381 0.0
C222 C 0.11014 0.02958 0.64908 0.0
N223 N 0.0884 0.00164 0.64492 0.0
C224 C 0.09765 0.02437 0.62995 0.0
C225 C 0.10966 0.03547 0.6376 0.0
H226 H 0.09993 0.00783 0.66138 0.0
H227 H 0.0782 0.99868 0.62788 0.0
C228 C 0.09077 0.9077 0.64258 0.0
N229 N 0.09747 0.91917 0.65141 0.0
C230 C 0.10161 0.89067 0.63913 0.0
C231 C 0.12599 0.89739 0.65404 0.0
C232 C 0.1146 0.91432 0.65723 0.0
C233 C 0.11952 0.88536 0.64485 0.0
H234 H 0.07705 0.91194 0.63814 0.0
H235 H 0.11947 0.92358 0.66431 0.0
O236 O 0.04993 0.98224 0.65945 0.0
O237 O 0.05661 0.9371 0.66386 0.0
O238 O 0.07 0.95474 0.64099 0.0
O239 O 0.09439 0.96529 0.66288 0.0
H240 H 0.06243 0.01013 0.67405 0.0
H241 H 0.03331 0.00054 0.64168 0.0
H242 H 0.05979 0.0472 0.67096 0.0
H243 H 0.0313 0.03778 0.63912 0.0
H244 H 0.09508 0.90872 0.69178 0.0
H245 H 0.03347 0.90537 0.668 0.0
H246 H 0.08862 0.93572 0.67758 0.0
H247 H 0.04092 0.87883 0.68242 0.0
H248 H 0.97316 0.96321 0.64279 0.0
H249 H 0.00404 0.91079 0.62909 0.0
H250 H 0.0926 0.9953 0.70431 0.0
H251 H 0.03403 0.96644 0.70749 0.0
H252 H 0.09791 0.94317 0.62616 0.0
H253 H 0.04006 0.9726 0.62971 0.0
H254 H 0.09585 0.94844 0.60526 0.0
H255 H 0.03894 0.97716 0.60877 0.0
H256 H 0.10907 0.96438 0.6418 0.0
H257 H 0.12498 0.96804 0.6773 0.0
H258 H 0.14551 0.96572 0.63686 0.0
H259 H 0.16123 0.96944 0.67175 0.0
H260 H 0.11895 0.03792 0.6553 0.0
H261 H 0.09697 0.02837 0.62101 0.0
H262 H 0.09621 0.88196 0.63192 0.0
H263 H 0.13959 0.89367 0.65875 0.0
Li264 Li 0.28349 0.81493 0.91763 0.0
Li265 Li 0.28954 0.79681 0.89957 0.0
Li266 Li 0.30225 0.83098 0.90236 0.0
Li267 Li 0.26709 0.82504 0.90071 0.0
C268 C 0.31849 0.79021 0.9164 0.0
N269 N 0.33568 0.75729 0.92725 0.0
C270 C 0.30626 0.77445 0.9204 0.0
C271 C 0.33946 0.7892 0.91789 0.0
C272 C 0.31524 0.75795 0.92586 0.0
C273 C 0.34786 0.77244 0.92341 0.0
C274 C 0.2454 0.79313 0.90488 0.0
C275 C 0.22319 0.78057 0.89017 0.0
N276 N 0.20703 0.78371 0.89714 0.0
C277 C 0.22858 0.79615 0.91191 0.0
C278 C 0.24272 0.78523 0.89393 0.0
C279 C 0.2093 0.79133 0.90783 0.0
C280 C 0.26081 0.82015 0.93694 0.0
N281 N 0.27931 0.81336 0.93364 0.0
C282 C 0.28824 0.80619 0.95296 0.0
C283 C 0.29318 0.80682 0.94138 0.0
C284 C 0.26897 0.8126 0.95658 0.0
C285 C 0.25527 0.81987 0.94839 0.0
H286 H 0.2504 0.82598 0.93063 0.0
H287 H 0.30806 0.80214 0.93862 0.0
C288 C 0.31196 0.77272 0.88505 0.0
N289 N 0.29655 0.77192 0.8927 0.0
C290 C 0.31938 0.75498 0.88016 0.0
C291 C 0.29467 0.73593 0.89096 0.0
C292 C 0.28772 0.75409 0.89567 0.0
C293 C 0.3109 0.73624 0.88321 0.0
H294 H 0.31871 0.78717 0.88293 0.0
H295 H 0.27561 0.75394 0.90188 0.0
C296 C 0.28886 0.85604 0.91956 0.0
N297 N 0.30564 0.88275 0.93504 0.0
C298 C 0.27923 0.87439 0.92195 0.0
C299 C 0.30705 0.85127 0.92505 0.0
C300 C 0.28795 0.8877 0.9298 0.0
C301 C 0.31527 0.86497 0.93285 0.0
C302 C 0.28724 0.83406 0.88046 0.0
C303 C 0.28226 0.85416 0.88296 0.0
C304 C 0.29182 0.82857 0.86925 0.0
C305 C 0.28193 0.86844 0.87417 0.0
C306 C 0.29132 0.8433 0.86071 0.0
N307 N 0.28643 0.86276 0.86332 0.0
C308 C 0.34064 0.83819 0.89372 0.0
C309 C 0.3233 0.86843 0.8986 0.0
C310 C 0.35699 0.84928 0.88952 0.0
N311 N 0.32425 0.84787 0.8981 0.0
C312 C 0.33941 0.88013 0.89458 0.0
C313 C 0.35645 0.87053 0.88986 0.0
H314 H 0.34082 0.82182 0.89333 0.0
H315 H 0.30989 0.87578 0.90188 0.0
C316 C 0.23299 0.84902 0.90294 0.0
N317 N 0.24245 0.83644 0.8955 0.0
C318 C 0.21588 0.85978 0.89958 0.0
C319 C 0.21792 0.8436 0.88111 0.0
C320 C 0.23516 0.83326 0.88481 0.0
C321 C 0.2084 0.85741 0.88847 0.0
H322 H 0.23909 0.85107 0.91142 0.0
H323 H 0.24306 0.82316 0.87907 0.0
O324 O 0.31016 0.8064 0.91085 0.0
O325 O 0.26437 0.79822 0.90859 0.0
O326 O 0.28037 0.84296 0.91187 0.0
O327 O 0.28777 0.81973 0.88888 0.0
H328 H 0.29 0.77497 0.91935 0.0
H329 H 0.34912 0.80125 0.91479 0.0
H330 H 0.30596 0.74566 0.92901 0.0
H331 H 0.36407 0.77147 0.92463 0.0
H332 H 0.22088 0.77456 0.8817 0.0
H333 H 0.23036 0.8022 0.92041 0.0
H334 H 0.25553 0.78305 0.88832 0.0
H335 H 0.19614 0.79365 0.91316 0.0
H336 H 0.29929 0.80052 0.95899 0.0
H337 H 0.24048 0.8255 0.95082 0.0
H338 H 0.33173 0.75592 0.8741 0.0
H339 H 0.28786 0.72179 0.89363 0.0
H340 H 0.26517 0.87834 0.91776 0.0
H341 H 0.31481 0.8372 0.92333 0.0
H342 H 0.28065 0.90197 0.93172 0.0
H343 H 0.32933 0.86147 0.93715 0.0
H344 H 0.27867 0.85874 0.89156 0.0
H345 H 0.29573 0.81307 0.86719 0.0
H346 H 0.2781 0.88403 0.87599 0.0
H347 H 0.29484 0.83926 0.85199 0.0
H348 H 0.36994 0.84131 0.88605 0.0
H349 H 0.33834 0.89649 0.89487 0.0
H350 H 0.2088 0.87018 0.9055 0.0
H351 H 0.21263 0.84153 0.87245 0.0
Li352 Li 0.42167 0.98042 0.34812 0.0
Li353 Li 0.41594 0.94477 0.34414 0.0
Li354 Li 0.45047 0.95839 0.34702 0.0
Li355 Li 0.43251 0.96642 0.32973 0.0
C356 C 0.42107 0.9621 0.36847 0.0
N357 N 0.40702 0.97324 0.38974 0.0
C358 C 0.40104 0.95805 0.37158 0.0
C359 C 0.43404 0.97152 0.37624 0.0
C360 C 0.3942 0.96389 0.38235 0.0
C361 C 0.42663 0.97711 0.38694 0.0
C362 C 0.39078 0.96261 0.32781 0.0
C363 C 0.37966 0.93897 0.31345 0.0
N364 N 0.36358 0.95116 0.31113 0.0
C365 C 0.37417 0.97491 0.32529 0.0
C366 C 0.39358 0.94449 0.32186 0.0
C367 C 0.36057 0.96886 0.31682 0.0
C368 C 0.41859 0.02107 0.35646 0.0
N369 N 0.40899 0.00303 0.35504 0.0
C370 C 0.37811 0.01684 0.36222 0.0
C371 C 0.38913 0.00068 0.35776 0.0
C372 C 0.38756 0.0357 0.36373 0.0
C373 C 0.40809 0.03772 0.36083 0.0
H374 H 0.43422 0.02273 0.35395 0.0
H375 H 0.38174 0.98633 0.35622 0.0
C376 C 0.40865 0.9053 0.3511 0.0
N377 N 0.3991 0.92225 0.34737 0.0
C378 C 0.39744 0.88852 0.35461 0.0
C379 C 0.36673 0.90686 0.3502 0.0
C380 C 0.37856 0.92338 0.34687 0.0
C381 C 0.37616 0.88916 0.35425 0.0
H382 H 0.425 0.90504 0.35161 0.0
H383 H 0.37132 0.93722 0.34411 0.0
C384 C 0.46449 0.99617 0.34162 0.0
N385 N 0.49986 0.01749 0.34541 0.0
C386 C 0.47674 0.00186 0.33245 0.0
C387 C 0.47015 0.00143 0.3527 0.0
C388 C 0.49458 0.01261 0.33454 0.0
C389 C 0.48811 0.01217 0.35445 0.0
C390 C 0.45697 0.93079 0.3295 0.0
C391 C 0.47163 0.9432 0.32451 0.0
C392 C 0.45903 0.90976 0.32892 0.0
C393 C 0.48816 0.93435 0.319 0.0
C394 C 0.47577 0.90148 0.32332 0.0
N395 N 0.48987 0.91384 0.31852 0.0
C396 C 0.47444 0.93676 0.36199 0.0
C397 C 0.49411 0.95685 0.34942 0.0
C398 C 0.49191 0.92864 0.36687 0.0
N399 N 0.47581 0.95056 0.35344 0.0
C400 C 0.51198 0.94941 0.35421 0.0
C401 C 0.51093 0.93498 0.36296 0.0
H402 H 0.45971 0.93174 0.36487 0.0
H403 H 0.49492 0.96724 0.34235 0.0
C404 C 0.43419 0.99229 0.31107 0.0
N405 N 0.43428 0.97238 0.31397 0.0
C406 C 0.43501 0.99805 0.29965 0.0
C407 C 0.43586 0.96265 0.29438 0.0
C408 C 0.43504 0.95757 0.30593 0.0
C409 C 0.4358 0.98313 0.29112 0.0
H410 H 0.43345 0.0037 0.31768 0.0
H411 H 0.43482 0.94184 0.30847 0.0
O412 O 0.428 0.95666 0.35793 0.0
O413 O 0.40426 0.96847 0.33603 0.0
O414 O 0.44701 0.98558 0.33972 0.0
O415 O 0.44075 0.9391 0.33503 0.0
H416 H 0.39083 0.95068 0.36568 0.0
H417 H 0.4497 0.97437 0.37406 0.0
H418 H 0.37869 0.961 0.38484 0.0
H419 H 0.43649 0.98447 0.39303 0.0
H420 H 0.38164 0.92499 0.30878 0.0
H421 H 0.37182 0.989 0.32982 0.0
H422 H 0.40633 0.93475 0.3237 0.0
H423 H 0.34763 0.97823 0.31478 0.0
H424 H 0.36219 0.01476 0.36412 0.0
H425 H 0.41589 0.05203 0.36186 0.0
H426 H 0.4054 0.87543 0.35789 0.0
H427 H 0.35041 0.90801 0.34967 0.0
H428 H 0.47257 0.99796 0.3238 0.0
H429 H 0.46081 0.9972 0.35988 0.0
H430 H 0.50424 0.01706 0.32753 0.0
H431 H 0.49271 0.01627 0.36299 0.0
H432 H 0.4703 0.95949 0.32492 0.0
H433 H 0.4478 0.89995 0.33276 0.0
H434 H 0.49963 0.94379 0.31511 0.0
H435 H 0.47756 0.88522 0.3228 0.0
H436 H 0.49058 0.91747 0.37359 0.0
H437 H 0.52646 0.95437 0.35088 0.0
H438 H 0.43515 0.01401 0.29752 0.0
H439 H 0.43615 0.95067 0.28808 0.0
Li440 Li 0.26592 0.17346 0.59705 0.0
Li441 Li 0.30201 0.16543 0.59394 0.0
Li442 Li 0.29011 0.19935 0.59717 0.0
Li443 Li 0.28161 0.1824 0.5791 0.0
C444 C 0.29312 0.1855 0.61795 0.0
N445 N 0.30255 0.20601 0.63782 0.0
C446 C 0.31267 0.18447 0.62249 0.0
C447 C 0.27828 0.19664 0.62368 0.0
C448 C 0.31717 0.19502 0.63249 0.0
C449 C 0.28335 0.20698 0.63367 0.0
C450 C 0.27326 0.13528 0.58743 0.0
C451 C 0.26265 0.10243 0.58074 0.0
N452 N 0.2626 0.09552 0.59166 0.0
C453 C 0.27315 0.12784 0.5986 0.0
C454 C 0.26796 0.1225 0.57843 0.0
C455 C 0.26769 0.1077 0.60055 0.0
C456 C 0.22775 0.15611 0.5947 0.0
N457 N 0.24129 0.16244 0.60266 0.0
C458 C 0.22129 0.1482 0.61759 0.0
C459 C 0.23835 0.15888 0.61395 0.0
C460 C 0.20738 0.14092 0.60951 0.0
C461 C 0.21057 0.14532 0.59795 0.0
H462 H 0.23075 0.15878 0.58576 0.0
H463 H 0.24967 0.16348 0.62006 0.0
C464 C 0.34177 0.15754 0.59996 0.0
N465 N 0.32477 0.14793 0.59633 0.0
C466 C 0.35909 0.14653 0.60275 0.0
C467 C 0.34165 0.11591 0.59722 0.0
C468 C 0.3246 0.12755 0.59459 0.0
C469 C 0.3591 0.12535 0.60157 0.0
H470 H 0.34174 0.17383 0.6009 0.0
H471 H 0.31134 0.1202 0.59121 0.0
C472 C 0.24373 0.20358 0.58898 0.0
N473 N 0.20235 0.21012 0.58942 0.0
C474 C 0.23233 0.20203 0.57898 0.0
C475 C 0.23409 0.20895 0.59915 0.0
C476 C 0.21144 0.20528 0.57938 0.0
C477 C 0.21317 0.21204 0.59922 0.0
C478 C 0.32326 0.18512 0.57697 0.0
C479 C 0.33938 0.19831 0.57487 0.0
C480 C 0.32183 0.167 0.57085 0.0
C481 C 0.35379 0.19319 0.56664 0.0
C482 C 0.33655 0.16242 0.56269 0.0
N483 N 0.35209 0.1755 0.56078 0.0
C484 C 0.31918 0.22652 0.60473 0.0
C485 C 0.28567 0.23815 0.60784 0.0
C486 C 0.3271 0.24373 0.60995 0.0
N487 N 0.29884 0.22404 0.60381 0.0
C488 C 0.29294 0.25557 0.61323 0.0
C489 C 0.31394 0.25851 0.61438 0.0
H490 H 0.32926 0.21497 0.60147 0.0
H491 H 0.26956 0.23572 0.60704 0.0
C492 C 0.26229 0.17205 0.55892 0.0
N493 N 0.27703 0.18424 0.56319 0.0
C494 C 0.25715 0.173 0.54742 0.0
C495 C 0.28313 0.1984 0.54476 0.0
C496 C 0.28749 0.19727 0.55641 0.0
C497 C 0.26761 0.18634 0.54022 0.0
H498 H 0.25415 0.16197 0.56456 0.0
H499 H 0.29907 0.20688 0.56005 0.0
O500 O 0.28855 0.17572 0.60797 0.0
O501 O 0.27789 0.15514 0.58533 0.0
O502 O 0.2642 0.20014 0.58877 0.0
O503 O 0.30914 0.18996 0.58506 0.0
H504 H 0.32427 0.17563 0.61837 0.0
H505 H 0.26303 0.19745 0.62043 0.0
H506 H 0.33229 0.19445 0.63603 0.0
H507 H 0.27203 0.21581 0.63811 0.0
H508 H 0.25852 0.09236 0.57384 0.0
H509 H 0.27723 0.13748 0.60568 0.0
H510 H 0.26795 0.128 0.56974 0.0
H511 H 0.26751 0.10176 0.60914 0.0
H512 H 0.21955 0.14478 0.62657 0.0
H513 H 0.20016 0.14001 0.59147 0.0
H514 H 0.37211 0.15451 0.6061 0.0
H515 H 0.34116 0.0997 0.59588 0.0
H516 H 0.2395 0.19847 0.57097 0.0
H517 H 0.24261 0.21056 0.60693 0.0
H518 H 0.20245 0.20399 0.57171 0.0
H519 H 0.20552 0.21598 0.60707 0.0
H520 H 0.34072 0.21237 0.57955 0.0
H521 H 0.30953 0.15654 0.57235 0.0
H522 H 0.36634 0.20326 0.56493 0.0
H523 H 0.33562 0.14847 0.55789 0.0
H524 H 0.34338 0.24549 0.61042 0.0
H525 H 0.28222 0.26643 0.61662 0.0
H526 H 0.24516 0.16342 0.54416 0.0
H527 H 0.29143 0.20889 0.53942 0.0
Li528 Li 0.08195 0.05329 0.84508 0.0
Li529 Li 0.07562 0.01809 0.84636 0.0
Li530 Li 0.06517 0.03494 0.82957 0.0
Li531 Li 0.04685 0.03973 0.84796 0.0
C532 C 0.10588 0.04095 0.82733 0.0
N533 N 0.13089 0.05892 0.81135 0.0
C534 C 0.12307 0.03079 0.82336 0.0
C535 C 0.10136 0.06023 0.82308 0.0
C536 C 0.13553 0.04013 0.81531 0.0
C537 C 0.11421 0.06906 0.81503 0.0
C538 C 0.07686 0.02879 0.86766 0.0
C539 C 0.07004 0.0078 0.88401 0.0
N540 N 0.0902 0.00729 0.88638 0.0
C541 C 0.09749 0.02823 0.87029 0.0
C542 C 0.06298 0.01863 0.87459 0.0
C543 C 0.10394 0.0172 0.87978 0.0
C544 C 0.08953 0.09223 0.853 0.0
N545 N 0.09892 0.07511 0.84939 0.0
C546 C 0.13142 0.08958 0.8531 0.0
C547 C 0.11944 0.07341 0.84941 0.0
C548 C 0.12215 0.10752 0.85691 0.0
C549 C 0.10089 0.10868 0.85682 0.0
H550 H 0.07317 0.09294 0.85307 0.0
H551 H 0.12649 0.05947 0.84665 0.0
C552 C 0.07839 0.97927 0.85803 0.0
N553 N 0.08808 0.99364 0.85175 0.0
C554 C 0.08865 0.96186 0.86154 0.0
C555 C 0.11892 0.97481 0.85258 0.0
C556 C 0.10802 0.99177 0.84913 0.0
C557 C 0.10922 0.95941 0.85879 0.0
H558 H 0.06281 0.98135 0.86046 0.0
H559 H 0.11561 0.00369 0.84451 0.0
C560 C 0.04029 0.07021 0.83192 0.0
N561 N 0.00703 0.08887 0.82225 0.0
C562 C 0.02466 0.05858 0.82726 0.0
C563 C 0.03901 0.09132 0.83166 0.0
C564 C 0.00797 0.0683 0.82241 0.0
C565 C 0.02207 0.10047 0.82673 0.0
C566 C 0.04199 0.99609 0.84073 0.0
C567 C 0.04769 0.97987 0.83378 0.0
C568 C 0.02883 0.9927 0.84988 0.0
C569 C 0.04025 0.96051 0.83614 0.0
C570 C 0.02166 0.97313 0.85193 0.0
N571 N 0.02749 0.95757 0.84508 0.0
C572 C 0.07127 0.0141 0.80967 0.0
C573 C 0.05647 0.04616 0.80608 0.0
C574 C 0.07132 0.00955 0.79808 0.0
N575 N 0.06359 0.03195 0.81346 0.0
C576 C 0.05611 0.04219 0.79437 0.0
C577 C 0.06354 0.02363 0.79026 0.0
H578 H 0.07759 0.00346 0.81569 0.0
H579 H 0.05127 0.06063 0.8092 0.0
C580 C 0.02339 0.05883 0.86433 0.0
N581 N 0.022 0.04648 0.85511 0.0
C582 C 0.00592 0.06586 0.8697 0.0
C583 C 0.98587 0.04707 0.85608 0.0
C584 C 0.00376 0.04042 0.85095 0.0
C585 C 0.98683 0.06016 0.8655 0.0
H586 H 0.03812 0.06349 0.86738 0.0
H587 H 0.0031 0.03069 0.84354 0.0
O588 O 0.09342 0.03173 0.83511 0.0
O589 O 0.07031 0.03905 0.85825 0.0
O590 O 0.05662 0.06106 0.8369 0.0
O591 O 0.04881 0.01523 0.83843 0.0
H592 H 0.12671 0.01576 0.8264 0.0
H593 H 0.08812 0.06838 0.82591 0.0
H594 H 0.14888 0.03242 0.81218 0.0
H595 H 0.11089 0.08397 0.8117 0.0
H596 H 0.0595 -0.00026 0.88942 0.0
H597 H 0.1084 0.03601 0.86498 0.0
H598 H 0.04696 0.01893 0.87263 0.0
H599 H 0.11988 0.01647 0.88188 0.0
H600 H 0.14775 0.08805 0.85293 0.0
H601 H 0.09305 0.12201 0.85991 0.0
H602 H 0.08052 0.95046 0.86634 0.0
H603 H 0.13491 0.974 0.85059 0.0
H604 H 0.02545 0.04222 0.82734 0.0
H605 H 0.05098 0.10053 0.83525 0.0
H606 H 0.99577 0.05948 0.81877 0.0
H607 H 0.02087 0.11681 0.82647 0.0
H608 H 0.05778 0.98213 0.82665 0.0
H609 H 0.02449 0.00491 0.85548 0.0
H610 H 0.04461 0.94782 0.83084 0.0
H611 H 0.01157 0.97029 0.85902 0.0
H612 H 0.07718 0.99506 0.79529 0.0
H613 H 0.05039 0.05362 0.78858 0.0
H614 H 0.00732 0.07577 0.87701 0.0
H615 H 0.97145 0.04251 0.85249 0.0
Li616 Li 0.19238 0.83259 0.09326 0.0
Li617 Li 0.22791 0.82636 0.09601 0.0
Li618 Li 0.21305 0.81778 0.07821 0.0
Li619 Li 0.2055 0.79766 0.09575 0.0
C620 C 0.21687 0.86503 0.0881 0.0
N621 N 0.22005 0.9051 0.09466 0.0
C622 C 0.2167 0.8702 0.09965 0.0
C623 C 0.21863 0.88026 0.07989 0.0
C624 C 0.21834 0.89053 0.1028 0.0
C625 C 0.22022 0.90042 0.08338 0.0
C626 C 0.20884 0.81869 0.11802 0.0
C627 C 0.22142 0.80017 0.13426 0.0
N628 N 0.21497 0.8153 0.14124 0.0
C629 C 0.20214 0.83396 0.12536 0.0
C630 C 0.2184 0.80157 0.12251 0.0
C631 C 0.20547 0.83201 0.13707 0.0
C632 C 0.15786 0.84172 0.10563 0.0
N633 N 0.16967 0.84886 0.09705 0.0
C634 C 0.14876 0.87821 0.09515 0.0
C635 C 0.16538 0.86662 0.0917 0.0
C636 C 0.13636 0.87125 0.10406 0.0
C637 C 0.14103 0.8527 0.10928 0.0
H638 H 0.16164 0.82751 0.1097 0.0
H639 H 0.17484 0.87182 0.08478 0.0
C640 C 0.26332 0.84849 0.09428 0.0
N641 N 0.25244 0.83762 0.10198 0.0
C642 C 0.28077 0.85874 0.0976 0.0
C643 C 0.27605 0.84588 0.1167 0.0
C644 C 0.25862 0.83586 0.11299 0.0
C645 C 0.28713 0.85781 0.109 0.0
H646 H 0.2582 0.84946 0.08554 0.0
H647 H 0.24994 0.82708 0.11898 0.0
C648 C 0.171 0.81251 0.07634 0.0
N649 N 0.14035 0.82138 0.06111 0.0
C650 C 0.15465 0.79928 0.07508 0.0
C651 C 0.17177 0.83027 0.06987 0.0
C652 C 0.1393 0.80403 0.06733 0.0
C653 C 0.15613 0.83448 0.06221 0.0
C654 C 0.25183 0.79813 0.08814 0.0
C655 C 0.26437 0.80541 0.07946 0.0
C656 C 0.26042 0.7889 0.0977 0.0
C657 C 0.28535 0.8036 0.08058 0.0
C658 C 0.28147 0.78739 0.09851 0.0
N659 N 0.2934 0.79474 0.09001 0.0
C660 C 0.22757 0.83223 0.05744 0.0
C661 C 0.212 0.79994 0.05621 0.0
C662 C 0.23233 0.83177 0.04588 0.0
N663 N 0.21765 0.81646 0.06234 0.0
C664 C 0.21653 0.7988 0.04459 0.0
C665 C 0.22692 0.81484 0.03931 0.0
H666 H 0.23216 0.84499 0.0626 0.0
H667 H 0.20419 0.7876 0.06038 0.0
C668 C 0.18071 0.77198 0.10794 0.0
N669 N 0.19824 0.7723 0.1019 0.0
C670 C 0.1741 0.75409 0.11301 0.0
C671 C 0.20371 0.73712 0.1055 0.0
C672 C 0.20979 0.75543 0.10057 0.0
C673 C 0.18565 0.73634 0.11184 0.0
H674 H 0.17189 0.7857 0.1088 0.0
H675 H 0.22372 0.75622 0.09574 0.0
O676 O 0.21522 0.84522 0.08476 0.0
O677 O 0.20534 0.82022 0.10655 0.0
O678 O 0.18606 0.80808 0.08394 0.0
O679 O 0.23128 0.80024 0.08732 0.0
H680 H 0.21541 0.85869 0.10612 0.0
H681 H 0.21865 0.87656 0.0709 0.0
H682 H 0.21827 0.89472 0.11171 0.0
H683 H 0.22156 0.91236 0.07711 0.0
H684 H 0.2289 0.78706 0.13784 0.0
H685 H 0.1944 0.84716 0.12206 0.0
H686 H 0.22357 0.78954 0.11699 0.0
H687 H 0.20043 0.84375 0.14284 0.0
H688 H 0.1455 0.89233 0.09082 0.0
H689 H 0.13196 0.8469 0.11625 0.0
H690 H 0.28905 0.86752 0.09135 0.0
H691 H 0.28039 0.84489 0.12559 0.0
H692 H 0.15383 0.78549 0.08005 0.0
H693 H 0.18427 0.84073 0.07074 0.0
H694 H 0.12654 0.79392 0.06627 0.0
H695 H 0.15652 0.84817 0.05715 0.0
H696 H 0.25797 0.81259 0.072 0.0
H697 H 0.25095 0.78308 0.10446 0.0
H698 H 0.29524 0.80931 0.07397 0.0
H699 H 0.28833 0.78041 0.1059 0.0
H700 H 0.24063 0.8443 0.04218 0.0
H701 H 0.21195 0.78555 0.0398 0.0
H702 H 0.15992 0.7541 0.11764 0.0
H703 H 0.21311 0.72381 0.10446 0.0
Li704 Li 0.56382 0.96115 0.82839 0.0
Li705 Li 0.57521 0.97671 0.84546 0.0
Li706 Li 0.57834 0.94061 0.84409 0.0
Li707 Li 0.54523 0.95726 0.84598 0.0
C708 C 0.60547 0.95183 0.82761 0.0
N709 N 0.63284 0.93253 0.81349 0.0
C710 C 0.62533 0.95896 0.82673 0.0
C711 C 0.59953 0.93485 0.82132 0.0
C712 C 0.63894 0.94901 0.81953 0.0
C713 C 0.61359 0.92532 0.81423 0.0
C714 C 0.55046 0.00021 0.83134 0.0
C715 C 0.53413 0.02972 0.82345 0.0
N716 N 0.55218 0.0359 0.81908 0.0
C717 C 0.56885 0.00686 0.82677 0.0
C718 C 0.53295 0.01172 0.82967 0.0
C719 C 0.5694 0.02494 0.8206 0.0
C720 C 0.54372 0.96151 0.80704 0.0
N721 N 0.5617 0.96501 0.81232 0.0
C722 C 0.576 0.97777 0.79506 0.0
C723 C 0.57768 0.97304 0.80658 0.0
C724 C 0.55763 0.97436 0.78935 0.0
C725 C 0.54135 0.96601 0.79548 0.0
H726 H 0.53106 0.95572 0.81189 0.0
H727 H 0.59159 0.97648 0.81101 0.0
C728 C 0.6095 0.99621 0.85322 0.0
N729 N 0.58948 -0.00059 0.85133 0.0
C730 C 0.62184 0.01201 0.85688 0.0
C731 C 0.59262 0.03411 0.8568 0.0
C732 C 0.58078 0.01777 0.85322 0.0
C733 C 0.61352 0.03138 0.85852 0.0
H734 H 0.61589 0.98134 0.8518 0.0
H735 H 0.56474 0.01982 0.85176 0.0
C736 C 0.53936 0.92085 0.83697 0.0
N737 N 0.50982 0.89242 0.84171 0.0
C738 C 0.53929 0.91075 0.84744 0.0
C739 C 0.52448 0.91639 0.82888 0.0
C740 C 0.52421 0.89646 0.84968 0.0
C741 C 0.50967 0.90198 0.83144 0.0
C742 C 0.57004 0.96765 0.86667 0.0
C743 C 0.58675 0.96462 0.87378 0.0
C744 C 0.55621 0.98305 0.86918 0.0
C745 C 0.58942 0.97718 0.88325 0.0
C746 C 0.55941 0.99527 0.87873 0.0
N747 N 0.57582 0.99212 0.8855 0.0
C748 C 0.61125 0.92082 0.85428 0.0
C749 C 0.58978 0.8992 0.8436 0.0
C750 C 0.62333 0.90444 0.8575 0.0
N751 N 0.59462 0.91785 0.84767 0.0
C752 C 0.60139 0.88239 0.84662 0.0
C753 C 0.61825 0.88486 0.85379 0.0
H754 H 0.61504 0.93593 0.85711 0.0
H755 H 0.57687 0.89736 0.83804 0.0
C756 C 0.50245 0.95379 0.84541 0.0
N757 N 0.51902 0.95319 0.85227 0.0
C758 C 0.48363 0.94745 0.84954 0.0
C759 C 0.4992 0.94105 0.86784 0.0
C760 C 0.51769 0.94727 0.86334 0.0
C761 C 0.48193 0.94055 0.86085 0.0
H762 H 0.50407 0.95824 0.83659 0.0
H763 H 0.53117 0.94654 0.86854 0.0
O764 O 0.59212 0.96137 0.83474 0.0
O765 O 0.54935 0.98243 0.8373 0.0
O766 O 0.55357 0.93544 0.8348 0.0
O767 O 0.56741 0.95592 0.85718 0.0
H768 H 0.63018 0.97207 0.83155 0.0
H769 H 0.58426 0.92907 0.82187 0.0
H770 H 0.65436 0.95438 0.81876 0.0
H771 H 0.6092 0.91217 0.80931 0.0
H772 H 0.52069 0.03877 0.82208 0.0
H773 H 0.58257 0.99821 0.82796 0.0
H774 H 0.51858 0.00674 0.83312 0.0
H775 H 0.58353 0.03025 0.81702 0.0
H776 H 0.58878 0.98467 0.79076 0.0
H777 H 0.52692 0.96314 0.7914 0.0
H778 H 0.63775 0.00908 0.85838 0.0
H779 H 0.5856 0.04879 0.85794 0.0
H780 H 0.55057 0.91418 0.85385 0.0
H781 H 0.5243 0.92402 0.82073 0.0
H782 H 0.52388 0.88867 0.85779 0.0
H783 H 0.49802 0.89844 0.82528 0.0
H784 H 0.59757 0.95276 0.872 0.0
H785 H 0.5433 0.98573 0.86369 0.0
H786 H 0.60233 0.97505 0.8888 0.0
H787 H 0.54889 0.00733 0.88072 0.0
H788 H 0.63619 0.907 0.86304 0.0
H789 H 0.59722 0.86761 0.84337 0.0
H790 H 0.47081 0.94707 0.8438 0.0
H791 H 0.49856 0.93618 0.87665 0.0
Li792 Li 0.80552 0.82767 0.59466 0.0
Li793 Li 0.78785 0.79473 0.59689 0.0
Li794 Li 0.78275 0.81464 0.57961 0.0
Li795 Li 0.76971 0.82576 0.59737 0.0
C796 C 0.82416 0.78946 0.58563 0.0
N797 N 0.85552 0.76185 0.58689 0.0
C798 C 0.83359 0.78554 0.59607 0.0
C799 C 0.83074 0.77941 0.57583 0.0
C800 C 0.84937 0.77148 0.59654 0.0
C801 C 0.84663 0.76551 0.57664 0.0
C802 C 0.782 0.82159 0.61811 0.0
C803 C 0.75629 0.8151 0.63225 0.0
N804 N 0.76189 0.83222 0.63788 0.0
C805 C 0.78758 0.83904 0.62407 0.0
C806 C 0.76629 0.80945 0.62226 0.0
C807 C 0.7772 0.84418 0.63403 0.0
C808 C 0.82603 0.86182 0.60259 0.0
N809 N 0.82907 0.84333 0.59779 0.0
C810 C 0.86493 0.84776 0.59868 0.0
C811 C 0.84802 0.8364 0.59551 0.0
C812 C 0.86225 0.86656 0.60406 0.0
C813 C 0.8425 0.87378 0.6058 0.0
H814 H 0.81075 0.86713 0.60407 0.0
H815 H 0.85012 0.82204 0.59131 0.0
C816 C 0.79127 0.75224 0.59508 0.0
N817 N 0.79138 0.76801 0.60252 0.0
C818 C 0.79667 0.73285 0.59876 0.0
C819 C 0.80138 0.74624 0.61776 0.0
C820 C 0.79611 0.76537 0.61369 0.0
C821 C 0.80207 0.72975 0.61021 0.0
H822 H 0.78775 0.75491 0.5862 0.0
H823 H 0.79664 0.77825 0.61936 0.0
C824 C 0.79344 0.85544 0.57866 0.0
N825 N 0.81195 0.8817 0.56356 0.0
C826 C 0.78639 0.87528 0.57751 0.0
C827 C 0.80995 0.84895 0.57214 0.0
C828 C 0.79594 0.88832 0.56983 0.0
C829 C 0.81909 0.86246 0.56455 0.0
C830 C 0.74363 0.80215 0.58384 0.0
C831 C 0.73669 0.82087 0.57987 0.0
C832 C 0.73178 0.78486 0.58224 0.0
C833 C 0.71797 0.82197 0.57437 0.0
C834 C 0.71313 0.78658 0.5767 0.0
N835 N 0.70667 0.80495 0.57291 0.0
C836 C 0.7815 0.79564 0.55799 0.0
C837 C 0.76804 0.82892 0.55849 0.0
C838 C 0.77626 0.79372 0.5465 0.0
N839 N 0.77736 0.81306 0.56371 0.0
C840 C 0.76235 0.82757 0.54709 0.0
C841 C 0.76634 0.80976 0.54098 0.0
H842 H 0.78841 0.78308 0.56244 0.0
H843 H 0.76454 0.84248 0.56325 0.0
C844 C 0.75168 0.86059 0.60573 0.0
N845 N 0.74814 0.84053 0.60419 0.0
C846 C 0.73649 0.87314 0.60996 0.0
C847 C 0.71433 0.84405 0.61117 0.0
C848 C 0.73005 0.83201 0.60696 0.0
C849 C 0.71738 0.86498 0.61256 0.0
H850 H 0.76631 0.86686 0.60355 0.0
H851 H 0.7277 0.81596 0.60571 0.0
O852 O 0.80836 0.80283 0.58503 0.0
O853 O 0.79161 0.81656 0.60818 0.0
O854 O 0.7842 0.84262 0.58621 0.0
O855 O 0.76202 0.80055 0.58915 0.0
H856 H 0.8287 0.79325 0.60373 0.0
H857 H 0.82374 0.78237 0.56766 0.0
H858 H 0.85673 0.76823 0.60457 0.0
H859 H 0.8519 0.75764 0.56912 0.0
H860 H 0.744 0.80594 0.63551 0.0
H861 H 0.79975 0.84855 0.62103 0.0
H862 H 0.76166 0.79599 0.61768 0.0
H863 H 0.78131 0.8577 0.6387 0.0
H864 H 0.87994 0.84188 0.59698 0.0
H865 H 0.83981 0.88821 0.60992 0.0
H866 H 0.79701 0.72051 0.59268 0.0
H867 H 0.80581 0.74456 0.6266 0.0
H868 H 0.77363 0.88054 0.5825 0.0
H869 H 0.81569 0.83369 0.57288 0.0
H870 H 0.79062 0.90372 0.56885 0.0
H871 H 0.83186 0.85764 0.55946 0.0
H872 H 0.74563 0.83443 0.58101 0.0
H873 H 0.73697 0.77025 0.58524 0.0
H874 H 0.71243 0.83636 0.57125 0.0
H875 H 0.7038 0.77332 0.5754 0.0
H876 H 0.77939 0.77966 0.54207 0.0
H877 H 0.75483 0.84031 0.54309 0.0
H878 H 0.73966 0.88909 0.61114 0.0
H879 H 0.69982 0.83716 0.61301 0.0
Li880 Li 0.91905 0.05747 0.34278 0.0
Li881 Li 0.95211 0.03952 0.34618 0.0
Li882 Li 0.93281 0.03417 0.32822 0.0
Li883 Li 0.92053 0.02176 0.34584 0.0
C884 C 0.95521 0.07613 0.33077 0.0
N885 N 0.97654 0.11016 0.32415 0.0
C886 C 0.96646 0.08709 0.33876 0.0
C887 C 0.95489 0.08243 0.3194 0.0
C888 C 0.97712 0.10426 0.33525 0.0
C889 C 0.96574 0.09969 0.31622 0.0
C890 C 0.92224 0.03533 0.36652 0.0
C891 C 0.92658 0.01202 0.38214 0.0
N892 N 0.90796 0.01723 0.38615 0.0
C893 C 0.90321 0.04054 0.37081 0.0
C894 C 0.93409 0.02103 0.37223 0.0
C895 C 0.89624 0.03118 0.38075 0.0
C896 C 0.88379 0.07962 0.34746 0.0
N897 N 0.90405 0.08154 0.34568 0.0
C898 C 0.90235 0.11707 0.34936 0.0
C899 C 0.91343 0.09979 0.34653 0.0
C900 C 0.88143 0.11553 0.35139 0.0
C901 C 0.87212 0.09651 0.3503 0.0
H902 H 0.87675 0.06487 0.34685 0.0
H903 H 0.92955 0.10091 0.34528 0.0
C904 C 0.995 0.03859 0.34651 0.0
N905 N 0.9781 0.043 0.35263 0.0
C906 C 0.01415 0.04306 0.35093 0.0
C907 C 0.99802 0.05609 0.36792 0.0
C908 C 0.97925 0.05136 0.36319 0.0
C909 C 0.01581 0.05219 0.36172 0.0
H910 H 0.99356 0.03207 0.33809 0.0
H911 H 0.96551 0.05499 0.36777 0.0
C912 C 0.89194 0.04484 0.3263 0.0
N913 N 0.86657 0.06238 0.31039 0.0
C914 C 0.87289 0.03646 0.32413 0.0
C915 C 0.89806 0.06218 0.3204 0.0
C916 C 0.86029 0.04554 0.31605 0.0
C917 C 0.88503 0.07081 0.31239 0.0
C918 C 0.94468 0.99513 0.33309 0.0
C919 C 0.92636 0.98892 0.32825 0.0
C920 C 0.96157 0.98242 0.33252 0.0
C921 C 0.92524 0.97005 0.32291 0.0
C922 C 0.95984 0.96365 0.32711 0.0
N923 N 0.94186 0.95791 0.32245 0.0
C924 C 0.95501 0.03094 0.30778 0.0
C925 C 0.92039 0.02187 0.30611 0.0
C926 C 0.95838 0.02605 0.29634 0.0
N927 N 0.93623 0.02885 0.31239 0.0
C928 C 0.92301 0.01708 0.29464 0.0
C929 C 0.9422 0.01909 0.28964 0.0
H930 H 0.9674 0.03618 0.31304 0.0
H931 H 0.9058 0.01954 0.31003 0.0
C932 C 0.88525 0.00331 0.35342 0.0
N933 N 0.90553 0.00032 0.35254 0.0
C934 C 0.87282 0.98808 0.35771 0.0
C935 C 0.90241 0.96695 0.36019 0.0
C936 C 0.91433 0.98272 0.35595 0.0
C937 C 0.88131 0.96945 0.36099 0.0
H938 H 0.87875 0.01757 0.35073 0.0
H939 H 0.93054 0.98083 0.35521 0.0
O940 O 0.94491 0.05908 0.33399 0.0
O941 O 0.92911 0.04389 0.35664 0.0
O942 O 0.90436 0.03602 0.33421 0.0
O943 O 0.94628 0.0136 0.33831 0.0
H944 H 0.96675 0.08255 0.34761 0.0
H945 H 0.94636 0.07408 0.31308 0.0
H946 H 0.98582 0.11292 0.34135 0.0
H947 H 0.9656 0.10475 0.30746 0.0
H948 H 0.93551 0.00083 0.38662 0.0
H949 H 0.89385 0.05154 0.36646 0.0
H950 H 0.94881 0.01675 0.36895 0.0
H951 H 0.88149 0.03498 0.38414 0.0
H952 H 0.91022 0.13136 0.35031 0.0
H953 H 0.85602 0.09466 0.35171 0.0
H954 H 0.02747 0.03965 0.3459 0.0
H955 H 0.99852 0.06347 0.37616 0.0
H956 H 0.86793 0.02304 0.32864 0.0
H957 H 0.91264 0.06896 0.32202 0.0
H958 H 0.84552 0.03919 0.31427 0.0
H959 H 0.88957 0.08424 0.30776 0.0
H960 H 0.91311 0.99852 0.32861 0.0
H961 H 0.97587 0.98704 0.33621 0.0
H962 H 0.91116 0.96506 0.31913 0.0
H963 H 0.97279 0.95366 0.3266 0.0
H964 H 0.97341 0.02774 0.29276 0.0
H965 H 0.91027 0.01133 0.28981 0.0
H966 H 0.85671 0.99089 0.35843 0.0
H967 H 0.90959 0.95282 0.36255 0.0
Li968 Li 0.69086 0.16972 0.09351 0.0
Li969 Li 0.70729 0.20363 0.09631 0.0
Li970 Li 0.71296 0.18243 0.07859 0.0
Li971 Li 0.72719 0.17258 0.09642 0.0
C972 C 0.66718 0.19705 0.08263 0.0
N973 N 0.62583 0.20078 0.07968 0.0
C974 C 0.65618 0.2109 0.08918 0.0
C975 C 0.65718 0.18527 0.0745 0.0
C976 C 0.63528 0.21253 0.08758 0.0
C977 C 0.63626 0.18732 0.07316 0.0
C978 C 0.71236 0.17294 0.11694 0.0
C979 C 0.73488 0.17486 0.13307 0.0
N980 N 0.72878 0.15609 0.13639 0.0
C981 C 0.70626 0.15371 0.12052 0.0
C982 C 0.72674 0.18366 0.12326 0.0
C983 C 0.71476 0.14544 0.13038 0.0
C984 C 0.66641 0.13439 0.09505 0.0
N985 N 0.6673 0.15456 0.09731 0.0
C986 C 0.63507 0.15341 0.10653 0.0
C987 C 0.65221 0.1641 0.10306 0.0
C988 C 0.63366 0.13251 0.10436 0.0
C989 C 0.64964 0.12302 0.0985 0.0
H990 H 0.67894 0.12701 0.09083 0.0
H991 H 0.65362 0.17998 0.10512 0.0
C992 C 0.70113 0.24576 0.09478 0.0
N993 N 0.70255 0.22991 0.10213 0.0
C994 C 0.69548 0.26487 0.09876 0.0
C995 C 0.69357 0.25108 0.11783 0.0
C996 C 0.69905 0.23221 0.11346 0.0
C997 C 0.6914 0.26762 0.11041 0.0
H998 H 0.70381 0.24336 0.08578 0.0
H999 H 0.6999 0.21924 0.11906 0.0
C1000 C 0.71482 0.14242 0.07653 0.0
N1001 N 0.71959 0.11725 0.0579 0.0
C1002 C 0.73372 0.13387 0.07414 0.0
C1003 C 0.69832 0.13802 0.06949 0.0
C1004 C 0.73583 0.12121 0.06467 0.0
C1005 C 0.70104 0.12531 0.0601 0.0
C1006 C 0.75195 0.20462 0.09034 0.0
C1007 C 0.76853 0.19701 0.08429 0.0
C1008 C 0.75504 0.21928 0.09876 0.0
C1009 C 0.78796 0.20406 0.08684 0.0
C1010 C 0.7747 0.22597 0.10105 0.0
N1011 N 0.79061 0.21828 0.09509 0.0
C1012 C 0.70403 0.19264 0.05552 0.0
C1013 C 0.73554 0.17638 0.05861 0.0
C1014 C 0.70793 0.19389 0.04383 0.0
N1015 N 0.71776 0.1839 0.06261 0.0
C1016 C 0.73999 0.17715 0.04701 0.0
C1017 C 0.7261 0.18599 0.03945 0.0
H1018 H 0.69012 0.19876 0.05894 0.0
H1019 H 0.74631 0.16976 0.06442 0.0
C1020 C 0.74619 0.13769 0.10373 0.0
N1021 N 0.74916 0.15804 0.10336 0.0
C1022 C 0.76116 0.12492 0.10799 0.0
C1023 C 0.78186 0.15427 0.11188 0.0
C1024 C 0.76631 0.16652 0.10765 0.0
C1025 C 0.77952 0.13311 0.1119 0.0
H1026 H 0.73215 0.13133 0.10063 0.0
H1027 H 0.76808 0.18272 0.10782 0.0
O1028 O 0.68764 0.19514 0.08413 0.0
O1029 O 0.70469 0.18101 0.10712 0.0
O1030 O 0.71249 0.15501 0.0857 0.0
O1031 O 0.73278 0.19815 0.08784 0.0
H1032 H 0.66363 0.22014 0.09553 0.0
H1033 H 0.66548 0.17466 0.06926 0.0
H1034 H 0.62656 0.22309 0.09264 0.0
H1035 H 0.62832 0.17823 0.06693 0.0
H1036 H 0.74613 0.18291 0.13801 0.0
H1037 H 0.69524 0.14517 0.11566 0.0
H1038 H 0.73181 0.19847 0.12052 0.0
H1039 H 0.71026 0.13052 0.13323 0.0
H1040 H 0.62309 0.16148 0.1109 0.0
H1041 H 0.64948 0.10689 0.09686 0.0
H1042 H 0.69402 0.27729 0.09279 0.0
H1043 H 0.69024 0.2525 0.12683 0.0
H1044 H 0.74672 0.13722 0.07943 0.0
H1045 H 0.68357 0.14435 0.07127 0.0
H1046 H 0.7504 0.11461 0.06268 0.0
H1047 H 0.68841 0.12184 0.05457 0.0
H1048 H 0.76649 0.18564 0.07778 0.0
H1049 H 0.74246 0.22535 0.10355 0.0
H1050 H 0.80093 0.19822 0.08227 0.0
H1051 H 0.77731 0.23725 0.10757 0.0
H1052 H 0.6968 0.20077 0.03826 0.0
H1053 H 0.75431 0.17117 0.04402 0.0
H1054 H 0.75834 0.10877 0.1082 0.0
H1055 H 0.79567 0.16131 0.11487 0.0
Li1056 Li 0.54419 0.04117 0.65127 0.0
Li1057 Li 0.57919 0.05687 0.65473 0.0
Li1058 Li 0.57441 0.02067 0.65251 0.0
Li1059 Li 0.56254 0.03627 0.66922 0.0
C1060 C 0.57603 0.03359 0.63147 0.0
N1061 N 0.59209 0.01489 0.61243 0.0
C1062 C 0.59539 0.03874 0.62763 0.0
C1063 C 0.56473 0.01912 0.62554 0.0
C1064 C 0.60327 0.02907 0.61801 0.0
C1065 C 0.57314 0.00979 0.61596 0.0
C1066 C 0.54904 0.07262 0.67241 0.0
C1067 C 0.56063 0.09229 0.68845 0.0
N1068 N 0.54164 0.09175 0.69292 0.0
C1069 C 0.52963 0.07228 0.67715 0.0
C1070 C 0.56468 0.0827 0.67808 0.0
C1071 C 0.52619 0.08204 0.68754 0.0
C1072 C 0.50164 0.04493 0.6506 0.0
N1073 N 0.51888 0.04622 0.64432 0.0
C1074 C 0.50032 0.05768 0.62809 0.0
C1075 C 0.51856 0.0522 0.63324 0.0
C1076 C 0.48233 0.05719 0.63447 0.0
C1077 C 0.48307 0.05047 0.64582 0.0
H1078 H 0.5024 0.03999 0.65937 0.0
H1079 H 0.53257 0.05322 0.62849 0.0
C1080 C 0.61587 0.07708 0.64992 0.0
N1081 N 0.59563 0.07952 0.65153 0.0
C1082 C 0.62785 0.09358 0.64676 0.0
C1083 C 0.59801 0.11482 0.64741 0.0
C1084 C 0.58658 0.09788 0.65043 0.0
C1085 C 0.61887 0.11272 0.6454 0.0
H1086 H 0.62258 0.06223 0.65085 0.0
H1087 H 0.57042 0.09927 0.65171 0.0
C1088 C 0.53865 0.99802 0.65839 0.0
N1089 N 0.51969 0.96116 0.65512 0.0
C1090 C 0.54016 0.98283 0.66665 0.0
C1091 C 0.52718 0.99458 0.64857 0.0
C1092 C 0.53056 0.96426 0.66481 0.0
C1093 C 0.51779 0.97581 0.64705 0.0
C1094 C 0.60273 0.0231 0.67067 0.0
C1095 C 0.59584 0.00394 0.67388 0.0
C1096 C 0.62174 0.02976 0.67432 0.0
C1097 C 0.60807 0.99173 0.68074 0.0
C1098 C 0.63354 0.01711 0.68117 0.0
N1099 N 0.62651 0.99851 0.68422 0.0
C1100 C 0.6091 0.00131 0.64524 0.0
C1101 C 0.58085 0.97926 0.64443 0.0
C1102 C 0.62197 0.98589 0.64163 0.0
N1103 N 0.58899 0.99776 0.64669 0.0
C1104 C 0.59322 0.96331 0.64086 0.0
C1105 C 0.61413 0.96648 0.63954 0.0
H1106 H 0.61518 0.01621 0.64697 0.0
H1107 H 0.56487 0.97669 0.64549 0.0
C1108 C 0.54131 0.02368 0.68862 0.0
N1109 N 0.55868 0.03277 0.68513 0.0
C1110 C 0.53856 0.0188 0.70008 0.0
C1111 C 0.57135 0.03339 0.70418 0.0
C1112 C 0.57342 0.03808 0.69264 0.0
C1113 C 0.55389 0.02327 0.708 0.0
H1114 H 0.52978 0.01983 0.68244 0.0
H1115 H 0.58701 0.04546 0.68963 0.0
O1116 O 0.56829 0.04247 0.64106 0.0
O1117 O 0.55288 0.06262 0.66244 0.0
O1118 O 0.54774 0.01638 0.66013 0.0
O1119 O 0.59102 0.03538 0.66398 0.0
H1120 H 0.60433 0.04992 0.6321 0.0
H1121 H 0.54969 0.01504 0.62834 0.0
H1122 H 0.61829 0.0328 0.615 0.0
H1123 H 0.56462 0.99846 0.61134 0.0
H1124 H 0.57261 0.10007 0.69296 0.0
H1125 H 0.5174 0.06443 0.6729 0.0
H1126 H 0.57985 0.08288 0.6746 0.0
H1127 H 0.51127 0.08184 0.69133 0.0
H1128 H 0.5004 0.06299 0.61936 0.0
H1129 H 0.46948 0.04974 0.65098 0.0
H1130 H 0.64391 0.09141 0.64533 0.0
H1131 H 0.5905 0.12927 0.64632 0.0
H1132 H 0.54857 0.98533 0.67444 0.0
H1133 H 0.52553 0.00621 0.64217 0.0
H1134 H 0.53169 0.95234 0.6711 0.0
H1135 H 0.50897 0.97291 0.63945 0.0
H1136 H 0.58124 0.99856 0.67108 0.0
H1137 H 0.62728 0.04458 0.67189 0.0
H1138 H 0.60291 0.97685 0.68329 0.0
H1139 H 0.64827 0.02207 0.68408 0.0
H1140 H 0.63791 0.98918 0.64048 0.0
H1141 H 0.58654 0.94857 0.63937 0.0
H1142 H 0.5247 0.01134 0.70269 0.0
H1143 H 0.58363 0.03699 0.70995 0.0
Li1144 Li 0.72845 0.8247 0.40244 0.0
Li1145 Li 0.71278 0.81369 0.41932 0.0
Li1146 Li 0.70889 0.79367 0.40182 0.0
Li1147 Li 0.69183 0.82853 0.40435 0.0
C1148 C 0.75267 0.79147 0.41009 0.0
N1149 N 0.79157 0.77614 0.409 0.0
C1150 C 0.76689 0.7966 0.41843 0.0
C1151 C 0.75814 0.77822 0.40132 0.0
C1152 C 0.78651 0.78879 0.41769 0.0
C1153 C 0.7779 0.77071 0.40089 0.0
C1154 C 0.72266 0.85509 0.42014 0.0
C1155 C 0.72266 0.88607 0.43101 0.0
N1156 N 0.74212 0.88239 0.4342 0.0
C1157 C 0.74266 0.85165 0.42349 0.0
C1158 C 0.71257 0.87245 0.42388 0.0
C1159 C 0.75224 0.86562 0.43061 0.0
C1160 C 0.74684 0.85951 0.39467 0.0
N1161 N 0.7509 0.83955 0.39634 0.0
C1162 C 0.78515 0.84436 0.3903 0.0
C1163 C 0.76952 0.83174 0.39405 0.0
C1164 C 0.7815 0.86516 0.38882 0.0
C1165 C 0.76192 0.8726 0.39087 0.0
H1166 H 0.73181 0.86528 0.39636 0.0
H1167 H 0.77243 0.81584 0.39518 0.0
C1168 C 0.72592 0.79489 0.43944 0.0
N1169 N 0.71598 0.81138 0.43536 0.0
C1170 C 0.7301 0.79321 0.45106 0.0
C1171 C 0.71325 0.82528 0.45408 0.0
C1172 C 0.70925 0.82625 0.44242 0.0
C1173 C 0.72407 0.80874 0.45849 0.0
H1174 H 0.73093 0.78321 0.43362 0.0
H1175 H 0.701 0.83899 0.43898 0.0
C1176 C 0.71689 0.82205 0.3812 0.0
N1177 N 0.73771 0.83273 0.36168 0.0
C1178 C 0.71341 0.84082 0.37606 0.0
C1179 C 0.73075 0.80861 0.37633 0.0
C1180 C 0.72414 0.84597 0.36621 0.0
C1181 C 0.74118 0.81431 0.36648 0.0
C1182 C 0.67794 0.79691 0.42262 0.0
C1183 C 0.68076 0.77735 0.42687 0.0
C1184 C 0.66648 0.81089 0.42881 0.0
C1185 C 0.67209 0.77211 0.43733 0.0
C1186 C 0.65804 0.80505 0.43923 0.0
N1187 N 0.66101 0.78595 0.44324 0.0
C1188 C 0.71064 0.75078 0.4011 0.0
C1189 C 0.69528 0.76679 0.38521 0.0
C1190 C 0.70619 0.73169 0.39662 0.0
N1191 N 0.70496 0.76777 0.3954 0.0
C1192 C 0.69055 0.74807 0.38041 0.0
C1193 C 0.69579 0.73018 0.38619 0.0
H1194 H 0.71832 0.75209 0.40921 0.0
H1195 H 0.69079 0.7806 0.38094 0.0
C1196 C 0.67196 0.86341 0.39653 0.0
N1197 N 0.66899 0.8444 0.40063 0.0
C1198 C 0.65548 0.87509 0.39301 0.0
C1199 C 0.63318 0.84773 0.39854 0.0
C1200 C 0.65011 0.83643 0.40175 0.0
C1201 C 0.63583 0.86719 0.39396 0.0
H1202 H 0.68718 0.86936 0.39584 0.0
H1203 H 0.64825 0.82121 0.40499 0.0
O1204 O 0.73331 0.79876 0.41075 0.0
O1205 O 0.71288 0.84155 0.41324 0.0
O1206 O 0.70703 0.81697 0.39104 0.0
O1207 O 0.68684 0.80254 0.41259 0.0
H1208 H 0.76282 0.80638 0.42546 0.0
H1209 H 0.74729 0.7738 0.39489 0.0
H1210 H 0.79768 0.79272 0.42406 0.0
H1211 H 0.78237 0.76056 0.3941 0.0
H1212 H 0.71502 0.89954 0.434 0.0
H1213 H 0.7507 0.8384 0.42057 0.0
H1214 H 0.69707 0.87531 0.42133 0.0
H1215 H 0.76772 0.86315 0.43328 0.0
H1216 H 0.80002 0.83796 0.38883 0.0
H1217 H 0.75823 0.88841 0.38955 0.0
H1218 H 0.73855 0.78025 0.45413 0.0
H1219 H 0.70806 0.83739 0.45958 0.0
H1220 H 0.70271 0.85139 0.37969 0.0
H1221 H 0.73351 0.79398 0.38015 0.0
H1222 H 0.72172 0.86051 0.3622 0.0
H1223 H 0.75205 0.8041 0.36267 0.0
H1224 H 0.68971 0.76642 0.42221 0.0
H1225 H 0.66437 0.82617 0.42569 0.0
H1226 H 0.67421 0.75705 0.44076 0.0
H1227 H 0.64923 0.81573 0.44415 0.0
H1228 H 0.71063 0.71828 0.4013 0.0
H1229 H 0.68222 0.74763 0.37246 0.0
H1230 H 0.65804 0.8901 0.38957 0.0
H1231 H 0.61822 0.84113 0.3993 0.0
Li1232 Li 0.91954 0.97562 0.15256 0.0
Li1233 Li 0.93131 0.96052 0.16962 0.0
Li1234 Li 0.95059 0.95684 0.15148 0.0
Li1235 Li 0.91696 0.93956 0.15414 0.0
C1236 C 0.94431 -0.00028 0.16633 0.0
N1237 N 0.94227 0.03546 0.17852 0.0
C1238 C 0.9263 0.00532 0.17176 0.0
C1239 C 0.96128 0.01227 0.16712 0.0
C1240 C 0.92557 0.02345 0.17787 0.0
C1241 C 0.95994 0.0303 0.17332 0.0
C1242 C 0.88961 0.95112 0.17078 0.0
C1243 C 0.88041 0.92355 0.18322 0.0
N1244 N 0.86239 0.93278 0.18539 0.0
C1245 C 0.87098 0.96029 0.17308 0.0
C1246 C 0.89435 0.93257 0.17585 0.0
C1247 C 0.85744 0.9508 0.18051 0.0
C1248 C 0.88483 0.9949 0.14516 0.0
N1249 N 0.90493 0.99811 0.14673 0.0
C1250 C 0.90159 0.03263 0.14095 0.0
C1251 C 0.91356 0.0164 0.14457 0.0
C1252 C 0.88063 0.02986 0.13944 0.0
C1253 C 0.87238 0.01055 0.14141 0.0
H1254 H 0.87847 0.9801 0.14685 0.0
H1255 H 0.92965 0.01848 0.14581 0.0
C1256 C 0.95451 0.96401 0.18953 0.0
N1257 N 0.93511 0.9639 0.18562 0.0
C1258 C 0.95852 0.96822 0.20099 0.0
C1259 C 0.92253 0.97165 0.2042 0.0
C1260 C 0.91924 0.96778 0.19268 0.0
C1261 C 0.94236 0.97208 0.20844 0.0
H1262 H 0.96686 0.96127 0.18367 0.0
H1263 H 0.90404 0.96854 0.18937 0.0
C1264 C 0.92215 0.96508 0.13129 0.0
N1265 N 0.91097 0.98691 0.11223 0.0
C1266 C 0.90351 0.96141 0.12605 0.0
C1267 C 0.93518 0.97973 0.12681 0.0
C1268 C 0.89812 0.97264 0.11643 0.0
C1269 C 0.92923 0.99064 0.11717 0.0
C1270 C 0.95213 0.91874 0.16632 0.0
C1271 C 0.96382 0.90752 0.15866 0.0
C1272 C 0.95048 0.91235 0.17764 0.0
C1273 C 0.97354 0.88997 0.16243 0.0
C1274 C 0.96043 0.89471 0.18108 0.0
N1275 N 0.97165 0.88397 0.17347 0.0
C1276 C 0.99363 0.95765 0.15041 0.0
C1277 C 0.97667 0.94357 0.13446 0.0
C1278 C 0.01243 0.95258 0.14572 0.0
N1279 N 0.9763 0.95287 0.14478 0.0
C1280 C 0.99506 0.93814 0.1295 0.0
C1281 C 0.0133 0.94239 0.13519 0.0
H1282 H 0.99281 0.96495 0.15865 0.0
H1283 H 0.96261 0.93969 0.13027 0.0
C1284 C 0.8816 0.91939 0.14758 0.0
N1285 N 0.90141 0.91641 0.15025 0.0
C1286 C 0.86956 0.90316 0.1441 0.0
C1287 C 0.8985 0.88107 0.14633 0.0
C1288 C 0.90997 0.89773 0.14975 0.0
C1289 C 0.87804 0.8837 0.14336 0.0
H1290 H 0.87524 0.93447 0.14802 0.0
H1291 H 0.92576 0.89579 0.15178 0.0
O1292 O 0.94556 0.98191 0.1604 0.0
O1293 O 0.90286 0.96023 0.16344 0.0
O1294 O 0.92748 0.95467 0.1409 0.0
O1295 O 0.94266 0.9361 0.16283 0.0
H1296 H 0.91301 0.99581 0.17127 0.0
H1297 H 0.97535 0.0081 0.16301 0.0
H1298 H 0.91174 0.02796 0.18211 0.0
H1299 H 0.97296 0.04016 0.174 0.0
H1300 H 0.88389 0.90919 0.1872 0.0
H1301 H 0.86705 0.97462 0.16919 0.0
H1302 H 0.90857 0.92516 0.17408 0.0
H1303 H 0.84298 0.95774 0.18239 0.0
H1304 H 0.9086 0.04725 0.1396 0.0
H1305 H 0.85645 0.0075 0.14007 0.0
H1306 H 0.97404 0.96855 0.20398 0.0
H1307 H 0.90973 0.97501 0.20966 0.0
H1308 H 0.89325 0.95014 0.12945 0.0
H1309 H 0.94962 0.98281 0.13083 0.0
H1310 H 0.88369 0.97006 0.11231 0.0
H1311 H 0.9391 0.00212 0.11365 0.0
H1312 H 0.96518 0.91217 0.14986 0.0
H1313 H 0.94161 0.9209 0.18372 0.0
H1314 H 0.98256 0.88109 0.15657 0.0
H1315 H 0.95924 0.88956 0.18981 0.0
H1316 H 0.02611 0.95635 0.15035 0.0
H1317 H 0.99491 0.92996 0.1215 0.0
H1318 H 0.85382 0.90582 0.14198 0.0
H1319 H 0.90574 0.8664 0.14569 0.0
Li1320 Li 0.76924 0.17109 0.9001 0.0
Li1321 Li 0.78215 0.1825 0.91779 0.0
Li1322 Li 0.78989 0.20108 0.90034 0.0
Li1323 Li 0.80465 0.16753 0.90389 0.0
C1324 C 0.74434 0.19852 0.91238 0.0
N1325 N 0.70641 0.20108 0.92221 0.0
C1326 C 0.73477 0.1811 0.91647 0.0
C1327 C 0.73463 0.21725 0.9133 0.0
C1328 C 0.7156 0.1827 0.92141 0.0
C1329 C 0.71545 0.21823 0.91829 0.0
C1330 C 0.78997 0.14128 0.91986 0.0
C1331 C 0.81368 0.13383 0.93492 0.0
N1332 N 0.80581 0.11487 0.9358 0.0
C1333 C 0.78212 0.12172 0.9209 0.0
C1334 C 0.80589 0.14741 0.92692 0.0
C1335 C 0.79033 0.10859 0.92902 0.0
C1336 C 0.75033 0.13709 0.89175 0.0
N1337 N 0.74745 0.15731 0.89303 0.0
C1338 C 0.71375 0.15474 0.88579 0.0
C1339 C 0.72981 0.16639 0.88992 0.0
C1340 C 0.71603 0.13364 0.8848 0.0
C1341 C 0.73479 0.12492 0.8876 0.0
H1342 H 0.76465 0.1304 0.89417 0.0
H1343 H 0.72802 0.18257 0.89094 0.0
C1344 C 0.78205 0.20132 0.93963 0.0
N1345 N 0.77573 0.18498 0.93355 0.0
C1346 C 0.77662 0.20336 0.9511 0.0
C1347 C 0.75838 0.17171 0.94977 0.0
C1348 C 0.76416 0.17028 0.93839 0.0
C1349 C 0.76449 0.18846 0.95628 0.0
H1350 H 0.79113 0.21285 0.93553 0.0
H1351 H 0.75926 0.15745 0.9334 0.0
C1352 C 0.78242 0.17755 0.87941 0.0
N1353 N 0.76191 0.17623 0.85889 0.0
C1354 C 0.78635 0.16205 0.87161 0.0
C1355 C 0.76808 0.1924 0.87676 0.0
C1356 C 0.77581 0.16164 0.86128 0.0
C1357 C 0.75788 0.19147 0.86635 0.0
C1358 C 0.82744 0.20157 0.91091 0.0
C1359 C 0.83649 0.19996 0.90017 0.0
C1360 C 0.83739 0.21206 0.9196 0.0
C1361 C 0.85537 0.2089 0.89831 0.0
C1362 C 0.85627 0.22078 0.91741 0.0
N1363 N 0.8648 0.21903 0.9069 0.0
C1364 C 0.79068 0.24402 0.89956 0.0
C1365 C 0.80509 0.22736 0.8836 0.0
C1366 C 0.79604 0.26289 0.89508 0.0
N1367 N 0.79539 0.22679 0.89381 0.0
C1368 C 0.81071 0.24583 0.87882 0.0
C1369 C 0.80634 0.26394 0.8846 0.0
H1370 H 0.78306 0.24305 0.90771 0.0
H1371 H 0.80891 0.21341 0.87929 0.0
C1372 C 0.82476 0.13561 0.89344 0.0
N1373 N 0.82732 0.15027 0.90143 0.0
C1374 C 0.84091 0.12318 0.89033 0.0
C1375 C 0.86176 0.14033 0.90425 0.0
C1376 C 0.84516 0.15245 0.90709 0.0
C1377 C 0.85984 0.12577 0.89558 0.0
H1378 H 0.81018 0.13374 0.88941 0.0
H1379 H 0.84668 0.16385 0.91364 0.0
O1380 O 0.76314 0.19742 0.90752 0.0
O1381 O 0.78202 0.1542 0.9119 0.0
O1382 O 0.79212 0.17795 0.88972 0.0
O1383 O 0.80887 0.19313 0.91295 0.0
H1384 H 0.74203 0.16647 0.91579 0.0
H1385 H 0.74186 0.23088 0.91017 0.0
H1386 H 0.70802 0.16933 0.9246 0.0
H1387 H 0.70774 0.23263 0.91905 0.0
H1388 H 0.82599 0.13838 0.94044 0.0
H1389 H 0.76979 0.11675 0.91551 0.0
H1390 H 0.81217 0.16247 0.92628 0.0
H1391 H 0.78439 0.09341 0.92992 0.0
H1392 H 0.69953 0.16206 0.88373 0.0
H1393 H 0.73739 0.10881 0.8867 0.0
H1394 H 0.78154 0.21659 0.9558 0.0
H1395 H 0.74931 0.15971 0.95346 0.0
H1396 H 0.79741 0.15045 0.87347 0.0
H1397 H 0.76464 0.20436 0.88277 0.0
H1398 H 0.77868 0.14972 0.85517 0.0
H1399 H 0.74667 0.20281 0.86423 0.0
H1400 H 0.82909 0.19182 0.89335 0.0
H1401 H 0.83056 0.21346 0.92795 0.0
H1402 H 0.86255 0.20775 0.89005 0.0
H1403 H 0.86414 0.22894 0.92406 0.0
H1404 H 0.79227 0.27649 0.89978 0.0
H1405 H 0.81897 0.24588 0.87085 0.0
H1406 H 0.83867 0.11181 0.8838 0.0
H1407 H 0.87609 0.14282 0.90851 0.0
Li1408 Li 0.93164 0.53421 0.66741 0.0
Li1409 Li 0.9488 0.53999 0.649 0.0
Li1410 Li 0.91477 0.55267 0.65225 0.0
Li1411 Li 0.92084 0.51741 0.65065 0.0
C1412 C 0.95629 0.56941 0.6654 0.0
N1413 N 0.98996 0.5871 0.67521 0.0
C1414 C 0.97138 0.55734 0.67027 0.0
C1415 C 0.95834 0.59047 0.6655 0.0
C1416 C 0.98828 0.56657 0.6752 0.0
C1417 C 0.97547 0.59913 0.67051 0.0
C1418 C 0.95345 0.49624 0.6544 0.0
C1419 C 0.96557 0.47439 0.6394 0.0
N1420 N 0.96353 0.45817 0.64645 0.0
C1421 C 0.95155 0.47937 0.66151 0.0
C1422 C 0.96056 0.49376 0.64326 0.0
C1423 C 0.9567 0.46024 0.65733 0.0
C1424 C 0.92769 0.51183 0.68699 0.0
N1425 N 0.93363 0.53048 0.68344 0.0
C1426 C 0.9396 0.54081 0.70268 0.0
C1427 C 0.93924 0.54506 0.69101 0.0
C1428 C 0.93372 0.52155 0.70656 0.0
C1429 C 0.92765 0.50699 0.69854 0.0
H1430 H 0.92268 0.50079 0.6808 0.0
H1431 H 0.94312 0.56005 0.68804 0.0
C1432 C 0.97244 0.5579 0.6321 0.0
N1433 N 0.97351 0.54633 0.64164 0.0
C1434 C 0.99009 0.56417 0.62661 0.0
C1435 C 0.00965 0.54645 0.64089 0.0
C1436 C 0.99158 0.54024 0.64599 0.0
C1437 C 0.00909 0.55879 0.63111 0.0
H1438 H 0.95782 0.56249 0.62885 0.0
H1439 H 0.99196 0.53092 0.65357 0.0
C1440 C 0.89056 0.53906 0.66988 0.0
N1441 N 0.86442 0.55532 0.68583 0.0
C1442 C 0.87284 0.52877 0.67284 0.0
C1443 C 0.89501 0.55762 0.67504 0.0
C1444 C 0.85981 0.53725 0.68092 0.0
C1445 C 0.8816 0.56558 0.68308 0.0
C1446 C 0.91037 0.53724 0.63056 0.0
C1447 C 0.89051 0.53216 0.63356 0.0
C1448 C 0.91496 0.54159 0.61919 0.0
C1449 C 0.87558 0.53156 0.62514 0.0
C1450 C 0.8996 0.54083 0.61102 0.0
N1451 N 0.88039 0.53587 0.61414 0.0
C1452 C 0.90679 0.59146 0.64428 0.0
C1453 C 0.87695 0.57328 0.64893 0.0
C1454 C 0.89535 0.60793 0.64055 0.0
N1455 N 0.89748 0.57461 0.64835 0.0
C1456 C 0.8649 0.58942 0.6453 0.0
C1457 C 0.87409 0.60703 0.64098 0.0
H1458 H 0.92314 0.59192 0.64375 0.0
H1459 H 0.8699 0.55959 0.65205 0.0
C1460 C 0.89905 0.48192 0.65373 0.0
N1461 N 0.90966 0.49243 0.64578 0.0
C1462 C 0.88893 0.46419 0.65072 0.0
C1463 C 0.90144 0.46811 0.63147 0.0
C1464 C 0.91142 0.48573 0.63487 0.0
C1465 C 0.88966 0.45732 0.63939 0.0
H1466 H 0.89815 0.48756 0.66237 0.0
H1467 H 0.92012 0.49436 0.62876 0.0
O1468 O 0.93974 0.56077 0.66036 0.0
O1469 O 0.94795 0.51503 0.6582 0.0
O1470 O 0.90344 0.53076 0.66201 0.0
O1471 O 0.92534 0.53802 0.63862 0.0
H1472 H 0.97004 0.54102 0.6703 0.0
H1473 H 0.94682 0.60001 0.66173 0.0
H1474 H 6e-05 0.55741 0.679 0.0
H1475 H 0.97726 0.61541 0.67065 0.0
H1476 H 0.97097 0.47223 0.63078 0.0
H1477 H 0.94611 0.48099 0.67015 0.0
H1478 H 0.96188 0.50661 0.63759 0.0
H1479 H 0.95524 0.44704 0.66272 0.0
H1480 H 0.94402 0.55255 0.70863 0.0
H1481 H 0.92304 0.49196 0.70118 0.0
H1482 H 0.98883 0.57329 0.61898 0.0
H1483 H 0.02387 0.54211 0.64479 0.0
H1484 H 0.86919 0.51438 0.66892 0.0
H1485 H 0.90862 0.56585 0.67289 0.0
H1486 H 0.84603 0.52945 0.68328 0.0
H1487 H 0.88485 0.57993 0.68714 0.0
H1488 H 0.88662 0.52865 0.64228 0.0
H1489 H 0.93026 0.54551 0.61671 0.0
H1490 H 0.86017 0.52765 0.62736 0.0
H1491 H 0.90295 0.54417 0.60219 0.0
H1492 H 0.90308 0.62103 0.6371 0.0
H1493 H 0.84858 0.58814 0.64587 0.0
H1494 H 0.88032 0.45616 0.65714 0.0
H1495 H 0.90228 0.46345 0.62263 0.0
Li1496 Li 0.70971 0.69898 0.89868 0.0
Li1497 Li 0.71702 0.68063 0.91632 0.0
Li1498 Li 0.73254 0.67096 0.89881 0.0
Li1499 Li 0.6974 0.6648 0.9014 0.0
C1500 C 0.75306 0.70499 0.90243 0.0
N1501 N 0.78856 0.71966 0.89309 0.0
C1502 C 0.77055 0.70639 0.90909 0.0
C1503 C 0.75362 0.71105 0.89102 0.0
C1504 C 0.78835 0.71385 0.90421 0.0
C1505 C 0.77172 0.71842 0.88645 0.0
C1506 C 0.68227 0.70529 0.9162 0.0
C1507 C 0.65372 0.72396 0.92353 0.0
N1508 N 0.66659 0.73807 0.92787 0.0
C1509 C 0.69522 0.71998 0.92073 0.0
C1510 C 0.66135 0.70728 0.91759 0.0
C1511 C 0.687 0.73643 0.9266 0.0
C1512 C 0.68844 0.72399 0.88392 0.0
N1513 N 0.70275 0.72424 0.89223 0.0
C1514 C 0.70475 0.76031 0.89142 0.0
C1515 C 0.71108 0.74183 0.89599 0.0
C1516 C 0.6898 0.76056 0.88289 0.0
C1517 C 0.68174 0.74207 0.87908 0.0
H1518 H 0.68201 0.70972 0.8812 0.0
H1519 H 0.72243 0.74153 0.90263 0.0
C1520 C 0.74152 0.67981 0.93538 0.0
N1521 N 0.72187 0.68212 0.93223 0.0
C1522 C 0.74692 0.68028 0.94686 0.0
C1523 C 0.71162 0.68487 0.9517 0.0
C1524 C 0.70691 0.68441 0.9401 0.0
C1525 C 0.73189 0.6829 0.95519 0.0
H1526 H 0.75295 0.67732 0.92894 0.0
H1527 H 0.69132 0.68573 0.93738 0.0
C1528 C 0.71051 0.66232 0.87913 0.0
N1529 N 0.70977 0.6339 0.86185 0.0
C1530 C 0.71599 0.64224 0.88134 0.0
C1531 C 0.70463 0.66792 0.86814 0.0
C1532 C 0.71553 0.62811 0.87249 0.0
C1533 C 0.70436 0.65334 0.85951 0.0
C1534 C 0.71277 0.63936 0.91807 0.0
C1535 C 0.72385 0.62195 0.92071 0.0
C1536 C 0.69428 0.64294 0.92353 0.0
C1537 C 0.71623 0.60837 0.92878 0.0
C1538 C 0.6872 0.629 0.93155 0.0
N1539 N 0.69822 0.61215 0.93399 0.0
C1540 C 0.76909 0.65063 0.90051 0.0
C1541 C 0.76236 0.66248 0.8818 0.0
C1542 C 0.78685 0.64128 0.89684 0.0
N1543 N 0.75713 0.66062 0.89295 0.0
C1544 C 0.7799 0.65317 0.87772 0.0
C1545 C 0.7922 0.64215 0.88527 0.0
H1546 H 0.76453 0.64955 0.90934 0.0
H1547 H 0.75269 0.6708 0.87602 0.0
C1548 C 0.65844 0.65758 0.89371 0.0
N1549 N 0.67524 0.64784 0.89752 0.0
C1550 C 0.64187 0.64656 0.88974 0.0
C1551 C 0.66006 0.61563 0.89386 0.0
C1552 C 0.67637 0.62727 0.89768 0.0
C1553 C 0.64262 0.6253 0.8897 0.0
H1554 H 0.65811 0.67396 0.89357 0.0
H1555 H 0.69008 0.61989 0.90053 0.0
O1556 O 0.73562 0.6972 0.90694 0.0
O1557 O 0.68986 0.68911 0.9103 0.0
O1558 O 0.71066 0.67649 0.88765 0.0
O1559 O 0.72021 0.65276 0.91023 0.0
H1560 H 0.77042 0.70179 0.91793 0.0
H1561 H 0.74033 0.70976 0.88568 0.0
H1562 H 0.802 0.71501 0.90926 0.0
H1563 H 0.77239 0.72307 0.87762 0.0
H1564 H 0.63755 0.72569 0.92468 0.0
H1565 H 0.71145 0.71871 0.91975 0.0
H1566 H 0.65113 0.69606 0.91411 0.0
H1567 H 0.69684 0.7479 0.93016 0.0
H1568 H 0.71142 0.77424 0.89453 0.0
H1569 H 0.66998 0.74161 0.87266 0.0
H1570 H 0.76266 0.67824 0.9492 0.0
H1571 H 0.69959 0.68691 0.95787 0.0
H1572 H 0.7206 0.63757 0.88978 0.0
H1573 H 0.70031 0.68339 0.8663 0.0
H1574 H 0.71975 0.61253 0.87408 0.0
H1575 H 0.69984 0.65747 0.85096 0.0
H1576 H 0.73819 0.61898 0.91657 0.0
H1577 H 0.68544 0.65627 0.92162 0.0
H1578 H 0.72465 0.59483 0.9309 0.0
H1579 H 0.67292 0.63158 0.93584 0.0
H1580 H 0.79584 0.63276 0.90288 0.0
H1581 H 0.78366 0.65428 0.86876 0.0
H1582 H 0.62861 0.65459 0.88672 0.0
H1583 H 0.6613 0.59927 0.89385 0.0
Li1584 Li 0.56619 0.46711 0.16809 0.0
Li1585 Li 0.54754 0.46006 0.15088 0.0
Li1586 Li 0.58208 0.44607 0.15321 0.0
Li1587 Li 0.57643 0.48182 0.14981 0.0
C1588 C 0.54141 0.43184 0.16817 0.0
N1589 N 0.50879 0.41499 0.17944 0.0
C1590 C 0.52705 0.44429 0.1734 0.0
C1591 C 0.5392 0.41082 0.16867 0.0
C1592 C 0.51066 0.43549 0.17906 0.0
C1593 C 0.5226 0.40259 0.17442 0.0
C1594 C 0.53399 0.49767 0.15713 0.0
C1595 C 0.50967 0.51431 0.14498 0.0
N1596 N 0.49858 0.51943 0.15432 0.0
C1597 C 0.52238 0.50315 0.16661 0.0
C1598 C 0.52762 0.50334 0.14623 0.0
C1599 C 0.50452 0.51413 0.16501 0.0
C1600 C 0.56508 0.49216 0.18707 0.0
N1601 N 0.56496 0.47236 0.18393 0.0
C1602 C 0.56362 0.46187 0.2034 0.0
C1603 C 0.56436 0.45724 0.19179 0.0
C1604 C 0.56347 0.48222 0.20689 0.0
C1605 C 0.56424 0.49747 0.19856 0.0
H1606 H 0.56583 0.50382 0.18061 0.0
H1607 H 0.56448 0.44161 0.18905 0.0
C1608 C 0.52268 0.43964 0.13582 0.0
N1609 N 0.52186 0.45288 0.14466 0.0
C1610 C 0.50492 0.43212 0.13099 0.0
C1611 C 0.48567 0.45232 0.14431 0.0
C1612 C 0.50384 0.45913 0.14903 0.0
C1613 C 0.48601 0.43843 0.13522 0.0
H1614 H 0.53722 0.43454 0.13269 0.0
H1615 H 0.50345 0.46914 0.15629 0.0
C1616 C 0.6079 0.46281 0.16948 0.0
N1617 N 0.63561 0.45008 0.1856 0.0
C1618 C 0.6248 0.47472 0.17199 0.0
C1619 C 0.60508 0.44441 0.17516 0.0
C1620 C 0.63864 0.46803 0.18017 0.0
C1621 C 0.61926 0.43825 0.18329 0.0
C1622 C 0.57626 0.4651 0.12927 0.0
C1623 C 0.59632 0.4618 0.12597 0.0
C1624 C 0.56298 0.47502 0.12187 0.0
C1625 C 0.6029 0.46889 0.11538 0.0
C1626 C 0.57013 0.48187 0.11135 0.0
N1627 N 0.58978 0.47872 0.10835 0.0
C1628 C 0.5894 0.40617 0.14671 0.0
C1629 C 0.61935 0.42543 0.14928 0.0
C1630 C 0.60068 0.38945 0.14317 0.0
N1631 N 0.59885 0.42367 0.14964 0.0
C1632 C 0.63125 0.40904 0.14584 0.0
C1633 C 0.62192 0.39077 0.14264 0.0
H1634 H 0.57304 0.40539 0.14688 0.0
H1635 H 0.62645 0.43967 0.15146 0.0
C1636 C 0.57923 0.52239 0.14119 0.0
N1637 N 0.58907 0.50461 0.14306 0.0
C1638 C 0.58968 0.53902 0.13677 0.0
C1639 C 0.62012 0.51868 0.13631 0.0
C1640 C 0.60913 0.50253 0.14079 0.0
C1641 C 0.61042 0.53726 0.1343 0.0
H1642 H 0.56341 0.52384 0.14331 0.0
H1643 H 0.61665 0.48835 0.14262 0.0
O1644 O 0.55749 0.44011 0.16248 0.0
O1645 O 0.55148 0.48685 0.15855 0.0
O1646 O 0.59421 0.46927 0.16152 0.0
O1647 O 0.56963 0.45856 0.13968 0.0
H1648 H 0.52852 0.46057 0.17308 0.0
H1649 H 0.5502 0.40097 0.16466 0.0
H1650 H 0.49942 0.44496 0.18313 0.0
H1651 H 0.52069 0.38634 0.17487 0.0
H1652 H 0.50454 0.51873 0.13659 0.0
H1653 H 0.52704 0.49889 0.17512 0.0
H1654 H 0.5364 0.49922 0.13882 0.0
H1655 H 0.49537 0.51842 0.17226 0.0
H1656 H 0.56294 0.44967 0.20956 0.0
H1657 H 0.56449 0.51333 0.2009 0.0
H1658 H 0.50608 0.42104 0.12422 0.0
H1659 H 0.47154 0.45782 0.14782 0.0
H1660 H 0.62717 0.489 0.16766 0.0
H1661 H 0.59212 0.43495 0.17332 0.0
H1662 H 0.6518 0.4771 0.1822 0.0
H1663 H 0.61727 0.42406 0.18775 0.0
H1664 H 0.60677 0.45408 0.13158 0.0
H1665 H 0.54731 0.47732 0.1242 0.0
H1666 H 0.61844 0.46661 0.11275 0.0
H1667 H 0.56004 0.48965 0.10555 0.0
H1668 H 0.59279 0.37583 0.14058 0.0
H1669 H 0.64757 0.4107 0.14564 0.0
H1670 H 0.58167 0.55311 0.13533 0.0
H1671 H 0.63618 0.51681 0.13475 0.0
Li1672 Li 0.78541 0.31853 0.41807 0.0
Li1673 Li 0.79356 0.30136 0.4001 0.0
Li1674 Li 0.80488 0.33604 0.40358 0.0
Li1675 Li 0.76906 0.32793 0.40019 0.0
C1676 C 0.82269 0.30388 0.42105 0.0
N1677 N 0.84239 0.28855 0.43994 0.0
C1678 C 0.82522 0.28299 0.42229 0.0
C1679 C 0.83029 0.31699 0.42936 0.0
C1680 C 0.83522 0.27553 0.43191 0.0
C1681 C 0.84015 0.30894 0.43887 0.0
C1682 C 0.74738 0.29768 0.40809 0.0
C1683 C 0.7172 0.28869 0.39768 0.0
N1684 N 0.70603 0.2915 0.40729 0.0
C1685 C 0.73563 0.30036 0.41788 0.0
C1686 C 0.73814 0.29167 0.39792 0.0
C1687 C 0.71474 0.29719 0.4173 0.0
C1688 C 0.77298 0.33236 0.43941 0.0
N1689 N 0.7807 0.31594 0.43397 0.0
C1690 C 0.77937 0.29653 0.45114 0.0
C1691 C 0.78369 0.29812 0.43952 0.0
C1692 C 0.77137 0.31329 0.45702 0.0
C1693 C 0.76812 0.33136 0.45095 0.0
H1694 H 0.77014 0.34615 0.43472 0.0
H1695 H 0.78923 0.28509 0.43491 0.0
C1696 C 0.8222 0.27506 0.39103 0.0
N1697 N 0.80214 0.27666 0.39343 0.0
C1698 C 0.82986 0.25748 0.3861 0.0
C1699 C 0.79605 0.24338 0.38621 0.0
C1700 C 0.78902 0.26132 0.39115 0.0
C1701 C 0.81676 0.24128 0.38367 0.0
H1702 H 0.83225 0.28754 0.39297 0.0
H1703 H 0.77316 0.26298 0.39322 0.0
C1704 C 0.78426 0.36596 0.41335 0.0
N1705 N 0.79228 0.40681 0.41567 0.0
C1706 C 0.77453 0.38001 0.40632 0.0
C1707 C 0.79794 0.37268 0.42161 0.0
C1708 C 0.77881 0.40061 0.40762 0.0
C1709 C 0.80184 0.3934 0.42263 0.0
C1710 C 0.79905 0.31685 0.37979 0.0
C1711 C 0.81921 0.31985 0.37657 0.0
C1712 C 0.78647 0.30468 0.3731 0.0
C1713 C 0.82651 0.31044 0.36673 0.0
C1714 C 0.79436 0.29549 0.36333 0.0
N1715 N 0.81405 0.29853 0.36038 0.0
C1716 C 0.84519 0.34946 0.40407 0.0
C1717 C 0.82278 0.37155 0.39437 0.0
C1718 C 0.8617 0.36155 0.40114 0.0
N1719 N 0.82624 0.35458 0.40063 0.0
C1720 C 0.83883 0.38427 0.39139 0.0
C1721 C 0.8587 0.37917 0.39462 0.0
H1722 H 0.8476 0.33558 0.40875 0.0
H1723 H 0.80764 0.37496 0.39145 0.0
C1724 C 0.73044 0.34471 0.40186 0.0
N1725 N 0.74465 0.33857 0.39423 0.0
C1726 C 0.71297 0.35454 0.39814 0.0
C1727 C 0.72511 0.35152 0.37876 0.0
C1728 C 0.74228 0.34156 0.38286 0.0
C1729 C 0.71034 0.35838 0.38647 0.0
H1730 H 0.73303 0.34257 0.41088 0.0
H1731 H 0.75402 0.33681 0.37701 0.0
O1732 O 0.81287 0.31148 0.41172 0.0
O1733 O 0.76781 0.30101 0.40845 0.0
O1734 O 0.78042 0.34572 0.41216 0.0
O1735 O 0.79175 0.32552 0.38955 0.0
H1736 H 0.81937 0.27262 0.41596 0.0
H1737 H 0.8285 0.3332 0.42851 0.0
H1738 H 0.83721 0.25939 0.43301 0.0
H1739 H 0.84602 0.31889 0.4454 0.0
H1740 H 0.70983 0.2842 0.38985 0.0
H1741 H 0.74253 0.30498 0.42583 0.0
H1742 H 0.74701 0.28961 0.39026 0.0
H1743 H 0.70544 0.2993 0.4248 0.0
H1744 H 0.78227 0.28232 0.45544 0.0
H1745 H 0.76147 0.34451 0.45499 0.0
H1746 H 0.84586 0.25663 0.38413 0.0
H1747 H 0.78548 0.23118 0.3846 0.0
H1748 H 0.76394 0.37509 0.39986 0.0
H1749 H 0.80553 0.362 0.42714 0.0
H1750 H 0.77147 0.41165 0.40221 0.0
H1751 H 0.81247 0.39881 0.42895 0.0
H1752 H 0.82917 0.32918 0.38167 0.0
H1753 H 0.77086 0.30214 0.3755 0.0
H1754 H 0.8421 0.31254 0.36416 0.0
H1755 H 0.78485 0.2859 0.35812 0.0
H1756 H 0.87673 0.35665 0.40358 0.0
H1757 H 0.8357 0.39775 0.38644 0.0
H1758 H 0.70212 0.35992 0.40437 0.0
H1759 H 0.72358 0.35422 0.36969 0.0
Li1760 Li 0.92209 0.47894 0.84639 0.0
Li1761 Li 0.91462 0.44381 0.84294 0.0
Li1762 Li 0.94997 0.45561 0.84529 0.0
Li1763 Li 0.92958 0.46494 0.82819 0.0
C1764 C 0.93006 0.45752 0.86786 0.0
N1765 N 0.93479 0.46083 0.89118 0.0
C1766 C 0.91523 0.44991 0.8752 0.0
C1767 C 0.94739 0.46664 0.87238 0.0
C1768 C 0.91786 0.45179 0.88696 0.0
C1769 C 0.94947 0.46821 0.8842 0.0
C1770 C 0.88286 0.46985 0.83887 0.0
C1771 C 0.84739 0.47514 0.83493 0.0
N1772 N 0.84335 0.47412 0.84628 0.0
C1773 C 0.87833 0.46882 0.85049 0.0
C1774 C 0.86726 0.47302 0.83102 0.0
C1775 C 0.85829 0.47104 0.85407 0.0
C1776 C 0.90285 0.51608 0.84559 0.0
N1777 N 0.91193 0.50329 0.85309 0.0
C1778 C 0.90324 0.52495 0.86865 0.0
C1779 C 0.9125 0.50748 0.86444 0.0
C1780 C 0.89348 0.53822 0.86109 0.0
C1781 C 0.89362 0.53379 0.8494 0.0
H1782 H 0.90238 0.51223 0.83663 0.0
H1783 H 0.91967 0.49717 0.87028 0.0
C1784 C 0.90584 0.40857 0.8545 0.0
N1785 N 0.898 0.4213 0.84655 0.0
C1786 C 0.8949 0.3917 0.85809 0.0
C1787 C 0.86799 0.40122 0.84517 0.0
C1788 C 0.87954 0.41791 0.84178 0.0
C1789 C 0.87568 0.38787 0.85344 0.0
H1790 H 0.92059 0.41167 0.85811 0.0
H1791 H 0.87377 0.42811 0.83535 0.0
C1792 C 0.95102 0.5024 0.83843 0.0
N1793 N 0.95645 0.54371 0.84054 0.0
C1794 C 0.94479 0.5154 0.8297 0.0
C1795 C 0.96027 0.51038 0.84815 0.0
C1796 C 0.94761 0.53625 0.83095 0.0
C1797 C 0.9628 0.53132 0.84908 0.0
C1798 C 0.93329 0.42307 0.82528 0.0
C1799 C 0.94608 0.40663 0.8232 0.0
C1800 C 0.91509 0.42481 0.81926 0.0
C1801 C 0.94046 0.39216 0.81511 0.0
C1802 C 0.91001 0.41003 0.81124 0.0
N1803 N 0.92269 0.39414 0.80935 0.0
C1804 C 0.97508 0.43011 0.8574 0.0
C1805 C 0.9925 0.45808 0.84935 0.0
C1806 C 0.99292 0.42293 0.86228 0.0
N1807 N 0.97522 0.44735 0.8511 0.0
C1808 C 0.01077 0.45138 0.85404 0.0
C1809 C 0.01112 0.43353 0.86059 0.0
H1810 H 0.96101 0.42205 0.8587 0.0
H1811 H 0.99206 0.47179 0.84431 0.0
C1812 C 0.91481 0.48056 0.8077 0.0
N1813 N 0.93068 0.47052 0.81241 0.0
C1814 C 0.91526 0.48612 0.79624 0.0
C1815 C 0.9484 0.47076 0.79466 0.0
C1816 C 0.94727 0.46545 0.80618 0.0
C1817 C 0.93231 0.4814 0.78958 0.0
H1818 H 0.90193 0.48456 0.81292 0.0
H1819 H 0.95973 0.45759 0.81021 0.0
O1820 O 0.92781 0.45551 0.85632 0.0
O1821 O 0.90238 0.46769 0.8351 0.0
O1822 O 0.94797 0.48199 0.83747 0.0
O1823 O 0.9386 0.43728 0.83322 0.0
H1824 H 0.90181 0.44261 0.87185 0.0
H1825 H 0.95907 0.47253 0.86686 0.0
H1826 H 0.90647 0.44603 0.89274 0.0
H1827 H 0.96277 0.4753 0.88781 0.0
H1828 H 0.83518 0.47757 0.82894 0.0
H1829 H 0.89012 0.46642 0.8567 0.0
H1830 H 0.87044 0.47372 0.82198 0.0
H1831 H 0.8546 0.47031 0.86305 0.0
H1832 H 0.90344 0.52792 0.87773 0.0
H1833 H 0.88597 0.54349 0.84333 0.0
H1834 H 0.90129 0.38193 0.86457 0.0
H1835 H 0.85333 0.39865 0.8413 0.0
H1836 H 0.93765 0.50948 0.82211 0.0
H1837 H 0.96533 0.50054 0.85494 0.0
H1838 H 0.94272 0.5465 0.82431 0.0
H1839 H 0.9698 0.53772 0.8566 0.0
H1840 H 0.9602 0.40507 0.82781 0.0
H1841 H 0.90497 0.43739 0.82076 0.0
H1842 H 0.95021 0.37935 0.81342 0.0
H1843 H 0.89598 0.41117 0.80653 0.0
H1844 H 0.9924 0.40933 0.86743 0.0
H1845 H 0.02449 0.45991 0.85244 0.0
H1846 H 0.9024 0.49404 0.79265 0.0
H1847 H 0.96191 0.46701 0.78988 0.0
Li1848 Li 0.80557 0.66232 0.09241 0.0
Li1849 Li 0.76976 0.67032 0.09505 0.0
Li1850 Li 0.78664 0.67718 0.07707 0.0
Li1851 Li 0.79391 0.69719 0.09406 0.0
C1852 C 0.78663 0.63072 0.08481 0.0
N1853 N 0.79753 0.59046 0.08667 0.0
C1854 C 0.7778 0.6185 0.09317 0.0
C1855 C 0.80096 0.62245 0.07737 0.0
C1856 C 0.78351 0.59817 0.09397 0.0
C1857 C 0.8063 0.60207 0.07847 0.0
C1858 C 0.79862 0.6851 0.11516 0.0
C1859 C 0.79289 0.70904 0.13034 0.0
N1860 N 0.81238 0.70656 0.13383 0.0
C1861 C 0.81858 0.68274 0.11891 0.0
C1862 C 0.78564 0.69829 0.12094 0.0
C1863 C 0.82524 0.69373 0.12837 0.0
C1864 C 0.84472 0.6449 0.09121 0.0
N1865 N 0.82663 0.64424 0.0967 0.0
C1866 C 0.8391 0.61924 0.10964 0.0
C1867 C 0.82351 0.63169 0.10572 0.0
C1868 C 0.85812 0.61985 0.10428 0.0
C1869 C 0.86073 0.63271 0.09484 0.0
H1870 H 0.84685 0.65518 0.08415 0.0
H1871 H 0.80903 0.63175 0.11003 0.0
C1872 C 0.73208 0.65169 0.0939 0.0
N1873 N 0.74519 0.66058 0.10128 0.0
C1874 C 0.71451 0.64247 0.09793 0.0
C1875 C 0.72411 0.65201 0.11709 0.0
C1876 C 0.74152 0.6611 0.11267 0.0
C1877 C 0.71052 0.64224 0.10969 0.0
H1878 H 0.73565 0.65119 0.08491 0.0
H1879 H 0.75238 0.66802 0.11835 0.0
C1880 C 0.82235 0.69268 0.07332 0.0
N1881 N 0.83873 0.70693 0.05319 0.0
C1882 C 0.8235 0.7135 0.07129 0.0
C1883 C 0.82959 0.6791 0.06514 0.0
C1884 C 0.83185 0.7204 0.06106 0.0
C1885 C 0.83778 0.68661 0.05501 0.0
C1886 C 0.74791 0.6986 0.08561 0.0
C1887 C 0.73637 0.69307 0.07612 0.0
C1888 C 0.73832 0.70673 0.0952 0.0
C1889 C 0.71537 0.69566 0.07641 0.0
C1890 C 0.71729 0.70904 0.09516 0.0
N1891 N 0.70635 0.70351 0.08585 0.0
C1892 C 0.77924 0.66075 0.05524 0.0
C1893 C 0.78117 0.69658 0.05589 0.0
C1894 C 0.77462 0.66131 0.04364 0.0
N1895 N 0.78238 0.67823 0.06109 0.0
C1896 C 0.77667 0.69785 0.04429 0.0
C1897 C 0.77314 0.68005 0.03803 0.0
H1898 H 0.77982 0.6464 0.05965 0.0
H1899 H 0.78335 0.71024 0.06082 0.0
C1900 C 0.82154 0.72502 0.1026 0.0
N1901 N 0.80176 0.72294 0.09967 0.0
C1902 C 0.82854 0.74316 0.10719 0.0
C1903 C 0.79474 0.75692 0.10543 0.0
C1904 C 0.78836 0.73841 0.1009 0.0
C1905 C 0.81509 0.75943 0.10867 0.0
H1906 H 0.83184 0.71244 0.10147 0.0
H1907 H 0.77276 0.73638 0.09838 0.0
O1908 O 0.78159 0.65076 0.08404 0.0
O1909 O 0.79193 0.67482 0.10575 0.0
O1910 O 0.81395 0.68561 0.08321 0.0
O1911 O 0.76844 0.69583 0.08558 0.0
H1912 H 0.76683 0.62466 0.09907 0.0
H1913 H 0.8081 0.63174 0.07093 0.0
H1914 H 0.77686 0.58856 0.10043 0.0
H1915 H 0.81746 0.59551 0.07282 0.0
H1916 H 0.78306 0.71942 0.13484 0.0
H1917 H 0.82891 0.67275 0.11448 0.0
H1918 H 0.77021 0.70045 0.11809 0.0
H1919 H 0.84067 0.69213 0.13133 0.0
H1920 H 0.83651 0.60977 0.11704 0.0
H1921 H 0.87507 0.63351 0.09038 0.0
H1922 H 0.70466 0.63478 0.09195 0.0
H1923 H 0.72155 0.65222 0.1262 0.0
H1924 H 0.81785 0.72423 0.07748 0.0
H1925 H 0.82862 0.66294 0.06652 0.0
H1926 H 0.83277 0.73648 0.05935 0.0
H1927 H 0.84332 0.67627 0.04857 0.0
H1928 H 0.74348 0.68664 0.06865 0.0
H1929 H 0.74699 0.71093 0.10265 0.0
H1930 H 0.70625 0.69136 0.06915 0.0
H1931 H 0.70966 0.71518 0.10255 0.0
H1932 H 0.77165 0.64724 0.03921 0.0
H1933 H 0.77586 0.71261 0.0403 0.0
H1934 H 0.84427 0.7443 0.10972 0.0
H1935 H 0.78393 0.76916 0.10628 0.0
Li1936 Li 0.58377 0.55361 0.34391 0.0
Li1937 Li 0.57675 0.51817 0.34705 0.0
Li1938 Li 0.56862 0.53486 0.32907 0.0
Li1939 Li 0.54883 0.54204 0.34595 0.0
C1940 C 0.61502 0.53678 0.33397 0.0
N1941 N 0.65401 0.55096 0.33073 0.0
C1942 C 0.63144 0.52668 0.33889 0.0
C1943 C 0.61852 0.55384 0.3272 0.0
C1944 C 0.65102 0.53414 0.3372 0.0
C1945 C 0.6383 0.56086 0.32573 0.0
C1946 C 0.5637 0.53374 0.36752 0.0
C1947 C 0.54242 0.51077 0.3781 0.0
N1948 N 0.54896 0.51927 0.38799 0.0
C1949 C 0.57022 0.54224 0.37779 0.0
C1950 C 0.54969 0.51786 0.36766 0.0
C1951 C 0.56259 0.53472 0.38805 0.0
C1952 C 0.5993 0.5934 0.3431 0.0
N1953 N 0.60147 0.57496 0.34807 0.0
C1954 C 0.62811 0.58733 0.35995 0.0
C1955 C 0.61556 0.57159 0.35629 0.0
C1956 C 0.62602 0.60668 0.3551 0.0
C1957 C 0.61156 0.60953 0.34645 0.0
H1958 H 0.5879 0.59563 0.33661 0.0
H1959 H 0.61679 0.55675 0.36013 0.0
C1960 C 0.57813 0.47613 0.35409 0.0
N1961 N 0.58683 0.49478 0.35468 0.0
C1962 C 0.58784 0.45938 0.35889 0.0
C1963 C 0.61439 0.48162 0.36556 0.0
C1964 C 0.60415 0.49789 0.36066 0.0
C1965 C 0.60651 0.46195 0.36445 0.0
H1966 H 0.56387 0.47409 0.34976 0.0
H1967 H 0.61035 0.51301 0.36129 0.0
C1968 C 0.55064 0.56967 0.32544 0.0
N1969 N 0.5319 0.58464 0.30612 0.0
C1970 C 0.52968 0.56778 0.32409 0.0
C1971 C 0.56202 0.57932 0.31698 0.0
C1972 C 0.5205 0.57543 0.31426 0.0
C1973 C 0.55229 0.58672 0.30727 0.0
C1974 C 0.54998 0.49755 0.33242 0.0
C1975 C 0.56725 0.48933 0.32728 0.0
C1976 C 0.53156 0.48722 0.33168 0.0
C1977 C 0.56578 0.47087 0.32154 0.0
C1978 C 0.53072 0.46878 0.32586 0.0
N1979 N 0.54771 0.46105 0.32095 0.0
C1980 C 0.58425 0.52897 0.30684 0.0
C1981 C 0.54845 0.52788 0.30819 0.0
C1982 C 0.58337 0.52465 0.29522 0.0
N1983 N 0.56695 0.53057 0.31305 0.0
C1984 C 0.54685 0.52359 0.29657 0.0
C1985 C 0.56449 0.52182 0.28994 0.0
H1986 H 0.59877 0.53055 0.31095 0.0
H1987 H 0.53496 0.52878 0.31338 0.0
C1988 C 0.52293 0.56768 0.35756 0.0
N1989 N 0.52353 0.54946 0.35222 0.0
C1990 C 0.50485 0.57481 0.36219 0.0
C1991 C 0.48834 0.54409 0.35586 0.0
C1992 C 0.50681 0.53755 0.35134 0.0
C1993 C 0.48718 0.56305 0.36128 0.0
H1994 H 0.53656 0.57672 0.35816 0.0
H1995 H 0.5078 0.52312 0.34704 0.0
O1996 O 0.59567 0.5299 0.33566 0.0
O1997 O 0.57112 0.54097 0.35743 0.0
O1998 O 0.55995 0.56198 0.33492 0.0
O1999 O 0.55084 0.51584 0.3379 0.0
H2000 H 0.62919 0.5131 0.34385 0.0
H2001 H 0.60604 0.56172 0.32323 0.0
H2002 H 0.66384 0.5265 0.34101 0.0
H2003 H 0.64115 0.57419 0.32061 0.0
H2004 H 0.53157 0.4985 0.37833 0.0
H2005 H 0.58109 0.55452 0.37781 0.0
H2006 H 0.5445 0.51104 0.35981 0.0
H2007 H 0.5675 0.54115 0.39607 0.0
H2008 H 0.63888 0.58452 0.36672 0.0
H2009 H 0.60962 0.62412 0.34238 0.0
H2010 H 0.58098 0.44456 0.3581 0.0
H2011 H 0.62875 0.48436 0.36973 0.0
H2012 H 0.52059 0.56028 0.33047 0.0
H2013 H 0.57822 0.58102 0.31786 0.0
H2014 H 0.50432 0.57396 0.31309 0.0
H2015 H 0.56094 0.59412 0.30064 0.0
H2016 H 0.58165 0.49704 0.32771 0.0
H2017 H 0.51802 0.49341 0.33554 0.0
H2018 H 0.57902 0.46434 0.31753 0.0
H2019 H 0.51656 0.46062 0.32524 0.0
H2020 H 0.59736 0.52299 0.2905 0.0
H2021 H 0.53198 0.52162 0.29284 0.0
H2022 H 0.50471 0.58935 0.36645 0.0
H2023 H 0.47505 0.53464 0.35491 0.0
Li2024 Li 0.73067 0.32501 0.59647 0.0
Li2025 Li 0.69572 0.33338 0.59321 0.0
Li2026 Li 0.70664 0.29765 0.59626 0.0
Li2027 Li 0.71587 0.31655 0.57849 0.0
C2028 C 0.70869 0.32085 0.61833 0.0
N2029 N 0.71071 0.32112 0.64185 0.0
C2030 C 0.70196 0.33772 0.62445 0.0
C2031 C 0.71614 0.30398 0.62419 0.0
C2032 C 0.7032 0.3376 0.63633 0.0
C2033 C 0.71712 0.30445 0.63607 0.0
C2034 C 0.72338 0.36375 0.58724 0.0
C2035 C 0.73197 0.39752 0.5811 0.0
N2036 N 0.73128 0.40391 0.59212 0.0
C2037 C 0.72279 0.37063 0.5985 0.0
C2038 C 0.72805 0.37726 0.57846 0.0
C2039 C 0.72682 0.39099 0.60079 0.0
C2040 C 0.76825 0.34317 0.59485 0.0
N2041 N 0.75528 0.33538 0.60271 0.0
C2042 C 0.77674 0.34633 0.61789 0.0
C2043 C 0.75934 0.33644 0.61405 0.0
C2044 C 0.79002 0.3552 0.60996 0.0
C2045 C 0.78582 0.3531 0.5983 0.0
H2046 H 0.76461 0.34214 0.58588 0.0
H2047 H 0.74887 0.3302 0.62015 0.0
C2048 C 0.65955 0.34266 0.60354 0.0
N2049 N 0.6737 0.35084 0.59652 0.0
C2050 C 0.64272 0.35394 0.60685 0.0
C2051 C 0.65531 0.38198 0.59564 0.0
C2052 C 0.67181 0.37002 0.59241 0.0
C2053 C 0.64053 0.37391 0.60295 0.0
H2054 H 0.66147 0.32733 0.60663 0.0
H2055 H 0.68305 0.37606 0.58666 0.0
C2056 C 0.75298 0.29456 0.58992 0.0
N2057 N 0.7937 0.2877 0.59374 0.0
C2058 C 0.767 0.29746 0.58115 0.0
C2059 C 0.75964 0.28791 0.60059 0.0
C2060 C 0.78753 0.29397 0.58326 0.0
C2061 C 0.78029 0.2846 0.60236 0.0
C2062 C 0.67328 0.31393 0.57661 0.0
C2063 C 0.65619 0.30161 0.57554 0.0
C2064 C 0.67486 0.33154 0.57005 0.0
C2065 C 0.64096 0.30706 0.56786 0.0
C2066 C 0.65931 0.33647 0.56248 0.0
N2067 N 0.64283 0.32423 0.56154 0.0
C2068 C 0.67866 0.27233 0.60656 0.0
C2069 C 0.71031 0.25648 0.60308 0.0
C2070 C 0.67104 0.2546 0.61138 0.0
N2071 N 0.69793 0.27289 0.60253 0.0
C2072 C 0.70334 0.23844 0.60791 0.0
C2073 C 0.68343 0.23736 0.61208 0.0
H2074 H 0.66925 0.28571 0.60603 0.0
H2075 H 0.72555 0.2574 0.59974 0.0
C2076 C 0.73667 0.32555 0.55862 0.0
N2077 N 0.72091 0.31447 0.5627 0.0
C2078 C 0.74207 0.32429 0.54716 0.0
C2079 C 0.71439 0.30086 0.5442 0.0
C2080 C 0.70977 0.30225 0.55579 0.0
C2081 C 0.73086 0.31182 0.53983 0.0
H2082 H 0.74522 0.33512 0.56435 0.0
H2083 H 0.69741 0.29349 0.5593 0.0
O2084 O 0.70738 0.32064 0.6067 0.0
O2085 O 0.71971 0.34384 0.58477 0.0
O2086 O 0.73287 0.29837 0.58809 0.0
O2087 O 0.68817 0.3089 0.58419 0.0
H2088 H 0.69578 0.35076 0.62008 0.0
H2089 H 0.72111 0.29067 0.61962 0.0
H2090 H 0.69813 0.35059 0.64117 0.0
H2091 H 0.72295 0.29154 0.64071 0.0
H2092 H 0.73557 0.40816 0.57439 0.0
H2093 H 0.71938 0.36036 0.60538 0.0
H2094 H 0.72862 0.37214 0.5697 0.0
H2095 H 0.72643 0.39651 0.60947 0.0
H2096 H 0.77929 0.34779 0.62697 0.0
H2097 H 0.79578 0.35947 0.5919 0.0
H2098 H 0.63171 0.34726 0.61257 0.0
H2099 H 0.65399 0.39727 0.59238 0.0
H2100 H 0.76213 0.30244 0.57282 0.0
H2101 H 0.74901 0.28557 0.60746 0.0
H2102 H 0.79856 0.29627 0.57657 0.0
H2103 H 0.78567 0.27963 0.61061 0.0
H2104 H 0.6547 0.28799 0.58061 0.0
H2105 H 0.68792 0.34133 0.57081 0.0
H2106 H 0.62765 0.29766 0.56694 0.0
H2107 H 0.66034 0.35005 0.55735 0.0
H2108 H 0.65568 0.25444 0.61463 0.0
H2109 H 0.71328 0.22541 0.60821 0.0
H2110 H 0.75477 0.33306 0.54404 0.0
H2111 H 0.70549 0.29105 0.53875 0.0
Li2112 Li 0.06656 0.4635 0.32847 0.0
Li2113 Li 0.07695 0.48084 0.34575 0.0
Li2114 Li 0.08329 0.44459 0.34322 0.0
Li2115 Li 0.0491 0.45762 0.34652 0.0
C2116 C 0.1142 0.46235 0.33332 0.0
N2117 N 0.15443 0.45095 0.33222 0.0
C2118 C 0.12871 0.47248 0.33986 0.0
C2119 C 0.12017 0.44643 0.32622 0.0
C2120 C 0.14897 0.4665 0.33918 0.0
C2121 C 0.14057 0.44088 0.32579 0.0
C2122 C 0.04785 0.50324 0.33777 0.0
C2123 C 0.03847 0.53401 0.3475 0.0
N2124 N 0.04431 0.54491 0.33823 0.0
C2125 C 0.0537 0.51474 0.32832 0.0
C2126 C 0.04011 0.51291 0.34742 0.0
C2127 C 0.0518 0.5358 0.32873 0.0
C2128 C 0.04395 0.47166 0.30865 0.0
N2129 N 0.06275 0.46695 0.31256 0.0
C2130 C 0.07654 0.46972 0.29382 0.0
C2131 C 0.07892 0.46585 0.30543 0.0
C2132 C 0.05738 0.47499 0.28955 0.0
C2133 C 0.0409 0.47578 0.29711 0.0
H2134 H 0.03141 0.47262 0.31456 0.0
H2135 H 0.09375 0.46246 0.30878 0.0
C2136 C 0.08775 0.50985 0.3626 0.0
N2137 N 0.0881 0.50539 0.35131 0.0
C2138 C 0.09744 0.52721 0.36665 0.0
C2139 C 0.1073 0.53519 0.34732 0.0
C2140 C 0.09736 0.51775 0.34365 0.0
C2141 C 0.10773 0.53995 0.35899 0.0
H2142 H 0.08038 0.4997 0.36851 0.0
H2143 H 0.09756 0.51365 0.33472 0.0
C2144 C 0.04936 0.42854 0.32599 0.0
N2145 N 0.03157 0.41264 0.30665 0.0
C2146 C 0.02841 0.42987 0.32447 0.0
C2147 C 0.06126 0.41905 0.31771 0.0
C2148 C 0.01971 0.42173 0.31463 0.0
C2149 C 0.05198 0.41114 0.30798 0.0
C2150 C 0.06512 0.45321 0.36708 0.0
C2151 C 0.06944 0.43405 0.37152 0.0
C2152 C 0.05216 0.4662 0.37303 0.0
C2153 C 0.06057 0.42813 0.3818 0.0
C2154 C 0.04355 0.4597 0.38327 0.0
N2155 N 0.0479 0.44095 0.38741 0.0
C2156 C 0.11763 0.42587 0.35323 0.0
C2157 C 0.09541 0.40377 0.34339 0.0
C2158 C 0.12988 0.40961 0.35646 0.0
N2159 N 0.10084 0.42267 0.34677 0.0
C2160 C 0.10702 0.38705 0.34657 0.0
C2161 C 0.1245 0.3898 0.35326 0.0
H2162 H 0.12131 0.44101 0.35604 0.0
H2163 H 0.08172 0.4016 0.3385 0.0
C2164 C 0.00785 0.46362 0.35304 0.0
N2165 N 0.0239 0.45075 0.35326 0.0
C2166 C 0.98932 0.45774 0.35776 0.0
C2167 C 0.00438 0.42565 0.36291 0.0
C2168 C 0.02244 0.43201 0.35794 0.0
C2169 C 0.98738 0.43848 0.36277 0.0
H2170 H 0.00935 0.47829 0.34905 0.0
H2171 H 0.03537 0.42196 0.35779 0.0
O2172 O 0.09424 0.46788 0.33393 0.0
O2173 O 0.05004 0.48265 0.33764 0.0
O2174 O 0.05824 0.43688 0.33541 0.0
O2175 O 0.07344 0.45919 0.35695 0.0
H2176 H 0.1244 0.48468 0.3455 0.0
H2177 H 0.10912 0.43822 0.32122 0.0
H2178 H 0.16035 0.47417 0.34421 0.0
H2179 H 0.14536 0.42851 0.32038 0.0
H2180 H 0.03262 0.54171 0.35494 0.0
H2181 H 0.0599 0.50752 0.32082 0.0
H2182 H 0.03562 0.50425 0.35483 0.0
H2183 H 0.05636 0.5449 0.32151 0.0
H2184 H 0.0897 0.46928 0.28831 0.0
H2185 H 0.02587 0.4797 0.29413 0.0
H2186 H 0.09721 0.53042 0.3757 0.0
H2187 H 0.1153 0.54435 0.34112 0.0
H2188 H 0.019 0.43727 0.33076 0.0
H2189 H 0.07751 0.418 0.31873 0.0
H2190 H 0.00352 0.42272 0.31331 0.0
H2191 H 0.06101 0.40386 0.30147 0.0
H2192 H 0.0794 0.42377 0.36704 0.0
H2193 H 0.04852 0.48102 0.36968 0.0
H2194 H 0.06371 0.4133 0.38531 0.0
H2195 H 0.03337 0.46953 0.38791 0.0
H2196 H 0.14327 0.41256 0.36151 0.0
H2197 H 0.10193 0.37209 0.34413 0.0
H2198 H 0.97657 0.46801 0.35725 0.0
H2199 H 0.0038 0.41082 0.36683 0.0
Li2200 Li 0.30642 0.32741 0.09404 0.0
Li2201 Li 0.28986 0.29226 0.09584 0.0
Li2202 Li 0.2861 0.31299 0.07859 0.0
Li2203 Li 0.2698 0.3229 0.09548 0.0
C2204 C 0.32229 0.29919 0.07532 0.0
N2205 N 0.34207 0.29383 0.05479 0.0
C2206 C 0.32229 0.28023 0.07003 0.0
C2207 C 0.33235 0.31542 0.07018 0.0
C2208 C 0.33237 0.27784 0.05964 0.0
C2209 C 0.34228 0.3124 0.05981 0.0
C2210 C 0.2807 0.32046 0.11667 0.0
C2211 C 0.25492 0.31386 0.13076 0.0
N2212 N 0.25898 0.33202 0.13572 0.0
C2213 C 0.28472 0.33898 0.12197 0.0
C2214 C 0.26578 0.30772 0.12114 0.0
C2215 C 0.27354 0.34458 0.13157 0.0
C2216 C 0.32615 0.36233 0.10216 0.0
N2217 N 0.32907 0.34325 0.09816 0.0
C2218 C 0.36481 0.34625 0.10064 0.0
C2219 C 0.34788 0.33508 0.09733 0.0
C2220 C 0.36234 0.36585 0.10515 0.0
C2221 C 0.34263 0.37389 0.10582 0.0
H2222 H 0.31097 0.36843 0.10268 0.0
H2223 H 0.34971 0.31985 0.09411 0.0
C2224 C 0.29329 0.24971 0.09477 0.0
N2225 N 0.29409 0.26604 0.10182 0.0
C2226 C 0.29857 0.23054 0.09884 0.0
C2227 C 0.30434 0.24528 0.11744 0.0
C2228 C 0.29924 0.26419 0.11299 0.0
C2229 C 0.30435 0.22834 0.11027 0.0
H2230 H 0.28907 0.25169 0.08594 0.0
H2231 H 0.29996 0.27749 0.11834 0.0
C2232 C 0.27622 0.35425 0.07812 0.0
N2233 N 0.25791 0.38194 0.06381 0.0
C2234 C 0.25637 0.35111 0.07441 0.0
C2235 C 0.28674 0.37152 0.07462 0.0
C2236 C 0.24738 0.36527 0.06716 0.0
C2237 C 0.27723 0.38533 0.06736 0.0
C2238 C 0.24644 0.28965 0.08743 0.0
C2239 C 0.23187 0.29523 0.07937 0.0
C2240 C 0.24148 0.27558 0.09588 0.0
C2241 C 0.2124 0.28705 0.0801 0.0
C2242 C 0.22185 0.26773 0.09632 0.0
N2243 N 0.20783 0.2736 0.0885 0.0
C2244 C 0.27322 0.29485 0.05833 0.0
C2245 C 0.28981 0.32631 0.05555 0.0
C2246 C 0.26892 0.29346 0.04672 0.0
N2247 N 0.28315 0.31126 0.06251 0.0
C2248 C 0.28577 0.32558 0.04389 0.0
C2249 C 0.27491 0.30915 0.03937 0.0
H2250 H 0.26824 0.28304 0.06406 0.0
H2251 H 0.298 0.33902 0.05907 0.0
C2252 C 0.25028 0.35719 0.10314 0.0
N2253 N 0.24682 0.33713 0.10146 0.0
C2254 C 0.23477 0.36988 0.10682 0.0
C2255 C 0.21236 0.34097 0.10737 0.0
C2256 C 0.2284 0.32879 0.10372 0.0
C2257 C 0.21538 0.36188 0.10879 0.0
H2258 H 0.26517 0.36338 0.10155 0.0
H2259 H 0.226 0.31278 0.10265 0.0
O2260 O 0.31203 0.30202 0.08532 0.0
O2261 O 0.291 0.315 0.10703 0.0
O2262 O 0.28544 0.34052 0.08513 0.0
O2263 O 0.26564 0.2973 0.08677 0.0
H2264 H 0.31449 0.26755 0.07385 0.0
H2265 H 0.3322 0.33028 0.07406 0.0
H2266 H 0.33245 0.26327 0.05543 0.0
H2267 H 0.35003 0.32486 0.0557 0.0
H2268 H 0.24323 0.30421 0.13425 0.0
H2269 H 0.29623 0.34901 0.11864 0.0
H2270 H 0.26247 0.29334 0.11715 0.0
H2271 H 0.27641 0.35893 0.13571 0.0
H2272 H 0.37966 0.33952 0.09968 0.0
H2273 H 0.33983 0.38875 0.10937 0.0
H2274 H 0.29859 0.21768 0.09311 0.0
H2275 H 0.30897 0.244 0.12627 0.0
H2276 H 0.24801 0.33791 0.07713 0.0
H2277 H 0.30214 0.37414 0.07743 0.0
H2278 H 0.23202 0.36302 0.06421 0.0
H2279 H 0.28521 0.39873 0.06454 0.0
H2280 H 0.23555 0.30568 0.07258 0.0
H2281 H 0.25264 0.27078 0.10206 0.0
H2282 H 0.20095 0.29133 0.07397 0.0
H2283 H 0.21778 0.25693 0.10286 0.0
H2284 H 0.26041 0.28059 0.04359 0.0
H2285 H 0.29094 0.33782 0.03847 0.0
H2286 H 0.23795 0.3858 0.1081 0.0
H2287 H 0.19767 0.33416 0.10883 0.0
Li2288 Li 0.41967 0.55511 0.84368 0.0
Li2289 Li 0.453 0.5389 0.84641 0.0
Li2290 Li 0.43377 0.53381 0.82876 0.0
Li2291 Li 0.42239 0.51939 0.84599 0.0
C2292 C 0.4547 0.57735 0.83699 0.0
N2293 N 0.47476 0.61306 0.84178 0.0
C2294 C 0.45477 0.58508 0.84809 0.0
C2295 C 0.46487 0.58774 0.82835 0.0
C2296 C 0.465 0.60315 0.85033 0.0
C2297 C 0.4749 0.6058 0.83094 0.0
C2298 C 0.42765 0.52951 0.86698 0.0
C2299 C 0.43818 0.50214 0.87924 0.0
N2300 N 0.42204 0.50583 0.88614 0.0
C2301 C 0.41124 0.5331 0.87422 0.0
C2302 C 0.44129 0.51395 0.86952 0.0
C2303 C 0.40864 0.52094 0.88385 0.0
C2304 C 0.38687 0.57447 0.85381 0.0
N2305 N 0.403 0.57797 0.8469 0.0
C2306 C 0.39448 0.61306 0.84562 0.0
C2307 C 0.40666 0.59668 0.84252 0.0
C2308 C 0.3782 0.61007 0.85316 0.0
C2309 C 0.37425 0.59038 0.8571 0.0
H2310 H 0.38384 0.55928 0.85677 0.0
H2311 H 0.41911 0.59901 0.8367 0.0
C2312 C 0.49538 0.54421 0.84555 0.0
N2313 N 0.47911 0.54355 0.85263 0.0
C2314 C 0.51423 0.55048 0.84965 0.0
C2315 C 0.4993 0.5546 0.86832 0.0
C2316 C 0.48074 0.54845 0.86384 0.0
C2317 C 0.51628 0.55612 0.86116 0.0
H2318 H 0.49349 0.54065 0.83661 0.0
H2319 H 0.46749 0.54833 0.86923 0.0
C2320 C 0.39285 0.54333 0.82732 0.0
N2321 N 0.36671 0.56205 0.81224 0.0
C2322 C 0.37308 0.53616 0.826 0.0
C2323 C 0.39932 0.56005 0.82098 0.0
C2324 C 0.3601 0.54582 0.81833 0.0
C2325 C 0.38588 0.56929 0.8134 0.0
C2326 C 0.44856 0.49485 0.83285 0.0
C2327 C 0.43085 0.48694 0.82807 0.0
C2328 C 0.46654 0.48376 0.83225 0.0
C2329 C 0.43145 0.46804 0.82275 0.0
C2330 C 0.46652 0.46489 0.82686 0.0
N2331 N 0.44913 0.45749 0.82226 0.0
C2332 C 0.45283 0.53516 0.80702 0.0
C2333 C 0.42024 0.5201 0.8073 0.0
C2334 C 0.45453 0.53151 0.79531 0.0
N2335 N 0.43584 0.52946 0.81273 0.0
C2336 C 0.42122 0.51635 0.79564 0.0
C2337 C 0.43851 0.52205 0.78949 0.0
H2338 H 0.46507 0.54244 0.81158 0.0
H2339 H 0.40705 0.51533 0.81203 0.0
C2340 C 0.38776 0.50043 0.85353 0.0
N2341 N 0.40789 0.49709 0.85212 0.0
C2342 C 0.37513 0.48486 0.85717 0.0
C2343 C 0.40427 0.46272 0.85814 0.0
C2344 C 0.4164 0.47882 0.85451 0.0
C2345 C 0.38329 0.46559 0.85934 0.0
H2346 H 0.38151 0.51521 0.85169 0.0
H2347 H 0.43251 0.47664 0.85339 0.0
O2348 O 0.44524 0.55942 0.83461 0.0
O2349 O 0.43021 0.54086 0.85732 0.0
O2350 O 0.4056 0.53399 0.83487 0.0
O2351 O 0.4484 0.51323 0.83822 0.0
H2352 H 0.44702 0.57722 0.8549 0.0
H2353 H 0.46505 0.58188 0.81973 0.0
H2354 H 0.46518 0.6093 0.85888 0.0
H2355 H 0.48283 0.61401 0.82433 0.0
H2356 H 0.44853 0.48997 0.88126 0.0
H2357 H 0.40061 0.54513 0.87245 0.0
H2358 H 0.45397 0.51084 0.86394 0.0
H2359 H 0.39596 0.5235 0.88951 0.0
H2360 H 0.3981 0.62798 0.84238 0.0
H2361 H 0.36157 0.58729 0.86269 0.0
H2362 H 0.52682 0.55171 0.84378 0.0
H2363 H 0.5002 0.55856 0.87727 0.0
H2364 H 0.36782 0.52325 0.83086 0.0
H2365 H 0.41454 0.56586 0.82185 0.0
H2366 H 0.34476 0.54042 0.81722 0.0
H2367 H 0.3907 0.58223 0.80844 0.0
H2368 H 0.41675 0.49521 0.82858 0.0
H2369 H 0.48036 0.48966 0.83594 0.0
H2370 H 0.41786 0.46172 0.81903 0.0
H2371 H 0.48034 0.45612 0.82635 0.0
H2372 H 0.46811 0.53615 0.79084 0.0
H2373 H 0.4087 0.50869 0.79151 0.0
H2374 H 0.35912 0.48787 0.85825 0.0
H2375 H 0.41115 0.4481 0.85971 0.0
Li2376 Li 0.20467 0.69922 0.59699 0.0
Li2377 Li 0.19252 0.66569 0.59314 0.0
Li2378 Li 0.22751 0.66976 0.59703 0.0
Li2379 Li 0.21266 0.68086 0.57828 0.0
C2380 C 0.21071 0.68171 0.6181 0.0
N2381 N 0.22277 0.6948 0.63942 0.0
C2382 C 0.19934 0.67666 0.62774 0.0
C2383 C 0.22815 0.69348 0.61931 0.0
C2384 C 0.2057 0.68341 0.63844 0.0
C2385 C 0.23403 0.69993 0.63015 0.0
C2386 C 0.16614 0.69256 0.58287 0.0
C2387 C 0.13677 0.6934 0.57068 0.0
N2388 N 0.12476 0.69577 0.58001 0.0
C2389 C 0.15354 0.6951 0.59233 0.0
C2390 C 0.15775 0.69177 0.57195 0.0
C2391 C 0.13264 0.69664 0.59071 0.0
C2392 C 0.20621 0.74212 0.59913 0.0
N2393 N 0.19856 0.72473 0.60359 0.0
C2394 C 0.18057 0.74327 0.61782 0.0
C2395 C 0.18594 0.72499 0.61273 0.0
C2396 C 0.18814 0.76152 0.61341 0.0
C2397 C 0.20116 0.76083 0.60394 0.0
H2398 H 0.2161 0.74145 0.59178 0.0
H2399 H 0.17978 0.71099 0.616 0.0
C2400 C 0.17065 0.63835 0.60631 0.0
N2401 N 0.17033 0.64776 0.59603 0.0
C2402 C 0.15464 0.62592 0.60964 0.0
C2403 C 0.13842 0.63263 0.59157 0.0
C2404 C 0.15497 0.64464 0.58851 0.0
C2405 C 0.13792 0.62334 0.60236 0.0
H2406 H 0.18335 0.64061 0.61199 0.0
H2407 H 0.15534 0.65171 0.58022 0.0
C2408 C 0.25026 0.70327 0.58745 0.0
N2409 N 0.28915 0.71772 0.58425 0.0
C2410 C 0.26228 0.69567 0.57862 0.0
C2411 C 0.25791 0.71852 0.59451 0.0
C2412 C 0.28194 0.70307 0.57719 0.0
C2413 C 0.27764 0.72554 0.59279 0.0
C2414 C 0.20828 0.63438 0.58328 0.0
C2415 C 0.21196 0.61965 0.59157 0.0
C2416 C 0.1966 0.6296 0.57372 0.0
C2417 C 0.2037 0.60032 0.5902 0.0
C2418 C 0.18862 0.6101 0.57266 0.0
N2419 N 0.19229 0.596 0.58086 0.0
C2420 C 0.25147 0.64997 0.61409 0.0
C2421 C 0.26621 0.6526 0.59575 0.0
C2422 C 0.268 0.63882 0.61801 0.0
N2423 N 0.25096 0.65682 0.60316 0.0
C2424 C 0.28298 0.64139 0.59928 0.0
C2425 C 0.28394 0.63416 0.61052 0.0
H2426 H 0.2388 0.65248 0.61971 0.0
H2427 H 0.26496 0.65718 0.58696 0.0
C2428 C 0.21273 0.70031 0.55663 0.0
N2429 N 0.2181 0.68344 0.56254 0.0
C2430 C 0.21792 0.70218 0.54512 0.0
C2431 C 0.23391 0.66927 0.54608 0.0
C2432 C 0.22831 0.66798 0.55751 0.0
C2433 C 0.22886 0.6866 0.53976 0.0
H2434 H 0.20467 0.71239 0.5609 0.0
H2435 H 0.23242 0.65479 0.56245 0.0
O2436 O 0.20435 0.67563 0.60754 0.0
O2437 O 0.18661 0.69087 0.58426 0.0
O2438 O 0.23083 0.69644 0.58887 0.0
O2439 O 0.21576 0.65351 0.58463 0.0
H2440 H 0.18566 0.66775 0.62695 0.0
H2441 H 0.23716 0.69736 0.61197 0.0
H2442 H 0.19704 0.67963 0.64597 0.0
H2443 H 0.24755 0.70898 0.63119 0.0
H2444 H 0.13004 0.69275 0.56228 0.0
H2445 H 0.1598 0.69551 0.60084 0.0
H2446 H 0.16734 0.6898 0.56455 0.0
H2447 H 0.12268 0.69846 0.59795 0.0
H2448 H 0.17017 0.74313 0.62496 0.0
H2449 H 0.20735 0.77457 0.6003 0.0
H2450 H 0.15531 0.61859 0.61788 0.0
H2451 H 0.12592 0.63118 0.58566 0.0
H2452 H 0.25659 0.68405 0.573 0.0
H2453 H 0.2487 0.72501 0.6012 0.0
H2454 H 0.29144 0.69718 0.57045 0.0
H2455 H 0.28376 0.73728 0.59823 0.0
H2456 H 0.22091 0.62318 0.59904 0.0
H2457 H 0.19353 0.64091 0.56727 0.0
H2458 H 0.2063 0.58879 0.59658 0.0
H2459 H 0.17944 0.6062 0.56535 0.0
H2460 H 0.26807 0.63354 0.62674 0.0
H2461 H 0.29463 0.63768 0.59313 0.0
H2462 H 0.21385 0.71582 0.54054 0.0
H2463 H 0.2421 0.65681 0.54223 0.0
Li2464 Li 0.07921 0.55496 0.15341 0.0
Li2465 Li 0.04566 0.53747 0.151 0.0
Li2466 Li 0.06617 0.53257 0.16857 0.0
Li2467 Li 0.07696 0.51912 0.1509 0.0
C2468 C 0.04433 0.57469 0.16612 0.0
N2469 N 0.02433 0.60931 0.17309 0.0
C2470 C 0.03249 0.58562 0.1584 0.0
C2471 C 0.04594 0.58132 0.1774 0.0
C2472 C 0.02251 0.60309 0.16209 0.0
C2473 C 0.03574 0.59888 0.18075 0.0
C2474 C 0.07314 0.53125 0.13007 0.0
C2475 C 0.06595 0.50663 0.11544 0.0
N2476 N 0.08397 0.511 0.11039 0.0
C2477 C 0.09155 0.53558 0.12471 0.0
C2478 C 0.06018 0.51673 0.12539 0.0
C2479 C 0.09676 0.52514 0.11478 0.0
C2480 C 0.11379 0.57592 0.14632 0.0
N2481 N 0.09436 0.57862 0.14984 0.0
C2482 C 0.09699 0.61432 0.14697 0.0
C2483 C 0.08591 0.59736 0.15034 0.0
C2484 C 0.11694 0.61197 0.14301 0.0
C2485 C 0.12542 0.59246 0.14285 0.0
H2486 H 0.1201 0.56081 0.14599 0.0
H2487 H 0.0705 0.59917 0.15317 0.0
C2488 C 0.00265 0.53736 0.15141 0.0
N2489 N 0.01935 0.54124 0.14501 0.0
C2490 C 0.98339 0.54203 0.1472 0.0
C2491 C -0.00099 0.5542 0.12986 0.0
C2492 C 0.01789 0.54931 0.13439 0.0
C2493 C 0.98143 0.55079 0.13633 0.0
H2494 H 0.00434 0.53108 0.15988 0.0
H2495 H 0.03148 0.55256 0.12959 0.0
C2496 C 0.10742 0.54255 0.16935 0.0
N2497 N 0.13448 0.5602 0.18431 0.0
C2498 C 0.1264 0.53377 0.17118 0.0
C2499 C 0.10223 0.56035 0.17509 0.0
C2500 C 0.13986 0.54291 0.17879 0.0
C2501 C 0.11611 0.56904 0.18263 0.0
C2502 C 0.05326 0.49353 0.16455 0.0
C2503 C 0.0718 0.4872 0.16907 0.0
C2504 C 0.0362 0.48119 0.16572 0.0
C2505 C 0.07296 0.46857 0.17467 0.0
C2506 C 0.03798 0.46266 0.17138 0.0
N2507 N 0.05617 0.45679 0.1757 0.0
C2508 C 0.04549 0.53072 0.18953 0.0
C2509 C 0.07995 0.5208 0.19052 0.0
C2510 C 0.04281 0.52627 0.20108 0.0
N2511 N 0.06386 0.52799 0.18453 0.0
C2512 C 0.07801 0.51633 0.20207 0.0
C2513 C 0.05924 0.51898 0.20748 0.0
H2514 H 0.03287 0.53612 0.1845 0.0
H2515 H 0.0942 0.518 0.1863 0.0
C2516 C 0.11146 0.5001 0.14283 0.0
N2517 N 0.09127 0.49718 0.14423 0.0
C2518 C 0.12361 0.48456 0.13866 0.0
C2519 C 0.0939 0.46328 0.13729 0.0
C2520 C 0.08225 0.47936 0.14141 0.0
C2521 C 0.11494 0.4657 0.13602 0.0
H2522 H 0.11813 0.51454 0.14505 0.0
H2523 H 0.06611 0.47752 0.14256 0.0
O2524 O 0.05403 0.55739 0.16273 0.0
O2525 O 0.068 0.54087 0.13996 0.0
O2526 O 0.09416 0.53369 0.1619 0.0
O2527 O 0.05161 0.51179 0.15911 0.0
H2528 H 0.03122 0.58084 0.14962 0.0
H2529 H 0.05498 0.57303 0.18351 0.0
H2530 H 0.01335 0.61174 0.15619 0.0
H2531 H 0.03689 0.6042 0.18945 0.0
H2532 H 0.05614 0.49526 0.11176 0.0
H2533 H 0.10175 0.54674 0.12824 0.0
H2534 H 0.04596 0.5131 0.12949 0.0
H2535 H 0.11101 0.52825 0.11057 0.0
H2536 H 0.08996 0.62912 0.14741 0.0
H2537 H 0.14067 0.58992 0.13975 0.0
H2538 H 0.97022 0.53904 0.15244 0.0
H2539 H 0.99828 0.5613 0.12155 0.0
H2540 H 0.13064 0.51999 0.16678 0.0
H2541 H 0.08772 0.56745 0.17372 0.0
H2542 H 0.15458 0.53625 0.18031 0.0
H2543 H 0.11229 0.58282 0.18712 0.0
H2544 H 0.08518 0.49652 0.16826 0.0
H2545 H 0.02173 0.48591 0.16229 0.0
H2546 H 0.08722 0.46349 0.1782 0.0
H2547 H 0.0249 0.45295 0.17234 0.0
H2548 H 0.0281 0.52851 0.20496 0.0
H2549 H 0.09092 0.51032 0.20666 0.0
H2550 H 0.13967 0.48727 0.13756 0.0
H2551 H 0.0866 0.44898 0.13541 0.0
Li2552 Li 0.22666 0.32642 0.90108 0.0
Li2553 Li 0.2132 0.31576 0.91873 0.0
Li2554 Li 0.20759 0.29554 0.90154 0.0
Li2555 Li 0.19108 0.3289 0.90408 0.0
C2556 C 0.25186 0.30123 0.91467 0.0
N2557 N 0.28857 0.30126 0.92597 0.0
C2558 C 0.26035 0.31945 0.91841 0.0
C2559 C 0.26203 0.28303 0.9167 0.0
C2560 C 0.27892 0.31915 0.9241 0.0
C2561 C 0.28059 0.28336 0.92242 0.0
C2562 C 0.20372 0.35656 0.91984 0.0
C2563 C 0.17841 0.36395 0.93408 0.0
N2564 N 0.18579 0.38311 0.93499 0.0
C2565 C 0.21102 0.37632 0.92091 0.0
C2566 C 0.18726 0.3503 0.92647 0.0
C2567 C 0.20176 0.38952 0.92862 0.0
C2568 C 0.245 0.36059 0.89228 0.0
N2569 N 0.24843 0.34061 0.89416 0.0
C2570 C 0.28244 0.34366 0.88745 0.0
C2571 C 0.26655 0.33187 0.89166 0.0
C2572 C 0.27953 0.36453 0.88575 0.0
C2573 C 0.26036 0.37287 0.88801 0.0
H2574 H 0.23034 0.36701 0.89424 0.0
H2575 H 0.26879 0.31587 0.89316 0.0
C2576 C 0.21293 0.29769 0.94065 0.0
N2577 N 0.21869 0.31426 0.9346 0.0
C2578 C 0.2184 0.29582 0.95212 0.0
C2579 C 0.23541 0.32818 0.95084 0.0
C2580 C 0.22952 0.32947 0.93947 0.0
C2581 C 0.23005 0.31109 0.95727 0.0
H2582 H 0.20447 0.28575 0.9365 0.0
H2583 H 0.23402 0.34244 0.93447 0.0
C2584 C 0.21462 0.32088 0.88033 0.0
N2585 N 0.23564 0.32761 0.86033 0.0
C2586 C 0.20952 0.33723 0.87334 0.0
C2587 C 0.23031 0.30786 0.87711 0.0
C2588 C 0.22036 0.3404 0.86327 0.0
C2589 C 0.24078 0.31154 0.86698 0.0
C2590 C 0.16941 0.29409 0.91149 0.0
C2591 C 0.16177 0.29271 0.90039 0.0
C2592 C 0.15878 0.28523 0.92049 0.0
C2593 C 0.14355 0.28251 0.89851 0.0
C2594 C 0.14059 0.27518 0.91826 0.0
N2595 N 0.13342 0.27403 0.90741 0.0
C2596 C 0.20352 0.25319 0.90324 0.0
C2597 C 0.19856 0.26645 0.88467 0.0
C2598 C 0.19809 0.23383 0.89952 0.0
N2599 N 0.20346 0.269 0.89582 0.0
C2600 C 0.19326 0.24736 0.88057 0.0
C2601 C 0.19269 0.23081 0.88807 0.0
H2602 H 0.20717 0.25578 0.91211 0.0
H2603 H 0.198 0.27938 0.87903 0.0
C2604 C 0.17209 0.36234 0.89467 0.0
N2605 N 0.16815 0.34551 0.90094 0.0
C2606 C 0.15636 0.37506 0.89125 0.0
C2607 C 0.13287 0.35346 0.90133 0.0
C2608 C 0.1491 0.34125 0.90462 0.0
C2609 C 0.13634 0.37044 0.89436 0.0
H2610 H 0.18751 0.36577 0.89224 0.0
H2611 H 0.14635 0.32829 0.91 0.0
O2612 O 0.23354 0.30102 0.90922 0.0
O2613 O 0.21266 0.3436 0.91225 0.0
O2614 O 0.20454 0.31776 0.89037 0.0
O2615 O 0.18746 0.30357 0.91355 0.0
H2616 H 0.25266 0.33368 0.91697 0.0
H2617 H 0.25561 0.26878 0.91389 0.0
H2618 H 0.28564 0.33314 0.92705 0.0
H2619 H 0.28862 0.26938 0.92404 0.0
H2620 H 0.16568 0.35931 0.93925 0.0
H2621 H 0.22373 0.3814 0.91583 0.0
H2622 H 0.18134 0.3351 0.92578 0.0
H2623 H 0.20727 0.40486 0.92954 0.0
H2624 H 0.29699 0.33662 0.88586 0.0
H2625 H 0.25729 0.38878 0.88657 0.0
H2626 H 0.21408 0.28236 0.9568 0.0
H2627 H 0.24415 0.34039 0.95455 0.0
H2628 H 0.19733 0.34735 0.87563 0.0
H2629 H 0.23456 0.29523 0.88249 0.0
H2630 H 0.21662 0.35303 0.85779 0.0
H2631 H 0.25305 0.30168 0.86443 0.0
H2632 H 0.16976 0.29949 0.89331 0.0
H2633 H 0.16456 0.28608 0.92911 0.0
H2634 H 0.13746 0.28134 0.88998 0.0
H2635 H 0.13219 0.26825 0.92514 0.0
H2636 H 0.19781 0.22142 0.90556 0.0
H2637 H 0.18879 0.24574 0.87173 0.0
H2638 H 0.15984 0.38829 0.88616 0.0
H2639 H 0.11771 0.34927 0.90393 0.0
Li2640 Li 0.43436 0.46405 0.66804 0.0
Li2641 Li 0.4234 0.4771 0.64962 0.0
Li2642 Li 0.42127 0.4409 0.65406 0.0
Li2643 Li 0.45394 0.45743 0.6507 0.0
C2644 C 0.39501 0.46937 0.67021 0.0
N2645 N 0.37265 0.48211 0.68877 0.0
C2646 C 0.38844 0.48945 0.67092 0.0
C2647 C 0.39008 0.45573 0.67888 0.0
C2648 C 0.37716 0.4956 0.68039 0.0
C2649 C 0.37881 0.46248 0.68821 0.0
C2650 C 0.46659 0.49307 0.65792 0.0
C2651 C 0.49345 0.51002 0.64778 0.0
N2652 N 0.50467 0.51035 0.6575 0.0
C2653 C 0.47835 0.49364 0.66782 0.0
C2654 C 0.47413 0.50139 0.64783 0.0
C2655 C 0.49758 0.50244 0.66743 0.0
C2656 C 0.44131 0.45671 0.69164 0.0
N2657 N 0.43599 0.47076 0.68374 0.0
C2658 C 0.4329 0.49622 0.69808 0.0
C2659 C 0.43196 0.49024 0.6867 0.0
C2660 C 0.43833 0.48207 0.7065 0.0
C2661 C 0.44258 0.46207 0.70314 0.0
H2662 H 0.44472 0.4414 0.68902 0.0
H2663 H 0.42797 0.50112 0.68019 0.0
C2664 C 0.39098 0.49537 0.63822 0.0
N2665 N 0.40977 0.49888 0.6425 0.0
C2666 C 0.37976 0.51119 0.63354 0.0
C2667 C 0.40727 0.53406 0.63799 0.0
C2668 C 0.41809 0.5177 0.64245 0.0
C2669 C 0.38782 0.53086 0.63351 0.0
H2670 H 0.38454 0.48034 0.63868 0.0
H2671 H 0.43291 0.5201 0.64611 0.0
C2672 C 0.44802 0.41803 0.66478 0.0
N2673 N 0.44966 0.3765 0.66747 0.0
C2674 C 0.46202 0.4066 0.65857 0.0
C2675 C 0.43499 0.40837 0.67243 0.0
C2676 C 0.46259 0.38561 0.66004 0.0
C2677 C 0.43601 0.38735 0.67364 0.0
C2678 C 0.4234 0.45886 0.62967 0.0
C2679 C 0.40557 0.44961 0.62591 0.0
C2680 C 0.43256 0.47378 0.62298 0.0
C2681 C 0.39709 0.45559 0.61554 0.0
C2682 C 0.42359 0.47937 0.61267 0.0
N2683 N 0.40619 0.47024 0.60919 0.0
C2684 C 0.3867 0.41516 0.65448 0.0
C2685 C 0.41533 0.4025 0.6446 0.0
C2686 C 0.37534 0.39818 0.65134 0.0
N2687 N 0.40627 0.41697 0.65105 0.0
C2688 C 0.40468 0.38518 0.64142 0.0
C2689 C 0.38428 0.38295 0.64463 0.0
H2690 H 0.37973 0.42714 0.65939 0.0
H2691 H 0.43076 0.40459 0.64177 0.0
C2692 C 0.49668 0.45281 0.65137 0.0
N2693 N 0.48013 0.45307 0.64448 0.0
C2694 C 0.51569 0.44798 0.64691 0.0
C2695 C 0.50019 0.44355 0.62842 0.0
C2696 C 0.48155 0.44868 0.6332 0.0
C2697 C 0.51759 0.44294 0.63531 0.0
H2698 H 0.49503 0.45589 0.66037 0.0
H2699 H 0.46808 0.4485 0.62798 0.0
O2700 O 0.40638 0.46315 0.66112 0.0
O2701 O 0.44781 0.48435 0.6581 0.0
O2702 O 0.44704 0.43856 0.66334 0.0
O2703 O 0.43178 0.45344 0.63989 0.0
H2704 H 0.39217 0.50023 0.66431 0.0
H2705 H 0.39506 0.44014 0.67845 0.0
H2706 H 0.37206 0.51112 0.68109 0.0
H2707 H 0.375 0.45212 0.69502 0.0
H2708 H 0.49953 0.51641 0.64001 0.0
H2709 H 0.47279 0.4872 0.6757 0.0
H2710 H 0.46522 0.50105 0.64009 0.0
H2711 H 0.50689 0.50292 0.67501 0.0
H2712 H 0.42921 0.51172 0.70027 0.0
H2713 H 0.44714 0.45074 0.7093 0.0
H2714 H 0.36465 0.50822 0.63036 0.0
H2715 H 0.41393 0.54904 0.63813 0.0
H2716 H 0.47221 0.41382 0.6526 0.0
H2717 H 0.42405 0.41699 0.67728 0.0
H2718 H 0.47327 0.37656 0.65525 0.0
H2719 H 0.42591 0.37966 0.67947 0.0
H2720 H 0.39824 0.43807 0.63099 0.0
H2721 H 0.44635 0.4811 0.62578 0.0
H2722 H 0.38325 0.44863 0.61254 0.0
H2723 H 0.43045 0.49098 0.60744 0.0
H2724 H 0.3596 0.39731 0.65386 0.0
H2725 H 0.41235 0.37375 0.63641 0.0
H2726 H 0.52868 0.44789 0.65254 0.0
H2727 H 0.50077 0.43933 0.61951 0.0
Li2728 Li 0.26841 0.67281 0.40051 0.0
Li2729 Li 0.28393 0.68143 0.41789 0.0
Li2730 Li 0.29009 0.70258 0.40099 0.0
Li2731 Li 0.30496 0.66653 0.40296 0.0
C2732 C 0.24479 0.70243 0.41089 0.0
N2733 N 0.20427 0.71083 0.41427 0.0
C2734 C 0.23316 0.69012 0.41803 0.0
C2735 C 0.23591 0.71915 0.40557 0.0
C2736 C 0.21267 0.69457 0.4196 0.0
C2737 C 0.21536 0.72311 0.40737 0.0
C2738 C 0.27906 0.63874 0.41836 0.0
C2739 C 0.29179 0.611 0.42965 0.0
N2740 N 0.27264 0.60706 0.4333 0.0
C2741 C 0.25948 0.63426 0.42211 0.0
C2742 C 0.29534 0.6269 0.42205 0.0
C2743 C 0.25656 0.61824 0.42971 0.0
C2744 C 0.2465 0.64014 0.39251 0.0
N2745 N 0.24521 0.66056 0.39368 0.0
C2746 C 0.21214 0.66062 0.38538 0.0
C2747 C 0.22862 0.67096 0.39006 0.0
C2748 C 0.21301 0.63948 0.38423 0.0
C2749 C 0.23053 0.62925 0.38777 0.0
H2750 H 0.26 0.63228 0.39528 0.0
H2751 H 0.22818 0.68725 0.39071 0.0
C2752 C 0.26991 0.70001 0.43796 0.0
N2753 N 0.2798 0.68333 0.43405 0.0
C2754 C 0.26519 0.70189 0.44951 0.0
C2755 C 0.28163 0.66976 0.45291 0.0
C2756 C 0.28615 0.66859 0.44131 0.0
C2757 C 0.27074 0.68643 0.4571 0.0
H2758 H 0.26544 0.71178 0.43207 0.0
H2759 H 0.29473 0.65591 0.43815 0.0
C2760 C 0.28127 0.67587 0.37973 0.0
N2761 N 0.26035 0.66704 0.35996 0.0
C2762 C 0.28404 0.65722 0.37433 0.0
C2763 C 0.26793 0.69007 0.37507 0.0
C2764 C 0.2733 0.65303 0.36434 0.0
C2765 C 0.25749 0.68531 0.36507 0.0
C2766 C 0.32003 0.69459 0.42227 0.0
C2767 C 0.31869 0.71342 0.42764 0.0
C2768 C 0.33029 0.6787 0.42763 0.0
C2769 C 0.32757 0.71604 0.43835 0.0
C2770 C 0.339 0.68193 0.43833 0.0
N2771 N 0.33745 0.70037 0.44342 0.0
C2772 C 0.29343 0.74536 0.40175 0.0
C2773 C 0.30272 0.72995 0.38425 0.0
C2774 C 0.29905 0.76439 0.39759 0.0
N2775 N 0.29562 0.72865 0.39509 0.0
C2776 C 0.30818 0.74867 0.37969 0.0
C2777 C 0.30664 0.76613 0.38645 0.0
H2778 H 0.28768 0.74383 0.41033 0.0
H2779 H 0.30454 0.71636 0.37921 0.0
C2780 C 0.32396 0.63086 0.39508 0.0
N2781 N 0.32721 0.64991 0.39907 0.0
C2782 C 0.34029 0.61884 0.39167 0.0
C2783 C 0.36293 0.64617 0.39678 0.0
C2784 C 0.34618 0.65771 0.39999 0.0
C2785 C 0.36008 0.62653 0.39247 0.0
H2786 H 0.30866 0.62511 0.39446 0.0
H2787 H 0.34825 0.67299 0.40308 0.0
O2788 O 0.26487 0.69838 0.40923 0.0
O2789 O 0.28224 0.65417 0.4108 0.0
O2790 O 0.29111 0.68001 0.38971 0.0
O2791 O 0.31088 0.69152 0.41197 0.0
H2792 H 0.23992 0.67734 0.42234 0.0
H2793 H 0.24478 0.72888 0.40007 0.0
H2794 H 0.20347 0.68514 0.42507 0.0
H2795 H 0.20824 0.73593 0.40326 0.0
H2796 H 0.30426 0.60182 0.43265 0.0
H2797 H 0.24666 0.64292 0.41911 0.0
H2798 H 0.31058 0.63009 0.41918 0.0
H2799 H 0.2415 0.61464 0.43271 0.0
H2800 H 0.19896 0.66904 0.38259 0.0
H2801 H 0.23172 0.61293 0.38709 0.0
H2802 H 0.25681 0.71501 0.45242 0.0
H2803 H 0.28659 0.65775 0.45854 0.0
H2804 H 0.29423 0.64604 0.37786 0.0
H2805 H 0.26543 0.70448 0.37924 0.0
H2806 H 0.27521 0.63862 0.36009 0.0
H2807 H 0.24702 0.6961 0.3614 0.0
H2808 H 0.31069 0.72582 0.42364 0.0
H2809 H 0.33124 0.66395 0.42365 0.0
H2810 H 0.32656 0.7305 0.44264 0.0
H2811 H 0.34688 0.66975 0.4426 0.0
H2812 H 0.29761 0.77757 0.40303 0.0
H2813 H 0.31424 0.7494 0.37112 0.0
H2814 H 0.33749 0.60372 0.38846 0.0
H2815 H 0.37792 0.65276 0.39737 0.0
C2816 C 0.44905 0.97883 0.27124 0.0
C2817 C 0.43627 0.98895 0.2789 0.0
C2818 C 0.44947 0.98409 0.25965 0.0
C2819 C 0.4368 -0.00015 0.25564 0.0
C2820 C 0.42397 0.01022 0.26334 0.0
C2821 C 0.42384 0.00463 0.27487 0.0
C2822 C 0.46336 0.97271 0.25168 0.0
C2823 C 0.41017 0.02704 0.25937 0.0
C2824 C 0.44892 0.02522 0.22738 0.0
C2825 C 0.43519 0.01563 0.22004 0.0
C2826 C 0.44972 0.02016 0.239 0.0
C2827 C 0.4365 0.00512 0.24333 0.0
C2828 C 0.42275 0.99528 0.23593 0.0
C2829 C 0.42227 0.00064 0.22438 0.0
C2830 C 0.46453 0.03102 0.24666 0.0
C2831 C 0.40848 0.9791 0.24023 0.0
H2832 H 0.45888 0.96688 0.27433 0.0
H2833 H 0.41371 0.01232 0.28072 0.0
H2834 H 0.45435 0.96513 0.24494 0.0
H2835 H 0.4738 0.98343 0.24738 0.0
H2836 H 0.47251 0.96108 0.25619 0.0
H2837 H 0.40156 0.034 0.26651 0.0
H2838 H 0.41913 0.03903 0.25509 0.0
H2839 H 0.39922 0.02108 0.25303 0.0
H2840 H 0.45882 0.03692 0.22408 0.0
H2841 H 0.41187 0.99293 0.2187 0.0
H2842 H 0.47461 0.01991 0.25091 0.0
H2843 H 0.45622 0.03923 0.25345 0.0
H2844 H 0.47404 0.04205 0.24191 0.0
H2845 H 0.41723 0.96655 0.24414 0.0
H2846 H 0.39883 0.97279 0.23334 0.0
H2847 H 0.39851 0.98544 0.24695 0.0
C2848 C 0.24196 0.192 0.52499 0.0
C2849 C 0.26201 0.18775 0.52807 0.0
C2850 C 0.23614 0.19261 0.51351 0.0
C2851 C 0.25063 0.18838 0.50494 0.0
C2852 C 0.27097 0.18424 0.50802 0.0
C2853 C 0.27647 0.18421 0.51958 0.0
C2854 C 0.21443 0.19755 0.51055 0.0
C2855 C 0.28674 0.17925 0.49914 0.0
C2856 C 0.23045 0.16868 0.47677 0.0
C2857 C 0.23223 0.18575 0.4697 0.0
C2858 C 0.23666 0.16927 0.48819 0.0
C2859 C 0.24432 0.18753 0.49279 0.0
C2860 C 0.2458 0.20494 0.48581 0.0
C2861 C 0.23999 0.20378 0.47433 0.0
C2862 C 0.23509 0.1503 0.49533 0.0
C2863 C 0.25355 0.22479 0.49049 0.0
H2864 H 0.23086 0.19489 0.53161 0.0
H2865 H 0.29194 0.1808 0.52201 0.0
H2866 H 0.2139 0.21029 0.50439 0.0
H2867 H 0.2072 0.18431 0.50639 0.0
H2868 H 0.20538 0.20171 0.51818 0.0
H2869 H 0.30196 0.17678 0.50293 0.0
H2870 H 0.28223 0.16536 0.49446 0.0
H2871 H 0.28781 0.19167 0.4928 0.0
H2872 H 0.22411 0.15479 0.4734 0.0
H2873 H 0.24181 0.21698 0.46894 0.0
H2874 H 0.22462 0.15287 0.50258 0.0
H2875 H 0.25012 0.14646 0.49897 0.0
H2876 H 0.22953 0.13712 0.49035 0.0
H2877 H 0.24437 0.22942 0.49797 0.0
H2878 H 0.25306 0.23713 0.48405 0.0
H2879 H 0.2694 0.223 0.49345 0.0
C2880 C 0.04591 0.02276 0.77135 0.0
C2881 C 0.06321 0.0188 0.77791 0.0
C2882 C 0.04509 0.01728 0.7598 0.0
C2883 C 0.062 0.00769 0.75471 0.0
C2884 C 0.07962 0.00398 0.76124 0.0
C2885 C 0.08001 0.00957 0.77276 0.0
C2886 C 0.02603 0.02146 0.75309 0.0
C2887 C 0.09803 0.99394 0.75608 0.0
C2888 C 0.05506 0.97557 0.72815 0.0
C2889 C 0.06199 0.98868 0.71959 0.0
C2890 C 0.05462 0.9817 0.7396 0.0
C2891 C 0.06129 0.00139 0.74255 0.0
C2892 C 0.06796 0.01481 0.73394 0.0
C2893 C 0.06819 0.00831 0.72256 0.0
C2894 C 0.04742 0.96696 0.74857 0.0
C2895 C 0.07514 0.03594 0.73676 0.0
H2896 H 0.03282 0.02971 0.77533 0.0
H2897 H 0.09353 0.00675 0.77776 0.0
H2898 H 0.0296 0.03079 0.74549 0.0
H2899 H 0.0195 0.00699 0.74998 0.0
H2900 H 0.01439 0.02945 0.75824 0.0
H2901 H 0.11062 0.99236 0.7623 0.0
H2902 H 0.09396 0.97867 0.75287 0.0
H2903 H 0.1035 0.00288 0.7487 0.0
H2904 H 0.05042 0.96033 0.72592 0.0
H2905 H 0.07322 0.01864 0.71597 0.0
H2906 H 0.035 0.97381 0.75364 0.0
H2907 H 0.05997 0.9635 0.75454 0.0
H2908 H 0.0419 0.95253 0.74481 0.0
H2909 H 0.06315 0.0443 0.74142 0.0
H2910 H 0.0793 0.04471 0.72902 0.0
H2911 H 0.08854 0.03515 0.74244 0.0
C2912 C 0.2768 0.81767 0.97732 0.0
C2913 C 0.26308 0.81187 0.9688 0.0
C2914 C 0.27111 0.81766 0.98885 0.0
C2915 C 0.25122 0.81177 0.99191 0.0
C2916 C 0.23739 0.80566 0.98337 0.0
C2917 C 0.24351 0.80572 0.97193 0.0
C2918 C 0.28628 0.82424 0.99774 0.0
C2919 C 0.21606 0.79927 0.98631 0.0
C2920 C 0.24088 0.79604 0.02251 0.0
C2921 C 0.23256 0.81381 0.02708 0.0
C2922 C 0.24703 0.79514 0.01107 0.0
C2923 C 0.24471 0.81241 0.00404 0.0
C2924 C 0.23612 0.83032 0.00857 0.0
C2925 C 0.23018 0.83081 0.02004 0.0
C2926 C 0.25621 0.77581 0.00653 0.0
C2927 C 0.23325 0.84899 0.00131 0.0
H2928 H 0.29186 0.82266 0.97496 0.0
H2929 H 0.23294 0.80088 0.96541 0.0
H2930 H 0.28065 0.83795 0.0022 0.0
H2931 H 0.28813 0.81221 0.00426 0.0
H2932 H 0.30134 0.82769 0.994 0.0
H2933 H 0.20724 0.79471 0.97866 0.0
H2934 H 0.21638 0.78638 0.99237 0.0
H2935 H 0.20801 0.81191 0.99059 0.0
H2936 H 0.24299 0.78294 0.02795 0.0
H2937 H 0.22353 0.8445 0.02351 0.0
H2938 H 0.27183 0.77875 0.00347 0.0
H2939 H 0.24732 0.77025 -0.00085 0.0
H2940 H 0.25678 0.76367 0.01308 0.0
H2941 H 0.24807 0.85413 0.99793 0.0
H2942 H 0.22624 0.86166 0.00612 0.0
H2943 H 0.2235 0.84538 0.99388 0.0
C2944 C 0.57129 0.97695 0.7695 0.0
C2945 C 0.55542 0.98034 0.77721 0.0
C2946 C 0.5701 0.98383 0.75822 0.0
C2947 C 0.55254 0.99423 0.75453 0.0
C2948 C 0.53624 0.99726 0.76217 0.0
C2949 C 0.53789 0.99032 0.77344 0.0
C2950 C 0.58779 0.98026 0.7503 0.0
C2951 C 0.51725 0.0082 0.75851 0.0
C2952 C 0.55905 0.02881 0.72896 0.0
C2953 C 0.55221 0.01645 0.72003 0.0
C2954 C 0.55884 0.02192 0.74027 0.0
C2955 C 0.5515 0.00225 0.74271 0.0
C2956 C 0.54405 0.98991 0.73379 0.0
C2957 C 0.54456 0.99713 0.72256 0.0
C2958 C 0.56692 0.0355 0.74957 0.0
C2959 C 0.53606 0.96887 0.73607 0.0
H2960 H 0.58474 0.96898 0.77231 0.0
H2961 H 0.52567 0.99322 0.77939 0.0
H2962 H 0.58272 0.97184 0.74263 0.0
H2963 H 0.59394 0.99499 0.74735 0.0
H2964 H 0.60018 0.9716 0.75445 0.0
H2965 H 0.50559 0.00852 0.76534 0.0
H2966 H 0.52098 0.02402 0.75612 0.0
H2967 H 0.51068 0.00081 0.75087 0.0
H2968 H 0.56471 0.04385 0.72709 0.0
H2969 H 0.53952 0.98736 0.7157 0.0
H2970 H 0.58036 0.02837 0.75358 0.0
H2971 H 0.55536 0.0375 0.75633 0.0
H2972 H 0.57135 0.05067 0.74631 0.0
H2973 H 0.54846 0.95912 0.73932 0.0
H2974 H 0.52961 0.96172 0.72831 0.0
H2975 H 0.52417 0.96936 0.74275 0.0
C2976 C 0.72728 0.7903 0.47706 0.0
C2977 C 0.72977 0.80809 0.47069 0.0
C2978 C 0.73299 0.78951 0.48857 0.0
C2979 C 0.74156 0.80686 0.49377 0.0
C2980 C 0.74418 0.82482 0.48735 0.0
C2981 C 0.73817 0.82524 0.4759 0.0
C2982 C 0.72974 0.77018 0.4952 0.0
C2983 C 0.75345 0.84357 0.49257 0.0
C2984 C 0.74003 0.81347 0.52585 0.0
C2985 C 0.75977 0.80793 0.52896 0.0
C2986 C 0.73374 0.81266 0.51445 0.0
C2987 C 0.74761 0.80639 0.50596 0.0
C2988 C 0.76747 0.80047 0.50908 0.0
C2989 C 0.77328 0.80119 0.52058 0.0
C2990 C 0.71236 0.81883 0.51148 0.0
C2991 C 0.78273 0.79391 0.50023 0.0
H2992 H 0.72065 0.77708 0.47306 0.0
H2993 H 0.74038 0.83892 0.47094 0.0
H2994 H 0.74439 0.76462 0.4986 0.0
H2995 H 0.71971 0.77312 0.5026 0.0
H2996 H 0.72286 0.75805 0.4899 0.0
H2997 H 0.75472 0.8562 0.48636 0.0
H2998 H 0.74415 0.84873 0.49988 0.0
H2999 H 0.76878 0.84005 0.4959 0.0
H3000 H 0.72949 0.81843 0.53237 0.0
H3001 H 0.78858 0.79703 0.52298 0.0
H3002 H 0.70478 0.80657 0.50662 0.0
H3003 H 0.71264 0.83243 0.50593 0.0
H3004 H 0.70316 0.82232 0.51916 0.0
H3005 H 0.77661 0.78115 0.49514 0.0
H3006 H 0.79732 0.78913 0.5041 0.0
H3007 H 0.78571 0.80657 0.49425 0.0
C3008 C 0.96086 0.0001 0.27446 0.0
C3009 C 0.94521 0.01334 0.27757 0.0
C3010 C 0.96265 0.99307 0.26321 0.0
C3011 C 0.94857 -0.00035 0.2549 0.0
C3012 C 0.93323 0.01364 0.25792 0.0
C3013 C 0.93166 0.02021 0.26924 0.0
C3014 C 0.97906 0.978 0.26033 0.0
C3015 C 0.9181 0.02124 0.24926 0.0
C3016 C 0.95875 0.9938 0.22321 0.0
C3017 C 0.94596 0.97758 0.22048 0.0
C3018 C 0.9603 0.0008 0.23448 0.0
C3019 C 0.94902 0.99112 0.24318 0.0
C3020 C 0.93688 0.97408 0.24051 0.0
C3021 C 0.93535 0.96764 0.22916 0.0
C3022 C 0.97319 0.01916 0.23697 0.0
C3023 C 0.92488 0.96314 0.24958 0.0
H3024 H 0.97124 0.99465 0.28093 0.0
H3025 H 0.91969 0.03062 0.27162 0.0
H3026 H 0.97208 0.9633 0.25797 0.0
H3027 H 0.9879 0.98328 0.25286 0.0
H3028 H 0.9896 0.97545 0.26757 0.0
H3029 H 0.908 0.03313 0.25281 0.0
H3030 H 0.9261 0.02753 0.24173 0.0
H3031 H 0.90859 0.00848 0.24623 0.0
H3032 H 0.9668 0.00159 0.21646 0.0
H3033 H 0.92557 0.955 0.22703 0.0
H3034 H 0.98359 0.01606 0.24418 0.0
H3035 H 0.96331 0.03197 0.23954 0.0
H3036 H 0.98228 0.0239 0.22946 0.0
H3037 H 0.93483 0.95908 0.25685 0.0
H3038 H 0.91766 0.94912 0.24628 0.0
H3039 H 0.91284 0.97325 0.25291 0.0
C3040 C 0.77215 0.19602 0.97678 0.0
C3041 C 0.75821 0.19015 0.96839 0.0
C3042 C 0.76667 0.19634 0.98834 0.0
C3043 C 0.7468 0.19066 0.99157 0.0
C3044 C 0.73252 0.18525 0.98311 0.0
C3045 C 0.73838 0.1851 0.97163 0.0
C3046 C 0.78232 0.2022 0.99713 0.0
C3047 C 0.71117 0.17917 0.98622 0.0
C3048 C 0.73902 0.17027 0.02147 0.0
C3049 C 0.7308 0.1871 0.0271 0.0
C3050 C 0.74423 0.17123 0.0099 0.0
C3051 C 0.74119 0.18949 0.00382 0.0
C3052 C 0.73276 0.2065 0.00942 0.0
C3053 C 0.7276 0.20509 0.02101 0.0
C3054 C 0.753 0.1527 0.0042 0.0
C3055 C 0.72938 0.22624 0.00321 0.0
H3056 H 0.78753 0.19977 0.97434 0.0
H3057 H 0.72744 0.18089 0.96516 0.0
H3058 H 0.77641 0.21452 0.00263 0.0
H3059 H 0.78557 0.18906 0.00273 0.0
H3060 H 0.79673 0.2073 0.99318 0.0
H3061 H 0.70167 0.17616 0.97859 0.0
H3062 H 0.71149 0.1653 0.99155 0.0
H3063 H 0.70387 0.19126 0.99134 0.0
H3064 H 0.74127 0.15627 0.02613 0.0
H3065 H 0.72145 0.2182 0.02536 0.0
H3066 H 0.76825 0.15621 0.00074 0.0
H3067 H 0.74334 0.14815 0.9969 0.0
H3068 H 0.75434 0.13966 0.01013 0.0
H3069 H 0.74401 0.23205 -0.0001 0.0
H3070 H 0.72252 0.238 0.00878 0.0
H3071 H 0.71932 0.22379 0.99577 0.0
C3072 C 0.91716 0.50642 0.72372 0.0
C3073 C 0.93369 0.5166 0.71888 0.0
C3074 C 0.91712 0.50102 0.73528 0.0
C3075 C 0.93407 0.50582 0.74215 0.0
C3076 C 0.95075 0.51625 0.73733 0.0
C3077 C 0.95032 0.5216 0.72575 0.0
C3078 C 0.89894 0.49013 0.74013 0.0
C3079 C 0.96915 0.5215 0.74438 0.0
C3080 C 0.92623 0.50701 0.77418 0.0
C3081 C 0.93332 0.48783 0.77745 0.0
C3082 C 0.92657 0.51314 0.76274 0.0
C3083 C 0.93433 0.49983 0.75436 0.0
C3084 C 0.94181 0.48058 0.7576 0.0
C3085 C 0.94118 0.47479 0.76911 0.0
C3086 C 0.91844 0.53378 0.7596 0.0
C3087 C 0.95022 0.46599 0.7489 0.0
H3088 H 0.90416 0.50278 0.71846 0.0
H3089 H 0.9632 0.5293 0.72201 0.0
H3090 H 0.90359 0.47517 0.74354 0.0
H3091 H 0.89253 0.49892 0.74734 0.0
H3092 H 0.88687 0.48776 0.73368 0.0
H3093 H 0.98075 0.52984 0.73938 0.0
H3094 H 0.96465 0.53092 0.75179 0.0
H3095 H 0.9761 0.50746 0.7478 0.0
H3096 H 0.92047 0.51732 0.7806 0.0
H3097 H 0.94649 0.45988 0.77154 0.0
H3098 H 0.90556 0.53214 0.7536 0.0
H3099 H 0.9303 0.54271 0.75519 0.0
H3100 H 0.91319 0.54243 0.76717 0.0
H3101 H 0.93822 0.46181 0.74271 0.0
H3102 H 0.95617 0.45192 0.75287 0.0
H3103 H 0.96261 0.4733 0.74401 0.0
C3104 C 0.75354 0.69577 0.02201 0.0
C3105 C 0.76727 0.68102 0.02582 0.0
C3106 C 0.7475 0.69659 0.01056 0.0
C3107 C 0.75528 0.68226 0.00273 0.0
C3108 C 0.76917 0.66737 0.0065 0.0
C3109 C 0.77504 0.66696 0.01799 0.0
C3110 C 0.73268 0.71272 0.00684 0.0
C3111 C 0.7778 0.65183 0.9984 0.0
C3112 C 0.72616 0.67215 0.97541 0.0
C3113 C 0.73743 0.68325 0.96744 0.0
C3114 C 0.73174 0.67177 0.98695 0.0
C3115 C 0.74892 0.68285 0.99059 0.0
C3116 C 0.76018 0.69431 0.98261 0.0
C3117 C 0.75432 0.69434 0.97112 0.0
C3118 C 0.71944 0.65928 0.99521 0.0
C3119 C 0.77848 0.70646 0.98619 0.0
H3120 H 0.74721 0.70648 0.02803 0.0
H3121 H 0.78585 0.65569 0.02083 0.0
H3122 H 0.73937 0.72196 -0.0001 0.0
H3123 H 0.71878 0.70554 0.00339 0.0
H3124 H 0.72833 0.72296 0.01394 0.0
H3125 H 0.78832 0.64116 0.0027 0.0
H3126 H 0.76535 0.64299 0.99445 0.0
H3127 H 0.78607 0.65952 0.9914 0.0
H3128 H 0.71324 0.66338 0.97257 0.0
H3129 H 0.76291 0.70315 0.96501 0.0
H3130 H 0.71377 0.66898 0.00224 0.0
H3131 H 0.72914 0.64743 -0.0009 0.0
H3132 H 0.7063 0.65181 0.99105 0.0
H3133 H 0.77419 0.7175 0.9929 0.0
H3134 H 0.78539 0.71483 0.97896 0.0
H3135 H 0.79009 0.69626 0.98991 0.0
C3136 C 0.57617 0.52584 0.26975 0.0
C3137 C 0.56333 0.51644 0.27767 0.0
C3138 C 0.57585 0.52031 0.25822 0.0
C3139 C 0.56229 0.50509 0.2545 0.0
C3140 C 0.54907 0.49575 0.2624 0.0
C3141 C 0.54978 0.50151 0.27391 0.0
C3142 C 0.59016 0.53063 0.25002 0.0
C3143 C 0.53437 0.47949 0.25874 0.0
C3144 C 0.54992 0.5032 0.22293 0.0
C3145 C 0.5627 0.48762 0.21915 0.0
C3146 C 0.54945 0.50889 0.23445 0.0
C3147 C 0.56212 0.4988 0.24234 0.0
C3148 C 0.57491 0.48292 0.2386 0.0
C3149 C 0.57501 0.47749 0.22704 0.0
C3150 C 0.53551 0.52579 0.23815 0.0
C3151 C 0.58871 0.47189 0.24677 0.0
H3152 H 0.58648 0.53759 0.27258 0.0
H3153 H 0.54001 0.49398 0.28 0.0
H3154 H 0.60026 0.51925 0.24601 0.0
H3155 H 0.58147 0.538 0.24308 0.0
H3156 H 0.59968 0.54227 0.25427 0.0
H3157 H 0.52468 0.47418 0.26588 0.0
H3158 H 0.52446 0.48526 0.25183 0.0
H3159 H 0.5428 0.46634 0.25526 0.0
H3160 H 0.54019 0.51089 0.21688 0.0
H3161 H 0.58507 0.4656 0.22412 0.0
H3162 H 0.5445 0.53838 0.24184 0.0
H3163 H 0.52511 0.52031 0.2449 0.0
H3164 H 0.52633 0.53182 0.23098 0.0
H3165 H 0.59957 0.48272 0.25063 0.0
H3166 H 0.59741 0.45961 0.24253 0.0
H3167 H 0.57973 0.46521 0.25382 0.0
C3168 C 0.75632 0.30498 0.52464 0.0
C3169 C 0.73651 0.31026 0.52769 0.0
C3170 C 0.76218 0.30419 0.51317 0.0
C3171 C 0.74798 0.30928 0.5046 0.0
C3172 C 0.72787 0.31444 0.50765 0.0
C3173 C 0.72231 0.31465 0.51919 0.0
C3174 C 0.78362 0.29817 0.51023 0.0
C3175 C 0.71243 0.32034 0.49876 0.0
C3176 C 0.76874 0.3287 0.47652 0.0
C3177 C 0.766 0.31193 0.46932 0.0
C3178 C 0.76282 0.32805 0.48799 0.0
C3179 C 0.7544 0.31004 0.49247 0.0
C3180 C 0.75203 0.29289 0.48537 0.0
C3181 C 0.75766 0.2941 0.47385 0.0
C3182 C 0.76541 0.34673 0.49527 0.0
C3183 C 0.7434 0.27331 0.48991 0.0
H3184 H 0.76721 0.30142 0.53126 0.0
H3185 H 0.70703 0.31886 0.52161 0.0
H3186 H 0.78353 0.28553 0.50399 0.0
H3187 H 0.79156 0.31109 0.50616 0.0
H3188 H 0.79239 0.29342 0.51785 0.0
H3189 H 0.69733 0.32351 0.50253 0.0
H3190 H 0.71766 0.33406 0.49416 0.0
H3191 H 0.7108 0.30809 0.49236 0.0
H3192 H 0.77555 0.34241 0.4732 0.0
H3193 H 0.75516 0.28115 0.46836 0.0
H3194 H 0.77559 0.34339 0.50255 0.0
H3195 H 0.75057 0.35136 0.49887 0.0
H3196 H 0.7718 0.35968 0.49041 0.0
H3197 H 0.75228 0.26817 0.4974 0.0
H3198 H 0.74342 0.26107 0.48342 0.0
H3199 H 0.72761 0.27574 0.49284 0.0
C3200 C 0.0643 0.46916 0.26884 0.0
C3201 C 0.05495 0.48065 0.2774 0.0
C3202 C 0.0635 0.47524 0.2574 0.0
C3203 C 0.05321 0.49332 0.25447 0.0
C3204 C 0.04325 0.50468 0.26303 0.0
C3205 C 0.0442 0.49817 0.2744 0.0
C3206 C 0.07416 0.46262 0.2485 0.0
C3207 C 0.03223 0.52409 0.26023 0.0
C3208 C 0.0715 0.5195 0.22762 0.0
C3209 C 0.05685 0.51354 0.21966 0.0
C3210 C 0.07021 0.5134 0.23904 0.0
C3211 C 0.05394 0.50091 0.24256 0.0
C3212 C 0.03886 0.49518 0.23461 0.0
C3213 C 0.04046 0.50163 0.22325 0.0
C3214 C 0.08648 0.52001 0.24729 0.0
C3215 C 0.02137 0.48178 0.23804 0.0
H3216 H 0.07241 0.45547 0.27113 0.0
H3217 H 0.03714 0.50722 0.28101 0.0
H3218 H 0.06356 0.45881 0.24148 0.0
H3219 H 0.0868 0.47144 0.24473 0.0
H3220 H 0.08038 0.44834 0.25207 0.0
H3221 H 0.02414 0.53042 0.26774 0.0
H3222 H 0.0432 0.53554 0.25712 0.0
H3223 H 0.0211 0.52149 0.2533 0.0
H3224 H 0.08405 0.52891 0.22489 0.0
H3225 H 0.02922 0.49684 0.21708 0.0
H3226 H 0.09469 0.50656 0.25056 0.0
H3227 H 0.07955 0.52773 0.25473 0.0
H3228 H 0.09762 0.53043 0.2433 0.0
H3229 H 0.02717 0.46679 0.24079 0.0
H3230 H 0.01042 0.47947 0.23097 0.0
H3231 H 0.01322 0.48847 0.24541 0.0
C3232 C 0.26116 0.32623 0.02202 0.0
C3233 C 0.26905 0.30878 0.02718 0.0
C3234 C 0.25485 0.32602 0.01061 0.0
C3235 C 0.25655 0.30793 0.00421 0.0
C3236 C 0.26464 0.2903 0.00934 0.0
C3237 C 0.27075 0.29092 0.02079 0.0
C3238 C 0.24622 0.34511 0.00545 0.0
C3239 C 0.26683 0.2708 0.00273 0.0
C3240 C 0.2235 0.30335 0.97784 0.0
C3241 C 0.23699 0.30921 0.96924 0.0
C3242 C 0.22974 0.30256 0.98927 0.0
C3243 C 0.24998 0.3076 0.9921 0.0
C3244 C 0.26378 0.31304 0.9834 0.0
C3245 C 0.2571 0.31382 0.97207 0.0
C3246 C 0.21458 0.2968 0.99834 0.0
C3247 C 0.28552 0.31834 0.98607 0.0
H3248 H 0.25953 0.33998 0.02698 0.0
H3249 H 0.27701 0.27745 0.02472 0.0
H3250 H 0.25536 0.3497 0.99795 0.0
H3251 H 0.23057 0.34228 0.0024 0.0
H3252 H 0.24588 0.35789 0.0116 0.0
H3253 H 0.27347 0.25845 0.00796 0.0
H3254 H 0.25182 0.2658 -0.00045 0.0
H3255 H 0.27663 0.27328 0.99517 0.0
H3256 H 0.20792 0.29991 0.97568 0.0
H3257 H 0.26764 0.31806 0.9654 0.0
H3258 H 0.21241 0.30967 0.0043 0.0
H3259 H 0.22036 0.28386 0.00342 0.0
H3260 H 0.19964 0.29261 0.99469 0.0
H3261 H 0.28603 0.33196 0.9916 0.0
H3262 H 0.29453 0.32142 0.97827 0.0
H3263 H 0.2928 0.3058 0.99084 0.0
C3264 C 0.42322 0.52192 0.77002 0.0
C3265 C 0.43976 0.51772 0.77712 0.0
C3266 C 0.42355 0.5167 0.75844 0.0
C3267 C 0.4408 0.50689 0.75387 0.0
C3268 C 0.45772 0.50295 0.76095 0.0
C3269 C 0.45704 0.50851 0.7725 0.0
C3270 C 0.40531 0.52138 0.75113 0.0
C3271 C 0.47632 0.49239 0.7564 0.0
C3272 C 0.43247 0.47522 0.72728 0.0
C3273 C 0.43951 0.4882 0.71868 0.0
C3274 C 0.43313 0.48098 0.73878 0.0
C3275 C 0.44085 0.50027 0.74176 0.0
C3276 C 0.4481 0.5134 0.73315 0.0
C3277 C 0.44743 0.50717 0.72173 0.0
C3278 C 0.4253 0.46654 0.74774 0.0
C3279 C 0.45635 0.53412 0.736 0.0
H3280 H 0.40994 0.52926 0.77355 0.0
H3281 H 0.46977 0.50507 0.778 0.0
H3282 H 0.4099 0.53051 0.74363 0.0
H3283 H 0.39863 0.50709 0.74787 0.0
H3284 H 0.39343 0.52979 0.75589 0.0
H3285 H 0.48846 0.49109 0.76291 0.0
H3286 H 0.47223 0.47695 0.75345 0.0
H3287 H 0.48239 0.5007 0.74893 0.0
H3288 H 0.42606 0.46066 0.725 0.0
H3289 H 0.45323 0.51717 0.71517 0.0
H3290 H 0.41214 0.47337 0.75219 0.0
H3291 H 0.43716 0.46372 0.75424 0.0
H3292 H 0.42055 0.45179 0.74405 0.0
H3293 H 0.44449 0.54327 0.74029 0.0
H3294 H 0.4616 0.54243 0.72832 0.0
H3295 H 0.46921 0.53273 0.74204 0.0
C3296 C 0.25498 0.68296 0.52447 0.0
C3297 C 0.23524 0.68834 0.52768 0.0
C3298 C 0.26106 0.6836 0.51302 0.0
C3299 C 0.24701 0.68965 0.50458 0.0
C3300 C 0.22717 0.69548 0.50778 0.0
C3301 C 0.22154 0.69483 0.51932 0.0
C3302 C 0.28241 0.67746 0.50996 0.0
C3303 C 0.21175 0.70188 0.49899 0.0
C3304 C 0.26717 0.70529 0.47553 0.0
C3305 C 0.26474 0.68738 0.46927 0.0
C3306 C 0.26142 0.7063 0.48704 0.0
C3307 C 0.25288 0.68904 0.49235 0.0
C3308 C 0.25024 0.67097 0.48602 0.0
C3309 C 0.25628 0.67034 0.47457 0.0
C3310 C 0.26466 0.72575 0.49356 0.0
C3311 C 0.24103 0.6523 0.49135 0.0
H3312 H 0.26571 0.67824 0.53094 0.0
H3313 H 0.20622 0.69885 0.52176 0.0
H3314 H 0.28208 0.66382 0.50445 0.0
H3315 H 0.28989 0.6897 0.50503 0.0
H3316 H 0.29175 0.67407 0.5176 0.0
H3317 H 0.19723 0.70674 0.50293 0.0
H3318 H 0.21778 0.71455 0.49379 0.0
H3319 H 0.20865 0.68911 0.4931 0.0
H3320 H 0.27385 0.71844 0.47147 0.0
H3321 H 0.25411 0.65656 0.4697 0.0
H3322 H 0.27489 0.72299 0.50089 0.0
H3323 H 0.25005 0.73124 0.49706 0.0
H3324 H 0.27132 0.73786 0.48816 0.0
H3325 H 0.25044 0.64721 0.49864 0.0
H3326 H 0.23966 0.63959 0.48519 0.0
H3327 H 0.22575 0.65586 0.49474 0.0
C3328 C 0.38339 0.92678 0.12493 0.0
C3329 C 0.37842 0.93825 0.1346 0.0
C3330 C 0.3701 0.91193 0.12076 0.0
C3331 C 0.35139 0.90861 0.12635 0.0
C3332 C 0.34664 0.91963 0.13634 0.0
C3333 C 0.36019 0.93432 0.14033 0.0
C3334 C 0.37572 0.90034 0.11013 0.0
C3335 C 0.32679 0.91661 0.14252 0.0
C3336 C 0.30606 0.89049 0.10945 0.0
C3337 C 0.30445 0.87025 0.11294 0.0
C3338 C 0.32162 0.90294 0.11352 0.0
C3339 C 0.33597 0.89496 0.12127 0.0
C3340 C 0.33475 0.87441 0.12463 0.0
C3341 C 0.31892 0.86229 0.12045 0.0
C3342 C 0.32231 0.92484 0.10979 0.0
C3343 C 0.34987 0.86537 0.13283 0.0
H3344 H 0.39756 0.92961 0.12055 0.0
H3345 H 0.3561 0.94333 0.1477 0.0
H3346 H 0.37383 0.88384 0.11153 0.0
H3347 H 0.36544 0.90471 0.10306 0.0
H3348 H 0.39157 0.90332 0.10743 0.0
H3349 H 0.32608 0.92527 0.15062 0.0
H3350 H 0.3141 0.92157 0.13698 0.0
H3351 H 0.32442 0.90033 0.14443 0.0
H3352 H 0.29474 0.89681 0.10378 0.0
H3353 H 0.31783 0.84659 0.12308 0.0
H3354 H 0.33741 0.92849 0.10619 0.0
H3355 H 0.31996 0.93485 0.11727 0.0
H3356 H 0.31059 0.92841 0.10331 0.0
H3357 H 0.36553 0.86809 0.12975 0.0
H3358 H 0.34764 0.84882 0.13398 0.0
H3359 H 0.34846 0.87285 0.14126 0.0
C3360 C 0.32312 0.12988 0.388 0.0
C3361 C 0.30414 0.12922 0.38264 0.0
C3362 C 0.33853 0.11626 0.38497 0.0
C3363 C 0.33478 0.10161 0.37642 0.0
C3364 C 0.31592 0.10139 0.37068 0.0
C3365 C 0.30084 0.11521 0.37386 0.0
C3366 C 0.35852 0.11705 0.39119 0.0
C3367 C 0.31134 0.08597 0.36153 0.0
C3368 C 0.37704 0.07203 0.36216 0.0
C3369 C 0.37562 0.05331 0.36776 0.0
C3370 C 0.36434 0.08821 0.36516 0.0
C3371 C 0.34993 0.08557 0.37397 0.0
C3372 C 0.34902 0.06698 0.37996 0.0
C3373 C 0.36187 0.05107 0.37677 0.0
C3374 C 0.36574 0.10782 0.35859 0.0
C3375 C 0.33396 0.06363 0.38946 0.0
H3376 H 0.3258 0.14085 0.39471 0.0
H3377 H 0.28612 0.11443 0.36979 0.0
H3378 H 0.3604 0.10315 0.39639 0.0
H3379 H 0.37124 0.11751 0.38502 0.0
H3380 H 0.35964 0.13042 0.3969 0.0
H3381 H 0.29646 0.0887 0.35738 0.0
H3382 H 0.3233 0.0862 0.3549 0.0
H3383 H 0.31121 0.07056 0.36531 0.0
H3384 H 0.38753 0.07377 0.35512 0.0
H3385 H 0.36096 0.03671 0.38123 0.0
H3386 H 0.36684 0.12085 0.36453 0.0
H3387 H 0.35178 0.10994 0.35347 0.0
H3388 H 0.37899 0.10811 0.35276 0.0
H3389 H 0.33535 0.07577 0.39595 0.0
H3390 H 0.33605 0.04875 0.39372 0.0
H3391 H 0.31833 0.06433 0.386 0.0
C3392 C 0.14265 0.05388 0.63722 0.0
C3393 C 0.12248 0.05244 0.63357 0.0
C3394 C 0.15532 0.06934 0.63325 0.0
C3395 C 0.14764 0.08375 0.62544 0.0
C3396 C 0.12721 0.08259 0.62183 0.0
C3397 C 0.11487 0.06686 0.62592 0.0
C3398 C 0.17708 0.06997 0.63722 0.0
C3399 C 0.11851 0.09778 0.61356 0.0
C3400 C 0.17893 0.13169 0.62266 0.0
C3401 C 0.19069 0.1273 0.61303 0.0
C3402 C 0.1642 0.11801 0.62655 0.0
C3403 C 0.16138 0.09945 0.62071 0.0
C3404 C 0.17282 0.09521 0.6108 0.0
C3405 C 0.18731 0.10921 0.60707 0.0
C3406 C 0.15213 0.1231 0.63709 0.0
C3407 C 0.17038 0.0755 0.60441 0.0
H3408 H 0.14869 0.04258 0.643 0.0
H3409 H 0.09923 0.06589 0.62316 0.0
H3410 H 0.18738 0.06802 0.62982 0.0
H3411 H 0.1805 0.08491 0.64108 0.0
H3412 H 0.1805 0.05798 0.64357 0.0
H3413 H 0.10209 0.09531 0.61202 0.0
H3414 H 0.12071 0.11337 0.61685 0.0
H3415 H 0.12661 0.09677 0.6053 0.0
H3416 H 0.18141 0.14575 0.62723 0.0
H3417 H 0.19658 0.10562 0.59971 0.0
H3418 H 0.15622 0.11251 0.64407 0.0
H3419 H 0.1357 0.12122 0.63543 0.0
H3420 H 0.15491 0.13883 0.64006 0.0
H3421 H 0.17519 0.06272 0.60992 0.0
H3422 H 0.17949 0.07511 0.59645 0.0
H3423 H 0.15425 0.07299 0.6022 0.0
C3424 C 0.1176 0.93311 0.87352 0.0
C3425 C 0.12084 0.94139 0.86266 0.0
C3426 C 0.12989 0.91741 0.87767 0.0
C3427 C 0.14603 0.91013 0.87087 0.0
C3428 C 0.14881 0.91776 0.85972 0.0
C3429 C 0.13604 0.93313 0.8557 0.0
C3430 C 0.12625 0.90936 0.88953 0.0
C3431 C 0.16597 0.91051 0.85224 0.0
C3432 C 0.19316 0.89151 0.88592 0.0
C3433 C 0.19183 0.87054 0.88433 0.0
C3434 C 0.1782 0.90449 0.88168 0.0
C3435 C 0.16136 0.89625 0.87583 0.0
C3436 C 0.15971 0.87502 0.8744 0.0
C3437 C 0.17513 0.86238 0.87858 0.0
C3438 C 0.1807 0.92708 0.88322 0.0
C3439 C 0.14177 0.86572 0.86839 0.0
H3440 H 0.10601 0.93943 0.87901 0.0
H3441 H 0.13831 0.93903 0.84718 0.0
H3442 H 0.1266 0.89256 0.88955 0.0
H3443 H 0.13848 0.91466 0.89529 0.0
H3444 H 0.1115 0.91449 0.89306 0.0
H3445 H 0.16514 0.91689 0.84349 0.0
H3446 H 0.18065 0.91503 0.85609 0.0
H3447 H 0.1659 0.89375 0.85165 0.0
H3448 H 0.20623 0.89783 0.89025 0.0
H3449 H 0.1741 0.84613 0.87741 0.0
H3450 H 0.16744 0.9334 0.8878 0.0
H3451 H 0.18141 0.93459 0.87477 0.0
H3452 H 0.19462 0.93099 0.88806 0.0
H3453 H 0.12748 0.87088 0.87244 0.0
H3454 H 0.1422 0.84891 0.86855 0.0
H3455 H 0.14139 0.8708 0.85938 0.0
C3456 C 0.68616 0.12636 0.87219 0.0
C3457 C 0.69892 0.12057 0.88118 0.0
C3458 C 0.67062 0.11349 0.86839 0.0
C3459 C 0.66795 0.09439 0.87366 0.0
C3460 C 0.68038 0.08876 0.88295 0.0
C3461 C 0.69562 0.10196 0.88663 0.0
C3462 C 0.65749 0.12006 0.85853 0.0
C3463 C 0.67803 0.0685 0.88879 0.0
C3464 C 0.62038 0.0628 0.86996 0.0
C3465 C 0.62676 0.04856 0.86184 0.0
C3466 C 0.63334 0.07839 0.87357 0.0
C3467 C 0.65316 0.0796 0.86903 0.0
C3468 C 0.65945 0.06566 0.86059 0.0
C3469 C 0.64614 0.05042 0.85704 0.0
C3470 C 0.62607 0.09313 0.88251 0.0
C3471 C 0.68051 0.06641 0.85557 0.0
H3472 H 0.68867 0.14068 0.86791 0.0
H3473 H 0.70511 0.09761 0.89376 0.0
H3474 H 0.66055 0.11028 0.85104 0.0
H3475 H 0.64125 0.11825 0.86072 0.0
H3476 H 0.66026 0.13607 0.85607 0.0
H3477 H 0.68836 0.06681 0.8962 0.0
H3478 H 0.66222 0.06649 0.89177 0.0
H3479 H 0.68125 0.05614 0.88264 0.0
H3480 H 0.60548 0.06141 0.87375 0.0
H3481 H 0.651 0.03978 0.85056 0.0
H3482 H 0.62896 0.10893 0.87974 0.0
H3483 H 0.6346 0.09072 0.89054 0.0
H3484 H 0.60965 0.09139 0.88434 0.0
H3485 H 0.68362 0.08168 0.85203 0.0
H3486 H 0.68271 0.05504 0.8487 0.0
H3487 H 0.69187 0.06355 0.86235 0.0
C3488 C 0.6221 0.93597 0.62758 0.0
C3489 C 0.62784 0.94974 0.63609 0.0
C3490 C 0.63544 0.92077 0.62388 0.0
C3491 C 0.65501 0.91944 0.62875 0.0
C3492 C 0.66068 0.93293 0.63756 0.0
C3493 C 0.647 0.94783 0.64116 0.0
C3494 C 0.62883 0.90653 0.61452 0.0
C3495 C 0.68143 0.93202 0.64295 0.0
C3496 C 0.68757 0.87242 0.6252 0.0
C3497 C 0.70071 0.87843 0.61642 0.0
C3498 C 0.67223 0.8854 0.62912 0.0
C3499 C 0.67008 0.90485 0.62418 0.0
C3500 C 0.68302 0.91082 0.61518 0.0
C3501 C 0.69809 0.89751 0.61138 0.0
C3502 C 0.6586 0.87849 0.63869 0.0
C3503 C 0.68123 0.93146 0.60971 0.0
H3504 H 0.60739 0.93742 0.62357 0.0
H3505 H 0.65138 0.95813 0.64791 0.0
H3506 H 0.63805 0.90926 0.60677 0.0
H3507 H 0.63139 0.89058 0.61713 0.0
H3508 H 0.61259 0.90847 0.6123 0.0
H3509 H 0.68315 0.94305 0.65004 0.0
H3510 H 0.68441 0.9166 0.64629 0.0
H3511 H 0.69317 0.93527 0.63643 0.0
H3512 H 0.68959 0.85776 0.62919 0.0
H3513 H 0.70788 0.90208 0.60442 0.0
H3514 H 0.64248 0.88022 0.6362 0.0
H3515 H 0.66111 0.88811 0.64631 0.0
H3516 H 0.66135 0.86244 0.64108 0.0
H3517 H 0.66567 0.93374 0.6064 0.0
H3518 H 0.69212 0.93354 0.60259 0.0
H3519 H 0.68404 0.9434 0.61617 0.0
C3520 C 0.79927 0.89857 0.39004 0.0
C3521 C 0.79793 0.87916 0.38523 0.0
C3522 C 0.81389 0.91246 0.38633 0.0
C3523 C 0.8277 0.90673 0.3777 0.0
C3524 C 0.82694 0.88694 0.37309 0.0
C3525 C 0.81198 0.8734 0.37687 0.0
C3526 C 0.81416 0.93347 0.39143 0.0
C3527 C 0.84157 0.88025 0.36394 0.0
C3528 C 0.84922 0.94937 0.35982 0.0
C3529 C 0.86807 0.95271 0.36502 0.0
C3530 C 0.8361 0.93425 0.36377 0.0
C3531 C 0.84207 0.92193 0.37304 0.0
C3532 C 0.8613 0.92477 0.37813 0.0
C3533 C 0.87404 0.94021 0.37409 0.0
C3534 C 0.81566 0.93176 0.35816 0.0
C3535 C 0.86823 0.91176 0.38796 0.0
H3536 H 0.78878 0.90298 0.3967 0.0
H3537 H 0.81097 0.8585 0.37305 0.0
H3538 H 0.8294 0.93693 0.39489 0.0
H3539 H 0.81089 0.94483 0.38471 0.0
H3540 H 0.80286 0.93527 0.39837 0.0
H3541 H 0.84005 0.86389 0.36192 0.0
H3542 H 0.83885 0.88907 0.35604 0.0
H3543 H 0.85738 0.88328 0.36665 0.0
H3544 H 0.84467 0.95862 0.35264 0.0
H3545 H 0.8885 0.94278 0.37822 0.0
H3546 H 0.80347 0.93451 0.36449 0.0
H3547 H 0.81383 0.91603 0.35502 0.0
H3548 H 0.81349 0.94232 0.35089 0.0
H3549 H 0.85834 0.91441 0.39546 0.0
H3550 H 0.88414 0.91498 0.39045 0.0
H3551 H 0.86693 0.89549 0.3857 0.0
C3552 C 0.80816 0.12476 0.12525 0.0
C3553 C 0.79607 0.11954 0.11585 0.0
C3554 C 0.82334 0.11163 0.12921 0.0
C3555 C 0.82627 0.09274 0.12376 0.0
C3556 C 0.8144 0.08755 0.11416 0.0
C3557 C 0.79962 0.10108 0.11026 0.0
C3558 C 0.83593 0.11778 0.13938 0.0
C3559 C 0.81695 0.06745 0.10817 0.0
C3560 C 0.87382 0.06123 0.12789 0.0
C3561 C 0.86728 0.04691 0.13592 0.0
C3562 C 0.8609 0.07678 0.12417 0.0
C3563 C 0.84088 0.07779 0.12844 0.0
C3564 C 0.83435 0.06369 0.13674 0.0
C3565 C 0.84768 0.04859 0.14046 0.0
C3566 C 0.86848 0.09177 0.11544 0.0
C3567 C 0.81304 0.06416 0.14144 0.0
H3568 H 0.80546 0.13889 0.12969 0.0
H3569 H 0.79073 0.09713 0.10282 0.0
H3570 H 0.83255 0.10765 0.14668 0.0
H3571 H 0.85228 0.11614 0.13742 0.0
H3572 H 0.83297 0.13366 0.14203 0.0
H3573 H 0.80681 0.06594 0.10066 0.0
H3574 H 0.83284 0.06558 0.10529 0.0
H3575 H 0.81363 0.05492 0.11419 0.0
H3576 H 0.88887 0.06001 0.12426 0.0
H3577 H 0.84265 0.03795 0.1469 0.0
H3578 H 0.86549 0.10748 0.11834 0.0
H3579 H 0.86022 0.08961 0.1073 0.0
H3580 H 0.88496 0.09009 0.11378 0.0
H3581 H 0.80973 0.07924 0.14516 0.0
H3582 H 0.81053 0.05245 0.14808 0.0
H3583 H 0.80203 0.06164 0.13443 0.0
C3584 C 0.81097 0.38657 0.60854 0.0
C3585 C 0.8072 0.36792 0.61385 0.0
C3586 C 0.826 0.39966 0.61262 0.0
C3587 C 0.8375 0.39402 0.62228 0.0
C3588 C 0.83427 0.37493 0.62746 0.0
C3589 C 0.81911 0.36209 0.62319 0.0
C3590 C 0.82894 0.41993 0.60687 0.0
C3591 C 0.84632 0.36839 0.63776 0.0
C3592 C 0.88447 0.42564 0.62791 0.0
C3593 C 0.87703 0.43993 0.6357 0.0
C3594 C 0.872 0.41008 0.62375 0.0
C3595 C 0.85164 0.40888 0.62746 0.0
C3596 C 0.84425 0.42288 0.63559 0.0
C3597 C 0.85701 0.43824 0.63959 0.0
C3598 C 0.88039 0.39536 0.61512 0.0
C3599 C 0.8226 0.42213 0.63974 0.0
H3600 H 0.80163 0.39133 0.60143 0.0
H3601 H 0.81642 0.34759 0.62724 0.0
H3602 H 0.8245 0.43225 0.6128 0.0
H3603 H 0.84513 0.42222 0.60471 0.0
H3604 H 0.81982 0.42138 0.59896 0.0
H3605 H 0.84324 0.35241 0.64016 0.0
H3606 H 0.86277 0.37013 0.63611 0.0
H3607 H 0.8425 0.37823 0.64511 0.0
H3608 H 0.9 0.42673 0.62498 0.0
H3609 H 0.85105 0.44941 0.64547 0.0
H3610 H 0.87264 0.39755 0.60682 0.0
H3611 H 0.87744 0.37955 0.61786 0.0
H3612 H 0.89694 0.39732 0.61381 0.0
H3613 H 0.81216 0.42533 0.63255 0.0
H3614 H 0.81962 0.43329 0.64662 0.0
H3615 H 0.81893 0.40678 0.64297 0.0
C3616 C 0.88338 0.57471 0.86012 0.0
C3617 C 0.88176 0.55572 0.86538 0.0
C3618 C 0.87075 0.5908 0.86336 0.0
C3619 C 0.85599 0.58763 0.87193 0.0
C3620 C 0.85478 0.56867 0.87752 0.0
C3621 C 0.86777 0.55297 0.87422 0.0
C3622 C 0.8727 0.61092 0.85736 0.0
C3623 C 0.83909 0.56465 0.88662 0.0
C3624 C 0.8281 0.63029 0.88682 0.0
C3625 C 0.80955 0.63017 0.88101 0.0
C3626 C 0.84383 0.6172 0.8836 0.0
C3627 C 0.84074 0.60351 0.87448 0.0
C3628 C 0.8223 0.60387 0.86833 0.0
C3629 C 0.80696 0.61729 0.87164 0.0
C3630 C 0.86344 0.61747 0.89022 0.0
C3631 C 0.81835 0.58936 0.85863 0.0
H3632 H 0.89433 0.57687 0.85334 0.0
H3633 H 0.86635 0.53822 0.8782 0.0
H3634 H 0.85907 0.61365 0.85205 0.0
H3635 H 0.8736 0.62341 0.86366 0.0
H3636 H 0.88628 0.61155 0.85177 0.0
H3637 H 0.84086 0.54943 0.89054 0.0
H3638 H 0.8401 0.57624 0.89343 0.0
H3639 H 0.82371 0.56571 0.88286 0.0
H3640 H 0.83016 0.64039 0.89401 0.0
H3641 H 0.79254 0.61701 0.86722 0.0
H3642 H 0.87654 0.61821 0.88431 0.0
H3643 H 0.8649 0.60326 0.89519 0.0
H3644 H 0.86427 0.63048 0.8962 0.0
H3645 H 0.83068 0.59031 0.85223 0.0
H3646 H 0.8037 0.59242 0.8543 0.0
H3647 H 0.81813 0.5736 0.86192 0.0
C3648 C 0.6745 0.63035 0.10864 0.0
C3649 C 0.69332 0.63023 0.11419 0.0
C3650 C 0.65901 0.61704 0.11194 0.0
C3651 C 0.6625 0.60328 0.12097 0.0
C3652 C 0.6811 0.60378 0.12696 0.0
C3653 C 0.69629 0.61725 0.12349 0.0
C3654 C 0.63929 0.61707 0.10543 0.0
C3655 C 0.68539 0.58933 0.13665 0.0
C3656 C 0.62008 0.5739 0.13521 0.0
C3657 C 0.62221 0.55482 0.13009 0.0
C3658 C 0.6326 0.59013 0.13204 0.0
C3659 C 0.64754 0.58714 0.12356 0.0
C3660 C 0.64917 0.56815 0.11804 0.0
C3661 C 0.63648 0.55222 0.12137 0.0
C3662 C 0.63041 0.61019 0.13809 0.0
C3663 C 0.66484 0.56441 0.10889 0.0
H3664 H 0.67206 0.64056 0.10153 0.0
H3665 H 0.71087 0.61689 0.12773 0.0
H3666 H 0.63796 0.60286 0.10044 0.0
H3667 H 0.62627 0.61758 0.1114 0.0
H3668 H 0.63816 0.63009 0.09947 0.0
H3669 H 0.6999 0.59279 0.14102 0.0
H3670 H 0.67298 0.58987 0.14302 0.0
H3671 H 0.68612 0.57361 0.13333 0.0
H3672 H 0.60917 0.57593 0.14202 0.0
H3673 H 0.63793 0.53758 0.11727 0.0
H3674 H 0.62947 0.62273 0.13182 0.0
H3675 H 0.64397 0.61297 0.14345 0.0
H3676 H 0.61677 0.61066 0.14363 0.0
H3677 H 0.66351 0.57597 0.10207 0.0
H3678 H 0.66333 0.54916 0.10499 0.0
H3679 H 0.68024 0.56578 0.11259 0.0
C3680 C 0.69674 0.38738 0.37521 0.0
C3681 C 0.69317 0.37102 0.38255 0.0
C3682 C 0.68114 0.4008 0.3723 0.0
C3683 C 0.66146 0.39767 0.37676 0.0
C3684 C 0.65758 0.38077 0.38385 0.0
C3685 C 0.67355 0.36769 0.38672 0.0
C3686 C 0.68591 0.41875 0.36478 0.0
C3687 C 0.63672 0.37681 0.38861 0.0
C3688 C 0.62955 0.44524 0.37859 0.0
C3689 C 0.61846 0.44424 0.36841 0.0
C3690 C 0.64301 0.42974 0.38165 0.0
C3691 C 0.6453 0.41275 0.3744 0.0
C3692 C 0.63334 0.41111 0.36444 0.0
C3693 C 0.62011 0.42691 0.36154 0.0
C3694 C 0.65549 0.43203 0.39236 0.0
C3695 C 0.63524 0.39314 0.35656 0.0
H3696 H 0.71195 0.39015 0.3721 0.0
H3697 H 0.67075 0.35495 0.39233 0.0
H3698 H 0.67563 0.419 0.35731 0.0
H3699 H 0.68339 0.433 0.36959 0.0
H3700 H 0.7018 0.41856 0.36167 0.0
H3701 H 0.6359 0.36221 0.3933 0.0
H3702 H 0.63242 0.3892 0.39452 0.0
H3703 H 0.62537 0.37661 0.38164 0.0
H3704 H 0.62807 0.4584 0.38404 0.0
H3705 H 0.61176 0.42609 0.3536 0.0
H3706 H 0.67171 0.43364 0.39007 0.0
H3707 H 0.65407 0.41831 0.39776 0.0
H3708 H 0.6509 0.44544 0.39746 0.0
H3709 H 0.65021 0.39352 0.35226 0.0
H3710 H 0.62325 0.393 0.34992 0.0
H3711 H 0.63442 0.37879 0.36146 0.0
C3712 C 0.12117 0.57537 0.35706 0.0
C3713 C 0.12022 0.55712 0.36317 0.0
C3714 C 0.13466 0.59079 0.36025 0.0
C3715 C 0.14743 0.58788 0.3698 0.0
C3716 C 0.14589 0.56989 0.3763 0.0
C3717 C 0.13236 0.55471 0.37288 0.0
C3718 C 0.13584 0.60981 0.35315 0.0
C3719 C 0.15922 0.56624 0.38656 0.0
C3720 C 0.19899 0.61273 0.37145 0.0
C3721 C 0.19568 0.6279 0.37959 0.0
C3722 C 0.18316 0.60018 0.36782 0.0
C3723 C 0.16357 0.60278 0.37251 0.0
C3724 C 0.15995 0.61861 0.38039 0.0
C3725 C 0.17607 0.63106 0.38381 0.0
C3726 C 0.18759 0.58361 0.3593 0.0
C3727 C 0.13928 0.62178 0.3856 0.0
H3728 H 0.1116 0.57746 0.34964 0.0
H3729 H 0.13195 0.54057 0.37757 0.0
H3730 H 0.13481 0.62341 0.35866 0.0
H3731 H 0.15068 0.61043 0.34873 0.0
H3732 H 0.12364 0.61053 0.34664 0.0
H3733 H 0.15498 0.55223 0.39123 0.0
H3734 H 0.17523 0.56489 0.3838 0.0
H3735 H 0.15828 0.57924 0.39252 0.0
H3736 H 0.21411 0.61047 0.36807 0.0
H3737 H 0.17353 0.64272 0.39016 0.0
H3738 H 0.17675 0.58439 0.35209 0.0
H3739 H 0.18564 0.56861 0.36341 0.0
H3740 H 0.20324 0.58457 0.35586 0.0
H3741 H 0.12751 0.62235 0.37886 0.0
H3742 H 0.13849 0.63594 0.39069 0.0
H3743 H 0.13559 0.60882 0.39124 0.0
C3744 C 0.18478 0.36959 0.12074 0.0
C3745 C 0.19853 0.37544 0.11224 0.0
C3746 C 0.16956 0.38287 0.12448 0.0
C3747 C 0.1682 0.40248 0.11967 0.0
C3748 C 0.18163 0.40822 0.11084 0.0
C3749 C 0.19654 0.3946 0.1072 0.0
C3750 C 0.15538 0.37618 0.13385 0.0
C3751 C 0.18069 0.42902 0.1055 0.0
C3752 C 0.12165 0.43562 0.12345 0.0
C3753 C 0.12796 0.44865 0.1322 0.0
C3754 C 0.13432 0.42003 0.1195 0.0
C3755 C 0.15379 0.41759 0.12437 0.0
C3756 C 0.16003 0.43038 0.13338 0.0
C3757 C 0.147 0.44565 0.13723 0.0
C3758 C 0.12711 0.40653 0.10995 0.0
C3759 C 0.18071 0.4283 0.13877 0.0
H3760 H 0.18628 0.35485 0.12472 0.0
H3761 H 0.20682 0.39905 0.10045 0.0
H3762 H 0.15832 0.38518 0.14166 0.0
H3763 H 0.13942 0.37896 0.13133 0.0
H3764 H 0.15719 0.35987 0.13594 0.0
H3765 H 0.19159 0.43076 0.09836 0.0
H3766 H 0.16521 0.43209 0.10226 0.0
H3767 H 0.18411 0.44069 0.11203 0.0
H3768 H 0.10702 0.43791 0.11947 0.0
H3769 H 0.1518 0.45534 0.14418 0.0
H3770 H 0.1289 0.39038 0.11235 0.0
H3771 H 0.13649 0.40914 0.10225 0.0
H3772 H 0.11099 0.40934 0.10773 0.0
H3773 H 0.18289 0.41266 0.14199 0.0
H3774 H 0.18298 0.43905 0.14594 0.0
H3775 H 0.19261 0.4311 0.13228 0.0
C3776 C 0.35093 0.44631 0.85728 0.0
C3777 C 0.36976 0.44865 0.86265 0.0
C3778 C 0.3373 0.43132 0.86078 0.0
C3779 C 0.34269 0.4182 0.86981 0.0
C3780 C 0.36199 0.4199 0.87497 0.0
C3781 C 0.37531 0.43517 0.87135 0.0
C3782 C 0.31683 0.42999 0.85506 0.0
C3783 C 0.36828 0.40606 0.88458 0.0
C3784 C 0.29883 0.39703 0.88682 0.0
C3785 C 0.29642 0.37776 0.88197 0.0
C3786 C 0.3141 0.41015 0.88308 0.0
C3787 C 0.32747 0.40377 0.87437 0.0
C3788 C 0.32556 0.38412 0.86967 0.0
C3789 C 0.30998 0.37135 0.8735 0.0
C3790 C 0.31562 0.43102 0.88828 0.0
C3791 C 0.33965 0.37679 0.86042 0.0
H3792 H 0.34675 0.45639 0.85038 0.0
H3793 H 0.3898 0.43695 0.87557 0.0
H3794 H 0.3141 0.41437 0.85195 0.0
H3795 H 0.30476 0.43353 0.86133 0.0
H3796 H 0.31543 0.44062 0.84777 0.0
H3797 H 0.38444 0.40811 0.88696 0.0
H3798 H 0.3588 0.40911 0.89219 0.0
H3799 H 0.36582 0.39 0.88216 0.0
H3800 H 0.28872 0.40191 0.89355 0.0
H3801 H 0.30813 0.35653 0.86967 0.0
H3802 H 0.31309 0.44267 0.88162 0.0
H3803 H 0.33103 0.43348 0.89178 0.0
H3804 H 0.30441 0.43341 0.89522 0.0
H3805 H 0.33744 0.38599 0.85261 0.0
H3806 H 0.3371 0.36061 0.85826 0.0
H3807 H 0.35565 0.37875 0.8631 0.0
C3808 C 0.37298 0.5653 0.63627 0.0
C3809 C 0.37537 0.54803 0.62945 0.0
C3810 C 0.35946 0.58071 0.63315 0.0
C3811 C 0.34824 0.57883 0.62292 0.0
C3812 C 0.35132 0.56186 0.61575 0.0
C3813 C 0.36477 0.54659 0.61914 0.0
C3814 C 0.35644 0.59848 0.64106 0.0
C3815 C 0.33983 0.55946 0.6047 0.0
C3816 C 0.29663 0.60357 0.62087 0.0
C3817 C 0.30073 0.62068 0.61417 0.0
C3818 C 0.31206 0.59009 0.62396 0.0
C3819 C 0.33208 0.59368 0.62017 0.0
C3820 C 0.33644 0.61103 0.61353 0.0
C3821 C 0.3207 0.62437 0.61063 0.0
C3822 C 0.30683 0.57176 0.63108 0.0
C3823 C 0.35763 0.61531 0.60934 0.0
H3824 H 0.38104 0.56633 0.6443 0.0
H3825 H 0.36679 0.53332 0.61382 0.0
H3826 H 0.35775 0.61294 0.63631 0.0
H3827 H 0.34096 0.5979 0.64474 0.0
H3828 H 0.36756 0.59857 0.64817 0.0
H3829 H 0.34525 0.54631 0.59965 0.0
H3830 H 0.32348 0.55733 0.60654 0.0
H3831 H 0.3413 0.57334 0.59944 0.0
H3832 H 0.2812 0.60039 0.62347 0.0
H3833 H 0.32402 0.63768 0.60556 0.0
H3834 H 0.31647 0.5713 0.63882 0.0
H3835 H 0.3099 0.55775 0.62616 0.0
H3836 H 0.29069 0.57166 0.63376 0.0
H3837 H 0.36828 0.61598 0.61664 0.0
H3838 H 0.3586 0.62977 0.60454 0.0
H3839 H 0.36276 0.60282 0.60372 0.0
C3840 C 0.35687 0.13896 0.14414 0.0
C3841 C 0.35858 0.12097 0.13782 0.0
C3842 C 0.34676 0.1559 0.13971 0.0
C3843 C 0.3376 0.15469 0.12883 0.0
C3844 C 0.33834 0.13632 0.12265 0.0
C3845 C 0.34904 0.11979 0.12714 0.0
C3846 C 0.34652 0.17533 0.14651 0.0
C3847 C 0.3284 0.13434 0.11111 0.0
C3848 C 0.30012 0.19624 0.12118 0.0
C3849 C 0.3122 0.2089 0.11447 0.0
C3850 C 0.30801 0.17818 0.1257 0.0
C3851 C 0.32852 0.17307 0.1236 0.0
C3852 C 0.34067 0.18588 0.11674 0.0
C3853 C 0.33228 0.2036 0.11218 0.0
C3854 C 0.29451 0.16471 0.13279 0.0
C3855 C 0.36267 0.18112 0.11444 0.0
H3856 H 0.36369 0.13995 0.15251 0.0
H3857 H 0.35042 0.10615 0.12207 0.0
H3858 H 0.35466 0.18735 0.14173 0.0
H3859 H 0.33074 0.18061 0.14776 0.0
H3860 H 0.35379 0.17359 0.15499 0.0
H3861 H 0.32842 0.11846 0.10798 0.0
H3862 H 0.31252 0.1398 0.11148 0.0
H3863 H 0.33652 0.1439 0.10482 0.0
H3864 H 0.28457 0.20053 0.12292 0.0
H3865 H 0.34154 0.21362 0.10703 0.0
H3866 H 0.30038 0.16386 0.14163 0.0
H3867 H 0.29458 0.14909 0.1293 0.0
H3868 H 0.27864 0.17027 0.13307 0.0
H3869 H 0.37112 0.18038 0.12261 0.0
H3870 H 0.36998 0.19262 0.10888 0.0
H3871 H 0.36406 0.16609 0.1103 0.0
C3872 C 0.10322 0.11812 0.3879 0.0
C3873 C 0.12226 0.10892 0.38902 0.0
C3874 C 0.08661 0.1074 0.38356 0.0
C3875 C 0.08909 0.08696 0.3802 0.0
C3876 C 0.10821 0.07749 0.38138 0.0
C3877 C 0.12459 0.0886 0.38578 0.0
C3878 C 0.06647 0.11806 0.3824 0.0
C3879 C 0.11138 0.0557 0.37791 0.0
C3880 C 0.04022 0.05703 0.37789 0.0
C3881 C 0.03576 0.05887 0.36624 0.0
C3882 C 0.05796 0.06539 0.38249 0.0
C3883 C 0.07163 0.07576 0.37526 0.0
C3884 C 0.06771 0.07683 0.36342 0.0
C3885 C 0.0498 0.06843 0.35905 0.0
C3886 C 0.06164 0.06388 0.39517 0.0
C3887 C 0.08195 0.08771 0.35542 0.0
H3888 H 0.10138 0.13391 0.3902 0.0
H3889 H 0.13922 0.08135 0.38672 0.0
H3890 H 0.06182 0.1184 0.37332 0.0
H3891 H 0.05462 0.10966 0.38715 0.0
H3892 H 0.06697 0.13386 0.38564 0.0
H3893 H 0.12708 0.05045 0.37959 0.0
H3894 H 0.1007 0.04576 0.3826 0.0
H3895 H 0.10812 0.05389 0.3687 0.0
H3896 H 0.02961 0.04937 0.38347 0.0
H3897 H 0.04639 0.07013 0.35007 0.0
H3898 H 0.06067 0.07918 0.39905 0.0
H3899 H 0.07709 0.05801 0.39687 0.0
H3900 H 0.05047 0.05388 0.39946 0.0
H3901 H 0.08184 0.10416 0.35735 0.0
H3902 H 0.0777 0.08558 0.34634 0.0
H3903 H 0.09769 0.08225 0.35665 0.0
C3904 C 0.15249 0.8685 0.64006 0.0
C3905 C 0.13135 0.86744 0.64112 0.0
C3906 C 0.16365 0.85196 0.6359 0.0
C3907 C 0.1534 0.83398 0.63276 0.0
C3908 C 0.13212 0.83269 0.63405 0.0
C3909 C 0.12137 0.84942 0.63822 0.0
C3910 C 0.18632 0.85386 0.63464 0.0
C3911 C 0.12065 0.81372 0.63088 0.0
C3912 C 0.17538 0.79704 0.61133 0.0
C3913 C 0.18157 0.7811 0.61841 0.0
C3914 C 0.16696 0.81475 0.61593 0.0
C3915 C 0.16471 0.81655 0.62789 0.0
C3916 C 0.1718 0.80092 0.6351 0.0
C3917 C 0.18014 0.78337 0.63027 0.0
C3918 C 0.15957 0.83111 0.60795 0.0
C3919 C 0.1698 0.80235 0.6479 0.0
H3920 H 0.16025 0.88246 0.64219 0.0
H3921 H 0.10508 0.84842 0.6392 0.0
H3922 H 0.19401 0.84136 0.63924 0.0
H3923 H 0.19055 0.85256 0.62552 0.0
H3924 H 0.1921 0.86852 0.63796 0.0
H3925 H 0.10416 0.81506 0.6326 0.0
H3926 H 0.1228 0.81041 0.62168 0.0
H3927 H 0.12665 0.80059 0.63571 0.0
H3928 H 0.17629 0.7953 0.60216 0.0
H3929 H 0.18521 0.77121 0.63579 0.0
H3930 H 0.16568 0.84606 0.61057 0.0
H3931 H 0.14281 0.83209 0.6084 0.0
H3932 H 0.16401 0.82819 0.59897 0.0
H3933 H 0.17608 0.81692 0.651 0.0
H3934 H 0.17768 0.78974 0.65233 0.0
H3935 H 0.15355 0.80198 0.65029 0.0
C3936 C 0.4439 0.94007 0.86219 0.0
C3937 C 0.4627 0.93165 0.86514 0.0
C3938 C 0.42571 0.93132 0.86599 0.0
C3939 C 0.42638 0.91382 0.87295 0.0
C3940 C 0.44529 0.90536 0.87603 0.0
C3941 C 0.46317 0.91428 0.87203 0.0
C3942 C 0.4058 0.94066 0.86248 0.0
C3943 C 0.44664 0.88672 0.88345 0.0
C3944 C 0.38165 0.89874 0.89144 0.0
C3945 C 0.37353 0.88253 0.88522 0.0
C3946 C 0.39854 0.90947 0.8874 0.0
C3947 C 0.40737 0.90394 0.87685 0.0
C3948 C 0.39881 0.88802 0.87036 0.0
C3949 C 0.38204 0.87746 0.87465 0.0
C3950 C 0.40736 0.92624 0.8946 0.0
C3951 C 0.40767 0.88182 0.85902 0.0
H3952 H 0.44339 0.95358 0.85695 0.0
H3953 H 0.47758 0.90737 0.87414 0.0
H3954 H 0.3967 0.92946 0.85764 0.0
H3955 H 0.39692 0.94488 0.87014 0.0
H3956 H 0.40789 0.95436 0.85711 0.0
H3957 H 0.46255 0.88248 0.88541 0.0
H3958 H 0.43849 0.88928 0.8916 0.0
H3959 H 0.43923 0.87375 0.87913 0.0
H3960 H 0.37516 0.90262 0.89964 0.0
H3961 H 0.37559 0.86514 0.86974 0.0
H3962 H 0.40885 0.94031 0.8895 0.0
H3963 H 0.42279 0.92193 0.89746 0.0
H3964 H 0.39797 0.92952 0.90223 0.0
H3965 H 0.40893 0.89517 0.85332 0.0
H3966 H 0.39841 0.87007 0.85469 0.0
H3967 H 0.42318 0.87577 0.86028 0.0
C3968 C 0.30835 0.79258 0.37123 0.0
C3969 C 0.31412 0.78577 0.38206 0.0
C3970 C 0.31675 0.81025 0.36656 0.0
C3971 C 0.33156 0.82109 0.3728 0.0
C3972 C 0.33706 0.81453 0.38387 0.0
C3973 C 0.32814 0.79701 0.38841 0.0
C3974 C 0.3102 0.81701 0.35483 0.0
C3975 C 0.35299 0.82551 0.39073 0.0
C3976 C 0.37054 0.85178 0.35649 0.0
C3977 C 0.36398 0.8717 0.35844 0.0
C3978 C 0.36 0.8352 0.36102 0.0
C3979 C 0.34224 0.83855 0.36751 0.0
C3980 C 0.33514 0.85853 0.36923 0.0
C3981 C 0.34617 0.87488 0.36474 0.0
C3982 C 0.36812 0.81409 0.35906 0.0
C3983 C 0.31612 0.86267 0.37598 0.0
H3984 H 0.29738 0.78395 0.36636 0.0
H3985 H 0.33276 0.79162 0.39674 0.0
H3986 H 0.3057 0.8332 0.355 0.0
H3987 H 0.32307 0.8156 0.3488 0.0
H3988 H 0.29733 0.80792 0.35152 0.0
H3989 H 0.35485 0.81901 0.3994 0.0
H3990 H 0.36776 0.82468 0.38624 0.0
H3991 H 0.34901 0.84176 0.39156 0.0
H3992 H 0.38403 0.84912 0.35145 0.0
H3993 H 0.34109 0.89019 0.36644 0.0
H3994 H 0.35649 0.80463 0.35479 0.0
H3995 H 0.37163 0.80684 0.36736 0.0
H3996 H 0.38204 0.81407 0.35375 0.0
H3997 H 0.30333 0.85368 0.37252 0.0
H3998 H 0.31187 0.87895 0.37587 0.0
H3999 H 0.31834 0.85793 0.38496 0.0
C4000 C 0.39665 0.12052 0.60345 0.0
C4001 C 0.37694 0.11326 0.60527 0.0
C4002 C 0.41354 0.11021 0.6078 0.0
C4003 C 0.41069 0.09206 0.61402 0.0
C4004 C 0.39092 0.0842 0.6155 0.0
C4005 C 0.37428 0.09494 0.61116 0.0
C4006 C 0.43439 0.1191 0.60606 0.0
C4007 C 0.38731 0.06479 0.62199 0.0
C4008 C 0.45727 0.05921 0.61847 0.0
C4009 C 0.46319 0.06489 0.62949 0.0
C4010 C 0.43986 0.06749 0.61342 0.0
C4011 C 0.42831 0.08198 0.61949 0.0
C4012 C 0.43405 0.08749 0.6307 0.0
C4013 C 0.45137 0.07879 0.63558 0.0
C4014 C 0.43402 0.06102 0.60152 0.0
C4015 C 0.42225 0.10305 0.63741 0.0
H4016 H 0.39889 0.13443 0.59872 0.0
H4017 H 0.35912 0.08932 0.61273 0.0
H4018 H 0.44111 0.12306 0.61444 0.0
H4019 H 0.4445 0.10779 0.60201 0.0
H4020 H 0.43409 0.13292 0.60067 0.0
H4021 H 0.37125 0.05982 0.62155 0.0
H4022 H 0.39706 0.05252 0.61858 0.0
H4023 H 0.39145 0.06696 0.63107 0.0
H4024 H 0.46631 0.04833 0.61378 0.0
H4025 H 0.45606 0.0834 0.64405 0.0
H4026 H 0.43501 0.07415 0.59565 0.0
H4027 H 0.4181 0.05568 0.6014 0.0
H4028 H 0.44392 0.04875 0.59822 0.0
H4029 H 0.42266 0.11782 0.63291 0.0
H4030 H 0.42837 0.1052 0.64615 0.0
H4031 H 0.40614 0.09845 0.63807 0.0
C4032 C 0.12864 0.1448 0.85873 0.0
C4033 C 0.13444 0.12483 0.86118 0.0
C4034 C 0.13936 0.16132 0.86319 0.0
C4035 C 0.15649 0.15783 0.87017 0.0
C4036 C 0.16278 0.13775 0.87245 0.0
C4037 C 0.15163 0.12148 0.86798 0.0
C4038 C 0.13214 0.18253 0.86057 0.0
C4039 C 0.18107 0.13346 0.87979 0.0
C4040 C 0.19164 0.20289 0.87363 0.0
C4041 C 0.18507 0.21093 0.88406 0.0
C4042 C 0.18305 0.1851 0.86922 0.0
C4043 C 0.16737 0.1753 0.87532 0.0
C4044 C 0.16113 0.183 0.88602 0.0
C4045 C 0.17013 0.20069 0.89029 0.0
C4046 C 0.19031 0.17718 0.85786 0.0
C4047 C 0.14433 0.17308 0.89274 0.0
H4048 H 0.11564 0.14755 0.85331 0.0
H4049 H 0.1561 0.10612 0.87004 0.0
H4050 H 0.12822 0.19047 0.86861 0.0
H4051 H 0.14442 0.1913 0.85642 0.0
H4052 H 0.11866 0.18264 0.85491 0.0
H4053 H 0.18466 0.11705 0.88021 0.0
H4054 H 0.19447 0.14166 0.87643 0.0
H4055 H 0.17835 0.13906 0.88857 0.0
H4056 H 0.20333 0.21069 0.86886 0.0
H4057 H 0.16485 0.207 0.89828 0.0
H4058 H 0.178 0.17854 0.85147 0.0
H4059 H 0.19421 0.16088 0.85854 0.0
H4060 H 0.20376 0.18555 0.85467 0.0
H4061 H 0.12992 0.17418 0.88791 0.0
H4062 H 0.14214 0.18021 0.90122 0.0
H4063 H 0.14761 0.15675 0.89398 0.0
C4064 C 0.10009 0.8737 0.11 0.0
C4065 C 0.1187 0.88325 0.10798 0.0
C4066 C 0.08343 0.88461 0.11414 0.0
C4067 C 0.08548 0.90557 0.11642 0.0
C4068 C 0.10416 0.91537 0.11427 0.0
C4069 C 0.12055 0.90409 0.11003 0.0
C4070 C 0.06368 0.87365 0.11619 0.0
C4071 C 0.10696 0.93765 0.11669 0.0
C4072 C 0.03639 0.93522 0.11865 0.0
C4073 C 0.03288 0.93501 0.13046 0.0
C4074 C 0.05377 0.92624 0.11398 0.0
C4075 C 0.0681 0.91701 0.12128 0.0
C4076 C 0.06514 0.91756 0.13323 0.0
C4077 C 0.04752 0.92646 0.13767 0.0
C4078 C 0.05639 0.92593 0.10119 0.0
C4079 C 0.08017 0.90802 0.1413 0.0
H4080 H 0.09854 0.85764 0.10828 0.0
H4081 H 0.13498 0.91148 0.10858 0.0
H4082 H 0.0596 0.8745 0.12535 0.0
H4083 H 0.05132 0.88105 0.11133 0.0
H4084 H 0.06443 0.85745 0.11367 0.0
H4085 H 0.12225 0.94313 0.11421 0.0
H4086 H 0.09543 0.94663 0.11203 0.0
H4087 H 0.10471 0.94059 0.12591 0.0
H4088 H 0.02535 0.94212 0.11303 0.0
H4089 H 0.04487 0.92598 0.14678 0.0
H4090 H 0.05569 0.91008 0.09807 0.0
H4091 H 0.07146 0.93203 0.09882 0.0
H4092 H 0.04454 0.93488 0.09674 0.0
H4093 H 0.08026 0.89136 0.14007 0.0
H4094 H 0.07656 0.91128 0.15037 0.0
H4095 H 0.09569 0.91357 0.13946 0.0
C4096 C 0.67708 0.7959 0.88569 0.0
C4097 C 0.68195 0.77995 0.87829 0.0
C4098 C 0.66799 0.81367 0.88158 0.0
C4099 C 0.66374 0.81551 0.8698 0.0
C4100 C 0.6693 0.79976 0.86224 0.0
C4101 C 0.67831 0.78214 0.86658 0.0
C4102 C 0.66223 0.83012 0.88991 0.0
C4103 C 0.66514 0.80124 0.84961 0.0
C4104 C 0.62001 0.84944 0.86123 0.0
C4105 C 0.63007 0.86702 0.85765 0.0
C4106 C 0.63082 0.83257 0.86516 0.0
C4107 C 0.65224 0.83328 0.86551 0.0
C4108 C 0.66252 0.85093 0.86186 0.0
C4109 C 0.6513 0.86763 0.85799 0.0
C4110 C 0.6193 0.81404 0.86904 0.0
C4111 C 0.68535 0.85217 0.86206 0.0
H4112 H 0.67967 0.7942 0.89476 0.0
H4113 H 0.68232 0.76995 0.86082 0.0
H4114 H 0.66839 0.84491 0.88707 0.0
H4115 H 0.6455 0.8316 0.89022 0.0
H4116 H 0.66784 0.82696 0.89866 0.0
H4117 H 0.67169 0.78833 0.84479 0.0
H4118 H 0.64855 0.80155 0.84811 0.0
H4119 H 0.67144 0.81555 0.84615 0.0
H4120 H 0.6036 0.849 0.86116 0.0
H4121 H 0.65914 0.88112 0.85512 0.0
H4122 H 0.62281 0.8108 0.87811 0.0
H4123 H 0.62408 0.80065 0.864 0.0
H4124 H 0.60266 0.81589 0.86814 0.0
H4125 H 0.69095 0.84999 0.87089 0.0
H4126 H 0.69104 0.86692 0.85882 0.0
H4127 H 0.69191 0.83985 0.85679 0.0
C4128 C 0.96685 0.92093 0.61887 0.0
C4129 C 0.96688 0.92884 0.62996 0.0
C4130 C 0.94934 0.91222 0.61421 0.0
C4131 C 0.93144 0.91136 0.62083 0.0
C4132 C 0.93114 0.92002 0.63187 0.0
C4133 C 0.94888 0.9287 0.6363 0.0
C4134 C 0.95021 0.90329 0.60237 0.0
C4135 C 0.91234 0.91934 0.63918 0.0
C4136 C 0.88156 0.89904 0.6062 0.0
C4137 C 0.87996 0.87817 0.60823 0.0
C4138 C 0.89826 0.9101 0.61022 0.0
C4139 C 0.91354 0.90005 0.61652 0.0
C4140 C 0.9119 0.87902 0.61866 0.0
C4141 C 0.89518 0.86832 0.61444 0.0
C4142 C 0.89963 0.93246 0.60768 0.0
C4143 C 0.92778 0.8678 0.62544 0.0
H4144 H 0.98065 0.92131 0.61387 0.0
H4145 H 0.94886 0.93465 0.64491 0.0
H4146 H 0.9483 0.88662 0.60285 0.0
H4147 H 0.93764 0.90929 0.59709 0.0
H4148 H 0.96479 0.9066 0.59802 0.0
H4149 H 0.91412 0.92813 0.64719 0.0
H4150 H 0.89916 0.92541 0.63442 0.0
H4151 H 0.90882 0.9034 0.64142 0.0
H4152 H 0.86987 0.90664 0.60133 0.0
H4153 H 0.89382 0.85225 0.61616 0.0
H4154 H 0.91366 0.93569 0.6028 0.0
H4155 H 0.90054 0.94117 0.61575 0.0
H4156 H 0.88645 0.93801 0.6027 0.0
H4157 H 0.94271 0.86907 0.62116 0.0
H4158 H 0.92409 0.85149 0.62648 0.0
H4159 H 0.92934 0.87469 0.63402 0.0
C4160 C 0.81439 0.21228 0.36989 0.0
C4161 C 0.82481 0.22226 0.37866 0.0
C4162 C 0.82221 0.19455 0.36495 0.0
C4163 C 0.84088 0.18667 0.36888 0.0
C4164 C 0.85136 0.19657 0.3778 0.0
C4165 C 0.84318 0.2142 0.3826 0.0
C4166 C 0.81061 0.18437 0.35545 0.0
C4167 C 0.87129 0.1886 0.38226 0.0
C4168 C 0.85558 0.1318 0.36407 0.0
C4169 C 0.86968 0.13351 0.35517 0.0
C4170 C 0.84551 0.1489 0.36834 0.0
C4171 C 0.84971 0.16818 0.36364 0.0
C4172 C 0.86341 0.16993 0.35441 0.0
C4173 C 0.87323 0.15256 0.35029 0.0
C4174 C 0.83098 0.14643 0.37818 0.0
C4175 C 0.86822 0.19023 0.34914 0.0
H4176 H 0.80028 0.21854 0.36674 0.0
H4177 H 0.85113 0.22163 0.38951 0.0
H4178 H 0.81993 0.18413 0.34759 0.0
H4179 H 0.80736 0.1684 0.35775 0.0
H4180 H 0.79607 0.19214 0.35357 0.0
H4181 H 0.87745 0.19803 0.38929 0.0
H4182 H 0.86936 0.17288 0.38542 0.0
H4183 H 0.88259 0.18811 0.37527 0.0
H4184 H 0.85292 0.11717 0.36798 0.0
H4185 H 0.88386 0.15394 0.34329 0.0
H4186 H 0.8163 0.15379 0.37619 0.0
H4187 H 0.83721 0.15401 0.38586 0.0
H4188 H 0.82815 0.13026 0.38027 0.0
H4189 H 0.85406 0.19802 0.34657 0.0
H4190 H 0.87821 0.18884 0.34156 0.0
H4191 H 0.87586 0.2 0.35552 0.0
C4192 C 0.60688 0.12523 0.11898 0.0
C4193 C 0.61585 0.12069 0.10843 0.0
C4194 C 0.58974 0.11472 0.12282 0.0
C4195 C 0.58152 0.09899 0.11606 0.0
C4196 C 0.59074 0.09395 0.10554 0.0
C4197 C 0.60771 0.10495 0.10182 0.0
C4198 C 0.58027 0.12064 0.13405 0.0
C4199 C 0.58252 0.07712 0.09816 0.0
C4200 C 0.54644 0.06268 0.13159 0.0
C4201 C 0.52734 0.0706 0.12883 0.0
C4202 C 0.56422 0.0713 0.12715 0.0
C4203 C 0.56287 0.08835 0.11988 0.0
C4204 C 0.54363 0.09603 0.11679 0.0
C4205 C 0.52612 0.08699 0.12124 0.0
C4206 C 0.58447 0.06255 0.13054 0.0
C4207 C 0.54154 0.11423 0.10909 0.0
H4208 H 0.6133 0.13701 0.1243 0.0
H4209 H 0.61436 0.10143 0.09361 0.0
H4210 H 0.56437 0.12551 0.13267 0.0
H4211 H 0.57989 0.10741 0.13987 0.0
H4212 H 0.58859 0.13314 0.13832 0.0
H4213 H 0.5921 0.07432 0.09054 0.0
H4214 H 0.58145 0.06289 0.10316 0.0
H4215 H 0.56699 0.08097 0.09528 0.0
H4216 H 0.54756 0.05013 0.1375 0.0
H4217 H 0.51141 0.09292 0.11886 0.0
H4218 H 0.59284 0.07364 0.13585 0.0
H4219 H 0.59381 0.05957 0.12286 0.0
H4220 H 0.58289 0.04824 0.13544 0.0
H4221 H 0.5485 0.12765 0.11322 0.0
H4222 H 0.52547 0.11779 0.10711 0.0
H4223 H 0.54974 0.11162 0.10097 0.0
C4224 C 0.68697 0.20731 0.62498 0.0
C4225 C 0.67547 0.21834 0.61708 0.0
C4226 C 0.67924 0.18963 0.63001 0.0
C4227 C 0.65965 0.1828 0.62698 0.0
C4228 C 0.64812 0.19371 0.61887 0.0
C4229 C 0.65615 0.21138 0.61405 0.0
C4230 C 0.69189 0.17845 0.63869 0.0
C4231 C 0.62724 0.18679 0.61534 0.0
C4232 C 0.64365 0.1283 0.63188 0.0
C4233 C 0.63089 0.13026 0.64137 0.0
C4234 C 0.65364 0.1452 0.6273 0.0
C4235 C 0.65091 0.16443 0.6324 0.0
C4236 C 0.63869 0.16633 0.64226 0.0
C4237 C 0.62873 0.14923 0.64659 0.0
C4238 C 0.66642 0.14261 0.61673 0.0
C4239 C 0.63561 0.18655 0.64802 0.0
H4240 H 0.70184 0.21276 0.62741 0.0
H4241 H 0.64735 0.21973 0.60782 0.0
H4242 H 0.6839 0.17817 0.64701 0.0
H4243 H 0.69405 0.16249 0.636 0.0
H4244 H 0.70701 0.18551 0.63992 0.0
H4245 H 0.62048 0.19673 0.60871 0.0
H4246 H 0.62795 0.1711 0.61198 0.0
H4247 H 0.61704 0.18661 0.62285 0.0
H4248 H 0.64519 0.11368 0.62777 0.0
H4249 H 0.61905 0.15071 0.65401 0.0
H4250 H 0.68168 0.1492 0.61806 0.0
H4251 H 0.65934 0.15087 0.60952 0.0
H4252 H 0.66814 0.12645 0.61427 0.0
H4253 H 0.65045 0.19369 0.6499 0.0
H4254 H 0.62693 0.18519 0.65609 0.0
H4255 H 0.6273 0.1969 0.64222 0.0
C4256 C 0.54487 0.93824 0.37219 0.0
C4257 C 0.52958 0.92592 0.36768 0.0
C4258 C 0.56252 0.92969 0.37682 0.0
C4259 C 0.56505 0.90839 0.37665 0.0
C4260 C 0.54972 0.89594 0.37195 0.0
C4261 C 0.53205 0.90487 0.36763 0.0
C4262 C 0.57836 0.9434 0.38197 0.0
C4263 C 0.55204 0.87321 0.37139 0.0
C4264 C 0.61797 0.88621 0.3786 0.0
C4265 C 0.6182 0.87882 0.38979 0.0
C4266 C 0.60084 0.89611 0.37425 0.0
C4267 C 0.58374 0.89902 0.38134 0.0
C4268 C 0.58417 0.89213 0.39277 0.0
C4269 C 0.60134 0.88188 0.39682 0.0
C4270 C 0.6008 0.90287 0.36195 0.0
C4271 C 0.56639 0.89533 0.40066 0.0
H4272 H 0.54284 0.95453 0.37226 0.0
H4273 H 0.52025 0.8954 0.36403 0.0
H4274 H 0.58103 0.93913 0.39099 0.0
H4275 H 0.59295 0.94156 0.37739 0.0
H4276 H 0.57389 0.95961 0.38164 0.0
H4277 H 0.53892 0.86576 0.3672 0.0
H4278 H 0.56599 0.86925 0.36661 0.0
H4279 H 0.55368 0.86693 0.38011 0.0
H4280 H 0.63098 0.88365 0.37315 0.0
H4281 H 0.60163 0.87626 0.40551 0.0
H4282 H 0.5974 0.91928 0.36139 0.0
H4283 H 0.58871 0.89476 0.35722 0.0
H4284 H 0.61551 0.89994 0.35766 0.0
H4285 H 0.56211 0.91158 0.40083 0.0
H4286 H 0.5697 0.89033 0.40951 0.0
H4287 H 0.55309 0.88676 0.39749 0.0
C4288 C 0.84135 0.78655 0.11048 0.0
C4289 C 0.82237 0.77881 0.11361 0.0
C4290 C 0.84903 0.80419 0.1155 0.0
C4291 C 0.83738 0.81448 0.1238 0.0
C4292 C 0.81797 0.8071 0.1268 0.0
C4293 C 0.81071 0.78929 0.12169 0.0
C4294 C 0.86979 0.81161 0.11206 0.0
C4295 C 0.80508 0.81776 0.13557 0.0
C4296 C 0.86783 0.84719 0.14407 0.0
C4297 C 0.86599 0.86635 0.13902 0.0
C4298 C 0.85795 0.83028 0.13944 0.0
C4299 C 0.84592 0.83262 0.12955 0.0
C4300 C 0.84333 0.85206 0.12468 0.0
C4301 C 0.85343 0.8687 0.12947 0.0
C4302 C 0.86101 0.8098 0.1449 0.0
C4303 C 0.83055 0.85514 0.11415 0.0
H4304 H 0.85027 0.77875 0.10408 0.0
H4305 H 0.79611 0.7833 0.12423 0.0
H4306 H 0.86884 0.82742 0.10891 0.0
H4307 H 0.87998 0.81165 0.11958 0.0
H4308 H 0.87674 0.80207 0.10531 0.0
H4309 H 0.7899 0.8107 0.13649 0.0
H4310 H 0.81278 0.81741 0.14397 0.0
H4311 H 0.8031 0.83391 0.13321 0.0
H4312 H 0.87724 0.84535 0.15157 0.0
H4313 H 0.85209 0.88343 0.12546 0.0
H4314 H 0.86931 0.79973 0.13894 0.0
H4315 H 0.84618 0.80258 0.14668 0.0
H4316 H 0.86971 0.81077 0.15298 0.0
H4317 H 0.83782 0.84753 0.10678 0.0
H4318 H 0.82856 0.87143 0.11205 0.0
H4319 H 0.8154 0.84819 0.1153 0.0
C4320 C 0.95119 0.05613 0.87257 0.0
C4321 C 0.96808 0.06854 0.87064 0.0
C4322 C 0.93321 0.06413 0.87711 0.0
C4323 C 0.9321 0.08505 0.87969 0.0
C4324 C 0.94918 0.09759 0.87787 0.0
C4325 C 0.96696 0.08918 0.87338 0.0
C4326 C 0.91533 0.05029 0.87899 0.0
C4327 C 0.94854 0.12 0.88044 0.0
C4328 C 0.88129 0.11174 0.8799 0.0
C4329 C 0.87772 0.1141 0.89161 0.0
C4330 C 0.89868 0.10185 0.87592 0.0
C4331 C 0.91286 0.0941 0.88384 0.0
C4332 C 0.90913 0.09597 0.89568 0.0
C4333 C 0.89161 0.10602 0.89943 0.0
C4334 C 0.90219 0.10027 0.86323 0.0
C4335 C 0.92385 0.08775 0.90437 0.0
H4336 H 0.95207 0.04013 0.87058 0.0
H4337 H 0.97986 0.0989 0.87174 0.0
H4338 H 0.91019 0.05127 0.88798 0.0
H4339 H 0.90248 0.05516 0.87355 0.0
H4340 H 0.91893 0.03424 0.877 0.0
H4341 H 0.96334 0.12751 0.87889 0.0
H4342 H 0.93691 0.12742 0.87505 0.0
H4343 H 0.94416 0.12251 0.88946 0.0
H4344 H 0.87075 0.1182 0.87382 0.0
H4345 H 0.88879 0.10761 0.90849 0.0
H4346 H 0.90482 0.08426 0.86078 0.0
H4347 H 0.91597 0.10892 0.86086 0.0
H4348 H 0.88922 0.10621 0.85821 0.0
H4349 H 0.9269 0.0715 0.90269 0.0
H4350 H 0.91814 0.08937 0.91323 0.0
H4351 H 0.9385 0.09589 0.90367 0.0
C4352 C 0.80364 0.70182 0.62463 0.0
C4353 C 0.80988 0.7099 0.61415 0.0
C4354 C 0.8125 0.68412 0.62899 0.0
C4355 C 0.82808 0.6744 0.62277 0.0
C4356 C 0.83395 0.68211 0.612 0.0
C4357 C 0.82473 0.69974 0.60781 0.0
C4358 C 0.80566 0.67621 0.64044 0.0
C4359 C 0.8506 0.67225 0.60513 0.0
C4360 C 0.86757 0.64424 0.639 0.0
C4361 C 0.86168 0.62424 0.63674 0.0
C4362 C 0.85661 0.66067 0.63461 0.0
C4363 C 0.83924 0.65704 0.62784 0.0
C4364 C 0.83294 0.63691 0.62571 0.0
C4365 C 0.84426 0.62073 0.63017 0.0
C4366 C 0.86381 0.68194 0.63709 0.0
C4367 C 0.81445 0.63246 0.61857 0.0
H4368 H 0.79202 0.70954 0.6295 0.0
H4369 H 0.82978 0.70607 0.59977 0.0
H4370 H 0.80182 0.65989 0.63983 0.0
H4371 H 0.81817 0.67767 0.6467 0.0
H4372 H 0.79227 0.68453 0.64375 0.0
H4373 H 0.85242 0.6793 0.5966 0.0
H4374 H 0.86516 0.67353 0.60979 0.0
H4375 H 0.84742 0.65588 0.60399 0.0
H4376 H 0.8808 0.64708 0.64423 0.0
H4377 H 0.83974 0.60532 0.62827 0.0
H4378 H 0.85161 0.6907 0.64132 0.0
H4379 H 0.86746 0.68981 0.62899 0.0
H4380 H 0.87744 0.68218 0.64263 0.0
H4381 H 0.80109 0.64053 0.62206 0.0
H4382 H 0.81099 0.61601 0.61818 0.0
H4383 H 0.81684 0.63807 0.60976 0.0
C4384 C 0.61598 0.61915 0.87496 0.0
C4385 C 0.62534 0.6134 0.88519 0.0
C4386 C 0.59904 0.60869 0.87081 0.0
C4387 C 0.59119 0.59214 0.87708 0.0
C4388 C 0.60087 0.58594 0.88727 0.0
C4389 C 0.6179 0.59661 0.89118 0.0
C4390 C 0.58926 0.61565 0.85985 0.0
C4391 C 0.59285 0.56845 0.89422 0.0
C4392 C 0.53528 0.58131 0.873 0.0
C4393 C 0.53561 0.56472 0.86552 0.0
C4394 C 0.55326 0.59006 0.87699 0.0
C4395 C 0.57211 0.58222 0.87333 0.0
C4396 C 0.57262 0.56543 0.86583 0.0
C4397 C 0.55436 0.55684 0.86203 0.0
C4398 C 0.55207 0.60796 0.88499 0.0
C4399 C 0.59245 0.55672 0.86171 0.0
H4400 H 0.62191 0.63191 0.8702 0.0
H4401 H 0.62503 0.5922 0.89913 0.0
H4402 H 0.58789 0.60279 0.85382 0.0
H4403 H 0.57372 0.62121 0.86162 0.0
H4404 H 0.59795 0.62798 0.85565 0.0
H4405 H 0.60284 0.56473 0.90154 0.0
H4406 H 0.57757 0.57224 0.89753 0.0
H4407 H 0.59122 0.55478 0.8888 0.0
H4408 H 0.52091 0.58779 0.87557 0.0
H4409 H 0.55476 0.54391 0.85635 0.0
H4410 H 0.55892 0.62146 0.88089 0.0
H4411 H 0.56084 0.60482 0.89286 0.0
H4412 H 0.53624 0.61166 0.88742 0.0
H4413 H 0.60101 0.56842 0.85693 0.0
H4414 H 0.59026 0.54336 0.85609 0.0
H4415 H 0.60193 0.55216 0.86908 0.0
C4416 C 0.62882 0.35349 0.14139 0.0
C4417 C 0.63409 0.37337 0.1384 0.0
C4418 C 0.63933 0.33685 0.1369 0.0
C4419 C 0.65565 0.34015 0.1293 0.0
C4420 C 0.66145 0.36016 0.12649 0.0
C4421 C 0.65055 0.37654 0.13103 0.0
C4422 C 0.63267 0.31571 0.14009 0.0
C4423 C 0.67886 0.36427 0.11847 0.0
C4424 C 0.6911 0.29553 0.12488 0.0
C4425 C 0.68355 0.28721 0.11474 0.0
C4426 C 0.68263 0.31319 0.12953 0.0
C4427 C 0.66607 0.32257 0.12397 0.0
C4428 C 0.65873 0.3145 0.11358 0.0
C4429 C 0.66762 0.29696 0.10907 0.0
C4430 C 0.69105 0.32153 0.14054 0.0
C4431 C 0.64098 0.32395 0.10745 0.0
H4432 H 0.61637 0.35091 0.14723 0.0
H4433 H 0.65459 0.39182 0.12856 0.0
H4434 H 0.62778 0.30741 0.13235 0.0
H4435 H 0.64554 0.3072 0.14384 0.0
H4436 H 0.61997 0.31575 0.1463 0.0
H4437 H 0.68231 0.38068 0.11774 0.0
H4438 H 0.69266 0.35625 0.12142 0.0
H4439 H 0.67518 0.35836 0.10986 0.0
H4440 H 0.70355 0.28811 0.12923 0.0
H4441 H 0.66159 0.29042 0.1013 0.0
H4442 H 0.67945 0.3204 0.14735 0.0
H4443 H 0.69483 0.3378 0.13953 0.0
H4444 H 0.70484 0.3133 0.14336 0.0
H4445 H 0.62726 0.323 0.11288 0.0
H4446 H 0.63774 0.31639 0.09919 0.0
H4447 H 0.64394 0.34023 0.10582 0.0
C4448 C 0.87657 0.3995 0.37957 0.0
C4449 C 0.87637 0.39127 0.39061 0.0
C4450 C 0.89386 0.40921 0.37526 0.0
C4451 C 0.91151 0.41038 0.38206 0.0
C4452 C 0.91121 0.40279 0.39334 0.0
C4453 C 0.89359 0.39353 0.39751 0.0
C4454 C 0.89349 0.41742 0.36325 0.0
C4455 C 0.9298 0.40359 0.40082 0.0
C4456 C 0.96177 0.41121 0.36647 0.0
C4457 C 0.96772 0.43152 0.36762 0.0
C4458 C 0.94362 0.40417 0.37121 0.0
C4459 C 0.93078 0.41785 0.37704 0.0
C4460 C 0.93641 0.43845 0.37805 0.0
C4461 C 0.9549 0.44501 0.37342 0.0
C4462 C 0.93824 0.38203 0.37003 0.0
C4463 C 0.92292 0.45352 0.38405 0.0
H4464 H 0.86351 0.39767 0.37408 0.0
H4465 H 0.89346 0.38766 0.40613 0.0
H4466 H 0.89958 0.43308 0.36305 0.0
H4467 H 0.90331 0.40798 0.35772 0.0
H4468 H 0.87797 0.41751 0.3596 0.0
H4469 H 0.9267 0.39826 0.40963 0.0
H4470 H 0.94186 0.39394 0.39709 0.0
H4471 H 0.9358 0.41926 0.40124 0.0
H4472 H 0.97126 0.40074 0.36177 0.0
H4473 H 0.95941 0.46067 0.37448 0.0
H4474 H 0.9238 0.38042 0.36528 0.0
H4475 H 0.93594 0.37522 0.37857 0.0
H4476 H 0.95014 0.37328 0.36549 0.0
H4477 H 0.90767 0.45358 0.38007 0.0
H4478 H 0.92915 0.46914 0.38377 0.0
H4479 H 0.92092 0.44906 0.39309 0.0
C4480 C 0.84319 0.37202 0.86 0.0
C4481 C 0.8638 0.37009 0.85732 0.0
C4482 C 0.83214 0.35551 0.86428 0.0
C4483 C 0.84194 0.33664 0.86585 0.0
C4484 C 0.86263 0.33452 0.86293 0.0
C4485 C 0.87331 0.35127 0.85871 0.0
C4486 C 0.81012 0.35834 0.86735 0.0
C4487 C 0.87359 0.3146 0.86438 0.0
C4488 C 0.82258 0.29794 0.88713 0.0
C4489 C 0.8135 0.2836 0.87994 0.0
C4490 C 0.83122 0.31569 0.88269 0.0
C4491 C 0.83081 0.31913 0.87078 0.0
C4492 C 0.82099 0.30511 0.86353 0.0
C4493 C 0.81243 0.28752 0.8682 0.0
C4494 C 0.84152 0.33032 0.8907 0.0
C4495 C 0.82018 0.30829 0.8508 0.0
H4496 H 0.83583 0.3866 0.85904 0.0
H4497 H 0.88916 0.34964 0.85649 0.0
H4498 H 0.80066 0.34703 0.86282 0.0
H4499 H 0.80798 0.35579 0.87662 0.0
H4500 H 0.80453 0.37375 0.8652 0.0
H4501 H 0.88957 0.31536 0.86145 0.0
H4502 H 0.87345 0.31008 0.87349 0.0
H4503 H 0.8657 0.30253 0.85952 0.0
H4504 H 0.82367 0.29493 0.89619 0.0
H4505 H 0.80514 0.27665 0.86263 0.0
H4506 H 0.83584 0.34592 0.88926 0.0
H4507 H 0.85805 0.33045 0.88898 0.0
H4508 H 0.8391 0.32628 0.89979 0.0
H4509 H 0.81402 0.32352 0.84881 0.0
H4510 H 0.81074 0.29672 0.84644 0.0
H4511 H 0.83573 0.3076 0.84722 0.0
C4512 C 0.9565 0.55517 0.12039 0.0
C4513 C 0.96142 0.55756 0.13195 0.0
C4514 C 0.93878 0.56365 0.11585 0.0
C4515 C 0.9256 0.5747 0.12304 0.0
C4516 C 0.92995 0.57632 0.13482 0.0
C4517 C 0.94784 0.56777 0.13913 0.0
C4518 C 0.93463 0.56154 0.10325 0.0
C4519 C 0.91622 0.58792 0.14277 0.0
C4520 C 0.89462 0.61688 0.10973 0.0
C4521 C 0.87541 0.60796 0.10884 0.0
C4522 C 0.91105 0.60616 0.11429 0.0
C4523 C 0.90822 0.58601 0.11808 0.0
C4524 C 0.88891 0.57685 0.11719 0.0
C4525 C 0.87271 0.58794 0.11257 0.0
C4526 C 0.93141 0.61648 0.11512 0.0
C4527 C 0.88536 0.55538 0.12114 0.0
H4528 H 0.96676 0.547 0.11483 0.0
H4529 H 0.9516 0.56987 0.14804 0.0
H4530 H 0.91901 0.5559 0.10181 0.0
H4531 H 0.93577 0.57659 0.0991 0.0
H4532 H 0.94544 0.55108 0.09901 0.0
H4533 H 0.92071 0.58614 0.15184 0.0
H4534 H 0.91667 0.60427 0.14059 0.0
H4535 H 0.90032 0.58279 0.14178 0.0
H4536 H 0.89674 0.63244 0.10706 0.0
H4537 H 0.85794 0.58091 0.11181 0.0
H4538 H 0.94297 0.60763 0.11039 0.0
H4539 H 0.93632 0.61714 0.12416 0.0
H4540 H 0.93113 0.63213 0.11165 0.0
H4541 H 0.89555 0.54489 0.11649 0.0
H4542 H 0.86945 0.55044 0.11979 0.0
H4543 H 0.88901 0.55404 0.13033 0.0
C4544 C 0.65875 0.62172 0.36203 0.0
C4545 C 0.63815 0.62404 0.35938 0.0
C4546 C 0.67011 0.63798 0.36636 0.0
C4547 C 0.66063 0.65697 0.36805 0.0
C4548 C 0.6399 0.65943 0.36531 0.0
C4549 C 0.62892 0.64293 0.36104 0.0
C4550 C 0.69219 0.63484 0.36917 0.0
C4551 C 0.62923 0.67944 0.36701 0.0
C4552 C 0.68059 0.6958 0.38901 0.0
C4553 C 0.68918 0.71023 0.38169 0.0
C4554 C 0.6721 0.67789 0.38473 0.0
C4555 C 0.67215 0.67435 0.37283 0.0
C4556 C 0.68164 0.68838 0.36544 0.0
C4557 C 0.69006 0.70615 0.36996 0.0
C4558 C 0.66215 0.66326 0.39288 0.0
C4559 C 0.68209 0.68508 0.35271 0.0
H4560 H 0.66602 0.60721 0.36066 0.0
H4561 H 0.61294 0.64476 0.35921 0.0
H4562 H 0.70165 0.64567 0.36429 0.0
H4563 H 0.69484 0.6379 0.37835 0.0
H4564 H 0.69736 0.6192 0.36724 0.0
H4565 H 0.61314 0.67892 0.36426 0.0
H4566 H 0.62975 0.6838 0.37614 0.0
H4567 H 0.63707 0.6915 0.36212 0.0
H4568 H 0.67967 0.69893 0.39807 0.0
H4569 H 0.69697 0.7171 0.36428 0.0
H4570 H 0.6676 0.64762 0.3913 0.0
H4571 H 0.64553 0.6633 0.39147 0.0
H4572 H 0.66513 0.66721 0.40193 0.0
H4573 H 0.68787 0.66972 0.3507 0.0
H4574 H 0.69167 0.69643 0.34826 0.0
H4575 H 0.66647 0.6861 0.34926 0.0
C4576 C 0.60342 0.37808 0.60618 0.0
C4577 C 0.623 0.3862 0.60669 0.0
C4578 C 0.58677 0.38888 0.61042 0.0
C4579 C 0.58984 0.40816 0.61542 0.0
C4580 C 0.60953 0.41664 0.61572 0.0
C4581 C 0.62589 0.40559 0.61126 0.0
C4582 C 0.56596 0.37945 0.6098 0.0
C4583 C 0.61341 0.43704 0.62109 0.0
C4584 C 0.54291 0.44064 0.61936 0.0
C4585 C 0.53722 0.43575 0.63056 0.0
C4586 C 0.56034 0.43224 0.6144 0.0
C4587 C 0.57253 0.41884 0.62085 0.0
C4588 C 0.56739 0.41456 0.63231 0.0
C4589 C 0.54975 0.42293 0.63699 0.0
C4590 C 0.56529 0.43709 0.60214 0.0
C4591 C 0.58012 0.40049 0.6395 0.0
H4592 H 0.60116 0.36317 0.60253 0.0
H4593 H 0.64107 0.41179 0.61173 0.0
H4594 H 0.5602 0.37656 0.61853 0.0
H4595 H 0.55522 0.38999 0.6056 0.0
H4596 H 0.56599 0.36491 0.60503 0.0
H4597 H 0.62936 0.44205 0.62001 0.0
H4598 H 0.60327 0.44864 0.61733 0.0
H4599 H 0.60998 0.4363 0.63034 0.0
H4600 H 0.53355 0.45081 0.61438 0.0
H4601 H 0.54539 0.4188 0.64559 0.0
H4602 H 0.56401 0.42316 0.5969 0.0
H4603 H 0.58114 0.44252 0.6014 0.0
H4604 H 0.55503 0.44878 0.59853 0.0
H4605 H 0.57927 0.3849 0.636 0.0
H4606 H 0.57507 0.40012 0.64852 0.0
H4607 H 0.59625 0.40519 0.63924 0.0
C4608 C 0.13848 0.35472 0.35052 0.0
C4609 C 0.13625 0.37199 0.3574 0.0
C4610 C 0.14763 0.33708 0.35475 0.0
C4611 C 0.15513 0.3368 0.36604 0.0
C4612 C 0.15392 0.35447 0.37283 0.0
C4613 C 0.14432 0.37177 0.36847 0.0
C4614 C 0.14848 0.31847 0.34728 0.0
C4615 C 0.16205 0.35486 0.38485 0.0
C4616 C 0.15624 0.28657 0.38166 0.0
C4617 C 0.17658 0.28073 0.3805 0.0
C4618 C 0.14909 0.30467 0.3769 0.0
C4619 C 0.16269 0.31758 0.37107 0.0
C4620 C 0.18332 0.31206 0.37005 0.0
C4621 C 0.18999 0.29361 0.37468 0.0
C4622 C 0.12692 0.30992 0.37808 0.0
C4623 C 0.19833 0.32563 0.36405 0.0
H4624 H 0.13273 0.35485 0.34187 0.0
H4625 H 0.1425 0.38487 0.37394 0.0
H4626 H 0.16418 0.31257 0.34683 0.0
H4627 H 0.13894 0.30636 0.35105 0.0
H4628 H 0.14306 0.32151 0.33848 0.0
H4629 H 0.16198 0.37037 0.38853 0.0
H4630 H 0.15267 0.34494 0.39036 0.0
H4631 H 0.17775 0.34891 0.38508 0.0
H4632 H 0.14583 0.27704 0.38636 0.0
H4633 H 0.20567 0.28918 0.3736 0.0
H4634 H 0.12011 0.31218 0.36953 0.0
H4635 H 0.12521 0.32435 0.38283 0.0
H4636 H 0.11823 0.29797 0.38261 0.0
H4637 H 0.19387 0.32758 0.35501 0.0
H4638 H 0.21398 0.31949 0.36435 0.0
H4639 H 0.19828 0.34088 0.36802 0.0
C4640 C 0.38084 0.39878 0.10825 0.0
C4641 C 0.38016 0.3776 0.10932 0.0
C4642 C 0.39737 0.40996 0.11239 0.0
C4643 C 0.41387 0.39968 0.11745 0.0
C4644 C 0.41345 0.37833 0.11844 0.0
C4645 C 0.39651 0.36761 0.11452 0.0
C4646 C 0.39713 0.43276 0.1114 0.0
C4647 C 0.43092 0.36679 0.12363 0.0
C4648 C 0.46543 0.42493 0.11886 0.0
C4649 C 0.46688 0.4299 0.13047 0.0
C4650 C 0.44815 0.41536 0.11446 0.0
C4651 C 0.43164 0.41115 0.12178 0.0
C4652 C 0.43258 0.41691 0.13338 0.0
C4653 C 0.45027 0.42595 0.13762 0.0
C4654 C 0.44783 0.40915 0.10207 0.0
C4655 C 0.41511 0.41303 0.14139 0.0
H4656 H 0.36851 0.4067 0.1041 0.0
H4657 H 0.39604 0.35134 0.11568 0.0
H4658 H 0.39896 0.43968 0.11996 0.0
H4659 H 0.41004 0.43793 0.10611 0.0
H4660 H 0.38287 0.43849 0.10755 0.0
H4661 H 0.42859 0.35014 0.12333 0.0
H4662 H 0.44517 0.37048 0.11907 0.0
H4663 H 0.43296 0.37137 0.13266 0.0
H4664 H 0.47792 0.42831 0.11318 0.0
H4665 H 0.45122 0.42938 0.14663 0.0
H4666 H 0.43443 0.41573 0.09774 0.0
H4667 H 0.44652 0.39244 0.10143 0.0
H4668 H 0.46168 0.41401 0.09745 0.0
H4669 H 0.40082 0.41894 0.13769 0.0
H4670 H 0.41746 0.42017 0.14986 0.0
H4671 H 0.41315 0.3965 0.14263 0.0
C4672 C 0.30681 0.70144 0.87489 0.0
C4673 C 0.3195 0.71714 0.87861 0.0
C4674 C 0.31493 0.68337 0.87052 0.0
C4675 C 0.33621 0.68098 0.8699 0.0
C4676 C 0.34907 0.69675 0.8737 0.0
C4677 C 0.34056 0.71461 0.87801 0.0
C4678 C 0.30077 0.66688 0.86654 0.0
C4679 C 0.37185 0.69473 0.87325 0.0
C4680 C 0.36042 0.62895 0.86875 0.0
C4681 C 0.36594 0.62751 0.85723 0.0
C4682 C 0.35008 0.64596 0.87291 0.0
C4683 C 0.34521 0.66198 0.86539 0.0
C4684 C 0.35018 0.66038 0.85368 0.0
C4685 C 0.36047 0.64315 0.84974 0.0
C4686 C 0.34502 0.64711 0.88545 0.0
C4687 C 0.34518 0.67714 0.84539 0.0
H4688 H 0.29053 0.70339 0.87526 0.0
H4689 H 0.35044 0.72655 0.88106 0.0
H4690 H 0.30359 0.66347 0.85742 0.0
H4691 H 0.30368 0.65275 0.87139 0.0
H4692 H 0.2846 0.6711 0.86761 0.0
H4693 H 0.3797 0.70846 0.87647 0.0
H4694 H 0.37675 0.68154 0.87842 0.0
H4695 H 0.37681 0.69192 0.86435 0.0
H4696 H 0.36479 0.61705 0.87462 0.0
H4697 H 0.3644 0.642 0.84079 0.0
H4698 H 0.32875 0.6507 0.88664 0.0
H4699 H 0.35384 0.65949 0.88948 0.0
H4700 H 0.34846 0.63275 0.88999 0.0
H4701 H 0.32884 0.68096 0.84589 0.0
H4702 H 0.34891 0.673 0.83646 0.0
H4703 H 0.35378 0.69099 0.84769 0.0
C4704 C 0.04581 0.55491 0.62573 0.0
C4705 C 0.02812 0.56672 0.62595 0.0
C4706 C 0.0641 0.56276 0.62152 0.0
C4707 C 0.06466 0.58278 0.61723 0.0
C4708 C 0.04676 0.59456 0.61707 0.0
C4709 C 0.0288 0.58648 0.62154 0.0
C4710 C 0.08295 0.54984 0.62195 0.0
C4711 C 0.04669 0.61591 0.61246 0.0
C4712 C 0.11338 0.61309 0.61763 0.0
C4713 C 0.11976 0.61184 0.60623 0.0
C4714 C 0.09588 0.6031 0.62138 0.0
C4715 C 0.08414 0.59193 0.61351 0.0
C4716 C 0.09051 0.59038 0.60202 0.0
C4717 C 0.10834 0.6002 0.59854 0.0
C4718 C 0.0897 0.60494 0.63374 0.0
C4719 C 0.07823 0.57877 0.59336 0.0
H4720 H 0.04542 0.53952 0.62893 0.0
H4721 H 0.0154 0.59593 0.62183 0.0
H4722 H 0.08986 0.54872 0.61336 0.0
H4723 H 0.09432 0.55702 0.62762 0.0
H4724 H 0.07983 0.5343 0.62513 0.0
H4725 H 0.03121 0.62248 0.61213 0.0
H4726 H 0.05627 0.62574 0.61791 0.0
H4727 H 0.05324 0.61621 0.60375 0.0
H4728 H 0.12178 0.62233 0.62362 0.0
H4729 H 0.11326 0.59883 0.58977 0.0
H4730 H 0.08715 0.5897 0.63745 0.0
H4731 H 0.07522 0.61338 0.63438 0.0
H4732 H 0.10127 0.61293 0.63894 0.0
H4733 H 0.07584 0.56298 0.59627 0.0
H4734 H 0.08561 0.57843 0.58485 0.0
H4735 H 0.06306 0.58583 0.59245 0.0
C4736 C 0.14914 0.63203 0.14126 0.0
C4737 C 0.12851 0.62968 0.13869 0.0
C4738 C 0.16013 0.64871 0.13715 0.0
C4739 C 0.15024 0.66338 0.13034 0.0
C4740 C 0.12946 0.66103 0.12768 0.0
C4741 C 0.11888 0.64421 0.13186 0.0
C4742 C 0.18227 0.65073 0.14016 0.0
C4743 C 0.11837 0.67634 0.12042 0.0
C4744 C 0.16992 0.71713 0.12797 0.0
C4745 C 0.17847 0.71712 0.11702 0.0
C4746 C 0.16134 0.69953 0.13259 0.0
C4747 C 0.16137 0.68144 0.12611 0.0
C4748 C 0.17074 0.6811 0.11526 0.0
C4749 C 0.17918 0.69896 0.11083 0.0
C4750 C 0.15158 0.70048 0.14421 0.0
C4751 C 0.17112 0.66207 0.10812 0.0
H4752 H 0.15663 0.62095 0.14661 0.0
H4753 H 0.10305 0.64231 0.12966 0.0
H4754 H 0.19149 0.65178 0.13228 0.0
H4755 H 0.18477 0.6649 0.14504 0.0
H4756 H 0.18783 0.63777 0.14531 0.0
H4757 H 0.10224 0.67222 0.11908 0.0
H4758 H 0.11901 0.69147 0.12451 0.0
H4759 H 0.12583 0.67768 0.11198 0.0
H4760 H 0.16967 0.73103 0.13288 0.0
H4761 H 0.18564 0.69888 0.10234 0.0
H4762 H 0.1576 0.6883 0.14976 0.0
H4763 H 0.13502 0.69799 0.14339 0.0
H4764 H 0.1541 0.71529 0.14847 0.0
H4765 H 0.17711 0.64919 0.11317 0.0
H4766 H 0.18051 0.66384 0.10033 0.0
H4767 H 0.15547 0.65809 0.10552 0.0
C4768 C 0.11919 0.3894 0.87858 0.0
C4769 C 0.11911 0.3826 0.88991 0.0
C4770 C 0.10239 0.39942 0.87393 0.0
C4771 C 0.08497 0.40251 0.88073 0.0
C4772 C 0.08501 0.39633 0.89228 0.0
C4773 C 0.10211 0.38652 0.89675 0.0
C4774 C 0.10297 0.40592 0.86159 0.0
C4775 C 0.0667 0.39937 0.8998 0.0
C4776 C 0.04432 0.43908 0.87058 0.0
C4777 C 0.0303 0.42581 0.86558 0.0
C4778 C 0.06225 0.43177 0.87553 0.0
C4779 C 0.06618 0.4107 0.87551 0.0
C4780 C 0.05215 0.39725 0.87042 0.0
C4781 C 0.03445 0.40497 0.86548 0.0
C4782 C 0.07694 0.44654 0.88083 0.0
C4783 C 0.05581 0.37467 0.87022 0.0
H4784 H 0.13212 0.38624 0.87317 0.0
H4785 H 0.10206 0.38166 0.90557 0.0
H4786 H 0.09212 0.39668 0.85658 0.0
H4787 H 0.09824 0.42197 0.86077 0.0
H4788 H 0.11827 0.40416 0.85779 0.0
H4789 H 0.06966 0.39499 0.90879 0.0
H4790 H 0.06181 0.41543 0.89959 0.0
H4791 H 0.05391 0.39012 0.89655 0.0
H4792 H 0.04111 0.45517 0.8708 0.0
H4793 H 0.02389 0.39466 0.86145 0.0
H4794 H 0.09203 0.44503 0.87676 0.0
H4795 H 0.07888 0.44306 0.89001 0.0
H4796 H 0.07181 0.46249 0.87997 0.0
H4797 H 0.07009 0.37131 0.86561 0.0
H4798 H 0.04327 0.36627 0.86603 0.0
H4799 H 0.05755 0.36889 0.87904 0.0
C4800 C 0.31333 0.29596 0.61821 0.0
C4801 C 0.32223 0.27692 0.62001 0.0
C4802 C 0.32189 0.31358 0.62286 0.0
C4803 C 0.33991 0.31217 0.62934 0.0
C4804 C 0.34861 0.29296 0.63149 0.0
C4805 C 0.33958 0.27558 0.62688 0.0
C4806 C 0.31202 0.33379 0.62052 0.0
C4807 C 0.3679 0.29082 0.63831 0.0
C4808 C 0.37546 0.35723 0.62971 0.0
C4809 C 0.37235 0.36514 0.64068 0.0
C4810 C 0.3649 0.3401 0.62592 0.0
C4811 C 0.35054 0.33081 0.63318 0.0
C4812 C 0.34687 0.33897 0.64414 0.0
C4813 C 0.35793 0.35595 0.64779 0.0
C4814 C 0.36935 0.33178 0.61419 0.0
C4815 C 0.33145 0.32962 0.65205 0.0
H4816 H 0.30003 0.29721 0.61285 0.0
H4817 H 0.34629 0.2609 0.62856 0.0
H4818 H 0.31002 0.34236 0.62857 0.0
H4819 H 0.32194 0.34296 0.6149 0.0
H4820 H 0.29702 0.33212 0.61633 0.0
H4821 H 0.37219 0.27473 0.63967 0.0
H4822 H 0.38048 0.29856 0.6338 0.0
H4823 H 0.36621 0.29824 0.64674 0.0
H4824 H 0.38616 0.36448 0.62401 0.0
H4825 H 0.35551 0.3618 0.65631 0.0
H4826 H 0.35531 0.33151 0.609 0.0
H4827 H 0.37481 0.31593 0.61488 0.0
H4828 H 0.38096 0.34081 0.60959 0.0
H4829 H 0.31657 0.32846 0.64771 0.0
H4830 H 0.32952 0.33849 0.66002 0.0
H4831 H 0.33618 0.31402 0.65433 0.0
C4832 C 0.45457 0.55814 0.37195 0.0
C4833 C 0.46767 0.57082 0.3658 0.0
C4834 C 0.43637 0.56561 0.37651 0.0
C4835 C 0.43116 0.5862 0.37485 0.0
C4836 C 0.44418 0.59897 0.36851 0.0
C4837 C 0.46225 0.59112 0.36407 0.0
C4838 C 0.42286 0.55157 0.38324 0.0
C4839 C 0.43911 0.62099 0.36649 0.0
C4840 C 0.37699 0.60469 0.37785 0.0
C4841 C 0.37767 0.61454 0.38844 0.0
C4842 C 0.39412 0.59479 0.37347 0.0
C4843 C 0.41229 0.59465 0.37987 0.0
C4844 C 0.41283 0.60388 0.39076 0.0
C4845 C 0.39552 0.61378 0.39489 0.0
C4846 C 0.393 0.5852 0.36181 0.0
C4847 C 0.43187 0.60389 0.39788 0.0
H4848 H 0.45877 0.54248 0.37339 0.0
H4849 H 0.47213 0.6009 0.35915 0.0
H4850 H 0.42135 0.5572 0.39211 0.0
H4851 H 0.40745 0.55131 0.37948 0.0
H4852 H 0.42881 0.53584 0.3835 0.0
H4853 H 0.45069 0.62878 0.36121 0.0
H4854 H 0.42423 0.62228 0.36217 0.0
H4855 H 0.43787 0.62903 0.37477 0.0
H4856 H 0.36327 0.60539 0.37279 0.0
H4857 H 0.39601 0.62115 0.40315 0.0
H4858 H 0.39848 0.56934 0.36215 0.0
H4859 H 0.40301 0.59354 0.35584 0.0
H4860 H 0.37736 0.58529 0.35831 0.0
H4861 H 0.43774 0.58824 0.39884 0.0
H4862 H 0.42935 0.6104 0.4065 0.0
H4863 H 0.44378 0.61288 0.39353 0.0
loop_
_geom_bond_atom_site_label_1
_geom_bond_atom_site_label_2
_geom_bond_distance
_geom_bond_site_symmetry_2
_ccdc_geom_bond_type
Li0 N17 1.990 . S
Li0 O60 1.956 . S
Li0 O61 1.970 . S
Li0 O62 1.961 . S
Li1 N25 1.990 . S
Li1 O60 1.970 . S
Li1 O61 1.956 . S
Li1 O63 1.961 . S
Li2 N47 1.990 1_545 S
Li2 O60 1.961 . S
Li2 O62 1.956 . S
Li2 O63 1.970 . S
Li3 N53 1.990 . S
Li3 O61 1.961 . S
Li3 O62 1.970 . S
Li3 O63 1.956 . S
C4 C6 1.348 . S
C4 C7 1.356 . S
C4 O60 1.325 1_565 S
N5 C8 1.314 . S
N5 C9 1.279 . S
C6 C4 1.348 . S
C6 C8 1.353 . S
C6 H64 0.942 . S
C7 C4 1.356 . S
C7 C9 1.358 . S
C7 H65 0.930 . S
C8 N5 1.314 . S
C8 C6 1.353 . S
C8 H66 0.930 . S
C9 N5 1.279 . S
C9 C7 1.358 . S
C9 H67 0.930 . S
C10 C13 1.348 . S
C10 C14 1.356 . S
C10 O61 1.325 . S
C11 N12 1.279 . S
C11 C14 1.358 . S
C11 H68 0.930 . S
N12 C11 1.279 . S
N12 C15 1.314 . S
C13 C10 1.348 . S
C13 C15 1.353 . S
C13 H69 0.929 . S
C14 C10 1.356 . S
C14 C11 1.358 . S
C14 H70 0.930 . S
C15 N12 1.314 . S
C15 C13 1.353 . S
C15 H71 0.930 . S
C16 N17 1.314 . S
C16 C21 1.353 . S
C16 H22 0.930 . S
N17 Li0 1.990 . S
N17 C16 1.314 . S
N17 C19 1.279 . S
C18 C19 1.358 . S
C18 C20 1.356 . S
C18 H72 0.930 . S
C19 N17 1.279 . S
C19 C18 1.358 . S
C19 H23 0.930 . S
C20 C18 1.356 . S
C20 C21 1.348 . S
C21 C16 1.353 . S
C21 C20 1.348 . S
C21 H73 0.929 . S
H22 C16 0.930 . S
H23 C19 0.930 . S
C24 N25 1.314 . S
C24 C26 1.353 . S
C24 H30 0.930 . S
N25 Li1 1.990 . S
N25 C24 1.314 . S
N25 C28 1.279 . S
C26 C24 1.353 . S
C26 C29 1.348 . S
C26 H74 0.950 . S
C27 C28 1.358 . S
C27 C29 1.356 . S
C27 H75 0.930 . S
C28 N25 1.279 . S
C28 C27 1.358 . S
C28 H31 0.930 . S
C29 C26 1.348 . S
C29 C27 1.356 . S
H30 C24 0.930 . S
H31 C28 0.930 . S
C32 C34 1.348 . S
C32 C35 1.356 . S
C32 O62 1.325 . S
N33 C36 1.314 . S
N33 C37 1.279 . S
C34 C32 1.348 . S
C34 C36 1.353 . S
C34 H76 0.929 . S
C35 C32 1.356 . S
C35 C37 1.358 . S
C35 H77 0.930 . S
C36 N33 1.314 . S
C36 C34 1.353 . S
C36 H78 0.930 . S
C37 N33 1.279 . S
C37 C35 1.358 . S
C37 H79 0.930 . S
C38 C39 1.348 . S
C38 C40 1.356 . S
C38 O63 1.325 . S
C39 C38 1.348 . S
C39 C41 1.353 . S
C39 H80 0.929 . S
C40 C38 1.356 . S
C40 C42 1.358 . S
C40 H81 0.930 . S
C41 C39 1.353 . S
C41 N43 1.314 . S
C41 H82 0.930 . S
C42 C40 1.358 . S
C42 N43 1.279 . S
C42 H83 0.930 . S
N43 C41 1.314 . S
N43 C42 1.279 . S
C44 C46 1.353 . S
C44 N47 1.314 . S
C44 H50 0.930 . S
C45 N47 1.279 . S
C45 C48 1.358 . S
C45 H51 0.930 1_565 S
C46 C44 1.353 . S
C46 C49 1.348 . S
C46 H84 0.929 . S
N47 Li2 1.990 1_565 S
N47 C44 1.314 . S
N47 C45 1.279 . S
C48 C45 1.358 . S
C48 C49 1.356 . S
C48 H85 0.930 . S
C49 C46 1.348 . S
C49 C48 1.356 . S
H50 C44 0.930 . S
H51 C45 0.930 1_545 S
C52 N53 1.314 . S
C52 C54 1.353 . S
C52 H58 0.930 . S
N53 Li3 1.990 . S
N53 C52 1.314 . S
N53 C56 1.279 . S
C54 C52 1.353 . S
C54 C57 1.348 . S
C54 H86 0.929 . S
C55 C56 1.358 . S
C55 C57 1.356 . S
C55 H87 0.930 . S
C56 N53 1.279 . S
C56 C55 1.358 . S
C56 H59 0.930 . S
C57 C54 1.348 . S
C57 C55 1.356 . S
H58 C52 0.930 . S
H59 C56 0.930 . S
O60 Li0 1.956 . S
O60 Li1 1.970 . S
O60 Li2 1.961 . S
O60 C4 1.325 1_545 S
O61 Li0 1.970 . S
O61 Li1 1.956 . S
O61 Li3 1.961 . S
O61 C10 1.325 . S
O62 Li0 1.961 . S
O62 Li2 1.956 . S
O62 Li3 1.970 . S
O62 C32 1.325 . S
O63 Li1 1.961 . S
O63 Li2 1.970 . S
O63 Li3 1.956 . S
O63 C38 1.325 . S
H64 C6 0.942 . S
H65 C7 0.930 . S
H66 C8 0.930 . S
H67 C9 0.930 . S
H68 C11 0.930 . S
H69 C13 0.929 . S
H70 C14 0.930 . S
H71 C15 0.930 . S
H72 C18 0.930 . S
H73 C21 0.929 . S
H74 C26 0.950 . S
H75 C27 0.930 . S
H76 C34 0.929 . S
H77 C35 0.930 . S
H78 C36 0.930 . S
H79 C37 0.930 . S
H80 C39 0.929 . S
H81 C40 0.930 . S
H82 C41 0.930 . S
H83 C42 0.930 . S
H84 C46 0.929 . S
H85 C48 0.930 . S
H86 C54 0.929 . S
H87 C55 0.930 . S
Li88 N105 1.990 . S
Li88 O148 1.956 . S
Li88 O149 1.970 . S
Li88 O150 1.961 . S
Li89 N113 1.990 . S
Li89 O148 1.970 . S
Li89 O149 1.956 . S
Li89 O151 1.961 . S
Li90 N135 1.990 . S
Li90 O148 1.961 . S
Li90 O150 1.956 . S
Li90 O151 1.970 . S
Li91 N141 1.990 . S
Li91 O149 1.961 . S
Li91 O150 1.970 . S
Li91 O151 1.956 . S
C92 C94 1.348 . S
C92 C95 1.356 . S
C92 O148 1.325 . S
N93 C96 1.314 . S
N93 C97 1.279 . S
C94 C92 1.348 . S
C94 C96 1.353 . S
C94 H152 0.929 . S
C95 C92 1.356 . S
C95 C97 1.358 . S
C95 H153 0.930 . S
C96 N93 1.314 . S
C96 C94 1.353 . S
C96 H154 0.930 . S
C97 N93 1.279 . S
C97 C95 1.358 . S
C97 H155 0.930 . S
C98 C101 1.348 . S
C98 C102 1.356 . S
C98 O149 1.325 . S
C99 N100 1.279 . S
C99 C102 1.358 . S
C99 H156 0.930 . S
N100 C99 1.279 . S
N100 C103 1.314 . S
C101 C98 1.348 . S
C101 C103 1.353 . S
C101 H157 0.929 . S
C102 C98 1.356 . S
C102 C99 1.358 . S
C102 H158 0.930 . S
C103 N100 1.314 . S
C103 C101 1.353 . S
C103 H159 0.930 . S
C104 N105 1.314 . S
C104 C109 1.353 . S
C104 H110 0.930 . S
N105 Li88 1.990 . S
N105 C104 1.314 . S
N105 C107 1.279 . S
C106 C107 1.358 . S
C106 C108 1.356 . S
C106 H160 0.930 . S
C107 N105 1.279 . S
C107 C106 1.358 . S
C107 H111 0.930 . S
C108 C106 1.356 . S
C108 C109 1.348 . S
C109 C104 1.353 . S
C109 C108 1.348 . S
C109 H161 0.929 . S
H110 C104 0.930 . S
H111 C107 0.930 . S
C112 N113 1.314 . S
C112 C114 1.353 . S
C112 H118 0.930 . S
N113 Li89 1.990 . S
N113 C112 1.314 . S
N113 C116 1.279 . S
C114 C112 1.353 . S
C114 C117 1.348 . S
C114 H162 0.929 . S
C115 C116 1.358 . S
C115 C117 1.356 . S
C115 H163 0.930 . S
C116 N113 1.279 . S
C116 C115 1.358 . S
C116 H119 0.930 . S
C117 C114 1.348 . S
C117 C115 1.356 . S
H118 C112 0.930 . S
H119 C116 0.930 . S
C120 C122 1.348 . S
C120 C123 1.356 . S
C120 O150 1.325 . S
N121 C124 1.314 . S
N121 C125 1.279 . S
C122 C120 1.348 . S
C122 C124 1.353 . S
C122 H164 0.929 . S
C123 C120 1.356 . S
C123 C125 1.358 . S
C123 H165 0.930 . S
C124 N121 1.314 . S
C124 C122 1.353 . S
C124 H166 0.930 . S
C125 N121 1.279 . S
C125 C123 1.358 . S
C125 H167 0.930 . S
C126 C127 1.348 . S
C126 C128 1.356 . S
C126 O151 1.325 . S
C127 C126 1.348 . S
C127 C129 1.353 . S
C127 H168 0.929 . S
C128 C126 1.356 . S
C128 C130 1.358 . S
C128 H169 0.930 . S
C129 C127 1.353 . S
C129 N131 1.314 . S
C129 H170 0.930 . S
C130 C128 1.358 . S
C130 N131 1.279 . S
C130 H171 0.930 . S
N131 C129 1.314 . S
N131 C130 1.279 . S
C132 C134 1.353 . S
C132 N135 1.314 . S
C132 H138 0.930 . S
C133 N135 1.279 . S
C133 C136 1.358 . S
C133 H139 0.930 . S
C134 C132 1.353 . S
C134 C137 1.348 . S
C134 H172 0.929 . S
N135 Li90 1.990 . S
N135 C132 1.314 . S
N135 C133 1.279 . S
C136 C133 1.358 . S
C136 C137 1.356 . S
C136 H173 0.930 . S
C137 C134 1.348 . S
C137 C136 1.356 . S
H138 C132 0.930 . S
H139 C133 0.930 . S
C140 N141 1.314 . S
C140 C142 1.353 . S
C140 H146 0.930 . S
N141 Li91 1.990 . S
N141 C140 1.314 . S
N141 C144 1.279 . S
C142 C140 1.353 . S
C142 C145 1.348 . S
C142 H174 0.929 . S
C143 C144 1.358 . S
C143 C145 1.356 . S
C143 H175 0.930 . S
C144 N141 1.279 . S
C144 C143 1.358 . S
C144 H147 0.930 . S
C145 C142 1.348 . S
C145 C143 1.356 . S
H146 C140 0.930 . S
H147 C144 0.930 . S
O148 Li88 1.956 . S
O148 Li89 1.970 . S
O148 Li90 1.961 . S
O148 C92 1.325 . S
O149 Li88 1.970 . S
O149 Li89 1.956 . S
O149 Li91 1.961 . S
O149 C98 1.325 . S
O150 Li88 1.961 . S
O150 Li90 1.956 . S
O150 Li91 1.970 . S
O150 C120 1.325 . S
O151 Li89 1.961 . S
O151 Li90 1.970 . S
O151 Li91 1.956 . S
O151 C126 1.325 . S
H152 C94 0.929 . S
H153 C95 0.930 . S
H154 C96 0.930 . S
H155 C97 0.930 . S
H156 C99 0.930 . S
H157 C101 0.929 . S
H158 C102 0.930 . S
H159 C103 0.930 . S
H160 C106 0.930 . S
H161 C109 0.929 . S
H162 C114 0.929 . S
H163 C115 0.930 . S
H164 C122 0.929 . S
H165 C123 0.930 . S
H166 C124 0.930 . S
H167 C125 0.930 . S
H168 C127 0.929 . S
H169 C128 0.930 . S
H170 C129 0.930 . S
H171 C130 0.930 . S
H172 C134 0.929 . S
H173 C136 0.930 . S
H174 C142 0.929 . S
H175 C143 0.930 . S
Li176 N193 1.990 . S
Li176 O236 1.956 . S
Li176 O237 1.970 . S
Li176 O238 1.961 . S
Li177 N201 1.990 . S
Li177 O236 1.970 . S
Li177 O237 1.956 . S
Li177 O239 1.961 . S
Li178 N223 1.990 1_565 S
Li178 O236 1.961 . S
Li178 O238 1.956 . S
Li178 O239 1.970 . S
Li179 N229 1.990 . S
Li179 O237 1.961 . S
Li179 O238 1.970 . S
Li179 O239 1.956 . S
C180 C182 1.348 . S
C180 C183 1.356 . S
C180 O236 1.325 1_545 S
N181 C184 1.314 . S
N181 C185 1.279 . S
C182 C180 1.348 . S
C182 C184 1.353 . S
C182 H240 0.942 . S
C183 C180 1.356 . S
C183 C185 1.358 . S
C183 H241 0.930 . S
C184 N181 1.314 . S
C184 C182 1.353 . S
C184 H242 0.930 . S
C185 N181 1.279 . S
C185 C183 1.358 . S
C185 H243 0.930 . S
C186 C189 1.348 . S
C186 C190 1.356 . S
C186 O237 1.325 . S
C187 N188 1.279 . S
C187 C190 1.358 . S
C187 H244 0.930 . S
N188 C187 1.279 . S
N188 C191 1.314 . S
C189 C186 1.348 . S
C189 C191 1.353 . S
C189 H245 0.929 . S
C190 C186 1.356 . S
C190 C187 1.358 . S
C190 H246 0.930 . S
C191 N188 1.314 . S
C191 C189 1.353 . S
C191 H247 0.930 . S
C192 N193 1.314 . S
C192 C197 1.353 . S
C192 H198 0.930 . S
N193 Li176 1.990 . S
N193 C192 1.314 . S
N193 C195 1.279 . S
C194 C195 1.358 1_655 S
C194 C196 1.356 . S
C194 H248 0.930 . S
C195 N193 1.279 . S
C195 C194 1.358 1_455 S
C195 H199 0.930 . S
C196 C194 1.356 . S
C196 C197 1.348 1_655 S
C197 C192 1.353 . S
C197 C196 1.348 1_455 S
C197 H249 0.929 . S
H198 C192 0.930 . S
H199 C195 0.930 . S
C200 N201 1.314 . S
C200 C202 1.353 . S
C200 H206 0.930 . S
N201 Li177 1.990 . S
N201 C200 1.314 . S
N201 C204 1.279 . S
C202 C200 1.353 . S
C202 C205 1.348 . S
C202 H250 0.950 . S
C203 C204 1.358 . S
C203 C205 1.356 . S
C203 H251 0.930 . S
C204 N201 1.279 . S
C204 C203 1.358 . S
C204 H207 0.930 . S
C205 C202 1.348 . S
C205 C203 1.356 . S
H206 C200 0.930 . S
H207 C204 0.930 . S
C208 C210 1.348 . S
C208 C211 1.356 . S
C208 O238 1.325 . S
N209 C212 1.314 . S
N209 C213 1.279 . S
C210 C208 1.348 . S
C210 C212 1.353 . S
C210 H252 0.929 . S
C211 C208 1.356 . S
C211 C213 1.358 . S
C211 H253 0.930 . S
C212 N209 1.314 . S
C212 C210 1.353 . S
C212 H254 0.930 . S
C213 N209 1.279 . S
C213 C211 1.358 . S
C213 H255 0.930 . S
C214 C215 1.348 . S
C214 C216 1.356 . S
C214 O239 1.325 . S
C215 C214 1.348 . S
C215 C217 1.353 . S
C215 H256 0.929 . S
C216 C214 1.356 . S
C216 C218 1.358 . S
C216 H257 0.930 . S
C217 C215 1.353 . S
C217 N219 1.314 . S
C217 H258 0.930 . S
C218 C216 1.358 . S
C218 N219 1.279 . S
C218 H259 0.930 . S
N219 C217 1.314 . S
N219 C218 1.279 . S
C220 C222 1.353 . S
C220 N223 1.314 . S
C220 H226 0.930 . S
C221 N223 1.279 . S
C221 C224 1.358 . S
C221 H227 0.930 1_545 S
C222 C220 1.353 . S
C222 C225 1.348 . S
C222 H260 0.929 . S
N223 Li178 1.990 1_545 S
N223 C220 1.314 . S
N223 C221 1.279 . S
C224 C221 1.358 . S
C224 C225 1.356 . S
C224 H261 0.930 . S
C225 C222 1.348 . S
C225 C224 1.356 . S
H226 C220 0.930 . S
H227 C221 0.930 1_565 S
C228 N229 1.314 . S
C228 C230 1.353 . S
C228 H234 0.930 . S
N229 Li179 1.990 . S
N229 C228 1.314 . S
N229 C232 1.279 . S
C230 C228 1.353 . S
C230 C233 1.348 . S
C230 H262 0.929 . S
C231 C232 1.358 . S
C231 C233 1.356 . S
C231 H263 0.930 . S
C232 N229 1.279 . S
C232 C231 1.358 . S
C232 H235 0.930 . S
C233 C230 1.348 . S
C233 C231 1.356 . S
H234 C228 0.930 . S
H235 C232 0.930 . S
O236 Li176 1.956 . S
O236 Li177 1.970 . S
O236 Li178 1.961 . S
O236 C180 1.325 1_565 S
O237 Li176 1.970 . S
O237 Li177 1.956 . S
O237 Li179 1.961 . S
O237 C186 1.325 . S
O238 Li176 1.961 . S
O238 Li178 1.956 . S
O238 Li179 1.970 . S
O238 C208 1.325 . S
O239 Li177 1.961 . S
O239 Li178 1.970 . S
O239 Li179 1.956 . S
O239 C214 1.325 . S
H240 C182 0.942 . S
H241 C183 0.930 . S
H242 C184 0.930 . S
H243 C185 0.930 . S
H244 C187 0.930 . S
H245 C189 0.929 . S
H246 C190 0.930 . S
H247 C191 0.930 . S
H248 C194 0.930 . S
H249 C197 0.929 . S
H250 C202 0.950 . S
H251 C203 0.930 . S
H252 C210 0.929 . S
H253 C211 0.930 . S
H254 C212 0.930 . S
H255 C213 0.930 . S
H256 C215 0.929 . S
H257 C216 0.930 . S
H258 C217 0.930 . S
H259 C218 0.930 . S
H260 C222 0.929 . S
H261 C224 0.930 . S
H262 C230 0.929 . S
H263 C231 0.930 . S
Li264 N281 1.990 . S
Li264 O324 1.956 . S
Li264 O325 1.970 . S
Li264 O326 1.961 . S
Li265 N289 1.990 . S
Li265 O324 1.970 . S
Li265 O325 1.956 . S
Li265 O327 1.961 . S
Li266 N311 1.990 . S
Li266 O324 1.961 . S
Li266 O326 1.956 . S
Li266 O327 1.970 . S
Li267 N317 1.990 . S
Li267 O325 1.961 . S
Li267 O326 1.970 . S
Li267 O327 1.956 . S
C268 C270 1.348 . S
C268 C271 1.356 . S
C268 O324 1.325 . S
N269 C272 1.314 . S
N269 C273 1.279 . S
C270 C268 1.348 . S
C270 C272 1.353 . S
C270 H328 0.929 . S
C271 C268 1.356 . S
C271 C273 1.358 . S
C271 H329 0.930 . S
C272 N269 1.314 . S
C272 C270 1.353 . S
C272 H330 0.930 . S
C273 N269 1.279 . S
C273 C271 1.358 . S
C273 H331 0.930 . S
C274 C277 1.348 . S
C274 C278 1.356 . S
C274 O325 1.325 . S
C275 N276 1.279 . S
C275 C278 1.358 . S
C275 H332 0.930 . S
N276 C275 1.279 . S
N276 C279 1.314 . S
C277 C274 1.348 . S
C277 C279 1.353 . S
C277 H333 0.929 . S
C278 C274 1.356 . S
C278 C275 1.358 . S
C278 H334 0.930 . S
C279 N276 1.314 . S
C279 C277 1.353 . S
C279 H335 0.930 . S
C280 N281 1.314 . S
C280 C285 1.353 . S
C280 H286 0.930 . S
N281 Li264 1.990 . S
N281 C280 1.314 . S
N281 C283 1.279 . S
C282 C283 1.358 . S
C282 C284 1.356 . S
C282 H336 0.930 . S
C283 N281 1.279 . S
C283 C282 1.358 . S
C283 H287 0.930 . S
C284 C282 1.356 . S
C284 C285 1.348 . S
C285 C280 1.353 . S
C285 C284 1.348 . S
C285 H337 0.929 . S
H286 C280 0.930 . S
H287 C283 0.930 . S
C288 N289 1.314 . S
C288 C290 1.353 . S
C288 H294 0.930 . S
N289 Li265 1.990 . S
N289 C288 1.314 . S
N289 C292 1.279 . S
C290 C288 1.353 . S
C290 C293 1.348 . S
C290 H338 0.929 . S
C291 C292 1.358 . S
C291 C293 1.356 . S
C291 H339 0.930 . S
C292 N289 1.279 . S
C292 C291 1.358 . S
C292 H295 0.930 . S
C293 C290 1.348 . S
C293 C291 1.356 . S
H294 C288 0.930 . S
H295 C292 0.930 . S
C296 C298 1.348 . S
C296 C299 1.356 . S
C296 O326 1.325 . S
N297 C300 1.314 . S
N297 C301 1.279 . S
C298 C296 1.348 . S
C298 C300 1.353 . S
C298 H340 0.929 . S
C299 C296 1.356 . S
C299 C301 1.358 . S
C299 H341 0.930 . S
C300 N297 1.314 . S
C300 C298 1.353 . S
C300 H342 0.930 . S
C301 N297 1.279 . S
C301 C299 1.358 . S
C301 H343 0.930 . S
C302 C303 1.348 . S
C302 C304 1.356 . S
C302 O327 1.325 . S
C303 C302 1.348 . S
C303 C305 1.353 . S
C303 H344 0.929 . S
C304 C302 1.356 . S
C304 C306 1.358 . S
C304 H345 0.930 . S
C305 C303 1.353 . S
C305 N307 1.314 . S
C305 H346 0.930 . S
C306 C304 1.358 . S
C306 N307 1.279 . S
C306 H347 0.930 . S
N307 C305 1.314 . S
N307 C306 1.279 . S
C308 C310 1.353 . S
C308 N311 1.314 . S
C308 H314 0.930 . S
C309 N311 1.279 . S
C309 C312 1.358 . S
C309 H315 0.930 . S
C310 C308 1.353 . S
C310 C313 1.348 . S
C310 H348 0.929 . S
N311 Li266 1.990 . S
N311 C308 1.314 . S
N311 C309 1.279 . S
C312 C309 1.358 . S
C312 C313 1.356 . S
C312 H349 0.930 . S
C313 C310 1.348 . S
C313 C312 1.356 . S
H314 C308 0.930 . S
H315 C309 0.930 . S
C316 N317 1.314 . S
C316 C318 1.353 . S
C316 H322 0.930 . S
N317 Li267 1.990 . S
N317 C316 1.314 . S
N317 C320 1.279 . S
C318 C316 1.353 . S
C318 C321 1.348 . S
C318 H350 0.929 . S
C319 C320 1.358 . S
C319 C321 1.356 . S
C319 H351 0.930 . S
C320 N317 1.279 . S
C320 C319 1.358 . S
C320 H323 0.930 . S
C321 C318 1.348 . S
C321 C319 1.356 . S
H322 C316 0.930 . S
H323 C320 0.930 . S
O324 Li264 1.956 . S
O324 Li265 1.970 . S
O324 Li266 1.961 . S
O324 C268 1.325 . S
O325 Li264 1.970 . S
O325 Li265 1.956 . S
O325 Li267 1.961 . S
O325 C274 1.325 . S
O326 Li264 1.961 . S
O326 Li266 1.956 . S
O326 Li267 1.970 . S
O326 C296 1.325 . S
O327 Li265 1.961 . S
O327 Li266 1.970 . S
O327 Li267 1.956 . S
O327 C302 1.325 . S
H328 C270 0.929 . S
H329 C271 0.930 . S
H330 C272 0.930 . S
H331 C273 0.930 . S
H332 C275 0.930 . S
H333 C277 0.929 . S
H334 C278 0.930 . S
H335 C279 0.930 . S
H336 C282 0.930 . S
H337 C285 0.929 . S
H338 C290 0.929 . S
H339 C291 0.930 . S
H340 C298 0.929 . S
H341 C299 0.930 . S
H342 C300 0.930 . S
H343 C301 0.930 . S
H344 C303 0.929 . S
H345 C304 0.930 . S
H346 C305 0.930 . S
H347 C306 0.930 . S
H348 C310 0.929 . S
H349 C312 0.930 . S
H350 C318 0.929 . S
H351 C319 0.930 . S
Li352 N369 1.990 1_565 S
Li352 O412 1.956 . S
Li352 O413 1.970 . S
Li352 O414 1.961 . S
Li353 N377 1.990 . S
Li353 O412 1.970 . S
Li353 O413 1.956 . S
Li353 O415 1.961 . S
Li354 N399 1.990 . S
Li354 O412 1.961 . S
Li354 O414 1.956 . S
Li354 O415 1.970 . S
Li355 N405 1.990 . S
Li355 O413 1.961 . S
Li355 O414 1.970 . S
Li355 O415 1.956 . S
C356 C358 1.348 . S
C356 C359 1.356 . S
C356 O412 1.325 . S
N357 C360 1.314 . S
N357 C361 1.279 . S
C358 C356 1.348 . S
C358 C360 1.353 . S
C358 H416 0.929 . S
C359 C356 1.356 . S
C359 C361 1.358 . S
C359 H417 0.930 . S
C360 N357 1.314 . S
C360 C358 1.353 . S
C360 H418 0.930 . S
C361 N357 1.279 . S
C361 C359 1.358 . S
C361 H419 0.930 . S
C362 C365 1.348 . S
C362 C366 1.356 . S
C362 O413 1.325 . S
C363 N364 1.279 . S
C363 C366 1.358 . S
C363 H420 0.930 . S
N364 C363 1.279 . S
N364 C367 1.314 . S
C365 C362 1.348 . S
C365 C367 1.353 . S
C365 H421 0.929 . S
C366 C362 1.356 . S
C366 C363 1.358 . S
C366 H422 0.930 . S
C367 N364 1.314 . S
C367 C365 1.353 . S
C367 H423 0.930 . S
C368 N369 1.314 . S
C368 C373 1.353 . S
C368 H374 0.930 . S
N369 Li352 1.990 1_545 S
N369 C368 1.314 . S
N369 C371 1.279 . S
C370 C371 1.358 . S
C370 C372 1.356 . S
C370 H424 0.930 . S
C371 N369 1.279 . S
C371 C370 1.358 . S
C371 H375 0.930 1_545 S
C372 C370 1.356 . S
C372 C373 1.348 . S
C373 C368 1.353 . S
C373 C372 1.348 . S
C373 H425 0.929 . S
H374 C368 0.930 . S
H375 C371 0.930 1_565 S
C376 N377 1.314 . S
C376 C378 1.353 . S
C376 H382 0.930 . S
N377 Li353 1.990 . S
N377 C376 1.314 . S
N377 C380 1.279 . S
C378 C376 1.353 . S
C378 C381 1.348 . S
C378 H426 0.929 . S
C379 C380 1.358 . S
C379 C381 1.356 . S
C379 H427 0.930 . S
C380 N377 1.279 . S
C380 C379 1.358 . S
C380 H383 0.930 . S
C381 C378 1.348 . S
C381 C379 1.356 . S
H382 C376 0.930 . S
H383 C380 0.930 . S
C384 C386 1.348 . S
C384 C387 1.356 . S
C384 O414 1.325 1_545 S
N385 C388 1.314 . S
N385 C389 1.279 . S
C386 C384 1.348 . S
C386 C388 1.353 . S
C386 H428 0.942 . S
C387 C384 1.356 . S
C387 C389 1.358 . S
C387 H429 0.930 . S
C388 N385 1.314 . S
C388 C386 1.353 . S
C388 H430 0.930 . S
C389 N385 1.279 . S
C389 C387 1.358 . S
C389 H431 0.930 . S
C390 C391 1.348 . S
C390 C392 1.356 . S
C390 O415 1.325 . S
C391 C390 1.348 . S
C391 C393 1.353 . S
C391 H432 0.929 . S
C392 C390 1.356 . S
C392 C394 1.358 . S
C392 H433 0.930 . S
C393 C391 1.353 . S
C393 N395 1.314 . S
C393 H434 0.930 . S
C394 C392 1.358 . S
C394 N395 1.279 . S
C394 H435 0.930 . S
N395 C393 1.314 . S
N395 C394 1.279 . S
C396 C398 1.353 . S
C396 N399 1.314 . S
C396 H402 0.930 . S
C397 N399 1.279 . S
C397 C400 1.358 . S
C397 H403 0.930 . S
C398 C396 1.353 . S
C398 C401 1.348 . S
C398 H436 0.929 . S
N399 Li354 1.990 . S
N399 C396 1.314 . S
N399 C397 1.279 . S
C400 C397 1.358 . S
C400 C401 1.356 . S
C400 H437 0.930 . S
C401 C398 1.348 . S
C401 C400 1.356 . S
H402 C396 0.930 . S
H403 C397 0.930 . S
C404 N405 1.314 . S
C404 C406 1.353 . S
C404 H410 0.930 . S
N405 Li355 1.990 . S
N405 C404 1.314 . S
N405 C408 1.279 . S
C406 C404 1.353 . S
C406 C409 1.348 . S
C406 H438 0.950 . S
C407 C408 1.358 . S
C407 C409 1.356 . S
C407 H439 0.930 . S
C408 N405 1.279 . S
C408 C407 1.358 . S
C408 H411 0.930 . S
C409 C406 1.348 . S
C409 C407 1.356 . S
H410 C404 0.930 . S
H411 C408 0.930 . S
O412 Li352 1.956 . S
O412 Li353 1.970 . S
O412 Li354 1.961 . S
O412 C356 1.325 . S
O413 Li352 1.970 . S
O413 Li353 1.956 . S
O413 Li355 1.961 . S
O413 C362 1.325 . S
O414 Li352 1.961 . S
O414 Li354 1.956 . S
O414 Li355 1.970 . S
O414 C384 1.325 1_565 S
O415 Li353 1.961 . S
O415 Li354 1.970 . S
O415 Li355 1.956 . S
O415 C390 1.325 . S
H416 C358 0.929 . S
H417 C359 0.930 . S
H418 C360 0.930 . S
H419 C361 0.930 . S
H420 C363 0.930 . S
H421 C365 0.929 . S
H422 C366 0.930 . S
H423 C367 0.930 . S
H424 C370 0.930 . S
H425 C373 0.929 . S
H426 C378 0.929 . S
H427 C379 0.930 . S
H428 C386 0.942 . S
H429 C387 0.930 . S
H430 C388 0.930 . S
H431 C389 0.930 . S
H432 C391 0.929 . S
H433 C392 0.930 . S
H434 C393 0.930 . S
H435 C394 0.930 . S
H436 C398 0.929 . S
H437 C400 0.930 . S
H438 C406 0.950 . S
H439 C407 0.930 . S
Li440 N457 1.990 . S
Li440 O500 1.956 . S
Li440 O501 1.970 . S
Li440 O502 1.961 . S
Li441 N465 1.990 . S
Li441 O500 1.970 . S
Li441 O501 1.956 . S
Li441 O503 1.961 . S
Li442 N487 1.990 . S
Li442 O500 1.961 . S
Li442 O502 1.956 . S
Li442 O503 1.970 . S
Li443 N493 1.990 . S
Li443 O501 1.961 . S
Li443 O502 1.970 . S
Li443 O503 1.956 . S
C444 C446 1.348 . S
C444 C447 1.356 . S
C444 O500 1.325 . S
N445 C448 1.314 . S
N445 C449 1.279 . S
C446 C444 1.348 . S
C446 C448 1.353 . S
C446 H504 0.929 . S
C447 C444 1.356 . S
C447 C449 1.358 . S
C447 H505 0.930 . S
C448 N445 1.314 . S
C448 C446 1.353 . S
C448 H506 0.930 . S
C449 N445 1.279 . S
C449 C447 1.358 . S
C449 H507 0.930 . S
C450 C453 1.348 . S
C450 C454 1.356 . S
C450 O501 1.325 . S
C451 N452 1.279 . S
C451 C454 1.358 . S
C451 H508 0.930 . S
N452 C451 1.279 . S
N452 C455 1.314 . S
C453 C450 1.348 . S
C453 C455 1.353 . S
C453 H509 0.929 . S
C454 C450 1.356 . S
C454 C451 1.358 . S
C454 H510 0.930 . S
C455 N452 1.314 . S
C455 C453 1.353 . S
C455 H511 0.930 . S
C456 N457 1.314 . S
C456 C461 1.353 . S
C456 H462 0.930 . S
N457 Li440 1.990 . S
N457 C456 1.314 . S
N457 C459 1.279 . S
C458 C459 1.358 . S
C458 C460 1.356 . S
C458 H512 0.930 . S
C459 N457 1.279 . S
C459 C458 1.358 . S
C459 H463 0.930 . S
C460 C458 1.356 . S
C460 C461 1.348 . S
C461 C456 1.353 . S
C461 C460 1.348 . S
C461 H513 0.929 . S
H462 C456 0.930 . S
H463 C459 0.930 . S
C464 N465 1.314 . S
C464 C466 1.353 . S
C464 H470 0.930 . S
N465 Li441 1.990 . S
N465 C464 1.314 . S
N465 C468 1.279 . S
C466 C464 1.353 . S
C466 C469 1.348 . S
C466 H514 0.929 . S
C467 C468 1.358 . S
C467 C469 1.356 . S
C467 H515 0.930 . S
C468 N465 1.279 . S
C468 C467 1.358 . S
C468 H471 0.930 . S
C469 C466 1.348 . S
C469 C467 1.356 . S
H470 C464 0.930 . S
H471 C468 0.930 . S
C472 C474 1.348 . S
C472 C475 1.356 . S
C472 O502 1.325 . S
N473 C476 1.314 . S
N473 C477 1.279 . S
C474 C472 1.348 . S
C474 C476 1.353 . S
C474 H516 0.929 . S
C475 C472 1.356 . S
C475 C477 1.358 . S
C475 H517 0.930 . S
C476 N473 1.314 . S
C476 C474 1.353 . S
C476 H518 0.930 . S
C477 N473 1.279 . S
C477 C475 1.358 . S
C477 H519 0.930 . S
C478 C479 1.348 . S
C478 C480 1.356 . S
C478 O503 1.325 . S
C479 C478 1.348 . S
C479 C481 1.353 . S
C479 H520 0.929 . S
C480 C478 1.356 . S
C480 C482 1.358 . S
C480 H521 0.930 . S
C481 C479 1.353 . S
C481 N483 1.314 . S
C481 H522 0.930 . S
C482 C480 1.358 . S
C482 N483 1.279 . S
C482 H523 0.930 . S
N483 C481 1.314 . S
N483 C482 1.279 . S
C484 C486 1.353 . S
C484 N487 1.314 . S
C484 H490 0.930 . S
C485 N487 1.279 . S
C485 C488 1.358 . S
C485 H491 0.930 . S
C486 C484 1.353 . S
C486 C489 1.348 . S
C486 H524 0.929 . S
N487 Li442 1.990 . S
N487 C484 1.314 . S
N487 C485 1.279 . S
C488 C485 1.358 . S
C488 C489 1.356 . S
C488 H525 0.930 . S
C489 C486 1.348 . S
C489 C488 1.356 . S
H490 C484 0.930 . S
H491 C485 0.930 . S
C492 N493 1.314 . S
C492 C494 1.353 . S
C492 H498 0.930 . S
N493 Li443 1.990 . S
N493 C492 1.314 . S
N493 C496 1.279 . S
C494 C492 1.353 . S
C494 C497 1.348 . S
C494 H526 0.929 . S
C495 C496 1.358 . S
C495 C497 1.356 . S
C495 H527 0.930 . S
C496 N493 1.279 . S
C496 C495 1.358 . S
C496 H499 0.930 . S
C497 C494 1.348 . S
C497 C495 1.356 . S
H498 C492 0.930 . S
H499 C496 0.930 . S
O500 Li440 1.956 . S
O500 Li441 1.970 . S
O500 Li442 1.961 . S
O500 C444 1.325 . S
O501 Li440 1.970 . S
O501 Li441 1.956 . S
O501 Li443 1.961 . S
O501 C450 1.325 . S
O502 Li440 1.961 . S
O502 Li442 1.956 . S
O502 Li443 1.970 . S
O502 C472 1.325 . S
O503 Li441 1.961 . S
O503 Li442 1.970 . S
O503 Li443 1.956 . S
O503 C478 1.325 . S
H504 C446 0.929 . S
H505 C447 0.930 . S
H506 C448 0.930 . S
H507 C449 0.930 . S
H508 C451 0.930 . S
H509 C453 0.929 . S
H510 C454 0.930 . S
H511 C455 0.930 . S
H512 C458 0.930 . S
H513 C461 0.929 . S
H514 C466 0.929 . S
H515 C467 0.930 . S
H516 C474 0.929 . S
H517 C475 0.930 . S
H518 C476 0.930 . S
H519 C477 0.930 . S
H520 C479 0.929 . S
H521 C480 0.930 . S
H522 C481 0.930 . S
H523 C482 0.930 . S
H524 C486 0.929 . S
H525 C488 0.930 . S
H526 C494 0.929 . S
H527 C495 0.930 . S
Li528 N545 1.990 . S
Li528 O588 1.956 . S
Li528 O589 1.970 . S
Li528 O590 1.961 . S
Li529 N553 1.990 1_545 S
Li529 O588 1.970 . S
Li529 O589 1.956 . S
Li529 O591 1.961 . S
Li530 N575 1.990 . S
Li530 O588 1.961 . S
Li530 O590 1.956 . S
Li530 O591 1.970 . S
Li531 N581 1.990 . S
Li531 O589 1.961 . S
Li531 O590 1.970 . S
Li531 O591 1.956 . S
C532 C534 1.348 . S
C532 C535 1.356 . S
C532 O588 1.325 . S
N533 C536 1.314 . S
N533 C537 1.279 . S
C534 C532 1.348 . S
C534 C536 1.353 . S
C534 H592 0.929 . S
C535 C532 1.356 . S
C535 C537 1.358 . S
C535 H593 0.930 . S
C536 N533 1.314 . S
C536 C534 1.353 . S
C536 H594 0.930 . S
C537 N533 1.279 . S
C537 C535 1.358 . S
C537 H595 0.930 . S
C538 C541 1.348 . S
C538 C542 1.356 . S
C538 O589 1.325 . S
C539 N540 1.279 . S
C539 C542 1.358 . S
C539 H596 0.930 . S
N540 C539 1.279 . S
N540 C543 1.314 . S
C541 C538 1.348 . S
C541 C543 1.353 . S
C541 H597 0.929 . S
C542 C538 1.356 . S
C542 C539 1.358 . S
C542 H598 0.930 . S
C543 N540 1.314 . S
C543 C541 1.353 . S
C543 H599 0.930 . S
C544 N545 1.314 . S
C544 C549 1.353 . S
C544 H550 0.930 . S
N545 Li528 1.990 . S
N545 C544 1.314 . S
N545 C547 1.279 . S
C546 C547 1.358 . S
C546 C548 1.356 . S
C546 H600 0.930 . S
C547 N545 1.279 . S
C547 C546 1.358 . S
C547 H551 0.930 . S
C548 C546 1.356 . S
C548 C549 1.348 . S
C549 C544 1.353 . S
C549 C548 1.348 . S
C549 H601 0.929 . S
H550 C544 0.930 . S
H551 C547 0.930 . S
C552 N553 1.314 . S
C552 C554 1.353 . S
C552 H558 0.930 . S
N553 Li529 1.990 1_565 S
N553 C552 1.314 . S
N553 C556 1.279 . S
C554 C552 1.353 . S
C554 C557 1.348 . S
C554 H602 0.929 . S
C555 C556 1.358 . S
C555 C557 1.356 . S
C555 H603 0.930 . S
C556 N553 1.279 . S
C556 C555 1.358 . S
C556 H559 0.930 1_565 S
C557 C554 1.348 . S
C557 C555 1.356 . S
H558 C552 0.930 . S
H559 C556 0.930 1_545 S
C560 C562 1.348 . S
C560 C563 1.356 . S
C560 O590 1.325 . S
N561 C564 1.314 . S
N561 C565 1.279 . S
C562 C560 1.348 . S
C562 C564 1.353 . S
C562 H604 0.929 . S
C563 C560 1.356 . S
C563 C565 1.358 . S
C563 H605 0.930 . S
C564 N561 1.314 . S
C564 C562 1.353 . S
C564 H606 0.930 . S
C565 N561 1.279 . S
C565 C563 1.358 . S
C565 H607 0.930 . S
C566 C567 1.348 . S
C566 C568 1.356 . S
C566 O591 1.325 1_565 S
C567 C566 1.348 . S
C567 C569 1.353 . S
C567 H608 0.942 . S
C568 C566 1.356 . S
C568 C570 1.358 . S
C568 H609 0.930 . S
C569 C567 1.353 . S
C569 N571 1.314 . S
C569 H610 0.930 . S
C570 C568 1.358 . S
C570 N571 1.279 . S
C570 H611 0.930 . S
N571 C569 1.314 . S
N571 C570 1.279 . S
C572 C574 1.353 . S
C572 N575 1.314 . S
C572 H578 0.930 . S
C573 N575 1.279 . S
C573 C576 1.358 . S
C573 H579 0.930 . S
C574 C572 1.353 . S
C574 C577 1.348 . S
C574 H612 0.950 . S
N575 Li530 1.990 . S
N575 C572 1.314 . S
N575 C573 1.279 . S
C576 C573 1.358 . S
C576 C577 1.356 . S
C576 H613 0.930 . S
C577 C574 1.348 . S
C577 C576 1.356 . S
H578 C572 0.930 . S
H579 C573 0.930 . S
C580 N581 1.314 . S
C580 C582 1.353 . S
C580 H586 0.930 . S
N581 Li531 1.990 . S
N581 C580 1.314 . S
N581 C584 1.279 . S
C582 C580 1.353 . S
C582 C585 1.348 1_455 S
C582 H614 0.929 . S
C583 C584 1.358 1_655 S
C583 C585 1.356 . S
C583 H615 0.930 . S
C584 N581 1.279 . S
C584 C583 1.358 1_455 S
C584 H587 0.930 . S
C585 C582 1.348 1_655 S
C585 C583 1.356 . S
H586 C580 0.930 . S
H587 C584 0.930 . S
O588 Li528 1.956 . S
O588 Li529 1.970 . S
O588 Li530 1.961 . S
O588 C532 1.325 . S
O589 Li528 1.970 . S
O589 Li529 1.956 . S
O589 Li531 1.961 . S
O589 C538 1.325 . S
O590 Li528 1.961 . S
O590 Li530 1.956 . S
O590 Li531 1.970 . S
O590 C560 1.325 . S
O591 Li529 1.961 . S
O591 Li530 1.970 . S
O591 Li531 1.956 . S
O591 C566 1.325 1_545 S
H592 C534 0.929 . S
H593 C535 0.930 . S
H594 C536 0.930 . S
H595 C537 0.930 . S
H596 C539 0.930 . S
H597 C541 0.929 . S
H598 C542 0.930 . S
H599 C543 0.930 . S
H600 C546 0.930 . S
H601 C549 0.929 . S
H602 C554 0.929 . S
H603 C555 0.930 . S
H604 C562 0.929 . S
H605 C563 0.930 . S
H606 C564 0.930 . S
H607 C565 0.930 . S
H608 C567 0.942 . S
H609 C568 0.930 . S
H610 C569 0.930 . S
H611 C570 0.930 . S
H612 C574 0.950 . S
H613 C576 0.930 . S
H614 C582 0.929 . S
H615 C583 0.930 . S
Li616 N633 1.990 . S
Li616 O676 1.956 . S
Li616 O677 1.970 . S
Li616 O678 1.961 . S
Li617 N641 1.990 . S
Li617 O676 1.970 . S
Li617 O677 1.956 . S
Li617 O679 1.961 . S
Li618 N663 1.990 . S
Li618 O676 1.961 . S
Li618 O678 1.956 . S
Li618 O679 1.970 . S
Li619 N669 1.990 . S
Li619 O677 1.961 . S
Li619 O678 1.970 . S
Li619 O679 1.956 . S
C620 C622 1.348 . S
C620 C623 1.356 . S
C620 O676 1.325 . S
N621 C624 1.314 . S
N621 C625 1.279 . S
C622 C620 1.348 . S
C622 C624 1.353 . S
C622 H680 0.929 . S
C623 C620 1.356 . S
C623 C625 1.358 . S
C623 H681 0.930 . S
C624 N621 1.314 . S
C624 C622 1.353 . S
C624 H682 0.930 . S
C625 N621 1.279 . S
C625 C623 1.358 . S
C625 H683 0.930 . S
C626 C629 1.348 . S
C626 C630 1.356 . S
C626 O677 1.325 . S
C627 N628 1.279 . S
C627 C630 1.358 . S
C627 H684 0.930 . S
N628 C627 1.279 . S
N628 C631 1.314 . S
C629 C626 1.348 . S
C629 C631 1.353 . S
C629 H685 0.929 . S
C630 C626 1.356 . S
C630 C627 1.358 . S
C630 H686 0.930 . S
C631 N628 1.314 . S
C631 C629 1.353 . S
C631 H687 0.930 . S
C632 N633 1.314 . S
C632 C637 1.353 . S
C632 H638 0.930 . S
N633 Li616 1.990 . S
N633 C632 1.314 . S
N633 C635 1.279 . S
C634 C635 1.358 . S
C634 C636 1.356 . S
C634 H688 0.930 . S
C635 N633 1.279 . S
C635 C634 1.358 . S
C635 H639 0.930 . S
C636 C634 1.356 . S
C636 C637 1.348 . S
C637 C632 1.353 . S
C637 C636 1.348 . S
C637 H689 0.929 . S
H638 C632 0.930 . S
H639 C635 0.930 . S
C640 N641 1.314 . S
C640 C642 1.353 . S
C640 H646 0.930 . S
N641 Li617 1.990 . S
N641 C640 1.314 . S
N641 C644 1.279 . S
C642 C640 1.353 . S
C642 C645 1.348 . S
C642 H690 0.929 . S
C643 C644 1.358 . S
C643 C645 1.356 . S
C643 H691 0.930 . S
C644 N641 1.279 . S
C644 C643 1.358 . S
C644 H647 0.930 . S
C645 C642 1.348 . S
C645 C643 1.356 . S
H646 C640 0.930 . S
H647 C644 0.930 . S
C648 C650 1.348 . S
C648 C651 1.356 . S
C648 O678 1.325 . S
N649 C652 1.314 . S
N649 C653 1.279 . S
C650 C648 1.348 . S
C650 C652 1.353 . S
C650 H692 0.929 . S
C651 C648 1.356 . S
C651 C653 1.358 . S
C651 H693 0.930 . S
C652 N649 1.314 . S
C652 C650 1.353 . S
C652 H694 0.930 . S
C653 N649 1.279 . S
C653 C651 1.358 . S
C653 H695 0.930 . S
C654 C655 1.348 . S
C654 C656 1.356 . S
C654 O679 1.325 . S
C655 C654 1.348 . S
C655 C657 1.353 . S
C655 H696 0.929 . S
C656 C654 1.356 . S
C656 C658 1.358 . S
C656 H697 0.930 . S
C657 C655 1.353 . S
C657 N659 1.314 . S
C657 H698 0.930 . S
C658 C656 1.358 . S
C658 N659 1.279 . S
C658 H699 0.930 . S
N659 C657 1.314 . S
N659 C658 1.279 . S
C660 C662 1.353 . S
C660 N663 1.314 . S
C660 H666 0.930 . S
C661 N663 1.279 . S
C661 C664 1.358 . S
C661 H667 0.930 . S
C662 C660 1.353 . S
C662 C665 1.348 . S
C662 H700 0.929 . S
N663 Li618 1.990 . S
N663 C660 1.314 . S
N663 C661 1.279 . S
C664 C661 1.358 . S
C664 C665 1.356 . S
C664 H701 0.930 . S
C665 C662 1.348 . S
C665 C664 1.356 . S
H666 C660 0.930 . S
H667 C661 0.930 . S
C668 N669 1.314 . S
C668 C670 1.353 . S
C668 H674 0.930 . S
N669 Li619 1.990 . S
N669 C668 1.314 . S
N669 C672 1.279 . S
C670 C668 1.353 . S
C670 C673 1.348 . S
C670 H702 0.929 . S
C671 C672 1.358 . S
C671 C673 1.356 . S
C671 H703 0.930 . S
C672 N669 1.279 . S
C672 C671 1.358 . S
C672 H675 0.930 . S
C673 C670 1.348 . S
C673 C671 1.356 . S
H674 C668 0.930 . S
H675 C672 0.930 . S
O676 Li616 1.956 . S
O676 Li617 1.970 . S
O676 Li618 1.961 . S
O676 C620 1.325 . S
O677 Li616 1.970 . S
O677 Li617 1.956 . S
O677 Li619 1.961 . S
O677 C626 1.325 . S
O678 Li616 1.961 . S
O678 Li618 1.956 . S
O678 Li619 1.970 . S
O678 C648 1.325 . S
O679 Li617 1.961 . S
O679 Li618 1.970 . S
O679 Li619 1.956 . S
O679 C654 1.325 . S
H680 C622 0.929 . S
H681 C623 0.930 . S
H682 C624 0.930 . S
H683 C625 0.930 . S
H684 C627 0.930 . S
H685 C629 0.929 . S
H686 C630 0.930 . S
H687 C631 0.930 . S
H688 C634 0.930 . S
H689 C637 0.929 . S
H690 C642 0.929 . S
H691 C643 0.930 . S
H692 C650 0.929 . S
H693 C651 0.930 . S
H694 C652 0.930 . S
H695 C653 0.930 . S
H696 C655 0.929 . S
H697 C656 0.930 . S
H698 C657 0.930 . S
H699 C658 0.930 . S
H700 C662 0.929 . S
H701 C664 0.930 . S
H702 C670 0.929 . S
H703 C671 0.930 . S
Li704 N721 1.990 . S
Li704 O764 1.956 . S
Li704 O765 1.970 . S
Li704 O766 1.961 . S
Li705 N729 1.990 1_565 S
Li705 O764 1.970 . S
Li705 O765 1.956 . S
Li705 O767 1.961 . S
Li706 N751 1.990 . S
Li706 O764 1.961 . S
Li706 O766 1.956 . S
Li706 O767 1.970 . S
Li707 N757 1.990 . S
Li707 O765 1.961 . S
Li707 O766 1.970 . S
Li707 O767 1.956 . S
C708 C710 1.348 . S
C708 C711 1.356 . S
C708 O764 1.325 . S
N709 C712 1.314 . S
N709 C713 1.279 . S
C710 C708 1.348 . S
C710 C712 1.353 . S
C710 H768 0.929 . S
C711 C708 1.356 . S
C711 C713 1.358 . S
C711 H769 0.930 . S
C712 N709 1.314 . S
C712 C710 1.353 . S
C712 H770 0.930 . S
C713 N709 1.279 . S
C713 C711 1.358 . S
C713 H771 0.930 . S
C714 C717 1.348 . S
C714 C718 1.356 . S
C714 O765 1.325 1_545 S
C715 N716 1.279 . S
C715 C718 1.358 . S
C715 H772 0.930 . S
N716 C715 1.279 . S
N716 C719 1.314 . S
C717 C714 1.348 . S
C717 C719 1.353 . S
C717 H773 0.929 . S
C718 C714 1.356 . S
C718 C715 1.358 . S
C718 H774 0.930 . S
C719 N716 1.314 . S
C719 C717 1.353 . S
C719 H775 0.930 . S
C720 N721 1.314 . S
C720 C725 1.353 . S
C720 H726 0.930 . S
N721 Li704 1.990 . S
N721 C720 1.314 . S
N721 C723 1.279 . S
C722 C723 1.358 . S
C722 C724 1.356 . S
C722 H776 0.930 . S
C723 N721 1.279 . S
C723 C722 1.358 . S
C723 H727 0.930 . S
C724 C722 1.356 . S
C724 C725 1.348 . S
C725 C720 1.353 . S
C725 C724 1.348 . S
C725 H777 0.929 . S
H726 C720 0.930 . S
H727 C723 0.930 . S
C728 N729 1.314 . S
C728 C730 1.353 . S
C728 H734 0.930 1_545 S
N729 Li705 1.990 1_545 S
N729 C728 1.314 . S
N729 C732 1.279 . S
C730 C728 1.353 . S
C730 C733 1.348 . S
C730 H778 0.929 . S
C731 C732 1.358 . S
C731 C733 1.356 . S
C731 H779 0.930 . S
C732 N729 1.279 . S
C732 C731 1.358 . S
C732 H735 0.930 . S
C733 C730 1.348 . S
C733 C731 1.356 . S
H734 C728 0.930 1_565 S
H735 C732 0.930 . S
C736 C738 1.348 . S
C736 C739 1.356 . S
C736 O766 1.325 . S
N737 C740 1.314 . S
N737 C741 1.279 . S
C738 C736 1.348 . S
C738 C740 1.353 . S
C738 H780 0.929 . S
C739 C736 1.356 . S
C739 C741 1.358 . S
C739 H781 0.930 . S
C740 N737 1.314 . S
C740 C738 1.353 . S
C740 H782 0.930 . S
C741 N737 1.279 . S
C741 C739 1.358 . S
C741 H783 0.930 . S
C742 C743 1.348 . S
C742 C744 1.356 . S
C742 O767 1.325 . S
C743 C742 1.348 . S
C743 C745 1.353 . S
C743 H784 0.929 . S
C744 C742 1.356 . S
C744 C746 1.358 . S
C744 H785 0.930 . S
C745 C743 1.353 . S
C745 N747 1.314 . S
C745 H786 0.930 . S
C746 C744 1.358 . S
C746 N747 1.279 . S
C746 H787 0.930 . S
N747 C745 1.314 . S
N747 C746 1.279 . S
C748 C750 1.353 . S
C748 N751 1.314 . S
C748 H754 0.930 . S
C749 N751 1.279 . S
C749 C752 1.358 . S
C749 H755 0.930 . S
C750 C748 1.353 . S
C750 C753 1.348 . S
C750 H788 0.929 . S
N751 Li706 1.990 . S
N751 C748 1.314 . S
N751 C749 1.279 . S
C752 C749 1.358 . S
C752 C753 1.356 . S
C752 H789 0.930 . S
C753 C750 1.348 . S
C753 C752 1.356 . S
H754 C748 0.930 . S
H755 C749 0.930 . S
C756 N757 1.314 . S
C756 C758 1.353 . S
C756 H762 0.930 . S
N757 Li707 1.990 . S
N757 C756 1.314 . S
N757 C760 1.279 . S
C758 C756 1.353 . S
C758 C761 1.348 . S
C758 H790 0.929 . S
C759 C760 1.358 . S
C759 C761 1.356 . S
C759 H791 0.930 . S
C760 N757 1.279 . S
C760 C759 1.358 . S
C760 H763 0.930 . S
C761 C758 1.348 . S
C761 C759 1.356 . S
H762 C756 0.930 . S
H763 C760 0.930 . S
O764 Li704 1.956 . S
O764 Li705 1.970 . S
O764 Li706 1.961 . S
O764 C708 1.325 . S
O765 Li704 1.970 . S
O765 Li705 1.956 . S
O765 Li707 1.961 . S
O765 C714 1.325 1_565 S
O766 Li704 1.961 . S
O766 Li706 1.956 . S
O766 Li707 1.970 . S
O766 C736 1.325 . S
O767 Li705 1.961 . S
O767 Li706 1.970 . S
O767 Li707 1.956 . S
O767 C742 1.325 . S
H768 C710 0.929 . S
H769 C711 0.930 . S
H770 C712 0.930 . S
H771 C713 0.930 . S
H772 C715 0.930 . S
H773 C717 0.929 . S
H774 C718 0.930 . S
H775 C719 0.930 . S
H776 C722 0.930 . S
H777 C725 0.929 . S
H778 C730 0.929 . S
H779 C731 0.930 . S
H780 C738 0.929 . S
H781 C739 0.930 . S
H782 C740 0.930 . S
H783 C741 0.930 . S
H784 C743 0.929 . S
H785 C744 0.930 . S
H786 C745 0.930 . S
H787 C746 0.930 . S
H788 C750 0.929 . S
H789 C752 0.930 . S
H790 C758 0.929 . S
H791 C759 0.930 . S
Li792 N809 1.990 . S
Li792 O852 1.956 . S
Li792 O853 1.970 . S
Li792 O854 1.961 . S
Li793 N817 1.990 . S
Li793 O852 1.970 . S
Li793 O853 1.956 . S
Li793 O855 1.961 . S
Li794 N839 1.990 . S
Li794 O852 1.961 . S
Li794 O854 1.956 . S
Li794 O855 1.970 . S
Li795 N845 1.990 . S
Li795 O853 1.961 . S
Li795 O854 1.970 . S
Li795 O855 1.956 . S
C796 C798 1.348 . S
C796 C799 1.356 . S
C796 O852 1.325 . S
N797 C800 1.314 . S
N797 C801 1.279 . S
C798 C796 1.348 . S
C798 C800 1.353 . S
C798 H856 0.929 . S
C799 C796 1.356 . S
C799 C801 1.358 . S
C799 H857 0.930 . S
C800 N797 1.314 . S
C800 C798 1.353 . S
C800 H858 0.930 . S
C801 N797 1.279 . S
C801 C799 1.358 . S
C801 H859 0.930 . S
C802 C805 1.348 . S
C802 C806 1.356 . S
C802 O853 1.325 . S
C803 N804 1.279 . S
C803 C806 1.358 . S
C803 H860 0.930 . S
N804 C803 1.279 . S
N804 C807 1.314 . S
C805 C802 1.348 . S
C805 C807 1.353 . S
C805 H861 0.929 . S
C806 C802 1.356 . S
C806 C803 1.358 . S
C806 H862 0.930 . S
C807 N804 1.314 . S
C807 C805 1.353 . S
C807 H863 0.930 . S
C808 N809 1.314 . S
C808 C813 1.353 . S
C808 H814 0.930 . S
N809 Li792 1.990 . S
N809 C808 1.314 . S
N809 C811 1.279 . S
C810 C811 1.358 . S
C810 C812 1.356 . S
C810 H864 0.930 . S
C811 N809 1.279 . S
C811 C810 1.358 . S
C811 H815 0.930 . S
C812 C810 1.356 . S
C812 C813 1.348 . S
C813 C808 1.353 . S
C813 C812 1.348 . S
C813 H865 0.929 . S
H814 C808 0.930 . S
H815 C811 0.930 . S
C816 N817 1.314 . S
C816 C818 1.353 . S
C816 H822 0.930 . S
N817 Li793 1.990 . S
N817 C816 1.314 . S
N817 C820 1.279 . S
C818 C816 1.353 . S
C818 C821 1.348 . S
C818 H866 0.929 . S
C819 C820 1.358 . S
C819 C821 1.356 . S
C819 H867 0.930 . S
C820 N817 1.279 . S
C820 C819 1.358 . S
C820 H823 0.930 . S
C821 C818 1.348 . S
C821 C819 1.356 . S
H822 C816 0.930 . S
H823 C820 0.930 . S
C824 C826 1.348 . S
C824 C827 1.356 . S
C824 O854 1.325 . S
N825 C828 1.314 . S
N825 C829 1.279 . S
C826 C824 1.348 . S
C826 C828 1.353 . S
C826 H868 0.929 . S
C827 C824 1.356 . S
C827 C829 1.358 . S
C827 H869 0.930 . S
C828 N825 1.314 . S
C828 C826 1.353 . S
C828 H870 0.930 . S
C829 N825 1.279 . S
C829 C827 1.358 . S
C829 H871 0.930 . S
C830 C831 1.348 . S
C830 C832 1.356 . S
C830 O855 1.325 . S
C831 C830 1.348 . S
C831 C833 1.353 . S
C831 H872 0.929 . S
C832 C830 1.356 . S
C832 C834 1.358 . S
C832 H873 0.930 . S
C833 C831 1.353 . S
C833 N835 1.314 . S
C833 H874 0.930 . S
C834 C832 1.358 . S
C834 N835 1.279 . S
C834 H875 0.930 . S
N835 C833 1.314 . S
N835 C834 1.279 . S
C836 C838 1.353 . S
C836 N839 1.314 . S
C836 H842 0.930 . S
C837 N839 1.279 . S
C837 C840 1.358 . S
C837 H843 0.930 . S
C838 C836 1.353 . S
C838 C841 1.348 . S
C838 H876 0.929 . S
N839 Li794 1.990 . S
N839 C836 1.314 . S
N839 C837 1.279 . S
C840 C837 1.358 . S
C840 C841 1.356 . S
C840 H877 0.930 . S
C841 C838 1.348 . S
C841 C840 1.356 . S
H842 C836 0.930 . S
H843 C837 0.930 . S
C844 N845 1.314 . S
C844 C846 1.353 . S
C844 H850 0.930 . S
N845 Li795 1.990 . S
N845 C844 1.314 . S
N845 C848 1.279 . S
C846 C844 1.353 . S
C846 C849 1.348 . S
C846 H878 0.929 . S
C847 C848 1.358 . S
C847 C849 1.356 . S
C847 H879 0.930 . S
C848 N845 1.279 . S
C848 C847 1.358 . S
C848 H851 0.930 . S
C849 C846 1.348 . S
C849 C847 1.356 . S
H850 C844 0.930 . S
H851 C848 0.930 . S
O852 Li792 1.956 . S
O852 Li793 1.970 . S
O852 Li794 1.961 . S
O852 C796 1.325 . S
O853 Li792 1.970 . S
O853 Li793 1.956 . S
O853 Li795 1.961 . S
O853 C802 1.325 . S
O854 Li792 1.961 . S
O854 Li794 1.956 . S
O854 Li795 1.970 . S
O854 C824 1.325 . S
O855 Li793 1.961 . S
O855 Li794 1.970 . S
O855 Li795 1.956 . S
O855 C830 1.325 . S
H856 C798 0.929 . S
H857 C799 0.930 . S
H858 C800 0.930 . S
H859 C801 0.930 . S
H860 C803 0.930 . S
H861 C805 0.929 . S
H862 C806 0.930 . S
H863 C807 0.930 . S
H864 C810 0.930 . S
H865 C813 0.929 . S
H866 C818 0.929 . S
H867 C819 0.930 . S
H868 C826 0.929 . S
H869 C827 0.930 . S
H870 C828 0.930 . S
H871 C829 0.930 . S
H872 C831 0.929 . S
H873 C832 0.930 . S
H874 C833 0.930 . S
H875 C834 0.930 . S
H876 C838 0.929 . S
H877 C840 0.930 . S
H878 C846 0.929 . S
H879 C847 0.930 . S
Li880 N897 1.990 . S
Li880 O940 1.956 . S
Li880 O941 1.970 . S
Li880 O942 1.961 . S
Li881 N905 1.990 . S
Li881 O940 1.970 . S
Li881 O941 1.956 . S
Li881 O943 1.961 . S
Li882 N927 1.990 . S
Li882 O940 1.961 . S
Li882 O942 1.956 . S
Li882 O943 1.970 . S
Li883 N933 1.990 1_545 S
Li883 O941 1.961 . S
Li883 O942 1.970 . S
Li883 O943 1.956 . S
C884 C886 1.348 . S
C884 C887 1.356 . S
C884 O940 1.325 . S
N885 C888 1.314 . S
N885 C889 1.279 . S
C886 C884 1.348 . S
C886 C888 1.353 . S
C886 H944 0.929 . S
C887 C884 1.356 . S
C887 C889 1.358 . S
C887 H945 0.930 . S
C888 N885 1.314 . S
C888 C886 1.353 . S
C888 H946 0.930 . S
C889 N885 1.279 . S
C889 C887 1.358 . S
C889 H947 0.930 . S
C890 C893 1.348 . S
C890 C894 1.356 . S
C890 O941 1.325 . S
C891 N892 1.279 . S
C891 C894 1.358 . S
C891 H948 0.930 . S
N892 C891 1.279 . S
N892 C895 1.314 . S
C893 C890 1.348 . S
C893 C895 1.353 . S
C893 H949 0.929 . S
C894 C890 1.356 . S
C894 C891 1.358 . S
C894 H950 0.930 . S
C895 N892 1.314 . S
C895 C893 1.353 . S
C895 H951 0.930 . S
C896 N897 1.314 . S
C896 C901 1.353 . S
C896 H902 0.930 . S
N897 Li880 1.990 . S
N897 C896 1.314 . S
N897 C899 1.279 . S
C898 C899 1.358 . S
C898 C900 1.356 . S
C898 H952 0.930 . S
C899 N897 1.279 . S
C899 C898 1.358 . S
C899 H903 0.930 . S
C900 C898 1.356 . S
C900 C901 1.348 . S
C901 C896 1.353 . S
C901 C900 1.348 . S
C901 H953 0.929 . S
H902 C896 0.930 . S
H903 C899 0.930 . S
C904 N905 1.314 . S
C904 C906 1.353 1_655 S
C904 H910 0.930 . S
N905 Li881 1.990 . S
N905 C904 1.314 . S
N905 C908 1.279 . S
C906 C904 1.353 1_455 S
C906 C909 1.348 . S
C906 H954 0.929 . S
C907 C908 1.358 . S
C907 C909 1.356 1_655 S
C907 H955 0.930 . S
C908 N905 1.279 . S
C908 C907 1.358 . S
C908 H911 0.930 . S
C909 C906 1.348 . S
C909 C907 1.356 1_455 S
H910 C904 0.930 . S
H911 C908 0.930 . S
C912 C914 1.348 . S
C912 C915 1.356 . S
C912 O942 1.325 . S
N913 C916 1.314 . S
N913 C917 1.279 . S
C914 C912 1.348 . S
C914 C916 1.353 . S
C914 H956 0.929 . S
C915 C912 1.356 . S
C915 C917 1.358 . S
C915 H957 0.930 . S
C916 N913 1.314 . S
C916 C914 1.353 . S
C916 H958 0.930 . S
C917 N913 1.279 . S
C917 C915 1.358 . S
C917 H959 0.930 . S
C918 C919 1.348 . S
C918 C920 1.356 . S
C918 O943 1.325 1_565 S
C919 C918 1.348 . S
C919 C921 1.353 . S
C919 H960 0.929 . S
C920 C918 1.356 . S
C920 C922 1.358 . S
C920 H961 0.930 . S
C921 C919 1.353 . S
C921 N923 1.314 . S
C921 H962 0.930 . S
C922 C920 1.358 . S
C922 N923 1.279 . S
C922 H963 0.930 . S
N923 C921 1.314 . S
N923 C922 1.279 . S
C924 C926 1.353 . S
C924 N927 1.314 . S
C924 H930 0.930 . S
C925 N927 1.279 . S
C925 C928 1.358 . S
C925 H931 0.930 . S
C926 C924 1.353 . S
C926 C929 1.348 . S
C926 H964 0.929 . S
N927 Li882 1.990 . S
N927 C924 1.314 . S
N927 C925 1.279 . S
C928 C925 1.358 . S
C928 C929 1.356 . S
C928 H965 0.930 . S
C929 C926 1.348 . S
C929 C928 1.356 . S
H930 C924 0.930 . S
H931 C925 0.930 . S
C932 N933 1.314 . S
C932 C934 1.353 . S
C932 H938 0.930 1_565 S
N933 Li883 1.990 1_565 S
N933 C932 1.314 . S
N933 C936 1.279 . S
C934 C932 1.353 . S
C934 C937 1.348 . S
C934 H966 0.929 . S
C935 C936 1.358 . S
C935 C937 1.356 . S
C935 H967 0.930 . S
C936 N933 1.279 . S
C936 C935 1.358 . S
C936 H939 0.930 . S
C937 C934 1.348 . S
C937 C935 1.356 . S
H938 C932 0.930 1_545 S
H939 C936 0.930 . S
O940 Li880 1.956 . S
O940 Li881 1.970 . S
O940 Li882 1.961 . S
O940 C884 1.325 . S
O941 Li880 1.970 . S
O941 Li881 1.956 . S
O941 Li883 1.961 . S
O941 C890 1.325 . S
O942 Li880 1.961 . S
O942 Li882 1.956 . S
O942 Li883 1.970 . S
O942 C912 1.325 . S
O943 Li881 1.961 . S
O943 Li882 1.970 . S
O943 Li883 1.956 . S
O943 C918 1.325 1_545 S
H944 C886 0.929 . S
H945 C887 0.930 . S
H946 C888 0.930 . S
H947 C889 0.930 . S
H948 C891 0.930 . S
H949 C893 0.929 . S
H950 C894 0.930 . S
H951 C895 0.930 . S
H952 C898 0.930 . S
H953 C901 0.929 . S
H954 C906 0.929 . S
H955 C907 0.930 . S
H956 C914 0.929 . S
H957 C915 0.930 . S
H958 C916 0.930 . S
H959 C917 0.930 . S
H960 C919 0.929 . S
H961 C920 0.930 . S
H962 C921 0.930 . S
H963 C922 0.930 . S
H964 C926 0.929 . S
H965 C928 0.930 . S
H966 C934 0.929 . S
H967 C935 0.930 . S
Li968 N985 1.990 . S
Li968 O1028 1.956 . S
Li968 O1029 1.970 . S
Li968 O1030 1.961 . S
Li969 N993 1.990 . S
Li969 O1028 1.970 . S
Li969 O1029 1.956 . S
Li969 O1031 1.961 . S
Li970 N1015 1.990 . S
Li970 O1028 1.961 . S
Li970 O1030 1.956 . S
Li970 O1031 1.970 . S
Li971 N1021 1.990 . S
Li971 O1029 1.961 . S
Li971 O1030 1.970 . S
Li971 O1031 1.956 . S
C972 C974 1.348 . S
C972 C975 1.356 . S
C972 O1028 1.325 . S
N973 C976 1.314 . S
N973 C977 1.279 . S
C974 C972 1.348 . S
C974 C976 1.353 . S
C974 H1032 0.929 . S
C975 C972 1.356 . S
C975 C977 1.358 . S
C975 H1033 0.930 . S
C976 N973 1.314 . S
C976 C974 1.353 . S
C976 H1034 0.930 . S
C977 N973 1.279 . S
C977 C975 1.358 . S
C977 H1035 0.930 . S
C978 C981 1.348 . S
C978 C982 1.356 . S
C978 O1029 1.325 . S
C979 N980 1.279 . S
C979 C982 1.358 . S
C979 H1036 0.930 . S
N980 C979 1.279 . S
N980 C983 1.314 . S
C981 C978 1.348 . S
C981 C983 1.353 . S
C981 H1037 0.929 . S
C982 C978 1.356 . S
C982 C979 1.358 . S
C982 H1038 0.930 . S
C983 N980 1.314 . S
C983 C981 1.353 . S
C983 H1039 0.930 . S
C984 N985 1.314 . S
C984 C989 1.353 . S
C984 H990 0.930 . S
N985 Li968 1.990 . S
N985 C984 1.314 . S
N985 C987 1.279 . S
C986 C987 1.358 . S
C986 C988 1.356 . S
C986 H1040 0.930 . S
C987 N985 1.279 . S
C987 C986 1.358 . S
C987 H991 0.930 . S
C988 C986 1.356 . S
C988 C989 1.348 . S
C989 C984 1.353 . S
C989 C988 1.348 . S
C989 H1041 0.929 . S
H990 C984 0.930 . S
H991 C987 0.930 . S
C992 N993 1.314 . S
C992 C994 1.353 . S
C992 H998 0.930 . S
N993 Li969 1.990 . S
N993 C992 1.314 . S
N993 C996 1.279 . S
C994 C992 1.353 . S
C994 C997 1.348 . S
C994 H1042 0.929 . S
C995 C996 1.358 . S
C995 C997 1.356 . S
C995 H1043 0.930 . S
C996 N993 1.279 . S
C996 C995 1.358 . S
C996 H999 0.930 . S
C997 C994 1.348 . S
C997 C995 1.356 . S
H998 C992 0.930 . S
H999 C996 0.930 . S
C1000 C1002 1.348 . S
C1000 C1003 1.356 . S
C1000 O1030 1.325 . S
N1001 C1004 1.314 . S
N1001 C1005 1.279 . S
C1002 C1000 1.348 . S
C1002 C1004 1.353 . S
C1002 H1044 0.929 . S
C1003 C1000 1.356 . S
C1003 C1005 1.358 . S
C1003 H1045 0.930 . S
C1004 N1001 1.314 . S
C1004 C1002 1.353 . S
C1004 H1046 0.930 . S
C1005 N1001 1.279 . S
C1005 C1003 1.358 . S
C1005 H1047 0.930 . S
C1006 C1007 1.348 . S
C1006 C1008 1.356 . S
C1006 O1031 1.325 . S
C1007 C1006 1.348 . S
C1007 C1009 1.353 . S
C1007 H1048 0.929 . S
C1008 C1006 1.356 . S
C1008 C1010 1.358 . S
C1008 H1049 0.930 . S
C1009 C1007 1.353 . S
C1009 N1011 1.314 . S
C1009 H1050 0.930 . S
C1010 C1008 1.358 . S
C1010 N1011 1.279 . S
C1010 H1051 0.930 . S
N1011 C1009 1.314 . S
N1011 C1010 1.279 . S
C1012 C1014 1.353 . S
C1012 N1015 1.314 . S
C1012 H1018 0.930 . S
C1013 N1015 1.279 . S
C1013 C1016 1.358 . S
C1013 H1019 0.930 . S
C1014 C1012 1.353 . S
C1014 C1017 1.348 . S
C1014 H1052 0.929 . S
N1015 Li970 1.990 . S
N1015 C1012 1.314 . S
N1015 C1013 1.279 . S
C1016 C1013 1.358 . S
C1016 C1017 1.356 . S
C1016 H1053 0.930 . S
C1017 C1014 1.348 . S
C1017 C1016 1.356 . S
H1018 C1012 0.930 . S
H1019 C1013 0.930 . S
C1020 N1021 1.314 . S
C1020 C1022 1.353 . S
C1020 H1026 0.930 . S
N1021 Li971 1.990 . S
N1021 C1020 1.314 . S
N1021 C1024 1.279 . S
C1022 C1020 1.353 . S
C1022 C1025 1.348 . S
C1022 H1054 0.929 . S
C1023 C1024 1.358 . S
C1023 C1025 1.356 . S
C1023 H1055 0.930 . S
C1024 N1021 1.279 . S
C1024 C1023 1.358 . S
C1024 H1027 0.930 . S
C1025 C1022 1.348 . S
C1025 C1023 1.356 . S
H1026 C1020 0.930 . S
H1027 C1024 0.930 . S
O1028 Li968 1.956 . S
O1028 Li969 1.970 . S
O1028 Li970 1.961 . S
O1028 C972 1.325 . S
O1029 Li968 1.970 . S
O1029 Li969 1.956 . S
O1029 Li971 1.961 . S
O1029 C978 1.325 . S
O1030 Li968 1.961 . S
O1030 Li970 1.956 . S
O1030 Li971 1.970 . S
O1030 C1000 1.325 . S
O1031 Li969 1.961 . S
O1031 Li970 1.970 . S
O1031 Li971 1.956 . S
O1031 C1006 1.325 . S
H1032 C974 0.929 . S
H1033 C975 0.930 . S
H1034 C976 0.930 . S
H1035 C977 0.930 . S
H1036 C979 0.930 . S
H1037 C981 0.929 . S
H1038 C982 0.930 . S
H1039 C983 0.930 . S
H1040 C986 0.930 . S
H1041 C989 0.929 . S
H1042 C994 0.929 . S
H1043 C995 0.930 . S
H1044 C1002 0.929 . S
H1045 C1003 0.930 . S
H1046 C1004 0.930 . S
H1047 C1005 0.930 . S
H1048 C1007 0.929 . S
H1049 C1008 0.930 . S
H1050 C1009 0.930 . S
H1051 C1010 0.930 . S
H1052 C1014 0.929 . S
H1053 C1016 0.930 . S
H1054 C1022 0.929 . S
H1055 C1023 0.930 . S
Li1056 N1073 1.990 . S
Li1056 O1116 1.956 . S
Li1056 O1117 1.970 . S
Li1056 O1118 1.961 . S
Li1057 N1081 1.990 . S
Li1057 O1116 1.970 . S
Li1057 O1117 1.956 . S
Li1057 O1119 1.961 . S
Li1058 N1103 1.990 1_545 S
Li1058 O1116 1.961 . S
Li1058 O1118 1.956 . S
Li1058 O1119 1.970 . S
Li1059 N1109 1.990 . S
Li1059 O1117 1.961 . S
Li1059 O1118 1.970 . S
Li1059 O1119 1.956 . S
C1060 C1062 1.348 . S
C1060 C1063 1.356 . S
C1060 O1116 1.325 . S
N1061 C1064 1.314 . S
N1061 C1065 1.279 . S
C1062 C1060 1.348 . S
C1062 C1064 1.353 . S
C1062 H1120 0.929 . S
C1063 C1060 1.356 . S
C1063 C1065 1.358 . S
C1063 H1121 0.930 . S
C1064 N1061 1.314 . S
C1064 C1062 1.353 . S
C1064 H1122 0.930 . S
C1065 N1061 1.279 . S
C1065 C1063 1.358 . S
C1065 H1123 0.930 . S
C1066 C1069 1.348 . S
C1066 C1070 1.356 . S
C1066 O1117 1.325 . S
C1067 N1068 1.279 . S
C1067 C1070 1.358 . S
C1067 H1124 0.930 . S
N1068 C1067 1.279 . S
N1068 C1071 1.314 . S
C1069 C1066 1.348 . S
C1069 C1071 1.353 . S
C1069 H1125 0.929 . S
C1070 C1066 1.356 . S
C1070 C1067 1.358 . S
C1070 H1126 0.930 . S
C1071 N1068 1.314 . S
C1071 C1069 1.353 . S
C1071 H1127 0.930 . S
C1072 N1073 1.314 . S
C1072 C1077 1.353 . S
C1072 H1078 0.930 . S
N1073 Li1056 1.990 . S
N1073 C1072 1.314 . S
N1073 C1075 1.279 . S
C1074 C1075 1.358 . S
C1074 C1076 1.356 . S
C1074 H1128 0.930 . S
C1075 N1073 1.279 . S
C1075 C1074 1.358 . S
C1075 H1079 0.930 . S
C1076 C1074 1.356 . S
C1076 C1077 1.348 . S
C1077 C1072 1.353 . S
C1077 C1076 1.348 . S
C1077 H1129 0.929 . S
H1078 C1072 0.930 . S
H1079 C1075 0.930 . S
C1080 N1081 1.314 . S
C1080 C1082 1.353 . S
C1080 H1086 0.930 . S
N1081 Li1057 1.990 . S
N1081 C1080 1.314 . S
N1081 C1084 1.279 . S
C1082 C1080 1.353 . S
C1082 C1085 1.348 . S
C1082 H1130 0.929 . S
C1083 C1084 1.358 . S
C1083 C1085 1.356 . S
C1083 H1131 0.930 . S
C1084 N1081 1.279 . S
C1084 C1083 1.358 . S
C1084 H1087 0.930 . S
C1085 C1082 1.348 . S
C1085 C1083 1.356 . S
H1086 C1080 0.930 . S
H1087 C1084 0.930 . S
C1088 C1090 1.348 . S
C1088 C1091 1.356 . S
C1088 O1118 1.325 1_565 S
N1089 C1092 1.314 . S
N1089 C1093 1.279 . S
C1090 C1088 1.348 . S
C1090 C1092 1.353 . S
C1090 H1132 0.929 . S
C1091 C1088 1.356 . S
C1091 C1093 1.358 . S
C1091 H1133 0.930 . S
C1092 N1089 1.314 . S
C1092 C1090 1.353 . S
C1092 H1134 0.930 . S
C1093 N1089 1.279 . S
C1093 C1091 1.358 . S
C1093 H1135 0.930 . S
C1094 C1095 1.348 . S
C1094 C1096 1.356 . S
C1094 O1119 1.325 . S
C1095 C1094 1.348 . S
C1095 C1097 1.353 . S
C1095 H1136 0.929 . S
C1096 C1094 1.356 . S
C1096 C1098 1.358 . S
C1096 H1137 0.930 . S
C1097 C1095 1.353 . S
C1097 N1099 1.314 . S
C1097 H1138 0.930 . S
C1098 C1096 1.358 . S
C1098 N1099 1.279 . S
C1098 H1139 0.930 . S
N1099 C1097 1.314 . S
N1099 C1098 1.279 . S
C1100 C1102 1.353 . S
C1100 N1103 1.314 . S
C1100 H1106 0.930 1_565 S
C1101 N1103 1.279 . S
C1101 C1104 1.358 . S
C1101 H1107 0.930 . S
C1102 C1100 1.353 . S
C1102 C1105 1.348 . S
C1102 H1140 0.929 . S
N1103 Li1058 1.990 1_565 S
N1103 C1100 1.314 . S
N1103 C1101 1.279 . S
C1104 C1101 1.358 . S
C1104 C1105 1.356 . S
C1104 H1141 0.930 . S
C1105 C1102 1.348 . S
C1105 C1104 1.356 . S
H1106 C1100 0.930 1_545 S
H1107 C1101 0.930 . S
C1108 N1109 1.314 . S
C1108 C1110 1.353 . S
C1108 H1114 0.930 . S
N1109 Li1059 1.990 . S
N1109 C1108 1.314 . S
N1109 C1112 1.279 . S
C1110 C1108 1.353 . S
C1110 C1113 1.348 . S
C1110 H1142 0.929 . S
C1111 C1112 1.358 . S
C1111 C1113 1.356 . S
C1111 H1143 0.930 . S
C1112 N1109 1.279 . S
C1112 C1111 1.358 . S
C1112 H1115 0.930 . S
C1113 C1110 1.348 . S
C1113 C1111 1.356 . S
H1114 C1108 0.930 . S
H1115 C1112 0.930 . S
O1116 Li1056 1.956 . S
O1116 Li1057 1.970 . S
O1116 Li1058 1.961 . S
O1116 C1060 1.325 . S
O1117 Li1056 1.970 . S
O1117 Li1057 1.956 . S
O1117 Li1059 1.961 . S
O1117 C1066 1.325 . S
O1118 Li1056 1.961 . S
O1118 Li1058 1.956 . S
O1118 Li1059 1.970 . S
O1118 C1088 1.325 1_545 S
O1119 Li1057 1.961 . S
O1119 Li1058 1.970 . S
O1119 Li1059 1.956 . S
O1119 C1094 1.325 . S
H1120 C1062 0.929 . S
H1121 C1063 0.930 . S
H1122 C1064 0.930 . S
H1123 C1065 0.930 . S
H1124 C1067 0.930 . S
H1125 C1069 0.929 . S
H1126 C1070 0.930 . S
H1127 C1071 0.930 . S
H1128 C1074 0.930 . S
H1129 C1077 0.929 . S
H1130 C1082 0.929 . S
H1131 C1083 0.930 . S
H1132 C1090 0.929 . S
H1133 C1091 0.930 . S
H1134 C1092 0.930 . S
H1135 C1093 0.930 . S
H1136 C1095 0.929 . S
H1137 C1096 0.930 . S
H1138 C1097 0.930 . S
H1139 C1098 0.930 . S
H1140 C1102 0.929 . S
H1141 C1104 0.930 . S
H1142 C1110 0.929 . S
H1143 C1111 0.930 . S
Li1144 N1161 1.990 . S
Li1144 O1204 1.956 . S
Li1144 O1205 1.970 . S
Li1144 O1206 1.961 . S
Li1145 N1169 1.990 . S
Li1145 O1204 1.970 . S
Li1145 O1205 1.956 . S
Li1145 O1207 1.961 . S
Li1146 N1191 1.990 . S
Li1146 O1204 1.961 . S
Li1146 O1206 1.956 . S
Li1146 O1207 1.970 . S
Li1147 N1197 1.990 . S
Li1147 O1205 1.961 . S
Li1147 O1206 1.970 . S
Li1147 O1207 1.956 . S
C1148 C1150 1.348 . S
C1148 C1151 1.356 . S
C1148 O1204 1.325 . S
N1149 C1152 1.314 . S
N1149 C1153 1.279 . S
C1150 C1148 1.348 . S
C1150 C1152 1.353 . S
C1150 H1208 0.929 . S
C1151 C1148 1.356 . S
C1151 C1153 1.358 . S
C1151 H1209 0.930 . S
C1152 N1149 1.314 . S
C1152 C1150 1.353 . S
C1152 H1210 0.930 . S
C1153 N1149 1.279 . S
C1153 C1151 1.358 . S
C1153 H1211 0.930 . S
C1154 C1157 1.348 . S
C1154 C1158 1.356 . S
C1154 O1205 1.325 . S
C1155 N1156 1.279 . S
C1155 C1158 1.358 . S
C1155 H1212 0.930 . S
N1156 C1155 1.279 . S
N1156 C1159 1.314 . S
C1157 C1154 1.348 . S
C1157 C1159 1.353 . S
C1157 H1213 0.929 . S
C1158 C1154 1.356 . S
C1158 C1155 1.358 . S
C1158 H1214 0.930 . S
C1159 N1156 1.314 . S
C1159 C1157 1.353 . S
C1159 H1215 0.930 . S
C1160 N1161 1.314 . S
C1160 C1165 1.353 . S
C1160 H1166 0.930 . S
N1161 Li1144 1.990 . S
N1161 C1160 1.314 . S
N1161 C1163 1.279 . S
C1162 C1163 1.358 . S
C1162 C1164 1.356 . S
C1162 H1216 0.930 . S
C1163 N1161 1.279 . S
C1163 C1162 1.358 . S
C1163 H1167 0.930 . S
C1164 C1162 1.356 . S
C1164 C1165 1.348 . S
C1165 C1160 1.353 . S
C1165 C1164 1.348 . S
C1165 H1217 0.929 . S
H1166 C1160 0.930 . S
H1167 C1163 0.930 . S
C1168 N1169 1.314 . S
C1168 C1170 1.353 . S
C1168 H1174 0.930 . S
N1169 Li1145 1.990 . S
N1169 C1168 1.314 . S
N1169 C1172 1.279 . S
C1170 C1168 1.353 . S
C1170 C1173 1.348 . S
C1170 H1218 0.929 . S
C1171 C1172 1.358 . S
C1171 C1173 1.356 . S
C1171 H1219 0.930 . S
C1172 N1169 1.279 . S
C1172 C1171 1.358 . S
C1172 H1175 0.930 . S
C1173 C1170 1.348 . S
C1173 C1171 1.356 . S
H1174 C1168 0.930 . S
H1175 C1172 0.930 . S
C1176 C1178 1.348 . S
C1176 C1179 1.356 . S
C1176 O1206 1.325 . S
N1177 C1180 1.314 . S
N1177 C1181 1.279 . S
C1178 C1176 1.348 . S
C1178 C1180 1.353 . S
C1178 H1220 0.929 . S
C1179 C1176 1.356 . S
C1179 C1181 1.358 . S
C1179 H1221 0.930 . S
C1180 N1177 1.314 . S
C1180 C1178 1.353 . S
C1180 H1222 0.930 . S
C1181 N1177 1.279 . S
C1181 C1179 1.358 . S
C1181 H1223 0.930 . S
C1182 C1183 1.348 . S
C1182 C1184 1.356 . S
C1182 O1207 1.325 . S
C1183 C1182 1.348 . S
C1183 C1185 1.353 . S
C1183 H1224 0.929 . S
C1184 C1182 1.356 . S
C1184 C1186 1.358 . S
C1184 H1225 0.930 . S
C1185 C1183 1.353 . S
C1185 N1187 1.314 . S
C1185 H1226 0.930 . S
C1186 C1184 1.358 . S
C1186 N1187 1.279 . S
C1186 H1227 0.930 . S
N1187 C1185 1.314 . S
N1187 C1186 1.279 . S
C1188 C1190 1.353 . S
C1188 N1191 1.314 . S
C1188 H1194 0.930 . S
C1189 N1191 1.279 . S
C1189 C1192 1.358 . S
C1189 H1195 0.930 . S
C1190 C1188 1.353 . S
C1190 C1193 1.348 . S
C1190 H1228 0.929 . S
N1191 Li1146 1.990 . S
N1191 C1188 1.314 . S
N1191 C1189 1.279 . S
C1192 C1189 1.358 . S
C1192 C1193 1.356 . S
C1192 H1229 0.930 . S
C1193 C1190 1.348 . S
C1193 C1192 1.356 . S
H1194 C1188 0.930 . S
H1195 C1189 0.930 . S
C1196 N1197 1.314 . S
C1196 C1198 1.353 . S
C1196 H1202 0.930 . S
N1197 Li1147 1.990 . S
N1197 C1196 1.314 . S
N1197 C1200 1.279 . S
C1198 C1196 1.353 . S
C1198 C1201 1.348 . S
C1198 H1230 0.929 . S
C1199 C1200 1.358 . S
C1199 C1201 1.356 . S
C1199 H1231 0.930 . S
C1200 N1197 1.279 . S
C1200 C1199 1.358 . S
C1200 H1203 0.930 . S
C1201 C1198 1.348 . S
C1201 C1199 1.356 . S
H1202 C1196 0.930 . S
H1203 C1200 0.930 . S
O1204 Li1144 1.956 . S
O1204 Li1145 1.970 . S
O1204 Li1146 1.961 . S
O1204 C1148 1.325 . S
O1205 Li1144 1.970 . S
O1205 Li1145 1.956 . S
O1205 Li1147 1.961 . S
O1205 C1154 1.325 . S
O1206 Li1144 1.961 . S
O1206 Li1146 1.956 . S
O1206 Li1147 1.970 . S
O1206 C1176 1.325 . S
O1207 Li1145 1.961 . S
O1207 Li1146 1.970 . S
O1207 Li1147 1.956 . S
O1207 C1182 1.325 . S
H1208 C1150 0.929 . S
H1209 C1151 0.930 . S
H1210 C1152 0.930 . S
H1211 C1153 0.930 . S
H1212 C1155 0.930 . S
H1213 C1157 0.929 . S
H1214 C1158 0.930 . S
H1215 C1159 0.930 . S
H1216 C1162 0.930 . S
H1217 C1165 0.929 . S
H1218 C1170 0.929 . S
H1219 C1171 0.930 . S
H1220 C1178 0.929 . S
H1221 C1179 0.930 . S
H1222 C1180 0.930 . S
H1223 C1181 0.930 . S
H1224 C1183 0.929 . S
H1225 C1184 0.930 . S
H1226 C1185 0.930 . S
H1227 C1186 0.930 . S
H1228 C1190 0.929 . S
H1229 C1192 0.930 . S
H1230 C1198 0.929 . S
H1231 C1199 0.930 . S
Li1232 N1249 1.990 1_565 S
Li1232 O1292 1.956 . S
Li1232 O1293 1.970 . S
Li1232 O1294 1.961 . S
Li1233 N1257 1.990 . S
Li1233 O1292 1.970 . S
Li1233 O1293 1.956 . S
Li1233 O1295 1.961 . S
Li1234 N1279 1.990 . S
Li1234 O1292 1.961 . S
Li1234 O1294 1.956 . S
Li1234 O1295 1.970 . S
Li1235 N1285 1.990 . S
Li1235 O1293 1.961 . S
Li1235 O1294 1.970 . S
Li1235 O1295 1.956 . S
C1236 C1238 1.348 . S
C1236 C1239 1.356 . S
C1236 O1292 1.325 1_545 S
N1237 C1240 1.314 . S
N1237 C1241 1.279 . S
C1238 C1236 1.348 . S
C1238 C1240 1.353 . S
C1238 H1296 0.929 . S
C1239 C1236 1.356 . S
C1239 C1241 1.358 . S
C1239 H1297 0.930 . S
C1240 N1237 1.314 . S
C1240 C1238 1.353 . S
C1240 H1298 0.930 . S
C1241 N1237 1.279 . S
C1241 C1239 1.358 . S
C1241 H1299 0.930 . S
C1242 C1245 1.348 . S
C1242 C1246 1.356 . S
C1242 O1293 1.325 . S
C1243 N1244 1.279 . S
C1243 C1246 1.358 . S
C1243 H1300 0.930 . S
N1244 C1243 1.279 . S
N1244 C1247 1.314 . S
C1245 C1242 1.348 . S
C1245 C1247 1.353 . S
C1245 H1301 0.929 . S
C1246 C1242 1.356 . S
C1246 C1243 1.358 . S
C1246 H1302 0.930 . S
C1247 N1244 1.314 . S
C1247 C1245 1.353 . S
C1247 H1303 0.930 . S
C1248 N1249 1.314 . S
C1248 C1253 1.353 . S
C1248 H1254 0.930 1_545 S
N1249 Li1232 1.990 1_545 S
N1249 C1248 1.314 . S
N1249 C1251 1.279 . S
C1250 C1251 1.358 . S
C1250 C1252 1.356 . S
C1250 H1304 0.930 . S
C1251 N1249 1.279 . S
C1251 C1250 1.358 . S
C1251 H1255 0.930 . S
C1252 C1250 1.356 . S
C1252 C1253 1.348 . S
C1253 C1248 1.353 . S
C1253 C1252 1.348 . S
C1253 H1305 0.929 . S
H1254 C1248 0.930 1_565 S
H1255 C1251 0.930 . S
C1256 N1257 1.314 . S
C1256 C1258 1.353 . S
C1256 H1262 0.930 . S
N1257 Li1233 1.990 . S
N1257 C1256 1.314 . S
N1257 C1260 1.279 . S
C1258 C1256 1.353 . S
C1258 C1261 1.348 . S
C1258 H1306 0.929 . S
C1259 C1260 1.358 . S
C1259 C1261 1.356 . S
C1259 H1307 0.930 . S
C1260 N1257 1.279 . S
C1260 C1259 1.358 . S
C1260 H1263 0.930 . S
C1261 C1258 1.348 . S
C1261 C1259 1.356 . S
H1262 C1256 0.930 . S
H1263 C1260 0.930 . S
C1264 C1266 1.348 . S
C1264 C1267 1.356 . S
C1264 O1294 1.325 . S
N1265 C1268 1.314 . S
N1265 C1269 1.279 . S
C1266 C1264 1.348 . S
C1266 C1268 1.353 . S
C1266 H1308 0.929 . S
C1267 C1264 1.356 . S
C1267 C1269 1.358 . S
C1267 H1309 0.930 . S
C1268 N1265 1.314 . S
C1268 C1266 1.353 . S
C1268 H1310 0.930 . S
C1269 N1265 1.279 . S
C1269 C1267 1.358 . S
C1269 H1311 0.930 . S
C1270 C1271 1.348 . S
C1270 C1272 1.356 . S
C1270 O1295 1.325 . S
C1271 C1270 1.348 . S
C1271 C1273 1.353 . S
C1271 H1312 0.929 . S
C1272 C1270 1.356 . S
C1272 C1274 1.358 . S
C1272 H1313 0.930 . S
C1273 C1271 1.353 . S
C1273 N1275 1.314 . S
C1273 H1314 0.930 . S
C1274 C1272 1.358 . S
C1274 N1275 1.279 . S
C1274 H1315 0.930 . S
N1275 C1273 1.314 . S
N1275 C1274 1.279 . S
C1276 C1278 1.353 1_655 S
C1276 N1279 1.314 . S
C1276 H1282 0.930 . S
C1277 N1279 1.279 . S
C1277 C1280 1.358 . S
C1277 H1283 0.930 . S
C1278 C1276 1.353 1_455 S
C1278 C1281 1.348 . S
C1278 H1316 0.929 . S
N1279 Li1234 1.990 . S
N1279 C1276 1.314 . S
N1279 C1277 1.279 . S
C1280 C1277 1.358 . S
C1280 C1281 1.356 1_655 S
C1280 H1317 0.930 . S
C1281 C1278 1.348 . S
C1281 C1280 1.356 1_455 S
H1282 C1276 0.930 . S
H1283 C1277 0.930 . S
C1284 N1285 1.314 . S
C1284 C1286 1.353 . S
C1284 H1290 0.930 . S
N1285 Li1235 1.990 . S
N1285 C1284 1.314 . S
N1285 C1288 1.279 . S
C1286 C1284 1.353 . S
C1286 C1289 1.348 . S
C1286 H1318 0.929 . S
C1287 C1288 1.358 . S
C1287 C1289 1.356 . S
C1287 H1319 0.930 . S
C1288 N1285 1.279 . S
C1288 C1287 1.358 . S
C1288 H1291 0.930 . S
C1289 C1286 1.348 . S
C1289 C1287 1.356 . S
H1290 C1284 0.930 . S
H1291 C1288 0.930 . S
O1292 Li1232 1.956 . S
O1292 Li1233 1.970 . S
O1292 Li1234 1.961 . S
O1292 C1236 1.325 1_565 S
O1293 Li1232 1.970 . S
O1293 Li1233 1.956 . S
O1293 Li1235 1.961 . S
O1293 C1242 1.325 . S
O1294 Li1232 1.961 . S
O1294 Li1234 1.956 . S
O1294 Li1235 1.970 . S
O1294 C1264 1.325 . S
O1295 Li1233 1.961 . S
O1295 Li1234 1.970 . S
O1295 Li1235 1.956 . S
O1295 C1270 1.325 . S
H1296 C1238 0.929 . S
H1297 C1239 0.930 . S
H1298 C1240 0.930 . S
H1299 C1241 0.930 . S
H1300 C1243 0.930 . S
H1301 C1245 0.929 . S
H1302 C1246 0.930 . S
H1303 C1247 0.930 . S
H1304 C1250 0.930 . S
H1305 C1253 0.929 . S
H1306 C1258 0.929 . S
H1307 C1259 0.930 . S
H1308 C1266 0.929 . S
H1309 C1267 0.930 . S
H1310 C1268 0.930 . S
H1311 C1269 0.930 . S
H1312 C1271 0.929 . S
H1313 C1272 0.930 . S
H1314 C1273 0.930 . S
H1315 C1274 0.930 . S
H1316 C1278 0.929 . S
H1317 C1280 0.930 . S
H1318 C1286 0.929 . S
H1319 C1287 0.930 . S
Li1320 N1337 1.990 . S
Li1320 O1380 1.956 . S
Li1320 O1381 1.970 . S
Li1320 O1382 1.961 . S
Li1321 N1345 1.990 . S
Li1321 O1380 1.970 . S
Li1321 O1381 1.956 . S
Li1321 O1383 1.961 . S
Li1322 N1367 1.990 . S
Li1322 O1380 1.961 . S
Li1322 O1382 1.956 . S
Li1322 O1383 1.970 . S
Li1323 N1373 1.990 . S
Li1323 O1381 1.961 . S
Li1323 O1382 1.970 . S
Li1323 O1383 1.956 . S
C1324 C1326 1.348 . S
C1324 C1327 1.356 . S
C1324 O1380 1.325 . S
N1325 C1328 1.314 . S
N1325 C1329 1.279 . S
C1326 C1324 1.348 . S
C1326 C1328 1.353 . S
C1326 H1384 0.929 . S
C1327 C1324 1.356 . S
C1327 C1329 1.358 . S
C1327 H1385 0.930 . S
C1328 N1325 1.314 . S
C1328 C1326 1.353 . S
C1328 H1386 0.930 . S
C1329 N1325 1.279 . S
C1329 C1327 1.358 . S
C1329 H1387 0.930 . S
C1330 C1333 1.348 . S
C1330 C1334 1.356 . S
C1330 O1381 1.325 . S
C1331 N1332 1.279 . S
C1331 C1334 1.358 . S
C1331 H1388 0.930 . S
N1332 C1331 1.279 . S
N1332 C1335 1.314 . S
C1333 C1330 1.348 . S
C1333 C1335 1.353 . S
C1333 H1389 0.929 . S
C1334 C1330 1.356 . S
C1334 C1331 1.358 . S
C1334 H1390 0.930 . S
C1335 N1332 1.314 . S
C1335 C1333 1.353 . S
C1335 H1391 0.930 . S
C1336 N1337 1.314 . S
C1336 C1341 1.353 . S
C1336 H1342 0.930 . S
N1337 Li1320 1.990 . S
N1337 C1336 1.314 . S
N1337 C1339 1.279 . S
C1338 C1339 1.358 . S
C1338 C1340 1.356 . S
C1338 H1392 0.930 . S
C1339 N1337 1.279 . S
C1339 C1338 1.358 . S
C1339 H1343 0.930 . S
C1340 C1338 1.356 . S
C1340 C1341 1.348 . S
C1341 C1336 1.353 . S
C1341 C1340 1.348 . S
C1341 H1393 0.929 . S
H1342 C1336 0.930 . S
H1343 C1339 0.930 . S
C1344 N1345 1.314 . S
C1344 C1346 1.353 . S
C1344 H1350 0.930 . S
N1345 Li1321 1.990 . S
N1345 C1344 1.314 . S
N1345 C1348 1.279 . S
C1346 C1344 1.353 . S
C1346 C1349 1.348 . S
C1346 H1394 0.929 . S
C1347 C1348 1.358 . S
C1347 C1349 1.356 . S
C1347 H1395 0.930 . S
C1348 N1345 1.279 . S
C1348 C1347 1.358 . S
C1348 H1351 0.930 . S
C1349 C1346 1.348 . S
C1349 C1347 1.356 . S
H1350 C1344 0.930 . S
H1351 C1348 0.930 . S
C1352 C1354 1.348 . S
C1352 C1355 1.356 . S
C1352 O1382 1.325 . S
N1353 C1356 1.314 . S
N1353 C1357 1.279 . S
C1354 C1352 1.348 . S
C1354 C1356 1.353 . S
C1354 H1396 0.929 . S
C1355 C1352 1.356 . S
C1355 C1357 1.358 . S
C1355 H1397 0.930 . S
C1356 N1353 1.314 . S
C1356 C1354 1.353 . S
C1356 H1398 0.930 . S
C1357 N1353 1.279 . S
C1357 C1355 1.358 . S
C1357 H1399 0.930 . S
C1358 C1359 1.348 . S
C1358 C1360 1.356 . S
C1358 O1383 1.325 . S
C1359 C1358 1.348 . S
C1359 C1361 1.353 . S
C1359 H1400 0.929 . S
C1360 C1358 1.356 . S
C1360 C1362 1.358 . S
C1360 H1401 0.930 . S
C1361 C1359 1.353 . S
C1361 N1363 1.314 . S
C1361 H1402 0.930 . S
C1362 C1360 1.358 . S
C1362 N1363 1.279 . S
C1362 H1403 0.930 . S
N1363 C1361 1.314 . S
N1363 C1362 1.279 . S
C1364 C1366 1.353 . S
C1364 N1367 1.314 . S
C1364 H1370 0.930 . S
C1365 N1367 1.279 . S
C1365 C1368 1.358 . S
C1365 H1371 0.930 . S
C1366 C1364 1.353 . S
C1366 C1369 1.348 . S
C1366 H1404 0.929 . S
N1367 Li1322 1.990 . S
N1367 C1364 1.314 . S
N1367 C1365 1.279 . S
C1368 C1365 1.358 . S
C1368 C1369 1.356 . S
C1368 H1405 0.930 . S
C1369 C1366 1.348 . S
C1369 C1368 1.356 . S
H1370 C1364 0.930 . S
H1371 C1365 0.930 . S
C1372 N1373 1.314 . S
C1372 C1374 1.353 . S
C1372 H1378 0.930 . S
N1373 Li1323 1.990 . S
N1373 C1372 1.314 . S
N1373 C1376 1.279 . S
C1374 C1372 1.353 . S
C1374 C1377 1.348 . S
C1374 H1406 0.929 . S
C1375 C1376 1.358 . S
C1375 C1377 1.356 . S
C1375 H1407 0.930 . S
C1376 N1373 1.279 . S
C1376 C1375 1.358 . S
C1376 H1379 0.930 . S
C1377 C1374 1.348 . S
C1377 C1375 1.356 . S
H1378 C1372 0.930 . S
H1379 C1376 0.930 . S
O1380 Li1320 1.956 . S
O1380 Li1321 1.970 . S
O1380 Li1322 1.961 . S
O1380 C1324 1.325 . S
O1381 Li1320 1.970 . S
O1381 Li1321 1.956 . S
O1381 Li1323 1.961 . S
O1381 C1330 1.325 . S
O1382 Li1320 1.961 . S
O1382 Li1322 1.956 . S
O1382 Li1323 1.970 . S
O1382 C1352 1.325 . S
O1383 Li1321 1.961 . S
O1383 Li1322 1.970 . S
O1383 Li1323 1.956 . S
O1383 C1358 1.325 . S
H1384 C1326 0.929 . S
H1385 C1327 0.930 . S
H1386 C1328 0.930 . S
H1387 C1329 0.930 . S
H1388 C1331 0.930 . S
H1389 C1333 0.929 . S
H1390 C1334 0.930 . S
H1391 C1335 0.930 . S
H1392 C1338 0.930 . S
H1393 C1341 0.929 . S
H1394 C1346 0.929 . S
H1395 C1347 0.930 . S
H1396 C1354 0.929 . S
H1397 C1355 0.930 . S
H1398 C1356 0.930 . S
H1399 C1357 0.930 . S
H1400 C1359 0.929 . S
H1401 C1360 0.930 . S
H1402 C1361 0.930 . S
H1403 C1362 0.930 . S
H1404 C1366 0.929 . S
H1405 C1368 0.930 . S
H1406 C1374 0.929 . S
H1407 C1375 0.930 . S
Li1408 N1425 1.990 . S
Li1408 O1468 1.956 . S
Li1408 O1469 1.970 . S
Li1408 O1470 1.961 . S
Li1409 N1433 1.990 . S
Li1409 O1468 1.970 . S
Li1409 O1469 1.956 . S
Li1409 O1471 1.961 . S
Li1410 N1455 1.990 . S
Li1410 O1468 1.961 . S
Li1410 O1470 1.956 . S
Li1410 O1471 1.970 . S
Li1411 N1461 1.990 . S
Li1411 O1469 1.961 . S
Li1411 O1470 1.970 . S
Li1411 O1471 1.956 . S
C1412 C1414 1.348 . S
C1412 C1415 1.356 . S
C1412 O1468 1.325 . S
N1413 C1416 1.314 . S
N1413 C1417 1.279 . S
C1414 C1412 1.348 . S
C1414 C1416 1.353 . S
C1414 H1472 0.929 . S
C1415 C1412 1.356 . S
C1415 C1417 1.358 . S
C1415 H1473 0.930 . S
C1416 N1413 1.314 . S
C1416 C1414 1.353 . S
C1416 H1474 0.930 . S
C1417 N1413 1.279 . S
C1417 C1415 1.358 . S
C1417 H1475 0.930 . S
C1418 C1421 1.348 . S
C1418 C1422 1.356 . S
C1418 O1469 1.325 . S
C1419 N1420 1.279 . S
C1419 C1422 1.358 . S
C1419 H1476 0.930 . S
N1420 C1419 1.279 . S
N1420 C1423 1.314 . S
C1421 C1418 1.348 . S
C1421 C1423 1.353 . S
C1421 H1477 0.929 . S
C1422 C1418 1.356 . S
C1422 C1419 1.358 . S
C1422 H1478 0.930 . S
C1423 N1420 1.314 . S
C1423 C1421 1.353 . S
C1423 H1479 0.930 . S
C1424 N1425 1.314 . S
C1424 C1429 1.353 . S
C1424 H1430 0.930 . S
N1425 Li1408 1.990 . S
N1425 C1424 1.314 . S
N1425 C1427 1.279 . S
C1426 C1427 1.358 . S
C1426 C1428 1.356 . S
C1426 H1480 0.930 . S
C1427 N1425 1.279 . S
C1427 C1426 1.358 . S
C1427 H1431 0.930 . S
C1428 C1426 1.356 . S
C1428 C1429 1.348 . S
C1429 C1424 1.353 . S
C1429 C1428 1.348 . S
C1429 H1481 0.929 . S
H1430 C1424 0.930 . S
H1431 C1427 0.930 . S
C1432 N1433 1.314 . S
C1432 C1434 1.353 . S
C1432 H1438 0.930 . S
N1433 Li1409 1.990 . S
N1433 C1432 1.314 . S
N1433 C1436 1.279 . S
C1434 C1432 1.353 . S
C1434 C1437 1.348 1_655 S
C1434 H1482 0.929 . S
C1435 C1436 1.358 1_455 S
C1435 C1437 1.356 . S
C1435 H1483 0.930 . S
C1436 N1433 1.279 . S
C1436 C1435 1.358 1_655 S
C1436 H1439 0.930 . S
C1437 C1434 1.348 1_455 S
C1437 C1435 1.356 . S
H1438 C1432 0.930 . S
H1439 C1436 0.930 . S
C1440 C1442 1.348 . S
C1440 C1443 1.356 . S
C1440 O1470 1.325 . S
N1441 C1444 1.314 . S
N1441 C1445 1.279 . S
C1442 C1440 1.348 . S
C1442 C1444 1.353 . S
C1442 H1484 0.929 . S
C1443 C1440 1.356 . S
C1443 C1445 1.358 . S
C1443 H1485 0.930 . S
C1444 N1441 1.314 . S
C1444 C1442 1.353 . S
C1444 H1486 0.930 . S
C1445 N1441 1.279 . S
C1445 C1443 1.358 . S
C1445 H1487 0.930 . S
C1446 C1447 1.348 . S
C1446 C1448 1.356 . S
C1446 O1471 1.325 . S
C1447 C1446 1.348 . S
C1447 C1449 1.353 . S
C1447 H1488 0.929 . S
C1448 C1446 1.356 . S
C1448 C1450 1.358 . S
C1448 H1489 0.930 . S
C1449 C1447 1.353 . S
C1449 N1451 1.314 . S
C1449 H1490 0.930 . S
C1450 C1448 1.358 . S
C1450 N1451 1.279 . S
C1450 H1491 0.930 . S
N1451 C1449 1.314 . S
N1451 C1450 1.279 . S
C1452 C1454 1.353 . S
C1452 N1455 1.314 . S
C1452 H1458 0.930 . S
C1453 N1455 1.279 . S
C1453 C1456 1.358 . S
C1453 H1459 0.930 . S
C1454 C1452 1.353 . S
C1454 C1457 1.348 . S
C1454 H1492 0.929 . S
N1455 Li1410 1.990 . S
N1455 C1452 1.314 . S
N1455 C1453 1.279 . S
C1456 C1453 1.358 . S
C1456 C1457 1.356 . S
C1456 H1493 0.930 . S
C1457 C1454 1.348 . S
C1457 C1456 1.356 . S
H1458 C1452 0.930 . S
H1459 C1453 0.930 . S
C1460 N1461 1.314 . S
C1460 C1462 1.353 . S
C1460 H1466 0.930 . S
N1461 Li1411 1.990 . S
N1461 C1460 1.314 . S
N1461 C1464 1.279 . S
C1462 C1460 1.353 . S
C1462 C1465 1.348 . S
C1462 H1494 0.929 . S
C1463 C1464 1.358 . S
C1463 C1465 1.356 . S
C1463 H1495 0.930 . S
C1464 N1461 1.279 . S
C1464 C1463 1.358 . S
C1464 H1467 0.930 . S
C1465 C1462 1.348 . S
C1465 C1463 1.356 . S
H1466 C1460 0.930 . S
H1467 C1464 0.930 . S
O1468 Li1408 1.956 . S
O1468 Li1409 1.970 . S
O1468 Li1410 1.961 . S
O1468 C1412 1.325 . S
O1469 Li1408 1.970 . S
O1469 Li1409 1.956 . S
O1469 Li1411 1.961 . S
O1469 C1418 1.325 . S
O1470 Li1408 1.961 . S
O1470 Li1410 1.956 . S
O1470 Li1411 1.970 . S
O1470 C1440 1.325 . S
O1471 Li1409 1.961 . S
O1471 Li1410 1.970 . S
O1471 Li1411 1.956 . S
O1471 C1446 1.325 . S
H1472 C1414 0.929 . S
H1473 C1415 0.930 . S
H1474 C1416 0.930 . S
H1475 C1417 0.930 . S
H1476 C1419 0.930 . S
H1477 C1421 0.929 . S
H1478 C1422 0.930 . S
H1479 C1423 0.930 . S
H1480 C1426 0.930 . S
H1481 C1429 0.929 . S
H1482 C1434 0.929 . S
H1483 C1435 0.930 . S
H1484 C1442 0.929 . S
H1485 C1443 0.930 . S
H1486 C1444 0.930 . S
H1487 C1445 0.930 . S
H1488 C1447 0.929 . S
H1489 C1448 0.930 . S
H1490 C1449 0.930 . S
H1491 C1450 0.930 . S
H1492 C1454 0.929 . S
H1493 C1456 0.930 . S
H1494 C1462 0.929 . S
H1495 C1463 0.930 . S
Li1496 N1513 1.990 . S
Li1496 O1556 1.956 . S
Li1496 O1557 1.970 . S
Li1496 O1558 1.961 . S
Li1497 N1521 1.990 . S
Li1497 O1556 1.970 . S
Li1497 O1557 1.956 . S
Li1497 O1559 1.961 . S
Li1498 N1543 1.990 . S
Li1498 O1556 1.961 . S
Li1498 O1558 1.956 . S
Li1498 O1559 1.970 . S
Li1499 N1549 1.990 . S
Li1499 O1557 1.961 . S
Li1499 O1558 1.970 . S
Li1499 O1559 1.956 . S
C1500 C1502 1.348 . S
C1500 C1503 1.356 . S
C1500 O1556 1.325 . S
N1501 C1504 1.314 . S
N1501 C1505 1.279 . S
C1502 C1500 1.348 . S
C1502 C1504 1.353 . S
C1502 H1560 0.929 . S
C1503 C1500 1.356 . S
C1503 C1505 1.358 . S
C1503 H1561 0.930 . S
C1504 N1501 1.314 . S
C1504 C1502 1.353 . S
C1504 H1562 0.930 . S
C1505 N1501 1.279 . S
C1505 C1503 1.358 . S
C1505 H1563 0.930 . S
C1506 C1509 1.348 . S
C1506 C1510 1.356 . S
C1506 O1557 1.325 . S
C1507 N1508 1.279 . S
C1507 C1510 1.358 . S
C1507 H1564 0.930 . S
N1508 C1507 1.279 . S
N1508 C1511 1.314 . S
C1509 C1506 1.348 . S
C1509 C1511 1.353 . S
C1509 H1565 0.929 . S
C1510 C1506 1.356 . S
C1510 C1507 1.358 . S
C1510 H1566 0.930 . S
C1511 N1508 1.314 . S
C1511 C1509 1.353 . S
C1511 H1567 0.930 . S
C1512 N1513 1.314 . S
C1512 C1517 1.353 . S
C1512 H1518 0.930 . S
N1513 Li1496 1.990 . S
N1513 C1512 1.314 . S
N1513 C1515 1.279 . S
C1514 C1515 1.358 . S
C1514 C1516 1.356 . S
C1514 H1568 0.930 . S
C1515 N1513 1.279 . S
C1515 C1514 1.358 . S
C1515 H1519 0.930 . S
C1516 C1514 1.356 . S
C1516 C1517 1.348 . S
C1517 C1512 1.353 . S
C1517 C1516 1.348 . S
C1517 H1569 0.929 . S
H1518 C1512 0.930 . S
H1519 C1515 0.930 . S
C1520 N1521 1.314 . S
C1520 C1522 1.353 . S
C1520 H1526 0.930 . S
N1521 Li1497 1.990 . S
N1521 C1520 1.314 . S
N1521 C1524 1.279 . S
C1522 C1520 1.353 . S
C1522 C1525 1.348 . S
C1522 H1570 0.929 . S
C1523 C1524 1.358 . S
C1523 C1525 1.356 . S
C1523 H1571 0.930 . S
C1524 N1521 1.279 . S
C1524 C1523 1.358 . S
C1524 H1527 0.930 . S
C1525 C1522 1.348 . S
C1525 C1523 1.356 . S
H1526 C1520 0.930 . S
H1527 C1524 0.930 . S
C1528 C1530 1.348 . S
C1528 C1531 1.356 . S
C1528 O1558 1.325 . S
N1529 C1532 1.314 . S
N1529 C1533 1.279 . S
C1530 C1528 1.348 . S
C1530 C1532 1.353 . S
C1530 H1572 0.929 . S
C1531 C1528 1.356 . S
C1531 C1533 1.358 . S
C1531 H1573 0.930 . S
C1532 N1529 1.314 . S
C1532 C1530 1.353 . S
C1532 H1574 0.930 . S
C1533 N1529 1.279 . S
C1533 C1531 1.358 . S
C1533 H1575 0.930 . S
C1534 C1535 1.348 . S
C1534 C1536 1.356 . S
C1534 O1559 1.325 . S
C1535 C1534 1.348 . S
C1535 C1537 1.353 . S
C1535 H1576 0.929 . S
C1536 C1534 1.356 . S
C1536 C1538 1.358 . S
C1536 H1577 0.930 . S
C1537 C1535 1.353 . S
C1537 N1539 1.314 . S
C1537 H1578 0.930 . S
C1538 C1536 1.358 . S
C1538 N1539 1.279 . S
C1538 H1579 0.930 . S
N1539 C1537 1.314 . S
N1539 C1538 1.279 . S
C1540 C1542 1.353 . S
C1540 N1543 1.314 . S
C1540 H1546 0.930 . S
C1541 N1543 1.279 . S
C1541 C1544 1.358 . S
C1541 H1547 0.930 . S
C1542 C1540 1.353 . S
C1542 C1545 1.348 . S
C1542 H1580 0.929 . S
N1543 Li1498 1.990 . S
N1543 C1540 1.314 . S
N1543 C1541 1.279 . S
C1544 C1541 1.358 . S
C1544 C1545 1.356 . S
C1544 H1581 0.930 . S
C1545 C1542 1.348 . S
C1545 C1544 1.356 . S
H1546 C1540 0.930 . S
H1547 C1541 0.930 . S
C1548 N1549 1.314 . S
C1548 C1550 1.353 . S
C1548 H1554 0.930 . S
N1549 Li1499 1.990 . S
N1549 C1548 1.314 . S
N1549 C1552 1.279 . S
C1550 C1548 1.353 . S
C1550 C1553 1.348 . S
C1550 H1582 0.929 . S
C1551 C1552 1.358 . S
C1551 C1553 1.356 . S
C1551 H1583 0.930 . S
C1552 N1549 1.279 . S
C1552 C1551 1.358 . S
C1552 H1555 0.930 . S
C1553 C1550 1.348 . S
C1553 C1551 1.356 . S
H1554 C1548 0.930 . S
H1555 C1552 0.930 . S
O1556 Li1496 1.956 . S
O1556 Li1497 1.970 . S
O1556 Li1498 1.961 . S
O1556 C1500 1.325 . S
O1557 Li1496 1.970 . S
O1557 Li1497 1.956 . S
O1557 Li1499 1.961 . S
O1557 C1506 1.325 . S
O1558 Li1496 1.961 . S
O1558 Li1498 1.956 . S
O1558 Li1499 1.970 . S
O1558 C1528 1.325 . S
O1559 Li1497 1.961 . S
O1559 Li1498 1.970 . S
O1559 Li1499 1.956 . S
O1559 C1534 1.325 . S
H1560 C1502 0.929 . S
H1561 C1503 0.930 . S
H1562 C1504 0.930 . S
H1563 C1505 0.930 . S
H1564 C1507 0.930 . S
H1565 C1509 0.929 . S
H1566 C1510 0.930 . S
H1567 C1511 0.930 . S
H1568 C1514 0.930 . S
H1569 C1517 0.929 . S
H1570 C1522 0.929 . S
H1571 C1523 0.930 . S
H1572 C1530 0.929 . S
H1573 C1531 0.930 . S
H1574 C1532 0.930 . S
H1575 C1533 0.930 . S
H1576 C1535 0.929 . S
H1577 C1536 0.930 . S
H1578 C1537 0.930 . S
H1579 C1538 0.930 . S
H1580 C1542 0.929 . S
H1581 C1544 0.930 . S
H1582 C1550 0.929 . S
H1583 C1551 0.930 . S
Li1584 N1601 1.990 . S
Li1584 O1644 1.956 . S
Li1584 O1645 1.970 . S
Li1584 O1646 1.961 . S
Li1585 N1609 1.990 . S
Li1585 O1644 1.970 . S
Li1585 O1645 1.956 . S
Li1585 O1647 1.961 . S
Li1586 N1631 1.990 . S
Li1586 O1644 1.961 . S
Li1586 O1646 1.956 . S
Li1586 O1647 1.970 . S
Li1587 N1637 1.990 . S
Li1587 O1645 1.961 . S
Li1587 O1646 1.970 . S
Li1587 O1647 1.956 . S
C1588 C1590 1.348 . S
C1588 C1591 1.356 . S
C1588 O1644 1.325 . S
N1589 C1592 1.314 . S
N1589 C1593 1.279 . S
C1590 C1588 1.348 . S
C1590 C1592 1.353 . S
C1590 H1648 0.929 . S
C1591 C1588 1.356 . S
C1591 C1593 1.358 . S
C1591 H1649 0.930 . S
C1592 N1589 1.314 . S
C1592 C1590 1.353 . S
C1592 H1650 0.930 . S
C1593 N1589 1.279 . S
C1593 C1591 1.358 . S
C1593 H1651 0.930 . S
C1594 C1597 1.348 . S
C1594 C1598 1.356 . S
C1594 O1645 1.325 . S
C1595 N1596 1.279 . S
C1595 C1598 1.358 . S
C1595 H1652 0.930 . S
N1596 C1595 1.279 . S
N1596 C1599 1.314 . S
C1597 C1594 1.348 . S
C1597 C1599 1.353 . S
C1597 H1653 0.929 . S
C1598 C1594 1.356 . S
C1598 C1595 1.358 . S
C1598 H1654 0.930 . S
C1599 N1596 1.314 . S
C1599 C1597 1.353 . S
C1599 H1655 0.930 . S
C1600 N1601 1.314 . S
C1600 C1605 1.353 . S
C1600 H1606 0.930 . S
N1601 Li1584 1.990 . S
N1601 C1600 1.314 . S
N1601 C1603 1.279 . S
C1602 C1603 1.358 . S
C1602 C1604 1.356 . S
C1602 H1656 0.930 . S
C1603 N1601 1.279 . S
C1603 C1602 1.358 . S
C1603 H1607 0.930 . S
C1604 C1602 1.356 . S
C1604 C1605 1.348 . S
C1605 C1600 1.353 . S
C1605 C1604 1.348 . S
C1605 H1657 0.929 . S
H1606 C1600 0.930 . S
H1607 C1603 0.930 . S
C1608 N1609 1.314 . S
C1608 C1610 1.353 . S
C1608 H1614 0.930 . S
N1609 Li1585 1.990 . S
N1609 C1608 1.314 . S
N1609 C1612 1.279 . S
C1610 C1608 1.353 . S
C1610 C1613 1.348 . S
C1610 H1658 0.929 . S
C1611 C1612 1.358 . S
C1611 C1613 1.356 . S
C1611 H1659 0.930 . S
C1612 N1609 1.279 . S
C1612 C1611 1.358 . S
C1612 H1615 0.930 . S
C1613 C1610 1.348 . S
C1613 C1611 1.356 . S
H1614 C1608 0.930 . S
H1615 C1612 0.930 . S
C1616 C1618 1.348 . S
C1616 C1619 1.356 . S
C1616 O1646 1.325 . S
N1617 C1620 1.314 . S
N1617 C1621 1.279 . S
C1618 C1616 1.348 . S
C1618 C1620 1.353 . S
C1618 H1660 0.929 . S
C1619 C1616 1.356 . S
C1619 C1621 1.358 . S
C1619 H1661 0.930 . S
C1620 N1617 1.314 . S
C1620 C1618 1.353 . S
C1620 H1662 0.930 . S
C1621 N1617 1.279 . S
C1621 C1619 1.358 . S
C1621 H1663 0.930 . S
C1622 C1623 1.348 . S
C1622 C1624 1.356 . S
C1622 O1647 1.325 . S
C1623 C1622 1.348 . S
C1623 C1625 1.353 . S
C1623 H1664 0.929 . S
C1624 C1622 1.356 . S
C1624 C1626 1.358 . S
C1624 H1665 0.930 . S
C1625 C1623 1.353 . S
C1625 N1627 1.314 . S
C1625 H1666 0.930 . S
C1626 C1624 1.358 . S
C1626 N1627 1.279 . S
C1626 H1667 0.930 . S
N1627 C1625 1.314 . S
N1627 C1626 1.279 . S
C1628 C1630 1.353 . S
C1628 N1631 1.314 . S
C1628 H1634 0.930 . S
C1629 N1631 1.279 . S
C1629 C1632 1.358 . S
C1629 H1635 0.930 . S
C1630 C1628 1.353 . S
C1630 C1633 1.348 . S
C1630 H1668 0.929 . S
N1631 Li1586 1.990 . S
N1631 C1628 1.314 . S
N1631 C1629 1.279 . S
C1632 C1629 1.358 . S
C1632 C1633 1.356 . S
C1632 H1669 0.930 . S
C1633 C1630 1.348 . S
C1633 C1632 1.356 . S
H1634 C1628 0.930 . S
H1635 C1629 0.930 . S
C1636 N1637 1.314 . S
C1636 C1638 1.353 . S
C1636 H1642 0.930 . S
N1637 Li1587 1.990 . S
N1637 C1636 1.314 . S
N1637 C1640 1.279 . S
C1638 C1636 1.353 . S
C1638 C1641 1.348 . S
C1638 H1670 0.929 . S
C1639 C1640 1.358 . S
C1639 C1641 1.356 . S
C1639 H1671 0.930 . S
C1640 N1637 1.279 . S
C1640 C1639 1.358 . S
C1640 H1643 0.930 . S
C1641 C1638 1.348 . S
C1641 C1639 1.356 . S
H1642 C1636 0.930 . S
H1643 C1640 0.930 . S
O1644 Li1584 1.956 . S
O1644 Li1585 1.970 . S
O1644 Li1586 1.961 . S
O1644 C1588 1.325 . S
O1645 Li1584 1.970 . S
O1645 Li1585 1.956 . S
O1645 Li1587 1.961 . S
O1645 C1594 1.325 . S
O1646 Li1584 1.961 . S
O1646 Li1586 1.956 . S
O1646 Li1587 1.970 . S
O1646 C1616 1.325 . S
O1647 Li1585 1.961 . S
O1647 Li1586 1.970 . S
O1647 Li1587 1.956 . S
O1647 C1622 1.325 . S
H1648 C1590 0.929 . S
H1649 C1591 0.930 . S
H1650 C1592 0.930 . S
H1651 C1593 0.930 . S
H1652 C1595 0.930 . S
H1653 C1597 0.929 . S
H1654 C1598 0.930 . S
H1655 C1599 0.930 . S
H1656 C1602 0.930 . S
H1657 C1605 0.929 . S
H1658 C1610 0.929 . S
H1659 C1611 0.930 . S
H1660 C1618 0.929 . S
H1661 C1619 0.930 . S
H1662 C1620 0.930 . S
H1663 C1621 0.930 . S
H1664 C1623 0.929 . S
H1665 C1624 0.930 . S
H1666 C1625 0.930 . S
H1667 C1626 0.930 . S
H1668 C1630 0.929 . S
H1669 C1632 0.930 . S
H1670 C1638 0.929 . S
H1671 C1639 0.930 . S
Li1672 N1689 1.990 . S
Li1672 O1732 1.956 . S
Li1672 O1733 1.970 . S
Li1672 O1734 1.961 . S
Li1673 N1697 1.990 . S
Li1673 O1732 1.970 . S
Li1673 O1733 1.956 . S
Li1673 O1735 1.961 . S
Li1674 N1719 1.990 . S
Li1674 O1732 1.961 . S
Li1674 O1734 1.956 . S
Li1674 O1735 1.970 . S
Li1675 N1725 1.990 . S
Li1675 O1733 1.961 . S
Li1675 O1734 1.970 . S
Li1675 O1735 1.956 . S
C1676 C1678 1.348 . S
C1676 C1679 1.356 . S
C1676 O1732 1.325 . S
N1677 C1680 1.314 . S
N1677 C1681 1.279 . S
C1678 C1676 1.348 . S
C1678 C1680 1.353 . S
C1678 H1736 0.929 . S
C1679 C1676 1.356 . S
C1679 C1681 1.358 . S
C1679 H1737 0.930 . S
C1680 N1677 1.314 . S
C1680 C1678 1.353 . S
C1680 H1738 0.930 . S
C1681 N1677 1.279 . S
C1681 C1679 1.358 . S
C1681 H1739 0.930 . S
C1682 C1685 1.348 . S
C1682 C1686 1.356 . S
C1682 O1733 1.325 . S
C1683 N1684 1.279 . S
C1683 C1686 1.358 . S
C1683 H1740 0.930 . S
N1684 C1683 1.279 . S
N1684 C1687 1.314 . S
C1685 C1682 1.348 . S
C1685 C1687 1.353 . S
C1685 H1741 0.929 . S
C1686 C1682 1.356 . S
C1686 C1683 1.358 . S
C1686 H1742 0.930 . S
C1687 N1684 1.314 . S
C1687 C1685 1.353 . S
C1687 H1743 0.930 . S
C1688 N1689 1.314 . S
C1688 C1693 1.353 . S
C1688 H1694 0.930 . S
N1689 Li1672 1.990 . S
N1689 C1688 1.314 . S
N1689 C1691 1.279 . S
C1690 C1691 1.358 . S
C1690 C1692 1.356 . S
C1690 H1744 0.930 . S
C1691 N1689 1.279 . S
C1691 C1690 1.358 . S
C1691 H1695 0.930 . S
C1692 C1690 1.356 . S
C1692 C1693 1.348 . S
C1693 C1688 1.353 . S
C1693 C1692 1.348 . S
C1693 H1745 0.929 . S
H1694 C1688 0.930 . S
H1695 C1691 0.930 . S
C1696 N1697 1.314 . S
C1696 C1698 1.353 . S
C1696 H1702 0.930 . S
N1697 Li1673 1.990 . S
N1697 C1696 1.314 . S
N1697 C1700 1.279 . S
C1698 C1696 1.353 . S
C1698 C1701 1.348 . S
C1698 H1746 0.929 . S
C1699 C1700 1.358 . S
C1699 C1701 1.356 . S
C1699 H1747 0.930 . S
C1700 N1697 1.279 . S
C1700 C1699 1.358 . S
C1700 H1703 0.930 . S
C1701 C1698 1.348 . S
C1701 C1699 1.356 . S
H1702 C1696 0.930 . S
H1703 C1700 0.930 . S
C1704 C1706 1.348 . S
C1704 C1707 1.356 . S
C1704 O1734 1.325 . S
N1705 C1708 1.314 . S
N1705 C1709 1.279 . S
C1706 C1704 1.348 . S
C1706 C1708 1.353 . S
C1706 H1748 0.929 . S
C1707 C1704 1.356 . S
C1707 C1709 1.358 . S
C1707 H1749 0.930 . S
C1708 N1705 1.314 . S
C1708 C1706 1.353 . S
C1708 H1750 0.930 . S
C1709 N1705 1.279 . S
C1709 C1707 1.358 . S
C1709 H1751 0.930 . S
C1710 C1711 1.348 . S
C1710 C1712 1.356 . S
C1710 O1735 1.325 . S
C1711 C1710 1.348 . S
C1711 C1713 1.353 . S
C1711 H1752 0.929 . S
C1712 C1710 1.356 . S
C1712 C1714 1.358 . S
C1712 H1753 0.930 . S
C1713 C1711 1.353 . S
C1713 N1715 1.314 . S
C1713 H1754 0.930 . S
C1714 C1712 1.358 . S
C1714 N1715 1.279 . S
C1714 H1755 0.930 . S
N1715 C1713 1.314 . S
N1715 C1714 1.279 . S
C1716 C1718 1.353 . S
C1716 N1719 1.314 . S
C1716 H1722 0.930 . S
C1717 N1719 1.279 . S
C1717 C1720 1.358 . S
C1717 H1723 0.930 . S
C1718 C1716 1.353 . S
C1718 C1721 1.348 . S
C1718 H1756 0.929 . S
N1719 Li1674 1.990 . S
N1719 C1716 1.314 . S
N1719 C1717 1.279 . S
C1720 C1717 1.358 . S
C1720 C1721 1.356 . S
C1720 H1757 0.930 . S
C1721 C1718 1.348 . S
C1721 C1720 1.356 . S
H1722 C1716 0.930 . S
H1723 C1717 0.930 . S
C1724 N1725 1.314 . S
C1724 C1726 1.353 . S
C1724 H1730 0.930 . S
N1725 Li1675 1.990 . S
N1725 C1724 1.314 . S
N1725 C1728 1.279 . S
C1726 C1724 1.353 . S
C1726 C1729 1.348 . S
C1726 H1758 0.929 . S
C1727 C1728 1.358 . S
C1727 C1729 1.356 . S
C1727 H1759 0.930 . S
C1728 N1725 1.279 . S
C1728 C1727 1.358 . S
C1728 H1731 0.930 . S
C1729 C1726 1.348 . S
C1729 C1727 1.356 . S
H1730 C1724 0.930 . S
H1731 C1728 0.930 . S
O1732 Li1672 1.956 . S
O1732 Li1673 1.970 . S
O1732 Li1674 1.961 . S
O1732 C1676 1.325 . S
O1733 Li1672 1.970 . S
O1733 Li1673 1.956 . S
O1733 Li1675 1.961 . S
O1733 C1682 1.325 . S
O1734 Li1672 1.961 . S
O1734 Li1674 1.956 . S
O1734 Li1675 1.970 . S
O1734 C1704 1.325 . S
O1735 Li1673 1.961 . S
O1735 Li1674 1.970 . S
O1735 Li1675 1.956 . S
O1735 C1710 1.325 . S
H1736 C1678 0.929 . S
H1737 C1679 0.930 . S
H1738 C1680 0.930 . S
H1739 C1681 0.930 . S
H1740 C1683 0.930 . S
H1741 C1685 0.929 . S
H1742 C1686 0.930 . S
H1743 C1687 0.930 . S
H1744 C1690 0.930 . S
H1745 C1693 0.929 . S
H1746 C1698 0.929 . S
H1747 C1699 0.930 . S
H1748 C1706 0.929 . S
H1749 C1707 0.930 . S
H1750 C1708 0.930 . S
H1751 C1709 0.930 . S
H1752 C1711 0.929 . S
H1753 C1712 0.930 . S
H1754 C1713 0.930 . S
H1755 C1714 0.930 . S
H1756 C1718 0.929 . S
H1757 C1720 0.930 . S
H1758 C1726 0.929 . S
H1759 C1727 0.930 . S
Li1760 N1777 1.990 . S
Li1760 O1820 1.956 . S
Li1760 O1821 1.970 . S
Li1760 O1822 1.961 . S
Li1761 N1785 1.990 . S
Li1761 O1820 1.970 . S
Li1761 O1821 1.956 . S
Li1761 O1823 1.961 . S
Li1762 N1807 1.990 . S
Li1762 O1820 1.961 . S
Li1762 O1822 1.956 . S
Li1762 O1823 1.970 . S
Li1763 N1813 1.990 . S
Li1763 O1821 1.961 . S
Li1763 O1822 1.970 . S
Li1763 O1823 1.956 . S
C1764 C1766 1.348 . S
C1764 C1767 1.356 . S
C1764 O1820 1.325 . S
N1765 C1768 1.314 . S
N1765 C1769 1.279 . S
C1766 C1764 1.348 . S
C1766 C1768 1.353 . S
C1766 H1824 0.929 . S
C1767 C1764 1.356 . S
C1767 C1769 1.358 . S
C1767 H1825 0.930 . S
C1768 N1765 1.314 . S
C1768 C1766 1.353 . S
C1768 H1826 0.930 . S
C1769 N1765 1.279 . S
C1769 C1767 1.358 . S
C1769 H1827 0.930 . S
C1770 C1773 1.348 . S
C1770 C1774 1.356 . S
C1770 O1821 1.325 . S
C1771 N1772 1.279 . S
C1771 C1774 1.358 . S
C1771 H1828 0.930 . S
N1772 C1771 1.279 . S
N1772 C1775 1.314 . S
C1773 C1770 1.348 . S
C1773 C1775 1.353 . S
C1773 H1829 0.929 . S
C1774 C1770 1.356 . S
C1774 C1771 1.358 . S
C1774 H1830 0.930 . S
C1775 N1772 1.314 . S
C1775 C1773 1.353 . S
C1775 H1831 0.930 . S
C1776 N1777 1.314 . S
C1776 C1781 1.353 . S
C1776 H1782 0.930 . S
N1777 Li1760 1.990 . S
N1777 C1776 1.314 . S
N1777 C1779 1.279 . S
C1778 C1779 1.358 . S
C1778 C1780 1.356 . S
C1778 H1832 0.930 . S
C1779 N1777 1.279 . S
C1779 C1778 1.358 . S
C1779 H1783 0.930 . S
C1780 C1778 1.356 . S
C1780 C1781 1.348 . S
C1781 C1776 1.353 . S
C1781 C1780 1.348 . S
C1781 H1833 0.929 . S
H1782 C1776 0.930 . S
H1783 C1779 0.930 . S
C1784 N1785 1.314 . S
C1784 C1786 1.353 . S
C1784 H1790 0.930 . S
N1785 Li1761 1.990 . S
N1785 C1784 1.314 . S
N1785 C1788 1.279 . S
C1786 C1784 1.353 . S
C1786 C1789 1.348 . S
C1786 H1834 0.929 . S
C1787 C1788 1.358 . S
C1787 C1789 1.356 . S
C1787 H1835 0.930 . S
C1788 N1785 1.279 . S
C1788 C1787 1.358 . S
C1788 H1791 0.930 . S
C1789 C1786 1.348 . S
C1789 C1787 1.356 . S
H1790 C1784 0.930 . S
H1791 C1788 0.930 . S
C1792 C1794 1.348 . S
C1792 C1795 1.356 . S
C1792 O1822 1.325 . S
N1793 C1796 1.314 . S
N1793 C1797 1.279 . S
C1794 C1792 1.348 . S
C1794 C1796 1.353 . S
C1794 H1836 0.929 . S
C1795 C1792 1.356 . S
C1795 C1797 1.358 . S
C1795 H1837 0.930 . S
C1796 N1793 1.314 . S
C1796 C1794 1.353 . S
C1796 H1838 0.930 . S
C1797 N1793 1.279 . S
C1797 C1795 1.358 . S
C1797 H1839 0.930 . S
C1798 C1799 1.348 . S
C1798 C1800 1.356 . S
C1798 O1823 1.325 . S
C1799 C1798 1.348 . S
C1799 C1801 1.353 . S
C1799 H1840 0.929 . S
C1800 C1798 1.356 . S
C1800 C1802 1.358 . S
C1800 H1841 0.930 . S
C1801 C1799 1.353 . S
C1801 N1803 1.314 . S
C1801 H1842 0.930 . S
C1802 C1800 1.358 . S
C1802 N1803 1.279 . S
C1802 H1843 0.930 . S
N1803 C1801 1.314 . S
N1803 C1802 1.279 . S
C1804 C1806 1.353 . S
C1804 N1807 1.314 . S
C1804 H1810 0.930 . S
C1805 N1807 1.279 . S
C1805 C1808 1.358 1_655 S
C1805 H1811 0.930 . S
C1806 C1804 1.353 . S
C1806 C1809 1.348 1_655 S
C1806 H1844 0.929 . S
N1807 Li1762 1.990 . S
N1807 C1804 1.314 . S
N1807 C1805 1.279 . S
C1808 C1805 1.358 1_455 S
C1808 C1809 1.356 . S
C1808 H1845 0.930 . S
C1809 C1806 1.348 1_455 S
C1809 C1808 1.356 . S
H1810 C1804 0.930 . S
H1811 C1805 0.930 . S
C1812 N1813 1.314 . S
C1812 C1814 1.353 . S
C1812 H1818 0.930 . S
N1813 Li1763 1.990 . S
N1813 C1812 1.314 . S
N1813 C1816 1.279 . S
C1814 C1812 1.353 . S
C1814 C1817 1.348 . S
C1814 H1846 0.929 . S
C1815 C1816 1.358 . S
C1815 C1817 1.356 . S
C1815 H1847 0.930 . S
C1816 N1813 1.279 . S
C1816 C1815 1.358 . S
C1816 H1819 0.930 . S
C1817 C1814 1.348 . S
C1817 C1815 1.356 . S
H1818 C1812 0.930 . S
H1819 C1816 0.930 . S
O1820 Li1760 1.956 . S
O1820 Li1761 1.970 . S
O1820 Li1762 1.961 . S
O1820 C1764 1.325 . S
O1821 Li1760 1.970 . S
O1821 Li1761 1.956 . S
O1821 Li1763 1.961 . S
O1821 C1770 1.325 . S
O1822 Li1760 1.961 . S
O1822 Li1762 1.956 . S
O1822 Li1763 1.970 . S
O1822 C1792 1.325 . S
O1823 Li1761 1.961 . S
O1823 Li1762 1.970 . S
O1823 Li1763 1.956 . S
O1823 C1798 1.325 . S
H1824 C1766 0.929 . S
H1825 C1767 0.930 . S
H1826 C1768 0.930 . S
H1827 C1769 0.930 . S
H1828 C1771 0.930 . S
H1829 C1773 0.929 . S
H1830 C1774 0.930 . S
H1831 C1775 0.930 . S
H1832 C1778 0.930 . S
H1833 C1781 0.929 . S
H1834 C1786 0.929 . S
H1835 C1787 0.930 . S
H1836 C1794 0.929 . S
H1837 C1795 0.930 . S
H1838 C1796 0.930 . S
H1839 C1797 0.930 . S
H1840 C1799 0.929 . S
H1841 C1800 0.930 . S
H1842 C1801 0.930 . S
H1843 C1802 0.930 . S
H1844 C1806 0.929 . S
H1845 C1808 0.930 . S
H1846 C1814 0.929 . S
H1847 C1815 0.930 . S
Li1848 N1865 1.990 . S
Li1848 O1908 1.956 . S
Li1848 O1909 1.970 . S
Li1848 O1910 1.961 . S
Li1849 N1873 1.990 . S
Li1849 O1908 1.970 . S
Li1849 O1909 1.956 . S
Li1849 O1911 1.961 . S
Li1850 N1895 1.990 . S
Li1850 O1908 1.961 . S
Li1850 O1910 1.956 . S
Li1850 O1911 1.970 . S
Li1851 N1901 1.990 . S
Li1851 O1909 1.961 . S
Li1851 O1910 1.970 . S
Li1851 O1911 1.956 . S
C1852 C1854 1.348 . S
C1852 C1855 1.356 . S
C1852 O1908 1.325 . S
N1853 C1856 1.314 . S
N1853 C1857 1.279 . S
C1854 C1852 1.348 . S
C1854 C1856 1.353 . S
C1854 H1912 0.929 . S
C1855 C1852 1.356 . S
C1855 C1857 1.358 . S
C1855 H1913 0.930 . S
C1856 N1853 1.314 . S
C1856 C1854 1.353 . S
C1856 H1914 0.930 . S
C1857 N1853 1.279 . S
C1857 C1855 1.358 . S
C1857 H1915 0.930 . S
C1858 C1861 1.348 . S
C1858 C1862 1.356 . S
C1858 O1909 1.325 . S
C1859 N1860 1.279 . S
C1859 C1862 1.358 . S
C1859 H1916 0.930 . S
N1860 C1859 1.279 . S
N1860 C1863 1.314 . S
C1861 C1858 1.348 . S
C1861 C1863 1.353 . S
C1861 H1917 0.929 . S
C1862 C1858 1.356 . S
C1862 C1859 1.358 . S
C1862 H1918 0.930 . S
C1863 N1860 1.314 . S
C1863 C1861 1.353 . S
C1863 H1919 0.930 . S
C1864 N1865 1.314 . S
C1864 C1869 1.353 . S
C1864 H1870 0.930 . S
N1865 Li1848 1.990 . S
N1865 C1864 1.314 . S
N1865 C1867 1.279 . S
C1866 C1867 1.358 . S
C1866 C1868 1.356 . S
C1866 H1920 0.930 . S
C1867 N1865 1.279 . S
C1867 C1866 1.358 . S
C1867 H1871 0.930 . S
C1868 C1866 1.356 . S
C1868 C1869 1.348 . S
C1869 C1864 1.353 . S
C1869 C1868 1.348 . S
C1869 H1921 0.929 . S
H1870 C1864 0.930 . S
H1871 C1867 0.930 . S
C1872 N1873 1.314 . S
C1872 C1874 1.353 . S
C1872 H1878 0.930 . S
N1873 Li1849 1.990 . S
N1873 C1872 1.314 . S
N1873 C1876 1.279 . S
C1874 C1872 1.353 . S
C1874 C1877 1.348 . S
C1874 H1922 0.929 . S
C1875 C1876 1.358 . S
C1875 C1877 1.356 . S
C1875 H1923 0.930 . S
C1876 N1873 1.279 . S
C1876 C1875 1.358 . S
C1876 H1879 0.930 . S
C1877 C1874 1.348 . S
C1877 C1875 1.356 . S
H1878 C1872 0.930 . S
H1879 C1876 0.930 . S
C1880 C1882 1.348 . S
C1880 C1883 1.356 . S
C1880 O1910 1.325 . S
N1881 C1884 1.314 . S
N1881 C1885 1.279 . S
C1882 C1880 1.348 . S
C1882 C1884 1.353 . S
C1882 H1924 0.929 . S
C1883 C1880 1.356 . S
C1883 C1885 1.358 . S
C1883 H1925 0.930 . S
C1884 N1881 1.314 . S
C1884 C1882 1.353 . S
C1884 H1926 0.930 . S
C1885 N1881 1.279 . S
C1885 C1883 1.358 . S
C1885 H1927 0.930 . S
C1886 C1887 1.348 . S
C1886 C1888 1.356 . S
C1886 O1911 1.325 . S
C1887 C1886 1.348 . S
C1887 C1889 1.353 . S
C1887 H1928 0.929 . S
C1888 C1886 1.356 . S
C1888 C1890 1.358 . S
C1888 H1929 0.930 . S
C1889 C1887 1.353 . S
C1889 N1891 1.314 . S
C1889 H1930 0.930 . S
C1890 C1888 1.358 . S
C1890 N1891 1.279 . S
C1890 H1931 0.930 . S
N1891 C1889 1.314 . S
N1891 C1890 1.279 . S
C1892 C1894 1.353 . S
C1892 N1895 1.314 . S
C1892 H1898 0.930 . S
C1893 N1895 1.279 . S
C1893 C1896 1.358 . S
C1893 H1899 0.930 . S
C1894 C1892 1.353 . S
C1894 C1897 1.348 . S
C1894 H1932 0.929 . S
N1895 Li1850 1.990 . S
N1895 C1892 1.314 . S
N1895 C1893 1.279 . S
C1896 C1893 1.358 . S
C1896 C1897 1.356 . S
C1896 H1933 0.930 . S
C1897 C1894 1.348 . S
C1897 C1896 1.356 . S
H1898 C1892 0.930 . S
H1899 C1893 0.930 . S
C1900 N1901 1.314 . S
C1900 C1902 1.353 . S
C1900 H1906 0.930 . S
N1901 Li1851 1.990 . S
N1901 C1900 1.314 . S
N1901 C1904 1.279 . S
C1902 C1900 1.353 . S
C1902 C1905 1.348 . S
C1902 H1934 0.929 . S
C1903 C1904 1.358 . S
C1903 C1905 1.356 . S
C1903 H1935 0.930 . S
C1904 N1901 1.279 . S
C1904 C1903 1.358 . S
C1904 H1907 0.930 . S
C1905 C1902 1.348 . S
C1905 C1903 1.356 . S
H1906 C1900 0.930 . S
H1907 C1904 0.930 . S
O1908 Li1848 1.956 . S
O1908 Li1849 1.970 . S
O1908 Li1850 1.961 . S
O1908 C1852 1.325 . S
O1909 Li1848 1.970 . S
O1909 Li1849 1.956 . S
O1909 Li1851 1.961 . S
O1909 C1858 1.325 . S
O1910 Li1848 1.961 . S
O1910 Li1850 1.956 . S
O1910 Li1851 1.970 . S
O1910 C1880 1.325 . S
O1911 Li1849 1.961 . S
O1911 Li1850 1.970 . S
O1911 Li1851 1.956 . S
O1911 C1886 1.325 . S
H1912 C1854 0.929 . S
H1913 C1855 0.930 . S
H1914 C1856 0.930 . S
H1915 C1857 0.930 . S
H1916 C1859 0.930 . S
H1917 C1861 0.929 . S
H1918 C1862 0.930 . S
H1919 C1863 0.930 . S
H1920 C1866 0.930 . S
H1921 C1869 0.929 . S
H1922 C1874 0.929 . S
H1923 C1875 0.930 . S
H1924 C1882 0.929 . S
H1925 C1883 0.930 . S
H1926 C1884 0.930 . S
H1927 C1885 0.930 . S
H1928 C1887 0.929 . S
H1929 C1888 0.930 . S
H1930 C1889 0.930 . S
H1931 C1890 0.930 . S
H1932 C1894 0.929 . S
H1933 C1896 0.930 . S
H1934 C1902 0.929 . S
H1935 C1903 0.930 . S
Li1936 N1953 1.990 . S
Li1936 O1996 1.956 . S
Li1936 O1997 1.970 . S
Li1936 O1998 1.961 . S
Li1937 N1961 1.990 . S
Li1937 O1996 1.970 . S
Li1937 O1997 1.956 . S
Li1937 O1999 1.961 . S
Li1938 N1983 1.990 . S
Li1938 O1996 1.961 . S
Li1938 O1998 1.956 . S
Li1938 O1999 1.970 . S
Li1939 N1989 1.990 . S
Li1939 O1997 1.961 . S
Li1939 O1998 1.970 . S
Li1939 O1999 1.956 . S
C1940 C1942 1.348 . S
C1940 C1943 1.356 . S
C1940 O1996 1.325 . S
N1941 C1944 1.314 . S
N1941 C1945 1.279 . S
C1942 C1940 1.348 . S
C1942 C1944 1.353 . S
C1942 H2000 0.929 . S
C1943 C1940 1.356 . S
C1943 C1945 1.358 . S
C1943 H2001 0.930 . S
C1944 N1941 1.314 . S
C1944 C1942 1.353 . S
C1944 H2002 0.930 . S
C1945 N1941 1.279 . S
C1945 C1943 1.358 . S
C1945 H2003 0.930 . S
C1946 C1949 1.348 . S
C1946 C1950 1.356 . S
C1946 O1997 1.325 . S
C1947 N1948 1.279 . S
C1947 C1950 1.358 . S
C1947 H2004 0.930 . S
N1948 C1947 1.279 . S
N1948 C1951 1.314 . S
C1949 C1946 1.348 . S
C1949 C1951 1.353 . S
C1949 H2005 0.929 . S
C1950 C1946 1.356 . S
C1950 C1947 1.358 . S
C1950 H2006 0.930 . S
C1951 N1948 1.314 . S
C1951 C1949 1.353 . S
C1951 H2007 0.930 . S
C1952 N1953 1.314 . S
C1952 C1957 1.353 . S
C1952 H1958 0.930 . S
N1953 Li1936 1.990 . S
N1953 C1952 1.314 . S
N1953 C1955 1.279 . S
C1954 C1955 1.358 . S
C1954 C1956 1.356 . S
C1954 H2008 0.930 . S
C1955 N1953 1.279 . S
C1955 C1954 1.358 . S
C1955 H1959 0.930 . S
C1956 C1954 1.356 . S
C1956 C1957 1.348 . S
C1957 C1952 1.353 . S
C1957 C1956 1.348 . S
C1957 H2009 0.929 . S
H1958 C1952 0.930 . S
H1959 C1955 0.930 . S
C1960 N1961 1.314 . S
C1960 C1962 1.353 . S
C1960 H1966 0.930 . S
N1961 Li1937 1.990 . S
N1961 C1960 1.314 . S
N1961 C1964 1.279 . S
C1962 C1960 1.353 . S
C1962 C1965 1.348 . S
C1962 H2010 0.929 . S
C1963 C1964 1.358 . S
C1963 C1965 1.356 . S
C1963 H2011 0.930 . S
C1964 N1961 1.279 . S
C1964 C1963 1.358 . S
C1964 H1967 0.930 . S
C1965 C1962 1.348 . S
C1965 C1963 1.356 . S
H1966 C1960 0.930 . S
H1967 C1964 0.930 . S
C1968 C1970 1.348 . S
C1968 C1971 1.356 . S
C1968 O1998 1.325 . S
N1969 C1972 1.314 . S
N1969 C1973 1.279 . S
C1970 C1968 1.348 . S
C1970 C1972 1.353 . S
C1970 H2012 0.929 . S
C1971 C1968 1.356 . S
C1971 C1973 1.358 . S
C1971 H2013 0.930 . S
C1972 N1969 1.314 . S
C1972 C1970 1.353 . S
C1972 H2014 0.930 . S
C1973 N1969 1.279 . S
C1973 C1971 1.358 . S
C1973 H2015 0.930 . S
C1974 C1975 1.348 . S
C1974 C1976 1.356 . S
C1974 O1999 1.325 . S
C1975 C1974 1.348 . S
C1975 C1977 1.353 . S
C1975 H2016 0.929 . S
C1976 C1974 1.356 . S
C1976 C1978 1.358 . S
C1976 H2017 0.930 . S
C1977 C1975 1.353 . S
C1977 N1979 1.314 . S
C1977 H2018 0.930 . S
C1978 C1976 1.358 . S
C1978 N1979 1.279 . S
C1978 H2019 0.930 . S
N1979 C1977 1.314 . S
N1979 C1978 1.279 . S
C1980 C1982 1.353 . S
C1980 N1983 1.314 . S
C1980 H1986 0.930 . S
C1981 N1983 1.279 . S
C1981 C1984 1.358 . S
C1981 H1987 0.930 . S
C1982 C1980 1.353 . S
C1982 C1985 1.348 . S
C1982 H2020 0.929 . S
N1983 Li1938 1.990 . S
N1983 C1980 1.314 . S
N1983 C1981 1.279 . S
C1984 C1981 1.358 . S
C1984 C1985 1.356 . S
C1984 H2021 0.930 . S
C1985 C1982 1.348 . S
C1985 C1984 1.356 . S
H1986 C1980 0.930 . S
H1987 C1981 0.930 . S
C1988 N1989 1.314 . S
C1988 C1990 1.353 . S
C1988 H1994 0.930 . S
N1989 Li1939 1.990 . S
N1989 C1988 1.314 . S
N1989 C1992 1.279 . S
C1990 C1988 1.353 . S
C1990 C1993 1.348 . S
C1990 H2022 0.929 . S
C1991 C1992 1.358 . S
C1991 C1993 1.356 . S
C1991 H2023 0.930 . S
C1992 N1989 1.279 . S
C1992 C1991 1.358 . S
C1992 H1995 0.930 . S
C1993 C1990 1.348 . S
C1993 C1991 1.356 . S
H1994 C1988 0.930 . S
H1995 C1992 0.930 . S
O1996 Li1936 1.956 . S
O1996 Li1937 1.970 . S
O1996 Li1938 1.961 . S
O1996 C1940 1.325 . S
O1997 Li1936 1.970 . S
O1997 Li1937 1.956 . S
O1997 Li1939 1.961 . S
O1997 C1946 1.325 . S
O1998 Li1936 1.961 . S
O1998 Li1938 1.956 . S
O1998 Li1939 1.970 . S
O1998 C1968 1.325 . S
O1999 Li1937 1.961 . S
O1999 Li1938 1.970 . S
O1999 Li1939 1.956 . S
O1999 C1974 1.325 . S
H2000 C1942 0.929 . S
H2001 C1943 0.930 . S
H2002 C1944 0.930 . S
H2003 C1945 0.930 . S
H2004 C1947 0.930 . S
H2005 C1949 0.929 . S
H2006 C1950 0.930 . S
H2007 C1951 0.930 . S
H2008 C1954 0.930 . S
H2009 C1957 0.929 . S
H2010 C1962 0.929 . S
H2011 C1963 0.930 . S
H2012 C1970 0.929 . S
H2013 C1971 0.930 . S
H2014 C1972 0.930 . S
H2015 C1973 0.930 . S
H2016 C1975 0.929 . S
H2017 C1976 0.930 . S
H2018 C1977 0.930 . S
H2019 C1978 0.930 . S
H2020 C1982 0.929 . S
H2021 C1984 0.930 . S
H2022 C1990 0.929 . S
H2023 C1991 0.930 . S
Li2024 N2041 1.990 . S
Li2024 O2084 1.956 . S
Li2024 O2085 1.970 . S
Li2024 O2086 1.961 . S
Li2025 N2049 1.990 . S
Li2025 O2084 1.970 . S
Li2025 O2085 1.956 . S
Li2025 O2087 1.961 . S
Li2026 N2071 1.990 . S
Li2026 O2084 1.961 . S
Li2026 O2086 1.956 . S
Li2026 O2087 1.970 . S
Li2027 N2077 1.990 . S
Li2027 O2085 1.961 . S
Li2027 O2086 1.970 . S
Li2027 O2087 1.956 . S
C2028 C2030 1.348 . S
C2028 C2031 1.356 . S
C2028 O2084 1.325 . S
N2029 C2032 1.314 . S
N2029 C2033 1.279 . S
C2030 C2028 1.348 . S
C2030 C2032 1.353 . S
C2030 H2088 0.929 . S
C2031 C2028 1.356 . S
C2031 C2033 1.358 . S
C2031 H2089 0.930 . S
C2032 N2029 1.314 . S
C2032 C2030 1.353 . S
C2032 H2090 0.930 . S
C2033 N2029 1.279 . S
C2033 C2031 1.358 . S
C2033 H2091 0.930 . S
C2034 C2037 1.348 . S
C2034 C2038 1.356 . S
C2034 O2085 1.325 . S
C2035 N2036 1.279 . S
C2035 C2038 1.358 . S
C2035 H2092 0.930 . S
N2036 C2035 1.279 . S
N2036 C2039 1.314 . S
C2037 C2034 1.348 . S
C2037 C2039 1.353 . S
C2037 H2093 0.929 . S
C2038 C2034 1.356 . S
C2038 C2035 1.358 . S
C2038 H2094 0.930 . S
C2039 N2036 1.314 . S
C2039 C2037 1.353 . S
C2039 H2095 0.930 . S
C2040 N2041 1.314 . S
C2040 C2045 1.353 . S
C2040 H2046 0.930 . S
N2041 Li2024 1.990 . S
N2041 C2040 1.314 . S
N2041 C2043 1.279 . S
C2042 C2043 1.358 . S
C2042 C2044 1.356 . S
C2042 H2096 0.930 . S
C2043 N2041 1.279 . S
C2043 C2042 1.358 . S
C2043 H2047 0.930 . S
C2044 C2042 1.356 . S
C2044 C2045 1.348 . S
C2045 C2040 1.353 . S
C2045 C2044 1.348 . S
C2045 H2097 0.929 . S
H2046 C2040 0.930 . S
H2047 C2043 0.930 . S
C2048 N2049 1.314 . S
C2048 C2050 1.353 . S
C2048 H2054 0.930 . S
N2049 Li2025 1.990 . S
N2049 C2048 1.314 . S
N2049 C2052 1.279 . S
C2050 C2048 1.353 . S
C2050 C2053 1.348 . S
C2050 H2098 0.929 . S
C2051 C2052 1.358 . S
C2051 C2053 1.356 . S
C2051 H2099 0.930 . S
C2052 N2049 1.279 . S
C2052 C2051 1.358 . S
C2052 H2055 0.930 . S
C2053 C2050 1.348 . S
C2053 C2051 1.356 . S
H2054 C2048 0.930 . S
H2055 C2052 0.930 . S
C2056 C2058 1.348 . S
C2056 C2059 1.356 . S
C2056 O2086 1.325 . S
N2057 C2060 1.314 . S
N2057 C2061 1.279 . S
C2058 C2056 1.348 . S
C2058 C2060 1.353 . S
C2058 H2100 0.929 . S
C2059 C2056 1.356 . S
C2059 C2061 1.358 . S
C2059 H2101 0.930 . S
C2060 N2057 1.314 . S
C2060 C2058 1.353 . S
C2060 H2102 0.930 . S
C2061 N2057 1.279 . S
C2061 C2059 1.358 . S
C2061 H2103 0.930 . S
C2062 C2063 1.348 . S
C2062 C2064 1.356 . S
C2062 O2087 1.325 . S
C2063 C2062 1.348 . S
C2063 C2065 1.353 . S
C2063 H2104 0.929 . S
C2064 C2062 1.356 . S
C2064 C2066 1.358 . S
C2064 H2105 0.930 . S
C2065 C2063 1.353 . S
C2065 N2067 1.314 . S
C2065 H2106 0.930 . S
C2066 C2064 1.358 . S
C2066 N2067 1.279 . S
C2066 H2107 0.930 . S
N2067 C2065 1.314 . S
N2067 C2066 1.279 . S
C2068 C2070 1.353 . S
C2068 N2071 1.314 . S
C2068 H2074 0.930 . S
C2069 N2071 1.279 . S
C2069 C2072 1.358 . S
C2069 H2075 0.930 . S
C2070 C2068 1.353 . S
C2070 C2073 1.348 . S
C2070 H2108 0.929 . S
N2071 Li2026 1.990 . S
N2071 C2068 1.314 . S
N2071 C2069 1.279 . S
C2072 C2069 1.358 . S
C2072 C2073 1.356 . S
C2072 H2109 0.930 . S
C2073 C2070 1.348 . S
C2073 C2072 1.356 . S
H2074 C2068 0.930 . S
H2075 C2069 0.930 . S
C2076 N2077 1.314 . S
C2076 C2078 1.353 . S
C2076 H2082 0.930 . S
N2077 Li2027 1.990 . S
N2077 C2076 1.314 . S
N2077 C2080 1.279 . S
C2078 C2076 1.353 . S
C2078 C2081 1.348 . S
C2078 H2110 0.929 . S
C2079 C2080 1.358 . S
C2079 C2081 1.356 . S
C2079 H2111 0.930 . S
C2080 N2077 1.279 . S
C2080 C2079 1.358 . S
C2080 H2083 0.930 . S
C2081 C2078 1.348 . S
C2081 C2079 1.356 . S
H2082 C2076 0.930 . S
H2083 C2080 0.930 . S
O2084 Li2024 1.956 . S
O2084 Li2025 1.970 . S
O2084 Li2026 1.961 . S
O2084 C2028 1.325 . S
O2085 Li2024 1.970 . S
O2085 Li2025 1.956 . S
O2085 Li2027 1.961 . S
O2085 C2034 1.325 . S
O2086 Li2024 1.961 . S
O2086 Li2026 1.956 . S
O2086 Li2027 1.970 . S
O2086 C2056 1.325 . S
O2087 Li2025 1.961 . S
O2087 Li2026 1.970 . S
O2087 Li2027 1.956 . S
O2087 C2062 1.325 . S
H2088 C2030 0.929 . S
H2089 C2031 0.930 . S
H2090 C2032 0.930 . S
H2091 C2033 0.930 . S
H2092 C2035 0.930 . S
H2093 C2037 0.929 . S
H2094 C2038 0.930 . S
H2095 C2039 0.930 . S
H2096 C2042 0.930 . S
H2097 C2045 0.929 . S
H2098 C2050 0.929 . S
H2099 C2051 0.930 . S
H2100 C2058 0.929 . S
H2101 C2059 0.930 . S
H2102 C2060 0.930 . S
H2103 C2061 0.930 . S
H2104 C2063 0.929 . S
H2105 C2064 0.930 . S
H2106 C2065 0.930 . S
H2107 C2066 0.930 . S
H2108 C2070 0.929 . S
H2109 C2072 0.930 . S
H2110 C2078 0.929 . S
H2111 C2079 0.930 . S
Li2112 N2129 1.990 . S
Li2112 O2172 1.956 . S
Li2112 O2173 1.970 . S
Li2112 O2174 1.961 . S
Li2113 N2137 1.990 . S
Li2113 O2172 1.970 . S
Li2113 O2173 1.956 . S
Li2113 O2175 1.961 . S
Li2114 N2159 1.990 . S
Li2114 O2172 1.961 . S
Li2114 O2174 1.956 . S
Li2114 O2175 1.970 . S
Li2115 N2165 1.990 . S
Li2115 O2173 1.961 . S
Li2115 O2174 1.970 . S
Li2115 O2175 1.956 . S
C2116 C2118 1.348 . S
C2116 C2119 1.356 . S
C2116 O2172 1.325 . S
N2117 C2120 1.314 . S
N2117 C2121 1.279 . S
C2118 C2116 1.348 . S
C2118 C2120 1.353 . S
C2118 H2176 0.929 . S
C2119 C2116 1.356 . S
C2119 C2121 1.358 . S
C2119 H2177 0.930 . S
C2120 N2117 1.314 . S
C2120 C2118 1.353 . S
C2120 H2178 0.930 . S
C2121 N2117 1.279 . S
C2121 C2119 1.358 . S
C2121 H2179 0.930 . S
C2122 C2125 1.348 . S
C2122 C2126 1.356 . S
C2122 O2173 1.325 . S
C2123 N2124 1.279 . S
C2123 C2126 1.358 . S
C2123 H2180 0.930 . S
N2124 C2123 1.279 . S
N2124 C2127 1.314 . S
C2125 C2122 1.348 . S
C2125 C2127 1.353 . S
C2125 H2181 0.929 . S
C2126 C2122 1.356 . S
C2126 C2123 1.358 . S
C2126 H2182 0.930 . S
C2127 N2124 1.314 . S
C2127 C2125 1.353 . S
C2127 H2183 0.930 . S
C2128 N2129 1.314 . S
C2128 C2133 1.353 . S
C2128 H2134 0.930 . S
N2129 Li2112 1.990 . S
N2129 C2128 1.314 . S
N2129 C2131 1.279 . S
C2130 C2131 1.358 . S
C2130 C2132 1.356 . S
C2130 H2184 0.930 . S
C2131 N2129 1.279 . S
C2131 C2130 1.358 . S
C2131 H2135 0.930 . S
C2132 C2130 1.356 . S
C2132 C2133 1.348 . S
C2133 C2128 1.353 . S
C2133 C2132 1.348 . S
C2133 H2185 0.929 . S
H2134 C2128 0.930 . S
H2135 C2131 0.930 . S
C2136 N2137 1.314 . S
C2136 C2138 1.353 . S
C2136 H2142 0.930 . S
N2137 Li2113 1.990 . S
N2137 C2136 1.314 . S
N2137 C2140 1.279 . S
C2138 C2136 1.353 . S
C2138 C2141 1.348 . S
C2138 H2186 0.929 . S
C2139 C2140 1.358 . S
C2139 C2141 1.356 . S
C2139 H2187 0.930 . S
C2140 N2137 1.279 . S
C2140 C2139 1.358 . S
C2140 H2143 0.930 . S
C2141 C2138 1.348 . S
C2141 C2139 1.356 . S
H2142 C2136 0.930 . S
H2143 C2140 0.930 . S
C2144 C2146 1.348 . S
C2144 C2147 1.356 . S
C2144 O2174 1.325 . S
N2145 C2148 1.314 . S
N2145 C2149 1.279 . S
C2146 C2144 1.348 . S
C2146 C2148 1.353 . S
C2146 H2188 0.929 . S
C2147 C2144 1.356 . S
C2147 C2149 1.358 . S
C2147 H2189 0.930 . S
C2148 N2145 1.314 . S
C2148 C2146 1.353 . S
C2148 H2190 0.930 . S
C2149 N2145 1.279 . S
C2149 C2147 1.358 . S
C2149 H2191 0.930 . S
C2150 C2151 1.348 . S
C2150 C2152 1.356 . S
C2150 O2175 1.325 . S
C2151 C2150 1.348 . S
C2151 C2153 1.353 . S
C2151 H2192 0.929 . S
C2152 C2150 1.356 . S
C2152 C2154 1.358 . S
C2152 H2193 0.930 . S
C2153 C2151 1.353 . S
C2153 N2155 1.314 . S
C2153 H2194 0.930 . S
C2154 C2152 1.358 . S
C2154 N2155 1.279 . S
C2154 H2195 0.930 . S
N2155 C2153 1.314 . S
N2155 C2154 1.279 . S
C2156 C2158 1.353 . S
C2156 N2159 1.314 . S
C2156 H2162 0.930 . S
C2157 N2159 1.279 . S
C2157 C2160 1.358 . S
C2157 H2163 0.930 . S
C2158 C2156 1.353 . S
C2158 C2161 1.348 . S
C2158 H2196 0.929 . S
N2159 Li2114 1.990 . S
N2159 C2156 1.314 . S
N2159 C2157 1.279 . S
C2160 C2157 1.358 . S
C2160 C2161 1.356 . S
C2160 H2197 0.930 . S
C2161 C2158 1.348 . S
C2161 C2160 1.356 . S
H2162 C2156 0.930 . S
H2163 C2157 0.930 . S
C2164 N2165 1.314 . S
C2164 C2166 1.353 1_455 S
C2164 H2170 0.930 . S
N2165 Li2115 1.990 . S
N2165 C2164 1.314 . S
N2165 C2168 1.279 . S
C2166 C2164 1.353 1_655 S
C2166 C2169 1.348 . S
C2166 H2198 0.929 . S
C2167 C2168 1.358 . S
C2167 C2169 1.356 1_455 S
C2167 H2199 0.930 . S
C2168 N2165 1.279 . S
C2168 C2167 1.358 . S
C2168 H2171 0.930 . S
C2169 C2166 1.348 . S
C2169 C2167 1.356 1_655 S
H2170 C2164 0.930 . S
H2171 C2168 0.930 . S
O2172 Li2112 1.956 . S
O2172 Li2113 1.970 . S
O2172 Li2114 1.961 . S
O2172 C2116 1.325 . S
O2173 Li2112 1.970 . S
O2173 Li2113 1.956 . S
O2173 Li2115 1.961 . S
O2173 C2122 1.325 . S
O2174 Li2112 1.961 . S
O2174 Li2114 1.956 . S
O2174 Li2115 1.970 . S
O2174 C2144 1.325 . S
O2175 Li2113 1.961 . S
O2175 Li2114 1.970 . S
O2175 Li2115 1.956 . S
O2175 C2150 1.325 . S
H2176 C2118 0.929 . S
H2177 C2119 0.930 . S
H2178 C2120 0.930 . S
H2179 C2121 0.930 . S
H2180 C2123 0.930 . S
H2181 C2125 0.929 . S
H2182 C2126 0.930 . S
H2183 C2127 0.930 . S
H2184 C2130 0.930 . S
H2185 C2133 0.929 . S
H2186 C2138 0.929 . S
H2187 C2139 0.930 . S
H2188 C2146 0.929 . S
H2189 C2147 0.930 . S
H2190 C2148 0.930 . S
H2191 C2149 0.930 . S
H2192 C2151 0.929 . S
H2193 C2152 0.930 . S
H2194 C2153 0.930 . S
H2195 C2154 0.930 . S
H2196 C2158 0.929 . S
H2197 C2160 0.930 . S
H2198 C2166 0.929 . S
H2199 C2167 0.930 . S
Li2200 N2217 1.990 . S
Li2200 O2260 1.956 . S
Li2200 O2261 1.970 . S
Li2200 O2262 1.961 . S
Li2201 N2225 1.990 . S
Li2201 O2260 1.970 . S
Li2201 O2261 1.956 . S
Li2201 O2263 1.961 . S
Li2202 N2247 1.990 . S
Li2202 O2260 1.961 . S
Li2202 O2262 1.956 . S
Li2202 O2263 1.970 . S
Li2203 N2253 1.990 . S
Li2203 O2261 1.961 . S
Li2203 O2262 1.970 . S
Li2203 O2263 1.956 . S
C2204 C2206 1.348 . S
C2204 C2207 1.356 . S
C2204 O2260 1.325 . S
N2205 C2208 1.314 . S
N2205 C2209 1.279 . S
C2206 C2204 1.348 . S
C2206 C2208 1.353 . S
C2206 H2264 0.929 . S
C2207 C2204 1.356 . S
C2207 C2209 1.358 . S
C2207 H2265 0.930 . S
C2208 N2205 1.314 . S
C2208 C2206 1.353 . S
C2208 H2266 0.930 . S
C2209 N2205 1.279 . S
C2209 C2207 1.358 . S
C2209 H2267 0.930 . S
C2210 C2213 1.348 . S
C2210 C2214 1.356 . S
C2210 O2261 1.325 . S
C2211 N2212 1.279 . S
C2211 C2214 1.358 . S
C2211 H2268 0.930 . S
N2212 C2211 1.279 . S
N2212 C2215 1.314 . S
C2213 C2210 1.348 . S
C2213 C2215 1.353 . S
C2213 H2269 0.929 . S
C2214 C2210 1.356 . S
C2214 C2211 1.358 . S
C2214 H2270 0.930 . S
C2215 N2212 1.314 . S
C2215 C2213 1.353 . S
C2215 H2271 0.930 . S
C2216 N2217 1.314 . S
C2216 C2221 1.353 . S
C2216 H2222 0.930 . S
N2217 Li2200 1.990 . S
N2217 C2216 1.314 . S
N2217 C2219 1.279 . S
C2218 C2219 1.358 . S
C2218 C2220 1.356 . S
C2218 H2272 0.930 . S
C2219 N2217 1.279 . S
C2219 C2218 1.358 . S
C2219 H2223 0.930 . S
C2220 C2218 1.356 . S
C2220 C2221 1.348 . S
C2221 C2216 1.353 . S
C2221 C2220 1.348 . S
C2221 H2273 0.929 . S
H2222 C2216 0.930 . S
H2223 C2219 0.930 . S
C2224 N2225 1.314 . S
C2224 C2226 1.353 . S
C2224 H2230 0.930 . S
N2225 Li2201 1.990 . S
N2225 C2224 1.314 . S
N2225 C2228 1.279 . S
C2226 C2224 1.353 . S
C2226 C2229 1.348 . S
C2226 H2274 0.929 . S
C2227 C2228 1.358 . S
C2227 C2229 1.356 . S
C2227 H2275 0.930 . S
C2228 N2225 1.279 . S
C2228 C2227 1.358 . S
C2228 H2231 0.930 . S
C2229 C2226 1.348 . S
C2229 C2227 1.356 . S
H2230 C2224 0.930 . S
H2231 C2228 0.930 . S
C2232 C2234 1.348 . S
C2232 C2235 1.356 . S
C2232 O2262 1.325 . S
N2233 C2236 1.314 . S
N2233 C2237 1.279 . S
C2234 C2232 1.348 . S
C2234 C2236 1.353 . S
C2234 H2276 0.929 . S
C2235 C2232 1.356 . S
C2235 C2237 1.358 . S
C2235 H2277 0.930 . S
C2236 N2233 1.314 . S
C2236 C2234 1.353 . S
C2236 H2278 0.930 . S
C2237 N2233 1.279 . S
C2237 C2235 1.358 . S
C2237 H2279 0.930 . S
C2238 C2239 1.348 . S
C2238 C2240 1.356 . S
C2238 O2263 1.325 . S
C2239 C2238 1.348 . S
C2239 C2241 1.353 . S
C2239 H2280 0.929 . S
C2240 C2238 1.356 . S
C2240 C2242 1.358 . S
C2240 H2281 0.930 . S
C2241 C2239 1.353 . S
C2241 N2243 1.314 . S
C2241 H2282 0.930 . S
C2242 C2240 1.358 . S
C2242 N2243 1.279 . S
C2242 H2283 0.930 . S
N2243 C2241 1.314 . S
N2243 C2242 1.279 . S
C2244 C2246 1.353 . S
C2244 N2247 1.314 . S
C2244 H2250 0.930 . S
C2245 N2247 1.279 . S
C2245 C2248 1.358 . S
C2245 H2251 0.930 . S
C2246 C2244 1.353 . S
C2246 C2249 1.348 . S
C2246 H2284 0.929 . S
N2247 Li2202 1.990 . S
N2247 C2244 1.314 . S
N2247 C2245 1.279 . S
C2248 C2245 1.358 . S
C2248 C2249 1.356 . S
C2248 H2285 0.930 . S
C2249 C2246 1.348 . S
C2249 C2248 1.356 . S
H2250 C2244 0.930 . S
H2251 C2245 0.930 . S
C2252 N2253 1.314 . S
C2252 C2254 1.353 . S
C2252 H2258 0.930 . S
N2253 Li2203 1.990 . S
N2253 C2252 1.314 . S
N2253 C2256 1.279 . S
C2254 C2252 1.353 . S
C2254 C2257 1.348 . S
C2254 H2286 0.929 . S
C2255 C2256 1.358 . S
C2255 C2257 1.356 . S
C2255 H2287 0.930 . S
C2256 N2253 1.279 . S
C2256 C2255 1.358 . S
C2256 H2259 0.930 . S
C2257 C2254 1.348 . S
C2257 C2255 1.356 . S
H2258 C2252 0.930 . S
H2259 C2256 0.930 . S
O2260 Li2200 1.956 . S
O2260 Li2201 1.970 . S
O2260 Li2202 1.961 . S
O2260 C2204 1.325 . S
O2261 Li2200 1.970 . S
O2261 Li2201 1.956 . S
O2261 Li2203 1.961 . S
O2261 C2210 1.325 . S
O2262 Li2200 1.961 . S
O2262 Li2202 1.956 . S
O2262 Li2203 1.970 . S
O2262 C2232 1.325 . S
O2263 Li2201 1.961 . S
O2263 Li2202 1.970 . S
O2263 Li2203 1.956 . S
O2263 C2238 1.325 . S
H2264 C2206 0.929 . S
H2265 C2207 0.930 . S
H2266 C2208 0.930 . S
H2267 C2209 0.930 . S
H2268 C2211 0.930 . S
H2269 C2213 0.929 . S
H2270 C2214 0.930 . S
H2271 C2215 0.930 . S
H2272 C2218 0.930 . S
H2273 C2221 0.929 . S
H2274 C2226 0.929 . S
H2275 C2227 0.930 . S
H2276 C2234 0.929 . S
H2277 C2235 0.930 . S
H2278 C2236 0.930 . S
H2279 C2237 0.930 . S
H2280 C2239 0.929 . S
H2281 C2240 0.930 . S
H2282 C2241 0.930 . S
H2283 C2242 0.930 . S
H2284 C2246 0.929 . S
H2285 C2248 0.930 . S
H2286 C2254 0.929 . S
H2287 C2255 0.930 . S
Li2288 N2305 1.990 . S
Li2288 O2348 1.956 . S
Li2288 O2349 1.970 . S
Li2288 O2350 1.961 . S
Li2289 N2313 1.990 . S
Li2289 O2348 1.970 . S
Li2289 O2349 1.956 . S
Li2289 O2351 1.961 . S
Li2290 N2335 1.990 . S
Li2290 O2348 1.961 . S
Li2290 O2350 1.956 . S
Li2290 O2351 1.970 . S
Li2291 N2341 1.990 . S
Li2291 O2349 1.961 . S
Li2291 O2350 1.970 . S
Li2291 O2351 1.956 . S
C2292 C2294 1.348 . S
C2292 C2295 1.356 . S
C2292 O2348 1.325 . S
N2293 C2296 1.314 . S
N2293 C2297 1.279 . S
C2294 C2292 1.348 . S
C2294 C2296 1.353 . S
C2294 H2352 0.929 . S
C2295 C2292 1.356 . S
C2295 C2297 1.358 . S
C2295 H2353 0.930 . S
C2296 N2293 1.314 . S
C2296 C2294 1.353 . S
C2296 H2354 0.930 . S
C2297 N2293 1.279 . S
C2297 C2295 1.358 . S
C2297 H2355 0.930 . S
C2298 C2301 1.348 . S
C2298 C2302 1.356 . S
C2298 O2349 1.325 . S
C2299 N2300 1.279 . S
C2299 C2302 1.358 . S
C2299 H2356 0.930 . S
N2300 C2299 1.279 . S
N2300 C2303 1.314 . S
C2301 C2298 1.348 . S
C2301 C2303 1.353 . S
C2301 H2357 0.929 . S
C2302 C2298 1.356 . S
C2302 C2299 1.358 . S
C2302 H2358 0.930 . S
C2303 N2300 1.314 . S
C2303 C2301 1.353 . S
C2303 H2359 0.930 . S
C2304 N2305 1.314 . S
C2304 C2309 1.353 . S
C2304 H2310 0.930 . S
N2305 Li2288 1.990 . S
N2305 C2304 1.314 . S
N2305 C2307 1.279 . S
C2306 C2307 1.358 . S
C2306 C2308 1.356 . S
C2306 H2360 0.930 . S
C2307 N2305 1.279 . S
C2307 C2306 1.358 . S
C2307 H2311 0.930 . S
C2308 C2306 1.356 . S
C2308 C2309 1.348 . S
C2309 C2304 1.353 . S
C2309 C2308 1.348 . S
C2309 H2361 0.929 . S
H2310 C2304 0.930 . S
H2311 C2307 0.930 . S
C2312 N2313 1.314 . S
C2312 C2314 1.353 . S
C2312 H2318 0.930 . S
N2313 Li2289 1.990 . S
N2313 C2312 1.314 . S
N2313 C2316 1.279 . S
C2314 C2312 1.353 . S
C2314 C2317 1.348 . S
C2314 H2362 0.929 . S
C2315 C2316 1.358 . S
C2315 C2317 1.356 . S
C2315 H2363 0.930 . S
C2316 N2313 1.279 . S
C2316 C2315 1.358 . S
C2316 H2319 0.930 . S
C2317 C2314 1.348 . S
C2317 C2315 1.356 . S
H2318 C2312 0.930 . S
H2319 C2316 0.930 . S
C2320 C2322 1.348 . S
C2320 C2323 1.356 . S
C2320 O2350 1.325 . S
N2321 C2324 1.314 . S
N2321 C2325 1.279 . S
C2322 C2320 1.348 . S
C2322 C2324 1.353 . S
C2322 H2364 0.929 . S
C2323 C2320 1.356 . S
C2323 C2325 1.358 . S
C2323 H2365 0.930 . S
C2324 N2321 1.314 . S
C2324 C2322 1.353 . S
C2324 H2366 0.930 . S
C2325 N2321 1.279 . S
C2325 C2323 1.358 . S
C2325 H2367 0.930 . S
C2326 C2327 1.348 . S
C2326 C2328 1.356 . S
C2326 O2351 1.325 . S
C2327 C2326 1.348 . S
C2327 C2329 1.353 . S
C2327 H2368 0.929 . S
C2328 C2326 1.356 . S
C2328 C2330 1.358 . S
C2328 H2369 0.930 . S
C2329 C2327 1.353 . S
C2329 N2331 1.314 . S
C2329 H2370 0.930 . S
C2330 C2328 1.358 . S
C2330 N2331 1.279 . S
C2330 H2371 0.930 . S
N2331 C2329 1.314 . S
N2331 C2330 1.279 . S
C2332 C2334 1.353 . S
C2332 N2335 1.314 . S
C2332 H2338 0.930 . S
C2333 N2335 1.279 . S
C2333 C2336 1.358 . S
C2333 H2339 0.930 . S
C2334 C2332 1.353 . S
C2334 C2337 1.348 . S
C2334 H2372 0.929 . S
N2335 Li2290 1.990 . S
N2335 C2332 1.314 . S
N2335 C2333 1.279 . S
C2336 C2333 1.358 . S
C2336 C2337 1.356 . S
C2336 H2373 0.930 . S
C2337 C2334 1.348 . S
C2337 C2336 1.356 . S
H2338 C2332 0.930 . S
H2339 C2333 0.930 . S
C2340 N2341 1.314 . S
C2340 C2342 1.353 . S
C2340 H2346 0.930 . S
N2341 Li2291 1.990 . S
N2341 C2340 1.314 . S
N2341 C2344 1.279 . S
C2342 C2340 1.353 . S
C2342 C2345 1.348 . S
C2342 H2374 0.929 . S
C2343 C2344 1.358 . S
C2343 C2345 1.356 . S
C2343 H2375 0.930 . S
C2344 N2341 1.279 . S
C2344 C2343 1.358 . S
C2344 H2347 0.930 . S
C2345 C2342 1.348 . S
C2345 C2343 1.356 . S
H2346 C2340 0.930 . S
H2347 C2344 0.930 . S
O2348 Li2288 1.956 . S
O2348 Li2289 1.970 . S
O2348 Li2290 1.961 . S
O2348 C2292 1.325 . S
O2349 Li2288 1.970 . S
O2349 Li2289 1.956 . S
O2349 Li2291 1.961 . S
O2349 C2298 1.325 . S
O2350 Li2288 1.961 . S
O2350 Li2290 1.956 . S
O2350 Li2291 1.970 . S
O2350 C2320 1.325 . S
O2351 Li2289 1.961 . S
O2351 Li2290 1.970 . S
O2351 Li2291 1.956 . S
O2351 C2326 1.325 . S
H2352 C2294 0.929 . S
H2353 C2295 0.930 . S
H2354 C2296 0.930 . S
H2355 C2297 0.930 . S
H2356 C2299 0.930 . S
H2357 C2301 0.929 . S
H2358 C2302 0.930 . S
H2359 C2303 0.930 . S
H2360 C2306 0.930 . S
H2361 C2309 0.929 . S
H2362 C2314 0.929 . S
H2363 C2315 0.930 . S
H2364 C2322 0.929 . S
H2365 C2323 0.930 . S
H2366 C2324 0.930 . S
H2367 C2325 0.930 . S
H2368 C2327 0.929 . S
H2369 C2328 0.930 . S
H2370 C2329 0.930 . S
H2371 C2330 0.930 . S
H2372 C2334 0.929 . S
H2373 C2336 0.930 . S
H2374 C2342 0.929 . S
H2375 C2343 0.930 . S
Li2376 N2393 1.990 . S
Li2376 O2436 1.956 . S
Li2376 O2437 1.970 . S
Li2376 O2438 1.961 . S
Li2377 N2401 1.990 . S
Li2377 O2436 1.970 . S
Li2377 O2437 1.956 . S
Li2377 O2439 1.961 . S
Li2378 N2423 1.990 . S
Li2378 O2436 1.961 . S
Li2378 O2438 1.956 . S
Li2378 O2439 1.970 . S
Li2379 N2429 1.990 . S
Li2379 O2437 1.961 . S
Li2379 O2438 1.970 . S
Li2379 O2439 1.956 . S
C2380 C2382 1.348 . S
C2380 C2383 1.356 . S
C2380 O2436 1.325 . S
N2381 C2384 1.314 . S
N2381 C2385 1.279 . S
C2382 C2380 1.348 . S
C2382 C2384 1.353 . S
C2382 H2440 0.929 . S
C2383 C2380 1.356 . S
C2383 C2385 1.358 . S
C2383 H2441 0.930 . S
C2384 N2381 1.314 . S
C2384 C2382 1.353 . S
C2384 H2442 0.930 . S
C2385 N2381 1.279 . S
C2385 C2383 1.358 . S
C2385 H2443 0.930 . S
C2386 C2389 1.348 . S
C2386 C2390 1.356 . S
C2386 O2437 1.325 . S
C2387 N2388 1.279 . S
C2387 C2390 1.358 . S
C2387 H2444 0.930 . S
N2388 C2387 1.279 . S
N2388 C2391 1.314 . S
C2389 C2386 1.348 . S
C2389 C2391 1.353 . S
C2389 H2445 0.929 . S
C2390 C2386 1.356 . S
C2390 C2387 1.358 . S
C2390 H2446 0.930 . S
C2391 N2388 1.314 . S
C2391 C2389 1.353 . S
C2391 H2447 0.930 . S
C2392 N2393 1.314 . S
C2392 C2397 1.353 . S
C2392 H2398 0.930 . S
N2393 Li2376 1.990 . S
N2393 C2392 1.314 . S
N2393 C2395 1.279 . S
C2394 C2395 1.358 . S
C2394 C2396 1.356 . S
C2394 H2448 0.930 . S
C2395 N2393 1.279 . S
C2395 C2394 1.358 . S
C2395 H2399 0.930 . S
C2396 C2394 1.356 . S
C2396 C2397 1.348 . S
C2397 C2392 1.353 . S
C2397 C2396 1.348 . S
C2397 H2449 0.929 . S
H2398 C2392 0.930 . S
H2399 C2395 0.930 . S
C2400 N2401 1.314 . S
C2400 C2402 1.353 . S
C2400 H2406 0.930 . S
N2401 Li2377 1.990 . S
N2401 C2400 1.314 . S
N2401 C2404 1.279 . S
C2402 C2400 1.353 . S
C2402 C2405 1.348 . S
C2402 H2450 0.929 . S
C2403 C2404 1.358 . S
C2403 C2405 1.356 . S
C2403 H2451 0.930 . S
C2404 N2401 1.279 . S
C2404 C2403 1.358 . S
C2404 H2407 0.930 . S
C2405 C2402 1.348 . S
C2405 C2403 1.356 . S
H2406 C2400 0.930 . S
H2407 C2404 0.930 . S
C2408 C2410 1.348 . S
C2408 C2411 1.356 . S
C2408 O2438 1.325 . S
N2409 C2412 1.314 . S
N2409 C2413 1.279 . S
C2410 C2408 1.348 . S
C2410 C2412 1.353 . S
C2410 H2452 0.929 . S
C2411 C2408 1.356 . S
C2411 C2413 1.358 . S
C2411 H2453 0.930 . S
C2412 N2409 1.314 . S
C2412 C2410 1.353 . S
C2412 H2454 0.930 . S
C2413 N2409 1.279 . S
C2413 C2411 1.358 . S
C2413 H2455 0.930 . S
C2414 C2415 1.348 . S
C2414 C2416 1.356 . S
C2414 O2439 1.325 . S
C2415 C2414 1.348 . S
C2415 C2417 1.353 . S
C2415 H2456 0.929 . S
C2416 C2414 1.356 . S
C2416 C2418 1.358 . S
C2416 H2457 0.930 . S
C2417 C2415 1.353 . S
C2417 N2419 1.314 . S
C2417 H2458 0.930 . S
C2418 C2416 1.358 . S
C2418 N2419 1.279 . S
C2418 H2459 0.930 . S
N2419 C2417 1.314 . S
N2419 C2418 1.279 . S
C2420 C2422 1.353 . S
C2420 N2423 1.314 . S
C2420 H2426 0.930 . S
C2421 N2423 1.279 . S
C2421 C2424 1.358 . S
C2421 H2427 0.930 . S
C2422 C2420 1.353 . S
C2422 C2425 1.348 . S
C2422 H2460 0.929 . S
N2423 Li2378 1.990 . S
N2423 C2420 1.314 . S
N2423 C2421 1.279 . S
C2424 C2421 1.358 . S
C2424 C2425 1.356 . S
C2424 H2461 0.930 . S
C2425 C2422 1.348 . S
C2425 C2424 1.356 . S
H2426 C2420 0.930 . S
H2427 C2421 0.930 . S
C2428 N2429 1.314 . S
C2428 C2430 1.353 . S
C2428 H2434 0.930 . S
N2429 Li2379 1.990 . S
N2429 C2428 1.314 . S
N2429 C2432 1.279 . S
C2430 C2428 1.353 . S
C2430 C2433 1.348 . S
C2430 H2462 0.929 . S
C2431 C2432 1.358 . S
C2431 C2433 1.356 . S
C2431 H2463 0.930 . S
C2432 N2429 1.279 . S
C2432 C2431 1.358 . S
C2432 H2435 0.930 . S
C2433 C2430 1.348 . S
C2433 C2431 1.356 . S
H2434 C2428 0.930 . S
H2435 C2432 0.930 . S
O2436 Li2376 1.956 . S
O2436 Li2377 1.970 . S
O2436 Li2378 1.961 . S
O2436 C2380 1.325 . S
O2437 Li2376 1.970 . S
O2437 Li2377 1.956 . S
O2437 Li2379 1.961 . S
O2437 C2386 1.325 . S
O2438 Li2376 1.961 . S
O2438 Li2378 1.956 . S
O2438 Li2379 1.970 . S
O2438 C2408 1.325 . S
O2439 Li2377 1.961 . S
O2439 Li2378 1.970 . S
O2439 Li2379 1.956 . S
O2439 C2414 1.325 . S
H2440 C2382 0.929 . S
H2441 C2383 0.930 . S
H2442 C2384 0.930 . S
H2443 C2385 0.930 . S
H2444 C2387 0.930 . S
H2445 C2389 0.929 . S
H2446 C2390 0.930 . S
H2447 C2391 0.930 . S
H2448 C2394 0.930 . S
H2449 C2397 0.929 . S
H2450 C2402 0.929 . S
H2451 C2403 0.930 . S
H2452 C2410 0.929 . S
H2453 C2411 0.930 . S
H2454 C2412 0.930 . S
H2455 C2413 0.930 . S
H2456 C2415 0.929 . S
H2457 C2416 0.930 . S
H2458 C2417 0.930 . S
H2459 C2418 0.930 . S
H2460 C2422 0.929 . S
H2461 C2424 0.930 . S
H2462 C2430 0.929 . S
H2463 C2431 0.930 . S
Li2464 N2481 1.990 . S
Li2464 O2524 1.956 . S
Li2464 O2525 1.970 . S
Li2464 O2526 1.961 . S
Li2465 N2489 1.990 . S
Li2465 O2524 1.970 . S
Li2465 O2525 1.956 . S
Li2465 O2527 1.961 . S
Li2466 N2511 1.990 . S
Li2466 O2524 1.961 . S
Li2466 O2526 1.956 . S
Li2466 O2527 1.970 . S
Li2467 N2517 1.990 . S
Li2467 O2525 1.961 . S
Li2467 O2526 1.970 . S
Li2467 O2527 1.956 . S
C2468 C2470 1.348 . S
C2468 C2471 1.356 . S
C2468 O2524 1.325 . S
N2469 C2472 1.314 . S
N2469 C2473 1.279 . S
C2470 C2468 1.348 . S
C2470 C2472 1.353 . S
C2470 H2528 0.929 . S
C2471 C2468 1.356 . S
C2471 C2473 1.358 . S
C2471 H2529 0.930 . S
C2472 N2469 1.314 . S
C2472 C2470 1.353 . S
C2472 H2530 0.930 . S
C2473 N2469 1.279 . S
C2473 C2471 1.358 . S
C2473 H2531 0.930 . S
C2474 C2477 1.348 . S
C2474 C2478 1.356 . S
C2474 O2525 1.325 . S
C2475 N2476 1.279 . S
C2475 C2478 1.358 . S
C2475 H2532 0.930 . S
N2476 C2475 1.279 . S
N2476 C2479 1.314 . S
C2477 C2474 1.348 . S
C2477 C2479 1.353 . S
C2477 H2533 0.929 . S
C2478 C2474 1.356 . S
C2478 C2475 1.358 . S
C2478 H2534 0.930 . S
C2479 N2476 1.314 . S
C2479 C2477 1.353 . S
C2479 H2535 0.930 . S
C2480 N2481 1.314 . S
C2480 C2485 1.353 . S
C2480 H2486 0.930 . S
N2481 Li2464 1.990 . S
N2481 C2480 1.314 . S
N2481 C2483 1.279 . S
C2482 C2483 1.358 . S
C2482 C2484 1.356 . S
C2482 H2536 0.930 . S
C2483 N2481 1.279 . S
C2483 C2482 1.358 . S
C2483 H2487 0.930 . S
C2484 C2482 1.356 . S
C2484 C2485 1.348 . S
C2485 C2480 1.353 . S
C2485 C2484 1.348 . S
C2485 H2537 0.929 . S
H2486 C2480 0.930 . S
H2487 C2483 0.930 . S
C2488 N2489 1.314 . S
C2488 C2490 1.353 1_455 S
C2488 H2494 0.930 . S
N2489 Li2465 1.990 . S
N2489 C2488 1.314 . S
N2489 C2492 1.279 . S
C2490 C2488 1.353 1_655 S
C2490 C2493 1.348 . S
C2490 H2538 0.929 . S
C2491 C2492 1.358 . S
C2491 C2493 1.356 1_455 S
C2491 H2539 0.930 . S
C2492 N2489 1.279 . S
C2492 C2491 1.358 . S
C2492 H2495 0.930 . S
C2493 C2490 1.348 . S
C2493 C2491 1.356 1_655 S
H2494 C2488 0.930 . S
H2495 C2492 0.930 . S
C2496 C2498 1.348 . S
C2496 C2499 1.356 . S
C2496 O2526 1.325 . S
N2497 C2500 1.314 . S
N2497 C2501 1.279 . S
C2498 C2496 1.348 . S
C2498 C2500 1.353 . S
C2498 H2540 0.929 . S
C2499 C2496 1.356 . S
C2499 C2501 1.358 . S
C2499 H2541 0.930 . S
C2500 N2497 1.314 . S
C2500 C2498 1.353 . S
C2500 H2542 0.930 . S
C2501 N2497 1.279 . S
C2501 C2499 1.358 . S
C2501 H2543 0.930 . S
C2502 C2503 1.348 . S
C2502 C2504 1.356 . S
C2502 O2527 1.325 . S
C2503 C2502 1.348 . S
C2503 C2505 1.353 . S
C2503 H2544 0.929 . S
C2504 C2502 1.356 . S
C2504 C2506 1.358 . S
C2504 H2545 0.930 . S
C2505 C2503 1.353 . S
C2505 N2507 1.314 . S
C2505 H2546 0.930 . S
C2506 C2504 1.358 . S
C2506 N2507 1.279 . S
C2506 H2547 0.930 . S
N2507 C2505 1.314 . S
N2507 C2506 1.279 . S
C2508 C2510 1.353 . S
C2508 N2511 1.314 . S
C2508 H2514 0.930 . S
C2509 N2511 1.279 . S
C2509 C2512 1.358 . S
C2509 H2515 0.930 . S
C2510 C2508 1.353 . S
C2510 C2513 1.348 . S
C2510 H2548 0.929 . S
N2511 Li2466 1.990 . S
N2511 C2508 1.314 . S
N2511 C2509 1.279 . S
C2512 C2509 1.358 . S
C2512 C2513 1.356 . S
C2512 H2549 0.930 . S
C2513 C2510 1.348 . S
C2513 C2512 1.356 . S
H2514 C2508 0.930 . S
H2515 C2509 0.930 . S
C2516 N2517 1.314 . S
C2516 C2518 1.353 . S
C2516 H2522 0.930 . S
N2517 Li2467 1.990 . S
N2517 C2516 1.314 . S
N2517 C2520 1.279 . S
C2518 C2516 1.353 . S
C2518 C2521 1.348 . S
C2518 H2550 0.929 . S
C2519 C2520 1.358 . S
C2519 C2521 1.356 . S
C2519 H2551 0.930 . S
C2520 N2517 1.279 . S
C2520 C2519 1.358 . S
C2520 H2523 0.930 . S
C2521 C2518 1.348 . S
C2521 C2519 1.356 . S
H2522 C2516 0.930 . S
H2523 C2520 0.930 . S
O2524 Li2464 1.956 . S
O2524 Li2465 1.970 . S
O2524 Li2466 1.961 . S
O2524 C2468 1.325 . S
O2525 Li2464 1.970 . S
O2525 Li2465 1.956 . S
O2525 Li2467 1.961 . S
O2525 C2474 1.325 . S
O2526 Li2464 1.961 . S
O2526 Li2466 1.956 . S
O2526 Li2467 1.970 . S
O2526 C2496 1.325 . S
O2527 Li2465 1.961 . S
O2527 Li2466 1.970 . S
O2527 Li2467 1.956 . S
O2527 C2502 1.325 . S
H2528 C2470 0.929 . S
H2529 C2471 0.930 . S
H2530 C2472 0.930 . S
H2531 C2473 0.930 . S
H2532 C2475 0.930 . S
H2533 C2477 0.929 . S
H2534 C2478 0.930 . S
H2535 C2479 0.930 . S
H2536 C2482 0.930 . S
H2537 C2485 0.929 . S
H2538 C2490 0.929 . S
H2539 C2491 0.930 . S
H2540 C2498 0.929 . S
H2541 C2499 0.930 . S
H2542 C2500 0.930 . S
H2543 C2501 0.930 . S
H2544 C2503 0.929 . S
H2545 C2504 0.930 . S
H2546 C2505 0.930 . S
H2547 C2506 0.930 . S
H2548 C2510 0.929 . S
H2549 C2512 0.930 . S
H2550 C2518 0.929 . S
H2551 C2519 0.930 . S
Li2552 N2569 1.990 . S
Li2552 O2612 1.956 . S
Li2552 O2613 1.970 . S
Li2552 O2614 1.961 . S
Li2553 N2577 1.990 . S
Li2553 O2612 1.970 . S
Li2553 O2613 1.956 . S
Li2553 O2615 1.961 . S
Li2554 N2599 1.990 . S
Li2554 O2612 1.961 . S
Li2554 O2614 1.956 . S
Li2554 O2615 1.970 . S
Li2555 N2605 1.990 . S
Li2555 O2613 1.961 . S
Li2555 O2614 1.970 . S
Li2555 O2615 1.956 . S
C2556 C2558 1.348 . S
C2556 C2559 1.356 . S
C2556 O2612 1.325 . S
N2557 C2560 1.314 . S
N2557 C2561 1.279 . S
C2558 C2556 1.348 . S
C2558 C2560 1.353 . S
C2558 H2616 0.929 . S
C2559 C2556 1.356 . S
C2559 C2561 1.358 . S
C2559 H2617 0.930 . S
C2560 N2557 1.314 . S
C2560 C2558 1.353 . S
C2560 H2618 0.930 . S
C2561 N2557 1.279 . S
C2561 C2559 1.358 . S
C2561 H2619 0.930 . S
C2562 C2565 1.348 . S
C2562 C2566 1.356 . S
C2562 O2613 1.325 . S
C2563 N2564 1.279 . S
C2563 C2566 1.358 . S
C2563 H2620 0.930 . S
N2564 C2563 1.279 . S
N2564 C2567 1.314 . S
C2565 C2562 1.348 . S
C2565 C2567 1.353 . S
C2565 H2621 0.929 . S
C2566 C2562 1.356 . S
C2566 C2563 1.358 . S
C2566 H2622 0.930 . S
C2567 N2564 1.314 . S
C2567 C2565 1.353 . S
C2567 H2623 0.930 . S
C2568 N2569 1.314 . S
C2568 C2573 1.353 . S
C2568 H2574 0.930 . S
N2569 Li2552 1.990 . S
N2569 C2568 1.314 . S
N2569 C2571 1.279 . S
C2570 C2571 1.358 . S
C2570 C2572 1.356 . S
C2570 H2624 0.930 . S
C2571 N2569 1.279 . S
C2571 C2570 1.358 . S
C2571 H2575 0.930 . S
C2572 C2570 1.356 . S
C2572 C2573 1.348 . S
C2573 C2568 1.353 . S
C2573 C2572 1.348 . S
C2573 H2625 0.929 . S
H2574 C2568 0.930 . S
H2575 C2571 0.930 . S
C2576 N2577 1.314 . S
C2576 C2578 1.353 . S
C2576 H2582 0.930 . S
N2577 Li2553 1.990 . S
N2577 C2576 1.314 . S
N2577 C2580 1.279 . S
C2578 C2576 1.353 . S
C2578 C2581 1.348 . S
C2578 H2626 0.929 . S
C2579 C2580 1.358 . S
C2579 C2581 1.356 . S
C2579 H2627 0.930 . S
C2580 N2577 1.279 . S
C2580 C2579 1.358 . S
C2580 H2583 0.930 . S
C2581 C2578 1.348 . S
C2581 C2579 1.356 . S
H2582 C2576 0.930 . S
H2583 C2580 0.930 . S
C2584 C2586 1.348 . S
C2584 C2587 1.356 . S
C2584 O2614 1.325 . S
N2585 C2588 1.314 . S
N2585 C2589 1.279 . S
C2586 C2584 1.348 . S
C2586 C2588 1.353 . S
C2586 H2628 0.929 . S
C2587 C2584 1.356 . S
C2587 C2589 1.358 . S
C2587 H2629 0.930 . S
C2588 N2585 1.314 . S
C2588 C2586 1.353 . S
C2588 H2630 0.930 . S
C2589 N2585 1.279 . S
C2589 C2587 1.358 . S
C2589 H2631 0.930 . S
C2590 C2591 1.348 . S
C2590 C2592 1.356 . S
C2590 O2615 1.325 . S
C2591 C2590 1.348 . S
C2591 C2593 1.353 . S
C2591 H2632 0.929 . S
C2592 C2590 1.356 . S
C2592 C2594 1.358 . S
C2592 H2633 0.930 . S
C2593 C2591 1.353 . S
C2593 N2595 1.314 . S
C2593 H2634 0.930 . S
C2594 C2592 1.358 . S
C2594 N2595 1.279 . S
C2594 H2635 0.930 . S
N2595 C2593 1.314 . S
N2595 C2594 1.279 . S
C2596 C2598 1.353 . S
C2596 N2599 1.314 . S
C2596 H2602 0.930 . S
C2597 N2599 1.279 . S
C2597 C2600 1.358 . S
C2597 H2603 0.930 . S
C2598 C2596 1.353 . S
C2598 C2601 1.348 . S
C2598 H2636 0.929 . S
N2599 Li2554 1.990 . S
N2599 C2596 1.314 . S
N2599 C2597 1.279 . S
C2600 C2597 1.358 . S
C2600 C2601 1.356 . S
C2600 H2637 0.930 . S
C2601 C2598 1.348 . S
C2601 C2600 1.356 . S
H2602 C2596 0.930 . S
H2603 C2597 0.930 . S
C2604 N2605 1.314 . S
C2604 C2606 1.353 . S
C2604 H2610 0.930 . S
N2605 Li2555 1.990 . S
N2605 C2604 1.314 . S
N2605 C2608 1.279 . S
C2606 C2604 1.353 . S
C2606 C2609 1.348 . S
C2606 H2638 0.929 . S
C2607 C2608 1.358 . S
C2607 C2609 1.356 . S
C2607 H2639 0.930 . S
C2608 N2605 1.279 . S
C2608 C2607 1.358 . S
C2608 H2611 0.930 . S
C2609 C2606 1.348 . S
C2609 C2607 1.356 . S
H2610 C2604 0.930 . S
H2611 C2608 0.930 . S
O2612 Li2552 1.956 . S
O2612 Li2553 1.970 . S
O2612 Li2554 1.961 . S
O2612 C2556 1.325 . S
O2613 Li2552 1.970 . S
O2613 Li2553 1.956 . S
O2613 Li2555 1.961 . S
O2613 C2562 1.325 . S
O2614 Li2552 1.961 . S
O2614 Li2554 1.956 . S
O2614 Li2555 1.970 . S
O2614 C2584 1.325 . S
O2615 Li2553 1.961 . S
O2615 Li2554 1.970 . S
O2615 Li2555 1.956 . S
O2615 C2590 1.325 . S
H2616 C2558 0.929 . S
H2617 C2559 0.930 . S
H2618 C2560 0.930 . S
H2619 C2561 0.930 . S
H2620 C2563 0.930 . S
H2621 C2565 0.929 . S
H2622 C2566 0.930 . S
H2623 C2567 0.930 . S
H2624 C2570 0.930 . S
H2625 C2573 0.929 . S
H2626 C2578 0.929 . S
H2627 C2579 0.930 . S
H2628 C2586 0.929 . S
H2629 C2587 0.930 . S
H2630 C2588 0.930 . S
H2631 C2589 0.930 . S
H2632 C2591 0.929 . S
H2633 C2592 0.930 . S
H2634 C2593 0.930 . S
H2635 C2594 0.930 . S
H2636 C2598 0.929 . S
H2637 C2600 0.930 . S
H2638 C2606 0.929 . S
H2639 C2607 0.930 . S
Li2640 N2657 1.990 . S
Li2640 O2700 1.956 . S
Li2640 O2701 1.970 . S
Li2640 O2702 1.961 . S
Li2641 N2665 1.990 . S
Li2641 O2700 1.970 . S
Li2641 O2701 1.956 . S
Li2641 O2703 1.961 . S
Li2642 N2687 1.990 . S
Li2642 O2700 1.961 . S
Li2642 O2702 1.956 . S
Li2642 O2703 1.970 . S
Li2643 N2693 1.990 . S
Li2643 O2701 1.961 . S
Li2643 O2702 1.970 . S
Li2643 O2703 1.956 . S
C2644 C2646 1.348 . S
C2644 C2647 1.356 . S
C2644 O2700 1.325 . S
N2645 C2648 1.314 . S
N2645 C2649 1.279 . S
C2646 C2644 1.348 . S
C2646 C2648 1.353 . S
C2646 H2704 0.929 . S
C2647 C2644 1.356 . S
C2647 C2649 1.358 . S
C2647 H2705 0.930 . S
C2648 N2645 1.314 . S
C2648 C2646 1.353 . S
C2648 H2706 0.930 . S
C2649 N2645 1.279 . S
C2649 C2647 1.358 . S
C2649 H2707 0.930 . S
C2650 C2653 1.348 . S
C2650 C2654 1.356 . S
C2650 O2701 1.325 . S
C2651 N2652 1.279 . S
C2651 C2654 1.358 . S
C2651 H2708 0.930 . S
N2652 C2651 1.279 . S
N2652 C2655 1.314 . S
C2653 C2650 1.348 . S
C2653 C2655 1.353 . S
C2653 H2709 0.929 . S
C2654 C2650 1.356 . S
C2654 C2651 1.358 . S
C2654 H2710 0.930 . S
C2655 N2652 1.314 . S
C2655 C2653 1.353 . S
C2655 H2711 0.930 . S
C2656 N2657 1.314 . S
C2656 C2661 1.353 . S
C2656 H2662 0.930 . S
N2657 Li2640 1.990 . S
N2657 C2656 1.314 . S
N2657 C2659 1.279 . S
C2658 C2659 1.358 . S
C2658 C2660 1.356 . S
C2658 H2712 0.930 . S
C2659 N2657 1.279 . S
C2659 C2658 1.358 . S
C2659 H2663 0.930 . S
C2660 C2658 1.356 . S
C2660 C2661 1.348 . S
C2661 C2656 1.353 . S
C2661 C2660 1.348 . S
C2661 H2713 0.929 . S
H2662 C2656 0.930 . S
H2663 C2659 0.930 . S
C2664 N2665 1.314 . S
C2664 C2666 1.353 . S
C2664 H2670 0.930 . S
N2665 Li2641 1.990 . S
N2665 C2664 1.314 . S
N2665 C2668 1.279 . S
C2666 C2664 1.353 . S
C2666 C2669 1.348 . S
C2666 H2714 0.929 . S
C2667 C2668 1.358 . S
C2667 C2669 1.356 . S
C2667 H2715 0.930 . S
C2668 N2665 1.279 . S
C2668 C2667 1.358 . S
C2668 H2671 0.930 . S
C2669 C2666 1.348 . S
C2669 C2667 1.356 . S
H2670 C2664 0.930 . S
H2671 C2668 0.930 . S
C2672 C2674 1.348 . S
C2672 C2675 1.356 . S
C2672 O2702 1.325 . S
N2673 C2676 1.314 . S
N2673 C2677 1.279 . S
C2674 C2672 1.348 . S
C2674 C2676 1.353 . S
C2674 H2716 0.929 . S
C2675 C2672 1.356 . S
C2675 C2677 1.358 . S
C2675 H2717 0.930 . S
C2676 N2673 1.314 . S
C2676 C2674 1.353 . S
C2676 H2718 0.930 . S
C2677 N2673 1.279 . S
C2677 C2675 1.358 . S
C2677 H2719 0.930 . S
C2678 C2679 1.348 . S
C2678 C2680 1.356 . S
C2678 O2703 1.325 . S
C2679 C2678 1.348 . S
C2679 C2681 1.353 . S
C2679 H2720 0.929 . S
C2680 C2678 1.356 . S
C2680 C2682 1.358 . S
C2680 H2721 0.930 . S
C2681 C2679 1.353 . S
C2681 N2683 1.314 . S
C2681 H2722 0.930 . S
C2682 C2680 1.358 . S
C2682 N2683 1.279 . S
C2682 H2723 0.930 . S
N2683 C2681 1.314 . S
N2683 C2682 1.279 . S
C2684 C2686 1.353 . S
C2684 N2687 1.314 . S
C2684 H2690 0.930 . S
C2685 N2687 1.279 . S
C2685 C2688 1.358 . S
C2685 H2691 0.930 . S
C2686 C2684 1.353 . S
C2686 C2689 1.348 . S
C2686 H2724 0.929 . S
N2687 Li2642 1.990 . S
N2687 C2684 1.314 . S
N2687 C2685 1.279 . S
C2688 C2685 1.358 . S
C2688 C2689 1.356 . S
C2688 H2725 0.930 . S
C2689 C2686 1.348 . S
C2689 C2688 1.356 . S
H2690 C2684 0.930 . S
H2691 C2685 0.930 . S
C2692 N2693 1.314 . S
C2692 C2694 1.353 . S
C2692 H2698 0.930 . S
N2693 Li2643 1.990 . S
N2693 C2692 1.314 . S
N2693 C2696 1.279 . S
C2694 C2692 1.353 . S
C2694 C2697 1.348 . S
C2694 H2726 0.929 . S
C2695 C2696 1.358 . S
C2695 C2697 1.356 . S
C2695 H2727 0.930 . S
C2696 N2693 1.279 . S
C2696 C2695 1.358 . S
C2696 H2699 0.930 . S
C2697 C2694 1.348 . S
C2697 C2695 1.356 . S
H2698 C2692 0.930 . S
H2699 C2696 0.930 . S
O2700 Li2640 1.956 . S
O2700 Li2641 1.970 . S
O2700 Li2642 1.961 . S
O2700 C2644 1.325 . S
O2701 Li2640 1.970 . S
O2701 Li2641 1.956 . S
O2701 Li2643 1.961 . S
O2701 C2650 1.325 . S
O2702 Li2640 1.961 . S
O2702 Li2642 1.956 . S
O2702 Li2643 1.970 . S
O2702 C2672 1.325 . S
O2703 Li2641 1.961 . S
O2703 Li2642 1.970 . S
O2703 Li2643 1.956 . S
O2703 C2678 1.325 . S
H2704 C2646 0.929 . S
H2705 C2647 0.930 . S
H2706 C2648 0.930 . S
H2707 C2649 0.930 . S
H2708 C2651 0.930 . S
H2709 C2653 0.929 . S
H2710 C2654 0.930 . S
H2711 C2655 0.930 . S
H2712 C2658 0.930 . S
H2713 C2661 0.929 . S
H2714 C2666 0.929 . S
H2715 C2667 0.930 . S
H2716 C2674 0.929 . S
H2717 C2675 0.930 . S
H2718 C2676 0.930 . S
H2719 C2677 0.930 . S
H2720 C2679 0.929 . S
H2721 C2680 0.930 . S
H2722 C2681 0.930 . S
H2723 C2682 0.930 . S
H2724 C2686 0.929 . S
H2725 C2688 0.930 . S
H2726 C2694 0.929 . S
H2727 C2695 0.930 . S
Li2728 N2745 1.990 . S
Li2728 O2788 1.956 . S
Li2728 O2789 1.970 . S
Li2728 O2790 1.961 . S
Li2729 N2753 1.990 . S
Li2729 O2788 1.970 . S
Li2729 O2789 1.956 . S
Li2729 O2791 1.961 . S
Li2730 N2775 1.990 . S
Li2730 O2788 1.961 . S
Li2730 O2790 1.956 . S
Li2730 O2791 1.970 . S
Li2731 N2781 1.990 . S
Li2731 O2789 1.961 . S
Li2731 O2790 1.970 . S
Li2731 O2791 1.956 . S
C2732 C2734 1.348 . S
C2732 C2735 1.356 . S
C2732 O2788 1.325 . S
N2733 C2736 1.314 . S
N2733 C2737 1.279 . S
C2734 C2732 1.348 . S
C2734 C2736 1.353 . S
C2734 H2792 0.929 . S
C2735 C2732 1.356 . S
C2735 C2737 1.358 . S
C2735 H2793 0.930 . S
C2736 N2733 1.314 . S
C2736 C2734 1.353 . S
C2736 H2794 0.930 . S
C2737 N2733 1.279 . S
C2737 C2735 1.358 . S
C2737 H2795 0.930 . S
C2738 C2741 1.348 . S
C2738 C2742 1.356 . S
C2738 O2789 1.325 . S
C2739 N2740 1.279 . S
C2739 C2742 1.358 . S
C2739 H2796 0.930 . S
N2740 C2739 1.279 . S
N2740 C2743 1.314 . S
C2741 C2738 1.348 . S
C2741 C2743 1.353 . S
C2741 H2797 0.929 . S
C2742 C2738 1.356 . S
C2742 C2739 1.358 . S
C2742 H2798 0.930 . S
C2743 N2740 1.314 . S
C2743 C2741 1.353 . S
C2743 H2799 0.930 . S
C2744 N2745 1.314 . S
C2744 C2749 1.353 . S
C2744 H2750 0.930 . S
N2745 Li2728 1.990 . S
N2745 C2744 1.314 . S
N2745 C2747 1.279 . S
C2746 C2747 1.358 . S
C2746 C2748 1.356 . S
C2746 H2800 0.930 . S
C2747 N2745 1.279 . S
C2747 C2746 1.358 . S
C2747 H2751 0.930 . S
C2748 C2746 1.356 . S
C2748 C2749 1.348 . S
C2749 C2744 1.353 . S
C2749 C2748 1.348 . S
C2749 H2801 0.929 . S
H2750 C2744 0.930 . S
H2751 C2747 0.930 . S
C2752 N2753 1.314 . S
C2752 C2754 1.353 . S
C2752 H2758 0.930 . S
N2753 Li2729 1.990 . S
N2753 C2752 1.314 . S
N2753 C2756 1.279 . S
C2754 C2752 1.353 . S
C2754 C2757 1.348 . S
C2754 H2802 0.929 . S
C2755 C2756 1.358 . S
C2755 C2757 1.356 . S
C2755 H2803 0.930 . S
C2756 N2753 1.279 . S
C2756 C2755 1.358 . S
C2756 H2759 0.930 . S
C2757 C2754 1.348 . S
C2757 C2755 1.356 . S
H2758 C2752 0.930 . S
H2759 C2756 0.930 . S
C2760 C2762 1.348 . S
C2760 C2763 1.356 . S
C2760 O2790 1.325 . S
N2761 C2764 1.314 . S
N2761 C2765 1.279 . S
C2762 C2760 1.348 . S
C2762 C2764 1.353 . S
C2762 H2804 0.929 . S
C2763 C2760 1.356 . S
C2763 C2765 1.358 . S
C2763 H2805 0.930 . S
C2764 N2761 1.314 . S
C2764 C2762 1.353 . S
C2764 H2806 0.930 . S
C2765 N2761 1.279 . S
C2765 C2763 1.358 . S
C2765 H2807 0.930 . S
C2766 C2767 1.348 . S
C2766 C2768 1.356 . S
C2766 O2791 1.325 . S
C2767 C2766 1.348 . S
C2767 C2769 1.353 . S
C2767 H2808 0.929 . S
C2768 C2766 1.356 . S
C2768 C2770 1.358 . S
C2768 H2809 0.930 . S
C2769 C2767 1.353 . S
C2769 N2771 1.314 . S
C2769 H2810 0.930 . S
C2770 C2768 1.358 . S
C2770 N2771 1.279 . S
C2770 H2811 0.930 . S
N2771 C2769 1.314 . S
N2771 C2770 1.279 . S
C2772 C2774 1.353 . S
C2772 N2775 1.314 . S
C2772 H2778 0.930 . S
C2773 N2775 1.279 . S
C2773 C2776 1.358 . S
C2773 H2779 0.930 . S
C2774 C2772 1.353 . S
C2774 C2777 1.348 . S
C2774 H2812 0.929 . S
N2775 Li2730 1.990 . S
N2775 C2772 1.314 . S
N2775 C2773 1.279 . S
C2776 C2773 1.358 . S
C2776 C2777 1.356 . S
C2776 H2813 0.930 . S
C2777 C2774 1.348 . S
C2777 C2776 1.356 . S
H2778 C2772 0.930 . S
H2779 C2773 0.930 . S
C2780 N2781 1.314 . S
C2780 C2782 1.353 . S
C2780 H2786 0.930 . S
N2781 Li2731 1.990 . S
N2781 C2780 1.314 . S
N2781 C2784 1.279 . S
C2782 C2780 1.353 . S
C2782 C2785 1.348 . S
C2782 H2814 0.929 . S
C2783 C2784 1.358 . S
C2783 C2785 1.356 . S
C2783 H2815 0.930 . S
C2784 N2781 1.279 . S
C2784 C2783 1.358 . S
C2784 H2787 0.930 . S
C2785 C2782 1.348 . S
C2785 C2783 1.356 . S
H2786 C2780 0.930 . S
H2787 C2784 0.930 . S
O2788 Li2728 1.956 . S
O2788 Li2729 1.970 . S
O2788 Li2730 1.961 . S
O2788 C2732 1.325 . S
O2789 Li2728 1.970 . S
O2789 Li2729 1.956 . S
O2789 Li2731 1.961 . S
O2789 C2738 1.325 . S
O2790 Li2728 1.961 . S
O2790 Li2730 1.956 . S
O2790 Li2731 1.970 . S
O2790 C2760 1.325 . S
O2791 Li2729 1.961 . S
O2791 Li2730 1.970 . S
O2791 Li2731 1.956 . S
O2791 C2766 1.325 . S
H2792 C2734 0.929 . S
H2793 C2735 0.930 . S
H2794 C2736 0.930 . S
H2795 C2737 0.930 . S
H2796 C2739 0.930 . S
H2797 C2741 0.929 . S
H2798 C2742 0.930 . S
H2799 C2743 0.930 . S
H2800 C2746 0.930 . S
H2801 C2749 0.929 . S
H2802 C2754 0.929 . S
H2803 C2755 0.930 . S
H2804 C2762 0.929 . S
H2805 C2763 0.930 . S
H2806 C2764 0.930 . S
H2807 C2765 0.930 . S
H2808 C2767 0.929 . S
H2809 C2768 0.930 . S
H2810 C2769 0.930 . S
H2811 C2770 0.930 . S
H2812 C2774 0.929 . S
H2813 C2776 0.930 . S
H2814 C2782 0.929 . S
H2815 C2783 0.930 . S
C2816 C2817 1.391 . S
C2816 C2818 1.394 . S
C2816 H2832 0.931 . S
C2817 C2816 1.391 . S
C2817 C2821 1.376 . S
C2818 C2816 1.394 . S
C2818 C2819 1.369 . S
C2818 C2822 1.531 . S
C2819 C2818 1.369 . S
C2819 C2820 1.410 1_565 S
C2819 C2827 1.498 1_565 S
C2820 C2819 1.410 1_545 S
C2820 C2821 1.392 1_545 S
C2820 C2823 1.511 . S
C2821 C2817 1.376 . S
C2821 C2820 1.392 1_565 S
C2821 H2833 0.929 1_565 S
C2822 C2818 1.531 . S
C2822 H2834 0.960 . S
C2822 H2835 0.962 . S
C2822 H2836 0.960 . S
C2823 C2820 1.511 . S
C2823 H2837 0.961 . S
C2823 H2838 0.961 . S
C2823 H2839 0.961 . S
C2824 C2825 1.370 . S
C2824 C2826 1.363 . S
C2824 H2840 0.931 . S
C2825 C2824 1.370 . S
C2825 C2829 1.408 1_545 S
C2826 C2824 1.363 . S
C2826 C2827 1.384 . S
C2826 C2830 1.524 . S
C2827 C2819 1.498 1_545 S
C2827 C2826 1.384 . S
C2827 C2828 1.394 1_545 S
C2828 C2827 1.394 1_565 S
C2828 C2829 1.404 . S
C2828 C2831 1.539 . S
C2829 C2825 1.408 1_565 S
C2829 C2828 1.404 . S
C2829 H2841 0.930 . S
C2830 C2826 1.524 . S
C2830 H2842 0.956 . S
C2830 H2843 0.961 . S
C2830 H2844 0.961 . S
C2831 C2828 1.539 . S
C2831 H2845 0.958 . S
C2831 H2846 0.961 . S
C2831 H2847 0.960 . S
H2832 C2816 0.931 . S
H2833 C2821 0.929 1_545 S
H2834 C2822 0.960 . S
H2835 C2822 0.962 . S
H2836 C2822 0.960 . S
H2837 C2823 0.961 . S
H2838 C2823 0.961 . S
H2839 C2823 0.961 . S
H2840 C2824 0.931 . S
H2841 C2829 0.930 . S
H2842 C2830 0.956 . S
H2843 C2830 0.961 . S
H2844 C2830 0.961 . S
H2845 C2831 0.958 . S
H2846 C2831 0.961 . S
H2847 C2831 0.960 . S
C2848 C2849 1.391 . S
C2848 C2850 1.394 . S
C2848 H2864 0.931 . S
C2849 C2848 1.391 . S
C2849 C2853 1.376 . S
C2850 C2848 1.394 . S
C2850 C2851 1.369 . S
C2850 C2854 1.531 . S
C2851 C2850 1.369 . S
C2851 C2852 1.410 . S
C2851 C2859 1.503 . S
C2852 C2851 1.410 . S
C2852 C2853 1.392 . S
C2852 C2855 1.511 . S
C2853 C2849 1.376 . S
C2853 C2852 1.392 . S
C2853 H2865 0.929 . S
C2854 C2850 1.531 . S
C2854 H2866 0.960 . S
C2854 H2867 0.962 . S
C2854 H2868 0.960 . S
C2855 C2852 1.511 . S
C2855 H2869 0.961 . S
C2855 H2870 0.961 . S
C2855 H2871 0.961 . S
C2856 C2857 1.370 . S
C2856 C2858 1.363 . S
C2856 H2872 0.931 . S
C2857 C2856 1.370 . S
C2857 C2861 1.408 . S
C2858 C2856 1.363 . S
C2858 C2859 1.370 . S
C2858 C2862 1.524 . S
C2859 C2851 1.503 . S
C2859 C2858 1.370 . S
C2859 C2860 1.403 . S
C2860 C2859 1.403 . S
C2860 C2861 1.404 . S
C2860 C2863 1.539 . S
C2861 C2857 1.408 . S
C2861 C2860 1.404 . S
C2861 H2873 0.930 . S
C2862 C2858 1.524 . S
C2862 H2874 0.956 . S
C2862 H2875 0.961 . S
C2862 H2876 0.961 . S
C2863 C2860 1.539 . S
C2863 H2877 0.958 . S
C2863 H2878 0.961 . S
C2863 H2879 0.960 . S
H2864 C2848 0.931 . S
H2865 C2853 0.929 . S
H2866 C2854 0.960 . S
H2867 C2854 0.962 . S
H2868 C2854 0.960 . S
H2869 C2855 0.961 . S
H2870 C2855 0.961 . S
H2871 C2855 0.961 . S
H2872 C2856 0.931 . S
H2873 C2861 0.930 . S
H2874 C2862 0.956 . S
H2875 C2862 0.961 . S
H2876 C2862 0.961 . S
H2877 C2863 0.958 . S
H2878 C2863 0.961 . S
H2879 C2863 0.960 . S
C2880 C2881 1.391 . S
C2880 C2882 1.394 . S
C2880 H2896 0.931 . S
C2881 C2880 1.391 . S
C2881 C2885 1.376 . S
C2882 C2880 1.394 . S
C2882 C2883 1.369 . S
C2882 C2886 1.531 . S
C2883 C2882 1.369 . S
C2883 C2884 1.412 . S
C2883 C2891 1.504 1_545 S
C2884 C2883 1.412 . S
C2884 C2885 1.394 . S
C2884 C2887 1.507 1_545 S
C2885 C2881 1.376 . S
C2885 C2884 1.394 . S
C2885 H2897 0.927 . S
C2886 C2882 1.531 . S
C2886 H2898 0.960 . S
C2886 H2899 0.962 . S
C2886 H2900 0.960 . S
C2887 C2884 1.507 1_565 S
C2887 H2901 0.961 . S
C2887 H2902 0.961 . S
C2887 H2903 0.961 . S
C2888 C2889 1.370 . S
C2888 C2890 1.363 . S
C2888 H2904 0.931 . S
C2889 C2888 1.370 . S
C2889 C2893 1.408 1_565 S
C2890 C2888 1.363 . S
C2890 C2891 1.368 . S
C2890 C2894 1.524 . S
C2891 C2883 1.504 1_565 S
C2891 C2890 1.368 . S
C2891 C2892 1.404 1_565 S
C2892 C2891 1.404 1_545 S
C2892 C2893 1.404 . S
C2892 C2895 1.539 . S
C2893 C2889 1.408 1_545 S
C2893 C2892 1.404 . S
C2893 H2905 0.930 . S
C2894 C2890 1.524 . S
C2894 H2906 0.956 . S
C2894 H2907 0.961 . S
C2894 H2908 0.961 . S
C2895 C2892 1.539 . S
C2895 H2909 0.958 . S
C2895 H2910 0.961 . S
C2895 H2911 0.960 . S
H2896 C2880 0.931 . S
H2897 C2885 0.927 . S
H2898 C2886 0.960 . S
H2899 C2886 0.962 . S
H2900 C2886 0.960 . S
H2901 C2887 0.961 . S
H2902 C2887 0.961 . S
H2903 C2887 0.961 . S
H2904 C2888 0.931 . S
H2905 C2893 0.930 . S
H2906 C2894 0.956 . S
H2907 C2894 0.961 . S
H2908 C2894 0.961 . S
H2909 C2895 0.958 . S
H2910 C2895 0.961 . S
H2911 C2895 0.960 . S
C2912 C2913 1.391 . S
C2912 C2914 1.394 . S
C2912 H2928 0.931 . S
C2913 C2912 1.391 . S
C2913 C2917 1.376 . S
C2914 C2912 1.394 . S
C2914 C2915 1.369 . S
C2914 C2918 1.557 . S
C2915 C2914 1.369 . S
C2915 C2916 1.410 . S
C2915 C2923 1.503 1_556 S
C2916 C2915 1.410 . S
C2916 C2917 1.392 . S
C2916 C2919 1.511 . S
C2917 C2913 1.376 . S
C2917 C2916 1.392 . S
C2917 H2929 0.929 . S
C2918 C2914 1.557 . S
C2918 H2930 0.932 1_556 S
C2918 H2931 0.949 1_556 S
C2918 H2932 0.977 . S
C2919 C2916 1.511 . S
C2919 H2933 0.961 . S
C2919 H2934 0.961 . S
C2919 H2935 0.961 . S
C2920 C2921 1.370 . S
C2920 C2922 1.363 . S
C2920 H2936 0.931 . S
C2921 C2920 1.370 . S
C2921 C2925 1.408 . S
C2922 C2920 1.363 . S
C2922 C2923 1.370 . S
C2922 C2926 1.524 . S
C2923 C2915 1.503 1_554 S
C2923 C2922 1.370 . S
C2923 C2924 1.403 . S
C2924 C2923 1.403 . S
C2924 C2925 1.404 . S
C2924 C2927 1.539 . S
C2925 C2921 1.408 . S
C2925 C2924 1.404 . S
C2925 H2937 0.930 . S
C2926 C2922 1.524 . S
C2926 H2938 0.956 . S
C2926 H2939 0.878 1_554 S
C2926 H2940 0.961 . S
C2927 C2924 1.539 . S
C2927 H2941 0.958 . S
C2927 H2942 0.961 . S
C2927 H2943 0.960 1_554 S
H2928 C2912 0.931 . S
H2929 C2917 0.929 . S
H2930 C2918 0.932 1_554 S
H2931 C2918 0.949 1_554 S
H2932 C2918 0.977 . S
H2933 C2919 0.961 . S
H2934 C2919 0.961 . S
H2935 C2919 0.961 . S
H2936 C2920 0.931 . S
H2937 C2925 0.930 . S
H2938 C2926 0.956 . S
H2939 C2926 0.878 1_556 S
H2940 C2926 0.961 . S
H2941 C2927 0.958 . S
H2942 C2927 0.961 . S
H2943 C2927 0.960 1_556 S
C2944 C2945 1.391 . S
C2944 C2946 1.394 . S
C2944 H2960 0.931 . S
C2945 C2944 1.391 . S
C2945 C2949 1.376 . S
C2946 C2944 1.394 . S
C2946 C2947 1.369 . S
C2946 C2950 1.531 . S
C2947 C2946 1.369 . S
C2947 C2948 1.410 1_565 S
C2947 C2955 1.499 1_565 S
C2948 C2947 1.410 1_545 S
C2948 C2949 1.392 1_545 S
C2948 C2951 1.511 . S
C2949 C2945 1.376 . S
C2949 C2948 1.392 1_565 S
C2949 H2961 0.929 1_565 S
C2950 C2946 1.531 . S
C2950 H2962 0.960 . S
C2950 H2963 0.962 . S
C2950 H2964 0.960 . S
C2951 C2948 1.511 . S
C2951 H2965 0.961 . S
C2951 H2966 0.961 . S
C2951 H2967 0.961 . S
C2952 C2953 1.370 . S
C2952 C2954 1.363 . S
C2952 H2968 0.931 . S
C2953 C2952 1.370 . S
C2953 C2957 1.408 1_545 S
C2954 C2952 1.363 . S
C2954 C2955 1.381 . S
C2954 C2958 1.524 . S
C2955 C2947 1.499 1_545 S
C2955 C2954 1.381 . S
C2955 C2956 1.396 1_545 S
C2956 C2955 1.396 1_565 S
C2956 C2957 1.404 . S
C2956 C2959 1.539 . S
C2957 C2953 1.408 1_565 S
C2957 C2956 1.404 . S
C2957 H2969 0.930 . S
C2958 C2954 1.524 . S
C2958 H2970 0.956 . S
C2958 H2971 0.961 . S
C2958 H2972 0.961 . S
C2959 C2956 1.539 . S
C2959 H2973 0.958 . S
C2959 H2974 0.961 . S
C2959 H2975 0.960 . S
H2960 C2944 0.931 . S
H2961 C2949 0.929 1_545 S
H2962 C2950 0.960 . S
H2963 C2950 0.962 . S
H2964 C2950 0.960 . S
H2965 C2951 0.961 . S
H2966 C2951 0.961 . S
H2967 C2951 0.961 . S
H2968 C2952 0.931 . S
H2969 C2957 0.930 . S
H2970 C2958 0.956 . S
H2971 C2958 0.961 . S
H2972 C2958 0.961 . S
H2973 C2959 0.958 . S
H2974 C2959 0.961 . S
H2975 C2959 0.960 . S
C2976 C2977 1.391 . S
C2976 C2978 1.394 . S
C2976 H2992 0.931 . S
C2977 C2976 1.391 . S
C2977 C2981 1.376 . S
C2978 C2976 1.394 . S
C2978 C2979 1.369 . S
C2978 C2982 1.531 . S
C2979 C2978 1.369 . S
C2979 C2980 1.410 . S
C2979 C2987 1.503 . S
C2980 C2979 1.410 . S
C2980 C2981 1.392 . S
C2980 C2983 1.511 . S
C2981 C2977 1.376 . S
C2981 C2980 1.392 . S
C2981 H2993 0.929 . S
C2982 C2978 1.531 . S
C2982 H2994 0.960 . S
C2982 H2995 0.962 . S
C2982 H2996 0.960 . S
C2983 C2980 1.511 . S
C2983 H2997 0.961 . S
C2983 H2998 0.961 . S
C2983 H2999 0.961 . S
C2984 C2985 1.370 . S
C2984 C2986 1.363 . S
C2984 H3000 0.931 . S
C2985 C2984 1.370 . S
C2985 C2989 1.408 . S
C2986 C2984 1.363 . S
C2986 C2987 1.370 . S
C2986 C2990 1.524 . S
C2987 C2979 1.503 . S
C2987 C2986 1.370 . S
C2987 C2988 1.403 . S
C2988 C2987 1.403 . S
C2988 C2989 1.404 . S
C2988 C2991 1.539 . S
C2989 C2985 1.408 . S
C2989 C2988 1.404 . S
C2989 H3001 0.930 . S
C2990 C2986 1.524 . S
C2990 H3002 0.956 . S
C2990 H3003 0.961 . S
C2990 H3004 0.961 . S
C2991 C2988 1.539 . S
C2991 H3005 0.958 . S
C2991 H3006 0.961 . S
C2991 H3007 0.960 . S
H2992 C2976 0.931 . S
H2993 C2981 0.929 . S
H2994 C2982 0.960 . S
H2995 C2982 0.962 . S
H2996 C2982 0.960 . S
H2997 C2983 0.961 . S
H2998 C2983 0.961 . S
H2999 C2983 0.961 . S
H3000 C2984 0.931 . S
H3001 C2989 0.930 . S
H3002 C2990 0.956 . S
H3003 C2990 0.961 . S
H3004 C2990 0.961 . S
H3005 C2991 0.958 . S
H3006 C2991 0.961 . S
H3007 C2991 0.960 . S
C3008 C3009 1.391 . S
C3008 C3010 1.394 1_545 S
C3008 H3024 0.931 1_545 S
C3009 C3008 1.391 . S
C3009 C3013 1.376 . S
C3010 C3008 1.394 1_565 S
C3010 C3011 1.369 . S
C3010 C3014 1.531 . S
C3011 C3010 1.369 . S
C3011 C3012 1.410 1_565 S
C3011 C3019 1.503 . S
C3012 C3011 1.410 1_545 S
C3012 C3013 1.392 . S
C3012 C3015 1.511 . S
C3013 C3009 1.376 . S
C3013 C3012 1.392 . S
C3013 H3025 0.929 . S
C3014 C3010 1.531 . S
C3014 H3026 0.960 . S
C3014 H3027 0.962 . S
C3014 H3028 0.960 . S
C3015 C3012 1.511 . S
C3015 H3029 0.961 . S
C3015 H3030 0.961 . S
C3015 H3031 0.961 . S
C3016 C3017 1.370 1_545 S
C3016 C3018 1.363 . S
C3016 H3032 0.931 . S
C3017 C3016 1.370 1_565 S
C3017 C3021 1.408 . S
C3018 C3016 1.363 . S
C3018 C3019 1.370 1_545 S
C3018 C3022 1.524 . S
C3019 C3011 1.503 . S
C3019 C3018 1.370 1_565 S
C3019 C3020 1.403 . S
C3020 C3019 1.403 . S
C3020 C3021 1.404 . S
C3020 C3023 1.539 . S
C3021 C3017 1.408 . S
C3021 C3020 1.404 . S
C3021 H3033 0.930 . S
C3022 C3018 1.524 . S
C3022 H3034 0.956 . S
C3022 H3035 0.961 . S
C3022 H3036 0.961 . S
C3023 C3020 1.539 . S
C3023 H3037 0.958 . S
C3023 H3038 0.961 . S
C3023 H3039 0.960 . S
H3024 C3008 0.931 1_565 S
H3025 C3013 0.929 . S
H3026 C3014 0.960 . S
H3027 C3014 0.962 . S
H3028 C3014 0.960 . S
H3029 C3015 0.961 . S
H3030 C3015 0.961 . S
H3031 C3015 0.961 . S
H3032 C3016 0.931 . S
H3033 C3021 0.930 . S
H3034 C3022 0.956 . S
H3035 C3022 0.961 . S
H3036 C3022 0.961 . S
H3037 C3023 0.958 . S
H3038 C3023 0.961 . S
H3039 C3023 0.960 . S
C3040 C3041 1.391 . S
C3040 C3042 1.394 . S
C3040 H3056 0.931 . S
C3041 C3040 1.391 . S
C3041 C3045 1.376 . S
C3042 C3040 1.394 . S
C3042 C3043 1.369 . S
C3042 C3046 1.527 . S
C3043 C3042 1.369 . S
C3043 C3044 1.410 . S
C3043 C3051 1.503 1_556 S
C3044 C3043 1.410 . S
C3044 C3045 1.392 . S
C3044 C3047 1.511 . S
C3045 C3041 1.376 . S
C3045 C3044 1.392 . S
C3045 H3057 0.929 . S
C3046 C3042 1.527 . S
C3046 H3058 0.965 1_556 S
C3046 H3059 0.963 1_556 S
C3046 H3060 0.959 . S
C3047 C3044 1.511 . S
C3047 H3061 0.961 . S
C3047 H3062 0.961 . S
C3047 H3063 0.961 . S
C3048 C3049 1.370 . S
C3048 C3050 1.363 . S
C3048 H3064 0.931 . S
C3049 C3048 1.370 . S
C3049 C3053 1.408 . S
C3050 C3048 1.363 . S
C3050 C3051 1.370 . S
C3050 C3054 1.524 . S
C3051 C3043 1.503 1_554 S
C3051 C3050 1.370 . S
C3051 C3052 1.403 . S
C3052 C3051 1.403 . S
C3052 C3053 1.404 . S
C3052 C3055 1.539 . S
C3053 C3049 1.408 . S
C3053 C3052 1.404 . S
C3053 H3065 0.930 . S
C3054 C3050 1.524 . S
C3054 H3066 0.968 . S
C3054 H3067 0.961 1_554 S
C3054 H3068 0.961 . S
C3055 C3052 1.539 . S
C3055 H3069 0.958 . S
C3055 H3070 0.961 . S
C3055 H3071 0.960 . S
H3056 C3040 0.931 . S
H3057 C3045 0.929 . S
H3058 C3046 0.965 1_554 S
H3059 C3046 0.963 1_554 S
H3060 C3046 0.959 . S
H3061 C3047 0.961 . S
H3062 C3047 0.961 . S
H3063 C3047 0.961 . S
H3064 C3048 0.931 . S
H3065 C3053 0.930 . S
H3066 C3054 0.968 . S
H3067 C3054 0.961 1_556 S
H3068 C3054 0.961 . S
H3069 C3055 0.958 . S
H3070 C3055 0.961 . S
H3071 C3055 0.960 . S
C3072 C3073 1.391 . S
C3072 C3074 1.394 . S
C3072 H3088 0.931 . S
C3073 C3072 1.391 . S
C3073 C3077 1.376 . S
C3074 C3072 1.394 . S
C3074 C3075 1.369 . S
C3074 C3078 1.531 . S
C3075 C3074 1.369 . S
C3075 C3076 1.410 . S
C3075 C3083 1.503 . S
C3076 C3075 1.410 . S
C3076 C3077 1.392 . S
C3076 C3079 1.511 . S
C3077 C3073 1.376 . S
C3077 C3076 1.392 . S
C3077 H3089 0.929 . S
C3078 C3074 1.531 . S
C3078 H3090 0.960 . S
C3078 H3091 0.962 . S
C3078 H3092 0.960 . S
C3079 C3076 1.511 . S
C3079 H3093 0.961 . S
C3079 H3094 0.961 . S
C3079 H3095 0.961 . S
C3080 C3081 1.370 . S
C3080 C3082 1.363 . S
C3080 H3096 0.931 . S
C3081 C3080 1.370 . S
C3081 C3085 1.408 . S
C3082 C3080 1.363 . S
C3082 C3083 1.370 . S
C3082 C3086 1.524 . S
C3083 C3075 1.503 . S
C3083 C3082 1.370 . S
C3083 C3084 1.403 . S
C3084 C3083 1.403 . S
C3084 C3085 1.404 . S
C3084 C3087 1.539 . S
C3085 C3081 1.408 . S
C3085 C3084 1.404 . S
C3085 H3097 0.930 . S
C3086 C3082 1.524 . S
C3086 H3098 0.956 . S
C3086 H3099 0.961 . S
C3086 H3100 0.961 . S
C3087 C3084 1.539 . S
C3087 H3101 0.958 . S
C3087 H3102 0.961 . S
C3087 H3103 0.960 . S
H3088 C3072 0.931 . S
H3089 C3077 0.929 . S
H3090 C3078 0.960 . S
H3091 C3078 0.962 . S
H3092 C3078 0.960 . S
H3093 C3079 0.961 . S
H3094 C3079 0.961 . S
H3095 C3079 0.961 . S
H3096 C3080 0.931 . S
H3097 C3085 0.930 . S
H3098 C3086 0.956 . S
H3099 C3086 0.961 . S
H3100 C3086 0.961 . S
H3101 C3087 0.958 . S
H3102 C3087 0.961 . S
H3103 C3087 0.960 . S
C3104 C3105 1.391 . S
C3104 C3106 1.394 . S
C3104 H3120 0.931 . S
C3105 C3104 1.391 . S
C3105 C3109 1.376 . S
C3106 C3104 1.394 . S
C3106 C3107 1.369 . S
C3106 C3110 1.531 . S
C3107 C3106 1.369 . S
C3107 C3108 1.410 . S
C3107 C3115 1.503 1_554 S
C3108 C3107 1.410 . S
C3108 C3109 1.392 . S
C3108 C3111 1.511 . S
C3109 C3105 1.376 . S
C3109 C3108 1.392 . S
C3109 H3121 0.929 . S
C3110 C3106 1.531 . S
C3110 H3122 0.960 . S
C3110 H3123 0.962 . S
C3110 H3124 0.960 . S
C3111 C3108 1.511 . S
C3111 H3125 0.961 . S
C3111 H3126 0.961 1_554 S
C3111 H3127 0.961 1_554 S
C3112 C3113 1.370 . S
C3112 C3114 1.363 . S
C3112 H3128 0.931 . S
C3113 C3112 1.370 . S
C3113 C3117 1.408 . S
C3114 C3112 1.363 . S
C3114 C3115 1.370 . S
C3114 C3118 1.559 . S
C3115 C3107 1.503 1_556 S
C3115 C3114 1.370 . S
C3115 C3116 1.403 . S
C3116 C3115 1.403 . S
C3116 C3117 1.404 . S
C3116 C3119 1.539 . S
C3117 C3113 1.408 . S
C3117 C3116 1.404 . S
C3117 H3129 0.930 . S
C3118 C3114 1.559 . S
C3118 H3130 0.924 1_556 S
C3118 H3131 0.937 1_556 S
C3118 H3132 0.984 . S
C3119 C3116 1.539 . S
C3119 H3133 0.958 . S
C3119 H3134 0.961 . S
C3119 H3135 0.960 . S
H3120 C3104 0.931 . S
H3121 C3109 0.929 . S
H3122 C3110 0.960 . S
H3123 C3110 0.962 . S
H3124 C3110 0.960 . S
H3125 C3111 0.961 . S
H3126 C3111 0.961 1_556 S
H3127 C3111 0.961 1_556 S
H3128 C3112 0.931 . S
H3129 C3117 0.930 . S
H3130 C3118 0.924 1_554 S
H3131 C3118 0.937 1_554 S
H3132 C3118 0.984 . S
H3133 C3119 0.958 . S
H3134 C3119 0.961 . S
H3135 C3119 0.960 . S
C3136 C3137 1.391 . S
C3136 C3138 1.394 . S
C3136 H3152 0.931 . S
C3137 C3136 1.391 . S
C3137 C3141 1.376 . S
C3138 C3136 1.394 . S
C3138 C3139 1.369 . S
C3138 C3142 1.531 . S
C3139 C3138 1.369 . S
C3139 C3140 1.410 . S
C3139 C3147 1.503 . S
C3140 C3139 1.410 . S
C3140 C3141 1.392 . S
C3140 C3143 1.511 . S
C3141 C3137 1.376 . S
C3141 C3140 1.392 . S
C3141 H3153 0.929 . S
C3142 C3138 1.531 . S
C3142 H3154 0.960 . S
C3142 H3155 0.962 . S
C3142 H3156 0.960 . S
C3143 C3140 1.511 . S
C3143 H3157 0.961 . S
C3143 H3158 0.961 . S
C3143 H3159 0.961 . S
C3144 C3145 1.370 . S
C3144 C3146 1.363 . S
C3144 H3160 0.931 . S
C3145 C3144 1.370 . S
C3145 C3149 1.408 . S
C3146 C3144 1.363 . S
C3146 C3147 1.370 . S
C3146 C3150 1.524 . S
C3147 C3139 1.503 . S
C3147 C3146 1.370 . S
C3147 C3148 1.403 . S
C3148 C3147 1.403 . S
C3148 C3149 1.404 . S
C3148 C3151 1.539 . S
C3149 C3145 1.408 . S
C3149 C3148 1.404 . S
C3149 H3161 0.930 . S
C3150 C3146 1.524 . S
C3150 H3162 0.956 . S
C3150 H3163 0.961 . S
C3150 H3164 0.961 . S
C3151 C3148 1.539 . S
C3151 H3165 0.958 . S
C3151 H3166 0.961 . S
C3151 H3167 0.960 . S
H3152 C3136 0.931 . S
H3153 C3141 0.929 . S
H3154 C3142 0.960 . S
H3155 C3142 0.962 . S
H3156 C3142 0.960 . S
H3157 C3143 0.961 . S
H3158 C3143 0.961 . S
H3159 C3143 0.961 . S
H3160 C3144 0.931 . S
H3161 C3149 0.930 . S
H3162 C3150 0.956 . S
H3163 C3150 0.961 . S
H3164 C3150 0.961 . S
H3165 C3151 0.958 . S
H3166 C3151 0.961 . S
H3167 C3151 0.960 . S
C3168 C3169 1.391 . S
C3168 C3170 1.394 . S
C3168 H3184 0.931 . S
C3169 C3168 1.391 . S
C3169 C3173 1.376 . S
C3170 C3168 1.394 . S
C3170 C3171 1.369 . S
C3170 C3174 1.531 . S
C3171 C3170 1.369 . S
C3171 C3172 1.410 . S
C3171 C3179 1.503 . S
C3172 C3171 1.410 . S
C3172 C3173 1.392 . S
C3172 C3175 1.511 . S
C3173 C3169 1.376 . S
C3173 C3172 1.392 . S
C3173 H3185 0.929 . S
C3174 C3170 1.531 . S
C3174 H3186 0.960 . S
C3174 H3187 0.962 . S
C3174 H3188 0.960 . S
C3175 C3172 1.511 . S
C3175 H3189 0.961 . S
C3175 H3190 0.961 . S
C3175 H3191 0.961 . S
C3176 C3177 1.370 . S
C3176 C3178 1.363 . S
C3176 H3192 0.931 . S
C3177 C3176 1.370 . S
C3177 C3181 1.408 . S
C3178 C3176 1.363 . S
C3178 C3179 1.370 . S
C3178 C3182 1.524 . S
C3179 C3171 1.503 . S
C3179 C3178 1.370 . S
C3179 C3180 1.403 . S
C3180 C3179 1.403 . S
C3180 C3181 1.404 . S
C3180 C3183 1.539 . S
C3181 C3177 1.408 . S
C3181 C3180 1.404 . S
C3181 H3193 0.930 . S
C3182 C3178 1.524 . S
C3182 H3194 0.956 . S
C3182 H3195 0.961 . S
C3182 H3196 0.961 . S
C3183 C3180 1.539 . S
C3183 H3197 0.958 . S
C3183 H3198 0.961 . S
C3183 H3199 0.960 . S
H3184 C3168 0.931 . S
H3185 C3173 0.929 . S
H3186 C3174 0.960 . S
H3187 C3174 0.962 . S
H3188 C3174 0.960 . S
H3189 C3175 0.961 . S
H3190 C3175 0.961 . S
H3191 C3175 0.961 . S
H3192 C3176 0.931 . S
H3193 C3181 0.930 . S
H3194 C3182 0.956 . S
H3195 C3182 0.961 . S
H3196 C3182 0.961 . S
H3197 C3183 0.958 . S
H3198 C3183 0.961 . S
H3199 C3183 0.960 . S
C3200 C3201 1.391 . S
C3200 C3202 1.394 . S
C3200 H3216 0.931 . S
C3201 C3200 1.391 . S
C3201 C3205 1.376 . S
C3202 C3200 1.394 . S
C3202 C3203 1.369 . S
C3202 C3206 1.531 . S
C3203 C3202 1.369 . S
C3203 C3204 1.410 . S
C3203 C3211 1.503 . S
C3204 C3203 1.410 . S
C3204 C3205 1.392 . S
C3204 C3207 1.511 . S
C3205 C3201 1.376 . S
C3205 C3204 1.392 . S
C3205 H3217 0.929 . S
C3206 C3202 1.531 . S
C3206 H3218 0.960 . S
C3206 H3219 0.962 . S
C3206 H3220 0.960 . S
C3207 C3204 1.511 . S
C3207 H3221 0.961 . S
C3207 H3222 0.961 . S
C3207 H3223 0.961 . S
C3208 C3209 1.370 . S
C3208 C3210 1.363 . S
C3208 H3224 0.931 . S
C3209 C3208 1.370 . S
C3209 C3213 1.408 . S
C3210 C3208 1.363 . S
C3210 C3211 1.370 . S
C3210 C3214 1.524 . S
C3211 C3203 1.503 . S
C3211 C3210 1.370 . S
C3211 C3212 1.403 . S
C3212 C3211 1.403 . S
C3212 C3213 1.404 . S
C3212 C3215 1.539 . S
C3213 C3209 1.408 . S
C3213 C3212 1.404 . S
C3213 H3225 0.930 . S
C3214 C3210 1.524 . S
C3214 H3226 0.956 . S
C3214 H3227 0.961 . S
C3214 H3228 0.961 . S
C3215 C3212 1.539 . S
C3215 H3229 0.958 . S
C3215 H3230 0.961 . S
C3215 H3231 0.960 . S
H3216 C3200 0.931 . S
H3217 C3205 0.929 . S
H3218 C3206 0.960 . S
H3219 C3206 0.962 . S
H3220 C3206 0.960 . S
H3221 C3207 0.961 . S
H3222 C3207 0.961 . S
H3223 C3207 0.961 . S
H3224 C3208 0.931 . S
H3225 C3213 0.930 . S
H3226 C3214 0.956 . S
H3227 C3214 0.961 . S
H3228 C3214 0.961 . S
H3229 C3215 0.958 . S
H3230 C3215 0.961 . S
H3231 C3215 0.960 . S
C3232 C3233 1.391 . S
C3232 C3234 1.394 . S
C3232 H3248 0.931 . S
C3233 C3232 1.391 . S
C3233 C3237 1.376 . S
C3234 C3232 1.394 . S
C3234 C3235 1.369 . S
C3234 C3238 1.531 . S
C3235 C3234 1.369 . S
C3235 C3236 1.410 . S
C3235 C3243 1.503 1_554 S
C3236 C3235 1.410 . S
C3236 C3237 1.392 . S
C3236 C3239 1.511 . S
C3237 C3233 1.376 . S
C3237 C3236 1.392 . S
C3237 H3249 0.929 . S
C3238 C3234 1.531 . S
C3238 H3250 1.059 . S
C3238 H3251 0.962 . S
C3238 H3252 0.960 . S
C3239 C3236 1.511 . S
C3239 H3253 0.961 . S
C3239 H3254 0.961 1_554 S
C3239 H3255 0.961 1_554 S
C3240 C3241 1.370 . S
C3240 C3242 1.363 . S
C3240 H3256 0.931 . S
C3241 C3240 1.370 . S
C3241 C3245 1.408 . S
C3242 C3240 1.363 . S
C3242 C3243 1.370 . S
C3242 C3246 1.553 . S
C3243 C3235 1.503 1_556 S
C3243 C3242 1.370 . S
C3243 C3244 1.403 . S
C3244 C3243 1.403 . S
C3244 C3245 1.404 . S
C3244 C3247 1.539 . S
C3245 C3241 1.408 . S
C3245 C3244 1.404 . S
C3245 H3257 0.930 . S
C3246 C3242 1.553 . S
C3246 H3258 0.930 1_556 S
C3246 H3259 0.941 1_556 S
C3246 H3260 0.980 . S
C3247 C3244 1.539 . S
C3247 H3261 0.958 . S
C3247 H3262 0.961 . S
C3247 H3263 0.960 . S
H3248 C3232 0.931 . S
H3249 C3237 0.929 . S
H3250 C3238 1.059 . S
H3251 C3238 0.962 . S
H3252 C3238 0.960 . S
H3253 C3239 0.961 . S
H3254 C3239 0.961 1_556 S
H3255 C3239 0.961 1_556 S
H3256 C3240 0.931 . S
H3257 C3245 0.930 . S
H3258 C3246 0.930 1_554 S
H3259 C3246 0.941 1_554 S
H3260 C3246 0.980 . S
H3261 C3247 0.958 . S
H3262 C3247 0.961 . S
H3263 C3247 0.960 . S
C3264 C3265 1.391 . S
C3264 C3266 1.394 . S
C3264 H3280 0.931 . S
C3265 C3264 1.391 . S
C3265 C3269 1.376 . S
C3266 C3264 1.394 . S
C3266 C3267 1.369 . S
C3266 C3270 1.531 . S
C3267 C3266 1.369 . S
C3267 C3268 1.410 . S
C3267 C3275 1.503 . S
C3268 C3267 1.410 . S
C3268 C3269 1.392 . S
C3268 C3271 1.511 . S
C3269 C3265 1.376 . S
C3269 C3268 1.392 . S
C3269 H3281 0.929 . S
C3270 C3266 1.531 . S
C3270 H3282 0.960 . S
C3270 H3283 0.962 . S
C3270 H3284 0.960 . S
C3271 C3268 1.511 . S
C3271 H3285 0.961 . S
C3271 H3286 0.961 . S
C3271 H3287 0.961 . S
C3272 C3273 1.370 . S
C3272 C3274 1.363 . S
C3272 H3288 0.931 . S
C3273 C3272 1.370 . S
C3273 C3277 1.408 . S
C3274 C3272 1.363 . S
C3274 C3275 1.370 . S
C3274 C3278 1.524 . S
C3275 C3267 1.503 . S
C3275 C3274 1.370 . S
C3275 C3276 1.403 . S
C3276 C3275 1.403 . S
C3276 C3277 1.404 . S
C3276 C3279 1.539 . S
C3277 C3273 1.408 . S
C3277 C3276 1.404 . S
C3277 H3289 0.930 . S
C3278 C3274 1.524 . S
C3278 H3290 0.956 . S
C3278 H3291 0.961 . S
C3278 H3292 0.961 . S
C3279 C3276 1.539 . S
C3279 H3293 0.958 . S
C3279 H3294 0.961 . S
C3279 H3295 0.960 . S
H3280 C3264 0.931 . S
H3281 C3269 0.929 . S
H3282 C3270 0.960 . S
H3283 C3270 0.962 . S
H3284 C3270 0.960 . S
H3285 C3271 0.961 . S
H3286 C3271 0.961 . S
H3287 C3271 0.961 . S
H3288 C3272 0.931 . S
H3289 C3277 0.930 . S
H3290 C3278 0.956 . S
H3291 C3278 0.961 . S
H3292 C3278 0.961 . S
H3293 C3279 0.958 . S
H3294 C3279 0.961 . S
H3295 C3279 0.960 . S
C3296 C3297 1.391 . S
C3296 C3298 1.394 . S
C3296 H3312 0.931 . S
C3297 C3296 1.391 . S
C3297 C3301 1.376 . S
C3298 C3296 1.394 . S
C3298 C3299 1.369 . S
C3298 C3302 1.531 . S
C3299 C3298 1.369 . S
C3299 C3300 1.410 . S
C3299 C3307 1.503 . S
C3300 C3299 1.410 . S
C3300 C3301 1.392 . S
C3300 C3303 1.511 . S
C3301 C3297 1.376 . S
C3301 C3300 1.392 . S
C3301 H3313 0.929 . S
C3302 C3298 1.531 . S
C3302 H3314 0.960 . S
C3302 H3315 0.962 . S
C3302 H3316 0.960 . S
C3303 C3300 1.511 . S
C3303 H3317 0.961 . S
C3303 H3318 0.961 . S
C3303 H3319 0.961 . S
C3304 C3305 1.370 . S
C3304 C3306 1.363 . S
C3304 H3320 0.931 . S
C3305 C3304 1.370 . S
C3305 C3309 1.408 . S
C3306 C3304 1.363 . S
C3306 C3307 1.370 . S
C3306 C3310 1.524 . S
C3307 C3299 1.503 . S
C3307 C3306 1.370 . S
C3307 C3308 1.403 . S
C3308 C3307 1.403 . S
C3308 C3309 1.404 . S
C3308 C3311 1.539 . S
C3309 C3305 1.408 . S
C3309 C3308 1.404 . S
C3309 H3321 0.930 . S
C3310 C3306 1.524 . S
C3310 H3322 0.956 . S
C3310 H3323 0.961 . S
C3310 H3324 0.961 . S
C3311 C3308 1.539 . S
C3311 H3325 0.958 . S
C3311 H3326 0.961 . S
C3311 H3327 0.960 . S
H3312 C3296 0.931 . S
H3313 C3301 0.929 . S
H3314 C3302 0.960 . S
H3315 C3302 0.962 . S
H3316 C3302 0.960 . S
H3317 C3303 0.961 . S
H3318 C3303 0.961 . S
H3319 C3303 0.961 . S
H3320 C3304 0.931 . S
H3321 C3309 0.930 . S
H3322 C3310 0.956 . S
H3323 C3310 0.961 . S
H3324 C3310 0.961 . S
H3325 C3311 0.958 . S
H3326 C3311 0.961 . S
H3327 C3311 0.960 . S
C3328 C3329 1.391 . S
C3328 C3330 1.394 . S
C3328 H3344 0.931 . S
C3329 C3328 1.391 . S
C3329 C3333 1.376 . S
C3330 C3328 1.394 . S
C3330 C3331 1.369 . S
C3330 C3334 1.531 . S
C3331 C3330 1.369 . S
C3331 C3332 1.410 . S
C3331 C3339 1.503 . S
C3332 C3331 1.410 . S
C3332 C3333 1.392 . S
C3332 C3335 1.511 . S
C3333 C3329 1.376 . S
C3333 C3332 1.392 . S
C3333 H3345 0.929 . S
C3334 C3330 1.531 . S
C3334 H3346 0.960 . S
C3334 H3347 0.962 . S
C3334 H3348 0.960 . S
C3335 C3332 1.511 . S
C3335 H3349 0.961 . S
C3335 H3350 0.961 . S
C3335 H3351 0.961 . S
C3336 C3337 1.370 . S
C3336 C3338 1.363 . S
C3336 H3352 0.931 . S
C3337 C3336 1.370 . S
C3337 C3341 1.408 . S
C3338 C3336 1.363 . S
C3338 C3339 1.370 . S
C3338 C3342 1.524 . S
C3339 C3331 1.503 . S
C3339 C3338 1.370 . S
C3339 C3340 1.403 . S
C3340 C3339 1.403 . S
C3340 C3341 1.404 . S
C3340 C3343 1.539 . S
C3341 C3337 1.408 . S
C3341 C3340 1.404 . S
C3341 H3353 0.930 . S
C3342 C3338 1.524 . S
C3342 H3354 0.956 . S
C3342 H3355 0.961 . S
C3342 H3356 0.961 . S
C3343 C3340 1.539 . S
C3343 H3357 0.958 . S
C3343 H3358 0.961 . S
C3343 H3359 0.960 . S
H3344 C3328 0.931 . S
H3345 C3333 0.929 . S
H3346 C3334 0.960 . S
H3347 C3334 0.962 . S
H3348 C3334 0.960 . S
H3349 C3335 0.961 . S
H3350 C3335 0.961 . S
H3351 C3335 0.961 . S
H3352 C3336 0.931 . S
H3353 C3341 0.930 . S
H3354 C3342 0.956 . S
H3355 C3342 0.961 . S
H3356 C3342 0.961 . S
H3357 C3343 0.958 . S
H3358 C3343 0.961 . S
H3359 C3343 0.960 . S
C3360 C3361 1.391 . S
C3360 C3362 1.394 . S
C3360 H3376 0.931 . S
C3361 C3360 1.391 . S
C3361 C3365 1.376 . S
C3362 C3360 1.394 . S
C3362 C3363 1.369 . S
C3362 C3366 1.531 . S
C3363 C3362 1.369 . S
C3363 C3364 1.410 . S
C3363 C3371 1.503 . S
C3364 C3363 1.410 . S
C3364 C3365 1.392 . S
C3364 C3367 1.511 . S
C3365 C3361 1.376 . S
C3365 C3364 1.392 . S
C3365 H3377 0.929 . S
C3366 C3362 1.531 . S
C3366 H3378 0.960 . S
C3366 H3379 0.962 . S
C3366 H3380 0.960 . S
C3367 C3364 1.511 . S
C3367 H3381 0.961 . S
C3367 H3382 0.961 . S
C3367 H3383 0.961 . S
C3368 C3369 1.370 . S
C3368 C3370 1.363 . S
C3368 H3384 0.931 . S
C3369 C3368 1.370 . S
C3369 C3373 1.408 . S
C3370 C3368 1.363 . S
C3370 C3371 1.370 . S
C3370 C3374 1.524 . S
C3371 C3363 1.503 . S
C3371 C3370 1.370 . S
C3371 C3372 1.403 . S
C3372 C3371 1.403 . S
C3372 C3373 1.404 . S
C3372 C3375 1.539 . S
C3373 C3369 1.408 . S
C3373 C3372 1.404 . S
C3373 H3385 0.930 . S
C3374 C3370 1.524 . S
C3374 H3386 0.956 . S
C3374 H3387 0.961 . S
C3374 H3388 0.961 . S
C3375 C3372 1.539 . S
C3375 H3389 0.958 . S
C3375 H3390 0.961 . S
C3375 H3391 0.960 . S
H3376 C3360 0.931 . S
H3377 C3365 0.929 . S
H3378 C3366 0.960 . S
H3379 C3366 0.962 . S
H3380 C3366 0.960 . S
H3381 C3367 0.961 . S
H3382 C3367 0.961 . S
H3383 C3367 0.961 . S
H3384 C3368 0.931 . S
H3385 C3373 0.930 . S
H3386 C3374 0.956 . S
H3387 C3374 0.961 . S
H3388 C3374 0.961 . S
H3389 C3375 0.958 . S
H3390 C3375 0.961 . S
H3391 C3375 0.960 . S
C3392 C3393 1.391 . S
C3392 C3394 1.394 . S
C3392 H3408 0.931 . S
C3393 C3392 1.391 . S
C3393 C3397 1.376 . S
C3394 C3392 1.394 . S
C3394 C3395 1.369 . S
C3394 C3398 1.531 . S
C3395 C3394 1.369 . S
C3395 C3396 1.410 . S
C3395 C3403 1.503 . S
C3396 C3395 1.410 . S
C3396 C3397 1.392 . S
C3396 C3399 1.511 . S
C3397 C3393 1.376 . S
C3397 C3396 1.392 . S
C3397 H3409 0.929 . S
C3398 C3394 1.531 . S
C3398 H3410 0.960 . S
C3398 H3411 0.962 . S
C3398 H3412 0.960 . S
C3399 C3396 1.511 . S
C3399 H3413 0.961 . S
C3399 H3414 0.961 . S
C3399 H3415 0.961 . S
C3400 C3401 1.370 . S
C3400 C3402 1.363 . S
C3400 H3416 0.931 . S
C3401 C3400 1.370 . S
C3401 C3405 1.408 . S
C3402 C3400 1.363 . S
C3402 C3403 1.370 . S
C3402 C3406 1.524 . S
C3403 C3395 1.503 . S
C3403 C3402 1.370 . S
C3403 C3404 1.403 . S
C3404 C3403 1.403 . S
C3404 C3405 1.404 . S
C3404 C3407 1.539 . S
C3405 C3401 1.408 . S
C3405 C3404 1.404 . S
C3405 H3417 0.930 . S
C3406 C3402 1.524 . S
C3406 H3418 0.956 . S
C3406 H3419 0.961 . S
C3406 H3420 0.961 . S
C3407 C3404 1.539 . S
C3407 H3421 0.958 . S
C3407 H3422 0.961 . S
C3407 H3423 0.960 . S
H3408 C3392 0.931 . S
H3409 C3397 0.929 . S
H3410 C3398 0.960 . S
H3411 C3398 0.962 . S
H3412 C3398 0.960 . S
H3413 C3399 0.961 . S
H3414 C3399 0.961 . S
H3415 C3399 0.961 . S
H3416 C3400 0.931 . S
H3417 C3405 0.930 . S
H3418 C3406 0.956 . S
H3419 C3406 0.961 . S
H3420 C3406 0.961 . S
H3421 C3407 0.958 . S
H3422 C3407 0.961 . S
H3423 C3407 0.960 . S
C3424 C3425 1.391 . S
C3424 C3426 1.394 . S
C3424 H3440 0.931 . S
C3425 C3424 1.391 . S
C3425 C3429 1.376 . S
C3426 C3424 1.394 . S
C3426 C3427 1.369 . S
C3426 C3430 1.531 . S
C3427 C3426 1.369 . S
C3427 C3428 1.410 . S
C3427 C3435 1.503 . S
C3428 C3427 1.410 . S
C3428 C3429 1.392 . S
C3428 C3431 1.511 . S
C3429 C3425 1.376 . S
C3429 C3428 1.392 . S
C3429 H3441 0.929 . S
C3430 C3426 1.531 . S
C3430 H3442 0.960 . S
C3430 H3443 0.962 . S
C3430 H3444 0.960 . S
C3431 C3428 1.511 . S
C3431 H3445 0.961 . S
C3431 H3446 0.961 . S
C3431 H3447 0.961 . S
C3432 C3433 1.370 . S
C3432 C3434 1.363 . S
C3432 H3448 0.931 . S
C3433 C3432 1.370 . S
C3433 C3437 1.408 . S
C3434 C3432 1.363 . S
C3434 C3435 1.370 . S
C3434 C3438 1.524 . S
C3435 C3427 1.503 . S
C3435 C3434 1.370 . S
C3435 C3436 1.403 . S
C3436 C3435 1.403 . S
C3436 C3437 1.404 . S
C3436 C3439 1.539 . S
C3437 C3433 1.408 . S
C3437 C3436 1.404 . S
C3437 H3449 0.930 . S
C3438 C3434 1.524 . S
C3438 H3450 0.956 . S
C3438 H3451 0.961 . S
C3438 H3452 0.961 . S
C3439 C3436 1.539 . S
C3439 H3453 0.958 . S
C3439 H3454 0.961 . S
C3439 H3455 0.960 . S
H3440 C3424 0.931 . S
H3441 C3429 0.929 . S
H3442 C3430 0.960 . S
H3443 C3430 0.962 . S
H3444 C3430 0.960 . S
H3445 C3431 0.961 . S
H3446 C3431 0.961 . S
H3447 C3431 0.961 . S
H3448 C3432 0.931 . S
H3449 C3437 0.930 . S
H3450 C3438 0.956 . S
H3451 C3438 0.961 . S
H3452 C3438 0.961 . S
H3453 C3439 0.958 . S
H3454 C3439 0.961 . S
H3455 C3439 0.960 . S
C3456 C3457 1.391 . S
C3456 C3458 1.394 . S
C3456 H3472 0.931 . S
C3457 C3456 1.391 . S
C3457 C3461 1.376 . S
C3458 C3456 1.394 . S
C3458 C3459 1.369 . S
C3458 C3462 1.531 . S
C3459 C3458 1.369 . S
C3459 C3460 1.410 . S
C3459 C3467 1.503 . S
C3460 C3459 1.410 . S
C3460 C3461 1.392 . S
C3460 C3463 1.511 . S
C3461 C3457 1.376 . S
C3461 C3460 1.392 . S
C3461 H3473 0.929 . S
C3462 C3458 1.531 . S
C3462 H3474 0.960 . S
C3462 H3475 0.962 . S
C3462 H3476 0.960 . S
C3463 C3460 1.511 . S
C3463 H3477 0.961 . S
C3463 H3478 0.961 . S
C3463 H3479 0.961 . S
C3464 C3465 1.370 . S
C3464 C3466 1.363 . S
C3464 H3480 0.931 . S
C3465 C3464 1.370 . S
C3465 C3469 1.408 . S
C3466 C3464 1.363 . S
C3466 C3467 1.370 . S
C3466 C3470 1.524 . S
C3467 C3459 1.503 . S
C3467 C3466 1.370 . S
C3467 C3468 1.403 . S
C3468 C3467 1.403 . S
C3468 C3469 1.404 . S
C3468 C3471 1.539 . S
C3469 C3465 1.408 . S
C3469 C3468 1.404 . S
C3469 H3481 0.930 . S
C3470 C3466 1.524 . S
C3470 H3482 0.956 . S
C3470 H3483 0.961 . S
C3470 H3484 0.961 . S
C3471 C3468 1.539 . S
C3471 H3485 0.958 . S
C3471 H3486 0.961 . S
C3471 H3487 0.960 . S
H3472 C3456 0.931 . S
H3473 C3461 0.929 . S
H3474 C3462 0.960 . S
H3475 C3462 0.962 . S
H3476 C3462 0.960 . S
H3477 C3463 0.961 . S
H3478 C3463 0.961 . S
H3479 C3463 0.961 . S
H3480 C3464 0.931 . S
H3481 C3469 0.930 . S
H3482 C3470 0.956 . S
H3483 C3470 0.961 . S
H3484 C3470 0.961 . S
H3485 C3471 0.958 . S
H3486 C3471 0.961 . S
H3487 C3471 0.960 . S
C3488 C3489 1.391 . S
C3488 C3490 1.394 . S
C3488 H3504 0.931 . S
C3489 C3488 1.391 . S
C3489 C3493 1.376 . S
C3490 C3488 1.394 . S
C3490 C3491 1.369 . S
C3490 C3494 1.531 . S
C3491 C3490 1.369 . S
C3491 C3492 1.410 . S
C3491 C3499 1.503 . S
C3492 C3491 1.410 . S
C3492 C3493 1.392 . S
C3492 C3495 1.511 . S
C3493 C3489 1.376 . S
C3493 C3492 1.392 . S
C3493 H3505 0.929 . S
C3494 C3490 1.531 . S
C3494 H3506 0.960 . S
C3494 H3507 0.962 . S
C3494 H3508 0.960 . S
C3495 C3492 1.511 . S
C3495 H3509 0.961 . S
C3495 H3510 0.961 . S
C3495 H3511 0.961 . S
C3496 C3497 1.370 . S
C3496 C3498 1.363 . S
C3496 H3512 0.931 . S
C3497 C3496 1.370 . S
C3497 C3501 1.408 . S
C3498 C3496 1.363 . S
C3498 C3499 1.370 . S
C3498 C3502 1.524 . S
C3499 C3491 1.503 . S
C3499 C3498 1.370 . S
C3499 C3500 1.403 . S
C3500 C3499 1.403 . S
C3500 C3501 1.404 . S
C3500 C3503 1.539 . S
C3501 C3497 1.408 . S
C3501 C3500 1.404 . S
C3501 H3513 0.930 . S
C3502 C3498 1.524 . S
C3502 H3514 0.956 . S
C3502 H3515 0.961 . S
C3502 H3516 0.961 . S
C3503 C3500 1.539 . S
C3503 H3517 0.958 . S
C3503 H3518 0.961 . S
C3503 H3519 0.960 . S
H3504 C3488 0.931 . S
H3505 C3493 0.929 . S
H3506 C3494 0.960 . S
H3507 C3494 0.962 . S
H3508 C3494 0.960 . S
H3509 C3495 0.961 . S
H3510 C3495 0.961 . S
H3511 C3495 0.961 . S
H3512 C3496 0.931 . S
H3513 C3501 0.930 . S
H3514 C3502 0.956 . S
H3515 C3502 0.961 . S
H3516 C3502 0.961 . S
H3517 C3503 0.958 . S
H3518 C3503 0.961 . S
H3519 C3503 0.960 . S
C3520 C3521 1.391 . S
C3520 C3522 1.394 . S
C3520 H3536 0.931 . S
C3521 C3520 1.391 . S
C3521 C3525 1.376 . S
C3522 C3520 1.394 . S
C3522 C3523 1.369 . S
C3522 C3526 1.531 . S
C3523 C3522 1.369 . S
C3523 C3524 1.410 . S
C3523 C3531 1.503 . S
C3524 C3523 1.410 . S
C3524 C3525 1.392 . S
C3524 C3527 1.511 . S
C3525 C3521 1.376 . S
C3525 C3524 1.392 . S
C3525 H3537 0.929 . S
C3526 C3522 1.531 . S
C3526 H3538 0.960 . S
C3526 H3539 0.962 . S
C3526 H3540 0.960 . S
C3527 C3524 1.511 . S
C3527 H3541 0.961 . S
C3527 H3542 0.961 . S
C3527 H3543 0.961 . S
C3528 C3529 1.370 . S
C3528 C3530 1.363 . S
C3528 H3544 0.931 . S
C3529 C3528 1.370 . S
C3529 C3533 1.408 . S
C3530 C3528 1.363 . S
C3530 C3531 1.370 . S
C3530 C3534 1.524 . S
C3531 C3523 1.503 . S
C3531 C3530 1.370 . S
C3531 C3532 1.403 . S
C3532 C3531 1.403 . S
C3532 C3533 1.404 . S
C3532 C3535 1.539 . S
C3533 C3529 1.408 . S
C3533 C3532 1.404 . S
C3533 H3545 0.930 . S
C3534 C3530 1.524 . S
C3534 H3546 0.956 . S
C3534 H3547 0.961 . S
C3534 H3548 0.961 . S
C3535 C3532 1.539 . S
C3535 H3549 0.958 . S
C3535 H3550 0.961 . S
C3535 H3551 0.960 . S
H3536 C3520 0.931 . S
H3537 C3525 0.929 . S
H3538 C3526 0.960 . S
H3539 C3526 0.962 . S
H3540 C3526 0.960 . S
H3541 C3527 0.961 . S
H3542 C3527 0.961 . S
H3543 C3527 0.961 . S
H3544 C3528 0.931 . S
H3545 C3533 0.930 . S
H3546 C3534 0.956 . S
H3547 C3534 0.961 . S
H3548 C3534 0.961 . S
H3549 C3535 0.958 . S
H3550 C3535 0.961 . S
H3551 C3535 0.960 . S
C3552 C3553 1.391 . S
C3552 C3554 1.394 . S
C3552 H3568 0.931 . S
C3553 C3552 1.391 . S
C3553 C3557 1.376 . S
C3554 C3552 1.394 . S
C3554 C3555 1.369 . S
C3554 C3558 1.531 . S
C3555 C3554 1.369 . S
C3555 C3556 1.410 . S
C3555 C3563 1.503 . S
C3556 C3555 1.410 . S
C3556 C3557 1.392 . S
C3556 C3559 1.511 . S
C3557 C3553 1.376 . S
C3557 C3556 1.392 . S
C3557 H3569 0.929 . S
C3558 C3554 1.531 . S
C3558 H3570 0.960 . S
C3558 H3571 0.962 . S
C3558 H3572 0.960 . S
C3559 C3556 1.511 . S
C3559 H3573 0.961 . S
C3559 H3574 0.961 . S
C3559 H3575 0.961 . S
C3560 C3561 1.370 . S
C3560 C3562 1.363 . S
C3560 H3576 0.931 . S
C3561 C3560 1.370 . S
C3561 C3565 1.408 . S
C3562 C3560 1.363 . S
C3562 C3563 1.370 . S
C3562 C3566 1.524 . S
C3563 C3555 1.503 . S
C3563 C3562 1.370 . S
C3563 C3564 1.403 . S
C3564 C3563 1.403 . S
C3564 C3565 1.404 . S
C3564 C3567 1.539 . S
C3565 C3561 1.408 . S
C3565 C3564 1.404 . S
C3565 H3577 0.930 . S
C3566 C3562 1.524 . S
C3566 H3578 0.956 . S
C3566 H3579 0.961 . S
C3566 H3580 0.961 . S
C3567 C3564 1.539 . S
C3567 H3581 0.958 . S
C3567 H3582 0.961 . S
C3567 H3583 0.960 . S
H3568 C3552 0.931 . S
H3569 C3557 0.929 . S
H3570 C3558 0.960 . S
H3571 C3558 0.962 . S
H3572 C3558 0.960 . S
H3573 C3559 0.961 . S
H3574 C3559 0.961 . S
H3575 C3559 0.961 . S
H3576 C3560 0.931 . S
H3577 C3565 0.930 . S
H3578 C3566 0.956 . S
H3579 C3566 0.961 . S
H3580 C3566 0.961 . S
H3581 C3567 0.958 . S
H3582 C3567 0.961 . S
H3583 C3567 0.960 . S
C3584 C3585 1.391 . S
C3584 C3586 1.394 . S
C3584 H3600 0.931 . S
C3585 C3584 1.391 . S
C3585 C3589 1.376 . S
C3586 C3584 1.394 . S
C3586 C3587 1.369 . S
C3586 C3590 1.531 . S
C3587 C3586 1.369 . S
C3587 C3588 1.410 . S
C3587 C3595 1.503 . S
C3588 C3587 1.410 . S
C3588 C3589 1.392 . S
C3588 C3591 1.511 . S
C3589 C3585 1.376 . S
C3589 C3588 1.392 . S
C3589 H3601 0.929 . S
C3590 C3586 1.531 . S
C3590 H3602 0.960 . S
C3590 H3603 0.962 . S
C3590 H3604 0.960 . S
C3591 C3588 1.511 . S
C3591 H3605 0.961 . S
C3591 H3606 0.961 . S
C3591 H3607 0.961 . S
C3592 C3593 1.370 . S
C3592 C3594 1.363 . S
C3592 H3608 0.931 . S
C3593 C3592 1.370 . S
C3593 C3597 1.408 . S
C3594 C3592 1.363 . S
C3594 C3595 1.370 . S
C3594 C3598 1.524 . S
C3595 C3587 1.503 . S
C3595 C3594 1.370 . S
C3595 C3596 1.403 . S
C3596 C3595 1.403 . S
C3596 C3597 1.404 . S
C3596 C3599 1.539 . S
C3597 C3593 1.408 . S
C3597 C3596 1.404 . S
C3597 H3609 0.930 . S
C3598 C3594 1.524 . S
C3598 H3610 0.956 . S
C3598 H3611 0.961 . S
C3598 H3612 0.961 . S
C3599 C3596 1.539 . S
C3599 H3613 0.958 . S
C3599 H3614 0.961 . S
C3599 H3615 0.960 . S
H3600 C3584 0.931 . S
H3601 C3589 0.929 . S
H3602 C3590 0.960 . S
H3603 C3590 0.962 . S
H3604 C3590 0.960 . S
H3605 C3591 0.961 . S
H3606 C3591 0.961 . S
H3607 C3591 0.961 . S
H3608 C3592 0.931 . S
H3609 C3597 0.930 . S
H3610 C3598 0.956 . S
H3611 C3598 0.961 . S
H3612 C3598 0.961 . S
H3613 C3599 0.958 . S
H3614 C3599 0.961 . S
H3615 C3599 0.960 . S
C3616 C3617 1.391 . S
C3616 C3618 1.394 . S
C3616 H3632 0.931 . S
C3617 C3616 1.391 . S
C3617 C3621 1.376 . S
C3618 C3616 1.394 . S
C3618 C3619 1.369 . S
C3618 C3622 1.531 . S
C3619 C3618 1.369 . S
C3619 C3620 1.410 . S
C3619 C3627 1.503 . S
C3620 C3619 1.410 . S
C3620 C3621 1.392 . S
C3620 C3623 1.511 . S
C3621 C3617 1.376 . S
C3621 C3620 1.392 . S
C3621 H3633 0.929 . S
C3622 C3618 1.531 . S
C3622 H3634 0.960 . S
C3622 H3635 0.962 . S
C3622 H3636 0.960 . S
C3623 C3620 1.511 . S
C3623 H3637 0.961 . S
C3623 H3638 0.961 . S
C3623 H3639 0.961 . S
C3624 C3625 1.370 . S
C3624 C3626 1.363 . S
C3624 H3640 0.931 . S
C3625 C3624 1.370 . S
C3625 C3629 1.408 . S
C3626 C3624 1.363 . S
C3626 C3627 1.370 . S
C3626 C3630 1.524 . S
C3627 C3619 1.503 . S
C3627 C3626 1.370 . S
C3627 C3628 1.403 . S
C3628 C3627 1.403 . S
C3628 C3629 1.404 . S
C3628 C3631 1.539 . S
C3629 C3625 1.408 . S
C3629 C3628 1.404 . S
C3629 H3641 0.930 . S
C3630 C3626 1.524 . S
C3630 H3642 0.956 . S
C3630 H3643 0.961 . S
C3630 H3644 0.961 . S
C3631 C3628 1.539 . S
C3631 H3645 0.958 . S
C3631 H3646 0.961 . S
C3631 H3647 0.960 . S
H3632 C3616 0.931 . S
H3633 C3621 0.929 . S
H3634 C3622 0.960 . S
H3635 C3622 0.962 . S
H3636 C3622 0.960 . S
H3637 C3623 0.961 . S
H3638 C3623 0.961 . S
H3639 C3623 0.961 . S
H3640 C3624 0.931 . S
H3641 C3629 0.930 . S
H3642 C3630 0.956 . S
H3643 C3630 0.961 . S
H3644 C3630 0.961 . S
H3645 C3631 0.958 . S
H3646 C3631 0.961 . S
H3647 C3631 0.960 . S
C3648 C3649 1.391 . S
C3648 C3650 1.394 . S
C3648 H3664 0.931 . S
C3649 C3648 1.391 . S
C3649 C3653 1.376 . S
C3650 C3648 1.394 . S
C3650 C3651 1.369 . S
C3650 C3654 1.531 . S
C3651 C3650 1.369 . S
C3651 C3652 1.410 . S
C3651 C3659 1.503 . S
C3652 C3651 1.410 . S
C3652 C3653 1.392 . S
C3652 C3655 1.511 . S
C3653 C3649 1.376 . S
C3653 C3652 1.392 . S
C3653 H3665 0.929 . S
C3654 C3650 1.531 . S
C3654 H3666 0.960 . S
C3654 H3667 0.962 . S
C3654 H3668 0.960 . S
C3655 C3652 1.511 . S
C3655 H3669 0.961 . S
C3655 H3670 0.961 . S
C3655 H3671 0.961 . S
C3656 C3657 1.370 . S
C3656 C3658 1.363 . S
C3656 H3672 0.931 . S
C3657 C3656 1.370 . S
C3657 C3661 1.408 . S
C3658 C3656 1.363 . S
C3658 C3659 1.370 . S
C3658 C3662 1.524 . S
C3659 C3651 1.503 . S
C3659 C3658 1.370 . S
C3659 C3660 1.403 . S
C3660 C3659 1.403 . S
C3660 C3661 1.404 . S
C3660 C3663 1.539 . S
C3661 C3657 1.408 . S
C3661 C3660 1.404 . S
C3661 H3673 0.930 . S
C3662 C3658 1.524 . S
C3662 H3674 0.956 . S
C3662 H3675 0.961 . S
C3662 H3676 0.961 . S
C3663 C3660 1.539 . S
C3663 H3677 0.958 . S
C3663 H3678 0.961 . S
C3663 H3679 0.960 . S
H3664 C3648 0.931 . S
H3665 C3653 0.929 . S
H3666 C3654 0.960 . S
H3667 C3654 0.962 . S
H3668 C3654 0.960 . S
H3669 C3655 0.961 . S
H3670 C3655 0.961 . S
H3671 C3655 0.961 . S
H3672 C3656 0.931 . S
H3673 C3661 0.930 . S
H3674 C3662 0.956 . S
H3675 C3662 0.961 . S
H3676 C3662 0.961 . S
H3677 C3663 0.958 . S
H3678 C3663 0.961 . S
H3679 C3663 0.960 . S
C3680 C3681 1.391 . S
C3680 C3682 1.394 . S
C3680 H3696 0.931 . S
C3681 C3680 1.391 . S
C3681 C3685 1.376 . S
C3682 C3680 1.394 . S
C3682 C3683 1.369 . S
C3682 C3686 1.531 . S
C3683 C3682 1.369 . S
C3683 C3684 1.410 . S
C3683 C3691 1.503 . S
C3684 C3683 1.410 . S
C3684 C3685 1.392 . S
C3684 C3687 1.511 . S
C3685 C3681 1.376 . S
C3685 C3684 1.392 . S
C3685 H3697 0.929 . S
C3686 C3682 1.531 . S
C3686 H3698 0.960 . S
C3686 H3699 0.962 . S
C3686 H3700 0.960 . S
C3687 C3684 1.511 . S
C3687 H3701 0.961 . S
C3687 H3702 0.961 . S
C3687 H3703 0.961 . S
C3688 C3689 1.370 . S
C3688 C3690 1.363 . S
C3688 H3704 0.931 . S
C3689 C3688 1.370 . S
C3689 C3693 1.408 . S
C3690 C3688 1.363 . S
C3690 C3691 1.370 . S
C3690 C3694 1.524 . S
C3691 C3683 1.503 . S
C3691 C3690 1.370 . S
C3691 C3692 1.403 . S
C3692 C3691 1.403 . S
C3692 C3693 1.404 . S
C3692 C3695 1.539 . S
C3693 C3689 1.408 . S
C3693 C3692 1.404 . S
C3693 H3705 0.930 . S
C3694 C3690 1.524 . S
C3694 H3706 0.956 . S
C3694 H3707 0.961 . S
C3694 H3708 0.961 . S
C3695 C3692 1.539 . S
C3695 H3709 0.958 . S
C3695 H3710 0.961 . S
C3695 H3711 0.960 . S
H3696 C3680 0.931 . S
H3697 C3685 0.929 . S
H3698 C3686 0.960 . S
H3699 C3686 0.962 . S
H3700 C3686 0.960 . S
H3701 C3687 0.961 . S
H3702 C3687 0.961 . S
H3703 C3687 0.961 . S
H3704 C3688 0.931 . S
H3705 C3693 0.930 . S
H3706 C3694 0.956 . S
H3707 C3694 0.961 . S
H3708 C3694 0.961 . S
H3709 C3695 0.958 . S
H3710 C3695 0.961 . S
H3711 C3695 0.960 . S
C3712 C3713 1.391 . S
C3712 C3714 1.394 . S
C3712 H3728 0.931 . S
C3713 C3712 1.391 . S
C3713 C3717 1.376 . S
C3714 C3712 1.394 . S
C3714 C3715 1.369 . S
C3714 C3718 1.531 . S
C3715 C3714 1.369 . S
C3715 C3716 1.410 . S
C3715 C3723 1.503 . S
C3716 C3715 1.410 . S
C3716 C3717 1.392 . S
C3716 C3719 1.511 . S
C3717 C3713 1.376 . S
C3717 C3716 1.392 . S
C3717 H3729 0.929 . S
C3718 C3714 1.531 . S
C3718 H3730 0.960 . S
C3718 H3731 0.962 . S
C3718 H3732 0.960 . S
C3719 C3716 1.511 . S
C3719 H3733 0.961 . S
C3719 H3734 0.961 . S
C3719 H3735 0.961 . S
C3720 C3721 1.370 . S
C3720 C3722 1.363 . S
C3720 H3736 0.931 . S
C3721 C3720 1.370 . S
C3721 C3725 1.408 . S
C3722 C3720 1.363 . S
C3722 C3723 1.370 . S
C3722 C3726 1.524 . S
C3723 C3715 1.503 . S
C3723 C3722 1.370 . S
C3723 C3724 1.403 . S
C3724 C3723 1.403 . S
C3724 C3725 1.404 . S
C3724 C3727 1.539 . S
C3725 C3721 1.408 . S
C3725 C3724 1.404 . S
C3725 H3737 0.930 . S
C3726 C3722 1.524 . S
C3726 H3738 0.956 . S
C3726 H3739 0.961 . S
C3726 H3740 0.961 . S
C3727 C3724 1.539 . S
C3727 H3741 0.958 . S
C3727 H3742 0.961 . S
C3727 H3743 0.960 . S
H3728 C3712 0.931 . S
H3729 C3717 0.929 . S
H3730 C3718 0.960 . S
H3731 C3718 0.962 . S
H3732 C3718 0.960 . S
H3733 C3719 0.961 . S
H3734 C3719 0.961 . S
H3735 C3719 0.961 . S
H3736 C3720 0.931 . S
H3737 C3725 0.930 . S
H3738 C3726 0.956 . S
H3739 C3726 0.961 . S
H3740 C3726 0.961 . S
H3741 C3727 0.958 . S
H3742 C3727 0.961 . S
H3743 C3727 0.960 . S
C3744 C3745 1.391 . S
C3744 C3746 1.394 . S
C3744 H3760 0.931 . S
C3745 C3744 1.391 . S
C3745 C3749 1.376 . S
C3746 C3744 1.394 . S
C3746 C3747 1.369 . S
C3746 C3750 1.531 . S
C3747 C3746 1.369 . S
C3747 C3748 1.410 . S
C3747 C3755 1.503 . S
C3748 C3747 1.410 . S
C3748 C3749 1.392 . S
C3748 C3751 1.511 . S
C3749 C3745 1.376 . S
C3749 C3748 1.392 . S
C3749 H3761 0.929 . S
C3750 C3746 1.531 . S
C3750 H3762 0.960 . S
C3750 H3763 0.962 . S
C3750 H3764 0.960 . S
C3751 C3748 1.511 . S
C3751 H3765 0.961 . S
C3751 H3766 0.961 . S
C3751 H3767 0.961 . S
C3752 C3753 1.370 . S
C3752 C3754 1.363 . S
C3752 H3768 0.931 . S
C3753 C3752 1.370 . S
C3753 C3757 1.408 . S
C3754 C3752 1.363 . S
C3754 C3755 1.370 . S
C3754 C3758 1.524 . S
C3755 C3747 1.503 . S
C3755 C3754 1.370 . S
C3755 C3756 1.403 . S
C3756 C3755 1.403 . S
C3756 C3757 1.404 . S
C3756 C3759 1.539 . S
C3757 C3753 1.408 . S
C3757 C3756 1.404 . S
C3757 H3769 0.930 . S
C3758 C3754 1.524 . S
C3758 H3770 0.956 . S
C3758 H3771 0.961 . S
C3758 H3772 0.961 . S
C3759 C3756 1.539 . S
C3759 H3773 0.958 . S
C3759 H3774 0.961 . S
C3759 H3775 0.960 . S
H3760 C3744 0.931 . S
H3761 C3749 0.929 . S
H3762 C3750 0.960 . S
H3763 C3750 0.962 . S
H3764 C3750 0.960 . S
H3765 C3751 0.961 . S
H3766 C3751 0.961 . S
H3767 C3751 0.961 . S
H3768 C3752 0.931 . S
H3769 C3757 0.930 . S
H3770 C3758 0.956 . S
H3771 C3758 0.961 . S
H3772 C3758 0.961 . S
H3773 C3759 0.958 . S
H3774 C3759 0.961 . S
H3775 C3759 0.960 . S
C3776 C3777 1.391 . S
C3776 C3778 1.394 . S
C3776 H3792 0.931 . S
C3777 C3776 1.391 . S
C3777 C3781 1.376 . S
C3778 C3776 1.394 . S
C3778 C3779 1.369 . S
C3778 C3782 1.531 . S
C3779 C3778 1.369 . S
C3779 C3780 1.410 . S
C3779 C3787 1.503 . S
C3780 C3779 1.410 . S
C3780 C3781 1.392 . S
C3780 C3783 1.511 . S
C3781 C3777 1.376 . S
C3781 C3780 1.392 . S
C3781 H3793 0.929 . S
C3782 C3778 1.531 . S
C3782 H3794 0.960 . S
C3782 H3795 0.962 . S
C3782 H3796 0.960 . S
C3783 C3780 1.511 . S
C3783 H3797 0.961 . S
C3783 H3798 0.961 . S
C3783 H3799 0.961 . S
C3784 C3785 1.370 . S
C3784 C3786 1.363 . S
C3784 H3800 0.931 . S
C3785 C3784 1.370 . S
C3785 C3789 1.408 . S
C3786 C3784 1.363 . S
C3786 C3787 1.370 . S
C3786 C3790 1.524 . S
C3787 C3779 1.503 . S
C3787 C3786 1.370 . S
C3787 C3788 1.403 . S
C3788 C3787 1.403 . S
C3788 C3789 1.404 . S
C3788 C3791 1.539 . S
C3789 C3785 1.408 . S
C3789 C3788 1.404 . S
C3789 H3801 0.930 . S
C3790 C3786 1.524 . S
C3790 H3802 0.956 . S
C3790 H3803 0.961 . S
C3790 H3804 0.961 . S
C3791 C3788 1.539 . S
C3791 H3805 0.958 . S
C3791 H3806 0.961 . S
C3791 H3807 0.960 . S
H3792 C3776 0.931 . S
H3793 C3781 0.929 . S
H3794 C3782 0.960 . S
H3795 C3782 0.962 . S
H3796 C3782 0.960 . S
H3797 C3783 0.961 . S
H3798 C3783 0.961 . S
H3799 C3783 0.961 . S
H3800 C3784 0.931 . S
H3801 C3789 0.930 . S
H3802 C3790 0.956 . S
H3803 C3790 0.961 . S
H3804 C3790 0.961 . S
H3805 C3791 0.958 . S
H3806 C3791 0.961 . S
H3807 C3791 0.960 . S
C3808 C3809 1.391 . S
C3808 C3810 1.394 . S
C3808 H3824 0.931 . S
C3809 C3808 1.391 . S
C3809 C3813 1.376 . S
C3810 C3808 1.394 . S
C3810 C3811 1.369 . S
C3810 C3814 1.531 . S
C3811 C3810 1.369 . S
C3811 C3812 1.410 . S
C3811 C3819 1.503 . S
C3812 C3811 1.410 . S
C3812 C3813 1.392 . S
C3812 C3815 1.511 . S
C3813 C3809 1.376 . S
C3813 C3812 1.392 . S
C3813 H3825 0.929 . S
C3814 C3810 1.531 . S
C3814 H3826 0.960 . S
C3814 H3827 0.962 . S
C3814 H3828 0.960 . S
C3815 C3812 1.511 . S
C3815 H3829 0.961 . S
C3815 H3830 0.961 . S
C3815 H3831 0.961 . S
C3816 C3817 1.370 . S
C3816 C3818 1.363 . S
C3816 H3832 0.931 . S
C3817 C3816 1.370 . S
C3817 C3821 1.408 . S
C3818 C3816 1.363 . S
C3818 C3819 1.370 . S
C3818 C3822 1.524 . S
C3819 C3811 1.503 . S
C3819 C3818 1.370 . S
C3819 C3820 1.403 . S
C3820 C3819 1.403 . S
C3820 C3821 1.404 . S
C3820 C3823 1.539 . S
C3821 C3817 1.408 . S
C3821 C3820 1.404 . S
C3821 H3833 0.930 . S
C3822 C3818 1.524 . S
C3822 H3834 0.956 . S
C3822 H3835 0.961 . S
C3822 H3836 0.961 . S
C3823 C3820 1.539 . S
C3823 H3837 0.958 . S
C3823 H3838 0.961 . S
C3823 H3839 0.960 . S
H3824 C3808 0.931 . S
H3825 C3813 0.929 . S
H3826 C3814 0.960 . S
H3827 C3814 0.962 . S
H3828 C3814 0.960 . S
H3829 C3815 0.961 . S
H3830 C3815 0.961 . S
H3831 C3815 0.961 . S
H3832 C3816 0.931 . S
H3833 C3821 0.930 . S
H3834 C3822 0.956 . S
H3835 C3822 0.961 . S
H3836 C3822 0.961 . S
H3837 C3823 0.958 . S
H3838 C3823 0.961 . S
H3839 C3823 0.960 . S
C3840 C3841 1.391 . S
C3840 C3842 1.394 . S
C3840 H3856 0.931 . S
C3841 C3840 1.391 . S
C3841 C3845 1.376 . S
C3842 C3840 1.394 . S
C3842 C3843 1.369 . S
C3842 C3846 1.531 . S
C3843 C3842 1.369 . S
C3843 C3844 1.410 . S
C3843 C3851 1.503 . S
C3844 C3843 1.410 . S
C3844 C3845 1.392 . S
C3844 C3847 1.511 . S
C3845 C3841 1.376 . S
C3845 C3844 1.392 . S
C3845 H3857 0.929 . S
C3846 C3842 1.531 . S
C3846 H3858 0.960 . S
C3846 H3859 0.962 . S
C3846 H3860 0.960 . S
C3847 C3844 1.511 . S
C3847 H3861 0.961 . S
C3847 H3862 0.961 . S
C3847 H3863 0.961 . S
C3848 C3849 1.370 . S
C3848 C3850 1.363 . S
C3848 H3864 0.931 . S
C3849 C3848 1.370 . S
C3849 C3853 1.408 . S
C3850 C3848 1.363 . S
C3850 C3851 1.370 . S
C3850 C3854 1.524 . S
C3851 C3843 1.503 . S
C3851 C3850 1.370 . S
C3851 C3852 1.403 . S
C3852 C3851 1.403 . S
C3852 C3853 1.404 . S
C3852 C3855 1.539 . S
C3853 C3849 1.408 . S
C3853 C3852 1.404 . S
C3853 H3865 0.930 . S
C3854 C3850 1.524 . S
C3854 H3866 0.956 . S
C3854 H3867 0.961 . S
C3854 H3868 0.961 . S
C3855 C3852 1.539 . S
C3855 H3869 0.958 . S
C3855 H3870 0.961 . S
C3855 H3871 0.960 . S
H3856 C3840 0.931 . S
H3857 C3845 0.929 . S
H3858 C3846 0.960 . S
H3859 C3846 0.962 . S
H3860 C3846 0.960 . S
H3861 C3847 0.961 . S
H3862 C3847 0.961 . S
H3863 C3847 0.961 . S
H3864 C3848 0.931 . S
H3865 C3853 0.930 . S
H3866 C3854 0.956 . S
H3867 C3854 0.961 . S
H3868 C3854 0.961 . S
H3869 C3855 0.958 . S
H3870 C3855 0.961 . S
H3871 C3855 0.960 . S
C3872 C3873 1.391 . S
C3872 C3874 1.394 . S
C3872 H3888 0.931 . S
C3873 C3872 1.391 . S
C3873 C3877 1.376 . S
C3874 C3872 1.394 . S
C3874 C3875 1.369 . S
C3874 C3878 1.531 . S
C3875 C3874 1.369 . S
C3875 C3876 1.410 . S
C3875 C3883 1.503 . S
C3876 C3875 1.410 . S
C3876 C3877 1.392 . S
C3876 C3879 1.511 . S
C3877 C3873 1.376 . S
C3877 C3876 1.392 . S
C3877 H3889 0.929 . S
C3878 C3874 1.531 . S
C3878 H3890 0.960 . S
C3878 H3891 0.962 . S
C3878 H3892 0.960 . S
C3879 C3876 1.511 . S
C3879 H3893 0.961 . S
C3879 H3894 0.961 . S
C3879 H3895 0.961 . S
C3880 C3881 1.370 . S
C3880 C3882 1.363 . S
C3880 H3896 0.931 . S
C3881 C3880 1.370 . S
C3881 C3885 1.408 . S
C3882 C3880 1.363 . S
C3882 C3883 1.370 . S
C3882 C3886 1.524 . S
C3883 C3875 1.503 . S
C3883 C3882 1.370 . S
C3883 C3884 1.403 . S
C3884 C3883 1.403 . S
C3884 C3885 1.404 . S
C3884 C3887 1.539 . S
C3885 C3881 1.408 . S
C3885 C3884 1.404 . S
C3885 H3897 0.930 . S
C3886 C3882 1.524 . S
C3886 H3898 0.956 . S
C3886 H3899 0.961 . S
C3886 H3900 0.961 . S
C3887 C3884 1.539 . S
C3887 H3901 0.958 . S
C3887 H3902 0.961 . S
C3887 H3903 0.960 . S
H3888 C3872 0.931 . S
H3889 C3877 0.929 . S
H3890 C3878 0.960 . S
H3891 C3878 0.962 . S
H3892 C3878 0.960 . S
H3893 C3879 0.961 . S
H3894 C3879 0.961 . S
H3895 C3879 0.961 . S
H3896 C3880 0.931 . S
H3897 C3885 0.930 . S
H3898 C3886 0.956 . S
H3899 C3886 0.961 . S
H3900 C3886 0.961 . S
H3901 C3887 0.958 . S
H3902 C3887 0.961 . S
H3903 C3887 0.960 . S
C3904 C3905 1.391 . S
C3904 C3906 1.394 . S
C3904 H3920 0.931 . S
C3905 C3904 1.391 . S
C3905 C3909 1.376 . S
C3906 C3904 1.394 . S
C3906 C3907 1.369 . S
C3906 C3910 1.531 . S
C3907 C3906 1.369 . S
C3907 C3908 1.410 . S
C3907 C3915 1.503 . S
C3908 C3907 1.410 . S
C3908 C3909 1.392 . S
C3908 C3911 1.511 . S
C3909 C3905 1.376 . S
C3909 C3908 1.392 . S
C3909 H3921 0.929 . S
C3910 C3906 1.531 . S
C3910 H3922 0.960 . S
C3910 H3923 0.962 . S
C3910 H3924 0.960 . S
C3911 C3908 1.511 . S
C3911 H3925 0.961 . S
C3911 H3926 0.961 . S
C3911 H3927 0.961 . S
C3912 C3913 1.370 . S
C3912 C3914 1.363 . S
C3912 H3928 0.931 . S
C3913 C3912 1.370 . S
C3913 C3917 1.408 . S
C3914 C3912 1.363 . S
C3914 C3915 1.370 . S
C3914 C3918 1.524 . S
C3915 C3907 1.503 . S
C3915 C3914 1.370 . S
C3915 C3916 1.403 . S
C3916 C3915 1.403 . S
C3916 C3917 1.404 . S
C3916 C3919 1.539 . S
C3917 C3913 1.408 . S
C3917 C3916 1.404 . S
C3917 H3929 0.930 . S
C3918 C3914 1.524 . S
C3918 H3930 0.956 . S
C3918 H3931 0.961 . S
C3918 H3932 0.961 . S
C3919 C3916 1.539 . S
C3919 H3933 0.958 . S
C3919 H3934 0.961 . S
C3919 H3935 0.960 . S
H3920 C3904 0.931 . S
H3921 C3909 0.929 . S
H3922 C3910 0.960 . S
H3923 C3910 0.962 . S
H3924 C3910 0.960 . S
H3925 C3911 0.961 . S
H3926 C3911 0.961 . S
H3927 C3911 0.961 . S
H3928 C3912 0.931 . S
H3929 C3917 0.930 . S
H3930 C3918 0.956 . S
H3931 C3918 0.961 . S
H3932 C3918 0.961 . S
H3933 C3919 0.958 . S
H3934 C3919 0.961 . S
H3935 C3919 0.960 . S
C3936 C3937 1.391 . S
C3936 C3938 1.394 . S
C3936 H3952 0.931 . S
C3937 C3936 1.391 . S
C3937 C3941 1.376 . S
C3938 C3936 1.394 . S
C3938 C3939 1.369 . S
C3938 C3942 1.531 . S
C3939 C3938 1.369 . S
C3939 C3940 1.410 . S
C3939 C3947 1.503 . S
C3940 C3939 1.410 . S
C3940 C3941 1.392 . S
C3940 C3943 1.511 . S
C3941 C3937 1.376 . S
C3941 C3940 1.392 . S
C3941 H3953 0.929 . S
C3942 C3938 1.531 . S
C3942 H3954 0.960 . S
C3942 H3955 0.962 . S
C3942 H3956 0.960 . S
C3943 C3940 1.511 . S
C3943 H3957 0.961 . S
C3943 H3958 0.961 . S
C3943 H3959 0.961 . S
C3944 C3945 1.370 . S
C3944 C3946 1.363 . S
C3944 H3960 0.931 . S
C3945 C3944 1.370 . S
C3945 C3949 1.408 . S
C3946 C3944 1.363 . S
C3946 C3947 1.370 . S
C3946 C3950 1.524 . S
C3947 C3939 1.503 . S
C3947 C3946 1.370 . S
C3947 C3948 1.403 . S
C3948 C3947 1.403 . S
C3948 C3949 1.404 . S
C3948 C3951 1.539 . S
C3949 C3945 1.408 . S
C3949 C3948 1.404 . S
C3949 H3961 0.930 . S
C3950 C3946 1.524 . S
C3950 H3962 0.956 . S
C3950 H3963 0.961 . S
C3950 H3964 0.961 . S
C3951 C3948 1.539 . S
C3951 H3965 0.958 . S
C3951 H3966 0.961 . S
C3951 H3967 0.960 . S
H3952 C3936 0.931 . S
H3953 C3941 0.929 . S
H3954 C3942 0.960 . S
H3955 C3942 0.962 . S
H3956 C3942 0.960 . S
H3957 C3943 0.961 . S
H3958 C3943 0.961 . S
H3959 C3943 0.961 . S
H3960 C3944 0.931 . S
H3961 C3949 0.930 . S
H3962 C3950 0.956 . S
H3963 C3950 0.961 . S
H3964 C3950 0.961 . S
H3965 C3951 0.958 . S
H3966 C3951 0.961 . S
H3967 C3951 0.960 . S
C3968 C3969 1.391 . S
C3968 C3970 1.394 . S
C3968 H3984 0.931 . S
C3969 C3968 1.391 . S
C3969 C3973 1.376 . S
C3970 C3968 1.394 . S
C3970 C3971 1.369 . S
C3970 C3974 1.531 . S
C3971 C3970 1.369 . S
C3971 C3972 1.410 . S
C3971 C3979 1.503 . S
C3972 C3971 1.410 . S
C3972 C3973 1.392 . S
C3972 C3975 1.511 . S
C3973 C3969 1.376 . S
C3973 C3972 1.392 . S
C3973 H3985 0.929 . S
C3974 C3970 1.531 . S
C3974 H3986 0.960 . S
C3974 H3987 0.962 . S
C3974 H3988 0.960 . S
C3975 C3972 1.511 . S
C3975 H3989 0.961 . S
C3975 H3990 0.961 . S
C3975 H3991 0.961 . S
C3976 C3977 1.370 . S
C3976 C3978 1.363 . S
C3976 H3992 0.931 . S
C3977 C3976 1.370 . S
C3977 C3981 1.408 . S
C3978 C3976 1.363 . S
C3978 C3979 1.370 . S
C3978 C3982 1.524 . S
C3979 C3971 1.503 . S
C3979 C3978 1.370 . S
C3979 C3980 1.403 . S
C3980 C3979 1.403 . S
C3980 C3981 1.404 . S
C3980 C3983 1.539 . S
C3981 C3977 1.408 . S
C3981 C3980 1.404 . S
C3981 H3993 0.930 . S
C3982 C3978 1.524 . S
C3982 H3994 0.956 . S
C3982 H3995 0.961 . S
C3982 H3996 0.961 . S
C3983 C3980 1.539 . S
C3983 H3997 0.958 . S
C3983 H3998 0.961 . S
C3983 H3999 0.960 . S
H3984 C3968 0.931 . S
H3985 C3973 0.929 . S
H3986 C3974 0.960 . S
H3987 C3974 0.962 . S
H3988 C3974 0.960 . S
H3989 C3975 0.961 . S
H3990 C3975 0.961 . S
H3991 C3975 0.961 . S
H3992 C3976 0.931 . S
H3993 C3981 0.930 . S
H3994 C3982 0.956 . S
H3995 C3982 0.961 . S
H3996 C3982 0.961 . S
H3997 C3983 0.958 . S
H3998 C3983 0.961 . S
H3999 C3983 0.960 . S
C4000 C4001 1.391 . S
C4000 C4002 1.394 . S
C4000 H4016 0.931 . S
C4001 C4000 1.391 . S
C4001 C4005 1.376 . S
C4002 C4000 1.394 . S
C4002 C4003 1.369 . S
C4002 C4006 1.531 . S
C4003 C4002 1.369 . S
C4003 C4004 1.410 . S
C4003 C4011 1.503 . S
C4004 C4003 1.410 . S
C4004 C4005 1.392 . S
C4004 C4007 1.511 . S
C4005 C4001 1.376 . S
C4005 C4004 1.392 . S
C4005 H4017 0.929 . S
C4006 C4002 1.531 . S
C4006 H4018 0.960 . S
C4006 H4019 0.962 . S
C4006 H4020 0.960 . S
C4007 C4004 1.511 . S
C4007 H4021 0.961 . S
C4007 H4022 0.961 . S
C4007 H4023 0.961 . S
C4008 C4009 1.370 . S
C4008 C4010 1.363 . S
C4008 H4024 0.931 . S
C4009 C4008 1.370 . S
C4009 C4013 1.408 . S
C4010 C4008 1.363 . S
C4010 C4011 1.370 . S
C4010 C4014 1.524 . S
C4011 C4003 1.503 . S
C4011 C4010 1.370 . S
C4011 C4012 1.403 . S
C4012 C4011 1.403 . S
C4012 C4013 1.404 . S
C4012 C4015 1.539 . S
C4013 C4009 1.408 . S
C4013 C4012 1.404 . S
C4013 H4025 0.930 . S
C4014 C4010 1.524 . S
C4014 H4026 0.956 . S
C4014 H4027 0.961 . S
C4014 H4028 0.961 . S
C4015 C4012 1.539 . S
C4015 H4029 0.958 . S
C4015 H4030 0.961 . S
C4015 H4031 0.960 . S
H4016 C4000 0.931 . S
H4017 C4005 0.929 . S
H4018 C4006 0.960 . S
H4019 C4006 0.962 . S
H4020 C4006 0.960 . S
H4021 C4007 0.961 . S
H4022 C4007 0.961 . S
H4023 C4007 0.961 . S
H4024 C4008 0.931 . S
H4025 C4013 0.930 . S
H4026 C4014 0.956 . S
H4027 C4014 0.961 . S
H4028 C4014 0.961 . S
H4029 C4015 0.958 . S
H4030 C4015 0.961 . S
H4031 C4015 0.960 . S
C4032 C4033 1.391 . S
C4032 C4034 1.394 . S
C4032 H4048 0.931 . S
C4033 C4032 1.391 . S
C4033 C4037 1.376 . S
C4034 C4032 1.394 . S
C4034 C4035 1.369 . S
C4034 C4038 1.531 . S
C4035 C4034 1.369 . S
C4035 C4036 1.410 . S
C4035 C4043 1.503 . S
C4036 C4035 1.410 . S
C4036 C4037 1.392 . S
C4036 C4039 1.511 . S
C4037 C4033 1.376 . S
C4037 C4036 1.392 . S
C4037 H4049 0.929 . S
C4038 C4034 1.531 . S
C4038 H4050 0.960 . S
C4038 H4051 0.962 . S
C4038 H4052 0.960 . S
C4039 C4036 1.511 . S
C4039 H4053 0.961 . S
C4039 H4054 0.961 . S
C4039 H4055 0.961 . S
C4040 C4041 1.370 . S
C4040 C4042 1.363 . S
C4040 H4056 0.931 . S
C4041 C4040 1.370 . S
C4041 C4045 1.408 . S
C4042 C4040 1.363 . S
C4042 C4043 1.370 . S
C4042 C4046 1.524 . S
C4043 C4035 1.503 . S
C4043 C4042 1.370 . S
C4043 C4044 1.403 . S
C4044 C4043 1.403 . S
C4044 C4045 1.404 . S
C4044 C4047 1.539 . S
C4045 C4041 1.408 . S
C4045 C4044 1.404 . S
C4045 H4057 0.930 . S
C4046 C4042 1.524 . S
C4046 H4058 0.956 . S
C4046 H4059 0.961 . S
C4046 H4060 0.961 . S
C4047 C4044 1.539 . S
C4047 H4061 0.958 . S
C4047 H4062 0.961 . S
C4047 H4063 0.960 . S
H4048 C4032 0.931 . S
H4049 C4037 0.929 . S
H4050 C4038 0.960 . S
H4051 C4038 0.962 . S
H4052 C4038 0.960 . S
H4053 C4039 0.961 . S
H4054 C4039 0.961 . S
H4055 C4039 0.961 . S
H4056 C4040 0.931 . S
H4057 C4045 0.930 . S
H4058 C4046 0.956 . S
H4059 C4046 0.961 . S
H4060 C4046 0.961 . S
H4061 C4047 0.958 . S
H4062 C4047 0.961 . S
H4063 C4047 0.960 . S
C4064 C4065 1.391 . S
C4064 C4066 1.394 . S
C4064 H4080 0.931 . S
C4065 C4064 1.391 . S
C4065 C4069 1.376 . S
C4066 C4064 1.394 . S
C4066 C4067 1.369 . S
C4066 C4070 1.531 . S
C4067 C4066 1.369 . S
C4067 C4068 1.410 . S
C4067 C4075 1.503 . S
C4068 C4067 1.410 . S
C4068 C4069 1.392 . S
C4068 C4071 1.511 . S
C4069 C4065 1.376 . S
C4069 C4068 1.392 . S
C4069 H4081 0.929 . S
C4070 C4066 1.531 . S
C4070 H4082 0.960 . S
C4070 H4083 0.962 . S
C4070 H4084 0.960 . S
C4071 C4068 1.511 . S
C4071 H4085 0.961 . S
C4071 H4086 0.961 . S
C4071 H4087 0.961 . S
C4072 C4073 1.370 . S
C4072 C4074 1.363 . S
C4072 H4088 0.931 . S
C4073 C4072 1.370 . S
C4073 C4077 1.408 . S
C4074 C4072 1.363 . S
C4074 C4075 1.370 . S
C4074 C4078 1.524 . S
C4075 C4067 1.503 . S
C4075 C4074 1.370 . S
C4075 C4076 1.403 . S
C4076 C4075 1.403 . S
C4076 C4077 1.404 . S
C4076 C4079 1.539 . S
C4077 C4073 1.408 . S
C4077 C4076 1.404 . S
C4077 H4089 0.930 . S
C4078 C4074 1.524 . S
C4078 H4090 0.956 . S
C4078 H4091 0.961 . S
C4078 H4092 0.961 . S
C4079 C4076 1.539 . S
C4079 H4093 0.958 . S
C4079 H4094 0.961 . S
C4079 H4095 0.960 . S
H4080 C4064 0.931 . S
H4081 C4069 0.929 . S
H4082 C4070 0.960 . S
H4083 C4070 0.962 . S
H4084 C4070 0.960 . S
H4085 C4071 0.961 . S
H4086 C4071 0.961 . S
H4087 C4071 0.961 . S
H4088 C4072 0.931 . S
H4089 C4077 0.930 . S
H4090 C4078 0.956 . S
H4091 C4078 0.961 . S
H4092 C4078 0.961 . S
H4093 C4079 0.958 . S
H4094 C4079 0.961 . S
H4095 C4079 0.960 . S
C4096 C4097 1.391 . S
C4096 C4098 1.394 . S
C4096 H4112 0.931 . S
C4097 C4096 1.391 . S
C4097 C4101 1.376 . S
C4098 C4096 1.394 . S
C4098 C4099 1.369 . S
C4098 C4102 1.531 . S
C4099 C4098 1.369 . S
C4099 C4100 1.410 . S
C4099 C4107 1.503 . S
C4100 C4099 1.410 . S
C4100 C4101 1.392 . S
C4100 C4103 1.511 . S
C4101 C4097 1.376 . S
C4101 C4100 1.392 . S
C4101 H4113 0.929 . S
C4102 C4098 1.531 . S
C4102 H4114 0.960 . S
C4102 H4115 0.962 . S
C4102 H4116 0.960 . S
C4103 C4100 1.511 . S
C4103 H4117 0.961 . S
C4103 H4118 0.961 . S
C4103 H4119 0.961 . S
C4104 C4105 1.370 . S
C4104 C4106 1.363 . S
C4104 H4120 0.931 . S
C4105 C4104 1.370 . S
C4105 C4109 1.408 . S
C4106 C4104 1.363 . S
C4106 C4107 1.370 . S
C4106 C4110 1.524 . S
C4107 C4099 1.503 . S
C4107 C4106 1.370 . S
C4107 C4108 1.403 . S
C4108 C4107 1.403 . S
C4108 C4109 1.404 . S
C4108 C4111 1.539 . S
C4109 C4105 1.408 . S
C4109 C4108 1.404 . S
C4109 H4121 0.930 . S
C4110 C4106 1.524 . S
C4110 H4122 0.956 . S
C4110 H4123 0.961 . S
C4110 H4124 0.961 . S
C4111 C4108 1.539 . S
C4111 H4125 0.958 . S
C4111 H4126 0.961 . S
C4111 H4127 0.960 . S
H4112 C4096 0.931 . S
H4113 C4101 0.929 . S
H4114 C4102 0.960 . S
H4115 C4102 0.962 . S
H4116 C4102 0.960 . S
H4117 C4103 0.961 . S
H4118 C4103 0.961 . S
H4119 C4103 0.961 . S
H4120 C4104 0.931 . S
H4121 C4109 0.930 . S
H4122 C4110 0.956 . S
H4123 C4110 0.961 . S
H4124 C4110 0.961 . S
H4125 C4111 0.958 . S
H4126 C4111 0.961 . S
H4127 C4111 0.960 . S
C4128 C4129 1.391 . S
C4128 C4130 1.394 . S
C4128 H4144 0.931 . S
C4129 C4128 1.391 . S
C4129 C4133 1.376 . S
C4130 C4128 1.394 . S
C4130 C4131 1.369 . S
C4130 C4134 1.531 . S
C4131 C4130 1.369 . S
C4131 C4132 1.410 . S
C4131 C4139 1.503 . S
C4132 C4131 1.410 . S
C4132 C4133 1.392 . S
C4132 C4135 1.511 . S
C4133 C4129 1.376 . S
C4133 C4132 1.392 . S
C4133 H4145 0.929 . S
C4134 C4130 1.531 . S
C4134 H4146 0.960 . S
C4134 H4147 0.962 . S
C4134 H4148 0.960 . S
C4135 C4132 1.511 . S
C4135 H4149 0.961 . S
C4135 H4150 0.961 . S
C4135 H4151 0.961 . S
C4136 C4137 1.370 . S
C4136 C4138 1.363 . S
C4136 H4152 0.931 . S
C4137 C4136 1.370 . S
C4137 C4141 1.408 . S
C4138 C4136 1.363 . S
C4138 C4139 1.370 . S
C4138 C4142 1.524 . S
C4139 C4131 1.503 . S
C4139 C4138 1.370 . S
C4139 C4140 1.403 . S
C4140 C4139 1.403 . S
C4140 C4141 1.404 . S
C4140 C4143 1.539 . S
C4141 C4137 1.408 . S
C4141 C4140 1.404 . S
C4141 H4153 0.930 . S
C4142 C4138 1.524 . S
C4142 H4154 0.956 . S
C4142 H4155 0.961 . S
C4142 H4156 0.961 . S
C4143 C4140 1.539 . S
C4143 H4157 0.958 . S
C4143 H4158 0.961 . S
C4143 H4159 0.960 . S
H4144 C4128 0.931 . S
H4145 C4133 0.929 . S
H4146 C4134 0.960 . S
H4147 C4134 0.962 . S
H4148 C4134 0.960 . S
H4149 C4135 0.961 . S
H4150 C4135 0.961 . S
H4151 C4135 0.961 . S
H4152 C4136 0.931 . S
H4153 C4141 0.930 . S
H4154 C4142 0.956 . S
H4155 C4142 0.961 . S
H4156 C4142 0.961 . S
H4157 C4143 0.958 . S
H4158 C4143 0.961 . S
H4159 C4143 0.960 . S
C4160 C4161 1.391 . S
C4160 C4162 1.394 . S
C4160 H4176 0.931 . S
C4161 C4160 1.391 . S
C4161 C4165 1.376 . S
C4162 C4160 1.394 . S
C4162 C4163 1.369 . S
C4162 C4166 1.531 . S
C4163 C4162 1.369 . S
C4163 C4164 1.410 . S
C4163 C4171 1.503 . S
C4164 C4163 1.410 . S
C4164 C4165 1.392 . S
C4164 C4167 1.511 . S
C4165 C4161 1.376 . S
C4165 C4164 1.392 . S
C4165 H4177 0.929 . S
C4166 C4162 1.531 . S
C4166 H4178 0.960 . S
C4166 H4179 0.962 . S
C4166 H4180 0.960 . S
C4167 C4164 1.511 . S
C4167 H4181 0.961 . S
C4167 H4182 0.961 . S
C4167 H4183 0.961 . S
C4168 C4169 1.370 . S
C4168 C4170 1.363 . S
C4168 H4184 0.931 . S
C4169 C4168 1.370 . S
C4169 C4173 1.408 . S
C4170 C4168 1.363 . S
C4170 C4171 1.370 . S
C4170 C4174 1.524 . S
C4171 C4163 1.503 . S
C4171 C4170 1.370 . S
C4171 C4172 1.403 . S
C4172 C4171 1.403 . S
C4172 C4173 1.404 . S
C4172 C4175 1.539 . S
C4173 C4169 1.408 . S
C4173 C4172 1.404 . S
C4173 H4185 0.930 . S
C4174 C4170 1.524 . S
C4174 H4186 0.956 . S
C4174 H4187 0.961 . S
C4174 H4188 0.961 . S
C4175 C4172 1.539 . S
C4175 H4189 0.958 . S
C4175 H4190 0.961 . S
C4175 H4191 0.960 . S
H4176 C4160 0.931 . S
H4177 C4165 0.929 . S
H4178 C4166 0.960 . S
H4179 C4166 0.962 . S
H4180 C4166 0.960 . S
H4181 C4167 0.961 . S
H4182 C4167 0.961 . S
H4183 C4167 0.961 . S
H4184 C4168 0.931 . S
H4185 C4173 0.930 . S
H4186 C4174 0.956 . S
H4187 C4174 0.961 . S
H4188 C4174 0.961 . S
H4189 C4175 0.958 . S
H4190 C4175 0.961 . S
H4191 C4175 0.960 . S
C4192 C4193 1.391 . S
C4192 C4194 1.394 . S
C4192 H4208 0.931 . S
C4193 C4192 1.391 . S
C4193 C4197 1.376 . S
C4194 C4192 1.394 . S
C4194 C4195 1.369 . S
C4194 C4198 1.531 . S
C4195 C4194 1.369 . S
C4195 C4196 1.410 . S
C4195 C4203 1.503 . S
C4196 C4195 1.410 . S
C4196 C4197 1.392 . S
C4196 C4199 1.511 . S
C4197 C4193 1.376 . S
C4197 C4196 1.392 . S
C4197 H4209 0.929 . S
C4198 C4194 1.531 . S
C4198 H4210 0.960 . S
C4198 H4211 0.962 . S
C4198 H4212 0.960 . S
C4199 C4196 1.511 . S
C4199 H4213 0.961 . S
C4199 H4214 0.961 . S
C4199 H4215 0.961 . S
C4200 C4201 1.370 . S
C4200 C4202 1.363 . S
C4200 H4216 0.931 . S
C4201 C4200 1.370 . S
C4201 C4205 1.408 . S
C4202 C4200 1.363 . S
C4202 C4203 1.370 . S
C4202 C4206 1.524 . S
C4203 C4195 1.503 . S
C4203 C4202 1.370 . S
C4203 C4204 1.403 . S
C4204 C4203 1.403 . S
C4204 C4205 1.404 . S
C4204 C4207 1.539 . S
C4205 C4201 1.408 . S
C4205 C4204 1.404 . S
C4205 H4217 0.930 . S
C4206 C4202 1.524 . S
C4206 H4218 0.956 . S
C4206 H4219 0.961 . S
C4206 H4220 0.961 . S
C4207 C4204 1.539 . S
C4207 H4221 0.958 . S
C4207 H4222 0.961 . S
C4207 H4223 0.960 . S
H4208 C4192 0.931 . S
H4209 C4197 0.929 . S
H4210 C4198 0.960 . S
H4211 C4198 0.962 . S
H4212 C4198 0.960 . S
H4213 C4199 0.961 . S
H4214 C4199 0.961 . S
H4215 C4199 0.961 . S
H4216 C4200 0.931 . S
H4217 C4205 0.930 . S
H4218 C4206 0.956 . S
H4219 C4206 0.961 . S
H4220 C4206 0.961 . S
H4221 C4207 0.958 . S
H4222 C4207 0.961 . S
H4223 C4207 0.960 . S
C4224 C4225 1.391 . S
C4224 C4226 1.394 . S
C4224 H4240 0.931 . S
C4225 C4224 1.391 . S
C4225 C4229 1.376 . S
C4226 C4224 1.394 . S
C4226 C4227 1.369 . S
C4226 C4230 1.531 . S
C4227 C4226 1.369 . S
C4227 C4228 1.410 . S
C4227 C4235 1.503 . S
C4228 C4227 1.410 . S
C4228 C4229 1.392 . S
C4228 C4231 1.511 . S
C4229 C4225 1.376 . S
C4229 C4228 1.392 . S
C4229 H4241 0.929 . S
C4230 C4226 1.531 . S
C4230 H4242 0.960 . S
C4230 H4243 0.962 . S
C4230 H4244 0.960 . S
C4231 C4228 1.511 . S
C4231 H4245 0.961 . S
C4231 H4246 0.961 . S
C4231 H4247 0.961 . S
C4232 C4233 1.370 . S
C4232 C4234 1.363 . S
C4232 H4248 0.931 . S
C4233 C4232 1.370 . S
C4233 C4237 1.408 . S
C4234 C4232 1.363 . S
C4234 C4235 1.370 . S
C4234 C4238 1.524 . S
C4235 C4227 1.503 . S
C4235 C4234 1.370 . S
C4235 C4236 1.403 . S
C4236 C4235 1.403 . S
C4236 C4237 1.404 . S
C4236 C4239 1.539 . S
C4237 C4233 1.408 . S
C4237 C4236 1.404 . S
C4237 H4249 0.930 . S
C4238 C4234 1.524 . S
C4238 H4250 0.956 . S
C4238 H4251 0.961 . S
C4238 H4252 0.961 . S
C4239 C4236 1.539 . S
C4239 H4253 0.958 . S
C4239 H4254 0.961 . S
C4239 H4255 0.960 . S
H4240 C4224 0.931 . S
H4241 C4229 0.929 . S
H4242 C4230 0.960 . S
H4243 C4230 0.962 . S
H4244 C4230 0.960 . S
H4245 C4231 0.961 . S
H4246 C4231 0.961 . S
H4247 C4231 0.961 . S
H4248 C4232 0.931 . S
H4249 C4237 0.930 . S
H4250 C4238 0.956 . S
H4251 C4238 0.961 . S
H4252 C4238 0.961 . S
H4253 C4239 0.958 . S
H4254 C4239 0.961 . S
H4255 C4239 0.960 . S
C4256 C4257 1.391 . S
C4256 C4258 1.394 . S
C4256 H4272 0.931 . S
C4257 C4256 1.391 . S
C4257 C4261 1.376 . S
C4258 C4256 1.394 . S
C4258 C4259 1.369 . S
C4258 C4262 1.531 . S
C4259 C4258 1.369 . S
C4259 C4260 1.410 . S
C4259 C4267 1.503 . S
C4260 C4259 1.410 . S
C4260 C4261 1.392 . S
C4260 C4263 1.511 . S
C4261 C4257 1.376 . S
C4261 C4260 1.392 . S
C4261 H4273 0.929 . S
C4262 C4258 1.531 . S
C4262 H4274 0.960 . S
C4262 H4275 0.962 . S
C4262 H4276 0.960 . S
C4263 C4260 1.511 . S
C4263 H4277 0.961 . S
C4263 H4278 0.961 . S
C4263 H4279 0.961 . S
C4264 C4265 1.370 . S
C4264 C4266 1.363 . S
C4264 H4280 0.931 . S
C4265 C4264 1.370 . S
C4265 C4269 1.408 . S
C4266 C4264 1.363 . S
C4266 C4267 1.370 . S
C4266 C4270 1.524 . S
C4267 C4259 1.503 . S
C4267 C4266 1.370 . S
C4267 C4268 1.403 . S
C4268 C4267 1.403 . S
C4268 C4269 1.404 . S
C4268 C4271 1.539 . S
C4269 C4265 1.408 . S
C4269 C4268 1.404 . S
C4269 H4281 0.930 . S
C4270 C4266 1.524 . S
C4270 H4282 0.956 . S
C4270 H4283 0.961 . S
C4270 H4284 0.961 . S
C4271 C4268 1.539 . S
C4271 H4285 0.958 . S
C4271 H4286 0.961 . S
C4271 H4287 0.960 . S
H4272 C4256 0.931 . S
H4273 C4261 0.929 . S
H4274 C4262 0.960 . S
H4275 C4262 0.962 . S
H4276 C4262 0.960 . S
H4277 C4263 0.961 . S
H4278 C4263 0.961 . S
H4279 C4263 0.961 . S
H4280 C4264 0.931 . S
H4281 C4269 0.930 . S
H4282 C4270 0.956 . S
H4283 C4270 0.961 . S
H4284 C4270 0.961 . S
H4285 C4271 0.958 . S
H4286 C4271 0.961 . S
H4287 C4271 0.960 . S
C4288 C4289 1.391 . S
C4288 C4290 1.394 . S
C4288 H4304 0.931 . S
C4289 C4288 1.391 . S
C4289 C4293 1.376 . S
C4290 C4288 1.394 . S
C4290 C4291 1.369 . S
C4290 C4294 1.531 . S
C4291 C4290 1.369 . S
C4291 C4292 1.410 . S
C4291 C4299 1.503 . S
C4292 C4291 1.410 . S
C4292 C4293 1.392 . S
C4292 C4295 1.511 . S
C4293 C4289 1.376 . S
C4293 C4292 1.392 . S
C4293 H4305 0.929 . S
C4294 C4290 1.531 . S
C4294 H4306 0.960 . S
C4294 H4307 0.962 . S
C4294 H4308 0.960 . S
C4295 C4292 1.511 . S
C4295 H4309 0.961 . S
C4295 H4310 0.961 . S
C4295 H4311 0.961 . S
C4296 C4297 1.370 . S
C4296 C4298 1.363 . S
C4296 H4312 0.931 . S
C4297 C4296 1.370 . S
C4297 C4301 1.408 . S
C4298 C4296 1.363 . S
C4298 C4299 1.370 . S
C4298 C4302 1.524 . S
C4299 C4291 1.503 . S
C4299 C4298 1.370 . S
C4299 C4300 1.403 . S
C4300 C4299 1.403 . S
C4300 C4301 1.404 . S
C4300 C4303 1.539 . S
C4301 C4297 1.408 . S
C4301 C4300 1.404 . S
C4301 H4313 0.930 . S
C4302 C4298 1.524 . S
C4302 H4314 0.956 . S
C4302 H4315 0.961 . S
C4302 H4316 0.961 . S
C4303 C4300 1.539 . S
C4303 H4317 0.958 . S
C4303 H4318 0.961 . S
C4303 H4319 0.960 . S
H4304 C4288 0.931 . S
H4305 C4293 0.929 . S
H4306 C4294 0.960 . S
H4307 C4294 0.962 . S
H4308 C4294 0.960 . S
H4309 C4295 0.961 . S
H4310 C4295 0.961 . S
H4311 C4295 0.961 . S
H4312 C4296 0.931 . S
H4313 C4301 0.930 . S
H4314 C4302 0.956 . S
H4315 C4302 0.961 . S
H4316 C4302 0.961 . S
H4317 C4303 0.958 . S
H4318 C4303 0.961 . S
H4319 C4303 0.960 . S
C4320 C4321 1.391 . S
C4320 C4322 1.394 . S
C4320 H4336 0.931 . S
C4321 C4320 1.391 . S
C4321 C4325 1.376 . S
C4322 C4320 1.394 . S
C4322 C4323 1.369 . S
C4322 C4326 1.531 . S
C4323 C4322 1.369 . S
C4323 C4324 1.410 . S
C4323 C4331 1.503 . S
C4324 C4323 1.410 . S
C4324 C4325 1.392 . S
C4324 C4327 1.511 . S
C4325 C4321 1.376 . S
C4325 C4324 1.392 . S
C4325 H4337 0.929 . S
C4326 C4322 1.531 . S
C4326 H4338 0.960 . S
C4326 H4339 0.962 . S
C4326 H4340 0.960 . S
C4327 C4324 1.511 . S
C4327 H4341 0.961 . S
C4327 H4342 0.961 . S
C4327 H4343 0.961 . S
C4328 C4329 1.370 . S
C4328 C4330 1.363 . S
C4328 H4344 0.931 . S
C4329 C4328 1.370 . S
C4329 C4333 1.408 . S
C4330 C4328 1.363 . S
C4330 C4331 1.370 . S
C4330 C4334 1.524 . S
C4331 C4323 1.503 . S
C4331 C4330 1.370 . S
C4331 C4332 1.403 . S
C4332 C4331 1.403 . S
C4332 C4333 1.404 . S
C4332 C4335 1.539 . S
C4333 C4329 1.408 . S
C4333 C4332 1.404 . S
C4333 H4345 0.930 . S
C4334 C4330 1.524 . S
C4334 H4346 0.956 . S
C4334 H4347 0.961 . S
C4334 H4348 0.961 . S
C4335 C4332 1.539 . S
C4335 H4349 0.958 . S
C4335 H4350 0.961 . S
C4335 H4351 0.960 . S
H4336 C4320 0.931 . S
H4337 C4325 0.929 . S
H4338 C4326 0.960 . S
H4339 C4326 0.962 . S
H4340 C4326 0.960 . S
H4341 C4327 0.961 . S
H4342 C4327 0.961 . S
H4343 C4327 0.961 . S
H4344 C4328 0.931 . S
H4345 C4333 0.930 . S
H4346 C4334 0.956 . S
H4347 C4334 0.961 . S
H4348 C4334 0.961 . S
H4349 C4335 0.958 . S
H4350 C4335 0.961 . S
H4351 C4335 0.960 . S
C4352 C4353 1.391 . S
C4352 C4354 1.394 . S
C4352 H4368 0.931 . S
C4353 C4352 1.391 . S
C4353 C4357 1.376 . S
C4354 C4352 1.394 . S
C4354 C4355 1.369 . S
C4354 C4358 1.531 . S
C4355 C4354 1.369 . S
C4355 C4356 1.410 . S
C4355 C4363 1.503 . S
C4356 C4355 1.410 . S
C4356 C4357 1.392 . S
C4356 C4359 1.511 . S
C4357 C4353 1.376 . S
C4357 C4356 1.392 . S
C4357 H4369 0.929 . S
C4358 C4354 1.531 . S
C4358 H4370 0.960 . S
C4358 H4371 0.962 . S
C4358 H4372 0.960 . S
C4359 C4356 1.511 . S
C4359 H4373 0.961 . S
C4359 H4374 0.961 . S
C4359 H4375 0.961 . S
C4360 C4361 1.370 . S
C4360 C4362 1.363 . S
C4360 H4376 0.931 . S
C4361 C4360 1.370 . S
C4361 C4365 1.408 . S
C4362 C4360 1.363 . S
C4362 C4363 1.370 . S
C4362 C4366 1.524 . S
C4363 C4355 1.503 . S
C4363 C4362 1.370 . S
C4363 C4364 1.403 . S
C4364 C4363 1.403 . S
C4364 C4365 1.404 . S
C4364 C4367 1.539 . S
C4365 C4361 1.408 . S
C4365 C4364 1.404 . S
C4365 H4377 0.930 . S
C4366 C4362 1.524 . S
C4366 H4378 0.956 . S
C4366 H4379 0.961 . S
C4366 H4380 0.961 . S
C4367 C4364 1.539 . S
C4367 H4381 0.958 . S
C4367 H4382 0.961 . S
C4367 H4383 0.960 . S
H4368 C4352 0.931 . S
H4369 C4357 0.929 . S
H4370 C4358 0.960 . S
H4371 C4358 0.962 . S
H4372 C4358 0.960 . S
H4373 C4359 0.961 . S
H4374 C4359 0.961 . S
H4375 C4359 0.961 . S
H4376 C4360 0.931 . S
H4377 C4365 0.930 . S
H4378 C4366 0.956 . S
H4379 C4366 0.961 . S
H4380 C4366 0.961 . S
H4381 C4367 0.958 . S
H4382 C4367 0.961 . S
H4383 C4367 0.960 . S
C4384 C4385 1.391 . S
C4384 C4386 1.394 . S
C4384 H4400 0.931 . S
C4385 C4384 1.391 . S
C4385 C4389 1.376 . S
C4386 C4384 1.394 . S
C4386 C4387 1.369 . S
C4386 C4390 1.531 . S
C4387 C4386 1.369 . S
C4387 C4388 1.410 . S
C4387 C4395 1.503 . S
C4388 C4387 1.410 . S
C4388 C4389 1.392 . S
C4388 C4391 1.511 . S
C4389 C4385 1.376 . S
C4389 C4388 1.392 . S
C4389 H4401 0.929 . S
C4390 C4386 1.531 . S
C4390 H4402 0.960 . S
C4390 H4403 0.962 . S
C4390 H4404 0.960 . S
C4391 C4388 1.511 . S
C4391 H4405 0.961 . S
C4391 H4406 0.961 . S
C4391 H4407 0.961 . S
C4392 C4393 1.370 . S
C4392 C4394 1.363 . S
C4392 H4408 0.931 . S
C4393 C4392 1.370 . S
C4393 C4397 1.408 . S
C4394 C4392 1.363 . S
C4394 C4395 1.370 . S
C4394 C4398 1.524 . S
C4395 C4387 1.503 . S
C4395 C4394 1.370 . S
C4395 C4396 1.403 . S
C4396 C4395 1.403 . S
C4396 C4397 1.404 . S
C4396 C4399 1.539 . S
C4397 C4393 1.408 . S
C4397 C4396 1.404 . S
C4397 H4409 0.930 . S
C4398 C4394 1.524 . S
C4398 H4410 0.956 . S
C4398 H4411 0.961 . S
C4398 H4412 0.961 . S
C4399 C4396 1.539 . S
C4399 H4413 0.958 . S
C4399 H4414 0.961 . S
C4399 H4415 0.960 . S
H4400 C4384 0.931 . S
H4401 C4389 0.929 . S
H4402 C4390 0.960 . S
H4403 C4390 0.962 . S
H4404 C4390 0.960 . S
H4405 C4391 0.961 . S
H4406 C4391 0.961 . S
H4407 C4391 0.961 . S
H4408 C4392 0.931 . S
H4409 C4397 0.930 . S
H4410 C4398 0.956 . S
H4411 C4398 0.961 . S
H4412 C4398 0.961 . S
H4413 C4399 0.958 . S
H4414 C4399 0.961 . S
H4415 C4399 0.960 . S
C4416 C4417 1.391 . S
C4416 C4418 1.394 . S
C4416 H4432 0.931 . S
C4417 C4416 1.391 . S
C4417 C4421 1.376 . S
C4418 C4416 1.394 . S
C4418 C4419 1.369 . S
C4418 C4422 1.531 . S
C4419 C4418 1.369 . S
C4419 C4420 1.410 . S
C4419 C4427 1.503 . S
C4420 C4419 1.410 . S
C4420 C4421 1.392 . S
C4420 C4423 1.511 . S
C4421 C4417 1.376 . S
C4421 C4420 1.392 . S
C4421 H4433 0.929 . S
C4422 C4418 1.531 . S
C4422 H4434 0.960 . S
C4422 H4435 0.962 . S
C4422 H4436 0.960 . S
C4423 C4420 1.511 . S
C4423 H4437 0.961 . S
C4423 H4438 0.961 . S
C4423 H4439 0.961 . S
C4424 C4425 1.370 . S
C4424 C4426 1.363 . S
C4424 H4440 0.931 . S
C4425 C4424 1.370 . S
C4425 C4429 1.408 . S
C4426 C4424 1.363 . S
C4426 C4427 1.370 . S
C4426 C4430 1.524 . S
C4427 C4419 1.503 . S
C4427 C4426 1.370 . S
C4427 C4428 1.403 . S
C4428 C4427 1.403 . S
C4428 C4429 1.404 . S
C4428 C4431 1.539 . S
C4429 C4425 1.408 . S
C4429 C4428 1.404 . S
C4429 H4441 0.930 . S
C4430 C4426 1.524 . S
C4430 H4442 0.956 . S
C4430 H4443 0.961 . S
C4430 H4444 0.961 . S
C4431 C4428 1.539 . S
C4431 H4445 0.958 . S
C4431 H4446 0.961 . S
C4431 H4447 0.960 . S
H4432 C4416 0.931 . S
H4433 C4421 0.929 . S
H4434 C4422 0.960 . S
H4435 C4422 0.962 . S
H4436 C4422 0.960 . S
H4437 C4423 0.961 . S
H4438 C4423 0.961 . S
H4439 C4423 0.961 . S
H4440 C4424 0.931 . S
H4441 C4429 0.930 . S
H4442 C4430 0.956 . S
H4443 C4430 0.961 . S
H4444 C4430 0.961 . S
H4445 C4431 0.958 . S
H4446 C4431 0.961 . S
H4447 C4431 0.960 . S
C4448 C4449 1.391 . S
C4448 C4450 1.394 . S
C4448 H4464 0.931 . S
C4449 C4448 1.391 . S
C4449 C4453 1.376 . S
C4450 C4448 1.394 . S
C4450 C4451 1.369 . S
C4450 C4454 1.531 . S
C4451 C4450 1.369 . S
C4451 C4452 1.410 . S
C4451 C4459 1.503 . S
C4452 C4451 1.410 . S
C4452 C4453 1.392 . S
C4452 C4455 1.511 . S
C4453 C4449 1.376 . S
C4453 C4452 1.392 . S
C4453 H4465 0.929 . S
C4454 C4450 1.531 . S
C4454 H4466 0.960 . S
C4454 H4467 0.962 . S
C4454 H4468 0.960 . S
C4455 C4452 1.511 . S
C4455 H4469 0.961 . S
C4455 H4470 0.961 . S
C4455 H4471 0.961 . S
C4456 C4457 1.370 . S
C4456 C4458 1.363 . S
C4456 H4472 0.931 . S
C4457 C4456 1.370 . S
C4457 C4461 1.408 . S
C4458 C4456 1.363 . S
C4458 C4459 1.370 . S
C4458 C4462 1.524 . S
C4459 C4451 1.503 . S
C4459 C4458 1.370 . S
C4459 C4460 1.403 . S
C4460 C4459 1.403 . S
C4460 C4461 1.404 . S
C4460 C4463 1.539 . S
C4461 C4457 1.408 . S
C4461 C4460 1.404 . S
C4461 H4473 0.930 . S
C4462 C4458 1.524 . S
C4462 H4474 0.956 . S
C4462 H4475 0.961 . S
C4462 H4476 0.961 . S
C4463 C4460 1.539 . S
C4463 H4477 0.958 . S
C4463 H4478 0.961 . S
C4463 H4479 0.960 . S
H4464 C4448 0.931 . S
H4465 C4453 0.929 . S
H4466 C4454 0.960 . S
H4467 C4454 0.962 . S
H4468 C4454 0.960 . S
H4469 C4455 0.961 . S
H4470 C4455 0.961 . S
H4471 C4455 0.961 . S
H4472 C4456 0.931 . S
H4473 C4461 0.930 . S
H4474 C4462 0.956 . S
H4475 C4462 0.961 . S
H4476 C4462 0.961 . S
H4477 C4463 0.958 . S
H4478 C4463 0.961 . S
H4479 C4463 0.960 . S
C4480 C4481 1.391 . S
C4480 C4482 1.394 . S
C4480 H4496 0.931 . S
C4481 C4480 1.391 . S
C4481 C4485 1.376 . S
C4482 C4480 1.394 . S
C4482 C4483 1.369 . S
C4482 C4486 1.531 . S
C4483 C4482 1.369 . S
C4483 C4484 1.410 . S
C4483 C4491 1.503 . S
C4484 C4483 1.410 . S
C4484 C4485 1.392 . S
C4484 C4487 1.511 . S
C4485 C4481 1.376 . S
C4485 C4484 1.392 . S
C4485 H4497 0.929 . S
C4486 C4482 1.531 . S
C4486 H4498 0.960 . S
C4486 H4499 0.962 . S
C4486 H4500 0.960 . S
C4487 C4484 1.511 . S
C4487 H4501 0.961 . S
C4487 H4502 0.961 . S
C4487 H4503 0.961 . S
C4488 C4489 1.370 . S
C4488 C4490 1.363 . S
C4488 H4504 0.931 . S
C4489 C4488 1.370 . S
C4489 C4493 1.408 . S
C4490 C4488 1.363 . S
C4490 C4491 1.370 . S
C4490 C4494 1.524 . S
C4491 C4483 1.503 . S
C4491 C4490 1.370 . S
C4491 C4492 1.403 . S
C4492 C4491 1.403 . S
C4492 C4493 1.404 . S
C4492 C4495 1.539 . S
C4493 C4489 1.408 . S
C4493 C4492 1.404 . S
C4493 H4505 0.930 . S
C4494 C4490 1.524 . S
C4494 H4506 0.956 . S
C4494 H4507 0.961 . S
C4494 H4508 0.961 . S
C4495 C4492 1.539 . S
C4495 H4509 0.958 . S
C4495 H4510 0.961 . S
C4495 H4511 0.960 . S
H4496 C4480 0.931 . S
H4497 C4485 0.929 . S
H4498 C4486 0.960 . S
H4499 C4486 0.962 . S
H4500 C4486 0.960 . S
H4501 C4487 0.961 . S
H4502 C4487 0.961 . S
H4503 C4487 0.961 . S
H4504 C4488 0.931 . S
H4505 C4493 0.930 . S
H4506 C4494 0.956 . S
H4507 C4494 0.961 . S
H4508 C4494 0.961 . S
H4509 C4495 0.958 . S
H4510 C4495 0.961 . S
H4511 C4495 0.960 . S
C4512 C4513 1.391 . S
C4512 C4514 1.394 . S
C4512 H4528 0.931 . S
C4513 C4512 1.391 . S
C4513 C4517 1.376 . S
C4514 C4512 1.394 . S
C4514 C4515 1.369 . S
C4514 C4518 1.531 . S
C4515 C4514 1.369 . S
C4515 C4516 1.410 . S
C4515 C4523 1.503 . S
C4516 C4515 1.410 . S
C4516 C4517 1.392 . S
C4516 C4519 1.511 . S
C4517 C4513 1.376 . S
C4517 C4516 1.392 . S
C4517 H4529 0.929 . S
C4518 C4514 1.531 . S
C4518 H4530 0.960 . S
C4518 H4531 0.962 . S
C4518 H4532 0.960 . S
C4519 C4516 1.511 . S
C4519 H4533 0.961 . S
C4519 H4534 0.961 . S
C4519 H4535 0.961 . S
C4520 C4521 1.370 . S
C4520 C4522 1.363 . S
C4520 H4536 0.931 . S
C4521 C4520 1.370 . S
C4521 C4525 1.408 . S
C4522 C4520 1.363 . S
C4522 C4523 1.370 . S
C4522 C4526 1.524 . S
C4523 C4515 1.503 . S
C4523 C4522 1.370 . S
C4523 C4524 1.403 . S
C4524 C4523 1.403 . S
C4524 C4525 1.404 . S
C4524 C4527 1.539 . S
C4525 C4521 1.408 . S
C4525 C4524 1.404 . S
C4525 H4537 0.930 . S
C4526 C4522 1.524 . S
C4526 H4538 0.956 . S
C4526 H4539 0.961 . S
C4526 H4540 0.961 . S
C4527 C4524 1.539 . S
C4527 H4541 0.958 . S
C4527 H4542 0.961 . S
C4527 H4543 0.960 . S
H4528 C4512 0.931 . S
H4529 C4517 0.929 . S
H4530 C4518 0.960 . S
H4531 C4518 0.962 . S
H4532 C4518 0.960 . S
H4533 C4519 0.961 . S
H4534 C4519 0.961 . S
H4535 C4519 0.961 . S
H4536 C4520 0.931 . S
H4537 C4525 0.930 . S
H4538 C4526 0.956 . S
H4539 C4526 0.961 . S
H4540 C4526 0.961 . S
H4541 C4527 0.958 . S
H4542 C4527 0.961 . S
H4543 C4527 0.960 . S
C4544 C4545 1.391 . S
C4544 C4546 1.394 . S
C4544 H4560 0.931 . S
C4545 C4544 1.391 . S
C4545 C4549 1.376 . S
C4546 C4544 1.394 . S
C4546 C4547 1.369 . S
C4546 C4550 1.531 . S
C4547 C4546 1.369 . S
C4547 C4548 1.410 . S
C4547 C4555 1.503 . S
C4548 C4547 1.410 . S
C4548 C4549 1.392 . S
C4548 C4551 1.511 . S
C4549 C4545 1.376 . S
C4549 C4548 1.392 . S
C4549 H4561 0.929 . S
C4550 C4546 1.531 . S
C4550 H4562 0.960 . S
C4550 H4563 0.962 . S
C4550 H4564 0.960 . S
C4551 C4548 1.511 . S
C4551 H4565 0.961 . S
C4551 H4566 0.961 . S
C4551 H4567 0.961 . S
C4552 C4553 1.370 . S
C4552 C4554 1.363 . S
C4552 H4568 0.931 . S
C4553 C4552 1.370 . S
C4553 C4557 1.408 . S
C4554 C4552 1.363 . S
C4554 C4555 1.370 . S
C4554 C4558 1.524 . S
C4555 C4547 1.503 . S
C4555 C4554 1.370 . S
C4555 C4556 1.403 . S
C4556 C4555 1.403 . S
C4556 C4557 1.404 . S
C4556 C4559 1.539 . S
C4557 C4553 1.408 . S
C4557 C4556 1.404 . S
C4557 H4569 0.930 . S
C4558 C4554 1.524 . S
C4558 H4570 0.956 . S
C4558 H4571 0.961 . S
C4558 H4572 0.961 . S
C4559 C4556 1.539 . S
C4559 H4573 0.958 . S
C4559 H4574 0.961 . S
C4559 H4575 0.960 . S
H4560 C4544 0.931 . S
H4561 C4549 0.929 . S
H4562 C4550 0.960 . S
H4563 C4550 0.962 . S
H4564 C4550 0.960 . S
H4565 C4551 0.961 . S
H4566 C4551 0.961 . S
H4567 C4551 0.961 . S
H4568 C4552 0.931 . S
H4569 C4557 0.930 . S
H4570 C4558 0.956 . S
H4571 C4558 0.961 . S
H4572 C4558 0.961 . S
H4573 C4559 0.958 . S
H4574 C4559 0.961 . S
H4575 C4559 0.960 . S
C4576 C4577 1.391 . S
C4576 C4578 1.394 . S
C4576 H4592 0.931 . S
C4577 C4576 1.391 . S
C4577 C4581 1.376 . S
C4578 C4576 1.394 . S
C4578 C4579 1.369 . S
C4578 C4582 1.531 . S
C4579 C4578 1.369 . S
C4579 C4580 1.410 . S
C4579 C4587 1.503 . S
C4580 C4579 1.410 . S
C4580 C4581 1.392 . S
C4580 C4583 1.511 . S
C4581 C4577 1.376 . S
C4581 C4580 1.392 . S
C4581 H4593 0.929 . S
C4582 C4578 1.531 . S
C4582 H4594 0.960 . S
C4582 H4595 0.962 . S
C4582 H4596 0.960 . S
C4583 C4580 1.511 . S
C4583 H4597 0.961 . S
C4583 H4598 0.961 . S
C4583 H4599 0.961 . S
C4584 C4585 1.370 . S
C4584 C4586 1.363 . S
C4584 H4600 0.931 . S
C4585 C4584 1.370 . S
C4585 C4589 1.408 . S
C4586 C4584 1.363 . S
C4586 C4587 1.370 . S
C4586 C4590 1.524 . S
C4587 C4579 1.503 . S
C4587 C4586 1.370 . S
C4587 C4588 1.403 . S
C4588 C4587 1.403 . S
C4588 C4589 1.404 . S
C4588 C4591 1.539 . S
C4589 C4585 1.408 . S
C4589 C4588 1.404 . S
C4589 H4601 0.930 . S
C4590 C4586 1.524 . S
C4590 H4602 0.956 . S
C4590 H4603 0.961 . S
C4590 H4604 0.961 . S
C4591 C4588 1.539 . S
C4591 H4605 0.958 . S
C4591 H4606 0.961 . S
C4591 H4607 0.960 . S
H4592 C4576 0.931 . S
H4593 C4581 0.929 . S
H4594 C4582 0.960 . S
H4595 C4582 0.962 . S
H4596 C4582 0.960 . S
H4597 C4583 0.961 . S
H4598 C4583 0.961 . S
H4599 C4583 0.961 . S
H4600 C4584 0.931 . S
H4601 C4589 0.930 . S
H4602 C4590 0.956 . S
H4603 C4590 0.961 . S
H4604 C4590 0.961 . S
H4605 C4591 0.958 . S
H4606 C4591 0.961 . S
H4607 C4591 0.960 . S
C4608 C4609 1.391 . S
C4608 C4610 1.394 . S
C4608 H4624 0.931 . S
C4609 C4608 1.391 . S
C4609 C4613 1.376 . S
C4610 C4608 1.394 . S
C4610 C4611 1.369 . S
C4610 C4614 1.531 . S
C4611 C4610 1.369 . S
C4611 C4612 1.410 . S
C4611 C4619 1.503 . S
C4612 C4611 1.410 . S
C4612 C4613 1.392 . S
C4612 C4615 1.511 . S
C4613 C4609 1.376 . S
C4613 C4612 1.392 . S
C4613 H4625 0.929 . S
C4614 C4610 1.531 . S
C4614 H4626 0.960 . S
C4614 H4627 0.962 . S
C4614 H4628 0.960 . S
C4615 C4612 1.511 . S
C4615 H4629 0.961 . S
C4615 H4630 0.961 . S
C4615 H4631 0.961 . S
C4616 C4617 1.370 . S
C4616 C4618 1.363 . S
C4616 H4632 0.931 . S
C4617 C4616 1.370 . S
C4617 C4621 1.408 . S
C4618 C4616 1.363 . S
C4618 C4619 1.370 . S
C4618 C4622 1.524 . S
C4619 C4611 1.503 . S
C4619 C4618 1.370 . S
C4619 C4620 1.403 . S
C4620 C4619 1.403 . S
C4620 C4621 1.404 . S
C4620 C4623 1.539 . S
C4621 C4617 1.408 . S
C4621 C4620 1.404 . S
C4621 H4633 0.930 . S
C4622 C4618 1.524 . S
C4622 H4634 0.956 . S
C4622 H4635 0.961 . S
C4622 H4636 0.961 . S
C4623 C4620 1.539 . S
C4623 H4637 0.958 . S
C4623 H4638 0.961 . S
C4623 H4639 0.960 . S
H4624 C4608 0.931 . S
H4625 C4613 0.929 . S
H4626 C4614 0.960 . S
H4627 C4614 0.962 . S
H4628 C4614 0.960 . S
H4629 C4615 0.961 . S
H4630 C4615 0.961 . S
H4631 C4615 0.961 . S
H4632 C4616 0.931 . S
H4633 C4621 0.930 . S
H4634 C4622 0.956 . S
H4635 C4622 0.961 . S
H4636 C4622 0.961 . S
H4637 C4623 0.958 . S
H4638 C4623 0.961 . S
H4639 C4623 0.960 . S
C4640 C4641 1.391 . S
C4640 C4642 1.394 . S
C4640 H4656 0.931 . S
C4641 C4640 1.391 . S
C4641 C4645 1.376 . S
C4642 C4640 1.394 . S
C4642 C4643 1.369 . S
C4642 C4646 1.531 . S
C4643 C4642 1.369 . S
C4643 C4644 1.410 . S
C4643 C4651 1.503 . S
C4644 C4643 1.410 . S
C4644 C4645 1.392 . S
C4644 C4647 1.511 . S
C4645 C4641 1.376 . S
C4645 C4644 1.392 . S
C4645 H4657 0.929 . S
C4646 C4642 1.531 . S
C4646 H4658 0.960 . S
C4646 H4659 0.962 . S
C4646 H4660 0.960 . S
C4647 C4644 1.511 . S
C4647 H4661 0.961 . S
C4647 H4662 0.961 . S
C4647 H4663 0.961 . S
C4648 C4649 1.370 . S
C4648 C4650 1.363 . S
C4648 H4664 0.931 . S
C4649 C4648 1.370 . S
C4649 C4653 1.408 . S
C4650 C4648 1.363 . S
C4650 C4651 1.370 . S
C4650 C4654 1.524 . S
C4651 C4643 1.503 . S
C4651 C4650 1.370 . S
C4651 C4652 1.403 . S
C4652 C4651 1.403 . S
C4652 C4653 1.404 . S
C4652 C4655 1.539 . S
C4653 C4649 1.408 . S
C4653 C4652 1.404 . S
C4653 H4665 0.930 . S
C4654 C4650 1.524 . S
C4654 H4666 0.956 . S
C4654 H4667 0.961 . S
C4654 H4668 0.961 . S
C4655 C4652 1.539 . S
C4655 H4669 0.958 . S
C4655 H4670 0.961 . S
C4655 H4671 0.960 . S
H4656 C4640 0.931 . S
H4657 C4645 0.929 . S
H4658 C4646 0.960 . S
H4659 C4646 0.962 . S
H4660 C4646 0.960 . S
H4661 C4647 0.961 . S
H4662 C4647 0.961 . S
H4663 C4647 0.961 . S
H4664 C4648 0.931 . S
H4665 C4653 0.930 . S
H4666 C4654 0.956 . S
H4667 C4654 0.961 . S
H4668 C4654 0.961 . S
H4669 C4655 0.958 . S
H4670 C4655 0.961 . S
H4671 C4655 0.960 . S
C4672 C4673 1.391 . S
C4672 C4674 1.394 . S
C4672 H4688 0.931 . S
C4673 C4672 1.391 . S
C4673 C4677 1.376 . S
C4674 C4672 1.394 . S
C4674 C4675 1.369 . S
C4674 C4678 1.531 . S
C4675 C4674 1.369 . S
C4675 C4676 1.410 . S
C4675 C4683 1.503 . S
C4676 C4675 1.410 . S
C4676 C4677 1.392 . S
C4676 C4679 1.511 . S
C4677 C4673 1.376 . S
C4677 C4676 1.392 . S
C4677 H4689 0.929 . S
C4678 C4674 1.531 . S
C4678 H4690 0.960 . S
C4678 H4691 0.962 . S
C4678 H4692 0.960 . S
C4679 C4676 1.511 . S
C4679 H4693 0.961 . S
C4679 H4694 0.961 . S
C4679 H4695 0.961 . S
C4680 C4681 1.370 . S
C4680 C4682 1.363 . S
C4680 H4696 0.931 . S
C4681 C4680 1.370 . S
C4681 C4685 1.408 . S
C4682 C4680 1.363 . S
C4682 C4683 1.370 . S
C4682 C4686 1.524 . S
C4683 C4675 1.503 . S
C4683 C4682 1.370 . S
C4683 C4684 1.403 . S
C4684 C4683 1.403 . S
C4684 C4685 1.404 . S
C4684 C4687 1.539 . S
C4685 C4681 1.408 . S
C4685 C4684 1.404 . S
C4685 H4697 0.930 . S
C4686 C4682 1.524 . S
C4686 H4698 0.956 . S
C4686 H4699 0.961 . S
C4686 H4700 0.961 . S
C4687 C4684 1.539 . S
C4687 H4701 0.958 . S
C4687 H4702 0.961 . S
C4687 H4703 0.960 . S
H4688 C4672 0.931 . S
H4689 C4677 0.929 . S
H4690 C4678 0.960 . S
H4691 C4678 0.962 . S
H4692 C4678 0.960 . S
H4693 C4679 0.961 . S
H4694 C4679 0.961 . S
H4695 C4679 0.961 . S
H4696 C4680 0.931 . S
H4697 C4685 0.930 . S
H4698 C4686 0.956 . S
H4699 C4686 0.961 . S
H4700 C4686 0.961 . S
H4701 C4687 0.958 . S
H4702 C4687 0.961 . S
H4703 C4687 0.960 . S
C4704 C4705 1.391 . S
C4704 C4706 1.394 . S
C4704 H4720 0.931 . S
C4705 C4704 1.391 . S
C4705 C4709 1.376 . S
C4706 C4704 1.394 . S
C4706 C4707 1.369 . S
C4706 C4710 1.531 . S
C4707 C4706 1.369 . S
C4707 C4708 1.410 . S
C4707 C4715 1.503 . S
C4708 C4707 1.410 . S
C4708 C4709 1.392 . S
C4708 C4711 1.511 . S
C4709 C4705 1.376 . S
C4709 C4708 1.392 . S
C4709 H4721 0.929 . S
C4710 C4706 1.531 . S
C4710 H4722 0.960 . S
C4710 H4723 0.962 . S
C4710 H4724 0.960 . S
C4711 C4708 1.511 . S
C4711 H4725 0.961 . S
C4711 H4726 0.961 . S
C4711 H4727 0.961 . S
C4712 C4713 1.370 . S
C4712 C4714 1.363 . S
C4712 H4728 0.931 . S
C4713 C4712 1.370 . S
C4713 C4717 1.408 . S
C4714 C4712 1.363 . S
C4714 C4715 1.370 . S
C4714 C4718 1.524 . S
C4715 C4707 1.503 . S
C4715 C4714 1.370 . S
C4715 C4716 1.403 . S
C4716 C4715 1.403 . S
C4716 C4717 1.404 . S
C4716 C4719 1.539 . S
C4717 C4713 1.408 . S
C4717 C4716 1.404 . S
C4717 H4729 0.930 . S
C4718 C4714 1.524 . S
C4718 H4730 0.956 . S
C4718 H4731 0.961 . S
C4718 H4732 0.961 . S
C4719 C4716 1.539 . S
C4719 H4733 0.958 . S
C4719 H4734 0.961 . S
C4719 H4735 0.960 . S
H4720 C4704 0.931 . S
H4721 C4709 0.929 . S
H4722 C4710 0.960 . S
H4723 C4710 0.962 . S
H4724 C4710 0.960 . S
H4725 C4711 0.961 . S
H4726 C4711 0.961 . S
H4727 C4711 0.961 . S
H4728 C4712 0.931 . S
H4729 C4717 0.930 . S
H4730 C4718 0.956 . S
H4731 C4718 0.961 . S
H4732 C4718 0.961 . S
H4733 C4719 0.958 . S
H4734 C4719 0.961 . S
H4735 C4719 0.960 . S
C4736 C4737 1.391 . S
C4736 C4738 1.394 . S
C4736 H4752 0.931 . S
C4737 C4736 1.391 . S
C4737 C4741 1.376 . S
C4738 C4736 1.394 . S
C4738 C4739 1.369 . S
C4738 C4742 1.531 . S
C4739 C4738 1.369 . S
C4739 C4740 1.410 . S
C4739 C4747 1.503 . S
C4740 C4739 1.410 . S
C4740 C4741 1.392 . S
C4740 C4743 1.511 . S
C4741 C4737 1.376 . S
C4741 C4740 1.392 . S
C4741 H4753 0.929 . S
C4742 C4738 1.531 . S
C4742 H4754 0.960 . S
C4742 H4755 0.962 . S
C4742 H4756 0.960 . S
C4743 C4740 1.511 . S
C4743 H4757 0.961 . S
C4743 H4758 0.961 . S
C4743 H4759 0.961 . S
C4744 C4745 1.370 . S
C4744 C4746 1.363 . S
C4744 H4760 0.931 . S
C4745 C4744 1.370 . S
C4745 C4749 1.408 . S
C4746 C4744 1.363 . S
C4746 C4747 1.370 . S
C4746 C4750 1.524 . S
C4747 C4739 1.503 . S
C4747 C4746 1.370 . S
C4747 C4748 1.403 . S
C4748 C4747 1.403 . S
C4748 C4749 1.404 . S
C4748 C4751 1.539 . S
C4749 C4745 1.408 . S
C4749 C4748 1.404 . S
C4749 H4761 0.930 . S
C4750 C4746 1.524 . S
C4750 H4762 0.956 . S
C4750 H4763 0.961 . S
C4750 H4764 0.961 . S
C4751 C4748 1.539 . S
C4751 H4765 0.958 . S
C4751 H4766 0.961 . S
C4751 H4767 0.960 . S
H4752 C4736 0.931 . S
H4753 C4741 0.929 . S
H4754 C4742 0.960 . S
H4755 C4742 0.962 . S
H4756 C4742 0.960 . S
H4757 C4743 0.961 . S
H4758 C4743 0.961 . S
H4759 C4743 0.961 . S
H4760 C4744 0.931 . S
H4761 C4749 0.930 . S
H4762 C4750 0.956 . S
H4763 C4750 0.961 . S
H4764 C4750 0.961 . S
H4765 C4751 0.958 . S
H4766 C4751 0.961 . S
H4767 C4751 0.960 . S
C4768 C4769 1.391 . S
C4768 C4770 1.394 . S
C4768 H4784 0.931 . S
C4769 C4768 1.391 . S
C4769 C4773 1.376 . S
C4770 C4768 1.394 . S
C4770 C4771 1.369 . S
C4770 C4774 1.531 . S
C4771 C4770 1.369 . S
C4771 C4772 1.410 . S
C4771 C4779 1.503 . S
C4772 C4771 1.410 . S
C4772 C4773 1.392 . S
C4772 C4775 1.511 . S
C4773 C4769 1.376 . S
C4773 C4772 1.392 . S
C4773 H4785 0.929 . S
C4774 C4770 1.531 . S
C4774 H4786 0.960 . S
C4774 H4787 0.962 . S
C4774 H4788 0.960 . S
C4775 C4772 1.511 . S
C4775 H4789 0.961 . S
C4775 H4790 0.961 . S
C4775 H4791 0.961 . S
C4776 C4777 1.370 . S
C4776 C4778 1.363 . S
C4776 H4792 0.931 . S
C4777 C4776 1.370 . S
C4777 C4781 1.408 . S
C4778 C4776 1.363 . S
C4778 C4779 1.370 . S
C4778 C4782 1.524 . S
C4779 C4771 1.503 . S
C4779 C4778 1.370 . S
C4779 C4780 1.403 . S
C4780 C4779 1.403 . S
C4780 C4781 1.404 . S
C4780 C4783 1.539 . S
C4781 C4777 1.408 . S
C4781 C4780 1.404 . S
C4781 H4793 0.930 . S
C4782 C4778 1.524 . S
C4782 H4794 0.956 . S
C4782 H4795 0.961 . S
C4782 H4796 0.961 . S
C4783 C4780 1.539 . S
C4783 H4797 0.958 . S
C4783 H4798 0.961 . S
C4783 H4799 0.960 . S
H4784 C4768 0.931 . S
H4785 C4773 0.929 . S
H4786 C4774 0.960 . S
H4787 C4774 0.962 . S
H4788 C4774 0.960 . S
H4789 C4775 0.961 . S
H4790 C4775 0.961 . S
H4791 C4775 0.961 . S
H4792 C4776 0.931 . S
H4793 C4781 0.930 . S
H4794 C4782 0.956 . S
H4795 C4782 0.961 . S
H4796 C4782 0.961 . S
H4797 C4783 0.958 . S
H4798 C4783 0.961 . S
H4799 C4783 0.960 . S
C4800 C4801 1.391 . S
C4800 C4802 1.394 . S
C4800 H4816 0.931 . S
C4801 C4800 1.391 . S
C4801 C4805 1.376 . S
C4802 C4800 1.394 . S
C4802 C4803 1.369 . S
C4802 C4806 1.531 . S
C4803 C4802 1.369 . S
C4803 C4804 1.410 . S
C4803 C4811 1.503 . S
C4804 C4803 1.410 . S
C4804 C4805 1.392 . S
C4804 C4807 1.511 . S
C4805 C4801 1.376 . S
C4805 C4804 1.392 . S
C4805 H4817 0.929 . S
C4806 C4802 1.531 . S
C4806 H4818 0.960 . S
C4806 H4819 0.962 . S
C4806 H4820 0.960 . S
C4807 C4804 1.511 . S
C4807 H4821 0.961 . S
C4807 H4822 0.961 . S
C4807 H4823 0.961 . S
C4808 C4809 1.370 . S
C4808 C4810 1.363 . S
C4808 H4824 0.931 . S
C4809 C4808 1.370 . S
C4809 C4813 1.408 . S
C4810 C4808 1.363 . S
C4810 C4811 1.370 . S
C4810 C4814 1.524 . S
C4811 C4803 1.503 . S
C4811 C4810 1.370 . S
C4811 C4812 1.403 . S
C4812 C4811 1.403 . S
C4812 C4813 1.404 . S
C4812 C4815 1.539 . S
C4813 C4809 1.408 . S
C4813 C4812 1.404 . S
C4813 H4825 0.930 . S
C4814 C4810 1.524 . S
C4814 H4826 0.956 . S
C4814 H4827 0.961 . S
C4814 H4828 0.961 . S
C4815 C4812 1.539 . S
C4815 H4829 0.958 . S
C4815 H4830 0.961 . S
C4815 H4831 0.960 . S
H4816 C4800 0.931 . S
H4817 C4805 0.929 . S
H4818 C4806 0.960 . S
H4819 C4806 0.962 . S
H4820 C4806 0.960 . S
H4821 C4807 0.961 . S
H4822 C4807 0.961 . S
H4823 C4807 0.961 . S
H4824 C4808 0.931 . S
H4825 C4813 0.930 . S
H4826 C4814 0.956 . S
H4827 C4814 0.961 . S
H4828 C4814 0.961 . S
H4829 C4815 0.958 . S
H4830 C4815 0.961 . S
H4831 C4815 0.960 . S
C4832 C4833 1.391 . S
C4832 C4834 1.394 . S
C4832 H4848 0.931 . S
C4833 C4832 1.391 . S
C4833 C4837 1.376 . S
C4834 C4832 1.394 . S
C4834 C4835 1.369 . S
C4834 C4838 1.531 . S
C4835 C4834 1.369 . S
C4835 C4836 1.410 . S
C4835 C4843 1.503 . S
C4836 C4835 1.410 . S
C4836 C4837 1.392 . S
C4836 C4839 1.511 . S
C4837 C4833 1.376 . S
C4837 C4836 1.392 . S
C4837 H4849 0.929 . S
C4838 C4834 1.531 . S
C4838 H4850 0.960 . S
C4838 H4851 0.962 . S
C4838 H4852 0.960 . S
C4839 C4836 1.511 . S
C4839 H4853 0.961 . S
C4839 H4854 0.961 . S
C4839 H4855 0.961 . S
C4840 C4841 1.370 . S
C4840 C4842 1.363 . S
C4840 H4856 0.931 . S
C4841 C4840 1.370 . S
C4841 C4845 1.408 . S
C4842 C4840 1.363 . S
C4842 C4843 1.370 . S
C4842 C4846 1.524 . S
C4843 C4835 1.503 . S
C4843 C4842 1.370 . S
C4843 C4844 1.403 . S
C4844 C4843 1.403 . S
C4844 C4845 1.404 . S
C4844 C4847 1.539 . S
C4845 C4841 1.408 . S
C4845 C4844 1.404 . S
C4845 H4857 0.930 . S
C4846 C4842 1.524 . S
C4846 H4858 0.956 . S
C4846 H4859 0.961 . S
C4846 H4860 0.961 . S
C4847 C4844 1.539 . S
C4847 H4861 0.958 . S
C4847 H4862 0.961 . S
C4847 H4863 0.960 . S
H4848 C4832 0.931 . S
H4849 C4837 0.929 . S
H4850 C4838 0.960 . S
H4851 C4838 0.962 . S
H4852 C4838 0.960 . S
H4853 C4839 0.961 . S
H4854 C4839 0.961 . S
H4855 C4839 0.961 . S
H4856 C4840 0.931 . S
H4857 C4845 0.930 . S
H4858 C4846 0.956 . S
H4859 C4846 0.961 . S
H4860 C4846 0.961 . S
H4861 C4847 0.958 . S
H4862 C4847 0.961 . S
H4863 C4847 0.960 . S
C2817 C409 1.504 . S
C2825 C29 1.505 . S
C2849 C497 1.501 . S
C2857 C117 1.508 . S
C2881 C577 1.504 . S
C2889 C205 1.505 . S
C2913 C284 1.499 . S
C2921 C665 1.506 . S
C2945 C724 1.499 . S
C2953 C1113 1.496 . S
C2977 C1173 1.491 . S
C2985 C841 1.499 . S
C3009 C929 1.487 . S
C3017 C1261 1.498 . S
C3041 C1349 1.497 . S
C3049 C1017 1.498 . S
C3073 C1428 1.500 . S
C3081 C1817 1.508 . S
C3105 C1897 1.506 . S
C3113 C1525 1.505 . S
C3137 C1985 1.498 . S
C3145 C1604 1.507 . S
C3169 C2081 1.506 . S
C3177 C1692 1.506 . S
C3201 C2132 1.499 . S
C3209 C2513 1.497 . S
C3233 C2249 1.494 . S
C3241 C2581 1.494 . S
C3265 C2337 1.499 . S
C3273 C2660 1.496 . S
C3297 C2433 1.492 . S
C3305 C2757 1.494 . S
C3329 C49 0.532 . S
C3337 C645 0.511 . S
C3361 C137 0.421 . S
C3369 C372 0.512 . S
C3393 C225 0.467 . S
C3401 C460 0.472 . S
C3425 C557 0.450 . S
C3433 C321 0.522 . S
C3457 C1340 0.547 . S
C3465 C733 0.471 . S
C3489 C1105 0.554 . S
C3497 C849 0.470 . S
C3521 C1164 0.477 . S
C3529 C937 0.529 . S
C3553 C1025 0.558 . S
C3561 C1252 0.470 . S
C3585 C2044 0.517 . S
C3593 C1465 0.461 . S
C3617 C1780 0.419 . S
C3625 C1545 0.504 . S
C3649 C1877 0.419 . S
C3657 C1641 0.509 . S
C3681 C1729 0.558 . S
C3689 C1965 0.466 . S
C3713 C2141 0.576 . S
C3721 C2748 0.474 . S
C3745 C2257 0.500 . S
C3753 C2521 0.484 . S
C3777 C2345 0.472 . S
C3785 C2572 0.530 . S
C3809 C2669 0.520 . S
C3817 C2425 0.518 . S
C3841 C57 1.593 . S
C3849 C2229 1.556 . S
C3873 C145 1.587 . S
C3881 C909 1.568 . S
C3905 C233 1.603 . S
C3913 C2396 1.559 . S
C3937 C761 1.545 . S
C3945 C313 1.599 . S
C3969 C2777 1.574 . S
C3977 C381 1.596 . S
C4001 C469 1.590 . S
C4009 C1076 1.560 . S
C4033 C548 1.590 . S
C4041 C2601 1.560 . S
C4065 C636 1.589 . S
C4073 C1281 1.562 . S
C4097 C1516 1.582 . S
C4105 C753 1.596 . S
C4129 C196 1.539 . S
C4137 C812 1.595 . S
C4161 C1701 1.551 . S
C4169 C900 1.600 . S
C4193 C988 1.599 . S
C4201 C20 1.554 . S
C4225 C2073 1.539 . S
C4233 C1085 1.600 . S
C4257 C401 1.544 . S
C4265 C1201 1.600 . S
C4289 C1905 1.556 . S
C4297 C1289 1.594 . S
C4321 C585 1.567 . S
C4329 C1377 1.600 . S
C4353 C821 1.574 . S
C4361 C1457 1.596 . S
C4385 C1553 1.587 . S
C4393 C2317 1.569 . S
C4417 C1633 1.595 . S
C4425 C997 1.554 . S
C4449 C1721 1.595 . S
C4457 C2169 1.569 . S
C4481 C1789 1.603 . S
C4489 C1369 1.558 . S
C4513 C2493 1.582 . S
C4521 C1868 1.598 . S
C4545 C1956 1.604 . S
C4553 C1193 1.555 . S
C4577 C2053 1.589 . S
C4585 C2697 1.562 . S
C4609 C2161 1.595 . S
C4617 C108 1.571 . S
C4641 C2220 1.586 . S
C4649 C1613 1.562 . S
C4673 C293 1.554 . S
C4681 C2308 1.600 . S
C4705 C1437 1.557 . S
C4713 C2405 1.600 . S
C4737 C2484 1.586 . S
C4745 C673 1.568 . S
C4769 C2609 1.593 . S
C4777 C1809 1.551 . S
C4801 C489 1.575 . S
C4809 C2689 1.599 . S
C4833 C1993 1.562 . S
C4841 C2785 1.600 . S
