# Generated by pormake.
# Topology gme, (4)-cn, num edge types: 1
# Building blocks:
#     Node 0, Type 0, BuildingBlock: QUQFOY_clean_sbu_1, # of connection points: 4
#     Node 1, Type 0, BuildingBlock: QUQFOY_clean_sbu_1, # of connection points: 4
#     Node 2, Type 0, BuildingBlock: QUQFOY_clean_sbu_1, # of connection points: 4
#     Node 3, Type 0, BuildingBlock: QUQFOY_clean_sbu_1, # of connection points: 4
#     Node 4, Type 0, BuildingBlock: QUQFOY_clean_sbu_1, # of connection points: 4
#     Node 5, Type 0, BuildingBlock: QUQFOY_clean_sbu_1, # of connection points: 4
#     Node 6, Type 0, BuildingBlock: QUQFOY_clean_sbu_1, # of connection points: 4
#     Node 7, Type 0, BuildingBlock: QUQFOY_clean_sbu_1, # of connection points: 4
#     Node 8, Type 0, BuildingBlock: QUQFOY_clean_sbu_1, # of connection points: 4
#     Node 9, Type 0, BuildingBlock: QUQFOY_clean_sbu_1, # of connection points: 4
#     Node 10, Type 0, BuildingBlock: QUQFOY_clean_sbu_1, # of connection points: 4
#     Node 11, Type 0, BuildingBlock: QUQFOY_clean_sbu_1, # of connection points: 4
#     Node 12, Type 0, BuildingBlock: QUQFOY_clean_sbu_1, # of connection points: 4
#     Node 13, Type 0, BuildingBlock: QUQFOY_clean_sbu_1, # of connection points: 4
#     Node 14, Type 0, BuildingBlock: QUQFOY_clean_sbu_1, # of connection points: 4
#     Node 15, Type 0, BuildingBlock: QUQFOY_clean_sbu_1, # of connection points: 4
#     Node 16, Type 0, BuildingBlock: QUQFOY_clean_sbu_1, # of connection points: 4
#     Node 17, Type 0, BuildingBlock: QUQFOY_clean_sbu_1, # of connection points: 4
#     Node 18, Type 0, BuildingBlock: QUQFOY_clean_sbu_1, # of connection points: 4
#     Node 19, Type 0, BuildingBlock: QUQFOY_clean_sbu_1, # of connection points: 4
#     Node 20, Type 0, BuildingBlock: QUQFOY_clean_sbu_1, # of connection points: 4
#     Node 21, Type 0, BuildingBlock: QUQFOY_clean_sbu_1, # of connection points: 4
#     Node 22, Type 0, BuildingBlock: QUQFOY_clean_sbu_1, # of connection points: 4
#     Node 23, Type 0, BuildingBlock: QUQFOY_clean_sbu_1, # of connection points: 4
#     Edge 24, Type (0, 0), BuildingBlock: MIFKUJ_clean_linker_0, # of connection points: 2
#     Edge 25, Type (0, 0), BuildingBlock: MIFKUJ_clean_linker_0, # of connection points: 2
#     Edge 26, Type (0, 0), BuildingBlock: MIFKUJ_clean_linker_0, # of connection points: 2
#     Edge 27, Type (0, 0), BuildingBlock: MIFKUJ_clean_linker_0, # of connection points: 2
#     Edge 28, Type (0, 0), BuildingBlock: MIFKUJ_clean_linker_0, # of connection points: 2
#     Edge 29, Type (0, 0), BuildingBlock: MIFKUJ_clean_linker_0, # of connection points: 2
#     Edge 30, Type (0, 0), BuildingBlock: MIFKUJ_clean_linker_0, # of connection points: 2
#     Edge 31, Type (0, 0), BuildingBlock: MIFKUJ_clean_linker_0, # of connection points: 2
#     Edge 32, Type (0, 0), BuildingBlock: MIFKUJ_clean_linker_0, # of connection points: 2
#     Edge 33, Type (0, 0), BuildingBlock: MIFKUJ_clean_linker_0, # of connection points: 2
#     Edge 34, Type (0, 0), BuildingBlock: MIFKUJ_clean_linker_0, # of connection points: 2
#     Edge 35, Type (0, 0), BuildingBlock: MIFKUJ_clean_linker_0, # of connection points: 2
#     Edge 36, Type (0, 0), BuildingBlock: MIFKUJ_clean_linker_0, # of connection points: 2
#     Edge 37, Type (0, 0), BuildingBlock: MIFKUJ_clean_linker_0, # of connection points: 2
#     Edge 38, Type (0, 0), BuildingBlock: MIFKUJ_clean_linker_0, # of connection points: 2
#     Edge 39, Type (0, 0), BuildingBlock: MIFKUJ_clean_linker_0, # of connection points: 2
#     Edge 40, Type (0, 0), BuildingBlock: MIFKUJ_clean_linker_0, # of connection points: 2
#     Edge 41, Type (0, 0), BuildingBlock: MIFKUJ_clean_linker_0, # of connection points: 2
#     Edge 42, Type (0, 0), BuildingBlock: MIFKUJ_clean_linker_0, # of connection points: 2
#     Edge 43, Type (0, 0), BuildingBlock: MIFKUJ_clean_linker_0, # of connection points: 2
#     Edge 44, Type (0, 0), BuildingBlock: MIFKUJ_clean_linker_0, # of connection points: 2
#     Edge 45, Type (0, 0), BuildingBlock: MIFKUJ_clean_linker_0, # of connection points: 2
#     Edge 46, Type (0, 0), BuildingBlock: MIFKUJ_clean_linker_0, # of connection points: 2
#     Edge 47, Type (0, 0), BuildingBlock: MIFKUJ_clean_linker_0, # of connection points: 2
#     Edge 48, Type (0, 0), BuildingBlock: MIFKUJ_clean_linker_0, # of connection points: 2
#     Edge 49, Type (0, 0), BuildingBlock: MIFKUJ_clean_linker_0, # of connection points: 2
#     Edge 50, Type (0, 0), BuildingBlock: MIFKUJ_clean_linker_0, # of connection points: 2
#     Edge 51, Type (0, 0), BuildingBlock: MIFKUJ_clean_linker_0, # of connection points: 2
#     Edge 52, Type (0, 0), BuildingBlock: MIFKUJ_clean_linker_0, # of connection points: 2
#     Edge 53, Type (0, 0), BuildingBlock: MIFKUJ_clean_linker_0, # of connection points: 2
#     Edge 54, Type (0, 0), BuildingBlock: MIFKUJ_clean_linker_0, # of connection points: 2
#     Edge 55, Type (0, 0), BuildingBlock: MIFKUJ_clean_linker_0, # of connection points: 2
#     Edge 56, Type (0, 0), BuildingBlock: MIFKUJ_clean_linker_0, # of connection points: 2
#     Edge 57, Type (0, 0), BuildingBlock: MIFKUJ_clean_linker_0, # of connection points: 2
#     Edge 58, Type (0, 0), BuildingBlock: MIFKUJ_clean_linker_0, # of connection points: 2
#     Edge 59, Type (0, 0), BuildingBlock: MIFKUJ_clean_linker_0, # of connection points: 2
#     Edge 60, Type (0, 0), BuildingBlock: MIFKUJ_clean_linker_0, # of connection points: 2
#     Edge 61, Type (0, 0), BuildingBlock: MIFKUJ_clean_linker_0, # of connection points: 2
#     Edge 62, Type (0, 0), BuildingBlock: MIFKUJ_clean_linker_0, # of connection points: 2
#     Edge 63, Type (0, 0), BuildingBlock: MIFKUJ_clean_linker_0, # of connection points: 2
#     Edge 64, Type (0, 0), BuildingBlock: MIFKUJ_clean_linker_0, # of connection points: 2
#     Edge 65, Type (0, 0), BuildingBlock: MIFKUJ_clean_linker_0, # of connection points: 2
#     Edge 66, Type (0, 0), BuildingBlock: MIFKUJ_clean_linker_0, # of connection points: 2
#     Edge 67, Type (0, 0), BuildingBlock: MIFKUJ_clean_linker_0, # of connection points: 2
#     Edge 68, Type (0, 0), BuildingBlock: MIFKUJ_clean_linker_0, # of connection points: 2
#     Edge 69, Type (0, 0), BuildingBlock: MIFKUJ_clean_linker_0, # of connection points: 2
#     Edge 70, Type (0, 0), BuildingBlock: MIFKUJ_clean_linker_0, # of connection points: 2
#     Edge 71, Type (0, 0), BuildingBlock: MIFKUJ_clean_linker_0, # of connection points: 2
# Relax obj value: 0.038
# Max RMSD: 0.064
# Mean RMSD: 0.064
data_MOF--net-gme--node1-QUQFOY_clean_sbu_1--edge1-MIFKUJ_clean_linker_0
_symmetry_space_group_name_H-M    P1
_symmetry_Int_Tables_number       1
_symmetry_cell_setting            triclinic
loop_
_symmetry_equiv_pos_as_xyz
'x, y, z'
_cell_length_a     80.891843
_cell_length_b     80.875924
_cell_length_c     72.638064
_cell_angle_alpha  90.008764
_cell_angle_beta   89.968084
_cell_angle_gamma 119.98486
loop_
_atom_site_label
_atom_site_type_symbol
_atom_site_fract_x
_atom_site_fract_y
_atom_site_fract_z
_atom_type_partial_charge
O0 O 0.40915 0.0855 0.15177 0.0
Cd1 Cd 0.42363 0.09834 0.1277 0.0
Cd2 Cd 0.40661 0.05894 0.11863 0.0
O3 O 0.39599 0.05475 0.14523 0.0
O4 O 0.43356 0.12585 0.13336 0.0
O5 O 0.4133 0.11104 0.11075 0.0
C6 C 0.42327 0.12645 0.12017 0.0
C7 C 0.38797 0.04218 0.0932 0.0
C8 C 0.39907 0.06808 0.15645 0.0
C9 C 0.44972 0.08298 0.11756 0.0
O10 O 0.43485 0.06668 0.11602 0.0
O11 O 0.44836 0.09755 0.12166 0.0
O12 O 0.39331 0.03409 0.10525 0.0
O13 O 0.39227 0.05964 0.09613 0.0
O14 O 0.32825 0.41852 0.651 0.0
Cd15 Cd 0.32994 0.4293 0.62483 0.0
Cd16 Cd 0.34918 0.40984 0.61978 0.0
O17 O 0.33992 0.39941 0.64616 0.0
O18 O 0.31333 0.44092 0.62695 0.0
O19 O 0.30667 0.41691 0.60824 0.0
C20 C 0.30196 0.42872 0.61508 0.0
C21 C 0.34389 0.39083 0.59378 0.0
C22 C 0.33242 0.40625 0.65692 0.0
C23 C 0.37179 0.45241 0.61588 0.0
O24 O 0.37236 0.43708 0.6178 0.0
O25 O 0.35595 0.45212 0.61683 0.0
O26 O 0.35615 0.39272 0.60617 0.0
O27 O 0.33378 0.3989 0.59671 0.0
O28 O 0.91553 0.32918 0.15308 0.0
Cd29 Cd 0.90412 0.33049 0.12803 0.0
Cd30 Cd 0.94364 0.35241 0.12096 0.0
O31 O 0.94655 0.34483 0.1476 0.0
O32 O 0.87631 0.31341 0.13259 0.0
O33 O 0.89196 0.30705 0.11153 0.0
C34 C 0.87614 0.30212 0.12003 0.0
C35 C 0.9601 0.34982 0.09561 0.0
C36 C 0.93259 0.33546 0.15852 0.0
C37 C 0.92016 0.372 0.11837 0.0
O38 O 0.93656 0.3735 0.11833 0.0
O39 O 0.9053 0.3559 0.12115 0.0
O40 O 0.96854 0.36313 0.10772 0.0
O41 O 0.94241 0.33718 0.09843 0.0
O42 O 0.5855 0.91059 0.65308 0.0
Cd43 Cd 0.5733 0.89961 0.62776 0.0
Cd44 Cd 0.59084 0.93874 0.62085 0.0
O45 O 0.60125 0.94158 0.64749 0.0
O46 O 0.56321 0.87171 0.6311 0.0
O47 O 0.58552 0.88885 0.61075 0.0
C48 C 0.57476 0.87252 0.61848 0.0
C49 C 0.60994 0.95524 0.59558 0.0
C50 C 0.59639 0.92765 0.6585 0.0
C51 C 0.54784 0.91555 0.61805 0.0
O52 O 0.56276 0.93193 0.61816 0.0
O53 O 0.54902 0.90065 0.62076 0.0
O54 O 0.60517 0.96369 0.60777 0.0
O55 O 0.60481 0.93751 0.5983 0.0
O56 O 0.6717 0.58505 0.15312 0.0
Cd57 Cd 0.66972 0.57295 0.12756 0.0
Cd58 Cd 0.65058 0.59257 0.1208 0.0
O59 O 0.65951 0.60351 0.14706 0.0
O60 O 0.68618 0.5613 0.13083 0.0
O61 O 0.69304 0.58448 0.11098 0.0
C62 C 0.69768 0.57299 0.1187 0.0
C63 C 0.65532 0.61163 0.09492 0.0
C64 C 0.66729 0.59738 0.15828 0.0
C65 C 0.6279 0.54978 0.11831 0.0
O66 O 0.62751 0.56528 0.11905 0.0
O67 O 0.64359 0.54989 0.12018 0.0
O68 O 0.64302 0.60934 0.10744 0.0
O69 O 0.6657 0.60381 0.09756 0.0
O70 O 0.08955 0.67356 0.65204 0.0
Cd71 Cd 0.10028 0.67231 0.62656 0.0
Cd72 Cd 0.06114 0.65156 0.62006 0.0
O73 O 0.05863 0.65976 0.64652 0.0
O74 O 0.12826 0.68951 0.63014 0.0
O75 O 0.11171 0.69555 0.60985 0.0
C76 C 0.12787 0.70063 0.6177 0.0
C77 C 0.04517 0.65442 0.5945 0.0
C78 C 0.07267 0.66818 0.65754 0.0
C79 C 0.08332 0.63074 0.61715 0.0
O80 O 0.06712 0.62966 0.61787 0.0
O81 O 0.09851 0.64674 0.61919 0.0
O82 O 0.03631 0.64154 0.60691 0.0
O83 O 0.06303 0.66657 0.59718 0.0
O84 O 0.91777 0.5881 0.35612 0.0
Cd85 Cd 0.90523 0.57476 0.38068 0.0
Cd86 Cd 0.94442 0.59251 0.38971 0.0
O87 O 0.94844 0.60346 0.3632 0.0
O88 O 0.87761 0.56451 0.37538 0.0
O89 O 0.89285 0.58588 0.39707 0.0
C90 C 0.87725 0.57539 0.38811 0.0
C91 C 0.96074 0.61114 0.4153 0.0
C92 C 0.9351 0.59908 0.35157 0.0
C93 C 0.92099 0.54933 0.39135 0.0
O94 O 0.93727 0.56433 0.39219 0.0
O95 O 0.90619 0.55042 0.38769 0.0
O96 O 0.96916 0.60622 0.40322 0.0
O97 O 0.94317 0.60644 0.41231 0.0
O98 O 0.33237 0.91169 0.85753 0.0
Cd99 Cd 0.33182 0.90206 0.884 0.0
Cd100 Cd 0.35053 0.94054 0.88976 0.0
O101 O 0.34212 0.94204 0.86306 0.0
O102 O 0.31452 0.87395 0.88185 0.0
O103 O 0.3079 0.89205 0.89957 0.0
C104 C 0.30299 0.87533 0.89313 0.0
C105 C 0.34668 0.95647 0.9148 0.0
C106 C 0.33617 0.92811 0.85188 0.0
C107 C 0.37265 0.91992 0.895 0.0
O108 O 0.37329 0.93582 0.89271 0.0
O109 O 0.35687 0.9044 0.89363 0.0
O110 O 0.3595 0.9655 0.90239 0.0
O111 O 0.33511 0.93842 0.91239 0.0
O112 O 0.41182 0.32648 0.35914 0.0
Cd113 Cd 0.42493 0.32895 0.38422 0.0
Cd114 Cd 0.40646 0.34966 0.39122 0.0
O115 O 0.39534 0.34091 0.36498 0.0
O116 O 0.43637 0.31232 0.38059 0.0
O117 O 0.4142 0.30613 0.40143 0.0
C118 C 0.42541 0.30131 0.39339 0.0
C119 C 0.3877 0.34581 0.41714 0.0
C120 C 0.40028 0.33192 0.35396 0.0
C121 C 0.44931 0.37103 0.39297 0.0
O122 O 0.43412 0.37203 0.39289 0.0
O123 O 0.44854 0.35506 0.3907 0.0
O124 O 0.39041 0.35817 0.40455 0.0
O125 O 0.3949 0.33486 0.41457 0.0
O126 O 0.08962 0.41571 0.8596 0.0
Cd127 Cd 0.10048 0.42837 0.88483 0.0
Cd128 Cd 0.06148 0.40968 0.89221 0.0
O129 O 0.05881 0.39875 0.86579 0.0
O130 O 0.12851 0.43921 0.88154 0.0
O131 O 0.11179 0.41683 0.90199 0.0
C132 C 0.12803 0.42791 0.89426 0.0
C133 C 0.04593 0.39089 0.91798 0.0
C134 C 0.07263 0.40406 0.85452 0.0
C135 C 0.08321 0.45272 0.89433 0.0
O136 O 0.06711 0.43745 0.89426 0.0
O137 O 0.09845 0.45212 0.89177 0.0
O138 O 0.03681 0.39468 0.90566 0.0
O139 O 0.06381 0.39685 0.91512 0.0
O140 O 0.67255 0.08572 0.35977 0.0
Cd141 Cd 0.67162 0.0963 0.38544 0.0
Cd142 Cd 0.65146 0.05694 0.39169 0.0
O143 O 0.65943 0.05479 0.36502 0.0
O144 O 0.68813 0.12433 0.38147 0.0
O145 O 0.69545 0.10842 0.40137 0.0
C146 C 0.6999 0.12439 0.39342 0.0
C147 C 0.65454 0.04075 0.41695 0.0
C148 C 0.66744 0.06895 0.35408 0.0
C149 C 0.63015 0.07858 0.39549 0.0
O150 O 0.62936 0.06253 0.39436 0.0
O151 O 0.64598 0.09397 0.39352 0.0
O152 O 0.64167 0.03196 0.40452 0.0
O153 O 0.6666 0.05866 0.41441 0.0
O154 O 0.5885 0.67363 0.85901 0.0
Cd155 Cd 0.57617 0.67178 0.88444 0.0
Cd156 Cd 0.59539 0.6522 0.89147 0.0
O157 O 0.60644 0.66088 0.86522 0.0
O158 O 0.56456 0.68825 0.88091 0.0
O159 O 0.58747 0.69509 0.90106 0.0
C160 C 0.57602 0.69969 0.8932 0.0
C161 C 0.61408 0.65709 0.91764 0.0
C162 C 0.6006 0.66888 0.85393 0.0
C163 C 0.55262 0.62993 0.89382 0.0
O164 O 0.56801 0.62934 0.89324 0.0
O165 O 0.55295 0.64572 0.89177 0.0
O166 O 0.61183 0.64459 0.90536 0.0
O167 O 0.60651 0.66762 0.91454 0.0
O168 O 0.58596 0.91361 0.86098 0.0
Cd169 Cd 0.57485 0.90397 0.88696 0.0
Cd170 Cd 0.59354 0.94298 0.89224 0.0
O171 O 0.60397 0.94457 0.86579 0.0
O172 O 0.56307 0.87581 0.8839 0.0
O173 O 0.58685 0.89227 0.90308 0.0
C174 C 0.57507 0.87607 0.89568 0.0
C175 C 0.61232 0.95683 0.9183 0.0
C176 C 0.59773 0.93023 0.85507 0.0
C177 C 0.55101 0.92202 0.89624 0.0
O178 O 0.56607 0.93816 0.8944 0.0
O179 O 0.55177 0.90672 0.89506 0.0
O180 O 0.61021 0.9671 0.90595 0.0
O181 O 0.60468 0.9387 0.91526 0.0
O182 O 0.67173 0.5837 0.3581 0.0
Cd183 Cd 0.67027 0.57117 0.3833 0.0
Cd184 Cd 0.65042 0.5902 0.39093 0.0
O185 O 0.6587 0.60134 0.36462 0.0
O186 O 0.68725 0.56023 0.37921 0.0
O187 O 0.6937 0.58276 0.39972 0.0
C188 C 0.69866 0.57176 0.39148 0.0
C189 C 0.6542 0.60892 0.41689 0.0
C190 C 0.66678 0.5957 0.3532 0.0
C191 C 0.62873 0.54717 0.39311 0.0
O192 O 0.62806 0.56254 0.39291 0.0
O193 O 0.64449 0.54758 0.39061 0.0
O194 O 0.64144 0.60567 0.40458 0.0
O195 O 0.66567 0.6024 0.41392 0.0
O196 O 0.0903 0.67306 0.85939 0.0
Cd197 Cd 0.1004 0.67194 0.88521 0.0
Cd198 Cd 0.06154 0.6517 0.89136 0.0
O199 O 0.05938 0.65976 0.86471 0.0
O200 O 0.12845 0.68932 0.88254 0.0
O201 O 0.11094 0.69514 0.90188 0.0
C202 C 0.12743 0.70036 0.8947 0.0
C203 C 0.04579 0.65538 0.91668 0.0
C204 C 0.07351 0.66785 0.85374 0.0
C205 C 0.08328 0.63051 0.89495 0.0
O206 O 0.06714 0.62956 0.89403 0.0
O207 O 0.09855 0.64643 0.89289 0.0
O208 O 0.03676 0.64233 0.90446 0.0
O209 O 0.06374 0.66719 0.91395 0.0
O210 O 0.42319 0.09157 0.35776 0.0
Cd211 Cd 0.43246 0.10113 0.38416 0.0
Cd212 Cd 0.41163 0.06303 0.39039 0.0
O213 O 0.40113 0.0619 0.36397 0.0
O214 O 0.44379 0.12932 0.38196 0.0
O215 O 0.41898 0.11159 0.39973 0.0
C216 C 0.43094 0.12821 0.39318 0.0
C217 C 0.39231 0.04857 0.41609 0.0
C218 C 0.40971 0.07545 0.35248 0.0
C219 C 0.45424 0.0819 0.39482 0.0
O220 O 0.43865 0.06631 0.39256 0.0
O221 O 0.45459 0.09775 0.3937 0.0
O222 O 0.3942 0.03858 0.40329 0.0
O223 O 0.40056 0.06685 0.41378 0.0
O224 O 0.3296 0.41868 0.85917 0.0
Cd225 Cd 0.33203 0.43011 0.88514 0.0
Cd226 Cd 0.35079 0.41025 0.89044 0.0
O227 O 0.34121 0.39955 0.86419 0.0
O228 O 0.31547 0.44181 0.88329 0.0
O229 O 0.30922 0.41815 0.90233 0.0
C230 C 0.30439 0.42986 0.89549 0.0
C231 C 0.34567 0.39134 0.9165 0.0
C232 C 0.33358 0.40623 0.85341 0.0
C233 C 0.37405 0.45288 0.89348 0.0
O234 O 0.37427 0.43732 0.89205 0.0
O235 O 0.35837 0.4529 0.89239 0.0
O236 O 0.35765 0.39298 0.90388 0.0
O237 O 0.33575 0.39965 0.91381 0.0
O238 O 0.91519 0.32812 0.36003 0.0
Cd239 Cd 0.90429 0.32994 0.38521 0.0
Cd240 Cd 0.94337 0.35091 0.39232 0.0
O241 O 0.94607 0.3426 0.36595 0.0
O242 O 0.87633 0.31309 0.38123 0.0
O243 O 0.89226 0.30666 0.4019 0.0
C244 C 0.87631 0.3018 0.39371 0.0
C245 C 0.95815 0.347 0.41832 0.0
C246 C 0.93221 0.33374 0.35484 0.0
C247 C 0.92139 0.37181 0.3943 0.0
O248 O 0.93766 0.373 0.39416 0.0
O249 O 0.90629 0.35577 0.39199 0.0
O250 O 0.96783 0.35954 0.40587 0.0
O251 O 0.94007 0.3359 0.41553 0.0
O252 O 0.08809 0.4153 0.65397 0.0
Cd253 Cd 0.09828 0.42747 0.62842 0.0
Cd254 Cd 0.05946 0.40934 0.62194 0.0
O255 O 0.05721 0.39835 0.64825 0.0
O256 O 0.12638 0.43838 0.63109 0.0
O257 O 0.10918 0.41559 0.61117 0.0
C258 C 0.12561 0.42681 0.6185 0.0
C259 C 0.0454 0.39067 0.59578 0.0
C260 C 0.07118 0.4037 0.65931 0.0
C261 C 0.08099 0.45206 0.61929 0.0
O262 O 0.06471 0.437 0.62002 0.0
O263 O 0.09611 0.45111 0.62128 0.0
O264 O 0.0353 0.39315 0.60805 0.0
O265 O 0.06347 0.39798 0.59888 0.0
O266 O 0.67025 0.08958 0.15248 0.0
Cd267 Cd 0.66905 0.09997 0.12686 0.0
Cd268 Cd 0.64846 0.06109 0.12022 0.0
O269 O 0.6568 0.05875 0.14672 0.0
O270 O 0.68618 0.12796 0.13026 0.0
O271 O 0.69254 0.11122 0.11046 0.0
C272 C 0.69754 0.12743 0.11818 0.0
C273 C 0.65264 0.04597 0.09465 0.0
C274 C 0.66502 0.07271 0.15785 0.0
C275 C 0.62748 0.08299 0.11724 0.0
O276 O 0.62627 0.06671 0.11787 0.0
O277 O 0.64351 0.09812 0.11941 0.0
O278 O 0.63998 0.03645 0.10706 0.0
O279 O 0.66367 0.06409 0.09721 0.0
O280 O 0.58793 0.6716 0.65341 0.0
Cd281 Cd 0.57578 0.66988 0.62789 0.0
Cd282 Cd 0.59386 0.64877 0.62149 0.0
O283 O 0.60476 0.65749 0.64778 0.0
O284 O 0.56503 0.68717 0.6309 0.0
O285 O 0.58778 0.69286 0.61088 0.0
C286 C 0.57663 0.69807 0.61839 0.0
C287 C 0.61266 0.65136 0.59595 0.0
C288 C 0.59946 0.6662 0.65878 0.0
C289 C 0.55101 0.62814 0.61868 0.0
O290 O 0.56601 0.62683 0.61956 0.0
O291 O 0.55201 0.64425 0.62055 0.0
O292 O 0.60896 0.63885 0.60867 0.0
O293 O 0.60657 0.66327 0.59826 0.0
O294 O 0.91637 0.58827 0.15275 0.0
Cd295 Cd 0.90374 0.57488 0.12826 0.0
Cd296 Cd 0.94286 0.59235 0.11899 0.0
O297 O 0.94701 0.60324 0.14553 0.0
O298 O 0.87614 0.56465 0.13363 0.0
O299 O 0.89134 0.58597 0.11189 0.0
C300 C 0.87574 0.57548 0.12087 0.0
C301 C 0.95928 0.61121 0.09352 0.0
C302 C 0.93376 0.59908 0.15721 0.0
C303 C 0.9192 0.54918 0.11756 0.0
O304 O 0.93551 0.56411 0.11643 0.0
O305 O 0.90453 0.55042 0.12143 0.0
O306 O 0.96761 0.60603 0.10544 0.0
O307 O 0.94172 0.60653 0.09656 0.0
O308 O 0.3288 0.91746 0.65089 0.0
Cd309 Cd 0.33101 0.9052 0.62666 0.0
Cd310 Cd 0.35408 0.9441 0.61813 0.0
O311 O 0.34714 0.94816 0.64457 0.0
O312 O 0.31331 0.87751 0.63139 0.0
O313 O 0.30846 0.89313 0.60914 0.0
C314 C 0.30284 0.87736 0.61799 0.0
C315 C 0.35002 0.95873 0.5921 0.0
C316 C 0.33644 0.93488 0.65563 0.0
C317 C 0.37288 0.92019 0.61743 0.0
O318 O 0.37495 0.93678 0.61598 0.0
O319 O 0.35658 0.90589 0.62107 0.0
O320 O 0.36336 0.9683 0.60391 0.0
O321 O 0.33833 0.94089 0.59554 0.0
O322 O 0.41151 0.32917 0.15223 0.0
Cd323 Cd 0.42417 0.33161 0.12688 0.0
Cd324 Cd 0.40554 0.35212 0.12097 0.0
O325 O 0.39439 0.34306 0.14715 0.0
O326 O 0.43559 0.31499 0.13065 0.0
O327 O 0.41325 0.30852 0.10995 0.0
C328 C 0.42437 0.30369 0.11815 0.0
C329 C 0.3871 0.34756 0.09469 0.0
C330 C 0.3998 0.33422 0.15785 0.0
C331 C 0.44834 0.37372 0.11861 0.0
O332 O 0.43313 0.37464 0.11945 0.0
O333 O 0.44768 0.35772 0.12012 0.0
O334 O 0.38939 0.36004 0.10701 0.0
O335 O 0.39449 0.33686 0.09782 0.0
H336 H 0.3753 0.05138 0.33576 0.0
H337 H 0.36862 0.04743 0.30256 0.0
H338 H 0.42794 0.08764 0.29139 0.0
H339 H 0.43423 0.09249 0.32423 0.0
H340 H 0.40965 0.09551 0.26988 0.0
H341 H 0.40482 0.03575 0.28639 0.0
H342 H 0.39254 0.0054 0.30333 0.0
H343 H 0.33608 0.98687 0.28304 0.0
H344 H 0.348 0.01722 0.26616 0.0
H345 H 0.40092 0.04208 0.17887 0.0
H346 H 0.39784 0.04035 0.21246 0.0
H347 H 0.37934 0.08202 0.21117 0.0
H348 H 0.38386 0.08478 0.17777 0.0
H349 H 0.37473 0.03251 0.23899 0.0
H350 H 0.39643 0.11223 0.24602 0.0
H351 H 0.4142 0.14235 0.22863 0.0
H352 H 0.44672 0.1207 0.20156 0.0
H353 H 0.42932 0.09058 0.21896 0.0
C354 C 0.38683 0.05937 0.32614 0.0
C355 C 0.40524 0.07235 0.33257 0.0
C356 C 0.38306 0.05702 0.30715 0.0
C357 C 0.39779 0.06711 0.29429 0.0
C358 C 0.41622 0.07981 0.30087 0.0
C359 C 0.41983 0.08255 0.31971 0.0
C360 C 0.39431 0.06502 0.27398 0.0
C361 C 0.40195 0.08168 0.26322 0.0
C362 C 0.38446 0.04705 0.26504 0.0
C363 C 0.37726 0.02883 0.2752 0.0
C364 C 0.38976 0.02525 0.28566 0.0
C365 C 0.38287 0.00805 0.29523 0.0
C366 C 0.36353 0.99424 0.29431 0.0
C367 C 0.35105 0.99759 0.28378 0.0
C368 C 0.35786 0.01479 0.2742 0.0
C369 C 0.39584 0.05057 0.18577 0.0
C370 C 0.39283 0.06371 0.17582 0.0
C371 C 0.39407 0.04959 0.20499 0.0
C372 C 0.38889 0.06147 0.21452 0.0
C373 C 0.384 0.07317 0.20428 0.0
C374 C 0.38641 0.07463 0.18518 0.0
C375 C 0.39043 0.06299 0.23501 0.0
C376 C 0.38231 0.04629 0.24576 0.0
C377 C 0.40069 0.08092 0.24396 0.0
C378 C 0.41141 0.09909 0.23362 0.0
C379 C 0.40742 0.11394 0.2364 0.0
C380 C 0.41742 0.131 0.22653 0.0
C381 C 0.43153 0.13341 0.21395 0.0
C382 C 0.43574 0.1188 0.21126 0.0
C383 C 0.42581 0.10173 0.22111 0.0
H384 H 0.43923 0.14661 0.2063 0.0
H385 H 0.35823 0.98093 0.30172 0.0
H386 H 0.34216 0.38285 0.67603 0.0
H387 H 0.34116 0.37823 0.70953 0.0
H388 H 0.3163 0.41419 0.71626 0.0
H389 H 0.31716 0.41884 0.68311 0.0
H390 H 0.348 0.42547 0.73777 0.0
H391 H 0.28987 0.36718 0.72285 0.0
H392 H 0.27068 0.3362 0.70728 0.0
H393 H 0.30458 0.31514 0.73244 0.0
H394 H 0.32416 0.34611 0.74797 0.0
H395 H 0.31634 0.41694 0.82756 0.0
H396 H 0.31542 0.4123 0.7944 0.0
H397 H 0.34343 0.37919 0.80066 0.0
H398 H 0.34448 0.38379 0.83418 0.0
H399 H 0.31351 0.36484 0.77281 0.0
H400 H 0.37041 0.42222 0.78916 0.0
H401 H 0.38957 0.45305 0.80496 0.0
H402 H 0.35867 0.47583 0.77678 0.0
H403 H 0.3391 0.445 0.76102 0.0
C404 C 0.33621 0.38953 0.68463 0.0
C405 C 0.32987 0.40133 0.67684 0.0
C406 C 0.33564 0.38686 0.70377 0.0
C407 C 0.32873 0.39594 0.7154 0.0
C408 C 0.32179 0.40713 0.70757 0.0
C409 C 0.32227 0.40973 0.68855 0.0
C410 C 0.32976 0.39499 0.73578 0.0
C411 C 0.34034 0.4122 0.7454 0.0
C412 C 0.32035 0.37763 0.74573 0.0
C413 C 0.30863 0.35904 0.73638 0.0
C414 C 0.29336 0.35601 0.72492 0.0
C415 C 0.28238 0.33844 0.71613 0.0
C416 C 0.28645 0.32373 0.71882 0.0
C417 C 0.30147 0.32656 0.73034 0.0
C418 C 0.31251 0.34411 0.73914 0.0
C419 C 0.32211 0.40844 0.82202 0.0
C420 C 0.3307 0.40093 0.83359 0.0
C421 C 0.32155 0.4058 0.803 0.0
C422 C 0.32959 0.39563 0.79505 0.0
C423 C 0.33719 0.38713 0.80654 0.0
C424 C 0.3378 0.38981 0.82569 0.0
C425 C 0.33126 0.39538 0.77469 0.0
C426 C 0.32133 0.37803 0.76511 0.0
C427 C 0.34136 0.41262 0.76467 0.0
C428 C 0.35318 0.43124 0.77402 0.0
C429 C 0.36759 0.43375 0.78644 0.0
C430 C 0.37854 0.45123 0.79537 0.0
C431 C 0.37531 0.46638 0.79191 0.0
C432 C 0.36114 0.46408 0.77946 0.0
C433 C 0.35013 0.44661 0.77051 0.0
H434 H 0.38381 0.47991 0.79884 0.0
H435 H 0.27793 0.31013 0.71202 0.0
H436 H 0.966 0.35404 0.17849 0.0
H437 H 0.96958 0.35276 0.21194 0.0
H438 H 0.91007 0.30995 0.21639 0.0
H439 H 0.90634 0.31129 0.18328 0.0
H440 H 0.91886 0.33887 0.23932 0.0
H441 H 0.94612 0.29956 0.22314 0.0
H442 H 0.96888 0.29241 0.20747 0.0
H443 H 0.01563 0.33981 0.23474 0.0
H444 H 0.99315 0.3474 0.2504 0.0
H445 H 0.90642 0.30915 0.33 0.0
H446 H 0.91033 0.30851 0.29679 0.0
H447 H 0.96936 0.35248 0.30158 0.0
H448 H 0.96564 0.35296 0.3351 0.0
H449 H 0.96403 0.32614 0.27423 0.0
H450 H 0.93741 0.36517 0.29082 0.0
H451 H 0.91514 0.37292 0.30663 0.0
H452 H 0.86792 0.32723 0.2781 0.0
H453 H 0.88988 0.31902 0.26232 0.0
C454 C 0.95378 0.34411 0.18657 0.0
C455 C 0.93584 0.3329 0.1782 0.0
C456 C 0.95585 0.34338 0.2057 0.0
C457 C 0.94006 0.3313 0.21673 0.0
C458 C 0.92242 0.31948 0.20823 0.0
C459 C 0.92033 0.32026 0.18923 0.0
C460 C 0.94125 0.3319 0.2372 0.0
C461 C 0.9286 0.33585 0.2469 0.0
C462 C 0.95447 0.32874 0.24717 0.0
C463 C 0.96797 0.32417 0.23778 0.0
C464 C 0.96127 0.30856 0.22567 0.0
C465 C 0.97412 0.30441 0.21682 0.0
C466 C 0.9937 0.31568 0.22007 0.0
C467 C 1.00046 0.33111 0.23222 0.0
C468 C 0.98768 0.33533 0.24109 0.0
C469 C 0.92034 0.31849 0.32408 0.0
C470 C 0.93565 0.33129 0.3352 0.0
C471 C 0.92255 0.31812 0.30505 0.0
C472 C 0.94002 0.33075 0.29663 0.0
C473 C 0.95572 0.34268 0.30777 0.0
C474 C 0.95356 0.34294 0.32693 0.0
C475 C 0.9412 0.33246 0.27621 0.0
C476 C 0.95434 0.32917 0.26657 0.0
C477 C 0.92852 0.33636 0.26619 0.0
C478 C 0.91528 0.34139 0.2755 0.0
C479 C 0.92226 0.3567 0.28801 0.0
C480 C 0.9097 0.36118 0.29695 0.0
C481 C 0.89013 0.35055 0.2934 0.0
C482 C 0.88308 0.33544 0.28085 0.0
C483 C 0.89558 0.33088 0.27189 0.0
H484 H 0.88042 0.35404 0.30034 0.0
H485 H 0.00362 0.31244 0.2132 0.0
H486 H 0.59202 0.90117 0.68415 0.0
H487 H 0.59659 0.90546 0.71729 0.0
H488 H 0.61753 0.96574 0.71118 0.0
H489 H 0.61309 0.96161 0.67769 0.0
H490 H 0.63725 0.9571 0.7387 0.0
H491 H 0.57326 0.93954 0.72274 0.0
H492 H 0.5422 0.92062 0.70724 0.0
H493 H 0.53303 0.87036 0.73603 0.0
H494 H 0.56418 0.88892 0.7515 0.0
H495 H 0.61594 0.96357 0.83497 0.0
H496 H 0.61999 0.96662 0.80142 0.0
H497 H 0.59484 0.90555 0.79677 0.0
H498 H 0.59058 0.90237 0.83001 0.0
H499 H 0.57768 0.9185 0.77434 0.0
H500 H 0.6427 0.93628 0.78936 0.0
H501 H 0.67385 0.95552 0.80462 0.0
H502 H 0.6809 0.00602 0.77793 0.0
H503 H 0.64965 0.98711 0.76269 0.0
C504 C 0.59785 0.91542 0.68974 0.0
C505 C 0.60195 0.93101 0.67823 0.0
C506 C 0.60045 0.91784 0.70874 0.0
C507 C 0.60708 0.93586 0.71674 0.0
C508 C 0.61232 0.9517 0.70528 0.0
C509 C 0.60975 0.9493 0.68615 0.0
C510 C 0.60699 0.93757 0.73711 0.0
C511 C 0.6242 0.94891 0.74653 0.0
C512 C 0.58998 0.9268 0.74732 0.0
C513 C 0.57113 0.9156 0.73817 0.0
C514 C 0.56468 0.92442 0.72567 0.0
C515 C 0.54706 0.91377 0.7169 0.0
C516 C 0.53567 0.89429 0.72062 0.0
C517 C 0.54187 0.88544 0.73315 0.0
C518 C 0.55951 0.89603 0.74194 0.0
C519 C 0.61158 0.95084 0.82682 0.0
C520 C 0.60279 0.93271 0.8352 0.0
C521 C 0.61392 0.95261 0.80763 0.0
C522 C 0.60766 0.9363 0.79654 0.0
C523 C 0.59966 0.91833 0.805 0.0
C524 C 0.59727 0.91655 0.82406 0.0
C525 C 0.60805 0.93754 0.77608 0.0
C526 C 0.59077 0.9268 0.76659 0.0
C527 C 0.62498 0.94895 0.76591 0.0
C528 C 0.64374 0.96032 0.77506 0.0
C529 C 0.65081 0.95152 0.78688 0.0
C530 C 0.6685 0.96236 0.79549 0.0
C531 C 0.67932 0.98199 0.79229 0.0
C532 C 0.67249 0.99082 0.78042 0.0
C533 C 0.6548 0.98004 0.77178 0.0
H534 H 0.69301 0.99036 0.79897 0.0
H535 H 0.52202 0.88607 0.71381 0.0
H536 H 0.68755 0.59005 0.32695 0.0
H537 H 0.68959 0.59727 0.29424 0.0
H538 H 0.65424 0.62269 0.30207 0.0
H539 H 0.65193 0.61528 0.33507 0.0
H540 H 0.64184 0.5978 0.27354 0.0
H541 H 0.70132 0.65077 0.2915 0.0
H542 H 0.73244 0.6674 0.30728 0.0
H543 H 0.75183 0.63532 0.27597 0.0
H544 H 0.72074 0.61829 0.26016 0.0
H545 H 0.65303 0.61722 0.17685 0.0
H546 H 0.65499 0.62374 0.21001 0.0
H547 H 0.68958 0.59738 0.21714 0.0
H548 H 0.68784 0.59099 0.18421 0.0
H549 H 0.70251 0.62899 0.2383 0.0
H550 H 0.64179 0.57252 0.22489 0.0
H551 H 0.61049 0.55465 0.20955 0.0
H552 H 0.59354 0.59278 0.23272 0.0
H553 H 0.62486 0.61102 0.24801 0.0
C554 C 0.68036 0.59739 0.32183 0.0
C555 C 0.66954 0.60206 0.33369 0.0
C556 C 0.68164 0.60161 0.30308 0.0
C557 C 0.67223 0.6107 0.29568 0.0
C558 C 0.66169 0.61574 0.30749 0.0
C559 C 0.66045 0.61157 0.32636 0.0
C560 C 0.67252 0.61368 0.27543 0.0
C561 C 0.65511 0.60507 0.26586 0.0
C562 C 0.68982 0.62285 0.26536 0.0
C563 C 0.70864 0.63318 0.27471 0.0
C564 C 0.71218 0.64717 0.28805 0.0
C565 C 0.72982 0.65669 0.29699 0.0
C566 C 0.7441 0.6524 0.29265 0.0
C567 C 0.74077 0.63862 0.27931 0.0
C568 C 0.72314 0.62906 0.27033 0.0
C569 C 0.66129 0.61308 0.18545 0.0
C570 C 0.67015 0.60344 0.17787 0.0
C571 C 0.66233 0.61674 0.20441 0.0
C572 C 0.67225 0.61085 0.2161 0.0
C573 C 0.68183 0.60205 0.20842 0.0
C574 C 0.68074 0.59833 0.18955 0.0
C575 C 0.67187 0.6127 0.23646 0.0
C576 C 0.68926 0.62217 0.24602 0.0
C577 C 0.65456 0.60425 0.24653 0.0
C578 C 0.63574 0.59328 0.23739 0.0
C579 C 0.63144 0.57718 0.22658 0.0
C580 C 0.6137 0.56697 0.21792 0.0
C581 C 0.60006 0.57262 0.22011 0.0
C582 C 0.60413 0.58845 0.231 0.0
C583 C 0.62188 0.59873 0.23967 0.0
H584 H 0.58633 0.56469 0.2134 0.0
H585 H 0.75774 0.65977 0.29959 0.0
H586 H 0.09979 0.68645 0.6839 0.0
H587 H 0.09526 0.68642 0.71701 0.0
H588 H 0.03422 0.655 0.70971 0.0
H589 H 0.03859 0.65483 0.67622 0.0
H590 H 0.04845 0.68518 0.73829 0.0
H591 H 0.05147 0.62974 0.72113 0.0
H592 H 0.06435 0.61181 0.70496 0.0
H593 H 0.11769 0.64407 0.73336 0.0
H594 H 0.10523 0.66243 0.74949 0.0
H595 H 0.03972 0.6564 0.83513 0.0
H596 H 0.03543 0.65701 0.80169 0.0
H597 H 0.09636 0.68441 0.79407 0.0
H598 H 0.1008 0.68397 0.82713 0.0
H599 H 0.07657 0.65219 0.77275 0.0
H600 H 0.07407 0.70909 0.78816 0.0
H601 H 0.06129 0.72729 0.80402 0.0
H602 H 0.00648 0.69176 0.7792 0.0
H603 H 0.01888 0.67318 0.76338 0.0
C604 C 0.08535 0.67972 0.6892 0.0
C605 C 0.06955 0.67043 0.67734 0.0
C606 C 0.0828 0.67975 0.70818 0.0
C607 C 0.06442 0.67052 0.71582 0.0
C608 C 0.04853 0.66219 0.70406 0.0
C609 C 0.05107 0.66208 0.68494 0.0
C610 C 0.06224 0.66836 0.73612 0.0
C611 C 0.05423 0.67766 0.74586 0.0
C612 C 0.06992 0.65866 0.74597 0.0
C613 C 0.07746 0.64757 0.73641 0.0
C614 C 0.066 0.63312 0.72382 0.0
C615 C 0.07322 0.62286 0.71468 0.0
C616 C 0.09184 0.62683 0.7181 0.0
C617 C 0.10327 0.64103 0.73071 0.0
C618 C 0.09613 0.65136 0.73987 0.0
C619 C 0.05221 0.66281 0.82634 0.0
C620 C 0.0706 0.67001 0.83386 0.0
C621 C 0.04973 0.66315 0.80724 0.0
C622 C 0.06558 0.67067 0.79538 0.0
C623 C 0.08392 0.67844 0.80294 0.0
C624 C 0.08642 0.6782 0.82191 0.0
C625 C 0.06333 0.66952 0.77504 0.0
C626 C 0.07049 0.65949 0.76525 0.0
C627 C 0.05479 0.67846 0.76525 0.0
C628 C 0.04733 0.68959 0.77478 0.0
C629 C 0.05924 0.70503 0.78624 0.0
C630 C 0.05208 0.71545 0.79518 0.0
C631 C 0.03306 0.71064 0.79267 0.0
C632 C 0.02119 0.69544 0.78117 0.0
C633 C 0.02828 0.68497 0.7722 0.0
H634 H 0.02755 0.71873 0.7996 0.0
H635 H 0.0974 0.61886 0.71101 0.0
H636 H 0.96838 0.61431 0.17494 0.0
H637 H 0.97452 0.62113 0.20794 0.0
H638 H 0.91555 0.60496 0.21633 0.0
H639 H 0.90934 0.59824 0.18357 0.0
H640 H 0.93924 0.6361 0.23685 0.0
H641 H 0.93065 0.5734 0.22378 0.0
H642 H 0.93845 0.551 0.20831 0.0
H643 H 0.99522 0.58118 0.23049 0.0
H644 H 0.98781 0.60393 0.2459 0.0
H645 H 0.91052 0.59844 0.32557 0.0
H646 H 0.91648 0.6055 0.29285 0.0
H647 H 0.9754 0.62112 0.30043 0.0
H648 H 0.9695 0.614 0.33344 0.0
H649 H 0.95881 0.59606 0.27194 0.0
H650 H 0.96486 0.65525 0.28979 0.0
H651 H 0.95628 0.67692 0.30554 0.0
H652 H 0.90406 0.65328 0.27476 0.0
H653 H 0.91218 0.63127 0.259 0.0
C654 C 0.95681 0.61252 0.18377 0.0
C655 C 0.93833 0.60558 0.17662 0.0
C656 C 0.96032 0.61633 0.20264 0.0
C657 C 0.94544 0.61335 0.21465 0.0
C658 C 0.92725 0.60736 0.20736 0.0
C659 C 0.92371 0.60344 0.1886 0.0
C660 C 0.94823 0.61521 0.23495 0.0
C661 C 0.94351 0.62735 0.24454 0.0
C662 C 0.95433 0.6042 0.24497 0.0
C663 C 0.95876 0.5905 0.23578 0.0
C664 C 0.94485 0.57535 0.22523 0.0
C665 C 0.94918 0.56258 0.21649 0.0
C666 C 0.96734 0.56471 0.21836 0.0
C667 C 0.98117 0.57958 0.22901 0.0
C668 C 0.97692 0.59241 0.23775 0.0
C669 C 0.92483 0.60363 0.32039 0.0
C670 C 0.93953 0.60562 0.33216 0.0
C671 C 0.92825 0.60776 0.30164 0.0
C672 C 0.94643 0.61398 0.29417 0.0
C673 C 0.96128 0.61641 0.30591 0.0
C674 C 0.9579 0.61241 0.32478 0.0
C675 C 0.94929 0.61658 0.2739 0.0
C676 C 0.95501 0.60521 0.26429 0.0
C677 C 0.94406 0.62827 0.26387 0.0
C678 C 0.93909 0.64152 0.27328 0.0
C679 C 0.95148 0.65457 0.28647 0.0
C680 C 0.9467 0.66694 0.29539 0.0
C681 C 0.92962 0.66646 0.29118 0.0
C682 C 0.91729 0.65364 0.27801 0.0
C683 C 0.92198 0.64123 0.26905 0.0
H684 H 0.92595 0.67605 0.2981 0.0
H685 H 0.97067 0.5548 0.21158 0.0
H686 H 0.34009 0.9081 0.824 0.0
H687 H 0.33902 0.91271 0.79107 0.0
H688 H 0.32726 0.95844 0.8013 0.0
H689 H 0.32957 0.95459 0.83457 0.0
H690 H 0.31382 0.90789 0.76932 0.0
H691 H 0.34086 0.98888 0.76465 0.0
H692 H 0.36229 0.01865 0.78129 0.0
H693 H 0.39415 0.99332 0.80224 0.0
H694 H 0.37305 0.9635 0.78557 0.0
H695 H 0.30391 0.92055 0.67604 0.0
H696 H 0.30153 0.92356 0.70935 0.0
H697 H 0.36268 0.96032 0.71228 0.0
H698 H 0.36474 0.95861 0.6788 0.0
H699 H 0.34923 0.97052 0.73786 0.0
H700 H 0.33776 0.90874 0.71913 0.0
H701 H 0.32183 0.87826 0.70213 0.0
H702 H 0.26851 0.86385 0.72794 0.0
H703 H 0.2841 0.89437 0.74493 0.0
C704 C 0.3373 0.91918 0.81927 0.0
C705 C 0.33489 0.93097 0.83189 0.0
C706 C 0.33663 0.92178 0.80037 0.0
C707 C 0.33313 0.93599 0.7935 0.0
C708 C 0.33039 0.94763 0.80612 0.0
C709 C 0.33157 0.94535 0.82515 0.0
C710 C 0.33222 0.93818 0.77314 0.0
C711 C 0.32156 0.92164 0.76252 0.0
C712 C 0.34242 0.95602 0.76403 0.0
C713 C 0.35522 0.9739 0.77406 0.0
C714 C 0.35246 0.98969 0.77279 0.0
C715 C 0.36455 0.00657 0.78222 0.0
C716 C 0.37953 0.00785 0.79288 0.0
C717 C 0.3825 0.99228 0.79406 0.0
C718 C 0.37046 0.97538 0.78464 0.0
C719 C 0.31672 0.9297 0.6838 0.0
C720 C 0.33451 0.93931 0.67495 0.0
C721 C 0.31542 0.93126 0.70286 0.0
C722 C 0.332 0.94162 0.71356 0.0
C723 C 0.34965 0.95215 0.70449 0.0
C724 C 0.35085 0.95117 0.68533 0.0
C725 C 0.33126 0.94017 0.7341 0.0
C726 C 0.34142 0.95682 0.74473 0.0
C727 C 0.32143 0.9223 0.74323 0.0
C728 C 0.31204 0.90391 0.73312 0.0
C729 C 0.32261 0.89911 0.72109 0.0
C730 C 0.31365 0.88183 0.71147 0.0
C731 C 0.29416 0.86915 0.71391 0.0
C732 C 0.2836 0.8737 0.72603 0.0
C733 C 0.29249 0.89098 0.73567 0.0
H734 H 0.28725 0.85579 0.70645 0.0
H735 H 0.38886 0.02092 0.80017 0.0
H736 H 0.40127 0.307 0.32937 0.0
H737 H 0.39612 0.30575 0.29622 0.0
H738 H 0.38081 0.34958 0.30076 0.0
H739 H 0.38557 0.35064 0.33421 0.0
H740 H 0.35953 0.32299 0.27396 0.0
H741 H 0.4255 0.3621 0.28955 0.0
H742 H 0.45573 0.36986 0.30487 0.0
H743 H 0.45661 0.3238 0.27633 0.0
H744 H 0.42622 0.31558 0.26104 0.0
H745 H 0.38426 0.35165 0.17849 0.0
H746 H 0.37946 0.34959 0.21195 0.0
H747 H 0.3972 0.30746 0.21493 0.0
H748 H 0.40234 0.30969 0.18177 0.0
H749 H 0.41695 0.3356 0.2382 0.0
H750 H 0.3503 0.29651 0.2226 0.0
H751 H 0.32022 0.28943 0.20737 0.0
H752 H 0.32103 0.33657 0.23542 0.0
H753 H 0.35126 0.34409 0.25064 0.0
C754 C 0.3965 0.31617 0.3234 0.0
C755 C 0.39408 0.32911 0.33442 0.0
C756 C 0.39358 0.31545 0.30442 0.0
C757 C 0.3885 0.32788 0.29593 0.0
C758 C 0.38483 0.33993 0.307 0.0
C759 C 0.38757 0.34053 0.32611 0.0
C760 C 0.38869 0.32929 0.2755 0.0
C761 C 0.37213 0.32597 0.26611 0.0
C762 C 0.40512 0.3331 0.26524 0.0
C763 C 0.4235 0.33813 0.27427 0.0
C764 C 0.43208 0.35355 0.28663 0.0
C765 C 0.44925 0.35804 0.2953 0.0
C766 C 0.45807 0.34731 0.29161 0.0
C767 C 0.44975 0.33209 0.27919 0.0
C768 C 0.43257 0.32752 0.27051 0.0
C769 C 0.38677 0.34168 0.18625 0.0
C770 C 0.39385 0.33097 0.17747 0.0
C771 C 0.38399 0.3405 0.20539 0.0
C772 C 0.38802 0.3284 0.21601 0.0
C773 C 0.39413 0.317 0.20708 0.0
C774 C 0.39704 0.31828 0.18808 0.0
C775 C 0.38759 0.32869 0.23651 0.0
C776 C 0.40427 0.33257 0.24597 0.0
C777 C 0.37133 0.32552 0.24672 0.0
C778 C 0.35315 0.32099 0.2376 0.0
C779 C 0.34415 0.30547 0.2254 0.0
C780 C 0.32705 0.30135 0.2168 0.0
C781 C 0.31875 0.31258 0.22039 0.0
C782 C 0.32749 0.32791 0.23263 0.0
C783 C 0.3446 0.33209 0.24126 0.0
H784 H 0.30551 0.30937 0.21371 0.0
H785 H 0.47136 0.3508 0.29834 0.0
H786 H 0.09797 0.40928 0.68514 0.0
H787 H 0.0933 0.40251 0.71798 0.0
H788 H 0.03251 0.37773 0.71116 0.0
H789 H 0.03709 0.38468 0.67806 0.0
H790 H 0.04547 0.40279 0.7393 0.0
H791 H 0.0513 0.3494 0.72169 0.0
H792 H 0.06523 0.33215 0.70605 0.0
H793 H 0.1171 0.36409 0.73676 0.0
H794 H 0.1036 0.38174 0.75241 0.0
H795 H 0.03826 0.38469 0.83626 0.0
H796 H 0.03327 0.37791 0.80317 0.0
H797 H 0.09401 0.4031 0.79542 0.0
H798 H 0.09908 0.40967 0.82827 0.0
H799 H 0.07502 0.37169 0.77454 0.0
H800 H 0.07102 0.42847 0.78767 0.0
H801 H 0.05767 0.44647 0.80294 0.0
H802 H 0.00247 0.40813 0.78023 0.0
H803 H 0.01547 0.38976 0.76501 0.0
C804 C 0.08355 0.40217 0.69051 0.0
C805 C 0.06791 0.39756 0.6789 0.0
C806 C 0.08089 0.3982 0.70934 0.0
C807 C 0.06253 0.38944 0.71707 0.0
C808 C 0.0468 0.38444 0.7055 0.0
C809 C 0.04945 0.38835 0.68657 0.0
C810 C 0.06014 0.38678 0.73739 0.0
C811 C 0.05152 0.39557 0.74697 0.0
C812 C 0.06827 0.37761 0.74748 0.0
C813 C 0.07646 0.36698 0.73816 0.0
C814 C 0.06573 0.35285 0.72502 0.0
C815 C 0.07354 0.34298 0.71617 0.0
C816 C 0.09205 0.34704 0.72039 0.0
C817 C 0.10277 0.36096 0.73351 0.0
C818 C 0.09503 0.37088 0.7424 0.0
C819 C 0.05052 0.38853 0.82754 0.0
C820 C 0.06909 0.39787 0.83495 0.0
C821 C 0.04765 0.38473 0.80861 0.0
C822 C 0.06329 0.39021 0.79674 0.0
C823 C 0.08171 0.39873 0.80426 0.0
C824 C 0.08459 0.40256 0.82309 0.0
C825 C 0.06084 0.38816 0.77639 0.0
C826 C 0.06859 0.37852 0.76682 0.0
C827 C 0.05194 0.39656 0.7663 0.0
C828 C 0.04415 0.40761 0.77541 0.0
C829 C 0.056 0.4238 0.78606 0.0
C830 C 0.04851 0.43408 0.79468 0.0
C831 C 0.02922 0.42841 0.7926 0.0
C832 C 0.0174 0.41248 0.78186 0.0
C833 C 0.02482 0.40213 0.77323 0.0
H834 H 0.02345 0.43639 0.79928 0.0
H835 H 0.09807 0.33938 0.71351 0.0
H836 H 0.68646 0.09645 0.32821 0.0
H837 H 0.68615 0.09259 0.29498 0.0
H838 H 0.65277 0.03147 0.30107 0.0
H839 H 0.65296 0.03517 0.33468 0.0
H840 H 0.68197 0.04459 0.27232 0.0
H841 H 0.62912 0.05152 0.29087 0.0
H842 H 0.61296 0.06588 0.30775 0.0
H843 H 0.6475 0.11912 0.27981 0.0
H844 H 0.6641 0.10516 0.26297 0.0
H845 H 0.65248 0.03855 0.17615 0.0
H846 H 0.65345 0.03389 0.20947 0.0
H847 H 0.68351 0.09487 0.21745 0.0
H848 H 0.68266 0.09967 0.18449 0.0
H849 H 0.65193 0.07658 0.23933 0.0
H850 H 0.70614 0.06991 0.22232 0.0
H851 H 0.72239 0.05547 0.20572 0.0
H852 H 0.68462 0.00115 0.23043 0.0
H853 H 0.66796 0.01522 0.24699 0.0
C854 C 0.67924 0.08212 0.32261 0.0
C855 C 0.66952 0.06612 0.33417 0.0
C856 C 0.6791 0.07996 0.30356 0.0
C857 C 0.66921 0.06177 0.29554 0.0
C858 C 0.66045 0.04564 0.307 0.0
C859 C 0.66056 0.04779 0.32619 0.0
C860 C 0.66687 0.06009 0.27522 0.0
C861 C 0.6751 0.05126 0.26507 0.0
C862 C 0.658 0.06889 0.26578 0.0
C863 C 0.64796 0.07733 0.27577 0.0
C864 C 0.63338 0.06633 0.28843 0.0
C865 C 0.62412 0.0744 0.29798 0.0
C866 C 0.62923 0.09341 0.29488 0.0
C867 C 0.64357 0.1044 0.2822 0.0
C868 C 0.6529 0.09641 0.27264 0.0
C869 C 0.65955 0.05096 0.18498 0.0
C870 C 0.66737 0.06949 0.1776 0.0
C871 C 0.6601 0.04827 0.20402 0.0
C872 C 0.66848 0.06404 0.21596 0.0
C873 C 0.67686 0.08249 0.20853 0.0
C874 C 0.67638 0.08519 0.18961 0.0
C875 C 0.66758 0.06164 0.2363 0.0
C876 C 0.65861 0.06967 0.24651 0.0
C877 C 0.67567 0.05202 0.24568 0.0
C878 C 0.68565 0.04356 0.23571 0.0
C879 C 0.70117 0.05484 0.22407 0.0
C880 C 0.71049 0.04674 0.2147 0.0
C881 C 0.7045 0.02739 0.21696 0.0
C882 C 0.68921 0.01612 0.22865 0.0
C883 C 0.67984 0.02416 0.23804 0.0
H884 H 0.71174 0.02114 0.20971 0.0
H885 H 0.62204 0.09963 0.30229 0.0
H886 H 0.59425 0.68784 0.68443 0.0
H887 H 0.60116 0.69017 0.71725 0.0
H888 H 0.6252 0.65345 0.71073 0.0
H889 H 0.61814 0.65086 0.67766 0.0
H890 H 0.60006 0.64195 0.73901 0.0
H891 H 0.6541 0.70043 0.72066 0.0
H892 H 0.67168 0.73137 0.70465 0.0
H893 H 0.64073 0.75256 0.73527 0.0
H894 H 0.62276 0.72166 0.75129 0.0
H895 H 0.61983 0.65383 0.83554 0.0
H896 H 0.62619 0.65533 0.80238 0.0
H897 H 0.60105 0.69097 0.79485 0.0
H898 H 0.59481 0.68968 0.8278 0.0
H899 H 0.63257 0.703 0.77357 0.0
H900 H 0.57522 0.64322 0.78758 0.0
H901 H 0.55676 0.61218 0.80328 0.0
H902 H 0.59373 0.59359 0.78046 0.0
H903 H 0.61256 0.62464 0.7648 0.0
C904 C 0.60122 0.68041 0.68987 0.0
C905 C 0.60561 0.66913 0.67836 0.0
C906 C 0.60527 0.68186 0.70868 0.0
C907 C 0.61386 0.67213 0.71648 0.0
C908 C 0.61862 0.66113 0.705 0.0
C909 C 0.61464 0.65974 0.68609 0.0
C910 C 0.61663 0.67259 0.73677 0.0
C911 C 0.60759 0.65529 0.74654 0.0
C912 C 0.62617 0.68999 0.74665 0.0
C913 C 0.637 0.70866 0.73711 0.0
C914 C 0.65094 0.71164 0.7239 0.0
C915 C 0.66099 0.72918 0.71483 0.0
C916 C 0.6573 0.74391 0.71892 0.0
C917 C 0.64357 0.74114 0.73212 0.0
C918 C 0.63347 0.72362 0.74122 0.0
C919 C 0.61593 0.66223 0.82686 0.0
C920 C 0.60667 0.67151 0.83433 0.0
C921 C 0.6195 0.663 0.8079 0.0
C922 C 0.61389 0.67308 0.79609 0.0
C923 C 0.6055 0.68309 0.80366 0.0
C924 C 0.60186 0.68227 0.82254 0.0
C925 C 0.61562 0.67242 0.77574 0.0
C926 C 0.62545 0.68967 0.76599 0.0
C927 C 0.60677 0.65499 0.76587 0.0
C928 C 0.59543 0.63632 0.77522 0.0
C929 C 0.5795 0.63256 0.78603 0.0
C930 C 0.56895 0.61497 0.7949 0.0
C931 C 0.57411 0.60095 0.79292 0.0
C932 C 0.58978 0.60448 0.78202 0.0
C933 C 0.60039 0.62207 0.77314 0.0
H934 H 0.56592 0.58733 0.7998 0.0
H935 H 0.6651 0.75748 0.71189 0.0
H936 H 0.40305 0.13313 0.09353 0.0
H937 H 0.4009 0.16217 0.08943 0.0
H938 H 0.43964 0.18858 0.13489 0.0
H939 H 0.44181 0.15987 0.13908 0.0
H940 H 0.40821 0.19209 0.13813 0.0
H941 H 0.45429 0.20121 0.09098 0.0
H942 H 0.46561 0.19249 0.0631 0.0
H943 H 0.4202 0.19157 0.03168 0.0
H944 H 0.40846 0.20005 0.05947 0.0
H945 H 0.44517 0.29 0.13483 0.0
H946 H 0.44219 0.25871 0.13126 0.0
H947 H 0.3991 0.24412 0.08963 0.0
H948 H 0.40192 0.2757 0.09319 0.0
H949 H 0.42715 0.23215 0.08178 0.0
H950 H 0.38326 0.22652 0.12872 0.0
H951 H 0.37286 0.23605 0.1567 0.0
H952 H 0.41446 0.23048 0.18865 0.0
H953 H 0.42533 0.22121 0.16079 0.0
C954 C 0.4112 0.14519 0.10255 0.0
C955 C 0.42256 0.14415 0.11666 0.0
C956 C 0.40999 0.16177 0.10017 0.0
C957 C 0.42011 0.17754 0.11187 0.0
C958 C 0.43163 0.17657 0.12576 0.0
C959 C 0.4329 0.16012 0.12809 0.0
C960 C 0.41844 0.19498 0.11027 0.0
C961 C 0.41241 0.20086 0.12581 0.0
C962 C 0.42333 0.20613 0.09402 0.0
C963 C 0.43035 0.20101 0.07734 0.0
C964 C 0.44661 0.19896 0.07817 0.0
C965 C 0.45313 0.19411 0.06237 0.0
C966 C 0.44359 0.19141 0.04564 0.0
C967 C 0.42755 0.19362 0.04466 0.0
C968 C 0.42096 0.19846 0.06042 0.0
C969 C 0.43516 0.28028 0.12476 0.0
C970 C 0.42367 0.28533 0.11439 0.0
C971 C 0.43347 0.26236 0.12276 0.0
C972 C 0.42028 0.24903 0.11034 0.0
C973 C 0.40934 0.25422 0.09933 0.0
C974 C 0.41094 0.27223 0.10141 0.0
C975 C 0.41748 0.22945 0.10983 0.0
C976 C 0.42261 0.22317 0.09395 0.0
C977 C 0.41178 0.21787 0.12578 0.0
C978 C 0.4052 0.2233 0.14262 0.0
C979 C 0.39029 0.22747 0.14168 0.0
C980 C 0.3843 0.2328 0.15752 0.0
C981 C 0.39302 0.2339 0.17443 0.0
C982 C 0.40773 0.22963 0.17554 0.0
C983 C 0.41379 0.22431 0.15973 0.0
H984 H 0.38836 0.23804 0.18668 0.0
H985 H 0.44866 0.18766 0.03343 0.0
H986 H 0.16212 0.45167 0.62884 0.0
H987 H 0.19082 0.45025 0.6219 0.0
H988 H 0.15771 0.39946 0.58949 0.0
H989 H 0.12862 0.40073 0.59649 0.0
H990 H 0.18208 0.39583 0.61348 0.0
H991 H 0.18729 0.4403 0.56784 0.0
H992 H 0.18686 0.46844 0.55538 0.0
H993 H 0.23356 0.50513 0.59064 0.0
H994 H 0.2341 0.4772 0.60351 0.0
H995 H 0.27221 0.40201 0.59414 0.0
H996 H 0.24133 0.40002 0.58854 0.0
H997 H 0.25981 0.45162 0.61992 0.0
H998 H 0.29053 0.4538 0.62536 0.0
H999 H 0.24099 0.45177 0.58964 0.0
H1000 H 0.23165 0.4073 0.6389 0.0
H1001 H 0.23182 0.37946 0.65254 0.0
H1002 H 0.19278 0.34311 0.61101 0.0
H1003 H 0.19258 0.37081 0.59699 0.0
C1004 C 0.16088 0.44025 0.62011 0.0
C1005 C 0.14306 0.42631 0.6132 0.0
C1006 C 0.17737 0.43952 0.61607 0.0
C1007 C 0.17648 0.42488 0.605 0.0
C1008 C 0.15873 0.41094 0.59799 0.0
C1009 C 0.14215 0.41172 0.60195 0.0
C1010 C 0.19411 0.42392 0.60161 0.0
C1011 C 0.19485 0.40787 0.60783 0.0
C1012 C 0.21084 0.43972 0.59449 0.0
C1013 C 0.21067 0.45662 0.58671 0.0
C1014 C 0.19739 0.45436 0.57303 0.0
C1015 C 0.19714 0.47028 0.56588 0.0
C1016 C 0.21016 0.48856 0.57223 0.0
C1017 C 0.22348 0.49096 0.58572 0.0
C1018 C 0.22379 0.47509 0.59293 0.0
C1019 C 0.26974 0.41302 0.59967 0.0
C1020 C 0.2838 0.428 0.61028 0.0
C1021 C 0.25206 0.41183 0.59652 0.0
C1022 C 0.24818 0.42559 0.60396 0.0
C1023 C 0.26246 0.44085 0.61402 0.0
C1024 C 0.28002 0.44203 0.61719 0.0
C1025 C 0.22911 0.42396 0.60206 0.0
C1026 C 0.22811 0.43954 0.59486 0.0
C1027 C 0.21217 0.40777 0.60835 0.0
C1028 C 0.2123 0.39114 0.61676 0.0
C1029 C 0.22323 0.39339 0.63259 0.0
C1030 C 0.22331 0.37764 0.6404 0.0
C1031 C 0.21237 0.35953 0.63261 0.0
C1032 C 0.20129 0.35714 0.61701 0.0
C1033 C 0.20118 0.37286 0.60913 0.0
H1034 H 0.21245 0.34735 0.63868 0.0
H1035 H 0.20993 0.50087 0.56668 0.0
H1036 H 0.87132 0.27233 0.09792 0.0
H1037 H 0.84213 0.24123 0.09417 0.0
H1038 H 0.81187 0.25978 0.12982 0.0
H1039 H 0.84077 0.29051 0.1338 0.0
H1040 H 0.80633 0.22579 0.14016 0.0
H1041 H 0.80505 0.25577 0.08279 0.0
H1042 H 0.81799 0.27137 0.05289 0.0
H1043 H 0.82063 0.22228 0.03449 0.0
H1044 H 0.80793 0.20648 0.06439 0.0
H1045 H 0.70953 0.1635 0.13023 0.0
H1046 H 0.74104 0.19156 0.12695 0.0
H1047 H 0.75946 0.15912 0.09442 0.0
H1048 H 0.72761 0.13071 0.09751 0.0
H1049 H 0.77351 0.19686 0.08127 0.0
H1050 H 0.77187 0.16573 0.13763 0.0
H1051 H 0.7585 0.15002 0.16738 0.0
H1052 H 0.76165 0.20136 0.18778 0.0
H1053 H 0.77477 0.21729 0.15804 0.0
C1054 C 0.85837 0.2698 0.10479 0.0
C1055 C 0.8584 0.28386 0.11623 0.0
C1056 C 0.8417 0.25205 0.10261 0.0
C1057 C 0.82479 0.24815 0.11173 0.0
C1058 C 0.82475 0.26239 0.12274 0.0
C1059 C 0.84132 0.28 0.12497 0.0
C1060 C 0.80723 0.22909 0.11069 0.0
C1061 C 0.79912 0.21955 0.12727 0.0
C1062 C 0.79816 0.22056 0.09385 0.0
C1063 C 0.80577 0.23004 0.07589 0.0
C1064 C 0.80855 0.24837 0.07242 0.0
C1065 C 0.81581 0.25724 0.05546 0.0
C1066 C 0.82019 0.24785 0.04182 0.0
C1067 C 0.81727 0.22955 0.04508 0.0
C1068 C 0.81003 0.22063 0.06203 0.0
C1069 C 0.72016 0.16229 0.12221 0.0
C1070 C 0.7161 0.14479 0.11429 0.0
C1071 C 0.73821 0.17838 0.12037 0.0
C1072 C 0.75269 0.17735 0.11072 0.0
C1073 C 0.74849 0.16018 0.102 0.0
C1074 C 0.73031 0.14398 0.1038 0.0
C1075 C 0.77235 0.19404 0.11079 0.0
C1076 C 0.78088 0.20302 0.0941 0.0
C1077 C 0.78191 0.20213 0.12755 0.0
C1078 C 0.7742 0.19266 0.14555 0.0
C1079 C 0.7696 0.17363 0.14841 0.0
C1080 C 0.76207 0.16469 0.16528 0.0
C1081 C 0.7592 0.17467 0.17945 0.0
C1082 C 0.76388 0.19364 0.17679 0.0
C1083 C 0.77139 0.20264 0.15993 0.0
H1084 H 0.75337 0.16773 0.1925 0.0
H1085 H 0.8258 0.25474 0.0287 0.0
H1086 H 0.55194 0.7098 0.62916 0.0
H1087 H 0.55357 0.74011 0.62278 0.0
H1088 H 0.60431 0.75795 0.5902 0.0
H1089 H 0.60284 0.72739 0.59666 0.0
H1090 H 0.60814 0.78572 0.61453 0.0
H1091 H 0.56358 0.74737 0.56872 0.0
H1092 H 0.53543 0.71911 0.55589 0.0
H1093 H 0.49876 0.72856 0.59178 0.0
H1094 H 0.52671 0.75672 0.60503 0.0
H1095 H 0.60121 0.86985 0.59672 0.0
H1096 H 0.60343 0.84113 0.5906 0.0
H1097 H 0.55289 0.80767 0.62328 0.0
H1098 H 0.55056 0.83604 0.62936 0.0
H1099 H 0.55215 0.78925 0.59179 0.0
H1100 H 0.59704 0.82354 0.64108 0.0
H1101 H 0.62503 0.85134 0.65476 0.0
H1102 H 0.66092 0.84919 0.61236 0.0
H1103 H 0.63306 0.8215 0.59828 0.0
C1104 C 0.5634 0.72006 0.62051 0.0
C1105 C 0.57726 0.71615 0.6134 0.0
C1106 C 0.56424 0.73738 0.61679 0.0
C1107 C 0.57893 0.75123 0.60583 0.0
C1108 C 0.5928 0.74741 0.59862 0.0
C1109 C 0.5919 0.72994 0.60226 0.0
C1110 C 0.57999 0.76992 0.60278 0.0
C1111 C 0.5961 0.78658 0.60911 0.0
C1112 C 0.56419 0.77102 0.59592 0.0
C1113 C 0.54728 0.75413 0.58793 0.0
C1114 C 0.54953 0.74336 0.57396 0.0
C1115 C 0.5336 0.72736 0.5666 0.0
C1116 C 0.51532 0.72203 0.57303 0.0
C1117 C 0.51293 0.73271 0.58681 0.0
C1118 C 0.52881 0.74871 0.59423 0.0
C1119 C 0.5905 0.85632 0.60245 0.0
C1120 C 0.57576 0.85525 0.6136 0.0
C1121 C 0.59182 0.83995 0.599 0.0
C1122 C 0.57838 0.82226 0.60658 0.0
C1123 C 0.56339 0.82113 0.61725 0.0
C1124 C 0.56214 0.83742 0.62078 0.0
C1125 C 0.58001 0.80489 0.60412 0.0
C1126 C 0.56439 0.78846 0.59676 0.0
C1127 C 0.59623 0.80401 0.61005 0.0
C1128 C 0.61295 0.82064 0.61849 0.0
C1129 C 0.61087 0.82911 0.63458 0.0
C1130 C 0.62671 0.84482 0.64243 0.0
C1131 C 0.64473 0.85207 0.6344 0.0
C1132 C 0.64695 0.84359 0.61853 0.0
C1133 C 0.63114 0.82789 0.61062 0.0
H1134 H 0.65698 0.86423 0.64049 0.0
H1135 H 0.50301 0.70963 0.56731 0.0
H1136 H 0.7094 0.54898 0.13159 0.0
H1137 H 0.74073 0.55194 0.12841 0.0
H1138 H 0.75925 0.60171 0.0942 0.0
H1139 H 0.72761 0.59878 0.09725 0.0
H1140 H 0.7726 0.57688 0.08202 0.0
H1141 H 0.77219 0.60913 0.13698 0.0
H1142 H 0.75936 0.61291 0.16649 0.0
H1143 H 0.76241 0.56543 0.18904 0.0
H1144 H 0.77499 0.56118 0.15956 0.0
H1145 H 0.87047 0.59951 0.09783 0.0
H1146 H 0.84128 0.60142 0.09408 0.0
H1147 H 0.81188 0.55461 0.1321 0.0
H1148 H 0.8408 0.55281 0.13608 0.0
H1149 H 0.80638 0.58338 0.14092 0.0
H1150 H 0.80392 0.54931 0.0852 0.0
H1151 H 0.8162 0.545 0.05557 0.0
H1152 H 0.81871 0.59583 0.03453 0.0
H1153 H 0.80667 0.60057 0.06414 0.0
C1154 C 0.72002 0.56047 0.12321 0.0
C1155 C 0.71605 0.57377 0.11482 0.0
C1156 C 0.73795 0.56214 0.12143 0.0
C1157 C 0.75241 0.57722 0.11132 0.0
C1158 C 0.74829 0.59001 0.10213 0.0
C1159 C 0.73024 0.58833 0.1039 0.0
C1160 C 0.77199 0.57998 0.11142 0.0
C1161 C 0.78019 0.57866 0.09484 0.0
C1162 C 0.7818 0.58214 0.12817 0.0
C1163 C 0.77441 0.58476 0.146 0.0
C1164 C 0.77001 0.59941 0.14819 0.0
C1165 C 0.76279 0.60165 0.16492 0.0
C1166 C 0.76004 0.58939 0.17962 0.0
C1167 C 0.76454 0.57491 0.17764 0.0
C1168 C 0.77173 0.57259 0.16092 0.0
C1169 C 0.85772 0.58954 0.10525 0.0
C1170 C 0.85799 0.57607 0.11731 0.0
C1171 C 0.84104 0.59062 0.10307 0.0
C1172 C 0.82436 0.57815 0.11281 0.0
C1173 C 0.82458 0.56446 0.12452 0.0
C1174 C 0.84116 0.56342 0.12674 0.0
C1175 C 0.80677 0.57959 0.1116 0.0
C1176 C 0.79897 0.58183 0.12804 0.0
C1177 C 0.79741 0.57827 0.09473 0.0
C1178 C 0.80462 0.57542 0.07695 0.0
C1179 C 0.80725 0.55966 0.07431 0.0
C1180 C 0.81413 0.55712 0.05751 0.0
C1181 C 0.81829 0.57017 0.0432 0.0
C1182 C 0.81552 0.58575 0.04564 0.0
C1183 C 0.80866 0.58837 0.06242 0.0
H1184 H 0.82361 0.56817 0.0302 0.0
H1185 H 0.75445 0.59115 0.19256 0.0
H1186 H 0.29008 0.84194 0.63228 0.0
H1187 H 0.26 0.81289 0.62623 0.0
H1188 H 0.24437 0.84321 0.58758 0.0
H1189 H 0.27469 0.87267 0.59369 0.0
H1190 H 0.21508 0.82092 0.61164 0.0
H1191 H 0.25634 0.81194 0.57136 0.0
H1192 H 0.28539 0.81136 0.56221 0.0
H1193 H 0.27333 0.76775 0.60232 0.0
H1194 H 0.24434 0.76826 0.61191 0.0
H1195 H 0.13194 0.72925 0.59432 0.0
H1196 H 0.16105 0.75992 0.58855 0.0
H1197 H 0.19233 0.74375 0.62545 0.0
H1198 H 0.16362 0.71324 0.63105 0.0
H1199 H 0.21283 0.76026 0.5953 0.0
H1200 H 0.17538 0.7734 0.63899 0.0
H1201 H 0.14684 0.77435 0.64939 0.0
H1202 H 0.15213 0.81021 0.60355 0.0
H1203 H 0.18059 0.80927 0.59275 0.0
C1204 C 0.28036 0.84249 0.62239 0.0
C1205 C 0.28483 0.85964 0.61343 0.0
C1206 C 0.26316 0.8258 0.61888 0.0
C1207 C 0.25002 0.8258 0.60628 0.0
C1208 C 0.25436 0.84288 0.59729 0.0
C1209 C 0.2717 0.85966 0.60074 0.0
C1210 C 0.23154 0.80796 0.60322 0.0
C1211 C 0.21452 0.80772 0.60762 0.0
C1212 C 0.23083 0.79069 0.59823 0.0
C1213 C 0.24819 0.79022 0.59242 0.0
C1214 C 0.25994 0.80231 0.57831 0.0
C1215 C 0.27639 0.80198 0.57303 0.0
C1216 C 0.28121 0.78954 0.58169 0.0
C1217 C 0.26957 0.77738 0.59562 0.0
C1218 C 0.25311 0.77766 0.60096 0.0
C1219 C 0.14507 0.73221 0.60107 0.0
C1220 C 0.14543 0.71882 0.61319 0.0
C1221 C 0.16167 0.74976 0.59782 0.0
C1222 C 0.17887 0.75422 0.60668 0.0
C1223 C 0.17928 0.74065 0.61841 0.0
C1224 C 0.16278 0.7232 0.62166 0.0
C1225 C 0.19646 0.7731 0.60433 0.0
C1226 C 0.21332 0.77352 0.5989 0.0
C1227 C 0.19703 0.79049 0.60845 0.0
C1228 C 0.17994 0.79105 0.61493 0.0
C1229 C 0.17036 0.78135 0.63104 0.0
C1230 C 0.15422 0.78191 0.63703 0.0
C1231 C 0.14763 0.79228 0.6271 0.0
C1232 C 0.15722 0.80215 0.6112 0.0
C1233 C 0.17335 0.80161 0.60514 0.0
H1234 H 0.13514 0.7927 0.63176 0.0
H1235 H 0.29396 0.78931 0.57758 0.0
H1236 H 0.87164 0.59839 0.41231 0.0
H1237 H 0.84251 0.60039 0.41624 0.0
H1238 H 0.81389 0.55593 0.37579 0.0
H1239 H 0.84272 0.55398 0.37169 0.0
H1240 H 0.80899 0.58573 0.36878 0.0
H1241 H 0.8047 0.54754 0.42195 0.0
H1242 H 0.81609 0.54111 0.45109 0.0
H1243 H 0.81803 0.59035 0.47565 0.0
H1244 H 0.80688 0.59722 0.44655 0.0
H1245 H 0.71155 0.54946 0.37656 0.0
H1246 H 0.74312 0.55296 0.37949 0.0
H1247 H 0.7598 0.60005 0.41695 0.0
H1248 H 0.72792 0.5966 0.41413 0.0
H1249 H 0.77325 0.5747 0.42729 0.0
H1250 H 0.77432 0.61089 0.375 0.0
H1251 H 0.76245 0.61692 0.34597 0.0
H1252 H 0.76681 0.57167 0.31972 0.0
H1253 H 0.77843 0.56517 0.34868 0.0
C1254 C 0.85908 0.58896 0.40437 0.0
C1255 C 0.85953 0.57607 0.39164 0.0
C1256 C 0.84244 0.59009 0.40666 0.0
C1257 C 0.826 0.5783 0.3963 0.0
C1258 C 0.8264 0.56524 0.38385 0.0
C1259 C 0.84293 0.56411 0.38157 0.0
C1260 C 0.80843 0.57975 0.39774 0.0
C1261 C 0.80115 0.58321 0.38157 0.0
C1262 C 0.79852 0.57716 0.41454 0.0
C1263 C 0.80519 0.57303 0.43201 0.0
C1264 C 0.80772 0.55709 0.43351 0.0
C1265 C 0.8141 0.55335 0.45003 0.0
C1266 C 0.81784 0.56535 0.46519 0.0
C1267 C 0.81516 0.58109 0.46388 0.0
C1268 C 0.80881 0.58491 0.44738 0.0
C1269 C 0.72181 0.56048 0.38558 0.0
C1270 C 0.71725 0.57287 0.39499 0.0
C1271 C 0.73989 0.56247 0.38721 0.0
C1272 C 0.7539 0.57695 0.39821 0.0
C1273 C 0.7492 0.58883 0.40833 0.0
C1274 C 0.73101 0.58686 0.40668 0.0
C1275 C 0.77358 0.57999 0.3982 0.0
C1276 C 0.78127 0.57748 0.41458 0.0
C1277 C 0.78396 0.58349 0.38159 0.0
C1278 C 0.77713 0.58746 0.36407 0.0
C1279 C 0.77263 0.60213 0.36308 0.0
C1280 C 0.76596 0.60565 0.34662 0.0
C1281 C 0.76385 0.59466 0.33102 0.0
C1282 C 0.76844 0.58017 0.33182 0.0
C1283 C 0.7751 0.57657 0.34825 0.0
H1284 H 0.75868 0.59741 0.31829 0.0
H1285 H 0.82277 0.56242 0.47797 0.0
H1286 H 0.16414 0.7119 0.88521 0.0
H1287 H 0.19253 0.74253 0.8913 0.0
H1288 H 0.1586 0.76111 0.92112 0.0
H1289 H 0.12982 0.73022 0.91498 0.0
H1290 H 0.18291 0.78799 0.89609 0.0
H1291 H 0.18844 0.75188 0.94476 0.0
H1292 H 0.18829 0.72432 0.95942 0.0
H1293 H 0.23535 0.73273 0.92548 0.0
H1294 H 0.23561 0.76018 0.91041 0.0
H1295 H 0.27303 0.87337 0.91294 0.0
H1296 H 0.24208 0.84479 0.91924 0.0
H1297 H 0.26055 0.81021 0.89042 0.0
H1298 H 0.29131 0.83844 0.88423 0.0
H1299 H 0.2421 0.79313 0.92185 0.0
H1300 H 0.2323 0.82488 0.86968 0.0
H1301 H 0.23217 0.85187 0.85402 0.0
H1302 H 0.19298 0.85124 0.89431 0.0
H1303 H 0.19309 0.82438 0.91034 0.0
C1304 C 0.16266 0.7224 0.89321 0.0
C1305 C 0.1447 0.7186 0.89963 0.0
C1306 C 0.17896 0.7399 0.89676 0.0
C1307 C 0.17775 0.75406 0.90684 0.0
C1308 C 0.15987 0.75034 0.91339 0.0
C1309 C 0.14347 0.73268 0.90993 0.0
C1310 C 0.19518 0.77294 0.9096 0.0
C1311 C 0.19574 0.78923 0.90216 0.0
C1312 C 0.21198 0.77451 0.91729 0.0
C1313 C 0.21198 0.75805 0.92639 0.0
C1314 C 0.19868 0.74778 0.94033 0.0
C1315 C 0.19859 0.73219 0.94873 0.0
C1316 C 0.21179 0.72676 0.94337 0.0
C1317 C 0.22514 0.73695 0.92962 0.0
C1318 C 0.22528 0.75255 0.92116 0.0
C1319 C 0.27052 0.85964 0.90808 0.0
C1320 C 0.2846 0.8582 0.89801 0.0
C1321 C 0.25281 0.84334 0.91164 0.0
C1322 C 0.24895 0.82536 0.90519 0.0
C1323 C 0.2632 0.8239 0.89557 0.0
C1324 C 0.28078 0.84011 0.89197 0.0
C1325 C 0.22997 0.808 0.90778 0.0
C1326 C 0.22915 0.79199 0.91622 0.0
C1327 C 0.21296 0.80668 0.90097 0.0
C1328 C 0.2129 0.82281 0.89134 0.0
C1329 C 0.22379 0.83061 0.87529 0.0
C1330 C 0.2237 0.84586 0.86633 0.0
C1331 C 0.21263 0.85331 0.8732 0.0
C1332 C 0.20159 0.84549 0.88903 0.0
C1333 C 0.20166 0.83025 0.89805 0.0
H1334 H 0.21257 0.86511 0.86624 0.0
H1335 H 0.21169 0.71468 0.94989 0.0
H1336 H 0.40429 0.13094 0.41456 0.0
H1337 H 0.4019 0.15959 0.42032 0.0
H1338 H 0.45234 0.19293 0.38746 0.0
H1339 H 0.45497 0.16465 0.38192 0.0
H1340 H 0.45343 0.21203 0.41764 0.0
H1341 H 0.40685 0.17615 0.37025 0.0
H1342 H 0.37858 0.1479 0.35753 0.0
H1343 H 0.34392 0.1505 0.40097 0.0
H1344 H 0.37207 0.17865 0.41407 0.0
H1345 H 0.45017 0.29026 0.38112 0.0
H1346 H 0.44957 0.26034 0.387 0.0
H1347 H 0.40026 0.24179 0.42191 0.0
H1348 H 0.40069 0.27193 0.41596 0.0
H1349 H 0.39595 0.21405 0.39724 0.0
H1350 H 0.44244 0.25382 0.44129 0.0
H1351 H 0.47097 0.28266 0.45274 0.0
H1352 H 0.50616 0.2732 0.41483 0.0
H1353 H 0.47781 0.24445 0.40296 0.0
C1354 C 0.41494 0.14442 0.4087 0.0
C1355 C 0.42978 0.14549 0.39772 0.0
C1356 C 0.41351 0.16076 0.41194 0.0
C1357 C 0.42685 0.1784 0.40418 0.0
C1358 C 0.4419 0.17952 0.39362 0.0
C1359 C 0.44334 0.16327 0.39041 0.0
C1360 C 0.42508 0.19575 0.40646 0.0
C1361 C 0.44088 0.21248 0.41315 0.0
C1362 C 0.40849 0.19623 0.40114 0.0
C1363 C 0.39159 0.17933 0.39327 0.0
C1364 C 0.39323 0.17059 0.37717 0.0
C1365 C 0.37723 0.15462 0.36988 0.0
C1366 C 0.35948 0.14736 0.37847 0.0
C1367 C 0.35769 0.1561 0.39435 0.0
C1368 C 0.37365 0.17207 0.40171 0.0
C1369 C 0.43926 0.27993 0.39018 0.0
C1370 C 0.42549 0.28351 0.39809 0.0
C1371 C 0.439 0.26283 0.3936 0.0
C1372 C 0.42501 0.24889 0.40507 0.0
C1373 C 0.41124 0.25239 0.41309 0.0
C1374 C 0.41155 0.26963 0.40973 0.0
C1375 C 0.42454 0.23045 0.40787 0.0
C1376 C 0.40835 0.21352 0.40213 0.0
C1377 C 0.44081 0.22979 0.41398 0.0
C1378 C 0.45796 0.24701 0.42117 0.0
C1379 C 0.45624 0.25795 0.43531 0.0
C1380 C 0.47239 0.27428 0.44189 0.0
C1381 C 0.49036 0.27977 0.4345 0.0
C1382 C 0.49223 0.26893 0.42054 0.0
C1383 C 0.47613 0.25259 0.4139 0.0
H1384 H 0.50284 0.29242 0.43961 0.0
H1385 H 0.3471 0.135 0.3728 0.0
H1386 H 0.29276 0.45478 0.88521 0.0
H1387 H 0.26229 0.45287 0.89141 0.0
H1388 H 0.24441 0.40178 0.92345 0.0
H1389 H 0.27508 0.4035 0.9171 0.0
H1390 H 0.21697 0.3976 0.89934 0.0
H1391 H 0.25442 0.44301 0.94495 0.0
H1392 H 0.28222 0.47163 0.95773 0.0
H1393 H 0.27198 0.50727 0.92119 0.0
H1394 H 0.24427 0.47885 0.90798 0.0
H1395 H 0.13158 0.40223 0.9164 0.0
H1396 H 0.16079 0.40102 0.92276 0.0
H1397 H 0.1932 0.45142 0.88959 0.0
H1398 H 0.16433 0.45276 0.88328 0.0
H1399 H 0.21191 0.45303 0.92118 0.0
H1400 H 0.17846 0.40728 0.87227 0.0
H1401 H 0.15106 0.37878 0.85876 0.0
H1402 H 0.1541 0.3439 0.9017 0.0
H1403 H 0.18139 0.37227 0.91559 0.0
C1404 C 0.28247 0.44321 0.89375 0.0
C1405 C 0.28638 0.42929 0.90068 0.0
C1406 C 0.26505 0.4422 0.89736 0.0
C1407 C 0.25112 0.42731 0.90809 0.0
C1408 C 0.25499 0.41345 0.91522 0.0
C1409 C 0.27253 0.41449 0.91163 0.0
C1410 C 0.23223 0.42592 0.91085 0.0
C1411 C 0.21579 0.40953 0.90457 0.0
C1412 C 0.23069 0.44157 0.91744 0.0
C1413 C 0.2473 0.45876 0.92541 0.0
C1414 C 0.25816 0.45693 0.93955 0.0
C1415 C 0.2739 0.47313 0.94689 0.0
C1416 C 0.27888 0.49125 0.94026 0.0
C1417 C 0.2681 0.49322 0.92631 0.0
C1418 C 0.25235 0.47707 0.91892 0.0
C1419 C 0.14497 0.41313 0.91061 0.0
C1420 C 0.14561 0.42754 0.89927 0.0
C1421 C 0.16163 0.41239 0.9142 0.0
C1422 C 0.17917 0.42607 0.90655 0.0
C1423 C 0.17986 0.44074 0.89568 0.0
C1424 C 0.16329 0.44142 0.89202 0.0
C1425 C 0.19683 0.42499 0.90913 0.0
C1426 C 0.21304 0.44092 0.9164 0.0
C1427 C 0.19816 0.40894 0.90345 0.0
C1428 C 0.18178 0.39192 0.8951 0.0
C1429 C 0.17317 0.39356 0.87892 0.0
C1430 C 0.15769 0.37743 0.87117 0.0
C1431 C 0.1508 0.35955 0.8794 0.0
C1432 C 0.15942 0.35776 0.89536 0.0
C1433 C 0.1749 0.37386 0.90318 0.0
H1434 H 0.13882 0.34708 0.87339 0.0
H1435 H 0.29107 0.50377 0.94596 0.0
H1436 H 0.72982 0.12938 0.41539 0.0
H1437 H 0.76097 0.15856 0.41884 0.0
H1438 H 0.74236 0.18855 0.38294 0.0
H1439 H 0.71152 0.15968 0.37934 0.0
H1440 H 0.77643 0.19355 0.37251 0.0
H1441 H 0.7466 0.1963 0.42937 0.0
H1442 H 0.73084 0.18408 0.45934 0.0
H1443 H 0.77955 0.18125 0.4786 0.0
H1444 H 0.7955 0.19322 0.44863 0.0
H1445 H 0.84065 0.29027 0.38076 0.0
H1446 H 0.81207 0.25915 0.38421 0.0
H1447 H 0.84304 0.24035 0.41848 0.0
H1448 H 0.87193 0.27182 0.41524 0.0
H1449 H 0.80561 0.22729 0.43098 0.0
H1450 H 0.83654 0.22711 0.3751 0.0
H1451 H 0.85245 0.2396 0.34524 0.0
H1452 H 0.80171 0.23712 0.32407 0.0
H1453 H 0.78558 0.22489 0.35391 0.0
C1454 C 0.73233 0.14226 0.4084 0.0
C1455 C 0.71821 0.14217 0.39702 0.0
C1456 C 0.75012 0.15893 0.41041 0.0
C1457 C 0.75401 0.17575 0.40112 0.0
C1458 C 0.73974 0.17573 0.39015 0.0
C1459 C 0.72206 0.15918 0.38815 0.0
C1460 C 0.77313 0.19326 0.40195 0.0
C1461 C 0.78272 0.20097 0.3853 0.0
C1462 C 0.78171 0.2026 0.41869 0.0
C1463 C 0.77214 0.19543 0.43669 0.0
C1464 C 0.75388 0.19291 0.43994 0.0
C1465 C 0.74493 0.18606 0.45694 0.0
C1466 C 0.75416 0.18183 0.47085 0.0
C1467 C 0.77239 0.18449 0.4678 0.0
C1468 C 0.7814 0.19132 0.45081 0.0
C1469 C 0.84142 0.27963 0.38919 0.0
C1470 C 0.85865 0.28348 0.39758 0.0
C1471 C 0.82504 0.2618 0.39112 0.0
C1472 C 0.8255 0.24731 0.40132 0.0
C1473 C 0.84241 0.25132 0.41047 0.0
C1474 C 0.85889 0.26928 0.40858 0.0
C1475 C 0.80849 0.22783 0.40148 0.0
C1476 C 0.79939 0.21972 0.41824 0.0
C1477 C 0.80031 0.21801 0.38484 0.0
C1478 C 0.8099 0.2252 0.36679 0.0
C1479 C 0.82882 0.22935 0.36412 0.0
C1480 C 0.83787 0.23637 0.34719 0.0
C1481 C 0.82811 0.23919 0.33278 0.0
C1482 C 0.80925 0.23494 0.33525 0.0
C1483 C 0.80014 0.22794 0.35216 0.0
H1484 H 0.83514 0.24463 0.31968 0.0
H1485 H 0.74721 0.17653 0.484 0.0
H1486 H 0.60148 0.72968 0.91478 0.0
H1487 H 0.60337 0.76075 0.9187 0.0
H1488 H 0.55337 0.74166 0.8847 0.0
H1489 H 0.55153 0.71092 0.88057 0.0
H1490 H 0.58155 0.77547 0.87343 0.0
H1491 H 0.55211 0.74665 0.93166 0.0
H1492 H 0.55015 0.73142 0.96162 0.0
H1493 H 0.60259 0.78048 0.97859 0.0
H1494 H 0.60499 0.7959 0.94862 0.0
H1495 H 0.54981 0.84006 0.88433 0.0
H1496 H 0.55229 0.81142 0.88752 0.0
H1497 H 0.60427 0.84306 0.91865 0.0
H1498 H 0.6018 0.87204 0.91564 0.0
H1499 H 0.58027 0.80576 0.93242 0.0
H1500 H 0.60834 0.83558 0.87515 0.0
H1501 H 0.61009 0.85094 0.84533 0.0
H1502 H 0.56053 0.79993 0.82649 0.0
H1503 H 0.5583 0.78435 0.85631 0.0
C1504 C 0.59078 0.73206 0.90833 0.0
C1505 C 0.57642 0.71785 0.89728 0.0
C1506 C 0.59186 0.74981 0.91061 0.0
C1507 C 0.57852 0.75356 0.90197 0.0
C1508 C 0.56389 0.73916 0.89141 0.0
C1509 C 0.56284 0.72154 0.8891 0.0
C1510 C 0.58012 0.77268 0.90296 0.0
C1511 C 0.58112 0.78199 0.88635 0.0
C1512 C 0.58029 0.78158 0.91982 0.0
C1513 C 0.57885 0.77232 0.93782 0.0
C1514 C 0.56331 0.75411 0.94172 0.0
C1515 C 0.5621 0.74547 0.95871 0.0
C1516 C 0.57627 0.75495 0.97198 0.0
C1517 C 0.59165 0.77313 0.96829 0.0
C1518 C 0.59293 0.78184 0.95131 0.0
C1519 C 0.5617 0.84097 0.89203 0.0
C1520 C 0.57573 0.85841 0.89957 0.0
C1521 C 0.56311 0.82455 0.89382 0.0
C1522 C 0.57864 0.82517 0.90304 0.0
C1523 C 0.59221 0.8423 0.91141 0.0
C1524 C 0.59079 0.85883 0.90965 0.0
C1525 C 0.58101 0.8081 0.90287 0.0
C1526 C 0.58089 0.79928 0.91956 0.0
C1527 C 0.58169 0.79959 0.88607 0.0
C1528 C 0.58308 0.80885 0.86803 0.0
C1529 C 0.59774 0.82768 0.8647 0.0
C1530 C 0.59882 0.83642 0.84779 0.0
C1531 C 0.58541 0.82643 0.83404 0.0
C1532 C 0.57091 0.80766 0.83716 0.0
C1533 C 0.56974 0.79886 0.85406 0.0
H1534 H 0.58628 0.83322 0.82095 0.0
H1535 H 0.57531 0.74823 0.98513 0.0
H1536 H 0.37555 0.98972 0.92838 0.0
H1537 H 0.37774 0.00372 0.95854 0.0
H1538 H 0.31982 0.95996 0.97044 0.0
H1539 H 0.31804 0.94514 0.9405 0.0
H1540 H 0.36343 0.01956 0.97645 0.0
H1541 H 0.31371 0.95002 0.0158 0.0
H1542 H 0.30189 0.91542 0.01375 0.0
H1543 H 0.35217 0.92647 0.98375 0.0
H1544 H 0.36436 0.96112 0.98582 0.0
H1545 H 0.3668 0.05001 0.06878 0.0
H1546 H 0.35419 0.03473 0.0389 0.0
H1547 H 0.3775 0.99764 0.04803 0.0
H1548 H 0.38889 0.01192 0.07815 0.0
H1549 H 0.34705 0.97815 0.03159 0.0
H1550 H 0.39992 0.04131 0.02045 0.0
H1551 H 0.41793 0.07648 0.02232 0.0
H1552 H 0.37199 0.0791 0.99551 0.0
H1553 H 0.35362 0.04392 0.99368 0.0
C1554 C 0.36319 0.98314 0.93732 0.0
C1555 C 0.34667 0.96621 0.93209 0.0
C1556 C 0.36444 0.99122 0.95462 0.0
C1557 C 0.34909 0.98279 0.96706 0.0
C1558 C 0.33209 0.9665 0.96139 0.0
C1559 C 0.33101 0.95811 0.9442 0.0
C1560 C 0.35146 0.99062 0.98613 0.0
C1561 C 0.35973 0.01045 0.98849 0.0
C1562 C 0.34694 0.97891 1.00199 0.0
C1563 C 0.33979 0.95812 1.00076 0.0
C1564 C 0.32224 0.94505 0.0088 0.0
C1565 C 0.31548 0.92543 0.00763 0.0
C1566 C 0.32624 0.91875 0.99856 0.0
C1567 C 0.34381 0.93166 0.99071 0.0
C1568 C 0.35064 0.95128 0.99186 0.0
C1569 C 0.36895 0.0384 0.06446 0.0
C1570 C 0.37886 0.03219 0.0758 0.0
C1571 C 0.36188 0.02976 0.04731 0.0
C1572 C 0.36518 0.01522 0.04089 0.0
C1573 C 0.37463 0.00873 0.05253 0.0
C1574 C 0.38122 0.01698 0.06981 0.0
C1575 C 0.35962 0.00716 0.0219 0.0
C1576 C 0.35057 0.98726 0.01956 0.0
C1577 C 0.36433 0.01889 0.00604 0.0
C1578 C 0.37532 0.04001 0.00714 0.0
C1579 C 0.39362 0.0494 0.01507 0.0
C1580 C 0.40389 0.06932 0.01611 0.0
C1581 C 0.39608 0.08001 0.00909 0.0
C1582 C 0.378 0.0708 1.00098 0.0
C1583 C 0.36765 0.05087 0.99993 0.0
H1584 H 0.40406 0.09544 0.0099 0.0
H1585 H 0.32097 0.90356 0.99766 0.0
H1586 H 0.36466 0.36088 0.42364 0.0
H1587 H 0.35237 0.36431 0.45325 0.0
H1588 H 0.37753 0.33455 0.48003 0.0
H1589 H 0.38923 0.33041 0.45025 0.0
H1590 H 0.34514 0.32534 0.49625 0.0
H1591 H 0.40003 0.38443 0.47882 0.0
H1592 H 0.41982 0.4119 0.45867 0.0
H1593 H 0.37657 0.42789 0.45936 0.0
H1594 H 0.3564 0.40035 0.47932 0.0
H1595 H 0.35958 0.36864 0.58542 0.0
H1596 H 0.36191 0.35678 0.55512 0.0
H1597 H 0.32898 0.38004 0.5315 0.0
H1598 H 0.32647 0.39186 0.56183 0.0
H1599 H 0.36331 0.39166 0.51349 0.0
H1600 H 0.30983 0.33285 0.53412 0.0
H1601 H 0.29209 0.30596 0.55549 0.0
H1602 H 0.33537 0.29029 0.55041 0.0
H1603 H 0.35352 0.31726 0.52919 0.0
C1604 C 0.36733 0.35479 0.43579 0.0
C1605 C 0.37807 0.34552 0.43462 0.0
C1606 C 0.36038 0.35687 0.45276 0.0
C1607 C 0.36444 0.35015 0.46901 0.0
C1608 C 0.37429 0.33997 0.46773 0.0
C1609 C 0.38098 0.33761 0.45069 0.0
C1610 C 0.35937 0.35469 0.48736 0.0
C1611 C 0.34926 0.33987 0.50006 0.0
C1612 C 0.36452 0.37361 0.49236 0.0
C1613 C 0.37662 0.39021 0.48039 0.0
C1614 C 0.39468 0.39372 0.47456 0.0
C1615 C 0.40597 0.40932 0.46319 0.0
C1616 C 0.39943 0.4216 0.4577 0.0
C1617 C 0.3816 0.41834 0.4636 0.0
C1618 C 0.37024 0.40275 0.47495 0.0
C1619 C 0.35251 0.37093 0.57385 0.0
C1620 C 0.34287 0.38124 0.57605 0.0
C1621 C 0.35382 0.36409 0.55653 0.0
C1622 C 0.3456 0.36749 0.54103 0.0
C1623 C 0.33541 0.37723 0.54328 0.0
C1624 C 0.33392 0.3839 0.56064 0.0
C1625 C 0.34903 0.36234 0.52231 0.0
C1626 C 0.35899 0.3771 0.50958 0.0
C1627 C 0.34404 0.34345 0.51747 0.0
C1628 C 0.33312 0.32719 0.53018 0.0
C1629 C 0.31565 0.32377 0.53768 0.0
C1630 C 0.3055 0.30849 0.54974 0.0
C1631 C 0.31262 0.29645 0.55434 0.0
C1632 C 0.32988 0.29964 0.54684 0.0
C1633 C 0.3401 0.3149 0.53478 0.0
H1634 H 0.30474 0.28463 0.56368 0.0
H1635 H 0.40819 0.43367 0.4489 0.0
H1636 H 0.05794 0.37459 0.94409 0.0
H1637 H 0.04318 0.36147 0.97404 0.0
H1638 H 0.99872 0.37456 0.96191 0.0
H1639 H 0.01273 0.38656 0.93181 0.0
H1640 H 0.03885 0.37622 1.00228 0.0
H1641 H 0.9586 0.34847 0.98414 0.0
H1642 H 0.93634 0.33185 0.95858 0.0
H1643 H 0.97165 0.30937 0.9402 0.0
H1644 H 0.99399 0.32562 0.96579 0.0
H1645 H 0.9906 0.3804 0.08009 0.0
H1646 H 0.00523 0.38224 0.05036 0.0
H1647 H 0.96728 0.32182 0.04231 0.0
H1648 H 0.95166 0.32026 0.07175 0.0
H1649 H 0.96903 0.33703 0.0124 0.0
H1650 H 0.0183 0.34358 0.05166 0.0
H1651 H 0.04107 0.35559 0.07752 0.0
H1652 H 0.06854 0.41189 0.05416 0.0
H1653 H 0.04578 0.40029 0.02828 0.0
C1654 C 0.0448 0.37429 0.94771 0.0
C1655 C 0.03643 0.38147 0.9355 0.0
C1656 C 0.0364 0.36687 0.96488 0.0
C1657 C 0.0196 0.3667 0.9703 0.0
C1658 C 0.01128 0.37387 0.95801 0.0
C1659 C 0.01942 0.38089 0.94075 0.0
C1660 C 0.0114 0.36031 0.98915 0.0
C1661 C 0.02359 0.3675 1.00445 0.0
C1662 C 0.99154 0.34835 0.99219 0.0
C1663 C 0.97805 0.33839 0.97684 0.0
C1664 C 0.96157 0.3399 0.97472 0.0
C1665 C 0.94895 0.33056 0.9602 0.0
C1666 C 0.9526 0.3196 0.94775 0.0
C1667 C 0.96887 0.31791 0.94981 0.0
C1668 C 0.98153 0.32721 0.96431 0.0
C1669 C 0.9855 0.36743 0.07211 0.0
C1670 C 0.97004 0.35015 0.07834 0.0
C1671 C 0.99401 0.36846 0.05509 0.0
C1672 C 0.98775 0.3521 0.04408 0.0
C1673 C 0.97247 0.33469 0.05046 0.0
C1674 C 0.9636 0.33376 0.06734 0.0
C1675 C 0.99643 0.35356 0.02551 0.0
C1676 C 0.98432 0.34547 0.01025 0.0
C1677 C 0.01644 0.36398 0.02255 0.0
C1678 C 0.03024 0.37106 0.03806 0.0
C1679 C 0.02912 0.35855 0.05209 0.0
C1680 C 0.04204 0.36528 0.06674 0.0
C1681 C 0.05622 0.3845 0.06749 0.0
C1682 C 0.05754 0.39701 0.05356 0.0
C1683 C 0.04465 0.39035 0.03887 0.0
H1684 H 0.0662 0.38969 0.07886 0.0
H1685 H 0.94282 0.3124 0.93652 0.0
H1686 H 0.62498 0.00794 0.4305 0.0
H1687 H 0.62211 0.99394 0.46078 0.0
H1688 H 0.68032 0.03669 0.47302 0.0
H1689 H 0.68281 0.05152 0.44294 0.0
H1690 H 0.6356 0.97751 0.47897 0.0
H1691 H 0.68618 0.04669 0.51841 0.0
H1692 H 0.69878 0.08143 0.51624 0.0
H1693 H 0.64919 0.07153 0.48574 0.0
H1694 H 0.63622 0.03676 0.48791 0.0
H1695 H 0.63071 0.94671 0.57129 0.0
H1696 H 0.64381 0.9619 0.54149 0.0
H1697 H 0.62194 1.00025 0.55045 0.0
H1698 H 0.61013 0.98605 0.58054 0.0
H1699 H 0.65246 0.01911 0.53401 0.0
H1700 H 0.5987 0.95652 0.52279 0.0
H1701 H 0.57996 0.92138 0.5247 0.0
H1702 H 0.62537 0.91744 0.49827 0.0
H1703 H 0.64445 0.95258 0.49639 0.0
C1704 C 0.63726 0.0143 0.43955 0.0
C1705 C 0.65408 0.03095 0.43436 0.0
C1706 C 0.63562 0.00621 0.45692 0.0
C1707 C 0.65086 0.01437 0.46948 0.0
C1708 C 0.66813 0.03037 0.46387 0.0
C1709 C 0.66962 0.03877 0.4466 0.0
C1710 C 0.64812 0.00653 0.48858 0.0
C1711 C 0.6394 0.98666 0.49099 0.0
C1712 C 0.65277 0.01829 0.50441 0.0
C1713 C 0.66038 0.03916 0.50312 0.0
C1714 C 0.67797 0.05195 0.51127 0.0
C1715 C 0.68517 0.07163 0.51004 0.0
C1716 C 0.67483 0.07868 0.50079 0.0
C1717 C 0.65723 0.06606 0.49283 0.0
C1718 C 0.64996 0.04636 0.49404 0.0
C1719 C 0.62899 0.95858 0.56696 0.0
C1720 C 0.61936 0.96516 0.57825 0.0
C1721 C 0.63633 0.96717 0.54984 0.0
C1722 C 0.63356 0.98203 0.54338 0.0
C1723 C 0.6244 0.9889 0.55497 0.0
C1724 C 0.61757 0.9807 0.57224 0.0
C1725 C 0.63935 0.99004 0.52439 0.0
C1726 C 0.64883 0.00995 0.52201 0.0
C1727 C 0.6345 0.97826 0.50855 0.0
C1728 C 0.62308 0.95716 0.50966 0.0
C1729 C 0.60472 0.94815 0.5175 0.0
C1730 C 0.59404 0.92824 0.51856 0.0
C1731 C 0.6015 0.91719 0.51166 0.0
C1732 C 0.61963 0.92602 0.50364 0.0
C1733 C 0.63038 0.94593 0.50257 0.0
H1734 H 0.59321 0.90178 0.51249 0.0
H1735 H 0.68044 0.09393 0.49984 0.0
H1736 H 0.67115 0.61006 0.0621 0.0
H1737 H 0.66824 0.62254 0.03236 0.0
H1738 H 0.63865 0.64823 0.05854 0.0
H1739 H 0.64088 0.63515 0.08813 0.0
H1740 H 0.61968 0.63005 0.03021 0.0
H1741 H 0.68569 0.67491 0.03993 0.0
H1742 H 0.71941 0.68571 0.04694 0.0
H1743 H 0.72278 0.65576 0.99957 0.0
H1744 H 0.689 0.64456 0.99242 0.0
H1745 H 0.61426 0.67569 0.94924 0.0
H1746 H 0.62558 0.67286 0.9797 0.0
H1747 H 0.64618 0.63729 0.95686 0.0
H1748 H 0.63487 0.63999 0.9264 0.0
H1749 H 0.67087 0.66303 0.98372 0.0
H1750 H 0.60401 0.61644 0.97601 0.0
H1751 H 0.57039 0.60613 0.96904 0.0
H1752 H 0.56922 0.64067 0.01337 0.0
H1753 H 0.60295 0.6514 0.02043 0.0
C1754 C 0.66434 0.61867 0.06157 0.0
C1755 C 0.6562 0.62157 0.07747 0.0
C1756 C 0.66273 0.62588 0.04453 0.0
C1757 C 0.65332 0.63649 0.04312 0.0
C1758 C 0.64591 0.64005 0.05918 0.0
C1759 C 0.64726 0.63261 0.07613 0.0
C1760 C 0.64981 0.64254 0.0248 0.0
C1761 C 0.63101 0.63762 0.02025 0.0
C1762 C 0.66442 0.65203 0.0115 0.0
C1763 C 0.68475 0.65876 0.01573 0.0
C1764 C 0.69358 0.6705 0.03109 0.0
C1765 C 0.71271 0.67672 0.03507 0.0
C1766 C 0.72321 0.67139 0.02373 0.0
C1767 C 0.71462 0.65986 0.00835 0.0
C1768 C 0.69549 0.6536 1.00431 0.0
C1769 C 0.62153 0.66757 0.95062 0.0
C1770 C 0.62352 0.65794 0.93541 0.0
C1771 C 0.62794 0.66592 0.96805 0.0
C1772 C 0.63654 0.65468 0.97059 0.0
C1773 C 0.63958 0.64602 0.95523 0.0
C1774 C 0.63304 0.64753 0.93783 0.0
C1775 C 0.64087 0.6506 0.98938 0.0
C1776 C 0.6597 0.65573 0.9939 0.0
C1777 C 0.62635 0.64142 1.00275 0.0
C1778 C 0.60605 0.63488 0.99861 0.0
C1779 C 0.59663 0.62195 0.98417 0.0
C1780 C 0.57755 0.61602 0.98022 0.0
C1781 C 0.56769 0.62279 0.99072 0.0
C1782 C 0.57689 0.63547 1.00523 0.0
C1783 C 0.59598 0.64147 0.00921 0.0
H1784 H 0.55292 0.61817 0.98765 0.0
H1785 H 0.73802 0.67621 0.02684 0.0
H1786 H 0.01246 0.62486 0.58078 0.0
H1787 H 0.99861 0.62209 0.55044 0.0
H1788 H 0.04148 0.6803 0.53834 0.0
H1789 H 0.05614 0.68272 0.56849 0.0
H1790 H 0.98231 0.6358 0.53221 0.0
H1791 H 0.0518 0.68619 0.49302 0.0
H1792 H 0.08648 0.69855 0.49532 0.0
H1793 H 0.07607 0.64875 0.52579 0.0
H1794 H 0.04135 0.63601 0.52349 0.0
H1795 H 0.95226 0.63188 0.43969 0.0
H1796 H 0.96723 0.64459 0.46964 0.0
H1797 H 0.00514 0.62218 0.46078 0.0
H1798 H 0.99115 0.61072 0.43056 0.0
H1799 H 0.02414 0.65263 0.47732 0.0
H1800 H 0.96128 0.59915 0.48818 0.0
H1801 H 0.92615 0.5807 0.48612 0.0
H1802 H 0.92255 0.62621 0.51274 0.0
H1803 H 0.95769 0.64502 0.51477 0.0
C1804 C 0.01888 0.63716 0.57175 0.0
C1805 C 0.03551 0.65397 0.577 0.0
C1806 C 0.01088 0.63557 0.55435 0.0
C1807 C 0.01911 0.65085 0.54182 0.0
C1808 C 0.0351 0.66809 0.54748 0.0
C1809 C 0.04341 0.66953 0.56478 0.0
C1810 C 0.01135 0.64818 0.52269 0.0
C1811 C 0.99151 0.63959 0.52022 0.0
C1812 C 0.02318 0.65282 0.50691 0.0
C1813 C 0.04402 0.6603 0.50829 0.0
C1814 C 0.05693 0.67788 0.50018 0.0
C1815 C 0.07659 0.68494 0.50149 0.0
C1816 C 0.08348 0.67448 0.51076 0.0
C1817 C 0.07072 0.65688 0.51868 0.0
C1818 C 0.05106 0.64974 0.51739 0.0
C1819 C 0.96398 0.62995 0.44408 0.0
C1820 C 0.9705 0.62028 0.43277 0.0
C1821 C 0.97244 0.63707 0.46128 0.0
C1822 C 0.98713 0.63405 0.4678 0.0
C1823 C 0.99392 0.62483 0.45621 0.0
C1824 C 0.98585 0.6182 0.43887 0.0
C1825 C 0.99504 0.63968 0.48683 0.0
C1826 C 0.01494 0.64901 0.48929 0.0
C1827 C 0.98319 0.63483 0.50263 0.0
C1828 C 0.96209 0.62358 0.50142 0.0
C1829 C 0.95299 0.60527 0.49348 0.0
C1830 C 0.93309 0.59474 0.49233 0.0
C1831 C 0.92213 0.6023 0.49923 0.0
C1832 C 0.93106 0.62039 0.50735 0.0
C1833 C 0.95096 0.63099 0.50851 0.0
H1834 H 0.90672 0.59413 0.49834 0.0
H1835 H 0.0987 0.67998 0.51177 0.0
H1836 H 0.63465 0.99469 0.92663 0.0
H1837 H 0.64572 0.00889 0.95708 0.0
H1838 H 0.62125 0.95272 0.981 0.0
H1839 H 0.61031 0.93837 0.95052 0.0
H1840 H 0.60919 0.97621 0.99766 0.0
H1841 H 0.66798 0.97957 0.98014 0.0
H1842 H 0.69559 0.98789 0.96 0.0
H1843 H 0.71275 0.04729 0.96418 0.0
H1844 H 0.68507 0.03931 0.98415 0.0
H1845 H 0.6368 0.00776 0.08821 0.0
H1846 H 0.63407 0.99197 0.05879 0.0
H1847 H 0.66616 0.04683 0.03229 0.0
H1848 H 0.66954 0.06272 0.06189 0.0
H1849 H 0.67518 0.02293 0.01713 0.0
H1850 H 0.61641 0.0208 0.03149 0.0
H1851 H 0.5883 0.01402 0.05027 0.0
H1852 H 0.57039 0.95429 0.05025 0.0
H1853 H 0.59855 0.96075 0.03167 0.0
C1854 C 0.63196 0.98534 0.93831 0.0
C1855 C 0.62156 0.96539 0.93615 0.0
C1856 C 0.63834 0.9935 0.95571 0.0
C1857 C 0.63432 0.98187 0.97132 0.0
C1858 C 0.62452 0.96195 0.96913 0.0
C1859 C 0.61836 0.95378 0.95168 0.0
C1860 C 0.63886 0.99048 0.99003 0.0
C1861 C 0.62366 0.98614 1.00207 0.0
C1862 C 0.65767 0.00398 0.99549 0.0
C1863 C 0.67434 0.00882 0.98351 0.0
C1864 C 0.67754 0.9944 0.97664 0.0
C1865 C 0.69323 0.99905 0.96528 0.0
C1866 C 0.70589 0.0181 0.96077 0.0
C1867 C 0.70292 0.03254 0.96766 0.0
C1868 C 0.68724 0.02796 0.97902 0.0
C1869 C 0.64353 0.01648 0.07617 0.0
C1870 C 0.65325 0.03651 0.07736 0.0
C1871 C 0.64187 0.00742 0.05932 0.0
C1872 C 0.64948 0.01817 0.04317 0.0
C1873 C 0.66006 0.03818 0.0445 0.0
C1874 C 0.66198 0.04727 0.06144 0.0
C1875 C 0.64549 0.00859 0.02484 0.0
C1876 C 0.66073 0.01284 0.01283 0.0
C1877 C 0.62665 0.99523 0.0192 0.0
C1878 C 0.6097 0.99129 0.03036 0.0
C1879 C 0.60655 0.00624 0.03561 0.0
C1880 C 0.5906 0.00245 0.0462 0.0
C1881 C 0.5776 0.98374 0.0515 0.0
C1882 C 0.5805 0.96878 0.04617 0.0
C1883 C 0.59644 0.97249 0.0356 0.0
H1884 H 0.56526 0.98084 0.05969 0.0
H1885 H 0.71803 0.02168 0.95198 0.0
H1886 H 0.67916 0.6182 0.44587 0.0
H1887 H 0.67621 0.62917 0.47656 0.0
H1888 H 0.62634 0.63102 0.45874 0.0
H1889 H 0.62923 0.62027 0.42813 0.0
H1890 H 0.67326 0.66162 0.49062 0.0
H1891 H 0.59281 0.60767 0.49276 0.0
H1892 H 0.56955 0.57696 0.47866 0.0
H1893 H 0.61343 0.56232 0.47192 0.0
H1894 H 0.63686 0.5928 0.48625 0.0
H1895 H 0.62305 0.67571 0.56631 0.0
H1896 H 0.63462 0.67187 0.53626 0.0
H1897 H 0.63436 0.62149 0.55606 0.0
H1898 H 0.62301 0.62527 0.58602 0.0
H1899 H 0.61441 0.61529 0.5237 0.0
H1900 H 0.67567 0.66041 0.54846 0.0
H1901 H 0.69942 0.69068 0.56285 0.0
H1902 H 0.69515 0.722 0.51714 0.0
H1903 H 0.67115 0.69191 0.50259 0.0
C1904 C 0.66779 0.62131 0.44838 0.0
C1905 C 0.65435 0.61821 0.43457 0.0
C1906 C 0.66617 0.62763 0.46591 0.0
C1907 C 0.65096 0.63074 0.46996 0.0
C1908 C 0.63812 0.6286 0.45593 0.0
C1909 C 0.63982 0.62245 0.43842 0.0
C1910 C 0.64735 0.63443 0.48916 0.0
C1911 C 0.6604 0.65154 0.49788 0.0
C1912 C 0.63067 0.62115 0.49868 0.0
C1913 C 0.61662 0.6026 0.49039 0.0
C1914 C 0.59747 0.59786 0.48834 0.0
C1915 C 0.58426 0.5805 0.4803 0.0
C1916 C 0.59002 0.56773 0.47434 0.0
C1917 C 0.609 0.57225 0.47648 0.0
C1918 C 0.62225 0.58958 0.48454 0.0
C1919 C 0.62578 0.66402 0.56436 0.0
C1920 C 0.62203 0.65076 0.57857 0.0
C1921 C 0.63242 0.66185 0.54718 0.0
C1922 C 0.63531 0.64636 0.5439 0.0
C1923 C 0.63218 0.63352 0.55826 0.0
C1924 C 0.62574 0.63575 0.57543 0.0
C1925 C 0.64019 0.64262 0.5252 0.0
C1926 C 0.62729 0.62545 0.51651 0.0
C1927 C 0.65704 0.65581 0.51582 0.0
C1928 C 0.67147 0.67391 0.52453 0.0
C1929 C 0.67966 0.67376 0.54155 0.0
C1930 C 0.6932 0.69088 0.54972 0.0
C1931 C 0.69875 0.70826 0.54094 0.0
C1932 C 0.69081 0.70854 0.52394 0.0
C1933 C 0.67726 0.69145 0.51572 0.0
H1934 H 0.70924 0.7215 0.54728 0.0
H1935 H 0.57978 0.55431 0.4681 0.0
H1936 H 0.98971 0.61109 0.07791 0.0
H1937 H 0.00444 0.62409 0.04827 0.0
H1938 H 0.96661 0.64673 0.04046 0.0
H1939 H 0.95092 0.63252 0.06982 0.0
H1940 H 0.96842 0.63332 0.01042 0.0
H1941 H 0.01742 0.67593 0.04988 0.0
H1942 H 0.04006 0.68668 0.07584 0.0
H1943 H 0.0678 0.65805 0.0526 0.0
H1944 H 0.04517 0.6469 0.02662 0.0
H1945 H 0.05769 0.68401 0.94242 0.0
H1946 H 0.04274 0.68276 0.97216 0.0
H1947 H 0.99821 0.62517 0.96035 0.0
H1948 H 0.0124 0.6268 0.93043 0.0
H1949 H 0.03827 0.66391 1.00057 0.0
H1950 H 0.95804 0.61142 0.98227 0.0
H1951 H 0.9359 0.6057 0.95658 0.0
H1952 H 0.9714 0.66336 0.93797 0.0
H1953 H 0.99362 0.66953 0.96369 0.0
C1954 C 0.98466 0.61904 0.07001 0.0
C1955 C 0.96921 0.62087 0.07627 0.0
C1956 C 0.99322 0.62663 0.05304 0.0
C1957 C 0.98702 0.63685 0.04213 0.0
C1958 C 0.97176 0.63898 0.04854 0.0
C1959 C 0.96283 0.63093 0.06537 0.0
C1960 C 0.99576 0.64417 0.02363 0.0
C1961 C 0.98371 0.64017 0.00833 0.0
C1962 C 0.01579 0.65379 0.02075 0.0
C1963 C 0.02951 0.66049 0.03633 0.0
C1964 C 0.02828 0.67183 0.05035 0.0
C1965 C 0.04112 0.678 0.06507 0.0
C1966 C 0.05534 0.67303 0.06588 0.0
C1967 C 0.05678 0.6619 0.05195 0.0
C1968 C 0.04396 0.65567 0.03721 0.0
C1969 C 0.04449 0.67126 0.94606 0.0
C1970 C 0.03616 0.65557 0.93399 0.0
C1971 C 0.03598 0.6705 0.96311 0.0
C1972 C 0.01912 0.65396 0.96855 0.0
C1973 C 0.01082 0.63835 0.9564 0.0
C1974 C 0.01906 0.63925 0.93925 0.0
C1975 C 0.01087 0.65234 0.98734 0.0
C1976 C 0.02301 0.65739 1.00268 0.0
C1977 C 0.991 0.64447 0.9903 0.0
C1978 C 0.97757 0.64089 0.97487 0.0
C1979 C 0.96107 0.62292 0.97277 0.0
C1980 C 0.94852 0.61959 0.95818 0.0
C1981 C 0.95226 0.63414 0.94563 0.0
C1982 C 0.96855 0.65208 0.94766 0.0
C1983 C 0.98114 0.6555 0.96223 0.0
H1984 H 0.94253 0.63153 0.93433 0.0
H1985 H 0.06527 0.67782 0.07729 0.0
H1986 H 0.36841 0.9967 0.58355 0.0
H1987 H 0.37042 0.01121 0.55348 0.0
H1988 H 0.33259 0.95563 0.5306 0.0
H1989 H 0.33035 0.94099 0.56073 0.0
H1990 H 0.3666 0.97645 0.51092 0.0
H1991 H 0.31692 0.98614 0.53518 0.0
H1992 H 0.30177 0.99694 0.558 0.0
H1993 H 0.34764 0.05467 0.55204 0.0
H1994 H 0.36321 0.04418 0.52937 0.0
H1995 H 0.3672 0.0108 0.42225 0.0
H1996 H 0.35504 0.99502 0.45186 0.0
H1997 H 0.38428 0.04958 0.47933 0.0
H1998 H 0.39583 0.06552 0.4496 0.0
H1999 H 0.35225 0.02794 0.4965 0.0
H2000 H 0.40369 0.01936 0.47566 0.0
H2001 H 0.42112 0.01 0.45408 0.0
H2002 H 0.37495 0.95201 0.4552 0.0
H2003 H 0.35713 0.96109 0.4766 0.0
C2004 C 0.36025 0.98758 0.5722 0.0
C2005 C 0.34924 0.96768 0.57453 0.0
C2006 C 0.36137 0.99591 0.55503 0.0
C2007 C 0.35162 0.98451 0.53979 0.0
C2008 C 0.3402 0.96469 0.54218 0.0
C2009 C 0.33888 0.95636 0.55943 0.0
C2010 C 0.35459 0.99315 0.52114 0.0
C2011 C 0.3631 0.98743 0.50764 0.0
C2012 C 0.35067 0.00797 0.51709 0.0
C2013 C 0.34131 0.01434 0.53068 0.0
C2014 C 0.32386 0.00111 0.53885 0.0
C2015 C 0.31518 0.00719 0.55174 0.0
C2016 C 0.32376 0.02647 0.5565 0.0
C2017 C 0.34102 0.03973 0.54835 0.0
C2018 C 0.34976 0.03373 0.53546 0.0
C2019 C 0.37076 0.01948 0.43456 0.0
C2020 C 0.38261 0.0394 0.43359 0.0
C2021 C 0.3639 0.01042 0.45153 0.0
C2022 C 0.36916 0.02102 0.46796 0.0
C2023 C 0.3801 0.04104 0.46691 0.0
C2024 C 0.3867 0.05015 0.44988 0.0
C2025 C 0.36425 0.01121 0.4862 0.0
C2026 C 0.35553 0.01679 0.49968 0.0
C2027 C 0.3683 0.99647 0.4904 0.0
C2028 C 0.37899 0.99095 0.47756 0.0
C2029 C 0.3972 0.00464 0.47119 0.0
C2030 C 0.40715 0.99938 0.45901 0.0
C2031 C 0.39912 0.98043 0.45323 0.0
C2032 C 0.38114 0.96669 0.45966 0.0
C2033 C 0.37111 0.97188 0.47182 0.0
H2034 H 0.40686 0.97639 0.4438 0.0
H2035 H 0.31702 0.03115 0.56648 0.0
H2036 H 0.38618 0.32827 0.06333 0.0
H2037 H 0.3749 0.33102 0.03282 0.0
H2038 H 0.35607 0.36827 0.05507 0.0
H2039 H 0.36731 0.36562 0.08558 0.0
H2040 H 0.33068 0.34271 0.02893 0.0
H2041 H 0.39819 0.38746 0.03511 0.0
H2042 H 0.43165 0.39671 0.04156 0.0
H2043 H 0.43039 0.36027 0.99792 0.0
H2044 H 0.39681 0.35059 0.99139 0.0
H2045 H 0.33092 0.39446 0.94939 0.0
H2046 H 0.33392 0.38248 0.97936 0.0
H2047 H 0.36124 0.3543 0.95352 0.0
H2048 H 0.35896 0.36691 0.92366 0.0
H2049 H 0.38113 0.37275 0.98129 0.0
H2050 H 0.31439 0.32963 0.97317 0.0
H2051 H 0.28084 0.32 0.96672 0.0
H2052 H 0.28006 0.3522 0.01338 0.0
H2053 H 0.31369 0.36224 0.01997 0.0
C2054 C 0.37933 0.33677 0.06181 0.0
C2055 C 0.37778 0.34684 0.07688 0.0
C2056 C 0.37294 0.33837 0.04434 0.0
C2057 C 0.36484 0.35003 0.04162 0.0
C2058 C 0.36229 0.35921 0.05683 0.0
C2059 C 0.36878 0.35773 0.07427 0.0
C2060 C 0.36041 0.35389 0.02276 0.0
C2061 C 0.34169 0.34937 0.0185 0.0
C2062 C 0.37471 0.36223 0.00906 0.0
C2063 C 0.39493 0.36814 0.0129 0.0
C2064 C 0.405 0.3813 0.02699 0.0
C2065 C 0.42399 0.38664 0.03065 0.0
C2066 C 0.43312 0.37904 0.0202 0.0
C2067 C 0.42329 0.36612 0.00603 0.0
C2068 C 0.40428 0.36071 1.00234 0.0
C2069 C 0.33724 0.38541 0.95005 0.0
C2070 C 0.34473 0.38167 0.93414 0.0
C2071 C 0.3389 0.37849 0.96722 0.0
C2072 C 0.3477 0.36732 0.9688 0.0
C2073 C 0.35446 0.36293 0.95276 0.0
C2074 C 0.35307 0.37009 0.93565 0.0
C2075 C 0.35127 0.3615 0.98722 0.0
C2076 C 0.36994 0.36581 0.99151 0.0
C2077 C 0.33687 0.35287 1.00087 0.0
C2078 C 0.31662 0.34682 0.99697 0.0
C2079 C 0.30711 0.33477 0.98198 0.0
C2080 C 0.28806 0.32922 0.97831 0.0
C2081 C 0.27833 0.33552 0.9896 0.0
C2082 C 0.28761 0.34735 1.00463 0.0
C2083 C 0.30666 0.35295 0.00835 0.0
H2084 H 0.26359 0.33121 0.98674 0.0
H2085 H 0.44783 0.3832 0.02305 0.0
H2086 H 0.06367 0.3905 0.56405 0.0
H2087 H 0.04937 0.37907 0.53365 0.0
H2088 H 0.99332 0.35845 0.55674 0.0
H2089 H 0.00748 0.36992 0.58714 0.0
H2090 H 0.99464 0.33352 0.52995 0.0
H2091 H 0.01398 0.40022 0.53732 0.0
H2092 H 0.03697 0.43399 0.54408 0.0
H2093 H 0.07273 0.4354 0.49968 0.0
H2094 H 0.05006 0.40153 0.49283 0.0
H2095 H 0.94091 0.33111 0.45117 0.0
H2096 H 0.95634 0.33473 0.48101 0.0
H2097 H 0.01161 0.36552 0.45498 0.0
H2098 H 0.99623 0.36263 0.42528 0.0
H2099 H 0.01198 0.38426 0.48316 0.0
H2100 H 0.99208 0.31844 0.47389 0.0
H2101 H 0.9697 0.28454 0.46706 0.0
H2102 H 0.93598 0.28078 0.51424 0.0
H2103 H 0.95802 0.31474 0.52122 0.0
C2104 C 0.04828 0.38322 0.56274 0.0
C2105 C 0.03673 0.38124 0.57801 0.0
C2106 C 0.04013 0.37675 0.54534 0.0
C2107 C 0.02029 0.36808 0.5429 0.0
C2108 C 0.00866 0.3651 0.5583 0.0
C2109 C 0.01679 0.37173 0.57567 0.0
C2110 C 0.01178 0.36352 0.52414 0.0
C2111 C 0.9983 0.34458 0.51971 0.0
C2112 C 0.01688 0.37791 0.51067 0.0
C2113 C 0.03044 0.3983 0.5147 0.0
C2114 C 0.02682 0.40769 0.5291 0.0
C2115 C 0.03978 0.42685 0.53293 0.0
C2116 C 0.05633 0.43682 0.52235 0.0
C2117 C 0.05993 0.42765 0.50789 0.0
C2118 C 0.04702 0.40848 0.50402 0.0
C2119 C 0.95635 0.33835 0.45176 0.0
C2120 C 0.96734 0.34661 0.43586 0.0
C2121 C 0.96519 0.34036 0.46886 0.0
C2122 C 0.98522 0.3503 0.47035 0.0
C2123 C 0.99617 0.35787 0.45429 0.0
C2124 C 0.98734 0.35613 0.43728 0.0
C2125 C 0.99476 0.3541 0.48871 0.0
C2126 C 0.0084 0.37302 0.49318 0.0
C2127 C 0.9899 0.33963 0.50212 0.0
C2128 C 0.97662 0.31919 0.49798 0.0
C2129 C 0.97982 0.31042 0.48273 0.0
C2130 C 0.9672 0.29119 0.47885 0.0
C2131 C 0.95141 0.28052 0.49018 0.0
C2132 C 0.94822 0.28906 0.50546 0.0
C2133 C 0.96078 0.3083 0.5094 0.0
H2134 H 0.94166 0.26563 0.48715 0.0
H2135 H 0.06635 0.45165 0.52534 0.0
H2136 H 0.4852 0.11468 0.1223 0.0
H2137 H 0.51624 0.11631 0.12054 0.0
H2138 H 0.48823 0.05668 0.10591 0.0
H2139 H 0.4573 0.05485 0.10779 0.0
H2140 H 0.51343 0.06467 0.13319 0.0
H2141 H 0.51302 0.09161 0.07409 0.0
H2142 H 0.51063 0.11429 0.0531 0.0
H2143 H 0.5589 0.16105 0.0794 0.0
H2144 H 0.56141 0.13865 0.10071 0.0
H2145 H 0.5916 0.05427 0.10847 0.0
H2146 H 0.56233 0.05595 0.10677 0.0
H2147 H 0.59414 0.11608 0.11943 0.0
H2148 H 0.62361 0.11464 0.12071 0.0
H2149 H 0.56776 0.10929 0.09392 0.0
H2150 H 0.56857 0.08309 0.15279 0.0
H2151 H 0.57117 0.06096 0.17437 0.0
H2152 H 0.52228 0.01359 0.14952 0.0
H2153 H 0.51954 0.03542 0.12761 0.0
C2154 C 0.48566 0.10196 0.11855 0.0
C2155 C 0.46872 0.08462 0.11526 0.0
C2156 C 0.50342 0.10293 0.11749 0.0
C2157 C 0.50456 0.08662 0.11304 0.0
C2158 C 0.4877 0.06942 0.10943 0.0
C2159 C 0.47001 0.06844 0.11048 0.0
C2160 C 0.52314 0.08706 0.11293 0.0
C2161 C 0.52522 0.07426 0.12442 0.0
C2162 C 0.53874 0.1 0.10195 0.0
C2163 C 0.53727 0.11347 0.08911 0.0
C2164 C 0.52302 0.10674 0.07549 0.0
C2165 C 0.52167 0.11955 0.06352 0.0
C2166 C 0.53457 0.13911 0.06495 0.0
C2167 C 0.54889 0.1459 0.07832 0.0
C2168 C 0.5503 0.13315 0.09034 0.0
C2169 C 0.59242 0.0679 0.11077 0.0
C2170 C 0.60994 0.08428 0.11489 0.0
C2171 C 0.57565 0.06882 0.10986 0.0
C2172 C 0.57597 0.08607 0.11333 0.0
C2173 C 0.59353 0.1026 0.11677 0.0
C2174 C 0.61036 0.10173 0.11754 0.0
C2175 C 0.5579 0.08666 0.11395 0.0
C2176 C 0.55596 0.0997 0.10268 0.0
C2177 C 0.54241 0.07403 0.12523 0.0
C2178 C 0.54396 0.06087 0.13845 0.0
C2179 C 0.55845 0.06794 0.15184 0.0
C2180 C 0.55994 0.05545 0.16414 0.0
C2181 C 0.54693 0.03588 0.16329 0.0
C2182 C 0.53236 0.02876 0.15015 0.0
C2183 C 0.53082 0.04118 0.1378 0.0
H2184 H 0.5481 0.02624 0.17282 0.0
H2185 H 0.5335 0.149 0.05567 0.0
H2186 H 0.5434 0.59121 0.61674 0.0
H2187 H 0.51241 0.56232 0.61355 0.0
H2188 H 0.48501 0.59634 0.61101 0.0
H2189 H 0.51601 0.62539 0.61459 0.0
H2190 H 0.46636 0.5672 0.63376 0.0
H2191 H 0.49009 0.57439 0.57228 0.0
H2192 H 0.51338 0.57906 0.54804 0.0
H2193 H 0.51134 0.52695 0.56399 0.0
H2194 H 0.48822 0.52209 0.58851 0.0
H2195 H 0.37606 0.48796 0.611 0.0
H2196 H 0.40585 0.51844 0.6087 0.0
H2197 H 0.43798 0.48917 0.61298 0.0
H2198 H 0.40829 0.4586 0.61499 0.0
H2199 H 0.4533 0.51697 0.5875 0.0
H2200 H 0.43154 0.51121 0.65029 0.0
H2201 H 0.40845 0.5066 0.67475 0.0
H2202 H 0.40698 0.55625 0.65617 0.0
H2203 H 0.42988 0.56101 0.63144 0.0
C2204 C 0.53082 0.59261 0.61539 0.0
C2205 C 0.53222 0.61066 0.61592 0.0
C2206 C 0.51309 0.57604 0.61346 0.0
C2207 C 0.49637 0.57715 0.61179 0.0
C2208 C 0.49771 0.59514 0.61222 0.0
C2209 C 0.51546 0.61174 0.61424 0.0
C2210 C 0.47746 0.55946 0.61038 0.0
C2211 C 0.46339 0.55638 0.62341 0.0
C2212 C 0.4737 0.54514 0.59714 0.0
C2213 C 0.48753 0.54796 0.58233 0.0
C2214 C 0.49471 0.56399 0.57071 0.0
C2215 C 0.50786 0.56666 0.5569 0.0
C2216 C 0.51387 0.55333 0.5545 0.0
C2217 C 0.50669 0.53727 0.56587 0.0
C2218 C 0.49354 0.53454 0.57971 0.0
C2219 C 0.38945 0.48796 0.61133 0.0
C2220 C 0.38976 0.47081 0.61332 0.0
C2221 C 0.40648 0.50543 0.61008 0.0
C2222 C 0.42416 0.50612 0.61094 0.0
C2223 C 0.42451 0.48899 0.61232 0.0
C2224 C 0.4075 0.47152 0.61352 0.0
C2225 C 0.44231 0.52468 0.61097 0.0
C2226 C 0.45623 0.5279 0.5977 0.0
C2227 C 0.44595 0.53914 0.62399 0.0
C2228 C 0.43225 0.53634 0.6389 0.0
C2229 C 0.42618 0.52106 0.65134 0.0
C2230 C 0.41315 0.51844 0.66526 0.0
C2231 C 0.40621 0.5311 0.66698 0.0
C2232 C 0.41234 0.54644 0.6548 0.0
C2233 C 0.42535 0.54911 0.64084 0.0
H2234 H 0.39612 0.52904 0.67777 0.0
H2235 H 0.52406 0.55542 0.5438 0.0
H2236 H 0.88818 0.37539 0.12179 0.0
H2237 H 0.88629 0.40461 0.12008 0.0
H2238 H 0.94647 0.43703 0.10779 0.0
H2239 H 0.94857 0.40804 0.10979 0.0
H2240 H 0.9375 0.45383 0.13416 0.0
H2241 H 0.91189 0.42686 0.07465 0.0
H2242 H 0.88992 0.40188 0.05319 0.0
H2243 H 0.84215 0.40212 0.07872 0.0
H2244 H 0.86383 0.42694 0.1005 0.0
H2245 H 0.94731 0.54153 0.10775 0.0
H2246 H 0.94545 0.51054 0.10638 0.0
H2247 H 0.88584 0.48274 0.12103 0.0
H2248 H 0.88747 0.51379 0.12222 0.0
H2249 H 0.89281 0.46291 0.09439 0.0
H2250 H 0.91805 0.48998 0.15343 0.0
H2251 H 0.93971 0.51494 0.17506 0.0
H2252 H 0.98775 0.51413 0.15088 0.0
H2253 H 0.9664 0.48935 0.12891 0.0
C2254 C 0.90098 0.38871 0.11855 0.0
C2255 C 0.91854 0.38936 0.11598 0.0
C2256 C 0.89986 0.4054 0.11752 0.0
C2257 C 0.91622 0.42302 0.11371 0.0
C2258 C 0.93367 0.42362 0.1108 0.0
C2259 C 0.93482 0.40699 0.11191 0.0
C2260 C 0.91548 0.44101 0.11357 0.0
C2261 C 0.9279 0.45588 0.12527 0.0
C2262 C 0.9025 0.44349 0.10244 0.0
C2263 C 0.88947 0.42861 0.08932 0.0
C2264 C 0.89669 0.42148 0.07578 0.0
C2265 C 0.88429 0.40737 0.06354 0.0
C2266 C 0.86465 0.40038 0.06462 0.0
C2267 C 0.85737 0.40753 0.07792 0.0
C2268 C 0.86971 0.42163 0.0902 0.0
C2269 C 0.93373 0.52885 0.11056 0.0
C2270 C 0.91757 0.5302 0.11527 0.0
C2271 C 0.93272 0.51113 0.10981 0.0
C2272 C 0.91559 0.49436 0.11391 0.0
C2273 C 0.89922 0.49552 0.11789 0.0
C2274 C 0.9002 0.51329 0.1186 0.0
C2275 C 0.91509 0.47577 0.1147 0.0
C2276 C 0.90239 0.4608 0.10325 0.0
C2277 C 0.92776 0.47313 0.12612 0.0
C2278 C 0.94064 0.48793 0.13942 0.0
C2279 C 0.93325 0.49522 0.15264 0.0
C2280 C 0.94547 0.50932 0.16497 0.0
C2281 C 0.9651 0.51615 0.16432 0.0
C2282 C 0.97254 0.50885 0.15136 0.0
C2283 C 0.96039 0.49476 0.13897 0.0
H2284 H 0.97453 0.52707 0.17388 0.0
H2285 H 0.85508 0.38946 0.05514 0.0
H2286 H 0.40954 0.94747 0.60922 0.0
H2287 H 0.43756 0.94373 0.60708 0.0
H2288 H 0.40275 0.88361 0.61873 0.0
H2289 H 0.37454 0.88725 0.62116 0.0
H2290 H 0.43494 0.89949 0.63896 0.0
H2291 H 0.4196 0.89876 0.57544 0.0
H2292 H 0.4116 0.91013 0.54717 0.0
H2293 H 0.46524 0.96249 0.54985 0.0
H2294 H 0.47346 0.95156 0.5783 0.0
H2295 H 0.51243 0.88347 0.62041 0.0
H2296 H 0.48133 0.88156 0.61802 0.0
H2297 H 0.50929 0.94214 0.60777 0.0
H2298 H 0.54036 0.94418 0.60996 0.0
H2299 H 0.47875 0.92258 0.58528 0.0
H2300 H 0.4926 0.9245 0.65014 0.0
H2301 H 0.50073 0.91341 0.67854 0.0
H2302 H 0.44976 0.85884 0.67325 0.0
H2303 H 0.44147 0.86952 0.64465 0.0
C2304 C 0.40775 0.9334 0.61123 0.0
C2305 C 0.38973 0.91766 0.61534 0.0
C2306 C 0.42382 0.93128 0.60991 0.0
C2307 C 0.42223 0.91334 0.61253 0.0
C2308 C 0.40429 0.89757 0.61661 0.0
C2309 C 0.38817 0.89968 0.61793 0.0
C2310 C 0.43949 0.91132 0.61162 0.0
C2311 C 0.44432 0.90418 0.62708 0.0
C2312 C 0.45193 0.91778 0.59625 0.0
C2313 C 0.44708 0.92438 0.57909 0.0
C2314 C 0.42964 0.91276 0.57008 0.0
C2315 C 0.42507 0.91911 0.55401 0.0
C2316 C 0.43789 0.93703 0.54674 0.0
C2317 C 0.45532 0.94862 0.5555 0.0
C2318 C 0.45995 0.94234 0.57159 0.0
C2319 C 0.51197 0.89637 0.61751 0.0
C2320 C 0.52892 0.914 0.61549 0.0
C2321 C 0.49418 0.89525 0.61621 0.0
C2322 C 0.493 0.91175 0.61292 0.0
C2323 C 0.50986 0.92924 0.61033 0.0
C2324 C 0.52763 0.93038 0.61166 0.0
C2325 C 0.47429 0.91102 0.6127 0.0
C2326 C 0.46922 0.91766 0.59706 0.0
C2327 C 0.46163 0.90412 0.62789 0.0
C2328 C 0.46653 0.89773 0.64515 0.0
C2329 C 0.48321 0.91008 0.65495 0.0
C2330 C 0.48783 0.90388 0.6711 0.0
C2331 C 0.4758 0.88541 0.67766 0.0
C2332 C 0.45909 0.87313 0.66813 0.0
C2333 C 0.45441 0.87925 0.65196 0.0
H2334 H 0.47941 0.88064 0.69016 0.0
H2335 H 0.43432 0.94193 0.5343 0.0
H2336 H 0.59183 0.54425 0.11461 0.0
H2337 H 0.56185 0.51398 0.11303 0.0
H2338 H 0.59274 0.48336 0.11563 0.0
H2339 H 0.62292 0.51365 0.11704 0.0
H2340 H 0.56355 0.46747 0.09061 0.0
H2341 H 0.57184 0.48769 0.15358 0.0
H2342 H 0.57791 0.51015 0.17908 0.0
H2343 H 0.52777 0.51268 0.16456 0.0
H2344 H 0.52155 0.49044 0.13879 0.0
H2345 H 0.48398 0.37754 0.11695 0.0
H2346 H 0.51474 0.40713 0.11519 0.0
H2347 H 0.48581 0.43973 0.11379 0.0
H2348 H 0.45504 0.4103 0.11574 0.0
H2349 H 0.51451 0.45426 0.1383 0.0
H2350 H 0.50627 0.43383 0.0752 0.0
H2351 H 0.50039 0.41134 0.04978 0.0
H2352 H 0.55046 0.40889 0.06478 0.0
H2353 H 0.55649 0.43117 0.09047 0.0
C2354 C 0.59231 0.53111 0.11473 0.0
C2355 C 0.60981 0.53141 0.1161 0.0
C2356 C 0.57513 0.5138 0.11388 0.0
C2357 C 0.57505 0.49641 0.11448 0.0
C2358 C 0.59249 0.49662 0.1152 0.0
C2359 C 0.60971 0.51395 0.11606 0.0
C2360 C 0.55671 0.47806 0.11495 0.0
C2361 C 0.55291 0.46445 0.10116 0.0
C2362 C 0.54272 0.47428 0.12856 0.0
C2363 C 0.54633 0.48754 0.14414 0.0
C2364 C 0.56218 0.49315 0.15573 0.0
C2365 C 0.56564 0.50582 0.17025 0.0
C2366 C 0.55326 0.51288 0.17341 0.0
C2367 C 0.53736 0.50722 0.16209 0.0
C2368 C 0.53385 0.49457 0.14753 0.0
C2369 C 0.48414 0.39099 0.11614 0.0
C2370 C 0.46701 0.39152 0.11651 0.0
C2371 C 0.50175 0.40789 0.11507 0.0
C2372 C 0.50258 0.42565 0.11425 0.0
C2373 C 0.48551 0.4262 0.11444 0.0
C2374 C 0.46792 0.40933 0.1155 0.0
C2375 C 0.52122 0.4437 0.11384 0.0
C2376 C 0.52512 0.45725 0.12771 0.0
C2377 C 0.53528 0.44738 0.10034 0.0
C2378 C 0.53172 0.43402 0.08487 0.0
C2379 C 0.51594 0.42838 0.07318 0.0
C2380 C 0.5126 0.41569 0.0587 0.0
C2381 C 0.52502 0.40865 0.0557 0.0
C2382 C 0.54084 0.41433 0.06714 0.0
C2383 C 0.54424 0.427 0.08165 0.0
H2384 H 0.52241 0.39883 0.04448 0.0
H2385 H 0.55596 0.52269 0.18466 0.0
H2386 H 0.11327 0.48727 0.61741 0.0
H2387 H 0.11527 0.51833 0.61447 0.0
H2388 H 0.05384 0.49065 0.61254 0.0
H2389 H 0.05169 0.45952 0.6152 0.0
H2390 H 0.06991 0.51909 0.58759 0.0
H2391 H 0.07814 0.51115 0.6521 0.0
H2392 H 0.09311 0.50518 0.67891 0.0
H2393 H 0.14694 0.55426 0.66512 0.0
H2394 H 0.13232 0.56038 0.63806 0.0
H2395 H 0.05371 0.59426 0.61286 0.0
H2396 H 0.05523 0.56498 0.61057 0.0
H2397 H 0.11668 0.59767 0.61341 0.0
H2398 H 0.11529 0.62713 0.61602 0.0
H2399 H 0.10286 0.5678 0.63624 0.0
H2400 H 0.0939 0.57719 0.57293 0.0
H2401 H 0.07866 0.58322 0.54638 0.0
H2402 H 0.02615 0.53161 0.55789 0.0
H2403 H 0.04099 0.5254 0.58467 0.0
C2404 C 0.10017 0.48776 0.61627 0.0
C2405 C 0.08231 0.47088 0.61667 0.0
C2406 C 0.10135 0.50554 0.61465 0.0
C2407 C 0.0847 0.50683 0.61353 0.0
C2408 C 0.06688 0.49 0.61341 0.0
C2409 C 0.06568 0.47221 0.615 0.0
C2410 C 0.08577 0.5257 0.61293 0.0
C2411 C 0.07696 0.52969 0.59831 0.0
C2412 C 0.0954 0.53972 0.62666 0.0
C2413 C 0.10419 0.53609 0.64295 0.0
C2414 C 0.0932 0.52058 0.6547 0.0
C2415 C 0.10162 0.51718 0.66996 0.0
C2416 C 0.12098 0.5293 0.67369 0.0
C2417 C 0.13195 0.54487 0.66219 0.0
C2418 C 0.12361 0.54831 0.64691 0.0
C2419 C 0.06758 0.5953 0.61286 0.0
C2420 C 0.08439 0.61309 0.61463 0.0
C2421 C 0.06842 0.57851 0.61145 0.0
C2422 C 0.08608 0.57913 0.61162 0.0
C2423 C 0.1029 0.59686 0.61321 0.0
C2424 C 0.10208 0.61369 0.61465 0.0
C2425 C 0.08684 0.56116 0.61098 0.0
C2426 C 0.09597 0.55731 0.6254 0.0
C2427 C 0.07749 0.54727 0.59706 0.0
C2428 C 0.06853 0.55091 0.58091 0.0
C2429 C 0.07906 0.56719 0.56989 0.0
C2430 C 0.0705 0.57063 0.55478 0.0
C2431 C 0.05144 0.55783 0.55047 0.0
C2432 C 0.04091 0.54153 0.56124 0.0
C2433 C 0.0494 0.53803 0.57638 0.0
H2434 H 0.04483 0.56052 0.53877 0.0
H2435 H 0.12747 0.52665 0.68551 0.0
H2436 H 0.94951 0.5421 0.40058 0.0
H2437 H 0.94782 0.51122 0.40267 0.0
H2438 H 0.88777 0.48278 0.38982 0.0
H2439 H 0.88923 0.51374 0.3879 0.0
H2440 H 0.89575 0.46412 0.41699 0.0
H2441 H 0.919 0.48883 0.35669 0.0
H2442 H 0.93997 0.51288 0.33399 0.0
H2443 H 0.98873 0.51298 0.35743 0.0
H2444 H 0.96808 0.48911 0.38045 0.0
H2445 H 0.88956 0.37553 0.39165 0.0
H2446 H 0.88806 0.40496 0.39288 0.0
H2447 H 0.9487 0.43728 0.40289 0.0
H2448 H 0.9504 0.40802 0.40137 0.0
H2449 H 0.93897 0.45339 0.37655 0.0
H2450 H 0.91562 0.42878 0.43714 0.0
H2451 H 0.89454 0.40476 0.45981 0.0
H2452 H 0.84581 0.40422 0.43571 0.0
H2453 H 0.86658 0.42807 0.41273 0.0
C2454 C 0.93588 0.52931 0.3983 0.0
C2455 C 0.91953 0.53044 0.3939 0.0
C2456 C 0.93496 0.51165 0.39946 0.0
C2457 C 0.91774 0.49472 0.3961 0.0
C2458 C 0.90122 0.49569 0.39239 0.0
C2459 C 0.9021 0.5134 0.39125 0.0
C2460 C 0.91726 0.47613 0.39586 0.0
C2461 C 0.905 0.46164 0.40798 0.0
C2462 C 0.92955 0.47304 0.3843 0.0
C2463 C 0.94201 0.48731 0.3704 0.0
C2464 C 0.93421 0.49408 0.35709 0.0
C2465 C 0.94604 0.50767 0.34416 0.0
C2466 C 0.96568 0.51449 0.3443 0.0
C2467 C 0.97352 0.5077 0.35735 0.0
C2468 C 0.96176 0.49413 0.37034 0.0
C2469 C 0.90256 0.38887 0.39428 0.0
C2470 C 0.92011 0.3894 0.39636 0.0
C2471 C 0.90166 0.40569 0.39505 0.0
C2472 C 0.91825 0.42334 0.39809 0.0
C2473 C 0.93572 0.42384 0.40049 0.0
C2474 C 0.93665 0.40707 0.39966 0.0
C2475 C 0.91767 0.44142 0.39791 0.0
C2476 C 0.9297 0.45581 0.38559 0.0
C2477 C 0.90514 0.44437 0.40927 0.0
C2478 C 0.89264 0.43006 0.42309 0.0
C2479 C 0.90039 0.42342 0.43658 0.0
C2480 C 0.8885 0.40986 0.4495 0.0
C2481 C 0.86884 0.40293 0.44917 0.0
C2482 C 0.86104 0.40958 0.43594 0.0
C2483 C 0.87287 0.42313 0.42297 0.0
H2484 H 0.85966 0.39243 0.45919 0.0
H2485 H 0.97481 0.525 0.33427 0.0
H2486 H 0.54401 0.95174 0.89884 0.0
H2487 H 0.51315 0.95006 0.90171 0.0
H2488 H 0.48493 0.88857 0.90301 0.0
H2489 H 0.51576 0.89008 0.89987 0.0
H2490 H 0.46773 0.90046 0.87945 0.0
H2491 H 0.48884 0.91414 0.94192 0.0
H2492 H 0.51114 0.93157 0.96722 0.0
H2493 H 0.51027 0.98256 0.95256 0.0
H2494 H 0.48816 0.96551 0.927 0.0
H2495 H 0.3768 0.88858 0.8998 0.0
H2496 H 0.40651 0.88789 0.90304 0.0
H2497 H 0.43865 0.94939 0.90067 0.0
H2498 H 0.40901 0.95026 0.89769 0.0
H2499 H 0.45304 0.93584 0.92639 0.0
H2500 H 0.43395 0.92286 0.8628 0.0
H2501 H 0.41195 0.90574 0.8372 0.0
H2502 H 0.40938 0.85358 0.85392 0.0
H2503 H 0.43118 0.87035 0.87978 0.0
C2504 C 0.53127 0.93784 0.89988 0.0
C2505 C 0.53239 0.92104 0.8991 0.0
C2506 C 0.51363 0.93692 0.90161 0.0
C2507 C 0.49673 0.91919 0.90275 0.0
C2508 C 0.49779 0.9024 0.90218 0.0
C2509 C 0.51544 0.9033 0.90043 0.0
C2510 C 0.47791 0.9182 0.90362 0.0
C2511 C 0.46439 0.9079 0.88993 0.0
C2512 C 0.47371 0.92829 0.91703 0.0
C2513 C 0.48696 0.93858 0.93244 0.0
C2514 C 0.49351 0.92911 0.944 0.0
C2515 C 0.5061 0.93891 0.9584 0.0
C2516 C 0.51215 0.95817 0.96147 0.0
C2517 C 0.50559 0.96765 0.95016 0.0
C2518 C 0.49301 0.95791 0.93572 0.0
C2519 C 0.39016 0.90198 0.90012 0.0
C2520 C 0.39051 0.91948 0.89833 0.0
C2521 C 0.40715 0.90155 0.90192 0.0
C2522 C 0.42482 0.91858 0.90183 0.0
C2523 C 0.42518 0.93608 0.90073 0.0
C2524 C 0.40821 0.93653 0.89896 0.0
C2525 C 0.44296 0.91817 0.90218 0.0
C2526 C 0.45634 0.92824 0.91605 0.0
C2527 C 0.44708 0.9079 0.88891 0.0
C2528 C 0.43403 0.89781 0.87334 0.0
C2529 C 0.42857 0.90771 0.8611 0.0
C2530 C 0.41616 0.89807 0.84653 0.0
C2531 C 0.40922 0.87857 0.84397 0.0
C2532 C 0.41473 0.86868 0.85594 0.0
C2533 C 0.42713 0.87824 0.87055 0.0
H2534 H 0.39961 0.87114 0.83268 0.0
H2535 H 0.5219 0.96573 0.97262 0.0
H2536 H 0.48494 0.37484 0.39171 0.0
H2537 H 0.51577 0.4043 0.39355 0.0
H2538 H 0.48706 0.43666 0.40099 0.0
H2539 H 0.4562 0.40735 0.39889 0.0
H2540 H 0.51432 0.45273 0.3756 0.0
H2541 H 0.50976 0.42841 0.43687 0.0
H2542 H 0.5054 0.40443 0.46023 0.0
H2543 H 0.55449 0.40324 0.43941 0.0
H2544 H 0.55899 0.42703 0.41576 0.0
H2545 H 0.59297 0.54128 0.40012 0.0
H2546 H 0.56314 0.5109 0.40184 0.0
H2547 H 0.59379 0.48068 0.39291 0.0
H2548 H 0.62386 0.51108 0.3914 0.0
H2549 H 0.56606 0.46317 0.41894 0.0
H2550 H 0.57057 0.48718 0.35771 0.0
H2551 H 0.57505 0.51104 0.33417 0.0
H2552 H 0.52598 0.51248 0.35465 0.0
H2553 H 0.52137 0.48881 0.3785 0.0
C2554 C 0.48517 0.3882 0.39387 0.0
C2555 C 0.46806 0.38871 0.39512 0.0
C2556 C 0.50283 0.40504 0.395 0.0
C2557 C 0.50374 0.42269 0.39755 0.0
C2558 C 0.4867 0.4232 0.39901 0.0
C2559 C 0.46906 0.40641 0.39785 0.0
C2560 C 0.52241 0.44074 0.39794 0.0
C2561 C 0.52552 0.45511 0.38527 0.0
C2562 C 0.53725 0.44363 0.41018 0.0
C2563 C 0.5346 0.42936 0.42442 0.0
C2564 C 0.51954 0.42292 0.43718 0.0
C2565 C 0.51706 0.40939 0.45049 0.0
C2566 C 0.52963 0.40228 0.45127 0.0
C2567 C 0.54475 0.40874 0.43877 0.0
C2568 C 0.54728 0.42226 0.42542 0.0
C2569 C 0.59344 0.5282 0.39863 0.0
C2570 C 0.61082 0.52865 0.39545 0.0
C2571 C 0.57634 0.51082 0.39957 0.0
C2572 C 0.57619 0.49353 0.3972 0.0
C2573 C 0.59357 0.49386 0.3947 0.0
C2574 C 0.61073 0.51127 0.3938 0.0
C2575 C 0.55783 0.47519 0.39674 0.0
C2576 C 0.55482 0.46077 0.40931 0.0
C2577 C 0.54306 0.47219 0.38438 0.0
C2578 C 0.54574 0.48636 0.37 0.0
C2579 C 0.56082 0.49269 0.35728 0.0
C2580 C 0.56337 0.50616 0.34387 0.0
C2581 C 0.55083 0.5133 0.34295 0.0
C2582 C 0.53569 0.50695 0.3554 0.0
C2583 C 0.53309 0.4935 0.36886 0.0
H2584 H 0.55283 0.52373 0.33255 0.0
H2585 H 0.52769 0.3918 0.46159 0.0
H2586 H 0.11484 0.48857 0.89411 0.0
H2587 H 0.11574 0.5192 0.89625 0.0
H2588 H 0.05449 0.48972 0.9021 0.0
H2589 H 0.05341 0.4591 0.89979 0.0
H2590 H 0.06633 0.51738 0.87677 0.0
H2591 H 0.08382 0.51184 0.93873 0.0
H2592 H 0.10274 0.50738 0.96278 0.0
H2593 H 0.15333 0.55741 0.94394 0.0
H2594 H 0.13475 0.56203 0.91959 0.0
H2595 H 0.05359 0.59438 0.9009 0.0
H2596 H 0.05472 0.56484 0.90274 0.0
H2597 H 0.1159 0.59664 0.89631 0.0
H2598 H 0.11497 0.6264 0.89471 0.0
H2599 H 0.10511 0.56838 0.92178 0.0
H2600 H 0.08793 0.57392 0.8599 0.0
H2601 H 0.06929 0.57852 0.83564 0.0
H2602 H 0.01847 0.52843 0.85401 0.0
H2603 H 0.03677 0.52369 0.87856 0.0
C2604 C 0.10157 0.48859 0.896 0.0
C2605 C 0.08405 0.47135 0.89673 0.0
C2606 C 0.10212 0.50612 0.89729 0.0
C2607 C 0.08519 0.50675 0.89944 0.0
C2608 C 0.06773 0.48957 0.90042 0.0
C2609 C 0.06716 0.47207 0.89914 0.0
C2610 C 0.08549 0.52526 0.89987 0.0
C2611 C 0.0746 0.52841 0.88679 0.0
C2612 C 0.09674 0.5399 0.91258 0.0
C2613 C 0.10793 0.53717 0.92722 0.0
C2614 C 0.09901 0.5218 0.93961 0.0
C2615 C 0.10967 0.51926 0.95332 0.0
C2616 C 0.12923 0.53207 0.95485 0.0
C2617 C 0.13818 0.54748 0.94271 0.0
C2618 C 0.12759 0.55008 0.92897 0.0
C2619 C 0.06733 0.59516 0.90001 0.0
C2620 C 0.08418 0.61278 0.89749 0.0
C2621 C 0.06794 0.57823 0.90101 0.0
C2622 C 0.08536 0.5785 0.89935 0.0
C2623 C 0.10229 0.5961 0.89755 0.0
C2624 C 0.10172 0.61309 0.89659 0.0
C2625 C 0.08576 0.56035 0.89883 0.0
C2626 C 0.09683 0.55731 0.9118 0.0
C2627 C 0.07472 0.54579 0.88598 0.0
C2628 C 0.06369 0.54856 0.87118 0.0
C2629 C 0.07275 0.56397 0.85885 0.0
C2630 C 0.06225 0.56659 0.84504 0.0
C2631 C 0.0427 0.5538 0.84332 0.0
C2632 C 0.03361 0.53834 0.85538 0.0
C2633 C 0.04404 0.53567 0.86923 0.0
H2634 H 0.03459 0.55586 0.83261 0.0
H2635 H 0.13746 0.53008 0.96548 0.0
H2636 H 0.62573 0.11008 0.39712 0.0
H2637 H 0.59587 0.11066 0.39963 0.0
H2638 H 0.56435 0.04918 0.40272 0.0
H2639 H 0.59402 0.04842 0.40003 0.0
H2640 H 0.54893 0.0621 0.378 0.0
H2641 H 0.57034 0.07651 0.44064 0.0
H2642 H 0.59308 0.09415 0.46557 0.0
H2643 H 0.59413 0.14568 0.44919 0.0
H2644 H 0.57159 0.12839 0.42398 0.0
H2645 H 0.4588 0.05078 0.39927 0.0
H2646 H 0.4887 0.05038 0.40198 0.0
H2647 H 0.52037 0.1119 0.39952 0.0
H2648 H 0.49053 0.11247 0.39714 0.0
H2649 H 0.5357 0.09895 0.4245 0.0
H2650 H 0.51547 0.08524 0.36148 0.0
H2651 H 0.49309 0.0681 0.33614 0.0
H2652 H 0.4904 0.01585 0.35276 0.0
H2653 H 0.51257 0.03265 0.37837 0.0
C2654 C 0.61247 0.09668 0.3985 0.0
C2655 C 0.6123 0.0792 0.39832 0.0
C2656 C 0.59541 0.09705 0.4 0.0
C2657 C 0.57787 0.07996 0.40146 0.0
C2658 C 0.5777 0.06253 0.40159 0.0
C2659 C 0.59472 0.06214 0.40009 0.0
C2660 C 0.55961 0.08013 0.40195 0.0
C2661 C 0.54593 0.06992 0.38835 0.0
C2662 C 0.5559 0.09077 0.41513 0.0
C2663 C 0.56942 0.10119 0.43031 0.0
C2664 C 0.57554 0.09163 0.44225 0.0
C2665 C 0.58837 0.10157 0.45646 0.0
C2666 C 0.59508 0.12104 0.45894 0.0
C2667 C 0.58894 0.13061 0.44724 0.0
C2668 C 0.57612 0.12074 0.433 0.0
C2669 C 0.4721 0.06425 0.39945 0.0
C2670 C 0.47225 0.08165 0.39783 0.0
C2671 C 0.4892 0.06399 0.40094 0.0
C2672 C 0.50679 0.0811 0.40065 0.0
C2673 C 0.50697 0.09852 0.39972 0.0
C2674 C 0.48988 0.0988 0.39831 0.0
C2675 C 0.52501 0.08082 0.40062 0.0
C2676 C 0.53869 0.09106 0.41422 0.0
C2677 C 0.5288 0.07028 0.38739 0.0
C2678 C 0.51553 0.06016 0.37195 0.0
C2679 C 0.50999 0.07007 0.35981 0.0
C2680 C 0.49736 0.06042 0.34539 0.0
C2681 C 0.49029 0.04089 0.34287 0.0
C2682 C 0.49587 0.03098 0.35474 0.0
C2683 C 0.50848 0.04055 0.36921 0.0
H2684 H 0.48051 0.03344 0.3317 0.0
H2685 H 0.60501 0.1287 0.46994 0.0
H2686 H 0.54662 0.59371 0.89795 0.0
H2687 H 0.51613 0.56396 0.89971 0.0
H2688 H 0.4862 0.5955 0.8964 0.0
H2689 H 0.51669 0.62544 0.89481 0.0
H2690 H 0.47002 0.56669 0.92174 0.0
H2691 H 0.49043 0.57394 0.85878 0.0
H2692 H 0.5129 0.57925 0.83348 0.0
H2693 H 0.51418 0.52867 0.84898 0.0
H2694 H 0.49192 0.5232 0.87456 0.0
H2695 H 0.3793 0.48905 0.89537 0.0
H2696 H 0.40949 0.51916 0.89731 0.0
H2697 H 0.44018 0.48829 0.89862 0.0
H2698 H 0.4101 0.45812 0.89642 0.0
H2699 H 0.45592 0.51701 0.87454 0.0
H2700 H 0.43504 0.50956 0.93739 0.0
H2701 H 0.41262 0.50445 0.96267 0.0
H2702 H 0.41202 0.5554 0.94727 0.0
H2703 H 0.43425 0.56068 0.92173 0.0
C2704 C 0.53358 0.59438 0.89771 0.0
C2705 C 0.53413 0.61199 0.89609 0.0
C2706 C 0.51615 0.57733 0.89866 0.0
C2707 C 0.49889 0.5775 0.89792 0.0
C2708 C 0.49936 0.59505 0.89694 0.0
C2709 C 0.51681 0.61214 0.89598 0.0
C2710 C 0.4804 0.5593 0.8976 0.0
C2711 C 0.46682 0.55591 0.9113 0.0
C2712 C 0.47638 0.5451 0.88416 0.0
C2713 C 0.48965 0.54827 0.8687 0.0
C2714 C 0.49562 0.56403 0.85688 0.0
C2715 C 0.5083 0.56705 0.84248 0.0
C2716 C 0.515 0.55433 0.83966 0.0
C2717 C 0.50899 0.53852 0.8512 0.0
C2718 C 0.49633 0.53545 0.86564 0.0
C2719 C 0.39245 0.48863 0.89621 0.0
C2720 C 0.39224 0.47114 0.89573 0.0
C2721 C 0.40971 0.50588 0.89739 0.0
C2722 C 0.42711 0.50599 0.89826 0.0
C2723 C 0.42694 0.48855 0.89796 0.0
C2724 C 0.4097 0.47131 0.89675 0.0
C2725 C 0.44554 0.52428 0.89877 0.0
C2726 C 0.45911 0.52774 0.88503 0.0
C2727 C 0.4495 0.53852 0.91216 0.0
C2728 C 0.43617 0.53541 0.92753 0.0
C2729 C 0.43001 0.51959 0.9393 0.0
C2730 C 0.41736 0.51668 0.9537 0.0
C2731 C 0.41086 0.52956 0.95655 0.0
C2732 C 0.41704 0.54542 0.94503 0.0
C2733 C 0.42968 0.54838 0.9306 0.0
H2734 H 0.40107 0.52728 0.9677 0.0
H2735 H 0.52482 0.55671 0.8285 0.0
loop_
_geom_bond_atom_site_label_1
_geom_bond_atom_site_label_2
_geom_bond_distance
_geom_bond_site_symmetry_2
_ccdc_geom_bond_type
O0 Cd1 2.223 . S
O0 C8 1.315 . S
Cd1 O0 2.223 . S
Cd1 O4 2.297 . S
Cd1 O5 2.439 . S
Cd1 O11 2.240 . S
Cd2 O3 2.240 . S
Cd2 O10 2.223 . S
Cd2 O12 2.297 . S
Cd2 O13 2.439 . S
O3 Cd2 2.240 . S
O3 C8 1.279 . S
O4 Cd1 2.297 . S
O4 C6 1.247 . S
O5 Cd1 2.439 . S
O5 C6 1.208 . S
C6 O4 1.247 . S
C6 O5 1.208 . S
C7 O12 1.247 . S
C7 O13 1.208 . S
C8 O0 1.315 . S
C8 O3 1.279 . S
C9 O10 1.315 . S
C9 O11 1.279 . S
O10 Cd2 2.223 . S
O10 C9 1.315 . S
O11 Cd1 2.240 . S
O11 C9 1.279 . S
O12 Cd2 2.297 . S
O12 C7 1.247 . S
O13 Cd2 2.439 . S
O13 C7 1.208 . S
O14 Cd15 2.223 . S
O14 C22 1.315 . S
Cd15 O14 2.223 . S
Cd15 O18 2.297 . S
Cd15 O19 2.439 . S
Cd15 O25 2.240 . S
Cd16 O17 2.240 . S
Cd16 O24 2.223 . S
Cd16 O26 2.297 . S
Cd16 O27 2.439 . S
O17 Cd16 2.240 . S
O17 C22 1.279 . S
O18 Cd15 2.297 . S
O18 C20 1.247 . S
O19 Cd15 2.439 . S
O19 C20 1.208 . S
C20 O18 1.247 . S
C20 O19 1.208 . S
C21 O26 1.247 . S
C21 O27 1.208 . S
C22 O14 1.315 . S
C22 O17 1.279 . S
C23 O24 1.315 . S
C23 O25 1.279 . S
O24 Cd16 2.223 . S
O24 C23 1.315 . S
O25 Cd15 2.240 . S
O25 C23 1.279 . S
O26 Cd16 2.297 . S
O26 C21 1.247 . S
O27 Cd16 2.439 . S
O27 C21 1.208 . S
O28 Cd29 2.223 . S
O28 C36 1.315 . S
Cd29 O28 2.223 . S
Cd29 O32 2.297 . S
Cd29 O33 2.439 . S
Cd29 O39 2.240 . S
Cd30 O31 2.240 . S
Cd30 O38 2.223 . S
Cd30 O40 2.297 . S
Cd30 O41 2.439 . S
O31 Cd30 2.240 . S
O31 C36 1.279 . S
O32 Cd29 2.297 . S
O32 C34 1.247 . S
O33 Cd29 2.439 . S
O33 C34 1.208 . S
C34 O32 1.247 . S
C34 O33 1.208 . S
C35 O40 1.247 . S
C35 O41 1.208 . S
C36 O28 1.315 . S
C36 O31 1.279 . S
C37 O38 1.315 . S
C37 O39 1.279 . S
O38 Cd30 2.223 . S
O38 C37 1.315 . S
O39 Cd29 2.240 . S
O39 C37 1.279 . S
O40 Cd30 2.297 . S
O40 C35 1.247 . S
O41 Cd30 2.439 . S
O41 C35 1.208 . S
O42 Cd43 2.223 . S
O42 C50 1.315 . S
Cd43 O42 2.223 . S
Cd43 O46 2.297 . S
Cd43 O47 2.439 . S
Cd43 O53 2.240 . S
Cd44 O45 2.240 . S
Cd44 O52 2.223 . S
Cd44 O54 2.297 . S
Cd44 O55 2.439 . S
O45 Cd44 2.240 . S
O45 C50 1.279 . S
O46 Cd43 2.297 . S
O46 C48 1.247 . S
O47 Cd43 2.439 . S
O47 C48 1.208 . S
C48 O46 1.247 . S
C48 O47 1.208 . S
C49 O54 1.247 . S
C49 O55 1.208 . S
C50 O42 1.315 . S
C50 O45 1.279 . S
C51 O52 1.315 . S
C51 O53 1.279 . S
O52 Cd44 2.223 . S
O52 C51 1.315 . S
O53 Cd43 2.240 . S
O53 C51 1.279 . S
O54 Cd44 2.297 . S
O54 C49 1.247 . S
O55 Cd44 2.439 . S
O55 C49 1.208 . S
O56 Cd57 2.223 . S
O56 C64 1.315 . S
Cd57 O56 2.223 . S
Cd57 O60 2.297 . S
Cd57 O61 2.439 . S
Cd57 O67 2.240 . S
Cd58 O59 2.240 . S
Cd58 O66 2.223 . S
Cd58 O68 2.297 . S
Cd58 O69 2.439 . S
O59 Cd58 2.240 . S
O59 C64 1.279 . S
O60 Cd57 2.297 . S
O60 C62 1.247 . S
O61 Cd57 2.439 . S
O61 C62 1.208 . S
C62 O60 1.247 . S
C62 O61 1.208 . S
C63 O68 1.247 . S
C63 O69 1.208 . S
C64 O56 1.315 . S
C64 O59 1.279 . S
C65 O66 1.315 . S
C65 O67 1.279 . S
O66 Cd58 2.223 . S
O66 C65 1.315 . S
O67 Cd57 2.240 . S
O67 C65 1.279 . S
O68 Cd58 2.297 . S
O68 C63 1.247 . S
O69 Cd58 2.439 . S
O69 C63 1.208 . S
O70 Cd71 2.223 . S
O70 C78 1.315 . S
Cd71 O70 2.223 . S
Cd71 O74 2.297 . S
Cd71 O75 2.439 . S
Cd71 O81 2.240 . S
Cd72 O73 2.240 . S
Cd72 O80 2.223 . S
Cd72 O82 2.297 . S
Cd72 O83 2.439 . S
O73 Cd72 2.240 . S
O73 C78 1.279 . S
O74 Cd71 2.297 . S
O74 C76 1.247 . S
O75 Cd71 2.439 . S
O75 C76 1.208 . S
C76 O74 1.247 . S
C76 O75 1.208 . S
C77 O82 1.247 . S
C77 O83 1.208 . S
C78 O70 1.315 . S
C78 O73 1.279 . S
C79 O80 1.315 . S
C79 O81 1.279 . S
O80 Cd72 2.223 . S
O80 C79 1.315 . S
O81 Cd71 2.240 . S
O81 C79 1.279 . S
O82 Cd72 2.297 . S
O82 C77 1.247 . S
O83 Cd72 2.439 . S
O83 C77 1.208 . S
O84 Cd85 2.223 . S
O84 C92 1.315 . S
Cd85 O84 2.223 . S
Cd85 O88 2.297 . S
Cd85 O89 2.439 . S
Cd85 O95 2.240 . S
Cd86 O87 2.240 . S
Cd86 O94 2.223 . S
Cd86 O96 2.297 . S
Cd86 O97 2.439 . S
O87 Cd86 2.240 . S
O87 C92 1.279 . S
O88 Cd85 2.297 . S
O88 C90 1.247 . S
O89 Cd85 2.439 . S
O89 C90 1.208 . S
C90 O88 1.247 . S
C90 O89 1.208 . S
C91 O96 1.247 . S
C91 O97 1.208 . S
C92 O84 1.315 . S
C92 O87 1.279 . S
C93 O94 1.315 . S
C93 O95 1.279 . S
O94 Cd86 2.223 . S
O94 C93 1.315 . S
O95 Cd85 2.240 . S
O95 C93 1.279 . S
O96 Cd86 2.297 . S
O96 C91 1.247 . S
O97 Cd86 2.439 . S
O97 C91 1.208 . S
O98 Cd99 2.223 . S
O98 C106 1.315 . S
Cd99 O98 2.223 . S
Cd99 O102 2.297 . S
Cd99 O103 2.439 . S
Cd99 O109 2.240 . S
Cd100 O101 2.240 . S
Cd100 O108 2.223 . S
Cd100 O110 2.297 . S
Cd100 O111 2.439 . S
O101 Cd100 2.240 . S
O101 C106 1.279 . S
O102 Cd99 2.297 . S
O102 C104 1.247 . S
O103 Cd99 2.439 . S
O103 C104 1.208 . S
C104 O102 1.247 . S
C104 O103 1.208 . S
C105 O110 1.247 . S
C105 O111 1.208 . S
C106 O98 1.315 . S
C106 O101 1.279 . S
C107 O108 1.315 . S
C107 O109 1.279 . S
O108 Cd100 2.223 . S
O108 C107 1.315 . S
O109 Cd99 2.240 . S
O109 C107 1.279 . S
O110 Cd100 2.297 . S
O110 C105 1.247 . S
O111 Cd100 2.439 . S
O111 C105 1.208 . S
O112 Cd113 2.223 . S
O112 C120 1.315 . S
Cd113 O112 2.223 . S
Cd113 O116 2.297 . S
Cd113 O117 2.439 . S
Cd113 O123 2.240 . S
Cd114 O115 2.240 . S
Cd114 O122 2.223 . S
Cd114 O124 2.297 . S
Cd114 O125 2.439 . S
O115 Cd114 2.240 . S
O115 C120 1.279 . S
O116 Cd113 2.297 . S
O116 C118 1.247 . S
O117 Cd113 2.439 . S
O117 C118 1.208 . S
C118 O116 1.247 . S
C118 O117 1.208 . S
C119 O124 1.247 . S
C119 O125 1.208 . S
C120 O112 1.315 . S
C120 O115 1.279 . S
C121 O122 1.315 . S
C121 O123 1.279 . S
O122 Cd114 2.223 . S
O122 C121 1.315 . S
O123 Cd113 2.240 . S
O123 C121 1.279 . S
O124 Cd114 2.297 . S
O124 C119 1.247 . S
O125 Cd114 2.439 . S
O125 C119 1.208 . S
O126 Cd127 2.223 . S
O126 C134 1.315 . S
Cd127 O126 2.223 . S
Cd127 O130 2.297 . S
Cd127 O131 2.439 . S
Cd127 O137 2.240 . S
Cd128 O129 2.240 . S
Cd128 O136 2.223 . S
Cd128 O138 2.297 . S
Cd128 O139 2.439 . S
O129 Cd128 2.240 . S
O129 C134 1.279 . S
O130 Cd127 2.297 . S
O130 C132 1.247 . S
O131 Cd127 2.439 . S
O131 C132 1.208 . S
C132 O130 1.247 . S
C132 O131 1.208 . S
C133 O138 1.247 . S
C133 O139 1.208 . S
C134 O126 1.315 . S
C134 O129 1.279 . S
C135 O136 1.315 . S
C135 O137 1.279 . S
O136 Cd128 2.223 . S
O136 C135 1.315 . S
O137 Cd127 2.240 . S
O137 C135 1.279 . S
O138 Cd128 2.297 . S
O138 C133 1.247 . S
O139 Cd128 2.439 . S
O139 C133 1.208 . S
O140 Cd141 2.223 . S
O140 C148 1.315 . S
Cd141 O140 2.223 . S
Cd141 O144 2.297 . S
Cd141 O145 2.439 . S
Cd141 O151 2.240 . S
Cd142 O143 2.240 . S
Cd142 O150 2.223 . S
Cd142 O152 2.297 . S
Cd142 O153 2.439 . S
O143 Cd142 2.240 . S
O143 C148 1.279 . S
O144 Cd141 2.297 . S
O144 C146 1.247 . S
O145 Cd141 2.439 . S
O145 C146 1.208 . S
C146 O144 1.247 . S
C146 O145 1.208 . S
C147 O152 1.247 . S
C147 O153 1.208 . S
C148 O140 1.315 . S
C148 O143 1.279 . S
C149 O150 1.315 . S
C149 O151 1.279 . S
O150 Cd142 2.223 . S
O150 C149 1.315 . S
O151 Cd141 2.240 . S
O151 C149 1.279 . S
O152 Cd142 2.297 . S
O152 C147 1.247 . S
O153 Cd142 2.439 . S
O153 C147 1.208 . S
O154 Cd155 2.223 . S
O154 C162 1.315 . S
Cd155 O154 2.223 . S
Cd155 O158 2.297 . S
Cd155 O159 2.439 . S
Cd155 O165 2.240 . S
Cd156 O157 2.240 . S
Cd156 O164 2.223 . S
Cd156 O166 2.297 . S
Cd156 O167 2.439 . S
O157 Cd156 2.240 . S
O157 C162 1.279 . S
O158 Cd155 2.297 . S
O158 C160 1.247 . S
O159 Cd155 2.439 . S
O159 C160 1.208 . S
C160 O158 1.247 . S
C160 O159 1.208 . S
C161 O166 1.247 . S
C161 O167 1.208 . S
C162 O154 1.315 . S
C162 O157 1.279 . S
C163 O164 1.315 . S
C163 O165 1.279 . S
O164 Cd156 2.223 . S
O164 C163 1.315 . S
O165 Cd155 2.240 . S
O165 C163 1.279 . S
O166 Cd156 2.297 . S
O166 C161 1.247 . S
O167 Cd156 2.439 . S
O167 C161 1.208 . S
O168 Cd169 2.223 . S
O168 C176 1.315 . S
Cd169 O168 2.223 . S
Cd169 O172 2.297 . S
Cd169 O173 2.439 . S
Cd169 O179 2.240 . S
Cd170 O171 2.240 . S
Cd170 O178 2.223 . S
Cd170 O180 2.297 . S
Cd170 O181 2.439 . S
O171 Cd170 2.240 . S
O171 C176 1.279 . S
O172 Cd169 2.297 . S
O172 C174 1.247 . S
O173 Cd169 2.439 . S
O173 C174 1.208 . S
C174 O172 1.247 . S
C174 O173 1.208 . S
C175 O180 1.247 . S
C175 O181 1.208 . S
C176 O168 1.315 . S
C176 O171 1.279 . S
C177 O178 1.315 . S
C177 O179 1.279 . S
O178 Cd170 2.223 . S
O178 C177 1.315 . S
O179 Cd169 2.240 . S
O179 C177 1.279 . S
O180 Cd170 2.297 . S
O180 C175 1.247 . S
O181 Cd170 2.439 . S
O181 C175 1.208 . S
O182 Cd183 2.223 . S
O182 C190 1.315 . S
Cd183 O182 2.223 . S
Cd183 O186 2.297 . S
Cd183 O187 2.439 . S
Cd183 O193 2.240 . S
Cd184 O185 2.240 . S
Cd184 O192 2.223 . S
Cd184 O194 2.297 . S
Cd184 O195 2.439 . S
O185 Cd184 2.240 . S
O185 C190 1.279 . S
O186 Cd183 2.297 . S
O186 C188 1.247 . S
O187 Cd183 2.439 . S
O187 C188 1.208 . S
C188 O186 1.247 . S
C188 O187 1.208 . S
C189 O194 1.247 . S
C189 O195 1.208 . S
C190 O182 1.315 . S
C190 O185 1.279 . S
C191 O192 1.315 . S
C191 O193 1.279 . S
O192 Cd184 2.223 . S
O192 C191 1.315 . S
O193 Cd183 2.240 . S
O193 C191 1.279 . S
O194 Cd184 2.297 . S
O194 C189 1.247 . S
O195 Cd184 2.439 . S
O195 C189 1.208 . S
O196 Cd197 2.223 . S
O196 C204 1.315 . S
Cd197 O196 2.223 . S
Cd197 O200 2.297 . S
Cd197 O201 2.439 . S
Cd197 O207 2.240 . S
Cd198 O199 2.240 . S
Cd198 O206 2.223 . S
Cd198 O208 2.297 . S
Cd198 O209 2.439 . S
O199 Cd198 2.240 . S
O199 C204 1.279 . S
O200 Cd197 2.297 . S
O200 C202 1.247 . S
O201 Cd197 2.439 . S
O201 C202 1.208 . S
C202 O200 1.247 . S
C202 O201 1.208 . S
C203 O208 1.247 . S
C203 O209 1.208 . S
C204 O196 1.315 . S
C204 O199 1.279 . S
C205 O206 1.315 . S
C205 O207 1.279 . S
O206 Cd198 2.223 . S
O206 C205 1.315 . S
O207 Cd197 2.240 . S
O207 C205 1.279 . S
O208 Cd198 2.297 . S
O208 C203 1.247 . S
O209 Cd198 2.439 . S
O209 C203 1.208 . S
O210 Cd211 2.223 . S
O210 C218 1.315 . S
Cd211 O210 2.223 . S
Cd211 O214 2.297 . S
Cd211 O215 2.439 . S
Cd211 O221 2.240 . S
Cd212 O213 2.240 . S
Cd212 O220 2.223 . S
Cd212 O222 2.297 . S
Cd212 O223 2.439 . S
O213 Cd212 2.240 . S
O213 C218 1.279 . S
O214 Cd211 2.297 . S
O214 C216 1.247 . S
O215 Cd211 2.439 . S
O215 C216 1.208 . S
C216 O214 1.247 . S
C216 O215 1.208 . S
C217 O222 1.247 . S
C217 O223 1.208 . S
C218 O210 1.315 . S
C218 O213 1.279 . S
C219 O220 1.315 . S
C219 O221 1.279 . S
O220 Cd212 2.223 . S
O220 C219 1.315 . S
O221 Cd211 2.240 . S
O221 C219 1.279 . S
O222 Cd212 2.297 . S
O222 C217 1.247 . S
O223 Cd212 2.439 . S
O223 C217 1.208 . S
O224 Cd225 2.223 . S
O224 C232 1.315 . S
Cd225 O224 2.223 . S
Cd225 O228 2.297 . S
Cd225 O229 2.439 . S
Cd225 O235 2.240 . S
Cd226 O227 2.240 . S
Cd226 O234 2.223 . S
Cd226 O236 2.297 . S
Cd226 O237 2.439 . S
O227 Cd226 2.240 . S
O227 C232 1.279 . S
O228 Cd225 2.297 . S
O228 C230 1.247 . S
O229 Cd225 2.439 . S
O229 C230 1.208 . S
C230 O228 1.247 . S
C230 O229 1.208 . S
C231 O236 1.247 . S
C231 O237 1.208 . S
C232 O224 1.315 . S
C232 O227 1.279 . S
C233 O234 1.315 . S
C233 O235 1.279 . S
O234 Cd226 2.223 . S
O234 C233 1.315 . S
O235 Cd225 2.240 . S
O235 C233 1.279 . S
O236 Cd226 2.297 . S
O236 C231 1.247 . S
O237 Cd226 2.439 . S
O237 C231 1.208 . S
O238 Cd239 2.223 . S
O238 C246 1.315 . S
Cd239 O238 2.223 . S
Cd239 O242 2.297 . S
Cd239 O243 2.439 . S
Cd239 O249 2.240 . S
Cd240 O241 2.240 . S
Cd240 O248 2.223 . S
Cd240 O250 2.297 . S
Cd240 O251 2.439 . S
O241 Cd240 2.240 . S
O241 C246 1.279 . S
O242 Cd239 2.297 . S
O242 C244 1.247 . S
O243 Cd239 2.439 . S
O243 C244 1.208 . S
C244 O242 1.247 . S
C244 O243 1.208 . S
C245 O250 1.247 . S
C245 O251 1.208 . S
C246 O238 1.315 . S
C246 O241 1.279 . S
C247 O248 1.315 . S
C247 O249 1.279 . S
O248 Cd240 2.223 . S
O248 C247 1.315 . S
O249 Cd239 2.240 . S
O249 C247 1.279 . S
O250 Cd240 2.297 . S
O250 C245 1.247 . S
O251 Cd240 2.439 . S
O251 C245 1.208 . S
O252 Cd253 2.223 . S
O252 C260 1.315 . S
Cd253 O252 2.223 . S
Cd253 O256 2.297 . S
Cd253 O257 2.439 . S
Cd253 O263 2.240 . S
Cd254 O255 2.240 . S
Cd254 O262 2.223 . S
Cd254 O264 2.297 . S
Cd254 O265 2.439 . S
O255 Cd254 2.240 . S
O255 C260 1.279 . S
O256 Cd253 2.297 . S
O256 C258 1.247 . S
O257 Cd253 2.439 . S
O257 C258 1.208 . S
C258 O256 1.247 . S
C258 O257 1.208 . S
C259 O264 1.247 . S
C259 O265 1.208 . S
C260 O252 1.315 . S
C260 O255 1.279 . S
C261 O262 1.315 . S
C261 O263 1.279 . S
O262 Cd254 2.223 . S
O262 C261 1.315 . S
O263 Cd253 2.240 . S
O263 C261 1.279 . S
O264 Cd254 2.297 . S
O264 C259 1.247 . S
O265 Cd254 2.439 . S
O265 C259 1.208 . S
O266 Cd267 2.223 . S
O266 C274 1.315 . S
Cd267 O266 2.223 . S
Cd267 O270 2.297 . S
Cd267 O271 2.439 . S
Cd267 O277 2.240 . S
Cd268 O269 2.240 . S
Cd268 O276 2.223 . S
Cd268 O278 2.297 . S
Cd268 O279 2.439 . S
O269 Cd268 2.240 . S
O269 C274 1.279 . S
O270 Cd267 2.297 . S
O270 C272 1.247 . S
O271 Cd267 2.439 . S
O271 C272 1.208 . S
C272 O270 1.247 . S
C272 O271 1.208 . S
C273 O278 1.247 . S
C273 O279 1.208 . S
C274 O266 1.315 . S
C274 O269 1.279 . S
C275 O276 1.315 . S
C275 O277 1.279 . S
O276 Cd268 2.223 . S
O276 C275 1.315 . S
O277 Cd267 2.240 . S
O277 C275 1.279 . S
O278 Cd268 2.297 . S
O278 C273 1.247 . S
O279 Cd268 2.439 . S
O279 C273 1.208 . S
O280 Cd281 2.223 . S
O280 C288 1.315 . S
Cd281 O280 2.223 . S
Cd281 O284 2.297 . S
Cd281 O285 2.439 . S
Cd281 O291 2.240 . S
Cd282 O283 2.240 . S
Cd282 O290 2.223 . S
Cd282 O292 2.297 . S
Cd282 O293 2.439 . S
O283 Cd282 2.240 . S
O283 C288 1.279 . S
O284 Cd281 2.297 . S
O284 C286 1.247 . S
O285 Cd281 2.439 . S
O285 C286 1.208 . S
C286 O284 1.247 . S
C286 O285 1.208 . S
C287 O292 1.247 . S
C287 O293 1.208 . S
C288 O280 1.315 . S
C288 O283 1.279 . S
C289 O290 1.315 . S
C289 O291 1.279 . S
O290 Cd282 2.223 . S
O290 C289 1.315 . S
O291 Cd281 2.240 . S
O291 C289 1.279 . S
O292 Cd282 2.297 . S
O292 C287 1.247 . S
O293 Cd282 2.439 . S
O293 C287 1.208 . S
O294 Cd295 2.223 . S
O294 C302 1.315 . S
Cd295 O294 2.223 . S
Cd295 O298 2.297 . S
Cd295 O299 2.439 . S
Cd295 O305 2.240 . S
Cd296 O297 2.240 . S
Cd296 O304 2.223 . S
Cd296 O306 2.297 . S
Cd296 O307 2.439 . S
O297 Cd296 2.240 . S
O297 C302 1.279 . S
O298 Cd295 2.297 . S
O298 C300 1.247 . S
O299 Cd295 2.439 . S
O299 C300 1.208 . S
C300 O298 1.247 . S
C300 O299 1.208 . S
C301 O306 1.247 . S
C301 O307 1.208 . S
C302 O294 1.315 . S
C302 O297 1.279 . S
C303 O304 1.315 . S
C303 O305 1.279 . S
O304 Cd296 2.223 . S
O304 C303 1.315 . S
O305 Cd295 2.240 . S
O305 C303 1.279 . S
O306 Cd296 2.297 . S
O306 C301 1.247 . S
O307 Cd296 2.439 . S
O307 C301 1.208 . S
O308 Cd309 2.223 . S
O308 C316 1.315 . S
Cd309 O308 2.223 . S
Cd309 O312 2.297 . S
Cd309 O313 2.439 . S
Cd309 O319 2.240 . S
Cd310 O311 2.240 . S
Cd310 O318 2.223 . S
Cd310 O320 2.297 . S
Cd310 O321 2.439 . S
O311 Cd310 2.240 . S
O311 C316 1.279 . S
O312 Cd309 2.297 . S
O312 C314 1.247 . S
O313 Cd309 2.439 . S
O313 C314 1.208 . S
C314 O312 1.247 . S
C314 O313 1.208 . S
C315 O320 1.247 . S
C315 O321 1.208 . S
C316 O308 1.315 . S
C316 O311 1.279 . S
C317 O318 1.315 . S
C317 O319 1.279 . S
O318 Cd310 2.223 . S
O318 C317 1.315 . S
O319 Cd309 2.240 . S
O319 C317 1.279 . S
O320 Cd310 2.297 . S
O320 C315 1.247 . S
O321 Cd310 2.439 . S
O321 C315 1.208 . S
O322 Cd323 2.223 . S
O322 C330 1.315 . S
Cd323 O322 2.223 . S
Cd323 O326 2.297 . S
Cd323 O327 2.439 . S
Cd323 O333 2.240 . S
Cd324 O325 2.240 . S
Cd324 O332 2.223 . S
Cd324 O334 2.297 . S
Cd324 O335 2.439 . S
O325 Cd324 2.240 . S
O325 C330 1.279 . S
O326 Cd323 2.297 . S
O326 C328 1.247 . S
O327 Cd323 2.439 . S
O327 C328 1.208 . S
C328 O326 1.247 . S
C328 O327 1.208 . S
C329 O334 1.247 . S
C329 O335 1.208 . S
C330 O322 1.315 . S
C330 O325 1.279 . S
C331 O332 1.315 . S
C331 O333 1.279 . S
O332 Cd324 2.223 . S
O332 C331 1.315 . S
O333 Cd323 2.240 . S
O333 C331 1.279 . S
O334 Cd324 2.297 . S
O334 C329 1.247 . S
O335 Cd324 2.439 . S
O335 C329 1.208 . S
H336 C354 0.951 . S
H337 C356 0.951 . S
H338 C358 0.950 . S
H339 C359 0.950 . S
H340 C361 0.950 . S
H341 C364 0.950 . S
H342 C365 0.950 . S
H343 C367 0.950 . S
H344 C368 0.950 . S
H345 C369 0.951 . S
H346 C371 0.951 . S
H347 C373 0.950 . S
H348 C374 0.950 . S
H349 C376 0.950 . S
H350 C379 0.950 . S
H351 C380 0.950 . S
H352 C382 0.950 . S
H353 C383 0.950 . S
C354 H336 0.951 . S
C354 C355 1.366 . S
C354 C356 1.388 . S
C355 C354 1.366 . S
C355 C359 1.385 . S
C356 H337 0.951 . S
C356 C354 1.388 . S
C356 C357 1.366 . S
C357 C356 1.366 . S
C357 C358 1.414 . S
C357 C360 1.499 . S
C358 H338 0.950 . S
C358 C357 1.414 . S
C358 C359 1.374 . S
C359 H339 0.950 . S
C359 C355 1.385 . S
C359 C358 1.374 . S
C360 C357 1.499 . S
C360 C361 1.373 . S
C360 C362 1.389 . S
C361 H340 0.950 . S
C361 C360 1.373 . S
C361 C377 1.377 . S
C362 C360 1.389 . S
C362 C363 1.524 . S
C362 C376 1.377 . S
C363 C362 1.524 . S
C363 C364 1.397 . S
C363 C368 1.363 . S
C364 H341 0.950 . S
C364 C363 1.397 . S
C364 C365 1.334 . S
C365 H342 0.950 . S
C365 C364 1.334 . S
C365 C366 1.287 . S
C366 C365 1.287 . S
C366 C367 1.524 . S
C366 H385 0.913 1_545 S
C367 H343 0.950 . S
C367 C366 1.524 . S
C367 C368 1.415 . S
C368 H344 0.950 . S
C368 C363 1.363 . S
C368 C367 1.415 . S
C369 H345 0.951 . S
C369 C370 1.366 . S
C369 C371 1.388 . S
C370 C369 1.366 . S
C370 C374 1.385 . S
C371 H346 0.951 . S
C371 C369 1.388 . S
C371 C372 1.366 . S
C372 C371 1.366 . S
C372 C373 1.414 . S
C372 C375 1.499 . S
C373 H347 0.950 . S
C373 C372 1.414 . S
C373 C374 1.374 . S
C374 H348 0.950 . S
C374 C370 1.385 . S
C374 C373 1.374 . S
C375 C372 1.499 . S
C375 C376 1.373 . S
C375 C377 1.389 . S
C376 H349 0.950 . S
C376 C362 1.377 . S
C376 C375 1.373 . S
C377 C361 1.377 . S
C377 C375 1.389 . S
C377 C378 1.524 . S
C378 C377 1.524 . S
C378 C379 1.397 . S
C378 C383 1.363 . S
C379 H350 0.950 . S
C379 C378 1.397 . S
C379 C380 1.334 . S
C380 H351 0.950 . S
C380 C379 1.334 . S
C380 C381 1.287 . S
C381 C380 1.287 . S
C381 C382 1.524 . S
C381 H384 0.999 . S
C382 H352 0.950 . S
C382 C381 1.524 . S
C382 C383 1.415 . S
C383 H353 0.950 . S
C383 C378 1.363 . S
C383 C382 1.415 . S
H384 C381 0.999 . S
H385 C366 0.913 1_565 S
H386 C404 0.951 . S
H387 C406 0.951 . S
H388 C408 0.950 . S
H389 C409 0.950 . S
H390 C411 0.950 . S
H391 C414 0.950 . S
H392 C415 0.950 . S
H393 C417 0.950 . S
H394 C418 0.950 . S
H395 C419 0.951 . S
H396 C421 0.951 . S
H397 C423 0.950 . S
H398 C424 0.950 . S
H399 C426 0.950 . S
H400 C429 0.950 . S
H401 C430 0.950 . S
H402 C432 0.950 . S
H403 C433 0.950 . S
C404 H386 0.951 . S
C404 C405 1.366 . S
C404 C406 1.388 . S
C405 C404 1.366 . S
C405 C409 1.385 . S
C406 H387 0.951 . S
C406 C404 1.388 . S
C406 C407 1.366 . S
C407 C406 1.366 . S
C407 C408 1.414 . S
C407 C410 1.499 . S
C408 H388 0.950 . S
C408 C407 1.414 . S
C408 C409 1.374 . S
C409 H389 0.950 . S
C409 C405 1.385 . S
C409 C408 1.374 . S
C410 C407 1.499 . S
C410 C411 1.373 . S
C410 C412 1.389 . S
C411 H390 0.950 . S
C411 C410 1.373 . S
C411 C427 1.377 . S
C412 C410 1.389 . S
C412 C413 1.524 . S
C412 C426 1.377 . S
C413 C412 1.524 . S
C413 C414 1.397 . S
C413 C418 1.363 . S
C414 H391 0.950 . S
C414 C413 1.397 . S
C414 C415 1.334 . S
C415 H392 0.950 . S
C415 C414 1.334 . S
C415 C416 1.287 . S
C416 C415 1.287 . S
C416 C417 1.524 . S
C416 H435 0.913 . S
C417 H393 0.950 . S
C417 C416 1.524 . S
C417 C418 1.415 . S
C418 H394 0.950 . S
C418 C413 1.363 . S
C418 C417 1.415 . S
C419 H395 0.951 . S
C419 C420 1.366 . S
C419 C421 1.388 . S
C420 C419 1.366 . S
C420 C424 1.385 . S
C421 H396 0.951 . S
C421 C419 1.388 . S
C421 C422 1.366 . S
C422 C421 1.366 . S
C422 C423 1.414 . S
C422 C425 1.499 . S
C423 H397 0.950 . S
C423 C422 1.414 . S
C423 C424 1.374 . S
C424 H398 0.950 . S
C424 C420 1.385 . S
C424 C423 1.374 . S
C425 C422 1.499 . S
C425 C426 1.373 . S
C425 C427 1.389 . S
C426 H399 0.950 . S
C426 C412 1.377 . S
C426 C425 1.373 . S
C427 C411 1.377 . S
C427 C425 1.389 . S
C427 C428 1.524 . S
C428 C427 1.524 . S
C428 C429 1.397 . S
C428 C433 1.363 . S
C429 H400 0.950 . S
C429 C428 1.397 . S
C429 C430 1.334 . S
C430 H401 0.950 . S
C430 C429 1.334 . S
C430 C431 1.287 . S
C431 C430 1.287 . S
C431 C432 1.524 . S
C431 H434 0.999 . S
C432 H402 0.950 . S
C432 C431 1.524 . S
C432 C433 1.415 . S
C433 H403 0.950 . S
C433 C428 1.363 . S
C433 C432 1.415 . S
H434 C431 0.999 . S
H435 C416 0.913 . S
H436 C454 0.951 . S
H437 C456 0.951 . S
H438 C458 0.950 . S
H439 C459 0.950 . S
H440 C461 0.950 . S
H441 C464 0.950 . S
H442 C465 0.950 . S
H443 C467 0.916 1_455 S
H444 C468 0.950 . S
H445 C469 0.951 . S
H446 C471 0.951 . S
H447 C473 0.950 . S
H448 C474 0.950 . S
H449 C476 0.950 . S
H450 C479 0.950 . S
H451 C480 0.950 . S
H452 C482 0.950 . S
H453 C483 0.950 . S
C454 H436 0.951 . S
C454 C455 1.366 . S
C454 C456 1.388 . S
C455 C454 1.366 . S
C455 C459 1.385 . S
C456 H437 0.951 . S
C456 C454 1.388 . S
C456 C457 1.366 . S
C457 C456 1.366 . S
C457 C458 1.414 . S
C457 C460 1.499 . S
C458 H438 0.950 . S
C458 C457 1.414 . S
C458 C459 1.374 . S
C459 H439 0.950 . S
C459 C455 1.385 . S
C459 C458 1.374 . S
C460 C457 1.499 . S
C460 C461 1.373 . S
C460 C462 1.389 . S
C461 H440 0.950 . S
C461 C460 1.373 . S
C461 C477 1.377 . S
C462 C460 1.389 . S
C462 C463 1.524 . S
C462 C476 1.377 . S
C463 C462 1.524 . S
C463 C464 1.397 . S
C463 C468 1.363 . S
C464 H441 0.950 . S
C464 C463 1.397 . S
C464 C465 1.334 . S
C465 H442 0.950 . S
C465 C464 1.334 . S
C465 C466 1.287 . S
C466 C465 1.287 . S
C466 C467 1.516 . S
C466 H485 0.913 1_655 S
C467 H443 0.916 1_655 S
C467 C466 1.516 . S
C467 C468 1.463 . S
C468 H444 0.950 . S
C468 C463 1.363 . S
C468 C467 1.463 . S
C469 H445 0.951 . S
C469 C470 1.366 . S
C469 C471 1.388 . S
C470 C469 1.366 . S
C470 C474 1.385 . S
C471 H446 0.951 . S
C471 C469 1.388 . S
C471 C472 1.366 . S
C472 C471 1.366 . S
C472 C473 1.414 . S
C472 C475 1.499 . S
C473 H447 0.950 . S
C473 C472 1.414 . S
C473 C474 1.374 . S
C474 H448 0.950 . S
C474 C470 1.385 . S
C474 C473 1.374 . S
C475 C472 1.499 . S
C475 C476 1.373 . S
C475 C477 1.389 . S
C476 H449 0.950 . S
C476 C462 1.377 . S
C476 C475 1.373 . S
C477 C461 1.377 . S
C477 C475 1.389 . S
C477 C478 1.524 . S
C478 C477 1.524 . S
C478 C479 1.397 . S
C478 C483 1.363 . S
C479 H450 0.950 . S
C479 C478 1.397 . S
C479 C480 1.334 . S
C480 H451 0.950 . S
C480 C479 1.334 . S
C480 C481 1.287 . S
C481 C480 1.287 . S
C481 C482 1.524 . S
C481 H484 0.999 . S
C482 H452 0.950 . S
C482 C481 1.524 . S
C482 C483 1.415 . S
C483 H453 0.950 . S
C483 C478 1.363 . S
C483 C482 1.415 . S
H484 C481 0.999 . S
H485 C466 0.913 1_455 S
H486 C504 0.951 . S
H487 C506 0.951 . S
H488 C508 0.950 . S
H489 C509 0.950 . S
H490 C511 0.950 . S
H491 C514 0.950 . S
H492 C515 0.950 . S
H493 C517 0.950 . S
H494 C518 0.950 . S
H495 C519 0.951 . S
H496 C521 0.951 . S
H497 C523 0.950 . S
H498 C524 0.950 . S
H499 C526 0.950 . S
H500 C529 0.950 . S
H501 C530 0.950 . S
H502 C532 0.950 1_545 S
H503 C533 0.950 . S
C504 H486 0.951 . S
C504 C505 1.366 . S
C504 C506 1.388 . S
C505 C504 1.366 . S
C505 C509 1.385 . S
C506 H487 0.951 . S
C506 C504 1.388 . S
C506 C507 1.366 . S
C507 C506 1.366 . S
C507 C508 1.414 . S
C507 C510 1.499 . S
C508 H488 0.950 . S
C508 C507 1.414 . S
C508 C509 1.374 . S
C509 H489 0.950 . S
C509 C505 1.385 . S
C509 C508 1.374 . S
C510 C507 1.499 . S
C510 C511 1.373 . S
C510 C512 1.389 . S
C511 H490 0.950 . S
C511 C510 1.373 . S
C511 C527 1.377 . S
C512 C510 1.389 . S
C512 C513 1.524 . S
C512 C526 1.377 . S
C513 C512 1.524 . S
C513 C514 1.397 . S
C513 C518 1.363 . S
C514 H491 0.950 . S
C514 C513 1.397 . S
C514 C515 1.334 . S
C515 H492 0.950 . S
C515 C514 1.334 . S
C515 C516 1.287 . S
C516 C515 1.287 . S
C516 C517 1.524 . S
C516 H535 0.913 . S
C517 H493 0.950 . S
C517 C516 1.524 . S
C517 C518 1.415 . S
C518 H494 0.950 . S
C518 C513 1.363 . S
C518 C517 1.415 . S
C519 H495 0.951 . S
C519 C520 1.366 . S
C519 C521 1.388 . S
C520 C519 1.366 . S
C520 C524 1.385 . S
C521 H496 0.951 . S
C521 C519 1.388 . S
C521 C522 1.366 . S
C522 C521 1.366 . S
C522 C523 1.414 . S
C522 C525 1.499 . S
C523 H497 0.950 . S
C523 C522 1.414 . S
C523 C524 1.374 . S
C524 H498 0.950 . S
C524 C520 1.385 . S
C524 C523 1.374 . S
C525 C522 1.499 . S
C525 C526 1.373 . S
C525 C527 1.389 . S
C526 H499 0.950 . S
C526 C512 1.377 . S
C526 C525 1.373 . S
C527 C511 1.377 . S
C527 C525 1.389 . S
C527 C528 1.524 . S
C528 C527 1.524 . S
C528 C529 1.397 . S
C528 C533 1.363 . S
C529 H500 0.950 . S
C529 C528 1.397 . S
C529 C530 1.334 . S
C530 H501 0.950 . S
C530 C529 1.334 . S
C530 C531 1.287 . S
C531 C530 1.287 . S
C531 C532 1.524 . S
C531 H534 0.999 . S
C532 H502 0.950 1_565 S
C532 C531 1.524 . S
C532 C533 1.415 . S
C533 H503 0.950 . S
C533 C528 1.363 . S
C533 C532 1.415 . S
H534 C531 0.999 . S
H535 C516 0.913 . S
H536 C554 0.951 . S
H537 C556 0.951 . S
H538 C558 0.950 . S
H539 C559 0.950 . S
H540 C561 0.950 . S
H541 C564 0.950 . S
H542 C565 0.950 . S
H543 C567 0.950 . S
H544 C568 0.950 . S
H545 C569 0.951 . S
H546 C571 0.951 . S
H547 C573 0.950 . S
H548 C574 0.950 . S
H549 C576 0.950 . S
H550 C579 0.950 . S
H551 C580 0.950 . S
H552 C582 0.950 . S
H553 C583 0.950 . S
C554 H536 0.951 . S
C554 C555 1.366 . S
C554 C556 1.388 . S
C555 C554 1.366 . S
C555 C559 1.385 . S
C556 H537 0.951 . S
C556 C554 1.388 . S
C556 C557 1.366 . S
C557 C556 1.366 . S
C557 C558 1.414 . S
C557 C560 1.499 . S
C558 H538 0.950 . S
C558 C557 1.414 . S
C558 C559 1.374 . S
C559 H539 0.950 . S
C559 C555 1.385 . S
C559 C558 1.374 . S
C560 C557 1.499 . S
C560 C561 1.373 . S
C560 C562 1.389 . S
C561 H540 0.950 . S
C561 C560 1.373 . S
C561 C577 1.377 . S
C562 C560 1.389 . S
C562 C563 1.524 . S
C562 C576 1.377 . S
C563 C562 1.524 . S
C563 C564 1.397 . S
C563 C568 1.363 . S
C564 H541 0.950 . S
C564 C563 1.397 . S
C564 C565 1.334 . S
C565 H542 0.950 . S
C565 C564 1.334 . S
C565 C566 1.287 . S
C566 C565 1.287 . S
C566 C567 1.524 . S
C566 H585 0.913 . S
C567 H543 0.950 . S
C567 C566 1.524 . S
C567 C568 1.415 . S
C568 H544 0.950 . S
C568 C563 1.363 . S
C568 C567 1.415 . S
C569 H545 0.951 . S
C569 C570 1.366 . S
C569 C571 1.388 . S
C570 C569 1.366 . S
C570 C574 1.385 . S
C571 H546 0.951 . S
C571 C569 1.388 . S
C571 C572 1.366 . S
C572 C571 1.366 . S
C572 C573 1.414 . S
C572 C575 1.499 . S
C573 H547 0.950 . S
C573 C572 1.414 . S
C573 C574 1.374 . S
C574 H548 0.950 . S
C574 C570 1.385 . S
C574 C573 1.374 . S
C575 C572 1.499 . S
C575 C576 1.373 . S
C575 C577 1.389 . S
C576 H549 0.950 . S
C576 C562 1.377 . S
C576 C575 1.373 . S
C577 C561 1.377 . S
C577 C575 1.389 . S
C577 C578 1.524 . S
C578 C577 1.524 . S
C578 C579 1.397 . S
C578 C583 1.363 . S
C579 H550 0.950 . S
C579 C578 1.397 . S
C579 C580 1.334 . S
C580 H551 0.950 . S
C580 C579 1.334 . S
C580 C581 1.287 . S
C581 C580 1.287 . S
C581 C582 1.524 . S
C581 H584 0.999 . S
C582 H552 0.950 . S
C582 C581 1.524 . S
C582 C583 1.415 . S
C583 H553 0.950 . S
C583 C578 1.363 . S
C583 C582 1.415 . S
H584 C581 0.999 . S
H585 C566 0.913 . S
H586 C604 0.951 . S
H587 C606 0.951 . S
H588 C608 0.950 . S
H589 C609 0.950 . S
H590 C611 0.950 . S
H591 C614 0.950 . S
H592 C615 0.950 . S
H593 C617 0.950 . S
H594 C618 0.950 . S
H595 C619 0.951 . S
H596 C621 0.951 . S
H597 C623 0.950 . S
H598 C624 0.950 . S
H599 C626 0.950 . S
H600 C629 0.950 . S
H601 C630 0.950 . S
H602 C632 0.950 . S
H603 C633 0.950 . S
C604 H586 0.951 . S
C604 C605 1.366 . S
C604 C606 1.388 . S
C605 C604 1.366 . S
C605 C609 1.385 . S
C606 H587 0.951 . S
C606 C604 1.388 . S
C606 C607 1.366 . S
C607 C606 1.366 . S
C607 C608 1.414 . S
C607 C610 1.499 . S
C608 H588 0.950 . S
C608 C607 1.414 . S
C608 C609 1.374 . S
C609 H589 0.950 . S
C609 C605 1.385 . S
C609 C608 1.374 . S
C610 C607 1.499 . S
C610 C611 1.373 . S
C610 C612 1.389 . S
C611 H590 0.950 . S
C611 C610 1.373 . S
C611 C627 1.377 . S
C612 C610 1.389 . S
C612 C613 1.524 . S
C612 C626 1.377 . S
C613 C612 1.524 . S
C613 C614 1.397 . S
C613 C618 1.363 . S
C614 H591 0.950 . S
C614 C613 1.397 . S
C614 C615 1.334 . S
C615 H592 0.950 . S
C615 C614 1.334 . S
C615 C616 1.287 . S
C616 C615 1.287 . S
C616 C617 1.524 . S
C616 H635 0.913 . S
C617 H593 0.950 . S
C617 C616 1.524 . S
C617 C618 1.415 . S
C618 H594 0.950 . S
C618 C613 1.363 . S
C618 C617 1.415 . S
C619 H595 0.951 . S
C619 C620 1.366 . S
C619 C621 1.388 . S
C620 C619 1.366 . S
C620 C624 1.385 . S
C621 H596 0.951 . S
C621 C619 1.388 . S
C621 C622 1.366 . S
C622 C621 1.366 . S
C622 C623 1.414 . S
C622 C625 1.499 . S
C623 H597 0.950 . S
C623 C622 1.414 . S
C623 C624 1.374 . S
C624 H598 0.950 . S
C624 C620 1.385 . S
C624 C623 1.374 . S
C625 C622 1.499 . S
C625 C626 1.373 . S
C625 C627 1.389 . S
C626 H599 0.950 . S
C626 C612 1.377 . S
C626 C625 1.373 . S
C627 C611 1.377 . S
C627 C625 1.389 . S
C627 C628 1.524 . S
C628 C627 1.524 . S
C628 C629 1.397 . S
C628 C633 1.363 . S
C629 H600 0.950 . S
C629 C628 1.397 . S
C629 C630 1.334 . S
C630 H601 0.950 . S
C630 C629 1.334 . S
C630 C631 1.287 . S
C631 C630 1.287 . S
C631 C632 1.524 . S
C631 H634 0.999 . S
C632 H602 0.950 . S
C632 C631 1.524 . S
C632 C633 1.415 . S
C633 H603 0.950 . S
C633 C628 1.363 . S
C633 C632 1.415 . S
H634 C631 0.999 . S
H635 C616 0.913 . S
H636 C654 0.951 . S
H637 C656 0.951 . S
H638 C658 0.950 . S
H639 C659 0.950 . S
H640 C661 0.950 . S
H641 C664 0.950 . S
H642 C665 0.950 . S
H643 C667 0.950 . S
H644 C668 0.950 . S
H645 C669 0.951 . S
H646 C671 0.951 . S
H647 C673 0.950 . S
H648 C674 0.950 . S
H649 C676 0.950 . S
H650 C679 0.950 . S
H651 C680 0.950 . S
H652 C682 0.950 . S
H653 C683 0.950 . S
C654 H636 0.951 . S
C654 C655 1.366 . S
C654 C656 1.388 . S
C655 C654 1.366 . S
C655 C659 1.385 . S
C656 H637 0.951 . S
C656 C654 1.388 . S
C656 C657 1.366 . S
C657 C656 1.366 . S
C657 C658 1.414 . S
C657 C660 1.499 . S
C658 H638 0.950 . S
C658 C657 1.414 . S
C658 C659 1.374 . S
C659 H639 0.950 . S
C659 C655 1.385 . S
C659 C658 1.374 . S
C660 C657 1.499 . S
C660 C661 1.373 . S
C660 C662 1.389 . S
C661 H640 0.950 . S
C661 C660 1.373 . S
C661 C677 1.377 . S
C662 C660 1.389 . S
C662 C663 1.524 . S
C662 C676 1.377 . S
C663 C662 1.524 . S
C663 C664 1.397 . S
C663 C668 1.363 . S
C664 H641 0.950 . S
C664 C663 1.397 . S
C664 C665 1.334 . S
C665 H642 0.950 . S
C665 C664 1.334 . S
C665 C666 1.287 . S
C666 C665 1.287 . S
C666 C667 1.524 . S
C666 H685 0.913 . S
C667 H643 0.950 . S
C667 C666 1.524 . S
C667 C668 1.415 . S
C668 H644 0.950 . S
C668 C663 1.363 . S
C668 C667 1.415 . S
C669 H645 0.951 . S
C669 C670 1.366 . S
C669 C671 1.388 . S
C670 C669 1.366 . S
C670 C674 1.385 . S
C671 H646 0.951 . S
C671 C669 1.388 . S
C671 C672 1.366 . S
C672 C671 1.366 . S
C672 C673 1.414 . S
C672 C675 1.499 . S
C673 H647 0.950 . S
C673 C672 1.414 . S
C673 C674 1.374 . S
C674 H648 0.950 . S
C674 C670 1.385 . S
C674 C673 1.374 . S
C675 C672 1.499 . S
C675 C676 1.373 . S
C675 C677 1.389 . S
C676 H649 0.950 . S
C676 C662 1.377 . S
C676 C675 1.373 . S
C677 C661 1.377 . S
C677 C675 1.389 . S
C677 C678 1.524 . S
C678 C677 1.524 . S
C678 C679 1.397 . S
C678 C683 1.363 . S
C679 H650 0.950 . S
C679 C678 1.397 . S
C679 C680 1.334 . S
C680 H651 0.950 . S
C680 C679 1.334 . S
C680 C681 1.287 . S
C681 C680 1.287 . S
C681 C682 1.524 . S
C681 H684 0.999 . S
C682 H652 0.950 . S
C682 C681 1.524 . S
C682 C683 1.415 . S
C683 H653 0.950 . S
C683 C678 1.363 . S
C683 C682 1.415 . S
H684 C681 0.999 . S
H685 C666 0.913 . S
H686 C704 0.951 . S
H687 C706 0.951 . S
H688 C708 0.950 . S
H689 C709 0.950 . S
H690 C711 0.950 . S
H691 C714 0.950 . S
H692 C715 0.950 . S
H693 C717 0.950 . S
H694 C718 0.950 . S
H695 C719 0.951 . S
H696 C721 0.951 . S
H697 C723 0.950 . S
H698 C724 0.950 . S
H699 C726 0.950 . S
H700 C729 0.950 . S
H701 C730 0.950 . S
H702 C732 0.950 . S
H703 C733 0.950 . S
C704 H686 0.951 . S
C704 C705 1.366 . S
C704 C706 1.388 . S
C705 C704 1.366 . S
C705 C709 1.385 . S
C706 H687 0.951 . S
C706 C704 1.388 . S
C706 C707 1.366 . S
C707 C706 1.366 . S
C707 C708 1.414 . S
C707 C710 1.499 . S
C708 H688 0.950 . S
C708 C707 1.414 . S
C708 C709 1.374 . S
C709 H689 0.950 . S
C709 C705 1.385 . S
C709 C708 1.374 . S
C710 C707 1.499 . S
C710 C711 1.373 . S
C710 C712 1.389 . S
C711 H690 0.950 . S
C711 C710 1.373 . S
C711 C727 1.377 . S
C712 C710 1.389 . S
C712 C713 1.524 . S
C712 C726 1.377 . S
C713 C712 1.524 . S
C713 C714 1.397 . S
C713 C718 1.363 . S
C714 H691 0.950 . S
C714 C713 1.397 . S
C714 C715 1.334 . S
C715 H692 0.950 . S
C715 C714 1.334 . S
C715 C716 1.287 . S
C716 C715 1.287 . S
C716 C717 1.524 . S
C716 H735 0.913 1_565 S
C717 H693 0.950 . S
C717 C716 1.524 . S
C717 C718 1.415 . S
C718 H694 0.950 . S
C718 C713 1.363 . S
C718 C717 1.415 . S
C719 H695 0.951 . S
C719 C720 1.366 . S
C719 C721 1.388 . S
C720 C719 1.366 . S
C720 C724 1.385 . S
C721 H696 0.951 . S
C721 C719 1.388 . S
C721 C722 1.366 . S
C722 C721 1.366 . S
C722 C723 1.414 . S
C722 C725 1.499 . S
C723 H697 0.950 . S
C723 C722 1.414 . S
C723 C724 1.374 . S
C724 H698 0.950 . S
C724 C720 1.385 . S
C724 C723 1.374 . S
C725 C722 1.499 . S
C725 C726 1.373 . S
C725 C727 1.389 . S
C726 H699 0.950 . S
C726 C712 1.377 . S
C726 C725 1.373 . S
C727 C711 1.377 . S
C727 C725 1.389 . S
C727 C728 1.524 . S
C728 C727 1.524 . S
C728 C729 1.397 . S
C728 C733 1.363 . S
C729 H700 0.950 . S
C729 C728 1.397 . S
C729 C730 1.334 . S
C730 H701 0.950 . S
C730 C729 1.334 . S
C730 C731 1.287 . S
C731 C730 1.287 . S
C731 C732 1.524 . S
C731 H734 0.999 . S
C732 H702 0.950 . S
C732 C731 1.524 . S
C732 C733 1.415 . S
C733 H703 0.950 . S
C733 C728 1.363 . S
C733 C732 1.415 . S
H734 C731 0.999 . S
H735 C716 0.913 1_545 S
H736 C754 0.951 . S
H737 C756 0.951 . S
H738 C758 0.950 . S
H739 C759 0.950 . S
H740 C761 0.950 . S
H741 C764 0.950 . S
H742 C765 0.950 . S
H743 C767 0.950 . S
H744 C768 0.950 . S
H745 C769 0.951 . S
H746 C771 0.951 . S
H747 C773 0.950 . S
H748 C774 0.950 . S
H749 C776 0.950 . S
H750 C779 0.950 . S
H751 C780 0.950 . S
H752 C782 0.950 . S
H753 C783 0.950 . S
C754 H736 0.951 . S
C754 C755 1.366 . S
C754 C756 1.388 . S
C755 C754 1.366 . S
C755 C759 1.385 . S
C756 H737 0.951 . S
C756 C754 1.388 . S
C756 C757 1.366 . S
C757 C756 1.366 . S
C757 C758 1.414 . S
C757 C760 1.499 . S
C758 H738 0.950 . S
C758 C757 1.414 . S
C758 C759 1.374 . S
C759 H739 0.950 . S
C759 C755 1.385 . S
C759 C758 1.374 . S
C760 C757 1.499 . S
C760 C761 1.373 . S
C760 C762 1.389 . S
C761 H740 0.950 . S
C761 C760 1.373 . S
C761 C777 1.377 . S
C762 C760 1.389 . S
C762 C763 1.524 . S
C762 C776 1.377 . S
C763 C762 1.524 . S
C763 C764 1.397 . S
C763 C768 1.363 . S
C764 H741 0.950 . S
C764 C763 1.397 . S
C764 C765 1.334 . S
C765 H742 0.950 . S
C765 C764 1.334 . S
C765 C766 1.287 . S
C766 C765 1.287 . S
C766 C767 1.524 . S
C766 H785 0.913 . S
C767 H743 0.950 . S
C767 C766 1.524 . S
C767 C768 1.415 . S
C768 H744 0.950 . S
C768 C763 1.363 . S
C768 C767 1.415 . S
C769 H745 0.951 . S
C769 C770 1.366 . S
C769 C771 1.388 . S
C770 C769 1.366 . S
C770 C774 1.385 . S
C771 H746 0.951 . S
C771 C769 1.388 . S
C771 C772 1.366 . S
C772 C771 1.366 . S
C772 C773 1.414 . S
C772 C775 1.499 . S
C773 H747 0.950 . S
C773 C772 1.414 . S
C773 C774 1.374 . S
C774 H748 0.950 . S
C774 C770 1.385 . S
C774 C773 1.374 . S
C775 C772 1.499 . S
C775 C776 1.373 . S
C775 C777 1.389 . S
C776 H749 0.950 . S
C776 C762 1.377 . S
C776 C775 1.373 . S
C777 C761 1.377 . S
C777 C775 1.389 . S
C777 C778 1.524 . S
C778 C777 1.524 . S
C778 C779 1.397 . S
C778 C783 1.363 . S
C779 H750 0.950 . S
C779 C778 1.397 . S
C779 C780 1.334 . S
C780 H751 0.950 . S
C780 C779 1.334 . S
C780 C781 1.287 . S
C781 C780 1.287 . S
C781 C782 1.524 . S
C781 H784 0.999 . S
C782 H752 0.950 . S
C782 C781 1.524 . S
C782 C783 1.415 . S
C783 H753 0.950 . S
C783 C778 1.363 . S
C783 C782 1.415 . S
H784 C781 0.999 . S
H785 C766 0.913 . S
H786 C804 0.951 . S
H787 C806 0.951 . S
H788 C808 0.950 . S
H789 C809 0.950 . S
H790 C811 0.950 . S
H791 C814 0.950 . S
H792 C815 0.950 . S
H793 C817 0.950 . S
H794 C818 0.950 . S
H795 C819 0.951 . S
H796 C821 0.951 . S
H797 C823 0.950 . S
H798 C824 0.950 . S
H799 C826 0.950 . S
H800 C829 0.950 . S
H801 C830 0.950 . S
H802 C832 0.950 1_655 S
H803 C833 0.950 . S
C804 H786 0.951 . S
C804 C805 1.366 . S
C804 C806 1.388 . S
C805 C804 1.366 . S
C805 C809 1.385 . S
C806 H787 0.951 . S
C806 C804 1.388 . S
C806 C807 1.366 . S
C807 C806 1.366 . S
C807 C808 1.414 . S
C807 C810 1.499 . S
C808 H788 0.950 . S
C808 C807 1.414 . S
C808 C809 1.374 . S
C809 H789 0.950 . S
C809 C805 1.385 . S
C809 C808 1.374 . S
C810 C807 1.499 . S
C810 C811 1.373 . S
C810 C812 1.389 . S
C811 H790 0.950 . S
C811 C810 1.373 . S
C811 C827 1.377 . S
C812 C810 1.389 . S
C812 C813 1.524 . S
C812 C826 1.377 . S
C813 C812 1.524 . S
C813 C814 1.397 . S
C813 C818 1.363 . S
C814 H791 0.950 . S
C814 C813 1.397 . S
C814 C815 1.334 . S
C815 H792 0.950 . S
C815 C814 1.334 . S
C815 C816 1.287 . S
C816 C815 1.287 . S
C816 C817 1.524 . S
C816 H835 0.913 . S
C817 H793 0.950 . S
C817 C816 1.524 . S
C817 C818 1.415 . S
C818 H794 0.950 . S
C818 C813 1.363 . S
C818 C817 1.415 . S
C819 H795 0.951 . S
C819 C820 1.366 . S
C819 C821 1.388 . S
C820 C819 1.366 . S
C820 C824 1.385 . S
C821 H796 0.951 . S
C821 C819 1.388 . S
C821 C822 1.366 . S
C822 C821 1.366 . S
C822 C823 1.414 . S
C822 C825 1.499 . S
C823 H797 0.950 . S
C823 C822 1.414 . S
C823 C824 1.374 . S
C824 H798 0.950 . S
C824 C820 1.385 . S
C824 C823 1.374 . S
C825 C822 1.499 . S
C825 C826 1.373 . S
C825 C827 1.389 . S
C826 H799 0.950 . S
C826 C812 1.377 . S
C826 C825 1.373 . S
C827 C811 1.377 . S
C827 C825 1.389 . S
C827 C828 1.524 . S
C828 C827 1.524 . S
C828 C829 1.397 . S
C828 C833 1.363 . S
C829 H800 0.950 . S
C829 C828 1.397 . S
C829 C830 1.334 . S
C830 H801 0.950 . S
C830 C829 1.334 . S
C830 C831 1.287 . S
C831 C830 1.287 . S
C831 C832 1.524 . S
C831 H834 0.999 . S
C832 H802 0.950 1_455 S
C832 C831 1.524 . S
C832 C833 1.415 . S
C833 H803 0.950 . S
C833 C828 1.363 . S
C833 C832 1.415 . S
H834 C831 0.999 . S
H835 C816 0.913 . S
H836 C854 0.951 . S
H837 C856 0.951 . S
H838 C858 0.950 . S
H839 C859 0.950 . S
H840 C861 0.950 . S
H841 C864 0.950 . S
H842 C865 0.950 . S
H843 C867 0.950 . S
H844 C868 0.950 . S
H845 C869 0.951 . S
H846 C871 0.951 . S
H847 C873 0.950 . S
H848 C874 0.950 . S
H849 C876 0.950 . S
H850 C879 0.950 . S
H851 C880 0.950 . S
H852 C882 0.950 . S
H853 C883 0.950 . S
C854 H836 0.951 . S
C854 C855 1.366 . S
C854 C856 1.388 . S
C855 C854 1.366 . S
C855 C859 1.385 . S
C856 H837 0.951 . S
C856 C854 1.388 . S
C856 C857 1.366 . S
C857 C856 1.366 . S
C857 C858 1.414 . S
C857 C860 1.499 . S
C858 H838 0.950 . S
C858 C857 1.414 . S
C858 C859 1.374 . S
C859 H839 0.950 . S
C859 C855 1.385 . S
C859 C858 1.374 . S
C860 C857 1.499 . S
C860 C861 1.373 . S
C860 C862 1.389 . S
C861 H840 0.950 . S
C861 C860 1.373 . S
C861 C877 1.377 . S
C862 C860 1.389 . S
C862 C863 1.524 . S
C862 C876 1.377 . S
C863 C862 1.524 . S
C863 C864 1.397 . S
C863 C868 1.363 . S
C864 H841 0.950 . S
C864 C863 1.397 . S
C864 C865 1.334 . S
C865 H842 0.950 . S
C865 C864 1.334 . S
C865 C866 1.287 . S
C866 C865 1.287 . S
C866 C867 1.524 . S
C866 H885 0.913 . S
C867 H843 0.950 . S
C867 C866 1.524 . S
C867 C868 1.415 . S
C868 H844 0.950 . S
C868 C863 1.363 . S
C868 C867 1.415 . S
C869 H845 0.951 . S
C869 C870 1.366 . S
C869 C871 1.388 . S
C870 C869 1.366 . S
C870 C874 1.385 . S
C871 H846 0.951 . S
C871 C869 1.388 . S
C871 C872 1.366 . S
C872 C871 1.366 . S
C872 C873 1.414 . S
C872 C875 1.499 . S
C873 H847 0.950 . S
C873 C872 1.414 . S
C873 C874 1.374 . S
C874 H848 0.950 . S
C874 C870 1.385 . S
C874 C873 1.374 . S
C875 C872 1.499 . S
C875 C876 1.373 . S
C875 C877 1.389 . S
C876 H849 0.950 . S
C876 C862 1.377 . S
C876 C875 1.373 . S
C877 C861 1.377 . S
C877 C875 1.389 . S
C877 C878 1.524 . S
C878 C877 1.524 . S
C878 C879 1.397 . S
C878 C883 1.363 . S
C879 H850 0.950 . S
C879 C878 1.397 . S
C879 C880 1.334 . S
C880 H851 0.950 . S
C880 C879 1.334 . S
C880 C881 1.287 . S
C881 C880 1.287 . S
C881 C882 1.524 . S
C881 H884 0.999 . S
C882 H852 0.950 . S
C882 C881 1.524 . S
C882 C883 1.415 . S
C883 H853 0.950 . S
C883 C878 1.363 . S
C883 C882 1.415 . S
H884 C881 0.999 . S
H885 C866 0.913 . S
H886 C904 0.951 . S
H887 C906 0.951 . S
H888 C908 0.950 . S
H889 C909 0.950 . S
H890 C911 0.950 . S
H891 C914 0.950 . S
H892 C915 0.950 . S
H893 C917 0.950 . S
H894 C918 0.950 . S
H895 C919 0.951 . S
H896 C921 0.951 . S
H897 C923 0.950 . S
H898 C924 0.950 . S
H899 C926 0.950 . S
H900 C929 0.950 . S
H901 C930 0.950 . S
H902 C932 0.950 . S
H903 C933 0.950 . S
C904 H886 0.951 . S
C904 C905 1.366 . S
C904 C906 1.388 . S
C905 C904 1.366 . S
C905 C909 1.385 . S
C906 H887 0.951 . S
C906 C904 1.388 . S
C906 C907 1.366 . S
C907 C906 1.366 . S
C907 C908 1.414 . S
C907 C910 1.499 . S
C908 H888 0.950 . S
C908 C907 1.414 . S
C908 C909 1.374 . S
C909 H889 0.950 . S
C909 C905 1.385 . S
C909 C908 1.374 . S
C910 C907 1.499 . S
C910 C911 1.373 . S
C910 C912 1.389 . S
C911 H890 0.950 . S
C911 C910 1.373 . S
C911 C927 1.377 . S
C912 C910 1.389 . S
C912 C913 1.524 . S
C912 C926 1.377 . S
C913 C912 1.524 . S
C913 C914 1.397 . S
C913 C918 1.363 . S
C914 H891 0.950 . S
C914 C913 1.397 . S
C914 C915 1.334 . S
C915 H892 0.950 . S
C915 C914 1.334 . S
C915 C916 1.287 . S
C916 C915 1.287 . S
C916 C917 1.524 . S
C916 H935 0.913 . S
C917 H893 0.950 . S
C917 C916 1.524 . S
C917 C918 1.415 . S
C918 H894 0.950 . S
C918 C913 1.363 . S
C918 C917 1.415 . S
C919 H895 0.951 . S
C919 C920 1.366 . S
C919 C921 1.388 . S
C920 C919 1.366 . S
C920 C924 1.385 . S
C921 H896 0.951 . S
C921 C919 1.388 . S
C921 C922 1.366 . S
C922 C921 1.366 . S
C922 C923 1.414 . S
C922 C925 1.499 . S
C923 H897 0.950 . S
C923 C922 1.414 . S
C923 C924 1.374 . S
C924 H898 0.950 . S
C924 C920 1.385 . S
C924 C923 1.374 . S
C925 C922 1.499 . S
C925 C926 1.373 . S
C925 C927 1.389 . S
C926 H899 0.950 . S
C926 C912 1.377 . S
C926 C925 1.373 . S
C927 C911 1.377 . S
C927 C925 1.389 . S
C927 C928 1.524 . S
C928 C927 1.524 . S
C928 C929 1.397 . S
C928 C933 1.363 . S
C929 H900 0.950 . S
C929 C928 1.397 . S
C929 C930 1.334 . S
C930 H901 0.950 . S
C930 C929 1.334 . S
C930 C931 1.287 . S
C931 C930 1.287 . S
C931 C932 1.524 . S
C931 H934 0.999 . S
C932 H902 0.950 . S
C932 C931 1.524 . S
C932 C933 1.415 . S
C933 H903 0.950 . S
C933 C928 1.363 . S
C933 C932 1.415 . S
H934 C931 0.999 . S
H935 C916 0.913 . S
H936 C954 0.951 . S
H937 C956 0.951 . S
H938 C958 0.950 . S
H939 C959 0.950 . S
H940 C961 0.950 . S
H941 C964 0.950 . S
H942 C965 0.950 . S
H943 C967 0.950 . S
H944 C968 0.950 . S
H945 C969 0.951 . S
H946 C971 0.951 . S
H947 C973 0.950 . S
H948 C974 0.950 . S
H949 C976 0.950 . S
H950 C979 0.950 . S
H951 C980 0.950 . S
H952 C982 0.950 . S
H953 C983 0.950 . S
C954 H936 0.951 . S
C954 C955 1.366 . S
C954 C956 1.388 . S
C955 C954 1.366 . S
C955 C959 1.385 . S
C956 H937 0.951 . S
C956 C954 1.388 . S
C956 C957 1.366 . S
C957 C956 1.366 . S
C957 C958 1.414 . S
C957 C960 1.499 . S
C958 H938 0.950 . S
C958 C957 1.414 . S
C958 C959 1.374 . S
C959 H939 0.950 . S
C959 C955 1.385 . S
C959 C958 1.374 . S
C960 C957 1.499 . S
C960 C961 1.373 . S
C960 C962 1.389 . S
C961 H940 0.950 . S
C961 C960 1.373 . S
C961 C977 1.377 . S
C962 C960 1.389 . S
C962 C963 1.524 . S
C962 C976 1.377 . S
C963 C962 1.524 . S
C963 C964 1.397 . S
C963 C968 1.363 . S
C964 H941 0.950 . S
C964 C963 1.397 . S
C964 C965 1.334 . S
C965 H942 0.950 . S
C965 C964 1.334 . S
C965 C966 1.287 . S
C966 C965 1.287 . S
C966 C967 1.524 . S
C966 H985 0.913 . S
C967 H943 0.950 . S
C967 C966 1.524 . S
C967 C968 1.415 . S
C968 H944 0.950 . S
C968 C963 1.363 . S
C968 C967 1.415 . S
C969 H945 0.951 . S
C969 C970 1.366 . S
C969 C971 1.388 . S
C970 C969 1.366 . S
C970 C974 1.385 . S
C971 H946 0.951 . S
C971 C969 1.388 . S
C971 C972 1.366 . S
C972 C971 1.366 . S
C972 C973 1.414 . S
C972 C975 1.499 . S
C973 H947 0.950 . S
C973 C972 1.414 . S
C973 C974 1.374 . S
C974 H948 0.950 . S
C974 C970 1.385 . S
C974 C973 1.374 . S
C975 C972 1.499 . S
C975 C976 1.373 . S
C975 C977 1.389 . S
C976 H949 0.950 . S
C976 C962 1.377 . S
C976 C975 1.373 . S
C977 C961 1.377 . S
C977 C975 1.389 . S
C977 C978 1.524 . S
C978 C977 1.524 . S
C978 C979 1.397 . S
C978 C983 1.363 . S
C979 H950 0.950 . S
C979 C978 1.397 . S
C979 C980 1.334 . S
C980 H951 0.950 . S
C980 C979 1.334 . S
C980 C981 1.287 . S
C981 C980 1.287 . S
C981 C982 1.524 . S
C981 H984 0.999 . S
C982 H952 0.950 . S
C982 C981 1.524 . S
C982 C983 1.415 . S
C983 H953 0.950 . S
C983 C978 1.363 . S
C983 C982 1.415 . S
H984 C981 0.999 . S
H985 C966 0.913 . S
H986 C1004 0.951 . S
H987 C1006 0.951 . S
H988 C1008 0.950 . S
H989 C1009 0.950 . S
H990 C1011 0.950 . S
H991 C1014 0.950 . S
H992 C1015 0.950 . S
H993 C1017 0.950 . S
H994 C1018 0.950 . S
H995 C1019 0.951 . S
H996 C1021 0.951 . S
H997 C1023 0.950 . S
H998 C1024 0.950 . S
H999 C1026 0.950 . S
H1000 C1029 0.950 . S
H1001 C1030 0.950 . S
H1002 C1032 0.950 . S
H1003 C1033 0.950 . S
C1004 H986 0.951 . S
C1004 C1005 1.366 . S
C1004 C1006 1.388 . S
C1005 C1004 1.366 . S
C1005 C1009 1.385 . S
C1006 H987 0.951 . S
C1006 C1004 1.388 . S
C1006 C1007 1.366 . S
C1007 C1006 1.366 . S
C1007 C1008 1.414 . S
C1007 C1010 1.499 . S
C1008 H988 0.950 . S
C1008 C1007 1.414 . S
C1008 C1009 1.374 . S
C1009 H989 0.950 . S
C1009 C1005 1.385 . S
C1009 C1008 1.374 . S
C1010 C1007 1.499 . S
C1010 C1011 1.373 . S
C1010 C1012 1.389 . S
C1011 H990 0.950 . S
C1011 C1010 1.373 . S
C1011 C1027 1.377 . S
C1012 C1010 1.389 . S
C1012 C1013 1.524 . S
C1012 C1026 1.377 . S
C1013 C1012 1.524 . S
C1013 C1014 1.397 . S
C1013 C1018 1.363 . S
C1014 H991 0.950 . S
C1014 C1013 1.397 . S
C1014 C1015 1.334 . S
C1015 H992 0.950 . S
C1015 C1014 1.334 . S
C1015 C1016 1.287 . S
C1016 C1015 1.287 . S
C1016 C1017 1.524 . S
C1016 H1035 0.913 . S
C1017 H993 0.950 . S
C1017 C1016 1.524 . S
C1017 C1018 1.415 . S
C1018 H994 0.950 . S
C1018 C1013 1.363 . S
C1018 C1017 1.415 . S
C1019 H995 0.951 . S
C1019 C1020 1.366 . S
C1019 C1021 1.388 . S
C1020 C1019 1.366 . S
C1020 C1024 1.385 . S
C1021 H996 0.951 . S
C1021 C1019 1.388 . S
C1021 C1022 1.366 . S
C1022 C1021 1.366 . S
C1022 C1023 1.414 . S
C1022 C1025 1.499 . S
C1023 H997 0.950 . S
C1023 C1022 1.414 . S
C1023 C1024 1.374 . S
C1024 H998 0.950 . S
C1024 C1020 1.385 . S
C1024 C1023 1.374 . S
C1025 C1022 1.499 . S
C1025 C1026 1.373 . S
C1025 C1027 1.389 . S
C1026 H999 0.950 . S
C1026 C1012 1.377 . S
C1026 C1025 1.373 . S
C1027 C1011 1.377 . S
C1027 C1025 1.389 . S
C1027 C1028 1.524 . S
C1028 C1027 1.524 . S
C1028 C1029 1.397 . S
C1028 C1033 1.363 . S
C1029 H1000 0.950 . S
C1029 C1028 1.397 . S
C1029 C1030 1.334 . S
C1030 H1001 0.950 . S
C1030 C1029 1.334 . S
C1030 C1031 1.287 . S
C1031 C1030 1.287 . S
C1031 C1032 1.524 . S
C1031 H1034 0.999 . S
C1032 H1002 0.950 . S
C1032 C1031 1.524 . S
C1032 C1033 1.415 . S
C1033 H1003 0.950 . S
C1033 C1028 1.363 . S
C1033 C1032 1.415 . S
H1034 C1031 0.999 . S
H1035 C1016 0.913 . S
H1036 C1054 0.951 . S
H1037 C1056 0.951 . S
H1038 C1058 0.950 . S
H1039 C1059 0.950 . S
H1040 C1061 0.950 . S
H1041 C1064 0.950 . S
H1042 C1065 0.950 . S
H1043 C1067 0.950 . S
H1044 C1068 0.950 . S
H1045 C1069 0.951 . S
H1046 C1071 0.951 . S
H1047 C1073 0.950 . S
H1048 C1074 0.950 . S
H1049 C1076 0.950 . S
H1050 C1079 0.950 . S
H1051 C1080 0.950 . S
H1052 C1082 0.950 . S
H1053 C1083 0.950 . S
C1054 H1036 0.951 . S
C1054 C1055 1.366 . S
C1054 C1056 1.388 . S
C1055 C1054 1.366 . S
C1055 C1059 1.385 . S
C1056 H1037 0.951 . S
C1056 C1054 1.388 . S
C1056 C1057 1.366 . S
C1057 C1056 1.366 . S
C1057 C1058 1.414 . S
C1057 C1060 1.499 . S
C1058 H1038 0.950 . S
C1058 C1057 1.414 . S
C1058 C1059 1.374 . S
C1059 H1039 0.950 . S
C1059 C1055 1.385 . S
C1059 C1058 1.374 . S
C1060 C1057 1.499 . S
C1060 C1061 1.373 . S
C1060 C1062 1.389 . S
C1061 H1040 0.950 . S
C1061 C1060 1.373 . S
C1061 C1077 1.377 . S
C1062 C1060 1.389 . S
C1062 C1063 1.524 . S
C1062 C1076 1.377 . S
C1063 C1062 1.524 . S
C1063 C1064 1.397 . S
C1063 C1068 1.363 . S
C1064 H1041 0.950 . S
C1064 C1063 1.397 . S
C1064 C1065 1.334 . S
C1065 H1042 0.950 . S
C1065 C1064 1.334 . S
C1065 C1066 1.287 . S
C1066 C1065 1.287 . S
C1066 C1067 1.524 . S
C1066 H1085 0.913 . S
C1067 H1043 0.950 . S
C1067 C1066 1.524 . S
C1067 C1068 1.415 . S
C1068 H1044 0.950 . S
C1068 C1063 1.363 . S
C1068 C1067 1.415 . S
C1069 H1045 0.951 . S
C1069 C1070 1.366 . S
C1069 C1071 1.388 . S
C1070 C1069 1.366 . S
C1070 C1074 1.385 . S
C1071 H1046 0.951 . S
C1071 C1069 1.388 . S
C1071 C1072 1.366 . S
C1072 C1071 1.366 . S
C1072 C1073 1.414 . S
C1072 C1075 1.499 . S
C1073 H1047 0.950 . S
C1073 C1072 1.414 . S
C1073 C1074 1.374 . S
C1074 H1048 0.950 . S
C1074 C1070 1.385 . S
C1074 C1073 1.374 . S
C1075 C1072 1.499 . S
C1075 C1076 1.373 . S
C1075 C1077 1.389 . S
C1076 H1049 0.950 . S
C1076 C1062 1.377 . S
C1076 C1075 1.373 . S
C1077 C1061 1.377 . S
C1077 C1075 1.389 . S
C1077 C1078 1.524 . S
C1078 C1077 1.524 . S
C1078 C1079 1.397 . S
C1078 C1083 1.363 . S
C1079 H1050 0.950 . S
C1079 C1078 1.397 . S
C1079 C1080 1.334 . S
C1080 H1051 0.950 . S
C1080 C1079 1.334 . S
C1080 C1081 1.287 . S
C1081 C1080 1.287 . S
C1081 C1082 1.524 . S
C1081 H1084 0.999 . S
C1082 H1052 0.950 . S
C1082 C1081 1.524 . S
C1082 C1083 1.415 . S
C1083 H1053 0.950 . S
C1083 C1078 1.363 . S
C1083 C1082 1.415 . S
H1084 C1081 0.999 . S
H1085 C1066 0.913 . S
H1086 C1104 0.951 . S
H1087 C1106 0.951 . S
H1088 C1108 0.950 . S
H1089 C1109 0.950 . S
H1090 C1111 0.950 . S
H1091 C1114 0.950 . S
H1092 C1115 0.950 . S
H1093 C1117 0.950 . S
H1094 C1118 0.950 . S
H1095 C1119 0.951 . S
H1096 C1121 0.951 . S
H1097 C1123 0.950 . S
H1098 C1124 0.950 . S
H1099 C1126 0.950 . S
H1100 C1129 0.950 . S
H1101 C1130 0.950 . S
H1102 C1132 0.950 . S
H1103 C1133 0.950 . S
C1104 H1086 0.951 . S
C1104 C1105 1.366 . S
C1104 C1106 1.388 . S
C1105 C1104 1.366 . S
C1105 C1109 1.385 . S
C1106 H1087 0.951 . S
C1106 C1104 1.388 . S
C1106 C1107 1.366 . S
C1107 C1106 1.366 . S
C1107 C1108 1.414 . S
C1107 C1110 1.499 . S
C1108 H1088 0.950 . S
C1108 C1107 1.414 . S
C1108 C1109 1.374 . S
C1109 H1089 0.950 . S
C1109 C1105 1.385 . S
C1109 C1108 1.374 . S
C1110 C1107 1.499 . S
C1110 C1111 1.373 . S
C1110 C1112 1.389 . S
C1111 H1090 0.950 . S
C1111 C1110 1.373 . S
C1111 C1127 1.377 . S
C1112 C1110 1.389 . S
C1112 C1113 1.524 . S
C1112 C1126 1.377 . S
C1113 C1112 1.524 . S
C1113 C1114 1.397 . S
C1113 C1118 1.363 . S
C1114 H1091 0.950 . S
C1114 C1113 1.397 . S
C1114 C1115 1.334 . S
C1115 H1092 0.950 . S
C1115 C1114 1.334 . S
C1115 C1116 1.287 . S
C1116 C1115 1.287 . S
C1116 C1117 1.524 . S
C1116 H1135 0.913 . S
C1117 H1093 0.950 . S
C1117 C1116 1.524 . S
C1117 C1118 1.415 . S
C1118 H1094 0.950 . S
C1118 C1113 1.363 . S
C1118 C1117 1.415 . S
C1119 H1095 0.951 . S
C1119 C1120 1.366 . S
C1119 C1121 1.388 . S
C1120 C1119 1.366 . S
C1120 C1124 1.385 . S
C1121 H1096 0.951 . S
C1121 C1119 1.388 . S
C1121 C1122 1.366 . S
C1122 C1121 1.366 . S
C1122 C1123 1.414 . S
C1122 C1125 1.499 . S
C1123 H1097 0.950 . S
C1123 C1122 1.414 . S
C1123 C1124 1.374 . S
C1124 H1098 0.950 . S
C1124 C1120 1.385 . S
C1124 C1123 1.374 . S
C1125 C1122 1.499 . S
C1125 C1126 1.373 . S
C1125 C1127 1.389 . S
C1126 H1099 0.950 . S
C1126 C1112 1.377 . S
C1126 C1125 1.373 . S
C1127 C1111 1.377 . S
C1127 C1125 1.389 . S
C1127 C1128 1.524 . S
C1128 C1127 1.524 . S
C1128 C1129 1.397 . S
C1128 C1133 1.363 . S
C1129 H1100 0.950 . S
C1129 C1128 1.397 . S
C1129 C1130 1.334 . S
C1130 H1101 0.950 . S
C1130 C1129 1.334 . S
C1130 C1131 1.287 . S
C1131 C1130 1.287 . S
C1131 C1132 1.524 . S
C1131 H1134 0.999 . S
C1132 H1102 0.950 . S
C1132 C1131 1.524 . S
C1132 C1133 1.415 . S
C1133 H1103 0.950 . S
C1133 C1128 1.363 . S
C1133 C1132 1.415 . S
H1134 C1131 0.999 . S
H1135 C1116 0.913 . S
H1136 C1154 0.951 . S
H1137 C1156 0.951 . S
H1138 C1158 0.950 . S
H1139 C1159 0.950 . S
H1140 C1161 0.950 . S
H1141 C1164 0.950 . S
H1142 C1165 0.950 . S
H1143 C1167 0.950 . S
H1144 C1168 0.950 . S
H1145 C1169 0.951 . S
H1146 C1171 0.951 . S
H1147 C1173 0.950 . S
H1148 C1174 0.950 . S
H1149 C1176 0.950 . S
H1150 C1179 0.950 . S
H1151 C1180 0.950 . S
H1152 C1182 0.950 . S
H1153 C1183 0.950 . S
C1154 H1136 0.951 . S
C1154 C1155 1.366 . S
C1154 C1156 1.388 . S
C1155 C1154 1.366 . S
C1155 C1159 1.385 . S
C1156 H1137 0.951 . S
C1156 C1154 1.388 . S
C1156 C1157 1.366 . S
C1157 C1156 1.366 . S
C1157 C1158 1.414 . S
C1157 C1160 1.499 . S
C1158 H1138 0.950 . S
C1158 C1157 1.414 . S
C1158 C1159 1.374 . S
C1159 H1139 0.950 . S
C1159 C1155 1.385 . S
C1159 C1158 1.374 . S
C1160 C1157 1.499 . S
C1160 C1161 1.373 . S
C1160 C1162 1.389 . S
C1161 H1140 0.950 . S
C1161 C1160 1.373 . S
C1161 C1177 1.377 . S
C1162 C1160 1.389 . S
C1162 C1163 1.524 . S
C1162 C1176 1.377 . S
C1163 C1162 1.524 . S
C1163 C1164 1.397 . S
C1163 C1168 1.363 . S
C1164 H1141 0.950 . S
C1164 C1163 1.397 . S
C1164 C1165 1.334 . S
C1165 H1142 0.950 . S
C1165 C1164 1.334 . S
C1165 C1166 1.287 . S
C1166 C1165 1.287 . S
C1166 C1167 1.524 . S
C1166 H1185 0.913 . S
C1167 H1143 0.950 . S
C1167 C1166 1.524 . S
C1167 C1168 1.415 . S
C1168 H1144 0.950 . S
C1168 C1163 1.363 . S
C1168 C1167 1.415 . S
C1169 H1145 0.951 . S
C1169 C1170 1.366 . S
C1169 C1171 1.388 . S
C1170 C1169 1.366 . S
C1170 C1174 1.385 . S
C1171 H1146 0.951 . S
C1171 C1169 1.388 . S
C1171 C1172 1.366 . S
C1172 C1171 1.366 . S
C1172 C1173 1.414 . S
C1172 C1175 1.499 . S
C1173 H1147 0.950 . S
C1173 C1172 1.414 . S
C1173 C1174 1.374 . S
C1174 H1148 0.950 . S
C1174 C1170 1.385 . S
C1174 C1173 1.374 . S
C1175 C1172 1.499 . S
C1175 C1176 1.373 . S
C1175 C1177 1.389 . S
C1176 H1149 0.950 . S
C1176 C1162 1.377 . S
C1176 C1175 1.373 . S
C1177 C1161 1.377 . S
C1177 C1175 1.389 . S
C1177 C1178 1.524 . S
C1178 C1177 1.524 . S
C1178 C1179 1.397 . S
C1178 C1183 1.363 . S
C1179 H1150 0.950 . S
C1179 C1178 1.397 . S
C1179 C1180 1.334 . S
C1180 H1151 0.950 . S
C1180 C1179 1.334 . S
C1180 C1181 1.287 . S
C1181 C1180 1.287 . S
C1181 C1182 1.524 . S
C1181 H1184 0.999 . S
C1182 H1152 0.950 . S
C1182 C1181 1.524 . S
C1182 C1183 1.415 . S
C1183 H1153 0.950 . S
C1183 C1178 1.363 . S
C1183 C1182 1.415 . S
H1184 C1181 0.999 . S
H1185 C1166 0.913 . S
H1186 C1204 0.951 . S
H1187 C1206 0.951 . S
H1188 C1208 0.950 . S
H1189 C1209 0.950 . S
H1190 C1211 0.950 . S
H1191 C1214 0.950 . S
H1192 C1215 0.950 . S
H1193 C1217 0.950 . S
H1194 C1218 0.950 . S
H1195 C1219 0.951 . S
H1196 C1221 0.951 . S
H1197 C1223 0.950 . S
H1198 C1224 0.950 . S
H1199 C1226 0.950 . S
H1200 C1229 0.950 . S
H1201 C1230 0.950 . S
H1202 C1232 0.950 . S
H1203 C1233 0.950 . S
C1204 H1186 0.951 . S
C1204 C1205 1.366 . S
C1204 C1206 1.388 . S
C1205 C1204 1.366 . S
C1205 C1209 1.385 . S
C1206 H1187 0.951 . S
C1206 C1204 1.388 . S
C1206 C1207 1.366 . S
C1207 C1206 1.366 . S
C1207 C1208 1.414 . S
C1207 C1210 1.499 . S
C1208 H1188 0.950 . S
C1208 C1207 1.414 . S
C1208 C1209 1.374 . S
C1209 H1189 0.950 . S
C1209 C1205 1.385 . S
C1209 C1208 1.374 . S
C1210 C1207 1.499 . S
C1210 C1211 1.373 . S
C1210 C1212 1.389 . S
C1211 H1190 0.950 . S
C1211 C1210 1.373 . S
C1211 C1227 1.377 . S
C1212 C1210 1.389 . S
C1212 C1213 1.524 . S
C1212 C1226 1.377 . S
C1213 C1212 1.524 . S
C1213 C1214 1.397 . S
C1213 C1218 1.363 . S
C1214 H1191 0.950 . S
C1214 C1213 1.397 . S
C1214 C1215 1.334 . S
C1215 H1192 0.950 . S
C1215 C1214 1.334 . S
C1215 C1216 1.287 . S
C1216 C1215 1.287 . S
C1216 C1217 1.524 . S
C1216 H1235 0.913 . S
C1217 H1193 0.950 . S
C1217 C1216 1.524 . S
C1217 C1218 1.415 . S
C1218 H1194 0.950 . S
C1218 C1213 1.363 . S
C1218 C1217 1.415 . S
C1219 H1195 0.951 . S
C1219 C1220 1.366 . S
C1219 C1221 1.388 . S
C1220 C1219 1.366 . S
C1220 C1224 1.385 . S
C1221 H1196 0.951 . S
C1221 C1219 1.388 . S
C1221 C1222 1.366 . S
C1222 C1221 1.366 . S
C1222 C1223 1.414 . S
C1222 C1225 1.499 . S
C1223 H1197 0.950 . S
C1223 C1222 1.414 . S
C1223 C1224 1.374 . S
C1224 H1198 0.950 . S
C1224 C1220 1.385 . S
C1224 C1223 1.374 . S
C1225 C1222 1.499 . S
C1225 C1226 1.373 . S
C1225 C1227 1.389 . S
C1226 H1199 0.950 . S
C1226 C1212 1.377 . S
C1226 C1225 1.373 . S
C1227 C1211 1.377 . S
C1227 C1225 1.389 . S
C1227 C1228 1.524 . S
C1228 C1227 1.524 . S
C1228 C1229 1.397 . S
C1228 C1233 1.363 . S
C1229 H1200 0.950 . S
C1229 C1228 1.397 . S
C1229 C1230 1.334 . S
C1230 H1201 0.950 . S
C1230 C1229 1.334 . S
C1230 C1231 1.287 . S
C1231 C1230 1.287 . S
C1231 C1232 1.524 . S
C1231 H1234 0.999 . S
C1232 H1202 0.950 . S
C1232 C1231 1.524 . S
C1232 C1233 1.415 . S
C1233 H1203 0.950 . S
C1233 C1228 1.363 . S
C1233 C1232 1.415 . S
H1234 C1231 0.999 . S
H1235 C1216 0.913 . S
H1236 C1254 0.951 . S
H1237 C1256 0.951 . S
H1238 C1258 0.950 . S
H1239 C1259 0.950 . S
H1240 C1261 0.950 . S
H1241 C1264 0.950 . S
H1242 C1265 0.950 . S
H1243 C1267 0.950 . S
H1244 C1268 0.950 . S
H1245 C1269 0.951 . S
H1246 C1271 0.951 . S
H1247 C1273 0.950 . S
H1248 C1274 0.950 . S
H1249 C1276 0.950 . S
H1250 C1279 0.950 . S
H1251 C1280 0.950 . S
H1252 C1282 0.950 . S
H1253 C1283 0.950 . S
C1254 H1236 0.951 . S
C1254 C1255 1.366 . S
C1254 C1256 1.388 . S
C1255 C1254 1.366 . S
C1255 C1259 1.385 . S
C1256 H1237 0.951 . S
C1256 C1254 1.388 . S
C1256 C1257 1.366 . S
C1257 C1256 1.366 . S
C1257 C1258 1.414 . S
C1257 C1260 1.499 . S
C1258 H1238 0.950 . S
C1258 C1257 1.414 . S
C1258 C1259 1.374 . S
C1259 H1239 0.950 . S
C1259 C1255 1.385 . S
C1259 C1258 1.374 . S
C1260 C1257 1.499 . S
C1260 C1261 1.373 . S
C1260 C1262 1.389 . S
C1261 H1240 0.950 . S
C1261 C1260 1.373 . S
C1261 C1277 1.377 . S
C1262 C1260 1.389 . S
C1262 C1263 1.524 . S
C1262 C1276 1.377 . S
C1263 C1262 1.524 . S
C1263 C1264 1.397 . S
C1263 C1268 1.363 . S
C1264 H1241 0.950 . S
C1264 C1263 1.397 . S
C1264 C1265 1.334 . S
C1265 H1242 0.950 . S
C1265 C1264 1.334 . S
C1265 C1266 1.287 . S
C1266 C1265 1.287 . S
C1266 C1267 1.524 . S
C1266 H1285 0.913 . S
C1267 H1243 0.950 . S
C1267 C1266 1.524 . S
C1267 C1268 1.415 . S
C1268 H1244 0.950 . S
C1268 C1263 1.363 . S
C1268 C1267 1.415 . S
C1269 H1245 0.951 . S
C1269 C1270 1.366 . S
C1269 C1271 1.388 . S
C1270 C1269 1.366 . S
C1270 C1274 1.385 . S
C1271 H1246 0.951 . S
C1271 C1269 1.388 . S
C1271 C1272 1.366 . S
C1272 C1271 1.366 . S
C1272 C1273 1.414 . S
C1272 C1275 1.499 . S
C1273 H1247 0.950 . S
C1273 C1272 1.414 . S
C1273 C1274 1.374 . S
C1274 H1248 0.950 . S
C1274 C1270 1.385 . S
C1274 C1273 1.374 . S
C1275 C1272 1.499 . S
C1275 C1276 1.373 . S
C1275 C1277 1.389 . S
C1276 H1249 0.950 . S
C1276 C1262 1.377 . S
C1276 C1275 1.373 . S
C1277 C1261 1.377 . S
C1277 C1275 1.389 . S
C1277 C1278 1.524 . S
C1278 C1277 1.524 . S
C1278 C1279 1.397 . S
C1278 C1283 1.363 . S
C1279 H1250 0.950 . S
C1279 C1278 1.397 . S
C1279 C1280 1.334 . S
C1280 H1251 0.950 . S
C1280 C1279 1.334 . S
C1280 C1281 1.287 . S
C1281 C1280 1.287 . S
C1281 C1282 1.524 . S
C1281 H1284 0.999 . S
C1282 H1252 0.950 . S
C1282 C1281 1.524 . S
C1282 C1283 1.415 . S
C1283 H1253 0.950 . S
C1283 C1278 1.363 . S
C1283 C1282 1.415 . S
H1284 C1281 0.999 . S
H1285 C1266 0.913 . S
H1286 C1304 0.951 . S
H1287 C1306 0.951 . S
H1288 C1308 0.950 . S
H1289 C1309 0.950 . S
H1290 C1311 0.950 . S
H1291 C1314 0.950 . S
H1292 C1315 0.950 . S
H1293 C1317 0.950 . S
H1294 C1318 0.950 . S
H1295 C1319 0.951 . S
H1296 C1321 0.951 . S
H1297 C1323 0.950 . S
H1298 C1324 0.950 . S
H1299 C1326 0.950 . S
H1300 C1329 0.950 . S
H1301 C1330 0.950 . S
H1302 C1332 0.950 . S
H1303 C1333 0.950 . S
C1304 H1286 0.951 . S
C1304 C1305 1.366 . S
C1304 C1306 1.388 . S
C1305 C1304 1.366 . S
C1305 C1309 1.385 . S
C1306 H1287 0.951 . S
C1306 C1304 1.388 . S
C1306 C1307 1.366 . S
C1307 C1306 1.366 . S
C1307 C1308 1.414 . S
C1307 C1310 1.499 . S
C1308 H1288 0.950 . S
C1308 C1307 1.414 . S
C1308 C1309 1.374 . S
C1309 H1289 0.950 . S
C1309 C1305 1.385 . S
C1309 C1308 1.374 . S
C1310 C1307 1.499 . S
C1310 C1311 1.373 . S
C1310 C1312 1.389 . S
C1311 H1290 0.950 . S
C1311 C1310 1.373 . S
C1311 C1327 1.377 . S
C1312 C1310 1.389 . S
C1312 C1313 1.524 . S
C1312 C1326 1.377 . S
C1313 C1312 1.524 . S
C1313 C1314 1.397 . S
C1313 C1318 1.363 . S
C1314 H1291 0.950 . S
C1314 C1313 1.397 . S
C1314 C1315 1.334 . S
C1315 H1292 0.950 . S
C1315 C1314 1.334 . S
C1315 C1316 1.287 . S
C1316 C1315 1.287 . S
C1316 C1317 1.524 . S
C1316 H1335 0.913 . S
C1317 H1293 0.950 . S
C1317 C1316 1.524 . S
C1317 C1318 1.415 . S
C1318 H1294 0.950 . S
C1318 C1313 1.363 . S
C1318 C1317 1.415 . S
C1319 H1295 0.951 . S
C1319 C1320 1.366 . S
C1319 C1321 1.388 . S
C1320 C1319 1.366 . S
C1320 C1324 1.385 . S
C1321 H1296 0.951 . S
C1321 C1319 1.388 . S
C1321 C1322 1.366 . S
C1322 C1321 1.366 . S
C1322 C1323 1.414 . S
C1322 C1325 1.499 . S
C1323 H1297 0.950 . S
C1323 C1322 1.414 . S
C1323 C1324 1.374 . S
C1324 H1298 0.950 . S
C1324 C1320 1.385 . S
C1324 C1323 1.374 . S
C1325 C1322 1.499 . S
C1325 C1326 1.373 . S
C1325 C1327 1.389 . S
C1326 H1299 0.950 . S
C1326 C1312 1.377 . S
C1326 C1325 1.373 . S
C1327 C1311 1.377 . S
C1327 C1325 1.389 . S
C1327 C1328 1.524 . S
C1328 C1327 1.524 . S
C1328 C1329 1.397 . S
C1328 C1333 1.363 . S
C1329 H1300 0.950 . S
C1329 C1328 1.397 . S
C1329 C1330 1.334 . S
C1330 H1301 0.950 . S
C1330 C1329 1.334 . S
C1330 C1331 1.287 . S
C1331 C1330 1.287 . S
C1331 C1332 1.524 . S
C1331 H1334 0.999 . S
C1332 H1302 0.950 . S
C1332 C1331 1.524 . S
C1332 C1333 1.415 . S
C1333 H1303 0.950 . S
C1333 C1328 1.363 . S
C1333 C1332 1.415 . S
H1334 C1331 0.999 . S
H1335 C1316 0.913 . S
H1336 C1354 0.951 . S
H1337 C1356 0.951 . S
H1338 C1358 0.950 . S
H1339 C1359 0.950 . S
H1340 C1361 0.950 . S
H1341 C1364 0.950 . S
H1342 C1365 0.950 . S
H1343 C1367 0.950 . S
H1344 C1368 0.950 . S
H1345 C1369 0.951 . S
H1346 C1371 0.951 . S
H1347 C1373 0.950 . S
H1348 C1374 0.950 . S
H1349 C1376 0.950 . S
H1350 C1379 0.950 . S
H1351 C1380 0.950 . S
H1352 C1382 0.950 . S
H1353 C1383 0.950 . S
C1354 H1336 0.951 . S
C1354 C1355 1.366 . S
C1354 C1356 1.388 . S
C1355 C1354 1.366 . S
C1355 C1359 1.385 . S
C1356 H1337 0.951 . S
C1356 C1354 1.388 . S
C1356 C1357 1.366 . S
C1357 C1356 1.366 . S
C1357 C1358 1.414 . S
C1357 C1360 1.499 . S
C1358 H1338 0.950 . S
C1358 C1357 1.414 . S
C1358 C1359 1.374 . S
C1359 H1339 0.950 . S
C1359 C1355 1.385 . S
C1359 C1358 1.374 . S
C1360 C1357 1.499 . S
C1360 C1361 1.373 . S
C1360 C1362 1.389 . S
C1361 H1340 0.950 . S
C1361 C1360 1.373 . S
C1361 C1377 1.377 . S
C1362 C1360 1.389 . S
C1362 C1363 1.524 . S
C1362 C1376 1.377 . S
C1363 C1362 1.524 . S
C1363 C1364 1.397 . S
C1363 C1368 1.363 . S
C1364 H1341 0.950 . S
C1364 C1363 1.397 . S
C1364 C1365 1.334 . S
C1365 H1342 0.950 . S
C1365 C1364 1.334 . S
C1365 C1366 1.287 . S
C1366 C1365 1.287 . S
C1366 C1367 1.524 . S
C1366 H1385 0.913 . S
C1367 H1343 0.950 . S
C1367 C1366 1.524 . S
C1367 C1368 1.415 . S
C1368 H1344 0.950 . S
C1368 C1363 1.363 . S
C1368 C1367 1.415 . S
C1369 H1345 0.951 . S
C1369 C1370 1.366 . S
C1369 C1371 1.388 . S
C1370 C1369 1.366 . S
C1370 C1374 1.385 . S
C1371 H1346 0.951 . S
C1371 C1369 1.388 . S
C1371 C1372 1.366 . S
C1372 C1371 1.366 . S
C1372 C1373 1.414 . S
C1372 C1375 1.499 . S
C1373 H1347 0.950 . S
C1373 C1372 1.414 . S
C1373 C1374 1.374 . S
C1374 H1348 0.950 . S
C1374 C1370 1.385 . S
C1374 C1373 1.374 . S
C1375 C1372 1.499 . S
C1375 C1376 1.373 . S
C1375 C1377 1.389 . S
C1376 H1349 0.950 . S
C1376 C1362 1.377 . S
C1376 C1375 1.373 . S
C1377 C1361 1.377 . S
C1377 C1375 1.389 . S
C1377 C1378 1.524 . S
C1378 C1377 1.524 . S
C1378 C1379 1.397 . S
C1378 C1383 1.363 . S
C1379 H1350 0.950 . S
C1379 C1378 1.397 . S
C1379 C1380 1.334 . S
C1380 H1351 0.950 . S
C1380 C1379 1.334 . S
C1380 C1381 1.287 . S
C1381 C1380 1.287 . S
C1381 C1382 1.524 . S
C1381 H1384 0.999 . S
C1382 H1352 0.950 . S
C1382 C1381 1.524 . S
C1382 C1383 1.415 . S
C1383 H1353 0.950 . S
C1383 C1378 1.363 . S
C1383 C1382 1.415 . S
H1384 C1381 0.999 . S
H1385 C1366 0.913 . S
H1386 C1404 0.951 . S
H1387 C1406 0.951 . S
H1388 C1408 0.950 . S
H1389 C1409 0.950 . S
H1390 C1411 0.950 . S
H1391 C1414 0.950 . S
H1392 C1415 0.950 . S
H1393 C1417 0.950 . S
H1394 C1418 0.950 . S
H1395 C1419 0.951 . S
H1396 C1421 0.951 . S
H1397 C1423 0.950 . S
H1398 C1424 0.950 . S
H1399 C1426 0.950 . S
H1400 C1429 0.950 . S
H1401 C1430 0.950 . S
H1402 C1432 0.950 . S
H1403 C1433 0.950 . S
C1404 H1386 0.951 . S
C1404 C1405 1.366 . S
C1404 C1406 1.388 . S
C1405 C1404 1.366 . S
C1405 C1409 1.385 . S
C1406 H1387 0.951 . S
C1406 C1404 1.388 . S
C1406 C1407 1.366 . S
C1407 C1406 1.366 . S
C1407 C1408 1.414 . S
C1407 C1410 1.499 . S
C1408 H1388 0.950 . S
C1408 C1407 1.414 . S
C1408 C1409 1.374 . S
C1409 H1389 0.950 . S
C1409 C1405 1.385 . S
C1409 C1408 1.374 . S
C1410 C1407 1.499 . S
C1410 C1411 1.373 . S
C1410 C1412 1.389 . S
C1411 H1390 0.950 . S
C1411 C1410 1.373 . S
C1411 C1427 1.377 . S
C1412 C1410 1.389 . S
C1412 C1413 1.524 . S
C1412 C1426 1.377 . S
C1413 C1412 1.524 . S
C1413 C1414 1.397 . S
C1413 C1418 1.363 . S
C1414 H1391 0.950 . S
C1414 C1413 1.397 . S
C1414 C1415 1.334 . S
C1415 H1392 0.950 . S
C1415 C1414 1.334 . S
C1415 C1416 1.287 . S
C1416 C1415 1.287 . S
C1416 C1417 1.524 . S
C1416 H1435 0.913 . S
C1417 H1393 0.950 . S
C1417 C1416 1.524 . S
C1417 C1418 1.415 . S
C1418 H1394 0.950 . S
C1418 C1413 1.363 . S
C1418 C1417 1.415 . S
C1419 H1395 0.951 . S
C1419 C1420 1.366 . S
C1419 C1421 1.388 . S
C1420 C1419 1.366 . S
C1420 C1424 1.385 . S
C1421 H1396 0.951 . S
C1421 C1419 1.388 . S
C1421 C1422 1.366 . S
C1422 C1421 1.366 . S
C1422 C1423 1.414 . S
C1422 C1425 1.499 . S
C1423 H1397 0.950 . S
C1423 C1422 1.414 . S
C1423 C1424 1.374 . S
C1424 H1398 0.950 . S
C1424 C1420 1.385 . S
C1424 C1423 1.374 . S
C1425 C1422 1.499 . S
C1425 C1426 1.373 . S
C1425 C1427 1.389 . S
C1426 H1399 0.950 . S
C1426 C1412 1.377 . S
C1426 C1425 1.373 . S
C1427 C1411 1.377 . S
C1427 C1425 1.389 . S
C1427 C1428 1.524 . S
C1428 C1427 1.524 . S
C1428 C1429 1.397 . S
C1428 C1433 1.363 . S
C1429 H1400 0.950 . S
C1429 C1428 1.397 . S
C1429 C1430 1.334 . S
C1430 H1401 0.950 . S
C1430 C1429 1.334 . S
C1430 C1431 1.287 . S
C1431 C1430 1.287 . S
C1431 C1432 1.524 . S
C1431 H1434 0.999 . S
C1432 H1402 0.950 . S
C1432 C1431 1.524 . S
C1432 C1433 1.415 . S
C1433 H1403 0.950 . S
C1433 C1428 1.363 . S
C1433 C1432 1.415 . S
H1434 C1431 0.999 . S
H1435 C1416 0.913 . S
H1436 C1454 0.951 . S
H1437 C1456 0.951 . S
H1438 C1458 0.950 . S
H1439 C1459 0.950 . S
H1440 C1461 0.950 . S
H1441 C1464 0.950 . S
H1442 C1465 0.950 . S
H1443 C1467 0.950 . S
H1444 C1468 0.950 . S
H1445 C1469 0.951 . S
H1446 C1471 0.951 . S
H1447 C1473 0.950 . S
H1448 C1474 0.950 . S
H1449 C1476 0.950 . S
H1450 C1479 0.950 . S
H1451 C1480 0.950 . S
H1452 C1482 0.950 . S
H1453 C1483 0.950 . S
C1454 H1436 0.951 . S
C1454 C1455 1.366 . S
C1454 C1456 1.388 . S
C1455 C1454 1.366 . S
C1455 C1459 1.385 . S
C1456 H1437 0.951 . S
C1456 C1454 1.388 . S
C1456 C1457 1.366 . S
C1457 C1456 1.366 . S
C1457 C1458 1.414 . S
C1457 C1460 1.499 . S
C1458 H1438 0.950 . S
C1458 C1457 1.414 . S
C1458 C1459 1.374 . S
C1459 H1439 0.950 . S
C1459 C1455 1.385 . S
C1459 C1458 1.374 . S
C1460 C1457 1.499 . S
C1460 C1461 1.373 . S
C1460 C1462 1.389 . S
C1461 H1440 0.950 . S
C1461 C1460 1.373 . S
C1461 C1477 1.377 . S
C1462 C1460 1.389 . S
C1462 C1463 1.524 . S
C1462 C1476 1.377 . S
C1463 C1462 1.524 . S
C1463 C1464 1.397 . S
C1463 C1468 1.363 . S
C1464 H1441 0.950 . S
C1464 C1463 1.397 . S
C1464 C1465 1.334 . S
C1465 H1442 0.950 . S
C1465 C1464 1.334 . S
C1465 C1466 1.287 . S
C1466 C1465 1.287 . S
C1466 C1467 1.524 . S
C1466 H1485 0.913 . S
C1467 H1443 0.950 . S
C1467 C1466 1.524 . S
C1467 C1468 1.415 . S
C1468 H1444 0.950 . S
C1468 C1463 1.363 . S
C1468 C1467 1.415 . S
C1469 H1445 0.951 . S
C1469 C1470 1.366 . S
C1469 C1471 1.388 . S
C1470 C1469 1.366 . S
C1470 C1474 1.385 . S
C1471 H1446 0.951 . S
C1471 C1469 1.388 . S
C1471 C1472 1.366 . S
C1472 C1471 1.366 . S
C1472 C1473 1.414 . S
C1472 C1475 1.499 . S
C1473 H1447 0.950 . S
C1473 C1472 1.414 . S
C1473 C1474 1.374 . S
C1474 H1448 0.950 . S
C1474 C1470 1.385 . S
C1474 C1473 1.374 . S
C1475 C1472 1.499 . S
C1475 C1476 1.373 . S
C1475 C1477 1.389 . S
C1476 H1449 0.950 . S
C1476 C1462 1.377 . S
C1476 C1475 1.373 . S
C1477 C1461 1.377 . S
C1477 C1475 1.389 . S
C1477 C1478 1.524 . S
C1478 C1477 1.524 . S
C1478 C1479 1.397 . S
C1478 C1483 1.363 . S
C1479 H1450 0.950 . S
C1479 C1478 1.397 . S
C1479 C1480 1.334 . S
C1480 H1451 0.950 . S
C1480 C1479 1.334 . S
C1480 C1481 1.287 . S
C1481 C1480 1.287 . S
C1481 C1482 1.524 . S
C1481 H1484 0.999 . S
C1482 H1452 0.950 . S
C1482 C1481 1.524 . S
C1482 C1483 1.415 . S
C1483 H1453 0.950 . S
C1483 C1478 1.363 . S
C1483 C1482 1.415 . S
H1484 C1481 0.999 . S
H1485 C1466 0.913 . S
H1486 C1504 0.951 . S
H1487 C1506 0.951 . S
H1488 C1508 0.950 . S
H1489 C1509 0.950 . S
H1490 C1511 0.950 . S
H1491 C1514 0.950 . S
H1492 C1515 0.950 . S
H1493 C1517 0.950 . S
H1494 C1518 0.950 . S
H1495 C1519 0.951 . S
H1496 C1521 0.951 . S
H1497 C1523 0.950 . S
H1498 C1524 0.950 . S
H1499 C1526 0.950 . S
H1500 C1529 0.950 . S
H1501 C1530 0.950 . S
H1502 C1532 0.950 . S
H1503 C1533 0.950 . S
C1504 H1486 0.951 . S
C1504 C1505 1.366 . S
C1504 C1506 1.388 . S
C1505 C1504 1.366 . S
C1505 C1509 1.385 . S
C1506 H1487 0.951 . S
C1506 C1504 1.388 . S
C1506 C1507 1.366 . S
C1507 C1506 1.366 . S
C1507 C1508 1.414 . S
C1507 C1510 1.499 . S
C1508 H1488 0.950 . S
C1508 C1507 1.414 . S
C1508 C1509 1.374 . S
C1509 H1489 0.950 . S
C1509 C1505 1.385 . S
C1509 C1508 1.374 . S
C1510 C1507 1.499 . S
C1510 C1511 1.373 . S
C1510 C1512 1.389 . S
C1511 H1490 0.950 . S
C1511 C1510 1.373 . S
C1511 C1527 1.377 . S
C1512 C1510 1.389 . S
C1512 C1513 1.524 . S
C1512 C1526 1.377 . S
C1513 C1512 1.524 . S
C1513 C1514 1.397 . S
C1513 C1518 1.363 . S
C1514 H1491 0.950 . S
C1514 C1513 1.397 . S
C1514 C1515 1.334 . S
C1515 H1492 0.950 . S
C1515 C1514 1.334 . S
C1515 C1516 1.287 . S
C1516 C1515 1.287 . S
C1516 C1517 1.524 . S
C1516 H1535 0.913 . S
C1517 H1493 0.950 . S
C1517 C1516 1.524 . S
C1517 C1518 1.415 . S
C1518 H1494 0.950 . S
C1518 C1513 1.363 . S
C1518 C1517 1.415 . S
C1519 H1495 0.951 . S
C1519 C1520 1.366 . S
C1519 C1521 1.388 . S
C1520 C1519 1.366 . S
C1520 C1524 1.385 . S
C1521 H1496 0.951 . S
C1521 C1519 1.388 . S
C1521 C1522 1.366 . S
C1522 C1521 1.366 . S
C1522 C1523 1.414 . S
C1522 C1525 1.499 . S
C1523 H1497 0.950 . S
C1523 C1522 1.414 . S
C1523 C1524 1.374 . S
C1524 H1498 0.950 . S
C1524 C1520 1.385 . S
C1524 C1523 1.374 . S
C1525 C1522 1.499 . S
C1525 C1526 1.373 . S
C1525 C1527 1.389 . S
C1526 H1499 0.950 . S
C1526 C1512 1.377 . S
C1526 C1525 1.373 . S
C1527 C1511 1.377 . S
C1527 C1525 1.389 . S
C1527 C1528 1.524 . S
C1528 C1527 1.524 . S
C1528 C1529 1.397 . S
C1528 C1533 1.363 . S
C1529 H1500 0.950 . S
C1529 C1528 1.397 . S
C1529 C1530 1.334 . S
C1530 H1501 0.950 . S
C1530 C1529 1.334 . S
C1530 C1531 1.287 . S
C1531 C1530 1.287 . S
C1531 C1532 1.524 . S
C1531 H1534 0.999 . S
C1532 H1502 0.950 . S
C1532 C1531 1.524 . S
C1532 C1533 1.415 . S
C1533 H1503 0.950 . S
C1533 C1528 1.363 . S
C1533 C1532 1.415 . S
H1534 C1531 0.999 . S
H1535 C1516 0.913 . S
H1536 C1554 0.951 . S
H1537 C1556 0.951 . S
H1538 C1558 0.950 . S
H1539 C1559 0.950 . S
H1540 C1561 0.950 . S
H1541 C1564 0.950 . S
H1542 C1565 0.950 . S
H1543 C1567 0.950 . S
H1544 C1568 0.950 . S
H1545 C1569 0.951 . S
H1546 C1571 0.951 . S
H1547 C1573 0.950 . S
H1548 C1574 0.950 . S
H1549 C1576 0.950 . S
H1550 C1579 0.950 . S
H1551 C1580 0.950 . S
H1552 C1582 0.950 . S
H1553 C1583 0.950 . S
C1554 H1536 0.951 . S
C1554 C1555 1.366 . S
C1554 C1556 1.388 . S
C1555 C1554 1.366 . S
C1555 C1559 1.385 . S
C1556 H1537 0.951 . S
C1556 C1554 1.388 . S
C1556 C1557 1.366 . S
C1557 C1556 1.366 . S
C1557 C1558 1.414 . S
C1557 C1560 1.499 . S
C1558 H1538 0.950 . S
C1558 C1557 1.414 . S
C1558 C1559 1.374 . S
C1559 H1539 0.950 . S
C1559 C1555 1.385 . S
C1559 C1558 1.374 . S
C1560 C1557 1.499 . S
C1560 C1561 1.373 1_565 S
C1560 C1562 1.389 . S
C1561 H1540 0.950 . S
C1561 C1560 1.373 1_545 S
C1561 C1577 1.377 1_556 S
C1562 C1560 1.389 . S
C1562 C1563 1.524 . S
C1562 C1576 1.377 1_556 S
C1563 C1562 1.524 . S
C1563 C1564 1.397 . S
C1563 C1568 1.363 1_556 S
C1564 H1541 0.950 . S
C1564 C1563 1.397 . S
C1564 C1565 1.334 . S
C1565 H1542 0.950 . S
C1565 C1564 1.334 . S
C1565 C1566 1.287 . S
C1566 C1565 1.287 . S
C1566 C1567 1.524 1_556 S
C1566 H1585 0.913 . S
C1567 H1543 0.950 . S
C1567 C1566 1.524 1_554 S
C1567 C1568 1.415 . S
C1568 H1544 0.950 . S
C1568 C1563 1.363 1_554 S
C1568 C1567 1.415 . S
C1569 H1545 0.951 . S
C1569 C1570 1.366 . S
C1569 C1571 1.388 . S
C1570 C1569 1.366 . S
C1570 C1574 1.385 . S
C1571 H1546 0.951 . S
C1571 C1569 1.388 . S
C1571 C1572 1.366 . S
C1572 C1571 1.366 . S
C1572 C1573 1.414 . S
C1572 C1575 1.499 . S
C1573 H1547 0.950 . S
C1573 C1572 1.414 . S
C1573 C1574 1.374 . S
C1574 H1548 0.950 . S
C1574 C1570 1.385 . S
C1574 C1573 1.374 . S
C1575 C1572 1.499 . S
C1575 C1576 1.373 1_545 S
C1575 C1577 1.389 . S
C1576 H1549 0.950 . S
C1576 C1562 1.377 1_554 S
C1576 C1575 1.373 1_565 S
C1577 C1561 1.377 1_554 S
C1577 C1575 1.389 . S
C1577 C1578 1.524 . S
C1578 C1577 1.524 . S
C1578 C1579 1.397 . S
C1578 C1583 1.363 1_554 S
C1579 H1550 0.950 . S
C1579 C1578 1.397 . S
C1579 C1580 1.334 . S
C1580 H1551 0.950 . S
C1580 C1579 1.334 . S
C1580 C1581 1.287 . S
C1581 C1580 1.287 . S
C1581 C1582 1.524 1_554 S
C1581 H1584 0.999 . S
C1582 H1552 0.950 . S
C1582 C1581 1.524 1_556 S
C1582 C1583 1.415 . S
C1583 H1553 0.950 . S
C1583 C1578 1.363 1_556 S
C1583 C1582 1.415 . S
H1584 C1581 0.999 . S
H1585 C1566 0.913 . S
H1586 C1604 0.951 . S
H1587 C1606 0.951 . S
H1588 C1608 0.950 . S
H1589 C1609 0.950 . S
H1590 C1611 0.950 . S
H1591 C1614 0.950 . S
H1592 C1615 0.950 . S
H1593 C1617 0.950 . S
H1594 C1618 0.950 . S
H1595 C1619 0.951 . S
H1596 C1621 0.951 . S
H1597 C1623 0.950 . S
H1598 C1624 0.950 . S
H1599 C1626 0.950 . S
H1600 C1629 0.950 . S
H1601 C1630 0.950 . S
H1602 C1632 0.950 . S
H1603 C1633 0.950 . S
C1604 H1586 0.951 . S
C1604 C1605 1.366 . S
C1604 C1606 1.388 . S
C1605 C1604 1.366 . S
C1605 C1609 1.385 . S
C1606 H1587 0.951 . S
C1606 C1604 1.388 . S
C1606 C1607 1.366 . S
C1607 C1606 1.366 . S
C1607 C1608 1.414 . S
C1607 C1610 1.499 . S
C1608 H1588 0.950 . S
C1608 C1607 1.414 . S
C1608 C1609 1.374 . S
C1609 H1589 0.950 . S
C1609 C1605 1.385 . S
C1609 C1608 1.374 . S
C1610 C1607 1.499 . S
C1610 C1611 1.373 . S
C1610 C1612 1.389 . S
C1611 H1590 0.950 . S
C1611 C1610 1.373 . S
C1611 C1627 1.377 . S
C1612 C1610 1.389 . S
C1612 C1613 1.524 . S
C1612 C1626 1.377 . S
C1613 C1612 1.524 . S
C1613 C1614 1.397 . S
C1613 C1618 1.363 . S
C1614 H1591 0.950 . S
C1614 C1613 1.397 . S
C1614 C1615 1.334 . S
C1615 H1592 0.950 . S
C1615 C1614 1.334 . S
C1615 C1616 1.287 . S
C1616 C1615 1.287 . S
C1616 C1617 1.524 . S
C1616 H1635 0.913 . S
C1617 H1593 0.950 . S
C1617 C1616 1.524 . S
C1617 C1618 1.415 . S
C1618 H1594 0.950 . S
C1618 C1613 1.363 . S
C1618 C1617 1.415 . S
C1619 H1595 0.951 . S
C1619 C1620 1.366 . S
C1619 C1621 1.388 . S
C1620 C1619 1.366 . S
C1620 C1624 1.385 . S
C1621 H1596 0.951 . S
C1621 C1619 1.388 . S
C1621 C1622 1.366 . S
C1622 C1621 1.366 . S
C1622 C1623 1.414 . S
C1622 C1625 1.499 . S
C1623 H1597 0.950 . S
C1623 C1622 1.414 . S
C1623 C1624 1.374 . S
C1624 H1598 0.950 . S
C1624 C1620 1.385 . S
C1624 C1623 1.374 . S
C1625 C1622 1.499 . S
C1625 C1626 1.373 . S
C1625 C1627 1.389 . S
C1626 H1599 0.950 . S
C1626 C1612 1.377 . S
C1626 C1625 1.373 . S
C1627 C1611 1.377 . S
C1627 C1625 1.389 . S
C1627 C1628 1.524 . S
C1628 C1627 1.524 . S
C1628 C1629 1.397 . S
C1628 C1633 1.363 . S
C1629 H1600 0.950 . S
C1629 C1628 1.397 . S
C1629 C1630 1.334 . S
C1630 H1601 0.950 . S
C1630 C1629 1.334 . S
C1630 C1631 1.287 . S
C1631 C1630 1.287 . S
C1631 C1632 1.524 . S
C1631 H1634 0.999 . S
C1632 H1602 0.950 . S
C1632 C1631 1.524 . S
C1632 C1633 1.415 . S
C1633 H1603 0.950 . S
C1633 C1628 1.363 . S
C1633 C1632 1.415 . S
H1634 C1631 0.999 . S
H1635 C1616 0.913 . S
H1636 C1654 0.951 . S
H1637 C1656 0.951 . S
H1638 C1658 0.950 . S
H1639 C1659 0.950 . S
H1640 C1661 0.950 . S
H1641 C1664 0.950 . S
H1642 C1665 0.950 . S
H1643 C1667 0.950 . S
H1644 C1668 0.950 . S
H1645 C1669 0.951 . S
H1646 C1671 0.951 . S
H1647 C1673 0.950 . S
H1648 C1674 0.950 . S
H1649 C1676 0.950 . S
H1650 C1679 0.950 . S
H1651 C1680 0.950 . S
H1652 C1682 0.950 . S
H1653 C1683 0.950 . S
C1654 H1636 0.951 . S
C1654 C1655 1.366 . S
C1654 C1656 1.388 . S
C1655 C1654 1.366 . S
C1655 C1659 1.385 . S
C1656 H1637 0.951 . S
C1656 C1654 1.388 . S
C1656 C1657 1.366 . S
C1657 C1656 1.366 . S
C1657 C1658 1.414 . S
C1657 C1660 1.499 . S
C1658 H1638 0.950 . S
C1658 C1657 1.414 . S
C1658 C1659 1.374 . S
C1659 H1639 0.950 . S
C1659 C1655 1.385 . S
C1659 C1658 1.374 . S
C1660 C1657 1.499 . S
C1660 C1661 1.373 . S
C1660 C1662 1.389 1_455 S
C1661 H1640 0.950 . S
C1661 C1660 1.373 . S
C1661 C1677 1.377 1_556 S
C1662 C1660 1.389 1_655 S
C1662 C1663 1.524 . S
C1662 C1676 1.377 1_556 S
C1663 C1662 1.524 . S
C1663 C1664 1.397 . S
C1663 C1668 1.363 . S
C1664 H1641 0.950 . S
C1664 C1663 1.397 . S
C1664 C1665 1.334 . S
C1665 H1642 0.950 . S
C1665 C1664 1.334 . S
C1665 C1666 1.287 . S
C1666 C1665 1.287 . S
C1666 C1667 1.524 . S
C1666 H1685 0.913 . S
C1667 H1643 0.950 . S
C1667 C1666 1.524 . S
C1667 C1668 1.415 . S
C1668 H1644 0.950 . S
C1668 C1663 1.363 . S
C1668 C1667 1.415 . S
C1669 H1645 0.951 . S
C1669 C1670 1.366 . S
C1669 C1671 1.388 . S
C1670 C1669 1.366 . S
C1670 C1674 1.385 . S
C1671 H1646 0.951 . S
C1671 C1669 1.388 . S
C1671 C1672 1.366 . S
C1672 C1671 1.366 . S
C1672 C1673 1.414 . S
C1672 C1675 1.499 . S
C1673 H1647 0.950 . S
C1673 C1672 1.414 . S
C1673 C1674 1.374 . S
C1674 H1648 0.950 . S
C1674 C1670 1.385 . S
C1674 C1673 1.374 . S
C1675 C1672 1.499 . S
C1675 C1676 1.373 . S
C1675 C1677 1.389 1_655 S
C1676 H1649 0.950 . S
C1676 C1662 1.377 1_554 S
C1676 C1675 1.373 . S
C1677 C1661 1.377 1_554 S
C1677 C1675 1.389 1_455 S
C1677 C1678 1.524 . S
C1678 C1677 1.524 . S
C1678 C1679 1.397 . S
C1678 C1683 1.363 . S
C1679 H1650 0.950 . S
C1679 C1678 1.397 . S
C1679 C1680 1.334 . S
C1680 H1651 0.950 . S
C1680 C1679 1.334 . S
C1680 C1681 1.287 . S
C1681 C1680 1.287 . S
C1681 C1682 1.524 . S
C1681 H1684 0.999 . S
C1682 H1652 0.950 . S
C1682 C1681 1.524 . S
C1682 C1683 1.415 . S
C1683 H1653 0.950 . S
C1683 C1678 1.363 . S
C1683 C1682 1.415 . S
H1684 C1681 0.999 . S
H1685 C1666 0.913 . S
H1686 C1704 0.951 . S
H1687 C1706 0.951 . S
H1688 C1708 0.950 . S
H1689 C1709 0.950 . S
H1690 C1711 0.950 . S
H1691 C1714 0.950 . S
H1692 C1715 0.950 . S
H1693 C1717 0.950 . S
H1694 C1718 0.950 . S
H1695 C1719 0.951 . S
H1696 C1721 0.951 . S
H1697 C1723 0.950 . S
H1698 C1724 0.950 . S
H1699 C1726 0.950 . S
H1700 C1729 0.950 . S
H1701 C1730 0.950 . S
H1702 C1732 0.950 . S
H1703 C1733 0.950 . S
C1704 H1686 0.951 . S
C1704 C1705 1.366 . S
C1704 C1706 1.388 . S
C1705 C1704 1.366 . S
C1705 C1709 1.385 . S
C1706 H1687 0.951 . S
C1706 C1704 1.388 . S
C1706 C1707 1.366 . S
C1707 C1706 1.366 . S
C1707 C1708 1.414 . S
C1707 C1710 1.499 . S
C1708 H1688 0.950 . S
C1708 C1707 1.414 . S
C1708 C1709 1.374 . S
C1709 H1689 0.950 . S
C1709 C1705 1.385 . S
C1709 C1708 1.374 . S
C1710 C1707 1.499 . S
C1710 C1711 1.373 1_545 S
C1710 C1712 1.389 . S
C1711 H1690 0.950 . S
C1711 C1710 1.373 1_565 S
C1711 C1727 1.377 . S
C1712 C1710 1.389 . S
C1712 C1713 1.524 . S
C1712 C1726 1.377 . S
C1713 C1712 1.524 . S
C1713 C1714 1.397 . S
C1713 C1718 1.363 . S
C1714 H1691 0.950 . S
C1714 C1713 1.397 . S
C1714 C1715 1.334 . S
C1715 H1692 0.950 . S
C1715 C1714 1.334 . S
C1715 C1716 1.287 . S
C1716 C1715 1.287 . S
C1716 C1717 1.524 . S
C1716 H1735 0.913 . S
C1717 H1693 0.950 . S
C1717 C1716 1.524 . S
C1717 C1718 1.415 . S
C1718 H1694 0.950 . S
C1718 C1713 1.363 . S
C1718 C1717 1.415 . S
C1719 H1695 0.951 . S
C1719 C1720 1.366 . S
C1719 C1721 1.388 . S
C1720 C1719 1.366 . S
C1720 C1724 1.385 . S
C1721 H1696 0.951 . S
C1721 C1719 1.388 . S
C1721 C1722 1.366 . S
C1722 C1721 1.366 . S
C1722 C1723 1.414 . S
C1722 C1725 1.499 . S
C1723 H1697 0.950 . S
C1723 C1722 1.414 . S
C1723 C1724 1.374 . S
C1724 H1698 0.950 . S
C1724 C1720 1.385 . S
C1724 C1723 1.374 . S
C1725 C1722 1.499 . S
C1725 C1726 1.373 1_565 S
C1725 C1727 1.389 . S
C1726 H1699 0.950 . S
C1726 C1712 1.377 . S
C1726 C1725 1.373 1_545 S
C1727 C1711 1.377 . S
C1727 C1725 1.389 . S
C1727 C1728 1.524 . S
C1728 C1727 1.524 . S
C1728 C1729 1.397 . S
C1728 C1733 1.363 . S
C1729 H1700 0.950 . S
C1729 C1728 1.397 . S
C1729 C1730 1.334 . S
C1730 H1701 0.950 . S
C1730 C1729 1.334 . S
C1730 C1731 1.287 . S
C1731 C1730 1.287 . S
C1731 C1732 1.524 . S
C1731 H1734 0.999 . S
C1732 H1702 0.950 . S
C1732 C1731 1.524 . S
C1732 C1733 1.415 . S
C1733 H1703 0.950 . S
C1733 C1728 1.363 . S
C1733 C1732 1.415 . S
H1734 C1731 0.999 . S
H1735 C1716 0.913 . S
H1736 C1754 0.951 . S
H1737 C1756 0.951 . S
H1738 C1758 0.950 . S
H1739 C1759 0.950 . S
H1740 C1761 0.950 . S
H1741 C1764 0.950 . S
H1742 C1765 0.950 . S
H1743 C1767 0.950 . S
H1744 C1768 0.950 . S
H1745 C1769 0.951 . S
H1746 C1771 0.951 . S
H1747 C1773 0.950 . S
H1748 C1774 0.950 . S
H1749 C1776 0.950 . S
H1750 C1779 0.950 . S
H1751 C1780 0.950 . S
H1752 C1782 0.950 . S
H1753 C1783 0.950 . S
C1754 H1736 0.951 . S
C1754 C1755 1.366 . S
C1754 C1756 1.388 . S
C1755 C1754 1.366 . S
C1755 C1759 1.385 . S
C1756 H1737 0.951 . S
C1756 C1754 1.388 . S
C1756 C1757 1.366 . S
C1757 C1756 1.366 . S
C1757 C1758 1.414 . S
C1757 C1760 1.499 . S
C1758 H1738 0.950 . S
C1758 C1757 1.414 . S
C1758 C1759 1.374 . S
C1759 H1739 0.950 . S
C1759 C1755 1.385 . S
C1759 C1758 1.374 . S
C1760 C1757 1.499 . S
C1760 C1761 1.373 . S
C1760 C1762 1.432 . S
C1761 H1740 0.950 . S
C1761 C1760 1.373 . S
C1761 C1777 1.332 1_554 S
C1762 C1760 1.432 . S
C1762 C1763 1.524 . S
C1762 C1776 1.332 1_554 S
C1763 C1762 1.524 . S
C1763 C1764 1.407 . S
C1763 C1768 1.351 1_554 S
C1764 H1741 0.950 . S
C1764 C1763 1.407 . S
C1764 C1765 1.334 . S
C1765 H1742 0.950 . S
C1765 C1764 1.334 . S
C1765 C1766 1.283 . S
C1766 C1765 1.283 . S
C1766 C1767 1.527 1_554 S
C1766 H1785 0.913 . S
C1767 H1743 0.950 . S
C1767 C1766 1.527 1_556 S
C1767 C1768 1.415 . S
C1768 H1744 0.950 . S
C1768 C1763 1.351 1_556 S
C1768 C1767 1.415 . S
C1769 H1745 0.951 . S
C1769 C1770 1.366 . S
C1769 C1771 1.388 . S
C1770 C1769 1.366 . S
C1770 C1774 1.385 . S
C1771 H1746 0.951 . S
C1771 C1769 1.388 . S
C1771 C1772 1.366 . S
C1772 C1771 1.366 . S
C1772 C1773 1.414 . S
C1772 C1775 1.499 . S
C1773 H1747 0.950 . S
C1773 C1772 1.414 . S
C1773 C1774 1.374 . S
C1774 H1748 0.950 . S
C1774 C1770 1.385 . S
C1774 C1773 1.374 . S
C1775 C1772 1.499 . S
C1775 C1776 1.373 . S
C1775 C1777 1.432 . S
C1776 H1749 0.950 . S
C1776 C1762 1.332 1_556 S
C1776 C1775 1.373 . S
C1777 C1761 1.332 1_556 S
C1777 C1775 1.432 . S
C1777 C1778 1.524 . S
C1778 C1777 1.524 . S
C1778 C1779 1.407 . S
C1778 C1783 1.351 1_556 S
C1779 H1750 0.950 . S
C1779 C1778 1.407 . S
C1779 C1780 1.334 . S
C1780 H1751 0.950 . S
C1780 C1779 1.334 . S
C1780 C1781 1.283 . S
C1781 C1780 1.283 . S
C1781 C1782 1.528 1_556 S
C1781 H1784 0.999 1_556 S
C1782 H1752 0.950 . S
C1782 C1781 1.528 1_554 S
C1782 C1783 1.415 . S
C1783 H1753 0.950 . S
C1783 C1778 1.351 1_554 S
C1783 C1782 1.415 . S
H1784 C1781 0.999 1_554 S
H1785 C1766 0.913 . S
H1786 C1804 0.951 . S
H1787 C1806 0.951 . S
H1788 C1808 0.950 . S
H1789 C1809 0.950 . S
H1790 C1811 0.950 . S
H1791 C1814 0.950 . S
H1792 C1815 0.950 . S
H1793 C1817 0.950 . S
H1794 C1818 0.950 . S
H1795 C1819 0.951 . S
H1796 C1821 0.951 . S
H1797 C1823 0.950 . S
H1798 C1824 0.950 . S
H1799 C1826 0.950 . S
H1800 C1829 0.950 . S
H1801 C1830 0.950 . S
H1802 C1832 0.950 . S
H1803 C1833 0.950 . S
C1804 H1786 0.951 . S
C1804 C1805 1.366 . S
C1804 C1806 1.388 . S
C1805 C1804 1.366 . S
C1805 C1809 1.385 . S
C1806 H1787 0.951 . S
C1806 C1804 1.388 . S
C1806 C1807 1.366 . S
C1807 C1806 1.366 . S
C1807 C1808 1.414 . S
C1807 C1810 1.499 . S
C1808 H1788 0.950 . S
C1808 C1807 1.414 . S
C1808 C1809 1.374 . S
C1809 H1789 0.950 . S
C1809 C1805 1.385 . S
C1809 C1808 1.374 . S
C1810 C1807 1.499 . S
C1810 C1811 1.373 1_455 S
C1810 C1812 1.389 . S
C1811 H1790 0.950 . S
C1811 C1810 1.373 1_655 S
C1811 C1827 1.377 . S
C1812 C1810 1.389 . S
C1812 C1813 1.524 . S
C1812 C1826 1.377 . S
C1813 C1812 1.524 . S
C1813 C1814 1.397 . S
C1813 C1818 1.363 . S
C1814 H1791 0.950 . S
C1814 C1813 1.397 . S
C1814 C1815 1.334 . S
C1815 H1792 0.950 . S
C1815 C1814 1.334 . S
C1815 C1816 1.287 . S
C1816 C1815 1.287 . S
C1816 C1817 1.524 . S
C1816 H1835 0.913 . S
C1817 H1793 0.950 . S
C1817 C1816 1.524 . S
C1817 C1818 1.415 . S
C1818 H1794 0.950 . S
C1818 C1813 1.363 . S
C1818 C1817 1.415 . S
C1819 H1795 0.951 . S
C1819 C1820 1.366 . S
C1819 C1821 1.388 . S
C1820 C1819 1.366 . S
C1820 C1824 1.385 . S
C1821 H1796 0.951 . S
C1821 C1819 1.388 . S
C1821 C1822 1.366 . S
C1822 C1821 1.366 . S
C1822 C1823 1.414 . S
C1822 C1825 1.499 . S
C1823 H1797 0.950 . S
C1823 C1822 1.414 . S
C1823 C1824 1.374 . S
C1824 H1798 0.950 . S
C1824 C1820 1.385 . S
C1824 C1823 1.374 . S
C1825 C1822 1.499 . S
C1825 C1826 1.373 1_655 S
C1825 C1827 1.389 . S
C1826 H1799 0.950 . S
C1826 C1812 1.377 . S
C1826 C1825 1.373 1_455 S
C1827 C1811 1.377 . S
C1827 C1825 1.389 . S
C1827 C1828 1.524 . S
C1828 C1827 1.524 . S
C1828 C1829 1.397 . S
C1828 C1833 1.363 . S
C1829 H1800 0.950 . S
C1829 C1828 1.397 . S
C1829 C1830 1.334 . S
C1830 H1801 0.950 . S
C1830 C1829 1.334 . S
C1830 C1831 1.287 . S
C1831 C1830 1.287 . S
C1831 C1832 1.524 . S
C1831 H1834 0.999 . S
C1832 H1802 0.950 . S
C1832 C1831 1.524 . S
C1832 C1833 1.415 . S
C1833 H1803 0.950 . S
C1833 C1828 1.363 . S
C1833 C1832 1.415 . S
H1834 C1831 0.999 . S
H1835 C1816 0.913 . S
H1836 C1854 0.951 . S
H1837 C1856 0.972 . S
H1838 C1858 0.950 . S
H1839 C1859 0.950 . S
H1840 C1861 0.950 . S
H1841 C1864 0.950 . S
H1842 C1865 0.950 . S
H1843 C1867 0.950 1_545 S
H1844 C1868 0.950 . S
H1845 C1869 0.951 . S
H1846 C1871 0.972 . S
H1847 C1873 0.950 . S
H1848 C1874 0.950 . S
H1849 C1876 0.950 . S
H1850 C1879 0.950 . S
H1851 C1880 0.950 . S
H1852 C1882 0.950 1_565 S
H1853 C1883 0.950 . S
C1854 H1836 0.951 . S
C1854 C1855 1.366 . S
C1854 C1856 1.388 . S
C1855 C1854 1.366 . S
C1855 C1859 1.385 . S
C1856 H1837 0.972 . S
C1856 C1854 1.388 . S
C1856 C1857 1.366 . S
C1857 C1856 1.366 . S
C1857 C1858 1.414 . S
C1857 C1860 1.499 . S
C1858 H1838 0.950 . S
C1858 C1857 1.414 . S
C1858 C1859 1.374 . S
C1859 H1839 0.950 . S
C1859 C1855 1.385 . S
C1859 C1858 1.374 . S
C1860 C1857 1.499 . S
C1860 C1861 1.373 . S
C1860 C1862 1.389 . S
C1861 H1840 0.950 . S
C1861 C1860 1.373 . S
C1861 C1877 1.377 1_566 S
C1862 C1860 1.389 . S
C1862 C1863 1.524 . S
C1862 C1876 1.377 1_566 S
C1863 C1862 1.524 . S
C1863 C1864 1.397 . S
C1863 C1868 1.363 1_565 S
C1864 H1841 0.950 . S
C1864 C1863 1.397 . S
C1864 C1865 1.334 . S
C1865 H1842 0.950 . S
C1865 C1864 1.334 . S
C1865 C1866 1.287 . S
C1866 C1865 1.287 . S
C1866 C1867 1.524 . S
C1866 H1885 0.913 . S
C1867 H1843 0.950 1_565 S
C1867 C1866 1.524 . S
C1867 C1868 1.415 1_565 S
C1868 H1844 0.950 . S
C1868 C1863 1.363 1_545 S
C1868 C1867 1.415 1_545 S
C1869 H1845 0.951 . S
C1869 C1870 1.366 . S
C1869 C1871 1.388 . S
C1870 C1869 1.366 . S
C1870 C1874 1.385 . S
C1871 H1846 0.972 . S
C1871 C1869 1.388 . S
C1871 C1872 1.366 . S
C1872 C1871 1.366 . S
C1872 C1873 1.414 . S
C1872 C1875 1.499 . S
C1873 H1847 0.950 . S
C1873 C1872 1.414 . S
C1873 C1874 1.374 . S
C1874 H1848 0.950 . S
C1874 C1870 1.385 . S
C1874 C1873 1.374 . S
C1875 C1872 1.499 . S
C1875 C1876 1.373 . S
C1875 C1877 1.389 . S
C1876 H1849 0.950 . S
C1876 C1862 1.377 1_544 S
C1876 C1875 1.373 . S
C1877 C1861 1.377 1_544 S
C1877 C1875 1.389 . S
C1877 C1878 1.524 . S
C1878 C1877 1.524 . S
C1878 C1879 1.397 . S
C1878 C1883 1.363 1_545 S
C1879 H1850 0.950 . S
C1879 C1878 1.397 . S
C1879 C1880 1.334 . S
C1880 H1851 0.950 . S
C1880 C1879 1.334 . S
C1880 C1881 1.287 . S
C1881 C1880 1.287 . S
C1881 C1882 1.524 . S
C1881 H1884 0.999 . S
C1882 H1852 0.950 1_545 S
C1882 C1881 1.524 . S
C1882 C1883 1.415 1_545 S
C1883 H1853 0.950 . S
C1883 C1878 1.363 1_565 S
C1883 C1882 1.415 1_565 S
H1884 C1881 0.999 . S
H1885 C1866 0.913 . S
H1886 C1904 0.951 . S
H1887 C1906 0.951 . S
H1888 C1908 0.950 . S
H1889 C1909 0.950 . S
H1890 C1911 0.950 . S
H1891 C1914 0.950 . S
H1892 C1915 0.950 . S
H1893 C1917 0.950 . S
H1894 C1918 0.950 . S
H1895 C1919 0.951 . S
H1896 C1921 0.951 . S
H1897 C1923 0.950 . S
H1898 C1924 0.950 . S
H1899 C1926 0.950 . S
H1900 C1929 0.950 . S
H1901 C1930 0.950 . S
H1902 C1932 0.950 . S
H1903 C1933 0.950 . S
C1904 H1886 0.951 . S
C1904 C1905 1.366 . S
C1904 C1906 1.388 . S
C1905 C1904 1.366 . S
C1905 C1909 1.385 . S
C1906 H1887 0.951 . S
C1906 C1904 1.388 . S
C1906 C1907 1.366 . S
C1907 C1906 1.366 . S
C1907 C1908 1.414 . S
C1907 C1910 1.499 . S
C1908 H1888 0.950 . S
C1908 C1907 1.414 . S
C1908 C1909 1.374 . S
C1909 H1889 0.950 . S
C1909 C1905 1.385 . S
C1909 C1908 1.374 . S
C1910 C1907 1.499 . S
C1910 C1911 1.373 . S
C1910 C1912 1.389 . S
C1911 H1890 0.950 . S
C1911 C1910 1.373 . S
C1911 C1927 1.377 . S
C1912 C1910 1.389 . S
C1912 C1913 1.524 . S
C1912 C1926 1.377 . S
C1913 C1912 1.524 . S
C1913 C1914 1.397 . S
C1913 C1918 1.363 . S
C1914 H1891 0.950 . S
C1914 C1913 1.397 . S
C1914 C1915 1.334 . S
C1915 H1892 0.950 . S
C1915 C1914 1.334 . S
C1915 C1916 1.287 . S
C1916 C1915 1.287 . S
C1916 C1917 1.524 . S
C1916 H1935 0.913 . S
C1917 H1893 0.950 . S
C1917 C1916 1.524 . S
C1917 C1918 1.415 . S
C1918 H1894 0.950 . S
C1918 C1913 1.363 . S
C1918 C1917 1.415 . S
C1919 H1895 0.951 . S
C1919 C1920 1.366 . S
C1919 C1921 1.388 . S
C1920 C1919 1.366 . S
C1920 C1924 1.385 . S
C1921 H1896 0.951 . S
C1921 C1919 1.388 . S
C1921 C1922 1.366 . S
C1922 C1921 1.366 . S
C1922 C1923 1.414 . S
C1922 C1925 1.499 . S
C1923 H1897 0.950 . S
C1923 C1922 1.414 . S
C1923 C1924 1.374 . S
C1924 H1898 0.950 . S
C1924 C1920 1.385 . S
C1924 C1923 1.374 . S
C1925 C1922 1.499 . S
C1925 C1926 1.373 . S
C1925 C1927 1.389 . S
C1926 H1899 0.950 . S
C1926 C1912 1.377 . S
C1926 C1925 1.373 . S
C1927 C1911 1.377 . S
C1927 C1925 1.389 . S
C1927 C1928 1.524 . S
C1928 C1927 1.524 . S
C1928 C1929 1.397 . S
C1928 C1933 1.363 . S
C1929 H1900 0.950 . S
C1929 C1928 1.397 . S
C1929 C1930 1.334 . S
C1930 H1901 0.950 . S
C1930 C1929 1.334 . S
C1930 C1931 1.287 . S
C1931 C1930 1.287 . S
C1931 C1932 1.524 . S
C1931 H1934 0.999 . S
C1932 H1902 0.950 . S
C1932 C1931 1.524 . S
C1932 C1933 1.415 . S
C1933 H1903 0.950 . S
C1933 C1928 1.363 . S
C1933 C1932 1.415 . S
H1934 C1931 0.999 . S
H1935 C1916 0.913 . S
H1936 C1954 0.951 . S
H1937 C1956 0.951 . S
H1938 C1958 0.950 . S
H1939 C1959 0.950 . S
H1940 C1961 0.950 . S
H1941 C1964 0.950 . S
H1942 C1965 0.950 . S
H1943 C1967 0.950 . S
H1944 C1968 0.950 . S
H1945 C1969 0.951 . S
H1946 C1971 0.951 . S
H1947 C1973 0.950 . S
H1948 C1974 0.950 . S
H1949 C1976 0.950 . S
H1950 C1979 0.950 . S
H1951 C1980 0.950 . S
H1952 C1982 0.950 . S
H1953 C1983 0.950 . S
C1954 H1936 0.951 . S
C1954 C1955 1.366 . S
C1954 C1956 1.388 . S
C1955 C1954 1.366 . S
C1955 C1959 1.385 . S
C1956 H1937 0.951 . S
C1956 C1954 1.388 . S
C1956 C1957 1.366 . S
C1957 C1956 1.366 . S
C1957 C1958 1.414 . S
C1957 C1960 1.499 . S
C1958 H1938 0.950 . S
C1958 C1957 1.414 . S
C1958 C1959 1.374 . S
C1959 H1939 0.950 . S
C1959 C1955 1.385 . S
C1959 C1958 1.374 . S
C1960 C1957 1.499 . S
C1960 C1961 1.373 . S
C1960 C1962 1.389 1_655 S
C1961 H1940 0.950 . S
C1961 C1960 1.373 . S
C1961 C1977 1.377 1_554 S
C1962 C1960 1.389 1_455 S
C1962 C1963 1.524 . S
C1962 C1976 1.377 1_554 S
C1963 C1962 1.524 . S
C1963 C1964 1.397 . S
C1963 C1968 1.363 . S
C1964 H1941 0.950 . S
C1964 C1963 1.397 . S
C1964 C1965 1.334 . S
C1965 H1942 0.950 . S
C1965 C1964 1.334 . S
C1965 C1966 1.287 . S
C1966 C1965 1.287 . S
C1966 C1967 1.524 . S
C1966 H1985 0.913 . S
C1967 H1943 0.950 . S
C1967 C1966 1.524 . S
C1967 C1968 1.415 . S
C1968 H1944 0.950 . S
C1968 C1963 1.363 . S
C1968 C1967 1.415 . S
C1969 H1945 0.951 . S
C1969 C1970 1.366 . S
C1969 C1971 1.388 . S
C1970 C1969 1.366 . S
C1970 C1974 1.385 . S
C1971 H1946 0.951 . S
C1971 C1969 1.388 . S
C1971 C1972 1.366 . S
C1972 C1971 1.366 . S
C1972 C1973 1.414 . S
C1972 C1975 1.499 . S
C1973 H1947 0.950 . S
C1973 C1972 1.414 . S
C1973 C1974 1.374 . S
C1974 H1948 0.950 . S
C1974 C1970 1.385 . S
C1974 C1973 1.374 . S
C1975 C1972 1.499 . S
C1975 C1976 1.373 . S
C1975 C1977 1.389 1_455 S
C1976 H1949 0.950 . S
C1976 C1962 1.377 1_556 S
C1976 C1975 1.373 . S
C1977 C1961 1.377 1_556 S
C1977 C1975 1.389 1_655 S
C1977 C1978 1.524 . S
C1978 C1977 1.524 . S
C1978 C1979 1.397 . S
C1978 C1983 1.363 . S
C1979 H1950 0.950 . S
C1979 C1978 1.397 . S
C1979 C1980 1.334 . S
C1980 H1951 0.950 . S
C1980 C1979 1.334 . S
C1980 C1981 1.287 . S
C1981 C1980 1.287 . S
C1981 C1982 1.524 . S
C1981 H1984 0.999 . S
C1982 H1952 0.950 . S
C1982 C1981 1.524 . S
C1982 C1983 1.415 . S
C1983 H1953 0.950 . S
C1983 C1978 1.363 . S
C1983 C1982 1.415 . S
H1984 C1981 0.999 . S
H1985 C1966 0.913 . S
H1986 C2004 0.951 . S
H1987 C2006 0.951 1_545 S
H1988 C2008 0.950 . S
H1989 C2009 0.950 . S
H1990 C2011 0.950 . S
H1991 C2014 0.950 . S
H1992 C2015 0.950 . S
H1993 C2017 0.950 . S
H1994 C2018 0.950 . S
H1995 C2019 0.951 . S
H1996 C2021 0.951 1_565 S
H1997 C2023 0.950 . S
H1998 C2024 0.950 . S
H1999 C2026 0.950 . S
H2000 C2029 0.950 . S
H2001 C2030 0.950 . S
H2002 C2032 0.950 . S
H2003 C2033 0.950 . S
C2004 H1986 0.951 . S
C2004 C2005 1.366 . S
C2004 C2006 1.388 . S
C2005 C2004 1.366 . S
C2005 C2009 1.385 . S
C2006 H1987 0.951 1_565 S
C2006 C2004 1.388 . S
C2006 C2007 1.366 . S
C2007 C2006 1.366 . S
C2007 C2008 1.414 . S
C2007 C2010 1.499 . S
C2008 H1988 0.950 . S
C2008 C2007 1.414 . S
C2008 C2009 1.374 . S
C2009 H1989 0.950 . S
C2009 C2005 1.385 . S
C2009 C2008 1.374 . S
C2010 C2007 1.499 . S
C2010 C2011 1.373 . S
C2010 C2012 1.389 1_565 S
C2011 H1990 0.950 . S
C2011 C2010 1.373 . S
C2011 C2027 1.377 . S
C2012 C2010 1.389 1_545 S
C2012 C2013 1.524 . S
C2012 C2026 1.377 . S
C2013 C2012 1.524 . S
C2013 C2014 1.397 . S
C2013 C2018 1.363 . S
C2014 H1991 0.950 . S
C2014 C2013 1.397 . S
C2014 C2015 1.334 . S
C2015 H1992 0.950 . S
C2015 C2014 1.334 . S
C2015 C2016 1.287 . S
C2016 C2015 1.287 . S
C2016 C2017 1.524 . S
C2016 H2035 0.913 . S
C2017 H1993 0.950 . S
C2017 C2016 1.524 . S
C2017 C2018 1.415 . S
C2018 H1994 0.950 . S
C2018 C2013 1.363 . S
C2018 C2017 1.415 . S
C2019 H1995 0.951 . S
C2019 C2020 1.366 . S
C2019 C2021 1.388 . S
C2020 C2019 1.366 . S
C2020 C2024 1.385 . S
C2021 H1996 0.951 1_545 S
C2021 C2019 1.388 . S
C2021 C2022 1.366 . S
C2022 C2021 1.366 . S
C2022 C2023 1.414 . S
C2022 C2025 1.499 . S
C2023 H1997 0.950 . S
C2023 C2022 1.414 . S
C2023 C2024 1.374 . S
C2024 H1998 0.950 . S
C2024 C2020 1.385 . S
C2024 C2023 1.374 . S
C2025 C2022 1.499 . S
C2025 C2026 1.373 . S
C2025 C2027 1.389 1_545 S
C2026 H1999 0.950 . S
C2026 C2012 1.377 . S
C2026 C2025 1.373 . S
C2027 C2011 1.377 . S
C2027 C2025 1.389 1_565 S
C2027 C2028 1.524 . S
C2028 C2027 1.524 . S
C2028 C2029 1.397 . S
C2028 C2033 1.363 . S
C2029 H2000 0.950 . S
C2029 C2028 1.397 . S
C2029 C2030 1.334 . S
C2030 H2001 0.950 . S
C2030 C2029 1.334 . S
C2030 C2031 1.287 . S
C2031 C2030 1.287 . S
C2031 C2032 1.524 . S
C2031 H2034 0.999 . S
C2032 H2002 0.950 . S
C2032 C2031 1.524 . S
C2032 C2033 1.415 . S
C2033 H2003 0.950 . S
C2033 C2028 1.363 . S
C2033 C2032 1.415 . S
H2034 C2031 0.999 . S
H2035 C2016 0.913 . S
H2036 C2054 0.951 . S
H2037 C2056 0.951 . S
H2038 C2058 0.950 . S
H2039 C2059 0.950 . S
H2040 C2061 0.950 . S
H2041 C2064 0.950 . S
H2042 C2065 0.950 . S
H2043 C2067 0.950 . S
H2044 C2068 0.950 . S
H2045 C2069 0.951 . S
H2046 C2071 0.951 . S
H2047 C2073 0.950 . S
H2048 C2074 0.950 . S
H2049 C2076 0.950 . S
H2050 C2079 0.950 . S
H2051 C2080 0.950 . S
H2052 C2082 0.950 . S
H2053 C2083 0.950 . S
C2054 H2036 0.951 . S
C2054 C2055 1.366 . S
C2054 C2056 1.388 . S
C2055 C2054 1.366 . S
C2055 C2059 1.385 . S
C2056 H2037 0.951 . S
C2056 C2054 1.388 . S
C2056 C2057 1.366 . S
C2057 C2056 1.366 . S
C2057 C2058 1.414 . S
C2057 C2060 1.499 . S
C2058 H2038 0.950 . S
C2058 C2057 1.414 . S
C2058 C2059 1.374 . S
C2059 H2039 0.950 . S
C2059 C2055 1.385 . S
C2059 C2058 1.374 . S
C2060 C2057 1.499 . S
C2060 C2061 1.373 . S
C2060 C2062 1.432 . S
C2061 H2040 0.950 . S
C2061 C2060 1.373 . S
C2061 C2077 1.332 1_554 S
C2062 C2060 1.432 . S
C2062 C2063 1.524 . S
C2062 C2076 1.332 1_554 S
C2063 C2062 1.524 . S
C2063 C2064 1.396 . S
C2063 C2068 1.364 1_554 S
C2064 H2041 0.950 . S
C2064 C2063 1.396 . S
C2064 C2065 1.334 . S
C2065 H2042 0.950 . S
C2065 C2064 1.334 . S
C2065 C2066 1.287 1_554 S
C2066 C2065 1.287 1_556 S
C2066 C2067 1.524 . S
C2066 H2085 0.913 . S
C2067 H2043 0.950 . S
C2067 C2066 1.524 . S
C2067 C2068 1.415 . S
C2068 H2044 0.950 . S
C2068 C2063 1.364 1_556 S
C2068 C2067 1.415 . S
C2069 H2045 0.951 . S
C2069 C2070 1.366 . S
C2069 C2071 1.388 . S
C2070 C2069 1.366 . S
C2070 C2074 1.385 . S
C2071 H2046 0.951 . S
C2071 C2069 1.388 . S
C2071 C2072 1.366 . S
C2072 C2071 1.366 . S
C2072 C2073 1.414 . S
C2072 C2075 1.499 . S
C2073 H2047 0.950 . S
C2073 C2072 1.414 . S
C2073 C2074 1.374 . S
C2074 H2048 0.950 . S
C2074 C2070 1.385 . S
C2074 C2073 1.374 . S
C2075 C2072 1.499 . S
C2075 C2076 1.373 . S
C2075 C2077 1.432 . S
C2076 H2049 0.950 . S
C2076 C2062 1.332 1_556 S
C2076 C2075 1.373 . S
C2077 C2061 1.332 1_556 S
C2077 C2075 1.432 . S
C2077 C2078 1.524 . S
C2078 C2077 1.524 . S
C2078 C2079 1.396 . S
C2078 C2083 1.364 1_556 S
C2079 H2050 0.950 . S
C2079 C2078 1.396 . S
C2079 C2080 1.334 . S
C2080 H2051 0.950 . S
C2080 C2079 1.334 . S
C2080 C2081 1.287 1_556 S
C2081 C2080 1.287 1_554 S
C2081 C2082 1.524 . S
C2081 H2084 0.999 . S
C2082 H2052 0.950 . S
C2082 C2081 1.524 . S
C2082 C2083 1.415 . S
C2083 H2053 0.950 . S
C2083 C2078 1.364 1_554 S
C2083 C2082 1.415 . S
H2084 C2081 0.999 . S
H2085 C2066 0.913 . S
H2086 C2104 0.951 . S
H2087 C2106 0.951 . S
H2088 C2108 0.950 . S
H2089 C2109 0.950 . S
H2090 C2111 0.950 . S
H2091 C2114 0.950 . S
H2092 C2115 0.950 . S
H2093 C2117 0.950 . S
H2094 C2118 0.950 . S
H2095 C2119 0.951 . S
H2096 C2121 0.951 . S
H2097 C2123 0.950 . S
H2098 C2124 0.950 . S
H2099 C2126 0.950 . S
H2100 C2129 0.950 . S
H2101 C2130 0.950 . S
H2102 C2132 0.950 . S
H2103 C2133 0.950 . S
C2104 H2086 0.951 . S
C2104 C2105 1.366 . S
C2104 C2106 1.388 . S
C2105 C2104 1.366 . S
C2105 C2109 1.385 . S
C2106 H2087 0.951 . S
C2106 C2104 1.388 . S
C2106 C2107 1.366 . S
C2107 C2106 1.366 . S
C2107 C2108 1.414 . S
C2107 C2110 1.499 . S
C2108 H2088 0.950 . S
C2108 C2107 1.414 . S
C2108 C2109 1.374 . S
C2109 H2089 0.950 . S
C2109 C2105 1.385 . S
C2109 C2108 1.374 . S
C2110 C2107 1.499 . S
C2110 C2111 1.373 1_455 S
C2110 C2112 1.389 . S
C2111 H2090 0.950 . S
C2111 C2110 1.373 1_655 S
C2111 C2127 1.377 . S
C2112 C2110 1.389 . S
C2112 C2113 1.524 . S
C2112 C2126 1.377 . S
C2113 C2112 1.524 . S
C2113 C2114 1.397 . S
C2113 C2118 1.363 . S
C2114 H2091 0.950 . S
C2114 C2113 1.397 . S
C2114 C2115 1.334 . S
C2115 H2092 0.950 . S
C2115 C2114 1.334 . S
C2115 C2116 1.287 . S
C2116 C2115 1.287 . S
C2116 C2117 1.524 . S
C2116 H2135 0.913 . S
C2117 H2093 0.950 . S
C2117 C2116 1.524 . S
C2117 C2118 1.415 . S
C2118 H2094 0.950 . S
C2118 C2113 1.363 . S
C2118 C2117 1.415 . S
C2119 H2095 0.951 . S
C2119 C2120 1.366 . S
C2119 C2121 1.388 . S
C2120 C2119 1.366 . S
C2120 C2124 1.385 . S
C2121 H2096 0.951 . S
C2121 C2119 1.388 . S
C2121 C2122 1.366 . S
C2122 C2121 1.366 . S
C2122 C2123 1.414 . S
C2122 C2125 1.499 . S
C2123 H2097 0.950 . S
C2123 C2122 1.414 . S
C2123 C2124 1.374 . S
C2124 H2098 0.950 . S
C2124 C2120 1.385 . S
C2124 C2123 1.374 . S
C2125 C2122 1.499 . S
C2125 C2126 1.373 1_655 S
C2125 C2127 1.389 . S
C2126 H2099 0.950 . S
C2126 C2112 1.377 . S
C2126 C2125 1.373 1_455 S
C2127 C2111 1.377 . S
C2127 C2125 1.389 . S
C2127 C2128 1.524 . S
C2128 C2127 1.524 . S
C2128 C2129 1.397 . S
C2128 C2133 1.363 . S
C2129 H2100 0.950 . S
C2129 C2128 1.397 . S
C2129 C2130 1.334 . S
C2130 H2101 0.950 . S
C2130 C2129 1.334 . S
C2130 C2131 1.287 . S
C2131 C2130 1.287 . S
C2131 C2132 1.524 . S
C2131 H2134 0.999 . S
C2132 H2102 0.950 . S
C2132 C2131 1.524 . S
C2132 C2133 1.415 . S
C2133 H2103 0.950 . S
C2133 C2128 1.363 . S
C2133 C2132 1.415 . S
H2134 C2131 0.999 . S
H2135 C2116 0.913 . S
H2136 C2154 0.951 . S
H2137 C2156 0.951 . S
H2138 C2158 0.950 . S
H2139 C2159 0.950 . S
H2140 C2161 0.950 . S
H2141 C2164 0.950 . S
H2142 C2165 0.950 . S
H2143 C2167 0.950 . S
H2144 C2168 0.950 . S
H2145 C2169 0.951 . S
H2146 C2171 0.951 . S
H2147 C2173 0.950 . S
H2148 C2174 0.950 . S
H2149 C2176 0.950 . S
H2150 C2179 0.950 . S
H2151 C2180 0.950 . S
H2152 C2182 0.950 . S
H2153 C2183 0.950 . S
C2154 H2136 0.951 . S
C2154 C2155 1.366 . S
C2154 C2156 1.388 . S
C2155 C2154 1.366 . S
C2155 C2159 1.385 . S
C2156 H2137 0.951 . S
C2156 C2154 1.388 . S
C2156 C2157 1.366 . S
C2157 C2156 1.366 . S
C2157 C2158 1.414 . S
C2157 C2160 1.499 . S
C2158 H2138 0.950 . S
C2158 C2157 1.414 . S
C2158 C2159 1.374 . S
C2159 H2139 0.950 . S
C2159 C2155 1.385 . S
C2159 C2158 1.374 . S
C2160 C2157 1.499 . S
C2160 C2161 1.373 . S
C2160 C2162 1.389 . S
C2161 H2140 0.950 . S
C2161 C2160 1.373 . S
C2161 C2177 1.377 . S
C2162 C2160 1.389 . S
C2162 C2163 1.524 . S
C2162 C2176 1.377 . S
C2163 C2162 1.524 . S
C2163 C2164 1.397 . S
C2163 C2168 1.363 . S
C2164 H2141 0.950 . S
C2164 C2163 1.397 . S
C2164 C2165 1.334 . S
C2165 H2142 0.950 . S
C2165 C2164 1.334 . S
C2165 C2166 1.287 . S
C2166 C2165 1.287 . S
C2166 C2167 1.524 . S
C2166 H2185 0.913 . S
C2167 H2143 0.950 . S
C2167 C2166 1.524 . S
C2167 C2168 1.415 . S
C2168 H2144 0.950 . S
C2168 C2163 1.363 . S
C2168 C2167 1.415 . S
C2169 H2145 0.951 . S
C2169 C2170 1.366 . S
C2169 C2171 1.388 . S
C2170 C2169 1.366 . S
C2170 C2174 1.385 . S
C2171 H2146 0.951 . S
C2171 C2169 1.388 . S
C2171 C2172 1.366 . S
C2172 C2171 1.366 . S
C2172 C2173 1.414 . S
C2172 C2175 1.499 . S
C2173 H2147 0.950 . S
C2173 C2172 1.414 . S
C2173 C2174 1.374 . S
C2174 H2148 0.950 . S
C2174 C2170 1.385 . S
C2174 C2173 1.374 . S
C2175 C2172 1.499 . S
C2175 C2176 1.373 . S
C2175 C2177 1.389 . S
C2176 H2149 0.950 . S
C2176 C2162 1.377 . S
C2176 C2175 1.373 . S
C2177 C2161 1.377 . S
C2177 C2175 1.389 . S
C2177 C2178 1.524 . S
C2178 C2177 1.524 . S
C2178 C2179 1.397 . S
C2178 C2183 1.363 . S
C2179 H2150 0.950 . S
C2179 C2178 1.397 . S
C2179 C2180 1.334 . S
C2180 H2151 0.950 . S
C2180 C2179 1.334 . S
C2180 C2181 1.287 1_545 S
C2181 C2180 1.287 1_565 S
C2181 C2182 1.524 . S
C2181 H2184 0.999 . S
C2182 H2152 0.950 . S
C2182 C2181 1.524 . S
C2182 C2183 1.415 1_565 S
C2183 H2153 0.950 . S
C2183 C2178 1.363 . S
C2183 C2182 1.415 1_545 S
H2184 C2181 0.999 . S
H2185 C2166 0.913 . S
H2186 C2204 0.951 . S
H2187 C2206 0.951 . S
H2188 C2208 0.950 . S
H2189 C2209 0.950 . S
H2190 C2211 0.950 . S
H2191 C2214 0.950 . S
H2192 C2215 0.950 . S
H2193 C2217 0.950 . S
H2194 C2218 0.950 . S
H2195 C2219 0.951 . S
H2196 C2221 0.951 . S
H2197 C2223 0.950 . S
H2198 C2224 0.950 . S
H2199 C2226 0.950 . S
H2200 C2229 0.950 . S
H2201 C2230 0.950 . S
H2202 C2232 0.950 . S
H2203 C2233 0.950 . S
C2204 H2186 0.951 . S
C2204 C2205 1.366 . S
C2204 C2206 1.388 . S
C2205 C2204 1.366 . S
C2205 C2209 1.385 . S
C2206 H2187 0.951 . S
C2206 C2204 1.388 . S
C2206 C2207 1.366 . S
C2207 C2206 1.366 . S
C2207 C2208 1.414 . S
C2207 C2210 1.499 . S
C2208 H2188 0.950 . S
C2208 C2207 1.414 . S
C2208 C2209 1.374 . S
C2209 H2189 0.950 . S
C2209 C2205 1.385 . S
C2209 C2208 1.374 . S
C2210 C2207 1.499 . S
C2210 C2211 1.373 . S
C2210 C2212 1.389 . S
C2211 H2190 0.950 . S
C2211 C2210 1.373 . S
C2211 C2227 1.377 . S
C2212 C2210 1.389 . S
C2212 C2213 1.524 . S
C2212 C2226 1.377 . S
C2213 C2212 1.524 . S
C2213 C2214 1.397 . S
C2213 C2218 1.363 . S
C2214 H2191 0.950 . S
C2214 C2213 1.397 . S
C2214 C2215 1.334 . S
C2215 H2192 0.950 . S
C2215 C2214 1.334 . S
C2215 C2216 1.287 . S
C2216 C2215 1.287 . S
C2216 C2217 1.524 . S
C2216 H2235 0.913 . S
C2217 H2193 0.950 . S
C2217 C2216 1.524 . S
C2217 C2218 1.415 . S
C2218 H2194 0.950 . S
C2218 C2213 1.363 . S
C2218 C2217 1.415 . S
C2219 H2195 0.951 . S
C2219 C2220 1.366 . S
C2219 C2221 1.388 . S
C2220 C2219 1.366 . S
C2220 C2224 1.385 . S
C2221 H2196 0.951 . S
C2221 C2219 1.388 . S
C2221 C2222 1.366 . S
C2222 C2221 1.366 . S
C2222 C2223 1.414 . S
C2222 C2225 1.499 . S
C2223 H2197 0.950 . S
C2223 C2222 1.414 . S
C2223 C2224 1.374 . S
C2224 H2198 0.950 . S
C2224 C2220 1.385 . S
C2224 C2223 1.374 . S
C2225 C2222 1.499 . S
C2225 C2226 1.373 . S
C2225 C2227 1.389 . S
C2226 H2199 0.950 . S
C2226 C2212 1.377 . S
C2226 C2225 1.373 . S
C2227 C2211 1.377 . S
C2227 C2225 1.389 . S
C2227 C2228 1.524 . S
C2228 C2227 1.524 . S
C2228 C2229 1.397 . S
C2228 C2233 1.363 . S
C2229 H2200 0.950 . S
C2229 C2228 1.397 . S
C2229 C2230 1.334 . S
C2230 H2201 0.950 . S
C2230 C2229 1.334 . S
C2230 C2231 1.287 . S
C2231 C2230 1.287 . S
C2231 C2232 1.524 . S
C2231 H2234 0.999 . S
C2232 H2202 0.950 . S
C2232 C2231 1.524 . S
C2232 C2233 1.415 . S
C2233 H2203 0.950 . S
C2233 C2228 1.363 . S
C2233 C2232 1.415 . S
H2234 C2231 0.999 . S
H2235 C2216 0.913 . S
H2236 C2254 0.951 . S
H2237 C2256 0.951 . S
H2238 C2258 0.950 . S
H2239 C2259 0.950 . S
H2240 C2261 0.950 . S
H2241 C2264 0.950 . S
H2242 C2265 0.950 . S
H2243 C2267 0.950 . S
H2244 C2268 0.950 . S
H2245 C2269 0.951 . S
H2246 C2271 0.951 . S
H2247 C2273 0.950 . S
H2248 C2274 0.950 . S
H2249 C2276 0.950 . S
H2250 C2279 0.950 . S
H2251 C2280 0.950 . S
H2252 C2282 0.950 1_455 S
H2253 C2283 0.950 . S
C2254 H2236 0.951 . S
C2254 C2255 1.366 . S
C2254 C2256 1.388 . S
C2255 C2254 1.366 . S
C2255 C2259 1.385 . S
C2256 H2237 0.951 . S
C2256 C2254 1.388 . S
C2256 C2257 1.366 . S
C2257 C2256 1.366 . S
C2257 C2258 1.414 . S
C2257 C2260 1.499 . S
C2258 H2238 0.950 . S
C2258 C2257 1.414 . S
C2258 C2259 1.374 . S
C2259 H2239 0.950 . S
C2259 C2255 1.385 . S
C2259 C2258 1.374 . S
C2260 C2257 1.499 . S
C2260 C2261 1.373 . S
C2260 C2262 1.389 . S
C2261 H2240 0.950 . S
C2261 C2260 1.373 . S
C2261 C2277 1.377 . S
C2262 C2260 1.389 . S
C2262 C2263 1.524 . S
C2262 C2276 1.377 . S
C2263 C2262 1.524 . S
C2263 C2264 1.397 . S
C2263 C2268 1.363 . S
C2264 H2241 0.950 . S
C2264 C2263 1.397 . S
C2264 C2265 1.334 . S
C2265 H2242 0.950 . S
C2265 C2264 1.334 . S
C2265 C2266 1.287 . S
C2266 C2265 1.287 . S
C2266 C2267 1.524 . S
C2266 H2285 0.913 . S
C2267 H2243 0.950 . S
C2267 C2266 1.524 . S
C2267 C2268 1.415 . S
C2268 H2244 0.950 . S
C2268 C2263 1.363 . S
C2268 C2267 1.415 . S
C2269 H2245 0.951 . S
C2269 C2270 1.366 . S
C2269 C2271 1.388 . S
C2270 C2269 1.366 . S
C2270 C2274 1.385 . S
C2271 H2246 0.951 . S
C2271 C2269 1.388 . S
C2271 C2272 1.366 . S
C2272 C2271 1.366 . S
C2272 C2273 1.414 . S
C2272 C2275 1.499 . S
C2273 H2247 0.950 . S
C2273 C2272 1.414 . S
C2273 C2274 1.374 . S
C2274 H2248 0.950 . S
C2274 C2270 1.385 . S
C2274 C2273 1.374 . S
C2275 C2272 1.499 . S
C2275 C2276 1.373 . S
C2275 C2277 1.389 . S
C2276 H2249 0.950 . S
C2276 C2262 1.377 . S
C2276 C2275 1.373 . S
C2277 C2261 1.377 . S
C2277 C2275 1.389 . S
C2277 C2278 1.524 . S
C2278 C2277 1.524 . S
C2278 C2279 1.397 . S
C2278 C2283 1.363 . S
C2279 H2250 0.950 . S
C2279 C2278 1.397 . S
C2279 C2280 1.334 . S
C2280 H2251 0.950 . S
C2280 C2279 1.334 . S
C2280 C2281 1.287 1_655 S
C2281 C2280 1.287 1_455 S
C2281 C2282 1.524 1_455 S
C2281 H2284 0.999 . S
C2282 H2252 0.950 1_655 S
C2282 C2281 1.524 1_655 S
C2282 C2283 1.415 . S
C2283 H2253 0.950 . S
C2283 C2278 1.363 . S
C2283 C2282 1.415 . S
H2284 C2281 0.999 . S
H2285 C2266 0.913 . S
H2286 C2304 0.951 . S
H2287 C2306 0.951 . S
H2288 C2308 0.950 . S
H2289 C2309 0.950 . S
H2290 C2311 0.950 . S
H2291 C2314 0.950 . S
H2292 C2315 0.950 . S
H2293 C2317 0.950 1_545 S
H2294 C2318 0.950 . S
H2295 C2319 0.951 . S
H2296 C2321 0.951 . S
H2297 C2323 0.950 . S
H2298 C2324 0.950 . S
H2299 C2326 0.950 . S
H2300 C2329 0.950 . S
H2301 C2330 0.950 . S
H2302 C2332 0.950 . S
H2303 C2333 0.950 . S
C2304 H2286 0.951 . S
C2304 C2305 1.366 . S
C2304 C2306 1.388 . S
C2305 C2304 1.366 . S
C2305 C2309 1.385 . S
C2306 H2287 0.951 . S
C2306 C2304 1.388 . S
C2306 C2307 1.366 . S
C2307 C2306 1.366 . S
C2307 C2308 1.414 . S
C2307 C2310 1.499 . S
C2308 H2288 0.950 . S
C2308 C2307 1.414 . S
C2308 C2309 1.374 . S
C2309 H2289 0.950 . S
C2309 C2305 1.385 . S
C2309 C2308 1.374 . S
C2310 C2307 1.499 . S
C2310 C2311 1.373 . S
C2310 C2312 1.389 . S
C2311 H2290 0.950 . S
C2311 C2310 1.373 . S
C2311 C2327 1.377 . S
C2312 C2310 1.389 . S
C2312 C2313 1.524 . S
C2312 C2326 1.377 . S
C2313 C2312 1.524 . S
C2313 C2314 1.397 . S
C2313 C2318 1.363 . S
C2314 H2291 0.950 . S
C2314 C2313 1.397 . S
C2314 C2315 1.334 . S
C2315 H2292 0.950 . S
C2315 C2314 1.334 . S
C2315 C2316 1.287 . S
C2316 C2315 1.287 . S
C2316 C2317 1.524 . S
C2316 H2335 0.913 . S
C2317 H2293 0.950 1_565 S
C2317 C2316 1.524 . S
C2317 C2318 1.415 . S
C2318 H2294 0.950 . S
C2318 C2313 1.363 . S
C2318 C2317 1.415 . S
C2319 H2295 0.951 . S
C2319 C2320 1.366 . S
C2319 C2321 1.388 . S
C2320 C2319 1.366 . S
C2320 C2324 1.385 . S
C2321 H2296 0.951 . S
C2321 C2319 1.388 . S
C2321 C2322 1.366 . S
C2322 C2321 1.366 . S
C2322 C2323 1.414 . S
C2322 C2325 1.499 . S
C2323 H2297 0.950 . S
C2323 C2322 1.414 . S
C2323 C2324 1.374 . S
C2324 H2298 0.950 . S
C2324 C2320 1.385 . S
C2324 C2323 1.374 . S
C2325 C2322 1.499 . S
C2325 C2326 1.373 . S
C2325 C2327 1.389 . S
C2326 H2299 0.950 . S
C2326 C2312 1.377 . S
C2326 C2325 1.373 . S
C2327 C2311 1.377 . S
C2327 C2325 1.389 . S
C2327 C2328 1.524 . S
C2328 C2327 1.524 . S
C2328 C2329 1.397 . S
C2328 C2333 1.363 . S
C2329 H2300 0.950 . S
C2329 C2328 1.397 . S
C2329 C2330 1.334 . S
C2330 H2301 0.950 . S
C2330 C2329 1.334 . S
C2330 C2331 1.287 . S
C2331 C2330 1.287 . S
C2331 C2332 1.524 . S
C2331 H2334 0.999 . S
C2332 H2302 0.950 . S
C2332 C2331 1.524 . S
C2332 C2333 1.415 . S
C2333 H2303 0.950 . S
C2333 C2328 1.363 . S
C2333 C2332 1.415 . S
H2334 C2331 0.999 . S
H2335 C2316 0.913 . S
H2336 C2354 0.951 . S
H2337 C2356 0.951 . S
H2338 C2358 0.950 . S
H2339 C2359 0.950 . S
H2340 C2361 0.950 . S
H2341 C2364 0.950 . S
H2342 C2365 0.950 . S
H2343 C2367 0.950 . S
H2344 C2368 0.950 . S
H2345 C2369 0.951 . S
H2346 C2371 0.951 . S
H2347 C2373 0.950 . S
H2348 C2374 0.950 . S
H2349 C2376 0.950 . S
H2350 C2379 0.950 . S
H2351 C2380 0.950 . S
H2352 C2382 0.950 . S
H2353 C2383 0.950 . S
C2354 H2336 0.951 . S
C2354 C2355 1.366 . S
C2354 C2356 1.388 . S
C2355 C2354 1.366 . S
C2355 C2359 1.385 . S
C2356 H2337 0.951 . S
C2356 C2354 1.388 . S
C2356 C2357 1.366 . S
C2357 C2356 1.366 . S
C2357 C2358 1.414 . S
C2357 C2360 1.499 . S
C2358 H2338 0.950 . S
C2358 C2357 1.414 . S
C2358 C2359 1.374 . S
C2359 H2339 0.950 . S
C2359 C2355 1.385 . S
C2359 C2358 1.374 . S
C2360 C2357 1.499 . S
C2360 C2361 1.373 . S
C2360 C2362 1.389 . S
C2361 H2340 0.950 . S
C2361 C2360 1.373 . S
C2361 C2377 1.377 . S
C2362 C2360 1.389 . S
C2362 C2363 1.524 . S
C2362 C2376 1.377 . S
C2363 C2362 1.524 . S
C2363 C2364 1.397 . S
C2363 C2368 1.363 . S
C2364 H2341 0.950 . S
C2364 C2363 1.397 . S
C2364 C2365 1.334 . S
C2365 H2342 0.950 . S
C2365 C2364 1.334 . S
C2365 C2366 1.287 . S
C2366 C2365 1.287 . S
C2366 C2367 1.524 . S
C2366 H2385 0.913 . S
C2367 H2343 0.950 . S
C2367 C2366 1.524 . S
C2367 C2368 1.415 . S
C2368 H2344 0.950 . S
C2368 C2363 1.363 . S
C2368 C2367 1.415 . S
C2369 H2345 0.951 . S
C2369 C2370 1.366 . S
C2369 C2371 1.388 . S
C2370 C2369 1.366 . S
C2370 C2374 1.385 . S
C2371 H2346 0.951 . S
C2371 C2369 1.388 . S
C2371 C2372 1.366 . S
C2372 C2371 1.366 . S
C2372 C2373 1.414 . S
C2372 C2375 1.499 . S
C2373 H2347 0.950 . S
C2373 C2372 1.414 . S
C2373 C2374 1.374 . S
C2374 H2348 0.950 . S
C2374 C2370 1.385 . S
C2374 C2373 1.374 . S
C2375 C2372 1.499 . S
C2375 C2376 1.373 . S
C2375 C2377 1.389 . S
C2376 H2349 0.950 . S
C2376 C2362 1.377 . S
C2376 C2375 1.373 . S
C2377 C2361 1.377 . S
C2377 C2375 1.389 . S
C2377 C2378 1.524 . S
C2378 C2377 1.524 . S
C2378 C2379 1.397 . S
C2378 C2383 1.363 . S
C2379 H2350 0.950 . S
C2379 C2378 1.397 . S
C2379 C2380 1.334 . S
C2380 H2351 0.950 . S
C2380 C2379 1.334 . S
C2380 C2381 1.287 . S
C2381 C2380 1.287 . S
C2381 C2382 1.524 . S
C2381 H2384 0.999 . S
C2382 H2352 0.950 . S
C2382 C2381 1.524 . S
C2382 C2383 1.415 . S
C2383 H2353 0.950 . S
C2383 C2378 1.363 . S
C2383 C2382 1.415 . S
H2384 C2381 0.999 . S
H2385 C2366 0.913 . S
H2386 C2404 0.951 . S
H2387 C2406 0.951 . S
H2388 C2408 0.950 . S
H2389 C2409 0.950 . S
H2390 C2411 0.950 . S
H2391 C2414 0.950 . S
H2392 C2415 0.950 . S
H2393 C2417 0.950 . S
H2394 C2418 0.950 . S
H2395 C2419 0.951 . S
H2396 C2421 0.951 . S
H2397 C2423 0.950 . S
H2398 C2424 0.950 . S
H2399 C2426 0.950 . S
H2400 C2429 0.950 . S
H2401 C2430 0.950 . S
H2402 C2432 0.950 1_655 S
H2403 C2433 0.950 . S
C2404 H2386 0.951 . S
C2404 C2405 1.366 . S
C2404 C2406 1.388 . S
C2405 C2404 1.366 . S
C2405 C2409 1.385 . S
C2406 H2387 0.951 . S
C2406 C2404 1.388 . S
C2406 C2407 1.366 . S
C2407 C2406 1.366 . S
C2407 C2408 1.414 . S
C2407 C2410 1.499 . S
C2408 H2388 0.950 . S
C2408 C2407 1.414 . S
C2408 C2409 1.374 . S
C2409 H2389 0.950 . S
C2409 C2405 1.385 . S
C2409 C2408 1.374 . S
C2410 C2407 1.499 . S
C2410 C2411 1.373 . S
C2410 C2412 1.389 . S
C2411 H2390 0.950 . S
C2411 C2410 1.373 . S
C2411 C2427 1.377 . S
C2412 C2410 1.389 . S
C2412 C2413 1.524 . S
C2412 C2426 1.377 . S
C2413 C2412 1.524 . S
C2413 C2414 1.397 . S
C2413 C2418 1.363 . S
C2414 H2391 0.950 . S
C2414 C2413 1.397 . S
C2414 C2415 1.334 . S
C2415 H2392 0.950 . S
C2415 C2414 1.334 . S
C2415 C2416 1.287 . S
C2416 C2415 1.287 . S
C2416 C2417 1.524 . S
C2416 H2435 0.913 . S
C2417 H2393 0.950 . S
C2417 C2416 1.524 . S
C2417 C2418 1.415 . S
C2418 H2394 0.950 . S
C2418 C2413 1.363 . S
C2418 C2417 1.415 . S
C2419 H2395 0.951 . S
C2419 C2420 1.366 . S
C2419 C2421 1.388 . S
C2420 C2419 1.366 . S
C2420 C2424 1.385 . S
C2421 H2396 0.951 . S
C2421 C2419 1.388 . S
C2421 C2422 1.366 . S
C2422 C2421 1.366 . S
C2422 C2423 1.414 . S
C2422 C2425 1.499 . S
C2423 H2397 0.950 . S
C2423 C2422 1.414 . S
C2423 C2424 1.374 . S
C2424 H2398 0.950 . S
C2424 C2420 1.385 . S
C2424 C2423 1.374 . S
C2425 C2422 1.499 . S
C2425 C2426 1.373 . S
C2425 C2427 1.389 . S
C2426 H2399 0.950 . S
C2426 C2412 1.377 . S
C2426 C2425 1.373 . S
C2427 C2411 1.377 . S
C2427 C2425 1.389 . S
C2427 C2428 1.524 . S
C2428 C2427 1.524 . S
C2428 C2429 1.397 . S
C2428 C2433 1.363 . S
C2429 H2400 0.950 . S
C2429 C2428 1.397 . S
C2429 C2430 1.334 . S
C2430 H2401 0.950 . S
C2430 C2429 1.334 . S
C2430 C2431 1.287 . S
C2431 C2430 1.287 . S
C2431 C2432 1.524 . S
C2431 H2434 0.999 . S
C2432 H2402 0.950 1_455 S
C2432 C2431 1.524 . S
C2432 C2433 1.415 . S
C2433 H2403 0.950 . S
C2433 C2428 1.363 . S
C2433 C2432 1.415 . S
H2434 C2431 0.999 . S
H2435 C2416 0.913 . S
H2436 C2454 0.951 . S
H2437 C2456 0.951 . S
H2438 C2458 0.950 . S
H2439 C2459 0.950 . S
H2440 C2461 0.950 . S
H2441 C2464 0.950 . S
H2442 C2465 0.950 . S
H2443 C2467 0.950 1_455 S
H2444 C2468 0.950 . S
H2445 C2469 0.951 . S
H2446 C2471 0.951 . S
H2447 C2473 0.950 . S
H2448 C2474 0.950 . S
H2449 C2476 0.950 . S
H2450 C2479 0.950 . S
H2451 C2480 0.950 . S
H2452 C2482 0.950 . S
H2453 C2483 0.950 . S
C2454 H2436 0.951 . S
C2454 C2455 1.366 . S
C2454 C2456 1.388 . S
C2455 C2454 1.366 . S
C2455 C2459 1.385 . S
C2456 H2437 0.951 . S
C2456 C2454 1.388 . S
C2456 C2457 1.366 . S
C2457 C2456 1.366 . S
C2457 C2458 1.414 . S
C2457 C2460 1.499 . S
C2458 H2438 0.950 . S
C2458 C2457 1.414 . S
C2458 C2459 1.374 . S
C2459 H2439 0.950 . S
C2459 C2455 1.385 . S
C2459 C2458 1.374 . S
C2460 C2457 1.499 . S
C2460 C2461 1.373 . S
C2460 C2462 1.389 . S
C2461 H2440 0.950 . S
C2461 C2460 1.373 . S
C2461 C2477 1.377 . S
C2462 C2460 1.389 . S
C2462 C2463 1.524 . S
C2462 C2476 1.377 . S
C2463 C2462 1.524 . S
C2463 C2464 1.397 . S
C2463 C2468 1.363 . S
C2464 H2441 0.950 . S
C2464 C2463 1.397 . S
C2464 C2465 1.334 . S
C2465 H2442 0.950 . S
C2465 C2464 1.334 . S
C2465 C2466 1.287 . S
C2466 C2465 1.287 . S
C2466 C2467 1.524 . S
C2466 H2485 0.913 . S
C2467 H2443 0.950 1_655 S
C2467 C2466 1.524 . S
C2467 C2468 1.415 . S
C2468 H2444 0.950 . S
C2468 C2463 1.363 . S
C2468 C2467 1.415 . S
C2469 H2445 0.951 . S
C2469 C2470 1.366 . S
C2469 C2471 1.388 . S
C2470 C2469 1.366 . S
C2470 C2474 1.385 . S
C2471 H2446 0.951 . S
C2471 C2469 1.388 . S
C2471 C2472 1.366 . S
C2472 C2471 1.366 . S
C2472 C2473 1.414 . S
C2472 C2475 1.499 . S
C2473 H2447 0.950 . S
C2473 C2472 1.414 . S
C2473 C2474 1.374 . S
C2474 H2448 0.950 . S
C2474 C2470 1.385 . S
C2474 C2473 1.374 . S
C2475 C2472 1.499 . S
C2475 C2476 1.373 . S
C2475 C2477 1.389 . S
C2476 H2449 0.950 . S
C2476 C2462 1.377 . S
C2476 C2475 1.373 . S
C2477 C2461 1.377 . S
C2477 C2475 1.389 . S
C2477 C2478 1.524 . S
C2478 C2477 1.524 . S
C2478 C2479 1.397 . S
C2478 C2483 1.363 . S
C2479 H2450 0.950 . S
C2479 C2478 1.397 . S
C2479 C2480 1.334 . S
C2480 H2451 0.950 . S
C2480 C2479 1.334 . S
C2480 C2481 1.287 . S
C2481 C2480 1.287 . S
C2481 C2482 1.524 . S
C2481 H2484 0.999 . S
C2482 H2452 0.950 . S
C2482 C2481 1.524 . S
C2482 C2483 1.415 . S
C2483 H2453 0.950 . S
C2483 C2478 1.363 . S
C2483 C2482 1.415 . S
H2484 C2481 0.999 . S
H2485 C2466 0.913 . S
H2486 C2504 0.951 . S
H2487 C2506 0.951 . S
H2488 C2508 0.950 . S
H2489 C2509 0.950 . S
H2490 C2511 0.950 . S
H2491 C2514 0.950 . S
H2492 C2515 0.950 . S
H2493 C2517 0.950 1_545 S
H2494 C2518 0.950 . S
H2495 C2519 0.951 . S
H2496 C2521 0.951 . S
H2497 C2523 0.950 . S
H2498 C2524 0.950 . S
H2499 C2526 0.950 . S
H2500 C2529 0.950 . S
H2501 C2530 0.950 . S
H2502 C2532 0.950 . S
H2503 C2533 0.950 . S
C2504 H2486 0.951 . S
C2504 C2505 1.366 . S
C2504 C2506 1.388 . S
C2505 C2504 1.366 . S
C2505 C2509 1.385 . S
C2506 H2487 0.951 . S
C2506 C2504 1.388 . S
C2506 C2507 1.366 . S
C2507 C2506 1.366 . S
C2507 C2508 1.414 . S
C2507 C2510 1.499 . S
C2508 H2488 0.950 . S
C2508 C2507 1.414 . S
C2508 C2509 1.374 . S
C2509 H2489 0.950 . S
C2509 C2505 1.385 . S
C2509 C2508 1.374 . S
C2510 C2507 1.499 . S
C2510 C2511 1.373 . S
C2510 C2512 1.389 . S
C2511 H2490 0.950 . S
C2511 C2510 1.373 . S
C2511 C2527 1.377 . S
C2512 C2510 1.389 . S
C2512 C2513 1.524 . S
C2512 C2526 1.377 . S
C2513 C2512 1.524 . S
C2513 C2514 1.397 . S
C2513 C2518 1.363 . S
C2514 H2491 0.950 . S
C2514 C2513 1.397 . S
C2514 C2515 1.334 . S
C2515 H2492 0.950 . S
C2515 C2514 1.334 . S
C2515 C2516 1.287 . S
C2516 C2515 1.287 . S
C2516 C2517 1.524 . S
C2516 H2535 0.913 . S
C2517 H2493 0.950 1_565 S
C2517 C2516 1.524 . S
C2517 C2518 1.415 . S
C2518 H2494 0.950 . S
C2518 C2513 1.363 . S
C2518 C2517 1.415 . S
C2519 H2495 0.951 . S
C2519 C2520 1.366 . S
C2519 C2521 1.388 . S
C2520 C2519 1.366 . S
C2520 C2524 1.385 . S
C2521 H2496 0.951 . S
C2521 C2519 1.388 . S
C2521 C2522 1.366 . S
C2522 C2521 1.366 . S
C2522 C2523 1.414 . S
C2522 C2525 1.499 . S
C2523 H2497 0.950 . S
C2523 C2522 1.414 . S
C2523 C2524 1.374 . S
C2524 H2498 0.950 . S
C2524 C2520 1.385 . S
C2524 C2523 1.374 . S
C2525 C2522 1.499 . S
C2525 C2526 1.373 . S
C2525 C2527 1.389 . S
C2526 H2499 0.950 . S
C2526 C2512 1.377 . S
C2526 C2525 1.373 . S
C2527 C2511 1.377 . S
C2527 C2525 1.389 . S
C2527 C2528 1.524 . S
C2528 C2527 1.524 . S
C2528 C2529 1.397 . S
C2528 C2533 1.363 . S
C2529 H2500 0.950 . S
C2529 C2528 1.397 . S
C2529 C2530 1.334 . S
C2530 H2501 0.950 . S
C2530 C2529 1.334 . S
C2530 C2531 1.287 . S
C2531 C2530 1.287 . S
C2531 C2532 1.524 . S
C2531 H2534 0.999 . S
C2532 H2502 0.950 . S
C2532 C2531 1.524 . S
C2532 C2533 1.415 . S
C2533 H2503 0.950 . S
C2533 C2528 1.363 . S
C2533 C2532 1.415 . S
H2534 C2531 0.999 . S
H2535 C2516 0.913 . S
H2536 C2554 0.951 . S
H2537 C2556 0.951 . S
H2538 C2558 0.950 . S
H2539 C2559 0.950 . S
H2540 C2561 0.950 . S
H2541 C2564 0.950 . S
H2542 C2565 0.950 . S
H2543 C2567 0.950 . S
H2544 C2568 0.950 . S
H2545 C2569 0.951 . S
H2546 C2571 0.951 . S
H2547 C2573 0.950 . S
H2548 C2574 0.950 . S
H2549 C2576 0.950 . S
H2550 C2579 0.950 . S
H2551 C2580 0.950 . S
H2552 C2582 0.950 . S
H2553 C2583 0.950 . S
C2554 H2536 0.951 . S
C2554 C2555 1.366 . S
C2554 C2556 1.388 . S
C2555 C2554 1.366 . S
C2555 C2559 1.385 . S
C2556 H2537 0.951 . S
C2556 C2554 1.388 . S
C2556 C2557 1.366 . S
C2557 C2556 1.366 . S
C2557 C2558 1.414 . S
C2557 C2560 1.499 . S
C2558 H2538 0.950 . S
C2558 C2557 1.414 . S
C2558 C2559 1.374 . S
C2559 H2539 0.950 . S
C2559 C2555 1.385 . S
C2559 C2558 1.374 . S
C2560 C2557 1.499 . S
C2560 C2561 1.373 . S
C2560 C2562 1.389 . S
C2561 H2540 0.950 . S
C2561 C2560 1.373 . S
C2561 C2577 1.377 . S
C2562 C2560 1.389 . S
C2562 C2563 1.524 . S
C2562 C2576 1.377 . S
C2563 C2562 1.524 . S
C2563 C2564 1.397 . S
C2563 C2568 1.363 . S
C2564 H2541 0.950 . S
C2564 C2563 1.397 . S
C2564 C2565 1.334 . S
C2565 H2542 0.950 . S
C2565 C2564 1.334 . S
C2565 C2566 1.287 . S
C2566 C2565 1.287 . S
C2566 C2567 1.524 . S
C2566 H2585 0.913 . S
C2567 H2543 0.950 . S
C2567 C2566 1.524 . S
C2567 C2568 1.415 . S
C2568 H2544 0.950 . S
C2568 C2563 1.363 . S
C2568 C2567 1.415 . S
C2569 H2545 0.951 . S
C2569 C2570 1.366 . S
C2569 C2571 1.388 . S
C2570 C2569 1.366 . S
C2570 C2574 1.385 . S
C2571 H2546 0.951 . S
C2571 C2569 1.388 . S
C2571 C2572 1.366 . S
C2572 C2571 1.366 . S
C2572 C2573 1.414 . S
C2572 C2575 1.499 . S
C2573 H2547 0.950 . S
C2573 C2572 1.414 . S
C2573 C2574 1.374 . S
C2574 H2548 0.950 . S
C2574 C2570 1.385 . S
C2574 C2573 1.374 . S
C2575 C2572 1.499 . S
C2575 C2576 1.373 . S
C2575 C2577 1.389 . S
C2576 H2549 0.950 . S
C2576 C2562 1.377 . S
C2576 C2575 1.373 . S
C2577 C2561 1.377 . S
C2577 C2575 1.389 . S
C2577 C2578 1.524 . S
C2578 C2577 1.524 . S
C2578 C2579 1.397 . S
C2578 C2583 1.363 . S
C2579 H2550 0.950 . S
C2579 C2578 1.397 . S
C2579 C2580 1.334 . S
C2580 H2551 0.950 . S
C2580 C2579 1.334 . S
C2580 C2581 1.287 . S
C2581 C2580 1.287 . S
C2581 C2582 1.524 . S
C2581 H2584 0.999 . S
C2582 H2552 0.950 . S
C2582 C2581 1.524 . S
C2582 C2583 1.415 . S
C2583 H2553 0.950 . S
C2583 C2578 1.363 . S
C2583 C2582 1.415 . S
H2584 C2581 0.999 . S
H2585 C2566 0.913 . S
H2586 C2604 0.951 . S
H2587 C2606 0.951 . S
H2588 C2608 0.950 . S
H2589 C2609 0.950 . S
H2590 C2611 0.950 . S
H2591 C2614 0.950 . S
H2592 C2615 0.950 . S
H2593 C2617 0.950 . S
H2594 C2618 0.950 . S
H2595 C2619 0.951 . S
H2596 C2621 0.951 . S
H2597 C2623 0.950 . S
H2598 C2624 0.950 . S
H2599 C2626 0.950 . S
H2600 C2629 0.950 . S
H2601 C2630 0.950 . S
H2602 C2632 0.950 1_655 S
H2603 C2633 0.950 . S
C2604 H2586 0.951 . S
C2604 C2605 1.366 . S
C2604 C2606 1.388 . S
C2605 C2604 1.366 . S
C2605 C2609 1.385 . S
C2606 H2587 0.951 . S
C2606 C2604 1.388 . S
C2606 C2607 1.366 . S
C2607 C2606 1.366 . S
C2607 C2608 1.414 . S
C2607 C2610 1.499 . S
C2608 H2588 0.950 . S
C2608 C2607 1.414 . S
C2608 C2609 1.374 . S
C2609 H2589 0.950 . S
C2609 C2605 1.385 . S
C2609 C2608 1.374 . S
C2610 C2607 1.499 . S
C2610 C2611 1.373 . S
C2610 C2612 1.389 . S
C2611 H2590 0.950 . S
C2611 C2610 1.373 . S
C2611 C2627 1.377 . S
C2612 C2610 1.389 . S
C2612 C2613 1.524 . S
C2612 C2626 1.377 . S
C2613 C2612 1.524 . S
C2613 C2614 1.397 . S
C2613 C2618 1.363 . S
C2614 H2591 0.950 . S
C2614 C2613 1.397 . S
C2614 C2615 1.334 . S
C2615 H2592 0.950 . S
C2615 C2614 1.334 . S
C2615 C2616 1.287 . S
C2616 C2615 1.287 . S
C2616 C2617 1.524 . S
C2616 H2635 0.913 . S
C2617 H2593 0.950 . S
C2617 C2616 1.524 . S
C2617 C2618 1.415 . S
C2618 H2594 0.950 . S
C2618 C2613 1.363 . S
C2618 C2617 1.415 . S
C2619 H2595 0.951 . S
C2619 C2620 1.366 . S
C2619 C2621 1.388 . S
C2620 C2619 1.366 . S
C2620 C2624 1.385 . S
C2621 H2596 0.951 . S
C2621 C2619 1.388 . S
C2621 C2622 1.366 . S
C2622 C2621 1.366 . S
C2622 C2623 1.414 . S
C2622 C2625 1.499 . S
C2623 H2597 0.950 . S
C2623 C2622 1.414 . S
C2623 C2624 1.374 . S
C2624 H2598 0.950 . S
C2624 C2620 1.385 . S
C2624 C2623 1.374 . S
C2625 C2622 1.499 . S
C2625 C2626 1.373 . S
C2625 C2627 1.389 . S
C2626 H2599 0.950 . S
C2626 C2612 1.377 . S
C2626 C2625 1.373 . S
C2627 C2611 1.377 . S
C2627 C2625 1.389 . S
C2627 C2628 1.524 . S
C2628 C2627 1.524 . S
C2628 C2629 1.397 . S
C2628 C2633 1.363 . S
C2629 H2600 0.950 . S
C2629 C2628 1.397 . S
C2629 C2630 1.334 . S
C2630 H2601 0.950 . S
C2630 C2629 1.334 . S
C2630 C2631 1.287 . S
C2631 C2630 1.287 . S
C2631 C2632 1.524 . S
C2631 H2634 0.999 . S
C2632 H2602 0.950 1_455 S
C2632 C2631 1.524 . S
C2632 C2633 1.415 . S
C2633 H2603 0.950 . S
C2633 C2628 1.363 . S
C2633 C2632 1.415 . S
H2634 C2631 0.999 . S
H2635 C2616 0.913 . S
H2636 C2654 0.951 . S
H2637 C2656 0.951 . S
H2638 C2658 0.950 . S
H2639 C2659 0.950 . S
H2640 C2661 0.950 . S
H2641 C2664 0.950 . S
H2642 C2665 0.950 . S
H2643 C2667 0.950 . S
H2644 C2668 0.950 . S
H2645 C2669 0.951 . S
H2646 C2671 0.951 . S
H2647 C2673 0.950 . S
H2648 C2674 0.950 . S
H2649 C2676 0.950 . S
H2650 C2679 0.950 . S
H2651 C2680 0.950 . S
H2652 C2682 0.950 1_565 S
H2653 C2683 0.950 . S
C2654 H2636 0.951 . S
C2654 C2655 1.366 . S
C2654 C2656 1.388 . S
C2655 C2654 1.366 . S
C2655 C2659 1.385 . S
C2656 H2637 0.951 . S
C2656 C2654 1.388 . S
C2656 C2657 1.366 . S
C2657 C2656 1.366 . S
C2657 C2658 1.414 . S
C2657 C2660 1.499 . S
C2658 H2638 0.950 . S
C2658 C2657 1.414 . S
C2658 C2659 1.374 . S
C2659 H2639 0.950 . S
C2659 C2655 1.385 . S
C2659 C2658 1.374 . S
C2660 C2657 1.499 . S
C2660 C2661 1.373 . S
C2660 C2662 1.389 . S
C2661 H2640 0.950 . S
C2661 C2660 1.373 . S
C2661 C2677 1.377 . S
C2662 C2660 1.389 . S
C2662 C2663 1.524 . S
C2662 C2676 1.377 . S
C2663 C2662 1.524 . S
C2663 C2664 1.397 . S
C2663 C2668 1.363 . S
C2664 H2641 0.950 . S
C2664 C2663 1.397 . S
C2664 C2665 1.334 . S
C2665 H2642 0.950 . S
C2665 C2664 1.334 . S
C2665 C2666 1.287 . S
C2666 C2665 1.287 . S
C2666 C2667 1.524 . S
C2666 H2685 0.913 . S
C2667 H2643 0.950 . S
C2667 C2666 1.524 . S
C2667 C2668 1.415 . S
C2668 H2644 0.950 . S
C2668 C2663 1.363 . S
C2668 C2667 1.415 . S
C2669 H2645 0.951 . S
C2669 C2670 1.366 . S
C2669 C2671 1.388 . S
C2670 C2669 1.366 . S
C2670 C2674 1.385 . S
C2671 H2646 0.951 . S
C2671 C2669 1.388 . S
C2671 C2672 1.366 . S
C2672 C2671 1.366 . S
C2672 C2673 1.414 . S
C2672 C2675 1.499 . S
C2673 H2647 0.950 . S
C2673 C2672 1.414 . S
C2673 C2674 1.374 . S
C2674 H2648 0.950 . S
C2674 C2670 1.385 . S
C2674 C2673 1.374 . S
C2675 C2672 1.499 . S
C2675 C2676 1.373 . S
C2675 C2677 1.389 . S
C2676 H2649 0.950 . S
C2676 C2662 1.377 . S
C2676 C2675 1.373 . S
C2677 C2661 1.377 . S
C2677 C2675 1.389 . S
C2677 C2678 1.524 . S
C2678 C2677 1.524 . S
C2678 C2679 1.397 . S
C2678 C2683 1.363 . S
C2679 H2650 0.950 . S
C2679 C2678 1.397 . S
C2679 C2680 1.334 . S
C2680 H2651 0.950 . S
C2680 C2679 1.334 . S
C2680 C2681 1.287 . S
C2681 C2680 1.287 . S
C2681 C2682 1.524 . S
C2681 H2684 0.999 . S
C2682 H2652 0.950 1_545 S
C2682 C2681 1.524 . S
C2682 C2683 1.415 . S
C2683 H2653 0.950 . S
C2683 C2678 1.363 . S
C2683 C2682 1.415 . S
H2684 C2681 0.999 . S
H2685 C2666 0.913 . S
H2686 C2704 0.951 . S
H2687 C2706 0.951 . S
H2688 C2708 0.950 . S
H2689 C2709 0.950 . S
H2690 C2711 0.950 . S
H2691 C2714 0.950 . S
H2692 C2715 0.950 . S
H2693 C2717 0.950 . S
H2694 C2718 0.950 . S
H2695 C2719 0.951 . S
H2696 C2721 0.951 . S
H2697 C2723 0.950 . S
H2698 C2724 0.950 . S
H2699 C2726 0.950 . S
H2700 C2729 0.950 . S
H2701 C2730 0.950 . S
H2702 C2732 0.950 . S
H2703 C2733 0.950 . S
C2704 H2686 0.951 . S
C2704 C2705 1.366 . S
C2704 C2706 1.388 . S
C2705 C2704 1.366 . S
C2705 C2709 1.385 . S
C2706 H2687 0.951 . S
C2706 C2704 1.388 . S
C2706 C2707 1.366 . S
C2707 C2706 1.366 . S
C2707 C2708 1.414 . S
C2707 C2710 1.499 . S
C2708 H2688 0.950 . S
C2708 C2707 1.414 . S
C2708 C2709 1.374 . S
C2709 H2689 0.950 . S
C2709 C2705 1.385 . S
C2709 C2708 1.374 . S
C2710 C2707 1.499 . S
C2710 C2711 1.373 . S
C2710 C2712 1.389 . S
C2711 H2690 0.950 . S
C2711 C2710 1.373 . S
C2711 C2727 1.377 . S
C2712 C2710 1.389 . S
C2712 C2713 1.524 . S
C2712 C2726 1.377 . S
C2713 C2712 1.524 . S
C2713 C2714 1.397 . S
C2713 C2718 1.363 . S
C2714 H2691 0.950 . S
C2714 C2713 1.397 . S
C2714 C2715 1.334 . S
C2715 H2692 0.950 . S
C2715 C2714 1.334 . S
C2715 C2716 1.287 . S
C2716 C2715 1.287 . S
C2716 C2717 1.524 . S
C2716 H2735 0.913 . S
C2717 H2693 0.950 . S
C2717 C2716 1.524 . S
C2717 C2718 1.415 . S
C2718 H2694 0.950 . S
C2718 C2713 1.363 . S
C2718 C2717 1.415 . S
C2719 H2695 0.951 . S
C2719 C2720 1.366 . S
C2719 C2721 1.388 . S
C2720 C2719 1.366 . S
C2720 C2724 1.385 . S
C2721 H2696 0.951 . S
C2721 C2719 1.388 . S
C2721 C2722 1.366 . S
C2722 C2721 1.366 . S
C2722 C2723 1.414 . S
C2722 C2725 1.499 . S
C2723 H2697 0.950 . S
C2723 C2722 1.414 . S
C2723 C2724 1.374 . S
C2724 H2698 0.950 . S
C2724 C2720 1.385 . S
C2724 C2723 1.374 . S
C2725 C2722 1.499 . S
C2725 C2726 1.373 . S
C2725 C2727 1.389 . S
C2726 H2699 0.950 . S
C2726 C2712 1.377 . S
C2726 C2725 1.373 . S
C2727 C2711 1.377 . S
C2727 C2725 1.389 . S
C2727 C2728 1.524 . S
C2728 C2727 1.524 . S
C2728 C2729 1.397 . S
C2728 C2733 1.363 . S
C2729 H2700 0.950 . S
C2729 C2728 1.397 . S
C2729 C2730 1.334 . S
C2730 H2701 0.950 . S
C2730 C2729 1.334 . S
C2730 C2731 1.287 . S
C2731 C2730 1.287 . S
C2731 C2732 1.524 . S
C2731 H2734 0.999 . S
C2732 H2702 0.950 . S
C2732 C2731 1.524 . S
C2732 C2733 1.415 . S
C2733 H2703 0.950 . S
C2733 C2728 1.363 . S
C2733 C2732 1.415 . S
H2734 C2731 0.999 . S
H2735 C2716 0.913 . S
C355 C218 1.247 . S
C370 C8 1.249 . S
C405 C22 1.249 . S
C420 C232 1.248 . S
C455 C36 1.248 . S
C470 C246 1.249 . S
C505 C50 1.248 . S
C520 C176 1.248 . S
C555 C190 1.248 . S
C570 C64 1.248 . S
C605 C78 1.248 . S
C620 C204 1.249 . S
C655 C302 1.249 . S
C670 C92 1.247 . S
C705 C106 1.247 . S
C720 C316 1.249 . S
C755 C120 1.249 . S
C770 C330 1.247 . S
C805 C260 1.248 . S
C820 C134 1.248 . S
C855 C148 1.248 . S
C870 C274 1.248 . S
C905 C288 1.248 . S
C920 C162 1.248 . S
C955 C6 1.665 . S
C970 C328 1.664 . S
C1005 C258 1.665 . S
C1020 C20 1.664 . S
C1055 C34 1.664 . S
C1070 C272 1.665 . S
C1105 C286 1.665 . S
C1120 C48 1.665 . S
C1155 C62 1.665 . S
C1170 C300 1.664 . S
C1205 C314 1.665 . S
C1220 C76 1.664 . S
C1255 C90 1.665 . S
C1270 C188 1.665 . S
C1305 C202 1.665 . S
C1320 C104 1.665 . S
C1355 C216 1.664 . S
C1370 C118 1.665 . S
C1405 C230 1.665 . S
C1420 C132 1.665 . S
C1455 C146 1.665 . S
C1470 C244 1.665 . S
C1505 C160 1.664 . S
C1520 C174 1.665 . S
C1555 C105 1.296 . S
C1570 C7 1.296 . S
C1605 C119 1.297 . S
C1620 C21 1.297 . S
C1655 C133 1.297 . S
C1670 C35 1.297 . S
C1705 C147 1.297 . S
C1720 C49 1.296 . S
C1755 C63 1.296 . S
C1770 C161 1.297 . S
C1805 C77 1.296 . S
C1820 C91 1.296 . S
C1855 C175 1.296 . S
C1870 C273 1.297 . S
C1905 C189 1.297 . S
C1920 C287 1.297 . S
C1955 C301 1.297 . S
C1970 C203 1.297 . S
C2005 C315 1.297 . S
C2020 C217 1.297 . S
C2055 C329 1.296 . S
C2070 C231 1.296 . S
C2105 C259 1.297 . S
C2120 C245 1.296 . S
C2155 C9 1.823 . S
C2170 C275 1.823 . S
C2205 C289 1.823 . S
C2220 C23 1.823 . S
C2255 C37 1.823 . S
C2270 C303 1.823 . S
C2305 C317 1.823 . S
C2320 C51 1.823 . S
C2355 C65 1.823 . S
C2370 C331 1.823 . S
C2405 C261 1.823 . S
C2420 C79 1.823 . S
C2455 C93 1.823 . S
C2470 C247 1.823 . S
C2505 C177 1.823 . S
C2520 C107 1.823 . S
C2555 C121 1.823 . S
C2570 C191 1.823 . S
C2605 C135 1.823 . S
C2620 C205 1.823 . S
C2655 C149 1.823 . S
C2670 C219 1.823 . S
C2705 C163 1.823 . S
C2720 C233 1.823 . S
