# Generated by pormake.
# Topology can, (4)-cn, num edge types: 1
# Building blocks:
#     Node 0, Type 0, BuildingBlock: TATPOV_clean_sbu_0, # of connection points: 4
#     Node 1, Type 0, BuildingBlock: TATPOV_clean_sbu_0, # of connection points: 4
#     Node 2, Type 0, BuildingBlock: TATPOV_clean_sbu_0, # of connection points: 4
#     Node 3, Type 0, BuildingBlock: TATPOV_clean_sbu_0, # of connection points: 4
#     Node 4, Type 0, BuildingBlock: TATPOV_clean_sbu_0, # of connection points: 4
#     Node 5, Type 0, BuildingBlock: TATPOV_clean_sbu_0, # of connection points: 4
#     Node 6, Type 0, BuildingBlock: TATPOV_clean_sbu_0, # of connection points: 4
#     Node 7, Type 0, BuildingBlock: TATPOV_clean_sbu_0, # of connection points: 4
#     Node 8, Type 0, BuildingBlock: TATPOV_clean_sbu_0, # of connection points: 4
#     Node 9, Type 0, BuildingBlock: TATPOV_clean_sbu_0, # of connection points: 4
#     Node 10, Type 0, BuildingBlock: TATPOV_clean_sbu_0, # of connection points: 4
#     Node 11, Type 0, BuildingBlock: TATPOV_clean_sbu_0, # of connection points: 4
#     Edge 12, Type (0, 0), BuildingBlock: TEMPAE_clean_linker_10, # of connection points: 2
#     Edge 13, Type (0, 0), BuildingBlock: TEMPAE_clean_linker_10, # of connection points: 2
#     Edge 14, Type (0, 0), BuildingBlock: TEMPAE_clean_linker_10, # of connection points: 2
#     Edge 15, Type (0, 0), BuildingBlock: TEMPAE_clean_linker_10, # of connection points: 2
#     Edge 16, Type (0, 0), BuildingBlock: TEMPAE_clean_linker_10, # of connection points: 2
#     Edge 17, Type (0, 0), BuildingBlock: TEMPAE_clean_linker_10, # of connection points: 2
#     Edge 18, Type (0, 0), BuildingBlock: TEMPAE_clean_linker_10, # of connection points: 2
#     Edge 19, Type (0, 0), BuildingBlock: TEMPAE_clean_linker_10, # of connection points: 2
#     Edge 20, Type (0, 0), BuildingBlock: TEMPAE_clean_linker_10, # of connection points: 2
#     Edge 21, Type (0, 0), BuildingBlock: TEMPAE_clean_linker_10, # of connection points: 2
#     Edge 22, Type (0, 0), BuildingBlock: TEMPAE_clean_linker_10, # of connection points: 2
#     Edge 23, Type (0, 0), BuildingBlock: TEMPAE_clean_linker_10, # of connection points: 2
#     Edge 24, Type (0, 0), BuildingBlock: TEMPAE_clean_linker_10, # of connection points: 2
#     Edge 25, Type (0, 0), BuildingBlock: TEMPAE_clean_linker_10, # of connection points: 2
#     Edge 26, Type (0, 0), BuildingBlock: TEMPAE_clean_linker_10, # of connection points: 2
#     Edge 27, Type (0, 0), BuildingBlock: TEMPAE_clean_linker_10, # of connection points: 2
#     Edge 28, Type (0, 0), BuildingBlock: TEMPAE_clean_linker_10, # of connection points: 2
#     Edge 29, Type (0, 0), BuildingBlock: TEMPAE_clean_linker_10, # of connection points: 2
#     Edge 30, Type (0, 0), BuildingBlock: TEMPAE_clean_linker_10, # of connection points: 2
#     Edge 31, Type (0, 0), BuildingBlock: TEMPAE_clean_linker_10, # of connection points: 2
#     Edge 32, Type (0, 0), BuildingBlock: TEMPAE_clean_linker_10, # of connection points: 2
#     Edge 33, Type (0, 0), BuildingBlock: TEMPAE_clean_linker_10, # of connection points: 2
#     Edge 34, Type (0, 0), BuildingBlock: TEMPAE_clean_linker_10, # of connection points: 2
#     Edge 35, Type (0, 0), BuildingBlock: TEMPAE_clean_linker_10, # of connection points: 2
# Relax obj value: 0.056
# Max RMSD: 0.072
# Mean RMSD: 0.072
data_MOF--net-can--node1-TATPOV_clean_sbu_0--edge1-TEMPAE_clean_linker_10
_symmetry_space_group_name_H-M    P1
_symmetry_Int_Tables_number       1
_symmetry_cell_setting            triclinic
loop_
_symmetry_equiv_pos_as_xyz
'x, y, z'
_cell_length_a     58.368046
_cell_length_b     58.289865
_cell_length_c     27.105175
_cell_angle_alpha  90.053586
_cell_angle_beta   89.895634
_cell_angle_gamma 119.98767
loop_
_atom_site_label
_atom_site_type_symbol
_atom_site_fract_x
_atom_site_fract_y
_atom_site_fract_z
_atom_type_partial_charge
Zn0 Zn 0.02948 0.39232 0.26963 0.0
Zn1 Zn 0.07503 0.39703 0.2558 0.0
O2 O 0.05987 0.37175 0.3165 0.0
O3 O 0.01847 0.36257 0.31655 0.0
O4 O 0.11066 0.40013 0.24442 0.0
O5 O 0.01931 0.38374 0.1994 0.0
O6 O 0.05583 0.3821 0.18921 0.0
C7 C 0.03634 0.35858 0.33339 0.0
C8 C 0.07011 0.44533 0.2845 0.0
O9 O 0.08411 0.43588 0.26764 0.0
O10 O 0.04575 0.43001 0.29296 0.0
C11 C 0.12965 0.41242 0.27452 0.0
O12 O 0.12584 0.42316 0.31407 0.0
C13 C 0.03413 0.37909 0.17219 0.0
Zn14 Zn 0.63949 0.02615 0.72244 0.0
Zn15 Zn 0.68212 0.0697 0.72754 0.0
O16 O 0.67938 0.05397 0.79759 0.0
O17 O 0.63871 0.0203 0.7945 0.0
O18 O 0.71659 0.10455 0.72845 0.0
O19 O 0.65385 0.00906 0.67879 0.0
O20 O 0.68747 0.04932 0.66928 0.0
C21 C 0.65957 0.03466 0.8187 0.0
C22 C 0.63019 0.06776 0.70012 0.0
O23 O 0.65394 0.08106 0.71567 0.0
O24 O 0.61963 0.04297 0.6946 0.0
C25 C 0.71908 0.12425 0.7531 0.0
O26 O 0.69892 0.12158 0.77931 0.0
C27 C 0.6752 0.02487 0.6572 0.0
Zn28 Zn 0.61439 0.63837 0.26708 0.0
Zn29 Zn 0.60735 0.6787 0.24575 0.0
O30 O 0.62449 0.68711 0.31542 0.0
O31 O 0.63236 0.65445 0.32991 0.0
O32 O 0.60501 0.71158 0.23157 0.0
O33 O 0.63589 0.64414 0.20653 0.0
O34 O 0.63035 0.67783 0.18835 0.0
C35 C 0.6338 0.67594 0.34279 0.0
C36 C 0.5595 0.62278 0.25409 0.0
O37 O 0.56873 0.6472 0.24376 0.0
O38 O 0.57499 0.61442 0.26612 0.0
C39 C 0.58573 0.71213 0.21097 0.0
O40 O 0.56512 0.68982 0.1966 0.0
C41 C 0.64 0.66299 0.17804 0.0
Zn42 Zn 0.98139 0.61214 0.73881 0.0
Zn43 Zn 0.93665 0.61013 0.73749 0.0
O44 O 0.95773 0.63688 0.79358 0.0
O45 O 0.998 0.64382 0.78229 0.0
O46 O 0.9019 0.60984 0.73668 0.0
O47 O 0.9857 0.61705 0.66628 0.0
O48 O 0.95083 0.62217 0.66655 0.0
C49 C 0.98232 0.6494 0.80434 0.0
C50 C 0.94022 0.56102 0.76517 0.0
O51 O 0.92614 0.57101 0.75178 0.0
O52 O 0.96513 0.57547 0.76701 0.0
C53 C 0.88106 0.59061 0.71848 0.0
O54 O 0.88207 0.57025 0.70024 0.0
C55 C 0.97006 0.62243 0.64364 0.0
Zn56 Zn 0.3672 0.97924 0.21496 0.0
Zn57 Zn 0.3255 0.93482 0.22499 0.0
O58 O 0.32943 0.95173 0.29425 0.0
O59 O 0.36884 0.98698 0.28635 0.0
O60 O 0.29167 0.89954 0.22885 0.0
O61 O 0.35096 0.9941 0.17076 0.0
O62 O 0.31781 0.95326 0.16648 0.0
C63 C 0.34899 0.97233 0.31285 0.0
C64 C 0.37771 0.93804 0.19469 0.0
O65 O 0.35426 0.92445 0.21165 0.0
O66 O 0.38756 0.96267 0.18785 0.0
C67 C 0.28996 0.87978 0.25203 0.0
O68 O 0.31075 0.88245 0.27582 0.0
C69 C 0.32914 0.97731 0.15199 0.0
Zn70 Zn 0.39422 0.36509 0.75615 0.0
Zn71 Zn 0.40442 0.32741 0.73421 0.0
O72 O 0.38523 0.31661 0.80209 0.0
O73 O 0.3712 0.34504 0.81249 0.0
O74 O 0.41001 0.29666 0.7185 0.0
O75 O 0.37748 0.36241 0.69116 0.0
O76 O 0.38297 0.32854 0.67435 0.0
C77 C 0.37192 0.32474 0.82631 0.0
C78 C 0.45001 0.38344 0.75197 0.0
O79 O 0.44212 0.35996 0.7367 0.0
O80 O 0.43335 0.3901 0.76536 0.0
C81 C 0.42458 0.29159 0.74592 0.0
O82 O 0.43643 0.30706 0.78388 0.0
C83 C 0.37434 0.34402 0.66229 0.0
Zn84 Zn 0.5966 0.98113 0.25481 0.0
Zn85 Zn 0.5925 0.9343 0.23892 0.0
O86 O 0.61507 0.95629 0.17977 0.0
O87 O 0.61923 0.99535 0.19438 0.0
O88 O 0.58903 0.89811 0.23163 0.0
O89 O 0.61323 0.9847 0.32009 0.0
O90 O 0.61198 0.94682 0.30612 0.0
C91 C 0.62426 0.98051 0.16789 0.0
C92 C 0.54295 0.94057 0.24261 0.0
O93 O 0.55335 0.92603 0.23644 0.0
O94 O 0.55742 0.96506 0.2512 0.0
C95 C 0.59181 0.88824 0.19172 0.0
O96 O 0.59727 0.902 0.15071 0.0
C97 C 0.61835 0.96698 0.33334 0.0
Zn98 Zn 0.6265 0.60867 0.7394 0.0
Zn99 Zn 0.66797 0.60298 0.7398 0.0
O100 O 0.67433 0.62835 0.68132 0.0
O101 O 0.64339 0.63896 0.69207 0.0
O102 O 0.70039 0.59889 0.74036 0.0
O103 O 0.63021 0.61639 0.81151 0.0
O104 O 0.66917 0.61904 0.8083 0.0
C105 C 0.66381 0.6422 0.6697 0.0
C106 C 0.61282 0.55552 0.71949 0.0
O107 O 0.63698 0.56451 0.73127 0.0
O108 O 0.60374 0.57115 0.71591 0.0
C109 C 0.71278 0.59959 0.70122 0.0
O110 O 0.70419 0.60286 0.6585 0.0
C111 C 0.65176 0.62169 0.83199 0.0
Zn112 Zn 0.02345 0.61824 0.20754 0.0
Zn113 Zn 0.06928 0.66136 0.22721 0.0
O114 O 0.05916 0.669 0.15821 0.0
O115 O 0.02202 0.63213 0.14165 0.0
O116 O 0.10375 0.69476 0.24167 0.0
O117 O 0.00657 0.62507 0.26593 0.0
O118 O 0.04494 0.66009 0.28344 0.0
C119 C 0.0399 0.6551 0.12931 0.0
C120 C 0.06479 0.60638 0.22437 0.0
O121 O 0.07879 0.63135 0.2311 0.0
O122 O 0.0405 0.59603 0.21385 0.0
C123 C 0.12348 0.70231 0.21296 0.0
O124 O 0.12124 0.68773 0.17426 0.0
C125 C 0.02056 0.64472 0.29346 0.0
Zn126 Zn 0.4139 0.02248 0.75481 0.0
Zn127 Zn 0.41504 0.06813 0.74029 0.0
O128 O 0.39518 0.04683 0.67875 0.0
O129 O 0.39432 0.00905 0.69099 0.0
O130 O 0.41507 0.10272 0.73454 0.0
O131 O 0.39407 0.0158 0.81759 0.0
O132 O 0.39371 0.05297 0.80493 0.0
C133 C 0.38844 0.02338 0.6649 0.0
C134 C 0.4667 0.06597 0.749 0.0
O135 O 0.45505 0.07923 0.74118 0.0
O136 O 0.4533 0.04129 0.75663 0.0
C137 C 0.43154 0.12267 0.70954 0.0
O138 O 0.4499 0.12119 0.68394 0.0
C139 C 0.38723 0.03232 0.83067 0.0
Zn140 Zn 0.38686 0.40142 0.21933 0.0
Zn141 Zn 0.34422 0.40493 0.22617 0.0
O142 O 0.3377 0.38144 0.16455 0.0
O143 O 0.3697 0.37195 0.17042 0.0
O144 O 0.31016 0.40576 0.2335 0.0
O145 O 0.38535 0.39223 0.29053 0.0
O146 O 0.34569 0.38795 0.292 0.0
C147 C 0.34872 0.36844 0.15017 0.0
C148 C 0.3976 0.45433 0.20459 0.0
O149 O 0.37361 0.44426 0.21867 0.0
O150 O 0.40749 0.43956 0.19784 0.0
C151 C 0.3058 0.42314 0.21444 0.0
O152 O 0.32431 0.44212 0.18755 0.0
C153 C 0.36392 0.38557 0.31298 0.0
Zn154 Zn 0.98388 0.38974 0.72771 0.0
Zn155 Zn 0.93912 0.34457 0.74258 0.0
O156 O 0.95433 0.33809 0.67806 0.0
O157 O 0.99145 0.37588 0.66682 0.0
O158 O 0.90524 0.30979 0.75268 0.0
O159 O 0.99765 0.38586 0.79296 0.0
O160 O 0.96098 0.34781 0.80434 0.0
C161 C 0.9753 0.35252 0.65328 0.0
C162 C 0.93928 0.3973 0.73008 0.0
O163 O 0.92673 0.37255 0.73974 0.0
O164 O 0.96394 0.40912 0.72228 0.0
C165 C 0.88629 0.30214 0.72212 0.0
O166 O 0.88898 0.31739 0.68431 0.0
C167 C 0.98382 0.3655 0.81903 0.0
C168 C 0.04121 0.36459 0.08896 0.0
C169 C 0.02654 0.37167 0.12012 0.0
C170 C 0.03494 0.35961 0.0386 0.0
C171 C 0.0139 0.36229 0.01918 0.0
C172 C 0.99846 0.36845 0.05088 0.0
C173 C 1.00484 0.37284 0.10093 0.0
C174 C 0.05141 0.35248 0.00592 0.0
C175 C 0.97603 0.37182 0.03155 0.0
C176 C 0.01473 0.38595 0.88954 0.0
C177 C 0.99373 0.36337 0.86791 0.0
C178 C 0.02258 0.3854 0.93802 0.0
C179 C 0.00944 0.36153 0.96525 0.0
C180 C 0.98952 0.33818 0.94252 0.0
C181 C 0.98164 0.33943 0.89415 0.0
C182 C 0.04363 0.41086 0.96117 0.0
C183 C 0.97557 0.31224 0.97011 0.0
H184 H 0.05784 0.36339 0.10366 0.0
H185 H 0.99328 0.37818 0.1247 0.0
H186 H 0.03852 0.33553 0.9817 0.0
H187 H 0.06414 0.36949 0.98167 0.0
H188 H 0.06432 0.34731 0.02767 0.0
H189 H 0.96522 0.37545 0.06154 0.0
H190 H 0.98393 0.38881 0.00559 0.0
H191 H 0.96173 0.35394 0.01085 0.0
H192 H 0.02424 0.40451 0.86944 0.0
H193 H 0.96567 0.32182 0.87732 0.0
H194 H 0.05891 0.4078 0.97927 0.0
H195 H 0.03453 0.41726 -0.00989 0.0
H196 H 0.05347 0.42711 0.93377 0.0
H197 H 0.99001 0.30883 -0.00926 0.0
H198 H 0.96407 0.29522 0.94497 0.0
H199 H 0.96173 0.31289 -0.00255 0.0
C200 C 0.65396 0.96797 0.38614 0.0
C201 C 0.63119 0.97007 0.38129 0.0
C202 C 0.66848 0.97535 0.43043 0.0
C203 C 0.65959 0.98459 0.4704 0.0
C204 C 0.63572 0.98527 0.46607 0.0
C205 C 0.62205 0.97829 0.4214 0.0
C206 C 0.69391 0.97462 0.43314 0.0
C207 C 0.62495 0.99425 0.50805 0.0
C208 C 0.67117 0.98795 0.60538 0.0
C209 C 0.68217 0.01533 0.61231 0.0
C210 C 0.66744 0.97726 0.55784 0.0
C211 C 0.67493 0.99447 0.51682 0.0
C212 C 0.69057 0.02218 0.52418 0.0
C213 C 0.69397 0.03241 0.57221 0.0
C214 C 0.65169 0.94759 0.55167 0.0
C215 C 0.70016 0.04112 0.48118 0.0
H216 H 0.66114 0.96191 0.35464 0.0
H217 H 0.60433 0.97976 0.4174 0.0
H218 H 0.71063 0.99444 0.42331 0.0
H219 H 0.69757 0.96976 0.47081 0.0
H220 H 0.69386 0.96001 0.40672 0.0
H221 H 0.60544 0.99223 0.49921 0.0
H222 H 0.62266 0.98246 0.54171 0.0
H223 H 0.63896 0.01533 0.51677 0.0
H224 H 0.6628 0.97467 0.63662 0.0
H225 H 0.70307 0.05363 0.57747 0.0
H226 H 0.65857 0.94113 0.51913 0.0
H227 H 0.63057 0.94146 0.54574 0.0
H228 H 0.65301 0.93721 0.58497 0.0
H229 H 0.70678 0.03323 0.45044 0.0
H230 H 0.71669 0.06089 0.49203 0.0
H231 H 0.68365 0.04366 0.46744 0.0
C232 C 0.66225 0.64769 0.11892 0.0
C233 C 0.65303 0.6652 0.13003 0.0
C234 C 0.66838 0.64447 0.07042 0.0
C235 C 0.66553 0.6594 0.03233 0.0
C236 C 0.65953 0.67948 0.0442 0.0
C237 C 0.65316 0.68207 0.09307 0.0
C238 C 0.67479 0.62288 0.05944 0.0
C239 C 0.65714 0.69636 0.00465 0.0
C240 C 0.68146 0.64895 0.90089 0.0
C241 C 0.65613 0.6308 0.88352 0.0
C242 C 0.68502 0.65891 0.94925 0.0
C243 C 0.66278 0.64995 0.98074 0.0
C244 C 0.63731 0.63111 0.96347 0.0
C245 C 0.63429 0.62202 0.91494 0.0
C246 C 0.71233 0.67941 0.96616 0.0
C247 C 0.61312 0.62048 -0.00377 0.0
H248 H 0.66283 0.63498 0.14749 0.0
H249 H 0.64655 0.69602 0.10151 0.0
H250 H 0.65694 0.6054 0.04426 0.0
H251 H 0.69069 0.62944 0.03139 0.0
H252 H 0.681 0.61657 0.0931 0.0
H253 H 0.65796 0.71437 0.02035 0.0
H254 H 0.67308 0.70244 0.97678 0.0
H255 H 0.63794 0.68469 0.98536 0.0
H256 H 0.6983 0.65593 0.87627 0.0
H257 H 0.61473 0.60782 0.90156 0.0
H258 H 0.7171 0.67362 0.00199 0.0
H259 H 0.71298 0.69857 0.97199 0.0
H260 H 0.72783 0.68244 0.93887 0.0
H261 H 0.61607 0.61148 0.02993 0.0
H262 H 0.59491 0.6053 0.97737 0.0
H263 H 0.60994 0.63689 0.00816 0.0
C264 C 0.98314 0.62896 0.35319 0.0
C265 C 0.00912 0.64786 0.33997 0.0
C266 C 0.97377 0.62806 0.40113 0.0
C267 C 0.99073 0.64664 0.43644 0.0
C268 C 0.01582 0.66759 0.42176 0.0
C269 C 0.02481 0.66788 0.37362 0.0
C270 C 0.94685 0.60543 0.41521 0.0
C271 C 0.03422 0.68815 0.45814 0.0
C272 C 0.96487 0.64344 0.56679 0.0
C273 C 0.97429 0.62841 0.59047 0.0
C274 C 0.9702 0.6499 0.51649 0.0
C275 C 0.98484 0.64068 0.48962 0.0
C276 C 0.9939 0.62508 0.51336 0.0
C277 C 0.98867 0.61933 0.56346 0.0
C278 C 0.96063 0.6669 0.49239 0.0
C279 C 0.00915 0.61438 0.48588 0.0
H280 H 0.97064 0.61368 0.32714 0.0
H281 H 0.04473 0.68289 0.36341 0.0
H282 H 0.94931 0.59027 0.43554 0.0
H283 H 0.93632 0.61227 0.43991 0.0
H284 H 0.93435 0.59585 0.3823 0.0
H285 H 0.05028 0.7058 0.43925 0.0
H286 H 0.02323 0.69458 0.48261 0.0
H287 H 0.04342 0.67943 0.48179 0.0
H288 H 0.95389 0.65061 0.58775 0.0
H289 H 0.99576 0.60747 0.58151 0.0
H290 H 0.94929 0.65723 0.45846 0.0
H291 H 0.97788 0.68608 0.48112 0.0
H292 H 0.94797 0.67093 0.51745 0.0
H293 H 0.99736 0.60212 0.45419 0.0
H294 H 0.01423 0.60207 0.50972 0.0
H295 H 0.02777 0.63098 0.4709 0.0
C296 C 0.34945 0.0293 0.8797 0.0
C297 C 0.3725 0.02753 0.87697 0.0
C298 C 0.33388 0.02153 0.9228 0.0
C299 C 0.34206 0.0124 0.96388 0.0
C300 C 0.36597 0.01166 0.96146 0.0
C301 C 0.38063 0.01888 0.91782 0.0
C302 C 0.30824 0.02193 0.92314 0.0
C303 C 0.37603 1.00281 0.00469 0.0
C304 C 0.3306 0.01224 0.098 0.0
C305 C 0.3205 0.98518 0.10717 0.0
C306 C 0.33372 0.0217 0.0496 0.0
C307 C 0.32639 1.00352 0.01015 0.0
C308 C 0.31109 0.97601 0.01982 0.0
C309 C 0.30843 0.96701 0.06867 0.0
C310 C 0.34905 0.05121 0.04096 0.0
C311 C 0.30134 0.95607 0.97845 0.0
H312 H 0.34304 0.03563 0.84755 0.0
H313 H 0.39854 0.01766 0.91545 0.0
H314 H 0.29195 1.00208 0.91219 0.0
H315 H 0.3035 0.02643 0.96028 0.0
H316 H 0.30878 0.03662 0.89639 0.0
H317 H 0.3957 0.00485 -0.00269 0.0
H318 H 0.37772 0.01465 0.03796 0.0
H319 H 0.36192 0.98173 0.01327 0.0
H320 H 0.33906 0.02631 0.12808 0.0
H321 H 0.2999 0.94599 0.0757 0.0
H322 H 0.34178 0.0567 0.00776 0.0
H323 H 0.3702 0.05749 0.03482 0.0
H324 H 0.34775 0.06227 0.07325 0.0
H325 H 0.29482 0.96332 0.94659 0.0
H326 H 0.2847 0.93666 -0.0093 0.0
H327 H 0.31771 0.95299 0.9658 0.0
C328 C 0.33544 0.35816 0.38313 0.0
C329 C 0.36059 0.37548 0.3638 0.0
C330 C 0.33256 0.34825 0.43136 0.0
C331 C 0.35532 0.35653 0.46096 0.0
C332 C 0.38071 0.37406 0.44146 0.0
C333 C 0.38303 0.38305 0.39295 0.0
C334 C 0.30528 0.32908 0.45071 0.0
C335 C 0.40548 0.38387 0.47218 0.0
C336 C 0.35638 0.36177 0.59916 0.0
C337 C 0.36339 0.34283 0.61259 0.0
C338 C 0.35141 0.36498 0.54996 0.0
C339 C 0.35304 0.34853 0.51342 0.0
C340 C 0.35728 0.32754 0.52735 0.0
C341 C 0.36264 0.32504 0.57692 0.0
C342 C 0.34718 0.38777 0.5367 0.0
C343 C 0.35838 0.30914 0.48945 0.0
H344 H 0.3181 0.35208 0.36034 0.0
H345 H 0.40249 0.39655 0.37814 0.0
H346 H 0.30475 0.31096 0.46486 0.0
H347 H 0.30037 0.3381 0.48206 0.0
H348 H 0.28981 0.32329 0.42195 0.0
H349 H 0.42368 0.3975 0.45133 0.0
H350 H 0.40424 0.39447 0.50521 0.0
H351 H 0.40736 0.36689 0.48537 0.0
H352 H 0.35645 0.37534 0.6266 0.0
H353 H 0.36761 0.31007 0.58711 0.0
H354 H 0.33081 0.38144 0.50984 0.0
H355 H 0.36537 0.40369 0.51904 0.0
H356 H 0.34267 0.39619 0.56962 0.0
H357 H 0.34256 0.30338 0.46151 0.0
H358 H 0.35636 0.29093 0.5067 0.0
H359 H 0.37765 0.31944 0.46985 0.0
C360 C 0.97555 0.66194 0.88875 0.0
C361 C 0.99226 0.6666 0.84827 0.0
C362 C 0.98619 0.66975 0.93626 0.0
C363 C 0.01395 0.68226 0.94273 0.0
C364 C 0.03072 0.69136 0.90103 0.0
C365 C 0.01963 0.6833 0.85402 0.0
C366 C 0.96765 0.66091 0.97989 0.0
C367 C 0.06042 0.70587 0.90623 0.0
C368 C 0.03985 0.6895 0.07418 0.0
C369 C 0.03801 0.66478 0.08042 0.0
C370 C 0.03295 0.69621 0.02887 0.0
C371 C 0.02435 0.67777 -0.01053 0.0
C372 C 0.02421 0.65351 -0.00486 0.0
C373 C 0.03082 0.64729 0.04065 0.0
C374 C 0.03339 0.72222 0.02454 0.0
C375 C 0.0159 0.63343 0.95385 0.0
H376 H 0.95433 0.64958 0.88438 0.0
H377 H 0.03262 0.68774 0.82243 0.0
H378 H 0.96578 0.64236 -0.0049 0.0
H379 H 0.97549 0.67607 0.00949 0.0
H380 H 0.94762 0.65695 0.96927 0.0
H381 H 0.0703 0.71719 0.87226 0.0
H382 H 0.0669 0.71966 0.93808 0.0
H383 H 0.06704 0.69128 0.91273 0.0
H384 H 0.0452 0.70289 0.10533 0.0
H385 H 0.02961 0.62825 0.0457 0.0
H386 H 0.01358 0.71913 0.03434 0.0
H387 H 0.03807 0.73021 0.98645 0.0
H388 H 0.04801 0.7372 0.05031 0.0
H389 H 0.99486 0.62599 0.94435 0.0
H390 H 0.01817 0.6162 0.96386 0.0
H391 H 0.0279 0.64277 0.92032 0.0
C392 C 0.37362 0.99851 0.38614 0.0
C393 C 0.34963 0.97915 0.36555 0.0
C394 C 0.37566 0.00478 0.43623 0.0
C395 C 0.35302 0.99165 0.46666 0.0
C396 C 0.32843 0.97277 0.44601 0.0
C397 C 0.32706 0.9665 0.39556 0.0
C398 C 0.40238 0.02477 0.45685 0.0
C399 C 0.30382 0.95882 0.47737 0.0
C400 C 0.37316 0.9898 0.5977 0.0
C401 C 0.37519 0.0131 0.61695 0.0
C402 C 0.36394 0.98139 0.54976 0.0
C403 C 0.35617 0.99643 0.52059 0.0
C404 C 0.35608 0.01873 0.54115 0.0
C405 C 0.36588 0.027 0.58906 0.0
C406 C 0.36474 0.95773 0.52902 0.0
C407 C 0.34733 0.03487 0.51145 0.0
H408 H 0.3912 0.0084 0.36332 0.0
H409 H 0.30842 0.95169 0.37975 0.0
H410 H 0.40112 0.04097 0.47581 0.0
H411 H 0.40875 0.01511 0.48461 0.0
H412 H 0.41787 0.03364 0.42783 0.0
H413 H 0.28574 0.94724 0.45475 0.0
H414 H 0.30564 0.9451 0.50327 0.0
H415 H 0.30141 0.97337 0.49992 0.0
H416 H 0.38009 0.97878 0.61911 0.0
H417 H 0.36698 0.04477 0.60402 0.0
H418 H 0.38094 0.96455 0.50146 0.0
H419 H 0.34599 0.9442 0.50981 0.0
H420 H 0.3682 0.94638 0.55809 0.0
H421 H 0.36298 0.04724 0.48442 0.0
H422 H 0.34358 0.04818 0.53524 0.0
H423 H 0.3291 0.02176 0.49035 0.0
C424 C 0.3347 0.30459 0.88543 0.0
C425 C 0.36158 0.31453 0.8755 0.0
C426 C 0.32604 0.30479 0.93367 0.0
C427 C 0.345 0.31661 0.97167 0.0
C428 C 0.37176 0.32402 0.96247 0.0
C429 C 0.37963 0.32242 0.91435 0.0
C430 C 0.29709 0.29486 0.94283 0.0
C431 C 0.39273 0.33687 0.0018 0.0
C432 C 0.3408 0.36417 0.06059 0.0
C433 C 0.33981 0.3521 0.10559 0.0
C434 C 0.34069 0.35188 0.01608 0.0
C435 C 0.33848 0.32649 0.01701 0.0
C436 C 0.33429 0.31299 0.06238 0.0
C437 C 0.33578 0.32632 0.10644 0.0
C438 C 0.34565 0.36727 0.96862 0.0
C439 C 0.33022 0.28534 0.06496 0.0
H440 H 0.32079 0.29855 0.85507 0.0
H441 H 0.40046 0.33039 0.90621 0.0
H442 H 0.29108 0.28588 0.98008 0.0
H443 H 0.29325 0.31164 0.94073 0.0
H444 H 0.28455 0.27996 0.91474 0.0
H445 H 0.41219 0.33983 -0.0105 0.0
H446 H 0.39516 0.35647 0.01158 0.0
H447 H 0.38673 0.32463 0.03572 0.0
H448 H 0.34421 0.38425 0.06032 0.0
H449 H 0.335 0.31705 0.14157 0.0
H450 H 0.33002 0.35551 0.9413 0.0
H451 H 0.36484 0.37139 0.95247 0.0
H452 H 0.34622 0.38643 0.97428 0.0
H453 H 0.32022 0.27371 0.03143 0.0
H454 H 0.31828 0.27465 0.09787 0.0
H455 H 0.34967 0.28642 0.06827 0.0
C456 C 0.98661 0.35953 0.56536 0.0
C457 C 0.9807 0.3433 0.60674 0.0
C458 C 0.99564 0.35391 0.52185 0.0
C459 C 0.99955 0.33178 0.52008 0.0
C460 C 0.99309 0.3149 0.56167 0.0
C461 C 0.98326 0.32068 0.60457 0.0
C462 C 1.00168 0.37227 0.47824 0.0
C463 C 0.99681 0.29109 0.56143 0.0
C464 C 1.00372 0.32231 0.38611 0.0
C465 C 0.03003 0.34215 0.3781 0.0
C466 C 0.99393 0.31471 0.43409 0.0
C467 C 0.01095 0.32747 0.47435 0.0
C468 C 0.03853 0.34336 0.46602 0.0
C469 C 0.04787 0.3507 0.41753 0.0
C470 C 0.96462 0.29664 0.4414 0.0
C471 C 0.05753 0.35607 0.50828 0.0
H472 H 0.98457 0.37702 0.56744 0.0
H473 H 0.97883 0.30831 0.63705 0.0
H474 H 0.0231 0.38223 0.46944 0.0
H475 H 0.99067 0.36085 0.44522 0.0
H476 H 0.99634 0.3878 0.48529 0.0
H477 H 0.99902 0.28537 0.59946 0.0
H478 H 0.97914 0.27407 0.54478 0.0
H479 H 0.01434 0.29472 0.53935 0.0
H480 H 0.99006 0.31504 0.3553 0.0
H481 H 0.06837 0.36564 0.41137 0.0
H482 H 0.95512 0.30879 0.44802 0.0
H483 H 0.96068 0.28368 0.47395 0.0
H484 H 0.95529 0.28407 0.40841 0.0
H485 H 0.05709 0.37406 0.52032 0.0
H486 H 0.07811 0.36208 0.49719 0.0
H487 H 0.05177 0.34238 0.54023 0.0
C488 C 0.63584 0.01472 0.89666 0.0
C489 C 0.65997 0.02884 0.87154 0.0
C490 C 0.63494 0.00811 0.94636 0.0
C491 C 0.65881 0.01546 0.97167 0.0
C492 C 0.68334 0.02961 0.94663 0.0
C493 C 0.68366 0.03642 0.89671 0.0
C494 C 0.60835 0.99345 0.97185 0.0
C495 C 0.70908 0.03734 0.97244 0.0
C496 C 0.64732 0.01738 0.10757 0.0
C497 C 0.63882 0.99107 0.12102 0.0
C498 C 0.6565 0.02653 0.05985 0.0
C499 C 0.65746 0.00902 0.02489 0.0
C500 C 0.65159 0.98334 0.03969 0.0
C501 C 0.64216 0.97457 0.08766 0.0
C502 C 0.66241 0.05402 0.04561 0.0
C503 C 0.65294 0.96429 0.00368 0.0
H504 H 0.61746 0.00901 0.87749 0.0
H505 H 0.70232 0.04717 0.8772 0.0
H506 H 0.6051 0.97429 0.9865 0.0
H507 H 0.60783 0.00521 0.00361 0.0
H508 H 0.5917 0.98941 0.94678 0.0
H509 H 0.72643 0.0481 0.94765 0.0
H510 H 0.71155 0.05009 0.00471 0.0
H511 H 0.70881 0.01936 0.98665 0.0
H512 H 0.6453 0.03048 0.13338 0.0
H513 H 0.63609 0.95436 0.09801 0.0
H514 H 0.64568 0.05253 0.02367 0.0
H515 H 0.68042 0.06404 0.02232 0.0
H516 H 0.66516 0.06656 0.07845 0.0
H517 H 0.63536 0.95599 0.97923 0.0
H518 H 0.6532 0.94759 0.02286 0.0
H519 H 0.67077 0.97458 0.97996 0.0
C520 C 0.66947 0.70191 0.40309 0.0
C521 C 0.64262 0.68505 0.39304 0.0
C522 C 0.67934 0.70348 0.45098 0.0
C523 C 0.66198 0.68702 0.48847 0.0
C524 C 0.63446 0.67171 0.47897 0.0
C525 C 0.62513 0.67112 0.43129 0.0
C526 C 0.70857 0.72103 0.46009 0.0
C527 C 0.61512 0.65375 0.51767 0.0
C528 C 0.67811 0.64996 0.58229 0.0
C529 C 0.67248 0.65918 0.62567 0.0
C530 C 0.67768 0.66099 0.53661 0.0
C531 C 0.67226 0.68215 0.53494 0.0
C532 C 0.67062 0.694 0.5793 0.0
C533 C 0.67014 0.68197 0.62434 0.0
C534 C 0.67968 0.6478 0.49011 0.0
C535 C 0.66658 0.71762 0.57908 0.0
H536 H 0.68297 0.71242 0.37303 0.0
H537 H 0.60442 0.65784 0.42287 0.0
H538 H 0.71264 0.72814 0.49882 0.0
H539 H 0.71884 0.70971 0.45273 0.0
H540 H 0.71711 0.73842 0.43496 0.0
H541 H 0.5943 0.64404 0.5047 0.0
H542 H 0.61978 0.63807 0.52775 0.0
H543 H 0.61678 0.6651 0.5516 0.0
H544 H 0.68003 0.6324 0.58348 0.0
H545 H 0.66628 0.68939 0.6582 0.0
H546 H 0.69342 0.6628 0.46346 0.0
H547 H 0.65994 0.63692 0.47234 0.0
H548 H 0.68664 0.63355 0.49764 0.0
H549 H 0.67786 0.73139 0.54858 0.0
H550 H 0.67276 0.72853 0.61464 0.0
H551 H 0.64532 0.71085 0.57343 0.0
C552 C 0.06377 0.56427 0.20569 0.0
C553 C 0.07584 0.5886 0.23054 0.0
C554 C 0.07 0.54462 0.21696 0.0
C555 C 0.08877 0.54931 0.25434 0.0
C556 C 0.10263 0.57461 0.27687 0.0
C557 C 0.096 0.59409 0.26461 0.0
C558 C 0.05493 0.51811 0.19132 0.0
C559 C 0.12308 0.58058 0.31624 0.0
C560 C 0.06706 0.48385 0.3157 0.0
C561 C 0.08071 0.47427 0.2877 0.0
C562 C 0.07179 0.5097 0.30925 0.0
C563 C 0.09055 0.52634 0.27368 0.0
C564 C 0.1066 0.51785 0.24966 0.0
C565 C 0.10149 0.4918 0.25697 0.0
C566 C 0.05455 0.51805 0.3365 0.0
C567 C 0.1273 0.53524 0.21253 0.0
H568 H 0.0485 0.56013 0.17865 0.0
H569 H 0.10546 0.61292 0.28382 0.0
H570 H 0.06879 0.51192 0.17678 0.0
H571 H 0.04163 0.50284 0.21815 0.0
H572 H 0.04273 0.51849 0.16026 0.0
H573 H 0.13662 0.60224 0.32041 0.0
H574 H 0.11297 0.5727 0.35209 0.0
H575 H 0.13494 0.57097 0.30792 0.0
H576 H 0.05134 0.47053 0.34031 0.0
H577 H 0.11232 0.48461 0.23555 0.0
H578 H 0.03968 0.51781 0.31072 0.0
H579 H 0.06655 0.53852 0.35079 0.0
H580 H 0.04389 0.50463 0.36787 0.0
H581 H 0.11759 0.53421 0.1768 0.0
H582 H 0.14202 0.52874 0.20631 0.0
H583 H 0.1378 0.55623 0.22467 0.0
C584 C 0.5079 0.0669 0.7739 0.0
C585 C 0.49579 0.07827 0.74653 0.0
C586 C 0.534 0.07332 0.76446 0.0
C587 C 0.54842 0.09158 0.72644 0.0
C588 C 0.53722 0.10517 0.70207 0.0
C589 C 0.51087 0.09832 0.71242 0.0
C590 C 0.54516 0.0586 0.79214 0.0
C591 C 0.55214 0.12531 0.66235 0.0
C592 C 0.6175 0.10145 0.7246 0.0
C593 C 0.61324 0.07984 0.69519 0.0
C594 C 0.59742 0.10788 0.73088 0.0
C595 C 0.5727 0.09226 0.70732 0.0
C596 C 0.56972 0.07271 0.67278 0.0
C597 C 0.59001 0.06673 0.66722 0.0
C598 C 0.60176 0.12956 0.76653 0.0
C599 C 0.54394 0.05588 0.64595 0.0
H600 H 0.49641 0.05174 0.80099 0.0
H601 H 0.5016 0.10727 0.69135 0.0
H602 H 0.54703 0.04468 0.76671 0.0
H603 H 0.56518 0.07261 0.8064 0.0
H604 H 0.53243 0.04705 0.82367 0.0
H605 H 0.54465 0.13936 0.6581 0.0
H606 H 0.57365 0.13667 0.67036 0.0
H607 H 0.54944 0.11496 0.62663 0.0
H608 H 0.63556 0.11188 0.74593 0.0
H609 H 0.58687 0.05039 0.64357 0.0
H610 H 0.59364 0.12073 0.80317 0.0
H611 H 0.59144 0.14015 0.7541 0.0
H612 H 0.62316 0.14408 0.77106 0.0
H613 H 0.52887 0.04192 0.67239 0.0
H614 H 0.54601 0.04416 0.61571 0.0
H615 H 0.53644 0.06841 0.63015 0.0
C616 C 0.51483 0.60643 0.21545 0.0
C617 C 0.53095 0.6033 0.24994 0.0
C618 C 0.48917 0.58541 0.20525 0.0
C619 C 0.47962 0.56096 0.23033 0.0
C620 C 0.49509 0.55867 0.2681 0.0
C621 C 0.52052 0.57979 0.27726 0.0
C622 C 0.47319 0.58882 0.16527 0.0
C623 C 0.48564 0.53315 0.29639 0.0
C624 C 0.41096 0.50064 0.23087 0.0
C625 C 0.41525 0.48336 0.20134 0.0
C626 C 0.43098 0.5272 0.23708 0.0
C627 C 0.45564 0.53649 0.21305 0.0
C628 C 0.45884 0.51985 0.17902 0.0
C629 C 0.43865 0.49348 0.17376 0.0
C630 C 0.42657 0.54447 0.27282 0.0
C631 C 0.48459 0.52902 0.15183 0.0
H632 H 0.52279 0.62462 0.19435 0.0
H633 H 0.53276 0.57747 0.3046 0.0
H634 H 0.47526 0.57993 0.13055 0.0
H635 H 0.45186 0.57858 0.17499 0.0
H636 H 0.48009 0.61007 0.15822 0.0
H637 H 0.49889 0.53547 0.32769 0.0
H638 H 0.46542 0.52593 0.31103 0.0
H639 H 0.48476 0.51768 0.27126 0.0
H640 H 0.39281 0.49298 0.25201 0.0
H641 H 0.44186 0.48033 0.15011 0.0
H642 H 0.43581 0.56514 0.25916 0.0
H643 H 0.43592 0.54486 0.30866 0.0
H644 H 0.40517 0.53686 0.27938 0.0
H645 H 0.4918 0.54893 0.13564 0.0
H646 H 0.48263 0.51514 0.12185 0.0
H647 H 0.49984 0.53052 0.17813 0.0
C648 C 0.90534 0.51395 0.74793 0.0
C649 C 0.92856 0.53214 0.77249 0.0
C650 C 0.89834 0.48713 0.74398 0.0
C651 C 0.91504 0.47858 0.76488 0.0
C652 C 0.93668 0.49628 0.79456 0.0
C653 C 0.94315 0.52281 0.79796 0.0
C654 C 0.87454 0.46869 0.71359 0.0
C655 C 0.95483 0.48802 0.81837 0.0
C656 C 0.90826 0.41041 0.76796 0.0
C657 C 0.92628 0.41346 0.73075 0.0
C658 C 0.90192 0.43044 0.77678 0.0
C659 C 0.91397 0.45378 0.74769 0.0
C660 C 0.92972 0.45532 0.70662 0.0
C661 C 0.93573 0.43519 0.69883 0.0
C662 C 0.88435 0.4276 0.81991 0.0
C663 C 0.94264 0.47954 0.67389 0.0
H664 H 0.89378 0.52097 0.72858 0.0
H665 H 0.96079 0.53668 0.81793 0.0
H666 H 0.88094 0.46805 0.67529 0.0
H667 H 0.86476 0.44823 0.72855 0.0
H668 H 0.85991 0.47557 0.71215 0.0
H669 H 0.9687 0.50307 0.84493 0.0
H670 H 0.94322 0.46893 0.83809 0.0
H671 H 0.96664 0.48515 0.78941 0.0
H672 H 0.90083 0.39354 0.79261 0.0
H673 H 0.94935 0.43732 0.66953 0.0
H674 H 0.87246 0.43725 0.81232 0.0
H675 H 0.89679 0.43733 0.85275 0.0
H676 H 0.8708 0.40643 0.82909 0.0
H677 H 0.928 0.48522 0.66196 0.0
H678 H 0.95177 0.47633 0.64052 0.0
H679 H 0.95834 0.49645 0.69488 0.0
C680 C 0.41781 0.9395 0.15986 0.0
C681 C 0.39519 0.92657 0.1896 0.0
C682 C 0.43861 0.9342 0.16466 0.0
C683 C 0.4368 0.91565 0.20039 0.0
C684 C 0.4127 0.90023 0.22614 0.0
C685 C 0.39206 0.90587 0.22041 0.0
C686 C 0.46368 0.95072 0.13553 0.0
C687 C 0.40969 0.87975 0.26351 0.0
C688 C 0.49855 0.90924 0.20555 0.0
C689 C 0.5141 0.92982 0.23837 0.0
C690 C 0.47234 0.90279 0.19509 0.0
C691 C 0.46169 0.91725 0.21819 0.0
C692 C 0.4767 0.93646 0.25441 0.0
C693 C 0.50268 0.94253 0.26385 0.0
C694 C 0.45688 0.88187 0.15691 0.0
C695 C 0.46611 0.95214 0.28067 0.0
H696 H 0.42009 0.95515 0.13523 0.0
H697 H 0.37449 0.89562 0.24319 0.0
H698 H 0.47899 0.9658 0.16014 0.0
H699 H 0.47149 0.93821 0.12081 0.0
H700 H 0.46052 0.96113 0.10426 0.0
H701 H 0.38853 0.86534 0.27101 0.0
H702 H 0.41967 0.86884 0.25081 0.0
H703 H 0.41908 0.88978 0.29869 0.0
H704 H 0.5073 0.89929 0.18588 0.0
H705 H 0.5145 0.95813 0.28994 0.0
H706 H 0.45869 0.89155 0.12076 0.0
H707 H 0.43556 0.87045 0.16655 0.0
H708 H 0.46452 0.86793 0.15263 0.0
H709 H 0.46385 0.96527 0.2539 0.0
H710 H 0.47938 0.96462 0.3108 0.0
H711 H 0.44632 0.93865 0.2966 0.0
C712 C 0.57074 0.51778 0.68844 0.0
C713 C 0.59426 0.52672 0.71503 0.0
C714 C 0.55025 0.49143 0.6918 0.0
C715 C 0.55319 0.47362 0.72306 0.0
C716 C 0.57773 0.48195 0.74675 0.0
C717 C 0.59811 0.50847 0.74227 0.0
C718 C 0.52462 0.4833 0.66504 0.0
C719 C 0.58174 0.46354 0.78006 0.0
C720 C 0.48746 0.42618 0.78131 0.0
C721 C 0.47834 0.40395 0.75066 0.0
C722 C 0.51274 0.4482 0.77508 0.0
C723 C 0.52926 0.44818 0.73676 0.0
C724 C 0.52093 0.42504 0.70798 0.0
C725 C 0.49552 0.40306 0.71545 0.0
C726 C 0.52096 0.47224 0.80729 0.0
C727 C 0.53798 0.42416 0.66697 0.0
H728 H 0.56785 0.53174 0.66673 0.0
H729 H 0.61629 0.51528 0.76284 0.0
H730 H 0.51755 0.46408 0.64599 0.0
H731 H 0.50922 0.4807 0.69212 0.0
H732 H 0.5267 0.49829 0.63741 0.0
H733 H 0.60304 0.47104 0.78748 0.0
H734 H 0.57165 0.46166 0.81581 0.0
H735 H 0.57295 0.44344 0.76373 0.0
H736 H 0.47437 0.42679 0.80907 0.0
H737 H 0.48855 0.38589 0.69168 0.0
H738 H 0.52141 0.48841 0.78495 0.0
H739 H 0.54116 0.47957 0.82204 0.0
H740 H 0.5072 0.46801 0.83878 0.0
H741 H 0.53699 0.43538 0.63478 0.0
H742 H 0.53128 0.40353 0.65496 0.0
H743 H 0.55898 0.43361 0.67854 0.0
C744 C 0.15981 0.40324 0.22276 0.0
C745 C 0.15572 0.41459 0.26514 0.0
C746 C 0.18431 0.40495 0.21364 0.0
C747 C 0.20525 0.41832 0.2477 0.0
C748 C 0.20133 0.42998 0.29036 0.0
C749 C 0.17662 0.42797 0.29857 0.0
C750 C 0.18773 0.39226 0.16771 0.0
C751 C 0.22318 0.44443 0.32753 0.0
C752 C 0.25994 0.40096 0.24964 0.0
C753 C 0.28009 0.42197 0.22281 0.0
C754 C 0.23553 0.39955 0.25798 0.0
C755 C 0.23112 0.41967 0.23916 0.0
C756 C 0.25136 0.44095 0.21214 0.0
C757 C 0.27559 0.44183 0.20422 0.0
C758 C 0.21442 0.3765 0.28689 0.0
C759 C 0.24743 0.46281 0.19162 0.0
H760 H 0.14382 0.39289 0.19665 0.0
H761 H 0.17368 0.43684 0.33137 0.0
H762 H 0.2044 0.4073 0.14529 0.0
H763 H 0.19272 0.37686 0.17804 0.0
H764 H 0.16964 0.38297 0.1445 0.0
H765 H 0.2171 0.45282 0.35833 0.0
H766 H 0.22929 0.43071 0.34312 0.0
H767 H 0.24079 0.46077 0.3092 0.0
H768 H 0.2632 0.3855 0.26414 0.0
H769 H 0.29103 0.45817 0.18354 0.0
H770 H 0.19637 0.36552 0.26403 0.0
H771 H 0.20883 0.38385 0.31995 0.0
H772 H 0.22097 0.3625 0.29903 0.0
H773 H 0.23035 0.45439 0.16596 0.0
H774 H 0.26516 0.47804 0.1716 0.0
H775 H 0.24278 0.47262 0.22197 0.0
C776 C 0.8407 0.26814 0.69513 0.0
C777 C 0.86174 0.27618 0.72841 0.0
C778 C 0.8175 0.24347 0.70001 0.0
C779 C 0.81526 0.22634 0.73905 0.0
C780 C 0.83634 0.23437 0.77294 0.0
C781 C 0.85931 0.25919 0.76726 0.0
C782 C 0.79542 0.23567 0.66319 0.0
C783 C 0.83471 0.21665 0.81502 0.0
C784 C 0.74612 0.17228 0.7756 0.0
C785 C 0.74402 0.15014 0.75088 0.0
C786 C 0.76927 0.19713 0.7725 0.0
C787 C 0.7909 0.19992 0.74408 0.0
C788 C 0.78905 0.17759 0.71958 0.0
C789 C 0.76565 0.153 0.72322 0.0
C790 C 0.77045 0.22047 0.79911 0.0
C791 C 0.81171 0.17975 0.68903 0.0
H792 H 0.84234 0.28112 0.66505 0.0
H793 H 0.87544 0.26521 0.79316 0.0
H794 H 0.79146 0.2173 0.64371 0.0
H795 H 0.77695 0.23137 0.68262 0.0
H796 H 0.80011 0.25139 0.63533 0.0
H797 H 0.8527 0.22591 0.83849 0.0
H798 H 0.81728 0.21183 0.83848 0.0
H799 H 0.83199 0.19768 0.80033 0.0
H800 H 0.72954 0.17031 0.79706 0.0
H801 H 0.76426 0.13602 0.70405 0.0
H802 H 0.7734 0.236 0.77209 0.0
H803 H 0.78758 0.22934 0.82463 0.0
H804 H 0.75217 0.21488 0.82058 0.0
H805 H 0.81607 0.19389 0.65826 0.0
H806 H 0.8074 0.16038 0.67333 0.0
H807 H 0.82984 0.18763 0.71191 0.0
C808 C 0.56389 0.73831 0.18771 0.0
C809 C 0.58628 0.7377 0.20465 0.0
C810 C 0.56393 0.76236 0.18339 0.0
C811 C 0.58696 0.7864 0.19604 0.0
C812 C 0.60978 0.78595 0.21225 0.0
C813 C 0.60914 0.76164 0.21649 0.0
C814 C 0.53917 0.76201 0.16615 0.0
C815 C 0.63479 0.81116 0.22579 0.0
C816 C 0.59608 0.85212 0.14989 0.0
C817 C 0.58959 0.86173 0.192 0.0
C818 C 0.59497 0.82747 0.1504 0.0
C819 C 0.58702 0.81198 0.19396 0.0
C820 C 0.57994 0.82133 0.23625 0.0
C821 C 0.58139 0.8461 0.23481 0.0
C822 C 0.60278 0.81822 0.10463 0.0
C823 C 0.57117 0.80533 0.2833 0.0
H824 H 0.54613 0.71994 0.17847 0.0
H825 H 0.6266 0.76142 0.22938 0.0
H826 H 0.53177 0.76986 0.19566 0.0
H827 H 0.54363 0.77509 0.13357 0.0
H828 H 0.52319 0.74178 0.15623 0.0
H829 H 0.65114 0.80753 0.23597 0.0
H830 H 0.64139 0.82527 0.19443 0.0
H831 H 0.63089 0.82085 0.25738 0.0
H832 H 0.60244 0.86404 0.11664 0.0
H833 H 0.57619 0.85326 0.26747 0.0
H834 H 0.5865 0.79846 0.09327 0.0
H835 H 0.62025 0.81607 0.1126 0.0
H836 H 0.60767 0.83217 0.07326 0.0
H837 H 0.55415 0.78531 0.27582 0.0
H838 H 0.56533 0.81491 0.3123 0.0
H839 H 0.58744 0.80264 0.29783 0.0
C840 C 0.85585 0.61469 0.72905 0.0
C841 C 0.85605 0.59138 0.71696 0.0
C842 C 0.83242 0.61585 0.72672 0.0
C843 C 0.80855 0.59309 0.71242 0.0
C844 C 0.80856 0.56942 0.70069 0.0
C845 C 0.83233 0.56888 0.70287 0.0
C846 C 0.83326 0.64152 0.73913 0.0
C847 C 0.78346 0.54466 0.68573 0.0
C848 C 0.74412 0.59016 0.74815 0.0
C849 C 0.73696 0.59735 0.70386 0.0
C850 C 0.76718 0.58836 0.7513 0.0
C851 C 0.78364 0.59415 0.7093 0.0
C852 C 0.77648 0.60133 0.66446 0.0
C853 C 0.75316 0.60271 0.66221 0.0
C854 C 0.77401 0.58035 0.79962 0.0
C855 C 0.79362 0.60786 0.61898 0.0
H856 H 0.8741 0.63219 0.73983 0.0
H857 H 0.83227 0.55076 0.69365 0.0
H858 H 0.82653 0.64836 0.70697 0.0
H859 H 0.81954 0.6384 0.77008 0.0
H860 H 0.85341 0.65743 0.74961 0.0
H861 H 0.78669 0.52771 0.67879 0.0
H862 H 0.76828 0.53897 0.71505 0.0
H863 H 0.77532 0.54848 0.65176 0.0
H864 H 0.73165 0.58586 0.78046 0.0
H865 H 0.74783 0.60836 0.62788 0.0
H866 H 0.79328 0.59651 0.81326 0.0
H867 H 0.77614 0.56265 0.79414 0.0
H868 H 0.75877 0.5758 0.82845 0.0
H869 H 0.81362 0.62484 0.62669 0.0
H870 H 0.78519 0.61295 0.58689 0.0
H871 H 0.79609 0.59079 0.6088 0.0
C872 C 0.24321 0.85084 0.22379 0.0
C873 C 0.26521 0.85373 0.25005 0.0
C874 C 0.22007 0.82609 0.21968 0.0
C875 C 0.21883 0.80362 0.24236 0.0
C876 C 0.24077 0.80645 0.26963 0.0
C877 C 0.26369 0.83147 0.27316 0.0
C878 C 0.19708 0.8239 0.19036 0.0
C879 C 0.24019 0.78297 0.29439 0.0
C880 C 0.15055 0.74362 0.26251 0.0
C881 C 0.14828 0.7277 0.22182 0.0
C882 C 0.17356 0.76818 0.27015 0.0
C883 C 0.19482 0.77706 0.23628 0.0
C884 C 0.19283 0.7609 0.19562 0.0
C885 C 0.16961 0.73643 0.1889 0.0
C886 C 0.17497 0.78482 0.31402 0.0
C887 C 0.21507 0.76965 0.15871 0.0
H888 H 0.24415 0.8679 0.20588 0.0
H889 H 0.28055 0.83348 0.29357 0.0
H890 H 0.19294 0.81037 0.15858 0.0
H891 H 0.179 0.81526 0.21359 0.0
H892 H 0.2009 0.84338 0.17619 0.0
H893 H 0.25851 0.78864 0.31565 0.0
H894 H 0.223 0.77325 0.31977 0.0
H895 H 0.23774 0.76809 0.26623 0.0
H896 H 0.13421 0.73703 0.28823 0.0
H897 H 0.1681 0.72428 0.15742 0.0
H898 H 0.17697 0.8038 0.30118 0.0
H899 H 0.1927 0.78973 0.33652 0.0
H900 H 0.15716 0.77466 0.33793 0.0
H901 H 0.21865 0.78815 0.1403 0.0
H902 H 0.21077 0.75442 0.12997 0.0
H903 H 0.23364 0.77409 0.17783 0.0
C904 C 0.44266 0.26198 0.768 0.0
C905 C 0.42712 0.26784 0.73677 0.0
C906 C 0.44419 0.23888 0.76146 0.0
C907 C 0.42984 0.22117 0.72275 0.0
C908 C 0.41461 0.22726 0.69038 0.0
C909 C 0.41343 0.25052 0.69777 0.0
C910 C 0.4607 0.23312 0.79672 0.0
C911 C 0.39908 0.20891 0.64861 0.0
C912 C 0.44927 0.17019 0.68537 0.0
C913 C 0.43061 0.14766 0.71119 0.0
C914 C 0.44909 0.19419 0.68825 0.0
C915 C 0.42981 0.19569 0.71766 0.0
C916 C 0.41072 0.17293 0.74325 0.0
C917 C 0.41134 0.14923 0.7397 0.0
C918 C 0.46974 0.21802 0.66036 0.0
C919 C 0.38981 0.1737 0.77499 0.0
H920 H 0.45338 0.27526 0.79814 0.0
H921 H 0.40143 0.2549 0.67335 0.0
H922 H 0.44778 0.2147 0.81757 0.0
H923 H 0.47518 0.2298 0.77596 0.0
H924 H 0.47161 0.24946 0.82351 0.0
H925 H 0.38929 0.21714 0.62522 0.0
H926 H 0.41229 0.20498 0.62501 0.0
H927 H 0.38368 0.1896 0.66373 0.0
H928 H 0.46423 0.16919 0.66322 0.0
H929 H 0.3968 0.13195 0.75975 0.0
H930 H 0.48209 0.2341 0.68664 0.0
H931 H 0.46006 0.22573 0.63551 0.0
H932 H 0.48289 0.2134 0.63797 0.0
H933 H 0.39935 0.18835 0.80512 0.0
H934 H 0.37604 0.15414 0.79166 0.0
H935 H 0.37814 0.18019 0.75271 0.0
loop_
_geom_bond_atom_site_label_1
_geom_bond_atom_site_label_2
_geom_bond_distance
_geom_bond_site_symmetry_2
_ccdc_geom_bond_type
Zn0 O3 2.031 . S
Zn0 O5 2.049 . S
Zn0 O10 2.067 . S
Zn1 O2 1.962 . S
Zn1 O4 1.986 . S
Zn1 O6 1.996 . S
Zn1 O9 1.943 . S
O2 Zn1 1.962 . S
O2 C7 1.254 . S
O3 Zn0 2.031 . S
O3 C7 1.269 . S
O4 Zn1 1.986 . S
O4 C11 1.262 . S
O5 Zn0 2.049 . S
O5 C13 1.260 . S
O6 Zn1 1.996 . S
O6 C13 1.257 . S
C7 O2 1.254 . S
C7 O3 1.269 . S
C8 O9 1.249 . S
C8 O10 1.270 . S
O9 Zn1 1.943 . S
O9 C8 1.249 . S
O10 Zn0 2.067 . S
O10 C8 1.270 . S
C11 O4 1.262 . S
C11 O12 1.232 . S
O12 C11 1.232 . S
C13 O5 1.260 . S
C13 O6 1.257 . S
Zn14 O17 2.031 . S
Zn14 O19 2.049 . S
Zn14 O24 2.067 . S
Zn15 O16 1.962 . S
Zn15 O18 1.986 . S
Zn15 O20 1.996 . S
Zn15 O23 1.943 . S
O16 Zn15 1.962 . S
O16 C21 1.254 . S
O17 Zn14 2.031 . S
O17 C21 1.269 . S
O18 Zn15 1.986 . S
O18 C25 1.262 . S
O19 Zn14 2.049 . S
O19 C27 1.260 . S
O20 Zn15 1.996 . S
O20 C27 1.257 . S
C21 O16 1.254 . S
C21 O17 1.269 . S
C22 O23 1.249 . S
C22 O24 1.270 . S
O23 Zn15 1.943 . S
O23 C22 1.249 . S
O24 Zn14 2.067 . S
O24 C22 1.270 . S
C25 O18 1.262 . S
C25 O26 1.232 . S
O26 C25 1.232 . S
C27 O19 1.260 . S
C27 O20 1.257 . S
Zn28 O31 2.031 . S
Zn28 O33 2.049 . S
Zn28 O38 2.067 . S
Zn29 O30 1.962 . S
Zn29 O32 1.986 . S
Zn29 O34 1.996 . S
Zn29 O37 1.943 . S
O30 Zn29 1.962 . S
O30 C35 1.254 . S
O31 Zn28 2.031 . S
O31 C35 1.269 . S
O32 Zn29 1.986 . S
O32 C39 1.262 . S
O33 Zn28 2.049 . S
O33 C41 1.260 . S
O34 Zn29 1.996 . S
O34 C41 1.257 . S
C35 O30 1.254 . S
C35 O31 1.269 . S
C36 O37 1.249 . S
C36 O38 1.270 . S
O37 Zn29 1.943 . S
O37 C36 1.249 . S
O38 Zn28 2.067 . S
O38 C36 1.270 . S
C39 O32 1.262 . S
C39 O40 1.232 . S
O40 C39 1.232 . S
C41 O33 1.260 . S
C41 O34 1.257 . S
Zn42 O45 2.031 . S
Zn42 O47 2.049 . S
Zn42 O52 2.067 . S
Zn43 O44 1.962 . S
Zn43 O46 1.986 . S
Zn43 O48 1.996 . S
Zn43 O51 1.943 . S
O44 Zn43 1.962 . S
O44 C49 1.254 . S
O45 Zn42 2.031 . S
O45 C49 1.269 . S
O46 Zn43 1.986 . S
O46 C53 1.262 . S
O47 Zn42 2.049 . S
O47 C55 1.260 . S
O48 Zn43 1.996 . S
O48 C55 1.257 . S
C49 O44 1.254 . S
C49 O45 1.269 . S
C50 O51 1.249 . S
C50 O52 1.270 . S
O51 Zn43 1.943 . S
O51 C50 1.249 . S
O52 Zn42 2.067 . S
O52 C50 1.270 . S
C53 O46 1.262 . S
C53 O54 1.232 . S
O54 C53 1.232 . S
C55 O47 1.260 . S
C55 O48 1.257 . S
Zn56 O59 2.031 . S
Zn56 O61 2.049 . S
Zn56 O66 2.067 . S
Zn57 O58 1.962 . S
Zn57 O60 1.986 . S
Zn57 O62 1.996 . S
Zn57 O65 1.943 . S
O58 Zn57 1.962 . S
O58 C63 1.254 . S
O59 Zn56 2.031 . S
O59 C63 1.269 . S
O60 Zn57 1.986 . S
O60 C67 1.262 . S
O61 Zn56 2.049 . S
O61 C69 1.260 . S
O62 Zn57 1.996 . S
O62 C69 1.257 . S
C63 O58 1.254 . S
C63 O59 1.269 . S
C64 O65 1.249 . S
C64 O66 1.270 . S
O65 Zn57 1.943 . S
O65 C64 1.249 . S
O66 Zn56 2.067 . S
O66 C64 1.270 . S
C67 O60 1.262 . S
C67 O68 1.232 . S
O68 C67 1.232 . S
C69 O61 1.260 . S
C69 O62 1.257 . S
Zn70 O73 2.031 . S
Zn70 O75 2.049 . S
Zn70 O80 2.067 . S
Zn71 O72 1.962 . S
Zn71 O74 1.986 . S
Zn71 O76 1.996 . S
Zn71 O79 1.943 . S
O72 Zn71 1.962 . S
O72 C77 1.254 . S
O73 Zn70 2.031 . S
O73 C77 1.269 . S
O74 Zn71 1.986 . S
O74 C81 1.262 . S
O75 Zn70 2.049 . S
O75 C83 1.260 . S
O76 Zn71 1.996 . S
O76 C83 1.257 . S
C77 O72 1.254 . S
C77 O73 1.269 . S
C78 O79 1.249 . S
C78 O80 1.270 . S
O79 Zn71 1.943 . S
O79 C78 1.249 . S
O80 Zn70 2.067 . S
O80 C78 1.270 . S
C81 O74 1.262 . S
C81 O82 1.232 . S
O82 C81 1.232 . S
C83 O75 1.260 . S
C83 O76 1.257 . S
Zn84 O87 2.031 . S
Zn84 O89 2.049 . S
Zn84 O94 2.067 . S
Zn85 O86 1.962 . S
Zn85 O88 1.986 . S
Zn85 O90 1.996 . S
Zn85 O93 1.943 . S
O86 Zn85 1.962 . S
O86 C91 1.254 . S
O87 Zn84 2.031 . S
O87 C91 1.269 . S
O88 Zn85 1.986 . S
O88 C95 1.262 . S
O89 Zn84 2.049 . S
O89 C97 1.260 . S
O90 Zn85 1.996 . S
O90 C97 1.257 . S
C91 O86 1.254 . S
C91 O87 1.269 . S
C92 O93 1.249 . S
C92 O94 1.270 . S
O93 Zn85 1.943 . S
O93 C92 1.249 . S
O94 Zn84 2.067 . S
O94 C92 1.270 . S
C95 O88 1.262 . S
C95 O96 1.232 . S
O96 C95 1.232 . S
C97 O89 1.260 . S
C97 O90 1.257 . S
Zn98 O101 2.031 . S
Zn98 O103 2.049 . S
Zn98 O108 2.067 . S
Zn99 O100 1.962 . S
Zn99 O102 1.986 . S
Zn99 O104 1.996 . S
Zn99 O107 1.943 . S
O100 Zn99 1.962 . S
O100 C105 1.254 . S
O101 Zn98 2.031 . S
O101 C105 1.269 . S
O102 Zn99 1.986 . S
O102 C109 1.262 . S
O103 Zn98 2.049 . S
O103 C111 1.260 . S
O104 Zn99 1.996 . S
O104 C111 1.257 . S
C105 O100 1.254 . S
C105 O101 1.269 . S
C106 O107 1.249 . S
C106 O108 1.270 . S
O107 Zn99 1.943 . S
O107 C106 1.249 . S
O108 Zn98 2.067 . S
O108 C106 1.270 . S
C109 O102 1.262 . S
C109 O110 1.232 . S
O110 C109 1.232 . S
C111 O103 1.260 . S
C111 O104 1.257 . S
Zn112 O115 2.031 . S
Zn112 O117 2.049 . S
Zn112 O122 2.067 . S
Zn113 O114 1.962 . S
Zn113 O116 1.986 . S
Zn113 O118 1.996 . S
Zn113 O121 1.943 . S
O114 Zn113 1.962 . S
O114 C119 1.254 . S
O115 Zn112 2.031 . S
O115 C119 1.269 . S
O116 Zn113 1.986 . S
O116 C123 1.262 . S
O117 Zn112 2.049 . S
O117 C125 1.260 . S
O118 Zn113 1.996 . S
O118 C125 1.257 . S
C119 O114 1.254 . S
C119 O115 1.269 . S
C120 O121 1.249 . S
C120 O122 1.270 . S
O121 Zn113 1.943 . S
O121 C120 1.249 . S
O122 Zn112 2.067 . S
O122 C120 1.270 . S
C123 O116 1.262 . S
C123 O124 1.232 . S
O124 C123 1.232 . S
C125 O117 1.260 . S
C125 O118 1.257 . S
Zn126 O129 2.031 . S
Zn126 O131 2.049 . S
Zn126 O136 2.067 . S
Zn127 O128 1.962 . S
Zn127 O130 1.986 . S
Zn127 O132 1.996 . S
Zn127 O135 1.943 . S
O128 Zn127 1.962 . S
O128 C133 1.254 . S
O129 Zn126 2.031 . S
O129 C133 1.269 . S
O130 Zn127 1.986 . S
O130 C137 1.262 . S
O131 Zn126 2.049 . S
O131 C139 1.260 . S
O132 Zn127 1.996 . S
O132 C139 1.257 . S
C133 O128 1.254 . S
C133 O129 1.269 . S
C134 O135 1.249 . S
C134 O136 1.270 . S
O135 Zn127 1.943 . S
O135 C134 1.249 . S
O136 Zn126 2.067 . S
O136 C134 1.270 . S
C137 O130 1.262 . S
C137 O138 1.232 . S
O138 C137 1.232 . S
C139 O131 1.260 . S
C139 O132 1.257 . S
Zn140 O143 2.031 . S
Zn140 O145 2.049 . S
Zn140 O150 2.067 . S
Zn141 O142 1.962 . S
Zn141 O144 1.986 . S
Zn141 O146 1.996 . S
Zn141 O149 1.943 . S
O142 Zn141 1.962 . S
O142 C147 1.254 . S
O143 Zn140 2.031 . S
O143 C147 1.269 . S
O144 Zn141 1.986 . S
O144 C151 1.262 . S
O145 Zn140 2.049 . S
O145 C153 1.260 . S
O146 Zn141 1.996 . S
O146 C153 1.257 . S
C147 O142 1.254 . S
C147 O143 1.269 . S
C148 O149 1.249 . S
C148 O150 1.270 . S
O149 Zn141 1.943 . S
O149 C148 1.249 . S
O150 Zn140 2.067 . S
O150 C148 1.270 . S
C151 O144 1.262 . S
C151 O152 1.232 . S
O152 C151 1.232 . S
C153 O145 1.260 . S
C153 O146 1.257 . S
Zn154 O157 2.031 . S
Zn154 O159 2.049 . S
Zn154 O164 2.067 . S
Zn155 O156 1.962 . S
Zn155 O158 1.986 . S
Zn155 O160 1.996 . S
Zn155 O163 1.943 . S
O156 Zn155 1.962 . S
O156 C161 1.254 . S
O157 Zn154 2.031 . S
O157 C161 1.269 . S
O158 Zn155 1.986 . S
O158 C165 1.262 . S
O159 Zn154 2.049 . S
O159 C167 1.260 . S
O160 Zn155 1.996 . S
O160 C167 1.257 . S
C161 O156 1.254 . S
C161 O157 1.269 . S
C162 O163 1.249 . S
C162 O164 1.270 . S
O163 Zn155 1.943 . S
O163 C162 1.249 . S
O164 Zn154 2.067 . S
O164 C162 1.270 . S
C165 O158 1.262 . S
C165 O166 1.232 . S
O166 C165 1.232 . S
C167 O159 1.260 . S
C167 O160 1.257 . S
C168 C169 1.391 . S
C168 C170 1.394 . S
C168 H184 0.931 . S
C169 C168 1.391 . S
C169 C173 1.376 . S
C170 C168 1.394 . S
C170 C171 1.369 . S
C170 C174 1.531 1_554 S
C171 C170 1.369 . S
C171 C172 1.410 1_455 S
C171 C179 1.503 1_454 S
C172 C171 1.410 1_655 S
C172 C173 1.392 1_655 S
C172 C175 1.511 . S
C173 C169 1.376 . S
C173 C172 1.392 1_455 S
C173 H185 0.929 1_455 S
C174 C170 1.531 1_556 S
C174 H186 0.960 . S
C174 H187 0.962 . S
C174 H188 0.960 . S
C175 C172 1.511 . S
C175 H189 0.961 . S
C175 H190 0.961 . S
C175 H191 0.961 . S
C176 C177 1.370 . S
C176 C178 1.363 . S
C176 H192 0.931 . S
C177 C176 1.370 . S
C177 C181 1.408 . S
C178 C176 1.363 . S
C178 C179 1.370 . S
C178 C182 1.524 . S
C179 C171 1.503 1_656 S
C179 C178 1.370 . S
C179 C180 1.403 . S
C180 C179 1.403 . S
C180 C181 1.404 . S
C180 C183 1.539 . S
C181 C177 1.408 . S
C181 C180 1.404 . S
C181 H193 0.930 . S
C182 C178 1.524 . S
C182 H194 0.956 1_655 S
C182 H195 0.961 1_556 S
C182 H196 0.961 . S
C183 C180 1.539 . S
C183 H197 0.958 1_655 S
C183 H198 0.961 . S
C183 H199 0.960 1_556 S
H184 C168 0.931 . S
H185 C173 0.929 1_655 S
H186 C174 0.960 . S
H187 C174 0.962 . S
H188 C174 0.960 . S
H189 C175 0.961 . S
H190 C175 0.961 . S
H191 C175 0.961 . S
H192 C176 0.931 . S
H193 C181 0.930 . S
H194 C182 0.956 1_455 S
H195 C182 0.961 1_554 S
H196 C182 0.961 . S
H197 C183 0.958 1_455 S
H198 C183 0.961 . S
H199 C183 0.960 1_554 S
C200 C201 1.391 . S
C200 C202 1.395 1_565 S
C200 H216 0.931 . S
C201 C200 1.391 . S
C201 C205 1.376 . S
C202 C200 1.395 1_545 S
C202 C203 1.368 1_545 S
C202 C206 1.530 . S
C203 C202 1.368 1_565 S
C203 C204 1.410 . S
C203 C211 1.503 1_565 S
C204 C203 1.410 . S
C204 C205 1.392 . S
C204 C207 1.511 . S
C205 C201 1.376 . S
C205 C204 1.392 . S
C205 H217 0.929 . S
C206 C202 1.530 . S
C206 H218 0.960 . S
C206 H219 0.962 . S
C206 H220 0.960 . S
C207 C204 1.511 . S
C207 H221 0.961 . S
C207 H222 0.961 . S
C207 H223 0.961 . S
C208 C209 1.370 . S
C208 C210 1.363 1_545 S
C208 H224 0.950 . S
C209 C208 1.370 . S
C209 C213 1.408 . S
C210 C208 1.363 1_565 S
C210 C211 1.370 1_565 S
C210 C214 1.524 . S
C211 C203 1.503 1_545 S
C211 C210 1.370 1_545 S
C211 C212 1.403 . S
C212 C211 1.403 . S
C212 C213 1.404 . S
C212 C215 1.539 . S
C213 C209 1.408 . S
C213 C212 1.404 . S
C213 H225 0.930 . S
C214 C210 1.524 . S
C214 H226 0.956 . S
C214 H227 0.961 . S
C214 H228 0.961 . S
C215 C212 1.539 . S
C215 H229 0.958 . S
C215 H230 0.961 . S
C215 H231 0.960 . S
H216 C200 0.931 . S
H217 C205 0.929 . S
H218 C206 0.960 . S
H219 C206 0.962 . S
H220 C206 0.960 . S
H221 C207 0.961 . S
H222 C207 0.961 . S
H223 C207 0.961 . S
H224 C208 0.950 . S
H225 C213 0.930 . S
H226 C214 0.956 . S
H227 C214 0.961 . S
H228 C214 0.961 . S
H229 C215 0.958 . S
H230 C215 0.961 . S
H231 C215 0.960 . S
C232 C233 1.391 . S
C232 C234 1.394 . S
C232 H248 0.931 . S
C233 C232 1.391 . S
C233 C237 1.376 . S
C234 C232 1.394 . S
C234 C235 1.369 . S
C234 C238 1.531 . S
C235 C234 1.369 . S
C235 C236 1.410 . S
C235 C243 1.503 1_554 S
C236 C235 1.410 . S
C236 C237 1.392 . S
C236 C239 1.511 1_554 S
C237 C233 1.376 . S
C237 C236 1.392 . S
C237 H249 0.929 . S
C238 C234 1.531 . S
C238 H250 0.960 . S
C238 H251 0.962 . S
C238 H252 0.960 . S
C239 C236 1.511 1_556 S
C239 H253 0.961 . S
C239 H254 0.961 . S
C239 H255 0.961 . S
C240 C241 1.370 . S
C240 C242 1.363 . S
C240 H256 0.931 . S
C241 C240 1.370 . S
C241 C245 1.408 . S
C242 C240 1.363 . S
C242 C243 1.370 . S
C242 C246 1.524 . S
C243 C235 1.503 1_556 S
C243 C242 1.370 . S
C243 C244 1.403 . S
C244 C243 1.403 . S
C244 C245 1.404 . S
C244 C247 1.539 . S
C245 C241 1.408 . S
C245 C244 1.404 . S
C245 H257 0.930 . S
C246 C242 1.524 . S
C246 H258 0.956 . S
C246 H259 0.961 . S
C246 H260 0.961 . S
C247 C244 1.539 . S
C247 H261 0.958 1_556 S
C247 H262 0.961 . S
C247 H263 0.960 1_556 S
H248 C232 0.931 . S
H249 C237 0.929 . S
H250 C238 0.960 . S
H251 C238 0.962 . S
H252 C238 0.960 . S
H253 C239 0.961 . S
H254 C239 0.961 . S
H255 C239 0.961 . S
H256 C240 0.931 . S
H257 C245 0.930 . S
H258 C246 0.956 . S
H259 C246 0.961 . S
H260 C246 0.961 . S
H261 C247 0.958 1_554 S
H262 C247 0.961 . S
H263 C247 0.960 1_554 S
C264 C265 1.391 . S
C264 C266 1.394 1_455 S
C264 H280 0.931 1_455 S
C265 C264 1.391 . S
C265 C269 1.376 . S
C266 C264 1.394 1_655 S
C266 C267 1.369 1_655 S
C266 C270 1.531 . S
C267 C266 1.369 1_455 S
C267 C268 1.410 . S
C267 C275 1.503 1_455 S
C268 C267 1.410 . S
C268 C269 1.392 . S
C268 C271 1.511 . S
C269 C265 1.376 . S
C269 C268 1.392 . S
C269 H281 0.929 . S
C270 C266 1.531 . S
C270 H282 0.960 . S
C270 H283 0.962 . S
C270 H284 0.960 . S
C271 C268 1.511 . S
C271 H285 0.961 . S
C271 H286 0.961 . S
C271 H287 0.961 . S
C272 C273 1.370 . S
C272 C274 1.363 . S
C272 H288 0.931 . S
C273 C272 1.370 . S
C273 C277 1.408 . S
C274 C272 1.363 . S
C274 C275 1.370 . S
C274 C278 1.524 . S
C275 C267 1.503 1_655 S
C275 C274 1.370 . S
C275 C276 1.403 . S
C276 C275 1.403 . S
C276 C277 1.404 . S
C276 C279 1.539 . S
C277 C273 1.408 . S
C277 C276 1.404 . S
C277 H289 0.930 . S
C278 C274 1.524 . S
C278 H290 0.956 . S
C278 H291 0.961 1_655 S
C278 H292 0.961 . S
C279 C276 1.539 . S
C279 H293 0.958 . S
C279 H294 0.961 . S
C279 H295 0.960 1_655 S
H280 C264 0.931 1_655 S
H281 C269 0.929 . S
H282 C270 0.960 . S
H283 C270 0.962 . S
H284 C270 0.960 . S
H285 C271 0.961 . S
H286 C271 0.961 . S
H287 C271 0.961 . S
H288 C272 0.931 . S
H289 C277 0.930 . S
H290 C278 0.956 . S
H291 C278 0.961 1_455 S
H292 C278 0.961 . S
H293 C279 0.958 . S
H294 C279 0.961 . S
H295 C279 0.960 1_455 S
C296 C297 1.391 . S
C296 C298 1.394 . S
C296 H312 0.931 . S
C297 C296 1.391 . S
C297 C301 1.376 . S
C298 C296 1.394 . S
C298 C299 1.369 . S
C298 C302 1.531 1_545 S
C299 C298 1.369 . S
C299 C300 1.410 . S
C299 C307 1.503 1_546 S
C300 C299 1.410 . S
C300 C301 1.392 . S
C300 C303 1.511 . S
C301 C297 1.376 . S
C301 C300 1.392 . S
C301 H313 0.929 . S
C302 C298 1.531 1_565 S
C302 H314 0.960 . S
C302 H315 0.962 1_565 S
C302 H316 0.960 . S
C303 C300 1.511 . S
C303 H317 0.961 . S
C303 H318 0.961 1_556 S
C303 H319 0.961 1_545 S
C304 C305 1.370 . S
C304 C306 1.363 1_565 S
C304 H320 0.931 1_565 S
C305 C304 1.370 . S
C305 C309 1.408 . S
C306 C304 1.363 1_545 S
C306 C307 1.370 1_545 S
C306 C310 1.524 . S
C307 C299 1.503 1_564 S
C307 C306 1.370 1_565 S
C307 C308 1.403 . S
C308 C307 1.403 . S
C308 C309 1.404 . S
C308 C311 1.539 1_554 S
C309 C305 1.408 . S
C309 C308 1.404 . S
C309 H321 0.930 . S
C310 C306 1.524 . S
C310 H322 0.956 . S
C310 H323 0.961 . S
C310 H324 0.961 . S
C311 C308 1.539 1_556 S
C311 H325 0.958 . S
C311 H326 0.961 . S
C311 H327 0.960 . S
H312 C296 0.931 . S
H313 C301 0.929 . S
H314 C302 0.960 . S
H315 C302 0.962 1_545 S
H316 C302 0.960 . S
H317 C303 0.961 . S
H318 C303 0.961 1_554 S
H319 C303 0.961 1_565 S
H320 C304 0.931 1_545 S
H321 C309 0.930 . S
H322 C310 0.956 . S
H323 C310 0.961 . S
H324 C310 0.961 . S
H325 C311 0.958 . S
H326 C311 0.961 . S
H327 C311 0.960 . S
C328 C329 1.391 . S
C328 C330 1.394 . S
C328 H344 0.931 . S
C329 C328 1.391 . S
C329 C333 1.376 . S
C330 C328 1.394 . S
C330 C331 1.369 . S
C330 C334 1.531 . S
C331 C330 1.369 . S
C331 C332 1.410 . S
C331 C339 1.503 . S
C332 C331 1.410 . S
C332 C333 1.392 . S
C332 C335 1.511 . S
C333 C329 1.376 . S
C333 C332 1.392 . S
C333 H345 0.929 . S
C334 C330 1.531 . S
C334 H346 0.960 . S
C334 H347 0.962 . S
C334 H348 0.960 . S
C335 C332 1.511 . S
C335 H349 0.961 . S
C335 H350 0.961 . S
C335 H351 0.961 . S
C336 C337 1.370 . S
C336 C338 1.363 . S
C336 H352 0.931 . S
C337 C336 1.370 . S
C337 C341 1.408 . S
C338 C336 1.363 . S
C338 C339 1.370 . S
C338 C342 1.524 . S
C339 C331 1.503 . S
C339 C338 1.370 . S
C339 C340 1.403 . S
C340 C339 1.403 . S
C340 C341 1.404 . S
C340 C343 1.539 . S
C341 C337 1.408 . S
C341 C340 1.404 . S
C341 H353 0.930 . S
C342 C338 1.524 . S
C342 H354 0.956 . S
C342 H355 0.961 . S
C342 H356 0.961 . S
C343 C340 1.539 . S
C343 H357 0.958 . S
C343 H358 0.961 . S
C343 H359 0.960 . S
H344 C328 0.931 . S
H345 C333 0.929 . S
H346 C334 0.960 . S
H347 C334 0.962 . S
H348 C334 0.960 . S
H349 C335 0.961 . S
H350 C335 0.961 . S
H351 C335 0.961 . S
H352 C336 0.931 . S
H353 C341 0.930 . S
H354 C342 0.956 . S
H355 C342 0.961 . S
H356 C342 0.961 . S
H357 C343 0.958 . S
H358 C343 0.961 . S
H359 C343 0.960 . S
C360 C361 1.391 . S
C360 C362 1.394 . S
C360 H376 0.931 . S
C361 C360 1.391 . S
C361 C365 1.376 . S
C362 C360 1.394 . S
C362 C363 1.369 . S
C362 C366 1.531 1_556 S
C363 C362 1.369 . S
C363 C364 1.410 1_655 S
C363 C371 1.503 1_656 S
C364 C363 1.410 1_455 S
C364 C365 1.392 1_455 S
C364 C367 1.511 . S
C365 C361 1.376 . S
C365 C364 1.392 1_655 S
C365 H377 0.929 1_655 S
C366 C362 1.531 1_554 S
C366 H378 0.960 . S
C366 H379 0.962 . S
C366 H380 0.960 . S
C367 C364 1.511 . S
C367 H381 0.961 . S
C367 H382 0.961 . S
C367 H383 0.961 . S
C368 C369 1.370 . S
C368 C370 1.363 . S
C368 H384 0.931 . S
C369 C368 1.370 . S
C369 C373 1.408 . S
C370 C368 1.363 . S
C370 C371 1.370 . S
C370 C374 1.524 1_455 S
C371 C363 1.503 1_454 S
C371 C370 1.370 . S
C371 C372 1.403 . S
C372 C371 1.403 . S
C372 C373 1.404 . S
C372 C375 1.539 . S
C373 C369 1.408 . S
C373 C372 1.404 . S
C373 H385 0.930 . S
C374 C370 1.524 1_655 S
C374 H386 0.956 . S
C374 H387 0.961 1_654 S
C374 H388 0.958 . S
C375 C372 1.539 . S
C375 H389 0.958 . S
C375 H390 0.961 . S
C375 H391 0.960 1_554 S
H376 C360 0.931 . S
H377 C365 0.929 1_455 S
H378 C366 0.960 . S
H379 C366 0.962 . S
H380 C366 0.960 . S
H381 C367 0.961 . S
H382 C367 0.961 . S
H383 C367 0.961 . S
H384 C368 0.931 . S
H385 C373 0.930 . S
H386 C374 0.956 . S
H387 C374 0.961 1_456 S
H388 C374 0.958 . S
H389 C375 0.958 . S
H390 C375 0.961 . S
H391 C375 0.960 1_556 S
C392 C393 1.391 . S
C392 C394 1.394 1_565 S
C392 H408 0.931 . S
C393 C392 1.391 . S
C393 C397 1.376 . S
C394 C392 1.394 1_545 S
C394 C395 1.369 1_545 S
C394 C398 1.531 . S
C395 C394 1.369 1_565 S
C395 C396 1.410 . S
C395 C403 1.503 1_565 S
C396 C395 1.410 . S
C396 C397 1.392 . S
C396 C399 1.511 . S
C397 C393 1.376 . S
C397 C396 1.392 . S
C397 H409 0.929 . S
C398 C394 1.531 . S
C398 H410 0.960 . S
C398 H411 0.962 . S
C398 H412 0.960 . S
C399 C396 1.511 . S
C399 H413 0.961 . S
C399 H414 0.961 . S
C399 H415 0.961 . S
C400 C401 1.370 . S
C400 C402 1.367 . S
C400 H416 0.931 . S
C401 C400 1.370 . S
C401 C405 1.408 . S
C402 C400 1.367 . S
C402 C403 1.377 . S
C402 C406 1.513 1_545 S
C403 C395 1.503 1_545 S
C403 C402 1.377 . S
C403 C404 1.403 . S
C404 C403 1.403 . S
C404 C405 1.404 . S
C404 C407 1.539 . S
C405 C401 1.408 . S
C405 C404 1.404 . S
C405 H417 0.930 . S
C406 C402 1.513 1_565 S
C406 H418 0.956 . S
C406 H419 0.961 . S
C406 H420 0.961 . S
C407 C404 1.539 . S
C407 H421 0.958 . S
C407 H422 0.961 . S
C407 H423 0.960 . S
H408 C392 0.931 . S
H409 C397 0.929 . S
H410 C398 0.960 . S
H411 C398 0.962 . S
H412 C398 0.960 . S
H413 C399 0.961 . S
H414 C399 0.961 . S
H415 C399 0.961 . S
H416 C400 0.931 . S
H417 C405 0.930 . S
H418 C406 0.956 . S
H419 C406 0.961 . S
H420 C406 0.961 . S
H421 C407 0.958 . S
H422 C407 0.961 . S
H423 C407 0.960 . S
C424 C425 1.391 . S
C424 C426 1.394 . S
C424 H440 0.931 . S
C425 C424 1.391 . S
C425 C429 1.376 . S
C426 C424 1.394 . S
C426 C427 1.369 . S
C426 C430 1.531 . S
C427 C426 1.369 . S
C427 C428 1.410 . S
C427 C435 1.503 1_556 S
C428 C427 1.410 . S
C428 C429 1.392 . S
C428 C431 1.511 . S
C429 C425 1.376 . S
C429 C428 1.392 . S
C429 H441 0.929 . S
C430 C426 1.531 . S
C430 H442 0.960 1_556 S
C430 H443 0.962 . S
C430 H444 0.960 . S
C431 C428 1.511 . S
C431 H445 0.961 . S
C431 H446 0.961 1_556 S
C431 H447 0.961 1_556 S
C432 C433 1.370 . S
C432 C434 1.363 . S
C432 H448 0.931 . S
C433 C432 1.370 . S
C433 C437 1.408 . S
C434 C432 1.363 . S
C434 C435 1.370 . S
C434 C438 1.524 1_554 S
C435 C427 1.503 1_554 S
C435 C434 1.370 . S
C435 C436 1.403 . S
C436 C435 1.403 . S
C436 C437 1.404 . S
C436 C439 1.539 . S
C437 C433 1.408 . S
C437 C436 1.404 . S
C437 H449 0.930 . S
C438 C434 1.524 1_556 S
C438 H450 0.956 . S
C438 H451 0.961 . S
C438 H452 0.961 . S
C439 C436 1.539 . S
C439 H453 0.958 . S
C439 H454 0.961 . S
C439 H455 0.960 . S
H440 C424 0.931 . S
H441 C429 0.929 . S
H442 C430 0.960 1_554 S
H443 C430 0.962 . S
H444 C430 0.960 . S
H445 C431 0.961 . S
H446 C431 0.961 1_554 S
H447 C431 0.961 1_554 S
H448 C432 0.931 . S
H449 C437 0.930 . S
H450 C438 0.956 . S
H451 C438 0.961 . S
H452 C438 0.961 . S
H453 C439 0.958 . S
H454 C439 0.961 . S
H455 C439 0.960 . S
C456 C457 1.391 . S
C456 C458 1.394 . S
C456 H472 0.931 . S
C457 C456 1.391 . S
C457 C461 1.376 . S
C458 C456 1.394 . S
C458 C459 1.369 . S
C458 C462 1.531 1_655 S
C459 C458 1.369 . S
C459 C460 1.410 . S
C459 C467 1.503 1_655 S
C460 C459 1.410 . S
C460 C461 1.392 . S
C460 C463 1.511 . S
C461 C457 1.376 . S
C461 C460 1.392 . S
C461 H473 0.929 . S
C462 C458 1.531 1_455 S
C462 H474 0.960 . S
C462 H475 0.962 1_455 S
C462 H476 0.960 . S
C463 C460 1.511 . S
C463 H477 0.961 . S
C463 H478 0.961 . S
C463 H479 0.961 1_655 S
C464 C465 1.370 . S
C464 C466 1.363 1_455 S
C464 H480 0.931 1_455 S
C465 C464 1.370 . S
C465 C469 1.408 . S
C466 C464 1.363 1_655 S
C466 C467 1.370 1_655 S
C466 C470 1.524 . S
C467 C459 1.503 1_455 S
C467 C466 1.370 1_455 S
C467 C468 1.403 . S
C468 C467 1.403 . S
C468 C469 1.404 . S
C468 C471 1.539 . S
C469 C465 1.408 . S
C469 C468 1.404 . S
C469 H481 0.930 . S
C470 C466 1.524 . S
C470 H482 0.956 . S
C470 H483 0.961 . S
C470 H484 0.961 . S
C471 C468 1.539 . S
C471 H485 0.958 . S
C471 H486 0.961 . S
C471 H487 0.960 . S
H472 C456 0.931 . S
H473 C461 0.929 . S
H474 C462 0.960 . S
H475 C462 0.962 1_655 S
H476 C462 0.960 . S
H477 C463 0.961 . S
H478 C463 0.961 . S
H479 C463 0.961 1_455 S
H480 C464 0.931 1_655 S
H481 C469 0.930 . S
H482 C470 0.956 . S
H483 C470 0.961 . S
H484 C470 0.961 . S
H485 C471 0.958 . S
H486 C471 0.961 . S
H487 C471 0.960 . S
C488 C489 1.391 . S
C488 C490 1.374 1_545 S
C488 H504 0.931 . S
C489 C488 1.391 . S
C489 C493 1.376 . S
C490 C488 1.374 1_565 S
C490 C491 1.382 1_565 S
C490 C494 1.539 . S
C491 C490 1.382 1_545 S
C491 C492 1.410 . S
C491 C499 1.503 1_546 S
C492 C491 1.410 . S
C492 C493 1.392 . S
C492 C495 1.511 . S
C493 C489 1.376 . S
C493 C492 1.392 . S
C493 H505 0.929 . S
C494 C490 1.539 . S
C494 H506 0.960 . S
C494 H507 0.962 . S
C494 H508 0.960 . S
C495 C492 1.511 . S
C495 H509 0.961 . S
C495 H510 0.961 1_556 S
C495 H511 0.961 . S
C496 C497 1.370 . S
C496 C498 1.363 1_565 S
C496 H512 0.940 . S
C497 C496 1.370 . S
C497 C501 1.408 . S
C498 C496 1.363 1_545 S
C498 C499 1.370 1_545 S
C498 C502 1.524 . S
C499 C491 1.503 1_564 S
C499 C498 1.370 1_565 S
C499 C500 1.403 . S
C500 C499 1.403 . S
C500 C501 1.404 . S
C500 C503 1.539 1_554 S
C501 C497 1.408 . S
C501 C500 1.404 . S
C501 H513 0.930 . S
C502 C498 1.524 . S
C502 H514 0.956 . S
C502 H515 0.961 . S
C502 H516 0.961 . S
C503 C500 1.539 1_556 S
C503 H517 0.958 . S
C503 H518 0.961 . S
C503 H519 0.960 . S
H504 C488 0.931 . S
H505 C493 0.929 . S
H506 C494 0.960 . S
H507 C494 0.962 . S
H508 C494 0.960 . S
H509 C495 0.961 . S
H510 C495 0.961 1_554 S
H511 C495 0.961 . S
H512 C496 0.940 . S
H513 C501 0.930 . S
H514 C502 0.956 . S
H515 C502 0.961 . S
H516 C502 0.961 . S
H517 C503 0.958 . S
H518 C503 0.961 . S
H519 C503 0.960 . S
C520 C521 1.391 . S
C520 C522 1.394 . S
C520 H536 0.931 . S
C521 C520 1.391 . S
C521 C525 1.376 . S
C522 C520 1.394 . S
C522 C523 1.369 . S
C522 C526 1.531 . S
C523 C522 1.369 . S
C523 C524 1.410 . S
C523 C531 1.503 . S
C524 C523 1.410 . S
C524 C525 1.392 . S
C524 C527 1.511 . S
C525 C521 1.376 . S
C525 C524 1.392 . S
C525 H537 0.929 . S
C526 C522 1.531 . S
C526 H538 0.960 . S
C526 H539 0.962 . S
C526 H540 0.960 . S
C527 C524 1.511 . S
C527 H541 0.961 . S
C527 H542 0.961 . S
C527 H543 0.961 . S
C528 C529 1.370 . S
C528 C530 1.363 . S
C528 H544 0.931 . S
C529 C528 1.370 . S
C529 C533 1.408 . S
C530 C528 1.363 . S
C530 C531 1.370 . S
C530 C534 1.524 . S
C531 C523 1.503 . S
C531 C530 1.370 . S
C531 C532 1.403 . S
C532 C531 1.403 . S
C532 C533 1.404 . S
C532 C535 1.539 . S
C533 C529 1.408 . S
C533 C532 1.404 . S
C533 H545 0.930 . S
C534 C530 1.524 . S
C534 H546 0.956 . S
C534 H547 0.961 . S
C534 H548 0.961 . S
C535 C532 1.539 . S
C535 H549 0.958 . S
C535 H550 0.961 . S
C535 H551 0.960 . S
H536 C520 0.931 . S
H537 C525 0.929 . S
H538 C526 0.960 . S
H539 C526 0.962 . S
H540 C526 0.960 . S
H541 C527 0.961 . S
H542 C527 0.961 . S
H543 C527 0.961 . S
H544 C528 0.931 . S
H545 C533 0.930 . S
H546 C534 0.956 . S
H547 C534 0.961 . S
H548 C534 0.961 . S
H549 C535 0.958 . S
H550 C535 0.961 . S
H551 C535 0.960 . S
C552 C553 1.391 . S
C552 C554 1.394 . S
C552 H568 0.931 . S
C553 C552 1.391 . S
C553 C557 1.376 . S
C554 C552 1.394 . S
C554 C555 1.369 . S
C554 C558 1.531 . S
C555 C554 1.369 . S
C555 C556 1.410 . S
C555 C563 1.503 . S
C556 C555 1.410 . S
C556 C557 1.392 . S
C556 C559 1.511 . S
C557 C553 1.376 . S
C557 C556 1.392 . S
C557 H569 0.929 . S
C558 C554 1.531 . S
C558 H570 0.960 . S
C558 H571 0.962 . S
C558 H572 0.960 . S
C559 C556 1.511 . S
C559 H573 0.961 . S
C559 H574 0.961 . S
C559 H575 0.961 . S
C560 C561 1.370 . S
C560 C562 1.363 . S
C560 H576 0.931 . S
C561 C560 1.370 . S
C561 C565 1.408 . S
C562 C560 1.363 . S
C562 C563 1.370 . S
C562 C566 1.524 . S
C563 C555 1.503 . S
C563 C562 1.370 . S
C563 C564 1.403 . S
C564 C563 1.403 . S
C564 C565 1.404 . S
C564 C567 1.539 . S
C565 C561 1.408 . S
C565 C564 1.404 . S
C565 H577 0.930 . S
C566 C562 1.524 . S
C566 H578 0.956 . S
C566 H579 0.961 . S
C566 H580 0.961 . S
C567 C564 1.539 . S
C567 H581 0.958 . S
C567 H582 0.961 . S
C567 H583 0.960 . S
H568 C552 0.931 . S
H569 C557 0.929 . S
H570 C558 0.960 . S
H571 C558 0.962 . S
H572 C558 0.960 . S
H573 C559 0.961 . S
H574 C559 0.961 . S
H575 C559 0.961 . S
H576 C560 0.931 . S
H577 C565 0.930 . S
H578 C566 0.956 . S
H579 C566 0.961 . S
H580 C566 0.961 . S
H581 C567 0.958 . S
H582 C567 0.961 . S
H583 C567 0.960 . S
C584 C585 1.391 . S
C584 C586 1.394 . S
C584 H600 0.931 . S
C585 C584 1.391 . S
C585 C589 1.376 . S
C586 C584 1.394 . S
C586 C587 1.369 . S
C586 C590 1.531 . S
C587 C586 1.369 . S
C587 C588 1.410 . S
C587 C595 1.503 . S
C588 C587 1.410 . S
C588 C589 1.392 . S
C588 C591 1.511 . S
C589 C585 1.376 . S
C589 C588 1.392 . S
C589 H601 0.929 . S
C590 C586 1.531 . S
C590 H602 0.960 . S
C590 H603 0.962 . S
C590 H604 0.960 . S
C591 C588 1.511 . S
C591 H605 0.961 . S
C591 H606 0.961 . S
C591 H607 0.961 . S
C592 C593 1.370 . S
C592 C594 1.363 . S
C592 H608 0.931 . S
C593 C592 1.370 . S
C593 C597 1.408 . S
C594 C592 1.363 . S
C594 C595 1.370 . S
C594 C598 1.524 . S
C595 C587 1.503 . S
C595 C594 1.370 . S
C595 C596 1.403 . S
C596 C595 1.403 . S
C596 C597 1.404 . S
C596 C599 1.539 . S
C597 C593 1.408 . S
C597 C596 1.404 . S
C597 H609 0.930 . S
C598 C594 1.524 . S
C598 H610 0.956 . S
C598 H611 0.961 . S
C598 H612 0.961 . S
C599 C596 1.539 . S
C599 H613 0.958 . S
C599 H614 0.961 . S
C599 H615 0.960 . S
H600 C584 0.931 . S
H601 C589 0.929 . S
H602 C590 0.960 . S
H603 C590 0.962 . S
H604 C590 0.960 . S
H605 C591 0.961 . S
H606 C591 0.961 . S
H607 C591 0.961 . S
H608 C592 0.931 . S
H609 C597 0.930 . S
H610 C598 0.956 . S
H611 C598 0.961 . S
H612 C598 0.961 . S
H613 C599 0.958 . S
H614 C599 0.961 . S
H615 C599 0.960 . S
C616 C617 1.391 . S
C616 C618 1.394 . S
C616 H632 0.931 . S
C617 C616 1.391 . S
C617 C621 1.376 . S
C618 C616 1.394 . S
C618 C619 1.369 . S
C618 C622 1.531 . S
C619 C618 1.369 . S
C619 C620 1.410 . S
C619 C627 1.503 . S
C620 C619 1.410 . S
C620 C621 1.392 . S
C620 C623 1.511 . S
C621 C617 1.376 . S
C621 C620 1.392 . S
C621 H633 0.929 . S
C622 C618 1.531 . S
C622 H634 0.960 . S
C622 H635 0.962 . S
C622 H636 0.960 . S
C623 C620 1.511 . S
C623 H637 0.961 . S
C623 H638 0.961 . S
C623 H639 0.961 . S
C624 C625 1.370 . S
C624 C626 1.363 . S
C624 H640 0.931 . S
C625 C624 1.370 . S
C625 C629 1.408 . S
C626 C624 1.363 . S
C626 C627 1.370 . S
C626 C630 1.524 . S
C627 C619 1.503 . S
C627 C626 1.370 . S
C627 C628 1.403 . S
C628 C627 1.403 . S
C628 C629 1.404 . S
C628 C631 1.539 . S
C629 C625 1.408 . S
C629 C628 1.404 . S
C629 H641 0.930 . S
C630 C626 1.524 . S
C630 H642 0.956 . S
C630 H643 0.961 . S
C630 H644 0.961 . S
C631 C628 1.539 . S
C631 H645 0.958 . S
C631 H646 0.961 . S
C631 H647 0.960 . S
H632 C616 0.931 . S
H633 C621 0.929 . S
H634 C622 0.960 . S
H635 C622 0.962 . S
H636 C622 0.960 . S
H637 C623 0.961 . S
H638 C623 0.961 . S
H639 C623 0.961 . S
H640 C624 0.931 . S
H641 C629 0.930 . S
H642 C630 0.956 . S
H643 C630 0.961 . S
H644 C630 0.961 . S
H645 C631 0.958 . S
H646 C631 0.961 . S
H647 C631 0.960 . S
C648 C649 1.391 . S
C648 C650 1.394 . S
C648 H664 0.931 . S
C649 C648 1.391 . S
C649 C653 1.376 . S
C650 C648 1.394 . S
C650 C651 1.369 . S
C650 C654 1.531 . S
C651 C650 1.369 . S
C651 C652 1.410 . S
C651 C659 1.503 . S
C652 C651 1.410 . S
C652 C653 1.392 . S
C652 C655 1.511 . S
C653 C649 1.376 . S
C653 C652 1.392 . S
C653 H665 0.929 . S
C654 C650 1.531 . S
C654 H666 0.960 . S
C654 H667 0.962 . S
C654 H668 0.960 . S
C655 C652 1.511 . S
C655 H669 0.961 . S
C655 H670 0.961 . S
C655 H671 0.961 . S
C656 C657 1.370 . S
C656 C658 1.363 . S
C656 H672 0.931 . S
C657 C656 1.370 . S
C657 C661 1.408 . S
C658 C656 1.363 . S
C658 C659 1.370 . S
C658 C662 1.524 . S
C659 C651 1.503 . S
C659 C658 1.370 . S
C659 C660 1.403 . S
C660 C659 1.403 . S
C660 C661 1.404 . S
C660 C663 1.539 . S
C661 C657 1.408 . S
C661 C660 1.404 . S
C661 H673 0.930 . S
C662 C658 1.524 . S
C662 H674 0.956 . S
C662 H675 0.961 . S
C662 H676 0.961 . S
C663 C660 1.539 . S
C663 H677 0.958 . S
C663 H678 0.961 . S
C663 H679 0.960 . S
H664 C648 0.931 . S
H665 C653 0.929 . S
H666 C654 0.960 . S
H667 C654 0.962 . S
H668 C654 0.960 . S
H669 C655 0.961 . S
H670 C655 0.961 . S
H671 C655 0.961 . S
H672 C656 0.931 . S
H673 C661 0.930 . S
H674 C662 0.956 . S
H675 C662 0.961 . S
H676 C662 0.961 . S
H677 C663 0.958 . S
H678 C663 0.961 . S
H679 C663 0.960 . S
C680 C681 1.391 . S
C680 C682 1.394 . S
C680 H696 0.931 . S
C681 C680 1.391 . S
C681 C685 1.376 . S
C682 C680 1.394 . S
C682 C683 1.369 . S
C682 C686 1.531 . S
C683 C682 1.369 . S
C683 C684 1.410 . S
C683 C691 1.503 . S
C684 C683 1.410 . S
C684 C685 1.392 . S
C684 C687 1.511 . S
C685 C681 1.376 . S
C685 C684 1.392 . S
C685 H697 0.929 . S
C686 C682 1.531 . S
C686 H698 0.960 . S
C686 H699 0.962 . S
C686 H700 0.960 . S
C687 C684 1.511 . S
C687 H701 0.961 . S
C687 H702 0.961 . S
C687 H703 0.961 . S
C688 C689 1.370 . S
C688 C690 1.363 . S
C688 H704 0.931 . S
C689 C688 1.370 . S
C689 C693 1.408 . S
C690 C688 1.363 . S
C690 C691 1.370 . S
C690 C694 1.524 . S
C691 C683 1.503 . S
C691 C690 1.370 . S
C691 C692 1.403 . S
C692 C691 1.403 . S
C692 C693 1.404 . S
C692 C695 1.539 . S
C693 C689 1.408 . S
C693 C692 1.404 . S
C693 H705 0.930 . S
C694 C690 1.524 . S
C694 H706 0.956 . S
C694 H707 0.961 . S
C694 H708 0.961 . S
C695 C692 1.539 . S
C695 H709 0.958 . S
C695 H710 0.961 . S
C695 H711 0.960 . S
H696 C680 0.931 . S
H697 C685 0.929 . S
H698 C686 0.960 . S
H699 C686 0.962 . S
H700 C686 0.960 . S
H701 C687 0.961 . S
H702 C687 0.961 . S
H703 C687 0.961 . S
H704 C688 0.931 . S
H705 C693 0.930 . S
H706 C694 0.956 . S
H707 C694 0.961 . S
H708 C694 0.961 . S
H709 C695 0.958 . S
H710 C695 0.961 . S
H711 C695 0.960 . S
C712 C713 1.391 . S
C712 C714 1.394 . S
C712 H728 0.931 . S
C713 C712 1.391 . S
C713 C717 1.376 . S
C714 C712 1.394 . S
C714 C715 1.369 . S
C714 C718 1.531 . S
C715 C714 1.369 . S
C715 C716 1.410 . S
C715 C723 1.503 . S
C716 C715 1.410 . S
C716 C717 1.392 . S
C716 C719 1.511 . S
C717 C713 1.376 . S
C717 C716 1.392 . S
C717 H729 0.929 . S
C718 C714 1.531 . S
C718 H730 0.960 . S
C718 H731 0.962 . S
C718 H732 0.960 . S
C719 C716 1.511 . S
C719 H733 0.961 . S
C719 H734 0.961 . S
C719 H735 0.961 . S
C720 C721 1.370 . S
C720 C722 1.363 . S
C720 H736 0.931 . S
C721 C720 1.370 . S
C721 C725 1.408 . S
C722 C720 1.363 . S
C722 C723 1.370 . S
C722 C726 1.524 . S
C723 C715 1.503 . S
C723 C722 1.370 . S
C723 C724 1.403 . S
C724 C723 1.403 . S
C724 C725 1.404 . S
C724 C727 1.539 . S
C725 C721 1.408 . S
C725 C724 1.404 . S
C725 H737 0.930 . S
C726 C722 1.524 . S
C726 H738 0.956 . S
C726 H739 0.961 . S
C726 H740 0.961 . S
C727 C724 1.539 . S
C727 H741 0.958 . S
C727 H742 0.961 . S
C727 H743 0.960 . S
H728 C712 0.931 . S
H729 C717 0.929 . S
H730 C718 0.960 . S
H731 C718 0.962 . S
H732 C718 0.960 . S
H733 C719 0.961 . S
H734 C719 0.961 . S
H735 C719 0.961 . S
H736 C720 0.931 . S
H737 C725 0.930 . S
H738 C726 0.956 . S
H739 C726 0.961 . S
H740 C726 0.961 . S
H741 C727 0.958 . S
H742 C727 0.961 . S
H743 C727 0.960 . S
C744 C745 1.391 . S
C744 C746 1.394 . S
C744 H760 0.931 . S
C745 C744 1.391 . S
C745 C749 1.376 . S
C746 C744 1.394 . S
C746 C747 1.369 . S
C746 C750 1.531 . S
C747 C746 1.369 . S
C747 C748 1.410 . S
C747 C755 1.503 . S
C748 C747 1.410 . S
C748 C749 1.392 . S
C748 C751 1.511 . S
C749 C745 1.376 . S
C749 C748 1.392 . S
C749 H761 0.929 . S
C750 C746 1.531 . S
C750 H762 0.960 . S
C750 H763 0.962 . S
C750 H764 0.960 . S
C751 C748 1.511 . S
C751 H765 0.961 . S
C751 H766 0.961 . S
C751 H767 0.961 . S
C752 C753 1.370 . S
C752 C754 1.363 . S
C752 H768 0.931 . S
C753 C752 1.370 . S
C753 C757 1.408 . S
C754 C752 1.363 . S
C754 C755 1.370 . S
C754 C758 1.524 . S
C755 C747 1.503 . S
C755 C754 1.370 . S
C755 C756 1.403 . S
C756 C755 1.403 . S
C756 C757 1.404 . S
C756 C759 1.539 . S
C757 C753 1.408 . S
C757 C756 1.404 . S
C757 H769 0.930 . S
C758 C754 1.524 . S
C758 H770 0.956 . S
C758 H771 0.961 . S
C758 H772 0.961 . S
C759 C756 1.539 . S
C759 H773 0.958 . S
C759 H774 0.961 . S
C759 H775 0.960 . S
H760 C744 0.931 . S
H761 C749 0.929 . S
H762 C750 0.960 . S
H763 C750 0.962 . S
H764 C750 0.960 . S
H765 C751 0.961 . S
H766 C751 0.961 . S
H767 C751 0.961 . S
H768 C752 0.931 . S
H769 C757 0.930 . S
H770 C758 0.956 . S
H771 C758 0.961 . S
H772 C758 0.961 . S
H773 C759 0.958 . S
H774 C759 0.961 . S
H775 C759 0.960 . S
C776 C777 1.391 . S
C776 C778 1.394 . S
C776 H792 0.931 . S
C777 C776 1.391 . S
C777 C781 1.376 . S
C778 C776 1.394 . S
C778 C779 1.369 . S
C778 C782 1.531 . S
C779 C778 1.369 . S
C779 C780 1.410 . S
C779 C787 1.503 . S
C780 C779 1.410 . S
C780 C781 1.392 . S
C780 C783 1.511 . S
C781 C777 1.376 . S
C781 C780 1.392 . S
C781 H793 0.929 . S
C782 C778 1.531 . S
C782 H794 0.960 . S
C782 H795 0.962 . S
C782 H796 0.960 . S
C783 C780 1.511 . S
C783 H797 0.961 . S
C783 H798 0.961 . S
C783 H799 0.961 . S
C784 C785 1.370 . S
C784 C786 1.363 . S
C784 H800 0.931 . S
C785 C784 1.370 . S
C785 C789 1.408 . S
C786 C784 1.363 . S
C786 C787 1.370 . S
C786 C790 1.524 . S
C787 C779 1.503 . S
C787 C786 1.370 . S
C787 C788 1.403 . S
C788 C787 1.403 . S
C788 C789 1.404 . S
C788 C791 1.539 . S
C789 C785 1.408 . S
C789 C788 1.404 . S
C789 H801 0.930 . S
C790 C786 1.524 . S
C790 H802 0.956 . S
C790 H803 0.961 . S
C790 H804 0.961 . S
C791 C788 1.539 . S
C791 H805 0.958 . S
C791 H806 0.961 . S
C791 H807 0.960 . S
H792 C776 0.931 . S
H793 C781 0.929 . S
H794 C782 0.960 . S
H795 C782 0.962 . S
H796 C782 0.960 . S
H797 C783 0.961 . S
H798 C783 0.961 . S
H799 C783 0.961 . S
H800 C784 0.931 . S
H801 C789 0.930 . S
H802 C790 0.956 . S
H803 C790 0.961 . S
H804 C790 0.961 . S
H805 C791 0.958 . S
H806 C791 0.961 . S
H807 C791 0.960 . S
C808 C809 1.391 . S
C808 C810 1.394 . S
C808 H824 0.931 . S
C809 C808 1.391 . S
C809 C813 1.376 . S
C810 C808 1.394 . S
C810 C811 1.369 . S
C810 C814 1.531 . S
C811 C810 1.369 . S
C811 C812 1.410 . S
C811 C819 1.503 . S
C812 C811 1.410 . S
C812 C813 1.392 . S
C812 C815 1.511 . S
C813 C809 1.376 . S
C813 C812 1.392 . S
C813 H825 0.929 . S
C814 C810 1.531 . S
C814 H826 0.960 . S
C814 H827 0.962 . S
C814 H828 0.960 . S
C815 C812 1.511 . S
C815 H829 0.961 . S
C815 H830 0.961 . S
C815 H831 0.961 . S
C816 C817 1.370 . S
C816 C818 1.363 . S
C816 H832 0.931 . S
C817 C816 1.370 . S
C817 C821 1.408 . S
C818 C816 1.363 . S
C818 C819 1.370 . S
C818 C822 1.524 . S
C819 C811 1.503 . S
C819 C818 1.370 . S
C819 C820 1.403 . S
C820 C819 1.403 . S
C820 C821 1.404 . S
C820 C823 1.539 . S
C821 C817 1.408 . S
C821 C820 1.404 . S
C821 H833 0.930 . S
C822 C818 1.524 . S
C822 H834 0.956 . S
C822 H835 0.961 . S
C822 H836 0.961 . S
C823 C820 1.539 . S
C823 H837 0.958 . S
C823 H838 0.961 . S
C823 H839 0.960 . S
H824 C808 0.931 . S
H825 C813 0.929 . S
H826 C814 0.960 . S
H827 C814 0.962 . S
H828 C814 0.960 . S
H829 C815 0.961 . S
H830 C815 0.961 . S
H831 C815 0.961 . S
H832 C816 0.931 . S
H833 C821 0.930 . S
H834 C822 0.956 . S
H835 C822 0.961 . S
H836 C822 0.961 . S
H837 C823 0.958 . S
H838 C823 0.961 . S
H839 C823 0.960 . S
C840 C841 1.391 . S
C840 C842 1.394 . S
C840 H856 0.931 . S
C841 C840 1.391 . S
C841 C845 1.376 . S
C842 C840 1.394 . S
C842 C843 1.369 . S
C842 C846 1.531 . S
C843 C842 1.369 . S
C843 C844 1.410 . S
C843 C851 1.503 . S
C844 C843 1.410 . S
C844 C845 1.392 . S
C844 C847 1.511 . S
C845 C841 1.376 . S
C845 C844 1.392 . S
C845 H857 0.929 . S
C846 C842 1.531 . S
C846 H858 0.960 . S
C846 H859 0.962 . S
C846 H860 0.960 . S
C847 C844 1.511 . S
C847 H861 0.961 . S
C847 H862 0.961 . S
C847 H863 0.961 . S
C848 C849 1.370 . S
C848 C850 1.363 . S
C848 H864 0.931 . S
C849 C848 1.370 . S
C849 C853 1.408 . S
C850 C848 1.363 . S
C850 C851 1.370 . S
C850 C854 1.524 . S
C851 C843 1.503 . S
C851 C850 1.370 . S
C851 C852 1.403 . S
C852 C851 1.403 . S
C852 C853 1.404 . S
C852 C855 1.539 . S
C853 C849 1.408 . S
C853 C852 1.404 . S
C853 H865 0.930 . S
C854 C850 1.524 . S
C854 H866 0.956 . S
C854 H867 0.961 . S
C854 H868 0.961 . S
C855 C852 1.539 . S
C855 H869 0.958 . S
C855 H870 0.961 . S
C855 H871 0.960 . S
H856 C840 0.931 . S
H857 C845 0.929 . S
H858 C846 0.960 . S
H859 C846 0.962 . S
H860 C846 0.960 . S
H861 C847 0.961 . S
H862 C847 0.961 . S
H863 C847 0.961 . S
H864 C848 0.931 . S
H865 C853 0.930 . S
H866 C854 0.956 . S
H867 C854 0.961 . S
H868 C854 0.961 . S
H869 C855 0.958 . S
H870 C855 0.961 . S
H871 C855 0.960 . S
C872 C873 1.391 . S
C872 C874 1.394 . S
C872 H888 0.931 . S
C873 C872 1.391 . S
C873 C877 1.376 . S
C874 C872 1.394 . S
C874 C875 1.369 . S
C874 C878 1.531 . S
C875 C874 1.369 . S
C875 C876 1.410 . S
C875 C883 1.503 . S
C876 C875 1.410 . S
C876 C877 1.392 . S
C876 C879 1.511 . S
C877 C873 1.376 . S
C877 C876 1.392 . S
C877 H889 0.929 . S
C878 C874 1.531 . S
C878 H890 0.960 . S
C878 H891 0.962 . S
C878 H892 0.960 . S
C879 C876 1.511 . S
C879 H893 0.961 . S
C879 H894 0.961 . S
C879 H895 0.961 . S
C880 C881 1.370 . S
C880 C882 1.363 . S
C880 H896 0.931 . S
C881 C880 1.370 . S
C881 C885 1.408 . S
C882 C880 1.363 . S
C882 C883 1.370 . S
C882 C886 1.524 . S
C883 C875 1.503 . S
C883 C882 1.370 . S
C883 C884 1.403 . S
C884 C883 1.403 . S
C884 C885 1.404 . S
C884 C887 1.539 . S
C885 C881 1.408 . S
C885 C884 1.404 . S
C885 H897 0.930 . S
C886 C882 1.524 . S
C886 H898 0.956 . S
C886 H899 0.961 . S
C886 H900 0.961 . S
C887 C884 1.539 . S
C887 H901 0.958 . S
C887 H902 0.961 . S
C887 H903 0.960 . S
H888 C872 0.931 . S
H889 C877 0.929 . S
H890 C878 0.960 . S
H891 C878 0.962 . S
H892 C878 0.960 . S
H893 C879 0.961 . S
H894 C879 0.961 . S
H895 C879 0.961 . S
H896 C880 0.931 . S
H897 C885 0.930 . S
H898 C886 0.956 . S
H899 C886 0.961 . S
H900 C886 0.961 . S
H901 C887 0.958 . S
H902 C887 0.961 . S
H903 C887 0.960 . S
C904 C905 1.391 . S
C904 C906 1.394 . S
C904 H920 0.931 . S
C905 C904 1.391 . S
C905 C909 1.376 . S
C906 C904 1.394 . S
C906 C907 1.369 . S
C906 C910 1.531 . S
C907 C906 1.369 . S
C907 C908 1.410 . S
C907 C915 1.503 . S
C908 C907 1.410 . S
C908 C909 1.392 . S
C908 C911 1.511 . S
C909 C905 1.376 . S
C909 C908 1.392 . S
C909 H921 0.929 . S
C910 C906 1.531 . S
C910 H922 0.960 . S
C910 H923 0.962 . S
C910 H924 0.960 . S
C911 C908 1.511 . S
C911 H925 0.961 . S
C911 H926 0.961 . S
C911 H927 0.961 . S
C912 C913 1.370 . S
C912 C914 1.363 . S
C912 H928 0.931 . S
C913 C912 1.370 . S
C913 C917 1.408 . S
C914 C912 1.363 . S
C914 C915 1.370 . S
C914 C918 1.524 . S
C915 C907 1.503 . S
C915 C914 1.370 . S
C915 C916 1.403 . S
C916 C915 1.403 . S
C916 C917 1.404 . S
C916 C919 1.539 . S
C917 C913 1.408 . S
C917 C916 1.404 . S
C917 H929 0.930 . S
C918 C914 1.524 . S
C918 H930 0.956 . S
C918 H931 0.961 . S
C918 H932 0.961 . S
C919 C916 1.539 . S
C919 H933 0.958 . S
C919 H934 0.961 . S
C919 H935 0.960 . S
H920 C904 0.931 . S
H921 C909 0.929 . S
H922 C910 0.960 . S
H923 C910 0.962 . S
H924 C910 0.960 . S
H925 C911 0.961 . S
H926 C911 0.961 . S
H927 C911 0.961 . S
H928 C912 0.931 . S
H929 C917 0.930 . S
H930 C918 0.956 . S
H931 C918 0.961 . S
H932 C918 0.961 . S
H933 C919 0.958 . S
H934 C919 0.961 . S
H935 C919 0.960 . S
C169 C13 1.300 . S
C177 C167 1.293 . S
C201 C97 1.223 . S
C209 C27 1.282 . S
C233 C41 1.225 . S
C241 C111 1.271 . S
C265 C125 1.244 . S
C273 C55 1.260 . S
C297 C139 1.228 . S
C305 C69 1.287 . S
C329 C153 1.233 . S
C337 C83 1.290 . S
C361 C49 1.441 . S
C369 C119 1.456 . S
C393 C63 1.456 . S
C401 C133 1.464 . S
C425 C77 1.467 . S
C433 C147 1.455 . S
C457 C161 1.447 . S
C465 C7 1.464 . S
C489 C21 1.452 . S
C497 C91 1.464 . S
C521 C35 1.469 . S
C529 C105 1.458 . S
C553 C120 1.437 . S
C561 C8 1.409 . S
C585 C134 1.399 . S
C593 C22 1.393 . S
C617 C36 1.372 . S
C625 C148 1.408 . S
C649 C50 1.383 . S
C657 C162 1.414 . S
C681 C64 1.389 . S
C689 C92 1.393 . S
C713 C106 1.433 . S
C721 C78 1.405 . S
C745 C11 1.345 . S
C753 C151 1.350 . S
C777 C165 1.335 . S
C785 C25 1.350 . S
C809 C39 1.334 . S
C817 C95 1.353 . S
C841 C53 1.355 . S
C849 C109 1.343 . S
C873 C67 1.357 . S
C881 C123 1.343 . S
C905 C81 1.335 . S
C913 C137 1.350 . S
