# Generated by pormake.
# Topology whm, (6)-cn, num edge types: 1
# Building blocks:
#     Node 0, Type 0, BuildingBlock: OJICUG_clean_sbu_0, # of connection points: 6
#     Node 1, Type 0, BuildingBlock: OJICUG_clean_sbu_0, # of connection points: 6
#     Node 2, Type 0, BuildingBlock: OJICUG_clean_sbu_0, # of connection points: 6
#     Node 3, Type 0, BuildingBlock: OJICUG_clean_sbu_0, # of connection points: 6
#     Node 4, Type 0, BuildingBlock: OJICUG_clean_sbu_0, # of connection points: 6
#     Node 5, Type 0, BuildingBlock: OJICUG_clean_sbu_0, # of connection points: 6
#     Node 6, Type 0, BuildingBlock: OJICUG_clean_sbu_0, # of connection points: 6
#     Node 7, Type 0, BuildingBlock: OJICUG_clean_sbu_0, # of connection points: 6
#     Node 8, Type 0, BuildingBlock: OJICUG_clean_sbu_0, # of connection points: 6
#     Node 9, Type 0, BuildingBlock: OJICUG_clean_sbu_0, # of connection points: 6
#     Node 10, Type 0, BuildingBlock: OJICUG_clean_sbu_0, # of connection points: 6
#     Node 11, Type 0, BuildingBlock: OJICUG_clean_sbu_0, # of connection points: 6
#     Node 12, Type 0, BuildingBlock: OJICUG_clean_sbu_0, # of connection points: 6
#     Node 13, Type 0, BuildingBlock: OJICUG_clean_sbu_0, # of connection points: 6
#     Node 14, Type 0, BuildingBlock: OJICUG_clean_sbu_0, # of connection points: 6
#     Node 15, Type 0, BuildingBlock: OJICUG_clean_sbu_0, # of connection points: 6
#     Edge 16, Type (0, 0), BuildingBlock: MIFKUJ_clean_linker_0, # of connection points: 2
#     Edge 17, Type (0, 0), BuildingBlock: MIFKUJ_clean_linker_0, # of connection points: 2
#     Edge 18, Type (0, 0), BuildingBlock: MIFKUJ_clean_linker_0, # of connection points: 2
#     Edge 19, Type (0, 0), BuildingBlock: MIFKUJ_clean_linker_0, # of connection points: 2
#     Edge 20, Type (0, 0), BuildingBlock: MIFKUJ_clean_linker_0, # of connection points: 2
#     Edge 21, Type (0, 0), BuildingBlock: MIFKUJ_clean_linker_0, # of connection points: 2
#     Edge 22, Type (0, 0), BuildingBlock: MIFKUJ_clean_linker_0, # of connection points: 2
#     Edge 23, Type (0, 0), BuildingBlock: MIFKUJ_clean_linker_0, # of connection points: 2
#     Edge 24, Type (0, 0), BuildingBlock: MIFKUJ_clean_linker_0, # of connection points: 2
#     Edge 25, Type (0, 0), BuildingBlock: MIFKUJ_clean_linker_0, # of connection points: 2
#     Edge 26, Type (0, 0), BuildingBlock: MIFKUJ_clean_linker_0, # of connection points: 2
#     Edge 27, Type (0, 0), BuildingBlock: MIFKUJ_clean_linker_0, # of connection points: 2
#     Edge 28, Type (0, 0), BuildingBlock: MIFKUJ_clean_linker_0, # of connection points: 2
#     Edge 29, Type (0, 0), BuildingBlock: MIFKUJ_clean_linker_0, # of connection points: 2
#     Edge 30, Type (0, 0), BuildingBlock: MIFKUJ_clean_linker_0, # of connection points: 2
#     Edge 31, Type (0, 0), BuildingBlock: MIFKUJ_clean_linker_0, # of connection points: 2
#     Edge 32, Type (0, 0), BuildingBlock: MIFKUJ_clean_linker_0, # of connection points: 2
#     Edge 33, Type (0, 0), BuildingBlock: MIFKUJ_clean_linker_0, # of connection points: 2
#     Edge 34, Type (0, 0), BuildingBlock: MIFKUJ_clean_linker_0, # of connection points: 2
#     Edge 35, Type (0, 0), BuildingBlock: MIFKUJ_clean_linker_0, # of connection points: 2
#     Edge 36, Type (0, 0), BuildingBlock: MIFKUJ_clean_linker_0, # of connection points: 2
#     Edge 37, Type (0, 0), BuildingBlock: MIFKUJ_clean_linker_0, # of connection points: 2
#     Edge 38, Type (0, 0), BuildingBlock: MIFKUJ_clean_linker_0, # of connection points: 2
#     Edge 39, Type (0, 0), BuildingBlock: MIFKUJ_clean_linker_0, # of connection points: 2
#     Edge 40, Type (0, 0), BuildingBlock: MIFKUJ_clean_linker_0, # of connection points: 2
#     Edge 41, Type (0, 0), BuildingBlock: MIFKUJ_clean_linker_0, # of connection points: 2
#     Edge 42, Type (0, 0), BuildingBlock: MIFKUJ_clean_linker_0, # of connection points: 2
#     Edge 43, Type (0, 0), BuildingBlock: MIFKUJ_clean_linker_0, # of connection points: 2
#     Edge 44, Type (0, 0), BuildingBlock: MIFKUJ_clean_linker_0, # of connection points: 2
#     Edge 45, Type (0, 0), BuildingBlock: MIFKUJ_clean_linker_0, # of connection points: 2
#     Edge 46, Type (0, 0), BuildingBlock: MIFKUJ_clean_linker_0, # of connection points: 2
#     Edge 47, Type (0, 0), BuildingBlock: MIFKUJ_clean_linker_0, # of connection points: 2
#     Edge 48, Type (0, 0), BuildingBlock: MIFKUJ_clean_linker_0, # of connection points: 2
#     Edge 49, Type (0, 0), BuildingBlock: MIFKUJ_clean_linker_0, # of connection points: 2
#     Edge 50, Type (0, 0), BuildingBlock: MIFKUJ_clean_linker_0, # of connection points: 2
#     Edge 51, Type (0, 0), BuildingBlock: MIFKUJ_clean_linker_0, # of connection points: 2
#     Edge 52, Type (0, 0), BuildingBlock: MIFKUJ_clean_linker_0, # of connection points: 2
#     Edge 53, Type (0, 0), BuildingBlock: MIFKUJ_clean_linker_0, # of connection points: 2
#     Edge 54, Type (0, 0), BuildingBlock: MIFKUJ_clean_linker_0, # of connection points: 2
#     Edge 55, Type (0, 0), BuildingBlock: MIFKUJ_clean_linker_0, # of connection points: 2
#     Edge 56, Type (0, 0), BuildingBlock: MIFKUJ_clean_linker_0, # of connection points: 2
#     Edge 57, Type (0, 0), BuildingBlock: MIFKUJ_clean_linker_0, # of connection points: 2
#     Edge 58, Type (0, 0), BuildingBlock: MIFKUJ_clean_linker_0, # of connection points: 2
#     Edge 59, Type (0, 0), BuildingBlock: MIFKUJ_clean_linker_0, # of connection points: 2
#     Edge 60, Type (0, 0), BuildingBlock: MIFKUJ_clean_linker_0, # of connection points: 2
#     Edge 61, Type (0, 0), BuildingBlock: MIFKUJ_clean_linker_0, # of connection points: 2
#     Edge 62, Type (0, 0), BuildingBlock: MIFKUJ_clean_linker_0, # of connection points: 2
#     Edge 63, Type (0, 0), BuildingBlock: MIFKUJ_clean_linker_0, # of connection points: 2
# Relax obj value: 0.342
# Max RMSD: 0.245
# Mean RMSD: 0.245
data_MOF--net-whm--node1-OJICUG_clean_sbu_0--edge1-MIFKUJ_clean_linker_0
_symmetry_space_group_name_H-M    P1
_symmetry_Int_Tables_number       1
_symmetry_cell_setting            triclinic
loop_
_symmetry_equiv_pos_as_xyz
'x, y, z'
_cell_length_a     65.120137
_cell_length_b     65.141695
_cell_length_c     37.176535
_cell_angle_alpha  89.977327
_cell_angle_beta   89.987752
_cell_angle_gamma 90.002982
loop_
_atom_site_label
_atom_site_type_symbol
_atom_site_fract_x
_atom_site_fract_y
_atom_site_fract_z
_atom_type_partial_charge
Sc0 Sc 0.5725 0.17081 0.13567 0.0
Sc1 Sc 0.53464 0.16326 0.20193 0.0
Sc2 Sc 0.5569 0.12073 0.15881 0.0
O3 O 0.55464 0.15162 0.1653 0.0
C4 C 0.56487 0.13522 0.07822 0.0
C5 C 0.528 0.19137 0.13286 0.0
C6 C 0.50926 0.12522 0.1697 0.0
C7 C 0.57105 0.19561 0.2095 0.0
C8 C 0.60361 0.136 0.16044 0.0
C9 C 0.55224 0.12521 0.24438 0.0
O10 O 0.56983 0.15337 0.08693 0.0
O11 O 0.52151 0.18325 0.16186 0.0
O12 O 0.5242 0.11642 0.154 0.0
O13 O 0.57889 0.19118 0.17934 0.0
O14 O 0.58978 0.12235 0.16431 0.0
O15 O 0.54608 0.14374 0.24423 0.0
O16 O 0.59988 0.15423 0.14992 0.0
O17 O 0.55499 0.18689 0.22128 0.0
O18 O 0.55541 0.11504 0.21575 0.0
O19 O 0.54601 0.18861 0.12025 0.0
O20 O 0.55907 0.12192 0.10101 0.0
O21 O 0.51142 0.14128 0.18864 0.0
Sc22 Sc 0.32448 0.56759 0.64735 0.0
Sc23 Sc 0.33151 0.53148 0.7159 0.0
Sc24 Sc 0.37419 0.55403 0.67272 0.0
O25 O 0.34346 0.55099 0.67881 0.0
C26 C 0.36154 0.55932 0.59232 0.0
C27 C 0.30444 0.52375 0.64551 0.0
C28 C 0.36921 0.50578 0.68607 0.0
C29 C 0.29897 0.56667 0.72109 0.0
C30 C 0.35723 0.60037 0.66917 0.0
C31 C 0.36957 0.55126 0.75766 0.0
O32 O 0.34423 0.56682 0.60088 0.0
O33 O 0.30895 0.51974 0.67814 0.0
O34 O 0.37969 0.52131 0.67617 0.0
O35 O 0.3015 0.57168 0.68839 0.0
O36 O 0.37172 0.58718 0.6693 0.0
O37 O 0.35293 0.541 0.75728 0.0
O38 O 0.33845 0.59564 0.66468 0.0
O39 O 0.31024 0.55356 0.7367 0.0
O40 O 0.37847 0.55751 0.72933 0.0
O41 O 0.31024 0.53991 0.62918 0.0
O42 O 0.37346 0.55124 0.61527 0.0
O43 O 0.35137 0.50726 0.6995 0.0
Sc44 Sc 0.92619 0.32499 0.13555 0.0
Sc45 Sc 0.96585 0.32836 0.19926 0.0
Sc46 Sc 0.94209 0.37334 0.16744 0.0
O47 O 0.9447 0.34224 0.16733 0.0
C48 C 0.93509 0.36369 0.08458 0.0
C49 C 0.97068 0.30492 0.12523 0.0
C50 C 0.98995 0.3691 0.17631 0.0
C51 C 0.92968 0.29531 0.20284 0.0
C52 C 0.8953 0.35851 0.16551 0.0
C53 C 0.94719 0.36212 0.25089 0.0
O54 O 0.92967 0.34517 0.08988 0.0
O55 O 0.97875 0.31226 0.15369 0.0
O56 O 0.97457 0.37849 0.16337 0.0
O57 O 0.91972 0.30254 0.17642 0.0
O58 O 0.90911 0.37186 0.17176 0.0
O59 O 0.95393 0.34393 0.24627 0.0
O60 O 0.89912 0.34085 0.15267 0.0
O61 O 0.94678 0.30262 0.21282 0.0
O62 O 0.94361 0.37454 0.22523 0.0
O63 O 0.95196 0.30758 0.11651 0.0
O64 O 0.94038 0.37563 0.1099 0.0
O65 O 0.9885 0.35171 0.19138 0.0
Sc66 Sc 0.17149 0.9235 0.63803 0.0
Sc67 Sc 0.16798 0.96171 0.70503 0.0
Sc68 Sc 0.12323 0.94128 0.66604 0.0
O69 O 0.15427 0.94219 0.66961 0.0
C70 C 0.13498 0.93369 0.58396 0.0
C71 C 0.19462 0.96684 0.63393 0.0
C72 C 0.13044 0.98871 0.67511 0.0
C73 C 0.19773 0.92301 0.71045 0.0
C74 C 0.13582 0.89396 0.6656 0.0
C75 C 0.13025 0.94622 0.75082 0.0
O76 O 0.15331 0.92829 0.59051 0.0
O77 O 0.18801 0.97357 0.6639 0.0
O78 O 0.12069 0.97394 0.66074 0.0
O79 O 0.19206 0.91528 0.68079 0.0
O80 O 0.12325 0.90847 0.67194 0.0
O81 O 0.14902 0.95155 0.74916 0.0
O82 O 0.15365 0.89684 0.65246 0.0
O83 O 0.19073 0.93989 0.72227 0.0
O84 O 0.11928 0.94333 0.72307 0.0
O85 O 0.19024 0.94911 0.62158 0.0
O86 O 0.12253 0.93887 0.60855 0.0
O87 O 0.1469 0.98618 0.69299 0.0
Sc88 Sc 0.57066 0.32622 0.86133 0.0
Sc89 Sc 0.5346 0.32547 0.79085 0.0
Sc90 Sc 0.5531 0.37242 0.82339 0.0
O91 O 0.55277 0.34133 0.82534 0.0
C92 C 0.55793 0.36497 0.90784 0.0
C93 C 0.52817 0.3015 0.86402 0.0
C94 C 0.50619 0.36388 0.81128 0.0
C95 C 0.57396 0.29633 0.79435 0.0
C96 C 0.60043 0.36144 0.83191 0.0
C97 C 0.55059 0.36049 0.74006 0.0
O98 O 0.56241 0.34605 0.90531 0.0
O99 O 0.5212 0.30806 0.83419 0.0
O100 O 0.52013 0.37449 0.82643 0.0
O101 O 0.58149 0.30432 0.82254 0.0
O102 O 0.5861 0.37271 0.81949 0.0
O103 O 0.54647 0.3416 0.74466 0.0
O104 O 0.59712 0.34484 0.84907 0.0
O105 O 0.55697 0.302 0.78095 0.0
O106 O 0.55181 0.3732 0.76583 0.0
O107 O 0.54584 0.30618 0.87622 0.0
O108 O 0.55475 0.37625 0.8806 0.0
O109 O 0.50981 0.34689 0.79581 0.0
Sc110 Sc 0.12391 0.55629 0.31815 0.0
Sc111 Sc 0.16946 0.53165 0.2922 0.0
Sc112 Sc 0.17103 0.57223 0.35436 0.0
O113 O 0.15482 0.55344 0.32163 0.0
C114 C 0.13878 0.60271 0.31742 0.0
C115 C 0.13716 0.54746 0.23647 0.0
C116 C 0.20202 0.5682 0.28917 0.0
C117 C 0.12807 0.50853 0.3153 0.0
C118 C 0.13096 0.56557 0.40138 0.0
C119 C 0.19025 0.52775 0.3685 0.0
O120 O 0.1263 0.58866 0.30806 0.0
O121 O 0.15565 0.54235 0.24288 0.0
O122 O 0.19383 0.57857 0.31419 0.0
O123 O 0.11888 0.52419 0.32775 0.0
O124 O 0.15017 0.56847 0.3987 0.0
O125 O 0.18369 0.51949 0.33977 0.0
O126 O 0.1195 0.56192 0.37456 0.0
O127 O 0.14535 0.50958 0.29957 0.0
O128 O 0.18808 0.54668 0.37611 0.0
O129 O 0.12411 0.55116 0.26108 0.0
O130 O 0.15507 0.59922 0.33537 0.0
O131 O 0.19573 0.5505 0.28018 0.0
Sc132 Sc 0.94397 0.12076 0.82998 0.0
Sc133 Sc 0.96495 0.16338 0.78412 0.0
Sc134 Sc 0.92781 0.17046 0.85137 0.0
O135 O 0.94565 0.15151 0.82174 0.0
C136 C 0.89681 0.13547 0.8296 0.0
C137 C 0.94671 0.12415 0.74436 0.0
C138 C 0.92853 0.19501 0.77686 0.0
C139 C 0.99172 0.12652 0.81601 0.0
C140 C 0.93747 0.13556 0.90953 0.0
C141 C 0.97164 0.19172 0.85313 0.0
O142 O 0.91076 0.12172 0.83014 0.0
O143 O 0.95473 0.14198 0.74367 0.0
O144 O 0.92236 0.1919 0.8087 0.0
O145 O 0.97675 0.11659 0.8294 0.0
O146 O 0.9296 0.15241 0.89949 0.0
O147 O 0.97679 0.18573 0.82178 0.0
O148 O 0.94547 0.12295 0.88767 0.0
O149 O 0.98947 0.14338 0.79939 0.0
O150 O 0.95478 0.18686 0.8684 0.0
O151 O 0.94232 0.11481 0.77337 0.0
O152 O 0.90049 0.15443 0.83495 0.0
O153 O 0.94318 0.18496 0.76302 0.0
Sc154 Sc 0.37136 0.94395 0.32479 0.0
Sc155 Sc 0.3274 0.96804 0.2908 0.0
Sc156 Sc 0.32258 0.92827 0.35413 0.0
O157 O 0.34041 0.94676 0.32339 0.0
C158 C 0.35611 0.89758 0.32224 0.0
C159 C 0.36241 0.9514 0.24121 0.0
C160 C 0.29469 0.93161 0.2847 0.0
C161 C 0.36776 0.99153 0.31883 0.0
C162 C 0.36009 0.93529 0.40706 0.0
C163 C 0.30258 0.97293 0.36326 0.0
O164 O 0.36898 0.91159 0.31448 0.0
O165 O 0.34364 0.9564 0.24468 0.0
O166 O 0.30148 0.92175 0.31157 0.0
O167 O 0.37605 0.97615 0.33403 0.0
O168 O 0.34116 0.93222 0.40122 0.0
O169 O 0.31066 0.98092 0.3354 0.0
O170 O 0.37284 0.93892 0.38201 0.0
O171 O 0.35127 0.99018 0.30067 0.0
O172 O 0.30461 0.95408 0.37174 0.0
O173 O 0.37436 0.94851 0.26776 0.0
O174 O 0.33925 0.901 0.33855 0.0
O175 O 0.30182 0.94893 0.27528 0.0
Sc176 Sc 0.43023 0.87338 0.83042 0.0
Sc177 Sc 0.45656 0.8306 0.79521 0.0
Sc178 Sc 0.42238 0.82466 0.86804 0.0
O179 O 0.4364 0.84286 0.83115 0.0
C180 C 0.43176 0.86535 0.91379 0.0
C181 C 0.47808 0.87314 0.8116 0.0
C182 C 0.46856 0.80865 0.86893 0.0
C183 C 0.4304 0.86196 0.74733 0.0
C184 C 0.38587 0.85395 0.84664 0.0
C185 C 0.42314 0.79529 0.79929 0.0
O186 O 0.43551 0.87675 0.88689 0.0
O187 O 0.47848 0.85441 0.80262 0.0
O188 O 0.45132 0.81179 0.88396 0.0
O189 O 0.42417 0.87254 0.77388 0.0
O190 O 0.39237 0.83623 0.85522 0.0
O191 O 0.43722 0.80504 0.78309 0.0
O192 O 0.3978 0.86882 0.83921 0.0
O193 O 0.44267 0.84681 0.75037 0.0
O194 O 0.41661 0.80027 0.83026 0.0
O195 O 0.46173 0.88222 0.82132 0.0
O196 O 0.42592 0.8468 0.91072 0.0
O197 O 0.47265 0.81371 0.83667 0.0
Sc198 Sc 0.67048 0.42293 0.35902 0.0
Sc199 Sc 0.66668 0.46044 0.29091 0.0
Sc200 Sc 0.62203 0.43756 0.32598 0.0
O201 O 0.65307 0.44027 0.3253 0.0
C202 C 0.63659 0.39088 0.33368 0.0
C203 C 0.69912 0.42367 0.29014 0.0
C204 C 0.6326 0.43998 0.24197 0.0
C205 C 0.69068 0.46767 0.36388 0.0
C206 C 0.63219 0.43365 0.40926 0.0
C207 C 0.62652 0.48537 0.31323 0.0
O208 O 0.65428 0.39496 0.34629 0.0
O209 O 0.69184 0.44039 0.27816 0.0
O210 O 0.62082 0.43627 0.26845 0.0
O211 O 0.68819 0.44936 0.37508 0.0
O212 O 0.62003 0.43789 0.38361 0.0
O213 O 0.64397 0.48356 0.29854 0.0
O214 O 0.65072 0.42828 0.40425 0.0
O215 O 0.68338 0.47441 0.33445 0.0
O216 O 0.61677 0.47021 0.32627 0.0
O217 O 0.69232 0.41497 0.31822 0.0
O218 O 0.6236 0.40463 0.32534 0.0
O219 O 0.65025 0.44821 0.24513 0.0
Sc220 Sc 0.0713 0.66656 0.86192 0.0
Sc221 Sc 0.03588 0.6659 0.79035 0.0
Sc222 Sc 0.05377 0.6195 0.82799 0.0
O223 O 0.05364 0.65066 0.82672 0.0
C224 C 0.10136 0.63094 0.83812 0.0
C225 C 0.07414 0.69625 0.79403 0.0
C226 C 0.05466 0.62981 0.74357 0.0
C227 C 0.02791 0.68941 0.86425 0.0
C228 C 0.05785 0.62849 0.91105 0.0
C229 C 0.00701 0.62782 0.80999 0.0
O230 O 0.09845 0.64945 0.84791 0.0
O231 O 0.05849 0.6889 0.77841 0.0
O232 O 0.05672 0.6179 0.77045 0.0
O233 O 0.04501 0.68409 0.87808 0.0
O234 O 0.05146 0.61724 0.88554 0.0
O235 O 0.01055 0.64516 0.79575 0.0
O236 O 0.06547 0.64614 0.90586 0.0
O237 O 0.02245 0.68462 0.83238 0.0
O238 O 0.02084 0.61703 0.8249 0.0
O239 O 0.08042 0.68972 0.82417 0.0
O240 O 0.08675 0.61856 0.83126 0.0
O241 O 0.04788 0.64809 0.7462 0.0
Sc242 Sc 0.82811 0.07173 0.36533 0.0
Sc243 Sc 0.82918 0.04102 0.2877 0.0
Sc244 Sc 0.87542 0.05542 0.33001 0.0
O245 O 0.84424 0.05598 0.32771 0.0
C246 C 0.86393 0.10253 0.34507 0.0
C247 C 0.80006 0.07961 0.29628 0.0
C248 C 0.86717 0.05993 0.24576 0.0
C249 C 0.80375 0.02964 0.35859 0.0
C250 C 0.8655 0.055 0.41313 0.0
C251 C 0.86579 0.00992 0.30494 0.0
O252 O 0.8455 0.09911 0.35478 0.0
O253 O 0.80802 0.0654 0.27772 0.0
O254 O 0.87849 0.06056 0.27349 0.0
O255 O 0.81005 0.04501 0.37668 0.0
O256 O 0.87684 0.05017 0.38678 0.0
O257 O 0.84856 0.01465 0.29139 0.0
O258 O 0.84802 0.0633 0.40915 0.0
O259 O 0.8085 0.02655 0.32575 0.0
O260 O 0.87705 0.02274 0.3216 0.0
O261 O 0.80526 0.0831 0.32855 0.0
O262 O 0.87668 0.08833 0.33742 0.0
O263 O 0.84852 0.05413 0.24642 0.0
Sc264 Sc 0.44068 0.62304 0.17313 0.0
Sc265 Sc 0.46031 0.66924 0.20854 0.0
Sc266 Sc 0.42738 0.66991 0.13328 0.0
O267 O 0.44283 0.65408 0.1717 0.0
C268 C 0.44075 0.62961 0.08939 0.0
C269 C 0.48766 0.62966 0.19398 0.0
C270 C 0.47144 0.69089 0.13369 0.0
C271 C 0.43814 0.63501 0.25622 0.0
C272 C 0.39433 0.63725 0.15704 0.0
C273 C 0.42363 0.70081 0.19991 0.0
O274 O 0.44582 0.61923 0.11681 0.0
O275 O 0.48514 0.648 0.20439 0.0
O276 O 0.4551 0.68513 0.11786 0.0
O277 O 0.43503 0.62326 0.22956 0.0
O278 O 0.39882 0.65531 0.14668 0.0
O279 O 0.43781 0.69245 0.21804 0.0
O280 O 0.40783 0.6239 0.16531 0.0
O281 O 0.44721 0.65228 0.25343 0.0
O282 O 0.41875 0.69479 0.16859 0.0
O283 O 0.47313 0.61871 0.1816 0.0
O284 O 0.43325 0.64757 0.09157 0.0
O285 O 0.47509 0.68745 0.16687 0.0
Sc286 Sc 0.87392 0.43929 0.6622 0.0
Sc287 Sc 0.82964 0.45845 0.7053 0.0
Sc288 Sc 0.82532 0.42102 0.63758 0.0
O289 O 0.84297 0.43961 0.66847 0.0
C290 C 0.8611 0.43246 0.5816 0.0
C291 C 0.86662 0.48662 0.67805 0.0
C292 C 0.80288 0.46436 0.63399 0.0
C293 C 0.86845 0.44117 0.74775 0.0
C294 C 0.86143 0.39146 0.6591 0.0
C295 C 0.79884 0.42088 0.71003 0.0
O296 O 0.87291 0.44086 0.60439 0.0
O297 O 0.84952 0.48358 0.69342 0.0
O298 O 0.80798 0.44716 0.62034 0.0
O299 O 0.87859 0.4376 0.7192 0.0
O300 O 0.84237 0.3943 0.65333 0.0
O301 O 0.80777 0.43627 0.72368 0.0
O302 O 0.87439 0.4061 0.66077 0.0
O303 O 0.85016 0.44818 0.74754 0.0
O304 O 0.80328 0.41412 0.67902 0.0
O305 O 0.87705 0.47222 0.66393 0.0
O306 O 0.84423 0.42413 0.59047 0.0
O307 O 0.80846 0.47027 0.66523 0.0
Sc308 Sc 0.05204 0.87613 0.16765 0.0
Sc309 Sc 0.03181 0.83053 0.20106 0.0
Sc310 Sc 0.06905 0.82905 0.13328 0.0
O311 O 0.05108 0.84523 0.16719 0.0
C312 C 0.05758 0.86677 0.08382 0.0
C313 C 0.00531 0.8698 0.1795 0.0
C314 C 0.02493 0.80716 0.12857 0.0
C315 C 0.04966 0.86435 0.25131 0.0
C316 C 0.0991 0.86462 0.16091 0.0
C317 C 0.06979 0.79949 0.19972 0.0
O318 O 0.05497 0.87883 0.11026 0.0
O319 O 0.0086 0.85393 0.19845 0.0
O320 O 0.04376 0.80889 0.11946 0.0
O321 O 0.04971 0.87731 0.22562 0.0
O322 O 0.09571 0.84791 0.14409 0.0
O323 O 0.05179 0.80457 0.20929 0.0
O324 O 0.08482 0.87592 0.17332 0.0
O325 O 0.04575 0.84537 0.24669 0.0
O326 O 0.07946 0.80869 0.17489 0.0
O327 O 0.01933 0.8786 0.16148 0.0
O328 O 0.06107 0.84771 0.08768 0.0
O329 O 0.01724 0.81564 0.15629 0.0
Sc330 Sc 0.62371 0.05428 0.66453 0.0
Sc331 Sc 0.66897 0.03069 0.69351 0.0
Sc332 Sc 0.67116 0.07012 0.62929 0.0
O333 O 0.65462 0.05178 0.66234 0.0
C334 C 0.63156 0.06144 0.58101 0.0
C335 C 0.62736 0.00695 0.67461 0.0
C336 C 0.68941 0.02482 0.61744 0.0
C337 C 0.63723 0.0498 0.74729 0.0
C338 C 0.63826 0.10101 0.66219 0.0
C339 C 0.70275 0.0663 0.69307 0.0
O340 O 0.62003 0.0568 0.6073 0.0
O341 O 0.64447 0.00868 0.69061 0.0
O342 O 0.68813 0.04387 0.60965 0.0
O343 O 0.62396 0.05206 0.7224 0.0
O344 O 0.65537 0.09745 0.64685 0.0
O345 O 0.69621 0.04877 0.70247 0.0
O346 O 0.62548 0.08698 0.67019 0.0
O347 O 0.65563 0.04395 0.74144 0.0
O348 O 0.69406 0.07693 0.66895 0.0
O349 O 0.61874 0.02195 0.65902 0.0
O350 O 0.65034 0.06625 0.58486 0.0
O351 O 0.68216 0.01693 0.64614 0.0
H352 H 0.56235 0.20748 0.27882 0.0
H353 H 0.5759 0.23744 0.3107 0.0
H354 H 0.61396 0.25203 0.21913 0.0
H355 H 0.60116 0.22194 0.1878 0.0
H356 H 0.63402 0.26093 0.27687 0.0
H357 H 0.5654 0.27397 0.23253 0.0
H358 H 0.52817 0.26769 0.22689 0.0
H359 H 0.52085 0.27575 0.34082 0.0
H360 H 0.5581 0.28184 0.34715 0.0
H361 H 0.60761 0.37637 0.28766 0.0
H362 H 0.59834 0.3408 0.27617 0.0
H363 H 0.64254 0.32072 0.35527 0.0
H364 H 0.65248 0.3565 0.36596 0.0
H365 H 0.58196 0.31234 0.31391 0.0
H366 H 0.66074 0.27322 0.33097 0.0
H367 H 0.69763 0.2816 0.32666 0.0
H368 H 0.68422 0.32947 0.25077 0.0
H369 H 0.6473 0.32118 0.25428 0.0
C370 C 0.5738 0.21694 0.26569 0.0
C371 C 0.58045 0.21246 0.23055 0.0
C372 C 0.58151 0.23406 0.28393 0.0
C373 C 0.59569 0.24719 0.26707 0.0
C374 C 0.60305 0.24214 0.23274 0.0
C375 C 0.59559 0.22495 0.21473 0.0
C376 C 0.60171 0.26705 0.28346 0.0
C377 C 0.62265 0.27211 0.28536 0.0
C378 C 0.5869 0.28175 0.2941 0.0
C379 C 0.56453 0.27809 0.29037 0.0
C380 C 0.55586 0.27425 0.2564 0.0
C381 C 0.53476 0.27075 0.25308 0.0
C382 C 0.52217 0.27125 0.2835 0.0
C383 C 0.53064 0.27531 0.3173 0.0
C384 C 0.55173 0.27879 0.32077 0.0
C385 C 0.61535 0.36441 0.30271 0.0
C386 C 0.63084 0.36922 0.32762 0.0
C387 C 0.60998 0.34406 0.2962 0.0
C388 C 0.61979 0.32805 0.31471 0.0
C389 C 0.63497 0.3328 0.34024 0.0
C390 C 0.64062 0.35322 0.34636 0.0
C391 C 0.61425 0.30649 0.30626 0.0
C392 C 0.59339 0.30105 0.30615 0.0
C393 C 0.6291 0.29175 0.29589 0.0
C394 C 0.65126 0.29676 0.2933 0.0
C395 C 0.66569 0.2855 0.31333 0.0
C396 C 0.68659 0.29023 0.31102 0.0
C397 C 0.69325 0.30611 0.28858 0.0
C398 C 0.67903 0.31723 0.26826 0.0
C399 C 0.65812 0.31253 0.27043 0.0
H400 H 0.70944 0.30977 0.28686 0.0
H401 H 0.50584 0.26854 0.28088 0.0
H402 H 0.28402 0.55512 0.78705 0.0
H403 H 0.25159 0.56573 0.8145 0.0
H404 H 0.24131 0.60819 0.7273 0.0
H405 H 0.27347 0.59758 0.6994 0.0
H406 H 0.23364 0.60147 0.83794 0.0
H407 H 0.19197 0.60287 0.69961 0.0
H408 H 0.19493 0.58652 0.63997 0.0
H409 H 0.22583 0.53497 0.68738 0.0
H410 H 0.22272 0.55081 0.74737 0.0
H411 H 0.13721 0.65292 0.84281 0.0
H412 H 0.17202 0.64055 0.83127 0.0
H413 H 0.14851 0.57957 0.81253 0.0
H414 H 0.11371 0.59173 0.82366 0.0
H415 H 0.17289 0.59144 0.75923 0.0
H416 H 0.1758 0.589 0.88643 0.0
H417 H 0.17198 0.60167 0.94853 0.0
H418 H 0.21694 0.64849 0.9283 0.0
H419 H 0.22085 0.63627 0.86588 0.0
C420 C 0.27503 0.56696 0.77397 0.0
C421 C 0.28115 0.57523 0.74066 0.0
C422 C 0.25654 0.57303 0.78979 0.0
C423 C 0.24394 0.58744 0.77254 0.0
C424 C 0.2507 0.59677 0.74067 0.0
C425 C 0.26909 0.59067 0.72477 0.0
C426 C 0.22297 0.59148 0.78597 0.0
C427 C 0.22032 0.59931 0.82082 0.0
C428 C 0.20561 0.58797 0.76392 0.0
C429 C 0.20729 0.57816 0.72795 0.0
C430 C 0.19931 0.58801 0.69733 0.0
C431 C 0.20102 0.57883 0.66346 0.0
C432 C 0.21062 0.55975 0.65987 0.0
C433 C 0.21846 0.54977 0.69018 0.0
C434 C 0.21674 0.55886 0.72412 0.0
C435 C 0.13944 0.63684 0.83657 0.0
C436 C 0.12263 0.62338 0.83376 0.0
C437 C 0.15936 0.62978 0.83017 0.0
C438 C 0.16279 0.60915 0.82111 0.0
C439 C 0.14614 0.59557 0.81935 0.0
C440 C 0.12626 0.60259 0.82569 0.0
C441 C 0.18354 0.60206 0.81084 0.0
C442 C 0.18616 0.59359 0.77649 0.0
C443 C 0.20072 0.60445 0.83374 0.0
C444 C 0.1985 0.61182 0.87133 0.0
C445 C 0.18476 0.6021 0.89511 0.0
C446 C 0.18259 0.60918 0.93039 0.0
C447 C 0.19416 0.62591 0.94232 0.0
C448 C 0.20797 0.63555 0.91901 0.0
C449 C 0.2102 0.62853 0.88368 0.0
H450 H 0.19246 0.63137 0.96965 0.0
H451 H 0.21194 0.55268 0.63362 0.0
H452 H 0.83938 0.13452 0.32612 0.0
H453 H 0.85022 0.1686 0.30603 0.0
H454 H 0.91328 0.15314 0.32859 0.0
H455 H 0.90266 0.11868 0.3478 0.0
H456 H 0.89542 0.19602 0.35195 0.0
H457 H 0.90592 0.14867 0.25264 0.0
H458 H 0.89527 0.12173 0.20991 0.0
H459 H 0.84698 0.16063 0.17072 0.0
H460 H 0.85704 0.18762 0.21382 0.0
H461 H 0.9491 0.272 0.25366 0.0
H462 H 0.93671 0.24071 0.28217 0.0
H463 H 0.87948 0.24595 0.2244 0.0
H464 H 0.89197 0.2771 0.19495 0.0
H465 H 0.89346 0.20824 0.2202 0.0
H466 H 0.88291 0.25611 0.31555 0.0
H467 H 0.89205 0.28359 0.35824 0.0
H468 H 0.93826 0.24494 0.40518 0.0
H469 H 0.9296 0.21732 0.3624 0.0
C470 C 0.85552 0.13848 0.32747 0.0
C471 C 0.87021 0.12395 0.33845 0.0
C472 C 0.86166 0.15789 0.31584 0.0
C473 C 0.88251 0.16319 0.31571 0.0
C474 C 0.89712 0.1492 0.32855 0.0
C475 C 0.89104 0.12958 0.33942 0.0
C476 C 0.88907 0.18291 0.30005 0.0
C477 C 0.89527 0.19871 0.32315 0.0
C478 C 0.88821 0.18639 0.26257 0.0
C479 C 0.88203 0.17005 0.2369 0.0
C480 C 0.89283 0.15136 0.23533 0.0
C481 C 0.88694 0.1361 0.21095 0.0
C482 C 0.87041 0.13944 0.18774 0.0
C483 C 0.85975 0.15804 0.18881 0.0
C484 C 0.86552 0.17331 0.21323 0.0
C485 C 0.93379 0.26665 0.24719 0.0
C486 C 0.92153 0.27709 0.22194 0.0
C487 C 0.9267 0.24877 0.26368 0.0
C488 C 0.90708 0.2411 0.25574 0.0
C489 C 0.89468 0.25161 0.23094 0.0
C490 C 0.90182 0.26944 0.21418 0.0
C491 C 0.89996 0.22159 0.27204 0.0
C492 C 0.89361 0.20572 0.24905 0.0
C493 C 0.9005 0.21815 0.30967 0.0
C494 C 0.90573 0.23471 0.33552 0.0
C495 C 0.89513 0.25353 0.33478 0.0
C496 C 0.90021 0.26912 0.35903 0.0
C497 C 0.91576 0.26603 0.38435 0.0
C498 C 0.92623 0.24732 0.38552 0.0
C499 C 0.92123 0.23168 0.3613 0.0
H500 H 0.91966 0.27812 0.4031 0.0
H501 H 0.8659 0.12767 0.16882 0.0
H502 H 0.35577 0.82508 0.83742 0.0
H503 H 0.31941 0.8313 0.82451 0.0
H504 H 0.32916 0.89647 0.83556 0.0
H505 H 0.36545 0.89047 0.84839 0.0
H506 H 0.2904 0.88098 0.86528 0.0
H507 H 0.33292 0.87773 0.75392 0.0
H508 H 0.35768 0.85835 0.71676 0.0
H509 H 0.31595 0.80737 0.71232 0.0
H510 H 0.29099 0.82646 0.74937 0.0
H511 H 0.22383 0.93924 0.7602 0.0
H512 H 0.25157 0.92184 0.79184 0.0
H513 H 0.23473 0.86459 0.74131 0.0
H514 H 0.2074 0.88219 0.70833 0.0
H515 H 0.27349 0.86847 0.73694 0.0
H516 H 0.22724 0.87351 0.83322 0.0
H517 H 0.20196 0.88916 0.87417 0.0
H518 H 0.24778 0.9311 0.91279 0.0
H519 H 0.27328 0.91599 0.87153 0.0
C520 C 0.35009 0.84071 0.83779 0.0
C521 C 0.36352 0.85732 0.8434 0.0
C522 C 0.32934 0.84421 0.83045 0.0
C523 C 0.32172 0.86434 0.82892 0.0
C524 C 0.33479 0.88083 0.83672 0.0
C525 C 0.35555 0.87738 0.84371 0.0
C526 C 0.30092 0.86858 0.81495 0.0
C527 C 0.28657 0.87831 0.83727 0.0
C528 C 0.29577 0.86424 0.77884 0.0
C529 C 0.31019 0.85343 0.75455 0.0
C530 C 0.32904 0.86242 0.74487 0.0
C531 C 0.34311 0.85148 0.72388 0.0
C532 C 0.33846 0.83159 0.71241 0.0
C533 C 0.31957 0.82275 0.72128 0.0
C534 C 0.30543 0.83364 0.74216 0.0
C535 C 0.22589 0.9229 0.7561 0.0
C536 C 0.21352 0.91211 0.73164 0.0
C537 C 0.24168 0.91291 0.77443 0.0
C538 C 0.2451 0.8918 0.7694 0.0
C539 C 0.23241 0.88087 0.74562 0.0
C540 C 0.21682 0.89095 0.72679 0.0
C541 C 0.26292 0.88168 0.78692 0.0
C542 C 0.27685 0.87083 0.76522 0.0
C543 C 0.26739 0.88454 0.82391 0.0
C544 C 0.25218 0.89366 0.84907 0.0
C545 C 0.23192 0.88616 0.85026 0.0
C546 C 0.21754 0.89493 0.87356 0.0
C547 C 0.22325 0.91112 0.89606 0.0
C548 C 0.24338 0.91855 0.89534 0.0
C549 C 0.25781 0.90987 0.87202 0.0
H550 H 0.21209 0.91789 0.91408 0.0
H551 H 0.34951 0.823 0.69677 0.0
H552 H 0.56734 0.28006 0.72777 0.0
H553 H 0.58136 0.2482 0.7036 0.0
H554 H 0.61831 0.24059 0.79897 0.0
H555 H 0.60431 0.27249 0.82356 0.0
H556 H 0.61992 0.23391 0.68801 0.0
H557 H 0.61457 0.18758 0.8207 0.0
H558 H 0.59536 0.18755 0.87791 0.0
H559 H 0.54552 0.21964 0.82735 0.0
H560 H 0.56427 0.21956 0.7697 0.0
H561 H 0.66408 0.13412 0.66682 0.0
H562 H 0.65549 0.16875 0.68736 0.0
H563 H 0.59221 0.15057 0.7006 0.0
H564 H 0.60069 0.11595 0.681 0.0
H565 H 0.60445 0.17063 0.75714 0.0
H566 H 0.60768 0.18059 0.62974 0.0
H567 H 0.62327 0.17931 0.56933 0.0
H568 H 0.67215 0.21866 0.60477 0.0
H569 H 0.65698 0.21995 0.66557 0.0
C570 C 0.57864 0.27176 0.74346 0.0
C571 C 0.58454 0.27867 0.77776 0.0
C572 C 0.58671 0.25363 0.72951 0.0
C573 C 0.60065 0.242 0.74973 0.0
C574 C 0.60739 0.24932 0.78317 0.0
C575 C 0.59943 0.26757 0.79708 0.0
C576 C 0.60694 0.22155 0.73672 0.0
C577 C 0.61681 0.22005 0.70328 0.0
C578 C 0.6024 0.20352 0.7564 0.0
C579 C 0.59102 0.2039 0.79103 0.0
C580 C 0.59953 0.19467 0.82181 0.0
C581 C 0.5887 0.19463 0.85429 0.0
C582 C 0.56929 0.20371 0.85631 0.0
C583 C 0.56062 0.21275 0.8258 0.0
C584 C 0.57137 0.21278 0.79322 0.0
C585 C 0.64831 0.13757 0.6738 0.0
C586 C 0.63307 0.1223 0.67228 0.0
C587 C 0.64342 0.15735 0.68547 0.0
C588 C 0.62319 0.16223 0.69528 0.0
C589 C 0.60793 0.1471 0.69326 0.0
C590 C 0.61282 0.12732 0.68196 0.0
C591 C 0.61788 0.18291 0.70872 0.0
C592 C 0.60809 0.18446 0.74222 0.0
C593 C 0.62217 0.20092 0.68883 0.0
C594 C 0.63132 0.20018 0.6523 0.0
C595 C 0.62185 0.18883 0.62474 0.0
C596 C 0.63059 0.18813 0.59041 0.0
C597 C 0.64872 0.19885 0.58325 0.0
C598 C 0.65812 0.21034 0.61038 0.0
C599 C 0.64945 0.21107 0.64477 0.0
H600 H 0.65546 0.19829 0.55665 0.0
H601 H 0.56093 0.20366 0.88148 0.0
H602 H 0.3611 0.66303 0.15829 0.0
H603 H 0.32549 0.65401 0.17215 0.0
H604 H 0.3425 0.59019 0.18004 0.0
H605 H 0.37806 0.59896 0.1662 0.0
H606 H 0.30443 0.59725 0.14427 0.0
H607 H 0.34099 0.61812 0.25397 0.0
H608 H 0.36083 0.64321 0.28956 0.0
H609 H 0.31182 0.68696 0.27958 0.0
H610 H 0.29186 0.66224 0.2435 0.0
H611 H 0.2326 0.54768 0.25441 0.0
H612 H 0.26251 0.56227 0.22436 0.0
H613 H 0.2408 0.62336 0.24865 0.0
H614 H 0.21132 0.60874 0.28035 0.0
H615 H 0.27874 0.62218 0.26209 0.0
H616 H 0.23977 0.60205 0.16067 0.0
H617 H 0.21892 0.57953 0.12189 0.0
H618 H 0.26973 0.53798 0.11111 0.0
H619 H 0.29081 0.56008 0.15028 0.0
C620 C 0.35722 0.64703 0.16243 0.0
C621 C 0.37246 0.63173 0.16152 0.0
C622 C 0.33688 0.64194 0.17037 0.0
C623 C 0.33149 0.62148 0.17737 0.0
C624 C 0.34642 0.60607 0.17468 0.0
C625 C 0.36675 0.61114 0.16701 0.0
C626 C 0.31074 0.61616 0.19037 0.0
C627 C 0.29874 0.60258 0.17006 0.0
C628 C 0.30315 0.62381 0.22335 0.0
C629 C 0.31504 0.63843 0.24573 0.0
C630 C 0.33452 0.63314 0.25919 0.0
C631 C 0.34578 0.64729 0.27945 0.0
C632 C 0.33763 0.66671 0.28664 0.0
C633 C 0.31815 0.67196 0.27384 0.0
C634 C 0.30686 0.65788 0.25353 0.0
C635 C 0.23414 0.56422 0.25313 0.0
C636 C 0.21967 0.57707 0.26976 0.0
C637 C 0.25117 0.57257 0.23568 0.0
C638 C 0.25376 0.59396 0.23359 0.0
C639 C 0.23915 0.60682 0.24984 0.0
C640 C 0.22233 0.59846 0.26796 0.0
C641 C 0.27235 0.60276 0.21639 0.0
C642 C 0.28406 0.61701 0.23596 0.0
C643 C 0.27943 0.59606 0.18231 0.0
C644 C 0.26683 0.58268 0.15865 0.0
C645 C 0.24646 0.58804 0.15025 0.0
C646 C 0.2346 0.57535 0.12816 0.0
C647 C 0.24298 0.55732 0.11409 0.0
C648 C 0.26325 0.55195 0.12204 0.0
C649 C 0.27518 0.56457 0.14415 0.0
H650 H 0.23378 0.54752 0.09699 0.0
H651 H 0.34637 0.67771 0.30214 0.0
H652 H 0.90061 0.37913 0.67449 0.0
H653 H 0.91264 0.34435 0.68642 0.0
H654 H 0.85146 0.321 0.66907 0.0
H655 H 0.83922 0.35573 0.65675 0.0
H656 H 0.90071 0.31959 0.74008 0.0
H657 H 0.8554 0.27219 0.63436 0.0
H658 H 0.84199 0.2763 0.57272 0.0
H659 H 0.88822 0.32155 0.55042 0.0
H660 H 0.90209 0.3175 0.61171 0.0
H661 H 0.89527 0.21815 0.79555 0.0
H662 H 0.88373 0.24992 0.7675 0.0
H663 H 0.92942 0.24302 0.68443 0.0
H664 H 0.94114 0.21102 0.7122 0.0
H665 H 0.89128 0.25951 0.65958 0.0
H666 H 0.94236 0.27139 0.75098 0.0
H667 H 0.95748 0.26723 0.81139 0.0
H668 H 0.90368 0.29397 0.85897 0.0
H669 H 0.88817 0.29813 0.79883 0.0
C670 C 0.88969 0.36662 0.67291 0.0
C671 C 0.8689 0.37026 0.66479 0.0
C672 C 0.89662 0.34675 0.67977 0.0
C673 C 0.88297 0.33014 0.67841 0.0
C674 C 0.86229 0.33361 0.66977 0.0
C675 C 0.85531 0.3535 0.66295 0.0
C676 C 0.89011 0.30934 0.68818 0.0
C677 C 0.89872 0.3065 0.72239 0.0
C678 C 0.8877 0.29232 0.6649 0.0
C679 C 0.87966 0.29466 0.62777 0.0
C680 C 0.86276 0.28295 0.61625 0.0
C681 C 0.85507 0.28528 0.58138 0.0
C682 C 0.86421 0.29922 0.5577 0.0
C683 C 0.88111 0.31081 0.56882 0.0
C684 C 0.88887 0.30853 0.60365 0.0
C685 C 0.90269 0.22315 0.77099 0.0
C686 C 0.9194 0.21224 0.75649 0.0
C687 C 0.89603 0.24129 0.75498 0.0
C688 C 0.90598 0.2489 0.72432 0.0
C689 C 0.92163 0.23735 0.70819 0.0
C690 C 0.92833 0.21913 0.72419 0.0
C691 C 0.90142 0.26986 0.71162 0.0
C692 C 0.89332 0.2727 0.67705 0.0
C693 C 0.90458 0.287 0.73429 0.0
C694 C 0.91405 0.28493 0.77043 0.0
C695 C 0.93372 0.2763 0.77435 0.0
C696 C 0.94237 0.27395 0.80853 0.0
C697 C 0.93153 0.28029 0.839 0.0
C698 C 0.91205 0.28905 0.83534 0.0
C699 C 0.90335 0.29146 0.80121 0.0
H700 H 0.93825 0.27848 0.86545 0.0
H701 H 0.85822 0.30102 0.53073 0.0
H702 H 0.13409 0.84908 0.12991 0.0
H703 H 0.16953 0.85991 0.14071 0.0
H704 H 0.14814 0.90558 0.21581 0.0
H705 H 0.1128 0.89533 0.20463 0.0
H706 H 0.17722 0.92122 0.17893 0.0
H707 H 0.16716 0.85744 0.24255 0.0
H708 H 0.15832 0.82074 0.24787 0.0
H709 H 0.20709 0.80525 0.175 0.0
H710 H 0.21604 0.84192 0.16889 0.0
H711 H 0.26752 0.90286 0.30832 0.0
H712 H 0.23681 0.89051 0.27801 0.0
H713 H 0.25161 0.92748 0.18514 0.0
H714 H 0.28206 0.94065 0.21615 0.0
H715 H 0.22779 0.86982 0.22189 0.0
H716 H 0.20791 0.94447 0.14614 0.0
H717 H 0.21395 0.9818 0.15063 0.0
H718 H 0.22086 0.97649 0.26514 0.0
H719 H 0.21463 0.9392 0.26133 0.0
C720 C 0.13693 0.86147 0.14868 0.0
C721 C 0.12059 0.87123 0.16662 0.0
C722 C 0.1572 0.86762 0.15483 0.0
C723 C 0.16149 0.88339 0.17947 0.0
C724 C 0.14517 0.8934 0.1967 0.0
C725 C 0.12496 0.88744 0.19036 0.0
C726 C 0.18288 0.88911 0.18877 0.0
C727 C 0.18834 0.90994 0.18798 0.0
C728 C 0.19733 0.87446 0.20103 0.0
C729 C 0.19211 0.85241 0.20493 0.0
C730 C 0.17591 0.84621 0.22749 0.0
C731 C 0.17089 0.82542 0.23066 0.0
C732 C 0.18209 0.81068 0.21169 0.0
C733 C 0.1984 0.81669 0.18961 0.0
C734 C 0.20345 0.83747 0.18628 0.0
C735 C 0.26435 0.90828 0.28134 0.0
C736 C 0.27708 0.92292 0.26478 0.0
C737 C 0.24681 0.90112 0.26394 0.0
C738 C 0.24173 0.90824 0.22944 0.0
C739 C 0.25498 0.92209 0.21206 0.0
C740 C 0.27238 0.92958 0.22976 0.0
C741 C 0.22192 0.902 0.21301 0.0
C742 C 0.21681 0.88105 0.21219 0.0
C743 C 0.20744 0.91663 0.20073 0.0
C744 C 0.21109 0.93904 0.20335 0.0
C745 C 0.21069 0.9513 0.17226 0.0
C746 C 0.21415 0.97244 0.17469 0.0
C747 C 0.21787 0.9815 0.20813 0.0
C748 C 0.21806 0.96945 0.23923 0.0
C749 C 0.21459 0.94831 0.23695 0.0
H750 H 0.22056 -0.00214 0.20995 0.0
H751 H 0.17818 0.79459 0.21416 0.0
H752 H 0.3945 0.61895 0.66135 0.0
H753 H 0.40378 0.65393 0.67829 0.0
H754 H 0.34128 0.6655 0.71119 0.0
H755 H 0.33171 0.63072 0.69314 0.0
H756 H 0.35655 0.69875 0.68105 0.0
H757 H 0.37777 0.65291 0.77335 0.0
H758 H 0.3945 0.62272 0.80017 0.0
H759 H 0.45326 0.64414 0.76336 0.0
H760 H 0.43676 0.67447 0.73598 0.0
H761 H 0.38572 0.77738 0.81107 0.0
H762 H 0.37237 0.74596 0.78314 0.0
H763 H 0.42783 0.74041 0.72053 0.0
H764 H 0.44114 0.77187 0.74761 0.0
H765 H 0.41486 0.70493 0.76633 0.0
H766 H 0.39061 0.753 0.67628 0.0
H767 H 0.3715 0.7835 0.65579 0.0
H768 H 0.31546 0.75781 0.69673 0.0
H769 H 0.33431 0.72727 0.71804 0.0
C770 C 0.38269 0.629 0.67188 0.0
C771 C 0.36244 0.62202 0.67632 0.0
C772 C 0.38801 0.64896 0.6816 0.0
C773 C 0.3733 0.66214 0.69673 0.0
C774 C 0.35287 0.65555 0.69967 0.0
C775 C 0.34745 0.63566 0.68943 0.0
C776 C 0.37955 0.68233 0.71132 0.0
C777 C 0.36917 0.70008 0.69995 0.0
C778 C 0.39598 0.68406 0.73607 0.0
C779 C 0.406 0.66583 0.7523 0.0
C780 C 0.39424 0.65109 0.77072 0.0
C781 C 0.4037 0.63396 0.78607 0.0
C782 C 0.42496 0.63143 0.78337 0.0
C783 C 0.43679 0.64609 0.76538 0.0
C784 C 0.4274 0.66328 0.74997 0.0
C785 C 0.39498 0.76953 0.79116 0.0
C786 C 0.4145 0.77699 0.78162 0.0
C787 C 0.3873 0.75172 0.77514 0.0
C788 C 0.39916 0.74107 0.74982 0.0
C789 C 0.4185 0.74858 0.73995 0.0
C790 C 0.42603 0.76653 0.75543 0.0
C791 C 0.39214 0.72123 0.73553 0.0
C792 C 0.40232 0.70354 0.74726 0.0
C793 C 0.37524 0.71959 0.71192 0.0
C794 C 0.36391 0.73794 0.69909 0.0
C795 C 0.37425 0.75394 0.68127 0.0
C796 C 0.36346 0.77122 0.66942 0.0
C797 C 0.34229 0.77259 0.67498 0.0
C798 C 0.33186 0.75671 0.69244 0.0
C799 C 0.34259 0.73941 0.70439 0.0
H800 H 0.33393 0.78592 0.66563 0.0
H801 H 0.43228 0.61816 0.79529 0.0
H802 H 0.71321 0.38422 0.29481 0.0
H803 H 0.74472 0.3703 0.26874 0.0
H804 H 0.75755 0.42902 0.21977 0.0
H805 H 0.72577 0.44279 0.24458 0.0
H806 H 0.7678 0.40048 0.17543 0.0
H807 H 0.78025 0.41331 0.30032 0.0
H808 H 0.77503 0.41096 0.36589 0.0
H809 H 0.7842 0.34573 0.36162 0.0
H810 H 0.78919 0.34766 0.2959 0.0
H811 H 0.87769 0.39646 0.16917 0.0
H812 H 0.84206 0.40454 0.18486 0.0
H813 H 0.82915 0.34008 0.19846 0.0
H814 H 0.86458 0.33178 0.18201 0.0
H815 H 0.81809 0.36809 0.25809 0.0
H816 H 0.80959 0.35837 0.13076 0.0
H817 H 0.81796 0.36406 0.06685 0.0
H818 H 0.80475 0.4283 0.07843 0.0
H819 H 0.7966 0.42305 0.14259 0.0
C820 C 0.72267 0.3941 0.27821 0.0
C821 C 0.71711 0.41465 0.27198 0.0
C822 C 0.7407 0.38616 0.26346 0.0
C823 C 0.75369 0.39875 0.24293 0.0
C824 C 0.74777 0.41903 0.23558 0.0
C825 C 0.7296 0.42689 0.24983 0.0
C826 C 0.77381 0.39113 0.23011 0.0
C827 C 0.77885 0.39357 0.19361 0.0
C828 C 0.78815 0.38186 0.25372 0.0
C829 C 0.78478 0.38059 0.29312 0.0
C830 C 0.78092 0.39843 0.31331 0.0
C831 C 0.77806 0.39719 0.35051 0.0
C832 C 0.7792 0.3782 0.36789 0.0
C833 C 0.78325 0.36042 0.3481 0.0
C834 C 0.78609 0.36158 0.31088 0.0
C835 C 0.86722 0.38402 0.17528 0.0
C836 C 0.87384 0.3635 0.17429 0.0
C837 C 0.84691 0.38864 0.184 0.0
C838 C 0.83311 0.37285 0.19246 0.0
C839 C 0.83966 0.35239 0.19174 0.0
C840 C 0.85984 0.34772 0.18229 0.0
C841 C 0.81208 0.37786 0.20386 0.0
C842 C 0.80691 0.37488 0.24001 0.0
C843 C 0.7979 0.38716 0.18022 0.0
C844 C 0.80267 0.39034 0.14158 0.0
C845 C 0.80865 0.37374 0.11977 0.0
C846 C 0.81332 0.37688 0.08348 0.0
C847 C 0.81194 0.39653 0.06861 0.0
C848 C 0.80583 0.41308 0.08999 0.0
C849 C 0.80116 0.41003 0.12631 0.0
H850 H 0.81556 0.39893 0.0405 0.0
H851 H 0.77702 0.37727 0.39671 0.0
H852 H 0.10477 0.88271 0.71069 0.0
H853 H 0.09623 0.84828 0.73146 0.0
H854 H 0.14429 0.82311 0.66477 0.0
H855 H 0.15337 0.85767 0.64459 0.0
H856 H 0.08277 0.81555 0.70069 0.0
H857 H 0.16575 0.78212 0.70628 0.0
H858 H 0.20103 0.79476 0.71622 0.0
H859 H 0.17753 0.84591 0.77631 0.0
H860 H 0.14218 0.83337 0.76731 0.0
H861 H 0.07121 0.71022 0.72483 0.0
H862 H 0.08442 0.74255 0.7009 0.0
H863 H 0.11269 0.75584 0.80325 0.0
H864 H 0.10012 0.72327 0.82703 0.0
H865 H 0.13624 0.76976 0.75187 0.0
H866 H 0.06565 0.77524 0.7827 0.0
H867 H 0.02902 0.76564 0.78322 0.0
H868 H 0.02555 0.77566 0.66921 0.0
H869 H 0.06228 0.78499 0.66792 0.0
C870 C 0.11345 0.86985 0.70019 0.0
C871 C 0.12979 0.87292 0.67602 0.0
C872 C 0.10854 0.85017 0.71211 0.0
C873 C 0.11975 0.83316 0.69996 0.0
C874 C 0.13568 0.83608 0.675 0.0
C875 C 0.14078 0.85582 0.66337 0.0
C876 C 0.11486 0.81241 0.71377 0.0
C877 C 0.09449 0.80552 0.71172 0.0
C878 C 0.13002 0.79959 0.72931 0.0
C879 C 0.1513 0.80691 0.73573 0.0
C880 C 0.16812 0.79599 0.72178 0.0
C881 C 0.18813 0.80315 0.72725 0.0
C882 C 0.19151 0.82117 0.74678 0.0
C883 C 0.1749 0.83199 0.7611 0.0
C884 C 0.15487 0.82487 0.7558 0.0
C885 C 0.0805 0.71987 0.74208 0.0
C886 C 0.08438 0.71431 0.77797 0.0
C887 C 0.08801 0.73836 0.72839 0.0
C888 C 0.09915 0.7518 0.75055 0.0
C889 C 0.10407 0.74573 0.78571 0.0
C890 C 0.09682 0.72711 0.79928 0.0
C891 C 0.10424 0.77278 0.73803 0.0
C892 C 0.1246 0.77974 0.74049 0.0
C893 C 0.08889 0.7861 0.72452 0.0
C894 C 0.06677 0.7806 0.72515 0.0
C895 C 0.05711 0.77525 0.7577 0.0
C896 C 0.03633 0.76988 0.75814 0.0
C897 C 0.02498 0.77001 0.72626 0.0
C898 C 0.03438 0.77554 0.69388 0.0
C899 C 0.05518 0.78087 0.69327 0.0
H900 H 0.00889 0.76585 0.72666 0.0
H901 H 0.20701 0.82672 0.75087 0.0
H902 H 0.61585 0.10507 0.20479 0.0
H903 H 0.65033 0.09846 0.22737 0.0
H904 H 0.67385 0.1483 0.16281 0.0
H905 H 0.63915 0.15552 0.14108 0.0
H906 H 0.68406 0.08709 0.199 0.0
H907 H 0.71398 0.1711 0.20513 0.0
H908 H 0.70011 0.20605 0.21322 0.0
H909 H 0.64838 0.18157 0.27063 0.0
H910 H 0.66209 0.14653 0.26337 0.0
H911 H 0.78899 0.08163 0.22561 0.0
H912 H 0.75697 0.09513 0.20121 0.0
H913 H 0.7396 0.11671 0.30658 0.0
H914 H 0.77178 0.10347 0.33131 0.0
H915 H 0.72618 0.14268 0.25288 0.0
H916 H 0.72385 0.07149 0.28272 0.0
H917 H 0.73603 0.03565 0.28262 0.0
H918 H 0.72819 0.03276 0.16806 0.0
H919 H 0.71644 0.06878 0.16735 0.0
C920 C 0.62837 0.11453 0.19514 0.0
C921 C 0.62479 0.13087 0.17125 0.0
C922 C 0.64808 0.11075 0.20812 0.0
C923 C 0.66462 0.12307 0.1972 0.0
C924 C 0.66123 0.1389 0.17225 0.0
C925 C 0.64143 0.14292 0.15967 0.0
C926 C 0.68535 0.1193 0.21217 0.0
C927 C 0.69325 0.09929 0.21066 0.0
C928 C 0.69716 0.13511 0.22822 0.0
C929 C 0.68897 0.15617 0.23334 0.0
C930 C 0.6997 0.17319 0.21961 0.0
C931 C 0.69185 0.19302 0.22404 0.0
C932 C 0.67334 0.19602 0.24232 0.0
C933 C 0.66268 0.17922 0.25637 0.0
C934 C 0.67048 0.15937 0.25208 0.0
C935 C 0.77856 0.08959 0.24353 0.0
C936 C 0.78272 0.09112 0.28054 0.0
C937 C 0.7603 0.09733 0.2295 0.0
C938 C 0.74582 0.10652 0.25227 0.0
C939 C 0.75061 0.10958 0.28864 0.0
C940 C 0.76897 0.10195 0.30272 0.0
C941 C 0.72486 0.11063 0.23898 0.0
C942 C 0.71695 0.13061 0.24093 0.0
C943 C 0.71265 0.09466 0.22458 0.0
C944 C 0.71948 0.07291 0.22493 0.0
C945 C 0.72489 0.06328 0.25746 0.0
C946 C 0.73169 0.04292 0.25756 0.0
C947 C 0.73289 0.03195 0.22536 0.0
C948 C 0.72727 0.0413 0.19298 0.0
C949 C 0.72056 0.06169 0.1927 0.0
H950 H 0.73814 0.01618 0.2255 0.0
H951 H 0.66727 0.21138 0.24565 0.0
H952 H 0.3434 0.86153 0.35291 0.0
H953 H 0.35247 0.8266 0.33411 0.0
H954 H 0.38708 0.85125 0.245 0.0
H955 H 0.37872 0.88606 0.26442 0.0
H956 H 0.34654 0.80385 0.27585 0.0
H957 H 0.42915 0.82335 0.22986 0.0
H958 H 0.45646 0.84847 0.24305 0.0
H959 H 0.43261 0.85661 0.34979 0.0
H960 H 0.40539 0.83125 0.33747 0.0
H961 H 0.39375 0.72494 0.16926 0.0
H962 H 0.3793 0.75678 0.19337 0.0
H963 H 0.41562 0.74967 0.28956 0.0
H964 H 0.43015 0.718 0.26592 0.0
H965 H 0.42032 0.78716 0.25969 0.0
H966 H 0.36541 0.74291 0.29442 0.0
H967 H 0.33872 0.71663 0.28532 0.0
H968 H 0.30794 0.7559 0.2098 0.0
H969 H 0.33465 0.78236 0.21813 0.0
C970 C 0.35296 0.85944 0.32935 0.0
C971 C 0.36074 0.87646 0.31054 0.0
C972 C 0.35805 0.83952 0.31855 0.0
C973 C 0.37079 0.83635 0.28857 0.0
C974 C 0.37771 0.85335 0.26879 0.0
C975 C 0.37296 0.87321 0.27993 0.0
C976 C 0.37753 0.81539 0.27864 0.0
C977 C 0.36266 0.80018 0.27234 0.0
C978 C 0.3986 0.81051 0.27463 0.0
C979 C 0.41513 0.82552 0.28261 0.0
C980 C 0.42981 0.83041 0.25621 0.0
C981 C 0.44527 0.84469 0.26354 0.0
C982 C 0.44623 0.85418 0.2972 0.0
C983 C 0.43181 0.8493 0.32369 0.0
C984 C 0.41636 0.83497 0.31655 0.0
C985 C 0.39848 0.73001 0.19572 0.0
C986 C 0.41326 0.71898 0.21548 0.0
C987 C 0.39016 0.74816 0.20949 0.0
C988 C 0.39644 0.75554 0.24321 0.0
C989 C 0.41066 0.74425 0.26342 0.0
C990 C 0.41892 0.72613 0.2498 0.0
C991 C 0.38935 0.77572 0.25646 0.0
C992 C 0.40419 0.79081 0.26327 0.0
C993 C 0.36833 0.78031 0.26155 0.0
C994 C 0.35214 0.76454 0.25665 0.0
C995 C 0.35304 0.74588 0.27565 0.0
C996 C 0.33789 0.73096 0.27067 0.0
C997 C 0.32167 0.73455 0.2469 0.0
C998 C 0.32053 0.75312 0.22817 0.0
C999 C 0.33566 0.76811 0.23305 0.0
H1000 H 0.30996 0.72297 0.24305 0.0
H1001 H 0.45818 0.86529 0.30276 0.0
H1002 H 0.63491 0.34822 0.86701 0.0
H1003 H 0.67054 0.3577 0.85459 0.0
H1004 H 0.6503 0.39688 0.76803 0.0
H1005 H 0.61465 0.3882 0.7812 0.0
H1006 H 0.69396 0.35182 0.79975 0.0
H1007 H 0.68066 0.43547 0.75351 0.0
H1008 H 0.65696 0.46414 0.766 0.0
H1009 H 0.64686 0.44108 0.87278 0.0
H1010 H 0.67063 0.41236 0.86101 0.0
H1011 H 0.77273 0.39059 0.68714 0.0
H1012 H 0.74136 0.37885 0.7165 0.0
H1013 H 0.7539 0.41836 0.80695 0.0
H1014 H 0.78519 0.43044 0.77765 0.0
H1015 H 0.71606 0.42408 0.7831 0.0
H1016 H 0.75687 0.36639 0.81574 0.0
H1017 H 0.78077 0.33754 0.80625 0.0
H1018 H 0.73755 0.30894 0.73491 0.0
H1019 H 0.71349 0.33777 0.74356 0.0
C1020 C 0.63804 0.359 0.84551 0.0
C1021 C 0.62195 0.36755 0.82519 0.0
C1022 C 0.65842 0.36435 0.83839 0.0
C1023 C 0.66308 0.37822 0.81066 0.0
C1024 C 0.64704 0.38657 0.79013 0.0
C1025 C 0.62667 0.38151 0.79759 0.0
C1026 C 0.68473 0.38357 0.80242 0.0
C1027 C 0.69884 0.36762 0.79637 0.0
C1028 C 0.69122 0.40419 0.79858 0.0
C1029 C 0.67738 0.42174 0.80632 0.0
C1030 C 0.67351 0.43662 0.77975 0.0
C1031 C 0.66002 0.45284 0.78667 0.0
C1032 C 0.6504 0.45442 0.82015 0.0
C1033 C 0.6543 0.43981 0.84683 0.0
C1034 C 0.66776 0.42355 0.84004 0.0
C1035 C 0.76904 0.39655 0.71353 0.0
C1036 C 0.78142 0.4116 0.72986 0.0
C1037 C 0.75111 0.38976 0.73036 0.0
C1038 C 0.74532 0.39771 0.76395 0.0
C1039 C 0.75807 0.41208 0.78098 0.0
C1040 C 0.77597 0.41892 0.76417 0.0
C1041 C 0.72516 0.39233 0.7798 0.0
C1042 C 0.71129 0.40828 0.78706 0.0
C1043 C 0.71904 0.37174 0.78535 0.0
C1044 C 0.73343 0.35433 0.78012 0.0
C1045 C 0.75252 0.35403 0.79782 0.0
C1046 C 0.76609 0.33766 0.79262 0.0
C1047 C 0.7607 0.32144 0.76994 0.0
C1048 C 0.74171 0.32152 0.75246 0.0
C1049 C 0.72808 0.33786 0.75754 0.0
H1050 H 0.77123 0.30878 0.76595 0.0
H1051 H 0.63994 0.46697 0.82543 0.0
H1052 H 0.11069 0.79014 0.20492 0.0
H1053 H 0.1259 0.75881 0.22969 0.0
H1054 H 0.06535 0.73612 0.25549 0.0
H1055 H 0.05024 0.76769 0.23247 0.0
H1056 H 0.08943 0.72615 0.30654 0.0
H1057 H 0.09346 0.7214 0.17714 0.0
H1058 H 0.10342 0.73269 0.11624 0.0
H1059 H 0.16705 0.73069 0.14637 0.0
H1060 H 0.15743 0.7196 0.20761 0.0
H1061 H 0.1016 0.61831 0.29755 0.0
H1062 H 0.0935 0.65372 0.28126 0.0
H1063 H 0.15685 0.67082 0.29669 0.0
H1064 H 0.16515 0.63538 0.31359 0.0
H1065 H 0.13576 0.68497 0.22888 0.0
H1066 H 0.1295 0.68497 0.35802 0.0
H1067 H 0.11727 0.67102 0.41576 0.0
H1068 H 0.05476 0.67968 0.38234 0.0
H1069 H 0.06663 0.69336 0.32403 0.0
C1070 C 0.10068 0.77851 0.21617 0.0
C1071 C 0.07927 0.7813 0.2166 0.0
C1072 C 0.10937 0.76058 0.23016 0.0
C1073 C 0.09675 0.7449 0.24383 0.0
C1074 C 0.07543 0.74797 0.24513 0.0
C1075 C 0.06679 0.76603 0.23189 0.0
C1076 C 0.10548 0.72499 0.2558 0.0
C1077 C 0.09949 0.71716 0.28942 0.0
C1078 C 0.11892 0.71332 0.23382 0.0
C1079 C 0.12472 0.71991 0.19703 0.0
C1080 C 0.10957 0.72351 0.17083 0.0
C1081 C 0.11515 0.72985 0.13625 0.0
C1082 C 0.13585 0.73247 0.12748 0.0
C1083 C 0.15102 0.72869 0.15323 0.0
C1084 C 0.14551 0.72237 0.18786 0.0
C1085 C 0.11384 0.62956 0.29749 0.0
C1086 C 0.134 0.62408 0.30708 0.0
C1087 C 0.10917 0.64977 0.28823 0.0
C1088 C 0.12459 0.66478 0.28803 0.0
C1089 C 0.1448 0.65936 0.29681 0.0
C1090 C 0.14945 0.63918 0.30662 0.0
C1091 C 0.11933 0.68619 0.27903 0.0
C1092 C 0.12597 0.69421 0.24607 0.0
C1093 C 0.10616 0.69785 0.30122 0.0
C1094 C 0.09896 0.69004 0.33654 0.0
C1095 C 0.11314 0.68376 0.36287 0.0
C1096 C 0.10627 0.67592 0.39573 0.0
C1097 C 0.08524 0.67442 0.40272 0.0
C1098 C 0.07104 0.68084 0.37689 0.0
C1099 C 0.07784 0.68866 0.34393 0.0
H1100 H 0.07994 0.66831 0.42816 0.0
H1101 H 0.14014 0.73738 0.1007 0.0
H1102 H 0.88232 0.09646 0.81972 0.0
H1103 H 0.84865 0.0862 0.79754 0.0
H1104 H 0.82987 0.14966 0.79355 0.0
H1105 H 0.8635 0.16014 0.81628 0.0
H1106 H 0.79961 0.12635 0.81887 0.0
H1107 H 0.84389 0.12492 0.71733 0.0
H1108 H 0.87408 0.11626 0.68019 0.0
H1109 H 0.85925 0.05221 0.68801 0.0
H1110 H 0.82914 0.06043 0.72562 0.0
H1111 H 0.71558 0.10622 0.6971 0.0
H1112 H 0.74784 0.11906 0.72251 0.0
H1113 H 0.76526 0.05733 0.75111 0.0
H1114 H 0.73294 0.04436 0.7264 0.0
H1115 H 0.79574 0.08157 0.71111 0.0
H1116 H 0.75098 0.08511 0.81514 0.0
H1117 H 0.71959 0.09591 0.84704 0.0
H1118 H 0.73494 0.15917 0.82877 0.0
H1119 H 0.76628 0.14872 0.79625 0.0
C1120 C 0.87102 0.10828 0.81444 0.0
C1121 C 0.87571 0.12916 0.8196 0.0
C1122 C 0.8518 0.10237 0.80153 0.0
C1123 C 0.83691 0.11719 0.79322 0.0
C1124 C 0.8412 0.13798 0.79961 0.0
C1125 C 0.86044 0.14393 0.81265 0.0
C1126 C 0.81697 0.1109 0.77755 0.0
C1127 C 0.79878 0.11679 0.79503 0.0
C1128 C 0.81588 0.09835 0.74648 0.0
C1129 C 0.83433 0.09329 0.72463 0.0
C1130 C 0.84719 0.10896 0.7115 0.0
C1131 C 0.86426 0.10414 0.69027 0.0
C1132 C 0.86857 0.08371 0.68179 0.0
C1133 C 0.85588 0.06804 0.69462 0.0
C1134 C 0.8388 0.07277 0.71588 0.0
C1135 C 0.72623 0.09539 0.70898 0.0
C1136 C 0.72173 0.07428 0.70979 0.0
C1137 C 0.7446 0.10276 0.7235 0.0
C1138 C 0.75884 0.0891 0.7386 0.0
C1139 C 0.75441 0.06805 0.73951 0.0
C1140 C 0.73591 0.06071 0.72557 0.0
C1141 C 0.77859 0.0967 0.75285 0.0
C1142 C 0.79669 0.09113 0.73494 0.0
C1143 C 0.77957 0.10983 0.78303 0.0
C1144 C 0.76086 0.11612 0.80292 0.0
C1145 C 0.74757 0.10132 0.81764 0.0
C1146 C 0.7298 0.10738 0.8359 0.0
C1147 C 0.72524 0.12821 0.83984 0.0
C1148 C 0.73847 0.14303 0.82565 0.0
C1149 C 0.75625 0.13705 0.80733 0.0
H1150 H 0.71147 0.13288 0.85396 0.0
H1151 H 0.88169 0.08 0.66516 0.0
H1152 H 0.54579 0.10491 0.03945 0.0
H1153 H 0.55721 0.09036 0.9821 0.0
H1154 H 0.6069 0.13423 0.97838 0.0
H1155 H 0.59465 0.14965 0.03394 0.0
H1156 H 0.59675 0.12853 0.9154 0.0
H1157 H 0.61161 0.08194 0.01085 0.0
H1158 H 0.60464 0.05994 0.06345 0.0
H1159 H 0.56368 0.02303 0.00016 0.0
H1160 H 0.5702 0.04499 0.94727 0.0
H1161 H 0.66105 0.06419 0.80269 0.0
H1162 H 0.64881 0.07809 0.86035 0.0
H1163 H 0.58673 0.06164 0.83236 0.0
H1164 H 0.59858 0.04878 0.77432 0.0
H1165 H 0.60494 0.0528 0.91119 0.0
H1166 H 0.59228 0.10432 0.81533 0.0
H1167 H 0.60557 0.12517 0.76508 0.0
H1168 H 0.65038 0.15228 0.83519 0.0
H1169 H 0.63758 0.13126 0.88573 0.0
C1170 C 0.55885 0.1117 0.02586 0.0
C1171 C 0.56934 0.12837 0.04117 0.0
C1172 C 0.56555 0.10324 0.99332 0.0
C1173 C 0.58337 0.11073 0.97636 0.0
C1174 C 0.59319 0.12805 0.99082 0.0
C1175 C 0.58612 0.1369 0.02266 0.0
C1176 C 0.59236 0.10014 0.94453 0.0
C1177 C 0.59866 0.11199 0.91486 0.0
C1178 C 0.59517 0.07852 0.94352 0.0
C1179 C 0.59123 0.06524 0.97522 0.0
C1180 C 0.60101 0.06922 0.00822 0.0
C1181 C 0.59715 0.05674 0.03807 0.0
C1182 C 0.58368 0.04013 0.03517 0.0
C1183 C 0.57408 0.03593 0.00238 0.0
C1184 C 0.57786 0.04837 0.97245 0.0
C1185 C 0.64487 0.06321 0.80917 0.0
C1186 C 0.63076 0.05532 0.78411 0.0
C1187 C 0.63792 0.07117 0.84198 0.0
C1188 C 0.61691 0.07083 0.85035 0.0
C1189 C 0.60301 0.06192 0.82631 0.0
C1190 C 0.60982 0.05455 0.79323 0.0
C1191 C 0.609 0.08123 0.88274 0.0
C1192 C 0.60296 0.06933 0.91223 0.0
C1193 C 0.60712 0.1028 0.88416 0.0
C1194 C 0.61416 0.11603 0.85414 0.0
C1195 C 0.60507 0.11461 0.81995 0.0
C1196 C 0.61251 0.12646 0.79142 0.0
C1197 C 0.62892 0.13993 0.79687 0.0
C1198 C 0.63774 0.14176 0.83097 0.0
C1199 C 0.63039 0.1299 0.85956 0.0
H1200 H 0.63479 0.14896 0.77471 0.0
H1201 H 0.58071 0.03049 0.05832 0.0
H1202 H 0.34006 0.57408 0.53468 0.0
H1203 H 0.35397 0.58549 0.47713 0.0
H1204 H 0.41422 0.56472 0.50877 0.0
H1205 H 0.40043 0.55299 0.56629 0.0
H1206 H 0.38192 0.6151 0.46781 0.0
H1207 H 0.44143 0.55246 0.43268 0.0
H1208 H 0.44659 0.51521 0.44075 0.0
H1209 H 0.38136 0.50627 0.44706 0.0
H1210 H 0.3758 0.54341 0.43857 0.0
H1211 H 0.44706 0.65025 0.32371 0.0
H1212 H 0.43528 0.63649 0.38172 0.0
H1213 H 0.40051 0.58987 0.32623 0.0
H1214 H 0.41217 0.60317 0.26887 0.0
H1215 H 0.42162 0.57346 0.38043 0.0
H1216 H 0.37752 0.63214 0.36061 0.0
H1217 H 0.37038 0.66879 0.3499 0.0
H1218 H 0.4002 0.68446 0.44912 0.0
H1219 H 0.40789 0.64789 0.46014 0.0
C1220 C 0.3562 0.57157 0.52921 0.0
C1221 C 0.36914 0.56272 0.55526 0.0
C1222 C 0.36414 0.57822 0.49637 0.0
C1223 C 0.38513 0.57609 0.48881 0.0
C1224 C 0.39794 0.5664 0.51398 0.0
C1225 C 0.39 0.55966 0.54685 0.0
C1226 C 0.39373 0.585 0.4554 0.0
C1227 C 0.39063 0.606 0.44871 0.0
C1228 C 0.4051 0.57313 0.43057 0.0
C1229 C 0.40823 0.55074 0.43541 0.0
C1230 C 0.42819 0.54253 0.4357 0.0
C1231 C 0.43119 0.52144 0.44036 0.0
C1232 C 0.41432 0.5084 0.44455 0.0
C1233 C 0.39442 0.5164 0.44397 0.0
C1234 C 0.39134 0.53748 0.4393 0.0
C1235 C 0.43685 0.63712 0.32396 0.0
C1236 C 0.43068 0.62777 0.29164 0.0
C1237 C 0.43016 0.62927 0.35706 0.0
C1238 C 0.41709 0.6121 0.3582 0.0
C1239 C 0.41077 0.60297 0.32599 0.0
C1240 C 0.41745 0.61069 0.29315 0.0
C1241 C 0.40962 0.6035 0.39266 0.0
C1242 C 0.41306 0.58259 0.39969 0.0
C1243 C 0.39825 0.61536 0.41748 0.0
C1244 C 0.39348 0.63731 0.411 0.0
C1245 C 0.3827 0.64341 0.38001 0.0
C1246 C 0.37853 0.66417 0.3739 0.0
C1247 C 0.38485 0.67895 0.39876 0.0
C1248 C 0.39534 0.67299 0.42985 0.0
C1249 C 0.39961 0.65226 0.43604 0.0
H1250 H 0.38159 0.69501 0.39396 0.0
H1251 H 0.41667 0.49208 0.44817 0.0
H1252 H 0.91389 0.34803 0.02766 0.0
H1253 H 0.90903 0.36344 0.96852 0.0
H1254 H 0.94749 0.41444 -0.00088 0.0
H1255 H 0.95257 0.39898 0.05851 0.0
H1256 H 0.91284 0.42787 0.97031 0.0
H1257 H 0.96493 0.38209 0.9339 0.0
H1258 H 0.9847 0.3501 0.92618 0.0
H1259 H 0.93302 0.32185 0.87449 0.0
H1260 H 0.91294 0.35368 0.88169 0.0
H1261 H 0.90895 0.43264 0.75904 0.0
H1262 H 0.92556 0.42283 0.8151 0.0
H1263 H 0.86789 0.42908 0.87118 0.0
H1264 H 0.85108 0.43923 0.81505 0.0
H1265 H 0.91913 0.39038 0.85471 0.0
H1266 H 0.87704 0.44372 0.95778 0.0
H1267 H 0.86316 0.47894 0.95959 0.0
H1268 H 0.90388 0.49682 0.87428 0.0
H1269 H 0.91825 0.46185 0.87237 0.0
C1270 C 0.92172 0.36229 0.02159 0.0
C1271 C 0.93375 0.37217 0.04771 0.0
C1272 C 0.91891 0.3711 0.98773 0.0
C1273 C 0.92804 0.39001 0.97928 0.0
C1274 C 0.94035 0.3998 0.00507 0.0
C1275 C 0.94323 0.39095 0.03897 0.0
C1276 C 0.92329 0.40012 0.94454 0.0
C1277 C 0.91433 0.41974 0.94499 0.0
C1278 C 0.92583 0.38981 0.91138 0.0
C1279 C 0.9374 0.37025 0.90851 0.0
C1280 C 0.95772 0.369 0.92113 0.0
C1281 C 0.96904 0.35095 0.91656 0.0
C1282 C 0.96015 0.33398 0.89966 0.0
C1283 C 0.93991 0.33502 0.88739 0.0
C1284 C 0.92858 0.35309 0.89159 0.0
C1285 C 0.89974 0.43204 0.78327 0.0
C1286 C 0.8786 0.43654 0.78246 0.0
C1287 C 0.90931 0.42642 0.81532 0.0
C1288 C 0.89799 0.42522 0.84729 0.0
C1289 C 0.87698 0.43014 0.84685 0.0
C1290 C 0.86737 0.43587 0.81473 0.0
C1291 C 0.90791 0.41774 0.88069 0.0
C1292 C 0.9178 0.39861 0.87998 0.0
C1293 C 0.90693 0.42886 0.91331 0.0
C1294 C 0.8986 0.45007 0.91476 0.0
C1295 C 0.88312 0.45519 0.93956 0.0
C1296 C 0.87515 0.47512 0.94058 0.0
C1297 C 0.8826 0.49009 0.91701 0.0
C1298 C 0.89808 0.4852 0.89245 0.0
C1299 C 0.90613 0.46531 0.89137 0.0
H1300 H 0.87638 0.50549 0.91781 0.0
H1301 H 0.9689 0.31998 0.89632 0.0
H1302 H 0.05068 0.90399 0.27465 0.0
H1303 H 0.06426 0.91685 0.33137 0.0
H1304 H 0.07621 0.85481 0.36621 0.0
H1305 H 0.06223 0.8417 0.30952 0.0
H1306 H 0.06225 0.87785 0.42094 0.0
H1307 H 0.11488 0.88347 0.33146 0.0
H1308 H 0.12965 0.89352 0.27308 0.0
H1309 H 0.11833 0.95702 0.29709 0.0
H1310 H 0.10333 0.94728 0.35562 0.0
H1311 H 0.15535 0.91914 0.52469 0.0
H1312 H 0.1402 0.90904 0.46732 0.0
H1313 H 0.08148 0.93254 0.50172 0.0
H1314 H 0.09635 0.94252 0.55932 0.0
H1315 H 0.11999 0.92742 0.41251 0.0
H1316 H 0.04479 0.89769 0.47714 0.0
H1317 H 0.03261 0.88494 0.53592 0.0
H1318 H 0.09358 0.86466 0.56185 0.0
H1319 H 0.10604 0.87698 0.50304 0.0
C1320 C 0.056 0.89302 0.29446 0.0
C1321 C 0.05559 0.87181 0.2874 0.0
C1322 C 0.06381 0.90042 0.32684 0.0
C1323 C 0.07163 0.88681 0.35263 0.0
C1324 C 0.07033 0.86558 0.34652 0.0
C1325 C 0.06234 0.85812 0.31414 0.0
C1326 C 0.08197 0.89483 0.38518 0.0
C1327 C 0.07482 0.88872 0.41911 0.0
C1328 C 0.09867 0.90871 0.38276 0.0
C1329 C 0.10782 0.91463 0.34774 0.0
C1330 C 0.11542 0.89957 0.32418 0.0
C1331 C 0.12386 0.90521 0.29106 0.0
C1332 C 0.12486 0.92591 0.28127 0.0
C1333 C 0.11752 0.94099 0.30468 0.0
C1334 C 0.10908 0.93542 0.33786 0.0
C1335 C 0.13929 0.92253 0.51988 0.0
C1336 C 0.12699 0.93134 0.54691 0.0
C1337 C 0.13068 0.91675 0.48703 0.0
C1338 C 0.10965 0.91964 0.48068 0.0
C1339 C 0.09767 0.92982 0.50645 0.0
C1340 C 0.10624 0.93559 0.53932 0.0
C1341 C 0.09998 0.91077 0.44821 0.0
C1342 C 0.10731 0.91667 0.41432 0.0
C1343 C 0.08379 0.89633 0.4507 0.0
C1344 C 0.07636 0.88847 0.48584 0.0
C1345 C 0.05556 0.89042 0.49533 0.0
C1346 C 0.04862 0.88328 0.52866 0.0
C1347 C 0.06232 0.87406 0.55265 0.0
C1348 C 0.08299 0.87187 0.5433 0.0
C1349 C 0.09 0.87894 0.50998 0.0
H1350 H 0.05692 0.86857 0.57846 0.0
H1351 H 0.13134 0.9303 0.2556 0.0
H1352 H 0.55884 0.34657 0.97416 0.0
H1353 H 0.56791 0.3628 0.03135 0.0
H1354 H 0.57032 0.42186 0.97915 0.0
H1355 H 0.56098 0.40595 0.92206 0.0
H1356 H 0.60721 0.40928 0.01584 0.0
H1357 H 0.53469 0.41616 0.03634 0.0
H1358 H 0.49896 0.40382 0.04018 0.0
H1359 H 0.51614 0.36135 0.12325 0.0
H1360 H 0.55205 0.37325 0.11958 0.0
H1361 H 0.63575 0.46079 0.17824 0.0
H1362 H 0.62019 0.45107 0.12056 0.0
H1363 H 0.59816 0.39471 0.16821 0.0
H1364 H 0.6126 0.40495 0.22594 0.0
H1365 H 0.56926 0.40962 0.13147 0.0
H1366 H 0.64111 0.3982 0.108 0.0
H1367 H 0.67778 0.40734 0.10361 0.0
H1368 H 0.66345 0.45415 0.02622 0.0
H1369 H 0.62664 0.44545 0.03051 0.0
C1370 C 0.56081 0.36308 0.97501 0.0
C1371 C 0.55935 0.37493 0.94349 0.0
C1372 C 0.56597 0.37231 0.00768 0.0
C1373 C 0.56988 0.39347 0.00923 0.0
C1374 C 0.56738 0.4055 0.97832 0.0
C1375 C 0.56195 0.39635 0.94579 0.0
C1376 C 0.57853 0.40263 0.04219 0.0
C1377 C 0.59885 0.40974 0.04108 0.0
C1378 C 0.56772 0.40258 0.07506 0.0
C1379 C 0.5461 0.39549 0.07747 0.0
C1380 C 0.53089 0.40407 0.05523 0.0
C1381 C 0.51059 0.39718 0.05742 0.0
C1382 C 0.50529 0.38178 0.08189 0.0
C1383 C 0.52027 0.37328 0.1043 0.0
C1384 C 0.54059 0.38011 0.10221 0.0
C1385 C 0.62772 0.44627 0.17609 0.0
C1386 C 0.62529 0.43361 0.20631 0.0
C1387 C 0.61887 0.4407 0.14321 0.0
C1388 C 0.60807 0.42207 0.13993 0.0
C1389 C 0.60621 0.40923 0.17006 0.0
C1390 C 0.61456 0.41503 0.20297 0.0
C1391 C 0.59826 0.41592 0.10554 0.0
C1392 C 0.57767 0.40939 0.10628 0.0
C1393 C 0.609 0.41605 0.07242 0.0
C1394 C 0.63111 0.42134 0.06991 0.0
C1395 C 0.64576 0.41056 0.09028 0.0
C1396 C 0.66657 0.41563 0.08776 0.0
C1397 C 0.67293 0.43136 0.06474 0.0
C1398 C 0.6585 0.442 0.04411 0.0
C1399 C 0.63766 0.437 0.04655 0.0
H1400 H 0.68905 0.43526 0.06282 0.0
H1401 H 0.48957 0.37646 0.08353 0.0
H1402 H 0.09446 0.58386 0.41516 0.0
H1403 H 0.08019 0.59269 0.47412 0.0
H1404 H 0.13094 0.56233 0.52615 0.0
H1405 H 0.14585 0.55416 0.46699 0.0
H1406 H 0.0844 0.55609 0.55303 0.0
H1407 H 0.13963 0.60443 0.52865 0.0
H1408 H 0.15835 0.62935 0.491 0.0
H1409 H 0.10436 0.66699 0.48413 0.0
H1410 H 0.08514 0.64197 0.52093 0.0
H1411 H 0.07786 0.59595 0.72919 0.0
H1412 H 0.08896 0.58328 0.67078 0.0
H1413 H 0.05665 0.63285 0.61854 0.0
H1414 H 0.04589 0.64604 0.67722 0.0
H1415 H 0.09321 0.62871 0.59046 0.0
H1416 H 0.0383 0.58264 0.61769 0.0
H1417 H 0.01844 0.55804 0.65418 0.0
H1418 H 0.06964 0.51651 0.65488 0.0
H1419 H 0.08993 0.54099 0.61879 0.0
C1420 C 0.10242 0.57882 0.43917 0.0
C1421 C 0.12128 0.56845 0.43674 0.0
C1422 C 0.09429 0.58389 0.4727 0.0
C1423 C 0.10465 0.57822 0.50418 0.0
C1424 C 0.12288 0.56685 0.50193 0.0
C1425 C 0.13135 0.56228 0.46834 0.0
C1426 C 0.09713 0.58552 0.53926 0.0
C1427 C 0.08649 0.57187 0.5616 0.0
C1428 C 0.09943 0.60625 0.54955 0.0
C1429 C 0.11086 0.62117 0.52705 0.0
C1430 C 0.13165 0.61784 0.5186 0.0
C1431 C 0.14236 0.63201 0.49749 0.0
C1432 C 0.13252 0.64969 0.48501 0.0
C1433 C 0.11193 0.65323 0.49363 0.0
C1434 C 0.10111 0.63905 0.51458 0.0
C1435 C 0.07297 0.60412 0.70531 0.0
C1436 C 0.0609 0.62199 0.70787 0.0
C1437 C 0.07926 0.59678 0.67188 0.0
C1438 C 0.07335 0.60691 0.64025 0.0
C1439 C 0.06133 0.62476 0.64264 0.0
C1440 C 0.05518 0.63227 0.67617 0.0
C1441 C 0.08043 0.59928 0.60481 0.0
C1442 C 0.09099 0.6129 0.58215 0.0
C1443 C 0.07788 0.57854 0.59417 0.0
C1444 C 0.0657 0.56374 0.61579 0.0
C1445 C 0.04538 0.56833 0.62585 0.0
C1446 C 0.03404 0.55439 0.64642 0.0
C1447 C 0.04279 0.53575 0.65691 0.0
C1448 C 0.06289 0.53097 0.64676 0.0
C1449 C 0.07431 0.54486 0.62621 0.0
H1450 H 0.03398 0.52498 0.67284 0.0
H1451 H 0.14088 0.66068 0.46882 0.0
H1452 H 0.9084 0.14888 0.95613 0.0
H1453 H 0.90149 0.13645 0.01635 0.0
H1454 H 0.95455 0.0968 0.01035 0.0
H1455 H 0.96081 0.10842 0.94856 0.0
H1456 H 0.92613 0.07602 0.0362 0.0
H1457 H 0.95097 0.14135 0.0672 0.0
H1458 H 0.95578 0.17887 0.0672 0.0
H1459 H 0.89309 0.1873 0.09976 0.0
H1460 H 0.88773 0.14986 0.09927 0.0
H1461 H 0.9073 0.05725 0.2266 0.0
H1462 H 0.92338 0.07002 0.17149 0.0
H1463 H 0.86441 0.09063 0.13312 0.0
H1464 H 0.84804 0.07757 0.18807 0.0
H1465 H 0.90176 0.12061 0.13554 0.0
H1466 H 0.87878 0.05239 0.09438 0.0
H1467 H 0.87803 0.0147 0.10085 0.0
H1468 H 0.94387 0.01279 0.096 0.0
H1469 H 0.94501 0.05051 0.08981 0.0
C1470 C 0.91884 0.13776 0.96777 0.0
C1471 C 0.93519 0.12965 0.94764 0.0
C1472 C 0.91495 0.13075 0.00246 0.0
C1473 C 0.92771 0.11595 0.01839 0.0
C1474 C 0.94448 0.10825 -0.00127 0.0
C1475 C 0.9481 0.11493 0.9635 0.0
C1476 C 0.92226 0.10736 0.05418 0.0
C1477 C 0.92121 0.08589 0.05805 0.0
C1478 C 0.91588 0.12008 0.08308 0.0
C1479 C 0.9189 0.14272 0.08286 0.0
C1480 C 0.93813 0.15118 0.07398 0.0
C1481 C 0.94097 0.17246 0.07412 0.0
C1482 C 0.92474 0.18546 0.08338 0.0
C1483 C 0.90564 0.17721 0.09253 0.0
C1484 C 0.90269 0.15595 0.09233 0.0
C1485 C 0.89773 0.06441 0.20633 0.0
C1486 C 0.87643 0.06648 0.21153 0.0
C1487 C 0.90694 0.07163 0.17496 0.0
C1488 C 0.89502 0.08125 0.14859 0.0
C1489 C 0.87375 0.0832 0.15342 0.0
C1490 C 0.86445 0.07567 0.18459 0.0
C1491 C 0.90485 0.08972 0.11623 0.0
C1492 C 0.90688 0.11103 0.11345 0.0
C1493 C 0.91273 0.07693 0.08893 0.0
C1494 C 0.91198 0.05425 0.09185 0.0
C1495 C 0.89309 0.04394 0.09485 0.0
C1496 C 0.8926 0.02257 0.09837 0.0
C1497 C 0.91089 0.01136 0.09874 0.0
C1498 C 0.92972 0.02149 0.09556 0.0
C1499 C 0.93029 0.04285 0.092 0.0
H1500 H 0.91048 0.99483 0.10164 0.0
H1501 H 0.92699 0.20192 0.08353 0.0
H1502 H 0.39301 0.87741 0.73041 0.0
H1503 H 0.38147 0.89037 0.67209 0.0
H1504 H 0.43988 0.87422 0.62528 0.0
H1505 H 0.45142 0.86071 0.68366 0.0
H1506 H 0.42544 0.91655 0.61308 0.0
H1507 H 0.40329 0.84641 0.60059 0.0
H1508 H 0.38562 0.81434 0.61743 0.0
H1509 H 0.32812 0.84646 0.62257 0.0
H1510 H 0.3455 0.87879 0.60602 0.0
H1511 H 0.39992 0.93037 0.42869 0.0
H1512 H 0.41199 0.92009 0.48809 0.0
H1513 H 0.35005 0.92358 0.52893 0.0
H1514 H 0.33775 0.93347 0.46935 0.0
H1515 H 0.36654 0.88789 0.54503 0.0
H1516 H 0.38727 0.95761 0.55544 0.0
H1517 H 0.4039 0.99 0.53736 0.0
H1518 H 0.46278 0.96033 0.53801 0.0
H1519 H 0.44647 0.92765 0.55556 0.0
C1520 C 0.40331 0.87641 0.70758 0.0
C1521 C 0.42308 0.86805 0.7114 0.0
C1522 C 0.3967 0.8838 0.67436 0.0
C1523 C 0.40986 0.88325 0.64456 0.0
C1524 C 0.42955 0.87473 0.6481 0.0
C1525 C 0.43605 0.86692 0.68127 0.0
C1526 C 0.4031 0.89226 0.6101 0.0
C1527 C 0.41278 0.91017 0.59778 0.0
C1528 C 0.3861 0.88428 0.59115 0.0
C1529 C 0.37572 0.86503 0.6023 0.0
C1530 C 0.38692 0.84668 0.60569 0.0
C1531 C 0.37694 0.82844 0.61502 0.0
C1532 C 0.35575 0.82836 0.62088 0.0
C1533 C 0.34452 0.84654 0.61781 0.0
C1534 C 0.35442 0.86482 0.60844 0.0
C1535 C 0.3889 0.92936 0.45043 0.0
C1536 C 0.36783 0.93251 0.44416 0.0
C1537 C 0.39584 0.92352 0.48445 0.0
C1538 C 0.38192 0.92104 0.51295 0.0
C1539 C 0.36104 0.92526 0.50724 0.0
C1540 C 0.35405 0.93094 0.47317 0.0
C1541 C 0.38886 0.91229 0.54768 0.0
C1542 C 0.37919 0.89441 0.5602 0.0
C1543 C 0.40571 0.92047 0.56699 0.0
C1544 C 0.41561 0.94011 0.55651 0.0
C1545 C 0.40375 0.95793 0.55144 0.0
C1546 C 0.41312 0.97636 0.54133 0.0
C1547 C 0.43438 0.97721 0.53646 0.0
C1548 C 0.44631 0.95964 0.54176 0.0
C1549 C 0.43701 0.94116 0.55182 0.0
H1550 H 0.44161 0.99149 0.52865 0.0
H1551 H 0.34802 0.81421 0.62783 0.0
H1552 H 0.42375 0.84677 0.97838 0.0
H1553 H 0.4164 0.86385 0.03534 0.0
H1554 H 0.43215 0.92228 0.98825 0.0
H1555 H 0.43946 0.90546 0.93108 0.0
H1556 H 0.43579 0.89002 0.08364 0.0
H1557 H 0.39279 0.95506 0.01029 0.0
H1558 H 0.37632 0.96142 0.95152 0.0
H1559 H 0.36358 0.89705 0.94047 0.0
H1560 H 0.37963 0.89038 -0.00059 0.0
H1561 H 0.40162 0.9571 0.21859 0.0
H1562 H 0.41676 0.9456 0.162 0.0
H1563 H 0.3575 0.92346 0.12722 0.0
H1564 H 0.34208 0.93597 0.1831 0.0
H1565 H 0.37693 0.93807 0.07247 0.0
H1566 H 0.39518 0.89096 0.16875 0.0
H1567 H 0.41013 0.88178 0.22766 0.0
H1568 H 0.46862 0.90532 0.19415 0.0
H1569 H 0.45408 0.91463 0.13506 0.0
C1570 C 0.42611 0.8632 0.98028 0.0
C1571 C 0.43174 0.8748 0.94992 0.0
C1572 C 0.42198 0.8729 0.01292 0.0
C1573 C 0.42337 0.89431 0.01561 0.0
C1574 C 0.43074 0.90573 0.98639 0.0
C1575 C 0.43491 0.89607 0.95376 0.0
C1576 C 0.41475 0.90482 0.04733 0.0
C1577 C 0.42303 0.90065 0.08129 0.0
C1578 C 0.39782 0.9183 0.04409 0.0
C1579 C 0.38764 0.92222 0.00905 0.0
C1580 C 0.38639 0.94229 0.99538 0.0
C1581 C 0.37713 0.94594 0.96204 0.0
C1582 C 0.36898 0.92964 0.94222 0.0
C1583 C 0.36996 0.90966 0.95579 0.0
C1584 C 0.37914 0.90594 0.98915 0.0
C1585 C 0.39178 0.95007 0.19856 0.0
C1586 C 0.37074 0.94722 0.20521 0.0
C1587 C 0.40047 0.94339 0.16639 0.0
C1588 C 0.38839 0.93311 0.1409 0.0
C1589 C 0.36714 0.93125 0.14666 0.0
C1590 C 0.35833 0.9384 0.17852 0.0
C1591 C 0.39799 0.92339 0.10909 0.0
C1592 C 0.38986 0.92767 0.07496 0.0
C1593 C 0.41473 0.90958 0.11232 0.0
C1594 C 0.4235 0.90367 0.14765 0.0
C1595 C 0.41121 0.89424 0.17401 0.0
C1596 C 0.4196 0.889 0.20741 0.0
C1597 C 0.44024 0.8931 0.21471 0.0
C1598 C 0.45262 0.90222 0.18849 0.0
C1599 C 0.44433 0.90742 0.15502 0.0
H1600 H 0.44666 0.88921 0.24067 0.0
H1601 H 0.36187 0.93249 0.91638 0.0
H1602 H 0.65219 0.42149 0.47029 0.0
H1603 H 0.63655 0.41138 0.52703 0.0
H1604 H 0.57749 0.43203 0.48891 0.0
H1605 H 0.59289 0.4418 0.43153 0.0
H1606 H 0.61572 0.42771 0.5802 0.0
H1607 H 0.5415 0.39652 0.51353 0.0
H1608 H 0.53 0.3838 0.45433 0.0
H1609 H 0.59172 0.36569 0.42884 0.0
H1610 H 0.6035 0.378 0.48806 0.0
H1611 H 0.54867 0.40005 0.71735 0.0
H1612 H 0.56056 0.41396 0.66026 0.0
H1613 H 0.57512 0.35288 0.62343 0.0
H1614 H 0.5629 0.33866 0.68071 0.0
H1615 H 0.55955 0.37648 0.56944 0.0
H1616 H 0.61267 0.38102 0.65661 0.0
H1617 H 0.62842 0.38923 0.71497 0.0
H1618 H 0.6158 0.45327 0.69852 0.0
H1619 H 0.59976 0.44536 0.63995 0.0
C1620 C 0.63594 0.42428 0.4741 0.0
C1621 C 0.62372 0.43206 0.44603 0.0
C1622 C 0.62704 0.41851 0.50664 0.0
C1623 C 0.6058 0.4205 0.51175 0.0
C1624 C 0.59385 0.42995 0.48509 0.0
C1625 C 0.60271 0.43563 0.45239 0.0
C1626 C 0.59607 0.41117 0.54371 0.0
C1627 C 0.60332 0.41666 0.57786 0.0
C1628 C 0.5804 0.39619 0.54051 0.0
C1629 C 0.5734 0.38842 0.50506 0.0
C1630 C 0.55259 0.38976 0.49534 0.0
C1631 C 0.54603 0.38262 0.46178 0.0
C1632 C 0.56013 0.37401 0.43779 0.0
C1633 C 0.58082 0.37243 0.44738 0.0
C1634 C 0.58744 0.3795 0.48093 0.0
C1635 C 0.55419 0.3895 0.697 0.0
C1636 C 0.55518 0.36828 0.70369 0.0
C1637 C 0.56096 0.3975 0.66441 0.0
C1638 C 0.56908 0.38448 0.63804 0.0
C1639 C 0.56896 0.36316 0.64363 0.0
C1640 C 0.56201 0.35508 0.6763 0.0
C1641 C 0.57894 0.39337 0.60584 0.0
C1642 C 0.57176 0.38774 0.57172 0.0
C1643 C 0.59523 0.40765 0.60894 0.0
C1644 C 0.60482 0.41257 0.6441 0.0
C1645 C 0.6131 0.39684 0.66557 0.0
C1646 C 0.62211 0.40145 0.69868 0.0
C1647 C 0.62304 0.42177 0.71061 0.0
C1648 C 0.61503 0.43753 0.6893 0.0
C1649 C 0.606 0.43299 0.6561 0.0
H1650 H 0.63 0.42533 0.7363 0.0
H1651 H 0.55503 0.36853 0.41181 0.0
H1652 H 0.06713 0.64854 0.97345 0.0
H1653 H 0.07986 0.63302 0.02872 0.0
H1654 H 0.06651 0.57277 0.98665 0.0
H1655 H 0.05407 0.58813 0.93082 0.0
H1656 H 0.06759 0.60907 0.08094 0.0
H1657 H 0.10767 0.5417 0.00414 0.0
H1658 H 0.12205 0.53514 0.94378 0.0
H1659 H 0.13095 0.59982 0.9279 0.0
H1660 H 0.11699 0.60673 0.98836 0.0
H1661 H 0.09892 0.5413 0.21048 0.0
H1662 H 0.08537 0.55253 0.15268 0.0
H1663 H 0.14583 0.57267 0.12081 0.0
H1664 H 0.15969 0.56078 0.17866 0.0
H1665 H 0.12401 0.55873 0.06318 0.0
H1666 H 0.11555 0.60682 0.15654 0.0
H1667 H 0.10673 0.61932 0.21716 0.0
H1668 H 0.04352 0.60343 0.19965 0.0
H1669 H 0.05203 0.59055 0.13901 0.0
C1670 C 0.06644 0.63199 0.97619 0.0
C1671 C 0.05994 0.61955 0.94742 0.0
C1672 C 0.07373 0.62316 0.00786 0.0
C1673 C 0.07463 0.60175 0.01132 0.0
C1674 C 0.06635 0.58934 0.98409 0.0
C1675 C 0.05905 0.59816 0.95234 0.0
C1676 C 0.08566 0.59248 0.04207 0.0
C1677 C 0.0798 0.59795 0.07704 0.0
C1678 C 0.10235 0.57882 0.0369 0.0
C1679 C 0.11103 0.57472 0.00065 0.0
C1680 C 0.11277 0.5545 0.98783 0.0
C1681 C 0.12085 0.55073 0.95359 0.0
C1682 C 0.12734 0.56706 0.93198 0.0
C1683 C 0.12584 0.58719 0.94461 0.0
C1684 C 0.11783 0.59104 0.97885 0.0
C1685 C 0.10943 0.5477 0.19085 0.0
C1686 C 0.13027 0.5505 0.19915 0.0
C1687 C 0.10167 0.55411 0.15788 0.0
C1688 C 0.11451 0.5639 0.13295 0.0
C1689 C 0.13567 0.56524 0.13987 0.0
C1690 C 0.14355 0.55847 0.17285 0.0
C1691 C 0.10527 0.57465 0.10189 0.0
C1692 C 0.11161 0.56965 0.06695 0.0
C1693 C 0.08979 0.58964 0.10703 0.0
C1694 C 0.08446 0.59754 0.14334 0.0
C1695 C 0.09978 0.60585 0.1657 0.0
C1696 C 0.09484 0.61303 0.20006 0.0
C1697 C 0.07458 0.61213 0.2123 0.0
C1698 C 0.05921 0.6041 0.19014 0.0
C1699 C 0.06408 0.59687 0.15575 0.0
H1700 H 0.07079 0.61769 0.23892 0.0
H1701 H 0.13357 0.56411 0.90548 0.0
H1702 H 0.84491 0.05597 0.47735 0.0
H1703 H 0.85995 0.06182 0.53672 0.0
H1704 H 0.92069 0.05825 0.49074 0.0
H1705 H 0.90586 0.05155 0.4318 0.0
H1706 H 0.92202 0.04496 0.55724 0.0
H1707 H 0.89425 0.10427 0.4964 0.0
H1708 H 0.8672 0.12461 0.46662 0.0
H1709 H 0.83088 0.12287 0.56302 0.0
H1710 H 0.85761 0.10224 0.5932 0.0
H1711 H 0.94836 0.14037 0.67638 0.0
H1712 H 0.93658 0.12433 0.62064 0.0
H1713 H 0.92093 0.06927 0.679 0.0
H1714 H 0.93269 0.08501 0.73471 0.0
H1715 H 0.89783 0.11151 0.60656 0.0
H1716 H 0.92801 0.02808 0.62187 0.0
H1717 H 0.9576 0.01019 0.64901 0.0
H1718 H 0.99424 0.06465 0.63821 0.0
H1719 H 0.96502 0.08275 0.61049 0.0
C1720 C 0.86147 0.05587 0.48009 0.0
C1721 C 0.87419 0.05372 0.44977 0.0
C1722 C 0.87005 0.05926 0.514 0.0
C1723 C 0.89142 0.06111 0.5179 0.0
C1724 C 0.90415 0.05705 0.48832 0.0
C1725 C 0.89562 0.05326 0.45456 0.0
C1726 C 0.90042 0.06981 0.55118 0.0
C1727 C 0.91665 0.05943 0.56819 0.0
C1728 C 0.89381 0.089 0.56489 0.0
C1729 C 0.87781 0.10153 0.54689 0.0
C1730 C 0.88043 0.10812 0.51115 0.0
C1731 C 0.86517 0.1197 0.49422 0.0
C1732 C 0.8473 0.12498 0.51289 0.0
C1733 C 0.8447 0.11873 0.54857 0.0
C1734 C 0.8599 0.10709 0.5656 0.0
C1735 C 0.94263 0.12477 0.67733 0.0
C1736 C 0.94133 0.11404 0.71006 0.0
C1737 C 0.93585 0.11567 0.64549 0.0
C1738 C 0.92791 0.09565 0.64582 0.0
C1739 C 0.92718 0.08468 0.67819 0.0
C1740 C 0.93383 0.09377 0.71003 0.0
C1741 C 0.91931 0.08664 0.61266 0.0
C1742 C 0.90313 0.09697 0.59574 0.0
C1743 C 0.92637 0.06775 0.59858 0.0
C1744 C 0.94422 0.05682 0.61442 0.0
C1745 C 0.94241 0.0362 0.62511 0.0
C1746 C 0.95912 0.02603 0.64062 0.0
C1747 C 0.97776 0.0363 0.64545 0.0
C1748 C 0.97977 0.05674 0.6346 0.0
C1749 C 0.96313 0.06696 0.61901 0.0
H1750 H 0.99066 0.02841 0.65753 0.0
H1751 H 0.8355 0.13395 0.49973 0.0
H1752 H 0.36637 0.53092 0.82202 0.0
H1753 H 0.3832 0.53987 0.87886 0.0
H1754 H 0.41066 0.59279 0.82825 0.0
H1755 H 0.39472 0.58352 0.77137 0.0
H1756 H 0.43719 0.57794 0.86895 0.0
H1757 H 0.36576 0.59459 0.88406 0.0
H1758 H 0.32847 0.58802 0.88531 0.0
H1759 H 0.33699 0.54278 0.96802 0.0
H1760 H 0.3744 0.54891 0.96693 0.0
H1761 H 0.43918 0.64724 0.02251 0.0
H1762 H 0.43262 0.62962 0.9654 0.0
H1763 H 0.43487 0.57117 0.01959 0.0
H1764 H 0.44192 0.58845 0.07649 0.0
H1765 H 0.39562 0.58474 0.9801 0.0
H1766 H 0.46879 0.57464 0.96755 0.0
H1767 H 0.50485 0.58609 0.96541 0.0
H1768 H 0.491 0.62549 0.87603 0.0
H1769 H 0.45476 0.61452 0.87798 0.0
C1770 C 0.37598 0.54448 0.82316 0.0
C1771 C 0.37914 0.55658 0.79237 0.0
C1772 C 0.38556 0.54961 0.85561 0.0
C1773 C 0.39795 0.56725 0.85798 0.0
C1774 C 0.40121 0.57915 0.82708 0.0
C1775 C 0.392 0.57385 0.79462 0.0
C1776 C 0.40716 0.57388 0.89258 0.0
C1777 C 0.42802 0.57949 0.89317 0.0
C1778 C 0.39534 0.57575 0.9244 0.0
C1779 C 0.37288 0.57202 0.92509 0.0
C1780 C 0.35969 0.58313 0.90232 0.0
C1781 C 0.33854 0.5795 0.90303 0.0
C1782 C 0.33037 0.56494 0.92664 0.0
C1783 C 0.34335 0.55402 0.94968 0.0
C1784 C 0.36452 0.55756 0.94904 0.0
C1785 C 0.43882 0.63062 0.02209 0.0
C1786 C 0.4409 0.61926 0.05405 0.0
C1787 C 0.43512 0.6206 0.9895 0.0
C1788 C 0.43322 0.59917 0.98858 0.0
C1789 C 0.43637 0.58773 0.01996 0.0
C1790 C 0.44044 0.59767 0.05238 0.0
C1791 C 0.42537 0.58902 0.956 0.0
C1792 C 0.40476 0.58284 0.9559 0.0
C1793 C 0.43721 0.58731 0.9244 0.0
C1794 C 0.45901 0.5939 0.92317 0.0
C1795 C 0.47338 0.58591 0.94768 0.0
C1796 C 0.49387 0.59227 0.94644 0.0
C1797 C 0.5002 0.60655 0.92067 0.0
C1798 C 0.48607 0.61445 0.89601 0.0
C1799 C 0.46556 0.60815 0.89715 0.0
H1800 H 0.51608 0.61146 0.91975 0.0
H1801 H 0.31399 0.56216 0.92716 0.0
H1802 H 0.92576 0.34127 0.30209 0.0
H1803 H 0.91161 0.35552 0.35812 0.0
H1804 H 0.94243 0.4129 0.33736 0.0
H1805 H 0.95588 0.39905 0.2807 0.0
H1806 H 0.94303 0.39203 0.41541 0.0
H1807 H 0.90125 0.41749 0.31594 0.0
H1808 H 0.88004 0.41322 0.26154 0.0
H1809 H 0.83809 0.37494 0.32024 0.0
H1810 H 0.85943 0.37848 0.37477 0.0
H1811 H 0.89381 0.45117 0.54823 0.0
H1812 H 0.90888 0.442 0.49013 0.0
H1813 H 0.8608 0.39742 0.4734 0.0
H1814 H 0.84521 0.40708 0.53031 0.0
H1815 H 0.86977 0.41302 0.41253 0.0
H1816 H 0.90932 0.3846 0.50921 0.0
H1817 H 0.92956 0.38532 0.56526 0.0
H1818 H 0.97421 0.42443 0.51489 0.0
H1819 H 0.95406 0.42416 0.45865 0.0
C1820 C 0.92982 0.35676 0.30994 0.0
C1821 C 0.94187 0.36911 0.28731 0.0
C1822 C 0.92166 0.36489 0.3417 0.0
C1823 C 0.9259 0.38526 0.35149 0.0
C1824 C 0.93899 0.39717 0.33005 0.0
C1825 C 0.94664 0.38926 0.29785 0.0
C1826 C 0.91578 0.39452 0.38305 0.0
C1827 C 0.9271 0.3969 0.41479 0.0
C1828 C 0.89486 0.40028 0.3822 0.0
C1829 C 0.88216 0.39797 0.3493 0.0
C1830 C 0.88773 0.40786 0.31711 0.0
C1831 C 0.87564 0.40563 0.28628 0.0
C1832 C 0.85779 0.39375 0.28741 0.0
C1833 C 0.85198 0.38406 0.31937 0.0
C1834 C 0.86409 0.38615 0.35023 0.0
C1835 C 0.88623 0.43971 0.53183 0.0
C1836 C 0.86843 0.42971 0.54417 0.0
C1837 C 0.89495 0.43436 0.49873 0.0
C1838 C 0.8863 0.4186 0.47781 0.0
C1839 C 0.86785 0.40954 0.48908 0.0
C1840 C 0.85894 0.41511 0.52177 0.0
C1841 C 0.89696 0.41059 0.44536 0.0
C1842 C 0.88575 0.40834 0.41333 0.0
C1843 C 0.91786 0.40446 0.44621 0.0
C1844 C 0.93007 0.40455 0.47988 0.0
C1845 C 0.92338 0.39346 0.51017 0.0
C1846 C 0.93484 0.39378 0.54196 0.0
C1847 C 0.95312 0.40496 0.54367 0.0
C1848 C 0.96002 0.4158 0.51355 0.0
C1849 C 0.94859 0.41557 0.48171 0.0
H1850 H 0.96198 0.40519 0.5683 0.0
H1851 H 0.84842 0.39217 0.26359 0.0
H1852 H 0.14897 0.94398 0.817 0.0
H1853 H 0.1334 0.93242 0.87346 0.0
H1854 H 0.07474 0.92659 0.82049 0.0
H1855 H 0.08989 0.93849 0.76454 0.0
H1856 H 0.06953 0.9408 0.88616 0.0
H1857 H 0.10556 0.88537 0.83011 0.0
H1858 H 0.1354 0.86811 0.80266 0.0
H1859 H 0.16874 0.87365 0.90184 0.0
H1860 H 0.13923 0.89131 0.92966 0.0
H1861 H 0.05861 0.84657 0.01916 0.0
H1862 H 0.06663 0.86129 0.96033 0.0
H1863 H 0.06924 0.92171 0.00769 0.0
H1864 H 0.0606 0.90731 0.06607 0.0
H1865 H 0.1005 0.87884 0.94171 0.0
H1866 H 0.05987 0.95853 0.94716 0.0
H1867 H 0.02758 0.97351 0.96986 0.0
H1868 H -0.00159 0.91449 0.96398 0.0
H1869 H 0.03042 0.89921 0.94078 0.0
C1870 C 0.13269 0.94056 0.81754 0.0
C1871 C 0.12076 0.94183 0.78611 0.0
C1872 C 0.12385 0.93388 0.84974 0.0
C1873 C 0.10301 0.9283 0.85089 0.0
C1874 C 0.09086 0.93073 0.82014 0.0
C1875 C 0.09962 0.93743 0.78808 0.0
C1876 C 0.09406 0.91867 0.88331 0.0
C1877 C 0.07631 0.9273 0.89846 0.0
C1878 C 0.10253 0.90064 0.89845 0.0
C1879 C 0.12025 0.88985 0.88187 0.0
C1880 C 0.11932 0.88305 0.84598 0.0
C1881 C 0.13617 0.87319 0.83035 0.0
C1882 C 0.15399 0.86985 0.85045 0.0
C1883 C 0.15496 0.87631 0.88625 0.0
C1884 C 0.13817 0.88624 0.90198 0.0
C1885 C 0.06045 0.86305 0.01689 0.0
C1886 C 0.05906 0.87574 0.04737 0.0
C1887 C 0.06511 0.87142 0.98328 0.0
C1888 C 0.06854 0.8926 0.97958 0.0
C1889 C 0.06633 0.90538 0.00969 0.0
C1890 C 0.06144 0.89708 0.04317 0.0
C1891 C 0.07609 0.90115 0.9451 0.0
C1892 C 0.09364 0.89232 0.92951 0.0
C1893 C 0.06703 0.9186 0.9289 0.0
C1894 C 0.04763 0.9277 0.94253 0.0
C1895 C 0.04654 0.94877 0.95056 0.0
C1896 C 0.02829 0.95731 0.96355 0.0
C1897 C 0.01098 0.94495 0.96846 0.0
C1898 C 0.01186 0.92403 0.96029 0.0
C1899 C 0.03006 0.91542 0.94728 0.0
H1900 H 0.99687 0.95158 0.97853 0.0
H1901 H 0.16703 0.86222 0.83833 0.0
H1902 H 0.59423 0.04667 0.55899 0.0
H1903 H 0.57807 0.05113 0.50017 0.0
H1904 H 0.6315 0.08403 0.46276 0.0
H1905 H 0.64797 0.0791 0.52088 0.0
H1906 H 0.56624 0.08408 0.46813 0.0
H1907 H 0.63875 0.07881 0.37512 0.0
H1908 H 0.67104 0.05902 0.37278 0.0
H1909 H 0.64337 0.01081 0.43485 0.0
H1910 H 0.61084 0.0301 0.43709 0.0
H1911 H 0.55442 0.14271 0.31133 0.0
H1912 H 0.56451 0.12611 0.36749 0.0
H1913 H 0.56978 0.06804 0.31243 0.0
H1914 H 0.56026 0.08458 0.25604 0.0
H1915 H 0.60187 0.07322 0.35171 0.0
H1916 H 0.53051 0.07593 0.37415 0.0
H1917 H 0.49572 0.09073 0.37747 0.0
H1918 H 0.51668 0.13525 0.45428 0.0
H1919 H 0.55159 0.12059 0.45167 0.0
C1920 C 0.60265 0.05461 0.53807 0.0
C1921 C 0.62241 0.06253 0.54465 0.0
C1922 C 0.59337 0.05719 0.5045 0.0
C1923 C 0.60362 0.06777 0.47695 0.0
C1924 C 0.62344 0.07542 0.48332 0.0
C1925 C 0.63282 0.07266 0.51669 0.0
C1926 C 0.59327 0.07195 0.4422 0.0
C1927 C 0.57396 0.08154 0.44266 0.0
C1928 C 0.603 0.06802 0.40885 0.0
C1929 C 0.62237 0.05602 0.40652 0.0
C1930 C 0.63949 0.06392 0.38803 0.0
C1931 C 0.65786 0.05279 0.38677 0.0
C1932 C 0.65926 0.03372 0.4038 0.0
C1933 C 0.64228 0.02563 0.42182 0.0
C1934 C 0.62388 0.03666 0.42311 0.0
C1935 C 0.55754 0.12637 0.31121 0.0
C1936 C 0.55668 0.11502 0.27911 0.0
C1937 C 0.56319 0.11686 0.3434 0.0
C1938 C 0.56777 0.09578 0.34422 0.0
C1939 C 0.5664 0.08433 0.31241 0.0
C1940 C 0.56094 0.09384 0.28018 0.0
C1941 C 0.57522 0.08605 0.37783 0.0
C1942 C 0.59401 0.07545 0.37713 0.0
C1943 C 0.56463 0.08829 0.4108 0.0
C1944 C 0.5437 0.09724 0.41254 0.0
C1945 C 0.52773 0.08894 0.39163 0.0
C1946 C 0.50798 0.09728 0.39344 0.0
C1947 C 0.50402 0.11401 0.41589 0.0
C1948 C 0.51978 0.12231 0.43685 0.0
C1949 C 0.53953 0.11393 0.43536 0.0
H1950 H 0.48874 0.1205 0.41711 0.0
H1951 H 0.6735 0.02519 0.40309 0.0
H1952 H 0.35366 0.02914 0.2977 0.0
H1953 H 0.3747 0.05705 0.27403 0.0
H1954 H 0.42948 0.02537 0.30822 0.0
H1955 H 0.40861 0.99752 0.33239 0.0
H1956 H 0.43458 0.06719 0.30927 0.0
H1957 H 0.40983 0.01456 0.22841 0.0
H1958 H 0.38283 0.99361 0.19993 0.0
H1959 H 0.35511 0.04795 0.15624 0.0
H1960 H 0.38173 0.06931 0.18514 0.0
H1961 H 0.50011 0.08543 0.15145 0.0
H1962 H 0.47084 0.06583 0.17429 0.0
H1963 H 0.44425 0.12129 0.21698 0.0
H1964 H 0.47306 0.14109 0.19378 0.0
H1965 H 0.42422 0.06873 0.17678 0.0
H1966 H 0.44348 0.11048 0.30774 0.0
H1967 H 0.4726 0.12943 0.33447 0.0
H1968 H 0.51508 0.09202 0.27531 0.0
H1969 H 0.48629 0.07269 0.24879 0.0
C1970 C 0.37015 0.02843 0.30133 0.0
C1971 C 0.37951 0.01086 0.31601 0.0
C1972 C 0.38213 0.04439 0.28774 0.0
C1973 C 0.4036 0.04289 0.28844 0.0
C1974 C 0.4129 0.02666 0.30714 0.0
C1975 C 0.40092 0.01074 0.32096 0.0
C1976 C 0.41624 0.05617 0.26505 0.0
C1977 C 0.43215 0.0677 0.28041 0.0
C1978 C 0.4134 0.05639 0.2272 0.0
C1979 C 0.39763 0.04354 0.20924 0.0
C1980 C 0.3979 0.02205 0.21292 0.0
C1981 C 0.38267 0.0101 0.1967 0.0
C1982 C 0.36725 0.01943 0.17634 0.0
C1983 C 0.36705 0.04075 0.17208 0.0
C1984 C 0.3822 0.05279 0.18838 0.0
C1985 C 0.48762 0.09361 0.16428 0.0
C1986 C 0.48919 0.11472 0.17174 0.0
C1987 C 0.47091 0.08237 0.17728 0.0
C1988 C 0.45575 0.09215 0.19788 0.0
C1989 C 0.45598 0.11353 0.20141 0.0
C1990 C 0.47252 0.12478 0.18822 0.0
C1991 C 0.44217 0.07992 0.22117 0.0
C1992 C 0.42629 0.0685 0.20574 0.0
C1993 C 0.44532 0.07939 0.25883 0.0
C1994 C 0.46273 0.09036 0.27594 0.0
C1995 C 0.45905 0.10627 0.3006 0.0
C1996 C 0.4755 0.1171 0.31565 0.0
C1997 C 0.49568 0.11207 0.30633 0.0
C1998 C 0.49946 0.09603 0.2823 0.0
C1999 C 0.48309 0.08514 0.26725 0.0
H2000 H 0.50839 0.12048 0.31794 0.0
H2001 H 0.35548 0.01014 0.1638 0.0
H2002 H 0.49272 0.40215 0.83115 0.0
H2003 H 0.46169 0.41923 0.8096 0.0
H2004 H 0.44208 0.3632 0.75832 0.0
H2005 H 0.47282 0.34587 0.77996 0.0
H2006 H 0.44692 0.39593 0.71113 0.0
H2007 H 0.41275 0.3811 0.8212 0.0
H2008 H 0.40847 0.37906 0.88699 0.0
H2009 H 0.41369 0.44461 0.89488 0.0
H2010 H 0.41831 0.44704 0.82918 0.0
H2011 H 0.35082 0.46911 0.70099 0.0
H2012 H 0.36795 0.4373 0.71779 0.0
H2013 H 0.42652 0.46391 0.69029 0.0
H2014 H 0.40959 0.49601 0.67374 0.0
H2015 H 0.39539 0.43865 0.77469 0.0
H2016 H 0.45875 0.42416 0.66731 0.0
H2017 H 0.46284 0.42603 0.60146 0.0
H2018 H 0.39791 0.41772 0.58775 0.0
H2019 H 0.39345 0.41548 0.65349 0.0
C2020 C 0.48153 0.39326 0.81626 0.0
C2021 C 0.48548 0.37278 0.80663 0.0
C2022 C 0.46378 0.40304 0.80401 0.0
C2023 C 0.44979 0.39246 0.7821 0.0
C2024 C 0.45282 0.37159 0.77503 0.0
C2025 C 0.47043 0.36176 0.78746 0.0
C2026 C 0.43382 0.40393 0.76252 0.0
C2027 C 0.43544 0.40509 0.72491 0.0
C2028 C 0.41879 0.41559 0.78065 0.0
C2029 C 0.41599 0.41423 0.82023 0.0
C2030 C 0.41315 0.39507 0.83698 0.0
C2031 C 0.41063 0.39385 0.87426 0.0
C2032 C 0.41083 0.41169 0.89511 0.0
C2033 C 0.41353 0.4308 0.8787 0.0
C2034 C 0.41607 0.43211 0.84142 0.0
C2035 C 0.36731 0.46811 0.69765 0.0
C2036 C 0.37892 0.48529 0.68683 0.0
C2037 C 0.37703 0.44988 0.70724 0.0
C2038 C 0.39843 0.44841 0.70559 0.0
C2039 C 0.40992 0.4648 0.69158 0.0
C2040 C 0.40022 0.48314 0.68218 0.0
C2041 C 0.40899 0.4312 0.72344 0.0
C2042 C 0.40649 0.42909 0.76078 0.0
C2043 C 0.42319 0.41866 0.70505 0.0
C2044 C 0.42576 0.41979 0.66541 0.0
C2045 C 0.44536 0.42262 0.65026 0.0
C2046 C 0.44774 0.42376 0.61294 0.0
C2047 C 0.43064 0.42204 0.59044 0.0
C2048 C 0.41113 0.41912 0.60522 0.0
C2049 C 0.40866 0.41795 0.64252 0.0
H2050 H 0.43252 0.42294 0.56155 0.0
H2051 H 0.40888 0.41071 0.92397 0.0
H2052 H 0.02701 0.3532 0.19648 0.0
H2053 H 0.05637 0.37269 0.2186 0.0
H2054 H 0.02702 0.42911 0.18631 0.0
H2055 H 0.9976 0.40981 0.1639 0.0
H2056 H 0.06914 0.4314 0.18114 0.0
H2057 H 0.01717 0.41138 0.26669 0.0
H2058 H 0.99485 0.38659 0.29813 0.0
H2059 H 0.04794 0.35509 0.3387 0.0
H2060 H 0.07059 0.37953 0.30695 0.0
H2061 H 0.0869 0.50202 0.32371 0.0
H2062 H 0.06796 0.47199 0.30273 0.0
H2063 H 0.1249 0.4406 0.28119 0.0
H2064 H 0.1441 0.4706 0.30177 0.0
H2065 H 0.07267 0.42277 0.31387 0.0
H2066 H 0.12327 0.44299 0.21064 0.0
H2067 H 0.14173 0.47179 0.18185 0.0
H2068 H 0.08604 0.5071 0.17979 0.0
H2069 H 0.06742 0.4786 0.20909 0.0
C2070 C 0.02703 0.36972 0.19308 0.0
C2071 C 0.00972 0.38003 0.17937 0.0
C2072 C 0.04384 0.38079 0.20573 0.0
C2073 C 0.04352 0.40229 0.20489 0.0
C2074 C 0.0274 0.41249 0.18739 0.0
C2075 C 0.01058 0.40142 0.17465 0.0
C2076 C 0.05816 0.41417 0.22679 0.0
C2077 C 0.07016 0.42922 0.21002 0.0
C2078 C 0.05912 0.41165 0.26465 0.0
C2079 C 0.04556 0.3971 0.2841 0.0
C2080 C 0.02408 0.39907 0.28209 0.0
C2081 C 0.01137 0.3851 0.29998 0.0
C2082 C 0.01997 0.36924 0.32031 0.0
C2083 C 0.0413 0.36736 0.32287 0.0
C2084 C 0.05408 0.38126 0.30493 0.0
C2085 C 0.09544 0.48848 0.31581 0.0
C2086 C 0.11698 0.48883 0.31358 0.0
C2087 C 0.08458 0.47135 0.30389 0.0
C2088 C 0.09515 0.45437 0.29007 0.0
C2089 C 0.11659 0.45372 0.29165 0.0
C2090 C 0.12749 0.47088 0.30331 0.0
C2091 C 0.08395 0.43943 0.26798 0.0
C2092 C 0.07227 0.42419 0.2848 0.0
C2093 C 0.08299 0.44193 0.23029 0.0
C2094 C 0.09404 0.45878 0.21199 0.0
C2095 C 0.11503 0.45693 0.20403 0.0
C2096 C 0.12551 0.47321 0.18774 0.0
C2097 C 0.11508 0.4913 0.17907 0.0
C2098 C 0.09413 0.49313 0.18663 0.0
C2099 C 0.08361 0.47694 0.20307 0.0
H2100 H 0.12322 0.50387 0.16644 0.0
H2101 H 0.01011 0.35844 0.33415 0.0
H2102 H 0.14692 0.02488 0.69892 0.0
H2103 H 0.12742 0.05444 0.72026 0.0
H2104 H 0.07175 0.02782 0.67815 0.0
H2105 H 0.09106 -0.00156 0.65612 0.0
H2106 H 0.06904 0.06871 0.67844 0.0
H2107 H 0.08654 0.0148 0.7602 0.0
H2108 H 0.11001 0.99092 0.79121 0.0
H2109 H 0.1417 0.04186 0.8391 0.0
H2110 H 0.11858 0.06606 0.80786 0.0
H2111 H 0.00211 0.08741 0.83652 0.0
H2112 H 0.03157 0.06806 0.81416 0.0
H2113 H 0.05636 0.12314 0.76672 0.0
H2114 H 0.02726 0.14273 0.78923 0.0
H2115 H 0.07571 0.06949 0.81164 0.0
H2116 H 0.05975 0.111 0.67666 0.0
H2117 H 0.03098 0.1285 0.6461 0.0
H2118 H 0.98773 0.09264 0.70659 0.0
H2119 H 0.01623 0.07475 0.73706 0.0
C2120 C 0.13064 0.02564 0.69306 0.0
C2121 C 0.12041 0.009 0.67689 0.0
C2122 C 0.11954 0.04254 0.7053 0.0
C2123 C 0.09811 0.04291 0.70178 0.0
C2124 C 0.08828 0.02768 0.68145 0.0
C2125 C 0.09938 0.01084 0.66895 0.0
C2126 C 0.08566 0.05691 0.72409 0.0
C2127 C 0.07075 0.06917 0.70746 0.0
C2128 C 0.08726 0.05671 0.76214 0.0
C2129 C 0.10101 0.04223 0.78138 0.0
C2130 C 0.09861 0.0209 0.77716 0.0
C2131 C 0.11183 0.00731 0.79478 0.0
C2132 C 0.12737 0.01487 0.81703 0.0
C2133 C 0.12968 0.03603 0.82179 0.0
C2134 C 0.11652 0.0497 0.80413 0.0
C2135 C 0.0142 0.0956 0.82256 0.0
C2136 C 0.01201 0.11648 0.81367 0.0
C2137 C 0.03104 0.0845 0.80987 0.0
C2138 C 0.04574 0.09417 0.78815 0.0
C2139 C 0.04494 0.11545 0.78308 0.0
C2140 C 0.02824 0.12657 0.79595 0.0
C2141 C 0.05962 0.0817 0.76584 0.0
C2142 C 0.07453 0.06953 0.78252 0.0
C2143 C 0.05733 0.08117 0.72798 0.0
C2144 C 0.04013 0.09179 0.70951 0.0
C2145 C 0.0441 0.10686 0.68339 0.0
C2146 C 0.02784 0.11683 0.66608 0.0
C2147 C 0.00754 0.11176 0.67454 0.0
C2148 C 0.00345 0.09665 0.70023 0.0
C2149 C 0.01966 0.08662 0.71755 0.0
H2150 H 0.99497 0.11948 0.6611 0.0
H2151 H 0.1376 0.00432 0.83065 0.0
H2152 H 0.58887 -0.00213 0.64945 0.0
H2153 H 0.5666 0.9704 0.67116 0.0
H2154 H 0.61679 0.94522 0.7326 0.0
H2155 H 0.63924 0.97253 0.71116 0.0
H2156 H 0.5658 0.92682 0.67673 0.0
H2157 H 0.59902 0.9413 0.81728 0.0
H2158 H 0.61726 0.96856 0.85067 0.0
H2159 H 0.5882 0.01442 0.78515 0.0
H2160 H 0.56991 0.98752 0.7515 0.0
H2161 H 0.516 0.85866 0.7935 0.0
H2162 H 0.54494 0.87866 0.77134 0.0
H2163 H 0.51232 0.9347 0.7947 0.0
H2164 H 0.48305 0.91484 0.81677 0.0
H2165 H 0.55546 0.93646 0.80813 0.0
H2166 H 0.50706 0.91758 0.71576 0.0
H2167 H 0.48569 0.89305 0.68183 0.0
H2168 H 0.53978 0.86038 0.64883 0.0
H2169 H 0.56145 0.88454 0.68313 0.0
C2170 C 0.59538 0.98617 0.66671 0.0
C2171 C 0.61568 0.98772 0.67935 0.0
C2172 C 0.58264 0.97043 0.67895 0.0
C2173 C 0.59004 0.95614 0.70396 0.0
C2174 C 0.61082 0.95633 0.7136 0.0
C2175 C 0.62359 0.97199 0.70131 0.0
C2176 C 0.57544 0.94325 0.72406 0.0
C2177 C 0.56369 0.92871 0.70549 0.0
C2178 C 0.5724 0.94617 0.76141 0.0
C2179 C 0.58331 0.96242 0.78169 0.0
C2180 C 0.59657 0.95723 0.81006 0.0
C2181 C 0.60695 0.97262 0.82897 0.0
C2182 C 0.60402 0.99325 0.8199 0.0
C2183 C 0.59065 -0.0015 0.79198 0.0
C2184 C 0.58031 0.98318 0.77293 0.0
C2185 C 0.51506 0.87524 0.79466 0.0
C2186 C 0.49701 0.88518 0.80615 0.0
C2187 C 0.53164 0.88661 0.78202 0.0
C2188 C 0.53048 0.90803 0.78085 0.0
C2189 C 0.51334 0.9181 0.79532 0.0
C2190 C 0.49664 0.90674 0.80784 0.0
C2191 C 0.54606 0.91978 0.76095 0.0
C2192 C 0.5579 0.93421 0.77953 0.0
C2193 C 0.54881 0.91705 0.72347 0.0
C2194 C 0.53586 0.90272 0.70233 0.0
C2195 C 0.51438 0.90507 0.7015 0.0
C2196 C 0.50222 0.89125 0.68218 0.0
C2197 C 0.51137 0.87514 0.66326 0.0
C2198 C 0.53271 0.87285 0.66355 0.0
C2199 C 0.54495 0.88661 0.68292 0.0
H2200 H 0.50193 0.86445 0.64832 0.0
H2201 H 0.61203 0.00516 0.83457 0.0
H2202 H 0.64417 0.52174 0.29419 0.0
H2203 H 0.62656 0.55354 0.27887 0.0
H2204 H 0.56893 0.52704 0.31232 0.0
H2205 H 0.58638 0.49503 0.32771 0.0
H2206 H 0.598 0.55379 0.22568 0.0
H2207 H 0.53699 0.56561 0.33832 0.0
H2208 H 0.53449 0.56238 0.40426 0.0
H2209 H 0.59965 0.57089 0.41372 0.0
H2210 H 0.60252 0.57448 0.34789 0.0
H2211 H 0.50044 0.59111 0.17472 0.0
H2212 H 0.53117 0.57339 0.19601 0.0
H2213 H 0.55102 0.62842 0.2503 0.0
H2214 H 0.52051 0.64636 0.22907 0.0
H2215 H 0.54759 0.59473 0.29535 0.0
H2216 H 0.5795 0.61228 0.1846 0.0
H2217 H 0.58252 0.61597 0.11881 0.0
H2218 H 0.57745 0.55065 0.10627 0.0
H2219 H 0.57409 0.54658 0.17195 0.0
C2220 C 0.6278 0.52276 0.29902 0.0
C2221 C 0.61658 0.5057 0.3115 0.0
C2222 C 0.61781 0.54098 0.29029 0.0
C2223 C 0.5965 0.54253 0.29428 0.0
C2224 C 0.58546 0.52614 0.30934 0.0
C2225 C 0.59544 0.50784 0.31802 0.0
C2226 C 0.58544 0.56001 0.27824 0.0
C2227 C 0.58715 0.56295 0.24094 0.0
C2228 C 0.57159 0.57208 0.29838 0.0
C2229 C 0.56997 0.57019 0.33809 0.0
C2230 C 0.55077 0.56692 0.35446 0.0
C2231 C 0.5493 0.56499 0.39183 0.0
C2232 C 0.56691 0.56639 0.41316 0.0
C2233 C 0.58603 0.56975 0.39716 0.0
C2234 C 0.58759 0.5717 0.35981 0.0
C2235 C 0.51155 0.5996 0.19048 0.0
C2236 C 0.50785 0.62005 0.20062 0.0
C2237 C 0.52913 0.58948 0.20251 0.0
C2238 C 0.54322 0.59965 0.22481 0.0
C2239 C 0.54023 0.62037 0.23317 0.0
C2240 C 0.52278 0.63056 0.22092 0.0
C2241 C 0.55963 0.58791 0.24267 0.0
C2242 C 0.55881 0.58594 0.28024 0.0
C2243 C 0.57438 0.57681 0.22282 0.0
C2244 C 0.57643 0.57915 0.18325 0.0
C2245 C 0.57887 0.59871 0.16781 0.0
C2246 C 0.58068 0.60087 0.13052 0.0
C2247 C 0.58015 0.58356 0.10837 0.0
C2248 C 0.57786 0.56405 0.12346 0.0
C2249 C 0.57603 0.5618 0.16073 0.0
H2250 H 0.58155 0.58526 0.07951 0.0
H2251 H 0.56573 0.56488 0.44208 0.0
H2252 H 0.90618 0.49798 0.66268 0.0
H2253 H 0.92437 0.52705 0.68893 0.0
H2254 H 0.86762 0.54982 0.7335 0.0
H2255 H 0.84916 0.52116 0.70663 0.0
H2256 H 0.89237 0.58093 0.71862 0.0
H2257 H 0.89565 0.52025 0.78539 0.0
H2258 H 0.90012 0.48336 0.79808 0.0
H2259 H 0.96356 0.48731 0.76736 0.0
H2260 H 0.95941 0.5242 0.75403 0.0
H2261 H 0.9863 0.60087 0.85346 0.0
H2262 H 0.95478 0.58216 0.8385 0.0
H2263 H 0.95212 0.61389 0.73647 0.0
H2264 H 0.98228 0.63354 0.7526 0.0
H2265 H 0.95005 0.55572 0.79382 0.0
H2266 H 0.90845 0.61333 0.69491 0.0
H2267 H 0.89896 0.64995 0.69382 0.0
H2268 H 0.90354 0.65263 0.80892 0.0
H2269 H 0.91276 0.61595 0.81082 0.0
C2270 C 0.89741 0.50951 0.67696 0.0
C2271 C 0.87631 0.50691 0.68338 0.0
C2272 C 0.90786 0.52604 0.6922 0.0
C2273 C 0.89739 0.54011 0.71418 0.0
C2274 C 0.876 0.53894 0.71707 0.0
C2275 C 0.8655 0.52249 0.70167 0.0
C2276 C 0.90908 0.55448 0.7371 0.0
C2277 C 0.90501 0.57556 0.73513 0.0
C2278 C 0.9245 0.54722 0.76066 0.0
C2279 C 0.92717 0.52498 0.76842 0.0
C2280 C 0.91052 0.51323 0.78105 0.0
C2281 C 0.913 0.49232 0.78841 0.0
C2282 C 0.9321 0.48299 0.78346 0.0
C2283 C 0.94877 0.49456 0.77116 0.0
C2284 C 0.94637 0.51548 0.76373 0.0
C2285 C 0.97851 0.60422 0.8284 0.0
C2286 C 0.98663 0.61865 0.80424 0.0
C2287 C 0.96057 0.59351 0.81976 0.0
C2288 C 0.95084 0.59665 0.78639 0.0
C2289 C 0.95872 0.61157 0.76288 0.0
C2290 C 0.97618 0.62272 0.772 0.0
C2291 C 0.93435 0.58261 0.77376 0.0
C2292 C 0.93733 0.56138 0.77783 0.0
C2293 C 0.91715 0.58977 0.75396 0.0
C2294 C 0.91141 0.61185 0.75297 0.0
C2295 C 0.9073 0.62167 0.72003 0.0
C2296 C 0.902 0.64246 0.71926 0.0
C2297 C 0.90069 0.65362 0.75127 0.0
C2298 C 0.90463 0.64399 0.78413 0.0
C2299 C 0.90992 0.6232 0.78507 0.0
H2300 H 0.8966 0.66972 0.75061 0.0
H2301 H 0.93401 0.46682 0.78923 0.0
H2302 H 0.90469 0.99573 0.31749 0.0
H2303 H 0.92134 0.96733 0.28638 0.0
H2304 H 0.86367 0.95044 0.23763 0.0
H2305 H 0.84671 0.97856 0.2691 0.0
H2306 H 0.88694 0.91701 0.25056 0.0
H2307 H 0.89316 0.97946 0.19091 0.0
H2308 H 0.89913 0.01647 0.18213 0.0
H2309 H 0.96262 0.00874 0.21007 0.0
H2310 H 0.95691 0.97177 0.22019 0.0
H2311 H 0.9869 0.89555 0.13082 0.0
H2312 H 0.95448 0.91412 0.13874 0.0
H2313 H 0.9465 0.88521 0.24245 0.0
H2314 H 0.9778 0.86591 0.23363 0.0
H2315 H 0.94726 0.94168 0.18132 0.0
H2316 H 0.9009 0.88454 0.27505 0.0
H2317 H 0.89133 0.84795 0.2749 0.0
H2318 H 0.90176 0.84499 0.16099 0.0
H2319 H 0.91108 0.88165 0.16026 0.0
C2320 C 0.89538 0.98565 0.30106 0.0
C2321 C 0.87448 0.98975 0.29509 0.0
C2322 C 0.90495 0.96951 0.28308 0.0
C2323 C 0.8938 0.95732 0.25886 0.0
C2324 C 0.87255 0.95992 0.25583 0.0
C2325 C 0.86292 0.97603 0.27388 0.0
C2326 C 0.90482 0.94323 0.23456 0.0
C2327 C 0.9001 0.92226 0.23521 0.0
C2328 C 0.92094 0.95045 0.21244 0.0
C2329 C 0.92456 0.97278 0.20655 0.0
C2330 C 0.90835 0.98566 0.19559 0.0
C2331 C 0.91169 0.00665 0.19039 0.0
C2332 C 0.93124 0.01494 0.19551 0.0
C2333 C 0.94748 0.00228 0.20608 0.0
C2334 C 0.94419 0.9813 0.21161 0.0
C2335 C 0.97788 0.89285 0.15484 0.0
C2336 C 0.98488 0.87938 0.18167 0.0
C2337 C 0.95937 0.90342 0.15934 0.0
C2338 C 0.94782 0.90095 0.19103 0.0
C2339 C 0.95459 0.88695 0.21719 0.0
C2340 C 0.97273 0.87606 0.21231 0.0
C2341 C 0.93061 0.915 0.19976 0.0
C2342 C 0.93393 0.93619 0.19591 0.0
C2343 C 0.9126 0.90799 0.21734 0.0
C2344 C 0.90675 0.88592 0.21763 0.0
C2345 C 0.90099 0.87617 0.24988 0.0
C2346 C 0.89565 0.85538 0.24997 0.0
C2347 C 0.89595 0.84415 0.21797 0.0
C2348 C 0.90157 0.85369 0.18578 0.0
C2349 C 0.90691 0.87448 0.18553 0.0
H2350 H 0.89183 0.82805 0.21811 0.0
H2351 H 0.93384 0.03117 0.1912 0.0
H2352 H 0.53558 0.22805 0.10168 0.0
H2353 H 0.51419 0.24571 0.05752 0.0
H2354 H 0.46737 0.19933 0.06943 0.0
H2355 H 0.48858 0.18195 0.11503 0.0
H2356 H 0.4853 0.20387 -0.00129 0.0
H2357 H 0.44901 0.24373 0.08087 0.0
H2358 H 0.44276 0.2643 0.1354 0.0
H2359 H 0.48406 0.31075 0.09691 0.0
H2360 H 0.49086 0.29036 0.04244 0.0
H2361 H 0.48618 0.30073 0.87041 0.0
H2362 H 0.46594 0.27915 0.91183 0.0
H2363 H 0.52166 0.24945 0.94704 0.0
H2364 H 0.54171 0.27086 0.90665 0.0
H2365 H 0.47309 0.2788 0.98857 0.0
H2366 H 0.51452 0.2016 0.95685 0.0
H2367 H 0.52517 0.18255 0.90277 0.0
H2368 H 0.47711 0.21126 0.84182 0.0
H2369 H 0.46597 0.23036 0.89565 0.0
C2370 C 0.52045 0.22202 0.09571 0.0
C2371 C 0.51367 0.20371 0.11144 0.0
C2372 C 0.50817 0.23217 0.07077 0.0
C2373 C 0.48913 0.2239 0.06055 0.0
C2374 C 0.48187 0.20607 0.07745 0.0
C2375 C 0.49398 0.19619 0.1033 0.0
C2376 C 0.47945 0.23191 0.02755 0.0
C2377 C 0.48189 0.22012 0.9963 0.0
C2378 C 0.47435 0.25293 0.02469 0.0
C2379 C 0.47033 0.2655 0.05733 0.0
C2380 C 0.45682 0.2583 0.08404 0.0
C2381 C 0.45318 0.26994 0.11498 0.0
C2382 C 0.46297 0.28884 0.11958 0.0
C2383 C 0.47642 0.29614 0.09324 0.0
C2384 C 0.48012 0.28456 0.06225 0.0
C2385 C 0.49395 0.28932 0.88665 0.0
C2386 C 0.51548 0.28751 0.88569 0.0
C2387 C 0.48242 0.27706 0.91015 0.0
C2388 C 0.49231 0.26256 0.93199 0.0
C2389 C 0.5137 0.26031 0.9299 0.0
C2390 C 0.52517 0.27269 0.90709 0.0
C2391 C 0.48137 0.25117 0.96042 0.0
C2392 C 0.47508 0.26232 0.99073 0.0
C2393 C 0.48324 0.22959 0.96253 0.0
C2394 C 0.48927 0.21731 0.93048 0.0
C2395 C 0.50598 0.20364 0.93211 0.0
C2396 C 0.5122 0.19291 0.90141 0.0
C2397 C 0.50181 0.19567 0.8689 0.0
C2398 C 0.48514 0.20913 0.86703 0.0
C2399 C 0.47888 0.21992 0.89763 0.0
H2400 H 0.5067 0.1874 0.84514 0.0
H2401 H 0.46014 0.29782 0.14356 0.0
H2402 H 0.16868 0.50774 0.41919 0.0
H2403 H 0.18243 0.49076 0.47302 0.0
H2404 H 0.24409 0.50183 0.43497 0.0
H2405 H 0.23028 0.5189 0.38129 0.0
H2406 H 0.23977 0.46394 0.47226 0.0
H2407 H 0.22259 0.53663 0.48408 0.0
H2408 H 0.19974 0.56681 0.48418 0.0
H2409 H 0.16114 0.53793 0.563 0.0
H2410 H 0.18365 0.50738 0.56292 0.0
H2411 H 0.30989 0.51187 0.57685 0.0
H2412 H 0.2852 0.49431 0.53872 0.0
H2413 H 0.24482 0.48619 0.62977 0.0
H2414 H 0.26994 0.50371 0.66843 0.0
H2415 H 0.22814 0.50919 0.57759 0.0
H2416 H 0.25719 0.44372 0.5808 0.0
H2417 H 0.28414 0.4172 0.58245 0.0
H2418 H 0.30402 0.43471 0.47669 0.0
H2419 H 0.27744 0.46156 0.47454 0.0
C2420 C 0.18515 0.50595 0.42202 0.0
C2421 C 0.19856 0.51448 0.39656 0.0
C2422 C 0.19295 0.49626 0.45258 0.0
C2423 C 0.21423 0.49509 0.45788 0.0
C2424 C 0.2276 0.50241 0.4311 0.0
C2425 C 0.21979 0.51223 0.40067 0.0
C2426 C 0.22272 0.48952 0.49336 0.0
C2427 C 0.23717 0.4736 0.49557 0.0
C2428 C 0.21859 0.50168 0.52405 0.0
C2429 C 0.20456 0.51959 0.52299 0.0
C2430 C 0.20905 0.53658 0.50101 0.0
C2431 C 0.19622 0.55378 0.50117 0.0
C2432 C 0.17901 0.55428 0.52357 0.0
C2433 C 0.17448 0.5375 0.54563 0.0
C2434 C 0.18724 0.52023 0.54549 0.0
C2435 C 0.29604 0.50572 0.58895 0.0
C2436 C 0.29158 0.50932 0.62528 0.0
C2437 C 0.28204 0.49543 0.56728 0.0
C2438 C 0.2632 0.48878 0.58144 0.0
C2439 C 0.25938 0.49098 0.61845 0.0
C2440 C 0.27365 0.50103 0.64041 0.0
C2441 C 0.24633 0.48446 0.55595 0.0
C2442 C 0.2301 0.4986 0.55531 0.0
C2443 C 0.24912 0.47089 0.52665 0.0
C2444 C 0.26519 0.45468 0.5275 0.0
C2445 C 0.26735 0.442 0.55793 0.0
C2446 C 0.28258 0.42689 0.55895 0.0
C2447 C 0.29577 0.42425 0.52968 0.0
C2448 C 0.29375 0.43673 0.49931 0.0
C2449 C 0.27855 0.45187 0.49813 0.0
H2450 H 0.30756 0.41255 0.53053 0.0
H2451 H 0.16924 0.56772 0.52393 0.0
H2452 H 0.01003 0.31359 0.10401 0.0
H2453 H 0.02729 0.29965 0.05026 0.0
H2454 H 0.97701 0.25747 0.03478 0.0
H2455 H 0.95973 0.2714 0.08753 0.0
H2456 H 0.03593 0.25462 0.02276 0.0
H2457 H 0.95885 0.26973 0.95198 0.0
H2458 H 0.92924 0.29294 0.95756 0.0
H2459 H 0.96787 0.3393 0.00388 0.0
H2460 H -0.00197 0.31666 0.99721 0.0
H2461 H 0.98147 0.1882 0.92329 0.0
H2462 H 0.00125 0.21221 0.95956 0.0
H2463 H 0.01348 0.24892 0.86527 0.0
H2464 H 0.99401 0.22431 0.82841 0.0
H2465 H 0.99117 0.26853 0.91756 0.0
H2466 H 0.05475 0.23694 0.9127 0.0
H2467 H 0.08024 0.20905 0.90989 0.0
H2468 H 0.06362 0.18984 0.01646 0.0
H2469 H 0.03778 0.21736 0.01979 0.0
C2470 C 0.00308 0.3009 0.08968 0.0
C2471 C 0.9835 0.29367 0.09942 0.0
C2472 C 0.01289 0.29302 0.05908 0.0
C2473 C 0.00317 0.27785 0.03845 0.0
C2474 C 0.98457 0.26937 0.05026 0.0
C2475 C 0.97473 0.27732 0.08031 0.0
C2476 C 0.01055 0.2722 0.00233 0.0
C2477 C 0.02651 0.25786 -0.00059 0.0
C2478 C -0.00146 0.27711 0.97178 0.0
C2479 C 0.98078 0.29144 0.9741 0.0
C2480 C 0.96116 0.28497 0.96288 0.0
C2481 C 0.94425 0.29799 0.96634 0.0
C2482 C 0.94667 0.31749 0.98124 0.0
C2483 C 0.96604 0.3241 0.99254 0.0
C2484 C 0.98309 0.31122 0.98873 0.0
C2485 C 0.98886 0.20109 0.91016 0.0
C2486 C 0.98603 0.20468 0.87334 0.0
C2487 C 0.00046 0.21463 0.93075 0.0
C2488 C 0.00908 0.23223 0.91502 0.0
C2489 C 0.00726 0.23524 0.87774 0.0
C2490 C 0.99602 0.22133 0.85687 0.0
C2491 C 0.01497 0.24925 0.93914 0.0
C2492 C 0.00148 0.26597 0.94005 0.0
C2493 C 0.02875 0.24604 0.968 0.0
C2494 C 0.04434 0.22938 0.96654 0.0
C2495 C 0.05645 0.22674 0.93552 0.0
C2496 C 0.07098 0.21097 0.93383 0.0
C2497 C 0.07358 0.19771 0.96301 0.0
C2498 C 0.06164 0.20018 0.99393 0.0
C2499 C 0.04708 0.21592 0.99577 0.0
H2500 H 0.08482 0.1855 0.96164 0.0
H2501 H 0.93355 0.32751 0.98353 0.0
H2502 H 0.30818 0.01411 0.37592 0.0
H2503 H 0.29412 0.03383 0.42685 0.0
H2504 H 0.25875 0.981 0.45928 0.0
H2505 H 0.27253 0.96139 0.40913 0.0
H2506 H 0.24379 0.03398 0.45615 0.0
H2507 H 0.28811 0.97295 0.53755 0.0
H2508 H 0.32218 0.95646 0.53629 0.0
H2509 H 0.34809 0.01031 0.48756 0.0
H2510 H 0.31422 0.02726 0.48897 0.0
H2511 H 0.19686 0.96684 0.56129 0.0
H2512 H 0.21771 0.98878 0.52303 0.0
H2513 H 0.24155 0.02 0.61644 0.0
H2514 H 0.22014 -0.0019 0.65538 0.0
H2515 H 0.27165 0.00339 0.56822 0.0
H2516 H 0.21868 0.05099 0.56266 0.0
H2517 H 0.18314 0.06398 0.56157 0.0
H2518 H 0.17334 0.03546 0.45892 0.0
H2519 H 0.20866 0.02199 0.45957 0.0
C2520 C 0.29699 0.00694 0.39345 0.0
C2521 C 0.29157 0.98616 0.38891 0.0
C2522 C 0.28908 0.01819 0.42246 0.0
C2523 C 0.27568 0.00869 0.44678 0.0
C2524 C 0.26924 0.98846 0.44076 0.0
C2525 C 0.27713 0.97728 0.41218 0.0
C2526 C 0.26928 0.01841 0.48065 0.0
C2527 C 0.25008 0.02809 0.4811 0.0
C2528 C 0.27804 0.01134 0.51315 0.0
C2529 C 0.29861 0.00143 0.51351 0.0
C2530 C 0.30111 0.98139 0.52696 0.0
C2531 C 0.32038 0.97192 0.52609 0.0
C2532 C 0.3373 0.98233 0.51189 0.0
C2533 C 0.33498 0.00225 0.49855 0.0
C2534 C 0.31574 0.01179 0.49935 0.0
C2535 C 0.2064 0.97845 0.57378 0.0
C2536 C 0.20706 0.98063 0.61129 0.0
C2537 C 0.21808 0.99119 0.55187 0.0
C2538 C 0.23085 0.00625 0.56694 0.0
C2539 C 0.2315 0.00867 0.6044 0.0
C2540 C 0.2194 0.99611 0.62648 0.0
C2541 C 0.24527 0.01705 0.54285 0.0
C2542 C 0.26588 0.01094 0.54424 0.0
C2543 C 0.2378 0.02745 0.51212 0.0
C2544 C 0.21648 0.03561 0.51108 0.0
C2545 C 0.20895 0.04744 0.53986 0.0
C2546 C 0.18882 0.05488 0.53933 0.0
C2547 C 0.17601 0.0506 0.51015 0.0
C2548 C 0.18331 0.03885 0.48144 0.0
C2549 C 0.20343 0.03136 0.48182 0.0
H2550 H 0.16042 0.05635 0.5098 0.0
H2551 H 0.3522 0.97497 0.51122 0.0
H2552 H 0.498 0.72134 0.15528 0.0
H2553 H 0.51715 0.74467 0.11549 0.0
H2554 H 0.49735 0.7095 0.02342 0.0
H2555 H 0.47862 0.68633 0.06263 0.0
H2556 H 0.53492 0.72653 0.01128 0.0
H2557 H 0.46652 0.74814 0.05914 0.0
H2558 H 0.44394 0.75772 0.10981 0.0
H2559 H 0.48701 0.80406 0.14237 0.0
H2560 H 0.50992 0.79456 0.09205 0.0
H2561 H 0.47881 0.7685 0.87332 0.0
H2562 H 0.49865 0.75249 0.92155 0.0
H2563 H 0.51354 0.81239 0.96394 0.0
H2564 H 0.49318 0.82831 0.91595 0.0
H2565 H 0.49484 0.79123 0.01198 0.0
H2566 H 0.55279 0.77769 0.94158 0.0
H2567 H 0.57313 0.76769 0.88851 0.0
H2568 H 0.54969 0.70623 0.8957 0.0
H2569 H 0.52894 0.71588 0.94845 0.0
C2570 C 0.49833 0.71829 0.12665 0.0
C2571 C 0.48643 0.7024 0.11186 0.0
C2572 C 0.50928 0.73158 0.10399 0.0
C2573 C 0.50842 0.72898 0.06645 0.0
C2574 C 0.49827 0.71183 0.05224 0.0
C2575 C 0.48732 0.69873 0.07468 0.0
C2576 C 0.51413 0.74565 0.04126 0.0
C2577 C 0.5265 0.74089 0.01146 0.0
C2578 C 0.50376 0.76472 0.04225 0.0
C2579 C 0.48998 0.77051 0.07223 0.0
C2580 C 0.47117 0.76032 0.07723 0.0
C2581 C 0.45833 0.76572 0.10586 0.0
C2582 C 0.46407 0.78145 0.12936 0.0
C2583 C 0.48262 0.79185 0.12421 0.0
C2584 C 0.49554 0.78645 0.09568 0.0
C2585 C 0.48704 0.77817 0.89213 0.0
C2586 C 0.48468 0.7995 0.89115 0.0
C2587 C 0.49851 0.76907 0.91959 0.0
C2588 C 0.50778 0.78124 0.94634 0.0
C2589 C 0.50666 0.80271 0.94354 0.0
C2590 C 0.49508 0.81178 0.91619 0.0
C2591 C 0.51444 0.77146 0.98048 0.0
C2592 C 0.50434 0.77754 0.0121 0.0
C2593 C 0.5268 0.7536 0.98088 0.0
C2594 C 0.5393 0.74755 0.94913 0.0
C2595 C 0.55187 0.76206 0.93178 0.0
C2596 C 0.56349 0.75644 0.90173 0.0
C2597 C 0.56271 0.73633 0.88876 0.0
C2598 C 0.55032 0.72179 0.90583 0.0
C2599 C 0.53866 0.72732 0.93589 0.0
H2600 H 0.57172 0.73202 0.86548 0.0
H2601 H 0.45411 0.78562 0.1515 0.0
H2602 H 0.77516 0.49409 0.65475 0.0
H2603 H 0.75306 0.51468 0.61475 0.0
H2604 H 0.7818 0.48659 0.52243 0.0
H2605 H 0.8035 0.46628 0.5616 0.0
H2606 H 0.77355 0.52775 0.51093 0.0
H2607 H 0.73854 0.46468 0.56015 0.0
H2608 H 0.72419 0.44547 0.61164 0.0
H2609 H 0.68769 0.49777 0.64097 0.0
H2610 H 0.702 0.51731 0.58976 0.0
H2611 H 0.72937 0.46415 0.38909 0.0
H2612 H 0.74501 0.48428 0.43738 0.0
H2613 H 0.6908 0.52221 0.44332 0.0
H2614 H 0.67542 0.50251 0.39356 0.0
H2615 H 0.70334 0.49835 0.50857 0.0
H2616 H 0.72817 0.54967 0.43233 0.0
H2617 H 0.74302 0.56495 0.37754 0.0
H2618 H 0.79962 0.53291 0.39637 0.0
H2619 H 0.78505 0.51715 0.45094 0.0
C2620 C 0.77689 0.49265 0.62589 0.0
C2621 C 0.79073 0.47834 0.61121 0.0
C2622 C 0.76437 0.50444 0.60316 0.0
C2623 C 0.76585 0.50219 0.56565 0.0
C2624 C 0.78052 0.48875 0.55125 0.0
C2625 C 0.79273 0.4769 0.57372 0.0
C2626 C 0.75062 0.51105 0.54061 0.0
C2627 C 0.75798 0.52187 0.51057 0.0
C2628 C 0.73004 0.50416 0.54093 0.0
C2629 C 0.72145 0.49247 0.57152 0.0
C2630 C 0.72751 0.47207 0.57772 0.0
C2631 C 0.7194 0.46113 0.6068 0.0
C2632 C 0.70508 0.47041 0.62962 0.0
C2633 C 0.69882 0.49063 0.62333 0.0
C2634 C 0.70693 0.50164 0.59431 0.0
C2635 C 0.72115 0.47724 0.39988 0.0
C2636 C 0.70137 0.48197 0.38777 0.0
C2637 C 0.73005 0.48876 0.42728 0.0
C2638 C 0.71908 0.50482 0.44359 0.0
C2639 C 0.69956 0.51007 0.43064 0.0
C2640 C 0.69086 0.49887 0.40237 0.0
C2641 C 0.72704 0.51324 0.47767 0.0
C2642 C 0.7183 0.50569 0.5095 0.0
C2643 C 0.74645 0.52287 0.47874 0.0
C2644 C 0.75549 0.53228 0.44594 0.0
C2645 C 0.74376 0.5458 0.42474 0.0
C2646 C 0.75214 0.55456 0.3937 0.0
C2647 C 0.77226 0.54993 0.38352 0.0
C2648 C 0.78405 0.53653 0.40436 0.0
C2649 C 0.77575 0.52773 0.43544 0.0
H2650 H 0.77872 0.55672 0.35946 0.0
H2651 H 0.69881 0.46192 0.65212 0.0
H2652 H 0.99656 0.71537 0.84373 0.0
H2653 H 0.97572 0.73725 0.88354 0.0
H2654 H 0.00666 0.71153 0.97584 0.0
H2655 H 0.02707 0.68987 0.93688 0.0
H2656 H 0.96628 0.71863 0.99041 0.0
H2657 H 0.02579 0.7555 0.93207 0.0
H2658 H 0.04245 0.76919 0.87737 0.0
H2659 H 0.98725 0.80178 0.85025 0.0
H2660 H 0.97026 0.7881 0.90468 0.0
H2661 H 0.03245 0.76999 0.09935 0.0
H2662 H 0.01248 0.75264 0.05274 0.0
H2663 H 0.96776 0.80148 0.05486 0.0
H2664 H 0.98742 0.81858 0.10297 0.0
H2665 H 0.99195 0.79019 0.98406 0.0
H2666 H 0.94441 0.76441 0.06769 0.0
H2667 H 0.93241 0.75017 0.12541 0.0
H2668 H 0.9679 0.69558 0.10747 0.0
H2669 H 0.9804 0.7096 0.04994 0.0
C2670 C -0.00143 0.7142 0.87257 0.0
C2671 C 0.01372 0.70124 0.88721 0.0
C2672 C 0.98663 0.72662 0.89522 0.0
C2673 C 0.98966 0.72602 0.93263 0.0
C2674 C 0.00391 0.71215 0.9471 0.0
C2675 C 0.01582 0.69997 0.92471 0.0
C2676 C 0.98076 0.7415 0.9572 0.0
C2677 C 0.97131 0.73448 0.98885 0.0
C2678 C 0.98653 0.76237 0.95451 0.0
C2679 C 0.99675 0.77068 0.9221 0.0
C2680 C 0.01724 0.76555 0.91434 0.0
C2681 C 0.02672 0.77329 0.88342 0.0
C2682 C 0.0159 0.78632 0.86032 0.0
C2683 C 0.99559 0.79165 0.86813 0.0
C2684 C 0.98603 0.78391 0.89898 0.0
C2685 C 0.01809 0.77673 0.09054 0.0
C2686 C 0.01138 0.79551 0.10457 0.0
C2687 C 0.00667 0.76682 0.0641 0.0
C2688 C 0.98863 0.77578 0.05067 0.0
C2689 C 0.98153 0.79429 0.06529 0.0
C2690 C 0.99271 0.80396 0.09264 0.0
C2691 C 0.97934 0.76667 0.01827 0.0
C2692 C 0.98538 0.77488 0.98506 0.0
C2693 C 0.97079 0.74679 0.01979 0.0
C2694 C 0.96328 0.73807 0.05432 0.0
C2695 C 0.94973 0.7494 0.0761 0.0
C2696 C 0.94283 0.74136 0.10881 0.0
C2697 C 0.94936 0.72197 0.12007 0.0
C2698 C 0.9628 0.71058 0.09865 0.0
C2699 C 0.96976 0.71855 0.06591 0.0
H2700 H 0.94401 0.71578 0.14542 0.0
H2701 H 0.02327 0.79232 0.83643 0.0
H2702 H 0.77563 0.00286 0.32914 0.0
H2703 H 0.75095 0.98131 0.36214 0.0
H2704 H 0.7772 0.00182 0.46253 0.0
H2705 H 0.80167 0.02285 0.43021 0.0
H2706 H 0.76572 0.96124 0.46602 0.0
H2707 H 0.73261 0.0304 0.42594 0.0
H2708 H 0.72191 0.05215 0.37473 0.0
H2709 H 0.69318 0.00011 0.32477 0.0
H2710 H 0.70374 0.97813 0.37576 0.0
H2711 H 0.72404 0.03195 0.57958 0.0
H2712 H 0.73695 0.01237 0.52832 0.0
H2713 H 0.68784 0.96853 0.54094 0.0
H2714 H 0.67521 0.98781 0.5936 0.0
H2715 H 0.69885 0.99758 0.46584 0.0
H2716 H 0.71763 0.94108 0.53924 0.0
H2717 H 0.73005 0.92422 0.5945 0.0
H2718 H 0.7884 0.9542 0.58303 0.0
H2719 H 0.77624 0.97151 0.52806 0.0
C2720 C 0.77631 0.00237 0.35824 0.0
C2721 C 0.79032 0.01479 0.37718 0.0
C2722 C 0.76225 0.99006 0.37699 0.0
C2723 C 0.76222 0.98997 0.41477 0.0
C2724 C 0.77703 0.00145 0.43337 0.0
C2725 C 0.79087 0.01372 0.41485 0.0
C2726 C 0.74534 0.98086 0.43611 0.0
C2727 C 0.75071 0.96847 0.46555 0.0
C2728 C 0.72548 0.98957 0.43473 0.0
C2729 C 0.71894 0.00271 0.40443 0.0
C2730 C 0.72397 0.02368 0.40401 0.0
C2731 C 0.71798 0.036 0.37505 0.0
C2732 C 0.70689 0.02751 0.34651 0.0
C2733 C 0.70179 0.00666 0.34687 0.0
C2734 C 0.70775 0.99427 0.37578 0.0
C2735 C 0.7163 0.01787 0.57198 0.0
C2736 C 0.69875 0.01128 0.59043 0.0
C2737 C 0.72364 0.00673 0.54279 0.0
C2738 C 0.71331 0.98906 0.53107 0.0
C2739 C 0.69605 0.98204 0.54992 0.0
C2740 C 0.68896 0.99298 0.57992 0.0
C2741 C 0.72015 0.97965 0.49711 0.0
C2742 C 0.71293 0.98867 0.46528 0.0
C2743 C 0.73841 0.968 0.49651 0.0
C2744 C 0.746 0.95756 0.52943 0.0
C2745 C 0.73307 0.94417 0.5486 0.0
C2746 C 0.74007 0.93452 0.57987 0.0
C2747 C 0.76001 0.93812 0.59225 0.0
C2748 C 0.77298 0.95138 0.57336 0.0
C2749 C 0.76605 0.96108 0.54208 0.0
H2750 H 0.7654 0.93064 0.61647 0.0
H2751 H 0.70218 0.03709 0.32421 0.0
loop_
_geom_bond_atom_site_label_1
_geom_bond_atom_site_label_2
_geom_bond_distance
_geom_bond_site_symmetry_2
_ccdc_geom_bond_type
Sc0 O3 2.025 . S
Sc0 O10 2.105 . S
Sc0 O13 2.105 . S
Sc0 O16 2.105 . S
Sc0 O19 2.105 . S
Sc1 O3 2.025 . S
Sc1 O11 2.105 . S
Sc1 O15 2.105 . S
Sc1 O17 2.105 . S
Sc1 O21 2.105 . S
Sc2 O3 2.025 . S
Sc2 O12 2.105 . S
Sc2 O14 2.105 . S
Sc2 O18 2.105 . S
Sc2 O20 2.105 . S
O3 Sc0 2.025 . S
O3 Sc1 2.025 . S
O3 Sc2 2.025 . S
C4 O10 1.268 . S
C4 O20 1.268 . S
C5 O11 1.268 . S
C5 O19 1.268 . S
C6 O12 1.268 . S
C6 O21 1.268 . S
C7 O13 1.268 . S
C7 O17 1.268 . S
C8 O14 1.268 . S
C8 O16 1.268 . S
C9 O15 1.268 . S
C9 O18 1.268 . S
O10 Sc0 2.105 . S
O10 C4 1.268 . S
O11 Sc1 2.105 . S
O11 C5 1.268 . S
O12 Sc2 2.105 . S
O12 C6 1.268 . S
O13 Sc0 2.105 . S
O13 C7 1.268 . S
O14 Sc2 2.105 . S
O14 C8 1.268 . S
O15 Sc1 2.105 . S
O15 C9 1.268 . S
O16 Sc0 2.105 . S
O16 C8 1.268 . S
O17 Sc1 2.105 . S
O17 C7 1.268 . S
O18 Sc2 2.105 . S
O18 C9 1.268 . S
O19 Sc0 2.105 . S
O19 C5 1.268 . S
O20 Sc2 2.105 . S
O20 C4 1.268 . S
O21 Sc1 2.105 . S
O21 C6 1.268 . S
Sc22 O25 2.025 . S
Sc22 O32 2.105 . S
Sc22 O35 2.105 . S
Sc22 O38 2.105 . S
Sc22 O41 2.105 . S
Sc23 O25 2.025 . S
Sc23 O33 2.105 . S
Sc23 O37 2.105 . S
Sc23 O39 2.105 . S
Sc23 O43 2.105 . S
Sc24 O25 2.025 . S
Sc24 O34 2.105 . S
Sc24 O36 2.105 . S
Sc24 O40 2.105 . S
Sc24 O42 2.105 . S
O25 Sc22 2.025 . S
O25 Sc23 2.025 . S
O25 Sc24 2.025 . S
C26 O32 1.268 . S
C26 O42 1.268 . S
C27 O33 1.268 . S
C27 O41 1.268 . S
C28 O34 1.268 . S
C28 O43 1.268 . S
C29 O35 1.268 . S
C29 O39 1.268 . S
C30 O36 1.268 . S
C30 O38 1.268 . S
C31 O37 1.268 . S
C31 O40 1.268 . S
O32 Sc22 2.105 . S
O32 C26 1.268 . S
O33 Sc23 2.105 . S
O33 C27 1.268 . S
O34 Sc24 2.105 . S
O34 C28 1.268 . S
O35 Sc22 2.105 . S
O35 C29 1.268 . S
O36 Sc24 2.105 . S
O36 C30 1.268 . S
O37 Sc23 2.105 . S
O37 C31 1.268 . S
O38 Sc22 2.105 . S
O38 C30 1.268 . S
O39 Sc23 2.105 . S
O39 C29 1.268 . S
O40 Sc24 2.105 . S
O40 C31 1.268 . S
O41 Sc22 2.105 . S
O41 C27 1.268 . S
O42 Sc24 2.105 . S
O42 C26 1.268 . S
O43 Sc23 2.105 . S
O43 C28 1.268 . S
Sc44 O47 2.025 . S
Sc44 O54 2.105 . S
Sc44 O57 2.105 . S
Sc44 O60 2.105 . S
Sc44 O63 2.105 . S
Sc45 O47 2.025 . S
Sc45 O55 2.105 . S
Sc45 O59 2.105 . S
Sc45 O61 2.105 . S
Sc45 O65 2.105 . S
Sc46 O47 2.025 . S
Sc46 O56 2.105 . S
Sc46 O58 2.105 . S
Sc46 O62 2.105 . S
Sc46 O64 2.105 . S
O47 Sc44 2.025 . S
O47 Sc45 2.025 . S
O47 Sc46 2.025 . S
C48 O54 1.268 . S
C48 O64 1.268 . S
C49 O55 1.268 . S
C49 O63 1.268 . S
C50 O56 1.268 . S
C50 O65 1.268 . S
C51 O57 1.268 . S
C51 O61 1.268 . S
C52 O58 1.268 . S
C52 O60 1.268 . S
C53 O59 1.268 . S
C53 O62 1.268 . S
O54 Sc44 2.105 . S
O54 C48 1.268 . S
O55 Sc45 2.105 . S
O55 C49 1.268 . S
O56 Sc46 2.105 . S
O56 C50 1.268 . S
O57 Sc44 2.105 . S
O57 C51 1.268 . S
O58 Sc46 2.105 . S
O58 C52 1.268 . S
O59 Sc45 2.105 . S
O59 C53 1.268 . S
O60 Sc44 2.105 . S
O60 C52 1.268 . S
O61 Sc45 2.105 . S
O61 C51 1.268 . S
O62 Sc46 2.105 . S
O62 C53 1.268 . S
O63 Sc44 2.105 . S
O63 C49 1.268 . S
O64 Sc46 2.105 . S
O64 C48 1.268 . S
O65 Sc45 2.105 . S
O65 C50 1.268 . S
Sc66 O69 2.025 . S
Sc66 O76 2.105 . S
Sc66 O79 2.105 . S
Sc66 O82 2.105 . S
Sc66 O85 2.105 . S
Sc67 O69 2.025 . S
Sc67 O77 2.105 . S
Sc67 O81 2.105 . S
Sc67 O83 2.105 . S
Sc67 O87 2.105 . S
Sc68 O69 2.025 . S
Sc68 O78 2.105 . S
Sc68 O80 2.105 . S
Sc68 O84 2.105 . S
Sc68 O86 2.105 . S
O69 Sc66 2.025 . S
O69 Sc67 2.025 . S
O69 Sc68 2.025 . S
C70 O76 1.268 . S
C70 O86 1.268 . S
C71 O77 1.268 . S
C71 O85 1.268 . S
C72 O78 1.268 . S
C72 O87 1.268 . S
C73 O79 1.268 . S
C73 O83 1.268 . S
C74 O80 1.268 . S
C74 O82 1.268 . S
C75 O81 1.268 . S
C75 O84 1.268 . S
O76 Sc66 2.105 . S
O76 C70 1.268 . S
O77 Sc67 2.105 . S
O77 C71 1.268 . S
O78 Sc68 2.105 . S
O78 C72 1.268 . S
O79 Sc66 2.105 . S
O79 C73 1.268 . S
O80 Sc68 2.105 . S
O80 C74 1.268 . S
O81 Sc67 2.105 . S
O81 C75 1.268 . S
O82 Sc66 2.105 . S
O82 C74 1.268 . S
O83 Sc67 2.105 . S
O83 C73 1.268 . S
O84 Sc68 2.105 . S
O84 C75 1.268 . S
O85 Sc66 2.105 . S
O85 C71 1.268 . S
O86 Sc68 2.105 . S
O86 C70 1.268 . S
O87 Sc67 2.105 . S
O87 C72 1.268 . S
Sc88 O91 2.025 . S
Sc88 O98 2.105 . S
Sc88 O101 2.105 . S
Sc88 O104 2.105 . S
Sc88 O107 2.105 . S
Sc89 O91 2.025 . S
Sc89 O99 2.105 . S
Sc89 O103 2.105 . S
Sc89 O105 2.105 . S
Sc89 O109 2.105 . S
Sc90 O91 2.025 . S
Sc90 O100 2.105 . S
Sc90 O102 2.105 . S
Sc90 O106 2.105 . S
Sc90 O108 2.105 . S
O91 Sc88 2.025 . S
O91 Sc89 2.025 . S
O91 Sc90 2.025 . S
C92 O98 1.268 . S
C92 O108 1.268 . S
C93 O99 1.268 . S
C93 O107 1.268 . S
C94 O100 1.268 . S
C94 O109 1.268 . S
C95 O101 1.268 . S
C95 O105 1.268 . S
C96 O102 1.268 . S
C96 O104 1.268 . S
C97 O103 1.268 . S
C97 O106 1.268 . S
O98 Sc88 2.105 . S
O98 C92 1.268 . S
O99 Sc89 2.105 . S
O99 C93 1.268 . S
O100 Sc90 2.105 . S
O100 C94 1.268 . S
O101 Sc88 2.105 . S
O101 C95 1.268 . S
O102 Sc90 2.105 . S
O102 C96 1.268 . S
O103 Sc89 2.105 . S
O103 C97 1.268 . S
O104 Sc88 2.105 . S
O104 C96 1.268 . S
O105 Sc89 2.105 . S
O105 C95 1.268 . S
O106 Sc90 2.105 . S
O106 C97 1.268 . S
O107 Sc88 2.105 . S
O107 C93 1.268 . S
O108 Sc90 2.105 . S
O108 C92 1.268 . S
O109 Sc89 2.105 . S
O109 C94 1.268 . S
Sc110 O113 2.025 . S
Sc110 O120 2.105 . S
Sc110 O123 2.105 . S
Sc110 O126 2.105 . S
Sc110 O129 2.105 . S
Sc111 O113 2.025 . S
Sc111 O121 2.105 . S
Sc111 O125 2.105 . S
Sc111 O127 2.105 . S
Sc111 O131 2.105 . S
Sc112 O113 2.025 . S
Sc112 O122 2.105 . S
Sc112 O124 2.105 . S
Sc112 O128 2.105 . S
Sc112 O130 2.105 . S
O113 Sc110 2.025 . S
O113 Sc111 2.025 . S
O113 Sc112 2.025 . S
C114 O120 1.268 . S
C114 O130 1.268 . S
C115 O121 1.268 . S
C115 O129 1.268 . S
C116 O122 1.268 . S
C116 O131 1.268 . S
C117 O123 1.268 . S
C117 O127 1.268 . S
C118 O124 1.268 . S
C118 O126 1.268 . S
C119 O125 1.268 . S
C119 O128 1.268 . S
O120 Sc110 2.105 . S
O120 C114 1.268 . S
O121 Sc111 2.105 . S
O121 C115 1.268 . S
O122 Sc112 2.105 . S
O122 C116 1.268 . S
O123 Sc110 2.105 . S
O123 C117 1.268 . S
O124 Sc112 2.105 . S
O124 C118 1.268 . S
O125 Sc111 2.105 . S
O125 C119 1.268 . S
O126 Sc110 2.105 . S
O126 C118 1.268 . S
O127 Sc111 2.105 . S
O127 C117 1.268 . S
O128 Sc112 2.105 . S
O128 C119 1.268 . S
O129 Sc110 2.105 . S
O129 C115 1.268 . S
O130 Sc112 2.105 . S
O130 C114 1.268 . S
O131 Sc111 2.105 . S
O131 C116 1.268 . S
Sc132 O135 2.025 . S
Sc132 O142 2.105 . S
Sc132 O145 2.105 . S
Sc132 O148 2.105 . S
Sc132 O151 2.105 . S
Sc133 O135 2.025 . S
Sc133 O143 2.105 . S
Sc133 O147 2.105 . S
Sc133 O149 2.105 . S
Sc133 O153 2.105 . S
Sc134 O135 2.025 . S
Sc134 O144 2.105 . S
Sc134 O146 2.105 . S
Sc134 O150 2.105 . S
Sc134 O152 2.105 . S
O135 Sc132 2.025 . S
O135 Sc133 2.025 . S
O135 Sc134 2.025 . S
C136 O142 1.268 . S
C136 O152 1.268 . S
C137 O143 1.268 . S
C137 O151 1.268 . S
C138 O144 1.268 . S
C138 O153 1.268 . S
C139 O145 1.268 . S
C139 O149 1.268 . S
C140 O146 1.268 . S
C140 O148 1.268 . S
C141 O147 1.268 . S
C141 O150 1.268 . S
O142 Sc132 2.105 . S
O142 C136 1.268 . S
O143 Sc133 2.105 . S
O143 C137 1.268 . S
O144 Sc134 2.105 . S
O144 C138 1.268 . S
O145 Sc132 2.105 . S
O145 C139 1.268 . S
O146 Sc134 2.105 . S
O146 C140 1.268 . S
O147 Sc133 2.105 . S
O147 C141 1.268 . S
O148 Sc132 2.105 . S
O148 C140 1.268 . S
O149 Sc133 2.105 . S
O149 C139 1.268 . S
O150 Sc134 2.105 . S
O150 C141 1.268 . S
O151 Sc132 2.105 . S
O151 C137 1.268 . S
O152 Sc134 2.105 . S
O152 C136 1.268 . S
O153 Sc133 2.105 . S
O153 C138 1.268 . S
Sc154 O157 2.025 . S
Sc154 O164 2.105 . S
Sc154 O167 2.105 . S
Sc154 O170 2.105 . S
Sc154 O173 2.105 . S
Sc155 O157 2.025 . S
Sc155 O165 2.105 . S
Sc155 O169 2.105 . S
Sc155 O171 2.105 . S
Sc155 O175 2.105 . S
Sc156 O157 2.025 . S
Sc156 O166 2.105 . S
Sc156 O168 2.105 . S
Sc156 O172 2.105 . S
Sc156 O174 2.105 . S
O157 Sc154 2.025 . S
O157 Sc155 2.025 . S
O157 Sc156 2.025 . S
C158 O164 1.268 . S
C158 O174 1.268 . S
C159 O165 1.268 . S
C159 O173 1.268 . S
C160 O166 1.268 . S
C160 O175 1.268 . S
C161 O167 1.268 . S
C161 O171 1.268 . S
C162 O168 1.268 . S
C162 O170 1.268 . S
C163 O169 1.268 . S
C163 O172 1.268 . S
O164 Sc154 2.105 . S
O164 C158 1.268 . S
O165 Sc155 2.105 . S
O165 C159 1.268 . S
O166 Sc156 2.105 . S
O166 C160 1.268 . S
O167 Sc154 2.105 . S
O167 C161 1.268 . S
O168 Sc156 2.105 . S
O168 C162 1.268 . S
O169 Sc155 2.105 . S
O169 C163 1.268 . S
O170 Sc154 2.105 . S
O170 C162 1.268 . S
O171 Sc155 2.105 . S
O171 C161 1.268 . S
O172 Sc156 2.105 . S
O172 C163 1.268 . S
O173 Sc154 2.105 . S
O173 C159 1.268 . S
O174 Sc156 2.105 . S
O174 C158 1.268 . S
O175 Sc155 2.105 . S
O175 C160 1.268 . S
Sc176 O179 2.025 . S
Sc176 O186 2.105 . S
Sc176 O189 2.105 . S
Sc176 O192 2.105 . S
Sc176 O195 2.105 . S
Sc177 O179 2.025 . S
Sc177 O187 2.105 . S
Sc177 O191 2.105 . S
Sc177 O193 2.105 . S
Sc177 O197 2.105 . S
Sc178 O179 2.025 . S
Sc178 O188 2.105 . S
Sc178 O190 2.105 . S
Sc178 O194 2.105 . S
Sc178 O196 2.105 . S
O179 Sc176 2.025 . S
O179 Sc177 2.025 . S
O179 Sc178 2.025 . S
C180 O186 1.268 . S
C180 O196 1.268 . S
C181 O187 1.268 . S
C181 O195 1.268 . S
C182 O188 1.268 . S
C182 O197 1.268 . S
C183 O189 1.268 . S
C183 O193 1.268 . S
C184 O190 1.268 . S
C184 O192 1.268 . S
C185 O191 1.268 . S
C185 O194 1.268 . S
O186 Sc176 2.105 . S
O186 C180 1.268 . S
O187 Sc177 2.105 . S
O187 C181 1.268 . S
O188 Sc178 2.105 . S
O188 C182 1.268 . S
O189 Sc176 2.105 . S
O189 C183 1.268 . S
O190 Sc178 2.105 . S
O190 C184 1.268 . S
O191 Sc177 2.105 . S
O191 C185 1.268 . S
O192 Sc176 2.105 . S
O192 C184 1.268 . S
O193 Sc177 2.105 . S
O193 C183 1.268 . S
O194 Sc178 2.105 . S
O194 C185 1.268 . S
O195 Sc176 2.105 . S
O195 C181 1.268 . S
O196 Sc178 2.105 . S
O196 C180 1.268 . S
O197 Sc177 2.105 . S
O197 C182 1.268 . S
Sc198 O201 2.025 . S
Sc198 O208 2.105 . S
Sc198 O211 2.105 . S
Sc198 O214 2.105 . S
Sc198 O217 2.105 . S
Sc199 O201 2.025 . S
Sc199 O209 2.105 . S
Sc199 O213 2.105 . S
Sc199 O215 2.105 . S
Sc199 O219 2.105 . S
Sc200 O201 2.025 . S
Sc200 O210 2.105 . S
Sc200 O212 2.105 . S
Sc200 O216 2.105 . S
Sc200 O218 2.105 . S
O201 Sc198 2.025 . S
O201 Sc199 2.025 . S
O201 Sc200 2.025 . S
C202 O208 1.268 . S
C202 O218 1.268 . S
C203 O209 1.268 . S
C203 O217 1.268 . S
C204 O210 1.268 . S
C204 O219 1.268 . S
C205 O211 1.268 . S
C205 O215 1.268 . S
C206 O212 1.268 . S
C206 O214 1.268 . S
C207 O213 1.268 . S
C207 O216 1.268 . S
O208 Sc198 2.105 . S
O208 C202 1.268 . S
O209 Sc199 2.105 . S
O209 C203 1.268 . S
O210 Sc200 2.105 . S
O210 C204 1.268 . S
O211 Sc198 2.105 . S
O211 C205 1.268 . S
O212 Sc200 2.105 . S
O212 C206 1.268 . S
O213 Sc199 2.105 . S
O213 C207 1.268 . S
O214 Sc198 2.105 . S
O214 C206 1.268 . S
O215 Sc199 2.105 . S
O215 C205 1.268 . S
O216 Sc200 2.105 . S
O216 C207 1.268 . S
O217 Sc198 2.105 . S
O217 C203 1.268 . S
O218 Sc200 2.105 . S
O218 C202 1.268 . S
O219 Sc199 2.105 . S
O219 C204 1.268 . S
Sc220 O223 2.025 . S
Sc220 O230 2.105 . S
Sc220 O233 2.105 . S
Sc220 O236 2.105 . S
Sc220 O239 2.105 . S
Sc221 O223 2.025 . S
Sc221 O231 2.105 . S
Sc221 O235 2.105 . S
Sc221 O237 2.105 . S
Sc221 O241 2.105 . S
Sc222 O223 2.025 . S
Sc222 O232 2.105 . S
Sc222 O234 2.105 . S
Sc222 O238 2.105 . S
Sc222 O240 2.105 . S
O223 Sc220 2.025 . S
O223 Sc221 2.025 . S
O223 Sc222 2.025 . S
C224 O230 1.268 . S
C224 O240 1.268 . S
C225 O231 1.268 . S
C225 O239 1.268 . S
C226 O232 1.268 . S
C226 O241 1.268 . S
C227 O233 1.268 . S
C227 O237 1.268 . S
C228 O234 1.268 . S
C228 O236 1.268 . S
C229 O235 1.268 . S
C229 O238 1.268 . S
O230 Sc220 2.105 . S
O230 C224 1.268 . S
O231 Sc221 2.105 . S
O231 C225 1.268 . S
O232 Sc222 2.105 . S
O232 C226 1.268 . S
O233 Sc220 2.105 . S
O233 C227 1.268 . S
O234 Sc222 2.105 . S
O234 C228 1.268 . S
O235 Sc221 2.105 . S
O235 C229 1.268 . S
O236 Sc220 2.105 . S
O236 C228 1.268 . S
O237 Sc221 2.105 . S
O237 C227 1.268 . S
O238 Sc222 2.105 . S
O238 C229 1.268 . S
O239 Sc220 2.105 . S
O239 C225 1.268 . S
O240 Sc222 2.105 . S
O240 C224 1.268 . S
O241 Sc221 2.105 . S
O241 C226 1.268 . S
Sc242 O245 2.025 . S
Sc242 O252 2.105 . S
Sc242 O255 2.105 . S
Sc242 O258 2.105 . S
Sc242 O261 2.105 . S
Sc243 O245 2.025 . S
Sc243 O253 2.105 . S
Sc243 O257 2.105 . S
Sc243 O259 2.105 . S
Sc243 O263 2.105 . S
Sc244 O245 2.025 . S
Sc244 O254 2.105 . S
Sc244 O256 2.105 . S
Sc244 O260 2.105 . S
Sc244 O262 2.105 . S
O245 Sc242 2.025 . S
O245 Sc243 2.025 . S
O245 Sc244 2.025 . S
C246 O252 1.268 . S
C246 O262 1.268 . S
C247 O253 1.268 . S
C247 O261 1.268 . S
C248 O254 1.268 . S
C248 O263 1.268 . S
C249 O255 1.268 . S
C249 O259 1.268 . S
C250 O256 1.268 . S
C250 O258 1.268 . S
C251 O257 1.268 . S
C251 O260 1.268 . S
O252 Sc242 2.105 . S
O252 C246 1.268 . S
O253 Sc243 2.105 . S
O253 C247 1.268 . S
O254 Sc244 2.105 . S
O254 C248 1.268 . S
O255 Sc242 2.105 . S
O255 C249 1.268 . S
O256 Sc244 2.105 . S
O256 C250 1.268 . S
O257 Sc243 2.105 . S
O257 C251 1.268 . S
O258 Sc242 2.105 . S
O258 C250 1.268 . S
O259 Sc243 2.105 . S
O259 C249 1.268 . S
O260 Sc244 2.105 . S
O260 C251 1.268 . S
O261 Sc242 2.105 . S
O261 C247 1.268 . S
O262 Sc244 2.105 . S
O262 C246 1.268 . S
O263 Sc243 2.105 . S
O263 C248 1.268 . S
Sc264 O267 2.025 . S
Sc264 O274 2.105 . S
Sc264 O277 2.105 . S
Sc264 O280 2.105 . S
Sc264 O283 2.105 . S
Sc265 O267 2.025 . S
Sc265 O275 2.105 . S
Sc265 O279 2.105 . S
Sc265 O281 2.105 . S
Sc265 O285 2.105 . S
Sc266 O267 2.025 . S
Sc266 O276 2.105 . S
Sc266 O278 2.105 . S
Sc266 O282 2.105 . S
Sc266 O284 2.105 . S
O267 Sc264 2.025 . S
O267 Sc265 2.025 . S
O267 Sc266 2.025 . S
C268 O274 1.268 . S
C268 O284 1.268 . S
C269 O275 1.268 . S
C269 O283 1.268 . S
C270 O276 1.268 . S
C270 O285 1.268 . S
C271 O277 1.268 . S
C271 O281 1.268 . S
C272 O278 1.268 . S
C272 O280 1.268 . S
C273 O279 1.268 . S
C273 O282 1.268 . S
O274 Sc264 2.105 . S
O274 C268 1.268 . S
O275 Sc265 2.105 . S
O275 C269 1.268 . S
O276 Sc266 2.105 . S
O276 C270 1.268 . S
O277 Sc264 2.105 . S
O277 C271 1.268 . S
O278 Sc266 2.105 . S
O278 C272 1.268 . S
O279 Sc265 2.105 . S
O279 C273 1.268 . S
O280 Sc264 2.105 . S
O280 C272 1.268 . S
O281 Sc265 2.105 . S
O281 C271 1.268 . S
O282 Sc266 2.105 . S
O282 C273 1.268 . S
O283 Sc264 2.105 . S
O283 C269 1.268 . S
O284 Sc266 2.105 . S
O284 C268 1.268 . S
O285 Sc265 2.105 . S
O285 C270 1.268 . S
Sc286 O289 2.025 . S
Sc286 O296 2.105 . S
Sc286 O299 2.105 . S
Sc286 O302 2.105 . S
Sc286 O305 2.105 . S
Sc287 O289 2.025 . S
Sc287 O297 2.105 . S
Sc287 O301 2.105 . S
Sc287 O303 2.105 . S
Sc287 O307 2.105 . S
Sc288 O289 2.025 . S
Sc288 O298 2.105 . S
Sc288 O300 2.105 . S
Sc288 O304 2.105 . S
Sc288 O306 2.105 . S
O289 Sc286 2.025 . S
O289 Sc287 2.025 . S
O289 Sc288 2.025 . S
C290 O296 1.268 . S
C290 O306 1.268 . S
C291 O297 1.268 . S
C291 O305 1.268 . S
C292 O298 1.268 . S
C292 O307 1.268 . S
C293 O299 1.268 . S
C293 O303 1.268 . S
C294 O300 1.268 . S
C294 O302 1.268 . S
C295 O301 1.268 . S
C295 O304 1.268 . S
O296 Sc286 2.105 . S
O296 C290 1.268 . S
O297 Sc287 2.105 . S
O297 C291 1.268 . S
O298 Sc288 2.105 . S
O298 C292 1.268 . S
O299 Sc286 2.105 . S
O299 C293 1.268 . S
O300 Sc288 2.105 . S
O300 C294 1.268 . S
O301 Sc287 2.105 . S
O301 C295 1.268 . S
O302 Sc286 2.105 . S
O302 C294 1.268 . S
O303 Sc287 2.105 . S
O303 C293 1.268 . S
O304 Sc288 2.105 . S
O304 C295 1.268 . S
O305 Sc286 2.105 . S
O305 C291 1.268 . S
O306 Sc288 2.105 . S
O306 C290 1.268 . S
O307 Sc287 2.105 . S
O307 C292 1.268 . S
Sc308 O311 2.025 . S
Sc308 O318 2.105 . S
Sc308 O321 2.105 . S
Sc308 O324 2.105 . S
Sc308 O327 2.105 . S
Sc309 O311 2.025 . S
Sc309 O319 2.105 . S
Sc309 O323 2.105 . S
Sc309 O325 2.105 . S
Sc309 O329 2.105 . S
Sc310 O311 2.025 . S
Sc310 O320 2.105 . S
Sc310 O322 2.105 . S
Sc310 O326 2.105 . S
Sc310 O328 2.105 . S
O311 Sc308 2.025 . S
O311 Sc309 2.025 . S
O311 Sc310 2.025 . S
C312 O318 1.268 . S
C312 O328 1.268 . S
C313 O319 1.268 . S
C313 O327 1.268 . S
C314 O320 1.268 . S
C314 O329 1.268 . S
C315 O321 1.268 . S
C315 O325 1.268 . S
C316 O322 1.268 . S
C316 O324 1.268 . S
C317 O323 1.268 . S
C317 O326 1.268 . S
O318 Sc308 2.105 . S
O318 C312 1.268 . S
O319 Sc309 2.105 . S
O319 C313 1.268 . S
O320 Sc310 2.105 . S
O320 C314 1.268 . S
O321 Sc308 2.105 . S
O321 C315 1.268 . S
O322 Sc310 2.105 . S
O322 C316 1.268 . S
O323 Sc309 2.105 . S
O323 C317 1.268 . S
O324 Sc308 2.105 . S
O324 C316 1.268 . S
O325 Sc309 2.105 . S
O325 C315 1.268 . S
O326 Sc310 2.105 . S
O326 C317 1.268 . S
O327 Sc308 2.105 . S
O327 C313 1.268 . S
O328 Sc310 2.105 . S
O328 C312 1.268 . S
O329 Sc309 2.105 . S
O329 C314 1.268 . S
Sc330 O333 2.025 . S
Sc330 O340 2.105 . S
Sc330 O343 2.105 . S
Sc330 O346 2.105 . S
Sc330 O349 2.105 . S
Sc331 O333 2.025 . S
Sc331 O341 2.105 . S
Sc331 O345 2.105 . S
Sc331 O347 2.105 . S
Sc331 O351 2.105 . S
Sc332 O333 2.025 . S
Sc332 O342 2.105 . S
Sc332 O344 2.105 . S
Sc332 O348 2.105 . S
Sc332 O350 2.105 . S
O333 Sc330 2.025 . S
O333 Sc331 2.025 . S
O333 Sc332 2.025 . S
C334 O340 1.268 . S
C334 O350 1.268 . S
C335 O341 1.268 . S
C335 O349 1.268 . S
C336 O342 1.268 . S
C336 O351 1.268 . S
C337 O343 1.268 . S
C337 O347 1.268 . S
C338 O344 1.268 . S
C338 O346 1.268 . S
C339 O345 1.268 . S
C339 O348 1.268 . S
O340 Sc330 2.105 . S
O340 C334 1.268 . S
O341 Sc331 2.105 . S
O341 C335 1.268 . S
O342 Sc332 2.105 . S
O342 C336 1.268 . S
O343 Sc330 2.105 . S
O343 C337 1.268 . S
O344 Sc332 2.105 . S
O344 C338 1.268 . S
O345 Sc331 2.105 . S
O345 C339 1.268 . S
O346 Sc330 2.105 . S
O346 C338 1.268 . S
O347 Sc331 2.105 . S
O347 C337 1.268 . S
O348 Sc332 2.105 . S
O348 C339 1.268 . S
O349 Sc330 2.105 . S
O349 C335 1.268 . S
O350 Sc332 2.105 . S
O350 C334 1.268 . S
O351 Sc331 2.105 . S
O351 C336 1.268 . S
H352 C370 0.951 . S
H353 C372 0.951 . S
H354 C374 0.950 . S
H355 C375 0.950 . S
H356 C377 0.950 . S
H357 C380 0.950 . S
H358 C381 0.950 . S
H359 C383 0.950 . S
H360 C384 0.950 . S
H361 C385 0.951 . S
H362 C387 0.951 . S
H363 C389 0.950 . S
H364 C390 0.950 . S
H365 C392 0.950 . S
H366 C395 0.950 . S
H367 C396 0.950 . S
H368 C398 0.950 . S
H369 C399 0.950 . S
C370 H352 0.951 . S
C370 C371 1.366 . S
C370 C372 1.388 . S
C371 C370 1.366 . S
C371 C375 1.385 . S
C372 H353 0.951 . S
C372 C370 1.388 . S
C372 C373 1.366 . S
C373 C372 1.366 . S
C373 C374 1.414 . S
C373 C376 1.499 . S
C374 H354 0.950 . S
C374 C373 1.414 . S
C374 C375 1.374 . S
C375 H355 0.950 . S
C375 C371 1.385 . S
C375 C374 1.374 . S
C376 C373 1.499 . S
C376 C377 1.373 . S
C376 C378 1.389 . S
C377 H356 0.950 . S
C377 C376 1.373 . S
C377 C393 1.377 . S
C378 C376 1.389 . S
C378 C379 1.524 . S
C378 C392 1.377 . S
C379 C378 1.524 . S
C379 C380 1.397 . S
C379 C384 1.363 . S
C380 H357 0.950 . S
C380 C379 1.397 . S
C380 C381 1.334 . S
C381 H358 0.950 . S
C381 C380 1.334 . S
C381 C382 1.287 . S
C382 C381 1.287 . S
C382 C383 1.524 . S
C382 H401 0.913 . S
C383 H359 0.950 . S
C383 C382 1.524 . S
C383 C384 1.415 . S
C384 H360 0.950 . S
C384 C379 1.363 . S
C384 C383 1.415 . S
C385 H361 0.951 . S
C385 C386 1.366 . S
C385 C387 1.388 . S
C386 C385 1.366 . S
C386 C390 1.385 . S
C387 H362 0.951 . S
C387 C385 1.388 . S
C387 C388 1.366 . S
C388 C387 1.366 . S
C388 C389 1.414 . S
C388 C391 1.499 . S
C389 H363 0.950 . S
C389 C388 1.414 . S
C389 C390 1.374 . S
C390 H364 0.950 . S
C390 C386 1.385 . S
C390 C389 1.374 . S
C391 C388 1.499 . S
C391 C392 1.373 . S
C391 C393 1.389 . S
C392 H365 0.950 . S
C392 C378 1.377 . S
C392 C391 1.373 . S
C393 C377 1.377 . S
C393 C391 1.389 . S
C393 C394 1.524 . S
C394 C393 1.524 . S
C394 C395 1.397 . S
C394 C399 1.363 . S
C395 H366 0.950 . S
C395 C394 1.397 . S
C395 C396 1.334 . S
C396 H367 0.950 . S
C396 C395 1.334 . S
C396 C397 1.287 . S
C397 C396 1.287 . S
C397 C398 1.524 . S
C397 H400 0.999 . S
C398 H368 0.950 . S
C398 C397 1.524 . S
C398 C399 1.415 . S
C399 H369 0.950 . S
C399 C394 1.363 . S
C399 C398 1.415 . S
H400 C397 0.999 . S
H401 C382 0.913 . S
H402 C420 0.951 . S
H403 C422 0.951 . S
H404 C424 0.950 . S
H405 C425 0.950 . S
H406 C427 0.950 . S
H407 C430 0.950 . S
H408 C431 0.950 . S
H409 C433 0.950 . S
H410 C434 0.950 . S
H411 C435 0.951 . S
H412 C437 0.951 . S
H413 C439 0.950 . S
H414 C440 0.950 . S
H415 C442 0.950 . S
H416 C445 0.950 . S
H417 C446 0.950 . S
H418 C448 0.950 . S
H419 C449 0.950 . S
C420 H402 0.951 . S
C420 C421 1.366 . S
C420 C422 1.388 . S
C421 C420 1.366 . S
C421 C425 1.385 . S
C422 H403 0.951 . S
C422 C420 1.388 . S
C422 C423 1.366 . S
C423 C422 1.366 . S
C423 C424 1.414 . S
C423 C426 1.499 . S
C424 H404 0.950 . S
C424 C423 1.414 . S
C424 C425 1.374 . S
C425 H405 0.950 . S
C425 C421 1.385 . S
C425 C424 1.374 . S
C426 C423 1.499 . S
C426 C427 1.373 . S
C426 C428 1.389 . S
C427 H406 0.950 . S
C427 C426 1.373 . S
C427 C443 1.377 . S
C428 C426 1.389 . S
C428 C429 1.524 . S
C428 C442 1.377 . S
C429 C428 1.524 . S
C429 C430 1.397 . S
C429 C434 1.363 . S
C430 H407 0.950 . S
C430 C429 1.397 . S
C430 C431 1.334 . S
C431 H408 0.950 . S
C431 C430 1.334 . S
C431 C432 1.287 . S
C432 C431 1.287 . S
C432 C433 1.524 . S
C432 H451 0.913 . S
C433 H409 0.950 . S
C433 C432 1.524 . S
C433 C434 1.415 . S
C434 H410 0.950 . S
C434 C429 1.363 . S
C434 C433 1.415 . S
C435 H411 0.951 . S
C435 C436 1.366 . S
C435 C437 1.388 . S
C436 C435 1.366 . S
C436 C440 1.385 . S
C437 H412 0.951 . S
C437 C435 1.388 . S
C437 C438 1.366 . S
C438 C437 1.366 . S
C438 C439 1.414 . S
C438 C441 1.499 . S
C439 H413 0.950 . S
C439 C438 1.414 . S
C439 C440 1.374 . S
C440 H414 0.950 . S
C440 C436 1.385 . S
C440 C439 1.374 . S
C441 C438 1.499 . S
C441 C442 1.373 . S
C441 C443 1.389 . S
C442 H415 0.950 . S
C442 C428 1.377 . S
C442 C441 1.373 . S
C443 C427 1.377 . S
C443 C441 1.389 . S
C443 C444 1.524 . S
C444 C443 1.524 . S
C444 C445 1.397 . S
C444 C449 1.363 . S
C445 H416 0.950 . S
C445 C444 1.397 . S
C445 C446 1.334 . S
C446 H417 0.950 . S
C446 C445 1.334 . S
C446 C447 1.287 . S
C447 C446 1.287 . S
C447 C448 1.524 . S
C447 H450 0.999 . S
C448 H418 0.950 . S
C448 C447 1.524 . S
C448 C449 1.415 . S
C449 H419 0.950 . S
C449 C444 1.363 . S
C449 C448 1.415 . S
H450 C447 0.999 . S
H451 C432 0.913 . S
H452 C470 0.951 . S
H453 C472 0.951 . S
H454 C474 0.950 . S
H455 C475 0.950 . S
H456 C477 0.950 . S
H457 C480 0.950 . S
H458 C481 0.950 . S
H459 C483 0.950 . S
H460 C484 0.950 . S
H461 C485 0.951 . S
H462 C487 0.951 . S
H463 C489 0.950 . S
H464 C490 0.950 . S
H465 C492 0.950 . S
H466 C495 0.950 . S
H467 C496 0.950 . S
H468 C498 0.950 . S
H469 C499 0.950 . S
C470 H452 0.951 . S
C470 C471 1.366 . S
C470 C472 1.388 . S
C471 C470 1.366 . S
C471 C475 1.385 . S
C472 H453 0.951 . S
C472 C470 1.388 . S
C472 C473 1.366 . S
C473 C472 1.366 . S
C473 C474 1.414 . S
C473 C476 1.499 . S
C474 H454 0.950 . S
C474 C473 1.414 . S
C474 C475 1.374 . S
C475 H455 0.950 . S
C475 C471 1.385 . S
C475 C474 1.374 . S
C476 C473 1.499 . S
C476 C477 1.373 . S
C476 C478 1.389 . S
C477 H456 0.950 . S
C477 C476 1.373 . S
C477 C493 1.377 . S
C478 C476 1.389 . S
C478 C479 1.524 . S
C478 C492 1.377 . S
C479 C478 1.524 . S
C479 C480 1.397 . S
C479 C484 1.363 . S
C480 H457 0.950 . S
C480 C479 1.397 . S
C480 C481 1.334 . S
C481 H458 0.950 . S
C481 C480 1.334 . S
C481 C482 1.287 . S
C482 C481 1.287 . S
C482 C483 1.524 . S
C482 H501 0.913 . S
C483 H459 0.950 . S
C483 C482 1.524 . S
C483 C484 1.415 . S
C484 H460 0.950 . S
C484 C479 1.363 . S
C484 C483 1.415 . S
C485 H461 0.951 . S
C485 C486 1.366 . S
C485 C487 1.388 . S
C486 C485 1.366 . S
C486 C490 1.385 . S
C487 H462 0.951 . S
C487 C485 1.388 . S
C487 C488 1.366 . S
C488 C487 1.366 . S
C488 C489 1.414 . S
C488 C491 1.499 . S
C489 H463 0.950 . S
C489 C488 1.414 . S
C489 C490 1.374 . S
C490 H464 0.950 . S
C490 C486 1.385 . S
C490 C489 1.374 . S
C491 C488 1.499 . S
C491 C492 1.373 . S
C491 C493 1.389 . S
C492 H465 0.950 . S
C492 C478 1.377 . S
C492 C491 1.373 . S
C493 C477 1.377 . S
C493 C491 1.389 . S
C493 C494 1.524 . S
C494 C493 1.524 . S
C494 C495 1.397 . S
C494 C499 1.363 . S
C495 H466 0.950 . S
C495 C494 1.397 . S
C495 C496 1.334 . S
C496 H467 0.950 . S
C496 C495 1.334 . S
C496 C497 1.287 . S
C497 C496 1.287 . S
C497 C498 1.524 . S
C497 H500 0.999 . S
C498 H468 0.950 . S
C498 C497 1.524 . S
C498 C499 1.415 . S
C499 H469 0.950 . S
C499 C494 1.363 . S
C499 C498 1.415 . S
H500 C497 0.999 . S
H501 C482 0.913 . S
H502 C520 0.951 . S
H503 C522 0.951 . S
H504 C524 0.950 . S
H505 C525 0.950 . S
H506 C527 0.950 . S
H507 C530 0.950 . S
H508 C531 0.950 . S
H509 C533 0.950 . S
H510 C534 0.950 . S
H511 C535 0.951 . S
H512 C537 0.951 . S
H513 C539 0.950 . S
H514 C540 0.950 . S
H515 C542 0.950 . S
H516 C545 0.950 . S
H517 C546 0.950 . S
H518 C548 0.950 . S
H519 C549 0.950 . S
C520 H502 0.951 . S
C520 C521 1.366 . S
C520 C522 1.388 . S
C521 C520 1.366 . S
C521 C525 1.385 . S
C522 H503 0.951 . S
C522 C520 1.388 . S
C522 C523 1.366 . S
C523 C522 1.366 . S
C523 C524 1.414 . S
C523 C526 1.499 . S
C524 H504 0.950 . S
C524 C523 1.414 . S
C524 C525 1.374 . S
C525 H505 0.950 . S
C525 C521 1.385 . S
C525 C524 1.374 . S
C526 C523 1.499 . S
C526 C527 1.373 . S
C526 C528 1.389 . S
C527 H506 0.950 . S
C527 C526 1.373 . S
C527 C543 1.377 . S
C528 C526 1.389 . S
C528 C529 1.524 . S
C528 C542 1.377 . S
C529 C528 1.524 . S
C529 C530 1.397 . S
C529 C534 1.363 . S
C530 H507 0.950 . S
C530 C529 1.397 . S
C530 C531 1.334 . S
C531 H508 0.950 . S
C531 C530 1.334 . S
C531 C532 1.287 . S
C532 C531 1.287 . S
C532 C533 1.524 . S
C532 H551 0.913 . S
C533 H509 0.950 . S
C533 C532 1.524 . S
C533 C534 1.415 . S
C534 H510 0.950 . S
C534 C529 1.363 . S
C534 C533 1.415 . S
C535 H511 0.951 . S
C535 C536 1.366 . S
C535 C537 1.388 . S
C536 C535 1.366 . S
C536 C540 1.385 . S
C537 H512 0.951 . S
C537 C535 1.388 . S
C537 C538 1.366 . S
C538 C537 1.366 . S
C538 C539 1.414 . S
C538 C541 1.499 . S
C539 H513 0.950 . S
C539 C538 1.414 . S
C539 C540 1.374 . S
C540 H514 0.950 . S
C540 C536 1.385 . S
C540 C539 1.374 . S
C541 C538 1.499 . S
C541 C542 1.373 . S
C541 C543 1.389 . S
C542 H515 0.950 . S
C542 C528 1.377 . S
C542 C541 1.373 . S
C543 C527 1.377 . S
C543 C541 1.389 . S
C543 C544 1.524 . S
C544 C543 1.524 . S
C544 C545 1.397 . S
C544 C549 1.363 . S
C545 H516 0.950 . S
C545 C544 1.397 . S
C545 C546 1.334 . S
C546 H517 0.950 . S
C546 C545 1.334 . S
C546 C547 1.287 . S
C547 C546 1.287 . S
C547 C548 1.524 . S
C547 H550 0.999 . S
C548 H518 0.950 . S
C548 C547 1.524 . S
C548 C549 1.415 . S
C549 H519 0.950 . S
C549 C544 1.363 . S
C549 C548 1.415 . S
H550 C547 0.999 . S
H551 C532 0.913 . S
H552 C570 0.951 . S
H553 C572 0.951 . S
H554 C574 0.950 . S
H555 C575 0.950 . S
H556 C577 0.950 . S
H557 C580 0.950 . S
H558 C581 0.950 . S
H559 C583 0.950 . S
H560 C584 0.950 . S
H561 C585 0.951 . S
H562 C587 0.951 . S
H563 C589 0.950 . S
H564 C590 0.950 . S
H565 C592 0.950 . S
H566 C595 0.950 . S
H567 C596 0.950 . S
H568 C598 0.950 . S
H569 C599 0.950 . S
C570 H552 0.951 . S
C570 C571 1.366 . S
C570 C572 1.388 . S
C571 C570 1.366 . S
C571 C575 1.385 . S
C572 H553 0.951 . S
C572 C570 1.388 . S
C572 C573 1.366 . S
C573 C572 1.366 . S
C573 C574 1.414 . S
C573 C576 1.499 . S
C574 H554 0.950 . S
C574 C573 1.414 . S
C574 C575 1.374 . S
C575 H555 0.950 . S
C575 C571 1.385 . S
C575 C574 1.374 . S
C576 C573 1.499 . S
C576 C577 1.373 . S
C576 C578 1.389 . S
C577 H556 0.950 . S
C577 C576 1.373 . S
C577 C593 1.377 . S
C578 C576 1.389 . S
C578 C579 1.524 . S
C578 C592 1.377 . S
C579 C578 1.524 . S
C579 C580 1.397 . S
C579 C584 1.363 . S
C580 H557 0.950 . S
C580 C579 1.397 . S
C580 C581 1.334 . S
C581 H558 0.950 . S
C581 C580 1.334 . S
C581 C582 1.287 . S
C582 C581 1.287 . S
C582 C583 1.524 . S
C582 H601 0.913 . S
C583 H559 0.950 . S
C583 C582 1.524 . S
C583 C584 1.415 . S
C584 H560 0.950 . S
C584 C579 1.363 . S
C584 C583 1.415 . S
C585 H561 0.951 . S
C585 C586 1.366 . S
C585 C587 1.388 . S
C586 C585 1.366 . S
C586 C590 1.385 . S
C587 H562 0.951 . S
C587 C585 1.388 . S
C587 C588 1.366 . S
C588 C587 1.366 . S
C588 C589 1.414 . S
C588 C591 1.499 . S
C589 H563 0.950 . S
C589 C588 1.414 . S
C589 C590 1.374 . S
C590 H564 0.950 . S
C590 C586 1.385 . S
C590 C589 1.374 . S
C591 C588 1.499 . S
C591 C592 1.373 . S
C591 C593 1.389 . S
C592 H565 0.950 . S
C592 C578 1.377 . S
C592 C591 1.373 . S
C593 C577 1.377 . S
C593 C591 1.389 . S
C593 C594 1.524 . S
C594 C593 1.524 . S
C594 C595 1.397 . S
C594 C599 1.363 . S
C595 H566 0.950 . S
C595 C594 1.397 . S
C595 C596 1.334 . S
C596 H567 0.950 . S
C596 C595 1.334 . S
C596 C597 1.287 . S
C597 C596 1.287 . S
C597 C598 1.524 . S
C597 H600 0.999 . S
C598 H568 0.950 . S
C598 C597 1.524 . S
C598 C599 1.415 . S
C599 H569 0.950 . S
C599 C594 1.363 . S
C599 C598 1.415 . S
H600 C597 0.999 . S
H601 C582 0.913 . S
H602 C620 0.951 . S
H603 C622 0.951 . S
H604 C624 0.950 . S
H605 C625 0.950 . S
H606 C627 0.950 . S
H607 C630 0.950 . S
H608 C631 0.950 . S
H609 C633 0.950 . S
H610 C634 0.950 . S
H611 C635 0.951 . S
H612 C637 0.951 . S
H613 C639 0.950 . S
H614 C640 0.950 . S
H615 C642 0.950 . S
H616 C645 0.950 . S
H617 C646 0.950 . S
H618 C648 0.950 . S
H619 C649 0.950 . S
C620 H602 0.951 . S
C620 C621 1.366 . S
C620 C622 1.388 . S
C621 C620 1.366 . S
C621 C625 1.385 . S
C622 H603 0.951 . S
C622 C620 1.388 . S
C622 C623 1.366 . S
C623 C622 1.366 . S
C623 C624 1.414 . S
C623 C626 1.499 . S
C624 H604 0.950 . S
C624 C623 1.414 . S
C624 C625 1.374 . S
C625 H605 0.950 . S
C625 C621 1.385 . S
C625 C624 1.374 . S
C626 C623 1.499 . S
C626 C627 1.373 . S
C626 C628 1.389 . S
C627 H606 0.950 . S
C627 C626 1.373 . S
C627 C643 1.377 . S
C628 C626 1.389 . S
C628 C629 1.524 . S
C628 C642 1.377 . S
C629 C628 1.524 . S
C629 C630 1.397 . S
C629 C634 1.363 . S
C630 H607 0.950 . S
C630 C629 1.397 . S
C630 C631 1.334 . S
C631 H608 0.950 . S
C631 C630 1.334 . S
C631 C632 1.287 . S
C632 C631 1.287 . S
C632 C633 1.524 . S
C632 H651 0.913 . S
C633 H609 0.950 . S
C633 C632 1.524 . S
C633 C634 1.415 . S
C634 H610 0.950 . S
C634 C629 1.363 . S
C634 C633 1.415 . S
C635 H611 0.951 . S
C635 C636 1.366 . S
C635 C637 1.388 . S
C636 C635 1.366 . S
C636 C640 1.385 . S
C637 H612 0.951 . S
C637 C635 1.388 . S
C637 C638 1.366 . S
C638 C637 1.366 . S
C638 C639 1.414 . S
C638 C641 1.499 . S
C639 H613 0.950 . S
C639 C638 1.414 . S
C639 C640 1.374 . S
C640 H614 0.950 . S
C640 C636 1.385 . S
C640 C639 1.374 . S
C641 C638 1.499 . S
C641 C642 1.373 . S
C641 C643 1.389 . S
C642 H615 0.950 . S
C642 C628 1.377 . S
C642 C641 1.373 . S
C643 C627 1.377 . S
C643 C641 1.389 . S
C643 C644 1.524 . S
C644 C643 1.524 . S
C644 C645 1.397 . S
C644 C649 1.363 . S
C645 H616 0.950 . S
C645 C644 1.397 . S
C645 C646 1.334 . S
C646 H617 0.950 . S
C646 C645 1.334 . S
C646 C647 1.287 . S
C647 C646 1.287 . S
C647 C648 1.524 . S
C647 H650 0.999 . S
C648 H618 0.950 . S
C648 C647 1.524 . S
C648 C649 1.415 . S
C649 H619 0.950 . S
C649 C644 1.363 . S
C649 C648 1.415 . S
H650 C647 0.999 . S
H651 C632 0.913 . S
H652 C670 0.951 . S
H653 C672 0.951 . S
H654 C674 0.950 . S
H655 C675 0.950 . S
H656 C677 0.950 . S
H657 C680 0.950 . S
H658 C681 0.950 . S
H659 C683 0.950 . S
H660 C684 0.950 . S
H661 C685 0.951 . S
H662 C687 0.951 . S
H663 C689 0.950 . S
H664 C690 0.950 . S
H665 C692 0.950 . S
H666 C695 0.950 . S
H667 C696 0.950 . S
H668 C698 0.950 . S
H669 C699 0.950 . S
C670 H652 0.951 . S
C670 C671 1.366 . S
C670 C672 1.388 . S
C671 C670 1.366 . S
C671 C675 1.385 . S
C672 H653 0.951 . S
C672 C670 1.388 . S
C672 C673 1.366 . S
C673 C672 1.366 . S
C673 C674 1.414 . S
C673 C676 1.499 . S
C674 H654 0.950 . S
C674 C673 1.414 . S
C674 C675 1.374 . S
C675 H655 0.950 . S
C675 C671 1.385 . S
C675 C674 1.374 . S
C676 C673 1.499 . S
C676 C677 1.373 . S
C676 C678 1.389 . S
C677 H656 0.950 . S
C677 C676 1.373 . S
C677 C693 1.377 . S
C678 C676 1.389 . S
C678 C679 1.524 . S
C678 C692 1.377 . S
C679 C678 1.524 . S
C679 C680 1.397 . S
C679 C684 1.363 . S
C680 H657 0.950 . S
C680 C679 1.397 . S
C680 C681 1.334 . S
C681 H658 0.950 . S
C681 C680 1.334 . S
C681 C682 1.287 . S
C682 C681 1.287 . S
C682 C683 1.524 . S
C682 H701 0.913 . S
C683 H659 0.950 . S
C683 C682 1.524 . S
C683 C684 1.415 . S
C684 H660 0.950 . S
C684 C679 1.363 . S
C684 C683 1.415 . S
C685 H661 0.951 . S
C685 C686 1.366 . S
C685 C687 1.388 . S
C686 C685 1.366 . S
C686 C690 1.385 . S
C687 H662 0.951 . S
C687 C685 1.388 . S
C687 C688 1.366 . S
C688 C687 1.366 . S
C688 C689 1.414 . S
C688 C691 1.499 . S
C689 H663 0.950 . S
C689 C688 1.414 . S
C689 C690 1.374 . S
C690 H664 0.950 . S
C690 C686 1.385 . S
C690 C689 1.374 . S
C691 C688 1.499 . S
C691 C692 1.373 . S
C691 C693 1.389 . S
C692 H665 0.950 . S
C692 C678 1.377 . S
C692 C691 1.373 . S
C693 C677 1.377 . S
C693 C691 1.389 . S
C693 C694 1.524 . S
C694 C693 1.524 . S
C694 C695 1.397 . S
C694 C699 1.363 . S
C695 H666 0.950 . S
C695 C694 1.397 . S
C695 C696 1.334 . S
C696 H667 0.950 . S
C696 C695 1.334 . S
C696 C697 1.287 . S
C697 C696 1.287 . S
C697 C698 1.524 . S
C697 H700 0.999 . S
C698 H668 0.950 . S
C698 C697 1.524 . S
C698 C699 1.415 . S
C699 H669 0.950 . S
C699 C694 1.363 . S
C699 C698 1.415 . S
H700 C697 0.999 . S
H701 C682 0.913 . S
H702 C720 0.951 . S
H703 C722 0.951 . S
H704 C724 0.950 . S
H705 C725 0.950 . S
H706 C727 0.950 . S
H707 C730 0.950 . S
H708 C731 0.950 . S
H709 C733 0.950 . S
H710 C734 0.950 . S
H711 C735 0.951 . S
H712 C737 0.951 . S
H713 C739 0.950 . S
H714 C740 0.950 . S
H715 C742 0.950 . S
H716 C745 0.950 . S
H717 C746 0.950 . S
H718 C748 0.950 . S
H719 C749 0.950 . S
C720 H702 0.951 . S
C720 C721 1.366 . S
C720 C722 1.388 . S
C721 C720 1.366 . S
C721 C725 1.385 . S
C722 H703 0.951 . S
C722 C720 1.388 . S
C722 C723 1.366 . S
C723 C722 1.366 . S
C723 C724 1.414 . S
C723 C726 1.499 . S
C724 H704 0.950 . S
C724 C723 1.414 . S
C724 C725 1.374 . S
C725 H705 0.950 . S
C725 C721 1.385 . S
C725 C724 1.374 . S
C726 C723 1.499 . S
C726 C727 1.373 . S
C726 C728 1.389 . S
C727 H706 0.950 . S
C727 C726 1.373 . S
C727 C743 1.377 . S
C728 C726 1.389 . S
C728 C729 1.524 . S
C728 C742 1.377 . S
C729 C728 1.524 . S
C729 C730 1.397 . S
C729 C734 1.363 . S
C730 H707 0.950 . S
C730 C729 1.397 . S
C730 C731 1.334 . S
C731 H708 0.950 . S
C731 C730 1.334 . S
C731 C732 1.287 . S
C732 C731 1.287 . S
C732 C733 1.524 . S
C732 H751 0.913 . S
C733 H709 0.950 . S
C733 C732 1.524 . S
C733 C734 1.415 . S
C734 H710 0.950 . S
C734 C729 1.363 . S
C734 C733 1.415 . S
C735 H711 0.951 . S
C735 C736 1.366 . S
C735 C737 1.388 . S
C736 C735 1.366 . S
C736 C740 1.385 . S
C737 H712 0.951 . S
C737 C735 1.388 . S
C737 C738 1.366 . S
C738 C737 1.366 . S
C738 C739 1.414 . S
C738 C741 1.499 . S
C739 H713 0.950 . S
C739 C738 1.414 . S
C739 C740 1.374 . S
C740 H714 0.950 . S
C740 C736 1.385 . S
C740 C739 1.374 . S
C741 C738 1.499 . S
C741 C742 1.373 . S
C741 C743 1.389 . S
C742 H715 0.950 . S
C742 C728 1.377 . S
C742 C741 1.373 . S
C743 C727 1.377 . S
C743 C741 1.389 . S
C743 C744 1.524 . S
C744 C743 1.524 . S
C744 C745 1.397 . S
C744 C749 1.363 . S
C745 H716 0.950 . S
C745 C744 1.397 . S
C745 C746 1.334 . S
C746 H717 0.950 . S
C746 C745 1.334 . S
C746 C747 1.287 . S
C747 C746 1.287 . S
C747 C748 1.524 . S
C747 H750 0.999 . S
C748 H718 0.950 . S
C748 C747 1.524 . S
C748 C749 1.415 . S
C749 H719 0.950 . S
C749 C744 1.363 . S
C749 C748 1.415 . S
H750 C747 0.999 . S
H751 C732 0.913 . S
H752 C770 0.951 . S
H753 C772 0.951 . S
H754 C774 0.950 . S
H755 C775 0.950 . S
H756 C777 0.950 . S
H757 C780 0.950 . S
H758 C781 0.950 . S
H759 C783 0.950 . S
H760 C784 0.950 . S
H761 C785 0.951 . S
H762 C787 0.951 . S
H763 C789 0.950 . S
H764 C790 0.950 . S
H765 C792 0.950 . S
H766 C795 0.950 . S
H767 C796 0.950 . S
H768 C798 0.950 . S
H769 C799 0.950 . S
C770 H752 0.951 . S
C770 C771 1.366 . S
C770 C772 1.388 . S
C771 C770 1.366 . S
C771 C775 1.385 . S
C772 H753 0.951 . S
C772 C770 1.388 . S
C772 C773 1.366 . S
C773 C772 1.366 . S
C773 C774 1.414 . S
C773 C776 1.499 . S
C774 H754 0.950 . S
C774 C773 1.414 . S
C774 C775 1.374 . S
C775 H755 0.950 . S
C775 C771 1.385 . S
C775 C774 1.374 . S
C776 C773 1.499 . S
C776 C777 1.373 . S
C776 C778 1.389 . S
C777 H756 0.950 . S
C777 C776 1.373 . S
C777 C793 1.377 . S
C778 C776 1.389 . S
C778 C779 1.524 . S
C778 C792 1.377 . S
C779 C778 1.524 . S
C779 C780 1.397 . S
C779 C784 1.363 . S
C780 H757 0.950 . S
C780 C779 1.397 . S
C780 C781 1.334 . S
C781 H758 0.950 . S
C781 C780 1.334 . S
C781 C782 1.287 . S
C782 C781 1.287 . S
C782 C783 1.524 . S
C782 H801 0.913 . S
C783 H759 0.950 . S
C783 C782 1.524 . S
C783 C784 1.415 . S
C784 H760 0.950 . S
C784 C779 1.363 . S
C784 C783 1.415 . S
C785 H761 0.951 . S
C785 C786 1.366 . S
C785 C787 1.388 . S
C786 C785 1.366 . S
C786 C790 1.385 . S
C787 H762 0.951 . S
C787 C785 1.388 . S
C787 C788 1.366 . S
C788 C787 1.366 . S
C788 C789 1.414 . S
C788 C791 1.499 . S
C789 H763 0.950 . S
C789 C788 1.414 . S
C789 C790 1.374 . S
C790 H764 0.950 . S
C790 C786 1.385 . S
C790 C789 1.374 . S
C791 C788 1.499 . S
C791 C792 1.373 . S
C791 C793 1.389 . S
C792 H765 0.950 . S
C792 C778 1.377 . S
C792 C791 1.373 . S
C793 C777 1.377 . S
C793 C791 1.389 . S
C793 C794 1.524 . S
C794 C793 1.524 . S
C794 C795 1.397 . S
C794 C799 1.363 . S
C795 H766 0.950 . S
C795 C794 1.397 . S
C795 C796 1.334 . S
C796 H767 0.950 . S
C796 C795 1.334 . S
C796 C797 1.287 . S
C797 C796 1.287 . S
C797 C798 1.524 . S
C797 H800 0.999 . S
C798 H768 0.950 . S
C798 C797 1.524 . S
C798 C799 1.415 . S
C799 H769 0.950 . S
C799 C794 1.363 . S
C799 C798 1.415 . S
H800 C797 0.999 . S
H801 C782 0.913 . S
H802 C820 0.951 . S
H803 C822 0.951 . S
H804 C824 0.950 . S
H805 C825 0.950 . S
H806 C827 0.950 . S
H807 C830 0.950 . S
H808 C831 0.950 . S
H809 C833 0.950 . S
H810 C834 0.950 . S
H811 C835 0.951 . S
H812 C837 0.951 . S
H813 C839 0.950 . S
H814 C840 0.950 . S
H815 C842 0.950 . S
H816 C845 0.950 . S
H817 C846 0.950 . S
H818 C848 0.950 . S
H819 C849 0.950 . S
C820 H802 0.951 . S
C820 C821 1.366 . S
C820 C822 1.388 . S
C821 C820 1.366 . S
C821 C825 1.385 . S
C822 H803 0.951 . S
C822 C820 1.388 . S
C822 C823 1.366 . S
C823 C822 1.366 . S
C823 C824 1.414 . S
C823 C826 1.499 . S
C824 H804 0.950 . S
C824 C823 1.414 . S
C824 C825 1.374 . S
C825 H805 0.950 . S
C825 C821 1.385 . S
C825 C824 1.374 . S
C826 C823 1.499 . S
C826 C827 1.373 . S
C826 C828 1.389 . S
C827 H806 0.950 . S
C827 C826 1.373 . S
C827 C843 1.377 . S
C828 C826 1.389 . S
C828 C829 1.524 . S
C828 C842 1.377 . S
C829 C828 1.524 . S
C829 C830 1.397 . S
C829 C834 1.363 . S
C830 H807 0.950 . S
C830 C829 1.397 . S
C830 C831 1.334 . S
C831 H808 0.950 . S
C831 C830 1.334 . S
C831 C832 1.287 . S
C832 C831 1.287 . S
C832 C833 1.524 . S
C832 H851 0.913 . S
C833 H809 0.950 . S
C833 C832 1.524 . S
C833 C834 1.415 . S
C834 H810 0.950 . S
C834 C829 1.363 . S
C834 C833 1.415 . S
C835 H811 0.951 . S
C835 C836 1.366 . S
C835 C837 1.388 . S
C836 C835 1.366 . S
C836 C840 1.385 . S
C837 H812 0.951 . S
C837 C835 1.388 . S
C837 C838 1.366 . S
C838 C837 1.366 . S
C838 C839 1.414 . S
C838 C841 1.499 . S
C839 H813 0.950 . S
C839 C838 1.414 . S
C839 C840 1.374 . S
C840 H814 0.950 . S
C840 C836 1.385 . S
C840 C839 1.374 . S
C841 C838 1.499 . S
C841 C842 1.373 . S
C841 C843 1.389 . S
C842 H815 0.950 . S
C842 C828 1.377 . S
C842 C841 1.373 . S
C843 C827 1.377 . S
C843 C841 1.389 . S
C843 C844 1.524 . S
C844 C843 1.524 . S
C844 C845 1.397 . S
C844 C849 1.363 . S
C845 H816 0.950 . S
C845 C844 1.397 . S
C845 C846 1.334 . S
C846 H817 0.950 . S
C846 C845 1.334 . S
C846 C847 1.287 . S
C847 C846 1.287 . S
C847 C848 1.524 . S
C847 H850 0.999 . S
C848 H818 0.950 . S
C848 C847 1.524 . S
C848 C849 1.415 . S
C849 H819 0.950 . S
C849 C844 1.363 . S
C849 C848 1.415 . S
H850 C847 0.999 . S
H851 C832 0.913 . S
H852 C870 0.951 . S
H853 C872 0.951 . S
H854 C874 0.950 . S
H855 C875 0.950 . S
H856 C877 0.950 . S
H857 C880 0.950 . S
H858 C881 0.950 . S
H859 C883 0.950 . S
H860 C884 0.950 . S
H861 C885 0.951 . S
H862 C887 0.951 . S
H863 C889 0.950 . S
H864 C890 0.950 . S
H865 C892 0.950 . S
H866 C895 0.950 . S
H867 C896 0.950 . S
H868 C898 0.950 . S
H869 C899 0.950 . S
C870 H852 0.951 . S
C870 C871 1.366 . S
C870 C872 1.388 . S
C871 C870 1.366 . S
C871 C875 1.385 . S
C872 H853 0.951 . S
C872 C870 1.388 . S
C872 C873 1.366 . S
C873 C872 1.366 . S
C873 C874 1.414 . S
C873 C876 1.499 . S
C874 H854 0.950 . S
C874 C873 1.414 . S
C874 C875 1.374 . S
C875 H855 0.950 . S
C875 C871 1.385 . S
C875 C874 1.374 . S
C876 C873 1.499 . S
C876 C877 1.373 . S
C876 C878 1.389 . S
C877 H856 0.950 . S
C877 C876 1.373 . S
C877 C893 1.377 . S
C878 C876 1.389 . S
C878 C879 1.524 . S
C878 C892 1.377 . S
C879 C878 1.524 . S
C879 C880 1.397 . S
C879 C884 1.363 . S
C880 H857 0.950 . S
C880 C879 1.397 . S
C880 C881 1.334 . S
C881 H858 0.950 . S
C881 C880 1.334 . S
C881 C882 1.287 . S
C882 C881 1.287 . S
C882 C883 1.524 . S
C882 H901 0.913 . S
C883 H859 0.950 . S
C883 C882 1.524 . S
C883 C884 1.415 . S
C884 H860 0.950 . S
C884 C879 1.363 . S
C884 C883 1.415 . S
C885 H861 0.951 . S
C885 C886 1.366 . S
C885 C887 1.388 . S
C886 C885 1.366 . S
C886 C890 1.385 . S
C887 H862 0.951 . S
C887 C885 1.388 . S
C887 C888 1.366 . S
C888 C887 1.366 . S
C888 C889 1.414 . S
C888 C891 1.499 . S
C889 H863 0.950 . S
C889 C888 1.414 . S
C889 C890 1.374 . S
C890 H864 0.950 . S
C890 C886 1.385 . S
C890 C889 1.374 . S
C891 C888 1.499 . S
C891 C892 1.373 . S
C891 C893 1.389 . S
C892 H865 0.950 . S
C892 C878 1.377 . S
C892 C891 1.373 . S
C893 C877 1.377 . S
C893 C891 1.389 . S
C893 C894 1.524 . S
C894 C893 1.524 . S
C894 C895 1.397 . S
C894 C899 1.363 . S
C895 H866 0.950 . S
C895 C894 1.397 . S
C895 C896 1.334 . S
C896 H867 0.950 . S
C896 C895 1.334 . S
C896 C897 1.287 . S
C897 C896 1.287 . S
C897 C898 1.524 . S
C897 H900 0.999 . S
C898 H868 0.950 . S
C898 C897 1.524 . S
C898 C899 1.415 . S
C899 H869 0.950 . S
C899 C894 1.363 . S
C899 C898 1.415 . S
H900 C897 0.999 . S
H901 C882 0.913 . S
H902 C920 0.951 . S
H903 C922 0.951 . S
H904 C924 0.950 . S
H905 C925 0.950 . S
H906 C927 0.950 . S
H907 C930 0.950 . S
H908 C931 0.950 . S
H909 C933 0.950 . S
H910 C934 0.950 . S
H911 C935 0.951 . S
H912 C937 0.951 . S
H913 C939 0.950 . S
H914 C940 0.950 . S
H915 C942 0.950 . S
H916 C945 0.950 . S
H917 C946 0.950 . S
H918 C948 0.950 . S
H919 C949 0.950 . S
C920 H902 0.951 . S
C920 C921 1.366 . S
C920 C922 1.388 . S
C921 C920 1.366 . S
C921 C925 1.385 . S
C922 H903 0.951 . S
C922 C920 1.388 . S
C922 C923 1.366 . S
C923 C922 1.366 . S
C923 C924 1.414 . S
C923 C926 1.499 . S
C924 H904 0.950 . S
C924 C923 1.414 . S
C924 C925 1.374 . S
C925 H905 0.950 . S
C925 C921 1.385 . S
C925 C924 1.374 . S
C926 C923 1.499 . S
C926 C927 1.373 . S
C926 C928 1.389 . S
C927 H906 0.950 . S
C927 C926 1.373 . S
C927 C943 1.377 . S
C928 C926 1.389 . S
C928 C929 1.524 . S
C928 C942 1.377 . S
C929 C928 1.524 . S
C929 C930 1.397 . S
C929 C934 1.363 . S
C930 H907 0.950 . S
C930 C929 1.397 . S
C930 C931 1.334 . S
C931 H908 0.950 . S
C931 C930 1.334 . S
C931 C932 1.287 . S
C932 C931 1.287 . S
C932 C933 1.524 . S
C932 H951 0.913 . S
C933 H909 0.950 . S
C933 C932 1.524 . S
C933 C934 1.415 . S
C934 H910 0.950 . S
C934 C929 1.363 . S
C934 C933 1.415 . S
C935 H911 0.951 . S
C935 C936 1.366 . S
C935 C937 1.388 . S
C936 C935 1.366 . S
C936 C940 1.385 . S
C937 H912 0.951 . S
C937 C935 1.388 . S
C937 C938 1.366 . S
C938 C937 1.366 . S
C938 C939 1.414 . S
C938 C941 1.499 . S
C939 H913 0.950 . S
C939 C938 1.414 . S
C939 C940 1.374 . S
C940 H914 0.950 . S
C940 C936 1.385 . S
C940 C939 1.374 . S
C941 C938 1.499 . S
C941 C942 1.373 . S
C941 C943 1.389 . S
C942 H915 0.950 . S
C942 C928 1.377 . S
C942 C941 1.373 . S
C943 C927 1.377 . S
C943 C941 1.389 . S
C943 C944 1.524 . S
C944 C943 1.524 . S
C944 C945 1.397 . S
C944 C949 1.363 . S
C945 H916 0.950 . S
C945 C944 1.397 . S
C945 C946 1.334 . S
C946 H917 0.950 . S
C946 C945 1.334 . S
C946 C947 1.287 . S
C947 C946 1.287 . S
C947 C948 1.524 . S
C947 H950 0.999 . S
C948 H918 0.950 . S
C948 C947 1.524 . S
C948 C949 1.415 . S
C949 H919 0.950 . S
C949 C944 1.363 . S
C949 C948 1.415 . S
H950 C947 0.999 . S
H951 C932 0.913 . S
H952 C970 0.951 . S
H953 C972 0.951 . S
H954 C974 0.950 . S
H955 C975 0.950 . S
H956 C977 0.950 . S
H957 C980 0.950 . S
H958 C981 0.950 . S
H959 C983 0.950 . S
H960 C984 0.950 . S
H961 C985 0.951 . S
H962 C987 0.951 . S
H963 C989 0.950 . S
H964 C990 0.950 . S
H965 C992 0.950 . S
H966 C995 0.950 . S
H967 C996 0.950 . S
H968 C998 0.950 . S
H969 C999 0.950 . S
C970 H952 0.951 . S
C970 C971 1.366 . S
C970 C972 1.388 . S
C971 C970 1.366 . S
C971 C975 1.385 . S
C972 H953 0.951 . S
C972 C970 1.388 . S
C972 C973 1.366 . S
C973 C972 1.366 . S
C973 C974 1.414 . S
C973 C976 1.499 . S
C974 H954 0.950 . S
C974 C973 1.414 . S
C974 C975 1.374 . S
C975 H955 0.950 . S
C975 C971 1.385 . S
C975 C974 1.374 . S
C976 C973 1.499 . S
C976 C977 1.373 . S
C976 C978 1.389 . S
C977 H956 0.950 . S
C977 C976 1.373 . S
C977 C993 1.377 . S
C978 C976 1.389 . S
C978 C979 1.524 . S
C978 C992 1.377 . S
C979 C978 1.524 . S
C979 C980 1.397 . S
C979 C984 1.363 . S
C980 H957 0.950 . S
C980 C979 1.397 . S
C980 C981 1.334 . S
C981 H958 0.950 . S
C981 C980 1.334 . S
C981 C982 1.287 . S
C982 C981 1.287 . S
C982 C983 1.524 . S
C982 H1001 0.913 . S
C983 H959 0.950 . S
C983 C982 1.524 . S
C983 C984 1.415 . S
C984 H960 0.950 . S
C984 C979 1.363 . S
C984 C983 1.415 . S
C985 H961 0.951 . S
C985 C986 1.366 . S
C985 C987 1.388 . S
C986 C985 1.366 . S
C986 C990 1.385 . S
C987 H962 0.951 . S
C987 C985 1.388 . S
C987 C988 1.366 . S
C988 C987 1.366 . S
C988 C989 1.414 . S
C988 C991 1.499 . S
C989 H963 0.950 . S
C989 C988 1.414 . S
C989 C990 1.374 . S
C990 H964 0.950 . S
C990 C986 1.385 . S
C990 C989 1.374 . S
C991 C988 1.499 . S
C991 C992 1.373 . S
C991 C993 1.389 . S
C992 H965 0.950 . S
C992 C978 1.377 . S
C992 C991 1.373 . S
C993 C977 1.377 . S
C993 C991 1.389 . S
C993 C994 1.524 . S
C994 C993 1.524 . S
C994 C995 1.397 . S
C994 C999 1.363 . S
C995 H966 0.950 . S
C995 C994 1.397 . S
C995 C996 1.334 . S
C996 H967 0.950 . S
C996 C995 1.334 . S
C996 C997 1.287 . S
C997 C996 1.287 . S
C997 C998 1.524 . S
C997 H1000 0.999 . S
C998 H968 0.950 . S
C998 C997 1.524 . S
C998 C999 1.415 . S
C999 H969 0.950 . S
C999 C994 1.363 . S
C999 C998 1.415 . S
H1000 C997 0.999 . S
H1001 C982 0.913 . S
H1002 C1020 0.951 . S
H1003 C1022 0.951 . S
H1004 C1024 0.950 . S
H1005 C1025 0.950 . S
H1006 C1027 0.950 . S
H1007 C1030 0.950 . S
H1008 C1031 0.950 . S
H1009 C1033 0.950 . S
H1010 C1034 0.950 . S
H1011 C1035 0.951 . S
H1012 C1037 0.951 . S
H1013 C1039 0.950 . S
H1014 C1040 0.950 . S
H1015 C1042 0.950 . S
H1016 C1045 0.950 . S
H1017 C1046 0.950 . S
H1018 C1048 0.950 . S
H1019 C1049 0.950 . S
C1020 H1002 0.951 . S
C1020 C1021 1.366 . S
C1020 C1022 1.388 . S
C1021 C1020 1.366 . S
C1021 C1025 1.385 . S
C1022 H1003 0.951 . S
C1022 C1020 1.388 . S
C1022 C1023 1.366 . S
C1023 C1022 1.366 . S
C1023 C1024 1.414 . S
C1023 C1026 1.499 . S
C1024 H1004 0.950 . S
C1024 C1023 1.414 . S
C1024 C1025 1.374 . S
C1025 H1005 0.950 . S
C1025 C1021 1.385 . S
C1025 C1024 1.374 . S
C1026 C1023 1.499 . S
C1026 C1027 1.373 . S
C1026 C1028 1.389 . S
C1027 H1006 0.950 . S
C1027 C1026 1.373 . S
C1027 C1043 1.377 . S
C1028 C1026 1.389 . S
C1028 C1029 1.524 . S
C1028 C1042 1.377 . S
C1029 C1028 1.524 . S
C1029 C1030 1.397 . S
C1029 C1034 1.363 . S
C1030 H1007 0.950 . S
C1030 C1029 1.397 . S
C1030 C1031 1.334 . S
C1031 H1008 0.950 . S
C1031 C1030 1.334 . S
C1031 C1032 1.287 . S
C1032 C1031 1.287 . S
C1032 C1033 1.524 . S
C1032 H1051 0.913 . S
C1033 H1009 0.950 . S
C1033 C1032 1.524 . S
C1033 C1034 1.415 . S
C1034 H1010 0.950 . S
C1034 C1029 1.363 . S
C1034 C1033 1.415 . S
C1035 H1011 0.951 . S
C1035 C1036 1.366 . S
C1035 C1037 1.388 . S
C1036 C1035 1.366 . S
C1036 C1040 1.385 . S
C1037 H1012 0.951 . S
C1037 C1035 1.388 . S
C1037 C1038 1.366 . S
C1038 C1037 1.366 . S
C1038 C1039 1.414 . S
C1038 C1041 1.499 . S
C1039 H1013 0.950 . S
C1039 C1038 1.414 . S
C1039 C1040 1.374 . S
C1040 H1014 0.950 . S
C1040 C1036 1.385 . S
C1040 C1039 1.374 . S
C1041 C1038 1.499 . S
C1041 C1042 1.373 . S
C1041 C1043 1.389 . S
C1042 H1015 0.950 . S
C1042 C1028 1.377 . S
C1042 C1041 1.373 . S
C1043 C1027 1.377 . S
C1043 C1041 1.389 . S
C1043 C1044 1.524 . S
C1044 C1043 1.524 . S
C1044 C1045 1.397 . S
C1044 C1049 1.363 . S
C1045 H1016 0.950 . S
C1045 C1044 1.397 . S
C1045 C1046 1.334 . S
C1046 H1017 0.950 . S
C1046 C1045 1.334 . S
C1046 C1047 1.287 . S
C1047 C1046 1.287 . S
C1047 C1048 1.524 . S
C1047 H1050 0.999 . S
C1048 H1018 0.950 . S
C1048 C1047 1.524 . S
C1048 C1049 1.415 . S
C1049 H1019 0.950 . S
C1049 C1044 1.363 . S
C1049 C1048 1.415 . S
H1050 C1047 0.999 . S
H1051 C1032 0.913 . S
H1052 C1070 0.951 . S
H1053 C1072 0.951 . S
H1054 C1074 0.950 . S
H1055 C1075 0.950 . S
H1056 C1077 0.950 . S
H1057 C1080 0.950 . S
H1058 C1081 0.950 . S
H1059 C1083 0.950 . S
H1060 C1084 0.950 . S
H1061 C1085 0.951 . S
H1062 C1087 0.951 . S
H1063 C1089 0.950 . S
H1064 C1090 0.950 . S
H1065 C1092 0.950 . S
H1066 C1095 0.950 . S
H1067 C1096 0.950 . S
H1068 C1098 0.950 . S
H1069 C1099 0.950 . S
C1070 H1052 0.951 . S
C1070 C1071 1.366 . S
C1070 C1072 1.388 . S
C1071 C1070 1.366 . S
C1071 C1075 1.385 . S
C1072 H1053 0.951 . S
C1072 C1070 1.388 . S
C1072 C1073 1.366 . S
C1073 C1072 1.366 . S
C1073 C1074 1.414 . S
C1073 C1076 1.499 . S
C1074 H1054 0.950 . S
C1074 C1073 1.414 . S
C1074 C1075 1.374 . S
C1075 H1055 0.950 . S
C1075 C1071 1.385 . S
C1075 C1074 1.374 . S
C1076 C1073 1.499 . S
C1076 C1077 1.373 . S
C1076 C1078 1.389 . S
C1077 H1056 0.950 . S
C1077 C1076 1.373 . S
C1077 C1093 1.377 . S
C1078 C1076 1.389 . S
C1078 C1079 1.524 . S
C1078 C1092 1.377 . S
C1079 C1078 1.524 . S
C1079 C1080 1.397 . S
C1079 C1084 1.363 . S
C1080 H1057 0.950 . S
C1080 C1079 1.397 . S
C1080 C1081 1.334 . S
C1081 H1058 0.950 . S
C1081 C1080 1.334 . S
C1081 C1082 1.287 . S
C1082 C1081 1.287 . S
C1082 C1083 1.524 . S
C1082 H1101 0.913 . S
C1083 H1059 0.950 . S
C1083 C1082 1.524 . S
C1083 C1084 1.415 . S
C1084 H1060 0.950 . S
C1084 C1079 1.363 . S
C1084 C1083 1.415 . S
C1085 H1061 0.951 . S
C1085 C1086 1.366 . S
C1085 C1087 1.388 . S
C1086 C1085 1.366 . S
C1086 C1090 1.385 . S
C1087 H1062 0.951 . S
C1087 C1085 1.388 . S
C1087 C1088 1.366 . S
C1088 C1087 1.366 . S
C1088 C1089 1.414 . S
C1088 C1091 1.499 . S
C1089 H1063 0.950 . S
C1089 C1088 1.414 . S
C1089 C1090 1.374 . S
C1090 H1064 0.950 . S
C1090 C1086 1.385 . S
C1090 C1089 1.374 . S
C1091 C1088 1.499 . S
C1091 C1092 1.373 . S
C1091 C1093 1.389 . S
C1092 H1065 0.950 . S
C1092 C1078 1.377 . S
C1092 C1091 1.373 . S
C1093 C1077 1.377 . S
C1093 C1091 1.389 . S
C1093 C1094 1.524 . S
C1094 C1093 1.524 . S
C1094 C1095 1.397 . S
C1094 C1099 1.363 . S
C1095 H1066 0.950 . S
C1095 C1094 1.397 . S
C1095 C1096 1.334 . S
C1096 H1067 0.950 . S
C1096 C1095 1.334 . S
C1096 C1097 1.287 . S
C1097 C1096 1.287 . S
C1097 C1098 1.524 . S
C1097 H1100 0.999 . S
C1098 H1068 0.950 . S
C1098 C1097 1.524 . S
C1098 C1099 1.415 . S
C1099 H1069 0.950 . S
C1099 C1094 1.363 . S
C1099 C1098 1.415 . S
H1100 C1097 0.999 . S
H1101 C1082 0.913 . S
H1102 C1120 0.951 . S
H1103 C1122 0.951 . S
H1104 C1124 0.950 . S
H1105 C1125 0.950 . S
H1106 C1127 0.950 . S
H1107 C1130 0.950 . S
H1108 C1131 0.950 . S
H1109 C1133 0.950 . S
H1110 C1134 0.950 . S
H1111 C1135 0.951 . S
H1112 C1137 0.951 . S
H1113 C1139 0.950 . S
H1114 C1140 0.950 . S
H1115 C1142 0.950 . S
H1116 C1145 0.950 . S
H1117 C1146 0.950 . S
H1118 C1148 0.950 . S
H1119 C1149 0.950 . S
C1120 H1102 0.951 . S
C1120 C1121 1.366 . S
C1120 C1122 1.388 . S
C1121 C1120 1.366 . S
C1121 C1125 1.385 . S
C1122 H1103 0.951 . S
C1122 C1120 1.388 . S
C1122 C1123 1.366 . S
C1123 C1122 1.366 . S
C1123 C1124 1.414 . S
C1123 C1126 1.499 . S
C1124 H1104 0.950 . S
C1124 C1123 1.414 . S
C1124 C1125 1.374 . S
C1125 H1105 0.950 . S
C1125 C1121 1.385 . S
C1125 C1124 1.374 . S
C1126 C1123 1.499 . S
C1126 C1127 1.373 . S
C1126 C1128 1.389 . S
C1127 H1106 0.950 . S
C1127 C1126 1.373 . S
C1127 C1143 1.377 . S
C1128 C1126 1.389 . S
C1128 C1129 1.524 . S
C1128 C1142 1.377 . S
C1129 C1128 1.524 . S
C1129 C1130 1.397 . S
C1129 C1134 1.363 . S
C1130 H1107 0.950 . S
C1130 C1129 1.397 . S
C1130 C1131 1.334 . S
C1131 H1108 0.950 . S
C1131 C1130 1.334 . S
C1131 C1132 1.287 . S
C1132 C1131 1.287 . S
C1132 C1133 1.524 . S
C1132 H1151 0.913 . S
C1133 H1109 0.950 . S
C1133 C1132 1.524 . S
C1133 C1134 1.415 . S
C1134 H1110 0.950 . S
C1134 C1129 1.363 . S
C1134 C1133 1.415 . S
C1135 H1111 0.951 . S
C1135 C1136 1.366 . S
C1135 C1137 1.388 . S
C1136 C1135 1.366 . S
C1136 C1140 1.385 . S
C1137 H1112 0.951 . S
C1137 C1135 1.388 . S
C1137 C1138 1.366 . S
C1138 C1137 1.366 . S
C1138 C1139 1.414 . S
C1138 C1141 1.499 . S
C1139 H1113 0.950 . S
C1139 C1138 1.414 . S
C1139 C1140 1.374 . S
C1140 H1114 0.950 . S
C1140 C1136 1.385 . S
C1140 C1139 1.374 . S
C1141 C1138 1.499 . S
C1141 C1142 1.373 . S
C1141 C1143 1.389 . S
C1142 H1115 0.950 . S
C1142 C1128 1.377 . S
C1142 C1141 1.373 . S
C1143 C1127 1.377 . S
C1143 C1141 1.389 . S
C1143 C1144 1.524 . S
C1144 C1143 1.524 . S
C1144 C1145 1.397 . S
C1144 C1149 1.363 . S
C1145 H1116 0.950 . S
C1145 C1144 1.397 . S
C1145 C1146 1.334 . S
C1146 H1117 0.950 . S
C1146 C1145 1.334 . S
C1146 C1147 1.287 . S
C1147 C1146 1.287 . S
C1147 C1148 1.524 . S
C1147 H1150 0.999 . S
C1148 H1118 0.950 . S
C1148 C1147 1.524 . S
C1148 C1149 1.415 . S
C1149 H1119 0.950 . S
C1149 C1144 1.363 . S
C1149 C1148 1.415 . S
H1150 C1147 0.999 . S
H1151 C1132 0.913 . S
H1152 C1170 0.951 . S
H1153 C1172 0.951 . S
H1154 C1174 0.950 . S
H1155 C1175 0.950 . S
H1156 C1177 0.950 . S
H1157 C1180 0.950 . S
H1158 C1181 0.950 . S
H1159 C1183 0.950 . S
H1160 C1184 0.950 1_556 S
H1161 C1185 0.951 . S
H1162 C1187 0.951 . S
H1163 C1189 0.950 . S
H1164 C1190 0.950 . S
H1165 C1192 0.950 . S
H1166 C1195 0.950 . S
H1167 C1196 0.950 . S
H1168 C1198 0.950 . S
H1169 C1199 0.950 . S
C1170 H1152 0.951 . S
C1170 C1171 1.366 . S
C1170 C1172 1.388 . S
C1171 C1170 1.366 . S
C1171 C1175 1.385 . S
C1172 H1153 0.951 . S
C1172 C1170 1.388 . S
C1172 C1173 1.366 . S
C1173 C1172 1.366 . S
C1173 C1174 1.414 . S
C1173 C1176 1.499 1_554 S
C1174 H1154 0.950 . S
C1174 C1173 1.414 . S
C1174 C1175 1.374 . S
C1175 H1155 0.950 . S
C1175 C1171 1.385 . S
C1175 C1174 1.374 . S
C1176 C1173 1.499 1_556 S
C1176 C1177 1.373 . S
C1176 C1178 1.389 . S
C1177 H1156 0.950 . S
C1177 C1176 1.373 . S
C1177 C1193 1.377 . S
C1178 C1176 1.389 . S
C1178 C1179 1.524 1_556 S
C1178 C1192 1.377 . S
C1179 C1178 1.524 1_554 S
C1179 C1180 1.397 . S
C1179 C1184 1.363 . S
C1180 H1157 0.950 . S
C1180 C1179 1.397 . S
C1180 C1181 1.334 . S
C1181 H1158 0.950 . S
C1181 C1180 1.334 . S
C1181 C1182 1.287 . S
C1182 C1181 1.287 . S
C1182 C1183 1.524 . S
C1182 H1201 0.913 . S
C1183 H1159 0.950 . S
C1183 C1182 1.524 . S
C1183 C1184 1.415 . S
C1184 H1160 0.950 1_554 S
C1184 C1179 1.363 . S
C1184 C1183 1.415 . S
C1185 H1161 0.951 . S
C1185 C1186 1.366 . S
C1185 C1187 1.388 . S
C1186 C1185 1.366 . S
C1186 C1190 1.385 . S
C1187 H1162 0.951 . S
C1187 C1185 1.388 . S
C1187 C1188 1.366 . S
C1188 C1187 1.366 . S
C1188 C1189 1.414 . S
C1188 C1191 1.499 . S
C1189 H1163 0.950 . S
C1189 C1188 1.414 . S
C1189 C1190 1.374 . S
C1190 H1164 0.950 . S
C1190 C1186 1.385 . S
C1190 C1189 1.374 . S
C1191 C1188 1.499 . S
C1191 C1192 1.373 . S
C1191 C1193 1.389 . S
C1192 H1165 0.950 . S
C1192 C1178 1.377 . S
C1192 C1191 1.373 . S
C1193 C1177 1.377 . S
C1193 C1191 1.389 . S
C1193 C1194 1.524 . S
C1194 C1193 1.524 . S
C1194 C1195 1.397 . S
C1194 C1199 1.363 . S
C1195 H1166 0.950 . S
C1195 C1194 1.397 . S
C1195 C1196 1.334 . S
C1196 H1167 0.950 . S
C1196 C1195 1.334 . S
C1196 C1197 1.287 . S
C1197 C1196 1.287 . S
C1197 C1198 1.524 . S
C1197 H1200 0.999 . S
C1198 H1168 0.950 . S
C1198 C1197 1.524 . S
C1198 C1199 1.415 . S
C1199 H1169 0.950 . S
C1199 C1194 1.363 . S
C1199 C1198 1.415 . S
H1200 C1197 0.999 . S
H1201 C1182 0.913 . S
H1202 C1220 0.951 . S
H1203 C1222 0.951 . S
H1204 C1224 0.950 . S
H1205 C1225 0.950 . S
H1206 C1227 0.950 . S
H1207 C1230 0.950 . S
H1208 C1231 0.950 . S
H1209 C1233 0.950 . S
H1210 C1234 0.950 . S
H1211 C1235 0.951 . S
H1212 C1237 0.951 . S
H1213 C1239 0.950 . S
H1214 C1240 0.950 . S
H1215 C1242 0.950 . S
H1216 C1245 0.950 . S
H1217 C1246 0.950 . S
H1218 C1248 0.950 . S
H1219 C1249 0.950 . S
C1220 H1202 0.951 . S
C1220 C1221 1.366 . S
C1220 C1222 1.388 . S
C1221 C1220 1.366 . S
C1221 C1225 1.385 . S
C1222 H1203 0.951 . S
C1222 C1220 1.388 . S
C1222 C1223 1.366 . S
C1223 C1222 1.366 . S
C1223 C1224 1.414 . S
C1223 C1226 1.499 . S
C1224 H1204 0.950 . S
C1224 C1223 1.414 . S
C1224 C1225 1.374 . S
C1225 H1205 0.950 . S
C1225 C1221 1.385 . S
C1225 C1224 1.374 . S
C1226 C1223 1.499 . S
C1226 C1227 1.373 . S
C1226 C1228 1.389 . S
C1227 H1206 0.950 . S
C1227 C1226 1.373 . S
C1227 C1243 1.377 . S
C1228 C1226 1.389 . S
C1228 C1229 1.524 . S
C1228 C1242 1.377 . S
C1229 C1228 1.524 . S
C1229 C1230 1.397 . S
C1229 C1234 1.363 . S
C1230 H1207 0.950 . S
C1230 C1229 1.397 . S
C1230 C1231 1.334 . S
C1231 H1208 0.950 . S
C1231 C1230 1.334 . S
C1231 C1232 1.287 . S
C1232 C1231 1.287 . S
C1232 C1233 1.524 . S
C1232 H1251 0.913 . S
C1233 H1209 0.950 . S
C1233 C1232 1.524 . S
C1233 C1234 1.415 . S
C1234 H1210 0.950 . S
C1234 C1229 1.363 . S
C1234 C1233 1.415 . S
C1235 H1211 0.951 . S
C1235 C1236 1.366 . S
C1235 C1237 1.388 . S
C1236 C1235 1.366 . S
C1236 C1240 1.385 . S
C1237 H1212 0.951 . S
C1237 C1235 1.388 . S
C1237 C1238 1.366 . S
C1238 C1237 1.366 . S
C1238 C1239 1.414 . S
C1238 C1241 1.499 . S
C1239 H1213 0.950 . S
C1239 C1238 1.414 . S
C1239 C1240 1.374 . S
C1240 H1214 0.950 . S
C1240 C1236 1.385 . S
C1240 C1239 1.374 . S
C1241 C1238 1.499 . S
C1241 C1242 1.373 . S
C1241 C1243 1.389 . S
C1242 H1215 0.950 . S
C1242 C1228 1.377 . S
C1242 C1241 1.373 . S
C1243 C1227 1.377 . S
C1243 C1241 1.389 . S
C1243 C1244 1.524 . S
C1244 C1243 1.524 . S
C1244 C1245 1.397 . S
C1244 C1249 1.363 . S
C1245 H1216 0.950 . S
C1245 C1244 1.397 . S
C1245 C1246 1.334 . S
C1246 H1217 0.950 . S
C1246 C1245 1.334 . S
C1246 C1247 1.287 . S
C1247 C1246 1.287 . S
C1247 C1248 1.524 . S
C1247 H1250 0.999 . S
C1248 H1218 0.950 . S
C1248 C1247 1.524 . S
C1248 C1249 1.415 . S
C1249 H1219 0.950 . S
C1249 C1244 1.363 . S
C1249 C1248 1.415 . S
H1250 C1247 0.999 . S
H1251 C1232 0.913 . S
H1252 C1270 0.951 . S
H1253 C1272 0.951 . S
H1254 C1274 0.950 . S
H1255 C1275 0.950 . S
H1256 C1277 0.950 1_554 S
H1257 C1280 0.950 . S
H1258 C1281 0.950 . S
H1259 C1283 0.950 . S
H1260 C1284 0.950 . S
H1261 C1285 0.951 . S
H1262 C1287 0.951 . S
H1263 C1289 0.950 . S
H1264 C1290 0.950 . S
H1265 C1292 0.950 . S
H1266 C1295 0.950 . S
H1267 C1296 0.950 . S
H1268 C1298 0.950 . S
H1269 C1299 0.950 . S
C1270 H1252 0.951 . S
C1270 C1271 1.366 . S
C1270 C1272 1.388 . S
C1271 C1270 1.366 . S
C1271 C1275 1.385 . S
C1272 H1253 0.951 . S
C1272 C1270 1.388 . S
C1272 C1273 1.366 . S
C1273 C1272 1.366 . S
C1273 C1274 1.414 . S
C1273 C1276 1.499 1_554 S
C1274 H1254 0.950 . S
C1274 C1273 1.414 . S
C1274 C1275 1.374 . S
C1275 H1255 0.950 . S
C1275 C1271 1.385 . S
C1275 C1274 1.374 . S
C1276 C1273 1.499 1_556 S
C1276 C1277 1.373 . S
C1276 C1278 1.389 . S
C1277 H1256 0.950 1_556 S
C1277 C1276 1.373 . S
C1277 C1293 1.377 . S
C1278 C1276 1.389 . S
C1278 C1279 1.524 . S
C1278 C1292 1.377 . S
C1279 C1278 1.524 . S
C1279 C1280 1.397 . S
C1279 C1284 1.363 . S
C1280 H1257 0.950 . S
C1280 C1279 1.397 . S
C1280 C1281 1.334 . S
C1281 H1258 0.950 . S
C1281 C1280 1.334 . S
C1281 C1282 1.287 . S
C1282 C1281 1.287 . S
C1282 C1283 1.524 . S
C1282 H1301 0.913 . S
C1283 H1259 0.950 . S
C1283 C1282 1.524 . S
C1283 C1284 1.415 . S
C1284 H1260 0.950 . S
C1284 C1279 1.363 . S
C1284 C1283 1.415 . S
C1285 H1261 0.951 . S
C1285 C1286 1.366 . S
C1285 C1287 1.388 . S
C1286 C1285 1.366 . S
C1286 C1290 1.385 . S
C1287 H1262 0.951 . S
C1287 C1285 1.388 . S
C1287 C1288 1.366 . S
C1288 C1287 1.366 . S
C1288 C1289 1.414 . S
C1288 C1291 1.499 . S
C1289 H1263 0.950 . S
C1289 C1288 1.414 . S
C1289 C1290 1.374 . S
C1290 H1264 0.950 . S
C1290 C1286 1.385 . S
C1290 C1289 1.374 . S
C1291 C1288 1.499 . S
C1291 C1292 1.373 . S
C1291 C1293 1.389 . S
C1292 H1265 0.950 . S
C1292 C1278 1.377 . S
C1292 C1291 1.373 . S
C1293 C1277 1.377 . S
C1293 C1291 1.389 . S
C1293 C1294 1.524 . S
C1294 C1293 1.524 . S
C1294 C1295 1.397 . S
C1294 C1299 1.363 . S
C1295 H1266 0.950 . S
C1295 C1294 1.397 . S
C1295 C1296 1.334 . S
C1296 H1267 0.950 . S
C1296 C1295 1.334 . S
C1296 C1297 1.287 . S
C1297 C1296 1.287 . S
C1297 C1298 1.524 . S
C1297 H1300 0.999 . S
C1298 H1268 0.950 . S
C1298 C1297 1.524 . S
C1298 C1299 1.415 . S
C1299 H1269 0.950 . S
C1299 C1294 1.363 . S
C1299 C1298 1.415 . S
H1300 C1297 0.999 . S
H1301 C1282 0.913 . S
H1302 C1320 0.951 . S
H1303 C1322 0.951 . S
H1304 C1324 0.950 . S
H1305 C1325 0.950 . S
H1306 C1327 0.950 . S
H1307 C1330 0.950 . S
H1308 C1331 0.950 . S
H1309 C1333 0.950 . S
H1310 C1334 0.950 . S
H1311 C1335 0.951 . S
H1312 C1337 0.951 . S
H1313 C1339 0.950 . S
H1314 C1340 0.950 . S
H1315 C1342 0.950 . S
H1316 C1345 0.950 . S
H1317 C1346 0.950 . S
H1318 C1348 0.950 . S
H1319 C1349 0.950 . S
C1320 H1302 0.951 . S
C1320 C1321 1.366 . S
C1320 C1322 1.388 . S
C1321 C1320 1.366 . S
C1321 C1325 1.385 . S
C1322 H1303 0.951 . S
C1322 C1320 1.388 . S
C1322 C1323 1.366 . S
C1323 C1322 1.366 . S
C1323 C1324 1.414 . S
C1323 C1326 1.499 . S
C1324 H1304 0.950 . S
C1324 C1323 1.414 . S
C1324 C1325 1.374 . S
C1325 H1305 0.950 . S
C1325 C1321 1.385 . S
C1325 C1324 1.374 . S
C1326 C1323 1.499 . S
C1326 C1327 1.373 . S
C1326 C1328 1.389 . S
C1327 H1306 0.950 . S
C1327 C1326 1.373 . S
C1327 C1343 1.377 . S
C1328 C1326 1.389 . S
C1328 C1329 1.524 . S
C1328 C1342 1.377 . S
C1329 C1328 1.524 . S
C1329 C1330 1.397 . S
C1329 C1334 1.363 . S
C1330 H1307 0.950 . S
C1330 C1329 1.397 . S
C1330 C1331 1.334 . S
C1331 H1308 0.950 . S
C1331 C1330 1.334 . S
C1331 C1332 1.287 . S
C1332 C1331 1.287 . S
C1332 C1333 1.524 . S
C1332 H1351 0.913 . S
C1333 H1309 0.950 . S
C1333 C1332 1.524 . S
C1333 C1334 1.415 . S
C1334 H1310 0.950 . S
C1334 C1329 1.363 . S
C1334 C1333 1.415 . S
C1335 H1311 0.951 . S
C1335 C1336 1.366 . S
C1335 C1337 1.388 . S
C1336 C1335 1.366 . S
C1336 C1340 1.385 . S
C1337 H1312 0.951 . S
C1337 C1335 1.388 . S
C1337 C1338 1.366 . S
C1338 C1337 1.366 . S
C1338 C1339 1.414 . S
C1338 C1341 1.499 . S
C1339 H1313 0.950 . S
C1339 C1338 1.414 . S
C1339 C1340 1.374 . S
C1340 H1314 0.950 . S
C1340 C1336 1.385 . S
C1340 C1339 1.374 . S
C1341 C1338 1.499 . S
C1341 C1342 1.373 . S
C1341 C1343 1.389 . S
C1342 H1315 0.950 . S
C1342 C1328 1.377 . S
C1342 C1341 1.373 . S
C1343 C1327 1.377 . S
C1343 C1341 1.389 . S
C1343 C1344 1.524 . S
C1344 C1343 1.524 . S
C1344 C1345 1.397 . S
C1344 C1349 1.363 . S
C1345 H1316 0.950 . S
C1345 C1344 1.397 . S
C1345 C1346 1.334 . S
C1346 H1317 0.950 . S
C1346 C1345 1.334 . S
C1346 C1347 1.287 . S
C1347 C1346 1.287 . S
C1347 C1348 1.524 . S
C1347 H1350 0.999 . S
C1348 H1318 0.950 . S
C1348 C1347 1.524 . S
C1348 C1349 1.415 . S
C1349 H1319 0.950 . S
C1349 C1344 1.363 . S
C1349 C1348 1.415 . S
H1350 C1347 0.999 . S
H1351 C1332 0.913 . S
H1352 C1370 0.951 . S
H1353 C1372 0.951 . S
H1354 C1374 0.950 . S
H1355 C1375 0.950 . S
H1356 C1377 0.950 1_556 S
H1357 C1380 0.950 . S
H1358 C1381 0.950 . S
H1359 C1383 0.950 . S
H1360 C1384 0.950 . S
H1361 C1385 0.951 . S
H1362 C1387 0.951 . S
H1363 C1389 0.950 . S
H1364 C1390 0.950 . S
H1365 C1392 0.950 . S
H1366 C1395 0.950 . S
H1367 C1396 0.950 . S
H1368 C1398 0.950 . S
H1369 C1399 0.950 . S
C1370 H1352 0.951 . S
C1370 C1371 1.366 . S
C1370 C1372 1.388 . S
C1371 C1370 1.366 . S
C1371 C1375 1.385 . S
C1372 H1353 0.951 . S
C1372 C1370 1.388 . S
C1372 C1373 1.366 . S
C1373 C1372 1.366 . S
C1373 C1374 1.414 . S
C1373 C1376 1.499 1_556 S
C1374 H1354 0.950 . S
C1374 C1373 1.414 . S
C1374 C1375 1.374 . S
C1375 H1355 0.950 . S
C1375 C1371 1.385 . S
C1375 C1374 1.374 . S
C1376 C1373 1.499 1_554 S
C1376 C1377 1.373 . S
C1376 C1378 1.389 . S
C1377 H1356 0.950 1_554 S
C1377 C1376 1.373 . S
C1377 C1393 1.377 . S
C1378 C1376 1.389 . S
C1378 C1379 1.524 . S
C1378 C1392 1.377 . S
C1379 C1378 1.524 . S
C1379 C1380 1.397 . S
C1379 C1384 1.363 . S
C1380 H1357 0.950 . S
C1380 C1379 1.397 . S
C1380 C1381 1.334 . S
C1381 H1358 0.950 . S
C1381 C1380 1.334 . S
C1381 C1382 1.287 . S
C1382 C1381 1.287 . S
C1382 C1383 1.524 . S
C1382 H1401 0.913 . S
C1383 H1359 0.950 . S
C1383 C1382 1.524 . S
C1383 C1384 1.415 . S
C1384 H1360 0.950 . S
C1384 C1379 1.363 . S
C1384 C1383 1.415 . S
C1385 H1361 0.951 . S
C1385 C1386 1.366 . S
C1385 C1387 1.388 . S
C1386 C1385 1.366 . S
C1386 C1390 1.385 . S
C1387 H1362 0.951 . S
C1387 C1385 1.388 . S
C1387 C1388 1.366 . S
C1388 C1387 1.366 . S
C1388 C1389 1.414 . S
C1388 C1391 1.499 . S
C1389 H1363 0.950 . S
C1389 C1388 1.414 . S
C1389 C1390 1.374 . S
C1390 H1364 0.950 . S
C1390 C1386 1.385 . S
C1390 C1389 1.374 . S
C1391 C1388 1.499 . S
C1391 C1392 1.373 . S
C1391 C1393 1.389 . S
C1392 H1365 0.950 . S
C1392 C1378 1.377 . S
C1392 C1391 1.373 . S
C1393 C1377 1.377 . S
C1393 C1391 1.389 . S
C1393 C1394 1.524 . S
C1394 C1393 1.524 . S
C1394 C1395 1.397 . S
C1394 C1399 1.363 . S
C1395 H1366 0.950 . S
C1395 C1394 1.397 . S
C1395 C1396 1.334 . S
C1396 H1367 0.950 . S
C1396 C1395 1.334 . S
C1396 C1397 1.287 . S
C1397 C1396 1.287 . S
C1397 C1398 1.524 . S
C1397 H1400 0.999 . S
C1398 H1368 0.950 . S
C1398 C1397 1.524 . S
C1398 C1399 1.415 . S
C1399 H1369 0.950 . S
C1399 C1394 1.363 . S
C1399 C1398 1.415 . S
H1400 C1397 0.999 . S
H1401 C1382 0.913 . S
H1402 C1420 0.951 . S
H1403 C1422 0.951 . S
H1404 C1424 0.950 . S
H1405 C1425 0.950 . S
H1406 C1427 0.950 . S
H1407 C1430 0.950 . S
H1408 C1431 0.950 . S
H1409 C1433 0.950 . S
H1410 C1434 0.950 . S
H1411 C1435 0.951 . S
H1412 C1437 0.951 . S
H1413 C1439 0.950 . S
H1414 C1440 0.950 . S
H1415 C1442 0.950 . S
H1416 C1445 0.950 . S
H1417 C1446 0.950 . S
H1418 C1448 0.950 . S
H1419 C1449 0.950 . S
C1420 H1402 0.951 . S
C1420 C1421 1.366 . S
C1420 C1422 1.388 . S
C1421 C1420 1.366 . S
C1421 C1425 1.385 . S
C1422 H1403 0.951 . S
C1422 C1420 1.388 . S
C1422 C1423 1.366 . S
C1423 C1422 1.366 . S
C1423 C1424 1.414 . S
C1423 C1426 1.499 . S
C1424 H1404 0.950 . S
C1424 C1423 1.414 . S
C1424 C1425 1.374 . S
C1425 H1405 0.950 . S
C1425 C1421 1.385 . S
C1425 C1424 1.374 . S
C1426 C1423 1.499 . S
C1426 C1427 1.373 . S
C1426 C1428 1.389 . S
C1427 H1406 0.950 . S
C1427 C1426 1.373 . S
C1427 C1443 1.377 . S
C1428 C1426 1.389 . S
C1428 C1429 1.524 . S
C1428 C1442 1.377 . S
C1429 C1428 1.524 . S
C1429 C1430 1.397 . S
C1429 C1434 1.363 . S
C1430 H1407 0.950 . S
C1430 C1429 1.397 . S
C1430 C1431 1.334 . S
C1431 H1408 0.950 . S
C1431 C1430 1.334 . S
C1431 C1432 1.287 . S
C1432 C1431 1.287 . S
C1432 C1433 1.524 . S
C1432 H1451 0.913 . S
C1433 H1409 0.950 . S
C1433 C1432 1.524 . S
C1433 C1434 1.415 . S
C1434 H1410 0.950 . S
C1434 C1429 1.363 . S
C1434 C1433 1.415 . S
C1435 H1411 0.951 . S
C1435 C1436 1.366 . S
C1435 C1437 1.388 . S
C1436 C1435 1.366 . S
C1436 C1440 1.385 . S
C1437 H1412 0.951 . S
C1437 C1435 1.388 . S
C1437 C1438 1.366 . S
C1438 C1437 1.366 . S
C1438 C1439 1.414 . S
C1438 C1441 1.499 . S
C1439 H1413 0.950 . S
C1439 C1438 1.414 . S
C1439 C1440 1.374 . S
C1440 H1414 0.950 . S
C1440 C1436 1.385 . S
C1440 C1439 1.374 . S
C1441 C1438 1.499 . S
C1441 C1442 1.373 . S
C1441 C1443 1.389 . S
C1442 H1415 0.950 . S
C1442 C1428 1.377 . S
C1442 C1441 1.373 . S
C1443 C1427 1.377 . S
C1443 C1441 1.389 . S
C1443 C1444 1.524 . S
C1444 C1443 1.524 . S
C1444 C1445 1.397 . S
C1444 C1449 1.363 . S
C1445 H1416 0.950 . S
C1445 C1444 1.397 . S
C1445 C1446 1.334 . S
C1446 H1417 0.950 . S
C1446 C1445 1.334 . S
C1446 C1447 1.287 . S
C1447 C1446 1.287 . S
C1447 C1448 1.524 . S
C1447 H1450 0.999 . S
C1448 H1418 0.950 . S
C1448 C1447 1.524 . S
C1448 C1449 1.415 . S
C1449 H1419 0.950 . S
C1449 C1444 1.363 . S
C1449 C1448 1.415 . S
H1450 C1447 0.999 . S
H1451 C1432 0.913 . S
H1452 C1470 0.951 . S
H1453 C1472 0.951 . S
H1454 C1474 0.950 . S
H1455 C1475 0.950 . S
H1456 C1477 0.950 . S
H1457 C1480 0.950 . S
H1458 C1481 0.950 1_556 S
H1459 C1483 0.950 1_556 S
H1460 C1484 0.950 . S
H1461 C1485 0.951 . S
H1462 C1487 0.951 . S
H1463 C1489 0.950 . S
H1464 C1490 0.950 . S
H1465 C1492 0.950 . S
H1466 C1495 0.950 . S
H1467 C1496 0.950 . S
H1468 C1498 0.950 . S
H1469 C1499 0.950 . S
C1470 H1452 0.951 . S
C1470 C1471 1.366 . S
C1470 C1472 1.388 . S
C1471 C1470 1.366 . S
C1471 C1475 1.385 . S
C1472 H1453 0.951 . S
C1472 C1470 1.388 . S
C1472 C1473 1.366 . S
C1473 C1472 1.366 . S
C1473 C1474 1.414 . S
C1473 C1476 1.499 1_556 S
C1474 H1454 0.950 . S
C1474 C1473 1.414 . S
C1474 C1475 1.374 . S
C1475 H1455 0.950 . S
C1475 C1471 1.385 . S
C1475 C1474 1.374 . S
C1476 C1473 1.499 1_554 S
C1476 C1477 1.373 . S
C1476 C1478 1.389 . S
C1477 H1456 0.950 . S
C1477 C1476 1.373 . S
C1477 C1493 1.377 . S
C1478 C1476 1.389 . S
C1478 C1479 1.524 . S
C1478 C1492 1.377 . S
C1479 C1478 1.524 . S
C1479 C1480 1.397 . S
C1479 C1484 1.363 . S
C1480 H1457 0.950 . S
C1480 C1479 1.397 . S
C1480 C1481 1.334 . S
C1481 H1458 0.950 1_554 S
C1481 C1480 1.334 . S
C1481 C1482 1.287 1_554 S
C1482 C1481 1.287 1_556 S
C1482 C1483 1.524 1_556 S
C1482 H1501 0.913 . S
C1483 H1459 0.950 1_554 S
C1483 C1482 1.524 1_554 S
C1483 C1484 1.415 . S
C1484 H1460 0.950 . S
C1484 C1479 1.363 . S
C1484 C1483 1.415 . S
C1485 H1461 0.951 . S
C1485 C1486 1.366 . S
C1485 C1487 1.388 . S
C1486 C1485 1.366 . S
C1486 C1490 1.385 . S
C1487 H1462 0.951 . S
C1487 C1485 1.388 . S
C1487 C1488 1.366 . S
C1488 C1487 1.366 . S
C1488 C1489 1.414 . S
C1488 C1491 1.499 . S
C1489 H1463 0.950 . S
C1489 C1488 1.414 . S
C1489 C1490 1.374 . S
C1490 H1464 0.950 . S
C1490 C1486 1.385 . S
C1490 C1489 1.374 . S
C1491 C1488 1.499 . S
C1491 C1492 1.373 . S
C1491 C1493 1.389 . S
C1492 H1465 0.950 . S
C1492 C1478 1.377 . S
C1492 C1491 1.373 . S
C1493 C1477 1.377 . S
C1493 C1491 1.389 . S
C1493 C1494 1.524 . S
C1494 C1493 1.524 . S
C1494 C1495 1.397 . S
C1494 C1499 1.363 . S
C1495 H1466 0.950 . S
C1495 C1494 1.397 . S
C1495 C1496 1.334 . S
C1496 H1467 0.950 . S
C1496 C1495 1.334 . S
C1496 C1497 1.287 . S
C1497 C1496 1.287 . S
C1497 C1498 1.524 . S
C1497 H1500 0.999 . S
C1498 H1468 0.950 . S
C1498 C1497 1.524 . S
C1498 C1499 1.415 . S
C1499 H1469 0.950 . S
C1499 C1494 1.363 . S
C1499 C1498 1.415 . S
H1500 C1497 0.999 . S
H1501 C1482 0.913 . S
H1502 C1520 0.951 . S
H1503 C1522 0.951 . S
H1504 C1524 0.950 . S
H1505 C1525 0.950 . S
H1506 C1527 0.950 . S
H1507 C1530 0.950 . S
H1508 C1531 0.950 . S
H1509 C1533 0.950 . S
H1510 C1534 0.950 . S
H1511 C1535 0.951 . S
H1512 C1537 0.951 . S
H1513 C1539 0.950 . S
H1514 C1540 0.950 . S
H1515 C1542 0.950 . S
H1516 C1545 0.950 . S
H1517 C1546 0.950 . S
H1518 C1548 0.950 . S
H1519 C1549 0.950 . S
C1520 H1502 0.951 . S
C1520 C1521 1.366 . S
C1520 C1522 1.388 . S
C1521 C1520 1.366 . S
C1521 C1525 1.385 . S
C1522 H1503 0.951 . S
C1522 C1520 1.388 . S
C1522 C1523 1.366 . S
C1523 C1522 1.366 . S
C1523 C1524 1.414 . S
C1523 C1526 1.499 . S
C1524 H1504 0.950 . S
C1524 C1523 1.414 . S
C1524 C1525 1.374 . S
C1525 H1505 0.950 . S
C1525 C1521 1.385 . S
C1525 C1524 1.374 . S
C1526 C1523 1.499 . S
C1526 C1527 1.373 . S
C1526 C1528 1.389 . S
C1527 H1506 0.950 . S
C1527 C1526 1.373 . S
C1527 C1543 1.377 . S
C1528 C1526 1.389 . S
C1528 C1529 1.524 . S
C1528 C1542 1.377 . S
C1529 C1528 1.524 . S
C1529 C1530 1.397 . S
C1529 C1534 1.363 . S
C1530 H1507 0.950 . S
C1530 C1529 1.397 . S
C1530 C1531 1.334 . S
C1531 H1508 0.950 . S
C1531 C1530 1.334 . S
C1531 C1532 1.287 . S
C1532 C1531 1.287 . S
C1532 C1533 1.524 . S
C1532 H1551 0.913 . S
C1533 H1509 0.950 . S
C1533 C1532 1.524 . S
C1533 C1534 1.415 . S
C1534 H1510 0.950 . S
C1534 C1529 1.363 . S
C1534 C1533 1.415 . S
C1535 H1511 0.951 . S
C1535 C1536 1.366 . S
C1535 C1537 1.388 . S
C1536 C1535 1.366 . S
C1536 C1540 1.385 . S
C1537 H1512 0.951 . S
C1537 C1535 1.388 . S
C1537 C1538 1.366 . S
C1538 C1537 1.366 . S
C1538 C1539 1.414 . S
C1538 C1541 1.499 . S
C1539 H1513 0.950 . S
C1539 C1538 1.414 . S
C1539 C1540 1.374 . S
C1540 H1514 0.950 . S
C1540 C1536 1.385 . S
C1540 C1539 1.374 . S
C1541 C1538 1.499 . S
C1541 C1542 1.373 . S
C1541 C1543 1.389 . S
C1542 H1515 0.950 . S
C1542 C1528 1.377 . S
C1542 C1541 1.373 . S
C1543 C1527 1.377 . S
C1543 C1541 1.389 . S
C1543 C1544 1.524 . S
C1544 C1543 1.524 . S
C1544 C1545 1.397 . S
C1544 C1549 1.363 . S
C1545 H1516 0.950 . S
C1545 C1544 1.397 . S
C1545 C1546 1.334 . S
C1546 H1517 0.950 . S
C1546 C1545 1.334 . S
C1546 C1547 1.287 . S
C1547 C1546 1.287 . S
C1547 C1548 1.524 . S
C1547 H1550 0.999 . S
C1548 H1518 0.950 . S
C1548 C1547 1.524 . S
C1548 C1549 1.415 . S
C1549 H1519 0.950 . S
C1549 C1544 1.363 . S
C1549 C1548 1.415 . S
H1550 C1547 0.999 . S
H1551 C1532 0.913 . S
H1552 C1570 0.951 . S
H1553 C1572 0.951 . S
H1554 C1574 0.950 . S
H1555 C1575 0.950 . S
H1556 C1577 0.950 . S
H1557 C1580 0.950 . S
H1558 C1581 0.950 . S
H1559 C1583 0.950 . S
H1560 C1584 0.950 1_554 S
H1561 C1585 0.951 . S
H1562 C1587 0.951 . S
H1563 C1589 0.950 . S
H1564 C1590 0.950 . S
H1565 C1592 0.950 . S
H1566 C1595 0.950 . S
H1567 C1596 0.950 . S
H1568 C1598 0.950 . S
H1569 C1599 0.950 . S
C1570 H1552 0.951 . S
C1570 C1571 1.366 . S
C1570 C1572 1.388 . S
C1571 C1570 1.366 . S
C1571 C1575 1.385 . S
C1572 H1553 0.951 . S
C1572 C1570 1.388 . S
C1572 C1573 1.366 . S
C1573 C1572 1.366 . S
C1573 C1574 1.414 . S
C1573 C1576 1.499 1_556 S
C1574 H1554 0.950 . S
C1574 C1573 1.414 . S
C1574 C1575 1.374 . S
C1575 H1555 0.950 . S
C1575 C1571 1.385 . S
C1575 C1574 1.374 . S
C1576 C1573 1.499 1_554 S
C1576 C1577 1.373 . S
C1576 C1578 1.389 . S
C1577 H1556 0.950 . S
C1577 C1576 1.373 . S
C1577 C1593 1.377 . S
C1578 C1576 1.389 . S
C1578 C1579 1.524 1_554 S
C1578 C1592 1.377 . S
C1579 C1578 1.524 1_556 S
C1579 C1580 1.397 . S
C1579 C1584 1.363 . S
C1580 H1557 0.950 . S
C1580 C1579 1.397 . S
C1580 C1581 1.334 . S
C1581 H1558 0.950 . S
C1581 C1580 1.334 . S
C1581 C1582 1.287 . S
C1582 C1581 1.287 . S
C1582 C1583 1.524 . S
C1582 H1601 0.913 . S
C1583 H1559 0.950 . S
C1583 C1582 1.524 . S
C1583 C1584 1.415 . S
C1584 H1560 0.950 1_556 S
C1584 C1579 1.363 . S
C1584 C1583 1.415 . S
C1585 H1561 0.951 . S
C1585 C1586 1.366 . S
C1585 C1587 1.388 . S
C1586 C1585 1.366 . S
C1586 C1590 1.385 . S
C1587 H1562 0.951 . S
C1587 C1585 1.388 . S
C1587 C1588 1.366 . S
C1588 C1587 1.366 . S
C1588 C1589 1.414 . S
C1588 C1591 1.499 . S
C1589 H1563 0.950 . S
C1589 C1588 1.414 . S
C1589 C1590 1.374 . S
C1590 H1564 0.950 . S
C1590 C1586 1.385 . S
C1590 C1589 1.374 . S
C1591 C1588 1.499 . S
C1591 C1592 1.373 . S
C1591 C1593 1.389 . S
C1592 H1565 0.950 . S
C1592 C1578 1.377 . S
C1592 C1591 1.373 . S
C1593 C1577 1.377 . S
C1593 C1591 1.389 . S
C1593 C1594 1.524 . S
C1594 C1593 1.524 . S
C1594 C1595 1.397 . S
C1594 C1599 1.363 . S
C1595 H1566 0.950 . S
C1595 C1594 1.397 . S
C1595 C1596 1.334 . S
C1596 H1567 0.950 . S
C1596 C1595 1.334 . S
C1596 C1597 1.287 . S
C1597 C1596 1.287 . S
C1597 C1598 1.524 . S
C1597 H1600 0.999 . S
C1598 H1568 0.950 . S
C1598 C1597 1.524 . S
C1598 C1599 1.415 . S
C1599 H1569 0.950 . S
C1599 C1594 1.363 . S
C1599 C1598 1.415 . S
H1600 C1597 0.999 . S
H1601 C1582 0.913 . S
H1602 C1620 0.951 . S
H1603 C1622 0.951 . S
H1604 C1624 0.950 . S
H1605 C1625 0.950 . S
H1606 C1627 0.950 . S
H1607 C1630 0.950 . S
H1608 C1631 0.950 . S
H1609 C1633 0.950 . S
H1610 C1634 0.950 . S
H1611 C1635 0.951 . S
H1612 C1637 0.951 . S
H1613 C1639 0.950 . S
H1614 C1640 0.950 . S
H1615 C1642 0.950 . S
H1616 C1645 0.950 . S
H1617 C1646 0.950 . S
H1618 C1648 0.950 . S
H1619 C1649 0.950 . S
C1620 H1602 0.951 . S
C1620 C1621 1.366 . S
C1620 C1622 1.388 . S
C1621 C1620 1.366 . S
C1621 C1625 1.385 . S
C1622 H1603 0.951 . S
C1622 C1620 1.388 . S
C1622 C1623 1.366 . S
C1623 C1622 1.366 . S
C1623 C1624 1.414 . S
C1623 C1626 1.499 . S
C1624 H1604 0.950 . S
C1624 C1623 1.414 . S
C1624 C1625 1.374 . S
C1625 H1605 0.950 . S
C1625 C1621 1.385 . S
C1625 C1624 1.374 . S
C1626 C1623 1.499 . S
C1626 C1627 1.373 . S
C1626 C1628 1.389 . S
C1627 H1606 0.950 . S
C1627 C1626 1.373 . S
C1627 C1643 1.377 . S
C1628 C1626 1.389 . S
C1628 C1629 1.524 . S
C1628 C1642 1.377 . S
C1629 C1628 1.524 . S
C1629 C1630 1.397 . S
C1629 C1634 1.363 . S
C1630 H1607 0.950 . S
C1630 C1629 1.397 . S
C1630 C1631 1.334 . S
C1631 H1608 0.950 . S
C1631 C1630 1.334 . S
C1631 C1632 1.287 . S
C1632 C1631 1.287 . S
C1632 C1633 1.524 . S
C1632 H1651 0.913 . S
C1633 H1609 0.950 . S
C1633 C1632 1.524 . S
C1633 C1634 1.415 . S
C1634 H1610 0.950 . S
C1634 C1629 1.363 . S
C1634 C1633 1.415 . S
C1635 H1611 0.951 . S
C1635 C1636 1.366 . S
C1635 C1637 1.388 . S
C1636 C1635 1.366 . S
C1636 C1640 1.385 . S
C1637 H1612 0.951 . S
C1637 C1635 1.388 . S
C1637 C1638 1.366 . S
C1638 C1637 1.366 . S
C1638 C1639 1.414 . S
C1638 C1641 1.499 . S
C1639 H1613 0.950 . S
C1639 C1638 1.414 . S
C1639 C1640 1.374 . S
C1640 H1614 0.950 . S
C1640 C1636 1.385 . S
C1640 C1639 1.374 . S
C1641 C1638 1.499 . S
C1641 C1642 1.373 . S
C1641 C1643 1.389 . S
C1642 H1615 0.950 . S
C1642 C1628 1.377 . S
C1642 C1641 1.373 . S
C1643 C1627 1.377 . S
C1643 C1641 1.389 . S
C1643 C1644 1.524 . S
C1644 C1643 1.524 . S
C1644 C1645 1.397 . S
C1644 C1649 1.363 . S
C1645 H1616 0.950 . S
C1645 C1644 1.397 . S
C1645 C1646 1.334 . S
C1646 H1617 0.950 . S
C1646 C1645 1.334 . S
C1646 C1647 1.287 . S
C1647 C1646 1.287 . S
C1647 C1648 1.524 . S
C1647 H1650 0.999 . S
C1648 H1618 0.950 . S
C1648 C1647 1.524 . S
C1648 C1649 1.415 . S
C1649 H1619 0.950 . S
C1649 C1644 1.363 . S
C1649 C1648 1.415 . S
H1650 C1647 0.999 . S
H1651 C1632 0.913 . S
H1652 C1670 0.951 . S
H1653 C1672 0.951 . S
H1654 C1674 0.950 . S
H1655 C1675 0.950 . S
H1656 C1677 0.950 . S
H1657 C1680 0.950 . S
H1658 C1681 0.950 . S
H1659 C1683 0.950 . S
H1660 C1684 0.950 . S
H1661 C1685 0.951 . S
H1662 C1687 0.951 . S
H1663 C1689 0.950 . S
H1664 C1690 0.950 . S
H1665 C1692 0.950 . S
H1666 C1695 0.950 . S
H1667 C1696 0.950 . S
H1668 C1698 0.950 . S
H1669 C1699 0.950 . S
C1670 H1652 0.951 . S
C1670 C1671 1.366 . S
C1670 C1672 1.388 . S
C1671 C1670 1.366 . S
C1671 C1675 1.385 . S
C1672 H1653 0.951 . S
C1672 C1670 1.388 . S
C1672 C1673 1.366 . S
C1673 C1672 1.366 . S
C1673 C1674 1.414 . S
C1673 C1676 1.499 1_556 S
C1674 H1654 0.950 . S
C1674 C1673 1.414 . S
C1674 C1675 1.374 . S
C1675 H1655 0.950 . S
C1675 C1671 1.385 . S
C1675 C1674 1.374 . S
C1676 C1673 1.499 1_554 S
C1676 C1677 1.373 . S
C1676 C1678 1.389 . S
C1677 H1656 0.950 . S
C1677 C1676 1.373 . S
C1677 C1693 1.377 . S
C1678 C1676 1.389 . S
C1678 C1679 1.524 1_554 S
C1678 C1692 1.377 . S
C1679 C1678 1.524 1_556 S
C1679 C1680 1.397 . S
C1679 C1684 1.363 . S
C1680 H1657 0.950 . S
C1680 C1679 1.397 . S
C1680 C1681 1.334 . S
C1681 H1658 0.950 . S
C1681 C1680 1.334 . S
C1681 C1682 1.287 . S
C1682 C1681 1.287 . S
C1682 C1683 1.524 . S
C1682 H1701 0.913 . S
C1683 H1659 0.950 . S
C1683 C1682 1.524 . S
C1683 C1684 1.415 . S
C1684 H1660 0.950 . S
C1684 C1679 1.363 . S
C1684 C1683 1.415 . S
C1685 H1661 0.951 . S
C1685 C1686 1.366 . S
C1685 C1687 1.388 . S
C1686 C1685 1.366 . S
C1686 C1690 1.385 . S
C1687 H1662 0.951 . S
C1687 C1685 1.388 . S
C1687 C1688 1.366 . S
C1688 C1687 1.366 . S
C1688 C1689 1.414 . S
C1688 C1691 1.499 . S
C1689 H1663 0.950 . S
C1689 C1688 1.414 . S
C1689 C1690 1.374 . S
C1690 H1664 0.950 . S
C1690 C1686 1.385 . S
C1690 C1689 1.374 . S
C1691 C1688 1.499 . S
C1691 C1692 1.373 . S
C1691 C1693 1.389 . S
C1692 H1665 0.950 . S
C1692 C1678 1.377 . S
C1692 C1691 1.373 . S
C1693 C1677 1.377 . S
C1693 C1691 1.389 . S
C1693 C1694 1.524 . S
C1694 C1693 1.524 . S
C1694 C1695 1.397 . S
C1694 C1699 1.363 . S
C1695 H1666 0.950 . S
C1695 C1694 1.397 . S
C1695 C1696 1.334 . S
C1696 H1667 0.950 . S
C1696 C1695 1.334 . S
C1696 C1697 1.287 . S
C1697 C1696 1.287 . S
C1697 C1698 1.524 . S
C1697 H1700 0.999 . S
C1698 H1668 0.950 . S
C1698 C1697 1.524 . S
C1698 C1699 1.415 . S
C1699 H1669 0.950 . S
C1699 C1694 1.363 . S
C1699 C1698 1.415 . S
H1700 C1697 0.999 . S
H1701 C1682 0.913 . S
H1702 C1720 0.951 . S
H1703 C1722 0.951 . S
H1704 C1724 0.950 . S
H1705 C1725 0.950 . S
H1706 C1727 0.950 . S
H1707 C1730 0.950 . S
H1708 C1731 0.950 . S
H1709 C1733 0.950 . S
H1710 C1734 0.950 . S
H1711 C1735 0.951 . S
H1712 C1737 0.951 . S
H1713 C1739 0.950 . S
H1714 C1740 0.950 . S
H1715 C1742 0.950 . S
H1716 C1745 0.950 . S
H1717 C1746 0.950 . S
H1718 C1748 0.983 . S
H1719 C1749 0.950 . S
C1720 H1702 0.951 . S
C1720 C1721 1.366 . S
C1720 C1722 1.388 . S
C1721 C1720 1.366 . S
C1721 C1725 1.385 . S
C1722 H1703 0.951 . S
C1722 C1720 1.388 . S
C1722 C1723 1.366 . S
C1723 C1722 1.366 . S
C1723 C1724 1.414 . S
C1723 C1726 1.499 . S
C1724 H1704 0.950 . S
C1724 C1723 1.414 . S
C1724 C1725 1.374 . S
C1725 H1705 0.950 . S
C1725 C1721 1.385 . S
C1725 C1724 1.374 . S
C1726 C1723 1.499 . S
C1726 C1727 1.373 . S
C1726 C1728 1.389 . S
C1727 H1706 0.950 . S
C1727 C1726 1.373 . S
C1727 C1743 1.377 . S
C1728 C1726 1.389 . S
C1728 C1729 1.524 . S
C1728 C1742 1.377 . S
C1729 C1728 1.524 . S
C1729 C1730 1.397 . S
C1729 C1734 1.363 . S
C1730 H1707 0.950 . S
C1730 C1729 1.397 . S
C1730 C1731 1.334 . S
C1731 H1708 0.950 . S
C1731 C1730 1.334 . S
C1731 C1732 1.287 . S
C1732 C1731 1.287 . S
C1732 C1733 1.524 . S
C1732 H1751 0.913 . S
C1733 H1709 0.950 . S
C1733 C1732 1.524 . S
C1733 C1734 1.415 . S
C1734 H1710 0.950 . S
C1734 C1729 1.363 . S
C1734 C1733 1.415 . S
C1735 H1711 0.951 . S
C1735 C1736 1.366 . S
C1735 C1737 1.388 . S
C1736 C1735 1.366 . S
C1736 C1740 1.385 . S
C1737 H1712 0.951 . S
C1737 C1735 1.388 . S
C1737 C1738 1.366 . S
C1738 C1737 1.366 . S
C1738 C1739 1.414 . S
C1738 C1741 1.499 . S
C1739 H1713 0.950 . S
C1739 C1738 1.414 . S
C1739 C1740 1.374 . S
C1740 H1714 0.950 . S
C1740 C1736 1.385 . S
C1740 C1739 1.374 . S
C1741 C1738 1.499 . S
C1741 C1742 1.373 . S
C1741 C1743 1.389 . S
C1742 H1715 0.950 . S
C1742 C1728 1.377 . S
C1742 C1741 1.373 . S
C1743 C1727 1.377 . S
C1743 C1741 1.389 . S
C1743 C1744 1.524 . S
C1744 C1743 1.524 . S
C1744 C1745 1.397 . S
C1744 C1749 1.363 . S
C1745 H1716 0.950 . S
C1745 C1744 1.397 . S
C1745 C1746 1.334 . S
C1746 H1717 0.950 . S
C1746 C1745 1.334 . S
C1746 C1747 1.287 . S
C1747 C1746 1.287 . S
C1747 C1748 1.524 . S
C1747 H1750 1.014 . S
C1748 H1718 0.983 . S
C1748 C1747 1.524 . S
C1748 C1749 1.415 . S
C1749 H1719 0.950 . S
C1749 C1744 1.363 . S
C1749 C1748 1.415 . S
H1750 C1747 1.014 . S
H1751 C1732 0.913 . S
H1752 C1770 0.951 . S
H1753 C1772 0.951 . S
H1754 C1774 0.950 . S
H1755 C1775 0.950 . S
H1756 C1777 0.950 . S
H1757 C1780 0.950 . S
H1758 C1781 0.950 . S
H1759 C1783 0.950 . S
H1760 C1784 0.950 . S
H1761 C1785 0.951 . S
H1762 C1787 0.951 . S
H1763 C1789 0.950 . S
H1764 C1790 0.950 . S
H1765 C1792 0.950 1_554 S
H1766 C1795 0.950 . S
H1767 C1796 0.954 . S
H1768 C1798 0.950 . S
H1769 C1799 0.950 . S
C1770 H1752 0.951 . S
C1770 C1771 1.366 . S
C1770 C1772 1.388 . S
C1771 C1770 1.366 . S
C1771 C1775 1.385 . S
C1772 H1753 0.951 . S
C1772 C1770 1.388 . S
C1772 C1773 1.366 . S
C1773 C1772 1.366 . S
C1773 C1774 1.414 . S
C1773 C1776 1.499 . S
C1774 H1754 0.950 . S
C1774 C1773 1.414 . S
C1774 C1775 1.374 . S
C1775 H1755 0.950 . S
C1775 C1771 1.385 . S
C1775 C1774 1.374 . S
C1776 C1773 1.499 . S
C1776 C1777 1.373 . S
C1776 C1778 1.389 . S
C1777 H1756 0.950 . S
C1777 C1776 1.373 . S
C1777 C1793 1.377 . S
C1778 C1776 1.389 . S
C1778 C1779 1.524 . S
C1778 C1792 1.377 . S
C1779 C1778 1.524 . S
C1779 C1780 1.397 . S
C1779 C1784 1.363 . S
C1780 H1757 0.950 . S
C1780 C1779 1.397 . S
C1780 C1781 1.334 . S
C1781 H1758 0.950 . S
C1781 C1780 1.334 . S
C1781 C1782 1.287 . S
C1782 C1781 1.287 . S
C1782 C1783 1.524 . S
C1782 H1801 0.913 . S
C1783 H1759 0.950 . S
C1783 C1782 1.524 . S
C1783 C1784 1.415 . S
C1784 H1760 0.950 . S
C1784 C1779 1.363 . S
C1784 C1783 1.415 . S
C1785 H1761 0.951 . S
C1785 C1786 1.366 . S
C1785 C1787 1.388 . S
C1786 C1785 1.366 . S
C1786 C1790 1.385 . S
C1787 H1762 0.951 . S
C1787 C1785 1.388 . S
C1787 C1788 1.366 . S
C1788 C1787 1.366 . S
C1788 C1789 1.414 . S
C1788 C1791 1.499 1_554 S
C1789 H1763 0.950 . S
C1789 C1788 1.414 . S
C1789 C1790 1.374 . S
C1790 H1764 0.950 . S
C1790 C1786 1.385 . S
C1790 C1789 1.374 . S
C1791 C1788 1.499 1_556 S
C1791 C1792 1.373 . S
C1791 C1793 1.389 . S
C1792 H1765 0.950 1_556 S
C1792 C1778 1.377 . S
C1792 C1791 1.373 . S
C1793 C1777 1.377 . S
C1793 C1791 1.389 . S
C1793 C1794 1.524 . S
C1794 C1793 1.524 . S
C1794 C1795 1.397 . S
C1794 C1799 1.363 . S
C1795 H1766 0.950 . S
C1795 C1794 1.397 . S
C1795 C1796 1.334 . S
C1796 H1767 0.954 . S
C1796 C1795 1.334 . S
C1796 C1797 1.287 . S
C1797 C1796 1.287 . S
C1797 C1798 1.524 . S
C1797 H1800 0.999 . S
C1798 H1768 0.950 . S
C1798 C1797 1.524 . S
C1798 C1799 1.415 . S
C1799 H1769 0.950 . S
C1799 C1794 1.363 . S
C1799 C1798 1.415 . S
H1800 C1797 0.999 . S
H1801 C1782 0.913 . S
H1802 C1820 0.951 . S
H1803 C1822 0.951 . S
H1804 C1824 0.950 . S
H1805 C1825 0.950 . S
H1806 C1827 0.950 . S
H1807 C1830 0.950 . S
H1808 C1831 0.950 . S
H1809 C1833 0.950 . S
H1810 C1834 0.950 . S
H1811 C1835 0.951 . S
H1812 C1837 0.951 . S
H1813 C1839 0.950 . S
H1814 C1840 0.950 . S
H1815 C1842 0.950 . S
H1816 C1845 0.950 . S
H1817 C1846 0.950 . S
H1818 C1848 0.950 . S
H1819 C1849 0.950 . S
C1820 H1802 0.951 . S
C1820 C1821 1.366 . S
C1820 C1822 1.388 . S
C1821 C1820 1.366 . S
C1821 C1825 1.385 . S
C1822 H1803 0.951 . S
C1822 C1820 1.388 . S
C1822 C1823 1.366 . S
C1823 C1822 1.366 . S
C1823 C1824 1.414 . S
C1823 C1826 1.499 . S
C1824 H1804 0.950 . S
C1824 C1823 1.414 . S
C1824 C1825 1.374 . S
C1825 H1805 0.950 . S
C1825 C1821 1.385 . S
C1825 C1824 1.374 . S
C1826 C1823 1.499 . S
C1826 C1827 1.373 . S
C1826 C1828 1.389 . S
C1827 H1806 0.950 . S
C1827 C1826 1.373 . S
C1827 C1843 1.377 . S
C1828 C1826 1.389 . S
C1828 C1829 1.524 . S
C1828 C1842 1.377 . S
C1829 C1828 1.524 . S
C1829 C1830 1.397 . S
C1829 C1834 1.363 . S
C1830 H1807 0.950 . S
C1830 C1829 1.397 . S
C1830 C1831 1.334 . S
C1831 H1808 0.950 . S
C1831 C1830 1.334 . S
C1831 C1832 1.287 . S
C1832 C1831 1.287 . S
C1832 C1833 1.524 . S
C1832 H1851 0.913 . S
C1833 H1809 0.950 . S
C1833 C1832 1.524 . S
C1833 C1834 1.415 . S
C1834 H1810 0.950 . S
C1834 C1829 1.363 . S
C1834 C1833 1.415 . S
C1835 H1811 0.951 . S
C1835 C1836 1.366 . S
C1835 C1837 1.388 . S
C1836 C1835 1.366 . S
C1836 C1840 1.385 . S
C1837 H1812 0.951 . S
C1837 C1835 1.388 . S
C1837 C1838 1.366 . S
C1838 C1837 1.366 . S
C1838 C1839 1.414 . S
C1838 C1841 1.499 . S
C1839 H1813 0.950 . S
C1839 C1838 1.414 . S
C1839 C1840 1.374 . S
C1840 H1814 0.950 . S
C1840 C1836 1.385 . S
C1840 C1839 1.374 . S
C1841 C1838 1.499 . S
C1841 C1842 1.373 . S
C1841 C1843 1.389 . S
C1842 H1815 0.950 . S
C1842 C1828 1.377 . S
C1842 C1841 1.373 . S
C1843 C1827 1.377 . S
C1843 C1841 1.389 . S
C1843 C1844 1.524 . S
C1844 C1843 1.524 . S
C1844 C1845 1.397 . S
C1844 C1849 1.363 . S
C1845 H1816 0.950 . S
C1845 C1844 1.397 . S
C1845 C1846 1.334 . S
C1846 H1817 0.950 . S
C1846 C1845 1.334 . S
C1846 C1847 1.287 . S
C1847 C1846 1.287 . S
C1847 C1848 1.524 . S
C1847 H1850 0.999 . S
C1848 H1818 0.950 . S
C1848 C1847 1.524 . S
C1848 C1849 1.415 . S
C1849 H1819 0.950 . S
C1849 C1844 1.363 . S
C1849 C1848 1.415 . S
H1850 C1847 0.999 . S
H1851 C1832 0.913 . S
H1852 C1870 0.951 . S
H1853 C1872 0.951 . S
H1854 C1874 0.950 . S
H1855 C1875 0.950 . S
H1856 C1877 0.950 . S
H1857 C1880 0.950 . S
H1858 C1881 0.950 . S
H1859 C1883 0.950 . S
H1860 C1884 0.950 . S
H1861 C1885 0.951 . S
H1862 C1887 0.951 . S
H1863 C1889 0.950 . S
H1864 C1890 0.950 . S
H1865 C1892 0.950 . S
H1866 C1895 0.950 1_554 S
H1867 C1896 0.950 . S
H1868 C1898 0.950 . S
H1869 C1899 0.950 . S
C1870 H1852 0.951 . S
C1870 C1871 1.366 . S
C1870 C1872 1.388 . S
C1871 C1870 1.366 . S
C1871 C1875 1.385 . S
C1872 H1853 0.951 . S
C1872 C1870 1.388 . S
C1872 C1873 1.366 . S
C1873 C1872 1.366 . S
C1873 C1874 1.414 . S
C1873 C1876 1.499 . S
C1874 H1854 0.950 . S
C1874 C1873 1.414 . S
C1874 C1875 1.374 . S
C1875 H1855 0.950 . S
C1875 C1871 1.385 . S
C1875 C1874 1.374 . S
C1876 C1873 1.499 . S
C1876 C1877 1.373 . S
C1876 C1878 1.389 . S
C1877 H1856 0.950 . S
C1877 C1876 1.373 . S
C1877 C1893 1.377 . S
C1878 C1876 1.389 . S
C1878 C1879 1.524 . S
C1878 C1892 1.377 . S
C1879 C1878 1.524 . S
C1879 C1880 1.397 . S
C1879 C1884 1.363 . S
C1880 H1857 0.950 . S
C1880 C1879 1.397 . S
C1880 C1881 1.334 . S
C1881 H1858 0.950 . S
C1881 C1880 1.334 . S
C1881 C1882 1.287 . S
C1882 C1881 1.287 . S
C1882 C1883 1.524 . S
C1882 H1901 0.913 . S
C1883 H1859 0.950 . S
C1883 C1882 1.524 . S
C1883 C1884 1.415 . S
C1884 H1860 0.950 . S
C1884 C1879 1.363 . S
C1884 C1883 1.415 . S
C1885 H1861 0.951 . S
C1885 C1886 1.366 . S
C1885 C1887 1.388 . S
C1886 C1885 1.366 . S
C1886 C1890 1.385 . S
C1887 H1862 0.951 . S
C1887 C1885 1.388 . S
C1887 C1888 1.366 . S
C1888 C1887 1.366 . S
C1888 C1889 1.414 . S
C1888 C1891 1.499 1_554 S
C1889 H1863 0.950 . S
C1889 C1888 1.414 . S
C1889 C1890 1.374 . S
C1890 H1864 0.950 . S
C1890 C1886 1.385 . S
C1890 C1889 1.374 . S
C1891 C1888 1.499 1_556 S
C1891 C1892 1.373 . S
C1891 C1893 1.389 . S
C1892 H1865 0.950 . S
C1892 C1878 1.377 . S
C1892 C1891 1.373 . S
C1893 C1877 1.377 . S
C1893 C1891 1.389 . S
C1893 C1894 1.524 . S
C1894 C1893 1.524 . S
C1894 C1895 1.397 . S
C1894 C1899 1.363 . S
C1895 H1866 0.950 1_556 S
C1895 C1894 1.397 . S
C1895 C1896 1.334 1_556 S
C1896 H1867 0.950 . S
C1896 C1895 1.334 1_554 S
C1896 C1897 1.287 1_554 S
C1897 C1896 1.287 1_556 S
C1897 C1898 1.524 . S
C1897 H1900 0.999 . S
C1898 H1868 0.950 . S
C1898 C1897 1.524 . S
C1898 C1899 1.415 . S
C1899 H1869 0.950 . S
C1899 C1894 1.363 . S
C1899 C1898 1.415 . S
H1900 C1897 0.999 . S
H1901 C1882 0.913 . S
H1902 C1920 0.951 . S
H1903 C1922 0.951 . S
H1904 C1924 0.950 . S
H1905 C1925 0.950 . S
H1906 C1927 0.950 . S
H1907 C1930 0.950 . S
H1908 C1931 0.950 . S
H1909 C1933 0.950 . S
H1910 C1934 0.950 . S
H1911 C1935 0.951 . S
H1912 C1937 0.951 . S
H1913 C1939 0.950 . S
H1914 C1940 0.950 . S
H1915 C1942 0.950 . S
H1916 C1945 0.950 . S
H1917 C1946 0.950 . S
H1918 C1948 0.950 . S
H1919 C1949 0.950 . S
C1920 H1902 0.951 . S
C1920 C1921 1.366 . S
C1920 C1922 1.388 . S
C1921 C1920 1.366 . S
C1921 C1925 1.385 . S
C1922 H1903 0.951 . S
C1922 C1920 1.388 . S
C1922 C1923 1.366 . S
C1923 C1922 1.366 . S
C1923 C1924 1.414 . S
C1923 C1926 1.499 . S
C1924 H1904 0.950 . S
C1924 C1923 1.414 . S
C1924 C1925 1.374 . S
C1925 H1905 0.950 . S
C1925 C1921 1.385 . S
C1925 C1924 1.374 . S
C1926 C1923 1.499 . S
C1926 C1927 1.373 . S
C1926 C1928 1.389 . S
C1927 H1906 0.950 . S
C1927 C1926 1.373 . S
C1927 C1943 1.377 . S
C1928 C1926 1.389 . S
C1928 C1929 1.524 . S
C1928 C1942 1.377 . S
C1929 C1928 1.524 . S
C1929 C1930 1.397 . S
C1929 C1934 1.363 . S
C1930 H1907 0.950 . S
C1930 C1929 1.397 . S
C1930 C1931 1.334 . S
C1931 H1908 0.950 . S
C1931 C1930 1.334 . S
C1931 C1932 1.287 . S
C1932 C1931 1.287 . S
C1932 C1933 1.524 . S
C1932 H1951 0.913 . S
C1933 H1909 0.950 . S
C1933 C1932 1.524 . S
C1933 C1934 1.415 . S
C1934 H1910 0.950 . S
C1934 C1929 1.363 . S
C1934 C1933 1.415 . S
C1935 H1911 0.951 . S
C1935 C1936 1.366 . S
C1935 C1937 1.388 . S
C1936 C1935 1.366 . S
C1936 C1940 1.385 . S
C1937 H1912 0.951 . S
C1937 C1935 1.388 . S
C1937 C1938 1.366 . S
C1938 C1937 1.366 . S
C1938 C1939 1.414 . S
C1938 C1941 1.499 . S
C1939 H1913 0.950 . S
C1939 C1938 1.414 . S
C1939 C1940 1.374 . S
C1940 H1914 0.950 . S
C1940 C1936 1.385 . S
C1940 C1939 1.374 . S
C1941 C1938 1.499 . S
C1941 C1942 1.373 . S
C1941 C1943 1.389 . S
C1942 H1915 0.950 . S
C1942 C1928 1.377 . S
C1942 C1941 1.373 . S
C1943 C1927 1.377 . S
C1943 C1941 1.389 . S
C1943 C1944 1.524 . S
C1944 C1943 1.524 . S
C1944 C1945 1.397 . S
C1944 C1949 1.363 . S
C1945 H1916 0.950 . S
C1945 C1944 1.397 . S
C1945 C1946 1.334 . S
C1946 H1917 0.950 . S
C1946 C1945 1.334 . S
C1946 C1947 1.287 . S
C1947 C1946 1.287 . S
C1947 C1948 1.524 . S
C1947 H1950 0.999 . S
C1948 H1918 0.950 . S
C1948 C1947 1.524 . S
C1948 C1949 1.415 . S
C1949 H1919 0.950 . S
C1949 C1944 1.363 . S
C1949 C1948 1.415 . S
H1950 C1947 0.999 . S
H1951 C1932 0.913 . S
H1952 C1970 0.951 . S
H1953 C1972 0.951 . S
H1954 C1974 0.950 . S
H1955 C1975 0.950 . S
H1956 C1977 0.950 . S
H1957 C1980 0.950 . S
H1958 C1981 0.950 . S
H1959 C1983 0.950 . S
H1960 C1984 0.950 . S
H1961 C1985 0.951 . S
H1962 C1987 0.951 . S
H1963 C1989 0.950 . S
H1964 C1990 0.950 . S
H1965 C1992 0.950 . S
H1966 C1995 0.950 . S
H1967 C1996 0.950 . S
H1968 C1998 0.950 . S
H1969 C1999 0.950 . S
C1970 H1952 0.951 . S
C1970 C1971 1.340 1_545 S
C1970 C1972 1.388 . S
C1971 C1970 1.340 1_565 S
C1971 C1975 1.393 . S
C1972 H1953 0.951 . S
C1972 C1970 1.388 . S
C1972 C1973 1.366 . S
C1973 C1972 1.366 . S
C1973 C1974 1.414 . S
C1973 C1976 1.499 . S
C1974 H1954 0.950 . S
C1974 C1973 1.414 . S
C1974 C1975 1.374 1_545 S
C1975 H1955 0.950 . S
C1975 C1971 1.393 . S
C1975 C1974 1.374 1_565 S
C1976 C1973 1.499 . S
C1976 C1977 1.373 . S
C1976 C1978 1.389 . S
C1977 H1956 0.950 . S
C1977 C1976 1.373 . S
C1977 C1993 1.377 . S
C1978 C1976 1.389 . S
C1978 C1979 1.524 . S
C1978 C1992 1.377 . S
C1979 C1978 1.524 . S
C1979 C1980 1.397 . S
C1979 C1984 1.363 . S
C1980 H1957 0.950 . S
C1980 C1979 1.397 . S
C1980 C1981 1.334 . S
C1981 H1958 0.950 . S
C1981 C1980 1.334 . S
C1981 C1982 1.287 . S
C1982 C1981 1.287 . S
C1982 C1983 1.524 . S
C1982 H2001 0.913 . S
C1983 H1959 0.950 . S
C1983 C1982 1.524 . S
C1983 C1984 1.415 . S
C1984 H1960 0.950 . S
C1984 C1979 1.363 . S
C1984 C1983 1.415 . S
C1985 H1961 0.951 . S
C1985 C1986 1.366 . S
C1985 C1987 1.388 . S
C1986 C1985 1.366 . S
C1986 C1990 1.385 . S
C1987 H1962 0.951 . S
C1987 C1985 1.388 . S
C1987 C1988 1.366 . S
C1988 C1987 1.366 . S
C1988 C1989 1.414 . S
C1988 C1991 1.499 . S
C1989 H1963 0.950 . S
C1989 C1988 1.414 . S
C1989 C1990 1.374 . S
C1990 H1964 0.950 . S
C1990 C1986 1.385 . S
C1990 C1989 1.374 . S
C1991 C1988 1.499 . S
C1991 C1992 1.373 . S
C1991 C1993 1.389 . S
C1992 H1965 0.950 . S
C1992 C1978 1.377 . S
C1992 C1991 1.373 . S
C1993 C1977 1.377 . S
C1993 C1991 1.389 . S
C1993 C1994 1.524 . S
C1994 C1993 1.524 . S
C1994 C1995 1.397 . S
C1994 C1999 1.363 . S
C1995 H1966 0.950 . S
C1995 C1994 1.397 . S
C1995 C1996 1.334 . S
C1996 H1967 0.950 . S
C1996 C1995 1.334 . S
C1996 C1997 1.287 . S
C1997 C1996 1.287 . S
C1997 C1998 1.524 . S
C1997 H2000 0.999 . S
C1998 H1968 0.950 . S
C1998 C1997 1.524 . S
C1998 C1999 1.415 . S
C1999 H1969 0.950 . S
C1999 C1994 1.363 . S
C1999 C1998 1.415 . S
H2000 C1997 0.999 . S
H2001 C1982 0.913 . S
H2002 C2020 0.951 . S
H2003 C2022 0.951 . S
H2004 C2024 0.950 . S
H2005 C2025 0.950 . S
H2006 C2027 0.950 . S
H2007 C2030 0.950 . S
H2008 C2031 0.950 . S
H2009 C2033 0.950 . S
H2010 C2034 0.950 . S
H2011 C2035 0.951 . S
H2012 C2037 0.951 . S
H2013 C2039 0.950 . S
H2014 C2040 0.950 . S
H2015 C2042 0.950 . S
H2016 C2045 0.950 . S
H2017 C2046 0.950 . S
H2018 C2048 0.950 . S
H2019 C2049 0.950 . S
C2020 H2002 0.951 . S
C2020 C2021 1.366 . S
C2020 C2022 1.388 . S
C2021 C2020 1.366 . S
C2021 C2025 1.385 . S
C2022 H2003 0.951 . S
C2022 C2020 1.388 . S
C2022 C2023 1.366 . S
C2023 C2022 1.366 . S
C2023 C2024 1.414 . S
C2023 C2026 1.499 . S
C2024 H2004 0.950 . S
C2024 C2023 1.414 . S
C2024 C2025 1.374 . S
C2025 H2005 0.950 . S
C2025 C2021 1.385 . S
C2025 C2024 1.374 . S
C2026 C2023 1.499 . S
C2026 C2027 1.373 . S
C2026 C2028 1.389 . S
C2027 H2006 0.950 . S
C2027 C2026 1.373 . S
C2027 C2043 1.377 . S
C2028 C2026 1.389 . S
C2028 C2029 1.524 . S
C2028 C2042 1.377 . S
C2029 C2028 1.524 . S
C2029 C2030 1.397 . S
C2029 C2034 1.363 . S
C2030 H2007 0.950 . S
C2030 C2029 1.397 . S
C2030 C2031 1.334 . S
C2031 H2008 0.950 . S
C2031 C2030 1.334 . S
C2031 C2032 1.287 . S
C2032 C2031 1.287 . S
C2032 C2033 1.524 . S
C2032 H2051 0.913 . S
C2033 H2009 0.950 . S
C2033 C2032 1.524 . S
C2033 C2034 1.415 . S
C2034 H2010 0.950 . S
C2034 C2029 1.363 . S
C2034 C2033 1.415 . S
C2035 H2011 0.951 . S
C2035 C2036 1.366 . S
C2035 C2037 1.388 . S
C2036 C2035 1.366 . S
C2036 C2040 1.385 . S
C2037 H2012 0.951 . S
C2037 C2035 1.388 . S
C2037 C2038 1.366 . S
C2038 C2037 1.366 . S
C2038 C2039 1.414 . S
C2038 C2041 1.499 . S
C2039 H2013 0.950 . S
C2039 C2038 1.414 . S
C2039 C2040 1.374 . S
C2040 H2014 0.950 . S
C2040 C2036 1.385 . S
C2040 C2039 1.374 . S
C2041 C2038 1.499 . S
C2041 C2042 1.373 . S
C2041 C2043 1.389 . S
C2042 H2015 0.950 . S
C2042 C2028 1.377 . S
C2042 C2041 1.373 . S
C2043 C2027 1.377 . S
C2043 C2041 1.389 . S
C2043 C2044 1.524 . S
C2044 C2043 1.524 . S
C2044 C2045 1.397 . S
C2044 C2049 1.363 . S
C2045 H2016 0.950 . S
C2045 C2044 1.397 . S
C2045 C2046 1.334 . S
C2046 H2017 0.950 . S
C2046 C2045 1.334 . S
C2046 C2047 1.287 . S
C2047 C2046 1.287 . S
C2047 C2048 1.524 . S
C2047 H2050 0.999 . S
C2048 H2018 0.950 . S
C2048 C2047 1.524 . S
C2048 C2049 1.415 . S
C2049 H2019 0.950 . S
C2049 C2044 1.363 . S
C2049 C2048 1.415 . S
H2050 C2047 0.999 . S
H2051 C2032 0.913 . S
H2052 C2070 0.951 . S
H2053 C2072 0.951 . S
H2054 C2074 0.950 . S
H2055 C2075 0.938 1_655 S
H2056 C2077 0.950 . S
H2057 C2080 0.950 . S
H2058 C2081 0.950 . S
H2059 C2083 0.950 . S
H2060 C2084 0.950 . S
H2061 C2085 0.951 . S
H2062 C2087 0.951 . S
H2063 C2089 0.950 . S
H2064 C2090 0.950 . S
H2065 C2092 0.950 . S
H2066 C2095 0.950 . S
H2067 C2096 0.950 . S
H2068 C2098 0.950 . S
H2069 C2099 0.950 . S
C2070 H2052 0.951 . S
C2070 C2071 1.350 1_455 S
C2070 C2072 1.388 . S
C2071 C2070 1.350 1_655 S
C2071 C2075 1.383 1_655 S
C2072 H2053 0.951 . S
C2072 C2070 1.388 . S
C2072 C2073 1.366 . S
C2073 C2072 1.366 . S
C2073 C2074 1.414 . S
C2073 C2076 1.499 . S
C2074 H2054 0.950 . S
C2074 C2073 1.414 . S
C2074 C2075 1.387 . S
C2075 H2055 0.938 1_455 S
C2075 C2071 1.383 1_455 S
C2075 C2074 1.387 . S
C2076 C2073 1.499 . S
C2076 C2077 1.373 . S
C2076 C2078 1.389 . S
C2077 H2056 0.950 . S
C2077 C2076 1.373 . S
C2077 C2093 1.377 . S
C2078 C2076 1.389 . S
C2078 C2079 1.524 . S
C2078 C2092 1.377 . S
C2079 C2078 1.524 . S
C2079 C2080 1.397 . S
C2079 C2084 1.363 . S
C2080 H2057 0.950 . S
C2080 C2079 1.397 . S
C2080 C2081 1.334 1_455 S
C2081 H2058 0.950 . S
C2081 C2080 1.334 1_655 S
C2081 C2082 1.287 1_655 S
C2082 C2081 1.287 1_455 S
C2082 C2083 1.524 . S
C2082 H2101 0.913 1_455 S
C2083 H2059 0.950 . S
C2083 C2082 1.524 . S
C2083 C2084 1.415 . S
C2084 H2060 0.950 . S
C2084 C2079 1.363 . S
C2084 C2083 1.415 . S
C2085 H2061 0.951 . S
C2085 C2086 1.366 . S
C2085 C2087 1.388 . S
C2086 C2085 1.366 . S
C2086 C2090 1.385 . S
C2087 H2062 0.951 . S
C2087 C2085 1.388 . S
C2087 C2088 1.366 . S
C2088 C2087 1.366 . S
C2088 C2089 1.414 . S
C2088 C2091 1.499 . S
C2089 H2063 0.950 . S
C2089 C2088 1.414 . S
C2089 C2090 1.374 . S
C2090 H2064 0.950 . S
C2090 C2086 1.385 . S
C2090 C2089 1.374 . S
C2091 C2088 1.499 . S
C2091 C2092 1.373 . S
C2091 C2093 1.389 . S
C2092 H2065 0.950 . S
C2092 C2078 1.377 . S
C2092 C2091 1.373 . S
C2093 C2077 1.377 . S
C2093 C2091 1.389 . S
C2093 C2094 1.524 . S
C2094 C2093 1.524 . S
C2094 C2095 1.397 . S
C2094 C2099 1.363 . S
C2095 H2066 0.950 . S
C2095 C2094 1.397 . S
C2095 C2096 1.334 . S
C2096 H2067 0.950 . S
C2096 C2095 1.334 . S
C2096 C2097 1.287 . S
C2097 C2096 1.287 . S
C2097 C2098 1.524 . S
C2097 H2100 0.999 . S
C2098 H2068 0.950 . S
C2098 C2097 1.524 . S
C2098 C2099 1.415 . S
C2099 H2069 0.950 . S
C2099 C2094 1.363 . S
C2099 C2098 1.415 . S
H2100 C2097 0.999 . S
H2101 C2082 0.913 1_655 S
H2102 C2120 0.951 . S
H2103 C2122 0.951 . S
H2104 C2124 0.950 . S
H2105 C2125 0.950 . S
H2106 C2127 0.950 . S
H2107 C2130 0.950 . S
H2108 C2131 0.950 . S
H2109 C2133 0.950 . S
H2110 C2134 0.950 . S
H2111 C2135 0.951 1_655 S
H2112 C2137 0.951 . S
H2113 C2139 0.950 . S
H2114 C2140 0.950 . S
H2115 C2142 0.950 . S
H2116 C2145 0.950 . S
H2117 C2146 0.950 . S
H2118 C2148 0.950 . S
H2119 C2149 0.950 . S
C2120 H2102 0.951 . S
C2120 C2121 1.341 1_545 S
C2120 C2122 1.388 . S
C2121 C2120 1.341 1_565 S
C2121 C2125 1.391 . S
C2122 H2103 0.951 . S
C2122 C2120 1.388 . S
C2122 C2123 1.366 . S
C2123 C2122 1.366 . S
C2123 C2124 1.414 . S
C2123 C2126 1.499 . S
C2124 H2104 0.950 . S
C2124 C2123 1.414 . S
C2124 C2125 1.374 1_545 S
C2125 H2105 0.950 . S
C2125 C2121 1.391 . S
C2125 C2124 1.374 1_565 S
C2126 C2123 1.499 . S
C2126 C2127 1.373 . S
C2126 C2128 1.389 . S
C2127 H2106 0.950 . S
C2127 C2126 1.373 . S
C2127 C2143 1.377 . S
C2128 C2126 1.389 . S
C2128 C2129 1.524 . S
C2128 C2142 1.377 . S
C2129 C2128 1.524 . S
C2129 C2130 1.397 . S
C2129 C2134 1.363 . S
C2130 H2107 0.950 . S
C2130 C2129 1.397 . S
C2130 C2131 1.334 . S
C2131 H2108 0.950 . S
C2131 C2130 1.334 . S
C2131 C2132 1.287 . S
C2132 C2131 1.287 . S
C2132 C2133 1.524 . S
C2132 H2151 0.913 . S
C2133 H2109 0.950 . S
C2133 C2132 1.524 . S
C2133 C2134 1.415 . S
C2134 H2110 0.950 . S
C2134 C2129 1.363 . S
C2134 C2133 1.415 . S
C2135 H2111 0.951 1_455 S
C2135 C2136 1.364 1_455 S
C2135 C2137 1.388 . S
C2136 C2135 1.364 1_655 S
C2136 C2140 1.370 1_655 S
C2137 H2112 0.951 . S
C2137 C2135 1.388 . S
C2137 C2138 1.366 . S
C2138 C2137 1.366 . S
C2138 C2139 1.414 . S
C2138 C2141 1.499 . S
C2139 H2113 0.950 . S
C2139 C2138 1.414 . S
C2139 C2140 1.374 . S
C2140 H2114 0.950 . S
C2140 C2136 1.370 1_455 S
C2140 C2139 1.374 . S
C2141 C2138 1.499 . S
C2141 C2142 1.373 . S
C2141 C2143 1.389 . S
C2142 H2115 0.950 . S
C2142 C2128 1.377 . S
C2142 C2141 1.373 . S
C2143 C2127 1.377 . S
C2143 C2141 1.389 . S
C2143 C2144 1.524 . S
C2144 C2143 1.524 . S
C2144 C2145 1.397 . S
C2144 C2149 1.363 . S
C2145 H2116 0.950 . S
C2145 C2144 1.397 . S
C2145 C2146 1.334 1_455 S
C2146 H2117 0.950 . S
C2146 C2145 1.334 1_655 S
C2146 C2147 1.287 . S
C2147 C2146 1.287 . S
C2147 C2148 1.524 . S
C2147 H2150 0.999 . S
C2148 H2118 0.950 . S
C2148 C2147 1.524 . S
C2148 C2149 1.415 1_655 S
C2149 H2119 0.950 . S
C2149 C2144 1.363 . S
C2149 C2148 1.415 1_455 S
H2150 C2147 0.999 . S
H2151 C2132 0.913 . S
H2152 C2170 0.951 . S
H2153 C2172 0.951 . S
H2154 C2174 0.950 . S
H2155 C2175 0.950 . S
H2156 C2177 0.950 . S
H2157 C2180 0.950 . S
H2158 C2181 0.950 . S
H2159 C2183 0.950 . S
H2160 C2184 0.950 . S
H2161 C2185 0.951 . S
H2162 C2187 0.951 . S
H2163 C2189 0.950 . S
H2164 C2190 0.950 . S
H2165 C2192 0.950 . S
H2166 C2195 0.950 . S
H2167 C2196 0.950 . S
H2168 C2198 0.950 . S
H2169 C2199 0.950 . S
C2170 H2152 0.951 . S
C2170 C2171 1.373 . S
C2170 C2172 1.388 1_545 S
C2171 C2170 1.373 . S
C2171 C2175 1.360 1_545 S
C2172 H2153 0.951 . S
C2172 C2170 1.388 1_565 S
C2172 C2173 1.366 . S
C2173 C2172 1.366 . S
C2173 C2174 1.414 . S
C2173 C2176 1.499 . S
C2174 H2154 0.950 . S
C2174 C2173 1.414 . S
C2174 C2175 1.374 . S
C2175 H2155 0.950 . S
C2175 C2171 1.360 1_565 S
C2175 C2174 1.374 . S
C2176 C2173 1.499 . S
C2176 C2177 1.373 . S
C2176 C2178 1.389 . S
C2177 H2156 0.950 . S
C2177 C2176 1.373 . S
C2177 C2193 1.377 . S
C2178 C2176 1.389 . S
C2178 C2179 1.524 . S
C2178 C2192 1.377 . S
C2179 C2178 1.524 . S
C2179 C2180 1.397 . S
C2179 C2184 1.363 . S
C2180 H2157 0.950 . S
C2180 C2179 1.397 . S
C2180 C2181 1.334 . S
C2181 H2158 0.950 . S
C2181 C2180 1.334 . S
C2181 C2182 1.287 . S
C2182 C2181 1.287 . S
C2182 C2183 1.524 . S
C2182 H2201 0.913 . S
C2183 H2159 0.950 . S
C2183 C2182 1.524 . S
C2183 C2184 1.415 . S
C2184 H2160 0.950 . S
C2184 C2179 1.363 . S
C2184 C2183 1.415 . S
C2185 H2161 0.951 . S
C2185 C2186 1.366 . S
C2185 C2187 1.388 . S
C2186 C2185 1.366 . S
C2186 C2190 1.385 . S
C2187 H2162 0.951 . S
C2187 C2185 1.388 . S
C2187 C2188 1.366 . S
C2188 C2187 1.366 . S
C2188 C2189 1.414 . S
C2188 C2191 1.499 . S
C2189 H2163 0.950 . S
C2189 C2188 1.414 . S
C2189 C2190 1.374 . S
C2190 H2164 0.950 . S
C2190 C2186 1.385 . S
C2190 C2189 1.374 . S
C2191 C2188 1.499 . S
C2191 C2192 1.373 . S
C2191 C2193 1.389 . S
C2192 H2165 0.950 . S
C2192 C2178 1.377 . S
C2192 C2191 1.373 . S
C2193 C2177 1.377 . S
C2193 C2191 1.389 . S
C2193 C2194 1.524 . S
C2194 C2193 1.524 . S
C2194 C2195 1.397 . S
C2194 C2199 1.363 . S
C2195 H2166 0.950 . S
C2195 C2194 1.397 . S
C2195 C2196 1.334 . S
C2196 H2167 0.950 . S
C2196 C2195 1.334 . S
C2196 C2197 1.287 . S
C2197 C2196 1.287 . S
C2197 C2198 1.524 . S
C2197 H2200 0.999 . S
C2198 H2168 0.950 . S
C2198 C2197 1.524 . S
C2198 C2199 1.415 . S
C2199 H2169 0.950 . S
C2199 C2194 1.363 . S
C2199 C2198 1.415 . S
H2200 C2197 0.999 . S
H2201 C2182 0.913 . S
H2202 C2220 0.951 . S
H2203 C2222 0.951 . S
H2204 C2224 0.950 . S
H2205 C2225 0.950 . S
H2206 C2227 0.950 . S
H2207 C2230 0.950 . S
H2208 C2231 0.950 . S
H2209 C2233 0.950 . S
H2210 C2234 0.950 . S
H2211 C2235 0.951 . S
H2212 C2237 0.951 . S
H2213 C2239 0.950 . S
H2214 C2240 0.950 . S
H2215 C2242 0.950 . S
H2216 C2245 0.950 . S
H2217 C2246 0.950 . S
H2218 C2248 0.950 . S
H2219 C2249 0.950 . S
C2220 H2202 0.951 . S
C2220 C2221 1.366 . S
C2220 C2222 1.388 . S
C2221 C2220 1.366 . S
C2221 C2225 1.385 . S
C2222 H2203 0.951 . S
C2222 C2220 1.388 . S
C2222 C2223 1.366 . S
C2223 C2222 1.366 . S
C2223 C2224 1.414 . S
C2223 C2226 1.499 . S
C2224 H2204 0.950 . S
C2224 C2223 1.414 . S
C2224 C2225 1.374 . S
C2225 H2205 0.950 . S
C2225 C2221 1.385 . S
C2225 C2224 1.374 . S
C2226 C2223 1.499 . S
C2226 C2227 1.373 . S
C2226 C2228 1.389 . S
C2227 H2206 0.950 . S
C2227 C2226 1.373 . S
C2227 C2243 1.377 . S
C2228 C2226 1.389 . S
C2228 C2229 1.524 . S
C2228 C2242 1.377 . S
C2229 C2228 1.524 . S
C2229 C2230 1.397 . S
C2229 C2234 1.363 . S
C2230 H2207 0.950 . S
C2230 C2229 1.397 . S
C2230 C2231 1.334 . S
C2231 H2208 0.950 . S
C2231 C2230 1.334 . S
C2231 C2232 1.287 . S
C2232 C2231 1.287 . S
C2232 C2233 1.524 . S
C2232 H2251 0.913 . S
C2233 H2209 0.950 . S
C2233 C2232 1.524 . S
C2233 C2234 1.415 . S
C2234 H2210 0.950 . S
C2234 C2229 1.363 . S
C2234 C2233 1.415 . S
C2235 H2211 0.951 . S
C2235 C2236 1.366 . S
C2235 C2237 1.388 . S
C2236 C2235 1.366 . S
C2236 C2240 1.385 . S
C2237 H2212 0.951 . S
C2237 C2235 1.388 . S
C2237 C2238 1.366 . S
C2238 C2237 1.366 . S
C2238 C2239 1.414 . S
C2238 C2241 1.499 . S
C2239 H2213 0.950 . S
C2239 C2238 1.414 . S
C2239 C2240 1.374 . S
C2240 H2214 0.950 . S
C2240 C2236 1.385 . S
C2240 C2239 1.374 . S
C2241 C2238 1.499 . S
C2241 C2242 1.373 . S
C2241 C2243 1.389 . S
C2242 H2215 0.950 . S
C2242 C2228 1.377 . S
C2242 C2241 1.373 . S
C2243 C2227 1.377 . S
C2243 C2241 1.389 . S
C2243 C2244 1.524 . S
C2244 C2243 1.524 . S
C2244 C2245 1.397 . S
C2244 C2249 1.363 . S
C2245 H2216 0.950 . S
C2245 C2244 1.397 . S
C2245 C2246 1.334 . S
C2246 H2217 0.950 . S
C2246 C2245 1.334 . S
C2246 C2247 1.287 . S
C2247 C2246 1.287 . S
C2247 C2248 1.524 . S
C2247 H2250 0.999 . S
C2248 H2218 0.950 . S
C2248 C2247 1.524 . S
C2248 C2249 1.415 . S
C2249 H2219 0.950 . S
C2249 C2244 1.363 . S
C2249 C2248 1.415 . S
H2250 C2247 0.999 . S
H2251 C2232 0.913 . S
H2252 C2270 0.951 . S
H2253 C2272 0.951 . S
H2254 C2274 0.950 . S
H2255 C2275 0.950 . S
H2256 C2277 0.950 . S
H2257 C2280 0.950 . S
H2258 C2281 0.950 . S
H2259 C2283 0.950 . S
H2260 C2284 0.950 . S
H2261 C2285 0.951 . S
H2262 C2287 0.951 . S
H2263 C2289 0.950 . S
H2264 C2290 0.950 . S
H2265 C2292 0.950 . S
H2266 C2295 0.950 . S
H2267 C2296 0.950 . S
H2268 C2298 0.950 . S
H2269 C2299 0.950 . S
C2270 H2252 0.951 . S
C2270 C2271 1.366 . S
C2270 C2272 1.388 . S
C2271 C2270 1.366 . S
C2271 C2275 1.385 . S
C2272 H2253 0.951 . S
C2272 C2270 1.388 . S
C2272 C2273 1.366 . S
C2273 C2272 1.366 . S
C2273 C2274 1.414 . S
C2273 C2276 1.499 . S
C2274 H2254 0.950 . S
C2274 C2273 1.414 . S
C2274 C2275 1.374 . S
C2275 H2255 0.950 . S
C2275 C2271 1.385 . S
C2275 C2274 1.374 . S
C2276 C2273 1.499 . S
C2276 C2277 1.373 . S
C2276 C2278 1.389 . S
C2277 H2256 0.950 . S
C2277 C2276 1.373 . S
C2277 C2293 1.377 . S
C2278 C2276 1.389 . S
C2278 C2279 1.524 . S
C2278 C2292 1.377 . S
C2279 C2278 1.524 . S
C2279 C2280 1.397 . S
C2279 C2284 1.363 . S
C2280 H2257 0.950 . S
C2280 C2279 1.397 . S
C2280 C2281 1.334 . S
C2281 H2258 0.950 . S
C2281 C2280 1.334 . S
C2281 C2282 1.287 . S
C2282 C2281 1.287 . S
C2282 C2283 1.524 . S
C2282 H2301 0.913 . S
C2283 H2259 0.950 . S
C2283 C2282 1.524 . S
C2283 C2284 1.415 . S
C2284 H2260 0.950 . S
C2284 C2279 1.363 . S
C2284 C2283 1.415 . S
C2285 H2261 0.951 . S
C2285 C2286 1.346 1_655 S
C2285 C2287 1.388 . S
C2286 C2285 1.346 1_455 S
C2286 C2290 1.386 . S
C2287 H2262 0.951 . S
C2287 C2285 1.388 . S
C2287 C2288 1.366 . S
C2288 C2287 1.366 . S
C2288 C2289 1.414 . S
C2288 C2291 1.499 . S
C2289 H2263 0.950 . S
C2289 C2288 1.414 . S
C2289 C2290 1.374 1_655 S
C2290 H2264 0.950 . S
C2290 C2286 1.386 . S
C2290 C2289 1.374 1_455 S
C2291 C2288 1.499 . S
C2291 C2292 1.373 . S
C2291 C2293 1.389 . S
C2292 H2265 0.950 . S
C2292 C2278 1.377 . S
C2292 C2291 1.373 . S
C2293 C2277 1.377 . S
C2293 C2291 1.389 . S
C2293 C2294 1.524 . S
C2294 C2293 1.524 . S
C2294 C2295 1.397 . S
C2294 C2299 1.363 . S
C2295 H2266 0.950 . S
C2295 C2294 1.397 . S
C2295 C2296 1.334 . S
C2296 H2267 0.950 . S
C2296 C2295 1.334 . S
C2296 C2297 1.287 . S
C2297 C2296 1.287 . S
C2297 C2298 1.524 . S
C2297 H2300 0.999 . S
C2298 H2268 0.950 . S
C2298 C2297 1.524 . S
C2298 C2299 1.415 . S
C2299 H2269 0.950 . S
C2299 C2294 1.363 . S
C2299 C2298 1.415 . S
H2300 C2297 0.999 . S
H2301 C2282 0.913 . S
H2302 C2320 0.951 . S
H2303 C2322 0.951 . S
H2304 C2324 0.950 . S
H2305 C2325 0.950 1_545 S
H2306 C2327 0.950 . S
H2307 C2330 0.950 . S
H2308 C2331 0.950 . S
H2309 C2333 0.950 . S
H2310 C2334 0.950 . S
H2311 C2335 0.951 . S
H2312 C2337 0.951 . S
H2313 C2339 0.950 . S
H2314 C2340 0.944 1_455 S
H2315 C2342 0.950 . S
H2316 C2345 0.950 . S
H2317 C2346 0.950 . S
H2318 C2348 0.950 . S
H2319 C2349 0.950 . S
C2320 H2302 0.951 . S
C2320 C2321 1.355 1_565 S
C2320 C2322 1.388 . S
C2321 C2320 1.355 1_545 S
C2321 C2325 1.379 1_545 S
C2322 H2303 0.951 . S
C2322 C2320 1.388 . S
C2322 C2323 1.366 . S
C2323 C2322 1.366 . S
C2323 C2324 1.414 . S
C2323 C2326 1.499 . S
C2324 H2304 0.950 . S
C2324 C2323 1.414 . S
C2324 C2325 1.374 . S
C2325 H2305 0.950 1_565 S
C2325 C2321 1.379 1_565 S
C2325 C2324 1.374 . S
C2326 C2323 1.499 . S
C2326 C2327 1.373 . S
C2326 C2328 1.389 . S
C2327 H2306 0.950 . S
C2327 C2326 1.373 . S
C2327 C2343 1.377 . S
C2328 C2326 1.389 . S
C2328 C2329 1.524 . S
C2328 C2342 1.377 . S
C2329 C2328 1.524 . S
C2329 C2330 1.397 . S
C2329 C2334 1.363 . S
C2330 H2307 0.950 . S
C2330 C2329 1.397 . S
C2330 C2331 1.334 1_565 S
C2331 H2308 0.950 . S
C2331 C2330 1.334 1_545 S
C2331 C2332 1.287 . S
C2332 C2331 1.287 . S
C2332 C2333 1.524 1_545 S
C2332 H2351 0.913 . S
C2333 H2309 0.950 . S
C2333 C2332 1.524 1_565 S
C2333 C2334 1.415 . S
C2334 H2310 0.950 . S
C2334 C2329 1.363 . S
C2334 C2333 1.415 . S
C2335 H2311 0.951 . S
C2335 C2336 1.348 1_655 S
C2335 C2337 1.388 . S
C2336 C2335 1.348 1_455 S
C2336 C2340 1.384 1_455 S
C2337 H2312 0.951 . S
C2337 C2335 1.388 . S
C2337 C2338 1.366 . S
C2338 C2337 1.366 . S
C2338 C2339 1.414 . S
C2338 C2341 1.499 . S
C2339 H2313 0.950 . S
C2339 C2338 1.414 . S
C2339 C2340 1.381 . S
C2340 H2314 0.944 1_655 S
C2340 C2336 1.384 1_655 S
C2340 C2339 1.381 . S
C2341 C2338 1.499 . S
C2341 C2342 1.373 . S
C2341 C2343 1.389 . S
C2342 H2315 0.950 . S
C2342 C2328 1.377 . S
C2342 C2341 1.373 . S
C2343 C2327 1.377 . S
C2343 C2341 1.389 . S
C2343 C2344 1.524 . S
C2344 C2343 1.524 . S
C2344 C2345 1.397 . S
C2344 C2349 1.363 . S
C2345 H2316 0.950 . S
C2345 C2344 1.397 . S
C2345 C2346 1.334 . S
C2346 H2317 0.950 . S
C2346 C2345 1.334 . S
C2346 C2347 1.287 . S
C2347 C2346 1.287 . S
C2347 C2348 1.524 . S
C2347 H2350 0.999 . S
C2348 H2318 0.950 . S
C2348 C2347 1.524 . S
C2348 C2349 1.415 . S
C2349 H2319 0.950 . S
C2349 C2344 1.363 . S
C2349 C2348 1.415 . S
H2350 C2347 0.999 . S
H2351 C2332 0.913 . S
H2352 C2370 0.951 . S
H2353 C2372 0.951 . S
H2354 C2374 0.950 . S
H2355 C2375 0.950 . S
H2356 C2377 0.950 . S
H2357 C2380 0.950 . S
H2358 C2381 0.950 . S
H2359 C2383 0.950 . S
H2360 C2384 0.950 . S
H2361 C2385 0.951 . S
H2362 C2387 0.951 . S
H2363 C2389 0.950 . S
H2364 C2390 0.950 . S
H2365 C2392 0.950 . S
H2366 C2395 0.950 . S
H2367 C2396 0.950 . S
H2368 C2398 0.950 . S
H2369 C2399 0.950 . S
C2370 H2352 0.951 . S
C2370 C2371 1.366 . S
C2370 C2372 1.388 . S
C2371 C2370 1.366 . S
C2371 C2375 1.385 . S
C2372 H2353 0.951 . S
C2372 C2370 1.388 . S
C2372 C2373 1.366 . S
C2373 C2372 1.366 . S
C2373 C2374 1.414 . S
C2373 C2376 1.499 . S
C2374 H2354 0.950 . S
C2374 C2373 1.414 . S
C2374 C2375 1.374 . S
C2375 H2355 0.950 . S
C2375 C2371 1.385 . S
C2375 C2374 1.374 . S
C2376 C2373 1.499 . S
C2376 C2377 1.384 . S
C2376 C2378 1.389 . S
C2377 H2356 0.950 . S
C2377 C2376 1.384 . S
C2377 C2393 1.366 1_554 S
C2378 C2376 1.389 . S
C2378 C2379 1.524 . S
C2378 C2392 1.365 1_554 S
C2379 C2378 1.524 . S
C2379 C2380 1.397 . S
C2379 C2384 1.363 . S
C2380 H2357 0.950 . S
C2380 C2379 1.397 . S
C2380 C2381 1.334 . S
C2381 H2358 0.950 . S
C2381 C2380 1.334 . S
C2381 C2382 1.287 . S
C2382 C2381 1.287 . S
C2382 C2383 1.524 . S
C2382 H2401 0.913 . S
C2383 H2359 0.950 . S
C2383 C2382 1.524 . S
C2383 C2384 1.415 . S
C2384 H2360 0.950 . S
C2384 C2379 1.363 . S
C2384 C2383 1.415 . S
C2385 H2361 0.951 . S
C2385 C2386 1.366 . S
C2385 C2387 1.388 . S
C2386 C2385 1.366 . S
C2386 C2390 1.385 . S
C2387 H2362 0.951 . S
C2387 C2385 1.388 . S
C2387 C2388 1.366 . S
C2388 C2387 1.366 . S
C2388 C2389 1.414 . S
C2388 C2391 1.499 . S
C2389 H2363 0.950 . S
C2389 C2388 1.414 . S
C2389 C2390 1.374 . S
C2390 H2364 0.950 . S
C2390 C2386 1.385 . S
C2390 C2389 1.374 . S
C2391 C2388 1.499 . S
C2391 C2392 1.385 . S
C2391 C2393 1.389 . S
C2392 H2365 0.950 . S
C2392 C2378 1.365 1_556 S
C2392 C2391 1.385 . S
C2393 C2377 1.366 1_556 S
C2393 C2391 1.389 . S
C2393 C2394 1.524 . S
C2394 C2393 1.524 . S
C2394 C2395 1.397 . S
C2394 C2399 1.363 . S
C2395 H2366 0.950 . S
C2395 C2394 1.397 . S
C2395 C2396 1.334 . S
C2396 H2367 0.950 . S
C2396 C2395 1.334 . S
C2396 C2397 1.287 . S
C2397 C2396 1.287 . S
C2397 C2398 1.524 . S
C2397 H2400 0.999 . S
C2398 H2368 0.950 . S
C2398 C2397 1.524 . S
C2398 C2399 1.415 . S
C2399 H2369 0.950 . S
C2399 C2394 1.363 . S
C2399 C2398 1.415 . S
H2400 C2397 0.999 . S
H2401 C2382 0.913 . S
H2402 C2420 0.951 . S
H2403 C2422 0.951 . S
H2404 C2424 0.950 . S
H2405 C2425 0.950 . S
H2406 C2427 0.950 . S
H2407 C2430 0.950 . S
H2408 C2431 0.950 . S
H2409 C2433 0.950 . S
H2410 C2434 0.950 . S
H2411 C2435 0.951 . S
H2412 C2437 0.951 . S
H2413 C2439 0.950 . S
H2414 C2440 0.950 . S
H2415 C2442 0.950 . S
H2416 C2445 0.950 . S
H2417 C2446 0.950 . S
H2418 C2448 0.950 . S
H2419 C2449 0.950 . S
C2420 H2402 0.951 . S
C2420 C2421 1.366 . S
C2420 C2422 1.388 . S
C2421 C2420 1.366 . S
C2421 C2425 1.385 . S
C2422 H2403 0.951 . S
C2422 C2420 1.388 . S
C2422 C2423 1.366 . S
C2423 C2422 1.366 . S
C2423 C2424 1.414 . S
C2423 C2426 1.499 . S
C2424 H2404 0.950 . S
C2424 C2423 1.414 . S
C2424 C2425 1.374 . S
C2425 H2405 0.950 . S
C2425 C2421 1.385 . S
C2425 C2424 1.374 . S
C2426 C2423 1.499 . S
C2426 C2427 1.373 . S
C2426 C2428 1.389 . S
C2427 H2406 0.950 . S
C2427 C2426 1.373 . S
C2427 C2443 1.377 . S
C2428 C2426 1.389 . S
C2428 C2429 1.524 . S
C2428 C2442 1.377 . S
C2429 C2428 1.524 . S
C2429 C2430 1.397 . S
C2429 C2434 1.363 . S
C2430 H2407 0.950 . S
C2430 C2429 1.397 . S
C2430 C2431 1.334 . S
C2431 H2408 0.950 . S
C2431 C2430 1.334 . S
C2431 C2432 1.287 . S
C2432 C2431 1.287 . S
C2432 C2433 1.524 . S
C2432 H2451 0.913 . S
C2433 H2409 0.950 . S
C2433 C2432 1.524 . S
C2433 C2434 1.415 . S
C2434 H2410 0.950 . S
C2434 C2429 1.363 . S
C2434 C2433 1.415 . S
C2435 H2411 0.951 . S
C2435 C2436 1.366 . S
C2435 C2437 1.388 . S
C2436 C2435 1.366 . S
C2436 C2440 1.385 . S
C2437 H2412 0.951 . S
C2437 C2435 1.388 . S
C2437 C2438 1.366 . S
C2438 C2437 1.366 . S
C2438 C2439 1.414 . S
C2438 C2441 1.499 . S
C2439 H2413 0.950 . S
C2439 C2438 1.414 . S
C2439 C2440 1.374 . S
C2440 H2414 0.950 . S
C2440 C2436 1.385 . S
C2440 C2439 1.374 . S
C2441 C2438 1.499 . S
C2441 C2442 1.373 . S
C2441 C2443 1.389 . S
C2442 H2415 0.950 . S
C2442 C2428 1.377 . S
C2442 C2441 1.373 . S
C2443 C2427 1.377 . S
C2443 C2441 1.389 . S
C2443 C2444 1.524 . S
C2444 C2443 1.524 . S
C2444 C2445 1.397 . S
C2444 C2449 1.363 . S
C2445 H2416 0.950 . S
C2445 C2444 1.397 . S
C2445 C2446 1.334 . S
C2446 H2417 0.950 . S
C2446 C2445 1.334 . S
C2446 C2447 1.287 . S
C2447 C2446 1.287 . S
C2447 C2448 1.524 . S
C2447 H2450 0.999 . S
C2448 H2418 0.950 . S
C2448 C2447 1.524 . S
C2448 C2449 1.415 . S
C2449 H2419 0.950 . S
C2449 C2444 1.363 . S
C2449 C2448 1.415 . S
H2450 C2447 0.999 . S
H2451 C2432 0.913 . S
H2452 C2470 0.951 . S
H2453 C2472 0.951 . S
H2454 C2474 0.950 . S
H2455 C2475 0.950 . S
H2456 C2477 0.950 1_455 S
H2457 C2480 0.950 . S
H2458 C2481 0.950 . S
H2459 C2483 0.950 . S
H2460 C2484 0.950 1_556 S
H2461 C2485 0.951 . S
H2462 C2487 0.951 . S
H2463 C2489 0.950 . S
H2464 C2490 0.950 . S
H2465 C2492 0.950 . S
H2466 C2495 0.995 . S
H2467 C2496 0.950 . S
H2468 C2498 0.950 . S
H2469 C2499 0.950 1_554 S
C2470 H2452 0.951 . S
C2470 C2471 1.366 . S
C2470 C2472 1.388 . S
C2471 C2470 1.366 . S
C2471 C2475 1.385 . S
C2472 H2453 0.951 . S
C2472 C2470 1.388 . S
C2472 C2473 1.366 . S
C2473 C2472 1.366 . S
C2473 C2474 1.414 . S
C2473 C2476 1.499 . S
C2474 H2454 0.950 . S
C2474 C2473 1.414 . S
C2474 C2475 1.374 . S
C2475 H2455 0.950 . S
C2475 C2471 1.385 . S
C2475 C2474 1.374 . S
C2476 C2473 1.499 . S
C2476 C2477 1.373 . S
C2476 C2478 1.389 . S
C2477 H2456 0.950 1_655 S
C2477 C2476 1.373 . S
C2477 C2493 1.377 1_554 S
C2478 C2476 1.389 . S
C2478 C2479 1.524 . S
C2478 C2492 1.377 1_554 S
C2479 C2478 1.524 . S
C2479 C2480 1.397 . S
C2479 C2484 1.363 . S
C2480 H2457 0.950 . S
C2480 C2479 1.397 . S
C2480 C2481 1.334 . S
C2481 H2458 0.950 . S
C2481 C2480 1.334 . S
C2481 C2482 1.287 . S
C2482 C2481 1.287 . S
C2482 C2483 1.524 . S
C2482 H2501 0.913 . S
C2483 H2459 0.950 . S
C2483 C2482 1.524 . S
C2483 C2484 1.415 . S
C2484 H2460 0.950 1_554 S
C2484 C2479 1.363 . S
C2484 C2483 1.415 . S
C2485 H2461 0.951 . S
C2485 C2486 1.366 . S
C2485 C2487 1.388 . S
C2486 C2485 1.366 . S
C2486 C2490 1.385 . S
C2487 H2462 0.951 . S
C2487 C2485 1.388 . S
C2487 C2488 1.366 . S
C2488 C2487 1.366 . S
C2488 C2489 1.414 . S
C2488 C2491 1.499 . S
C2489 H2463 0.950 . S
C2489 C2488 1.414 . S
C2489 C2490 1.374 . S
C2490 H2464 0.950 . S
C2490 C2486 1.385 . S
C2490 C2489 1.374 . S
C2491 C2488 1.499 . S
C2491 C2492 1.373 . S
C2491 C2493 1.389 . S
C2492 H2465 0.950 . S
C2492 C2478 1.377 1_556 S
C2492 C2491 1.373 . S
C2493 C2477 1.377 1_556 S
C2493 C2491 1.389 . S
C2493 C2494 1.524 1_655 S
C2494 C2493 1.524 1_455 S
C2494 C2495 1.397 . S
C2494 C2499 1.363 . S
C2495 H2466 0.995 . S
C2495 C2494 1.397 . S
C2495 C2496 1.334 . S
C2496 H2467 0.950 . S
C2496 C2495 1.334 . S
C2496 C2497 1.287 . S
C2497 C2496 1.287 . S
C2497 C2498 1.524 . S
C2497 H2500 0.999 . S
C2498 H2468 0.950 . S
C2498 C2497 1.524 . S
C2498 C2499 1.415 . S
C2499 H2469 0.950 1_556 S
C2499 C2494 1.363 . S
C2499 C2498 1.415 . S
H2500 C2497 0.999 . S
H2501 C2482 0.913 . S
H2502 C2520 0.951 . S
H2503 C2522 0.951 . S
H2504 C2524 0.950 . S
H2505 C2525 0.950 . S
H2506 C2527 0.950 . S
H2507 C2530 0.950 . S
H2508 C2531 0.950 . S
H2509 C2533 0.950 . S
H2510 C2534 0.950 . S
H2511 C2535 0.951 . S
H2512 C2537 0.951 . S
H2513 C2539 0.950 . S
H2514 C2540 0.950 . S
H2515 C2542 0.950 . S
H2516 C2545 0.950 . S
H2517 C2546 0.950 . S
H2518 C2548 0.950 . S
H2519 C2549 0.950 . S
C2520 H2502 0.951 . S
C2520 C2521 1.366 . S
C2520 C2522 1.388 . S
C2521 C2520 1.366 . S
C2521 C2525 1.385 . S
C2522 H2503 0.951 . S
C2522 C2520 1.388 . S
C2522 C2523 1.366 . S
C2523 C2522 1.366 . S
C2523 C2524 1.414 . S
C2523 C2526 1.499 . S
C2524 H2504 0.950 . S
C2524 C2523 1.414 . S
C2524 C2525 1.374 . S
C2525 H2505 0.950 . S
C2525 C2521 1.385 . S
C2525 C2524 1.374 . S
C2526 C2523 1.499 . S
C2526 C2527 1.373 . S
C2526 C2528 1.389 . S
C2527 H2506 0.950 . S
C2527 C2526 1.373 . S
C2527 C2543 1.377 . S
C2528 C2526 1.389 . S
C2528 C2529 1.524 . S
C2528 C2542 1.377 . S
C2529 C2528 1.524 . S
C2529 C2530 1.397 . S
C2529 C2534 1.363 . S
C2530 H2507 0.950 . S
C2530 C2529 1.397 . S
C2530 C2531 1.334 . S
C2531 H2508 0.950 . S
C2531 C2530 1.334 . S
C2531 C2532 1.287 . S
C2532 C2531 1.287 . S
C2532 C2533 1.524 . S
C2532 H2551 0.913 . S
C2533 H2509 0.950 . S
C2533 C2532 1.524 . S
C2533 C2534 1.415 . S
C2534 H2510 0.950 . S
C2534 C2529 1.363 . S
C2534 C2533 1.415 . S
C2535 H2511 0.951 . S
C2535 C2536 1.366 . S
C2535 C2537 1.388 . S
C2536 C2535 1.366 . S
C2536 C2540 1.385 . S
C2537 H2512 0.951 . S
C2537 C2535 1.388 . S
C2537 C2538 1.366 . S
C2538 C2537 1.366 . S
C2538 C2539 1.414 . S
C2538 C2541 1.499 . S
C2539 H2513 0.950 . S
C2539 C2538 1.414 . S
C2539 C2540 1.374 . S
C2540 H2514 0.950 . S
C2540 C2536 1.385 . S
C2540 C2539 1.374 . S
C2541 C2538 1.499 . S
C2541 C2542 1.373 . S
C2541 C2543 1.389 . S
C2542 H2515 0.950 . S
C2542 C2528 1.377 . S
C2542 C2541 1.373 . S
C2543 C2527 1.377 . S
C2543 C2541 1.389 . S
C2543 C2544 1.524 . S
C2544 C2543 1.524 . S
C2544 C2545 1.397 1_565 S
C2544 C2549 1.363 . S
C2545 H2516 0.950 . S
C2545 C2544 1.397 1_545 S
C2545 C2546 1.334 . S
C2546 H2517 0.950 . S
C2546 C2545 1.334 . S
C2546 C2547 1.287 . S
C2547 C2546 1.287 . S
C2547 C2548 1.524 . S
C2547 H2550 0.999 . S
C2548 H2518 0.950 . S
C2548 C2547 1.524 . S
C2548 C2549 1.415 1_545 S
C2549 H2519 0.950 . S
C2549 C2544 1.363 . S
C2549 C2548 1.415 1_565 S
H2550 C2547 0.999 . S
H2551 C2532 0.913 . S
H2552 C2570 0.951 . S
H2553 C2572 0.951 . S
H2554 C2574 0.950 . S
H2555 C2575 0.950 . S
H2556 C2577 0.950 . S
H2557 C2580 0.950 . S
H2558 C2581 0.950 . S
H2559 C2583 0.950 . S
H2560 C2584 0.950 . S
H2561 C2585 0.951 . S
H2562 C2587 0.951 . S
H2563 C2589 0.950 . S
H2564 C2590 0.950 . S
H2565 C2592 0.950 . S
H2566 C2595 0.950 . S
H2567 C2596 0.950 . S
H2568 C2598 0.950 . S
H2569 C2599 0.950 . S
C2570 H2552 0.951 . S
C2570 C2571 1.366 . S
C2570 C2572 1.388 . S
C2571 C2570 1.366 . S
C2571 C2575 1.385 . S
C2572 H2553 0.951 . S
C2572 C2570 1.388 . S
C2572 C2573 1.366 . S
C2573 C2572 1.366 . S
C2573 C2574 1.414 . S
C2573 C2576 1.499 . S
C2574 H2554 0.950 . S
C2574 C2573 1.414 . S
C2574 C2575 1.374 . S
C2575 H2555 0.950 . S
C2575 C2571 1.385 . S
C2575 C2574 1.374 . S
C2576 C2573 1.499 . S
C2576 C2577 1.373 . S
C2576 C2578 1.389 . S
C2577 H2556 0.950 . S
C2577 C2576 1.373 . S
C2577 C2593 1.377 1_554 S
C2578 C2576 1.389 . S
C2578 C2579 1.524 . S
C2578 C2592 1.377 1_554 S
C2579 C2578 1.524 . S
C2579 C2580 1.397 . S
C2579 C2584 1.363 . S
C2580 H2557 0.950 . S
C2580 C2579 1.397 . S
C2580 C2581 1.334 . S
C2581 H2558 0.950 . S
C2581 C2580 1.334 . S
C2581 C2582 1.287 . S
C2582 C2581 1.287 . S
C2582 C2583 1.524 . S
C2582 H2601 0.913 . S
C2583 H2559 0.950 . S
C2583 C2582 1.524 . S
C2583 C2584 1.415 . S
C2584 H2560 0.950 . S
C2584 C2579 1.363 . S
C2584 C2583 1.415 . S
C2585 H2561 0.951 . S
C2585 C2586 1.366 . S
C2585 C2587 1.388 . S
C2586 C2585 1.366 . S
C2586 C2590 1.385 . S
C2587 H2562 0.951 . S
C2587 C2585 1.388 . S
C2587 C2588 1.366 . S
C2588 C2587 1.366 . S
C2588 C2589 1.414 . S
C2588 C2591 1.499 . S
C2589 H2563 0.950 . S
C2589 C2588 1.414 . S
C2589 C2590 1.374 . S
C2590 H2564 0.950 . S
C2590 C2586 1.385 . S
C2590 C2589 1.374 . S
C2591 C2588 1.499 . S
C2591 C2592 1.373 . S
C2591 C2593 1.389 . S
C2592 H2565 0.950 . S
C2592 C2578 1.377 1_556 S
C2592 C2591 1.373 . S
C2593 C2577 1.377 1_556 S
C2593 C2591 1.389 . S
C2593 C2594 1.524 . S
C2594 C2593 1.524 . S
C2594 C2595 1.397 . S
C2594 C2599 1.363 . S
C2595 H2566 0.950 . S
C2595 C2594 1.397 . S
C2595 C2596 1.334 . S
C2596 H2567 0.950 . S
C2596 C2595 1.334 . S
C2596 C2597 1.287 . S
C2597 C2596 1.287 . S
C2597 C2598 1.524 . S
C2597 H2600 0.999 . S
C2598 H2568 0.950 . S
C2598 C2597 1.524 . S
C2598 C2599 1.415 . S
C2599 H2569 0.950 . S
C2599 C2594 1.363 . S
C2599 C2598 1.415 . S
H2600 C2597 0.999 . S
H2601 C2582 0.913 . S
H2602 C2620 0.951 . S
H2603 C2622 0.951 . S
H2604 C2624 0.950 . S
H2605 C2625 0.950 . S
H2606 C2627 0.950 . S
H2607 C2630 0.950 . S
H2608 C2631 0.950 . S
H2609 C2633 0.950 . S
H2610 C2634 0.950 . S
H2611 C2635 0.951 . S
H2612 C2637 0.951 . S
H2613 C2639 0.950 . S
H2614 C2640 0.950 . S
H2615 C2642 0.950 . S
H2616 C2645 0.950 . S
H2617 C2646 0.950 . S
H2618 C2648 0.950 . S
H2619 C2649 0.950 . S
C2620 H2602 0.951 . S
C2620 C2621 1.366 . S
C2620 C2622 1.388 . S
C2621 C2620 1.366 . S
C2621 C2625 1.385 . S
C2622 H2603 0.951 . S
C2622 C2620 1.388 . S
C2622 C2623 1.366 . S
C2623 C2622 1.366 . S
C2623 C2624 1.414 . S
C2623 C2626 1.499 . S
C2624 H2604 0.950 . S
C2624 C2623 1.414 . S
C2624 C2625 1.374 . S
C2625 H2605 0.950 . S
C2625 C2621 1.385 . S
C2625 C2624 1.374 . S
C2626 C2623 1.499 . S
C2626 C2627 1.373 . S
C2626 C2628 1.389 . S
C2627 H2606 0.950 . S
C2627 C2626 1.373 . S
C2627 C2643 1.377 . S
C2628 C2626 1.389 . S
C2628 C2629 1.524 . S
C2628 C2642 1.377 . S
C2629 C2628 1.524 . S
C2629 C2630 1.397 . S
C2629 C2634 1.363 . S
C2630 H2607 0.950 . S
C2630 C2629 1.397 . S
C2630 C2631 1.334 . S
C2631 H2608 0.950 . S
C2631 C2630 1.334 . S
C2631 C2632 1.287 . S
C2632 C2631 1.287 . S
C2632 C2633 1.524 . S
C2632 H2651 0.913 . S
C2633 H2609 0.950 . S
C2633 C2632 1.524 . S
C2633 C2634 1.415 . S
C2634 H2610 0.950 . S
C2634 C2629 1.363 . S
C2634 C2633 1.415 . S
C2635 H2611 0.951 . S
C2635 C2636 1.366 . S
C2635 C2637 1.388 . S
C2636 C2635 1.366 . S
C2636 C2640 1.385 . S
C2637 H2612 0.951 . S
C2637 C2635 1.388 . S
C2637 C2638 1.366 . S
C2638 C2637 1.366 . S
C2638 C2639 1.414 . S
C2638 C2641 1.499 . S
C2639 H2613 0.950 . S
C2639 C2638 1.414 . S
C2639 C2640 1.374 . S
C2640 H2614 0.950 . S
C2640 C2636 1.385 . S
C2640 C2639 1.374 . S
C2641 C2638 1.499 . S
C2641 C2642 1.373 . S
C2641 C2643 1.389 . S
C2642 H2615 0.950 . S
C2642 C2628 1.377 . S
C2642 C2641 1.373 . S
C2643 C2627 1.377 . S
C2643 C2641 1.389 . S
C2643 C2644 1.524 . S
C2644 C2643 1.524 . S
C2644 C2645 1.397 . S
C2644 C2649 1.363 . S
C2645 H2616 0.950 . S
C2645 C2644 1.397 . S
C2645 C2646 1.334 . S
C2646 H2617 0.950 . S
C2646 C2645 1.334 . S
C2646 C2647 1.287 . S
C2647 C2646 1.287 . S
C2647 C2648 1.524 . S
C2647 H2650 0.999 . S
C2648 H2618 0.950 . S
C2648 C2647 1.524 . S
C2648 C2649 1.415 . S
C2649 H2619 0.950 . S
C2649 C2644 1.363 . S
C2649 C2648 1.415 . S
H2650 C2647 0.999 . S
H2651 C2632 0.913 . S
H2652 C2670 0.951 . S
H2653 C2672 0.951 . S
H2654 C2674 0.950 . S
H2655 C2675 0.950 . S
H2656 C2677 0.950 . S
H2657 C2680 0.950 . S
H2658 C2681 0.950 . S
H2659 C2683 0.950 . S
H2660 C2684 0.950 . S
H2661 C2685 0.951 . S
H2662 C2687 0.951 . S
H2663 C2689 0.950 . S
H2664 C2690 0.950 . S
H2665 C2692 0.950 . S
H2666 C2695 0.950 . S
H2667 C2696 0.950 . S
H2668 C2698 0.950 . S
H2669 C2699 0.950 1_455 S
C2670 H2652 0.951 . S
C2670 C2671 1.366 . S
C2670 C2672 1.388 . S
C2671 C2670 1.366 . S
C2671 C2675 1.385 . S
C2672 H2653 0.951 . S
C2672 C2670 1.388 . S
C2672 C2673 1.366 . S
C2673 C2672 1.366 . S
C2673 C2674 1.414 . S
C2673 C2676 1.499 . S
C2674 H2654 0.950 . S
C2674 C2673 1.414 . S
C2674 C2675 1.374 . S
C2675 H2655 0.950 . S
C2675 C2671 1.385 . S
C2675 C2674 1.374 . S
C2676 C2673 1.499 . S
C2676 C2677 1.373 . S
C2676 C2678 1.389 . S
C2677 H2656 0.950 . S
C2677 C2676 1.373 . S
C2677 C2693 1.377 1_556 S
C2678 C2676 1.389 . S
C2678 C2679 1.524 . S
C2678 C2692 1.377 1_556 S
C2679 C2678 1.524 . S
C2679 C2680 1.397 . S
C2679 C2684 1.363 . S
C2680 H2657 0.950 . S
C2680 C2679 1.397 . S
C2680 C2681 1.334 . S
C2681 H2658 0.950 . S
C2681 C2680 1.334 . S
C2681 C2682 1.287 . S
C2682 C2681 1.287 . S
C2682 C2683 1.524 . S
C2682 H2701 0.913 . S
C2683 H2659 0.950 . S
C2683 C2682 1.524 . S
C2683 C2684 1.415 . S
C2684 H2660 0.950 . S
C2684 C2679 1.363 . S
C2684 C2683 1.415 . S
C2685 H2661 0.951 . S
C2685 C2686 1.366 . S
C2685 C2687 1.388 . S
C2686 C2685 1.366 . S
C2686 C2690 1.385 . S
C2687 H2662 0.951 . S
C2687 C2685 1.388 . S
C2687 C2688 1.366 . S
C2688 C2687 1.366 . S
C2688 C2689 1.414 . S
C2688 C2691 1.499 . S
C2689 H2663 0.950 . S
C2689 C2688 1.414 . S
C2689 C2690 1.374 . S
C2690 H2664 0.950 . S
C2690 C2686 1.385 . S
C2690 C2689 1.374 . S
C2691 C2688 1.499 . S
C2691 C2692 1.373 . S
C2691 C2693 1.389 . S
C2692 H2665 0.950 . S
C2692 C2678 1.377 1_554 S
C2692 C2691 1.373 . S
C2693 C2677 1.377 1_554 S
C2693 C2691 1.389 . S
C2693 C2694 1.524 1_455 S
C2694 C2693 1.524 1_655 S
C2694 C2695 1.397 . S
C2694 C2699 1.363 . S
C2695 H2666 0.950 . S
C2695 C2694 1.397 . S
C2695 C2696 1.334 . S
C2696 H2667 0.950 . S
C2696 C2695 1.334 . S
C2696 C2697 1.287 . S
C2697 C2696 1.287 . S
C2697 C2698 1.524 . S
C2697 H2700 0.999 . S
C2698 H2668 0.950 . S
C2698 C2697 1.524 . S
C2698 C2699 1.415 . S
C2699 H2669 0.950 1_655 S
C2699 C2694 1.363 . S
C2699 C2698 1.415 . S
H2700 C2697 0.999 . S
H2701 C2682 0.913 . S
H2702 C2720 0.951 . S
H2703 C2722 0.951 . S
H2704 C2724 0.950 . S
H2705 C2725 0.950 . S
H2706 C2727 0.950 . S
H2707 C2730 0.950 . S
H2708 C2731 0.950 . S
H2709 C2733 0.950 . S
H2710 C2734 0.950 . S
H2711 C2735 0.951 . S
H2712 C2737 0.951 . S
H2713 C2739 0.950 . S
H2714 C2740 0.950 . S
H2715 C2742 0.950 . S
H2716 C2745 0.950 . S
H2717 C2746 0.950 . S
H2718 C2748 0.950 . S
H2719 C2749 0.958 . S
C2720 H2702 0.951 . S
C2720 C2721 1.366 . S
C2720 C2722 1.388 . S
C2721 C2720 1.366 . S
C2721 C2725 1.385 . S
C2722 H2703 0.951 . S
C2722 C2720 1.388 . S
C2722 C2723 1.366 . S
C2723 C2722 1.366 . S
C2723 C2724 1.414 . S
C2723 C2726 1.499 . S
C2724 H2704 0.950 . S
C2724 C2723 1.414 . S
C2724 C2725 1.374 . S
C2725 H2705 0.950 . S
C2725 C2721 1.385 . S
C2725 C2724 1.374 . S
C2726 C2723 1.499 . S
C2726 C2727 1.373 . S
C2726 C2728 1.389 . S
C2727 H2706 0.950 . S
C2727 C2726 1.373 . S
C2727 C2743 1.377 . S
C2728 C2726 1.389 . S
C2728 C2729 1.524 . S
C2728 C2742 1.377 . S
C2729 C2728 1.524 . S
C2729 C2730 1.397 . S
C2729 C2734 1.363 . S
C2730 H2707 0.950 . S
C2730 C2729 1.397 . S
C2730 C2731 1.334 . S
C2731 H2708 0.950 . S
C2731 C2730 1.334 . S
C2731 C2732 1.287 . S
C2732 C2731 1.287 . S
C2732 C2733 1.524 . S
C2732 H2751 0.913 . S
C2733 H2709 0.950 . S
C2733 C2732 1.524 . S
C2733 C2734 1.415 . S
C2734 H2710 0.950 . S
C2734 C2729 1.363 . S
C2734 C2733 1.415 . S
C2735 H2711 0.951 . S
C2735 C2736 1.366 . S
C2735 C2737 1.388 . S
C2736 C2735 1.366 . S
C2736 C2740 1.385 . S
C2737 H2712 0.951 . S
C2737 C2735 1.388 . S
C2737 C2738 1.366 . S
C2738 C2737 1.366 . S
C2738 C2739 1.414 . S
C2738 C2741 1.499 . S
C2739 H2713 0.950 . S
C2739 C2738 1.414 . S
C2739 C2740 1.374 . S
C2740 H2714 0.950 . S
C2740 C2736 1.385 . S
C2740 C2739 1.374 . S
C2741 C2738 1.499 . S
C2741 C2742 1.373 . S
C2741 C2743 1.389 . S
C2742 H2715 0.950 . S
C2742 C2728 1.377 . S
C2742 C2741 1.373 . S
C2743 C2727 1.377 . S
C2743 C2741 1.389 . S
C2743 C2744 1.534 . S
C2744 C2743 1.534 . S
C2744 C2745 1.387 1_545 S
C2744 C2749 1.363 . S
C2745 H2716 0.950 . S
C2745 C2744 1.387 1_565 S
C2745 C2746 1.334 . S
C2746 H2717 0.950 . S
C2746 C2745 1.334 . S
C2746 C2747 1.287 . S
C2747 C2746 1.287 . S
C2747 C2748 1.524 . S
C2747 H2750 0.999 . S
C2748 H2718 0.950 . S
C2748 C2747 1.524 . S
C2748 C2749 1.407 1_565 S
C2749 H2719 0.958 . S
C2749 C2744 1.363 . S
C2749 C2748 1.407 1_545 S
H2750 C2747 0.999 . S
H2751 C2732 0.913 . S
C371 C7 1.037 . S
C386 C202 1.049 . S
C421 C29 1.037 . S
C436 C224 1.049 . S
C471 C246 1.048 . S
C486 C51 1.036 . S
C521 C184 1.048 . S
C536 C73 1.036 . S
C571 C95 1.037 . S
C586 C338 1.049 . S
C621 C272 1.048 . S
C636 C116 1.036 . S
C671 C294 1.049 . S
C686 C138 1.037 . S
C721 C316 1.048 . S
C736 C160 1.037 . S
C771 C30 1.049 . S
C786 C185 1.036 . S
C821 C203 1.037 . S
C836 C52 1.049 . S
C871 C74 1.049 . S
C886 C225 1.037 . S
C921 C8 1.048 . S
C936 C247 1.037 . S
C971 C158 1.049 . S
C986 C273 1.036 . S
C1021 C96 1.049 . S
C1036 C295 1.036 . S
C1071 C317 1.037 . S
C1086 C114 1.049 . S
C1121 C136 1.049 . S
C1136 C339 1.036 . S
C1171 C4 1.416 . S
C1186 C337 1.449 . S
C1221 C26 1.416 . S
C1236 C271 1.448 . S
C1271 C48 1.416 . S
C1286 C293 1.448 . S
C1321 C315 1.449 . S
C1336 C70 1.416 . S
C1371 C92 1.416 . S
C1386 C204 1.448 . S
C1421 C118 1.417 . S
C1436 C226 1.449 . S
C1471 C140 1.417 . S
C1486 C248 1.448 . S
C1521 C183 1.448 . S
C1536 C162 1.415 . S
C1571 C180 1.416 . S
C1586 C159 1.449 . S
C1621 C206 1.416 . S
C1636 C97 1.449 . S
C1671 C228 1.416 . S
C1686 C115 1.449 . S
C1721 C250 1.417 . S
C1736 C137 1.449 . S
C1771 C31 1.448 . S
C1786 C268 1.416 . S
C1821 C53 1.449 . S
C1836 C290 1.416 . S
C1871 C75 1.448 . S
C1886 C312 1.416 . S
C1921 C334 1.416 . S
C1936 C9 1.448 . S
C1971 C161 1.268 . S
C1986 C6 1.246 . S
C2021 C94 1.244 . S
C2036 C28 1.244 . S
C2071 C50 1.267 . S
C2086 C117 1.246 . S
C2121 C72 1.268 . S
C2136 C139 1.266 . S
C2171 C335 1.267 . S
C2186 C181 1.246 . S
C2221 C207 1.244 . S
C2236 C269 1.244 . S
C2271 C291 1.245 . S
C2286 C229 1.268 . S
C2321 C251 1.266 . S
C2336 C313 1.267 . S
C2371 C5 1.118 . S
C2386 C93 1.120 . S
C2421 C119 1.120 . S
C2436 C27 1.118 . S
C2471 C49 1.120 . S
C2486 C141 1.118 . S
C2521 C163 1.120 . S
C2536 C71 1.118 . S
C2571 C270 1.120 . S
C2586 C182 1.118 . S
C2621 C292 1.120 . S
C2636 C205 1.118 . S
C2671 C227 1.120 . S
C2686 C314 1.118 . S
C2721 C249 1.120 . S
C2736 C336 1.118 . S
