# Generated by pormake.
# Topology ict, (4)-cn, num edge types: 1
# Building blocks:
#     Node 0, Type 0, BuildingBlock: QUQFOY_clean_sbu_1, # of connection points: 4
#     Node 1, Type 0, BuildingBlock: QUQFOY_clean_sbu_1, # of connection points: 4
#     Node 2, Type 0, BuildingBlock: QUQFOY_clean_sbu_1, # of connection points: 4
#     Node 3, Type 0, BuildingBlock: QUQFOY_clean_sbu_1, # of connection points: 4
#     Node 4, Type 0, BuildingBlock: QUQFOY_clean_sbu_1, # of connection points: 4
#     Node 5, Type 0, BuildingBlock: QUQFOY_clean_sbu_1, # of connection points: 4
#     Node 6, Type 0, BuildingBlock: QUQFOY_clean_sbu_1, # of connection points: 4
#     Node 7, Type 0, BuildingBlock: QUQFOY_clean_sbu_1, # of connection points: 4
#     Node 8, Type 0, BuildingBlock: QUQFOY_clean_sbu_1, # of connection points: 4
#     Node 9, Type 0, BuildingBlock: QUQFOY_clean_sbu_1, # of connection points: 4
#     Node 10, Type 0, BuildingBlock: QUQFOY_clean_sbu_1, # of connection points: 4
#     Node 11, Type 0, BuildingBlock: QUQFOY_clean_sbu_1, # of connection points: 4
#     Node 12, Type 0, BuildingBlock: QUQFOY_clean_sbu_1, # of connection points: 4
#     Node 13, Type 0, BuildingBlock: QUQFOY_clean_sbu_1, # of connection points: 4
#     Node 14, Type 0, BuildingBlock: QUQFOY_clean_sbu_1, # of connection points: 4
#     Node 15, Type 0, BuildingBlock: QUQFOY_clean_sbu_1, # of connection points: 4
#     Node 16, Type 0, BuildingBlock: QUQFOY_clean_sbu_1, # of connection points: 4
#     Node 17, Type 0, BuildingBlock: QUQFOY_clean_sbu_1, # of connection points: 4
#     Node 18, Type 0, BuildingBlock: QUQFOY_clean_sbu_1, # of connection points: 4
#     Node 19, Type 0, BuildingBlock: QUQFOY_clean_sbu_1, # of connection points: 4
#     Node 20, Type 0, BuildingBlock: QUQFOY_clean_sbu_1, # of connection points: 4
#     Node 21, Type 0, BuildingBlock: QUQFOY_clean_sbu_1, # of connection points: 4
#     Node 22, Type 0, BuildingBlock: QUQFOY_clean_sbu_1, # of connection points: 4
#     Node 23, Type 0, BuildingBlock: QUQFOY_clean_sbu_1, # of connection points: 4
#     Node 24, Type 0, BuildingBlock: QUQFOY_clean_sbu_1, # of connection points: 4
#     Node 25, Type 0, BuildingBlock: QUQFOY_clean_sbu_1, # of connection points: 4
#     Node 26, Type 0, BuildingBlock: QUQFOY_clean_sbu_1, # of connection points: 4
#     Node 27, Type 0, BuildingBlock: QUQFOY_clean_sbu_1, # of connection points: 4
#     Node 28, Type 0, BuildingBlock: QUQFOY_clean_sbu_1, # of connection points: 4
#     Node 29, Type 0, BuildingBlock: QUQFOY_clean_sbu_1, # of connection points: 4
#     Node 30, Type 0, BuildingBlock: QUQFOY_clean_sbu_1, # of connection points: 4
#     Node 31, Type 0, BuildingBlock: QUQFOY_clean_sbu_1, # of connection points: 4
#     Node 32, Type 0, BuildingBlock: QUQFOY_clean_sbu_1, # of connection points: 4
#     Node 33, Type 0, BuildingBlock: QUQFOY_clean_sbu_1, # of connection points: 4
#     Node 34, Type 0, BuildingBlock: QUQFOY_clean_sbu_1, # of connection points: 4
#     Node 35, Type 0, BuildingBlock: QUQFOY_clean_sbu_1, # of connection points: 4
#     Edge 36, Type (0, 0), BuildingBlock: MIFKUJ_clean_linker_0, # of connection points: 2
#     Edge 37, Type (0, 0), BuildingBlock: MIFKUJ_clean_linker_0, # of connection points: 2
#     Edge 38, Type (0, 0), BuildingBlock: MIFKUJ_clean_linker_0, # of connection points: 2
#     Edge 39, Type (0, 0), BuildingBlock: MIFKUJ_clean_linker_0, # of connection points: 2
#     Edge 40, Type (0, 0), BuildingBlock: MIFKUJ_clean_linker_0, # of connection points: 2
#     Edge 41, Type (0, 0), BuildingBlock: MIFKUJ_clean_linker_0, # of connection points: 2
#     Edge 42, Type (0, 0), BuildingBlock: MIFKUJ_clean_linker_0, # of connection points: 2
#     Edge 43, Type (0, 0), BuildingBlock: MIFKUJ_clean_linker_0, # of connection points: 2
#     Edge 44, Type (0, 0), BuildingBlock: MIFKUJ_clean_linker_0, # of connection points: 2
#     Edge 45, Type (0, 0), BuildingBlock: MIFKUJ_clean_linker_0, # of connection points: 2
#     Edge 46, Type (0, 0), BuildingBlock: MIFKUJ_clean_linker_0, # of connection points: 2
#     Edge 47, Type (0, 0), BuildingBlock: MIFKUJ_clean_linker_0, # of connection points: 2
#     Edge 48, Type (0, 0), BuildingBlock: MIFKUJ_clean_linker_0, # of connection points: 2
#     Edge 49, Type (0, 0), BuildingBlock: MIFKUJ_clean_linker_0, # of connection points: 2
#     Edge 50, Type (0, 0), BuildingBlock: MIFKUJ_clean_linker_0, # of connection points: 2
#     Edge 51, Type (0, 0), BuildingBlock: MIFKUJ_clean_linker_0, # of connection points: 2
#     Edge 52, Type (0, 0), BuildingBlock: MIFKUJ_clean_linker_0, # of connection points: 2
#     Edge 53, Type (0, 0), BuildingBlock: MIFKUJ_clean_linker_0, # of connection points: 2
#     Edge 54, Type (0, 0), BuildingBlock: MIFKUJ_clean_linker_0, # of connection points: 2
#     Edge 55, Type (0, 0), BuildingBlock: MIFKUJ_clean_linker_0, # of connection points: 2
#     Edge 56, Type (0, 0), BuildingBlock: MIFKUJ_clean_linker_0, # of connection points: 2
#     Edge 57, Type (0, 0), BuildingBlock: MIFKUJ_clean_linker_0, # of connection points: 2
#     Edge 58, Type (0, 0), BuildingBlock: MIFKUJ_clean_linker_0, # of connection points: 2
#     Edge 59, Type (0, 0), BuildingBlock: MIFKUJ_clean_linker_0, # of connection points: 2
#     Edge 60, Type (0, 0), BuildingBlock: MIFKUJ_clean_linker_0, # of connection points: 2
#     Edge 61, Type (0, 0), BuildingBlock: MIFKUJ_clean_linker_0, # of connection points: 2
#     Edge 62, Type (0, 0), BuildingBlock: MIFKUJ_clean_linker_0, # of connection points: 2
#     Edge 63, Type (0, 0), BuildingBlock: MIFKUJ_clean_linker_0, # of connection points: 2
#     Edge 64, Type (0, 0), BuildingBlock: MIFKUJ_clean_linker_0, # of connection points: 2
#     Edge 65, Type (0, 0), BuildingBlock: MIFKUJ_clean_linker_0, # of connection points: 2
#     Edge 66, Type (0, 0), BuildingBlock: MIFKUJ_clean_linker_0, # of connection points: 2
#     Edge 67, Type (0, 0), BuildingBlock: MIFKUJ_clean_linker_0, # of connection points: 2
#     Edge 68, Type (0, 0), BuildingBlock: MIFKUJ_clean_linker_0, # of connection points: 2
#     Edge 69, Type (0, 0), BuildingBlock: MIFKUJ_clean_linker_0, # of connection points: 2
#     Edge 70, Type (0, 0), BuildingBlock: MIFKUJ_clean_linker_0, # of connection points: 2
#     Edge 71, Type (0, 0), BuildingBlock: MIFKUJ_clean_linker_0, # of connection points: 2
#     Edge 72, Type (0, 0), BuildingBlock: MIFKUJ_clean_linker_0, # of connection points: 2
#     Edge 73, Type (0, 0), BuildingBlock: MIFKUJ_clean_linker_0, # of connection points: 2
#     Edge 74, Type (0, 0), BuildingBlock: MIFKUJ_clean_linker_0, # of connection points: 2
#     Edge 75, Type (0, 0), BuildingBlock: MIFKUJ_clean_linker_0, # of connection points: 2
#     Edge 76, Type (0, 0), BuildingBlock: MIFKUJ_clean_linker_0, # of connection points: 2
#     Edge 77, Type (0, 0), BuildingBlock: MIFKUJ_clean_linker_0, # of connection points: 2
#     Edge 78, Type (0, 0), BuildingBlock: MIFKUJ_clean_linker_0, # of connection points: 2
#     Edge 79, Type (0, 0), BuildingBlock: MIFKUJ_clean_linker_0, # of connection points: 2
#     Edge 80, Type (0, 0), BuildingBlock: MIFKUJ_clean_linker_0, # of connection points: 2
#     Edge 81, Type (0, 0), BuildingBlock: MIFKUJ_clean_linker_0, # of connection points: 2
#     Edge 82, Type (0, 0), BuildingBlock: MIFKUJ_clean_linker_0, # of connection points: 2
#     Edge 83, Type (0, 0), BuildingBlock: MIFKUJ_clean_linker_0, # of connection points: 2
#     Edge 84, Type (0, 0), BuildingBlock: MIFKUJ_clean_linker_0, # of connection points: 2
#     Edge 85, Type (0, 0), BuildingBlock: MIFKUJ_clean_linker_0, # of connection points: 2
#     Edge 86, Type (0, 0), BuildingBlock: MIFKUJ_clean_linker_0, # of connection points: 2
#     Edge 87, Type (0, 0), BuildingBlock: MIFKUJ_clean_linker_0, # of connection points: 2
#     Edge 88, Type (0, 0), BuildingBlock: MIFKUJ_clean_linker_0, # of connection points: 2
#     Edge 89, Type (0, 0), BuildingBlock: MIFKUJ_clean_linker_0, # of connection points: 2
#     Edge 90, Type (0, 0), BuildingBlock: MIFKUJ_clean_linker_0, # of connection points: 2
#     Edge 91, Type (0, 0), BuildingBlock: MIFKUJ_clean_linker_0, # of connection points: 2
#     Edge 92, Type (0, 0), BuildingBlock: MIFKUJ_clean_linker_0, # of connection points: 2
#     Edge 93, Type (0, 0), BuildingBlock: MIFKUJ_clean_linker_0, # of connection points: 2
#     Edge 94, Type (0, 0), BuildingBlock: MIFKUJ_clean_linker_0, # of connection points: 2
#     Edge 95, Type (0, 0), BuildingBlock: MIFKUJ_clean_linker_0, # of connection points: 2
#     Edge 96, Type (0, 0), BuildingBlock: MIFKUJ_clean_linker_0, # of connection points: 2
#     Edge 97, Type (0, 0), BuildingBlock: MIFKUJ_clean_linker_0, # of connection points: 2
#     Edge 98, Type (0, 0), BuildingBlock: MIFKUJ_clean_linker_0, # of connection points: 2
#     Edge 99, Type (0, 0), BuildingBlock: MIFKUJ_clean_linker_0, # of connection points: 2
#     Edge 100, Type (0, 0), BuildingBlock: MIFKUJ_clean_linker_0, # of connection points: 2
#     Edge 101, Type (0, 0), BuildingBlock: MIFKUJ_clean_linker_0, # of connection points: 2
#     Edge 102, Type (0, 0), BuildingBlock: MIFKUJ_clean_linker_0, # of connection points: 2
#     Edge 103, Type (0, 0), BuildingBlock: MIFKUJ_clean_linker_0, # of connection points: 2
#     Edge 104, Type (0, 0), BuildingBlock: MIFKUJ_clean_linker_0, # of connection points: 2
#     Edge 105, Type (0, 0), BuildingBlock: MIFKUJ_clean_linker_0, # of connection points: 2
#     Edge 106, Type (0, 0), BuildingBlock: MIFKUJ_clean_linker_0, # of connection points: 2
#     Edge 107, Type (0, 0), BuildingBlock: MIFKUJ_clean_linker_0, # of connection points: 2
# Relax obj value: 0.123
# Max RMSD: 0.186
# Mean RMSD: 0.186
data_MOF--net-ict--node1-QUQFOY_clean_sbu_1--edge1-MIFKUJ_clean_linker_0
_symmetry_space_group_name_H-M    P1
_symmetry_Int_Tables_number       1
_symmetry_cell_setting            triclinic
loop_
_symmetry_equiv_pos_as_xyz
'x, y, z'
_cell_length_a     90.404538
_cell_length_b     90.401819
_cell_length_c     46.941164
_cell_angle_alpha  90.007913
_cell_angle_beta   89.995844
_cell_angle_gamma 120.00331
loop_
_atom_site_label
_atom_site_type_symbol
_atom_site_fract_x
_atom_site_fract_y
_atom_site_fract_z
_atom_type_partial_charge
O0 O 0.2437 0.19094 0.04033 0.0
Cd1 Cd 0.24764 0.21524 0.04739 0.0
Cd2 Cd 0.21294 0.1988 0.04506 0.0
O3 O 0.21606 0.17878 0.03186 0.0
O4 O 0.27225 0.2312 0.04005 0.0
O5 O 0.25161 0.23037 0.01342 0.0
C6 C 0.26773 0.23689 0.01855 0.0
C7 C 0.19294 0.20388 0.0223 0.0
C8 C 0.22965 0.17792 0.03313 0.0
C9 C 0.22956 0.21491 0.10069 0.0
O10 O 0.21584 0.20476 0.08773 0.0
O11 O 0.24379 0.22149 0.0878 0.0
O12 O 0.18836 0.19073 0.03834 0.0
O13 O 0.20909 0.21399 0.01823 0.0
O14 O 0.81024 0.05355 0.03093 0.0
Cd15 Cd 0.78598 0.03379 0.03949 0.0
Cd16 Cd 0.80125 0.01408 0.03545 0.0
O17 O 0.82183 0.0374 0.02384 0.0
O18 O 0.77024 0.04277 0.03305 0.0
O19 O 0.76971 0.02205 0.00705 0.0
C20 C 0.76361 0.03199 0.01244 0.0
C21 C 0.79681 0.98947 0.01176 0.0
C22 C 0.82308 0.05205 0.02444 0.0
C23 C 0.78563 0.01494 0.09182 0.0
O24 O 0.7942 0.00982 0.07772 0.0
O25 O 0.78073 0.02445 0.08029 0.0
O26 O 0.8096 0.99781 0.02857 0.0
O27 O 0.78669 0.99547 0.00742 0.0
O28 O 0.94941 0.76002 0.03216 0.0
Cd29 Cd 0.96881 0.75509 0.04207 0.0
Cd30 Cd 0.98754 0.78981 0.03952 0.0
O31 O 0.96542 0.78745 0.02264 0.0
O32 O 0.95798 0.73012 0.03581 0.0
O33 O 0.98038 0.74903 0.01121 0.0
C34 C 0.96901 0.73328 0.01595 0.0
C35 C 0.01389 0.80938 0.01976 0.0
C36 C 0.95084 0.77401 0.02359 0.0
C37 C 0.98435 0.77302 0.09631 0.0
O38 O 0.98836 0.78671 0.08288 0.0
O39 O 0.97735 0.75877 0.08341 0.0
O40 O 0.00482 0.81425 0.03375 0.0
O41 O 0.00768 0.79318 0.01596 0.0
O42 O 0.19185 0.24414 0.46464 0.0
Cd43 Cd 0.21607 0.24837 0.45558 0.0
Cd44 Cd 0.19937 0.21369 0.45666 0.0
O45 O 0.17982 0.21653 0.47302 0.0
O46 O 0.23113 0.27303 0.46364 0.0
O47 O 0.23289 0.25276 0.48715 0.0
C48 C 0.23822 0.26881 0.48338 0.0
C49 C 0.20481 0.19326 0.47665 0.0
C50 C 0.17901 0.23015 0.47248 0.0
C51 C 0.21404 0.2311 0.40073 0.0
O52 O 0.20393 0.21729 0.41351 0.0
O53 O 0.2214 0.24515 0.41422 0.0
O54 O 0.19126 0.18899 0.46187 0.0
O55 O 0.21526 0.20933 0.48083 0.0
O56 O 0.75893 0.94571 0.45528 0.0
Cd57 Cd 0.75307 0.96445 0.44619 0.0
Cd58 Cd 0.78805 0.98528 0.44685 0.0
O59 O 0.78674 0.96275 0.45955 0.0
O60 O 0.72858 0.95432 0.45599 0.0
O61 O 0.74911 0.97692 0.47809 0.0
C62 C 0.73306 0.96581 0.47551 0.0
C63 C 0.80901 0.01071 0.46754 0.0
C64 C 0.77366 0.94789 0.4606 0.0
C65 C 0.76906 0.98184 0.39178 0.0
O66 O 0.78325 0.98798 0.40478 0.0
O67 O 0.75514 0.97219 0.40463 0.0
O68 O 0.81283 0.00207 0.45027 0.0
O69 O 0.79311 0.00466 0.47389 0.0
O70 O 0.05453 0.80955 0.45704 0.0
Cd71 Cd 0.03394 0.7855 0.44927 0.0
Cd72 Cd 0.01616 0.80152 0.45417 0.0
O73 O 0.03903 0.82116 0.46895 0.0
O74 O 0.04154 0.76887 0.45816 0.0
O75 O 0.02154 0.77066 0.48272 0.0
C76 C 0.03085 0.76364 0.47908 0.0
C77 C 0.99081 0.7945 0.47783 0.0
C78 C 0.05352 0.82223 0.46629 0.0
C79 C 0.01676 0.78738 0.39682 0.0
O80 O 0.01361 0.7975 0.41086 0.0
O81 O 0.02385 0.77995 0.40882 0.0
O82 O 0.99913 0.80852 0.46368 0.0
O83 O 0.99721 0.78456 0.47941 0.0
O84 O 0.75586 0.80904 0.95414 0.0
Cd85 Cd 0.75102 0.78442 0.94735 0.0
Cd86 Cd 0.78587 0.80044 0.94618 0.0
O87 O 0.78376 0.82106 0.95928 0.0
O88 O 0.72675 0.76955 0.95813 0.0
O89 O 0.74807 0.76925 0.98079 0.0
C90 C 0.73186 0.76352 0.97835 0.0
C91 C 0.8076 0.79665 0.9654 0.0
C92 C 0.77026 0.82211 0.9595 0.0
C93 C 0.7665 0.78341 0.89227 0.0
O94 O 0.78074 0.79328 0.90409 0.0
O95 O 0.75271 0.77744 0.90636 0.0
O96 O 0.81082 0.80906 0.94838 0.0
O97 O 0.79187 0.78652 0.97247 0.0
O98 O 0.19534 0.94827 0.96198 0.0
Cd99 Cd 0.21934 0.96913 0.95496 0.0
Cd100 Cd 0.20235 0.98648 0.95638 0.0
O101 O 0.18285 0.96339 0.97074 0.0
O102 O 0.23616 0.96213 0.96571 0.0
O103 O 0.23342 0.98199 0.9889 0.0
C104 C 0.24084 0.973 0.98631 0.0
C105 C 0.20665 0.01173 0.97746 0.0
C106 C 0.18224 0.94905 0.96954 0.0
C107 C 0.21863 0.98577 0.901 0.0
O108 O 0.20804 0.98886 0.91359 0.0
O109 O 0.22576 0.97881 0.91436 0.0
O110 O 0.19347 0.00242 0.96191 0.0
O111 O 0.21728 0.00638 0.98203 0.0
O112 O 0.0547 0.24579 0.95675 0.0
Cd113 Cd 0.03461 0.25032 0.95116 0.0
Cd114 Cd 0.01582 0.21557 0.95265 0.0
O115 O 0.03879 0.21826 0.96569 0.0
O116 O 0.04351 0.27463 0.96135 0.0
O117 O 0.02314 0.2531 0.98575 0.0
C118 C 0.03304 0.26937 0.98256 0.0
C119 C 0.9906 0.19445 0.97364 0.0
C120 C 0.0534 0.23163 0.96393 0.0
C121 C 0.01647 0.23325 0.89785 0.0
O122 O 0.01298 0.21939 0.91023 0.0
O123 O 0.02425 0.24735 0.91112 0.0
O124 O 0.99967 0.19071 0.95726 0.0
O125 O 0.99617 0.21038 0.97913 0.0
O126 O 0.8113 0.75519 0.53581 0.0
Cd127 Cd 0.78729 0.75251 0.5404 0.0
Cd128 Cd 0.80505 0.78676 0.54131 0.0
O129 O 0.82482 0.78306 0.52927 0.0
O130 O 0.77053 0.72891 0.52839 0.0
O131 O 0.77443 0.75194 0.50516 0.0
C132 C 0.76664 0.73549 0.50734 0.0
C133 C 0.80149 0.80791 0.51938 0.0
C134 C 0.82494 0.76908 0.53019 0.0
C135 C 0.78649 0.76897 0.59462 0.0
O136 O 0.79787 0.78279 0.5834 0.0
O137 O 0.7795 0.75522 0.58031 0.0
O138 O 0.81416 0.81165 0.53616 0.0
O139 O 0.79102 0.79198 0.51409 0.0
O140 O 0.24387 0.05256 0.53713 0.0
Cd141 Cd 0.24889 0.03307 0.54587 0.0
Cd142 Cd 0.21419 0.01443 0.54701 0.0
O143 O 0.21595 0.03675 0.53252 0.0
O144 O 0.27349 0.04348 0.53674 0.0
O145 O 0.25342 0.02091 0.51399 0.0
C146 C 0.26938 0.03216 0.51706 0.0
C147 C 0.19414 0.98854 0.52652 0.0
C148 C 0.22951 0.05123 0.53151 0.0
C149 C 0.23304 0.01757 0.60156 0.0
O150 O 0.21881 0.01308 0.58959 0.0
O151 O 0.24683 0.02501 0.5874 0.0
O152 O 0.18964 0.99713 0.54267 0.0
O153 O 0.21022 0.9949 0.52126 0.0
O154 O 0.94733 0.19069 0.53452 0.0
Cd155 Cd 0.96593 0.21551 0.54379 0.0
Cd156 Cd 0.98576 0.20002 0.54588 0.0
O157 O 0.96389 0.17937 0.53039 0.0
O158 O 0.95418 0.22851 0.53499 0.0
O159 O 0.97748 0.23283 0.51242 0.0
C160 C 0.96549 0.23651 0.5156 0.0
C161 C 0.01202 0.20518 0.52786 0.0
C162 C 0.94922 0.17799 0.52887 0.0
C163 C 0.98129 0.21557 0.59991 0.0
O164 O 0.98626 0.20612 0.58826 0.0
O165 O 0.97367 0.22161 0.58543 0.0
O166 O 0.00286 0.19236 0.54419 0.0
O167 O 0.00607 0.21505 0.52103 0.0
O168 O 0.90691 0.52292 0.37069 0.0
Cd169 Cd 0.91388 0.54818 0.3767 0.0
Cd170 Cd 0.87792 0.53311 0.38076 0.0
O171 O 0.87885 0.51128 0.37121 0.0
O172 O 0.93845 0.56037 0.36646 0.0
O173 O 0.91929 0.56413 0.34326 0.0
C174 C 0.93495 0.56771 0.34616 0.0
C175 C 0.85531 0.53571 0.3623 0.0
C176 C 0.8921 0.50987 0.36871 0.0
C177 C 0.90013 0.55272 0.43162 0.0
O178 O 0.88541 0.5437 0.42072 0.0
O179 O 0.91345 0.55631 0.4174 0.0
O180 O 0.85309 0.52521 0.38256 0.0
O181 O 0.87043 0.54448 0.35154 0.0
O182 O 0.47516 0.38714 0.38148 0.0
Cd183 Cd 0.45137 0.36562 0.38598 0.0
Cd184 Cd 0.46917 0.34952 0.38229 0.0
O185 O 0.48778 0.37294 0.36737 0.0
O186 O 0.43431 0.37222 0.37478 0.0
O187 O 0.43884 0.35388 0.35028 0.0
C188 C 0.4309 0.36237 0.35292 0.0
C189 C 0.46493 0.32449 0.36058 0.0
C190 C 0.48815 0.38702 0.37143 0.0
C191 C 0.45247 0.34814 0.43816 0.0
O192 O 0.46406 0.34673 0.42534 0.0
O193 O 0.4443 0.35416 0.42526 0.0
O194 O 0.47841 0.33399 0.37539 0.0
O195 O 0.45404 0.32961 0.35693 0.0
O196 O 0.61084 0.08687 0.36884 0.0
Cd197 Cd 0.63144 0.08364 0.37794 0.0
Cd198 Cd 0.64898 0.11823 0.37492 0.0
O199 O 0.62609 0.11436 0.35902 0.0
O200 O 0.62364 0.05916 0.37127 0.0
O201 O 0.64383 0.08002 0.3455 0.0
C202 C 0.63449 0.06387 0.35067 0.0
C203 C 0.67451 0.13883 0.35413 0.0
C204 C 0.61174 0.10064 0.36023 0.0
C205 C 0.64748 0.10225 0.43165 0.0
O206 O 0.65084 0.11575 0.41817 0.0
O207 O 0.64063 0.08796 0.41893 0.0
O208 O 0.66499 0.14294 0.36858 0.0
O209 O 0.66919 0.12278 0.35043 0.0
O210 O 0.85668 0.57553 0.79137 0.0
Cd211 Cd 0.88169 0.58162 0.78503 0.0
Cd212 Cd 0.86668 0.54656 0.78225 0.0
O213 O 0.845 0.54752 0.79281 0.0
O214 O 0.89479 0.60613 0.79542 0.0
O215 O 0.89765 0.58627 0.81816 0.0
C216 C 0.90188 0.60213 0.81546 0.0
C217 C 0.87119 0.52585 0.80378 0.0
C218 C 0.84363 0.56082 0.79447 0.0
C219 C 0.88506 0.56714 0.72997 0.0
O220 O 0.87576 0.55254 0.74113 0.0
O221 O 0.88935 0.58063 0.74422 0.0
O222 O 0.85933 0.5219 0.78515 0.0
O223 O 0.88036 0.54172 0.81095 0.0
O224 O 0.42422 0.27705 0.80177 0.0
Cd225 Cd 0.41955 0.29665 0.7921 0.0
Cd226 Cd 0.4543 0.31535 0.79173 0.0
O227 O 0.45199 0.29318 0.80823 0.0
O228 O 0.39516 0.2879 0.80154 0.0
O229 O 0.41644 0.30967 0.82404 0.0
C230 C 0.4002 0.29942 0.82111 0.0
C231 C 0.47511 0.34169 0.80999 0.0
C232 C 0.43851 0.27861 0.80878 0.0
C233 C 0.43586 0.31134 0.73635 0.0
O234 O 0.44995 0.31579 0.74877 0.0
O235 O 0.42198 0.30437 0.75032 0.0
O236 O 0.47908 0.33219 0.79519 0.0
O237 O 0.45914 0.33596 0.81541 0.0
O238 O 0.72242 0.14293 0.79103 0.0
Cd239 Cd 0.70168 0.11889 0.78354 0.0
Cd240 Cd 0.68419 0.13527 0.7877 0.0
O241 O 0.70713 0.15489 0.80227 0.0
O242 O 0.709 0.10209 0.79275 0.0
O243 O 0.6891 0.10417 0.81704 0.0
C244 C 0.69822 0.09695 0.81352 0.0
C245 C 0.65881 0.12852 0.81104 0.0
C246 C 0.72155 0.15578 0.79984 0.0
C247 C 0.68461 0.12061 0.73077 0.0
O248 O 0.68162 0.13095 0.74447 0.0
O249 O 0.69159 0.11316 0.74309 0.0
O250 O 0.66722 0.14244 0.79667 0.0
O251 O 0.66516 0.11855 0.81309 0.0
O252 O 0.42305 0.14442 0.29401 0.0
Cd253 Cd 0.41724 0.11987 0.28373 0.0
Cd254 Cd 0.45205 0.13481 0.28425 0.0
O255 O 0.45076 0.15541 0.30006 0.0
O256 O 0.39256 0.10595 0.29257 0.0
O257 O 0.41227 0.10243 0.31445 0.0
C258 C 0.3964 0.09811 0.31151 0.0
C259 C 0.47212 0.12852 0.30341 0.0
C260 C 0.43753 0.15692 0.30083 0.0
C261 C 0.43355 0.12053 0.22855 0.0
O262 O 0.44766 0.1295 0.2414 0.0
O263 O 0.41953 0.11453 0.24196 0.0
O264 O 0.47659 0.14187 0.28798 0.0
O265 O 0.45606 0.11883 0.30889 0.0
O266 O 0.85414 0.28038 0.29361 0.0
Cd267 Cd 0.87848 0.30025 0.28506 0.0
Cd268 Cd 0.86172 0.3184 0.28437 0.0
O269 O 0.84165 0.29579 0.29901 0.0
O270 O 0.89306 0.29013 0.29336 0.0
O271 O 0.89514 0.31222 0.3171 0.0
C272 C 0.90014 0.30124 0.31338 0.0
C273 C 0.86691 0.34383 0.30585 0.0
C274 C 0.841 0.28143 0.29968 0.0
C275 C 0.87771 0.31599 0.22966 0.0
O276 O 0.86764 0.32005 0.24166 0.0
O277 O 0.88437 0.3088 0.24375 0.0
O278 O 0.85383 0.33516 0.28971 0.0
O279 O 0.87706 0.33788 0.31032 0.0
O280 O 0.71703 0.57617 0.28935 0.0
Cd281 Cd 0.6993 0.58332 0.2792 0.0
Cd282 Cd 0.67718 0.54797 0.27878 0.0
O283 O 0.69966 0.54823 0.28814 0.0
O284 O 0.71077 0.60824 0.28648 0.0
O285 O 0.68819 0.58933 0.31083 0.0
C286 C 0.69968 0.60505 0.30625 0.0
C287 C 0.65191 0.52756 0.30066 0.0
C288 C 0.7145 0.56107 0.2916 0.0
C289 C 0.68042 0.56775 0.22503 0.0
O290 O 0.67343 0.55352 0.23794 0.0
O291 O 0.69136 0.58128 0.23754 0.0
O292 O 0.65952 0.52344 0.28174 0.0
O293 O 0.65905 0.5434 0.30819 0.0
O294 O 0.47836 0.08643 0.87201 0.0
Cd295 Cd 0.45433 0.08348 0.87829 0.0
Cd296 Cd 0.47169 0.11763 0.87707 0.0
O297 O 0.4912 0.11404 0.86312 0.0
O298 O 0.43747 0.0597 0.86729 0.0
O299 O 0.44047 0.0824 0.84413 0.0
C300 C 0.4329 0.06598 0.84667 0.0
C301 C 0.46695 0.13824 0.85599 0.0
C302 C 0.49163 0.10023 0.86468 0.0
C303 C 0.45497 0.10094 0.9321 0.0
O304 O 0.46606 0.11449 0.91982 0.0
O305 O 0.44753 0.08691 0.91858 0.0
O306 O 0.48031 0.14237 0.8712 0.0
O307 O 0.45648 0.1222 0.85156 0.0
O308 O 0.91254 0.38736 0.87168 0.0
Cd309 Cd 0.91686 0.36718 0.8778 0.0
Cd310 Cd 0.88257 0.34854 0.87419 0.0
O311 O 0.88535 0.37143 0.86039 0.0
O312 O 0.94113 0.37561 0.86787 0.0
O313 O 0.91943 0.35546 0.84339 0.0
C314 C 0.93574 0.36514 0.84666 0.0
C315 C 0.86243 0.32317 0.8523 0.0
C316 C 0.89859 0.38606 0.86313 0.0
C317 C 0.8989 0.34922 0.93044 0.0
O318 O 0.88535 0.34582 0.91707 0.0
O319 O 0.91326 0.35683 0.91795 0.0
O320 O 0.85796 0.33199 0.86788 0.0
O321 O 0.87855 0.3291 0.84812 0.0
O322 O 0.61276 0.5243 0.86235 0.0
Cd323 Cd 0.63175 0.54892 0.87106 0.0
Cd324 Cd 0.65237 0.53373 0.87057 0.0
O325 O 0.62931 0.5129 0.85862 0.0
O326 O 0.62088 0.56311 0.86573 0.0
O327 O 0.64248 0.5661 0.83932 0.0
C328 C 0.63158 0.5709 0.84543 0.0
C329 C 0.67724 0.53736 0.84881 0.0
C330 C 0.6146 0.51148 0.85748 0.0
C331 C 0.6501 0.55028 0.92506 0.0
O332 O 0.6558 0.54172 0.91244 0.0
O333 O 0.64056 0.55462 0.91207 0.0
O334 O 0.66863 0.52508 0.8664 0.0
O335 O 0.67148 0.54751 0.8428 0.0
O336 O 0.57585 0.85885 0.70242 0.0
Cd337 Cd 0.58299 0.88386 0.71104 0.0
Cd338 Cd 0.54772 0.87073 0.71102 0.0
O339 O 0.54812 0.84893 0.69876 0.0
O340 O 0.60787 0.89687 0.70327 0.0
O341 O 0.58911 0.90075 0.67896 0.0
C342 C 0.60478 0.9047 0.68324 0.0
C343 C 0.5268 0.87563 0.69121 0.0
C344 C 0.56086 0.8466 0.69759 0.0
C345 C 0.56749 0.88635 0.7655 0.0
O346 O 0.55317 0.87866 0.75283 0.0
O347 O 0.58117 0.88996 0.75243 0.0
O348 O 0.52303 0.86339 0.70893 0.0
O349 O 0.54259 0.88494 0.68377 0.0
O350 O 0.14324 0.72381 0.70413 0.0
Cd351 Cd 0.11904 0.70332 0.71139 0.0
Cd352 Cd 0.13549 0.68534 0.70795 0.0
O353 O 0.15549 0.7085 0.69494 0.0
O354 O 0.10287 0.71168 0.7041 0.0
O355 O 0.10369 0.69171 0.67789 0.0
C356 C 0.09705 0.70122 0.68292 0.0
C357 C 0.13038 0.66027 0.68513 0.0
C358 C 0.1563 0.72292 0.69668 0.0
C359 C 0.11998 0.68574 0.76429 0.0
O360 O 0.13002 0.68226 0.75077 0.0
O361 O 0.11315 0.69331 0.75188 0.0
O362 O 0.14363 0.66893 0.7009 0.0
O363 O 0.12019 0.66623 0.68127 0.0
O364 O 0.27818 0.42273 0.69905 0.0
Cd365 Cd 0.29691 0.4169 0.70907 0.0
Cd366 Cd 0.31717 0.45169 0.70963 0.0
O367 O 0.29486 0.45067 0.6966 0.0
O368 O 0.28651 0.39234 0.69951 0.0
O369 O 0.30981 0.41248 0.6784 0.0
C370 C 0.29846 0.39651 0.68094 0.0
C371 C 0.34283 0.47144 0.68809 0.0
C372 C 0.28015 0.43746 0.6945 0.0
C373 C 0.31358 0.43271 0.76438 0.0
O374 O 0.31949 0.44701 0.75185 0.0
O375 O 0.30441 0.41889 0.75092 0.0
O376 O 0.33468 0.47615 0.70487 0.0
O377 O 0.33616 0.45533 0.68278 0.0
O378 O 0.52596 0.91123 0.12829 0.0
Cd379 Cd 0.55027 0.91567 0.12032 0.0
Cd380 Cd 0.53457 0.88089 0.1206 0.0
O381 O 0.51354 0.88316 0.13079 0.0
O382 O 0.56603 0.93987 0.13061 0.0
O383 O 0.56551 0.91813 0.15327 0.0
C384 C 0.57187 0.93443 0.15062 0.0
C385 C 0.53893 0.86062 0.14406 0.0
C386 C 0.51268 0.89676 0.13215 0.0
C387 C 0.55188 0.8992 0.06633 0.0
O388 O 0.54294 0.88505 0.07906 0.0
O389 O 0.55647 0.9132 0.07913 0.0
O390 O 0.52657 0.85624 0.1263 0.0
O391 O 0.54862 0.87669 0.14944 0.0
O392 O 0.09354 0.61166 0.12476 0.0
Cd393 Cd 0.08812 0.63096 0.11663 0.0
Cd394 Cd 0.12299 0.65018 0.11774 0.0
O395 O 0.12121 0.62784 0.13207 0.0
O396 O 0.06325 0.61983 0.1242 0.0
O397 O 0.08245 0.64211 0.14872 0.0
C398 C 0.06666 0.63069 0.14445 0.0
C399 C 0.14259 0.67602 0.13892 0.0
C400 C 0.10785 0.61319 0.13158 0.0
C401 C 0.10523 0.6479 0.06238 0.0
O402 O 0.11919 0.65198 0.07497 0.0
O403 O 0.09115 0.64026 0.07574 0.0
O404 O 0.14745 0.6675 0.12335 0.0
O405 O 0.12642 0.66959 0.14332 0.0
O406 O 0.39201 0.47597 0.12137 0.0
Cd407 Cd 0.37294 0.45121 0.11353 0.0
Cd408 Cd 0.35234 0.46576 0.11613 0.0
O409 O 0.37509 0.48665 0.12876 0.0
O410 O 0.38318 0.43662 0.12102 0.0
O411 O 0.36197 0.4353 0.14665 0.0
C412 C 0.3726 0.42995 0.1419 0.0
C413 C 0.32701 0.46098 0.13769 0.0
C414 C 0.38996 0.48845 0.12811 0.0
C415 C 0.35406 0.44982 0.06056 0.0
O416 O 0.34912 0.45881 0.07384 0.0
O417 O 0.36326 0.44481 0.07295 0.0
O418 O 0.33563 0.47375 0.12098 0.0
O419 O 0.33313 0.45108 0.14321 0.0
O420 O 0.09039 0.48017 0.62431 0.0
Cd421 Cd 0.0871 0.45604 0.6175 0.0
Cd422 Cd 0.12148 0.47336 0.62162 0.0
O423 O 0.11747 0.49237 0.63685 0.0
O424 O 0.06237 0.43981 0.62322 0.0
O425 O 0.08245 0.44052 0.65116 0.0
C426 C 0.06644 0.43392 0.64501 0.0
C427 C 0.14123 0.46766 0.64357 0.0
C428 C 0.10387 0.49306 0.63369 0.0
C429 C 0.10652 0.45838 0.56498 0.0
O430 O 0.11965 0.46937 0.57834 0.0
O431 O 0.09222 0.45026 0.57757 0.0
O432 O 0.14596 0.4816 0.62964 0.0
O433 O 0.12505 0.45709 0.64611 0.0
O434 O 0.52084 0.61485 0.62742 0.0
Cd435 Cd 0.5447 0.63612 0.62148 0.0
Cd436 Cd 0.52663 0.65248 0.62108 0.0
O437 O 0.50717 0.62904 0.63413 0.0
O438 O 0.56146 0.62895 0.63173 0.0
O439 O 0.55864 0.64845 0.65592 0.0
C440 C 0.5661 0.63952 0.65275 0.0
C441 C 0.53026 0.67735 0.64259 0.0
C442 C 0.50721 0.61501 0.63349 0.0
C443 C 0.5444 0.65271 0.56702 0.0
O444 O 0.53325 0.65534 0.57869 0.0
O445 O 0.55158 0.64607 0.58111 0.0
O446 O 0.51742 0.66818 0.62627 0.0
O447 O 0.54087 0.67203 0.64769 0.0
O448 O 0.3863 0.91447 0.62352 0.0
Cd449 Cd 0.36547 0.91764 0.61629 0.0
Cd450 Cd 0.34812 0.88333 0.62155 0.0
O451 O 0.37133 0.88742 0.63621 0.0
O452 O 0.37373 0.94232 0.62187 0.0
O453 O 0.35441 0.92214 0.64978 0.0
C454 C 0.36372 0.93816 0.6436 0.0
C455 C 0.32303 0.86398 0.64494 0.0
C456 C 0.38564 0.901 0.63309 0.0
C457 C 0.34777 0.89784 0.56443 0.0
O458 O 0.3452 0.88472 0.57831 0.0
O459 O 0.35465 0.91236 0.57641 0.0
O460 O 0.33186 0.85899 0.63051 0.0
O461 O 0.32882 0.88022 0.64707 0.0
O462 O 0.14781 0.42201 0.20564 0.0
Cd463 Cd 0.12382 0.41843 0.21428 0.0
Cd464 Cd 0.14023 0.45302 0.21009 0.0
O465 O 0.15974 0.44944 0.19552 0.0
O466 O 0.10735 0.39391 0.20732 0.0
O467 O 0.10808 0.41475 0.1814 0.0
C468 C 0.10139 0.39859 0.18641 0.0
C469 C 0.13494 0.47294 0.18754 0.0
C470 C 0.1606 0.43585 0.19713 0.0
C471 C 0.12562 0.43742 0.26716 0.0
O472 O 0.13534 0.45087 0.25319 0.0
O473 O 0.11874 0.42293 0.25506 0.0
O474 O 0.14848 0.47756 0.20258 0.0
O475 O 0.12452 0.45677 0.18435 0.0
O476 O 0.57885 0.7208 0.20478 0.0
Cd477 Cd 0.58352 0.70105 0.21342 0.0
Cd478 Cd 0.5485 0.68228 0.21128 0.0
O479 O 0.55114 0.70504 0.19722 0.0
O480 O 0.6085 0.71131 0.20772 0.0
O481 O 0.58942 0.6899 0.18158 0.0
C482 C 0.60524 0.70064 0.18722 0.0
C483 C 0.52814 0.65682 0.18989 0.0
C484 C 0.56467 0.71956 0.19783 0.0
C485 C 0.56554 0.68427 0.26733 0.0
O486 O 0.55175 0.68014 0.25416 0.0
O487 O 0.57977 0.6919 0.25443 0.0
O488 O 0.52382 0.66573 0.20556 0.0
O489 O 0.54423 0.66266 0.18546 0.0
O490 O 0.28136 0.85649 0.19884 0.0
Cd491 Cd 0.30088 0.88078 0.20902 0.0
Cd492 Cd 0.31961 0.86432 0.20861 0.0
O493 O 0.2971 0.84428 0.19361 0.0
O494 O 0.291 0.89584 0.20331 0.0
O495 O 0.31272 0.89822 0.17797 0.0
C496 C 0.30214 0.90351 0.18355 0.0
C497 C 0.34561 0.86981 0.18899 0.0
C498 C 0.28266 0.84348 0.19265 0.0
C499 C 0.31642 0.87905 0.26416 0.0
O500 O 0.32093 0.86956 0.25143 0.0
O501 O 0.30901 0.88567 0.25065 0.0
O502 O 0.33665 0.85668 0.20485 0.0
O503 O 0.33944 0.87963 0.18314 0.0
H504 H 0.36586 0.28449 0.81339 0.0
H505 H 0.34455 0.28162 0.84823 0.0
H506 H 0.38461 0.31227 0.90791 0.0
H507 H 0.40611 0.3153 0.87295 0.0
H508 H 0.36101 0.28057 0.92862 0.0
H509 H 0.36007 0.32728 0.88331 0.0
H510 H 0.35844 0.3439 0.84303 0.0
H511 H 0.30824 0.30291 0.82253 0.0
H512 H 0.30965 0.28593 0.86244 0.0
H513 H 0.29961 0.26186 0.03309 0.0
H514 H 0.32297 0.28002 0.00091 0.0
H515 H 0.28915 0.25814 0.9289 0.0
H516 H 0.26549 0.24064 0.96129 0.0
H517 H 0.31182 0.29008 0.9174 0.0
H518 H 0.31444 0.24166 0.95427 0.0
H519 H 0.31539 0.22306 0.99181 0.0
H520 H 0.36177 0.26505 0.02461 0.0
H521 H 0.36097 0.28396 0.98744 0.0
C522 C 0.37017 0.29092 0.83372 0.0
C523 C 0.38765 0.29999 0.84056 0.0
C524 C 0.35797 0.28938 0.85353 0.0
C525 C 0.363 0.2968 0.8806 0.0
C526 C 0.38048 0.30653 0.88706 0.0
C527 C 0.39274 0.30825 0.86708 0.0
C528 C 0.34997 0.29237 0.90312 0.0
C529 C 0.35049 0.28306 0.92657 0.0
C530 C 0.33595 0.29509 0.89982 0.0
C531 C 0.33502 0.30528 0.8758 0.0
C532 C 0.34873 0.32174 0.87009 0.0
C533 C 0.34784 0.33125 0.84734 0.0
C534 C 0.33326 0.32445 0.8302 0.0
C535 C 0.31953 0.30816 0.83582 0.0
C536 C 0.32036 0.2986 0.85853 0.0
C537 C 0.2971 0.26123 0.01043 0.0
C538 C 0.28085 0.24971 -0.00043 0.0
C539 C 0.31045 0.27155 0.99205 0.0
C540 C 0.30796 0.27007 0.96242 0.0
C541 C 0.29142 0.25944 0.95167 0.0
C542 C 0.27792 0.24942 0.97015 0.0
C543 C 0.32281 0.27813 0.94274 0.0
C544 C 0.32255 0.28796 0.91977 0.0
C545 C 0.33698 0.27562 0.94606 0.0
C546 C 0.33754 0.26426 0.9683 0.0
C547 C 0.32478 0.24695 0.9696 0.0
C548 C 0.32529 0.23635 0.9908 0.0
C549 C 0.3386 0.24289 0.01064 0.0
C550 C 0.35145 0.26002 0.00927 0.0
C551 C 0.35098 0.27068 0.98814 0.0
H552 H 0.33898 0.23466 0.02703 0.0
H553 H 0.33259 0.33183 0.8126 0.0
H554 H 0.68302 0.08872 0.86603 0.0
H555 H 0.68609 0.07097 0.90235 0.0
H556 H 0.71462 0.05842 0.8431 0.0
H557 H 0.71166 0.07611 0.80679 0.0
H558 H 0.693 0.03085 0.88058 0.0
H559 H 0.7361 0.0916 0.88303 0.0
H560 H 0.74505 0.12219 0.88625 0.0
H561 H 0.71939 0.11351 0.96672 0.0
H562 H 0.71009 0.0828 0.96373 0.0
H563 H 0.7556 0.02173 0.95706 0.0
H564 H 0.73658 0.02637 0.92599 0.0
H565 H 0.72165 0.04614 0.99736 0.0
H566 H 0.74124 0.04226 0.02805 0.0
H567 H 0.73126 0.06767 0.95763 0.0
H568 H 0.69268 0.00802 0.96053 0.0
H569 H 0.68288 0.97724 0.95797 0.0
H570 H 0.69818 0.9826 0.87024 0.0
H571 H 0.70827 0.01347 0.87234 0.0
C572 C 0.68959 0.08185 0.86053 0.0
C573 C 0.69735 0.08402 0.83374 0.0
C574 C 0.6913 0.0717 0.88127 0.0
C575 C 0.70071 0.06353 0.87542 0.0
C576 C 0.70728 0.06459 0.84799 0.0
C577 C 0.7057 0.07483 0.82735 0.0
C578 C 0.70596 0.0561 0.89868 0.0
C579 C 0.70135 0.03881 0.89753 0.0
C580 C 0.71649 0.06644 0.92108 0.0
C581 C 0.72224 0.08491 0.923 0.0
C582 C 0.73227 0.0962 0.9013 0.0
C583 C 0.73741 0.11356 0.90309 0.0
C584 C 0.73274 0.11978 0.92663 0.0
C585 C 0.72296 0.10867 0.94847 0.0
C586 C 0.71775 0.09129 0.94674 0.0
C587 C 0.74797 0.02672 0.96618 0.0
C588 C 0.75003 0.03185 0.99482 0.0
C589 C 0.73699 0.02926 0.94846 0.0
C590 C 0.72759 0.03658 0.9593 0.0
C591 C 0.72882 0.04058 0.98842 0.0
C592 C 0.74003 0.03837 0.00595 0.0
C593 C 0.71847 0.04226 0.93975 0.0
C594 C 0.72252 0.0594 0.94134 0.0
C595 C 0.70729 0.03166 0.91804 0.0
C596 C 0.70135 0.01311 0.91667 0.0
C597 C 0.69409 0.00267 0.94075 0.0
C598 C 0.68845 0.9852 0.93937 0.0
C599 C 0.68994 0.97798 0.91398 0.0
C600 C 0.69704 0.98821 0.8899 0.0
C601 C 0.70269 0.0057 0.89116 0.0
H602 H 0.68556 0.96444 0.91295 0.0
H603 H 0.73674 0.13322 0.92799 0.0
H604 H 0.99293 0.73365 0.97931 0.0
H605 H 0.9892 0.71066 0.94705 0.0
H606 H 0.93806 0.67875 0.97931 0.0
H607 H 0.94206 0.7011 0.0123 0.0
H608 H 0.95009 0.65944 0.96863 0.0
H609 H 0.94884 0.70566 0.9163 0.0
H610 H 0.96133 0.7353 0.89893 0.0
H611 H 0.00231 0.73173 0.8595 0.0
H612 H 0.99011 0.70211 0.87691 0.0
H613 H 0.90592 0.63358 0.82364 0.0
H614 H 0.92418 0.65511 0.85789 0.0
H615 H 0.94408 0.62289 0.88555 0.0
H616 H 0.92496 0.60071 0.85192 0.0
H617 H 0.9559 0.67413 0.86594 0.0
H618 H 0.95559 0.63138 0.95572 0.0
H619 H 0.93856 0.60177 0.97336 0.0
H620 H 0.89312 0.59831 0.93803 0.0
H621 H 0.90986 0.62793 0.92046 0.0
C622 C 0.98102 0.7216 0.97974 0.0
C623 C 0.96773 0.71922 -0.00188 0.0
C624 C 0.97887 0.70849 0.96126 0.0
C625 C 0.96323 0.69302 0.96033 0.0
C626 C 0.95028 0.69048 0.9796 0.0
C627 C 0.95255 0.70336 -0.0016 0.0
C628 C 0.95943 0.67993 0.93799 0.0
C629 C 0.95157 0.66268 0.94615 0.0
C630 C 0.96138 0.68405 0.90862 0.0
C631 C 0.96871 0.70181 0.8982 0.0
C632 C 0.96057 0.71126 0.90407 0.0
C633 C 0.96758 0.72803 0.89421 0.0
C634 C 0.98264 0.73541 0.87821 0.0
C635 C 0.99068 0.72601 0.87197 0.0
C636 C 0.98372 0.70924 0.88182 0.0
C637 C 0.91422 0.63105 0.8369 0.0
C638 C 0.91391 0.6154 0.83525 0.0
C639 C 0.92477 0.64346 0.85641 0.0
C640 C 0.93548 0.64065 0.87452 0.0
C641 C 0.93572 0.62526 0.87218 0.0
C642 C 0.92484 0.61262 0.85293 0.0
C643 C 0.94548 0.65365 0.89663 0.0
C644 C 0.9548 0.67088 0.88839 0.0
C645 C 0.94421 0.6495 0.92595 0.0
C646 C 0.93401 0.63174 0.93646 0.0
C647 C 0.94196 0.62427 0.95175 0.0
C648 C 0.93237 0.6075 0.96174 0.0
C649 C 0.91478 0.59814 0.95671 0.0
C650 C 0.90674 0.60555 0.9418 0.0
C651 C 0.91628 0.62232 0.93181 0.0
H652 H 0.90738 0.58515 0.96444 0.0
H653 H 0.98805 0.7484 0.87059 0.0
H654 H 0.27241 0.36423 0.67266 0.0
H655 H 0.2714 0.34273 0.64061 0.0
H656 H 0.32379 0.37682 0.61613 0.0
H657 H 0.32456 0.39893 0.64751 0.0
H658 H 0.30767 0.36332 0.5716 0.0
H659 H 0.31148 0.33863 0.65569 0.0
H660 H 0.30673 0.32906 0.70571 0.0
H661 H 0.25417 0.29321 0.68727 0.0
H662 H 0.2585 0.30273 0.63724 0.0
H663 H 0.25948 0.26562 0.52169 0.0
H664 H 0.27976 0.28759 0.55442 0.0
H665 H 0.26584 0.32338 0.52057 0.0
H666 H 0.24646 0.30199 0.48728 0.0
H667 H 0.27498 0.3017 0.59587 0.0
H668 H 0.29383 0.36306 0.52603 0.0
H669 H 0.30298 0.37248 0.47668 0.0
H670 H 0.31848 0.33492 0.46758 0.0
H671 H 0.30968 0.32543 0.51702 0.0
C672 C 0.28381 0.36714 0.66073 0.0
C673 C 0.29857 0.38328 0.66262 0.0
C674 C 0.28328 0.35471 0.64256 0.0
C675 C 0.29765 0.35791 0.62637 0.0
C676 C 0.31256 0.37398 0.62852 0.0
C677 C 0.31299 0.3866 0.64643 0.0
C678 C 0.29623 0.3449 0.60542 0.0
C679 C 0.30075 0.34986 0.57696 0.0
C680 C 0.28813 0.32732 0.61251 0.0
C681 C 0.28534 0.32143 0.64263 0.0
C682 C 0.29888 0.32877 0.66231 0.0
C683 C 0.29626 0.32335 0.69068 0.0
C684 C 0.28016 0.31054 0.69966 0.0
C685 C 0.26665 0.30311 0.68027 0.0
C686 C 0.26919 0.30849 0.65187 0.0
C687 C 0.26104 0.27831 0.52095 0.0
C688 C 0.25139 0.28209 0.5019 0.0
C689 C 0.27263 0.29085 0.53965 0.0
C690 C 0.27463 0.30732 0.53974 0.0
C691 C 0.26508 0.31105 0.5204 0.0
C692 C 0.2538 0.29868 0.5015 0.0
C693 C 0.28506 0.32015 0.56183 0.0
C694 C 0.28235 0.31515 0.59055 0.0
C695 C 0.29558 0.33767 0.55507 0.0
C696 C 0.30105 0.3435 0.52532 0.0
C697 C 0.29932 0.35689 0.51363 0.0
C698 C 0.30442 0.36222 0.48559 0.0
C699 C 0.31129 0.3543 0.469 0.0
C700 C 0.31312 0.34103 0.48043 0.0
C701 C 0.30806 0.33565 0.50846 0.0
H702 H 0.31522 0.35844 0.4473 0.0
H703 H 0.27816 0.30637 0.72164 0.0
H704 H 0.63883 0.91913 0.6932 0.0
H705 H 0.66216 0.93625 0.66049 0.0
H706 H 0.62612 0.9351 0.59901 0.0
H707 H 0.6026 0.91811 0.63201 0.0
H708 H 0.66523 0.92399 0.61133 0.0
H709 H 0.64765 0.96988 0.55348 0.0
H710 H 0.63399 0.98698 0.56428 0.0
H711 H 0.64796 0.98954 0.65232 0.0
H712 H 0.66192 0.97267 0.64199 0.0
H713 H 0.69888 0.94336 0.4753 0.0
H714 H 0.67826 0.93935 0.5122 0.0
H715 H 0.71705 0.98286 0.55791 0.0
H716 H 0.73802 0.98695 0.521 0.0
H717 H 0.67943 0.97647 0.5567 0.0
H718 H 0.71487 0.95194 0.58187 0.0
H719 H 0.72906 0.93534 0.57105 0.0
H720 H 0.68049 0.8913 0.55206 0.0
H721 H 0.66604 0.90776 0.56233 0.0
C722 C 0.63586 0.92276 0.67292 0.0
C723 C 0.61886 0.91709 0.66499 0.0
C724 C 0.64922 0.93259 0.65428 0.0
C725 C 0.64589 0.93691 0.6273 0.0
C726 C 0.62901 0.93207 0.61987 0.0
C727 C 0.61558 0.92229 0.63867 0.0
C728 C 0.65977 0.94448 0.60586 0.0
C729 C 0.6684 0.93557 0.59969 0.0
C730 C 0.66394 0.95958 0.59057 0.0
C731 C 0.6557 0.96986 0.59698 0.0
C732 C 0.64787 0.97415 0.57513 0.0
C733 C 0.64006 0.98379 0.58117 0.0
C734 C 0.64006 0.9893 0.60898 0.0
C735 C 0.64791 0.98521 0.6308 0.0
C736 C 0.65574 0.97557 0.62487 0.0
C737 C 0.70302 0.95232 0.49286 0.0
C738 C 0.72017 0.96532 0.49546 0.0
C739 C 0.69117 0.95006 0.51383 0.0
C740 C 0.69619 0.96078 0.5377 0.0
C741 C 0.71296 0.97454 0.53947 0.0
C742 C 0.72493 0.97677 0.51849 0.0
C743 C 0.68459 0.95586 0.56241 0.0
C744 C 0.67633 0.96508 0.56887 0.0
C745 C 0.6808 0.94112 0.57832 0.0
C746 C 0.68941 0.93112 0.57262 0.0
C747 C 0.70724 0.93876 0.57517 0.0
C748 C 0.71532 0.92937 0.56917 0.0
C749 C 0.70569 0.91229 0.56081 0.0
C750 C 0.68794 0.90454 0.55851 0.0
C751 C 0.67979 0.91389 0.56444 0.0
H752 H 0.71197 0.90504 0.55616 0.0
H753 H 0.634 0.99676 0.61362 0.0
H754 H 0.01585 0.75538 0.53172 0.0
H755 H 0.01968 0.73827 0.56832 0.0
H756 H 0.04876 0.72638 0.50917 0.0
H757 H 0.04503 0.74343 0.47256 0.0
H758 H 0.02799 0.69891 0.54686 0.0
H759 H 0.06978 0.75978 0.54877 0.0
H760 H 0.07828 0.79027 0.55137 0.0
H761 H 0.05263 0.78176 0.63182 0.0
H762 H 0.04379 0.75114 0.62947 0.0
H763 H 0.09054 0.69138 0.62713 0.0
H764 H 0.07203 0.69585 0.59453 0.0
H765 H 0.05495 0.71472 0.66428 0.0
H766 H 0.07399 0.71099 0.69655 0.0
H767 H 0.06514 0.73643 0.62432 0.0
H768 H 0.02769 0.67632 0.6269 0.0
H769 H 0.01909 0.64582 0.6244 0.0
H770 H 0.03554 0.65196 0.53723 0.0
H771 H 0.04447 0.68256 0.53931 0.0
C772 C 0.0227 0.74878 0.52631 0.0
C773 C 0.03038 0.75096 0.49943 0.0
C774 C 0.02485 0.73901 0.54721 0.0
C775 C 0.03465 0.73123 0.54147 0.0
C776 C 0.04114 0.73227 0.51398 0.0
C777 C 0.03911 0.74213 0.49317 0.0
C778 C 0.04024 0.72419 0.56484 0.0
C779 C 0.0361 0.70702 0.56389 0.0
C780 C 0.05054 0.73476 0.58726 0.0
C781 C 0.05596 0.75316 0.58878 0.0
C782 C 0.06585 0.76439 0.5669 0.0
C783 C 0.07074 0.78169 0.56834 0.0
C784 C 0.06595 0.78794 0.5917 0.0
C785 C 0.0563 0.7769 0.61371 0.0
C786 C 0.05135 0.75957 0.61234 0.0
C787 C 0.08256 0.69614 0.63556 0.0
C788 C 0.08383 0.70102 0.66425 0.0
C789 C 0.07188 0.69859 0.61695 0.0
C790 C 0.06201 0.70558 0.62692 0.0
C791 C 0.06249 0.70941 0.65602 0.0
C792 C 0.07338 0.70727 0.67445 0.0
C793 C 0.05298 0.71098 0.60663 0.0
C794 C 0.05665 0.72801 0.60791 0.0
C795 C 0.0422 0.7002 0.58471 0.0
C796 C 0.03687 0.68179 0.58334 0.0
C797 C 0.0296 0.6712 0.60726 0.0
C798 C 0.02464 0.65388 0.6059 0.0
C799 C 0.0268 0.64696 0.58069 0.0
C800 C 0.03388 0.65734 0.55676 0.0
C801 C 0.03887 0.67467 0.558 0.0
H802 H 0.02295 0.63355 0.57969 0.0
H803 H 0.06975 0.80134 0.59279 0.0
H804 H 0.60316 0.68298 0.13829 0.0
H805 H 0.62674 0.68839 0.1061 0.0
H806 H 0.66261 0.72594 0.1647 0.0
H807 H 0.63931 0.72067 0.1968 0.0
H808 H 0.66298 0.7388 0.11174 0.0
H809 H 0.66509 0.69167 0.15301 0.0
H810 H 0.65439 0.662 0.16868 0.0
H811 H 0.64116 0.64446 0.08246 0.0
H812 H 0.65152 0.674 0.06629 0.0
H813 H 0.73823 0.75047 0.02668 0.0
H814 H 0.71771 0.73411 0.06447 0.0
H815 H 0.67709 0.73299 0.0147 0.0
H816 H 0.6973 0.74913 0.97699 0.0
H817 H 0.68182 0.70132 0.06661 0.0
H818 H 0.66163 0.7518 0.05946 0.0
H819 H 0.67331 0.78166 0.04375 0.0
H820 H 0.72396 0.79256 0.06521 0.0
H821 H 0.71253 0.76286 0.08147 0.0
C822 C 0.61611 0.6921 0.14458 0.0
C823 C 0.61935 0.70161 0.16984 0.0
C824 C 0.62957 0.6951 0.12627 0.0
C825 C 0.64639 0.70759 0.13304 0.0
C826 C 0.64971 0.71626 0.1591 0.0
C827 C 0.63634 0.71327 0.17736 0.0
C828 C 0.66006 0.71362 0.11133 0.0
C829 C 0.66715 0.73058 0.10212 0.0
C830 C 0.6655 0.70291 0.09875 0.0
C831 C 0.65892 0.68507 0.10847 0.0
C832 C 0.6597 0.68148 0.13742 0.0
C833 C 0.65374 0.66468 0.14639 0.0
C834 C 0.64705 0.65135 0.1266 0.0
C835 C 0.64632 0.65479 0.09778 0.0
C836 C 0.65224 0.67157 0.0887 0.0
C837 C 0.72486 0.74637 0.02352 0.0
C838 C 0.71943 0.75133 -0.00092 0.0
C839 C 0.71316 0.73693 0.04501 0.0
C840 C 0.69596 0.73246 0.04231 0.0
C841 C 0.69034 0.73634 0.01709 0.0
C842 C 0.70195 0.74568 0.99566 0.0
C843 C 0.68442 0.72631 0.06717 0.0
C844 C 0.67767 0.70943 0.07666 0.0
C845 C 0.67929 0.73707 0.08034 0.0
C846 C 0.68624 0.75509 0.07139 0.0
C847 C 0.67524 0.76061 0.06095 0.0
C848 C 0.68182 0.77749 0.05194 0.0
C849 C 0.69937 0.78899 0.05339 0.0
C850 C 0.71038 0.78364 0.06399 0.0
C851 C 0.70386 0.76677 0.07308 0.0
H852 H 0.70444 0.80204 0.04636 0.0
H853 H 0.64247 0.63836 0.13357 0.0
H854 H 0.31518 0.91511 0.13031 0.0
H855 H 0.31078 0.93494 0.10088 0.0
H856 H 0.28496 0.94343 0.17093 0.0
H857 H 0.28875 0.92318 0.19992 0.0
H858 H 0.26582 0.9349 0.12743 0.0
H859 H 0.32389 0.97595 0.14299 0.0
H860 H 0.35507 0.98806 0.14581 0.0
H861 H 0.3569 0.97961 0.05619 0.0
H862 H 0.32568 0.96724 0.05287 0.0
H863 H 0.24612 0.9859 0.04041 0.0
H864 H 0.26293 0.98226 0.07786 0.0
H865 H 0.28059 0.95864 0.0173 0.0
H866 H 0.26375 0.96207 0.97992 0.0
H867 H 0.3057 0.97961 0.06056 0.0
H868 H 0.24642 0.93345 0.04992 0.0
H869 H 0.21537 0.92241 0.04788 0.0
H870 H 0.21684 0.94236 0.13152 0.0
H871 H 0.24798 0.95374 0.13384 0.0
C872 C 0.30887 0.92149 0.13956 0.0
C873 C 0.30209 0.91744 0.16722 0.0
C874 C 0.30647 0.93292 0.1228 0.0
C875 C 0.29755 0.94074 0.13368 0.0
C876 C 0.29178 0.9375 0.16199 0.0
C877 C 0.29394 0.9259 0.17852 0.0
C878 C 0.29218 0.95031 0.11458 0.0
C879 C 0.2747 0.945 0.11342 0.0
C880 C 0.30362 0.9633 0.09584 0.0
C881 C 0.32239 0.97053 0.09774 0.0
C882 C 0.33091 0.97652 0.12392 0.0
C883 C 0.3486 0.98347 0.1256 0.0
C884 C 0.35795 0.98457 0.10121 0.0
C885 C 0.34963 0.97874 0.07508 0.0
C886 C 0.33194 0.97178 0.07328 0.0
C887 C 0.25396 0.98036 0.03492 0.0
C888 C 0.25343 0.97401 0.00739 0.0
C889 C 0.26357 0.97833 0.0563 0.0
C890 C 0.27288 0.97008 0.0503 0.0
C891 C 0.27353 0.96509 0.02228 0.0
C892 C 0.26378 0.96692 0.00103 0.0
C893 C 0.27952 0.96404 0.07363 0.0
C894 C 0.29708 0.96985 0.0753 0.0
C895 C 0.26824 0.95163 0.09316 0.0
C896 C 0.24952 0.94461 0.09191 0.0
C897 C 0.24013 0.93559 0.06777 0.0
C898 C 0.22252 0.92926 0.06657 0.0
C899 C 0.21414 0.93173 0.08952 0.0
C900 C 0.22335 0.94049 0.11374 0.0
C901 C 0.24098 0.94688 0.11501 0.0
H902 H 0.20051 0.92682 0.08856 0.0
H903 H 0.37165 0.98998 0.10255 0.0
H904 H 0.09511 0.40177 0.13049 0.0
H905 H 0.07644 0.37875 0.0981 0.0
H906 H 0.05855 0.34319 0.16844 0.0
H907 H 0.07783 0.36601 0.2005 0.0
H908 H 0.06815 0.33086 0.1293 0.0
H909 H 0.03197 0.355 0.12955 0.0
H910 H 0.02415 0.37744 0.12596 0.0
H911 H 0.04143 0.38701 0.03917 0.0
H912 H 0.04957 0.36479 0.04233 0.0
H913 H 0.0184 0.26287 0.03554 0.0
H914 H 0.02282 0.28391 0.0724 0.0
H915 H 0.05282 0.32477 0.0136 0.0
H916 H 0.04849 0.30391 0.97677 0.0
H917 H 0.03236 0.33205 0.05022 0.0
H918 H 0.07284 0.31134 0.05462 0.0
H919 H 0.08047 0.28875 0.05841 0.0
H920 H 0.0539 0.27258 0.13826 0.0
H921 H 0.04594 0.29496 0.13472 0.0
C922 C 0.08691 0.38911 0.13909 0.0
C923 C 0.08802 0.38561 0.16789 0.0
C924 C 0.07614 0.37595 0.1206 0.0
C925 C 0.06598 0.35917 0.13078 0.0
C926 C 0.06631 0.35598 0.15999 0.0
C927 C 0.07732 0.36902 0.17831 0.0
C928 C 0.05678 0.34467 0.11065 0.0
C929 C 0.05995 0.33098 0.11253 0.0
C930 C 0.04636 0.34488 0.08828 0.0
C931 C 0.04149 0.35828 0.08626 0.0
C932 C 0.03422 0.36197 0.10976 0.0
C933 C 0.02971 0.37464 0.10779 0.0
C934 C 0.03232 0.38367 0.08237 0.0
C935 C 0.03942 0.38001 0.05885 0.0
C936 C 0.04396 0.36736 0.06071 0.0
C937 C 0.02562 0.27633 0.0303 0.0
C938 C 0.03331 0.28175 0.00341 0.0
C939 C 0.02813 0.28832 0.05135 0.0
C940 C 0.03828 0.30587 0.04575 0.0
C941 C 0.04493 0.31128 0.01832 0.0
C942 C 0.04254 0.29934 0.99738 0.0
C943 C 0.04387 0.31855 0.06911 0.0
C944 C 0.04018 0.33187 0.0676 0.0
C945 C 0.05374 0.31802 0.09202 0.0
C946 C 0.05863 0.30467 0.09424 0.0
C947 C 0.06852 0.30288 0.07287 0.0
C948 C 0.07292 0.29013 0.07499 0.0
C949 C 0.06762 0.2792 0.09852 0.0
C950 C 0.05796 0.28103 0.12002 0.0
C951 C 0.05351 0.29375 0.11797 0.0
H952 H 0.07104 0.26934 0.10012 0.0
H953 H 0.02882 0.39347 0.08089 0.0
H954 H 0.71347 0.63831 0.29097 0.0
H955 H 0.71933 0.66242 0.32171 0.0
H956 H 0.69525 0.62788 0.39216 0.0
H957 H 0.68866 0.60357 0.36099 0.0
H958 H 0.68992 0.65428 0.39627 0.0
H959 H 0.73862 0.64717 0.38074 0.0
H960 H 0.7599 0.64426 0.35211 0.0
H961 H 0.77693 0.69358 0.31488 0.0
H962 H 0.75557 0.69668 0.34304 0.0
H963 H 0.74244 0.70202 0.513 0.0
H964 H 0.72541 0.68224 0.4752 0.0
H965 H 0.7465 0.72357 0.41446 0.0
H966 H 0.76347 0.74356 0.4524 0.0
H967 H 0.75192 0.69636 0.40155 0.0
H968 H 0.70544 0.70464 0.42599 0.0
H969 H 0.6848 0.70663 0.45777 0.0
H970 H 0.66441 0.65424 0.48238 0.0
H971 H 0.6851 0.65199 0.45107 0.0
C972 C 0.70914 0.63584 0.31288 0.0
C973 C 0.70086 0.61913 0.32378 0.0
C974 C 0.71251 0.64962 0.33043 0.0
C975 C 0.70814 0.64699 0.35942 0.0
C976 C 0.69882 0.63021 0.36989 0.0
C977 C 0.69511 0.61634 0.35212 0.0
C978 C 0.71481 0.66172 0.37927 0.0
C979 C 0.70347 0.66345 0.39755 0.0
C980 C 0.73248 0.67386 0.38061 0.0
C981 C 0.74537 0.67206 0.36372 0.0
C982 C 0.74682 0.65734 0.36629 0.0
C983 C 0.75891 0.65566 0.35017 0.0
C984 C 0.76973 0.66871 0.33162 0.0
C985 C 0.76852 0.68348 0.32921 0.0
C986 C 0.75643 0.6852 0.34525 0.0
C987 C 0.74316 0.70698 0.49172 0.0
C988 C 0.75439 0.72429 0.48554 0.0
C989 C 0.73332 0.69568 0.4702 0.0
C990 C 0.73467 0.70147 0.4421 0.0
C991 C 0.74523 0.71891 0.43609 0.0
C992 C 0.7549 0.73029 0.45775 0.0
C993 C 0.72707 0.68889 0.41872 0.0
C994 C 0.7383 0.68745 0.39988 0.0
C995 C 0.70939 0.6769 0.41736 0.0
C996 C 0.69693 0.67819 0.4363 0.0
C997 C 0.69666 0.69358 0.43837 0.0
C998 C 0.68493 0.69474 0.45626 0.0
C999 C 0.67332 0.68058 0.47212 0.0
C1000 C 0.67341 0.6652 0.47008 0.0
C1001 C 0.68513 0.66397 0.45223 0.0
H1002 H 0.66424 0.6815 0.48596 0.0
H1003 H 0.77908 0.66739 0.31917 0.0
H1004 H 0.3017 0.05848 0.5108 0.0
H1005 H 0.32279 0.06156 0.47584 0.0
H1006 H 0.28874 0.01049 0.44512 0.0
H1007 H 0.26702 0.00768 0.47951 0.0
H1008 H 0.34089 0.04834 0.46367 0.0
H1009 H 0.29567 0.009 0.37409 0.0
H1010 H 0.2658 0.99757 0.35854 0.0
H1011 H 0.26455 0.03945 0.39934 0.0
H1012 H 0.29444 0.05119 0.41487 0.0
H1013 H 0.39767 0.07384 0.34509 0.0
H1014 H 0.37558 0.054 0.37813 0.0
H1015 H 0.34334 0.07454 0.3539 0.0
H1016 H 0.36475 0.09348 0.32011 0.0
H1017 H 0.3241 0.04296 0.362 0.0
H1018 H 0.37182 0.08833 0.41544 0.0
H1019 H 0.40183 0.10453 0.43139 0.0
H1020 H 0.39825 0.05842 0.46377 0.0
H1021 H 0.36825 0.04194 0.44773 0.0
C1022 C 0.29869 0.04781 0.49681 0.0
C1023 C 0.28261 0.03291 0.49768 0.0
C1024 C 0.31085 0.04955 0.47687 0.0
C1025 C 0.30736 0.03634 0.45754 0.0
C1026 C 0.29164 0.021 0.45942 0.0
C1027 C 0.27925 0.01938 0.4791 0.0
C1028 C 0.31981 0.03957 0.43432 0.0
C1029 C 0.33718 0.04694 0.44141 0.0
C1030 C 0.31507 0.03768 0.40522 0.0
C1031 C 0.29715 0.0308 0.39595 0.0
C1032 C 0.289 0.01575 0.37971 0.0
C1033 C 0.27208 0.00923 0.3709 0.0
C1034 C 0.26326 0.01774 0.37806 0.0
C1035 C 0.27137 0.03283 0.39392 0.0
C1036 C 0.28828 0.03942 0.40274 0.0
C1037 C 0.38575 0.0739 0.34664 0.0
C1038 C 0.38297 0.08528 0.33019 0.0
C1039 C 0.37316 0.06261 0.36556 0.0
C1040 C 0.35784 0.06291 0.36888 0.0
C1041 C 0.35495 0.07392 0.3517 0.0
C1042 C 0.36729 0.08487 0.33245 0.0
C1043 C 0.34521 0.05292 0.39147 0.0
C1044 C 0.3278 0.04395 0.38422 0.0
C1045 C 0.34993 0.05403 0.4205 0.0
C1046 C 0.36792 0.0639 0.43007 0.0
C1047 C 0.37749 0.08166 0.4258 0.0
C1048 C 0.39448 0.09088 0.43488 0.0
C1049 C 0.40196 0.0825 0.44849 0.0
C1050 C 0.39245 0.06488 0.45314 0.0
C1051 C 0.37547 0.0556 0.44407 0.0
H1052 H 0.41511 0.08966 0.4555 0.0
H1053 H 0.25016 0.01266 0.37124 0.0
H1054 H 0.90754 0.27571 0.31707 0.0
H1055 H 0.92577 0.27254 0.35147 0.0
H1056 H 0.9404 0.32216 0.38652 0.0
H1057 H 0.92131 0.32505 0.35266 0.0
H1058 H 0.95714 0.28662 0.36475 0.0
H1059 H 0.9475 0.3217 0.45769 0.0
H1060 H 0.92757 0.33113 0.47413 0.0
H1061 H 0.88643 0.28936 0.42944 0.0
H1062 H 0.90608 0.27962 0.41301 0.0
H1063 H 0.99024 0.26176 0.48219 0.0
H1064 H 0.98665 0.28098 0.44958 0.0
H1065 H 0.9334 0.25713 0.47306 0.0
H1066 H 0.93718 0.23883 0.50648 0.0
H1067 H 0.94394 0.28844 0.46677 0.0
H1068 H 0.95018 0.24624 0.41039 0.0
H1069 H 0.96581 0.23208 0.39325 0.0
H1070 H 0.00662 0.28022 0.36352 0.0
H1071 H 0.99127 0.29467 0.38075 0.0
C1072 C 0.91473 0.28605 0.3319 0.0
C1073 C 0.91281 0.30054 0.33239 0.0
C1074 C 0.92528 0.28427 0.35151 0.0
C1075 C 0.93436 0.29701 0.37189 0.0
C1076 C 0.93328 0.312 0.37137 0.0
C1077 C 0.92241 0.31366 0.35199 0.0
C1078 C 0.94364 0.2936 0.39479 0.0
C1079 C 0.95443 0.28723 0.38711 0.0
C1080 C 0.94022 0.29443 0.42401 0.0
C1081 C 0.92829 0.30011 0.43382 0.0
C1082 C 0.93419 0.31455 0.4514 0.0
C1083 C 0.92295 0.31993 0.46072 0.0
C1084 C 0.90576 0.31089 0.45273 0.0
C1085 C 0.89976 0.2964 0.43552 0.0
C1086 C 0.91094 0.29095 0.42618 0.0
C1087 C 0.97785 0.26082 0.48052 0.0
C1088 C 0.96397 0.24876 0.49676 0.0
C1089 C 0.97578 0.27175 0.46184 0.0
C1090 C 0.95968 0.2704 0.45851 0.0
C1091 C 0.94599 0.25859 0.47529 0.0
C1092 C 0.94814 0.24802 0.49434 0.0
C1093 C 0.95642 0.28031 0.43657 0.0
C1094 C 0.94703 0.28822 0.44449 0.0
C1095 C 0.96051 0.28021 0.40747 0.0
C1096 C 0.96971 0.27155 0.39717 0.0
C1097 C 0.96254 0.2538 0.40035 0.0
C1098 C 0.97134 0.24573 0.39061 0.0
C1099 C 0.98723 0.25525 0.3774 0.0
C1100 C 0.99434 0.27287 0.37383 0.0
C1101 C 0.9856 0.28101 0.38358 0.0
H1102 H 0.99402 0.24898 0.36986 0.0
H1103 H 0.89709 0.31509 0.45995 0.0
H1104 H 0.06704 0.65489 0.18041 0.0
H1105 H 0.04421 0.65135 0.2129 0.0
H1106 H 0.01279 0.59943 0.18361 0.0
H1107 H 0.03498 0.60322 0.15034 0.0
H1108 H 0.99323 0.61135 0.19232 0.0
H1109 H 0.03968 0.61206 0.24695 0.0
H1110 H 0.0693 0.62528 0.26466 0.0
H1111 H 0.06506 0.66674 0.30035 0.0
H1112 H 0.03545 0.65383 0.28258 0.0
H1113 H 0.96637 0.57128 0.34008 0.0
H1114 H 0.98827 0.58853 0.30558 0.0
H1115 H 0.95677 0.60826 0.27348 0.0
H1116 H 0.93425 0.59021 0.30747 0.0
H1117 H 0.0077 0.62009 0.2951 0.0
H1118 H 0.96519 0.6171 0.20257 0.0
H1119 H 0.93561 0.59954 0.18508 0.0
H1120 H 0.93197 0.5553 0.2258 0.0
H1121 H 0.96157 0.57257 0.24325 0.0
C1122 C 0.05515 0.64282 0.18076 0.0
C1123 C 0.05282 0.6293 0.163 0.0
C1124 C 0.04214 0.64078 0.19936 0.0
C1125 C 0.02682 0.62502 0.20108 0.0
C1126 C 0.02439 0.61175 0.18267 0.0
C1127 C 0.03717 0.6139 0.16372 0.0
C1128 C 0.01366 0.6216 0.22312 0.0
C1129 C 0.99643 0.61346 0.21479 0.0
C1130 C 0.01772 0.62438 0.25249 0.0
C1131 C 0.03548 0.63212 0.26313 0.0
C1132 C 0.04512 0.62405 0.25842 0.0
C1133 C 0.06189 0.63148 0.26848 0.0
C1134 C 0.06908 0.64687 0.28353 0.0
C1135 C 0.05949 0.65485 0.28862 0.0
C1136 C 0.04272 0.64749 0.27857 0.0
C1137 C 0.96408 0.57934 0.32581 0.0
C1138 C 0.94852 0.57927 0.32632 0.0
C1139 C 0.9767 0.58931 0.30615 0.0
C1140 C 0.97419 0.59965 0.2867 0.0
C1141 C 0.95891 0.60018 0.28792 0.0
C1142 C 0.94608 0.5899 0.30737 0.0
C1143 C 0.98729 0.60884 0.26434 0.0
C1144 C 0.0045 0.61834 0.27261 0.0
C1145 C 0.98321 0.60669 0.23496 0.0
C1146 C 0.96546 0.59617 0.22452 0.0
C1147 C 0.95806 0.60363 0.20775 0.0
C1148 C 0.9413 0.59373 0.19785 0.0
C1149 C 0.93189 0.57634 0.20444 0.0
C1150 C 0.93925 0.56879 0.22083 0.0
C1151 C 0.956 0.57862 0.23074 0.0
H1152 H 0.91892 0.5687 0.19677 0.0
H1153 H 0.08206 0.6526 0.29131 0.0
H1154 H 0.42769 0.35074 0.2982 0.0
H1155 H 0.41257 0.35545 0.25909 0.0
H1156 H 0.39315 0.37838 0.31775 0.0
H1157 H 0.40825 0.37382 0.35685 0.0
H1158 H 0.36944 0.35843 0.27393 0.0
H1159 H 0.42864 0.40354 0.2861 0.0
H1160 H 0.45964 0.41448 0.28946 0.0
H1161 H 0.45935 0.39491 0.20598 0.0
H1162 H 0.42827 0.38364 0.20232 0.0
H1163 H 0.36013 0.42065 0.19603 0.0
H1164 H 0.3652 0.40259 0.22873 0.0
H1165 H 0.39163 0.39212 0.16213 0.0
H1166 H 0.38716 0.41066 0.12979 0.0
H1167 H 0.41039 0.40185 0.20645 0.0
H1168 H 0.35208 0.36062 0.19046 0.0
H1169 H 0.32105 0.34923 0.18662 0.0
H1170 H 0.31895 0.36024 0.27503 0.0
H1171 H 0.35003 0.37193 0.27932 0.0
C1172 C 0.41985 0.35639 0.30288 0.0
C1173 C 0.41934 0.36214 0.33049 0.0
C1174 C 0.41124 0.35907 0.28053 0.0
C1175 C 0.40191 0.36742 0.28556 0.0
C1176 C 0.40028 0.37191 0.31347 0.0
C1177 C 0.40901 0.36939 0.33574 0.0
C1178 C 0.39581 0.37356 0.26157 0.0
C1179 C 0.37832 0.36793 0.2591 0.0
C1180 C 0.40742 0.38567 0.24197 0.0
C1181 C 0.42612 0.39257 0.24409 0.0
C1182 C 0.43517 0.40145 0.26857 0.0
C1183 C 0.45275 0.40773 0.27051 0.0
C1184 C 0.46145 0.40534 0.24799 0.0
C1185 C 0.45259 0.39672 0.22343 0.0
C1186 C 0.43499 0.39038 0.22141 0.0
C1187 C 0.36675 0.41425 0.18826 0.0
C1188 C 0.37339 0.41718 0.16048 0.0
C1189 C 0.36956 0.40383 0.20691 0.0
C1190 C 0.37874 0.39589 0.19789 0.0
C1191 C 0.38459 0.39815 0.16965 0.0
C1192 C 0.38202 0.40875 0.15118 0.0
C1193 C 0.38387 0.38683 0.21858 0.0
C1194 C 0.4013 0.39205 0.22067 0.0
C1195 C 0.37214 0.37427 0.23761 0.0
C1196 C 0.35343 0.36728 0.23514 0.0
C1197 C 0.34504 0.36075 0.20903 0.0
C1198 C 0.32743 0.35421 0.20679 0.0
C1199 C 0.31804 0.35405 0.23055 0.0
C1200 C 0.32624 0.36039 0.25663 0.0
C1201 C 0.34386 0.36695 0.25899 0.0
H1202 H 0.3044 0.34898 0.22877 0.0
H1203 H 0.47506 0.4102 0.24952 0.0
H1204 H 0.58125 0.9276 0.20227 0.0
H1205 H 0.5989 0.94847 0.23866 0.0
H1206 H 0.60882 0.98959 0.18106 0.0
H1207 H 0.59128 0.96891 0.14472 0.0
H1208 H 0.6372 0.99668 0.21615 0.0
H1209 H 0.5759 0.97579 0.22349 0.0
H1210 H 0.54584 0.95299 0.22846 0.0
H1211 H 0.55782 0.93694 0.30699 0.0
H1212 H 0.58803 0.95952 0.30224 0.0
H1213 H 0.64382 0.0666 0.29475 0.0
H1214 H 0.63988 0.04336 0.26325 0.0
H1215 H 0.62343 0.00879 0.33493 0.0
H1216 H 0.62653 0.03179 0.36608 0.0
H1217 H 0.60118 0.99562 0.29671 0.0
H1218 H 0.66141 0.02037 0.29492 0.0
H1219 H 0.69158 0.04288 0.2903 0.0
H1220 H 0.68288 0.05144 0.20348 0.0
H1221 H 0.65259 0.02915 0.20767 0.0
C1222 C 0.58752 0.94108 0.19716 0.0
C1223 C 0.58467 0.94664 0.17084 0.0
C1224 C 0.59761 0.95297 0.21793 0.0
C1225 C 0.60501 0.97055 0.21258 0.0
C1226 C 0.60324 0.97608 0.18557 0.0
C1227 C 0.59309 0.96424 0.16492 0.0
C1228 C 0.61247 0.98315 0.23598 0.0
C1229 C 0.62943 0.99653 0.23388 0.0
C1230 C 0.60238 0.98263 0.25938 0.0
C1231 C 0.58422 0.96918 0.26233 0.0
C1232 C 0.57214 0.96731 0.2417 0.0
C1233 C 0.55508 0.95445 0.24449 0.0
C1234 C 0.54993 0.94349 0.26798 0.0
C1235 C 0.56183 0.94541 0.28877 0.0
C1236 C 0.57892 0.95823 0.28604 0.0
C1237 C 0.63974 0.05412 0.30382 0.0
C1238 C 0.63529 0.05091 0.33272 0.0
C1239 C 0.63759 0.04084 0.28585 0.0
C1240 C 0.6314 0.02425 0.29667 0.0
C1241 C 0.62812 0.02141 0.326 0.0
C1242 C 0.62989 0.03456 0.34379 0.0
C1243 C 0.62606 0.00952 0.27705 0.0
C1244 C 0.60932 0.99572 0.27964 0.0
C1245 C 0.63646 0.00966 0.25433 0.0
C1246 C 0.65467 0.02314 0.25169 0.0
C1247 C 0.66588 0.02714 0.2749 0.0
C1248 C 0.68302 0.03985 0.27234 0.0
C1249 C 0.68914 0.04861 0.24663 0.0
C1250 C 0.67813 0.04465 0.22339 0.0
C1251 C 0.66097 0.03196 0.22584 0.0
H1252 H 0.70241 0.05844 0.24469 0.0
H1253 H 0.53672 0.93354 0.27011 0.0
H1254 H 0.35468 0.93591 0.69964 0.0
H1255 H 0.36018 0.95958 0.73134 0.0
H1256 H 0.37841 0.99433 0.65993 0.0
H1257 H 0.37362 0.97083 0.62848 0.0
H1258 H 0.40095 0.006 0.69845 0.0
H1259 H 0.34144 0.98552 0.69955 0.0
H1260 H 0.31067 0.96471 0.70353 0.0
H1261 H 0.31765 0.95434 0.79022 0.0
H1262 H 0.34851 0.97491 0.78668 0.0
H1263 H 0.4253 0.07429 0.7947 0.0
H1264 H 0.40712 0.05442 0.75758 0.0
H1265 H 0.39348 0.01199 0.81432 0.0
H1266 H 0.41153 0.03167 0.8514 0.0
H1267 H 0.36614 0.00743 0.77895 0.0
H1268 H 0.42643 0.02389 0.77221 0.0
H1269 H 0.45712 0.04498 0.76774 0.0
H1270 H 0.44752 0.06328 0.68942 0.0
H1271 H 0.41672 0.04242 0.69367 0.0
C1272 C 0.35948 0.94854 0.69064 0.0
C1273 C 0.36392 0.9516 0.66171 0.0
C1274 C 0.36253 0.96206 0.70874 0.0
C1275 C 0.36968 0.97879 0.69806 0.0
C1276 C 0.37298 0.98158 0.66874 0.0
C1277 C 0.37024 0.96815 0.65078 0.0
C1278 C 0.37594 0.99357 0.71783 0.0
C1279 C 0.39311 0.00649 0.71552 0.0
C1280 C 0.3659 0.99416 0.7405 0.0
C1281 C 0.34734 0.98171 0.74277 0.0
C1282 C 0.33645 0.97871 0.7194 0.0
C1283 C 0.31898 0.96697 0.7216 0.0
C1284 C 0.31222 0.95819 0.7471 0.0
C1285 C 0.32291 0.96115 0.77048 0.0
C1286 C 0.34039 0.97287 0.7684 0.0
C1287 C 0.41814 0.06076 0.79944 0.0
C1288 C 0.42004 0.0545 0.82578 0.0
C1289 C 0.40775 0.04944 0.77825 0.0
C1290 C 0.3991 0.03175 0.78318 0.0
C1291 C 0.40002 0.0256 0.81013 0.0
C1292 C 0.41047 0.03686 0.83121 0.0
C1293 C 0.39101 0.01949 0.75947 0.0
C1294 C 0.37365 0.00705 0.76125 0.0
C1295 C 0.40077 0.01934 0.73608 0.0
C1296 C 0.41928 0.03177 0.73344 0.0
C1297 C 0.43086 0.0325 0.75416 0.0
C1298 C 0.44827 0.04439 0.75165 0.0
C1299 C 0.45426 0.0555 0.72836 0.0
C1300 C 0.44285 0.0547 0.70748 0.0
C1301 C 0.42543 0.04285 0.70993 0.0
H1302 H 0.46774 0.0647 0.72645 0.0
H1303 H 0.29869 0.94911 0.74875 0.0
H1304 H 0.06883 0.42625 0.70058 0.0
H1305 H 0.04529 0.40755 0.73212 0.0
H1306 H 0.01012 0.39271 0.66147 0.0
H1307 H 0.03348 0.4119 0.63023 0.0
H1308 H 0.99846 0.40227 0.70218 0.0
H1309 H 0.01988 0.36399 0.6967 0.0
H1310 H 0.04112 0.35449 0.69817 0.0
H1311 H 0.05107 0.36874 0.78633 0.0
H1312 H 0.03007 0.37856 0.78531 0.0
H1313 H 0.92915 0.35151 0.79294 0.0
H1314 H 0.9502 0.35605 0.75604 0.0
H1315 H 0.99099 0.38362 0.81621 0.0
H1316 H 0.97012 0.37923 0.85308 0.0
H1317 H 0.99736 0.36307 0.77717 0.0
H1318 H 0.97918 0.40563 0.77806 0.0
H1319 H 0.95746 0.41451 0.77608 0.0
H1320 H 0.94091 0.39067 0.69417 0.0
H1321 H 0.9624 0.38144 0.69589 0.0
C1322 C 0.05613 0.41874 0.69171 0.0
C1323 C 0.05294 0.42066 0.66306 0.0
C1324 C 0.04268 0.40795 0.70971 0.0
C1325 C 0.02588 0.39862 0.6992 0.0
C1326 C 0.02292 0.39982 0.67015 0.0
C1327 C 0.03629 0.41079 0.65231 0.0
C1328 C 0.01121 0.38936 0.71897 0.0
C1329 C 0.99807 0.39336 0.71805 0.0
C1330 C 0.01075 0.37795 0.74012 0.0
C1331 C 0.02347 0.37214 0.74085 0.0
C1332 C 0.0267 0.36523 0.71635 0.0
C1333 C 0.03868 0.35976 0.71711 0.0
C1334 C 0.04746 0.36104 0.74231 0.0
C1335 C 0.04426 0.36777 0.76682 0.0
C1336 C 0.0323 0.37327 0.76617 0.0
C1337 C 0.94258 0.35819 0.79847 0.0
C1338 C 0.94801 0.36523 0.82577 0.0
C1339 C 0.95458 0.36076 0.77739 0.0
C1340 C 0.97213 0.3703 0.78339 0.0
C1341 C 0.9775 0.37621 0.81119 0.0
C1342 C 0.96555 0.37379 0.83216 0.0
C1343 C 0.98491 0.37615 0.76018 0.0
C1344 C 0.99768 0.37165 0.7607 0.0
C1345 C 0.98502 0.38699 0.73841 0.0
C1346 C 0.97223 0.39267 0.73726 0.0
C1347 C 0.97082 0.40217 0.75974 0.0
C1348 C 0.95857 0.40728 0.75865 0.0
C1349 C 0.94777 0.40311 0.73506 0.0
C1350 C 0.94925 0.39386 0.71246 0.0
C1351 C 0.96146 0.38869 0.71348 0.0
H1352 H 0.9383 0.40708 0.73425 0.0
H1353 H 0.05673 0.35679 0.74287 0.0
H1354 H 0.64361 0.5825 0.79171 0.0
H1355 H 0.63814 0.60182 0.76286 0.0
H1356 H 0.61259 0.60949 0.83424 0.0
H1357 H 0.61745 0.58974 0.86266 0.0
H1358 H 0.59293 0.60056 0.79121 0.0
H1359 H 0.65096 0.64251 0.80563 0.0
H1360 H 0.68222 0.65507 0.80731 0.0
H1361 H 0.68316 0.64705 0.71733 0.0
H1362 H 0.65186 0.63423 0.71514 0.0
H1363 H 0.57118 0.6514 0.70753 0.0
H1364 H 0.5883 0.64751 0.74412 0.0
H1365 H 0.60645 0.62545 0.68142 0.0
H1366 H 0.58929 0.62911 0.64491 0.0
H1367 H 0.63155 0.64615 0.72445 0.0
H1368 H 0.57271 0.59933 0.71431 0.0
H1369 H 0.5415 0.58744 0.71321 0.0
H1370 H 0.54302 0.6061 0.79792 0.0
H1371 H 0.5743 0.61831 0.79932 0.0
C1372 C 0.63711 0.58857 0.80135 0.0
C1373 C 0.63074 0.58445 0.82925 0.0
C1374 C 0.63409 0.59972 0.78493 0.0
C1375 C 0.62497 0.60717 0.79638 0.0
C1376 C 0.61956 0.60384 0.82486 0.0
C1377 C 0.62232 0.59252 0.84107 0.0
C1378 C 0.6191 0.61653 0.7778 0.0
C1379 C 0.60152 0.61084 0.77721 0.0
C1380 C 0.63018 0.62974 0.75906 0.0
C1381 C 0.64901 0.63727 0.76027 0.0
C1382 C 0.6578 0.64328 0.78623 0.0
C1383 C 0.67554 0.65048 0.78727 0.0
C1384 C 0.68467 0.65183 0.76246 0.0
C1385 C 0.67607 0.64599 0.73654 0.0
C1386 C 0.65833 0.63878 0.73538 0.0
C1387 C 0.57917 0.64614 0.70142 0.0
C1388 C 0.57872 0.64031 0.67351 0.0
C1389 C 0.58895 0.64396 0.7223 0.0
C1390 C 0.59852 0.63609 0.71542 0.0
C1391 C 0.59919 0.63159 0.68709 0.0
C1392 C 0.58926 0.63356 0.66633 0.0
C1393 C 0.60557 0.63005 0.73808 0.0
C1394 C 0.62321 0.6362 0.73915 0.0
C1395 C 0.59463 0.61735 0.75754 0.0
C1396 C 0.57583 0.60991 0.75678 0.0
C1397 C 0.56639 0.60101 0.7326 0.0
C1398 C 0.5487 0.5942 0.73194 0.0
C1399 C 0.54028 0.59606 0.75545 0.0
C1400 C 0.54955 0.6047 0.7797 0.0
C1401 C 0.56726 0.61157 0.78044 0.0
H1402 H 0.52658 0.59077 0.7549 0.0
H1403 H 0.69841 0.65743 0.7633 0.0
H1404 H 0.23625 0.03796 -0.00023 0.0
H1405 H 0.24219 0.06694 0.01087 0.0
H1406 H 0.1902 0.05228 0.98959 0.0
H1407 H 0.18432 0.02358 0.97796 0.0
H1408 H 0.21173 0.08077 0.96305 0.0
H1409 H 0.20515 0.05937 0.05922 0.0
H1410 H 0.21156 0.04644 0.10021 0.0
H1411 H 0.26357 0.08753 0.1002 0.0
H1412 H 0.25752 0.10059 0.05895 0.0
H1413 H 0.2019 0.14789 0.01653 0.0
H1414 H 0.20033 0.12053 0.00811 0.0
H1415 H 0.25395 0.1431 0.0275 0.0
H1416 H 0.25565 0.17061 0.03634 0.0
H1417 H 0.23494 0.11218 0.05367 0.0
H1418 H 0.24093 0.13453 0.95953 0.0
H1419 H 0.23439 0.14757 0.91887 0.0
H1420 H 0.18344 0.10462 0.91504 0.0
H1421 H 0.1896 0.09143 0.95595 0.0
C1422 C 0.22604 0.04087 0.9979 0.0
C1423 C 0.20984 0.02852 0.98786 0.0
C1424 C 0.22944 0.05743 0.00427 0.0
C1425 C 0.21663 0.06179 0.00103 0.0
C1426 C 0.20031 0.04925 0.99205 0.0
C1427 C 0.19695 0.03282 0.9855 0.0
C1428 C 0.2203 0.07958 0.00539 0.0
C1429 C 0.21663 0.08755 0.98299 0.0
C1430 C 0.22728 0.08869 0.03101 0.0
C1431 C 0.23093 0.08084 0.0558 0.0
C1432 C 0.21799 0.06557 0.0678 0.0
C1433 C 0.22155 0.05823 0.09112 0.0
C1434 C 0.23797 0.06613 0.10275 0.0
C1435 C 0.25086 0.08141 0.09114 0.0
C1436 C 0.24737 0.08878 0.0678 0.0
C1437 C 0.21341 0.14711 0.01891 0.0
C1438 C 0.22893 0.16149 0.02702 0.0
C1439 C 0.21249 0.13145 0.014 0.0
C1440 C 0.22706 0.12982 0.0169 0.0
C1441 C 0.24257 0.14409 0.0251 0.0
C1442 C 0.24352 0.15982 0.03001 0.0
C1443 C 0.22592 0.11311 0.0116 0.0
C1444 C 0.23014 0.1054 0.03369 0.0
C1445 C 0.21943 0.1042 0.98568 0.0
C1446 C 0.2157 0.11205 0.96096 0.0
C1447 C 0.2283 0.12792 0.95015 0.0
C1448 C 0.22466 0.13533 0.92704 0.0
C1449 C 0.2085 0.12694 0.91442 0.0
C1450 C 0.19595 0.11111 0.92485 0.0
C1451 C 0.19952 0.10365 0.94798 0.0
H1452 H 0.20571 0.1327 0.89652 0.0
H1453 H 0.2407 0.06044 0.1208 0.0
H1454 H 0.97866 0.16026 0.97333 0.0
H1455 H 0.94977 0.13741 0.98386 0.0
H1456 H 0.93527 0.17466 0.00653 0.0
H1457 H 0.96445 0.19775 0.99654 0.0
H1458 H 0.92043 0.14705 0.04163 0.0
H1459 H 0.9257 0.15669 0.94123 0.0
H1460 H 0.93883 0.16057 0.89376 0.0
H1461 H 0.93185 0.11002 0.8977 0.0
H1462 H 0.91891 0.10592 0.9454 0.0
H1463 H 0.83141 0.08559 0.02881 0.0
H1464 H 0.85942 0.11097 0.02144 0.0
H1465 H 0.88058 0.07892 4e-05 0.0
H1466 H 0.85267 0.05351 0.00715 0.0
H1467 H 0.89097 0.10565 0.96332 0.0
H1468 H 0.88695 0.09693 0.06527 0.0
H1469 H 0.87361 0.09333 0.1125 0.0
H1470 H 0.87765 0.14255 0.10484 0.0
H1471 H 0.89082 0.14635 0.05737 0.0
C1472 C 0.96941 0.16363 0.98089 0.0
C1473 C 0.97378 0.18081 0.98382 0.0
C1474 C 0.95287 0.15054 0.98678 0.0
C1475 C 0.94026 0.15434 0.9953 0.0
C1476 C 0.94478 0.17146 -0.00023 0.0
C1477 C 0.96144 0.18462 0.99408 0.0
C1478 C 0.92228 0.14039 -0.00176 0.0
C1479 C 0.91388 0.13815 0.02438 0.0
C1480 C 0.91378 0.12868 0.97579 0.0
C1481 C 0.92145 0.13105 0.947 0.0
C1482 C 0.92707 0.14644 0.93206 0.0
C1483 C 0.93447 0.14868 0.9051 0.0
C1484 C 0.9362 0.13556 0.89275 0.0
C1485 C 0.93051 0.12017 0.90731 0.0
C1486 C 0.92313 0.11788 0.93429 0.0
C1487 C 0.842 0.08393 0.02239 0.0
C1488 C 0.83979 0.0675 0.01865 0.0
C1489 C 0.85802 0.09846 0.01834 0.0
C1490 C 0.87211 0.09682 0.01051 0.0
C1491 C 0.86987 0.08047 0.00614 0.0
C1492 C 0.8539 0.06595 0.01027 0.0
C1493 C 0.88927 0.11209 0.00688 0.0
C1494 C 0.89748 0.11461 0.98052 0.0
C1495 C 0.89751 0.12407 0.02906 0.0
C1496 C 0.8897 0.12184 0.05765 0.0
C1497 C 0.88487 0.10693 0.07356 0.0
C1498 C 0.87736 0.10486 0.10039 0.0
C1499 C 0.87474 0.11768 0.11163 0.0
C1500 C 0.87967 0.13262 0.09609 0.0
C1501 C 0.88716 0.13474 0.06924 0.0
H1502 H 0.86893 0.11606 0.1324 0.0
H1503 H 0.94193 0.13732 0.87187 0.0
H1504 H 0.84168 0.81736 0.95666 0.0
H1505 H 0.86462 0.81155 0.96755 0.0
H1506 H 0.82833 0.76348 0.00575 0.0
H1507 H 0.80514 0.76931 0.99514 0.0
H1508 H 0.8581 0.78006 0.03653 0.0
H1509 H 0.84221 0.76359 0.93994 0.0
H1510 H 0.8354 0.76679 0.89027 0.0
H1511 H 0.88607 0.80931 0.8789 0.0
H1512 H 0.89312 0.80653 0.92866 0.0
H1513 H 0.91748 0.74971 0.03293 0.0
H1514 H 0.89204 0.75193 0.0237 0.0
H1515 H 0.92357 0.80229 0.98857 0.0
H1516 H 0.94912 0.80025 0.99781 0.0
H1517 H 0.89447 0.78168 0.95597 0.0
H1518 H 0.9094 0.79879 0.05402 0.0
H1519 H 0.91595 0.79507 0.1036 0.0
H1520 H 0.8665 0.75023 0.11173 0.0
H1521 H 0.85975 0.75355 0.06202 0.0
C1522 C 0.83853 0.8056 0.9676 0.0
C1523 C 0.82155 0.79372 0.97483 0.0
C1524 C 0.85168 0.80227 0.9737 0.0
C1525 C 0.84813 0.78693 0.98693 0.0
C1526 C 0.83131 0.77535 0.99535 0.0
C1527 C 0.81809 0.7787 0.98929 0.0
C1528 C 0.86204 0.78297 0.99115 0.0
C1529 C 0.86586 0.78011 0.01887 0.0
C1530 C 0.8723 0.78324 0.96812 0.0
C1531 C 0.86815 0.78494 0.93812 0.0
C1532 C 0.85187 0.77371 0.92692 0.0
C1533 C 0.84797 0.77543 0.89874 0.0
C1534 C 0.86028 0.78827 0.88146 0.0
C1535 C 0.87654 0.79938 0.89232 0.0
C1536 C 0.8805 0.79773 0.92051 0.0
C1537 C 0.91902 0.76122 0.02303 0.0
C1538 C 0.93535 0.77484 0.01619 0.0
C1539 C 0.90446 0.76248 0.0179 0.0
C1540 C 0.90596 0.77734 0.00571 0.0
C1541 C 0.92217 0.79074 -0.00194 0.0
C1542 C 0.93675 0.78956 0.00341 0.0
C1543 C 0.89069 0.77908 0.00135 0.0
C1544 C 0.8866 0.78149 0.97358 0.0
C1545 C 0.88014 0.77828 0.02429 0.0
C1546 C 0.88415 0.77631 0.05421 0.0
C1547 C 0.89998 0.78805 0.0663 0.0
C1548 C 0.90372 0.78603 0.09444 0.0
C1549 C 0.89167 0.77239 0.11078 0.0
C1550 C 0.87584 0.76077 0.09903 0.0
C1551 C 0.87204 0.76272 0.07088 0.0
H1552 H 0.89458 0.77085 0.13257 0.0
H1553 H 0.85724 0.78958 0.85964 0.0
H1554 H 0.15085 0.20409 0.49791 0.0
H1555 H 0.12305 0.20178 0.50507 0.0
H1556 H 0.14201 0.25184 0.46845 0.0
H1557 H 0.17009 0.25447 0.46196 0.0
H1558 H 0.12192 0.24768 0.51253 0.0
H1559 H 0.11744 0.21546 0.42903 0.0
H1560 H 0.12021 0.1941 0.40038 0.0
H1561 H 0.08552 0.15425 0.45643 0.0
H1562 H 0.08273 0.1754 0.48565 0.0
H1563 H 0.03645 0.23293 0.49827 0.0
H1564 H 0.06531 0.23899 0.48571 0.0
H1565 H 0.05493 0.1914 0.52418 0.0
H1566 H 0.02622 0.1852 0.53644 0.0
H1567 H 0.07105 0.19636 0.47392 0.0
H1568 H 0.07765 0.22935 0.55934 0.0
H1569 H 0.07515 0.25093 0.58782 0.0
H1570 H 0.10588 0.28963 0.52681 0.0
H1571 H 0.10838 0.26822 0.49778 0.0
C1572 C 0.14917 0.21468 0.49158 0.0
C1573 C 0.16265 0.22941 0.47913 0.0
C1574 C 0.13323 0.2133 0.49554 0.0
C1575 C 0.13032 0.22647 0.48666 0.0
C1576 C 0.14393 0.24148 0.47528 0.0
C1577 C 0.15997 0.24295 0.47159 0.0
C1578 C 0.11298 0.22435 0.48876 0.0
C1579 C 0.11083 0.2366 0.50367 0.0
C1580 C 0.09847 0.20984 0.47736 0.0
C1581 C 0.09997 0.19704 0.45965 0.0
C1582 C 0.11048 0.20215 0.43534 0.0
C1583 C 0.11205 0.19008 0.41899 0.0
C1584 C 0.10307 0.17283 0.42661 0.0
C1585 C 0.09247 0.16762 0.45056 0.0
C1586 C 0.09088 0.17964 0.46701 0.0
C1587 C 0.0403 0.22371 0.50382 0.0
C1588 C 0.02907 0.20862 0.51843 0.0
C1589 C 0.0568 0.22723 0.49677 0.0
C1590 C 0.06231 0.21571 0.50428 0.0
C1591 C 0.05095 0.20046 0.51818 0.0
C1592 C 0.03454 0.19697 0.52524 0.0
C1593 C 0.07997 0.21946 0.49827 0.0
C1594 C 0.08217 0.20753 0.4825 0.0
C1595 C 0.0945 0.23429 0.50876 0.0
C1596 C 0.09303 0.24715 0.52623 0.0
C1597 C 0.08376 0.24244 0.55189 0.0
C1598 C 0.08236 0.25464 0.56815 0.0
C1599 C 0.09031 0.27163 0.55909 0.0
C1600 C 0.0997 0.27646 0.53378 0.0
C1601 C 0.10112 0.2643 0.51742 0.0
H1602 H 0.08922 0.28106 0.57171 0.0
H1603 H 0.10431 0.16351 0.41393 0.0
H1604 H 0.77239 0.8047 0.49536 0.0
H1605 H 0.76673 0.82779 0.48344 0.0
H1606 H 0.8184 0.86501 0.50682 0.0
H1607 H 0.82396 0.84208 0.5194 0.0
H1608 H 0.79692 0.87233 0.53159 0.0
H1609 H 0.80429 0.8574 0.43628 0.0
H1610 H 0.7986 0.83815 0.39538 0.0
H1611 H 0.74635 0.82644 0.39355 0.0
H1612 H 0.75168 0.84546 0.43469 0.0
H1613 H 0.80279 0.94788 0.47633 0.0
H1614 H 0.8063 0.92318 0.4851 0.0
H1615 H 0.75278 0.8894 0.468 0.0
H1616 H 0.74913 0.91404 0.45906 0.0
H1617 H 0.77331 0.8794 0.44052 0.0
H1618 H 0.76637 0.89517 0.53485 0.0
H1619 H 0.77228 0.91476 0.57531 0.0
H1620 H 0.82405 0.92506 0.57864 0.0
H1621 H 0.81851 0.90572 0.53791 0.0
C1622 C 0.78261 0.81781 0.4975 0.0
C1623 C 0.7986 0.82159 0.50842 0.0
C1624 C 0.77937 0.831 0.49065 0.0
C1625 C 0.79215 0.84816 0.4942 0.0
C1626 C 0.8083 0.85189 0.50407 0.0
C1627 C 0.81149 0.83876 0.51116 0.0
C1628 C 0.78855 0.86229 0.4893 0.0
C1629 C 0.79197 0.87398 0.51151 0.0
C1630 C 0.78157 0.86415 0.46347 0.0
C1631 C 0.77834 0.85271 0.43876 0.0
C1632 C 0.79155 0.8506 0.42731 0.0
C1633 C 0.7884 0.83976 0.40405 0.0
C1634 C 0.77211 0.83104 0.39193 0.0
C1635 C 0.75896 0.83318 0.40299 0.0
C1636 C 0.76204 0.844 0.42626 0.0
C1637 C 0.79173 0.93522 0.47455 0.0
C1638 C 0.77567 0.93295 0.46705 0.0
C1639 C 0.79376 0.92111 0.47962 0.0
C1640 C 0.77977 0.90447 0.47736 0.0
C1641 C 0.76373 0.90214 0.46984 0.0
C1642 C 0.76167 0.91625 0.46488 0.0
C1643 C 0.78199 0.88954 0.4826 0.0
C1644 C 0.77824 0.87768 0.46057 0.0
C1645 C 0.78871 0.88752 0.50857 0.0
C1646 C 0.79206 0.89911 0.53316 0.0
C1647 C 0.77905 0.90172 0.54406 0.0
C1648 C 0.78233 0.91276 0.56707 0.0
C1649 C 0.79854 0.92118 0.57949 0.0
C1650 C 0.8115 0.91854 0.56897 0.0
C1651 C 0.8083 0.90753 0.54594 0.0
H1652 H 0.80105 0.92972 0.59731 0.0
H1653 H 0.7697 0.82265 0.37392 0.0
H1654 H 0.08685 0.83012 0.45973 0.0
H1655 H 0.11258 0.85793 0.46679 0.0
H1656 H 0.08148 0.87917 0.49389 0.0
H1657 H 0.05576 0.85158 0.4866 0.0
H1658 H 0.1047 0.89921 0.45505 0.0
H1659 H 0.10427 0.87003 0.54142 0.0
H1660 H 0.10386 0.84669 0.56925 0.0
H1661 H 0.151 0.85675 0.53041 0.0
H1662 H 0.15156 0.88 0.50202 0.0
H1663 H 0.15965 0.97455 0.52827 0.0
H1664 H 0.13792 0.94595 0.51375 0.0
H1665 H 0.17715 0.93532 0.48598 0.0
H1666 H 0.19917 0.96415 0.50065 0.0
H1667 H 0.15236 0.90945 0.5196 0.0
H1668 H 0.15406 0.94083 0.43689 0.0
H1669 H 0.15426 0.96428 0.40977 0.0
H1670 H 0.10451 0.95017 0.44221 0.0
H1671 H 0.10411 0.92678 0.46986 0.0
C1672 C 0.08549 0.84067 0.46741 0.0
C1673 C 0.06923 0.83862 0.47253 0.0
C1674 C 0.10022 0.85655 0.47148 0.0
C1675 C 0.09894 0.87061 0.4809 0.0
C1676 C 0.08275 0.86851 0.48647 0.0
C1677 C 0.06806 0.85269 0.48239 0.0
C1678 C 0.11434 0.88769 0.48431 0.0
C1679 C 0.11506 0.90147 0.46933 0.0
C1680 C 0.12813 0.89052 0.50218 0.0
C1681 C 0.12785 0.87661 0.51934 0.0
C1682 C 0.11448 0.86717 0.53863 0.0
C1683 C 0.11423 0.85397 0.55454 0.0
C1684 C 0.12737 0.8502 0.55153 0.0
C1685 C 0.14081 0.85966 0.53267 0.0
C1686 C 0.14111 0.87285 0.51668 0.0
C1687 C 0.16371 0.96622 0.51885 0.0
C1688 C 0.18114 0.97163 0.51557 0.0
C1689 C 0.15125 0.94988 0.51047 0.0
C1690 C 0.15592 0.93856 0.49859 0.0
C1691 C 0.1733 0.9439 0.49505 0.0
C1692 C 0.18584 0.96038 0.5033 0.0
C1693 C 0.14247 0.92101 0.49091 0.0
C1694 C 0.14212 0.90714 0.50501 0.0
C1695 C 0.12896 0.91808 0.47229 0.0
C1696 C 0.12911 0.93211 0.45561 0.0
C1697 C 0.14322 0.9428 0.43841 0.0
C1698 C 0.14335 0.95607 0.42291 0.0
C1699 C 0.12942 0.95873 0.4243 0.0
C1700 C 0.1153 0.9481 0.44116 0.0
C1701 C 0.1151 0.93482 0.45672 0.0
H1702 H 0.12955 0.96901 0.41228 0.0
H1703 H 0.12715 0.83998 0.56386 0.0
H1704 H 0.76718 0.96439 0.98761 0.0
H1705 H 0.76075 0.93558 0.97381 0.0
H1706 H 0.81218 0.94842 0.99558 0.0
H1707 H 0.81867 0.97707 0.00932 0.0
H1708 H 0.80104 0.92957 0.94626 0.0
H1709 H 0.78075 0.92781 0.0425 0.0
H1710 H 0.76362 0.93191 0.07923 0.0
H1711 H 0.71756 0.89769 0.03446 0.0
H1712 H 0.73446 0.89358 0.99722 0.0
H1713 H 0.79866 0.85227 0.97374 0.0
H1714 H 0.80119 0.88031 0.97844 0.0
H1715 H 0.74745 0.85828 0.96036 0.0
H1716 H 0.74471 0.83003 0.95611 0.0
H1717 H 0.75699 0.8811 0.00274 0.0
H1718 H 0.77704 0.88034 0.90908 0.0
H1719 H 0.79414 0.87602 0.87259 0.0
H1720 H 0.84033 0.91477 0.91165 0.0
H1721 H 0.82351 0.91915 0.94863 0.0
C1722 C 0.77718 0.96114 0.98897 0.0
C1723 C 0.79339 0.97294 -0.00028 0.0
C1724 C 0.77347 0.94467 0.98123 0.0
C1725 C 0.78594 0.93983 0.98399 0.0
C1726 C 0.80236 0.95189 0.99332 0.0
C1727 C 0.80603 0.96824 0.00125 0.0
C1728 C 0.78182 0.92199 0.97882 0.0
C1729 C 0.79145 0.91897 0.95866 0.0
C1730 C 0.76902 0.90812 0.99453 0.0
C1731 C 0.75887 0.91056 0.01691 0.0
C1732 C 0.76698 0.92128 0.04036 0.0
C1733 C 0.75731 0.92359 0.06129 0.0
C1734 C 0.73952 0.91511 0.05913 0.0
C1735 C 0.73135 0.90428 0.03607 0.0
C1736 C 0.74096 0.90195 0.01505 0.0
C1737 C 0.78734 0.85333 0.97091 0.0
C1738 C 0.7715 0.8389 0.96436 0.0
C1739 C 0.78883 0.86941 0.97343 0.0
C1740 C 0.77458 0.87145 0.96916 0.0
C1741 C 0.75864 0.85701 0.96355 0.0
C1742 C 0.75711 0.84087 0.96113 0.0
C1743 C 0.77644 0.8887 0.97052 0.0
C1744 C 0.76639 0.89162 0.98998 0.0
C1745 C 0.78883 0.90248 0.95409 0.0
C1746 C 0.799 0.89998 0.93176 0.0
C1747 C 0.79085 0.88786 0.91001 0.0
C1748 C 0.80049 0.88541 0.88922 0.0
C1749 C 0.81831 0.89509 0.88983 0.0
C1750 C 0.82652 0.90727 0.91121 0.0
C1751 C 0.81694 0.90976 0.93207 0.0
H1752 H 0.82576 0.89318 0.87372 0.0
H1753 H 0.73206 0.91691 0.07536 0.0
H1754 H 0.17506 0.9158 0.96507 0.0
H1755 H 0.14756 0.88983 0.97333 0.0
H1756 H 0.12514 0.92058 0.99608 0.0
H1757 H 0.15246 0.94647 0.98822 0.0
H1758 H 0.1157 0.8943 0.03255 0.0
H1759 H 0.11935 0.90257 0.93005 0.0
H1760 H 0.13264 0.90586 0.88285 0.0
H1761 H 0.12893 0.85684 0.89187 0.0
H1762 H 0.1158 0.85337 0.93931 0.0
H1763 H 0.02802 0.84389 0.01884 0.0
H1764 H 0.05766 0.86523 0.00937 0.0
H1765 H 0.06915 0.82534 0.99064 0.0
H1766 H 0.03922 0.80372 -0.00022 0.0
H1767 H 0.08579 0.85308 0.95422 0.0
H1768 H 0.0793 0.84339 0.0544 0.0
H1769 H 0.06581 0.83994 0.10144 0.0
H1770 H 0.07517 0.89137 0.09732 0.0
H1771 H 0.08849 0.89505 0.05004 0.0
C1772 C 0.1643 0.91702 0.972 0.0
C1773 C 0.16596 0.93323 0.97588 0.0
C1774 C 0.14858 0.90217 0.97658 0.0
C1775 C 0.13427 0.90328 0.98504 0.0
C1776 C 0.13601 0.91942 0.98954 0.0
C1777 C 0.15166 0.93423 0.98496 0.0
C1778 C 0.11732 0.88776 0.98901 0.0
C1779 C 0.10913 0.88534 0.01538 0.0
C1780 C 0.10899 0.87575 0.96689 0.0
C1781 C 0.11678 0.8778 0.93834 0.0
C1782 C 0.12149 0.89256 0.92206 0.0
C1783 C 0.12897 0.89444 0.89525 0.0
C1784 C 0.13168 0.88159 0.88441 0.0
C1785 C 0.12686 0.8668 0.90032 0.0
C1786 C 0.11939 0.86486 0.92715 0.0
C1787 C 0.03677 0.8396 0.0124 0.0
C1788 C 0.03131 0.8221 0.01035 0.0
C1789 C 0.05373 0.85183 0.00709 0.0
C1790 C 0.06568 0.84685 -7e-05 0.0
C1791 C 0.06014 0.82943 0.99635 0.0
C1792 C 0.04305 0.81711 0.00156 0.0
C1793 C 0.084 0.85998 0.99747 0.0
C1794 C 0.09246 0.8619 0.9715 0.0
C1795 C 0.09265 0.87155 0.01999 0.0
C1796 C 0.0848 0.86945 0.04858 0.0
C1797 C 0.07838 0.85393 0.06344 0.0
C1798 C 0.07078 0.85194 0.09016 0.0
C1799 C 0.06961 0.86542 0.10234 0.0
C1800 C 0.07608 0.88093 0.08785 0.0
C1801 C 0.08368 0.88299 0.06111 0.0
H1802 H 0.06371 0.86385 0.12303 0.0
H1803 H 0.13747 0.88308 0.86365 0.0
H1804 H 0.15843 0.18319 0.02341 0.0
H1805 H 0.13671 0.18998 0.00852 0.0
H1806 H 0.17596 0.23967 0.98009 0.0
H1807 H 0.19796 0.23299 0.99529 0.0
H1808 H 0.15194 0.24143 0.01321 0.0
H1809 H 0.15171 0.20987 0.9316 0.0
H1810 H 0.15092 0.18582 0.90549 0.0
H1811 H 0.10144 0.15161 0.94045 0.0
H1812 H 0.10202 0.1754 0.96711 0.0
H1813 H 0.08687 0.2564 0.956 0.0
H1814 H 0.11224 0.25358 0.96182 0.0
H1815 H 0.08047 0.20142 0.98941 0.0
H1816 H 0.05509 0.20401 0.98316 0.0
H1817 H 0.10307 0.2036 0.95107 0.0
H1818 H 0.10457 0.23408 0.03649 0.0
H1819 H 0.10511 0.2577 0.06364 0.0
H1820 H 0.15192 0.29351 0.02237 0.0
H1821 H 0.15153 0.27011 0.99468 0.0
C1822 C 0.1625 0.19551 0.0137 0.0
C1823 C 0.17994 0.20755 0.01051 0.0
C1824 C 0.15004 0.19934 0.00509 0.0
C1825 C 0.1547 0.21527 0.99297 0.0
C1826 C 0.17209 0.22728 0.98933 0.0
C1827 C 0.18463 0.22341 0.99788 0.0
C1828 C 0.14128 0.21949 0.98552 0.0
C1829 C 0.14143 0.23339 -0.00087 0.0
C1830 C 0.12741 0.20878 0.96762 0.0
C1831 C 0.12697 0.19442 0.9515 0.0
C1832 C 0.14071 0.1972 0.93389 0.0
C1833 C 0.14029 0.18361 0.91896 0.0
C1834 C 0.12615 0.16719 0.92135 0.0
C1835 C 0.11239 0.16433 0.93862 0.0
C1836 C 0.11274 0.17787 0.95361 0.0
C1837 C 0.08529 0.24436 0.96349 0.0
C1838 C 0.06893 0.23042 0.96909 0.0
C1839 C 0.09982 0.24279 0.96685 0.0
C1840 C 0.09827 0.22731 0.97616 0.0
C1841 C 0.08197 0.21346 0.98208 0.0
C1842 C 0.06747 0.21499 0.9786 0.0
C1843 C 0.1135 0.22528 0.97932 0.0
C1844 C 0.1137 0.21179 0.96484 0.0
C1845 C 0.12762 0.23632 0.99652 0.0
C1846 C 0.12792 0.25037 0.01327 0.0
C1847 C 0.11491 0.24701 0.03304 0.0
C1848 C 0.1152 0.26035 0.04855 0.0
C1849 C 0.12851 0.2771 0.04467 0.0
C1850 C 0.14159 0.28053 0.02532 0.0
C1851 C 0.14135 0.26724 0.00972 0.0
H1852 H 0.12871 0.28742 0.05669 0.0
H1853 H 0.12586 0.15669 0.90977 0.0
H1854 H 0.97777 0.81534 0.48764 0.0
H1855 H 0.94889 0.80722 0.50272 0.0
H1856 H 0.93656 0.75472 0.51031 0.0
H1857 H 0.96567 0.76282 0.49521 0.0
H1858 H 0.9128 0.75869 0.47838 0.0
H1859 H 0.93892 0.77543 0.56933 0.0
H1860 H 0.96064 0.79367 0.6046 0.0
H1861 H 0.94956 0.83392 0.58882 0.0
H1862 H 0.92795 0.81602 0.55313 0.0
H1863 H 0.83046 0.74181 0.53011 0.0
H1864 H 0.85791 0.74267 0.52599 0.0
H1865 H 0.88369 0.79748 0.51726 0.0
H1866 H 0.8565 0.79679 0.52145 0.0
H1867 H 0.89939 0.78743 0.55592 0.0
H1868 H 0.87683 0.77237 0.4601 0.0
H1869 H 0.85549 0.7546 0.42396 0.0
H1870 H 0.86012 0.71138 0.44884 0.0
H1871 H 0.88135 0.72887 0.48541 0.0
C1872 C 0.96901 0.8021 0.4929 0.0
C1873 C 0.97398 0.78971 0.49022 0.0
C1874 C 0.95252 0.79748 0.50162 0.0
C1875 C 0.94062 0.78038 0.50778 0.0
C1876 C 0.94559 0.76799 0.50573 0.0
C1877 C 0.96223 0.77265 0.49726 0.0
C1878 C 0.92275 0.77557 0.51452 0.0
C1879 C 0.90976 0.76463 0.49577 0.0
C1880 C 0.91888 0.78355 0.53692 0.0
C1881 C 0.93187 0.7944 0.5584 0.0
C1882 C 0.9412 0.78822 0.57321 0.0
C1883 C 0.95348 0.79849 0.59332 0.0
C1884 C 0.9565 0.81495 0.59892 0.0
C1885 C 0.94721 0.82116 0.58446 0.0
C1886 C 0.93493 0.81095 0.56431 0.0
C1887 C 0.84197 0.75403 0.52715 0.0
C1888 C 0.84127 0.76924 0.52612 0.0
C1889 C 0.85763 0.75449 0.52479 0.0
C1890 C 0.87283 0.77014 0.52134 0.0
C1891 C 0.87212 0.78527 0.52007 0.0
C1892 C 0.85653 0.78484 0.52232 0.0
C1893 C 0.88959 0.77099 0.51926 0.0
C1894 C 0.90236 0.7812 0.53891 0.0
C1895 C 0.89325 0.76236 0.49768 0.0
C1896 C 0.8805 0.75186 0.47573 0.0
C1897 C 0.87318 0.75904 0.45805 0.0
C1898 C 0.86113 0.74903 0.43745 0.0
C1899 C 0.8564 0.73186 0.43418 0.0
C1900 C 0.86376 0.72467 0.45144 0.0
C1901 C 0.8758 0.73463 0.4721 0.0
H1902 H 0.84708 0.72413 0.41821 0.0
H1903 H 0.96601 0.82288 0.6145 0.0
H1904 H 0.23518 0.19732 0.49649 0.0
H1905 H 0.24143 0.17465 0.50906 0.0
H1906 H 0.18896 0.13667 0.49252 0.0
H1907 H 0.18265 0.1591 0.47993 0.0
H1908 H 0.20153 0.12992 0.54143 0.0
H1909 H 0.21824 0.1452 0.44298 0.0
H1910 H 0.23427 0.16507 0.40395 0.0
H1911 H 0.28163 0.17674 0.44386 0.0
H1912 H 0.26586 0.1571 0.48337 0.0
H1913 H 0.20103 0.05312 0.51833 0.0
H1914 H 0.19894 0.07878 0.51172 0.0
H1915 H 0.25325 0.11018 0.52478 0.0
H1916 H 0.25554 0.08453 0.53101 0.0
H1917 H 0.24253 0.12229 0.4817 0.0
H1918 H 0.22602 0.10513 0.578 0.0
H1919 H 0.21013 0.08523 0.61707 0.0
H1920 H 0.16284 0.0774 0.58217 0.0
H1921 H 0.17843 0.09707 0.54264 0.0
C1922 C 0.22495 0.18415 0.4959 0.0
C1923 C 0.20845 0.17998 0.48709 0.0
C1924 C 0.22856 0.17123 0.50295 0.0
C1925 C 0.21568 0.15399 0.50146 0.0
C1926 C 0.19907 0.14988 0.49378 0.0
C1927 C 0.19551 0.16273 0.48651 0.0
C1928 C 0.21946 0.14006 0.50675 0.0
C1929 C 0.21043 0.12819 0.5283 0.0
C1930 C 0.2314 0.13808 0.49006 0.0
C1931 C 0.24088 0.14985 0.4663 0.0
C1932 C 0.23207 0.15212 0.44357 0.0
C1933 C 0.24111 0.16332 0.42133 0.0
C1934 C 0.25895 0.17221 0.42147 0.0
C1935 C 0.2678 0.16987 0.44381 0.0
C1936 C 0.25883 0.15871 0.46613 0.0
C1937 C 0.21257 0.06546 0.51962 0.0
C1938 C 0.22844 0.06675 0.52541 0.0
C1939 C 0.21133 0.08013 0.51599 0.0
C1940 C 0.22589 0.0964 0.5183 0.0
C1941 C 0.24184 0.09775 0.52308 0.0
C1942 C 0.24311 0.08307 0.52666 0.0
C1943 C 0.22434 0.11193 0.51606 0.0
C1944 C 0.2338 0.12412 0.49511 0.0
C1945 C 0.21283 0.11424 0.53338 0.0
C1946 C 0.20339 0.10248 0.55723 0.0
C1947 C 0.21222 0.09907 0.57854 0.0
C1948 C 0.20327 0.08785 0.60079 0.0
C1949 C 0.18549 0.08003 0.60207 0.0
C1950 C 0.17662 0.08345 0.58114 0.0
C1951 C 0.18551 0.09466 0.55882 0.0
H1952 H 0.17858 0.07134 0.61931 0.0
H1953 H 0.26593 0.18087 0.40423 0.0
H1954 H 0.91547 0.16896 0.53146 0.0
H1955 H 0.89061 0.14088 0.52204 0.0
H1956 H 0.9239 0.12113 0.50091 0.0
H1957 H 0.94883 0.14913 0.51024 0.0
H1958 H 0.89738 0.1113 0.46256 0.0
H1959 H 0.90524 0.11281 0.56452 0.0
H1960 H 0.9083 0.12492 0.61267 0.0
H1961 H 0.85877 0.12021 0.60558 0.0
H1962 H 0.85552 0.10828 0.55719 0.0
H1963 H 0.84329 0.02322 0.46611 0.0
H1964 H 0.86589 0.05196 0.47811 0.0
H1965 H 0.82818 0.06524 0.50383 0.0
H1966 H 0.80535 0.03617 0.49245 0.0
H1967 H 0.85544 0.07938 0.53902 0.0
H1968 H 0.84664 0.07675 0.43847 0.0
H1969 H 0.84329 0.06499 0.38999 0.0
H1970 H 0.89406 0.07251 0.39351 0.0
H1971 H 0.89763 0.08409 0.4422 0.0
C1972 C 0.91752 0.15868 0.52465 0.0
C1973 C 0.93415 0.16128 0.52169 0.0
C1974 C 0.90329 0.14262 0.51941 0.0
C1975 C 0.90543 0.12891 0.51106 0.0
C1976 C 0.92199 0.13156 0.5074 0.0
C1977 C 0.93621 0.14756 0.5128 0.0
C1978 C 0.89045 0.11171 0.5063 0.0
C1979 C 0.88829 0.10424 0.47934 0.0
C1980 C 0.87833 0.10277 0.52797 0.0
C1981 C 0.88022 0.10983 0.55713 0.0
C1982 C 0.89506 0.11448 0.57314 0.0
C1983 C 0.89682 0.12129 0.60049 0.0
C1984 C 0.88376 0.12338 0.61215 0.0
C1985 C 0.86889 0.11861 0.5965 0.0
C1986 C 0.86708 0.11182 0.56913 0.0
C1987 C 0.83977 0.03218 0.4746 0.0
C1988 C 0.82253 0.02749 0.47807 0.0
C1989 C 0.85272 0.04864 0.48133 0.0
C1990 C 0.84871 0.06087 0.49119 0.0
C1991 C 0.83154 0.05602 0.49604 0.0
C1992 C 0.81852 0.03943 0.48955 0.0
C1993 C 0.86252 0.07881 0.49539 0.0
C1994 C 0.86444 0.08646 0.52218 0.0
C1995 C 0.87439 0.08801 0.47347 0.0
C1996 C 0.87234 0.08116 0.44409 0.0
C1997 C 0.85705 0.07579 0.42899 0.0
C1998 C 0.85512 0.06917 0.40146 0.0
C1999 C 0.86844 0.06797 0.3887 0.0
C2000 C 0.88375 0.07343 0.40343 0.0
C2001 C 0.88573 0.08004 0.43098 0.0
H2002 H 0.86692 0.06284 0.36738 0.0
H2003 H 0.88514 0.12866 0.63332 0.0
H2004 H 0.91738 0.50162 0.36849 0.0
H2005 H 0.9144 0.47349 0.36175 0.0
H2006 H 0.85998 0.45144 0.35132 0.0
H2007 H 0.86278 0.4795 0.3587 0.0
H2008 H 0.86665 0.43186 0.38469 0.0
H2009 H 0.88693 0.45936 0.29395 0.0
H2010 H 0.90648 0.48218 0.26131 0.0
H2011 H 0.94777 0.4747 0.28763 0.0
H2012 H 0.9285 0.45197 0.32073 0.0
H2013 H 0.84466 0.35569 0.30985 0.0
H2014 H 0.8506 0.38387 0.32554 0.0
H2015 H 0.90276 0.39785 0.34374 0.0
H2016 H 0.89685 0.36945 0.32819 0.0
H2017 H 0.89944 0.42177 0.30999 0.0
H2018 H 0.87769 0.39204 0.39777 0.0
H2019 H 0.85739 0.36881 0.42902 0.0
H2020 H 0.81799 0.38004 0.40667 0.0
H2021 H 0.83799 0.40319 0.37494 0.0
C2022 C 0.90476 0.49081 0.36469 0.0
C2023 C 0.89032 0.49284 0.36402 0.0
C2024 C 0.9031 0.47473 0.36077 0.0
C2025 C 0.88699 0.46038 0.35571 0.0
C2026 C 0.87254 0.46234 0.3552 0.0
C2027 C 0.87417 0.4784 0.35931 0.0
C2028 C 0.88517 0.4433 0.35099 0.0
C2029 C 0.8737 0.42962 0.36817 0.0
C2030 C 0.89472 0.44047 0.32997 0.0
C2031 C 0.90632 0.4541 0.31004 0.0
C2032 C 0.90021 0.46268 0.29294 0.0
C2033 C 0.91124 0.47558 0.27433 0.0
C2034 C 0.92837 0.47993 0.27246 0.0
C2035 C 0.9345 0.47134 0.28914 0.0
C2036 C 0.92353 0.45844 0.30782 0.0
C2037 C 0.85736 0.36467 0.31748 0.0
C2038 C 0.8703 0.36037 0.31776 0.0
C2039 C 0.86071 0.38075 0.32654 0.0
C2040 C 0.87709 0.3929 0.33592 0.0
C2041 C 0.89002 0.3886 0.33663 0.0
C2042 C 0.88661 0.37238 0.32787 0.0
C2043 C 0.88076 0.41033 0.3434 0.0
C2044 C 0.89255 0.42406 0.32672 0.0
C2045 C 0.8714 0.41318 0.3647 0.0
C2046 C 0.85932 0.39927 0.38379 0.0
C2047 C 0.86466 0.38947 0.39932 0.0
C2048 C 0.85321 0.37633 0.41717 0.0
C2049 C 0.8364 0.37293 0.41979 0.0
C2050 C 0.83101 0.38268 0.40461 0.0
C2051 C 0.84241 0.39583 0.38672 0.0
H2052 H 0.82755 0.36275 0.43362 0.0
H2053 H 0.93688 0.48991 0.25803 0.0
H2054 H 0.63093 0.5319 0.33802 0.0
H2055 H 0.60187 0.51038 0.3524 0.0
H2056 H 0.60573 0.47246 0.30225 0.0
H2057 H 0.63451 0.49371 0.2878 0.0
H2058 H 0.57624 0.47267 0.29152 0.0
H2059 H 0.60875 0.4728 0.3738 0.0
H2060 H 0.6282 0.48597 0.41459 0.0
H2061 H 0.59399 0.50095 0.45055 0.0
H2062 H 0.57443 0.48806 0.40974 0.0
H2063 H 0.51518 0.39137 0.33941 0.0
H2064 H 0.54154 0.41797 0.32935 0.0
H2065 H 0.52347 0.446 0.37871 0.0
H2066 H 0.49683 0.41934 0.38875 0.0
H2067 H 0.55787 0.45426 0.39111 0.0
H2068 H 0.52356 0.45077 0.31195 0.0
H2069 H 0.50372 0.43678 0.27195 0.0
H2070 H 0.54096 0.42806 0.23027 0.0
H2071 H 0.56094 0.44177 0.27027 0.0
C2072 C 0.62563 0.51893 0.33033 0.0
C2073 C 0.63502 0.51453 0.31173 0.0
C2074 C 0.60903 0.50667 0.33854 0.0
C2075 C 0.60163 0.48984 0.32829 0.0
C2076 C 0.61114 0.4854 0.31023 0.0
C2077 C 0.62765 0.49757 0.30211 0.0
C2078 C 0.58386 0.47677 0.33563 0.0
C2079 C 0.57225 0.4686 0.31329 0.0
C2080 C 0.57848 0.47188 0.3641 0.0
C2081 C 0.59025 0.47967 0.38855 0.0
C2082 C 0.60546 0.47905 0.39027 0.0
C2083 C 0.61648 0.48643 0.41342 0.0
C2084 C 0.61236 0.49435 0.4351 0.0
C2085 C 0.59718 0.49485 0.43371 0.0
C2086 C 0.58612 0.48751 0.41058 0.0
C2087 C 0.51675 0.40317 0.34809 0.0
C2088 C 0.5039 0.40325 0.36484 0.0
C2089 C 0.5318 0.41836 0.34226 0.0
C2090 C 0.53438 0.43392 0.35318 0.0
C2091 C 0.52167 0.43409 0.37008 0.0
C2092 C 0.50646 0.41888 0.37566 0.0
C2093 C 0.55051 0.44986 0.34693 0.0
C2094 C 0.56178 0.45856 0.3694 0.0
C2095 C 0.5556 0.45529 0.31858 0.0
C2096 C 0.54372 0.4472 0.29424 0.0
C2097 C 0.52748 0.44576 0.29436 0.0
C2098 C 0.51621 0.43789 0.27167 0.0
C2099 C 0.52106 0.4315 0.2486 0.0
C2100 C 0.53722 0.43301 0.24816 0.0
C2101 C 0.54853 0.44085 0.27083 0.0
H2102 H 0.51231 0.4254 0.23106 0.0
H2103 H 0.62091 0.50004 0.45302 0.0
H2104 H 0.50661 0.14813 0.29862 0.0
H2105 H 0.52804 0.14012 0.30907 0.0
H2106 H 0.48872 0.09094 0.33927 0.0
H2107 H 0.46701 0.09898 0.32908 0.0
H2108 H 0.51787 0.10473 0.37292 0.0
H2109 H 0.50412 0.09339 0.27437 0.0
H2110 H 0.49892 0.09954 0.22539 0.0
H2111 H 0.5506 0.14102 0.21995 0.0
H2112 H 0.55605 0.13529 0.26908 0.0
H2113 H 0.57846 0.07545 0.36835 0.0
H2114 H 0.55265 0.07707 0.35898 0.0
H2115 H 0.5836 0.12823 0.32652 0.0
H2116 H 0.60938 0.12674 0.33566 0.0
H2117 H 0.5557 0.10886 0.29297 0.0
H2118 H 0.56823 0.12191 0.39316 0.0
H2119 H 0.57344 0.11594 0.44227 0.0
H2120 H 0.52386 0.07086 0.44425 0.0
H2121 H 0.51846 0.07645 0.39497 0.0
C2122 C 0.50247 0.13565 0.30772 0.0
C2123 C 0.48508 0.12412 0.31278 0.0
C2124 C 0.51475 0.13107 0.31358 0.0
C2125 C 0.50993 0.11481 0.32438 0.0
C2126 C 0.49268 0.10352 0.33074 0.0
C2127 C 0.48031 0.10813 0.32492 0.0
C2128 C 0.52302 0.10966 0.32807 0.0
C2129 C 0.52593 0.10529 0.35535 0.0
C2130 C 0.53363 0.11055 0.30517 0.0
C2131 C 0.53046 0.11398 0.2755 0.0
C2132 C 0.51435 0.1039 0.26281 0.0
C2133 C 0.51136 0.1073 0.235 0.0
C2134 C 0.52441 0.12068 0.21959 0.0
C2135 C 0.5405 0.13066 0.23193 0.0
C2136 C 0.54355 0.12733 0.25974 0.0
C2137 C 0.57976 0.08699 0.359 0.0
C2138 C 0.596 0.101 0.35286 0.0
C2139 C 0.56501 0.08791 0.35379 0.0
C2140 C 0.56624 0.10283 0.34231 0.0
C2141 C 0.58237 0.11661 0.33541 0.0
C2142 C 0.59711 0.11574 0.34074 0.0
C2143 C 0.55084 0.10438 0.33793 0.0
C2144 C 0.54748 0.10804 0.31046 0.0
C2145 C 0.53982 0.10279 0.36063 0.0
C2146 C 0.54303 0.09948 0.39028 0.0
C2147 C 0.5585 0.11064 0.40399 0.0
C2148 C 0.56148 0.10735 0.43187 0.0
C2149 C 0.54901 0.093 0.44634 0.0
C2150 C 0.53352 0.08195 0.43299 0.0
C2151 C 0.53049 0.08518 0.4051 0.0
H2152 H 0.55134 0.09047 0.46793 0.0
H2153 H 0.52207 0.12329 0.19806 0.0
H2154 H 0.81329 0.53174 0.80573 0.0
H2155 H 0.78516 0.52896 0.81127 0.0
H2156 H 0.80717 0.58318 0.79811 0.0
H2157 H 0.83543 0.58615 0.79321 0.0
H2158 H 0.78497 0.57307 0.84017 0.0
H2159 H 0.78443 0.5542 0.74509 0.0
H2160 H 0.78793 0.53743 0.70698 0.0
H2161 H 0.74905 0.49096 0.74509 0.0
H2162 H 0.74548 0.50744 0.78368 0.0
H2163 H 0.70317 0.56636 0.82456 0.0
H2164 H 0.73162 0.57152 0.81111 0.0
H2165 H 0.71676 0.51974 0.83417 0.0
H2166 H 0.68849 0.51454 0.8478 0.0
H2167 H 0.73564 0.53052 0.7834 0.0
H2168 H 0.73825 0.55 0.88038 0.0
H2169 H 0.7349 0.56715 0.91798 0.0
H2170 H 0.77021 0.61328 0.87448 0.0
H2171 H 0.77357 0.59637 0.83639 0.0
C2172 C 0.81218 0.54309 0.80409 0.0
C2173 C 0.82663 0.55916 0.79892 0.0
C2174 C 0.79605 0.54146 0.80708 0.0
C2175 C 0.79399 0.55582 0.80459 0.0
C2176 C 0.80843 0.57192 0.79999 0.0
C2177 C 0.82459 0.57358 0.79718 0.0
C2178 C 0.77679 0.55403 0.8071 0.0
C2179 C 0.77427 0.56398 0.82737 0.0
C2180 C 0.76274 0.54203 0.79065 0.0
C2181 C 0.76479 0.53206 0.76741 0.0
C2182 C 0.77671 0.5404 0.74546 0.0
C2183 C 0.77869 0.53094 0.72375 0.0
C2184 C 0.76874 0.51314 0.72365 0.0
C2185 C 0.75676 0.50475 0.74522 0.0
C2186 C 0.75474 0.51415 0.767 0.0
C2187 C 0.70591 0.55602 0.82634 0.0
C2188 C 0.69365 0.54008 0.83739 0.0
C2189 C 0.72216 0.559 0.81878 0.0
C2190 C 0.7263 0.54604 0.8219 0.0
C2191 C 0.71381 0.5299 0.83162 0.0
C2192 C 0.69768 0.52698 0.83949 0.0
C2193 C 0.74388 0.54942 0.81661 0.0
C2194 C 0.74644 0.53975 0.79588 0.0
C2195 C 0.75799 0.56175 0.83247 0.0
C2196 C 0.756 0.57192 0.85537 0.0
C2197 C 0.74517 0.56379 0.8787 0.0
C2198 C 0.7433 0.57347 0.90013 0.0
C2199 C 0.75229 0.5913 0.89858 0.0
C2200 C 0.76322 0.59948 0.87563 0.0
C2201 C 0.76512 0.58985 0.85412 0.0
H2202 H 0.75083 0.59877 0.91519 0.0
H2203 H 0.7703 0.50584 0.70682 0.0
H2204 H 0.48874 0.17255 0.85503 0.0
H2205 H 0.48178 0.19492 0.84594 0.0
H2206 H 0.42973 0.15676 0.82692 0.0
H2207 H 0.43671 0.13416 0.83551 0.0
H2208 H 0.44126 0.18441 0.79162 0.0
H2209 H 0.43947 0.17456 0.89187 0.0
H2210 H 0.45034 0.17083 0.93788 0.0
H2211 H 0.49285 0.22198 0.93257 0.0
H2212 H 0.4824 0.22591 0.88625 0.0
H2213 H 0.41311 0.24504 0.8069 0.0
H2214 H 0.41587 0.21978 0.81489 0.0
H2215 H 0.46935 0.25216 0.83416 0.0
H2216 H 0.46671 0.27744 0.8265 0.0
H2217 H 0.45399 0.22543 0.87088 0.0
H2218 H 0.45672 0.23425 0.76892 0.0
H2219 H 0.44599 0.23777 0.72259 0.0
H2220 H 0.40123 0.18834 0.73167 0.0
H2221 H 0.41161 0.18463 0.77826 0.0
C2222 C 0.47586 0.16888 0.84852 0.0
C2223 C 0.46322 0.15159 0.84626 0.0
C2224 C 0.47188 0.18169 0.84346 0.0
C2225 C 0.45514 0.17749 0.83645 0.0
C2226 C 0.4427 0.16026 0.83253 0.0
C2227 C 0.44671 0.14738 0.83741 0.0
C2228 C 0.45061 0.19112 0.83458 0.0
C2229 C 0.44377 0.19321 0.8091 0.0
C2230 C 0.45404 0.20269 0.85734 0.0
C2231 C 0.46021 0.20048 0.88546 0.0
C2232 C 0.4512 0.18498 0.90042 0.0
C2233 C 0.45728 0.18283 0.92658 0.0
C2234 C 0.4723 0.19615 0.93812 0.0
C2235 C 0.48123 0.21167 0.92359 0.0
C2236 C 0.47522 0.21387 0.89739 0.0
C2237 C 0.42543 0.2468 0.8131 0.0
C2238 C 0.43972 0.26328 0.8159 0.0
C2239 C 0.42699 0.23234 0.81752 0.0
C2240 C 0.44286 0.23411 0.82475 0.0
C2241 C 0.45699 0.25052 0.82853 0.0
C2242 C 0.45546 0.26496 0.82407 0.0
C2243 C 0.44498 0.21895 0.82771 0.0
C2244 C 0.45133 0.21654 0.85349 0.0
C2245 C 0.44104 0.20707 0.80528 0.0
C2246 C 0.43485 0.20924 0.7772 0.0
C2247 C 0.44453 0.22419 0.76113 0.0
C2248 C 0.43852 0.22621 0.73481 0.0
C2249 C 0.42291 0.21331 0.72423 0.0
C2250 C 0.4133 0.19833 0.73991 0.0
C2251 C 0.41925 0.19626 0.76627 0.0
H2252 H 0.41828 0.2149 0.70385 0.0
H2253 H 0.47702 0.19446 0.95834 0.0
H2254 H 0.72409 0.18529 0.82 0.0
H2255 H 0.74985 0.21304 0.82544 0.0
H2256 H 0.78061 0.19155 0.79772 0.0
H2257 H 0.75481 0.16354 0.79248 0.0
H2258 H 0.79519 0.21377 0.84276 0.0
H2259 H 0.77192 0.21421 0.75149 0.0
H2260 H 0.74932 0.21012 0.71765 0.0
H2261 H 0.74248 0.24779 0.7621 0.0
H2262 H 0.76487 0.25193 0.79648 0.0
H2263 H 0.86719 0.29819 0.82814 0.0
H2264 H 0.84501 0.26913 0.81512 0.0
H2265 H 0.80607 0.28097 0.83948 0.0
H2266 H 0.82801 0.30986 0.85226 0.0
H2267 H 0.79779 0.26278 0.79065 0.0
H2268 H 0.81825 0.25987 0.88461 0.0
H2269 H 0.84012 0.26367 0.91985 0.0
H2270 H 0.85187 0.23068 0.87103 0.0
H2271 H 0.83019 0.22685 0.83531 0.0
C2272 C 0.73632 0.18638 0.81524 0.0
C2273 C 0.73735 0.1722 0.80555 0.0
C2274 C 0.75104 0.20229 0.81825 0.0
C2275 C 0.76711 0.20442 0.81144 0.0
C2276 C 0.76831 0.19019 0.8029 0.0
C2277 C 0.75355 0.1742 0.7999 0.0
C2278 C 0.7825 0.22166 0.81268 0.0
C2279 C 0.79594 0.22443 0.83095 0.0
C2280 C 0.78335 0.2356 0.79751 0.0
C2281 C 0.77001 0.23329 0.77667 0.0
C2282 C 0.76553 0.22154 0.75416 0.0
C2283 C 0.75276 0.21923 0.73487 0.0
C2284 C 0.74445 0.22867 0.73775 0.0
C2285 C 0.74892 0.24048 0.7599 0.0
C2286 C 0.76167 0.24283 0.77927 0.0
C2287 C 0.8539 0.29464 0.83032 0.0
C2288 C 0.84935 0.30628 0.84135 0.0
C2289 C 0.84125 0.27802 0.82305 0.0
C2290 C 0.8239 0.27284 0.82666 0.0
C2291 C 0.81938 0.28468 0.83655 0.0
C2292 C 0.83195 0.3012 0.84392 0.0
C2293 C 0.8103 0.25497 0.82122 0.0
C2294 C 0.79719 0.25207 0.80211 0.0
C2295 C 0.80974 0.24095 0.83568 0.0
C2296 C 0.82276 0.24325 0.85712 0.0
C2297 C 0.8256 0.25355 0.88127 0.0
C2298 C 0.83794 0.25568 0.90136 0.0
C2299 C 0.84742 0.24747 0.89763 0.0
C2300 C 0.84454 0.23706 0.87385 0.0
C2301 C 0.83223 0.2349 0.85369 0.0
H2302 H 0.85696 0.24913 0.9132 0.0
H2303 H 0.73456 0.22685 0.7228 0.0
H2304 H 0.41289 0.16605 0.29805 0.0
H2305 H 0.41613 0.19411 0.30771 0.0
H2306 H 0.46896 0.21358 0.32999 0.0
H2307 H 0.46587 0.18559 0.32048 0.0
H2308 H 0.45242 0.22383 0.36759 0.0
H2309 H 0.45901 0.22192 0.26581 0.0
H2310 H 0.45016 0.20973 0.21766 0.0
H2311 H 0.40533 0.2145 0.22381 0.0
H2312 H 0.41381 0.22651 0.27219 0.0
H2313 H 0.48688 0.31212 0.36111 0.0
H2314 H 0.48057 0.28322 0.34996 0.0
H2315 H 0.42918 0.26954 0.3263 0.0
H2316 H 0.43548 0.29868 0.3371 0.0
H2317 H 0.44256 0.25543 0.29036 0.0
H2318 H 0.43638 0.25864 0.39084 0.0
H2319 H 0.44489 0.27077 0.43911 0.0
H2320 H 0.48811 0.26317 0.43604 0.0
H2321 H 0.47999 0.25122 0.38759 0.0
C2322 C 0.42518 0.17626 0.30519 0.0
C2323 C 0.43915 0.17358 0.30837 0.0
C2324 C 0.42701 0.1923 0.31058 0.0
C2325 C 0.44283 0.20595 0.31926 0.0
C2326 C 0.45665 0.20321 0.32324 0.0
C2327 C 0.45486 0.18721 0.31773 0.0
C2328 C 0.44511 0.2232 0.32376 0.0
C2329 C 0.45042 0.23081 0.35065 0.0
C2330 C 0.44201 0.23207 0.30186 0.0
C2331 C 0.43694 0.22493 0.27273 0.0
C2332 C 0.44719 0.22023 0.25699 0.0
C2333 C 0.44226 0.21338 0.22964 0.0
C2334 C 0.42717 0.21129 0.21771 0.0
C2335 C 0.417 0.2161 0.23309 0.0
C2336 C 0.42187 0.22294 0.26047 0.0
C2337 C 0.47428 0.30305 0.35322 0.0
C2338 C 0.46162 0.30765 0.35023 0.0
C2339 C 0.47067 0.2865 0.34699 0.0
C2340 C 0.4543 0.27413 0.33791 0.0
C2341 C 0.44186 0.27887 0.33348 0.0
C2342 C 0.44549 0.29552 0.33963 0.0
C2343 C 0.45014 0.25618 0.33407 0.0
C2344 C 0.44444 0.24841 0.30737 0.0
C2345 C 0.45279 0.2471 0.3562 0.0
C2346 C 0.45764 0.25416 0.38547 0.0
C2347 C 0.44776 0.25966 0.40037 0.0
C2348 C 0.45251 0.26649 0.42778 0.0
C2349 C 0.46705 0.26778 0.4406 0.0
C2350 C 0.47685 0.26218 0.42607 0.0
C2351 C 0.47217 0.25536 0.39865 0.0
H2352 H 0.47073 0.27308 0.4618 0.0
H2353 H 0.42337 0.20599 0.19654 0.0
H2354 H 0.83351 0.24813 0.29574 0.0
H2355 H 0.80594 0.22237 0.30425 0.0
H2356 H 0.78395 0.25352 0.32683 0.0
H2357 H 0.8114 0.2793 0.31849 0.0
H2358 H 0.77476 0.22682 0.36387 0.0
H2359 H 0.77716 0.23582 0.26201 0.0
H2360 H 0.7899 0.23975 0.21419 0.0
H2361 H 0.78682 0.1909 0.2203 0.0
H2362 H 0.77427 0.18678 0.26836 0.0
H2363 H 0.68698 0.17313 0.35417 0.0
H2364 H 0.71602 0.19563 0.34367 0.0
H2365 H 0.72981 0.15776 0.32169 0.0
H2366 H 0.7005 0.13499 0.3319 0.0
H2367 H 0.74451 0.18565 0.28561 0.0
H2368 H 0.74018 0.17552 0.38574 0.0
H2369 H 0.72752 0.17139 0.43365 0.0
H2370 H 0.7347 0.22205 0.43144 0.0
H2371 H 0.74716 0.2264 0.38331 0.0
C2372 C 0.82284 0.24951 0.30269 0.0
C2373 C 0.82464 0.26579 0.30634 0.0
C2374 C 0.80708 0.23477 0.30741 0.0
C2375 C 0.79288 0.23606 0.31589 0.0
C2376 C 0.79475 0.25226 0.32025 0.0
C2377 C 0.81045 0.26698 0.3154 0.0
C2378 C 0.77595 0.22058 0.32 0.0
C2379 C 0.76809 0.21789 0.34671 0.0
C2380 C 0.76751 0.20865 0.29783 0.0
C2381 C 0.77496 0.21108 0.2689 0.0
C2382 C 0.77933 0.22598 0.25325 0.0
C2383 C 0.78649 0.22823 0.22609 0.0
C2384 C 0.78922 0.21561 0.21425 0.0
C2385 C 0.78473 0.20068 0.22952 0.0
C2386 C 0.77759 0.19837 0.25671 0.0
C2387 C 0.6961 0.16954 0.34679 0.0
C2388 C 0.69149 0.15227 0.34413 0.0
C2389 C 0.71273 0.18243 0.34091 0.0
C2390 C 0.72515 0.17835 0.33251 0.0
C2391 C 0.72041 0.16115 0.32835 0.0
C2392 C 0.70368 0.14818 0.33417 0.0
C2393 C 0.74316 0.19214 0.32931 0.0
C2394 C 0.75125 0.19448 0.30285 0.0
C2395 C 0.75188 0.20374 0.35176 0.0
C2396 C 0.74448 0.20123 0.3808 0.0
C2397 C 0.73894 0.18574 0.39537 0.0
C2398 C 0.73182 0.18336 0.42259 0.0
C2399 C 0.73028 0.19644 0.43556 0.0
C2400 C 0.73589 0.21193 0.42136 0.0
C2401 C 0.743 0.21436 0.39412 0.0
H2402 H 0.72476 0.19458 0.45663 0.0
H2403 H 0.79476 0.21737 0.19321 0.0
H2404 H 0.85141 0.54833 0.31138 0.0
H2405 H 0.82745 0.55219 0.29705 0.0
H2406 H 0.80375 0.5333 0.37902 0.0
H2407 H 0.827 0.52853 0.39258 0.0
H2408 H 0.78051 0.52087 0.34315 0.0
H2409 H 0.8266 0.57776 0.3591 0.0
H2410 H 0.85543 0.6027 0.35293 0.0
H2411 H 0.8453 0.60502 0.26415 0.0
H2412 H 0.81647 0.57994 0.26975 0.0
H2413 H 0.74389 0.58248 0.32003 0.0
H2414 H 0.76772 0.57786 0.33092 0.0
H2415 H 0.74227 0.5297 0.28615 0.0
H2416 H 0.718 0.53382 0.27677 0.0
H2417 H 0.79011 0.57563 0.30265 0.0
H2418 H 0.75247 0.50164 0.31203 0.0
H2419 H 0.72389 0.47862 0.32648 0.0
H2420 H 0.71756 0.51382 0.37939 0.0
H2421 H 0.74618 0.53699 0.36553 0.0
C2422 C 0.84101 0.54495 0.3262 0.0
C2423 C 0.84103 0.5381 0.35304 0.0
C2424 C 0.82738 0.54726 0.3181 0.0
C2425 C 0.81383 0.54326 0.33708 0.0
C2426 C 0.81393 0.5364 0.36387 0.0
C2427 C 0.82728 0.53372 0.37165 0.0
C2428 C 0.79946 0.5461 0.32936 0.0
C2429 C 0.78266 0.53286 0.33426 0.0
C2430 C 0.80213 0.56182 0.31823 0.0
C2431 C 0.81946 0.57687 0.31478 0.0
C2432 C 0.83057 0.58351 0.33822 0.0
C2433 C 0.8469 0.59768 0.33484 0.0
C2434 C 0.85221 0.60541 0.30815 0.0
C2435 C 0.84118 0.599 0.2848 0.0
C2436 C 0.82484 0.58482 0.28807 0.0
C2437 C 0.74336 0.57086 0.31268 0.0
C2438 C 0.72902 0.55842 0.29784 0.0
C2439 C 0.75702 0.56826 0.31879 0.0
C2440 C 0.75676 0.55331 0.30974 0.0
C2441 C 0.74263 0.54112 0.29411 0.0
C2442 C 0.72878 0.54351 0.28864 0.0
C2443 C 0.77121 0.55047 0.3168 0.0
C2444 C 0.78799 0.56365 0.31153 0.0
C2445 C 0.76856 0.53497 0.32885 0.0
C2446 C 0.75138 0.52108 0.33747 0.0
C2447 C 0.74499 0.50445 0.32681 0.0
C2448 C 0.72879 0.49138 0.33489 0.0
C2449 C 0.7189 0.49477 0.35376 0.0
C2450 C 0.72521 0.51122 0.36468 0.0
C2451 C 0.74141 0.52433 0.3567 0.0
H2452 H 0.70635 0.48463 0.35997 0.0
H2453 H 0.86486 0.61638 0.30557 0.0
H2454 H 0.63399 0.09719 0.8304 0.0
H2455 H 0.60474 0.08904 0.84462 0.0
H2456 H 0.61625 0.14102 0.83228 0.0
H2457 H 0.6453 0.14921 0.81815 0.0
H2458 H 0.59731 0.1268 0.88048 0.0
H2459 H 0.5967 0.11198 0.7809 0.0
H2460 H 0.6014 0.09711 0.74091 0.0
H2461 H 0.56737 0.04865 0.77941 0.0
H2462 H 0.56265 0.06328 0.81984 0.0
H2463 H 0.52243 0.12785 0.85111 0.0
H2464 H 0.54989 0.12914 0.84667 0.0
H2465 H 0.52574 0.07501 0.86271 0.0
H2466 H 0.49799 0.07352 0.86712 0.0
H2467 H 0.54975 0.08586 0.81882 0.0
H2468 H 0.54717 0.10096 0.9151 0.0
H2469 H 0.54214 0.11615 0.95415 0.0
H2470 H 0.582 0.1641 0.92197 0.0
H2471 H 0.5871 0.14922 0.88245 0.0
C2472 C 0.63033 0.10691 0.83117 0.0
C2473 C 0.6419 0.12382 0.82301 0.0
C2474 C 0.61362 0.10222 0.83914 0.0
C2475 C 0.6083 0.1144 0.83921 0.0
C2476 C 0.62008 0.13142 0.83235 0.0
C2477 C 0.63668 0.13607 0.8242 0.0
C2478 C 0.5903 0.10951 0.84496 0.0
C2479 C 0.58691 0.11786 0.867 0.0
C2480 C 0.57667 0.0975 0.82783 0.0
C2481 C 0.57951 0.08872 0.80356 0.0
C2482 C 0.59035 0.09816 0.78096 0.0
C2483 C 0.59299 0.08978 0.75819 0.0
C2484 C 0.58474 0.07195 0.75767 0.0
C2485 C 0.57379 0.06246 0.77988 0.0
C2486 C 0.57112 0.07079 0.80272 0.0
C2487 C 0.52286 0.11615 0.85353 0.0
C2488 C 0.508 0.10059 0.85969 0.0
C2489 C 0.53861 0.11694 0.85111 0.0
C2490 C 0.53988 0.10223 0.85487 0.0
C2491 C 0.52502 0.08653 0.85994 0.0
C2492 C 0.5092 0.08572 0.86246 0.0
C2493 C 0.55687 0.10353 0.85384 0.0
C2494 C 0.56008 0.09451 0.83271 0.0
C2495 C 0.57035 0.11494 0.87181 0.0
C2496 C 0.56744 0.12396 0.89569 0.0
C2497 C 0.55479 0.11475 0.91623 0.0
C2498 C 0.55193 0.12331 0.93847 0.0
C2499 C 0.56173 0.14108 0.94051 0.0
C2500 C 0.57442 0.15033 0.92035 0.0
C2501 C 0.57732 0.14184 0.89805 0.0
H2502 H 0.5595 0.14769 0.95775 0.0
H2503 H 0.58679 0.06548 0.74002 0.0
H2504 H 0.89857 0.5301 0.83555 0.0
H2505 H 0.90492 0.50782 0.85039 0.0
H2506 H 0.85782 0.46944 0.81218 0.0
H2507 H 0.85138 0.49146 0.7975 0.0
H2508 H 0.86319 0.45931 0.86381 0.0
H2509 H 0.89529 0.48462 0.77718 0.0
H2510 H 0.91631 0.5084 0.74756 0.0
H2511 H 0.95573 0.51835 0.80832 0.0
H2512 H 0.93487 0.49475 0.83851 0.0
H2513 H 0.87206 0.38793 0.83917 0.0
H2514 H 0.86923 0.41319 0.83321 0.0
H2515 H 0.91931 0.44459 0.86954 0.0
H2516 H 0.92243 0.41935 0.875 0.0
H2517 H 0.91471 0.46022 0.82505 0.0
H2518 H 0.88336 0.43296 0.90927 0.0
H2519 H 0.86246 0.40904 0.93877 0.0
H2520 H 0.82186 0.4029 0.88367 0.0
H2521 H 0.84255 0.42665 0.85359 0.0
C2522 C 0.88949 0.51689 0.83063 0.0
C2523 C 0.87452 0.51255 0.81523 0.0
C2524 C 0.89317 0.5042 0.83899 0.0
C2525 C 0.88191 0.487 0.83212 0.0
C2526 C 0.86669 0.48263 0.81769 0.0
C2527 C 0.86305 0.49526 0.80923 0.0
C2528 C 0.88606 0.47347 0.83891 0.0
C2529 C 0.87441 0.45946 0.85525 0.0
C2530 C 0.90096 0.47391 0.8284 0.0
C2531 C 0.91348 0.48807 0.81026 0.0
C2532 C 0.90841 0.49197 0.78434 0.0
C2533 C 0.9203 0.5054 0.76743 0.0
C2534 C 0.93733 0.51492 0.7761 0.0
C2535 C 0.94252 0.511 0.80167 0.0
C2536 C 0.93067 0.49759 0.81868 0.0
C2537 C 0.88253 0.4002 0.84578 0.0
C2538 C 0.89742 0.40159 0.85777 0.0
C2539 C 0.88085 0.41464 0.84251 0.0
C2540 C 0.8939 0.43073 0.85152 0.0
C2541 C 0.90903 0.43228 0.86263 0.0
C2542 C 0.91078 0.41783 0.86573 0.0
C2543 C 0.89161 0.44585 0.8494 0.0
C2544 C 0.90361 0.46016 0.834 0.0
C2545 C 0.87705 0.44572 0.86087 0.0
C2546 C 0.86453 0.43152 0.87906 0.0
C2547 C 0.86999 0.42645 0.90334 0.0
C2548 C 0.85818 0.41292 0.92018 0.0
C2549 C 0.84085 0.40444 0.91307 0.0
C2550 C 0.83529 0.40949 0.88914 0.0
C2551 C 0.84705 0.42299 0.87221 0.0
H2552 H 0.83173 0.39397 0.92613 0.0
H2553 H 0.94652 0.52531 0.76297 0.0
H2554 H 0.58086 0.50221 0.86258 0.0
H2555 H 0.55592 0.47386 0.85528 0.0
H2556 H 0.58897 0.45419 0.83205 0.0
H2557 H 0.61397 0.48243 0.83931 0.0
H2558 H 0.56129 0.44351 0.79567 0.0
H2559 H 0.57224 0.44684 0.89689 0.0
H2560 H 0.57655 0.45968 0.94469 0.0
H2561 H 0.52656 0.45416 0.94158 0.0
H2562 H 0.52205 0.4415 0.89355 0.0
H2563 H 0.50951 0.35524 0.80617 0.0
H2564 H 0.53172 0.3846 0.81534 0.0
H2565 H 0.49355 0.39703 0.84188 0.0
H2566 H 0.47109 0.3674 0.8331 0.0
H2567 H 0.52195 0.41246 0.87567 0.0
H2568 H 0.51 0.40768 0.77615 0.0
H2569 H 0.50539 0.39512 0.72809 0.0
H2570 H 0.55668 0.40397 0.72717 0.0
H2571 H 0.56153 0.41636 0.77542 0.0
C2572 C 0.58283 0.49189 0.85575 0.0
C2573 C 0.59943 0.49459 0.8516 0.0
C2574 C 0.56857 0.47568 0.85173 0.0
C2575 C 0.57063 0.46191 0.84339 0.0
C2576 C 0.58712 0.46465 0.83855 0.0
C2577 C 0.60139 0.4808 0.84277 0.0
C2578 C 0.55564 0.44457 0.83991 0.0
C2579 C 0.55277 0.43665 0.81321 0.0
C2580 C 0.54423 0.43588 0.86259 0.0
C2581 C 0.54689 0.4434 0.89151 0.0
C2582 C 0.56223 0.4485 0.9063 0.0
C2583 C 0.56469 0.45572 0.93345 0.0
C2584 C 0.55186 0.45778 0.94613 0.0
C2585 C 0.53651 0.45258 0.93171 0.0
C2586 C 0.53398 0.44537 0.90453 0.0
C2587 C 0.5058 0.36414 0.81421 0.0
C2588 C 0.48851 0.35902 0.81866 0.0
C2589 C 0.51853 0.38096 0.81933 0.0
C2590 C 0.51427 0.39309 0.8287 0.0
C2591 C 0.4971 0.38788 0.83446 0.0
C2592 C 0.48429 0.37096 0.82945 0.0
C2593 C 0.5278 0.41126 0.83154 0.0
C2594 C 0.53037 0.41936 0.85805 0.0
C2595 C 0.5389 0.4202 0.80861 0.0
C2596 C 0.53607 0.41282 0.77952 0.0
C2597 C 0.52026 0.40683 0.7658 0.0
C2598 C 0.5176 0.39976 0.7385 0.0
C2599 C 0.53072 0.39871 0.72461 0.0
C2600 C 0.54653 0.40477 0.73796 0.0
C2601 C 0.54924 0.41184 0.76528 0.0
H2602 H 0.52864 0.39324 0.70348 0.0
H2603 H 0.55379 0.46337 0.96715 0.0
H2604 H 0.50815 0.68949 0.64073 0.0
H2605 H 0.51398 0.71819 0.65235 0.0
H2606 H 0.56492 0.73193 0.67914 0.0
H2607 H 0.55905 0.70297 0.66799 0.0
H2608 H 0.55107 0.74591 0.71382 0.0
H2609 H 0.55856 0.74288 0.61364 0.0
H2610 H 0.55068 0.73096 0.56516 0.0
H2611 H 0.50756 0.73875 0.56622 0.0
H2612 H 0.51504 0.75049 0.6149 0.0
H2613 H 0.58412 0.83577 0.70212 0.0
H2614 H 0.57928 0.80692 0.69463 0.0
H2615 H 0.52677 0.78943 0.67259 0.0
H2616 H 0.53145 0.81825 0.68006 0.0
H2617 H 0.54275 0.77788 0.6354 0.0
H2618 H 0.53559 0.78072 0.73654 0.0
H2619 H 0.54424 0.79306 0.78464 0.0
H2620 H 0.58796 0.78631 0.78098 0.0
H2621 H 0.5797 0.77415 0.73265 0.0
C2622 C 0.52054 0.69853 0.64942 0.0
C2623 C 0.5332 0.69401 0.65318 0.0
C2624 C 0.52387 0.71496 0.65594 0.0
C2625 C 0.54001 0.72731 0.666 0.0
C2626 C 0.55241 0.72262 0.67122 0.0
C2627 C 0.54904 0.70608 0.66485 0.0
C2628 C 0.54405 0.74524 0.6698 0.0
C2629 C 0.54949 0.75299 0.69658 0.0
C2630 C 0.54178 0.7544 0.64737 0.0
C2631 C 0.53727 0.74742 0.61803 0.0
C2632 C 0.54732 0.74193 0.60363 0.0
C2633 C 0.54294 0.73522 0.5761 0.0
C2634 C 0.52861 0.73406 0.56265 0.0
C2635 C 0.51865 0.73964 0.57668 0.0
C2636 C 0.52296 0.74633 0.60423 0.0
C2637 C 0.57155 0.82582 0.69554 0.0
C2638 C 0.55815 0.82931 0.69175 0.0
C2639 C 0.5688 0.80932 0.69143 0.0
C2640 C 0.55263 0.79603 0.68335 0.0
C2641 C 0.53933 0.79953 0.67891 0.0
C2642 C 0.54203 0.81599 0.68324 0.0
C2643 C 0.54956 0.77845 0.67948 0.0
C2644 C 0.54436 0.7708 0.65262 0.0
C2645 C 0.55218 0.76946 0.70177 0.0
C2646 C 0.55713 0.77669 0.73086 0.0
C2647 C 0.54713 0.782 0.74589 0.0
C2648 C 0.55195 0.78894 0.77321 0.0
C2649 C 0.56667 0.79051 0.78582 0.0
C2650 C 0.57658 0.78511 0.77116 0.0
C2651 C 0.57183 0.77818 0.74382 0.0
H2652 H 0.57037 0.79589 0.80698 0.0
H2653 H 0.52524 0.72887 0.54133 0.0
H2654 H 0.16329 0.75614 0.69957 0.0
H2655 H 0.19115 0.7821 0.69471 0.0
H2656 H 0.21453 0.75148 0.67792 0.0
H2657 H 0.18687 0.72553 0.68292 0.0
H2658 H 0.23216 0.77587 0.71753 0.0
H2659 H 0.2076 0.77252 0.6247 0.0
H2660 H 0.18577 0.77085 0.59126 0.0
H2661 H 0.19261 0.81836 0.62331 0.0
H2662 H 0.21434 0.8202 0.65722 0.0
H2663 H 0.3104 0.82982 0.65058 0.0
H2664 H 0.28167 0.80819 0.66471 0.0
H2665 H 0.2687 0.84743 0.67978 0.0
H2666 H 0.29764 0.86931 0.66544 0.0
H2667 H 0.24496 0.82138 0.64655 0.0
H2668 H 0.27225 0.82631 0.73546 0.0
H2669 H 0.29434 0.82793 0.76819 0.0
H2670 H 0.28256 0.77746 0.74346 0.0
H2671 H 0.26056 0.77562 0.71026 0.0
C2672 C 0.17433 0.75493 0.69462 0.0
C2673 C 0.17283 0.73873 0.69167 0.0
C2674 C 0.19025 0.76978 0.69182 0.0
C2675 C 0.20491 0.76871 0.68595 0.0
C2676 C 0.20339 0.75259 0.6826 0.0
C2677 C 0.18753 0.73776 0.68533 0.0
C2678 C 0.22196 0.78429 0.68381 0.0
C2679 C 0.235 0.78577 0.70188 0.0
C2680 C 0.22548 0.79749 0.66409 0.0
C2681 C 0.21243 0.79639 0.64373 0.0
C2682 C 0.20434 0.78253 0.62479 0.0
C2683 C 0.19201 0.78157 0.60572 0.0
C2684 C 0.18777 0.79446 0.60523 0.0
C2685 C 0.19589 0.80837 0.62376 0.0
C2686 C 0.20821 0.80938 0.6429 0.0
C2687 C 0.30155 0.83391 0.65728 0.0
C2688 C 0.30629 0.85128 0.65688 0.0
C2689 C 0.28512 0.82152 0.66546 0.0
C2690 C 0.27308 0.8262 0.67348 0.0
C2691 C 0.27784 0.84356 0.67373 0.0
C2692 C 0.29438 0.85603 0.66569 0.0
C2693 C 0.25528 0.81274 0.67977 0.0
C2694 C 0.24207 0.81163 0.66253 0.0
C2695 C 0.2516 0.79986 0.70024 0.0
C2696 C 0.26481 0.80088 0.72022 0.0
C2697 C 0.27445 0.8156 0.73683 0.0
C2698 C 0.28694 0.81655 0.7555 0.0
C2699 C 0.28987 0.80282 0.75787 0.0
C2700 C 0.28028 0.78809 0.7416 0.0
C2701 C 0.26778 0.78708 0.72288 0.0
H2702 H 0.29955 0.80357 0.77233 0.0
H2703 H 0.17822 0.79369 0.59044 0.0
H2704 H 0.27951 0.46701 0.68523 0.0
H2705 H 0.2545 0.47027 0.67879 0.0
H2706 H 0.22165 0.41564 0.68391 0.0
H2707 H 0.24664 0.4122 0.69004 0.0
H2708 H 0.21142 0.42946 0.64214 0.0
H2709 H 0.22595 0.43986 0.74085 0.0
H2710 H 0.24495 0.45312 0.78212 0.0
H2711 H 0.25477 0.50261 0.75508 0.0
H2712 H 0.23602 0.48966 0.7134 0.0
H2713 H 0.13659 0.43646 0.65953 0.0
H2714 H 0.1589 0.4295 0.67102 0.0
H2715 H 0.19727 0.48265 0.66269 0.0
H2716 H 0.17517 0.48967 0.65111 0.0
H2717 H 0.20292 0.4671 0.70903 0.0
H2718 H 0.19016 0.45684 0.60861 0.0
H2719 H 0.17134 0.4437 0.56709 0.0
H2720 H 0.1581 0.3938 0.59763 0.0
H2721 H 0.17666 0.40666 0.63959 0.0
C2722 C 0.26699 0.45566 0.68479 0.0
C2723 C 0.26509 0.43935 0.68837 0.0
C2724 C 0.2527 0.45755 0.68124 0.0
C2725 C 0.2362 0.44321 0.68137 0.0
C2726 C 0.23427 0.42688 0.68389 0.0
C2727 C 0.24858 0.42495 0.68744 0.0
C2728 C 0.22101 0.44538 0.67945 0.0
C2729 C 0.20939 0.43744 0.65705 0.0
C2730 C 0.21848 0.45597 0.69871 0.0
C2731 C 0.22968 0.4638 0.72387 0.0
C2732 C 0.23226 0.45358 0.74359 0.0
C2733 C 0.24297 0.46104 0.76707 0.0
C2734 C 0.25109 0.4787 0.77118 0.0
C2735 C 0.24848 0.48893 0.75185 0.0
C2736 C 0.2378 0.48154 0.72831 0.0
C2737 C 0.14975 0.44668 0.66062 0.0
C2738 C 0.15416 0.46359 0.65429 0.0
C2739 C 0.16247 0.44267 0.66702 0.0
C2740 C 0.17973 0.45555 0.66739 0.0
C2741 C 0.18404 0.47253 0.66246 0.0
C2742 C 0.17139 0.47651 0.65579 0.0
C2743 C 0.19349 0.45138 0.67153 0.0
C2744 C 0.20484 0.45895 0.69434 0.0
C2745 C 0.19575 0.44044 0.65267 0.0
C2746 C 0.18463 0.4327 0.62742 0.0
C2747 C 0.18311 0.44306 0.60661 0.0
C2748 C 0.17252 0.43567 0.58297 0.0
C2749 C 0.16349 0.41793 0.57977 0.0
C2750 C 0.16508 0.40755 0.60017 0.0
C2751 C 0.17563 0.41488 0.62388 0.0
H2752 H 0.1553 0.41223 0.56145 0.0
H2753 H 0.25938 0.48445 0.78938 0.0
H2754 H 0.364 0.85549 0.20787 0.0
H2755 H 0.39319 0.8633 0.19531 0.0
H2756 H 0.39564 0.90101 0.13633 0.0
H2757 H 0.36631 0.89347 0.14921 0.0
H2758 H 0.40867 0.87844 0.11576 0.0
H2759 H 0.41523 0.91669 0.19176 0.0
H2760 H 0.40909 0.92432 0.23898 0.0
H2761 H 0.4257 0.89248 0.27924 0.0
H2762 H 0.43169 0.88445 0.23221 0.0
H2763 H 0.50661 0.92285 0.14462 0.0
H2764 H 0.47889 0.92108 0.15122 0.0
H2765 H 0.45338 0.86666 0.13742 0.0
H2766 H 0.48097 0.86826 0.13093 0.0
H2767 H 0.45323 0.90249 0.19096 0.0
H2768 H 0.41711 0.8558 0.09853 0.0
H2769 H 0.4233 0.84843 0.0511 0.0
H2770 H 0.46648 0.89897 0.04256 0.0
H2771 H 0.46041 0.90672 0.08973 0.0
C2772 C 0.37065 0.86537 0.19205 0.0
C2773 C 0.36285 0.87389 0.17954 0.0
C2774 C 0.38735 0.86984 0.185 0.0
C2775 C 0.39655 0.88279 0.16508 0.0
C2776 C 0.3887 0.891 0.15181 0.0
C2777 C 0.372 0.8867 0.1592 0.0
C2778 C 0.41449 0.8878 0.15881 0.0
C2779 C 0.41847 0.88382 0.13207 0.0
C2780 C 0.42725 0.89497 0.18009 0.0
C2781 C 0.42378 0.89987 0.20843 0.0
C2782 C 0.41744 0.91121 0.21067 0.0
C2783 C 0.41401 0.91563 0.2374 0.0
C2784 C 0.41697 0.90887 0.26209 0.0
C2785 C 0.42341 0.8977 0.2601 0.0
C2786 C 0.42684 0.89323 0.2334 0.0
C2787 C 0.4951 0.91049 0.14304 0.0
C2788 C 0.496 0.89569 0.13721 0.0
C2789 C 0.4793 0.90951 0.14686 0.0
C2790 C 0.46412 0.89378 0.14449 0.0
C2791 C 0.46496 0.87896 0.13898 0.0
C2792 C 0.48075 0.87989 0.13544 0.0
C2793 C 0.44734 0.89272 0.14811 0.0
C2794 C 0.44353 0.89734 0.17446 0.0
C2795 C 0.43478 0.88622 0.12641 0.0
C2796 C 0.43837 0.88178 0.09778 0.0
C2797 C 0.42788 0.86536 0.08647 0.0
C2798 C 0.43137 0.86112 0.05964 0.0
C2799 C 0.4453 0.87321 0.04386 0.0
C2800 C 0.45573 0.8896 0.05484 0.0
C2801 C 0.45228 0.89391 0.08164 0.0
H2802 H 0.448 0.86989 0.02311 0.0
H2803 H 0.41431 0.9123 0.28277 0.0
H2804 H 0.08249 0.57965 0.12862 0.0
H2805 H 0.08527 0.5543 0.13488 0.0
H2806 H 0.13883 0.5864 0.15389 0.0
H2807 H 0.13625 0.61179 0.14726 0.0
H2808 H 0.13393 0.56222 0.11608 0.0
H2809 H 0.10947 0.56434 0.20621 0.0
H2810 H 0.08808 0.56532 0.23755 0.0
H2811 H 0.04907 0.51754 0.20331 0.0
H2812 H 0.07021 0.5164 0.17148 0.0
H2813 H 0.15652 0.50726 0.18485 0.0
H2814 H 0.14981 0.52919 0.17086 0.0
H2815 H 0.09821 0.49032 0.15074 0.0
H2816 H 0.10484 0.46812 0.16493 0.0
H2817 H 0.09942 0.51573 0.18453 0.0
H2818 H 0.12487 0.51242 0.09765 0.0
H2819 H 0.14659 0.51158 0.06704 0.0
H2820 H 0.18403 0.56168 0.09557 0.0
H2821 H 0.1626 0.56275 0.12668 0.0
C2822 C 0.09484 0.58133 0.13436 0.0
C2823 C 0.10915 0.59777 0.13741 0.0
C2824 C 0.09639 0.56681 0.13798 0.0
C2825 C 0.11225 0.56845 0.14496 0.0
C2826 C 0.12649 0.58483 0.1484 0.0
C2827 C 0.12496 0.59934 0.14472 0.0
C2828 C 0.1142 0.55318 0.14802 0.0
C2829 C 0.12649 0.55213 0.13123 0.0
C2830 C 0.10408 0.53973 0.16708 0.0
C2831 C 0.09138 0.54038 0.18624 0.0
C2832 C 0.0963 0.55412 0.20519 0.0
C2833 C 0.08423 0.55469 0.22308 0.0
C2834 C 0.06721 0.54153 0.22235 0.0
C2835 C 0.06225 0.52774 0.2038 0.0
C2836 C 0.07427 0.52712 0.18586 0.0
C2837 C 0.14379 0.50331 0.17711 0.0
C2838 C 0.1312 0.48595 0.176 0.0
C2839 C 0.13999 0.51589 0.16902 0.0
C2840 C 0.12355 0.51139 0.15958 0.0
C2841 C 0.111 0.49404 0.15791 0.0
C2842 C 0.11483 0.4814 0.16587 0.0
C2843 C 0.11941 0.52497 0.15304 0.0
C2844 C 0.10671 0.52571 0.16912 0.0
C2845 C 0.12919 0.53817 0.13338 0.0
C2846 C 0.14213 0.53761 0.11466 0.0
C2847 C 0.13777 0.52321 0.09757 0.0
C2848 C 0.15002 0.5227 0.0801 0.0
C2849 C 0.16669 0.53655 0.0794 0.0
C2850 C 0.17112 0.55096 0.09614 0.0
C2851 C 0.15891 0.55153 0.11367 0.0
H2852 H 0.17616 0.53614 0.06585 0.0
H2853 H 0.05789 0.54199 0.23622 0.0
H2854 H 0.53254 0.63143 0.16658 0.0
H2855 H 0.51015 0.60237 0.15429 0.0
H2856 H 0.47161 0.61522 0.17649 0.0
H2857 H 0.49379 0.644 0.1893 0.0
H2858 H 0.46512 0.58652 0.20142 0.0
H2859 H 0.48019 0.60965 0.1065 0.0
H2860 H 0.49962 0.62379 0.06604 0.0
H2861 H 0.51246 0.58405 0.0638 0.0
H2862 H 0.49326 0.56977 0.10451 0.0
H2863 H 0.39018 0.51751 0.14489 0.0
H2864 H 0.41491 0.54556 0.15419 0.0
H2865 H 0.44857 0.52593 0.13516 0.0
H2866 H 0.42384 0.49776 0.12552 0.0
H2867 H 0.45899 0.55686 0.10955 0.0
H2868 H 0.44259 0.533 0.20299 0.0
H2869 H 0.42278 0.51879 0.24297 0.0
H2870 H 0.41226 0.56007 0.24773 0.0
H2871 H 0.43184 0.57443 0.20749 0.0
C2872 C 0.51929 0.6281 0.16843 0.0
C2873 C 0.51493 0.63997 0.17903 0.0
C2874 C 0.5065 0.61151 0.16137 0.0
C2875 C 0.48918 0.60661 0.16447 0.0
C2876 C 0.48487 0.61866 0.1741 0.0
C2877 C 0.49759 0.63514 0.18133 0.0
C2878 C 0.47544 0.58874 0.15923 0.0
C2879 C 0.46368 0.58012 0.18119 0.0
C2880 C 0.47388 0.58017 0.13319 0.0
C2881 C 0.48544 0.58875 0.10876 0.0
C2882 C 0.48727 0.604 0.09754 0.0
C2883 C 0.49822 0.61203 0.07453 0.0
C2884 C 0.50731 0.60485 0.06242 0.0
C2885 C 0.50543 0.58961 0.07324 0.0
C2886 C 0.49451 0.58154 0.09627 0.0
C2887 C 0.40282 0.51909 0.14276 0.0
C2888 C 0.40501 0.50535 0.13455 0.0
C2889 C 0.41695 0.53514 0.14816 0.0
C2890 C 0.43357 0.53778 0.14562 0.0
C2891 C 0.43584 0.52415 0.13727 0.0
C2892 C 0.42169 0.50805 0.1319 0.0
C2893 C 0.44851 0.55485 0.15152 0.0
C2894 C 0.46052 0.56327 0.12979 0.0
C2895 C 0.4503 0.56328 0.17775 0.0
C2896 C 0.43858 0.55472 0.20207 0.0
C2897 C 0.43596 0.53899 0.21242 0.0
C2898 C 0.42479 0.53092 0.23516 0.0
C2899 C 0.41624 0.5385 0.24784 0.0
C2900 C 0.41888 0.5542 0.23786 0.0
C2901 C 0.43003 0.56233 0.21512 0.0
H2902 H 0.4076 0.53223 0.26544 0.0
H2903 H 0.51577 0.61108 0.0446 0.0
H2904 H 0.10137 0.63625 0.65768 0.0
H2905 H 0.09441 0.60731 0.64369 0.0
H2906 H 0.14376 0.61746 0.67355 0.0
H2907 H 0.15086 0.64625 0.68709 0.0
H2908 H 0.13579 0.60021 0.62458 0.0
H2909 H 0.10759 0.5961 0.71472 0.0
H2910 H 0.08784 0.59971 0.7464 0.0
H2911 H 0.0459 0.56825 0.691 0.0
H2912 H 0.06546 0.56464 0.65879 0.0
H2913 H 0.12985 0.52225 0.65671 0.0
H2914 H 0.13172 0.54999 0.66108 0.0
H2915 H 0.08092 0.52898 0.62658 0.0
H2916 H 0.0788 0.50095 0.62245 0.0
H2917 H 0.08647 0.55085 0.67096 0.0
H2918 H 0.11453 0.55201 0.58411 0.0
H2919 H 0.13447 0.54803 0.55358 0.0
H2920 H 0.17686 0.58497 0.6031 0.0
H2921 H 0.15714 0.58898 0.63419 0.0
C2922 C 0.11081 0.63236 0.66086 0.0
C2923 C 0.12663 0.6435 0.67364 0.0
C2924 C 0.10678 0.61581 0.65302 0.0
C2925 C 0.11849 0.61015 0.65793 0.0
C2926 C 0.13452 0.62152 0.66959 0.0
C2927 C 0.13854 0.63799 0.6774 0.0
C2928 C 0.11405 0.59226 0.65213 0.0
C2929 C 0.12503 0.58942 0.63478 0.0
C2930 C 0.09975 0.57814 0.66482 0.0
C2931 C 0.08801 0.58028 0.68419 0.0
C2932 C 0.09418 0.59007 0.70919 0.0
C2933 C 0.08302 0.59209 0.72725 0.0
C2934 C 0.06564 0.58426 0.72067 0.0
C2935 C 0.05938 0.57434 0.69604 0.0
C2936 C 0.07049 0.5723 0.67788 0.0
C2937 C 0.11899 0.52343 0.65025 0.0
C2938 C 0.10423 0.5094 0.63898 0.0
C2939 C 0.12012 0.53934 0.65264 0.0
C2940 C 0.1066 0.54163 0.64358 0.0
C2941 C 0.09154 0.5275 0.63349 0.0
C2942 C 0.09037 0.51151 0.63116 0.0
C2943 C 0.10851 0.5589 0.64412 0.0
C2944 C 0.09705 0.5616 0.66037 0.0
C2945 C 0.12241 0.57294 0.63047 0.0
C2946 C 0.13434 0.57072 0.61159 0.0
C2947 C 0.12809 0.55921 0.58859 0.0
C2948 C 0.13936 0.55696 0.57118 0.0
C2949 C 0.15692 0.56622 0.57642 0.0
C2950 C 0.16325 0.5778 0.59906 0.0
C2951 C 0.15204 0.58008 0.61657 0.0
H2952 H 0.16562 0.56446 0.56292 0.0
H2953 H 0.05702 0.58584 0.73469 0.0
H2954 H 0.35573 0.5057 0.68457 0.0
H2955 H 0.38436 0.5274 0.66995 0.0
H2956 H 0.39695 0.4882 0.65189 0.0
H2957 H 0.36803 0.46621 0.66637 0.0
H2958 H 0.42137 0.5154 0.68634 0.0
H2959 H 0.39304 0.50789 0.59763 0.0
H2960 H 0.37029 0.50489 0.56511 0.0
H2961 H 0.38071 0.5553 0.58724 0.0
H2962 H 0.40336 0.55851 0.62023 0.0
H2963 H 0.50188 0.58233 0.63183 0.0
H2964 H 0.47468 0.55562 0.63704 0.0
H2965 H 0.44893 0.58427 0.65137 0.0
H2966 H 0.47589 0.61092 0.64595 0.0
H2967 H 0.4322 0.55915 0.61289 0.0
H2968 H 0.45759 0.56508 0.70589 0.0
H2969 H 0.48016 0.56836 0.73912 0.0
H2970 H 0.47511 0.52111 0.70943 0.0
H2971 H 0.45266 0.51768 0.6757 0.0
C2972 C 0.3645 0.50164 0.67719 0.0
C2973 C 0.35964 0.48425 0.67659 0.0
C2974 C 0.38085 0.51406 0.66877 0.0
C2975 C 0.39273 0.50939 0.65974 0.0
C2976 C 0.38792 0.49203 0.65876 0.0
C2977 C 0.3714 0.47951 0.66686 0.0
C2978 C 0.41034 0.5229 0.65259 0.0
C2979 C 0.42385 0.52476 0.66983 0.0
C2980 C 0.41346 0.53524 0.63141 0.0
C2981 C 0.39984 0.53339 0.61156 0.0
C2982 C 0.39039 0.51829 0.59574 0.0
C2983 C 0.37753 0.51656 0.57718 0.0
C2984 C 0.37404 0.52989 0.57414 0.0
C2985 C 0.38343 0.54498 0.58962 0.0
C2986 C 0.3963 0.54677 0.60822 0.0
C2987 C 0.49044 0.58294 0.63628 0.0
C2988 C 0.49107 0.59878 0.63843 0.0
C2989 C 0.47492 0.56766 0.63928 0.0
C2990 C 0.45979 0.56797 0.64461 0.0
C2991 C 0.46044 0.58374 0.64711 0.0
C2992 C 0.4759 0.59898 0.64413 0.0
C2993 C 0.44314 0.55195 0.64719 0.0
C2994 C 0.4298 0.54962 0.62905 0.0
C2995 C 0.4402 0.53924 0.66761 0.0
C2996 C 0.4536 0.54123 0.68802 0.0
C2997 C 0.46139 0.55546 0.70628 0.0
C2998 C 0.47414 0.55734 0.72523 0.0
C2999 C 0.47911 0.54498 0.72632 0.0
C3000 C 0.47128 0.53069 0.70852 0.0
C3001 C 0.45853 0.52877 0.68948 0.0
H3002 H 0.48899 0.54646 0.741 0.0
H3003 H 0.36408 0.52853 0.55976 0.0
H3004 H 0.38879 0.87611 0.66056 0.0
H3005 H 0.41485 0.87509 0.66941 0.0
H3006 H 0.44467 0.92421 0.62908 0.0
H3007 H 0.41856 0.92538 0.62007 0.0
H3008 H 0.45318 0.90006 0.61043 0.0
H3009 H 0.44675 0.92245 0.69855 0.0
H3010 H 0.43156 0.92397 0.74107 0.0
H3011 H 0.42227 0.87465 0.76796 0.0
H3012 H 0.43719 0.87271 0.72537 0.0
H3013 H 0.53056 0.90285 0.65938 0.0
H3014 H 0.50834 0.90993 0.6478 0.0
H3015 H 0.47071 0.86381 0.68954 0.0
H3016 H 0.49269 0.85677 0.70135 0.0
H3017 H 0.46885 0.89099 0.70751 0.0
H3018 H 0.47259 0.86737 0.61725 0.0
H3019 H 0.48719 0.86535 0.57429 0.0
H3020 H 0.50129 0.91674 0.55139 0.0
H3021 H 0.48696 0.91914 0.59445 0.0
C3022 C 0.40088 0.88677 0.65368 0.0
C3023 C 0.40159 0.90085 0.63965 0.0
C3024 C 0.41577 0.88618 0.65883 0.0
C3025 C 0.43169 0.89963 0.65006 0.0
C3026 C 0.4325 0.91372 0.63604 0.0
C3027 C 0.41758 0.91439 0.63106 0.0
C3028 C 0.44735 0.89864 0.65518 0.0
C3029 C 0.45684 0.89842 0.63169 0.0
C3030 C 0.45193 0.89626 0.68289 0.0
C3031 C 0.44299 0.89739 0.70863 0.0
C3032 C 0.44136 0.91187 0.71341 0.0
C3033 C 0.43282 0.91282 0.73755 0.0
C3034 C 0.42593 0.89941 0.75718 0.0
C3035 C 0.42761 0.88503 0.75273 0.0
C3036 C 0.43613 0.88401 0.72861 0.0
C3037 C 0.51751 0.89414 0.66576 0.0
C3038 C 0.5134 0.87929 0.68137 0.0
C3039 C 0.50484 0.89819 0.65913 0.0
C3040 C 0.48788 0.88741 0.66788 0.0
C3041 C 0.48373 0.87238 0.68276 0.0
C3042 C 0.49632 0.86834 0.68939 0.0
C3043 C 0.47441 0.89191 0.6627 0.0
C3044 C 0.46535 0.89286 0.68626 0.0
C3045 C 0.47023 0.89492 0.63507 0.0
C3046 C 0.4789 0.89351 0.60925 0.0
C3047 C 0.47895 0.8783 0.6032 0.0
C3048 C 0.48714 0.87707 0.5788 0.0
C3049 C 0.49521 0.89093 0.56018 0.0
C3050 C 0.49507 0.90603 0.56587 0.0
C3051 C 0.4869 0.90732 0.59026 0.0
H3052 H 0.50154 0.88995 0.54129 0.0
H3053 H 0.41932 0.90016 0.77586 0.0
H3054 H 0.1686 0.41053 0.2041 0.0
H3055 H 0.19606 0.41222 0.19477 0.0
H3056 H 0.21679 0.46407 0.16537 0.0
H3057 H 0.18947 0.4625 0.17443 0.0
H3058 H 0.22535 0.44532 0.13046 0.0
H3059 H 0.22539 0.45603 0.23162 0.0
H3060 H 0.21385 0.44895 0.28044 0.0
H3061 H 0.21765 0.40347 0.2787 0.0
H3062 H 0.22901 0.41018 0.22968 0.0
H3063 H 0.31348 0.48185 0.13506 0.0
H3064 H 0.28442 0.47486 0.14651 0.0
H3065 H 0.27286 0.4248 0.17481 0.0
H3066 H 0.30222 0.43183 0.1637 0.0
H3067 H 0.25817 0.4386 0.20922 0.0
H3068 H 0.26038 0.42887 0.10995 0.0
H3069 H 0.27179 0.43558 0.06103 0.0
H3070 H 0.26325 0.47821 0.05855 0.0
H3071 H 0.25201 0.47191 0.10763 0.0
C3072 C 0.17897 0.42226 0.19548 0.0
C3073 C 0.17685 0.43641 0.19011 0.0
C3074 C 0.19467 0.42322 0.19029 0.0
C3075 C 0.2085 0.43833 0.17965 0.0
C3076 C 0.20628 0.4523 0.17362 0.0
C3077 C 0.19065 0.45138 0.17889 0.0
C3078 C 0.22541 0.43981 0.17505 0.0
C3079 C 0.23258 0.44397 0.14771 0.0
C3080 C 0.23458 0.43748 0.19738 0.0
C3081 C 0.22786 0.43351 0.22689 0.0
C3082 C 0.22364 0.44445 0.24157 0.0
C3083 C 0.21715 0.44052 0.26928 0.0
C3084 C 0.21497 0.42574 0.28263 0.0
C3085 C 0.21932 0.4149 0.26831 0.0
C3086 C 0.22579 0.41876 0.24058 0.0
C3087 C 0.30485 0.4694 0.14402 0.0
C3088 C 0.3101 0.45732 0.14822 0.0
C3089 C 0.2882 0.46541 0.15044 0.0
C3090 C 0.27637 0.44918 0.16089 0.0
C3091 C 0.28177 0.43736 0.16655 0.0
C3092 C 0.29853 0.44139 0.16023 0.0
C3093 C 0.25828 0.44456 0.16477 0.0
C3094 C 0.25087 0.43976 0.19189 0.0
C3095 C 0.24881 0.4462 0.14218 0.0
C3096 C 0.25546 0.44998 0.11257 0.0
C3097 C 0.26104 0.43975 0.09905 0.0
C3098 C 0.26746 0.44347 0.07128 0.0
C3099 C 0.26827 0.45733 0.05671 0.0
C3100 C 0.26262 0.46748 0.06987 0.0
C3101 C 0.25621 0.46383 0.09765 0.0
H3102 H 0.27325 0.46019 0.03521 0.0
H3103 H 0.20995 0.42272 0.30409 0.0
H3104 H 0.5174 0.82628 0.14527 0.0
H3105 H 0.52392 0.80426 0.15967 0.0
H3106 H 0.57482 0.84305 0.1837 0.0
H3107 H 0.56833 0.86532 0.16932 0.0
H3108 H 0.57425 0.81807 0.14822 0.0
H3109 H 0.54793 0.82032 0.23473 0.0
H3110 H 0.52589 0.82081 0.26498 0.0
H3111 H 0.48876 0.77103 0.23467 0.0
H3112 H 0.51052 0.77033 0.20391 0.0
H3113 H 0.59028 0.75298 0.20185 0.0
H3114 H 0.58779 0.77856 0.19649 0.0
H3115 H 0.53435 0.74709 0.17606 0.0
H3116 H 0.53663 0.72149 0.18176 0.0
H3117 H 0.53905 0.77071 0.21484 0.0
H3118 H 0.56417 0.76974 0.12476 0.0
H3119 H 0.58573 0.7691 0.0934 0.0
H3120 H 0.62464 0.81628 0.12956 0.0
H3121 H 0.60333 0.81708 0.16143 0.0
C3122 C 0.52991 0.83017 0.15401 0.0
C3123 C 0.54237 0.84754 0.15615 0.0
C3124 C 0.5336 0.81755 0.16231 0.0
C3125 C 0.54982 0.82202 0.17286 0.0
C3126 C 0.5622 0.83936 0.17565 0.0
C3127 C 0.55845 0.85204 0.16759 0.0
C3128 C 0.55396 0.80843 0.17921 0.0
C3129 C 0.56682 0.80789 0.16325 0.0
C3130 C 0.544 0.79499 0.19834 0.0
C3131 C 0.53085 0.79533 0.21684 0.0
C3132 C 0.53503 0.80953 0.23433 0.0
C3133 C 0.52259 0.80984 0.25161 0.0
C3134 C 0.50593 0.79597 0.25171 0.0
C3135 C 0.50168 0.78176 0.23457 0.0
C3136 C 0.51407 0.7814 0.21723 0.0
C3137 C 0.57802 0.7515 0.19596 0.0
C3138 C 0.56364 0.73516 0.19226 0.0
C3139 C 0.57663 0.76615 0.19288 0.0
C3140 C 0.56089 0.76474 0.18582 0.0
C3141 C 0.54661 0.74847 0.18165 0.0
C3142 C 0.54796 0.73384 0.18479 0.0
C3143 C 0.55907 0.78013 0.18338 0.0
C3144 C 0.54665 0.781 0.2001 0.0
C3145 C 0.56938 0.79382 0.16485 0.0
C3146 C 0.5822 0.79336 0.14571 0.0
C3147 C 0.57735 0.7799 0.1262 0.0
C3148 C 0.58952 0.77952 0.1083 0.0
C3149 C 0.60655 0.79261 0.10955 0.0
C3150 C 0.61144 0.80613 0.12866 0.0
C3151 C 0.59933 0.80656 0.14663 0.0
H3152 H 0.61595 0.7923 0.09567 0.0
H3153 H 0.49632 0.79623 0.26511 0.0
H3154 H 0.17688 0.68914 0.14311 0.0
H3155 H 0.19844 0.71811 0.15642 0.0
H3156 H 0.15899 0.73069 0.17194 0.0
H3157 H 0.13716 0.70147 0.15871 0.0
H3158 H 0.18561 0.75441 0.13704 0.0
H3159 H 0.17929 0.72779 0.22721 0.0
H3160 H 0.17713 0.70587 0.26088 0.0
H3161 H 0.22782 0.71726 0.23865 0.0
H3162 H 0.23021 0.73908 0.20451 0.0
H3163 H 0.24937 0.83631 0.19145 0.0
H3164 H 0.22372 0.80838 0.18496 0.0
H3165 H 0.25511 0.78536 0.173 0.0
H3166 H 0.28075 0.8131 0.17973 0.0
H3167 H 0.22989 0.76765 0.21068 0.0
H3168 H 0.23503 0.79183 0.11716 0.0
H3169 H 0.23733 0.81342 0.0826 0.0
H3170 H 0.18902 0.80642 0.11061 0.0
H3171 H 0.18654 0.78493 0.14563 0.0
C3172 C 0.17274 0.69798 0.14969 0.0
C3173 C 0.15532 0.69303 0.14988 0.0
C3174 C 0.18508 0.71453 0.15736 0.0
C3175 C 0.1803 0.72651 0.16528 0.0
C3176 C 0.16291 0.72159 0.16594 0.0
C3177 C 0.15048 0.7049 0.15855 0.0
C3178 C 0.19369 0.74433 0.17145 0.0
C3179 C 0.1951 0.75741 0.15355 0.0
C3180 C 0.20623 0.74812 0.19261 0.0
C3181 C 0.20487 0.735 0.21313 0.0
C3182 C 0.18993 0.72553 0.22932 0.0
C3183 C 0.18867 0.71314 0.24853 0.0
C3184 C 0.20232 0.71015 0.25187 0.0
C3185 C 0.21726 0.71958 0.23603 0.0
C3186 C 0.21858 0.73198 0.21677 0.0
C3187 C 0.25083 0.82534 0.18716 0.0
C3188 C 0.26714 0.82695 0.18618 0.0
C3189 C 0.23615 0.80939 0.18342 0.0
C3190 C 0.23751 0.7948 0.17849 0.0
C3191 C 0.25377 0.79645 0.17693 0.0
C3192 C 0.26842 0.81235 0.18065 0.0
C3193 C 0.22207 0.77767 0.17582 0.0
C3194 C 0.22028 0.76472 0.19443 0.0
C3195 C 0.20923 0.77401 0.15527 0.0
C3196 C 0.21071 0.78693 0.13425 0.0
C3197 C 0.22497 0.79501 0.11613 0.0
C3198 C 0.22629 0.8072 0.09642 0.0
C3199 C 0.21335 0.81133 0.09448 0.0
C3200 C 0.19905 0.80324 0.11218 0.0
C3201 C 0.19767 0.79104 0.13195 0.0
H3202 H 0.21439 0.82077 0.0792 0.0
H3203 H 0.20132 0.70055 0.26675 0.0
H3204 H 0.20226 0.19946 0.13661 0.0
H3205 H 0.20135 0.20503 0.18715 0.0
H3206 H 0.25428 0.24476 0.18429 0.0
H3207 H 0.25544 0.23892 0.13368 0.0
H3208 H 0.2488 0.22566 0.22947 0.0
H3209 H 0.2219 0.25438 0.1892 0.0
H3210 H 0.20185 0.2583 0.15888 0.0
H3211 H 0.15939 0.21812 0.2038 0.0
H3212 H 0.17917 0.21378 0.23415 0.0
H3213 H 0.24068 0.25502 0.36908 0.0
H3214 H 0.24496 0.25452 0.31756 0.0
H3215 H 0.19793 0.20641 0.31121 0.0
H3216 H 0.1937 0.20659 0.36264 0.0
H3217 H 0.20259 0.2334 0.27082 0.0
H3218 H 0.23086 0.20385 0.30819 0.0
H3219 H 0.25168 0.20128 0.33866 0.0
H3220 H 0.29276 0.24559 0.29893 0.0
H3221 H 0.27213 0.24857 0.2685 0.0
C3222 C 0.2137 0.20946 0.14664 0.0
C3223 C 0.22892 0.21877 0.13111 0.0
C3224 C 0.21313 0.21269 0.17554 0.0
C3225 C 0.22767 0.2255 0.1894 0.0
C3226 C 0.24289 0.23485 0.17398 0.0
C3227 C 0.24352 0.23151 0.14506 0.0
C3228 C 0.22703 0.22861 0.22025 0.0
C3229 C 0.23889 0.22769 0.23842 0.0
C3230 C 0.21401 0.23111 0.23199 0.0
C3231 C 0.20204 0.23367 0.21382 0.0
C3232 C 0.20829 0.24629 0.19248 0.0
C3233 C 0.19697 0.2486 0.17531 0.0
C3234 C 0.17936 0.23844 0.17937 0.0
C3235 C 0.17303 0.22597 0.20066 0.0
C3236 C 0.18429 0.2236 0.21788 0.0
C3237 C 0.23128 0.24433 0.35669 0.0
C3238 C 0.21687 0.23083 0.36984 0.0
C3239 C 0.23376 0.24406 0.32736 0.0
C3240 C 0.22174 0.23043 0.31078 0.0
C3241 C 0.2073 0.21703 0.32378 0.0
C3242 C 0.20497 0.21712 0.35313 0.0
C3243 C 0.2241 0.2301 0.27976 0.0
C3244 C 0.21259 0.23158 0.26167 0.0
C3245 C 0.23755 0.22836 0.26809 0.0
C3246 C 0.24994 0.22656 0.28634 0.0
C3247 C 0.24432 0.21315 0.30616 0.0
C3248 C 0.25608 0.21159 0.32338 0.0
C3249 C 0.27353 0.2233 0.3208 0.0
C3250 C 0.27924 0.23655 0.30094 0.0
C3251 C 0.26752 0.23818 0.2837 0.0
H3252 H 0.28262 0.22206 0.33413 0.0
H3253 H 0.17062 0.24025 0.16605 0.0
H3254 H 0.78664 0.98898 0.11967 0.0
H3255 H 0.78096 0.98151 0.17003 0.0
H3256 H 0.77073 0.02286 0.18279 0.0
H3257 H 0.77575 0.02996 0.13223 0.0
H3258 H 0.79704 0.99819 0.21415 0.0
H3259 H 0.74372 0.01473 0.23771 0.0
H3260 H 0.7191 0.01382 0.21335 0.0
H3261 H 0.71523 0.97426 0.15788 0.0
H3262 H 0.73967 0.97477 0.18215 0.0
H3263 H 0.79407 0.00804 0.36121 0.0
H3264 H 0.79465 0.01283 0.30995 0.0
H3265 H 0.74461 0.9682 0.30179 0.0
H3266 H 0.74367 0.96374 0.35329 0.0
H3267 H 0.74677 0.99172 0.26755 0.0
H3268 H 0.78157 0.96689 0.28661 0.0
H3269 H 0.80441 0.96407 0.31023 0.0
H3270 H 0.84196 0.01322 0.27825 0.0
H3271 H 0.81931 0.01643 0.25474 0.0
C3272 C 0.78304 0.99639 0.13317 0.0
C3273 C 0.78164 0.01006 0.12203 0.0
C3274 C 0.77981 0.99211 0.16194 0.0
C3275 C 0.77528 0.00152 0.18017 0.0
C3276 C 0.77384 0.01517 0.16905 0.0
C3277 C 0.77681 0.01928 0.14017 0.0
C3278 C 0.77297 0.99763 0.21106 0.0
C3279 C 0.786 0.99671 0.22576 0.0
C3280 C 0.75845 0.99541 0.22619 0.0
C3281 C 0.74364 0.99492 0.21159 0.0
C3282 C 0.73758 0.00579 0.22038 0.0
C3283 C 0.72366 0.00535 0.20658 0.0
C3284 C 0.71564 0.99403 0.18402 0.0
C3285 C 0.72149 0.98308 0.17528 0.0
C3286 C 0.7354 0.98345 0.18903 0.0
C3287 C 0.78314 0.99932 0.34852 0.0
C3288 C 0.76889 0.98542 0.36118 0.0
C3289 C 0.78351 0.00204 0.31922 0.0
C3290 C 0.76984 0.99065 0.30196 0.0
C3291 C 0.75533 0.97711 0.31469 0.0
C3292 C 0.75482 0.97456 0.3441 0.0
C3293 C 0.77095 0.99253 0.27056 0.0
C3294 C 0.75775 0.99312 0.25583 0.0
C3295 C 0.78505 0.99389 0.25519 0.0
C3296 C 0.79873 0.99196 0.26912 0.0
C3297 C 0.79469 0.97714 0.28476 0.0
C3298 C 0.8076 0.97546 0.29811 0.0
C3299 C 0.82462 0.98847 0.29579 0.0
C3300 C 0.82877 0.00316 0.28005 0.0
C3301 C 0.8159 0.00491 0.26668 0.0
H3302 H 0.83459 0.98715 0.30615 0.0
H3303 H 0.70487 0.99371 0.17336 0.0
H3304 H 0.01026 0.80726 0.36128 0.0
H3305 H 0.00394 0.80317 0.31049 0.0
H3306 H 0.00668 0.75686 0.31251 0.0
H3307 H 0.01374 0.76129 0.36327 0.0
H3308 H 0.02251 0.77428 0.2679 0.0
H3309 H 0.96771 0.75662 0.30809 0.0
H3310 H 0.94644 0.75872 0.33809 0.0
H3311 H 0.95488 0.80331 0.29201 0.0
H3312 H 0.97637 0.80161 0.26197 0.0
H3313 H 0.98345 0.7479 0.13001 0.0
H3314 H 0.98844 0.74903 0.18145 0.0
H3315 H 0.99727 0.80051 0.18391 0.0
H3316 H 0.99247 0.7996 0.13254 0.0
H3317 H 0.97417 0.77818 0.22605 0.0
H3318 H 0.03018 0.79569 0.18739 0.0
H3319 H 0.05066 0.79234 0.15727 0.0
H3320 H 0.03832 0.74576 0.20073 0.0
H3321 H 0.01757 0.74872 0.23086 0.0
C3322 C 0.00943 0.79615 0.35096 0.0
C3323 C 0.01243 0.78455 0.36626 0.0
C3324 C 0.00572 0.79378 0.32193 0.0
C3325 C 0.00451 0.77953 0.30777 0.0
C3326 C 0.0075 0.76792 0.32302 0.0
C3327 C 0.01151 0.77044 0.352 0.0
C3328 C 0.00064 0.77709 0.27688 0.0
C3329 C 0.01175 0.77482 0.25885 0.0
C3330 C 0.98673 0.77803 0.26496 0.0
C3331 C 0.97376 0.77906 0.28292 0.0
C3332 C 0.96512 0.76694 0.30448 0.0
C3333 C 0.95301 0.76805 0.32147 0.0
C3334 C 0.94934 0.78116 0.317 0.0
C3335 C 0.95774 0.79317 0.29547 0.0
C3336 C 0.96988 0.79213 0.27843 0.0
C3337 C 0.98648 0.75947 0.1415 0.0
C3338 C 0.98758 0.77367 0.12724 0.0
C3339 C 0.98936 0.76009 0.17081 0.0
C3340 C 0.99324 0.77486 0.18631 0.0
C3341 C 0.99426 0.78901 0.17221 0.0
C3342 C 0.99159 0.78848 0.14288 0.0
C3343 C 0.99613 0.77558 0.21734 0.0
C3344 C 0.98482 0.7775 0.23529 0.0
C3345 C 0.00968 0.77408 0.2292 0.0
C3346 C 0.02218 0.77233 0.21115 0.0
C3347 C 0.03172 0.78465 0.19034 0.0
C3348 C 0.0434 0.78284 0.17331 0.0
C3349 C 0.04575 0.76882 0.17702 0.0
C3350 C 0.03646 0.7566 0.19784 0.0
C3351 C 0.02475 0.75835 0.21491 0.0
H3352 H 0.05481 0.76744 0.16382 0.0
H3353 H 0.93996 0.782 0.33018 0.0
H3354 H 0.73914 0.76021 0.8606 0.0
H3355 H 0.73845 0.75521 0.80911 0.0
H3356 H 0.79193 0.79298 0.80336 0.0
H3357 H 0.79283 0.79799 0.85449 0.0
H3358 H 0.77035 0.79732 0.76409 0.0
H3359 H 0.78065 0.75259 0.80076 0.0
H3360 H 0.77304 0.72681 0.82917 0.0
H3361 H 0.72594 0.69906 0.78297 0.0
H3362 H 0.73318 0.72478 0.75455 0.0
H3363 H 0.80492 0.79232 0.63537 0.0
H3364 H 0.79728 0.7924 0.68504 0.0
H3365 H 0.7492 0.74607 0.67131 0.0
H3366 H 0.75719 0.74552 0.62158 0.0
H3367 H 0.76169 0.74382 0.71944 0.0
H3368 H 0.7517 0.78588 0.67873 0.0
H3369 H 0.75744 0.81099 0.64989 0.0
H3370 H 0.80046 0.84303 0.70287 0.0
H3371 H 0.79514 0.81808 0.7318 0.0
C3372 C 0.75077 0.76737 0.84837 0.0
C3373 C 0.76603 0.77954 0.8616 0.0
C3374 C 0.75034 0.76447 0.81903 0.0
C3375 C 0.76513 0.77377 0.80259 0.0
C3376 C 0.78038 0.78574 0.81577 0.0
C3377 C 0.78087 0.78853 0.84501 0.0
C3378 C 0.76485 0.77157 0.77142 0.0
C3379 C 0.76853 0.78567 0.75423 0.0
C3380 C 0.76164 0.75608 0.75869 0.0
C3381 C 0.75735 0.74066 0.7758 0.0
C3382 C 0.7686 0.74105 0.79686 0.0
C3383 C 0.76437 0.72643 0.81292 0.0
C3384 C 0.74899 0.71132 0.80795 0.0
C3385 C 0.73783 0.71079 0.78685 0.0
C3386 C 0.74199 0.72537 0.77075 0.0
C3387 C 0.79269 0.78218 0.64286 0.0
C3388 C 0.7816 0.76897 0.62458 0.0
C3389 C 0.78827 0.78229 0.67124 0.0
C3390 C 0.77247 0.76947 0.68177 0.0
C3391 C 0.76141 0.75615 0.66361 0.0
C3392 C 0.76597 0.75586 0.63524 0.0
C3393 C 0.76793 0.76986 0.71199 0.0
C3394 C 0.76323 0.75541 0.72906 0.0
C3395 C 0.76984 0.78496 0.7246 0.0
C3396 C 0.77306 0.80007 0.70736 0.0
C3397 C 0.76245 0.79826 0.68414 0.0
C3398 C 0.76562 0.81247 0.66778 0.0
C3399 C 0.77931 0.82859 0.67452 0.0
C3400 C 0.78985 0.83054 0.69768 0.0
C3401 C 0.78675 0.81637 0.7141 0.0
H3402 H 0.78175 0.83958 0.66182 0.0
H3403 H 0.74575 0.70002 0.8204 0.0
H3404 H 0.25936 0.01882 0.63241 0.0
H3405 H 0.26009 0.01453 0.68388 0.0
H3406 H 0.20875 0.00566 0.69163 0.0
H3407 H 0.20779 0.00969 0.64039 0.0
H3408 H 0.23333 0.0301 0.7311 0.0
H3409 H 0.21357 0.97295 0.69355 0.0
H3410 H 0.21622 0.952 0.66354 0.0
H3411 H 0.26334 0.96436 0.70512 0.0
H3412 H 0.26108 0.98557 0.73511 0.0
H3413 H 0.20061 0.99348 0.86332 0.0
H3414 H 0.20655 1.00036 0.81299 0.0
H3415 H 0.25149 0.99537 0.81949 0.0
H3416 H 0.24523 0.98782 0.86989 0.0
H3417 H 0.23518 0.98067 0.77304 0.0
H3418 H 0.25441 0.03518 0.81403 0.0
H3419 H 0.25344 0.05702 0.84414 0.0
H3420 H 0.2105 0.05176 0.79658 0.0
H3421 H 0.21104 0.02969 0.76642 0.0
C3422 C 0.24822 0.01591 0.64509 0.0
C3423 C 0.23351 0.01458 0.63238 0.0
C3424 C 0.24866 0.01344 0.67441 0.0
C3425 C 0.23447 0.0098 0.69138 0.0
C3426 C 0.21982 0.0085 0.67878 0.0
C3427 C 0.21928 0.01073 0.64951 0.0
C3428 C 0.2348 0.0075 0.72243 0.0
C3429 C 0.23363 0.01926 0.74038 0.0
C3430 C 0.23594 0.99375 0.73432 0.0
C3431 C 0.23727 0.98099 0.71631 0.0
C3432 C 0.22458 0.97132 0.69609 0.0
C3433 C 0.22599 0.95937 0.67913 0.0
C3434 C 0.23997 0.95689 0.68235 0.0
C3435 C 0.25254 0.96632 0.7026 0.0
C3436 C 0.25119 0.9783 0.71959 0.0
C3437 C 0.2118 0.99391 0.85411 0.0
C3438 C 0.22249 0.99018 0.8706 0.0
C3439 C 0.21525 0.99795 0.82534 0.0
C3440 C 0.22967 0.99874 0.81258 0.0
C3441 C 0.24034 0.99492 0.82894 0.0
C3442 C 0.23676 0.99063 0.85771 0.0
C3443 C 0.23317 0.00301 0.78194 0.0
C3444 C 0.23513 0.99168 0.76398 0.0
C3445 C 0.23307 0.01736 0.77004 0.0
C3446 C 0.23271 0.03068 0.78807 0.0
C3447 C 0.24468 0.03859 0.8101 0.0
C3448 C 0.24422 0.05102 0.82717 0.0
C3449 C 0.2319 0.05575 0.8223 0.0
C3450 C 0.22003 0.04808 0.80032 0.0
C3451 C 0.22043 0.03562 0.78321 0.0
H3452 H 0.23156 0.06538 0.83554 0.0
H3453 H 0.24104 0.94763 0.66921 0.0
H3454 H 0.98828 0.19798 0.63957 0.0
H3455 H 0.99232 0.2034 0.69073 0.0
H3456 H 0.98499 0.24674 0.68122 0.0
H3457 H 0.98061 0.24125 0.6298 0.0
H3458 H 0.01501 0.25165 0.71552 0.0
H3459 H 0.95421 0.21597 0.70817 0.0
H3460 H 0.92756 0.19094 0.69162 0.0
H3461 H 0.94135 0.15749 0.73402 0.0
H3462 H 0.96824 0.18232 0.75046 0.0
H3463 H 0.01583 0.25872 0.86719 0.0
H3464 H 0.00796 0.25788 0.81708 0.0
H3465 H 0.99885 0.20636 0.81029 0.0
H3466 H 0.00609 0.20689 0.86039 0.0
H3467 H 0.97475 0.20842 0.784 0.0
H3468 H 0.03637 0.24235 0.78576 0.0
H3469 H 0.06423 0.26639 0.8007 0.0
H3470 H 0.05025 0.30203 0.76777 0.0
H3471 H 0.02222 0.27818 0.75294 0.0
C3472 C 0.98756 0.2087 0.64829 0.0
C3473 C 0.9841 0.21918 0.6307 0.0
C3474 C 0.98981 0.21173 0.6775 0.0
C3475 C 0.98884 0.22539 0.68959 0.0
C3476 C 0.98573 0.23611 0.67213 0.0
C3477 C 0.98318 0.23292 0.64288 0.0
C3478 C 0.9911 0.22826 0.72059 0.0
C3479 C 0.00607 0.24244 0.73064 0.0
C3480 C 0.97955 0.21599 0.74001 0.0
C3481 C 0.96331 0.20101 0.73037 0.0
C3482 C 0.95164 0.20327 0.71378 0.0
C3483 C 0.93647 0.18912 0.70444 0.0
C3484 C 0.93278 0.17263 0.71171 0.0
C3485 C 0.94423 0.17027 0.72839 0.0
C3486 C 0.95943 0.18438 0.73775 0.0
C3487 C 0.01212 0.24721 0.85499 0.0
C3488 C 0.01164 0.23289 0.8677 0.0
C3489 C 0.00768 0.24677 0.82635 0.0
C3490 C 0.00301 0.23213 0.80984 0.0
C3491 C 0.00236 0.21778 0.82262 0.0
C3492 C 0.00656 0.21813 0.85126 0.0
C3493 C 0.99896 0.23162 0.77913 0.0
C3494 C 0.9836 0.21785 0.76906 0.0
C3495 C 0.01029 0.24416 0.75967 0.0
C3496 C 0.02713 0.2585 0.76857 0.0
C3497 C 0.03919 0.25532 0.78192 0.0
C3498 C 0.05502 0.26891 0.79032 0.0
C3499 C 0.05899 0.28573 0.78528 0.0
C3500 C 0.04715 0.289 0.77173 0.0
C3501 C 0.03129 0.27545 0.76331 0.0
H3502 H 0.07125 0.29623 0.7918 0.0
H3503 H 0.92103 0.16169 0.70446 0.0
H3504 H 0.92922 0.57038 0.46374 0.0
H3505 H 0.93102 0.5776 0.51438 0.0
H3506 H 0.87622 0.55493 0.5177 0.0
H3507 H 0.8743 0.54792 0.46729 0.0
H3508 H 0.8915 0.58374 0.54844 0.0
H3509 H 0.89547 0.53241 0.53751 0.0
H3510 H 0.9083 0.51578 0.51926 0.0
H3511 H 0.95589 0.55058 0.55954 0.0
H3512 H 0.94336 0.56754 0.57773 0.0
H3513 H 0.87823 0.54095 0.69356 0.0
H3514 H 0.88536 0.54281 0.64313 0.0
H3515 H 0.91143 0.59782 0.64779 0.0
H3516 H 0.90414 0.59611 0.69835 0.0
H3517 H 0.91463 0.5568 0.61317 0.0
H3518 H 0.90324 0.61209 0.58484 0.0
H3519 H 0.88757 0.626 0.60296 0.0
H3520 H 0.85018 0.57879 0.64124 0.0
H3521 H 0.86552 0.56457 0.62304 0.0
C3522 C 0.91757 0.5671 0.47519 0.0
C3523 C 0.90159 0.55841 0.46154 0.0
C3524 C 0.91864 0.57123 0.50411 0.0
C3525 C 0.90374 0.56665 0.51981 0.0
C3526 C 0.88788 0.55861 0.50596 0.0
C3527 C 0.88679 0.55451 0.47713 0.0
C3528 C 0.90433 0.56912 0.55104 0.0
C3529 C 0.89677 0.57806 0.5626 0.0
C3530 C 0.91105 0.56156 0.56949 0.0
C3531 C 0.91855 0.55134 0.55867 0.0
C3532 C 0.9087 0.53658 0.54228 0.0
C3533 C 0.91591 0.52708 0.53199 0.0
C3534 C 0.93292 0.53215 0.53816 0.0
C3535 C 0.94273 0.54669 0.55472 0.0
C3536 C 0.93558 0.55625 0.56503 0.0
C3537 C 0.88557 0.55346 0.68398 0.0
C3538 C 0.89046 0.56837 0.69992 0.0
C3539 C 0.88973 0.55451 0.65517 0.0
C3540 C 0.8988 0.57045 0.64171 0.0
C3541 C 0.90426 0.5854 0.65775 0.0
C3542 C 0.90008 0.58437 0.68662 0.0
C3543 C 0.90155 0.57119 0.61056 0.0
C3544 C 0.90977 0.56288 0.59902 0.0
C3545 C 0.8951 0.57901 0.59212 0.0
C3546 C 0.88565 0.58735 0.6029 0.0
C3547 C 0.89166 0.60469 0.59708 0.0
C3548 C 0.88284 0.61262 0.60736 0.0
C3549 C 0.86793 0.6033 0.62334 0.0
C3550 C 0.86177 0.58601 0.62896 0.0
C3551 C 0.87053 0.57801 0.6187 0.0
H3552 H 0.86113 0.60947 0.6313 0.0
H3553 H 0.93848 0.52478 0.53017 0.0
H3554 H 0.47195 0.34206 0.4753 0.0
H3555 H 0.46596 0.33372 0.52515 0.0
H3556 H 0.41815 0.33338 0.51886 0.0
H3557 H 0.42439 0.34238 0.46903 0.0
H3558 H 0.43336 0.34823 0.56589 0.0
H3559 H 0.41991 0.29572 0.52169 0.0
H3560 H 0.42414 0.27622 0.49044 0.0
H3561 H 0.46788 0.28505 0.53955 0.0
H3562 H 0.46408 0.30482 0.57086 0.0
H3563 H 0.40936 0.30844 0.70386 0.0
H3564 H 0.40925 0.31273 0.65234 0.0
H3565 H 0.4616 0.32428 0.64732 0.0
H3566 H 0.4619 0.32014 0.69866 0.0
H3567 H 0.43985 0.3009 0.60549 0.0
H3568 H 0.454 0.35591 0.6462 0.0
H3569 H 0.44874 0.37486 0.67712 0.0
H3570 H 0.40141 0.35958 0.63382 0.0
H3571 H 0.40629 0.34036 0.60287 0.0
C3572 C 0.46012 0.34015 0.48446 0.0
C3573 C 0.44861 0.34283 0.46823 0.0
C3574 C 0.45665 0.33527 0.51294 0.0
C3575 C 0.44144 0.33258 0.5256 0.0
C3576 C 0.42993 0.3353 0.50948 0.0
C3577 C 0.43351 0.34044 0.48103 0.0
C3578 C 0.43795 0.32758 0.55598 0.0
C3579 C 0.43442 0.33765 0.57442 0.0
C3580 C 0.43948 0.31385 0.56719 0.0
C3581 C 0.44176 0.30185 0.54854 0.0
C3582 C 0.4305 0.29359 0.52573 0.0
C3583 C 0.43281 0.28248 0.50801 0.0
C3584 C 0.44628 0.27942 0.51299 0.0
C3585 C 0.45745 0.28744 0.53572 0.0
C3586 C 0.45521 0.29859 0.55349 0.0
C3587 C 0.42084 0.31189 0.69178 0.0
C3588 C 0.43566 0.314 0.70534 0.0
C3589 C 0.42075 0.31435 0.66241 0.0
C3590 C 0.43543 0.31884 0.64617 0.0
C3591 C 0.45015 0.32077 0.65956 0.0
C3592 C 0.45031 0.31849 0.6889 0.0
C3593 C 0.43565 0.32178 0.6152 0.0
C3594 C 0.43854 0.31129 0.59674 0.0
C3595 C 0.4333 0.33495 0.60392 0.0
C3596 C 0.43041 0.34655 0.62246 0.0
C3597 C 0.4424 0.35648 0.64344 0.0
C3598 C 0.4395 0.36729 0.66094 0.0
C3599 C 0.42472 0.36838 0.6575 0.0
C3600 C 0.41283 0.3587 0.6365 0.0
C3601 C 0.41566 0.34785 0.61896 0.0
H3602 H 0.42251 0.37677 0.67106 0.0
H3603 H 0.44803 0.27079 0.49928 0.0
H3604 H 0.68047 0.09369 0.69834 0.0
H3605 H 0.6732 0.08878 0.64773 0.0
H3606 H 0.67221 0.13599 0.64366 0.0
H3607 H 0.67871 0.14056 0.69441 0.0
H3608 H 0.64675 0.11304 0.61532 0.0
H3609 H 0.70676 0.13157 0.61852 0.0
H3610 H 0.73241 0.13073 0.63397 0.0
H3611 H 0.71155 0.08007 0.59994 0.0
H3612 H 0.68567 0.08054 0.58459 0.0
H3613 H 0.65699 0.1294 0.46729 0.0
H3614 H 0.66253 0.13068 0.51841 0.0
H3615 H 0.65228 0.07869 0.5168 0.0
H3616 H 0.64661 0.07721 0.46556 0.0
H3617 H 0.68215 0.10178 0.54766 0.0
H3618 H 0.62265 0.08494 0.54177 0.0
H3619 H 0.59808 0.08735 0.52513 0.0
H3620 H 0.61949 0.13702 0.56338 0.0
H3621 H 0.64433 0.13501 0.5799 0.0
C3622 C 0.67868 0.103 0.68661 0.0
C3623 C 0.6802 0.11753 0.70027 0.0
C3624 C 0.67461 0.10023 0.65768 0.0
C3625 C 0.67242 0.11216 0.64177 0.0
C3626 C 0.67382 0.1266 0.65549 0.0
C3627 C 0.67757 0.12921 0.68449 0.0
C3628 C 0.66862 0.10967 0.61084 0.0
C3629 C 0.65462 0.11077 0.60054 0.0
C3630 C 0.67864 0.1063 0.59157 0.0
C3631 C 0.69421 0.10602 0.60069 0.0
C3632 C 0.7076 0.12021 0.61451 0.0
C3633 C 0.72218 0.1198 0.62322 0.0
C3634 C 0.72358 0.10534 0.61801 0.0
C3635 C 0.71043 0.09126 0.604 0.0
C3636 C 0.69581 0.09159 0.59528 0.0
C3637 C 0.65595 0.11824 0.47775 0.0
C3638 C 0.65129 0.10317 0.4624 0.0
C3639 C 0.65907 0.11899 0.50695 0.0
C3640 C 0.65766 0.10473 0.52129 0.0
C3641 C 0.65338 0.0898 0.50601 0.0
C3642 C 0.6501 0.08897 0.47681 0.0
C3643 C 0.66052 0.10546 0.55234 0.0
C3644 C 0.67428 0.10398 0.56259 0.0
C3645 C 0.65044 0.10871 0.57153 0.0
C3646 C 0.63542 0.10987 0.56187 0.0
C3647 C 0.62219 0.09643 0.54645 0.0
C3648 C 0.6082 0.09772 0.53707 0.0
C3649 C 0.60724 0.11235 0.54314 0.0
C3650 C 0.62025 0.1257 0.55867 0.0
C3651 C 0.63428 0.12448 0.56808 0.0
H3652 H 0.5964 0.11332 0.53585 0.0
H3653 H 0.73488 0.10505 0.62477 0.0
H3654 H 0.40669 0.09801 0.19538 0.0
H3655 H 0.40704 0.09297 0.14412 0.0
H3656 H 0.46065 0.13064 0.14096 0.0
H3657 H 0.46049 0.13571 0.19196 0.0
H3658 H 0.44064 0.13444 0.09846 0.0
H3659 H 0.44908 0.08993 0.14093 0.0
H3660 H 0.44067 0.0647 0.17134 0.0
H3661 H 0.39427 0.03645 0.12352 0.0
H3662 H 0.40231 0.06161 0.09308 0.0
H3663 H 0.47443 0.12498 0.97131 0.0
H3664 H 0.46741 0.12666 0.02085 0.0
H3665 H 0.41859 0.08072 0.01025 0.0
H3666 H 0.42594 0.07855 0.96077 0.0
H3667 H 0.43109 0.07947 0.05876 0.0
H3668 H 0.4227 0.12148 0.01318 0.0
H3669 H 0.42911 0.1462 0.9827 0.0
H3670 H 0.47212 0.17858 0.03542 0.0
H3671 H 0.46615 0.15401 0.06598 0.0
C3672 C 0.41855 0.10521 0.18376 0.0
C3673 C 0.43357 0.11726 0.19772 0.0
C3674 C 0.41872 0.10228 0.15454 0.0
C3675 C 0.43388 0.11143 0.13891 0.0
C3676 C 0.44883 0.12349 0.15274 0.0
C3677 C 0.44872 0.12632 0.18189 0.0
C3678 C 0.43434 0.10867 0.10801 0.0
C3679 C 0.43866 0.12248 0.08969 0.0
C3680 C 0.43098 0.0928 0.09665 0.0
C3681 C 0.42619 0.07771 0.11497 0.0
C3682 C 0.43701 0.07839 0.13708 0.0
C3683 C 0.43233 0.06409 0.15428 0.0
C3684 C 0.41692 0.049 0.14943 0.0
C3685 C 0.40618 0.04816 0.12731 0.0
C3686 C 0.4108 0.06243 0.11007 0.0
C3687 C 0.46219 0.11524 0.97951 0.0
C3688 C 0.45069 0.10168 0.96217 0.0
C3689 C 0.45813 0.11627 0.00779 0.0
C3690 C 0.44228 0.10405 0.0191 0.0
C3691 C 0.43085 0.09035 0.00193 0.0
C3692 C 0.43505 0.08912 0.9737 0.0
C3693 C 0.43798 0.10548 0.04908 0.0
C3694 C 0.43285 0.09141 0.06728 0.0
C3695 C 0.44027 0.12104 0.06029 0.0
C3696 C 0.44402 0.13586 0.04181 0.0
C3697 C 0.43361 0.13384 0.01816 0.0
C3698 C 0.43715 0.14783 0.00088 0.0
C3699 C 0.45101 0.16394 0.00714 0.0
C3700 C 0.46138 0.16609 0.03062 0.0
C3701 C 0.45791 0.15214 0.04795 0.0
H3702 H 0.45366 0.17477 0.99386 0.0
H3703 H 0.41332 0.03794 0.16276 0.0
H3704 H 0.90416 0.31706 0.19963 0.0
H3705 H 0.90954 0.32176 0.14831 0.0
H3706 H 0.86456 0.32636 0.13899 0.0
H3707 H 0.85923 0.32199 0.19021 0.0
H3708 H 0.86787 0.30316 0.09933 0.0
H3709 H 0.8997 0.3608 0.13771 0.0
H3710 H 0.92134 0.38309 0.16886 0.0
H3711 H 0.96042 0.37583 0.13071 0.0
H3712 H 0.93894 0.35331 0.0996 0.0
H3713 H 0.87163 0.33884 0.9659 0.0
H3714 H 0.86991 0.33186 0.01629 0.0
H3715 H 0.92178 0.34164 0.01428 0.0
H3716 H 0.9238 0.34924 0.96379 0.0
H3717 H 0.91725 0.35546 0.05975 0.0
H3718 H 0.88728 0.30042 0.01805 0.0
H3719 H 0.86651 0.27758 0.98669 0.0
H3720 H 0.82518 0.27821 0.03066 0.0
H3721 H 0.84571 0.30125 0.06201 0.0
C3722 C 0.89545 0.31912 0.18664 0.0
C3723 C 0.88128 0.31918 0.19891 0.0
C3724 C 0.89855 0.32181 0.15741 0.0
C3725 C 0.88742 0.32437 0.14004 0.0
C3726 C 0.87325 0.32436 0.15216 0.0
C3727 C 0.87029 0.32195 0.1814 0.0
C3728 C 0.89044 0.32704 0.1091 0.0
C3729 C 0.87858 0.31462 0.09056 0.0
C3730 C 0.9048 0.34169 0.09792 0.0
C3731 C 0.91769 0.35522 0.1166 0.0
C3732 C 0.91288 0.36383 0.13617 0.0
C3733 C 0.92512 0.37654 0.15377 0.0
C3734 C 0.94223 0.38083 0.15183 0.0
C3735 C 0.94715 0.37246 0.13223 0.0
C3736 C 0.93495 0.35974 0.1146 0.0
C3737 C 0.88266 0.33943 0.97608 0.0
C3738 C 0.89784 0.34454 0.96083 0.0
C3739 C 0.88163 0.33533 0.00489 0.0
C3740 C 0.89561 0.33591 0.01895 0.0
C3741 C 0.91081 0.34104 0.00382 0.0
C3742 C 0.91193 0.34535 0.97498 0.0
C3743 C 0.89442 0.33175 0.0497 0.0
C3744 C 0.90663 0.34385 0.06831 0.0
C3745 C 0.88051 0.31664 0.06094 0.0
C3746 C 0.86807 0.30267 0.04228 0.0
C3747 C 0.87377 0.29577 0.02092 0.0
C3748 C 0.86203 0.28278 0.00316 0.0
C3749 C 0.84454 0.27647 0.00665 0.0
C3750 C 0.83874 0.28312 0.02797 0.0
C3751 C 0.85042 0.29613 0.04577 0.0
H3752 H 0.83548 0.26642 0.99285 0.0
H3753 H 0.95169 0.39067 0.16547 0.0
H3754 H 0.69882 0.59249 0.18553 0.0
H3755 H 0.69282 0.5917 0.13456 0.0
H3756 H 0.64599 0.54377 0.14592 0.0
H3757 H 0.65221 0.54419 0.19654 0.0
H3758 H 0.66256 0.5408 0.10464 0.0
H3759 H 0.64668 0.58202 0.13016 0.0
H3760 H 0.64968 0.60838 0.15122 0.0
H3761 H 0.6926 0.63866 0.09688 0.0
H3762 H 0.69 0.61247 0.07573 0.0
H3763 H 0.63475 0.56195 0.96165 0.0
H3764 H 0.63977 0.56706 0.01273 0.0
H3765 H 0.67986 0.55444 0.00806 0.0
H3766 H 0.67455 0.54876 0.9571 0.0
H3767 H 0.66512 0.58767 0.04601 0.0
H3768 H 0.679 0.53246 0.06599 0.0
H3769 H 0.67173 0.50455 0.04519 0.0
H3770 H 0.62546 0.49954 0.0106 0.0
H3771 H 0.63235 0.52729 0.03151 0.0
C3772 C 0.68715 0.5819 0.17717 0.0
C3773 C 0.67607 0.56832 0.19492 0.0
C3774 C 0.68369 0.58151 0.14808 0.0
C3775 C 0.66892 0.56769 0.13642 0.0
C3776 C 0.65752 0.5545 0.15441 0.0
C3777 C 0.66109 0.55475 0.18333 0.0
C3778 C 0.66601 0.5662 0.10523 0.0
C3779 C 0.66309 0.55107 0.0919 0.0
C3780 C 0.66648 0.57948 0.08858 0.0
C3781 C 0.66825 0.59527 0.10156 0.0
C3782 C 0.65687 0.5943 0.1229 0.0
C3783 C 0.65847 0.60921 0.1348 0.0
C3784 C 0.67135 0.62518 0.12545 0.0
C3785 C 0.68264 0.62627 0.10414 0.0
C3786 C 0.6811 0.6114 0.09216 0.0
C3787 C 0.64471 0.56036 0.97145 0.0
C3788 C 0.6541 0.55472 0.95543 0.0
C3789 C 0.64761 0.56336 0.00063 0.0
C3790 C 0.65999 0.56087 0.01426 0.0
C3791 C 0.66998 0.55609 -0.00195 0.0
C3792 C 0.66695 0.55287 0.96894 0.0
C3793 C 0.66182 0.56236 0.04563 0.0
C3794 C 0.6646 0.57746 0.0589 0.0
C3795 C 0.66066 0.54884 0.06245 0.0
C3796 C 0.6563 0.53203 0.05007 0.0
C3797 C 0.66725 0.52536 0.05403 0.0
C3798 C 0.6632 0.50958 0.04221 0.0
C3799 C 0.64817 0.50031 0.0265 0.0
C3800 C 0.63713 0.50676 0.02268 0.0
C3801 C 0.64111 0.52253 0.03449 0.0
H3802 H 0.64507 0.4881 0.01735 0.0
H3803 H 0.67256 0.63671 0.13468 0.0
H3804 H 0.55089 0.87292 0.03633 0.0
H3805 H 0.55685 0.87233 0.98579 0.0
H3806 H 0.56858 0.92465 0.97733 0.0
H3807 H 0.56321 0.9255 0.02816 0.0
H3808 H 0.54065 0.87452 0.94309 0.0
H3809 H 0.5958 0.94396 0.9218 0.0
H3810 H 0.62125 0.96659 0.94622 0.0
H3811 H 0.62361 0.92896 -0.00121 0.0
H3812 H 0.59834 0.90609 0.97442 0.0
H3813 H 0.54338 0.88886 0.79663 0.0
H3814 H 0.54332 0.89315 0.84799 0.0
H3815 H 0.59248 0.89641 0.85494 0.0
H3816 H 0.59293 0.89284 0.80339 0.0
H3817 H 0.59139 0.91797 0.89023 0.0
H3818 H 0.5548 0.85879 0.86927 0.0
H3819 H 0.5313 0.83385 0.84521 0.0
H3820 H 0.49516 0.84686 0.87915 0.0
H3821 H 0.51849 0.87203 0.90311 0.0
C3822 C 0.55491 0.88436 0.02377 0.0
C3823 C 0.55651 0.89924 0.03617 0.0
C3824 C 0.55831 0.884 0.99489 0.0
C3825 C 0.56322 0.89846 0.97777 0.0
C3826 C 0.56511 0.91344 0.9902 0.0
C3827 C 0.56194 0.91388 0.01923 0.0
C3828 C 0.56522 0.89742 0.94662 0.0
C3829 C 0.55178 0.88402 0.9316 0.0
C3830 C 0.57985 0.90965 0.93162 0.0
C3831 C 0.59505 0.92333 0.94647 0.0
C3832 C 0.60177 0.94051 0.93852 0.0
C3833 C 0.61617 0.95338 0.95236 0.0
C3834 C 0.62401 0.94922 0.97411 0.0
C3835 C 0.61749 0.93218 0.98203 0.0
C3836 C 0.6031 0.91925 0.96824 0.0
C3837 C 0.55424 0.89066 0.80908 0.0
C3838 C 0.56807 0.89034 0.79608 0.0
C3839 C 0.55418 0.89305 0.83842 0.0
C3840 C 0.56772 0.89471 0.85538 0.0
C3841 C 0.58187 0.8951 0.84228 0.0
C3842 C 0.58209 0.89302 0.81284 0.0
C3843 C 0.56675 0.8952 0.88684 0.0
C3844 C 0.58031 0.9085 0.90184 0.0
C3845 C 0.55249 0.88255 0.90202 0.0
C3846 C 0.53841 0.86737 0.88777 0.0
C3847 C 0.54185 0.85639 0.87145 0.0
C3848 C 0.52856 0.84221 0.85785 0.0
C3849 C 0.51175 0.83879 0.8606 0.0
C3850 C 0.50819 0.84953 0.87701 0.0
C3851 C 0.52144 0.86375 0.89063 0.0
H3852 H 0.50148 0.82781 0.85005 0.0
H3853 H 0.63516 0.95921 0.98478 0.0
H3854 H 0.13024 0.65456 0.02381 0.0
H3855 H 0.13088 0.66153 0.97354 0.0
H3856 H 0.08176 0.65825 0.98198 0.0
H3857 H 0.08072 0.65048 0.03223 0.0
H3858 H 0.08242 0.64398 0.9347 0.0
H3859 H 0.11998 0.69756 0.97758 0.0
H3860 H 0.14368 0.7182 0.00774 0.0
H3861 H 0.17943 0.71148 0.95706 0.0
H3862 H 0.15591 0.69061 0.92681 0.0
H3863 H 0.09541 0.68605 0.79807 0.0
H3864 H 0.091 0.67992 0.84923 0.0
H3865 H 0.13296 0.67 0.85062 0.0
H3866 H 0.13738 0.67591 0.79966 0.0
H3867 H 0.13418 0.69314 0.89332 0.0
H3868 H 0.09474 0.6376 0.85274 0.0
H3869 H 0.07039 0.61798 0.82265 0.0
H3870 H 0.03734 0.63053 0.86952 0.0
H3871 H 0.06157 0.65042 0.89965 0.0
C3872 C 0.11959 0.65535 0.01499 0.0
C3873 C 0.10548 0.65208 0.03196 0.0
C3874 C 0.12 0.65944 0.98627 0.0
C3875 C 0.10655 0.66081 0.97412 0.0
C3876 C 0.09233 0.65735 0.99095 0.0
C3877 C 0.09176 0.65294 0.01962 0.0
C3878 C 0.1073 0.66556 0.94371 0.0
C3879 C 0.09361 0.65493 0.92578 0.0
C3880 C 0.12193 0.6798 0.93198 0.0
C3881 C 0.13615 0.69242 0.95004 0.0
C3882 C 0.13288 0.70039 0.97297 0.0
C3883 C 0.14629 0.71215 0.99007 0.0
C3884 C 0.16305 0.71613 0.98435 0.0
C3885 C 0.16644 0.70838 0.96147 0.0
C3886 C 0.15308 0.6966 0.94432 0.0
C3887 C 0.10364 0.68248 0.80926 0.0
C3888 C 0.11675 0.68147 0.79485 0.0
C3889 C 0.10108 0.67896 0.83841 0.0
C3890 C 0.11167 0.67453 0.85354 0.0
C3891 C 0.12469 0.67344 0.83922 0.0
C3892 C 0.12714 0.67676 0.8101 0.0
C3893 C 0.10953 0.67134 0.88449 0.0
C3894 C 0.12294 0.68233 0.90245 0.0
C3895 C 0.09455 0.65764 0.89627 0.0
C3896 C 0.08 0.64564 0.87822 0.0
C3897 C 0.08231 0.6363 0.85646 0.0
C3898 C 0.06853 0.6251 0.83943 0.0
C3899 C 0.05234 0.62305 0.84411 0.0
C3900 C 0.0499 0.63215 0.86588 0.0
C3901 C 0.06364 0.64338 0.88295 0.0
H3902 H 0.04168 0.61437 0.83091 0.0
H3903 H 0.17341 0.72523 0.99762 0.0
H3904 H 0.33364 0.45743 0.02823 0.0
H3905 H 0.32613 0.45069 0.97817 0.0
H3906 H 0.3556 0.42516 0.97445 0.0
H3907 H 0.3634 0.43202 0.0246 0.0
H3908 H 0.36253 0.44641 0.93009 0.0
H3909 H 0.31259 0.40184 0.97423 0.0
H3910 H 0.28831 0.38936 0.00767 0.0
H3911 H 0.2677 0.41803 0.96829 0.0
H3912 H 0.29199 0.43087 0.93484 0.0
H3913 H 0.30241 0.40461 0.79875 0.0
H3914 H 0.30916 0.40406 0.84911 0.0
H3915 H 0.3401 0.45901 0.84919 0.0
H3916 H 0.33361 0.45972 0.79897 0.0
H3917 H 0.30272 0.41803 0.89517 0.0
H3918 H 0.37415 0.47094 0.89209 0.0
H3919 H 0.39848 0.48224 0.85876 0.0
H3920 H 0.37609 0.43376 0.81612 0.0
H3921 H 0.35174 0.4221 0.84943 0.0
C3922 C 0.33849 0.45033 0.01687 0.0
C3923 C 0.34914 0.44529 0.03042 0.0
C3924 C 0.3341 0.44639 0.98827 0.0
C3925 C 0.34016 0.43727 0.97272 0.0
C3926 C 0.35076 0.43217 0.98614 0.0
C3927 C 0.35516 0.43609 0.01479 0.0
C3928 C 0.33599 0.43372 0.94212 0.0
C3929 C 0.34946 0.4401 0.92244 0.0
C3930 C 0.31891 0.42522 0.93223 0.0
C3931 C 0.30418 0.4174 0.95213 0.0
C3932 C 0.30294 0.40557 0.97281 0.0
C3933 C 0.28916 0.39842 0.99175 0.0
C3934 C 0.27648 0.40292 0.99013 0.0
C3935 C 0.27753 0.41455 0.96951 0.0
C3936 C 0.29129 0.42175 0.95052 0.0
C3937 C 0.3107 0.41659 0.80947 0.0
C3938 C 0.31752 0.43222 0.79482 0.0
C3939 C 0.3145 0.41622 0.83823 0.0
C3940 C 0.32527 0.43146 0.85272 0.0
C3941 C 0.33197 0.44708 0.83823 0.0
C3942 C 0.32819 0.44747 0.80955 0.0
C3943 C 0.32928 0.43119 0.88319 0.0
C3944 C 0.31578 0.42413 0.90283 0.0
C3945 C 0.34633 0.43887 0.89305 0.0
C3946 C 0.36105 0.44569 0.87315 0.0
C3947 C 0.37446 0.46267 0.8757 0.0
C3948 C 0.38824 0.46914 0.85679 0.0
C3949 C 0.38881 0.45874 0.83529 0.0
C3950 C 0.37561 0.44182 0.83272 0.0
C3951 C 0.3618 0.43528 0.85159 0.0
H3952 H 0.39949 0.46378 0.82066 0.0
H3953 H 0.26584 0.39738 0.00484 0.0
H3954 H 0.0853 0.43008 0.53376 0.0
H3955 H 0.0876 0.42527 0.48292 0.0
H3956 H 0.13269 0.475 0.4766 0.0
H3957 H 0.13076 0.47978 0.52745 0.0
H3958 H 0.1052 0.46623 0.43393 0.0
H3959 H 0.14024 0.44567 0.47662 0.0
H3960 H 0.14589 0.42794 0.50984 0.0
H3961 H 0.10528 0.38247 0.472 0.0
H3962 H 0.09921 0.39995 0.43883 0.0
H3963 H 0.14018 0.46599 0.3005 0.0
H3964 H 0.13535 0.46811 0.35103 0.0
H3965 H 0.09904 0.41407 0.35366 0.0
H3966 H 0.10406 0.41174 0.30306 0.0
H3967 H 0.11986 0.4234 0.39853 0.0
H3968 H 0.08546 0.44305 0.35419 0.0
H3969 H 0.07866 0.46013 0.32139 0.0
H3970 H 0.11616 0.50625 0.36236 0.0
H3971 H 0.12336 0.48946 0.39517 0.0
C3972 C 0.09572 0.43996 0.52153 0.0
C3973 C 0.10787 0.4553 0.53451 0.0
C3974 C 0.09702 0.43718 0.4926 0.0
C3975 C 0.11031 0.4498 0.47623 0.0
C3976 C 0.12236 0.46515 0.48903 0.0
C3977 C 0.12127 0.46781 0.51803 0.0
C3978 C 0.1116 0.44709 0.44558 0.0
C3979 C 0.10857 0.457 0.42609 0.0
C3980 C 0.11545 0.43465 0.43564 0.0
C3981 C 0.11912 0.42412 0.45549 0.0
C3982 C 0.13239 0.43189 0.47558 0.0
C3983 C 0.1357 0.42189 0.49436 0.0
C3984 C 0.12591 0.40409 0.49309 0.0
C3985 C 0.11283 0.39626 0.47299 0.0
C3986 C 0.10945 0.40621 0.45419 0.0
C3987 C 0.13113 0.45454 0.31175 0.0
C3988 C 0.12246 0.4387 0.29771 0.0
C3989 C 0.12833 0.45579 0.34063 0.0
C3990 C 0.11666 0.44129 0.35599 0.0
C3991 C 0.10807 0.42542 0.34215 0.0
C3992 C 0.11092 0.42413 0.31323 0.0
C3993 C 0.1137 0.44273 0.38663 0.0
C3994 C 0.11637 0.43256 0.40622 0.0
C3995 C 0.10934 0.45484 0.39667 0.0
C3996 C 0.10505 0.465 0.37699 0.0
C3997 C 0.09235 0.45685 0.35607 0.0
C3998 C 0.08841 0.46647 0.3375 0.0
C3999 C 0.097 0.48426 0.33975 0.0
C4000 C 0.10953 0.49246 0.36062 0.0
C4001 C 0.11353 0.4829 0.37923 0.0
H4002 H 0.09393 0.49169 0.32536 0.0
H4003 H 0.1285 0.39637 0.50764 0.0
H4004 H 0.53887 0.67513 0.30374 0.0
H4005 H 0.53847 0.67097 0.35517 0.0
H4006 H 0.59045 0.68127 0.35225 0.0
H4007 H 0.59109 0.68567 0.30061 0.0
H4008 H 0.5666 0.65169 0.38625 0.0
H4009 H 0.58638 0.7115 0.37502 0.0
H4010 H 0.58554 0.73645 0.35581 0.0
H4011 H 0.53638 0.71874 0.39415 0.0
H4012 H 0.53681 0.69353 0.41323 0.0
H4013 H 0.57196 0.65565 0.53788 0.0
H4014 H 0.5786 0.66238 0.48738 0.0
H4015 H 0.53287 0.66565 0.47718 0.0
H4016 H 0.52652 0.65959 0.52769 0.0
H4017 H 0.55764 0.69045 0.4497 0.0
H4018 H 0.53584 0.62969 0.45663 0.0
H4019 H 0.53503 0.60365 0.47457 0.0
H4020 H 0.58593 0.62179 0.44354 0.0
H4021 H 0.58712 0.64804 0.42572 0.0
C4022 C 0.5502 0.67641 0.31395 0.0
C4023 C 0.56505 0.68081 0.29815 0.0
C4024 C 0.54996 0.67408 0.34332 0.0
C4025 C 0.56448 0.67596 0.35737 0.0
C4026 C 0.57916 0.67982 0.34166 0.0
C4027 C 0.5795 0.68237 0.31225 0.0
C4028 C 0.56428 0.67422 0.38862 0.0
C4029 C 0.56496 0.66031 0.40028 0.0
C4030 C 0.56181 0.68533 0.40661 0.0
C4031 C 0.56157 0.70055 0.39536 0.0
C4032 C 0.57533 0.71285 0.37916 0.0
C4033 C 0.57494 0.72706 0.36833 0.0
C4034 C 0.5609 0.72916 0.37371 0.0
C4035 C 0.54724 0.71709 0.38999 0.0
C4036 C 0.54756 0.70285 0.40084 0.0
C4037 C 0.56335 0.65785 0.52485 0.0
C4038 C 0.54868 0.65704 0.53671 0.0
C4039 C 0.56713 0.66162 0.49599 0.0
C4040 C 0.5561 0.66427 0.47841 0.0
C4041 C 0.54157 0.66367 0.49034 0.0
C4042 C 0.53794 0.66016 0.51921 0.0
C4043 C 0.5595 0.66761 0.44752 0.0
C4044 C 0.55948 0.68189 0.43585 0.0
C4045 C 0.56235 0.6567 0.42951 0.0
C4046 C 0.56164 0.64091 0.44015 0.0
C4047 C 0.54691 0.62818 0.45383 0.0
C4048 C 0.54637 0.61338 0.46394 0.0
C4049 C 0.56044 0.61109 0.46028 0.0
C4050 C 0.57506 0.62359 0.44641 0.0
C4051 C 0.57566 0.63843 0.43629 0.0
H4052 H 0.56 0.59962 0.46812 0.0
H4053 H 0.56062 0.74017 0.3653 0.0
H4054 H 0.31497 0.90347 0.29657 0.0
H4055 H 0.31926 0.90766 0.34814 0.0
H4056 H 0.3284 0.86526 0.35311 0.0
H4057 H 0.32436 0.86108 0.30167 0.0
H4058 H 0.30433 0.86474 0.39386 0.0
H4059 H 0.36106 0.90264 0.35648 0.0
H4060 H 0.38194 0.92629 0.32647 0.0
H4061 H 0.36939 0.96089 0.36814 0.0
H4062 H 0.34826 0.93737 0.39813 0.0
H4063 H 0.34039 0.87119 0.52885 0.0
H4064 H 0.33364 0.86899 0.47822 0.0
H4065 H 0.3372 0.91841 0.48074 0.0
H4066 H 0.34463 0.92098 0.5313 0.0
H4067 H 0.35293 0.91663 0.43606 0.0
H4068 H 0.29798 0.88038 0.47585 0.0
H4069 H 0.27626 0.85729 0.50572 0.0
H4070 H 0.28361 0.82037 0.45985 0.0
H4071 H 0.30556 0.84326 0.42995 0.0
C4072 C 0.31794 0.89507 0.30865 0.0
C4073 C 0.31936 0.88196 0.29509 0.0
C4074 C 0.3204 0.8975 0.33803 0.0
C4075 C 0.32414 0.88676 0.35425 0.0
C4076 C 0.32548 0.87364 0.34084 0.0
C4077 C 0.32326 0.87134 0.31147 0.0
C4078 C 0.32661 0.88909 0.38532 0.0
C4079 C 0.31501 0.876 0.40319 0.0
C4080 C 0.3402 0.90407 0.39727 0.0
C4081 C 0.35294 0.91821 0.3793 0.0
C4082 C 0.36264 0.91526 0.35905 0.0
C4083 C 0.37454 0.92865 0.34209 0.0
C4084 C 0.37695 0.94507 0.34533 0.0
C4085 C 0.36749 0.94815 0.36561 0.0
C4086 C 0.35556 0.9348 0.38261 0.0
C4087 C 0.33964 0.88155 0.51868 0.0
C4088 C 0.34302 0.89625 0.53405 0.0
C4089 C 0.33568 0.88024 0.48976 0.0
C4090 C 0.33462 0.89341 0.47577 0.0
C4091 C 0.33791 0.90807 0.49111 0.0
C4092 C 0.34212 0.90951 0.51999 0.0
C4093 C 0.33078 0.89212 0.44489 0.0
C4094 C 0.3421 0.90542 0.42694 0.0
C4095 C 0.31676 0.87741 0.43289 0.0
C4096 C 0.30352 0.86357 0.45079 0.0
C4097 C 0.29506 0.86735 0.47226 0.0
C4098 C 0.28269 0.8543 0.48918 0.0
C4099 C 0.27859 0.83738 0.48473 0.0
C4100 C 0.28682 0.83348 0.46329 0.0
C4101 C 0.29921 0.84649 0.44633 0.0
H4102 H 0.26901 0.82729 0.49785 0.0
H4103 H 0.38617 0.95542 0.33219 0.0
loop_
_geom_bond_atom_site_label_1
_geom_bond_atom_site_label_2
_geom_bond_distance
_geom_bond_site_symmetry_2
_ccdc_geom_bond_type
O0 Cd1 2.223 . S
O0 C8 1.315 . S
Cd1 O0 2.223 . S
Cd1 O4 2.297 . S
Cd1 O5 2.439 1_554 S
Cd1 O11 2.240 . S
Cd2 O3 2.240 . S
Cd2 O10 2.223 . S
Cd2 O12 2.297 . S
Cd2 O13 2.439 . S
O3 Cd2 2.240 . S
O3 C8 1.279 . S
O4 Cd1 2.297 . S
O4 C6 1.247 1_554 S
O5 Cd1 2.439 1_556 S
O5 C6 1.208 . S
C6 O4 1.247 1_556 S
C6 O5 1.208 . S
C7 O12 1.247 . S
C7 O13 1.208 . S
C8 O0 1.315 . S
C8 O3 1.279 . S
C9 O10 1.315 . S
C9 O11 1.279 . S
O10 Cd2 2.223 . S
O10 C9 1.315 . S
O11 Cd1 2.240 . S
O11 C9 1.279 . S
O12 Cd2 2.297 . S
O12 C7 1.247 . S
O13 Cd2 2.439 . S
O13 C7 1.208 . S
O14 Cd15 2.223 . S
O14 C22 1.315 . S
Cd15 O14 2.223 . S
Cd15 O18 2.297 . S
Cd15 O19 2.439 1_554 S
Cd15 O25 2.253 . S
Cd16 O17 2.240 1_565 S
Cd16 O24 2.223 1_565 S
Cd16 O26 2.297 . S
Cd16 O27 2.439 . S
O17 Cd16 2.240 1_545 S
O17 C22 1.279 . S
O18 Cd15 2.297 . S
O18 C20 1.247 1_554 S
O19 Cd15 2.439 1_556 S
O19 C20 1.208 . S
C20 O18 1.247 1_556 S
C20 O19 1.208 . S
C21 O26 1.247 . S
C21 O27 1.208 . S
C22 O14 1.315 . S
C22 O17 1.279 . S
C23 O24 1.315 . S
C23 O25 1.276 . S
O24 Cd16 2.223 1_545 S
O24 C23 1.315 . S
O25 Cd15 2.253 . S
O25 C23 1.276 . S
O26 Cd16 2.297 . S
O26 C21 1.247 . S
O27 Cd16 2.439 . S
O27 C21 1.208 . S
O28 Cd29 2.223 . S
O28 C36 1.315 . S
Cd29 O28 2.223 . S
Cd29 O32 2.297 . S
Cd29 O33 2.439 1_554 S
Cd29 O39 2.245 . S
Cd30 O31 2.240 1_455 S
Cd30 O38 2.223 1_455 S
Cd30 O40 2.297 . S
Cd30 O41 2.439 . S
O31 Cd30 2.240 1_655 S
O31 C36 1.279 . S
O32 Cd29 2.297 . S
O32 C34 1.247 1_554 S
O33 Cd29 2.439 1_556 S
O33 C34 1.208 . S
C34 O32 1.247 1_556 S
C34 O33 1.208 . S
C35 O40 1.247 . S
C35 O41 1.208 . S
C36 O28 1.315 . S
C36 O31 1.279 . S
C37 O38 1.315 . S
C37 O39 1.288 . S
O38 Cd30 2.223 1_655 S
O38 C37 1.315 . S
O39 Cd29 2.245 . S
O39 C37 1.288 . S
O40 Cd30 2.297 . S
O40 C35 1.247 . S
O41 Cd30 2.439 . S
O41 C35 1.208 . S
O42 Cd43 2.223 . S
O42 C50 1.315 . S
Cd43 O42 2.223 . S
Cd43 O46 2.297 . S
Cd43 O47 2.439 . S
Cd43 O53 2.240 . S
Cd44 O45 2.240 . S
Cd44 O52 2.223 . S
Cd44 O54 2.297 . S
Cd44 O55 2.439 . S
O45 Cd44 2.240 . S
O45 C50 1.279 . S
O46 Cd43 2.297 . S
O46 C48 1.247 . S
O47 Cd43 2.439 . S
O47 C48 1.208 . S
C48 O46 1.247 . S
C48 O47 1.208 . S
C49 O54 1.247 . S
C49 O55 1.208 . S
C50 O42 1.315 . S
C50 O45 1.279 . S
C51 O52 1.315 . S
C51 O53 1.279 . S
O52 Cd44 2.223 . S
O52 C51 1.315 . S
O53 Cd43 2.240 . S
O53 C51 1.279 . S
O54 Cd44 2.297 . S
O54 C49 1.247 . S
O55 Cd44 2.439 . S
O55 C49 1.208 . S
O56 Cd57 2.223 . S
O56 C64 1.315 . S
Cd57 O56 2.223 . S
Cd57 O60 2.297 . S
Cd57 O61 2.439 . S
Cd57 O67 2.245 . S
Cd58 O59 2.240 1_545 S
Cd58 O66 2.223 1_545 S
Cd58 O68 2.297 . S
Cd58 O69 2.439 . S
O59 Cd58 2.240 1_565 S
O59 C64 1.279 . S
O60 Cd57 2.297 . S
O60 C62 1.247 . S
O61 Cd57 2.439 . S
O61 C62 1.208 . S
C62 O60 1.247 . S
C62 O61 1.208 . S
C63 O68 1.247 . S
C63 O69 1.208 . S
C64 O56 1.315 . S
C64 O59 1.279 . S
C65 O66 1.315 . S
C65 O67 1.289 . S
O66 Cd58 2.223 1_565 S
O66 C65 1.315 . S
O67 Cd57 2.245 . S
O67 C65 1.289 . S
O68 Cd58 2.297 . S
O68 C63 1.247 . S
O69 Cd58 2.439 . S
O69 C63 1.208 . S
O70 Cd71 2.223 . S
O70 C78 1.315 . S
Cd71 O70 2.223 . S
Cd71 O74 2.297 . S
Cd71 O75 2.439 . S
Cd71 O81 2.253 . S
Cd72 O73 2.240 1_655 S
Cd72 O80 2.223 1_655 S
Cd72 O82 2.297 . S
Cd72 O83 2.439 . S
O73 Cd72 2.240 1_455 S
O73 C78 1.279 . S
O74 Cd71 2.297 . S
O74 C76 1.247 . S
O75 Cd71 2.439 . S
O75 C76 1.208 . S
C76 O74 1.247 . S
C76 O75 1.208 . S
C77 O82 1.247 . S
C77 O83 1.208 . S
C78 O70 1.315 . S
C78 O73 1.279 . S
C79 O80 1.315 . S
C79 O81 1.276 . S
O80 Cd72 2.223 1_455 S
O80 C79 1.315 . S
O81 Cd71 2.253 . S
O81 C79 1.276 . S
O82 Cd72 2.297 . S
O82 C77 1.247 . S
O83 Cd72 2.439 . S
O83 C77 1.208 . S
O84 Cd85 2.223 . S
O84 C92 1.315 . S
Cd85 O84 2.223 . S
Cd85 O88 2.297 . S
Cd85 O89 2.439 1_556 S
Cd85 O95 2.240 . S
Cd86 O87 2.240 . S
Cd86 O94 2.223 . S
Cd86 O96 2.297 . S
Cd86 O97 2.439 . S
O87 Cd86 2.240 . S
O87 C92 1.279 . S
O88 Cd85 2.297 . S
O88 C90 1.247 1_556 S
O89 Cd85 2.439 1_554 S
O89 C90 1.208 . S
C90 O88 1.247 1_554 S
C90 O89 1.208 . S
C91 O96 1.247 . S
C91 O97 1.208 . S
C92 O84 1.315 . S
C92 O87 1.279 . S
C93 O94 1.315 . S
C93 O95 1.279 . S
O94 Cd86 2.223 . S
O94 C93 1.315 . S
O95 Cd85 2.240 . S
O95 C93 1.279 . S
O96 Cd86 2.297 . S
O96 C91 1.247 . S
O97 Cd86 2.439 . S
O97 C91 1.208 . S
O98 Cd99 2.223 . S
O98 C106 1.315 . S
Cd99 O98 2.223 . S
Cd99 O102 2.297 . S
Cd99 O103 2.439 1_556 S
Cd99 O109 2.253 . S
Cd100 O101 2.240 1_545 S
Cd100 O108 2.223 1_545 S
Cd100 O110 2.297 . S
Cd100 O111 2.439 . S
O101 Cd100 2.240 1_565 S
O101 C106 1.279 . S
O102 Cd99 2.297 . S
O102 C104 1.247 1_556 S
O103 Cd99 2.439 1_554 S
O103 C104 1.208 . S
C104 O102 1.247 1_554 S
C104 O103 1.208 . S
C105 O110 1.247 . S
C105 O111 1.208 . S
C106 O98 1.315 . S
C106 O101 1.279 . S
C107 O108 1.315 . S
C107 O109 1.276 . S
O108 Cd100 2.223 1_565 S
O108 C107 1.315 . S
O109 Cd99 2.253 . S
O109 C107 1.276 . S
O110 Cd100 2.297 . S
O110 C105 1.247 . S
O111 Cd100 2.439 . S
O111 C105 1.208 . S
O112 Cd113 2.223 . S
O112 C120 1.315 . S
Cd113 O112 2.223 . S
Cd113 O116 2.297 . S
Cd113 O117 2.439 1_556 S
Cd113 O123 2.245 . S
Cd114 O115 2.240 1_655 S
Cd114 O122 2.223 1_655 S
Cd114 O124 2.297 . S
Cd114 O125 2.439 . S
O115 Cd114 2.240 1_455 S
O115 C120 1.279 . S
O116 Cd113 2.297 . S
O116 C118 1.247 1_556 S
O117 Cd113 2.439 1_554 S
O117 C118 1.208 . S
C118 O116 1.247 1_554 S
C118 O117 1.208 . S
C119 O124 1.247 . S
C119 O125 1.208 . S
C120 O112 1.315 . S
C120 O115 1.279 . S
C121 O122 1.315 . S
C121 O123 1.288 . S
O122 Cd114 2.223 1_455 S
O122 C121 1.315 . S
O123 Cd113 2.245 . S
O123 C121 1.288 . S
O124 Cd114 2.297 . S
O124 C119 1.247 . S
O125 Cd114 2.439 . S
O125 C119 1.208 . S
O126 Cd127 2.223 . S
O126 C134 1.315 . S
Cd127 O126 2.223 . S
Cd127 O130 2.297 . S
Cd127 O131 2.439 . S
Cd127 O137 2.240 . S
Cd128 O129 2.240 . S
Cd128 O136 2.223 . S
Cd128 O138 2.297 . S
Cd128 O139 2.439 . S
O129 Cd128 2.240 . S
O129 C134 1.279 . S
O130 Cd127 2.297 . S
O130 C132 1.247 . S
O131 Cd127 2.439 . S
O131 C132 1.208 . S
C132 O130 1.247 . S
C132 O131 1.208 . S
C133 O138 1.247 . S
C133 O139 1.208 . S
C134 O126 1.315 . S
C134 O129 1.279 . S
C135 O136 1.315 . S
C135 O137 1.279 . S
O136 Cd128 2.223 . S
O136 C135 1.315 . S
O137 Cd127 2.240 . S
O137 C135 1.279 . S
O138 Cd128 2.297 . S
O138 C133 1.247 . S
O139 Cd128 2.439 . S
O139 C133 1.208 . S
O140 Cd141 2.223 . S
O140 C148 1.315 . S
Cd141 O140 2.223 . S
Cd141 O144 2.297 . S
Cd141 O145 2.439 . S
Cd141 O151 2.245 . S
Cd142 O143 2.240 1_565 S
Cd142 O150 2.223 1_565 S
Cd142 O152 2.297 . S
Cd142 O153 2.439 . S
O143 Cd142 2.240 1_545 S
O143 C148 1.279 . S
O144 Cd141 2.297 . S
O144 C146 1.247 . S
O145 Cd141 2.439 . S
O145 C146 1.208 . S
C146 O144 1.247 . S
C146 O145 1.208 . S
C147 O152 1.247 . S
C147 O153 1.208 . S
C148 O140 1.315 . S
C148 O143 1.279 . S
C149 O150 1.315 . S
C149 O151 1.289 . S
O150 Cd142 2.223 1_545 S
O150 C149 1.315 . S
O151 Cd141 2.245 . S
O151 C149 1.289 . S
O152 Cd142 2.297 . S
O152 C147 1.247 . S
O153 Cd142 2.439 . S
O153 C147 1.208 . S
O154 Cd155 2.223 . S
O154 C162 1.315 . S
Cd155 O154 2.223 . S
Cd155 O158 2.297 . S
Cd155 O159 2.439 . S
Cd155 O165 2.253 . S
Cd156 O157 2.240 1_455 S
Cd156 O164 2.223 1_455 S
Cd156 O166 2.297 . S
Cd156 O167 2.439 . S
O157 Cd156 2.240 1_655 S
O157 C162 1.279 . S
O158 Cd155 2.297 . S
O158 C160 1.247 . S
O159 Cd155 2.439 . S
O159 C160 1.208 . S
C160 O158 1.247 . S
C160 O159 1.208 . S
C161 O166 1.247 . S
C161 O167 1.208 . S
C162 O154 1.315 . S
C162 O157 1.279 . S
C163 O164 1.315 . S
C163 O165 1.276 . S
O164 Cd156 2.223 1_655 S
O164 C163 1.315 . S
O165 Cd155 2.253 . S
O165 C163 1.276 . S
O166 Cd156 2.297 . S
O166 C161 1.247 . S
O167 Cd156 2.439 . S
O167 C161 1.208 . S
O168 Cd169 2.223 . S
O168 C176 1.315 . S
Cd169 O168 2.223 . S
Cd169 O172 2.297 . S
Cd169 O173 2.439 . S
Cd169 O179 2.240 . S
Cd170 O171 2.240 . S
Cd170 O178 2.223 . S
Cd170 O180 2.297 . S
Cd170 O181 2.439 . S
O171 Cd170 2.240 . S
O171 C176 1.279 . S
O172 Cd169 2.297 . S
O172 C174 1.247 . S
O173 Cd169 2.439 . S
O173 C174 1.208 . S
C174 O172 1.247 . S
C174 O173 1.208 . S
C175 O180 1.247 . S
C175 O181 1.208 . S
C176 O168 1.315 . S
C176 O171 1.279 . S
C177 O178 1.315 . S
C177 O179 1.279 . S
O178 Cd170 2.223 . S
O178 C177 1.315 . S
O179 Cd169 2.240 . S
O179 C177 1.279 . S
O180 Cd170 2.297 . S
O180 C175 1.247 . S
O181 Cd170 2.439 . S
O181 C175 1.208 . S
O182 Cd183 2.223 . S
O182 C190 1.315 . S
Cd183 O182 2.223 . S
Cd183 O186 2.297 . S
Cd183 O187 2.439 . S
Cd183 O193 2.240 . S
Cd184 O185 2.240 . S
Cd184 O192 2.223 . S
Cd184 O194 2.297 . S
Cd184 O195 2.439 . S
O185 Cd184 2.240 . S
O185 C190 1.279 . S
O186 Cd183 2.297 . S
O186 C188 1.247 . S
O187 Cd183 2.439 . S
O187 C188 1.208 . S
C188 O186 1.247 . S
C188 O187 1.208 . S
C189 O194 1.247 . S
C189 O195 1.208 . S
C190 O182 1.315 . S
C190 O185 1.279 . S
C191 O192 1.315 . S
C191 O193 1.279 . S
O192 Cd184 2.223 . S
O192 C191 1.315 . S
O193 Cd183 2.240 . S
O193 C191 1.279 . S
O194 Cd184 2.297 . S
O194 C189 1.247 . S
O195 Cd184 2.439 . S
O195 C189 1.208 . S
O196 Cd197 2.223 . S
O196 C204 1.315 . S
Cd197 O196 2.223 . S
Cd197 O200 2.297 . S
Cd197 O201 2.439 . S
Cd197 O207 2.240 . S
Cd198 O199 2.240 . S
Cd198 O206 2.223 . S
Cd198 O208 2.297 . S
Cd198 O209 2.439 . S
O199 Cd198 2.240 . S
O199 C204 1.279 . S
O200 Cd197 2.297 . S
O200 C202 1.247 . S
O201 Cd197 2.439 . S
O201 C202 1.208 . S
C202 O200 1.247 . S
C202 O201 1.208 . S
C203 O208 1.247 . S
C203 O209 1.208 . S
C204 O196 1.315 . S
C204 O199 1.279 . S
C205 O206 1.315 . S
C205 O207 1.279 . S
O206 Cd198 2.223 . S
O206 C205 1.315 . S
O207 Cd197 2.240 . S
O207 C205 1.279 . S
O208 Cd198 2.297 . S
O208 C203 1.247 . S
O209 Cd198 2.439 . S
O209 C203 1.208 . S
O210 Cd211 2.223 . S
O210 C218 1.315 . S
Cd211 O210 2.223 . S
Cd211 O214 2.297 . S
Cd211 O215 2.439 . S
Cd211 O221 2.240 . S
Cd212 O213 2.240 . S
Cd212 O220 2.223 . S
Cd212 O222 2.297 . S
Cd212 O223 2.439 . S
O213 Cd212 2.240 . S
O213 C218 1.279 . S
O214 Cd211 2.297 . S
O214 C216 1.247 . S
O215 Cd211 2.439 . S
O215 C216 1.208 . S
C216 O214 1.247 . S
C216 O215 1.208 . S
C217 O222 1.247 . S
C217 O223 1.208 . S
C218 O210 1.315 . S
C218 O213 1.279 . S
C219 O220 1.315 . S
C219 O221 1.279 . S
O220 Cd212 2.223 . S
O220 C219 1.315 . S
O221 Cd211 2.240 . S
O221 C219 1.279 . S
O222 Cd212 2.297 . S
O222 C217 1.247 . S
O223 Cd212 2.439 . S
O223 C217 1.208 . S
O224 Cd225 2.223 . S
O224 C232 1.315 . S
Cd225 O224 2.223 . S
Cd225 O228 2.297 . S
Cd225 O229 2.439 . S
Cd225 O235 2.240 . S
Cd226 O227 2.240 . S
Cd226 O234 2.223 . S
Cd226 O236 2.297 . S
Cd226 O237 2.439 . S
O227 Cd226 2.240 . S
O227 C232 1.279 . S
O228 Cd225 2.297 . S
O228 C230 1.247 . S
O229 Cd225 2.439 . S
O229 C230 1.208 . S
C230 O228 1.247 . S
C230 O229 1.208 . S
C231 O236 1.247 . S
C231 O237 1.208 . S
C232 O224 1.315 . S
C232 O227 1.279 . S
C233 O234 1.315 . S
C233 O235 1.279 . S
O234 Cd226 2.223 . S
O234 C233 1.315 . S
O235 Cd225 2.240 . S
O235 C233 1.279 . S
O236 Cd226 2.297 . S
O236 C231 1.247 . S
O237 Cd226 2.439 . S
O237 C231 1.208 . S
O238 Cd239 2.223 . S
O238 C246 1.315 . S
Cd239 O238 2.223 . S
Cd239 O242 2.297 . S
Cd239 O243 2.439 . S
Cd239 O249 2.240 . S
Cd240 O241 2.240 . S
Cd240 O248 2.223 . S
Cd240 O250 2.297 . S
Cd240 O251 2.439 . S
O241 Cd240 2.240 . S
O241 C246 1.279 . S
O242 Cd239 2.297 . S
O242 C244 1.247 . S
O243 Cd239 2.439 . S
O243 C244 1.208 . S
C244 O242 1.247 . S
C244 O243 1.208 . S
C245 O250 1.247 . S
C245 O251 1.208 . S
C246 O238 1.315 . S
C246 O241 1.279 . S
C247 O248 1.315 . S
C247 O249 1.279 . S
O248 Cd240 2.223 . S
O248 C247 1.315 . S
O249 Cd239 2.240 . S
O249 C247 1.279 . S
O250 Cd240 2.297 . S
O250 C245 1.247 . S
O251 Cd240 2.439 . S
O251 C245 1.208 . S
O252 Cd253 2.223 . S
O252 C260 1.315 . S
Cd253 O252 2.223 . S
Cd253 O256 2.297 . S
Cd253 O257 2.439 . S
Cd253 O263 2.240 . S
Cd254 O255 2.240 . S
Cd254 O262 2.223 . S
Cd254 O264 2.297 . S
Cd254 O265 2.439 . S
O255 Cd254 2.240 . S
O255 C260 1.279 . S
O256 Cd253 2.297 . S
O256 C258 1.247 . S
O257 Cd253 2.439 . S
O257 C258 1.208 . S
C258 O256 1.247 . S
C258 O257 1.208 . S
C259 O264 1.247 . S
C259 O265 1.208 . S
C260 O252 1.315 . S
C260 O255 1.279 . S
C261 O262 1.315 . S
C261 O263 1.279 . S
O262 Cd254 2.223 . S
O262 C261 1.315 . S
O263 Cd253 2.240 . S
O263 C261 1.279 . S
O264 Cd254 2.297 . S
O264 C259 1.247 . S
O265 Cd254 2.439 . S
O265 C259 1.208 . S
O266 Cd267 2.223 . S
O266 C274 1.315 . S
Cd267 O266 2.223 . S
Cd267 O270 2.297 . S
Cd267 O271 2.439 . S
Cd267 O277 2.240 . S
Cd268 O269 2.240 . S
Cd268 O276 2.223 . S
Cd268 O278 2.297 . S
Cd268 O279 2.439 . S
O269 Cd268 2.240 . S
O269 C274 1.279 . S
O270 Cd267 2.297 . S
O270 C272 1.247 . S
O271 Cd267 2.439 . S
O271 C272 1.208 . S
C272 O270 1.247 . S
C272 O271 1.208 . S
C273 O278 1.247 . S
C273 O279 1.208 . S
C274 O266 1.315 . S
C274 O269 1.279 . S
C275 O276 1.315 . S
C275 O277 1.279 . S
O276 Cd268 2.223 . S
O276 C275 1.315 . S
O277 Cd267 2.240 . S
O277 C275 1.279 . S
O278 Cd268 2.297 . S
O278 C273 1.247 . S
O279 Cd268 2.439 . S
O279 C273 1.208 . S
O280 Cd281 2.223 . S
O280 C288 1.315 . S
Cd281 O280 2.223 . S
Cd281 O284 2.297 . S
Cd281 O285 2.439 . S
Cd281 O291 2.240 . S
Cd282 O283 2.240 . S
Cd282 O290 2.223 . S
Cd282 O292 2.297 . S
Cd282 O293 2.439 . S
O283 Cd282 2.240 . S
O283 C288 1.279 . S
O284 Cd281 2.297 . S
O284 C286 1.247 . S
O285 Cd281 2.439 . S
O285 C286 1.208 . S
C286 O284 1.247 . S
C286 O285 1.208 . S
C287 O292 1.247 . S
C287 O293 1.208 . S
C288 O280 1.315 . S
C288 O283 1.279 . S
C289 O290 1.315 . S
C289 O291 1.279 . S
O290 Cd282 2.223 . S
O290 C289 1.315 . S
O291 Cd281 2.240 . S
O291 C289 1.279 . S
O292 Cd282 2.297 . S
O292 C287 1.247 . S
O293 Cd282 2.439 . S
O293 C287 1.208 . S
O294 Cd295 2.223 . S
O294 C302 1.315 . S
Cd295 O294 2.223 . S
Cd295 O298 2.297 . S
Cd295 O299 2.439 . S
Cd295 O305 2.240 . S
Cd296 O297 2.240 . S
Cd296 O304 2.223 . S
Cd296 O306 2.297 . S
Cd296 O307 2.439 . S
O297 Cd296 2.240 . S
O297 C302 1.279 . S
O298 Cd295 2.297 . S
O298 C300 1.247 . S
O299 Cd295 2.439 . S
O299 C300 1.208 . S
C300 O298 1.247 . S
C300 O299 1.208 . S
C301 O306 1.247 . S
C301 O307 1.208 . S
C302 O294 1.315 . S
C302 O297 1.279 . S
C303 O304 1.315 . S
C303 O305 1.279 . S
O304 Cd296 2.223 . S
O304 C303 1.315 . S
O305 Cd295 2.240 . S
O305 C303 1.279 . S
O306 Cd296 2.297 . S
O306 C301 1.247 . S
O307 Cd296 2.439 . S
O307 C301 1.208 . S
O308 Cd309 2.223 . S
O308 C316 1.315 . S
Cd309 O308 2.223 . S
Cd309 O312 2.297 . S
Cd309 O313 2.439 . S
Cd309 O319 2.240 . S
Cd310 O311 2.240 . S
Cd310 O318 2.223 . S
Cd310 O320 2.297 . S
Cd310 O321 2.439 . S
O311 Cd310 2.240 . S
O311 C316 1.279 . S
O312 Cd309 2.297 . S
O312 C314 1.247 . S
O313 Cd309 2.439 . S
O313 C314 1.208 . S
C314 O312 1.247 . S
C314 O313 1.208 . S
C315 O320 1.247 . S
C315 O321 1.208 . S
C316 O308 1.315 . S
C316 O311 1.279 . S
C317 O318 1.315 . S
C317 O319 1.279 . S
O318 Cd310 2.223 . S
O318 C317 1.315 . S
O319 Cd309 2.240 . S
O319 C317 1.279 . S
O320 Cd310 2.297 . S
O320 C315 1.247 . S
O321 Cd310 2.439 . S
O321 C315 1.208 . S
O322 Cd323 2.223 . S
O322 C330 1.315 . S
Cd323 O322 2.223 . S
Cd323 O326 2.297 . S
Cd323 O327 2.439 . S
Cd323 O333 2.240 . S
Cd324 O325 2.240 . S
Cd324 O332 2.223 . S
Cd324 O334 2.297 . S
Cd324 O335 2.439 . S
O325 Cd324 2.240 . S
O325 C330 1.279 . S
O326 Cd323 2.297 . S
O326 C328 1.247 . S
O327 Cd323 2.439 . S
O327 C328 1.208 . S
C328 O326 1.247 . S
C328 O327 1.208 . S
C329 O334 1.247 . S
C329 O335 1.208 . S
C330 O322 1.315 . S
C330 O325 1.279 . S
C331 O332 1.315 . S
C331 O333 1.279 . S
O332 Cd324 2.223 . S
O332 C331 1.315 . S
O333 Cd323 2.240 . S
O333 C331 1.279 . S
O334 Cd324 2.297 . S
O334 C329 1.247 . S
O335 Cd324 2.439 . S
O335 C329 1.208 . S
O336 Cd337 2.223 . S
O336 C344 1.315 . S
Cd337 O336 2.223 . S
Cd337 O340 2.297 . S
Cd337 O341 2.439 . S
Cd337 O347 2.240 . S
Cd338 O339 2.240 . S
Cd338 O346 2.223 . S
Cd338 O348 2.297 . S
Cd338 O349 2.439 . S
O339 Cd338 2.240 . S
O339 C344 1.279 . S
O340 Cd337 2.297 . S
O340 C342 1.247 . S
O341 Cd337 2.439 . S
O341 C342 1.208 . S
C342 O340 1.247 . S
C342 O341 1.208 . S
C343 O348 1.247 . S
C343 O349 1.208 . S
C344 O336 1.315 . S
C344 O339 1.279 . S
C345 O346 1.315 . S
C345 O347 1.279 . S
O346 Cd338 2.223 . S
O346 C345 1.315 . S
O347 Cd337 2.240 . S
O347 C345 1.279 . S
O348 Cd338 2.297 . S
O348 C343 1.247 . S
O349 Cd338 2.439 . S
O349 C343 1.208 . S
O350 Cd351 2.223 . S
O350 C358 1.315 . S
Cd351 O350 2.223 . S
Cd351 O354 2.297 . S
Cd351 O355 2.439 . S
Cd351 O361 2.240 . S
Cd352 O353 2.240 . S
Cd352 O360 2.223 . S
Cd352 O362 2.297 . S
Cd352 O363 2.439 . S
O353 Cd352 2.240 . S
O353 C358 1.279 . S
O354 Cd351 2.297 . S
O354 C356 1.247 . S
O355 Cd351 2.439 . S
O355 C356 1.208 . S
C356 O354 1.247 . S
C356 O355 1.208 . S
C357 O362 1.247 . S
C357 O363 1.208 . S
C358 O350 1.315 . S
C358 O353 1.279 . S
C359 O360 1.315 . S
C359 O361 1.279 . S
O360 Cd352 2.223 . S
O360 C359 1.315 . S
O361 Cd351 2.240 . S
O361 C359 1.279 . S
O362 Cd352 2.297 . S
O362 C357 1.247 . S
O363 Cd352 2.439 . S
O363 C357 1.208 . S
O364 Cd365 2.223 . S
O364 C372 1.315 . S
Cd365 O364 2.223 . S
Cd365 O368 2.297 . S
Cd365 O369 2.439 . S
Cd365 O375 2.240 . S
Cd366 O367 2.240 . S
Cd366 O374 2.223 . S
Cd366 O376 2.297 . S
Cd366 O377 2.439 . S
O367 Cd366 2.240 . S
O367 C372 1.279 . S
O368 Cd365 2.297 . S
O368 C370 1.247 . S
O369 Cd365 2.439 . S
O369 C370 1.208 . S
C370 O368 1.247 . S
C370 O369 1.208 . S
C371 O376 1.247 . S
C371 O377 1.208 . S
C372 O364 1.315 . S
C372 O367 1.279 . S
C373 O374 1.315 . S
C373 O375 1.279 . S
O374 Cd366 2.223 . S
O374 C373 1.315 . S
O375 Cd365 2.240 . S
O375 C373 1.279 . S
O376 Cd366 2.297 . S
O376 C371 1.247 . S
O377 Cd366 2.439 . S
O377 C371 1.208 . S
O378 Cd379 2.223 . S
O378 C386 1.315 . S
Cd379 O378 2.223 . S
Cd379 O382 2.297 . S
Cd379 O383 2.439 . S
Cd379 O389 2.240 . S
Cd380 O381 2.240 . S
Cd380 O388 2.223 . S
Cd380 O390 2.297 . S
Cd380 O391 2.439 . S
O381 Cd380 2.240 . S
O381 C386 1.279 . S
O382 Cd379 2.297 . S
O382 C384 1.247 . S
O383 Cd379 2.439 . S
O383 C384 1.208 . S
C384 O382 1.247 . S
C384 O383 1.208 . S
C385 O390 1.247 . S
C385 O391 1.208 . S
C386 O378 1.315 . S
C386 O381 1.279 . S
C387 O388 1.315 . S
C387 O389 1.279 . S
O388 Cd380 2.223 . S
O388 C387 1.315 . S
O389 Cd379 2.240 . S
O389 C387 1.279 . S
O390 Cd380 2.297 . S
O390 C385 1.247 . S
O391 Cd380 2.439 . S
O391 C385 1.208 . S
O392 Cd393 2.223 . S
O392 C400 1.315 . S
Cd393 O392 2.223 . S
Cd393 O396 2.297 . S
Cd393 O397 2.439 . S
Cd393 O403 2.240 . S
Cd394 O395 2.240 . S
Cd394 O402 2.223 . S
Cd394 O404 2.297 . S
Cd394 O405 2.439 . S
O395 Cd394 2.240 . S
O395 C400 1.279 . S
O396 Cd393 2.297 . S
O396 C398 1.247 . S
O397 Cd393 2.439 . S
O397 C398 1.208 . S
C398 O396 1.247 . S
C398 O397 1.208 . S
C399 O404 1.247 . S
C399 O405 1.208 . S
C400 O392 1.315 . S
C400 O395 1.279 . S
C401 O402 1.315 . S
C401 O403 1.279 . S
O402 Cd394 2.223 . S
O402 C401 1.315 . S
O403 Cd393 2.240 . S
O403 C401 1.279 . S
O404 Cd394 2.297 . S
O404 C399 1.247 . S
O405 Cd394 2.439 . S
O405 C399 1.208 . S
O406 Cd407 2.223 . S
O406 C414 1.315 . S
Cd407 O406 2.223 . S
Cd407 O410 2.297 . S
Cd407 O411 2.439 . S
Cd407 O417 2.240 . S
Cd408 O409 2.240 . S
Cd408 O416 2.223 . S
Cd408 O418 2.297 . S
Cd408 O419 2.439 . S
O409 Cd408 2.240 . S
O409 C414 1.279 . S
O410 Cd407 2.297 . S
O410 C412 1.247 . S
O411 Cd407 2.439 . S
O411 C412 1.208 . S
C412 O410 1.247 . S
C412 O411 1.208 . S
C413 O418 1.247 . S
C413 O419 1.208 . S
C414 O406 1.315 . S
C414 O409 1.279 . S
C415 O416 1.315 . S
C415 O417 1.279 . S
O416 Cd408 2.223 . S
O416 C415 1.315 . S
O417 Cd407 2.240 . S
O417 C415 1.279 . S
O418 Cd408 2.297 . S
O418 C413 1.247 . S
O419 Cd408 2.439 . S
O419 C413 1.208 . S
O420 Cd421 2.223 . S
O420 C428 1.315 . S
Cd421 O420 2.223 . S
Cd421 O424 2.297 . S
Cd421 O425 2.439 . S
Cd421 O431 2.240 . S
Cd422 O423 2.240 . S
Cd422 O430 2.223 . S
Cd422 O432 2.297 . S
Cd422 O433 2.439 . S
O423 Cd422 2.240 . S
O423 C428 1.279 . S
O424 Cd421 2.297 . S
O424 C426 1.247 . S
O425 Cd421 2.439 . S
O425 C426 1.208 . S
C426 O424 1.247 . S
C426 O425 1.208 . S
C427 O432 1.247 . S
C427 O433 1.208 . S
C428 O420 1.315 . S
C428 O423 1.279 . S
C429 O430 1.315 . S
C429 O431 1.279 . S
O430 Cd422 2.223 . S
O430 C429 1.315 . S
O431 Cd421 2.240 . S
O431 C429 1.279 . S
O432 Cd422 2.297 . S
O432 C427 1.247 . S
O433 Cd422 2.439 . S
O433 C427 1.208 . S
O434 Cd435 2.223 . S
O434 C442 1.315 . S
Cd435 O434 2.223 . S
Cd435 O438 2.297 . S
Cd435 O439 2.439 . S
Cd435 O445 2.240 . S
Cd436 O437 2.240 . S
Cd436 O444 2.223 . S
Cd436 O446 2.297 . S
Cd436 O447 2.439 . S
O437 Cd436 2.240 . S
O437 C442 1.279 . S
O438 Cd435 2.297 . S
O438 C440 1.247 . S
O439 Cd435 2.439 . S
O439 C440 1.208 . S
C440 O438 1.247 . S
C440 O439 1.208 . S
C441 O446 1.247 . S
C441 O447 1.208 . S
C442 O434 1.315 . S
C442 O437 1.279 . S
C443 O444 1.315 . S
C443 O445 1.279 . S
O444 Cd436 2.223 . S
O444 C443 1.315 . S
O445 Cd435 2.240 . S
O445 C443 1.279 . S
O446 Cd436 2.297 . S
O446 C441 1.247 . S
O447 Cd436 2.439 . S
O447 C441 1.208 . S
O448 Cd449 2.223 . S
O448 C456 1.315 . S
Cd449 O448 2.223 . S
Cd449 O452 2.297 . S
Cd449 O453 2.439 . S
Cd449 O459 2.240 . S
Cd450 O451 2.240 . S
Cd450 O458 2.223 . S
Cd450 O460 2.297 . S
Cd450 O461 2.439 . S
O451 Cd450 2.240 . S
O451 C456 1.279 . S
O452 Cd449 2.297 . S
O452 C454 1.247 . S
O453 Cd449 2.439 . S
O453 C454 1.208 . S
C454 O452 1.247 . S
C454 O453 1.208 . S
C455 O460 1.247 . S
C455 O461 1.208 . S
C456 O448 1.315 . S
C456 O451 1.279 . S
C457 O458 1.315 . S
C457 O459 1.279 . S
O458 Cd450 2.223 . S
O458 C457 1.315 . S
O459 Cd449 2.240 . S
O459 C457 1.279 . S
O460 Cd450 2.297 . S
O460 C455 1.247 . S
O461 Cd450 2.439 . S
O461 C455 1.208 . S
O462 Cd463 2.223 . S
O462 C470 1.315 . S
Cd463 O462 2.223 . S
Cd463 O466 2.297 . S
Cd463 O467 2.439 . S
Cd463 O473 2.240 . S
Cd464 O465 2.240 . S
Cd464 O472 2.223 . S
Cd464 O474 2.297 . S
Cd464 O475 2.439 . S
O465 Cd464 2.240 . S
O465 C470 1.279 . S
O466 Cd463 2.297 . S
O466 C468 1.247 . S
O467 Cd463 2.439 . S
O467 C468 1.208 . S
C468 O466 1.247 . S
C468 O467 1.208 . S
C469 O474 1.247 . S
C469 O475 1.208 . S
C470 O462 1.315 . S
C470 O465 1.279 . S
C471 O472 1.315 . S
C471 O473 1.279 . S
O472 Cd464 2.223 . S
O472 C471 1.315 . S
O473 Cd463 2.240 . S
O473 C471 1.279 . S
O474 Cd464 2.297 . S
O474 C469 1.247 . S
O475 Cd464 2.439 . S
O475 C469 1.208 . S
O476 Cd477 2.223 . S
O476 C484 1.315 . S
Cd477 O476 2.223 . S
Cd477 O480 2.297 . S
Cd477 O481 2.439 . S
Cd477 O487 2.240 . S
Cd478 O479 2.240 . S
Cd478 O486 2.223 . S
Cd478 O488 2.297 . S
Cd478 O489 2.439 . S
O479 Cd478 2.240 . S
O479 C484 1.279 . S
O480 Cd477 2.297 . S
O480 C482 1.247 . S
O481 Cd477 2.439 . S
O481 C482 1.208 . S
C482 O480 1.247 . S
C482 O481 1.208 . S
C483 O488 1.247 . S
C483 O489 1.208 . S
C484 O476 1.315 . S
C484 O479 1.279 . S
C485 O486 1.315 . S
C485 O487 1.279 . S
O486 Cd478 2.223 . S
O486 C485 1.315 . S
O487 Cd477 2.240 . S
O487 C485 1.279 . S
O488 Cd478 2.297 . S
O488 C483 1.247 . S
O489 Cd478 2.439 . S
O489 C483 1.208 . S
O490 Cd491 2.223 . S
O490 C498 1.315 . S
Cd491 O490 2.223 . S
Cd491 O494 2.297 . S
Cd491 O495 2.439 . S
Cd491 O501 2.240 . S
Cd492 O493 2.240 . S
Cd492 O500 2.223 . S
Cd492 O502 2.297 . S
Cd492 O503 2.439 . S
O493 Cd492 2.240 . S
O493 C498 1.279 . S
O494 Cd491 2.297 . S
O494 C496 1.247 . S
O495 Cd491 2.439 . S
O495 C496 1.208 . S
C496 O494 1.247 . S
C496 O495 1.208 . S
C497 O502 1.247 . S
C497 O503 1.208 . S
C498 O490 1.315 . S
C498 O493 1.279 . S
C499 O500 1.315 . S
C499 O501 1.279 . S
O500 Cd492 2.223 . S
O500 C499 1.315 . S
O501 Cd491 2.240 . S
O501 C499 1.279 . S
O502 Cd492 2.297 . S
O502 C497 1.247 . S
O503 Cd492 2.439 . S
O503 C497 1.208 . S
H504 C522 0.951 . S
H505 C524 0.951 . S
H506 C526 0.950 . S
H507 C527 0.950 . S
H508 C529 0.950 . S
H509 C532 0.950 . S
H510 C533 0.950 . S
H511 C535 0.950 . S
H512 C536 0.950 . S
H513 C537 0.951 1_554 S
H514 C539 0.951 . S
H515 C541 0.950 . S
H516 C542 0.950 . S
H517 C544 0.950 . S
H518 C547 0.950 . S
H519 C548 0.950 . S
H520 C550 0.950 . S
H521 C551 0.950 . S
C522 H504 0.951 . S
C522 C523 1.366 . S
C522 C524 1.388 . S
C523 C522 1.366 . S
C523 C527 1.385 . S
C524 H505 0.951 . S
C524 C522 1.388 . S
C524 C525 1.366 . S
C525 C524 1.366 . S
C525 C526 1.414 . S
C525 C528 1.499 . S
C526 H506 0.950 . S
C526 C525 1.414 . S
C526 C527 1.374 . S
C527 H507 0.950 . S
C527 C523 1.385 . S
C527 C526 1.374 . S
C528 C525 1.499 . S
C528 C529 1.373 . S
C528 C530 1.389 . S
C529 H508 0.950 . S
C529 C528 1.373 . S
C529 C545 1.377 . S
C530 C528 1.389 . S
C530 C531 1.524 . S
C530 C544 1.377 . S
C531 C530 1.524 . S
C531 C532 1.397 . S
C531 C536 1.363 . S
C532 H509 0.950 . S
C532 C531 1.397 . S
C532 C533 1.334 . S
C533 H510 0.950 . S
C533 C532 1.334 . S
C533 C534 1.287 . S
C534 C533 1.287 . S
C534 C535 1.524 . S
C534 H553 0.913 . S
C535 H511 0.950 . S
C535 C534 1.524 . S
C535 C536 1.415 . S
C536 H512 0.950 . S
C536 C531 1.363 . S
C536 C535 1.415 . S
C537 H513 0.951 1_556 S
C537 C538 1.366 . S
C537 C539 1.388 . S
C538 C537 1.366 . S
C538 C542 1.385 . S
C539 H514 0.951 . S
C539 C537 1.388 . S
C539 C540 1.366 . S
C540 C539 1.366 . S
C540 C541 1.414 . S
C540 C543 1.499 . S
C541 H515 0.950 . S
C541 C540 1.414 . S
C541 C542 1.374 . S
C542 H516 0.950 . S
C542 C538 1.385 . S
C542 C541 1.374 . S
C543 C540 1.499 . S
C543 C544 1.373 . S
C543 C545 1.389 . S
C544 H517 0.950 . S
C544 C530 1.377 . S
C544 C543 1.373 . S
C545 C529 1.377 . S
C545 C543 1.389 . S
C545 C546 1.524 . S
C546 C545 1.524 . S
C546 C547 1.397 . S
C546 C551 1.363 . S
C547 H518 0.950 . S
C547 C546 1.397 . S
C547 C548 1.334 1_556 S
C548 H519 0.950 . S
C548 C547 1.334 1_554 S
C548 C549 1.287 . S
C549 C548 1.287 . S
C549 C550 1.524 . S
C549 H552 0.999 . S
C550 H520 0.950 . S
C550 C549 1.524 . S
C550 C551 1.415 1_554 S
C551 H521 0.950 . S
C551 C546 1.363 . S
C551 C550 1.415 1_556 S
H552 C549 0.999 . S
H553 C534 0.913 . S
H554 C572 0.951 . S
H555 C574 0.951 . S
H556 C576 0.950 . S
H557 C577 0.950 . S
H558 C579 0.950 . S
H559 C582 0.950 . S
H560 C583 0.950 . S
H561 C585 0.950 1_554 S
H562 C586 0.950 . S
H563 C587 0.951 . S
H564 C589 0.951 . S
H565 C591 0.950 . S
H566 C592 0.950 1_554 S
H567 C594 0.950 . S
H568 C597 0.950 . S
H569 C598 0.950 1_565 S
H570 C600 0.950 . S
H571 C601 0.950 . S
C572 H554 0.951 . S
C572 C573 1.366 . S
C572 C574 1.388 . S
C573 C572 1.366 . S
C573 C577 1.385 . S
C574 H555 0.951 . S
C574 C572 1.388 . S
C574 C575 1.366 . S
C575 C574 1.366 . S
C575 C576 1.414 . S
C575 C578 1.499 . S
C576 H556 0.950 . S
C576 C575 1.414 . S
C576 C577 1.374 . S
C577 H557 0.950 . S
C577 C573 1.385 . S
C577 C576 1.374 . S
C578 C575 1.499 . S
C578 C579 1.373 . S
C578 C580 1.389 . S
C579 H558 0.950 . S
C579 C578 1.373 . S
C579 C595 1.377 . S
C580 C578 1.389 . S
C580 C581 1.524 . S
C580 C594 1.377 . S
C581 C580 1.524 . S
C581 C582 1.397 . S
C581 C586 1.363 . S
C582 H559 0.950 . S
C582 C581 1.397 . S
C582 C583 1.334 . S
C583 H560 0.950 . S
C583 C582 1.334 . S
C583 C584 1.287 . S
C584 C583 1.287 . S
C584 C585 1.524 . S
C584 H603 0.913 . S
C585 H561 0.950 1_556 S
C585 C584 1.524 . S
C585 C586 1.415 . S
C586 H562 0.950 . S
C586 C581 1.363 . S
C586 C585 1.415 . S
C587 H563 0.951 . S
C587 C588 1.366 . S
C587 C589 1.388 . S
C588 C587 1.366 . S
C588 C592 1.385 . S
C589 H564 0.951 . S
C589 C587 1.388 . S
C589 C590 1.366 . S
C590 C589 1.366 . S
C590 C591 1.414 . S
C590 C593 1.499 . S
C591 H565 0.950 . S
C591 C590 1.414 . S
C591 C592 1.374 . S
C592 H566 0.950 1_556 S
C592 C588 1.385 . S
C592 C591 1.374 . S
C593 C590 1.499 . S
C593 C594 1.373 . S
C593 C595 1.389 . S
C594 H567 0.950 . S
C594 C580 1.377 . S
C594 C593 1.373 . S
C595 C579 1.377 . S
C595 C593 1.389 . S
C595 C596 1.524 . S
C596 C595 1.524 . S
C596 C597 1.397 . S
C596 C601 1.363 . S
C597 H568 0.950 . S
C597 C596 1.397 . S
C597 C598 1.334 . S
C598 H569 0.950 1_545 S
C598 C597 1.334 . S
C598 C599 1.287 . S
C599 C598 1.287 . S
C599 C600 1.524 . S
C599 H602 0.988 1_545 S
C600 H570 0.950 . S
C600 C599 1.524 . S
C600 C601 1.415 . S
C601 H571 0.950 . S
C601 C596 1.363 . S
C601 C600 1.415 . S
H602 C599 0.988 1_565 S
H603 C584 0.913 . S
H604 C622 0.992 . S
H605 C624 0.951 . S
H606 C626 0.950 . S
H607 C627 0.950 . S
H608 C629 0.950 . S
H609 C632 0.950 . S
H610 C633 0.950 . S
H611 C635 0.950 1_455 S
H612 C636 0.950 . S
H613 C637 0.951 . S
H614 C639 0.951 . S
H615 C641 0.950 . S
H616 C642 0.950 . S
H617 C644 0.950 . S
H618 C647 0.950 . S
H619 C648 0.950 . S
H620 C650 0.950 . S
H621 C651 0.950 . S
C622 H604 0.992 . S
C622 C623 1.366 . S
C622 C624 1.388 . S
C623 C622 1.366 . S
C623 C627 1.385 . S
C624 H605 0.951 . S
C624 C622 1.388 . S
C624 C625 1.366 . S
C625 C624 1.366 . S
C625 C626 1.414 . S
C625 C628 1.499 . S
C626 H606 0.950 . S
C626 C625 1.414 . S
C626 C627 1.374 . S
C627 H607 0.950 . S
C627 C623 1.385 . S
C627 C626 1.374 . S
C628 C625 1.499 . S
C628 C629 1.373 . S
C628 C630 1.389 . S
C629 H608 0.950 . S
C629 C628 1.373 . S
C629 C645 1.377 . S
C630 C628 1.389 . S
C630 C631 1.524 . S
C630 C644 1.377 . S
C631 C630 1.524 . S
C631 C632 1.397 . S
C631 C636 1.363 . S
C632 H609 0.950 . S
C632 C631 1.397 . S
C632 C633 1.334 . S
C633 H610 0.950 . S
C633 C632 1.334 . S
C633 C634 1.287 . S
C634 C633 1.287 . S
C634 C635 1.524 . S
C634 H653 0.913 . S
C635 H611 0.950 1_655 S
C635 C634 1.524 . S
C635 C636 1.415 . S
C636 H612 0.950 . S
C636 C631 1.363 . S
C636 C635 1.415 . S
C637 H613 0.951 . S
C637 C638 1.366 . S
C637 C639 1.388 . S
C638 C637 1.366 . S
C638 C642 1.385 . S
C639 H614 0.951 . S
C639 C637 1.388 . S
C639 C640 1.366 . S
C640 C639 1.366 . S
C640 C641 1.414 . S
C640 C643 1.499 . S
C641 H615 0.950 . S
C641 C640 1.414 . S
C641 C642 1.374 . S
C642 H616 0.950 . S
C642 C638 1.385 . S
C642 C641 1.374 . S
C643 C640 1.499 . S
C643 C644 1.373 . S
C643 C645 1.389 . S
C644 H617 0.950 . S
C644 C630 1.377 . S
C644 C643 1.373 . S
C645 C629 1.377 . S
C645 C643 1.389 . S
C645 C646 1.524 . S
C646 C645 1.524 . S
C646 C647 1.397 . S
C646 C651 1.363 . S
C647 H618 0.950 . S
C647 C646 1.397 . S
C647 C648 1.334 . S
C648 H619 0.950 . S
C648 C647 1.334 . S
C648 C649 1.287 . S
C649 C648 1.287 . S
C649 C650 1.524 . S
C649 H652 0.999 . S
C650 H620 0.950 . S
C650 C649 1.524 . S
C650 C651 1.415 . S
C651 H621 0.950 . S
C651 C646 1.363 . S
C651 C650 1.415 . S
H652 C649 0.999 . S
H653 C634 0.913 . S
H654 C672 0.951 . S
H655 C674 0.951 . S
H656 C676 0.950 . S
H657 C677 0.950 . S
H658 C679 0.950 . S
H659 C682 0.950 . S
H660 C683 0.950 . S
H661 C685 0.950 . S
H662 C686 0.950 . S
H663 C687 0.951 . S
H664 C689 0.951 . S
H665 C691 0.950 . S
H666 C692 0.950 . S
H667 C694 0.950 . S
H668 C697 0.950 . S
H669 C698 0.950 . S
H670 C700 0.950 . S
H671 C701 0.950 . S
C672 H654 0.951 . S
C672 C673 1.366 . S
C672 C674 1.388 . S
C673 C672 1.366 . S
C673 C677 1.385 . S
C674 H655 0.951 . S
C674 C672 1.388 . S
C674 C675 1.366 . S
C675 C674 1.366 . S
C675 C676 1.414 . S
C675 C678 1.499 . S
C676 H656 0.950 . S
C676 C675 1.414 . S
C676 C677 1.374 . S
C677 H657 0.950 . S
C677 C673 1.385 . S
C677 C676 1.374 . S
C678 C675 1.499 . S
C678 C679 1.373 . S
C678 C680 1.389 . S
C679 H658 0.950 . S
C679 C678 1.373 . S
C679 C695 1.377 . S
C680 C678 1.389 . S
C680 C681 1.524 . S
C680 C694 1.377 . S
C681 C680 1.524 . S
C681 C682 1.397 . S
C681 C686 1.363 . S
C682 H659 0.950 . S
C682 C681 1.397 . S
C682 C683 1.334 . S
C683 H660 0.950 . S
C683 C682 1.334 . S
C683 C684 1.287 . S
C684 C683 1.287 . S
C684 C685 1.524 . S
C684 H703 0.913 . S
C685 H661 0.950 . S
C685 C684 1.524 . S
C685 C686 1.415 . S
C686 H662 0.950 . S
C686 C681 1.363 . S
C686 C685 1.415 . S
C687 H663 0.951 . S
C687 C688 1.366 . S
C687 C689 1.388 . S
C688 C687 1.366 . S
C688 C692 1.385 . S
C689 H664 0.951 . S
C689 C687 1.388 . S
C689 C690 1.366 . S
C690 C689 1.366 . S
C690 C691 1.414 . S
C690 C693 1.499 . S
C691 H665 0.950 . S
C691 C690 1.414 . S
C691 C692 1.374 . S
C692 H666 0.950 . S
C692 C688 1.385 . S
C692 C691 1.374 . S
C693 C690 1.499 . S
C693 C694 1.373 . S
C693 C695 1.389 . S
C694 H667 0.950 . S
C694 C680 1.377 . S
C694 C693 1.373 . S
C695 C679 1.377 . S
C695 C693 1.389 . S
C695 C696 1.524 . S
C696 C695 1.524 . S
C696 C697 1.397 . S
C696 C701 1.363 . S
C697 H668 0.950 . S
C697 C696 1.397 . S
C697 C698 1.334 . S
C698 H669 0.950 . S
C698 C697 1.334 . S
C698 C699 1.287 . S
C699 C698 1.287 . S
C699 C700 1.524 . S
C699 H702 0.999 . S
C700 H670 0.950 . S
C700 C699 1.524 . S
C700 C701 1.415 . S
C701 H671 0.950 . S
C701 C696 1.363 . S
C701 C700 1.415 . S
H702 C699 0.999 . S
H703 C684 0.913 . S
H704 C722 0.951 . S
H705 C724 0.951 . S
H706 C726 0.950 . S
H707 C727 0.950 . S
H708 C729 0.950 . S
H709 C732 0.950 . S
H710 C733 0.950 . S
H711 C735 0.950 1_545 S
H712 C736 0.950 . S
H713 C737 0.951 . S
H714 C739 0.951 . S
H715 C741 0.950 . S
H716 C742 0.950 . S
H717 C744 0.950 . S
H718 C747 0.950 . S
H719 C748 0.950 . S
H720 C750 0.950 . S
H721 C751 0.950 . S
C722 H704 0.951 . S
C722 C723 1.366 . S
C722 C724 1.388 . S
C723 C722 1.366 . S
C723 C727 1.385 . S
C724 H705 0.951 . S
C724 C722 1.388 . S
C724 C725 1.366 . S
C725 C724 1.366 . S
C725 C726 1.414 . S
C725 C728 1.499 . S
C726 H706 0.950 . S
C726 C725 1.414 . S
C726 C727 1.374 . S
C727 H707 0.950 . S
C727 C723 1.385 . S
C727 C726 1.374 . S
C728 C725 1.499 . S
C728 C729 1.373 . S
C728 C730 1.389 . S
C729 H708 0.950 . S
C729 C728 1.373 . S
C729 C745 1.377 . S
C730 C728 1.389 . S
C730 C731 1.524 . S
C730 C744 1.377 . S
C731 C730 1.524 . S
C731 C732 1.397 . S
C731 C736 1.363 . S
C732 H709 0.950 . S
C732 C731 1.397 . S
C732 C733 1.334 . S
C733 H710 0.950 . S
C733 C732 1.334 . S
C733 C734 1.287 . S
C734 C733 1.287 . S
C734 C735 1.524 . S
C734 H753 0.913 . S
C735 H711 0.950 1_565 S
C735 C734 1.524 . S
C735 C736 1.415 . S
C736 H712 0.950 . S
C736 C731 1.363 . S
C736 C735 1.415 . S
C737 H713 0.951 . S
C737 C738 1.366 . S
C737 C739 1.388 . S
C738 C737 1.366 . S
C738 C742 1.385 . S
C739 H714 0.951 . S
C739 C737 1.388 . S
C739 C740 1.366 . S
C740 C739 1.366 . S
C740 C741 1.414 . S
C740 C743 1.499 . S
C741 H715 0.950 . S
C741 C740 1.414 . S
C741 C742 1.374 . S
C742 H716 0.950 . S
C742 C738 1.385 . S
C742 C741 1.374 . S
C743 C740 1.499 . S
C743 C744 1.373 . S
C743 C745 1.389 . S
C744 H717 0.950 . S
C744 C730 1.377 . S
C744 C743 1.373 . S
C745 C729 1.377 . S
C745 C743 1.389 . S
C745 C746 1.524 . S
C746 C745 1.524 . S
C746 C747 1.397 . S
C746 C751 1.363 . S
C747 H718 0.950 . S
C747 C746 1.397 . S
C747 C748 1.334 . S
C748 H719 0.950 . S
C748 C747 1.334 . S
C748 C749 1.287 . S
C749 C748 1.287 . S
C749 C750 1.524 . S
C749 H752 0.999 . S
C750 H720 0.950 . S
C750 C749 1.524 . S
C750 C751 1.415 . S
C751 H721 0.950 . S
C751 C746 1.363 . S
C751 C750 1.415 . S
H752 C749 0.999 . S
H753 C734 0.913 . S
H754 C772 0.951 . S
H755 C774 0.951 . S
H756 C776 0.950 . S
H757 C777 0.950 . S
H758 C779 0.950 . S
H759 C782 0.950 . S
H760 C783 0.950 . S
H761 C785 0.950 . S
H762 C786 0.950 . S
H763 C787 0.951 . S
H764 C789 0.951 . S
H765 C791 0.950 . S
H766 C792 0.950 . S
H767 C794 0.950 . S
H768 C797 0.950 . S
H769 C798 0.950 . S
H770 C800 0.950 . S
H771 C801 0.950 . S
C772 H754 0.951 . S
C772 C773 1.366 . S
C772 C774 1.388 . S
C773 C772 1.366 . S
C773 C777 1.385 . S
C774 H755 0.951 . S
C774 C772 1.388 . S
C774 C775 1.366 . S
C775 C774 1.366 . S
C775 C776 1.414 . S
C775 C778 1.499 . S
C776 H756 0.950 . S
C776 C775 1.414 . S
C776 C777 1.374 . S
C777 H757 0.950 . S
C777 C773 1.385 . S
C777 C776 1.374 . S
C778 C775 1.499 . S
C778 C779 1.373 . S
C778 C780 1.389 . S
C779 H758 0.950 . S
C779 C778 1.373 . S
C779 C795 1.377 . S
C780 C778 1.389 . S
C780 C781 1.524 . S
C780 C794 1.377 . S
C781 C780 1.524 . S
C781 C782 1.397 . S
C781 C786 1.363 . S
C782 H759 0.950 . S
C782 C781 1.397 . S
C782 C783 1.334 . S
C783 H760 0.950 . S
C783 C782 1.334 . S
C783 C784 1.287 . S
C784 C783 1.287 . S
C784 C785 1.524 . S
C784 H803 0.913 . S
C785 H761 0.950 . S
C785 C784 1.524 . S
C785 C786 1.415 . S
C786 H762 0.950 . S
C786 C781 1.363 . S
C786 C785 1.415 . S
C787 H763 0.951 . S
C787 C788 1.366 . S
C787 C789 1.388 . S
C788 C787 1.366 . S
C788 C792 1.385 . S
C789 H764 0.951 . S
C789 C787 1.388 . S
C789 C790 1.366 . S
C790 C789 1.366 . S
C790 C791 1.414 . S
C790 C793 1.499 . S
C791 H765 0.950 . S
C791 C790 1.414 . S
C791 C792 1.374 . S
C792 H766 0.950 . S
C792 C788 1.385 . S
C792 C791 1.374 . S
C793 C790 1.499 . S
C793 C794 1.373 . S
C793 C795 1.389 . S
C794 H767 0.950 . S
C794 C780 1.377 . S
C794 C793 1.373 . S
C795 C779 1.377 . S
C795 C793 1.389 . S
C795 C796 1.524 . S
C796 C795 1.524 . S
C796 C797 1.397 . S
C796 C801 1.363 . S
C797 H768 0.950 . S
C797 C796 1.397 . S
C797 C798 1.334 . S
C798 H769 0.950 . S
C798 C797 1.334 . S
C798 C799 1.287 . S
C799 C798 1.287 . S
C799 C800 1.524 . S
C799 H802 0.999 . S
C800 H770 0.950 . S
C800 C799 1.524 . S
C800 C801 1.415 . S
C801 H771 0.950 . S
C801 C796 1.363 . S
C801 C800 1.415 . S
H802 C799 0.999 . S
H803 C784 0.913 . S
H804 C822 0.951 . S
H805 C824 0.951 . S
H806 C826 0.950 . S
H807 C827 0.950 . S
H808 C829 0.950 . S
H809 C832 0.950 . S
H810 C833 0.950 . S
H811 C835 0.950 . S
H812 C836 0.950 . S
H813 C837 0.951 . S
H814 C839 0.951 . S
H815 C841 0.950 . S
H816 C842 0.950 . S
H817 C844 0.950 . S
H818 C847 0.950 . S
H819 C848 0.950 1_556 S
H820 C850 0.950 . S
H821 C851 0.950 . S
C822 H804 0.951 . S
C822 C823 1.366 . S
C822 C824 1.388 . S
C823 C822 1.366 . S
C823 C827 1.385 . S
C824 H805 0.951 . S
C824 C822 1.388 . S
C824 C825 1.366 . S
C825 C824 1.366 . S
C825 C826 1.414 . S
C825 C828 1.499 . S
C826 H806 0.950 . S
C826 C825 1.414 . S
C826 C827 1.374 . S
C827 H807 0.950 . S
C827 C823 1.385 . S
C827 C826 1.374 . S
C828 C825 1.499 . S
C828 C829 1.373 . S
C828 C830 1.389 . S
C829 H808 0.950 . S
C829 C828 1.373 . S
C829 C845 1.377 . S
C830 C828 1.389 . S
C830 C831 1.524 . S
C830 C844 1.377 . S
C831 C830 1.524 . S
C831 C832 1.397 . S
C831 C836 1.363 . S
C832 H809 0.950 . S
C832 C831 1.397 . S
C832 C833 1.334 . S
C833 H810 0.950 . S
C833 C832 1.334 . S
C833 C834 1.287 . S
C834 C833 1.287 . S
C834 C835 1.524 . S
C834 H853 0.913 . S
C835 H811 0.950 . S
C835 C834 1.524 . S
C835 C836 1.415 . S
C836 H812 0.950 . S
C836 C831 1.363 . S
C836 C835 1.415 . S
C837 H813 0.951 . S
C837 C838 1.366 . S
C837 C839 1.388 . S
C838 C837 1.366 . S
C838 C842 1.385 . S
C839 H814 0.951 . S
C839 C837 1.388 . S
C839 C840 1.366 . S
C840 C839 1.366 . S
C840 C841 1.414 . S
C840 C843 1.499 . S
C841 H815 0.950 . S
C841 C840 1.414 . S
C841 C842 1.374 . S
C842 H816 0.950 . S
C842 C838 1.385 . S
C842 C841 1.374 . S
C843 C840 1.499 . S
C843 C844 1.373 . S
C843 C845 1.389 . S
C844 H817 0.950 . S
C844 C830 1.377 . S
C844 C843 1.373 . S
C845 C829 1.377 . S
C845 C843 1.389 . S
C845 C846 1.524 . S
C846 C845 1.524 . S
C846 C847 1.397 . S
C846 C851 1.363 . S
C847 H818 0.950 . S
C847 C846 1.397 . S
C847 C848 1.334 . S
C848 H819 0.950 1_554 S
C848 C847 1.334 . S
C848 C849 1.287 . S
C849 C848 1.287 . S
C849 C850 1.524 . S
C849 H852 1.013 . S
C850 H820 0.950 . S
C850 C849 1.524 . S
C850 C851 1.415 . S
C851 H821 0.950 . S
C851 C846 1.363 . S
C851 C850 1.415 . S
H852 C849 1.013 . S
H853 C834 0.913 . S
H854 C872 0.951 . S
H855 C874 0.951 . S
H856 C876 0.950 . S
H857 C877 0.950 . S
H858 C879 0.950 . S
H859 C882 0.950 . S
H860 C883 0.950 . S
H861 C885 0.950 . S
H862 C886 0.950 . S
H863 C887 0.951 . S
H864 C889 0.951 . S
H865 C891 0.950 . S
H866 C892 0.950 1_556 S
H867 C894 0.950 . S
H868 C897 0.950 . S
H869 C898 0.950 . S
H870 C900 0.950 . S
H871 C901 0.950 . S
C872 H854 0.951 . S
C872 C873 1.366 . S
C872 C874 1.388 . S
C873 C872 1.366 . S
C873 C877 1.385 . S
C874 H855 0.951 . S
C874 C872 1.388 . S
C874 C875 1.366 . S
C875 C874 1.366 . S
C875 C876 1.414 . S
C875 C878 1.499 . S
C876 H856 0.950 . S
C876 C875 1.414 . S
C876 C877 1.374 . S
C877 H857 0.950 . S
C877 C873 1.385 . S
C877 C876 1.374 . S
C878 C875 1.499 . S
C878 C879 1.373 . S
C878 C880 1.389 . S
C879 H858 0.950 . S
C879 C878 1.373 . S
C879 C895 1.377 . S
C880 C878 1.389 . S
C880 C881 1.524 . S
C880 C894 1.377 . S
C881 C880 1.524 . S
C881 C882 1.397 . S
C881 C886 1.363 . S
C882 H859 0.950 . S
C882 C881 1.397 . S
C882 C883 1.334 . S
C883 H860 0.950 . S
C883 C882 1.334 . S
C883 C884 1.287 . S
C884 C883 1.287 . S
C884 C885 1.524 . S
C884 H903 0.913 . S
C885 H861 0.950 . S
C885 C884 1.524 . S
C885 C886 1.415 . S
C886 H862 0.950 . S
C886 C881 1.363 . S
C886 C885 1.415 . S
C887 H863 0.951 . S
C887 C888 1.366 . S
C887 C889 1.388 . S
C888 C887 1.366 . S
C888 C892 1.385 . S
C889 H864 0.951 . S
C889 C887 1.388 . S
C889 C890 1.366 . S
C890 C889 1.366 . S
C890 C891 1.414 . S
C890 C893 1.499 . S
C891 H865 0.950 . S
C891 C890 1.414 . S
C891 C892 1.374 . S
C892 H866 0.950 1_554 S
C892 C888 1.385 . S
C892 C891 1.374 . S
C893 C890 1.499 . S
C893 C894 1.373 . S
C893 C895 1.389 . S
C894 H867 0.950 . S
C894 C880 1.377 . S
C894 C893 1.373 . S
C895 C879 1.377 . S
C895 C893 1.389 . S
C895 C896 1.524 . S
C896 C895 1.524 . S
C896 C897 1.397 . S
C896 C901 1.363 . S
C897 H868 0.950 . S
C897 C896 1.397 . S
C897 C898 1.334 . S
C898 H869 0.950 . S
C898 C897 1.334 . S
C898 C899 1.287 . S
C899 C898 1.287 . S
C899 C900 1.524 . S
C899 H902 0.999 . S
C900 H870 0.950 . S
C900 C899 1.524 . S
C900 C901 1.415 . S
C901 H871 0.950 . S
C901 C896 1.363 . S
C901 C900 1.415 . S
H902 C899 0.999 . S
H903 C884 0.913 . S
H904 C922 0.951 . S
H905 C924 0.951 . S
H906 C926 0.950 . S
H907 C927 0.950 . S
H908 C929 0.950 . S
H909 C932 0.950 . S
H910 C933 0.950 . S
H911 C935 0.950 1_556 S
H912 C936 0.950 . S
H913 C937 0.951 . S
H914 C939 0.951 . S
H915 C941 0.950 . S
H916 C942 0.950 . S
H917 C944 0.950 . S
H918 C947 0.950 . S
H919 C948 0.950 . S
H920 C950 0.950 . S
H921 C951 0.950 . S
C922 H904 0.951 . S
C922 C923 1.366 . S
C922 C924 1.388 . S
C923 C922 1.366 . S
C923 C927 1.385 . S
C924 H905 0.951 . S
C924 C922 1.388 . S
C924 C925 1.366 . S
C925 C924 1.366 . S
C925 C926 1.414 . S
C925 C928 1.499 . S
C926 H906 0.950 . S
C926 C925 1.414 . S
C926 C927 1.374 . S
C927 H907 0.950 . S
C927 C923 1.385 . S
C927 C926 1.374 . S
C928 C925 1.499 . S
C928 C929 1.373 . S
C928 C930 1.389 . S
C929 H908 0.950 . S
C929 C928 1.373 . S
C929 C945 1.377 . S
C930 C928 1.389 . S
C930 C931 1.524 . S
C930 C944 1.377 . S
C931 C930 1.524 . S
C931 C932 1.397 . S
C931 C936 1.363 . S
C932 H909 0.950 . S
C932 C931 1.397 . S
C932 C933 1.334 . S
C933 H910 0.950 . S
C933 C932 1.334 . S
C933 C934 1.287 . S
C934 C933 1.287 . S
C934 C935 1.524 . S
C934 H953 0.913 . S
C935 H911 0.950 1_554 S
C935 C934 1.524 . S
C935 C936 1.415 . S
C936 H912 0.950 . S
C936 C931 1.363 . S
C936 C935 1.415 . S
C937 H913 0.951 . S
C937 C938 1.366 . S
C937 C939 1.388 . S
C938 C937 1.366 . S
C938 C942 1.385 . S
C939 H914 0.951 . S
C939 C937 1.388 . S
C939 C940 1.366 . S
C940 C939 1.366 . S
C940 C941 1.414 . S
C940 C943 1.499 . S
C941 H915 0.950 . S
C941 C940 1.414 . S
C941 C942 1.374 . S
C942 H916 0.950 . S
C942 C938 1.385 . S
C942 C941 1.374 . S
C943 C940 1.499 . S
C943 C944 1.373 . S
C943 C945 1.389 . S
C944 H917 0.950 . S
C944 C930 1.377 . S
C944 C943 1.373 . S
C945 C929 1.377 . S
C945 C943 1.389 . S
C945 C946 1.524 . S
C946 C945 1.524 . S
C946 C947 1.397 . S
C946 C951 1.363 . S
C947 H918 0.950 . S
C947 C946 1.397 . S
C947 C948 1.334 . S
C948 H919 0.950 . S
C948 C947 1.334 . S
C948 C949 1.287 . S
C949 C948 1.287 . S
C949 C950 1.524 . S
C949 H952 0.999 . S
C950 H920 0.950 . S
C950 C949 1.524 . S
C950 C951 1.415 . S
C951 H921 0.950 . S
C951 C946 1.363 . S
C951 C950 1.415 . S
H952 C949 0.999 . S
H953 C934 0.913 . S
H954 C972 0.951 . S
H955 C974 0.951 . S
H956 C976 0.950 . S
H957 C977 0.950 . S
H958 C979 0.950 . S
H959 C982 0.950 . S
H960 C983 0.950 . S
H961 C985 0.950 . S
H962 C986 0.950 . S
H963 C987 0.951 . S
H964 C989 0.951 . S
H965 C991 0.950 . S
H966 C992 0.950 . S
H967 C994 0.950 . S
H968 C997 0.950 . S
H969 C998 0.950 . S
H970 C1000 0.950 . S
H971 C1001 0.950 . S
C972 H954 0.951 . S
C972 C973 1.366 . S
C972 C974 1.388 . S
C973 C972 1.366 . S
C973 C977 1.385 . S
C974 H955 0.951 . S
C974 C972 1.388 . S
C974 C975 1.366 . S
C975 C974 1.366 . S
C975 C976 1.414 . S
C975 C978 1.499 . S
C976 H956 0.950 . S
C976 C975 1.414 . S
C976 C977 1.374 . S
C977 H957 0.950 . S
C977 C973 1.385 . S
C977 C976 1.374 . S
C978 C975 1.499 . S
C978 C979 1.373 . S
C978 C980 1.389 . S
C979 H958 0.950 . S
C979 C978 1.373 . S
C979 C995 1.377 . S
C980 C978 1.389 . S
C980 C981 1.524 . S
C980 C994 1.377 . S
C981 C980 1.524 . S
C981 C982 1.397 . S
C981 C986 1.363 . S
C982 H959 0.950 . S
C982 C981 1.397 . S
C982 C983 1.334 . S
C983 H960 0.950 . S
C983 C982 1.334 . S
C983 C984 1.287 . S
C984 C983 1.287 . S
C984 C985 1.524 . S
C984 H1003 0.913 . S
C985 H961 0.950 . S
C985 C984 1.524 . S
C985 C986 1.415 . S
C986 H962 0.950 . S
C986 C981 1.363 . S
C986 C985 1.415 . S
C987 H963 0.951 . S
C987 C988 1.366 . S
C987 C989 1.388 . S
C988 C987 1.366 . S
C988 C992 1.385 . S
C989 H964 0.951 . S
C989 C987 1.388 . S
C989 C990 1.366 . S
C990 C989 1.366 . S
C990 C991 1.414 . S
C990 C993 1.499 . S
C991 H965 0.950 . S
C991 C990 1.414 . S
C991 C992 1.374 . S
C992 H966 0.950 . S
C992 C988 1.385 . S
C992 C991 1.374 . S
C993 C990 1.499 . S
C993 C994 1.373 . S
C993 C995 1.389 . S
C994 H967 0.950 . S
C994 C980 1.377 . S
C994 C993 1.373 . S
C995 C979 1.377 . S
C995 C993 1.389 . S
C995 C996 1.524 . S
C996 C995 1.524 . S
C996 C997 1.397 . S
C996 C1001 1.363 . S
C997 H968 0.950 . S
C997 C996 1.397 . S
C997 C998 1.334 . S
C998 H969 0.950 . S
C998 C997 1.334 . S
C998 C999 1.287 . S
C999 C998 1.287 . S
C999 C1000 1.524 . S
C999 H1002 0.999 . S
C1000 H970 0.950 . S
C1000 C999 1.524 . S
C1000 C1001 1.415 . S
C1001 H971 0.950 . S
C1001 C996 1.363 . S
C1001 C1000 1.415 . S
H1002 C999 0.999 . S
H1003 C984 0.913 . S
H1004 C1022 0.951 . S
H1005 C1024 0.951 . S
H1006 C1026 0.950 . S
H1007 C1027 0.950 . S
H1008 C1029 0.950 . S
H1009 C1032 0.950 . S
H1010 C1033 0.950 . S
H1011 C1035 0.950 . S
H1012 C1036 0.950 . S
H1013 C1037 0.951 . S
H1014 C1039 0.951 . S
H1015 C1041 0.950 . S
H1016 C1042 0.950 . S
H1017 C1044 0.950 . S
H1018 C1047 0.950 . S
H1019 C1048 0.950 . S
H1020 C1050 0.950 . S
H1021 C1051 0.950 . S
C1022 H1004 0.951 . S
C1022 C1023 1.366 . S
C1022 C1024 1.388 . S
C1023 C1022 1.366 . S
C1023 C1027 1.385 . S
C1024 H1005 0.951 . S
C1024 C1022 1.388 . S
C1024 C1025 1.366 . S
C1025 C1024 1.366 . S
C1025 C1026 1.414 . S
C1025 C1028 1.499 . S
C1026 H1006 0.950 . S
C1026 C1025 1.414 . S
C1026 C1027 1.374 . S
C1027 H1007 0.950 . S
C1027 C1023 1.385 . S
C1027 C1026 1.374 . S
C1028 C1025 1.499 . S
C1028 C1029 1.373 . S
C1028 C1030 1.389 . S
C1029 H1008 0.950 . S
C1029 C1028 1.373 . S
C1029 C1045 1.377 . S
C1030 C1028 1.389 . S
C1030 C1031 1.524 . S
C1030 C1044 1.377 . S
C1031 C1030 1.524 . S
C1031 C1032 1.397 . S
C1031 C1036 1.363 . S
C1032 H1009 0.950 . S
C1032 C1031 1.397 . S
C1032 C1033 1.334 . S
C1033 H1010 0.950 . S
C1033 C1032 1.334 . S
C1033 C1034 1.287 . S
C1034 C1033 1.287 . S
C1034 C1035 1.524 . S
C1034 H1053 0.913 . S
C1035 H1011 0.950 . S
C1035 C1034 1.524 . S
C1035 C1036 1.415 . S
C1036 H1012 0.950 . S
C1036 C1031 1.363 . S
C1036 C1035 1.415 . S
C1037 H1013 0.951 . S
C1037 C1038 1.366 . S
C1037 C1039 1.388 . S
C1038 C1037 1.366 . S
C1038 C1042 1.385 . S
C1039 H1014 0.951 . S
C1039 C1037 1.388 . S
C1039 C1040 1.366 . S
C1040 C1039 1.366 . S
C1040 C1041 1.414 . S
C1040 C1043 1.499 . S
C1041 H1015 0.950 . S
C1041 C1040 1.414 . S
C1041 C1042 1.374 . S
C1042 H1016 0.950 . S
C1042 C1038 1.385 . S
C1042 C1041 1.374 . S
C1043 C1040 1.499 . S
C1043 C1044 1.373 . S
C1043 C1045 1.389 . S
C1044 H1017 0.950 . S
C1044 C1030 1.377 . S
C1044 C1043 1.373 . S
C1045 C1029 1.377 . S
C1045 C1043 1.389 . S
C1045 C1046 1.524 . S
C1046 C1045 1.524 . S
C1046 C1047 1.397 . S
C1046 C1051 1.363 . S
C1047 H1018 0.950 . S
C1047 C1046 1.397 . S
C1047 C1048 1.334 . S
C1048 H1019 0.950 . S
C1048 C1047 1.334 . S
C1048 C1049 1.287 . S
C1049 C1048 1.287 . S
C1049 C1050 1.524 . S
C1049 H1052 0.999 . S
C1050 H1020 0.950 . S
C1050 C1049 1.524 . S
C1050 C1051 1.415 . S
C1051 H1021 0.950 . S
C1051 C1046 1.363 . S
C1051 C1050 1.415 . S
H1052 C1049 0.999 . S
H1053 C1034 0.913 . S
H1054 C1072 0.951 . S
H1055 C1074 0.951 . S
H1056 C1076 0.950 . S
H1057 C1077 0.950 . S
H1058 C1079 0.950 . S
H1059 C1082 0.950 . S
H1060 C1083 0.950 . S
H1061 C1085 0.950 . S
H1062 C1086 0.950 . S
H1063 C1087 0.951 . S
H1064 C1089 0.951 . S
H1065 C1091 0.950 . S
H1066 C1092 0.950 . S
H1067 C1094 0.950 . S
H1068 C1097 0.950 . S
H1069 C1098 0.975 . S
H1070 C1100 0.950 . S
H1071 C1101 0.950 . S
C1072 H1054 0.951 . S
C1072 C1073 1.366 . S
C1072 C1074 1.388 . S
C1073 C1072 1.366 . S
C1073 C1077 1.385 . S
C1074 H1055 0.951 . S
C1074 C1072 1.388 . S
C1074 C1075 1.366 . S
C1075 C1074 1.366 . S
C1075 C1076 1.414 . S
C1075 C1078 1.499 . S
C1076 H1056 0.950 . S
C1076 C1075 1.414 . S
C1076 C1077 1.374 . S
C1077 H1057 0.950 . S
C1077 C1073 1.385 . S
C1077 C1076 1.374 . S
C1078 C1075 1.499 . S
C1078 C1079 1.373 . S
C1078 C1080 1.389 . S
C1079 H1058 0.950 . S
C1079 C1078 1.373 . S
C1079 C1095 1.377 . S
C1080 C1078 1.389 . S
C1080 C1081 1.524 . S
C1080 C1094 1.377 . S
C1081 C1080 1.524 . S
C1081 C1082 1.397 . S
C1081 C1086 1.363 . S
C1082 H1059 0.950 . S
C1082 C1081 1.397 . S
C1082 C1083 1.334 . S
C1083 H1060 0.950 . S
C1083 C1082 1.334 . S
C1083 C1084 1.287 . S
C1084 C1083 1.287 . S
C1084 C1085 1.524 . S
C1084 H1103 0.913 . S
C1085 H1061 0.950 . S
C1085 C1084 1.524 . S
C1085 C1086 1.415 . S
C1086 H1062 0.950 . S
C1086 C1081 1.363 . S
C1086 C1085 1.415 . S
C1087 H1063 0.951 . S
C1087 C1088 1.366 . S
C1087 C1089 1.388 . S
C1088 C1087 1.366 . S
C1088 C1092 1.385 . S
C1089 H1064 0.951 . S
C1089 C1087 1.388 . S
C1089 C1090 1.366 . S
C1090 C1089 1.366 . S
C1090 C1091 1.414 . S
C1090 C1093 1.499 . S
C1091 H1065 0.950 . S
C1091 C1090 1.414 . S
C1091 C1092 1.374 . S
C1092 H1066 0.950 . S
C1092 C1088 1.385 . S
C1092 C1091 1.374 . S
C1093 C1090 1.499 . S
C1093 C1094 1.373 . S
C1093 C1095 1.389 . S
C1094 H1067 0.950 . S
C1094 C1080 1.377 . S
C1094 C1093 1.373 . S
C1095 C1079 1.377 . S
C1095 C1093 1.389 . S
C1095 C1096 1.524 . S
C1096 C1095 1.524 . S
C1096 C1097 1.397 . S
C1096 C1101 1.363 . S
C1097 H1068 0.950 . S
C1097 C1096 1.397 . S
C1097 C1098 1.334 . S
C1098 H1069 0.975 . S
C1098 C1097 1.334 . S
C1098 C1099 1.287 1_655 S
C1099 C1098 1.287 1_455 S
C1099 C1100 1.524 . S
C1099 H1102 0.999 . S
C1100 H1070 0.950 . S
C1100 C1099 1.524 . S
C1100 C1101 1.415 1_455 S
C1101 H1071 0.950 . S
C1101 C1096 1.363 . S
C1101 C1100 1.415 1_655 S
H1102 C1099 0.999 . S
H1103 C1084 0.913 . S
H1104 C1122 0.951 . S
H1105 C1124 0.951 . S
H1106 C1126 0.950 . S
H1107 C1127 0.950 . S
H1108 C1129 0.950 . S
H1109 C1132 0.950 . S
H1110 C1133 0.950 . S
H1111 C1135 0.950 . S
H1112 C1136 0.950 . S
H1113 C1137 0.951 . S
H1114 C1139 0.951 . S
H1115 C1141 0.950 . S
H1116 C1142 0.950 . S
H1117 C1144 0.950 . S
H1118 C1147 0.950 . S
H1119 C1148 0.950 . S
H1120 C1150 0.950 . S
H1121 C1151 0.950 . S
C1122 H1104 0.951 . S
C1122 C1123 1.366 . S
C1122 C1124 1.388 . S
C1123 C1122 1.366 . S
C1123 C1127 1.385 . S
C1124 H1105 0.951 . S
C1124 C1122 1.388 . S
C1124 C1125 1.366 . S
C1125 C1124 1.366 . S
C1125 C1126 1.414 . S
C1125 C1128 1.499 . S
C1126 H1106 0.950 . S
C1126 C1125 1.414 . S
C1126 C1127 1.374 . S
C1127 H1107 0.950 . S
C1127 C1123 1.385 . S
C1127 C1126 1.374 . S
C1128 C1125 1.499 . S
C1128 C1129 1.373 . S
C1128 C1130 1.389 . S
C1129 H1108 0.950 . S
C1129 C1128 1.373 . S
C1129 C1145 1.377 1_455 S
C1130 C1128 1.389 . S
C1130 C1131 1.524 . S
C1130 C1144 1.377 1_455 S
C1131 C1130 1.524 . S
C1131 C1132 1.397 . S
C1131 C1136 1.363 . S
C1132 H1109 0.950 . S
C1132 C1131 1.397 . S
C1132 C1133 1.334 . S
C1133 H1110 0.950 . S
C1133 C1132 1.334 . S
C1133 C1134 1.287 . S
C1134 C1133 1.287 . S
C1134 C1135 1.524 . S
C1134 H1153 0.913 . S
C1135 H1111 0.950 . S
C1135 C1134 1.524 . S
C1135 C1136 1.415 . S
C1136 H1112 0.950 . S
C1136 C1131 1.363 . S
C1136 C1135 1.415 . S
C1137 H1113 0.951 . S
C1137 C1138 1.366 . S
C1137 C1139 1.388 . S
C1138 C1137 1.366 . S
C1138 C1142 1.385 . S
C1139 H1114 0.951 . S
C1139 C1137 1.388 . S
C1139 C1140 1.366 . S
C1140 C1139 1.366 . S
C1140 C1141 1.414 . S
C1140 C1143 1.499 . S
C1141 H1115 0.950 . S
C1141 C1140 1.414 . S
C1141 C1142 1.374 . S
C1142 H1116 0.950 . S
C1142 C1138 1.385 . S
C1142 C1141 1.374 . S
C1143 C1140 1.499 . S
C1143 C1144 1.373 . S
C1143 C1145 1.389 . S
C1144 H1117 0.950 . S
C1144 C1130 1.377 1_655 S
C1144 C1143 1.373 . S
C1145 C1129 1.377 1_655 S
C1145 C1143 1.389 . S
C1145 C1146 1.524 . S
C1146 C1145 1.524 . S
C1146 C1147 1.397 . S
C1146 C1151 1.363 . S
C1147 H1118 0.950 . S
C1147 C1146 1.397 . S
C1147 C1148 1.334 . S
C1148 H1119 0.950 . S
C1148 C1147 1.334 . S
C1148 C1149 1.287 . S
C1149 C1148 1.287 . S
C1149 C1150 1.524 . S
C1149 H1152 0.999 . S
C1150 H1120 0.950 . S
C1150 C1149 1.524 . S
C1150 C1151 1.415 . S
C1151 H1121 0.950 . S
C1151 C1146 1.363 . S
C1151 C1150 1.415 . S
H1152 C1149 0.999 . S
H1153 C1134 0.913 . S
H1154 C1172 0.951 . S
H1155 C1174 0.951 . S
H1156 C1176 0.950 . S
H1157 C1177 0.950 . S
H1158 C1179 0.950 . S
H1159 C1182 0.950 . S
H1160 C1183 0.950 . S
H1161 C1185 0.950 . S
H1162 C1186 0.950 . S
H1163 C1187 0.951 . S
H1164 C1189 0.951 . S
H1165 C1191 0.950 . S
H1166 C1192 0.950 . S
H1167 C1194 0.950 . S
H1168 C1197 0.950 . S
H1169 C1198 0.950 . S
H1170 C1200 0.950 . S
H1171 C1201 0.950 . S
C1172 H1154 0.951 . S
C1172 C1173 1.366 . S
C1172 C1174 1.388 . S
C1173 C1172 1.366 . S
C1173 C1177 1.385 . S
C1174 H1155 0.951 . S
C1174 C1172 1.388 . S
C1174 C1175 1.366 . S
C1175 C1174 1.366 . S
C1175 C1176 1.414 . S
C1175 C1178 1.499 . S
C1176 H1156 0.950 . S
C1176 C1175 1.414 . S
C1176 C1177 1.374 . S
C1177 H1157 0.950 . S
C1177 C1173 1.385 . S
C1177 C1176 1.374 . S
C1178 C1175 1.499 . S
C1178 C1179 1.373 . S
C1178 C1180 1.389 . S
C1179 H1158 0.950 . S
C1179 C1178 1.373 . S
C1179 C1195 1.377 . S
C1180 C1178 1.389 . S
C1180 C1181 1.524 . S
C1180 C1194 1.377 . S
C1181 C1180 1.524 . S
C1181 C1182 1.397 . S
C1181 C1186 1.363 . S
C1182 H1159 0.950 . S
C1182 C1181 1.397 . S
C1182 C1183 1.334 . S
C1183 H1160 0.950 . S
C1183 C1182 1.334 . S
C1183 C1184 1.287 . S
C1184 C1183 1.287 . S
C1184 C1185 1.524 . S
C1184 H1203 0.913 . S
C1185 H1161 0.950 . S
C1185 C1184 1.524 . S
C1185 C1186 1.415 . S
C1186 H1162 0.950 . S
C1186 C1181 1.363 . S
C1186 C1185 1.415 . S
C1187 H1163 0.951 . S
C1187 C1188 1.366 . S
C1187 C1189 1.388 . S
C1188 C1187 1.366 . S
C1188 C1192 1.385 . S
C1189 H1164 0.951 . S
C1189 C1187 1.388 . S
C1189 C1190 1.366 . S
C1190 C1189 1.366 . S
C1190 C1191 1.414 . S
C1190 C1193 1.499 . S
C1191 H1165 0.950 . S
C1191 C1190 1.414 . S
C1191 C1192 1.374 . S
C1192 H1166 0.950 . S
C1192 C1188 1.385 . S
C1192 C1191 1.374 . S
C1193 C1190 1.499 . S
C1193 C1194 1.373 . S
C1193 C1195 1.389 . S
C1194 H1167 0.950 . S
C1194 C1180 1.377 . S
C1194 C1193 1.373 . S
C1195 C1179 1.377 . S
C1195 C1193 1.389 . S
C1195 C1196 1.524 . S
C1196 C1195 1.524 . S
C1196 C1197 1.397 . S
C1196 C1201 1.363 . S
C1197 H1168 0.950 . S
C1197 C1196 1.397 . S
C1197 C1198 1.334 . S
C1198 H1169 0.950 . S
C1198 C1197 1.334 . S
C1198 C1199 1.287 . S
C1199 C1198 1.287 . S
C1199 C1200 1.524 . S
C1199 H1202 0.999 . S
C1200 H1170 0.950 . S
C1200 C1199 1.524 . S
C1200 C1201 1.415 . S
C1201 H1171 0.950 . S
C1201 C1196 1.363 . S
C1201 C1200 1.415 . S
H1202 C1199 0.999 . S
H1203 C1184 0.913 . S
H1204 C1222 0.951 . S
H1205 C1224 0.951 . S
H1206 C1226 0.950 . S
H1207 C1227 0.950 . S
H1208 C1229 0.962 . S
H1209 C1232 0.950 . S
H1210 C1233 0.950 . S
H1211 C1235 0.950 . S
H1212 C1236 0.950 . S
H1213 C1237 0.951 . S
H1214 C1239 0.951 . S
H1215 C1241 0.950 . S
H1216 C1242 0.950 . S
H1217 C1244 0.962 . S
H1218 C1247 0.950 . S
H1219 C1248 0.950 . S
H1220 C1250 0.950 . S
H1221 C1251 0.950 . S
C1222 H1204 0.951 . S
C1222 C1223 1.366 . S
C1222 C1224 1.388 . S
C1223 C1222 1.366 . S
C1223 C1227 1.385 . S
C1224 H1205 0.951 . S
C1224 C1222 1.388 . S
C1224 C1225 1.366 . S
C1225 C1224 1.366 . S
C1225 C1226 1.414 . S
C1225 C1228 1.499 . S
C1226 H1206 0.950 . S
C1226 C1225 1.414 . S
C1226 C1227 1.374 . S
C1227 H1207 0.950 . S
C1227 C1223 1.385 . S
C1227 C1226 1.374 . S
C1228 C1225 1.499 . S
C1228 C1229 1.420 . S
C1228 C1230 1.389 . S
C1229 H1208 0.962 . S
C1229 C1228 1.420 . S
C1229 C1245 1.323 1_565 S
C1230 C1228 1.389 . S
C1230 C1231 1.524 . S
C1230 C1244 1.322 1_565 S
C1231 C1230 1.524 . S
C1231 C1232 1.397 . S
C1231 C1236 1.363 . S
C1232 H1209 0.950 . S
C1232 C1231 1.397 . S
C1232 C1233 1.334 . S
C1233 H1210 0.950 . S
C1233 C1232 1.334 . S
C1233 C1234 1.287 . S
C1234 C1233 1.287 . S
C1234 C1235 1.524 . S
C1234 H1253 0.913 . S
C1235 H1211 0.950 . S
C1235 C1234 1.524 . S
C1235 C1236 1.415 . S
C1236 H1212 0.950 . S
C1236 C1231 1.363 . S
C1236 C1235 1.415 . S
C1237 H1213 0.951 . S
C1237 C1238 1.366 . S
C1237 C1239 1.388 . S
C1238 C1237 1.366 . S
C1238 C1242 1.385 . S
C1239 H1214 0.951 . S
C1239 C1237 1.388 . S
C1239 C1240 1.366 . S
C1240 C1239 1.366 . S
C1240 C1241 1.414 . S
C1240 C1243 1.499 . S
C1241 H1215 0.950 . S
C1241 C1240 1.414 . S
C1241 C1242 1.374 . S
C1242 H1216 0.950 . S
C1242 C1238 1.385 . S
C1242 C1241 1.374 . S
C1243 C1240 1.499 . S
C1243 C1244 1.421 . S
C1243 C1245 1.389 . S
C1244 H1217 0.962 . S
C1244 C1230 1.322 1_545 S
C1244 C1243 1.421 . S
C1245 C1229 1.323 1_545 S
C1245 C1243 1.389 . S
C1245 C1246 1.524 . S
C1246 C1245 1.524 . S
C1246 C1247 1.397 . S
C1246 C1251 1.363 . S
C1247 H1218 0.950 . S
C1247 C1246 1.397 . S
C1247 C1248 1.334 . S
C1248 H1219 0.950 . S
C1248 C1247 1.334 . S
C1248 C1249 1.287 . S
C1249 C1248 1.287 . S
C1249 C1250 1.524 . S
C1249 H1252 0.999 . S
C1250 H1220 0.950 . S
C1250 C1249 1.524 . S
C1250 C1251 1.415 . S
C1251 H1221 0.950 . S
C1251 C1246 1.363 . S
C1251 C1250 1.415 . S
H1252 C1249 0.999 . S
H1253 C1234 0.913 . S
H1254 C1272 0.951 . S
H1255 C1274 0.951 . S
H1256 C1276 0.950 . S
H1257 C1277 0.950 . S
H1258 C1279 0.950 . S
H1259 C1282 0.950 . S
H1260 C1283 0.950 . S
H1261 C1285 0.950 . S
H1262 C1286 0.950 . S
H1263 C1287 0.951 . S
H1264 C1289 0.951 . S
H1265 C1291 0.950 . S
H1266 C1292 0.950 . S
H1267 C1294 0.950 . S
H1268 C1297 0.950 . S
H1269 C1298 0.950 . S
H1270 C1300 0.950 . S
H1271 C1301 0.950 . S
C1272 H1254 0.951 . S
C1272 C1273 1.366 . S
C1272 C1274 1.388 . S
C1273 C1272 1.366 . S
C1273 C1277 1.385 . S
C1274 H1255 0.951 . S
C1274 C1272 1.388 . S
C1274 C1275 1.366 . S
C1275 C1274 1.366 . S
C1275 C1276 1.414 . S
C1275 C1278 1.499 . S
C1276 H1256 0.950 . S
C1276 C1275 1.414 . S
C1276 C1277 1.374 . S
C1277 H1257 0.950 . S
C1277 C1273 1.385 . S
C1277 C1276 1.374 . S
C1278 C1275 1.499 . S
C1278 C1279 1.373 . S
C1278 C1280 1.389 . S
C1279 H1258 0.950 . S
C1279 C1278 1.373 . S
C1279 C1295 1.377 1_565 S
C1280 C1278 1.389 . S
C1280 C1281 1.524 . S
C1280 C1294 1.377 1_565 S
C1281 C1280 1.524 . S
C1281 C1282 1.397 . S
C1281 C1286 1.363 . S
C1282 H1259 0.950 . S
C1282 C1281 1.397 . S
C1282 C1283 1.334 . S
C1283 H1260 0.950 . S
C1283 C1282 1.334 . S
C1283 C1284 1.287 . S
C1284 C1283 1.287 . S
C1284 C1285 1.524 . S
C1284 H1303 0.913 . S
C1285 H1261 0.950 . S
C1285 C1284 1.524 . S
C1285 C1286 1.415 . S
C1286 H1262 0.950 . S
C1286 C1281 1.363 . S
C1286 C1285 1.415 . S
C1287 H1263 0.951 . S
C1287 C1288 1.366 . S
C1287 C1289 1.388 . S
C1288 C1287 1.366 . S
C1288 C1292 1.385 . S
C1289 H1264 0.951 . S
C1289 C1287 1.388 . S
C1289 C1290 1.366 . S
C1290 C1289 1.366 . S
C1290 C1291 1.414 . S
C1290 C1293 1.499 . S
C1291 H1265 0.950 . S
C1291 C1290 1.414 . S
C1291 C1292 1.374 . S
C1292 H1266 0.950 . S
C1292 C1288 1.385 . S
C1292 C1291 1.374 . S
C1293 C1290 1.499 . S
C1293 C1294 1.373 . S
C1293 C1295 1.389 . S
C1294 H1267 0.950 . S
C1294 C1280 1.377 1_545 S
C1294 C1293 1.373 . S
C1295 C1279 1.377 1_545 S
C1295 C1293 1.389 . S
C1295 C1296 1.524 . S
C1296 C1295 1.524 . S
C1296 C1297 1.397 . S
C1296 C1301 1.363 . S
C1297 H1268 0.950 . S
C1297 C1296 1.397 . S
C1297 C1298 1.334 . S
C1298 H1269 0.950 . S
C1298 C1297 1.334 . S
C1298 C1299 1.287 . S
C1299 C1298 1.287 . S
C1299 C1300 1.524 . S
C1299 H1302 0.999 . S
C1300 H1270 0.950 . S
C1300 C1299 1.524 . S
C1300 C1301 1.415 . S
C1301 H1271 0.950 . S
C1301 C1296 1.363 . S
C1301 C1300 1.415 . S
H1302 C1299 0.999 . S
H1303 C1284 0.913 . S
H1304 C1322 0.951 . S
H1305 C1324 0.951 . S
H1306 C1326 0.950 . S
H1307 C1327 0.950 . S
H1308 C1329 0.950 . S
H1309 C1332 0.950 . S
H1310 C1333 0.950 . S
H1311 C1335 0.950 . S
H1312 C1336 0.950 . S
H1313 C1337 0.951 . S
H1314 C1339 0.951 . S
H1315 C1341 0.950 . S
H1316 C1342 0.950 . S
H1317 C1344 0.950 . S
H1318 C1347 0.950 . S
H1319 C1348 0.950 . S
H1320 C1350 0.950 . S
H1321 C1351 0.950 . S
C1322 H1304 0.951 . S
C1322 C1323 1.366 . S
C1322 C1324 1.388 . S
C1323 C1322 1.366 . S
C1323 C1327 1.385 . S
C1324 H1305 0.951 . S
C1324 C1322 1.388 . S
C1324 C1325 1.366 . S
C1325 C1324 1.366 . S
C1325 C1326 1.414 . S
C1325 C1328 1.499 . S
C1326 H1306 0.950 . S
C1326 C1325 1.414 . S
C1326 C1327 1.374 . S
C1327 H1307 0.950 . S
C1327 C1323 1.385 . S
C1327 C1326 1.374 . S
C1328 C1325 1.499 . S
C1328 C1329 1.373 . S
C1328 C1330 1.389 . S
C1329 H1308 0.950 . S
C1329 C1328 1.373 . S
C1329 C1345 1.377 1_455 S
C1330 C1328 1.389 . S
C1330 C1331 1.524 . S
C1330 C1344 1.377 1_455 S
C1331 C1330 1.524 . S
C1331 C1332 1.397 . S
C1331 C1336 1.363 . S
C1332 H1309 0.950 . S
C1332 C1331 1.397 . S
C1332 C1333 1.334 . S
C1333 H1310 0.950 . S
C1333 C1332 1.334 . S
C1333 C1334 1.287 . S
C1334 C1333 1.287 . S
C1334 C1335 1.524 . S
C1334 H1353 0.913 . S
C1335 H1311 0.950 . S
C1335 C1334 1.524 . S
C1335 C1336 1.415 . S
C1336 H1312 0.950 . S
C1336 C1331 1.363 . S
C1336 C1335 1.415 . S
C1337 H1313 0.951 . S
C1337 C1338 1.366 . S
C1337 C1339 1.388 . S
C1338 C1337 1.366 . S
C1338 C1342 1.385 . S
C1339 H1314 0.951 . S
C1339 C1337 1.388 . S
C1339 C1340 1.366 . S
C1340 C1339 1.366 . S
C1340 C1341 1.414 . S
C1340 C1343 1.499 . S
C1341 H1315 0.950 . S
C1341 C1340 1.414 . S
C1341 C1342 1.374 . S
C1342 H1316 0.950 . S
C1342 C1338 1.385 . S
C1342 C1341 1.374 . S
C1343 C1340 1.499 . S
C1343 C1344 1.373 . S
C1343 C1345 1.389 . S
C1344 H1317 0.950 . S
C1344 C1330 1.377 1_655 S
C1344 C1343 1.373 . S
C1345 C1329 1.377 1_655 S
C1345 C1343 1.389 . S
C1345 C1346 1.524 . S
C1346 C1345 1.524 . S
C1346 C1347 1.397 . S
C1346 C1351 1.363 . S
C1347 H1318 0.950 . S
C1347 C1346 1.397 . S
C1347 C1348 1.334 . S
C1348 H1319 0.950 . S
C1348 C1347 1.334 . S
C1348 C1349 1.287 . S
C1349 C1348 1.287 . S
C1349 C1350 1.524 . S
C1349 H1352 0.999 . S
C1350 H1320 0.950 . S
C1350 C1349 1.524 . S
C1350 C1351 1.415 . S
C1351 H1321 0.950 . S
C1351 C1346 1.363 . S
C1351 C1350 1.415 . S
H1352 C1349 0.999 . S
H1353 C1334 0.913 . S
H1354 C1372 0.951 . S
H1355 C1374 0.951 . S
H1356 C1376 0.950 . S
H1357 C1377 0.950 . S
H1358 C1379 0.950 . S
H1359 C1382 0.950 . S
H1360 C1383 0.950 . S
H1361 C1385 0.950 . S
H1362 C1386 0.950 . S
H1363 C1387 0.951 . S
H1364 C1389 0.951 . S
H1365 C1391 0.950 . S
H1366 C1392 0.950 . S
H1367 C1394 0.950 . S
H1368 C1397 0.950 . S
H1369 C1398 0.950 . S
H1370 C1400 0.950 . S
H1371 C1401 0.950 . S
C1372 H1354 0.951 . S
C1372 C1373 1.366 . S
C1372 C1374 1.388 . S
C1373 C1372 1.366 . S
C1373 C1377 1.385 . S
C1374 H1355 0.951 . S
C1374 C1372 1.388 . S
C1374 C1375 1.366 . S
C1375 C1374 1.366 . S
C1375 C1376 1.414 . S
C1375 C1378 1.499 . S
C1376 H1356 0.950 . S
C1376 C1375 1.414 . S
C1376 C1377 1.374 . S
C1377 H1357 0.950 . S
C1377 C1373 1.385 . S
C1377 C1376 1.374 . S
C1378 C1375 1.499 . S
C1378 C1379 1.373 . S
C1378 C1380 1.389 . S
C1379 H1358 0.950 . S
C1379 C1378 1.373 . S
C1379 C1395 1.377 . S
C1380 C1378 1.389 . S
C1380 C1381 1.524 . S
C1380 C1394 1.377 . S
C1381 C1380 1.524 . S
C1381 C1382 1.397 . S
C1381 C1386 1.363 . S
C1382 H1359 0.950 . S
C1382 C1381 1.397 . S
C1382 C1383 1.334 . S
C1383 H1360 0.950 . S
C1383 C1382 1.334 . S
C1383 C1384 1.287 . S
C1384 C1383 1.287 . S
C1384 C1385 1.524 . S
C1384 H1403 0.913 . S
C1385 H1361 0.950 . S
C1385 C1384 1.524 . S
C1385 C1386 1.415 . S
C1386 H1362 0.950 . S
C1386 C1381 1.363 . S
C1386 C1385 1.415 . S
C1387 H1363 0.951 . S
C1387 C1388 1.366 . S
C1387 C1389 1.388 . S
C1388 C1387 1.366 . S
C1388 C1392 1.385 . S
C1389 H1364 0.951 . S
C1389 C1387 1.388 . S
C1389 C1390 1.366 . S
C1390 C1389 1.366 . S
C1390 C1391 1.414 . S
C1390 C1393 1.499 . S
C1391 H1365 0.950 . S
C1391 C1390 1.414 . S
C1391 C1392 1.374 . S
C1392 H1366 0.950 . S
C1392 C1388 1.385 . S
C1392 C1391 1.374 . S
C1393 C1390 1.499 . S
C1393 C1394 1.373 . S
C1393 C1395 1.389 . S
C1394 H1367 0.950 . S
C1394 C1380 1.377 . S
C1394 C1393 1.373 . S
C1395 C1379 1.377 . S
C1395 C1393 1.389 . S
C1395 C1396 1.524 . S
C1396 C1395 1.524 . S
C1396 C1397 1.397 . S
C1396 C1401 1.363 . S
C1397 H1368 0.950 . S
C1397 C1396 1.397 . S
C1397 C1398 1.334 . S
C1398 H1369 0.950 . S
C1398 C1397 1.334 . S
C1398 C1399 1.287 . S
C1399 C1398 1.287 . S
C1399 C1400 1.524 . S
C1399 H1402 0.999 . S
C1400 H1370 0.950 . S
C1400 C1399 1.524 . S
C1400 C1401 1.415 . S
C1401 H1371 0.950 . S
C1401 C1396 1.363 . S
C1401 C1400 1.415 . S
H1402 C1399 0.999 . S
H1403 C1384 0.913 . S
H1404 C1422 0.951 . S
H1405 C1424 0.951 . S
H1406 C1426 0.950 1_554 S
H1407 C1427 0.950 . S
H1408 C1429 0.950 . S
H1409 C1432 0.950 . S
H1410 C1433 0.950 . S
H1411 C1435 0.950 . S
H1412 C1436 0.950 . S
H1413 C1437 0.951 . S
H1414 C1439 0.951 . S
H1415 C1441 0.950 . S
H1416 C1442 0.950 . S
H1417 C1444 0.950 . S
H1418 C1447 0.950 . S
H1419 C1448 0.950 . S
H1420 C1450 0.950 . S
H1421 C1451 0.950 . S
C1422 H1404 0.951 . S
C1422 C1423 1.366 . S
C1422 C1424 1.388 . S
C1423 C1422 1.366 . S
C1423 C1427 1.385 . S
C1424 H1405 0.951 . S
C1424 C1422 1.388 . S
C1424 C1425 1.366 . S
C1425 C1424 1.366 . S
C1425 C1426 1.414 . S
C1425 C1428 1.499 1_556 S
C1426 H1406 0.950 1_556 S
C1426 C1425 1.414 . S
C1426 C1427 1.374 . S
C1427 H1407 0.950 . S
C1427 C1423 1.385 . S
C1427 C1426 1.374 . S
C1428 C1425 1.499 1_554 S
C1428 C1429 1.373 1_554 S
C1428 C1430 1.389 . S
C1429 H1408 0.950 . S
C1429 C1428 1.373 1_556 S
C1429 C1445 1.377 . S
C1430 C1428 1.389 . S
C1430 C1431 1.524 . S
C1430 C1444 1.377 . S
C1431 C1430 1.524 . S
C1431 C1432 1.397 . S
C1431 C1436 1.363 . S
C1432 H1409 0.950 . S
C1432 C1431 1.397 . S
C1432 C1433 1.334 . S
C1433 H1410 0.950 . S
C1433 C1432 1.334 . S
C1433 C1434 1.287 . S
C1434 C1433 1.287 . S
C1434 C1435 1.524 . S
C1434 H1453 0.913 . S
C1435 H1411 0.950 . S
C1435 C1434 1.524 . S
C1435 C1436 1.415 . S
C1436 H1412 0.950 . S
C1436 C1431 1.363 . S
C1436 C1435 1.415 . S
C1437 H1413 0.951 . S
C1437 C1438 1.366 . S
C1437 C1439 1.388 . S
C1438 C1437 1.366 . S
C1438 C1442 1.385 . S
C1439 H1414 0.951 . S
C1439 C1437 1.388 . S
C1439 C1440 1.366 . S
C1440 C1439 1.366 . S
C1440 C1441 1.414 . S
C1440 C1443 1.499 . S
C1441 H1415 0.950 . S
C1441 C1440 1.414 . S
C1441 C1442 1.374 . S
C1442 H1416 0.950 . S
C1442 C1438 1.385 . S
C1442 C1441 1.374 . S
C1443 C1440 1.499 . S
C1443 C1444 1.373 . S
C1443 C1445 1.389 1_554 S
C1444 H1417 0.950 . S
C1444 C1430 1.377 . S
C1444 C1443 1.373 . S
C1445 C1429 1.377 . S
C1445 C1443 1.389 1_556 S
C1445 C1446 1.524 . S
C1446 C1445 1.524 . S
C1446 C1447 1.397 . S
C1446 C1451 1.363 . S
C1447 H1418 0.950 . S
C1447 C1446 1.397 . S
C1447 C1448 1.334 . S
C1448 H1419 0.950 . S
C1448 C1447 1.334 . S
C1448 C1449 1.287 . S
C1449 C1448 1.287 . S
C1449 C1450 1.524 . S
C1449 H1452 0.999 . S
C1450 H1420 0.950 . S
C1450 C1449 1.524 . S
C1450 C1451 1.415 . S
C1451 H1421 0.950 . S
C1451 C1446 1.363 . S
C1451 C1450 1.415 . S
H1452 C1449 0.999 . S
H1453 C1434 0.913 . S
H1454 C1472 0.951 . S
H1455 C1474 0.951 1_554 S
H1456 C1476 0.950 . S
H1457 C1477 0.950 . S
H1458 C1479 0.950 . S
H1459 C1482 0.950 . S
H1460 C1483 0.950 . S
H1461 C1485 0.950 . S
H1462 C1486 0.954 1_554 S
H1463 C1487 0.951 . S
H1464 C1489 0.951 . S
H1465 C1491 0.950 . S
H1466 C1492 0.950 . S
H1467 C1494 0.946 1_556 S
H1468 C1497 0.950 . S
H1469 C1498 0.950 . S
H1470 C1500 0.950 . S
H1471 C1501 0.950 . S
C1472 H1454 0.951 . S
C1472 C1473 1.366 . S
C1472 C1474 1.388 . S
C1473 C1472 1.366 . S
C1473 C1477 1.385 . S
C1474 H1455 0.951 1_556 S
C1474 C1472 1.388 . S
C1474 C1475 1.366 . S
C1475 C1474 1.366 . S
C1475 C1476 1.414 . S
C1475 C1478 1.499 . S
C1476 H1456 0.950 . S
C1476 C1475 1.414 . S
C1476 C1477 1.374 . S
C1477 H1457 0.950 . S
C1477 C1473 1.385 . S
C1477 C1476 1.374 . S
C1478 C1475 1.499 . S
C1478 C1479 1.373 1_556 S
C1478 C1480 1.389 . S
C1479 H1458 0.950 . S
C1479 C1478 1.373 1_554 S
C1479 C1495 1.377 . S
C1480 C1478 1.389 . S
C1480 C1481 1.524 . S
C1480 C1494 1.370 1_556 S
C1481 C1480 1.524 . S
C1481 C1482 1.397 . S
C1481 C1486 1.363 . S
C1482 H1459 0.950 . S
C1482 C1481 1.397 . S
C1482 C1483 1.334 . S
C1483 H1460 0.950 . S
C1483 C1482 1.334 . S
C1483 C1484 1.287 . S
C1484 C1483 1.287 . S
C1484 C1485 1.524 . S
C1484 H1503 0.913 . S
C1485 H1461 0.950 . S
C1485 C1484 1.524 . S
C1485 C1486 1.415 . S
C1486 H1462 0.954 1_556 S
C1486 C1481 1.363 . S
C1486 C1485 1.415 . S
C1487 H1463 0.951 . S
C1487 C1488 1.366 . S
C1487 C1489 1.388 . S
C1488 C1487 1.366 . S
C1488 C1492 1.385 . S
C1489 H1464 0.951 . S
C1489 C1487 1.388 . S
C1489 C1490 1.366 . S
C1490 C1489 1.366 . S
C1490 C1491 1.414 . S
C1490 C1493 1.499 . S
C1491 H1465 0.950 . S
C1491 C1490 1.414 . S
C1491 C1492 1.374 . S
C1492 H1466 0.950 . S
C1492 C1488 1.385 . S
C1492 C1491 1.374 . S
C1493 C1490 1.499 . S
C1493 C1494 1.385 . S
C1493 C1495 1.389 . S
C1494 H1467 0.946 1_554 S
C1494 C1480 1.370 1_554 S
C1494 C1493 1.385 . S
C1495 C1479 1.377 . S
C1495 C1493 1.389 . S
C1495 C1496 1.524 . S
C1496 C1495 1.524 . S
C1496 C1497 1.397 . S
C1496 C1501 1.363 . S
C1497 H1468 0.950 . S
C1497 C1496 1.397 . S
C1497 C1498 1.334 . S
C1498 H1469 0.950 . S
C1498 C1497 1.334 . S
C1498 C1499 1.287 . S
C1499 C1498 1.287 . S
C1499 C1500 1.524 . S
C1499 H1502 0.999 . S
C1500 H1470 0.950 . S
C1500 C1499 1.524 . S
C1500 C1501 1.415 . S
C1501 H1471 0.950 . S
C1501 C1496 1.363 . S
C1501 C1500 1.415 . S
H1502 C1499 0.999 . S
H1503 C1484 0.913 . S
H1504 C1522 0.951 . S
H1505 C1524 0.951 . S
H1506 C1526 0.950 . S
H1507 C1527 0.950 . S
H1508 C1529 0.950 . S
H1509 C1532 0.950 . S
H1510 C1533 0.950 . S
H1511 C1535 0.950 . S
H1512 C1536 0.950 . S
H1513 C1537 0.951 . S
H1514 C1539 0.951 . S
H1515 C1541 0.989 . S
H1516 C1542 0.950 1_556 S
H1517 C1544 0.950 . S
H1518 C1547 0.950 . S
H1519 C1548 0.950 . S
H1520 C1550 0.950 . S
H1521 C1551 0.950 . S
C1522 H1504 0.951 . S
C1522 C1523 1.366 . S
C1522 C1524 1.388 . S
C1523 C1522 1.366 . S
C1523 C1527 1.385 1_556 S
C1524 H1505 0.951 . S
C1524 C1522 1.388 . S
C1524 C1525 1.366 . S
C1525 C1524 1.366 . S
C1525 C1526 1.414 1_556 S
C1525 C1528 1.489 1_556 S
C1526 H1506 0.950 . S
C1526 C1525 1.414 1_554 S
C1526 C1527 1.374 . S
C1527 H1507 0.950 . S
C1527 C1523 1.385 1_554 S
C1527 C1526 1.374 . S
C1528 C1525 1.489 1_554 S
C1528 C1529 1.404 . S
C1528 C1530 1.368 1_554 S
C1529 H1508 0.950 . S
C1529 C1528 1.404 . S
C1529 C1545 1.377 . S
C1530 C1528 1.368 1_556 S
C1530 C1531 1.524 . S
C1530 C1544 1.377 . S
C1531 C1530 1.524 . S
C1531 C1532 1.397 . S
C1531 C1536 1.363 . S
C1532 H1509 0.950 . S
C1532 C1531 1.397 . S
C1532 C1533 1.334 . S
C1533 H1510 0.950 . S
C1533 C1532 1.334 . S
C1533 C1534 1.287 . S
C1534 C1533 1.287 . S
C1534 C1535 1.524 . S
C1534 H1553 0.913 . S
C1535 H1511 0.950 . S
C1535 C1534 1.524 . S
C1535 C1536 1.415 . S
C1536 H1512 0.950 . S
C1536 C1531 1.363 . S
C1536 C1535 1.415 . S
C1537 H1513 0.951 . S
C1537 C1538 1.366 . S
C1537 C1539 1.388 . S
C1538 C1537 1.366 . S
C1538 C1542 1.385 . S
C1539 H1514 0.951 . S
C1539 C1537 1.388 . S
C1539 C1540 1.366 . S
C1540 C1539 1.366 . S
C1540 C1541 1.385 1_554 S
C1540 C1543 1.499 . S
C1541 H1515 0.989 . S
C1541 C1540 1.385 1_556 S
C1541 C1542 1.365 1_556 S
C1542 H1516 0.950 1_554 S
C1542 C1538 1.385 . S
C1542 C1541 1.365 1_554 S
C1543 C1540 1.499 . S
C1543 C1544 1.373 1_554 S
C1543 C1545 1.389 . S
C1544 H1517 0.950 . S
C1544 C1530 1.377 . S
C1544 C1543 1.373 1_556 S
C1545 C1529 1.377 . S
C1545 C1543 1.389 . S
C1545 C1546 1.524 . S
C1546 C1545 1.524 . S
C1546 C1547 1.397 . S
C1546 C1551 1.363 . S
C1547 H1518 0.950 . S
C1547 C1546 1.397 . S
C1547 C1548 1.334 . S
C1548 H1519 0.950 . S
C1548 C1547 1.334 . S
C1548 C1549 1.287 . S
C1549 C1548 1.287 . S
C1549 C1550 1.524 . S
C1549 H1552 0.999 . S
C1550 H1520 0.950 . S
C1550 C1549 1.524 . S
C1550 C1551 1.415 . S
C1551 H1521 0.950 . S
C1551 C1546 1.363 . S
C1551 C1550 1.415 . S
H1552 C1549 0.999 . S
H1553 C1534 0.913 . S
H1554 C1572 0.951 . S
H1555 C1574 0.951 . S
H1556 C1576 0.950 . S
H1557 C1577 0.950 . S
H1558 C1579 0.950 . S
H1559 C1582 0.950 . S
H1560 C1583 0.950 . S
H1561 C1585 0.950 . S
H1562 C1586 0.950 . S
H1563 C1587 0.951 . S
H1564 C1589 0.951 . S
H1565 C1591 0.950 . S
H1566 C1592 0.950 . S
H1567 C1594 0.950 . S
H1568 C1597 0.950 . S
H1569 C1598 0.950 . S
H1570 C1600 0.950 . S
H1571 C1601 0.950 . S
C1572 H1554 0.951 . S
C1572 C1573 1.366 . S
C1572 C1574 1.388 . S
C1573 C1572 1.366 . S
C1573 C1577 1.385 . S
C1574 H1555 0.951 . S
C1574 C1572 1.388 . S
C1574 C1575 1.366 . S
C1575 C1574 1.366 . S
C1575 C1576 1.414 . S
C1575 C1578 1.499 . S
C1576 H1556 0.950 . S
C1576 C1575 1.414 . S
C1576 C1577 1.374 . S
C1577 H1557 0.950 . S
C1577 C1573 1.385 . S
C1577 C1576 1.374 . S
C1578 C1575 1.499 . S
C1578 C1579 1.373 . S
C1578 C1580 1.389 . S
C1579 H1558 0.950 . S
C1579 C1578 1.373 . S
C1579 C1595 1.377 . S
C1580 C1578 1.389 . S
C1580 C1581 1.524 . S
C1580 C1594 1.377 . S
C1581 C1580 1.524 . S
C1581 C1582 1.397 . S
C1581 C1586 1.363 . S
C1582 H1559 0.950 . S
C1582 C1581 1.397 . S
C1582 C1583 1.334 . S
C1583 H1560 0.950 . S
C1583 C1582 1.334 . S
C1583 C1584 1.287 . S
C1584 C1583 1.287 . S
C1584 C1585 1.524 . S
C1584 H1603 0.913 . S
C1585 H1561 0.950 . S
C1585 C1584 1.524 . S
C1585 C1586 1.415 . S
C1586 H1562 0.950 . S
C1586 C1581 1.363 . S
C1586 C1585 1.415 . S
C1587 H1563 0.951 . S
C1587 C1588 1.366 . S
C1587 C1589 1.388 . S
C1588 C1587 1.366 . S
C1588 C1592 1.385 . S
C1589 H1564 0.951 . S
C1589 C1587 1.388 . S
C1589 C1590 1.366 . S
C1590 C1589 1.366 . S
C1590 C1591 1.414 . S
C1590 C1593 1.499 . S
C1591 H1565 0.950 . S
C1591 C1590 1.414 . S
C1591 C1592 1.374 . S
C1592 H1566 0.950 . S
C1592 C1588 1.385 . S
C1592 C1591 1.374 . S
C1593 C1590 1.499 . S
C1593 C1594 1.373 . S
C1593 C1595 1.389 . S
C1594 H1567 0.950 . S
C1594 C1580 1.377 . S
C1594 C1593 1.373 . S
C1595 C1579 1.377 . S
C1595 C1593 1.389 . S
C1595 C1596 1.524 . S
C1596 C1595 1.524 . S
C1596 C1597 1.397 . S
C1596 C1601 1.363 . S
C1597 H1568 0.950 . S
C1597 C1596 1.397 . S
C1597 C1598 1.334 . S
C1598 H1569 0.950 . S
C1598 C1597 1.334 . S
C1598 C1599 1.287 . S
C1599 C1598 1.287 . S
C1599 C1600 1.524 . S
C1599 H1602 0.999 . S
C1600 H1570 0.950 . S
C1600 C1599 1.524 . S
C1600 C1601 1.415 . S
C1601 H1571 0.950 . S
C1601 C1596 1.363 . S
C1601 C1600 1.415 . S
H1602 C1599 0.999 . S
H1603 C1584 0.913 . S
H1604 C1622 0.951 . S
H1605 C1624 0.951 . S
H1606 C1626 0.950 . S
H1607 C1627 0.950 . S
H1608 C1629 0.950 . S
H1609 C1632 0.950 . S
H1610 C1633 0.950 . S
H1611 C1635 0.950 . S
H1612 C1636 0.950 . S
H1613 C1637 0.951 . S
H1614 C1639 0.951 . S
H1615 C1641 0.950 . S
H1616 C1642 0.950 . S
H1617 C1644 0.950 . S
H1618 C1647 0.950 . S
H1619 C1648 0.950 . S
H1620 C1650 0.950 . S
H1621 C1651 0.950 . S
C1622 H1604 0.951 . S
C1622 C1623 1.366 . S
C1622 C1624 1.388 . S
C1623 C1622 1.366 . S
C1623 C1627 1.385 . S
C1624 H1605 0.951 . S
C1624 C1622 1.388 . S
C1624 C1625 1.366 . S
C1625 C1624 1.366 . S
C1625 C1626 1.414 . S
C1625 C1628 1.499 . S
C1626 H1606 0.950 . S
C1626 C1625 1.414 . S
C1626 C1627 1.374 . S
C1627 H1607 0.950 . S
C1627 C1623 1.385 . S
C1627 C1626 1.374 . S
C1628 C1625 1.499 . S
C1628 C1629 1.373 . S
C1628 C1630 1.389 . S
C1629 H1608 0.950 . S
C1629 C1628 1.373 . S
C1629 C1645 1.377 . S
C1630 C1628 1.389 . S
C1630 C1631 1.524 . S
C1630 C1644 1.377 . S
C1631 C1630 1.524 . S
C1631 C1632 1.397 . S
C1631 C1636 1.363 . S
C1632 H1609 0.950 . S
C1632 C1631 1.397 . S
C1632 C1633 1.334 . S
C1633 H1610 0.950 . S
C1633 C1632 1.334 . S
C1633 C1634 1.287 . S
C1634 C1633 1.287 . S
C1634 C1635 1.524 . S
C1634 H1653 0.913 . S
C1635 H1611 0.950 . S
C1635 C1634 1.524 . S
C1635 C1636 1.415 . S
C1636 H1612 0.950 . S
C1636 C1631 1.363 . S
C1636 C1635 1.415 . S
C1637 H1613 0.951 . S
C1637 C1638 1.366 . S
C1637 C1639 1.388 . S
C1638 C1637 1.366 . S
C1638 C1642 1.385 . S
C1639 H1614 0.951 . S
C1639 C1637 1.388 . S
C1639 C1640 1.366 . S
C1640 C1639 1.366 . S
C1640 C1641 1.414 . S
C1640 C1643 1.499 . S
C1641 H1615 0.950 . S
C1641 C1640 1.414 . S
C1641 C1642 1.374 . S
C1642 H1616 0.950 . S
C1642 C1638 1.385 . S
C1642 C1641 1.374 . S
C1643 C1640 1.499 . S
C1643 C1644 1.373 . S
C1643 C1645 1.389 . S
C1644 H1617 0.950 . S
C1644 C1630 1.377 . S
C1644 C1643 1.373 . S
C1645 C1629 1.377 . S
C1645 C1643 1.389 . S
C1645 C1646 1.524 . S
C1646 C1645 1.524 . S
C1646 C1647 1.397 . S
C1646 C1651 1.363 . S
C1647 H1618 0.950 . S
C1647 C1646 1.397 . S
C1647 C1648 1.334 . S
C1648 H1619 0.950 . S
C1648 C1647 1.334 . S
C1648 C1649 1.287 . S
C1649 C1648 1.287 . S
C1649 C1650 1.524 . S
C1649 H1652 0.999 . S
C1650 H1620 0.950 . S
C1650 C1649 1.524 . S
C1650 C1651 1.415 . S
C1651 H1621 0.950 . S
C1651 C1646 1.363 . S
C1651 C1650 1.415 . S
H1652 C1649 0.999 . S
H1653 C1634 0.913 . S
H1654 C1672 0.951 . S
H1655 C1674 0.951 . S
H1656 C1676 0.950 . S
H1657 C1677 0.950 . S
H1658 C1679 0.950 . S
H1659 C1682 0.950 . S
H1660 C1683 0.950 . S
H1661 C1685 0.950 . S
H1662 C1686 0.950 . S
H1663 C1687 0.951 . S
H1664 C1689 0.951 . S
H1665 C1691 0.950 . S
H1666 C1692 0.950 . S
H1667 C1694 0.950 . S
H1668 C1697 0.950 . S
H1669 C1698 0.950 . S
H1670 C1700 0.950 . S
H1671 C1701 0.950 . S
C1672 H1654 0.951 . S
C1672 C1673 1.366 . S
C1672 C1674 1.388 . S
C1673 C1672 1.366 . S
C1673 C1677 1.385 . S
C1674 H1655 0.951 . S
C1674 C1672 1.388 . S
C1674 C1675 1.366 . S
C1675 C1674 1.366 . S
C1675 C1676 1.414 . S
C1675 C1678 1.499 . S
C1676 H1656 0.950 . S
C1676 C1675 1.414 . S
C1676 C1677 1.374 . S
C1677 H1657 0.950 . S
C1677 C1673 1.385 . S
C1677 C1676 1.374 . S
C1678 C1675 1.499 . S
C1678 C1679 1.373 . S
C1678 C1680 1.389 . S
C1679 H1658 0.950 . S
C1679 C1678 1.373 . S
C1679 C1695 1.377 . S
C1680 C1678 1.389 . S
C1680 C1681 1.524 . S
C1680 C1694 1.377 . S
C1681 C1680 1.524 . S
C1681 C1682 1.397 . S
C1681 C1686 1.363 . S
C1682 H1659 0.950 . S
C1682 C1681 1.397 . S
C1682 C1683 1.334 . S
C1683 H1660 0.950 . S
C1683 C1682 1.334 . S
C1683 C1684 1.287 . S
C1684 C1683 1.287 . S
C1684 C1685 1.524 . S
C1684 H1703 0.913 . S
C1685 H1661 0.950 . S
C1685 C1684 1.524 . S
C1685 C1686 1.415 . S
C1686 H1662 0.950 . S
C1686 C1681 1.363 . S
C1686 C1685 1.415 . S
C1687 H1663 0.951 . S
C1687 C1688 1.366 . S
C1687 C1689 1.388 . S
C1688 C1687 1.366 . S
C1688 C1692 1.385 . S
C1689 H1664 0.951 . S
C1689 C1687 1.388 . S
C1689 C1690 1.366 . S
C1690 C1689 1.366 . S
C1690 C1691 1.414 . S
C1690 C1693 1.499 . S
C1691 H1665 0.950 . S
C1691 C1690 1.414 . S
C1691 C1692 1.374 . S
C1692 H1666 0.950 . S
C1692 C1688 1.385 . S
C1692 C1691 1.374 . S
C1693 C1690 1.499 . S
C1693 C1694 1.373 . S
C1693 C1695 1.389 . S
C1694 H1667 0.950 . S
C1694 C1680 1.377 . S
C1694 C1693 1.373 . S
C1695 C1679 1.377 . S
C1695 C1693 1.389 . S
C1695 C1696 1.524 . S
C1696 C1695 1.524 . S
C1696 C1697 1.397 . S
C1696 C1701 1.363 . S
C1697 H1668 0.950 . S
C1697 C1696 1.397 . S
C1697 C1698 1.334 . S
C1698 H1669 0.950 . S
C1698 C1697 1.334 . S
C1698 C1699 1.287 . S
C1699 C1698 1.287 . S
C1699 C1700 1.524 . S
C1699 H1702 0.999 . S
C1700 H1670 0.950 . S
C1700 C1699 1.524 . S
C1700 C1701 1.415 . S
C1701 H1671 0.950 . S
C1701 C1696 1.363 . S
C1701 C1700 1.415 . S
H1702 C1699 0.999 . S
H1703 C1684 0.913 . S
H1704 C1722 0.951 . S
H1705 C1724 0.951 . S
H1706 C1726 0.950 . S
H1707 C1727 0.950 . S
H1708 C1729 0.950 . S
H1709 C1732 0.950 . S
H1710 C1733 0.950 . S
H1711 C1735 0.950 . S
H1712 C1736 0.950 . S
H1713 C1737 0.951 . S
H1714 C1739 0.951 . S
H1715 C1741 0.950 . S
H1716 C1742 0.950 . S
H1717 C1744 0.950 . S
H1718 C1747 0.950 . S
H1719 C1748 0.950 . S
H1720 C1750 0.950 . S
H1721 C1751 0.950 . S
C1722 H1704 0.951 . S
C1722 C1723 1.366 . S
C1722 C1724 1.388 . S
C1723 C1722 1.366 . S
C1723 C1727 1.385 . S
C1724 H1705 0.951 . S
C1724 C1722 1.388 . S
C1724 C1725 1.366 . S
C1725 C1724 1.366 . S
C1725 C1726 1.414 . S
C1725 C1728 1.499 . S
C1726 H1706 0.950 . S
C1726 C1725 1.414 . S
C1726 C1727 1.374 . S
C1727 H1707 0.950 . S
C1727 C1723 1.385 . S
C1727 C1726 1.374 . S
C1728 C1725 1.499 . S
C1728 C1729 1.373 1_554 S
C1728 C1730 1.389 . S
C1729 H1708 0.950 . S
C1729 C1728 1.373 1_556 S
C1729 C1745 1.377 . S
C1730 C1728 1.389 . S
C1730 C1731 1.524 . S
C1730 C1744 1.377 . S
C1731 C1730 1.524 . S
C1731 C1732 1.397 . S
C1731 C1736 1.363 . S
C1732 H1709 0.950 . S
C1732 C1731 1.397 . S
C1732 C1733 1.334 . S
C1733 H1710 0.950 . S
C1733 C1732 1.334 . S
C1733 C1734 1.287 . S
C1734 C1733 1.287 . S
C1734 C1735 1.524 . S
C1734 H1753 0.913 . S
C1735 H1711 0.950 . S
C1735 C1734 1.524 . S
C1735 C1736 1.415 . S
C1736 H1712 0.950 . S
C1736 C1731 1.363 . S
C1736 C1735 1.415 . S
C1737 H1713 0.951 . S
C1737 C1738 1.366 . S
C1737 C1739 1.388 . S
C1738 C1737 1.366 . S
C1738 C1742 1.385 . S
C1739 H1714 0.951 . S
C1739 C1737 1.388 . S
C1739 C1740 1.366 . S
C1740 C1739 1.366 . S
C1740 C1741 1.414 . S
C1740 C1743 1.499 . S
C1741 H1715 0.950 . S
C1741 C1740 1.414 . S
C1741 C1742 1.374 . S
C1742 H1716 0.950 . S
C1742 C1738 1.385 . S
C1742 C1741 1.374 . S
C1743 C1740 1.499 . S
C1743 C1744 1.373 1_556 S
C1743 C1745 1.389 . S
C1744 H1717 0.950 . S
C1744 C1730 1.377 . S
C1744 C1743 1.373 1_554 S
C1745 C1729 1.377 . S
C1745 C1743 1.389 . S
C1745 C1746 1.524 . S
C1746 C1745 1.524 . S
C1746 C1747 1.397 . S
C1746 C1751 1.363 . S
C1747 H1718 0.950 . S
C1747 C1746 1.397 . S
C1747 C1748 1.334 . S
C1748 H1719 0.950 . S
C1748 C1747 1.334 . S
C1748 C1749 1.287 . S
C1749 C1748 1.287 . S
C1749 C1750 1.524 . S
C1749 H1752 0.999 . S
C1750 H1720 0.950 . S
C1750 C1749 1.524 . S
C1750 C1751 1.415 . S
C1751 H1721 0.950 . S
C1751 C1746 1.363 . S
C1751 C1750 1.415 . S
H1752 C1749 0.999 . S
H1753 C1734 0.913 . S
H1754 C1772 0.951 . S
H1755 C1774 0.951 1_554 S
H1756 C1776 0.950 . S
H1757 C1777 0.950 . S
H1758 C1779 0.950 . S
H1759 C1782 0.950 . S
H1760 C1783 0.950 . S
H1761 C1785 0.950 . S
H1762 C1786 0.950 1_554 S
H1763 C1787 0.944 1_556 S
H1764 C1789 0.951 . S
H1765 C1791 0.950 . S
H1766 C1792 0.950 . S
H1767 C1794 0.950 . S
H1768 C1797 0.950 . S
H1769 C1798 0.950 . S
H1770 C1800 0.950 1_556 S
H1771 C1801 0.950 . S
C1772 H1754 0.951 . S
C1772 C1773 1.366 . S
C1772 C1774 1.388 . S
C1773 C1772 1.366 . S
C1773 C1777 1.385 . S
C1774 H1755 0.951 1_556 S
C1774 C1772 1.388 . S
C1774 C1775 1.366 . S
C1775 C1774 1.366 . S
C1775 C1776 1.414 . S
C1775 C1778 1.499 . S
C1776 H1756 0.950 . S
C1776 C1775 1.414 . S
C1776 C1777 1.374 . S
C1777 H1757 0.950 . S
C1777 C1773 1.385 . S
C1777 C1776 1.374 . S
C1778 C1775 1.499 . S
C1778 C1779 1.373 . S
C1778 C1780 1.389 . S
C1779 H1758 0.950 . S
C1779 C1778 1.373 . S
C1779 C1795 1.375 1_556 S
C1780 C1778 1.389 . S
C1780 C1781 1.524 . S
C1780 C1794 1.377 . S
C1781 C1780 1.524 . S
C1781 C1782 1.397 . S
C1781 C1786 1.363 . S
C1782 H1759 0.950 . S
C1782 C1781 1.397 . S
C1782 C1783 1.334 . S
C1783 H1760 0.950 . S
C1783 C1782 1.334 . S
C1783 C1784 1.287 . S
C1784 C1783 1.287 . S
C1784 C1785 1.524 . S
C1784 H1803 0.913 . S
C1785 H1761 0.950 . S
C1785 C1784 1.524 . S
C1785 C1786 1.415 . S
C1786 H1762 0.950 1_556 S
C1786 C1781 1.363 . S
C1786 C1785 1.415 . S
C1787 H1763 0.944 1_554 S
C1787 C1788 1.376 . S
C1787 C1789 1.385 1_554 S
C1788 C1787 1.376 . S
C1788 C1792 1.385 . S
C1789 H1764 0.951 . S
C1789 C1787 1.385 1_556 S
C1789 C1790 1.366 1_556 S
C1790 C1789 1.366 1_554 S
C1790 C1791 1.414 . S
C1790 C1793 1.499 . S
C1791 H1765 0.950 . S
C1791 C1790 1.414 . S
C1791 C1792 1.374 . S
C1792 H1766 0.950 . S
C1792 C1788 1.385 . S
C1792 C1791 1.374 . S
C1793 C1790 1.499 . S
C1793 C1794 1.373 1_554 S
C1793 C1795 1.390 . S
C1794 H1767 0.950 . S
C1794 C1780 1.377 . S
C1794 C1793 1.373 1_556 S
C1795 C1779 1.375 1_554 S
C1795 C1793 1.390 . S
C1795 C1796 1.526 . S
C1796 C1795 1.526 . S
C1796 C1797 1.397 . S
C1796 C1801 1.363 1_554 S
C1797 H1768 0.950 . S
C1797 C1796 1.397 . S
C1797 C1798 1.334 . S
C1798 H1769 0.950 . S
C1798 C1797 1.334 . S
C1798 C1799 1.287 . S
C1799 C1798 1.287 . S
C1799 C1800 1.524 . S
C1799 H1802 0.999 . S
C1800 H1770 0.950 1_554 S
C1800 C1799 1.524 . S
C1800 C1801 1.415 1_554 S
C1801 H1771 0.950 . S
C1801 C1796 1.363 1_556 S
C1801 C1800 1.415 1_556 S
H1802 C1799 0.999 . S
H1803 C1784 0.913 . S
H1804 C1822 0.951 . S
H1805 C1824 0.951 . S
H1806 C1826 0.950 . S
H1807 C1827 0.950 . S
H1808 C1829 0.950 . S
H1809 C1832 0.950 . S
H1810 C1833 0.950 . S
H1811 C1835 0.950 . S
H1812 C1836 0.950 . S
H1813 C1837 0.951 . S
H1814 C1839 0.951 . S
H1815 C1841 0.926 1_554 S
H1816 C1842 0.950 1_554 S
H1817 C1844 0.948 1_554 S
H1818 C1847 0.950 1_554 S
H1819 C1848 0.948 1_554 S
H1820 C1850 0.950 . S
H1821 C1851 0.950 . S
C1822 H1804 0.951 . S
C1822 C1823 1.366 . S
C1822 C1824 1.388 . S
C1823 C1822 1.366 . S
C1823 C1827 1.385 1_554 S
C1824 H1805 0.951 . S
C1824 C1822 1.388 . S
C1824 C1825 1.366 . S
C1825 C1824 1.366 . S
C1825 C1826 1.414 1_554 S
C1825 C1828 1.499 1_554 S
C1826 H1806 0.950 . S
C1826 C1825 1.414 1_556 S
C1826 C1827 1.374 . S
C1827 H1807 0.950 . S
C1827 C1823 1.385 1_556 S
C1827 C1826 1.374 . S
C1828 C1825 1.499 1_556 S
C1828 C1829 1.373 . S
C1828 C1830 1.389 1_556 S
C1829 H1808 0.950 . S
C1829 C1828 1.373 . S
C1829 C1845 1.377 . S
C1830 C1828 1.389 1_554 S
C1830 C1831 1.524 . S
C1830 C1844 1.377 1_554 S
C1831 C1830 1.524 . S
C1831 C1832 1.397 1_554 S
C1831 C1836 1.363 . S
C1832 H1809 0.950 . S
C1832 C1831 1.397 1_556 S
C1832 C1833 1.334 . S
C1833 H1810 0.950 . S
C1833 C1832 1.334 . S
C1833 C1834 1.287 1_556 S
C1834 C1833 1.287 1_554 S
C1834 C1835 1.524 . S
C1834 H1853 0.913 . S
C1835 H1811 0.950 . S
C1835 C1834 1.524 . S
C1835 C1836 1.415 . S
C1836 H1812 0.950 . S
C1836 C1831 1.363 . S
C1836 C1835 1.415 . S
C1837 H1813 0.951 . S
C1837 C1838 1.366 . S
C1837 C1839 1.388 . S
C1838 C1837 1.366 . S
C1838 C1842 1.385 . S
C1839 H1814 0.951 . S
C1839 C1837 1.388 . S
C1839 C1840 1.366 . S
C1840 C1839 1.366 . S
C1840 C1841 1.432 . S
C1840 C1843 1.499 . S
C1841 H1815 0.926 1_556 S
C1841 C1840 1.432 . S
C1841 C1842 1.381 . S
C1842 H1816 0.950 1_556 S
C1842 C1838 1.385 . S
C1842 C1841 1.381 . S
C1843 C1840 1.499 . S
C1843 C1844 1.373 . S
C1843 C1845 1.389 . S
C1844 H1817 0.948 1_556 S
C1844 C1830 1.377 1_556 S
C1844 C1843 1.373 . S
C1845 C1829 1.377 . S
C1845 C1843 1.389 . S
C1845 C1846 1.524 . S
C1846 C1845 1.524 . S
C1846 C1847 1.397 . S
C1846 C1851 1.363 . S
C1847 H1818 0.950 1_556 S
C1847 C1846 1.397 . S
C1847 C1848 1.334 . S
C1848 H1819 0.948 1_556 S
C1848 C1847 1.334 . S
C1848 C1849 1.287 . S
C1849 C1848 1.287 . S
C1849 C1850 1.524 . S
C1849 H1852 0.999 . S
C1850 H1820 0.950 . S
C1850 C1849 1.524 . S
C1850 C1851 1.415 . S
C1851 H1821 0.950 . S
C1851 C1846 1.363 . S
C1851 C1850 1.415 . S
H1852 C1849 0.999 . S
H1853 C1834 0.913 . S
H1854 C1872 0.951 . S
H1855 C1874 0.951 . S
H1856 C1876 0.950 . S
H1857 C1877 0.950 . S
H1858 C1879 0.950 . S
H1859 C1882 0.950 . S
H1860 C1883 0.950 . S
H1861 C1885 0.950 . S
H1862 C1886 0.950 . S
H1863 C1887 0.951 . S
H1864 C1889 0.951 . S
H1865 C1891 0.950 . S
H1866 C1892 0.950 . S
H1867 C1894 0.950 . S
H1868 C1897 0.950 . S
H1869 C1898 0.950 . S
H1870 C1900 0.950 . S
H1871 C1901 0.950 . S
C1872 H1854 0.951 . S
C1872 C1873 1.366 . S
C1872 C1874 1.388 . S
C1873 C1872 1.366 . S
C1873 C1877 1.385 . S
C1874 H1855 0.951 . S
C1874 C1872 1.388 . S
C1874 C1875 1.366 . S
C1875 C1874 1.366 . S
C1875 C1876 1.414 . S
C1875 C1878 1.499 . S
C1876 H1856 0.950 . S
C1876 C1875 1.414 . S
C1876 C1877 1.374 . S
C1877 H1857 0.950 . S
C1877 C1873 1.385 . S
C1877 C1876 1.374 . S
C1878 C1875 1.499 . S
C1878 C1879 1.373 . S
C1878 C1880 1.389 . S
C1879 H1858 0.950 . S
C1879 C1878 1.373 . S
C1879 C1895 1.377 . S
C1880 C1878 1.389 . S
C1880 C1881 1.524 . S
C1880 C1894 1.377 . S
C1881 C1880 1.524 . S
C1881 C1882 1.397 . S
C1881 C1886 1.363 . S
C1882 H1859 0.950 . S
C1882 C1881 1.397 . S
C1882 C1883 1.334 . S
C1883 H1860 0.950 . S
C1883 C1882 1.334 . S
C1883 C1884 1.287 . S
C1884 C1883 1.287 . S
C1884 C1885 1.524 . S
C1884 H1903 0.913 . S
C1885 H1861 0.950 . S
C1885 C1884 1.524 . S
C1885 C1886 1.415 . S
C1886 H1862 0.950 . S
C1886 C1881 1.363 . S
C1886 C1885 1.415 . S
C1887 H1863 0.951 . S
C1887 C1888 1.366 . S
C1887 C1889 1.388 . S
C1888 C1887 1.366 . S
C1888 C1892 1.385 . S
C1889 H1864 0.951 . S
C1889 C1887 1.388 . S
C1889 C1890 1.366 . S
C1890 C1889 1.366 . S
C1890 C1891 1.414 . S
C1890 C1893 1.499 . S
C1891 H1865 0.950 . S
C1891 C1890 1.414 . S
C1891 C1892 1.374 . S
C1892 H1866 0.950 . S
C1892 C1888 1.385 . S
C1892 C1891 1.374 . S
C1893 C1890 1.499 . S
C1893 C1894 1.373 . S
C1893 C1895 1.389 . S
C1894 H1867 0.950 . S
C1894 C1880 1.377 . S
C1894 C1893 1.373 . S
C1895 C1879 1.377 . S
C1895 C1893 1.389 . S
C1895 C1896 1.524 . S
C1896 C1895 1.524 . S
C1896 C1897 1.397 . S
C1896 C1901 1.363 . S
C1897 H1868 0.950 . S
C1897 C1896 1.397 . S
C1897 C1898 1.334 . S
C1898 H1869 0.950 . S
C1898 C1897 1.334 . S
C1898 C1899 1.287 . S
C1899 C1898 1.287 . S
C1899 C1900 1.524 . S
C1899 H1902 0.999 . S
C1900 H1870 0.950 . S
C1900 C1899 1.524 . S
C1900 C1901 1.415 . S
C1901 H1871 0.950 . S
C1901 C1896 1.363 . S
C1901 C1900 1.415 . S
H1902 C1899 0.999 . S
H1903 C1884 0.913 . S
H1904 C1922 0.951 . S
H1905 C1924 0.951 . S
H1906 C1926 0.950 . S
H1907 C1927 0.950 . S
H1908 C1929 0.950 . S
H1909 C1932 0.950 . S
H1910 C1933 0.950 . S
H1911 C1935 0.950 . S
H1912 C1936 0.950 . S
H1913 C1937 0.951 . S
H1914 C1939 0.951 . S
H1915 C1941 0.950 . S
H1916 C1942 0.950 . S
H1917 C1944 0.950 . S
H1918 C1947 0.950 . S
H1919 C1948 0.950 . S
H1920 C1950 0.950 . S
H1921 C1951 0.950 . S
C1922 H1904 0.951 . S
C1922 C1923 1.366 . S
C1922 C1924 1.388 . S
C1923 C1922 1.366 . S
C1923 C1927 1.385 . S
C1924 H1905 0.951 . S
C1924 C1922 1.388 . S
C1924 C1925 1.366 . S
C1925 C1924 1.366 . S
C1925 C1926 1.414 . S
C1925 C1928 1.499 . S
C1926 H1906 0.950 . S
C1926 C1925 1.414 . S
C1926 C1927 1.374 . S
C1927 H1907 0.950 . S
C1927 C1923 1.385 . S
C1927 C1926 1.374 . S
C1928 C1925 1.499 . S
C1928 C1929 1.373 . S
C1928 C1930 1.389 . S
C1929 H1908 0.950 . S
C1929 C1928 1.373 . S
C1929 C1945 1.377 . S
C1930 C1928 1.389 . S
C1930 C1931 1.524 . S
C1930 C1944 1.377 . S
C1931 C1930 1.524 . S
C1931 C1932 1.397 . S
C1931 C1936 1.363 . S
C1932 H1909 0.950 . S
C1932 C1931 1.397 . S
C1932 C1933 1.334 . S
C1933 H1910 0.950 . S
C1933 C1932 1.334 . S
C1933 C1934 1.287 . S
C1934 C1933 1.287 . S
C1934 C1935 1.524 . S
C1934 H1953 0.913 . S
C1935 H1911 0.950 . S
C1935 C1934 1.524 . S
C1935 C1936 1.415 . S
C1936 H1912 0.950 . S
C1936 C1931 1.363 . S
C1936 C1935 1.415 . S
C1937 H1913 0.951 . S
C1937 C1938 1.366 . S
C1937 C1939 1.388 . S
C1938 C1937 1.366 . S
C1938 C1942 1.385 . S
C1939 H1914 0.951 . S
C1939 C1937 1.388 . S
C1939 C1940 1.366 . S
C1940 C1939 1.366 . S
C1940 C1941 1.414 . S
C1940 C1943 1.499 . S
C1941 H1915 0.950 . S
C1941 C1940 1.414 . S
C1941 C1942 1.374 . S
C1942 H1916 0.950 . S
C1942 C1938 1.385 . S
C1942 C1941 1.374 . S
C1943 C1940 1.499 . S
C1943 C1944 1.373 . S
C1943 C1945 1.389 . S
C1944 H1917 0.950 . S
C1944 C1930 1.377 . S
C1944 C1943 1.373 . S
C1945 C1929 1.377 . S
C1945 C1943 1.389 . S
C1945 C1946 1.524 . S
C1946 C1945 1.524 . S
C1946 C1947 1.397 . S
C1946 C1951 1.363 . S
C1947 H1918 0.950 . S
C1947 C1946 1.397 . S
C1947 C1948 1.334 . S
C1948 H1919 0.950 . S
C1948 C1947 1.334 . S
C1948 C1949 1.287 . S
C1949 C1948 1.287 . S
C1949 C1950 1.524 . S
C1949 H1952 0.999 . S
C1950 H1920 0.950 . S
C1950 C1949 1.524 . S
C1950 C1951 1.415 . S
C1951 H1921 0.950 . S
C1951 C1946 1.363 . S
C1951 C1950 1.415 . S
H1952 C1949 0.999 . S
H1953 C1934 0.913 . S
H1954 C1972 0.951 . S
H1955 C1974 0.951 . S
H1956 C1976 0.950 . S
H1957 C1977 0.950 . S
H1958 C1979 0.950 . S
H1959 C1982 0.950 . S
H1960 C1983 0.950 . S
H1961 C1985 0.950 . S
H1962 C1986 0.950 . S
H1963 C1987 0.951 . S
H1964 C1989 0.951 . S
H1965 C1991 0.950 . S
H1966 C1992 0.950 . S
H1967 C1994 0.950 . S
H1968 C1997 0.950 . S
H1969 C1998 0.950 . S
H1970 C2000 0.950 . S
H1971 C2001 0.950 . S
C1972 H1954 0.951 . S
C1972 C1973 1.366 . S
C1972 C1974 1.388 . S
C1973 C1972 1.366 . S
C1973 C1977 1.385 . S
C1974 H1955 0.951 . S
C1974 C1972 1.388 . S
C1974 C1975 1.366 . S
C1975 C1974 1.366 . S
C1975 C1976 1.414 . S
C1975 C1978 1.499 . S
C1976 H1956 0.950 . S
C1976 C1975 1.414 . S
C1976 C1977 1.374 . S
C1977 H1957 0.950 . S
C1977 C1973 1.385 . S
C1977 C1976 1.374 . S
C1978 C1975 1.499 . S
C1978 C1979 1.373 . S
C1978 C1980 1.389 . S
C1979 H1958 0.950 . S
C1979 C1978 1.373 . S
C1979 C1995 1.377 . S
C1980 C1978 1.389 . S
C1980 C1981 1.524 . S
C1980 C1994 1.377 . S
C1981 C1980 1.524 . S
C1981 C1982 1.397 . S
C1981 C1986 1.363 . S
C1982 H1959 0.950 . S
C1982 C1981 1.397 . S
C1982 C1983 1.334 . S
C1983 H1960 0.950 . S
C1983 C1982 1.334 . S
C1983 C1984 1.287 . S
C1984 C1983 1.287 . S
C1984 C1985 1.524 . S
C1984 H2003 0.913 . S
C1985 H1961 0.950 . S
C1985 C1984 1.524 . S
C1985 C1986 1.415 . S
C1986 H1962 0.950 . S
C1986 C1981 1.363 . S
C1986 C1985 1.415 . S
C1987 H1963 0.951 . S
C1987 C1988 1.366 . S
C1987 C1989 1.388 . S
C1988 C1987 1.366 . S
C1988 C1992 1.385 . S
C1989 H1964 0.951 . S
C1989 C1987 1.388 . S
C1989 C1990 1.366 . S
C1990 C1989 1.366 . S
C1990 C1991 1.414 . S
C1990 C1993 1.499 . S
C1991 H1965 0.950 . S
C1991 C1990 1.414 . S
C1991 C1992 1.374 . S
C1992 H1966 0.950 . S
C1992 C1988 1.385 . S
C1992 C1991 1.374 . S
C1993 C1990 1.499 . S
C1993 C1994 1.373 . S
C1993 C1995 1.389 . S
C1994 H1967 0.950 . S
C1994 C1980 1.377 . S
C1994 C1993 1.373 . S
C1995 C1979 1.377 . S
C1995 C1993 1.389 . S
C1995 C1996 1.524 . S
C1996 C1995 1.524 . S
C1996 C1997 1.397 . S
C1996 C2001 1.363 . S
C1997 H1968 0.950 . S
C1997 C1996 1.397 . S
C1997 C1998 1.334 . S
C1998 H1969 0.950 . S
C1998 C1997 1.334 . S
C1998 C1999 1.287 . S
C1999 C1998 1.287 . S
C1999 C2000 1.524 . S
C1999 H2002 0.999 . S
C2000 H1970 0.950 . S
C2000 C1999 1.524 . S
C2000 C2001 1.415 . S
C2001 H1971 0.950 . S
C2001 C1996 1.363 . S
C2001 C2000 1.415 . S
H2002 C1999 0.999 . S
H2003 C1984 0.913 . S
H2004 C2022 0.951 . S
H2005 C2024 0.951 . S
H2006 C2026 0.950 . S
H2007 C2027 0.950 . S
H2008 C2029 0.950 . S
H2009 C2032 0.950 . S
H2010 C2033 0.950 . S
H2011 C2035 0.950 . S
H2012 C2036 0.950 . S
H2013 C2037 0.951 . S
H2014 C2039 0.951 . S
H2015 C2041 0.950 . S
H2016 C2042 0.950 . S
H2017 C2044 0.950 . S
H2018 C2047 0.950 . S
H2019 C2048 0.950 . S
H2020 C2050 0.950 . S
H2021 C2051 0.950 . S
C2022 H2004 0.951 . S
C2022 C2023 1.366 . S
C2022 C2024 1.388 . S
C2023 C2022 1.366 . S
C2023 C2027 1.385 . S
C2024 H2005 0.951 . S
C2024 C2022 1.388 . S
C2024 C2025 1.366 . S
C2025 C2024 1.366 . S
C2025 C2026 1.414 . S
C2025 C2028 1.499 . S
C2026 H2006 0.950 . S
C2026 C2025 1.414 . S
C2026 C2027 1.374 . S
C2027 H2007 0.950 . S
C2027 C2023 1.385 . S
C2027 C2026 1.374 . S
C2028 C2025 1.499 . S
C2028 C2029 1.373 . S
C2028 C2030 1.389 . S
C2029 H2008 0.950 . S
C2029 C2028 1.373 . S
C2029 C2045 1.377 . S
C2030 C2028 1.389 . S
C2030 C2031 1.524 . S
C2030 C2044 1.377 . S
C2031 C2030 1.524 . S
C2031 C2032 1.397 . S
C2031 C2036 1.363 . S
C2032 H2009 0.950 . S
C2032 C2031 1.397 . S
C2032 C2033 1.334 . S
C2033 H2010 0.950 . S
C2033 C2032 1.334 . S
C2033 C2034 1.287 . S
C2034 C2033 1.287 . S
C2034 C2035 1.524 . S
C2034 H2053 0.913 . S
C2035 H2011 0.950 . S
C2035 C2034 1.524 . S
C2035 C2036 1.415 . S
C2036 H2012 0.950 . S
C2036 C2031 1.363 . S
C2036 C2035 1.415 . S
C2037 H2013 0.951 . S
C2037 C2038 1.366 . S
C2037 C2039 1.388 . S
C2038 C2037 1.366 . S
C2038 C2042 1.385 . S
C2039 H2014 0.951 . S
C2039 C2037 1.388 . S
C2039 C2040 1.366 . S
C2040 C2039 1.366 . S
C2040 C2041 1.414 . S
C2040 C2043 1.499 . S
C2041 H2015 0.950 . S
C2041 C2040 1.414 . S
C2041 C2042 1.374 . S
C2042 H2016 0.950 . S
C2042 C2038 1.385 . S
C2042 C2041 1.374 . S
C2043 C2040 1.499 . S
C2043 C2044 1.373 . S
C2043 C2045 1.389 . S
C2044 H2017 0.950 . S
C2044 C2030 1.377 . S
C2044 C2043 1.373 . S
C2045 C2029 1.377 . S
C2045 C2043 1.389 . S
C2045 C2046 1.524 . S
C2046 C2045 1.524 . S
C2046 C2047 1.397 . S
C2046 C2051 1.363 . S
C2047 H2018 0.950 . S
C2047 C2046 1.397 . S
C2047 C2048 1.334 . S
C2048 H2019 0.950 . S
C2048 C2047 1.334 . S
C2048 C2049 1.287 . S
C2049 C2048 1.287 . S
C2049 C2050 1.524 . S
C2049 H2052 0.999 . S
C2050 H2020 0.950 . S
C2050 C2049 1.524 . S
C2050 C2051 1.415 . S
C2051 H2021 0.950 . S
C2051 C2046 1.363 . S
C2051 C2050 1.415 . S
H2052 C2049 0.999 . S
H2053 C2034 0.913 . S
H2054 C2072 0.951 . S
H2055 C2074 0.951 . S
H2056 C2076 0.950 . S
H2057 C2077 0.950 . S
H2058 C2079 0.950 . S
H2059 C2082 0.950 . S
H2060 C2083 0.950 . S
H2061 C2085 0.950 . S
H2062 C2086 0.950 . S
H2063 C2087 0.951 . S
H2064 C2089 0.951 . S
H2065 C2091 0.950 . S
H2066 C2092 0.950 . S
H2067 C2094 0.950 . S
H2068 C2097 0.950 . S
H2069 C2098 0.950 . S
H2070 C2100 0.950 . S
H2071 C2101 0.950 . S
C2072 H2054 0.951 . S
C2072 C2073 1.366 . S
C2072 C2074 1.388 . S
C2073 C2072 1.366 . S
C2073 C2077 1.385 . S
C2074 H2055 0.951 . S
C2074 C2072 1.388 . S
C2074 C2075 1.366 . S
C2075 C2074 1.366 . S
C2075 C2076 1.414 . S
C2075 C2078 1.499 . S
C2076 H2056 0.950 . S
C2076 C2075 1.414 . S
C2076 C2077 1.374 . S
C2077 H2057 0.950 . S
C2077 C2073 1.385 . S
C2077 C2076 1.374 . S
C2078 C2075 1.499 . S
C2078 C2079 1.373 . S
C2078 C2080 1.389 . S
C2079 H2058 0.950 . S
C2079 C2078 1.373 . S
C2079 C2095 1.377 . S
C2080 C2078 1.389 . S
C2080 C2081 1.524 . S
C2080 C2094 1.377 . S
C2081 C2080 1.524 . S
C2081 C2082 1.397 . S
C2081 C2086 1.363 . S
C2082 H2059 0.950 . S
C2082 C2081 1.397 . S
C2082 C2083 1.334 . S
C2083 H2060 0.950 . S
C2083 C2082 1.334 . S
C2083 C2084 1.287 . S
C2084 C2083 1.287 . S
C2084 C2085 1.524 . S
C2084 H2103 0.913 . S
C2085 H2061 0.950 . S
C2085 C2084 1.524 . S
C2085 C2086 1.415 . S
C2086 H2062 0.950 . S
C2086 C2081 1.363 . S
C2086 C2085 1.415 . S
C2087 H2063 0.951 . S
C2087 C2088 1.366 . S
C2087 C2089 1.388 . S
C2088 C2087 1.366 . S
C2088 C2092 1.385 . S
C2089 H2064 0.951 . S
C2089 C2087 1.388 . S
C2089 C2090 1.366 . S
C2090 C2089 1.366 . S
C2090 C2091 1.414 . S
C2090 C2093 1.499 . S
C2091 H2065 0.950 . S
C2091 C2090 1.414 . S
C2091 C2092 1.374 . S
C2092 H2066 0.950 . S
C2092 C2088 1.385 . S
C2092 C2091 1.374 . S
C2093 C2090 1.499 . S
C2093 C2094 1.373 . S
C2093 C2095 1.389 . S
C2094 H2067 0.950 . S
C2094 C2080 1.377 . S
C2094 C2093 1.373 . S
C2095 C2079 1.377 . S
C2095 C2093 1.389 . S
C2095 C2096 1.524 . S
C2096 C2095 1.524 . S
C2096 C2097 1.397 . S
C2096 C2101 1.363 . S
C2097 H2068 0.950 . S
C2097 C2096 1.397 . S
C2097 C2098 1.334 . S
C2098 H2069 0.950 . S
C2098 C2097 1.334 . S
C2098 C2099 1.287 . S
C2099 C2098 1.287 . S
C2099 C2100 1.524 . S
C2099 H2102 0.999 . S
C2100 H2070 0.950 . S
C2100 C2099 1.524 . S
C2100 C2101 1.415 . S
C2101 H2071 0.950 . S
C2101 C2096 1.363 . S
C2101 C2100 1.415 . S
H2102 C2099 0.999 . S
H2103 C2084 0.913 . S
H2104 C2122 0.951 . S
H2105 C2124 0.951 . S
H2106 C2126 0.950 . S
H2107 C2127 0.950 . S
H2108 C2129 0.950 . S
H2109 C2132 0.950 . S
H2110 C2133 0.950 . S
H2111 C2135 0.950 . S
H2112 C2136 0.950 . S
H2113 C2137 0.951 . S
H2114 C2139 0.951 . S
H2115 C2141 0.950 . S
H2116 C2142 0.950 . S
H2117 C2144 0.950 . S
H2118 C2147 0.950 . S
H2119 C2148 0.950 . S
H2120 C2150 0.950 . S
H2121 C2151 0.950 . S
C2122 H2104 0.951 . S
C2122 C2123 1.366 . S
C2122 C2124 1.388 . S
C2123 C2122 1.366 . S
C2123 C2127 1.385 . S
C2124 H2105 0.951 . S
C2124 C2122 1.388 . S
C2124 C2125 1.366 . S
C2125 C2124 1.366 . S
C2125 C2126 1.414 . S
C2125 C2128 1.499 . S
C2126 H2106 0.950 . S
C2126 C2125 1.414 . S
C2126 C2127 1.374 . S
C2127 H2107 0.950 . S
C2127 C2123 1.385 . S
C2127 C2126 1.374 . S
C2128 C2125 1.499 . S
C2128 C2129 1.373 . S
C2128 C2130 1.389 . S
C2129 H2108 0.950 . S
C2129 C2128 1.373 . S
C2129 C2145 1.377 . S
C2130 C2128 1.389 . S
C2130 C2131 1.524 . S
C2130 C2144 1.377 . S
C2131 C2130 1.524 . S
C2131 C2132 1.397 . S
C2131 C2136 1.363 . S
C2132 H2109 0.950 . S
C2132 C2131 1.397 . S
C2132 C2133 1.334 . S
C2133 H2110 0.950 . S
C2133 C2132 1.334 . S
C2133 C2134 1.287 . S
C2134 C2133 1.287 . S
C2134 C2135 1.524 . S
C2134 H2153 0.913 . S
C2135 H2111 0.950 . S
C2135 C2134 1.524 . S
C2135 C2136 1.415 . S
C2136 H2112 0.950 . S
C2136 C2131 1.363 . S
C2136 C2135 1.415 . S
C2137 H2113 0.951 . S
C2137 C2138 1.366 . S
C2137 C2139 1.388 . S
C2138 C2137 1.366 . S
C2138 C2142 1.385 . S
C2139 H2114 0.951 . S
C2139 C2137 1.388 . S
C2139 C2140 1.366 . S
C2140 C2139 1.366 . S
C2140 C2141 1.414 . S
C2140 C2143 1.499 . S
C2141 H2115 0.950 . S
C2141 C2140 1.414 . S
C2141 C2142 1.374 . S
C2142 H2116 0.950 . S
C2142 C2138 1.385 . S
C2142 C2141 1.374 . S
C2143 C2140 1.499 . S
C2143 C2144 1.373 . S
C2143 C2145 1.389 . S
C2144 H2117 0.950 . S
C2144 C2130 1.377 . S
C2144 C2143 1.373 . S
C2145 C2129 1.377 . S
C2145 C2143 1.389 . S
C2145 C2146 1.524 . S
C2146 C2145 1.524 . S
C2146 C2147 1.397 . S
C2146 C2151 1.363 . S
C2147 H2118 0.950 . S
C2147 C2146 1.397 . S
C2147 C2148 1.334 . S
C2148 H2119 0.950 . S
C2148 C2147 1.334 . S
C2148 C2149 1.287 . S
C2149 C2148 1.287 . S
C2149 C2150 1.524 . S
C2149 H2152 0.999 . S
C2150 H2120 0.950 . S
C2150 C2149 1.524 . S
C2150 C2151 1.415 . S
C2151 H2121 0.950 . S
C2151 C2146 1.363 . S
C2151 C2150 1.415 . S
H2152 C2149 0.999 . S
H2153 C2134 0.913 . S
H2154 C2172 0.951 . S
H2155 C2174 0.951 . S
H2156 C2176 0.950 . S
H2157 C2177 0.950 . S
H2158 C2179 0.950 . S
H2159 C2182 0.950 . S
H2160 C2183 0.950 . S
H2161 C2185 0.950 . S
H2162 C2186 0.950 . S
H2163 C2187 0.951 . S
H2164 C2189 0.951 . S
H2165 C2191 0.950 . S
H2166 C2192 0.950 . S
H2167 C2194 0.950 . S
H2168 C2197 0.950 . S
H2169 C2198 0.950 . S
H2170 C2200 0.950 . S
H2171 C2201 0.950 . S
C2172 H2154 0.951 . S
C2172 C2173 1.366 . S
C2172 C2174 1.388 . S
C2173 C2172 1.366 . S
C2173 C2177 1.385 . S
C2174 H2155 0.951 . S
C2174 C2172 1.388 . S
C2174 C2175 1.366 . S
C2175 C2174 1.366 . S
C2175 C2176 1.414 . S
C2175 C2178 1.499 . S
C2176 H2156 0.950 . S
C2176 C2175 1.414 . S
C2176 C2177 1.374 . S
C2177 H2157 0.950 . S
C2177 C2173 1.385 . S
C2177 C2176 1.374 . S
C2178 C2175 1.499 . S
C2178 C2179 1.373 . S
C2178 C2180 1.389 . S
C2179 H2158 0.950 . S
C2179 C2178 1.373 . S
C2179 C2195 1.377 . S
C2180 C2178 1.389 . S
C2180 C2181 1.524 . S
C2180 C2194 1.377 . S
C2181 C2180 1.524 . S
C2181 C2182 1.397 . S
C2181 C2186 1.363 . S
C2182 H2159 0.950 . S
C2182 C2181 1.397 . S
C2182 C2183 1.334 . S
C2183 H2160 0.950 . S
C2183 C2182 1.334 . S
C2183 C2184 1.287 . S
C2184 C2183 1.287 . S
C2184 C2185 1.524 . S
C2184 H2203 0.913 . S
C2185 H2161 0.950 . S
C2185 C2184 1.524 . S
C2185 C2186 1.415 . S
C2186 H2162 0.950 . S
C2186 C2181 1.363 . S
C2186 C2185 1.415 . S
C2187 H2163 0.951 . S
C2187 C2188 1.366 . S
C2187 C2189 1.388 . S
C2188 C2187 1.366 . S
C2188 C2192 1.385 . S
C2189 H2164 0.951 . S
C2189 C2187 1.388 . S
C2189 C2190 1.366 . S
C2190 C2189 1.366 . S
C2190 C2191 1.414 . S
C2190 C2193 1.499 . S
C2191 H2165 0.950 . S
C2191 C2190 1.414 . S
C2191 C2192 1.374 . S
C2192 H2166 0.950 . S
C2192 C2188 1.385 . S
C2192 C2191 1.374 . S
C2193 C2190 1.499 . S
C2193 C2194 1.373 . S
C2193 C2195 1.389 . S
C2194 H2167 0.950 . S
C2194 C2180 1.377 . S
C2194 C2193 1.373 . S
C2195 C2179 1.377 . S
C2195 C2193 1.389 . S
C2195 C2196 1.524 . S
C2196 C2195 1.524 . S
C2196 C2197 1.397 . S
C2196 C2201 1.363 . S
C2197 H2168 0.950 . S
C2197 C2196 1.397 . S
C2197 C2198 1.334 . S
C2198 H2169 0.950 . S
C2198 C2197 1.334 . S
C2198 C2199 1.287 . S
C2199 C2198 1.287 . S
C2199 C2200 1.524 . S
C2199 H2202 0.999 . S
C2200 H2170 0.950 . S
C2200 C2199 1.524 . S
C2200 C2201 1.415 . S
C2201 H2171 0.950 . S
C2201 C2196 1.363 . S
C2201 C2200 1.415 . S
H2202 C2199 0.999 . S
H2203 C2184 0.913 . S
H2204 C2222 0.951 . S
H2205 C2224 0.951 . S
H2206 C2226 0.950 . S
H2207 C2227 0.950 . S
H2208 C2229 0.950 . S
H2209 C2232 0.950 . S
H2210 C2233 0.950 . S
H2211 C2235 0.950 . S
H2212 C2236 0.950 . S
H2213 C2237 0.951 . S
H2214 C2239 0.951 . S
H2215 C2241 0.950 . S
H2216 C2242 0.950 . S
H2217 C2244 0.950 . S
H2218 C2247 0.950 . S
H2219 C2248 0.950 . S
H2220 C2250 0.950 . S
H2221 C2251 0.950 . S
C2222 H2204 0.951 . S
C2222 C2223 1.366 . S
C2222 C2224 1.388 . S
C2223 C2222 1.366 . S
C2223 C2227 1.385 . S
C2224 H2205 0.951 . S
C2224 C2222 1.388 . S
C2224 C2225 1.366 . S
C2225 C2224 1.366 . S
C2225 C2226 1.414 . S
C2225 C2228 1.499 . S
C2226 H2206 0.950 . S
C2226 C2225 1.414 . S
C2226 C2227 1.374 . S
C2227 H2207 0.950 . S
C2227 C2223 1.385 . S
C2227 C2226 1.374 . S
C2228 C2225 1.499 . S
C2228 C2229 1.373 . S
C2228 C2230 1.389 . S
C2229 H2208 0.950 . S
C2229 C2228 1.373 . S
C2229 C2245 1.377 . S
C2230 C2228 1.389 . S
C2230 C2231 1.524 . S
C2230 C2244 1.377 . S
C2231 C2230 1.524 . S
C2231 C2232 1.397 . S
C2231 C2236 1.363 . S
C2232 H2209 0.950 . S
C2232 C2231 1.397 . S
C2232 C2233 1.334 . S
C2233 H2210 0.950 . S
C2233 C2232 1.334 . S
C2233 C2234 1.287 . S
C2234 C2233 1.287 . S
C2234 C2235 1.524 . S
C2234 H2253 0.913 . S
C2235 H2211 0.950 . S
C2235 C2234 1.524 . S
C2235 C2236 1.415 . S
C2236 H2212 0.950 . S
C2236 C2231 1.363 . S
C2236 C2235 1.415 . S
C2237 H2213 0.951 . S
C2237 C2238 1.366 . S
C2237 C2239 1.388 . S
C2238 C2237 1.366 . S
C2238 C2242 1.385 . S
C2239 H2214 0.951 . S
C2239 C2237 1.388 . S
C2239 C2240 1.366 . S
C2240 C2239 1.366 . S
C2240 C2241 1.414 . S
C2240 C2243 1.499 . S
C2241 H2215 0.950 . S
C2241 C2240 1.414 . S
C2241 C2242 1.374 . S
C2242 H2216 0.950 . S
C2242 C2238 1.385 . S
C2242 C2241 1.374 . S
C2243 C2240 1.499 . S
C2243 C2244 1.373 . S
C2243 C2245 1.389 . S
C2244 H2217 0.950 . S
C2244 C2230 1.377 . S
C2244 C2243 1.373 . S
C2245 C2229 1.377 . S
C2245 C2243 1.389 . S
C2245 C2246 1.524 . S
C2246 C2245 1.524 . S
C2246 C2247 1.397 . S
C2246 C2251 1.363 . S
C2247 H2218 0.950 . S
C2247 C2246 1.397 . S
C2247 C2248 1.334 . S
C2248 H2219 0.950 . S
C2248 C2247 1.334 . S
C2248 C2249 1.287 . S
C2249 C2248 1.287 . S
C2249 C2250 1.524 . S
C2249 H2252 0.999 . S
C2250 H2220 0.950 . S
C2250 C2249 1.524 . S
C2250 C2251 1.415 . S
C2251 H2221 0.950 . S
C2251 C2246 1.363 . S
C2251 C2250 1.415 . S
H2252 C2249 0.999 . S
H2253 C2234 0.913 . S
H2254 C2272 0.951 . S
H2255 C2274 0.951 . S
H2256 C2276 0.950 . S
H2257 C2277 0.950 . S
H2258 C2279 0.950 . S
H2259 C2282 0.950 . S
H2260 C2283 0.950 . S
H2261 C2285 0.950 . S
H2262 C2286 0.950 . S
H2263 C2287 0.951 . S
H2264 C2289 0.951 . S
H2265 C2291 0.950 . S
H2266 C2292 0.950 . S
H2267 C2294 0.950 . S
H2268 C2297 0.950 . S
H2269 C2298 0.950 . S
H2270 C2300 0.950 . S
H2271 C2301 0.950 . S
C2272 H2254 0.951 . S
C2272 C2273 1.366 . S
C2272 C2274 1.388 . S
C2273 C2272 1.366 . S
C2273 C2277 1.385 . S
C2274 H2255 0.951 . S
C2274 C2272 1.388 . S
C2274 C2275 1.366 . S
C2275 C2274 1.366 . S
C2275 C2276 1.414 . S
C2275 C2278 1.499 . S
C2276 H2256 0.950 . S
C2276 C2275 1.414 . S
C2276 C2277 1.374 . S
C2277 H2257 0.950 . S
C2277 C2273 1.385 . S
C2277 C2276 1.374 . S
C2278 C2275 1.499 . S
C2278 C2279 1.373 . S
C2278 C2280 1.389 . S
C2279 H2258 0.950 . S
C2279 C2278 1.373 . S
C2279 C2295 1.377 . S
C2280 C2278 1.389 . S
C2280 C2281 1.524 . S
C2280 C2294 1.377 . S
C2281 C2280 1.524 . S
C2281 C2282 1.397 . S
C2281 C2286 1.363 . S
C2282 H2259 0.950 . S
C2282 C2281 1.397 . S
C2282 C2283 1.334 . S
C2283 H2260 0.950 . S
C2283 C2282 1.334 . S
C2283 C2284 1.287 . S
C2284 C2283 1.287 . S
C2284 C2285 1.524 . S
C2284 H2303 0.913 . S
C2285 H2261 0.950 . S
C2285 C2284 1.524 . S
C2285 C2286 1.415 . S
C2286 H2262 0.950 . S
C2286 C2281 1.363 . S
C2286 C2285 1.415 . S
C2287 H2263 0.951 . S
C2287 C2288 1.366 . S
C2287 C2289 1.388 . S
C2288 C2287 1.366 . S
C2288 C2292 1.385 . S
C2289 H2264 0.951 . S
C2289 C2287 1.388 . S
C2289 C2290 1.366 . S
C2290 C2289 1.366 . S
C2290 C2291 1.414 . S
C2290 C2293 1.499 . S
C2291 H2265 0.950 . S
C2291 C2290 1.414 . S
C2291 C2292 1.374 . S
C2292 H2266 0.950 . S
C2292 C2288 1.385 . S
C2292 C2291 1.374 . S
C2293 C2290 1.499 . S
C2293 C2294 1.373 . S
C2293 C2295 1.389 . S
C2294 H2267 0.950 . S
C2294 C2280 1.377 . S
C2294 C2293 1.373 . S
C2295 C2279 1.377 . S
C2295 C2293 1.389 . S
C2295 C2296 1.524 . S
C2296 C2295 1.524 . S
C2296 C2297 1.397 . S
C2296 C2301 1.363 . S
C2297 H2268 0.950 . S
C2297 C2296 1.397 . S
C2297 C2298 1.334 . S
C2298 H2269 0.950 . S
C2298 C2297 1.334 . S
C2298 C2299 1.287 . S
C2299 C2298 1.287 . S
C2299 C2300 1.524 . S
C2299 H2302 0.999 . S
C2300 H2270 0.950 . S
C2300 C2299 1.524 . S
C2300 C2301 1.415 . S
C2301 H2271 0.950 . S
C2301 C2296 1.363 . S
C2301 C2300 1.415 . S
H2302 C2299 0.999 . S
H2303 C2284 0.913 . S
H2304 C2322 0.951 . S
H2305 C2324 0.951 . S
H2306 C2326 0.950 . S
H2307 C2327 0.950 . S
H2308 C2329 0.950 . S
H2309 C2332 0.950 . S
H2310 C2333 0.950 . S
H2311 C2335 0.950 . S
H2312 C2336 0.950 . S
H2313 C2337 0.951 . S
H2314 C2339 0.951 . S
H2315 C2341 0.950 . S
H2316 C2342 0.950 . S
H2317 C2344 0.950 . S
H2318 C2347 0.950 . S
H2319 C2348 0.950 . S
H2320 C2350 0.950 . S
H2321 C2351 0.950 . S
C2322 H2304 0.951 . S
C2322 C2323 1.366 . S
C2322 C2324 1.388 . S
C2323 C2322 1.366 . S
C2323 C2327 1.385 . S
C2324 H2305 0.951 . S
C2324 C2322 1.388 . S
C2324 C2325 1.366 . S
C2325 C2324 1.366 . S
C2325 C2326 1.414 . S
C2325 C2328 1.499 . S
C2326 H2306 0.950 . S
C2326 C2325 1.414 . S
C2326 C2327 1.374 . S
C2327 H2307 0.950 . S
C2327 C2323 1.385 . S
C2327 C2326 1.374 . S
C2328 C2325 1.499 . S
C2328 C2329 1.373 . S
C2328 C2330 1.389 . S
C2329 H2308 0.950 . S
C2329 C2328 1.373 . S
C2329 C2345 1.377 . S
C2330 C2328 1.389 . S
C2330 C2331 1.524 . S
C2330 C2344 1.377 . S
C2331 C2330 1.524 . S
C2331 C2332 1.397 . S
C2331 C2336 1.363 . S
C2332 H2309 0.950 . S
C2332 C2331 1.397 . S
C2332 C2333 1.334 . S
C2333 H2310 0.950 . S
C2333 C2332 1.334 . S
C2333 C2334 1.287 . S
C2334 C2333 1.287 . S
C2334 C2335 1.524 . S
C2334 H2353 0.913 . S
C2335 H2311 0.950 . S
C2335 C2334 1.524 . S
C2335 C2336 1.415 . S
C2336 H2312 0.950 . S
C2336 C2331 1.363 . S
C2336 C2335 1.415 . S
C2337 H2313 0.951 . S
C2337 C2338 1.366 . S
C2337 C2339 1.388 . S
C2338 C2337 1.366 . S
C2338 C2342 1.385 . S
C2339 H2314 0.951 . S
C2339 C2337 1.388 . S
C2339 C2340 1.366 . S
C2340 C2339 1.366 . S
C2340 C2341 1.414 . S
C2340 C2343 1.499 . S
C2341 H2315 0.950 . S
C2341 C2340 1.414 . S
C2341 C2342 1.374 . S
C2342 H2316 0.950 . S
C2342 C2338 1.385 . S
C2342 C2341 1.374 . S
C2343 C2340 1.499 . S
C2343 C2344 1.373 . S
C2343 C2345 1.389 . S
C2344 H2317 0.950 . S
C2344 C2330 1.377 . S
C2344 C2343 1.373 . S
C2345 C2329 1.377 . S
C2345 C2343 1.389 . S
C2345 C2346 1.524 . S
C2346 C2345 1.524 . S
C2346 C2347 1.397 . S
C2346 C2351 1.363 . S
C2347 H2318 0.950 . S
C2347 C2346 1.397 . S
C2347 C2348 1.334 . S
C2348 H2319 0.950 . S
C2348 C2347 1.334 . S
C2348 C2349 1.287 . S
C2349 C2348 1.287 . S
C2349 C2350 1.524 . S
C2349 H2352 0.999 . S
C2350 H2320 0.950 . S
C2350 C2349 1.524 . S
C2350 C2351 1.415 . S
C2351 H2321 0.950 . S
C2351 C2346 1.363 . S
C2351 C2350 1.415 . S
H2352 C2349 0.999 . S
H2353 C2334 0.913 . S
H2354 C2372 0.951 . S
H2355 C2374 0.951 . S
H2356 C2376 0.950 . S
H2357 C2377 0.950 . S
H2358 C2379 0.950 . S
H2359 C2382 0.950 . S
H2360 C2383 0.950 . S
H2361 C2385 0.950 . S
H2362 C2386 0.950 . S
H2363 C2387 0.951 . S
H2364 C2389 0.951 . S
H2365 C2391 0.950 . S
H2366 C2392 0.950 . S
H2367 C2394 0.950 . S
H2368 C2397 0.950 . S
H2369 C2398 0.950 . S
H2370 C2400 0.950 . S
H2371 C2401 0.950 . S
C2372 H2354 0.951 . S
C2372 C2373 1.366 . S
C2372 C2374 1.388 . S
C2373 C2372 1.366 . S
C2373 C2377 1.385 . S
C2374 H2355 0.951 . S
C2374 C2372 1.388 . S
C2374 C2375 1.366 . S
C2375 C2374 1.366 . S
C2375 C2376 1.414 . S
C2375 C2378 1.499 . S
C2376 H2356 0.950 . S
C2376 C2375 1.414 . S
C2376 C2377 1.374 . S
C2377 H2357 0.950 . S
C2377 C2373 1.385 . S
C2377 C2376 1.374 . S
C2378 C2375 1.499 . S
C2378 C2379 1.373 . S
C2378 C2380 1.389 . S
C2379 H2358 0.950 . S
C2379 C2378 1.373 . S
C2379 C2395 1.377 . S
C2380 C2378 1.389 . S
C2380 C2381 1.524 . S
C2380 C2394 1.377 . S
C2381 C2380 1.524 . S
C2381 C2382 1.397 . S
C2381 C2386 1.363 . S
C2382 H2359 0.950 . S
C2382 C2381 1.397 . S
C2382 C2383 1.334 . S
C2383 H2360 0.950 . S
C2383 C2382 1.334 . S
C2383 C2384 1.287 . S
C2384 C2383 1.287 . S
C2384 C2385 1.524 . S
C2384 H2403 0.913 . S
C2385 H2361 0.950 . S
C2385 C2384 1.524 . S
C2385 C2386 1.415 . S
C2386 H2362 0.950 . S
C2386 C2381 1.363 . S
C2386 C2385 1.415 . S
C2387 H2363 0.951 . S
C2387 C2388 1.366 . S
C2387 C2389 1.388 . S
C2388 C2387 1.366 . S
C2388 C2392 1.385 . S
C2389 H2364 0.951 . S
C2389 C2387 1.388 . S
C2389 C2390 1.366 . S
C2390 C2389 1.366 . S
C2390 C2391 1.414 . S
C2390 C2393 1.499 . S
C2391 H2365 0.950 . S
C2391 C2390 1.414 . S
C2391 C2392 1.374 . S
C2392 H2366 0.950 . S
C2392 C2388 1.385 . S
C2392 C2391 1.374 . S
C2393 C2390 1.499 . S
C2393 C2394 1.373 . S
C2393 C2395 1.389 . S
C2394 H2367 0.950 . S
C2394 C2380 1.377 . S
C2394 C2393 1.373 . S
C2395 C2379 1.377 . S
C2395 C2393 1.389 . S
C2395 C2396 1.524 . S
C2396 C2395 1.524 . S
C2396 C2397 1.397 . S
C2396 C2401 1.363 . S
C2397 H2368 0.950 . S
C2397 C2396 1.397 . S
C2397 C2398 1.334 . S
C2398 H2369 0.950 . S
C2398 C2397 1.334 . S
C2398 C2399 1.287 . S
C2399 C2398 1.287 . S
C2399 C2400 1.524 . S
C2399 H2402 0.999 . S
C2400 H2370 0.950 . S
C2400 C2399 1.524 . S
C2400 C2401 1.415 . S
C2401 H2371 0.950 . S
C2401 C2396 1.363 . S
C2401 C2400 1.415 . S
H2402 C2399 0.999 . S
H2403 C2384 0.913 . S
H2404 C2422 0.951 . S
H2405 C2424 0.951 . S
H2406 C2426 0.950 . S
H2407 C2427 0.950 . S
H2408 C2429 0.950 . S
H2409 C2432 0.950 . S
H2410 C2433 0.950 . S
H2411 C2435 0.950 . S
H2412 C2436 0.950 . S
H2413 C2437 0.951 . S
H2414 C2439 0.951 . S
H2415 C2441 0.950 . S
H2416 C2442 0.950 . S
H2417 C2444 0.950 . S
H2418 C2447 0.950 . S
H2419 C2448 0.950 . S
H2420 C2450 0.950 . S
H2421 C2451 0.950 . S
C2422 H2404 0.951 . S
C2422 C2423 1.366 . S
C2422 C2424 1.388 . S
C2423 C2422 1.366 . S
C2423 C2427 1.385 . S
C2424 H2405 0.951 . S
C2424 C2422 1.388 . S
C2424 C2425 1.366 . S
C2425 C2424 1.366 . S
C2425 C2426 1.414 . S
C2425 C2428 1.499 . S
C2426 H2406 0.950 . S
C2426 C2425 1.414 . S
C2426 C2427 1.374 . S
C2427 H2407 0.950 . S
C2427 C2423 1.385 . S
C2427 C2426 1.374 . S
C2428 C2425 1.499 . S
C2428 C2429 1.373 . S
C2428 C2430 1.389 . S
C2429 H2408 0.950 . S
C2429 C2428 1.373 . S
C2429 C2445 1.377 . S
C2430 C2428 1.389 . S
C2430 C2431 1.524 . S
C2430 C2444 1.377 . S
C2431 C2430 1.524 . S
C2431 C2432 1.397 . S
C2431 C2436 1.363 . S
C2432 H2409 0.950 . S
C2432 C2431 1.397 . S
C2432 C2433 1.334 . S
C2433 H2410 0.950 . S
C2433 C2432 1.334 . S
C2433 C2434 1.287 . S
C2434 C2433 1.287 . S
C2434 C2435 1.524 . S
C2434 H2453 0.913 . S
C2435 H2411 0.950 . S
C2435 C2434 1.524 . S
C2435 C2436 1.415 . S
C2436 H2412 0.950 . S
C2436 C2431 1.363 . S
C2436 C2435 1.415 . S
C2437 H2413 0.951 . S
C2437 C2438 1.366 . S
C2437 C2439 1.388 . S
C2438 C2437 1.366 . S
C2438 C2442 1.385 . S
C2439 H2414 0.951 . S
C2439 C2437 1.388 . S
C2439 C2440 1.366 . S
C2440 C2439 1.366 . S
C2440 C2441 1.414 . S
C2440 C2443 1.499 . S
C2441 H2415 0.950 . S
C2441 C2440 1.414 . S
C2441 C2442 1.374 . S
C2442 H2416 0.950 . S
C2442 C2438 1.385 . S
C2442 C2441 1.374 . S
C2443 C2440 1.499 . S
C2443 C2444 1.373 . S
C2443 C2445 1.389 . S
C2444 H2417 0.950 . S
C2444 C2430 1.377 . S
C2444 C2443 1.373 . S
C2445 C2429 1.377 . S
C2445 C2443 1.389 . S
C2445 C2446 1.524 . S
C2446 C2445 1.524 . S
C2446 C2447 1.397 . S
C2446 C2451 1.363 . S
C2447 H2418 0.950 . S
C2447 C2446 1.397 . S
C2447 C2448 1.334 . S
C2448 H2419 0.950 . S
C2448 C2447 1.334 . S
C2448 C2449 1.287 . S
C2449 C2448 1.287 . S
C2449 C2450 1.524 . S
C2449 H2452 0.999 . S
C2450 H2420 0.950 . S
C2450 C2449 1.524 . S
C2450 C2451 1.415 . S
C2451 H2421 0.950 . S
C2451 C2446 1.363 . S
C2451 C2450 1.415 . S
H2452 C2449 0.999 . S
H2453 C2434 0.913 . S
H2454 C2472 0.951 . S
H2455 C2474 0.951 . S
H2456 C2476 0.950 . S
H2457 C2477 0.950 . S
H2458 C2479 0.950 . S
H2459 C2482 0.950 . S
H2460 C2483 0.950 . S
H2461 C2485 0.950 . S
H2462 C2486 0.950 . S
H2463 C2487 0.951 . S
H2464 C2489 0.951 . S
H2465 C2491 0.950 . S
H2466 C2492 0.950 . S
H2467 C2494 0.950 . S
H2468 C2497 0.950 . S
H2469 C2498 0.950 . S
H2470 C2500 0.950 . S
H2471 C2501 0.950 . S
C2472 H2454 0.951 . S
C2472 C2473 1.366 . S
C2472 C2474 1.388 . S
C2473 C2472 1.366 . S
C2473 C2477 1.385 . S
C2474 H2455 0.951 . S
C2474 C2472 1.388 . S
C2474 C2475 1.366 . S
C2475 C2474 1.366 . S
C2475 C2476 1.414 . S
C2475 C2478 1.499 . S
C2476 H2456 0.950 . S
C2476 C2475 1.414 . S
C2476 C2477 1.374 . S
C2477 H2457 0.950 . S
C2477 C2473 1.385 . S
C2477 C2476 1.374 . S
C2478 C2475 1.499 . S
C2478 C2479 1.373 . S
C2478 C2480 1.389 . S
C2479 H2458 0.950 . S
C2479 C2478 1.373 . S
C2479 C2495 1.377 . S
C2480 C2478 1.389 . S
C2480 C2481 1.524 . S
C2480 C2494 1.377 . S
C2481 C2480 1.524 . S
C2481 C2482 1.397 . S
C2481 C2486 1.363 . S
C2482 H2459 0.950 . S
C2482 C2481 1.397 . S
C2482 C2483 1.334 . S
C2483 H2460 0.950 . S
C2483 C2482 1.334 . S
C2483 C2484 1.287 . S
C2484 C2483 1.287 . S
C2484 C2485 1.524 . S
C2484 H2503 0.913 . S
C2485 H2461 0.950 . S
C2485 C2484 1.524 . S
C2485 C2486 1.415 . S
C2486 H2462 0.950 . S
C2486 C2481 1.363 . S
C2486 C2485 1.415 . S
C2487 H2463 0.951 . S
C2487 C2488 1.366 . S
C2487 C2489 1.388 . S
C2488 C2487 1.366 . S
C2488 C2492 1.385 . S
C2489 H2464 0.951 . S
C2489 C2487 1.388 . S
C2489 C2490 1.366 . S
C2490 C2489 1.366 . S
C2490 C2491 1.414 . S
C2490 C2493 1.499 . S
C2491 H2465 0.950 . S
C2491 C2490 1.414 . S
C2491 C2492 1.374 . S
C2492 H2466 0.950 . S
C2492 C2488 1.385 . S
C2492 C2491 1.374 . S
C2493 C2490 1.499 . S
C2493 C2494 1.373 . S
C2493 C2495 1.389 . S
C2494 H2467 0.950 . S
C2494 C2480 1.377 . S
C2494 C2493 1.373 . S
C2495 C2479 1.377 . S
C2495 C2493 1.389 . S
C2495 C2496 1.524 . S
C2496 C2495 1.524 . S
C2496 C2497 1.397 . S
C2496 C2501 1.363 . S
C2497 H2468 0.950 . S
C2497 C2496 1.397 . S
C2497 C2498 1.334 . S
C2498 H2469 0.950 . S
C2498 C2497 1.334 . S
C2498 C2499 1.287 . S
C2499 C2498 1.287 . S
C2499 C2500 1.524 . S
C2499 H2502 0.999 . S
C2500 H2470 0.950 . S
C2500 C2499 1.524 . S
C2500 C2501 1.415 . S
C2501 H2471 0.950 . S
C2501 C2496 1.363 . S
C2501 C2500 1.415 . S
H2502 C2499 0.999 . S
H2503 C2484 0.913 . S
H2504 C2522 0.951 . S
H2505 C2524 0.951 . S
H2506 C2526 0.950 . S
H2507 C2527 0.950 . S
H2508 C2529 0.950 . S
H2509 C2532 0.950 . S
H2510 C2533 0.950 . S
H2511 C2535 0.950 . S
H2512 C2536 0.950 . S
H2513 C2537 0.951 . S
H2514 C2539 0.951 . S
H2515 C2541 0.950 . S
H2516 C2542 0.950 . S
H2517 C2544 0.950 . S
H2518 C2547 0.950 . S
H2519 C2548 0.950 . S
H2520 C2550 0.950 . S
H2521 C2551 0.950 . S
C2522 H2504 0.951 . S
C2522 C2523 1.366 . S
C2522 C2524 1.388 . S
C2523 C2522 1.366 . S
C2523 C2527 1.385 . S
C2524 H2505 0.951 . S
C2524 C2522 1.388 . S
C2524 C2525 1.366 . S
C2525 C2524 1.366 . S
C2525 C2526 1.414 . S
C2525 C2528 1.499 . S
C2526 H2506 0.950 . S
C2526 C2525 1.414 . S
C2526 C2527 1.374 . S
C2527 H2507 0.950 . S
C2527 C2523 1.385 . S
C2527 C2526 1.374 . S
C2528 C2525 1.499 . S
C2528 C2529 1.373 . S
C2528 C2530 1.389 . S
C2529 H2508 0.950 . S
C2529 C2528 1.373 . S
C2529 C2545 1.377 . S
C2530 C2528 1.389 . S
C2530 C2531 1.524 . S
C2530 C2544 1.377 . S
C2531 C2530 1.524 . S
C2531 C2532 1.397 . S
C2531 C2536 1.363 . S
C2532 H2509 0.950 . S
C2532 C2531 1.397 . S
C2532 C2533 1.334 . S
C2533 H2510 0.950 . S
C2533 C2532 1.334 . S
C2533 C2534 1.287 . S
C2534 C2533 1.287 . S
C2534 C2535 1.524 . S
C2534 H2553 0.913 . S
C2535 H2511 0.950 . S
C2535 C2534 1.524 . S
C2535 C2536 1.415 . S
C2536 H2512 0.950 . S
C2536 C2531 1.363 . S
C2536 C2535 1.415 . S
C2537 H2513 0.951 . S
C2537 C2538 1.366 . S
C2537 C2539 1.388 . S
C2538 C2537 1.366 . S
C2538 C2542 1.385 . S
C2539 H2514 0.951 . S
C2539 C2537 1.388 . S
C2539 C2540 1.366 . S
C2540 C2539 1.366 . S
C2540 C2541 1.414 . S
C2540 C2543 1.499 . S
C2541 H2515 0.950 . S
C2541 C2540 1.414 . S
C2541 C2542 1.374 . S
C2542 H2516 0.950 . S
C2542 C2538 1.385 . S
C2542 C2541 1.374 . S
C2543 C2540 1.499 . S
C2543 C2544 1.373 . S
C2543 C2545 1.389 . S
C2544 H2517 0.950 . S
C2544 C2530 1.377 . S
C2544 C2543 1.373 . S
C2545 C2529 1.377 . S
C2545 C2543 1.389 . S
C2545 C2546 1.524 . S
C2546 C2545 1.524 . S
C2546 C2547 1.397 . S
C2546 C2551 1.363 . S
C2547 H2518 0.950 . S
C2547 C2546 1.397 . S
C2547 C2548 1.334 . S
C2548 H2519 0.950 . S
C2548 C2547 1.334 . S
C2548 C2549 1.287 . S
C2549 C2548 1.287 . S
C2549 C2550 1.524 . S
C2549 H2552 0.999 . S
C2550 H2520 0.950 . S
C2550 C2549 1.524 . S
C2550 C2551 1.415 . S
C2551 H2521 0.950 . S
C2551 C2546 1.363 . S
C2551 C2550 1.415 . S
H2552 C2549 0.999 . S
H2553 C2534 0.913 . S
H2554 C2572 0.951 . S
H2555 C2574 0.951 . S
H2556 C2576 0.950 . S
H2557 C2577 0.950 . S
H2558 C2579 0.950 . S
H2559 C2582 0.950 . S
H2560 C2583 0.950 . S
H2561 C2585 0.950 . S
H2562 C2586 0.950 . S
H2563 C2587 0.951 . S
H2564 C2589 0.951 . S
H2565 C2591 0.950 . S
H2566 C2592 0.950 . S
H2567 C2594 0.950 . S
H2568 C2597 0.950 . S
H2569 C2598 0.950 . S
H2570 C2600 0.950 . S
H2571 C2601 0.950 . S
C2572 H2554 0.951 . S
C2572 C2573 1.366 . S
C2572 C2574 1.388 . S
C2573 C2572 1.366 . S
C2573 C2577 1.385 . S
C2574 H2555 0.951 . S
C2574 C2572 1.388 . S
C2574 C2575 1.366 . S
C2575 C2574 1.366 . S
C2575 C2576 1.414 . S
C2575 C2578 1.499 . S
C2576 H2556 0.950 . S
C2576 C2575 1.414 . S
C2576 C2577 1.374 . S
C2577 H2557 0.950 . S
C2577 C2573 1.385 . S
C2577 C2576 1.374 . S
C2578 C2575 1.499 . S
C2578 C2579 1.373 . S
C2578 C2580 1.389 . S
C2579 H2558 0.950 . S
C2579 C2578 1.373 . S
C2579 C2595 1.377 . S
C2580 C2578 1.389 . S
C2580 C2581 1.524 . S
C2580 C2594 1.377 . S
C2581 C2580 1.524 . S
C2581 C2582 1.397 . S
C2581 C2586 1.363 . S
C2582 H2559 0.950 . S
C2582 C2581 1.397 . S
C2582 C2583 1.334 . S
C2583 H2560 0.950 . S
C2583 C2582 1.334 . S
C2583 C2584 1.287 . S
C2584 C2583 1.287 . S
C2584 C2585 1.524 . S
C2584 H2603 0.913 . S
C2585 H2561 0.950 . S
C2585 C2584 1.524 . S
C2585 C2586 1.415 . S
C2586 H2562 0.950 . S
C2586 C2581 1.363 . S
C2586 C2585 1.415 . S
C2587 H2563 0.951 . S
C2587 C2588 1.366 . S
C2587 C2589 1.388 . S
C2588 C2587 1.366 . S
C2588 C2592 1.385 . S
C2589 H2564 0.951 . S
C2589 C2587 1.388 . S
C2589 C2590 1.366 . S
C2590 C2589 1.366 . S
C2590 C2591 1.414 . S
C2590 C2593 1.499 . S
C2591 H2565 0.950 . S
C2591 C2590 1.414 . S
C2591 C2592 1.374 . S
C2592 H2566 0.950 . S
C2592 C2588 1.385 . S
C2592 C2591 1.374 . S
C2593 C2590 1.499 . S
C2593 C2594 1.373 . S
C2593 C2595 1.389 . S
C2594 H2567 0.950 . S
C2594 C2580 1.377 . S
C2594 C2593 1.373 . S
C2595 C2579 1.377 . S
C2595 C2593 1.389 . S
C2595 C2596 1.524 . S
C2596 C2595 1.524 . S
C2596 C2597 1.397 . S
C2596 C2601 1.363 . S
C2597 H2568 0.950 . S
C2597 C2596 1.397 . S
C2597 C2598 1.334 . S
C2598 H2569 0.950 . S
C2598 C2597 1.334 . S
C2598 C2599 1.287 . S
C2599 C2598 1.287 . S
C2599 C2600 1.524 . S
C2599 H2602 0.999 . S
C2600 H2570 0.950 . S
C2600 C2599 1.524 . S
C2600 C2601 1.415 . S
C2601 H2571 0.950 . S
C2601 C2596 1.363 . S
C2601 C2600 1.415 . S
H2602 C2599 0.999 . S
H2603 C2584 0.913 . S
H2604 C2622 0.951 . S
H2605 C2624 0.951 . S
H2606 C2626 0.950 . S
H2607 C2627 0.950 . S
H2608 C2629 0.950 . S
H2609 C2632 0.950 . S
H2610 C2633 0.950 . S
H2611 C2635 0.950 . S
H2612 C2636 0.950 . S
H2613 C2637 0.951 . S
H2614 C2639 0.951 . S
H2615 C2641 0.950 . S
H2616 C2642 0.950 . S
H2617 C2644 0.950 . S
H2618 C2647 0.950 . S
H2619 C2648 0.950 . S
H2620 C2650 0.950 . S
H2621 C2651 0.950 . S
C2622 H2604 0.951 . S
C2622 C2623 1.366 . S
C2622 C2624 1.388 . S
C2623 C2622 1.366 . S
C2623 C2627 1.385 . S
C2624 H2605 0.951 . S
C2624 C2622 1.388 . S
C2624 C2625 1.366 . S
C2625 C2624 1.366 . S
C2625 C2626 1.414 . S
C2625 C2628 1.499 . S
C2626 H2606 0.950 . S
C2626 C2625 1.414 . S
C2626 C2627 1.374 . S
C2627 H2607 0.950 . S
C2627 C2623 1.385 . S
C2627 C2626 1.374 . S
C2628 C2625 1.499 . S
C2628 C2629 1.373 . S
C2628 C2630 1.389 . S
C2629 H2608 0.950 . S
C2629 C2628 1.373 . S
C2629 C2645 1.377 . S
C2630 C2628 1.389 . S
C2630 C2631 1.524 . S
C2630 C2644 1.377 . S
C2631 C2630 1.524 . S
C2631 C2632 1.397 . S
C2631 C2636 1.363 . S
C2632 H2609 0.950 . S
C2632 C2631 1.397 . S
C2632 C2633 1.334 . S
C2633 H2610 0.950 . S
C2633 C2632 1.334 . S
C2633 C2634 1.287 . S
C2634 C2633 1.287 . S
C2634 C2635 1.524 . S
C2634 H2653 0.913 . S
C2635 H2611 0.950 . S
C2635 C2634 1.524 . S
C2635 C2636 1.415 . S
C2636 H2612 0.950 . S
C2636 C2631 1.363 . S
C2636 C2635 1.415 . S
C2637 H2613 0.951 . S
C2637 C2638 1.366 . S
C2637 C2639 1.388 . S
C2638 C2637 1.366 . S
C2638 C2642 1.385 . S
C2639 H2614 0.951 . S
C2639 C2637 1.388 . S
C2639 C2640 1.366 . S
C2640 C2639 1.366 . S
C2640 C2641 1.414 . S
C2640 C2643 1.499 . S
C2641 H2615 0.950 . S
C2641 C2640 1.414 . S
C2641 C2642 1.374 . S
C2642 H2616 0.950 . S
C2642 C2638 1.385 . S
C2642 C2641 1.374 . S
C2643 C2640 1.499 . S
C2643 C2644 1.373 . S
C2643 C2645 1.389 . S
C2644 H2617 0.950 . S
C2644 C2630 1.377 . S
C2644 C2643 1.373 . S
C2645 C2629 1.377 . S
C2645 C2643 1.389 . S
C2645 C2646 1.524 . S
C2646 C2645 1.524 . S
C2646 C2647 1.397 . S
C2646 C2651 1.363 . S
C2647 H2618 0.950 . S
C2647 C2646 1.397 . S
C2647 C2648 1.334 . S
C2648 H2619 0.950 . S
C2648 C2647 1.334 . S
C2648 C2649 1.287 . S
C2649 C2648 1.287 . S
C2649 C2650 1.524 . S
C2649 H2652 0.999 . S
C2650 H2620 0.950 . S
C2650 C2649 1.524 . S
C2650 C2651 1.415 . S
C2651 H2621 0.950 . S
C2651 C2646 1.363 . S
C2651 C2650 1.415 . S
H2652 C2649 0.999 . S
H2653 C2634 0.913 . S
H2654 C2672 0.951 . S
H2655 C2674 0.951 . S
H2656 C2676 0.950 . S
H2657 C2677 0.950 . S
H2658 C2679 0.950 . S
H2659 C2682 0.950 . S
H2660 C2683 0.950 . S
H2661 C2685 0.950 . S
H2662 C2686 0.950 . S
H2663 C2687 0.951 . S
H2664 C2689 0.951 . S
H2665 C2691 0.950 . S
H2666 C2692 0.950 . S
H2667 C2694 0.950 . S
H2668 C2697 0.950 . S
H2669 C2698 0.950 . S
H2670 C2700 0.950 . S
H2671 C2701 0.950 . S
C2672 H2654 0.951 . S
C2672 C2673 1.366 . S
C2672 C2674 1.388 . S
C2673 C2672 1.366 . S
C2673 C2677 1.385 . S
C2674 H2655 0.951 . S
C2674 C2672 1.388 . S
C2674 C2675 1.366 . S
C2675 C2674 1.366 . S
C2675 C2676 1.414 . S
C2675 C2678 1.499 . S
C2676 H2656 0.950 . S
C2676 C2675 1.414 . S
C2676 C2677 1.374 . S
C2677 H2657 0.950 . S
C2677 C2673 1.385 . S
C2677 C2676 1.374 . S
C2678 C2675 1.499 . S
C2678 C2679 1.373 . S
C2678 C2680 1.389 . S
C2679 H2658 0.950 . S
C2679 C2678 1.373 . S
C2679 C2695 1.377 . S
C2680 C2678 1.389 . S
C2680 C2681 1.524 . S
C2680 C2694 1.377 . S
C2681 C2680 1.524 . S
C2681 C2682 1.397 . S
C2681 C2686 1.363 . S
C2682 H2659 0.950 . S
C2682 C2681 1.397 . S
C2682 C2683 1.334 . S
C2683 H2660 0.950 . S
C2683 C2682 1.334 . S
C2683 C2684 1.287 . S
C2684 C2683 1.287 . S
C2684 C2685 1.524 . S
C2684 H2703 0.913 . S
C2685 H2661 0.950 . S
C2685 C2684 1.524 . S
C2685 C2686 1.415 . S
C2686 H2662 0.950 . S
C2686 C2681 1.363 . S
C2686 C2685 1.415 . S
C2687 H2663 0.951 . S
C2687 C2688 1.366 . S
C2687 C2689 1.388 . S
C2688 C2687 1.366 . S
C2688 C2692 1.385 . S
C2689 H2664 0.951 . S
C2689 C2687 1.388 . S
C2689 C2690 1.366 . S
C2690 C2689 1.366 . S
C2690 C2691 1.414 . S
C2690 C2693 1.499 . S
C2691 H2665 0.950 . S
C2691 C2690 1.414 . S
C2691 C2692 1.374 . S
C2692 H2666 0.950 . S
C2692 C2688 1.385 . S
C2692 C2691 1.374 . S
C2693 C2690 1.499 . S
C2693 C2694 1.373 . S
C2693 C2695 1.389 . S
C2694 H2667 0.950 . S
C2694 C2680 1.377 . S
C2694 C2693 1.373 . S
C2695 C2679 1.377 . S
C2695 C2693 1.389 . S
C2695 C2696 1.524 . S
C2696 C2695 1.524 . S
C2696 C2697 1.397 . S
C2696 C2701 1.363 . S
C2697 H2668 0.950 . S
C2697 C2696 1.397 . S
C2697 C2698 1.334 . S
C2698 H2669 0.950 . S
C2698 C2697 1.334 . S
C2698 C2699 1.287 . S
C2699 C2698 1.287 . S
C2699 C2700 1.524 . S
C2699 H2702 0.999 . S
C2700 H2670 0.950 . S
C2700 C2699 1.524 . S
C2700 C2701 1.415 . S
C2701 H2671 0.950 . S
C2701 C2696 1.363 . S
C2701 C2700 1.415 . S
H2702 C2699 0.999 . S
H2703 C2684 0.913 . S
H2704 C2722 0.951 . S
H2705 C2724 0.951 . S
H2706 C2726 0.950 . S
H2707 C2727 0.950 . S
H2708 C2729 0.950 . S
H2709 C2732 0.950 . S
H2710 C2733 0.950 . S
H2711 C2735 0.950 . S
H2712 C2736 0.950 . S
H2713 C2737 0.951 . S
H2714 C2739 0.951 . S
H2715 C2741 0.950 . S
H2716 C2742 0.950 . S
H2717 C2744 0.950 . S
H2718 C2747 0.950 . S
H2719 C2748 0.950 . S
H2720 C2750 0.950 . S
H2721 C2751 0.950 . S
C2722 H2704 0.951 . S
C2722 C2723 1.366 . S
C2722 C2724 1.388 . S
C2723 C2722 1.366 . S
C2723 C2727 1.385 . S
C2724 H2705 0.951 . S
C2724 C2722 1.388 . S
C2724 C2725 1.366 . S
C2725 C2724 1.366 . S
C2725 C2726 1.414 . S
C2725 C2728 1.499 . S
C2726 H2706 0.950 . S
C2726 C2725 1.414 . S
C2726 C2727 1.374 . S
C2727 H2707 0.950 . S
C2727 C2723 1.385 . S
C2727 C2726 1.374 . S
C2728 C2725 1.499 . S
C2728 C2729 1.373 . S
C2728 C2730 1.389 . S
C2729 H2708 0.950 . S
C2729 C2728 1.373 . S
C2729 C2745 1.377 . S
C2730 C2728 1.389 . S
C2730 C2731 1.524 . S
C2730 C2744 1.377 . S
C2731 C2730 1.524 . S
C2731 C2732 1.397 . S
C2731 C2736 1.363 . S
C2732 H2709 0.950 . S
C2732 C2731 1.397 . S
C2732 C2733 1.334 . S
C2733 H2710 0.950 . S
C2733 C2732 1.334 . S
C2733 C2734 1.287 . S
C2734 C2733 1.287 . S
C2734 C2735 1.524 . S
C2734 H2753 0.913 . S
C2735 H2711 0.950 . S
C2735 C2734 1.524 . S
C2735 C2736 1.415 . S
C2736 H2712 0.950 . S
C2736 C2731 1.363 . S
C2736 C2735 1.415 . S
C2737 H2713 0.951 . S
C2737 C2738 1.366 . S
C2737 C2739 1.388 . S
C2738 C2737 1.366 . S
C2738 C2742 1.385 . S
C2739 H2714 0.951 . S
C2739 C2737 1.388 . S
C2739 C2740 1.366 . S
C2740 C2739 1.366 . S
C2740 C2741 1.414 . S
C2740 C2743 1.499 . S
C2741 H2715 0.950 . S
C2741 C2740 1.414 . S
C2741 C2742 1.374 . S
C2742 H2716 0.950 . S
C2742 C2738 1.385 . S
C2742 C2741 1.374 . S
C2743 C2740 1.499 . S
C2743 C2744 1.373 . S
C2743 C2745 1.389 . S
C2744 H2717 0.950 . S
C2744 C2730 1.377 . S
C2744 C2743 1.373 . S
C2745 C2729 1.377 . S
C2745 C2743 1.389 . S
C2745 C2746 1.524 . S
C2746 C2745 1.524 . S
C2746 C2747 1.397 . S
C2746 C2751 1.363 . S
C2747 H2718 0.950 . S
C2747 C2746 1.397 . S
C2747 C2748 1.334 . S
C2748 H2719 0.950 . S
C2748 C2747 1.334 . S
C2748 C2749 1.287 . S
C2749 C2748 1.287 . S
C2749 C2750 1.524 . S
C2749 H2752 0.999 . S
C2750 H2720 0.950 . S
C2750 C2749 1.524 . S
C2750 C2751 1.415 . S
C2751 H2721 0.950 . S
C2751 C2746 1.363 . S
C2751 C2750 1.415 . S
H2752 C2749 0.999 . S
H2753 C2734 0.913 . S
H2754 C2772 0.951 . S
H2755 C2774 0.951 . S
H2756 C2776 0.950 . S
H2757 C2777 0.950 . S
H2758 C2779 0.950 . S
H2759 C2782 0.950 . S
H2760 C2783 0.950 . S
H2761 C2785 0.950 . S
H2762 C2786 0.950 . S
H2763 C2787 0.951 . S
H2764 C2789 0.951 . S
H2765 C2791 0.950 . S
H2766 C2792 0.950 . S
H2767 C2794 0.950 . S
H2768 C2797 0.950 . S
H2769 C2798 0.950 . S
H2770 C2800 0.950 . S
H2771 C2801 0.950 . S
C2772 H2754 0.951 . S
C2772 C2773 1.366 . S
C2772 C2774 1.388 . S
C2773 C2772 1.366 . S
C2773 C2777 1.385 . S
C2774 H2755 0.951 . S
C2774 C2772 1.388 . S
C2774 C2775 1.366 . S
C2775 C2774 1.366 . S
C2775 C2776 1.414 . S
C2775 C2778 1.499 . S
C2776 H2756 0.950 . S
C2776 C2775 1.414 . S
C2776 C2777 1.374 . S
C2777 H2757 0.950 . S
C2777 C2773 1.385 . S
C2777 C2776 1.374 . S
C2778 C2775 1.499 . S
C2778 C2779 1.373 . S
C2778 C2780 1.389 . S
C2779 H2758 0.950 . S
C2779 C2778 1.373 . S
C2779 C2795 1.377 . S
C2780 C2778 1.389 . S
C2780 C2781 1.524 . S
C2780 C2794 1.377 . S
C2781 C2780 1.524 . S
C2781 C2782 1.397 . S
C2781 C2786 1.363 . S
C2782 H2759 0.950 . S
C2782 C2781 1.397 . S
C2782 C2783 1.334 . S
C2783 H2760 0.950 . S
C2783 C2782 1.334 . S
C2783 C2784 1.287 . S
C2784 C2783 1.287 . S
C2784 C2785 1.524 . S
C2784 H2803 0.913 . S
C2785 H2761 0.950 . S
C2785 C2784 1.524 . S
C2785 C2786 1.415 . S
C2786 H2762 0.950 . S
C2786 C2781 1.363 . S
C2786 C2785 1.415 . S
C2787 H2763 0.951 . S
C2787 C2788 1.366 . S
C2787 C2789 1.388 . S
C2788 C2787 1.366 . S
C2788 C2792 1.385 . S
C2789 H2764 0.951 . S
C2789 C2787 1.388 . S
C2789 C2790 1.366 . S
C2790 C2789 1.366 . S
C2790 C2791 1.414 . S
C2790 C2793 1.499 . S
C2791 H2765 0.950 . S
C2791 C2790 1.414 . S
C2791 C2792 1.374 . S
C2792 H2766 0.950 . S
C2792 C2788 1.385 . S
C2792 C2791 1.374 . S
C2793 C2790 1.499 . S
C2793 C2794 1.373 . S
C2793 C2795 1.389 . S
C2794 H2767 0.950 . S
C2794 C2780 1.377 . S
C2794 C2793 1.373 . S
C2795 C2779 1.377 . S
C2795 C2793 1.389 . S
C2795 C2796 1.524 . S
C2796 C2795 1.524 . S
C2796 C2797 1.397 . S
C2796 C2801 1.363 . S
C2797 H2768 0.950 . S
C2797 C2796 1.397 . S
C2797 C2798 1.334 . S
C2798 H2769 0.950 . S
C2798 C2797 1.334 . S
C2798 C2799 1.287 . S
C2799 C2798 1.287 . S
C2799 C2800 1.524 . S
C2799 H2802 0.999 . S
C2800 H2770 0.950 . S
C2800 C2799 1.524 . S
C2800 C2801 1.415 . S
C2801 H2771 0.950 . S
C2801 C2796 1.363 . S
C2801 C2800 1.415 . S
H2802 C2799 0.999 . S
H2803 C2784 0.913 . S
H2804 C2822 0.951 . S
H2805 C2824 0.951 . S
H2806 C2826 0.950 . S
H2807 C2827 0.950 . S
H2808 C2829 0.950 . S
H2809 C2832 0.950 . S
H2810 C2833 0.950 . S
H2811 C2835 0.950 . S
H2812 C2836 0.950 . S
H2813 C2837 0.951 . S
H2814 C2839 0.951 . S
H2815 C2841 0.950 . S
H2816 C2842 0.950 . S
H2817 C2844 0.950 . S
H2818 C2847 0.950 . S
H2819 C2848 0.950 . S
H2820 C2850 0.950 . S
H2821 C2851 0.950 . S
C2822 H2804 0.951 . S
C2822 C2823 1.366 . S
C2822 C2824 1.388 . S
C2823 C2822 1.366 . S
C2823 C2827 1.385 . S
C2824 H2805 0.951 . S
C2824 C2822 1.388 . S
C2824 C2825 1.366 . S
C2825 C2824 1.366 . S
C2825 C2826 1.414 . S
C2825 C2828 1.499 . S
C2826 H2806 0.950 . S
C2826 C2825 1.414 . S
C2826 C2827 1.374 . S
C2827 H2807 0.950 . S
C2827 C2823 1.385 . S
C2827 C2826 1.374 . S
C2828 C2825 1.499 . S
C2828 C2829 1.373 . S
C2828 C2830 1.389 . S
C2829 H2808 0.950 . S
C2829 C2828 1.373 . S
C2829 C2845 1.377 . S
C2830 C2828 1.389 . S
C2830 C2831 1.524 . S
C2830 C2844 1.377 . S
C2831 C2830 1.524 . S
C2831 C2832 1.397 . S
C2831 C2836 1.363 . S
C2832 H2809 0.950 . S
C2832 C2831 1.397 . S
C2832 C2833 1.334 . S
C2833 H2810 0.950 . S
C2833 C2832 1.334 . S
C2833 C2834 1.287 . S
C2834 C2833 1.287 . S
C2834 C2835 1.524 . S
C2834 H2853 0.913 . S
C2835 H2811 0.950 . S
C2835 C2834 1.524 . S
C2835 C2836 1.415 . S
C2836 H2812 0.950 . S
C2836 C2831 1.363 . S
C2836 C2835 1.415 . S
C2837 H2813 0.951 . S
C2837 C2838 1.366 . S
C2837 C2839 1.388 . S
C2838 C2837 1.366 . S
C2838 C2842 1.385 . S
C2839 H2814 0.951 . S
C2839 C2837 1.388 . S
C2839 C2840 1.366 . S
C2840 C2839 1.366 . S
C2840 C2841 1.414 . S
C2840 C2843 1.499 . S
C2841 H2815 0.950 . S
C2841 C2840 1.414 . S
C2841 C2842 1.374 . S
C2842 H2816 0.950 . S
C2842 C2838 1.385 . S
C2842 C2841 1.374 . S
C2843 C2840 1.499 . S
C2843 C2844 1.373 . S
C2843 C2845 1.389 . S
C2844 H2817 0.950 . S
C2844 C2830 1.377 . S
C2844 C2843 1.373 . S
C2845 C2829 1.377 . S
C2845 C2843 1.389 . S
C2845 C2846 1.524 . S
C2846 C2845 1.524 . S
C2846 C2847 1.397 . S
C2846 C2851 1.363 . S
C2847 H2818 0.950 . S
C2847 C2846 1.397 . S
C2847 C2848 1.334 . S
C2848 H2819 0.950 . S
C2848 C2847 1.334 . S
C2848 C2849 1.287 . S
C2849 C2848 1.287 . S
C2849 C2850 1.524 . S
C2849 H2852 0.999 . S
C2850 H2820 0.950 . S
C2850 C2849 1.524 . S
C2850 C2851 1.415 . S
C2851 H2821 0.950 . S
C2851 C2846 1.363 . S
C2851 C2850 1.415 . S
H2852 C2849 0.999 . S
H2853 C2834 0.913 . S
H2854 C2872 0.951 . S
H2855 C2874 0.951 . S
H2856 C2876 0.950 . S
H2857 C2877 0.950 . S
H2858 C2879 0.950 . S
H2859 C2882 0.950 . S
H2860 C2883 0.950 . S
H2861 C2885 0.950 . S
H2862 C2886 0.950 . S
H2863 C2887 0.951 . S
H2864 C2889 0.951 . S
H2865 C2891 0.950 . S
H2866 C2892 0.950 . S
H2867 C2894 0.950 . S
H2868 C2897 0.950 . S
H2869 C2898 0.950 . S
H2870 C2900 0.950 . S
H2871 C2901 0.950 . S
C2872 H2854 0.951 . S
C2872 C2873 1.366 . S
C2872 C2874 1.388 . S
C2873 C2872 1.366 . S
C2873 C2877 1.385 . S
C2874 H2855 0.951 . S
C2874 C2872 1.388 . S
C2874 C2875 1.366 . S
C2875 C2874 1.366 . S
C2875 C2876 1.414 . S
C2875 C2878 1.499 . S
C2876 H2856 0.950 . S
C2876 C2875 1.414 . S
C2876 C2877 1.374 . S
C2877 H2857 0.950 . S
C2877 C2873 1.385 . S
C2877 C2876 1.374 . S
C2878 C2875 1.499 . S
C2878 C2879 1.373 . S
C2878 C2880 1.389 . S
C2879 H2858 0.950 . S
C2879 C2878 1.373 . S
C2879 C2895 1.377 . S
C2880 C2878 1.389 . S
C2880 C2881 1.524 . S
C2880 C2894 1.377 . S
C2881 C2880 1.524 . S
C2881 C2882 1.397 . S
C2881 C2886 1.363 . S
C2882 H2859 0.950 . S
C2882 C2881 1.397 . S
C2882 C2883 1.334 . S
C2883 H2860 0.950 . S
C2883 C2882 1.334 . S
C2883 C2884 1.287 . S
C2884 C2883 1.287 . S
C2884 C2885 1.524 . S
C2884 H2903 0.913 . S
C2885 H2861 0.950 . S
C2885 C2884 1.524 . S
C2885 C2886 1.415 . S
C2886 H2862 0.950 . S
C2886 C2881 1.363 . S
C2886 C2885 1.415 . S
C2887 H2863 0.951 . S
C2887 C2888 1.366 . S
C2887 C2889 1.388 . S
C2888 C2887 1.366 . S
C2888 C2892 1.385 . S
C2889 H2864 0.951 . S
C2889 C2887 1.388 . S
C2889 C2890 1.366 . S
C2890 C2889 1.366 . S
C2890 C2891 1.414 . S
C2890 C2893 1.499 . S
C2891 H2865 0.950 . S
C2891 C2890 1.414 . S
C2891 C2892 1.374 . S
C2892 H2866 0.950 . S
C2892 C2888 1.385 . S
C2892 C2891 1.374 . S
C2893 C2890 1.499 . S
C2893 C2894 1.373 . S
C2893 C2895 1.389 . S
C2894 H2867 0.950 . S
C2894 C2880 1.377 . S
C2894 C2893 1.373 . S
C2895 C2879 1.377 . S
C2895 C2893 1.389 . S
C2895 C2896 1.524 . S
C2896 C2895 1.524 . S
C2896 C2897 1.397 . S
C2896 C2901 1.363 . S
C2897 H2868 0.950 . S
C2897 C2896 1.397 . S
C2897 C2898 1.334 . S
C2898 H2869 0.950 . S
C2898 C2897 1.334 . S
C2898 C2899 1.287 . S
C2899 C2898 1.287 . S
C2899 C2900 1.524 . S
C2899 H2902 0.999 . S
C2900 H2870 0.950 . S
C2900 C2899 1.524 . S
C2900 C2901 1.415 . S
C2901 H2871 0.950 . S
C2901 C2896 1.363 . S
C2901 C2900 1.415 . S
H2902 C2899 0.999 . S
H2903 C2884 0.913 . S
H2904 C2922 0.951 . S
H2905 C2924 0.951 . S
H2906 C2926 0.950 . S
H2907 C2927 0.950 . S
H2908 C2929 0.950 . S
H2909 C2932 0.950 . S
H2910 C2933 0.950 . S
H2911 C2935 0.950 . S
H2912 C2936 0.950 . S
H2913 C2937 0.951 . S
H2914 C2939 0.951 . S
H2915 C2941 0.950 . S
H2916 C2942 0.950 . S
H2917 C2944 0.950 . S
H2918 C2947 0.950 . S
H2919 C2948 0.950 . S
H2920 C2950 0.950 . S
H2921 C2951 0.950 . S
C2922 H2904 0.951 . S
C2922 C2923 1.366 . S
C2922 C2924 1.388 . S
C2923 C2922 1.366 . S
C2923 C2927 1.385 . S
C2924 H2905 0.951 . S
C2924 C2922 1.388 . S
C2924 C2925 1.366 . S
C2925 C2924 1.366 . S
C2925 C2926 1.414 . S
C2925 C2928 1.499 . S
C2926 H2906 0.950 . S
C2926 C2925 1.414 . S
C2926 C2927 1.374 . S
C2927 H2907 0.950 . S
C2927 C2923 1.385 . S
C2927 C2926 1.374 . S
C2928 C2925 1.499 . S
C2928 C2929 1.373 . S
C2928 C2930 1.389 . S
C2929 H2908 0.950 . S
C2929 C2928 1.373 . S
C2929 C2945 1.377 . S
C2930 C2928 1.389 . S
C2930 C2931 1.524 . S
C2930 C2944 1.377 . S
C2931 C2930 1.524 . S
C2931 C2932 1.397 . S
C2931 C2936 1.363 . S
C2932 H2909 0.950 . S
C2932 C2931 1.397 . S
C2932 C2933 1.334 . S
C2933 H2910 0.950 . S
C2933 C2932 1.334 . S
C2933 C2934 1.287 . S
C2934 C2933 1.287 . S
C2934 C2935 1.524 . S
C2934 H2953 0.913 . S
C2935 H2911 0.950 . S
C2935 C2934 1.524 . S
C2935 C2936 1.415 . S
C2936 H2912 0.950 . S
C2936 C2931 1.363 . S
C2936 C2935 1.415 . S
C2937 H2913 0.951 . S
C2937 C2938 1.366 . S
C2937 C2939 1.388 . S
C2938 C2937 1.366 . S
C2938 C2942 1.385 . S
C2939 H2914 0.951 . S
C2939 C2937 1.388 . S
C2939 C2940 1.366 . S
C2940 C2939 1.366 . S
C2940 C2941 1.414 . S
C2940 C2943 1.499 . S
C2941 H2915 0.950 . S
C2941 C2940 1.414 . S
C2941 C2942 1.374 . S
C2942 H2916 0.950 . S
C2942 C2938 1.385 . S
C2942 C2941 1.374 . S
C2943 C2940 1.499 . S
C2943 C2944 1.373 . S
C2943 C2945 1.389 . S
C2944 H2917 0.950 . S
C2944 C2930 1.377 . S
C2944 C2943 1.373 . S
C2945 C2929 1.377 . S
C2945 C2943 1.389 . S
C2945 C2946 1.524 . S
C2946 C2945 1.524 . S
C2946 C2947 1.397 . S
C2946 C2951 1.363 . S
C2947 H2918 0.950 . S
C2947 C2946 1.397 . S
C2947 C2948 1.334 . S
C2948 H2919 0.950 . S
C2948 C2947 1.334 . S
C2948 C2949 1.287 . S
C2949 C2948 1.287 . S
C2949 C2950 1.524 . S
C2949 H2952 0.999 . S
C2950 H2920 0.950 . S
C2950 C2949 1.524 . S
C2950 C2951 1.415 . S
C2951 H2921 0.950 . S
C2951 C2946 1.363 . S
C2951 C2950 1.415 . S
H2952 C2949 0.999 . S
H2953 C2934 0.913 . S
H2954 C2972 0.951 . S
H2955 C2974 0.951 . S
H2956 C2976 0.950 . S
H2957 C2977 0.950 . S
H2958 C2979 0.950 . S
H2959 C2982 0.950 . S
H2960 C2983 0.950 . S
H2961 C2985 0.950 . S
H2962 C2986 0.950 . S
H2963 C2987 0.951 . S
H2964 C2989 0.951 . S
H2965 C2991 0.950 . S
H2966 C2992 0.950 . S
H2967 C2994 0.950 . S
H2968 C2997 0.950 . S
H2969 C2998 0.950 . S
H2970 C3000 0.950 . S
H2971 C3001 0.950 . S
C2972 H2954 0.951 . S
C2972 C2973 1.366 . S
C2972 C2974 1.388 . S
C2973 C2972 1.366 . S
C2973 C2977 1.385 . S
C2974 H2955 0.951 . S
C2974 C2972 1.388 . S
C2974 C2975 1.366 . S
C2975 C2974 1.366 . S
C2975 C2976 1.414 . S
C2975 C2978 1.499 . S
C2976 H2956 0.950 . S
C2976 C2975 1.414 . S
C2976 C2977 1.374 . S
C2977 H2957 0.950 . S
C2977 C2973 1.385 . S
C2977 C2976 1.374 . S
C2978 C2975 1.499 . S
C2978 C2979 1.373 . S
C2978 C2980 1.389 . S
C2979 H2958 0.950 . S
C2979 C2978 1.373 . S
C2979 C2995 1.377 . S
C2980 C2978 1.389 . S
C2980 C2981 1.524 . S
C2980 C2994 1.377 . S
C2981 C2980 1.524 . S
C2981 C2982 1.397 . S
C2981 C2986 1.363 . S
C2982 H2959 0.950 . S
C2982 C2981 1.397 . S
C2982 C2983 1.334 . S
C2983 H2960 0.950 . S
C2983 C2982 1.334 . S
C2983 C2984 1.287 . S
C2984 C2983 1.287 . S
C2984 C2985 1.524 . S
C2984 H3003 0.913 . S
C2985 H2961 0.950 . S
C2985 C2984 1.524 . S
C2985 C2986 1.415 . S
C2986 H2962 0.950 . S
C2986 C2981 1.363 . S
C2986 C2985 1.415 . S
C2987 H2963 0.951 . S
C2987 C2988 1.366 . S
C2987 C2989 1.388 . S
C2988 C2987 1.366 . S
C2988 C2992 1.385 . S
C2989 H2964 0.951 . S
C2989 C2987 1.388 . S
C2989 C2990 1.366 . S
C2990 C2989 1.366 . S
C2990 C2991 1.414 . S
C2990 C2993 1.499 . S
C2991 H2965 0.950 . S
C2991 C2990 1.414 . S
C2991 C2992 1.374 . S
C2992 H2966 0.950 . S
C2992 C2988 1.385 . S
C2992 C2991 1.374 . S
C2993 C2990 1.499 . S
C2993 C2994 1.373 . S
C2993 C2995 1.389 . S
C2994 H2967 0.950 . S
C2994 C2980 1.377 . S
C2994 C2993 1.373 . S
C2995 C2979 1.377 . S
C2995 C2993 1.389 . S
C2995 C2996 1.524 . S
C2996 C2995 1.524 . S
C2996 C2997 1.397 . S
C2996 C3001 1.363 . S
C2997 H2968 0.950 . S
C2997 C2996 1.397 . S
C2997 C2998 1.334 . S
C2998 H2969 0.950 . S
C2998 C2997 1.334 . S
C2998 C2999 1.287 . S
C2999 C2998 1.287 . S
C2999 C3000 1.524 . S
C2999 H3002 0.999 . S
C3000 H2970 0.950 . S
C3000 C2999 1.524 . S
C3000 C3001 1.415 . S
C3001 H2971 0.950 . S
C3001 C2996 1.363 . S
C3001 C3000 1.415 . S
H3002 C2999 0.999 . S
H3003 C2984 0.913 . S
H3004 C3022 0.951 . S
H3005 C3024 0.951 . S
H3006 C3026 0.950 . S
H3007 C3027 0.950 . S
H3008 C3029 0.950 . S
H3009 C3032 0.950 . S
H3010 C3033 0.950 . S
H3011 C3035 0.950 . S
H3012 C3036 0.950 . S
H3013 C3037 0.951 . S
H3014 C3039 0.951 . S
H3015 C3041 0.950 . S
H3016 C3042 0.950 . S
H3017 C3044 0.950 . S
H3018 C3047 0.950 . S
H3019 C3048 0.950 . S
H3020 C3050 0.950 . S
H3021 C3051 0.950 . S
C3022 H3004 0.951 . S
C3022 C3023 1.366 . S
C3022 C3024 1.388 . S
C3023 C3022 1.366 . S
C3023 C3027 1.385 . S
C3024 H3005 0.951 . S
C3024 C3022 1.388 . S
C3024 C3025 1.366 . S
C3025 C3024 1.366 . S
C3025 C3026 1.414 . S
C3025 C3028 1.499 . S
C3026 H3006 0.950 . S
C3026 C3025 1.414 . S
C3026 C3027 1.374 . S
C3027 H3007 0.950 . S
C3027 C3023 1.385 . S
C3027 C3026 1.374 . S
C3028 C3025 1.499 . S
C3028 C3029 1.373 . S
C3028 C3030 1.389 . S
C3029 H3008 0.950 . S
C3029 C3028 1.373 . S
C3029 C3045 1.377 . S
C3030 C3028 1.389 . S
C3030 C3031 1.524 . S
C3030 C3044 1.377 . S
C3031 C3030 1.524 . S
C3031 C3032 1.397 . S
C3031 C3036 1.363 . S
C3032 H3009 0.950 . S
C3032 C3031 1.397 . S
C3032 C3033 1.334 . S
C3033 H3010 0.950 . S
C3033 C3032 1.334 . S
C3033 C3034 1.287 . S
C3034 C3033 1.287 . S
C3034 C3035 1.524 . S
C3034 H3053 0.913 . S
C3035 H3011 0.950 . S
C3035 C3034 1.524 . S
C3035 C3036 1.415 . S
C3036 H3012 0.950 . S
C3036 C3031 1.363 . S
C3036 C3035 1.415 . S
C3037 H3013 0.951 . S
C3037 C3038 1.366 . S
C3037 C3039 1.388 . S
C3038 C3037 1.366 . S
C3038 C3042 1.385 . S
C3039 H3014 0.951 . S
C3039 C3037 1.388 . S
C3039 C3040 1.366 . S
C3040 C3039 1.366 . S
C3040 C3041 1.414 . S
C3040 C3043 1.499 . S
C3041 H3015 0.950 . S
C3041 C3040 1.414 . S
C3041 C3042 1.374 . S
C3042 H3016 0.950 . S
C3042 C3038 1.385 . S
C3042 C3041 1.374 . S
C3043 C3040 1.499 . S
C3043 C3044 1.373 . S
C3043 C3045 1.389 . S
C3044 H3017 0.950 . S
C3044 C3030 1.377 . S
C3044 C3043 1.373 . S
C3045 C3029 1.377 . S
C3045 C3043 1.389 . S
C3045 C3046 1.524 . S
C3046 C3045 1.524 . S
C3046 C3047 1.397 . S
C3046 C3051 1.363 . S
C3047 H3018 0.950 . S
C3047 C3046 1.397 . S
C3047 C3048 1.334 . S
C3048 H3019 0.950 . S
C3048 C3047 1.334 . S
C3048 C3049 1.287 . S
C3049 C3048 1.287 . S
C3049 C3050 1.524 . S
C3049 H3052 0.999 . S
C3050 H3020 0.950 . S
C3050 C3049 1.524 . S
C3050 C3051 1.415 . S
C3051 H3021 0.950 . S
C3051 C3046 1.363 . S
C3051 C3050 1.415 . S
H3052 C3049 0.999 . S
H3053 C3034 0.913 . S
H3054 C3072 0.951 . S
H3055 C3074 0.951 . S
H3056 C3076 0.950 . S
H3057 C3077 0.950 . S
H3058 C3079 0.950 . S
H3059 C3082 0.950 . S
H3060 C3083 0.950 . S
H3061 C3085 0.950 . S
H3062 C3086 0.950 . S
H3063 C3087 0.951 . S
H3064 C3089 0.951 . S
H3065 C3091 0.950 . S
H3066 C3092 0.950 . S
H3067 C3094 0.950 . S
H3068 C3097 0.950 . S
H3069 C3098 0.950 . S
H3070 C3100 0.950 . S
H3071 C3101 0.950 . S
C3072 H3054 0.951 . S
C3072 C3073 1.366 . S
C3072 C3074 1.388 . S
C3073 C3072 1.366 . S
C3073 C3077 1.385 . S
C3074 H3055 0.951 . S
C3074 C3072 1.388 . S
C3074 C3075 1.366 . S
C3075 C3074 1.366 . S
C3075 C3076 1.414 . S
C3075 C3078 1.499 . S
C3076 H3056 0.950 . S
C3076 C3075 1.414 . S
C3076 C3077 1.374 . S
C3077 H3057 0.950 . S
C3077 C3073 1.385 . S
C3077 C3076 1.374 . S
C3078 C3075 1.499 . S
C3078 C3079 1.373 . S
C3078 C3080 1.389 . S
C3079 H3058 0.950 . S
C3079 C3078 1.373 . S
C3079 C3095 1.377 . S
C3080 C3078 1.389 . S
C3080 C3081 1.524 . S
C3080 C3094 1.377 . S
C3081 C3080 1.524 . S
C3081 C3082 1.397 . S
C3081 C3086 1.363 . S
C3082 H3059 0.950 . S
C3082 C3081 1.397 . S
C3082 C3083 1.334 . S
C3083 H3060 0.950 . S
C3083 C3082 1.334 . S
C3083 C3084 1.287 . S
C3084 C3083 1.287 . S
C3084 C3085 1.524 . S
C3084 H3103 0.913 . S
C3085 H3061 0.950 . S
C3085 C3084 1.524 . S
C3085 C3086 1.415 . S
C3086 H3062 0.950 . S
C3086 C3081 1.363 . S
C3086 C3085 1.415 . S
C3087 H3063 0.951 . S
C3087 C3088 1.366 . S
C3087 C3089 1.388 . S
C3088 C3087 1.366 . S
C3088 C3092 1.385 . S
C3089 H3064 0.951 . S
C3089 C3087 1.388 . S
C3089 C3090 1.366 . S
C3090 C3089 1.366 . S
C3090 C3091 1.414 . S
C3090 C3093 1.499 . S
C3091 H3065 0.950 . S
C3091 C3090 1.414 . S
C3091 C3092 1.374 . S
C3092 H3066 0.950 . S
C3092 C3088 1.385 . S
C3092 C3091 1.374 . S
C3093 C3090 1.499 . S
C3093 C3094 1.373 . S
C3093 C3095 1.389 . S
C3094 H3067 0.950 . S
C3094 C3080 1.377 . S
C3094 C3093 1.373 . S
C3095 C3079 1.377 . S
C3095 C3093 1.389 . S
C3095 C3096 1.524 . S
C3096 C3095 1.524 . S
C3096 C3097 1.397 . S
C3096 C3101 1.363 . S
C3097 H3068 0.950 . S
C3097 C3096 1.397 . S
C3097 C3098 1.334 . S
C3098 H3069 0.950 . S
C3098 C3097 1.334 . S
C3098 C3099 1.287 . S
C3099 C3098 1.287 . S
C3099 C3100 1.524 . S
C3099 H3102 0.999 . S
C3100 H3070 0.950 . S
C3100 C3099 1.524 . S
C3100 C3101 1.415 . S
C3101 H3071 0.950 . S
C3101 C3096 1.363 . S
C3101 C3100 1.415 . S
H3102 C3099 0.999 . S
H3103 C3084 0.913 . S
H3104 C3122 0.951 . S
H3105 C3124 0.951 . S
H3106 C3126 0.950 . S
H3107 C3127 0.950 . S
H3108 C3129 0.950 . S
H3109 C3132 0.950 . S
H3110 C3133 0.950 . S
H3111 C3135 0.950 . S
H3112 C3136 0.950 . S
H3113 C3137 0.951 . S
H3114 C3139 0.951 . S
H3115 C3141 0.950 . S
H3116 C3142 0.950 . S
H3117 C3144 0.950 . S
H3118 C3147 0.950 . S
H3119 C3148 0.950 . S
H3120 C3150 0.950 . S
H3121 C3151 0.950 . S
C3122 H3104 0.951 . S
C3122 C3123 1.366 . S
C3122 C3124 1.388 . S
C3123 C3122 1.366 . S
C3123 C3127 1.385 . S
C3124 H3105 0.951 . S
C3124 C3122 1.388 . S
C3124 C3125 1.366 . S
C3125 C3124 1.366 . S
C3125 C3126 1.414 . S
C3125 C3128 1.499 . S
C3126 H3106 0.950 . S
C3126 C3125 1.414 . S
C3126 C3127 1.374 . S
C3127 H3107 0.950 . S
C3127 C3123 1.385 . S
C3127 C3126 1.374 . S
C3128 C3125 1.499 . S
C3128 C3129 1.373 . S
C3128 C3130 1.389 . S
C3129 H3108 0.950 . S
C3129 C3128 1.373 . S
C3129 C3145 1.377 . S
C3130 C3128 1.389 . S
C3130 C3131 1.524 . S
C3130 C3144 1.377 . S
C3131 C3130 1.524 . S
C3131 C3132 1.397 . S
C3131 C3136 1.363 . S
C3132 H3109 0.950 . S
C3132 C3131 1.397 . S
C3132 C3133 1.334 . S
C3133 H3110 0.950 . S
C3133 C3132 1.334 . S
C3133 C3134 1.287 . S
C3134 C3133 1.287 . S
C3134 C3135 1.524 . S
C3134 H3153 0.913 . S
C3135 H3111 0.950 . S
C3135 C3134 1.524 . S
C3135 C3136 1.415 . S
C3136 H3112 0.950 . S
C3136 C3131 1.363 . S
C3136 C3135 1.415 . S
C3137 H3113 0.951 . S
C3137 C3138 1.366 . S
C3137 C3139 1.388 . S
C3138 C3137 1.366 . S
C3138 C3142 1.385 . S
C3139 H3114 0.951 . S
C3139 C3137 1.388 . S
C3139 C3140 1.366 . S
C3140 C3139 1.366 . S
C3140 C3141 1.414 . S
C3140 C3143 1.499 . S
C3141 H3115 0.950 . S
C3141 C3140 1.414 . S
C3141 C3142 1.374 . S
C3142 H3116 0.950 . S
C3142 C3138 1.385 . S
C3142 C3141 1.374 . S
C3143 C3140 1.499 . S
C3143 C3144 1.373 . S
C3143 C3145 1.389 . S
C3144 H3117 0.950 . S
C3144 C3130 1.377 . S
C3144 C3143 1.373 . S
C3145 C3129 1.377 . S
C3145 C3143 1.389 . S
C3145 C3146 1.524 . S
C3146 C3145 1.524 . S
C3146 C3147 1.397 . S
C3146 C3151 1.363 . S
C3147 H3118 0.950 . S
C3147 C3146 1.397 . S
C3147 C3148 1.334 . S
C3148 H3119 0.950 . S
C3148 C3147 1.334 . S
C3148 C3149 1.287 . S
C3149 C3148 1.287 . S
C3149 C3150 1.524 . S
C3149 H3152 0.999 . S
C3150 H3120 0.950 . S
C3150 C3149 1.524 . S
C3150 C3151 1.415 . S
C3151 H3121 0.950 . S
C3151 C3146 1.363 . S
C3151 C3150 1.415 . S
H3152 C3149 0.999 . S
H3153 C3134 0.913 . S
H3154 C3172 0.951 . S
H3155 C3174 0.951 . S
H3156 C3176 0.950 . S
H3157 C3177 0.950 . S
H3158 C3179 0.950 . S
H3159 C3182 0.950 . S
H3160 C3183 0.950 . S
H3161 C3185 0.950 . S
H3162 C3186 0.950 . S
H3163 C3187 0.951 . S
H3164 C3189 0.951 . S
H3165 C3191 0.950 . S
H3166 C3192 0.950 . S
H3167 C3194 0.950 . S
H3168 C3197 0.950 . S
H3169 C3198 0.950 . S
H3170 C3200 0.950 . S
H3171 C3201 0.950 . S
C3172 H3154 0.951 . S
C3172 C3173 1.366 . S
C3172 C3174 1.388 . S
C3173 C3172 1.366 . S
C3173 C3177 1.385 . S
C3174 H3155 0.951 . S
C3174 C3172 1.388 . S
C3174 C3175 1.366 . S
C3175 C3174 1.366 . S
C3175 C3176 1.414 . S
C3175 C3178 1.499 . S
C3176 H3156 0.950 . S
C3176 C3175 1.414 . S
C3176 C3177 1.374 . S
C3177 H3157 0.950 . S
C3177 C3173 1.385 . S
C3177 C3176 1.374 . S
C3178 C3175 1.499 . S
C3178 C3179 1.373 . S
C3178 C3180 1.389 . S
C3179 H3158 0.950 . S
C3179 C3178 1.373 . S
C3179 C3195 1.377 . S
C3180 C3178 1.389 . S
C3180 C3181 1.524 . S
C3180 C3194 1.377 . S
C3181 C3180 1.524 . S
C3181 C3182 1.397 . S
C3181 C3186 1.363 . S
C3182 H3159 0.950 . S
C3182 C3181 1.397 . S
C3182 C3183 1.334 . S
C3183 H3160 0.950 . S
C3183 C3182 1.334 . S
C3183 C3184 1.287 . S
C3184 C3183 1.287 . S
C3184 C3185 1.524 . S
C3184 H3203 0.913 . S
C3185 H3161 0.950 . S
C3185 C3184 1.524 . S
C3185 C3186 1.415 . S
C3186 H3162 0.950 . S
C3186 C3181 1.363 . S
C3186 C3185 1.415 . S
C3187 H3163 0.951 . S
C3187 C3188 1.366 . S
C3187 C3189 1.388 . S
C3188 C3187 1.366 . S
C3188 C3192 1.385 . S
C3189 H3164 0.951 . S
C3189 C3187 1.388 . S
C3189 C3190 1.366 . S
C3190 C3189 1.366 . S
C3190 C3191 1.414 . S
C3190 C3193 1.499 . S
C3191 H3165 0.950 . S
C3191 C3190 1.414 . S
C3191 C3192 1.374 . S
C3192 H3166 0.950 . S
C3192 C3188 1.385 . S
C3192 C3191 1.374 . S
C3193 C3190 1.499 . S
C3193 C3194 1.373 . S
C3193 C3195 1.389 . S
C3194 H3167 0.950 . S
C3194 C3180 1.377 . S
C3194 C3193 1.373 . S
C3195 C3179 1.377 . S
C3195 C3193 1.389 . S
C3195 C3196 1.524 . S
C3196 C3195 1.524 . S
C3196 C3197 1.397 . S
C3196 C3201 1.363 . S
C3197 H3168 0.950 . S
C3197 C3196 1.397 . S
C3197 C3198 1.334 . S
C3198 H3169 0.950 . S
C3198 C3197 1.334 . S
C3198 C3199 1.287 . S
C3199 C3198 1.287 . S
C3199 C3200 1.524 . S
C3199 H3202 0.999 . S
C3200 H3170 0.950 . S
C3200 C3199 1.524 . S
C3200 C3201 1.415 . S
C3201 H3171 0.950 . S
C3201 C3196 1.363 . S
C3201 C3200 1.415 . S
H3202 C3199 0.999 . S
H3203 C3184 0.913 . S
H3204 C3222 0.951 . S
H3205 C3224 0.951 . S
H3206 C3226 0.950 . S
H3207 C3227 0.950 . S
H3208 C3229 0.950 . S
H3209 C3232 0.950 . S
H3210 C3233 0.950 . S
H3211 C3235 0.950 . S
H3212 C3236 0.950 . S
H3213 C3237 0.951 . S
H3214 C3239 0.951 . S
H3215 C3241 0.950 . S
H3216 C3242 0.950 . S
H3217 C3244 0.950 . S
H3218 C3247 0.950 . S
H3219 C3248 0.950 . S
H3220 C3250 0.950 . S
H3221 C3251 0.950 . S
C3222 H3204 0.951 . S
C3222 C3223 1.366 . S
C3222 C3224 1.388 . S
C3223 C3222 1.366 . S
C3223 C3227 1.385 . S
C3224 H3205 0.951 . S
C3224 C3222 1.388 . S
C3224 C3225 1.366 . S
C3225 C3224 1.366 . S
C3225 C3226 1.414 . S
C3225 C3228 1.499 . S
C3226 H3206 0.950 . S
C3226 C3225 1.414 . S
C3226 C3227 1.374 . S
C3227 H3207 0.950 . S
C3227 C3223 1.385 . S
C3227 C3226 1.374 . S
C3228 C3225 1.499 . S
C3228 C3229 1.373 . S
C3228 C3230 1.389 . S
C3229 H3208 0.950 . S
C3229 C3228 1.373 . S
C3229 C3245 1.377 . S
C3230 C3228 1.389 . S
C3230 C3231 1.524 . S
C3230 C3244 1.377 . S
C3231 C3230 1.524 . S
C3231 C3232 1.397 . S
C3231 C3236 1.363 . S
C3232 H3209 0.950 . S
C3232 C3231 1.397 . S
C3232 C3233 1.334 . S
C3233 H3210 0.950 . S
C3233 C3232 1.334 . S
C3233 C3234 1.287 . S
C3234 C3233 1.287 . S
C3234 C3235 1.524 . S
C3234 H3253 0.913 . S
C3235 H3211 0.950 . S
C3235 C3234 1.524 . S
C3235 C3236 1.415 . S
C3236 H3212 0.950 . S
C3236 C3231 1.363 . S
C3236 C3235 1.415 . S
C3237 H3213 0.951 . S
C3237 C3238 1.366 . S
C3237 C3239 1.388 . S
C3238 C3237 1.366 . S
C3238 C3242 1.385 . S
C3239 H3214 0.951 . S
C3239 C3237 1.388 . S
C3239 C3240 1.366 . S
C3240 C3239 1.366 . S
C3240 C3241 1.414 . S
C3240 C3243 1.499 . S
C3241 H3215 0.950 . S
C3241 C3240 1.414 . S
C3241 C3242 1.374 . S
C3242 H3216 0.950 . S
C3242 C3238 1.385 . S
C3242 C3241 1.374 . S
C3243 C3240 1.499 . S
C3243 C3244 1.373 . S
C3243 C3245 1.389 . S
C3244 H3217 0.950 . S
C3244 C3230 1.377 . S
C3244 C3243 1.373 . S
C3245 C3229 1.377 . S
C3245 C3243 1.389 . S
C3245 C3246 1.524 . S
C3246 C3245 1.524 . S
C3246 C3247 1.397 . S
C3246 C3251 1.363 . S
C3247 H3218 0.950 . S
C3247 C3246 1.397 . S
C3247 C3248 1.334 . S
C3248 H3219 0.950 . S
C3248 C3247 1.334 . S
C3248 C3249 1.287 . S
C3249 C3248 1.287 . S
C3249 C3250 1.524 . S
C3249 H3252 0.999 . S
C3250 H3220 0.950 . S
C3250 C3249 1.524 . S
C3250 C3251 1.415 . S
C3251 H3221 0.950 . S
C3251 C3246 1.363 . S
C3251 C3250 1.415 . S
H3252 C3249 0.999 . S
H3253 C3234 0.913 . S
H3254 C3272 0.951 . S
H3255 C3274 0.951 . S
H3256 C3276 0.950 . S
H3257 C3277 0.950 . S
H3258 C3279 0.950 . S
H3259 C3282 0.950 1_545 S
H3260 C3283 0.980 . S
H3261 C3285 0.950 . S
H3262 C3286 0.950 . S
H3263 C3287 0.951 . S
H3264 C3289 0.951 . S
H3265 C3291 0.950 . S
H3266 C3292 0.950 . S
H3267 C3294 0.950 . S
H3268 C3297 0.950 1_565 S
H3269 C3298 0.979 . S
H3270 C3300 0.950 . S
H3271 C3301 0.950 . S
C3272 H3254 0.951 . S
C3272 C3273 1.366 1_565 S
C3272 C3274 1.388 . S
C3273 C3272 1.366 1_545 S
C3273 C3277 1.385 . S
C3274 H3255 0.951 . S
C3274 C3272 1.388 . S
C3274 C3275 1.366 1_565 S
C3275 C3274 1.366 1_545 S
C3275 C3276 1.414 . S
C3275 C3278 1.499 . S
C3276 H3256 0.950 . S
C3276 C3275 1.414 . S
C3276 C3277 1.374 . S
C3277 H3257 0.950 . S
C3277 C3273 1.385 . S
C3277 C3276 1.374 . S
C3278 C3275 1.499 . S
C3278 C3279 1.373 . S
C3278 C3280 1.389 1_545 S
C3279 H3258 0.950 . S
C3279 C3278 1.373 . S
C3279 C3295 1.377 . S
C3280 C3278 1.389 1_565 S
C3280 C3281 1.524 . S
C3280 C3294 1.377 . S
C3281 C3280 1.524 . S
C3281 C3282 1.397 . S
C3281 C3286 1.363 . S
C3282 H3259 0.950 1_565 S
C3282 C3281 1.397 . S
C3282 C3283 1.334 . S
C3283 H3260 0.980 . S
C3283 C3282 1.334 . S
C3283 C3284 1.287 . S
C3284 C3283 1.287 . S
C3284 C3285 1.524 . S
C3284 H3303 0.913 . S
C3285 H3261 0.950 . S
C3285 C3284 1.524 . S
C3285 C3286 1.415 . S
C3286 H3262 0.950 . S
C3286 C3281 1.363 . S
C3286 C3285 1.415 . S
C3287 H3263 0.951 . S
C3287 C3288 1.366 1_545 S
C3287 C3289 1.388 . S
C3288 C3287 1.366 1_565 S
C3288 C3292 1.385 . S
C3289 H3264 0.951 . S
C3289 C3287 1.388 . S
C3289 C3290 1.366 1_545 S
C3290 C3289 1.366 1_565 S
C3290 C3291 1.414 . S
C3290 C3293 1.499 . S
C3291 H3265 0.950 . S
C3291 C3290 1.414 . S
C3291 C3292 1.374 . S
C3292 H3266 0.950 . S
C3292 C3288 1.385 . S
C3292 C3291 1.374 . S
C3293 C3290 1.499 . S
C3293 C3294 1.373 . S
C3293 C3295 1.389 1_565 S
C3294 H3267 0.950 . S
C3294 C3280 1.377 . S
C3294 C3293 1.373 . S
C3295 C3279 1.377 . S
C3295 C3293 1.389 1_545 S
C3295 C3296 1.524 . S
C3296 C3295 1.524 . S
C3296 C3297 1.397 . S
C3296 C3301 1.363 . S
C3297 H3268 0.950 1_545 S
C3297 C3296 1.397 . S
C3297 C3298 1.334 . S
C3298 H3269 0.979 . S
C3298 C3297 1.334 . S
C3298 C3299 1.287 . S
C3299 C3298 1.287 . S
C3299 C3300 1.524 . S
C3299 H3302 0.999 . S
C3300 H3270 0.950 . S
C3300 C3299 1.524 . S
C3300 C3301 1.415 . S
C3301 H3271 0.950 . S
C3301 C3296 1.363 . S
C3301 C3300 1.415 . S
H3302 C3299 0.999 . S
H3303 C3284 0.913 . S
H3304 C3322 0.951 . S
H3305 C3324 0.951 . S
H3306 C3326 0.950 . S
H3307 C3327 0.950 . S
H3308 C3329 0.950 . S
H3309 C3332 0.950 . S
H3310 C3333 0.950 . S
H3311 C3335 0.950 . S
H3312 C3336 0.950 . S
H3313 C3337 0.951 . S
H3314 C3339 0.951 . S
H3315 C3341 0.950 . S
H3316 C3342 0.950 . S
H3317 C3344 0.950 . S
H3318 C3347 0.950 . S
H3319 C3348 0.950 . S
H3320 C3350 0.950 . S
H3321 C3351 0.950 . S
C3322 H3304 0.951 . S
C3322 C3323 1.366 . S
C3322 C3324 1.388 . S
C3323 C3322 1.366 . S
C3323 C3327 1.385 1_455 S
C3324 H3305 0.951 . S
C3324 C3322 1.388 . S
C3324 C3325 1.366 . S
C3325 C3324 1.366 . S
C3325 C3326 1.414 1_455 S
C3325 C3328 1.499 1_455 S
C3326 H3306 0.950 . S
C3326 C3325 1.414 1_655 S
C3326 C3327 1.374 . S
C3327 H3307 0.950 . S
C3327 C3323 1.385 1_655 S
C3327 C3326 1.374 . S
C3328 C3325 1.499 1_655 S
C3328 C3329 1.373 1_655 S
C3328 C3330 1.390 . S
C3329 H3308 0.950 . S
C3329 C3328 1.373 1_455 S
C3329 C3345 1.377 . S
C3330 C3328 1.390 . S
C3330 C3331 1.524 . S
C3330 C3344 1.377 . S
C3331 C3330 1.524 . S
C3331 C3332 1.397 . S
C3331 C3336 1.363 1_655 S
C3332 H3309 0.950 . S
C3332 C3331 1.397 . S
C3332 C3333 1.334 . S
C3333 H3310 0.950 . S
C3333 C3332 1.334 . S
C3333 C3334 1.287 . S
C3334 C3333 1.287 . S
C3334 C3335 1.524 1_655 S
C3334 H3353 0.913 . S
C3335 H3311 0.950 . S
C3335 C3334 1.524 1_455 S
C3335 C3336 1.415 . S
C3336 H3312 0.950 . S
C3336 C3331 1.363 1_455 S
C3336 C3335 1.415 . S
C3337 H3313 0.951 . S
C3337 C3338 1.366 . S
C3337 C3339 1.388 . S
C3338 C3337 1.366 . S
C3338 C3342 1.385 1_655 S
C3339 H3314 0.951 . S
C3339 C3337 1.388 . S
C3339 C3340 1.366 . S
C3340 C3339 1.366 . S
C3340 C3341 1.414 1_655 S
C3340 C3343 1.499 1_655 S
C3341 H3315 0.950 . S
C3341 C3340 1.414 1_455 S
C3341 C3342 1.374 . S
C3342 H3316 0.950 . S
C3342 C3338 1.385 1_455 S
C3342 C3341 1.374 . S
C3343 C3340 1.499 1_455 S
C3343 C3344 1.373 1_455 S
C3343 C3345 1.389 . S
C3344 H3317 0.950 . S
C3344 C3330 1.377 . S
C3344 C3343 1.373 1_655 S
C3345 C3329 1.377 . S
C3345 C3343 1.389 . S
C3345 C3346 1.524 . S
C3346 C3345 1.524 . S
C3346 C3347 1.397 . S
C3346 C3351 1.363 1_455 S
C3347 H3318 0.950 . S
C3347 C3346 1.397 . S
C3347 C3348 1.334 . S
C3348 H3319 0.950 . S
C3348 C3347 1.334 . S
C3348 C3349 1.287 . S
C3349 C3348 1.287 . S
C3349 C3350 1.524 1_455 S
C3349 H3352 0.999 . S
C3350 H3320 0.950 . S
C3350 C3349 1.524 1_655 S
C3350 C3351 1.415 . S
C3351 H3321 0.950 . S
C3351 C3346 1.363 1_655 S
C3351 C3350 1.415 . S
H3352 C3349 0.999 . S
H3353 C3334 0.913 . S
H3354 C3372 0.951 . S
H3355 C3374 0.951 . S
H3356 C3376 0.950 . S
H3357 C3377 0.950 . S
H3358 C3379 0.950 . S
H3359 C3382 0.950 . S
H3360 C3383 0.950 . S
H3361 C3385 0.950 . S
H3362 C3386 0.950 . S
H3363 C3387 0.951 . S
H3364 C3389 0.951 . S
H3365 C3391 0.950 . S
H3366 C3392 0.950 . S
H3367 C3394 0.950 . S
H3368 C3397 0.950 . S
H3369 C3398 0.950 . S
H3370 C3400 0.950 . S
H3371 C3401 0.950 . S
C3372 H3354 0.951 . S
C3372 C3373 1.366 . S
C3372 C3374 1.388 . S
C3373 C3372 1.366 . S
C3373 C3377 1.385 . S
C3374 H3355 0.951 . S
C3374 C3372 1.388 . S
C3374 C3375 1.366 . S
C3375 C3374 1.366 . S
C3375 C3376 1.414 . S
C3375 C3378 1.499 . S
C3376 H3356 0.950 . S
C3376 C3375 1.414 . S
C3376 C3377 1.374 . S
C3377 H3357 0.950 . S
C3377 C3373 1.385 . S
C3377 C3376 1.374 . S
C3378 C3375 1.499 . S
C3378 C3379 1.373 . S
C3378 C3380 1.389 . S
C3379 H3358 0.950 . S
C3379 C3378 1.373 . S
C3379 C3395 1.377 . S
C3380 C3378 1.389 . S
C3380 C3381 1.524 . S
C3380 C3394 1.377 . S
C3381 C3380 1.524 . S
C3381 C3382 1.397 . S
C3381 C3386 1.363 . S
C3382 H3359 0.950 . S
C3382 C3381 1.397 . S
C3382 C3383 1.334 . S
C3383 H3360 0.950 . S
C3383 C3382 1.334 . S
C3383 C3384 1.287 . S
C3384 C3383 1.287 . S
C3384 C3385 1.524 . S
C3384 H3403 0.913 . S
C3385 H3361 0.950 . S
C3385 C3384 1.524 . S
C3385 C3386 1.415 . S
C3386 H3362 0.950 . S
C3386 C3381 1.363 . S
C3386 C3385 1.415 . S
C3387 H3363 0.951 . S
C3387 C3388 1.366 . S
C3387 C3389 1.388 . S
C3388 C3387 1.366 . S
C3388 C3392 1.385 . S
C3389 H3364 0.951 . S
C3389 C3387 1.388 . S
C3389 C3390 1.366 . S
C3390 C3389 1.366 . S
C3390 C3391 1.414 . S
C3390 C3393 1.499 . S
C3391 H3365 0.950 . S
C3391 C3390 1.414 . S
C3391 C3392 1.374 . S
C3392 H3366 0.950 . S
C3392 C3388 1.385 . S
C3392 C3391 1.374 . S
C3393 C3390 1.499 . S
C3393 C3394 1.373 . S
C3393 C3395 1.389 . S
C3394 H3367 0.950 . S
C3394 C3380 1.377 . S
C3394 C3393 1.373 . S
C3395 C3379 1.377 . S
C3395 C3393 1.389 . S
C3395 C3396 1.524 . S
C3396 C3395 1.524 . S
C3396 C3397 1.397 . S
C3396 C3401 1.363 . S
C3397 H3368 0.950 . S
C3397 C3396 1.397 . S
C3397 C3398 1.334 . S
C3398 H3369 0.950 . S
C3398 C3397 1.334 . S
C3398 C3399 1.287 . S
C3399 C3398 1.287 . S
C3399 C3400 1.524 . S
C3399 H3402 0.999 . S
C3400 H3370 0.950 . S
C3400 C3399 1.524 . S
C3400 C3401 1.415 . S
C3401 H3371 0.950 . S
C3401 C3396 1.363 . S
C3401 C3400 1.415 . S
H3402 C3399 0.999 . S
H3403 C3384 0.913 . S
H3404 C3422 0.951 . S
H3405 C3424 0.982 . S
H3406 C3426 0.950 . S
H3407 C3427 0.950 . S
H3408 C3429 0.950 . S
H3409 C3432 0.950 . S
H3410 C3433 0.950 . S
H3411 C3435 0.950 . S
H3412 C3436 0.950 . S
H3413 C3437 0.951 . S
H3414 C3439 0.982 . S
H3415 C3441 0.950 . S
H3416 C3442 0.950 . S
H3417 C3444 0.950 . S
H3418 C3447 0.950 . S
H3419 C3448 0.950 . S
H3420 C3450 0.950 . S
H3421 C3451 0.950 . S
C3422 H3404 0.951 . S
C3422 C3423 1.366 . S
C3422 C3424 1.388 . S
C3423 C3422 1.366 . S
C3423 C3427 1.385 . S
C3424 H3405 0.982 . S
C3424 C3422 1.388 . S
C3424 C3425 1.366 . S
C3425 C3424 1.366 . S
C3425 C3426 1.414 . S
C3425 C3428 1.498 . S
C3426 H3406 0.950 . S
C3426 C3425 1.414 . S
C3426 C3427 1.374 . S
C3427 H3407 0.950 . S
C3427 C3423 1.385 . S
C3427 C3426 1.374 . S
C3428 C3425 1.498 . S
C3428 C3429 1.368 . S
C3428 C3430 1.394 1_545 S
C3429 H3408 0.950 . S
C3429 C3428 1.368 . S
C3429 C3445 1.377 . S
C3430 C3428 1.394 1_565 S
C3430 C3431 1.524 . S
C3430 C3444 1.377 . S
C3431 C3430 1.524 . S
C3431 C3432 1.397 . S
C3431 C3436 1.363 . S
C3432 H3409 0.950 . S
C3432 C3431 1.397 . S
C3432 C3433 1.334 . S
C3433 H3410 0.950 . S
C3433 C3432 1.334 . S
C3433 C3434 1.287 . S
C3434 C3433 1.287 . S
C3434 C3435 1.524 . S
C3434 H3453 0.913 . S
C3435 H3411 0.950 . S
C3435 C3434 1.524 . S
C3435 C3436 1.415 . S
C3436 H3412 0.950 . S
C3436 C3431 1.363 . S
C3436 C3435 1.415 . S
C3437 H3413 0.951 . S
C3437 C3438 1.366 . S
C3437 C3439 1.388 . S
C3438 C3437 1.366 . S
C3438 C3442 1.385 . S
C3439 H3414 0.982 . S
C3439 C3437 1.388 . S
C3439 C3440 1.366 . S
C3440 C3439 1.366 . S
C3440 C3441 1.414 . S
C3440 C3443 1.498 . S
C3441 H3415 0.950 . S
C3441 C3440 1.414 . S
C3441 C3442 1.374 . S
C3442 H3416 0.950 . S
C3442 C3438 1.385 . S
C3442 C3441 1.374 . S
C3443 C3440 1.498 . S
C3443 C3444 1.368 . S
C3443 C3445 1.395 1_565 S
C3444 H3417 0.950 . S
C3444 C3430 1.377 . S
C3444 C3443 1.368 . S
C3445 C3429 1.377 . S
C3445 C3443 1.395 1_545 S
C3445 C3446 1.524 . S
C3446 C3445 1.524 . S
C3446 C3447 1.397 . S
C3446 C3451 1.363 . S
C3447 H3418 0.950 . S
C3447 C3446 1.397 . S
C3447 C3448 1.334 . S
C3448 H3419 0.950 . S
C3448 C3447 1.334 . S
C3448 C3449 1.287 . S
C3449 C3448 1.287 . S
C3449 C3450 1.524 . S
C3449 H3452 0.999 . S
C3450 H3420 0.950 . S
C3450 C3449 1.524 . S
C3450 C3451 1.415 . S
C3451 H3421 0.950 . S
C3451 C3446 1.363 . S
C3451 C3450 1.415 . S
H3452 C3449 0.999 . S
H3453 C3434 0.913 . S
H3454 C3472 0.951 . S
H3455 C3474 0.951 . S
H3456 C3476 0.950 . S
H3457 C3477 0.950 . S
H3458 C3479 0.950 . S
H3459 C3482 0.950 . S
H3460 C3483 0.950 . S
H3461 C3485 0.950 . S
H3462 C3486 0.950 . S
H3463 C3487 0.951 . S
H3464 C3489 0.951 . S
H3465 C3491 0.950 . S
H3466 C3492 0.950 . S
H3467 C3494 0.950 . S
H3468 C3497 0.950 . S
H3469 C3498 0.950 . S
H3470 C3500 0.950 . S
H3471 C3501 0.950 . S
C3472 H3454 0.951 . S
C3472 C3473 1.366 . S
C3472 C3474 1.388 . S
C3473 C3472 1.366 . S
C3473 C3477 1.385 1_655 S
C3474 H3455 0.951 . S
C3474 C3472 1.388 . S
C3474 C3475 1.366 . S
C3475 C3474 1.366 . S
C3475 C3476 1.414 1_655 S
C3475 C3478 1.499 . S
C3476 H3456 0.950 . S
C3476 C3475 1.414 1_455 S
C3476 C3477 1.374 . S
C3477 H3457 0.950 . S
C3477 C3473 1.385 1_455 S
C3477 C3476 1.374 . S
C3478 C3475 1.499 . S
C3478 C3479 1.373 1_655 S
C3478 C3480 1.389 . S
C3479 H3458 0.950 . S
C3479 C3478 1.373 1_455 S
C3479 C3495 1.377 . S
C3480 C3478 1.389 . S
C3480 C3481 1.524 . S
C3480 C3494 1.377 . S
C3481 C3480 1.524 . S
C3481 C3482 1.397 . S
C3481 C3486 1.363 . S
C3482 H3459 0.950 . S
C3482 C3481 1.397 . S
C3482 C3483 1.334 . S
C3483 H3460 0.950 . S
C3483 C3482 1.334 . S
C3483 C3484 1.287 . S
C3484 C3483 1.287 . S
C3484 C3485 1.524 . S
C3484 H3503 0.913 . S
C3485 H3461 0.950 . S
C3485 C3484 1.524 . S
C3485 C3486 1.415 . S
C3486 H3462 0.950 . S
C3486 C3481 1.363 . S
C3486 C3485 1.415 . S
C3487 H3463 0.951 . S
C3487 C3488 1.366 . S
C3487 C3489 1.388 . S
C3488 C3487 1.366 . S
C3488 C3492 1.385 1_455 S
C3489 H3464 0.951 . S
C3489 C3487 1.388 . S
C3489 C3490 1.366 . S
C3490 C3489 1.366 . S
C3490 C3491 1.414 1_455 S
C3490 C3493 1.499 . S
C3491 H3465 0.950 . S
C3491 C3490 1.414 1_655 S
C3491 C3492 1.374 . S
C3492 H3466 0.950 . S
C3492 C3488 1.385 1_655 S
C3492 C3491 1.374 . S
C3493 C3490 1.499 . S
C3493 C3494 1.373 1_455 S
C3493 C3495 1.389 . S
C3494 H3467 0.950 . S
C3494 C3480 1.377 . S
C3494 C3493 1.373 1_655 S
C3495 C3479 1.377 . S
C3495 C3493 1.389 . S
C3495 C3496 1.524 . S
C3496 C3495 1.524 . S
C3496 C3497 1.397 . S
C3496 C3501 1.363 . S
C3497 H3468 0.950 . S
C3497 C3496 1.397 . S
C3497 C3498 1.334 . S
C3498 H3469 0.950 . S
C3498 C3497 1.334 . S
C3498 C3499 1.287 . S
C3499 C3498 1.287 . S
C3499 C3500 1.524 . S
C3499 H3502 0.999 . S
C3500 H3470 0.950 . S
C3500 C3499 1.524 . S
C3500 C3501 1.415 . S
C3501 H3471 0.950 . S
C3501 C3496 1.363 . S
C3501 C3500 1.415 . S
H3502 C3499 0.999 . S
H3503 C3484 0.913 . S
H3504 C3522 0.951 . S
H3505 C3524 0.951 . S
H3506 C3526 0.950 . S
H3507 C3527 0.950 . S
H3508 C3529 0.950 . S
H3509 C3532 0.950 . S
H3510 C3533 0.950 . S
H3511 C3535 0.950 . S
H3512 C3536 0.950 . S
H3513 C3537 0.951 . S
H3514 C3539 0.951 . S
H3515 C3541 0.950 . S
H3516 C3542 0.950 . S
H3517 C3544 0.950 . S
H3518 C3547 0.950 . S
H3519 C3548 0.950 . S
H3520 C3550 0.950 . S
H3521 C3551 0.950 . S
C3522 H3504 0.951 . S
C3522 C3523 1.366 . S
C3522 C3524 1.388 . S
C3523 C3522 1.366 . S
C3523 C3527 1.385 . S
C3524 H3505 0.951 . S
C3524 C3522 1.388 . S
C3524 C3525 1.366 . S
C3525 C3524 1.366 . S
C3525 C3526 1.414 . S
C3525 C3528 1.499 . S
C3526 H3506 0.950 . S
C3526 C3525 1.414 . S
C3526 C3527 1.374 . S
C3527 H3507 0.950 . S
C3527 C3523 1.385 . S
C3527 C3526 1.374 . S
C3528 C3525 1.499 . S
C3528 C3529 1.373 . S
C3528 C3530 1.389 . S
C3529 H3508 0.950 . S
C3529 C3528 1.373 . S
C3529 C3545 1.377 . S
C3530 C3528 1.389 . S
C3530 C3531 1.524 . S
C3530 C3544 1.377 . S
C3531 C3530 1.524 . S
C3531 C3532 1.397 . S
C3531 C3536 1.363 . S
C3532 H3509 0.950 . S
C3532 C3531 1.397 . S
C3532 C3533 1.334 . S
C3533 H3510 0.950 . S
C3533 C3532 1.334 . S
C3533 C3534 1.287 . S
C3534 C3533 1.287 . S
C3534 C3535 1.524 . S
C3534 H3553 0.913 . S
C3535 H3511 0.950 . S
C3535 C3534 1.524 . S
C3535 C3536 1.415 . S
C3536 H3512 0.950 . S
C3536 C3531 1.363 . S
C3536 C3535 1.415 . S
C3537 H3513 0.951 . S
C3537 C3538 1.366 . S
C3537 C3539 1.388 . S
C3538 C3537 1.366 . S
C3538 C3542 1.385 . S
C3539 H3514 0.951 . S
C3539 C3537 1.388 . S
C3539 C3540 1.366 . S
C3540 C3539 1.366 . S
C3540 C3541 1.414 . S
C3540 C3543 1.499 . S
C3541 H3515 0.950 . S
C3541 C3540 1.414 . S
C3541 C3542 1.374 . S
C3542 H3516 0.950 . S
C3542 C3538 1.385 . S
C3542 C3541 1.374 . S
C3543 C3540 1.499 . S
C3543 C3544 1.373 . S
C3543 C3545 1.389 . S
C3544 H3517 0.950 . S
C3544 C3530 1.377 . S
C3544 C3543 1.373 . S
C3545 C3529 1.377 . S
C3545 C3543 1.389 . S
C3545 C3546 1.524 . S
C3546 C3545 1.524 . S
C3546 C3547 1.397 . S
C3546 C3551 1.363 . S
C3547 H3518 0.950 . S
C3547 C3546 1.397 . S
C3547 C3548 1.334 . S
C3548 H3519 0.950 . S
C3548 C3547 1.334 . S
C3548 C3549 1.287 . S
C3549 C3548 1.287 . S
C3549 C3550 1.524 . S
C3549 H3552 0.999 . S
C3550 H3520 0.950 . S
C3550 C3549 1.524 . S
C3550 C3551 1.415 . S
C3551 H3521 0.950 . S
C3551 C3546 1.363 . S
C3551 C3550 1.415 . S
H3552 C3549 0.999 . S
H3553 C3534 0.913 . S
H3554 C3572 0.951 . S
H3555 C3574 0.951 . S
H3556 C3576 0.950 . S
H3557 C3577 0.950 . S
H3558 C3579 0.950 . S
H3559 C3582 0.950 . S
H3560 C3583 0.950 . S
H3561 C3585 0.950 . S
H3562 C3586 0.950 . S
H3563 C3587 0.951 . S
H3564 C3589 0.951 . S
H3565 C3591 0.950 . S
H3566 C3592 0.950 . S
H3567 C3594 0.950 . S
H3568 C3597 0.950 . S
H3569 C3598 0.950 . S
H3570 C3600 0.950 . S
H3571 C3601 0.950 . S
C3572 H3554 0.951 . S
C3572 C3573 1.366 . S
C3572 C3574 1.388 . S
C3573 C3572 1.366 . S
C3573 C3577 1.385 . S
C3574 H3555 0.951 . S
C3574 C3572 1.388 . S
C3574 C3575 1.366 . S
C3575 C3574 1.366 . S
C3575 C3576 1.414 . S
C3575 C3578 1.499 . S
C3576 H3556 0.950 . S
C3576 C3575 1.414 . S
C3576 C3577 1.374 . S
C3577 H3557 0.950 . S
C3577 C3573 1.385 . S
C3577 C3576 1.374 . S
C3578 C3575 1.499 . S
C3578 C3579 1.373 . S
C3578 C3580 1.389 . S
C3579 H3558 0.950 . S
C3579 C3578 1.373 . S
C3579 C3595 1.377 . S
C3580 C3578 1.389 . S
C3580 C3581 1.524 . S
C3580 C3594 1.377 . S
C3581 C3580 1.524 . S
C3581 C3582 1.397 . S
C3581 C3586 1.363 . S
C3582 H3559 0.950 . S
C3582 C3581 1.397 . S
C3582 C3583 1.334 . S
C3583 H3560 0.950 . S
C3583 C3582 1.334 . S
C3583 C3584 1.287 . S
C3584 C3583 1.287 . S
C3584 C3585 1.524 . S
C3584 H3603 0.913 . S
C3585 H3561 0.950 . S
C3585 C3584 1.524 . S
C3585 C3586 1.415 . S
C3586 H3562 0.950 . S
C3586 C3581 1.363 . S
C3586 C3585 1.415 . S
C3587 H3563 0.951 . S
C3587 C3588 1.366 . S
C3587 C3589 1.388 . S
C3588 C3587 1.366 . S
C3588 C3592 1.385 . S
C3589 H3564 0.951 . S
C3589 C3587 1.388 . S
C3589 C3590 1.366 . S
C3590 C3589 1.366 . S
C3590 C3591 1.414 . S
C3590 C3593 1.499 . S
C3591 H3565 0.950 . S
C3591 C3590 1.414 . S
C3591 C3592 1.374 . S
C3592 H3566 0.950 . S
C3592 C3588 1.385 . S
C3592 C3591 1.374 . S
C3593 C3590 1.499 . S
C3593 C3594 1.373 . S
C3593 C3595 1.389 . S
C3594 H3567 0.950 . S
C3594 C3580 1.377 . S
C3594 C3593 1.373 . S
C3595 C3579 1.377 . S
C3595 C3593 1.389 . S
C3595 C3596 1.524 . S
C3596 C3595 1.524 . S
C3596 C3597 1.397 . S
C3596 C3601 1.363 . S
C3597 H3568 0.950 . S
C3597 C3596 1.397 . S
C3597 C3598 1.334 . S
C3598 H3569 0.950 . S
C3598 C3597 1.334 . S
C3598 C3599 1.287 . S
C3599 C3598 1.287 . S
C3599 C3600 1.524 . S
C3599 H3602 0.999 . S
C3600 H3570 0.950 . S
C3600 C3599 1.524 . S
C3600 C3601 1.415 . S
C3601 H3571 0.950 . S
C3601 C3596 1.363 . S
C3601 C3600 1.415 . S
H3602 C3599 0.999 . S
H3603 C3584 0.913 . S
H3604 C3622 0.951 . S
H3605 C3624 0.951 . S
H3606 C3626 0.950 . S
H3607 C3627 0.950 . S
H3608 C3629 0.950 . S
H3609 C3632 0.950 . S
H3610 C3633 0.950 . S
H3611 C3635 0.950 . S
H3612 C3636 0.950 . S
H3613 C3637 0.951 . S
H3614 C3639 0.951 . S
H3615 C3641 0.950 . S
H3616 C3642 0.950 . S
H3617 C3644 0.950 . S
H3618 C3647 0.950 . S
H3619 C3648 0.950 . S
H3620 C3650 0.950 . S
H3621 C3651 0.950 . S
C3622 H3604 0.951 . S
C3622 C3623 1.366 . S
C3622 C3624 1.388 . S
C3623 C3622 1.366 . S
C3623 C3627 1.385 . S
C3624 H3605 0.951 . S
C3624 C3622 1.388 . S
C3624 C3625 1.366 . S
C3625 C3624 1.366 . S
C3625 C3626 1.414 . S
C3625 C3628 1.499 . S
C3626 H3606 0.950 . S
C3626 C3625 1.414 . S
C3626 C3627 1.374 . S
C3627 H3607 0.950 . S
C3627 C3623 1.385 . S
C3627 C3626 1.374 . S
C3628 C3625 1.499 . S
C3628 C3629 1.373 . S
C3628 C3630 1.389 . S
C3629 H3608 0.950 . S
C3629 C3628 1.373 . S
C3629 C3645 1.377 . S
C3630 C3628 1.389 . S
C3630 C3631 1.524 . S
C3630 C3644 1.377 . S
C3631 C3630 1.524 . S
C3631 C3632 1.397 . S
C3631 C3636 1.363 . S
C3632 H3609 0.950 . S
C3632 C3631 1.397 . S
C3632 C3633 1.334 . S
C3633 H3610 0.950 . S
C3633 C3632 1.334 . S
C3633 C3634 1.287 . S
C3634 C3633 1.287 . S
C3634 C3635 1.524 . S
C3634 H3653 0.913 . S
C3635 H3611 0.950 . S
C3635 C3634 1.524 . S
C3635 C3636 1.415 . S
C3636 H3612 0.950 . S
C3636 C3631 1.363 . S
C3636 C3635 1.415 . S
C3637 H3613 0.951 . S
C3637 C3638 1.366 . S
C3637 C3639 1.388 . S
C3638 C3637 1.366 . S
C3638 C3642 1.385 . S
C3639 H3614 0.951 . S
C3639 C3637 1.388 . S
C3639 C3640 1.366 . S
C3640 C3639 1.366 . S
C3640 C3641 1.414 . S
C3640 C3643 1.499 . S
C3641 H3615 0.950 . S
C3641 C3640 1.414 . S
C3641 C3642 1.374 . S
C3642 H3616 0.950 . S
C3642 C3638 1.385 . S
C3642 C3641 1.374 . S
C3643 C3640 1.499 . S
C3643 C3644 1.373 . S
C3643 C3645 1.389 . S
C3644 H3617 0.950 . S
C3644 C3630 1.377 . S
C3644 C3643 1.373 . S
C3645 C3629 1.377 . S
C3645 C3643 1.389 . S
C3645 C3646 1.524 . S
C3646 C3645 1.524 . S
C3646 C3647 1.397 . S
C3646 C3651 1.363 . S
C3647 H3618 0.950 . S
C3647 C3646 1.397 . S
C3647 C3648 1.334 . S
C3648 H3619 0.950 . S
C3648 C3647 1.334 . S
C3648 C3649 1.287 . S
C3649 C3648 1.287 . S
C3649 C3650 1.524 . S
C3649 H3652 0.999 . S
C3650 H3620 0.950 . S
C3650 C3649 1.524 . S
C3650 C3651 1.415 . S
C3651 H3621 0.950 . S
C3651 C3646 1.363 . S
C3651 C3650 1.415 . S
H3652 C3649 0.999 . S
H3653 C3634 0.913 . S
H3654 C3672 0.951 . S
H3655 C3674 0.951 . S
H3656 C3676 0.950 . S
H3657 C3677 0.950 . S
H3658 C3679 0.950 . S
H3659 C3682 0.950 . S
H3660 C3683 0.950 . S
H3661 C3685 0.950 . S
H3662 C3686 0.950 . S
H3663 C3687 0.951 . S
H3664 C3689 0.951 . S
H3665 C3691 0.950 . S
H3666 C3692 0.950 . S
H3667 C3694 0.950 . S
H3668 C3697 0.950 . S
H3669 C3698 0.950 . S
H3670 C3700 0.950 . S
H3671 C3701 0.950 . S
C3672 H3654 0.951 . S
C3672 C3673 1.366 . S
C3672 C3674 1.388 . S
C3673 C3672 1.366 . S
C3673 C3677 1.385 . S
C3674 H3655 0.951 . S
C3674 C3672 1.388 . S
C3674 C3675 1.366 . S
C3675 C3674 1.366 . S
C3675 C3676 1.414 . S
C3675 C3678 1.499 . S
C3676 H3656 0.950 . S
C3676 C3675 1.414 . S
C3676 C3677 1.374 . S
C3677 H3657 0.950 . S
C3677 C3673 1.385 . S
C3677 C3676 1.374 . S
C3678 C3675 1.499 . S
C3678 C3679 1.373 . S
C3678 C3680 1.389 . S
C3679 H3658 0.950 . S
C3679 C3678 1.373 . S
C3679 C3695 1.377 . S
C3680 C3678 1.389 . S
C3680 C3681 1.524 . S
C3680 C3694 1.377 . S
C3681 C3680 1.524 . S
C3681 C3682 1.397 . S
C3681 C3686 1.363 . S
C3682 H3659 0.950 . S
C3682 C3681 1.397 . S
C3682 C3683 1.334 . S
C3683 H3660 0.950 . S
C3683 C3682 1.334 . S
C3683 C3684 1.287 . S
C3684 C3683 1.287 . S
C3684 C3685 1.524 . S
C3684 H3703 0.913 . S
C3685 H3661 0.950 . S
C3685 C3684 1.524 . S
C3685 C3686 1.415 . S
C3686 H3662 0.950 . S
C3686 C3681 1.363 . S
C3686 C3685 1.415 . S
C3687 H3663 0.951 . S
C3687 C3688 1.366 . S
C3687 C3689 1.388 1_556 S
C3688 C3687 1.366 . S
C3688 C3692 1.385 . S
C3689 H3664 0.951 . S
C3689 C3687 1.388 1_554 S
C3689 C3690 1.366 . S
C3690 C3689 1.366 . S
C3690 C3691 1.414 . S
C3690 C3693 1.499 . S
C3691 H3665 0.950 . S
C3691 C3690 1.414 . S
C3691 C3692 1.374 1_554 S
C3692 H3666 0.950 . S
C3692 C3688 1.385 . S
C3692 C3691 1.374 1_556 S
C3693 C3690 1.499 . S
C3693 C3694 1.373 . S
C3693 C3695 1.389 . S
C3694 H3667 0.950 . S
C3694 C3680 1.377 . S
C3694 C3693 1.373 . S
C3695 C3679 1.377 . S
C3695 C3693 1.389 . S
C3695 C3696 1.524 . S
C3696 C3695 1.524 . S
C3696 C3697 1.397 . S
C3696 C3701 1.363 . S
C3697 H3668 0.950 . S
C3697 C3696 1.397 . S
C3697 C3698 1.334 . S
C3698 H3669 0.950 . S
C3698 C3697 1.334 . S
C3698 C3699 1.287 . S
C3699 C3698 1.287 . S
C3699 C3700 1.524 . S
C3699 H3702 0.999 . S
C3700 H3670 0.950 . S
C3700 C3699 1.524 . S
C3700 C3701 1.415 . S
C3701 H3671 0.950 . S
C3701 C3696 1.363 . S
C3701 C3700 1.415 . S
H3702 C3699 0.999 . S
H3703 C3684 0.913 . S
H3704 C3722 0.951 . S
H3705 C3724 0.951 . S
H3706 C3726 0.950 . S
H3707 C3727 0.950 . S
H3708 C3729 0.950 . S
H3709 C3732 0.950 . S
H3710 C3733 0.950 . S
H3711 C3735 0.950 . S
H3712 C3736 0.950 . S
H3713 C3737 0.951 . S
H3714 C3739 0.951 . S
H3715 C3741 0.950 . S
H3716 C3742 0.950 . S
H3717 C3744 0.950 . S
H3718 C3747 0.950 . S
H3719 C3748 0.950 . S
H3720 C3750 0.950 . S
H3721 C3751 0.950 . S
C3722 H3704 0.951 . S
C3722 C3723 1.366 . S
C3722 C3724 1.388 . S
C3723 C3722 1.366 . S
C3723 C3727 1.385 . S
C3724 H3705 0.951 . S
C3724 C3722 1.388 . S
C3724 C3725 1.366 . S
C3725 C3724 1.366 . S
C3725 C3726 1.414 . S
C3725 C3728 1.499 . S
C3726 H3706 0.950 . S
C3726 C3725 1.414 . S
C3726 C3727 1.374 . S
C3727 H3707 0.950 . S
C3727 C3723 1.385 . S
C3727 C3726 1.374 . S
C3728 C3725 1.499 . S
C3728 C3729 1.373 . S
C3728 C3730 1.389 . S
C3729 H3708 0.950 . S
C3729 C3728 1.373 . S
C3729 C3745 1.377 . S
C3730 C3728 1.389 . S
C3730 C3731 1.524 . S
C3730 C3744 1.377 . S
C3731 C3730 1.524 . S
C3731 C3732 1.397 . S
C3731 C3736 1.363 . S
C3732 H3709 0.950 . S
C3732 C3731 1.397 . S
C3732 C3733 1.334 . S
C3733 H3710 0.950 . S
C3733 C3732 1.334 . S
C3733 C3734 1.287 . S
C3734 C3733 1.287 . S
C3734 C3735 1.524 . S
C3734 H3753 0.913 . S
C3735 H3711 0.950 . S
C3735 C3734 1.524 . S
C3735 C3736 1.415 . S
C3736 H3712 0.950 . S
C3736 C3731 1.363 . S
C3736 C3735 1.415 . S
C3737 H3713 0.951 . S
C3737 C3738 1.366 . S
C3737 C3739 1.388 1_556 S
C3738 C3737 1.366 . S
C3738 C3742 1.385 . S
C3739 H3714 0.951 . S
C3739 C3737 1.388 1_554 S
C3739 C3740 1.366 . S
C3740 C3739 1.366 . S
C3740 C3741 1.414 . S
C3740 C3743 1.499 . S
C3741 H3715 0.950 . S
C3741 C3740 1.414 . S
C3741 C3742 1.374 1_554 S
C3742 H3716 0.950 . S
C3742 C3738 1.385 . S
C3742 C3741 1.374 1_556 S
C3743 C3740 1.499 . S
C3743 C3744 1.373 . S
C3743 C3745 1.389 . S
C3744 H3717 0.950 . S
C3744 C3730 1.377 . S
C3744 C3743 1.373 . S
C3745 C3729 1.377 . S
C3745 C3743 1.389 . S
C3745 C3746 1.524 . S
C3746 C3745 1.524 . S
C3746 C3747 1.397 . S
C3746 C3751 1.363 . S
C3747 H3718 0.950 . S
C3747 C3746 1.397 . S
C3747 C3748 1.334 . S
C3748 H3719 0.950 . S
C3748 C3747 1.334 . S
C3748 C3749 1.287 . S
C3749 C3748 1.287 . S
C3749 C3750 1.524 . S
C3749 H3752 0.999 . S
C3750 H3720 0.950 . S
C3750 C3749 1.524 . S
C3750 C3751 1.415 . S
C3751 H3721 0.950 . S
C3751 C3746 1.363 . S
C3751 C3750 1.415 . S
H3752 C3749 0.999 . S
H3753 C3734 0.913 . S
H3754 C3772 0.951 . S
H3755 C3774 0.951 . S
H3756 C3776 0.950 . S
H3757 C3777 0.950 . S
H3758 C3779 0.950 . S
H3759 C3782 0.950 . S
H3760 C3783 0.950 . S
H3761 C3785 0.950 . S
H3762 C3786 0.950 . S
H3763 C3787 0.951 . S
H3764 C3789 0.951 . S
H3765 C3791 0.950 . S
H3766 C3792 0.950 . S
H3767 C3794 0.950 . S
H3768 C3797 0.950 . S
H3769 C3798 0.950 . S
H3770 C3800 0.950 . S
H3771 C3801 0.950 . S
C3772 H3754 0.951 . S
C3772 C3773 1.366 . S
C3772 C3774 1.388 . S
C3773 C3772 1.366 . S
C3773 C3777 1.385 . S
C3774 H3755 0.951 . S
C3774 C3772 1.388 . S
C3774 C3775 1.366 . S
C3775 C3774 1.366 . S
C3775 C3776 1.414 . S
C3775 C3778 1.499 . S
C3776 H3756 0.950 . S
C3776 C3775 1.414 . S
C3776 C3777 1.374 . S
C3777 H3757 0.950 . S
C3777 C3773 1.385 . S
C3777 C3776 1.374 . S
C3778 C3775 1.499 . S
C3778 C3779 1.373 . S
C3778 C3780 1.389 . S
C3779 H3758 0.950 . S
C3779 C3778 1.373 . S
C3779 C3795 1.377 . S
C3780 C3778 1.389 . S
C3780 C3781 1.524 . S
C3780 C3794 1.377 . S
C3781 C3780 1.524 . S
C3781 C3782 1.397 . S
C3781 C3786 1.363 . S
C3782 H3759 0.950 . S
C3782 C3781 1.397 . S
C3782 C3783 1.334 . S
C3783 H3760 0.950 . S
C3783 C3782 1.334 . S
C3783 C3784 1.287 . S
C3784 C3783 1.287 . S
C3784 C3785 1.524 . S
C3784 H3803 0.913 . S
C3785 H3761 0.950 . S
C3785 C3784 1.524 . S
C3785 C3786 1.415 . S
C3786 H3762 0.950 . S
C3786 C3781 1.363 . S
C3786 C3785 1.415 . S
C3787 H3763 0.951 . S
C3787 C3788 1.366 . S
C3787 C3789 1.388 1_556 S
C3788 C3787 1.366 . S
C3788 C3792 1.385 . S
C3789 H3764 0.951 . S
C3789 C3787 1.388 1_554 S
C3789 C3790 1.366 . S
C3790 C3789 1.366 . S
C3790 C3791 1.414 . S
C3790 C3793 1.499 . S
C3791 H3765 0.950 . S
C3791 C3790 1.414 . S
C3791 C3792 1.374 1_554 S
C3792 H3766 0.950 . S
C3792 C3788 1.385 . S
C3792 C3791 1.374 1_556 S
C3793 C3790 1.499 . S
C3793 C3794 1.373 . S
C3793 C3795 1.389 . S
C3794 H3767 0.950 . S
C3794 C3780 1.377 . S
C3794 C3793 1.373 . S
C3795 C3779 1.377 . S
C3795 C3793 1.389 . S
C3795 C3796 1.524 . S
C3796 C3795 1.524 . S
C3796 C3797 1.397 . S
C3796 C3801 1.363 . S
C3797 H3768 0.950 . S
C3797 C3796 1.397 . S
C3797 C3798 1.334 . S
C3798 H3769 0.950 . S
C3798 C3797 1.334 . S
C3798 C3799 1.287 . S
C3799 C3798 1.287 . S
C3799 C3800 1.524 . S
C3799 H3802 0.999 . S
C3800 H3770 0.950 . S
C3800 C3799 1.524 . S
C3800 C3801 1.415 . S
C3801 H3771 0.950 . S
C3801 C3796 1.363 . S
C3801 C3800 1.415 . S
H3802 C3799 0.999 . S
H3803 C3784 0.913 . S
H3804 C3822 0.951 . S
H3805 C3824 0.951 . S
H3806 C3826 0.950 . S
H3807 C3827 0.950 . S
H3808 C3829 0.950 . S
H3809 C3832 0.950 . S
H3810 C3833 0.950 . S
H3811 C3835 0.950 . S
H3812 C3836 0.950 . S
H3813 C3837 0.951 . S
H3814 C3839 0.951 . S
H3815 C3841 0.950 . S
H3816 C3842 0.950 . S
H3817 C3844 0.950 . S
H3818 C3847 0.950 . S
H3819 C3848 0.950 . S
H3820 C3850 0.950 . S
H3821 C3851 0.950 . S
C3822 H3804 0.951 . S
C3822 C3823 1.366 . S
C3822 C3824 1.388 1_554 S
C3823 C3822 1.366 . S
C3823 C3827 1.385 . S
C3824 H3805 0.951 . S
C3824 C3822 1.388 1_556 S
C3824 C3825 1.366 . S
C3825 C3824 1.366 . S
C3825 C3826 1.414 . S
C3825 C3828 1.499 . S
C3826 H3806 0.950 . S
C3826 C3825 1.414 . S
C3826 C3827 1.374 1_556 S
C3827 H3807 0.950 . S
C3827 C3823 1.385 . S
C3827 C3826 1.374 1_554 S
C3828 C3825 1.499 . S
C3828 C3829 1.373 . S
C3828 C3830 1.389 . S
C3829 H3808 0.950 . S
C3829 C3828 1.373 . S
C3829 C3845 1.377 . S
C3830 C3828 1.389 . S
C3830 C3831 1.524 . S
C3830 C3844 1.377 . S
C3831 C3830 1.524 . S
C3831 C3832 1.397 . S
C3831 C3836 1.363 . S
C3832 H3809 0.950 . S
C3832 C3831 1.397 . S
C3832 C3833 1.334 . S
C3833 H3810 0.950 . S
C3833 C3832 1.334 . S
C3833 C3834 1.287 . S
C3834 C3833 1.287 . S
C3834 C3835 1.524 . S
C3834 H3853 0.913 . S
C3835 H3811 0.950 . S
C3835 C3834 1.524 . S
C3835 C3836 1.415 . S
C3836 H3812 0.950 . S
C3836 C3831 1.363 . S
C3836 C3835 1.415 . S
C3837 H3813 0.951 . S
C3837 C3838 1.366 . S
C3837 C3839 1.388 . S
C3838 C3837 1.366 . S
C3838 C3842 1.385 . S
C3839 H3814 0.951 . S
C3839 C3837 1.388 . S
C3839 C3840 1.366 . S
C3840 C3839 1.366 . S
C3840 C3841 1.414 . S
C3840 C3843 1.499 . S
C3841 H3815 0.950 . S
C3841 C3840 1.414 . S
C3841 C3842 1.374 . S
C3842 H3816 0.950 . S
C3842 C3838 1.385 . S
C3842 C3841 1.374 . S
C3843 C3840 1.499 . S
C3843 C3844 1.373 . S
C3843 C3845 1.389 . S
C3844 H3817 0.950 . S
C3844 C3830 1.377 . S
C3844 C3843 1.373 . S
C3845 C3829 1.377 . S
C3845 C3843 1.389 . S
C3845 C3846 1.524 . S
C3846 C3845 1.524 . S
C3846 C3847 1.397 . S
C3846 C3851 1.363 . S
C3847 H3818 0.950 . S
C3847 C3846 1.397 . S
C3847 C3848 1.334 . S
C3848 H3819 0.950 . S
C3848 C3847 1.334 . S
C3848 C3849 1.287 . S
C3849 C3848 1.287 . S
C3849 C3850 1.524 . S
C3849 H3852 0.999 . S
C3850 H3820 0.950 . S
C3850 C3849 1.524 . S
C3850 C3851 1.415 . S
C3851 H3821 0.950 . S
C3851 C3846 1.363 . S
C3851 C3850 1.415 . S
H3852 C3849 0.999 . S
H3853 C3834 0.913 . S
H3854 C3872 0.951 . S
H3855 C3874 0.951 . S
H3856 C3876 0.950 . S
H3857 C3877 0.950 . S
H3858 C3879 0.950 . S
H3859 C3882 0.950 . S
H3860 C3883 0.950 . S
H3861 C3885 0.950 . S
H3862 C3886 0.950 . S
H3863 C3887 0.951 . S
H3864 C3889 0.951 . S
H3865 C3891 0.950 . S
H3866 C3892 0.950 . S
H3867 C3894 0.950 . S
H3868 C3897 0.950 . S
H3869 C3898 0.950 . S
H3870 C3900 0.950 . S
H3871 C3901 0.950 . S
C3872 H3854 0.951 . S
C3872 C3873 1.366 . S
C3872 C3874 1.388 1_554 S
C3873 C3872 1.366 . S
C3873 C3877 1.385 . S
C3874 H3855 0.951 . S
C3874 C3872 1.388 1_556 S
C3874 C3875 1.366 . S
C3875 C3874 1.366 . S
C3875 C3876 1.414 . S
C3875 C3878 1.499 . S
C3876 H3856 0.950 . S
C3876 C3875 1.414 . S
C3876 C3877 1.374 1_556 S
C3877 H3857 0.950 . S
C3877 C3873 1.385 . S
C3877 C3876 1.374 1_554 S
C3878 C3875 1.499 . S
C3878 C3879 1.373 . S
C3878 C3880 1.389 . S
C3879 H3858 0.950 . S
C3879 C3878 1.373 . S
C3879 C3895 1.377 . S
C3880 C3878 1.389 . S
C3880 C3881 1.524 . S
C3880 C3894 1.377 . S
C3881 C3880 1.524 . S
C3881 C3882 1.397 . S
C3881 C3886 1.363 . S
C3882 H3859 0.950 . S
C3882 C3881 1.397 . S
C3882 C3883 1.334 . S
C3883 H3860 0.950 . S
C3883 C3882 1.334 . S
C3883 C3884 1.287 . S
C3884 C3883 1.287 . S
C3884 C3885 1.524 . S
C3884 H3903 0.913 . S
C3885 H3861 0.950 . S
C3885 C3884 1.524 . S
C3885 C3886 1.415 . S
C3886 H3862 0.950 . S
C3886 C3881 1.363 . S
C3886 C3885 1.415 . S
C3887 H3863 0.951 . S
C3887 C3888 1.366 . S
C3887 C3889 1.388 . S
C3888 C3887 1.366 . S
C3888 C3892 1.385 . S
C3889 H3864 0.951 . S
C3889 C3887 1.388 . S
C3889 C3890 1.366 . S
C3890 C3889 1.366 . S
C3890 C3891 1.414 . S
C3890 C3893 1.499 . S
C3891 H3865 0.950 . S
C3891 C3890 1.414 . S
C3891 C3892 1.374 . S
C3892 H3866 0.950 . S
C3892 C3888 1.385 . S
C3892 C3891 1.374 . S
C3893 C3890 1.499 . S
C3893 C3894 1.373 . S
C3893 C3895 1.389 . S
C3894 H3867 0.950 . S
C3894 C3880 1.377 . S
C3894 C3893 1.373 . S
C3895 C3879 1.377 . S
C3895 C3893 1.389 . S
C3895 C3896 1.524 . S
C3896 C3895 1.524 . S
C3896 C3897 1.397 . S
C3896 C3901 1.363 . S
C3897 H3868 0.950 . S
C3897 C3896 1.397 . S
C3897 C3898 1.334 . S
C3898 H3869 0.950 . S
C3898 C3897 1.334 . S
C3898 C3899 1.287 . S
C3899 C3898 1.287 . S
C3899 C3900 1.524 . S
C3899 H3902 0.999 . S
C3900 H3870 0.950 . S
C3900 C3899 1.524 . S
C3900 C3901 1.415 . S
C3901 H3871 0.950 . S
C3901 C3896 1.363 . S
C3901 C3900 1.415 . S
H3902 C3899 0.999 . S
H3903 C3884 0.913 . S
H3904 C3922 0.951 . S
H3905 C3924 0.951 . S
H3906 C3926 0.950 . S
H3907 C3927 0.950 . S
H3908 C3929 0.950 . S
H3909 C3932 0.950 . S
H3910 C3933 0.950 . S
H3911 C3935 0.950 . S
H3912 C3936 0.950 . S
H3913 C3937 0.951 . S
H3914 C3939 0.951 . S
H3915 C3941 0.950 . S
H3916 C3942 0.950 . S
H3917 C3944 0.950 . S
H3918 C3947 0.950 . S
H3919 C3948 0.950 . S
H3920 C3950 0.950 . S
H3921 C3951 0.950 . S
C3922 H3904 0.951 . S
C3922 C3923 1.366 . S
C3922 C3924 1.388 1_554 S
C3923 C3922 1.366 . S
C3923 C3927 1.385 . S
C3924 H3905 0.951 . S
C3924 C3922 1.388 1_556 S
C3924 C3925 1.366 . S
C3925 C3924 1.366 . S
C3925 C3926 1.414 . S
C3925 C3928 1.499 . S
C3926 H3906 0.950 . S
C3926 C3925 1.414 . S
C3926 C3927 1.374 1_556 S
C3927 H3907 0.950 . S
C3927 C3923 1.385 . S
C3927 C3926 1.374 1_554 S
C3928 C3925 1.499 . S
C3928 C3929 1.373 . S
C3928 C3930 1.389 . S
C3929 H3908 0.950 . S
C3929 C3928 1.373 . S
C3929 C3945 1.377 . S
C3930 C3928 1.389 . S
C3930 C3931 1.524 . S
C3930 C3944 1.377 . S
C3931 C3930 1.524 . S
C3931 C3932 1.397 . S
C3931 C3936 1.363 . S
C3932 H3909 0.950 . S
C3932 C3931 1.397 . S
C3932 C3933 1.334 . S
C3933 H3910 0.950 . S
C3933 C3932 1.334 . S
C3933 C3934 1.287 . S
C3934 C3933 1.287 . S
C3934 C3935 1.524 . S
C3934 H3953 0.913 . S
C3935 H3911 0.950 . S
C3935 C3934 1.524 . S
C3935 C3936 1.415 . S
C3936 H3912 0.950 . S
C3936 C3931 1.363 . S
C3936 C3935 1.415 . S
C3937 H3913 0.951 . S
C3937 C3938 1.366 . S
C3937 C3939 1.388 . S
C3938 C3937 1.366 . S
C3938 C3942 1.385 . S
C3939 H3914 0.951 . S
C3939 C3937 1.388 . S
C3939 C3940 1.366 . S
C3940 C3939 1.366 . S
C3940 C3941 1.414 . S
C3940 C3943 1.499 . S
C3941 H3915 0.950 . S
C3941 C3940 1.414 . S
C3941 C3942 1.374 . S
C3942 H3916 0.950 . S
C3942 C3938 1.385 . S
C3942 C3941 1.374 . S
C3943 C3940 1.499 . S
C3943 C3944 1.373 . S
C3943 C3945 1.389 . S
C3944 H3917 0.950 . S
C3944 C3930 1.377 . S
C3944 C3943 1.373 . S
C3945 C3929 1.377 . S
C3945 C3943 1.389 . S
C3945 C3946 1.524 . S
C3946 C3945 1.524 . S
C3946 C3947 1.397 . S
C3946 C3951 1.363 . S
C3947 H3918 0.950 . S
C3947 C3946 1.397 . S
C3947 C3948 1.334 . S
C3948 H3919 0.950 . S
C3948 C3947 1.334 . S
C3948 C3949 1.287 . S
C3949 C3948 1.287 . S
C3949 C3950 1.524 . S
C3949 H3952 0.999 . S
C3950 H3920 0.950 . S
C3950 C3949 1.524 . S
C3950 C3951 1.415 . S
C3951 H3921 0.950 . S
C3951 C3946 1.363 . S
C3951 C3950 1.415 . S
H3952 C3949 0.999 . S
H3953 C3934 0.913 . S
H3954 C3972 0.951 . S
H3955 C3974 0.951 . S
H3956 C3976 0.950 . S
H3957 C3977 0.950 . S
H3958 C3979 0.950 . S
H3959 C3982 0.950 . S
H3960 C3983 0.950 . S
H3961 C3985 0.950 . S
H3962 C3986 0.950 . S
H3963 C3987 0.951 . S
H3964 C3989 0.951 . S
H3965 C3991 0.950 . S
H3966 C3992 0.950 . S
H3967 C3994 0.950 . S
H3968 C3997 0.950 . S
H3969 C3998 0.950 . S
H3970 C4000 0.950 . S
H3971 C4001 0.950 . S
C3972 H3954 0.951 . S
C3972 C3973 1.366 . S
C3972 C3974 1.388 . S
C3973 C3972 1.366 . S
C3973 C3977 1.385 . S
C3974 H3955 0.951 . S
C3974 C3972 1.388 . S
C3974 C3975 1.366 . S
C3975 C3974 1.366 . S
C3975 C3976 1.414 . S
C3975 C3978 1.499 . S
C3976 H3956 0.950 . S
C3976 C3975 1.414 . S
C3976 C3977 1.374 . S
C3977 H3957 0.950 . S
C3977 C3973 1.385 . S
C3977 C3976 1.374 . S
C3978 C3975 1.499 . S
C3978 C3979 1.373 . S
C3978 C3980 1.389 . S
C3979 H3958 0.950 . S
C3979 C3978 1.373 . S
C3979 C3995 1.377 . S
C3980 C3978 1.389 . S
C3980 C3981 1.524 . S
C3980 C3994 1.377 . S
C3981 C3980 1.524 . S
C3981 C3982 1.397 . S
C3981 C3986 1.363 . S
C3982 H3959 0.950 . S
C3982 C3981 1.397 . S
C3982 C3983 1.334 . S
C3983 H3960 0.950 . S
C3983 C3982 1.334 . S
C3983 C3984 1.287 . S
C3984 C3983 1.287 . S
C3984 C3985 1.524 . S
C3984 H4003 0.913 . S
C3985 H3961 0.950 . S
C3985 C3984 1.524 . S
C3985 C3986 1.415 . S
C3986 H3962 0.950 . S
C3986 C3981 1.363 . S
C3986 C3985 1.415 . S
C3987 H3963 0.951 . S
C3987 C3988 1.366 . S
C3987 C3989 1.388 . S
C3988 C3987 1.366 . S
C3988 C3992 1.385 . S
C3989 H3964 0.951 . S
C3989 C3987 1.388 . S
C3989 C3990 1.366 . S
C3990 C3989 1.366 . S
C3990 C3991 1.414 . S
C3990 C3993 1.499 . S
C3991 H3965 0.950 . S
C3991 C3990 1.414 . S
C3991 C3992 1.374 . S
C3992 H3966 0.950 . S
C3992 C3988 1.385 . S
C3992 C3991 1.374 . S
C3993 C3990 1.499 . S
C3993 C3994 1.373 . S
C3993 C3995 1.389 . S
C3994 H3967 0.950 . S
C3994 C3980 1.377 . S
C3994 C3993 1.373 . S
C3995 C3979 1.377 . S
C3995 C3993 1.389 . S
C3995 C3996 1.524 . S
C3996 C3995 1.524 . S
C3996 C3997 1.397 . S
C3996 C4001 1.363 . S
C3997 H3968 0.950 . S
C3997 C3996 1.397 . S
C3997 C3998 1.334 . S
C3998 H3969 0.950 . S
C3998 C3997 1.334 . S
C3998 C3999 1.287 . S
C3999 C3998 1.287 . S
C3999 C4000 1.524 . S
C3999 H4002 0.999 . S
C4000 H3970 0.950 . S
C4000 C3999 1.524 . S
C4000 C4001 1.415 . S
C4001 H3971 0.950 . S
C4001 C3996 1.363 . S
C4001 C4000 1.415 . S
H4002 C3999 0.999 . S
H4003 C3984 0.913 . S
H4004 C4022 0.951 . S
H4005 C4024 0.951 . S
H4006 C4026 0.950 . S
H4007 C4027 0.950 . S
H4008 C4029 0.950 . S
H4009 C4032 0.950 . S
H4010 C4033 0.950 . S
H4011 C4035 0.950 . S
H4012 C4036 0.950 . S
H4013 C4037 0.951 . S
H4014 C4039 0.951 . S
H4015 C4041 0.950 . S
H4016 C4042 0.950 . S
H4017 C4044 0.950 . S
H4018 C4047 0.950 . S
H4019 C4048 0.950 . S
H4020 C4050 0.950 . S
H4021 C4051 0.950 . S
C4022 H4004 0.951 . S
C4022 C4023 1.366 . S
C4022 C4024 1.388 . S
C4023 C4022 1.366 . S
C4023 C4027 1.385 . S
C4024 H4005 0.951 . S
C4024 C4022 1.388 . S
C4024 C4025 1.366 . S
C4025 C4024 1.366 . S
C4025 C4026 1.414 . S
C4025 C4028 1.499 . S
C4026 H4006 0.950 . S
C4026 C4025 1.414 . S
C4026 C4027 1.374 . S
C4027 H4007 0.950 . S
C4027 C4023 1.385 . S
C4027 C4026 1.374 . S
C4028 C4025 1.499 . S
C4028 C4029 1.373 . S
C4028 C4030 1.389 . S
C4029 H4008 0.950 . S
C4029 C4028 1.373 . S
C4029 C4045 1.377 . S
C4030 C4028 1.389 . S
C4030 C4031 1.524 . S
C4030 C4044 1.377 . S
C4031 C4030 1.524 . S
C4031 C4032 1.397 . S
C4031 C4036 1.363 . S
C4032 H4009 0.950 . S
C4032 C4031 1.397 . S
C4032 C4033 1.334 . S
C4033 H4010 0.950 . S
C4033 C4032 1.334 . S
C4033 C4034 1.287 . S
C4034 C4033 1.287 . S
C4034 C4035 1.524 . S
C4034 H4053 0.913 . S
C4035 H4011 0.950 . S
C4035 C4034 1.524 . S
C4035 C4036 1.415 . S
C4036 H4012 0.950 . S
C4036 C4031 1.363 . S
C4036 C4035 1.415 . S
C4037 H4013 0.951 . S
C4037 C4038 1.366 . S
C4037 C4039 1.388 . S
C4038 C4037 1.366 . S
C4038 C4042 1.385 . S
C4039 H4014 0.951 . S
C4039 C4037 1.388 . S
C4039 C4040 1.366 . S
C4040 C4039 1.366 . S
C4040 C4041 1.414 . S
C4040 C4043 1.499 . S
C4041 H4015 0.950 . S
C4041 C4040 1.414 . S
C4041 C4042 1.374 . S
C4042 H4016 0.950 . S
C4042 C4038 1.385 . S
C4042 C4041 1.374 . S
C4043 C4040 1.499 . S
C4043 C4044 1.373 . S
C4043 C4045 1.389 . S
C4044 H4017 0.950 . S
C4044 C4030 1.377 . S
C4044 C4043 1.373 . S
C4045 C4029 1.377 . S
C4045 C4043 1.389 . S
C4045 C4046 1.524 . S
C4046 C4045 1.524 . S
C4046 C4047 1.397 . S
C4046 C4051 1.363 . S
C4047 H4018 0.950 . S
C4047 C4046 1.397 . S
C4047 C4048 1.334 . S
C4048 H4019 0.950 . S
C4048 C4047 1.334 . S
C4048 C4049 1.287 . S
C4049 C4048 1.287 . S
C4049 C4050 1.524 . S
C4049 H4052 0.999 . S
C4050 H4020 0.950 . S
C4050 C4049 1.524 . S
C4050 C4051 1.415 . S
C4051 H4021 0.950 . S
C4051 C4046 1.363 . S
C4051 C4050 1.415 . S
H4052 C4049 0.999 . S
H4053 C4034 0.913 . S
H4054 C4072 0.951 . S
H4055 C4074 0.951 . S
H4056 C4076 0.950 . S
H4057 C4077 0.950 . S
H4058 C4079 0.950 . S
H4059 C4082 0.950 . S
H4060 C4083 0.950 . S
H4061 C4085 0.950 . S
H4062 C4086 0.950 . S
H4063 C4087 0.951 . S
H4064 C4089 0.951 . S
H4065 C4091 0.950 . S
H4066 C4092 0.950 . S
H4067 C4094 0.950 . S
H4068 C4097 0.950 . S
H4069 C4098 0.950 . S
H4070 C4100 0.950 . S
H4071 C4101 0.950 . S
C4072 H4054 0.951 . S
C4072 C4073 1.366 . S
C4072 C4074 1.388 . S
C4073 C4072 1.366 . S
C4073 C4077 1.385 . S
C4074 H4055 0.951 . S
C4074 C4072 1.388 . S
C4074 C4075 1.366 . S
C4075 C4074 1.366 . S
C4075 C4076 1.414 . S
C4075 C4078 1.499 . S
C4076 H4056 0.950 . S
C4076 C4075 1.414 . S
C4076 C4077 1.374 . S
C4077 H4057 0.950 . S
C4077 C4073 1.385 . S
C4077 C4076 1.374 . S
C4078 C4075 1.499 . S
C4078 C4079 1.373 . S
C4078 C4080 1.389 . S
C4079 H4058 0.950 . S
C4079 C4078 1.373 . S
C4079 C4095 1.377 . S
C4080 C4078 1.389 . S
C4080 C4081 1.524 . S
C4080 C4094 1.377 . S
C4081 C4080 1.524 . S
C4081 C4082 1.397 . S
C4081 C4086 1.363 . S
C4082 H4059 0.950 . S
C4082 C4081 1.397 . S
C4082 C4083 1.334 . S
C4083 H4060 0.950 . S
C4083 C4082 1.334 . S
C4083 C4084 1.287 . S
C4084 C4083 1.287 . S
C4084 C4085 1.524 . S
C4084 H4103 0.913 . S
C4085 H4061 0.950 . S
C4085 C4084 1.524 . S
C4085 C4086 1.415 . S
C4086 H4062 0.950 . S
C4086 C4081 1.363 . S
C4086 C4085 1.415 . S
C4087 H4063 0.951 . S
C4087 C4088 1.366 . S
C4087 C4089 1.388 . S
C4088 C4087 1.366 . S
C4088 C4092 1.385 . S
C4089 H4064 0.951 . S
C4089 C4087 1.388 . S
C4089 C4090 1.366 . S
C4090 C4089 1.366 . S
C4090 C4091 1.414 . S
C4090 C4093 1.499 . S
C4091 H4065 0.950 . S
C4091 C4090 1.414 . S
C4091 C4092 1.374 . S
C4092 H4066 0.950 . S
C4092 C4088 1.385 . S
C4092 C4091 1.374 . S
C4093 C4090 1.499 . S
C4093 C4094 1.373 . S
C4093 C4095 1.389 . S
C4094 H4067 0.950 . S
C4094 C4080 1.377 . S
C4094 C4093 1.373 . S
C4095 C4079 1.377 . S
C4095 C4093 1.389 . S
C4095 C4096 1.524 . S
C4096 C4095 1.524 . S
C4096 C4097 1.397 . S
C4096 C4101 1.363 . S
C4097 H4068 0.950 . S
C4097 C4096 1.397 . S
C4097 C4098 1.334 . S
C4098 H4069 0.950 . S
C4098 C4097 1.334 . S
C4098 C4099 1.287 . S
C4099 C4098 1.287 . S
C4099 C4100 1.524 . S
C4099 H4102 0.999 . S
C4100 H4070 0.950 . S
C4100 C4099 1.524 . S
C4100 C4101 1.415 . S
C4101 H4071 0.950 . S
C4101 C4096 1.363 . S
C4101 C4100 1.415 . S
H4102 C4099 0.999 . S
H4103 C4084 0.913 . S
C523 C230 1.013 . S
C538 C6 1.014 . S
C573 C244 1.012 . S
C588 C20 1.012 . S
C623 C34 1.012 . S
C638 C216 1.012 . S
C673 C370 1.014 . S
C688 C48 1.014 . S
C723 C342 1.012 . S
C738 C62 1.013 . S
C773 C76 1.013 . S
C788 C356 1.012 . S
C823 C482 1.013 . S
C838 C90 1.014 . S
C873 C496 1.013 . S
C888 C104 1.014 . S
C923 C468 1.012 . S
C938 C118 1.012 . S
C973 C286 1.013 . S
C988 C132 1.012 . S
C1023 C146 1.012 . S
C1038 C258 1.012 . S
C1073 C272 1.012 . S
C1088 C160 1.012 . S
C1123 C398 1.012 . S
C1138 C174 1.012 . S
C1173 C188 1.014 . S
C1188 C412 1.013 . S
C1223 C384 1.012 . S
C1238 C202 1.012 . S
C1273 C454 1.012 . S
C1288 C300 1.013 . S
C1323 C426 1.013 . S
C1338 C314 1.014 . S
C1373 C328 1.013 . S
C1388 C440 1.013 . S
C1423 C105 1.642 . S
C1438 C8 1.693 . S
C1473 C119 1.643 . S
C1488 C22 1.693 . S
C1523 C91 1.642 . S
C1538 C36 1.693 . S
C1573 C50 1.693 . S
C1588 C161 1.642 . S
C1623 C133 1.643 . S
C1638 C64 1.693 . S
C1673 C78 1.693 . S
C1688 C147 1.643 . S
C1723 C21 1.642 . S
C1738 C92 1.692 . S
C1773 C106 1.693 . S
C1788 C35 1.643 . S
C1823 C7 1.643 . S
C1838 C120 1.694 . S
C1873 C77 1.642 . S
C1888 C134 1.693 . S
C1923 C49 1.643 . S
C1938 C148 1.693 . S
C1973 C162 1.693 . S
C1988 C63 1.643 . S
C2023 C176 1.693 . S
C2038 C273 1.642 . S
C2073 C287 1.643 . S
C2088 C190 1.693 . S
C2123 C259 1.643 . S
C2138 C204 1.693 . S
C2173 C218 1.693 . S
C2188 C329 1.642 . S
C2223 C301 1.643 . S
C2238 C232 1.693 . S
C2273 C246 1.693 . S
C2288 C315 1.642 . S
C2323 C260 1.693 . S
C2338 C189 1.642 . S
C2373 C274 1.693 . S
C2388 C203 1.642 . S
C2423 C175 1.642 . S
C2438 C288 1.693 . S
C2473 C245 1.643 . S
C2488 C302 1.693 . S
C2523 C217 1.642 . S
C2538 C316 1.693 . S
C2573 C330 1.693 . S
C2588 C231 1.642 . S
C2623 C441 1.642 . S
C2638 C344 1.693 . S
C2673 C358 1.693 . S
C2688 C455 1.642 . S
C2723 C372 1.693 . S
C2738 C427 1.643 . S
C2773 C497 1.642 . S
C2788 C386 1.693 . S
C2823 C400 1.693 . S
C2838 C469 1.643 . S
C2873 C483 1.642 . S
C2888 C414 1.693 . S
C2923 C357 1.642 . S
C2938 C428 1.693 . S
C2973 C371 1.642 . S
C2988 C442 1.693 . S
C3023 C456 1.693 . S
C3038 C343 1.643 . S
C3073 C470 1.693 . S
C3088 C413 1.643 . S
C3123 C385 1.643 . S
C3138 C484 1.693 . S
C3173 C399 1.642 . S
C3188 C498 1.693 . S
C3223 C9 1.865 . S
C3238 C51 1.865 . S
C3273 C23 1.864 . S
C3288 C65 1.865 . S
C3323 C79 1.865 . S
C3338 C37 1.864 . S
C3373 C93 1.864 . S
C3388 C135 1.865 . S
C3423 C149 1.865 . S
C3438 C107 1.865 . S
C3473 C163 1.864 . S
C3488 C121 1.864 . S
C3523 C177 1.864 . S
C3538 C219 1.864 . S
C3573 C191 1.865 . S
C3588 C233 1.864 . S
C3623 C247 1.864 . S
C3638 C205 1.865 . S
C3673 C261 1.864 . S
C3688 C303 1.865 . S
C3723 C275 1.865 . S
C3738 C317 1.865 . S
C3773 C289 1.864 . S
C3788 C331 1.865 . S
C3823 C387 1.864 . S
C3838 C345 1.865 . S
C3873 C401 1.865 . S
C3888 C359 1.864 . S
C3923 C415 1.865 . S
C3938 C373 1.865 . S
C3973 C429 1.865 . S
C3988 C471 1.864 . S
C4023 C485 1.864 . S
C4038 C443 1.864 . S
C4073 C499 1.865 . S
C4088 C457 1.865 . S
