# Generated by pormake.
# Topology tfs, (6)-cn, num edge types: 1
# Building blocks:
#     Node 0, Type 0, BuildingBlock: FUNLAD_clean_sbu_0, # of connection points: 6
#     Node 1, Type 0, BuildingBlock: FUNLAD_clean_sbu_0, # of connection points: 6
#     Node 2, Type 0, BuildingBlock: FUNLAD_clean_sbu_0, # of connection points: 6
#     Node 3, Type 0, BuildingBlock: FUNLAD_clean_sbu_0, # of connection points: 6
#     Node 4, Type 0, BuildingBlock: FUNLAD_clean_sbu_0, # of connection points: 6
#     Node 5, Type 0, BuildingBlock: FUNLAD_clean_sbu_0, # of connection points: 6
#     Edge 6, Type (0, 0), BuildingBlock: XIVTED_clean_linker_0, # of connection points: 2
#     Edge 7, Type (0, 0), BuildingBlock: XIVTED_clean_linker_0, # of connection points: 2
#     Edge 8, Type (0, 0), BuildingBlock: XIVTED_clean_linker_0, # of connection points: 2
#     Edge 9, Type (0, 0), BuildingBlock: XIVTED_clean_linker_0, # of connection points: 2
#     Edge 10, Type (0, 0), BuildingBlock: XIVTED_clean_linker_0, # of connection points: 2
#     Edge 11, Type (0, 0), BuildingBlock: XIVTED_clean_linker_0, # of connection points: 2
#     Edge 12, Type (0, 0), BuildingBlock: XIVTED_clean_linker_0, # of connection points: 2
#     Edge 13, Type (0, 0), BuildingBlock: XIVTED_clean_linker_0, # of connection points: 2
#     Edge 14, Type (0, 0), BuildingBlock: XIVTED_clean_linker_0, # of connection points: 2
#     Edge 15, Type (0, 0), BuildingBlock: XIVTED_clean_linker_0, # of connection points: 2
#     Edge 16, Type (0, 0), BuildingBlock: XIVTED_clean_linker_0, # of connection points: 2
#     Edge 17, Type (0, 0), BuildingBlock: XIVTED_clean_linker_0, # of connection points: 2
#     Edge 18, Type (0, 0), BuildingBlock: XIVTED_clean_linker_0, # of connection points: 2
#     Edge 19, Type (0, 0), BuildingBlock: XIVTED_clean_linker_0, # of connection points: 2
#     Edge 20, Type (0, 0), BuildingBlock: XIVTED_clean_linker_0, # of connection points: 2
#     Edge 21, Type (0, 0), BuildingBlock: XIVTED_clean_linker_0, # of connection points: 2
#     Edge 22, Type (0, 0), BuildingBlock: XIVTED_clean_linker_0, # of connection points: 2
#     Edge 23, Type (0, 0), BuildingBlock: XIVTED_clean_linker_0, # of connection points: 2
# Relax obj value: 0.121
# Max RMSD: 0.155
# Mean RMSD: 0.154
data_MOF--net-tfs--node1-FUNLAD_clean_sbu_0--edge1-XIVTED_clean_linker_0
_symmetry_space_group_name_H-M    P1
_symmetry_Int_Tables_number       1
_symmetry_cell_setting            triclinic
loop_
_symmetry_equiv_pos_as_xyz
'x, y, z'
_cell_length_a     41.348911
_cell_length_b     41.318778
_cell_length_c     21.931244
_cell_angle_alpha  90.622367
_cell_angle_beta   90.809138
_cell_angle_gamma 120.76252
loop_
_atom_site_label
_atom_site_type_symbol
_atom_site_fract_x
_atom_site_fract_y
_atom_site_fract_z
_atom_type_partial_charge
C0 C 0.11852 0.35662 0.04075 0.0
N1 N 0.19724 0.40976 0.18257 0.0
C2 C 0.17035 0.41289 0.21255 0.0
C3 C 0.16996 0.41305 0.27617 0.0
C4 C 0.19749 0.40993 0.30944 0.0
C5 C 0.22514 0.4071 0.27728 0.0
C6 C 0.22447 0.40705 0.21358 0.0
Zn7 Zn 0.1957 0.40792 0.08932 0.0
C8 C 0.2051 0.34693 0.03972 0.0
N9 N 0.19097 0.40333 0.89441 0.0
C10 C 0.16392 0.40627 0.86326 0.0
C11 C 0.21774 0.39992 0.86459 0.0
C12 C 0.21822 0.39973 0.80097 0.0
C13 C 0.19086 0.40306 0.76755 0.0
C14 C 0.16333 0.40617 0.79956 0.0
Zn15 Zn 0.19245 0.40518 0.98765 0.0
O16 O 0.13798 0.36953 0.08971 0.0
C17 C 0.18127 0.46536 0.03726 0.0
O18 O 0.13415 0.36732 0.98956 0.0
H19 H 0.23894 0.39753 0.89021 0.0
H20 H 0.14899 0.41507 0.18705 0.0
H21 H 0.14296 0.40906 0.88787 0.0
O22 O 0.1857 0.45299 0.08754 0.0
O23 O 0.18325 0.45061 0.98742 0.0
H24 H 0.24551 0.40446 0.18885 0.0
O25 O 0.25116 0.44334 0.98747 0.0
O26 O 0.25391 0.44625 0.08755 0.0
O27 O 0.20103 0.35947 0.98941 0.0
O28 O 0.20492 0.36278 0.08949 0.0
C29 C 0.27028 0.45641 0.03682 0.0
H30 H 0.14844 0.41584 0.29903 0.0
H31 H 0.24664 0.40421 0.301 0.0
H32 H 0.23964 0.39672 0.77822 0.0
H33 H 0.14197 0.40924 0.7757 0.0
C34 C 0.84113 0.22342 0.05176 0.0
N35 N 0.76688 0.20184 0.90506 0.0
C36 C 0.79552 0.23135 0.87618 0.0
C37 C 0.79611 0.23217 0.81258 0.0
C38 C 0.76697 0.20231 0.77827 0.0
C39 C 0.7378 0.17219 0.80933 0.0
C40 C 0.7383 0.17254 0.87301 0.0
Zn41 Zn 0.76677 0.20167 0.99821 0.0
C42 C 0.74866 0.12834 0.04678 0.0
N43 N 0.76659 0.20165 0.19298 0.0
C44 C 0.79502 0.23105 0.2251 0.0
C45 C 0.73803 0.17203 0.22179 0.0
C46 C 0.73737 0.17119 0.28539 0.0
C47 C 0.76636 0.20114 0.31977 0.0
C48 C 0.79546 0.23137 0.28877 0.0
Zn49 Zn 0.76675 0.20185 0.09982 0.0
O50 O 0.82386 0.21825 1.00099 0.0
C51 C 0.78494 0.2755 0.05093 0.0
O52 O 0.82376 0.21874 0.10114 0.0
H53 H 0.71564 0.149 0.19539 0.0
H54 H 0.81802 0.25431 0.90253 0.0
H55 H 0.81751 0.25426 0.20129 0.0
O56 O 0.78096 0.25822 1.00063 0.0
O57 O 0.78068 0.25848 0.10072 0.0
H58 H 0.71574 0.14942 0.89687 0.0
O59 O 0.70946 0.18489 0.09709 0.0
O60 O 0.70938 0.18496 0.997 0.0
O61 O 0.75289 0.14546 0.09734 0.0
O62 O 0.75265 0.14541 0.9972 0.0
C63 C 0.69203 0.17995 0.04654 0.0
H64 H 0.81941 0.25572 0.79055 0.0
H65 H 0.71452 0.14882 0.78474 0.0
H66 H 0.71413 0.14755 0.30735 0.0
H67 H 0.81862 0.25482 0.31342 0.0
C68 C 0.61718 0.76373 0.03094 0.0
N69 N 0.55867 0.77596 0.17402 0.0
C70 C 0.56143 0.74884 0.20415 0.0
C71 C 0.56163 0.74848 0.2678 0.0
C72 C 0.55899 0.77633 0.30085 0.0
C73 C 0.55623 0.80401 0.26849 0.0
C74 C 0.5561 0.80329 0.20483 0.0
Zn75 Zn 0.55827 0.7756 0.08084 0.0
C76 C 0.60856 0.85092 0.03209 0.0
N77 N 0.5573 0.77471 0.88603 0.0
C78 C 0.55982 0.74731 0.85537 0.0
C79 C 0.55464 0.80185 0.85575 0.0
C80 C 0.55448 0.80213 0.7921 0.0
C81 C 0.55707 0.7742 0.75921 0.0
C82 C 0.55974 0.74651 0.79172 0.0
Zn83 Zn 0.5577 0.77514 0.9792 0.0
O84 O 0.60337 0.7663 0.08079 0.0
C85 C 0.5078 0.69912 0.02824 0.0
O86 O 0.6028 0.7657 0.98063 0.0
H87 H 0.55258 0.82333 0.88102 0.0
H88 H 0.56356 0.72743 0.17878 0.0
H89 H 0.56203 0.72607 0.88034 0.0
O90 O 0.51985 0.71722 0.0786 0.0
O91 O 0.51899 0.71657 0.9785 0.0
H92 H 0.55384 0.82454 0.17999 0.0
O93 O 0.51279 0.78533 0.97932 0.0
O94 O 0.51331 0.78559 0.07944 0.0
O95 O 0.59638 0.8332 0.98147 0.0
O96 O 0.59669 0.8335 0.08163 0.0
C97 C 0.49961 0.78883 0.02928 0.0
H98 H 0.5643 0.72689 0.29085 0.0
H99 H 0.55365 0.82573 0.29206 0.0
H100 H 0.55189 0.82373 0.76893 0.0
H101 H 0.56229 0.72474 0.76828 0.0
C102 C 0.75037 0.62845 0.03934 0.0
N103 N 0.75838 0.5654 0.89701 0.0
C104 C 0.73126 0.56817 0.86575 0.0
C105 C 0.73063 0.56792 0.80204 0.0
C106 C 0.75814 0.56472 0.77014 0.0
C107 C 0.78558 0.56159 0.80365 0.0
C108 C 0.7852 0.56203 0.86728 0.0
Zn109 Zn 0.75977 0.56738 0.99027 0.0
C110 C 0.83687 0.61865 0.03913 0.0
N111 N 0.76414 0.57214 0.1852 0.0
C112 C 0.7374 0.57577 0.21474 0.0
C113 C 0.79101 0.56906 0.21664 0.0
C114 C 0.79146 0.56923 0.28035 0.0
C115 C 0.76402 0.57264 0.31206 0.0
C116 C 0.73684 0.57611 0.27835 0.0
Zn117 Zn 0.76283 0.57017 0.09196 0.0
O118 O 0.7506 0.61254 0.98967 0.0
C119 C 0.68507 0.51898 0.04247 0.0
O120 O 0.75435 0.61594 0.08976 0.0
H121 H 0.81206 0.56629 0.19226 0.0
H122 H 0.71015 0.57075 0.89028 0.0
H123 H 0.71621 0.57803 0.18889 0.0
O124 O 0.70155 0.5291 0.99182 0.0
O125 O 0.7041 0.53207 0.0919 0.0
H126 H 0.80661 0.56003 0.89297 0.0
O127 O 0.77194 0.52466 0.09261 0.0
O128 O 0.76971 0.52229 0.99248 0.0
O129 O 0.82116 0.60795 0.09027 0.0
O130 O 0.81749 0.60573 0.9901 0.0
C131 C 0.774 0.5099 0.04285 0.0
H132 H 0.70867 0.56992 0.77806 0.0
H133 H 0.80761 0.55957 0.78101 0.0
H134 H 0.81323 0.56697 0.30448 0.0
H135 H 0.71487 0.57832 0.30082 0.0
C136 C 0.26327 0.7951 0.03227 0.0
N137 N 0.18823 0.77296 0.88639 0.0
C138 C 0.21674 0.80233 0.85706 0.0
C139 C 0.21711 0.80282 0.79343 0.0
C140 C 0.18783 0.77281 0.75956 0.0
C141 C 0.15877 0.74285 0.79109 0.0
C142 C 0.15954 0.74349 0.85477 0.0
Zn143 Zn 0.18846 0.77321 0.97956 0.0
C144 C 0.17023 0.69966 0.02915 0.0
N145 N 0.18897 0.77396 0.17435 0.0
C146 C 0.21777 0.80334 0.20591 0.0
C147 C 0.16038 0.74469 0.20373 0.0
C148 C 0.16005 0.74423 0.26736 0.0
C149 C 0.18944 0.77417 0.30118 0.0
C150 C 0.21858 0.80402 0.26959 0.0
Zn151 Zn 0.18869 0.77368 0.08118 0.0
O152 O 0.24571 0.79002 0.98181 0.0
C153 C 0.20684 0.84692 0.03191 0.0
O154 O 0.24607 0.79031 0.08191 0.0
H155 H 0.13781 0.72156 0.17776 0.0
H156 H 0.23922 0.82552 0.88307 0.0
H157 H 0.24017 0.82637 0.18166 0.0
O158 O 0.20249 0.82965 0.98146 0.0
O159 O 0.20289 0.82997 0.0816 0.0
H160 H 0.1372 0.72038 0.87898 0.0
O161 O 0.13161 0.75718 0.07887 0.0
O162 O 0.13151 0.75649 0.97872 0.0
O163 O 0.17441 0.71711 0.07935 0.0
O164 O 0.17437 0.71653 0.97924 0.0
C165 C 0.11425 0.75194 0.02818 0.0
H166 H 0.23981 0.82672 0.77105 0.0
H167 H 0.1359 0.71892 0.76685 0.0
H168 H 0.13728 0.72041 0.28978 0.0
H169 H 0.24153 0.8279 0.29378 0.0
C170 C 0.33828 0.21159 0.04715 0.0
N171 N 0.39811 0.20054 0.19208 0.0
C172 C 0.39559 0.22794 0.22275 0.0
C173 C 0.39568 0.22875 0.28641 0.0
C174 C 0.39836 0.20107 0.31891 0.0
C175 C 0.40094 0.17313 0.28602 0.0
C176 C 0.40077 0.1734 0.22236 0.0
Zn177 Zn 0.39774 0.20014 0.09892 0.0
C178 C 0.34691 0.12439 0.04595 0.0
N179 N 0.39685 0.1994 0.90411 0.0
C180 C 0.3941 0.22654 0.87396 0.0
C181 C 0.39943 0.17208 0.8733 0.0
C182 C 0.39932 0.17136 0.80964 0.0
C183 C 0.39655 0.19904 0.77728 0.0
C184 C 0.39392 0.22689 0.81031 0.0
Zn185 Zn 0.39722 0.19974 0.99728 0.0
O186 O 0.35265 0.20958 0.09746 0.0
C187 C 0.44765 0.27619 0.04999 0.0
O188 O 0.35212 0.20904 0.9973 0.0
H189 H 0.40169 0.15083 0.89814 0.0
H190 H 0.39337 0.24918 0.19779 0.0
H191 H 0.39197 0.24793 0.89934 0.0
O192 O 0.43644 0.2587 0.09969 0.0
O193 O 0.43564 0.25812 0.99959 0.0
H194 H 0.40283 0.15193 0.1971 0.0
O195 O 0.44218 0.18975 0.99871 0.0
O196 O 0.44264 0.18995 0.09882 0.0
O197 O 0.3588 0.14183 0.99642 0.0
O198 O 0.35907 0.14209 0.09658 0.0
C199 C 0.45585 0.18647 0.04888 0.0
H200 H 0.39314 0.25052 0.30984 0.0
H201 H 0.40354 0.15153 0.30919 0.0
H202 H 0.4019 0.14964 0.78608 0.0
H203 H 0.39124 0.24848 0.78725 0.0
H204 H 0.30203 0.21855 0.14502 0.0
H205 H 0.2086 0.3074 0.94196 0.0
H206 H 0.30275 0.21992 0.94806 0.0
H207 H 0.21605 0.31408 0.13887 0.0
H208 H 0.22837 0.26105 0.94368 0.0
H209 H 0.25616 0.23891 0.14339 0.0
C210 C 0.29222 0.22274 0.10141 0.0
C211 C 0.30694 0.21863 0.04664 0.0
C212 C 0.22516 0.27227 0.98653 0.0
C213 C 0.25474 0.24197 0.0445 0.0
C214 C 0.21399 0.2988 0.98558 0.0
C215 C 0.21178 0.31533 0.0403 0.0
C216 C 0.23444 0.26259 0.04254 0.0
C217 C 0.21828 0.30264 0.09554 0.0
C218 C 0.26596 0.23424 0.10051 0.0
C219 C 0.29271 0.22361 0.99142 0.0
N220 N 0.22994 0.27741 0.09522 0.0
N221 N 0.2678 0.23566 0.99178 0.0
H222 H 0.0794 0.31733 0.13922 0.0
H223 H 0.88747 0.24241 0.152 0.0
H224 H 0.06551 0.33525 0.94937 0.0
H225 H 0.88635 0.2337 0.95543 0.0
H226 H 0.95497 0.26891 0.15366 0.0
H227 H 0.01164 0.27706 0.14615 0.0
C228 C 0.06194 0.31294 0.09906 0.0
C229 C 0.07789 0.33019 0.04395 0.0
C230 C 0.94012 0.26028 0.11014 0.0
C231 C 0.00013 0.28532 0.05202 0.0
C232 C 0.90143 0.24545 0.10919 0.0
C233 C 0.88138 0.23613 0.05347 0.0
C234 C 0.95882 0.26555 0.05486 0.0
C235 C 0.90083 0.24078 0.99939 0.0
C236 C 0.02312 0.29017 0.10317 0.0
C237 C 0.05422 0.3228 0.99292 0.0
N238 N 0.9386 0.25551 1.00143 0.0
N239 N 0.01639 0.30117 0.99839 0.0
H240 H 0.73641 0.08291 0.14386 0.0
H241 H 0.64028 0.89681 0.93515 0.0
H242 H 0.7342 0.08268 0.94681 0.0
H243 H 0.63952 0.89722 0.13216 0.0
H244 H 0.68279 0.9649 0.93864 0.0
H245 H 0.70953 0.01488 0.14048 0.0
C246 C 0.73063 0.06859 0.09989 0.0
C247 C 0.73689 0.08828 0.04552 0.0
C248 C 0.67355 0.95004 0.9811 0.0
C249 C 0.706 0.01063 0.04134 0.0
C250 C 0.64922 0.91121 0.97914 0.0
C251 C 0.63595 0.89151 0.03344 0.0
C252 C 0.68447 0.96919 0.03775 0.0
C253 C 0.64874 0.91143 0.08917 0.0
C254 C 0.71529 0.02977 0.09798 0.0
C255 C 0.72932 0.06846 0.98983 0.0
N256 N 0.67206 0.9493 0.08987 0.0
N257 N 0.71382 0.03058 0.98918 0.0
H258 H 0.74701 0.66824 0.13682 0.0
H259 H 0.6533 0.75651 0.93309 0.0
H260 H 0.73939 0.6611 0.93994 0.0
H261 H 0.65291 0.75573 0.13008 0.0
H262 H 0.69921 0.7362 0.93485 0.0
H263 H 0.72727 0.71461 0.13476 0.0
C264 C 0.74159 0.67675 0.09313 0.0
C265 C 0.74374 0.66008 0.03853 0.0
C266 C 0.68947 0.74099 0.97771 0.0
C267 C 0.72111 0.71283 0.0359 0.0
C268 C 0.66319 0.75246 0.97673 0.0
C269 C 0.64854 0.75671 0.03149 0.0
C270 C 0.70079 0.73344 0.03378 0.0
C271 C 0.66288 0.75192 0.08674 0.0
C272 C 0.73044 0.70329 0.09198 0.0
C273 C 0.73721 0.67265 0.98318 0.0
N274 N 0.68781 0.73989 0.08645 0.0
N275 N 0.72556 0.69789 0.98332 0.0
H276 H 0.06787 0.73318 0.92805 0.0
H277 H 0.87603 0.65829 0.94098 0.0
H278 H 0.06907 0.7415 0.12468 0.0
H279 H 0.88983 0.63973 0.13054 0.0
H280 H 0.94378 0.69866 0.93422 0.0
H281 H 0.00039 0.70669 0.92651 0.0
C282 C 0.05394 0.73006 0.97091 0.0
C283 C 0.074 0.73927 0.0266 0.0
C284 C 0.93228 0.68538 0.97709 0.0
C285 C -0.00344 0.70986 0.02535 0.0
C286 C 0.89347 0.66256 0.9811 0.0
C287 C 0.87749 0.6451 0.03608 0.0
C288 C 0.95525 0.69007 0.02819 0.0
C289 C 0.90114 0.65234 0.08709 0.0
C290 C 0.01525 0.71524 0.97003 0.0
C291 C 0.05457 0.73452 0.08073 0.0
N292 N 0.93898 0.67402 0.0817 0.0
N293 N 0.0168 0.71979 0.07876 0.0
H294 H 0.21944 0.89226 0.93455 0.0
H295 H 0.31499 0.07854 0.14285 0.0
H296 H 0.22111 0.8927 0.13162 0.0
H297 H 0.31624 0.07803 0.94586 0.0
H298 H 0.27255 0.01045 0.13939 0.0
H299 H 0.24637 0.96031 0.93766 0.0
C300 C 0.22511 0.90663 0.97847 0.0
C301 C 0.21869 0.887 0.03293 0.0
C302 C 0.28188 0.02528 0.09692 0.0
C303 C 0.24961 0.96465 0.03679 0.0
C304 C 0.30618 0.06411 0.09887 0.0
C305 C 0.31955 0.08379 0.04457 0.0
C306 C 0.27112 0.0061 0.0403 0.0
C307 C 0.30692 0.06384 0.98885 0.0
C308 C 0.24048 0.94545 0.98021 0.0
C309 C 0.22612 0.90687 0.08853 0.0
N310 N 0.28363 0.02596 0.98817 0.0
N311 N 0.24164 0.94476 0.08903 0.0
H312 H 0.16263 0.65496 0.9306 0.0
H313 H 0.1734 0.50208 0.13512 0.0
H314 H 0.16313 0.65678 0.12761 0.0
H315 H 0.17229 0.49972 0.93809 0.0
H316 H 0.16371 0.55553 0.13304 0.0
H317 H 0.15945 0.59436 0.93217 0.0
C318 C 0.16167 0.64243 0.97417 0.0
C319 C 0.16363 0.66112 0.02908 0.0
C320 C 0.16538 0.54319 0.09025 0.0
C321 C 0.16029 0.59205 0.03119 0.0
C322 C 0.17102 0.51275 0.09141 0.0
C323 C 0.17405 0.49672 0.0367 0.0
C324 C 0.16289 0.55776 0.03399 0.0
C325 C 0.17042 0.51144 0.98139 0.0
C326 C 0.15992 0.60787 0.97503 0.0
C327 C 0.16204 0.6435 0.08418 0.0
N328 N 0.16527 0.54132 0.98146 0.0
N329 N 0.16082 0.61008 0.08384 0.0
H330 H 0.49101 0.17686 0.14754 0.0
H331 H 0.64722 0.17057 0.94701 0.0
H332 H 0.49135 0.17859 0.95062 0.0
H333 H 0.64791 0.1708 0.14401 0.0
H334 H 0.58573 0.16536 0.9471 0.0
H335 H 0.54453 0.1673 0.14679 0.0
C336 C 0.50226 0.1751 0.10413 0.0
C337 C 0.48703 0.17898 0.04908 0.0
C338 C 0.59917 0.16618 0.99029 0.0
C339 C 0.54816 0.16799 0.0479 0.0
C340 C 0.63425 0.16909 0.99027 0.0
C341 C 0.65292 0.17168 0.04562 0.0
C342 C 0.58281 0.16603 0.04603 0.0
C343 C 0.63469 0.16931 0.10028 0.0
C344 C 0.53275 0.16954 0.10373 0.0
C345 C 0.50247 0.17611 0.99417 0.0
N346 N 0.60078 0.16702 0.09911 0.0
N347 N 0.5324 0.17105 0.995 0.0
H348 H 0.47304 0.65237 0.92919 0.0
H349 H 0.31959 0.4896 0.13335 0.0
H350 H 0.47748 0.65366 0.12614 0.0
H351 H 0.31257 0.48965 0.93667 0.0
H352 H 0.38327 0.54401 0.13048 0.0
H353 H 0.42025 0.58754 0.93013 0.0
C354 C 0.46319 0.63889 0.97261 0.0
C355 C 0.47919 0.65865 0.02771 0.0
C356 C 0.36798 0.53187 0.08789 0.0
C357 C 0.41881 0.58462 0.0291 0.0
C358 C 0.33161 0.50078 0.0895 0.0
C359 C 0.3105 0.48555 0.03522 0.0
C360 C 0.38323 0.54797 0.03165 0.0
C361 C 0.32766 0.50085 0.97968 0.0
C362 C 0.43306 0.60187 0.97311 0.0
C363 C 0.4656 0.63967 0.08258 0.0
N364 N 0.36288 0.53158 0.97938 0.0
N365 N 0.43588 0.60384 0.08189 0.0
H366 H 0.78229 0.47336 0.94517 0.0
H367 H 0.79176 0.31977 0.14969 0.0
H368 H 0.78237 0.47523 0.14217 0.0
H369 H 0.79263 0.31875 0.95273 0.0
H370 H 0.79488 0.38035 0.14827 0.0
H371 H 0.79188 0.41986 0.94741 0.0
C372 C 0.78443 0.46258 0.98891 0.0
C373 C 0.78115 0.47849 0.04356 0.0
C374 C 0.79473 0.36702 0.10539 0.0
C375 C 0.79217 0.41736 0.04645 0.0
C376 C 0.79301 0.33248 0.10617 0.0
C377 C 0.79146 0.31401 0.05121 0.0
C378 C 0.79474 0.38306 0.04926 0.0
C379 C 0.79341 0.33185 0.99618 0.0
C380 C 0.79 0.4321 0.99016 0.0
C381 C 0.78445 0.46361 0.09892 0.0
N382 N 0.79459 0.36525 0.99661 0.0
N383 N 0.78954 0.43369 0.09893 0.0
H384 H 0.30833 0.8048 0.13159 0.0
H385 H 0.46422 0.79815 0.93064 0.0
H386 H 0.3071 0.80384 0.93457 0.0
H387 H 0.46424 0.79686 0.12758 0.0
H388 H 0.41062 0.80758 0.93147 0.0
H389 H 0.36983 0.81003 0.13128 0.0
C390 C 0.32118 0.80612 0.08827 0.0
C391 C 0.30236 0.80333 0.033 0.0
C392 C 0.42249 0.80547 0.97452 0.0
C393 C 0.37249 0.80901 0.03233 0.0
C394 C 0.45303 0.79999 0.97407 0.0
C395 C 0.46839 0.79626 0.02911 0.0
C396 C 0.40716 0.80711 0.03039 0.0
C397 C 0.45303 0.79923 0.08405 0.0
C398 C 0.35626 0.80904 0.08813 0.0
C399 C 0.32045 0.80549 0.97826 0.0
N400 N 0.42305 0.80421 0.08326 0.0
N401 N 0.35437 0.80781 0.97931 0.0
H402 H 0.63594 0.48588 0.94572 0.0
H403 H 0.48219 0.32289 0.14917 0.0
H404 H 0.64258 0.48569 0.14243 0.0
H405 H 0.47812 0.32173 0.95221 0.0
H406 H 0.53492 0.38775 0.14846 0.0
H407 H 0.57225 0.43145 0.94829 0.0
C408 C 0.62383 0.47466 0.98952 0.0
C409 C 0.64484 0.48986 0.04389 0.0
C410 C 0.52221 0.37344 0.10542 0.0
C411 C 0.57211 0.42742 0.04711 0.0
C412 C 0.49212 0.3364 0.10579 0.0
C413 C 0.47623 0.31667 0.05063 0.0
C414 C 0.53655 0.39074 0.0495 0.0
C415 C 0.48991 0.3357 0.99581 0.0
C416 C 0.58746 0.44357 0.99095 0.0
C417 C 0.62757 0.47452 0.09934 0.0
N418 N 0.51959 0.37154 0.99664 0.0
N419 N 0.59235 0.44378 0.09948 0.0
H420 H 0.13078 0.36899 0.68678 0.0
H421 H 0.25762 0.44413 0.39018 0.0
H422 H 0.25198 0.43859 0.69384 0.0
H423 H 0.13645 0.37406 0.38321 0.0
H424 H 0.25618 0.44218 0.50145 0.0
H425 H 0.13227 0.37085 0.57552 0.0
C426 C 0.1577 0.38482 0.66497 0.0
C427 C 0.19131 0.40367 0.69982 0.0
C428 C 0.22989 0.42724 0.47558 0.0
C429 C 0.19325 0.40561 0.57226 0.0
C430 C 0.23071 0.42817 0.412 0.0
C431 C 0.1971 0.40924 0.37718 0.0
C432 C 0.19521 0.40719 0.50474 0.0
C433 C 0.16303 0.38951 0.40811 0.0
C434 C 0.15855 0.3857 0.60139 0.0
C435 C 0.2254 0.42323 0.66891 0.0
N436 N 0.16297 0.38898 0.47005 0.0
N437 N 0.22549 0.42373 0.60697 0.0
H438 H 0.78619 0.26205 0.70359 0.0
H439 H 0.74729 0.14142 0.39445 0.0
H440 H 0.74777 0.14326 0.6985 0.0
H441 H 0.78525 0.26011 0.39956 0.0
H442 H 0.74701 0.14146 0.50579 0.0
H443 H 0.78639 0.26198 0.59225 0.0
C444 C 0.77799 0.23598 0.67909 0.0
C445 C 0.76699 0.20261 0.71054 0.0
C446 C 0.7554 0.16751 0.48258 0.0
C447 C 0.76679 0.20225 0.58286 0.0
C448 C 0.75536 0.16746 0.41895 0.0
C449 C 0.76627 0.20081 0.38751 0.0
C450 C 0.76639 0.20115 0.51519 0.0
C451 C 0.77708 0.23384 0.42181 0.0
C452 C 0.77791 0.23591 0.61546 0.0
C453 C 0.75603 0.16954 0.67624 0.0
N454 N 0.77682 0.23316 0.48374 0.0
N455 N 0.75625 0.17022 0.61431 0.0
H456 H 0.52139 0.71339 0.68024 0.0
H457 H 0.59473 0.83709 0.37986 0.0
H458 H 0.59273 0.83451 0.68366 0.0
H459 H 0.52349 0.71596 0.37634 0.0
H460 H 0.59409 0.83672 0.49117 0.0
H461 H 0.52213 0.71371 0.56892 0.0
C462 C 0.53739 0.74005 0.65762 0.0
C463 C 0.55706 0.77398 0.69146 0.0
C464 C 0.5786 0.81021 0.46607 0.0
C465 C 0.5577 0.77458 0.56382 0.0
C466 C 0.57878 0.81041 0.40246 0.0
C467 C 0.55909 0.7765 0.3686 0.0
C468 C 0.55856 0.77584 0.49623 0.0
C469 C 0.53945 0.74274 0.4005 0.0
C470 C 0.53762 0.74023 0.594 0.0
C471 C 0.57677 0.80772 0.65952 0.0
N472 N 0.53964 0.74329 0.46247 0.0
N473 N 0.57662 0.80715 0.59756 0.0
H474 H 0.77262 0.52151 0.69211 0.0
H475 H 0.74956 0.61589 0.39008 0.0
H476 H 0.74469 0.60889 0.69369 0.0
H477 H 0.77693 0.5281 0.38852 0.0
H478 H 0.74744 0.6136 0.50127 0.0
H479 H 0.77452 0.52366 0.58091 0.0
C480 C 0.76703 0.54127 0.66911 0.0
C481 C 0.75854 0.5651 0.7024 0.0
C482 C 0.75393 0.59485 0.47663 0.0
C483 C 0.76036 0.56749 0.57486 0.0
C484 C 0.75497 0.59601 0.41308 0.0
C485 C 0.7634 0.57212 0.3798 0.0
C486 C 0.76133 0.56958 0.50732 0.0
C487 C 0.77078 0.54738 0.41224 0.0
C488 C 0.76794 0.54235 0.60555 0.0
C489 C 0.75092 0.58968 0.66996 0.0
N490 N 0.76951 0.54672 0.47412 0.0
N491 N 0.75209 0.59028 0.60806 0.0
H492 H 0.24966 0.79607 0.37975 0.0
H493 H 0.1276 0.75077 0.68097 0.0
H494 H 0.12988 0.75241 0.37711 0.0
H495 H 0.24745 0.79484 0.68367 0.0
H496 H 0.12781 0.75077 0.56962 0.0
H497 H 0.24947 0.79612 0.4911 0.0
C498 C 0.22334 0.78669 0.40256 0.0
C499 C 0.18973 0.77424 0.36893 0.0
C500 C 0.15407 0.76045 0.59455 0.0
C501 C 0.18925 0.77385 0.49658 0.0
C502 C 0.15394 0.76025 0.65816 0.0
C503 C 0.18756 0.77279 0.69181 0.0
C504 C 0.18807 0.77324 0.56417 0.0
C505 C 0.22094 0.78536 0.65969 0.0
C506 C 0.22322 0.78652 0.46618 0.0
C507 C 0.15638 0.7618 0.40106 0.0
N508 N 0.22033 0.78522 0.59773 0.0
N509 N 0.157 0.76196 0.46303 0.0
H510 H 0.36081 0.13827 0.6983 0.0
H511 H 0.43407 0.26189 0.39784 0.0
H512 H 0.43204 0.2594 0.70175 0.0
H513 H 0.36273 0.14077 0.3945 0.0
H514 H 0.43337 0.2616 0.50916 0.0
H515 H 0.36143 0.13861 0.58699 0.0
C516 C 0.37676 0.16494 0.67568 0.0
C517 C 0.39645 0.19886 0.70953 0.0
C518 C 0.41787 0.23508 0.4841 0.0
C519 C 0.39696 0.19949 0.58189 0.0
C520 C 0.41808 0.23524 0.42048 0.0
C521 C 0.3984 0.2013 0.38667 0.0
C522 C 0.3978 0.20073 0.51431 0.0
C523 C 0.3787 0.16757 0.41862 0.0
C524 C 0.37692 0.16513 0.61207 0.0
C525 C 0.41609 0.23261 0.67761 0.0
N526 N 0.37887 0.16816 0.48059 0.0
N527 N 0.41588 0.23205 0.61564 0.0
loop_
_geom_bond_atom_site_label_1
_geom_bond_atom_site_label_2
_geom_bond_distance
_geom_bond_site_symmetry_2
_ccdc_geom_bond_type
C0 O16 1.251 . S
C0 O18 1.254 1_554 S
N1 C2 1.333 . S
N1 C6 1.307 . S
N1 Zn7 2.020 . S
C2 N1 1.333 . S
C2 C3 1.379 . S
C2 H20 0.952 . S
C3 C2 1.379 . S
C3 C4 1.390 . S
C3 H30 0.949 . S
C4 C3 1.390 . S
C4 C5 1.357 . S
C5 C4 1.357 . S
C5 C6 1.370 . S
C5 H31 0.950 . S
C6 N1 1.307 . S
C6 C5 1.370 . S
C6 H24 0.948 . S
Zn7 N1 2.020 . S
Zn7 O16 2.039 . S
Zn7 O22 2.034 . S
Zn7 O26 2.025 . S
Zn7 O28 2.024 . S
C8 O27 1.246 1_554 S
C8 O28 1.249 . S
N9 C10 1.307 . S
N9 C11 1.333 . S
N9 Zn15 2.020 . S
C10 N9 1.307 . S
C10 C14 1.370 . S
C10 H21 0.948 . S
C11 N9 1.333 . S
C11 C12 1.379 . S
C11 H19 0.952 . S
C12 C11 1.379 . S
C12 C13 1.390 . S
C12 H32 0.949 . S
C13 C12 1.390 . S
C13 C14 1.357 . S
C14 C10 1.370 . S
C14 C13 1.357 . S
C14 H33 0.950 . S
Zn15 N9 2.020 . S
Zn15 O18 2.025 . S
Zn15 O23 2.024 . S
Zn15 O25 2.039 . S
Zn15 O27 2.034 . S
O16 C0 1.251 . S
O16 Zn7 2.039 . S
C17 O22 1.246 . S
C17 O23 1.249 1_554 S
O18 C0 1.254 1_556 S
O18 Zn15 2.025 . S
H19 C11 0.952 . S
H20 C2 0.952 . S
H21 C10 0.948 . S
O22 Zn7 2.034 . S
O22 C17 1.246 . S
O23 Zn15 2.024 . S
O23 C17 1.249 1_556 S
H24 C6 0.948 . S
O25 Zn15 2.039 . S
O25 C29 1.251 1_556 S
O26 Zn7 2.025 . S
O26 C29 1.254 . S
O27 C8 1.246 1_556 S
O27 Zn15 2.034 . S
O28 Zn7 2.024 . S
O28 C8 1.249 . S
C29 O25 1.251 1_554 S
C29 O26 1.254 . S
H30 C3 0.949 . S
H31 C5 0.950 . S
H32 C12 0.949 . S
H33 C14 0.950 . S
C34 O50 1.251 1_554 S
C34 O52 1.254 . S
N35 C36 1.333 . S
N35 C40 1.307 . S
N35 Zn41 2.020 . S
C36 N35 1.333 . S
C36 C37 1.379 . S
C36 H54 0.952 . S
C37 C36 1.379 . S
C37 C38 1.390 . S
C37 H64 0.949 . S
C38 C37 1.390 . S
C38 C39 1.357 . S
C39 C38 1.357 . S
C39 C40 1.370 . S
C39 H65 0.950 . S
C40 N35 1.307 . S
C40 C39 1.370 . S
C40 H58 0.948 . S
Zn41 N35 2.020 . S
Zn41 O50 2.039 . S
Zn41 O56 2.034 . S
Zn41 O60 2.025 . S
Zn41 O62 2.024 . S
C42 O61 1.246 . S
C42 O62 1.249 1_554 S
N43 C44 1.307 . S
N43 C45 1.333 . S
N43 Zn49 2.020 . S
C44 N43 1.307 . S
C44 C48 1.370 . S
C44 H55 0.948 . S
C45 N43 1.333 . S
C45 C46 1.379 . S
C45 H53 0.952 . S
C46 C45 1.379 . S
C46 C47 1.390 . S
C46 H66 0.949 . S
C47 C46 1.390 . S
C47 C48 1.357 . S
C48 C44 1.370 . S
C48 C47 1.357 . S
C48 H67 0.950 . S
Zn49 N43 2.020 . S
Zn49 O52 2.025 . S
Zn49 O57 2.024 . S
Zn49 O59 2.039 . S
Zn49 O61 2.034 . S
O50 C34 1.251 1_556 S
O50 Zn41 2.039 . S
C51 O56 1.246 1_554 S
C51 O57 1.249 . S
O52 C34 1.254 . S
O52 Zn49 2.025 . S
H53 C45 0.952 . S
H54 C36 0.952 . S
H55 C44 0.948 . S
O56 Zn41 2.034 . S
O56 C51 1.246 1_556 S
O57 Zn49 2.024 . S
O57 C51 1.249 . S
H58 C40 0.948 . S
O59 Zn49 2.039 . S
O59 C63 1.251 . S
O60 Zn41 2.025 . S
O60 C63 1.254 1_556 S
O61 C42 1.246 . S
O61 Zn49 2.034 . S
O62 Zn41 2.024 . S
O62 C42 1.249 1_556 S
C63 O59 1.251 . S
C63 O60 1.254 1_554 S
H64 C37 0.949 . S
H65 C39 0.950 . S
H66 C46 0.949 . S
H67 C48 0.950 . S
C68 O84 1.251 . S
C68 O86 1.254 1_554 S
N69 C70 1.333 . S
N69 C74 1.307 . S
N69 Zn75 2.020 . S
C70 N69 1.333 . S
C70 C71 1.379 . S
C70 H88 0.952 . S
C71 C70 1.379 . S
C71 C72 1.390 . S
C71 H98 0.949 . S
C72 C71 1.390 . S
C72 C73 1.357 . S
C73 C72 1.357 . S
C73 C74 1.370 . S
C73 H99 0.950 . S
C74 N69 1.307 . S
C74 C73 1.370 . S
C74 H92 0.948 . S
Zn75 N69 2.020 . S
Zn75 O84 2.039 . S
Zn75 O90 2.034 . S
Zn75 O94 2.025 . S
Zn75 O96 2.024 . S
C76 O95 1.246 1_554 S
C76 O96 1.249 . S
N77 C78 1.307 . S
N77 C79 1.333 . S
N77 Zn83 2.020 . S
C78 N77 1.307 . S
C78 C82 1.370 . S
C78 H89 0.948 . S
C79 N77 1.333 . S
C79 C80 1.379 . S
C79 H87 0.952 . S
C80 C79 1.379 . S
C80 C81 1.390 . S
C80 H100 0.949 . S
C81 C80 1.390 . S
C81 C82 1.357 . S
C82 C78 1.370 . S
C82 C81 1.357 . S
C82 H101 0.950 . S
Zn83 N77 2.020 . S
Zn83 O86 2.025 . S
Zn83 O91 2.024 . S
Zn83 O93 2.039 . S
Zn83 O95 2.034 . S
O84 C68 1.251 . S
O84 Zn75 2.039 . S
C85 O90 1.246 . S
C85 O91 1.249 1_554 S
O86 C68 1.254 1_556 S
O86 Zn83 2.025 . S
H87 C79 0.952 . S
H88 C70 0.952 . S
H89 C78 0.948 . S
O90 Zn75 2.034 . S
O90 C85 1.246 . S
O91 Zn83 2.024 . S
O91 C85 1.249 1_556 S
H92 C74 0.948 . S
O93 Zn83 2.039 . S
O93 C97 1.251 1_556 S
O94 Zn75 2.025 . S
O94 C97 1.254 . S
O95 C76 1.246 1_556 S
O95 Zn83 2.034 . S
O96 Zn75 2.024 . S
O96 C76 1.249 . S
C97 O93 1.251 1_554 S
C97 O94 1.254 . S
H98 C71 0.949 . S
H99 C73 0.950 . S
H100 C80 0.949 . S
H101 C82 0.950 . S
C102 O118 1.251 1_554 S
C102 O120 1.254 . S
N103 C104 1.333 . S
N103 C108 1.307 . S
N103 Zn109 2.020 . S
C104 N103 1.333 . S
C104 C105 1.379 . S
C104 H122 0.952 . S
C105 C104 1.379 . S
C105 C106 1.390 . S
C105 H132 0.949 . S
C106 C105 1.390 . S
C106 C107 1.357 . S
C107 C106 1.357 . S
C107 C108 1.370 . S
C107 H133 0.950 . S
C108 N103 1.307 . S
C108 C107 1.370 . S
C108 H126 0.948 . S
Zn109 N103 2.020 . S
Zn109 O118 2.039 . S
Zn109 O124 2.034 . S
Zn109 O128 2.025 . S
Zn109 O130 2.024 . S
C110 O129 1.246 . S
C110 O130 1.249 1_554 S
N111 C112 1.307 . S
N111 C113 1.333 . S
N111 Zn117 2.020 . S
C112 N111 1.307 . S
C112 C116 1.370 . S
C112 H123 0.948 . S
C113 N111 1.333 . S
C113 C114 1.379 . S
C113 H121 0.952 . S
C114 C113 1.379 . S
C114 C115 1.390 . S
C114 H134 0.949 . S
C115 C114 1.390 . S
C115 C116 1.357 . S
C116 C112 1.370 . S
C116 C115 1.357 . S
C116 H135 0.950 . S
Zn117 N111 2.020 . S
Zn117 O120 2.025 . S
Zn117 O125 2.024 . S
Zn117 O127 2.039 . S
Zn117 O129 2.034 . S
O118 C102 1.251 1_556 S
O118 Zn109 2.039 . S
C119 O124 1.246 1_554 S
C119 O125 1.249 . S
O120 C102 1.254 . S
O120 Zn117 2.025 . S
H121 C113 0.952 . S
H122 C104 0.952 . S
H123 C112 0.948 . S
O124 Zn109 2.034 . S
O124 C119 1.246 1_556 S
O125 Zn117 2.024 . S
O125 C119 1.249 . S
H126 C108 0.948 . S
O127 Zn117 2.039 . S
O127 C131 1.251 . S
O128 Zn109 2.025 . S
O128 C131 1.254 1_556 S
O129 C110 1.246 . S
O129 Zn117 2.034 . S
O130 Zn109 2.024 . S
O130 C110 1.249 1_556 S
C131 O127 1.251 . S
C131 O128 1.254 1_554 S
H132 C105 0.949 . S
H133 C107 0.950 . S
H134 C114 0.949 . S
H135 C116 0.950 . S
C136 O152 1.251 1_554 S
C136 O154 1.254 . S
N137 C138 1.333 . S
N137 C142 1.307 . S
N137 Zn143 2.020 . S
C138 N137 1.333 . S
C138 C139 1.379 . S
C138 H156 0.952 . S
C139 C138 1.379 . S
C139 C140 1.390 . S
C139 H166 0.949 . S
C140 C139 1.390 . S
C140 C141 1.357 . S
C141 C140 1.357 . S
C141 C142 1.370 . S
C141 H167 0.950 . S
C142 N137 1.307 . S
C142 C141 1.370 . S
C142 H160 0.948 . S
Zn143 N137 2.020 . S
Zn143 O152 2.039 . S
Zn143 O158 2.034 . S
Zn143 O162 2.025 . S
Zn143 O164 2.024 . S
C144 O163 1.246 . S
C144 O164 1.249 1_554 S
N145 C146 1.307 . S
N145 C147 1.333 . S
N145 Zn151 2.020 . S
C146 N145 1.307 . S
C146 C150 1.370 . S
C146 H157 0.948 . S
C147 N145 1.333 . S
C147 C148 1.379 . S
C147 H155 0.952 . S
C148 C147 1.379 . S
C148 C149 1.390 . S
C148 H168 0.949 . S
C149 C148 1.390 . S
C149 C150 1.357 . S
C150 C146 1.370 . S
C150 C149 1.357 . S
C150 H169 0.950 . S
Zn151 N145 2.020 . S
Zn151 O154 2.025 . S
Zn151 O159 2.024 . S
Zn151 O161 2.039 . S
Zn151 O163 2.034 . S
O152 C136 1.251 1_556 S
O152 Zn143 2.039 . S
C153 O158 1.246 1_554 S
C153 O159 1.249 . S
O154 C136 1.254 . S
O154 Zn151 2.025 . S
H155 C147 0.952 . S
H156 C138 0.952 . S
H157 C146 0.948 . S
O158 Zn143 2.034 . S
O158 C153 1.246 1_556 S
O159 Zn151 2.024 . S
O159 C153 1.249 . S
H160 C142 0.948 . S
O161 Zn151 2.039 . S
O161 C165 1.251 . S
O162 Zn143 2.025 . S
O162 C165 1.254 1_556 S
O163 C144 1.246 . S
O163 Zn151 2.034 . S
O164 Zn143 2.024 . S
O164 C144 1.249 1_556 S
C165 O161 1.251 . S
C165 O162 1.254 1_554 S
H166 C139 0.949 . S
H167 C141 0.950 . S
H168 C148 0.949 . S
H169 C150 0.950 . S
C170 O186 1.251 . S
C170 O188 1.254 1_554 S
N171 C172 1.333 . S
N171 C176 1.307 . S
N171 Zn177 2.020 . S
C172 N171 1.333 . S
C172 C173 1.379 . S
C172 H190 0.952 . S
C173 C172 1.379 . S
C173 C174 1.390 . S
C173 H200 0.949 . S
C174 C173 1.390 . S
C174 C175 1.357 . S
C175 C174 1.357 . S
C175 C176 1.370 . S
C175 H201 0.950 . S
C176 N171 1.307 . S
C176 C175 1.370 . S
C176 H194 0.948 . S
Zn177 N171 2.020 . S
Zn177 O186 2.039 . S
Zn177 O192 2.034 . S
Zn177 O196 2.025 . S
Zn177 O198 2.024 . S
C178 O197 1.246 1_554 S
C178 O198 1.249 . S
N179 C180 1.307 . S
N179 C181 1.333 . S
N179 Zn185 2.020 . S
C180 N179 1.307 . S
C180 C184 1.370 . S
C180 H191 0.948 . S
C181 N179 1.333 . S
C181 C182 1.379 . S
C181 H189 0.952 . S
C182 C181 1.379 . S
C182 C183 1.390 . S
C182 H202 0.949 . S
C183 C182 1.390 . S
C183 C184 1.357 . S
C184 C180 1.370 . S
C184 C183 1.357 . S
C184 H203 0.950 . S
Zn185 N179 2.020 . S
Zn185 O188 2.025 . S
Zn185 O193 2.024 . S
Zn185 O195 2.039 . S
Zn185 O197 2.034 . S
O186 C170 1.251 . S
O186 Zn177 2.039 . S
C187 O192 1.246 . S
C187 O193 1.249 1_554 S
O188 C170 1.254 1_556 S
O188 Zn185 2.025 . S
H189 C181 0.952 . S
H190 C172 0.952 . S
H191 C180 0.948 . S
O192 Zn177 2.034 . S
O192 C187 1.246 . S
O193 Zn185 2.024 . S
O193 C187 1.249 1_556 S
H194 C176 0.948 . S
O195 Zn185 2.039 . S
O195 C199 1.251 1_556 S
O196 Zn177 2.025 . S
O196 C199 1.254 . S
O197 C178 1.246 1_556 S
O197 Zn185 2.034 . S
O198 Zn177 2.024 . S
O198 C178 1.249 . S
C199 O195 1.251 1_554 S
C199 O196 1.254 . S
H200 C173 0.949 . S
H201 C175 0.950 . S
H202 C182 0.949 . S
H203 C184 0.950 . S
H204 C210 0.930 . S
H205 C214 0.930 . S
H206 C219 0.929 . S
H207 C217 0.929 . S
H208 C212 0.929 . S
H209 C218 0.929 . S
C210 H204 0.930 . S
C210 C211 1.367 . S
C210 C218 1.378 . S
C211 C210 1.367 . S
C211 C219 1.433 1_554 S
C212 H208 0.929 . S
C212 C214 1.378 . S
C212 C216 1.350 1_556 S
C213 C216 1.463 . S
C213 C218 1.350 . S
C213 N221 1.427 1_554 S
C214 H205 0.930 . S
C214 C212 1.378 . S
C214 C215 1.367 1_556 S
C215 C214 1.367 1_554 S
C215 C217 1.433 . S
C216 C212 1.350 1_554 S
C216 C213 1.463 . S
C216 N220 1.427 . S
C217 H207 0.929 . S
C217 C215 1.433 . S
C217 N220 1.384 . S
C218 H209 0.929 . S
C218 C210 1.378 . S
C218 C213 1.350 . S
C219 H206 0.929 . S
C219 C211 1.433 1_556 S
C219 N221 1.384 . S
N220 C216 1.427 . S
N220 C217 1.384 . S
N221 C213 1.427 1_556 S
N221 C219 1.384 . S
H222 C228 0.930 . S
H223 C232 0.930 . S
H224 C237 0.929 . S
H225 C235 0.929 . S
H226 C230 0.929 . S
H227 C236 0.929 . S
C228 H222 0.930 . S
C228 C229 1.367 . S
C228 C236 1.378 . S
C229 C228 1.367 . S
C229 C237 1.433 . S
C230 H226 0.929 . S
C230 C232 1.378 . S
C230 C234 1.350 . S
C231 C234 1.463 1_455 S
C231 C236 1.350 . S
C231 N239 1.427 . S
C232 H223 0.930 . S
C232 C230 1.378 . S
C232 C233 1.367 . S
C233 C232 1.367 . S
C233 C235 1.433 . S
C234 C230 1.350 . S
C234 C231 1.463 1_655 S
C234 N238 1.427 . S
C235 H225 0.929 . S
C235 C233 1.433 . S
C235 N238 1.384 . S
C236 H227 0.929 . S
C236 C228 1.378 . S
C236 C231 1.350 . S
C237 H224 0.929 . S
C237 C229 1.433 . S
C237 N239 1.384 . S
N238 C234 1.427 . S
N238 C235 1.384 . S
N239 C231 1.427 . S
N239 C237 1.384 . S
H240 C246 0.930 . S
H241 C250 0.930 . S
H242 C255 0.929 . S
H243 C253 0.929 . S
H244 C248 0.929 . S
H245 C254 0.929 . S
C246 H240 0.930 . S
C246 C247 1.367 . S
C246 C254 1.378 . S
C247 C246 1.367 . S
C247 C255 1.433 1_554 S
C248 H244 0.929 . S
C248 C250 1.378 . S
C248 C252 1.350 1_556 S
C249 C252 1.463 1_545 S
C249 C254 1.350 . S
C249 N257 1.427 1_554 S
C250 H241 0.930 . S
C250 C248 1.378 . S
C250 C251 1.367 1_556 S
C251 C250 1.367 1_554 S
C251 C253 1.433 . S
C252 C248 1.350 1_554 S
C252 C249 1.463 1_565 S
C252 N256 1.427 . S
C253 H243 0.929 . S
C253 C251 1.433 . S
C253 N256 1.384 . S
C254 H245 0.929 . S
C254 C246 1.378 . S
C254 C249 1.350 . S
C255 H242 0.929 . S
C255 C247 1.433 1_556 S
C255 N257 1.384 . S
N256 C252 1.427 . S
N256 C253 1.384 . S
N257 C249 1.427 1_556 S
N257 C255 1.384 . S
H258 C264 0.930 . S
H259 C268 0.930 . S
H260 C273 0.929 . S
H261 C271 0.929 . S
H262 C266 0.929 . S
H263 C272 0.929 . S
C264 H258 0.930 . S
C264 C265 1.367 . S
C264 C272 1.378 . S
C265 C264 1.367 . S
C265 C273 1.433 1_554 S
C266 H262 0.929 . S
C266 C268 1.378 . S
C266 C270 1.350 1_556 S
C267 C270 1.463 . S
C267 C272 1.350 . S
C267 N275 1.427 1_554 S
C268 H259 0.930 . S
C268 C266 1.378 . S
C268 C269 1.367 1_556 S
C269 C268 1.367 1_554 S
C269 C271 1.433 . S
C270 C266 1.350 1_554 S
C270 C267 1.463 . S
C270 N274 1.427 . S
C271 H261 0.929 . S
C271 C269 1.433 . S
C271 N274 1.384 . S
C272 H263 0.929 . S
C272 C264 1.378 . S
C272 C267 1.350 . S
C273 H260 0.929 . S
C273 C265 1.433 1_556 S
C273 N275 1.384 . S
N274 C270 1.427 . S
N274 C271 1.384 . S
N275 C267 1.427 1_556 S
N275 C273 1.384 . S
H276 C282 0.930 . S
H277 C286 0.930 . S
H278 C291 0.929 . S
H279 C289 0.929 . S
H280 C284 0.929 . S
H281 C290 0.929 . S
C282 H276 0.930 . S
C282 C283 1.367 . S
C282 C290 1.378 . S
C283 C282 1.367 . S
C283 C291 1.433 . S
C284 H280 0.929 . S
C284 C286 1.378 . S
C284 C288 1.350 . S
C285 C288 1.463 1_455 S
C285 C290 1.350 . S
C285 N293 1.427 . S
C286 H277 0.930 . S
C286 C284 1.378 . S
C286 C287 1.367 . S
C287 C286 1.367 . S
C287 C289 1.433 . S
C288 C284 1.350 . S
C288 C285 1.463 1_655 S
C288 N292 1.427 . S
C289 H279 0.929 . S
C289 C287 1.433 . S
C289 N292 1.384 . S
C290 H281 0.929 . S
C290 C282 1.378 . S
C290 C285 1.350 . S
C291 H278 0.929 . S
C291 C283 1.433 . S
C291 N293 1.384 . S
N292 C288 1.427 . S
N292 C289 1.384 . S
N293 C285 1.427 . S
N293 C291 1.384 . S
H294 C300 0.930 . S
H295 C304 0.930 . S
H296 C309 0.929 . S
H297 C307 0.929 . S
H298 C302 0.929 . S
H299 C308 0.929 . S
C300 H294 0.930 . S
C300 C301 1.367 1_556 S
C300 C308 1.378 . S
C301 C300 1.367 1_554 S
C301 C309 1.433 . S
C302 H298 0.929 . S
C302 C304 1.378 . S
C302 C306 1.350 . S
C303 C306 1.463 1_565 S
C303 C308 1.350 1_554 S
C303 N311 1.427 . S
C304 H295 0.930 . S
C304 C302 1.378 . S
C304 C305 1.367 . S
C305 C304 1.367 . S
C305 C307 1.433 1_554 S
C306 C302 1.350 . S
C306 C303 1.463 1_545 S
C306 N310 1.427 1_554 S
C307 H297 0.929 . S
C307 C305 1.433 1_556 S
C307 N310 1.384 . S
C308 H299 0.929 . S
C308 C300 1.378 . S
C308 C303 1.350 1_556 S
C309 H296 0.929 . S
C309 C301 1.433 . S
C309 N311 1.384 . S
N310 C306 1.427 1_556 S
N310 C307 1.384 . S
N311 C303 1.427 . S
N311 C309 1.384 . S
H312 C318 0.930 . S
H313 C322 0.930 . S
H314 C327 0.929 . S
H315 C325 0.929 . S
H316 C320 0.929 . S
H317 C326 0.929 . S
C318 H312 0.930 . S
C318 C319 1.367 1_556 S
C318 C326 1.378 . S
C319 C318 1.367 1_554 S
C319 C327 1.433 . S
C320 H316 0.929 . S
C320 C322 1.378 . S
C320 C324 1.350 . S
C321 C324 1.463 . S
C321 C326 1.350 1_554 S
C321 N329 1.427 . S
C322 H313 0.930 . S
C322 C320 1.378 . S
C322 C323 1.367 . S
C323 C322 1.367 . S
C323 C325 1.433 1_554 S
C324 C320 1.350 . S
C324 C321 1.463 . S
C324 N328 1.427 1_554 S
C325 H315 0.929 . S
C325 C323 1.433 1_556 S
C325 N328 1.384 . S
C326 H317 0.929 . S
C326 C318 1.378 . S
C326 C321 1.350 1_556 S
C327 H314 0.929 . S
C327 C319 1.433 . S
C327 N329 1.384 . S
N328 C324 1.427 1_556 S
N328 C325 1.384 . S
N329 C321 1.427 . S
N329 C327 1.384 . S
H330 C336 0.930 . S
H331 C340 0.930 1_556 S
H332 C345 0.929 . S
H333 C343 0.929 . S
H334 C338 0.929 1_556 S
H335 C344 0.929 . S
C336 H330 0.930 . S
C336 C337 1.367 . S
C336 C344 1.378 . S
C337 C336 1.367 . S
C337 C345 1.433 1_554 S
C338 H334 0.929 1_554 S
C338 C340 1.378 . S
C338 C342 1.350 . S
C339 C342 1.463 . S
C339 C344 1.350 . S
C339 N347 1.427 1_554 S
C340 H331 0.930 1_554 S
C340 C338 1.378 . S
C340 C341 1.367 . S
C341 C340 1.367 . S
C341 C343 1.433 . S
C342 C338 1.350 . S
C342 C339 1.463 . S
C342 N346 1.427 . S
C343 H333 0.929 . S
C343 C341 1.433 . S
C343 N346 1.384 . S
C344 H335 0.929 . S
C344 C336 1.378 . S
C344 C339 1.350 . S
C345 H332 0.929 . S
C345 C337 1.433 1_556 S
C345 N347 1.384 . S
N346 C342 1.427 . S
N346 C343 1.384 . S
N347 C339 1.427 1_556 S
N347 C345 1.384 . S
H348 C354 0.930 . S
H349 C358 0.930 . S
H350 C363 0.929 . S
H351 C361 0.929 . S
H352 C356 0.929 . S
H353 C362 0.929 . S
C354 H348 0.930 . S
C354 C355 1.367 1_556 S
C354 C362 1.378 . S
C355 C354 1.367 1_554 S
C355 C363 1.433 . S
C356 H352 0.929 . S
C356 C358 1.378 . S
C356 C360 1.350 . S
C357 C360 1.463 . S
C357 C362 1.350 1_554 S
C357 N365 1.427 . S
C358 H349 0.930 . S
C358 C356 1.378 . S
C358 C359 1.367 . S
C359 C358 1.367 . S
C359 C361 1.433 1_554 S
C360 C356 1.350 . S
C360 C357 1.463 . S
C360 N364 1.427 1_554 S
C361 H351 0.929 . S
C361 C359 1.433 1_556 S
C361 N364 1.384 . S
C362 H353 0.929 . S
C362 C354 1.378 . S
C362 C357 1.350 1_556 S
C363 H350 0.929 . S
C363 C355 1.433 . S
C363 N365 1.384 . S
N364 C360 1.427 1_556 S
N364 C361 1.384 . S
N365 C357 1.427 . S
N365 C363 1.384 . S
H366 C372 0.930 . S
H367 C376 0.930 . S
H368 C381 0.929 . S
H369 C379 0.929 . S
H370 C374 0.929 . S
H371 C380 0.929 . S
C372 H366 0.930 . S
C372 C373 1.367 1_556 S
C372 C380 1.378 . S
C373 C372 1.367 1_554 S
C373 C381 1.433 . S
C374 H370 0.929 . S
C374 C376 1.378 . S
C374 C378 1.350 . S
C375 C378 1.463 . S
C375 C380 1.350 1_554 S
C375 N383 1.427 . S
C376 H367 0.930 . S
C376 C374 1.378 . S
C376 C377 1.367 . S
C377 C376 1.367 . S
C377 C379 1.433 1_554 S
C378 C374 1.350 . S
C378 C375 1.463 . S
C378 N382 1.427 1_554 S
C379 H369 0.929 . S
C379 C377 1.433 1_556 S
C379 N382 1.384 . S
C380 H371 0.929 . S
C380 C372 1.378 . S
C380 C375 1.350 1_556 S
C381 H368 0.929 . S
C381 C373 1.433 . S
C381 N383 1.384 . S
N382 C378 1.427 1_556 S
N382 C379 1.384 . S
N383 C375 1.427 . S
N383 C381 1.384 . S
H384 C390 0.930 . S
H385 C394 0.930 . S
H386 C399 0.929 . S
H387 C397 0.929 . S
H388 C392 0.929 . S
H389 C398 0.929 . S
C390 H384 0.930 . S
C390 C391 1.367 . S
C390 C398 1.378 . S
C391 C390 1.367 . S
C391 C399 1.433 1_554 S
C392 H388 0.929 . S
C392 C394 1.378 . S
C392 C396 1.350 1_556 S
C393 C396 1.463 . S
C393 C398 1.350 . S
C393 N401 1.427 1_554 S
C394 H385 0.930 . S
C394 C392 1.378 . S
C394 C395 1.367 1_556 S
C395 C394 1.367 1_554 S
C395 C397 1.433 . S
C396 C392 1.350 1_554 S
C396 C393 1.463 . S
C396 N400 1.427 . S
C397 H387 0.929 . S
C397 C395 1.433 . S
C397 N400 1.384 . S
C398 H389 0.929 . S
C398 C390 1.378 . S
C398 C393 1.350 . S
C399 H386 0.929 . S
C399 C391 1.433 1_556 S
C399 N401 1.384 . S
N400 C396 1.427 . S
N400 C397 1.384 . S
N401 C393 1.427 1_556 S
N401 C399 1.384 . S
H402 C408 0.930 . S
H403 C412 0.930 . S
H404 C417 0.929 . S
H405 C415 0.929 . S
H406 C410 0.929 . S
H407 C416 0.929 . S
C408 H402 0.930 . S
C408 C409 1.367 1_556 S
C408 C416 1.378 . S
C409 C408 1.367 1_554 S
C409 C417 1.433 . S
C410 H406 0.929 . S
C410 C412 1.378 . S
C410 C414 1.350 . S
C411 C414 1.463 . S
C411 C416 1.350 1_554 S
C411 N419 1.427 . S
C412 H403 0.930 . S
C412 C410 1.378 . S
C412 C413 1.367 . S
C413 C412 1.367 . S
C413 C415 1.433 1_554 S
C414 C410 1.350 . S
C414 C411 1.463 . S
C414 N418 1.427 1_554 S
C415 H405 0.929 . S
C415 C413 1.433 1_556 S
C415 N418 1.384 . S
C416 H407 0.929 . S
C416 C408 1.378 . S
C416 C411 1.350 1_556 S
C417 H404 0.929 . S
C417 C409 1.433 . S
C417 N419 1.384 . S
N418 C414 1.427 1_556 S
N418 C415 1.384 . S
N419 C411 1.427 . S
N419 C417 1.384 . S
H420 C426 0.930 . S
H421 C430 0.930 . S
H422 C435 0.929 . S
H423 C433 0.929 . S
H424 C428 0.929 . S
H425 C434 0.929 . S
C426 H420 0.930 . S
C426 C427 1.367 . S
C426 C434 1.378 . S
C427 C426 1.367 . S
C427 C435 1.433 . S
C428 H424 0.929 . S
C428 C430 1.378 . S
C428 C432 1.350 . S
C429 C432 1.463 . S
C429 C434 1.350 . S
C429 N437 1.427 . S
C430 H421 0.930 . S
C430 C428 1.378 . S
C430 C431 1.367 . S
C431 C430 1.367 . S
C431 C433 1.433 . S
C432 C428 1.350 . S
C432 C429 1.463 . S
C432 N436 1.427 . S
C433 H423 0.929 . S
C433 C431 1.433 . S
C433 N436 1.384 . S
C434 H425 0.929 . S
C434 C426 1.378 . S
C434 C429 1.350 . S
C435 H422 0.929 . S
C435 C427 1.433 . S
C435 N437 1.384 . S
N436 C432 1.427 . S
N436 C433 1.384 . S
N437 C429 1.427 . S
N437 C435 1.384 . S
H438 C444 0.930 . S
H439 C448 0.930 . S
H440 C453 0.929 . S
H441 C451 0.929 . S
H442 C446 0.929 . S
H443 C452 0.929 . S
C444 H438 0.930 . S
C444 C445 1.367 . S
C444 C452 1.378 . S
C445 C444 1.367 . S
C445 C453 1.433 . S
C446 H442 0.929 . S
C446 C448 1.378 . S
C446 C450 1.350 . S
C447 C450 1.463 . S
C447 C452 1.350 . S
C447 N455 1.427 . S
C448 H439 0.930 . S
C448 C446 1.378 . S
C448 C449 1.367 . S
C449 C448 1.367 . S
C449 C451 1.433 . S
C450 C446 1.350 . S
C450 C447 1.463 . S
C450 N454 1.427 . S
C451 H441 0.929 . S
C451 C449 1.433 . S
C451 N454 1.384 . S
C452 H443 0.929 . S
C452 C444 1.378 . S
C452 C447 1.350 . S
C453 H440 0.929 . S
C453 C445 1.433 . S
C453 N455 1.384 . S
N454 C450 1.427 . S
N454 C451 1.384 . S
N455 C447 1.427 . S
N455 C453 1.384 . S
H456 C462 0.930 . S
H457 C466 0.930 . S
H458 C471 0.929 . S
H459 C469 0.929 . S
H460 C464 0.929 . S
H461 C470 0.929 . S
C462 H456 0.930 . S
C462 C463 1.367 . S
C462 C470 1.378 . S
C463 C462 1.367 . S
C463 C471 1.433 . S
C464 H460 0.929 . S
C464 C466 1.378 . S
C464 C468 1.350 . S
C465 C468 1.463 . S
C465 C470 1.350 . S
C465 N473 1.427 . S
C466 H457 0.930 . S
C466 C464 1.378 . S
C466 C467 1.367 . S
C467 C466 1.367 . S
C467 C469 1.433 . S
C468 C464 1.350 . S
C468 C465 1.463 . S
C468 N472 1.427 . S
C469 H459 0.929 . S
C469 C467 1.433 . S
C469 N472 1.384 . S
C470 H461 0.929 . S
C470 C462 1.378 . S
C470 C465 1.350 . S
C471 H458 0.929 . S
C471 C463 1.433 . S
C471 N473 1.384 . S
N472 C468 1.427 . S
N472 C469 1.384 . S
N473 C465 1.427 . S
N473 C471 1.384 . S
H474 C480 0.930 . S
H475 C484 0.930 . S
H476 C489 0.929 . S
H477 C487 0.929 . S
H478 C482 0.929 . S
H479 C488 0.929 . S
C480 H474 0.930 . S
C480 C481 1.367 . S
C480 C488 1.378 . S
C481 C480 1.367 . S
C481 C489 1.433 . S
C482 H478 0.929 . S
C482 C484 1.378 . S
C482 C486 1.350 . S
C483 C486 1.463 . S
C483 C488 1.350 . S
C483 N491 1.427 . S
C484 H475 0.930 . S
C484 C482 1.378 . S
C484 C485 1.367 . S
C485 C484 1.367 . S
C485 C487 1.433 . S
C486 C482 1.350 . S
C486 C483 1.463 . S
C486 N490 1.427 . S
C487 H477 0.929 . S
C487 C485 1.433 . S
C487 N490 1.384 . S
C488 H479 0.929 . S
C488 C480 1.378 . S
C488 C483 1.350 . S
C489 H476 0.929 . S
C489 C481 1.433 . S
C489 N491 1.384 . S
N490 C486 1.427 . S
N490 C487 1.384 . S
N491 C483 1.427 . S
N491 C489 1.384 . S
H492 C498 0.930 . S
H493 C502 0.930 . S
H494 C507 0.929 . S
H495 C505 0.929 . S
H496 C500 0.929 . S
H497 C506 0.929 . S
C498 H492 0.930 . S
C498 C499 1.367 . S
C498 C506 1.378 . S
C499 C498 1.367 . S
C499 C507 1.433 . S
C500 H496 0.929 . S
C500 C502 1.378 . S
C500 C504 1.350 . S
C501 C504 1.463 . S
C501 C506 1.350 . S
C501 N509 1.427 . S
C502 H493 0.930 . S
C502 C500 1.378 . S
C502 C503 1.367 . S
C503 C502 1.367 . S
C503 C505 1.433 . S
C504 C500 1.350 . S
C504 C501 1.463 . S
C504 N508 1.427 . S
C505 H495 0.929 . S
C505 C503 1.433 . S
C505 N508 1.384 . S
C506 H497 0.929 . S
C506 C498 1.378 . S
C506 C501 1.350 . S
C507 H494 0.929 . S
C507 C499 1.433 . S
C507 N509 1.384 . S
N508 C504 1.427 . S
N508 C505 1.384 . S
N509 C501 1.427 . S
N509 C507 1.384 . S
H510 C516 0.930 . S
H511 C520 0.930 . S
H512 C525 0.929 . S
H513 C523 0.929 . S
H514 C518 0.929 . S
H515 C524 0.929 . S
C516 H510 0.930 . S
C516 C517 1.367 . S
C516 C524 1.378 . S
C517 C516 1.367 . S
C517 C525 1.433 . S
C518 H514 0.929 . S
C518 C520 1.378 . S
C518 C522 1.350 . S
C519 C522 1.463 . S
C519 C524 1.350 . S
C519 N527 1.427 . S
C520 H511 0.930 . S
C520 C518 1.378 . S
C520 C521 1.367 . S
C521 C520 1.367 . S
C521 C523 1.433 . S
C522 C518 1.350 . S
C522 C519 1.463 . S
C522 N526 1.427 . S
C523 H513 0.929 . S
C523 C521 1.433 . S
C523 N526 1.384 . S
C524 H515 0.929 . S
C524 C516 1.378 . S
C524 C519 1.350 . S
C525 H512 0.929 . S
C525 C517 1.433 . S
C525 N527 1.384 . S
N526 C522 1.427 . S
N526 C523 1.384 . S
N527 C519 1.427 . S
N527 C525 1.384 . S
C211 C170 1.398 . S
C215 C8 1.386 . S
C229 C0 1.396 . S
C233 C34 1.386 . S
C247 C42 1.375 . S
C251 C76 1.382 . S
C265 C102 1.397 . S
C269 C68 1.391 . S
C283 C165 1.395 . S
C287 C110 1.392 . S
C301 C153 1.389 . S
C305 C178 1.377 . S
C319 C144 1.482 . S
C323 C17 1.485 . S
C337 C199 1.470 . S
C341 C63 1.474 . S
C355 C85 1.477 . S
C359 C29 1.468 . S
C373 C131 1.473 . S
C377 C51 1.476 . S
C391 C136 1.474 . S
C395 C97 1.476 . S
C409 C119 1.485 . S
C413 C187 1.485 . S
C427 C13 1.498 . S
C431 C4 1.498 . S
C445 C38 1.502 . S
C449 C47 1.502 . S
C463 C81 1.501 . S
C467 C72 1.501 . S
C481 C106 1.506 . S
C485 C115 1.506 . S
C499 C149 1.497 . S
C503 C140 1.497 . S
C517 C183 1.505 . S
C521 C174 1.505 . S
