# Generated by pormake.
# Topology wjd, (6)-cn, num edge types: 1
# Building blocks:
#     Node 0, Type 0, BuildingBlock: MIFKUJ_clean_sbu_0, # of connection points: 6
#     Node 1, Type 0, BuildingBlock: MIFKUJ_clean_sbu_0, # of connection points: 6
#     Node 2, Type 0, BuildingBlock: MIFKUJ_clean_sbu_0, # of connection points: 6
#     Node 3, Type 0, BuildingBlock: MIFKUJ_clean_sbu_0, # of connection points: 6
#     Node 4, Type 0, BuildingBlock: MIFKUJ_clean_sbu_0, # of connection points: 6
#     Node 5, Type 0, BuildingBlock: MIFKUJ_clean_sbu_0, # of connection points: 6
#     Node 6, Type 0, BuildingBlock: MIFKUJ_clean_sbu_0, # of connection points: 6
#     Node 7, Type 0, BuildingBlock: MIFKUJ_clean_sbu_0, # of connection points: 6
#     Node 8, Type 0, BuildingBlock: MIFKUJ_clean_sbu_0, # of connection points: 6
#     Node 9, Type 0, BuildingBlock: MIFKUJ_clean_sbu_0, # of connection points: 6
#     Node 10, Type 0, BuildingBlock: MIFKUJ_clean_sbu_0, # of connection points: 6
#     Node 11, Type 0, BuildingBlock: MIFKUJ_clean_sbu_0, # of connection points: 6
#     Edge 12, Type (0, 0), BuildingBlock: XIVTED_clean_linker_0, # of connection points: 2
#     Edge 13, Type (0, 0), BuildingBlock: XIVTED_clean_linker_0, # of connection points: 2
#     Edge 14, Type (0, 0), BuildingBlock: XIVTED_clean_linker_0, # of connection points: 2
#     Edge 15, Type (0, 0), BuildingBlock: XIVTED_clean_linker_0, # of connection points: 2
#     Edge 16, Type (0, 0), BuildingBlock: XIVTED_clean_linker_0, # of connection points: 2
#     Edge 17, Type (0, 0), BuildingBlock: XIVTED_clean_linker_0, # of connection points: 2
#     Edge 18, Type (0, 0), BuildingBlock: XIVTED_clean_linker_0, # of connection points: 2
#     Edge 19, Type (0, 0), BuildingBlock: XIVTED_clean_linker_0, # of connection points: 2
#     Edge 20, Type (0, 0), BuildingBlock: XIVTED_clean_linker_0, # of connection points: 2
#     Edge 21, Type (0, 0), BuildingBlock: XIVTED_clean_linker_0, # of connection points: 2
#     Edge 22, Type (0, 0), BuildingBlock: XIVTED_clean_linker_0, # of connection points: 2
#     Edge 23, Type (0, 0), BuildingBlock: XIVTED_clean_linker_0, # of connection points: 2
#     Edge 24, Type (0, 0), BuildingBlock: XIVTED_clean_linker_0, # of connection points: 2
#     Edge 25, Type (0, 0), BuildingBlock: XIVTED_clean_linker_0, # of connection points: 2
#     Edge 26, Type (0, 0), BuildingBlock: XIVTED_clean_linker_0, # of connection points: 2
#     Edge 27, Type (0, 0), BuildingBlock: XIVTED_clean_linker_0, # of connection points: 2
#     Edge 28, Type (0, 0), BuildingBlock: XIVTED_clean_linker_0, # of connection points: 2
#     Edge 29, Type (0, 0), BuildingBlock: XIVTED_clean_linker_0, # of connection points: 2
#     Edge 30, Type (0, 0), BuildingBlock: XIVTED_clean_linker_0, # of connection points: 2
#     Edge 31, Type (0, 0), BuildingBlock: XIVTED_clean_linker_0, # of connection points: 2
#     Edge 32, Type (0, 0), BuildingBlock: XIVTED_clean_linker_0, # of connection points: 2
#     Edge 33, Type (0, 0), BuildingBlock: XIVTED_clean_linker_0, # of connection points: 2
#     Edge 34, Type (0, 0), BuildingBlock: XIVTED_clean_linker_0, # of connection points: 2
#     Edge 35, Type (0, 0), BuildingBlock: XIVTED_clean_linker_0, # of connection points: 2
#     Edge 36, Type (0, 0), BuildingBlock: XIVTED_clean_linker_0, # of connection points: 2
#     Edge 37, Type (0, 0), BuildingBlock: XIVTED_clean_linker_0, # of connection points: 2
#     Edge 38, Type (0, 0), BuildingBlock: XIVTED_clean_linker_0, # of connection points: 2
#     Edge 39, Type (0, 0), BuildingBlock: XIVTED_clean_linker_0, # of connection points: 2
#     Edge 40, Type (0, 0), BuildingBlock: XIVTED_clean_linker_0, # of connection points: 2
#     Edge 41, Type (0, 0), BuildingBlock: XIVTED_clean_linker_0, # of connection points: 2
#     Edge 42, Type (0, 0), BuildingBlock: XIVTED_clean_linker_0, # of connection points: 2
#     Edge 43, Type (0, 0), BuildingBlock: XIVTED_clean_linker_0, # of connection points: 2
#     Edge 44, Type (0, 0), BuildingBlock: XIVTED_clean_linker_0, # of connection points: 2
#     Edge 45, Type (0, 0), BuildingBlock: XIVTED_clean_linker_0, # of connection points: 2
#     Edge 46, Type (0, 0), BuildingBlock: XIVTED_clean_linker_0, # of connection points: 2
#     Edge 47, Type (0, 0), BuildingBlock: XIVTED_clean_linker_0, # of connection points: 2
# Relax obj value: 0.084
# Max RMSD: 0.185
# Mean RMSD: 0.185
data_MOF--net-wjd--node1-MIFKUJ_clean_sbu_0--edge1-XIVTED_clean_linker_0
_symmetry_space_group_name_H-M    P1
_symmetry_Int_Tables_number       1
_symmetry_cell_setting            triclinic
loop_
_symmetry_equiv_pos_as_xyz
'x, y, z'
_cell_length_a     34.977562
_cell_length_b     34.632844
_cell_length_c     53.373698
_cell_angle_alpha  90.090297
_cell_angle_beta   90.007887
_cell_angle_gamma 120.38149
loop_
_atom_site_label
_atom_site_type_symbol
_atom_site_fract_x
_atom_site_fract_y
_atom_site_fract_z
_atom_type_partial_charge
Zn0 Zn 0.28021 0.1168 0.1042 0.0
Zn1 Zn 0.39828 0.20281 0.0998 0.0
C2 C 0.24499 0.1719 0.10905 0.0
O3 O 0.23702 0.15095 0.13059 0.0
C4 C 0.47498 0.19892 0.0824 0.0
O5 O 0.46415 0.20811 0.06056 0.0
O6 O 0.2242 0.05744 0.10267 0.0
O7 O 0.32436 0.10813 0.086 0.0
O8 O 0.36588 0.17214 0.06748 0.0
C9 C 0.20219 0.0456 0.08237 0.0
O10 O 0.21603 0.07319 0.06323 0.0
O11 O 0.26579 0.16373 0.0922 0.0
C12 C 0.44049 0.29455 0.11477 0.0
O13 O 0.43676 0.27659 0.13696 0.0
O14 O 0.42419 0.26906 0.09584 0.0
O15 O 0.36986 0.18361 0.13467 0.0
O16 O 0.29944 0.12988 0.13881 0.0
O17 O 0.45128 0.19455 0.10144 0.0
C18 C 0.33992 0.13018 0.06617 0.0
C19 C 0.33623 0.15868 0.1482 0.0
Zn20 Zn 0.77578 0.60252 0.38408 0.0
Zn21 Zn 0.75263 0.6717 0.36999 0.0
C22 C 0.69389 0.52224 0.39644 0.0
O23 O 0.71323 0.53166 0.41851 0.0
C24 C 0.84475 0.73589 0.36131 0.0
O25 O 0.82652 0.74033 0.34081 0.0
O26 O 0.80997 0.57271 0.39389 0.0
O27 O 0.80117 0.63284 0.35022 0.0
O28 O 0.74233 0.63595 0.33926 0.0
C29 C 0.82051 0.55544 0.37613 0.0
O30 O 0.81157 0.561 0.35297 0.0
O31 O 0.71342 0.54913 0.37835 0.0
C32 C 0.73437 0.73992 0.38254 0.0
O33 O 0.74398 0.73075 0.40471 0.0
O34 O 0.73485 0.7177 0.36368 0.0
O35 O 0.7154 0.63416 0.39812 0.0
O36 O 0.77478 0.63869 0.41428 0.0
O37 O 0.81966 0.70795 0.37784 0.0
C38 C 0.77556 0.63268 0.33327 0.0
C39 C 0.73826 0.6377 0.4172 0.0
Zn40 Zn 0.95843 0.28195 0.10923 0.0
Zn41 Zn 0.86598 0.2699 0.09626 0.0
C42 C 0.92124 0.1904 0.11967 0.0
O43 O 0.94453 0.21006 0.13988 0.0
C44 C 0.87546 0.35419 0.08299 0.0
O45 O 0.86173 0.33302 0.06148 0.0
O46 O 0.02016 0.29131 0.11237 0.0
O47 O 0.96027 0.3215 0.08191 0.0
O48 O 0.89995 0.26644 0.06584 0.0
C49 C 0.0342 0.28048 0.09312 0.0
O50 O 0.00931 0.26701 0.07292 0.0
O51 O 0.9203 0.21479 0.1021 0.0
C52 C 0.77547 0.23723 0.10541 0.0
O53 O 0.79277 0.25214 0.12767 0.0
O54 O 0.80075 0.23936 0.08766 0.0
O55 O 0.86993 0.24516 0.13048 0.0
O56 O 0.93855 0.29507 0.14115 0.0
O57 O 0.88222 0.33458 0.10114 0.0
C58 C 0.93886 0.29962 0.06286 0.0
C59 C 0.89901 0.26686 0.14724 0.0
Zn60 Zn 0.38017 0.11647 0.37851 0.0
Zn61 Zn 0.25647 0.02304 0.36548 0.0
C62 C 0.44888 0.10095 0.39574 0.0
O63 O 0.44177 0.11633 0.41668 0.0
C64 C 0.21088 0.06723 0.36154 0.0
O65 O 0.21033 0.05169 0.339 0.0
O66 O 0.41714 0.18398 0.38513 0.0
O67 O 0.35227 0.10624 0.3438 0.0
O68 O 0.28524 0.05009 0.33308 0.0
C69 C 0.44258 0.20864 0.36765 0.0
O70 O 0.442 0.18991 0.34612 0.0
O71 O 0.42516 0.09647 0.37668 0.0
C72 C 0.17251 0.9478 0.37907 0.0
O73 O 0.18411 0.97048 0.40017 0.0
O74 O 0.19994 0.96192 0.36087 0.0
O75 O 0.30138 0.02069 0.3872 0.0
O76 O 0.33914 0.0839 0.40779 0.0
O77 O 0.23255 0.06127 0.37876 0.0
C78 C 0.32197 0.08476 0.32757 0.0
C79 C 0.31016 0.0424 0.40751 0.0
Zn80 Zn 0.81977 0.78415 0.11883 0.0
Zn81 Zn 0.78719 0.66357 0.10458 0.0
C82 C 0.90251 0.78922 0.10277 0.0
O83 O 0.89312 0.75778 0.1194 0.0
C84 C 0.69893 0.59691 0.08886 0.0
O85 O 0.71522 0.61046 0.0663 0.0
O86 O 0.81784 0.84156 0.12309 0.0
O87 O 0.76599 0.73836 0.10017 0.0
O88 O 0.79098 0.70398 0.07652 0.0
C89 C 0.82287 0.86513 0.10371 0.0
O90 O 0.82645 0.8501 0.08173 0.0
O91 O 0.87521 0.80257 0.09897 0.0
C92 C 0.82932 0.61231 0.11449 0.0
O93 O 0.81966 0.61774 0.13752 0.0
O94 O 0.82048 0.63095 0.09666 0.0
O95 O 0.8043 0.69253 0.13852 0.0
O96 O 0.82444 0.76055 0.15228 0.0
O97 O 0.72349 0.61543 0.10782 0.0
C98 C 0.77476 0.7294 0.07865 0.0
C99 C 0.81642 0.72093 0.15622 0.0
Zn100 Zn 0.83705 0.20334 0.37886 0.0
Zn101 Zn 0.88629 0.13063 0.36648 0.0
C102 C 0.83845 0.28142 0.39879 0.0
O103 O 0.83662 0.263 0.42059 0.0
C104 C 0.80775 0.04756 0.35802 0.0
O105 O 0.81696 0.06207 0.33484 0.0
O106 O 0.77447 0.15699 0.38849 0.0
O107 O 0.85166 0.19886 0.343 0.0
O108 O 0.87998 0.15577 0.33412 0.0
C109 C 0.74555 0.13833 0.37131 0.0
O110 O 0.75856 0.1449 0.34783 0.0
O111 O 0.83763 0.2611 0.3788 0.0
C112 C 0.94897 0.10539 0.37958 0.0
O113 O 0.93016 0.10096 0.40152 0.0
O114 O 0.93378 0.1155 0.36063 0.0
O115 O 0.9128 0.17345 0.39488 0.0
O116 O 0.88337 0.21496 0.40449 0.0
O117 O 0.8314 0.07327 0.37566 0.0
C118 C 0.8664 0.18189 0.32738 0.0
C119 C 0.91151 0.20284 0.40839 0.0
Zn120 Zn 0.16527 0.34685 0.59715 0.0
Zn121 Zn 0.07243 0.2595 0.60896 0.0
C122 C 0.14543 0.414 0.58301 0.0
O123 O 0.15981 0.40803 0.56143 0.0
C124 C 0.11943 0.21446 0.61856 0.0
O125 O 0.10193 0.21201 0.6407 0.0
O126 O 0.23057 0.38763 0.58946 0.0
O127 O 0.16222 0.32009 0.63166 0.0
O128 O 0.09201 0.29643 0.63958 0.0
C129 C 0.25431 0.41256 0.60738 0.0
O130 O 0.23579 0.40863 0.62936 0.0
O131 O 0.14326 0.3901 0.60161 0.0
C132 C 0.99142 0.17936 0.59627 0.0
O133 O 0.00845 0.19158 0.57374 0.0
O134 O 0.01227 0.20431 0.61484 0.0
O135 O 0.06764 0.29264 0.58025 0.0
O136 O 0.13337 0.3093 0.56611 0.0
O137 O 0.1129 0.23544 0.60113 0.0
C138 C 0.13181 0.31399 0.64699 0.0
C139 C 0.09417 0.30151 0.56214 0.0
Zn140 Zn 0.24695 0.96645 0.85853 0.0
Zn141 Zn 0.24225 0.87575 0.87753 0.0
C142 C 0.1555 0.92836 0.85129 0.0
O143 O 0.1713 0.94344 0.82883 0.0
C144 C 0.33016 0.89998 0.88972 0.0
O145 O 0.31174 0.89061 0.91202 0.0
O146 O 0.25701 0.02705 0.84823 0.0
O147 O 0.28677 0.97543 0.88715 0.0
O148 O 0.23845 0.91301 0.90578 0.0
C149 C 0.25486 0.05132 0.86544 0.0
O150 O 0.24951 0.03722 0.88871 0.0
O151 O 0.18234 0.93277 0.86867 0.0
C152 C 0.22242 0.78826 0.87148 0.0
O153 O 0.23964 0.80723 0.84987 0.0
O154 O 0.21892 0.81184 0.88865 0.0
O155 O 0.2108 0.86956 0.8447 0.0
O156 O 0.25498 0.93668 0.82903 0.0
O157 O 0.30697 0.89823 0.87092 0.0
C158 C 0.26828 0.95419 0.90701 0.0
C159 C 0.22747 0.89534 0.82598 0.0
Zn160 Zn 0.6175 0.77841 0.60226 0.0
Zn161 Zn 0.70128 0.7693 0.61174 0.0
C162 C 0.54686 0.69245 0.58677 0.0
O163 O 0.55273 0.71472 0.56585 0.0
C164 C 0.75345 0.86137 0.62303 0.0
O165 O 0.75664 0.84285 0.64379 0.0
O166 O 0.57929 0.80575 0.59542 0.0
O167 O 0.64458 0.79972 0.63723 0.0
O168 O 0.66854 0.75263 0.64361 0.0
C169 C 0.55531 0.80576 0.61335 0.0
O170 O 0.55893 0.79113 0.63542 0.0
O171 O 0.5722 0.71238 0.60531 0.0
C172 C 0.77748 0.76822 0.59465 0.0
O173 O 0.76441 0.77793 0.57374 0.0
O174 O 0.75425 0.76094 0.61432 0.0
O175 O 0.66449 0.73152 0.58373 0.0
O176 O 0.65451 0.78587 0.57083 0.0
O177 O 0.72877 0.83609 0.60548 0.0
C178 C 0.65347 0.77652 0.65207 0.0
C179 C 0.6592 0.75253 0.56605 0.0
Zn180 Zn 0.11251 0.3143 0.85647 0.0
Zn181 Zn 0.2 0.41357 0.87801 0.0
C182 C 0.16308 0.27577 0.83698 0.0
O183 O 0.13956 0.27064 0.81674 0.0
C184 C 0.18814 0.4861 0.89238 0.0
O185 O 0.1963 0.47518 0.91448 0.0
O186 O 0.05737 0.26388 0.84106 0.0
O187 O 0.09822 0.31781 0.8913 0.0
O188 O 0.15878 0.37615 0.90689 0.0
C189 C 0.01923 0.25659 0.84732 0.0
O190 O 0.0161 0.2842 0.86296 0.0
O191 O 0.15891 0.2959 0.8558 0.0
C192 C 0.29133 0.47035 0.87161 0.0
O193 O 0.27593 0.46805 0.84888 0.0
O194 O 0.26435 0.4471 0.88887 0.0
O195 O 0.19791 0.38882 0.8428 0.0
O196 O 0.12899 0.37042 0.83819 0.0
O197 O 0.18675 0.46333 0.87332 0.0
C198 C 0.11996 0.34228 0.90964 0.0
C199 C 0.16688 0.38487 0.82874 0.0
Zn200 Zn 0.19116 0.7956 0.59917 0.0
Zn201 Zn 0.1846 0.89381 0.60631 0.0
C202 C 0.27824 0.81475 0.58424 0.0
O203 O 0.25889 0.80274 0.56222 0.0
C204 C 0.09543 0.86007 0.61036 0.0
O205 O 0.11313 0.88437 0.63057 0.0
O206 O 0.16232 0.72939 0.59234 0.0
O207 O 0.17052 0.80297 0.63394 0.0
O208 O 0.18342 0.8722 0.64005 0.0
C209 C 0.15882 0.70424 0.6106 0.0
O210 O 0.17151 0.72201 0.63299 0.0
O211 O 0.2561 0.81569 0.6029 0.0
C212 C 0.19042 0.97543 0.59036 0.0
O213 O 0.17422 0.95211 0.56968 0.0
O214 O 0.19934 0.95786 0.60866 0.0
O215 O 0.22971 0.89005 0.58602 0.0
O216 O 0.18515 0.82637 0.568 0.0
O217 O 0.12096 0.85807 0.59403 0.0
C218 C 0.1719 0.83337 0.64804 0.0
C219 C 0.21239 0.8681 0.56628 0.0
Zn220 Zn 0.76348 0.85842 0.86672 0.0
Zn221 Zn 0.65158 0.83486 0.88161 0.0
C222 C 0.79743 0.93737 0.83764 0.0
O223 O 0.80107 0.91098 0.82131 0.0
C224 C 0.58115 0.74884 0.897 0.0
O225 O 0.58829 0.77018 0.91841 0.0
O226 O 0.8187 0.85481 0.86089 0.0
O227 O 0.75016 0.84695 0.90258 0.0
O228 O 0.68569 0.83971 0.91355 0.0
C229 C 0.85013 0.87465 0.87661 0.0
O230 O 0.84521 0.89628 0.89541 0.0
O231 O 0.77977 0.92147 0.85877 0.0
C232 C 0.59388 0.86598 0.86771 0.0
O233 O 0.59679 0.84839 0.84647 0.0
O234 O 0.61632 0.86583 0.88643 0.0
O235 O 0.68245 0.8543 0.84781 0.0
O236 O 0.7157 0.81527 0.84426 0.0
O237 O 0.60518 0.76955 0.87822 0.0
C238 C 0.72217 0.84205 0.91916 0.0
C239 C 0.68874 0.8263 0.83579 0.0
H240 H 0.08793 0.2939 0.13362 0.0
H241 H 0.22257 0.19449 0.06411 0.0
H242 H 0.07279 0.25924 0.05508 0.0
H243 H 0.22303 0.2142 0.14396 0.0
H244 H 0.179 0.23167 0.05877 0.0
H245 H 0.14867 0.27842 0.13602 0.0
C246 C 0.09773 0.2836 0.1168 0.0
C247 C 0.07479 0.27725 0.09422 0.0
C248 C 0.18924 0.22839 0.07741 0.0
C249 C 0.14414 0.25911 0.09684 0.0
C250 C 0.2143 0.20744 0.08042 0.0
C251 C 0.22588 0.20079 0.10452 0.0
C252 C 0.17607 0.2429 0.09866 0.0
C253 C 0.21422 0.21805 0.12506 0.0
C254 C 0.13237 0.27464 0.11818 0.0
C255 C 0.08916 0.26404 0.07298 0.0
N256 N 0.18969 0.23792 0.12168 0.0
N257 N 0.12259 0.25495 0.07487 0.0
H258 H 0.12733 0.90861 0.33538 0.0
H259 H 0.89466 0.74954 0.404 0.0
H260 H 0.11138 0.90212 0.41569 0.0
H261 H 0.90682 0.78313 0.32548 0.0
H262 H 0.97552 0.79663 0.40825 0.0
H263 H 0.04819 0.85333 0.33102 0.0
C264 C 0.10739 0.89511 0.3521 0.0
C265 C 0.12611 0.91026 0.37593 0.0
C266 C 0.96043 0.79352 0.39009 0.0
C267 C 0.0353 0.84704 0.37108 0.0
C268 C 0.91428 0.76657 0.38765 0.0
C269 C 0.89376 0.76261 0.3644 0.0
C270 C 0.98637 0.81626 0.36907 0.0
C271 C 0.921 0.78548 0.34384 0.0
C272 C 0.06211 0.86376 0.3496 0.0
C273 C 0.09842 0.89168 0.39693 0.0
N274 N 0.96571 0.81121 0.34665 0.0
N275 N 0.05453 0.86123 0.39402 0.0
H276 H 0.90292 0.13039 0.15721 0.0
H277 H 0.8301 0.92172 0.06581 0.0
H278 H 0.88884 0.13768 0.07733 0.0
H279 H 0.83067 0.91302 0.14645 0.0
H280 H 0.84766 0.99939 0.06951 0.0
H281 H 0.87275 0.04996 0.15355 0.0
C282 C 0.89323 0.11501 0.13886 0.0
C283 C 0.89881 0.14096 0.1175 0.0
C284 C 0.84358 0.9804 0.0864 0.0
C285 C 0.86432 0.0484 0.11314 0.0
C286 C 0.83355 0.93598 0.08433 0.0
C287 C 0.82919 0.91077 0.10587 0.0
C288 C 0.84963 1.00004 0.1102 0.0
C289 C 0.83384 0.9311 0.12932 0.0
C290 C 0.87589 0.06895 0.1368 0.0
C291 C 0.88519 0.119 0.09428 0.0
N292 N 0.84416 0.97457 0.13084 0.0
N293 N 0.869 0.07404 0.09268 0.0
H294 H 0.17317 0.06878 0.40649 0.0
H295 H 0.99963 0.11912 0.33789 0.0
H296 H 0.17868 0.10259 0.32829 0.0
H297 H 0.99213 0.08755 0.41662 0.0
H298 H 0.06864 0.1182 0.3351 0.0
H299 H 0.1115 0.08276 0.41207 0.0
C300 C 0.16208 0.08013 0.39067 0.0
C301 C 0.18064 0.08415 0.36685 0.0
C302 C 0.052 0.11151 0.35303 0.0
C303 C 0.11002 0.09933 0.37292 0.0
C304 C 0.0124 0.11179 0.35459 0.0
C305 C 0.98987 0.10306 0.37748 0.0
C306 C 0.06927 0.10226 0.37448 0.0
C307 C 0.00825 0.09416 0.39855 0.0
C308 C 0.12667 0.0877 0.39379 0.0
C309 C 0.1649 0.09858 0.34692 0.0
N310 N 0.04684 0.09383 0.39653 0.0
N311 N 0.13028 0.10523 0.35035 0.0
H312 H 0.13824 0.01652 0.04602 0.0
H313 H 0.97714 0.78947 0.11848 0.0
H314 H 0.17233 0.97495 0.11459 0.0
H315 H 0.93175 0.85135 0.06524 0.0
H316 H 0.05364 0.8464 0.10892 0.0
H317 H 0.06723 0.94602 0.04546 0.0
C318 C 0.13099 0.9924 0.06081 0.0
C319 C 0.16087 1.00188 0.08062 0.0
C320 C 0.0269 0.84701 0.09905 0.0
C321 C 0.08014 0.92123 0.07991 0.0
C322 C 0.98323 0.81437 0.10436 0.0
C323 C 0.94804 0.81627 0.09301 0.0
C324 C 0.03531 0.8815 0.08218 0.0
C325 C 0.95793 0.84915 0.07475 0.0
C326 C 0.09052 0.95223 0.06046 0.0
C327 C 0.14994 0.9693 0.09918 0.0
N328 N 1.00069 0.88087 0.07013 0.0
N329 N 0.11032 0.93052 0.09846 0.0
H330 H 0.72068 0.77314 0.33896 0.0
H331 H 0.78525 1.0046 0.40335 0.0
H332 H 0.73536 0.79613 0.41883 0.0
H333 H 0.76428 0.98022 0.32379 0.0
H334 H 0.7524 0.92435 0.41013 0.0
H335 H 0.72268 0.84421 0.33372 0.0
C336 C 0.7237 0.79282 0.35543 0.0
C337 C 0.72876 0.77913 0.37931 0.0
C338 C 0.75425 0.93643 0.39121 0.0
C339 C 0.73136 0.86059 0.37345 0.0
C340 C 0.77291 0.98231 0.38734 0.0
C341 C 0.77851 0.99926 0.36291 0.0
C342 C 0.74152 0.9074 0.3705 0.0
C343 C 0.76136 0.96872 0.34292 0.0
C344 C 0.7248 0.8334 0.35243 0.0
C345 C 0.73209 0.80572 0.40001 0.0
N346 N 0.74443 0.92433 0.34711 0.0
N347 N 0.73399 0.84548 0.39656 0.0
H348 H 0.20971 0.02617 0.63297 0.0
H349 H 0.14134 0.19428 0.57298 0.0
H350 H 0.17499 0.02333 0.55508 0.0
H351 H 0.14779 0.17546 0.65247 0.0
H352 H 0.16893 0.14297 0.5651 0.0
H353 H 0.20264 0.09216 0.63915 0.0
C354 C 0.20117 0.03975 0.61707 0.0
C355 C 0.1923 0.01879 0.59354 0.0
C356 C 0.16476 0.1505 0.58426 0.0
C357 C 0.18399 0.09426 0.60054 0.0
C358 C 0.14917 0.1799 0.58878 0.0
C359 C 0.1417 0.18867 0.61343 0.0
C360 C 0.17317 0.13003 0.60453 0.0
C361 C 0.15252 0.16919 0.63317 0.0
C362 C 0.19701 0.07737 0.62064 0.0
C363 C 0.18161 0.03808 0.57361 0.0
N364 N 0.16739 0.14055 0.62829 0.0
N365 N 0.17736 0.0745 0.57762 0.0
H366 H 0.11469 0.9177 0.8968 0.0
H367 H 0.87914 0.84866 0.83567 0.0
H368 H 0.08838 0.9003 0.81734 0.0
H369 H 0.91722 0.90127 0.91065 0.0
H370 H 0.95128 0.85411 0.83041 0.0
H371 H 0.0376 0.89786 0.90393 0.0
C372 C 0.09256 0.9091 0.8809 0.0
C373 C 0.10804 0.91108 0.85642 0.0
C374 C 0.94369 0.86421 0.84806 0.0
C375 C 0.02007 0.88849 0.86442 0.0
C376 C 0.90251 0.86102 0.85108 0.0
C377 C 0.89232 0.87494 0.87354 0.0
C378 C 0.97473 0.88105 0.86771 0.0
C379 C 0.92385 0.89061 0.89292 0.0
C380 C 0.04867 0.89803 0.88497 0.0
C381 C 0.07795 0.89967 0.8365 0.0
N382 N 0.96366 0.89335 0.88954 0.0
N383 N 0.03549 0.88906 0.84093 0.0
H384 H 0.79981 0.92436 0.6588 0.0
H385 H 0.93711 0.12012 0.5605 0.0
H386 H 0.77254 0.91008 0.57942 0.0
H387 H 0.95327 0.13753 0.64065 0.0
H388 H 0.8742 0.0447 0.56701 0.0
H389 H 0.85303 1.00363 0.65257 0.0
C390 C 0.80473 0.93799 0.64005 0.0
C391 C 0.78186 0.91039 0.61957 0.0
C392 C 0.89124 0.06514 0.58318 0.0
C393 C 0.84332 1.00142 0.61225 0.0
C394 C 0.92724 0.10826 0.57949 0.0
C395 C 0.95079 0.1352 0.60007 0.0
C396 C 0.87877 0.04856 0.60763 0.0
C397 C 0.93626 0.11799 0.62422 0.0
C398 C 0.83518 0.98335 0.63651 0.0
C399 C 0.78945 0.93007 0.59574 0.0
N400 N 0.90148 0.07569 0.62732 0.0
N401 N 0.81987 0.97428 0.5927 0.0
H402 H 0.20863 0.27217 0.87785 0.0
H403 H 0.245 0.08021 0.81924 0.0
H404 H 0.17455 0.22482 0.80168 0.0
H405 H 0.25899 0.11445 0.89781 0.0
H406 H 0.23193 0.14207 0.81065 0.0
H407 H 0.2403 0.22407 0.88342 0.0
C408 C 0.20831 0.25213 0.86217 0.0
C409 C 0.18831 0.25212 0.83936 0.0
C410 C 0.23834 0.13631 0.82973 0.0
C411 C 0.22434 0.19663 0.84569 0.0
C412 C 0.24597 0.1011 0.83464 0.0
C413 C 0.25265 0.09184 0.85933 0.0
C414 C 0.23759 0.16253 0.84963 0.0
C415 C 0.25353 0.12004 0.87852 0.0
C416 C 0.2263 0.22452 0.8654 0.0
C417 C 0.1892 0.22559 0.81968 0.0
N418 N 0.24577 0.15386 0.87329 0.0
N419 N 0.20647 0.19859 0.82337 0.0
H420 H 0.03435 0.83443 0.64724 0.0
H421 H 0.83409 0.78129 0.55586 0.0
H422 H 0.04593 0.83266 0.56683 0.0
H423 H 0.82086 0.76257 0.636 0.0
H424 H 0.90985 0.79527 0.55878 0.0
H425 H 0.9549 0.80339 0.64292 0.0
C426 C 0.02003 0.82719 0.62861 0.0
C427 C 0.04681 0.83656 0.60732 0.0
C428 C 0.89018 0.78756 0.57567 0.0
C429 C 0.95548 0.80126 0.60221 0.0
C430 C 0.84691 0.77962 0.57405 0.0
C431 C 0.8212 0.77121 0.59578 0.0
C432 C 0.90801 0.78745 0.59922 0.0
C433 C 0.83948 0.76918 0.61878 0.0
C434 C 0.97454 0.80931 0.62616 0.0
C435 C 0.0264 0.82598 0.5837 0.0
N436 N 0.88188 0.77773 0.61991 0.0
N437 N 0.98191 0.80943 0.58173 0.0
H438 H 0.93531 0.2201 0.86637 0.0
H439 H 0.85325 0.98473 0.79918 0.0
H440 H 0.0125 0.19565 0.8123 0.0
H441 H 0.79461 1.00135 0.86652 0.0
H442 H 0.9009 0.06595 0.79656 0.0
H443 H 0.87332 0.14427 0.85921 0.0
C444 C 0.93899 0.1991 0.85268 0.0
C445 C 0.97939 0.21395 0.84021 0.0
C446 C 0.87715 0.05181 0.8117 0.0
C447 C 0.90866 0.12728 0.83199 0.0
C448 C 0.84981 1.00545 0.81318 0.0
C449 C 0.82046 0.98619 0.83337 0.0
C450 C 0.87498 0.07908 0.83047 0.0
C451 C 0.81725 0.01476 0.85084 0.0
C452 C 0.90363 0.15578 0.84867 0.0
C453 C 0.98217 0.18534 0.82259 0.0
N454 N 0.84457 0.05977 0.84915 0.0
N455 N 0.94742 0.14321 0.81918 0.0
H456 H 0.39996 0.1423 0.3034 0.0
H457 H 0.27036 0.14218 0.18046 0.0
H458 H 0.25798 0.06681 0.29319 0.0
H459 H 0.4086 0.18101 0.17815 0.0
H460 H 0.27028 0.13233 0.22548 0.0
H461 H 0.40772 0.17114 0.26049 0.0
C462 C 0.37051 0.13195 0.29221 0.0
C463 C 0.32827 0.10193 0.30179 0.0
C464 C 0.3008 0.14334 0.21523 0.0
C465 C 0.33689 0.13516 0.2533 0.0
C466 C 0.3009 0.14909 0.18955 0.0
C467 C 0.3393 0.16143 0.17562 0.0
C468 C 0.33924 0.14945 0.22709 0.0
C469 C 0.37823 0.171 0.18834 0.0
C470 C 0.375 0.14839 0.26783 0.0
C471 C 0.29121 0.08947 0.28654 0.0
N472 N 0.37708 0.16403 0.21349 0.0
N473 N 0.29643 0.10622 0.26312 0.0
H474 H 0.72209 0.58906 0.29417 0.0
H475 H 0.863 0.77216 0.19678 0.0
H476 H 0.85657 0.6888 0.31266 0.0
H477 H 0.77347 0.63574 0.17381 0.0
H478 H 0.86031 0.74562 0.23981 0.0
H479 H 0.73879 0.60736 0.24982 0.0
C480 C 0.75538 0.61422 0.28872 0.0
C481 C 0.78806 0.63753 0.30682 0.0
C482 C 0.84197 0.72161 0.22515 0.0
C483 C 0.80693 0.65969 0.25657 0.0
C484 C 0.84316 0.7367 0.20075 0.0
C485 C 0.81824 0.7061 0.18181 0.0
C486 C 0.81486 0.67591 0.23056 0.0
C487 C 0.7933 0.66047 0.18783 0.0
C488 C 0.76491 0.62466 0.26352 0.0
C489 C 0.83067 0.67006 0.29906 0.0
N490 N 0.79168 0.64683 0.21177 0.0
N491 N 0.83873 0.68104 0.27441 0.0
H492 H 0.93162 0.32216 0.18751 0.0
H493 H 0.86209 0.13138 0.28692 0.0
H494 H 0.84492 0.18397 0.16694 0.0
H495 H 0.87331 0.25743 0.30721 0.0
H496 H 0.86511 0.15125 0.24256 0.0
H497 H 0.91973 0.3006 0.2318 0.0
C498 C 0.90983 0.28735 0.1924 0.0
C499 C 0.88904 0.25474 0.17374 0.0
C500 C 0.86663 0.17431 0.2568 0.0
C501 C 0.87626 0.2299 0.22396 0.0
C502 C 0.86526 0.16321 0.28202 0.0
C503 C 0.86763 0.19293 0.30066 0.0
C504 C 0.87151 0.2158 0.25033 0.0
C505 C 0.87132 0.23359 0.29337 0.0
C506 C 0.903 0.27514 0.21756 0.0
C507 C 0.86115 0.21007 0.18089 0.0
N508 N 0.87372 0.24412 0.26872 0.0
N509 N 0.85604 0.19876 0.20554 0.0
H510 H 0.20872 0.33843 0.67331 0.0
H511 H 0.11519 0.39603 0.79555 0.0
H512 H 0.07899 0.32371 0.68041 0.0
H513 H 0.22523 0.37285 0.79955 0.0
H514 H 0.11186 0.38472 0.75052 0.0
H515 H 0.2239 0.36335 0.7173 0.0
C516 C 0.18354 0.34046 0.68408 0.0
C517 C 0.14239 0.32864 0.67329 0.0
C518 C 0.13695 0.38229 0.76114 0.0
C519 C 0.15977 0.35764 0.72301 0.0
C520 C 0.13894 0.38888 0.78685 0.0
C521 C 0.17003 0.38461 0.80127 0.0
C522 C 0.16605 0.37099 0.74967 0.0
C523 C 0.20058 0.37615 0.78901 0.0
C524 C 0.19224 0.35466 0.70907 0.0
C525 C 0.11098 0.33201 0.68797 0.0
N526 N 0.19749 0.36898 0.7638 0.0
N527 N 0.12039 0.34624 0.71198 0.0
H528 H 0.22221 0.94269 0.78723 0.0
H529 H 0.18947 0.78161 0.67967 0.0
H530 H 0.19428 0.81028 0.80754 0.0
H531 H 0.13407 0.86812 0.67744 0.0
H532 H 0.19252 0.78764 0.72571 0.0
H533 H 0.1946 0.91565 0.74526 0.0
C534 C 0.21026 0.90787 0.7828 0.0
C535 C 0.21067 0.87867 0.80072 0.0
C536 C 0.17847 0.80407 0.71505 0.0
C537 C 0.17932 0.8476 0.75275 0.0
C538 C 0.17665 0.80059 0.6889 0.0
C539 C 0.16266 0.82546 0.67492 0.0
C540 C 0.16656 0.83282 0.72675 0.0
C541 C 0.14626 0.84948 0.6876 0.0
C542 C 0.19409 0.89235 0.75896 0.0
C543 C 0.19449 0.83375 0.79409 0.0
N544 N 0.14956 0.85338 0.7128 0.0
N545 N 0.18005 0.81956 0.77034 0.0
H546 H 0.65617 0.72152 0.68733 0.0
H547 H 0.65837 0.86736 0.80397 0.0
H548 H 0.64167 0.83751 0.67915 0.0
H549 H 0.68477 0.75851 0.80815 0.0
H550 H 0.6414 0.85132 0.75925 0.0
H551 H 0.65575 0.72896 0.73251 0.0
C552 C 0.65279 0.74859 0.69506 0.0
C553 C 0.64966 0.77938 0.67944 0.0
C554 C 0.65051 0.83076 0.77006 0.0
C555 C 0.64935 0.78825 0.73141 0.0
C556 C 0.66004 0.83977 0.79556 0.0
C557 C 0.67359 0.81457 0.80966 0.0
C558 C 0.65432 0.79619 0.75878 0.0
C559 C 0.67514 0.77921 0.79789 0.0
C560 C 0.65247 0.75277 0.72093 0.0
C561 C 0.64455 0.81327 0.69055 0.0
N562 N 0.66593 0.77128 0.77314 0.0
N563 N 0.64503 0.81713 0.71595 0.0
H564 H 0.23207 0.92307 0.95341 0.0
H565 H 0.3738 0.16297 0.01938 0.0
H566 H 0.33006 0.04189 0.91491 0.0
H567 H 0.28249 0.04158 0.05844 0.0
H568 H 0.35676 0.11978 0.98041 0.0
H569 H 0.24936 0.96657 -0.00787 0.0
C570 C 0.25732 0.9582 0.95313 0.0
C571 C 0.27954 0.97887 0.93092 0.0
C572 C 0.34049 0.10272 -0.00244 0.0
C573 C 0.29933 0.02887 0.97498 0.0
C574 C 0.35013 0.12738 0.01974 0.0
C575 C 0.32965 0.10586 0.04216 0.0
C576 C 0.31013 0.05639 -0.00209 0.0
C577 C 0.29923 0.05962 0.04161 0.0
C578 C 0.26713 0.98306 0.97519 0.0
C579 C 0.31198 0.02455 0.9316 0.0
N580 N 0.29044 0.03647 0.01986 0.0
N581 N 0.3208 0.04804 0.95326 0.0
H582 H 0.65603 0.60396 0.43618 0.0
H583 H 0.72516 0.80324 0.53311 0.0
H584 H 0.79279 0.70252 0.45048 0.0
H585 H 0.60844 0.67364 0.54294 0.0
H586 H 0.7455 0.77407 0.49648 0.0
H587 H 0.63378 0.63489 0.47068 0.0
C588 C 0.68137 0.63163 0.44697 0.0
C589 C 0.72625 0.65047 0.44083 0.0
C590 C 0.71505 0.75238 0.50644 0.0
C591 C 0.70105 0.68702 0.47945 0.0
C592 C 0.7031 0.76917 0.52693 0.0
C593 C 0.66489 0.74074 0.5406 0.0
C594 C 0.6881 0.70722 0.49962 0.0
C595 C 0.63788 0.69653 0.53253 0.0
C596 C 0.66868 0.64944 0.46645 0.0
C597 C 0.75791 0.68665 0.45504 0.0
N598 N 0.65001 0.68103 0.51252 0.0
N599 N 0.74464 0.70424 0.4736 0.0
H600 H 0.04426 0.26659 0.9236 0.0
H601 H 0.01697 0.37314 0.05021 0.0
H602 H 0.14159 0.39786 0.95059 0.0
H603 H 0.91773 0.24369 0.02208 0.0
H604 H 0.06319 0.38237 0.01407 0.0
H605 H 0.99924 0.25628 0.96049 0.0
C606 C 0.05648 0.29312 0.93745 0.0
C607 C 0.09672 0.33336 0.9339 0.0
C608 C 0.03125 0.35203 0.01567 0.0
C609 C 0.04479 0.32182 0.97611 0.0
C610 C 1.00467 0.34678 0.03625 0.0
C611 C 0.96344 0.30747 0.03918 0.0
C612 C 0.01663 0.31772 -0.00218 0.0
C613 C 0.94919 0.27458 0.02049 0.0
C614 C 0.03055 0.28723 0.95846 0.0
C615 C 0.11088 0.36632 0.95257 0.0
N616 N 0.97592 0.28034 0.00063 0.0
N617 N 0.08472 0.35994 0.9728 0.0
H618 H 0.32146 0.07623 0.45517 0.0
H619 H 0.18231 0.83453 0.51894 0.0
H620 H 0.2538 0.95265 0.41318 0.0
H621 H 0.26242 0.95796 0.55951 0.0
H622 H 0.20086 0.87761 0.47987 0.0
H623 H 0.29225 0.0336 0.49384 0.0
C624 C 0.30026 0.04022 0.45407 0.0
C625 C 0.29035 0.01797 0.43096 0.0
C626 C 0.21408 0.89513 0.49741 0.0
C627 C 0.25697 0.96896 0.47503 0.0
C628 C 0.20351 0.87058 0.51965 0.0
C629 C 0.22099 0.89261 0.54246 0.0
C630 C 0.2422 0.94189 0.49814 0.0
C631 C 0.24831 0.93942 0.54235 0.0
C632 C 0.2836 0.01586 0.47613 0.0
C633 C 0.26248 0.97121 0.43062 0.0
N634 N 0.25811 0.96241 0.52057 0.0
N635 N 0.24697 0.94823 0.45234 0.0
H636 H 0.81874 0.74661 0.03428 0.0
H637 H 0.66649 0.81458 0.96021 0.0
H638 H 0.71859 0.76184 0.07275 0.0
H639 H 0.79977 0.85346 0.93748 0.0
H640 H 0.68133 0.79244 0.00117 0.0
H641 H 0.80814 0.78141 -0.00273 0.0
C642 C 0.79451 0.75731 0.03489 0.0
C643 C 0.76937 0.75128 0.05646 0.0
C644 C 0.70737 0.80648 -0.01278 0.0
C645 C 0.75688 0.79082 0.01427 0.0
C646 C 0.69898 0.81916 0.96392 0.0
C647 C 0.73168 0.83523 0.94523 0.0
C648 C 0.74843 0.80952 -0.00845 0.0
C649 C 0.77324 0.84056 0.95108 0.0
C650 C 0.78867 0.77743 0.01387 0.0
C651 C 0.73862 0.76602 0.05639 0.0
N652 N 0.78017 0.82715 0.97356 0.0
N653 N 0.73282 0.78475 0.03545 0.0
H654 H 0.03419 0.32427 0.54784 0.0
H655 H 0.98224 0.19219 0.41912 0.0
H656 H 0.11443 0.2722 0.51907 0.0
H657 H 0.91593 0.26208 0.44396 0.0
H658 H 0.03446 0.22538 0.45379 0.0
H659 H 0.99527 0.30768 0.50794 0.0
C660 C 0.04397 0.30984 0.53289 0.0
C661 C 0.07708 0.29902 0.53672 0.0
C662 C 0.0087 0.23371 0.45153 0.0
C663 C 0.03216 0.27912 0.49115 0.0
C664 C 0.97863 0.21453 0.43184 0.0
C665 C 0.94416 0.22382 0.42884 0.0
C666 C 1.00414 0.26216 0.46844 0.0
C667 C 0.94164 0.25358 0.44567 0.0
C668 C 0.02175 0.30036 0.51012 0.0
C669 C 0.08895 0.28092 0.51677 0.0
N670 N 0.97099 0.27136 0.46487 0.0
N671 N 0.06589 0.27075 0.49487 0.0
H672 H 0.73224 0.22365 0.06033 0.0
H673 H 0.50883 0.18445 0.12526 0.0
H674 H 0.71146 0.21842 0.14026 0.0
H675 H 0.53475 0.20859 0.04604 0.0
H676 H 0.57912 0.18647 0.13019 0.0
H677 H 0.65617 0.20774 0.05391 0.0
C678 C 0.71154 0.2186 0.07651 0.0
C679 C 0.72834 0.22273 0.10087 0.0
C680 C 0.56938 0.19111 0.11169 0.0
C681 C 0.64152 0.20471 0.09368 0.0
C682 C 0.52915 0.1899 0.10885 0.0
C683 C 0.516 0.19678 0.08523 0.0
C684 C 0.59682 0.19925 0.09078 0.0
C685 C 0.54369 0.20344 0.06464 0.0
C686 C 0.66821 0.20972 0.07284 0.0
C687 C 0.70007 0.21595 0.12114 0.0
N688 N 0.58292 0.20477 0.06791 0.0
N689 N 0.65821 0.2075 0.11709 0.0
H690 H 0.64049 0.46193 0.43189 0.0
H691 H 0.4925 0.27128 0.33242 0.0
H692 H 0.65253 0.4829 0.35193 0.0
H693 H 0.46706 0.25644 0.41194 0.0
H694 H 0.54984 0.34919 0.33922 0.0
H695 H 0.57597 0.3876 0.42506 0.0
C696 C 0.6294 0.45108 0.41287 0.0
C697 C 0.65223 0.47879 0.39244 0.0
C698 C 0.53156 0.32908 0.35519 0.0
C699 C 0.57826 0.39317 0.38448 0.0
C700 C 0.49875 0.28445 0.35134 0.0
C701 C 0.47491 0.25703 0.37166 0.0
C702 C 0.54116 0.34666 0.37961 0.0
C703 C 0.48451 0.27623 0.39571 0.0
C704 C 0.59246 0.40854 0.409 0.0
C705 C 0.63607 0.46281 0.36825 0.0
N706 N 0.5171 0.31969 0.39903 0.0
N707 N 0.60038 0.42098 0.36495 0.0
H708 H 0.86549 0.40572 0.0477 0.0
H709 H 0.85552 0.57127 0.1485 0.0
H710 H 0.88987 0.40185 0.12667 0.0
H711 H 0.83884 0.5805 0.06902 0.0
H712 H 0.87385 0.51312 0.14045 0.0
H713 H 0.86133 0.47321 0.05467 0.0
C714 C 0.8704 0.41927 0.06649 0.0
C715 C 0.87774 0.3978 0.08666 0.0
C716 C 0.86658 0.52809 0.12473 0.0
C717 C 0.87268 0.47514 0.09481 0.0
C718 C 0.8561 0.56139 0.1293 0.0
C719 C 0.84528 0.58066 0.10942 0.0
C720 C 0.86599 0.51357 0.10007 0.0
C721 C 0.84683 0.56655 0.08495 0.0
C722 C 0.86799 0.45787 0.07046 0.0
C723 C 0.88402 0.41713 0.11057 0.0
N724 N 0.85656 0.5336 0.08099 0.0
N725 N 0.88096 0.45443 0.114 0.0
H726 H 0.4761 0.07381 0.35454 0.0
H727 H 0.70695 0.13288 0.41699 0.0
H728 H 0.50935 0.11261 0.43197 0.0
H729 H 0.67532 0.09902 0.33891 0.0
H730 H 0.63026 0.11322 0.4245 0.0
H731 H 0.54428 0.07121 0.35014 0.0
C732 C 0.49747 0.08131 0.37071 0.0
C733 C 0.48722 0.09401 0.39358 0.0
C734 C 0.63994 0.1095 0.40579 0.0
C735 C 0.56556 0.09132 0.38862 0.0
C736 C 0.68373 0.12052 0.4015 0.0
C737 C 0.69782 0.11827 0.37719 0.0
C738 C 0.61005 0.09622 0.38562 0.0
C739 C 0.66613 0.10184 0.3579 0.0
C740 C 0.53645 0.07984 0.36817 0.0
C741 C 0.51608 0.10307 0.41391 0.0
N742 N 0.62392 0.09201 0.36247 0.0
N743 N 0.55412 0.102 0.41088 0.0
H744 H 0.48189 0.35856 0.15096 0.0
H745 H 0.63962 0.54449 0.05262 0.0
H746 H 0.4658 0.34167 0.07076 0.0
H747 H 0.6562 0.55953 0.13288 0.0
H748 H 0.56945 0.47475 0.05887 0.0
H749 H 0.53873 0.43672 0.14469 0.0
C750 C 0.48987 0.37142 0.13203 0.0
C751 C 0.46952 0.34333 0.11135 0.0
C752 C 0.58822 0.49357 0.07512 0.0
C753 C 0.53495 0.43274 0.10401 0.0
C754 C 0.6283 0.53341 0.07156 0.0
C755 C 0.65415 0.55757 0.09225 0.0
C756 C 0.57397 0.47774 0.09954 0.0
C757 C 0.63765 0.54176 0.11636 0.0
C758 C 0.52243 0.41608 0.12845 0.0
C759 C 0.48093 0.36199 0.08725 0.0
N760 N 0.59886 0.50264 0.11932 0.0
N761 N 0.51331 0.40538 0.08424 0.0
H762 H 0.85436 0.52097 0.34291 0.0
H763 H 0.83374 0.33215 0.43696 0.0
H764 H 0.81989 0.51636 0.42095 0.0
H765 H 0.85347 0.33231 0.35707 0.0
H766 H 0.83908 0.40525 0.43318 0.0
H767 H 0.8666 0.45861 0.34979 0.0
C768 C 0.84991 0.50717 0.36159 0.0
C769 C 0.83545 0.52338 0.38131 0.0
C770 C 0.84248 0.38931 0.41654 0.0
C771 C 0.84876 0.45148 0.38926 0.0
C772 C 0.83934 0.3476 0.41867 0.0
C773 C 0.84265 0.32591 0.39726 0.0
C774 C 0.84917 0.40937 0.39286 0.0
C775 C 0.85021 0.34753 0.37405 0.0
C776 C 0.85678 0.47145 0.36551 0.0
C777 C 0.83075 0.50462 0.4052 0.0
N778 N 0.85303 0.38793 0.37249 0.0
N779 N 0.8368 0.46915 0.40846 0.0
H780 H 0.14197 0.64049 0.64585 0.0
H781 H 0.14375 0.46897 0.54681 0.0
H782 H 0.14677 0.66034 0.56583 0.0
H783 H 0.12778 0.4444 0.62646 0.0
H784 H 0.13794 0.53568 0.55301 0.0
H785 H 0.12969 0.56544 0.63882 0.0
C786 C 0.14 0.6289 0.62677 0.0
C787 C 0.14588 0.65694 0.6064 0.0
C788 C 0.13525 0.51547 0.56911 0.0
C789 C 0.13218 0.57103 0.5982 0.0
C790 C 0.13859 0.47735 0.56559 0.0
C791 C 0.13677 0.45132 0.58619 0.0
C792 C 0.13036 0.52789 0.59343 0.0
C793 C 0.12968 0.46362 0.61005 0.0
C794 C 0.13296 0.58598 0.62277 0.0
C795 C 0.14263 0.63996 0.5821 0.0
N796 N 0.12722 0.50128 0.61304 0.0
N797 N 0.13651 0.59828 0.57868 0.0
H798 H 0.38938 0.90944 0.92607 0.0
H799 H 0.54559 0.8758 0.83064 0.0
H800 H 0.37275 0.90401 0.84576 0.0
H801 H 0.56782 0.89045 0.91052 0.0
H802 H 0.48647 0.89306 0.8355 0.0
H803 H 0.4588 0.90978 0.9205 0.0
C804 C 0.40056 0.90882 0.90723 0.0
C805 C 0.37494 0.90623 0.88635 0.0
C806 C 0.50452 0.89295 0.85196 0.0
C807 C 0.45436 0.90623 0.87985 0.0
C808 C 0.53832 0.88305 0.8492 0.0
C809 C 0.56145 0.88124 0.87024 0.0
C810 C 0.49343 0.90079 0.87596 0.0
C811 C 0.55074 0.89127 0.89379 0.0
C812 C 0.44025 0.909 0.90407 0.0
C813 C 0.3913 0.90582 0.8624 0.0
N814 N 0.5172 0.90015 0.89604 0.0
N815 N 0.42971 0.90529 0.85982 0.0
H816 H 0.51624 0.64145 0.62935 0.0
H817 H 0.29883 0.44479 0.56283 0.0
H818 H 0.48942 0.63887 0.55023 0.0
H819 H 0.31593 0.46219 0.64294 0.0
H820 H 0.37369 0.50918 0.55719 0.0
H821 H 0.44816 0.56904 0.63388 0.0
C822 C 0.49631 0.62547 0.61287 0.0
C823 C 0.50838 0.64652 0.58941 0.0
C824 C 0.36113 0.49863 0.576 0.0
C825 C 0.43024 0.5636 0.59449 0.0
C826 C 0.31848 0.46178 0.57922 0.0
C827 C 0.30094 0.44829 0.60339 0.0
C828 C 0.38649 0.52194 0.59708 0.0
C829 C 0.32791 0.47163 0.62395 0.0
C830 C 0.45734 0.58417 0.61549 0.0
C831 C 0.48123 0.6241 0.56873 0.0
N832 N 0.36917 0.50735 0.62033 0.0
N833 N 0.44334 0.58401 0.57177 0.0
H834 H 0.20368 0.74166 0.91589 0.0
H835 H 0.17828 0.52237 0.84902 0.0
H836 H 0.21184 0.72713 0.83605 0.0
H837 H 0.19063 0.54274 0.92912 0.0
H838 H 0.17966 0.59315 0.84435 0.0
H839 H 0.18836 0.66473 0.92148 0.0
C840 C 0.20183 0.72219 0.89956 0.0
C841 C 0.20947 0.74095 0.8755 0.0
C842 C 0.18181 0.58204 0.86298 0.0
C843 C 0.19197 0.65324 0.88172 0.0
C844 C 0.18092 0.54153 0.86566 0.0
C845 C 0.1848 0.52679 0.88948 0.0
C846 C 0.18659 0.60808 0.88426 0.0
C847 C 0.18792 0.55298 0.91037 0.0
C848 C 0.19323 0.67839 0.90275 0.0
C849 C 0.20667 0.71424 0.85498 0.0
N850 N 0.18903 0.59251 0.90726 0.0
N851 N 0.19832 0.6719 0.85857 0.0
H852 H 0.33536 0.81686 0.54838 0.0
H853 H 0.50539 0.81775 0.64841 0.0
H854 H 0.32459 0.83005 0.62813 0.0
H855 H 0.52461 0.81848 0.5685 0.0
H856 H 0.44197 0.82753 0.64112 0.0
H857 H 0.40717 0.82252 0.55503 0.0
C858 C 0.34823 0.82133 0.56728 0.0
C859 C 0.32366 0.82258 0.58775 0.0
C860 C 0.46025 0.82599 0.62515 0.0
C861 C 0.40585 0.82882 0.59551 0.0
C862 C 0.49653 0.82038 0.6293 0.0
C863 C 0.52018 0.81693 0.60903 0.0
C864 C 0.44712 0.82774 0.60051 0.0
C865 C 0.50729 0.82087 0.58469 0.0
C866 C 0.38929 0.82458 0.57106 0.0
C867 C 0.3422 0.82867 0.61179 0.0
N868 N 0.47133 0.82559 0.5811 0.0
N869 N 0.38194 0.83115 0.61501 0.0
H870 H 0.55403 0.69645 0.8548 0.0
H871 H 0.33046 0.50372 0.91743 0.0
H872 H 0.52158 0.69597 0.93289 0.0
H873 H 0.35848 0.51415 0.83819 0.0
H874 H 0.40524 0.56733 0.92483 0.0
H875 H 0.48739 0.62319 0.84979 0.0
C876 C 0.5331 0.6808 0.87096 0.0
C877 C 0.54319 0.70266 0.89424 0.0
C878 C 0.39513 0.55532 0.90586 0.0
C879 C 0.46659 0.6187 0.8886 0.0
C880 C 0.35255 0.51888 0.90166 0.0
C881 C 0.33807 0.50394 0.87714 0.0
C882 C 0.42334 0.57673 0.8854 0.0
C883 C 0.36804 0.52488 0.85738 0.0
C884 C 0.49498 0.63893 0.86808 0.0
C885 C 0.51492 0.68055 0.91453 0.0
N886 N 0.40905 0.56034 0.86193 0.0
N887 N 0.47773 0.63995 0.9112 0.0
loop_
_geom_bond_atom_site_label_1
_geom_bond_atom_site_label_2
_geom_bond_distance
_geom_bond_site_symmetry_2
_ccdc_geom_bond_type
Zn0 O6 1.969 . S
Zn0 O7 1.965 . S
Zn0 O11 2.024 . S
Zn0 O16 1.969 . S
Zn1 O8 1.969 . S
Zn1 O14 1.969 . S
Zn1 O15 1.965 . S
Zn1 O17 2.024 . S
C2 O3 1.229 . S
C2 O11 1.058 . S
O3 C2 1.229 . S
C4 O5 1.229 . S
C4 O17 1.058 . S
O5 C4 1.229 . S
O6 Zn0 1.969 . S
O6 C9 1.267 . S
O7 Zn0 1.965 . S
O7 C18 1.260 . S
O8 Zn1 1.969 . S
O8 C18 1.258 . S
C9 O6 1.267 . S
C9 O10 1.228 . S
O10 C9 1.228 . S
O11 Zn0 2.024 . S
O11 C2 1.058 . S
C12 O13 1.228 . S
C12 O14 1.267 . S
O13 C12 1.228 . S
O14 Zn1 1.969 . S
O14 C12 1.267 . S
O15 Zn1 1.965 . S
O15 C19 1.260 . S
O16 Zn0 1.969 . S
O16 C19 1.258 . S
O17 Zn1 2.024 . S
O17 C4 1.058 . S
C18 O7 1.260 . S
C18 O8 1.258 . S
C19 O15 1.260 . S
C19 O16 1.258 . S
Zn20 O26 1.969 . S
Zn20 O27 1.965 . S
Zn20 O31 2.024 . S
Zn20 O36 1.969 . S
Zn21 O28 1.969 . S
Zn21 O34 1.969 . S
Zn21 O35 1.965 . S
Zn21 O37 2.024 . S
C22 O23 1.229 . S
C22 O31 1.058 . S
O23 C22 1.229 . S
C24 O25 1.229 . S
C24 O37 1.058 . S
O25 C24 1.229 . S
O26 Zn20 1.969 . S
O26 C29 1.267 . S
O27 Zn20 1.965 . S
O27 C38 1.260 . S
O28 Zn21 1.969 . S
O28 C38 1.258 . S
C29 O26 1.267 . S
C29 O30 1.228 . S
O30 C29 1.228 . S
O31 Zn20 2.024 . S
O31 C22 1.058 . S
C32 O33 1.228 . S
C32 O34 1.267 . S
O33 C32 1.228 . S
O34 Zn21 1.969 . S
O34 C32 1.267 . S
O35 Zn21 1.965 . S
O35 C39 1.260 . S
O36 Zn20 1.969 . S
O36 C39 1.258 . S
O37 Zn21 2.024 . S
O37 C24 1.058 . S
C38 O27 1.260 . S
C38 O28 1.258 . S
C39 O35 1.260 . S
C39 O36 1.258 . S
Zn40 O46 1.969 . S
Zn40 O47 1.965 . S
Zn40 O51 2.024 . S
Zn40 O56 1.969 . S
Zn41 O48 1.969 . S
Zn41 O54 1.969 . S
Zn41 O55 1.965 . S
Zn41 O57 2.024 . S
C42 O43 1.229 . S
C42 O51 1.058 . S
O43 C42 1.229 . S
C44 O45 1.229 . S
C44 O57 1.058 . S
O45 C44 1.229 . S
O46 Zn40 1.969 . S
O46 C49 1.267 . S
O47 Zn40 1.965 . S
O47 C58 1.260 . S
O48 Zn41 1.969 . S
O48 C58 1.258 . S
C49 O46 1.267 . S
C49 O50 1.228 . S
O50 C49 1.228 . S
O51 Zn40 2.024 . S
O51 C42 1.058 . S
C52 O53 1.228 . S
C52 O54 1.267 . S
O53 C52 1.228 . S
O54 Zn41 1.969 . S
O54 C52 1.267 . S
O55 Zn41 1.965 . S
O55 C59 1.260 . S
O56 Zn40 1.969 . S
O56 C59 1.258 . S
O57 Zn41 2.024 . S
O57 C44 1.058 . S
C58 O47 1.260 . S
C58 O48 1.258 . S
C59 O55 1.260 . S
C59 O56 1.258 . S
Zn60 O66 1.969 . S
Zn60 O67 1.965 . S
Zn60 O71 2.024 . S
Zn60 O76 1.969 . S
Zn61 O68 1.969 . S
Zn61 O74 1.969 . S
Zn61 O75 1.965 . S
Zn61 O77 2.024 . S
C62 O63 1.229 . S
C62 O71 1.058 . S
O63 C62 1.229 . S
C64 O65 1.229 . S
C64 O77 1.058 . S
O65 C64 1.229 . S
O66 Zn60 1.969 . S
O66 C69 1.267 . S
O67 Zn60 1.965 . S
O67 C78 1.260 . S
O68 Zn61 1.969 . S
O68 C78 1.258 . S
C69 O66 1.267 . S
C69 O70 1.228 . S
O70 C69 1.228 . S
O71 Zn60 2.024 . S
O71 C62 1.058 . S
C72 O73 1.228 . S
C72 O74 1.267 . S
O73 C72 1.228 . S
O74 Zn61 1.969 . S
O74 C72 1.267 . S
O75 Zn61 1.965 . S
O75 C79 1.260 . S
O76 Zn60 1.969 . S
O76 C79 1.258 . S
O77 Zn61 2.024 . S
O77 C64 1.058 . S
C78 O67 1.260 . S
C78 O68 1.258 . S
C79 O75 1.260 . S
C79 O76 1.258 . S
Zn80 O86 1.969 . S
Zn80 O87 1.965 . S
Zn80 O91 2.024 . S
Zn80 O96 1.969 . S
Zn81 O88 1.969 . S
Zn81 O94 1.969 . S
Zn81 O95 1.965 . S
Zn81 O97 2.024 . S
C82 O83 1.229 . S
C82 O91 1.058 . S
O83 C82 1.229 . S
C84 O85 1.229 . S
C84 O97 1.058 . S
O85 C84 1.229 . S
O86 Zn80 1.969 . S
O86 C89 1.267 . S
O87 Zn80 1.965 . S
O87 C98 1.260 . S
O88 Zn81 1.969 . S
O88 C98 1.258 . S
C89 O86 1.267 . S
C89 O90 1.228 . S
O90 C89 1.228 . S
O91 Zn80 2.024 . S
O91 C82 1.058 . S
C92 O93 1.228 . S
C92 O94 1.267 . S
O93 C92 1.228 . S
O94 Zn81 1.969 . S
O94 C92 1.267 . S
O95 Zn81 1.965 . S
O95 C99 1.260 . S
O96 Zn80 1.969 . S
O96 C99 1.258 . S
O97 Zn81 2.024 . S
O97 C84 1.058 . S
C98 O87 1.260 . S
C98 O88 1.258 . S
C99 O95 1.260 . S
C99 O96 1.258 . S
Zn100 O106 1.969 . S
Zn100 O107 1.965 . S
Zn100 O111 2.024 . S
Zn100 O116 1.969 . S
Zn101 O108 1.969 . S
Zn101 O114 1.969 . S
Zn101 O115 1.965 . S
Zn101 O117 2.024 . S
C102 O103 1.229 . S
C102 O111 1.058 . S
O103 C102 1.229 . S
C104 O105 1.229 . S
C104 O117 1.058 . S
O105 C104 1.229 . S
O106 Zn100 1.969 . S
O106 C109 1.267 . S
O107 Zn100 1.965 . S
O107 C118 1.260 . S
O108 Zn101 1.969 . S
O108 C118 1.258 . S
C109 O106 1.267 . S
C109 O110 1.228 . S
O110 C109 1.228 . S
O111 Zn100 2.024 . S
O111 C102 1.058 . S
C112 O113 1.228 . S
C112 O114 1.267 . S
O113 C112 1.228 . S
O114 Zn101 1.969 . S
O114 C112 1.267 . S
O115 Zn101 1.965 . S
O115 C119 1.260 . S
O116 Zn100 1.969 . S
O116 C119 1.258 . S
O117 Zn101 2.024 . S
O117 C104 1.058 . S
C118 O107 1.260 . S
C118 O108 1.258 . S
C119 O115 1.260 . S
C119 O116 1.258 . S
Zn120 O126 1.969 . S
Zn120 O127 1.965 . S
Zn120 O131 2.024 . S
Zn120 O136 1.969 . S
Zn121 O128 1.969 . S
Zn121 O134 1.969 . S
Zn121 O135 1.965 . S
Zn121 O137 2.024 . S
C122 O123 1.229 . S
C122 O131 1.058 . S
O123 C122 1.229 . S
C124 O125 1.229 . S
C124 O137 1.058 . S
O125 C124 1.229 . S
O126 Zn120 1.969 . S
O126 C129 1.267 . S
O127 Zn120 1.965 . S
O127 C138 1.260 . S
O128 Zn121 1.969 . S
O128 C138 1.258 . S
C129 O126 1.267 . S
C129 O130 1.228 . S
O130 C129 1.228 . S
O131 Zn120 2.024 . S
O131 C122 1.058 . S
C132 O133 1.228 . S
C132 O134 1.267 . S
O133 C132 1.228 . S
O134 Zn121 1.969 . S
O134 C132 1.267 . S
O135 Zn121 1.965 . S
O135 C139 1.260 . S
O136 Zn120 1.969 . S
O136 C139 1.258 . S
O137 Zn121 2.024 . S
O137 C124 1.058 . S
C138 O127 1.260 . S
C138 O128 1.258 . S
C139 O135 1.260 . S
C139 O136 1.258 . S
Zn140 O146 1.969 . S
Zn140 O147 1.965 . S
Zn140 O151 2.024 . S
Zn140 O156 1.969 . S
Zn141 O148 1.969 . S
Zn141 O154 1.969 . S
Zn141 O155 1.965 . S
Zn141 O157 2.024 . S
C142 O143 1.229 . S
C142 O151 1.058 . S
O143 C142 1.229 . S
C144 O145 1.229 . S
C144 O157 1.058 . S
O145 C144 1.229 . S
O146 Zn140 1.969 . S
O146 C149 1.267 . S
O147 Zn140 1.965 . S
O147 C158 1.260 . S
O148 Zn141 1.969 . S
O148 C158 1.258 . S
C149 O146 1.267 . S
C149 O150 1.228 . S
O150 C149 1.228 . S
O151 Zn140 2.024 . S
O151 C142 1.058 . S
C152 O153 1.228 . S
C152 O154 1.267 . S
O153 C152 1.228 . S
O154 Zn141 1.969 . S
O154 C152 1.267 . S
O155 Zn141 1.965 . S
O155 C159 1.260 . S
O156 Zn140 1.969 . S
O156 C159 1.258 . S
O157 Zn141 2.024 . S
O157 C144 1.058 . S
C158 O147 1.260 . S
C158 O148 1.258 . S
C159 O155 1.260 . S
C159 O156 1.258 . S
Zn160 O166 1.969 . S
Zn160 O167 1.965 . S
Zn160 O171 2.024 . S
Zn160 O176 1.969 . S
Zn161 O168 1.969 . S
Zn161 O174 1.969 . S
Zn161 O175 1.965 . S
Zn161 O177 2.024 . S
C162 O163 1.229 . S
C162 O171 1.058 . S
O163 C162 1.229 . S
C164 O165 1.229 . S
C164 O177 1.058 . S
O165 C164 1.229 . S
O166 Zn160 1.969 . S
O166 C169 1.267 . S
O167 Zn160 1.965 . S
O167 C178 1.260 . S
O168 Zn161 1.969 . S
O168 C178 1.258 . S
C169 O166 1.267 . S
C169 O170 1.228 . S
O170 C169 1.228 . S
O171 Zn160 2.024 . S
O171 C162 1.058 . S
C172 O173 1.228 . S
C172 O174 1.267 . S
O173 C172 1.228 . S
O174 Zn161 1.969 . S
O174 C172 1.267 . S
O175 Zn161 1.965 . S
O175 C179 1.260 . S
O176 Zn160 1.969 . S
O176 C179 1.258 . S
O177 Zn161 2.024 . S
O177 C164 1.058 . S
C178 O167 1.260 . S
C178 O168 1.258 . S
C179 O175 1.260 . S
C179 O176 1.258 . S
Zn180 O186 1.969 . S
Zn180 O187 1.965 . S
Zn180 O191 2.024 . S
Zn180 O196 1.969 . S
Zn181 O188 1.969 . S
Zn181 O194 1.969 . S
Zn181 O195 1.965 . S
Zn181 O197 2.024 . S
C182 O183 1.229 . S
C182 O191 1.058 . S
O183 C182 1.229 . S
C184 O185 1.229 . S
C184 O197 1.058 . S
O185 C184 1.229 . S
O186 Zn180 1.969 . S
O186 C189 1.267 . S
O187 Zn180 1.965 . S
O187 C198 1.260 . S
O188 Zn181 1.969 . S
O188 C198 1.258 . S
C189 O186 1.267 . S
C189 O190 1.228 . S
O190 C189 1.228 . S
O191 Zn180 2.024 . S
O191 C182 1.058 . S
C192 O193 1.228 . S
C192 O194 1.267 . S
O193 C192 1.228 . S
O194 Zn181 1.969 . S
O194 C192 1.267 . S
O195 Zn181 1.965 . S
O195 C199 1.260 . S
O196 Zn180 1.969 . S
O196 C199 1.258 . S
O197 Zn181 2.024 . S
O197 C184 1.058 . S
C198 O187 1.260 . S
C198 O188 1.258 . S
C199 O195 1.260 . S
C199 O196 1.258 . S
Zn200 O206 1.969 . S
Zn200 O207 1.965 . S
Zn200 O211 2.024 . S
Zn200 O216 1.969 . S
Zn201 O208 1.969 . S
Zn201 O214 1.969 . S
Zn201 O215 1.965 . S
Zn201 O217 2.024 . S
C202 O203 1.229 . S
C202 O211 1.058 . S
O203 C202 1.229 . S
C204 O205 1.229 . S
C204 O217 1.058 . S
O205 C204 1.229 . S
O206 Zn200 1.969 . S
O206 C209 1.267 . S
O207 Zn200 1.965 . S
O207 C218 1.260 . S
O208 Zn201 1.969 . S
O208 C218 1.258 . S
C209 O206 1.267 . S
C209 O210 1.228 . S
O210 C209 1.228 . S
O211 Zn200 2.024 . S
O211 C202 1.058 . S
C212 O213 1.228 . S
C212 O214 1.267 . S
O213 C212 1.228 . S
O214 Zn201 1.969 . S
O214 C212 1.267 . S
O215 Zn201 1.965 . S
O215 C219 1.260 . S
O216 Zn200 1.969 . S
O216 C219 1.258 . S
O217 Zn201 2.024 . S
O217 C204 1.058 . S
C218 O207 1.260 . S
C218 O208 1.258 . S
C219 O215 1.260 . S
C219 O216 1.258 . S
Zn220 O226 1.969 . S
Zn220 O227 1.965 . S
Zn220 O231 2.024 . S
Zn220 O236 1.969 . S
Zn221 O228 1.969 . S
Zn221 O234 1.969 . S
Zn221 O235 1.965 . S
Zn221 O237 2.024 . S
C222 O223 1.229 . S
C222 O231 1.058 . S
O223 C222 1.229 . S
C224 O225 1.229 . S
C224 O237 1.058 . S
O225 C224 1.229 . S
O226 Zn220 1.969 . S
O226 C229 1.267 . S
O227 Zn220 1.965 . S
O227 C238 1.260 . S
O228 Zn221 1.969 . S
O228 C238 1.258 . S
C229 O226 1.267 . S
C229 O230 1.228 . S
O230 C229 1.228 . S
O231 Zn220 2.024 . S
O231 C222 1.058 . S
C232 O233 1.228 . S
C232 O234 1.267 . S
O233 C232 1.228 . S
O234 Zn221 1.969 . S
O234 C232 1.267 . S
O235 Zn221 1.965 . S
O235 C239 1.260 . S
O236 Zn220 1.969 . S
O236 C239 1.258 . S
O237 Zn221 2.024 . S
O237 C224 1.058 . S
C238 O227 1.260 . S
C238 O228 1.258 . S
C239 O235 1.260 . S
C239 O236 1.258 . S
H240 C246 0.930 . S
H241 C250 0.930 . S
H242 C255 0.929 . S
H243 C253 0.929 . S
H244 C248 0.929 . S
H245 C254 0.929 . S
C246 H240 0.930 . S
C246 C247 1.367 . S
C246 C254 1.378 . S
C247 C246 1.367 . S
C247 C255 1.433 . S
C248 H244 0.929 . S
C248 C250 1.378 . S
C248 C252 1.350 . S
C249 C252 1.463 . S
C249 C254 1.350 . S
C249 N257 1.427 . S
C250 H241 0.930 . S
C250 C248 1.378 . S
C250 C251 1.367 . S
C251 C250 1.367 . S
C251 C253 1.433 . S
C252 C248 1.350 . S
C252 C249 1.463 . S
C252 N256 1.427 . S
C253 H243 0.929 . S
C253 C251 1.433 . S
C253 N256 1.384 . S
C254 H245 0.929 . S
C254 C246 1.378 . S
C254 C249 1.350 . S
C255 H242 0.929 . S
C255 C247 1.433 . S
C255 N257 1.384 . S
N256 C252 1.427 . S
N256 C253 1.384 . S
N257 C249 1.427 . S
N257 C255 1.384 . S
H258 C264 0.930 . S
H259 C268 0.930 . S
H260 C273 0.929 . S
H261 C271 0.929 . S
H262 C266 0.929 . S
H263 C272 0.929 . S
C264 H258 0.930 . S
C264 C265 1.367 . S
C264 C272 1.378 . S
C265 C264 1.367 . S
C265 C273 1.433 . S
C266 H262 0.929 . S
C266 C268 1.378 1_455 S
C266 C270 1.350 . S
C267 C270 1.463 . S
C267 C272 1.350 . S
C267 N275 1.427 . S
C268 H259 0.930 . S
C268 C266 1.378 1_655 S
C268 C269 1.367 . S
C269 C268 1.367 . S
C269 C271 1.433 . S
C270 C266 1.350 . S
C270 C267 1.463 . S
C270 N274 1.427 . S
C271 H261 0.929 . S
C271 C269 1.433 . S
C271 N274 1.384 1_655 S
C272 H263 0.929 . S
C272 C264 1.378 . S
C272 C267 1.350 . S
C273 H260 0.929 . S
C273 C265 1.433 . S
C273 N275 1.384 . S
N274 C270 1.427 . S
N274 C271 1.384 1_455 S
N275 C267 1.427 . S
N275 C273 1.384 . S
H276 C282 0.930 . S
H277 C286 0.930 . S
H278 C291 0.929 . S
H279 C289 0.929 . S
H280 C284 0.929 . S
H281 C290 0.929 . S
C282 H276 0.930 . S
C282 C283 1.367 . S
C282 C290 1.378 1_545 S
C283 C282 1.367 . S
C283 C291 1.433 . S
C284 H280 0.929 . S
C284 C286 1.378 . S
C284 C288 1.350 . S
C285 C288 1.463 . S
C285 C290 1.350 . S
C285 N293 1.427 . S
C286 H277 0.930 . S
C286 C284 1.378 . S
C286 C287 1.367 . S
C287 C286 1.367 . S
C287 C289 1.433 . S
C288 C284 1.350 . S
C288 C285 1.463 . S
C288 N292 1.427 . S
C289 H279 0.929 . S
C289 C287 1.433 . S
C289 N292 1.384 . S
C290 H281 0.929 . S
C290 C282 1.378 1_565 S
C290 C285 1.350 . S
C291 H278 0.929 . S
C291 C283 1.433 . S
C291 N293 1.384 1_545 S
N292 C288 1.427 . S
N292 C289 1.384 . S
N293 C285 1.427 . S
N293 C291 1.384 1_565 S
H294 C300 0.930 . S
H295 C304 0.930 . S
H296 C309 0.929 . S
H297 C307 0.929 . S
H298 C302 0.929 . S
H299 C308 0.929 . S
C300 H294 0.930 . S
C300 C301 1.367 . S
C300 C308 1.378 . S
C301 C300 1.367 . S
C301 C309 1.433 . S
C302 H298 0.929 . S
C302 C304 1.378 . S
C302 C306 1.350 . S
C303 C306 1.463 . S
C303 C308 1.350 . S
C303 N311 1.427 . S
C304 H295 0.930 . S
C304 C302 1.378 . S
C304 C305 1.367 . S
C305 C304 1.367 . S
C305 C307 1.433 . S
C306 C302 1.350 . S
C306 C303 1.463 . S
C306 N310 1.427 . S
C307 H297 0.929 . S
C307 C305 1.433 . S
C307 N310 1.384 . S
C308 H299 0.929 . S
C308 C300 1.378 . S
C308 C303 1.350 . S
C309 H296 0.929 . S
C309 C301 1.433 . S
C309 N311 1.384 . S
N310 C306 1.427 . S
N310 C307 1.384 . S
N311 C303 1.427 . S
N311 C309 1.384 . S
H312 C318 0.930 1_545 S
H313 C322 0.930 . S
H314 C327 0.929 . S
H315 C325 0.929 . S
H316 C320 0.929 . S
H317 C326 0.929 . S
C318 H312 0.930 1_565 S
C318 C319 1.367 . S
C318 C326 1.378 . S
C319 C318 1.367 . S
C319 C327 1.433 . S
C320 H316 0.929 . S
C320 C322 1.378 1_455 S
C320 C324 1.350 . S
C321 C324 1.463 . S
C321 C326 1.350 . S
C321 N329 1.427 . S
C322 H313 0.930 . S
C322 C320 1.378 1_655 S
C322 C323 1.367 . S
C323 C322 1.367 . S
C323 C325 1.433 . S
C324 C320 1.350 . S
C324 C321 1.463 . S
C324 N328 1.427 . S
C325 H315 0.929 . S
C325 C323 1.433 . S
C325 N328 1.384 1_655 S
C326 H317 0.929 . S
C326 C318 1.378 . S
C326 C321 1.350 . S
C327 H314 0.929 . S
C327 C319 1.433 . S
C327 N329 1.384 . S
N328 C324 1.427 . S
N328 C325 1.384 1_455 S
N329 C321 1.427 . S
N329 C327 1.384 . S
H330 C336 0.930 . S
H331 C340 0.930 . S
H332 C345 0.929 . S
H333 C343 0.929 . S
H334 C338 0.929 . S
H335 C344 0.929 . S
C336 H330 0.930 . S
C336 C337 1.367 . S
C336 C344 1.378 . S
C337 C336 1.367 . S
C337 C345 1.433 . S
C338 H334 0.929 . S
C338 C340 1.378 1_565 S
C338 C342 1.350 . S
C339 C342 1.463 . S
C339 C344 1.350 . S
C339 N347 1.427 . S
C340 H331 0.930 . S
C340 C338 1.378 1_545 S
C340 C341 1.367 . S
C341 C340 1.367 . S
C341 C343 1.433 . S
C342 C338 1.350 . S
C342 C339 1.463 . S
C342 N346 1.427 . S
C343 H333 0.929 . S
C343 C341 1.433 . S
C343 N346 1.384 1_545 S
C344 H335 0.929 . S
C344 C336 1.378 . S
C344 C339 1.350 . S
C345 H332 0.929 . S
C345 C337 1.433 . S
C345 N347 1.384 . S
N346 C342 1.427 . S
N346 C343 1.384 1_565 S
N347 C339 1.427 . S
N347 C345 1.384 . S
H348 C354 0.930 1_565 S
H349 C358 0.930 . S
H350 C363 0.929 . S
H351 C361 0.929 . S
H352 C356 0.929 . S
H353 C362 0.929 . S
C354 H348 0.930 1_545 S
C354 C355 1.367 . S
C354 C362 1.378 . S
C355 C354 1.367 . S
C355 C363 1.433 . S
C356 H352 0.929 . S
C356 C358 1.378 . S
C356 C360 1.350 . S
C357 C360 1.463 . S
C357 C362 1.350 . S
C357 N365 1.427 . S
C358 H349 0.930 . S
C358 C356 1.378 . S
C358 C359 1.367 . S
C359 C358 1.367 . S
C359 C361 1.433 . S
C360 C356 1.350 . S
C360 C357 1.463 . S
C360 N364 1.427 . S
C361 H351 0.929 . S
C361 C359 1.433 . S
C361 N364 1.384 . S
C362 H353 0.929 . S
C362 C354 1.378 . S
C362 C357 1.350 . S
C363 H350 0.929 . S
C363 C355 1.433 . S
C363 N365 1.384 . S
N364 C360 1.427 . S
N364 C361 1.384 . S
N365 C357 1.427 . S
N365 C363 1.384 . S
H366 C372 0.930 . S
H367 C376 0.930 . S
H368 C381 0.929 . S
H369 C379 0.929 . S
H370 C374 0.929 . S
H371 C380 0.929 . S
C372 H366 0.930 . S
C372 C373 1.367 . S
C372 C380 1.378 1_455 S
C373 C372 1.367 . S
C373 C381 1.433 . S
C374 H370 0.929 . S
C374 C376 1.378 . S
C374 C378 1.350 . S
C375 C378 1.463 . S
C375 C380 1.350 . S
C375 N383 1.427 . S
C376 H367 0.930 . S
C376 C374 1.378 . S
C376 C377 1.367 . S
C377 C376 1.367 . S
C377 C379 1.433 . S
C378 C374 1.350 . S
C378 C375 1.463 . S
C378 N382 1.427 . S
C379 H369 0.929 . S
C379 C377 1.433 . S
C379 N382 1.384 . S
C380 H371 0.929 . S
C380 C372 1.378 1_655 S
C380 C375 1.350 . S
C381 H368 0.929 . S
C381 C373 1.433 . S
C381 N383 1.384 1_455 S
N382 C378 1.427 . S
N382 C379 1.384 . S
N383 C375 1.427 . S
N383 C381 1.384 1_655 S
H384 C390 0.930 . S
H385 C394 0.930 . S
H386 C399 0.929 . S
H387 C397 0.939 . S
H388 C392 0.929 . S
H389 C398 0.929 . S
C390 H384 0.930 . S
C390 C391 1.367 . S
C390 C398 1.378 1_565 S
C391 C390 1.367 . S
C391 C399 1.433 . S
C392 H388 0.929 . S
C392 C394 1.378 . S
C392 C396 1.350 . S
C393 C396 1.463 . S
C393 C398 1.350 . S
C393 N401 1.427 . S
C394 H385 0.930 . S
C394 C392 1.378 . S
C394 C395 1.367 . S
C395 C394 1.367 . S
C395 C397 1.433 . S
C396 C392 1.350 . S
C396 C393 1.463 . S
C396 N400 1.427 . S
C397 H387 0.939 . S
C397 C395 1.433 . S
C397 N400 1.384 . S
C398 H389 0.929 . S
C398 C390 1.378 1_545 S
C398 C393 1.350 . S
C399 H386 0.929 . S
C399 C391 1.433 . S
C399 N401 1.384 1_565 S
N400 C396 1.427 . S
N400 C397 1.384 . S
N401 C393 1.427 . S
N401 C399 1.384 1_545 S
H402 C408 0.930 . S
H403 C412 0.930 . S
H404 C417 0.929 . S
H405 C415 0.929 . S
H406 C410 0.929 . S
H407 C416 0.929 . S
C408 H402 0.930 . S
C408 C409 1.367 . S
C408 C416 1.378 . S
C409 C408 1.367 . S
C409 C417 1.433 . S
C410 H406 0.929 . S
C410 C412 1.378 . S
C410 C414 1.350 . S
C411 C414 1.463 . S
C411 C416 1.350 . S
C411 N419 1.427 . S
C412 H403 0.930 . S
C412 C410 1.378 . S
C412 C413 1.367 . S
C413 C412 1.367 . S
C413 C415 1.433 . S
C414 C410 1.350 . S
C414 C411 1.463 . S
C414 N418 1.427 . S
C415 H405 0.929 . S
C415 C413 1.433 . S
C415 N418 1.384 . S
C416 H407 0.929 . S
C416 C408 1.378 . S
C416 C411 1.350 . S
C417 H404 0.929 . S
C417 C409 1.433 . S
C417 N419 1.384 . S
N418 C414 1.427 . S
N418 C415 1.384 . S
N419 C411 1.427 . S
N419 C417 1.384 . S
H420 C426 0.930 . S
H421 C430 0.930 . S
H422 C435 0.929 . S
H423 C433 0.929 . S
H424 C428 0.929 . S
H425 C434 0.929 . S
C426 H420 0.930 . S
C426 C427 1.367 . S
C426 C434 1.378 1_455 S
C427 C426 1.367 . S
C427 C435 1.433 . S
C428 H424 0.929 . S
C428 C430 1.378 . S
C428 C432 1.350 . S
C429 C432 1.463 . S
C429 C434 1.350 . S
C429 N437 1.427 . S
C430 H421 0.930 . S
C430 C428 1.378 . S
C430 C431 1.367 . S
C431 C430 1.367 . S
C431 C433 1.433 . S
C432 C428 1.350 . S
C432 C429 1.463 . S
C432 N436 1.427 . S
C433 H423 0.929 . S
C433 C431 1.433 . S
C433 N436 1.384 . S
C434 H425 0.929 . S
C434 C426 1.378 1_655 S
C434 C429 1.350 . S
C435 H422 0.929 . S
C435 C427 1.433 . S
C435 N437 1.384 1_455 S
N436 C432 1.427 . S
N436 C433 1.384 . S
N437 C429 1.427 . S
N437 C435 1.384 1_655 S
H438 C444 0.930 . S
H439 C448 0.930 . S
H440 C453 0.929 . S
H441 C451 0.929 . S
H442 C446 0.929 . S
H443 C452 0.929 . S
C444 H438 0.930 . S
C444 C445 1.367 . S
C444 C452 1.378 . S
C445 C444 1.367 . S
C445 C453 1.433 . S
C446 H442 0.929 . S
C446 C448 1.378 1_545 S
C446 C450 1.350 . S
C447 C450 1.463 . S
C447 C452 1.350 . S
C447 N455 1.427 . S
C448 H439 0.930 . S
C448 C446 1.378 1_565 S
C448 C449 1.367 . S
C449 C448 1.367 . S
C449 C451 1.433 . S
C450 C446 1.350 . S
C450 C447 1.463 . S
C450 N454 1.427 . S
C451 H441 0.929 . S
C451 C449 1.433 . S
C451 N454 1.384 1_565 S
C452 H443 0.929 . S
C452 C444 1.378 . S
C452 C447 1.350 . S
C453 H440 0.929 . S
C453 C445 1.433 . S
C453 N455 1.384 . S
N454 C450 1.427 . S
N454 C451 1.384 1_545 S
N455 C447 1.427 . S
N455 C453 1.384 . S
H456 C462 0.930 . S
H457 C466 0.930 . S
H458 C471 0.929 . S
H459 C469 0.929 . S
H460 C464 0.929 . S
H461 C470 0.929 . S
C462 H456 0.930 . S
C462 C463 1.367 . S
C462 C470 1.378 . S
C463 C462 1.367 . S
C463 C471 1.433 . S
C464 H460 0.929 . S
C464 C466 1.378 . S
C464 C468 1.350 . S
C465 C468 1.463 . S
C465 C470 1.350 . S
C465 N473 1.427 . S
C466 H457 0.930 . S
C466 C464 1.378 . S
C466 C467 1.367 . S
C467 C466 1.367 . S
C467 C469 1.433 . S
C468 C464 1.350 . S
C468 C465 1.463 . S
C468 N472 1.427 . S
C469 H459 0.929 . S
C469 C467 1.433 . S
C469 N472 1.384 . S
C470 H461 0.929 . S
C470 C462 1.378 . S
C470 C465 1.350 . S
C471 H458 0.929 . S
C471 C463 1.433 . S
C471 N473 1.384 . S
N472 C468 1.427 . S
N472 C469 1.384 . S
N473 C465 1.427 . S
N473 C471 1.384 . S
H474 C480 0.930 . S
H475 C484 0.930 . S
H476 C489 0.929 . S
H477 C487 0.929 . S
H478 C482 0.929 . S
H479 C488 0.929 . S
C480 H474 0.930 . S
C480 C481 1.367 . S
C480 C488 1.378 . S
C481 C480 1.367 . S
C481 C489 1.433 . S
C482 H478 0.929 . S
C482 C484 1.378 . S
C482 C486 1.350 . S
C483 C486 1.463 . S
C483 C488 1.350 . S
C483 N491 1.427 . S
C484 H475 0.930 . S
C484 C482 1.378 . S
C484 C485 1.367 . S
C485 C484 1.367 . S
C485 C487 1.433 . S
C486 C482 1.350 . S
C486 C483 1.463 . S
C486 N490 1.427 . S
C487 H477 0.929 . S
C487 C485 1.433 . S
C487 N490 1.384 . S
C488 H479 0.929 . S
C488 C480 1.378 . S
C488 C483 1.350 . S
C489 H476 0.929 . S
C489 C481 1.433 . S
C489 N491 1.384 . S
N490 C486 1.427 . S
N490 C487 1.384 . S
N491 C483 1.427 . S
N491 C489 1.384 . S
H492 C498 0.930 . S
H493 C502 0.930 . S
H494 C507 0.929 . S
H495 C505 0.929 . S
H496 C500 0.929 . S
H497 C506 0.929 . S
C498 H492 0.930 . S
C498 C499 1.367 . S
C498 C506 1.378 . S
C499 C498 1.367 . S
C499 C507 1.433 . S
C500 H496 0.929 . S
C500 C502 1.378 . S
C500 C504 1.350 . S
C501 C504 1.463 . S
C501 C506 1.350 . S
C501 N509 1.427 . S
C502 H493 0.930 . S
C502 C500 1.378 . S
C502 C503 1.367 . S
C503 C502 1.367 . S
C503 C505 1.433 . S
C504 C500 1.350 . S
C504 C501 1.463 . S
C504 N508 1.427 . S
C505 H495 0.929 . S
C505 C503 1.433 . S
C505 N508 1.384 . S
C506 H497 0.929 . S
C506 C498 1.378 . S
C506 C501 1.350 . S
C507 H494 0.929 . S
C507 C499 1.433 . S
C507 N509 1.384 . S
N508 C504 1.427 . S
N508 C505 1.384 . S
N509 C501 1.427 . S
N509 C507 1.384 . S
H510 C516 0.930 . S
H511 C520 0.930 . S
H512 C525 0.929 . S
H513 C523 0.929 . S
H514 C518 0.929 . S
H515 C524 0.929 . S
C516 H510 0.930 . S
C516 C517 1.367 . S
C516 C524 1.378 . S
C517 C516 1.367 . S
C517 C525 1.433 . S
C518 H514 0.929 . S
C518 C520 1.378 . S
C518 C522 1.350 . S
C519 C522 1.463 . S
C519 C524 1.350 . S
C519 N527 1.427 . S
C520 H511 0.930 . S
C520 C518 1.378 . S
C520 C521 1.367 . S
C521 C520 1.367 . S
C521 C523 1.433 . S
C522 C518 1.350 . S
C522 C519 1.463 . S
C522 N526 1.427 . S
C523 H513 0.929 . S
C523 C521 1.433 . S
C523 N526 1.384 . S
C524 H515 0.929 . S
C524 C516 1.378 . S
C524 C519 1.350 . S
C525 H512 0.929 . S
C525 C517 1.433 . S
C525 N527 1.384 . S
N526 C522 1.427 . S
N526 C523 1.384 . S
N527 C519 1.427 . S
N527 C525 1.384 . S
H528 C534 0.930 . S
H529 C538 0.930 . S
H530 C543 0.929 . S
H531 C541 0.929 . S
H532 C536 0.929 . S
H533 C542 0.929 . S
C534 H528 0.930 . S
C534 C535 1.367 . S
C534 C542 1.378 . S
C535 C534 1.367 . S
C535 C543 1.433 . S
C536 H532 0.929 . S
C536 C538 1.378 . S
C536 C540 1.350 . S
C537 C540 1.463 . S
C537 C542 1.350 . S
C537 N545 1.427 . S
C538 H529 0.930 . S
C538 C536 1.378 . S
C538 C539 1.367 . S
C539 C538 1.367 . S
C539 C541 1.433 . S
C540 C536 1.350 . S
C540 C537 1.463 . S
C540 N544 1.427 . S
C541 H531 0.929 . S
C541 C539 1.433 . S
C541 N544 1.384 . S
C542 H533 0.929 . S
C542 C534 1.378 . S
C542 C537 1.350 . S
C543 H530 0.929 . S
C543 C535 1.433 . S
C543 N545 1.384 . S
N544 C540 1.427 . S
N544 C541 1.384 . S
N545 C537 1.427 . S
N545 C543 1.384 . S
H546 C552 0.930 . S
H547 C556 0.930 . S
H548 C561 0.929 . S
H549 C559 0.929 . S
H550 C554 0.929 . S
H551 C560 0.929 . S
C552 H546 0.930 . S
C552 C553 1.367 . S
C552 C560 1.378 . S
C553 C552 1.367 . S
C553 C561 1.433 . S
C554 H550 0.929 . S
C554 C556 1.378 . S
C554 C558 1.350 . S
C555 C558 1.463 . S
C555 C560 1.350 . S
C555 N563 1.427 . S
C556 H547 0.930 . S
C556 C554 1.378 . S
C556 C557 1.367 . S
C557 C556 1.367 . S
C557 C559 1.433 . S
C558 C554 1.350 . S
C558 C555 1.463 . S
C558 N562 1.427 . S
C559 H549 0.929 . S
C559 C557 1.433 . S
C559 N562 1.384 . S
C560 H551 0.929 . S
C560 C552 1.378 . S
C560 C555 1.350 . S
C561 H548 0.929 . S
C561 C553 1.433 . S
C561 N563 1.384 . S
N562 C558 1.427 . S
N562 C559 1.384 . S
N563 C555 1.427 . S
N563 C561 1.384 . S
H564 C570 0.930 . S
H565 C574 0.930 . S
H566 C579 0.929 . S
H567 C577 0.929 . S
H568 C572 0.929 1_556 S
H569 C578 0.929 1_554 S
C570 H564 0.930 . S
C570 C571 1.367 . S
C570 C578 1.378 . S
C571 C570 1.367 . S
C571 C579 1.433 . S
C572 H568 0.929 1_554 S
C572 C574 1.378 . S
C572 C576 1.350 . S
C573 C576 1.463 1_566 S
C573 C578 1.350 . S
C573 N581 1.427 . S
C574 H565 0.930 . S
C574 C572 1.378 . S
C574 C575 1.367 . S
C575 C574 1.367 . S
C575 C577 1.433 . S
C576 C572 1.350 . S
C576 C573 1.463 1_544 S
C576 N580 1.427 . S
C577 H567 0.929 . S
C577 C575 1.433 . S
C577 N580 1.384 . S
C578 H569 0.929 1_556 S
C578 C570 1.378 . S
C578 C573 1.350 . S
C579 H566 0.929 . S
C579 C571 1.433 . S
C579 N581 1.384 . S
N580 C576 1.427 . S
N580 C577 1.384 . S
N581 C573 1.427 . S
N581 C579 1.384 . S
H582 C588 0.930 . S
H583 C592 0.930 . S
H584 C597 0.929 . S
H585 C595 0.929 . S
H586 C590 0.929 . S
H587 C596 0.929 . S
C588 H582 0.930 . S
C588 C589 1.367 . S
C588 C596 1.378 . S
C589 C588 1.367 . S
C589 C597 1.433 . S
C590 H586 0.929 . S
C590 C592 1.378 . S
C590 C594 1.350 . S
C591 C594 1.463 . S
C591 C596 1.350 . S
C591 N599 1.427 . S
C592 H583 0.930 . S
C592 C590 1.378 . S
C592 C593 1.367 . S
C593 C592 1.367 . S
C593 C595 1.433 . S
C594 C590 1.350 . S
C594 C591 1.463 . S
C594 N598 1.427 . S
C595 H585 0.929 . S
C595 C593 1.433 . S
C595 N598 1.384 . S
C596 H587 0.929 . S
C596 C588 1.378 . S
C596 C591 1.350 . S
C597 H584 0.929 . S
C597 C589 1.433 . S
C597 N599 1.384 . S
N598 C594 1.427 . S
N598 C595 1.384 . S
N599 C591 1.427 . S
N599 C597 1.384 . S
H600 C606 0.930 . S
H601 C610 0.930 . S
H602 C615 0.929 . S
H603 C613 0.929 . S
H604 C608 0.929 . S
H605 C614 0.929 . S
C606 H600 0.930 . S
C606 C607 1.367 . S
C606 C614 1.378 . S
C607 C606 1.367 . S
C607 C615 1.433 . S
C608 H604 0.929 . S
C608 C610 1.378 . S
C608 C612 1.350 . S
C609 C612 1.463 1_456 S
C609 C614 1.350 . S
C609 N617 1.427 . S
C610 H601 0.930 . S
C610 C608 1.378 . S
C610 C611 1.367 . S
C611 C610 1.367 . S
C611 C613 1.433 . S
C612 C608 1.350 . S
C612 C609 1.463 1_654 S
C612 N616 1.427 . S
C613 H603 0.929 . S
C613 C611 1.433 . S
C613 N616 1.384 . S
C614 H605 0.929 . S
C614 C606 1.378 . S
C614 C609 1.350 . S
C615 H602 0.929 . S
C615 C607 1.433 . S
C615 N617 1.384 . S
N616 C612 1.427 . S
N616 C613 1.384 . S
N617 C609 1.427 . S
N617 C615 1.384 . S
H618 C624 0.930 . S
H619 C628 0.930 . S
H620 C633 0.929 . S
H621 C631 0.929 . S
H622 C626 0.929 . S
H623 C632 0.929 . S
C624 H618 0.930 . S
C624 C625 1.367 . S
C624 C632 1.378 . S
C625 C624 1.367 . S
C625 C633 1.433 . S
C626 H622 0.929 . S
C626 C628 1.378 . S
C626 C630 1.350 . S
C627 C630 1.463 1_545 S
C627 C632 1.350 . S
C627 N635 1.427 . S
C628 H619 0.930 . S
C628 C626 1.378 . S
C628 C629 1.367 . S
C629 C628 1.367 . S
C629 C631 1.433 . S
C630 C626 1.350 . S
C630 C627 1.463 1_565 S
C630 N634 1.427 . S
C631 H621 0.929 . S
C631 C629 1.433 . S
C631 N634 1.384 . S
C632 H623 0.929 . S
C632 C624 1.378 . S
C632 C627 1.350 . S
C633 H620 0.929 . S
C633 C625 1.433 . S
C633 N635 1.384 . S
N634 C630 1.427 . S
N634 C631 1.384 . S
N635 C627 1.427 . S
N635 C633 1.384 . S
H636 C642 0.930 . S
H637 C646 0.930 . S
H638 C651 0.929 . S
H639 C649 0.929 . S
H640 C644 0.929 . S
H641 C650 0.929 . S
C642 H636 0.930 . S
C642 C643 1.367 . S
C642 C650 1.378 . S
C643 C642 1.367 . S
C643 C651 1.433 . S
C644 H640 0.929 . S
C644 C646 1.378 . S
C644 C648 1.350 . S
C645 C648 1.463 1_554 S
C645 C650 1.350 . S
C645 N653 1.427 . S
C646 H637 0.930 . S
C646 C644 1.378 . S
C646 C647 1.367 . S
C647 C646 1.367 . S
C647 C649 1.433 . S
C648 C644 1.350 . S
C648 C645 1.463 1_556 S
C648 N652 1.427 . S
C649 H639 0.929 . S
C649 C647 1.433 . S
C649 N652 1.384 . S
C650 H641 0.929 . S
C650 C642 1.378 . S
C650 C645 1.350 . S
C651 H638 0.929 . S
C651 C643 1.433 . S
C651 N653 1.384 . S
N652 C648 1.427 . S
N652 C649 1.384 . S
N653 C645 1.427 . S
N653 C651 1.384 . S
H654 C660 0.930 . S
H655 C664 0.930 . S
H656 C669 0.929 . S
H657 C667 0.929 . S
H658 C662 0.929 1_455 S
H659 C668 0.929 1_655 S
C660 H654 0.930 . S
C660 C661 1.367 . S
C660 C668 1.378 . S
C661 C660 1.367 . S
C661 C669 1.433 . S
C662 H658 0.929 1_655 S
C662 C664 1.378 . S
C662 C666 1.350 . S
C663 C666 1.463 1_455 S
C663 C668 1.350 . S
C663 N671 1.427 . S
C664 H655 0.930 . S
C664 C662 1.378 . S
C664 C665 1.367 . S
C665 C664 1.367 . S
C665 C667 1.433 . S
C666 C662 1.350 . S
C666 C663 1.463 1_655 S
C666 N670 1.427 . S
C667 H657 0.929 . S
C667 C665 1.433 . S
C667 N670 1.384 . S
C668 H659 0.929 1_455 S
C668 C660 1.378 . S
C668 C663 1.350 . S
C669 H656 0.929 . S
C669 C661 1.433 . S
C669 N671 1.384 . S
N670 C666 1.427 . S
N670 C667 1.384 . S
N671 C663 1.427 . S
N671 C669 1.384 . S
H672 C678 0.930 . S
H673 C682 0.930 . S
H674 C687 0.929 . S
H675 C685 0.929 . S
H676 C680 0.929 . S
H677 C686 0.929 . S
C678 H672 0.930 . S
C678 C679 1.367 . S
C678 C686 1.378 . S
C679 C678 1.367 . S
C679 C687 1.433 . S
C680 H676 0.929 . S
C680 C682 1.378 . S
C680 C684 1.350 . S
C681 C684 1.463 . S
C681 C686 1.350 . S
C681 N689 1.427 . S
C682 H673 0.930 . S
C682 C680 1.378 . S
C682 C683 1.367 . S
C683 C682 1.367 . S
C683 C685 1.433 . S
C684 C680 1.350 . S
C684 C681 1.463 . S
C684 N688 1.427 . S
C685 H675 0.929 . S
C685 C683 1.433 . S
C685 N688 1.384 . S
C686 H677 0.929 . S
C686 C678 1.378 . S
C686 C681 1.350 . S
C687 H674 0.929 . S
C687 C679 1.433 . S
C687 N689 1.384 . S
N688 C684 1.427 . S
N688 C685 1.384 . S
N689 C681 1.427 . S
N689 C687 1.384 . S
H690 C696 0.930 . S
H691 C700 0.930 . S
H692 C705 0.929 . S
H693 C703 0.929 . S
H694 C698 0.929 . S
H695 C704 0.929 . S
C696 H690 0.930 . S
C696 C697 1.367 . S
C696 C704 1.378 . S
C697 C696 1.367 . S
C697 C705 1.433 . S
C698 H694 0.929 . S
C698 C700 1.378 . S
C698 C702 1.350 . S
C699 C702 1.463 . S
C699 C704 1.350 . S
C699 N707 1.427 . S
C700 H691 0.930 . S
C700 C698 1.378 . S
C700 C701 1.367 . S
C701 C700 1.367 . S
C701 C703 1.433 . S
C702 C698 1.350 . S
C702 C699 1.463 . S
C702 N706 1.427 . S
C703 H693 0.929 . S
C703 C701 1.433 . S
C703 N706 1.384 . S
C704 H695 0.929 . S
C704 C696 1.378 . S
C704 C699 1.350 . S
C705 H692 0.929 . S
C705 C697 1.433 . S
C705 N707 1.384 . S
N706 C702 1.427 . S
N706 C703 1.384 . S
N707 C699 1.427 . S
N707 C705 1.384 . S
H708 C714 0.930 . S
H709 C718 0.930 . S
H710 C723 0.929 . S
H711 C721 0.929 . S
H712 C716 0.929 . S
H713 C722 0.929 . S
C714 H708 0.930 . S
C714 C715 1.367 . S
C714 C722 1.378 . S
C715 C714 1.367 . S
C715 C723 1.433 . S
C716 H712 0.929 . S
C716 C718 1.378 . S
C716 C720 1.350 . S
C717 C720 1.463 . S
C717 C722 1.350 . S
C717 N725 1.427 . S
C718 H709 0.930 . S
C718 C716 1.378 . S
C718 C719 1.367 . S
C719 C718 1.367 . S
C719 C721 1.433 . S
C720 C716 1.350 . S
C720 C717 1.463 . S
C720 N724 1.427 . S
C721 H711 0.929 . S
C721 C719 1.433 . S
C721 N724 1.384 . S
C722 H713 0.929 . S
C722 C714 1.378 . S
C722 C717 1.350 . S
C723 H710 0.929 . S
C723 C715 1.433 . S
C723 N725 1.384 . S
N724 C720 1.427 . S
N724 C721 1.384 . S
N725 C717 1.427 . S
N725 C723 1.384 . S
H726 C732 0.930 . S
H727 C736 0.930 . S
H728 C741 0.929 . S
H729 C739 0.929 . S
H730 C734 0.929 . S
H731 C740 0.929 . S
C732 H726 0.930 . S
C732 C733 1.367 . S
C732 C740 1.378 . S
C733 C732 1.367 . S
C733 C741 1.433 . S
C734 H730 0.929 . S
C734 C736 1.378 . S
C734 C738 1.350 . S
C735 C738 1.463 . S
C735 C740 1.350 . S
C735 N743 1.427 . S
C736 H727 0.930 . S
C736 C734 1.378 . S
C736 C737 1.367 . S
C737 C736 1.367 . S
C737 C739 1.433 . S
C738 C734 1.350 . S
C738 C735 1.463 . S
C738 N742 1.427 . S
C739 H729 0.929 . S
C739 C737 1.433 . S
C739 N742 1.384 . S
C740 H731 0.929 . S
C740 C732 1.378 . S
C740 C735 1.350 . S
C741 H728 0.929 . S
C741 C733 1.433 . S
C741 N743 1.384 . S
N742 C738 1.427 . S
N742 C739 1.384 . S
N743 C735 1.427 . S
N743 C741 1.384 . S
H744 C750 0.930 . S
H745 C754 0.930 . S
H746 C759 0.929 . S
H747 C757 0.929 . S
H748 C752 0.929 . S
H749 C758 0.929 . S
C750 H744 0.930 . S
C750 C751 1.367 . S
C750 C758 1.378 . S
C751 C750 1.367 . S
C751 C759 1.433 . S
C752 H748 0.929 . S
C752 C754 1.378 . S
C752 C756 1.350 . S
C753 C756 1.463 . S
C753 C758 1.350 . S
C753 N761 1.427 . S
C754 H745 0.930 . S
C754 C752 1.378 . S
C754 C755 1.367 . S
C755 C754 1.367 . S
C755 C757 1.433 . S
C756 C752 1.350 . S
C756 C753 1.463 . S
C756 N760 1.427 . S
C757 H747 0.929 . S
C757 C755 1.433 . S
C757 N760 1.384 . S
C758 H749 0.929 . S
C758 C750 1.378 . S
C758 C753 1.350 . S
C759 H746 0.929 . S
C759 C751 1.433 . S
C759 N761 1.384 . S
N760 C756 1.427 . S
N760 C757 1.384 . S
N761 C753 1.427 . S
N761 C759 1.384 . S
H762 C768 0.930 . S
H763 C772 0.930 . S
H764 C777 0.929 . S
H765 C775 0.929 . S
H766 C770 0.929 . S
H767 C776 0.929 . S
C768 H762 0.930 . S
C768 C769 1.367 . S
C768 C776 1.378 . S
C769 C768 1.367 . S
C769 C777 1.433 . S
C770 H766 0.929 . S
C770 C772 1.378 . S
C770 C774 1.350 . S
C771 C774 1.463 . S
C771 C776 1.350 . S
C771 N779 1.427 . S
C772 H763 0.930 . S
C772 C770 1.378 . S
C772 C773 1.367 . S
C773 C772 1.367 . S
C773 C775 1.433 . S
C774 C770 1.350 . S
C774 C771 1.463 . S
C774 N778 1.427 . S
C775 H765 0.929 . S
C775 C773 1.433 . S
C775 N778 1.384 . S
C776 H767 0.929 . S
C776 C768 1.378 . S
C776 C771 1.350 . S
C777 H764 0.929 . S
C777 C769 1.433 . S
C777 N779 1.384 . S
N778 C774 1.427 . S
N778 C775 1.384 . S
N779 C771 1.427 . S
N779 C777 1.384 . S
H780 C786 0.930 . S
H781 C790 0.930 . S
H782 C795 0.929 . S
H783 C793 0.929 . S
H784 C788 0.929 . S
H785 C794 0.929 . S
C786 H780 0.930 . S
C786 C787 1.367 . S
C786 C794 1.378 . S
C787 C786 1.367 . S
C787 C795 1.433 . S
C788 H784 0.929 . S
C788 C790 1.378 . S
C788 C792 1.350 . S
C789 C792 1.463 . S
C789 C794 1.350 . S
C789 N797 1.427 . S
C790 H781 0.930 . S
C790 C788 1.378 . S
C790 C791 1.367 . S
C791 C790 1.367 . S
C791 C793 1.433 . S
C792 C788 1.350 . S
C792 C789 1.463 . S
C792 N796 1.427 . S
C793 H783 0.929 . S
C793 C791 1.433 . S
C793 N796 1.384 . S
C794 H785 0.929 . S
C794 C786 1.378 . S
C794 C789 1.350 . S
C795 H782 0.929 . S
C795 C787 1.433 . S
C795 N797 1.384 . S
N796 C792 1.427 . S
N796 C793 1.384 . S
N797 C789 1.427 . S
N797 C795 1.384 . S
H798 C804 0.930 . S
H799 C808 0.930 . S
H800 C813 0.929 . S
H801 C811 0.929 . S
H802 C806 0.929 . S
H803 C812 0.929 . S
C804 H798 0.930 . S
C804 C805 1.367 . S
C804 C812 1.378 . S
C805 C804 1.367 . S
C805 C813 1.433 . S
C806 H802 0.929 . S
C806 C808 1.378 . S
C806 C810 1.350 . S
C807 C810 1.463 . S
C807 C812 1.350 . S
C807 N815 1.427 . S
C808 H799 0.930 . S
C808 C806 1.378 . S
C808 C809 1.367 . S
C809 C808 1.367 . S
C809 C811 1.433 . S
C810 C806 1.350 . S
C810 C807 1.463 . S
C810 N814 1.427 . S
C811 H801 0.929 . S
C811 C809 1.433 . S
C811 N814 1.384 . S
C812 H803 0.929 . S
C812 C804 1.378 . S
C812 C807 1.350 . S
C813 H800 0.929 . S
C813 C805 1.433 . S
C813 N815 1.384 . S
N814 C810 1.427 . S
N814 C811 1.384 . S
N815 C807 1.427 . S
N815 C813 1.384 . S
H816 C822 0.930 . S
H817 C826 0.930 . S
H818 C831 0.929 . S
H819 C829 0.929 . S
H820 C824 0.929 . S
H821 C830 0.929 . S
C822 H816 0.930 . S
C822 C823 1.367 . S
C822 C830 1.378 . S
C823 C822 1.367 . S
C823 C831 1.433 . S
C824 H820 0.929 . S
C824 C826 1.378 . S
C824 C828 1.350 . S
C825 C828 1.463 . S
C825 C830 1.350 . S
C825 N833 1.427 . S
C826 H817 0.930 . S
C826 C824 1.378 . S
C826 C827 1.367 . S
C827 C826 1.367 . S
C827 C829 1.433 . S
C828 C824 1.350 . S
C828 C825 1.463 . S
C828 N832 1.427 . S
C829 H819 0.929 . S
C829 C827 1.433 . S
C829 N832 1.384 . S
C830 H821 0.929 . S
C830 C822 1.378 . S
C830 C825 1.350 . S
C831 H818 0.929 . S
C831 C823 1.433 . S
C831 N833 1.384 . S
N832 C828 1.427 . S
N832 C829 1.384 . S
N833 C825 1.427 . S
N833 C831 1.384 . S
H834 C840 0.930 . S
H835 C844 0.930 . S
H836 C849 0.929 . S
H837 C847 0.929 . S
H838 C842 0.929 . S
H839 C848 0.929 . S
C840 H834 0.930 . S
C840 C841 1.367 . S
C840 C848 1.378 . S
C841 C840 1.367 . S
C841 C849 1.433 . S
C842 H838 0.929 . S
C842 C844 1.378 . S
C842 C846 1.350 . S
C843 C846 1.463 . S
C843 C848 1.350 . S
C843 N851 1.427 . S
C844 H835 0.930 . S
C844 C842 1.378 . S
C844 C845 1.367 . S
C845 C844 1.367 . S
C845 C847 1.433 . S
C846 C842 1.350 . S
C846 C843 1.463 . S
C846 N850 1.427 . S
C847 H837 0.929 . S
C847 C845 1.433 . S
C847 N850 1.384 . S
C848 H839 0.929 . S
C848 C840 1.378 . S
C848 C843 1.350 . S
C849 H836 0.929 . S
C849 C841 1.433 . S
C849 N851 1.384 . S
N850 C846 1.427 . S
N850 C847 1.384 . S
N851 C843 1.427 . S
N851 C849 1.384 . S
H852 C858 0.930 . S
H853 C862 0.930 . S
H854 C867 0.929 . S
H855 C865 0.929 . S
H856 C860 0.929 . S
H857 C866 0.929 . S
C858 H852 0.930 . S
C858 C859 1.367 . S
C858 C866 1.378 . S
C859 C858 1.367 . S
C859 C867 1.433 . S
C860 H856 0.929 . S
C860 C862 1.378 . S
C860 C864 1.350 . S
C861 C864 1.463 . S
C861 C866 1.350 . S
C861 N869 1.427 . S
C862 H853 0.930 . S
C862 C860 1.378 . S
C862 C863 1.367 . S
C863 C862 1.367 . S
C863 C865 1.433 . S
C864 C860 1.350 . S
C864 C861 1.463 . S
C864 N868 1.427 . S
C865 H855 0.929 . S
C865 C863 1.433 . S
C865 N868 1.384 . S
C866 H857 0.929 . S
C866 C858 1.378 . S
C866 C861 1.350 . S
C867 H854 0.929 . S
C867 C859 1.433 . S
C867 N869 1.384 . S
N868 C864 1.427 . S
N868 C865 1.384 . S
N869 C861 1.427 . S
N869 C867 1.384 . S
H870 C876 0.930 . S
H871 C880 0.930 . S
H872 C885 0.929 . S
H873 C883 0.929 . S
H874 C878 0.929 . S
H875 C884 0.929 . S
C876 H870 0.930 . S
C876 C877 1.367 . S
C876 C884 1.378 . S
C877 C876 1.367 . S
C877 C885 1.433 . S
C878 H874 0.929 . S
C878 C880 1.378 . S
C878 C882 1.350 . S
C879 C882 1.463 . S
C879 C884 1.350 . S
C879 N887 1.427 . S
C880 H871 0.930 . S
C880 C878 1.378 . S
C880 C881 1.367 . S
C881 C880 1.367 . S
C881 C883 1.433 . S
C882 C878 1.350 . S
C882 C879 1.463 . S
C882 N886 1.427 . S
C883 H873 0.929 . S
C883 C881 1.433 . S
C883 N886 1.384 . S
C884 H875 0.929 . S
C884 C876 1.378 . S
C884 C879 1.350 . S
C885 H872 0.929 . S
C885 C877 1.433 . S
C885 N887 1.384 . S
N886 C882 1.427 . S
N886 C883 1.384 . S
N887 C879 1.427 . S
N887 C885 1.384 . S
C247 C49 1.079 1_455 S
C251 C2 1.112 . S
C265 C72 1.090 1_565 S
C269 C24 1.104 . S
C283 C42 1.099 . S
C287 C89 1.073 . S
C301 C64 1.109 . S
C305 C112 1.085 1_455 S
C319 C9 1.068 1_565 S
C323 C82 1.106 . S
C337 C32 1.092 . S
C341 C104 1.102 . S
C355 C212 1.074 1_545 S
C359 C124 1.113 . S
C373 C142 1.111 . S
C377 C229 1.081 . S
C391 C164 1.093 . S
C395 C132 1.082 1_655 S
C409 C182 1.107 . S
C413 C149 1.087 1_545 S
C427 C204 1.100 . S
C431 C172 1.072 . S
C445 C189 1.074 1_655 S
C449 C222 1.098 . S
C463 C78 1.756 . S
C467 C19 1.747 . S
C481 C38 1.756 . S
C485 C99 1.747 . S
C499 C59 1.755 . S
C503 C118 1.748 . S
C517 C138 1.748 . S
C521 C199 1.754 . S
C535 C159 1.748 . S
C539 C218 1.754 . S
C553 C178 1.750 . S
C557 C239 1.753 . S
C571 C158 1.960 . S
C575 C18 1.964 . S
C589 C39 1.956 . S
C593 C179 1.962 . S
C607 C198 1.957 . S
C611 C58 1.951 . S
C625 C79 1.964 . S
C629 C219 1.961 . S
C643 C98 1.961 . S
C647 C238 1.955 . S
C661 C139 1.953 . S
C665 C119 1.950 . S
C679 C52 1.405 . S
C683 C4 1.282 . S
C697 C22 1.283 . S
C701 C69 1.393 . S
C715 C44 1.290 . S
C719 C92 1.393 . S
C733 C62 1.295 . S
C737 C109 1.397 . S
C751 C12 1.393 . S
C755 C84 1.289 . S
C769 C29 1.396 . S
C773 C102 1.275 . S
C787 C209 1.393 . S
C791 C122 1.286 . S
C805 C144 1.279 . S
C809 C232 1.394 . S
C823 C162 1.281 . S
C827 C129 1.405 . S
C841 C152 1.404 . S
C845 C184 1.286 . S
C859 C202 1.274 . S
C863 C169 1.396 . S
C877 C224 1.284 . S
C881 C192 1.404 . S
