# Generated by pormake.
# Topology smu, (6)-cn, num edge types: 1
# Building blocks:
#     Node 0, Type 0, BuildingBlock: PAMTOO_clean_sbu_0, # of connection points: 6
#     Node 1, Type 0, BuildingBlock: PAMTOO_clean_sbu_0, # of connection points: 6
#     Node 2, Type 0, BuildingBlock: PAMTOO_clean_sbu_0, # of connection points: 6
#     Node 3, Type 0, BuildingBlock: PAMTOO_clean_sbu_0, # of connection points: 6
#     Node 4, Type 0, BuildingBlock: PAMTOO_clean_sbu_0, # of connection points: 6
#     Node 5, Type 0, BuildingBlock: PAMTOO_clean_sbu_0, # of connection points: 6
#     Edge 6, Type (0, 0), BuildingBlock: EZIPEK_clean_linker_0, # of connection points: 2
#     Edge 7, Type (0, 0), BuildingBlock: EZIPEK_clean_linker_0, # of connection points: 2
#     Edge 8, Type (0, 0), BuildingBlock: EZIPEK_clean_linker_0, # of connection points: 2
#     Edge 9, Type (0, 0), BuildingBlock: EZIPEK_clean_linker_0, # of connection points: 2
#     Edge 10, Type (0, 0), BuildingBlock: EZIPEK_clean_linker_0, # of connection points: 2
#     Edge 11, Type (0, 0), BuildingBlock: EZIPEK_clean_linker_0, # of connection points: 2
#     Edge 12, Type (0, 0), BuildingBlock: EZIPEK_clean_linker_0, # of connection points: 2
#     Edge 13, Type (0, 0), BuildingBlock: EZIPEK_clean_linker_0, # of connection points: 2
#     Edge 14, Type (0, 0), BuildingBlock: EZIPEK_clean_linker_0, # of connection points: 2
#     Edge 15, Type (0, 0), BuildingBlock: EZIPEK_clean_linker_0, # of connection points: 2
#     Edge 16, Type (0, 0), BuildingBlock: EZIPEK_clean_linker_0, # of connection points: 2
#     Edge 17, Type (0, 0), BuildingBlock: EZIPEK_clean_linker_0, # of connection points: 2
#     Edge 18, Type (0, 0), BuildingBlock: EZIPEK_clean_linker_0, # of connection points: 2
#     Edge 19, Type (0, 0), BuildingBlock: EZIPEK_clean_linker_0, # of connection points: 2
#     Edge 20, Type (0, 0), BuildingBlock: EZIPEK_clean_linker_0, # of connection points: 2
#     Edge 21, Type (0, 0), BuildingBlock: EZIPEK_clean_linker_0, # of connection points: 2
#     Edge 22, Type (0, 0), BuildingBlock: EZIPEK_clean_linker_0, # of connection points: 2
#     Edge 23, Type (0, 0), BuildingBlock: EZIPEK_clean_linker_0, # of connection points: 2
# Relax obj value: 0.228
# Max RMSD: 0.334
# Mean RMSD: 0.334
data_MOF--net-smu--node1-PAMTOO_clean_sbu_0--edge1-EZIPEK_clean_linker_0
_symmetry_space_group_name_H-M    P1
_symmetry_Int_Tables_number       1
_symmetry_cell_setting            triclinic
loop_
_symmetry_equiv_pos_as_xyz
'x, y, z'
_cell_length_a     31.737867
_cell_length_b     31.583565
_cell_length_c     20.367438
_cell_angle_alpha  89.979352
_cell_angle_beta   90.245922
_cell_angle_gamma 120.00013
loop_
_atom_site_label
_atom_site_type_symbol
_atom_site_fract_x
_atom_site_fract_y
_atom_site_fract_z
_atom_type_partial_charge
Dy0 Dy 0.3923 0.0821 0.24796 0.0
Dy1 Dy 0.31769 0.12243 0.24065 0.0
C2 C 0.32343 0.06829 0.37381 0.0
O3 O 0.31819 1.01238 0.24104 0.0
O4 O 0.26619 0.04399 0.25045 0.0
O5 O 0.44223 0.06903 0.3055 0.0
O6 O 0.44349 0.06636 0.19942 0.0
O7 O 0.34011 0.11385 0.1368 0.0
O8 O 0.35431 0.05129 0.15461 0.0
O9 O 0.38498 0.17797 0.29035 0.0
O10 O 0.43132 0.16284 0.22352 0.0
O11 O 0.25625 0.12453 0.19618 0.0
O12 O 0.31016 0.18608 0.25344 0.0
C13 C 0.27392 1.00703 0.24508 0.0
O14 O 0.36302 0.07042 0.35003 0.0
O15 O 0.29981 0.08666 0.34141 0.0
C16 C 0.51986 0.09711 0.25457 0.0
C17 C 0.62385 0.14204 0.25998 0.0
C18 C 0.59698 0.14708 0.31195 0.0
C19 C 0.54593 0.12362 0.31025 0.0
C20 C 0.54645 0.09886 0.19885 0.0
C21 C 0.59741 0.12251 0.20078 0.0
C22 C 0.46562 0.06726 0.25393 0.0
C23 C 0.34115 0.07496 0.11486 0.0
C24 C 0.42595 0.19375 0.26014 0.0
C25 C 0.23616 0.18615 0.22771 0.0
C26 C 0.17677 0.22901 0.23534 0.0
C27 C 0.16999 0.19625 0.18448 0.0
C28 C 0.19961 0.17519 0.18055 0.0
C29 C 0.24273 0.21886 0.27881 0.0
C30 C 0.21325 0.24007 0.28255 0.0
C31 C 0.27112 0.16882 0.21706 0.0
H32 H 0.61458 0.16928 0.35459 0.0
H33 H 0.52701 0.12616 0.35286 0.0
H34 H 0.52781 0.08158 0.15349 0.0
H35 H 0.61537 0.12501 0.15491 0.0
H36 H 0.14151 0.18668 0.14824 0.0
H37 H 0.19445 0.15089 0.13992 0.0
H38 H 0.27099 0.22859 0.31538 0.0
H39 H 0.21835 0.26461 0.32283 0.0
Dy40 Dy 0.71279 0.63927 0.25085 0.0
Dy41 Dy 0.82774 0.71991 0.25717 0.0
C42 C 0.76222 0.69314 0.38846 0.0
O43 O 0.71379 0.71169 0.26015 0.0
O44 O 0.79579 0.76719 0.2429 0.0
O45 O 0.64508 0.58959 0.29908 0.0
O46 O 0.65137 0.58598 0.19378 0.0
O47 O 0.80579 0.71569 0.14945 0.0
O48 O 0.72273 0.68017 0.15843 0.0
O49 O 0.81812 0.64883 0.29253 0.0
O50 O 0.75606 0.60289 0.22414 0.0
O51 O 0.89672 0.7357 0.21741 0.0
O52 O 0.89417 0.7815 0.29671 0.0
C53 C 0.75055 0.75678 0.25075 0.0
O54 O 0.73023 0.65257 0.35857 0.0
O55 O 0.80017 0.7265 0.35602 0.0
C56 C 0.60038 0.51094 0.24789 0.0
C57 C 0.54301 0.4068 0.25764 0.0
C58 C 0.58177 0.43474 0.30214 0.0
C59 C 0.6088 0.48602 0.29865 0.0
C60 C 0.56815 0.48337 0.19757 0.0
C61 C 0.54139 0.43229 0.20119 0.0
C62 C 0.62494 0.56514 0.24536 0.0
C63 C 0.76292 0.70536 0.12505 0.0
C64 C 0.79354 0.60889 0.25849 0.0
C65 C 0.97464 0.80044 0.25677 0.0
C66 C 0.07686 0.85424 0.25375 0.0
C67 C 0.05154 0.81106 0.21709 0.0
C68 C 1.00078 0.78448 0.21831 0.0
C69 C 1.00023 0.84283 0.29519 0.0
C70 C 0.05104 0.8697 0.29341 0.0
C71 C 0.92104 0.77192 0.25795 0.0
H72 H 0.59258 0.41804 0.33969 0.0
H73 H 0.63624 0.50605 0.33575 0.0
H74 H 0.56335 0.50139 0.15528 0.0
H75 H 0.51927 0.41331 0.15899 0.0
H76 H 0.07102 0.7991 0.1856 0.0
H77 H 0.98202 0.75169 0.18863 0.0
H78 H 0.981 0.85561 0.32578 0.0
H79 H 0.07021 0.90322 0.32161 0.0
Dy80 Dy 0.94737 0.31831 0.25523 0.0
Dy81 Dy 0.91006 0.20289 0.25948 0.0
C82 C 0.95718 0.27168 0.38876 0.0
O83 O 0.01745 0.31277 0.26029 0.0
O84 O 0.98789 0.22905 0.25289 0.0
O85 O 0.96574 0.3867 0.30376 0.0
O86 O 0.95628 0.38005 0.19844 0.0
O87 O 0.93171 0.22743 0.15315 0.0
O88 O 0.98127 0.31014 0.16652 0.0
O89 O 0.85297 0.21581 0.30084 0.0
O90 O 0.86744 0.27432 0.22805 0.0
O91 O 0.85819 0.13659 0.20888 0.0
O92 O 0.89669 0.13314 0.29746 0.0
C93 C 0.02399 0.27407 0.25752 0.0
O94 O 0.94771 0.30392 0.36236 0.0
O95 O 0.94657 0.23053 0.35822 0.0
C96 C 0.93086 0.43073 0.2522 0.0
C97 C 0.87934 0.48293 0.25432 0.0
C98 C 0.89674 0.47345 0.31286 0.0
C99 C 0.92224 0.44769 0.31184 0.0
C100 C 0.91252 0.4396 0.19383 0.0
C101 C 0.88696 0.46519 0.19494 0.0
C102 C 0.96114 0.40661 0.25 0.0
C103 C 0.9663 0.27044 0.13174 0.0
C104 C 0.8366 0.23859 0.26538 0.0
C105 C 0.83975 0.0561 0.24566 0.0
C106 C 0.79333 0.9537 0.23923 0.0
C107 C 0.82552 0.98226 0.18946 0.0
C108 C 0.8482 0.03329 0.1923 0.0
C109 C 0.8067 0.02765 0.2944 0.0
C110 C 0.7831 0.97675 0.29074 0.0
C111 C 0.86528 0.10947 0.25075 0.0
H112 H 0.89152 0.48696 0.35922 0.0
H113 H 0.93603 0.4419 0.35767 0.0
H114 H 0.9187 0.42758 0.14689 0.0
H115 H 0.87412 0.47226 0.14914 0.0
H116 H 0.83422 0.96514 0.14977 0.0
H117 H 0.87349 0.05495 0.15408 0.0
H118 H 0.7996 0.04481 0.33563 0.0
H119 H 0.75871 0.95528 0.32987 0.0
Dy120 Dy 0.08529 0.38752 0.7669 0.0
Dy121 Dy 0.12195 0.30663 0.76395 0.0
C122 C 0.06623 0.32341 0.6362 0.0
O123 O 0.01798 0.3126 0.79049 0.0
O124 O 0.04339 0.25992 0.7537 0.0
O125 O 0.05812 0.43264 0.72507 0.0
O126 O 0.08247 0.44259 0.82628 0.0
O127 O 0.11522 0.32108 0.87234 0.0
O128 O 0.06395 0.35172 0.86292 0.0
O129 O 0.19087 0.37532 0.74944 0.0
O130 O 0.16769 0.43212 0.76755 0.0
O131 O 0.12532 0.24563 0.80994 0.0
O132 O 0.16626 0.28124 0.72011 0.0
C133 C 1.01014 0.2676 0.77908 0.0
O134 O 0.06716 0.36133 0.66392 0.0
O135 O 0.08485 0.29849 0.66451 0.0
C136 C 0.09697 0.51409 0.77022 0.0
C137 C 0.14434 0.61835 0.75656 0.0
C138 C 0.14966 0.58844 0.70893 0.0
C139 C 0.1251 0.53717 0.71465 0.0
C140 C 0.09776 0.54354 0.82208 0.0
C141 C 0.12234 0.59455 0.81625 0.0
C142 C 0.06904 0.45999 0.77766 0.0
C143 C 0.08411 0.33234 0.89876 0.0
C144 C 0.2015 0.42043 0.75745 0.0
C145 C 0.17979 0.21856 0.76477 0.0
C146 C 0.22778 0.16428 0.76639 0.0
C147 C 0.18355 0.14697 0.7997 0.0
C148 C 0.15978 0.17421 0.79925 0.0
C149 C 0.2242 0.23575 0.73192 0.0
C150 C 0.24808 0.2089 0.73295 0.0
C151 C 0.15644 0.24865 0.7658 0.0
H152 H 0.17343 0.60346 0.66739 0.0
H153 H 0.12865 0.51572 0.67585 0.0
H154 H 0.0794 0.52704 0.86768 0.0
H155 H 0.12369 0.61493 0.85954 0.0
H156 H 0.16722 0.1122 0.82505 0.0
H157 H 0.12576 0.16052 0.82537 0.0
H158 H 0.24068 0.27013 0.70561 0.0
H159 H 0.28188 0.2223 0.70634 0.0
Dy160 Dy 0.32261 0.94277 0.74439 0.0
Dy161 Dy 0.20892 0.90898 0.74837 0.0
C162 C 0.27094 0.95182 0.61596 0.0
O163 O 0.32147 0.01479 0.73835 0.0
O164 O 0.23944 0.98853 0.7549 0.0
O165 O 0.38654 0.95622 0.68958 0.0
O166 O 0.38791 0.95646 0.7957 0.0
O167 O 0.23675 0.92617 0.85424 0.0
O168 O 0.31774 0.97773 0.83542 0.0
O169 O 0.21676 0.84648 0.71459 0.0
O170 O 0.28089 0.86432 0.7792 0.0
O171 O 0.14353 0.87756 0.80887 0.0
O172 O 0.13916 0.88202 0.70158 0.0
C173 C 0.28481 0.02335 0.74743 0.0
O174 O 0.2979 0.93424 0.63894 0.0
O175 O 0.23546 0.94954 0.65213 0.0
C176 C 0.43537 0.92785 0.74265 0.0
C177 C 0.49433 0.8829 0.74076 0.0
C178 C 0.46245 0.87703 0.68804 0.0
C179 C 0.43472 0.90043 0.68809 0.0
C180 C 0.46066 0.92749 0.7989 0.0
C181 C 0.48795 0.90387 0.79875 0.0
C182 C 0.41057 0.95718 0.7422 0.0
C183 C 0.27989 0.96183 0.87362 0.0
C184 C 0.24193 0.83182 0.74807 0.0
C185 C 0.06247 0.84218 0.75906 0.0
C186 C 0.96036 0.79385 0.76168 0.0
C187 C 0.98754 0.82326 0.8148 0.0
C188 C 0.03839 0.84698 0.81376 0.0
C189 C 0.03511 0.81152 0.70694 0.0
C190 C 0.98439 0.78722 0.70846 0.0
C191 C 0.11589 0.86731 0.75701 0.0
H192 H 0.45776 0.85405 0.64633 0.0
H193 H 0.4129 0.89702 0.64524 0.0
H194 H 0.45954 0.94573 0.84337 0.0
H195 H 0.50358 0.90236 0.84519 0.0
H196 H 0.96947 0.82929 0.85573 0.0
H197 H 0.05886 0.87007 0.85477 0.0
H198 H 0.05297 0.8067 0.66473 0.0
H199 H 0.96387 0.76524 0.66667 0.0
Dy200 Dy 0.64317 0.70716 0.75596 0.0
Dy201 Dy 0.71912 0.82236 0.74836 0.0
C202 C 0.69784 0.74967 0.62317 0.0
O203 O 0.71837 0.71295 0.74944 0.0
O204 O 0.76904 0.79529 0.77208 0.0
O205 O 0.59091 0.64122 0.70643 0.0
O206 O 0.59463 0.64217 0.81237 0.0
O207 O 0.73582 0.80091 0.84734 0.0
O208 O 0.6612 0.73278 0.86072 0.0
O209 O 0.64925 0.81037 0.78811 0.0
O210 O 0.60421 0.74681 0.72322 0.0
O211 O 0.72699 0.89276 0.76794 0.0
O212 O 0.78078 0.88795 0.70744 0.0
C213 C 0.76244 0.75161 0.7596 0.0
O214 O 0.6821 0.71309 0.66408 0.0
O215 O 0.70319 0.79207 0.64302 0.0
C216 C 0.51569 0.59602 0.76255 0.0
C217 C 0.41239 0.54676 0.76183 0.0
C218 C 0.43908 0.58087 0.71272 0.0
C219 C 0.4901 0.60528 0.71307 0.0
C220 C 0.48888 0.56291 0.81269 0.0
C221 C 0.43777 0.53859 0.81241 0.0
C222 C 0.5697 0.61861 0.76039 0.0
C223 C 0.70531 0.76277 0.88288 0.0
C224 C 0.60898 0.78463 0.75561 0.0
C225 C 0.80172 0.96755 0.75121 0.0
C226 C 0.85974 0.06901 0.77408 0.0
C227 C 0.82594 0.03875 0.82121 0.0
C228 C 0.79705 0.98842 0.80986 0.0
C229 C 0.83617 0.99794 0.70467 0.0
C230 C 0.86507 0.04821 0.71609 0.0
C231 C 0.76632 0.91643 0.73295 0.0
H232 H 0.42034 0.58777 0.67324 0.0
H233 H 0.50939 0.63071 0.67375 0.0
H234 H 0.50746 0.55508 0.85143 0.0
H235 H 0.41796 0.51246 0.85081 0.0
H236 H 0.82218 0.05411 0.86686 0.0
H237 H 0.77049 0.96608 0.84641 0.0
H238 H 0.83995 0.98295 0.65867 0.0
H239 H 0.8917 0.07091 0.67979 0.0
C240 C 0.26574 0.01336 0.95826 0.0
C241 C 0.28908 0.98657 0.93942 0.0
C242 C 0.35356 0.03248 0.02039 0.0
C243 C 0.32804 0.05505 0.04559 0.0
N244 N 0.26379 0.07408 0.03075 0.0
N245 N 0.34861 0.96286 0.96416 0.0
C246 C 0.28517 0.04768 0.01212 0.0
C247 C 0.33096 0.99392 0.97418 0.0
N248 N 0.22588 1.00678 0.92365 0.0
N249 N 0.40085 0.0497 0.03878 0.0
H250 H 0.33172 0.93282 0.93257 0.0
H251 H 0.37642 0.96367 0.9925 0.0
H252 H 0.41963 0.08039 0.06889 0.0
H253 H 0.42288 0.03762 0.01782 0.0
H254 H 0.20727 0.0255 0.93201 0.0
H255 H 0.21067 0.98196 0.88514 0.0
H256 H 0.23144 0.06967 0.01168 0.0
H257 H 0.27893 0.10194 0.06539 0.0
C258 C 0.68289 0.69264 0.52904 0.0
C259 C 0.71121 0.74045 0.55549 0.0
C260 C 0.77905 0.75244 0.48456 0.0
C261 C 0.74988 0.70531 0.45577 0.0
N262 N 0.68314 0.62415 0.47669 0.0
N263 N 0.77971 0.82116 0.53865 0.0
C264 C 0.70409 0.67352 0.48501 0.0
C265 C 0.75743 0.77203 0.52753 0.0
N266 N 0.63464 0.66598 0.54435 0.0
N267 N 0.82811 0.7773 0.47465 0.0
H268 H 0.76311 0.83722 0.56459 0.0
H269 H 0.81245 0.84637 0.51696 0.0
H270 H 0.84596 0.76141 0.45122 0.0
H271 H 0.8516 0.8101 0.49829 0.0
H272 H 0.61072 0.63277 0.52194 0.0
H273 H 0.61759 0.68013 0.57353 0.0
H274 H 0.6516 0.59891 0.50082 0.0
H275 H 0.70147 0.60824 0.45465 0.0
C276 C 0.0212 0.25656 0.05395 0.0
C277 C 0.99149 0.27767 0.06735 0.0
C278 C 0.04046 0.34378 0.9915 0.0
C279 C 0.06407 0.31886 0.96773 0.0
N280 N 0.08309 0.25457 0.98572 0.0
N281 N 0.9661 0.33488 0.0352 0.0
C282 C 0.05632 0.27597 1.00166 0.0
C283 C 0.99886 0.31894 0.03115 0.0
N284 N 0.01772 0.21986 0.09316 0.0
N285 N 0.05903 0.3922 0.97776 0.0
H286 H 0.93419 0.31641 0.06259 0.0
H287 H 0.96828 0.363 0.0059 0.0
H288 H 0.09206 0.41249 0.95326 0.0
H289 H 0.04496 0.41294 0.99769 0.0
H290 H 0.04226 0.20712 0.09236 0.0
H291 H 0.99107 0.20321 0.12892 0.0
H292 H 0.07485 0.21993 1.00149 0.0
H293 H 0.1139 0.27158 0.9564 0.0
C294 C 0.34202 0.05294 0.48832 0.0
C295 C 0.30627 0.04246 0.4392 0.0
C296 C 0.24757 0.97038 0.50411 0.0
C297 C 0.28416 0.98009 0.55194 0.0
N298 N 0.3689 0.02858 0.58468 0.0
N299 N 0.22157 0.99602 0.40687 0.0
C300 C 0.33231 0.0201 0.54175 0.0
C301 C 0.25797 1.00262 0.44901 0.0
N302 N 0.38423 0.09716 0.48695 0.0
N303 N 0.2037 0.92812 0.50905 0.0
H304 H 0.2269 0.01779 0.36612 0.0
H305 H 0.1849 0.97139 0.41465 0.0
H306 H 0.19574 0.90297 0.54684 0.0
H307 H 0.17674 0.91525 0.4731 0.0
H308 H 0.40988 0.11026 0.52471 0.0
H309 H 0.39113 0.12363 0.45139 0.0
H310 H 0.40561 0.05098 0.57381 0.0
H311 H 0.3633 1.01245 0.63053 0.0
C312 C 0.75305 0.78457 0.99111 0.0
C313 C 0.72315 0.74874 0.94377 0.0
C314 C 0.72579 0.68525 0.01234 0.0
C315 C 0.75734 0.72136 0.05771 0.0
N316 N 0.80941 0.80674 0.08301 0.0
N317 N 0.69118 0.66573 0.90353 0.0
C318 C 0.77403 0.77148 0.04432 0.0
C319 C 0.71221 0.69928 0.9529 0.0
N320 N 0.75868 0.83036 0.98817 0.0
N321 N 0.70847 0.63693 0.0262 0.0
H322 H 0.68316 0.67382 0.85746 0.0
H323 H 0.68701 0.63089 0.90485 0.0
H324 H 0.72183 0.62522 0.06482 0.0
H325 H 0.67921 0.60844 1.00155 0.0
H326 H 0.7755 0.85649 0.02497 0.0
H327 H 0.74186 0.84064 0.95257 0.0
H328 H 0.82637 0.84392 0.07238 0.0
H329 H 0.82521 0.79867 0.12236 0.0
C330 C 0.03511 0.32129 0.45504 0.0
C331 C 0.9848 0.28441 0.45255 0.0
C332 C 0.9874 0.27551 0.57145 0.0
C333 C 0.03899 0.30637 0.5723 0.0
N334 N 0.11281 0.3516 0.51084 0.0
N335 N 0.9152 0.22098 0.50879 0.0
C336 C 0.06315 0.32668 0.5126 0.0
C337 C 0.96188 0.25922 0.51071 0.0
N338 N 0.056 0.3525 0.40364 0.0
N339 N 0.96192 0.26512 0.62832 0.0
H340 H 0.89434 0.20986 0.46588 0.0
H341 H 0.89865 0.19829 0.54901 0.0
H342 H 0.97873 0.28146 0.67217 0.0
H343 H 0.92404 0.24658 0.63 0.0
H344 H 0.09149 0.3819 0.40482 0.0
H345 H 0.03613 0.3531 0.36348 0.0
H346 H 0.1324 0.3629 0.46721 0.0
H347 H 0.13416 0.35672 0.55246 0.0
C348 C 0.70621 0.1822 0.32345 0.0
C349 C 0.67891 0.16061 0.26507 0.0
C350 C 0.75643 0.18826 0.20686 0.0
C351 C 0.78273 0.21757 0.26153 0.0
N352 N 0.78164 0.24495 0.37156 0.0
N353 N 0.68447 0.11347 0.17597 0.0
C354 C 0.75719 0.21544 0.31954 0.0
C355 C 0.70541 0.15542 0.21235 0.0
N356 N 0.68614 0.16357 0.38312 0.0
N357 N 0.78005 0.19028 0.15007 0.0
H358 H 0.6511 0.08341 0.18896 0.0
H359 H 0.70322 0.10546 0.14076 0.0
H360 H 0.81755 0.21221 0.14449 0.0
H361 H 0.76153 0.17302 0.10699 0.0
H362 H 0.7056 0.17506 0.42709 0.0
H363 H 0.65298 0.13104 0.3872 0.0
H364 H 0.76386 0.2478 0.41283 0.0
H365 H 0.81897 0.26976 0.37054 0.0
C366 C 0.46711 0.3259 0.22227 0.0
C367 C 0.50743 0.3516 0.26569 0.0
C368 C 0.49235 0.2721 0.30806 0.0
C369 C 0.45895 0.24764 0.2563 0.0
N370 N 0.41669 0.25207 0.16027 0.0
N371 N 0.5239 0.34232 0.37888 0.0
C372 C 0.44729 0.27488 0.21198 0.0
C373 C 0.51167 0.32329 0.3171 0.0
N374 N 0.44189 0.34782 0.20077 0.0
N375 N 0.50502 0.24637 0.34965 0.0
H376 H 0.5249 0.37487 0.39127 0.0
H377 H 0.52393 0.32218 0.41942 0.0
H378 H 0.49113 0.20878 0.34473 0.0
H379 H 0.53248 0.26331 0.38482 0.0
H380 H 0.40959 0.32953 0.17393 0.0
H381 H 0.44922 0.38183 0.21866 0.0
H382 H 0.41063 0.27124 0.12321 0.0
H383 H 0.40105 0.21465 0.15144 0.0
C384 C 0.80807 0.49582 0.279 0.0
C385 C 0.85598 0.51417 0.25434 0.0
C386 C 0.85769 0.58984 0.22115 0.0
C387 C 0.81254 0.57417 0.25289 0.0
N388 N 0.74621 0.5139 0.31736 0.0
N389 N 0.92971 0.58226 0.21206 0.0
C390 C 0.78796 0.52744 0.28308 0.0
C391 C 0.88171 0.56223 0.22821 0.0
N392 N 0.78129 0.4478 0.29679 0.0
N393 N 0.87662 0.63012 0.18165 0.0
H394 H 0.94887 0.56355 0.21704 0.0
H395 H 0.95169 0.61891 0.1996 0.0
H396 H 0.85829 0.64916 0.17212 0.0
H397 H 0.90725 0.64108 0.15252 0.0
H398 H 0.74453 0.43076 0.30866 0.0
H399 H 0.79487 0.42381 0.29465 0.0
H400 H 0.72931 0.48277 0.34659 0.0
H401 H 0.7301 0.53566 0.32006 0.0
C402 C 0.15368 0.70087 0.79447 0.0
C403 C 0.16468 0.67383 0.7483 0.0
C404 C 0.22749 0.7522 0.70159 0.0
C405 C 0.22192 0.77806 0.75444 0.0
N406 N 0.18162 0.77631 0.85509 0.0
N407 N 0.18361 0.68158 0.63282 0.0
C408 C 0.18582 0.75206 0.80231 0.0
C409 C 0.19444 0.70111 0.69441 0.0
N410 N 0.10844 0.67983 0.82172 0.0
N411 N 0.26367 0.77662 0.65697 0.0
H412 H 0.15062 0.64996 0.62264 0.0
H413 H 0.20182 0.701 0.59095 0.0
H414 H 0.28821 0.8141 0.66057 0.0
H415 H 0.27176 0.75864 0.62049 0.0
H416 H 0.09664 0.69887 0.85105 0.0
H417 H 0.0805 0.6456 0.80657 0.0
H418 H 0.15886 0.75827 0.89462 0.0
H419 H 0.20417 0.81387 0.86198 0.0
C420 C 0.53479 0.83887 0.68287 0.0
C421 C 0.53001 0.86339 0.73849 0.0
C422 C 0.57429 0.8333 0.8041 0.0
C423 C 0.57403 0.80378 0.75126 0.0
N424 N 0.54364 0.77216 0.64172 0.0
N425 N 0.58291 0.91156 0.82703 0.0
C426 C 0.55099 0.80434 0.69114 0.0
C427 C 0.56016 0.86861 0.79297 0.0
N428 N 0.53361 0.85543 0.62141 0.0
N429 N 0.58731 0.82737 0.8659 0.0
H430 H 0.58145 0.94231 0.81145 0.0
H431 H 0.60865 0.91849 0.86369 0.0
H432 H 0.59414 0.79921 0.87783 0.0
H433 H 0.58532 0.84675 0.90614 0.0
H434 H 0.54125 0.84204 0.57906 0.0
H435 H 0.53361 0.88816 0.6142 0.0
H436 H 0.52306 0.76908 0.60007 0.0
H437 H 0.55224 0.74456 0.645 0.0
C438 C 0.28336 0.45506 0.70362 0.0
C439 C 0.25448 0.45859 0.75427 0.0
C440 C 0.32903 0.52654 0.80284 0.0
C441 C 0.35791 0.51754 0.75814 0.0
N442 N 0.36222 0.46738 0.6721 0.0
N443 N 0.25162 0.49382 0.85847 0.0
C444 C 0.33496 0.48025 0.71007 0.0
C445 C 0.27768 0.49367 0.80534 0.0
N446 N 0.26149 0.42865 0.64814 0.0
N447 N 0.35056 0.56689 0.84241 0.0
H448 H 0.21449 0.46978 0.86379 0.0
H449 H 0.2677 0.51493 0.90024 0.0
H450 H 0.38794 0.59143 0.84214 0.0
H451 H 0.33091 0.57835 0.8709 0.0
H452 H 0.28084 0.4282 0.60721 0.0
H453 H 0.22404 0.41173 0.64002 0.0
H454 H 0.347 0.43673 0.64165 0.0
H455 H 0.40004 0.48457 0.67545 0.0
C456 C 0.10777 0.22732 0.2954 0.0
C457 C 0.14196 0.24711 0.24404 0.0
C458 C 0.10598 0.29689 0.20852 0.0
C459 C 0.07271 0.27778 0.26149 0.0
N460 N 0.05303 0.23719 0.3662 0.0
N461 N 0.17933 0.30607 0.15727 0.0
C462 C 0.07766 0.24731 0.30852 0.0
C463 C 0.14296 0.28379 0.20233 0.0
N464 N 0.10186 0.18734 0.32945 0.0
N465 N 0.10098 0.32575 0.16288 0.0
H466 H 0.20629 0.29671 0.15123 0.0
H467 H 0.18482 0.33589 0.12911 0.0
H468 H 0.07626 0.33805 0.16832 0.0
H469 H 0.11994 0.33609 0.11879 0.0
H470 H 0.07331 0.16788 0.36199 0.0
H471 H 0.12232 0.17042 0.3206 0.0
H472 H 0.05855 0.21921 0.40533 0.0
H473 H 0.0314 0.25207 0.37715 0.0
C474 C 0.14583 0.91901 0.19038 0.0
C475 C 0.12987 0.88664 0.24445 0.0
C476 C 0.21407 0.9224 0.28499 0.0
C477 C 0.22883 0.959 0.23611 0.0
N478 N 0.21023 0.99167 0.14038 0.0
N479 N 0.14682 0.85375 0.341 0.0
C480 C 0.19519 0.95627 0.18737 0.0
C481 C 0.16361 0.88677 0.29069 0.0
N482 N 0.11354 0.91446 0.14221 0.0
N483 N 0.24806 0.92279 0.32679 0.0
H484 H 0.1104 0.82651 0.34492 0.0
H485 H 0.1681 0.85353 0.37976 0.0
H486 H 0.28487 0.94891 0.32408 0.0
H487 H 0.24083 0.89617 0.36194 0.0
H488 H 0.12363 0.93276 0.09752 0.0
H489 H 0.07626 0.88998 0.14464 0.0
H490 H 0.18713 0.99746 0.11006 0.0
H491 H 0.24669 0.01715 0.13388 0.0
C492 C 0.74253 0.86696 0.19595 0.0
C493 C 0.77568 0.90047 0.24316 0.0
C494 C 0.76923 0.83243 0.30672 0.0
C495 C 0.74422 0.80005 0.25483 0.0
N496 N 0.70467 0.78465 0.14986 0.0
N497 N 0.82913 0.91476 0.33597 0.0
C498 C 0.72968 0.81666 0.19935 0.0
C499 C 0.79131 0.88314 0.29672 0.0
N500 N 0.72318 0.88309 0.14884 0.0
N501 N 0.77163 0.81413 0.36602 0.0
H502 H 0.84858 0.95243 0.32823 0.0
H503 H 0.84463 0.90298 0.37161 0.0
H504 H 0.75182 0.77665 0.37451 0.0
H505 H 0.78693 0.83607 0.40723 0.0
H506 H 0.69612 0.86002 0.1161 0.0
H507 H 0.73188 0.91953 0.14552 0.0
H508 H 0.69672 0.79494 0.10504 0.0
H509 H 0.69294 0.74744 0.15362 0.0
C510 C 0.24653 0.1101 0.69931 0.0
C511 C 0.25069 0.13365 0.7601 0.0
C512 C 0.29858 0.09869 0.80535 0.0
C513 C 0.29152 0.07317 0.74573 0.0
N514 N 0.27743 0.06976 0.63057 0.0
N515 N 0.28224 0.15359 0.8706 0.0
C516 C 0.27145 0.08405 0.69096 0.0
C517 C 0.27783 0.12944 0.81303 0.0
N518 N 0.21656 0.11018 0.65087 0.0
N519 N 0.32595 0.09382 0.85334 0.0
H520 H 0.26817 0.17693 0.87677 0.0
H521 H 0.29894 0.15027 0.91273 0.0
H522 H 0.34267 0.07295 0.84594 0.0
H523 H 0.33465 0.11215 0.89806 0.0
H524 H 0.20819 0.08898 0.60847 0.0
H525 H 0.19646 0.12793 0.65535 0.0
H526 H 0.26686 0.07883 0.58673 0.0
H527 H 0.29961 0.05461 0.62583 0.0
C528 C 0.87226 0.73498 0.78938 0.0
C529 C 0.90783 0.77738 0.75608 0.0
C530 C 0.84447 0.78989 0.70891 0.0
C531 C 0.80865 0.75116 0.74783 0.0
N532 N 0.78743 0.68379 0.82092 0.0
N533 N 0.92795 0.84563 0.68365 0.0
C534 C 0.82216 0.72226 0.78624 0.0
C535 C 0.89386 0.80446 0.71541 0.0
N536 N 0.88654 0.70672 0.82282 0.0
N537 N 0.83264 0.81532 0.66608 0.0
H538 H 0.96536 0.85999 0.68873 0.0
H539 H 0.91876 0.86653 0.65343 0.0
H540 H 0.79719 0.80745 0.65705 0.0
H541 H 0.79719 0.80745 0.65705 0.0
H542 H 0.86271 0.67339 0.84446 0.0
H543 H 0.92288 0.71564 0.82623 0.0
H544 H 0.79469 0.66484 0.85679 0.0
H545 H 0.75057 0.67049 0.81284 0.0
C546 C 0.91857 0.20872 0.77473 0.0
C547 C 0.96526 0.22149 0.79902 0.0
C548 C 0.93782 0.13488 0.82123 0.0
C549 C 0.89353 0.12163 0.78848 0.0
N550 N 0.84056 0.1444 0.73327 0.0
N551 N 1.01315 0.19898 0.86686 0.0
C552 C 0.88314 0.15817 0.76605 0.0
C553 C 0.97255 0.18503 0.82944 0.0
N554 N 0.90773 0.24464 0.76214 0.0
N555 N 0.94817 0.09946 0.84035 0.0
H556 H 0.0392 0.2355 0.87297 0.0
H557 H 0.01896 0.17543 0.89628 0.0
H558 H 0.92322 0.06214 0.83713 0.0
H559 H 0.98245 0.10661 0.85563 0.0
H560 H 0.8732 0.23796 0.74913 0.0
H561 H 0.93262 0.28145 0.77053 0.0
H562 H 0.83303 0.16873 0.70858 0.0
H563 H 0.81356 0.10786 0.72769 0.0
loop_
_geom_bond_atom_site_label_1
_geom_bond_atom_site_label_2
_geom_bond_distance
_geom_bond_site_symmetry_2
_ccdc_geom_bond_type
Dy0 O3 2.307 . S
Dy0 O5 2.395 . S
Dy0 O6 2.379 . S
Dy0 O8 2.339 . S
Dy0 O10 2.298 . S
Dy0 O14 2.275 . S
Dy0 C22 2.738 . S
Dy1 O4 2.298 . S
Dy1 O7 2.275 . S
Dy1 O9 2.307 . S
Dy1 O11 2.395 . S
Dy1 O12 2.379 . S
Dy1 O15 2.339 . S
Dy1 C31 2.738 . S
C2 O14 1.254 . S
C2 O15 1.257 . S
O3 Dy0 2.307 . S
O3 C13 1.266 . S
O4 Dy1 2.298 . S
O4 C13 1.236 . S
O5 Dy0 2.395 . S
O5 C22 1.255 . S
O6 Dy0 2.379 . S
O6 C22 1.249 . S
O7 Dy1 2.275 . S
O7 C23 1.254 . S
O8 Dy0 2.339 . S
O8 C23 1.257 . S
O9 Dy1 2.307 . S
O9 C24 1.266 . S
O10 Dy0 2.298 . S
O10 C24 1.236 . S
O11 Dy1 2.395 . S
O11 C31 1.255 . S
O12 Dy1 2.379 . S
O12 C31 1.249 . S
C13 O3 1.266 . S
C13 O4 1.236 . S
O14 Dy0 2.275 . S
O14 C2 1.254 . S
O15 Dy1 2.339 . S
O15 C2 1.257 . S
C16 C19 1.344 . S
C16 C20 1.328 . S
C16 C22 1.516 . S
C17 C18 1.304 . S
C17 C21 1.323 . S
C18 C17 1.304 . S
C18 C19 1.371 . S
C18 H32 0.930 . S
C19 C16 1.344 . S
C19 C18 1.371 . S
C19 H33 0.931 . S
C20 C16 1.328 . S
C20 C21 1.433 . S
C20 H34 0.931 . S
C21 C17 1.323 . S
C21 C20 1.433 . S
C21 H35 0.933 . S
C22 Dy0 2.738 . S
C22 O5 1.255 . S
C22 O6 1.249 . S
C22 C16 1.516 . S
C23 O7 1.254 . S
C23 O8 1.257 . S
C24 O9 1.266 . S
C24 O10 1.236 . S
C25 C28 1.344 . S
C25 C29 1.328 . S
C25 C31 1.516 . S
C26 C27 1.304 . S
C26 C30 1.323 . S
C27 C26 1.304 . S
C27 C28 1.371 . S
C27 H36 0.930 . S
C28 C25 1.344 . S
C28 C27 1.371 . S
C28 H37 0.931 . S
C29 C25 1.328 . S
C29 C30 1.433 . S
C29 H38 0.931 . S
C30 C26 1.323 . S
C30 C29 1.433 . S
C30 H39 0.933 . S
C31 Dy1 2.738 . S
C31 O11 1.255 . S
C31 O12 1.249 . S
C31 C25 1.516 . S
H32 C18 0.930 . S
H33 C19 0.931 . S
H34 C20 0.931 . S
H35 C21 0.933 . S
H36 C27 0.930 . S
H37 C28 0.931 . S
H38 C29 0.931 . S
H39 C30 0.933 . S
Dy40 O43 2.307 . S
Dy40 O45 2.395 . S
Dy40 O46 2.379 . S
Dy40 O48 2.339 . S
Dy40 O50 2.298 . S
Dy40 O54 2.275 . S
Dy40 C62 2.738 . S
Dy41 O44 2.298 . S
Dy41 O47 2.275 . S
Dy41 O49 2.307 . S
Dy41 O51 2.395 . S
Dy41 O52 2.379 . S
Dy41 O55 2.339 . S
Dy41 C71 2.738 . S
C42 O54 1.254 . S
C42 O55 1.257 . S
O43 Dy40 2.307 . S
O43 C53 1.266 . S
O44 Dy41 2.298 . S
O44 C53 1.236 . S
O45 Dy40 2.395 . S
O45 C62 1.255 . S
O46 Dy40 2.379 . S
O46 C62 1.249 . S
O47 Dy41 2.275 . S
O47 C63 1.254 . S
O48 Dy40 2.339 . S
O48 C63 1.257 . S
O49 Dy41 2.307 . S
O49 C64 1.266 . S
O50 Dy40 2.298 . S
O50 C64 1.236 . S
O51 Dy41 2.395 . S
O51 C71 1.255 . S
O52 Dy41 2.379 . S
O52 C71 1.249 . S
C53 O43 1.266 . S
C53 O44 1.236 . S
O54 Dy40 2.275 . S
O54 C42 1.254 . S
O55 Dy41 2.339 . S
O55 C42 1.257 . S
C56 C59 1.344 . S
C56 C60 1.328 . S
C56 C62 1.516 . S
C57 C58 1.304 . S
C57 C61 1.323 . S
C58 C57 1.304 . S
C58 C59 1.371 . S
C58 H72 0.930 . S
C59 C56 1.344 . S
C59 C58 1.371 . S
C59 H73 0.931 . S
C60 C56 1.328 . S
C60 C61 1.433 . S
C60 H74 0.931 . S
C61 C57 1.323 . S
C61 C60 1.433 . S
C61 H75 0.933 . S
C62 Dy40 2.738 . S
C62 O45 1.255 . S
C62 O46 1.249 . S
C62 C56 1.516 . S
C63 O47 1.254 . S
C63 O48 1.257 . S
C64 O49 1.266 . S
C64 O50 1.236 . S
C65 C68 1.344 . S
C65 C69 1.328 1_655 S
C65 C71 1.516 . S
C66 C67 1.304 . S
C66 C70 1.323 . S
C67 C66 1.304 . S
C67 C68 1.371 1_455 S
C67 H76 0.930 . S
C68 C65 1.344 . S
C68 C67 1.371 1_655 S
C68 H77 0.931 . S
C69 C65 1.328 1_455 S
C69 C70 1.433 . S
C69 H78 0.931 1_455 S
C70 C66 1.323 . S
C70 C69 1.433 . S
C70 H79 0.933 . S
C71 Dy41 2.738 . S
C71 O51 1.255 . S
C71 O52 1.249 . S
C71 C65 1.516 . S
H72 C58 0.930 . S
H73 C59 0.931 . S
H74 C60 0.931 . S
H75 C61 0.933 . S
H76 C67 0.930 . S
H77 C68 0.931 . S
H78 C69 0.931 1_655 S
H79 C70 0.933 . S
Dy80 O83 2.307 . S
Dy80 O85 2.395 . S
Dy80 O86 2.379 . S
Dy80 O88 2.339 . S
Dy80 O90 2.298 . S
Dy80 O94 2.275 . S
Dy80 C102 2.738 . S
Dy81 O84 2.298 . S
Dy81 O87 2.275 . S
Dy81 O89 2.307 . S
Dy81 O91 2.395 . S
Dy81 O92 2.379 . S
Dy81 O95 2.339 . S
Dy81 C111 2.738 . S
C82 O94 1.254 . S
C82 O95 1.257 . S
O83 Dy80 2.307 . S
O83 C93 1.266 . S
O84 Dy81 2.298 . S
O84 C93 1.236 . S
O85 Dy80 2.395 . S
O85 C102 1.255 . S
O86 Dy80 2.379 . S
O86 C102 1.249 . S
O87 Dy81 2.275 . S
O87 C103 1.254 . S
O88 Dy80 2.339 . S
O88 C103 1.257 . S
O89 Dy81 2.307 . S
O89 C104 1.266 . S
O90 Dy80 2.298 . S
O90 C104 1.236 . S
O91 Dy81 2.395 . S
O91 C111 1.255 . S
O92 Dy81 2.379 . S
O92 C111 1.249 . S
C93 O83 1.266 . S
C93 O84 1.236 . S
O94 Dy80 2.275 . S
O94 C82 1.254 . S
O95 Dy81 2.339 . S
O95 C82 1.257 . S
C96 C99 1.344 . S
C96 C100 1.328 . S
C96 C102 1.516 . S
C97 C98 1.304 . S
C97 C101 1.323 . S
C98 C97 1.304 . S
C98 C99 1.371 . S
C98 H112 0.930 . S
C99 C96 1.344 . S
C99 C98 1.371 . S
C99 H113 0.931 . S
C100 C96 1.328 . S
C100 C101 1.433 . S
C100 H114 0.931 . S
C101 C97 1.323 . S
C101 C100 1.433 . S
C101 H115 0.933 . S
C102 Dy80 2.738 . S
C102 O85 1.255 . S
C102 O86 1.249 . S
C102 C96 1.516 . S
C103 O87 1.254 . S
C103 O88 1.257 . S
C104 O89 1.266 . S
C104 O90 1.236 . S
C105 C108 1.344 . S
C105 C109 1.328 1_545 S
C105 C111 1.516 . S
C106 C107 1.304 . S
C106 C110 1.323 . S
C107 C106 1.304 . S
C107 C108 1.371 1_565 S
C107 H116 0.930 . S
C108 C105 1.344 . S
C108 C107 1.371 1_545 S
C108 H117 0.931 . S
C109 C105 1.328 1_565 S
C109 C110 1.433 . S
C109 H118 0.931 1_565 S
C110 C106 1.323 . S
C110 C109 1.433 . S
C110 H119 0.933 . S
C111 Dy81 2.738 . S
C111 O91 1.255 . S
C111 O92 1.249 . S
C111 C105 1.516 . S
H112 C98 0.930 . S
H113 C99 0.931 . S
H114 C100 0.931 . S
H115 C101 0.933 . S
H116 C107 0.930 . S
H117 C108 0.931 . S
H118 C109 0.931 1_545 S
H119 C110 0.933 . S
Dy120 O123 2.307 . S
Dy120 O125 2.395 . S
Dy120 O126 2.379 . S
Dy120 O128 2.339 . S
Dy120 O130 2.298 . S
Dy120 O134 2.275 . S
Dy120 C142 2.738 . S
Dy121 O124 2.298 . S
Dy121 O127 2.275 . S
Dy121 O129 2.307 . S
Dy121 O131 2.395 . S
Dy121 O132 2.379 . S
Dy121 O135 2.339 . S
Dy121 C151 2.738 . S
C122 O134 1.254 . S
C122 O135 1.257 . S
O123 Dy120 2.307 . S
O123 C133 1.266 . S
O124 Dy121 2.298 . S
O124 C133 1.236 . S
O125 Dy120 2.395 . S
O125 C142 1.255 . S
O126 Dy120 2.379 . S
O126 C142 1.249 . S
O127 Dy121 2.275 . S
O127 C143 1.254 . S
O128 Dy120 2.339 . S
O128 C143 1.257 . S
O129 Dy121 2.307 . S
O129 C144 1.266 . S
O130 Dy120 2.298 . S
O130 C144 1.236 . S
O131 Dy121 2.395 . S
O131 C151 1.255 . S
O132 Dy121 2.379 . S
O132 C151 1.249 . S
C133 O123 1.266 . S
C133 O124 1.236 . S
O134 Dy120 2.275 . S
O134 C122 1.254 . S
O135 Dy121 2.339 . S
O135 C122 1.257 . S
C136 C139 1.344 . S
C136 C140 1.328 . S
C136 C142 1.516 . S
C137 C138 1.304 . S
C137 C141 1.323 . S
C138 C137 1.304 . S
C138 C139 1.371 . S
C138 H152 0.930 . S
C139 C136 1.344 . S
C139 C138 1.371 . S
C139 H153 0.931 . S
C140 C136 1.328 . S
C140 C141 1.433 . S
C140 H154 0.931 . S
C141 C137 1.323 . S
C141 C140 1.433 . S
C141 H155 0.933 . S
C142 Dy120 2.738 . S
C142 O125 1.255 . S
C142 O126 1.249 . S
C142 C136 1.516 . S
C143 O127 1.254 . S
C143 O128 1.257 . S
C144 O129 1.266 . S
C144 O130 1.236 . S
C145 C148 1.344 . S
C145 C149 1.328 . S
C145 C151 1.516 . S
C146 C147 1.304 . S
C146 C150 1.323 . S
C147 C146 1.304 . S
C147 C148 1.371 . S
C147 H156 0.930 . S
C148 C145 1.344 . S
C148 C147 1.371 . S
C148 H157 0.931 . S
C149 C145 1.328 . S
C149 C150 1.433 . S
C149 H158 0.931 . S
C150 C146 1.323 . S
C150 C149 1.433 . S
C150 H159 0.933 . S
C151 Dy121 2.738 . S
C151 O131 1.255 . S
C151 O132 1.249 . S
C151 C145 1.516 . S
H152 C138 0.930 . S
H153 C139 0.931 . S
H154 C140 0.931 . S
H155 C141 0.933 . S
H156 C147 0.930 . S
H157 C148 0.931 . S
H158 C149 0.931 . S
H159 C150 0.933 . S
Dy160 O163 2.307 . S
Dy160 O165 2.395 . S
Dy160 O166 2.379 . S
Dy160 O168 2.339 . S
Dy160 O170 2.298 . S
Dy160 O174 2.275 . S
Dy160 C182 2.738 . S
Dy161 O164 2.298 . S
Dy161 O167 2.275 . S
Dy161 O169 2.307 . S
Dy161 O171 2.395 . S
Dy161 O172 2.379 . S
Dy161 O175 2.339 . S
Dy161 C191 2.738 . S
C162 O174 1.254 . S
C162 O175 1.257 . S
O163 Dy160 2.307 . S
O163 C173 1.266 . S
O164 Dy161 2.298 . S
O164 C173 1.236 . S
O165 Dy160 2.395 . S
O165 C182 1.255 . S
O166 Dy160 2.379 . S
O166 C182 1.249 . S
O167 Dy161 2.275 . S
O167 C183 1.254 . S
O168 Dy160 2.339 . S
O168 C183 1.257 . S
O169 Dy161 2.307 . S
O169 C184 1.266 . S
O170 Dy160 2.298 . S
O170 C184 1.236 . S
O171 Dy161 2.395 . S
O171 C191 1.255 . S
O172 Dy161 2.379 . S
O172 C191 1.249 . S
C173 O163 1.266 . S
C173 O164 1.236 . S
O174 Dy160 2.275 . S
O174 C162 1.254 . S
O175 Dy161 2.339 . S
O175 C162 1.257 . S
C176 C179 1.344 . S
C176 C180 1.328 . S
C176 C182 1.516 . S
C177 C178 1.304 . S
C177 C181 1.323 . S
C178 C177 1.304 . S
C178 C179 1.371 . S
C178 H192 0.930 . S
C179 C176 1.344 . S
C179 C178 1.371 . S
C179 H193 0.931 . S
C180 C176 1.328 . S
C180 C181 1.433 . S
C180 H194 0.931 . S
C181 C177 1.323 . S
C181 C180 1.433 . S
C181 H195 0.933 . S
C182 Dy160 2.738 . S
C182 O165 1.255 . S
C182 O166 1.249 . S
C182 C176 1.516 . S
C183 O167 1.254 . S
C183 O168 1.257 . S
C184 O169 1.266 . S
C184 O170 1.236 . S
C185 C188 1.344 . S
C185 C189 1.328 1_455 S
C185 C191 1.516 . S
C186 C187 1.304 . S
C186 C190 1.323 . S
C187 C186 1.304 . S
C187 C188 1.371 1_655 S
C187 H196 0.930 . S
C188 C185 1.344 . S
C188 C187 1.371 1_455 S
C188 H197 0.931 . S
C189 C185 1.328 1_655 S
C189 C190 1.433 . S
C189 H198 0.931 1_655 S
C190 C186 1.323 . S
C190 C189 1.433 . S
C190 H199 0.933 . S
C191 Dy161 2.738 . S
C191 O171 1.255 . S
C191 O172 1.249 . S
C191 C185 1.516 . S
H192 C178 0.930 . S
H193 C179 0.931 . S
H194 C180 0.931 . S
H195 C181 0.933 . S
H196 C187 0.930 . S
H197 C188 0.931 . S
H198 C189 0.931 1_455 S
H199 C190 0.933 . S
Dy200 O203 2.307 . S
Dy200 O205 2.395 . S
Dy200 O206 2.379 . S
Dy200 O208 2.339 . S
Dy200 O210 2.298 . S
Dy200 O214 2.275 . S
Dy200 C222 2.738 . S
Dy201 O204 2.298 . S
Dy201 O207 2.275 . S
Dy201 O209 2.307 . S
Dy201 O211 2.395 . S
Dy201 O212 2.379 . S
Dy201 O215 2.339 . S
Dy201 C231 2.738 . S
C202 O214 1.254 . S
C202 O215 1.257 . S
O203 Dy200 2.307 . S
O203 C213 1.266 . S
O204 Dy201 2.298 . S
O204 C213 1.236 . S
O205 Dy200 2.395 . S
O205 C222 1.255 . S
O206 Dy200 2.379 . S
O206 C222 1.249 . S
O207 Dy201 2.275 . S
O207 C223 1.254 . S
O208 Dy200 2.339 . S
O208 C223 1.257 . S
O209 Dy201 2.307 . S
O209 C224 1.266 . S
O210 Dy200 2.298 . S
O210 C224 1.236 . S
O211 Dy201 2.395 . S
O211 C231 1.255 . S
O212 Dy201 2.379 . S
O212 C231 1.249 . S
C213 O203 1.266 . S
C213 O204 1.236 . S
O214 Dy200 2.275 . S
O214 C202 1.254 . S
O215 Dy201 2.339 . S
O215 C202 1.257 . S
C216 C219 1.344 . S
C216 C220 1.328 . S
C216 C222 1.516 . S
C217 C218 1.304 . S
C217 C221 1.323 . S
C218 C217 1.304 . S
C218 C219 1.371 . S
C218 H232 0.930 . S
C219 C216 1.344 . S
C219 C218 1.371 . S
C219 H233 0.931 . S
C220 C216 1.328 . S
C220 C221 1.433 . S
C220 H234 0.931 . S
C221 C217 1.323 . S
C221 C220 1.433 . S
C221 H235 0.933 . S
C222 Dy200 2.738 . S
C222 O205 1.255 . S
C222 O206 1.249 . S
C222 C216 1.516 . S
C223 O207 1.254 . S
C223 O208 1.257 . S
C224 O209 1.266 . S
C224 O210 1.236 . S
C225 C228 1.344 . S
C225 C229 1.328 1_565 S
C225 C231 1.516 . S
C226 C227 1.304 . S
C226 C230 1.323 . S
C227 C226 1.304 . S
C227 C228 1.371 1_545 S
C227 H236 0.930 . S
C228 C225 1.344 . S
C228 C227 1.371 1_565 S
C228 H237 0.931 . S
C229 C225 1.328 1_545 S
C229 C230 1.433 . S
C229 H238 0.931 1_545 S
C230 C226 1.323 . S
C230 C229 1.433 . S
C230 H239 0.933 . S
C231 Dy201 2.738 . S
C231 O211 1.255 . S
C231 O212 1.249 . S
C231 C225 1.516 . S
H232 C218 0.930 . S
H233 C219 0.931 . S
H234 C220 0.931 . S
H235 C221 0.933 . S
H236 C227 0.930 . S
H237 C228 0.931 . S
H238 C229 0.931 1_565 S
H239 C230 0.933 . S
C240 C241 1.363 . S
C240 C246 1.379 1_566 S
C240 N248 1.356 . S
C241 C240 1.363 . S
C241 C247 1.363 . S
C242 C243 1.363 . S
C242 C247 1.379 1_544 S
C242 N249 1.356 . S
C243 C242 1.363 . S
C243 C246 1.363 . S
N244 C246 1.356 . S
N244 H256 0.984 . S
N244 H257 0.985 . S
N245 C247 1.356 . S
N245 H250 0.984 . S
N245 H251 0.985 . S
C246 C240 1.379 1_544 S
C246 C243 1.363 . S
C246 N244 1.356 . S
C247 C241 1.363 . S
C247 C242 1.379 1_566 S
C247 N245 1.356 . S
N248 C240 1.356 . S
N248 H254 0.984 . S
N248 H255 0.984 . S
N249 C242 1.356 . S
N249 H252 0.984 . S
N249 H253 0.985 . S
H250 N245 0.984 . S
H251 N245 0.985 . S
H252 N249 0.984 . S
H253 N249 0.985 . S
H254 N248 0.984 . S
H255 N248 0.984 . S
H256 N244 0.984 . S
H257 N244 0.985 . S
C258 C259 1.363 . S
C258 C264 1.379 . S
C258 N266 1.356 . S
C259 C258 1.363 . S
C259 C265 1.363 . S
C260 C261 1.363 . S
C260 C265 1.379 . S
C260 N267 1.356 . S
C261 C260 1.363 . S
C261 C264 1.363 . S
N262 C264 1.356 . S
N262 H274 0.984 . S
N262 H275 0.985 . S
N263 C265 1.356 . S
N263 H268 0.984 . S
N263 H269 0.985 . S
C264 C258 1.379 . S
C264 C261 1.363 . S
C264 N262 1.356 . S
C265 C259 1.363 . S
C265 C260 1.379 . S
C265 N263 1.356 . S
N266 C258 1.356 . S
N266 H272 0.984 . S
N266 H273 0.984 . S
N267 C260 1.356 . S
N267 H270 0.984 . S
N267 H271 0.985 . S
H268 N263 0.984 . S
H269 N263 0.985 . S
H270 N267 0.984 . S
H271 N267 0.985 . S
H272 N266 0.984 . S
H273 N266 0.984 . S
H274 N262 0.984 . S
H275 N262 0.985 . S
C276 C277 1.363 . S
C276 C282 1.379 1_654 S
C276 N284 1.356 . S
C277 C276 1.363 . S
C277 C283 1.363 . S
C278 C279 1.363 . S
C278 C283 1.379 1_456 S
C278 N285 1.356 . S
C279 C278 1.363 . S
C279 C282 1.363 . S
N280 C282 1.356 . S
N280 H292 0.984 . S
N280 H293 0.985 . S
N281 C283 1.356 . S
N281 H286 0.984 . S
N281 H287 0.985 . S
C282 C276 1.379 1_456 S
C282 C279 1.363 . S
C282 N280 1.356 . S
C283 C277 1.363 . S
C283 C278 1.379 1_654 S
C283 N281 1.356 . S
N284 C276 1.356 . S
N284 H290 0.984 . S
N284 H291 0.984 . S
N285 C278 1.356 . S
N285 H288 0.984 . S
N285 H289 0.985 . S
H286 N281 0.984 . S
H287 N281 0.985 . S
H288 N285 0.984 . S
H289 N285 0.985 . S
H290 N284 0.984 . S
H291 N284 0.984 . S
H292 N280 0.984 . S
H293 N280 0.985 . S
C294 C295 1.363 . S
C294 C300 1.359 1_545 S
C294 N302 1.356 . S
C295 C294 1.363 . S
C295 C301 1.378 . S
C296 C297 1.363 . S
C296 C301 1.359 1_565 S
C296 N303 1.356 . S
C297 C296 1.363 . S
C297 C300 1.378 . S
N298 C300 1.368 . S
N298 H310 0.984 1_565 S
N298 H311 0.985 . S
N299 C301 1.368 . S
N299 H304 0.984 . S
N299 H305 0.985 1_545 S
C300 C294 1.359 1_565 S
C300 C297 1.378 . S
C300 N298 1.368 . S
C301 C295 1.378 . S
C301 C296 1.359 1_545 S
C301 N299 1.368 . S
N302 C294 1.356 . S
N302 H308 0.984 . S
N302 H309 0.984 . S
N303 C296 1.356 . S
N303 H306 0.984 . S
N303 H307 0.985 . S
H304 N299 0.984 . S
H305 N299 0.985 1_565 S
H306 N303 0.984 . S
H307 N303 0.985 . S
H308 N302 0.984 . S
H309 N302 0.984 . S
H310 N298 0.984 1_545 S
H311 N298 0.985 . S
C312 C313 1.363 1_554 S
C312 C318 1.379 . S
C312 N320 1.356 . S
C313 C312 1.363 1_556 S
C313 C319 1.363 . S
C314 C315 1.363 1_556 S
C314 C319 1.379 . S
C314 N321 1.356 . S
C315 C314 1.363 1_554 S
C315 C318 1.363 . S
N316 C318 1.356 . S
N316 H328 0.984 . S
N316 H329 0.985 . S
N317 C319 1.356 . S
N317 H322 0.984 . S
N317 H323 0.985 . S
C318 C312 1.379 . S
C318 C315 1.363 . S
C318 N316 1.356 . S
C319 C313 1.363 . S
C319 C314 1.379 . S
C319 N317 1.356 . S
N320 C312 1.356 . S
N320 H326 0.984 . S
N320 H327 0.984 1_554 S
N321 C314 1.356 . S
N321 H324 0.984 1_556 S
N321 H325 0.985 . S
H322 N317 0.984 . S
H323 N317 0.985 . S
H324 N321 0.984 1_554 S
H325 N321 0.985 . S
H326 N320 0.984 . S
H327 N320 0.984 1_556 S
H328 N316 0.984 . S
H329 N316 0.985 . S
C330 C331 1.357 1_455 S
C330 C336 1.385 . S
C330 N338 1.353 1_455 S
C331 C330 1.357 1_655 S
C331 C337 1.363 . S
C332 C333 1.357 1_655 S
C332 C337 1.385 . S
C332 N339 1.353 1_655 S
C333 C332 1.357 1_455 S
C333 C336 1.363 . S
N334 C336 1.356 . S
N334 H346 0.984 . S
N334 H347 0.985 . S
N335 C337 1.356 . S
N335 H340 0.984 . S
N335 H341 0.985 . S
C336 C330 1.385 . S
C336 C333 1.363 . S
C336 N334 1.356 . S
C337 C331 1.363 . S
C337 C332 1.385 . S
C337 N335 1.356 . S
N338 C330 1.353 1_655 S
N338 H344 0.984 1_655 S
N338 H345 0.984 . S
N339 C332 1.353 1_455 S
N339 H342 0.984 . S
N339 H343 0.985 1_455 S
H340 N335 0.984 . S
H341 N335 0.985 . S
H342 N339 0.984 . S
H343 N339 0.985 1_655 S
H344 N338 0.984 1_455 S
H345 N338 0.984 . S
H346 N334 0.984 . S
H347 N334 0.985 . S
C348 C349 1.363 . S
C348 C354 1.379 . S
C348 N356 1.356 . S
C349 C348 1.363 . S
C349 C355 1.363 . S
C350 C351 1.363 . S
C350 C355 1.379 . S
C350 N357 1.356 . S
C351 C350 1.363 . S
C351 C354 1.363 . S
N352 C354 1.356 . S
N352 H364 0.984 . S
N352 H365 0.985 . S
N353 C355 1.356 . S
N353 H358 0.984 . S
N353 H359 0.985 . S
C354 C348 1.379 . S
C354 C351 1.363 . S
C354 N352 1.356 . S
C355 C349 1.363 . S
C355 C350 1.379 . S
C355 N353 1.356 . S
N356 C348 1.356 . S
N356 H362 0.984 . S
N356 H363 0.984 . S
N357 C350 1.356 . S
N357 H360 0.984 . S
N357 H361 0.985 . S
H358 N353 0.984 . S
H359 N353 0.985 . S
H360 N357 0.984 . S
H361 N357 0.985 . S
H362 N356 0.984 . S
H363 N356 0.984 . S
H364 N352 0.984 . S
H365 N352 0.985 . S
C366 C367 1.363 . S
C366 C372 1.379 . S
C366 N374 1.356 . S
C367 C366 1.363 . S
C367 C373 1.363 . S
C368 C369 1.363 . S
C368 C373 1.379 . S
C368 N375 1.356 . S
C369 C368 1.363 . S
C369 C372 1.363 . S
N370 C372 1.356 . S
N370 H382 0.984 . S
N370 H383 0.985 . S
N371 C373 1.356 . S
N371 H376 0.984 . S
N371 H377 0.985 . S
C372 C366 1.379 . S
C372 C369 1.363 . S
C372 N370 1.356 . S
C373 C367 1.363 . S
C373 C368 1.379 . S
C373 N371 1.356 . S
N374 C366 1.356 . S
N374 H380 0.984 . S
N374 H381 0.984 . S
N375 C368 1.356 . S
N375 H378 0.984 . S
N375 H379 0.985 . S
H376 N371 0.984 . S
H377 N371 0.985 . S
H378 N375 0.984 . S
H379 N375 0.985 . S
H380 N374 0.984 . S
H381 N374 0.984 . S
H382 N370 0.984 . S
H383 N370 0.985 . S
C384 C385 1.363 . S
C384 C390 1.379 . S
C384 N392 1.356 . S
C385 C384 1.363 . S
C385 C391 1.363 . S
C386 C387 1.363 . S
C386 C391 1.379 . S
C386 N393 1.356 . S
C387 C386 1.363 . S
C387 C390 1.363 . S
N388 C390 1.356 . S
N388 H400 0.984 . S
N388 H401 0.985 . S
N389 C391 1.356 . S
N389 H394 0.984 . S
N389 H395 0.985 . S
C390 C384 1.379 . S
C390 C387 1.363 . S
C390 N388 1.356 . S
C391 C385 1.363 . S
C391 C386 1.379 . S
C391 N389 1.356 . S
N392 C384 1.356 . S
N392 H398 0.984 . S
N392 H399 0.984 . S
N393 C386 1.356 . S
N393 H396 0.984 . S
N393 H397 0.985 . S
H394 N389 0.984 . S
H395 N389 0.985 . S
H396 N393 0.984 . S
H397 N393 0.985 . S
H398 N392 0.984 . S
H399 N392 0.984 . S
H400 N388 0.984 . S
H401 N388 0.985 . S
C402 C403 1.363 . S
C402 C408 1.379 . S
C402 N410 1.356 . S
C403 C402 1.363 . S
C403 C409 1.363 . S
C404 C405 1.363 . S
C404 C409 1.379 . S
C404 N411 1.356 . S
C405 C404 1.363 . S
C405 C408 1.363 . S
N406 C408 1.356 . S
N406 H418 0.984 . S
N406 H419 0.985 . S
N407 C409 1.356 . S
N407 H412 0.984 . S
N407 H413 0.985 . S
C408 C402 1.379 . S
C408 C405 1.363 . S
C408 N406 1.356 . S
C409 C403 1.363 . S
C409 C404 1.379 . S
C409 N407 1.356 . S
N410 C402 1.356 . S
N410 H416 0.984 . S
N410 H417 0.984 . S
N411 C404 1.356 . S
N411 H414 0.984 . S
N411 H415 0.985 . S
H412 N407 0.984 . S
H413 N407 0.985 . S
H414 N411 0.984 . S
H415 N411 0.985 . S
H416 N410 0.984 . S
H417 N410 0.984 . S
H418 N406 0.984 . S
H419 N406 0.985 . S
C420 C421 1.363 . S
C420 C426 1.379 . S
C420 N428 1.356 . S
C421 C420 1.363 . S
C421 C427 1.363 . S
C422 C423 1.363 . S
C422 C427 1.379 . S
C422 N429 1.356 . S
C423 C422 1.363 . S
C423 C426 1.363 . S
N424 C426 1.356 . S
N424 H436 0.984 . S
N424 H437 0.985 . S
N425 C427 1.356 . S
N425 H430 0.984 . S
N425 H431 0.985 . S
C426 C420 1.379 . S
C426 C423 1.363 . S
C426 N424 1.356 . S
C427 C421 1.363 . S
C427 C422 1.379 . S
C427 N425 1.356 . S
N428 C420 1.356 . S
N428 H434 0.984 . S
N428 H435 0.984 . S
N429 C422 1.356 . S
N429 H432 0.984 . S
N429 H433 0.985 . S
H430 N425 0.984 . S
H431 N425 0.985 . S
H432 N429 0.984 . S
H433 N429 0.985 . S
H434 N428 0.984 . S
H435 N428 0.984 . S
H436 N424 0.984 . S
H437 N424 0.985 . S
C438 C439 1.363 . S
C438 C444 1.379 . S
C438 N446 1.356 . S
C439 C438 1.363 . S
C439 C445 1.363 . S
C440 C441 1.363 . S
C440 C445 1.379 . S
C440 N447 1.356 . S
C441 C440 1.363 . S
C441 C444 1.363 . S
N442 C444 1.356 . S
N442 H454 0.984 . S
N442 H455 0.985 . S
N443 C445 1.356 . S
N443 H448 0.984 . S
N443 H449 0.985 . S
C444 C438 1.379 . S
C444 C441 1.363 . S
C444 N442 1.356 . S
C445 C439 1.363 . S
C445 C440 1.379 . S
C445 N443 1.356 . S
N446 C438 1.356 . S
N446 H452 0.984 . S
N446 H453 0.984 . S
N447 C440 1.356 . S
N447 H450 0.984 . S
N447 H451 0.985 . S
H448 N443 0.984 . S
H449 N443 0.985 . S
H450 N447 0.984 . S
H451 N447 0.985 . S
H452 N446 0.984 . S
H453 N446 0.984 . S
H454 N442 0.984 . S
H455 N442 0.985 . S
C456 C457 1.360 1_655 S
C456 C462 1.381 . S
C456 N464 1.355 . S
C457 C456 1.360 1_455 S
C457 C463 1.363 . S
C458 C459 1.363 . S
C458 C463 1.379 . S
C458 N465 1.356 . S
C459 C458 1.363 . S
C459 C462 1.363 1_455 S
N460 C462 1.356 . S
N460 H472 0.984 . S
N460 H473 0.985 . S
N461 C463 1.356 . S
N461 H466 0.984 . S
N461 H467 0.985 . S
C462 C456 1.381 . S
C462 C459 1.363 1_655 S
C462 N460 1.356 . S
C463 C457 1.363 . S
C463 C458 1.379 . S
C463 N461 1.356 . S
N464 C456 1.355 . S
N464 H470 0.984 . S
N464 H471 0.984 1_655 S
N465 C458 1.356 . S
N465 H468 0.984 . S
N465 H469 0.985 . S
H466 N461 0.984 . S
H467 N461 0.985 . S
H468 N465 0.984 . S
H469 N465 0.985 . S
H470 N464 0.984 . S
H471 N464 0.984 1_455 S
H472 N460 0.984 . S
H473 N460 0.985 . S
C474 C475 1.363 1_545 S
C474 C480 1.379 . S
C474 N482 1.356 . S
C475 C474 1.363 1_565 S
C475 C481 1.363 . S
C476 C477 1.363 . S
C476 C481 1.379 . S
C476 N483 1.356 . S
C477 C476 1.363 . S
C477 C480 1.363 1_565 S
N478 C480 1.356 . S
N478 H490 0.984 . S
N478 H491 0.985 . S
N479 C481 1.356 . S
N479 H484 0.984 . S
N479 H485 0.985 . S
C480 C474 1.379 . S
C480 C477 1.363 1_545 S
C480 N478 1.356 . S
C481 C475 1.363 . S
C481 C476 1.379 . S
C481 N479 1.356 . S
N482 C474 1.356 . S
N482 H488 0.984 . S
N482 H489 0.984 . S
N483 C476 1.356 . S
N483 H486 0.984 . S
N483 H487 0.985 . S
H484 N479 0.984 . S
H485 N479 0.985 . S
H486 N483 0.984 . S
H487 N483 0.985 . S
H488 N482 0.984 . S
H489 N482 0.984 . S
H490 N478 0.984 . S
H491 N478 0.985 . S
C492 C493 1.363 . S
C492 C498 1.379 . S
C492 N500 1.356 . S
C493 C492 1.363 . S
C493 C499 1.363 . S
C494 C495 1.363 . S
C494 C499 1.379 . S
C494 N501 1.356 . S
C495 C494 1.363 . S
C495 C498 1.363 . S
N496 C498 1.356 . S
N496 H508 0.984 . S
N496 H509 0.985 . S
N497 C499 1.356 . S
N497 H502 0.984 . S
N497 H503 0.985 . S
C498 C492 1.379 . S
C498 C495 1.363 . S
C498 N496 1.356 . S
C499 C493 1.363 . S
C499 C494 1.379 . S
C499 N497 1.356 . S
N500 C492 1.356 . S
N500 H506 0.984 . S
N500 H507 0.984 . S
N501 C494 1.356 . S
N501 H504 0.984 . S
N501 H505 0.985 . S
H502 N497 0.984 . S
H503 N497 0.985 . S
H504 N501 0.984 . S
H505 N501 0.985 . S
H506 N500 0.984 . S
H507 N500 0.984 . S
H508 N496 0.984 . S
H509 N496 0.985 . S
C510 C511 1.363 . S
C510 C516 1.379 . S
C510 N518 1.356 . S
C511 C510 1.363 . S
C511 C517 1.363 . S
C512 C513 1.363 . S
C512 C517 1.379 . S
C512 N519 1.356 . S
C513 C512 1.363 . S
C513 C516 1.363 . S
N514 C516 1.356 . S
N514 H526 0.984 . S
N514 H527 0.985 . S
N515 C517 1.356 . S
N515 H520 0.984 . S
N515 H521 0.985 . S
C516 C510 1.379 . S
C516 C513 1.363 . S
C516 N514 1.356 . S
C517 C511 1.363 . S
C517 C512 1.379 . S
C517 N515 1.356 . S
N518 C510 1.356 . S
N518 H524 0.984 . S
N518 H525 0.984 . S
N519 C512 1.356 . S
N519 H522 0.984 1_545 S
N519 H523 0.985 . S
H520 N515 0.984 . S
H521 N515 0.985 . S
H522 N519 0.984 1_565 S
H523 N519 0.985 . S
H524 N518 0.984 . S
H525 N518 0.984 . S
H526 N514 0.984 . S
H527 N514 0.985 . S
C528 C529 1.363 . S
C528 C534 1.379 . S
C528 N536 1.356 . S
C529 C528 1.363 . S
C529 C535 1.363 . S
C530 C531 1.363 . S
C530 C535 1.379 . S
C530 N537 1.356 . S
C531 C530 1.363 . S
C531 C534 1.363 . S
N532 C534 1.356 . S
N532 H544 0.984 . S
N532 H545 0.985 . S
N533 C535 1.356 . S
N533 H538 0.984 . S
N533 H539 0.985 . S
C534 C528 1.379 . S
C534 C531 1.363 . S
C534 N532 1.356 . S
C535 C529 1.363 . S
C535 C530 1.379 . S
C535 N533 1.356 . S
N536 C528 1.356 . S
N536 H542 0.984 . S
N536 H543 0.984 . S
N537 C530 1.356 . S
N537 H540 0.984 . S
N537 H541 0.985 . S
H538 N533 0.984 . S
H539 N533 0.985 . S
H540 N537 0.984 . S
H541 N537 0.985 . S
H542 N536 0.984 . S
H543 N536 0.984 . S
H544 N532 0.984 . S
H545 N532 0.985 . S
C546 C547 1.363 . S
C546 C552 1.379 . S
C546 N554 1.356 . S
C547 C546 1.363 . S
C547 C553 1.363 1_655 S
C548 C549 1.363 1_455 S
C548 C553 1.379 . S
C548 N555 1.356 . S
C549 C548 1.363 1_655 S
C549 C552 1.363 . S
N550 C552 1.356 . S
N550 H562 0.984 . S
N550 H563 0.985 . S
N551 C553 1.356 . S
N551 H556 0.984 . S
N551 H557 0.985 . S
C552 C546 1.379 . S
C552 C549 1.363 . S
C552 N550 1.356 . S
C553 C547 1.363 1_455 S
C553 C548 1.379 . S
C553 N551 1.356 . S
N554 C546 1.356 . S
N554 H560 0.984 . S
N554 H561 0.984 . S
N555 C548 1.356 . S
N555 H558 0.984 . S
N555 H559 0.985 . S
H556 N551 0.984 . S
H557 N551 0.985 . S
H558 N555 0.984 . S
H559 N555 0.985 . S
H560 N554 0.984 . S
H561 N554 0.984 . S
H562 N550 0.984 . S
H563 N550 0.985 . S
C241 C183 2.352 . S
C243 C23 2.352 . S
C259 C202 2.619 . S
C261 C42 2.619 . S
C277 C103 2.352 . S
C279 C143 2.352 . S
C295 C2 2.619 . S
C297 C162 2.619 . S
C313 C223 2.352 . S
C315 C63 2.352 . S
C331 C82 2.619 . S
C333 C122 2.619 . S
C349 C17 1.888 . S
C351 C104 1.906 . S
C367 C57 1.888 . S
C369 C24 1.906 . S
C385 C97 1.888 . S
C387 C64 1.906 . S
C403 C137 1.888 . S
C405 C184 1.906 . S
C421 C177 1.888 . S
C423 C224 1.906 . S
C439 C144 1.906 . S
C441 C217 1.888 . S
C457 C26 1.308 . S
C459 C93 1.298 1_455 S
C475 C66 1.308 . S
C477 C13 1.298 1_565 S
C493 C106 1.308 . S
C495 C53 1.298 . S
C511 C146 1.308 . S
C513 C173 1.298 1_545 S
C529 C186 1.308 . S
C531 C213 1.298 . S
C547 C133 1.298 1_655 S
C549 C226 1.308 . S
