# Generated by pormake.
# Topology snk, (6)-cn, num edge types: 1
# Building blocks:
#     Node 0, Type 0, BuildingBlock: GEDQOX_clean_sbu_0, # of connection points: 6
#     Node 1, Type 0, BuildingBlock: GEDQOX_clean_sbu_0, # of connection points: 6
#     Node 2, Type 0, BuildingBlock: GEDQOX_clean_sbu_0, # of connection points: 6
#     Node 3, Type 0, BuildingBlock: GEDQOX_clean_sbu_0, # of connection points: 6
#     Node 4, Type 0, BuildingBlock: GEDQOX_clean_sbu_0, # of connection points: 6
#     Node 5, Type 0, BuildingBlock: GEDQOX_clean_sbu_0, # of connection points: 6
#     Node 6, Type 0, BuildingBlock: GEDQOX_clean_sbu_0, # of connection points: 6
#     Node 7, Type 0, BuildingBlock: GEDQOX_clean_sbu_0, # of connection points: 6
#     Edge 8, Type (0, 0), BuildingBlock: ZUJKAS_clean_linker_0, # of connection points: 2
#     Edge 9, Type (0, 0), BuildingBlock: ZUJKAS_clean_linker_0, # of connection points: 2
#     Edge 10, Type (0, 0), BuildingBlock: ZUJKAS_clean_linker_0, # of connection points: 2
#     Edge 11, Type (0, 0), BuildingBlock: ZUJKAS_clean_linker_0, # of connection points: 2
#     Edge 12, Type (0, 0), BuildingBlock: ZUJKAS_clean_linker_0, # of connection points: 2
#     Edge 13, Type (0, 0), BuildingBlock: ZUJKAS_clean_linker_0, # of connection points: 2
#     Edge 14, Type (0, 0), BuildingBlock: ZUJKAS_clean_linker_0, # of connection points: 2
#     Edge 15, Type (0, 0), BuildingBlock: ZUJKAS_clean_linker_0, # of connection points: 2
#     Edge 16, Type (0, 0), BuildingBlock: ZUJKAS_clean_linker_0, # of connection points: 2
#     Edge 17, Type (0, 0), BuildingBlock: ZUJKAS_clean_linker_0, # of connection points: 2
#     Edge 18, Type (0, 0), BuildingBlock: ZUJKAS_clean_linker_0, # of connection points: 2
#     Edge 19, Type (0, 0), BuildingBlock: ZUJKAS_clean_linker_0, # of connection points: 2
#     Edge 20, Type (0, 0), BuildingBlock: ZUJKAS_clean_linker_0, # of connection points: 2
#     Edge 21, Type (0, 0), BuildingBlock: ZUJKAS_clean_linker_0, # of connection points: 2
#     Edge 22, Type (0, 0), BuildingBlock: ZUJKAS_clean_linker_0, # of connection points: 2
#     Edge 23, Type (0, 0), BuildingBlock: ZUJKAS_clean_linker_0, # of connection points: 2
#     Edge 24, Type (0, 0), BuildingBlock: ZUJKAS_clean_linker_0, # of connection points: 2
#     Edge 25, Type (0, 0), BuildingBlock: ZUJKAS_clean_linker_0, # of connection points: 2
#     Edge 26, Type (0, 0), BuildingBlock: ZUJKAS_clean_linker_0, # of connection points: 2
#     Edge 27, Type (0, 0), BuildingBlock: ZUJKAS_clean_linker_0, # of connection points: 2
#     Edge 28, Type (0, 0), BuildingBlock: ZUJKAS_clean_linker_0, # of connection points: 2
#     Edge 29, Type (0, 0), BuildingBlock: ZUJKAS_clean_linker_0, # of connection points: 2
#     Edge 30, Type (0, 0), BuildingBlock: ZUJKAS_clean_linker_0, # of connection points: 2
#     Edge 31, Type (0, 0), BuildingBlock: ZUJKAS_clean_linker_0, # of connection points: 2
# Relax obj value: 0.117
# Max RMSD: 0.180
# Mean RMSD: 0.180
data_MOF--net-snk--node1-GEDQOX_clean_sbu_0--edge1-ZUJKAS_clean_linker_0
_symmetry_space_group_name_H-M    P1
_symmetry_Int_Tables_number       1
_symmetry_cell_setting            triclinic
loop_
_symmetry_equiv_pos_as_xyz
'x, y, z'
_cell_length_a     69.151546
_cell_length_b     69.173933
_cell_length_c     20.09736
_cell_angle_alpha  89.973676
_cell_angle_beta   90.15282
_cell_angle_gamma 89.968508
loop_
_atom_site_label
_atom_site_type_symbol
_atom_site_fract_x
_atom_site_fract_y
_atom_site_fract_z
_atom_type_partial_charge
Nd0 Nd 0.02382 0.03093 0.52826 0.0
Nd1 Nd 0.99642 0.99077 0.52863 0.0
C2 C 0.03626 0.06716 0.52212 0.0
C3 C 0.05273 0.07922 0.50016 0.0
C4 C 0.05478 0.0979 0.52624 0.0
C5 C 0.06984 0.10995 0.50517 0.0
C6 C 0.08327 0.10361 0.45733 0.0
C7 C 0.08127 0.08472 0.43175 0.0
C8 C 0.06614 0.07265 0.45291 0.0
C9 C 0.04572 0.99705 0.53178 0.0
C10 C 0.01256 1.0091 0.38756 0.0
C11 C 0.98373 0.95465 0.53588 0.0
C12 C 0.96732 0.94263 0.55942 0.0
C13 C 0.97118 0.92567 0.59547 0.0
C14 C 0.95614 0.91339 0.61519 0.0
C15 C 0.93677 0.9177 0.59916 0.0
C16 C 0.93291 0.93491 0.56383 0.0
C17 C 0.948 0.94723 0.54421 0.0
C18 C 0.97456 0.02469 0.52561 0.0
C19 C 1.00764 0.0126 0.66932 0.0
O20 O 0.02568 0.05903 0.47567 0.0
O21 O 0.03904 0.05595 0.57391 0.0
O22 O 0.05325 0.01429 0.53111 0.0
O23 O 0.02767 0.99893 0.52838 0.0
O24 O 0.01755 0.02538 0.41788 0.0
O25 O 1.0069 0.99333 0.41996 0.0
O26 O 0.99491 0.9625 0.58122 0.0
O27 O 0.98084 0.96591 0.48421 0.0
O28 O 0.96699 1.00747 0.52626 0.0
O29 O 0.9926 0.02276 0.52851 0.0
O30 O 1.00264 0.99632 0.63901 0.0
O31 O 0.01331 0.02836 0.63688 0.0
H32 H 0.04464 0.10324 0.56289 0.0
H33 H 0.07105 0.12421 0.52695 0.0
H34 H 0.09119 0.07936 0.39446 0.0
H35 H 0.06482 0.05828 0.43202 0.0
H36 H 0.98595 0.92179 0.60787 0.0
H37 H 0.95973 0.90051 0.64326 0.0
H38 H 0.91825 0.93868 0.54988 0.0
H39 H 0.94454 0.96019 0.51638 0.0
Nd40 Nd 0.2406 0.77453 0.7775 0.0
Nd41 Nd 0.28096 0.74716 0.77847 0.0
C42 C 0.20442 0.78718 0.7704 0.0
C43 C 0.19244 0.80386 0.74896 0.0
C44 C 0.19765 0.81564 0.6949 0.0
C45 C 0.18556 0.83088 0.67444 0.0
C46 C 0.16798 0.83466 0.70751 0.0
C47 C 0.16302 0.82289 0.76207 0.0
C48 C 0.17509 0.80772 0.78244 0.0
C49 C 0.2745 0.79633 0.78165 0.0
C50 C 0.26256 0.76332 0.63712 0.0
C51 C 0.31722 0.73471 0.78581 0.0
C52 C 0.32933 0.7184 0.80939 0.0
C53 C 0.34897 0.72162 0.82291 0.0
C54 C 0.36103 0.7064 0.84303 0.0
C55 C 0.35373 0.6875 0.85021 0.0
C56 C 0.33391 0.68438 0.83719 0.0
C57 C 0.32184 0.69966 0.81706 0.0
C58 C 0.24707 0.72535 0.77448 0.0
C59 C 0.25887 0.75809 0.91884 0.0
O60 O 0.21264 0.77677 0.72384 0.0
O61 O 0.21543 0.78954 0.823 0.0
O62 O 0.25727 0.80392 0.78136 0.0
O63 O 0.27257 0.77832 0.77757 0.0
O64 O 0.24622 0.7682 0.66724 0.0
O65 O 0.27837 0.75776 0.66976 0.0
O66 O 0.30926 0.74575 0.83116 0.0
O67 O 0.30585 0.73154 0.73458 0.0
O68 O 0.2643 0.71777 0.77503 0.0
O69 O 0.24899 0.74337 0.77815 0.0
O70 O 0.2752 0.75315 0.88884 0.0
O71 O 0.24313 0.76381 0.88612 0.0
H72 H 0.21096 0.81295 0.66814 0.0
H73 H 0.18983 0.83948 0.63191 0.0
H74 H 0.14984 0.8255 0.78962 0.0
H75 H 0.17079 0.79887 0.82436 0.0
H76 H 0.35509 0.73594 0.8171 0.0
H77 H 0.3762 0.7094 0.85156 0.0
H78 H 0.32767 0.67013 0.84298 0.0
H79 H 0.3067 0.69683 0.80717 0.0
Nd80 Nd 0.49737 0.98986 0.02741 0.0
Nd81 Nd 0.52417 0.03045 0.02807 0.0
C82 C 0.48506 0.95367 1.01862 0.0
C83 C 0.46848 0.94185 0.99498 0.0
C84 C 0.47201 0.92547 0.95562 0.0
C85 C 0.4568 0.91343 0.93542 0.0
C86 C 0.4376 0.9174 0.9543 0.0
C87 C 0.43408 0.93402 0.99306 0.0
C88 C 0.44932 0.9461 1.01311 0.0
C89 C 0.47508 0.02347 0.03188 0.0
C90 C 0.50804 0.01211 0.88679 0.0
C91 C 0.5362 0.06678 0.0358 0.0
C92 C 0.55256 0.07873 0.05957 0.0
C93 C 0.54933 0.09822 0.07523 0.0
C94 C 0.56462 0.11011 0.09571 0.0
C95 C 0.58357 0.10279 0.10104 0.0
C96 C 0.58671 0.08312 0.0859 0.0
C97 C 0.57136 0.07121 0.06548 0.0
C98 C 0.54649 0.99687 0.02411 0.0
C99 C 0.5136 1.00815 0.16864 0.0
O100 O 0.49592 0.96185 0.97327 0.0
O101 O 0.48246 0.96457 0.07129 0.0
O102 O 0.46775 1.00615 0.03195 0.0
O103 O 0.49311 0.02176 0.0272 0.0
O104 O 0.5033 0.99574 0.91701 0.0
O105 O 0.51357 0.02791 0.91934 0.0
O106 O 0.52531 0.05863 0.08115 0.0
O107 O 0.5393 0.05561 0.98416 0.0
O108 O 0.55381 0.01419 0.02449 0.0
O109 O 0.52844 0.99854 0.02788 0.0
O110 O 0.5183 0.02455 0.13848 0.0
O111 O 0.50809 0.99235 0.13604 0.0
H112 H 0.48664 0.92187 0.94093 0.0
H113 H 0.46013 0.90101 0.90472 0.0
H114 H 0.41957 0.93749 1.0093 0.0
H115 H 0.44611 0.95862 0.0435 0.0
H116 H 0.53496 0.10433 0.07084 0.0
H117 H 0.56163 0.12518 0.10597 0.0
H118 H 0.60102 0.07688 0.09024 0.0
H119 H 0.57419 0.05618 0.05397 0.0
Nd120 Nd 0.28005 0.24565 0.27651 0.0
Nd121 Nd 0.2397 0.27292 0.27774 0.0
C122 C 0.31614 0.23291 0.26774 0.0
C123 C 0.32799 0.21639 0.24378 0.0
C124 C 0.34368 0.21994 0.2013 0.0
C125 C 0.35587 0.20486 0.18101 0.0
C126 C 0.35275 0.18577 0.20293 0.0
C127 C 0.33681 0.18221 0.24481 0.0
C128 C 0.32458 0.19731 0.26498 0.0
C129 C 0.24618 0.22378 0.27992 0.0
C130 C 0.2579 0.25706 0.13616 0.0
C131 C 0.20357 0.28554 0.28569 0.0
C132 C 0.1919 0.30205 0.31012 0.0
C133 C 0.17342 0.29857 0.33622 0.0
C134 C 0.16169 0.31391 0.35726 0.0
C135 C 0.16813 0.33318 0.35259 0.0
C136 C 0.18679 0.3366 0.32697 0.0
C137 C 0.19856 0.32121 0.3061 0.0
C138 C 0.27349 0.29489 0.27542 0.0
C139 C 0.26191 0.26159 0.41794 0.0
O140 O 0.30808 0.24404 0.22267 0.0
O141 O 0.30516 0.23021 0.32012 0.0
O142 O 0.26341 0.21622 0.27993 0.0
O143 O 0.2481 0.24179 0.276 0.0
O144 O 0.27422 0.25203 0.16632 0.0
O145 O 0.24215 0.26267 0.16873 0.0
O146 O 0.2115 0.27425 0.33055 0.0
O147 O 0.21475 0.28856 0.23406 0.0
O148 O 0.25623 0.30238 0.27644 0.0
O149 O 0.2717 0.27683 0.27768 0.0
O150 O 0.24551 0.26643 0.38785 0.0
O151 O 0.27769 0.25612 0.38528 0.0
H152 H 0.34667 0.2345 0.18427 0.0
H153 H 0.36773 0.20821 0.14791 0.0
H154 H 0.33401 0.16779 0.26345 0.0
H155 H 0.31264 0.19407 0.29791 0.0
H156 H 0.16794 0.28394 0.33958 0.0
H157 H 0.14737 0.31067 0.37585 0.0
H158 H 0.19237 0.35118 0.32344 0.0
H159 H 0.2128 0.3243 0.28648 0.0
Nd160 Nd 0.74415 0.27269 0.26661 0.0
Nd161 Nd 0.78013 0.24827 0.26055 0.0
C162 C 0.70963 0.28943 0.25324 0.0
C163 C 0.69848 0.30546 0.22185 0.0
C164 C 0.68249 0.30115 0.18122 0.0
C165 C 0.67029 0.31587 0.15772 0.0
C166 C 0.67366 0.33536 0.17452 0.0
C167 C 0.69002 0.33969 0.21381 0.0
C168 C 0.70224 0.32496 0.23721 0.0
C169 C 0.77784 0.29352 0.28587 0.0
C170 C 0.7648 0.26489 0.12202 0.0
C171 C 0.81456 0.23134 0.27384 0.0
C172 C 0.82575 0.21553 0.30644 0.0
C173 C 0.8421 0.2201 0.34502 0.0
C174 C 0.85431 0.20551 0.36942 0.0
C175 C 0.85059 0.18589 0.35559 0.0
C176 C 0.83388 0.18132 0.31843 0.0
C177 C 0.82165 0.19593 0.29412 0.0
C178 C 0.74632 0.22766 0.24062 0.0
C179 C 0.7595 0.25602 0.40516 0.0
O180 O 0.71542 0.27505 0.21596 0.0
O181 O 0.72207 0.29376 0.29993 0.0
O182 O 0.76164 0.29704 0.31551 0.0
O183 O 0.77572 0.2802 0.24349 0.0
O184 O 0.74841 0.26794 0.1539 0.0
O185 O 0.7808 0.26069 0.15496 0.0
O186 O 0.80911 0.24614 0.30971 0.0
O187 O 0.80184 0.22665 0.22849 0.0
O188 O 0.76245 0.22423 0.21037 0.0
O189 O 0.74859 0.24077 0.28365 0.0
O190 O 0.77589 0.25292 0.37329 0.0
O191 O 0.74353 0.26028 0.37223 0.0
H192 H 0.67913 0.28628 0.16891 0.0
H193 H 0.65808 0.31192 0.12674 0.0
H194 H 0.69304 0.35444 0.22855 0.0
H195 H 0.71433 0.32884 0.26887 0.0
H196 H 0.84573 0.23506 0.35497 0.0
H197 H 0.86679 0.20966 0.39873 0.0
H198 H 0.83057 0.16645 0.306 0.0
H199 H 0.80928 0.19184 0.26412 0.0
Nd200 Nd 0.7775 0.74474 0.78292 0.0
Nd201 Nd 0.74123 0.77345 0.77905 0.0
C202 C 0.80892 0.72294 0.77215 0.0
C203 C 0.82476 0.71334 0.7347 0.0
C204 C 0.84384 0.71488 0.75813 0.0
C205 C 0.85848 0.70296 0.73275 0.0
C206 C 0.85439 0.68908 0.68339 0.0
C207 C 0.83545 0.68829 0.6575 0.0
C208 C 0.82082 0.70024 0.68287 0.0
C209 C 0.742 0.72916 0.81518 0.0
C210 C 0.75834 0.75719 0.63867 0.0
C211 C 0.70578 0.78796 0.7869 0.0
C212 C 0.69425 0.80442 0.8133 0.0
C213 C 0.67865 0.80071 0.85607 0.0
C214 C 0.66651 0.81572 0.87738 0.0
C215 C 0.66958 0.83489 0.85621 0.0
C216 C 0.68546 0.83862 0.81425 0.0
C217 C 0.69763 0.82359 0.79305 0.0
C218 C 0.77531 0.79462 0.77115 0.0
C219 C 0.76359 0.76392 0.92131 0.0
O220 O 0.80978 0.74141 0.78689 0.0
O221 O 0.79126 0.7166 0.76352 0.0
O222 O 0.75808 0.72492 0.84513 0.0
O223 O 0.74495 0.74111 0.7686 0.0
O224 O 0.77376 0.75079 0.67106 0.0
O225 O 0.74292 0.76402 0.66973 0.0
O226 O 0.71271 0.77541 0.82974 0.0
O227 O 0.71753 0.79128 0.73708 0.0
O228 O 0.75821 0.80238 0.77234 0.0
O229 O 0.7735 0.77658 0.7762 0.0
O230 O 0.7473 0.76891 0.89088 0.0
O231 O 0.77869 0.757 0.88864 0.0
H232 H 0.84729 0.72473 0.79837 0.0
H233 H 0.87293 0.7043 0.75312 0.0
H234 H 0.83163 0.67773 0.61994 0.0
H235 H 0.80623 0.69856 0.66395 0.0
H236 H 0.67562 0.78608 0.87227 0.0
H237 H 0.65468 0.81225 0.91048 0.0
H238 H 0.68822 0.8531 0.79615 0.0
H239 H 0.70945 0.82698 0.75979 0.0
Nd240 Nd 0.52272 0.52803 1.01862 0.0
Nd241 Nd 0.49675 0.48926 1.01511 0.0
C242 C 0.53477 0.56437 1.01203 0.0
C243 C 0.5506 0.57667 0.98611 0.0
C244 C 0.54653 0.59572 0.96666 0.0
C245 C 0.5614 0.60817 0.94652 0.0
C246 C 0.58076 0.60186 0.94548 0.0
C247 C 0.58474 0.58258 0.96378 0.0
C248 C 0.56983 0.57011 0.9838 0.0
C249 C 0.54609 0.49511 1.01832 0.0
C250 C 0.51454 0.50556 0.87791 0.0
C251 C 0.48111 0.45432 0.02796 0.0
C252 C 0.46417 0.44336 0.05405 0.0
C253 C 0.46484 0.43454 0.11715 0.0
C254 C 0.44977 0.42247 0.13862 0.0
C255 C 0.43371 0.41874 0.09731 0.0
C256 C 0.43292 0.42788 0.03474 0.0
C257 C 0.44794 0.43995 1.01336 0.0
C258 C 0.4771 0.52351 0.99362 0.0
C259 C 0.50698 0.5099 0.15996 0.0
O260 O 0.52272 0.55681 0.96877 0.0
O261 O 0.53899 0.55263 0.0612 0.0
O262 O 0.55287 0.51261 1.01959 0.0
O263 O 0.528 0.49619 1.01563 0.0
O264 O 0.51654 0.52251 0.90772 0.0
O265 O 0.51099 0.48952 0.91188 0.0
O266 O 0.49356 0.46153 0.07041 0.0
O267 O 0.47843 0.46549 0.97619 0.0
O268 O 0.4719 0.50695 0.96923 0.0
O269 O 0.49098 0.5212 0.03389 0.0
O270 O 0.49999 0.49473 0.12758 0.0
O271 O 0.51459 0.52503 0.12913 0.0
H272 H 0.53183 0.60113 0.96835 0.0
H273 H 0.55774 0.62293 0.9336 0.0
H274 H 0.5994 0.57709 0.96267 0.0
H275 H 0.57336 0.55544 0.99831 0.0
H276 H 0.47724 0.43656 0.14941 0.0
H277 H 0.45102 0.41556 0.18679 0.0
H278 H 0.42069 0.42562 1.00189 0.0
H279 H 0.44698 0.44629 0.96418 0.0
Nd280 Nd 0.99832 0.49256 0.52173 0.0
Nd281 Nd 0.02541 0.53066 0.51922 0.0
C282 C 0.98253 0.4577 0.50958 0.0
C283 C 0.96729 0.44597 0.47708 0.0
C284 C 0.97059 0.42618 0.46712 0.0
C285 C 0.95593 0.4142 0.44233 0.0
C286 C 0.93753 0.42173 0.42678 0.0
C287 C 0.93443 0.44173 0.43535 0.0
C288 C 0.94915 0.45373 0.46026 0.0
C289 C 0.9797 0.52731 0.54285 0.0
C290 C 1.00864 0.5133 0.37744 0.0
C291 C 0.03893 0.56649 0.5259 0.0
C292 C 0.05544 0.57831 0.55093 0.0
C293 C 0.05645 0.58452 0.61756 0.0
C294 C 0.07128 0.59695 0.63885 0.0
C295 C 0.08542 0.60361 0.594 0.0
C296 C 0.08451 0.59714 0.52765 0.0
C297 C 0.06972 0.58475 0.50642 0.0
C298 C 0.04777 0.49707 0.52033 0.0
C299 C 0.0159 0.50866 0.65987 0.0
O300 O 0.99714 0.46353 0.4735 0.0
O301 O 0.97707 0.4705 0.55358 0.0
O302 O 0.97413 0.51093 0.56772 0.0
O303 O 0.99352 0.5247 0.50277 0.0
O304 O 1.00091 0.49843 0.40938 0.0
O305 O 0.01712 0.52793 0.4086 0.0
O306 O 0.0267 0.55929 0.56919 0.0
O307 O 0.04225 0.55481 0.47584 0.0
O308 O 0.05507 0.51435 0.51909 0.0
O309 O 0.02972 0.49875 0.52254 0.0
O310 O 0.01864 0.52548 0.62982 0.0
O311 O 0.0119 0.49269 0.62615 0.0
H312 H 0.98442 0.41984 0.48025 0.0
H313 H 0.95886 0.39889 0.43745 0.0
H314 H 0.92058 0.44814 0.42306 0.0
H315 H 0.94625 0.46898 0.46743 0.0
H316 H 0.04558 0.58007 0.65313 0.0
H317 H 0.07133 0.60175 0.69011 0.0
H318 H 0.09526 0.60167 0.49181 0.0
H319 H 0.06931 0.58043 0.45463 0.0
H320 H 0.12117 0.09437 0.42951 0.0
H321 H 0.14721 0.11608 0.39463 0.0
H322 H 0.10765 0.16423 0.39806 0.0
H323 H 0.08153 0.14267 0.43246 0.0
H324 H 0.15047 0.13977 0.28314 0.0
H325 H 0.15195 0.184 0.51354 0.0
H326 H 0.1394 0.16118 0.50859 0.0
H327 H 0.1287 0.18263 0.47385 0.0
C328 C 0.11793 0.10955 0.42243 0.0
C329 C 0.09919 0.11672 0.43446 0.0
C330 C 0.13289 0.12199 0.40274 0.0
C331 C 0.12954 0.1419 0.39485 0.0
C332 C 0.11078 0.14904 0.40545 0.0
H333 H 0.20877 0.23731 0.29121 0.0
H334 H 0.17952 0.21822 0.31494 0.0
C335 C 0.09582 0.13664 0.42518 0.0
C336 C 0.1456 0.1551 0.37474 0.0
H337 H 0.17198 0.19435 0.42519 0.0
C338 C 0.15516 0.15169 0.31427 0.0
C339 C 0.1517 0.17079 0.41501 0.0
C340 C 0.14255 0.17483 0.48164 0.0
C341 C 0.17056 0.16347 0.29302 0.0
C342 C 0.17689 0.17893 0.33384 0.0
C343 C 0.16712 0.18257 0.39374 0.0
C344 C 0.19436 0.19066 0.31731 0.0
C345 C 0.17979 0.15933 0.2266 0.0
C346 C 0.21245 0.18163 0.31128 0.0
C347 C 0.22907 0.19248 0.298 0.0
C348 C 0.22808 0.21267 0.29079 0.0
C349 C 0.20998 0.22179 0.29656 0.0
C350 C 0.19328 0.21089 0.31012 0.0
H351 H 0.16981 0.15131 0.19314 0.0
H352 H 0.18429 0.1729 0.20144 0.0
H353 H 0.19283 0.15025 0.2344 0.0
H354 H 0.21381 0.16615 0.31803 0.0
H355 H 0.24279 0.18501 0.29426 0.0
H356 H 0.0847 0.99337 0.53398 0.0
H357 H 0.10398 0.96472 0.55931 0.0
H358 H 0.05178 0.93131 0.58257 0.0
H359 H 0.03238 0.96006 0.55526 0.0
H360 H 0.10485 0.94433 0.67279 0.0
H361 H 0.08327 0.8956 0.46635 0.0
H362 H 0.07768 0.92108 0.46616 0.0
H363 H 0.06341 0.90458 0.51467 0.0
C364 C 0.07729 0.97987 0.54363 0.0
C365 C 0.05698 0.97899 0.54254 0.0
C366 C 0.08836 0.96347 0.55833 0.0
C367 C 0.07945 0.9457 0.5724 0.0
C368 C 0.0591 0.94469 0.57061 0.0
H369 H 0.12821 0.83481 0.70153 0.0
H370 H 0.10675 0.86144 0.66994 0.0
C371 C 0.04797 0.96117 0.5554 0.0
C372 C 0.09162 0.9287 0.59202 0.0
H373 H 0.10325 0.88211 0.55052 0.0
C374 C 0.1045 0.93076 0.64583 0.0
C375 C 0.09119 0.91088 0.55726 0.0
C376 C 0.07828 0.90788 0.49752 0.0
C377 C 0.11683 0.91563 0.66585 0.0
C378 C 0.11659 0.89791 0.63061 0.0
C379 C 0.10352 0.89569 0.57744 0.0
C380 C 0.1298 0.88156 0.64831 0.0
C381 C 0.12981 0.91867 0.72541 0.0
C382 C 0.15 0.88381 0.64575 0.0
C383 C 0.16236 0.86861 0.66423 0.0
C384 C 0.15484 0.85074 0.68557 0.0
C385 C 0.13458 0.84843 0.68663 0.0
C386 C 0.12225 0.86362 0.66803 0.0
H387 H 0.12467 0.93077 0.75715 0.0
H388 H 0.13071 0.90539 0.75629 0.0
H389 H 0.14459 0.92229 0.70805 0.0
H390 H 0.15624 0.89737 0.62957 0.0
H391 H 0.17782 0.87103 0.66298 0.0
H392 H 0.27805 0.83517 0.79247 0.0
H393 H 0.30692 0.854 0.81856 0.0
H394 H 0.34071 0.80161 0.82596 0.0
H395 H 0.31171 0.78267 0.798 0.0
H396 H 0.32884 0.85233 0.93015 0.0
H397 H 0.37449 0.8358 0.71054 0.0
H398 H 0.349 0.83028 0.71301 0.0
H399 H 0.36609 0.81494 0.75511 0.0
C400 C 0.29166 0.82764 0.79888 0.0
C401 C 0.29259 0.8074 0.79326 0.0
C402 C 0.30818 0.83844 0.814 0.0
C403 C 0.32611 0.82933 0.8238 0.0
C404 C 0.32716 0.80908 0.81747 0.0
H405 H 0.43795 0.87764 0.94617 0.0
H406 H 0.41143 0.85606 0.91489 0.0
C407 C 0.31056 0.79822 0.80196 0.0
C408 C 0.34329 0.84114 0.84354 0.0
H409 H 0.38894 0.85437 0.79629 0.0
C410 C 0.34196 0.85276 0.90074 0.0
C411 C 0.36051 0.84171 0.8055 0.0
C412 C 0.36264 0.83016 0.74229 0.0
C413 C 0.35723 0.86488 0.92082 0.0
C414 C 0.37431 0.86568 0.88225 0.0
C415 C 0.37584 0.85381 0.82575 0.0
C416 C 0.39059 0.87894 0.89947 0.0
C417 C 0.35503 0.87656 0.98375 0.0
C418 C 0.38786 0.89907 0.90021 0.0
C419 C 0.40306 0.91151 0.9176 0.0
C420 C 0.42142 0.90414 0.9345 0.0
C421 C 0.42415 0.88394 0.93273 0.0
C422 C 0.40894 0.87152 0.91515 0.0
H423 H 0.3435 0.87064 1.01632 0.0
H424 H 0.3688 0.87696 1.01229 0.0
H425 H 0.35104 0.89162 0.97057 0.0
H426 H 0.37395 0.9052 0.88697 0.0
H427 H 0.40044 0.92695 0.91702 0.0
H428 H 0.48819 0.06095 0.04614 0.0
H429 H 0.46889 0.08968 0.0752 0.0
H430 H 0.41713 0.05496 0.07296 0.0
H431 H 0.43626 0.02642 0.04555 0.0
H432 H 0.43767 0.10795 1.0115 0.0
H433 H 0.41471 0.07951 0.25639 0.0
H434 H 0.4341 0.06876 0.20919 0.0
H435 H 0.40931 0.06328 0.18927 0.0
C436 C 0.47272 0.05951 0.05199 0.0
C437 C 0.4638 0.04138 0.04442 0.0
C438 C 0.46168 0.07592 0.06847 0.0
C439 C 0.44156 0.07443 0.07788 0.0
C440 C 0.43265 0.05644 0.06783 0.0
H441 H 0.34389 0.14793 0.17257 0.0
H442 H 0.36605 0.12182 0.14208 0.0
C443 C 0.44362 0.04013 0.05165 0.0
C444 C 0.42972 0.09151 0.09813 0.0
H445 H 0.39745 0.10694 0.21554 0.0
C446 C 0.42904 0.10782 0.05646 0.0
C447 C 0.41843 0.09142 0.15689 0.0
C448 C 0.41928 0.07489 0.20587 0.0
C449 C 0.41687 0.12366 0.07069 0.0
C450 C 0.40525 0.12333 0.12864 0.0
C451 C 0.40621 0.10717 0.17086 0.0
C452 C 0.39184 0.13946 0.14625 0.0
C453 C 0.4161 0.14035 1.02242 0.0
C454 C 0.39891 0.15809 0.15962 0.0
C455 C 0.38628 0.17306 0.17766 0.0
C456 C 0.36621 0.16978 0.18302 0.0
C457 C 0.35921 0.15104 0.16981 0.0
C458 C 0.37187 0.13607 0.15194 0.0
H459 H 0.42224 0.13642 0.9732 0.0
H460 H 0.40099 0.1454 1.01519 0.0
H461 H 0.42466 0.15257 0.04274 0.0
H462 H 0.41428 0.161 0.15716 0.0
H463 H 0.39233 0.18713 0.18872 0.0
H464 H 0.93701 0.87788 0.59968 0.0
H465 H 0.91082 0.85587 0.63027 0.0
H466 H 0.87393 0.90457 0.67218 0.0
H467 H 0.9001 0.92671 0.64264 0.0
H468 H 0.8901 0.85197 0.7502 0.0
H469 H 0.84136 0.87246 0.54226 0.0
H470 H 0.86667 0.87885 0.54374 0.0
H471 H 0.84949 0.89257 0.59134 0.0
C472 C 0.92341 0.88398 0.61599 0.0
C473 C 0.92076 0.90418 0.61833 0.0
C474 C 0.90838 0.87132 0.63319 0.0
C475 C 0.89027 0.8785 0.65264 0.0
C476 C 0.88762 0.89863 0.65596 0.0
H477 H 0.77933 0.83352 0.76999 0.0
H478 H 0.80799 0.85253 0.74332 0.0
C479 C 0.90264 0.91131 0.63888 0.0
C480 C 0.87417 0.865 0.66968 0.0
H481 H 0.82787 0.85277 0.62701 0.0
C482 C 0.87653 0.85204 0.72302 0.0
C483 C 0.85648 0.86498 0.63405 0.0
C484 C 0.85334 0.87782 0.57425 0.0
C485 C 0.86146 0.83961 0.74314 0.0
C486 C 0.84364 0.83987 0.70821 0.0
C487 C 0.84147 0.85257 0.65407 0.0
C488 C 0.82669 0.82783 0.72844 0.0
C489 C 0.86453 0.82683 0.80306 0.0
C490 C 0.82754 0.80748 0.7296 0.0
C491 C 0.81105 0.79649 0.7454 0.0
C492 C 0.7934 0.80567 0.75975 0.0
C493 C 0.7927 0.82599 0.75929 0.0
C494 C 0.8091 0.8369 0.74384 0.0
H495 H 0.87705 0.83166 0.8336 0.0
H496 H 0.85145 0.82657 0.83496 0.0
H497 H 0.86746 0.81184 0.78617 0.0
H498 H 0.8408 0.80007 0.71664 0.0
H499 H 0.81198 0.78087 0.74464 0.0
H500 H 0.98801 0.06179 0.50522 0.0
H501 H 0.96862 0.09095 0.48235 0.0
H502 H 0.91639 0.05738 0.50038 0.0
H503 H 0.93557 0.02845 0.52296 0.0
H504 H 0.94141 0.09661 0.37657 0.0
H505 H 0.90579 0.10385 0.62186 0.0
H506 H 0.92718 0.0893 0.60963 0.0
H507 H 0.90378 0.0801 0.58659 0.0
C508 C 0.97241 0.06073 0.50486 0.0
C509 C 0.96334 0.04283 0.51604 0.0
C510 C 0.96133 0.07737 0.49169 0.0
C511 C 0.94099 0.07646 0.49047 0.0
C512 C 0.932 0.0586 0.50226 0.0
H513 H 0.84221 0.14922 0.40118 0.0
H514 H 0.86483 0.1236 0.43301 0.0
C515 C 0.94302 0.04202 0.51492 0.0
C516 C 0.929 0.09382 0.47411 0.0
H517 H 0.89201 0.12195 0.53244 0.0
C518 C 0.93078 0.10232 0.41093 0.0
C519 C 0.91501 0.10123 0.51872 0.0
C520 C 0.9129 0.09329 0.58824 0.0
C521 C 0.91852 0.11749 0.39031 0.0
C522 C 0.90431 0.12471 0.4346 0.0
C523 C 0.9028 0.11643 0.49826 0.0
C524 C 0.89061 0.14055 0.41546 0.0
C525 C 0.92041 0.1251 0.32026 0.0
C526 C 0.89743 0.1588 0.39582 0.0
C527 C 0.88451 0.17347 0.37697 0.0
C528 C 0.86436 0.17036 0.37778 0.0
C529 C 0.85757 0.15215 0.39877 0.0
C530 C 0.87052 0.13748 0.41751 0.0
H531 H 0.92817 0.11476 0.28753 0.0
H532 H 0.906 0.12815 0.29812 0.0
H533 H 0.92878 0.13878 0.32116 0.0
H534 H 0.91281 0.16175 0.39507 0.0
H535 H 0.89038 0.18717 0.36061 0.0
H536 H 0.71126 0.23033 0.3052 0.0
H537 H 0.68274 0.20944 0.28955 0.0
H538 H 0.71327 0.17726 0.13913 0.0
H539 H 0.7416 0.19777 0.15485 0.0
H540 H 0.66048 0.20208 0.17401 0.0
H541 H 0.69486 0.13466 0.26448 0.0
H542 H 0.70518 0.15824 0.27938 0.0
H543 H 0.70852 0.14645 0.20044 0.0
C544 C 0.71186 0.21873 0.26906 0.0
C545 C 0.72875 0.21557 0.23179 0.0
C546 C 0.69557 0.20683 0.26007 0.0
C547 C 0.69597 0.19149 0.21408 0.0
C548 C 0.71272 0.18864 0.17605 0.0
H549 H 0.62066 0.10353 0.05189 0.0
H550 H 0.64709 0.12527 0.08272 0.0
C551 C 0.72891 0.20048 0.1849 0.0
C552 C 0.6789 0.17858 0.20434 0.0
H553 H 0.66523 0.13105 0.20457 0.0
C554 C 0.66142 0.18657 0.18146 0.0
C555 C 0.68011 0.15832 0.21392 0.0
C556 C 0.69811 0.1489 0.24152 0.0
C557 C 0.64543 0.17481 0.16547 0.0
C558 C 0.64681 0.1545 0.17364 0.0
C559 C 0.66416 0.14658 0.19788 0.0
C560 C 0.63062 0.14115 0.15596 0.0
C561 C 0.62745 0.18419 0.13757 0.0
C562 C 0.61258 0.14253 0.18762 0.0
C563 C 0.59742 0.13003 0.17029 0.0
C564 C 0.59995 0.11573 0.12112 0.0
C565 C 0.61817 0.11418 0.09041 0.0
C566 C 0.63331 0.1267 0.10775 0.0
H567 H 0.63035 0.19903 0.11899 0.0
H568 H 0.62131 0.17547 0.09624 0.0
H569 H 0.6164 0.18522 0.17733 0.0
H570 H 0.61025 0.15321 0.22617 0.0
H571 H 0.58376 0.13145 0.19601 0.0
H572 H 0.6783 0.87268 0.88775 0.0
H573 H 0.65604 0.8987 0.91814 0.0
H574 H 0.60793 0.85942 0.90154 0.0
H575 H 0.63 0.83338 0.87013 0.0
H576 H 0.62493 0.9136 0.8441 0.0
H577 H 0.59927 0.88388 0.08496 0.0
H578 H 0.62062 0.87489 0.04365 0.0
H579 H 0.59701 0.8678 1.0152 0.0
C580 C 0.66299 0.86953 0.89022 0.0
C581 C 0.65606 0.85079 0.87657 0.0
C582 C 0.65026 0.88444 0.90802 0.0
C583 C 0.63029 0.88101 0.91319 0.0
C584 C 0.62329 0.86237 0.8995 0.0
H585 H 0.53342 0.95943 1.00828 0.0
H586 H 0.55288 0.93072 0.98026 0.0
C587 C 0.63599 0.84745 0.88154 0.0
C588 C 0.6168 0.89711 0.93041 0.0
H589 H 0.58389 0.91235 0.04616 0.0
C590 C 0.61599 0.91331 0.88835 0.0
C591 C 0.60494 0.89672 0.98781 0.0
C592 C 0.60554 0.87998 0.03593 0.0
C593 C 0.60372 0.92905 0.90195 0.0
C594 C 0.59218 0.92888 0.96014 0.0
C595 C 0.59271 0.91253 1.00164 0.0
C596 C 0.58024 0.94593 0.97999 0.0
C597 C 0.60306 0.94564 0.8532 0.0
C598 C 0.58911 0.96389 0.99105 0.0
C599 C 0.57806 0.98019 1.00672 0.0
C600 C 0.55784 0.97895 1.01237 0.0
C601 C 0.54894 0.96085 1.00377 0.0
C602 C 0.56006 0.94445 0.98785 0.0
H603 H 0.60791 0.94112 0.8029 0.0
H604 H 0.58824 0.95172 0.84908 0.0
H605 H 0.61289 0.95726 0.87064 0.0
H606 H 0.60466 0.96536 0.98705 0.0
H607 H 0.58539 0.99388 1.01359 0.0
H608 H 0.61682 0.60511 1.00224 0.0
H609 H 0.6426 0.62785 0.97422 0.0
H610 H 0.60689 0.65242 0.81971 0.0
H611 H 0.58102 0.62965 0.84722 0.0
H612 H 0.66243 0.63297 0.85692 0.0
H613 H 0.62329 0.70044 0.9222 0.0
H614 H 0.61475 0.67682 0.94656 0.0
H615 H 0.61106 0.68531 0.86294 0.0
C616 C 0.61445 0.61523 0.96191 0.0
C617 C 0.59673 0.61551 0.92721 0.0
C618 C 0.6292 0.62833 0.94618 0.0
C619 C 0.62663 0.64214 0.89559 0.0
C620 C 0.60909 0.64228 0.8601 0.0
H621 H 0.70768 0.73072 0.74471 0.0
H622 H 0.679 0.71007 0.76046 0.0
C623 C 0.5943 0.62919 0.87587 0.0
C624 C 0.64252 0.65597 0.87926 0.0
H625 H 0.65426 0.70406 0.87388 0.0
C626 C 0.6606 0.6485 0.86064 0.0
C627 C 0.64018 0.6763 0.88355 0.0
C628 C 0.62134 0.68526 0.90543 0.0
C629 C 0.67635 0.6607 0.84657 0.0
C630 C 0.67414 0.68099 0.85232 0.0
C631 C 0.65596 0.68853 0.86944 0.0
C632 C 0.69088 0.6944 0.8444 0.0
C633 C 0.69523 0.65171 0.82528 0.0
C634 C 0.70682 0.69291 0.88746 0.0
C635 C 0.72308 0.70462 0.87861 0.0
C636 C 0.72382 0.71822 0.82665 0.0
C637 C 0.70757 0.72031 0.78498 0.0
C638 C 0.6912 0.70852 0.79393 0.0
H639 H 0.69309 0.63692 0.80498 0.0
H640 H 0.70252 0.66069 0.78701 0.0
H641 H 0.70498 0.65057 0.86906 0.0
H642 H 0.70678 0.68248 0.92768 0.0
H643 H 0.73526 0.70276 0.91205 0.0
H644 H 0.63394 0.33375 0.16636 0.0
H645 H 0.61147 0.35929 0.13295 0.0
H646 H 0.65931 0.3983 0.10433 0.0
H647 H 0.68195 0.37264 0.13505 0.0
H648 H 0.60452 0.39425 0.18957 0.0
H649 H 0.63014 0.40543 0.93166 0.0
H650 H 0.63728 0.38478 0.98086 0.0
H651 H 0.6491 0.40772 0.99224 0.0
C652 C 0.63978 0.34763 0.15174 0.0
C653 C 0.65989 0.35096 0.15304 0.0
C654 C 0.62684 0.36231 0.13315 0.0
C655 C 0.63362 0.38071 0.11498 0.0
C656 C 0.65366 0.38415 0.11663 0.0
H657 H 0.58524 0.49272 1.02396 0.0
H658 H 0.60524 0.46422 0.04552 0.0
C659 C 0.66662 0.36947 0.13513 0.0
C660 C 0.61973 0.39645 0.09657 0.0
H661 H 0.60887 0.42946 0.97512 0.0
C662 C 0.60536 0.40181 0.14238 0.0
C663 C 0.62071 0.40635 0.0349 0.0
C664 C 0.63501 0.40067 0.98179 0.0
C665 C 0.59246 0.41715 0.12928 0.0
C666 C 0.59372 0.42729 0.06821 0.0
C667 C 0.60788 0.42173 1.02196 0.0
C668 C 0.5812 0.44436 0.05281 0.0
C669 C 0.57803 0.42282 0.18198 0.0
C670 C 0.56094 0.44272 0.04836 0.0
C671 C 0.54941 0.45908 0.03575 0.0
C672 C 0.55794 0.47736 0.02732 0.0
C673 C 0.57821 0.47885 0.03034 0.0
C674 C 0.58969 0.46255 0.04266 0.0
H675 H 0.58165 0.41644 0.23121 0.0
H676 H 0.5773 0.43878 0.1872 0.0
H677 H 0.56347 0.41758 0.16726 0.0
H678 H 0.55404 0.4288 0.05478 0.0
H679 H 0.53385 0.45747 0.03348 0.0
H680 H 0.89897 0.4231 0.45982 0.0
H681 H 0.87327 0.40073 0.42716 0.0
H682 H 0.914 0.36801 0.31064 0.0
H683 H 0.93978 0.39041 0.34243 0.0
H684 H 0.85893 0.39067 0.30219 0.0
H685 H 0.8901 0.32639 0.42899 0.0
H686 H 0.89859 0.35063 0.44487 0.0
H687 H 0.90599 0.33806 0.37095 0.0
C688 C 0.90248 0.4113 0.42661 0.0
C689 C 0.92158 0.40859 0.40418 0.0
C690 C 0.88775 0.39842 0.40828 0.0
C691 C 0.89172 0.38244 0.36739 0.0
C692 C 0.91063 0.37993 0.34357 0.0
H693 H 0.81379 0.28932 0.22843 0.0
H694 H 0.8421 0.31058 0.24277 0.0
C695 C 0.92538 0.3928 0.36183 0.0
C696 C 0.876 0.36855 0.34958 0.0
H697 H 0.86173 0.32138 0.36547 0.0
C698 C 0.85958 0.37552 0.31596 0.0
C699 C 0.87684 0.34871 0.36716 0.0
C700 C 0.89373 0.34047 0.40548 0.0
C701 C 0.844 0.36328 0.29982 0.0
C702 C 0.84466 0.34356 0.31861 0.0
C703 C 0.86125 0.33647 0.35087 0.0
C704 C 0.82771 0.33049 0.30935 0.0
C705 C 0.82694 0.37158 0.26256 0.0
C706 C 0.81037 0.3344 0.34279 0.0
C707 C 0.79433 0.3223 0.33498 0.0
C708 C 0.7952 0.30597 0.29341 0.0
C709 C 0.81264 0.30187 0.26038 0.0
C710 C 0.82881 0.31399 0.26863 0.0
H711 H 0.83082 0.38511 0.23598 0.0
H712 H 0.82117 0.36103 0.22592 0.0
H713 H 0.81527 0.37502 0.29844 0.0
H714 H 0.80925 0.34681 0.37544 0.0
H715 H 0.78118 0.32581 0.36155 0.0
H716 H 0.86114 0.67418 0.55814 0.0
H717 H 0.88409 0.64883 0.52657 0.0
H718 H 0.90462 0.64578 0.72894 0.0
H719 H 0.88168 0.67093 0.76111 0.0
H720 H 0.93467 0.64427 0.63616 0.0
H721 H 0.87671 0.59177 0.57307 0.0
H722 H 0.87535 0.61433 0.52902 0.0
H723 H 0.87196 0.61389 0.61764 0.0
C724 C 0.87049 0.66811 0.59607 0.0
C725 C 0.86939 0.67464 0.66237 0.0
C726 C 0.88364 0.65359 0.57786 0.0
C727 C 0.89594 0.64515 0.62552 0.0
C728 C 0.89532 0.65204 0.69118 0.0
H729 H 0.95006 0.53341 0.62812 0.0
H730 H 0.93114 0.56276 0.64463 0.0
C731 C 0.8822 0.66655 0.70944 0.0
C732 C 0.90899 0.6287 0.60788 0.0
H733 H 0.90882 0.58179 0.55428 0.0
C734 C 0.92904 0.63064 0.61789 0.0
C735 C 0.90166 0.61081 0.58475 0.0
C736 C 0.88025 0.60742 0.57596 0.0
C737 C 0.94188 0.61518 0.60583 0.0
C738 C 0.93453 0.59732 0.58233 0.0
C739 C 0.91451 0.59549 0.57176 0.0
C740 C 0.94701 0.57986 0.57307 0.0
C741 C 0.9631 0.61788 0.62061 0.0
C742 C 0.96244 0.57958 0.52743 0.0
C743 C 0.97344 0.56267 0.51802 0.0
C744 C 0.96907 0.54573 0.55368 0.0
C745 C 0.95378 0.54617 0.59963 0.0
C746 C 0.9429 0.56297 0.6091 0.0
H747 H 0.96578 0.63083 0.65199 0.0
H748 H 0.96913 0.605 0.64633 0.0
H749 H 0.97104 0.61979 0.57316 0.0
H750 H 0.96574 0.59229 0.49816 0.0
H751 H 0.9851 0.56276 0.48215 0.0
H752 H 0.31026 0.28177 0.24727 0.0
H753 H 0.3388 0.30146 0.22037 0.0
H754 H 0.30567 0.35333 0.25492 0.0
H755 H 0.27721 0.3338 0.27977 0.0
H756 H 0.32458 0.35567 0.14017 0.0
H757 H 0.37577 0.33172 0.33651 0.0
H758 H 0.3663 0.31237 0.28665 0.0
H759 H 0.35031 0.32606 0.33902 0.0
C760 C 0.3092 0.29735 0.24982 0.0
C761 C 0.2915 0.30622 0.26555 0.0
C762 C 0.32554 0.30863 0.2348 0.0
C763 C 0.32453 0.32897 0.23615 0.0
C764 C 0.30691 0.33772 0.2534 0.0
H765 H 0.4173 0.41443 0.22129 0.0
H766 H 0.3914 0.39227 0.25433 0.0
C767 C 0.29063 0.32651 0.26782 0.0
C768 C 0.34128 0.34133 0.21614 0.0
H769 H 0.38842 0.35228 0.25247 0.0
C770 C 0.33853 0.35489 0.16484 0.0
C771 C 0.35947 0.34056 0.24865 0.0
C772 C 0.36316 0.32704 0.30619 0.0
C773 C 0.35332 0.3676 0.14514 0.0
C774 C 0.37167 0.36651 0.17644 0.0
C775 C 0.37444 0.35304 0.22801 0.0
C776 C 0.38799 0.37945 0.15683 0.0
C777 C 0.34896 0.38243 0.09207 0.0
C778 C 0.39502 0.37945 0.09131 0.0
C779 C 0.40981 0.39212 0.07224 0.0
C780 C 0.4181 0.40504 0.11835 0.0
C781 C 0.41137 0.40466 0.18444 0.0
C782 C 0.39651 0.392 0.20343 0.0
H783 H 0.33316 0.38492 0.08655 0.0
H784 H 0.35603 0.39646 0.10349 0.0
H785 H 0.35452 0.37719 0.0436 0.0
H786 H 0.38907 0.3696 0.05474 0.0
H787 H 0.41489 0.39163 1.02135 0.0
H788 H 0.48217 0.55947 0.05133 0.0
H789 H 0.46204 0.58852 0.03427 0.0
H790 H 0.42704 0.5573 0.89275 0.0
H791 H 0.44674 0.52849 0.91 0.0
H792 H 0.45328 0.60999 0.91816 0.0
H793 H 0.38664 0.57773 1.02206 0.0
H794 H 0.41021 0.56705 0.0342 0.0
H795 H 0.39719 0.56323 0.95767 0.0
C796 C 0.47016 0.55886 1.0167 0.0
C797 C 0.46591 0.54161 0.98264 0.0
C798 C 0.45867 0.57545 1.00693 0.0
C799 C 0.4427 0.575 0.9633 0.0
C800 C 0.4389 0.55792 0.92796 0.0
H801 H 0.35374 0.64998 0.80446 0.0
H802 H 0.37564 0.62364 0.8351 0.0
C803 C 0.45029 0.54145 0.93766 0.0
C804 C 0.42995 0.59225 0.95365 0.0
H805 H 0.38261 0.60666 0.95859 0.0
C806 C 0.43787 0.60936 0.92778 0.0
C807 C 0.40979 0.59147 0.96611 0.0
C808 C 0.40046 0.57395 0.99716 0.0
C809 C 0.42612 0.62537 0.91156 0.0
C810 C 0.40589 0.62439 0.92245 0.0
C811 C 0.39806 0.60743 0.94974 0.0
C812 C 0.39251 0.64059 0.9046 0.0
C813 C 0.43537 0.64293 0.88056 0.0
C814 C 0.39438 0.65888 0.93423 0.0
C815 C 0.38176 0.67399 0.91709 0.0
C816 C 0.36685 0.67118 0.87007 0.0
C817 C 0.36484 0.65271 0.84134 0.0
C818 C 0.37747 0.63762 0.85854 0.0
H819 H 0.44999 0.63967 0.8607 0.0
H820 H 0.42628 0.64874 0.83954 0.0
H821 H 0.43691 0.65438 0.91886 0.0
H822 H 0.40552 0.66146 0.97114 0.0
H823 H 0.38358 0.68785 0.94136 0.0
H824 H 0.24351 0.68648 0.7648 0.0
H825 H 0.21474 0.66766 0.73708 0.0
H826 H 0.18094 0.71999 0.72824 0.0
H827 H 0.20988 0.739 0.75728 0.0
H828 H 0.16181 0.68896 0.79318 0.0
H829 H 0.19133 0.66559 0.55013 0.0
H830 H 0.20711 0.66033 0.61882 0.0
H831 H 0.20184 0.68506 0.59779 0.0
C832 C 0.22994 0.69402 0.75732 0.0
C833 C 0.229 0.71427 0.76258 0.0
C834 C 0.21351 0.68322 0.74105 0.0
C835 C 0.19572 0.69239 0.72908 0.0
C836 C 0.19454 0.71259 0.73666 0.0
H837 H 0.10016 0.63455 0.52494 0.0
H838 H 0.12581 0.65676 0.55879 0.0
C839 C 0.21106 0.72345 0.75316 0.0
C840 C 0.17861 0.68076 0.70773 0.0
H841 H 0.16331 0.649 0.58833 0.0
C842 C 0.16208 0.68032 0.74817 0.0
C843 C 0.1788 0.66966 0.64851 0.0
C844 C 0.19563 0.67028 0.60091 0.0
C845 C 0.14601 0.66866 0.732 0.0
C846 C 0.14657 0.6569 0.67429 0.0
C847 C 0.1629 0.6578 0.63296 0.0
C848 C 0.1304 0.64365 0.65529 0.0
C849 C 0.12849 0.66924 0.77649 0.0
C850 C 0.12443 0.62869 0.6979 0.0
C851 C 0.10977 0.61583 0.67847 0.0
C852 C 0.10083 0.61751 0.61565 0.0
C853 C 0.10686 0.63255 0.57323 0.0
C854 C 0.12148 0.64539 0.59271 0.0
H855 H 0.12811 0.68264 0.80691 0.0
H856 H 0.11493 0.66832 0.74696 0.0
H857 H 0.12896 0.65673 0.81104 0.0
H858 H 0.13137 0.62669 0.74577 0.0
H859 H 0.10576 0.60429 0.71213 0.0
H860 H 0.16309 0.36841 0.29148 0.0
H861 H 0.1419 0.39502 0.32516 0.0
H862 H 0.12237 0.36159 0.49301 0.0
H863 H 0.14387 0.33511 0.46075 0.0
H864 H 0.10146 0.39533 0.34063 0.0
H865 H 0.13851 0.41301 0.5784 0.0
H866 H 0.14951 0.39812 0.51521 0.0
H867 H 0.1315 0.38814 0.56955 0.0
C868 C 0.1545 0.36678 0.33611 0.0
C869 C 0.15533 0.34957 0.3735 0.0
C870 C 0.14225 0.38198 0.35501 0.0
C871 C 0.13066 0.38044 0.41207 0.0
C872 C 0.13136 0.36327 0.44936 0.0
H873 H 0.0344 0.45974 0.50738 0.0
H874 H 0.05355 0.43059 0.48326 0.0
C875 C 0.14356 0.34804 0.4304 0.0
C876 C 0.11771 0.39673 0.43196 0.0
H877 H 0.10933 0.42964 0.55565 0.0
C878 C 0.10314 0.4028 0.38774 0.0
C879 C 0.11997 0.4066 0.49322 0.0
C880 C 0.13581 0.4013 0.54172 0.0
C881 C 0.09082 0.41839 0.40304 0.0
C882 C 0.09295 0.42813 0.46461 0.0
C883 C 0.10753 0.42207 0.5088 0.0
C884 C 0.0811 0.44545 0.48213 0.0
C885 C 0.07598 0.4247 0.35232 0.0
C886 C 0.09018 0.46339 0.4915 0.0
C887 C 0.07929 0.47997 0.50527 0.0
C888 C 0.05904 0.47901 0.51049 0.0
C889 C 0.04995 0.46096 0.50312 0.0
C890 C 0.06088 0.44432 0.48902 0.0
H891 H 0.07884 0.41842 0.30244 0.0
H892 H 0.06144 0.41985 0.36854 0.0
H893 H 0.07568 0.4407 0.34785 0.0
H894 H 0.10574 0.46466 0.48676 0.0
H895 H 0.08675 0.49364 0.51084 0.0
H896 H 0.01915 0.04172 0.75393 0.0
H897 H 0.02023 0.04095 0.87579 0.0
H898 H 0.99644 0.98336 0.87428 0.0
H899 H 0.99549 0.98385 0.75305 0.0
H900 H 0.99046 0.0354 0.96878 0.0
H901 H 0.0452 0.97696 0.98763 0.0
H902 H 0.04047 0.98978 0.91104 0.0
H903 H 0.02452 0.97081 0.9378 0.0
C904 C 0.01411 0.0289 0.77944 0.0
C905 C 1.00737 0.0128 0.74335 0.0
C906 C 0.01475 0.02848 0.84915 0.0
C907 C 1.00878 0.01195 0.88412 0.0
C908 C 1.00157 0.99609 0.84837 0.0
H909 H 1.00101 0.98001 0.30287 0.0
H910 H 0.99998 0.9808 0.181 0.0
C911 C 1.00093 0.99647 0.77886 0.0
C912 C 1.00988 0.01129 0.958 0.0
H913 H 0.02982 0.98633 0.0881 0.0
C914 C 0.99915 0.02475 0.99489 0.0
C915 C 0.02117 0.99733 0.99203 0.0
C916 C 0.03364 0.983 0.95521 0.0
C917 C 0.99912 0.02441 0.06484 0.0
C918 C 1.0104 0.01044 0.09887 0.0
C919 C 0.02113 0.99698 0.06198 0.0
C920 C 0.01149 1.00977 0.17275 0.0
C921 C 0.98665 0.03874 0.10167 0.0
C922 C 0.01872 0.02561 0.20854 0.0
C923 C 0.01934 0.02522 0.27805 0.0
C924 C 0.01285 1.0089 0.31353 0.0
C925 C 1.00609 0.99282 0.2774 0.0
C926 C 1.00547 0.99325 0.20768 0.0
H927 H 0.97511 0.04481 0.06923 0.0
H928 H 0.9798 0.03195 0.14578 0.0
H929 H 0.99579 0.05091 0.11917 0.0
H930 H 0.02388 0.03833 0.18265 0.0
H931 H 0.0248 0.03783 0.30389 0.0
H932 H 0.29181 0.75209 0.5528 0.0
H933 H 0.29128 0.75161 0.43088 0.0
H934 H 0.23325 0.77439 0.43178 0.0
H935 H 0.23366 0.77517 0.55299 0.0
H936 H 0.26572 0.73143 0.34751 0.0
H937 H 0.26074 0.81036 0.30166 0.0
H938 H 0.26766 0.80043 0.38134 0.0
H939 H 0.24261 0.80126 0.35722 0.0
C940 C 0.279 0.75719 0.52714 0.0
C941 C 0.26282 0.76375 0.56306 0.0
C942 C 0.27871 0.75685 0.45738 0.0
C943 C 0.26233 0.76321 0.42211 0.0
C944 C 0.2462 0.76979 0.45776 0.0
H945 H 0.22957 0.7693 1.003 0.0
H946 H 0.23002 0.76973 0.12493 0.0
C947 C 0.24645 0.77011 0.52733 0.0
C948 C 0.26174 0.76229 0.34816 0.0
H949 H 0.25553 0.78986 0.20847 0.0
C950 C 0.26362 0.74422 0.31707 0.0
C951 C 0.25887 0.77897 0.30846 0.0
C952 C 0.25753 0.79889 0.33871 0.0
C953 C 0.26237 0.74232 0.24752 0.0
C954 C 0.2595 0.75899 0.20782 0.0
C955 C 0.25762 0.77707 0.23891 0.0
C956 C 0.25895 0.75808 0.13386 0.0
C957 C 0.26372 0.7224 0.21728 0.0
C958 C 0.27508 0.75149 0.09829 0.0
C959 C 0.27488 0.75119 0.02873 0.0
C960 C 0.25854 0.7576 0.9929 0.0
C961 C 0.24235 0.76417 0.02873 0.0
C962 C 0.2426 0.76447 0.0985 0.0
H963 H 0.26046 0.71093 0.2543 0.0
H964 H 0.25361 0.72087 0.17457 0.0
H965 H 0.27864 0.72001 0.19889 0.0
H966 H 0.28801 0.74686 0.12435 0.0
H967 H 0.28768 0.74613 1.00314 0.0
H968 H 0.519 0.04145 0.80223 0.0
H969 H 0.51951 0.04091 0.6803 0.0
H970 H 0.49721 0.98273 0.6817 0.0
H971 H 0.4964 0.98316 0.80288 0.0
H972 H 0.53996 0.0155 0.59761 0.0
H973 H 0.46109 1.00985 0.55058 0.0
H974 H 0.47091 0.01687 0.63032 0.0
H975 H 0.47031 0.99181 0.60655 0.0
C976 C 0.514 0.0286 0.77667 0.0
C977 C 0.50758 0.01239 0.81272 0.0
C978 C 0.51436 0.02831 0.70691 0.0
C979 C 0.50815 0.01187 0.67177 0.0
C980 C 0.50169 0.99572 0.70756 0.0
H981 H 0.50266 0.97879 0.25315 0.0
H982 H 0.50216 0.97931 0.37507 0.0
C983 C 0.50135 0.99598 0.77712 0.0
C984 C 0.50913 0.01127 0.59784 0.0
H985 H 0.48172 1.0047 0.45782 0.0
C986 C 0.52721 0.01327 0.567 0.0
C987 C 0.4925 1.00822 0.55792 0.0
C988 C 0.47257 1.00674 0.58786 0.0
C989 C 0.52918 0.01198 0.49751 0.0
C990 C 0.51256 1.00894 0.45759 0.0
C991 C 0.49447 1.00693 0.48843 0.0
C992 C 0.51353 1.00834 0.38366 0.0
C993 C 0.54911 0.01347 0.46757 0.0
C994 C 0.51999 0.0245 0.34789 0.0
C995 C 0.52033 0.02425 0.27834 0.0
C996 C 0.51409 1.00785 0.24271 0.0
C997 C 0.50767 0.99163 0.27873 0.0
C998 C 0.50732 0.99191 0.34849 0.0
H999 H 0.56059 0.01034 0.50485 0.0
H1000 H 0.55078 1.00335 0.42509 0.0
H1001 H 0.55138 0.02839 0.44892 0.0
H1002 H 0.52448 0.03748 0.37378 0.0
H1003 H 0.52528 0.03708 0.2526 0.0
H1004 H 0.28685 0.24562 0.05219 0.0
H1005 H 0.28722 0.24672 0.93096 0.0
H1006 H 0.2289 0.26875 0.92989 0.0
H1007 H 0.22841 0.26797 0.05172 0.0
H1008 H 0.26357 0.22843 0.83831 0.0
H1009 H 0.25796 0.30826 0.81595 0.0
H1010 H 0.26372 0.29638 0.8935 0.0
H1011 H 0.23915 0.29721 0.86424 0.0
C1012 C 0.27403 0.25071 0.02648 0.0
C1013 C 0.25761 0.25682 0.06211 0.0
C1014 C 0.2743 0.2513 0.95696 0.0
C1015 C 0.25822 0.25811 0.9213 0.0
C1016 C 0.24163 0.26382 0.95641 0.0
H1017 H 0.23297 0.27299 0.502 0.0
H1018 H 0.23265 0.27193 0.62323 0.0
C1019 C 0.24133 0.26323 0.02613 0.0
C1020 C 0.25891 0.25909 0.84741 0.0
H1021 H 0.25635 0.2903 0.71578 0.0
C1022 C 0.26205 0.24196 0.81149 0.0
C1023 C 0.25698 0.27676 0.81248 0.0
C1024 C 0.25444 0.29574 0.84838 0.0
C1025 C 0.26295 0.24197 0.74161 0.0
C1026 C 0.26101 0.25964 0.70668 0.0
C1027 C 0.25788 0.27677 0.7426 0.0
C1028 C 0.26168 0.26061 0.63279 0.0
C1029 C 0.2655 0.22299 0.7057 0.0
C1030 C 0.27827 0.25494 0.59763 0.0
C1031 C 0.27854 0.25551 0.5279 0.0
C1032 C 0.26223 0.26186 0.49198 0.0
C1033 C 0.2458 0.26794 0.52767 0.0
C1034 C 0.24557 0.26737 0.59719 0.0
H1035 H 0.26202 0.21047 0.73816 0.0
H1036 H 0.25619 0.22234 0.66066 0.0
H1037 H 0.28078 0.22155 0.68971 0.0
H1038 H 0.29103 0.25004 0.62411 0.0
H1039 H 0.29147 0.2508 0.50226 0.0
H1040 H 0.73462 0.2733 0.0385 0.0
H1041 H 0.73399 0.27153 0.91711 0.0
H1042 H 0.79432 0.25577 0.91611 0.0
H1043 H 0.79507 0.25726 0.03781 0.0
H1044 H 0.75555 0.29138 0.82135 0.0
H1045 H 0.76895 0.21232 0.80807 0.0
H1046 H 0.76217 0.22432 0.88427 0.0
H1047 H 0.78666 0.2256 0.85486 0.0
C1048 C 0.74781 0.26952 1.01262 0.0
C1049 C 0.76489 0.26531 0.04811 0.0
C1050 C 0.74741 0.26852 0.94311 0.0
C1051 C 0.764 0.26318 0.90756 0.0
C1052 C 0.78122 0.25952 0.9426 0.0
H1053 H 0.78966 0.24752 0.48869 0.0
H1054 H 0.79027 0.24923 0.6101 0.0
C1055 C 0.78166 0.26053 1.0122 0.0
C1056 C 0.7632 0.26143 0.83386 0.0
H1057 H 0.76871 0.2294 0.70584 0.0
C1058 C 0.75836 0.27782 0.79607 0.0
C1059 C 0.76684 0.24371 0.80096 0.0
C1060 C 0.77128 0.22542 0.839 0.0
C1061 C 0.75742 0.27706 0.72623 0.0
C1062 C 0.76106 0.25934 0.69333 0.0
C1063 C 0.7659 0.24296 0.73112 0.0
C1064 C 0.76026 0.25761 0.61963 0.0
C1065 C 0.75298 0.29536 0.6882 0.0
C1066 C 0.74305 0.26129 0.58458 0.0
C1067 C 0.74263 0.26032 0.51497 0.0
C1068 C 0.75941 0.25555 0.47906 0.0
C1069 C 0.77647 0.25129 0.51457 0.0
C1070 C 0.77686 0.25226 0.58408 0.0
H1071 H 0.75533 0.30846 0.71914 0.0
H1072 H 0.76209 0.29646 0.64293 0.0
H1073 H 0.7376 0.29518 0.67236 0.0
H1074 H 0.72996 0.26504 0.61106 0.0
H1075 H 0.72923 0.26361 0.48935 0.0
H1076 H 0.78734 0.74461 0.55653 0.0
H1077 H 0.78866 0.74646 0.43522 0.0
H1078 H 0.73162 0.77161 0.43121 0.0
H1079 H 0.7302 0.77007 0.55267 0.0
H1080 H 0.76462 0.73014 0.33909 0.0
H1081 H 0.76338 0.81023 0.32282 0.0
H1082 H 0.76803 0.79755 0.39975 0.0
H1083 H 0.7437 0.80005 0.3692 0.0
C1084 C 0.77503 0.75053 0.53003 0.0
C1085 C 0.75869 0.7573 0.56468 0.0
C1086 C 0.77583 0.75157 0.46056 0.0
C1087 C 0.7604 0.7595 0.42416 0.0
C1088 C 0.74388 0.76584 0.45833 0.0
H1089 H 0.73556 0.77715 1.00597 0.0
H1090 H 0.73554 0.77613 0.12742 0.0
C1091 C 0.74305 0.76481 0.52786 0.0
C1092 C 0.76154 0.76092 0.35044 0.0
H1093 H 0.76044 0.79303 0.22111 0.0
C1094 C 0.76381 0.74389 0.31328 0.0
C1095 C 0.76051 0.77889 0.31682 0.0
C1096 C 0.75895 0.79775 0.3541 0.0
C1097 C 0.76463 0.74429 0.2434 0.0
C1098 C 0.7635 0.76224 0.20978 0.0
C1099 C 0.76131 0.77928 0.24694 0.0
C1100 C 0.7641 0.76359 0.13597 0.0
C1101 C 0.76617 0.72542 0.20609 0.0
C1102 C 0.78037 0.75732 0.1003 0.0
C1103 C 0.78046 0.75789 0.03062 0.0
C1104 C 0.76429 0.76481 0.99521 0.0
C1105 C 0.74826 0.77166 0.03135 0.0
C1106 C 0.74821 0.77109 0.10092 0.0
H1107 H 0.76217 0.71289 0.23777 0.0
H1108 H 0.75672 0.72549 0.16133 0.0
H1109 H 0.78131 0.72335 0.18945 0.0
H1110 H 0.79297 0.75185 0.12635 0.0
H1111 H 0.79309 0.75257 1.0046 0.0
H1112 H 0.50573 0.47514 0.7951 0.0
H1113 H 0.50503 0.47512 0.6731 0.0
H1114 H 0.52392 0.53449 0.67136 0.0
H1115 H 0.52478 0.53466 0.79276 0.0
H1116 H 0.48261 0.5001 0.59007 0.0
H1117 H 0.56112 0.5079 0.54041 0.0
H1118 H 0.55184 0.50028 0.62014 0.0
H1119 H 0.55146 0.52541 0.59735 0.0
C1120 C 0.50997 0.48813 0.76881 0.0
C1121 C 0.51537 0.50488 0.80397 0.0
C1122 C 0.50949 0.4881 0.69904 0.0
C1123 C 0.51462 0.50473 0.66305 0.0
C1124 C 0.52022 0.52138 0.69796 0.0
H1125 H 0.51877 0.53835 0.24646 0.0
H1126 H 0.51975 0.53701 0.36809 0.0
C1127 C 0.52061 0.52146 0.76756 0.0
C1128 C 0.51332 0.50503 0.58914 0.0
H1129 H 0.53997 0.51202 0.44819 0.0
C1130 C 0.49516 0.50256 0.55895 0.0
C1131 C 0.52969 0.50838 0.54864 0.0
C1132 C 0.54967 0.51049 0.57808 0.0
C1133 C 0.49284 0.50377 0.4895 0.0
C1134 C 0.50922 0.50714 0.44892 0.0
C1135 C 0.5274 0.5095 0.47919 0.0
C1136 C 0.50787 0.50815 0.37498 0.0
C1137 C 0.47278 0.50199 0.46046 0.0
C1138 C 0.50091 0.49236 0.33813 0.0
C1139 C 0.50022 0.49311 0.26855 0.0
C1140 C 0.50667 0.50962 0.23404 0.0
C1141 C 0.51361 0.52543 0.27115 0.0
C1142 C 0.51423 0.52467 0.3408 0.0
H1143 H 0.46146 0.50502 0.49819 0.0
H1144 H 0.47074 0.51204 0.4179 0.0
H1145 H 0.47059 0.48701 0.44225 0.0
H1146 H 0.49633 0.47928 0.36313 0.0
H1147 H 0.49495 0.48057 0.24187 0.0
H1148 H 1.0058 0.47864 0.7424 0.0
H1149 H 1.00456 0.47876 0.86423 0.0
H1150 H 0.02546 0.53745 0.86673 0.0
H1151 H 0.02684 0.53749 0.74527 0.0
H1152 H 0.04395 0.51203 0.96032 0.0
H1153 H 0.96374 0.50868 0.97512 0.0
H1154 H 0.97501 0.4904 0.92483 0.0
H1155 H 0.9763 0.51528 0.89979 0.0
C1156 C 1.01025 0.49155 0.76879 0.0
C1157 C 0.01633 0.50809 0.73382 0.0
C1158 C 1.0094 0.49162 0.83845 0.0
C1159 C 0.01463 0.50822 0.87449 0.0
C1160 C 0.02124 0.52453 0.8399 0.0
H1161 H 0.02164 0.54143 0.29203 0.0
H1162 H 0.02285 0.54024 0.17055 0.0
C1163 C 0.022 0.52451 0.77035 0.0
C1164 C 0.01321 0.50868 0.94826 0.0
H1165 H 0.98095 0.50721 0.07672 0.0
C1166 C 0.03018 0.511 0.98584 0.0
C1167 C 0.99523 0.5073 0.9814 0.0
C1168 C 0.97648 0.50543 0.94343 0.0
C1169 C 0.02971 0.51172 0.05573 0.0
C1170 C 0.0117 0.51057 0.08895 0.0
C1171 C 0.99473 0.50814 0.0513 0.0
C1172 C 1.01019 0.51172 0.16272 0.0
C1173 C 0.04856 0.51327 0.09336 0.0
C1174 C 1.00194 0.49644 0.19879 0.0
C1175 C 1.00102 0.49716 0.26832 0.0
C1176 C 1.00828 0.51322 0.3034 0.0
C1177 C 0.01602 0.52876 0.26691 0.0
C1178 C 0.01687 0.52805 0.19734 0.0
H1179 H 0.06102 0.50861 0.06247 0.0
H1180 H 0.05098 0.52857 0.10779 0.0
H1181 H 0.04828 0.50438 0.13935 0.0
H1182 H 0.99655 0.48375 0.17319 0.0
H1183 H 0.99493 0.48491 0.29453 0.0
loop_
_geom_bond_atom_site_label_1
_geom_bond_atom_site_label_2
_geom_bond_distance
_geom_bond_site_symmetry_2
_ccdc_geom_bond_type
Nd0 C2 2.836 . S
Nd0 O20 2.500 . S
Nd0 O21 2.492 . S
Nd0 O22 2.487 1_545 S
Nd0 O23 2.682 1_545 S
Nd0 O24 2.410 . S
Nd0 O29 2.414 1_455 S
Nd0 O31 2.424 . S
Nd1 C11 2.836 . S
Nd1 O23 2.414 1_655 S
Nd1 O25 2.424 . S
Nd1 O26 2.500 . S
Nd1 O27 2.492 . S
Nd1 O28 2.487 1_565 S
Nd1 O29 2.682 1_565 S
Nd1 O30 2.410 . S
C2 Nd0 2.836 . S
C2 C3 1.498 . S
C2 O20 1.258 . S
C2 O21 1.239 . S
C3 C2 1.498 . S
C3 C4 1.366 . S
C3 C8 1.407 . S
C4 C3 1.366 . S
C4 C5 1.392 . S
C4 H32 0.930 . S
C5 C4 1.392 . S
C5 C6 1.398 . S
C5 H33 0.929 . S
C6 C5 1.398 . S
C6 C7 1.352 . S
C7 C6 1.352 . S
C7 C8 1.384 . S
C7 H34 0.930 . S
C8 C3 1.407 . S
C8 C7 1.384 . S
C8 H35 0.929 . S
C9 O22 1.241 . S
C9 O23 1.273 . S
C10 O24 1.251 . S
C10 O25 1.268 1_445 S
C11 Nd1 2.836 . S
C11 C12 1.498 . S
C11 O26 1.258 . S
C11 O27 1.239 . S
C12 C11 1.498 . S
C12 C13 1.366 . S
C12 C17 1.407 . S
C13 C12 1.366 . S
C13 C14 1.392 . S
C13 H36 0.930 . S
C14 C13 1.392 . S
C14 C15 1.398 . S
C14 H37 0.929 . S
C15 C14 1.398 . S
C15 C16 1.352 . S
C16 C15 1.352 . S
C16 C17 1.384 . S
C16 H38 0.930 . S
C17 C12 1.407 . S
C17 C16 1.384 . S
C17 H39 0.929 . S
C18 O28 1.241 . S
C18 O29 1.273 . S
C19 O30 1.251 . S
C19 O31 1.268 1_665 S
O20 Nd0 2.500 . S
O20 C2 1.258 . S
O21 Nd0 2.492 . S
O21 C2 1.239 . S
O22 Nd0 2.487 1_565 S
O22 C9 1.241 . S
O23 Nd0 2.682 1_565 S
O23 Nd1 2.414 1_455 S
O23 C9 1.273 . S
O24 Nd0 2.410 . S
O24 C10 1.251 . S
O25 Nd1 2.424 . S
O25 C10 1.268 1_665 S
O26 Nd1 2.500 . S
O26 C11 1.258 . S
O27 Nd1 2.492 . S
O27 C11 1.239 . S
O28 Nd1 2.487 1_545 S
O28 C18 1.241 . S
O29 Nd0 2.414 1_655 S
O29 Nd1 2.682 1_545 S
O29 C18 1.273 . S
O30 Nd1 2.410 . S
O30 C19 1.251 . S
O31 Nd0 2.424 . S
O31 C19 1.268 1_445 S
H32 C4 0.930 . S
H33 C5 0.929 . S
H34 C7 0.930 . S
H35 C8 0.929 . S
H36 C13 0.930 . S
H37 C14 0.929 . S
H38 C16 0.930 . S
H39 C17 0.929 . S
Nd40 C42 2.836 . S
Nd40 O60 2.500 . S
Nd40 O61 2.492 . S
Nd40 O62 2.487 . S
Nd40 O63 2.682 . S
Nd40 O64 2.410 . S
Nd40 O69 2.414 . S
Nd40 O71 2.424 . S
Nd41 C51 2.836 . S
Nd41 O63 2.414 . S
Nd41 O65 2.424 . S
Nd41 O66 2.500 . S
Nd41 O67 2.492 . S
Nd41 O68 2.487 . S
Nd41 O69 2.682 . S
Nd41 O70 2.410 . S
C42 Nd40 2.836 . S
C42 C43 1.498 . S
C42 O60 1.258 . S
C42 O61 1.239 . S
C43 C42 1.498 . S
C43 C44 1.366 . S
C43 C48 1.407 . S
C44 C43 1.366 . S
C44 C45 1.392 . S
C44 H72 0.930 . S
C45 C44 1.392 . S
C45 C46 1.398 . S
C45 H73 0.929 . S
C46 C45 1.398 . S
C46 C47 1.352 . S
C47 C46 1.352 . S
C47 C48 1.384 . S
C47 H74 0.930 . S
C48 C43 1.407 . S
C48 C47 1.384 . S
C48 H75 0.929 . S
C49 O62 1.241 . S
C49 O63 1.273 . S
C50 O64 1.251 . S
C50 O65 1.268 . S
C51 Nd41 2.836 . S
C51 C52 1.498 . S
C51 O66 1.258 . S
C51 O67 1.239 . S
C52 C51 1.498 . S
C52 C53 1.366 . S
C52 C57 1.407 . S
C53 C52 1.366 . S
C53 C54 1.392 . S
C53 H76 0.930 . S
C54 C53 1.392 . S
C54 C55 1.398 . S
C54 H77 0.929 . S
C55 C54 1.398 . S
C55 C56 1.352 . S
C56 C55 1.352 . S
C56 C57 1.384 . S
C56 H78 0.930 . S
C57 C52 1.407 . S
C57 C56 1.384 . S
C57 H79 0.929 . S
C58 O68 1.241 . S
C58 O69 1.273 . S
C59 O70 1.251 . S
C59 O71 1.268 . S
O60 Nd40 2.500 . S
O60 C42 1.258 . S
O61 Nd40 2.492 . S
O61 C42 1.239 . S
O62 Nd40 2.487 . S
O62 C49 1.241 . S
O63 Nd40 2.682 . S
O63 Nd41 2.414 . S
O63 C49 1.273 . S
O64 Nd40 2.410 . S
O64 C50 1.251 . S
O65 Nd41 2.424 . S
O65 C50 1.268 . S
O66 Nd41 2.500 . S
O66 C51 1.258 . S
O67 Nd41 2.492 . S
O67 C51 1.239 . S
O68 Nd41 2.487 . S
O68 C58 1.241 . S
O69 Nd40 2.414 . S
O69 Nd41 2.682 . S
O69 C58 1.273 . S
O70 Nd41 2.410 . S
O70 C59 1.251 . S
O71 Nd40 2.424 . S
O71 C59 1.268 . S
H72 C44 0.930 . S
H73 C45 0.929 . S
H74 C47 0.930 . S
H75 C48 0.929 . S
H76 C53 0.930 . S
H77 C54 0.929 . S
H78 C56 0.930 . S
H79 C57 0.929 . S
Nd80 C82 2.836 1_554 S
Nd80 O100 2.500 1_554 S
Nd80 O101 2.492 1_554 S
Nd80 O102 2.487 1_565 S
Nd80 O103 2.682 1_565 S
Nd80 O104 2.410 1_554 S
Nd80 O109 2.414 1_554 S
Nd80 O111 2.424 . S
Nd81 C91 2.836 1_556 S
Nd81 O103 2.414 1_556 S
Nd81 O105 2.424 . S
Nd81 O106 2.500 1_556 S
Nd81 O107 2.492 1_556 S
Nd81 O108 2.487 1_545 S
Nd81 O109 2.682 1_545 S
Nd81 O110 2.410 1_556 S
C82 Nd80 2.836 1_556 S
C82 C83 1.498 . S
C82 O100 1.258 . S
C82 O101 1.239 . S
C83 C82 1.498 . S
C83 C84 1.366 . S
C83 C88 1.407 . S
C84 C83 1.366 . S
C84 C85 1.392 . S
C84 H112 0.930 . S
C85 C84 1.392 . S
C85 C86 1.398 . S
C85 H113 0.929 . S
C86 C85 1.398 . S
C86 C87 1.352 . S
C87 C86 1.352 . S
C87 C88 1.384 . S
C87 H114 0.930 . S
C88 C83 1.407 . S
C88 C87 1.384 . S
C88 H115 0.929 . S
C89 O102 1.241 . S
C89 O103 1.273 . S
C90 O104 1.251 . S
C90 O105 1.268 1_565 S
C91 Nd81 2.836 1_554 S
C91 C92 1.498 . S
C91 O106 1.258 . S
C91 O107 1.239 . S
C92 C91 1.498 . S
C92 C93 1.366 . S
C92 C97 1.407 . S
C93 C92 1.366 . S
C93 C94 1.392 . S
C93 H116 0.930 . S
C94 C93 1.392 . S
C94 C95 1.398 . S
C94 H117 0.929 . S
C95 C94 1.398 . S
C95 C96 1.352 . S
C96 C95 1.352 . S
C96 C97 1.384 . S
C96 H118 0.930 . S
C97 C92 1.407 . S
C97 C96 1.384 . S
C97 H119 0.929 . S
C98 O108 1.241 . S
C98 O109 1.273 . S
C99 O110 1.251 . S
C99 O111 1.268 1_545 S
O100 Nd80 2.500 1_556 S
O100 C82 1.258 . S
O101 Nd80 2.492 1_556 S
O101 C82 1.239 . S
O102 Nd80 2.487 1_545 S
O102 C89 1.241 . S
O103 Nd80 2.682 1_545 S
O103 Nd81 2.414 1_554 S
O103 C89 1.273 . S
O104 Nd80 2.410 1_556 S
O104 C90 1.251 . S
O105 Nd81 2.424 . S
O105 C90 1.268 1_545 S
O106 Nd81 2.500 1_554 S
O106 C91 1.258 . S
O107 Nd81 2.492 1_554 S
O107 C91 1.239 . S
O108 Nd81 2.487 1_565 S
O108 C98 1.241 . S
O109 Nd80 2.414 1_556 S
O109 Nd81 2.682 1_565 S
O109 C98 1.273 . S
O110 Nd81 2.410 1_554 S
O110 C99 1.251 . S
O111 Nd80 2.424 . S
O111 C99 1.268 1_565 S
H112 C84 0.930 . S
H113 C85 0.929 . S
H114 C87 0.930 . S
H115 C88 0.929 . S
H116 C93 0.930 . S
H117 C94 0.929 . S
H118 C96 0.930 . S
H119 C97 0.929 . S
Nd120 C122 2.836 . S
Nd120 O140 2.500 . S
Nd120 O141 2.492 . S
Nd120 O142 2.487 . S
Nd120 O143 2.682 . S
Nd120 O144 2.410 . S
Nd120 O149 2.414 . S
Nd120 O151 2.424 . S
Nd121 C131 2.836 . S
Nd121 O143 2.414 . S
Nd121 O145 2.424 . S
Nd121 O146 2.500 . S
Nd121 O147 2.492 . S
Nd121 O148 2.487 . S
Nd121 O149 2.682 . S
Nd121 O150 2.410 . S
C122 Nd120 2.836 . S
C122 C123 1.498 . S
C122 O140 1.258 . S
C122 O141 1.239 . S
C123 C122 1.498 . S
C123 C124 1.366 . S
C123 C128 1.407 . S
C124 C123 1.366 . S
C124 C125 1.392 . S
C124 H152 0.930 . S
C125 C124 1.392 . S
C125 C126 1.398 . S
C125 H153 0.929 . S
C126 C125 1.398 . S
C126 C127 1.352 . S
C127 C126 1.352 . S
C127 C128 1.384 . S
C127 H154 0.930 . S
C128 C123 1.407 . S
C128 C127 1.384 . S
C128 H155 0.929 . S
C129 O142 1.241 . S
C129 O143 1.273 . S
C130 O144 1.251 . S
C130 O145 1.268 . S
C131 Nd121 2.836 . S
C131 C132 1.498 . S
C131 O146 1.258 . S
C131 O147 1.239 . S
C132 C131 1.498 . S
C132 C133 1.366 . S
C132 C137 1.407 . S
C133 C132 1.366 . S
C133 C134 1.392 . S
C133 H156 0.930 . S
C134 C133 1.392 . S
C134 C135 1.398 . S
C134 H157 0.929 . S
C135 C134 1.398 . S
C135 C136 1.352 . S
C136 C135 1.352 . S
C136 C137 1.384 . S
C136 H158 0.930 . S
C137 C132 1.407 . S
C137 C136 1.384 . S
C137 H159 0.929 . S
C138 O148 1.241 . S
C138 O149 1.273 . S
C139 O150 1.251 . S
C139 O151 1.268 . S
O140 Nd120 2.500 . S
O140 C122 1.258 . S
O141 Nd120 2.492 . S
O141 C122 1.239 . S
O142 Nd120 2.487 . S
O142 C129 1.241 . S
O143 Nd120 2.682 . S
O143 Nd121 2.414 . S
O143 C129 1.273 . S
O144 Nd120 2.410 . S
O144 C130 1.251 . S
O145 Nd121 2.424 . S
O145 C130 1.268 . S
O146 Nd121 2.500 . S
O146 C131 1.258 . S
O147 Nd121 2.492 . S
O147 C131 1.239 . S
O148 Nd121 2.487 . S
O148 C138 1.241 . S
O149 Nd120 2.414 . S
O149 Nd121 2.682 . S
O149 C138 1.273 . S
O150 Nd121 2.410 . S
O150 C139 1.251 . S
O151 Nd120 2.424 . S
O151 C139 1.268 . S
H152 C124 0.930 . S
H153 C125 0.929 . S
H154 C127 0.930 . S
H155 C128 0.929 . S
H156 C133 0.930 . S
H157 C134 0.929 . S
H158 C136 0.930 . S
H159 C137 0.929 . S
Nd160 C162 2.836 . S
Nd160 O180 2.500 . S
Nd160 O181 2.492 . S
Nd160 O182 2.487 . S
Nd160 O183 2.682 . S
Nd160 O184 2.410 . S
Nd160 O189 2.414 . S
Nd160 O191 2.424 . S
Nd161 C171 2.836 . S
Nd161 O183 2.414 . S
Nd161 O185 2.424 . S
Nd161 O186 2.500 . S
Nd161 O187 2.492 . S
Nd161 O188 2.487 . S
Nd161 O189 2.682 . S
Nd161 O190 2.410 . S
C162 Nd160 2.836 . S
C162 C163 1.498 . S
C162 O180 1.258 . S
C162 O181 1.239 . S
C163 C162 1.498 . S
C163 C164 1.366 . S
C163 C168 1.407 . S
C164 C163 1.366 . S
C164 C165 1.392 . S
C164 H192 0.930 . S
C165 C164 1.392 . S
C165 C166 1.398 . S
C165 H193 0.929 . S
C166 C165 1.398 . S
C166 C167 1.352 . S
C167 C166 1.352 . S
C167 C168 1.384 . S
C167 H194 0.930 . S
C168 C163 1.407 . S
C168 C167 1.384 . S
C168 H195 0.929 . S
C169 O182 1.241 . S
C169 O183 1.273 . S
C170 O184 1.251 . S
C170 O185 1.268 . S
C171 Nd161 2.836 . S
C171 C172 1.498 . S
C171 O186 1.258 . S
C171 O187 1.239 . S
C172 C171 1.498 . S
C172 C173 1.366 . S
C172 C177 1.407 . S
C173 C172 1.366 . S
C173 C174 1.392 . S
C173 H196 0.930 . S
C174 C173 1.392 . S
C174 C175 1.398 . S
C174 H197 0.929 . S
C175 C174 1.398 . S
C175 C176 1.352 . S
C176 C175 1.352 . S
C176 C177 1.384 . S
C176 H198 0.930 . S
C177 C172 1.407 . S
C177 C176 1.384 . S
C177 H199 0.929 . S
C178 O188 1.241 . S
C178 O189 1.273 . S
C179 O190 1.251 . S
C179 O191 1.268 . S
O180 Nd160 2.500 . S
O180 C162 1.258 . S
O181 Nd160 2.492 . S
O181 C162 1.239 . S
O182 Nd160 2.487 . S
O182 C169 1.241 . S
O183 Nd160 2.682 . S
O183 Nd161 2.414 . S
O183 C169 1.273 . S
O184 Nd160 2.410 . S
O184 C170 1.251 . S
O185 Nd161 2.424 . S
O185 C170 1.268 . S
O186 Nd161 2.500 . S
O186 C171 1.258 . S
O187 Nd161 2.492 . S
O187 C171 1.239 . S
O188 Nd161 2.487 . S
O188 C178 1.241 . S
O189 Nd160 2.414 . S
O189 Nd161 2.682 . S
O189 C178 1.273 . S
O190 Nd161 2.410 . S
O190 C179 1.251 . S
O191 Nd160 2.424 . S
O191 C179 1.268 . S
H192 C164 0.930 . S
H193 C165 0.929 . S
H194 C167 0.930 . S
H195 C168 0.929 . S
H196 C173 0.930 . S
H197 C174 0.929 . S
H198 C176 0.930 . S
H199 C177 0.929 . S
Nd200 C202 2.836 . S
Nd200 O220 2.500 . S
Nd200 O221 2.492 . S
Nd200 O222 2.487 . S
Nd200 O223 2.682 . S
Nd200 O224 2.410 . S
Nd200 O229 2.414 . S
Nd200 O231 2.424 . S
Nd201 C211 2.836 . S
Nd201 O223 2.414 . S
Nd201 O225 2.424 . S
Nd201 O226 2.500 . S
Nd201 O227 2.492 . S
Nd201 O228 2.487 . S
Nd201 O229 2.682 . S
Nd201 O230 2.410 . S
C202 Nd200 2.836 . S
C202 C203 1.498 . S
C202 O220 1.258 . S
C202 O221 1.239 . S
C203 C202 1.498 . S
C203 C204 1.366 . S
C203 C208 1.407 . S
C204 C203 1.366 . S
C204 C205 1.392 . S
C204 H232 0.930 . S
C205 C204 1.392 . S
C205 C206 1.398 . S
C205 H233 0.929 . S
C206 C205 1.398 . S
C206 C207 1.352 . S
C207 C206 1.352 . S
C207 C208 1.384 . S
C207 H234 0.930 . S
C208 C203 1.407 . S
C208 C207 1.384 . S
C208 H235 0.929 . S
C209 O222 1.241 . S
C209 O223 1.273 . S
C210 O224 1.251 . S
C210 O225 1.268 . S
C211 Nd201 2.836 . S
C211 C212 1.498 . S
C211 O226 1.258 . S
C211 O227 1.239 . S
C212 C211 1.498 . S
C212 C213 1.366 . S
C212 C217 1.407 . S
C213 C212 1.366 . S
C213 C214 1.392 . S
C213 H236 0.930 . S
C214 C213 1.392 . S
C214 C215 1.398 . S
C214 H237 0.929 . S
C215 C214 1.398 . S
C215 C216 1.352 . S
C216 C215 1.352 . S
C216 C217 1.384 . S
C216 H238 0.930 . S
C217 C212 1.407 . S
C217 C216 1.384 . S
C217 H239 0.929 . S
C218 O228 1.241 . S
C218 O229 1.273 . S
C219 O230 1.251 . S
C219 O231 1.268 . S
O220 Nd200 2.500 . S
O220 C202 1.258 . S
O221 Nd200 2.492 . S
O221 C202 1.239 . S
O222 Nd200 2.487 . S
O222 C209 1.241 . S
O223 Nd200 2.682 . S
O223 Nd201 2.414 . S
O223 C209 1.273 . S
O224 Nd200 2.410 . S
O224 C210 1.251 . S
O225 Nd201 2.424 . S
O225 C210 1.268 . S
O226 Nd201 2.500 . S
O226 C211 1.258 . S
O227 Nd201 2.492 . S
O227 C211 1.239 . S
O228 Nd201 2.487 . S
O228 C218 1.241 . S
O229 Nd200 2.414 . S
O229 Nd201 2.682 . S
O229 C218 1.273 . S
O230 Nd201 2.410 . S
O230 C219 1.251 . S
O231 Nd200 2.424 . S
O231 C219 1.268 . S
H232 C204 0.930 . S
H233 C205 0.929 . S
H234 C207 0.930 . S
H235 C208 0.929 . S
H236 C213 0.930 . S
H237 C214 0.929 . S
H238 C216 0.930 . S
H239 C217 0.929 . S
Nd240 C242 2.836 1_554 S
Nd240 O260 2.500 1_554 S
Nd240 O261 2.492 1_554 S
Nd240 O262 2.487 . S
Nd240 O263 2.682 . S
Nd240 O264 2.410 1_554 S
Nd240 O269 2.414 1_554 S
Nd240 O271 2.424 . S
Nd241 C251 2.836 1_556 S
Nd241 O263 2.414 1_556 S
Nd241 O265 2.424 . S
Nd241 O266 2.500 1_556 S
Nd241 O267 2.492 1_556 S
Nd241 O268 2.487 . S
Nd241 O269 2.682 . S
Nd241 O270 2.410 1_556 S
C242 Nd240 2.836 1_556 S
C242 C243 1.498 . S
C242 O260 1.258 . S
C242 O261 1.239 . S
C243 C242 1.498 . S
C243 C244 1.366 . S
C243 C248 1.407 . S
C244 C243 1.366 . S
C244 C245 1.392 . S
C244 H272 0.930 . S
C245 C244 1.392 . S
C245 C246 1.398 . S
C245 H273 0.929 . S
C246 C245 1.398 . S
C246 C247 1.352 . S
C247 C246 1.352 . S
C247 C248 1.384 . S
C247 H274 0.930 . S
C248 C243 1.407 . S
C248 C247 1.384 . S
C248 H275 0.929 . S
C249 O262 1.241 . S
C249 O263 1.273 . S
C250 O264 1.251 . S
C250 O265 1.268 . S
C251 Nd241 2.836 1_554 S
C251 C252 1.498 . S
C251 O266 1.258 . S
C251 O267 1.239 . S
C252 C251 1.498 . S
C252 C253 1.366 . S
C252 C257 1.407 . S
C253 C252 1.366 . S
C253 C254 1.392 . S
C253 H276 0.930 . S
C254 C253 1.392 . S
C254 C255 1.398 . S
C254 H277 0.929 . S
C255 C254 1.398 . S
C255 C256 1.352 . S
C256 C255 1.352 . S
C256 C257 1.384 . S
C256 H278 0.930 . S
C257 C252 1.407 . S
C257 C256 1.384 . S
C257 H279 0.929 . S
C258 O268 1.241 . S
C258 O269 1.273 . S
C259 O270 1.251 . S
C259 O271 1.268 . S
O260 Nd240 2.500 1_556 S
O260 C242 1.258 . S
O261 Nd240 2.492 1_556 S
O261 C242 1.239 . S
O262 Nd240 2.487 . S
O262 C249 1.241 . S
O263 Nd240 2.682 . S
O263 Nd241 2.414 1_554 S
O263 C249 1.273 . S
O264 Nd240 2.410 1_556 S
O264 C250 1.251 . S
O265 Nd241 2.424 . S
O265 C250 1.268 . S
O266 Nd241 2.500 1_554 S
O266 C251 1.258 . S
O267 Nd241 2.492 1_554 S
O267 C251 1.239 . S
O268 Nd241 2.487 . S
O268 C258 1.241 . S
O269 Nd240 2.414 1_556 S
O269 Nd241 2.682 . S
O269 C258 1.273 . S
O270 Nd241 2.410 1_554 S
O270 C259 1.251 . S
O271 Nd240 2.424 . S
O271 C259 1.268 . S
H272 C244 0.930 . S
H273 C245 0.929 . S
H274 C247 0.930 . S
H275 C248 0.929 . S
H276 C253 0.930 . S
H277 C254 0.929 . S
H278 C256 0.930 . S
H279 C257 0.929 . S
Nd280 C282 2.836 . S
Nd280 O300 2.500 . S
Nd280 O301 2.492 . S
Nd280 O302 2.487 . S
Nd280 O303 2.682 . S
Nd280 O304 2.410 . S
Nd280 O309 2.414 1_655 S
Nd280 O311 2.424 . S
Nd281 C291 2.836 . S
Nd281 O303 2.414 1_455 S
Nd281 O305 2.424 . S
Nd281 O306 2.500 . S
Nd281 O307 2.492 . S
Nd281 O308 2.487 . S
Nd281 O309 2.682 . S
Nd281 O310 2.410 . S
C282 Nd280 2.836 . S
C282 C283 1.498 . S
C282 O300 1.258 . S
C282 O301 1.239 . S
C283 C282 1.498 . S
C283 C284 1.366 . S
C283 C288 1.407 . S
C284 C283 1.366 . S
C284 C285 1.392 . S
C284 H312 0.930 . S
C285 C284 1.392 . S
C285 C286 1.398 . S
C285 H313 0.929 . S
C286 C285 1.398 . S
C286 C287 1.352 . S
C287 C286 1.352 . S
C287 C288 1.384 . S
C287 H314 0.930 . S
C288 C283 1.407 . S
C288 C287 1.384 . S
C288 H315 0.929 . S
C289 O302 1.241 . S
C289 O303 1.273 . S
C290 O304 1.251 . S
C290 O305 1.268 1_655 S
C291 Nd281 2.836 . S
C291 C292 1.498 . S
C291 O306 1.258 . S
C291 O307 1.239 . S
C292 C291 1.498 . S
C292 C293 1.366 . S
C292 C297 1.407 . S
C293 C292 1.366 . S
C293 C294 1.392 . S
C293 H316 0.930 . S
C294 C293 1.392 . S
C294 C295 1.398 . S
C294 H317 0.929 . S
C295 C294 1.398 . S
C295 C296 1.352 . S
C296 C295 1.352 . S
C296 C297 1.384 . S
C296 H318 0.930 . S
C297 C292 1.407 . S
C297 C296 1.384 . S
C297 H319 0.929 . S
C298 O308 1.241 . S
C298 O309 1.273 . S
C299 O310 1.251 . S
C299 O311 1.268 1_455 S
O300 Nd280 2.500 . S
O300 C282 1.258 . S
O301 Nd280 2.492 . S
O301 C282 1.239 . S
O302 Nd280 2.487 . S
O302 C289 1.241 . S
O303 Nd280 2.682 . S
O303 Nd281 2.414 1_655 S
O303 C289 1.273 . S
O304 Nd280 2.410 . S
O304 C290 1.251 . S
O305 Nd281 2.424 . S
O305 C290 1.268 1_455 S
O306 Nd281 2.500 . S
O306 C291 1.258 . S
O307 Nd281 2.492 . S
O307 C291 1.239 . S
O308 Nd281 2.487 . S
O308 C298 1.241 . S
O309 Nd280 2.414 1_455 S
O309 Nd281 2.682 . S
O309 C298 1.273 . S
O310 Nd281 2.410 . S
O310 C299 1.251 . S
O311 Nd280 2.424 . S
O311 C299 1.268 1_655 S
H312 C284 0.930 . S
H313 C285 0.929 . S
H314 C287 0.930 . S
H315 C288 0.929 . S
H316 C293 0.930 . S
H317 C294 0.929 . S
H318 C296 0.930 . S
H319 C297 0.929 . S
H320 C328 0.929 . S
H321 C330 0.930 . S
H322 C332 0.930 . S
H323 C335 0.929 . S
H324 C338 0.930 . S
H325 C340 0.960 . S
H326 C340 0.960 . S
H327 C340 0.960 . S
C328 H320 0.929 . S
C328 C329 1.377 . S
C328 C330 1.384 . S
C329 C328 1.377 . S
C329 C335 1.390 . S
C330 H321 0.930 . S
C330 C328 1.384 . S
C330 C331 1.372 . S
C331 C330 1.372 . S
C331 C332 1.400 . S
C331 C336 1.490 . S
C332 H322 0.930 . S
C332 C331 1.400 . S
C332 C335 1.386 . S
H333 C349 0.930 . S
H334 C350 0.931 . S
C335 H323 0.929 . S
C335 C329 1.390 . S
C335 C332 1.386 . S
C336 C331 1.490 . S
C336 C338 1.395 . S
C336 C339 1.403 . S
H337 C343 0.930 . S
C338 H324 0.930 . S
C338 C336 1.395 . S
C338 C341 1.403 . S
C339 C336 1.403 . S
C339 C340 1.524 . S
C339 C343 1.400 . S
C340 H325 0.960 . S
C340 H326 0.960 . S
C340 H327 0.960 . S
C340 C339 1.524 . S
C341 C338 1.403 . S
C341 C342 1.392 . S
C341 C345 1.495 . S
C342 C341 1.392 . S
C342 C343 1.385 . S
C342 C344 1.478 . S
C343 H337 0.930 . S
C343 C339 1.400 . S
C343 C342 1.385 . S
C344 C342 1.478 . S
C344 C346 1.381 . S
C344 C350 1.383 . S
C345 C341 1.495 . S
C345 H351 0.959 . S
C345 H352 0.961 . S
C345 H353 0.960 . S
C346 C344 1.381 . S
C346 C347 1.394 . S
C346 H354 0.930 . S
C347 C346 1.394 . S
C347 C348 1.383 . S
C347 H355 0.929 . S
C348 C347 1.383 . S
C348 C349 1.377 . S
C349 H333 0.930 . S
C349 C348 1.377 . S
C349 C350 1.379 . S
C350 H334 0.931 . S
C350 C344 1.383 . S
C350 C349 1.379 . S
H351 C345 0.959 . S
H352 C345 0.961 . S
H353 C345 0.960 . S
H354 C346 0.930 . S
H355 C347 0.929 . S
H356 C364 0.929 . S
H357 C366 0.930 . S
H358 C368 0.930 . S
H359 C371 0.929 . S
H360 C374 0.930 . S
H361 C376 0.960 . S
H362 C376 0.960 . S
H363 C376 0.960 . S
C364 H356 0.929 . S
C364 C365 1.377 . S
C364 C366 1.384 . S
C365 C364 1.377 . S
C365 C371 1.390 . S
C366 H357 0.930 . S
C366 C364 1.384 . S
C366 C367 1.372 . S
C367 C366 1.372 . S
C367 C368 1.400 . S
C367 C372 1.490 . S
C368 H358 0.930 . S
C368 C367 1.400 . S
C368 C371 1.386 . S
H369 C385 0.930 . S
H370 C386 0.931 . S
C371 H359 0.929 . S
C371 C365 1.390 . S
C371 C368 1.386 . S
C372 C367 1.490 . S
C372 C374 1.395 . S
C372 C375 1.403 . S
H373 C379 0.930 . S
C374 H360 0.930 . S
C374 C372 1.395 . S
C374 C377 1.403 . S
C375 C372 1.403 . S
C375 C376 1.524 . S
C375 C379 1.400 . S
C376 H361 0.960 . S
C376 H362 0.960 . S
C376 H363 0.960 . S
C376 C375 1.524 . S
C377 C374 1.403 . S
C377 C378 1.392 . S
C377 C381 1.495 . S
C378 C377 1.392 . S
C378 C379 1.385 . S
C378 C380 1.478 . S
C379 H373 0.930 . S
C379 C375 1.400 . S
C379 C378 1.385 . S
C380 C378 1.478 . S
C380 C382 1.381 . S
C380 C386 1.383 . S
C381 C377 1.495 . S
C381 H387 0.959 . S
C381 H388 0.961 . S
C381 H389 0.960 . S
C382 C380 1.381 . S
C382 C383 1.394 . S
C382 H390 0.930 . S
C383 C382 1.394 . S
C383 C384 1.383 . S
C383 H391 0.929 . S
C384 C383 1.383 . S
C384 C385 1.377 . S
C385 H369 0.930 . S
C385 C384 1.377 . S
C385 C386 1.379 . S
C386 H370 0.931 . S
C386 C380 1.383 . S
C386 C385 1.379 . S
H387 C381 0.959 . S
H388 C381 0.961 . S
H389 C381 0.960 . S
H390 C382 0.930 . S
H391 C383 0.929 . S
H392 C400 0.929 . S
H393 C402 0.930 . S
H394 C404 0.930 . S
H395 C407 0.929 . S
H396 C410 0.930 . S
H397 C412 0.960 . S
H398 C412 0.960 . S
H399 C412 0.960 . S
C400 H392 0.929 . S
C400 C401 1.377 . S
C400 C402 1.384 . S
C401 C400 1.377 . S
C401 C407 1.390 . S
C402 H393 0.930 . S
C402 C400 1.384 . S
C402 C403 1.372 . S
C403 C402 1.372 . S
C403 C404 1.400 . S
C403 C408 1.490 . S
C404 H394 0.930 . S
C404 C403 1.400 . S
C404 C407 1.386 . S
H405 C421 0.930 . S
H406 C422 0.931 . S
C407 H395 0.929 . S
C407 C401 1.390 . S
C407 C404 1.386 . S
C408 C403 1.490 . S
C408 C410 1.395 . S
C408 C411 1.403 . S
H409 C415 0.930 . S
C410 H396 0.930 . S
C410 C408 1.395 . S
C410 C413 1.403 . S
C411 C408 1.403 . S
C411 C412 1.524 . S
C411 C415 1.400 . S
C412 H397 0.960 . S
C412 H398 0.960 . S
C412 H399 0.960 . S
C412 C411 1.524 . S
C413 C410 1.403 . S
C413 C414 1.392 . S
C413 C417 1.495 . S
C414 C413 1.392 . S
C414 C415 1.385 . S
C414 C416 1.478 . S
C415 H409 0.930 . S
C415 C411 1.400 . S
C415 C414 1.385 . S
C416 C414 1.478 . S
C416 C418 1.381 . S
C416 C422 1.383 . S
C417 C413 1.495 . S
C417 H423 0.959 . S
C417 H424 0.961 . S
C417 H425 0.960 . S
C418 C416 1.381 . S
C418 C419 1.394 . S
C418 H426 0.930 . S
C419 C418 1.394 . S
C419 C420 1.383 . S
C419 H427 0.929 . S
C420 C419 1.383 . S
C420 C421 1.377 . S
C421 H405 0.930 . S
C421 C420 1.377 . S
C421 C422 1.379 . S
C422 H406 0.931 . S
C422 C416 1.383 . S
C422 C421 1.379 . S
H423 C417 0.959 . S
H424 C417 0.961 . S
H425 C417 0.960 . S
H426 C418 0.930 . S
H427 C419 0.929 . S
H428 C436 0.929 . S
H429 C438 0.930 . S
H430 C440 0.930 . S
H431 C443 0.929 1_556 S
H432 C446 0.930 1_556 S
H433 C448 0.960 . S
H434 C448 0.960 . S
H435 C448 0.960 . S
C436 H428 0.929 . S
C436 C437 1.377 . S
C436 C438 1.384 . S
C437 C436 1.377 . S
C437 C443 1.390 . S
C438 H429 0.930 . S
C438 C436 1.384 . S
C438 C439 1.372 . S
C439 C438 1.372 . S
C439 C440 1.400 . S
C439 C444 1.490 . S
C440 H430 0.930 . S
C440 C439 1.400 . S
C440 C443 1.386 . S
H441 C457 0.930 . S
H442 C458 0.931 . S
C443 H431 0.929 1_554 S
C443 C437 1.390 . S
C443 C440 1.386 . S
C444 C439 1.490 . S
C444 C446 1.395 . S
C444 C447 1.403 . S
H445 C451 0.930 . S
C446 H432 0.930 1_554 S
C446 C444 1.395 . S
C446 C449 1.403 . S
C447 C444 1.403 . S
C447 C448 1.524 . S
C447 C451 1.400 . S
C448 H433 0.960 . S
C448 H434 0.960 . S
C448 H435 0.960 . S
C448 C447 1.524 . S
C449 C446 1.403 . S
C449 C450 1.392 . S
C449 C453 1.495 1_554 S
C450 C449 1.392 . S
C450 C451 1.385 . S
C450 C452 1.478 . S
C451 H445 0.930 . S
C451 C447 1.400 . S
C451 C450 1.385 . S
C452 C450 1.478 . S
C452 C454 1.381 . S
C452 C458 1.383 . S
C453 C449 1.495 1_556 S
C453 H459 0.959 . S
C453 H460 0.961 . S
C453 H461 0.960 . S
C454 C452 1.381 . S
C454 C455 1.394 . S
C454 H462 0.930 . S
C455 C454 1.394 . S
C455 C456 1.383 . S
C455 H463 0.929 . S
C456 C455 1.383 . S
C456 C457 1.377 . S
C457 H441 0.930 . S
C457 C456 1.377 . S
C457 C458 1.379 . S
C458 H442 0.931 . S
C458 C452 1.383 . S
C458 C457 1.379 . S
H459 C453 0.959 . S
H460 C453 0.961 . S
H461 C453 0.960 . S
H462 C454 0.930 . S
H463 C455 0.929 . S
H464 C472 0.929 . S
H465 C474 0.930 . S
H466 C476 0.930 . S
H467 C479 0.929 . S
H468 C482 0.930 . S
H469 C484 0.960 . S
H470 C484 0.960 . S
H471 C484 0.960 . S
C472 H464 0.929 . S
C472 C473 1.377 . S
C472 C474 1.384 . S
C473 C472 1.377 . S
C473 C479 1.390 . S
C474 H465 0.930 . S
C474 C472 1.384 . S
C474 C475 1.372 . S
C475 C474 1.372 . S
C475 C476 1.400 . S
C475 C480 1.490 . S
C476 H466 0.930 . S
C476 C475 1.400 . S
C476 C479 1.386 . S
H477 C493 0.930 . S
H478 C494 0.931 . S
C479 H467 0.929 . S
C479 C473 1.390 . S
C479 C476 1.386 . S
C480 C475 1.490 . S
C480 C482 1.395 . S
C480 C483 1.403 . S
H481 C487 0.930 . S
C482 H468 0.930 . S
C482 C480 1.395 . S
C482 C485 1.403 . S
C483 C480 1.403 . S
C483 C484 1.524 . S
C483 C487 1.400 . S
C484 H469 0.960 . S
C484 H470 0.960 . S
C484 H471 0.960 . S
C484 C483 1.524 . S
C485 C482 1.403 . S
C485 C486 1.392 . S
C485 C489 1.495 . S
C486 C485 1.392 . S
C486 C487 1.385 . S
C486 C488 1.478 . S
C487 H481 0.930 . S
C487 C483 1.400 . S
C487 C486 1.385 . S
C488 C486 1.478 . S
C488 C490 1.381 . S
C488 C494 1.383 . S
C489 C485 1.495 . S
C489 H495 0.959 . S
C489 H496 0.961 . S
C489 H497 0.960 . S
C490 C488 1.381 . S
C490 C491 1.394 . S
C490 H498 0.930 . S
C491 C490 1.394 . S
C491 C492 1.383 . S
C491 H499 0.929 . S
C492 C491 1.383 . S
C492 C493 1.377 . S
C493 H477 0.930 . S
C493 C492 1.377 . S
C493 C494 1.379 . S
C494 H478 0.931 . S
C494 C488 1.383 . S
C494 C493 1.379 . S
H495 C489 0.959 . S
H496 C489 0.961 . S
H497 C489 0.960 . S
H498 C490 0.930 . S
H499 C491 0.929 . S
H500 C508 0.929 . S
H501 C510 0.930 . S
H502 C512 0.930 . S
H503 C515 0.929 . S
H504 C518 0.930 . S
H505 C520 0.960 . S
H506 C520 0.960 . S
H507 C520 0.960 . S
C508 H500 0.929 . S
C508 C509 1.377 . S
C508 C510 1.384 . S
C509 C508 1.377 . S
C509 C515 1.390 . S
C510 H501 0.930 . S
C510 C508 1.384 . S
C510 C511 1.372 . S
C511 C510 1.372 . S
C511 C512 1.400 . S
C511 C516 1.490 . S
C512 H502 0.930 . S
C512 C511 1.400 . S
C512 C515 1.386 . S
H513 C529 0.930 . S
H514 C530 0.931 . S
C515 H503 0.929 . S
C515 C509 1.390 . S
C515 C512 1.386 . S
C516 C511 1.490 . S
C516 C518 1.395 . S
C516 C519 1.403 . S
H517 C523 0.930 . S
C518 H504 0.930 . S
C518 C516 1.395 . S
C518 C521 1.403 . S
C519 C516 1.403 . S
C519 C520 1.524 . S
C519 C523 1.400 . S
C520 H505 0.960 . S
C520 H506 0.960 . S
C520 H507 0.960 . S
C520 C519 1.524 . S
C521 C518 1.403 . S
C521 C522 1.392 . S
C521 C525 1.495 . S
C522 C521 1.392 . S
C522 C523 1.385 . S
C522 C524 1.478 . S
C523 H517 0.930 . S
C523 C519 1.400 . S
C523 C522 1.385 . S
C524 C522 1.478 . S
C524 C526 1.381 . S
C524 C530 1.383 . S
C525 C521 1.495 . S
C525 H531 0.959 . S
C525 H532 0.961 . S
C525 H533 0.960 . S
C526 C524 1.381 . S
C526 C527 1.394 . S
C526 H534 0.930 . S
C527 C526 1.394 . S
C527 C528 1.383 . S
C527 H535 0.929 . S
C528 C527 1.383 . S
C528 C529 1.377 . S
C529 H513 0.930 . S
C529 C528 1.377 . S
C529 C530 1.379 . S
C530 H514 0.931 . S
C530 C524 1.383 . S
C530 C529 1.379 . S
H531 C525 0.959 . S
H532 C525 0.961 . S
H533 C525 0.960 . S
H534 C526 0.930 . S
H535 C527 0.929 . S
H536 C544 0.929 . S
H537 C546 0.930 . S
H538 C548 0.930 . S
H539 C551 0.929 . S
H540 C554 0.930 . S
H541 C556 0.960 . S
H542 C556 0.960 . S
H543 C556 0.960 . S
C544 H536 0.929 . S
C544 C545 1.377 . S
C544 C546 1.384 . S
C545 C544 1.377 . S
C545 C551 1.390 . S
C546 H537 0.930 . S
C546 C544 1.384 . S
C546 C547 1.372 . S
C547 C546 1.372 . S
C547 C548 1.400 . S
C547 C552 1.490 . S
C548 H538 0.930 . S
C548 C547 1.400 . S
C548 C551 1.386 . S
H549 C565 0.930 . S
H550 C566 0.931 . S
C551 H539 0.929 . S
C551 C545 1.390 . S
C551 C548 1.386 . S
C552 C547 1.490 . S
C552 C554 1.395 . S
C552 C555 1.403 . S
H553 C559 0.930 . S
C554 H540 0.930 . S
C554 C552 1.395 . S
C554 C557 1.403 . S
C555 C552 1.403 . S
C555 C556 1.524 . S
C555 C559 1.400 . S
C556 H541 0.960 . S
C556 H542 0.960 . S
C556 H543 0.960 . S
C556 C555 1.524 . S
C557 C554 1.403 . S
C557 C558 1.392 . S
C557 C561 1.495 . S
C558 C557 1.392 . S
C558 C559 1.385 . S
C558 C560 1.478 . S
C559 H553 0.930 . S
C559 C555 1.400 . S
C559 C558 1.385 . S
C560 C558 1.478 . S
C560 C562 1.381 . S
C560 C566 1.383 . S
C561 C557 1.495 . S
C561 H567 0.959 . S
C561 H568 0.961 . S
C561 H569 0.960 . S
C562 C560 1.381 . S
C562 C563 1.394 . S
C562 H570 0.930 . S
C563 C562 1.394 . S
C563 C564 1.383 . S
C563 H571 0.929 . S
C564 C563 1.383 . S
C564 C565 1.377 . S
C565 H549 0.930 . S
C565 C564 1.377 . S
C565 C566 1.379 . S
C566 H550 0.931 . S
C566 C560 1.383 . S
C566 C565 1.379 . S
H567 C561 0.959 . S
H568 C561 0.961 . S
H569 C561 0.960 . S
H570 C562 0.930 . S
H571 C563 0.929 . S
H572 C580 0.929 . S
H573 C582 0.930 . S
H574 C584 0.930 . S
H575 C587 0.929 . S
H576 C590 0.930 . S
H577 C592 0.960 . S
H578 C592 0.960 . S
H579 C592 0.960 . S
C580 H572 0.929 . S
C580 C581 1.377 . S
C580 C582 1.384 . S
C581 C580 1.377 . S
C581 C587 1.390 . S
C582 H573 0.930 . S
C582 C580 1.384 . S
C582 C583 1.372 . S
C583 C582 1.372 . S
C583 C584 1.400 . S
C583 C588 1.490 . S
C584 H574 0.930 . S
C584 C583 1.400 . S
C584 C587 1.386 . S
H585 C601 0.930 . S
H586 C602 0.931 . S
C587 H575 0.929 . S
C587 C581 1.390 . S
C587 C584 1.386 . S
C588 C583 1.490 . S
C588 C590 1.395 . S
C588 C591 1.403 . S
H589 C595 0.930 1_554 S
C590 H576 0.930 . S
C590 C588 1.395 . S
C590 C593 1.403 . S
C591 C588 1.403 . S
C591 C592 1.524 1_556 S
C591 C595 1.400 . S
C592 H577 0.960 . S
C592 H578 0.960 . S
C592 H579 0.960 . S
C592 C591 1.524 1_554 S
C593 C590 1.403 . S
C593 C594 1.392 . S
C593 C597 1.495 . S
C594 C593 1.392 . S
C594 C595 1.385 . S
C594 C596 1.478 . S
C595 H589 0.930 1_556 S
C595 C591 1.400 . S
C595 C594 1.385 . S
C596 C594 1.478 . S
C596 C598 1.381 . S
C596 C602 1.383 . S
C597 C593 1.495 . S
C597 H603 0.959 . S
C597 H604 0.961 . S
C597 H605 0.960 . S
C598 C596 1.381 . S
C598 C599 1.394 . S
C598 H606 0.930 . S
C599 C598 1.394 . S
C599 C600 1.383 . S
C599 H607 0.929 . S
C600 C599 1.383 . S
C600 C601 1.377 . S
C601 H585 0.930 . S
C601 C600 1.377 . S
C601 C602 1.379 . S
C602 H586 0.931 . S
C602 C596 1.383 . S
C602 C601 1.379 . S
H603 C597 0.959 . S
H604 C597 0.961 . S
H605 C597 0.960 . S
H606 C598 0.930 . S
H607 C599 0.929 . S
H608 C616 0.929 . S
H609 C618 0.930 . S
H610 C620 0.930 . S
H611 C623 0.929 . S
H612 C626 0.930 . S
H613 C628 0.960 . S
H614 C628 0.960 . S
H615 C628 0.960 . S
C616 H608 0.929 . S
C616 C617 1.377 . S
C616 C618 1.384 . S
C617 C616 1.377 . S
C617 C623 1.390 . S
C618 H609 0.930 . S
C618 C616 1.384 . S
C618 C619 1.372 . S
C619 C618 1.372 . S
C619 C620 1.400 . S
C619 C624 1.490 . S
C620 H610 0.930 . S
C620 C619 1.400 . S
C620 C623 1.386 . S
H621 C637 0.930 . S
H622 C638 0.931 . S
C623 H611 0.929 . S
C623 C617 1.390 . S
C623 C620 1.386 . S
C624 C619 1.490 . S
C624 C626 1.395 . S
C624 C627 1.403 . S
H625 C631 0.930 . S
C626 H612 0.930 . S
C626 C624 1.395 . S
C626 C629 1.403 . S
C627 C624 1.403 . S
C627 C628 1.524 . S
C627 C631 1.400 . S
C628 H613 0.960 . S
C628 H614 0.960 . S
C628 H615 0.960 . S
C628 C627 1.524 . S
C629 C626 1.403 . S
C629 C630 1.392 . S
C629 C633 1.495 . S
C630 C629 1.392 . S
C630 C631 1.385 . S
C630 C632 1.478 . S
C631 H625 0.930 . S
C631 C627 1.400 . S
C631 C630 1.385 . S
C632 C630 1.478 . S
C632 C634 1.381 . S
C632 C638 1.383 . S
C633 C629 1.495 . S
C633 H639 0.959 . S
C633 H640 0.961 . S
C633 H641 0.960 . S
C634 C632 1.381 . S
C634 C635 1.394 . S
C634 H642 0.930 . S
C635 C634 1.394 . S
C635 C636 1.383 . S
C635 H643 0.929 . S
C636 C635 1.383 . S
C636 C637 1.377 . S
C637 H621 0.930 . S
C637 C636 1.377 . S
C637 C638 1.379 . S
C638 H622 0.931 . S
C638 C632 1.383 . S
C638 C637 1.379 . S
H639 C633 0.959 . S
H640 C633 0.961 . S
H641 C633 0.960 . S
H642 C634 0.930 . S
H643 C635 0.929 . S
H644 C652 0.929 . S
H645 C654 0.930 . S
H646 C656 0.930 . S
H647 C659 0.929 . S
H648 C662 0.930 . S
H649 C664 0.960 . S
H650 C664 0.960 . S
H651 C664 0.960 . S
C652 H644 0.929 . S
C652 C653 1.377 . S
C652 C654 1.384 . S
C653 C652 1.377 . S
C653 C659 1.390 . S
C654 H645 0.930 . S
C654 C652 1.384 . S
C654 C655 1.372 . S
C655 C654 1.372 . S
C655 C656 1.400 . S
C655 C660 1.490 . S
C656 H646 0.930 . S
C656 C655 1.400 . S
C656 C659 1.386 . S
H657 C673 0.930 . S
H658 C674 0.931 . S
C659 H647 0.929 . S
C659 C653 1.390 . S
C659 C656 1.386 . S
C660 C655 1.490 . S
C660 C662 1.395 . S
C660 C663 1.403 . S
H661 C667 0.930 1_556 S
C662 H648 0.930 . S
C662 C660 1.395 . S
C662 C665 1.403 . S
C663 C660 1.403 . S
C663 C664 1.524 1_554 S
C663 C667 1.400 . S
C664 H649 0.960 . S
C664 H650 0.960 . S
C664 H651 0.960 . S
C664 C663 1.524 1_556 S
C665 C662 1.403 . S
C665 C666 1.392 . S
C665 C669 1.495 . S
C666 C665 1.392 . S
C666 C667 1.385 . S
C666 C668 1.478 . S
C667 H661 0.930 1_554 S
C667 C663 1.400 . S
C667 C666 1.385 . S
C668 C666 1.478 . S
C668 C670 1.381 . S
C668 C674 1.383 . S
C669 C665 1.495 . S
C669 H675 0.959 . S
C669 H676 0.961 . S
C669 H677 0.960 . S
C670 C668 1.381 . S
C670 C671 1.394 . S
C670 H678 0.930 . S
C671 C670 1.394 . S
C671 C672 1.383 . S
C671 H679 0.929 . S
C672 C671 1.383 . S
C672 C673 1.377 . S
C673 H657 0.930 . S
C673 C672 1.377 . S
C673 C674 1.379 . S
C674 H658 0.931 . S
C674 C668 1.383 . S
C674 C673 1.379 . S
H675 C669 0.959 . S
H676 C669 0.961 . S
H677 C669 0.960 . S
H678 C670 0.930 . S
H679 C671 0.929 . S
H680 C688 0.929 . S
H681 C690 0.930 . S
H682 C692 0.930 . S
H683 C695 0.929 . S
H684 C698 0.930 . S
H685 C700 0.960 . S
H686 C700 0.960 . S
H687 C700 0.960 . S
C688 H680 0.929 . S
C688 C689 1.377 . S
C688 C690 1.384 . S
C689 C688 1.377 . S
C689 C695 1.390 . S
C690 H681 0.930 . S
C690 C688 1.384 . S
C690 C691 1.372 . S
C691 C690 1.372 . S
C691 C692 1.400 . S
C691 C696 1.490 . S
C692 H682 0.930 . S
C692 C691 1.400 . S
C692 C695 1.386 . S
H693 C709 0.930 . S
H694 C710 0.931 . S
C695 H683 0.929 . S
C695 C689 1.390 . S
C695 C692 1.386 . S
C696 C691 1.490 . S
C696 C698 1.395 . S
C696 C699 1.403 . S
H697 C703 0.930 . S
C698 H684 0.930 . S
C698 C696 1.395 . S
C698 C701 1.403 . S
C699 C696 1.403 . S
C699 C700 1.524 . S
C699 C703 1.400 . S
C700 H685 0.960 . S
C700 H686 0.960 . S
C700 H687 0.960 . S
C700 C699 1.524 . S
C701 C698 1.403 . S
C701 C702 1.392 . S
C701 C705 1.495 . S
C702 C701 1.392 . S
C702 C703 1.385 . S
C702 C704 1.478 . S
C703 H697 0.930 . S
C703 C699 1.400 . S
C703 C702 1.385 . S
C704 C702 1.478 . S
C704 C706 1.381 . S
C704 C710 1.383 . S
C705 C701 1.495 . S
C705 H711 0.959 . S
C705 H712 0.961 . S
C705 H713 0.960 . S
C706 C704 1.381 . S
C706 C707 1.394 . S
C706 H714 0.930 . S
C707 C706 1.394 . S
C707 C708 1.383 . S
C707 H715 0.929 . S
C708 C707 1.383 . S
C708 C709 1.377 . S
C709 H693 0.930 . S
C709 C708 1.377 . S
C709 C710 1.379 . S
C710 H694 0.931 . S
C710 C704 1.383 . S
C710 C709 1.379 . S
H711 C705 0.959 . S
H712 C705 0.961 . S
H713 C705 0.960 . S
H714 C706 0.930 . S
H715 C707 0.929 . S
H716 C724 0.929 . S
H717 C726 0.930 . S
H718 C728 0.930 . S
H719 C731 0.929 . S
H720 C734 0.930 . S
H721 C736 0.960 . S
H722 C736 0.960 . S
H723 C736 0.960 . S
C724 H716 0.929 . S
C724 C725 1.377 . S
C724 C726 1.384 . S
C725 C724 1.377 . S
C725 C731 1.390 . S
C726 H717 0.930 . S
C726 C724 1.384 . S
C726 C727 1.372 . S
C727 C726 1.372 . S
C727 C728 1.400 . S
C727 C732 1.490 . S
C728 H718 0.930 . S
C728 C727 1.400 . S
C728 C731 1.386 . S
H729 C745 0.930 . S
H730 C746 0.931 . S
C731 H719 0.929 . S
C731 C725 1.390 . S
C731 C728 1.386 . S
C732 C727 1.490 . S
C732 C734 1.395 . S
C732 C735 1.403 . S
H733 C739 0.930 . S
C734 H720 0.930 . S
C734 C732 1.395 . S
C734 C737 1.403 . S
C735 C732 1.403 . S
C735 C736 1.524 . S
C735 C739 1.400 . S
C736 H721 0.960 . S
C736 H722 0.960 . S
C736 H723 0.960 . S
C736 C735 1.524 . S
C737 C734 1.403 . S
C737 C738 1.392 . S
C737 C741 1.495 . S
C738 C737 1.392 . S
C738 C739 1.385 . S
C738 C740 1.478 . S
C739 H733 0.930 . S
C739 C735 1.400 . S
C739 C738 1.385 . S
C740 C738 1.478 . S
C740 C742 1.381 . S
C740 C746 1.383 . S
C741 C737 1.495 . S
C741 H747 0.959 . S
C741 H748 0.961 . S
C741 H749 0.960 . S
C742 C740 1.381 . S
C742 C743 1.394 . S
C742 H750 0.930 . S
C743 C742 1.394 . S
C743 C744 1.383 . S
C743 H751 0.929 . S
C744 C743 1.383 . S
C744 C745 1.377 . S
C745 H729 0.930 . S
C745 C744 1.377 . S
C745 C746 1.379 . S
C746 H730 0.931 . S
C746 C740 1.383 . S
C746 C745 1.379 . S
H747 C741 0.959 . S
H748 C741 0.961 . S
H749 C741 0.960 . S
H750 C742 0.930 . S
H751 C743 0.929 . S
H752 C760 0.929 . S
H753 C762 0.930 . S
H754 C764 0.930 . S
H755 C767 0.929 . S
H756 C770 0.930 . S
H757 C772 0.960 . S
H758 C772 0.960 . S
H759 C772 0.960 . S
C760 H752 0.929 . S
C760 C761 1.377 . S
C760 C762 1.384 . S
C761 C760 1.377 . S
C761 C767 1.390 . S
C762 H753 0.930 . S
C762 C760 1.384 . S
C762 C763 1.372 . S
C763 C762 1.372 . S
C763 C764 1.400 . S
C763 C768 1.490 . S
C764 H754 0.930 . S
C764 C763 1.400 . S
C764 C767 1.386 . S
H765 C781 0.930 . S
H766 C782 0.931 . S
C767 H755 0.929 . S
C767 C761 1.390 . S
C767 C764 1.386 . S
C768 C763 1.490 . S
C768 C770 1.395 . S
C768 C771 1.403 . S
H769 C775 0.930 . S
C770 H756 0.930 . S
C770 C768 1.395 . S
C770 C773 1.403 . S
C771 C768 1.403 . S
C771 C772 1.524 . S
C771 C775 1.400 . S
C772 H757 0.960 . S
C772 H758 0.960 . S
C772 H759 0.960 . S
C772 C771 1.524 . S
C773 C770 1.403 . S
C773 C774 1.392 . S
C773 C777 1.495 . S
C774 C773 1.392 . S
C774 C775 1.385 . S
C774 C776 1.478 . S
C775 H769 0.930 . S
C775 C771 1.400 . S
C775 C774 1.385 . S
C776 C774 1.478 . S
C776 C778 1.381 . S
C776 C782 1.383 . S
C777 C773 1.495 . S
C777 H783 0.959 . S
C777 H784 0.961 . S
C777 H785 0.960 . S
C778 C776 1.381 . S
C778 C779 1.394 . S
C778 H786 0.930 . S
C779 C778 1.394 . S
C779 C780 1.383 . S
C779 H787 0.929 . S
C780 C779 1.383 . S
C780 C781 1.377 . S
C781 H765 0.930 . S
C781 C780 1.377 . S
C781 C782 1.379 . S
C782 H766 0.931 . S
C782 C776 1.383 . S
C782 C781 1.379 . S
H783 C777 0.959 . S
H784 C777 0.961 . S
H785 C777 0.960 . S
H786 C778 0.930 . S
H787 C779 0.929 . S
H788 C796 0.929 . S
H789 C798 0.930 . S
H790 C800 0.930 . S
H791 C803 0.929 . S
H792 C806 0.930 . S
H793 C808 0.960 . S
H794 C808 0.960 . S
H795 C808 0.960 . S
C796 H788 0.929 . S
C796 C797 1.377 1_554 S
C796 C798 1.384 . S
C797 C796 1.377 1_556 S
C797 C803 1.390 . S
C798 H789 0.930 . S
C798 C796 1.384 . S
C798 C799 1.372 1_554 S
C799 C798 1.372 1_556 S
C799 C800 1.400 . S
C799 C804 1.490 . S
C800 H790 0.930 . S
C800 C799 1.400 . S
C800 C803 1.386 . S
H801 C817 0.930 . S
H802 C818 0.931 . S
C803 H791 0.929 . S
C803 C797 1.390 . S
C803 C800 1.386 . S
C804 C799 1.490 . S
C804 C806 1.395 . S
C804 C807 1.403 . S
H805 C811 0.930 . S
C806 H792 0.930 . S
C806 C804 1.395 . S
C806 C809 1.403 . S
C807 C804 1.403 . S
C807 C808 1.524 . S
C807 C811 1.400 . S
C808 H793 0.960 . S
C808 H794 0.960 . S
C808 H795 0.960 . S
C808 C807 1.524 . S
C809 C806 1.403 . S
C809 C810 1.392 . S
C809 C813 1.495 . S
C810 C809 1.392 . S
C810 C811 1.385 . S
C810 C812 1.478 . S
C811 H805 0.930 . S
C811 C807 1.400 . S
C811 C810 1.385 . S
C812 C810 1.478 . S
C812 C814 1.384 . S
C812 C818 1.383 . S
C813 C809 1.495 . S
C813 H819 0.959 . S
C813 H820 0.961 . S
C813 H821 0.960 1_556 S
C814 C812 1.384 . S
C814 C815 1.395 . S
C814 H822 0.927 1_556 S
C815 C814 1.395 . S
C815 C816 1.383 . S
C815 H823 0.929 1_556 S
C816 C815 1.383 . S
C816 C817 1.377 . S
C817 H801 0.930 . S
C817 C816 1.377 . S
C817 C818 1.379 . S
C818 H802 0.931 . S
C818 C812 1.383 . S
C818 C817 1.379 . S
H819 C813 0.959 . S
H820 C813 0.961 . S
H821 C813 0.960 1_554 S
H822 C814 0.927 1_554 S
H823 C815 0.929 1_554 S
H824 C832 0.929 . S
H825 C834 0.930 . S
H826 C836 0.930 . S
H827 C839 0.929 . S
H828 C842 0.930 . S
H829 C844 0.960 . S
H830 C844 0.960 . S
H831 C844 0.960 . S
C832 H824 0.929 . S
C832 C833 1.377 . S
C832 C834 1.384 . S
C833 C832 1.377 . S
C833 C839 1.390 . S
C834 H825 0.930 . S
C834 C832 1.384 . S
C834 C835 1.372 . S
C835 C834 1.372 . S
C835 C836 1.400 . S
C835 C840 1.490 . S
C836 H826 0.930 . S
C836 C835 1.400 . S
C836 C839 1.386 . S
H837 C853 0.930 . S
H838 C854 0.931 . S
C839 H827 0.929 . S
C839 C833 1.390 . S
C839 C836 1.386 . S
C840 C835 1.490 . S
C840 C842 1.395 . S
C840 C843 1.403 . S
H841 C847 0.930 . S
C842 H828 0.930 . S
C842 C840 1.395 . S
C842 C845 1.403 . S
C843 C840 1.403 . S
C843 C844 1.524 . S
C843 C847 1.400 . S
C844 H829 0.960 . S
C844 H830 0.960 . S
C844 H831 0.960 . S
C844 C843 1.524 . S
C845 C842 1.403 . S
C845 C846 1.392 . S
C845 C849 1.495 . S
C846 C845 1.392 . S
C846 C847 1.385 . S
C846 C848 1.478 . S
C847 H841 0.930 . S
C847 C843 1.400 . S
C847 C846 1.385 . S
C848 C846 1.478 . S
C848 C850 1.381 . S
C848 C854 1.383 . S
C849 C845 1.495 . S
C849 H855 0.959 . S
C849 H856 0.961 . S
C849 H857 0.960 . S
C850 C848 1.381 . S
C850 C851 1.394 . S
C850 H858 0.930 . S
C851 C850 1.394 . S
C851 C852 1.383 . S
C851 H859 0.929 . S
C852 C851 1.383 . S
C852 C853 1.377 . S
C853 H837 0.930 . S
C853 C852 1.377 . S
C853 C854 1.379 . S
C854 H838 0.931 . S
C854 C848 1.383 . S
C854 C853 1.379 . S
H855 C849 0.959 . S
H856 C849 0.961 . S
H857 C849 0.960 . S
H858 C850 0.930 . S
H859 C851 0.929 . S
H860 C868 0.929 . S
H861 C870 0.930 . S
H862 C872 0.930 . S
H863 C875 0.929 . S
H864 C878 0.930 . S
H865 C880 0.960 . S
H866 C880 0.960 . S
H867 C880 0.960 . S
C868 H860 0.929 . S
C868 C869 1.377 . S
C868 C870 1.384 . S
C869 C868 1.377 . S
C869 C875 1.390 . S
C870 H861 0.930 . S
C870 C868 1.384 . S
C870 C871 1.372 . S
C871 C870 1.372 . S
C871 C872 1.400 . S
C871 C876 1.490 . S
C872 H862 0.930 . S
C872 C871 1.400 . S
C872 C875 1.386 . S
H873 C889 0.930 . S
H874 C890 0.931 . S
C875 H863 0.929 . S
C875 C869 1.390 . S
C875 C872 1.386 . S
C876 C871 1.490 . S
C876 C878 1.395 . S
C876 C879 1.403 . S
H877 C883 0.930 . S
C878 H864 0.930 . S
C878 C876 1.395 . S
C878 C881 1.403 . S
C879 C876 1.403 . S
C879 C880 1.524 . S
C879 C883 1.400 . S
C880 H865 0.960 . S
C880 H866 0.960 . S
C880 H867 0.960 . S
C880 C879 1.524 . S
C881 C878 1.403 . S
C881 C882 1.392 . S
C881 C885 1.495 . S
C882 C881 1.392 . S
C882 C883 1.385 . S
C882 C884 1.478 . S
C883 H877 0.930 . S
C883 C879 1.400 . S
C883 C882 1.385 . S
C884 C882 1.478 . S
C884 C886 1.381 . S
C884 C890 1.383 . S
C885 C881 1.495 . S
C885 H891 0.959 . S
C885 H892 0.961 . S
C885 H893 0.960 . S
C886 C884 1.381 . S
C886 C887 1.394 . S
C886 H894 0.930 . S
C887 C886 1.394 . S
C887 C888 1.383 . S
C887 H895 0.929 . S
C888 C887 1.383 . S
C888 C889 1.377 . S
C889 H873 0.930 . S
C889 C888 1.377 . S
C889 C890 1.379 . S
C890 H874 0.931 . S
C890 C884 1.383 . S
C890 C889 1.379 . S
H891 C885 0.959 . S
H892 C885 0.961 . S
H893 C885 0.960 . S
H894 C886 0.930 . S
H895 C887 0.929 . S
H896 C904 0.929 1_545 S
H897 C906 0.930 . S
H898 C908 0.930 . S
H899 C911 0.929 . S
H900 C914 0.930 . S
H901 C916 0.960 . S
H902 C916 0.960 1_455 S
H903 C916 0.960 . S
C904 H896 0.929 1_565 S
C904 C905 1.378 1_455 S
C904 C906 1.384 1_565 S
C905 C904 1.378 1_655 S
C905 C911 1.390 . S
C906 H897 0.930 . S
C906 C904 1.384 1_545 S
C906 C907 1.372 1_445 S
C907 C906 1.372 1_665 S
C907 C908 1.400 . S
C907 C912 1.494 . S
C908 H898 0.930 . S
C908 C907 1.400 . S
C908 C911 1.386 . S
H909 C925 0.930 . S
H910 C926 0.931 . S
C911 H899 0.929 . S
C911 C905 1.390 . S
C911 C908 1.386 . S
C912 C907 1.494 . S
C912 C914 1.376 1_665 S
C912 C915 1.417 . S
H913 C919 0.930 . S
C914 H900 0.930 . S
C914 C912 1.376 1_445 S
C914 C917 1.403 1_556 S
C915 C912 1.417 . S
C915 C916 1.524 . S
C915 C919 1.400 1_556 S
C916 H901 0.960 . S
C916 H902 0.960 1_655 S
C916 H903 0.960 . S
C916 C915 1.524 . S
C917 C914 1.403 1_554 S
C917 C918 1.392 . S
C917 C921 1.495 . S
C918 C917 1.392 . S
C918 C919 1.385 1_445 S
C918 C920 1.478 . S
C919 H913 0.930 . S
C919 C915 1.400 1_554 S
C919 C918 1.385 1_665 S
C920 C918 1.478 . S
C920 C922 1.381 . S
C920 C926 1.383 1_455 S
C921 C917 1.495 . S
C921 H927 0.959 . S
C921 H928 0.961 . S
C921 H929 0.960 . S
C922 C920 1.381 . S
C922 C923 1.394 . S
C922 H930 0.930 . S
C923 C922 1.394 . S
C923 C924 1.383 . S
C923 H931 0.929 . S
C924 C923 1.383 . S
C924 C925 1.377 1_455 S
C925 H909 0.930 . S
C925 C924 1.377 1_655 S
C925 C926 1.379 . S
C926 H910 0.931 . S
C926 C920 1.383 1_655 S
C926 C925 1.379 . S
H927 C921 0.959 . S
H928 C921 0.961 . S
H929 C921 0.960 . S
H930 C922 0.930 . S
H931 C923 0.929 . S
H932 C940 0.929 . S
H933 C942 0.930 . S
H934 C944 0.930 . S
H935 C947 0.929 . S
H936 C950 0.930 . S
H937 C952 0.960 . S
H938 C952 0.960 . S
H939 C952 0.960 . S
C940 H932 0.929 . S
C940 C941 1.377 . S
C940 C942 1.384 . S
C941 C940 1.377 . S
C941 C947 1.390 . S
C942 H933 0.930 . S
C942 C940 1.384 . S
C942 C943 1.372 . S
C943 C942 1.372 . S
C943 C944 1.400 . S
C943 C948 1.490 . S
C944 H934 0.930 . S
C944 C943 1.400 . S
C944 C947 1.386 . S
H945 C961 0.930 1_556 S
H946 C962 0.931 . S
C947 H935 0.929 . S
C947 C941 1.390 . S
C947 C944 1.386 . S
C948 C943 1.490 . S
C948 C950 1.395 . S
C948 C951 1.403 . S
H949 C955 0.930 . S
C950 H936 0.930 . S
C950 C948 1.395 . S
C950 C953 1.403 . S
C951 C948 1.403 . S
C951 C952 1.524 . S
C951 C955 1.400 . S
C952 H937 0.960 . S
C952 H938 0.960 . S
C952 H939 0.960 . S
C952 C951 1.524 . S
C953 C950 1.403 . S
C953 C954 1.392 . S
C953 C957 1.495 . S
C954 C953 1.392 . S
C954 C955 1.385 . S
C954 C956 1.478 . S
C955 H949 0.930 . S
C955 C951 1.400 . S
C955 C954 1.385 . S
C956 C954 1.478 . S
C956 C958 1.381 . S
C956 C962 1.383 . S
C957 C953 1.495 . S
C957 H963 0.959 . S
C957 H964 0.961 . S
C957 H965 0.960 . S
C958 C956 1.381 . S
C958 C959 1.394 . S
C958 H966 0.930 . S
C959 C958 1.394 . S
C959 C960 1.383 1_554 S
C959 H967 0.927 1_554 S
C960 C959 1.383 1_556 S
C960 C961 1.377 1_556 S
C961 H945 0.930 1_554 S
C961 C960 1.377 1_554 S
C961 C962 1.379 . S
C962 H946 0.931 . S
C962 C956 1.383 . S
C962 C961 1.379 . S
H963 C957 0.959 . S
H964 C957 0.961 . S
H965 C957 0.960 . S
H966 C958 0.930 . S
H967 C959 0.927 1_556 S
H968 C976 0.929 . S
H969 C978 0.930 . S
H970 C980 0.930 . S
H971 C983 0.929 . S
H972 C986 0.930 1_565 S
H973 C988 0.960 . S
H974 C988 0.960 . S
H975 C988 0.960 1_565 S
C976 H968 0.929 . S
C976 C977 1.377 1_545 S
C976 C978 1.384 . S
C977 C976 1.377 1_565 S
C977 C983 1.390 . S
C978 H969 0.930 . S
C978 C976 1.384 . S
C978 C979 1.372 1_545 S
C979 C978 1.372 1_565 S
C979 C980 1.400 . S
C979 C984 1.490 . S
C980 H970 0.930 . S
C980 C979 1.400 . S
C980 C983 1.386 . S
H981 C997 0.930 . S
H982 C998 0.931 . S
C983 H971 0.929 . S
C983 C977 1.390 . S
C983 C980 1.386 . S
C984 C979 1.490 . S
C984 C986 1.395 1_565 S
C984 C987 1.401 1_565 S
H985 C991 0.930 . S
C986 H972 0.930 1_545 S
C986 C984 1.395 1_545 S
C986 C989 1.404 . S
C987 C984 1.401 1_545 S
C987 C988 1.527 . S
C987 C991 1.403 . S
C988 H973 0.960 . S
C988 H974 0.960 . S
C988 H975 0.960 1_545 S
C988 C987 1.527 . S
C989 C986 1.404 . S
C989 C990 1.392 . S
C989 C993 1.497 . S
C990 C989 1.392 . S
C990 C991 1.385 . S
C990 C992 1.478 . S
C991 H985 0.930 . S
C991 C987 1.403 . S
C991 C990 1.385 . S
C992 C990 1.478 . S
C992 C994 1.381 . S
C992 C998 1.383 1_545 S
C993 C989 1.497 . S
C993 H999 0.958 . S
C993 H1000 0.917 1_545 S
C993 H1001 1.007 . S
C994 C992 1.381 . S
C994 C995 1.394 . S
C994 H1002 0.930 . S
C995 C994 1.394 . S
C995 C996 1.383 . S
C995 H1003 0.929 . S
C996 C995 1.383 . S
C996 C997 1.377 1_545 S
C997 H981 0.930 . S
C997 C996 1.377 1_565 S
C997 C998 1.379 . S
C998 H982 0.931 . S
C998 C992 1.383 1_565 S
C998 C997 1.379 . S
H999 C993 0.958 . S
H1000 C993 0.917 1_565 S
H1001 C993 1.007 . S
H1002 C994 0.930 . S
H1003 C995 0.929 . S
H1004 C1012 0.929 . S
H1005 C1014 0.930 . S
H1006 C1016 0.930 . S
H1007 C1019 0.929 1_554 S
H1008 C1022 0.930 . S
H1009 C1024 0.960 . S
H1010 C1024 0.960 . S
H1011 C1024 0.960 . S
C1012 H1004 0.929 . S
C1012 C1013 1.377 1_556 S
C1012 C1014 1.384 . S
C1013 C1012 1.377 1_554 S
C1013 C1019 1.390 1_554 S
C1014 H1005 0.930 . S
C1014 C1012 1.384 . S
C1014 C1015 1.372 . S
C1015 C1014 1.372 . S
C1015 C1016 1.400 . S
C1015 C1020 1.490 . S
C1016 H1006 0.930 . S
C1016 C1015 1.400 . S
C1016 C1019 1.386 . S
H1017 C1033 0.930 . S
H1018 C1034 0.931 . S
C1019 H1007 0.929 1_556 S
C1019 C1013 1.390 1_556 S
C1019 C1016 1.386 . S
C1020 C1015 1.490 . S
C1020 C1022 1.395 . S
C1020 C1023 1.403 . S
H1021 C1027 0.930 . S
C1022 H1008 0.930 . S
C1022 C1020 1.395 . S
C1022 C1025 1.403 . S
C1023 C1020 1.403 . S
C1023 C1024 1.524 . S
C1023 C1027 1.400 . S
C1024 H1009 0.960 . S
C1024 H1010 0.960 . S
C1024 H1011 0.960 . S
C1024 C1023 1.524 . S
C1025 C1022 1.403 . S
C1025 C1026 1.392 . S
C1025 C1029 1.495 . S
C1026 C1025 1.392 . S
C1026 C1027 1.385 . S
C1026 C1028 1.478 . S
C1027 H1021 0.930 . S
C1027 C1023 1.400 . S
C1027 C1026 1.385 . S
C1028 C1026 1.478 . S
C1028 C1030 1.381 . S
C1028 C1034 1.383 . S
C1029 C1025 1.495 . S
C1029 H1035 0.959 . S
C1029 H1036 0.961 . S
C1029 H1037 0.960 . S
C1030 C1028 1.381 . S
C1030 C1031 1.394 . S
C1030 H1038 0.930 . S
C1031 C1030 1.394 . S
C1031 C1032 1.383 . S
C1031 H1039 0.929 . S
C1032 C1031 1.383 . S
C1032 C1033 1.377 . S
C1033 H1017 0.930 . S
C1033 C1032 1.377 . S
C1033 C1034 1.379 . S
C1034 H1018 0.931 . S
C1034 C1028 1.383 . S
C1034 C1033 1.379 . S
H1035 C1029 0.959 . S
H1036 C1029 0.961 . S
H1037 C1029 0.960 . S
H1038 C1030 0.930 . S
H1039 C1031 0.929 . S
H1040 C1048 0.929 . S
H1041 C1050 0.930 . S
H1042 C1052 0.930 . S
H1043 C1055 0.929 1_554 S
H1044 C1058 0.930 . S
H1045 C1060 0.960 . S
H1046 C1060 0.960 . S
H1047 C1060 0.960 . S
C1048 H1040 0.929 . S
C1048 C1049 1.377 1_556 S
C1048 C1050 1.384 . S
C1049 C1048 1.377 1_554 S
C1049 C1055 1.390 1_554 S
C1050 H1041 0.930 . S
C1050 C1048 1.384 . S
C1050 C1051 1.372 . S
C1051 C1050 1.372 . S
C1051 C1052 1.400 . S
C1051 C1056 1.490 . S
C1052 H1042 0.930 . S
C1052 C1051 1.400 . S
C1052 C1055 1.386 . S
H1053 C1069 0.930 . S
H1054 C1070 0.931 . S
C1055 H1043 0.929 1_556 S
C1055 C1049 1.390 1_556 S
C1055 C1052 1.386 . S
C1056 C1051 1.490 . S
C1056 C1058 1.395 . S
C1056 C1059 1.403 . S
H1057 C1063 0.930 . S
C1058 H1044 0.930 . S
C1058 C1056 1.395 . S
C1058 C1061 1.403 . S
C1059 C1056 1.403 . S
C1059 C1060 1.524 . S
C1059 C1063 1.400 . S
C1060 H1045 0.960 . S
C1060 H1046 0.960 . S
C1060 H1047 0.960 . S
C1060 C1059 1.524 . S
C1061 C1058 1.403 . S
C1061 C1062 1.392 . S
C1061 C1065 1.495 . S
C1062 C1061 1.392 . S
C1062 C1063 1.385 . S
C1062 C1064 1.478 . S
C1063 H1057 0.930 . S
C1063 C1059 1.400 . S
C1063 C1062 1.385 . S
C1064 C1062 1.478 . S
C1064 C1066 1.381 . S
C1064 C1070 1.383 . S
C1065 C1061 1.495 . S
C1065 H1071 0.959 . S
C1065 H1072 0.961 . S
C1065 H1073 0.960 . S
C1066 C1064 1.381 . S
C1066 C1067 1.394 . S
C1066 H1074 0.930 . S
C1067 C1066 1.394 . S
C1067 C1068 1.383 . S
C1067 H1075 0.929 . S
C1068 C1067 1.383 . S
C1068 C1069 1.377 . S
C1069 H1053 0.930 . S
C1069 C1068 1.377 . S
C1069 C1070 1.379 . S
C1070 H1054 0.931 . S
C1070 C1064 1.383 . S
C1070 C1069 1.379 . S
H1071 C1065 0.959 . S
H1072 C1065 0.961 . S
H1073 C1065 0.960 . S
H1074 C1066 0.930 . S
H1075 C1067 0.929 . S
H1076 C1084 0.929 . S
H1077 C1086 0.930 . S
H1078 C1088 0.930 . S
H1079 C1091 0.929 . S
H1080 C1094 0.930 . S
H1081 C1096 0.960 . S
H1082 C1096 0.960 . S
H1083 C1096 0.960 . S
C1084 H1076 0.929 . S
C1084 C1085 1.377 . S
C1084 C1086 1.384 . S
C1085 C1084 1.377 . S
C1085 C1091 1.390 . S
C1086 H1077 0.930 . S
C1086 C1084 1.384 . S
C1086 C1087 1.372 . S
C1087 C1086 1.372 . S
C1087 C1088 1.400 . S
C1087 C1092 1.490 . S
C1088 H1078 0.930 . S
C1088 C1087 1.400 . S
C1088 C1091 1.386 . S
H1089 C1105 0.930 . S
H1090 C1106 0.931 . S
C1091 H1079 0.929 . S
C1091 C1085 1.390 . S
C1091 C1088 1.386 . S
C1092 C1087 1.490 . S
C1092 C1094 1.395 . S
C1092 C1095 1.403 . S
H1093 C1099 0.930 . S
C1094 H1080 0.930 . S
C1094 C1092 1.395 . S
C1094 C1097 1.403 . S
C1095 C1092 1.403 . S
C1095 C1096 1.524 . S
C1095 C1099 1.400 . S
C1096 H1081 0.960 . S
C1096 H1082 0.960 . S
C1096 H1083 0.960 . S
C1096 C1095 1.524 . S
C1097 C1094 1.403 . S
C1097 C1098 1.392 . S
C1097 C1101 1.495 . S
C1098 C1097 1.392 . S
C1098 C1099 1.385 . S
C1098 C1100 1.478 . S
C1099 H1093 0.930 . S
C1099 C1095 1.400 . S
C1099 C1098 1.385 . S
C1100 C1098 1.478 . S
C1100 C1102 1.381 . S
C1100 C1106 1.383 . S
C1101 C1097 1.495 . S
C1101 H1107 0.959 . S
C1101 H1108 0.961 . S
C1101 H1109 0.960 . S
C1102 C1100 1.381 . S
C1102 C1103 1.394 . S
C1102 H1110 0.930 . S
C1103 C1102 1.394 . S
C1103 C1104 1.383 1_554 S
C1103 H1111 0.929 1_554 S
C1104 C1103 1.383 1_556 S
C1104 C1105 1.377 1_556 S
C1105 H1089 0.930 . S
C1105 C1104 1.377 1_554 S
C1105 C1106 1.379 . S
C1106 H1090 0.931 . S
C1106 C1100 1.383 . S
C1106 C1105 1.379 . S
H1107 C1101 0.959 . S
H1108 C1101 0.961 . S
H1109 C1101 0.960 . S
H1110 C1102 0.930 . S
H1111 C1103 0.929 1_556 S
H1112 C1120 0.929 . S
H1113 C1122 0.930 . S
H1114 C1124 0.930 . S
H1115 C1127 0.929 . S
H1116 C1130 0.930 . S
H1117 C1132 0.960 . S
H1118 C1132 0.960 . S
H1119 C1132 0.960 . S
C1120 H1112 0.929 . S
C1120 C1121 1.377 . S
C1120 C1122 1.384 . S
C1121 C1120 1.377 . S
C1121 C1127 1.390 . S
C1122 H1113 0.930 . S
C1122 C1120 1.384 . S
C1122 C1123 1.372 . S
C1123 C1122 1.372 . S
C1123 C1124 1.400 . S
C1123 C1128 1.490 . S
C1124 H1114 0.930 . S
C1124 C1123 1.400 . S
C1124 C1127 1.386 . S
H1125 C1141 0.930 . S
H1126 C1142 0.931 . S
C1127 H1115 0.929 . S
C1127 C1121 1.390 . S
C1127 C1124 1.386 . S
C1128 C1123 1.490 . S
C1128 C1130 1.395 . S
C1128 C1131 1.403 . S
H1129 C1135 0.930 . S
C1130 H1116 0.930 . S
C1130 C1128 1.395 . S
C1130 C1133 1.403 . S
C1131 C1128 1.403 . S
C1131 C1132 1.524 . S
C1131 C1135 1.400 . S
C1132 H1117 0.960 . S
C1132 H1118 0.960 . S
C1132 H1119 0.960 . S
C1132 C1131 1.524 . S
C1133 C1130 1.403 . S
C1133 C1134 1.392 . S
C1133 C1137 1.495 . S
C1134 C1133 1.392 . S
C1134 C1135 1.385 . S
C1134 C1136 1.478 . S
C1135 H1129 0.930 . S
C1135 C1131 1.400 . S
C1135 C1134 1.385 . S
C1136 C1134 1.478 . S
C1136 C1138 1.381 . S
C1136 C1142 1.383 . S
C1137 C1133 1.495 . S
C1137 H1143 0.959 . S
C1137 H1144 0.961 . S
C1137 H1145 0.960 . S
C1138 C1136 1.381 . S
C1138 C1139 1.394 . S
C1138 H1146 0.930 . S
C1139 C1138 1.394 . S
C1139 C1140 1.383 . S
C1139 H1147 0.929 . S
C1140 C1139 1.383 . S
C1140 C1141 1.377 . S
C1141 H1125 0.930 . S
C1141 C1140 1.377 . S
C1141 C1142 1.379 . S
C1142 H1126 0.931 . S
C1142 C1136 1.383 . S
C1142 C1141 1.379 . S
H1143 C1137 0.959 . S
H1144 C1137 0.961 . S
H1145 C1137 0.960 . S
H1146 C1138 0.930 . S
H1147 C1139 0.929 . S
H1148 C1156 0.929 . S
H1149 C1158 0.930 . S
H1150 C1160 0.930 . S
H1151 C1163 0.929 . S
H1152 C1166 0.930 . S
H1153 C1168 0.960 . S
H1154 C1168 0.960 . S
H1155 C1168 0.960 . S
C1156 H1148 0.929 . S
C1156 C1157 1.377 . S
C1156 C1158 1.384 . S
C1157 C1156 1.377 . S
C1157 C1163 1.390 1_455 S
C1158 H1149 0.930 . S
C1158 C1156 1.384 . S
C1158 C1159 1.372 . S
C1159 C1158 1.372 . S
C1159 C1160 1.400 1_455 S
C1159 C1164 1.490 . S
C1160 H1150 0.930 . S
C1160 C1159 1.400 1_655 S
C1160 C1163 1.386 . S
H1161 C1177 0.930 . S
H1162 C1178 0.931 . S
C1163 H1151 0.929 . S
C1163 C1157 1.390 1_655 S
C1163 C1160 1.386 . S
C1164 C1159 1.490 . S
C1164 C1166 1.395 . S
C1164 C1167 1.403 1_455 S
H1165 C1171 0.930 . S
C1166 H1152 0.930 . S
C1166 C1164 1.395 . S
C1166 C1169 1.403 1_556 S
C1167 C1164 1.403 1_655 S
C1167 C1168 1.524 . S
C1167 C1171 1.400 1_556 S
C1168 H1153 0.960 . S
C1168 H1154 0.960 . S
C1168 H1155 0.960 . S
C1168 C1167 1.524 . S
C1169 C1166 1.403 1_554 S
C1169 C1170 1.392 . S
C1169 C1173 1.495 . S
C1170 C1169 1.392 . S
C1170 C1171 1.385 1_455 S
C1170 C1172 1.479 . S
C1171 H1165 0.930 . S
C1171 C1167 1.400 1_554 S
C1171 C1170 1.385 1_655 S
C1172 C1170 1.479 . S
C1172 C1174 1.387 . S
C1172 C1178 1.375 1_455 S
C1173 C1169 1.495 . S
C1173 H1179 0.959 . S
C1173 H1180 0.961 . S
C1173 H1181 0.960 . S
C1174 C1172 1.387 . S
C1174 C1175 1.394 . S
C1174 H1182 0.930 . S
C1175 C1174 1.394 . S
C1175 C1176 1.383 1_455 S
C1175 H1183 0.929 . S
C1176 C1175 1.383 1_655 S
C1176 C1177 1.377 . S
C1177 H1161 0.930 . S
C1177 C1176 1.377 . S
C1177 C1178 1.379 . S
C1178 H1162 0.931 . S
C1178 C1172 1.375 1_655 S
C1178 C1177 1.379 . S
H1179 C1173 0.959 . S
H1180 C1173 0.961 . S
H1181 C1173 0.960 . S
H1182 C1174 0.930 . S
H1183 C1175 0.929 . S
C329 C6 1.634 . S
C348 C129 1.602 . S
C365 C9 1.630 . S
C384 C46 1.634 . S
C401 C49 1.624 . S
C420 C86 1.615 . S
C437 C89 1.630 . S
C456 C126 1.650 . S
C473 C15 1.634 . S
C492 C218 1.644 . S
C509 C18 1.630 . S
C528 C175 1.618 . S
C545 C178 1.626 . S
C564 C95 1.632 . S
C581 C215 1.642 . S
C600 C98 1.615 . S
C617 C246 1.634 . S
C636 C209 1.602 . S
C653 C166 1.642 . S
C672 C249 1.636 . S
C689 C286 1.634 . S
C708 C169 1.604 . S
C725 C206 1.638 . S
C744 C289 1.636 . S
C761 C138 1.632 . S
C780 C255 1.624 . S
C797 C258 1.625 . S
C816 C55 1.639 . S
C833 C58 1.624 . S
C852 C295 1.645 . S
C869 C135 1.639 . S
C888 C298 1.631 . S
C905 C19 2.194 . S
C924 C10 2.203 . S
C941 C50 2.191 . S
C960 C59 2.194 . S
C977 C90 2.192 . S
C996 C99 2.195 . S
C1013 C130 2.196 . S
C1032 C139 2.188 . S
C1049 C170 2.196 . S
C1068 C179 2.196 . S
C1085 C210 2.195 . S
C1104 C219 2.181 . S
C1121 C250 2.190 . S
C1140 C259 2.184 . S
C1157 C299 2.190 . S
C1176 C290 2.180 . S
