# Generated by pormake.
# Topology sml, (6)-cn, num edge types: 1
# Building blocks:
#     Node 0, Type 0, BuildingBlock: KUMJIN_clean_sbu_0, # of connection points: 6
#     Node 1, Type 0, BuildingBlock: KUMJIN_clean_sbu_0, # of connection points: 6
#     Node 2, Type 0, BuildingBlock: KUMJIN_clean_sbu_0, # of connection points: 6
#     Node 3, Type 0, BuildingBlock: KUMJIN_clean_sbu_0, # of connection points: 6
#     Node 4, Type 0, BuildingBlock: KUMJIN_clean_sbu_0, # of connection points: 6
#     Node 5, Type 0, BuildingBlock: KUMJIN_clean_sbu_0, # of connection points: 6
#     Edge 6, Type (0, 0), BuildingBlock: MIFKUJ_clean_linker_0, # of connection points: 2
#     Edge 7, Type (0, 0), BuildingBlock: MIFKUJ_clean_linker_0, # of connection points: 2
#     Edge 8, Type (0, 0), BuildingBlock: MIFKUJ_clean_linker_0, # of connection points: 2
#     Edge 9, Type (0, 0), BuildingBlock: MIFKUJ_clean_linker_0, # of connection points: 2
#     Edge 10, Type (0, 0), BuildingBlock: MIFKUJ_clean_linker_0, # of connection points: 2
#     Edge 11, Type (0, 0), BuildingBlock: MIFKUJ_clean_linker_0, # of connection points: 2
#     Edge 12, Type (0, 0), BuildingBlock: MIFKUJ_clean_linker_0, # of connection points: 2
#     Edge 13, Type (0, 0), BuildingBlock: MIFKUJ_clean_linker_0, # of connection points: 2
#     Edge 14, Type (0, 0), BuildingBlock: MIFKUJ_clean_linker_0, # of connection points: 2
#     Edge 15, Type (0, 0), BuildingBlock: MIFKUJ_clean_linker_0, # of connection points: 2
#     Edge 16, Type (0, 0), BuildingBlock: MIFKUJ_clean_linker_0, # of connection points: 2
#     Edge 17, Type (0, 0), BuildingBlock: MIFKUJ_clean_linker_0, # of connection points: 2
#     Edge 18, Type (0, 0), BuildingBlock: MIFKUJ_clean_linker_0, # of connection points: 2
#     Edge 19, Type (0, 0), BuildingBlock: MIFKUJ_clean_linker_0, # of connection points: 2
#     Edge 20, Type (0, 0), BuildingBlock: MIFKUJ_clean_linker_0, # of connection points: 2
#     Edge 21, Type (0, 0), BuildingBlock: MIFKUJ_clean_linker_0, # of connection points: 2
#     Edge 22, Type (0, 0), BuildingBlock: MIFKUJ_clean_linker_0, # of connection points: 2
#     Edge 23, Type (0, 0), BuildingBlock: MIFKUJ_clean_linker_0, # of connection points: 2
# Relax obj value: 0.026
# Max RMSD: 0.145
# Mean RMSD: 0.145
data_MOF--net-sml--node1-KUMJIN_clean_sbu_0--edge1-MIFKUJ_clean_linker_0
_symmetry_space_group_name_H-M    P1
_symmetry_Int_Tables_number       1
_symmetry_cell_setting            triclinic
loop_
_symmetry_equiv_pos_as_xyz
'x, y, z'
_cell_length_a     44.733095
_cell_length_b     44.723473
_cell_length_c     28.882242
_cell_angle_alpha  89.713294
_cell_angle_beta   90.120482
_cell_angle_gamma 119.96501
loop_
_atom_site_label
_atom_site_type_symbol
_atom_site_fract_x
_atom_site_fract_y
_atom_site_fract_z
_atom_type_partial_charge
Eu0 Eu 0.18559 0.42922 0.96378 0.0
C1 C 0.30252 0.41152 0.05322 0.0
C2 C 0.28147 0.35046 0.04361 0.0
C3 C 0.34319 0.39093 0.0436 0.0
C4 C 0.27527 0.37819 0.04962 0.0
C5 C 0.33683 0.41824 0.05135 0.0
C6 C 0.31554 0.35709 0.03965 0.0
C7 C 0.35587 0.47796 0.06851 0.0
N8 N 0.29546 0.43721 0.0608 0.0
C9 C 0.3214 0.46993 0.07022 0.0
C10 C 0.36365 0.45208 0.05845 0.0
Eu11 Eu 0.23673 0.42243 0.06022 0.0
N12 N 0.24271 0.37276 0.05358 0.0
C13 C 0.21523 0.3399 0.05508 0.0
C14 C 0.25326 0.31688 0.04263 0.0
C15 C 0.22003 0.31156 0.04907 0.0
H16 H 0.31539 0.49002 0.07764 0.0
H17 H 0.19807 0.28565 0.04915 0.0
H18 H 0.32079 0.33617 0.03454 0.0
H19 H 0.37639 0.50408 0.07487 0.0
H20 H 0.18936 0.33528 0.0596 0.0
H21 H 0.20436 0.55953 0.96693 0.0
H22 H 0.25689 0.29488 0.03786 0.0
H23 H 0.11249 0.3534 0.95093 0.0
H24 H 0.22208 0.51556 0.96461 0.0
H25 H 0.04965 0.33085 0.94831 0.0
H26 H 0.36937 0.39561 0.04157 0.0
H27 H 0.14248 0.54177 0.96855 0.0
H28 H 0.08056 0.4938 0.96646 0.0
H29 H 0.39037 0.45832 0.05727 0.0
H30 H 0.0386 0.43178 0.9623 0.0
N31 N 0.17083 0.4731 0.96756 0.0
C32 C 0.19499 0.50735 0.9661 0.0
C33 C 0.15006 0.52225 0.96843 0.0
C34 C 0.12533 0.4871 0.96791 0.0
C35 C 0.18503 0.5324 0.96728 0.0
C36 C 0.13669 0.46281 0.96728 0.0
H37 H 0.0268 0.37086 0.95533 0.0
N38 N 0.12503 0.40551 0.96062 0.0
C39 C 0.06719 0.35821 0.95269 0.0
C40 C 0.11306 0.42796 0.96362 0.0
C41 C 0.10281 0.37108 0.95408 0.0
C42 C 0.0544 0.38087 0.95677 0.0
C43 C 0.07739 0.41626 0.96173 0.0
O44 O 0.17335 0.40604 0.89479 0.0
O45 O 0.21818 0.40773 0.9882 0.0
O46 O 0.274 0.45389 1.00224 0.0
O47 O 0.24137 0.47322 0.96199 0.0
O48 O 0.17555 0.37469 0.95071 0.0
O49 O 0.20839 0.46098 0.90218 0.0
O50 O 0.25415 0.44778 0.12739 0.0
O51 O 0.20584 0.44571 0.0353 0.0
O52 O 0.14977 0.40558 0.02467 0.0
O53 O 0.17858 0.38252 0.06566 0.0
O54 O 0.24981 0.47776 0.07222 0.0
O55 O 0.21414 0.39418 0.12447 0.0
C56 C 0.20288 0.37813 0.9706 0.0
C57 C 0.17664 0.4421 0.83248 0.0
C58 C 0.17028 0.44183 0.74814 0.0
C59 C 0.18376 0.43442 0.78805 0.0
C60 C 0.14943 0.45696 0.7539 0.0
C61 C 0.15554 0.4568 0.83719 0.0
C62 C 0.14202 0.46414 0.79804 0.0
C63 C 0.27104 0.47465 0.97187 0.0
C64 C 0.19207 0.43539 0.87342 0.0
C65 C 0.06589 0.44024 0.9638 0.0
C66 C 0.08982 0.47559 0.96648 0.0
C67 C 0.22326 0.47572 0.05162 0.0
C68 C 0.24964 0.41227 0.19092 0.0
C69 C 0.24209 0.4179 0.23626 0.0
C70 C 0.25638 0.41006 0.27492 0.0
C71 C 0.27838 0.3965 0.26702 0.0
C72 C 0.27174 0.39896 0.18407 0.0
C73 C 0.28602 0.39115 0.22199 0.0
C74 C 0.15056 0.38479 0.05674 0.0
C75 C 0.23401 0.42006 0.15115 0.0
H76 H 0.19976 0.42266 0.78478 0.0
H77 H 0.13929 0.46391 0.72427 0.0
H78 H 0.1498 0.4629 0.87102 0.0
H79 H 0.12601 0.47581 0.80188 0.0
H80 H 0.22531 0.42862 0.24124 0.0
H81 H 0.28929 0.38943 0.29565 0.0
H82 H 0.27778 0.39442 0.14947 0.0
H83 H 0.3029 0.38064 0.21649 0.0
Eu84 Eu 0.76299 0.18654 0.30131 0.0
C85 C 0.8936 0.30781 0.38927 0.0
C86 C 0.93522 0.28843 0.3843 0.0
C87 C 0.95443 0.34965 0.37869 0.0
C88 C 0.90086 0.28125 0.38868 0.0
C89 C 0.92035 0.34241 0.38547 0.0
C90 C 0.96185 0.32269 0.37808 0.0
C91 C 0.87815 0.36008 0.39936 0.0
N92 N 0.8605 0.29988 0.39617 0.0
C93 C 0.85257 0.32535 0.40311 0.0
C94 C 0.91214 0.36865 0.38985 0.0
Eu95 Eu 0.81799 0.24061 0.39766 0.0
N96 N 0.87449 0.2485 0.39469 0.0
C97 C 0.88102 0.22195 0.40032 0.0
C98 C 0.94186 0.26106 0.3876 0.0
C99 C 0.9147 0.22778 0.39654 0.0
H100 H 0.82621 0.31872 0.40991 0.0
H101 H 0.91963 0.20651 0.4 0.0
H102 H 0.98835 0.32867 0.37399 0.0
H103 H 0.87162 0.38017 0.40359 0.0
H104 H 0.8603 0.19602 0.40659 0.0
H105 H 0.64805 0.19951 0.30233 0.0
H106 H 0.96788 0.26547 0.38441 0.0
H107 H 0.76939 0.11535 0.28936 0.0
H108 H 0.71041 0.2197 0.29919 0.0
H109 H 0.73123 0.05211 0.28734 0.0
H110 H 0.97531 0.37604 0.3751 0.0
H111 H 0.60593 0.13704 0.30679 0.0
H112 H 0.59469 0.07596 0.30639 0.0
H113 H 0.93194 0.39557 0.38707 0.0
H114 H 0.61727 0.03598 0.30272 0.0
N115 N 0.70377 0.16935 0.30499 0.0
C116 C 0.6923 0.1924 0.30211 0.0
C117 C 0.63328 0.14576 0.30633 0.0
C118 C 0.64516 0.12213 0.30671 0.0
C119 C 0.65698 0.18105 0.30363 0.0
C120 C 0.68106 0.13491 0.30589 0.0
H121 H 0.66807 0.02682 0.29514 0.0
N122 N 0.72833 0.12569 0.29949 0.0
C123 C 0.72035 0.06876 0.2918 0.0
C124 C 0.6937 0.11236 0.30281 0.0
C125 C 0.74189 0.1046 0.29292 0.0
C126 C 0.68471 0.05458 0.29632 0.0
C127 C 0.67092 0.07642 0.30134 0.0
O128 O 0.77644 0.17528 0.23335 0.0
O129 O 0.81608 0.22054 0.32736 0.0
O130 O 0.82468 0.27612 0.33682 0.0
O131 O 0.77391 0.24195 0.29541 0.0
O132 O 0.8093 0.17867 0.29085 0.0
O133 O 0.75083 0.20537 0.23809 0.0
O134 O 0.80726 0.25835 0.46265 0.0
O135 O 0.76434 0.20808 0.37164 0.0
O136 O 0.75111 0.15152 0.36311 0.0
O137 O 0.80097 0.18288 0.40719 0.0
O138 O 0.77528 0.25344 0.4041 0.0
O139 O 0.82345 0.22019 0.46405 0.0
C140 C 0.83188 0.20619 0.31163 0.0
C141 C 0.74084 0.17185 0.17063 0.0
C142 C 0.73304 0.16368 0.08673 0.0
C143 C 0.75357 0.1817 0.12523 0.0
C144 C 0.69955 0.13583 0.09464 0.0
C145 C 0.70742 0.14402 0.17746 0.0
C146 C 0.68693 0.12615 0.13965 0.0
C147 C 0.80171 0.27207 0.30467 0.0
C148 C 0.76266 0.19062 0.21052 0.0
C149 C 0.63519 0.06351 0.30378 0.0
C150 C 0.62234 0.08632 0.30616 0.0
C151 C 0.75122 0.22591 0.3849 0.0
C152 C 0.83734 0.25662 0.52895 0.0
C153 C 0.82396 0.24595 0.57386 0.0
C154 C 0.84442 0.26221 0.61309 0.0
C155 C 0.87857 0.28916 0.6064 0.0
C156 C 0.87141 0.28346 0.52316 0.0
C157 C 0.89188 0.29961 0.56177 0.0
C158 C 0.77185 0.15387 0.39732 0.0
C159 C 0.81542 0.23957 0.48857 0.0
H160 H 0.77954 0.20305 0.12 0.0
H161 H 0.68285 0.12177 0.06596 0.0
H162 H 0.69714 0.13614 0.21194 0.0
H163 H 0.6611 0.10476 0.14524 0.0
H164 H 0.79749 0.22535 0.57816 0.0
H165 H 0.89519 0.30189 0.63571 0.0
H166 H 0.88213 0.29187 0.48886 0.0
H167 H 0.91821 0.32027 0.55712 0.0
Eu168 Eu 0.57889 0.76321 0.63661 0.0
C169 C 0.59065 0.89588 0.72971 0.0
C170 C 0.6514 0.93794 0.72291 0.0
C171 C 0.60911 0.95693 0.72334 0.0
C172 C 0.62446 0.90341 0.72694 0.0
C173 C 0.58255 0.92257 0.72898 0.0
C174 C 0.64349 0.9646 0.72021 0.0
C175 C 0.52294 0.87954 0.74272 0.0
N176 N 0.56574 0.86248 0.73519 0.0
C177 C 0.53234 0.85405 0.74335 0.0
C178 C 0.5481 0.91394 0.73496 0.0
Eu179 Eu 0.58286 0.82022 0.73307 0.0
N180 N 0.63109 0.87698 0.72934 0.0
C181 C 0.66434 0.88352 0.73127 0.0
C182 C 0.68547 0.94463 0.72238 0.0
C183 C 0.69196 0.91732 0.72722 0.0
H184 H 0.5128 0.82743 0.74907 0.0
H185 H 0.71823 0.92224 0.72759 0.0
H186 H 0.6638 0.99125 0.71659 0.0
H187 H 0.49632 0.87265 0.74816 0.0
H188 H 0.66983 0.86273 0.73463 0.0
H189 H 0.44863 0.65186 0.62773 0.0
H190 H 0.70689 0.97076 0.71908 0.0
H191 H 0.65502 0.76559 0.63323 0.0
H192 H 0.49288 0.71354 0.62562 0.0
H193 H 0.67743 0.72513 0.63884 0.0
H194 H 0.60339 0.97778 0.72222 0.0
H195 H 0.46587 0.60771 0.63934 0.0
H196 H 0.51342 0.59369 0.64877 0.0
H197 H 0.54079 0.93367 0.73459 0.0
H198 H 0.57558 0.61358 0.65176 0.0
N199 N 0.53475 0.70462 0.6369 0.0
C200 C 0.50078 0.69459 0.6305 0.0
C201 C 0.48543 0.63478 0.63839 0.0
C202 C 0.52045 0.64515 0.64274 0.0
C203 C 0.4756 0.65962 0.63172 0.0
C204 C 0.54485 0.68073 0.64146 0.0
H205 H 0.63689 0.66248 0.64767 0.0
N206 N 0.60251 0.72623 0.63978 0.0
C207 C 0.64992 0.71545 0.64017 0.0
C208 C 0.5798 0.69186 0.64295 0.0
C209 C 0.63717 0.73827 0.63682 0.0
C210 C 0.62695 0.6801 0.64525 0.0
C211 C 0.59139 0.66784 0.64608 0.0
O212 O 0.60593 0.776 0.57027 0.0
O213 O 0.59938 0.8169 0.66178 0.0
O214 O 0.55246 0.82655 0.67399 0.0
O215 O 0.53556 0.7761 0.63116 0.0
O216 O 0.63362 0.80827 0.62547 0.0
O217 O 0.55033 0.75312 0.57159 0.0
O218 O 0.55722 0.80816 0.80046 0.0
O219 O 0.55928 0.76686 0.7059 0.0
O220 O 0.59891 0.75002 0.70101 0.0
O221 O 0.6237 0.8033 0.73729 0.0
O222 O 0.52735 0.7781 0.7446 0.0
O223 O 0.61165 0.82522 0.79665 0.0
C224 C 0.62935 0.83168 0.64515 0.0
C225 C 0.57504 0.74151 0.50661 0.0
C226 C 0.57589 0.73281 0.42304 0.0
C227 C 0.57761 0.75354 0.46085 0.0
C228 C 0.57168 0.69995 0.43215 0.0
C229 C 0.57066 0.70864 0.51462 0.0
C230 C 0.56899 0.68802 0.47756 0.0
C231 C 0.53309 0.80366 0.64207 0.0
C232 C 0.57774 0.76372 0.54572 0.0
C233 C 0.56719 0.63244 0.64903 0.0
C234 C 0.53179 0.62112 0.64734 0.0
C235 C 0.52914 0.75422 0.72208 0.0
C236 C 0.59145 0.83803 0.86494 0.0
C237 C 0.59436 0.82591 0.90889 0.0
C238 C 0.59946 0.84598 0.94888 0.0
C239 C 0.60151 0.87833 0.94366 0.0
C240 C 0.59405 0.87046 0.86076 0.0
C241 C 0.59902 0.89045 0.89999 0.0
C242 C 0.61959 0.77196 0.73254 0.0
C243 C 0.58527 0.81648 0.82378 0.0
H244 H 0.58067 0.77886 0.45483 0.0
H245 H 0.571 0.68357 0.40422 0.0
H246 H 0.56876 0.69901 0.54944 0.0
H247 H 0.56585 0.66274 0.48406 0.0
H248 H 0.59284 0.80102 0.9117 0.0
H249 H 0.60445 0.89419 0.97343 0.0
H250 H 0.59198 0.8802 0.82726 0.0
H251 H 0.60066 0.91534 0.89659 0.0
Eu252 Eu 0.82024 0.5816 0.96712 0.0
C253 C 0.69575 0.58549 0.06034 0.0
C254 C 0.71198 0.64579 0.0559 0.0
C255 C 0.65139 0.60156 0.0537 0.0
C256 C 0.72102 0.61981 0.05909 0.0
C257 C 0.66058 0.57591 0.05861 0.0
C258 C 0.67706 0.63646 0.0523 0.0
C259 C 0.64628 0.51663 0.06997 0.0
N260 N 0.70557 0.56148 0.06523 0.0
C261 C 0.68151 0.52749 0.07181 0.0
C262 C 0.63575 0.54091 0.06282 0.0
Eu263 Eu 0.76557 0.58121 0.06431 0.0
N264 N 0.75448 0.62784 0.06219 0.0
C265 C 0.7801 0.66147 0.06571 0.0
C266 C 0.73829 0.68033 0.05707 0.0
C267 C 0.77246 0.68818 0.06266 0.0
H268 H 0.68959 0.50863 0.07699 0.0
H269 H 0.79297 0.71481 0.06433 0.0
H270 H 0.66961 0.65603 0.04926 0.0
H271 H 0.6273 0.48956 0.07396 0.0
H272 H 0.80665 0.66795 0.0696 0.0
H273 H 0.81057 0.45544 0.95796 0.0
H274 H 0.73245 0.70106 0.0545 0.0
H275 H 0.89091 0.66051 0.96326 0.0
H276 H 0.78918 0.49655 0.95694 0.0
H277 H 0.95424 0.68672 0.96789 0.0
H278 H 0.62452 0.59473 0.05183 0.0
H279 H 0.87311 0.47671 0.96845 0.0
H280 H 0.93309 0.52678 0.97751 0.0
H281 H 0.60846 0.53246 0.06152 0.0
H282 H 0.97215 0.58966 0.97996 0.0
N283 N 0.83865 0.54048 0.96785 0.0
C284 C 0.81641 0.50611 0.9616 0.0
C285 C 0.86367 0.49476 0.96829 0.0
C286 C 0.88653 0.5302 0.97261 0.0
C287 C 0.82848 0.4827 0.96224 0.0
C288 C 0.87308 0.55276 0.97175 0.0
H289 H 0.98029 0.64948 0.97595 0.0
N290 N 0.88125 0.60902 0.96947 0.0
C291 C 0.93789 0.65895 0.96931 0.0
C292 C 0.89509 0.58811 0.97252 0.0
C293 C 0.90202 0.64403 0.96653 0.0
C294 C 0.9525 0.63784 0.97395 0.0
C295 C 0.9311 0.60194 0.97503 0.0
O296 O 0.83287 0.60794 0.90014 0.0
O297 O 0.78544 0.59981 0.99349 0.0
O298 O 0.73028 0.55191 1.00394 0.0
O299 O 0.76516 0.5365 0.96167 0.0
O300 O 0.82726 0.63547 0.9567 0.0
O301 O 0.80239 0.55214 0.90288 0.0
O302 O 0.75114 0.55431 0.13093 0.0
O303 O 0.79759 0.56022 0.03645 0.0
O304 O 0.85304 0.60161 0.0311 0.0
O305 O 0.82283 0.62342 0.07032 0.0
O306 O 0.75457 0.52619 0.07398 0.0
O307 O 0.78773 0.60909 0.12873 0.0
C308 C 0.79948 0.62997 0.97742 0.0
C309 C 0.83783 0.57731 0.83715 0.0
C310 C 0.84526 0.57469 0.75354 0.0
C311 C 0.82605 0.57582 0.79156 0.0
C312 C 0.87644 0.57505 0.76229 0.0
C313 C 0.86882 0.57743 0.84483 0.0
C314 C 0.88796 0.57627 0.80758 0.0
C315 C 0.73477 0.53336 0.97178 0.0
C316 C 0.81797 0.5794 0.87633 0.0
C317 C 0.94456 0.57955 0.97774 0.0
C318 C 0.92232 0.54374 0.97642 0.0
C319 C 0.78103 0.52963 0.05162 0.0
C320 C 0.75358 0.58718 0.19599 0.0
C321 C 0.76767 0.58901 0.2402 0.0
C322 C 0.75171 0.59281 0.28013 0.0
C323 C 0.72152 0.59497 0.27455 0.0
C324 C 0.72378 0.58976 0.19141 0.0
C325 C 0.70789 0.59367 0.23056 0.0
C326 C 0.851 0.6211 0.06369 0.0
C327 C 0.76997 0.58212 0.15503 0.0
H328 H 0.80186 0.57536 0.78587 0.0
H329 H 0.89234 0.57499 0.73413 0.0
H330 H 0.87834 0.57868 0.87953 0.0
H331 H 0.91201 0.57663 0.81379 0.0
H332 H 0.79108 0.5876 0.2433 0.0
H333 H 0.70792 0.59701 0.30422 0.0
H334 H 0.71268 0.58851 0.15767 0.0
H335 H 0.68467 0.59532 0.22686 0.0
Eu336 Eu 0.23451 0.81353 0.3112 0.0
C337 C 0.10082 0.698 0.40256 0.0
C338 C 0.06456 0.72394 0.40043 0.0
C339 C 0.03857 0.66164 0.39542 0.0
C340 C 0.09752 0.72707 0.40313 0.0
C341 C 0.07131 0.66486 0.40018 0.0
C342 C 0.0352 0.69115 0.39542 0.0
C343 C 0.10836 0.64057 0.41212 0.0
N344 N 0.13275 0.702 0.40732 0.0
C345 C 0.1368 0.67397 0.41428 0.0
C346 C 0.07551 0.63597 0.40422 0.0
Eu347 Eu 0.18001 0.75914 0.40919 0.0
N348 N 0.12642 0.75834 0.40797 0.0
C349 C 0.12387 0.78734 0.41345 0.0
C350 C 0.06201 0.75376 0.40388 0.0
C351 C 0.09176 0.78552 0.41115 0.0
H352 H 0.16227 0.67752 0.42006 0.0
H353 H 0.09004 0.8087 0.41454 0.0
H354 H 0.00973 0.68828 0.39272 0.0
H355 H 0.11181 0.61843 0.41639 0.0
H356 H 0.14649 0.81223 0.41839 0.0
H357 H 0.34462 0.79198 0.31235 0.0
H358 H 0.0372 0.75246 0.40187 0.0
H359 H 0.23509 0.88742 0.29003 0.0
H360 H 0.28354 0.77579 0.30518 0.0
H361 H 0.27649 0.95027 0.28992 0.0
H362 H 0.01562 0.63643 0.39293 0.0
H363 H 0.38919 0.85305 0.32429 0.0
H364 H 0.40425 0.91517 0.32861 0.0
H365 H 0.0535 0.61008 0.40265 0.0
H366 H 0.38572 0.95843 0.32216 0.0
N367 N 0.29293 0.82695 0.31476 0.0
C368 C 0.30258 0.80255 0.3103 0.0
C369 C 0.36233 0.84608 0.32128 0.0
C370 C 0.35255 0.8713 0.32227 0.0
C371 C 0.33727 0.81161 0.31438 0.0
C372 C 0.31721 0.86079 0.31845 0.0
H373 H 0.33819 0.97179 0.30678 0.0
N374 N 0.2729 0.87389 0.30811 0.0
C375 C 0.28535 0.93223 0.29727 0.0
C376 C 0.30686 0.88508 0.31492 0.0
C377 C 0.26203 0.89671 0.2972 0.0
C378 C 0.32014 0.94427 0.30697 0.0
C379 C 0.33143 0.9206 0.31502 0.0
O380 O 0.22048 0.82587 0.24402 0.0
O381 O 0.18169 0.77947 0.33854 0.0
O382 O 0.17372 0.72282 0.34998 0.0
O383 O 0.2225 0.75787 0.30516 0.0
O384 O 0.18846 0.82174 0.30168 0.0
O385 O 0.24394 0.79385 0.2471 0.0
O386 O 0.1879 0.73617 0.47171 0.0
O387 O 0.23346 0.79221 0.38209 0.0
O388 O 0.24307 0.85102 0.36851 0.0
O389 O 0.20148 0.8167 0.42391 0.0
O390 O 0.22272 0.74635 0.4144 0.0
O391 O 0.17731 0.77817 0.4777 0.0
C392 C 0.16604 0.79416 0.32287 0.0
C393 C 0.25422 0.82788 0.18 0.0
C394 C 0.26271 0.83291 0.09602 0.0
C395 C 0.24202 0.81612 0.13502 0.0
C396 C 0.29565 0.86183 0.10299 0.0
C397 C 0.28717 0.85663 0.18603 0.0
C398 C 0.30769 0.87354 0.14766 0.0
C399 C 0.19575 0.7274 0.31622 0.0
C400 C 0.23264 0.80959 0.22032 0.0
C401 C 0.36647 0.93125 0.32145 0.0
C402 C 0.37702 0.90662 0.32512 0.0
C403 C 0.24661 0.77432 0.39544 0.0
C404 C 0.15975 0.73843 0.53975 0.0
C405 C 0.17197 0.74967 0.58488 0.0
C406 C 0.15053 0.73384 0.62362 0.0
C407 C 0.11676 0.7064 0.6162 0.0
C408 C 0.12594 0.71126 0.53328 0.0
C409 C 0.10464 0.6953 0.57138 0.0
C410 C 0.22583 0.84691 0.40735 0.0
C411 C 0.1824 0.75562 0.49984 0.0
H412 H 0.21673 0.79359 0.13053 0.0
H413 H 0.31201 0.8757 0.07384 0.0
H414 H 0.29704 0.86592 0.22032 0.0
H415 H 0.33307 0.89581 0.15254 0.0
H416 H 0.19793 0.77108 0.58967 0.0
H417 H 0.09976 0.6932 0.64509 0.0
H418 H 0.11601 0.70239 0.4989 0.0
H419 H 0.07862 0.6742 0.56616 0.0
Eu420 Eu 0.42394 0.23319 0.63395 0.0
C421 C 0.37576 0.10809 0.73166 0.0
C422 C 0.32163 0.09121 0.77022 0.0
C423 C 0.32893 0.04843 0.7282 0.0
C424 C 0.35519 0.11688 0.75691 0.0
C425 C 0.36322 0.07346 0.71838 0.0
C426 C 0.30813 0.05731 0.75412 0.0
C427 C 0.42018 0.09013 0.69048 0.0
N428 N 0.40867 0.133 0.72231 0.0
C429 C 0.43133 0.12406 0.70408 0.0
C430 C 0.38579 0.06482 0.69679 0.0
Eu431 Eu 0.42502 0.19088 0.74282 0.0
N432 N 0.36919 0.14976 0.77233 0.0
C433 C 0.35309 0.15697 0.80728 0.0
C434 C 0.30337 0.09992 0.80142 0.0
C435 C 0.31961 0.13271 0.8211 0.0
H436 H 0.45828 0.14259 0.70041 0.0
H437 H 0.30656 0.13919 0.8473 0.0
H438 H 0.28219 0.03744 0.76322 0.0
H439 H 0.43823 0.08353 0.67532 0.0
H440 H 0.36579 0.18186 0.82399 0.0
H441 H 0.55992 0.33232 0.62929 0.0
H442 H 0.27758 0.08098 0.81253 0.0
H443 H 0.35559 0.24133 0.60648 0.0
H444 H 0.5101 0.27285 0.63032 0.0
H445 H 0.34087 0.28764 0.59777 0.0
H446 H 0.31866 0.02191 0.71738 0.0
H447 H 0.54993 0.38201 0.62977 0.0
H448 H 0.50849 0.4042 0.62929 0.0
H449 H 0.3772 0.03855 0.68615 0.0
H450 H 0.44864 0.39207 0.62156 0.0
N451 N 0.47284 0.28905 0.63315 0.0
C452 C 0.50564 0.29444 0.63086 0.0
C453 C 0.52825 0.35606 0.63098 0.0
C454 C 0.49453 0.3503 0.63131 0.0
C455 C 0.53388 0.32804 0.63021 0.0
C456 C 0.46696 0.316 0.63192 0.0
H457 H 0.38597 0.34866 0.60889 0.0
N458 N 0.4078 0.27586 0.62468 0.0
C459 C 0.36692 0.29406 0.60664 0.0
C460 C 0.43335 0.30921 0.62781 0.0
C461 C 0.37528 0.26797 0.61152 0.0
C462 C 0.39242 0.32845 0.61311 0.0
C463 C 0.42633 0.33647 0.62265 0.0
O464 O 0.39525 0.21511 0.56871 0.0
O465 O 0.40653 0.18269 0.66973 0.0
O466 O 0.47247 0.20089 0.70055 0.0
O467 O 0.4584 0.21009 0.62615 0.0
O468 O 0.36899 0.18881 0.63635 0.0
O469 O 0.4506 0.23984 0.56801 0.0
O470 O 0.46127 0.18008 0.78032 0.0
O471 O 0.45302 0.23962 0.70019 0.0
O472 O 0.39355 0.24544 0.68608 0.0
O473 O 0.38438 0.20741 0.74738 0.0
O474 O 0.44309 0.24454 0.76909 0.0
O475 O 0.43389 0.20073 0.81708 0.0
C476 C 0.37513 0.16705 0.65785 0.0
C477 C 0.42397 0.24513 0.50028 0.0
C478 C 0.42449 0.24867 0.41546 0.0
C479 C 0.42311 0.23076 0.45658 0.0
C480 C 0.42702 0.28125 0.41906 0.0
C481 C 0.42672 0.27769 0.50268 0.0
C482 C 0.42815 0.29556 0.4623 0.0
C483 C 0.47655 0.20246 0.65494 0.0
C484 C 0.4227 0.22634 0.54304 0.0
C485 C 0.45354 0.37075 0.62488 0.0
C486 C 0.48762 0.37765 0.6292 0.0
C487 C 0.45729 0.26119 0.73155 0.0
C488 C 0.44688 0.16355 0.85967 0.0
C489 C 0.44711 0.17447 0.90552 0.0
C490 C 0.4408 0.15195 0.94331 0.0
C491 C 0.4341 0.11826 0.93446 0.0
C492 C 0.4397 0.12962 0.85186 0.0
C493 C 0.43343 0.10722 0.88911 0.0
C494 C 0.37899 0.23053 0.72586 0.0
C495 C 0.45414 0.18786 0.82068 0.0
H496 H 0.4211 0.20564 0.45468 0.0
H497 H 0.42876 0.29605 0.38836 0.0
H498 H 0.42801 0.28946 0.53568 0.0
H499 H 0.43037 0.32075 0.46452 0.0
H500 H 0.45263 0.20063 0.91178 0.0
H501 H 0.42881 0.10021 0.96264 0.0
H502 H 0.43893 0.12036 0.81705 0.0
H503 H 0.42794 0.08112 0.88279 0.0
H504 H 0.37859 0.24085 0.81838 0.0
H505 H 0.34706 0.26361 0.86045 0.0
H506 H 0.30223 0.27242 0.7323 0.0
H507 H 0.33401 0.24965 0.69007 0.0
H508 H 0.32146 0.32794 0.78138 0.0
H509 H 0.25587 0.20717 0.81329 0.0
H510 H 0.24718 0.15055 0.8382 0.0
H511 H 0.2832 0.1902 0.97454 0.0
H512 H 0.2927 0.24727 0.95022 0.0
H513 H 0.17385 0.31168 0.94144 0.0
H514 H 0.20207 0.28444 0.90064 0.0
H515 H 0.30027 0.37797 0.9146 0.0
H516 H 0.27204 0.40543 0.95365 0.0
H517 H 0.25047 0.26865 0.91975 0.0
H518 H 0.34893 0.3907 0.81882 0.0
H519 H 0.35441 0.44423 0.78585 0.0
H520 H 0.24412 0.39652 0.77786 0.0
H521 H 0.23796 0.34256 0.8103 0.0
C522 C 0.36153 0.24703 0.79923 0.0
C523 C 0.35851 0.2431 0.75088 0.0
C524 C 0.34358 0.2602 0.82334 0.0
C525 C 0.32176 0.26932 0.79979 0.0
C526 C 0.31887 0.2656 0.75137 0.0
C527 C 0.33711 0.25266 0.72716 0.0
C528 C 0.3025 0.28325 0.82566 0.0
C529 C 0.30594 0.31492 0.8116 0.0
C530 C 0.28169 0.26609 0.86475 0.0
C531 C 0.27525 0.23159 0.87981 0.0
C532 C 0.26211 0.20387 0.84852 0.0
C533 C 0.25703 0.1717 0.86253 0.0
C534 C 0.26469 0.1668 0.9079 0.0
C535 C 0.27731 0.19404 0.9394 0.0
C536 C 0.28252 0.22631 0.92553 0.0
C537 C 0.20152 0.32622 0.93616 0.0
C538 C 0.22075 0.36052 0.95141 0.0
C539 C 0.21765 0.31065 0.91295 0.0
C540 C 0.25329 0.32923 0.90392 0.0
C541 C 0.27268 0.3632 0.92038 0.0
C542 C 0.25653 0.37879 0.94331 0.0
C543 C 0.26993 0.31361 0.87585 0.0
C544 C 0.26601 0.28165 0.88953 0.0
C545 C 0.2897 0.33012 0.83578 0.0
C546 C 0.29302 0.36267 0.81728 0.0
C547 C 0.32585 0.39163 0.81001 0.0
C548 C 0.32907 0.42203 0.79143 0.0
C549 C 0.29964 0.42371 0.77972 0.0
C550 C 0.26689 0.39514 0.787 0.0
C551 C 0.26351 0.36467 0.80557 0.0
H552 H 0.30226 0.44707 0.76465 0.0
H553 H 0.2608 0.14188 0.91865 0.0
H554 H 0.09447 0.39354 0.06235 0.0
H555 H 0.04349 0.36241 0.11106 0.0
H556 H 0.08339 0.29921 0.16488 0.0
H557 H 0.13506 0.33056 0.11621 0.0
H558 H 0.00976 0.26284 0.13588 0.0
H559 H 0.09021 0.35937 0.23121 0.0
H560 H 0.13054 0.4216 0.24189 0.0
H561 H 0.0486 0.4431 0.21567 0.0
H562 H 0.00786 0.38103 0.20426 0.0
H563 H 0.87632 0.18183 0.3002 0.0
H564 H 0.93396 0.21182 0.26526 0.0
H565 H 0.92434 0.30233 0.24446 0.0
H566 H 0.86812 0.2732 0.282 0.0
H567 H 0.98625 0.32454 0.2602 0.0
H568 H 0.90819 0.23786 0.15648 0.0
H569 H 0.86467 0.17947 0.1311 0.0
H570 H 0.93606 0.14348 0.15655 0.0
H571 H 0.97989 0.20161 0.18267 0.0
C572 C 0.09248 0.37288 0.08422 0.0
C573 C 0.11898 0.36455 0.08523 0.0
C574 C 0.06329 0.35521 0.11225 0.0
C575 C 0.05974 0.32866 0.14184 0.0
C576 C 0.08568 0.31968 0.14233 0.0
C577 C 0.11521 0.33767 0.11458 0.0
C578 C 0.02898 0.31069 0.17245 0.0
C579 C 0.00486 0.27602 0.16373 0.0
C580 C 0.02194 0.32845 0.20733 0.0
C581 C 0.04602 0.36555 0.21668 0.0
C582 C 0.0808 0.37737 0.22767 0.0
C583 C 0.10374 0.41262 0.23382 0.0
C584 C 0.09215 0.4363 0.22936 0.0
C585 C 0.05754 0.42474 0.21911 0.0
C586 C 0.03449 0.38951 0.21292 0.0
C587 C 0.88691 0.20834 0.28882 0.0
C588 C 0.86794 0.2253 0.29452 0.0
C589 C 0.91974 0.22542 0.26842 0.0
C590 C 0.9335 0.25925 0.25091 0.0
C591 C 0.91467 0.27637 0.25756 0.0
C592 C 0.88236 0.25964 0.27917 0.0
C593 C 0.96649 0.27626 0.22378 0.0
C594 C 0.99111 0.31093 0.23292 0.0
C595 C 0.97335 0.2589 0.18786 0.0
C596 C 0.94716 0.22396 0.17203 0.0
C597 C 0.91452 0.21743 0.15694 0.0
C598 C 0.88982 0.1844 0.1424 0.0
C599 C 0.89756 0.15775 0.14235 0.0
C600 C 0.93008 0.16413 0.1567 0.0
C601 C 0.95487 0.19711 0.17136 0.0
H602 H 0.8784 0.13219 0.13108 0.0
H603 H 0.10999 0.46359 0.23387 0.0
H604 H 0.71242 0.09169 0.39013 0.0
H605 H 0.69336 0.04016 0.43691 0.0
H606 H 0.78567 0.09245 0.51955 0.0
H607 H 0.80564 0.14462 0.47163 0.0
H608 H 0.72201 0.99975 0.45112 0.0
H609 H 0.75932 0.05878 0.63397 0.0
H610 H 0.76936 0.11116 0.67548 0.0
H611 H 0.70126 0.12296 0.58176 0.0
H612 H 0.69046 0.07047 0.54018 0.0
H613 H 0.69607 0.86902 0.61612 0.0
H614 H 0.72481 0.92658 0.57995 0.0
H615 H 0.63268 0.93316 0.59828 0.0
H616 H 0.60353 0.87534 0.63226 0.0
H617 H 0.69933 0.99742 0.61964 0.0
H618 H 0.63893 0.91156 0.50124 0.0
H619 H 0.6239 0.85815 0.4587 0.0
H620 H 0.73018 0.89937 0.42086 0.0
H621 H 0.74589 0.95283 0.4638 0.0
C622 C 0.72917 0.09238 0.41761 0.0
C623 C 0.76097 0.12241 0.42637 0.0
C624 C 0.71804 0.06272 0.44461 0.0
C625 C 0.73802 0.06228 0.48176 0.0
C626 C 0.76973 0.09219 0.49111 0.0
C627 C 0.78115 0.12198 0.46359 0.0
C628 C 0.72509 0.03031 0.51033 0.0
C629 C 0.71745 0.99943 0.48805 0.0
C630 C 0.71855 0.0296 0.55845 0.0
C631 C 0.72449 0.06096 0.58359 0.0
C632 C 0.74645 0.07253 0.62231 0.0
C633 C 0.75226 0.10223 0.64585 0.0
C634 C 0.73606 0.12043 0.63115 0.0
C635 C 0.71392 0.10892 0.59299 0.0
C636 C 0.70799 0.07923 0.56938 0.0
C637 C 0.68215 0.88297 0.61294 0.0
C638 C 0.64777 0.86791 0.62809 0.0
C639 C 0.6986 0.91585 0.59246 0.0
C640 C 0.68099 0.9343 0.58689 0.0
C641 C 0.64693 0.91963 0.60286 0.0
C642 C 0.6303 0.88653 0.62244 0.0
C643 C 0.69677 0.96725 0.56033 0.0
C644 C 0.70468 0.99809 0.58291 0.0
C645 C 0.70308 0.96797 0.51227 0.0
C646 C 0.69365 0.93598 0.48619 0.0
C647 C 0.65914 0.90908 0.48421 0.0
C648 C 0.65048 0.87884 0.45996 0.0
C649 C 0.67609 0.87533 0.43723 0.0
C650 C 0.71038 0.9021 0.43857 0.0
C651 C 0.71918 0.93238 0.46284 0.0
H652 H 0.66939 0.85193 0.41848 0.0
H653 H 0.74054 0.14338 0.64943 0.0
H654 H 0.60074 0.70606 0.75776 0.0
H655 H 0.63137 0.68666 0.8091 0.0
H656 H 0.712 0.79206 0.82821 0.0
H657 H 0.68073 0.81193 0.7782 0.0
H658 H 0.72702 0.73219 0.7936 0.0
H659 H 0.67905 0.77078 0.91258 0.0
H660 H 0.63307 0.7744 0.95462 0.0
H661 H 0.5815 0.66537 0.98135 0.0
H662 H 0.62676 0.66093 0.93847 0.0
H663 H 0.82645 0.69764 0.9543 0.0
H664 H 0.79621 0.72572 0.92059 0.0
H665 H 0.69978 0.62983 0.92985 0.0
H666 H 0.72994 0.6016 0.96207 0.0
H667 H 0.69407 0.68874 0.9546 0.0
H668 H 0.73677 0.64818 0.83219 0.0
H669 H 0.78092 0.64161 0.78977 0.0
H670 H 0.83983 0.75126 0.76843 0.0
H671 H 0.79625 0.75852 0.81145 0.0
C672 C 0.62489 0.72519 0.77309 0.0
C673 C 0.63841 0.76057 0.76377 0.0
C674 C 0.64224 0.71404 0.80262 0.0
C675 C 0.67379 0.73793 0.82271 0.0
C676 C 0.68751 0.77326 0.81334 0.0
C677 C 0.66968 0.78454 0.78473 0.0
C678 C 0.6934 0.72557 0.85071 0.0
C679 C 0.72029 0.72335 0.82912 0.0
C680 C 0.68378 0.71301 0.89655 0.0
C681 C 0.65606 0.71543 0.92152 0.0
C682 C 0.6576 0.74745 0.92664 0.0
C683 C 0.63172 0.74968 0.95079 0.0
C684 C 0.60429 0.72011 0.97044 0.0
C685 C 0.60271 0.68824 0.966 0.0
C686 C 0.62846 0.68585 0.9417 0.0
C687 C 0.79874 0.68272 0.94968 0.0
C688 C 0.78051 0.64759 0.96183 0.0
C689 C 0.78149 0.69877 0.9305 0.0
C690 C 0.74568 0.67991 0.92284 0.0
C691 C 0.72732 0.64501 0.93588 0.0
C692 C 0.74464 0.62889 0.95448 0.0
C693 C 0.72792 0.69572 0.89754 0.0
C694 C 0.70114 0.69813 0.91934 0.0
C695 C 0.73732 0.70819 0.85165 0.0
C696 C 0.76348 0.70394 0.82553 0.0
C697 C 0.7593 0.67092 0.81883 0.0
C698 C 0.78419 0.66706 0.79462 0.0
C699 C 0.81321 0.69602 0.77654 0.0
C700 C 0.81736 0.72887 0.78254 0.0
C701 C 0.79257 0.73288 0.80683 0.0
H702 H 0.83244 0.69298 0.75777 0.0
H703 H 0.58437 0.72192 0.9893 0.0
H704 H 0.12682 0.72595 0.30056 0.0
H705 H 0.06972 0.69716 0.26476 0.0
H706 H 0.06636 0.79169 0.27102 0.0
H707 H 0.12403 0.8209 0.30666 0.0
H708 H 0.99847 0.72067 0.29325 0.0
H709 H 0.09053 0.78383 0.17904 0.0
H710 H 0.14614 0.7986 0.14264 0.0
H711 H 0.10745 0.69189 0.11026 0.0
H712 H 0.05186 0.67642 0.14725 0.0
H713 H 0.86674 0.6758 0.12178 0.0
H714 H 0.91783 0.70632 0.17133 0.0
H715 H 0.9539 0.63801 0.12584 0.0
H716 H 0.90412 0.60863 0.07544 0.0
H717 H 0.00516 0.6983 0.12646 0.0
H718 H 0.91746 0.63169 0.23906 0.0
H719 H 0.86038 0.61039 0.27535 0.0
H720 H 0.88807 0.71404 0.31167 0.0
H721 H 0.94538 0.73592 0.27576 0.0
C722 C 0.11363 0.74043 0.2955 0.0
C723 C 0.12965 0.77557 0.30714 0.0
C724 C 0.08097 0.72391 0.27498 0.0
C725 C 0.06373 0.74224 0.26551 0.0
C726 C 0.07907 0.77701 0.27858 0.0
C727 C 0.11202 0.79368 0.2986 0.0
C728 C 0.03212 0.7263 0.23651 0.0
C729 C 0.99985 0.71617 0.25664 0.0
C730 C 0.03387 0.71949 0.18915 0.0
C731 C 0.06715 0.72894 0.16629 0.0
C732 C 0.094 0.76349 0.16453 0.0
C733 C 0.1255 0.772 0.14373 0.0
C734 C 0.13033 0.74619 0.12421 0.0
C735 C 0.10368 0.71185 0.12541 0.0
C736 C 0.07218 0.7032 0.14627 0.0
C737 C 0.88563 0.66738 0.1224 0.0
C738 C 0.8814 0.63992 0.09439 0.0
C739 C 0.91474 0.68468 0.151 0.0
C740 C 0.93973 0.67431 0.1529 0.0
C741 C 0.93526 0.64675 0.12503 0.0
C742 C 0.90662 0.6299 0.09609 0.0
C743 C 0.97102 0.69234 0.18286 0.0
C744 C 0.00346 0.70288 0.16296 0.0
C745 C 0.96919 0.69863 0.23059 0.0
C746 C 0.93556 0.68546 0.25443 0.0
C747 C 0.91135 0.64992 0.25484 0.0
C748 C 0.87897 0.63775 0.27528 0.0
C749 C 0.87051 0.66088 0.29547 0.0
C750 C 0.89459 0.69618 0.29577 0.0
C751 C 0.92712 0.70847 0.27567 0.0
H752 H 0.84541 0.65142 0.3112 0.0
H753 H 0.15466 0.7528 0.10801 0.0
H754 H 0.40541 0.13395 0.61807 0.0
H755 H 0.37732 0.07746 0.58141 0.0
H756 H 0.27765 0.0652 0.61409 0.0
H757 H 0.30612 0.12099 0.65422 0.0
H758 H 0.27197 0.00573 0.61989 0.0
H759 H 0.31866 0.09353 0.50344 0.0
H760 H 0.36352 0.14575 0.46393 0.0
H761 H 0.42339 0.09625 0.4415 0.0
H762 H 0.37905 0.04386 0.48135 0.0
H763 H 0.23542 0.90926 0.37913 0.0
H764 H 0.25675 0.96188 0.42492 0.0
H765 H 0.26364 0.90757 0.5449 0.0
H766 H 0.24054 0.85454 0.49939 0.0
H767 H 0.31273 0.0011 0.46193 0.0
H768 H 0.26064 0.94384 0.64482 0.0
H769 H 0.21002 0.89359 0.67958 0.0
H770 H 0.14936 0.88558 0.55992 0.0
H771 H 0.19945 0.93602 0.52472 0.0
C772 C 0.37751 0.11868 0.61884 0.0
C773 C 0.3579 0.13133 0.64023 0.0
C774 C 0.3614 0.08662 0.59698 0.0
C775 C 0.32524 0.06717 0.59387 0.0
C776 C 0.30556 0.07956 0.61594 0.0
C777 C 0.32177 0.11144 0.63877 0.0
C778 C 0.30823 0.03483 0.56589 0.0
C779 C 0.28083 0.00474 0.58531 0.0
C780 C 0.31907 0.03352 0.52019 0.0
C781 C 0.34562 0.06485 0.49566 0.0
C782 C 0.34146 0.09384 0.49025 0.0
C783 C 0.3668 0.12347 0.46779 0.0
C784 C 0.39631 0.12434 0.45026 0.0
C785 C 0.40052 0.09554 0.45509 0.0
C786 C 0.37527 0.06585 0.47755 0.0
C787 C 0.24126 0.90861 0.41536 0.0
C788 C 0.2363 0.87794 0.43579 0.0
C789 C 0.25351 0.9387 0.44161 0.0
C790 C 0.26165 0.93896 0.48876 0.0
C791 C 0.25675 0.90812 0.50908 0.0
C792 C 0.24366 0.87779 0.48304 0.0
C793 C 0.27644 0.97175 0.51589 0.0
C794 C 0.30361 0.00198 0.49638 0.0
C795 C 0.26439 0.97347 0.56068 0.0
C796 C 0.23393 0.9435 0.58196 0.0
C797 C 0.23646 0.93145 0.62603 0.0
C798 C 0.20787 0.90291 0.64578 0.0
C799 C 0.17653 0.88633 0.6219 0.0
C800 C 0.17368 0.89836 0.57831 0.0
C801 C 0.20217 0.9269 0.55842 0.0
H802 H 0.15445 0.86421 0.63722 0.0
H803 H 0.41589 0.14727 0.43284 0.0
H804 H 0.23102 0.44734 0.71638 0.0
H805 H 0.24551 0.4403 0.63736 0.0
H806 H 0.14351 0.41463 0.59223 0.0
H807 H 0.12823 0.42008 0.67149 0.0
H808 H 0.1635 0.3747 0.55003 0.0
H809 H 0.21406 0.4968 0.57857 0.0
H810 H 0.25003 0.54973 0.62338 0.0
H811 H 0.33932 0.53997 0.59802 0.0
H812 H 0.30375 0.48664 0.55368 0.0
H813 H 0.19457 0.39986 0.30945 0.0
H814 H 0.18067 0.40595 0.3893 0.0
H815 H 0.2847 0.43646 0.43077 0.0
H816 H 0.29937 0.43235 0.35063 0.0
H817 H 0.26447 0.47382 0.47557 0.0
H818 H 0.21537 0.35253 0.44792 0.0
H819 H 0.1799 0.29762 0.40687 0.0
H820 H 0.08899 0.30445 0.4327 0.0
H821 H 0.12402 0.35965 0.4734 0.0
C822 C 0.21142 0.43974 0.68996 0.0
C823 C 0.17859 0.43498 0.70055 0.0
C824 C 0.2199 0.43601 0.64452 0.0
C825 C 0.19588 0.42771 0.6085 0.0
C826 C 0.16264 0.42142 0.61925 0.0
C827 C 0.15408 0.42495 0.66466 0.0
C828 C 0.20553 0.42654 0.55943 0.0
C829 C 0.18533 0.39653 0.53359 0.0
C830 C 0.2345 0.45471 0.53817 0.0
C831 C 0.25619 0.48758 0.56311 0.0
C832 C 0.24135 0.5059 0.58265 0.0
C833 C 0.26166 0.53595 0.60801 0.0
C834 C 0.29692 0.54815 0.61365 0.0
C835 C 0.31199 0.53046 0.59367 0.0
C836 C 0.29178 0.50033 0.56838 0.0
C837 C 0.21473 0.40844 0.3353 0.0
C838 C 0.24807 0.41526 0.32335 0.0
C839 C 0.20659 0.4115 0.38122 0.0
C840 C 0.23141 0.42096 0.41647 0.0
C841 C 0.26497 0.42885 0.40442 0.0
C842 C 0.27321 0.4261 0.3585 0.0
C843 C 0.2223 0.42197 0.46594 0.0
C844 C 0.24262 0.45197 0.49191 0.0
C845 C 0.19353 0.3937 0.48745 0.0
C846 C 0.17237 0.36038 0.46332 0.0
C847 C 0.18785 0.34243 0.44458 0.0
C848 C 0.16782 0.31124 0.42141 0.0
C849 C 0.13223 0.2976 0.41708 0.0
C850 C 0.11657 0.31507 0.43603 0.0
C851 C 0.1365 0.34629 0.45919 0.0
H852 H 0.11677 0.27346 0.39912 0.0
H853 H 0.31257 0.57135 0.63345 0.0
H854 H 0.7702 0.22892 0.04958 0.0
H855 H 0.78843 0.24485 0.96899 0.0
H856 H 0.74262 0.13722 0.93357 0.0
H857 H 0.72523 0.1212 1.01414 0.0
H858 H 0.80274 0.17306 0.89121 0.0
H859 H 0.70263 0.18293 0.91055 0.0
H860 H 0.66489 0.20243 0.9447 0.0
H861 H 0.73808 0.3072 0.90842 0.0
H862 H 0.77699 0.28858 0.87562 0.0
H863 H 0.80427 0.1963 0.64674 0.0
H864 H 0.78354 0.17859 0.72612 0.0
H865 H 0.83311 0.28539 0.76721 0.0
H866 H 0.85302 0.30325 0.68776 0.0
H867 H 0.76934 0.24836 0.80559 0.0
H868 H 0.8706 0.2362 0.78999 0.0
H869 H 0.90527 0.21416 0.75266 0.0
H870 H 0.82449 0.10999 0.7776 0.0
H871 H 0.7892 0.13145 0.81467 0.0
C872 C 0.76441 0.20866 0.02477 0.0
C873 C 0.746 0.17375 0.03834 0.0
C874 C 0.77456 0.21779 0.97857 0.0
C875 C 0.76646 0.19222 0.94492 0.0
C876 C 0.74904 0.15743 0.95871 0.0
C877 C 0.73886 0.1483 1.0048 0.0
C878 C 0.77572 0.20159 0.89529 0.0
C879 C 0.79507 0.18923 0.87244 0.0
C880 C 0.76599 0.2229 0.87063 0.0
C881 C 0.74299 0.23437 0.89119 0.0
C882 C 0.71099 0.21022 0.91051 0.0
C883 C 0.68939 0.22113 0.92967 0.0
C884 C 0.69925 0.2561 0.92911 0.0
C885 C 0.7307 0.2802 0.90931 0.0
C886 C 0.75257 0.26948 0.8905 0.0
C887 C 0.81035 0.21602 0.67253 0.0
C888 C 0.8305 0.25121 0.66089 0.0
C889 C 0.79875 0.20585 0.71803 0.0
C890 C 0.80715 0.23066 0.75288 0.0
C891 C 0.82642 0.26577 0.74104 0.0
C892 C 0.83804 0.27594 0.69564 0.0
C893 C 0.79665 0.22019 0.80191 0.0
C894 C 0.77701 0.23228 0.82455 0.0
C895 C 0.80573 0.19833 0.82625 0.0
C896 C 0.82718 0.18542 0.80478 0.0
C897 C 0.86019 0.2086 0.78733 0.0
C898 C 0.87995 0.19621 0.76624 0.0
C899 C 0.86707 0.16069 0.76269 0.0
C900 C 0.83444 0.13749 0.78036 0.0
C901 C 0.81457 0.14975 0.80148 0.0
H902 H 0.88239 0.15115 0.7463 0.0
H903 H 0.68243 0.2645 0.94377 0.0
H904 H 0.61785 0.79825 0.38847 0.0
H905 H 0.62404 0.81764 0.30789 0.0
H906 H 0.54755 0.71495 0.2662 0.0
H907 H 0.54067 0.69552 0.3466 0.0
H908 H 0.60518 0.74272 0.21007 0.0
H909 H 0.52717 0.7776 0.27256 0.0
H910 H 0.50974 0.80733 0.32887 0.0
H911 H 0.59808 0.90447 0.29222 0.0
H912 H 0.61633 0.87524 0.23615 0.0
H913 H 0.56459 0.77937 0.9834 0.0
H914 H 0.56492 0.76024 0.06279 0.0
H915 H 0.63897 0.86456 0.10139 0.0
H916 H 0.63989 0.88374 0.02201 0.0
H917 H 0.5845 0.83702 0.15971 0.0
H918 H 0.6629 0.80588 0.09753 0.0
H919 H 0.68764 0.77881 0.04834 0.0
H920 H 0.60558 0.6783 0.08715 0.0
H921 H 0.57989 0.70475 0.13597 0.0
C922 C 0.60199 0.77987 0.36232 0.0
C923 C 0.57885 0.74525 0.37423 0.0
C924 C 0.60568 0.79098 0.31617 0.0
C925 C 0.58623 0.76775 0.28094 0.0
C926 C 0.56302 0.73328 0.2927 0.0
C927 C 0.55922 0.7222 0.33878 0.0
C928 C 0.59005 0.77921 0.23175 0.0
C929 C 0.60012 0.76295 0.1988 0.0
C930 C 0.58467 0.80647 0.21748 0.0
C931 C 0.57328 0.82417 0.25044 0.0
C932 C 0.54299 0.80527 0.27669 0.0
C933 C 0.53295 0.82204 0.30856 0.0
C934 C 0.55283 0.85775 0.31421 0.0
C935 C 0.58272 0.8768 0.28785 0.0
C936 C 0.59291 0.86015 0.25598 0.0
C937 C 0.58155 0.7982 1.00841 0.0
C938 C 0.60181 0.83331 0.99611 0.0
C939 C 0.5816 0.78719 0.05396 0.0
C940 C 0.60178 0.81101 0.08822 0.0
C941 C 0.62288 0.84576 0.07572 0.0
C942 C 0.62316 0.85672 0.03023 0.0
C943 C 0.5993 0.80025 0.13762 0.0
C944 C 0.58944 0.81666 0.17071 0.0
C945 C 0.60531 0.7734 0.15206 0.0
C946 C 0.61925 0.75736 0.12014 0.0
C947 C 0.64977 0.77802 0.09503 0.0
C948 C 0.66412 0.76278 0.06746 0.0
C949 C 0.64836 0.72687 0.06496 0.0
C950 C 0.61789 0.70612 0.08941 0.0
C951 C 0.60338 0.72123 0.11696 0.0
H952 H 0.65963 0.71513 0.0438 0.0
H953 H 0.54504 0.87068 0.33893 0.0
H954 H 0.81334 0.6084 0.71657 0.0
H955 H 0.7969 0.60906 0.63595 0.0
H956 H 0.83509 0.54091 0.59904 0.0
H957 H 0.85058 0.53912 0.67971 0.0
H958 H 0.85912 0.59647 0.54036 0.0
H959 H 0.75138 0.51007 0.60041 0.0
H960 H 0.70156 0.48338 0.65341 0.0
H961 H 0.67619 0.5615 0.61846 0.0
H962 H 0.72627 0.58906 0.56579 0.0
H963 H 0.78261 0.55672 0.31273 0.0
H964 H 0.80081 0.55451 0.3919 0.0
H965 H 0.76934 0.62678 0.43495 0.0
H966 H 0.7524 0.63038 0.35566 0.0
H967 H 0.74138 0.56642 0.48965 0.0
H968 H 0.85579 0.65708 0.44004 0.0
H969 H 0.90724 0.68387 0.3897 0.0
H970 H 0.91734 0.59365 0.4027 0.0
H971 H 0.8666 0.56683 0.45452 0.0
C972 C 0.81767 0.59299 0.69158 0.0
C973 C 0.83348 0.57382 0.70486 0.0
C974 C 0.80839 0.59354 0.64538 0.0
C975 C 0.81477 0.57503 0.61142 0.0
C976 C 0.83013 0.55557 0.62457 0.0
C977 C 0.83913 0.55475 0.67077 0.0
C978 C 0.80645 0.57689 0.56198 0.0
C979 C 0.83324 0.58939 0.52923 0.0
C980 C 0.77281 0.5681 0.54743 0.0
C981 C 0.74285 0.55188 0.57949 0.0
C982 C 0.73541 0.5218 0.60438 0.0
C983 C 0.70706 0.50644 0.63428 0.0
C984 C 0.68574 0.52074 0.63935 0.0
C985 C 0.69275 0.55046 0.61453 0.0
C986 C 0.72112 0.56596 0.58463 0.0
C987 C 0.78024 0.57281 0.33865 0.0
C988 C 0.76557 0.59344 0.32755 0.0
C989 C 0.79057 0.57137 0.38406 0.0
C990 C 0.78627 0.59035 0.41939 0.0
C991 C 0.7726 0.61168 0.4083 0.0
C992 C 0.76268 0.61348 0.36289 0.0
C993 C 0.79414 0.58649 0.46836 0.0
C994 C 0.7672 0.57343 0.50094 0.0
C995 C 0.82751 0.59441 0.48272 0.0
C996 C 0.8573 0.60987 0.45065 0.0
C997 C 0.8689 0.64291 0.4319 0.0
C998 C 0.89801 0.65815 0.40333 0.0
C999 C 0.91532 0.64033 0.39253 0.0
C1000 C 0.90383 0.60738 0.4109 0.0
C1001 C 0.87507 0.59226 0.44019 0.0
H1002 H 0.93772 0.65211 0.37012 0.0
H1003 H 0.66375 0.50876 0.66245 0.0
H1004 H 0.21445 0.75347 0.66049 0.0
H1005 H 0.23382 0.77071 0.74022 0.0
H1006 H 0.13417 0.75725 0.77558 0.0
H1007 H 0.11509 0.74127 0.69571 0.0
H1008 H 0.18366 0.81402 0.81464 0.0
H1009 H 0.15681 0.696 0.80373 0.0
H1010 H 0.16048 0.64716 0.77084 0.0
H1011 H 0.26907 0.69875 0.80006 0.0
H1012 H 0.26613 0.74814 0.83259 0.0
H1013 H 0.19821 0.81077 0.05961 0.0
H1014 H 0.17904 0.7932 0.97981 0.0
H1015 H 0.27998 0.8103 0.94408 0.0
H1016 H 0.29903 0.827 0.02391 0.0
H1017 H 0.23003 0.75169 0.90534 0.0
H1018 H 0.2567 0.86964 0.91628 0.0
H1019 H 0.25292 0.91842 0.94916 0.0
H1020 H 0.14433 0.86665 0.91992 0.0
H1021 H 0.14738 0.81731 0.88742 0.0
C1022 C 0.19678 0.75459 0.68507 0.0
C1023 C 0.16306 0.74566 0.67167 0.0
C1024 C 0.20779 0.76412 0.73082 0.0
C1025 C 0.18527 0.76474 0.76423 0.0
C1026 C 0.15197 0.75677 0.75061 0.0
C1027 C 0.14098 0.74731 0.70494 0.0
C1028 C 0.19617 0.77335 0.81346 0.0
C1029 C 0.19338 0.80007 0.8346 0.0
C1030 C 0.20952 0.75567 0.83942 0.0
C1031 C 0.21131 0.72591 0.82018 0.0
C1032 C 0.18152 0.69704 0.80284 0.0
C1033 C 0.18346 0.66924 0.78431 0.0
C1034 C 0.21501 0.66989 0.78325 0.0
C1035 C 0.24466 0.6983 0.80085 0.0
C1036 C 0.24287 0.72619 0.81937 0.0
C1037 C 0.2162 0.81037 0.03492 0.0
C1038 C 0.25026 0.82057 0.04813 0.0
C1039 C 0.20529 0.80061 0.98918 0.0
C1040 C 0.22822 0.80089 0.95571 0.0
C1041 C 0.26187 0.81004 0.96916 0.0
C1042 C 0.27281 0.81987 0.01478 0.0
C1043 C 0.21743 0.79228 0.90648 0.0
C1044 C 0.22027 0.76559 0.88535 0.0
C1045 C 0.20408 0.80995 0.88053 0.0
C1046 C 0.20221 0.83964 0.89986 0.0
C1047 C 0.23197 0.86854 0.91719 0.0
C1048 C 0.22997 0.89631 0.9357 0.0
C1049 C 0.19839 0.89559 0.93674 0.0
C1050 C 0.16876 0.86714 0.91915 0.0
C1051 C 0.17061 0.83928 0.90065 0.0
H1052 H 0.19689 0.91712 0.95108 0.0
H1053 H 0.21646 0.64834 0.76888 0.0
H1054 H 0.38897 0.24951 0.33867 0.0
H1055 H 0.39189 0.23104 0.26031 0.0
H1056 H 0.46094 0.19612 0.30726 0.0
H1057 H 0.45876 0.21542 0.38598 0.0
H1058 H 0.48441 0.23345 0.22821 0.0
H1059 H 0.37796 0.1385 0.27932 0.0
H1060 H 0.31987 0.10929 0.31413 0.0
H1061 H 0.28374 0.15089 0.20776 0.0
H1062 H 0.34179 0.18082 0.17267 0.0
H1063 H 0.47211 0.14249 0.01902 0.0
H1064 H 0.46949 0.15776 0.09963 0.0
H1065 H 0.40654 0.20138 0.05864 0.0
H1066 H 0.4091 0.18614 0.97775 0.0
H1067 H 0.38027 0.15755 0.13561 0.0
H1068 H 0.48806 0.25387 0.08634 0.0
H1069 H 0.54641 0.28266 0.05229 0.0
H1070 H 0.57999 0.23684 0.15611 0.0
H1071 H 0.52166 0.20737 0.19042 0.0
C1072 C 0.4048 0.23789 0.33245 0.0
C1073 C 0.42382 0.23418 0.3687 0.0
C1074 C 0.40622 0.22705 0.28758 0.0
C1075 C 0.4265 0.21198 0.27771 0.0
C1076 C 0.4451 0.20766 0.31394 0.0
C1077 C 0.44359 0.21843 0.35903 0.0
C1078 C 0.42902 0.2019 0.22926 0.0
C1079 C 0.46165 0.21635 0.20826 0.0
C1080 C 0.39933 0.1802 0.20271 0.0
C1081 C 0.36433 0.16216 0.22359 0.0
C1082 C 0.35771 0.14166 0.26355 0.0
C1083 C 0.32477 0.12493 0.2833 0.0
C1084 C 0.29815 0.12829 0.26322 0.0
C1085 C 0.3044 0.14834 0.22329 0.0
C1086 C 0.33731 0.16517 0.20343 0.0
C1087 C 0.45777 0.15541 0.02715 0.0
C1088 C 0.4408 0.1631 0.99194 0.0
C1089 C 0.45643 0.16427 0.07323 0.0
C1090 C 0.43789 0.18082 0.08528 0.0
C1091 C 0.42101 0.18864 0.0502 0.0
C1092 C 0.4227 0.18015 1.00395 0.0
C1093 C 0.4356 0.1893 0.13457 0.0
C1094 C 0.403 0.17452 0.15568 0.0
C1095 C 0.46532 0.21052 0.16129 0.0
C1096 C 0.50038 0.2281 0.14063 0.0
C1097 C 0.50779 0.24965 0.10164 0.0
C1098 C 0.54088 0.26616 0.08235 0.0
C1099 C 0.56686 0.2615 0.10193 0.0
C1100 C 0.55982 0.24038 0.14092 0.0
C1101 C 0.52675 0.22379 0.16033 0.0
H1102 H 0.59247 0.27431 0.08697 0.0
H1103 H 0.27266 0.11531 0.27856 0.0
H1104 H 0.16017 0.45616 0.09005 0.0
H1105 H 0.1459 0.49303 0.13642 0.0
H1106 H 0.24183 0.58225 0.09479 0.0
H1107 H 0.25696 0.54503 0.05131 0.0
H1108 H 0.23835 0.57969 0.18346 0.0
H1109 H 0.15059 0.5758 0.06598 0.0
H1110 H 0.09846 0.54317 0.01795 0.0
H1111 H 0.04588 0.476 0.13285 0.0
H1112 H 0.09716 0.50947 0.18214 0.0
H1113 H 0.23828 0.72709 0.24894 0.0
H1114 H 0.23321 0.67854 0.20575 0.0
H1115 H 0.13948 0.60986 0.27898 0.0
H1116 H 0.14354 0.65915 0.32157 0.0
H1117 H 0.13445 0.59244 0.18792 0.0
H1118 H 0.21383 0.61241 0.30878 0.0
H1119 H 0.26335 0.64685 0.36012 0.0
H1120 H 0.33205 0.67856 0.24355 0.0
H1121 H 0.28289 0.64478 0.19136 0.0
C1122 C 0.17752 0.4838 0.08953 0.0
C1123 C 0.20956 0.49792 0.06688 0.0
C1124 C 0.16933 0.50497 0.11604 0.0
C1125 C 0.19274 0.54064 0.11931 0.0
C1126 C 0.22342 0.55485 0.09334 0.0
C1127 C 0.23199 0.53366 0.06813 0.0
C1128 C 0.18816 0.56282 0.15379 0.0
C1129 C 0.21573 0.58268 0.18394 0.0
C1130 C 0.15791 0.56529 0.15705 0.0
C1131 C 0.12763 0.54477 0.12737 0.0
C1132 C 0.1279 0.554 0.08083 0.0
C1133 C 0.09849 0.53548 0.0535 0.0
C1134 C 0.06904 0.50722 0.0721 0.0
C1135 C 0.06873 0.4978 0.11839 0.0
C1136 C 0.0978 0.51675 0.14617 0.0
C1137 C 0.21643 0.70181 0.25617 0.0
C1138 C 0.19168 0.69712 0.28977 0.0
C1139 C 0.21367 0.67391 0.23137 0.0
C1140 C 0.18644 0.64036 0.23985 0.0
C1141 C 0.16096 0.63548 0.27221 0.0
C1142 C 0.16353 0.66365 0.29693 0.0
C1143 C 0.18561 0.61085 0.21504 0.0
C1144 C 0.15698 0.58929 0.1875 0.0
C1145 C 0.21477 0.60633 0.21471 0.0
C1146 C 0.2446 0.62614 0.2461 0.0
C1147 C 0.23948 0.62684 0.29405 0.0
C1148 C 0.26749 0.64626 0.32331 0.0
C1149 C 0.30082 0.66491 0.3051 0.0
C1150 C 0.30622 0.66409 0.2576 0.0
C1151 C 0.27829 0.64477 0.22817 0.0
H1152 H 0.32247 0.67996 0.32781 0.0
H1153 H 0.04642 0.49275 0.05073 0.0
H1154 H 0.7125 0.16676 0.43451 0.0
H1155 H 0.66306 0.15466 0.48333 0.0
H1156 H 0.66095 0.24232 0.42343 0.0
H1157 H 0.71217 0.25593 0.37793 0.0
H1158 H 0.65865 0.24837 0.50733 0.0
H1159 H 0.58867 0.14864 0.40968 0.0
H1160 H 0.57303 0.09424 0.36954 0.0
H1161 H 0.58073 0.04915 0.49735 0.0
H1162 H 0.59504 0.10292 0.53865 0.0
H1163 H 0.47099 0.17247 0.57206 0.0
H1164 H 0.51519 0.16701 0.53011 0.0
H1165 H 0.58434 0.21037 0.64627 0.0
H1166 H 0.53967 0.21588 0.68885 0.0
H1167 H 0.55394 0.13602 0.54093 0.0
H1168 H 0.66251 0.26917 0.60041 0.0
H1169 H 0.66878 0.32345 0.63135 0.0
H1170 H 0.57608 0.30406 0.56119 0.0
H1171 H 0.56956 0.25005 0.52948 0.0
C1172 C 0.70063 0.18263 0.43072 0.0
C1173 C 0.71572 0.21199 0.40205 0.0
C1174 C 0.67228 0.17575 0.45872 0.0
C1175 C 0.65794 0.19754 0.45742 0.0
C1176 C 0.67162 0.2253 0.42585 0.0
C1177 C 0.70059 0.23285 0.39927 0.0
C1178 C 0.63119 0.19387 0.4916 0.0
C1179 C 0.63586 0.22366 0.51448 0.0
C1180 C 0.60129 0.16185 0.50171 0.0
C1181 C 0.59326 0.12981 0.47705 0.0
C1182 C 0.58718 0.12715 0.42913 0.0
C1183 C 0.57849 0.09643 0.4062 0.0
C1184 C 0.57642 0.06842 0.43067 0.0
C1185 C 0.58249 0.07091 0.47837 0.0
C1186 C 0.59058 0.10138 0.50164 0.0
C1187 C 0.49547 0.18045 0.58901 0.0
C1188 C 0.50216 0.19512 0.63346 0.0
C1189 C 0.52059 0.17698 0.5651 0.0
C1190 C 0.55317 0.18849 0.58482 0.0
C1191 C 0.55937 0.20145 0.63032 0.0
C1192 C 0.53392 0.20456 0.65463 0.0
C1193 C 0.58137 0.19048 0.55543 0.0
C1194 C 0.57707 0.16049 0.5339 0.0
C1195 C 0.61101 0.22249 0.54513 0.0
C1196 C 0.61536 0.25542 0.56311 0.0
C1197 C 0.64358 0.27661 0.59151 0.0
C1198 C 0.64715 0.30729 0.60919 0.0
C1199 C 0.62275 0.31708 0.5984 0.0
C1200 C 0.59486 0.29637 0.5697 0.0
C1201 C 0.59122 0.26573 0.5519 0.0
H1202 H 0.62548 0.34075 0.61213 0.0
H1203 H 0.56989 0.04474 0.41274 0.0
H1204 H 0.2809 0.53456 0.93377 0.0
H1205 H 0.32816 0.57475 0.88452 0.0
H1206 H 0.37842 0.5145 0.90207 0.0
H1207 H 0.3311 0.47419 0.9529 0.0
H1208 H 0.42491 0.58522 0.90185 0.0
H1209 H 0.32889 0.5048 0.81025 0.0
H1210 H 0.26771 0.4736 0.78697 0.0
H1211 H 0.27459 0.56883 0.74416 0.0
H1212 H 0.33514 0.60093 0.76969 0.0
H1213 H 0.54081 0.70015 0.73697 0.0
H1214 H 0.49872 0.64234 0.76472 0.0
H1215 H 0.41928 0.67032 0.76082 0.0
H1216 H 0.46053 0.72663 0.72885 0.0
H1217 H 0.39073 0.60491 0.74599 0.0
H1218 H 0.47278 0.68316 0.86257 0.0
H1219 H 0.53451 0.72209 0.87956 0.0
H1220 H 0.55286 0.63675 0.87152 0.0
H1221 H 0.49121 0.59735 0.85411 0.0
C1222 C 0.30209 0.52989 0.9276 0.0
C1223 C 0.302 0.50089 0.94674 0.0
C1224 C 0.32912 0.55292 0.89929 0.0
C1225 C 0.35641 0.54717 0.88855 0.0
C1226 C 0.35745 0.51926 0.90954 0.0
C1227 C 0.33044 0.49629 0.93856 0.0
C1228 C 0.38274 0.56971 0.85386 0.0
C1229 C 0.41748 0.58898 0.86749 0.0
C1230 C 0.37307 0.57498 0.80898 0.0
C1231 C 0.33674 0.55537 0.79221 0.0
C1232 C 0.31735 0.51918 0.79624 0.0
C1233 C 0.28271 0.50132 0.78272 0.0
C1234 C 0.26735 0.51921 0.76389 0.0
C1235 C 0.28653 0.55501 0.75874 0.0
C1236 C 0.32098 0.57307 0.77297 0.0
C1237 C 0.51404 0.6933 0.73999 0.0
C1238 C 0.50373 0.71758 0.73001 0.0
C1239 C 0.49005 0.66044 0.75663 0.0
C1240 C 0.45592 0.65218 0.76631 0.0
C1241 C 0.44535 0.67588 0.75383 0.0
C1242 C 0.469 0.70819 0.73582 0.0
C1243 C 0.43231 0.62142 0.79481 0.0
C1244 C 0.39813 0.60051 0.78003 0.0
C1245 C 0.44215 0.61521 0.83894 0.0
C1246 C 0.47754 0.63741 0.85692 0.0
C1247 C 0.4899 0.67263 0.86529 0.0
C1248 C 0.52487 0.6948 0.8746 0.0
C1249 C 0.54758 0.68191 0.87609 0.0
C1250 C 0.5352 0.64665 0.87004 0.0
C1251 C 0.50023 0.62437 0.86063 0.0
H1252 H 0.57483 0.69931 0.88144 0.0
H1253 H 0.24058 0.50539 0.75335 0.0
H1254 H 0.86029 0.33596 0.29645 0.0
H1255 H 0.86846 0.38411 0.24658 0.0
H1256 H 0.76286 0.32441 0.20067 0.0
H1257 H 0.75458 0.27657 0.2497 0.0
H1258 H 0.80533 0.35281 0.12878 0.0
H1259 H 0.78991 0.39059 0.2799 0.0
H1260 H 0.80531 0.40675 0.36164 0.0
H1261 H 0.90563 0.48791 0.32042 0.0
H1262 H 0.891 0.47185 0.23843 0.0
H1263 H 0.7442 0.46042 0.05091 0.0
H1264 H 0.76066 0.42039 0.08367 0.0
H1265 H 0.86354 0.50499 0.10848 0.0
H1266 H 0.84668 0.54533 0.07607 0.0
H1267 H 0.83722 0.46946 0.18555 0.0
H1268 H 0.85372 0.43289 0.03554 0.0
H1269 H 0.84136 0.41396 0.95401 0.0
H1270 H 0.74125 0.33141 0.99302 0.0
H1271 H 0.75337 0.3493 0.07479 0.0
C1272 C 0.83873 0.3333 0.27613 0.0
C1273 C 0.80677 0.30236 0.27716 0.0
C1274 C 0.84346 0.36081 0.24756 0.0
C1275 C 0.81626 0.35789 0.2198 0.0
C1276 C 0.78432 0.32722 0.22144 0.0
C1277 C 0.77961 0.29985 0.2497 0.0
C1278 C 0.82053 0.38614 0.18817 0.0
C1279 C 0.81223 0.37831 0.14127 0.0
C1280 C 0.83091 0.41988 0.20389 0.0
C1281 C 0.83952 0.42974 0.25311 0.0
C1282 C 0.81535 0.4117 0.2883 0.0
C1283 C 0.82393 0.42086 0.33467 0.0
C1284 C 0.85647 0.44826 0.34623 0.0
C1285 C 0.88047 0.46664 0.31142 0.0
C1286 C 0.87205 0.45752 0.265 0.0
C1287 C 0.77066 0.47028 0.06191 0.0
C1288 C 0.79428 0.50582 0.06034 0.0
C1289 C 0.78017 0.44735 0.08043 0.0
C1290 C 0.81351 0.45946 0.09824 0.0
C1291 C 0.83774 0.49492 0.09471 0.0
C1292 C 0.82821 0.51796 0.07585 0.0
C1293 C 0.82077 0.43572 0.12633 0.0
C1294 C 0.83116 0.44429 0.1727 0.0
C1295 C 0.81241 0.40261 0.11021 0.0
C1296 C 0.80429 0.3927 0.06102 0.0
C1297 C 0.82898 0.4109 0.02656 0.0
C1298 C 0.82214 0.40019 0.98044 0.0
C1299 C 0.79048 0.37172 0.96832 0.0
C1300 C 0.76572 0.35356 1.00239 0.0
C1301 C 0.77265 0.3638 0.04866 0.0
H1302 H 0.78524 0.36373 0.93253 0.0
H1303 H 0.86307 0.45531 0.38214 0.0
H1304 H 0.27871 0.73753 0.40507 0.0
H1305 H 0.33326 0.75484 0.44455 0.0
H1306 H 0.35027 0.85804 0.45989 0.0
H1307 H 0.29502 0.84057 0.42058 0.0
H1308 H 0.41395 0.84751 0.43919 0.0
H1309 H 0.3215 0.82068 0.54587 0.0
H1310 H 0.26136 0.78651 0.573 0.0
H1311 H 0.27245 0.69684 0.58556 0.0
H1312 H 0.33252 0.73035 0.55758 0.0
H1313 H 0.52987 0.8631 0.62921 0.0
H1314 H 0.4858 0.86928 0.58574 0.0
H1315 H 0.43169 0.76013 0.55742 0.0
H1316 H 0.47536 0.75384 0.59966 0.0
H1317 H 0.38887 0.78586 0.59009 0.0
H1318 H 0.47796 0.81079 0.4753 0.0
H1319 H 0.53712 0.84329 0.44401 0.0
H1320 H 0.53245 0.93686 0.44711 0.0
H1321 H 0.47333 0.90491 0.47885 0.0
C1322 C 0.2945 0.76415 0.41579 0.0
C1323 C 0.28278 0.78773 0.40969 0.0
C1324 C 0.32566 0.77402 0.43821 0.0
C1325 C 0.34565 0.80763 0.45536 0.0
C1326 C 0.33526 0.83203 0.44666 0.0
C1327 C 0.30378 0.82206 0.42423 0.0
C1328 C 0.37432 0.81495 0.48767 0.0
C1329 C 0.40864 0.83485 0.47274 0.0
C1330 C 0.36726 0.79809 0.53119 0.0
C1331 C 0.33146 0.77799 0.54931 0.0
C1332 C 0.31105 0.79362 0.55411 0.0
C1333 C 0.27697 0.77437 0.56966 0.0
C1334 C 0.26306 0.7395 0.58093 0.0
C1335 C 0.28326 0.72385 0.5768 0.0
C1336 C 0.31734 0.74297 0.56114 0.0
C1337 C 0.50848 0.84045 0.61383 0.0
C1338 C 0.50621 0.80798 0.61779 0.0
C1339 C 0.48344 0.84405 0.58889 0.0
C1340 C 0.45553 0.81515 0.56826 0.0
C1341 C 0.45298 0.78276 0.57304 0.0
C1342 C 0.47812 0.77925 0.59714 0.0
C1343 C 0.42864 0.81796 0.54144 0.0
C1344 C 0.39444 0.79956 0.5573 0.0
C1345 C 0.43595 0.8364 0.49906 0.0
C1346 C 0.47144 0.85557 0.48003 0.0
C1347 C 0.48968 0.83835 0.46973 0.0
C1348 C 0.52316 0.85664 0.45181 0.0
C1349 C 0.53859 0.89214 0.44378 0.0
C1350 C 0.5205 0.90938 0.45347 0.0
C1351 C 0.487 0.89119 0.47137 0.0
H1352 H 0.56451 0.90625 0.4299 0.0
H1353 H 0.23665 0.72464 0.5929 0.0
H1354 H 0.67219 0.52988 0.9592 0.0
H1355 H 0.62436 0.48928 0.91016 0.0
H1356 H 0.68124 0.43776 0.87629 0.0
H1357 H 0.72919 0.4786 0.92375 0.0
H1358 H 0.65519 0.44696 0.80117 0.0
H1359 H 0.61116 0.40426 0.95439 0.0
H1360 H 0.59513 0.40974 0.03426 0.0
H1361 H 0.52157 0.43664 0.98234 0.0
H1362 H 0.53756 0.43183 0.90211 0.0
H1363 H 0.52496 0.28003 0.7298 0.0
H1364 H 0.5728 0.33386 0.75952 0.0
H1365 H 0.5039 0.37426 0.7778 0.0
H1366 H 0.45586 0.31992 0.74869 0.0
H1367 H 0.53452 0.3766 0.85599 0.0
H1368 H 0.58688 0.4293 0.70414 0.0
H1369 H 0.61035 0.4324 0.62575 0.0
H1370 H 0.66846 0.38644 0.67656 0.0
H1371 H 0.64627 0.38425 0.75548 0.0
C1372 C 0.67431 0.50969 0.94158 0.0
C1373 C 0.70453 0.50753 0.9453 0.0
C1374 C 0.64694 0.48646 0.91357 0.0
C1375 C 0.64906 0.46027 0.88956 0.0
C1376 C 0.67901 0.45782 0.89409 0.0
C1377 C 0.70642 0.4812 0.92145 0.0
C1378 C 0.62066 0.43563 0.85889 0.0
C1379 C 0.62884 0.4314 0.81338 0.0
C1380 C 0.58603 0.41598 0.87409 0.0
C1381 C 0.57581 0.41804 0.92227 0.0
C1382 C 0.59169 0.41153 0.96001 0.0
C1383 C 0.58262 0.4145 1.00534 0.0
C1384 C 0.55743 0.42364 1.01337 0.0
C1385 C 0.54113 0.42963 0.97607 0.0
C1386 C 0.55017 0.42677 0.93066 0.0
C1387 C 0.52046 0.30105 0.73824 0.0
C1388 C 0.48703 0.29634 0.73581 0.0
C1389 C 0.54784 0.3319 0.75519 0.0
C1390 C 0.54223 0.35849 0.77055 0.0
C1391 C 0.50904 0.35433 0.76591 0.0
C1392 C 0.48164 0.32341 0.74906 0.0
C1393 C 0.56917 0.38753 0.79834 0.0
C1394 C 0.56074 0.3925 0.84352 0.0
C1395 C 0.60368 0.40775 0.78307 0.0
C1396 C 0.61444 0.40601 0.73531 0.0
C1397 C 0.60434 0.41949 0.69838 0.0
C1398 C 0.61769 0.42142 0.65401 0.0
C1399 C 0.64058 0.4093 0.64609 0.0
C1400 C 0.65055 0.39562 0.68266 0.0
C1401 C 0.63779 0.39424 0.72723 0.0
H1402 H 0.65076 0.4107 0.61169 0.0
H1403 H 0.55048 0.42599 0.04848 0.0
loop_
_geom_bond_atom_site_label_1
_geom_bond_atom_site_label_2
_geom_bond_distance
_geom_bond_site_symmetry_2
_ccdc_geom_bond_type
Eu0 N31 2.657 . S
Eu0 N38 2.609 . S
Eu0 O44 2.558 . S
Eu0 O45 2.612 . S
Eu0 O47 2.339 . S
Eu0 O48 2.563 . S
Eu0 O49 2.419 . S
Eu0 O51 2.380 1_556 S
Eu0 O52 2.432 1_556 S
Eu0 C64 2.848 . S
C1 C4 1.429 . S
C1 C5 1.411 . S
C1 N8 1.377 . S
C2 C4 1.420 . S
C2 C6 1.423 . S
C2 C14 1.392 . S
C3 C5 1.420 . S
C3 C6 1.351 . S
C3 H26 0.931 . S
C4 C1 1.429 . S
C4 C2 1.420 . S
C4 N12 1.362 . S
C5 C1 1.411 . S
C5 C3 1.420 . S
C5 C10 1.395 . S
C6 C2 1.423 . S
C6 C3 1.351 . S
C6 H18 0.930 . S
C7 C9 1.400 . S
C7 C10 1.386 . S
C7 H19 0.930 . S
N8 C1 1.377 . S
N8 C9 1.321 . S
N8 Eu11 2.609 . S
C9 C7 1.400 . S
C9 N8 1.321 . S
C9 H16 0.930 . S
C10 C5 1.395 . S
C10 C7 1.386 . S
C10 H29 0.930 . S
Eu11 N8 2.609 . S
Eu11 N12 2.657 . S
Eu11 O45 2.380 1_554 S
Eu11 O46 2.432 . S
Eu11 O50 2.558 . S
Eu11 O51 2.612 . S
Eu11 O53 2.339 . S
Eu11 O54 2.563 . S
Eu11 O55 2.419 . S
Eu11 C75 2.848 . S
N12 C4 1.362 . S
N12 Eu11 2.657 . S
N12 C13 1.334 . S
C13 N12 1.334 . S
C13 C15 1.413 . S
C13 H20 0.929 . S
C14 C2 1.392 . S
C14 C15 1.367 . S
C14 H22 0.930 . S
C15 C13 1.413 . S
C15 C14 1.367 . S
C15 H17 0.930 . S
H16 C9 0.930 . S
H17 C15 0.930 . S
H18 C6 0.930 . S
H19 C7 0.930 . S
H20 C13 0.929 . S
H21 C35 0.930 . S
H22 C14 0.930 . S
H23 C41 0.930 . S
H24 C32 0.929 . S
H25 C39 0.930 . S
H26 C3 0.931 . S
H27 C33 0.930 . S
H28 C66 0.930 . S
H29 C10 0.930 . S
H30 C65 0.931 . S
N31 Eu0 2.657 . S
N31 C32 1.334 . S
N31 C36 1.362 . S
C32 H24 0.929 . S
C32 N31 1.334 . S
C32 C35 1.413 . S
C33 H27 0.930 . S
C33 C34 1.392 . S
C33 C35 1.367 . S
C34 C33 1.392 . S
C34 C36 1.420 . S
C34 C66 1.423 . S
C35 H21 0.930 . S
C35 C32 1.413 . S
C35 C33 1.367 . S
C36 N31 1.362 . S
C36 C34 1.420 . S
C36 C40 1.429 . S
H37 C42 0.930 . S
N38 Eu0 2.609 . S
N38 C40 1.377 . S
N38 C41 1.321 . S
C39 H25 0.930 . S
C39 C41 1.400 . S
C39 C42 1.386 . S
C40 C36 1.429 . S
C40 N38 1.377 . S
C40 C43 1.411 . S
C41 H23 0.930 . S
C41 N38 1.321 . S
C41 C39 1.400 . S
C42 H37 0.930 . S
C42 C39 1.386 . S
C42 C43 1.395 . S
C43 C40 1.411 . S
C43 C42 1.395 . S
C43 C65 1.420 . S
O44 Eu0 2.558 . S
O44 C64 1.257 . S
O45 Eu0 2.612 . S
O45 Eu11 2.380 1_556 S
O45 C56 1.276 . S
O46 Eu11 2.432 . S
O46 C63 1.264 1_554 S
O47 Eu0 2.339 . S
O47 C63 1.254 . S
O48 Eu0 2.563 . S
O48 C56 1.235 . S
O49 Eu0 2.419 . S
O49 C64 1.249 . S
O50 Eu11 2.558 . S
O50 C75 1.257 . S
O51 Eu0 2.380 1_554 S
O51 Eu11 2.612 . S
O51 C67 1.276 . S
O52 Eu0 2.432 1_554 S
O52 C74 1.264 . S
O53 Eu11 2.339 . S
O53 C74 1.254 . S
O54 Eu11 2.563 . S
O54 C67 1.235 . S
O55 Eu11 2.419 . S
O55 C75 1.249 . S
C56 O45 1.276 . S
C56 O48 1.235 . S
C57 C59 1.393 . S
C57 C61 1.395 . S
C57 C64 1.492 . S
C58 C59 1.392 . S
C58 C60 1.386 . S
C59 C57 1.393 . S
C59 C58 1.392 . S
C59 H76 0.930 . S
C60 C58 1.386 . S
C60 C62 1.395 . S
C60 H77 0.930 . S
C61 C57 1.395 . S
C61 C62 1.379 . S
C61 H78 0.930 . S
C62 C60 1.395 . S
C62 C61 1.379 . S
C62 H79 0.930 . S
C63 O46 1.264 1_556 S
C63 O47 1.254 . S
C64 Eu0 2.848 . S
C64 O44 1.257 . S
C64 O49 1.249 . S
C64 C57 1.492 . S
C65 H30 0.931 . S
C65 C43 1.420 . S
C65 C66 1.351 . S
C66 H28 0.930 . S
C66 C34 1.423 . S
C66 C65 1.351 . S
C67 O51 1.276 . S
C67 O54 1.235 . S
C68 C69 1.393 . S
C68 C72 1.395 . S
C68 C75 1.492 . S
C69 C68 1.393 . S
C69 C70 1.392 . S
C69 H80 0.930 . S
C70 C69 1.392 . S
C70 C71 1.386 . S
C71 C70 1.386 . S
C71 C73 1.395 . S
C71 H81 0.930 . S
C72 C68 1.395 . S
C72 C73 1.379 . S
C72 H82 0.930 . S
C73 C71 1.395 . S
C73 C72 1.379 . S
C73 H83 0.930 . S
C74 O52 1.264 . S
C74 O53 1.254 . S
C75 Eu11 2.848 . S
C75 O50 1.257 . S
C75 O55 1.249 . S
C75 C68 1.492 . S
H76 C59 0.930 . S
H77 C60 0.930 . S
H78 C61 0.930 . S
H79 C62 0.930 . S
H80 C69 0.930 . S
H81 C71 0.930 . S
H82 C72 0.930 . S
H83 C73 0.930 . S
Eu84 N115 2.657 . S
Eu84 N122 2.609 . S
Eu84 O128 2.558 . S
Eu84 O129 2.612 . S
Eu84 O131 2.339 . S
Eu84 O132 2.563 . S
Eu84 O133 2.419 . S
Eu84 O135 2.380 . S
Eu84 O136 2.432 . S
Eu84 C148 2.848 . S
C85 C88 1.429 . S
C85 C89 1.411 . S
C85 N92 1.377 . S
C86 C88 1.420 . S
C86 C90 1.423 . S
C86 C98 1.392 . S
C87 C89 1.420 . S
C87 C90 1.351 . S
C87 H110 0.931 . S
C88 C85 1.429 . S
C88 C86 1.420 . S
C88 N96 1.362 . S
C89 C85 1.411 . S
C89 C87 1.420 . S
C89 C94 1.395 . S
C90 C86 1.423 . S
C90 C87 1.351 . S
C90 H102 0.930 . S
C91 C93 1.400 . S
C91 C94 1.386 . S
C91 H103 0.930 . S
N92 C85 1.377 . S
N92 C93 1.321 . S
N92 Eu95 2.609 . S
C93 C91 1.400 . S
C93 N92 1.321 . S
C93 H100 0.930 . S
C94 C89 1.395 . S
C94 C91 1.386 . S
C94 H113 0.930 . S
Eu95 N92 2.609 . S
Eu95 N96 2.657 . S
Eu95 O129 2.380 . S
Eu95 O130 2.432 . S
Eu95 O134 2.558 . S
Eu95 O135 2.612 . S
Eu95 O137 2.339 . S
Eu95 O138 2.563 . S
Eu95 O139 2.419 . S
Eu95 C159 2.848 . S
N96 C88 1.362 . S
N96 Eu95 2.657 . S
N96 C97 1.334 . S
C97 N96 1.334 . S
C97 C99 1.413 . S
C97 H104 0.929 . S
C98 C86 1.392 . S
C98 C99 1.367 . S
C98 H106 0.930 . S
C99 C97 1.413 . S
C99 C98 1.367 . S
C99 H101 0.930 . S
H100 C93 0.930 . S
H101 C99 0.930 . S
H102 C90 0.930 . S
H103 C91 0.930 . S
H104 C97 0.929 . S
H105 C119 0.930 . S
H106 C98 0.930 . S
H107 C125 0.930 . S
H108 C116 0.929 . S
H109 C123 0.930 . S
H110 C87 0.931 . S
H111 C117 0.930 . S
H112 C150 0.930 . S
H113 C94 0.930 . S
H114 C149 0.931 . S
N115 Eu84 2.657 . S
N115 C116 1.334 . S
N115 C120 1.362 . S
C116 H108 0.929 . S
C116 N115 1.334 . S
C116 C119 1.413 . S
C117 H111 0.930 . S
C117 C118 1.392 . S
C117 C119 1.367 . S
C118 C117 1.392 . S
C118 C120 1.420 . S
C118 C150 1.423 . S
C119 H105 0.930 . S
C119 C116 1.413 . S
C119 C117 1.367 . S
C120 N115 1.362 . S
C120 C118 1.420 . S
C120 C124 1.429 . S
H121 C126 0.930 . S
N122 Eu84 2.609 . S
N122 C124 1.377 . S
N122 C125 1.321 . S
C123 H109 0.930 . S
C123 C125 1.400 . S
C123 C126 1.386 . S
C124 C120 1.429 . S
C124 N122 1.377 . S
C124 C127 1.411 . S
C125 H107 0.930 . S
C125 N122 1.321 . S
C125 C123 1.400 . S
C126 H121 0.930 . S
C126 C123 1.386 . S
C126 C127 1.395 . S
C127 C124 1.411 . S
C127 C126 1.395 . S
C127 C149 1.420 . S
O128 Eu84 2.558 . S
O128 C148 1.257 . S
O129 Eu84 2.612 . S
O129 Eu95 2.380 . S
O129 C140 1.276 . S
O130 Eu95 2.432 . S
O130 C147 1.264 . S
O131 Eu84 2.339 . S
O131 C147 1.254 . S
O132 Eu84 2.563 . S
O132 C140 1.235 . S
O133 Eu84 2.419 . S
O133 C148 1.249 . S
O134 Eu95 2.558 . S
O134 C159 1.257 . S
O135 Eu84 2.380 . S
O135 Eu95 2.612 . S
O135 C151 1.276 . S
O136 Eu84 2.432 . S
O136 C158 1.264 . S
O137 Eu95 2.339 . S
O137 C158 1.254 . S
O138 Eu95 2.563 . S
O138 C151 1.235 . S
O139 Eu95 2.419 . S
O139 C159 1.249 . S
C140 O129 1.276 . S
C140 O132 1.235 . S
C141 C143 1.393 . S
C141 C145 1.395 . S
C141 C148 1.492 . S
C142 C143 1.392 . S
C142 C144 1.386 . S
C143 C141 1.393 . S
C143 C142 1.392 . S
C143 H160 0.930 . S
C144 C142 1.386 . S
C144 C146 1.395 . S
C144 H161 0.930 . S
C145 C141 1.395 . S
C145 C146 1.379 . S
C145 H162 0.930 . S
C146 C144 1.395 . S
C146 C145 1.379 . S
C146 H163 0.930 . S
C147 O130 1.264 . S
C147 O131 1.254 . S
C148 Eu84 2.848 . S
C148 O128 1.257 . S
C148 O133 1.249 . S
C148 C141 1.492 . S
C149 H114 0.931 . S
C149 C127 1.420 . S
C149 C150 1.351 . S
C150 H112 0.930 . S
C150 C118 1.423 . S
C150 C149 1.351 . S
C151 O135 1.276 . S
C151 O138 1.235 . S
C152 C153 1.393 . S
C152 C156 1.395 . S
C152 C159 1.492 . S
C153 C152 1.393 . S
C153 C154 1.392 . S
C153 H164 0.930 . S
C154 C153 1.392 . S
C154 C155 1.386 . S
C155 C154 1.386 . S
C155 C157 1.395 . S
C155 H165 0.930 . S
C156 C152 1.395 . S
C156 C157 1.379 . S
C156 H166 0.930 . S
C157 C155 1.395 . S
C157 C156 1.379 . S
C157 H167 0.930 . S
C158 O136 1.264 . S
C158 O137 1.254 . S
C159 Eu95 2.848 . S
C159 O134 1.257 . S
C159 O139 1.249 . S
C159 C152 1.492 . S
H160 C143 0.930 . S
H161 C144 0.930 . S
H162 C145 0.930 . S
H163 C146 0.930 . S
H164 C153 0.930 . S
H165 C155 0.930 . S
H166 C156 0.930 . S
H167 C157 0.930 . S
Eu168 N199 2.657 . S
Eu168 N206 2.609 . S
Eu168 O212 2.558 . S
Eu168 O213 2.612 . S
Eu168 O215 2.339 . S
Eu168 O216 2.563 . S
Eu168 O217 2.419 . S
Eu168 O219 2.380 . S
Eu168 O220 2.432 . S
Eu168 C232 2.848 . S
C169 C172 1.429 . S
C169 C173 1.411 . S
C169 N176 1.377 . S
C170 C172 1.420 . S
C170 C174 1.423 . S
C170 C182 1.392 . S
C171 C173 1.420 . S
C171 C174 1.351 . S
C171 H194 0.931 . S
C172 C169 1.429 . S
C172 C170 1.420 . S
C172 N180 1.362 . S
C173 C169 1.411 . S
C173 C171 1.420 . S
C173 C178 1.395 . S
C174 C170 1.423 . S
C174 C171 1.351 . S
C174 H186 0.930 . S
C175 C177 1.400 . S
C175 C178 1.386 . S
C175 H187 0.930 . S
N176 C169 1.377 . S
N176 C177 1.321 . S
N176 Eu179 2.609 . S
C177 C175 1.400 . S
C177 N176 1.321 . S
C177 H184 0.930 . S
C178 C173 1.395 . S
C178 C175 1.386 . S
C178 H197 0.930 . S
Eu179 N176 2.609 . S
Eu179 N180 2.657 . S
Eu179 O213 2.380 . S
Eu179 O214 2.432 . S
Eu179 O218 2.558 . S
Eu179 O219 2.612 . S
Eu179 O221 2.339 . S
Eu179 O222 2.563 . S
Eu179 O223 2.419 . S
Eu179 C243 2.848 . S
N180 C172 1.362 . S
N180 Eu179 2.657 . S
N180 C181 1.334 . S
C181 N180 1.334 . S
C181 C183 1.413 . S
C181 H188 0.929 . S
C182 C170 1.392 . S
C182 C183 1.367 . S
C182 H190 0.930 . S
C183 C181 1.413 . S
C183 C182 1.367 . S
C183 H185 0.930 . S
H184 C177 0.930 . S
H185 C183 0.930 . S
H186 C174 0.930 . S
H187 C175 0.930 . S
H188 C181 0.929 . S
H189 C203 0.930 . S
H190 C182 0.930 . S
H191 C209 0.930 . S
H192 C200 0.929 . S
H193 C207 0.930 . S
H194 C171 0.931 . S
H195 C201 0.930 . S
H196 C234 0.930 . S
H197 C178 0.930 . S
H198 C233 0.931 . S
N199 Eu168 2.657 . S
N199 C200 1.334 . S
N199 C204 1.362 . S
C200 H192 0.929 . S
C200 N199 1.334 . S
C200 C203 1.413 . S
C201 H195 0.930 . S
C201 C202 1.392 . S
C201 C203 1.367 . S
C202 C201 1.392 . S
C202 C204 1.420 . S
C202 C234 1.423 . S
C203 H189 0.930 . S
C203 C200 1.413 . S
C203 C201 1.367 . S
C204 N199 1.362 . S
C204 C202 1.420 . S
C204 C208 1.429 . S
H205 C210 0.930 . S
N206 Eu168 2.609 . S
N206 C208 1.377 . S
N206 C209 1.321 . S
C207 H193 0.930 . S
C207 C209 1.400 . S
C207 C210 1.386 . S
C208 C204 1.429 . S
C208 N206 1.377 . S
C208 C211 1.411 . S
C209 H191 0.930 . S
C209 N206 1.321 . S
C209 C207 1.400 . S
C210 H205 0.930 . S
C210 C207 1.386 . S
C210 C211 1.395 . S
C211 C208 1.411 . S
C211 C210 1.395 . S
C211 C233 1.420 . S
O212 Eu168 2.558 . S
O212 C232 1.257 . S
O213 Eu168 2.612 . S
O213 Eu179 2.380 . S
O213 C224 1.276 . S
O214 Eu179 2.432 . S
O214 C231 1.264 . S
O215 Eu168 2.339 . S
O215 C231 1.254 . S
O216 Eu168 2.563 . S
O216 C224 1.235 . S
O217 Eu168 2.419 . S
O217 C232 1.249 . S
O218 Eu179 2.558 . S
O218 C243 1.257 . S
O219 Eu168 2.380 . S
O219 Eu179 2.612 . S
O219 C235 1.276 . S
O220 Eu168 2.432 . S
O220 C242 1.264 . S
O221 Eu179 2.339 . S
O221 C242 1.254 . S
O222 Eu179 2.563 . S
O222 C235 1.235 . S
O223 Eu179 2.419 . S
O223 C243 1.249 . S
C224 O213 1.276 . S
C224 O216 1.235 . S
C225 C227 1.393 . S
C225 C229 1.395 . S
C225 C232 1.492 . S
C226 C227 1.392 . S
C226 C228 1.386 . S
C227 C225 1.393 . S
C227 C226 1.392 . S
C227 H244 0.930 . S
C228 C226 1.386 . S
C228 C230 1.395 . S
C228 H245 0.930 . S
C229 C225 1.395 . S
C229 C230 1.379 . S
C229 H246 0.930 . S
C230 C228 1.395 . S
C230 C229 1.379 . S
C230 H247 0.930 . S
C231 O214 1.264 . S
C231 O215 1.254 . S
C232 Eu168 2.848 . S
C232 O212 1.257 . S
C232 O217 1.249 . S
C232 C225 1.492 . S
C233 H198 0.931 . S
C233 C211 1.420 . S
C233 C234 1.351 . S
C234 H196 0.930 . S
C234 C202 1.423 . S
C234 C233 1.351 . S
C235 O219 1.276 . S
C235 O222 1.235 . S
C236 C237 1.393 . S
C236 C240 1.395 . S
C236 C243 1.492 . S
C237 C236 1.393 . S
C237 C238 1.392 . S
C237 H248 0.930 . S
C238 C237 1.392 . S
C238 C239 1.386 . S
C239 C238 1.386 . S
C239 C241 1.395 . S
C239 H249 0.930 . S
C240 C236 1.395 . S
C240 C241 1.379 . S
C240 H250 0.930 . S
C241 C239 1.395 . S
C241 C240 1.379 . S
C241 H251 0.930 . S
C242 O220 1.264 . S
C242 O221 1.254 . S
C243 Eu179 2.848 . S
C243 O218 1.257 . S
C243 O223 1.249 . S
C243 C236 1.492 . S
H244 C227 0.930 . S
H245 C228 0.930 . S
H246 C229 0.930 . S
H247 C230 0.930 . S
H248 C237 0.930 . S
H249 C239 0.930 . S
H250 C240 0.930 . S
H251 C241 0.930 . S
Eu252 N283 2.657 . S
Eu252 N290 2.609 . S
Eu252 O296 2.558 . S
Eu252 O297 2.612 . S
Eu252 O299 2.339 . S
Eu252 O300 2.563 . S
Eu252 O301 2.419 . S
Eu252 O303 2.380 1_556 S
Eu252 O304 2.432 1_556 S
Eu252 C316 2.848 . S
C253 C256 1.429 . S
C253 C257 1.411 . S
C253 N260 1.377 . S
C254 C256 1.420 . S
C254 C258 1.423 . S
C254 C266 1.392 . S
C255 C257 1.420 . S
C255 C258 1.351 . S
C255 H278 0.931 . S
C256 C253 1.429 . S
C256 C254 1.420 . S
C256 N264 1.362 . S
C257 C253 1.411 . S
C257 C255 1.420 . S
C257 C262 1.395 . S
C258 C254 1.423 . S
C258 C255 1.351 . S
C258 H270 0.930 . S
C259 C261 1.400 . S
C259 C262 1.386 . S
C259 H271 0.930 . S
N260 C253 1.377 . S
N260 C261 1.321 . S
N260 Eu263 2.609 . S
C261 C259 1.400 . S
C261 N260 1.321 . S
C261 H268 0.930 . S
C262 C257 1.395 . S
C262 C259 1.386 . S
C262 H281 0.930 . S
Eu263 N260 2.609 . S
Eu263 N264 2.657 . S
Eu263 O297 2.380 1_554 S
Eu263 O298 2.432 . S
Eu263 O302 2.558 . S
Eu263 O303 2.612 . S
Eu263 O305 2.339 . S
Eu263 O306 2.563 . S
Eu263 O307 2.419 . S
Eu263 C327 2.848 . S
N264 C256 1.362 . S
N264 Eu263 2.657 . S
N264 C265 1.334 . S
C265 N264 1.334 . S
C265 C267 1.413 . S
C265 H272 0.929 . S
C266 C254 1.392 . S
C266 C267 1.367 . S
C266 H274 0.930 . S
C267 C265 1.413 . S
C267 C266 1.367 . S
C267 H269 0.930 . S
H268 C261 0.930 . S
H269 C267 0.930 . S
H270 C258 0.930 . S
H271 C259 0.930 . S
H272 C265 0.929 . S
H273 C287 0.930 . S
H274 C266 0.930 . S
H275 C293 0.930 . S
H276 C284 0.929 . S
H277 C291 0.930 . S
H278 C255 0.931 . S
H279 C285 0.930 . S
H280 C318 0.930 . S
H281 C262 0.930 . S
H282 C317 0.931 . S
N283 Eu252 2.657 . S
N283 C284 1.334 . S
N283 C288 1.362 . S
C284 H276 0.929 . S
C284 N283 1.334 . S
C284 C287 1.413 . S
C285 H279 0.930 . S
C285 C286 1.392 . S
C285 C287 1.367 . S
C286 C285 1.392 . S
C286 C288 1.420 . S
C286 C318 1.423 . S
C287 H273 0.930 . S
C287 C284 1.413 . S
C287 C285 1.367 . S
C288 N283 1.362 . S
C288 C286 1.420 . S
C288 C292 1.429 . S
H289 C294 0.930 . S
N290 Eu252 2.609 . S
N290 C292 1.377 . S
N290 C293 1.321 . S
C291 H277 0.930 . S
C291 C293 1.400 . S
C291 C294 1.386 . S
C292 C288 1.429 . S
C292 N290 1.377 . S
C292 C295 1.411 . S
C293 H275 0.930 . S
C293 N290 1.321 . S
C293 C291 1.400 . S
C294 H289 0.930 . S
C294 C291 1.386 . S
C294 C295 1.395 . S
C295 C292 1.411 . S
C295 C294 1.395 . S
C295 C317 1.420 . S
O296 Eu252 2.558 . S
O296 C316 1.257 . S
O297 Eu252 2.612 . S
O297 Eu263 2.380 1_556 S
O297 C308 1.276 . S
O298 Eu263 2.432 . S
O298 C315 1.264 1_554 S
O299 Eu252 2.339 . S
O299 C315 1.254 . S
O300 Eu252 2.563 . S
O300 C308 1.235 . S
O301 Eu252 2.419 . S
O301 C316 1.249 . S
O302 Eu263 2.558 . S
O302 C327 1.257 . S
O303 Eu252 2.380 1_554 S
O303 Eu263 2.612 . S
O303 C319 1.276 . S
O304 Eu252 2.432 1_554 S
O304 C326 1.264 . S
O305 Eu263 2.339 . S
O305 C326 1.254 . S
O306 Eu263 2.563 . S
O306 C319 1.235 . S
O307 Eu263 2.419 . S
O307 C327 1.249 . S
C308 O297 1.276 . S
C308 O300 1.235 . S
C309 C311 1.393 . S
C309 C313 1.395 . S
C309 C316 1.492 . S
C310 C311 1.392 . S
C310 C312 1.386 . S
C311 C309 1.393 . S
C311 C310 1.392 . S
C311 H328 0.930 . S
C312 C310 1.386 . S
C312 C314 1.395 . S
C312 H329 0.930 . S
C313 C309 1.395 . S
C313 C314 1.379 . S
C313 H330 0.930 . S
C314 C312 1.395 . S
C314 C313 1.379 . S
C314 H331 0.930 . S
C315 O298 1.264 1_556 S
C315 O299 1.254 . S
C316 Eu252 2.848 . S
C316 O296 1.257 . S
C316 O301 1.249 . S
C316 C309 1.492 . S
C317 H282 0.931 . S
C317 C295 1.420 . S
C317 C318 1.351 . S
C318 H280 0.930 . S
C318 C286 1.423 . S
C318 C317 1.351 . S
C319 O303 1.276 . S
C319 O306 1.235 . S
C320 C321 1.393 . S
C320 C324 1.395 . S
C320 C327 1.492 . S
C321 C320 1.393 . S
C321 C322 1.392 . S
C321 H332 0.930 . S
C322 C321 1.392 . S
C322 C323 1.386 . S
C323 C322 1.386 . S
C323 C325 1.395 . S
C323 H333 0.930 . S
C324 C320 1.395 . S
C324 C325 1.379 . S
C324 H334 0.930 . S
C325 C323 1.395 . S
C325 C324 1.379 . S
C325 H335 0.930 . S
C326 O304 1.264 . S
C326 O305 1.254 . S
C327 Eu263 2.848 . S
C327 O302 1.257 . S
C327 O307 1.249 . S
C327 C320 1.492 . S
H328 C311 0.930 . S
H329 C312 0.930 . S
H330 C313 0.930 . S
H331 C314 0.930 . S
H332 C321 0.930 . S
H333 C323 0.930 . S
H334 C324 0.930 . S
H335 C325 0.930 . S
Eu336 N367 2.657 . S
Eu336 N374 2.609 . S
Eu336 O380 2.558 . S
Eu336 O381 2.612 . S
Eu336 O383 2.339 . S
Eu336 O384 2.563 . S
Eu336 O385 2.419 . S
Eu336 O387 2.380 . S
Eu336 O388 2.432 . S
Eu336 C400 2.848 . S
C337 C340 1.429 . S
C337 C341 1.411 . S
C337 N344 1.377 . S
C338 C340 1.420 . S
C338 C342 1.423 . S
C338 C350 1.392 . S
C339 C341 1.420 . S
C339 C342 1.351 . S
C339 H362 0.931 . S
C340 C337 1.429 . S
C340 C338 1.420 . S
C340 N348 1.362 . S
C341 C337 1.411 . S
C341 C339 1.420 . S
C341 C346 1.395 . S
C342 C338 1.423 . S
C342 C339 1.351 . S
C342 H354 0.930 . S
C343 C345 1.400 . S
C343 C346 1.386 . S
C343 H355 0.930 . S
N344 C337 1.377 . S
N344 C345 1.321 . S
N344 Eu347 2.609 . S
C345 C343 1.400 . S
C345 N344 1.321 . S
C345 H352 0.930 . S
C346 C341 1.395 . S
C346 C343 1.386 . S
C346 H365 0.930 . S
Eu347 N344 2.609 . S
Eu347 N348 2.657 . S
Eu347 O381 2.380 . S
Eu347 O382 2.432 . S
Eu347 O386 2.558 . S
Eu347 O387 2.612 . S
Eu347 O389 2.339 . S
Eu347 O390 2.563 . S
Eu347 O391 2.419 . S
Eu347 C411 2.848 . S
N348 C340 1.362 . S
N348 Eu347 2.657 . S
N348 C349 1.334 . S
C349 N348 1.334 . S
C349 C351 1.413 . S
C349 H356 0.929 . S
C350 C338 1.392 . S
C350 C351 1.367 . S
C350 H358 0.930 . S
C351 C349 1.413 . S
C351 C350 1.367 . S
C351 H353 0.930 . S
H352 C345 0.930 . S
H353 C351 0.930 . S
H354 C342 0.930 . S
H355 C343 0.930 . S
H356 C349 0.929 . S
H357 C371 0.930 . S
H358 C350 0.930 . S
H359 C377 0.930 . S
H360 C368 0.929 . S
H361 C375 0.930 . S
H362 C339 0.931 . S
H363 C369 0.930 . S
H364 C402 0.930 . S
H365 C346 0.930 . S
H366 C401 0.931 . S
N367 Eu336 2.657 . S
N367 C368 1.334 . S
N367 C372 1.362 . S
C368 H360 0.929 . S
C368 N367 1.334 . S
C368 C371 1.413 . S
C369 H363 0.930 . S
C369 C370 1.392 . S
C369 C371 1.367 . S
C370 C369 1.392 . S
C370 C372 1.420 . S
C370 C402 1.423 . S
C371 H357 0.930 . S
C371 C368 1.413 . S
C371 C369 1.367 . S
C372 N367 1.362 . S
C372 C370 1.420 . S
C372 C376 1.429 . S
H373 C378 0.930 . S
N374 Eu336 2.609 . S
N374 C376 1.377 . S
N374 C377 1.321 . S
C375 H361 0.930 . S
C375 C377 1.400 . S
C375 C378 1.386 . S
C376 C372 1.429 . S
C376 N374 1.377 . S
C376 C379 1.411 . S
C377 H359 0.930 . S
C377 N374 1.321 . S
C377 C375 1.400 . S
C378 H373 0.930 . S
C378 C375 1.386 . S
C378 C379 1.395 . S
C379 C376 1.411 . S
C379 C378 1.395 . S
C379 C401 1.420 . S
O380 Eu336 2.558 . S
O380 C400 1.257 . S
O381 Eu336 2.612 . S
O381 Eu347 2.380 . S
O381 C392 1.276 . S
O382 Eu347 2.432 . S
O382 C399 1.264 . S
O383 Eu336 2.339 . S
O383 C399 1.254 . S
O384 Eu336 2.563 . S
O384 C392 1.235 . S
O385 Eu336 2.419 . S
O385 C400 1.249 . S
O386 Eu347 2.558 . S
O386 C411 1.257 . S
O387 Eu336 2.380 . S
O387 Eu347 2.612 . S
O387 C403 1.276 . S
O388 Eu336 2.432 . S
O388 C410 1.264 . S
O389 Eu347 2.339 . S
O389 C410 1.254 . S
O390 Eu347 2.563 . S
O390 C403 1.235 . S
O391 Eu347 2.419 . S
O391 C411 1.249 . S
C392 O381 1.276 . S
C392 O384 1.235 . S
C393 C395 1.393 . S
C393 C397 1.395 . S
C393 C400 1.492 . S
C394 C395 1.392 . S
C394 C396 1.386 . S
C395 C393 1.393 . S
C395 C394 1.392 . S
C395 H412 0.930 . S
C396 C394 1.386 . S
C396 C398 1.395 . S
C396 H413 0.930 . S
C397 C393 1.395 . S
C397 C398 1.379 . S
C397 H414 0.930 . S
C398 C396 1.395 . S
C398 C397 1.379 . S
C398 H415 0.930 . S
C399 O382 1.264 . S
C399 O383 1.254 . S
C400 Eu336 2.848 . S
C400 O380 1.257 . S
C400 O385 1.249 . S
C400 C393 1.492 . S
C401 H366 0.931 . S
C401 C379 1.420 . S
C401 C402 1.351 . S
C402 H364 0.930 . S
C402 C370 1.423 . S
C402 C401 1.351 . S
C403 O387 1.276 . S
C403 O390 1.235 . S
C404 C405 1.393 . S
C404 C408 1.395 . S
C404 C411 1.492 . S
C405 C404 1.393 . S
C405 C406 1.392 . S
C405 H416 0.930 . S
C406 C405 1.392 . S
C406 C407 1.386 . S
C407 C406 1.386 . S
C407 C409 1.395 . S
C407 H417 0.930 . S
C408 C404 1.395 . S
C408 C409 1.379 . S
C408 H418 0.930 . S
C409 C407 1.395 . S
C409 C408 1.379 . S
C409 H419 0.930 . S
C410 O388 1.264 . S
C410 O389 1.254 . S
C411 Eu347 2.848 . S
C411 O386 1.257 . S
C411 O391 1.249 . S
C411 C404 1.492 . S
H412 C395 0.930 . S
H413 C396 0.930 . S
H414 C397 0.930 . S
H415 C398 0.930 . S
H416 C405 0.930 . S
H417 C407 0.930 . S
H418 C408 0.930 . S
H419 C409 0.930 . S
Eu420 N451 2.657 . S
Eu420 N458 2.609 . S
Eu420 O464 2.558 . S
Eu420 O465 2.612 . S
Eu420 O467 2.339 . S
Eu420 O468 2.563 . S
Eu420 O469 2.419 . S
Eu420 O471 2.380 . S
Eu420 O472 2.432 . S
Eu420 C484 2.848 . S
C421 C424 1.429 . S
C421 C425 1.411 . S
C421 N428 1.377 . S
C422 C424 1.420 . S
C422 C426 1.423 . S
C422 C434 1.392 . S
C423 C425 1.420 . S
C423 C426 1.351 . S
C423 H446 0.931 . S
C424 C421 1.429 . S
C424 C422 1.420 . S
C424 N432 1.362 . S
C425 C421 1.411 . S
C425 C423 1.420 . S
C425 C430 1.395 . S
C426 C422 1.423 . S
C426 C423 1.351 . S
C426 H438 0.930 . S
C427 C429 1.400 . S
C427 C430 1.386 . S
C427 H439 0.930 . S
N428 C421 1.377 . S
N428 C429 1.321 . S
N428 Eu431 2.609 . S
C429 C427 1.400 . S
C429 N428 1.321 . S
C429 H436 0.930 . S
C430 C425 1.395 . S
C430 C427 1.386 . S
C430 H449 0.930 . S
Eu431 N428 2.609 . S
Eu431 N432 2.657 . S
Eu431 O465 2.380 . S
Eu431 O466 2.432 . S
Eu431 O470 2.558 . S
Eu431 O471 2.612 . S
Eu431 O473 2.339 . S
Eu431 O474 2.563 . S
Eu431 O475 2.419 . S
Eu431 C495 2.848 . S
N432 C424 1.362 . S
N432 Eu431 2.657 . S
N432 C433 1.334 . S
C433 N432 1.334 . S
C433 C435 1.413 . S
C433 H440 0.929 . S
C434 C422 1.392 . S
C434 C435 1.367 . S
C434 H442 0.930 . S
C435 C433 1.413 . S
C435 C434 1.367 . S
C435 H437 0.930 . S
H436 C429 0.930 . S
H437 C435 0.930 . S
H438 C426 0.930 . S
H439 C427 0.930 . S
H440 C433 0.929 . S
H441 C455 0.930 . S
H442 C434 0.930 . S
H443 C461 0.930 . S
H444 C452 0.929 . S
H445 C459 0.930 . S
H446 C423 0.931 . S
H447 C453 0.930 . S
H448 C486 0.930 . S
H449 C430 0.930 . S
H450 C485 0.931 . S
N451 Eu420 2.657 . S
N451 C452 1.334 . S
N451 C456 1.362 . S
C452 H444 0.929 . S
C452 N451 1.334 . S
C452 C455 1.413 . S
C453 H447 0.930 . S
C453 C454 1.392 . S
C453 C455 1.367 . S
C454 C453 1.392 . S
C454 C456 1.420 . S
C454 C486 1.423 . S
C455 H441 0.930 . S
C455 C452 1.413 . S
C455 C453 1.367 . S
C456 N451 1.362 . S
C456 C454 1.420 . S
C456 C460 1.429 . S
H457 C462 0.930 . S
N458 Eu420 2.609 . S
N458 C460 1.377 . S
N458 C461 1.321 . S
C459 H445 0.930 . S
C459 C461 1.400 . S
C459 C462 1.386 . S
C460 C456 1.429 . S
C460 N458 1.377 . S
C460 C463 1.411 . S
C461 H443 0.930 . S
C461 N458 1.321 . S
C461 C459 1.400 . S
C462 H457 0.930 . S
C462 C459 1.386 . S
C462 C463 1.395 . S
C463 C460 1.411 . S
C463 C462 1.395 . S
C463 C485 1.420 . S
O464 Eu420 2.558 . S
O464 C484 1.257 . S
O465 Eu420 2.612 . S
O465 Eu431 2.380 . S
O465 C476 1.276 . S
O466 Eu431 2.432 . S
O466 C483 1.264 . S
O467 Eu420 2.339 . S
O467 C483 1.254 . S
O468 Eu420 2.563 . S
O468 C476 1.235 . S
O469 Eu420 2.419 . S
O469 C484 1.249 . S
O470 Eu431 2.558 . S
O470 C495 1.257 . S
O471 Eu420 2.380 . S
O471 Eu431 2.612 . S
O471 C487 1.276 . S
O472 Eu420 2.432 . S
O472 C494 1.264 . S
O473 Eu431 2.339 . S
O473 C494 1.254 . S
O474 Eu431 2.563 . S
O474 C487 1.235 . S
O475 Eu431 2.419 . S
O475 C495 1.249 . S
C476 O465 1.276 . S
C476 O468 1.235 . S
C477 C479 1.393 . S
C477 C481 1.395 . S
C477 C484 1.492 . S
C478 C479 1.392 . S
C478 C480 1.386 . S
C479 C477 1.393 . S
C479 C478 1.392 . S
C479 H496 0.930 . S
C480 C478 1.386 . S
C480 C482 1.395 . S
C480 H497 0.930 . S
C481 C477 1.395 . S
C481 C482 1.379 . S
C481 H498 0.930 . S
C482 C480 1.395 . S
C482 C481 1.379 . S
C482 H499 0.930 . S
C483 O466 1.264 . S
C483 O467 1.254 . S
C484 Eu420 2.848 . S
C484 O464 1.257 . S
C484 O469 1.249 . S
C484 C477 1.492 . S
C485 H450 0.931 . S
C485 C463 1.420 . S
C485 C486 1.351 . S
C486 H448 0.930 . S
C486 C454 1.423 . S
C486 C485 1.351 . S
C487 O471 1.276 . S
C487 O474 1.235 . S
C488 C489 1.393 . S
C488 C492 1.395 . S
C488 C495 1.492 . S
C489 C488 1.393 . S
C489 C490 1.392 . S
C489 H500 0.930 . S
C490 C489 1.392 . S
C490 C491 1.386 . S
C491 C490 1.386 . S
C491 C493 1.395 . S
C491 H501 0.930 . S
C492 C488 1.395 . S
C492 C493 1.379 . S
C492 H502 0.930 . S
C493 C491 1.395 . S
C493 C492 1.379 . S
C493 H503 0.930 . S
C494 O472 1.264 . S
C494 O473 1.254 . S
C495 Eu431 2.848 . S
C495 O470 1.257 . S
C495 O475 1.249 . S
C495 C488 1.492 . S
H496 C479 0.930 . S
H497 C480 0.930 . S
H498 C481 0.930 . S
H499 C482 0.930 . S
H500 C489 0.930 . S
H501 C491 0.930 . S
H502 C492 0.930 . S
H503 C493 0.930 . S
H504 C522 0.951 . S
H505 C524 0.951 . S
H506 C526 0.950 . S
H507 C527 0.950 . S
H508 C529 0.950 . S
H509 C532 0.950 . S
H510 C533 0.950 . S
H511 C535 0.950 . S
H512 C536 0.950 . S
H513 C537 0.951 . S
H514 C539 0.951 . S
H515 C541 0.950 . S
H516 C542 0.950 . S
H517 C544 0.950 . S
H518 C547 0.950 . S
H519 C548 0.950 . S
H520 C550 0.950 . S
H521 C551 0.950 . S
C522 H504 0.951 . S
C522 C523 1.366 . S
C522 C524 1.388 . S
C523 C522 1.366 . S
C523 C527 1.385 . S
C524 H505 0.951 . S
C524 C522 1.388 . S
C524 C525 1.366 . S
C525 C524 1.366 . S
C525 C526 1.414 . S
C525 C528 1.499 . S
C526 H506 0.950 . S
C526 C525 1.414 . S
C526 C527 1.374 . S
C527 H507 0.950 . S
C527 C523 1.385 . S
C527 C526 1.374 . S
C528 C525 1.499 . S
C528 C529 1.373 . S
C528 C530 1.389 . S
C529 H508 0.950 . S
C529 C528 1.373 . S
C529 C545 1.377 . S
C530 C528 1.389 . S
C530 C531 1.524 . S
C530 C544 1.377 . S
C531 C530 1.524 . S
C531 C532 1.397 . S
C531 C536 1.363 . S
C532 H509 0.950 . S
C532 C531 1.397 . S
C532 C533 1.334 . S
C533 H510 0.950 . S
C533 C532 1.334 . S
C533 C534 1.287 . S
C534 C533 1.287 . S
C534 C535 1.524 . S
C534 H553 0.913 . S
C535 H511 0.950 . S
C535 C534 1.524 . S
C535 C536 1.415 . S
C536 H512 0.950 . S
C536 C531 1.363 . S
C536 C535 1.415 . S
C537 H513 0.951 . S
C537 C538 1.366 . S
C537 C539 1.388 . S
C538 C537 1.366 . S
C538 C542 1.385 . S
C539 H514 0.951 . S
C539 C537 1.388 . S
C539 C540 1.366 . S
C540 C539 1.366 . S
C540 C541 1.414 . S
C540 C543 1.499 . S
C541 H515 0.950 . S
C541 C540 1.414 . S
C541 C542 1.374 . S
C542 H516 0.950 . S
C542 C538 1.385 . S
C542 C541 1.374 . S
C543 C540 1.499 . S
C543 C544 1.373 . S
C543 C545 1.389 . S
C544 H517 0.950 . S
C544 C530 1.377 . S
C544 C543 1.373 . S
C545 C529 1.377 . S
C545 C543 1.389 . S
C545 C546 1.524 . S
C546 C545 1.524 . S
C546 C547 1.397 . S
C546 C551 1.363 . S
C547 H518 0.950 . S
C547 C546 1.397 . S
C547 C548 1.334 . S
C548 H519 0.950 . S
C548 C547 1.334 . S
C548 C549 1.287 . S
C549 C548 1.287 . S
C549 C550 1.524 . S
C549 H552 0.999 . S
C550 H520 0.950 . S
C550 C549 1.524 . S
C550 C551 1.415 . S
C551 H521 0.950 . S
C551 C546 1.363 . S
C551 C550 1.415 . S
H552 C549 0.999 . S
H553 C534 0.913 . S
H554 C572 0.951 . S
H555 C574 0.951 . S
H556 C576 0.950 . S
H557 C577 0.950 . S
H558 C579 0.950 . S
H559 C582 0.950 . S
H560 C583 0.950 . S
H561 C585 0.950 . S
H562 C586 0.950 . S
H563 C587 0.951 . S
H564 C589 0.951 . S
H565 C591 0.950 . S
H566 C592 0.950 . S
H567 C594 0.950 . S
H568 C597 0.950 . S
H569 C598 0.950 . S
H570 C600 0.931 1_455 S
H571 C601 0.950 . S
C572 H554 0.951 . S
C572 C573 1.366 . S
C572 C574 1.388 . S
C573 C572 1.366 . S
C573 C577 1.385 . S
C574 H555 0.951 . S
C574 C572 1.388 . S
C574 C575 1.366 . S
C575 C574 1.366 . S
C575 C576 1.414 . S
C575 C578 1.499 . S
C576 H556 0.950 . S
C576 C575 1.414 . S
C576 C577 1.374 . S
C577 H557 0.950 . S
C577 C573 1.385 . S
C577 C576 1.374 . S
C578 C575 1.499 . S
C578 C579 1.373 . S
C578 C580 1.389 . S
C579 H558 0.950 . S
C579 C578 1.373 . S
C579 C595 1.377 1_455 S
C580 C578 1.389 . S
C580 C581 1.524 . S
C580 C594 1.377 1_455 S
C581 C580 1.524 . S
C581 C582 1.397 . S
C581 C586 1.363 1_455 S
C582 H559 0.950 . S
C582 C581 1.397 . S
C582 C583 1.334 . S
C583 H560 0.950 . S
C583 C582 1.334 . S
C583 C584 1.287 . S
C584 C583 1.287 . S
C584 C585 1.524 1_455 S
C584 H603 0.913 . S
C585 H561 0.950 . S
C585 C584 1.524 1_655 S
C585 C586 1.415 . S
C586 H562 0.950 . S
C586 C581 1.363 1_655 S
C586 C585 1.415 . S
C587 H563 0.951 . S
C587 C588 1.366 . S
C587 C589 1.388 . S
C588 C587 1.366 . S
C588 C592 1.385 . S
C589 H564 0.951 . S
C589 C587 1.388 . S
C589 C590 1.366 . S
C590 C589 1.366 . S
C590 C591 1.414 . S
C590 C593 1.499 . S
C591 H565 0.950 . S
C591 C590 1.414 . S
C591 C592 1.374 . S
C592 H566 0.950 . S
C592 C588 1.385 . S
C592 C591 1.374 . S
C593 C590 1.499 . S
C593 C594 1.373 . S
C593 C595 1.389 . S
C594 H567 0.950 . S
C594 C580 1.377 1_655 S
C594 C593 1.373 . S
C595 C579 1.377 1_655 S
C595 C593 1.389 . S
C595 C596 1.524 . S
C596 C595 1.524 . S
C596 C597 1.397 . S
C596 C601 1.363 1_655 S
C597 H568 0.950 . S
C597 C596 1.397 . S
C597 C598 1.334 . S
C598 H569 0.950 . S
C598 C597 1.334 . S
C598 C599 1.287 . S
C599 C598 1.287 . S
C599 C600 1.538 . S
C599 H602 0.999 . S
C600 H570 0.931 1_655 S
C600 C599 1.538 . S
C600 C601 1.422 1_655 S
C601 H571 0.950 . S
C601 C596 1.363 1_455 S
C601 C600 1.422 1_455 S
H602 C599 0.999 . S
H603 C584 0.913 . S
H604 C622 0.951 . S
H605 C624 0.951 . S
H606 C626 0.950 . S
H607 C627 0.950 . S
H608 C629 0.950 . S
H609 C632 0.950 . S
H610 C633 0.950 . S
H611 C635 0.950 . S
H612 C636 0.950 . S
H613 C637 0.951 . S
H614 C639 0.951 . S
H615 C641 0.950 . S
H616 C642 0.950 . S
H617 C644 0.950 . S
H618 C647 0.950 . S
H619 C648 0.950 . S
H620 C650 0.950 . S
H621 C651 0.950 . S
C622 H604 0.951 . S
C622 C623 1.366 . S
C622 C624 1.388 . S
C623 C622 1.366 . S
C623 C627 1.385 . S
C624 H605 0.951 . S
C624 C622 1.388 . S
C624 C625 1.366 . S
C625 C624 1.366 . S
C625 C626 1.414 . S
C625 C628 1.499 . S
C626 H606 0.950 . S
C626 C625 1.414 . S
C626 C627 1.374 . S
C627 H607 0.950 . S
C627 C623 1.385 . S
C627 C626 1.374 . S
C628 C625 1.499 . S
C628 C629 1.373 1_545 S
C628 C630 1.389 . S
C629 H608 0.950 . S
C629 C628 1.373 1_565 S
C629 C645 1.377 . S
C630 C628 1.389 . S
C630 C631 1.524 . S
C630 C644 1.377 1_545 S
C631 C630 1.524 . S
C631 C632 1.397 . S
C631 C636 1.363 . S
C632 H609 0.950 . S
C632 C631 1.397 . S
C632 C633 1.334 . S
C633 H610 0.950 . S
C633 C632 1.334 . S
C633 C634 1.287 . S
C634 C633 1.287 . S
C634 C635 1.524 . S
C634 H653 0.913 . S
C635 H611 0.950 . S
C635 C634 1.524 . S
C635 C636 1.415 . S
C636 H612 0.950 . S
C636 C631 1.363 . S
C636 C635 1.415 . S
C637 H613 0.951 . S
C637 C638 1.366 . S
C637 C639 1.388 . S
C638 C637 1.366 . S
C638 C642 1.385 . S
C639 H614 0.951 . S
C639 C637 1.388 . S
C639 C640 1.366 . S
C640 C639 1.366 . S
C640 C641 1.414 . S
C640 C643 1.499 . S
C641 H615 0.950 . S
C641 C640 1.414 . S
C641 C642 1.374 . S
C642 H616 0.950 . S
C642 C638 1.385 . S
C642 C641 1.374 . S
C643 C640 1.499 . S
C643 C644 1.373 . S
C643 C645 1.389 . S
C644 H617 0.950 . S
C644 C630 1.377 1_565 S
C644 C643 1.373 . S
C645 C629 1.377 . S
C645 C643 1.389 . S
C645 C646 1.524 . S
C646 C645 1.524 . S
C646 C647 1.397 . S
C646 C651 1.363 . S
C647 H618 0.950 . S
C647 C646 1.397 . S
C647 C648 1.334 . S
C648 H619 0.950 . S
C648 C647 1.334 . S
C648 C649 1.287 . S
C649 C648 1.287 . S
C649 C650 1.524 . S
C649 H652 0.999 . S
C650 H620 0.950 . S
C650 C649 1.524 . S
C650 C651 1.415 . S
C651 H621 0.950 . S
C651 C646 1.363 . S
C651 C650 1.415 . S
H652 C649 0.999 . S
H653 C634 0.913 . S
H654 C672 0.951 . S
H655 C674 0.951 . S
H656 C676 0.950 . S
H657 C677 0.950 . S
H658 C679 0.950 . S
H659 C682 0.950 . S
H660 C683 0.950 . S
H661 C685 0.950 . S
H662 C686 0.950 . S
H663 C687 0.951 . S
H664 C689 0.951 . S
H665 C691 0.950 . S
H666 C692 0.950 . S
H667 C694 0.950 . S
H668 C697 0.950 . S
H669 C698 0.950 . S
H670 C700 0.950 . S
H671 C701 0.950 . S
C672 H654 0.951 . S
C672 C673 1.366 . S
C672 C674 1.388 . S
C673 C672 1.366 . S
C673 C677 1.385 . S
C674 H655 0.951 . S
C674 C672 1.388 . S
C674 C675 1.366 . S
C675 C674 1.366 . S
C675 C676 1.414 . S
C675 C678 1.499 . S
C676 H656 0.950 . S
C676 C675 1.414 . S
C676 C677 1.374 . S
C677 H657 0.950 . S
C677 C673 1.385 . S
C677 C676 1.374 . S
C678 C675 1.499 . S
C678 C679 1.373 . S
C678 C680 1.389 . S
C679 H658 0.950 . S
C679 C678 1.373 . S
C679 C695 1.377 . S
C680 C678 1.389 . S
C680 C681 1.524 . S
C680 C694 1.377 . S
C681 C680 1.524 . S
C681 C682 1.397 . S
C681 C686 1.363 . S
C682 H659 0.950 . S
C682 C681 1.397 . S
C682 C683 1.334 . S
C683 H660 0.950 . S
C683 C682 1.334 . S
C683 C684 1.287 . S
C684 C683 1.287 . S
C684 C685 1.524 . S
C684 H703 0.913 . S
C685 H661 0.950 . S
C685 C684 1.524 . S
C685 C686 1.415 . S
C686 H662 0.950 . S
C686 C681 1.363 . S
C686 C685 1.415 . S
C687 H663 0.951 . S
C687 C688 1.366 . S
C687 C689 1.388 . S
C688 C687 1.366 . S
C688 C692 1.385 . S
C689 H664 0.951 . S
C689 C687 1.388 . S
C689 C690 1.366 . S
C690 C689 1.366 . S
C690 C691 1.414 . S
C690 C693 1.499 . S
C691 H665 0.950 . S
C691 C690 1.414 . S
C691 C692 1.374 . S
C692 H666 0.950 . S
C692 C688 1.385 . S
C692 C691 1.374 . S
C693 C690 1.499 . S
C693 C694 1.373 . S
C693 C695 1.389 . S
C694 H667 0.950 . S
C694 C680 1.377 . S
C694 C693 1.373 . S
C695 C679 1.377 . S
C695 C693 1.389 . S
C695 C696 1.524 . S
C696 C695 1.524 . S
C696 C697 1.397 . S
C696 C701 1.363 . S
C697 H668 0.950 . S
C697 C696 1.397 . S
C697 C698 1.334 . S
C698 H669 0.950 . S
C698 C697 1.334 . S
C698 C699 1.287 . S
C699 C698 1.287 . S
C699 C700 1.524 . S
C699 H702 0.999 . S
C700 H670 0.950 . S
C700 C699 1.524 . S
C700 C701 1.415 . S
C701 H671 0.950 . S
C701 C696 1.363 . S
C701 C700 1.415 . S
H702 C699 0.999 . S
H703 C684 0.913 . S
H704 C722 0.951 . S
H705 C724 0.951 . S
H706 C726 0.950 . S
H707 C727 0.950 . S
H708 C729 0.950 . S
H709 C732 0.950 . S
H710 C733 0.950 . S
H711 C735 0.950 . S
H712 C736 0.950 . S
H713 C737 0.951 . S
H714 C739 0.951 . S
H715 C741 0.950 . S
H716 C742 0.950 . S
H717 C744 0.950 . S
H718 C747 0.950 . S
H719 C748 0.950 . S
H720 C750 0.950 . S
H721 C751 0.950 . S
C722 H704 0.951 . S
C722 C723 1.366 . S
C722 C724 1.388 . S
C723 C722 1.366 . S
C723 C727 1.385 . S
C724 H705 0.951 . S
C724 C722 1.388 . S
C724 C725 1.366 . S
C725 C724 1.366 . S
C725 C726 1.414 . S
C725 C728 1.499 . S
C726 H706 0.950 . S
C726 C725 1.414 . S
C726 C727 1.374 . S
C727 H707 0.950 . S
C727 C723 1.385 . S
C727 C726 1.374 . S
C728 C725 1.499 . S
C728 C729 1.373 . S
C728 C730 1.389 . S
C729 H708 0.950 . S
C729 C728 1.373 . S
C729 C745 1.377 1_455 S
C730 C728 1.389 . S
C730 C731 1.524 . S
C730 C744 1.377 . S
C731 C730 1.524 . S
C731 C732 1.397 . S
C731 C736 1.363 . S
C732 H709 0.950 . S
C732 C731 1.397 . S
C732 C733 1.334 . S
C733 H710 0.950 . S
C733 C732 1.334 . S
C733 C734 1.287 . S
C734 C733 1.287 . S
C734 C735 1.524 . S
C734 H753 0.913 . S
C735 H711 0.950 . S
C735 C734 1.524 . S
C735 C736 1.415 . S
C736 H712 0.950 . S
C736 C731 1.363 . S
C736 C735 1.415 . S
C737 H713 0.951 . S
C737 C738 1.366 . S
C737 C739 1.388 . S
C738 C737 1.366 . S
C738 C742 1.385 . S
C739 H714 0.951 . S
C739 C737 1.388 . S
C739 C740 1.366 . S
C740 C739 1.366 . S
C740 C741 1.414 . S
C740 C743 1.499 . S
C741 H715 0.950 . S
C741 C740 1.414 . S
C741 C742 1.374 . S
C742 H716 0.950 . S
C742 C738 1.385 . S
C742 C741 1.374 . S
C743 C740 1.499 . S
C743 C744 1.373 1_655 S
C743 C745 1.389 . S
C744 H717 0.950 . S
C744 C730 1.377 . S
C744 C743 1.373 1_455 S
C745 C729 1.377 1_655 S
C745 C743 1.389 . S
C745 C746 1.524 . S
C746 C745 1.524 . S
C746 C747 1.397 . S
C746 C751 1.363 . S
C747 H718 0.950 . S
C747 C746 1.397 . S
C747 C748 1.334 . S
C748 H719 0.950 . S
C748 C747 1.334 . S
C748 C749 1.287 . S
C749 C748 1.287 . S
C749 C750 1.524 . S
C749 H752 0.999 . S
C750 H720 0.950 . S
C750 C749 1.524 . S
C750 C751 1.415 . S
C751 H721 0.950 . S
C751 C746 1.363 . S
C751 C750 1.415 . S
H752 C749 0.999 . S
H753 C734 0.913 . S
H754 C772 0.951 . S
H755 C774 0.951 . S
H756 C776 0.950 . S
H757 C777 0.950 . S
H758 C779 0.950 . S
H759 C782 0.950 . S
H760 C783 0.950 . S
H761 C785 0.950 . S
H762 C786 0.950 1_565 S
H763 C787 0.951 . S
H764 C789 0.951 . S
H765 C791 0.950 . S
H766 C792 0.950 . S
H767 C794 0.950 . S
H768 C797 0.950 . S
H769 C798 0.950 . S
H770 C800 0.950 . S
H771 C801 0.950 1_545 S
C772 H754 0.951 . S
C772 C773 1.366 . S
C772 C774 1.388 . S
C773 C772 1.366 . S
C773 C777 1.385 . S
C774 H755 0.951 . S
C774 C772 1.388 . S
C774 C775 1.366 . S
C775 C774 1.366 . S
C775 C776 1.414 . S
C775 C778 1.499 . S
C776 H756 0.950 . S
C776 C775 1.414 . S
C776 C777 1.374 . S
C777 H757 0.950 . S
C777 C773 1.385 . S
C777 C776 1.374 . S
C778 C775 1.499 . S
C778 C779 1.373 . S
C778 C780 1.389 . S
C779 H758 0.950 . S
C779 C778 1.373 . S
C779 C795 1.377 1_545 S
C780 C778 1.389 . S
C780 C781 1.524 . S
C780 C794 1.377 1_545 S
C781 C780 1.524 . S
C781 C782 1.397 . S
C781 C786 1.363 . S
C782 H759 0.950 . S
C782 C781 1.397 . S
C782 C783 1.334 . S
C783 H760 0.950 . S
C783 C782 1.334 . S
C783 C784 1.287 . S
C784 C783 1.287 . S
C784 C785 1.524 . S
C784 H803 0.913 . S
C785 H761 0.950 . S
C785 C784 1.524 . S
C785 C786 1.415 . S
C786 H762 0.950 1_545 S
C786 C781 1.363 . S
C786 C785 1.415 . S
C787 H763 0.951 . S
C787 C788 1.366 . S
C787 C789 1.388 . S
C788 C787 1.366 . S
C788 C792 1.385 . S
C789 H764 0.951 . S
C789 C787 1.388 . S
C789 C790 1.366 . S
C790 C789 1.366 . S
C790 C791 1.414 . S
C790 C793 1.499 . S
C791 H765 0.950 . S
C791 C790 1.414 . S
C791 C792 1.374 . S
C792 H766 0.950 . S
C792 C788 1.385 . S
C792 C791 1.374 . S
C793 C790 1.499 . S
C793 C794 1.373 . S
C793 C795 1.389 . S
C794 H767 0.950 . S
C794 C780 1.377 1_565 S
C794 C793 1.373 . S
C795 C779 1.377 1_565 S
C795 C793 1.389 . S
C795 C796 1.524 . S
C796 C795 1.524 . S
C796 C797 1.397 . S
C796 C801 1.363 . S
C797 H768 0.950 . S
C797 C796 1.397 . S
C797 C798 1.334 . S
C798 H769 0.950 . S
C798 C797 1.334 . S
C798 C799 1.287 . S
C799 C798 1.287 . S
C799 C800 1.524 . S
C799 H802 0.999 . S
C800 H770 0.950 . S
C800 C799 1.524 . S
C800 C801 1.415 . S
C801 H771 0.950 1_565 S
C801 C796 1.363 . S
C801 C800 1.415 . S
H802 C799 0.999 . S
H803 C784 0.913 . S
H804 C822 0.951 . S
H805 C824 0.951 . S
H806 C826 0.950 . S
H807 C827 0.950 . S
H808 C829 0.950 . S
H809 C832 0.950 . S
H810 C833 0.950 . S
H811 C835 0.950 . S
H812 C836 0.950 . S
H813 C837 0.951 . S
H814 C839 0.951 . S
H815 C841 0.950 . S
H816 C842 0.950 . S
H817 C844 0.950 . S
H818 C847 0.950 . S
H819 C848 0.950 . S
H820 C850 0.950 . S
H821 C851 0.950 . S
C822 H804 0.951 . S
C822 C823 1.366 . S
C822 C824 1.388 . S
C823 C822 1.366 . S
C823 C827 1.385 . S
C824 H805 0.951 . S
C824 C822 1.388 . S
C824 C825 1.366 . S
C825 C824 1.366 . S
C825 C826 1.414 . S
C825 C828 1.499 . S
C826 H806 0.950 . S
C826 C825 1.414 . S
C826 C827 1.374 . S
C827 H807 0.950 . S
C827 C823 1.385 . S
C827 C826 1.374 . S
C828 C825 1.499 . S
C828 C829 1.373 . S
C828 C830 1.389 . S
C829 H808 0.950 . S
C829 C828 1.373 . S
C829 C845 1.377 . S
C830 C828 1.389 . S
C830 C831 1.524 . S
C830 C844 1.377 . S
C831 C830 1.524 . S
C831 C832 1.397 . S
C831 C836 1.363 . S
C832 H809 0.950 . S
C832 C831 1.397 . S
C832 C833 1.334 . S
C833 H810 0.950 . S
C833 C832 1.334 . S
C833 C834 1.287 . S
C834 C833 1.287 . S
C834 C835 1.524 . S
C834 H853 0.913 . S
C835 H811 0.950 . S
C835 C834 1.524 . S
C835 C836 1.415 . S
C836 H812 0.950 . S
C836 C831 1.363 . S
C836 C835 1.415 . S
C837 H813 0.951 . S
C837 C838 1.366 . S
C837 C839 1.388 . S
C838 C837 1.366 . S
C838 C842 1.385 . S
C839 H814 0.951 . S
C839 C837 1.388 . S
C839 C840 1.366 . S
C840 C839 1.366 . S
C840 C841 1.414 . S
C840 C843 1.499 . S
C841 H815 0.950 . S
C841 C840 1.414 . S
C841 C842 1.374 . S
C842 H816 0.950 . S
C842 C838 1.385 . S
C842 C841 1.374 . S
C843 C840 1.499 . S
C843 C844 1.373 . S
C843 C845 1.389 . S
C844 H817 0.950 . S
C844 C830 1.377 . S
C844 C843 1.373 . S
C845 C829 1.377 . S
C845 C843 1.389 . S
C845 C846 1.524 . S
C846 C845 1.524 . S
C846 C847 1.397 . S
C846 C851 1.363 . S
C847 H818 0.950 . S
C847 C846 1.397 . S
C847 C848 1.334 . S
C848 H819 0.950 . S
C848 C847 1.334 . S
C848 C849 1.287 . S
C849 C848 1.287 . S
C849 C850 1.524 . S
C849 H852 0.999 . S
C850 H820 0.950 . S
C850 C849 1.524 . S
C850 C851 1.415 . S
C851 H821 0.950 . S
C851 C846 1.363 . S
C851 C850 1.415 . S
H852 C849 0.999 . S
H853 C834 0.913 . S
H854 C872 0.951 . S
H855 C874 0.951 . S
H856 C876 0.950 . S
H857 C877 0.962 . S
H858 C879 0.950 . S
H859 C882 0.950 . S
H860 C883 0.950 . S
H861 C885 0.950 . S
H862 C886 0.950 . S
H863 C887 0.951 . S
H864 C889 0.951 . S
H865 C891 0.950 . S
H866 C892 0.950 . S
H867 C894 0.950 . S
H868 C897 0.950 . S
H869 C898 0.950 . S
H870 C900 0.950 . S
H871 C901 0.950 . S
C872 H854 0.951 . S
C872 C873 1.366 . S
C872 C874 1.388 1_554 S
C873 C872 1.366 . S
C873 C877 1.399 . S
C874 H855 0.951 . S
C874 C872 1.388 1_556 S
C874 C875 1.366 . S
C875 C874 1.366 . S
C875 C876 1.414 . S
C875 C878 1.499 . S
C876 H856 0.950 . S
C876 C875 1.414 . S
C876 C877 1.348 1_556 S
C877 H857 0.962 . S
C877 C873 1.399 . S
C877 C876 1.348 1_554 S
C878 C875 1.499 . S
C878 C879 1.373 . S
C878 C880 1.389 . S
C879 H858 0.950 . S
C879 C878 1.373 . S
C879 C895 1.377 . S
C880 C878 1.389 . S
C880 C881 1.524 . S
C880 C894 1.377 . S
C881 C880 1.524 . S
C881 C882 1.397 . S
C881 C886 1.363 . S
C882 H859 0.950 . S
C882 C881 1.397 . S
C882 C883 1.334 . S
C883 H860 0.950 . S
C883 C882 1.334 . S
C883 C884 1.287 . S
C884 C883 1.287 . S
C884 C885 1.524 . S
C884 H903 0.913 . S
C885 H861 0.950 . S
C885 C884 1.524 . S
C885 C886 1.415 . S
C886 H862 0.950 . S
C886 C881 1.363 . S
C886 C885 1.415 . S
C887 H863 0.951 . S
C887 C888 1.366 . S
C887 C889 1.388 . S
C888 C887 1.366 . S
C888 C892 1.385 . S
C889 H864 0.951 . S
C889 C887 1.388 . S
C889 C890 1.366 . S
C890 C889 1.366 . S
C890 C891 1.414 . S
C890 C893 1.499 . S
C891 H865 0.950 . S
C891 C890 1.414 . S
C891 C892 1.374 . S
C892 H866 0.950 . S
C892 C888 1.385 . S
C892 C891 1.374 . S
C893 C890 1.499 . S
C893 C894 1.373 . S
C893 C895 1.389 . S
C894 H867 0.950 . S
C894 C880 1.377 . S
C894 C893 1.373 . S
C895 C879 1.377 . S
C895 C893 1.389 . S
C895 C896 1.524 . S
C896 C895 1.524 . S
C896 C897 1.397 . S
C896 C901 1.363 . S
C897 H868 0.950 . S
C897 C896 1.397 . S
C897 C898 1.334 . S
C898 H869 0.950 . S
C898 C897 1.334 . S
C898 C899 1.287 . S
C899 C898 1.287 . S
C899 C900 1.524 . S
C899 H902 0.999 . S
C900 H870 0.950 . S
C900 C899 1.524 . S
C900 C901 1.415 . S
C901 H871 0.950 . S
C901 C896 1.363 . S
C901 C900 1.415 . S
H902 C899 0.999 . S
H903 C884 0.913 . S
H904 C922 0.951 . S
H905 C924 0.951 . S
H906 C926 0.950 . S
H907 C927 0.950 . S
H908 C929 0.950 . S
H909 C932 0.950 . S
H910 C933 0.950 . S
H911 C935 0.950 . S
H912 C936 0.950 . S
H913 C937 0.951 . S
H914 C939 0.951 . S
H915 C941 0.950 . S
H916 C942 0.950 1_556 S
H917 C944 0.950 . S
H918 C947 0.950 . S
H919 C948 0.950 . S
H920 C950 0.950 . S
H921 C951 0.950 . S
C922 H904 0.951 . S
C922 C923 1.366 . S
C922 C924 1.388 . S
C923 C922 1.366 . S
C923 C927 1.385 . S
C924 H905 0.951 . S
C924 C922 1.388 . S
C924 C925 1.366 . S
C925 C924 1.366 . S
C925 C926 1.414 . S
C925 C928 1.499 . S
C926 H906 0.950 . S
C926 C925 1.414 . S
C926 C927 1.374 . S
C927 H907 0.950 . S
C927 C923 1.385 . S
C927 C926 1.374 . S
C928 C925 1.499 . S
C928 C929 1.373 . S
C928 C930 1.389 . S
C929 H908 0.950 . S
C929 C928 1.373 . S
C929 C945 1.377 . S
C930 C928 1.389 . S
C930 C931 1.524 . S
C930 C944 1.377 . S
C931 C930 1.524 . S
C931 C932 1.397 . S
C931 C936 1.363 . S
C932 H909 0.950 . S
C932 C931 1.397 . S
C932 C933 1.334 . S
C933 H910 0.950 . S
C933 C932 1.334 . S
C933 C934 1.287 . S
C934 C933 1.287 . S
C934 C935 1.524 . S
C934 H953 0.913 . S
C935 H911 0.950 . S
C935 C934 1.524 . S
C935 C936 1.415 . S
C936 H912 0.950 . S
C936 C931 1.363 . S
C936 C935 1.415 . S
C937 H913 0.951 . S
C937 C938 1.366 . S
C937 C939 1.387 1_556 S
C938 C937 1.366 . S
C938 C942 1.385 1_556 S
C939 H914 0.951 . S
C939 C937 1.387 1_554 S
C939 C940 1.366 . S
C940 C939 1.366 . S
C940 C941 1.414 . S
C940 C943 1.499 . S
C941 H915 0.950 . S
C941 C940 1.414 . S
C941 C942 1.374 . S
C942 H916 0.950 1_554 S
C942 C938 1.385 1_554 S
C942 C941 1.374 . S
C943 C940 1.499 . S
C943 C944 1.373 . S
C943 C945 1.389 . S
C944 H917 0.950 . S
C944 C930 1.377 . S
C944 C943 1.373 . S
C945 C929 1.377 . S
C945 C943 1.389 . S
C945 C946 1.524 . S
C946 C945 1.524 . S
C946 C947 1.397 . S
C946 C951 1.363 . S
C947 H918 0.950 . S
C947 C946 1.397 . S
C947 C948 1.334 . S
C948 H919 0.950 . S
C948 C947 1.334 . S
C948 C949 1.287 . S
C949 C948 1.287 . S
C949 C950 1.524 . S
C949 H952 0.999 . S
C950 H920 0.950 . S
C950 C949 1.524 . S
C950 C951 1.415 . S
C951 H921 0.950 . S
C951 C946 1.363 . S
C951 C950 1.415 . S
H952 C949 0.999 . S
H953 C934 0.913 . S
H954 C972 0.951 . S
H955 C974 0.951 . S
H956 C976 0.950 . S
H957 C977 0.950 . S
H958 C979 0.950 . S
H959 C982 0.950 . S
H960 C983 0.950 . S
H961 C985 0.950 . S
H962 C986 0.950 . S
H963 C987 0.951 . S
H964 C989 0.951 . S
H965 C991 0.950 . S
H966 C992 0.950 . S
H967 C994 0.950 . S
H968 C997 0.950 . S
H969 C998 0.950 . S
H970 C1000 0.950 . S
H971 C1001 0.950 . S
C972 H954 0.951 . S
C972 C973 1.366 . S
C972 C974 1.388 . S
C973 C972 1.366 . S
C973 C977 1.385 . S
C974 H955 0.951 . S
C974 C972 1.388 . S
C974 C975 1.366 . S
C975 C974 1.366 . S
C975 C976 1.414 . S
C975 C978 1.499 . S
C976 H956 0.950 . S
C976 C975 1.414 . S
C976 C977 1.374 . S
C977 H957 0.950 . S
C977 C973 1.385 . S
C977 C976 1.374 . S
C978 C975 1.499 . S
C978 C979 1.373 . S
C978 C980 1.389 . S
C979 H958 0.950 . S
C979 C978 1.373 . S
C979 C995 1.377 . S
C980 C978 1.389 . S
C980 C981 1.524 . S
C980 C994 1.377 . S
C981 C980 1.524 . S
C981 C982 1.397 . S
C981 C986 1.363 . S
C982 H959 0.950 . S
C982 C981 1.397 . S
C982 C983 1.334 . S
C983 H960 0.950 . S
C983 C982 1.334 . S
C983 C984 1.287 . S
C984 C983 1.287 . S
C984 C985 1.524 . S
C984 H1003 0.913 . S
C985 H961 0.950 . S
C985 C984 1.524 . S
C985 C986 1.415 . S
C986 H962 0.950 . S
C986 C981 1.363 . S
C986 C985 1.415 . S
C987 H963 0.951 . S
C987 C988 1.366 . S
C987 C989 1.388 . S
C988 C987 1.366 . S
C988 C992 1.385 . S
C989 H964 0.951 . S
C989 C987 1.388 . S
C989 C990 1.366 . S
C990 C989 1.366 . S
C990 C991 1.414 . S
C990 C993 1.499 . S
C991 H965 0.950 . S
C991 C990 1.414 . S
C991 C992 1.374 . S
C992 H966 0.950 . S
C992 C988 1.385 . S
C992 C991 1.374 . S
C993 C990 1.499 . S
C993 C994 1.373 . S
C993 C995 1.389 . S
C994 H967 0.950 . S
C994 C980 1.377 . S
C994 C993 1.373 . S
C995 C979 1.377 . S
C995 C993 1.389 . S
C995 C996 1.524 . S
C996 C995 1.524 . S
C996 C997 1.397 . S
C996 C1001 1.363 . S
C997 H968 0.950 . S
C997 C996 1.397 . S
C997 C998 1.334 . S
C998 H969 0.950 . S
C998 C997 1.334 . S
C998 C999 1.287 . S
C999 C998 1.287 . S
C999 C1000 1.524 . S
C999 H1002 0.999 . S
C1000 H970 0.950 . S
C1000 C999 1.524 . S
C1000 C1001 1.415 . S
C1001 H971 0.950 . S
C1001 C996 1.363 . S
C1001 C1000 1.415 . S
H1002 C999 0.999 . S
H1003 C984 0.913 . S
H1004 C1022 0.951 . S
H1005 C1024 0.951 . S
H1006 C1026 0.950 . S
H1007 C1027 0.950 . S
H1008 C1029 0.950 . S
H1009 C1032 0.950 . S
H1010 C1033 0.950 . S
H1011 C1035 0.950 . S
H1012 C1036 0.950 . S
H1013 C1037 0.951 . S
H1014 C1039 0.951 . S
H1015 C1041 0.950 . S
H1016 C1042 0.950 . S
H1017 C1044 0.950 . S
H1018 C1047 0.950 . S
H1019 C1048 0.950 . S
H1020 C1050 0.950 . S
H1021 C1051 0.950 . S
C1022 H1004 0.951 . S
C1022 C1023 1.366 . S
C1022 C1024 1.388 . S
C1023 C1022 1.366 . S
C1023 C1027 1.385 . S
C1024 H1005 0.951 . S
C1024 C1022 1.388 . S
C1024 C1025 1.366 . S
C1025 C1024 1.366 . S
C1025 C1026 1.414 . S
C1025 C1028 1.499 . S
C1026 H1006 0.950 . S
C1026 C1025 1.414 . S
C1026 C1027 1.374 . S
C1027 H1007 0.950 . S
C1027 C1023 1.385 . S
C1027 C1026 1.374 . S
C1028 C1025 1.499 . S
C1028 C1029 1.373 . S
C1028 C1030 1.389 . S
C1029 H1008 0.950 . S
C1029 C1028 1.373 . S
C1029 C1045 1.377 . S
C1030 C1028 1.389 . S
C1030 C1031 1.524 . S
C1030 C1044 1.377 . S
C1031 C1030 1.524 . S
C1031 C1032 1.397 . S
C1031 C1036 1.363 . S
C1032 H1009 0.950 . S
C1032 C1031 1.397 . S
C1032 C1033 1.334 . S
C1033 H1010 0.950 . S
C1033 C1032 1.334 . S
C1033 C1034 1.287 . S
C1034 C1033 1.287 . S
C1034 C1035 1.524 . S
C1034 H1053 0.913 . S
C1035 H1011 0.950 . S
C1035 C1034 1.524 . S
C1035 C1036 1.415 . S
C1036 H1012 0.950 . S
C1036 C1031 1.363 . S
C1036 C1035 1.415 . S
C1037 H1013 0.951 . S
C1037 C1038 1.366 . S
C1037 C1039 1.388 1_554 S
C1038 C1037 1.366 . S
C1038 C1042 1.385 . S
C1039 H1014 0.951 . S
C1039 C1037 1.388 1_556 S
C1039 C1040 1.366 . S
C1040 C1039 1.366 . S
C1040 C1041 1.414 . S
C1040 C1043 1.499 . S
C1041 H1015 0.950 . S
C1041 C1040 1.414 . S
C1041 C1042 1.374 1_556 S
C1042 H1016 0.950 . S
C1042 C1038 1.385 . S
C1042 C1041 1.374 1_554 S
C1043 C1040 1.499 . S
C1043 C1044 1.373 . S
C1043 C1045 1.389 . S
C1044 H1017 0.950 . S
C1044 C1030 1.377 . S
C1044 C1043 1.373 . S
C1045 C1029 1.377 . S
C1045 C1043 1.389 . S
C1045 C1046 1.524 . S
C1046 C1045 1.524 . S
C1046 C1047 1.397 . S
C1046 C1051 1.363 . S
C1047 H1018 0.950 . S
C1047 C1046 1.397 . S
C1047 C1048 1.334 . S
C1048 H1019 0.950 . S
C1048 C1047 1.334 . S
C1048 C1049 1.287 . S
C1049 C1048 1.287 . S
C1049 C1050 1.524 . S
C1049 H1052 0.999 . S
C1050 H1020 0.950 . S
C1050 C1049 1.524 . S
C1050 C1051 1.415 . S
C1051 H1021 0.950 . S
C1051 C1046 1.363 . S
C1051 C1050 1.415 . S
H1052 C1049 0.999 . S
H1053 C1034 0.913 . S
H1054 C1072 0.951 . S
H1055 C1074 0.951 . S
H1056 C1076 0.950 . S
H1057 C1077 0.950 . S
H1058 C1079 0.950 . S
H1059 C1082 0.950 . S
H1060 C1083 0.950 . S
H1061 C1085 0.950 . S
H1062 C1086 0.950 . S
H1063 C1087 0.951 1_556 S
H1064 C1089 0.951 . S
H1065 C1091 0.950 . S
H1066 C1092 0.957 . S
H1067 C1094 0.950 . S
H1068 C1097 0.950 . S
H1069 C1098 0.950 . S
H1070 C1100 0.950 . S
H1071 C1101 0.950 . S
C1072 H1054 0.951 . S
C1072 C1073 1.366 . S
C1072 C1074 1.388 . S
C1073 C1072 1.366 . S
C1073 C1077 1.385 . S
C1074 H1055 0.951 . S
C1074 C1072 1.388 . S
C1074 C1075 1.366 . S
C1075 C1074 1.366 . S
C1075 C1076 1.414 . S
C1075 C1078 1.499 . S
C1076 H1056 0.950 . S
C1076 C1075 1.414 . S
C1076 C1077 1.374 . S
C1077 H1057 0.950 . S
C1077 C1073 1.385 . S
C1077 C1076 1.374 . S
C1078 C1075 1.499 . S
C1078 C1079 1.373 . S
C1078 C1080 1.389 . S
C1079 H1058 0.950 . S
C1079 C1078 1.373 . S
C1079 C1095 1.377 . S
C1080 C1078 1.389 . S
C1080 C1081 1.524 . S
C1080 C1094 1.377 . S
C1081 C1080 1.524 . S
C1081 C1082 1.397 . S
C1081 C1086 1.363 . S
C1082 H1059 0.950 . S
C1082 C1081 1.397 . S
C1082 C1083 1.334 . S
C1083 H1060 0.950 . S
C1083 C1082 1.334 . S
C1083 C1084 1.287 . S
C1084 C1083 1.287 . S
C1084 C1085 1.524 . S
C1084 H1103 0.913 . S
C1085 H1061 0.950 . S
C1085 C1084 1.524 . S
C1085 C1086 1.415 . S
C1086 H1062 0.950 . S
C1086 C1081 1.363 . S
C1086 C1085 1.415 . S
C1087 H1063 0.951 1_554 S
C1087 C1088 1.366 1_554 S
C1087 C1089 1.388 . S
C1088 C1087 1.366 1_556 S
C1088 C1092 1.390 . S
C1089 H1064 0.951 . S
C1089 C1087 1.388 . S
C1089 C1090 1.366 . S
C1090 C1089 1.366 . S
C1090 C1091 1.414 . S
C1090 C1093 1.499 . S
C1091 H1065 0.950 . S
C1091 C1090 1.414 . S
C1091 C1092 1.362 1_554 S
C1092 H1066 0.957 . S
C1092 C1088 1.390 . S
C1092 C1091 1.362 1_556 S
C1093 C1090 1.499 . S
C1093 C1094 1.373 . S
C1093 C1095 1.389 . S
C1094 H1067 0.950 . S
C1094 C1080 1.377 . S
C1094 C1093 1.373 . S
C1095 C1079 1.377 . S
C1095 C1093 1.389 . S
C1095 C1096 1.524 . S
C1096 C1095 1.524 . S
C1096 C1097 1.397 . S
C1096 C1101 1.363 . S
C1097 H1068 0.950 . S
C1097 C1096 1.397 . S
C1097 C1098 1.334 . S
C1098 H1069 0.950 . S
C1098 C1097 1.334 . S
C1098 C1099 1.287 . S
C1099 C1098 1.287 . S
C1099 C1100 1.524 . S
C1099 H1102 0.999 . S
C1100 H1070 0.950 . S
C1100 C1099 1.524 . S
C1100 C1101 1.415 . S
C1101 H1071 0.950 . S
C1101 C1096 1.363 . S
C1101 C1100 1.415 . S
H1102 C1099 0.999 . S
H1103 C1084 0.913 . S
H1104 C1122 0.951 . S
H1105 C1124 0.951 . S
H1106 C1126 0.950 . S
H1107 C1127 0.950 . S
H1108 C1129 0.950 . S
H1109 C1132 0.950 . S
H1110 C1133 0.950 . S
H1111 C1135 0.950 . S
H1112 C1136 0.950 . S
H1113 C1137 0.951 . S
H1114 C1139 0.951 . S
H1115 C1141 0.950 . S
H1116 C1142 0.950 . S
H1117 C1144 0.950 . S
H1118 C1147 0.950 . S
H1119 C1148 0.950 . S
H1120 C1150 0.950 . S
H1121 C1151 0.950 . S
C1122 H1104 0.951 . S
C1122 C1123 1.366 . S
C1122 C1124 1.388 . S
C1123 C1122 1.366 . S
C1123 C1127 1.385 . S
C1124 H1105 0.951 . S
C1124 C1122 1.388 . S
C1124 C1125 1.366 . S
C1125 C1124 1.366 . S
C1125 C1126 1.414 . S
C1125 C1128 1.499 . S
C1126 H1106 0.950 . S
C1126 C1125 1.414 . S
C1126 C1127 1.374 . S
C1127 H1107 0.950 . S
C1127 C1123 1.385 . S
C1127 C1126 1.374 . S
C1128 C1125 1.499 . S
C1128 C1129 1.373 . S
C1128 C1130 1.389 . S
C1129 H1108 0.950 . S
C1129 C1128 1.373 . S
C1129 C1145 1.377 . S
C1130 C1128 1.389 . S
C1130 C1131 1.524 . S
C1130 C1144 1.377 . S
C1131 C1130 1.524 . S
C1131 C1132 1.397 . S
C1131 C1136 1.363 . S
C1132 H1109 0.950 . S
C1132 C1131 1.397 . S
C1132 C1133 1.334 . S
C1133 H1110 0.950 . S
C1133 C1132 1.334 . S
C1133 C1134 1.287 . S
C1134 C1133 1.287 . S
C1134 C1135 1.524 . S
C1134 H1153 0.913 . S
C1135 H1111 0.950 . S
C1135 C1134 1.524 . S
C1135 C1136 1.415 . S
C1136 H1112 0.950 . S
C1136 C1131 1.363 . S
C1136 C1135 1.415 . S
C1137 H1113 0.951 . S
C1137 C1138 1.366 . S
C1137 C1139 1.388 . S
C1138 C1137 1.366 . S
C1138 C1142 1.385 . S
C1139 H1114 0.951 . S
C1139 C1137 1.388 . S
C1139 C1140 1.366 . S
C1140 C1139 1.366 . S
C1140 C1141 1.414 . S
C1140 C1143 1.499 . S
C1141 H1115 0.950 . S
C1141 C1140 1.414 . S
C1141 C1142 1.374 . S
C1142 H1116 0.950 . S
C1142 C1138 1.385 . S
C1142 C1141 1.374 . S
C1143 C1140 1.499 . S
C1143 C1144 1.373 . S
C1143 C1145 1.389 . S
C1144 H1117 0.950 . S
C1144 C1130 1.377 . S
C1144 C1143 1.373 . S
C1145 C1129 1.377 . S
C1145 C1143 1.389 . S
C1145 C1146 1.524 . S
C1146 C1145 1.524 . S
C1146 C1147 1.397 . S
C1146 C1151 1.363 . S
C1147 H1118 0.950 . S
C1147 C1146 1.397 . S
C1147 C1148 1.334 . S
C1148 H1119 0.950 . S
C1148 C1147 1.334 . S
C1148 C1149 1.287 . S
C1149 C1148 1.287 . S
C1149 C1150 1.524 . S
C1149 H1152 0.999 . S
C1150 H1120 0.950 . S
C1150 C1149 1.524 . S
C1150 C1151 1.415 . S
C1151 H1121 0.950 . S
C1151 C1146 1.363 . S
C1151 C1150 1.415 . S
H1152 C1149 0.999 . S
H1153 C1134 0.913 . S
H1154 C1172 0.951 . S
H1155 C1174 0.951 . S
H1156 C1176 0.950 . S
H1157 C1177 0.950 . S
H1158 C1179 0.950 . S
H1159 C1182 0.950 . S
H1160 C1183 0.950 . S
H1161 C1185 0.950 . S
H1162 C1186 0.950 . S
H1163 C1187 0.951 . S
H1164 C1189 0.951 . S
H1165 C1191 0.950 . S
H1166 C1192 0.950 . S
H1167 C1194 0.950 . S
H1168 C1197 0.950 . S
H1169 C1198 0.950 . S
H1170 C1200 0.950 . S
H1171 C1201 0.950 . S
C1172 H1154 0.951 . S
C1172 C1173 1.366 . S
C1172 C1174 1.388 . S
C1173 C1172 1.366 . S
C1173 C1177 1.385 . S
C1174 H1155 0.951 . S
C1174 C1172 1.388 . S
C1174 C1175 1.366 . S
C1175 C1174 1.366 . S
C1175 C1176 1.414 . S
C1175 C1178 1.499 . S
C1176 H1156 0.950 . S
C1176 C1175 1.414 . S
C1176 C1177 1.374 . S
C1177 H1157 0.950 . S
C1177 C1173 1.385 . S
C1177 C1176 1.374 . S
C1178 C1175 1.499 . S
C1178 C1179 1.373 . S
C1178 C1180 1.389 . S
C1179 H1158 0.950 . S
C1179 C1178 1.373 . S
C1179 C1195 1.377 . S
C1180 C1178 1.389 . S
C1180 C1181 1.524 . S
C1180 C1194 1.377 . S
C1181 C1180 1.524 . S
C1181 C1182 1.397 . S
C1181 C1186 1.363 . S
C1182 H1159 0.950 . S
C1182 C1181 1.397 . S
C1182 C1183 1.334 . S
C1183 H1160 0.950 . S
C1183 C1182 1.334 . S
C1183 C1184 1.287 . S
C1184 C1183 1.287 . S
C1184 C1185 1.524 . S
C1184 H1203 0.913 . S
C1185 H1161 0.950 . S
C1185 C1184 1.524 . S
C1185 C1186 1.415 . S
C1186 H1162 0.950 . S
C1186 C1181 1.363 . S
C1186 C1185 1.415 . S
C1187 H1163 0.951 . S
C1187 C1188 1.366 . S
C1187 C1189 1.388 . S
C1188 C1187 1.366 . S
C1188 C1192 1.385 . S
C1189 H1164 0.951 . S
C1189 C1187 1.388 . S
C1189 C1190 1.366 . S
C1190 C1189 1.366 . S
C1190 C1191 1.414 . S
C1190 C1193 1.499 . S
C1191 H1165 0.950 . S
C1191 C1190 1.414 . S
C1191 C1192 1.374 . S
C1192 H1166 0.950 . S
C1192 C1188 1.385 . S
C1192 C1191 1.374 . S
C1193 C1190 1.499 . S
C1193 C1194 1.373 . S
C1193 C1195 1.389 . S
C1194 H1167 0.950 . S
C1194 C1180 1.377 . S
C1194 C1193 1.373 . S
C1195 C1179 1.377 . S
C1195 C1193 1.389 . S
C1195 C1196 1.524 . S
C1196 C1195 1.524 . S
C1196 C1197 1.397 . S
C1196 C1201 1.363 . S
C1197 H1168 0.950 . S
C1197 C1196 1.397 . S
C1197 C1198 1.334 . S
C1198 H1169 0.950 . S
C1198 C1197 1.334 . S
C1198 C1199 1.287 . S
C1199 C1198 1.287 . S
C1199 C1200 1.524 . S
C1199 H1202 0.999 . S
C1200 H1170 0.950 . S
C1200 C1199 1.524 . S
C1200 C1201 1.415 . S
C1201 H1171 0.950 . S
C1201 C1196 1.363 . S
C1201 C1200 1.415 . S
H1202 C1199 0.999 . S
H1203 C1184 0.913 . S
H1204 C1222 0.951 . S
H1205 C1224 0.951 . S
H1206 C1226 0.950 . S
H1207 C1227 0.950 . S
H1208 C1229 0.950 . S
H1209 C1232 0.950 . S
H1210 C1233 0.950 . S
H1211 C1235 0.950 . S
H1212 C1236 0.950 . S
H1213 C1237 0.951 . S
H1214 C1239 0.951 . S
H1215 C1241 0.950 . S
H1216 C1242 0.950 . S
H1217 C1244 0.950 . S
H1218 C1247 0.950 . S
H1219 C1248 0.950 . S
H1220 C1250 0.950 . S
H1221 C1251 0.950 . S
C1222 H1204 0.951 . S
C1222 C1223 1.366 . S
C1222 C1224 1.388 . S
C1223 C1222 1.366 . S
C1223 C1227 1.385 . S
C1224 H1205 0.951 . S
C1224 C1222 1.388 . S
C1224 C1225 1.366 . S
C1225 C1224 1.366 . S
C1225 C1226 1.414 . S
C1225 C1228 1.499 . S
C1226 H1206 0.950 . S
C1226 C1225 1.414 . S
C1226 C1227 1.374 . S
C1227 H1207 0.950 . S
C1227 C1223 1.385 . S
C1227 C1226 1.374 . S
C1228 C1225 1.499 . S
C1228 C1229 1.373 . S
C1228 C1230 1.389 . S
C1229 H1208 0.950 . S
C1229 C1228 1.373 . S
C1229 C1245 1.377 . S
C1230 C1228 1.389 . S
C1230 C1231 1.524 . S
C1230 C1244 1.377 . S
C1231 C1230 1.524 . S
C1231 C1232 1.397 . S
C1231 C1236 1.363 . S
C1232 H1209 0.950 . S
C1232 C1231 1.397 . S
C1232 C1233 1.334 . S
C1233 H1210 0.950 . S
C1233 C1232 1.334 . S
C1233 C1234 1.287 . S
C1234 C1233 1.287 . S
C1234 C1235 1.524 . S
C1234 H1253 0.913 . S
C1235 H1211 0.950 . S
C1235 C1234 1.524 . S
C1235 C1236 1.415 . S
C1236 H1212 0.950 . S
C1236 C1231 1.363 . S
C1236 C1235 1.415 . S
C1237 H1213 0.951 . S
C1237 C1238 1.366 . S
C1237 C1239 1.388 . S
C1238 C1237 1.366 . S
C1238 C1242 1.385 . S
C1239 H1214 0.951 . S
C1239 C1237 1.388 . S
C1239 C1240 1.366 . S
C1240 C1239 1.366 . S
C1240 C1241 1.414 . S
C1240 C1243 1.499 . S
C1241 H1215 0.950 . S
C1241 C1240 1.414 . S
C1241 C1242 1.374 . S
C1242 H1216 0.950 . S
C1242 C1238 1.385 . S
C1242 C1241 1.374 . S
C1243 C1240 1.499 . S
C1243 C1244 1.373 . S
C1243 C1245 1.389 . S
C1244 H1217 0.950 . S
C1244 C1230 1.377 . S
C1244 C1243 1.373 . S
C1245 C1229 1.377 . S
C1245 C1243 1.389 . S
C1245 C1246 1.524 . S
C1246 C1245 1.524 . S
C1246 C1247 1.397 . S
C1246 C1251 1.363 . S
C1247 H1218 0.950 . S
C1247 C1246 1.397 . S
C1247 C1248 1.334 . S
C1248 H1219 0.950 . S
C1248 C1247 1.334 . S
C1248 C1249 1.287 . S
C1249 C1248 1.287 . S
C1249 C1250 1.524 . S
C1249 H1252 0.999 . S
C1250 H1220 0.950 . S
C1250 C1249 1.524 . S
C1250 C1251 1.415 . S
C1251 H1221 0.950 . S
C1251 C1246 1.363 . S
C1251 C1250 1.415 . S
H1252 C1249 0.999 . S
H1253 C1234 0.913 . S
H1254 C1272 0.951 . S
H1255 C1274 0.951 . S
H1256 C1276 0.950 . S
H1257 C1277 0.950 . S
H1258 C1279 0.950 . S
H1259 C1282 0.950 . S
H1260 C1283 0.950 . S
H1261 C1285 0.950 . S
H1262 C1286 0.950 . S
H1263 C1287 0.951 . S
H1264 C1289 0.951 . S
H1265 C1291 0.950 . S
H1266 C1292 0.950 . S
H1267 C1294 0.950 . S
H1268 C1297 0.950 . S
H1269 C1298 0.950 1_556 S
H1270 C1300 0.950 1_556 S
H1271 C1301 0.950 . S
C1272 H1254 0.951 . S
C1272 C1273 1.366 . S
C1272 C1274 1.388 . S
C1273 C1272 1.366 . S
C1273 C1277 1.385 . S
C1274 H1255 0.951 . S
C1274 C1272 1.388 . S
C1274 C1275 1.366 . S
C1275 C1274 1.366 . S
C1275 C1276 1.414 . S
C1275 C1278 1.499 . S
C1276 H1256 0.950 . S
C1276 C1275 1.414 . S
C1276 C1277 1.374 . S
C1277 H1257 0.950 . S
C1277 C1273 1.385 . S
C1277 C1276 1.374 . S
C1278 C1275 1.499 . S
C1278 C1279 1.373 . S
C1278 C1280 1.389 . S
C1279 H1258 0.950 . S
C1279 C1278 1.373 . S
C1279 C1295 1.377 . S
C1280 C1278 1.389 . S
C1280 C1281 1.524 . S
C1280 C1294 1.377 . S
C1281 C1280 1.524 . S
C1281 C1282 1.397 . S
C1281 C1286 1.363 . S
C1282 H1259 0.950 . S
C1282 C1281 1.397 . S
C1282 C1283 1.334 . S
C1283 H1260 0.950 . S
C1283 C1282 1.334 . S
C1283 C1284 1.287 . S
C1284 C1283 1.287 . S
C1284 C1285 1.524 . S
C1284 H1303 0.913 . S
C1285 H1261 0.950 . S
C1285 C1284 1.524 . S
C1285 C1286 1.415 . S
C1286 H1262 0.950 . S
C1286 C1281 1.363 . S
C1286 C1285 1.415 . S
C1287 H1263 0.951 . S
C1287 C1288 1.366 . S
C1287 C1289 1.388 . S
C1288 C1287 1.366 . S
C1288 C1292 1.385 . S
C1289 H1264 0.951 . S
C1289 C1287 1.388 . S
C1289 C1290 1.366 . S
C1290 C1289 1.366 . S
C1290 C1291 1.414 . S
C1290 C1293 1.499 . S
C1291 H1265 0.950 . S
C1291 C1290 1.414 . S
C1291 C1292 1.374 . S
C1292 H1266 0.950 . S
C1292 C1288 1.385 . S
C1292 C1291 1.374 . S
C1293 C1290 1.499 . S
C1293 C1294 1.373 . S
C1293 C1295 1.389 . S
C1294 H1267 0.950 . S
C1294 C1280 1.377 . S
C1294 C1293 1.373 . S
C1295 C1279 1.377 . S
C1295 C1293 1.389 . S
C1295 C1296 1.524 . S
C1296 C1295 1.524 . S
C1296 C1297 1.397 . S
C1296 C1301 1.363 . S
C1297 H1268 0.950 . S
C1297 C1296 1.397 . S
C1297 C1298 1.334 . S
C1298 H1269 0.950 1_554 S
C1298 C1297 1.334 . S
C1298 C1299 1.287 1_554 S
C1299 C1298 1.287 1_556 S
C1299 C1300 1.524 1_556 S
C1299 H1302 0.999 . S
C1300 H1270 0.950 1_554 S
C1300 C1299 1.524 1_554 S
C1300 C1301 1.415 . S
C1301 H1271 0.950 . S
C1301 C1296 1.363 . S
C1301 C1300 1.415 . S
H1302 C1299 0.999 . S
H1303 C1284 0.913 . S
H1304 C1322 0.951 . S
H1305 C1324 0.951 . S
H1306 C1326 0.950 . S
H1307 C1327 0.950 . S
H1308 C1329 0.950 . S
H1309 C1332 0.950 . S
H1310 C1333 0.950 . S
H1311 C1335 0.950 . S
H1312 C1336 0.950 . S
H1313 C1337 0.951 . S
H1314 C1339 0.951 . S
H1315 C1341 0.950 . S
H1316 C1342 0.950 . S
H1317 C1344 0.950 . S
H1318 C1347 0.950 . S
H1319 C1348 0.950 . S
H1320 C1350 0.950 . S
H1321 C1351 0.950 . S
C1322 H1304 0.951 . S
C1322 C1323 1.366 . S
C1322 C1324 1.388 . S
C1323 C1322 1.366 . S
C1323 C1327 1.385 . S
C1324 H1305 0.951 . S
C1324 C1322 1.388 . S
C1324 C1325 1.366 . S
C1325 C1324 1.366 . S
C1325 C1326 1.414 . S
C1325 C1328 1.499 . S
C1326 H1306 0.950 . S
C1326 C1325 1.414 . S
C1326 C1327 1.374 . S
C1327 H1307 0.950 . S
C1327 C1323 1.385 . S
C1327 C1326 1.374 . S
C1328 C1325 1.499 . S
C1328 C1329 1.373 . S
C1328 C1330 1.389 . S
C1329 H1308 0.950 . S
C1329 C1328 1.373 . S
C1329 C1345 1.377 . S
C1330 C1328 1.389 . S
C1330 C1331 1.524 . S
C1330 C1344 1.377 . S
C1331 C1330 1.524 . S
C1331 C1332 1.397 . S
C1331 C1336 1.363 . S
C1332 H1309 0.950 . S
C1332 C1331 1.397 . S
C1332 C1333 1.334 . S
C1333 H1310 0.950 . S
C1333 C1332 1.334 . S
C1333 C1334 1.287 . S
C1334 C1333 1.287 . S
C1334 C1335 1.524 . S
C1334 H1353 0.913 . S
C1335 H1311 0.950 . S
C1335 C1334 1.524 . S
C1335 C1336 1.415 . S
C1336 H1312 0.950 . S
C1336 C1331 1.363 . S
C1336 C1335 1.415 . S
C1337 H1313 0.951 . S
C1337 C1338 1.366 . S
C1337 C1339 1.388 . S
C1338 C1337 1.366 . S
C1338 C1342 1.385 . S
C1339 H1314 0.951 . S
C1339 C1337 1.388 . S
C1339 C1340 1.366 . S
C1340 C1339 1.366 . S
C1340 C1341 1.414 . S
C1340 C1343 1.499 . S
C1341 H1315 0.950 . S
C1341 C1340 1.414 . S
C1341 C1342 1.374 . S
C1342 H1316 0.950 . S
C1342 C1338 1.385 . S
C1342 C1341 1.374 . S
C1343 C1340 1.499 . S
C1343 C1344 1.373 . S
C1343 C1345 1.389 . S
C1344 H1317 0.950 . S
C1344 C1330 1.377 . S
C1344 C1343 1.373 . S
C1345 C1329 1.377 . S
C1345 C1343 1.389 . S
C1345 C1346 1.524 . S
C1346 C1345 1.524 . S
C1346 C1347 1.397 . S
C1346 C1351 1.363 . S
C1347 H1318 0.950 . S
C1347 C1346 1.397 . S
C1347 C1348 1.334 . S
C1348 H1319 0.950 . S
C1348 C1347 1.334 . S
C1348 C1349 1.287 . S
C1349 C1348 1.287 . S
C1349 C1350 1.524 . S
C1349 H1352 0.999 . S
C1350 H1320 0.950 . S
C1350 C1349 1.524 . S
C1350 C1351 1.415 . S
C1351 H1321 0.950 . S
C1351 C1346 1.363 . S
C1351 C1350 1.415 . S
H1352 C1349 0.999 . S
H1353 C1334 0.913 . S
H1354 C1372 0.951 . S
H1355 C1374 0.951 . S
H1356 C1376 0.950 . S
H1357 C1377 0.950 . S
H1358 C1379 0.950 . S
H1359 C1382 0.950 . S
H1360 C1383 0.950 1_554 S
H1361 C1385 0.950 . S
H1362 C1386 0.950 . S
H1363 C1387 0.951 . S
H1364 C1389 0.951 . S
H1365 C1391 0.950 . S
H1366 C1392 0.950 . S
H1367 C1394 0.950 . S
H1368 C1397 0.950 . S
H1369 C1398 0.950 . S
H1370 C1400 0.950 . S
H1371 C1401 0.950 . S
C1372 H1354 0.951 . S
C1372 C1373 1.366 . S
C1372 C1374 1.388 . S
C1373 C1372 1.366 . S
C1373 C1377 1.385 . S
C1374 H1355 0.951 . S
C1374 C1372 1.388 . S
C1374 C1375 1.366 . S
C1375 C1374 1.366 . S
C1375 C1376 1.414 . S
C1375 C1378 1.499 . S
C1376 H1356 0.950 . S
C1376 C1375 1.414 . S
C1376 C1377 1.374 . S
C1377 H1357 0.950 . S
C1377 C1373 1.385 . S
C1377 C1376 1.374 . S
C1378 C1375 1.499 . S
C1378 C1379 1.373 . S
C1378 C1380 1.389 . S
C1379 H1358 0.950 . S
C1379 C1378 1.373 . S
C1379 C1395 1.377 . S
C1380 C1378 1.389 . S
C1380 C1381 1.524 . S
C1380 C1394 1.377 . S
C1381 C1380 1.524 . S
C1381 C1382 1.397 . S
C1381 C1386 1.363 . S
C1382 H1359 0.950 . S
C1382 C1381 1.397 . S
C1382 C1383 1.334 . S
C1383 H1360 0.950 1_556 S
C1383 C1382 1.334 . S
C1383 C1384 1.287 . S
C1384 C1383 1.287 . S
C1384 C1385 1.524 . S
C1384 H1403 0.913 . S
C1385 H1361 0.950 . S
C1385 C1384 1.524 . S
C1385 C1386 1.415 . S
C1386 H1362 0.950 . S
C1386 C1381 1.363 . S
C1386 C1385 1.415 . S
C1387 H1363 0.951 . S
C1387 C1388 1.366 . S
C1387 C1389 1.388 . S
C1388 C1387 1.366 . S
C1388 C1392 1.385 . S
C1389 H1364 0.951 . S
C1389 C1387 1.388 . S
C1389 C1390 1.366 . S
C1390 C1389 1.366 . S
C1390 C1391 1.414 . S
C1390 C1393 1.499 . S
C1391 H1365 0.950 . S
C1391 C1390 1.414 . S
C1391 C1392 1.374 . S
C1392 H1366 0.950 . S
C1392 C1388 1.385 . S
C1392 C1391 1.374 . S
C1393 C1390 1.499 . S
C1393 C1394 1.373 . S
C1393 C1395 1.389 . S
C1394 H1367 0.950 . S
C1394 C1380 1.377 . S
C1394 C1393 1.373 . S
C1395 C1379 1.377 . S
C1395 C1393 1.389 . S
C1395 C1396 1.524 . S
C1396 C1395 1.524 . S
C1396 C1397 1.397 . S
C1396 C1401 1.363 . S
C1397 H1368 0.950 . S
C1397 C1396 1.397 . S
C1397 C1398 1.334 . S
C1398 H1369 0.950 . S
C1398 C1397 1.334 . S
C1398 C1399 1.287 . S
C1399 C1398 1.287 . S
C1399 C1400 1.524 . S
C1399 H1402 0.999 . S
C1400 H1370 0.950 . S
C1400 C1399 1.524 . S
C1400 C1401 1.415 . S
C1401 H1371 0.950 . S
C1401 C1396 1.363 . S
C1401 C1400 1.415 . S
H1402 C1399 0.999 . S
H1403 C1384 0.913 . S
C523 C494 1.431 . S
C538 C56 1.397 . S
C573 C74 1.431 . S
C588 C140 1.397 . S
C623 C158 1.431 . S
C638 C224 1.397 . S
C673 C242 1.431 . S
C688 C308 1.397 . S
C723 C392 1.397 . S
C738 C326 1.431 . S
C773 C476 1.397 . S
C788 C410 1.431 . S
C823 C58 1.315 . S
C838 C70 1.315 . S
C873 C142 1.316 . S
C888 C154 1.316 . S
C923 C226 1.315 . S
C938 C238 1.315 . S
C973 C310 1.314 . S
C988 C322 1.314 . S
C1023 C406 1.316 . S
C1038 C394 1.316 . S
C1073 C478 1.315 . S
C1088 C490 1.315 . S
C1123 C67 1.309 . S
C1138 C399 1.347 . S
C1173 C151 1.309 . S
C1188 C483 1.347 . S
C1223 C63 1.347 . S
C1238 C235 1.309 . S
C1273 C147 1.347 . S
C1288 C319 1.308 . S
C1323 C403 1.310 . S
C1338 C231 1.346 . S
C1373 C315 1.347 . S
C1388 C487 1.309 . S
