# Generated by pormake.
# Topology wme, (6)-cn, num edge types: 1
# Building blocks:
#     Node 0, Type 0, BuildingBlock: KUMBUR_clean_sbu_0, # of connection points: 6
#     Node 1, Type 0, BuildingBlock: KUMBUR_clean_sbu_0, # of connection points: 6
#     Node 2, Type 0, BuildingBlock: KUMBUR_clean_sbu_0, # of connection points: 6
#     Node 3, Type 0, BuildingBlock: KUMBUR_clean_sbu_0, # of connection points: 6
#     Node 4, Type 0, BuildingBlock: KUMBUR_clean_sbu_0, # of connection points: 6
#     Node 5, Type 0, BuildingBlock: KUMBUR_clean_sbu_0, # of connection points: 6
#     Node 6, Type 0, BuildingBlock: KUMBUR_clean_sbu_0, # of connection points: 6
#     Node 7, Type 0, BuildingBlock: KUMBUR_clean_sbu_0, # of connection points: 6
#     Node 8, Type 0, BuildingBlock: KUMBUR_clean_sbu_0, # of connection points: 6
#     Node 9, Type 0, BuildingBlock: KUMBUR_clean_sbu_0, # of connection points: 6
#     Node 10, Type 0, BuildingBlock: KUMBUR_clean_sbu_0, # of connection points: 6
#     Node 11, Type 0, BuildingBlock: KUMBUR_clean_sbu_0, # of connection points: 6
#     Edge 12, Type (0, 0), BuildingBlock: ZUJKAS_clean_linker_0, # of connection points: 2
#     Edge 13, Type (0, 0), BuildingBlock: ZUJKAS_clean_linker_0, # of connection points: 2
#     Edge 14, Type (0, 0), BuildingBlock: ZUJKAS_clean_linker_0, # of connection points: 2
#     Edge 15, Type (0, 0), BuildingBlock: ZUJKAS_clean_linker_0, # of connection points: 2
#     Edge 16, Type (0, 0), BuildingBlock: ZUJKAS_clean_linker_0, # of connection points: 2
#     Edge 17, Type (0, 0), BuildingBlock: ZUJKAS_clean_linker_0, # of connection points: 2
#     Edge 18, Type (0, 0), BuildingBlock: ZUJKAS_clean_linker_0, # of connection points: 2
#     Edge 19, Type (0, 0), BuildingBlock: ZUJKAS_clean_linker_0, # of connection points: 2
#     Edge 20, Type (0, 0), BuildingBlock: ZUJKAS_clean_linker_0, # of connection points: 2
#     Edge 21, Type (0, 0), BuildingBlock: ZUJKAS_clean_linker_0, # of connection points: 2
#     Edge 22, Type (0, 0), BuildingBlock: ZUJKAS_clean_linker_0, # of connection points: 2
#     Edge 23, Type (0, 0), BuildingBlock: ZUJKAS_clean_linker_0, # of connection points: 2
#     Edge 24, Type (0, 0), BuildingBlock: ZUJKAS_clean_linker_0, # of connection points: 2
#     Edge 25, Type (0, 0), BuildingBlock: ZUJKAS_clean_linker_0, # of connection points: 2
#     Edge 26, Type (0, 0), BuildingBlock: ZUJKAS_clean_linker_0, # of connection points: 2
#     Edge 27, Type (0, 0), BuildingBlock: ZUJKAS_clean_linker_0, # of connection points: 2
#     Edge 28, Type (0, 0), BuildingBlock: ZUJKAS_clean_linker_0, # of connection points: 2
#     Edge 29, Type (0, 0), BuildingBlock: ZUJKAS_clean_linker_0, # of connection points: 2
#     Edge 30, Type (0, 0), BuildingBlock: ZUJKAS_clean_linker_0, # of connection points: 2
#     Edge 31, Type (0, 0), BuildingBlock: ZUJKAS_clean_linker_0, # of connection points: 2
#     Edge 32, Type (0, 0), BuildingBlock: ZUJKAS_clean_linker_0, # of connection points: 2
#     Edge 33, Type (0, 0), BuildingBlock: ZUJKAS_clean_linker_0, # of connection points: 2
#     Edge 34, Type (0, 0), BuildingBlock: ZUJKAS_clean_linker_0, # of connection points: 2
#     Edge 35, Type (0, 0), BuildingBlock: ZUJKAS_clean_linker_0, # of connection points: 2
#     Edge 36, Type (0, 0), BuildingBlock: ZUJKAS_clean_linker_0, # of connection points: 2
#     Edge 37, Type (0, 0), BuildingBlock: ZUJKAS_clean_linker_0, # of connection points: 2
#     Edge 38, Type (0, 0), BuildingBlock: ZUJKAS_clean_linker_0, # of connection points: 2
#     Edge 39, Type (0, 0), BuildingBlock: ZUJKAS_clean_linker_0, # of connection points: 2
#     Edge 40, Type (0, 0), BuildingBlock: ZUJKAS_clean_linker_0, # of connection points: 2
#     Edge 41, Type (0, 0), BuildingBlock: ZUJKAS_clean_linker_0, # of connection points: 2
#     Edge 42, Type (0, 0), BuildingBlock: ZUJKAS_clean_linker_0, # of connection points: 2
#     Edge 43, Type (0, 0), BuildingBlock: ZUJKAS_clean_linker_0, # of connection points: 2
#     Edge 44, Type (0, 0), BuildingBlock: ZUJKAS_clean_linker_0, # of connection points: 2
#     Edge 45, Type (0, 0), BuildingBlock: ZUJKAS_clean_linker_0, # of connection points: 2
#     Edge 46, Type (0, 0), BuildingBlock: ZUJKAS_clean_linker_0, # of connection points: 2
#     Edge 47, Type (0, 0), BuildingBlock: ZUJKAS_clean_linker_0, # of connection points: 2
# Relax obj value: 0.097
# Max RMSD: 0.203
# Mean RMSD: 0.203
data_MOF--net-wme--node1-KUMBUR_clean_sbu_0--edge1-ZUJKAS_clean_linker_0
_symmetry_space_group_name_H-M    P1
_symmetry_Int_Tables_number       1
_symmetry_cell_setting            triclinic
loop_
_symmetry_equiv_pos_as_xyz
'x, y, z'
_cell_length_a     46.830983
_cell_length_b     46.824634
_cell_length_c     70.94394
_cell_angle_alpha  90.036096
_cell_angle_beta   89.949248
_cell_angle_gamma 119.96132
loop_
_atom_site_label
_atom_site_type_symbol
_atom_site_fract_x
_atom_site_fract_y
_atom_site_fract_z
_atom_type_partial_charge
Tb0 Tb 0.20478 0.36513 0.11291 0.0
C1 C 0.30482 0.35885 0.16729 0.0
C2 C 0.35836 0.3929 0.15316 0.0
C3 C 0.35342 0.38639 0.1872 0.0
C4 C 0.32391 0.37252 0.15152 0.0
C5 C 0.3193 0.36511 0.18534 0.0
C6 C 0.37294 0.40028 0.17112 0.0
C7 C 0.26568 0.32711 0.19809 0.0
N8 N 0.27204 0.33838 0.16483 0.0
C9 C 0.25249 0.32173 0.17991 0.0
C10 C 0.29917 0.3492 0.20087 0.0
Tb11 Tb 0.25247 0.33176 0.13452 0.0
N12 N 0.30885 0.36455 0.13448 0.0
C13 C 0.32736 0.3745 0.11835 0.0
C14 C 0.37715 0.4045 0.13671 0.0
C15 C 0.3616 0.3949 0.11922 0.0
H16 H 0.22652 0.30479 0.17813 0.0
H17 H 0.37593 0.40329 0.10638 0.0
H18 H 0.39932 0.41612 0.1727 0.0
H19 H 0.24996 0.31421 0.20996 0.0
H20 H 0.31592 0.36761 0.10469 0.0
H21 H 0.08337 0.30739 0.14439 0.0
H22 H 0.40368 0.42025 0.13735 0.0
H23 H 0.22718 0.38433 0.06821 0.0
H24 H 0.14379 0.3392 0.14431 0.0
H25 H 0.20134 0.3685 0.03678 0.0
H26 H 0.36501 0.39173 0.20095 0.0
H27 H 0.05291 0.28491 0.11462 0.0
H28 H 0.05446 0.27896 0.07945 0.0
H29 H 0.30931 0.35331 0.21498 0.0
H30 H 0.08677 0.29502 0.05004 0.0
N31 N 0.14834 0.33425 0.11471 0.0
C32 C 0.13117 0.32951 0.13114 0.0
C33 C 0.07961 0.29861 0.11448 0.0
C34 C 0.09714 0.30451 0.09761 0.0
C35 C 0.09671 0.31143 0.13128 0.0
C36 C 0.13187 0.323 0.0982 0.0
H37 H 0.14162 0.32885 0.03395 0.0
N38 N 0.18287 0.3526 0.08307 0.0
C39 C 0.18658 0.35794 0.04932 0.0
C40 C 0.14986 0.33213 0.08175 0.0
C41 C 0.20111 0.36693 0.06716 0.0
C42 C 0.1529 0.33544 0.04778 0.0
C43 C 0.13392 0.32288 0.06413 0.0
O44 O 0.2182 0.41247 0.10266 0.0
O45 O 0.25191 0.37471 0.12366 0.0
O46 O 0.25085 0.36587 0.15466 0.0
O47 O 0.20275 0.3647 0.14448 0.0
O48 O 0.25249 0.40038 0.10041 0.0
O49 O 0.18781 0.39339 0.12726 0.0
O50 O 0.2346 0.2817 0.14071 0.0
O51 O 0.20535 0.323 0.12418 0.0
O52 O 0.20794 0.33008 0.09312 0.0
O53 O 0.25701 0.33467 0.10371 0.0
O54 O 0.2045 0.29646 0.14705 0.0
O55 O 0.27321 0.30683 0.12032 0.0
C56 C 0.27107 0.39684 0.11234 0.0
C57 C 0.17868 0.42915 0.10777 0.0
C58 C 0.15847 0.46861 0.10799 0.0
C59 C 0.17947 0.45756 0.11527 0.0
C60 C 0.13705 0.4508 0.09308 0.0
C61 C 0.157 0.41221 0.09294 0.0
C62 C 0.13632 0.42289 0.08571 0.0
C63 C 0.22531 0.37006 0.15762 0.0
C64 C 0.20066 0.41742 0.11511 0.0
C65 C 0.09949 0.30269 0.06344 0.0
C66 C 0.0811 0.29359 0.08017 0.0
C67 C 0.18614 0.30112 0.13554 0.0
C68 C 0.27122 0.26161 0.13665 0.0
C69 C 0.2582 0.228 0.1323 0.0
C70 C 0.27213 0.20988 0.14 0.0
C71 C 0.29952 0.22639 0.15209 0.0
C72 C 0.29858 0.27741 0.14859 0.0
C73 C 0.31264 0.25984 0.15622 0.0
C74 C 0.23411 0.32644 0.09061 0.0
C75 C 0.25494 0.27925 0.12926 0.0
H76 H 0.19619 0.47081 0.12672 0.0
H77 H 0.12121 0.45884 0.08676 0.0
H78 H 0.15626 0.39093 0.08672 0.0
H79 H 0.11987 0.40963 0.07416 0.0
H80 H 0.23724 0.21611 0.12289 0.0
H81 H 0.31053 0.2134 0.15871 0.0
H82 H 0.30886 0.30317 0.15213 0.0
H83 H 0.33361 0.2721 0.16558 0.0
Tb84 Tb 0.85887 0.19591 0.61276 0.0
C85 C 0.9626 0.29605 0.66812 0.0
C86 C 0.98159 0.34944 0.65392 0.0
C87 C 0.98207 0.34455 0.688 0.0
C88 C 0.96825 0.31507 0.6523 0.0
C89 C 0.97002 0.31054 0.68618 0.0
C90 C 0.98781 0.36399 0.67188 0.0
C91 C 0.95522 0.25719 0.69904 0.0
N92 N 0.95094 0.26336 0.6657 0.0
C93 C 0.94807 0.24397 0.68085 0.0
C94 C 0.96583 0.29055 0.70177 0.0
Tb95 Tb 0.93902 0.24366 0.63539 0.0
N96 N 0.9622 0.30004 0.63526 0.0
C97 C 0.97141 0.31861 0.61916 0.0
C98 C 0.98912 0.36821 0.63744 0.0
C99 C 0.98447 0.35277 0.61999 0.0
H100 H 0.93964 0.21809 0.67909 0.0
H101 H 0.9908 0.36712 0.60714 0.0
H102 H 0.99778 0.3903 0.67343 0.0
H103 H 0.95246 0.24159 0.71096 0.0
H104 H 0.96787 0.30729 0.6055 0.0
H105 H 0.79657 0.07404 0.64368 0.0
H106 H 0.99926 0.39467 0.63805 0.0
H107 H 0.86 0.21788 0.56824 0.0
H108 H 0.82335 0.13437 0.64376 0.0
H109 H 0.85044 0.19233 0.53673 0.0
H110 H 0.98767 0.35614 0.70176 0.0
H111 H 0.79132 0.04416 0.614 0.0
H112 H 0.79996 0.04627 0.5789 0.0
H113 H 0.97132 0.30072 0.71589 0.0
H114 H 0.81521 0.07876 0.54958 0.0
N115 N 0.8346 0.13949 0.61436 0.0
C116 C 0.82158 0.12202 0.63062 0.0
C117 C 0.8035 0.07083 0.61393 0.0
C118 C 0.81538 0.08862 0.59717 0.0
C119 C 0.80623 0.0876 0.63068 0.0
C120 C 0.83062 0.12329 0.59786 0.0
H121 H 0.83333 0.13326 0.53366 0.0
N122 N 0.84984 0.17407 0.5829 0.0
C123 C 0.84727 0.17772 0.5492 0.0
C124 C 0.83888 0.14135 0.58147 0.0
C125 C 0.85256 0.19209 0.56709 0.0
C126 C 0.83779 0.14443 0.54752 0.0
C127 C 0.83264 0.12558 0.56379 0.0
O128 O 0.82454 0.20863 0.60221 0.0
O129 O 0.89585 0.24286 0.62393 0.0
O130 O 0.90245 0.24151 0.65506 0.0
O131 O 0.85619 0.19338 0.64431 0.0
O132 O 0.87143 0.24379 0.60046 0.0
O133 O 0.81355 0.17875 0.62695 0.0
O134 O 0.97077 0.22555 0.64231 0.0
O135 O 0.90153 0.19664 0.62436 0.0
O136 O 0.89766 0.20074 0.59284 0.0
O137 O 0.94219 0.24871 0.60464 0.0
O138 O 0.92566 0.19568 0.64801 0.0
O139 O 0.98532 0.26442 0.62198 0.0
C140 C 0.89325 0.26217 0.61258 0.0
C141 C 0.76857 0.16862 0.60734 0.0
C142 C 0.70985 0.15142 0.6045 0.0
C143 C 0.74149 0.17274 0.61213 0.0
C144 C 0.70578 0.12569 0.59251 0.0
C145 C 0.76348 0.14288 0.59521 0.0
C146 C 0.73237 0.12151 0.58794 0.0
C147 C 0.87274 0.21578 0.65765 0.0
C148 C 0.80212 0.19117 0.61469 0.0
C149 C 0.81982 0.09133 0.56301 0.0
C150 C 0.81111 0.07283 0.5797 0.0
C151 C 0.90363 0.17742 0.63598 0.0
C152 C 1.02763 0.26181 0.63895 0.0
C153 C 0.04768 0.24784 0.63543 0.0
C154 C 0.07961 0.26183 0.64321 0.0
C155 C 0.09095 0.29011 0.6546 0.0
C156 C 0.03952 0.28996 0.6503 0.0
C157 C 0.07107 0.30402 0.65805 0.0
C158 C 0.92785 0.22665 0.59106 0.0
C159 C 0.99406 0.2459 0.63114 0.0
H160 H 0.74515 0.19272 0.62137 0.0
H161 H 0.68181 0.10855 0.5867 0.0
H162 H 0.78356 0.13928 0.59125 0.0
H163 H 0.72887 0.10166 0.57866 0.0
H164 H 0.03839 0.22621 0.62652 0.0
H165 H 0.11504 0.30126 0.66114 0.0
H166 H 1.0244 0.30092 0.65323 0.0
H167 H 0.08009 0.32566 0.66689 0.0
Tb168 Tb 0.6815 0.85017 0.1127 0.0
C169 C 0.68689 0.95636 0.16664 0.0
C170 C 0.65216 0.97478 0.15226 0.0
C171 C 0.65815 0.97645 0.18634 0.0
C172 C 0.67318 0.96139 0.15077 0.0
C173 C 0.6801 0.96435 0.18463 0.0
C174 C 0.64416 0.98163 0.17016 0.0
C175 C 0.7189 0.95 0.19761 0.0
N176 N 0.70788 0.94462 0.16433 0.0
C177 C 0.7247 0.94228 0.17948 0.0
C178 C 0.69615 0.96064 0.20025 0.0
Tb179 Tb 0.71492 0.9314 0.13415 0.0
N180 N 0.68181 0.95469 0.1338 0.0
C181 C 0.67212 0.9633 0.1176 0.0
C182 C 0.64057 0.98169 0.13571 0.0
C183 C 0.65103 0.97639 0.11831 0.0
H184 H 0.74211 0.93379 0.1778 0.0
H185 H 0.64275 0.98225 0.1054 0.0
H186 H 0.62782 0.99164 0.17161 0.0
H187 H 0.732 0.94768 0.20954 0.0
H188 H 0.67964 0.95924 0.10398 0.0
H189 H 0.7393 0.78701 0.14478 0.0
H190 H 0.62426 0.99185 0.13622 0.0
H191 H 0.66084 0.85062 0.06808 0.0
H192 H 0.70698 0.81506 0.14435 0.0
H193 H 0.676 0.83927 0.03677 0.0
H194 H 0.65238 0.9825 0.20004 0.0
H195 H 0.76255 0.77925 0.11522 0.0
H196 H 0.76859 0.78619 0.08003 0.0
H197 H 0.69168 0.96655 0.21432 0.0
H198 H 0.75168 0.80098 0.05043 0.0
N199 N 0.71268 0.82487 0.11478 0.0
C200 C 0.7171 0.81238 0.13127 0.0
C201 C 0.74874 0.79214 0.11493 0.0
C202 C 0.74289 0.80353 0.09797 0.0
C203 C 0.73546 0.79627 0.13161 0.0
C204 C 0.72421 0.81961 0.09837 0.0
H205 H 0.71648 0.82016 0.03412 0.0
N206 N 0.69353 0.83948 0.08302 0.0
C207 C 0.68716 0.83602 0.04933 0.0
C208 C 0.71452 0.82753 0.08183 0.0
C209 C 0.67856 0.84232 0.06711 0.0
C210 C 0.71015 0.82541 0.04789 0.0
C211 C 0.72351 0.82022 0.06429 0.0
O212 O 0.63467 0.81512 0.10221 0.0
O213 O 0.67204 0.8879 0.1233 0.0
O214 O 0.68089 0.89577 0.15434 0.0
O215 O 0.6824 0.84898 0.14424 0.0
O216 O 0.64631 0.86266 0.10013 0.0
O217 O 0.65255 0.80644 0.12811 0.0
O218 O 0.7648 0.96376 0.14081 0.0
O219 O 0.72388 0.89309 0.12373 0.0
O220 O 0.71563 0.88808 0.09241 0.0
O221 O 0.7122 0.93307 0.1034 0.0
O222 O 0.74991 0.91857 0.14684 0.0
O223 O 0.74026 0.97677 0.1198 0.0
C224 C 0.65 0.885 0.11195 0.0
C225 C 0.61774 0.75952 0.1098 0.0
C226 C 0.57786 0.70018 0.11124 0.0
C227 C 0.5874 0.73303 0.11624 0.0
C228 C 0.5988 0.69439 0.09964 0.0
C229 C 0.63768 0.75278 0.09801 0.0
C230 C 0.62834 0.72051 0.09301 0.0
C231 C 0.67694 0.86616 0.15736 0.0
C232 C 0.62905 0.79398 0.11564 0.0
C233 C 0.74416 0.80646 0.06376 0.0
C234 C 0.75377 0.79802 0.08061 0.0
C235 C 0.74561 0.89578 0.13522 0.0
C236 C 0.78504 0.02045 0.13614 0.0
C237 C 0.81933 0.04011 0.1333 0.0
C238 C 0.83686 0.07255 0.14047 0.0
C239 C 0.81926 0.08496 0.15033 0.0
C240 C 0.76817 0.03337 0.14607 0.0
C241 C 0.78524 0.06552 0.15306 0.0
C242 C 0.71995 0.91822 0.09014 0.0
C243 C 0.76758 0.98629 0.12906 0.0
H244 H 0.57164 0.73787 0.12529 0.0
H245 H 0.59203 0.66954 0.09545 0.0
H246 H 0.66052 0.77242 0.09262 0.0
H247 H 0.64408 0.71574 0.08394 0.0
H248 H 0.8324 0.02988 0.12586 0.0
H249 H 0.83175 0.10988 0.15581 0.0
H250 H 0.74188 1.01863 0.14845 0.0
H251 H 0.77207 0.07542 0.16067 0.0
Tb252 Tb 0.85175 0.67268 0.61167 0.0
C253 C 0.7526 0.67895 0.66659 0.0
C254 C 0.69913 0.64569 0.65226 0.0
C255 C 0.70384 0.65087 0.68636 0.0
C256 C 0.73362 0.66586 0.65073 0.0
C257 C 0.73798 0.6722 0.68461 0.0
C258 C 0.68442 0.63762 0.67019 0.0
C259 C 0.79145 0.71017 0.69755 0.0
N260 N 0.78537 0.69957 0.66423 0.0
C261 C 0.80477 0.71603 0.67938 0.0
C262 C 0.75798 0.68781 0.70023 0.0
Tb263 Tb 0.80523 0.70699 0.63397 0.0
N264 N 0.74882 0.67449 0.63373 0.0
C265 C 0.73042 0.66545 0.61756 0.0
C266 C 0.68043 0.63513 0.63574 0.0
C267 C 0.69614 0.64536 0.61832 0.0
H268 H 0.83071 0.73316 0.67762 0.0
H269 H 0.68187 0.63775 0.60544 0.0
H270 H 0.65801 0.62185 0.67167 0.0
H271 H 0.80704 0.72294 0.70948 0.0
H272 H 0.74196 0.67291 0.60393 0.0
H273 H 0.97506 0.73112 0.6405 0.0
H274 H 0.65385 0.6198 0.63628 0.0
H275 H 0.82636 0.6513 0.56754 0.0
H276 H 0.9146 0.69955 0.64172 0.0
H277 H 0.85026 0.6647 0.53559 0.0
H278 H 0.69214 0.64512 0.70009 0.0
H279 H 1.00366 0.75237 0.61004 0.0
H280 H 0.9999 0.75582 0.57485 0.0
H281 H 0.74774 0.68333 0.71434 0.0
H282 H 0.96575 0.73808 0.54616 0.0
N283 N 0.90829 0.70319 0.61221 0.0
C284 C 0.92646 0.70855 0.62827 0.0
C285 C 0.97697 0.73851 0.61047 0.0
C286 C 0.95838 0.73168 0.59397 0.0
C287 C 0.96092 0.72648 0.62767 0.0
C288 C 0.92371 0.71342 0.59532 0.0
H289 H 0.90989 0.70355 0.53136 0.0
N290 N 0.87173 0.6834 0.58136 0.0
C291 C 0.86584 0.67592 0.54776 0.0
C292 C 0.90468 0.70344 0.57928 0.0
C293 C 0.8524 0.66832 0.56592 0.0
C294 C 0.89948 0.69797 0.54542 0.0
C295 C 0.9195 0.71145 0.56131 0.0
O296 O 0.8368 0.62452 0.60223 0.0
O297 O 0.80528 0.66404 0.62294 0.0
O298 O 0.8074 0.67292 0.65394 0.0
O299 O 0.85512 0.6738 0.64317 0.0
O300 O 0.80339 0.63768 0.59977 0.0
O301 O 0.86954 0.64493 0.62578 0.0
O302 O 0.82344 0.75689 0.64079 0.0
O303 O 0.85187 0.71511 0.62325 0.0
O304 O 0.84881 0.70774 0.5919 0.0
O305 O 0.80073 0.70481 0.60314 0.0
O306 O 0.85338 0.74185 0.6463 0.0
O307 O 0.78515 0.73277 0.62011 0.0
C308 C 0.78549 0.64202 0.61184 0.0
C309 C 0.87628 0.6075 0.60635 0.0
C310 C 0.89598 0.56764 0.60643 0.0
C311 C 0.87605 0.57962 0.61421 0.0
C312 C 0.91576 0.58401 0.59068 0.0
C313 C 0.89635 0.62303 0.59069 0.0
C314 C 0.91596 0.61144 0.58297 0.0
C315 C 0.83295 0.6686 0.65655 0.0
C316 C 0.85533 0.62012 0.61421 0.0
C317 C 0.95388 0.73135 0.55984 0.0
C318 C 0.97332 0.74142 0.57617 0.0
C319 C 0.87132 0.73698 0.63454 0.0
C320 C 0.78737 0.77767 0.63692 0.0
C321 C 0.80048 0.81129 0.63261 0.0
C322 C 0.78672 0.82949 0.64042 0.0
C323 C 0.75938 0.81306 0.65256 0.0
C324 C 0.76008 0.76193 0.64892 0.0
C325 C 0.74616 0.77959 0.65666 0.0
C326 C 0.8232 0.71243 0.58981 0.0
C327 C 0.80348 0.75998 0.62936 0.0
H328 H 0.86059 0.56748 0.62632 0.0
H329 H 0.93069 0.5752 0.58397 0.0
H330 H 0.89662 0.64389 0.5842 0.0
H331 H 0.93115 0.62359 0.57078 0.0
H332 H 0.82138 0.82313 0.62314 0.0
H333 H 0.74848 0.82614 0.65924 0.0
H334 H 0.74974 0.73615 0.65244 0.0
H335 H 0.72523 0.76738 0.66606 0.0
Tb336 Tb 0.19589 0.84018 0.1134 0.0
C337 C 0.09422 0.74395 0.17074 0.0
C338 C 0.07141 0.68968 0.157 0.0
C339 C 0.07512 0.69604 0.19106 0.0
C340 C 0.08616 0.72416 0.15506 0.0
C341 C 0.08855 0.73022 0.18898 0.0
C342 C 0.06648 0.67577 0.17508 0.0
C343 C 0.10806 0.78477 0.2016 0.0
N344 N 0.10697 0.77675 0.16806 0.0
C345 C 0.11288 0.79713 0.18321 0.0
C346 C 0.0961 0.7512 0.20451 0.0
Tb347 Tb 0.11663 0.79517 0.13743 0.0
N348 N 0.09142 0.73864 0.13789 0.0
C349 C 0.08035 0.71954 0.12202 0.0
C350 C 0.06133 0.67022 0.14074 0.0
C351 C 0.06555 0.68522 0.12319 0.0
H352 H 0.12246 0.82318 0.18126 0.0
H353 H 0.05749 0.67038 0.11052 0.0
H354 H 0.05552 0.64937 0.17686 0.0
H355 H 0.11367 0.80118 0.21351 0.0
H356 H 0.0835 0.73048 0.10829 0.0
H357 H 0.26175 0.96371 0.14198 0.0
H358 H 0.0497 0.64363 0.1416 0.0
H359 H 0.19127 0.81483 0.06926 0.0
H360 H 0.2333 0.9033 0.14324 0.0
H361 H 0.20072 0.83858 0.0373 0.0
H362 H 0.07076 0.68499 0.20495 0.0
H363 H 0.26762 0.99213 0.11167 0.0
H364 H 0.25859 0.98817 0.0766 0.0
H365 H 0.0923 0.74168 0.21877 0.0
H366 H 0.24146 0.95388 0.04793 0.0
N367 N 0.22179 0.89676 0.11389 0.0
C368 C 0.23539 0.91504 0.12984 0.0
C369 C 0.25477 0.96544 0.11212 0.0
C370 C 0.24229 0.94676 0.09569 0.0
C371 C 0.25167 0.94949 0.12923 0.0
C372 C 0.22612 0.91209 0.09706 0.0
H373 H 0.22047 0.89803 0.0331 0.0
N374 N 0.20415 0.86011 0.08311 0.0
C375 C 0.20511 0.85415 0.04948 0.0
C376 C 0.21663 0.893 0.08105 0.0
C377 C 0.19985 0.8408 0.06764 0.0
C378 C 0.21611 0.88769 0.04717 0.0
C379 C 0.22278 0.90773 0.06307 0.0
O380 O 0.22859 0.82499 0.1033 0.0
O381 O 0.15837 0.79414 0.12524 0.0
O382 O 0.15409 0.79624 0.15592 0.0
O383 O 0.19992 0.84418 0.14487 0.0
O384 O 0.18164 0.79141 0.1017 0.0
O385 O 0.24195 0.85782 0.12685 0.0
O386 O 0.08533 0.81307 0.14594 0.0
O387 O 0.15446 0.8413 0.12566 0.0
O388 O 0.15672 0.83567 0.09393 0.0
O389 O 0.11179 0.78909 0.10675 0.0
O390 O 0.13164 0.84395 0.1495 0.0
O391 O 0.07071 0.77678 0.12394 0.0
C392 C 0.15978 0.77394 0.11404 0.0
C393 C 0.2853 0.86431 0.10679 0.0
C394 C 0.34493 0.88426 0.10624 0.0
C395 C 0.3133 0.86432 0.11433 0.0
C396 C 0.3477 0.90373 0.09045 0.0
C397 C 0.28925 0.88416 0.09111 0.0
C398 C 0.32015 0.90371 0.08305 0.0
C399 C 0.18384 0.82195 0.15833 0.0
C400 C 0.25201 0.84348 0.11502 0.0
C401 C 0.23687 0.94209 0.06161 0.0
C402 C 0.24666 0.96161 0.07792 0.0
C403 C 0.15334 0.86132 0.13709 0.0
C404 C 1.02822 0.7781 0.14143 0.0
C405 C 1.00823 0.79221 0.13805 0.0
C406 C 0.97583 0.77745 0.14525 0.0
C407 C 0.96379 0.74811 0.15572 0.0
C408 C 1.01569 0.74898 0.15195 0.0
C409 C 0.98358 0.73406 0.159 0.0
C410 C 0.12608 0.81027 0.09276 0.0
C411 C 0.0622 0.7945 0.13412 0.0
H412 H 0.31046 0.84909 0.12647 0.0
H413 H 0.37117 0.91864 0.0835 0.0
H414 H 0.26842 0.88435 0.0849 0.0
H415 H 0.32273 0.91871 0.07086 0.0
H416 H 1.01818 0.81499 0.13012 0.0
H417 H 0.9389 0.7358 0.16124 0.0
H418 H 0.03069 0.73783 0.15472 0.0
H419 H 0.97397 0.7115 0.16706 0.0
Tb420 Tb 0.37772 0.1892 0.6124 0.0
C421 C 0.36872 0.08147 0.66542 0.0
C422 C 0.40031 0.06044 0.64978 0.0
C423 C 0.39707 0.05965 0.684 0.0
C424 C 0.38057 0.07534 0.64908 0.0
C425 C 0.37627 0.07321 0.68309 0.0
C426 C 0.40909 0.05328 0.66735 0.0
C427 C 0.34032 0.09021 0.69741 0.0
N428 N 0.34865 0.09446 0.66387 0.0
C429 C 0.33345 0.09784 0.67952 0.0
C430 C 0.36212 0.07818 0.69924 0.0
Tb431 Tb 0.3404 0.10807 0.6341 0.0
N432 N 0.37124 0.0824 0.63245 0.0
C433 C 0.37881 0.07269 0.61588 0.0
C434 C 0.40982 0.05238 0.63283 0.0
C435 C 0.39858 0.05807 0.61581 0.0
H436 H 0.31681 0.1074 0.67835 0.0
H437 H 0.40523 0.05133 0.60261 0.0
H438 H 0.42449 0.04212 0.66821 0.0
H439 H 0.32888 0.09373 0.70979 0.0
H440 H 0.37061 0.07701 0.60255 0.0
H441 H 0.32642 0.25784 0.64522 0.0
H442 H 0.4251 0.04103 0.63273 0.0
H443 H 0.39848 0.18858 0.56788 0.0
H444 H 0.35374 0.22489 0.64449 0.0
H445 H 0.38617 0.20305 0.5367 0.0
H446 H 0.40342 0.05336 0.69745 0.0
H447 H 0.3075 0.2708 0.61564 0.0
H448 H 0.30358 0.26694 0.58031 0.0
H449 H 0.36735 0.07224 0.71311 0.0
H450 H 0.31855 0.25058 0.55061 0.0
N451 N 0.34914 0.21717 0.61474 0.0
C452 C 0.34526 0.22962 0.63141 0.0
C453 C 0.31909 0.25574 0.61522 0.0
C454 C 0.32422 0.24414 0.59811 0.0
C455 C 0.32982 0.24858 0.63192 0.0
C456 C 0.33966 0.22486 0.59836 0.0
H457 H 0.3497 0.22698 0.53416 0.0
N458 N 0.36697 0.20139 0.58281 0.0
C459 C 0.37512 0.2066 0.54923 0.0
C460 C 0.34844 0.21615 0.58175 0.0
C461 C 0.38194 0.19832 0.56694 0.0
C462 C 0.35441 0.21995 0.54785 0.0
C463 C 0.34165 0.22589 0.56428 0.0
O464 O 0.42606 0.22062 0.60255 0.0
O465 O 0.38452 0.14981 0.62304 0.0
O466 O 0.37623 0.14266 0.65395 0.0
O467 O 0.37843 0.1912 0.64399 0.0
O468 O 0.40979 0.17315 0.59936 0.0
O469 O 0.40772 0.23426 0.62653 0.0
O470 O 0.29128 0.07706 0.64276 0.0
O471 O 0.33396 0.1479 0.62364 0.0
O472 O 0.34278 0.15301 0.5918 0.0
O473 O 0.33926 0.10453 0.60324 0.0
O474 O 0.30819 0.12425 0.6472 0.0
O475 O 0.31208 0.06296 0.61998 0.0
C476 C 0.40519 0.15068 0.61131 0.0
C477 C 0.44535 0.27762 0.60679 0.0
C478 C 0.48486 0.33712 0.60777 0.0
C479 C 0.47236 0.30508 0.61539 0.0
C480 C 0.46995 0.34097 0.59148 0.0
C481 C 0.43143 0.28257 0.59051 0.0
C482 C 0.44349 0.31394 0.58299 0.0
C483 C 0.38236 0.17302 0.6571 0.0
C484 C 0.4319 0.2439 0.6146 0.0
C485 C 0.32422 0.24308 0.56388 0.0
C486 C 0.31575 0.25243 0.58079 0.0
C487 C 0.31346 0.14715 0.63543 0.0
C488 C 0.26978 0.02014 0.63791 0.0
C489 C 0.23569 0.99954 0.63504 0.0
C490 C 0.21917 0.96713 0.64224 0.0
C491 C 0.23749 0.95569 0.65219 0.0
C492 C 0.28746 1.00815 0.64785 0.0
C493 C 0.27135 0.97607 0.65492 0.0
C494 C 0.33464 0.12155 0.5899 0.0
C495 C 0.28635 0.05413 0.63066 0.0
H496 H 0.48343 0.30153 0.62792 0.0
H497 H 0.47927 0.36491 0.58495 0.0
H498 H 0.41148 0.26224 0.58335 0.0
H499 H 0.43252 0.31726 0.57036 0.0
H500 H 0.22199 1.00895 0.62749 0.0
H501 H 0.2257 0.9308 0.65769 0.0
H502 H 0.31365 0.02352 0.65014 0.0
H503 H 0.28517 0.96693 0.66255 0.0
Tb504 Tb 0.68297 0.84343 0.40208 0.0
C505 C 0.68833 0.74159 0.34942 0.0
C506 C 0.65565 0.68936 0.3652 0.0
C507 C 0.65917 0.69131 0.33099 0.0
C508 C 0.67609 0.7239 0.3658 0.0
C509 C 0.6806 0.72555 0.3318 0.0
C510 C 0.64668 0.67323 0.34768 0.0
C511 C 0.71772 0.77798 0.31738 0.0
N512 N 0.70895 0.77454 0.35087 0.0
C513 C 0.72455 0.79273 0.33519 0.0
C514 C 0.69529 0.74431 0.31562 0.0
Tb515 Tb 0.71768 0.7968 0.38057 0.0
N516 N 0.68561 0.74045 0.38238 0.0
C517 C 0.67748 0.72339 0.39901 0.0
C518 C 0.64561 0.67204 0.38222 0.0
C519 C 0.657 0.68911 0.39919 0.0
H520 H 0.7417 0.81881 0.33626 0.0
H521 H 0.64992 0.6759 0.41244 0.0
H522 H 0.63076 0.64674 0.34691 0.0
H523 H 0.72979 0.79262 0.30502 0.0
H524 H 0.68582 0.73606 0.4123 0.0
H525 H 0.73098 0.96148 0.36772 0.0
H526 H 0.62978 0.6455 0.38239 0.0
H527 H 0.66455 0.82476 0.44707 0.0
H528 H 0.70441 0.90164 0.36917 0.0
H529 H 0.67988 0.85314 0.47785 0.0
H530 H 0.65269 0.67852 0.31758 0.0
H531 H 0.75509 0.99513 0.39646 0.0
H532 H 0.76307 0.99694 0.43158 0.0
H533 H 0.69004 0.73295 0.3018 0.0
H534 H 0.74957 0.96713 0.4618 0.0
N535 N 0.71144 0.89982 0.39882 0.0
C536 C 0.71425 0.91536 0.38201 0.0
C537 C 0.74292 0.96849 0.3973 0.0
C538 C 0.73907 0.9526 0.41456 0.0
C539 C 0.72967 0.94967 0.38105 0.0
C540 C 0.72247 0.91783 0.41487 0.0
H541 H 0.71802 0.91337 0.47925 0.0
N542 N 0.69577 0.86799 0.43127 0.0
C543 C 0.69021 0.86697 0.465 0.0
C544 C 0.7149 0.90124 0.43174 0.0
C545 C 0.68166 0.85096 0.44753 0.0
C546 C 0.71184 0.90093 0.46574 0.0
C547 C 0.72366 0.91868 0.44894 0.0
O548 O 0.63548 0.82807 0.41282 0.0
O549 O 0.6747 0.79652 0.39185 0.0
O550 O 0.68234 0.79656 0.36068 0.0
O551 O 0.6824 0.8442 0.37056 0.0
O552 O 0.65027 0.79596 0.41562 0.0
O553 O 0.65226 0.85732 0.38773 0.0
O554 O 0.76694 0.8144 0.37249 0.0
O555 O 0.72562 0.84394 0.39045 0.0
O556 O 0.71833 0.84197 0.42224 0.0
O557 O 0.71889 0.79508 0.41145 0.0
O558 O 0.7511 0.84428 0.36707 0.0
O559 O 0.74465 0.77831 0.39459 0.0
C560 C 0.65391 0.77738 0.40371 0.0
C561 C 0.61676 0.86597 0.40768 0.0
C562 C 0.578 0.88684 0.40647 0.0
C563 C 0.58953 0.86619 0.39929 0.0
C564 C 0.59418 0.90703 0.42211 0.0
C565 C 0.63202 0.88629 0.42332 0.0
C566 C 0.62095 0.90674 0.43039 0.0
C567 C 0.67733 0.82152 0.35758 0.0
C568 C 0.62904 0.84444 0.40034 0.0
C569 C 0.74225 0.95327 0.44875 0.0
C570 C 0.74988 0.97023 0.43155 0.0
C571 C 0.74666 0.86284 0.37858 0.0
C572 C 0.78795 0.77866 0.37717 0.0
C573 C 0.82174 0.79203 0.38088 0.0
C574 C 0.83913 0.77702 0.3737 0.0
C575 C 0.82185 0.74823 0.36275 0.0
C576 C 0.77126 0.74996 0.36631 0.0
C577 C 0.7882 0.73483 0.35916 0.0
C578 C 0.72524 0.81783 0.4244 0.0
C579 C 0.77097 0.79562 0.38442 0.0
H580 H 0.57749 0.85048 0.38725 0.0
H581 H 0.58563 0.92256 0.42832 0.0
H582 H 0.65225 0.88613 0.43031 0.0
H583 H 0.63292 0.92214 0.44252 0.0
H584 H 0.83435 0.81403 0.38949 0.0
H585 H 0.83441 0.73629 0.35667 0.0
H586 H 0.74528 0.73935 0.3633 0.0
H587 H 0.77526 0.71276 0.35068 0.0
Tb588 Tb 0.85852 0.67189 0.90068 0.0
C589 C 0.96826 0.68102 0.85059 0.0
C590 C 0.98888 0.64992 0.86713 0.0
C591 C 0.99126 0.65278 0.8329 0.0
C592 C 0.97376 0.66947 0.86723 0.0
C593 C 0.97749 0.67342 0.83321 0.0
C594 C 0.99694 0.64102 0.84985 0.0
C595 C 0.96132 0.70936 0.81808 0.0
N596 N 0.95508 0.70098 0.85156 0.0
C597 C 0.95249 0.71608 0.83566 0.0
C598 C 0.97341 0.68754 0.81679 0.0
Tb599 Tb 0.94049 0.70984 0.8809 0.0
N600 N 0.96591 0.67896 0.88357 0.0
C601 C 0.97486 0.67166 0.90045 0.0
C602 C 0.99629 0.64075 0.8844 0.0
C603 C 0.98963 0.65204 0.90113 0.0
H604 H 0.94287 0.73273 0.83643 0.0
H605 H 0.9958 0.64559 0.91456 0.0
H606 H 1.00829 0.62575 0.84946 0.0
H607 H 0.95883 0.72109 0.80554 0.0
H608 H 0.96983 0.68002 0.91354 0.0
H609 H 0.79755 0.73078 0.86678 0.0
H610 H 1.00786 0.62569 0.88495 0.0
H611 H 0.84809 0.6429 0.94496 0.0
H612 H 0.82425 0.69738 0.86772 0.0
H613 H 0.8321 0.65528 0.97557 0.0
H614 H 0.9983 0.6464 0.81969 0.0
H615 H 0.78871 0.75365 0.89615 0.0
H616 H 0.79146 0.75671 0.93144 0.0
H617 H 0.98024 0.68239 0.80314 0.0
H618 H 0.80104 0.7361 0.96127 0.0
N619 N 0.83321 0.70275 0.89744 0.0
C620 C 0.82146 0.70749 0.88075 0.0
C621 C 0.80098 0.73924 0.89671 0.0
C622 C 0.81031 0.73186 0.91393 0.0
C623 C 0.80584 0.7263 0.88011 0.0
C624 C 0.82594 0.71273 0.91388 0.0
H625 H 0.8153 0.69753 0.97784 0.0
N626 N 0.84243 0.67928 0.92995 0.0
C627 C 0.83197 0.66849 0.96309 0.0
C628 C 0.83091 0.70076 0.93069 0.0
C629 C 0.84101 0.66153 0.94564 0.0
C630 C 0.82264 0.69246 0.96432 0.0
C631 C 0.82104 0.70821 0.94793 0.0
O632 O 0.83385 0.62236 0.89129 0.0
O633 O 0.89892 0.66543 0.89193 0.0
O634 O 0.9061 0.67391 0.86087 0.0
O635 O 0.85899 0.67557 0.8694 0.0
O636 O 0.87469 0.64198 0.91605 0.0
O637 O 0.80647 0.64412 0.90162 0.0
O638 O 0.97235 0.75838 0.87161 0.0
O639 O 0.90051 0.71675 0.8907 0.0
O640 O 0.8922 0.70074 0.92394 0.0
O641 O 0.94373 0.71329 0.91167 0.0
O642 O 0.92554 0.74257 0.86738 0.0
O643 O 0.98505 0.73834 0.89543 0.0
C644 C 0.89785 0.64592 0.90462 0.0
C645 C 0.78318 0.58694 0.9065 0.0
C646 C 0.7286 0.53868 0.91205 0.0
C647 C 0.74964 0.56725 0.90156 0.0
C648 C 0.74185 0.53006 0.92737 0.0
C649 C 0.7956 0.57764 0.92185 0.0
C650 C 0.77503 0.54938 0.93217 0.0
C651 C 0.87675 0.66981 0.85693 0.0
C652 C 0.8048 0.61719 0.89569 0.0
C653 C 0.80827 0.7297 0.94813 0.0
C654 C 0.80283 0.74145 0.93115 0.0
C655 C 0.90252 0.73785 0.87894 0.0
C656 C 1.02896 0.78028 0.8779 0.0
C657 C 0.04909 0.81442 0.88081 0.0
C658 C 0.08239 0.8309 0.8751 0.0
C659 C 0.09501 0.81256 0.86629 0.0
C660 C 0.04208 0.76256 0.86911 0.0
C661 C 0.07495 0.7787 0.86332 0.0
C662 C 0.92456 0.71288 0.92552 0.0
C663 C 0.9945 0.76369 0.88433 0.0
H664 H 0.73988 0.57444 0.88978 0.0
H665 H 0.7266 0.50804 0.93554 0.0
H666 H 0.82118 0.59209 0.92588 0.0
H667 H 0.78488 0.54235 0.94395 0.0
H668 H 0.03894 0.828 0.88777 0.0
H669 H 0.12032 0.82447 0.86146 0.0
H670 H 1.02701 0.73633 0.86677 0.0
H671 H 0.08495 0.76492 0.85648 0.0
Tb672 Tb 0.20939 0.84876 0.40347 0.0
C673 C 0.30301 0.95008 0.34559 0.0
C674 C 0.35732 0.97403 0.35938 0.0
C675 C 0.35103 0.9695 0.32532 0.0
C676 C 0.3228 0.9588 0.36129 0.0
C677 C 0.31679 0.95564 0.32737 0.0
C678 C 0.37129 0.97874 0.34131 0.0
C679 C 0.26215 0.93529 0.3147 0.0
N680 N 0.27015 0.9369 0.34824 0.0
C681 C 0.24973 0.93057 0.33308 0.0
C682 C 0.2958 0.94759 0.31181 0.0
Tb683 Tb 0.25169 0.92735 0.37887 0.0
N684 N 0.30826 0.95374 0.37844 0.0
C685 C 0.32728 0.96558 0.39429 0.0
C686 C 0.37673 0.98479 0.37564 0.0
C687 C 0.36164 0.98087 0.39315 0.0
H688 H 0.22363 0.92073 0.33503 0.0
H689 H 0.37644 0.98951 0.40581 0.0
H690 H 0.39773 0.99005 0.33956 0.0
H691 H 0.24573 0.92932 0.30277 0.0
H692 H 0.31622 0.96262 0.40799 0.0
H693 H 0.08652 0.77603 0.37515 0.0
H694 H 0.40335 0.99676 0.37479 0.0
H695 H 0.23597 0.85784 0.44759 0.0
H696 H 0.14672 0.80933 0.37363 0.0
H697 H 0.21233 0.84713 0.4796 0.0
H698 H 0.36213 0.97376 0.31144 0.0
H699 H 0.05781 0.76638 0.4057 0.0
H700 H 0.06136 0.77503 0.44078 0.0
H701 H 0.30536 0.95129 0.29757 0.0
H702 H 0.0957 0.79542 0.46929 0.0
N703 N 0.15283 0.82039 0.40306 0.0
C704 C 0.13486 0.80604 0.38712 0.0
C705 C 0.08441 0.78159 0.40513 0.0
C706 C 0.10285 0.79537 0.4215 0.0
C707 C 0.10051 0.78688 0.38788 0.0
C708 C 0.13744 0.8146 0.41998 0.0
H709 H 0.15209 0.82197 0.48394 0.0
N710 N 0.18978 0.8407 0.43381 0.0
C711 C 0.19637 0.84111 0.46745 0.0
C712 C 0.15662 0.82557 0.43595 0.0
C713 C 0.20967 0.84711 0.44926 0.0
C714 C 0.16239 0.82705 0.46984 0.0
C715 C 0.14197 0.8183 0.45399 0.0
O716 O 0.22672 0.81814 0.41403 0.0
O717 O 0.25457 0.88685 0.39124 0.0
O718 O 0.25168 0.89029 0.36047 0.0
O719 O 0.20514 0.84359 0.37204 0.0
O720 O 0.25863 0.86551 0.4152 0.0
O721 O 0.19335 0.80248 0.3906 0.0
O722 O 0.23206 0.95696 0.37013 0.0
O723 O 0.20638 0.88884 0.39094 0.0
O724 O 0.21135 0.88748 0.42232 0.0
O725 O 0.25733 0.93319 0.40962 0.0
O726 O 0.20239 0.91022 0.36689 0.0
O727 O 0.2695 0.97381 0.39161 0.0
C728 C 0.27537 0.88696 0.40252 0.0
C729 C 0.18868 0.76091 0.41149 0.0
C730 C 0.1678 0.7012 0.41167 0.0
C731 C 0.1867 0.73255 0.40314 0.0
C732 C 0.1511 0.69893 0.42861 0.0
C733 C 0.17188 0.7576 0.42845 0.0
C734 C 0.15312 0.72688 0.43686 0.0
C735 C 0.22673 0.86003 0.35834 0.0
C736 C 0.2085 0.79385 0.40271 0.0
C737 C 0.10746 0.80104 0.45558 0.0
C738 C 0.08792 0.7894 0.43935 0.0
C739 C 0.18576 0.88855 0.37947 0.0
C740 C 0.26636 1.01432 0.37322 0.0
C741 C 0.25239 0.03429 0.37679 0.0
C742 C 0.26617 0.0661 0.3689 0.0
C743 C 0.29426 0.07745 0.35736 0.0
C744 C 0.29432 0.02613 0.36171 0.0
C745 C 0.30817 0.05759 0.35384 0.0
C746 C 0.23605 0.91845 0.42355 0.0
C747 C 0.25089 0.98105 0.38137 0.0
H748 H 0.19972 0.7349 0.39008 0.0
H749 H 0.13702 0.67558 0.43583 0.0
H750 H 0.17355 0.77877 0.43542 0.0
H751 H 0.14042 0.72477 0.44999 0.0
H752 H 0.23095 0.02509 0.38586 0.0
H753 H 0.30525 0.1015 0.35078 0.0
H754 H 0.30532 1.01106 0.35878 0.0
H755 H 0.32969 0.06658 0.34489 0.0
Tb756 Tb 0.37647 0.20054 0.9011 0.0
C757 C 0.36891 0.3007 0.84744 0.0
C758 C 0.40219 0.35384 0.86216 0.0
C759 C 0.39674 0.34996 0.82806 0.0
C760 C 0.382 0.31931 0.86343 0.0
C761 C 0.37568 0.31573 0.82954 0.0
C762 C 0.40998 0.369 0.84436 0.0
C763 C 0.33887 0.26232 0.81612 0.0
N764 N 0.34871 0.26779 0.84955 0.0
C765 C 0.33281 0.24861 0.83421 0.0
C766 C 0.36065 0.29599 0.81374 0.0
Tb767 Tb 0.34173 0.24718 0.87966 0.0
N768 N 0.37367 0.30366 0.8803 0.0
C769 C 0.38289 0.32165 0.89661 0.0
C770 C 0.41323 0.3721 0.87883 0.0
C771 C 0.40314 0.35594 0.89613 0.0
H772 H 0.31616 0.22251 0.83569 0.0
H773 H 0.41106 0.36986 0.90914 0.0
H774 H 0.42567 0.39547 0.84308 0.0
H775 H 0.32682 0.24686 0.80402 0.0
H776 H 0.37564 0.30974 0.91013 0.0
H777 H 0.3279 0.08077 0.86907 0.0
H778 H 0.42889 0.39866 0.87849 0.0
H779 H 0.3936 0.22195 0.94611 0.0
H780 H 0.35498 0.14085 0.86947 0.0
H781 H 0.37709 0.19519 0.97728 0.0
H782 H 0.40245 0.36199 0.81442 0.0
H783 H 0.30283 0.04875 0.89821 0.0
H784 H 0.29416 0.04893 0.93323 0.0
H785 H 0.36527 0.30655 0.79972 0.0
H786 H 0.30739 0.08041 0.96288 0.0
N787 N 0.3475 0.14413 0.89887 0.0
C788 C 0.34477 0.1277 0.88243 0.0
C789 C 0.31526 0.07543 0.89857 0.0
C790 C 0.31897 0.09229 0.91548 0.0
C791 C 0.32902 0.09333 0.88208 0.0
C792 C 0.33597 0.12705 0.91519 0.0
H793 H 0.33884 0.13506 0.9795 0.0
N794 N 0.36348 0.17773 0.93077 0.0
C795 C 0.3674 0.18066 0.96459 0.0
C796 C 0.34377 0.14458 0.93177 0.0
C797 C 0.37678 0.19571 0.94689 0.0
C798 C 0.34566 0.14675 0.96579 0.0
C799 C 0.33429 0.12811 0.94925 0.0
O800 O 0.42366 0.21499 0.91206 0.0
O801 O 0.38499 0.24747 0.89063 0.0
O802 O 0.37659 0.24679 0.85963 0.0
O803 O 0.37701 0.19933 0.86949 0.0
O804 O 0.40996 0.2482 0.91422 0.0
O805 O 0.40691 0.18617 0.88682 0.0
O806 O 0.29194 0.22941 0.8727 0.0
O807 O 0.33401 0.20009 0.88943 0.0
O808 O 0.34006 0.20181 0.92061 0.0
O809 O 0.34362 0.2507 0.91052 0.0
O810 O 0.30747 0.19948 0.8666 0.0
O811 O 0.31547 0.26569 0.89453 0.0
C812 C 0.40627 0.26668 0.90229 0.0
C813 C 0.44276 0.17749 0.90651 0.0
C814 C 0.48635 0.1631 0.90916 0.0
C815 C 0.47437 0.18301 0.90146 0.0
C816 C 0.46602 0.1373 0.92144 0.0
C817 C 0.42338 0.15169 0.91893 0.0
C818 C 0.43478 0.13163 0.92621 0.0
C819 C 0.38168 0.22185 0.85643 0.0
C820 C 0.43023 0.19897 0.89938 0.0
C821 C 0.31522 0.09354 0.94961 0.0
C822 C 0.30769 0.07563 0.93273 0.0
C823 C 0.31251 0.18102 0.87783 0.0
C824 C 0.27113 0.26522 0.87813 0.0
C825 C 0.23684 0.25039 0.88087 0.0
C826 C 0.21932 0.26553 0.87409 0.0
C827 C 0.23688 0.29597 0.86468 0.0
C828 C 0.28804 0.29547 0.86867 0.0
C829 C 0.27094 0.31076 0.86205 0.0
C830 C 0.33586 0.22757 0.92342 0.0
C831 C 0.28855 0.2483 0.88486 0.0
H832 H 0.48981 0.20309 0.89204 0.0
H833 H 0.47436 0.12141 0.92738 0.0
H834 H 0.39952 0.14717 0.9232 0.0
H835 H 0.41943 0.11177 0.93575 0.0
H836 H 0.22376 0.22675 0.88795 0.0
H837 H 0.22434 0.30854 0.8595 0.0
H838 H 0.31436 0.30721 0.8664 0.0
H839 H 0.28413 0.33418 0.8548 0.0
Tb840 Tb 0.20132 0.36697 0.40274 0.0
C841 C 0.09409 0.36156 0.35035 0.0
C842 C 0.07483 0.39457 0.36607 0.0
C843 C 0.07305 0.39073 0.33187 0.0
C844 C 0.08884 0.37404 0.3667 0.0
C845 C 0.08568 0.36913 0.33272 0.0
C846 C 0.06767 0.40348 0.34854 0.0
C847 C 0.10045 0.33148 0.31841 0.0
N848 N 0.10627 0.34081 0.35184 0.0
C849 C 0.1086 0.32491 0.33621 0.0
C850 C 0.0894 0.35408 0.3166 0.0
Tb851 Tb 0.11997 0.33227 0.38151 0.0
N852 N 0.0958 0.36449 0.38329 0.0
C853 C 0.08676 0.37262 0.39991 0.0
C854 C 0.06755 0.40468 0.38307 0.0
C855 C 0.07304 0.39319 0.40005 0.0
H856 H 0.11743 0.30766 0.33734 0.0
H857 H 0.06685 0.40028 0.41329 0.0
H858 H 0.05719 0.4195 0.34774 0.0
H859 H 0.10269 0.31907 0.3061 0.0
H860 H 0.09094 0.36424 0.41322 0.0
H861 H 0.26562 0.31135 0.36957 0.0
H862 H 0.05689 0.42058 0.38322 0.0
H863 H 0.20394 0.38936 0.4472 0.0
H864 H 0.23567 0.34176 0.37054 0.0
H865 H 0.21725 0.37553 0.47829 0.0
H866 H 0.06668 0.39712 0.31846 0.0
H867 H 0.27589 0.28961 0.39893 0.0
H868 H 0.27157 0.28505 0.43424 0.0
H869 H 0.08315 0.35915 0.30277 0.0
H870 H 0.25686 0.30129 0.46406 0.0
N871 N 0.22681 0.33602 0.4002 0.0
C872 C 0.23919 0.33205 0.38353 0.0
C873 C 0.26206 0.30249 0.39945 0.0
C874 C 0.25079 0.30791 0.4166 0.0
C875 C 0.25645 0.31485 0.38288 0.0
C876 C 0.23308 0.32499 0.41648 0.0
H877 H 0.23697 0.33553 0.48068 0.0
N878 N 0.21336 0.3555 0.43219 0.0
C879 C 0.2195 0.36367 0.46573 0.0
C880 C 0.22558 0.33472 0.43318 0.0
C881 C 0.21196 0.37142 0.44807 0.0
C882 C 0.2304 0.34092 0.46704 0.0
C883 C 0.23468 0.32701 0.45058 0.0
O884 O 0.23482 0.41481 0.41266 0.0
O885 O 0.16277 0.37537 0.39249 0.0
O886 O 0.15503 0.36749 0.36153 0.0
O887 O 0.20248 0.36705 0.37117 0.0
O888 O 0.18727 0.40055 0.41593 0.0
O889 O 0.24579 0.39597 0.38792 0.0
O890 O 0.08769 0.28331 0.37306 0.0
O891 O 0.15884 0.32408 0.39165 0.0
O892 O 0.16478 0.33321 0.42359 0.0
O893 O 0.11698 0.33146 0.41238 0.0
O894 O 0.13421 0.29878 0.36817 0.0
O895 O 0.07516 0.30513 0.39605 0.0
C896 C 0.16469 0.3965 0.40421 0.0
C897 C 0.29097 0.43219 0.40698 0.0
C898 C 0.34915 0.47505 0.40956 0.0
C899 C 0.31719 0.46383 0.40219 0.0
C900 C 0.35449 0.45396 0.42129 0.0
C901 C 0.29733 0.41205 0.41879 0.0
C902 C 0.32878 0.42273 0.42582 0.0
C903 C 0.18485 0.37219 0.35825 0.0
C904 C 0.25702 0.42012 0.39997 0.0
C905 C 0.24988 0.30769 0.45085 0.0
C906 C 0.25826 0.29845 0.43386 0.0
C907 C 0.15699 0.30317 0.3798 0.0
C908 C 0.03119 0.26283 0.37881 0.0
C909 C 1.0107 0.22879 0.3818 0.0
C910 C 0.97759 0.21255 0.37583 0.0
C911 C 0.96547 0.23102 0.36668 0.0
C912 C 1.01862 0.28072 0.36965 0.0
C913 C 0.98589 0.26481 0.36362 0.0
C914 C 0.13362 0.32601 0.42559 0.0
C915 C 0.06546 0.27912 0.38548 0.0
H916 H 0.31264 0.47978 0.39314 0.0
H917 H 0.37878 0.46161 0.42691 0.0
H918 H 0.27802 0.38804 0.42269 0.0
H919 H 0.3332 0.40675 0.43488 0.0
H920 H 1.02045 0.2151 0.38904 0.0
H921 H 0.94029 0.21927 0.36165 0.0
H922 H 0.03402 0.3069 0.36723 0.0
H923 H 0.97631 0.27871 0.35652 0.0
Tb924 Tb 0.85388 0.19159 0.90236 0.0
C925 C 0.74923 0.08376 0.851 0.0
C926 C 0.69726 0.06559 0.86686 0.0
C927 C 0.6988 0.0624 0.8327 0.0
C928 C 0.73177 0.07939 0.86739 0.0
C929 C 0.73298 0.07478 0.83346 0.0
C930 C 0.68095 0.05779 0.84939 0.0
C931 C 0.78497 0.0883 0.81906 0.0
N932 N 0.78211 0.09556 0.8524 0.0
C933 C 0.79995 0.09692 0.83678 0.0
C934 C 0.75142 0.07765 0.81732 0.0
Tb935 Tb 0.8046 0.10967 0.882 0.0
N936 N 0.74846 0.08704 0.88393 0.0
C937 C 0.73159 0.07938 0.90063 0.0
C938 C 0.68012 0.05915 0.8839 0.0
C939 C 0.69735 0.06581 0.90086 0.0
H940 H 0.82592 0.1053 0.83781 0.0
H941 H 0.68427 0.06045 0.91414 0.0
H942 H 0.65449 0.04749 0.84868 0.0
H943 H 0.79933 0.08982 0.80675 0.0
H944 H 0.74436 0.08429 0.91392 0.0
H945 H 0.97158 0.25168 0.86634 0.0
H946 H 0.65357 0.04826 0.88411 0.0
H947 H 0.83789 0.19542 0.94742 0.0
H948 H 0.91152 0.22474 0.86876 0.0
H949 H 0.8673 0.20781 0.97785 0.0
H950 H 0.68586 0.05558 0.81935 0.0
H951 H 1.00527 0.26011 0.89478 0.0
H952 H 1.00774 0.25502 0.92997 0.0
H953 H 0.73989 0.07097 0.80357 0.0
H954 H 0.97907 0.24227 0.96056 0.0
N955 N 0.91007 0.21614 0.8984 0.0
C956 C 0.92542 0.22767 0.8814 0.0
C957 C 0.97867 0.24775 0.89597 0.0
C958 C 0.9631 0.23743 0.91347 0.0
C959 C 0.95975 0.2432 0.87991 0.0
C960 C 0.92841 0.22186 0.91422 0.0
H961 H 0.92663 0.22525 0.97861 0.0
N962 N 0.87965 0.20382 0.93118 0.0
C963 C 0.88029 0.20974 0.96487 0.0
C964 C 0.91249 0.21504 0.9313 0.0
C965 C 0.86374 0.2028 0.9476 0.0
C966 C 0.91373 0.2194 0.96525 0.0
C967 C 0.93049 0.22309 0.94828 0.0
O968 O 0.84273 0.22691 0.91325 0.0
O969 O 0.80602 0.15359 0.89283 0.0
O970 O 0.80499 0.14443 0.86165 0.0
O971 O 0.85361 0.19166 0.87079 0.0
O972 O 0.80717 0.17921 0.91617 0.0
O973 O 0.86767 0.23499 0.88682 0.0
O974 O 0.82191 0.07729 0.87501 0.0
O975 O 0.85237 0.14804 0.89154 0.0
O976 O 0.851 0.1548 0.9231 0.0
O977 O 0.80308 0.10796 0.91288 0.0
O978 O 0.8516 0.12209 0.8683 0.0
O979 O 0.78401 0.06382 0.89592 0.0
C980 C 0.78767 0.15669 0.90469 0.0
C981 C 0.88129 0.28222 0.9052 0.0
C982 C 0.90086 0.3416 0.90422 0.0
C983 C 0.87702 0.3088 0.89948 0.0
C984 C 0.92852 0.34723 0.91485 0.0
C985 C 0.90897 0.28883 0.916 0.0
C986 C 0.93239 0.32102 0.92075 0.0
C987 C 0.83036 0.17394 0.8581 0.0
C988 C 0.85755 0.2478 0.89963 0.0
C989 C 0.9648 0.23627 0.94768 0.0
C990 C 0.98112 0.24355 0.93027 0.0
C991 C 0.87072 0.14507 0.87965 0.0
C992 C 0.78525 0.02064 0.87906 0.0
C993 C 0.79786 0.99973 0.88341 0.0
C994 C 0.78396 0.96787 0.87546 0.0
C995 C 0.75688 0.95747 0.86318 0.0
C996 C 0.75814 1.00953 0.86697 0.0
C997 C 0.74403 0.97805 0.85912 0.0
C998 C 0.8263 0.12415 0.9256 0.0
C999 C 0.80187 0.05447 0.88654 0.0
H1000 H 0.85568 0.30409 0.89119 0.0
H1001 H 0.947 0.37203 0.91885 0.0
H1002 H 0.91259 0.26915 0.92079 0.0
H1003 H 0.95366 0.32567 0.92907 0.0
H1004 H 0.81856 1.00845 0.893 0.0
H1005 H 0.7459 0.93364 0.85634 0.0
H1006 H 0.74812 0.02525 0.86346 0.0
H1007 H 0.72328 0.96971 0.84962 0.0
H1008 H 0.17635 0.90787 0.16407 0.0
H1009 H 0.1931 0.96616 0.16109 0.0
H1010 H 0.16973 0.95228 0.10176 0.0
H1011 H 0.15425 0.8939 0.10467 0.0
H1012 H 0.22454 1.00806 0.10653 0.0
H1013 H 0.13573 1.00568 0.15829 0.0
H1014 H 0.16089 0.99152 0.16916 0.0
H1015 H 0.13397 0.96847 0.14994 0.0
C1016 C 0.175 0.91738 0.15038 0.0
C1017 C 0.16485 0.89672 0.13452 0.0
C1018 C 0.18416 0.95061 0.14872 0.0
C1019 C 0.18199 0.96368 0.13129 0.0
C1020 C 0.17151 0.94288 0.11539 0.0
H1021 H 0.20691 0.16243 0.13482 0.0
H1022 H 0.18387 0.10342 0.12958 0.0
C1023 C 0.16284 0.9096 0.11701 0.0
C1024 C 0.19154 0.9992 0.12978 0.0
H1025 H 0.18242 0.05925 0.15163 0.0
C1026 C 0.21515 1.01916 0.11632 0.0
C1027 C 0.17849 1.01381 0.14202 0.0
C1028 C 0.15059 0.99362 0.15549 0.0
C1029 C 0.22739 0.0534 0.11551 0.0
C1030 C 0.21637 0.06838 0.12884 0.0
C1031 C 0.19149 0.04813 0.14162 0.0
C1032 C 0.23082 0.10492 0.13024 0.0
C1033 C 0.25179 0.07298 0.10021 0.0
C1034 C 0.26498 0.1258 0.13227 0.0
C1035 C 0.27835 0.15978 0.13485 0.0
C1036 C 0.25789 0.17384 0.13592 0.0
C1037 C 0.22365 0.15286 0.13378 0.0
C1038 C 0.21033 0.11889 0.13095 0.0
H1039 H 0.24839 0.05742 0.08764 0.0
H1040 H 0.24947 0.09447 0.09578 0.0
H1041 H 0.27716 0.08206 0.10554 0.0
H1042 H 0.28139 0.11578 0.13232 0.0
H1043 H 0.30484 0.17496 0.13613 0.0
H1044 H 0.27904 0.1457 0.60378 0.0
H1045 H 0.23457 0.15887 0.60187 0.0
H1046 H 0.25132 0.18982 0.66015 0.0
H1047 H 0.29287 0.1731 0.66244 0.0
H1048 H 0.1919 0.15954 0.65638 0.0
H1049 H 0.23395 0.2392 0.59288 0.0
H1050 H 0.22118 0.19705 0.58756 0.0
H1051 H 0.25664 0.22084 0.60212 0.0
C1052 C 0.27332 0.15569 0.61606 0.0
C1053 C 0.28991 0.15924 0.63314 0.0
C1054 C 0.24799 0.16349 0.61496 0.0
C1055 C 0.23971 0.17635 0.63071 0.0
C1056 C 0.25677 0.17999 0.64771 0.0
H1057 H 0.14647 0.29384 0.63727 0.0
H1058 H 0.18195 0.26987 0.63346 0.0
C1059 C 0.28085 0.17075 0.64902 0.0
C1060 C 0.21267 0.18489 0.63018 0.0
H1061 H 0.18367 0.22906 0.60652 0.0
C1062 C 0.19045 0.17494 0.64546 0.0
C1063 C 0.20963 0.20432 0.61577 0.0
C1064 C 0.23175 0.21617 0.59873 0.0
C1065 C 0.16701 0.18521 0.64729 0.0
C1066 C 0.16468 0.20521 0.63314 0.0
C1067 C 0.18563 0.21393 0.61744 0.0
C1068 C 0.14233 0.21923 0.63492 0.0
C1069 C 0.1459 0.17564 0.66481 0.0
C1070 C 0.10804 0.19883 0.63671 0.0
C1071 C 0.08761 0.21253 0.63916 0.0
C1072 C 0.10099 0.24698 0.63972 0.0
C1073 C 0.13527 0.26725 0.63733 0.0
C1074 C 0.15562 0.25356 0.63497 0.0
H1075 H 0.15599 0.167 0.67622 0.0
H1076 H 0.14368 0.19671 0.67021 0.0
H1077 H 0.12081 0.15525 0.66137 0.0
H1078 H 0.09704 0.17228 0.63632 0.0
H1079 H 0.06141 0.19607 0.64103 0.0
H1080 H 0.88242 0.11247 0.16659 0.0
H1081 H 0.9418 0.14829 0.16247 0.0
H1082 H 0.93398 0.11547 0.10496 0.0
H1083 H 0.8742 0.07985 0.10887 0.0
H1084 H 0.98962 0.13053 0.1519 0.0
H1085 H 0.98429 0.21725 0.10035 0.0
H1086 H 0.94914 0.18941 0.11443 0.0
H1087 H 0.96117 0.17414 0.09452 0.0
C1088 C 0.8932 0.11303 0.15299 0.0
C1089 C 0.87337 0.09342 0.13801 0.0
C1090 C 0.92725 0.13342 0.15069 0.0
C1091 C 0.94238 0.13499 0.13333 0.0
C1092 C 0.92283 0.11511 0.1184 0.0
H1093 H 0.15134 0.27023 0.10347 0.0
H1094 H 0.09279 0.22743 0.10148 0.0
C1095 C 0.88869 0.09449 0.12072 0.0
C1096 C 0.97867 0.1572 0.13117 0.0
H1097 H 0.0369 0.22724 0.10918 0.0
C1098 C 0.99995 0.15169 0.14256 0.0
C1099 C 0.99227 0.18452 0.11875 0.0
C1100 C 0.97065 0.19199 0.10637 0.0
C1101 C 0.03428 0.17304 0.14217 0.0
C1102 C 0.04782 0.20138 0.13047 0.0
C1103 C 1.02665 0.20603 0.11844 0.0
C1104 C 0.08343 0.22733 0.1314 0.0
C1105 C 0.05566 0.16466 0.15418 0.0
C1106 C 0.09769 0.24201 0.14876 0.0
C1107 C 0.13098 0.26619 0.14988 0.0
C1108 C 0.15054 0.27726 0.13359 0.0
C1109 C 0.13649 0.26278 0.11616 0.0
C1110 C 0.10312 0.23819 0.11506 0.0
H1111 H 0.04378 0.13764 0.15655 0.0
H1112 H 0.08018 0.17333 0.14763 0.0
H1113 H 0.05927 0.17658 0.16818 0.0
H1114 H 0.08302 0.23488 0.16151 0.0
H1115 H 0.14139 0.27664 0.16351 0.0
H1116 H 0.75428 0.86465 0.63659 0.0
H1117 H 0.77799 0.92386 0.6326 0.0
H1118 H 0.87531 0.93569 0.62989 0.0
H1119 H 0.85201 0.87668 0.63526 0.0
H1120 H 0.87684 0.98027 0.65183 0.0
H1121 H 0.81139 0.98139 0.5875 0.0
H1122 H 0.78253 0.95703 0.60545 0.0
H1123 H 0.81022 0.94444 0.59587 0.0
C1124 C 0.78077 0.87973 0.63527 0.0
C1125 C 0.80111 0.86554 0.63636 0.0
C1126 C 0.7943 0.9137 0.63261 0.0
C1127 C 0.82848 0.93442 0.63052 0.0
C1128 C 0.84884 0.92032 0.63129 0.0
H1129 H 0.90369 0.14469 0.60385 0.0
H1130 H 0.88947 0.08663 0.6013 0.0
C1131 C 0.83537 0.88637 0.6342 0.0
C1132 C 0.84307 0.97093 0.62894 0.0
H1133 H 0.83538 0.03103 0.6061 0.0
C1134 C 0.8679 0.99131 0.6417 0.0
C1135 C 0.83226 0.98577 0.61542 0.0
C1136 C 0.80792 0.966 0.60016 0.0
C1137 C 0.88098 0.02565 0.64193 0.0
C1138 C 0.86809 0.04013 0.62952 0.0
C1139 C 0.84461 0.02003 0.61605 0.0
C1140 C 0.8775 0.07563 0.63089 0.0
C1141 C 0.90882 0.04596 0.65539 0.0
C1142 C 0.87525 0.08887 0.64825 0.0
C1143 C 0.88373 0.12195 0.64972 0.0
C1144 C 0.8932 0.14221 0.6337 0.0
C1145 C 0.89554 0.12924 0.61629 0.0
C1146 C 0.8876 0.09615 0.61488 0.0
H1147 H 0.92374 0.03399 0.65822 0.0
H1148 H 0.92539 0.07111 0.64983 0.0
H1149 H 0.89844 0.04804 0.66906 0.0
H1150 H 0.8666 0.07354 0.66072 0.0
H1151 H 0.88222 0.13158 0.66334 0.0
H1152 H 0.9353 0.78387 0.17065 0.0
H1153 H 0.8991 0.80675 0.1655 0.0
H1154 H 0.93237 0.82906 0.10791 0.0
H1155 H 0.96831 0.80552 0.11285 0.0
H1156 H 0.91642 0.87145 0.15388 0.0
H1157 H 0.83087 0.77727 0.10286 0.0
H1158 H 0.85875 0.77077 0.11741 0.0
H1159 H 0.87405 0.79729 0.0972 0.0
C1160 C 0.93475 0.79332 0.15681 0.0
C1161 C 0.95459 0.79255 0.14213 0.0
C1162 C 0.91414 0.8066 0.15392 0.0
C1163 C 0.9126 0.81923 0.13625 0.0
C1164 C 0.93269 0.81898 0.12159 0.0
H1165 H 0.77709 0.89143 0.10349 0.0
H1166 H 0.82016 0.87586 0.10214 0.0
C1167 C 0.9535 0.80581 0.1245 0.0
C1168 C 0.89027 0.83304 0.13348 0.0
H1169 H 0.82047 0.82008 0.11069 0.0
C1170 C 0.89543 0.86019 0.14443 0.0
C1171 C 0.86318 0.81877 0.12091 0.0
C1172 C 0.85608 0.78927 0.10897 0.0
C1173 C 0.87393 0.87297 0.1435 0.0
C1174 C 0.84581 0.85763 0.13167 0.0
C1175 C 0.84152 0.83145 0.12004 0.0
C1176 C 0.81962 0.867 0.13214 0.0
C1177 C 0.88186 0.90305 0.15511 0.0
C1178 C 0.80449 0.86669 0.14932 0.0
C1179 C 0.78018 0.87565 0.15008 0.0
C1180 C 0.76943 0.88393 0.13359 0.0
C1181 C 0.78431 0.8842 0.11633 0.0
C1182 C 0.80905 0.87554 0.11559 0.0
H1183 H 0.9088 0.91838 0.15763 0.0
H1184 H 0.87316 0.91855 0.14815 0.0
H1185 H 0.86966 0.89514 0.16906 0.0
H1186 H 0.81144 0.8594 0.16223 0.0
H1187 H 0.76942 0.87576 0.16359 0.0
H1188 H 0.91573 0.76105 0.6626 0.0
H1189 H 0.97465 0.80148 0.66053 0.0
H1190 H 0.9657 0.80768 0.60036 0.0
H1191 H 0.9064 0.76707 0.60247 0.0
H1192 H 1.02244 0.79447 0.63815 0.0
H1193 H 1.01445 0.90552 0.6189 0.0
H1194 H 0.98028 0.86942 0.62935 0.0
H1195 H 0.99071 0.86885 0.60507 0.0
C1196 C 0.92644 0.77093 0.64893 0.0
C1197 C 0.90696 0.76015 0.63261 0.0
C1198 C 0.96001 0.79407 0.64776 0.0
C1199 C 0.97459 0.80764 0.63031 0.0
C1200 C 0.95492 0.79771 0.61399 0.0
H1201 H 0.18239 0.95758 0.61019 0.0
H1202 H 0.12334 0.91881 0.60568 0.0
C1203 C 0.92123 0.77423 0.61515 0.0
C1204 C 1.0106 0.83132 0.6294 0.0
H1205 H 0.06759 0.9126 0.62264 0.0
C1206 C 0.03232 0.82022 0.63457 0.0
C1207 C 1.02349 0.86489 0.62467 0.0
C1208 C 1.00116 0.87815 0.61927 0.0
C1209 C 0.0665 0.84178 0.63537 0.0
C1210 C 0.07937 0.87572 0.63151 0.0
C1211 C 0.05774 0.88667 0.62573 0.0
C1212 C 0.11493 0.90026 0.63428 0.0
C1213 C 0.08849 0.82787 0.64028 0.0
C1214 C 0.12969 0.90347 0.65196 0.0
C1215 C 0.16331 0.92546 0.65455 0.0
C1216 C 0.18299 0.94514 0.63957 0.0
C1217 C 0.16793 0.94285 0.62203 0.0
C1218 C 0.13421 0.92062 0.61942 0.0
H1219 H 0.07659 0.80123 0.63675 0.0
H1220 H 0.11245 0.84112 0.63276 0.0
H1221 H 0.09336 0.83043 0.65567 0.0
H1222 H 0.11518 0.88882 0.66381 0.0
H1223 H 0.17392 0.92712 0.66835 0.0
H1224 H 0.15472 0.89251 0.41134 0.0
H1225 H 0.0972 0.87947 0.41399 0.0
H1226 H 0.07974 0.84317 0.3567 0.0
H1227 H 0.13779 0.8597 0.35359 0.0
H1228 H 0.0524 0.87557 0.35982 0.0
H1229 H 1.01594 0.80016 0.42504 0.0
H1230 H 0.04582 0.84254 0.42935 0.0
H1231 H 0.05667 0.81738 0.41542 0.0
C1232 C 0.13829 0.88133 0.39947 0.0
C1233 C 0.15031 0.87626 0.3824 0.0
C1234 C 0.10528 0.87364 0.401 0.0
C1235 C 0.08338 0.85948 0.3857 0.0
C1236 C 0.09572 0.85408 0.36878 0.0
H1237 H 0.87301 0.74434 0.38076 0.0
H1238 H 0.93233 0.76774 0.38473 0.0
C1239 C 0.12888 0.86318 0.36701 0.0
C1240 C 0.04815 0.85168 0.38651 0.0
H1241 H 0.9757 0.80989 0.41106 0.0
C1242 C 0.03576 0.86101 0.37104 0.0
C1243 C 1.02608 0.83344 0.40134 0.0
C1244 C 0.03673 0.8226 0.41865 0.0
C1245 C 1.00216 0.85105 0.36939 0.0
C1246 C 0.98017 0.83214 0.38394 0.0
C1247 C 0.99258 0.82417 0.39984 0.0
C1248 C 0.94394 0.81849 0.38235 0.0
C1249 C 0.99037 0.85969 0.35163 0.0
C1250 C 0.93052 0.8392 0.38001 0.0
C1251 C 0.89655 0.82585 0.37741 0.0
C1252 C 0.87518 0.79145 0.37732 0.0
C1253 C 0.88867 0.77087 0.38033 0.0
C1254 C 0.92262 0.78424 0.3828 0.0
H1255 H 1.00877 0.86732 0.34007 0.0
H1256 H 0.96683 0.83848 0.34666 0.0
H1257 H 0.98611 0.88054 0.35458 0.0
H1258 H 0.94635 0.86573 0.38 0.0
H1259 H 0.88718 0.84251 0.37504 0.0
H1260 H 0.1463 0.86349 0.88737 0.0
H1261 H 0.18327 0.92293 0.8901 0.0
H1262 H 0.10491 0.93987 0.87238 0.0
H1263 H 0.06766 0.88026 0.86966 0.0
H1264 H 0.20152 0.96642 0.8612 0.0
H1265 H 0.14297 1.00227 0.91727 0.0
H1266 H 0.13218 0.95999 0.91313 0.0
H1267 H 0.11593 0.97947 0.89818 0.0
C1268 C 0.13684 0.87982 0.88413 0.0
C1269 C 0.10404 0.86706 0.87818 0.0
C1270 C 0.15797 0.91383 0.88581 0.0
C1271 C 0.14686 0.93597 0.88164 0.0
C1272 C 0.11391 0.92334 0.87609 0.0
H1273 H 0.28547 0.13951 0.84857 0.0
H1274 H 0.24383 0.0811 0.84919 0.0
C1275 C 0.09265 0.88922 0.87448 0.0
C1276 C 0.17067 0.9721 0.88153 0.0
H1277 H 0.18672 0.04592 0.90024 0.0
C1278 C 0.19842 0.98381 0.86985 0.0
C1279 C 0.16667 0.99477 0.89282 0.0
C1280 C 0.13799 0.98355 0.9062 0.0
C1281 C 0.22231 1.0174 0.86906 0.0
C1282 C 0.21816 0.04049 0.88005 0.0
C1283 C 0.19026 0.02861 0.89181 0.0
C1284 C 0.24232 0.07682 0.87964 0.0
C1285 C 0.25178 0.02708 0.85654 0.0
C1286 C 0.2538 0.09504 0.8965 0.0
C1287 C 0.27681 0.12894 0.8961 0.0
C1288 C 0.2897 0.14504 0.87888 0.0
C1289 C 0.27712 0.12729 0.86207 0.0
C1290 C 0.25345 0.09376 0.86243 0.0
H1291 H 0.25777 1.00696 0.85554 0.0
H1292 H 0.24606 0.03184 0.8421 0.0
H1293 H 0.27379 0.04941 0.8617 0.0
H1294 H 0.24524 0.08302 0.91002 0.0
H1295 H 0.2846 0.14251 0.90923 0.0
H1296 H 0.15297 0.2668 0.41102 0.0
H1297 H 0.16375 0.22067 0.41246 0.0
H1298 H 0.19686 0.23907 0.35455 0.0
H1299 H 0.18215 0.28209 0.35265 0.0
H1300 H 0.16525 0.1798 0.35742 0.0
H1301 H 0.24175 0.21652 0.42225 0.0
H1302 H 0.19945 0.20411 0.42686 0.0
H1303 H 0.22462 0.24048 0.41325 0.0
C1304 C 0.16291 0.26104 0.39873 0.0
C1305 C 0.16775 0.27857 0.38187 0.0
C1306 C 0.16934 0.23476 0.39957 0.0
C1307 C 0.18219 0.22652 0.3838 0.0
C1308 C 0.18701 0.24446 0.36701 0.0
H1309 H 0.29816 0.13278 0.37522 0.0
H1310 H 0.27407 0.16806 0.37968 0.0
C1311 C 0.17898 0.26942 0.36593 0.0
C1312 C 0.18972 0.19879 0.38406 0.0
H1313 H 0.23214 0.16748 0.40737 0.0
C1314 C 0.18007 0.17746 0.36837 0.0
C1315 C 0.20821 0.19444 0.39855 0.0
C1316 C 0.21929 0.21522 0.41612 0.0
C1317 C 0.19007 0.15388 0.36615 0.0
C1318 C 0.20944 0.15055 0.38029 0.0
C1319 C 0.21758 0.17036 0.39644 0.0
C1320 C 0.22349 0.12837 0.37804 0.0
C1321 C 0.18098 0.13378 0.34825 0.0
C1322 C 0.20312 0.09416 0.3759 0.0
C1323 C 0.21687 0.07388 0.37312 0.0
C1324 C 0.25132 0.08737 0.37255 0.0
C1325 C 0.27158 0.12156 0.3752 0.0
C1326 C 0.25783 0.14177 0.37792 0.0
H1327 H 0.17238 0.14434 0.33709 0.0
H1328 H 0.20231 0.13213 0.34273 0.0
H1329 H 0.16075 0.10841 0.35128 0.0
H1330 H 0.17656 0.08314 0.3763 0.0
H1331 H 0.20047 0.04772 0.37105 0.0
H1332 H 0.17379 0.26053 0.84817 0.0
H1333 H 0.11427 0.23615 0.85227 0.0
H1334 H 0.12224 0.20946 0.90936 0.0
H1335 H 0.1821 0.23436 0.90546 0.0
H1336 H 0.06701 0.16941 0.86258 0.0
H1337 H 0.07124 0.2606 0.91451 0.0
H1338 H 0.10637 0.26859 0.90019 0.0
H1339 H 0.09511 0.24123 0.91999 0.0
C1340 C 0.16298 0.24974 0.86167 0.0
C1341 C 0.18284 0.24966 0.87653 0.0
C1342 C 0.12889 0.23563 0.86395 0.0
C1343 C 0.1138 0.22134 0.88119 0.0
C1344 C 0.13339 0.22077 0.89601 0.0
H1345 H 0.90544 0.14802 0.91148 0.0
H1346 H 0.96368 0.16263 0.91326 0.0
C1347 C 0.16756 0.23474 0.8937 0.0
C1348 C 0.07754 0.20686 0.88338 0.0
H1349 H 1.01892 0.21782 0.90555 0.0
C1350 C 0.05647 0.18 0.87198 0.0
C1351 C 0.06373 0.22028 0.89588 0.0
C1352 C 0.08516 0.2494 0.9083 0.0
C1353 C 1.0221 0.16666 0.87242 0.0
C1354 C 1.00835 0.18119 0.88419 0.0
C1355 C 1.02934 0.20707 0.89624 0.0
C1356 C 0.97273 0.17135 0.88329 0.0
C1357 C 1.00093 0.13684 0.8604 0.0
C1358 C 0.95837 0.17167 0.86595 0.0
C1359 C 0.92524 0.16318 0.86495 0.0
C1360 C 0.90602 0.15546 0.88135 0.0
C1361 C 0.92009 0.15485 0.89872 0.0
C1362 C 0.95325 0.16297 0.8997 0.0
H1363 H 1.013 0.12184 0.8581 0.0
H1364 H 0.9764 0.12091 0.8669 0.0
H1365 H 0.99737 0.14506 0.84638 0.0
H1366 H 0.9729 0.1789 0.85315 0.0
H1367 H 0.91476 0.16333 0.85136 0.0
H1368 H 0.91335 0.18045 0.3876 0.0
H1369 H 0.87607 0.12107 0.39049 0.0
H1370 H 0.95449 0.1034 0.37383 0.0
H1371 H 0.99203 0.1629 0.37096 0.0
H1372 H 0.8583 0.07718 0.36182 0.0
H1373 H 0.91527 0.04173 0.4189 0.0
H1374 H 0.92635 0.084 0.41446 0.0
H1375 H 0.94284 0.06419 0.39993 0.0
C1376 C 0.92275 0.16396 0.38463 0.0
C1377 C 0.95566 0.17647 0.37894 0.0
C1378 C 0.90144 0.13 0.3864 0.0
C1379 C 0.9125 0.10769 0.38258 0.0
C1380 C 0.94553 0.12008 0.37728 0.0
H1381 H 0.77514 0.90418 0.34937 0.0
H1382 H 0.81674 0.96258 0.35014 0.0
C1383 C 0.96695 0.15413 0.37558 0.0
C1384 C 0.8886 0.07161 0.38255 0.0
H1385 H 0.87204 0.99793 0.40165 0.0
C1386 C 0.86115 0.05984 0.37064 0.0
C1387 C 0.89228 0.04902 0.39408 0.0
C1388 C 0.92061 0.06032 0.4077 0.0
C1389 C 0.8373 0.02626 0.36983 0.0
C1390 C 0.84117 1.00325 0.38103 0.0
C1391 C 0.86873 1.01519 0.39305 0.0
C1392 C 0.8171 0.96694 0.38057 0.0
C1393 C 0.80816 1.01648 0.35704 0.0
C1394 C 0.80501 0.9488 0.39741 0.0
C1395 C 0.78204 0.9149 0.39695 0.0
C1396 C 0.76982 0.89875 0.37967 0.0
C1397 C 0.78302 0.91642 0.3629 0.0
C1398 C 0.80665 0.94995 0.36334 0.0
H1399 H 0.8022 0.03659 0.3558 0.0
H1400 H 0.81425 1.0116 0.34271 0.0
H1401 H 0.78602 0.9942 0.36212 0.0
H1402 H 0.81304 0.96089 0.41095 0.0
H1403 H 0.77367 0.90141 0.41007 0.0
H1404 H 0.88404 0.7646 0.85135 0.0
H1405 H 0.86741 0.80627 0.85415 0.0
H1406 H 0.88341 0.81067 0.91426 0.0
H1407 H 0.8986 0.76753 0.91147 0.0
H1408 H 0.82943 0.81177 0.90781 0.0
H1409 H 0.9232 0.90263 0.85983 0.0
H1410 H 0.89949 0.86431 0.84769 0.0
H1411 H 0.92438 0.86663 0.86768 0.0
C1412 C 0.88392 0.77447 0.86515 0.0
C1413 C 0.8918 0.76242 0.88124 0.0
C1414 C 0.87481 0.7986 0.86673 0.0
C1415 C 0.87482 0.81234 0.88436 0.0
C1416 C 0.8833 0.80064 0.90048 0.0
H1417 H 0.84889 0.98535 0.88173 0.0
H1418 H 0.87166 0.94926 0.8871 0.0
C1419 C 0.89183 0.77593 0.89892 0.0
C1420 C 0.86481 0.83796 0.88587 0.0
H1421 H 0.87544 0.90844 0.86511 0.0
C1422 C 0.83973 0.83306 0.89858 0.0
C1423 C 0.87888 0.86651 0.87435 0.0
C1424 C 0.90824 0.8755 0.8618 0.0
C1425 C 0.82721 0.85482 0.89937 0.0
C1426 C 0.83934 0.88178 0.88667 0.0
C1427 C 0.86554 0.88754 0.87463 0.0
C1428 C 0.82487 0.90384 0.88519 0.0
C1429 C 0.80137 0.84874 0.914 0.0
C1430 C 0.79086 0.89064 0.88242 0.0
C1431 C 0.77757 0.91131 0.87987 0.0
C1432 C 0.79801 0.94587 0.87947 0.0
C1433 C 0.83211 0.95903 0.88227 0.0
C1434 C 0.8453 0.93831 0.88516 0.0
H1435 H 0.80386 0.83588 0.92652 0.0
H1436 H 0.80296 0.87209 0.91873 0.0
H1437 H 0.77656 0.83258 0.90791 0.0
H1438 H 0.77452 0.86423 0.88182 0.0
H1439 H 0.75117 0.90003 0.87808 0.0
H1440 H 0.14104 0.72519 0.0887 0.0
H1441 H 0.13877 0.67228 0.09273 0.0
H1442 H 0.16292 0.69418 0.15161 0.0
H1443 H 0.16383 0.74666 0.14766 0.0
H1444 H 0.18885 0.66522 0.10092 0.0
H1445 H 0.09402 0.59928 0.15588 0.0
H1446 H 0.09875 0.63556 0.14417 0.0
H1447 H 0.12605 0.63939 0.16303 0.0
C1448 C 0.14481 0.71818 0.10263 0.0
C1449 C 0.15195 0.73972 0.11792 0.0
C1450 C 0.14375 0.68802 0.10492 0.0
C1451 C 0.15057 0.67889 0.1225 0.0
C1452 C 0.1568 0.70005 0.13799 0.0
H1453 H 0.21204 0.52829 0.11829 0.0
H1454 H 0.21264 0.57994 0.12514 0.0
C1455 C 0.1573 0.73014 0.13574 0.0
C1456 C 0.15406 0.64885 0.12384 0.0
H1457 H 0.12575 0.57501 0.14648 0.0
C1458 C 0.175 0.64552 0.11091 0.0
C1459 C 0.13615 0.62304 0.13689 0.0
C1460 C 0.11225 0.62424 0.15068 0.0
C1461 C 0.17781 0.61701 0.11022 0.0
C1462 C 0.16006 0.59122 0.12331 0.0
C1463 C 0.13967 0.59481 0.13656 0.0
C1464 C 0.15989 0.5592 0.12223 0.0
C1465 C 0.1986 0.61427 0.09482 0.0
C1466 C 0.12995 0.52975 0.11964 0.0
C1467 C 0.1295 0.50011 0.11619 0.0
C1468 C 0.15901 0.49904 0.11506 0.0
C1469 C 0.18885 0.52811 0.11895 0.0
C1470 C 0.18925 0.55782 0.12261 0.0
H1471 H 0.2037 0.63222 0.08328 0.0
H1472 H 0.22261 0.61948 0.1008 0.0
H1473 H 0.18631 0.5891 0.08867 0.0
H1474 H 0.10688 0.52988 0.1195 0.0
H1475 H 0.10593 0.47811 0.11379 0.0
H1476 H 0.68754 0.16049 0.63879 0.0
H1477 H 0.63459 0.15807 0.64516 0.0
H1478 H 0.61324 0.14795 0.58566 0.0
H1479 H 0.66567 0.15051 0.57925 0.0
H1480 H 0.60524 0.19626 0.63059 0.0
H1481 H 0.53459 0.06494 0.6095 0.0
H1482 H 0.57798 0.0854 0.61514 0.0
H1483 H 0.5646 0.09077 0.59232 0.0
C1484 C 0.67177 0.15835 0.62708 0.0
C1485 C 0.68061 0.15522 0.60854 0.0
C1486 C 0.64146 0.15676 0.63073 0.0
C1487 C 0.61955 0.15196 0.61591 0.0
C1488 C 0.6293 0.1508 0.59736 0.0
H1489 H 0.43908 0.13804 0.58525 0.0
H1490 H 0.4896 0.13556 0.58953 0.0
C1491 C 0.65937 0.15236 0.59372 0.0
C1492 C 0.5861 0.14732 0.6195 0.0
H1493 H 0.50447 0.09381 0.61089 0.0
C1494 C 0.58312 0.17368 0.62664 0.0
C1495 C 0.55721 0.11776 0.61442 0.0
C1496 C 0.55861 0.08796 0.60759 0.0
C1497 C 0.55223 0.17199 0.62768 0.0
C1498 C 0.52351 0.14295 0.6217 0.0
C1499 C 0.52641 0.11607 0.61543 0.0
C1500 C 0.49098 0.14128 0.61984 0.0
C1501 C 0.55077 0.20192 0.63417 0.0
C1502 C 0.47422 0.14425 0.63552 0.0
C1503 C 0.4451 0.14553 0.63307 0.0
C1504 C 0.43212 0.14346 0.61492 0.0
C1505 C 0.44833 0.13931 0.5994 0.0
C1506 C 0.47723 0.13795 0.60184 0.0
H1507 H 0.57566 0.22408 0.63534 0.0
H1508 H 0.53578 0.20744 0.62429 0.0
H1509 H 0.53884 0.19695 0.64824 0.0
H1510 H 0.48406 0.14637 0.64958 0.0
H1511 H 0.43357 0.14941 0.64526 0.0
H1512 H 0.51494 0.68871 0.10603 0.0
H1513 H 0.46337 0.63647 0.11081 0.0
H1514 H 0.51808 0.59396 0.13513 0.0
H1515 H 0.5695 0.64568 0.12978 0.0
H1516 H 0.47907 0.5549 0.10914 0.0
H1517 H 0.40471 0.58898 0.1545 0.0
H1518 H 0.41864 0.61377 0.1336 0.0
H1519 H 0.44823 0.61628 0.15069 0.0
C1520 C 0.51577 0.66847 0.11288 0.0
C1521 C 0.54623 0.67131 0.11758 0.0
C1522 C 0.48624 0.63855 0.11565 0.0
C1523 C 0.48655 0.61107 0.12351 0.0
C1524 C 0.51697 0.61458 0.12904 0.0
H1525 H 0.30191 0.42408 0.14625 0.0
H1526 H 0.35575 0.47421 0.1506 0.0
C1527 C 0.54639 0.64424 0.12605 0.0
C1528 C 0.45595 0.57788 0.1243 0.0
H1529 H 0.37521 0.53701 0.13839 0.0
C1530 C 0.45652 0.55104 0.11575 0.0
C1531 C 0.42644 0.57235 0.13312 0.0
C1532 C 0.42451 0.59931 0.14367 0.0
C1533 C 0.42842 0.51942 0.11522 0.0
C1534 C 0.39841 0.51435 0.12305 0.0
C1535 C 0.39805 0.54081 0.13221 0.0
C1536 C 0.36683 0.48245 0.12079 0.0
C1537 C 0.43129 0.49171 0.10628 0.0
C1538 C 0.35506 0.47014 0.10266 0.0
C1539 C 0.32465 0.44141 0.10021 0.0
C1540 C 0.30513 0.42413 0.11579 0.0
C1541 C 0.3168 0.43625 0.134 0.0
C1542 C 0.34742 0.46513 0.13647 0.0
H1543 H 0.45702 0.49648 0.10687 0.0
H1544 H 0.41493 0.46785 0.11333 0.0
H1545 H 0.4241 0.48954 0.09123 0.0
H1546 H 0.36897 0.48334 0.0903 0.0
H1547 H 0.31595 0.43305 0.08601 0.0
H1548 H 0.8433 0.50928 0.61905 0.0
H1549 H 0.84282 0.45801 0.62676 0.0
H1550 H 0.94762 0.50623 0.6169 0.0
H1551 H 0.94857 0.55766 0.6104 0.0
H1552 H 0.85488 0.42233 0.60422 0.0
H1553 H 0.94395 0.45579 0.66227 0.0
H1554 H 0.92844 0.4824 0.65494 0.0
H1555 H 0.96295 0.48349 0.64293 0.0
C1556 C 0.8664 0.50925 0.61914 0.0
C1557 C 0.89591 0.53767 0.61391 0.0
C1558 C 0.86608 0.47978 0.62341 0.0
C1559 C 0.89525 0.47804 0.62262 0.0
C1560 C 0.92486 0.50678 0.61811 0.0
H1561 H 0.90697 0.30915 0.58668 0.0
H1562 H 0.90838 0.36166 0.5909 0.0
C1563 C 0.92525 0.53621 0.61406 0.0
C1564 C 0.89436 0.44572 0.62438 0.0
H1565 H 0.93495 0.40865 0.64338 0.0
C1566 C 0.87209 0.41932 0.61305 0.0
C1567 C 0.91636 0.44117 0.63608 0.0
C1568 C 0.93898 0.46716 0.64988 0.0
C1569 C 0.87222 0.38937 0.61241 0.0
C1570 C 0.89603 0.38585 0.6229 0.0
C1571 C 0.9172 0.41152 0.63498 0.0
C1572 C 0.89963 0.35602 0.62099 0.0
C1573 C 0.84665 0.36176 0.60045 0.0
C1574 C 0.89647 0.33624 0.63667 0.0
C1575 C 0.89636 0.30636 0.6343 0.0
C1576 C 0.89971 0.29602 0.61623 0.0
C1577 C 0.90443 0.3166 0.60076 0.0
C1578 C 0.90491 0.34646 0.60314 0.0
H1579 H 0.82439 0.36415 0.59856 0.0
H1580 H 0.85711 0.36273 0.58626 0.0
H1581 H 0.83901 0.33729 0.60678 0.0
H1582 H 0.89265 0.34316 0.65061 0.0
H1583 H 0.89211 0.29075 0.64644 0.0
H1584 H 0.62071 0.88499 0.1458 0.0
H1585 H 0.56859 0.8851 0.14989 0.0
H1586 H 0.56486 0.89866 0.09 0.0
H1587 H 0.61618 0.89766 0.08589 0.0
H1588 H 0.54442 0.92637 0.14226 0.0
H1589 H 0.479 0.81457 0.09829 0.0
H1590 H 0.52063 0.82983 0.1064 0.0
H1591 H 0.51275 0.84718 0.08573 0.0
C1592 C 0.60908 0.88869 0.13361 0.0
C1593 C 0.62257 0.8915 0.11552 0.0
C1594 C 0.57917 0.88854 0.13592 0.0
C1595 C 0.56217 0.89092 0.12018 0.0
C1596 C 0.57683 0.89575 0.10231 0.0
H1597 H 0.40734 0.93733 0.10957 0.0
H1598 H 0.4583 0.93718 0.11575 0.0
C1599 C 0.60636 0.89552 0.09998 0.0
C1600 C 0.52857 0.887 0.12207 0.0
H1601 H 0.45078 0.84467 0.10367 0.0
C1602 C 0.52384 0.90827 0.13398 0.0
C1603 C 0.50126 0.86275 0.11174 0.0
C1604 C 0.50353 0.83705 0.1 0.0
C1605 C 0.49316 0.90706 0.13506 0.0
C1606 C 0.46661 0.88458 0.12352 0.0
C1607 C 0.47099 0.86225 0.11236 0.0
C1608 C 0.43487 0.88496 0.1218 0.0
C1609 C 0.48961 0.92981 0.1487 0.0
C1610 C 0.40419 0.85559 0.12284 0.0
C1611 C 0.37473 0.85544 0.11876 0.0
C1612 C 0.37525 0.88466 0.11345 0.0
C1613 C 0.40586 0.9142 0.11329 0.0
C1614 C 0.4352 0.91428 0.11717 0.0
H1615 H 0.50615 0.9353 0.16105 0.0
H1616 H 0.49684 0.95355 0.14157 0.0
H1617 H 0.46388 0.91911 0.15386 0.0
H1618 H 0.40309 0.83253 0.12629 0.0
H1619 H 0.35176 0.83219 0.11891 0.0
H1620 H 0.73694 0.6085 0.58686 0.0
H1621 H 0.68485 0.55749 0.59198 0.0
H1622 H 0.70772 0.56093 0.65115 0.0
H1623 H 0.75933 0.61286 0.64608 0.0
H1624 H 0.6796 0.5018 0.60226 0.0
H1625 H 0.61234 0.53362 0.65497 0.0
H1626 H 0.64821 0.56454 0.64267 0.0
H1627 H 0.65278 0.54304 0.66237 0.0
C1628 C 0.73032 0.59884 0.60105 0.0
C1629 C 0.75184 0.61494 0.61611 0.0
C1630 C 0.70064 0.56957 0.60398 0.0
C1631 C 0.69204 0.55518 0.62198 0.0
C1632 C 0.71321 0.57173 0.6372 0.0
H1633 H 0.54287 0.34291 0.62104 0.0
H1634 H 0.59395 0.39408 0.62855 0.0
C1635 C 0.74279 0.60148 0.6343 0.0
C1636 C 0.66253 0.52157 0.62412 0.0
H1637 H 0.58863 0.47719 0.64685 0.0
C1638 C 0.65975 0.49647 0.61206 0.0
C1639 C 0.6366 0.51439 0.63695 0.0
C1640 C 0.63737 0.54035 0.64988 0.0
C1641 C 0.6315 0.465 0.6119 0.0
C1642 C 0.60549 0.45776 0.62469 0.0
C1643 C 0.60864 0.48254 0.63718 0.0
C1644 C 0.57352 0.426 0.62378 0.0
C1645 C 0.62922 0.44044 0.59731 0.0
C1646 C 0.54437 0.42651 0.62003 0.0
C1647 C 0.51506 0.39731 0.61619 0.0
C1648 C 0.51414 0.36678 0.61584 0.0
C1649 C 0.54269 0.36595 0.62108 0.0
C1650 C 0.57206 0.39529 0.62513 0.0
H1651 H 0.64763 0.45243 0.58585 0.0
H1652 H 0.63402 0.42194 0.60413 0.0
H1653 H 0.6043 0.42732 0.59087 0.0
H1654 H 0.5446 0.44973 0.61913 0.0
H1655 H 0.49335 0.39883 0.61269 0.0
H1656 H 0.32539 0.90667 0.42706 0.0
H1657 H 0.37819 0.90906 0.42209 0.0
H1658 H 0.35314 0.88281 0.36367 0.0
H1659 H 0.30077 0.88159 0.36855 0.0
H1660 H 0.38373 0.85764 0.41342 0.0
H1661 H 0.44815 0.95241 0.35817 0.0
H1662 H 0.41274 0.94825 0.37069 0.0
H1663 H 0.40747 0.92067 0.35167 0.0
C1664 C 0.33168 0.90244 0.41303 0.0
C1665 C 0.3093 0.89458 0.39813 0.0
C1666 C 0.36175 0.90362 0.4102 0.0
C1667 C 0.3699 0.89625 0.39247 0.0
C1668 C 0.34794 0.88936 0.37737 0.0
H1669 H 0.51929 0.83394 0.39464 0.0
H1670 H 0.46804 0.83376 0.38731 0.0
C1671 C 0.31793 0.88868 0.38016 0.0
C1672 C 0.39967 0.89259 0.39061 0.0
H1673 H 0.47267 0.9207 0.36711 0.0
C1674 C 0.40315 0.87144 0.40326 0.0
C1675 C 0.42501 0.91046 0.37732 0.0
C1676 C 0.42342 0.93445 0.36378 0.0
C1677 C 0.43152 0.86844 0.40346 0.0
C1678 C 0.4569 0.88621 0.39016 0.0
C1679 C 0.45311 0.90677 0.37716 0.0
C1680 C 0.48884 0.8864 0.39091 0.0
C1681 C 0.4346 0.84747 0.4186 0.0
C1682 C 0.51817 0.91623 0.39394 0.0
C1683 C 0.54758 0.91648 0.39767 0.0
C1684 C 0.5484 0.88684 0.39864 0.0
C1685 C 0.51958 0.8572 0.39411 0.0
C1686 C 0.49012 0.85702 0.39017 0.0
H1687 H 0.41678 0.84204 0.43028 0.0
H1688 H 0.42949 0.82361 0.41241 0.0
H1689 H 0.45984 0.8598 0.42463 0.0
H1690 H 0.51803 0.9393 0.39436 0.0
H1691 H 0.56949 0.93988 0.40058 0.0
H1692 H 0.70034 0.51698 0.87712 0.0
H1693 H 0.64228 0.4775 0.87004 0.0
H1694 H 0.61872 0.472 0.92917 0.0
H1695 H 0.67617 0.5117 0.93624 0.0
H1696 H 0.60689 0.41348 0.88307 0.0
H1697 H 0.54522 0.48209 0.9058 0.0
H1698 H 0.58908 0.50207 0.90161 0.0
H1699 H 0.57203 0.48167 0.92369 0.0
C1700 C 0.68261 0.5079 0.88854 0.0
C1701 C 0.69296 0.51745 0.90726 0.0
C1702 C 0.64946 0.4852 0.88449 0.0
C1703 C 0.62593 0.47202 0.89903 0.0
C1704 C 0.63614 0.48223 0.91763 0.0
H1705 H 0.44099 0.31199 0.92872 0.0
H1706 H 0.49234 0.36427 0.9247 0.0
C1707 C 0.66915 0.5047 0.92169 0.0
C1708 C 0.59132 0.44561 0.8952 0.0
H1709 H 0.51103 0.42284 0.90448 0.0
C1710 C 0.58587 0.41574 0.88736 0.0
C1711 C 0.56383 0.44852 0.90077 0.0
C1712 C 0.56779 0.48045 0.90825 0.0
C1713 C 0.55397 0.38811 0.88612 0.0
C1714 C 0.52662 0.39055 0.89258 0.0
C1715 C 0.53193 0.42091 0.89955 0.0
C1716 C 0.49311 0.36099 0.8943 0.0
C1717 C 0.55002 0.35598 0.87895 0.0
C1718 C 0.4757 0.34218 0.8785 0.0
C1719 C 0.44618 0.31214 0.8808 0.0
C1720 C 0.43345 0.30073 0.89894 0.0
C1721 C 0.45012 0.32037 0.91459 0.0
C1722 C 0.47946 0.35025 0.9123 0.0
H1723 H 0.57406 0.3568 0.87757 0.0
H1724 H 0.53396 0.33539 0.88854 0.0
H1725 H 0.53819 0.35052 0.86486 0.0
H1726 H 0.48547 0.35018 0.86444 0.0
H1727 H 0.43422 0.2973 0.8685 0.0
H1728 H 0.21778 0.6939 0.39622 0.0
H1729 H 0.21623 0.64226 0.38807 0.0
H1730 H 0.11301 0.5878 0.40254 0.0
H1731 H 0.114 0.63911 0.40965 0.0
H1732 H 0.20588 0.59558 0.41151 0.0
H1733 H 0.11059 0.53839 0.35657 0.0
H1734 H 0.12779 0.58104 0.36331 0.0
H1735 H 0.09435 0.54886 0.3766 0.0
C1736 C 0.19451 0.67103 0.39705 0.0
C1737 C 0.1661 0.67075 0.40377 0.0
C1738 C 0.19369 0.64142 0.39252 0.0
C1739 C 0.16442 0.6109 0.39451 0.0
C1740 C 0.13575 0.61081 0.40042 0.0
H1741 H 0.15201 0.43027 0.43035 0.0
H1742 H 0.15072 0.48147 0.4262 0.0
C1743 C 0.1365 0.64031 0.40479 0.0
C1744 C 0.16458 0.57916 0.39264 0.0
H1745 H 0.12119 0.50079 0.37486 0.0
C1746 C 0.18764 0.57511 0.40323 0.0
C1747 C 0.14114 0.5523 0.38167 0.0
C1748 C 0.11734 0.55551 0.36874 0.0
C1749 C 0.18701 0.54481 0.40385 0.0
C1750 C 0.16198 0.51728 0.39407 0.0
C1751 C 0.13991 0.52163 0.3827 0.0
C1752 C 0.15812 0.48382 0.396 0.0
C1753 C 0.21326 0.54265 0.41505 0.0
C1754 C 0.16064 0.46691 0.38027 0.0
C1755 C 0.16084 0.43722 0.38261 0.0
C1756 C 0.15813 0.42385 0.40071 0.0
C1757 C 0.15401 0.44 0.41626 0.0
C1758 C 0.15355 0.46939 0.41391 0.0
H1759 H 0.23578 0.5672 0.41657 0.0
H1760 H 0.20375 0.53338 0.42941 0.0
H1761 H 0.22021 0.52556 0.40833 0.0
H1762 H 0.16397 0.47742 0.36629 0.0
H1763 H 0.16468 0.4257 0.37041 0.0
H1764 H 0.744 0.15054 0.9313 0.0
H1765 H 0.69295 0.15216 0.92723 0.0
H1766 H 0.70541 0.15541 0.86692 0.0
H1767 H 0.75678 0.15401 0.87096 0.0
H1768 H 0.69272 0.20707 0.90747 0.0
H1769 H 0.60554 0.08513 0.87564 0.0
H1770 H 0.6379 0.09016 0.89147 0.0
H1771 H 0.64797 0.10669 0.86807 0.0
C1772 C 0.73545 0.15082 0.91715 0.0
C1773 C 0.75412 0.15155 0.90146 0.0
C1774 C 0.70633 0.15185 0.91484 0.0
C1775 C 0.69518 0.15373 0.89678 0.0
C1776 C 0.71322 0.15346 0.88099 0.0
H1777 H 0.51541 0.16677 0.87478 0.0
H1778 H 0.56797 0.16795 0.86907 0.0
C1779 C 0.74254 0.1525 0.8833 0.0
C1780 C 0.66636 0.15888 0.89486 0.0
H1781 H 0.58476 0.12036 0.88285 0.0
C1782 C 0.66921 0.18824 0.90188 0.0
C1783 C 0.63579 0.1345 0.88741 0.0
C1784 C 0.63127 0.10222 0.8802 0.0
C1785 C 0.64213 0.19346 0.9022 0.0
C1786 C 0.61109 0.16842 0.89563 0.0
C1787 C 0.60855 0.13962 0.88783 0.0
C1788 C 0.5805 0.17027 0.89861 0.0
C1789 C 0.64692 0.22563 0.90985 0.0
C1790 C 0.5702 0.17146 0.91703 0.0
C1791 C 0.54042 0.17077 0.92027 0.0
C1792 C 0.52008 0.16885 0.90517 0.0
C1793 C 0.53077 0.16867 0.88666 0.0
C1794 C 0.56063 0.16907 0.88341 0.0
H1795 H 0.67304 0.24559 0.90867 0.0
H1796 H 0.63112 0.23338 0.90231 0.0
H1797 H 0.6401 0.22255 0.925 0.0
H1798 H 0.58474 0.17188 0.929 0.0
H1799 H 0.5328 0.17085 0.93468 0.0
H1800 H 0.37152 0.50557 0.37517 0.0
H1801 H 0.42424 0.55636 0.36886 0.0
H1802 H 0.4436 0.56981 0.42854 0.0
H1803 H 0.39138 0.51964 0.43487 0.0
H1804 H 0.45306 0.62514 0.38362 0.0
H1805 H 0.52245 0.56332 0.40534 0.0
H1806 H 0.47934 0.54077 0.399 0.0
H1807 H 0.49164 0.55899 0.42201 0.0
C1808 C 0.38675 0.51982 0.38691 0.0
C1809 C 0.37752 0.50844 0.4055 0.0
C1810 C 0.41691 0.54867 0.3833 0.0
C1811 C 0.43818 0.5664 0.39823 0.0
C1812 C 0.42793 0.55614 0.41679 0.0
H1813 H 0.61863 0.73156 0.42986 0.0
H1814 H 0.56763 0.67902 0.4254 0.0
C1815 C 0.39802 0.52751 0.42039 0.0
C1816 C 0.47169 0.59493 0.39476 0.0
H1817 H 0.55298 0.62218 0.40386 0.0
C1818 C 0.47501 0.62442 0.38769 0.0
C1819 C 0.50031 0.59386 0.4 0.0
C1820 C 0.49842 0.56246 0.40685 0.0
C1821 C 0.50602 0.65342 0.38686 0.0
C1822 C 0.53444 0.65269 0.39301 0.0
C1823 C 0.53122 0.62277 0.3992 0.0
C1824 C 0.56702 0.68326 0.39506 0.0
C1825 C 0.50792 0.68502 0.38041 0.0
C1826 C 0.58422 0.70274 0.37943 0.0
C1827 C 0.61353 0.73283 0.38197 0.0
C1828 C 0.62628 0.74365 0.40017 0.0
C1829 C 0.60953 0.7236 0.41567 0.0
C1830 C 0.5804 0.69363 0.41314 0.0
H1831 H 0.48314 0.68253 0.37904 0.0
H1832 H 0.52277 0.70534 0.39043 0.0
H1833 H 0.52022 0.69207 0.36645 0.0
H1834 H 0.57461 0.69504 0.36532 0.0
H1835 H 0.62545 0.74802 0.36979 0.0
H1836 H 0.90546 0.60985 0.93168 0.0
H1837 H 0.90758 0.55899 0.92799 0.0
H1838 H 0.90451 0.56704 0.86756 0.0
H1839 H 0.90144 0.61755 0.87128 0.0
H1840 H 0.86014 0.50487 0.88021 0.0
H1841 H 0.98232 0.54469 0.91173 0.0
H1842 H 0.95622 0.55187 0.92719 0.0
H1843 H 0.96918 0.57354 0.90511 0.0
C1844 C 0.90591 0.6011 0.9176 0.0
C1845 C 0.90413 0.61815 0.90178 0.0
C1846 C 0.90721 0.57206 0.91549 0.0
C1847 C 0.90674 0.55932 0.89749 0.0
C1848 C 0.90517 0.57646 0.8816 0.0
H1849 H 0.94601 0.3966 0.88565 0.0
H1850 H 0.94587 0.44837 0.88145 0.0
C1851 C 0.9038 0.60556 0.88372 0.0
C1852 C 0.90603 0.52723 0.89545 0.0
H1853 H 0.94618 0.48645 0.90879 0.0
C1854 C 0.87914 0.50092 0.88628 0.0
C1855 C 0.93093 0.52204 0.90316 0.0
C1856 C 0.96145 0.54963 0.91218 0.0
C1857 C 0.876 0.46941 0.88513 0.0
C1858 C 0.9001 0.46381 0.89369 0.0
C1859 C 0.92745 0.49044 0.90236 0.0
C1860 C 0.89775 0.43074 0.89394 0.0
C1861 C 0.84707 0.44259 0.87458 0.0
C1862 C 0.87036 0.40303 0.9019 0.0
C1863 C 0.87022 0.37312 0.90406 0.0
C1864 C 0.8977 0.37055 0.89859 0.0
C1865 C 0.92448 0.39787 0.88999 0.0
C1866 C 0.92447 0.42753 0.88766 0.0
H1867 H 0.83711 0.45302 0.86412 0.0
H1868 H 0.85399 0.42607 0.86711 0.0
H1869 H 0.82708 0.42759 0.88473 0.0
H1870 H 0.84971 0.40491 0.90726 0.0
H1871 H 0.8495 0.35266 0.911 0.0
H1872 H 0.18418 0.4176 0.33479 0.0
H1873 H 0.1943 0.42292 0.30079 0.0
H1874 H 0.21618 0.34365 0.30272 0.0
H1875 H 0.20882 0.34043 0.337 0.0
H1876 H 0.25331 0.38347 0.27847 0.0
H1877 H 0.1305 0.36728 0.26298 0.0
H1878 H 0.15471 0.4041 0.27636 0.0
H1879 H 0.14301 0.36447 0.28653 0.0
C1880 C 0.192 0.40195 0.32795 0.0
C1881 C 0.19611 0.37887 0.33848 0.0
C1882 C 0.19713 0.40451 0.30844 0.0
C1883 C 0.20482 0.38287 0.29887 0.0
C1884 C 0.21007 0.36057 0.30959 0.0
H1885 H 0.16952 0.33805 0.17885 0.0
H1886 H 0.16522 0.34207 0.2131 0.0
C1887 C 0.20606 0.35881 0.32922 0.0
C1888 C 0.20719 0.38318 0.27779 0.0
H1889 H 0.16774 0.38286 0.23712 0.0
C1890 C 0.23441 0.38311 0.26948 0.0
C1891 C 0.1824 0.38219 0.26582 0.0
C1892 C 0.15087 0.37915 0.27338 0.0
C1893 C 0.23752 0.38194 0.24981 0.0
C1894 C 0.21356 0.38261 0.23785 0.0
C1895 C 0.18639 0.38277 0.24613 0.0
C1896 C 0.2155 0.3819 0.21679 0.0
C1897 C 0.26584 0.37858 0.24225 0.0
C1898 C 0.24467 0.40364 0.20717 0.0
C1899 C 0.24733 0.4007 0.1877 0.0
C1900 C 0.22038 0.37706 0.17727 0.0
C1901 C 0.19047 0.35685 0.18655 0.0
C1902 C 0.18812 0.35906 0.20616 0.0
H1903 H 0.27457 0.3671 0.25278 0.0
H1904 H 0.25871 0.36337 0.22929 0.0
H1905 H 0.28685 0.40339 0.23894 0.0
H1906 H 0.26576 0.42242 0.21475 0.0
H1907 H 0.27072 0.41648 0.18083 0.0
H1908 H 0.86902 0.25989 0.68079 0.0
H1909 H 0.85768 0.25435 0.71466 0.0
H1910 H 0.84192 0.15531 0.71291 0.0
H1911 H 0.85058 0.16008 0.6787 0.0
H1912 H 0.80266 0.15583 0.73694 0.0
H1913 H 0.92278 0.26598 0.75267 0.0
H1914 H 0.89748 0.27683 0.739 0.0
H1915 H 0.91107 0.25012 0.72915 0.0
C1916 C 0.86223 0.23666 0.68762 0.0
C1917 C 0.86028 0.21027 0.67718 0.0
C1918 C 0.85639 0.2337 0.70706 0.0
C1919 C 0.85015 0.20485 0.71665 0.0
C1920 C 0.8469 0.17796 0.706 0.0
H1921 H 0.88601 0.19862 0.83669 0.0
H1922 H 0.88987 0.2061 0.80242 0.0
C1923 C 0.85164 0.18056 0.68642 0.0
C1924 C 0.84751 0.20278 0.73771 0.0
H1925 H 0.88546 0.24318 0.77839 0.0
C1926 C 0.82093 0.17489 0.74597 0.0
C1927 C 0.87154 0.22729 0.7497 0.0
C1928 C 0.90248 0.25654 0.74218 0.0
C1929 C 0.8177 0.17074 0.76565 0.0
C1930 C 0.84087 0.19601 0.77762 0.0
C1931 C 0.86741 0.22392 0.76936 0.0
C1932 C 0.83892 0.19349 0.79868 0.0
C1933 C 0.79015 0.13861 0.77321 0.0
C1934 C 0.80943 0.18503 0.80826 0.0
C1935 C 0.80708 0.17999 0.82778 0.0
C1936 C 0.83456 0.18481 0.83827 0.0
C1937 C 0.86464 0.19537 0.82896 0.0
C1938 C 0.86673 0.19941 0.80934 0.0
H1939 H 0.78222 0.1184 0.76273 0.0
H1940 H 0.79771 0.13114 0.78625 0.0
H1941 H 0.76849 0.14141 0.77642 0.0
H1942 H 0.78795 0.1816 0.80064 0.0
H1943 H 0.78356 0.17172 0.83465 0.0
H1944 H 0.63186 0.8666 0.18117 0.0
H1945 H 0.62639 0.85537 0.21503 0.0
H1946 H 0.7049 0.83246 0.21222 0.0
H1947 H 0.70839 0.84112 0.17802 0.0
H1948 H 0.66418 0.79463 0.23632 0.0
H1949 H 0.68351 0.91829 0.25302 0.0
H1950 H 0.6468 0.89523 0.23937 0.0
H1951 H 0.68636 0.90615 0.22936 0.0
C1952 C 0.64735 0.85837 0.18777 0.0
C1953 C 0.67033 0.85441 0.17703 0.0
C1954 C 0.64467 0.85256 0.20721 0.0
C1955 C 0.66605 0.84424 0.21648 0.0
C1956 C 0.68821 0.83907 0.20554 0.0
H1957 H 0.71018 0.87701 0.33643 0.0
H1958 H 0.70662 0.88156 0.30222 0.0
C1959 C 0.69012 0.84383 0.18597 0.0
C1960 C 0.66569 0.84132 0.2375 0.0
H1961 H 0.66668 0.88028 0.27851 0.0
C1962 C 0.66496 0.81352 0.24552 0.0
C1963 C 0.66728 0.86614 0.2497 0.0
C1964 C 0.67139 0.89826 0.24242 0.0
C1965 C 0.66583 0.80984 0.26515 0.0
C1966 C 0.6657 0.83384 0.27735 0.0
C1967 C 0.66636 0.86159 0.26933 0.0
C1968 C 0.66635 0.83152 0.29838 0.0
C1969 C 0.66827 0.78083 0.27242 0.0
C1970 C 0.64431 0.80235 0.30791 0.0
C1971 C 0.64703 0.79953 0.32738 0.0
C1972 C 0.6707 0.82634 0.33788 0.0
C1973 C 0.6913 0.85621 0.32866 0.0
C1974 C 0.68935 0.85868 0.30908 0.0
H1975 H 0.67949 0.77197 0.26178 0.0
H1976 H 0.68326 0.78722 0.28544 0.0
H1977 H 0.64318 0.76013 0.27552 0.0
H1978 H 0.62542 0.78143 0.30028 0.0
H1979 H 0.631 0.77618 0.33422 0.0
H1980 H 0.78857 0.62199 0.68011 0.0
H1981 H 0.79464 0.61656 0.71395 0.0
H1982 H 0.89458 0.69797 0.71136 0.0
H1983 H 0.88923 0.70139 0.67718 0.0
H1984 H 0.89347 0.65812 0.73546 0.0
H1985 H 0.78558 0.67181 0.75189 0.0
H1986 H 0.77353 0.63523 0.73838 0.0
H1987 H 0.80075 0.6751 0.72825 0.0
C1988 C 0.81208 0.6381 0.68676 0.0
C1989 C 0.83855 0.6619 0.6761 0.0
C1990 C 0.81536 0.63545 0.70618 0.0
C1991 C 0.84466 0.65766 0.71552 0.0
C1992 C 0.87159 0.68062 0.70464 0.0
H1993 H 0.85338 0.70172 0.83536 0.0
H1994 H 0.84593 0.69802 0.8011 0.0
C1995 C 0.86864 0.68251 0.68508 0.0
C1996 C 0.84717 0.65741 0.73655 0.0
H1997 H 0.80818 0.6568 0.77747 0.0
C1998 C 0.87488 0.65806 0.74462 0.0
C1999 C 0.82327 0.65787 0.74869 0.0
C2000 C 0.79432 0.66032 0.74136 0.0
C2001 C 0.87946 0.65926 0.76426 0.0
C2002 C 0.85477 0.65811 0.7764 0.0
C2003 C 0.82701 0.65733 0.76833 0.0
C2004 C 0.85773 0.65905 0.79743 0.0
C2005 C 0.91144 0.66311 0.77159 0.0
C2006 C 0.86588 0.63784 0.80706 0.0
C2007 C 0.871 0.64064 0.82656 0.0
C2008 C 0.86652 0.66359 0.837 0.0
C2009 C 0.85641 0.68342 0.82766 0.0
C2010 C 0.85235 0.68139 0.80804 0.0
H2011 H 0.93146 0.67489 0.76096 0.0
H2012 H 0.91949 0.67824 0.78459 0.0
H2013 H 0.9081 0.63843 0.77478 0.0
H2014 H 0.86887 0.61944 0.79948 0.0
H2015 H 0.8789 0.62513 0.83349 0.0
H2016 H 0.20676 0.87792 0.17925 0.0
H2017 H 0.21515 0.88266 0.21344 0.0
H2018 H 0.19711 0.78281 0.21543 0.0
H2019 H 0.18629 0.77746 0.18155 0.0
H2020 H 0.16462 0.78868 0.2415 0.0
H2021 H 0.28829 0.89913 0.24674 0.0
H2022 H 0.26046 0.90841 0.23454 0.0
H2023 H 0.27115 0.87958 0.22447 0.0
C2024 C 0.20563 0.85743 0.18697 0.0
C2025 C 0.19663 0.82758 0.17777 0.0
C2026 C 0.21044 0.8601 0.20655 0.0
C2027 C 0.20744 0.83332 0.21719 0.0
C2028 C 0.19967 0.80392 0.20771 0.0
H2029 H 0.27146 0.85988 0.33426 0.0
H2030 H 0.26526 0.84974 0.3003 0.0
C2031 C 0.1939 0.80096 0.18829 0.0
C2032 C 0.20998 0.83484 0.23824 0.0
H2033 H 0.25665 0.8819 0.27514 0.0
C2034 C 0.18506 0.8089 0.2488 0.0
C2035 C 0.23664 0.86099 0.24798 0.0
C2036 C 0.26579 0.88837 0.23782 0.0
C2037 C 0.18605 0.80828 0.26861 0.0
C2038 C 0.21183 0.83524 0.27838 0.0
C2039 C 0.23671 0.86121 0.26782 0.0
C2040 C 0.21399 0.83709 0.29944 0.0
C2041 C 0.15989 0.77813 0.2787 0.0
C2042 C 0.18709 0.83248 0.31058 0.0
C2043 C 0.19031 0.8369 0.33018 0.0
C2044 C 0.22078 0.84713 0.33891 0.0
C2045 C 0.24751 0.8513 0.32789 0.0
C2046 C 0.24405 0.84593 0.30843 0.0
H2047 H 0.14976 0.75599 0.2695 0.0
H2048 H 0.16965 0.77296 0.29172 0.0
H2049 H 0.13916 0.78211 0.28256 0.0
H2050 H 0.16397 0.82688 0.3041 0.0
H2051 H 0.16967 0.8346 0.3383 0.0
H2052 H 0.41258 0.26995 0.83013 0.0
H2053 H 0.41705 0.26324 0.79632 0.0
H2054 H 0.37238 0.15817 0.80378 0.0
H2055 H 0.36736 0.16466 0.83778 0.0
H2056 H 0.44757 0.2336 0.77495 0.0
H2057 H 0.31162 0.16994 0.76549 0.0
H2058 H 0.33176 0.19275 0.78657 0.0
H2059 H 0.32629 0.15238 0.78286 0.0
C2060 C 0.4041 0.2454 0.82465 0.0
C2061 C 0.38947 0.21779 0.83667 0.0
C2062 C 0.40671 0.24164 0.80529 0.0
C2063 C 0.39462 0.21019 0.79746 0.0
C2064 C 0.38146 0.18265 0.8095 0.0
H2065 H 0.41375 0.15605 0.68319 0.0
H2066 H 0.41865 0.16739 0.717 0.0
C2067 C 0.37896 0.18642 0.82896 0.0
C2068 C 0.39461 0.20638 0.77662 0.0
H2069 H 0.34352 0.17544 0.73846 0.0
C2070 C 0.42484 0.2208 0.76697 0.0
C2071 C 0.36492 0.19025 0.76618 0.0
C2072 C 0.33174 0.17564 0.77571 0.0
C2073 C 0.42616 0.21898 0.7472 0.0
C2074 C 0.39648 0.20223 0.73681 0.0
C2075 C 0.36626 0.18824 0.74644 0.0
C2076 C 0.39621 0.19805 0.716 0.0
C2077 C 0.45927 0.23537 0.73752 0.0
C2078 C 0.38214 0.21169 0.7041 0.0
C2079 C 0.37946 0.20538 0.68464 0.0
C2080 C 0.39033 0.18488 0.67683 0.0
C2081 C 0.40526 0.17208 0.68875 0.0
C2082 C 0.40815 0.17858 0.7081 0.0
H2083 H 0.47911 0.25346 0.74687 0.0
H2084 H 0.46558 0.21632 0.73343 0.0
H2085 H 0.45861 0.2482 0.72451 0.0
H2086 H 0.37259 0.22665 0.70993 0.0
H2087 H 0.36739 0.21517 0.67593 0.0
H2088 H 0.34576 0.28514 0.93839 0.0
H2089 H 0.32174 0.29385 0.96656 0.0
H2090 H 0.27103 0.18941 0.97794 0.0
H2091 H 0.29622 0.18059 0.94966 0.0
H2092 H 0.25946 0.27333 0.97453 0.0
H2093 H 0.3097 0.22495 0.02887 0.0
H2094 H 0.32419 0.23194 1.00483 0.0
H2095 H 0.28564 0.19603 0.0108 0.0
C2096 C 0.3297 0.2639 0.94688 0.0
C2097 C 0.32286 0.2321 0.94166 0.0
C2098 C 0.31584 0.26896 0.96305 0.0
C2099 C 0.29448 0.24241 0.97453 0.0
C2100 C 0.28783 0.21048 0.96956 0.0
H2101 H 0.18878 0.29093 0.06265 0.0
H2102 H 0.19809 0.26622 0.03434 0.0
C2103 C 0.30217 0.20541 0.95335 0.0
C2104 C 0.2792 0.24894 0.99134 0.0
H2105 H 0.27578 0.24542 0.03948 0.0
C2106 C 0.26281 0.26697 0.98874 0.0
C2107 C 0.28355 0.24078 0.00993 0.0
C2108 C 0.30194 0.22261 0.01389 0.0
C2109 C 0.25206 0.27829 1.00409 0.0
C2110 C 0.2569 0.2706 0.02269 0.0
C2111 C 0.27196 0.2513 0.02526 0.0
C2112 C 0.25008 0.28524 0.03969 0.0
C2113 C 0.23733 0.29994 1.00022 0.0
C2114 C 0.27586 0.30383 0.05229 0.0
C2115 C 0.27051 0.31752 0.06845 0.0
C2116 C 0.23918 0.31322 0.07256 0.0
C2117 C 0.21328 0.295 0.05984 0.0
C2118 C 0.21863 0.28092 0.04361 0.0
H2119 H 0.24216 0.30955 0.98556 0.0
H2120 H 0.21024 0.28537 1.00223 0.0
H2121 H 0.24733 0.32119 0.01008 0.0
H2122 H 0.30038 0.30783 0.04963 0.0
H2123 H 0.29118 0.33145 0.07779 0.0
H2124 H 0.07472 0.26997 0.42851 0.0
H2125 H 0.03904 0.24874 0.45632 0.0
H2126 H 0.11405 0.32688 0.48993 0.0
H2127 H 0.14958 0.34842 0.46204 0.0
H2128 H 0.04973 0.22962 0.4946 0.0
H2129 H 0.02988 0.33715 0.49354 0.0
H2130 H 0.04603 0.32588 0.47353 0.0
H2131 H 0.07215 0.34669 0.49329 0.0
C2132 C 0.08384 0.28225 0.44192 0.0
C2133 C 0.11519 0.3106 0.44315 0.0
C2134 C 0.06343 0.27006 0.4578 0.0
C2135 C 0.07373 0.28631 0.47519 0.0
C2136 C 0.10554 0.31397 0.47663 0.0
H2137 H 0.98732 0.28011 0.58246 0.0
H2138 H 1.02002 0.2911 0.55417 0.0
C2139 C 0.1261 0.32602 0.46074 0.0
C2140 C 0.0504 0.27562 0.49142 0.0
H2141 H 1.00671 0.30015 0.519 0.0
C2142 C 0.04021 0.24494 0.49995 0.0
C2143 C 0.03771 0.29547 0.49822 0.0
C2144 C 0.04669 0.32803 0.48913 0.0
C2145 C 1.0187 0.23419 0.51559 0.0
C2146 C 1.00638 0.25431 0.5226 0.0
C2147 C 1.01605 0.28465 0.5137 0.0
C2148 C 0.9856 0.24596 0.53998 0.0
C2149 C 1.01039 0.20199 0.52489 0.0
C2150 C 0.95495 0.21671 0.54166 0.0
C2151 C 0.93593 0.21002 0.55819 0.0
C2152 C 0.94698 0.2327 0.57321 0.0
C2153 C 0.97762 0.26193 0.57131 0.0
C2154 C 0.99655 0.2684 0.555 0.0
H2155 H 1.02777 0.19346 0.52068 0.0
H2156 H 1.01081 0.20425 0.54048 0.0
H2157 H 0.98522 0.18281 0.52061 0.0
H2158 H 0.94557 0.19918 0.53017 0.0
H2159 H 0.91276 0.18712 0.5592 0.0
H2160 H 0.74496 0.90222 0.05883 0.0
H2161 H 0.7683 0.93547 0.03006 0.0
H2162 H 0.75003 1.01029 0.05265 0.0
H2163 H 0.72641 0.97764 0.0808 0.0
H2164 H 0.73525 0.96323 1.00473 0.0
H2165 H 0.85072 0.05936 0.03808 0.0
H2166 H 0.82649 1.01838 0.04776 0.0
H2167 H 0.81362 0.04832 0.05103 0.0
C2168 C 0.74561 0.92557 0.05757 0.0
C2169 C 0.73357 0.93697 0.07223 0.0
C2170 C 0.75914 0.94465 0.04117 0.0
C2171 C 0.76134 0.97563 0.03934 0.0
C2172 C 0.7491 0.98677 0.05385 0.0
H2173 H 0.82116 0.13918 0.9625 0.0
H2174 H 0.80791 0.10258 0.98989 0.0
C2175 C 0.73542 0.96779 0.07 0.0
C2176 C 0.77565 0.99657 0.02226 0.0
H2177 H 0.83719 0.07251 0.00819 0.0
C2178 C 0.75784 0.98687 1.00534 0.0
C2179 C 0.80483 0.02766 0.0232 0.0
C2180 C 0.82525 0.03907 0.04094 0.0
C2181 C 0.76771 1.00792 0.98955 0.0
C2182 C 0.79679 0.03927 0.99051 0.0
C2183 C 0.81496 0.0486 1.00737 0.0
C2184 C 0.80821 0.0629 0.97433 0.0
C2185 C 0.74594 0.99692 0.9723 0.0
C2186 C 0.81419 0.05353 0.95662 0.0
C2187 C 0.82171 0.07441 0.94104 0.0
C2188 C 0.82425 0.10548 0.94286 0.0
C2189 C 0.82013 0.11575 0.96075 0.0
C2190 C 0.81223 0.09464 0.97637 0.0
H2191 H 0.7205 0.97706 0.97566 0.0
H2192 H 0.74459 1.0178 0.96582 0.0
H2193 H 0.75627 0.98707 0.96172 0.0
H2194 H 0.81225 0.02968 0.95471 0.0
H2195 H 0.82482 0.06591 0.92739 0.0
H2196 H 0.77031 0.71884 0.58017 0.0
H2197 H 0.76143 0.74185 0.55163 0.0
H2198 H 0.85519 0.7606 0.52989 0.0
H2199 H 0.86473 0.73772 0.55888 0.0
H2200 H 0.80279 0.80733 0.53664 0.0
H2201 H 0.78696 0.70808 0.48715 0.0
H2202 H 0.78316 0.70203 0.51236 0.0
H2203 H 0.82308 0.72629 0.50188 0.0
C2204 C 0.78922 0.72769 0.56941 0.0
C2205 C 0.81821 0.726 0.57188 0.0
C2206 C 0.78401 0.74096 0.55303 0.0
C2207 C 0.80745 0.75276 0.53854 0.0
C2208 C 0.83652 0.75124 0.54081 0.0
H2209 H 0.78243 0.81704 0.42668 0.0
H2210 H 0.80611 0.80527 0.45435 0.0
C2211 C 0.84191 0.73806 0.55737 0.0
C2212 C 0.80097 0.76679 0.52129 0.0
H2213 H 0.7797 0.75057 0.47484 0.0
C2214 C 0.79805 0.79511 0.52306 0.0
C2215 C 0.79482 0.7509 0.50359 0.0
C2216 C 0.79692 0.72002 0.50099 0.0
C2217 C 0.7888 0.80775 0.50771 0.0
C2218 C 0.78138 0.79113 0.49015 0.0
C2219 C 0.78524 0.76332 0.48826 0.0
C2220 C 0.76863 0.80143 0.47373 0.0
C2221 C 0.78732 0.83894 0.51047 0.0
C2222 C 0.73973 0.8035 0.47528 0.0
C2223 C 0.72639 0.81061 0.45947 0.0
C2224 C 0.74153 0.81558 0.44176 0.0
C2225 C 0.77052 0.81379 0.44023 0.0
C2226 C 0.78399 0.80692 0.45603 0.0
H2227 H 0.80367 0.85409 0.52215 0.0
H2228 H 0.79456 0.85411 0.49744 0.0
H2229 H 0.76175 0.8324 0.51419 0.0
H2230 H 0.72669 0.79828 0.48858 0.0
H2231 H 0.70327 0.81026 0.46095 0.0
H2232 H 0.90525 0.68877 0.9616 0.0
H2233 H 0.93872 0.70893 0.99045 0.0
H2234 H 1.01667 0.78807 0.95882 0.0
H2235 H 0.98351 0.76819 0.93018 0.0
H2236 H 1.00467 0.71586 0.99323 0.0
H2237 H 1.00761 0.83413 1.00699 0.0
H2238 H 0.97573 0.80146 0.99304 0.0
H2239 H 1.01583 0.82748 0.9831 0.0
C2240 C 0.92907 0.71099 0.96095 0.0
C2241 C 0.94161 0.72702 0.94365 0.0
C2242 C 0.94833 0.72235 0.97739 0.0
C2243 C 0.98015 0.75024 0.97685 0.0
C2244 C 0.99209 0.76686 0.9597 0.0
H2245 H 0.14104 0.84758 0.05994 0.0
H2246 H 0.10748 0.83394 0.03109 0.0
C2247 C 0.97312 0.75533 0.94331 0.0
C2248 C 1.00214 0.76046 0.99368 0.0
H2249 H 0.04428 0.82376 0.02484 0.0
C2250 C 1.01313 0.73934 1.00023 0.0
C2251 C 1.0138 0.79143 1.00255 0.0
C2252 C 1.00253 0.81494 0.9962 0.0
C2253 C 0.03551 0.74834 0.0153 0.0
C2254 C 0.04661 0.77899 0.02452 0.0
C2255 C 0.0359 0.80032 0.01782 0.0
C2256 C 0.06743 0.78809 0.04187 0.0
C2257 C 0.04755 0.72508 0.02093 0.0
C2258 C 0.05596 0.7674 0.05766 0.0
C2259 C 0.07514 0.77483 0.0739 0.0
C2260 C 0.1064 0.80351 0.07506 0.0
C2261 C 0.11757 0.82492 0.05944 0.0
C2262 C 0.09825 0.81726 0.04299 0.0
H2263 H 0.04587 0.70889 0.00902 0.0
H2264 H 0.07349 0.73872 0.0259 0.0
H2265 H 0.0319 0.70899 0.03254 0.0
H2266 H 0.03193 0.74531 0.05746 0.0
H2267 H 0.06513 0.75779 0.08559 0.0
H2268 H 0.1968 0.9024 0.45552 0.0
H2269 H 0.20754 0.93572 0.48426 0.0
H2270 H 0.29789 1.01222 0.45995 0.0
H2271 H 0.28786 0.97945 0.43165 0.0
H2272 H 0.26546 0.96256 0.50876 0.0
H2273 H 0.24929 0.06136 0.47655 0.0
H2274 H 0.23372 0.02133 0.46577 0.0
H2275 H 0.27659 0.05193 0.46367 0.0
C2276 C 0.21907 0.92617 0.45636 0.0
C2277 C 0.24151 0.93792 0.44121 0.0
C2278 C 0.22509 0.9453 0.47277 0.0
C2279 C 0.25332 0.97675 0.47417 0.0
C2280 C 0.27565 0.98837 0.45911 0.0
H2281 H 0.35763 0.13607 0.55344 0.0
H2282 H 0.33497 0.10061 0.52568 0.0
C2283 C 0.26985 0.96933 0.44288 0.0
C2284 C 0.26041 0.99743 0.49144 0.0
H2285 H 0.27601 0.07336 0.50649 0.0
C2286 C 0.26728 0.98657 0.50837 0.0
C2287 C 0.26313 0.02894 0.49089 0.0
C2288 C 0.25502 0.04154 0.47329 0.0
C2289 C 0.27802 1.00682 0.52452 0.0
C2290 C 0.28122 0.03859 0.52389 0.0
C2291 C 0.27366 0.04913 0.50704 0.0
C2292 C 0.29322 0.06152 0.5404 0.0
C2293 C 0.28725 0.9945 0.54182 0.0
C2294 C 0.2768 0.05209 0.55782 0.0
C2295 C 0.28967 0.07251 0.57365 0.0
C2296 C 0.31887 0.10315 0.57236 0.0
C2297 C 0.33456 0.11326 0.55478 0.0
C2298 C 0.32179 0.0927 0.53894 0.0
H2299 H 0.29196 0.97405 0.53842 0.0
H2300 H 0.30956 1.01461 0.54868 0.0
H2301 H 0.26664 0.98503 0.5521 0.0
H2302 H 0.25432 0.02859 0.55929 0.0
H2303 H 0.27709 0.06402 0.58704 0.0
loop_
_geom_bond_atom_site_label_1
_geom_bond_atom_site_label_2
_geom_bond_distance
_geom_bond_site_symmetry_2
_ccdc_geom_bond_type
Tb0 N31 2.660 . S
Tb0 N38 2.600 . S
Tb0 O44 2.546 . S
Tb0 O45 2.610 . S
Tb0 O47 2.320 . S
Tb0 O48 2.552 . S
Tb0 O49 2.413 . S
Tb0 O51 2.362 . S
Tb0 O52 2.421 . S
Tb0 C64 2.833 . S
C1 C4 1.432 . S
C1 C5 1.414 . S
C1 N8 1.359 . S
C2 C4 1.417 . S
C2 C6 1.432 . S
C2 C14 1.410 . S
C3 C5 1.444 . S
C3 C6 1.317 . S
C3 H26 0.929 . S
C4 C1 1.432 . S
C4 C2 1.417 . S
C4 N12 1.360 . S
C5 C1 1.414 . S
C5 C3 1.444 . S
C5 C10 1.385 . S
C6 C2 1.432 . S
C6 C3 1.317 . S
C6 H18 0.930 . S
C7 C9 1.392 . S
C7 C10 1.370 . S
C7 H19 0.931 . S
N8 C1 1.359 . S
N8 C9 1.327 . S
N8 Tb11 2.600 . S
C9 C7 1.392 . S
C9 N8 1.327 . S
C9 H16 0.930 . S
C10 C5 1.385 . S
C10 C7 1.370 . S
C10 H29 0.930 . S
Tb11 N8 2.600 . S
Tb11 N12 2.660 . S
Tb11 O45 2.362 . S
Tb11 O46 2.421 . S
Tb11 O50 2.546 . S
Tb11 O51 2.610 . S
Tb11 O53 2.320 . S
Tb11 O54 2.552 . S
Tb11 O55 2.413 . S
Tb11 C75 2.833 . S
N12 C4 1.360 . S
N12 Tb11 2.660 . S
N12 C13 1.305 . S
C13 N12 1.305 . S
C13 C15 1.407 . S
C13 H20 0.930 . S
C14 C2 1.410 . S
C14 C15 1.345 . S
C14 H22 0.930 . S
C15 C13 1.407 . S
C15 C14 1.345 . S
C15 H17 0.930 . S
H16 C9 0.930 . S
H17 C15 0.930 . S
H18 C6 0.930 . S
H19 C7 0.931 . S
H20 C13 0.930 . S
H21 C35 0.930 . S
H22 C14 0.930 . S
H23 C41 0.930 . S
H24 C32 0.930 . S
H25 C39 0.931 . S
H26 C3 0.929 . S
H27 C33 0.930 . S
H28 C66 0.930 . S
H29 C10 0.930 . S
H30 C65 0.929 . S
N31 Tb0 2.660 . S
N31 C32 1.305 . S
N31 C36 1.360 . S
C32 H24 0.930 . S
C32 N31 1.305 . S
C32 C35 1.407 . S
C33 H27 0.930 . S
C33 C34 1.410 . S
C33 C35 1.345 . S
C34 C33 1.410 . S
C34 C36 1.417 . S
C34 C66 1.432 . S
C35 H21 0.930 . S
C35 C32 1.407 . S
C35 C33 1.345 . S
C36 N31 1.360 . S
C36 C34 1.417 . S
C36 C40 1.432 . S
H37 C42 0.930 . S
N38 Tb0 2.600 . S
N38 C40 1.359 . S
N38 C41 1.327 . S
C39 H25 0.931 . S
C39 C41 1.392 . S
C39 C42 1.370 . S
C40 C36 1.432 . S
C40 N38 1.359 . S
C40 C43 1.414 . S
C41 H23 0.930 . S
C41 N38 1.327 . S
C41 C39 1.392 . S
C42 H37 0.930 . S
C42 C39 1.370 . S
C42 C43 1.385 . S
C43 C40 1.414 . S
C43 C42 1.385 . S
C43 C65 1.444 . S
O44 Tb0 2.546 . S
O44 C64 1.251 . S
O45 Tb0 2.610 . S
O45 Tb11 2.362 . S
O45 C56 1.283 . S
O46 Tb11 2.421 . S
O46 C63 1.262 . S
O47 Tb0 2.320 . S
O47 C63 1.260 . S
O48 Tb0 2.552 . S
O48 C56 1.243 . S
O49 Tb0 2.413 . S
O49 C64 1.256 . S
O50 Tb11 2.546 . S
O50 C75 1.251 . S
O51 Tb0 2.362 . S
O51 Tb11 2.610 . S
O51 C67 1.283 . S
O52 Tb0 2.421 . S
O52 C74 1.262 . S
O53 Tb11 2.320 . S
O53 C74 1.260 . S
O54 Tb11 2.552 . S
O54 C67 1.243 . S
O55 Tb11 2.413 . S
O55 C75 1.256 . S
C56 O45 1.283 . S
C56 O48 1.243 . S
C57 C59 1.382 . S
C57 C61 1.393 . S
C57 C64 1.500 . S
C58 C59 1.400 . S
C58 C60 1.384 . S
C59 C57 1.382 . S
C59 C58 1.400 . S
C59 H76 0.930 . S
C60 C58 1.384 . S
C60 C62 1.392 . S
C60 H77 0.931 . S
C61 C57 1.393 . S
C61 C62 1.401 . S
C61 H78 0.930 . S
C62 C60 1.392 . S
C62 C61 1.401 . S
C62 H79 0.930 . S
C63 O46 1.262 . S
C63 O47 1.260 . S
C64 Tb0 2.833 . S
C64 O44 1.251 . S
C64 O49 1.256 . S
C64 C57 1.500 . S
C65 H30 0.929 . S
C65 C43 1.444 . S
C65 C66 1.317 . S
C66 H28 0.930 . S
C66 C34 1.432 . S
C66 C65 1.317 . S
C67 O51 1.283 . S
C67 O54 1.243 . S
C68 C69 1.382 . S
C68 C72 1.393 . S
C68 C75 1.500 . S
C69 C68 1.382 . S
C69 C70 1.400 . S
C69 H80 0.930 . S
C70 C69 1.400 . S
C70 C71 1.384 . S
C71 C70 1.384 . S
C71 C73 1.392 . S
C71 H81 0.931 . S
C72 C68 1.393 . S
C72 C73 1.401 . S
C72 H82 0.930 . S
C73 C71 1.392 . S
C73 C72 1.401 . S
C73 H83 0.930 . S
C74 O52 1.262 . S
C74 O53 1.260 . S
C75 Tb11 2.833 . S
C75 O50 1.251 . S
C75 O55 1.256 . S
C75 C68 1.500 . S
H76 C59 0.930 . S
H77 C60 0.931 . S
H78 C61 0.930 . S
H79 C62 0.930 . S
H80 C69 0.930 . S
H81 C71 0.931 . S
H82 C72 0.930 . S
H83 C73 0.930 . S
Tb84 N115 2.660 . S
Tb84 N122 2.600 . S
Tb84 O128 2.546 . S
Tb84 O129 2.610 . S
Tb84 O131 2.320 . S
Tb84 O132 2.552 . S
Tb84 O133 2.413 . S
Tb84 O135 2.362 . S
Tb84 O136 2.421 . S
Tb84 C148 2.833 . S
C85 C88 1.432 . S
C85 C89 1.414 . S
C85 N92 1.359 . S
C86 C88 1.417 . S
C86 C90 1.432 . S
C86 C98 1.410 . S
C87 C89 1.444 . S
C87 C90 1.317 . S
C87 H110 0.929 . S
C88 C85 1.432 . S
C88 C86 1.417 . S
C88 N96 1.360 . S
C89 C85 1.414 . S
C89 C87 1.444 . S
C89 C94 1.385 . S
C90 C86 1.432 . S
C90 C87 1.317 . S
C90 H102 0.930 . S
C91 C93 1.392 . S
C91 C94 1.370 . S
C91 H103 0.931 . S
N92 C85 1.359 . S
N92 C93 1.327 . S
N92 Tb95 2.600 . S
C93 C91 1.392 . S
C93 N92 1.327 . S
C93 H100 0.930 . S
C94 C89 1.385 . S
C94 C91 1.370 . S
C94 H113 0.930 . S
Tb95 N92 2.600 . S
Tb95 N96 2.660 . S
Tb95 O129 2.362 . S
Tb95 O130 2.421 . S
Tb95 O134 2.546 . S
Tb95 O135 2.610 . S
Tb95 O137 2.320 . S
Tb95 O138 2.552 . S
Tb95 O139 2.413 . S
Tb95 C159 2.833 . S
N96 C88 1.360 . S
N96 Tb95 2.660 . S
N96 C97 1.305 . S
C97 N96 1.305 . S
C97 C99 1.407 . S
C97 H104 0.930 . S
C98 C86 1.410 . S
C98 C99 1.345 . S
C98 H106 0.930 . S
C99 C97 1.407 . S
C99 C98 1.345 . S
C99 H101 0.930 . S
H100 C93 0.930 . S
H101 C99 0.930 . S
H102 C90 0.930 . S
H103 C91 0.931 . S
H104 C97 0.930 . S
H105 C119 0.930 . S
H106 C98 0.930 . S
H107 C125 0.930 . S
H108 C116 0.930 . S
H109 C123 0.931 . S
H110 C87 0.929 . S
H111 C117 0.930 . S
H112 C150 0.930 . S
H113 C94 0.930 . S
H114 C149 0.929 . S
N115 Tb84 2.660 . S
N115 C116 1.305 . S
N115 C120 1.360 . S
C116 H108 0.930 . S
C116 N115 1.305 . S
C116 C119 1.407 . S
C117 H111 0.930 . S
C117 C118 1.410 . S
C117 C119 1.345 . S
C118 C117 1.410 . S
C118 C120 1.417 . S
C118 C150 1.432 . S
C119 H105 0.930 . S
C119 C116 1.407 . S
C119 C117 1.345 . S
C120 N115 1.360 . S
C120 C118 1.417 . S
C120 C124 1.432 . S
H121 C126 0.930 . S
N122 Tb84 2.600 . S
N122 C124 1.359 . S
N122 C125 1.327 . S
C123 H109 0.931 . S
C123 C125 1.392 . S
C123 C126 1.370 . S
C124 C120 1.432 . S
C124 N122 1.359 . S
C124 C127 1.414 . S
C125 H107 0.930 . S
C125 N122 1.327 . S
C125 C123 1.392 . S
C126 H121 0.930 . S
C126 C123 1.370 . S
C126 C127 1.385 . S
C127 C124 1.414 . S
C127 C126 1.385 . S
C127 C149 1.444 . S
O128 Tb84 2.546 . S
O128 C148 1.251 . S
O129 Tb84 2.610 . S
O129 Tb95 2.362 . S
O129 C140 1.283 . S
O130 Tb95 2.421 . S
O130 C147 1.262 . S
O131 Tb84 2.320 . S
O131 C147 1.260 . S
O132 Tb84 2.552 . S
O132 C140 1.243 . S
O133 Tb84 2.413 . S
O133 C148 1.256 . S
O134 Tb95 2.546 . S
O134 C159 1.251 . S
O135 Tb84 2.362 . S
O135 Tb95 2.610 . S
O135 C151 1.283 . S
O136 Tb84 2.421 . S
O136 C158 1.262 . S
O137 Tb95 2.320 . S
O137 C158 1.260 . S
O138 Tb95 2.552 . S
O138 C151 1.243 . S
O139 Tb95 2.413 . S
O139 C159 1.256 . S
C140 O129 1.283 . S
C140 O132 1.243 . S
C141 C143 1.382 . S
C141 C145 1.393 . S
C141 C148 1.500 . S
C142 C143 1.400 . S
C142 C144 1.384 . S
C143 C141 1.382 . S
C143 C142 1.400 . S
C143 H160 0.930 . S
C144 C142 1.384 . S
C144 C146 1.392 . S
C144 H161 0.931 . S
C145 C141 1.393 . S
C145 C146 1.401 . S
C145 H162 0.930 . S
C146 C144 1.392 . S
C146 C145 1.401 . S
C146 H163 0.930 . S
C147 O130 1.262 . S
C147 O131 1.260 . S
C148 Tb84 2.833 . S
C148 O128 1.251 . S
C148 O133 1.256 . S
C148 C141 1.500 . S
C149 H114 0.929 . S
C149 C127 1.444 . S
C149 C150 1.317 . S
C150 H112 0.930 . S
C150 C118 1.432 . S
C150 C149 1.317 . S
C151 O135 1.283 . S
C151 O138 1.243 . S
C152 C153 1.382 . S
C152 C156 1.393 . S
C152 C159 1.500 . S
C153 C152 1.382 . S
C153 C154 1.400 1_655 S
C153 H164 0.930 . S
C154 C153 1.400 1_455 S
C154 C155 1.384 . S
C155 C154 1.384 . S
C155 C157 1.392 . S
C155 H165 0.931 . S
C156 C152 1.393 . S
C156 C157 1.401 1_655 S
C156 H166 0.930 . S
C157 C155 1.392 . S
C157 C156 1.401 1_455 S
C157 H167 0.930 . S
C158 O136 1.262 . S
C158 O137 1.260 . S
C159 Tb95 2.833 . S
C159 O134 1.251 . S
C159 O139 1.256 . S
C159 C152 1.500 . S
H160 C143 0.930 . S
H161 C144 0.931 . S
H162 C145 0.930 . S
H163 C146 0.930 . S
H164 C153 0.930 . S
H165 C155 0.931 . S
H166 C156 0.930 . S
H167 C157 0.930 . S
Tb168 N199 2.660 . S
Tb168 N206 2.600 . S
Tb168 O212 2.546 . S
Tb168 O213 2.610 . S
Tb168 O215 2.320 . S
Tb168 O216 2.552 . S
Tb168 O217 2.413 . S
Tb168 O219 2.362 . S
Tb168 O220 2.421 . S
Tb168 C232 2.833 . S
C169 C172 1.432 . S
C169 C173 1.414 . S
C169 N176 1.359 . S
C170 C172 1.417 . S
C170 C174 1.432 . S
C170 C182 1.410 . S
C171 C173 1.444 . S
C171 C174 1.317 . S
C171 H194 0.929 . S
C172 C169 1.432 . S
C172 C170 1.417 . S
C172 N180 1.360 . S
C173 C169 1.414 . S
C173 C171 1.444 . S
C173 C178 1.385 . S
C174 C170 1.432 . S
C174 C171 1.317 . S
C174 H186 0.930 . S
C175 C177 1.392 . S
C175 C178 1.370 . S
C175 H187 0.931 . S
N176 C169 1.359 . S
N176 C177 1.327 . S
N176 Tb179 2.600 . S
C177 C175 1.392 . S
C177 N176 1.327 . S
C177 H184 0.930 . S
C178 C173 1.385 . S
C178 C175 1.370 . S
C178 H197 0.930 . S
Tb179 N176 2.600 . S
Tb179 N180 2.660 . S
Tb179 O213 2.362 . S
Tb179 O214 2.421 . S
Tb179 O218 2.546 . S
Tb179 O219 2.610 . S
Tb179 O221 2.320 . S
Tb179 O222 2.552 . S
Tb179 O223 2.413 . S
Tb179 C243 2.833 . S
N180 C172 1.360 . S
N180 Tb179 2.660 . S
N180 C181 1.305 . S
C181 N180 1.305 . S
C181 C183 1.407 . S
C181 H188 0.930 . S
C182 C170 1.410 . S
C182 C183 1.345 . S
C182 H190 0.930 . S
C183 C181 1.407 . S
C183 C182 1.345 . S
C183 H185 0.930 . S
H184 C177 0.930 . S
H185 C183 0.930 . S
H186 C174 0.930 . S
H187 C175 0.931 . S
H188 C181 0.930 . S
H189 C203 0.930 . S
H190 C182 0.930 . S
H191 C209 0.930 . S
H192 C200 0.930 . S
H193 C207 0.931 . S
H194 C171 0.929 . S
H195 C201 0.930 . S
H196 C234 0.930 . S
H197 C178 0.930 . S
H198 C233 0.929 . S
N199 Tb168 2.660 . S
N199 C200 1.305 . S
N199 C204 1.360 . S
C200 H192 0.930 . S
C200 N199 1.305 . S
C200 C203 1.407 . S
C201 H195 0.930 . S
C201 C202 1.410 . S
C201 C203 1.345 . S
C202 C201 1.410 . S
C202 C204 1.417 . S
C202 C234 1.432 . S
C203 H189 0.930 . S
C203 C200 1.407 . S
C203 C201 1.345 . S
C204 N199 1.360 . S
C204 C202 1.417 . S
C204 C208 1.432 . S
H205 C210 0.930 . S
N206 Tb168 2.600 . S
N206 C208 1.359 . S
N206 C209 1.327 . S
C207 H193 0.931 . S
C207 C209 1.392 . S
C207 C210 1.370 . S
C208 C204 1.432 . S
C208 N206 1.359 . S
C208 C211 1.414 . S
C209 H191 0.930 . S
C209 N206 1.327 . S
C209 C207 1.392 . S
C210 H205 0.930 . S
C210 C207 1.370 . S
C210 C211 1.385 . S
C211 C208 1.414 . S
C211 C210 1.385 . S
C211 C233 1.444 . S
O212 Tb168 2.546 . S
O212 C232 1.251 . S
O213 Tb168 2.610 . S
O213 Tb179 2.362 . S
O213 C224 1.283 . S
O214 Tb179 2.421 . S
O214 C231 1.262 . S
O215 Tb168 2.320 . S
O215 C231 1.260 . S
O216 Tb168 2.552 . S
O216 C224 1.243 . S
O217 Tb168 2.413 . S
O217 C232 1.256 . S
O218 Tb179 2.546 . S
O218 C243 1.251 . S
O219 Tb168 2.362 . S
O219 Tb179 2.610 . S
O219 C235 1.283 . S
O220 Tb168 2.421 . S
O220 C242 1.262 . S
O221 Tb179 2.320 . S
O221 C242 1.260 . S
O222 Tb179 2.552 . S
O222 C235 1.243 . S
O223 Tb179 2.413 . S
O223 C243 1.256 . S
C224 O213 1.283 . S
C224 O216 1.243 . S
C225 C227 1.382 . S
C225 C229 1.393 . S
C225 C232 1.500 . S
C226 C227 1.400 . S
C226 C228 1.384 . S
C227 C225 1.382 . S
C227 C226 1.400 . S
C227 H244 0.930 . S
C228 C226 1.384 . S
C228 C230 1.392 . S
C228 H245 0.931 . S
C229 C225 1.393 . S
C229 C230 1.401 . S
C229 H246 0.930 . S
C230 C228 1.392 . S
C230 C229 1.401 . S
C230 H247 0.930 . S
C231 O214 1.262 . S
C231 O215 1.260 . S
C232 Tb168 2.833 . S
C232 O212 1.251 . S
C232 O217 1.256 . S
C232 C225 1.500 . S
C233 H198 0.929 . S
C233 C211 1.444 . S
C233 C234 1.317 . S
C234 H196 0.930 . S
C234 C202 1.432 . S
C234 C233 1.317 . S
C235 O219 1.283 . S
C235 O222 1.243 . S
C236 C237 1.382 . S
C236 C240 1.393 . S
C236 C243 1.500 . S
C237 C236 1.382 . S
C237 C238 1.400 1_565 S
C237 H248 0.930 . S
C238 C237 1.400 1_545 S
C238 C239 1.384 . S
C239 C238 1.384 . S
C239 C241 1.392 . S
C239 H249 0.931 . S
C240 C236 1.393 . S
C240 C241 1.401 1_565 S
C240 H250 0.930 . S
C241 C239 1.392 . S
C241 C240 1.401 1_545 S
C241 H251 0.930 . S
C242 O220 1.262 . S
C242 O221 1.260 . S
C243 Tb179 2.833 . S
C243 O218 1.251 . S
C243 O223 1.256 . S
C243 C236 1.500 . S
H244 C227 0.930 . S
H245 C228 0.931 . S
H246 C229 0.930 . S
H247 C230 0.930 . S
H248 C237 0.930 . S
H249 C239 0.931 . S
H250 C240 0.930 . S
H251 C241 0.930 . S
Tb252 N283 2.660 . S
Tb252 N290 2.600 . S
Tb252 O296 2.546 . S
Tb252 O297 2.610 . S
Tb252 O299 2.320 . S
Tb252 O300 2.552 . S
Tb252 O301 2.413 . S
Tb252 O303 2.362 . S
Tb252 O304 2.421 . S
Tb252 C316 2.833 . S
C253 C256 1.432 . S
C253 C257 1.414 . S
C253 N260 1.359 . S
C254 C256 1.417 . S
C254 C258 1.432 . S
C254 C266 1.410 . S
C255 C257 1.444 . S
C255 C258 1.317 . S
C255 H278 0.929 . S
C256 C253 1.432 . S
C256 C254 1.417 . S
C256 N264 1.360 . S
C257 C253 1.414 . S
C257 C255 1.444 . S
C257 C262 1.385 . S
C258 C254 1.432 . S
C258 C255 1.317 . S
C258 H270 0.930 . S
C259 C261 1.392 . S
C259 C262 1.370 . S
C259 H271 0.931 . S
N260 C253 1.359 . S
N260 C261 1.327 . S
N260 Tb263 2.600 . S
C261 C259 1.392 . S
C261 N260 1.327 . S
C261 H268 0.930 . S
C262 C257 1.385 . S
C262 C259 1.370 . S
C262 H281 0.930 . S
Tb263 N260 2.600 . S
Tb263 N264 2.660 . S
Tb263 O297 2.362 . S
Tb263 O298 2.421 . S
Tb263 O302 2.546 . S
Tb263 O303 2.610 . S
Tb263 O305 2.320 . S
Tb263 O306 2.552 . S
Tb263 O307 2.413 . S
Tb263 C327 2.833 . S
N264 C256 1.360 . S
N264 Tb263 2.660 . S
N264 C265 1.305 . S
C265 N264 1.305 . S
C265 C267 1.407 . S
C265 H272 0.930 . S
C266 C254 1.410 . S
C266 C267 1.345 . S
C266 H274 0.930 . S
C267 C265 1.407 . S
C267 C266 1.345 . S
C267 H269 0.930 . S
H268 C261 0.930 . S
H269 C267 0.930 . S
H270 C258 0.930 . S
H271 C259 0.931 . S
H272 C265 0.930 . S
H273 C287 0.930 . S
H274 C266 0.930 . S
H275 C293 0.930 . S
H276 C284 0.930 . S
H277 C291 0.931 . S
H278 C255 0.929 . S
H279 C285 0.930 . S
H280 C318 0.930 . S
H281 C262 0.930 . S
H282 C317 0.929 . S
N283 Tb252 2.660 . S
N283 C284 1.305 . S
N283 C288 1.360 . S
C284 H276 0.930 . S
C284 N283 1.305 . S
C284 C287 1.407 . S
C285 H279 0.930 . S
C285 C286 1.410 . S
C285 C287 1.345 . S
C286 C285 1.410 . S
C286 C288 1.417 . S
C286 C318 1.432 . S
C287 H273 0.930 . S
C287 C284 1.407 . S
C287 C285 1.345 . S
C288 N283 1.360 . S
C288 C286 1.417 . S
C288 C292 1.432 . S
H289 C294 0.930 . S
N290 Tb252 2.600 . S
N290 C292 1.359 . S
N290 C293 1.327 . S
C291 H277 0.931 . S
C291 C293 1.392 . S
C291 C294 1.370 . S
C292 C288 1.432 . S
C292 N290 1.359 . S
C292 C295 1.414 . S
C293 H275 0.930 . S
C293 N290 1.327 . S
C293 C291 1.392 . S
C294 H289 0.930 . S
C294 C291 1.370 . S
C294 C295 1.385 . S
C295 C292 1.414 . S
C295 C294 1.385 . S
C295 C317 1.444 . S
O296 Tb252 2.546 . S
O296 C316 1.251 . S
O297 Tb252 2.610 . S
O297 Tb263 2.362 . S
O297 C308 1.283 . S
O298 Tb263 2.421 . S
O298 C315 1.262 . S
O299 Tb252 2.320 . S
O299 C315 1.260 . S
O300 Tb252 2.552 . S
O300 C308 1.243 . S
O301 Tb252 2.413 . S
O301 C316 1.256 . S
O302 Tb263 2.546 . S
O302 C327 1.251 . S
O303 Tb252 2.362 . S
O303 Tb263 2.610 . S
O303 C319 1.283 . S
O304 Tb252 2.421 . S
O304 C326 1.262 . S
O305 Tb263 2.320 . S
O305 C326 1.260 . S
O306 Tb263 2.552 . S
O306 C319 1.243 . S
O307 Tb263 2.413 . S
O307 C327 1.256 . S
C308 O297 1.283 . S
C308 O300 1.243 . S
C309 C311 1.382 . S
C309 C313 1.393 . S
C309 C316 1.500 . S
C310 C311 1.400 . S
C310 C312 1.384 . S
C311 C309 1.382 . S
C311 C310 1.400 . S
C311 H328 0.930 . S
C312 C310 1.384 . S
C312 C314 1.392 . S
C312 H329 0.931 . S
C313 C309 1.393 . S
C313 C314 1.401 . S
C313 H330 0.930 . S
C314 C312 1.392 . S
C314 C313 1.401 . S
C314 H331 0.930 . S
C315 O298 1.262 . S
C315 O299 1.260 . S
C316 Tb252 2.833 . S
C316 O296 1.251 . S
C316 O301 1.256 . S
C316 C309 1.500 . S
C317 H282 0.929 . S
C317 C295 1.444 . S
C317 C318 1.317 . S
C318 H280 0.930 . S
C318 C286 1.432 . S
C318 C317 1.317 . S
C319 O303 1.283 . S
C319 O306 1.243 . S
C320 C321 1.382 . S
C320 C324 1.393 . S
C320 C327 1.500 . S
C321 C320 1.382 . S
C321 C322 1.400 . S
C321 H332 0.930 . S
C322 C321 1.400 . S
C322 C323 1.384 . S
C323 C322 1.384 . S
C323 C325 1.392 . S
C323 H333 0.931 . S
C324 C320 1.393 . S
C324 C325 1.401 . S
C324 H334 0.930 . S
C325 C323 1.392 . S
C325 C324 1.401 . S
C325 H335 0.930 . S
C326 O304 1.262 . S
C326 O305 1.260 . S
C327 Tb263 2.833 . S
C327 O302 1.251 . S
C327 O307 1.256 . S
C327 C320 1.500 . S
H328 C311 0.930 . S
H329 C312 0.931 . S
H330 C313 0.930 . S
H331 C314 0.930 . S
H332 C321 0.930 . S
H333 C323 0.931 . S
H334 C324 0.930 . S
H335 C325 0.930 . S
Tb336 N367 2.660 . S
Tb336 N374 2.600 . S
Tb336 O380 2.546 . S
Tb336 O381 2.610 . S
Tb336 O383 2.320 . S
Tb336 O384 2.552 . S
Tb336 O385 2.413 . S
Tb336 O387 2.362 . S
Tb336 O388 2.421 . S
Tb336 C400 2.833 . S
C337 C340 1.432 . S
C337 C341 1.414 . S
C337 N344 1.359 . S
C338 C340 1.417 . S
C338 C342 1.432 . S
C338 C350 1.410 . S
C339 C341 1.444 . S
C339 C342 1.317 . S
C339 H362 0.929 . S
C340 C337 1.432 . S
C340 C338 1.417 . S
C340 N348 1.360 . S
C341 C337 1.414 . S
C341 C339 1.444 . S
C341 C346 1.385 . S
C342 C338 1.432 . S
C342 C339 1.317 . S
C342 H354 0.930 . S
C343 C345 1.392 . S
C343 C346 1.370 . S
C343 H355 0.931 . S
N344 C337 1.359 . S
N344 C345 1.327 . S
N344 Tb347 2.600 . S
C345 C343 1.392 . S
C345 N344 1.327 . S
C345 H352 0.930 . S
C346 C341 1.385 . S
C346 C343 1.370 . S
C346 H365 0.930 . S
Tb347 N344 2.600 . S
Tb347 N348 2.660 . S
Tb347 O381 2.362 . S
Tb347 O382 2.421 . S
Tb347 O386 2.546 . S
Tb347 O387 2.610 . S
Tb347 O389 2.320 . S
Tb347 O390 2.552 . S
Tb347 O391 2.413 . S
Tb347 C411 2.833 . S
N348 C340 1.360 . S
N348 Tb347 2.660 . S
N348 C349 1.305 . S
C349 N348 1.305 . S
C349 C351 1.407 . S
C349 H356 0.930 . S
C350 C338 1.410 . S
C350 C351 1.345 . S
C350 H358 0.930 . S
C351 C349 1.407 . S
C351 C350 1.345 . S
C351 H353 0.930 . S
H352 C345 0.930 . S
H353 C351 0.930 . S
H354 C342 0.930 . S
H355 C343 0.931 . S
H356 C349 0.930 . S
H357 C371 0.930 . S
H358 C350 0.930 . S
H359 C377 0.930 . S
H360 C368 0.930 . S
H361 C375 0.931 . S
H362 C339 0.929 . S
H363 C369 0.930 . S
H364 C402 0.930 . S
H365 C346 0.930 . S
H366 C401 0.929 . S
N367 Tb336 2.660 . S
N367 C368 1.305 . S
N367 C372 1.360 . S
C368 H360 0.930 . S
C368 N367 1.305 . S
C368 C371 1.407 . S
C369 H363 0.930 . S
C369 C370 1.410 . S
C369 C371 1.345 . S
C370 C369 1.410 . S
C370 C372 1.417 . S
C370 C402 1.432 . S
C371 H357 0.930 . S
C371 C368 1.407 . S
C371 C369 1.345 . S
C372 N367 1.360 . S
C372 C370 1.417 . S
C372 C376 1.432 . S
H373 C378 0.930 . S
N374 Tb336 2.600 . S
N374 C376 1.359 . S
N374 C377 1.327 . S
C375 H361 0.931 . S
C375 C377 1.392 . S
C375 C378 1.370 . S
C376 C372 1.432 . S
C376 N374 1.359 . S
C376 C379 1.414 . S
C377 H359 0.930 . S
C377 N374 1.327 . S
C377 C375 1.392 . S
C378 H373 0.930 . S
C378 C375 1.370 . S
C378 C379 1.385 . S
C379 C376 1.414 . S
C379 C378 1.385 . S
C379 C401 1.444 . S
O380 Tb336 2.546 . S
O380 C400 1.251 . S
O381 Tb336 2.610 . S
O381 Tb347 2.362 . S
O381 C392 1.283 . S
O382 Tb347 2.421 . S
O382 C399 1.262 . S
O383 Tb336 2.320 . S
O383 C399 1.260 . S
O384 Tb336 2.552 . S
O384 C392 1.243 . S
O385 Tb336 2.413 . S
O385 C400 1.256 . S
O386 Tb347 2.546 . S
O386 C411 1.251 . S
O387 Tb336 2.362 . S
O387 Tb347 2.610 . S
O387 C403 1.283 . S
O388 Tb336 2.421 . S
O388 C410 1.262 . S
O389 Tb347 2.320 . S
O389 C410 1.260 . S
O390 Tb347 2.552 . S
O390 C403 1.243 . S
O391 Tb347 2.413 . S
O391 C411 1.256 . S
C392 O381 1.283 . S
C392 O384 1.243 . S
C393 C395 1.382 . S
C393 C397 1.393 . S
C393 C400 1.500 . S
C394 C395 1.400 . S
C394 C396 1.384 . S
C395 C393 1.382 . S
C395 C394 1.400 . S
C395 H412 0.930 . S
C396 C394 1.384 . S
C396 C398 1.392 . S
C396 H413 0.931 . S
C397 C393 1.393 . S
C397 C398 1.401 . S
C397 H414 0.930 . S
C398 C396 1.392 . S
C398 C397 1.401 . S
C398 H415 0.930 . S
C399 O382 1.262 . S
C399 O383 1.260 . S
C400 Tb336 2.833 . S
C400 O380 1.251 . S
C400 O385 1.256 . S
C400 C393 1.500 . S
C401 H366 0.929 . S
C401 C379 1.444 . S
C401 C402 1.317 . S
C402 H364 0.930 . S
C402 C370 1.432 . S
C402 C401 1.317 . S
C403 O387 1.283 . S
C403 O390 1.243 . S
C404 C405 1.382 . S
C404 C408 1.393 . S
C404 C411 1.500 . S
C405 C404 1.382 . S
C405 C406 1.400 1_455 S
C405 H416 0.930 . S
C406 C405 1.400 1_655 S
C406 C407 1.384 . S
C407 C406 1.384 . S
C407 C409 1.392 . S
C407 H417 0.931 . S
C408 C404 1.393 . S
C408 C409 1.401 1_455 S
C408 H418 0.930 . S
C409 C407 1.392 . S
C409 C408 1.401 1_655 S
C409 H419 0.930 . S
C410 O388 1.262 . S
C410 O389 1.260 . S
C411 Tb347 2.833 . S
C411 O386 1.251 . S
C411 O391 1.256 . S
C411 C404 1.500 . S
H412 C395 0.930 . S
H413 C396 0.931 . S
H414 C397 0.930 . S
H415 C398 0.930 . S
H416 C405 0.930 . S
H417 C407 0.931 . S
H418 C408 0.930 . S
H419 C409 0.930 . S
Tb420 N451 2.660 . S
Tb420 N458 2.600 . S
Tb420 O464 2.546 . S
Tb420 O465 2.610 . S
Tb420 O467 2.320 . S
Tb420 O468 2.552 . S
Tb420 O469 2.413 . S
Tb420 O471 2.362 . S
Tb420 O472 2.421 . S
Tb420 C484 2.833 . S
C421 C424 1.432 . S
C421 C425 1.414 . S
C421 N428 1.359 . S
C422 C424 1.417 . S
C422 C426 1.432 . S
C422 C434 1.410 . S
C423 C425 1.444 . S
C423 C426 1.317 . S
C423 H446 0.929 . S
C424 C421 1.432 . S
C424 C422 1.417 . S
C424 N432 1.360 . S
C425 C421 1.414 . S
C425 C423 1.444 . S
C425 C430 1.385 . S
C426 C422 1.432 . S
C426 C423 1.317 . S
C426 H438 0.930 . S
C427 C429 1.392 . S
C427 C430 1.370 . S
C427 H439 0.931 . S
N428 C421 1.359 . S
N428 C429 1.327 . S
N428 Tb431 2.600 . S
C429 C427 1.392 . S
C429 N428 1.327 . S
C429 H436 0.930 . S
C430 C425 1.385 . S
C430 C427 1.370 . S
C430 H449 0.930 . S
Tb431 N428 2.600 . S
Tb431 N432 2.660 . S
Tb431 O465 2.362 . S
Tb431 O466 2.421 . S
Tb431 O470 2.546 . S
Tb431 O471 2.610 . S
Tb431 O473 2.320 . S
Tb431 O474 2.552 . S
Tb431 O475 2.413 . S
Tb431 C495 2.833 . S
N432 C424 1.360 . S
N432 Tb431 2.660 . S
N432 C433 1.305 . S
C433 N432 1.305 . S
C433 C435 1.407 . S
C433 H440 0.930 . S
C434 C422 1.410 . S
C434 C435 1.345 . S
C434 H442 0.930 . S
C435 C433 1.407 . S
C435 C434 1.345 . S
C435 H437 0.930 . S
H436 C429 0.930 . S
H437 C435 0.930 . S
H438 C426 0.930 . S
H439 C427 0.931 . S
H440 C433 0.930 . S
H441 C455 0.930 . S
H442 C434 0.930 . S
H443 C461 0.930 . S
H444 C452 0.930 . S
H445 C459 0.931 . S
H446 C423 0.929 . S
H447 C453 0.930 . S
H448 C486 0.930 . S
H449 C430 0.930 . S
H450 C485 0.929 . S
N451 Tb420 2.660 . S
N451 C452 1.305 . S
N451 C456 1.360 . S
C452 H444 0.930 . S
C452 N451 1.305 . S
C452 C455 1.407 . S
C453 H447 0.930 . S
C453 C454 1.410 . S
C453 C455 1.345 . S
C454 C453 1.410 . S
C454 C456 1.417 . S
C454 C486 1.432 . S
C455 H441 0.930 . S
C455 C452 1.407 . S
C455 C453 1.345 . S
C456 N451 1.360 . S
C456 C454 1.417 . S
C456 C460 1.432 . S
H457 C462 0.930 . S
N458 Tb420 2.600 . S
N458 C460 1.359 . S
N458 C461 1.327 . S
C459 H445 0.931 . S
C459 C461 1.392 . S
C459 C462 1.370 . S
C460 C456 1.432 . S
C460 N458 1.359 . S
C460 C463 1.414 . S
C461 H443 0.930 . S
C461 N458 1.327 . S
C461 C459 1.392 . S
C462 H457 0.930 . S
C462 C459 1.370 . S
C462 C463 1.385 . S
C463 C460 1.414 . S
C463 C462 1.385 . S
C463 C485 1.444 . S
O464 Tb420 2.546 . S
O464 C484 1.251 . S
O465 Tb420 2.610 . S
O465 Tb431 2.362 . S
O465 C476 1.283 . S
O466 Tb431 2.421 . S
O466 C483 1.262 . S
O467 Tb420 2.320 . S
O467 C483 1.260 . S
O468 Tb420 2.552 . S
O468 C476 1.243 . S
O469 Tb420 2.413 . S
O469 C484 1.256 . S
O470 Tb431 2.546 . S
O470 C495 1.251 . S
O471 Tb420 2.362 . S
O471 Tb431 2.610 . S
O471 C487 1.283 . S
O472 Tb420 2.421 . S
O472 C494 1.262 . S
O473 Tb431 2.320 . S
O473 C494 1.260 . S
O474 Tb431 2.552 . S
O474 C487 1.243 . S
O475 Tb431 2.413 . S
O475 C495 1.256 . S
C476 O465 1.283 . S
C476 O468 1.243 . S
C477 C479 1.382 . S
C477 C481 1.393 . S
C477 C484 1.500 . S
C478 C479 1.400 . S
C478 C480 1.384 . S
C479 C477 1.382 . S
C479 C478 1.400 . S
C479 H496 0.930 . S
C480 C478 1.384 . S
C480 C482 1.392 . S
C480 H497 0.931 . S
C481 C477 1.393 . S
C481 C482 1.401 . S
C481 H498 0.930 . S
C482 C480 1.392 . S
C482 C481 1.401 . S
C482 H499 0.930 . S
C483 O466 1.262 . S
C483 O467 1.260 . S
C484 Tb420 2.833 . S
C484 O464 1.251 . S
C484 O469 1.256 . S
C484 C477 1.500 . S
C485 H450 0.929 . S
C485 C463 1.444 . S
C485 C486 1.317 . S
C486 H448 0.930 . S
C486 C454 1.432 . S
C486 C485 1.317 . S
C487 O471 1.283 . S
C487 O474 1.243 . S
C488 C489 1.382 . S
C488 C492 1.393 . S
C488 C495 1.500 . S
C489 C488 1.382 . S
C489 C490 1.400 1_545 S
C489 H500 0.930 . S
C490 C489 1.400 1_565 S
C490 C491 1.384 . S
C491 C490 1.384 . S
C491 C493 1.392 . S
C491 H501 0.931 . S
C492 C488 1.393 . S
C492 C493 1.401 1_545 S
C492 H502 0.930 . S
C493 C491 1.392 . S
C493 C492 1.401 1_565 S
C493 H503 0.930 . S
C494 O472 1.262 . S
C494 O473 1.260 . S
C495 Tb431 2.833 . S
C495 O470 1.251 . S
C495 O475 1.256 . S
C495 C488 1.500 . S
H496 C479 0.930 . S
H497 C480 0.931 . S
H498 C481 0.930 . S
H499 C482 0.930 . S
H500 C489 0.930 . S
H501 C491 0.931 . S
H502 C492 0.930 . S
H503 C493 0.930 . S
Tb504 N535 2.660 . S
Tb504 N542 2.600 . S
Tb504 O548 2.546 . S
Tb504 O549 2.610 . S
Tb504 O551 2.320 . S
Tb504 O552 2.552 . S
Tb504 O553 2.413 . S
Tb504 O555 2.362 . S
Tb504 O556 2.421 . S
Tb504 C568 2.833 . S
C505 C508 1.432 . S
C505 C509 1.414 . S
C505 N512 1.359 . S
C506 C508 1.417 . S
C506 C510 1.432 . S
C506 C518 1.410 . S
C507 C509 1.444 . S
C507 C510 1.317 . S
C507 H530 0.929 . S
C508 C505 1.432 . S
C508 C506 1.417 . S
C508 N516 1.360 . S
C509 C505 1.414 . S
C509 C507 1.444 . S
C509 C514 1.385 . S
C510 C506 1.432 . S
C510 C507 1.317 . S
C510 H522 0.930 . S
C511 C513 1.392 . S
C511 C514 1.370 . S
C511 H523 0.931 . S
N512 C505 1.359 . S
N512 C513 1.327 . S
N512 Tb515 2.600 . S
C513 C511 1.392 . S
C513 N512 1.327 . S
C513 H520 0.930 . S
C514 C509 1.385 . S
C514 C511 1.370 . S
C514 H533 0.930 . S
Tb515 N512 2.600 . S
Tb515 N516 2.660 . S
Tb515 O549 2.362 . S
Tb515 O550 2.421 . S
Tb515 O554 2.546 . S
Tb515 O555 2.610 . S
Tb515 O557 2.320 . S
Tb515 O558 2.552 . S
Tb515 O559 2.413 . S
Tb515 C579 2.833 . S
N516 C508 1.360 . S
N516 Tb515 2.660 . S
N516 C517 1.305 . S
C517 N516 1.305 . S
C517 C519 1.407 . S
C517 H524 0.930 . S
C518 C506 1.410 . S
C518 C519 1.345 . S
C518 H526 0.930 . S
C519 C517 1.407 . S
C519 C518 1.345 . S
C519 H521 0.930 . S
H520 C513 0.930 . S
H521 C519 0.930 . S
H522 C510 0.930 . S
H523 C511 0.931 . S
H524 C517 0.930 . S
H525 C539 0.930 . S
H526 C518 0.930 . S
H527 C545 0.930 . S
H528 C536 0.930 . S
H529 C543 0.931 . S
H530 C507 0.929 . S
H531 C537 0.930 . S
H532 C570 0.930 . S
H533 C514 0.930 . S
H534 C569 0.929 . S
N535 Tb504 2.660 . S
N535 C536 1.305 . S
N535 C540 1.360 . S
C536 H528 0.930 . S
C536 N535 1.305 . S
C536 C539 1.407 . S
C537 H531 0.930 . S
C537 C538 1.410 . S
C537 C539 1.345 . S
C538 C537 1.410 . S
C538 C540 1.417 . S
C538 C570 1.432 . S
C539 H525 0.930 . S
C539 C536 1.407 . S
C539 C537 1.345 . S
C540 N535 1.360 . S
C540 C538 1.417 . S
C540 C544 1.432 . S
H541 C546 0.930 . S
N542 Tb504 2.600 . S
N542 C544 1.359 . S
N542 C545 1.327 . S
C543 H529 0.931 . S
C543 C545 1.392 . S
C543 C546 1.370 . S
C544 C540 1.432 . S
C544 N542 1.359 . S
C544 C547 1.414 . S
C545 H527 0.930 . S
C545 N542 1.327 . S
C545 C543 1.392 . S
C546 H541 0.930 . S
C546 C543 1.370 . S
C546 C547 1.385 . S
C547 C544 1.414 . S
C547 C546 1.385 . S
C547 C569 1.444 . S
O548 Tb504 2.546 . S
O548 C568 1.251 . S
O549 Tb504 2.610 . S
O549 Tb515 2.362 . S
O549 C560 1.283 . S
O550 Tb515 2.421 . S
O550 C567 1.262 . S
O551 Tb504 2.320 . S
O551 C567 1.260 . S
O552 Tb504 2.552 . S
O552 C560 1.243 . S
O553 Tb504 2.413 . S
O553 C568 1.256 . S
O554 Tb515 2.546 . S
O554 C579 1.251 . S
O555 Tb504 2.362 . S
O555 Tb515 2.610 . S
O555 C571 1.283 . S
O556 Tb504 2.421 . S
O556 C578 1.262 . S
O557 Tb515 2.320 . S
O557 C578 1.260 . S
O558 Tb515 2.552 . S
O558 C571 1.243 . S
O559 Tb515 2.413 . S
O559 C579 1.256 . S
C560 O549 1.283 . S
C560 O552 1.243 . S
C561 C563 1.382 . S
C561 C565 1.393 . S
C561 C568 1.500 . S
C562 C563 1.400 . S
C562 C564 1.384 . S
C563 C561 1.382 . S
C563 C562 1.400 . S
C563 H580 0.930 . S
C564 C562 1.384 . S
C564 C566 1.392 . S
C564 H581 0.931 . S
C565 C561 1.393 . S
C565 C566 1.401 . S
C565 H582 0.930 . S
C566 C564 1.392 . S
C566 C565 1.401 . S
C566 H583 0.930 . S
C567 O550 1.262 . S
C567 O551 1.260 . S
C568 Tb504 2.833 . S
C568 O548 1.251 . S
C568 O553 1.256 . S
C568 C561 1.500 . S
C569 H534 0.929 . S
C569 C547 1.444 . S
C569 C570 1.317 . S
C570 H532 0.930 . S
C570 C538 1.432 . S
C570 C569 1.317 . S
C571 O555 1.283 . S
C571 O558 1.243 . S
C572 C573 1.382 . S
C572 C576 1.393 . S
C572 C579 1.500 . S
C573 C572 1.382 . S
C573 C574 1.400 . S
C573 H584 0.930 . S
C574 C573 1.400 . S
C574 C575 1.384 . S
C575 C574 1.384 . S
C575 C577 1.392 . S
C575 H585 0.931 . S
C576 C572 1.393 . S
C576 C577 1.401 . S
C576 H586 0.930 . S
C577 C575 1.392 . S
C577 C576 1.401 . S
C577 H587 0.930 . S
C578 O556 1.262 . S
C578 O557 1.260 . S
C579 Tb515 2.833 . S
C579 O554 1.251 . S
C579 O559 1.256 . S
C579 C572 1.500 . S
H580 C563 0.930 . S
H581 C564 0.931 . S
H582 C565 0.930 . S
H583 C566 0.930 . S
H584 C573 0.930 . S
H585 C575 0.931 . S
H586 C576 0.930 . S
H587 C577 0.930 . S
Tb588 N619 2.660 . S
Tb588 N626 2.600 . S
Tb588 O632 2.546 . S
Tb588 O633 2.610 . S
Tb588 O635 2.320 . S
Tb588 O636 2.552 . S
Tb588 O637 2.413 . S
Tb588 O639 2.362 . S
Tb588 O640 2.421 . S
Tb588 C652 2.833 . S
C589 C592 1.432 . S
C589 C593 1.414 . S
C589 N596 1.359 . S
C590 C592 1.417 . S
C590 C594 1.432 . S
C590 C602 1.410 . S
C591 C593 1.444 . S
C591 C594 1.317 . S
C591 H614 0.929 . S
C592 C589 1.432 . S
C592 C590 1.417 . S
C592 N600 1.360 . S
C593 C589 1.414 . S
C593 C591 1.444 . S
C593 C598 1.385 . S
C594 C590 1.432 . S
C594 C591 1.317 . S
C594 H606 0.930 . S
C595 C597 1.392 . S
C595 C598 1.370 . S
C595 H607 0.931 . S
N596 C589 1.359 . S
N596 C597 1.327 . S
N596 Tb599 2.600 . S
C597 C595 1.392 . S
C597 N596 1.327 . S
C597 H604 0.930 . S
C598 C593 1.385 . S
C598 C595 1.370 . S
C598 H617 0.930 . S
Tb599 N596 2.600 . S
Tb599 N600 2.660 . S
Tb599 O633 2.362 . S
Tb599 O634 2.421 . S
Tb599 O638 2.546 . S
Tb599 O639 2.610 . S
Tb599 O641 2.320 . S
Tb599 O642 2.552 . S
Tb599 O643 2.413 . S
Tb599 C663 2.833 . S
N600 C592 1.360 . S
N600 Tb599 2.660 . S
N600 C601 1.305 . S
C601 N600 1.305 . S
C601 C603 1.407 . S
C601 H608 0.930 . S
C602 C590 1.410 . S
C602 C603 1.345 . S
C602 H610 0.930 . S
C603 C601 1.407 . S
C603 C602 1.345 . S
C603 H605 0.930 . S
H604 C597 0.930 . S
H605 C603 0.930 . S
H606 C594 0.930 . S
H607 C595 0.931 . S
H608 C601 0.930 . S
H609 C623 0.930 . S
H610 C602 0.930 . S
H611 C629 0.930 . S
H612 C620 0.930 . S
H613 C627 0.931 . S
H614 C591 0.929 . S
H615 C621 0.930 . S
H616 C654 0.930 . S
H617 C598 0.930 . S
H618 C653 0.929 . S
N619 Tb588 2.660 . S
N619 C620 1.305 . S
N619 C624 1.360 . S
C620 H612 0.930 . S
C620 N619 1.305 . S
C620 C623 1.407 . S
C621 H615 0.930 . S
C621 C622 1.410 . S
C621 C623 1.345 . S
C622 C621 1.410 . S
C622 C624 1.417 . S
C622 C654 1.432 . S
C623 H609 0.930 . S
C623 C620 1.407 . S
C623 C621 1.345 . S
C624 N619 1.360 . S
C624 C622 1.417 . S
C624 C628 1.432 . S
H625 C630 0.930 . S
N626 Tb588 2.600 . S
N626 C628 1.359 . S
N626 C629 1.327 . S
C627 H613 0.931 . S
C627 C629 1.392 . S
C627 C630 1.370 . S
C628 C624 1.432 . S
C628 N626 1.359 . S
C628 C631 1.414 . S
C629 H611 0.930 . S
C629 N626 1.327 . S
C629 C627 1.392 . S
C630 H625 0.930 . S
C630 C627 1.370 . S
C630 C631 1.385 . S
C631 C628 1.414 . S
C631 C630 1.385 . S
C631 C653 1.444 . S
O632 Tb588 2.546 . S
O632 C652 1.251 . S
O633 Tb588 2.610 . S
O633 Tb599 2.362 . S
O633 C644 1.283 . S
O634 Tb599 2.421 . S
O634 C651 1.262 . S
O635 Tb588 2.320 . S
O635 C651 1.260 . S
O636 Tb588 2.552 . S
O636 C644 1.243 . S
O637 Tb588 2.413 . S
O637 C652 1.256 . S
O638 Tb599 2.546 . S
O638 C663 1.251 . S
O639 Tb588 2.362 . S
O639 Tb599 2.610 . S
O639 C655 1.283 . S
O640 Tb588 2.421 . S
O640 C662 1.262 . S
O641 Tb599 2.320 . S
O641 C662 1.260 . S
O642 Tb599 2.552 . S
O642 C655 1.243 . S
O643 Tb599 2.413 . S
O643 C663 1.256 . S
C644 O633 1.283 . S
C644 O636 1.243 . S
C645 C647 1.382 . S
C645 C649 1.393 . S
C645 C652 1.500 . S
C646 C647 1.400 . S
C646 C648 1.384 . S
C647 C645 1.382 . S
C647 C646 1.400 . S
C647 H664 0.930 . S
C648 C646 1.384 . S
C648 C650 1.392 . S
C648 H665 0.931 . S
C649 C645 1.393 . S
C649 C650 1.401 . S
C649 H666 0.930 . S
C650 C648 1.392 . S
C650 C649 1.401 . S
C650 H667 0.930 . S
C651 O634 1.262 . S
C651 O635 1.260 . S
C652 Tb588 2.833 . S
C652 O632 1.251 . S
C652 O637 1.256 . S
C652 C645 1.500 . S
C653 H618 0.929 . S
C653 C631 1.444 . S
C653 C654 1.317 . S
C654 H616 0.930 . S
C654 C622 1.432 . S
C654 C653 1.317 . S
C655 O639 1.283 . S
C655 O642 1.243 . S
C656 C657 1.382 . S
C656 C660 1.393 . S
C656 C663 1.500 . S
C657 C656 1.382 . S
C657 C658 1.400 1_655 S
C657 H668 0.930 . S
C658 C657 1.400 1_455 S
C658 C659 1.384 . S
C659 C658 1.384 . S
C659 C661 1.392 . S
C659 H669 0.931 . S
C660 C656 1.393 . S
C660 C661 1.401 1_655 S
C660 H670 0.930 . S
C661 C659 1.392 . S
C661 C660 1.401 1_455 S
C661 H671 0.930 . S
C662 O640 1.262 . S
C662 O641 1.260 . S
C663 Tb599 2.833 . S
C663 O638 1.251 . S
C663 O643 1.256 . S
C663 C656 1.500 . S
H664 C647 0.930 . S
H665 C648 0.931 . S
H666 C649 0.930 . S
H667 C650 0.930 . S
H668 C657 0.930 . S
H669 C659 0.931 . S
H670 C660 0.930 . S
H671 C661 0.930 . S
Tb672 N703 2.660 . S
Tb672 N710 2.600 . S
Tb672 O716 2.546 . S
Tb672 O717 2.610 . S
Tb672 O719 2.320 . S
Tb672 O720 2.552 . S
Tb672 O721 2.413 . S
Tb672 O723 2.362 . S
Tb672 O724 2.421 . S
Tb672 C736 2.833 . S
C673 C676 1.432 . S
C673 C677 1.414 . S
C673 N680 1.359 . S
C674 C676 1.417 . S
C674 C678 1.432 . S
C674 C686 1.410 . S
C675 C677 1.444 . S
C675 C678 1.317 . S
C675 H698 0.929 . S
C676 C673 1.432 . S
C676 C674 1.417 . S
C676 N684 1.360 . S
C677 C673 1.414 . S
C677 C675 1.444 . S
C677 C682 1.385 . S
C678 C674 1.432 . S
C678 C675 1.317 . S
C678 H690 0.930 . S
C679 C681 1.392 . S
C679 C682 1.370 . S
C679 H691 0.931 . S
N680 C673 1.359 . S
N680 C681 1.327 . S
N680 Tb683 2.600 . S
C681 C679 1.392 . S
C681 N680 1.327 . S
C681 H688 0.930 . S
C682 C677 1.385 . S
C682 C679 1.370 . S
C682 H701 0.930 . S
Tb683 N680 2.600 . S
Tb683 N684 2.660 . S
Tb683 O717 2.362 . S
Tb683 O718 2.421 . S
Tb683 O722 2.546 . S
Tb683 O723 2.610 . S
Tb683 O725 2.320 . S
Tb683 O726 2.552 . S
Tb683 O727 2.413 . S
Tb683 C747 2.833 . S
N684 C676 1.360 . S
N684 Tb683 2.660 . S
N684 C685 1.305 . S
C685 N684 1.305 . S
C685 C687 1.407 . S
C685 H692 0.930 . S
C686 C674 1.410 . S
C686 C687 1.345 . S
C686 H694 0.930 . S
C687 C685 1.407 . S
C687 C686 1.345 . S
C687 H689 0.930 . S
H688 C681 0.930 . S
H689 C687 0.930 . S
H690 C678 0.930 . S
H691 C679 0.931 . S
H692 C685 0.930 . S
H693 C707 0.930 . S
H694 C686 0.930 . S
H695 C713 0.930 . S
H696 C704 0.930 . S
H697 C711 0.931 . S
H698 C675 0.929 . S
H699 C705 0.930 . S
H700 C738 0.930 . S
H701 C682 0.930 . S
H702 C737 0.929 . S
N703 Tb672 2.660 . S
N703 C704 1.305 . S
N703 C708 1.360 . S
C704 H696 0.930 . S
C704 N703 1.305 . S
C704 C707 1.407 . S
C705 H699 0.930 . S
C705 C706 1.410 . S
C705 C707 1.345 . S
C706 C705 1.410 . S
C706 C708 1.417 . S
C706 C738 1.432 . S
C707 H693 0.930 . S
C707 C704 1.407 . S
C707 C705 1.345 . S
C708 N703 1.360 . S
C708 C706 1.417 . S
C708 C712 1.432 . S
H709 C714 0.930 . S
N710 Tb672 2.600 . S
N710 C712 1.359 . S
N710 C713 1.327 . S
C711 H697 0.931 . S
C711 C713 1.392 . S
C711 C714 1.370 . S
C712 C708 1.432 . S
C712 N710 1.359 . S
C712 C715 1.414 . S
C713 H695 0.930 . S
C713 N710 1.327 . S
C713 C711 1.392 . S
C714 H709 0.930 . S
C714 C711 1.370 . S
C714 C715 1.385 . S
C715 C712 1.414 . S
C715 C714 1.385 . S
C715 C737 1.444 . S
O716 Tb672 2.546 . S
O716 C736 1.251 . S
O717 Tb672 2.610 . S
O717 Tb683 2.362 . S
O717 C728 1.283 . S
O718 Tb683 2.421 . S
O718 C735 1.262 . S
O719 Tb672 2.320 . S
O719 C735 1.260 . S
O720 Tb672 2.552 . S
O720 C728 1.243 . S
O721 Tb672 2.413 . S
O721 C736 1.256 . S
O722 Tb683 2.546 . S
O722 C747 1.251 . S
O723 Tb672 2.362 . S
O723 Tb683 2.610 . S
O723 C739 1.283 . S
O724 Tb672 2.421 . S
O724 C746 1.262 . S
O725 Tb683 2.320 . S
O725 C746 1.260 . S
O726 Tb683 2.552 . S
O726 C739 1.243 . S
O727 Tb683 2.413 . S
O727 C747 1.256 . S
C728 O717 1.283 . S
C728 O720 1.243 . S
C729 C731 1.382 . S
C729 C733 1.393 . S
C729 C736 1.500 . S
C730 C731 1.400 . S
C730 C732 1.384 . S
C731 C729 1.382 . S
C731 C730 1.400 . S
C731 H748 0.930 . S
C732 C730 1.384 . S
C732 C734 1.392 . S
C732 H749 0.931 . S
C733 C729 1.393 . S
C733 C734 1.401 . S
C733 H750 0.930 . S
C734 C732 1.392 . S
C734 C733 1.401 . S
C734 H751 0.930 . S
C735 O718 1.262 . S
C735 O719 1.260 . S
C736 Tb672 2.833 . S
C736 O716 1.251 . S
C736 O721 1.256 . S
C736 C729 1.500 . S
C737 H702 0.929 . S
C737 C715 1.444 . S
C737 C738 1.317 . S
C738 H700 0.930 . S
C738 C706 1.432 . S
C738 C737 1.317 . S
C739 O723 1.283 . S
C739 O726 1.243 . S
C740 C741 1.382 . S
C740 C744 1.393 . S
C740 C747 1.500 . S
C741 C740 1.382 . S
C741 C742 1.400 1_565 S
C741 H752 0.930 . S
C742 C741 1.400 1_545 S
C742 C743 1.384 . S
C743 C742 1.384 . S
C743 C745 1.392 . S
C743 H753 0.931 . S
C744 C740 1.393 . S
C744 C745 1.401 1_565 S
C744 H754 0.930 . S
C745 C743 1.392 . S
C745 C744 1.401 1_545 S
C745 H755 0.930 . S
C746 O724 1.262 . S
C746 O725 1.260 . S
C747 Tb683 2.833 . S
C747 O722 1.251 . S
C747 O727 1.256 . S
C747 C740 1.500 . S
H748 C731 0.930 . S
H749 C732 0.931 . S
H750 C733 0.930 . S
H751 C734 0.930 . S
H752 C741 0.930 . S
H753 C743 0.931 . S
H754 C744 0.930 . S
H755 C745 0.930 . S
Tb756 N787 2.660 . S
Tb756 N794 2.600 . S
Tb756 O800 2.546 . S
Tb756 O801 2.610 . S
Tb756 O803 2.320 . S
Tb756 O804 2.552 . S
Tb756 O805 2.413 . S
Tb756 O807 2.362 . S
Tb756 O808 2.421 . S
Tb756 C820 2.833 . S
C757 C760 1.432 . S
C757 C761 1.414 . S
C757 N764 1.359 . S
C758 C760 1.417 . S
C758 C762 1.432 . S
C758 C770 1.410 . S
C759 C761 1.444 . S
C759 C762 1.317 . S
C759 H782 0.929 . S
C760 C757 1.432 . S
C760 C758 1.417 . S
C760 N768 1.360 . S
C761 C757 1.414 . S
C761 C759 1.444 . S
C761 C766 1.385 . S
C762 C758 1.432 . S
C762 C759 1.317 . S
C762 H774 0.930 . S
C763 C765 1.392 . S
C763 C766 1.370 . S
C763 H775 0.931 . S
N764 C757 1.359 . S
N764 C765 1.327 . S
N764 Tb767 2.600 . S
C765 C763 1.392 . S
C765 N764 1.327 . S
C765 H772 0.930 . S
C766 C761 1.385 . S
C766 C763 1.370 . S
C766 H785 0.930 . S
Tb767 N764 2.600 . S
Tb767 N768 2.660 . S
Tb767 O801 2.362 . S
Tb767 O802 2.421 . S
Tb767 O806 2.546 . S
Tb767 O807 2.610 . S
Tb767 O809 2.320 . S
Tb767 O810 2.552 . S
Tb767 O811 2.413 . S
Tb767 C831 2.833 . S
N768 C760 1.360 . S
N768 Tb767 2.660 . S
N768 C769 1.305 . S
C769 N768 1.305 . S
C769 C771 1.407 . S
C769 H776 0.930 . S
C770 C758 1.410 . S
C770 C771 1.345 . S
C770 H778 0.930 . S
C771 C769 1.407 . S
C771 C770 1.345 . S
C771 H773 0.930 . S
H772 C765 0.930 . S
H773 C771 0.930 . S
H774 C762 0.930 . S
H775 C763 0.931 . S
H776 C769 0.930 . S
H777 C791 0.930 . S
H778 C770 0.930 . S
H779 C797 0.930 . S
H780 C788 0.930 . S
H781 C795 0.931 . S
H782 C759 0.929 . S
H783 C789 0.930 . S
H784 C822 0.930 . S
H785 C766 0.930 . S
H786 C821 0.929 . S
N787 Tb756 2.660 . S
N787 C788 1.305 . S
N787 C792 1.360 . S
C788 H780 0.930 . S
C788 N787 1.305 . S
C788 C791 1.407 . S
C789 H783 0.930 . S
C789 C790 1.410 . S
C789 C791 1.345 . S
C790 C789 1.410 . S
C790 C792 1.417 . S
C790 C822 1.432 . S
C791 H777 0.930 . S
C791 C788 1.407 . S
C791 C789 1.345 . S
C792 N787 1.360 . S
C792 C790 1.417 . S
C792 C796 1.432 . S
H793 C798 0.930 . S
N794 Tb756 2.600 . S
N794 C796 1.359 . S
N794 C797 1.327 . S
C795 H781 0.931 . S
C795 C797 1.392 . S
C795 C798 1.370 . S
C796 C792 1.432 . S
C796 N794 1.359 . S
C796 C799 1.414 . S
C797 H779 0.930 . S
C797 N794 1.327 . S
C797 C795 1.392 . S
C798 H793 0.930 . S
C798 C795 1.370 . S
C798 C799 1.385 . S
C799 C796 1.414 . S
C799 C798 1.385 . S
C799 C821 1.444 . S
O800 Tb756 2.546 . S
O800 C820 1.251 . S
O801 Tb756 2.610 . S
O801 Tb767 2.362 . S
O801 C812 1.283 . S
O802 Tb767 2.421 . S
O802 C819 1.262 . S
O803 Tb756 2.320 . S
O803 C819 1.260 . S
O804 Tb756 2.552 . S
O804 C812 1.243 . S
O805 Tb756 2.413 . S
O805 C820 1.256 . S
O806 Tb767 2.546 . S
O806 C831 1.251 . S
O807 Tb756 2.362 . S
O807 Tb767 2.610 . S
O807 C823 1.283 . S
O808 Tb756 2.421 . S
O808 C830 1.262 . S
O809 Tb767 2.320 . S
O809 C830 1.260 . S
O810 Tb767 2.552 . S
O810 C823 1.243 . S
O811 Tb767 2.413 . S
O811 C831 1.256 . S
C812 O801 1.283 . S
C812 O804 1.243 . S
C813 C815 1.382 . S
C813 C817 1.393 . S
C813 C820 1.500 . S
C814 C815 1.400 . S
C814 C816 1.384 . S
C815 C813 1.382 . S
C815 C814 1.400 . S
C815 H832 0.930 . S
C816 C814 1.384 . S
C816 C818 1.392 . S
C816 H833 0.931 . S
C817 C813 1.393 . S
C817 C818 1.401 . S
C817 H834 0.930 . S
C818 C816 1.392 . S
C818 C817 1.401 . S
C818 H835 0.930 . S
C819 O802 1.262 . S
C819 O803 1.260 . S
C820 Tb756 2.833 . S
C820 O800 1.251 . S
C820 O805 1.256 . S
C820 C813 1.500 . S
C821 H786 0.929 . S
C821 C799 1.444 . S
C821 C822 1.317 . S
C822 H784 0.930 . S
C822 C790 1.432 . S
C822 C821 1.317 . S
C823 O807 1.283 . S
C823 O810 1.243 . S
C824 C825 1.382 . S
C824 C828 1.393 . S
C824 C831 1.500 . S
C825 C824 1.382 . S
C825 C826 1.400 . S
C825 H836 0.930 . S
C826 C825 1.400 . S
C826 C827 1.384 . S
C827 C826 1.384 . S
C827 C829 1.392 . S
C827 H837 0.931 . S
C828 C824 1.393 . S
C828 C829 1.401 . S
C828 H838 0.930 . S
C829 C827 1.392 . S
C829 C828 1.401 . S
C829 H839 0.930 . S
C830 O808 1.262 . S
C830 O809 1.260 . S
C831 Tb767 2.833 . S
C831 O806 1.251 . S
C831 O811 1.256 . S
C831 C824 1.500 . S
H832 C815 0.930 . S
H833 C816 0.931 . S
H834 C817 0.930 . S
H835 C818 0.930 . S
H836 C825 0.930 . S
H837 C827 0.931 . S
H838 C828 0.930 . S
H839 C829 0.930 . S
Tb840 N871 2.660 . S
Tb840 N878 2.600 . S
Tb840 O884 2.546 . S
Tb840 O885 2.610 . S
Tb840 O887 2.320 . S
Tb840 O888 2.552 . S
Tb840 O889 2.413 . S
Tb840 O891 2.362 . S
Tb840 O892 2.421 . S
Tb840 C904 2.833 . S
C841 C844 1.432 . S
C841 C845 1.414 . S
C841 N848 1.359 . S
C842 C844 1.417 . S
C842 C846 1.432 . S
C842 C854 1.410 . S
C843 C845 1.444 . S
C843 C846 1.317 . S
C843 H866 0.929 . S
C844 C841 1.432 . S
C844 C842 1.417 . S
C844 N852 1.360 . S
C845 C841 1.414 . S
C845 C843 1.444 . S
C845 C850 1.385 . S
C846 C842 1.432 . S
C846 C843 1.317 . S
C846 H858 0.930 . S
C847 C849 1.392 . S
C847 C850 1.370 . S
C847 H859 0.931 . S
N848 C841 1.359 . S
N848 C849 1.327 . S
N848 Tb851 2.600 . S
C849 C847 1.392 . S
C849 N848 1.327 . S
C849 H856 0.930 . S
C850 C845 1.385 . S
C850 C847 1.370 . S
C850 H869 0.930 . S
Tb851 N848 2.600 . S
Tb851 N852 2.660 . S
Tb851 O885 2.362 . S
Tb851 O886 2.421 . S
Tb851 O890 2.546 . S
Tb851 O891 2.610 . S
Tb851 O893 2.320 . S
Tb851 O894 2.552 . S
Tb851 O895 2.413 . S
Tb851 C915 2.833 . S
N852 C844 1.360 . S
N852 Tb851 2.660 . S
N852 C853 1.305 . S
C853 N852 1.305 . S
C853 C855 1.407 . S
C853 H860 0.930 . S
C854 C842 1.410 . S
C854 C855 1.345 . S
C854 H862 0.930 . S
C855 C853 1.407 . S
C855 C854 1.345 . S
C855 H857 0.930 . S
H856 C849 0.930 . S
H857 C855 0.930 . S
H858 C846 0.930 . S
H859 C847 0.931 . S
H860 C853 0.930 . S
H861 C875 0.930 . S
H862 C854 0.930 . S
H863 C881 0.930 . S
H864 C872 0.930 . S
H865 C879 0.931 . S
H866 C843 0.929 . S
H867 C873 0.930 . S
H868 C906 0.930 . S
H869 C850 0.930 . S
H870 C905 0.929 . S
N871 Tb840 2.660 . S
N871 C872 1.305 . S
N871 C876 1.360 . S
C872 H864 0.930 . S
C872 N871 1.305 . S
C872 C875 1.407 . S
C873 H867 0.930 . S
C873 C874 1.410 . S
C873 C875 1.345 . S
C874 C873 1.410 . S
C874 C876 1.417 . S
C874 C906 1.432 . S
C875 H861 0.930 . S
C875 C872 1.407 . S
C875 C873 1.345 . S
C876 N871 1.360 . S
C876 C874 1.417 . S
C876 C880 1.432 . S
H877 C882 0.930 . S
N878 Tb840 2.600 . S
N878 C880 1.359 . S
N878 C881 1.327 . S
C879 H865 0.931 . S
C879 C881 1.392 . S
C879 C882 1.370 . S
C880 C876 1.432 . S
C880 N878 1.359 . S
C880 C883 1.414 . S
C881 H863 0.930 . S
C881 N878 1.327 . S
C881 C879 1.392 . S
C882 H877 0.930 . S
C882 C879 1.370 . S
C882 C883 1.385 . S
C883 C880 1.414 . S
C883 C882 1.385 . S
C883 C905 1.444 . S
O884 Tb840 2.546 . S
O884 C904 1.251 . S
O885 Tb840 2.610 . S
O885 Tb851 2.362 . S
O885 C896 1.283 . S
O886 Tb851 2.421 . S
O886 C903 1.262 . S
O887 Tb840 2.320 . S
O887 C903 1.260 . S
O888 Tb840 2.552 . S
O888 C896 1.243 . S
O889 Tb840 2.413 . S
O889 C904 1.256 . S
O890 Tb851 2.546 . S
O890 C915 1.251 . S
O891 Tb840 2.362 . S
O891 Tb851 2.610 . S
O891 C907 1.283 . S
O892 Tb840 2.421 . S
O892 C914 1.262 . S
O893 Tb851 2.320 . S
O893 C914 1.260 . S
O894 Tb851 2.552 . S
O894 C907 1.243 . S
O895 Tb851 2.413 . S
O895 C915 1.256 . S
C896 O885 1.283 . S
C896 O888 1.243 . S
C897 C899 1.382 . S
C897 C901 1.393 . S
C897 C904 1.500 . S
C898 C899 1.400 . S
C898 C900 1.384 . S
C899 C897 1.382 . S
C899 C898 1.400 . S
C899 H916 0.930 . S
C900 C898 1.384 . S
C900 C902 1.392 . S
C900 H917 0.931 . S
C901 C897 1.393 . S
C901 C902 1.401 . S
C901 H918 0.930 . S
C902 C900 1.392 . S
C902 C901 1.401 . S
C902 H919 0.930 . S
C903 O886 1.262 . S
C903 O887 1.260 . S
C904 Tb840 2.833 . S
C904 O884 1.251 . S
C904 O889 1.256 . S
C904 C897 1.500 . S
C905 H870 0.929 . S
C905 C883 1.444 . S
C905 C906 1.317 . S
C906 H868 0.930 . S
C906 C874 1.432 . S
C906 C905 1.317 . S
C907 O891 1.283 . S
C907 O894 1.243 . S
C908 C909 1.382 . S
C908 C912 1.393 . S
C908 C915 1.500 . S
C909 C908 1.382 . S
C909 C910 1.400 1_455 S
C909 H920 0.930 . S
C910 C909 1.400 1_655 S
C910 C911 1.384 . S
C911 C910 1.384 . S
C911 C913 1.392 . S
C911 H921 0.931 . S
C912 C908 1.393 . S
C912 C913 1.401 1_455 S
C912 H922 0.930 . S
C913 C911 1.392 . S
C913 C912 1.401 1_655 S
C913 H923 0.930 . S
C914 O892 1.262 . S
C914 O893 1.260 . S
C915 Tb851 2.833 . S
C915 O890 1.251 . S
C915 O895 1.256 . S
C915 C908 1.500 . S
H916 C899 0.930 . S
H917 C900 0.931 . S
H918 C901 0.930 . S
H919 C902 0.930 . S
H920 C909 0.930 . S
H921 C911 0.931 . S
H922 C912 0.930 . S
H923 C913 0.930 . S
Tb924 N955 2.660 . S
Tb924 N962 2.600 . S
Tb924 O968 2.546 . S
Tb924 O969 2.610 . S
Tb924 O971 2.320 . S
Tb924 O972 2.552 . S
Tb924 O973 2.413 . S
Tb924 O975 2.362 . S
Tb924 O976 2.421 . S
Tb924 C988 2.833 . S
C925 C928 1.432 . S
C925 C929 1.414 . S
C925 N932 1.359 . S
C926 C928 1.417 . S
C926 C930 1.432 . S
C926 C938 1.410 . S
C927 C929 1.444 . S
C927 C930 1.317 . S
C927 H950 0.929 . S
C928 C925 1.432 . S
C928 C926 1.417 . S
C928 N936 1.360 . S
C929 C925 1.414 . S
C929 C927 1.444 . S
C929 C934 1.385 . S
C930 C926 1.432 . S
C930 C927 1.317 . S
C930 H942 0.930 . S
C931 C933 1.392 . S
C931 C934 1.370 . S
C931 H943 0.931 . S
N932 C925 1.359 . S
N932 C933 1.327 . S
N932 Tb935 2.600 . S
C933 C931 1.392 . S
C933 N932 1.327 . S
C933 H940 0.930 . S
C934 C929 1.385 . S
C934 C931 1.370 . S
C934 H953 0.930 . S
Tb935 N932 2.600 . S
Tb935 N936 2.660 . S
Tb935 O969 2.362 . S
Tb935 O970 2.421 . S
Tb935 O974 2.546 . S
Tb935 O975 2.610 . S
Tb935 O977 2.320 . S
Tb935 O978 2.552 . S
Tb935 O979 2.413 . S
Tb935 C999 2.833 . S
N936 C928 1.360 . S
N936 Tb935 2.660 . S
N936 C937 1.305 . S
C937 N936 1.305 . S
C937 C939 1.407 . S
C937 H944 0.930 . S
C938 C926 1.410 . S
C938 C939 1.345 . S
C938 H946 0.930 . S
C939 C937 1.407 . S
C939 C938 1.345 . S
C939 H941 0.930 . S
H940 C933 0.930 . S
H941 C939 0.930 . S
H942 C930 0.930 . S
H943 C931 0.931 . S
H944 C937 0.930 . S
H945 C959 0.930 . S
H946 C938 0.930 . S
H947 C965 0.930 . S
H948 C956 0.930 . S
H949 C963 0.931 . S
H950 C927 0.929 . S
H951 C957 0.930 . S
H952 C990 0.930 . S
H953 C934 0.930 . S
H954 C989 0.929 . S
N955 Tb924 2.660 . S
N955 C956 1.305 . S
N955 C960 1.360 . S
C956 H948 0.930 . S
C956 N955 1.305 . S
C956 C959 1.407 . S
C957 H951 0.930 . S
C957 C958 1.410 . S
C957 C959 1.345 . S
C958 C957 1.410 . S
C958 C960 1.417 . S
C958 C990 1.432 . S
C959 H945 0.930 . S
C959 C956 1.407 . S
C959 C957 1.345 . S
C960 N955 1.360 . S
C960 C958 1.417 . S
C960 C964 1.432 . S
H961 C966 0.930 . S
N962 Tb924 2.600 . S
N962 C964 1.359 . S
N962 C965 1.327 . S
C963 H949 0.931 . S
C963 C965 1.392 . S
C963 C966 1.370 . S
C964 C960 1.432 . S
C964 N962 1.359 . S
C964 C967 1.414 . S
C965 H947 0.930 . S
C965 N962 1.327 . S
C965 C963 1.392 . S
C966 H961 0.930 . S
C966 C963 1.370 . S
C966 C967 1.385 . S
C967 C964 1.414 . S
C967 C966 1.385 . S
C967 C989 1.444 . S
O968 Tb924 2.546 . S
O968 C988 1.251 . S
O969 Tb924 2.610 . S
O969 Tb935 2.362 . S
O969 C980 1.283 . S
O970 Tb935 2.421 . S
O970 C987 1.262 . S
O971 Tb924 2.320 . S
O971 C987 1.260 . S
O972 Tb924 2.552 . S
O972 C980 1.243 . S
O973 Tb924 2.413 . S
O973 C988 1.256 . S
O974 Tb935 2.546 . S
O974 C999 1.251 . S
O975 Tb924 2.362 . S
O975 Tb935 2.610 . S
O975 C991 1.283 . S
O976 Tb924 2.421 . S
O976 C998 1.262 . S
O977 Tb935 2.320 . S
O977 C998 1.260 . S
O978 Tb935 2.552 . S
O978 C991 1.243 . S
O979 Tb935 2.413 . S
O979 C999 1.256 . S
C980 O969 1.283 . S
C980 O972 1.243 . S
C981 C983 1.382 . S
C981 C985 1.393 . S
C981 C988 1.500 . S
C982 C983 1.400 . S
C982 C984 1.384 . S
C983 C981 1.382 . S
C983 C982 1.400 . S
C983 H1000 0.930 . S
C984 C982 1.384 . S
C984 C986 1.392 . S
C984 H1001 0.931 . S
C985 C981 1.393 . S
C985 C986 1.401 . S
C985 H1002 0.930 . S
C986 C984 1.392 . S
C986 C985 1.401 . S
C986 H1003 0.930 . S
C987 O970 1.262 . S
C987 O971 1.260 . S
C988 Tb924 2.833 . S
C988 O968 1.251 . S
C988 O973 1.256 . S
C988 C981 1.500 . S
C989 H954 0.929 . S
C989 C967 1.444 . S
C989 C990 1.317 . S
C990 H952 0.930 . S
C990 C958 1.432 . S
C990 C989 1.317 . S
C991 O975 1.283 . S
C991 O978 1.243 . S
C992 C993 1.382 . S
C992 C996 1.393 . S
C992 C999 1.500 . S
C993 C992 1.382 . S
C993 C994 1.400 1_545 S
C993 H1004 0.930 . S
C994 C993 1.400 1_565 S
C994 C995 1.384 . S
C995 C994 1.384 . S
C995 C997 1.392 . S
C995 H1005 0.931 . S
C996 C992 1.393 . S
C996 C997 1.401 1_545 S
C996 H1006 0.930 . S
C997 C995 1.392 . S
C997 C996 1.401 1_565 S
C997 H1007 0.930 . S
C998 O976 1.262 . S
C998 O977 1.260 . S
C999 Tb935 2.833 . S
C999 O974 1.251 . S
C999 O979 1.256 . S
C999 C992 1.500 . S
H1000 C983 0.930 . S
H1001 C984 0.931 . S
H1002 C985 0.930 . S
H1003 C986 0.930 . S
H1004 C993 0.930 . S
H1005 C995 0.931 . S
H1006 C996 0.930 . S
H1007 C997 0.930 . S
H1008 C1016 0.929 . S
H1009 C1018 0.930 . S
H1010 C1020 0.930 . S
H1011 C1023 0.929 . S
H1012 C1026 0.930 . S
H1013 C1028 0.960 . S
H1014 C1028 0.960 . S
H1015 C1028 0.960 . S
C1016 H1008 0.929 . S
C1016 C1017 1.377 . S
C1016 C1018 1.384 . S
C1017 C1016 1.377 . S
C1017 C1023 1.390 . S
C1018 H1009 0.930 . S
C1018 C1016 1.384 . S
C1018 C1019 1.372 . S
C1019 C1018 1.372 . S
C1019 C1020 1.400 . S
C1019 C1024 1.490 . S
C1020 H1010 0.930 . S
C1020 C1019 1.400 . S
C1020 C1023 1.386 . S
H1021 C1037 0.930 . S
H1022 C1038 0.931 . S
C1023 H1011 0.929 . S
C1023 C1017 1.390 . S
C1023 C1020 1.386 . S
C1024 C1019 1.490 . S
C1024 C1026 1.395 1_565 S
C1024 C1027 1.411 . S
H1025 C1031 0.930 . S
C1026 H1012 0.930 . S
C1026 C1024 1.395 1_545 S
C1026 C1029 1.403 . S
C1027 C1024 1.411 . S
C1027 C1028 1.528 . S
C1027 C1031 1.387 1_565 S
C1028 H1013 0.960 . S
C1028 H1014 0.960 . S
C1028 H1015 0.960 . S
C1028 C1027 1.528 . S
C1029 C1026 1.403 . S
C1029 C1030 1.392 . S
C1029 C1033 1.495 . S
C1030 C1029 1.392 . S
C1030 C1031 1.385 . S
C1030 C1032 1.478 . S
C1031 H1025 0.930 . S
C1031 C1027 1.387 1_545 S
C1031 C1030 1.385 . S
C1032 C1030 1.478 . S
C1032 C1034 1.381 . S
C1032 C1038 1.383 . S
C1033 C1029 1.495 . S
C1033 H1039 0.959 . S
C1033 H1040 0.961 . S
C1033 H1041 0.960 . S
C1034 C1032 1.381 . S
C1034 C1035 1.394 . S
C1034 H1042 0.930 . S
C1035 C1034 1.394 . S
C1035 C1036 1.383 . S
C1035 H1043 0.929 . S
C1036 C1035 1.383 . S
C1036 C1037 1.377 . S
C1037 H1021 0.930 . S
C1037 C1036 1.377 . S
C1037 C1038 1.379 . S
C1038 H1022 0.931 . S
C1038 C1032 1.383 . S
C1038 C1037 1.379 . S
H1039 C1033 0.959 . S
H1040 C1033 0.961 . S
H1041 C1033 0.960 . S
H1042 C1034 0.930 . S
H1043 C1035 0.929 . S
H1044 C1052 0.929 . S
H1045 C1054 0.930 . S
H1046 C1056 0.930 . S
H1047 C1059 0.929 . S
H1048 C1062 0.930 . S
H1049 C1064 0.960 . S
H1050 C1064 0.960 . S
H1051 C1064 0.960 . S
C1052 H1044 0.929 . S
C1052 C1053 1.377 . S
C1052 C1054 1.384 . S
C1053 C1052 1.377 . S
C1053 C1059 1.390 . S
C1054 H1045 0.930 . S
C1054 C1052 1.384 . S
C1054 C1055 1.372 . S
C1055 C1054 1.372 . S
C1055 C1056 1.400 . S
C1055 C1060 1.490 . S
C1056 H1046 0.930 . S
C1056 C1055 1.400 . S
C1056 C1059 1.386 . S
H1057 C1073 0.930 . S
H1058 C1074 0.931 . S
C1059 H1047 0.929 . S
C1059 C1053 1.390 . S
C1059 C1056 1.386 . S
C1060 C1055 1.490 . S
C1060 C1062 1.395 . S
C1060 C1063 1.403 . S
H1061 C1067 0.930 . S
C1062 H1048 0.930 . S
C1062 C1060 1.395 . S
C1062 C1065 1.403 . S
C1063 C1060 1.403 . S
C1063 C1064 1.524 . S
C1063 C1067 1.400 . S
C1064 H1049 0.960 . S
C1064 H1050 0.960 . S
C1064 H1051 0.960 . S
C1064 C1063 1.524 . S
C1065 C1062 1.403 . S
C1065 C1066 1.392 . S
C1065 C1069 1.495 . S
C1066 C1065 1.392 . S
C1066 C1067 1.385 . S
C1066 C1068 1.478 . S
C1067 H1061 0.930 . S
C1067 C1063 1.400 . S
C1067 C1066 1.385 . S
C1068 C1066 1.478 . S
C1068 C1070 1.381 . S
C1068 C1074 1.383 . S
C1069 C1065 1.495 . S
C1069 H1075 0.959 . S
C1069 H1076 0.961 . S
C1069 H1077 0.960 . S
C1070 C1068 1.381 . S
C1070 C1071 1.394 . S
C1070 H1078 0.930 . S
C1071 C1070 1.394 . S
C1071 C1072 1.383 . S
C1071 H1079 0.929 . S
C1072 C1071 1.383 . S
C1072 C1073 1.377 . S
C1073 H1057 0.930 . S
C1073 C1072 1.377 . S
C1073 C1074 1.379 . S
C1074 H1058 0.931 . S
C1074 C1068 1.383 . S
C1074 C1073 1.379 . S
H1075 C1069 0.959 . S
H1076 C1069 0.961 . S
H1077 C1069 0.960 . S
H1078 C1070 0.930 . S
H1079 C1071 0.929 . S
H1080 C1088 0.929 . S
H1081 C1090 0.930 . S
H1082 C1092 0.930 . S
H1083 C1095 0.929 . S
H1084 C1098 0.930 . S
H1085 C1100 0.960 . S
H1086 C1100 0.960 . S
H1087 C1100 0.960 . S
C1088 H1080 0.929 . S
C1088 C1089 1.377 . S
C1088 C1090 1.384 . S
C1089 C1088 1.377 . S
C1089 C1095 1.390 . S
C1090 H1081 0.930 . S
C1090 C1088 1.384 . S
C1090 C1091 1.372 . S
C1091 C1090 1.372 . S
C1091 C1092 1.400 . S
C1091 C1096 1.490 . S
C1092 H1082 0.930 . S
C1092 C1091 1.400 . S
C1092 C1095 1.386 . S
H1093 C1109 0.930 . S
H1094 C1110 0.931 . S
C1095 H1083 0.929 . S
C1095 C1089 1.390 . S
C1095 C1092 1.386 . S
C1096 C1091 1.490 . S
C1096 C1098 1.395 . S
C1096 C1099 1.403 . S
H1097 C1103 0.930 . S
C1098 H1084 0.930 . S
C1098 C1096 1.395 . S
C1098 C1101 1.403 1_655 S
C1099 C1096 1.403 . S
C1099 C1100 1.524 . S
C1099 C1103 1.400 . S
C1100 H1085 0.960 . S
C1100 H1086 0.960 . S
C1100 H1087 0.960 . S
C1100 C1099 1.524 . S
C1101 C1098 1.403 1_455 S
C1101 C1102 1.392 . S
C1101 C1105 1.495 . S
C1102 C1101 1.392 . S
C1102 C1103 1.385 1_455 S
C1102 C1104 1.478 . S
C1103 H1097 0.930 . S
C1103 C1099 1.400 . S
C1103 C1102 1.385 1_655 S
C1104 C1102 1.478 . S
C1104 C1106 1.381 . S
C1104 C1110 1.383 . S
C1105 C1101 1.495 . S
C1105 H1111 0.959 . S
C1105 H1112 0.961 . S
C1105 H1113 0.960 . S
C1106 C1104 1.381 . S
C1106 C1107 1.394 . S
C1106 H1114 0.930 . S
C1107 C1106 1.394 . S
C1107 C1108 1.383 . S
C1107 H1115 0.929 . S
C1108 C1107 1.383 . S
C1108 C1109 1.377 . S
C1109 H1093 0.930 . S
C1109 C1108 1.377 . S
C1109 C1110 1.379 . S
C1110 H1094 0.931 . S
C1110 C1104 1.383 . S
C1110 C1109 1.379 . S
H1111 C1105 0.959 . S
H1112 C1105 0.961 . S
H1113 C1105 0.960 . S
H1114 C1106 0.930 . S
H1115 C1107 0.929 . S
H1116 C1124 0.929 . S
H1117 C1126 0.930 . S
H1118 C1128 0.930 . S
H1119 C1131 0.929 . S
H1120 C1134 0.930 . S
H1121 C1136 0.960 . S
H1122 C1136 0.960 . S
H1123 C1136 0.960 . S
C1124 H1116 0.929 . S
C1124 C1125 1.377 . S
C1124 C1126 1.384 . S
C1125 C1124 1.377 . S
C1125 C1131 1.390 . S
C1126 H1117 0.930 . S
C1126 C1124 1.384 . S
C1126 C1127 1.372 . S
C1127 C1126 1.372 . S
C1127 C1128 1.400 . S
C1127 C1132 1.490 . S
C1128 H1118 0.930 . S
C1128 C1127 1.400 . S
C1128 C1131 1.386 . S
H1129 C1145 0.930 . S
H1130 C1146 0.931 . S
C1131 H1119 0.929 . S
C1131 C1125 1.390 . S
C1131 C1128 1.386 . S
C1132 C1127 1.490 . S
C1132 C1134 1.395 . S
C1132 C1135 1.403 . S
H1133 C1139 0.930 1_545 S
C1134 H1120 0.930 . S
C1134 C1132 1.395 . S
C1134 C1137 1.403 . S
C1135 C1132 1.403 . S
C1135 C1136 1.524 . S
C1135 C1139 1.400 . S
C1136 H1121 0.960 . S
C1136 H1122 0.960 . S
C1136 H1123 0.960 . S
C1136 C1135 1.524 . S
C1137 C1134 1.403 . S
C1137 C1138 1.392 1_565 S
C1137 C1141 1.495 1_565 S
C1138 C1137 1.392 1_545 S
C1138 C1139 1.385 1_545 S
C1138 C1140 1.478 . S
C1139 H1133 0.930 1_565 S
C1139 C1135 1.400 . S
C1139 C1138 1.385 1_565 S
C1140 C1138 1.478 . S
C1140 C1142 1.381 . S
C1140 C1146 1.383 . S
C1141 C1137 1.495 1_545 S
C1141 H1147 0.953 1_545 S
C1141 H1148 0.961 . S
C1141 H1149 0.960 . S
C1142 C1140 1.381 . S
C1142 C1143 1.394 . S
C1142 H1150 0.930 . S
C1143 C1142 1.394 . S
C1143 C1144 1.383 . S
C1143 H1151 0.929 . S
C1144 C1143 1.383 . S
C1144 C1145 1.377 . S
C1145 H1129 0.930 . S
C1145 C1144 1.377 . S
C1145 C1146 1.379 . S
C1146 H1130 0.931 . S
C1146 C1140 1.383 . S
C1146 C1145 1.379 . S
H1147 C1141 0.953 1_565 S
H1148 C1141 0.961 . S
H1149 C1141 0.960 . S
H1150 C1142 0.930 . S
H1151 C1143 0.929 . S
H1152 C1160 0.929 . S
H1153 C1162 0.930 . S
H1154 C1164 0.930 . S
H1155 C1167 0.929 . S
H1156 C1170 0.930 . S
H1157 C1172 0.960 . S
H1158 C1172 0.960 . S
H1159 C1172 0.960 . S
C1160 H1152 0.929 . S
C1160 C1161 1.377 . S
C1160 C1162 1.384 . S
C1161 C1160 1.377 . S
C1161 C1167 1.390 . S
C1162 H1153 0.930 . S
C1162 C1160 1.384 . S
C1162 C1163 1.372 . S
C1163 C1162 1.372 . S
C1163 C1164 1.400 . S
C1163 C1168 1.490 . S
C1164 H1154 0.930 . S
C1164 C1163 1.400 . S
C1164 C1167 1.386 . S
H1165 C1181 0.930 . S
H1166 C1182 0.931 . S
C1167 H1155 0.929 . S
C1167 C1161 1.390 . S
C1167 C1164 1.386 . S
C1168 C1163 1.490 . S
C1168 C1170 1.395 . S
C1168 C1171 1.403 . S
H1169 C1175 0.930 . S
C1170 H1156 0.930 . S
C1170 C1168 1.395 . S
C1170 C1173 1.403 . S
C1171 C1168 1.403 . S
C1171 C1172 1.524 . S
C1171 C1175 1.400 . S
C1172 H1157 0.960 . S
C1172 H1158 0.960 . S
C1172 H1159 0.960 . S
C1172 C1171 1.524 . S
C1173 C1170 1.403 . S
C1173 C1174 1.392 . S
C1173 C1177 1.495 . S
C1174 C1173 1.392 . S
C1174 C1175 1.385 . S
C1174 C1176 1.478 . S
C1175 H1169 0.930 . S
C1175 C1171 1.400 . S
C1175 C1174 1.385 . S
C1176 C1174 1.478 . S
C1176 C1178 1.381 . S
C1176 C1182 1.383 . S
C1177 C1173 1.495 . S
C1177 H1183 0.959 . S
C1177 H1184 0.961 . S
C1177 H1185 0.960 . S
C1178 C1176 1.381 . S
C1178 C1179 1.394 . S
C1178 H1186 0.930 . S
C1179 C1178 1.394 . S
C1179 C1180 1.383 . S
C1179 H1187 0.929 . S
C1180 C1179 1.383 . S
C1180 C1181 1.377 . S
C1181 H1165 0.930 . S
C1181 C1180 1.377 . S
C1181 C1182 1.379 . S
C1182 H1166 0.931 . S
C1182 C1176 1.383 . S
C1182 C1181 1.379 . S
H1183 C1177 0.959 . S
H1184 C1177 0.961 . S
H1185 C1177 0.960 . S
H1186 C1178 0.930 . S
H1187 C1179 0.929 . S
H1188 C1196 0.929 . S
H1189 C1198 0.930 . S
H1190 C1200 0.930 . S
H1191 C1203 0.929 . S
H1192 C1206 0.930 . S
H1193 C1208 0.960 . S
H1194 C1208 0.960 . S
H1195 C1208 0.960 . S
C1196 H1188 0.929 . S
C1196 C1197 1.377 . S
C1196 C1198 1.384 . S
C1197 C1196 1.377 . S
C1197 C1203 1.390 . S
C1198 H1189 0.930 . S
C1198 C1196 1.384 . S
C1198 C1199 1.372 . S
C1199 C1198 1.372 . S
C1199 C1200 1.400 . S
C1199 C1204 1.490 . S
C1200 H1190 0.930 . S
C1200 C1199 1.400 . S
C1200 C1203 1.386 . S
H1201 C1217 0.930 . S
H1202 C1218 0.931 . S
C1203 H1191 0.929 . S
C1203 C1197 1.390 . S
C1203 C1200 1.386 . S
C1204 C1199 1.490 . S
C1204 C1206 1.395 1_655 S
C1204 C1207 1.403 . S
H1205 C1211 0.930 . S
C1206 H1192 0.930 . S
C1206 C1204 1.395 1_455 S
C1206 C1209 1.403 . S
C1207 C1204 1.403 . S
C1207 C1208 1.524 . S
C1207 C1211 1.400 1_655 S
C1208 H1193 0.960 . S
C1208 H1194 0.960 . S
C1208 H1195 0.960 . S
C1208 C1207 1.524 . S
C1209 C1206 1.403 . S
C1209 C1210 1.392 . S
C1209 C1213 1.495 . S
C1210 C1209 1.392 . S
C1210 C1211 1.385 . S
C1210 C1212 1.478 . S
C1211 H1205 0.930 . S
C1211 C1207 1.400 1_455 S
C1211 C1210 1.385 . S
C1212 C1210 1.478 . S
C1212 C1214 1.381 . S
C1212 C1218 1.383 . S
C1213 C1209 1.495 . S
C1213 H1219 0.959 . S
C1213 H1220 0.961 . S
C1213 H1221 0.960 . S
C1214 C1212 1.381 . S
C1214 C1215 1.394 . S
C1214 H1222 0.930 . S
C1215 C1214 1.394 . S
C1215 C1216 1.383 . S
C1215 H1223 0.929 . S
C1216 C1215 1.383 . S
C1216 C1217 1.377 . S
C1217 H1201 0.930 . S
C1217 C1216 1.377 . S
C1217 C1218 1.379 . S
C1218 H1202 0.931 . S
C1218 C1212 1.383 . S
C1218 C1217 1.379 . S
H1219 C1213 0.959 . S
H1220 C1213 0.961 . S
H1221 C1213 0.960 . S
H1222 C1214 0.930 . S
H1223 C1215 0.929 . S
H1224 C1232 0.929 . S
H1225 C1234 0.930 . S
H1226 C1236 0.930 . S
H1227 C1239 0.929 . S
H1228 C1242 0.930 . S
H1229 C1244 0.960 . S
H1230 C1244 0.960 . S
H1231 C1244 0.960 . S
C1232 H1224 0.929 . S
C1232 C1233 1.377 . S
C1232 C1234 1.384 . S
C1233 C1232 1.377 . S
C1233 C1239 1.390 . S
C1234 H1225 0.930 . S
C1234 C1232 1.384 . S
C1234 C1235 1.372 . S
C1235 C1234 1.372 . S
C1235 C1236 1.400 . S
C1235 C1240 1.490 . S
C1236 H1226 0.930 . S
C1236 C1235 1.400 . S
C1236 C1239 1.386 . S
H1237 C1253 0.930 . S
H1238 C1254 0.931 . S
C1239 H1227 0.929 . S
C1239 C1233 1.390 . S
C1239 C1236 1.386 . S
C1240 C1235 1.490 . S
C1240 C1242 1.395 . S
C1240 C1243 1.403 1_455 S
H1241 C1247 0.930 . S
C1242 H1228 0.930 . S
C1242 C1240 1.395 . S
C1242 C1245 1.403 1_455 S
C1243 C1240 1.403 1_655 S
C1243 C1244 1.524 . S
C1243 C1247 1.400 . S
C1244 H1229 0.960 . S
C1244 H1230 0.960 . S
C1244 H1231 0.960 . S
C1244 C1243 1.524 . S
C1245 C1242 1.403 1_655 S
C1245 C1246 1.392 . S
C1245 C1249 1.495 . S
C1246 C1245 1.392 . S
C1246 C1247 1.385 . S
C1246 C1248 1.478 . S
C1247 H1241 0.930 . S
C1247 C1243 1.400 . S
C1247 C1246 1.385 . S
C1248 C1246 1.478 . S
C1248 C1250 1.381 . S
C1248 C1254 1.383 . S
C1249 C1245 1.495 . S
C1249 H1255 0.959 . S
C1249 H1256 0.961 . S
C1249 H1257 0.960 . S
C1250 C1248 1.381 . S
C1250 C1251 1.394 . S
C1250 H1258 0.930 . S
C1251 C1250 1.394 . S
C1251 C1252 1.383 . S
C1251 H1259 0.929 . S
C1252 C1251 1.383 . S
C1252 C1253 1.377 . S
C1253 H1237 0.930 . S
C1253 C1252 1.377 . S
C1253 C1254 1.379 . S
C1254 H1238 0.931 . S
C1254 C1248 1.383 . S
C1254 C1253 1.379 . S
H1255 C1249 0.959 . S
H1256 C1249 0.961 . S
H1257 C1249 0.960 . S
H1258 C1250 0.930 . S
H1259 C1251 0.929 . S
H1260 C1268 0.929 . S
H1261 C1270 0.930 . S
H1262 C1272 0.930 . S
H1263 C1275 0.929 . S
H1264 C1278 0.930 . S
H1265 C1280 0.960 . S
H1266 C1280 0.960 . S
H1267 C1280 0.960 . S
C1268 H1260 0.929 . S
C1268 C1269 1.377 . S
C1268 C1270 1.384 . S
C1269 C1268 1.377 . S
C1269 C1275 1.390 . S
C1270 H1261 0.930 . S
C1270 C1268 1.384 . S
C1270 C1271 1.372 . S
C1271 C1270 1.372 . S
C1271 C1272 1.400 . S
C1271 C1276 1.490 . S
C1272 H1262 0.930 . S
C1272 C1271 1.400 . S
C1272 C1275 1.386 . S
H1273 C1289 0.930 . S
H1274 C1290 0.931 . S
C1275 H1263 0.929 . S
C1275 C1269 1.390 . S
C1275 C1272 1.386 . S
C1276 C1271 1.490 . S
C1276 C1278 1.395 . S
C1276 C1279 1.403 . S
H1277 C1283 0.930 . S
C1278 H1264 0.930 . S
C1278 C1276 1.395 . S
C1278 C1281 1.403 . S
C1279 C1276 1.403 . S
C1279 C1280 1.524 . S
C1279 C1283 1.400 1_565 S
C1280 H1265 0.960 . S
C1280 H1266 0.960 . S
C1280 H1267 0.960 . S
C1280 C1279 1.524 . S
C1281 C1278 1.403 . S
C1281 C1282 1.392 1_565 S
C1281 C1285 1.495 . S
C1282 C1281 1.392 1_545 S
C1282 C1283 1.385 . S
C1282 C1284 1.478 . S
C1283 H1277 0.930 . S
C1283 C1279 1.400 1_545 S
C1283 C1282 1.385 . S
C1284 C1282 1.478 . S
C1284 C1286 1.381 . S
C1284 C1290 1.383 . S
C1285 C1281 1.495 . S
C1285 H1291 0.959 . S
C1285 H1292 0.961 1_565 S
C1285 H1293 0.960 . S
C1286 C1284 1.381 . S
C1286 C1287 1.394 . S
C1286 H1294 0.930 . S
C1287 C1286 1.394 . S
C1287 C1288 1.383 . S
C1287 H1295 0.929 . S
C1288 C1287 1.383 . S
C1288 C1289 1.377 . S
C1289 H1273 0.930 . S
C1289 C1288 1.377 . S
C1289 C1290 1.379 . S
C1290 H1274 0.931 . S
C1290 C1284 1.383 . S
C1290 C1289 1.379 . S
H1291 C1285 0.959 . S
H1292 C1285 0.961 1_545 S
H1293 C1285 0.960 . S
H1294 C1286 0.930 . S
H1295 C1287 0.929 . S
H1296 C1304 0.929 . S
H1297 C1306 0.930 . S
H1298 C1308 0.930 . S
H1299 C1311 0.929 . S
H1300 C1314 0.930 . S
H1301 C1316 0.960 . S
H1302 C1316 0.960 . S
H1303 C1316 0.960 . S
C1304 H1296 0.929 . S
C1304 C1305 1.377 . S
C1304 C1306 1.384 . S
C1305 C1304 1.377 . S
C1305 C1311 1.390 . S
C1306 H1297 0.930 . S
C1306 C1304 1.384 . S
C1306 C1307 1.372 . S
C1307 C1306 1.372 . S
C1307 C1308 1.400 . S
C1307 C1312 1.490 . S
C1308 H1298 0.930 . S
C1308 C1307 1.400 . S
C1308 C1311 1.386 . S
H1309 C1325 0.930 . S
H1310 C1326 0.931 . S
C1311 H1299 0.929 . S
C1311 C1305 1.390 . S
C1311 C1308 1.386 . S
C1312 C1307 1.490 . S
C1312 C1314 1.395 . S
C1312 C1315 1.403 . S
H1313 C1319 0.930 . S
C1314 H1300 0.930 . S
C1314 C1312 1.395 . S
C1314 C1317 1.403 . S
C1315 C1312 1.403 . S
C1315 C1316 1.524 . S
C1315 C1319 1.400 . S
C1316 H1301 0.960 . S
C1316 H1302 0.960 . S
C1316 H1303 0.960 . S
C1316 C1315 1.524 . S
C1317 C1314 1.403 . S
C1317 C1318 1.392 . S
C1317 C1321 1.495 . S
C1318 C1317 1.392 . S
C1318 C1319 1.385 . S
C1318 C1320 1.478 . S
C1319 H1313 0.930 . S
C1319 C1315 1.400 . S
C1319 C1318 1.385 . S
C1320 C1318 1.478 . S
C1320 C1322 1.381 . S
C1320 C1326 1.383 . S
C1321 C1317 1.495 . S
C1321 H1327 0.959 . S
C1321 H1328 0.961 . S
C1321 H1329 0.960 . S
C1322 C1320 1.381 . S
C1322 C1323 1.394 . S
C1322 H1330 0.930 . S
C1323 C1322 1.394 . S
C1323 C1324 1.383 . S
C1323 H1331 0.929 . S
C1324 C1323 1.383 . S
C1324 C1325 1.377 . S
C1325 H1309 0.930 . S
C1325 C1324 1.377 . S
C1325 C1326 1.379 . S
C1326 H1310 0.931 . S
C1326 C1320 1.383 . S
C1326 C1325 1.379 . S
H1327 C1321 0.959 . S
H1328 C1321 0.961 . S
H1329 C1321 0.960 . S
H1330 C1322 0.930 . S
H1331 C1323 0.929 . S
H1332 C1340 0.929 . S
H1333 C1342 0.930 . S
H1334 C1344 0.930 . S
H1335 C1347 0.929 . S
H1336 C1350 0.930 . S
H1337 C1352 0.960 . S
H1338 C1352 0.960 . S
H1339 C1352 0.960 . S
C1340 H1332 0.929 . S
C1340 C1341 1.377 . S
C1340 C1342 1.384 . S
C1341 C1340 1.377 . S
C1341 C1347 1.390 . S
C1342 H1333 0.930 . S
C1342 C1340 1.384 . S
C1342 C1343 1.372 . S
C1343 C1342 1.372 . S
C1343 C1344 1.400 . S
C1343 C1348 1.490 . S
C1344 H1334 0.930 . S
C1344 C1343 1.400 . S
C1344 C1347 1.386 . S
H1345 C1361 0.930 . S
H1346 C1362 0.931 . S
C1347 H1335 0.929 . S
C1347 C1341 1.390 . S
C1347 C1344 1.386 . S
C1348 C1343 1.490 . S
C1348 C1350 1.395 . S
C1348 C1351 1.403 . S
H1349 C1355 0.930 . S
C1350 H1336 0.930 . S
C1350 C1348 1.395 . S
C1350 C1353 1.403 1_455 S
C1351 C1348 1.403 . S
C1351 C1352 1.524 . S
C1351 C1355 1.400 . S
C1352 H1337 0.960 . S
C1352 H1338 0.960 . S
C1352 H1339 0.960 . S
C1352 C1351 1.524 . S
C1353 C1350 1.403 1_655 S
C1353 C1354 1.392 . S
C1353 C1357 1.495 . S
C1354 C1353 1.392 . S
C1354 C1355 1.385 1_655 S
C1354 C1356 1.478 . S
C1355 H1349 0.930 . S
C1355 C1351 1.400 . S
C1355 C1354 1.385 1_455 S
C1356 C1354 1.478 . S
C1356 C1358 1.381 . S
C1356 C1362 1.383 . S
C1357 C1353 1.495 . S
C1357 H1363 0.959 . S
C1357 H1364 0.961 . S
C1357 H1365 0.960 . S
C1358 C1356 1.381 . S
C1358 C1359 1.394 . S
C1358 H1366 0.930 . S
C1359 C1358 1.394 . S
C1359 C1360 1.383 . S
C1359 H1367 0.929 . S
C1360 C1359 1.383 . S
C1360 C1361 1.377 . S
C1361 H1345 0.930 . S
C1361 C1360 1.377 . S
C1361 C1362 1.379 . S
C1362 H1346 0.931 . S
C1362 C1356 1.383 . S
C1362 C1361 1.379 . S
H1363 C1357 0.959 . S
H1364 C1357 0.961 . S
H1365 C1357 0.960 . S
H1366 C1358 0.930 . S
H1367 C1359 0.929 . S
H1368 C1376 0.929 . S
H1369 C1378 0.930 . S
H1370 C1380 0.930 . S
H1371 C1383 0.929 . S
H1372 C1386 0.930 . S
H1373 C1388 0.960 . S
H1374 C1388 0.960 . S
H1375 C1388 0.960 . S
C1376 H1368 0.929 . S
C1376 C1377 1.377 . S
C1376 C1378 1.384 . S
C1377 C1376 1.377 . S
C1377 C1383 1.390 . S
C1378 H1369 0.930 . S
C1378 C1376 1.384 . S
C1378 C1379 1.372 . S
C1379 C1378 1.372 . S
C1379 C1380 1.400 . S
C1379 C1384 1.490 . S
C1380 H1370 0.930 . S
C1380 C1379 1.400 . S
C1380 C1383 1.386 . S
H1381 C1397 0.930 . S
H1382 C1398 0.931 . S
C1383 H1371 0.929 . S
C1383 C1377 1.390 . S
C1383 C1380 1.386 . S
C1384 C1379 1.490 . S
C1384 C1386 1.395 . S
C1384 C1387 1.403 . S
H1385 C1391 0.930 . S
C1386 H1372 0.930 . S
C1386 C1384 1.395 . S
C1386 C1389 1.403 . S
C1387 C1384 1.403 . S
C1387 C1388 1.524 . S
C1387 C1391 1.400 1_545 S
C1388 H1373 0.960 . S
C1388 H1374 0.960 . S
C1388 H1375 0.960 . S
C1388 C1387 1.524 . S
C1389 C1386 1.403 . S
C1389 C1390 1.392 1_545 S
C1389 C1393 1.495 . S
C1390 C1389 1.392 1_565 S
C1390 C1391 1.385 . S
C1390 C1392 1.478 . S
C1391 H1385 0.930 . S
C1391 C1387 1.400 1_565 S
C1391 C1390 1.385 . S
C1392 C1390 1.478 . S
C1392 C1394 1.381 . S
C1392 C1398 1.383 . S
C1393 C1389 1.495 . S
C1393 H1399 0.959 . S
C1393 H1400 0.960 . S
C1393 H1401 0.960 . S
C1394 C1392 1.381 . S
C1394 C1395 1.394 . S
C1394 H1402 0.930 . S
C1395 C1394 1.394 . S
C1395 C1396 1.383 . S
C1395 H1403 0.929 . S
C1396 C1395 1.383 . S
C1396 C1397 1.377 . S
C1397 H1381 0.930 . S
C1397 C1396 1.377 . S
C1397 C1398 1.379 . S
C1398 H1382 0.931 . S
C1398 C1392 1.383 . S
C1398 C1397 1.379 . S
H1399 C1393 0.959 . S
H1400 C1393 0.960 . S
H1401 C1393 0.960 . S
H1402 C1394 0.930 . S
H1403 C1395 0.929 . S
H1404 C1412 0.929 . S
H1405 C1414 0.930 . S
H1406 C1416 0.930 . S
H1407 C1419 0.929 . S
H1408 C1422 0.930 . S
H1409 C1424 0.960 . S
H1410 C1424 0.960 . S
H1411 C1424 0.960 . S
C1412 H1404 0.929 . S
C1412 C1413 1.377 . S
C1412 C1414 1.384 . S
C1413 C1412 1.377 . S
C1413 C1419 1.390 . S
C1414 H1405 0.930 . S
C1414 C1412 1.384 . S
C1414 C1415 1.372 . S
C1415 C1414 1.372 . S
C1415 C1416 1.400 . S
C1415 C1420 1.490 . S
C1416 H1406 0.930 . S
C1416 C1415 1.400 . S
C1416 C1419 1.386 . S
H1417 C1433 0.930 . S
H1418 C1434 0.931 . S
C1419 H1407 0.929 . S
C1419 C1413 1.390 . S
C1419 C1416 1.386 . S
C1420 C1415 1.490 . S
C1420 C1422 1.395 . S
C1420 C1423 1.403 . S
H1421 C1427 0.930 . S
C1422 H1408 0.930 . S
C1422 C1420 1.395 . S
C1422 C1425 1.403 . S
C1423 C1420 1.403 . S
C1423 C1424 1.524 . S
C1423 C1427 1.400 . S
C1424 H1409 0.960 . S
C1424 H1410 0.960 . S
C1424 H1411 0.960 . S
C1424 C1423 1.524 . S
C1425 C1422 1.403 . S
C1425 C1426 1.392 . S
C1425 C1429 1.495 . S
C1426 C1425 1.392 . S
C1426 C1427 1.385 . S
C1426 C1428 1.478 . S
C1427 H1421 0.930 . S
C1427 C1423 1.400 . S
C1427 C1426 1.385 . S
C1428 C1426 1.478 . S
C1428 C1430 1.381 . S
C1428 C1434 1.383 . S
C1429 C1425 1.495 . S
C1429 H1435 0.959 . S
C1429 H1436 0.961 . S
C1429 H1437 0.960 . S
C1430 C1428 1.381 . S
C1430 C1431 1.394 . S
C1430 H1438 0.930 . S
C1431 C1430 1.394 . S
C1431 C1432 1.383 . S
C1431 H1439 0.929 . S
C1432 C1431 1.383 . S
C1432 C1433 1.377 . S
C1433 H1417 0.930 . S
C1433 C1432 1.377 . S
C1433 C1434 1.379 . S
C1434 H1418 0.931 . S
C1434 C1428 1.383 . S
C1434 C1433 1.379 . S
H1435 C1429 0.959 . S
H1436 C1429 0.961 . S
H1437 C1429 0.960 . S
H1438 C1430 0.930 . S
H1439 C1431 0.929 . S
H1440 C1448 0.929 . S
H1441 C1450 0.930 . S
H1442 C1452 0.930 . S
H1443 C1455 0.929 . S
H1444 C1458 0.930 . S
H1445 C1460 0.960 . S
H1446 C1460 0.960 . S
H1447 C1460 0.960 . S
C1448 H1440 0.929 . S
C1448 C1449 1.377 . S
C1448 C1450 1.384 . S
C1449 C1448 1.377 . S
C1449 C1455 1.390 . S
C1450 H1441 0.930 . S
C1450 C1448 1.384 . S
C1450 C1451 1.372 . S
C1451 C1450 1.372 . S
C1451 C1452 1.400 . S
C1451 C1456 1.490 . S
C1452 H1442 0.930 . S
C1452 C1451 1.400 . S
C1452 C1455 1.386 . S
H1453 C1469 0.930 . S
H1454 C1470 0.931 . S
C1455 H1443 0.929 . S
C1455 C1449 1.390 . S
C1455 C1452 1.386 . S
C1456 C1451 1.490 . S
C1456 C1458 1.395 . S
C1456 C1459 1.403 . S
H1457 C1463 0.930 . S
C1458 H1444 0.930 . S
C1458 C1456 1.395 . S
C1458 C1461 1.403 . S
C1459 C1456 1.403 . S
C1459 C1460 1.524 . S
C1459 C1463 1.400 . S
C1460 H1445 0.960 . S
C1460 H1446 0.960 . S
C1460 H1447 0.960 . S
C1460 C1459 1.524 . S
C1461 C1458 1.403 . S
C1461 C1462 1.392 . S
C1461 C1465 1.495 . S
C1462 C1461 1.392 . S
C1462 C1463 1.385 . S
C1462 C1464 1.478 . S
C1463 H1457 0.930 . S
C1463 C1459 1.400 . S
C1463 C1462 1.385 . S
C1464 C1462 1.478 . S
C1464 C1466 1.381 . S
C1464 C1470 1.383 . S
C1465 C1461 1.495 . S
C1465 H1471 0.959 . S
C1465 H1472 0.961 . S
C1465 H1473 0.960 . S
C1466 C1464 1.381 . S
C1466 C1467 1.394 . S
C1466 H1474 0.930 . S
C1467 C1466 1.394 . S
C1467 C1468 1.383 . S
C1467 H1475 0.929 . S
C1468 C1467 1.383 . S
C1468 C1469 1.377 . S
C1469 H1453 0.930 . S
C1469 C1468 1.377 . S
C1469 C1470 1.379 . S
C1470 H1454 0.931 . S
C1470 C1464 1.383 . S
C1470 C1469 1.379 . S
H1471 C1465 0.959 . S
H1472 C1465 0.961 . S
H1473 C1465 0.960 . S
H1474 C1466 0.930 . S
H1475 C1467 0.929 . S
H1476 C1484 0.929 . S
H1477 C1486 0.930 . S
H1478 C1488 0.930 . S
H1479 C1491 0.929 . S
H1480 C1494 0.930 . S
H1481 C1496 0.960 . S
H1482 C1496 0.960 . S
H1483 C1496 0.960 . S
C1484 H1476 0.929 . S
C1484 C1485 1.377 . S
C1484 C1486 1.384 . S
C1485 C1484 1.377 . S
C1485 C1491 1.390 . S
C1486 H1477 0.930 . S
C1486 C1484 1.384 . S
C1486 C1487 1.372 . S
C1487 C1486 1.372 . S
C1487 C1488 1.400 . S
C1487 C1492 1.490 . S
C1488 H1478 0.930 . S
C1488 C1487 1.400 . S
C1488 C1491 1.386 . S
H1489 C1505 0.930 . S
H1490 C1506 0.931 . S
C1491 H1479 0.929 . S
C1491 C1485 1.390 . S
C1491 C1488 1.386 . S
C1492 C1487 1.490 . S
C1492 C1494 1.395 . S
C1492 C1495 1.403 . S
H1493 C1499 0.930 . S
C1494 H1480 0.930 . S
C1494 C1492 1.395 . S
C1494 C1497 1.403 . S
C1495 C1492 1.403 . S
C1495 C1496 1.524 . S
C1495 C1499 1.400 . S
C1496 H1481 0.960 . S
C1496 H1482 0.960 . S
C1496 H1483 0.960 . S
C1496 C1495 1.524 . S
C1497 C1494 1.403 . S
C1497 C1498 1.392 . S
C1497 C1501 1.495 . S
C1498 C1497 1.392 . S
C1498 C1499 1.385 . S
C1498 C1500 1.478 . S
C1499 H1493 0.930 . S
C1499 C1495 1.400 . S
C1499 C1498 1.385 . S
C1500 C1498 1.478 . S
C1500 C1502 1.381 . S
C1500 C1506 1.383 . S
C1501 C1497 1.495 . S
C1501 H1507 0.959 . S
C1501 H1508 0.961 . S
C1501 H1509 0.960 . S
C1502 C1500 1.381 . S
C1502 C1503 1.394 . S
C1502 H1510 0.930 . S
C1503 C1502 1.394 . S
C1503 C1504 1.383 . S
C1503 H1511 0.929 . S
C1504 C1503 1.383 . S
C1504 C1505 1.377 . S
C1505 H1489 0.930 . S
C1505 C1504 1.377 . S
C1505 C1506 1.379 . S
C1506 H1490 0.931 . S
C1506 C1500 1.383 . S
C1506 C1505 1.379 . S
H1507 C1501 0.959 . S
H1508 C1501 0.961 . S
H1509 C1501 0.960 . S
H1510 C1502 0.930 . S
H1511 C1503 0.929 . S
H1512 C1520 0.929 . S
H1513 C1522 0.930 . S
H1514 C1524 0.930 . S
H1515 C1527 0.929 . S
H1516 C1530 0.930 . S
H1517 C1532 0.960 . S
H1518 C1532 0.960 . S
H1519 C1532 0.960 . S
C1520 H1512 0.929 . S
C1520 C1521 1.377 . S
C1520 C1522 1.384 . S
C1521 C1520 1.377 . S
C1521 C1527 1.390 . S
C1522 H1513 0.930 . S
C1522 C1520 1.384 . S
C1522 C1523 1.372 . S
C1523 C1522 1.372 . S
C1523 C1524 1.400 . S
C1523 C1528 1.490 . S
C1524 H1514 0.930 . S
C1524 C1523 1.400 . S
C1524 C1527 1.386 . S
H1525 C1541 0.930 . S
H1526 C1542 0.931 . S
C1527 H1515 0.929 . S
C1527 C1521 1.390 . S
C1527 C1524 1.386 . S
C1528 C1523 1.490 . S
C1528 C1530 1.395 . S
C1528 C1531 1.403 . S
H1529 C1535 0.930 . S
C1530 H1516 0.930 . S
C1530 C1528 1.395 . S
C1530 C1533 1.403 . S
C1531 C1528 1.403 . S
C1531 C1532 1.524 . S
C1531 C1535 1.400 . S
C1532 H1517 0.960 . S
C1532 H1518 0.960 . S
C1532 H1519 0.960 . S
C1532 C1531 1.524 . S
C1533 C1530 1.403 . S
C1533 C1534 1.392 . S
C1533 C1537 1.495 . S
C1534 C1533 1.392 . S
C1534 C1535 1.385 . S
C1534 C1536 1.478 . S
C1535 H1529 0.930 . S
C1535 C1531 1.400 . S
C1535 C1534 1.385 . S
C1536 C1534 1.478 . S
C1536 C1538 1.381 . S
C1536 C1542 1.383 . S
C1537 C1533 1.495 . S
C1537 H1543 0.959 . S
C1537 H1544 0.961 . S
C1537 H1545 0.960 . S
C1538 C1536 1.381 . S
C1538 C1539 1.394 . S
C1538 H1546 0.930 . S
C1539 C1538 1.394 . S
C1539 C1540 1.383 . S
C1539 H1547 0.929 . S
C1540 C1539 1.383 . S
C1540 C1541 1.377 . S
C1541 H1525 0.930 . S
C1541 C1540 1.377 . S
C1541 C1542 1.379 . S
C1542 H1526 0.931 . S
C1542 C1536 1.383 . S
C1542 C1541 1.379 . S
H1543 C1537 0.959 . S
H1544 C1537 0.961 . S
H1545 C1537 0.960 . S
H1546 C1538 0.930 . S
H1547 C1539 0.929 . S
H1548 C1556 0.929 . S
H1549 C1558 0.930 . S
H1550 C1560 0.930 . S
H1551 C1563 0.929 . S
H1552 C1566 0.930 . S
H1553 C1568 0.960 . S
H1554 C1568 0.960 . S
H1555 C1568 0.960 . S
C1556 H1548 0.929 . S
C1556 C1557 1.377 . S
C1556 C1558 1.384 . S
C1557 C1556 1.377 . S
C1557 C1563 1.390 . S
C1558 H1549 0.930 . S
C1558 C1556 1.384 . S
C1558 C1559 1.372 . S
C1559 C1558 1.372 . S
C1559 C1560 1.400 . S
C1559 C1564 1.490 . S
C1560 H1550 0.930 . S
C1560 C1559 1.400 . S
C1560 C1563 1.386 . S
H1561 C1577 0.930 . S
H1562 C1578 0.931 . S
C1563 H1551 0.929 . S
C1563 C1557 1.390 . S
C1563 C1560 1.386 . S
C1564 C1559 1.490 . S
C1564 C1566 1.395 . S
C1564 C1567 1.403 . S
H1565 C1571 0.930 . S
C1566 H1552 0.930 . S
C1566 C1564 1.395 . S
C1566 C1569 1.403 . S
C1567 C1564 1.403 . S
C1567 C1568 1.524 . S
C1567 C1571 1.400 . S
C1568 H1553 0.960 . S
C1568 H1554 0.960 . S
C1568 H1555 0.960 . S
C1568 C1567 1.524 . S
C1569 C1566 1.403 . S
C1569 C1570 1.392 . S
C1569 C1573 1.495 . S
C1570 C1569 1.392 . S
C1570 C1571 1.385 . S
C1570 C1572 1.478 . S
C1571 H1565 0.930 . S
C1571 C1567 1.400 . S
C1571 C1570 1.385 . S
C1572 C1570 1.478 . S
C1572 C1574 1.381 . S
C1572 C1578 1.383 . S
C1573 C1569 1.495 . S
C1573 H1579 0.959 . S
C1573 H1580 0.961 . S
C1573 H1581 0.960 . S
C1574 C1572 1.381 . S
C1574 C1575 1.394 . S
C1574 H1582 0.930 . S
C1575 C1574 1.394 . S
C1575 C1576 1.383 . S
C1575 H1583 0.929 . S
C1576 C1575 1.383 . S
C1576 C1577 1.377 . S
C1577 H1561 0.930 . S
C1577 C1576 1.377 . S
C1577 C1578 1.379 . S
C1578 H1562 0.931 . S
C1578 C1572 1.383 . S
C1578 C1577 1.379 . S
H1579 C1573 0.959 . S
H1580 C1573 0.961 . S
H1581 C1573 0.960 . S
H1582 C1574 0.930 . S
H1583 C1575 0.929 . S
H1584 C1592 0.929 . S
H1585 C1594 0.930 . S
H1586 C1596 0.930 . S
H1587 C1599 0.929 . S
H1588 C1602 0.930 . S
H1589 C1604 0.960 . S
H1590 C1604 0.960 . S
H1591 C1604 0.960 . S
C1592 H1584 0.929 . S
C1592 C1593 1.377 . S
C1592 C1594 1.384 . S
C1593 C1592 1.377 . S
C1593 C1599 1.390 . S
C1594 H1585 0.930 . S
C1594 C1592 1.384 . S
C1594 C1595 1.372 . S
C1595 C1594 1.372 . S
C1595 C1596 1.400 . S
C1595 C1600 1.490 . S
C1596 H1586 0.930 . S
C1596 C1595 1.400 . S
C1596 C1599 1.386 . S
H1597 C1613 0.930 . S
H1598 C1614 0.931 . S
C1599 H1587 0.929 . S
C1599 C1593 1.390 . S
C1599 C1596 1.386 . S
C1600 C1595 1.490 . S
C1600 C1602 1.395 . S
C1600 C1603 1.403 . S
H1601 C1607 0.930 . S
C1602 H1588 0.930 . S
C1602 C1600 1.395 . S
C1602 C1605 1.403 . S
C1603 C1600 1.403 . S
C1603 C1604 1.524 . S
C1603 C1607 1.400 . S
C1604 H1589 0.960 . S
C1604 H1590 0.960 . S
C1604 H1591 0.960 . S
C1604 C1603 1.524 . S
C1605 C1602 1.403 . S
C1605 C1606 1.392 . S
C1605 C1609 1.495 . S
C1606 C1605 1.392 . S
C1606 C1607 1.385 . S
C1606 C1608 1.478 . S
C1607 H1601 0.930 . S
C1607 C1603 1.400 . S
C1607 C1606 1.385 . S
C1608 C1606 1.478 . S
C1608 C1610 1.381 . S
C1608 C1614 1.383 . S
C1609 C1605 1.495 . S
C1609 H1615 0.959 . S
C1609 H1616 0.961 . S
C1609 H1617 0.960 . S
C1610 C1608 1.381 . S
C1610 C1611 1.394 . S
C1610 H1618 0.930 . S
C1611 C1610 1.394 . S
C1611 C1612 1.383 . S
C1611 H1619 0.929 . S
C1612 C1611 1.383 . S
C1612 C1613 1.377 . S
C1613 H1597 0.930 . S
C1613 C1612 1.377 . S
C1613 C1614 1.379 . S
C1614 H1598 0.931 . S
C1614 C1608 1.383 . S
C1614 C1613 1.379 . S
H1615 C1609 0.959 . S
H1616 C1609 0.961 . S
H1617 C1609 0.960 . S
H1618 C1610 0.930 . S
H1619 C1611 0.929 . S
H1620 C1628 0.929 . S
H1621 C1630 0.930 . S
H1622 C1632 0.930 . S
H1623 C1635 0.929 . S
H1624 C1638 0.930 . S
H1625 C1640 0.960 . S
H1626 C1640 0.960 . S
H1627 C1640 0.960 . S
C1628 H1620 0.929 . S
C1628 C1629 1.377 . S
C1628 C1630 1.384 . S
C1629 C1628 1.377 . S
C1629 C1635 1.390 . S
C1630 H1621 0.930 . S
C1630 C1628 1.384 . S
C1630 C1631 1.372 . S
C1631 C1630 1.372 . S
C1631 C1632 1.400 . S
C1631 C1636 1.490 . S
C1632 H1622 0.930 . S
C1632 C1631 1.400 . S
C1632 C1635 1.386 . S
H1633 C1649 0.930 . S
H1634 C1650 0.931 . S
C1635 H1623 0.929 . S
C1635 C1629 1.390 . S
C1635 C1632 1.386 . S
C1636 C1631 1.490 . S
C1636 C1638 1.395 . S
C1636 C1639 1.403 . S
H1637 C1643 0.930 . S
C1638 H1624 0.930 . S
C1638 C1636 1.395 . S
C1638 C1641 1.403 . S
C1639 C1636 1.403 . S
C1639 C1640 1.524 . S
C1639 C1643 1.400 . S
C1640 H1625 0.960 . S
C1640 H1626 0.960 . S
C1640 H1627 0.960 . S
C1640 C1639 1.524 . S
C1641 C1638 1.403 . S
C1641 C1642 1.392 . S
C1641 C1645 1.495 . S
C1642 C1641 1.392 . S
C1642 C1643 1.385 . S
C1642 C1644 1.478 . S
C1643 H1637 0.930 . S
C1643 C1639 1.400 . S
C1643 C1642 1.385 . S
C1644 C1642 1.478 . S
C1644 C1646 1.381 . S
C1644 C1650 1.383 . S
C1645 C1641 1.495 . S
C1645 H1651 0.959 . S
C1645 H1652 0.961 . S
C1645 H1653 0.960 . S
C1646 C1644 1.381 . S
C1646 C1647 1.394 . S
C1646 H1654 0.930 . S
C1647 C1646 1.394 . S
C1647 C1648 1.383 . S
C1647 H1655 0.929 . S
C1648 C1647 1.383 . S
C1648 C1649 1.377 . S
C1649 H1633 0.930 . S
C1649 C1648 1.377 . S
C1649 C1650 1.379 . S
C1650 H1634 0.931 . S
C1650 C1644 1.383 . S
C1650 C1649 1.379 . S
H1651 C1645 0.959 . S
H1652 C1645 0.961 . S
H1653 C1645 0.960 . S
H1654 C1646 0.930 . S
H1655 C1647 0.929 . S
H1656 C1664 0.929 . S
H1657 C1666 0.930 . S
H1658 C1668 0.930 . S
H1659 C1671 0.929 . S
H1660 C1674 0.930 . S
H1661 C1676 0.960 . S
H1662 C1676 0.960 . S
H1663 C1676 0.960 . S
C1664 H1656 0.929 . S
C1664 C1665 1.377 . S
C1664 C1666 1.384 . S
C1665 C1664 1.377 . S
C1665 C1671 1.390 . S
C1666 H1657 0.930 . S
C1666 C1664 1.384 . S
C1666 C1667 1.372 . S
C1667 C1666 1.372 . S
C1667 C1668 1.400 . S
C1667 C1672 1.490 . S
C1668 H1658 0.930 . S
C1668 C1667 1.400 . S
C1668 C1671 1.386 . S
H1669 C1685 0.930 . S
H1670 C1686 0.931 . S
C1671 H1659 0.929 . S
C1671 C1665 1.390 . S
C1671 C1668 1.386 . S
C1672 C1667 1.490 . S
C1672 C1674 1.395 . S
C1672 C1675 1.403 . S
H1673 C1679 0.930 . S
C1674 H1660 0.930 . S
C1674 C1672 1.395 . S
C1674 C1677 1.403 . S
C1675 C1672 1.403 . S
C1675 C1676 1.524 . S
C1675 C1679 1.400 . S
C1676 H1661 0.960 . S
C1676 H1662 0.960 . S
C1676 H1663 0.960 . S
C1676 C1675 1.524 . S
C1677 C1674 1.403 . S
C1677 C1678 1.392 . S
C1677 C1681 1.495 . S
C1678 C1677 1.392 . S
C1678 C1679 1.385 . S
C1678 C1680 1.478 . S
C1679 H1673 0.930 . S
C1679 C1675 1.400 . S
C1679 C1678 1.385 . S
C1680 C1678 1.478 . S
C1680 C1682 1.381 . S
C1680 C1686 1.383 . S
C1681 C1677 1.495 . S
C1681 H1687 0.959 . S
C1681 H1688 0.961 . S
C1681 H1689 0.960 . S
C1682 C1680 1.381 . S
C1682 C1683 1.394 . S
C1682 H1690 0.930 . S
C1683 C1682 1.394 . S
C1683 C1684 1.383 . S
C1683 H1691 0.929 . S
C1684 C1683 1.383 . S
C1684 C1685 1.377 . S
C1685 H1669 0.930 . S
C1685 C1684 1.377 . S
C1685 C1686 1.379 . S
C1686 H1670 0.931 . S
C1686 C1680 1.383 . S
C1686 C1685 1.379 . S
H1687 C1681 0.959 . S
H1688 C1681 0.961 . S
H1689 C1681 0.960 . S
H1690 C1682 0.930 . S
H1691 C1683 0.929 . S
H1692 C1700 0.929 . S
H1693 C1702 0.930 . S
H1694 C1704 0.930 . S
H1695 C1707 0.929 . S
H1696 C1710 0.930 . S
H1697 C1712 0.960 . S
H1698 C1712 0.960 . S
H1699 C1712 0.960 . S
C1700 H1692 0.929 . S
C1700 C1701 1.377 . S
C1700 C1702 1.384 . S
C1701 C1700 1.377 . S
C1701 C1707 1.390 . S
C1702 H1693 0.930 . S
C1702 C1700 1.384 . S
C1702 C1703 1.372 . S
C1703 C1702 1.372 . S
C1703 C1704 1.400 . S
C1703 C1708 1.490 . S
C1704 H1694 0.930 . S
C1704 C1703 1.400 . S
C1704 C1707 1.386 . S
H1705 C1721 0.930 . S
H1706 C1722 0.931 . S
C1707 H1695 0.929 . S
C1707 C1701 1.390 . S
C1707 C1704 1.386 . S
C1708 C1703 1.490 . S
C1708 C1710 1.395 . S
C1708 C1711 1.403 . S
H1709 C1715 0.930 . S
C1710 H1696 0.930 . S
C1710 C1708 1.395 . S
C1710 C1713 1.403 . S
C1711 C1708 1.403 . S
C1711 C1712 1.524 . S
C1711 C1715 1.400 . S
C1712 H1697 0.960 . S
C1712 H1698 0.960 . S
C1712 H1699 0.960 . S
C1712 C1711 1.524 . S
C1713 C1710 1.403 . S
C1713 C1714 1.392 . S
C1713 C1717 1.495 . S
C1714 C1713 1.392 . S
C1714 C1715 1.385 . S
C1714 C1716 1.478 . S
C1715 H1709 0.930 . S
C1715 C1711 1.400 . S
C1715 C1714 1.385 . S
C1716 C1714 1.478 . S
C1716 C1718 1.381 . S
C1716 C1722 1.383 . S
C1717 C1713 1.495 . S
C1717 H1723 0.959 . S
C1717 H1724 0.961 . S
C1717 H1725 0.960 . S
C1718 C1716 1.381 . S
C1718 C1719 1.394 . S
C1718 H1726 0.930 . S
C1719 C1718 1.394 . S
C1719 C1720 1.383 . S
C1719 H1727 0.929 . S
C1720 C1719 1.383 . S
C1720 C1721 1.377 . S
C1721 H1705 0.930 . S
C1721 C1720 1.377 . S
C1721 C1722 1.379 . S
C1722 H1706 0.931 . S
C1722 C1716 1.383 . S
C1722 C1721 1.379 . S
H1723 C1717 0.959 . S
H1724 C1717 0.961 . S
H1725 C1717 0.960 . S
H1726 C1718 0.930 . S
H1727 C1719 0.929 . S
H1728 C1736 0.929 . S
H1729 C1738 0.930 . S
H1730 C1740 0.930 . S
H1731 C1743 0.929 . S
H1732 C1746 0.930 . S
H1733 C1748 0.960 . S
H1734 C1748 0.960 . S
H1735 C1748 0.960 . S
C1736 H1728 0.929 . S
C1736 C1737 1.377 . S
C1736 C1738 1.384 . S
C1737 C1736 1.377 . S
C1737 C1743 1.390 . S
C1738 H1729 0.930 . S
C1738 C1736 1.384 . S
C1738 C1739 1.372 . S
C1739 C1738 1.372 . S
C1739 C1740 1.400 . S
C1739 C1744 1.490 . S
C1740 H1730 0.930 . S
C1740 C1739 1.400 . S
C1740 C1743 1.386 . S
H1741 C1757 0.930 . S
H1742 C1758 0.931 . S
C1743 H1731 0.929 . S
C1743 C1737 1.390 . S
C1743 C1740 1.386 . S
C1744 C1739 1.490 . S
C1744 C1746 1.395 . S
C1744 C1747 1.403 . S
H1745 C1751 0.930 . S
C1746 H1732 0.930 . S
C1746 C1744 1.395 . S
C1746 C1749 1.403 . S
C1747 C1744 1.403 . S
C1747 C1748 1.524 . S
C1747 C1751 1.400 . S
C1748 H1733 0.960 . S
C1748 H1734 0.960 . S
C1748 H1735 0.960 . S
C1748 C1747 1.524 . S
C1749 C1746 1.403 . S
C1749 C1750 1.392 . S
C1749 C1753 1.495 . S
C1750 C1749 1.392 . S
C1750 C1751 1.385 . S
C1750 C1752 1.478 . S
C1751 H1745 0.930 . S
C1751 C1747 1.400 . S
C1751 C1750 1.385 . S
C1752 C1750 1.478 . S
C1752 C1754 1.381 . S
C1752 C1758 1.383 . S
C1753 C1749 1.495 . S
C1753 H1759 0.959 . S
C1753 H1760 0.961 . S
C1753 H1761 0.960 . S
C1754 C1752 1.381 . S
C1754 C1755 1.394 . S
C1754 H1762 0.930 . S
C1755 C1754 1.394 . S
C1755 C1756 1.383 . S
C1755 H1763 0.929 . S
C1756 C1755 1.383 . S
C1756 C1757 1.377 . S
C1757 H1741 0.930 . S
C1757 C1756 1.377 . S
C1757 C1758 1.379 . S
C1758 H1742 0.931 . S
C1758 C1752 1.383 . S
C1758 C1757 1.379 . S
H1759 C1753 0.959 . S
H1760 C1753 0.961 . S
H1761 C1753 0.960 . S
H1762 C1754 0.930 . S
H1763 C1755 0.929 . S
H1764 C1772 0.929 . S
H1765 C1774 0.930 . S
H1766 C1776 0.930 . S
H1767 C1779 0.929 . S
H1768 C1782 0.930 . S
H1769 C1784 0.960 . S
H1770 C1784 0.960 . S
H1771 C1784 0.960 . S
C1772 H1764 0.929 . S
C1772 C1773 1.377 . S
C1772 C1774 1.384 . S
C1773 C1772 1.377 . S
C1773 C1779 1.390 . S
C1774 H1765 0.930 . S
C1774 C1772 1.384 . S
C1774 C1775 1.372 . S
C1775 C1774 1.372 . S
C1775 C1776 1.400 . S
C1775 C1780 1.490 . S
C1776 H1766 0.930 . S
C1776 C1775 1.400 . S
C1776 C1779 1.386 . S
H1777 C1793 0.930 . S
H1778 C1794 0.931 . S
C1779 H1767 0.929 . S
C1779 C1773 1.390 . S
C1779 C1776 1.386 . S
C1780 C1775 1.490 . S
C1780 C1782 1.395 . S
C1780 C1783 1.403 . S
H1781 C1787 0.930 . S
C1782 H1768 0.930 . S
C1782 C1780 1.395 . S
C1782 C1785 1.403 . S
C1783 C1780 1.403 . S
C1783 C1784 1.524 . S
C1783 C1787 1.400 . S
C1784 H1769 0.960 . S
C1784 H1770 0.960 . S
C1784 H1771 0.960 . S
C1784 C1783 1.524 . S
C1785 C1782 1.403 . S
C1785 C1786 1.392 . S
C1785 C1789 1.495 . S
C1786 C1785 1.392 . S
C1786 C1787 1.385 . S
C1786 C1788 1.478 . S
C1787 H1781 0.930 . S
C1787 C1783 1.400 . S
C1787 C1786 1.385 . S
C1788 C1786 1.478 . S
C1788 C1790 1.381 . S
C1788 C1794 1.383 . S
C1789 C1785 1.495 . S
C1789 H1795 0.959 . S
C1789 H1796 0.961 . S
C1789 H1797 0.960 . S
C1790 C1788 1.381 . S
C1790 C1791 1.394 . S
C1790 H1798 0.930 . S
C1791 C1790 1.394 . S
C1791 C1792 1.383 . S
C1791 H1799 0.929 . S
C1792 C1791 1.383 . S
C1792 C1793 1.377 . S
C1793 H1777 0.930 . S
C1793 C1792 1.377 . S
C1793 C1794 1.379 . S
C1794 H1778 0.931 . S
C1794 C1788 1.383 . S
C1794 C1793 1.379 . S
H1795 C1789 0.959 . S
H1796 C1789 0.961 . S
H1797 C1789 0.960 . S
H1798 C1790 0.930 . S
H1799 C1791 0.929 . S
H1800 C1808 0.929 . S
H1801 C1810 0.930 . S
H1802 C1812 0.930 . S
H1803 C1815 0.929 . S
H1804 C1818 0.930 . S
H1805 C1820 0.960 . S
H1806 C1820 0.960 . S
H1807 C1820 0.960 . S
C1808 H1800 0.929 . S
C1808 C1809 1.377 . S
C1808 C1810 1.384 . S
C1809 C1808 1.377 . S
C1809 C1815 1.390 . S
C1810 H1801 0.930 . S
C1810 C1808 1.384 . S
C1810 C1811 1.372 . S
C1811 C1810 1.372 . S
C1811 C1812 1.400 . S
C1811 C1816 1.490 . S
C1812 H1802 0.930 . S
C1812 C1811 1.400 . S
C1812 C1815 1.386 . S
H1813 C1829 0.930 . S
H1814 C1830 0.931 . S
C1815 H1803 0.929 . S
C1815 C1809 1.390 . S
C1815 C1812 1.386 . S
C1816 C1811 1.490 . S
C1816 C1818 1.395 . S
C1816 C1819 1.403 . S
H1817 C1823 0.930 . S
C1818 H1804 0.930 . S
C1818 C1816 1.395 . S
C1818 C1821 1.403 . S
C1819 C1816 1.403 . S
C1819 C1820 1.524 . S
C1819 C1823 1.400 . S
C1820 H1805 0.960 . S
C1820 H1806 0.960 . S
C1820 H1807 0.960 . S
C1820 C1819 1.524 . S
C1821 C1818 1.403 . S
C1821 C1822 1.392 . S
C1821 C1825 1.495 . S
C1822 C1821 1.392 . S
C1822 C1823 1.385 . S
C1822 C1824 1.478 . S
C1823 H1817 0.930 . S
C1823 C1819 1.400 . S
C1823 C1822 1.385 . S
C1824 C1822 1.478 . S
C1824 C1826 1.381 . S
C1824 C1830 1.383 . S
C1825 C1821 1.495 . S
C1825 H1831 0.959 . S
C1825 H1832 0.961 . S
C1825 H1833 0.960 . S
C1826 C1824 1.381 . S
C1826 C1827 1.394 . S
C1826 H1834 0.930 . S
C1827 C1826 1.394 . S
C1827 C1828 1.383 . S
C1827 H1835 0.929 . S
C1828 C1827 1.383 . S
C1828 C1829 1.377 . S
C1829 H1813 0.930 . S
C1829 C1828 1.377 . S
C1829 C1830 1.379 . S
C1830 H1814 0.931 . S
C1830 C1824 1.383 . S
C1830 C1829 1.379 . S
H1831 C1825 0.959 . S
H1832 C1825 0.961 . S
H1833 C1825 0.960 . S
H1834 C1826 0.930 . S
H1835 C1827 0.929 . S
H1836 C1844 0.929 . S
H1837 C1846 0.930 . S
H1838 C1848 0.930 . S
H1839 C1851 0.929 . S
H1840 C1854 0.930 . S
H1841 C1856 0.960 . S
H1842 C1856 0.960 . S
H1843 C1856 0.960 . S
C1844 H1836 0.929 . S
C1844 C1845 1.377 . S
C1844 C1846 1.384 . S
C1845 C1844 1.377 . S
C1845 C1851 1.390 . S
C1846 H1837 0.930 . S
C1846 C1844 1.384 . S
C1846 C1847 1.372 . S
C1847 C1846 1.372 . S
C1847 C1848 1.400 . S
C1847 C1852 1.490 . S
C1848 H1838 0.930 . S
C1848 C1847 1.400 . S
C1848 C1851 1.386 . S
H1849 C1865 0.930 . S
H1850 C1866 0.931 . S
C1851 H1839 0.929 . S
C1851 C1845 1.390 . S
C1851 C1848 1.386 . S
C1852 C1847 1.490 . S
C1852 C1854 1.395 . S
C1852 C1855 1.403 . S
H1853 C1859 0.930 . S
C1854 H1840 0.930 . S
C1854 C1852 1.395 . S
C1854 C1857 1.403 . S
C1855 C1852 1.403 . S
C1855 C1856 1.524 . S
C1855 C1859 1.400 . S
C1856 H1841 0.960 . S
C1856 H1842 0.960 . S
C1856 H1843 0.960 . S
C1856 C1855 1.524 . S
C1857 C1854 1.403 . S
C1857 C1858 1.392 . S
C1857 C1861 1.495 . S
C1858 C1857 1.392 . S
C1858 C1859 1.385 . S
C1858 C1860 1.478 . S
C1859 H1853 0.930 . S
C1859 C1855 1.400 . S
C1859 C1858 1.385 . S
C1860 C1858 1.478 . S
C1860 C1862 1.381 . S
C1860 C1866 1.383 . S
C1861 C1857 1.495 . S
C1861 H1867 0.959 . S
C1861 H1868 0.961 . S
C1861 H1869 0.960 . S
C1862 C1860 1.381 . S
C1862 C1863 1.394 . S
C1862 H1870 0.930 . S
C1863 C1862 1.394 . S
C1863 C1864 1.383 . S
C1863 H1871 0.929 . S
C1864 C1863 1.383 . S
C1864 C1865 1.377 . S
C1865 H1849 0.930 . S
C1865 C1864 1.377 . S
C1865 C1866 1.379 . S
C1866 H1850 0.931 . S
C1866 C1860 1.383 . S
C1866 C1865 1.379 . S
H1867 C1861 0.959 . S
H1868 C1861 0.961 . S
H1869 C1861 0.960 . S
H1870 C1862 0.930 . S
H1871 C1863 0.929 . S
H1872 C1880 0.929 . S
H1873 C1882 0.930 . S
H1874 C1884 0.930 . S
H1875 C1887 0.929 . S
H1876 C1890 0.930 . S
H1877 C1892 0.960 . S
H1878 C1892 0.960 . S
H1879 C1892 0.960 . S
C1880 H1872 0.929 . S
C1880 C1881 1.377 . S
C1880 C1882 1.384 . S
C1881 C1880 1.377 . S
C1881 C1887 1.390 . S
C1882 H1873 0.930 . S
C1882 C1880 1.384 . S
C1882 C1883 1.372 . S
C1883 C1882 1.372 . S
C1883 C1884 1.400 . S
C1883 C1888 1.490 . S
C1884 H1874 0.930 . S
C1884 C1883 1.400 . S
C1884 C1887 1.386 . S
H1885 C1901 0.930 . S
H1886 C1902 0.931 . S
C1887 H1875 0.929 . S
C1887 C1881 1.390 . S
C1887 C1884 1.386 . S
C1888 C1883 1.490 . S
C1888 C1890 1.395 . S
C1888 C1891 1.403 . S
H1889 C1895 0.930 . S
C1890 H1876 0.930 . S
C1890 C1888 1.395 . S
C1890 C1893 1.403 . S
C1891 C1888 1.403 . S
C1891 C1892 1.524 . S
C1891 C1895 1.400 . S
C1892 H1877 0.960 . S
C1892 H1878 0.960 . S
C1892 H1879 0.960 . S
C1892 C1891 1.524 . S
C1893 C1890 1.403 . S
C1893 C1894 1.392 . S
C1893 C1897 1.495 . S
C1894 C1893 1.392 . S
C1894 C1895 1.385 . S
C1894 C1896 1.478 . S
C1895 H1889 0.930 . S
C1895 C1891 1.400 . S
C1895 C1894 1.385 . S
C1896 C1894 1.478 . S
C1896 C1898 1.381 . S
C1896 C1902 1.383 . S
C1897 C1893 1.495 . S
C1897 H1903 0.959 . S
C1897 H1904 0.961 . S
C1897 H1905 0.960 . S
C1898 C1896 1.381 . S
C1898 C1899 1.394 . S
C1898 H1906 0.930 . S
C1899 C1898 1.394 . S
C1899 C1900 1.383 . S
C1899 H1907 0.929 . S
C1900 C1899 1.383 . S
C1900 C1901 1.377 . S
C1901 H1885 0.930 . S
C1901 C1900 1.377 . S
C1901 C1902 1.379 . S
C1902 H1886 0.931 . S
C1902 C1896 1.383 . S
C1902 C1901 1.379 . S
H1903 C1897 0.959 . S
H1904 C1897 0.961 . S
H1905 C1897 0.960 . S
H1906 C1898 0.930 . S
H1907 C1899 0.929 . S
H1908 C1916 0.929 . S
H1909 C1918 0.930 . S
H1910 C1920 0.930 . S
H1911 C1923 0.929 . S
H1912 C1926 0.930 . S
H1913 C1928 0.960 . S
H1914 C1928 0.960 . S
H1915 C1928 0.960 . S
C1916 H1908 0.929 . S
C1916 C1917 1.377 . S
C1916 C1918 1.384 . S
C1917 C1916 1.377 . S
C1917 C1923 1.390 . S
C1918 H1909 0.930 . S
C1918 C1916 1.384 . S
C1918 C1919 1.372 . S
C1919 C1918 1.372 . S
C1919 C1920 1.400 . S
C1919 C1924 1.490 . S
C1920 H1910 0.930 . S
C1920 C1919 1.400 . S
C1920 C1923 1.386 . S
H1921 C1937 0.930 . S
H1922 C1938 0.931 . S
C1923 H1911 0.929 . S
C1923 C1917 1.390 . S
C1923 C1920 1.386 . S
C1924 C1919 1.490 . S
C1924 C1926 1.395 . S
C1924 C1927 1.403 . S
H1925 C1931 0.930 . S
C1926 H1912 0.930 . S
C1926 C1924 1.395 . S
C1926 C1929 1.403 . S
C1927 C1924 1.403 . S
C1927 C1928 1.524 . S
C1927 C1931 1.400 . S
C1928 H1913 0.960 . S
C1928 H1914 0.960 . S
C1928 H1915 0.960 . S
C1928 C1927 1.524 . S
C1929 C1926 1.403 . S
C1929 C1930 1.392 . S
C1929 C1933 1.495 . S
C1930 C1929 1.392 . S
C1930 C1931 1.385 . S
C1930 C1932 1.478 . S
C1931 H1925 0.930 . S
C1931 C1927 1.400 . S
C1931 C1930 1.385 . S
C1932 C1930 1.478 . S
C1932 C1934 1.381 . S
C1932 C1938 1.383 . S
C1933 C1929 1.495 . S
C1933 H1939 0.959 . S
C1933 H1940 0.961 . S
C1933 H1941 0.960 . S
C1934 C1932 1.381 . S
C1934 C1935 1.394 . S
C1934 H1942 0.930 . S
C1935 C1934 1.394 . S
C1935 C1936 1.383 . S
C1935 H1943 0.929 . S
C1936 C1935 1.383 . S
C1936 C1937 1.377 . S
C1937 H1921 0.930 . S
C1937 C1936 1.377 . S
C1937 C1938 1.379 . S
C1938 H1922 0.931 . S
C1938 C1932 1.383 . S
C1938 C1937 1.379 . S
H1939 C1933 0.959 . S
H1940 C1933 0.961 . S
H1941 C1933 0.960 . S
H1942 C1934 0.930 . S
H1943 C1935 0.929 . S
H1944 C1952 0.929 . S
H1945 C1954 0.930 . S
H1946 C1956 0.930 . S
H1947 C1959 0.929 . S
H1948 C1962 0.930 . S
H1949 C1964 0.960 . S
H1950 C1964 0.960 . S
H1951 C1964 0.960 . S
C1952 H1944 0.929 . S
C1952 C1953 1.377 . S
C1952 C1954 1.384 . S
C1953 C1952 1.377 . S
C1953 C1959 1.390 . S
C1954 H1945 0.930 . S
C1954 C1952 1.384 . S
C1954 C1955 1.372 . S
C1955 C1954 1.372 . S
C1955 C1956 1.400 . S
C1955 C1960 1.490 . S
C1956 H1946 0.930 . S
C1956 C1955 1.400 . S
C1956 C1959 1.386 . S
H1957 C1973 0.930 . S
H1958 C1974 0.931 . S
C1959 H1947 0.929 . S
C1959 C1953 1.390 . S
C1959 C1956 1.386 . S
C1960 C1955 1.490 . S
C1960 C1962 1.395 . S
C1960 C1963 1.403 . S
H1961 C1967 0.930 . S
C1962 H1948 0.930 . S
C1962 C1960 1.395 . S
C1962 C1965 1.403 . S
C1963 C1960 1.403 . S
C1963 C1964 1.524 . S
C1963 C1967 1.400 . S
C1964 H1949 0.960 . S
C1964 H1950 0.960 . S
C1964 H1951 0.960 . S
C1964 C1963 1.524 . S
C1965 C1962 1.403 . S
C1965 C1966 1.392 . S
C1965 C1969 1.495 . S
C1966 C1965 1.392 . S
C1966 C1967 1.385 . S
C1966 C1968 1.478 . S
C1967 H1961 0.930 . S
C1967 C1963 1.400 . S
C1967 C1966 1.385 . S
C1968 C1966 1.478 . S
C1968 C1970 1.381 . S
C1968 C1974 1.383 . S
C1969 C1965 1.495 . S
C1969 H1975 0.959 . S
C1969 H1976 0.961 . S
C1969 H1977 0.960 . S
C1970 C1968 1.381 . S
C1970 C1971 1.394 . S
C1970 H1978 0.930 . S
C1971 C1970 1.394 . S
C1971 C1972 1.383 . S
C1971 H1979 0.929 . S
C1972 C1971 1.383 . S
C1972 C1973 1.377 . S
C1973 H1957 0.930 . S
C1973 C1972 1.377 . S
C1973 C1974 1.379 . S
C1974 H1958 0.931 . S
C1974 C1968 1.383 . S
C1974 C1973 1.379 . S
H1975 C1969 0.959 . S
H1976 C1969 0.961 . S
H1977 C1969 0.960 . S
H1978 C1970 0.930 . S
H1979 C1971 0.929 . S
H1980 C1988 0.929 . S
H1981 C1990 0.930 . S
H1982 C1992 0.930 . S
H1983 C1995 0.929 . S
H1984 C1998 0.930 . S
H1985 C2000 0.960 . S
H1986 C2000 0.960 . S
H1987 C2000 0.960 . S
C1988 H1980 0.929 . S
C1988 C1989 1.377 . S
C1988 C1990 1.384 . S
C1989 C1988 1.377 . S
C1989 C1995 1.390 . S
C1990 H1981 0.930 . S
C1990 C1988 1.384 . S
C1990 C1991 1.372 . S
C1991 C1990 1.372 . S
C1991 C1992 1.400 . S
C1991 C1996 1.490 . S
C1992 H1982 0.930 . S
C1992 C1991 1.400 . S
C1992 C1995 1.386 . S
H1993 C2009 0.930 . S
H1994 C2010 0.931 . S
C1995 H1983 0.929 . S
C1995 C1989 1.390 . S
C1995 C1992 1.386 . S
C1996 C1991 1.490 . S
C1996 C1998 1.395 . S
C1996 C1999 1.403 . S
H1997 C2003 0.930 . S
C1998 H1984 0.930 . S
C1998 C1996 1.395 . S
C1998 C2001 1.403 . S
C1999 C1996 1.403 . S
C1999 C2000 1.524 . S
C1999 C2003 1.400 . S
C2000 H1985 0.960 . S
C2000 H1986 0.960 . S
C2000 H1987 0.960 . S
C2000 C1999 1.524 . S
C2001 C1998 1.403 . S
C2001 C2002 1.392 . S
C2001 C2005 1.495 . S
C2002 C2001 1.392 . S
C2002 C2003 1.385 . S
C2002 C2004 1.478 . S
C2003 H1997 0.930 . S
C2003 C1999 1.400 . S
C2003 C2002 1.385 . S
C2004 C2002 1.478 . S
C2004 C2006 1.381 . S
C2004 C2010 1.383 . S
C2005 C2001 1.495 . S
C2005 H2011 0.959 . S
C2005 H2012 0.961 . S
C2005 H2013 0.960 . S
C2006 C2004 1.381 . S
C2006 C2007 1.394 . S
C2006 H2014 0.930 . S
C2007 C2006 1.394 . S
C2007 C2008 1.383 . S
C2007 H2015 0.929 . S
C2008 C2007 1.383 . S
C2008 C2009 1.377 . S
C2009 H1993 0.930 . S
C2009 C2008 1.377 . S
C2009 C2010 1.379 . S
C2010 H1994 0.931 . S
C2010 C2004 1.383 . S
C2010 C2009 1.379 . S
H2011 C2005 0.959 . S
H2012 C2005 0.961 . S
H2013 C2005 0.960 . S
H2014 C2006 0.930 . S
H2015 C2007 0.929 . S
H2016 C2024 0.929 . S
H2017 C2026 0.930 . S
H2018 C2028 0.930 . S
H2019 C2031 0.929 . S
H2020 C2034 0.930 . S
H2021 C2036 0.960 . S
H2022 C2036 0.960 . S
H2023 C2036 0.960 . S
C2024 H2016 0.929 . S
C2024 C2025 1.377 . S
C2024 C2026 1.384 . S
C2025 C2024 1.377 . S
C2025 C2031 1.390 . S
C2026 H2017 0.930 . S
C2026 C2024 1.384 . S
C2026 C2027 1.372 . S
C2027 C2026 1.372 . S
C2027 C2028 1.400 . S
C2027 C2032 1.490 . S
C2028 H2018 0.930 . S
C2028 C2027 1.400 . S
C2028 C2031 1.386 . S
H2029 C2045 0.930 . S
H2030 C2046 0.931 . S
C2031 H2019 0.929 . S
C2031 C2025 1.390 . S
C2031 C2028 1.386 . S
C2032 C2027 1.490 . S
C2032 C2034 1.395 . S
C2032 C2035 1.403 . S
H2033 C2039 0.930 . S
C2034 H2020 0.930 . S
C2034 C2032 1.395 . S
C2034 C2037 1.403 . S
C2035 C2032 1.403 . S
C2035 C2036 1.524 . S
C2035 C2039 1.400 . S
C2036 H2021 0.960 . S
C2036 H2022 0.960 . S
C2036 H2023 0.960 . S
C2036 C2035 1.524 . S
C2037 C2034 1.403 . S
C2037 C2038 1.392 . S
C2037 C2041 1.495 . S
C2038 C2037 1.392 . S
C2038 C2039 1.385 . S
C2038 C2040 1.478 . S
C2039 H2033 0.930 . S
C2039 C2035 1.400 . S
C2039 C2038 1.385 . S
C2040 C2038 1.478 . S
C2040 C2042 1.381 . S
C2040 C2046 1.383 . S
C2041 C2037 1.495 . S
C2041 H2047 0.959 . S
C2041 H2048 0.961 . S
C2041 H2049 0.960 . S
C2042 C2040 1.381 . S
C2042 C2043 1.394 . S
C2042 H2050 0.930 . S
C2043 C2042 1.394 . S
C2043 C2044 1.383 . S
C2043 H2051 0.929 . S
C2044 C2043 1.383 . S
C2044 C2045 1.377 . S
C2045 H2029 0.930 . S
C2045 C2044 1.377 . S
C2045 C2046 1.379 . S
C2046 H2030 0.931 . S
C2046 C2040 1.383 . S
C2046 C2045 1.379 . S
H2047 C2041 0.959 . S
H2048 C2041 0.961 . S
H2049 C2041 0.960 . S
H2050 C2042 0.930 . S
H2051 C2043 0.929 . S
H2052 C2060 0.929 . S
H2053 C2062 0.930 . S
H2054 C2064 0.930 . S
H2055 C2067 0.929 . S
H2056 C2070 0.930 . S
H2057 C2072 0.960 . S
H2058 C2072 0.960 . S
H2059 C2072 0.960 . S
C2060 H2052 0.929 . S
C2060 C2061 1.377 . S
C2060 C2062 1.384 . S
C2061 C2060 1.377 . S
C2061 C2067 1.390 . S
C2062 H2053 0.930 . S
C2062 C2060 1.384 . S
C2062 C2063 1.372 . S
C2063 C2062 1.372 . S
C2063 C2064 1.400 . S
C2063 C2068 1.490 . S
C2064 H2054 0.930 . S
C2064 C2063 1.400 . S
C2064 C2067 1.386 . S
H2065 C2081 0.930 . S
H2066 C2082 0.931 . S
C2067 H2055 0.929 . S
C2067 C2061 1.390 . S
C2067 C2064 1.386 . S
C2068 C2063 1.490 . S
C2068 C2070 1.395 . S
C2068 C2071 1.403 . S
H2069 C2075 0.930 . S
C2070 H2056 0.930 . S
C2070 C2068 1.395 . S
C2070 C2073 1.403 . S
C2071 C2068 1.403 . S
C2071 C2072 1.524 . S
C2071 C2075 1.400 . S
C2072 H2057 0.960 . S
C2072 H2058 0.960 . S
C2072 H2059 0.960 . S
C2072 C2071 1.524 . S
C2073 C2070 1.403 . S
C2073 C2074 1.392 . S
C2073 C2077 1.495 . S
C2074 C2073 1.392 . S
C2074 C2075 1.385 . S
C2074 C2076 1.478 . S
C2075 H2069 0.930 . S
C2075 C2071 1.400 . S
C2075 C2074 1.385 . S
C2076 C2074 1.478 . S
C2076 C2078 1.381 . S
C2076 C2082 1.383 . S
C2077 C2073 1.495 . S
C2077 H2083 0.959 . S
C2077 H2084 0.961 . S
C2077 H2085 0.960 . S
C2078 C2076 1.381 . S
C2078 C2079 1.394 . S
C2078 H2086 0.930 . S
C2079 C2078 1.394 . S
C2079 C2080 1.383 . S
C2079 H2087 0.929 . S
C2080 C2079 1.383 . S
C2080 C2081 1.377 . S
C2081 H2065 0.930 . S
C2081 C2080 1.377 . S
C2081 C2082 1.379 . S
C2082 H2066 0.931 . S
C2082 C2076 1.383 . S
C2082 C2081 1.379 . S
H2083 C2077 0.959 . S
H2084 C2077 0.961 . S
H2085 C2077 0.960 . S
H2086 C2078 0.930 . S
H2087 C2079 0.929 . S
H2088 C2096 0.929 . S
H2089 C2098 0.930 . S
H2090 C2100 0.930 . S
H2091 C2103 0.929 . S
H2092 C2106 0.930 . S
H2093 C2108 0.960 . S
H2094 C2108 0.960 . S
H2095 C2108 0.960 . S
C2096 H2088 0.929 . S
C2096 C2097 1.377 . S
C2096 C2098 1.384 . S
C2097 C2096 1.377 . S
C2097 C2103 1.390 . S
C2098 H2089 0.930 . S
C2098 C2096 1.384 . S
C2098 C2099 1.372 . S
C2099 C2098 1.372 . S
C2099 C2100 1.400 . S
C2099 C2104 1.490 . S
C2100 H2090 0.930 . S
C2100 C2099 1.400 . S
C2100 C2103 1.386 . S
H2101 C2117 0.930 . S
H2102 C2118 0.931 . S
C2103 H2091 0.929 . S
C2103 C2097 1.390 . S
C2103 C2100 1.386 . S
C2104 C2099 1.490 . S
C2104 C2106 1.395 . S
C2104 C2107 1.403 1_556 S
H2105 C2111 0.930 . S
C2106 H2092 0.930 . S
C2106 C2104 1.395 . S
C2106 C2109 1.403 . S
C2107 C2104 1.403 1_554 S
C2107 C2108 1.524 . S
C2107 C2111 1.400 . S
C2108 H2093 0.960 . S
C2108 H2094 0.960 . S
C2108 H2095 0.960 . S
C2108 C2107 1.524 . S
C2109 C2106 1.403 . S
C2109 C2110 1.392 1_556 S
C2109 C2113 1.495 . S
C2110 C2109 1.392 1_554 S
C2110 C2111 1.385 . S
C2110 C2112 1.478 . S
C2111 H2105 0.930 . S
C2111 C2107 1.400 . S
C2111 C2110 1.385 . S
C2112 C2110 1.478 . S
C2112 C2114 1.381 . S
C2112 C2118 1.383 . S
C2113 C2109 1.495 . S
C2113 H2119 0.959 . S
C2113 H2120 0.961 . S
C2113 H2121 0.960 . S
C2114 C2112 1.381 . S
C2114 C2115 1.394 . S
C2114 H2122 0.930 . S
C2115 C2114 1.394 . S
C2115 C2116 1.383 . S
C2115 H2123 0.929 . S
C2116 C2115 1.383 . S
C2116 C2117 1.377 . S
C2117 H2101 0.930 . S
C2117 C2116 1.377 . S
C2117 C2118 1.379 . S
C2118 H2102 0.931 . S
C2118 C2112 1.383 . S
C2118 C2117 1.379 . S
H2119 C2113 0.959 . S
H2120 C2113 0.961 . S
H2121 C2113 0.960 . S
H2122 C2114 0.930 . S
H2123 C2115 0.929 . S
H2124 C2132 0.929 . S
H2125 C2134 0.930 . S
H2126 C2136 0.930 . S
H2127 C2139 0.929 . S
H2128 C2142 0.930 . S
H2129 C2144 0.960 . S
H2130 C2144 0.960 . S
H2131 C2144 0.960 1_455 S
C2132 H2124 0.929 . S
C2132 C2133 1.377 . S
C2132 C2134 1.384 . S
C2133 C2132 1.377 . S
C2133 C2139 1.390 . S
C2134 H2125 0.930 . S
C2134 C2132 1.384 . S
C2134 C2135 1.372 . S
C2135 C2134 1.372 . S
C2135 C2136 1.400 . S
C2135 C2140 1.490 . S
C2136 H2126 0.930 . S
C2136 C2135 1.400 . S
C2136 C2139 1.386 . S
H2137 C2153 0.930 . S
H2138 C2154 0.931 . S
C2139 H2127 0.929 . S
C2139 C2133 1.390 . S
C2139 C2136 1.386 . S
C2140 C2135 1.490 . S
C2140 C2142 1.395 . S
C2140 C2143 1.409 . S
H2141 C2147 0.930 . S
C2142 H2128 0.930 . S
C2142 C2140 1.395 . S
C2142 C2145 1.401 . S
C2143 C2140 1.409 . S
C2143 C2144 1.521 1_455 S
C2143 C2147 1.396 1_455 S
C2144 H2129 0.960 . S
C2144 H2130 0.960 . S
C2144 H2131 0.960 1_655 S
C2144 C2143 1.521 1_655 S
C2145 C2142 1.401 . S
C2145 C2146 1.396 1_455 S
C2145 C2149 1.494 . S
C2146 C2145 1.396 1_655 S
C2146 C2147 1.385 . S
C2146 C2148 1.478 . S
C2147 H2141 0.930 . S
C2147 C2143 1.396 1_655 S
C2147 C2146 1.385 . S
C2148 C2146 1.478 . S
C2148 C2150 1.381 . S
C2148 C2154 1.383 . S
C2149 C2145 1.494 . S
C2149 H2155 0.959 . S
C2149 H2156 0.961 . S
C2149 H2157 0.960 1_455 S
C2150 C2148 1.381 . S
C2150 C2151 1.394 . S
C2150 H2158 0.930 . S
C2151 C2150 1.394 . S
C2151 C2152 1.383 . S
C2151 H2159 0.929 . S
C2152 C2151 1.383 . S
C2152 C2153 1.377 . S
C2153 H2137 0.930 . S
C2153 C2152 1.377 . S
C2153 C2154 1.379 . S
C2154 H2138 0.931 . S
C2154 C2148 1.383 . S
C2154 C2153 1.379 . S
H2155 C2149 0.959 . S
H2156 C2149 0.961 . S
H2157 C2149 0.960 1_655 S
H2158 C2150 0.930 . S
H2159 C2151 0.929 . S
H2160 C2168 0.929 . S
H2161 C2170 0.930 . S
H2162 C2172 0.930 . S
H2163 C2175 0.929 . S
H2164 C2178 0.930 . S
H2165 C2180 0.960 . S
H2166 C2180 0.960 . S
H2167 C2180 0.960 . S
C2168 H2160 0.929 . S
C2168 C2169 1.377 . S
C2168 C2170 1.384 . S
C2169 C2168 1.377 . S
C2169 C2175 1.390 . S
C2170 H2161 0.930 . S
C2170 C2168 1.384 . S
C2170 C2171 1.372 . S
C2171 C2170 1.372 . S
C2171 C2172 1.400 . S
C2171 C2176 1.490 . S
C2172 H2162 0.930 . S
C2172 C2171 1.400 . S
C2172 C2175 1.386 . S
H2173 C2189 0.930 . S
H2174 C2190 0.931 . S
C2175 H2163 0.929 . S
C2175 C2169 1.390 . S
C2175 C2172 1.386 . S
C2176 C2171 1.490 . S
C2176 C2178 1.395 1_554 S
C2176 C2179 1.403 1_565 S
H2177 C2183 0.930 . S
C2178 H2164 0.930 . S
C2178 C2176 1.395 1_556 S
C2178 C2181 1.403 . S
C2179 C2176 1.403 1_545 S
C2179 C2180 1.524 . S
C2179 C2183 1.400 . S
C2180 H2165 0.960 . S
C2180 H2166 0.960 . S
C2180 H2167 0.960 . S
C2180 C2179 1.524 . S
C2181 C2178 1.403 . S
C2181 C2182 1.392 1_565 S
C2181 C2185 1.495 . S
C2182 C2181 1.392 1_545 S
C2182 C2183 1.385 1_556 S
C2182 C2184 1.478 . S
C2183 H2177 0.930 . S
C2183 C2179 1.400 . S
C2183 C2182 1.385 1_554 S
C2184 C2182 1.478 . S
C2184 C2186 1.381 . S
C2184 C2190 1.383 . S
C2185 C2181 1.495 . S
C2185 H2191 0.959 . S
C2185 H2192 0.961 . S
C2185 H2193 0.960 . S
C2186 C2184 1.381 . S
C2186 C2187 1.394 . S
C2186 H2194 0.930 . S
C2187 C2186 1.394 . S
C2187 C2188 1.383 . S
C2187 H2195 0.929 . S
C2188 C2187 1.383 . S
C2188 C2189 1.377 . S
C2189 H2173 0.930 . S
C2189 C2188 1.377 . S
C2189 C2190 1.379 . S
C2190 H2174 0.931 . S
C2190 C2184 1.383 . S
C2190 C2189 1.379 . S
H2191 C2185 0.959 . S
H2192 C2185 0.961 . S
H2193 C2185 0.960 . S
H2194 C2186 0.930 . S
H2195 C2187 0.929 . S
H2196 C2204 0.929 . S
H2197 C2206 0.930 . S
H2198 C2208 0.930 . S
H2199 C2211 0.929 . S
H2200 C2214 0.930 . S
H2201 C2216 0.960 . S
H2202 C2216 0.960 . S
H2203 C2216 0.960 . S
C2204 H2196 0.929 . S
C2204 C2205 1.377 . S
C2204 C2206 1.384 . S
C2205 C2204 1.377 . S
C2205 C2211 1.390 . S
C2206 H2197 0.930 . S
C2206 C2204 1.384 . S
C2206 C2207 1.372 . S
C2207 C2206 1.372 . S
C2207 C2208 1.400 . S
C2207 C2212 1.490 . S
C2208 H2198 0.930 . S
C2208 C2207 1.400 . S
C2208 C2211 1.386 . S
H2209 C2225 0.930 . S
H2210 C2226 0.931 . S
C2211 H2199 0.929 . S
C2211 C2205 1.390 . S
C2211 C2208 1.386 . S
C2212 C2207 1.490 . S
C2212 C2214 1.395 . S
C2212 C2215 1.403 . S
H2213 C2219 0.930 . S
C2214 H2200 0.930 . S
C2214 C2212 1.395 . S
C2214 C2217 1.403 . S
C2215 C2212 1.403 . S
C2215 C2216 1.524 . S
C2215 C2219 1.400 . S
C2216 H2201 0.960 . S
C2216 H2202 0.960 . S
C2216 H2203 0.960 . S
C2216 C2215 1.524 . S
C2217 C2214 1.403 . S
C2217 C2218 1.392 . S
C2217 C2221 1.495 . S
C2218 C2217 1.392 . S
C2218 C2219 1.385 . S
C2218 C2220 1.478 . S
C2219 H2213 0.930 . S
C2219 C2215 1.400 . S
C2219 C2218 1.385 . S
C2220 C2218 1.478 . S
C2220 C2222 1.381 . S
C2220 C2226 1.383 . S
C2221 C2217 1.495 . S
C2221 H2227 0.959 . S
C2221 H2228 0.961 . S
C2221 H2229 0.960 . S
C2222 C2220 1.381 . S
C2222 C2223 1.394 . S
C2222 H2230 0.930 . S
C2223 C2222 1.394 . S
C2223 C2224 1.383 . S
C2223 H2231 0.929 . S
C2224 C2223 1.383 . S
C2224 C2225 1.377 . S
C2225 H2209 0.930 . S
C2225 C2224 1.377 . S
C2225 C2226 1.379 . S
C2226 H2210 0.931 . S
C2226 C2220 1.383 . S
C2226 C2225 1.379 . S
H2227 C2221 0.959 . S
H2228 C2221 0.961 . S
H2229 C2221 0.960 . S
H2230 C2222 0.930 . S
H2231 C2223 0.929 . S
H2232 C2240 0.929 . S
H2233 C2242 0.930 . S
H2234 C2244 0.930 . S
H2235 C2247 0.929 . S
H2236 C2250 0.930 . S
H2237 C2252 0.960 . S
H2238 C2252 0.960 . S
H2239 C2252 0.960 1_556 S
C2240 H2232 0.929 . S
C2240 C2241 1.377 . S
C2240 C2242 1.384 . S
C2241 C2240 1.377 . S
C2241 C2247 1.390 . S
C2242 H2233 0.930 . S
C2242 C2240 1.384 . S
C2242 C2243 1.372 . S
C2243 C2242 1.372 . S
C2243 C2244 1.400 . S
C2243 C2248 1.490 . S
C2244 H2234 0.930 . S
C2244 C2243 1.400 . S
C2244 C2247 1.386 . S
H2245 C2261 0.930 . S
H2246 C2262 0.931 . S
C2247 H2235 0.929 . S
C2247 C2241 1.390 . S
C2247 C2244 1.386 . S
C2248 C2243 1.490 . S
C2248 C2250 1.395 . S
C2248 C2251 1.397 1_556 S
H2249 C2255 0.930 . S
C2250 H2236 0.930 . S
C2250 C2248 1.395 . S
C2250 C2253 1.414 1_655 S
C2251 C2248 1.397 1_554 S
C2251 C2252 1.524 . S
C2251 C2255 1.405 1_655 S
C2252 H2237 0.960 . S
C2252 H2238 0.960 . S
C2252 H2239 0.960 1_554 S
C2252 C2251 1.524 . S
C2253 C2250 1.414 1_455 S
C2253 C2254 1.381 1_556 S
C2253 C2257 1.496 . S
C2254 C2253 1.381 1_554 S
C2254 C2255 1.385 . S
C2254 C2256 1.478 . S
C2255 H2249 0.930 . S
C2255 C2251 1.405 1_455 S
C2255 C2254 1.385 . S
C2256 C2254 1.478 . S
C2256 C2258 1.381 . S
C2256 C2262 1.383 . S
C2257 C2253 1.496 . S
C2257 H2263 0.959 . S
C2257 H2264 0.961 . S
C2257 H2265 0.960 1_556 S
C2258 C2256 1.381 . S
C2258 C2259 1.394 . S
C2258 H2266 0.930 . S
C2259 C2258 1.394 . S
C2259 C2260 1.383 . S
C2259 H2267 0.929 . S
C2260 C2259 1.383 . S
C2260 C2261 1.377 . S
C2261 H2245 0.930 . S
C2261 C2260 1.377 . S
C2261 C2262 1.379 . S
C2262 H2246 0.931 . S
C2262 C2256 1.383 . S
C2262 C2261 1.379 . S
H2263 C2257 0.959 . S
H2264 C2257 0.961 . S
H2265 C2257 0.960 1_554 S
H2266 C2258 0.930 . S
H2267 C2259 0.929 . S
H2268 C2276 0.929 . S
H2269 C2278 0.930 . S
H2270 C2280 0.930 . S
H2271 C2283 0.929 . S
H2272 C2286 0.930 . S
H2273 C2288 0.960 . S
H2274 C2288 0.960 1_565 S
H2275 C2288 0.960 . S
C2276 H2268 0.929 . S
C2276 C2277 1.377 . S
C2276 C2278 1.384 . S
C2277 C2276 1.377 . S
C2277 C2283 1.390 . S
C2278 H2269 0.930 . S
C2278 C2276 1.384 . S
C2278 C2279 1.372 . S
C2279 C2278 1.372 . S
C2279 C2280 1.400 . S
C2279 C2284 1.490 . S
C2280 H2270 0.930 . S
C2280 C2279 1.400 . S
C2280 C2283 1.386 . S
H2281 C2297 0.930 . S
H2282 C2298 0.931 . S
C2283 H2271 0.929 . S
C2283 C2277 1.390 . S
C2283 C2280 1.386 . S
C2284 C2279 1.490 . S
C2284 C2286 1.395 . S
C2284 C2287 1.403 1_565 S
H2285 C2291 0.930 . S
C2286 H2272 0.930 . S
C2286 C2284 1.395 . S
C2286 C2289 1.403 . S
C2287 C2284 1.403 1_545 S
C2287 C2288 1.524 . S
C2287 C2291 1.400 . S
C2288 H2273 0.960 . S
C2288 H2274 0.960 1_545 S
C2288 H2275 0.960 . S
C2288 C2287 1.524 . S
C2289 C2286 1.403 . S
C2289 C2290 1.392 1_565 S
C2289 C2293 1.495 . S
C2290 C2289 1.392 1_545 S
C2290 C2291 1.385 . S
C2290 C2292 1.478 . S
C2291 H2285 0.930 . S
C2291 C2287 1.400 . S
C2291 C2290 1.385 . S
C2292 C2290 1.478 . S
C2292 C2294 1.381 . S
C2292 C2298 1.383 . S
C2293 C2289 1.495 . S
C2293 H2299 0.959 . S
C2293 H2300 0.961 . S
C2293 H2301 0.960 . S
C2294 C2292 1.381 . S
C2294 C2295 1.394 . S
C2294 H2302 0.930 . S
C2295 C2294 1.394 . S
C2295 C2296 1.383 . S
C2295 H2303 0.929 . S
C2296 C2295 1.383 . S
C2296 C2297 1.377 . S
C2297 H2281 0.930 . S
C2297 C2296 1.377 . S
C2297 C2298 1.379 . S
C2298 H2282 0.931 . S
C2298 C2292 1.383 . S
C2298 C2297 1.379 . S
H2299 C2293 0.959 . S
H2300 C2293 0.961 . S
H2301 C2293 0.960 . S
H2302 C2294 0.930 . S
H2303 C2295 0.929 . S
C1017 C403 1.315 . S
C1036 C70 1.243 . S
C1053 C487 1.322 . S
C1072 C154 1.191 . S
C1089 C238 1.215 . S
C1108 C67 1.294 . S
C1125 C322 1.224 . S
C1144 C151 1.287 . S
C1161 C406 1.214 . S
C1180 C235 1.299 . S
C1197 C319 1.313 . S
C1216 C490 1.202 . S
C1233 C739 1.325 . S
C1252 C574 1.216 . S
C1269 C658 1.233 . S
C1288 C823 1.311 . S
C1305 C907 1.324 . S
C1324 C742 1.206 . S
C1341 C826 1.215 . S
C1360 C991 1.292 . S
C1377 C910 1.234 . S
C1396 C571 1.317 . S
C1413 C655 1.314 . S
C1432 C994 1.229 . S
C1449 C392 1.417 . S
C1468 C58 1.268 . S
C1485 C142 1.315 . S
C1504 C476 1.403 . S
C1521 C226 1.314 . S
C1540 C56 1.416 . S
C1557 C310 1.320 . S
C1576 C140 1.385 . S
C1593 C224 1.403 . S
C1612 C394 1.359 . S
C1629 C308 1.416 . S
C1648 C478 1.275 . S
C1665 C728 1.417 . S
C1684 C562 1.266 . S
C1701 C646 1.320 . S
C1720 C812 1.386 . S
C1737 C730 1.325 . S
C1756 C896 1.372 . S
C1773 C980 1.411 . S
C1792 C814 1.314 . S
C1809 C898 1.315 . S
C1828 C560 1.402 . S
C1845 C644 1.407 . S
C1864 C982 1.337 . S
C1881 C903 1.910 . S
C1900 C63 1.908 . S
C1917 C147 1.912 . S
C1936 C987 1.899 . S
C1953 C231 1.906 . S
C1972 C567 1.926 . S
C1989 C315 1.911 . S
C2008 C651 1.906 . S
C2025 C399 1.904 . S
C2044 C735 1.901 . S
C2061 C819 1.902 . S
C2080 C483 1.923 . S
C2097 C830 2.028 . S
C2116 C74 2.027 . S
C2133 C914 2.027 . S
C2152 C158 2.033 . S
C2169 C242 2.031 . S
C2188 C998 2.010 . S
C2205 C326 2.026 . S
C2224 C578 2.035 . S
C2241 C662 2.030 . S
C2260 C410 2.015 . S
C2277 C746 2.033 . S
C2296 C494 2.004 . S
