# Generated by pormake.
# Topology umk, (4)-cn, num edge types: 1
# Building blocks:
#     Node 0, Type 0, BuildingBlock: ICAMEG_clean_sbu_1, # of connection points: 4
#     Node 1, Type 0, BuildingBlock: ICAMEG_clean_sbu_1, # of connection points: 4
#     Node 2, Type 0, BuildingBlock: ICAMEG_clean_sbu_1, # of connection points: 4
#     Node 3, Type 0, BuildingBlock: ICAMEG_clean_sbu_1, # of connection points: 4
#     Node 4, Type 0, BuildingBlock: ICAMEG_clean_sbu_1, # of connection points: 4
#     Node 5, Type 0, BuildingBlock: ICAMEG_clean_sbu_1, # of connection points: 4
#     Node 6, Type 0, BuildingBlock: ICAMEG_clean_sbu_1, # of connection points: 4
#     Node 7, Type 0, BuildingBlock: ICAMEG_clean_sbu_1, # of connection points: 4
#     Node 8, Type 0, BuildingBlock: ICAMEG_clean_sbu_1, # of connection points: 4
#     Node 9, Type 0, BuildingBlock: ICAMEG_clean_sbu_1, # of connection points: 4
#     Node 10, Type 0, BuildingBlock: ICAMEG_clean_sbu_1, # of connection points: 4
#     Node 11, Type 0, BuildingBlock: ICAMEG_clean_sbu_1, # of connection points: 4
#     Node 12, Type 0, BuildingBlock: ICAMEG_clean_sbu_1, # of connection points: 4
#     Node 13, Type 0, BuildingBlock: ICAMEG_clean_sbu_1, # of connection points: 4
#     Node 14, Type 0, BuildingBlock: ICAMEG_clean_sbu_1, # of connection points: 4
#     Node 15, Type 0, BuildingBlock: ICAMEG_clean_sbu_1, # of connection points: 4
#     Node 16, Type 0, BuildingBlock: ICAMEG_clean_sbu_1, # of connection points: 4
#     Node 17, Type 0, BuildingBlock: ICAMEG_clean_sbu_1, # of connection points: 4
#     Node 18, Type 0, BuildingBlock: ICAMEG_clean_sbu_1, # of connection points: 4
#     Node 19, Type 0, BuildingBlock: ICAMEG_clean_sbu_1, # of connection points: 4
#     Node 20, Type 0, BuildingBlock: ICAMEG_clean_sbu_1, # of connection points: 4
#     Node 21, Type 0, BuildingBlock: ICAMEG_clean_sbu_1, # of connection points: 4
#     Node 22, Type 0, BuildingBlock: ICAMEG_clean_sbu_1, # of connection points: 4
#     Node 23, Type 0, BuildingBlock: ICAMEG_clean_sbu_1, # of connection points: 4
#     Edge 24, Type (0, 0), BuildingBlock: XIVTED_clean_linker_0, # of connection points: 2
#     Edge 25, Type (0, 0), BuildingBlock: XIVTED_clean_linker_0, # of connection points: 2
#     Edge 26, Type (0, 0), BuildingBlock: XIVTED_clean_linker_0, # of connection points: 2
#     Edge 27, Type (0, 0), BuildingBlock: XIVTED_clean_linker_0, # of connection points: 2
#     Edge 28, Type (0, 0), BuildingBlock: XIVTED_clean_linker_0, # of connection points: 2
#     Edge 29, Type (0, 0), BuildingBlock: XIVTED_clean_linker_0, # of connection points: 2
#     Edge 30, Type (0, 0), BuildingBlock: XIVTED_clean_linker_0, # of connection points: 2
#     Edge 31, Type (0, 0), BuildingBlock: XIVTED_clean_linker_0, # of connection points: 2
#     Edge 32, Type (0, 0), BuildingBlock: XIVTED_clean_linker_0, # of connection points: 2
#     Edge 33, Type (0, 0), BuildingBlock: XIVTED_clean_linker_0, # of connection points: 2
#     Edge 34, Type (0, 0), BuildingBlock: XIVTED_clean_linker_0, # of connection points: 2
#     Edge 35, Type (0, 0), BuildingBlock: XIVTED_clean_linker_0, # of connection points: 2
#     Edge 36, Type (0, 0), BuildingBlock: XIVTED_clean_linker_0, # of connection points: 2
#     Edge 37, Type (0, 0), BuildingBlock: XIVTED_clean_linker_0, # of connection points: 2
#     Edge 38, Type (0, 0), BuildingBlock: XIVTED_clean_linker_0, # of connection points: 2
#     Edge 39, Type (0, 0), BuildingBlock: XIVTED_clean_linker_0, # of connection points: 2
#     Edge 40, Type (0, 0), BuildingBlock: XIVTED_clean_linker_0, # of connection points: 2
#     Edge 41, Type (0, 0), BuildingBlock: XIVTED_clean_linker_0, # of connection points: 2
#     Edge 42, Type (0, 0), BuildingBlock: XIVTED_clean_linker_0, # of connection points: 2
#     Edge 43, Type (0, 0), BuildingBlock: XIVTED_clean_linker_0, # of connection points: 2
#     Edge 44, Type (0, 0), BuildingBlock: XIVTED_clean_linker_0, # of connection points: 2
#     Edge 45, Type (0, 0), BuildingBlock: XIVTED_clean_linker_0, # of connection points: 2
#     Edge 46, Type (0, 0), BuildingBlock: XIVTED_clean_linker_0, # of connection points: 2
#     Edge 47, Type (0, 0), BuildingBlock: XIVTED_clean_linker_0, # of connection points: 2
#     Edge 48, Type (0, 0), BuildingBlock: XIVTED_clean_linker_0, # of connection points: 2
#     Edge 49, Type (0, 0), BuildingBlock: XIVTED_clean_linker_0, # of connection points: 2
#     Edge 50, Type (0, 0), BuildingBlock: XIVTED_clean_linker_0, # of connection points: 2
#     Edge 51, Type (0, 0), BuildingBlock: XIVTED_clean_linker_0, # of connection points: 2
#     Edge 52, Type (0, 0), BuildingBlock: XIVTED_clean_linker_0, # of connection points: 2
#     Edge 53, Type (0, 0), BuildingBlock: XIVTED_clean_linker_0, # of connection points: 2
#     Edge 54, Type (0, 0), BuildingBlock: XIVTED_clean_linker_0, # of connection points: 2
#     Edge 55, Type (0, 0), BuildingBlock: XIVTED_clean_linker_0, # of connection points: 2
#     Edge 56, Type (0, 0), BuildingBlock: XIVTED_clean_linker_0, # of connection points: 2
#     Edge 57, Type (0, 0), BuildingBlock: XIVTED_clean_linker_0, # of connection points: 2
#     Edge 58, Type (0, 0), BuildingBlock: XIVTED_clean_linker_0, # of connection points: 2
#     Edge 59, Type (0, 0), BuildingBlock: XIVTED_clean_linker_0, # of connection points: 2
#     Edge 60, Type (0, 0), BuildingBlock: XIVTED_clean_linker_0, # of connection points: 2
#     Edge 61, Type (0, 0), BuildingBlock: XIVTED_clean_linker_0, # of connection points: 2
#     Edge 62, Type (0, 0), BuildingBlock: XIVTED_clean_linker_0, # of connection points: 2
#     Edge 63, Type (0, 0), BuildingBlock: XIVTED_clean_linker_0, # of connection points: 2
#     Edge 64, Type (0, 0), BuildingBlock: XIVTED_clean_linker_0, # of connection points: 2
#     Edge 65, Type (0, 0), BuildingBlock: XIVTED_clean_linker_0, # of connection points: 2
#     Edge 66, Type (0, 0), BuildingBlock: XIVTED_clean_linker_0, # of connection points: 2
#     Edge 67, Type (0, 0), BuildingBlock: XIVTED_clean_linker_0, # of connection points: 2
#     Edge 68, Type (0, 0), BuildingBlock: XIVTED_clean_linker_0, # of connection points: 2
#     Edge 69, Type (0, 0), BuildingBlock: XIVTED_clean_linker_0, # of connection points: 2
#     Edge 70, Type (0, 0), BuildingBlock: XIVTED_clean_linker_0, # of connection points: 2
#     Edge 71, Type (0, 0), BuildingBlock: XIVTED_clean_linker_0, # of connection points: 2
# Relax obj value: 0.072
# Max RMSD: 0.106
# Mean RMSD: 0.106
data_MOF--net-umk--node1-ICAMEG_clean_sbu_1--edge1-XIVTED_clean_linker_0
_symmetry_space_group_name_H-M    P1
_symmetry_Int_Tables_number       1
_symmetry_cell_setting            triclinic
loop_
_symmetry_equiv_pos_as_xyz
'x, y, z'
_cell_length_a     69.172519
_cell_length_b     69.177907
_cell_length_c     49.034631
_cell_angle_alpha  90.014077
_cell_angle_beta   89.989378
_cell_angle_gamma 120.00016
loop_
_atom_site_label
_atom_site_type_symbol
_atom_site_fract_x
_atom_site_fract_y
_atom_site_fract_z
_atom_type_partial_charge
Co0 Co 0.36267 0.48736 0.10967 0.0
Co1 Co 0.33634 0.45854 0.05047 0.0
O2 O 0.3357 0.46883 0.08785 0.0
C3 C 0.33071 0.45202 0.14989 0.0
O4 O 0.31464 0.44168 0.13201 0.0
C5 C 0.30993 0.48176 0.04492 0.0
O6 O 0.32283 0.49631 0.06327 0.0
O7 O 0.35993 0.48898 0.03886 0.0
O8 O 0.37809 0.50593 0.07723 0.0
H9 H 0.37347 0.45117 0.96617 0.0
H10 H 0.31864 0.48085 0.12786 0.0
O11 O 0.34893 0.46949 0.14355 0.0
H12 H 0.36738 0.56215 0.11805 0.0
H13 H 0.40534 0.53028 0.19284 0.0
H14 H 0.41112 0.50618 0.10001 0.0
H15 H 0.38178 0.53668 0.10852 0.0
H16 H 0.37151 0.50748 0.16541 0.0
O17 O 0.31292 0.46569 0.03802 0.0
H18 H 0.37222 0.46387 0.01282 0.0
H19 H 0.30144 0.43122 0.00929 0.0
H20 H 0.4454 0.52915 0.12664 0.0
H21 H 0.30366 0.50568 0.13798 0.0
H22 H 0.44263 0.54134 0.17342 0.0
H23 H 0.32807 0.54669 0.13302 0.0
O24 O 0.37461 0.46708 0.10154 0.0
H25 H 0.26313 0.40291 0.09264 0.0
H26 H 0.33057 0.4129 0.04567 0.0
H27 H 0.30156 0.37519 0.0598 0.0
H28 H 0.2675 0.37 0.08338 0.0
H29 H 0.29272 0.44039 0.07848 0.0
H30 H 0.30194 0.41832 0.96254 0.0
H31 H 0.33815 0.42823 0.94071 0.0
O32 O 0.35962 0.45097 0.06139 0.0
C33 C 0.37563 0.50546 0.05149 0.0
C34 C 0.35759 0.44669 0.97549 0.0
C35 C 0.31744 0.42827 0.97344 0.0
N36 N 0.33678 0.44816 0.01383 0.0
C37 C 0.35677 0.45378 0.00192 0.0
C38 C 0.31727 0.43567 0.9999 0.0
C39 C 0.33776 0.43383 0.96121 0.0
C40 C 0.32951 0.49862 0.1261 0.0
N41 N 0.35117 0.50723 0.11798 0.0
C42 C 0.32087 0.51264 0.13166 0.0
C43 C 0.33455 0.53563 0.12881 0.0
C44 C 0.35659 0.54431 0.12039 0.0
C45 C 0.36464 0.52978 0.11497 0.0
C46 C 0.40677 0.52511 0.17246 0.0
C47 C 0.40979 0.51156 0.12028 0.0
C48 C 0.38767 0.51216 0.15685 0.0
N49 N 0.38935 0.50567 0.13103 0.0
C50 C 0.42925 0.5245 0.13529 0.0
C51 C 0.42768 0.53132 0.16155 0.0
C52 C 0.37261 0.45442 0.08156 0.0
C53 C 0.27788 0.40496 0.08234 0.0
C54 C 0.3159 0.41082 0.05613 0.0
C55 C 0.29947 0.3894 0.06397 0.0
C56 C 0.28036 0.3865 0.07717 0.0
N57 N 0.31334 0.42884 0.06126 0.0
C58 C 0.29464 0.42612 0.07418 0.0
Co59 Co 0.88023 0.36233 0.61083 0.0
Co60 Co 0.88294 0.33598 0.55177 0.0
O61 O 0.87198 0.33534 0.58912 0.0
C62 C 0.88372 0.3305 0.65105 0.0
O63 O 0.87818 0.31451 0.63311 0.0
C64 C 0.83333 0.30919 0.5465 0.0
O65 O 0.83163 0.32206 0.56484 0.0
O66 O 0.87575 0.3593 0.54007 0.0
O67 O 0.87698 0.37762 0.5783 0.0
H68 H 0.92715 0.37312 0.46733 0.0
H69 H 0.84282 0.31825 0.62913 0.0
O70 O 0.88438 0.34868 0.64475 0.0
H71 H 0.8099 0.36663 0.61883 0.0
H72 H 0.87961 0.405 0.6938 0.0
H73 H 0.90967 0.41078 0.60108 0.0
H74 H 0.84981 0.38119 0.6094 0.0
H75 H 0.86878 0.37116 0.66648 0.0
O76 O 0.85242 0.31234 0.53943 0.0
H77 H 0.91321 0.37187 0.51398 0.0
H78 H 0.87561 0.30106 0.51073 0.0
H79 H 0.92077 0.44507 0.62761 0.0
H80 H 0.80298 0.30312 0.63917 0.0
H81 H 0.90571 0.4423 0.67433 0.0
H82 H 0.78619 0.32734 0.63396 0.0
O83 O 0.91247 0.37439 0.60278 0.0
H84 H 0.86603 0.26305 0.59414 0.0
H85 H 0.92306 0.33063 0.54702 0.0
H86 H 0.93211 0.30189 0.56123 0.0
H87 H 0.90345 0.26775 0.58489 0.0
H88 H 0.85779 0.29238 0.57991 0.0
H89 H 0.889 0.30156 0.46397 0.0
H90 H 0.91503 0.33779 0.442 0.0
O91 O 0.91374 0.35949 0.56263 0.0
C92 C 0.87487 0.37499 0.55259 0.0
C93 C 0.91587 0.35723 0.47671 0.0
C94 C 0.89443 0.31707 0.47482 0.0
N95 N 0.89375 0.33642 0.51514 0.0
C96 C 0.90797 0.35641 0.50315 0.0
C97 C 0.88687 0.3169 0.50128 0.0
C98 C 0.90904 0.3374 0.46251 0.0
C99 C 0.83584 0.32905 0.62727 0.0
N100 N 0.84882 0.3507 0.61905 0.0
C101 C 0.81317 0.32032 0.63278 0.0
C102 C 0.80374 0.33389 0.62978 0.0
C103 C 0.81703 0.35592 0.62128 0.0
C104 C 0.83963 0.36406 0.61591 0.0
C105 C 0.88624 0.40643 0.67344 0.0
C106 C 0.90292 0.40945 0.62133 0.0
C107 C 0.8802 0.38732 0.65789 0.0
N108 N 0.88843 0.38901 0.63211 0.0
C109 C 0.90932 0.42892 0.63628 0.0
C110 C 0.90088 0.42735 0.6625 0.0
C111 C 0.9232 0.37248 0.58282 0.0
C112 C 0.87865 0.27783 0.58381 0.0
C113 C 0.91056 0.31593 0.55752 0.0
C114 C 0.91575 0.29966 0.56541 0.0
C115 C 0.89966 0.2805 0.57865 0.0
N116 N 0.88991 0.31319 0.56265 0.0
C117 C 0.87405 0.29445 0.57561 0.0
Co118 Co 0.52047 0.87561 0.11178 0.0
Co119 Co 0.54765 0.87903 0.05131 0.0
O120 O 0.53807 0.86727 0.08829 0.0
C121 C 0.55802 0.88797 0.15133 0.0
O122 O 0.57203 0.90371 0.13485 0.0
C123 C 0.52512 0.82968 0.04436 0.0
O124 O 0.51018 0.8277 0.06233 0.0
O125 O 0.51679 0.87158 0.04116 0.0
O126 O 0.50236 0.87577 0.08019 0.0
H127 H 0.55235 0.92434 0.96892 0.0
H128 H 0.52487 0.83645 0.12666 0.0
O129 O 0.53773 0.87527 0.14442 0.0
H130 H 0.4441 0.80703 0.11497 0.0
H131 H 0.47884 0.87215 0.19762 0.0
H132 H 0.50394 0.90765 0.10748 0.0
H133 H 0.47085 0.84712 0.10874 0.0
H134 H 0.50032 0.86146 0.16718 0.0
O135 O 0.54114 0.84889 0.03788 0.0
H136 H 0.54072 0.90953 0.01548 0.0
H137 H 0.57482 0.87298 0.00844 0.0
H138 H 0.48234 0.9187 0.13719 0.0
H139 H 0.49866 0.79627 0.13345 0.0
H140 H 0.46964 0.90091 0.18263 0.0
H141 H 0.45796 0.78131 0.12748 0.0
O142 O 0.54188 0.90801 0.10593 0.0
H143 H 0.60503 0.86329 0.09194 0.0
H144 H 0.59276 0.91947 0.04546 0.0
H145 H 0.63094 0.92911 0.05874 0.0
H146 H 0.63727 0.90089 0.08208 0.0
H147 H 0.56709 0.85443 0.0785 0.0
H148 H 0.58666 0.88725 0.96172 0.0
H149 H 0.57549 0.91319 0.94171 0.0
O150 O 0.55462 0.90947 0.06341 0.0
C151 C 0.50158 0.87275 0.05449 0.0
C152 C 0.55738 0.9131 0.97745 0.0
C153 C 0.57662 0.89226 0.9734 0.0
N154 N 0.55722 0.89055 0.01474 0.0
C155 C 0.5509 0.90471 0.00382 0.0
C156 C 0.56982 0.8842 0.99983 0.0
C157 C 0.57035 0.90682 0.96218 0.0
C158 C 0.50716 0.8301 0.1243 0.0
N159 N 0.49941 0.84413 0.11733 0.0
C160 C 0.49241 0.80732 0.12805 0.0
C161 C 0.46958 0.79893 0.12466 0.0
C162 C 0.46179 0.81334 0.1176 0.0
C163 C 0.47704 0.83602 0.11398 0.0
C164 C 0.48424 0.87999 0.17785 0.0
C165 C 0.49836 0.89973 0.12715 0.0
C166 C 0.49645 0.87404 0.16053 0.0
N167 N 0.50325 0.88381 0.13548 0.0
C168 C 0.48618 0.9061 0.14392 0.0
C169 C 0.47908 0.89613 0.16942 0.0
C170 C 0.55293 0.91886 0.08499 0.0
C171 C 0.60249 0.87571 0.08171 0.0
C172 C 0.59536 0.90712 0.05571 0.0
C173 C 0.61703 0.91266 0.06312 0.0
C174 C 0.62057 0.89682 0.07621 0.0
N175 N 0.57773 0.88636 0.06109 0.0
C176 C 0.58106 0.87076 0.07399 0.0
Co177 Co 0.64638 0.51923 0.60757 0.0
Co178 Co 0.67273 0.5481 0.54841 0.0
O179 O 0.67337 0.5377 0.58573 0.0
C180 C 0.67851 0.55428 0.64796 0.0
O181 O 0.69465 0.56462 0.63016 0.0
C182 C 0.69876 0.52454 0.54241 0.0
O183 O 0.68574 0.50992 0.56064 0.0
O184 O 0.64902 0.51773 0.53673 0.0
O185 O 0.63088 0.5008 0.5751 0.0
H186 H 0.63563 0.55592 0.46439 0.0
H187 H 0.69035 0.5254 0.62544 0.0
O188 O 0.66022 0.53695 0.64149 0.0
H189 H 0.64114 0.44418 0.61549 0.0
H190 H 0.60363 0.47622 0.69065 0.0
H191 H 0.59796 0.50072 0.59803 0.0
H192 H 0.62696 0.46987 0.60626 0.0
H193 H 0.63748 0.49894 0.66322 0.0
O194 O 0.69601 0.54081 0.53578 0.0
H195 H 0.63687 0.54304 0.51092 0.0
H196 H 0.70763 0.5754 0.50723 0.0
H197 H 0.56367 0.47784 0.62467 0.0
H198 H 0.70511 0.50034 0.63527 0.0
H199 H 0.56638 0.46544 0.67134 0.0
H200 H 0.68047 0.45937 0.63023 0.0
O201 O 0.63462 0.53969 0.59966 0.0
H202 H 0.74606 0.60333 0.59065 0.0
H203 H 0.67875 0.59385 0.54388 0.0
H204 H 0.70789 0.63146 0.55817 0.0
H205 H 0.74188 0.6364 0.58166 0.0
H206 H 0.71635 0.56596 0.57632 0.0
H207 H 0.70714 0.58848 0.46058 0.0
H208 H 0.67096 0.57881 0.4389 0.0
O209 O 0.64958 0.55581 0.55951 0.0
C210 C 0.6333 0.50127 0.54936 0.0
C211 C 0.65151 0.5603 0.47365 0.0
C212 C 0.69164 0.57855 0.4715 0.0
N213 N 0.6723 0.55859 0.51185 0.0
C214 C 0.65232 0.5531 0.50001 0.0
C215 C 0.69181 0.57105 0.4979 0.0
C216 C 0.67133 0.57312 0.45935 0.0
C217 C 0.67938 0.50765 0.62365 0.0
N218 N 0.65771 0.49919 0.61566 0.0
C219 C 0.6879 0.4935 0.62904 0.0
C220 C 0.67408 0.47052 0.62615 0.0
C221 C 0.65203 0.462 0.61786 0.0
C222 C 0.64411 0.47665 0.61261 0.0
C223 C 0.60223 0.48148 0.67031 0.0
C224 C 0.59927 0.49526 0.61825 0.0
C225 C 0.62134 0.49438 0.6547 0.0
N226 N 0.61969 0.50099 0.62894 0.0
C227 C 0.5798 0.48236 0.63327 0.0
C228 C 0.58133 0.47543 0.65946 0.0
C229 C 0.63666 0.55241 0.57973 0.0
C230 C 0.73135 0.6014 0.58039 0.0
C231 C 0.6934 0.59582 0.55429 0.0
C232 C 0.7099 0.61718 0.56222 0.0
C233 C 0.72898 0.61994 0.57537 0.0
N234 N 0.69585 0.57772 0.55927 0.0
C235 C 0.71451 0.5803 0.57214 0.0
Co236 Co 0.13101 0.6445 0.1103 0.0
Co237 Co 0.12741 0.67058 0.05178 0.0
O238 O 0.13885 0.67133 0.08874 0.0
C239 C 0.12845 0.67654 0.15098 0.0
O240 O 0.13315 0.6922 0.13283 0.0
C241 C 0.17662 0.69638 0.04242 0.0
O242 O 0.1782 0.68015 0.05413 0.0
O243 O 0.13511 0.64771 0.03934 0.0
O244 O 0.13331 0.629 0.07744 0.0
H245 H 0.08321 0.63381 0.96719 0.0
H246 H 0.16903 0.68877 0.12659 0.0
O247 O 0.12787 0.65841 0.14461 0.0
H248 H 0.20132 0.63991 0.11525 0.0
H249 H 0.13339 0.60206 0.19252 0.0
H250 H 0.1011 0.59604 0.10113 0.0
H251 H 0.16114 0.6253 0.10788 0.0
H252 H 0.14374 0.63582 0.16526 0.0
O253 O 0.15767 0.69513 0.04011 0.0
H254 H 0.09747 0.63483 0.01358 0.0
H255 H 0.13387 0.7057 0.01158 0.0
H256 H 0.09046 0.56184 0.1276 0.0
H257 H 0.20921 0.704 0.13446 0.0
H258 H 0.10665 0.56473 0.17365 0.0
H259 H 0.22566 0.67952 0.12874 0.0
O260 O 0.09863 0.63263 0.10344 0.0
H261 H 0.14259 0.74267 0.09523 0.0
H262 H 0.08646 0.67458 0.04809 0.0
H263 H 0.07645 0.70247 0.06306 0.0
H264 H 0.10465 0.73686 0.08673 0.0
H265 H 0.1518 0.71418 0.08029 0.0
H266 H 0.12013 0.70544 0.96509 0.0
H267 H 0.09455 0.6693 0.94263 0.0
O268 O 0.09687 0.64635 0.0626 0.0
C269 C 0.13555 0.63172 0.05174 0.0
C270 C 0.0943 0.64966 0.97679 0.0
C271 C 0.11505 0.68986 0.9756 0.0
N272 N 0.11636 0.67029 0.01534 0.0
C273 C 0.10238 0.65034 0.00308 0.0
C274 C 0.12281 0.6899 0.0019 0.0
C275 C 0.10068 0.66958 0.96301 0.0
C276 C 0.17591 0.6779 0.12444 0.0
N277 N 0.16259 0.65606 0.11718 0.0
C278 C 0.19875 0.68667 0.12875 0.0
C279 C 0.20799 0.67294 0.12549 0.0
C280 C 0.19434 0.65072 0.11791 0.0
C281 C 0.17158 0.64255 0.11374 0.0
C282 C 0.12627 0.60058 0.17245 0.0
C283 C 0.10833 0.59743 0.12107 0.0
C284 C 0.13202 0.61964 0.15694 0.0
N285 N 0.12317 0.61789 0.13152 0.0
C286 C 0.10219 0.57801 0.136 0.0
C287 C 0.11126 0.57964 0.16185 0.0
C288 C 0.08765 0.63386 0.08327 0.0
C289 C 0.13017 0.72777 0.08491 0.0
C290 C 0.09876 0.68938 0.05863 0.0
C291 C 0.09303 0.70518 0.06693 0.0
C292 C 0.10887 0.72448 0.08017 0.0
N293 N 0.11969 0.6927 0.06338 0.0
C294 C 0.13531 0.71161 0.07631 0.0
Co295 Co 0.48822 0.12993 0.60991 0.0
Co296 Co 0.46122 0.12637 0.5493 0.0
O297 O 0.47068 0.1382 0.58626 0.0
C298 C 0.45112 0.1174 0.65046 0.0
O299 O 0.43719 0.10052 0.63524 0.0
C300 C 0.48394 0.17561 0.54217 0.0
O301 O 0.49895 0.17747 0.55994 0.0
O302 O 0.49211 0.13387 0.5393 0.0
O303 O 0.50633 0.12957 0.57843 0.0
H304 H 0.45679 0.08094 0.46712 0.0
H305 H 0.48396 0.16927 0.62426 0.0
O306 O 0.47101 0.13059 0.64246 0.0
H307 H 0.56471 0.19837 0.61291 0.0
H308 H 0.52972 0.13367 0.69596 0.0
H309 H 0.50461 0.09776 0.60602 0.0
H310 H 0.53787 0.15827 0.60696 0.0
H311 H 0.50835 0.14432 0.66528 0.0
O312 O 0.46774 0.15648 0.53581 0.0
H313 H 0.46829 0.09583 0.51367 0.0
H314 H 0.43417 0.13234 0.50621 0.0
H315 H 0.52612 0.08676 0.63597 0.0
H316 H 0.51025 0.20947 0.63076 0.0
H317 H 0.53882 0.10476 0.68131 0.0
H318 H 0.55094 0.22427 0.62497 0.0
O319 O 0.46676 0.09753 0.6042 0.0
H320 H 0.40362 0.14205 0.58937 0.0
H321 H 0.41616 0.08587 0.54337 0.0
H322 H 0.37792 0.07619 0.55639 0.0
H323 H 0.37145 0.10442 0.57949 0.0
H324 H 0.44162 0.15096 0.57618 0.0
H325 H 0.42245 0.11798 0.45949 0.0
H326 H 0.4337 0.09202 0.4397 0.0
O327 O 0.45426 0.09596 0.56152 0.0
C328 C 0.50726 0.13266 0.55274 0.0
C329 C 0.45172 0.09218 0.47555 0.0
C330 C 0.43247 0.113 0.47126 0.0
N331 N 0.45177 0.11479 0.51271 0.0
C332 C 0.45813 0.10062 0.50192 0.0
C333 C 0.4392 0.12111 0.4977 0.0
C334 C 0.43879 0.09842 0.46017 0.0
C335 C 0.50166 0.17555 0.62198 0.0
N336 N 0.50935 0.16142 0.61526 0.0
C337 C 0.51646 0.19834 0.62557 0.0
C338 C 0.53928 0.20664 0.62227 0.0
C339 C 0.54701 0.19213 0.61547 0.0
C340 C 0.53172 0.16944 0.61201 0.0
C341 C 0.52432 0.12574 0.67623 0.0
C342 C 0.5102 0.10577 0.62565 0.0
C343 C 0.51217 0.13166 0.65879 0.0
N344 N 0.50537 0.12178 0.63379 0.0
C345 C 0.52232 0.09943 0.64255 0.0
C346 C 0.52942 0.10952 0.668 0.0
C347 C 0.45583 0.08663 0.58321 0.0
C348 C 0.40621 0.12963 0.57925 0.0
C349 C 0.4135 0.09821 0.55351 0.0
C350 C 0.3918 0.09265 0.56078 0.0
C351 C 0.38818 0.1085 0.57373 0.0
N352 N 0.43109 0.119 0.5589 0.0
C353 C 0.42768 0.1346 0.57167 0.0
Co354 Co 0.52116 0.64767 0.89331 0.0
Co355 Co 0.54847 0.67105 0.95392 0.0
O356 O 0.53909 0.67345 0.91691 0.0
C357 C 0.55794 0.67001 0.85163 0.0
O358 O 0.57102 0.66512 0.8658 0.0
C359 C 0.52598 0.69785 0.96094 0.0
O360 O 0.511 0.68478 0.94308 0.0
O361 O 0.51752 0.64782 0.9639 0.0
O362 O 0.50266 0.62956 0.92478 0.0
H363 H 0.55242 0.62994 0.03623 0.0
H364 H 0.52663 0.69171 0.87856 0.0
O365 O 0.53878 0.66526 0.86069 0.0
H366 H 0.44555 0.64164 0.88961 0.0
H367 H 0.47962 0.61029 0.80713 0.0
H368 H 0.50367 0.59893 0.89747 0.0
H369 H 0.47163 0.62748 0.89599 0.0
H370 H 0.50138 0.64223 0.83778 0.0
O371 O 0.54209 0.69478 0.96736 0.0
H372 H 0.54111 0.6334 0.9896 0.0
H373 H 0.57558 0.70403 0.99703 0.0
H374 H 0.48177 0.56649 0.86754 0.0
H375 H 0.50111 0.7065 0.87166 0.0
H376 H 0.46961 0.57208 0.822 0.0
H377 H 0.46025 0.6814 0.87729 0.0
O378 O 0.54193 0.63598 0.89947 0.0
H379 H 0.60643 0.74424 0.91405 0.0
H380 H 0.59339 0.67532 0.95998 0.0
H381 H 0.63172 0.70377 0.94714 0.0
H382 H 0.63844 0.73856 0.92408 0.0
H383 H 0.56832 0.71524 0.92704 0.0
H384 H 0.58712 0.70133 0.04381 0.0
H385 H 0.57559 0.66408 0.06367 0.0
O386 O 0.55526 0.64745 0.94176 0.0
C387 C 0.50202 0.63172 0.95052 0.0
C388 C 0.55761 0.64627 0.02778 0.0
C389 C 0.57706 0.68634 0.03204 0.0
N390 N 0.55782 0.66889 0.99053 0.0
C391 C 0.55131 0.64833 0.00136 0.0
C392 C 0.57044 0.68776 0.00556 0.0
C393 C 0.57059 0.66543 0.04317 0.0
C394 C 0.50885 0.68063 0.88077 0.0
N395 N 0.50064 0.65875 0.88762 0.0
C396 C 0.49449 0.68912 0.87695 0.0
C397 C 0.47158 0.67504 0.88016 0.0
C398 C 0.46332 0.65274 0.88711 0.0
C399 C 0.47818 0.64483 0.8908 0.0
C400 C 0.48479 0.60764 0.82694 0.0
C401 C 0.49832 0.60148 0.87775 0.0
C402 C 0.49715 0.62567 0.84438 0.0
N403 N 0.50366 0.62243 0.86948 0.0
C404 C 0.48597 0.58305 0.86087 0.0
C405 C 0.47917 0.5862 0.83531 0.0
C406 C 0.55312 0.63614 0.92025 0.0
C407 C 0.60372 0.72917 0.92414 0.0
C408 C 0.59616 0.69037 0.94983 0.0
C409 C 0.61792 0.70644 0.94268 0.0
C410 C 0.62167 0.72596 0.92975 0.0
N411 N 0.57865 0.69368 0.94436 0.0
C412 C 0.5822 0.71273 0.93161 0.0
Co413 Co 0.8775 0.5176 0.39136 0.0
Co414 Co 0.87867 0.54522 0.45118 0.0
O415 O 0.86819 0.53532 0.41355 0.0
C416 C 0.87975 0.55295 0.35243 0.0
O417 O 0.87314 0.56209 0.37092 0.0
C418 C 0.82883 0.52227 0.45574 0.0
O419 O 0.82702 0.50833 0.43645 0.0
O420 O 0.87181 0.51468 0.46207 0.0
O421 O 0.87462 0.49879 0.42354 0.0
H422 H 0.92211 0.55143 0.53603 0.0
H423 H 0.83915 0.52287 0.37307 0.0
O424 O 0.88142 0.53583 0.35777 0.0
H425 H 0.80893 0.44182 0.38151 0.0
H426 H 0.87917 0.47639 0.30745 0.0
H427 H 0.90806 0.49984 0.40077 0.0
H428 H 0.84846 0.46814 0.39173 0.0
H429 H 0.8671 0.49818 0.33524 0.0
O430 O 0.84795 0.5378 0.46335 0.0
H431 H 0.90876 0.5394 0.48905 0.0
H432 H 0.87053 0.57194 0.49272 0.0
H433 H 0.92042 0.4779 0.37377 0.0
H434 H 0.79969 0.49718 0.36223 0.0
H435 H 0.90595 0.46603 0.32675 0.0
H436 H 0.78424 0.45628 0.36649 0.0
O437 O 0.90948 0.53839 0.39994 0.0
H438 H 0.86112 0.60122 0.41008 0.0
H439 H 0.91834 0.59089 0.45705 0.0
H440 H 0.92699 0.62874 0.44373 0.0
H441 H 0.89824 0.63411 0.42015 0.0
H442 H 0.8533 0.5636 0.42341 0.0
H443 H 0.88334 0.58418 0.53981 0.0
H444 H 0.90939 0.57398 0.56174 0.0
O445 O 0.90971 0.55314 0.44076 0.0
C446 C 0.87189 0.4987 0.44922 0.0
C447 C 0.91082 0.55603 0.52667 0.0
C448 C 0.88904 0.57439 0.5288 0.0
N449 N 0.88902 0.5551 0.48808 0.0
C450 C 0.90325 0.54932 0.50005 0.0
C451 C 0.88181 0.56738 0.50215 0.0
C452 C 0.90366 0.56867 0.54109 0.0
C453 C 0.8328 0.50518 0.37451 0.0
N454 N 0.84633 0.49712 0.38263 0.0
C455 C 0.81031 0.49066 0.36855 0.0
C456 C 0.80164 0.46772 0.37102 0.0
C457 C 0.81548 0.4596 0.37946 0.0
C458 C 0.83786 0.47462 0.38528 0.0
C459 C 0.88555 0.48142 0.32793 0.0
C460 C 0.90158 0.49461 0.38039 0.0
C461 C 0.87882 0.49381 0.34375 0.0
N462 N 0.88673 0.50012 0.36969 0.0
C463 C 0.90868 0.48224 0.36517 0.0
C464 C 0.90058 0.47561 0.33878 0.0
C465 C 0.9197 0.55048 0.42049 0.0
C466 C 0.87378 0.5991 0.42038 0.0
C467 C 0.90581 0.59304 0.44656 0.0
C468 C 0.91077 0.61454 0.43919 0.0
C469 C 0.89462 0.61754 0.426 0.0
N470 N 0.88533 0.57503 0.44097 0.0
C471 C 0.86941 0.57785 0.42807 0.0
Co472 Co 0.36117 0.87549 0.893 0.0
Co473 Co 0.3364 0.87913 0.95216 0.0
O474 O 0.33492 0.86707 0.91569 0.0
C475 C 0.33605 0.88636 0.85151 0.0
O476 O 0.3379 0.90282 0.86672 0.0
C477 C 0.31125 0.83016 0.96279 0.0
O478 O 0.32754 0.82874 0.95099 0.0
O479 O 0.35968 0.87181 0.96369 0.0
O480 O 0.37926 0.87673 0.92529 0.0
H481 H 0.37496 0.92475 0.03523 0.0
H482 H 0.31799 0.83527 0.87958 0.0
O483 O 0.34361 0.87394 0.85972 0.0
H484 H 0.37092 0.80804 0.89348 0.0
H485 H 0.40079 0.87142 0.8089 0.0
H486 H 0.40948 0.90843 0.89767 0.0
H487 H 0.38342 0.84812 0.89759 0.0
H488 H 0.36817 0.86062 0.83858 0.0
O489 O 0.3122 0.84899 0.96475 0.0
H490 H 0.37295 0.90978 0.989 0.0
H491 H 0.30216 0.87314 0.99346 0.0
H492 H 0.44257 0.91961 0.86872 0.0
H493 H 0.3048 0.79505 0.87504 0.0
H494 H 0.43834 0.90106 0.82398 0.0
H495 H 0.33135 0.7812 0.88209 0.0
O496 O 0.37139 0.90785 0.89779 0.0
H497 H 0.26436 0.86355 0.90833 0.0
H498 H 0.3318 0.91968 0.95657 0.0
H499 H 0.30372 0.92944 0.94159 0.0
H500 H 0.26967 0.90124 0.91735 0.0
H501 H 0.29297 0.85456 0.92347 0.0
H502 H 0.3034 0.88757 0.03982 0.0
H503 H 0.34 0.91364 0.06096 0.0
O504 O 0.36026 0.90951 0.94035 0.0
C505 C 0.37656 0.87352 0.95094 0.0
C506 C 0.35891 0.91345 0.02621 0.0
C507 C 0.31875 0.89256 0.0288 0.0
N508 N 0.33746 0.89074 0.98848 0.0
C509 C 0.35766 0.90497 1.00001 0.0
C510 C 0.31815 0.88441 0.00257 0.0
C511 C 0.33929 0.9072 0.04064 0.0
C512 C 0.32967 0.82939 0.88247 0.0
N513 N 0.35147 0.84404 0.88876 0.0
C514 C 0.3221 0.80659 0.87996 0.0
C515 C 0.33699 0.79882 0.88395 0.0
C516 C 0.35919 0.81387 0.89036 0.0
C517 C 0.36617 0.83655 0.89274 0.0
C518 C 0.40286 0.8796 0.82838 0.0
C519 C 0.40752 0.90019 0.8783 0.0
C520 C 0.38444 0.87359 0.84525 0.0
N521 N 0.38694 0.88378 0.86993 0.0
C522 C 0.42631 0.90663 0.86196 0.0
C523 C 0.42392 0.89622 0.83685 0.0
C524 C 0.37122 0.91881 0.91866 0.0
C525 C 0.2791 0.87597 0.91893 0.0
C526 C 0.31708 0.90735 0.94593 0.0
C527 C 0.30121 0.91295 0.93756 0.0
C528 C 0.2821 0.89712 0.92397 0.0
N529 N 0.31398 0.88653 0.94099 0.0
C530 C 0.29532 0.87095 0.92761 0.0
Co531 Co 0.4883 0.35785 0.39187 0.0
Co532 Co 0.46121 0.33459 0.45257 0.0
O533 O 0.47052 0.33213 0.41556 0.0
C534 C 0.45137 0.33497 0.35053 0.0
O535 O 0.43819 0.3397 0.36473 0.0
C536 C 0.4838 0.30793 0.45953 0.0
O537 O 0.49877 0.32104 0.44169 0.0
O538 O 0.49217 0.35787 0.46242 0.0
O539 O 0.50678 0.37614 0.42324 0.0
H540 H 0.45738 0.37581 0.53488 0.0
H541 H 0.48308 0.31387 0.37731 0.0
O542 O 0.47068 0.34009 0.3594 0.0
H543 H 0.56411 0.36436 0.3881 0.0
H544 H 0.52957 0.39504 0.30548 0.0
H545 H 0.50557 0.40658 0.39578 0.0
H546 H 0.53786 0.37831 0.39444 0.0
H547 H 0.50799 0.36318 0.3363 0.0
O548 O 0.46765 0.31092 0.46598 0.0
H549 H 0.46861 0.37229 0.48821 0.0
H550 H 0.43421 0.30168 0.49577 0.0
H551 H 0.5273 0.43893 0.36569 0.0
H552 H 0.50878 0.29929 0.37044 0.0
H553 H 0.53945 0.43326 0.32017 0.0
H554 H 0.5496 0.32459 0.37594 0.0
O555 O 0.4674 0.36941 0.39798 0.0
H556 H 0.40322 0.26133 0.41288 0.0
H557 H 0.41628 0.33028 0.45876 0.0
H558 H 0.37794 0.3018 0.44601 0.0
H559 H 0.37121 0.26699 0.42298 0.0
H560 H 0.44134 0.29035 0.42577 0.0
H561 H 0.42276 0.30443 0.54259 0.0
H562 H 0.43429 0.34171 0.5624 0.0
O563 O 0.45438 0.35815 0.44043 0.0
C564 C 0.50754 0.37402 0.44897 0.0
C565 C 0.45219 0.35947 0.52644 0.0
C566 C 0.43278 0.31941 0.53079 0.0
N567 N 0.45193 0.3368 0.48921 0.0
C568 C 0.45844 0.35737 0.50001 0.0
C569 C 0.43936 0.31796 0.50429 0.0
C570 C 0.43926 0.34033 0.54188 0.0
C571 C 0.50084 0.32504 0.37946 0.0
N572 N 0.50895 0.34693 0.38622 0.0
C573 C 0.5153 0.31666 0.37567 0.0
C574 C 0.53821 0.33086 0.3788 0.0
C575 C 0.54635 0.35317 0.38566 0.0
C576 C 0.5314 0.36096 0.38933 0.0
C577 C 0.52442 0.39773 0.32529 0.0
C578 C 0.51091 0.40399 0.37607 0.0
C579 C 0.51215 0.37975 0.34281 0.0
N580 N 0.50565 0.38304 0.36791 0.0
C581 C 0.52316 0.42237 0.35909 0.0
C582 C 0.52995 0.41917 0.33354 0.0
C583 C 0.45636 0.36935 0.41887 0.0
C584 C 0.40594 0.2764 0.42296 0.0
C585 C 0.4135 0.31523 0.44862 0.0
C586 C 0.39175 0.29913 0.44152 0.0
C587 C 0.38798 0.2796 0.42861 0.0
N588 N 0.43101 0.31192 0.44311 0.0
C589 C 0.42747 0.29286 0.43038 0.0
Co590 Co 0.13078 0.48477 0.8932 0.0
Co591 Co 0.12881 0.45985 0.95535 0.0
O592 O 0.13926 0.46768 0.91753 0.0
C593 C 0.11139 0.45388 0.84633 0.0
O594 O 0.09258 0.4534 0.85178 0.0
C595 C 0.1785 0.48244 0.95993 0.0
O596 O 0.18021 0.49615 0.94038 0.0
O597 O 0.13646 0.4911 0.96341 0.0
O598 O 0.1333 0.50519 0.92349 0.0
H599 H 0.08631 0.4591 0.03882 0.0
H600 H 0.16766 0.47715 0.87659 0.0
O601 O 0.12829 0.46468 0.8619 0.0
H602 H 0.20136 0.55891 0.8823 0.0
H603 H 0.13268 0.52351 0.80534 0.0
H604 H 0.10017 0.50299 0.89755 0.0
H605 H 0.16136 0.53417 0.89207 0.0
H606 H 0.14346 0.5025 0.83644 0.0
O607 O 0.15939 0.46709 0.96787 0.0
H608 H 0.09948 0.46844 0.99131 0.0
H609 H 0.13644 0.43486 0.99974 0.0
H610 H 0.089 0.5241 0.86715 0.0
H611 H 0.20767 0.50129 0.86628 0.0
H612 H 0.10528 0.53449 0.82066 0.0
H613 H 0.22479 0.54249 0.86921 0.0
O614 O 0.09863 0.46497 0.90222 0.0
H615 H 0.14374 0.4008 0.9185 0.0
H616 H 0.08879 0.41499 0.96488 0.0
H617 H 0.07904 0.37627 0.95454 0.0
H618 H 0.10666 0.36897 0.93127 0.0
H619 H 0.1527 0.43929 0.92901 0.0
H620 H 0.12382 0.42532 0.0474 0.0
H621 H 0.0985 0.43739 0.0672 0.0
O622 O 0.09792 0.45213 0.94442 0.0
C623 C 0.13628 0.50647 0.94923 0.0
C624 C 0.09728 0.45368 0.0304 0.0
C625 C 0.11836 0.43475 0.03522 0.0
N626 N 0.11857 0.45205 0.9927 0.0
C627 C 0.10474 0.45886 0.00349 0.0
C628 C 0.12549 0.44024 0.00824 0.0
C629 C 0.10415 0.44152 0.04632 0.0
C630 C 0.17492 0.49506 0.8776 0.0
N631 N 0.16215 0.50422 0.88481 0.0
C632 C 0.19762 0.50865 0.87188 0.0
C633 C 0.20722 0.53176 0.87358 0.0
C634 C 0.19409 0.54098 0.88095 0.0
C635 C 0.17146 0.52688 0.88656 0.0
C636 C 0.12549 0.51911 0.82556 0.0
C637 C 0.10739 0.50752 0.87739 0.0
C638 C 0.13152 0.50721 0.84326 0.0
N639 N 0.12251 0.50159 0.86883 0.0
C640 C 0.10098 0.51944 0.86025 0.0
C641 C 0.11011 0.52526 0.83417 0.0
C642 C 0.08818 0.45409 0.9234 0.0
C643 C 0.13158 0.40376 0.9287 0.0
C644 C 0.10084 0.41197 0.95461 0.0
C645 C 0.09526 0.39 0.94888 0.0
C646 C 0.11077 0.38591 0.93584 0.0
N647 N 0.12133 0.42938 0.94764 0.0
C648 C 0.13659 0.42551 0.93476 0.0
Co649 Co 0.65099 0.13263 0.39394 0.0
Co650 Co 0.67429 0.12846 0.45441 0.0
O651 O 0.67674 0.14062 0.41761 0.0
C652 C 0.67527 0.12006 0.35302 0.0
O653 O 0.67235 0.10316 0.36819 0.0
C654 C 0.70085 0.17768 0.46228 0.0
O655 O 0.68781 0.17974 0.44453 0.0
O656 O 0.65083 0.13583 0.46465 0.0
O657 O 0.63255 0.13216 0.42549 0.0
H658 H 0.6331 0.08229 0.53603 0.0
H659 H 0.69472 0.17191 0.37987 0.0
O660 O 0.6688 0.13337 0.36126 0.0
H661 H 0.64344 0.20137 0.39187 0.0
H662 H 0.61344 0.13723 0.30815 0.0
H663 H 0.60237 0.10062 0.39764 0.0
H664 H 0.62995 0.16119 0.39737 0.0
H665 H 0.64539 0.1475 0.3388 0.0
O666 O 0.69784 0.15846 0.46832 0.0
H667 H 0.6366 0.0976 0.4897 0.0
H668 H 0.7072 0.13403 0.49744 0.0
H669 H 0.56993 0.08999 0.36771 0.0
H670 H 0.70885 0.21218 0.37383 0.0
H671 H 0.57536 0.10834 0.32259 0.0
H672 H 0.68315 0.22717 0.37995 0.0
O673 O 0.63986 0.10016 0.3993 0.0
H674 H 0.74769 0.14457 0.4143 0.0
H675 H 0.67883 0.08791 0.45961 0.0
H676 H 0.70743 0.07838 0.44628 0.0
H677 H 0.7422 0.10684 0.42353 0.0
H678 H 0.71855 0.15334 0.42777 0.0
H679 H 0.70446 0.11926 0.54393 0.0
H680 H 0.6672 0.09312 0.56348 0.0
O681 O 0.65086 0.09816 0.4418 0.0
C682 C 0.63457 0.13485 0.45124 0.0
C683 C 0.64943 0.09361 0.52771 0.0
C684 C 0.68948 0.11438 0.53215 0.0
N685 N 0.67208 0.11655 0.49081 0.0
C686 C 0.65152 0.10228 0.50147 0.0
C687 C 0.69093 0.12273 0.50584 0.0
C688 C 0.66857 0.09971 0.54311 0.0
C689 C 0.68338 0.17827 0.3823 0.0
N690 N 0.66153 0.16419 0.38894 0.0
C691 C 0.6915 0.20111 0.37897 0.0
C692 C 0.67708 0.20951 0.38245 0.0
C693 C 0.6548 0.19505 0.38917 0.0
C694 C 0.64728 0.17231 0.39238 0.0
C695 C 0.61085 0.12914 0.32777 0.0
C696 C 0.60486 0.10878 0.37811 0.0
C697 C 0.62889 0.13485 0.3452 0.0
N698 N 0.62574 0.12478 0.37008 0.0
C699 C 0.58643 0.10265 0.36122 0.0
C700 C 0.58949 0.11293 0.3359 0.0
C701 C 0.63988 0.08905 0.42007 0.0
C702 C 0.73264 0.13205 0.42427 0.0
C703 C 0.69387 0.10036 0.44961 0.0
C704 C 0.71003 0.09488 0.44218 0.0
C705 C 0.72954 0.11086 0.42942 0.0
N706 N 0.69708 0.1212 0.44458 0.0
C707 C 0.71612 0.13693 0.43201 0.0
Co708 Co 0.64548 0.51803 0.89008 0.0
Co709 Co 0.67307 0.54699 0.94838 0.0
O710 O 0.67287 0.53624 0.91116 0.0
C711 C 0.67766 0.55209 0.849 0.0
O712 O 0.69357 0.56277 0.86696 0.0
C713 C 0.69778 0.52235 0.95732 0.0
O714 O 0.68102 0.50457 0.94628 0.0
O715 O 0.64983 0.51662 0.96083 0.0
O716 O 0.63 0.50043 0.9231 0.0
H717 H 0.6383 0.55508 0.03446 0.0
H718 H 0.68877 0.52259 0.87244 0.0
O719 O 0.65932 0.53487 0.8556 0.0
H720 H 0.63779 0.44182 0.88408 0.0
H721 H 0.60088 0.47415 0.80843 0.0
H722 H 0.59742 0.50115 0.90039 0.0
H723 H 0.62467 0.4685 0.89234 0.0
H724 H 0.63529 0.4966 0.83505 0.0
O725 O 0.69724 0.54046 0.95915 0.0
H726 H 0.63824 0.54187 0.98771 0.0
H727 H 0.7091 0.57493 0.98803 0.0
H728 H 0.56259 0.47857 0.87458 0.0
H729 H 0.70252 0.49651 0.86368 0.0
H730 H 0.5642 0.46492 0.82824 0.0
H731 H 0.67697 0.45577 0.86953 0.0
O732 O 0.6348 0.53942 0.89772 0.0
H733 H 0.74507 0.60277 0.90378 0.0
H734 H 0.6784 0.59245 0.95302 0.0
H735 H 0.70677 0.63014 0.93799 0.0
H736 H 0.74045 0.6355 0.91326 0.0
H737 H 0.71611 0.5653 0.91881 0.0
H738 H 0.70991 0.58836 0.03485 0.0
H739 H 0.67434 0.5785 0.05834 0.0
O740 O 0.64924 0.55413 0.93863 0.0
C741 C 0.63322 0.50064 0.94866 0.0
C742 C 0.65392 0.55954 0.02441 0.0
C743 C 0.69411 0.57819 0.02464 0.0
N744 N 0.67364 0.55775 0.98508 0.0
C745 C 0.65399 0.55216 0.99791 0.0
C746 C 0.69354 0.5705 0.99814 0.0
C747 C 0.67414 0.57266 0.0378 0.0
C748 C 0.67744 0.50492 0.87467 0.0
N749 N 0.65583 0.49713 0.8825 0.0
C750 C 0.68537 0.49021 0.86984 0.0
C751 C 0.67105 0.46736 0.87318 0.0
C752 C 0.64907 0.45953 0.88134 0.0
C753 C 0.64174 0.47473 0.88602 0.0
C754 C 0.59996 0.47997 0.82863 0.0
C755 C 0.59824 0.49514 0.88032 0.0
C756 C 0.61939 0.49272 0.84378 0.0
N757 N 0.61835 0.50003 0.86936 0.0
C758 C 0.57847 0.48242 0.86576 0.0
C759 C 0.57938 0.47478 0.83976 0.0
C760 C 0.63663 0.55149 0.91832 0.0
C761 C 0.73048 0.60065 0.91455 0.0
C762 C 0.69288 0.59459 0.94202 0.0
C763 C 0.70896 0.616 0.93368 0.0
C764 C 0.72786 0.619 0.91985 0.0
N765 N 0.69556 0.57666 0.93672 0.0
C766 C 0.71406 0.57948 0.92321 0.0
Co767 Co 0.13067 0.6449 0.39256 0.0
Co768 Co 0.12804 0.67161 0.45105 0.0
O769 O 0.13899 0.67196 0.4139 0.0
C770 C 0.1281 0.67688 0.35178 0.0
O771 O 0.13382 0.69301 0.36955 0.0
C772 C 0.17733 0.69708 0.45982 0.0
O773 O 0.17869 0.68065 0.44834 0.0
O774 O 0.13564 0.64866 0.46338 0.0
O775 O 0.13334 0.62961 0.42539 0.0
H776 H 0.08483 0.6357 0.53653 0.0
H777 H 0.16879 0.68896 0.37556 0.0
O778 O 0.12708 0.65857 0.35833 0.0
H779 H 0.20048 0.63952 0.38606 0.0
H780 H 0.13143 0.60162 0.3103 0.0
H781 H 0.10067 0.59655 0.40245 0.0
H782 H 0.16048 0.62533 0.39431 0.0
H783 H 0.14243 0.63564 0.33732 0.0
O784 O 0.15849 0.69605 0.46214 0.0
H785 H 0.09843 0.63625 0.48987 0.0
H786 H 0.13525 0.70713 0.49105 0.0
H787 H 0.08938 0.56209 0.37622 0.0
H788 H 0.20878 0.70376 0.36682 0.0
H789 H 0.10479 0.5645 0.32979 0.0
H790 H 0.22494 0.67899 0.37209 0.0
O791 O 0.09845 0.63326 0.40016 0.0
H792 H 0.14323 0.74349 0.40704 0.0
H793 H 0.08739 0.67607 0.45553 0.0
H794 H 0.07749 0.70405 0.44064 0.0
H795 H 0.10554 0.73811 0.41629 0.0
H796 H 0.15233 0.71491 0.42193 0.0
H797 H 0.12218 0.70734 0.5378 0.0
H798 H 0.09672 0.67144 0.56081 0.0
O799 O 0.09731 0.64749 0.44088 0.0
C800 C 0.13586 0.63254 0.45103 0.0
C801 C 0.09587 0.65145 0.52669 0.0
C802 C 0.11686 0.69166 0.52741 0.0
N803 N 0.11749 0.6717 0.48768 0.0
C804 C 0.10357 0.65187 0.50025 0.0
C805 C 0.12424 0.69143 0.50097 0.0
C806 C 0.10256 0.67151 0.54031 0.0
C807 C 0.17552 0.67795 0.37751 0.0
N808 N 0.16212 0.65618 0.38499 0.0
C809 C 0.19827 0.68648 0.3727 0.0
C810 C 0.20733 0.6726 0.37572 0.0
C811 C 0.19362 0.65045 0.38356 0.0
C812 C 0.17096 0.64252 0.38822 0.0
C813 C 0.12464 0.60035 0.33053 0.0
C814 C 0.10758 0.59773 0.38234 0.0
C815 C 0.13077 0.61956 0.34591 0.0
N816 N 0.12235 0.61807 0.37155 0.0
C817 C 0.10107 0.57816 0.36755 0.0
C818 C 0.1097 0.57953 0.34149 0.0
C819 C 0.08779 0.63478 0.42048 0.0
C820 C 0.13087 0.72873 0.41765 0.0
C821 C 0.09962 0.69072 0.44469 0.0
C822 C 0.09395 0.70657 0.43644 0.0
C823 C 0.10971 0.72569 0.42281 0.0
N824 N 0.12041 0.69381 0.43953 0.0
C825 C 0.13595 0.71253 0.42622 0.0
Co826 Co 0.48972 0.13035 0.89138 0.0
Co827 Co 0.46071 0.12666 0.95005 0.0
O828 O 0.4717 0.13875 0.91371 0.0
C829 C 0.45353 0.11973 0.85052 0.0
O830 O 0.43884 0.10418 0.86666 0.0
C831 C 0.48476 0.1756 0.96076 0.0
O832 O 0.50246 0.17688 0.94911 0.0
O833 O 0.49111 0.13372 0.96207 0.0
O834 O 0.50642 0.12926 0.92394 0.0
H835 H 0.45257 0.08082 0.03326 0.0
H836 H 0.48667 0.17042 0.87739 0.0
O837 O 0.47382 0.13167 0.8579 0.0
H838 H 0.56679 0.19801 0.89239 0.0
H839 H 0.53401 0.13444 0.80788 0.0
H840 H 0.50523 0.09756 0.8966 0.0
H841 H 0.5393 0.1579 0.89652 0.0
H842 H 0.5119 0.14516 0.83714 0.0
O843 O 0.46677 0.15685 0.9626 0.0
H844 H 0.46599 0.09578 0.98715 0.0
H845 H 0.43221 0.13281 0.9908 0.0
H846 H 0.52743 0.08645 0.86808 0.0
H847 H 0.51362 0.21066 0.87283 0.0
H848 H 0.54199 0.10494 0.82336 0.0
H849 H 0.55399 0.22469 0.88042 0.0
O850 O 0.46763 0.09797 0.89613 0.0
H851 H 0.40507 0.14289 0.90515 0.0
H852 H 0.41536 0.08631 0.95383 0.0
H853 H 0.37776 0.07687 0.93822 0.0
H854 H 0.37242 0.10529 0.91375 0.0
H855 H 0.44243 0.15157 0.92092 0.0
H856 H 0.41855 0.11838 0.03704 0.0
H857 H 0.42867 0.09212 0.05853 0.0
O858 O 0.45408 0.09623 0.93827 0.0
C859 C 0.50651 0.1322 0.94961 0.0
C860 C 0.44799 0.09219 0.02409 0.0
C861 C 0.42893 0.1133 0.02622 0.0
N862 N 0.44975 0.11501 0.98623 0.0
C863 C 0.45549 0.10067 0.99796 0.0
C864 C 0.43675 0.12145 1.00006 0.0
C865 C 0.4346 0.09856 0.03826 0.0
C866 C 0.50423 0.17638 0.88052 0.0
N867 N 0.5114 0.16181 0.88712 0.0
C868 C 0.51941 0.19919 0.878 0.0
C869 C 0.54205 0.20706 0.88229 0.0
C870 C 0.54924 0.1921 0.88903 0.0
C871 C 0.53359 0.1694 0.8914 0.0
C872 C 0.5278 0.12629 0.82735 0.0
C873 C 0.51162 0.10578 0.87724 0.0
C874 C 0.51523 0.13226 0.84398 0.0
N875 N 0.50742 0.12211 0.86865 0.0
C876 C 0.52413 0.09938 0.86115 0.0
C877 C 0.53227 0.10974 0.83605 0.0
C878 C 0.45612 0.08698 0.91676 0.0
C879 C 0.40718 0.13038 0.91584 0.0
C880 C 0.4132 0.09874 0.9431 0.0
C881 C 0.39185 0.09331 0.93437 0.0
C882 C 0.38887 0.10927 0.92065 0.0
N883 N 0.43106 0.11951 0.93839 0.0
C884 C 0.42828 0.13522 0.92489 0.0
Co885 Co 0.3642 0.48783 0.39046 0.0
Co886 Co 0.33791 0.45975 0.45003 0.0
O887 O 0.33722 0.46973 0.4125 0.0
C888 C 0.33176 0.45246 0.35065 0.0
O889 O 0.31599 0.44214 0.36889 0.0
C890 C 0.31149 0.483 0.45509 0.0
O891 O 0.32417 0.49729 0.43638 0.0
O892 O 0.36156 0.49027 0.46124 0.0
O893 O 0.37998 0.50649 0.42273 0.0
H894 H 0.3752 0.45309 0.53457 0.0
H895 H 0.32043 0.48194 0.37233 0.0
O896 O 0.35008 0.46992 0.35671 0.0
H897 H 0.37014 0.56314 0.38163 0.0
H898 H 0.40693 0.52998 0.30693 0.0
H899 H 0.41258 0.50595 0.39983 0.0
H900 H 0.38401 0.53726 0.39131 0.0
H901 H 0.3731 0.50771 0.33458 0.0
O902 O 0.3146 0.46708 0.46231 0.0
H903 H 0.37385 0.46537 0.48774 0.0
H904 H 0.30309 0.43285 0.4915 0.0
H905 H 0.44685 0.52838 0.37297 0.0
H906 H 0.30598 0.50719 0.36203 0.0
H907 H 0.44415 0.54054 0.32615 0.0
H908 H 0.33087 0.54815 0.36675 0.0
O909 O 0.37568 0.46717 0.39868 0.0
H910 H 0.26453 0.40386 0.40847 0.0
H911 H 0.33203 0.41411 0.45552 0.0
H912 H 0.30292 0.3763 0.44187 0.0
H913 H 0.26883 0.37097 0.41825 0.0
H914 H 0.29422 0.44144 0.42215 0.0
H915 H 0.30369 0.42036 0.53844 0.0
H916 H 0.33993 0.43042 0.56025 0.0
O917 O 0.36109 0.452 0.43934 0.0
C918 C 0.37746 0.50643 0.44843 0.0
C919 C 0.3593 0.44854 0.52526 0.0
C920 C 0.31916 0.4302 0.52745 0.0
N921 N 0.33842 0.4497 0.48683 0.0
C922 C 0.35843 0.4554 0.49873 0.0
C923 C 0.31894 0.43736 0.50088 0.0
C924 C 0.33951 0.43584 0.53967 0.0
C925 C 0.3315 0.49969 0.37399 0.0
N926 N 0.35314 0.50804 0.38207 0.0
C927 C 0.32316 0.51394 0.36833 0.0
C928 C 0.33712 0.53691 0.37104 0.0
C929 C 0.35914 0.54533 0.37941 0.0
C930 C 0.36688 0.53056 0.38493 0.0
C931 C 0.40833 0.52482 0.32732 0.0
C932 C 0.41128 0.51131 0.37954 0.0
C933 C 0.38923 0.51217 0.34306 0.0
N934 N 0.39088 0.50569 0.36889 0.0
C935 C 0.43074 0.52395 0.3644 0.0
C936 C 0.4292 0.53074 0.33813 0.0
C937 C 0.37378 0.45488 0.41904 0.0
C938 C 0.27929 0.40596 0.41879 0.0
C939 C 0.31734 0.41197 0.44504 0.0
C940 C 0.30086 0.3905 0.43747 0.0
C941 C 0.28173 0.38752 0.42425 0.0
N942 N 0.31483 0.42998 0.43962 0.0
C943 C 0.29611 0.42718 0.42668 0.0
Co944 Co 0.87748 0.36153 0.89254 0.0
Co945 Co 0.87964 0.33464 0.9511 0.0
O946 O 0.86896 0.33439 0.91382 0.0
C947 C 0.88058 0.32981 0.8518 0.0
O948 O 0.87554 0.31396 0.86979 0.0
C949 C 0.83027 0.30893 0.95976 0.0
O950 O 0.82878 0.32539 0.94859 0.0
O951 O 0.87188 0.35751 0.96335 0.0
O952 O 0.8747 0.37677 0.92537 0.0
H953 H 0.92222 0.37036 0.03702 0.0
H954 H 0.83957 0.31762 0.87502 0.0
O955 O 0.88113 0.34791 0.85826 0.0
H956 H 0.80767 0.36689 0.88561 0.0
H957 H 0.87714 0.40512 0.8104 0.0
H958 H 0.90754 0.40982 0.90268 0.0
H959 H 0.84763 0.38109 0.8942 0.0
H960 H 0.86597 0.371 0.83727 0.0
O961 O 0.84916 0.31006 0.96189 0.0
H962 H 0.90889 0.36992 0.99024 0.0
H963 H 0.87229 0.29903 0.99102 0.0
H964 H 0.91899 0.44438 0.87661 0.0
H965 H 0.79961 0.3028 0.86594 0.0
H966 H 0.90377 0.44215 0.83011 0.0
H967 H 0.78335 0.32748 0.87126 0.0
O968 O 0.90967 0.37307 0.90039 0.0
H969 H 0.865 0.26298 0.90695 0.0
H970 H 0.92036 0.33033 0.95598 0.0
H971 H 0.93049 0.30249 0.94118 0.0
H972 H 0.90268 0.26847 0.91656 0.0
H973 H 0.85568 0.29142 0.92174 0.0
H974 H 0.88509 0.29871 0.03787 0.0
H975 H 0.91031 0.33457 0.06115 0.0
O976 O 0.9104 0.35886 0.94128 0.0
C977 C 0.87192 0.37376 0.95098 0.0
C978 C 0.91129 0.35463 0.02707 0.0
C979 C 0.89043 0.31442 0.02756 0.0
N980 N 0.88995 0.33447 0.98785 0.0
C981 C 0.90373 0.35427 1.00056 0.0
C982 C 0.88319 0.3147 1.00104 0.0
C983 C 0.90458 0.33454 0.0406 0.0
C984 C 0.83278 0.32858 0.87703 0.0
N985 N 0.84609 0.35031 0.88474 0.0
C986 C 0.81006 0.32004 0.87201 0.0
C987 C 0.80094 0.33388 0.87505 0.0
C988 C 0.81456 0.35598 0.88311 0.0
C989 C 0.8372 0.36393 0.88798 0.0
C990 C 0.88386 0.40631 0.83067 0.0
C991 C 0.90072 0.40873 0.88254 0.0
C992 C 0.87763 0.38704 0.84596 0.0
N993 N 0.88595 0.38843 0.87163 0.0
C994 C 0.90732 0.42835 0.86784 0.0
C995 C 0.89879 0.42708 0.84174 0.0
C996 C 0.92012 0.37155 0.92094 0.0
C997 C 0.87726 0.27772 0.91768 0.0
C998 C 0.90823 0.3157 0.94502 0.0
C999 C 0.91403 0.29993 0.93682 0.0
C1000 C 0.89841 0.28083 0.92304 0.0
N1001 N 0.88746 0.31255 0.93966 0.0
C1002 C 0.87205 0.29385 0.9262 0.0
Co1003 Co 0.52311 0.87791 0.3927 0.0
Co1004 Co 0.54938 0.88074 0.45374 0.0
O1005 O 0.5403 0.8693 0.41656 0.0
C1006 C 0.56002 0.89173 0.35131 0.0
O1007 O 0.57312 0.90989 0.36517 0.0
C1008 C 0.52637 0.83136 0.46027 0.0
O1009 O 0.51167 0.82965 0.44212 0.0
O1010 O 0.51844 0.87336 0.46318 0.0
O1011 O 0.50456 0.87794 0.4239 0.0
H1012 H 0.55304 0.92547 0.5363 0.0
H1013 H 0.52747 0.83865 0.37808 0.0
O1014 O 0.5408 0.87752 0.36041 0.0
H1015 H 0.44661 0.80964 0.38778 0.0
H1016 H 0.48296 0.87528 0.30588 0.0
H1017 H 0.50669 0.91006 0.3966 0.0
H1018 H 0.47344 0.84964 0.39457 0.0
H1019 H 0.50383 0.86422 0.33684 0.0
O1020 O 0.5425 0.85045 0.46697 0.0
H1021 H 0.54208 0.91107 0.48947 0.0
H1022 H 0.57577 0.87416 0.4972 0.0
H1023 H 0.48567 0.92146 0.36636 0.0
H1024 H 0.50119 0.79856 0.37075 0.0
H1025 H 0.47367 0.90403 0.32062 0.0
H1026 H 0.46044 0.7838 0.37571 0.0
O1027 O 0.54447 0.91022 0.39916 0.0
H1028 H 0.60712 0.86489 0.41452 0.0
H1029 H 0.5945 0.92099 0.46063 0.0
H1030 H 0.63282 0.9305 0.4483 0.0
H1031 H 0.63933 0.90231 0.42515 0.0
H1032 H 0.56903 0.85615 0.42701 0.0
H1033 H 0.58694 0.88802 0.54419 0.0
H1034 H 0.57563 0.91394 0.564 0.0
O1035 O 0.5567 0.91133 0.44187 0.0
C1036 C 0.50343 0.87468 0.44958 0.0
C1037 C 0.55813 0.91424 0.52787 0.0
C1038 C 0.57713 0.8932 0.53231 0.0
N1039 N 0.55842 0.89194 0.49054 0.0
C1040 C 0.55203 0.90608 0.50134 0.0
C1041 C 0.57072 0.88537 0.50571 0.0
C1042 C 0.57079 0.90775 0.54341 0.0
C1043 C 0.50975 0.8324 0.38 0.0
N1044 N 0.50202 0.84649 0.38671 0.0
C1045 C 0.49495 0.80966 0.37594 0.0
C1046 C 0.4721 0.80138 0.37878 0.0
C1047 C 0.46433 0.81587 0.38558 0.0
C1048 C 0.47961 0.8385 0.38952 0.0
C1049 C 0.48807 0.88296 0.32577 0.0
C1050 C 0.50141 0.90229 0.3768 0.0
C1051 C 0.49993 0.87681 0.34338 0.0
N1052 N 0.50635 0.88638 0.36859 0.0
C1053 C 0.48956 0.90886 0.35973 0.0
C1054 C 0.48285 0.89909 0.33406 0.0
C1055 C 0.5553 0.92089 0.42031 0.0
C1056 C 0.6045 0.87729 0.42466 0.0
C1057 C 0.59718 0.90867 0.45045 0.0
C1058 C 0.61893 0.91413 0.44358 0.0
C1059 C 0.62257 0.8983 0.43061 0.0
N1060 N 0.57956 0.88799 0.44465 0.0
C1061 C 0.58299 0.87241 0.43185 0.0
Co1062 Co 0.49034 0.36078 0.11013 0.0
Co1063 Co 0.46178 0.33562 0.0512 0.0
O1064 O 0.47227 0.33437 0.08779 0.0
C1065 C 0.45368 0.33541 0.15046 0.0
O1066 O 0.43917 0.3361 0.1338 0.0
C1067 C 0.48495 0.30971 0.04104 0.0
O1068 O 0.50292 0.32596 0.05245 0.0
O1069 O 0.49253 0.35846 0.03955 0.0
O1070 O 0.50745 0.37838 0.07766 0.0
H1071 H 0.45557 0.37371 0.96717 0.0
H1072 H 0.48662 0.31744 0.12457 0.0
O1073 O 0.47406 0.34376 0.14353 0.0
H1074 H 0.56703 0.36924 0.11052 0.0
H1075 H 0.53418 0.40089 0.19392 0.0
H1076 H 0.50639 0.40917 0.10457 0.0
H1077 H 0.53993 0.38229 0.10568 0.0
H1078 H 0.51205 0.36805 0.16467 0.0
O1079 O 0.46723 0.31098 0.03919 0.0
H1080 H 0.46831 0.37197 0.01361 0.0
H1081 H 0.43317 0.30112 0.01035 0.0
H1082 H 0.52862 0.44247 0.13308 0.0
H1083 H 0.51318 0.30373 0.12984 0.0
H1084 H 0.54267 0.43844 0.17811 0.0
H1085 H 0.5537 0.3297 0.12274 0.0
O1086 O 0.46857 0.37139 0.10482 0.0
H1087 H 0.40463 0.26447 0.09608 0.0
H1088 H 0.4169 0.33163 0.04634 0.0
H1089 H 0.37893 0.30413 0.06156 0.0
H1090 H 0.37259 0.27022 0.08656 0.0
H1091 H 0.44238 0.29251 0.08068 0.0
H1092 H 0.42018 0.3021 0.96378 0.0
H1093 H 0.43132 0.33859 0.94194 0.0
O1094 O 0.45568 0.35991 0.06239 0.0
C1095 C 0.50788 0.37534 0.05209 0.0
C1096 C 0.45054 0.35771 0.9765 0.0
C1097 C 0.43071 0.31752 0.97459 0.0
N1098 N 0.45136 0.33647 0.01474 0.0
C1099 C 0.45766 0.35662 0.00282 0.0
C1100 C 0.43816 0.31707 1.00093 0.0
C1101 C 0.43696 0.338 0.96234 0.0
C1102 C 0.50425 0.32888 0.12164 0.0
N1103 N 0.51172 0.35066 0.11492 0.0
C1104 C 0.5192 0.321 0.12457 0.0
C1105 C 0.54193 0.33558 0.12055 0.0
C1106 C 0.54942 0.35776 0.11368 0.0
C1107 C 0.53398 0.36504 0.11089 0.0
C1108 C 0.52819 0.40286 0.17431 0.0
C1109 C 0.51256 0.4073 0.12407 0.0
C1110 C 0.51561 0.38433 0.15768 0.0
N1111 N 0.50808 0.38671 0.13284 0.0
C1112 C 0.52509 0.42621 0.14015 0.0
C1113 C 0.53295 0.42393 0.16543 0.0
C1114 C 0.45751 0.37116 0.08385 0.0
C1115 C 0.40717 0.27915 0.08515 0.0
C1116 C 0.41431 0.31698 0.05731 0.0
C1117 C 0.39275 0.30143 0.06581 0.0
C1118 C 0.3892 0.2824 0.07983 0.0
N1119 N 0.43183 0.31363 0.06253 0.0
C1120 C 0.42849 0.29505 0.07632 0.0
Co1121 Co 0.13466 0.48826 0.60903 0.0
Co1122 Co 0.13132 0.46108 0.54855 0.0
O1123 O 0.14294 0.47055 0.58561 0.0
C1124 C 0.1218 0.45053 0.64832 0.0
O1125 O 0.10648 0.43665 0.6313 0.0
C1126 C 0.18064 0.48373 0.54146 0.0
O1127 O 0.18262 0.49871 0.55937 0.0
O1128 O 0.13892 0.49197 0.53845 0.0
O1129 O 0.13487 0.50653 0.57746 0.0
H1130 H 0.08638 0.45672 0.46592 0.0
H1131 H 0.17349 0.48339 0.62417 0.0
O1132 O 0.13463 0.47087 0.64175 0.0
H1133 H 0.20366 0.56429 0.6127 0.0
H1134 H 0.13804 0.52989 0.69484 0.0
H1135 H 0.10292 0.50514 0.60445 0.0
H1136 H 0.16353 0.53784 0.60622 0.0
H1137 H 0.14867 0.50829 0.66451 0.0
O1138 O 0.16145 0.46755 0.53523 0.0
H1139 H 0.10105 0.46824 0.51255 0.0
H1140 H 0.13738 0.4339 0.50571 0.0
H1141 H 0.09194 0.52686 0.63405 0.0
H1142 H 0.21372 0.50929 0.63118 0.0
H1143 H 0.10955 0.53939 0.67961 0.0
H1144 H 0.22906 0.55006 0.62533 0.0
O1145 O 0.10219 0.46707 0.60287 0.0
H1146 H 0.14674 0.4035 0.58917 0.0
H1147 H 0.09081 0.41603 0.5425 0.0
H1148 H 0.08103 0.37781 0.55572 0.0
H1149 H 0.10913 0.37134 0.57916 0.0
H1150 H 0.15575 0.44149 0.57579 0.0
H1151 H 0.12325 0.42217 0.45892 0.0
H1152 H 0.09749 0.43352 0.43877 0.0
O1153 O 0.10088 0.45418 0.56046 0.0
C1154 C 0.13793 0.50729 0.55178 0.0
C1155 C 0.09754 0.45161 0.4745 0.0
C1156 C 0.11826 0.43224 0.47056 0.0
N1157 N 0.11991 0.45161 0.51191 0.0
C1158 C 0.10585 0.45803 0.50092 0.0
C1159 C 0.12624 0.43897 0.49704 0.0
C1160 C 0.1038 0.43861 0.45927 0.0
C1161 C 0.18001 0.50113 0.62186 0.0
N1162 N 0.16616 0.50908 0.61483 0.0
C1163 C 0.20281 0.5157 0.62574 0.0
C1164 C 0.21142 0.53857 0.62241 0.0
C1165 C 0.19718 0.54657 0.61529 0.0
C1166 C 0.17447 0.5315 0.61154 0.0
C1167 C 0.13029 0.52457 0.67501 0.0
C1168 C 0.11076 0.51064 0.62418 0.0
C1169 C 0.1362 0.51229 0.65776 0.0
N1170 N 0.12654 0.50559 0.63263 0.0
C1171 C 0.10443 0.52289 0.64088 0.0
C1172 C 0.1143 0.52989 0.66645 0.0
C1173 C 0.09142 0.45602 0.58186 0.0
C1174 C 0.13438 0.40609 0.57891 0.0
C1175 C 0.1031 0.41337 0.5528 0.0
C1176 C 0.09748 0.39168 0.56017 0.0
C1177 C 0.11326 0.38806 0.57331 0.0
N1178 N 0.12387 0.43096 0.55827 0.0
C1179 C 0.1394 0.42755 0.57121 0.0
Co1180 Co 0.6469 0.1305 0.11153 0.0
Co1181 Co 0.67205 0.12653 0.05286 0.0
O1182 O 0.67326 0.13883 0.0891 0.0
C1183 C 0.67258 0.12021 0.15265 0.0
O1184 O 0.67161 0.10445 0.1368 0.0
C1185 C 0.69681 0.17539 0.04159 0.0
O1186 O 0.68044 0.17674 0.05328 0.0
O1187 O 0.64865 0.13349 0.04082 0.0
O1188 O 0.62897 0.12916 0.07899 0.0
H1189 H 0.63407 0.08017 0.97005 0.0
H1190 H 0.69002 0.17074 0.12511 0.0
O1191 O 0.66426 0.13212 0.14502 0.0
H1192 H 0.63727 0.19801 0.10989 0.0
H1193 H 0.60689 0.13499 0.195 0.0
H1194 H 0.59861 0.09756 0.10663 0.0
H1195 H 0.62473 0.1579 0.10617 0.0
H1196 H 0.63965 0.14563 0.16563 0.0
O1197 O 0.69609 0.15664 0.04001 0.0
H1198 H 0.63576 0.09541 0.01604 0.0
H1199 H 0.70656 0.13246 0.01202 0.0
H1200 H 0.56538 0.08653 0.13527 0.0
H1201 H 0.70323 0.21099 0.12927 0.0
H1202 H 0.56941 0.1053 0.17981 0.0
H1203 H 0.67677 0.22487 0.12156 0.0
O1204 O 0.63667 0.09811 0.10707 0.0
H1205 H 0.74414 0.14313 0.09746 0.0
H1206 H 0.67707 0.08618 0.04941 0.0
H1207 H 0.70534 0.07689 0.06502 0.0
H1208 H 0.7392 0.1055 0.08918 0.0
H1209 H 0.71535 0.15166 0.08169 0.0
H1210 H 0.70564 0.11775 0.96591 0.0
H1211 H 0.6692 0.09134 0.94467 0.0
O1212 O 0.64832 0.09617 0.0649 0.0
C1213 C 0.63176 0.132 0.0533 0.0
C1214 C 0.65006 0.09161 0.97912 0.0
C1215 C 0.69022 0.11272 0.97678 0.0
N1216 N 0.67124 0.11467 0.01677 0.0
C1217 C 0.65112 0.10025 0.00518 0.0
C1218 C 0.69064 0.12103 0.00287 0.0
C1219 C 0.66977 0.0979 0.96488 0.0
C1220 C 0.67837 0.17664 0.12194 0.0
N1221 N 0.65661 0.16197 0.1155 0.0
C1222 C 0.68596 0.19945 0.12423 0.0
C1223 C 0.67112 0.20723 0.11987 0.0
C1224 C 0.64895 0.19217 0.1133 0.0
C1225 C 0.64196 0.16948 0.11115 0.0
C1226 C 0.60491 0.12672 0.17561 0.0
C1227 C 0.60048 0.1059 0.12591 0.0
C1228 C 0.62341 0.13264 0.15892 0.0
N1229 N 0.62102 0.12234 0.13434 0.0
C1230 C 0.58161 0.09954 0.14207 0.0
C1231 C 0.58389 0.11006 0.16707 0.0
C1232 C 0.63711 0.08702 0.08648 0.0
C1233 C 0.72948 0.13054 0.08691 0.0
C1234 C 0.69171 0.09869 0.06001 0.0
C1235 C 0.70769 0.09335 0.06874 0.0
C1236 C 0.72669 0.10941 0.08228 0.0
N1237 N 0.69461 0.11948 0.06454 0.0
C1238 C 0.71316 0.13529 0.07786 0.0
Co1239 Co 0.52048 0.64756 0.61034 0.0
Co1240 Co 0.54779 0.67168 0.55003 0.0
O1241 O 0.53825 0.67364 0.58712 0.0
C1242 C 0.55767 0.67123 0.651 0.0
O1243 O 0.57148 0.66851 0.63526 0.0
C1244 C 0.52533 0.69859 0.5435 0.0
O1245 O 0.51036 0.68553 0.56137 0.0
O1246 O 0.5169 0.64844 0.53974 0.0
O1247 O 0.50228 0.62966 0.57861 0.0
H1248 H 0.5523 0.63156 0.46699 0.0
H1249 H 0.52531 0.69119 0.62586 0.0
O1250 O 0.53779 0.66483 0.6432 0.0
H1251 H 0.44442 0.64051 0.614 0.0
H1252 H 0.4786 0.60893 0.69585 0.0
H1253 H 0.50356 0.59896 0.60538 0.0
H1254 H 0.47089 0.62687 0.60736 0.0
H1255 H 0.50032 0.64129 0.66578 0.0
O1256 O 0.5414 0.69547 0.53698 0.0
H1257 H 0.5407 0.63445 0.51368 0.0
H1258 H 0.57506 0.70516 0.50746 0.0
H1259 H 0.48171 0.56612 0.63472 0.0
H1260 H 0.49939 0.70546 0.63304 0.0
H1261 H 0.46908 0.571 0.68032 0.0
H1262 H 0.45863 0.68007 0.627 0.0
O1263 O 0.54164 0.63631 0.60405 0.0
H1264 H 0.60536 0.74444 0.59124 0.0
H1265 H 0.59284 0.67621 0.54393 0.0
H1266 H 0.63105 0.70457 0.55732 0.0
H1267 H 0.63751 0.73901 0.58108 0.0
H1268 H 0.56737 0.71554 0.57768 0.0
H1269 H 0.58688 0.70302 0.46063 0.0
H1270 H 0.57555 0.66602 0.44013 0.0
O1271 O 0.55464 0.64803 0.56171 0.0
C1272 C 0.50156 0.63207 0.55294 0.0
C1273 C 0.5574 0.64778 0.47572 0.0
C1274 C 0.57678 0.68789 0.47214 0.0
N1275 N 0.55734 0.66995 0.51335 0.0
C1276 C 0.55093 0.64953 0.50218 0.0
C1277 C 0.57 0.68899 0.49865 0.0
C1278 C 0.57043 0.66712 0.46066 0.0
C1279 C 0.50758 0.67998 0.62346 0.0
N1280 N 0.49964 0.65821 0.61623 0.0
C1281 C 0.49299 0.68818 0.62744 0.0
C1282 C 0.47013 0.67393 0.624 0.0
C1283 C 0.46215 0.65175 0.61667 0.0
C1284 C 0.47723 0.64413 0.61283 0.0
C1285 C 0.48397 0.60658 0.676 0.0
C1286 C 0.49801 0.6012 0.62513 0.0
C1287 C 0.49632 0.62485 0.6589 0.0
N1288 N 0.50307 0.622 0.63375 0.0
C1289 C 0.48569 0.58255 0.64168 0.0
C1290 C 0.47863 0.5853 0.66727 0.0
C1291 C 0.55273 0.63665 0.58306 0.0
C1292 C 0.60276 0.72953 0.58084 0.0
C1293 C 0.59549 0.69111 0.55437 0.0
C1294 C 0.61718 0.70713 0.56184 0.0
C1295 C 0.62079 0.72646 0.57516 0.0
N1296 N 0.57791 0.69428 0.55992 0.0
C1297 C 0.58131 0.71315 0.57304 0.0
Co1298 Co 0.87638 0.51836 0.11245 0.0
Co1299 Co 0.87944 0.54527 0.05213 0.0
O1300 O 0.86809 0.53599 0.08915 0.0
C1301 C 0.89008 0.55564 0.15289 0.0
O1302 O 0.90723 0.56889 0.1376 0.0
C1303 C 0.8303 0.52213 0.04203 0.0
O1304 O 0.82837 0.50426 0.05396 0.0
O1305 O 0.87116 0.51415 0.04199 0.0
O1306 O 0.87617 0.50006 0.08085 0.0
H1307 H 0.92269 0.54849 0.96825 0.0
H1308 H 0.8373 0.5232 0.12638 0.0
O1309 O 0.87621 0.53586 0.14511 0.0
H1310 H 0.80754 0.44223 0.11631 0.0
H1311 H 0.87313 0.47706 0.19846 0.0
H1312 H 0.90804 0.50138 0.10789 0.0
H1313 H 0.84772 0.46875 0.11034 0.0
H1314 H 0.86248 0.49857 0.16801 0.0
O1315 O 0.84934 0.53975 0.04008 0.0
H1316 H 0.90863 0.53725 0.01515 0.0
H1317 H 0.87345 0.57283 0.00981 0.0
H1318 H 0.91904 0.47973 0.1376 0.0
H1319 H 0.797 0.49724 0.13274 0.0
H1320 H 0.90154 0.46743 0.18325 0.0
H1321 H 0.78188 0.45644 0.12765 0.0
O1322 O 0.90883 0.5395 0.10608 0.0
H1323 H 0.86651 0.60422 0.09379 0.0
H1324 H 0.92053 0.58978 0.0454 0.0
H1325 H 0.93145 0.6283 0.05867 0.0
H1326 H 0.90431 0.63572 0.08298 0.0
H1327 H 0.85635 0.56591 0.08034 0.0
H1328 H 0.88698 0.58431 0.96277 0.0
H1329 H 0.91186 0.57219 0.94173 0.0
O1330 O 0.90983 0.55143 0.06324 0.0
C1331 C 0.87254 0.499 0.05526 0.0
C1332 C 0.91191 0.55393 0.97722 0.0
C1333 C 0.89185 0.57401 0.97414 0.0
N1334 N 0.89037 0.55451 0.01528 0.0
C1335 C 0.90395 0.54767 0.00379 0.0
C1336 C 0.8842 0.56742 1.00076 0.0
C1337 C 0.90581 0.56721 0.96234 0.0
C1338 C 0.83086 0.50545 0.12433 0.0
N1339 N 0.84487 0.4975 0.11812 0.0
C1340 C 0.80802 0.49084 0.12787 0.0
C1341 C 0.79954 0.46796 0.12498 0.0
C1342 C 0.81393 0.45997 0.1186 0.0
C1343 C 0.83667 0.47508 0.11518 0.0
C1344 C 0.88084 0.48229 0.17859 0.0
C1345 C 0.90025 0.49597 0.12766 0.0
C1346 C 0.87492 0.49452 0.16128 0.0
N1347 N 0.88452 0.50109 0.13612 0.0
C1348 C 0.90659 0.48377 0.14442 0.0
C1349 C 0.89678 0.47689 0.17004 0.0
C1350 C 0.91945 0.54997 0.0847 0.0
C1351 C 0.87846 0.6012 0.08316 0.0
C1352 C 0.90866 0.59285 0.05609 0.0
C1353 C 0.91492 0.61471 0.06348 0.0
C1354 C 0.89968 0.61887 0.07711 0.0
N1355 N 0.88779 0.57562 0.062 0.0
C1356 C 0.87278 0.57956 0.07543 0.0
Co1357 Co 0.36164 0.87504 0.6105 0.0
Co1358 Co 0.33696 0.87904 0.55145 0.0
O1359 O 0.33544 0.86679 0.58781 0.0
C1360 C 0.33588 0.88556 0.65123 0.0
O1361 O 0.33671 0.9011 0.63507 0.0
C1362 C 0.3119 0.83016 0.54045 0.0
O1363 O 0.32814 0.82868 0.55228 0.0
O1364 O 0.3603 0.87185 0.53972 0.0
O1365 O 0.37966 0.87623 0.57816 0.0
H1366 H 0.37553 0.92512 0.46868 0.0
H1367 H 0.31835 0.83498 0.6239 0.0
O1368 O 0.34421 0.87362 0.64381 0.0
H1369 H 0.37085 0.80726 0.60961 0.0
H1370 H 0.40115 0.87049 0.69441 0.0
H1371 H 0.41 0.90779 0.60584 0.0
H1372 H 0.38361 0.84741 0.60568 0.0
H1373 H 0.36855 0.85994 0.6648 0.0
O1374 O 0.31283 0.84899 0.53863 0.0
H1375 H 0.37352 0.90993 0.51477 0.0
H1376 H 0.30273 0.87324 0.51026 0.0
H1377 H 0.44307 0.91872 0.63472 0.0
H1378 H 0.30491 0.79469 0.62826 0.0
H1379 H 0.43876 0.90001 0.67936 0.0
H1380 H 0.33124 0.7806 0.62103 0.0
O1381 O 0.37202 0.90745 0.60589 0.0
H1382 H 0.26482 0.86309 0.59539 0.0
H1383 H 0.33229 0.91958 0.54756 0.0
H1384 H 0.30416 0.9292 0.56278 0.0
H1385 H 0.2701 0.90082 0.58682 0.0
H1386 H 0.29349 0.85424 0.58001 0.0
H1387 H 0.30398 0.8879 0.46404 0.0
H1388 H 0.34058 0.9141 0.443 0.0
O1389 O 0.36077 0.90935 0.56349 0.0
C1390 C 0.37708 0.87334 0.55247 0.0
C1391 C 0.35948 0.91376 0.47766 0.0
C1392 C 0.31932 0.89285 0.47504 0.0
N1393 N 0.33803 0.89085 0.51526 0.0
C1394 C 0.35824 0.90516 0.50378 0.0
C1395 C 0.31872 0.88457 0.50119 0.0
C1396 C 0.33987 0.90756 0.46325 0.0
C1397 C 0.32994 0.82899 0.62092 0.0
N1398 N 0.35175 0.84354 0.61462 0.0
C1399 C 0.32222 0.80615 0.62333 0.0
C1400 C 0.33699 0.79825 0.61924 0.0
C1401 C 0.35922 0.8132 0.61282 0.0
C1402 C 0.36634 0.83592 0.61054 0.0
C1403 C 0.40325 0.87873 0.67498 0.0
C1404 C 0.408 0.89948 0.62517 0.0
C1405 C 0.38484 0.87287 0.65815 0.0
N1406 N 0.38739 0.88314 0.63352 0.0
C1407 C 0.42678 0.90578 0.64147 0.0
C1408 C 0.42435 0.89529 0.66652 0.0
C1409 C 0.37182 0.91852 0.58516 0.0
C1410 C 0.27957 0.87558 0.58488 0.0
C1411 C 0.31757 0.90717 0.5581 0.0
C1412 C 0.30166 0.9127 0.56661 0.0
C1413 C 0.28255 0.89676 0.58009 0.0
N1414 N 0.31449 0.88634 0.56279 0.0
C1415 C 0.29582 0.87065 0.57606 0.0
H1416 H 0.36286 0.45411 0.18287 0.0
H1417 H 0.29279 0.4319 0.32042 0.0
H1418 H 0.29287 0.43366 0.18216 0.0
H1419 H 0.36365 0.4569 0.31533 0.0
H1420 H 0.29008 0.4259 0.27062 0.0
H1421 H 0.36094 0.44813 0.23179 0.0
C1422 C 0.34696 0.44807 0.19308 0.0
C1423 C 0.32805 0.44458 0.17855 0.0
C1424 C 0.30611 0.43236 0.28056 0.0
C1425 C 0.32577 0.43817 0.23502 0.0
C1426 C 0.30764 0.43567 0.30892 0.0
C1427 C 0.32851 0.44513 0.32188 0.0
C1428 C 0.32558 0.43837 0.26536 0.0
C1429 C 0.34726 0.44984 0.30612 0.0
C1430 C 0.34585 0.44469 0.2211 0.0
C1431 C 0.30782 0.43654 0.19272 0.0
N1432 N 0.34536 0.44655 0.2788 0.0
N1433 N 0.30727 0.43396 0.22037 0.0
H1434 H 0.91315 0.3625 0.6847 0.0
H1435 H 0.86387 0.29114 0.82117 0.0
H1436 H 0.86397 0.29242 0.68283 0.0
H1437 H 0.90733 0.36249 0.81688 0.0
H1438 H 0.86819 0.28894 0.77148 0.0
H1439 H 0.9163 0.36029 0.73376 0.0
C1440 C 0.90319 0.34652 0.69469 0.0
C1441 C 0.88811 0.32767 0.67979 0.0
C1442 C 0.87699 0.30499 0.78158 0.0
C1443 C 0.89117 0.32506 0.73637 0.0
C1444 C 0.87461 0.30623 0.80988 0.0
C1445 C 0.88505 0.32706 0.82302 0.0
C1446 C 0.89011 0.3247 0.76666 0.0
C1447 C 0.89871 0.34612 0.80752 0.0
C1448 C 0.90493 0.34525 0.72277 0.0
C1449 C 0.87578 0.30733 0.69369 0.0
N1450 N 0.90072 0.34447 0.78028 0.0
N1451 N 0.87728 0.30661 0.72139 0.0
H1452 H 0.5403 0.85411 0.32 0.0
H1453 H 0.59289 0.9202 0.18136 0.0
H1454 H 0.59204 0.92338 0.3176 0.0
H1455 H 0.53715 0.85298 0.18643 0.0
H1456 H 0.59825 0.91969 0.23079 0.0
H1457 H 0.54459 0.85149 0.2711 0.0
C1458 C 0.55283 0.86872 0.30924 0.0
C1459 C 0.56561 0.88909 0.32289 0.0
C1460 C 0.58509 0.90495 0.22097 0.0
C1461 C 0.5704 0.88628 0.26657 0.0
C1462 C 0.5821 0.90518 0.19274 0.0
C1463 C 0.56437 0.88671 0.17982 0.0
C1464 C 0.57029 0.88607 0.23625 0.0
C1465 C 0.55086 0.86772 0.19559 0.0
C1466 C 0.55524 0.86722 0.28124 0.0
C1467 C 0.58174 0.90737 0.30789 0.0
N1468 N 0.55396 0.86798 0.22293 0.0
N1469 N 0.58343 0.90563 0.28042 0.0
H1470 H 0.71656 0.57366 0.81871 0.0
H1471 H 0.64644 0.55204 0.68119 0.0
H1472 H 0.64527 0.54597 0.81342 0.0
H1473 H 0.71634 0.57213 0.68025 0.0
H1474 H 0.64829 0.55727 0.73025 0.0
H1475 H 0.71918 0.57997 0.76897 0.0
C1476 C 0.70157 0.56929 0.80718 0.0
C1477 C 0.68064 0.55904 0.82009 0.0
C1478 C 0.66336 0.56078 0.71947 0.0
C1479 C 0.68348 0.56624 0.76365 0.0
C1480 C 0.66231 0.55786 0.69138 0.0
C1481 C 0.68121 0.56144 0.67673 0.0
C1482 C 0.68339 0.56697 0.73335 0.0
C1483 C 0.70139 0.56918 0.6909 0.0
C1484 C 0.70305 0.57279 0.77886 0.0
C1485 C 0.66172 0.55362 0.80428 0.0
N1486 N 0.7019 0.57134 0.71861 0.0
N1487 N 0.6636 0.55718 0.77701 0.0
H1488 H 0.09841 0.64469 0.31855 0.0
H1489 H 0.14598 0.71538 0.18136 0.0
H1490 H 0.1476 0.71478 0.31966 0.0
H1491 H 0.10181 0.64418 0.18626 0.0
H1492 H 0.14244 0.71785 0.23116 0.0
H1493 H 0.09458 0.6467 0.2696 0.0
C1494 C 0.10826 0.66062 0.30842 0.0
C1495 C 0.12352 0.67954 0.32306 0.0
C1496 C 0.1333 0.70178 0.22117 0.0
C1497 C 0.11965 0.68192 0.26659 0.0
C1498 C 0.13524 0.70039 0.19282 0.0
C1499 C 0.12437 0.67951 0.17982 0.0
C1500 C 0.12022 0.68217 0.23629 0.0
C1501 C 0.11073 0.66058 0.19551 0.0
C1502 C 0.10611 0.66178 0.2804 0.0
C1503 C 0.13567 0.69982 0.30899 0.0
N1504 N 0.10917 0.66236 0.22281 0.0
N1505 N 0.13377 0.70043 0.28134 0.0
H1506 H 0.47517 0.15562 0.81699 0.0
H1507 H 0.41736 0.08591 0.68256 0.0
H1508 H 0.41915 0.08844 0.81904 0.0
H1509 H 0.47227 0.15374 0.68354 0.0
H1510 H 0.41332 0.0881 0.73202 0.0
H1511 H 0.46991 0.15692 0.7681 0.0
C1512 C 0.46153 0.14122 0.80717 0.0
C1513 C 0.44775 0.12179 0.82205 0.0
C1514 C 0.42599 0.10261 0.7213 0.0
C1515 C 0.44183 0.12299 0.76575 0.0
C1516 C 0.42823 0.10141 0.69305 0.0
C1517 C 0.44539 0.11956 0.67896 0.0
C1518 C 0.441 0.12212 0.73544 0.0
C1519 C 0.45902 0.13921 0.6936 0.0
C1520 C 0.45853 0.14195 0.77919 0.0
C1521 C 0.43021 0.10372 0.8083 0.0
N1522 N 0.45669 0.13986 0.721 0.0
N1523 N 0.42797 0.10461 0.78079 0.0
H1524 H 0.59164 0.67288 0.68202 0.0
H1525 H 0.5381 0.68726 0.81942 0.0
H1526 H 0.53668 0.68566 0.6856 0.0
H1527 H 0.59 0.66994 0.8184 0.0
H1528 H 0.54258 0.69366 0.77043 0.0
H1529 H 0.59632 0.67849 0.73153 0.0
C1530 C 0.58087 0.67731 0.6931 0.0
C1531 C 0.56356 0.67852 0.67969 0.0
C1532 C 0.55321 0.68873 0.78089 0.0
C1533 C 0.56871 0.6848 0.73626 0.0
C1534 C 0.55069 0.68511 0.80894 0.0
C1535 C 0.5635 0.67776 0.82303 0.0
C1536 C 0.5685 0.68478 0.76659 0.0
C1537 C 0.57969 0.67548 0.80836 0.0
C1538 C 0.58347 0.6804 0.72138 0.0
C1539 C 0.55007 0.68427 0.6951 0.0
N1540 N 0.58151 0.67864 0.78084 0.0
N1541 N 0.55279 0.68697 0.72251 0.0
H1542 H 0.91556 0.56269 0.32088 0.0
H1543 H 0.85263 0.54109 0.18408 0.0
H1544 H 0.85188 0.55979 0.31937 0.0
H1545 H 0.92416 0.58375 0.18655 0.0
H1546 H 0.85113 0.54648 0.23331 0.0
H1547 H 0.919 0.56937 0.27158 0.0
C1548 C 0.90254 0.56395 0.31015 0.0
C1549 C 0.88351 0.56089 0.32404 0.0
C1550 C 0.86708 0.55503 0.22294 0.0
C1551 C 0.88693 0.5677 0.26772 0.0
C1552 C 0.86796 0.55193 0.19492 0.0
C1553 C 0.88856 0.56195 0.18128 0.0
C1554 C 0.88699 0.56769 0.23752 0.0
C1555 C 0.90794 0.57579 0.19626 0.0
C1556 C 0.9045 0.56777 0.2821 0.0
C1557 C 0.86692 0.56235 0.30931 0.0
N1558 N 0.90674 0.57786 0.22372 0.0
N1559 N 0.86877 0.56517 0.28174 0.0
H1560 H 0.33138 0.91636 0.68211 0.0
H1561 H 0.32141 0.84973 0.81911 0.0
H1562 H 0.32342 0.85043 0.68564 0.0
H1563 H 0.33323 0.91717 0.81871 0.0
H1564 H 0.31496 0.84754 0.77014 0.0
H1565 H 0.32521 0.91484 0.73157 0.0
C1566 C 0.32787 0.9014 0.69316 0.0
C1567 C 0.32821 0.88361 0.6798 0.0
C1568 C 0.31869 0.86276 0.78071 0.0
C1569 C 0.32129 0.88182 0.73624 0.0
C1570 C 0.32234 0.86401 0.80874 0.0
C1571 C 0.32817 0.88377 0.82297 0.0
C1572 C 0.32114 0.88152 0.76657 0.0
C1573 C 0.32888 0.90164 0.8085 0.0
C1574 C 0.32447 0.90059 0.72141 0.0
C1575 C 0.32362 0.86466 0.69514 0.0
N1576 N 0.32578 0.90023 0.78097 0.0
N1577 N 0.32058 0.86437 0.7225 0.0
H1578 H 0.47104 0.3173 0.31878 0.0
H1579 H 0.41834 0.3316 0.18058 0.0
H1580 H 0.41944 0.33504 0.31705 0.0
H1581 H 0.47541 0.32223 0.1854 0.0
H1582 H 0.41293 0.32521 0.22997 0.0
H1583 H 0.46692 0.31101 0.26976 0.0
C1584 C 0.45858 0.31956 0.30814 0.0
C1585 C 0.44579 0.32704 0.32201 0.0
C1586 C 0.4264 0.32421 0.22009 0.0
C1587 C 0.44121 0.32016 0.26557 0.0
C1588 C 0.42943 0.32773 0.1919 0.0
C1589 C 0.44752 0.32772 0.17894 0.0
C1590 C 0.4415 0.32051 0.23526 0.0
C1591 C 0.46141 0.32269 0.1946 0.0
C1592 C 0.45627 0.31601 0.28008 0.0
C1593 C 0.42974 0.32941 0.30715 0.0
N1594 N 0.45823 0.31949 0.2219 0.0
N1595 N 0.42814 0.32633 0.27962 0.0
H1596 H 0.08796 0.41651 0.67738 0.0
H1597 H 0.15044 0.46517 0.81948 0.0
H1598 H 0.1559 0.47049 0.68494 0.0
H1599 H 0.07884 0.42593 0.81087 0.0
H1600 H 0.15438 0.45878 0.77123 0.0
H1601 H 0.08643 0.41159 0.72702 0.0
C1602 C 0.10272 0.42695 0.68938 0.0
C1603 C 0.12199 0.44412 0.67706 0.0
C1604 C 0.13783 0.45125 0.78004 0.0
C1605 C 0.12032 0.43866 0.73374 0.0
C1606 C 0.13556 0.45477 0.80764 0.0
C1607 C 0.11425 0.44632 0.81914 0.0
C1608 C 0.11868 0.43909 0.76389 0.0
C1609 C 0.09558 0.433 0.80275 0.0
C1610 C 0.10179 0.42423 0.71771 0.0
C1611 C 0.14061 0.45722 0.69364 0.0
N1612 N 0.09821 0.43 0.77589 0.0
N1613 N 0.13924 0.45436 0.72112 0.0
H1614 H 0.67741 0.08843 0.32101 0.0
H1615 H 0.68654 0.15631 0.18581 0.0
H1616 H 0.6895 0.15597 0.31936 0.0
H1617 H 0.67636 0.08948 0.18449 0.0
H1618 H 0.69358 0.15818 0.23462 0.0
H1619 H 0.68282 0.09012 0.27143 0.0
C1620 C 0.68167 0.10376 0.31035 0.0
C1621 C 0.68269 0.12198 0.32432 0.0
C1622 C 0.6901 0.14317 0.22371 0.0
C1623 C 0.68869 0.12394 0.26766 0.0
C1624 C 0.68608 0.1421 0.19577 0.0
C1625 C 0.68059 0.12261 0.18111 0.0
C1626 C 0.6883 0.12447 0.23735 0.0
C1627 C 0.68047 0.10481 0.19505 0.0
C1628 C 0.68465 0.10468 0.28202 0.0
C1629 C 0.68823 0.1414 0.30942 0.0
N1630 N 0.68388 0.10602 0.22252 0.0
N1631 N 0.69076 0.14176 0.28195 0.0
H1632 H 0.18363 0.47359 0.01276 0.0
H1633 H 0.29428 0.47047 0.99295 0.0
H1634 H 0.21918 0.49546 0.9365 0.0
H1635 H 0.28401 0.49733 0.06741 0.0
H1636 H 0.26327 0.47278 0.97193 0.0
H1637 H 0.21681 0.47552 0.03371 0.0
C1638 C 0.19844 0.47883 1.00046 0.0
C1639 C 0.19873 0.48442 0.97289 0.0
C1640 C 0.26793 0.47827 0.99281 0.0
C1641 C 0.23638 0.48612 0.99652 0.0
C1642 C 0.28549 0.47687 0.00485 0.0
C1643 C 0.2917 0.48377 0.03194 0.0
C1644 C 0.25603 0.48594 0.00823 0.0
C1645 C 0.27981 0.49197 0.04643 0.0
C1646 C 0.21733 0.48001 0.01245 0.0
C1647 C 0.21836 0.49114 0.95786 0.0
N1648 N 0.26228 0.49251 0.03453 0.0
N1649 N 0.23632 0.49147 0.96977 0.0
H1650 H 0.71691 0.18152 0.51399 0.0
H1651 H 0.82844 0.29407 0.49423 0.0
H1652 H 0.72694 0.21912 0.44003 0.0
H1653 H 0.79244 0.28237 0.56987 0.0
H1654 H 0.79508 0.26281 0.47354 0.0
H1655 H 0.74835 0.21461 0.53495 0.0
C1656 C 0.72575 0.19675 0.5022 0.0
C1657 C 0.71934 0.19767 0.47528 0.0
C1658 C 0.79452 0.26721 0.49461 0.0
C1659 C 0.75546 0.23517 0.49886 0.0
C1660 C 0.8135 0.28491 0.50645 0.0
C1661 C 0.81311 0.29079 0.53376 0.0
C1662 C 0.77529 0.25486 0.51046 0.0
C1663 C 0.79333 0.27842 0.54871 0.0
C1664 C 0.74354 0.21557 0.51419 0.0
C1665 C 0.7313 0.21781 0.46089 0.0
N1666 N 0.77527 0.26077 0.53698 0.0
N1667 N 0.74904 0.2357 0.47271 0.0
H1668 H 0.5365 0.82532 0.99242 0.0
H1669 H 0.53761 0.71388 0.01275 0.0
H1670 H 0.51075 0.78866 0.06738 0.0
H1671 H 0.51099 0.72403 0.93804 0.0
H1672 H 0.53563 0.74524 0.0334 0.0
H1673 H 0.53499 0.79219 0.97181 0.0
C1674 C 0.53053 0.81029 0.00451 0.0
C1675 C 0.52367 0.80963 0.03159 0.0
C1676 C 0.53016 0.74048 0.01254 0.0
C1677 C 0.52248 0.77211 0.00841 0.0
C1678 C 0.53137 0.72273 1.00072 0.0
C1679 C 0.52439 0.71637 0.9737 0.0
C1680 C 0.52264 0.7524 0.99692 0.0
C1681 C 0.5164 0.72835 0.95899 0.0
C1682 C 0.5296 0.79145 0.99271 0.0
C1683 C 0.51604 0.78975 0.04637 0.0
N1684 N 0.51605 0.74604 0.97066 0.0
N1685 N 0.51597 0.77184 0.03472 0.0
H1686 H 0.71429 0.53595 0.49041 0.0
H1687 H 0.82405 0.53108 0.50867 0.0
H1688 H 0.72424 0.50824 0.56431 0.0
H1689 H 0.78806 0.50954 0.43267 0.0
H1690 H 0.79114 0.52948 0.52999 0.0
H1691 H 0.74488 0.53314 0.46892 0.0
C1692 C 0.72292 0.52927 0.50209 0.0
C1693 C 0.71675 0.52228 0.52916 0.0
C1694 C 0.79045 0.52498 0.5087 0.0
C1695 C 0.75193 0.51953 0.50491 0.0
C1696 C 0.80918 0.52597 0.49651 0.0
C1697 C 0.8087 0.52037 0.46889 0.0
C1698 C 0.77137 0.51907 0.49296 0.0
C1699 C 0.78903 0.51384 0.45405 0.0
C1700 C 0.74024 0.52758 0.48978 0.0
C1701 C 0.72843 0.5137 0.54335 0.0
N1702 N 0.77123 0.51371 0.46616 0.0
N1703 N 0.74573 0.51288 0.5312 0.0
H1704 H 0.3057 0.78823 0.97029 0.0
H1705 H 0.18035 0.73561 0.02493 0.0
H1706 H 0.27214 0.82608 0.98154 0.0
H1707 H 0.21871 0.70239 0.03432 0.0
H1708 H 0.21308 0.76782 0.00557 0.0
H1709 H 0.27326 0.75552 0.99014 0.0
C1710 C 0.29153 0.78967 0.97685 0.0
C1711 C 0.2917 0.80998 0.97426 0.0
C1712 C 0.2144 0.75353 0.01191 0.0
C1713 C 0.25451 0.7726 0.99687 0.0
C1714 C 0.19567 0.73507 0.02294 0.0
C1715 C 0.19673 0.7162 0.03129 0.0
C1716 C 0.2344 0.75317 0.00887 0.0
C1717 C 0.21712 0.71658 0.02824 0.0
C1718 C 0.27306 0.77101 0.98827 0.0
C1719 C 0.27284 0.81084 0.98319 0.0
N1720 N 0.23512 0.73472 0.01714 0.0
N1721 N 0.25504 0.79244 0.99397 0.0
H1722 H 0.47235 0.18008 0.4904 0.0
H1723 H 0.47237 0.29194 0.51135 0.0
H1724 H 0.49886 0.2167 0.56524 0.0
H1725 H 0.4986 0.28169 0.43636 0.0
H1726 H 0.47424 0.26047 0.53179 0.0
H1727 H 0.47413 0.21338 0.46995 0.0
C1728 C 0.47854 0.19514 0.50249 0.0
C1729 C 0.48554 0.19574 0.52949 0.0
C1730 C 0.47966 0.26523 0.51092 0.0
C1731 C 0.48705 0.23345 0.50651 0.0
C1732 C 0.47851 0.28305 0.49922 0.0
C1733 C 0.4854 0.2894 0.47218 0.0
C1734 C 0.48702 0.25325 0.49516 0.0
C1735 C 0.49327 0.27737 0.45733 0.0
C1736 C 0.47964 0.21408 0.49079 0.0
C1737 C 0.49345 0.21566 0.54429 0.0
N1738 N 0.49354 0.25961 0.46888 0.0
N1739 N 0.49368 0.23367 0.53274 0.0
H1740 H 0.82744 0.55767 0.02273 0.0
H1741 H 0.70237 0.48554 0.96655 0.0
H1742 H 0.78812 0.48628 0.03347 0.0
H1743 H 0.73754 0.5573 0.97447 0.0
H1744 H 0.73437 0.48497 0.98739 0.0
H1745 H 0.79538 0.55733 0.00163 0.0
C1746 C 0.81204 0.54188 0.02069 0.0
C1747 C 0.81052 0.52196 0.02994 0.0
C1748 C 0.73503 0.50081 0.98453 0.0
C1749 C 0.77359 0.52146 0.0055 0.0
C1750 C 0.71682 0.50117 0.97252 0.0
C1751 C 0.71722 0.52149 0.96877 0.0
C1752 C 0.75385 0.52094 0.99258 0.0
C1753 C 0.7364 0.54121 0.97701 0.0
C1754 C 0.79369 0.54172 0.00864 0.0
C1755 C 0.79005 0.50204 0.02673 0.0
N1756 N 0.75389 0.54043 0.98843 0.0
N1757 N 0.77241 0.50228 0.01466 0.0
H1758 H 0.18143 0.73656 0.47679 0.0
H1759 H 0.30625 0.78818 0.53286 0.0
H1760 H 0.21921 0.70265 0.46832 0.0
H1761 H 0.27302 0.82633 0.52131 0.0
H1762 H 0.27386 0.75563 0.51263 0.0
H1763 H 0.21418 0.76857 0.49635 0.0
C1764 C 0.19663 0.73583 0.47901 0.0
C1765 C 0.19753 0.71683 0.47087 0.0
C1766 C 0.27373 0.77116 0.51451 0.0
C1767 C 0.23523 0.75358 0.49353 0.0
C1768 C 0.29216 0.78972 0.52615 0.0
C1769 C 0.2924 0.81006 0.52878 0.0
C1770 C 0.25531 0.77288 0.50573 0.0
C1771 C 0.27367 0.81106 0.51966 0.0
C1772 C 0.21538 0.75418 0.49016 0.0
C1773 C 0.21777 0.71696 0.47422 0.0
N1774 N 0.25592 0.79276 0.50866 0.0
N1775 N 0.2358 0.73501 0.48543 0.0
H1776 H 0.52133 0.2174 0.96838 0.0
H1777 H 0.44925 0.27062 0.02352 0.0
H1778 H 0.44986 0.17997 0.97942 0.0
H1779 H 0.52084 0.30349 0.03256 0.0
H1780 H 0.44951 0.23835 0.00392 0.0
H1781 H 0.52183 0.2502 0.98831 0.0
C1782 C 0.50575 0.21607 0.97491 0.0
C1783 C 0.48552 0.19585 0.97224 0.0
C1784 C 0.46518 0.25258 0.01024 0.0
C1785 C 0.486 0.23334 0.99495 0.0
C1786 C 0.46506 0.27107 0.0214 0.0
C1787 C 0.48507 0.28986 0.02973 0.0
C1788 C 0.48548 0.25282 0.00704 0.0
C1789 C 0.50502 0.28937 0.0265 0.0
C1790 C 0.50607 0.23478 0.98637 0.0
C1791 C 0.46587 0.19514 0.98112 0.0
N1792 N 0.50473 0.2712 0.01529 0.0
N1793 N 0.4666 0.21358 0.99196 0.0
H1794 H 0.18429 0.47182 0.48955 0.0
H1795 H 0.2973 0.4736 0.50773 0.0
H1796 H 0.2223 0.49934 0.56328 0.0
H1797 H 0.2844 0.49692 0.4321 0.0
H1798 H 0.26633 0.47586 0.52896 0.0
H1799 H 0.21734 0.4738 0.46807 0.0
C1800 C 0.19961 0.47828 0.50118 0.0
C1801 C 0.20064 0.48547 0.52819 0.0
C1802 C 0.27041 0.48059 0.50778 0.0
C1803 C 0.23813 0.48726 0.504 0.0
C1804 C 0.28795 0.47922 0.49563 0.0
C1805 C 0.29339 0.48514 0.46816 0.0
C1806 C 0.25777 0.48721 0.4921 0.0
C1807 C 0.28078 0.49234 0.45338 0.0
C1808 C 0.21841 0.4795 0.48889 0.0
C1809 C 0.22089 0.49375 0.54236 0.0
N1810 N 0.26328 0.49284 0.46542 0.0
N1811 N 0.23878 0.4941 0.53024 0.0
H1812 H 0.82648 0.26946 0.97617 0.0
H1813 H 0.702 0.21716 0.03377 0.0
H1814 H 0.78831 0.30305 0.96882 0.0
H1815 H 0.73574 0.17951 0.02211 0.0
H1816 H 0.73405 0.24976 0.01313 0.0
H1817 H 0.794 0.23731 0.99592 0.0
C1818 C 0.81124 0.27009 0.97866 0.0
C1819 C 0.81018 0.28906 0.9708 0.0
C1820 C 0.73438 0.23433 0.01508 0.0
C1821 C 0.77276 0.25213 0.9937 0.0
C1822 C 0.71614 0.21574 0.02695 0.0
C1823 C 0.71613 0.19552 0.02968 0.0
C1824 C 0.75286 0.23277 0.00613 0.0
C1825 C 0.73492 0.19468 0.0204 0.0
C1826 C 0.79265 0.25166 0.98993 0.0
C1827 C 0.78989 0.28878 0.9745 0.0
N1828 N 0.75248 0.21301 0.00916 0.0
N1829 N 0.77201 0.27066 0.98583 0.0
H1830 H 0.53728 0.82664 0.5123 0.0
H1831 H 0.53689 0.7145 0.49168 0.0
H1832 H 0.51156 0.79029 0.43713 0.0
H1833 H 0.51063 0.72499 0.56649 0.0
H1834 H 0.53525 0.74605 0.4711 0.0
H1835 H 0.53513 0.79322 0.5329 0.0
C1836 C 0.53118 0.81161 0.50017 0.0
C1837 C 0.52452 0.81114 0.47302 0.0
C1838 C 0.52976 0.74133 0.49196 0.0
C1839 C 0.52259 0.77327 0.49619 0.0
C1840 C 0.53078 0.72346 0.50374 0.0
C1841 C 0.52382 0.71716 0.53078 0.0
C1842 C 0.52246 0.75341 0.50763 0.0
C1843 C 0.51601 0.72927 0.54553 0.0
C1844 C 0.52987 0.79261 0.51195 0.0
C1845 C 0.51671 0.79126 0.45818 0.0
N1846 N 0.51586 0.74708 0.5339 0.0
N1847 N 0.51628 0.77317 0.46983 0.0
H1848 H 0.37474 0.42767 0.04181 0.0
H1849 H 0.45617 0.39776 0.12495 0.0
H1850 H 0.40069 0.45461 0.12162 0.0
H1851 H 0.4322 0.3747 0.04333 0.0
H1852 H 0.43615 0.41866 0.12463 0.0
H1853 H 0.3958 0.40814 0.04257 0.0
C1854 C 0.38487 0.42953 0.05954 0.0
C1855 C 0.38582 0.44283 0.08173 0.0
C1856 C 0.43532 0.40903 0.10682 0.0
C1857 C 0.41015 0.42031 0.08271 0.0
C1858 C 0.44675 0.39707 0.10697 0.0
C1859 C 0.44587 0.38432 0.08418 0.0
C1860 C 0.42289 0.40822 0.08373 0.0
C1861 C 0.43338 0.38416 0.06146 0.0
C1862 C 0.39695 0.41833 0.05994 0.0
C1863 C 0.39938 0.44455 0.10404 0.0
N1864 N 0.42241 0.39585 0.06187 0.0
N1865 N 0.41096 0.43338 0.10399 0.0
H1866 H 0.06276 0.43097 0.54107 0.0
H1867 H 0.95086 0.40057 0.62302 0.0
H1868 H 0.06323 0.45441 0.62287 0.0
H1869 H 0.95234 0.37477 0.54328 0.0
H1870 H 0.99175 0.42148 0.62313 0.0
H1871 H 0.02223 0.41145 0.54143 0.0
C1872 C 0.05439 0.43205 0.55919 0.0
C1873 C 0.0666 0.44437 0.58205 0.0
C1874 C 0.98309 0.41125 0.60563 0.0
C1875 C 0.01974 0.42187 0.5825 0.0
C1876 C 0.95972 0.3993 0.60551 0.0
C1877 C 0.94801 0.38576 0.58313 0.0
C1878 C 0.99489 0.40973 0.58319 0.0
C1879 C 0.9605 0.38486 0.56106 0.0
C1880 C 0.03113 0.42084 0.55935 0.0
C1881 C 0.0546 0.44511 0.6048 0.0
N1882 N 0.98317 0.39663 0.56168 0.0
N1883 N 0.03184 0.434 0.60445 0.0
H1884 H 0.57751 0.9477 0.04415 0.0
H1885 H 0.61123 0.05951 0.12836 0.0
H1886 H 0.5555 0.94682 0.12683 0.0
H1887 H 0.63318 0.05775 0.04638 0.0
H1888 H 0.59023 0.01855 0.12861 0.0
H1889 H 0.5974 0.9882 0.04505 0.0
C1890 C 0.57682 0.95598 0.06257 0.0
C1891 C 0.56478 0.94367 0.0855 0.0
C1892 C 0.59967 0.0272 0.11061 0.0
C1893 C 0.58774 0.99051 0.08661 0.0
C1894 C 0.61167 0.05059 0.11044 0.0
C1895 C 0.6241 0.06222 0.08734 0.0
C1896 C 0.60007 0.01535 0.08752 0.0
C1897 C 0.62396 0.04967 0.06471 0.0
C1898 C 0.58824 0.97923 0.06305 0.0
C1899 C 0.56456 0.95555 0.10867 0.0
N1900 N 0.61219 0.02703 0.06541 0.0
N1901 N 0.57588 0.97831 0.10865 0.0
H1902 H 0.63471 0.57939 0.54018 0.0
H1903 H 0.5539 0.60981 0.62394 0.0
H1904 H 0.60875 0.55237 0.61995 0.0
H1905 H 0.57805 0.63318 0.54247 0.0
H1906 H 0.5737 0.5887 0.62338 0.0
H1907 H 0.61393 0.59921 0.54121 0.0
C1908 C 0.62464 0.57758 0.55796 0.0
C1909 C 0.6236 0.56416 0.58006 0.0
C1910 C 0.57461 0.59845 0.60565 0.0
C1911 C 0.5996 0.58701 0.58134 0.0
C1912 C 0.56332 0.61053 0.60595 0.0
C1913 C 0.56431 0.62342 0.58326 0.0
C1914 C 0.58702 0.59927 0.58253 0.0
C1915 C 0.57679 0.62361 0.56052 0.0
C1916 C 0.61272 0.58893 0.55851 0.0
C1917 C 0.61012 0.56251 0.60244 0.0
N1918 N 0.58763 0.61179 0.56078 0.0
N1919 N 0.5987 0.57383 0.60254 0.0
H1920 H 0.9477 0.57362 0.04292 0.0
H1921 H 0.06045 0.60668 0.12441 0.0
H1922 H 0.94803 0.5526 0.1258 0.0
H1923 H 0.05808 0.63024 0.04358 0.0
H1924 H 0.01957 0.58554 0.12508 0.0
H1925 H 0.98822 0.59309 0.0427 0.0
C1926 C 0.95624 0.57305 0.06115 0.0
C1927 C 0.94426 0.56144 0.0845 0.0
C1928 C 0.02804 0.59533 0.10721 0.0
C1929 C 0.99112 0.58391 0.08427 0.0
C1930 C 0.05141 0.60741 0.10678 0.0
C1931 C 0.06286 0.6204 0.08392 0.0
C1932 C 0.01598 0.59615 0.08462 0.0
C1933 C 0.05012 0.6206 0.06171 0.0
C1934 C 0.9795 0.58424 0.06097 0.0
C1935 C 0.95649 0.56134 0.10736 0.0
N1936 N 0.02746 0.60871 0.06266 0.0
N1937 N 0.97924 0.57243 0.10668 0.0
H1938 H 0.43156 0.05769 0.54231 0.0
H1939 H 0.39733 0.9461 0.62721 0.0
H1940 H 0.45306 0.0588 0.62531 0.0
H1941 H 0.37619 0.94769 0.54474 0.0
H1942 H 0.41832 0.98707 0.62735 0.0
H1943 H 0.41176 0.0172 0.54332 0.0
C1944 C 0.43215 0.04947 0.56082 0.0
C1945 C 0.44402 0.06184 0.58381 0.0
C1946 C 0.40906 0.97838 0.60927 0.0
C1947 C 0.42116 0.01501 0.58505 0.0
C1948 C 0.39707 0.95499 0.60915 0.0
C1949 C 0.38487 0.94331 0.58595 0.0
C1950 C 0.40888 0.99018 0.58602 0.0
C1951 C 0.38523 0.95581 0.56316 0.0
C1952 C 0.42078 0.02622 0.56137 0.0
C1953 C 0.44413 0.05002 0.6071 0.0
N1954 N 0.39698 0.97845 0.56382 0.0
N1955 N 0.43285 0.02726 0.60714 0.0
H1956 H 0.55386 0.6097 0.87861 0.0
H1957 H 0.63474 0.5776 0.95912 0.0
H1958 H 0.57858 0.63203 0.96018 0.0
H1959 H 0.60879 0.55245 0.87873 0.0
H1960 H 0.61401 0.59748 0.95949 0.0
H1961 H 0.57353 0.58851 0.87796 0.0
C1962 C 0.56337 0.61017 0.89639 0.0
C1963 C 0.56457 0.6228 0.91945 0.0
C1964 C 0.6128 0.58761 0.94175 0.0
C1965 C 0.58716 0.59853 0.91878 0.0
C1966 C 0.62469 0.57621 0.94149 0.0
C1967 C 0.62364 0.56332 0.9188 0.0
C1968 C 0.59969 0.58622 0.91914 0.0
C1969 C 0.61018 0.56219 0.89666 0.0
C1970 C 0.5746 0.59804 0.89599 0.0
C1971 C 0.57716 0.62266 0.94187 0.0
N1972 N 0.59879 0.57353 0.89737 0.0
N1973 N 0.58795 0.61079 0.94093 0.0
H1974 H 0.94785 0.57734 0.46078 0.0
H1975 H 0.06017 0.6061 0.38079 0.0
H1976 H 0.94829 0.55055 0.38133 0.0
H1977 H 0.0587 0.63275 0.45996 0.0
H1978 H 0.01934 0.58499 0.38083 0.0
H1979 H 0.9885 0.59709 0.46095 0.0
C1980 C 0.95645 0.57557 0.44332 0.0
C1981 C 0.9445 0.56226 0.42093 0.0
C1982 C 0.02798 0.59544 0.39819 0.0
C1983 C 0.99133 0.58496 0.42108 0.0
C1984 C 0.05132 0.60752 0.39821 0.0
C1985 C 0.06301 0.62136 0.42036 0.0
C1986 C 0.01616 0.59717 0.42049 0.0
C1987 C 0.05053 0.62242 0.44235 0.0
C1988 C 0.97973 0.58688 0.44347 0.0
C1989 C 0.95672 0.56063 0.39902 0.0
N1990 N 0.02785 0.61055 0.44181 0.0
N1991 N 0.97944 0.57187 0.39963 0.0
H1992 H 0.45432 0.0593 0.87499 0.0
H1993 H 0.37533 0.94781 0.95921 0.0
H1994 H 0.43074 0.05786 0.95697 0.0
H1995 H 0.39685 0.94661 0.87682 0.0
H1996 H 0.39618 0.9883 0.95823 0.0
H1997 H 0.43409 0.01834 0.87481 0.0
C1998 C 0.44494 0.05045 0.89294 0.0
C1999 C 0.44425 0.06217 0.91601 0.0
C2000 C 0.3964 0.97926 0.94031 0.0
C2001 C 0.42108 0.01529 0.91589 0.0
C2002 C 0.38443 0.95601 0.94083 0.0
C2003 C 0.38421 0.94361 0.91802 0.0
C2004 C 0.40837 0.99045 0.91681 0.0
C2005 C 0.39648 0.95541 0.89489 0.0
C2006 C 0.43339 0.02705 0.8928 0.0
C2007 C 0.4318 0.04971 0.93865 0.0
N2008 N 0.40805 0.97817 0.89487 0.0
N2009 N 0.42077 0.02706 0.93798 0.0
H2010 H 0.37583 0.42866 0.45953 0.0
H2011 H 0.45548 0.39582 0.37737 0.0
H2012 H 0.40129 0.45388 0.379 0.0
H2013 H 0.43123 0.37359 0.45912 0.0
H2014 H 0.43606 0.41728 0.37719 0.0
H2015 H 0.39631 0.40855 0.4593 0.0
C2016 C 0.38573 0.43002 0.44175 0.0
C2017 C 0.38671 0.443 0.41919 0.0
C2018 C 0.43503 0.4077 0.39514 0.0
C2019 C 0.41036 0.41981 0.41884 0.0
C2020 C 0.44611 0.39542 0.39528 0.0
C2021 C 0.44498 0.38275 0.41826 0.0
C2022 C 0.42271 0.40732 0.41814 0.0
C2023 C 0.43259 0.38298 0.44086 0.0
C2024 C 0.39747 0.41849 0.44166 0.0
C2025 C 0.39997 0.44408 0.39684 0.0
N2026 N 0.42196 0.395 0.44018 0.0
N2027 N 0.41123 0.4326 0.39721 0.0
H2028 H 0.05944 0.42778 0.96359 0.0
H2029 H 0.94831 0.40012 0.8815 0.0
H2030 H 0.06018 0.45481 0.88393 0.0
H2031 H 0.94867 0.37356 0.96112 0.0
H2032 H 0.98915 0.42101 0.88225 0.0
H2033 H 0.01882 0.40863 0.96324 0.0
C2034 C 0.05112 0.42971 0.94597 0.0
C2035 C 0.0634 0.44283 0.92362 0.0
C2036 C 0.98026 0.41063 0.89956 0.0
C2037 C 0.01658 0.42082 0.92316 0.0
C2038 C 0.95691 0.39868 0.89916 0.0
C2039 C 0.94491 0.38491 0.92122 0.0
C2040 C 0.99176 0.40885 0.92217 0.0
C2041 C 0.95708 0.38382 0.94355 0.0
C2042 C 0.02784 0.41874 0.94581 0.0
C2043 C 0.05151 0.44473 0.90151 0.0
N2044 N 0.97976 0.39556 0.9434 0.0
N2045 N 0.02879 0.43382 0.90182 0.0
H2046 H 0.57933 0.94945 0.46166 0.0
H2047 H 0.61467 0.06172 0.37772 0.0
H2048 H 0.55847 0.94914 0.37854 0.0
H2049 H 0.63493 0.05962 0.4605 0.0
H2050 H 0.59354 0.02079 0.37725 0.0
H2051 H 0.59925 0.98998 0.46117 0.0
C2052 C 0.5789 0.95786 0.44324 0.0
C2053 C 0.56717 0.94571 0.42006 0.0
C2054 C 0.60262 0.02935 0.39548 0.0
C2055 C 0.59016 0.99255 0.41941 0.0
C2056 C 0.6147 0.05273 0.39579 0.0
C2057 C 0.62671 0.06426 0.41917 0.0
C2058 C 0.60253 0.01739 0.41871 0.0
C2059 C 0.62605 0.05162 0.44195 0.0
C2060 C 0.59033 0.98112 0.44299 0.0
C2061 C 0.56728 0.95774 0.39688 0.0
N2062 N 0.61422 0.02897 0.44111 0.0
N2063 N 0.57861 0.9805 0.39714 0.0
H2064 H 0.494 0.62842 0.00572 0.0
H2065 H 0.38 0.511 0.99568 0.0
H2066 H 0.46522 0.59491 0.92955 0.0
H2067 H 0.41035 0.54433 0.07141 0.0
H2068 H 0.40981 0.54252 0.97078 0.0
H2069 H 0.4622 0.5986 0.02987 0.0
C2070 C 0.48098 0.61488 0.99403 0.0
C2071 C 0.48241 0.61423 0.96551 0.0
C2072 C 0.40983 0.54294 0.99286 0.0
C2073 C 0.44587 0.5799 0.99314 0.0
C2074 C 0.39277 0.52496 0.00709 0.0
C2075 C 0.3926 0.5249 0.03574 0.0
C2076 C 0.42683 0.56099 0.00735 0.0
C2077 C 0.4097 0.54351 0.04937 0.0
C2078 C 0.4628 0.59782 0.00786 0.0
C2079 C 0.46494 0.59618 0.95153 0.0
N2080 N 0.42609 0.56069 0.03508 0.0
N2081 N 0.44747 0.57973 0.96548 0.0
H2082 H 0.87212 0.37815 0.49684 0.0
H2083 H 0.86822 0.49197 0.50475 0.0
H2084 H 0.87113 0.41007 0.57217 0.0
H2085 H 0.87067 0.46108 0.42922 0.0
H2086 H 0.86687 0.46075 0.52974 0.0
H2087 H 0.86925 0.40712 0.47159 0.0
C2088 C 0.87115 0.39111 0.5081 0.0
C2089 C 0.87192 0.39161 0.53672 0.0
C2090 C 0.86758 0.46076 0.50768 0.0
C2091 C 0.86872 0.4249 0.50791 0.0
C2092 C 0.86831 0.47859 0.49338 0.0
C2093 C 0.86962 0.47927 0.46479 0.0
C2094 C 0.8682 0.44346 0.49334 0.0
C2095 C 0.86972 0.46138 0.45123 0.0
C2096 C 0.86955 0.40768 0.49366 0.0
C2097 C 0.87063 0.40891 0.55015 0.0
N2098 N 0.86911 0.44431 0.46561 0.0
N2099 N 0.86918 0.42485 0.53565 0.0
H2100 H 0.41353 0.8739 0.93035 0.0
H2101 H 0.46466 0.87229 0.07578 0.0
H2102 H 0.38026 0.86988 0.00649 0.0
H2103 H 0.49418 0.86985 0.99911 0.0
H2104 H 0.43361 0.8712 0.05097 0.0
H2105 H 0.443 0.87229 0.95538 0.0
C2106 C 0.41231 0.87258 0.95236 0.0
C2107 C 0.39424 0.87199 0.96628 0.0
C2108 C 0.44682 0.87079 0.03958 0.0
C2109 C 0.42831 0.87028 0.9952 0.0
C2110 C 0.46461 0.8714 0.05372 0.0
C2111 C 0.48217 0.87115 0.03955 0.0
C2112 C 0.44653 0.87005 0.01098 0.0
C2113 C 0.48107 0.87005 0.01096 0.0
C2114 C 0.42923 0.87166 0.96665 0.0
C2115 C 0.39379 0.87034 0.99485 0.0
N2116 N 0.46362 0.86963 0.99764 0.0
N2117 N 0.41062 0.86963 0.00837 0.0
H2118 H 0.51562 0.37759 0.50414 0.0
H2119 H 0.62902 0.49551 0.49356 0.0
H2120 H 0.54413 0.4109 0.42778 0.0
H2121 H 0.59857 0.46251 0.56941 0.0
H2122 H 0.59938 0.46375 0.46878 0.0
H2123 H 0.54727 0.40772 0.52814 0.0
C2124 C 0.52856 0.39115 0.49237 0.0
C2125 C 0.5271 0.39166 0.46386 0.0
C2126 C 0.5993 0.46346 0.49086 0.0
C2127 C 0.56344 0.42634 0.4913 0.0
C2128 C 0.61625 0.48158 0.50502 0.0
C2129 C 0.61636 0.48179 0.53367 0.0
C2130 C 0.58234 0.44543 0.50542 0.0
C2131 C 0.59928 0.46323 0.54737 0.0
C2132 C 0.54664 0.40839 0.50611 0.0
C2133 C 0.54444 0.40974 0.44977 0.0
N2134 N 0.583 0.44591 0.53315 0.0
N2135 N 0.56183 0.42637 0.46363 0.0
H2136 H 0.13642 0.54301 0.92687 0.0
H2137 H 0.1405 0.59763 0.07184 0.0
H2138 H 0.14162 0.5158 0.00404 0.0
H2139 H 0.13651 0.627 0.99581 0.0
H2140 H 0.14287 0.56878 0.04665 0.0
H2141 H 0.13832 0.57481 0.95102 0.0
C2142 C 0.13811 0.54374 0.94887 0.0
C2143 C 0.13878 0.52656 0.96342 0.0
C2144 C 0.1416 0.58155 0.03537 0.0
C2145 C 0.14088 0.56301 0.99116 0.0
C2146 C 0.14027 0.59817 0.04979 0.0
C2147 C 0.13828 0.6149 0.03599 0.0
C2148 C 0.14081 0.58139 0.0068 0.0
C2149 C 0.13804 0.61449 0.00734 0.0
C2150 C 0.13917 0.56194 0.96262 0.0
C2151 C 0.14099 0.52854 0.9919 0.0
N2152 N 0.13916 0.59791 0.99368 0.0
N2153 N 0.14186 0.54635 0.00478 0.0
H2154 H 0.54389 0.13282 0.57436 0.0
H2155 H 0.59843 0.13568 0.4297 0.0
H2156 H 0.5154 0.13653 0.49747 0.0
H2157 H 0.62947 0.13701 0.50667 0.0
H2158 H 0.56825 0.13649 0.45419 0.0
H2159 H 0.57547 0.13479 0.54996 0.0
C2160 C 0.54426 0.13415 0.55234 0.0
C2161 C 0.52685 0.13452 0.53799 0.0
C2162 C 0.5817 0.13672 0.46575 0.0
C2163 C 0.56315 0.13667 0.50985 0.0
C2164 C 0.59902 0.13627 0.45177 0.0
C2165 C 0.61664 0.13629 0.4661 0.0
C2166 C 0.58181 0.13707 0.49435 0.0
C2167 C 0.61631 0.13701 0.49472 0.0
C2168 C 0.56238 0.13527 0.53841 0.0
C2169 C 0.52839 0.13621 0.50944 0.0
N2170 N 0.59913 0.13728 0.50788 0.0
N2171 N 0.54617 0.13714 0.49632 0.0
H2172 H 0.51521 0.37785 0.99667 0.0
H2173 H 0.63009 0.49479 0.00448 0.0
H2174 H 0.54465 0.41262 0.07198 0.0
H2175 H 0.59728 0.4625 0.92927 0.0
H2176 H 0.60044 0.46345 0.02982 0.0
H2177 H 0.54674 0.40748 0.97176 0.0
C2178 C 0.52831 0.39161 0.008 0.0
C2179 C 0.52717 0.39267 0.0365 0.0
C2180 C 0.59984 0.46323 0.00775 0.0
C2181 C 0.56335 0.42672 0.00808 0.0
C2182 C 0.6168 0.4811 0.99327 0.0
C2183 C 0.61625 0.48139 0.96466 0.0
C2184 C 0.58223 0.4455 0.99353 0.0
C2185 C 0.59851 0.46313 0.95128 0.0
C2186 C 0.54631 0.40856 0.99376 0.0
C2187 C 0.54471 0.411 0.05003 0.0
N2188 N 0.58226 0.44603 0.9658 0.0
N2189 N 0.562 0.42728 0.03572 0.0
H2190 H 0.13792 0.62875 0.50688 0.0
H2191 H 0.1426 0.51539 0.4966 0.0
H2192 H 0.13974 0.5977 0.43119 0.0
H2193 H 0.13746 0.5438 0.57288 0.0
H2194 H 0.14409 0.54701 0.47257 0.0
H2195 H 0.14027 0.59927 0.53181 0.0
C2196 C 0.13899 0.6159 0.49549 0.0
C2197 C 0.13859 0.61578 0.46686 0.0
C2198 C 0.14273 0.54637 0.49459 0.0
C2199 C 0.14121 0.58197 0.49522 0.0
C2200 C 0.1419 0.5283 0.50834 0.0
C2201 C 0.13985 0.52682 0.53684 0.0
C2202 C 0.14147 0.56313 0.50937 0.0
C2203 C 0.13901 0.54413 0.5509 0.0
C2204 C 0.14028 0.59904 0.50973 0.0
C2205 C 0.13996 0.5986 0.45322 0.0
N2206 N 0.13975 0.5615 0.53703 0.0
N2207 N 0.14114 0.58243 0.4675 0.0
H2208 H 0.62865 0.13525 0.99767 0.0
H2209 H 0.5128 0.13535 0.00526 0.0
H2210 H 0.59452 0.13171 0.07293 0.0
H2211 H 0.54351 0.13203 0.92999 0.0
H2212 H 0.54388 0.13647 0.03046 0.0
H2213 H 0.59877 0.1365 0.97248 0.0
C2214 C 0.61498 0.13483 0.00893 0.0
C2215 C 0.61419 0.13337 0.0375 0.0
C2216 C 0.54381 0.13556 0.00841 0.0
C2217 C 0.57988 0.13478 0.00877 0.0
C2218 C 0.52608 0.13497 0.994 0.0
C2219 C 0.52546 0.1336 0.96542 0.0
C2220 C 0.56109 0.13484 0.99417 0.0
C2221 C 0.54318 0.13309 0.95199 0.0
C2222 C 0.59788 0.13551 0.99453 0.0
C2223 C 0.59595 0.13284 0.05093 0.0
N2224 N 0.56021 0.1337 0.96646 0.0
N2225 N 0.57956 0.13353 0.03647 0.0
H2226 H 0.46473 0.59538 0.57392 0.0
H2227 H 0.41255 0.54482 0.42802 0.0
H2228 H 0.49386 0.62832 0.4976 0.0
H2229 H 0.38162 0.51279 0.50412 0.0
H2230 H 0.44161 0.57604 0.45334 0.0
H2231 H 0.43359 0.56573 0.54891 0.0
C2232 C 0.46458 0.5965 0.5519 0.0
C2233 C 0.48207 0.61448 0.53788 0.0
C2234 C 0.42842 0.56227 0.46454 0.0
C2235 C 0.4463 0.5803 0.50907 0.0
C2236 C 0.41172 0.54435 0.45008 0.0
C2237 C 0.39449 0.52601 0.46391 0.0
C2238 C 0.42809 0.56195 0.49314 0.0
C2239 C 0.39451 0.52652 0.49255 0.0
C2240 C 0.44673 0.57949 0.53763 0.0
C2241 C 0.48082 0.61486 0.50932 0.0
N2242 N 0.41111 0.54414 0.5062 0.0
N2243 N 0.4633 0.59799 0.49588 0.0
H2244 H 0.86767 0.40834 0.93097 0.0
H2245 H 0.87307 0.46257 0.0765 0.0
H2246 H 0.87063 0.37819 0.00686 0.0
H2247 H 0.86706 0.49032 1.00017 0.0
H2248 H 0.87082 0.43095 0.05178 0.0
H2249 H 0.8659 0.43749 0.95637 0.0
C2250 C 0.86777 0.40768 0.95303 0.0
C2251 C 0.86932 0.39065 0.96674 0.0
C2252 C 0.86988 0.44389 0.04046 0.0
C2253 C 0.86749 0.42447 0.99612 0.0
C2254 C 0.87116 0.46202 0.05455 0.0
C2255 C 0.87029 0.47928 0.04043 0.0
C2256 C 0.86779 0.44293 0.01197 0.0
C2257 C 0.86782 0.47749 0.01197 0.0
C2258 C 0.86679 0.42446 0.96754 0.0
C2259 C 0.86942 0.39091 0.99538 0.0
N2260 N 0.86675 0.45972 0.99871 0.0
N2261 N 0.86866 0.40764 0.00912 0.0
H2262 H 0.46688 0.87479 0.42789 0.0
H2263 H 0.41364 0.87297 0.57308 0.0
H2264 H 0.49518 0.87068 0.50473 0.0
H2265 H 0.38138 0.87087 0.49679 0.0
H2266 H 0.44338 0.87191 0.54807 0.0
H2267 H 0.4354 0.87313 0.45242 0.0
C2268 C 0.46648 0.87343 0.44991 0.0
C2269 C 0.48382 0.87288 0.46423 0.0
C2270 C 0.42977 0.87158 0.53674 0.0
C2271 C 0.44771 0.87109 0.49246 0.0
C2272 C 0.41269 0.87218 0.55103 0.0
C2273 C 0.39483 0.87198 0.53707 0.0
C2274 C 0.42925 0.87092 0.50815 0.0
C2275 C 0.39474 0.87101 0.50845 0.0
C2276 C 0.44844 0.87249 0.46389 0.0
C2277 C 0.48227 0.87114 0.49277 0.0
N2278 N 0.41174 0.8706 0.49493 0.0
N2279 N 0.4646 0.8704 0.50591 0.0
loop_
_geom_bond_atom_site_label_1
_geom_bond_atom_site_label_2
_geom_bond_distance
_geom_bond_site_symmetry_2
_ccdc_geom_bond_type
Co0 O2 2.143 . S
Co0 O8 2.074 . S
Co0 O11 2.093 . S
Co0 O24 2.097 . S
Co0 N41 2.151 . S
Co0 N49 2.214 . S
Co1 O2 2.160 . S
Co1 O7 2.058 . S
Co1 O17 2.057 . S
Co1 O32 2.037 . S
Co1 N36 2.145 . S
Co1 N57 2.257 . S
O2 Co0 2.143 . S
O2 Co1 2.160 . S
C3 O4 1.278 . S
C3 O11 1.224 . S
O4 C3 1.278 . S
C5 O6 1.245 . S
C5 O17 1.232 . S
O6 C5 1.245 . S
O7 Co1 2.058 . S
O7 C33 1.269 . S
O8 Co0 2.074 . S
O8 C33 1.257 . S
H9 C34 0.930 . S
H10 C40 0.930 . S
O11 Co0 2.093 . S
O11 C3 1.224 . S
H12 C44 0.929 . S
H13 C46 0.930 . S
H14 C47 0.930 . S
H15 C45 0.929 . S
H16 C48 0.928 . S
O17 Co1 2.057 . S
O17 C5 1.232 . S
H18 C37 0.929 1_554 S
H19 C38 0.929 1_554 S
H20 C50 0.931 . S
H21 C42 0.929 . S
H22 C51 0.930 . S
H23 C43 0.931 . S
O24 Co0 2.097 . S
O24 C52 1.214 . S
H25 C53 0.929 . S
H26 C54 0.929 . S
H27 C55 0.930 . S
H28 C56 0.929 . S
H29 C58 0.930 . S
H30 C35 0.930 . S
H31 C39 0.930 . S
O32 Co1 2.037 . S
O32 C52 1.234 . S
C33 O7 1.269 . S
C33 O8 1.257 . S
C34 H9 0.930 . S
C34 C37 1.388 . S
C34 C39 1.418 . S
C35 H30 0.930 . S
C35 C38 1.404 . S
C35 C39 1.353 . S
N36 Co1 2.145 . S
N36 C37 1.397 1_554 S
N36 C38 1.334 1_554 S
C37 H18 0.929 1_556 S
C37 C34 1.388 . S
C37 N36 1.397 1_556 S
C38 H19 0.929 1_556 S
C38 C35 1.404 . S
C38 N36 1.334 1_556 S
C39 H31 0.930 . S
C39 C34 1.418 . S
C39 C35 1.353 . S
C40 H10 0.930 . S
C40 N41 1.330 . S
C40 C42 1.446 . S
N41 Co0 2.151 . S
N41 C40 1.330 . S
N41 C45 1.418 . S
C42 H21 0.929 . S
C42 C40 1.446 . S
C42 C43 1.332 . S
C43 H23 0.931 . S
C43 C42 1.332 . S
C43 C44 1.267 . S
C44 H12 0.929 . S
C44 C43 1.267 . S
C44 C45 1.251 . S
C45 H15 0.929 . S
C45 N41 1.418 . S
C45 C44 1.251 . S
C46 H13 0.930 . S
C46 C48 1.406 . S
C46 C51 1.261 . S
C47 H14 0.930 . S
C47 N49 1.325 . S
C47 C50 1.357 . S
C48 H16 0.928 . S
C48 C46 1.406 . S
C48 N49 1.261 . S
N49 Co0 2.214 . S
N49 C47 1.325 . S
N49 C48 1.261 . S
C50 H20 0.931 . S
C50 C47 1.357 . S
C50 C51 1.312 . S
C51 H22 0.930 . S
C51 C46 1.261 . S
C51 C50 1.312 . S
C52 O24 1.214 . S
C52 O32 1.234 . S
C53 H25 0.929 . S
C53 C56 1.391 . S
C53 C58 1.391 . S
C54 H26 0.929 . S
C54 C55 1.390 . S
C54 N57 1.391 . S
C55 H27 0.930 . S
C55 C54 1.390 . S
C55 C56 1.392 . S
C56 H28 0.929 . S
C56 C53 1.391 . S
C56 C55 1.392 . S
N57 Co1 2.257 . S
N57 C54 1.391 . S
N57 C58 1.388 . S
C58 H29 0.930 . S
C58 C53 1.391 . S
C58 N57 1.388 . S
Co59 O61 2.143 . S
Co59 O67 2.074 . S
Co59 O70 2.093 . S
Co59 O83 2.097 . S
Co59 N100 2.151 . S
Co59 N108 2.214 . S
Co60 O61 2.160 . S
Co60 O66 2.058 . S
Co60 O76 2.057 . S
Co60 O91 2.037 . S
Co60 N95 2.145 . S
Co60 N116 2.257 . S
O61 Co59 2.143 . S
O61 Co60 2.160 . S
C62 O63 1.278 . S
C62 O70 1.224 . S
O63 C62 1.278 . S
C64 O65 1.245 . S
C64 O76 1.232 . S
O65 C64 1.245 . S
O66 Co60 2.058 . S
O66 C92 1.269 . S
O67 Co59 2.074 . S
O67 C92 1.257 . S
H68 C93 0.930 . S
H69 C99 0.930 . S
O70 Co59 2.093 . S
O70 C62 1.224 . S
H71 C103 0.929 . S
H72 C105 0.930 . S
H73 C106 0.930 . S
H74 C104 0.929 . S
H75 C107 0.928 . S
O76 Co60 2.057 . S
O76 C64 1.232 . S
H77 C96 0.929 . S
H78 C97 0.929 . S
H79 C109 0.931 . S
H80 C101 0.929 . S
H81 C110 0.930 . S
H82 C102 0.931 . S
O83 Co59 2.097 . S
O83 C111 1.214 . S
H84 C112 0.929 . S
H85 C113 0.929 . S
H86 C114 0.930 . S
H87 C115 0.929 . S
H88 C117 0.930 . S
H89 C94 0.930 . S
H90 C98 0.930 . S
O91 Co60 2.037 . S
O91 C111 1.234 . S
C92 O66 1.269 . S
C92 O67 1.257 . S
C93 H68 0.930 . S
C93 C96 1.388 . S
C93 C98 1.418 . S
C94 H89 0.930 . S
C94 C97 1.404 . S
C94 C98 1.353 . S
N95 Co60 2.145 . S
N95 C96 1.397 . S
N95 C97 1.334 . S
C96 H77 0.929 . S
C96 C93 1.388 . S
C96 N95 1.397 . S
C97 H78 0.929 . S
C97 C94 1.404 . S
C97 N95 1.334 . S
C98 H90 0.930 . S
C98 C93 1.418 . S
C98 C94 1.353 . S
C99 H69 0.930 . S
C99 N100 1.330 . S
C99 C101 1.446 . S
N100 Co59 2.151 . S
N100 C99 1.330 . S
N100 C104 1.418 . S
C101 H80 0.929 . S
C101 C99 1.446 . S
C101 C102 1.332 . S
C102 H82 0.931 . S
C102 C101 1.332 . S
C102 C103 1.267 . S
C103 H71 0.929 . S
C103 C102 1.267 . S
C103 C104 1.251 . S
C104 H74 0.929 . S
C104 N100 1.418 . S
C104 C103 1.251 . S
C105 H72 0.930 . S
C105 C107 1.406 . S
C105 C110 1.261 . S
C106 H73 0.930 . S
C106 N108 1.325 . S
C106 C109 1.357 . S
C107 H75 0.928 . S
C107 C105 1.406 . S
C107 N108 1.261 . S
N108 Co59 2.214 . S
N108 C106 1.325 . S
N108 C107 1.261 . S
C109 H79 0.931 . S
C109 C106 1.357 . S
C109 C110 1.312 . S
C110 H81 0.930 . S
C110 C105 1.261 . S
C110 C109 1.312 . S
C111 O83 1.214 . S
C111 O91 1.234 . S
C112 H84 0.929 . S
C112 C115 1.391 . S
C112 C117 1.391 . S
C113 H85 0.929 . S
C113 C114 1.390 . S
C113 N116 1.391 . S
C114 H86 0.930 . S
C114 C113 1.390 . S
C114 C115 1.392 . S
C115 H87 0.929 . S
C115 C112 1.391 . S
C115 C114 1.392 . S
N116 Co60 2.257 . S
N116 C113 1.391 . S
N116 C117 1.388 . S
C117 H88 0.930 . S
C117 C112 1.391 . S
C117 N116 1.388 . S
Co118 O120 2.143 . S
Co118 O126 2.074 . S
Co118 O129 2.093 . S
Co118 O142 2.097 . S
Co118 N159 2.151 . S
Co118 N167 2.214 . S
Co119 O120 2.160 . S
Co119 O125 2.058 . S
Co119 O135 2.057 . S
Co119 O150 2.037 . S
Co119 N154 2.145 . S
Co119 N175 2.257 . S
O120 Co118 2.143 . S
O120 Co119 2.160 . S
C121 O122 1.278 . S
C121 O129 1.224 . S
O122 C121 1.278 . S
C123 O124 1.245 . S
C123 O135 1.232 . S
O124 C123 1.245 . S
O125 Co119 2.058 . S
O125 C151 1.269 . S
O126 Co118 2.074 . S
O126 C151 1.257 . S
H127 C152 0.930 . S
H128 C158 0.930 . S
O129 Co118 2.093 . S
O129 C121 1.224 . S
H130 C162 0.929 . S
H131 C164 0.930 . S
H132 C165 0.930 . S
H133 C163 0.929 . S
H134 C166 0.928 . S
O135 Co119 2.057 . S
O135 C123 1.232 . S
H136 C155 0.929 1_554 S
H137 C156 0.929 1_554 S
H138 C168 0.931 . S
H139 C160 0.929 . S
H140 C169 0.930 . S
H141 C161 0.931 . S
O142 Co118 2.097 . S
O142 C170 1.214 . S
H143 C171 0.929 . S
H144 C172 0.929 . S
H145 C173 0.930 . S
H146 C174 0.929 . S
H147 C176 0.930 . S
H148 C153 0.930 . S
H149 C157 0.930 . S
O150 Co119 2.037 . S
O150 C170 1.234 . S
C151 O125 1.269 . S
C151 O126 1.257 . S
C152 H127 0.930 . S
C152 C155 1.388 . S
C152 C157 1.418 . S
C153 H148 0.930 . S
C153 C156 1.404 . S
C153 C157 1.353 . S
N154 Co119 2.145 . S
N154 C155 1.397 1_554 S
N154 C156 1.334 1_554 S
C155 H136 0.929 1_556 S
C155 C152 1.388 . S
C155 N154 1.397 1_556 S
C156 H137 0.929 1_556 S
C156 C153 1.404 . S
C156 N154 1.334 1_556 S
C157 H149 0.930 . S
C157 C152 1.418 . S
C157 C153 1.353 . S
C158 H128 0.930 . S
C158 N159 1.330 . S
C158 C160 1.446 . S
N159 Co118 2.151 . S
N159 C158 1.330 . S
N159 C163 1.418 . S
C160 H139 0.929 . S
C160 C158 1.446 . S
C160 C161 1.332 . S
C161 H141 0.931 . S
C161 C160 1.332 . S
C161 C162 1.267 . S
C162 H130 0.929 . S
C162 C161 1.267 . S
C162 C163 1.251 . S
C163 H133 0.929 . S
C163 N159 1.418 . S
C163 C162 1.251 . S
C164 H131 0.930 . S
C164 C166 1.406 . S
C164 C169 1.261 . S
C165 H132 0.930 . S
C165 N167 1.325 . S
C165 C168 1.357 . S
C166 H134 0.928 . S
C166 C164 1.406 . S
C166 N167 1.261 . S
N167 Co118 2.214 . S
N167 C165 1.325 . S
N167 C166 1.261 . S
C168 H138 0.931 . S
C168 C165 1.357 . S
C168 C169 1.312 . S
C169 H140 0.930 . S
C169 C164 1.261 . S
C169 C168 1.312 . S
C170 O142 1.214 . S
C170 O150 1.234 . S
C171 H143 0.929 . S
C171 C174 1.391 . S
C171 C176 1.391 . S
C172 H144 0.929 . S
C172 C173 1.390 . S
C172 N175 1.391 . S
C173 H145 0.930 . S
C173 C172 1.390 . S
C173 C174 1.392 . S
C174 H146 0.929 . S
C174 C171 1.391 . S
C174 C173 1.392 . S
N175 Co119 2.257 . S
N175 C172 1.391 . S
N175 C176 1.388 . S
C176 H147 0.930 . S
C176 C171 1.391 . S
C176 N175 1.388 . S
Co177 O179 2.143 . S
Co177 O185 2.074 . S
Co177 O188 2.093 . S
Co177 O201 2.097 . S
Co177 N218 2.151 . S
Co177 N226 2.214 . S
Co178 O179 2.160 . S
Co178 O184 2.058 . S
Co178 O194 2.057 . S
Co178 O209 2.037 . S
Co178 N213 2.145 . S
Co178 N234 2.257 . S
O179 Co177 2.143 . S
O179 Co178 2.160 . S
C180 O181 1.278 . S
C180 O188 1.224 . S
O181 C180 1.278 . S
C182 O183 1.245 . S
C182 O194 1.232 . S
O183 C182 1.245 . S
O184 Co178 2.058 . S
O184 C210 1.269 . S
O185 Co177 2.074 . S
O185 C210 1.257 . S
H186 C211 0.930 . S
H187 C217 0.930 . S
O188 Co177 2.093 . S
O188 C180 1.224 . S
H189 C221 0.929 . S
H190 C223 0.930 . S
H191 C224 0.930 . S
H192 C222 0.929 . S
H193 C225 0.928 . S
O194 Co178 2.057 . S
O194 C182 1.232 . S
H195 C214 0.929 . S
H196 C215 0.929 . S
H197 C227 0.931 . S
H198 C219 0.929 . S
H199 C228 0.930 . S
H200 C220 0.931 . S
O201 Co177 2.097 . S
O201 C229 1.214 . S
H202 C230 0.929 . S
H203 C231 0.929 . S
H204 C232 0.930 . S
H205 C233 0.929 . S
H206 C235 0.930 . S
H207 C212 0.930 . S
H208 C216 0.930 . S
O209 Co178 2.037 . S
O209 C229 1.234 . S
C210 O184 1.269 . S
C210 O185 1.257 . S
C211 H186 0.930 . S
C211 C214 1.388 . S
C211 C216 1.418 . S
C212 H207 0.930 . S
C212 C215 1.404 . S
C212 C216 1.353 . S
N213 Co178 2.145 . S
N213 C214 1.397 . S
N213 C215 1.334 . S
C214 H195 0.929 . S
C214 C211 1.388 . S
C214 N213 1.397 . S
C215 H196 0.929 . S
C215 C212 1.404 . S
C215 N213 1.334 . S
C216 H208 0.930 . S
C216 C211 1.418 . S
C216 C212 1.353 . S
C217 H187 0.930 . S
C217 N218 1.330 . S
C217 C219 1.446 . S
N218 Co177 2.151 . S
N218 C217 1.330 . S
N218 C222 1.418 . S
C219 H198 0.929 . S
C219 C217 1.446 . S
C219 C220 1.332 . S
C220 H200 0.931 . S
C220 C219 1.332 . S
C220 C221 1.267 . S
C221 H189 0.929 . S
C221 C220 1.267 . S
C221 C222 1.251 . S
C222 H192 0.929 . S
C222 N218 1.418 . S
C222 C221 1.251 . S
C223 H190 0.930 . S
C223 C225 1.406 . S
C223 C228 1.261 . S
C224 H191 0.930 . S
C224 N226 1.325 . S
C224 C227 1.357 . S
C225 H193 0.928 . S
C225 C223 1.406 . S
C225 N226 1.261 . S
N226 Co177 2.214 . S
N226 C224 1.325 . S
N226 C225 1.261 . S
C227 H197 0.931 . S
C227 C224 1.357 . S
C227 C228 1.312 . S
C228 H199 0.930 . S
C228 C223 1.261 . S
C228 C227 1.312 . S
C229 O201 1.214 . S
C229 O209 1.234 . S
C230 H202 0.929 . S
C230 C233 1.391 . S
C230 C235 1.391 . S
C231 H203 0.929 . S
C231 C232 1.390 . S
C231 N234 1.391 . S
C232 H204 0.930 . S
C232 C231 1.390 . S
C232 C233 1.392 . S
C233 H205 0.929 . S
C233 C230 1.391 . S
C233 C232 1.392 . S
N234 Co178 2.257 . S
N234 C231 1.391 . S
N234 C235 1.388 . S
C235 H206 0.930 . S
C235 C230 1.391 . S
C235 N234 1.388 . S
Co236 O238 2.143 . S
Co236 O244 2.074 . S
Co236 O247 2.093 . S
Co236 O260 2.097 . S
Co236 N277 2.151 . S
Co236 N285 2.214 . S
Co237 O238 2.160 . S
Co237 O243 2.058 . S
Co237 O253 2.057 . S
Co237 O268 2.037 . S
Co237 N272 2.145 . S
Co237 N293 2.257 . S
O238 Co236 2.143 . S
O238 Co237 2.160 . S
C239 O240 1.278 . S
C239 O247 1.224 . S
O240 C239 1.278 . S
C241 O242 1.245 . S
C241 O253 1.232 . S
O242 C241 1.245 . S
O243 Co237 2.058 . S
O243 C269 1.269 . S
O244 Co236 2.074 . S
O244 C269 1.257 . S
H245 C270 0.930 . S
H246 C276 0.930 . S
O247 Co236 2.093 . S
O247 C239 1.224 . S
H248 C280 0.929 . S
H249 C282 0.930 . S
H250 C283 0.930 . S
H251 C281 0.929 . S
H252 C284 0.928 . S
O253 Co237 2.057 . S
O253 C241 1.232 . S
H254 C273 0.929 1_554 S
H255 C274 0.929 1_554 S
H256 C286 0.931 . S
H257 C278 0.929 . S
H258 C287 0.930 . S
H259 C279 0.931 . S
O260 Co236 2.097 . S
O260 C288 1.214 . S
H261 C289 0.929 . S
H262 C290 0.929 . S
H263 C291 0.930 . S
H264 C292 0.929 . S
H265 C294 0.930 . S
H266 C271 0.930 . S
H267 C275 0.930 . S
O268 Co237 2.037 . S
O268 C288 1.234 . S
C269 O243 1.269 . S
C269 O244 1.257 . S
C270 H245 0.930 . S
C270 C273 1.388 . S
C270 C275 1.418 . S
C271 H266 0.930 . S
C271 C274 1.404 . S
C271 C275 1.353 . S
N272 Co237 2.145 . S
N272 C273 1.397 1_554 S
N272 C274 1.334 1_554 S
C273 H254 0.929 1_556 S
C273 C270 1.388 . S
C273 N272 1.397 1_556 S
C274 H255 0.929 1_556 S
C274 C271 1.404 . S
C274 N272 1.334 1_556 S
C275 H267 0.930 . S
C275 C270 1.418 . S
C275 C271 1.353 . S
C276 H246 0.930 . S
C276 N277 1.330 . S
C276 C278 1.446 . S
N277 Co236 2.151 . S
N277 C276 1.330 . S
N277 C281 1.418 . S
C278 H257 0.929 . S
C278 C276 1.446 . S
C278 C279 1.332 . S
C279 H259 0.931 . S
C279 C278 1.332 . S
C279 C280 1.267 . S
C280 H248 0.929 . S
C280 C279 1.267 . S
C280 C281 1.251 . S
C281 H251 0.929 . S
C281 N277 1.418 . S
C281 C280 1.251 . S
C282 H249 0.930 . S
C282 C284 1.406 . S
C282 C287 1.261 . S
C283 H250 0.930 . S
C283 N285 1.325 . S
C283 C286 1.357 . S
C284 H252 0.928 . S
C284 C282 1.406 . S
C284 N285 1.261 . S
N285 Co236 2.214 . S
N285 C283 1.325 . S
N285 C284 1.261 . S
C286 H256 0.931 . S
C286 C283 1.357 . S
C286 C287 1.312 . S
C287 H258 0.930 . S
C287 C282 1.261 . S
C287 C286 1.312 . S
C288 O260 1.214 . S
C288 O268 1.234 . S
C289 H261 0.929 . S
C289 C292 1.391 . S
C289 C294 1.391 . S
C290 H262 0.929 . S
C290 C291 1.390 . S
C290 N293 1.391 . S
C291 H263 0.930 . S
C291 C290 1.390 . S
C291 C292 1.392 . S
C292 H264 0.929 . S
C292 C289 1.391 . S
C292 C291 1.392 . S
N293 Co237 2.257 . S
N293 C290 1.391 . S
N293 C294 1.388 . S
C294 H265 0.930 . S
C294 C289 1.391 . S
C294 N293 1.388 . S
Co295 O297 2.143 . S
Co295 O303 2.074 . S
Co295 O306 2.093 . S
Co295 O319 2.097 . S
Co295 N336 2.151 . S
Co295 N344 2.214 . S
Co296 O297 2.160 . S
Co296 O302 2.058 . S
Co296 O312 2.057 . S
Co296 O327 2.037 . S
Co296 N331 2.145 . S
Co296 N352 2.257 . S
O297 Co295 2.143 . S
O297 Co296 2.160 . S
C298 O299 1.278 . S
C298 O306 1.224 . S
O299 C298 1.278 . S
C300 O301 1.245 . S
C300 O312 1.232 . S
O301 C300 1.245 . S
O302 Co296 2.058 . S
O302 C328 1.269 . S
O303 Co295 2.074 . S
O303 C328 1.257 . S
H304 C329 0.930 . S
H305 C335 0.930 . S
O306 Co295 2.093 . S
O306 C298 1.224 . S
H307 C339 0.929 . S
H308 C341 0.930 . S
H309 C342 0.930 . S
H310 C340 0.929 . S
H311 C343 0.928 . S
O312 Co296 2.057 . S
O312 C300 1.232 . S
H313 C332 0.929 . S
H314 C333 0.929 . S
H315 C345 0.931 . S
H316 C337 0.929 . S
H317 C346 0.930 . S
H318 C338 0.931 . S
O319 Co295 2.097 . S
O319 C347 1.214 . S
H320 C348 0.929 . S
H321 C349 0.929 . S
H322 C350 0.930 . S
H323 C351 0.929 . S
H324 C353 0.930 . S
H325 C330 0.930 . S
H326 C334 0.930 . S
O327 Co296 2.037 . S
O327 C347 1.234 . S
C328 O302 1.269 . S
C328 O303 1.257 . S
C329 H304 0.930 . S
C329 C332 1.388 . S
C329 C334 1.418 . S
C330 H325 0.930 . S
C330 C333 1.404 . S
C330 C334 1.353 . S
N331 Co296 2.145 . S
N331 C332 1.397 . S
N331 C333 1.334 . S
C332 H313 0.929 . S
C332 C329 1.388 . S
C332 N331 1.397 . S
C333 H314 0.929 . S
C333 C330 1.404 . S
C333 N331 1.334 . S
C334 H326 0.930 . S
C334 C329 1.418 . S
C334 C330 1.353 . S
C335 H305 0.930 . S
C335 N336 1.330 . S
C335 C337 1.446 . S
N336 Co295 2.151 . S
N336 C335 1.330 . S
N336 C340 1.418 . S
C337 H316 0.929 . S
C337 C335 1.446 . S
C337 C338 1.332 . S
C338 H318 0.931 . S
C338 C337 1.332 . S
C338 C339 1.267 . S
C339 H307 0.929 . S
C339 C338 1.267 . S
C339 C340 1.251 . S
C340 H310 0.929 . S
C340 N336 1.418 . S
C340 C339 1.251 . S
C341 H308 0.930 . S
C341 C343 1.406 . S
C341 C346 1.261 . S
C342 H309 0.930 . S
C342 N344 1.325 . S
C342 C345 1.357 . S
C343 H311 0.928 . S
C343 C341 1.406 . S
C343 N344 1.261 . S
N344 Co295 2.214 . S
N344 C342 1.325 . S
N344 C343 1.261 . S
C345 H315 0.931 . S
C345 C342 1.357 . S
C345 C346 1.312 . S
C346 H317 0.930 . S
C346 C341 1.261 . S
C346 C345 1.312 . S
C347 O319 1.214 . S
C347 O327 1.234 . S
C348 H320 0.929 . S
C348 C351 1.391 . S
C348 C353 1.391 . S
C349 H321 0.929 . S
C349 C350 1.390 . S
C349 N352 1.391 . S
C350 H322 0.930 . S
C350 C349 1.390 . S
C350 C351 1.392 . S
C351 H323 0.929 . S
C351 C348 1.391 . S
C351 C350 1.392 . S
N352 Co296 2.257 . S
N352 C349 1.391 . S
N352 C353 1.388 . S
C353 H324 0.930 . S
C353 C348 1.391 . S
C353 N352 1.388 . S
Co354 O356 2.143 . S
Co354 O362 2.074 . S
Co354 O365 2.093 . S
Co354 O378 2.097 . S
Co354 N395 2.151 . S
Co354 N403 2.214 . S
Co355 O356 2.160 . S
Co355 O361 2.058 . S
Co355 O371 2.057 . S
Co355 O386 2.037 . S
Co355 N390 2.145 . S
Co355 N411 2.257 . S
O356 Co354 2.143 . S
O356 Co355 2.160 . S
C357 O358 1.278 . S
C357 O365 1.224 . S
O358 C357 1.278 . S
C359 O360 1.245 . S
C359 O371 1.232 . S
O360 C359 1.245 . S
O361 Co355 2.058 . S
O361 C387 1.269 . S
O362 Co354 2.074 . S
O362 C387 1.257 . S
H363 C388 0.930 . S
H364 C394 0.930 . S
O365 Co354 2.093 . S
O365 C357 1.224 . S
H366 C398 0.929 . S
H367 C400 0.930 . S
H368 C401 0.930 . S
H369 C399 0.929 . S
H370 C402 0.928 . S
O371 Co355 2.057 . S
O371 C359 1.232 . S
H372 C391 0.929 1_556 S
H373 C392 0.929 1_556 S
H374 C404 0.931 . S
H375 C396 0.929 . S
H376 C405 0.930 . S
H377 C397 0.931 . S
O378 Co354 2.097 . S
O378 C406 1.214 . S
H379 C407 0.929 . S
H380 C408 0.929 . S
H381 C409 0.930 . S
H382 C410 0.929 . S
H383 C412 0.930 . S
H384 C389 0.930 . S
H385 C393 0.930 . S
O386 Co355 2.037 . S
O386 C406 1.234 . S
C387 O361 1.269 . S
C387 O362 1.257 . S
C388 H363 0.930 . S
C388 C391 1.388 . S
C388 C393 1.418 . S
C389 H384 0.930 . S
C389 C392 1.404 . S
C389 C393 1.353 . S
N390 Co355 2.145 . S
N390 C391 1.397 1_556 S
N390 C392 1.334 1_556 S
C391 H372 0.929 1_554 S
C391 C388 1.388 . S
C391 N390 1.397 1_554 S
C392 H373 0.929 1_554 S
C392 C389 1.404 . S
C392 N390 1.334 1_554 S
C393 H385 0.930 . S
C393 C388 1.418 . S
C393 C389 1.353 . S
C394 H364 0.930 . S
C394 N395 1.330 . S
C394 C396 1.446 . S
N395 Co354 2.151 . S
N395 C394 1.330 . S
N395 C399 1.418 . S
C396 H375 0.929 . S
C396 C394 1.446 . S
C396 C397 1.332 . S
C397 H377 0.931 . S
C397 C396 1.332 . S
C397 C398 1.267 . S
C398 H366 0.929 . S
C398 C397 1.267 . S
C398 C399 1.251 . S
C399 H369 0.929 . S
C399 N395 1.418 . S
C399 C398 1.251 . S
C400 H367 0.930 . S
C400 C402 1.406 . S
C400 C405 1.261 . S
C401 H368 0.930 . S
C401 N403 1.325 . S
C401 C404 1.357 . S
C402 H370 0.928 . S
C402 C400 1.406 . S
C402 N403 1.261 . S
N403 Co354 2.214 . S
N403 C401 1.325 . S
N403 C402 1.261 . S
C404 H374 0.931 . S
C404 C401 1.357 . S
C404 C405 1.312 . S
C405 H376 0.930 . S
C405 C400 1.261 . S
C405 C404 1.312 . S
C406 O378 1.214 . S
C406 O386 1.234 . S
C407 H379 0.929 . S
C407 C410 1.391 . S
C407 C412 1.391 . S
C408 H380 0.929 . S
C408 C409 1.390 . S
C408 N411 1.391 . S
C409 H381 0.930 . S
C409 C408 1.390 . S
C409 C410 1.392 . S
C410 H382 0.929 . S
C410 C407 1.391 . S
C410 C409 1.392 . S
N411 Co355 2.257 . S
N411 C408 1.391 . S
N411 C412 1.388 . S
C412 H383 0.930 . S
C412 C407 1.391 . S
C412 N411 1.388 . S
Co413 O415 2.143 . S
Co413 O421 2.074 . S
Co413 O424 2.093 . S
Co413 O437 2.097 . S
Co413 N454 2.151 . S
Co413 N462 2.214 . S
Co414 O415 2.160 . S
Co414 O420 2.058 . S
Co414 O430 2.057 . S
Co414 O445 2.037 . S
Co414 N449 2.145 . S
Co414 N470 2.257 . S
O415 Co413 2.143 . S
O415 Co414 2.160 . S
C416 O417 1.278 . S
C416 O424 1.224 . S
O417 C416 1.278 . S
C418 O419 1.245 . S
C418 O430 1.232 . S
O419 C418 1.245 . S
O420 Co414 2.058 . S
O420 C446 1.269 . S
O421 Co413 2.074 . S
O421 C446 1.257 . S
H422 C447 0.930 . S
H423 C453 0.930 . S
O424 Co413 2.093 . S
O424 C416 1.224 . S
H425 C457 0.929 . S
H426 C459 0.930 . S
H427 C460 0.930 . S
H428 C458 0.929 . S
H429 C461 0.928 . S
O430 Co414 2.057 . S
O430 C418 1.232 . S
H431 C450 0.929 . S
H432 C451 0.929 . S
H433 C463 0.931 . S
H434 C455 0.929 . S
H435 C464 0.930 . S
H436 C456 0.931 . S
O437 Co413 2.097 . S
O437 C465 1.214 . S
H438 C466 0.929 . S
H439 C467 0.929 . S
H440 C468 0.930 . S
H441 C469 0.929 . S
H442 C471 0.930 . S
H443 C448 0.930 . S
H444 C452 0.930 . S
O445 Co414 2.037 . S
O445 C465 1.234 . S
C446 O420 1.269 . S
C446 O421 1.257 . S
C447 H422 0.930 . S
C447 C450 1.388 . S
C447 C452 1.418 . S
C448 H443 0.930 . S
C448 C451 1.404 . S
C448 C452 1.353 . S
N449 Co414 2.145 . S
N449 C450 1.397 . S
N449 C451 1.334 . S
C450 H431 0.929 . S
C450 C447 1.388 . S
C450 N449 1.397 . S
C451 H432 0.929 . S
C451 C448 1.404 . S
C451 N449 1.334 . S
C452 H444 0.930 . S
C452 C447 1.418 . S
C452 C448 1.353 . S
C453 H423 0.930 . S
C453 N454 1.330 . S
C453 C455 1.446 . S
N454 Co413 2.151 . S
N454 C453 1.330 . S
N454 C458 1.418 . S
C455 H434 0.929 . S
C455 C453 1.446 . S
C455 C456 1.332 . S
C456 H436 0.931 . S
C456 C455 1.332 . S
C456 C457 1.267 . S
C457 H425 0.929 . S
C457 C456 1.267 . S
C457 C458 1.251 . S
C458 H428 0.929 . S
C458 N454 1.418 . S
C458 C457 1.251 . S
C459 H426 0.930 . S
C459 C461 1.406 . S
C459 C464 1.261 . S
C460 H427 0.930 . S
C460 N462 1.325 . S
C460 C463 1.357 . S
C461 H429 0.928 . S
C461 C459 1.406 . S
C461 N462 1.261 . S
N462 Co413 2.214 . S
N462 C460 1.325 . S
N462 C461 1.261 . S
C463 H433 0.931 . S
C463 C460 1.357 . S
C463 C464 1.312 . S
C464 H435 0.930 . S
C464 C459 1.261 . S
C464 C463 1.312 . S
C465 O437 1.214 . S
C465 O445 1.234 . S
C466 H438 0.929 . S
C466 C469 1.391 . S
C466 C471 1.391 . S
C467 H439 0.929 . S
C467 C468 1.390 . S
C467 N470 1.391 . S
C468 H440 0.930 . S
C468 C467 1.390 . S
C468 C469 1.392 . S
C469 H441 0.929 . S
C469 C466 1.391 . S
C469 C468 1.392 . S
N470 Co414 2.257 . S
N470 C467 1.391 . S
N470 C471 1.388 . S
C471 H442 0.930 . S
C471 C466 1.391 . S
C471 N470 1.388 . S
Co472 O474 2.143 . S
Co472 O480 2.074 . S
Co472 O483 2.093 . S
Co472 O496 2.097 . S
Co472 N513 2.151 . S
Co472 N521 2.214 . S
Co473 O474 2.160 . S
Co473 O479 2.058 . S
Co473 O489 2.057 . S
Co473 O504 2.037 . S
Co473 N508 2.145 . S
Co473 N529 2.257 . S
O474 Co472 2.143 . S
O474 Co473 2.160 . S
C475 O476 1.278 . S
C475 O483 1.224 . S
O476 C475 1.278 . S
C477 O478 1.245 . S
C477 O489 1.232 . S
O478 C477 1.245 . S
O479 Co473 2.058 . S
O479 C505 1.269 . S
O480 Co472 2.074 . S
O480 C505 1.257 . S
H481 C506 0.930 . S
H482 C512 0.930 . S
O483 Co472 2.093 . S
O483 C475 1.224 . S
H484 C516 0.929 . S
H485 C518 0.930 . S
H486 C519 0.930 . S
H487 C517 0.929 . S
H488 C520 0.928 . S
O489 Co473 2.057 . S
O489 C477 1.232 . S
H490 C509 0.929 1_556 S
H491 C510 0.929 1_556 S
H492 C522 0.931 . S
H493 C514 0.929 . S
H494 C523 0.930 . S
H495 C515 0.931 . S
O496 Co472 2.097 . S
O496 C524 1.214 . S
H497 C525 0.929 . S
H498 C526 0.929 . S
H499 C527 0.930 . S
H500 C528 0.929 . S
H501 C530 0.930 . S
H502 C507 0.930 . S
H503 C511 0.930 . S
O504 Co473 2.037 . S
O504 C524 1.234 . S
C505 O479 1.269 . S
C505 O480 1.257 . S
C506 H481 0.930 . S
C506 C509 1.388 . S
C506 C511 1.418 . S
C507 H502 0.930 . S
C507 C510 1.404 . S
C507 C511 1.353 . S
N508 Co473 2.145 . S
N508 C509 1.397 1_556 S
N508 C510 1.334 1_556 S
C509 H490 0.929 1_554 S
C509 C506 1.388 . S
C509 N508 1.397 1_554 S
C510 H491 0.929 1_554 S
C510 C507 1.404 . S
C510 N508 1.334 1_554 S
C511 H503 0.930 . S
C511 C506 1.418 . S
C511 C507 1.353 . S
C512 H482 0.930 . S
C512 N513 1.330 . S
C512 C514 1.446 . S
N513 Co472 2.151 . S
N513 C512 1.330 . S
N513 C517 1.418 . S
C514 H493 0.929 . S
C514 C512 1.446 . S
C514 C515 1.332 . S
C515 H495 0.931 . S
C515 C514 1.332 . S
C515 C516 1.267 . S
C516 H484 0.929 . S
C516 C515 1.267 . S
C516 C517 1.251 . S
C517 H487 0.929 . S
C517 N513 1.418 . S
C517 C516 1.251 . S
C518 H485 0.930 . S
C518 C520 1.406 . S
C518 C523 1.261 . S
C519 H486 0.930 . S
C519 N521 1.325 . S
C519 C522 1.357 . S
C520 H488 0.928 . S
C520 C518 1.406 . S
C520 N521 1.261 . S
N521 Co472 2.214 . S
N521 C519 1.325 . S
N521 C520 1.261 . S
C522 H492 0.931 . S
C522 C519 1.357 . S
C522 C523 1.312 . S
C523 H494 0.930 . S
C523 C518 1.261 . S
C523 C522 1.312 . S
C524 O496 1.214 . S
C524 O504 1.234 . S
C525 H497 0.929 . S
C525 C528 1.391 . S
C525 C530 1.391 . S
C526 H498 0.929 . S
C526 C527 1.390 . S
C526 N529 1.391 . S
C527 H499 0.930 . S
C527 C526 1.390 . S
C527 C528 1.392 . S
C528 H500 0.929 . S
C528 C525 1.391 . S
C528 C527 1.392 . S
N529 Co473 2.257 . S
N529 C526 1.391 . S
N529 C530 1.388 . S
C530 H501 0.930 . S
C530 C525 1.391 . S
C530 N529 1.388 . S
Co531 O533 2.143 . S
Co531 O539 2.074 . S
Co531 O542 2.093 . S
Co531 O555 2.097 . S
Co531 N572 2.151 . S
Co531 N580 2.214 . S
Co532 O533 2.160 . S
Co532 O538 2.058 . S
Co532 O548 2.057 . S
Co532 O563 2.037 . S
Co532 N567 2.145 . S
Co532 N588 2.257 . S
O533 Co531 2.143 . S
O533 Co532 2.160 . S
C534 O535 1.278 . S
C534 O542 1.224 . S
O535 C534 1.278 . S
C536 O537 1.245 . S
C536 O548 1.232 . S
O537 C536 1.245 . S
O538 Co532 2.058 . S
O538 C564 1.269 . S
O539 Co531 2.074 . S
O539 C564 1.257 . S
H540 C565 0.930 . S
H541 C571 0.930 . S
O542 Co531 2.093 . S
O542 C534 1.224 . S
H543 C575 0.929 . S
H544 C577 0.930 . S
H545 C578 0.930 . S
H546 C576 0.929 . S
H547 C579 0.928 . S
O548 Co532 2.057 . S
O548 C536 1.232 . S
H549 C568 0.929 . S
H550 C569 0.929 . S
H551 C581 0.931 . S
H552 C573 0.929 . S
H553 C582 0.930 . S
H554 C574 0.931 . S
O555 Co531 2.097 . S
O555 C583 1.214 . S
H556 C584 0.929 . S
H557 C585 0.929 . S
H558 C586 0.930 . S
H559 C587 0.929 . S
H560 C589 0.930 . S
H561 C566 0.930 . S
H562 C570 0.930 . S
O563 Co532 2.037 . S
O563 C583 1.234 . S
C564 O538 1.269 . S
C564 O539 1.257 . S
C565 H540 0.930 . S
C565 C568 1.388 . S
C565 C570 1.418 . S
C566 H561 0.930 . S
C566 C569 1.404 . S
C566 C570 1.353 . S
N567 Co532 2.145 . S
N567 C568 1.397 . S
N567 C569 1.334 . S
C568 H549 0.929 . S
C568 C565 1.388 . S
C568 N567 1.397 . S
C569 H550 0.929 . S
C569 C566 1.404 . S
C569 N567 1.334 . S
C570 H562 0.930 . S
C570 C565 1.418 . S
C570 C566 1.353 . S
C571 H541 0.930 . S
C571 N572 1.330 . S
C571 C573 1.446 . S
N572 Co531 2.151 . S
N572 C571 1.330 . S
N572 C576 1.418 . S
C573 H552 0.929 . S
C573 C571 1.446 . S
C573 C574 1.332 . S
C574 H554 0.931 . S
C574 C573 1.332 . S
C574 C575 1.267 . S
C575 H543 0.929 . S
C575 C574 1.267 . S
C575 C576 1.251 . S
C576 H546 0.929 . S
C576 N572 1.418 . S
C576 C575 1.251 . S
C577 H544 0.930 . S
C577 C579 1.406 . S
C577 C582 1.261 . S
C578 H545 0.930 . S
C578 N580 1.325 . S
C578 C581 1.357 . S
C579 H547 0.928 . S
C579 C577 1.406 . S
C579 N580 1.261 . S
N580 Co531 2.214 . S
N580 C578 1.325 . S
N580 C579 1.261 . S
C581 H551 0.931 . S
C581 C578 1.357 . S
C581 C582 1.312 . S
C582 H553 0.930 . S
C582 C577 1.261 . S
C582 C581 1.312 . S
C583 O555 1.214 . S
C583 O563 1.234 . S
C584 H556 0.929 . S
C584 C587 1.391 . S
C584 C589 1.391 . S
C585 H557 0.929 . S
C585 C586 1.390 . S
C585 N588 1.391 . S
C586 H558 0.930 . S
C586 C585 1.390 . S
C586 C587 1.392 . S
C587 H559 0.929 . S
C587 C584 1.391 . S
C587 C586 1.392 . S
N588 Co532 2.257 . S
N588 C585 1.391 . S
N588 C589 1.388 . S
C589 H560 0.930 . S
C589 C584 1.391 . S
C589 N588 1.388 . S
Co590 O592 2.143 . S
Co590 O598 2.074 . S
Co590 O601 2.093 . S
Co590 O614 2.097 . S
Co590 N631 2.151 . S
Co590 N639 2.214 . S
Co591 O592 2.160 . S
Co591 O597 2.058 . S
Co591 O607 2.057 . S
Co591 O622 2.037 . S
Co591 N626 2.145 . S
Co591 N647 2.257 . S
O592 Co590 2.143 . S
O592 Co591 2.160 . S
C593 O594 1.278 . S
C593 O601 1.224 . S
O594 C593 1.278 . S
C595 O596 1.245 . S
C595 O607 1.232 . S
O596 C595 1.245 . S
O597 Co591 2.058 . S
O597 C623 1.269 . S
O598 Co590 2.074 . S
O598 C623 1.257 . S
H599 C624 0.930 . S
H600 C630 0.930 . S
O601 Co590 2.093 . S
O601 C593 1.224 . S
H602 C634 0.929 . S
H603 C636 0.930 . S
H604 C637 0.930 . S
H605 C635 0.929 . S
H606 C638 0.928 . S
O607 Co591 2.057 . S
O607 C595 1.232 . S
H608 C627 0.929 1_556 S
H609 C628 0.929 1_556 S
H610 C640 0.931 . S
H611 C632 0.929 . S
H612 C641 0.930 . S
H613 C633 0.931 . S
O614 Co590 2.097 . S
O614 C642 1.214 . S
H615 C643 0.929 . S
H616 C644 0.929 . S
H617 C645 0.930 . S
H618 C646 0.929 . S
H619 C648 0.930 . S
H620 C625 0.930 . S
H621 C629 0.930 . S
O622 Co591 2.037 . S
O622 C642 1.234 . S
C623 O597 1.269 . S
C623 O598 1.257 . S
C624 H599 0.930 . S
C624 C627 1.388 . S
C624 C629 1.418 . S
C625 H620 0.930 . S
C625 C628 1.404 . S
C625 C629 1.353 . S
N626 Co591 2.145 . S
N626 C627 1.397 1_556 S
N626 C628 1.334 1_556 S
C627 H608 0.929 1_554 S
C627 C624 1.388 . S
C627 N626 1.397 1_554 S
C628 H609 0.929 1_554 S
C628 C625 1.404 . S
C628 N626 1.334 1_554 S
C629 H621 0.930 . S
C629 C624 1.418 . S
C629 C625 1.353 . S
C630 H600 0.930 . S
C630 N631 1.330 . S
C630 C632 1.446 . S
N631 Co590 2.151 . S
N631 C630 1.330 . S
N631 C635 1.418 . S
C632 H611 0.929 . S
C632 C630 1.446 . S
C632 C633 1.332 . S
C633 H613 0.931 . S
C633 C632 1.332 . S
C633 C634 1.267 . S
C634 H602 0.929 . S
C634 C633 1.267 . S
C634 C635 1.251 . S
C635 H605 0.929 . S
C635 N631 1.418 . S
C635 C634 1.251 . S
C636 H603 0.930 . S
C636 C638 1.406 . S
C636 C641 1.261 . S
C637 H604 0.930 . S
C637 N639 1.325 . S
C637 C640 1.357 . S
C638 H606 0.928 . S
C638 C636 1.406 . S
C638 N639 1.261 . S
N639 Co590 2.214 . S
N639 C637 1.325 . S
N639 C638 1.261 . S
C640 H610 0.931 . S
C640 C637 1.357 . S
C640 C641 1.312 . S
C641 H612 0.930 . S
C641 C636 1.261 . S
C641 C640 1.312 . S
C642 O614 1.214 . S
C642 O622 1.234 . S
C643 H615 0.929 . S
C643 C646 1.391 . S
C643 C648 1.391 . S
C644 H616 0.929 . S
C644 C645 1.390 . S
C644 N647 1.391 . S
C645 H617 0.930 . S
C645 C644 1.390 . S
C645 C646 1.392 . S
C646 H618 0.929 . S
C646 C643 1.391 . S
C646 C645 1.392 . S
N647 Co591 2.257 . S
N647 C644 1.391 . S
N647 C648 1.388 . S
C648 H619 0.930 . S
C648 C643 1.391 . S
C648 N647 1.388 . S
Co649 O651 2.143 . S
Co649 O657 2.074 . S
Co649 O660 2.093 . S
Co649 O673 2.097 . S
Co649 N690 2.151 . S
Co649 N698 2.214 . S
Co650 O651 2.160 . S
Co650 O656 2.058 . S
Co650 O666 2.057 . S
Co650 O681 2.037 . S
Co650 N685 2.145 . S
Co650 N706 2.257 . S
O651 Co649 2.143 . S
O651 Co650 2.160 . S
C652 O653 1.278 . S
C652 O660 1.224 . S
O653 C652 1.278 . S
C654 O655 1.245 . S
C654 O666 1.232 . S
O655 C654 1.245 . S
O656 Co650 2.058 . S
O656 C682 1.269 . S
O657 Co649 2.074 . S
O657 C682 1.257 . S
H658 C683 0.930 . S
H659 C689 0.930 . S
O660 Co649 2.093 . S
O660 C652 1.224 . S
H661 C693 0.929 . S
H662 C695 0.930 . S
H663 C696 0.930 . S
H664 C694 0.929 . S
H665 C697 0.928 . S
O666 Co650 2.057 . S
O666 C654 1.232 . S
H667 C686 0.929 . S
H668 C687 0.929 . S
H669 C699 0.931 . S
H670 C691 0.929 . S
H671 C700 0.930 . S
H672 C692 0.931 . S
O673 Co649 2.097 . S
O673 C701 1.214 . S
H674 C702 0.929 . S
H675 C703 0.929 . S
H676 C704 0.930 . S
H677 C705 0.929 . S
H678 C707 0.930 . S
H679 C684 0.930 . S
H680 C688 0.930 . S
O681 Co650 2.037 . S
O681 C701 1.234 . S
C682 O656 1.269 . S
C682 O657 1.257 . S
C683 H658 0.930 . S
C683 C686 1.388 . S
C683 C688 1.418 . S
C684 H679 0.930 . S
C684 C687 1.404 . S
C684 C688 1.353 . S
N685 Co650 2.145 . S
N685 C686 1.397 . S
N685 C687 1.334 . S
C686 H667 0.929 . S
C686 C683 1.388 . S
C686 N685 1.397 . S
C687 H668 0.929 . S
C687 C684 1.404 . S
C687 N685 1.334 . S
C688 H680 0.930 . S
C688 C683 1.418 . S
C688 C684 1.353 . S
C689 H659 0.930 . S
C689 N690 1.330 . S
C689 C691 1.446 . S
N690 Co649 2.151 . S
N690 C689 1.330 . S
N690 C694 1.418 . S
C691 H670 0.929 . S
C691 C689 1.446 . S
C691 C692 1.332 . S
C692 H672 0.931 . S
C692 C691 1.332 . S
C692 C693 1.267 . S
C693 H661 0.929 . S
C693 C692 1.267 . S
C693 C694 1.251 . S
C694 H664 0.929 . S
C694 N690 1.418 . S
C694 C693 1.251 . S
C695 H662 0.930 . S
C695 C697 1.406 . S
C695 C700 1.261 . S
C696 H663 0.930 . S
C696 N698 1.325 . S
C696 C699 1.357 . S
C697 H665 0.928 . S
C697 C695 1.406 . S
C697 N698 1.261 . S
N698 Co649 2.214 . S
N698 C696 1.325 . S
N698 C697 1.261 . S
C699 H669 0.931 . S
C699 C696 1.357 . S
C699 C700 1.312 . S
C700 H671 0.930 . S
C700 C695 1.261 . S
C700 C699 1.312 . S
C701 O673 1.214 . S
C701 O681 1.234 . S
C702 H674 0.929 . S
C702 C705 1.391 . S
C702 C707 1.391 . S
C703 H675 0.929 . S
C703 C704 1.390 . S
C703 N706 1.391 . S
C704 H676 0.930 . S
C704 C703 1.390 . S
C704 C705 1.392 . S
C705 H677 0.929 . S
C705 C702 1.391 . S
C705 C704 1.392 . S
N706 Co650 2.257 . S
N706 C703 1.391 . S
N706 C707 1.388 . S
C707 H678 0.930 . S
C707 C702 1.391 . S
C707 N706 1.388 . S
Co708 O710 2.143 . S
Co708 O716 2.074 . S
Co708 O719 2.093 . S
Co708 O732 2.097 . S
Co708 N749 2.151 . S
Co708 N757 2.214 . S
Co709 O710 2.160 . S
Co709 O715 2.058 . S
Co709 O725 2.057 . S
Co709 O740 2.037 . S
Co709 N744 2.145 . S
Co709 N765 2.257 . S
O710 Co708 2.143 . S
O710 Co709 2.160 . S
C711 O712 1.278 . S
C711 O719 1.224 . S
O712 C711 1.278 . S
C713 O714 1.245 . S
C713 O725 1.232 . S
O714 C713 1.245 . S
O715 Co709 2.058 . S
O715 C741 1.269 . S
O716 Co708 2.074 . S
O716 C741 1.257 . S
H717 C742 0.930 . S
H718 C748 0.930 . S
O719 Co708 2.093 . S
O719 C711 1.224 . S
H720 C752 0.929 . S
H721 C754 0.930 . S
H722 C755 0.930 . S
H723 C753 0.929 . S
H724 C756 0.928 . S
O725 Co709 2.057 . S
O725 C713 1.232 . S
H726 C745 0.929 1_556 S
H727 C746 0.929 1_556 S
H728 C758 0.931 . S
H729 C750 0.929 . S
H730 C759 0.930 . S
H731 C751 0.931 . S
O732 Co708 2.097 . S
O732 C760 1.214 . S
H733 C761 0.929 . S
H734 C762 0.929 . S
H735 C763 0.930 . S
H736 C764 0.929 . S
H737 C766 0.930 . S
H738 C743 0.930 . S
H739 C747 0.930 . S
O740 Co709 2.037 . S
O740 C760 1.234 . S
C741 O715 1.269 . S
C741 O716 1.257 . S
C742 H717 0.930 . S
C742 C745 1.388 . S
C742 C747 1.418 . S
C743 H738 0.930 . S
C743 C746 1.404 . S
C743 C747 1.353 . S
N744 Co709 2.145 . S
N744 C745 1.397 1_556 S
N744 C746 1.334 1_556 S
C745 H726 0.929 1_554 S
C745 C742 1.388 . S
C745 N744 1.397 1_554 S
C746 H727 0.929 1_554 S
C746 C743 1.404 . S
C746 N744 1.334 1_554 S
C747 H739 0.930 . S
C747 C742 1.418 . S
C747 C743 1.353 . S
C748 H718 0.930 . S
C748 N749 1.330 . S
C748 C750 1.446 . S
N749 Co708 2.151 . S
N749 C748 1.330 . S
N749 C753 1.418 . S
C750 H729 0.929 . S
C750 C748 1.446 . S
C750 C751 1.332 . S
C751 H731 0.931 . S
C751 C750 1.332 . S
C751 C752 1.267 . S
C752 H720 0.929 . S
C752 C751 1.267 . S
C752 C753 1.251 . S
C753 H723 0.929 . S
C753 N749 1.418 . S
C753 C752 1.251 . S
C754 H721 0.930 . S
C754 C756 1.406 . S
C754 C759 1.261 . S
C755 H722 0.930 . S
C755 N757 1.325 . S
C755 C758 1.357 . S
C756 H724 0.928 . S
C756 C754 1.406 . S
C756 N757 1.261 . S
N757 Co708 2.214 . S
N757 C755 1.325 . S
N757 C756 1.261 . S
C758 H728 0.931 . S
C758 C755 1.357 . S
C758 C759 1.312 . S
C759 H730 0.930 . S
C759 C754 1.261 . S
C759 C758 1.312 . S
C760 O732 1.214 . S
C760 O740 1.234 . S
C761 H733 0.929 . S
C761 C764 1.391 . S
C761 C766 1.391 . S
C762 H734 0.929 . S
C762 C763 1.390 . S
C762 N765 1.391 . S
C763 H735 0.930 . S
C763 C762 1.390 . S
C763 C764 1.392 . S
C764 H736 0.929 . S
C764 C761 1.391 . S
C764 C763 1.392 . S
N765 Co709 2.257 . S
N765 C762 1.391 . S
N765 C766 1.388 . S
C766 H737 0.930 . S
C766 C761 1.391 . S
C766 N765 1.388 . S
Co767 O769 2.143 . S
Co767 O775 2.074 . S
Co767 O778 2.093 . S
Co767 O791 2.097 . S
Co767 N808 2.151 . S
Co767 N816 2.214 . S
Co768 O769 2.160 . S
Co768 O774 2.058 . S
Co768 O784 2.057 . S
Co768 O799 2.037 . S
Co768 N803 2.145 . S
Co768 N824 2.257 . S
O769 Co767 2.143 . S
O769 Co768 2.160 . S
C770 O771 1.278 . S
C770 O778 1.224 . S
O771 C770 1.278 . S
C772 O773 1.245 . S
C772 O784 1.232 . S
O773 C772 1.245 . S
O774 Co768 2.058 . S
O774 C800 1.269 . S
O775 Co767 2.074 . S
O775 C800 1.257 . S
H776 C801 0.930 . S
H777 C807 0.930 . S
O778 Co767 2.093 . S
O778 C770 1.224 . S
H779 C811 0.929 . S
H780 C813 0.930 . S
H781 C814 0.930 . S
H782 C812 0.929 . S
H783 C815 0.928 . S
O784 Co768 2.057 . S
O784 C772 1.232 . S
H785 C804 0.929 . S
H786 C805 0.929 . S
H787 C817 0.931 . S
H788 C809 0.929 . S
H789 C818 0.930 . S
H790 C810 0.931 . S
O791 Co767 2.097 . S
O791 C819 1.214 . S
H792 C820 0.929 . S
H793 C821 0.929 . S
H794 C822 0.930 . S
H795 C823 0.929 . S
H796 C825 0.930 . S
H797 C802 0.930 . S
H798 C806 0.930 . S
O799 Co768 2.037 . S
O799 C819 1.234 . S
C800 O774 1.269 . S
C800 O775 1.257 . S
C801 H776 0.930 . S
C801 C804 1.388 . S
C801 C806 1.418 . S
C802 H797 0.930 . S
C802 C805 1.404 . S
C802 C806 1.353 . S
N803 Co768 2.145 . S
N803 C804 1.397 . S
N803 C805 1.334 . S
C804 H785 0.929 . S
C804 C801 1.388 . S
C804 N803 1.397 . S
C805 H786 0.929 . S
C805 C802 1.404 . S
C805 N803 1.334 . S
C806 H798 0.930 . S
C806 C801 1.418 . S
C806 C802 1.353 . S
C807 H777 0.930 . S
C807 N808 1.330 . S
C807 C809 1.446 . S
N808 Co767 2.151 . S
N808 C807 1.330 . S
N808 C812 1.418 . S
C809 H788 0.929 . S
C809 C807 1.446 . S
C809 C810 1.332 . S
C810 H790 0.931 . S
C810 C809 1.332 . S
C810 C811 1.267 . S
C811 H779 0.929 . S
C811 C810 1.267 . S
C811 C812 1.251 . S
C812 H782 0.929 . S
C812 N808 1.418 . S
C812 C811 1.251 . S
C813 H780 0.930 . S
C813 C815 1.406 . S
C813 C818 1.261 . S
C814 H781 0.930 . S
C814 N816 1.325 . S
C814 C817 1.357 . S
C815 H783 0.928 . S
C815 C813 1.406 . S
C815 N816 1.261 . S
N816 Co767 2.214 . S
N816 C814 1.325 . S
N816 C815 1.261 . S
C817 H787 0.931 . S
C817 C814 1.357 . S
C817 C818 1.312 . S
C818 H789 0.930 . S
C818 C813 1.261 . S
C818 C817 1.312 . S
C819 O791 1.214 . S
C819 O799 1.234 . S
C820 H792 0.929 . S
C820 C823 1.391 . S
C820 C825 1.391 . S
C821 H793 0.929 . S
C821 C822 1.390 . S
C821 N824 1.391 . S
C822 H794 0.930 . S
C822 C821 1.390 . S
C822 C823 1.392 . S
C823 H795 0.929 . S
C823 C820 1.391 . S
C823 C822 1.392 . S
N824 Co768 2.257 . S
N824 C821 1.391 . S
N824 C825 1.388 . S
C825 H796 0.930 . S
C825 C820 1.391 . S
C825 N824 1.388 . S
Co826 O828 2.143 . S
Co826 O834 2.074 . S
Co826 O837 2.093 . S
Co826 O850 2.097 . S
Co826 N867 2.151 . S
Co826 N875 2.214 . S
Co827 O828 2.160 . S
Co827 O833 2.058 . S
Co827 O843 2.057 . S
Co827 O858 2.037 . S
Co827 N862 2.145 . S
Co827 N883 2.257 . S
O828 Co826 2.143 . S
O828 Co827 2.160 . S
C829 O830 1.278 . S
C829 O837 1.224 . S
O830 C829 1.278 . S
C831 O832 1.245 . S
C831 O843 1.232 . S
O832 C831 1.245 . S
O833 Co827 2.058 . S
O833 C859 1.269 . S
O834 Co826 2.074 . S
O834 C859 1.257 . S
H835 C860 0.930 . S
H836 C866 0.930 . S
O837 Co826 2.093 . S
O837 C829 1.224 . S
H838 C870 0.929 . S
H839 C872 0.930 . S
H840 C873 0.930 . S
H841 C871 0.929 . S
H842 C874 0.928 . S
O843 Co827 2.057 . S
O843 C831 1.232 . S
H844 C863 0.929 1_556 S
H845 C864 0.929 1_556 S
H846 C876 0.931 . S
H847 C868 0.929 . S
H848 C877 0.930 . S
H849 C869 0.931 . S
O850 Co826 2.097 . S
O850 C878 1.214 . S
H851 C879 0.929 . S
H852 C880 0.929 . S
H853 C881 0.930 . S
H854 C882 0.929 . S
H855 C884 0.930 . S
H856 C861 0.930 . S
H857 C865 0.930 . S
O858 Co827 2.037 . S
O858 C878 1.234 . S
C859 O833 1.269 . S
C859 O834 1.257 . S
C860 H835 0.930 . S
C860 C863 1.388 . S
C860 C865 1.418 . S
C861 H856 0.930 . S
C861 C864 1.404 . S
C861 C865 1.353 . S
N862 Co827 2.145 . S
N862 C863 1.397 1_556 S
N862 C864 1.334 1_556 S
C863 H844 0.929 1_554 S
C863 C860 1.388 . S
C863 N862 1.397 1_554 S
C864 H845 0.929 1_554 S
C864 C861 1.404 . S
C864 N862 1.334 1_554 S
C865 H857 0.930 . S
C865 C860 1.418 . S
C865 C861 1.353 . S
C866 H836 0.930 . S
C866 N867 1.330 . S
C866 C868 1.446 . S
N867 Co826 2.151 . S
N867 C866 1.330 . S
N867 C871 1.418 . S
C868 H847 0.929 . S
C868 C866 1.446 . S
C868 C869 1.332 . S
C869 H849 0.931 . S
C869 C868 1.332 . S
C869 C870 1.267 . S
C870 H838 0.929 . S
C870 C869 1.267 . S
C870 C871 1.251 . S
C871 H841 0.929 . S
C871 N867 1.418 . S
C871 C870 1.251 . S
C872 H839 0.930 . S
C872 C874 1.406 . S
C872 C877 1.261 . S
C873 H840 0.930 . S
C873 N875 1.325 . S
C873 C876 1.357 . S
C874 H842 0.928 . S
C874 C872 1.406 . S
C874 N875 1.261 . S
N875 Co826 2.214 . S
N875 C873 1.325 . S
N875 C874 1.261 . S
C876 H846 0.931 . S
C876 C873 1.357 . S
C876 C877 1.312 . S
C877 H848 0.930 . S
C877 C872 1.261 . S
C877 C876 1.312 . S
C878 O850 1.214 . S
C878 O858 1.234 . S
C879 H851 0.929 . S
C879 C882 1.391 . S
C879 C884 1.391 . S
C880 H852 0.929 . S
C880 C881 1.390 . S
C880 N883 1.391 . S
C881 H853 0.930 . S
C881 C880 1.390 . S
C881 C882 1.392 . S
C882 H854 0.929 . S
C882 C879 1.391 . S
C882 C881 1.392 . S
N883 Co827 2.257 . S
N883 C880 1.391 . S
N883 C884 1.388 . S
C884 H855 0.930 . S
C884 C879 1.391 . S
C884 N883 1.388 . S
Co885 O887 2.143 . S
Co885 O893 2.074 . S
Co885 O896 2.093 . S
Co885 O909 2.097 . S
Co885 N926 2.151 . S
Co885 N934 2.214 . S
Co886 O887 2.160 . S
Co886 O892 2.058 . S
Co886 O902 2.057 . S
Co886 O917 2.037 . S
Co886 N921 2.145 . S
Co886 N942 2.257 . S
O887 Co885 2.143 . S
O887 Co886 2.160 . S
C888 O889 1.278 . S
C888 O896 1.224 . S
O889 C888 1.278 . S
C890 O891 1.245 . S
C890 O902 1.232 . S
O891 C890 1.245 . S
O892 Co886 2.058 . S
O892 C918 1.269 . S
O893 Co885 2.074 . S
O893 C918 1.257 . S
H894 C919 0.930 . S
H895 C925 0.930 . S
O896 Co885 2.093 . S
O896 C888 1.224 . S
H897 C929 0.929 . S
H898 C931 0.930 . S
H899 C932 0.930 . S
H900 C930 0.929 . S
H901 C933 0.928 . S
O902 Co886 2.057 . S
O902 C890 1.232 . S
H903 C922 0.929 . S
H904 C923 0.929 . S
H905 C935 0.931 . S
H906 C927 0.929 . S
H907 C936 0.930 . S
H908 C928 0.931 . S
O909 Co885 2.097 . S
O909 C937 1.214 . S
H910 C938 0.929 . S
H911 C939 0.929 . S
H912 C940 0.930 . S
H913 C941 0.929 . S
H914 C943 0.930 . S
H915 C920 0.930 . S
H916 C924 0.930 . S
O917 Co886 2.037 . S
O917 C937 1.234 . S
C918 O892 1.269 . S
C918 O893 1.257 . S
C919 H894 0.930 . S
C919 C922 1.388 . S
C919 C924 1.418 . S
C920 H915 0.930 . S
C920 C923 1.404 . S
C920 C924 1.353 . S
N921 Co886 2.145 . S
N921 C922 1.397 . S
N921 C923 1.334 . S
C922 H903 0.929 . S
C922 C919 1.388 . S
C922 N921 1.397 . S
C923 H904 0.929 . S
C923 C920 1.404 . S
C923 N921 1.334 . S
C924 H916 0.930 . S
C924 C919 1.418 . S
C924 C920 1.353 . S
C925 H895 0.930 . S
C925 N926 1.330 . S
C925 C927 1.446 . S
N926 Co885 2.151 . S
N926 C925 1.330 . S
N926 C930 1.418 . S
C927 H906 0.929 . S
C927 C925 1.446 . S
C927 C928 1.332 . S
C928 H908 0.931 . S
C928 C927 1.332 . S
C928 C929 1.267 . S
C929 H897 0.929 . S
C929 C928 1.267 . S
C929 C930 1.251 . S
C930 H900 0.929 . S
C930 N926 1.418 . S
C930 C929 1.251 . S
C931 H898 0.930 . S
C931 C933 1.406 . S
C931 C936 1.261 . S
C932 H899 0.930 . S
C932 N934 1.325 . S
C932 C935 1.357 . S
C933 H901 0.928 . S
C933 C931 1.406 . S
C933 N934 1.261 . S
N934 Co885 2.214 . S
N934 C932 1.325 . S
N934 C933 1.261 . S
C935 H905 0.931 . S
C935 C932 1.357 . S
C935 C936 1.312 . S
C936 H907 0.930 . S
C936 C931 1.261 . S
C936 C935 1.312 . S
C937 O909 1.214 . S
C937 O917 1.234 . S
C938 H910 0.929 . S
C938 C941 1.391 . S
C938 C943 1.391 . S
C939 H911 0.929 . S
C939 C940 1.390 . S
C939 N942 1.391 . S
C940 H912 0.930 . S
C940 C939 1.390 . S
C940 C941 1.392 . S
C941 H913 0.929 . S
C941 C938 1.391 . S
C941 C940 1.392 . S
N942 Co886 2.257 . S
N942 C939 1.391 . S
N942 C943 1.388 . S
C943 H914 0.930 . S
C943 C938 1.391 . S
C943 N942 1.388 . S
Co944 O946 2.143 . S
Co944 O952 2.074 . S
Co944 O955 2.093 . S
Co944 O968 2.097 . S
Co944 N985 2.151 . S
Co944 N993 2.214 . S
Co945 O946 2.160 . S
Co945 O951 2.058 . S
Co945 O961 2.057 . S
Co945 O976 2.037 . S
Co945 N980 2.145 . S
Co945 N1001 2.257 . S
O946 Co944 2.143 . S
O946 Co945 2.160 . S
C947 O948 1.278 . S
C947 O955 1.224 . S
O948 C947 1.278 . S
C949 O950 1.245 . S
C949 O961 1.232 . S
O950 C949 1.245 . S
O951 Co945 2.058 . S
O951 C977 1.269 . S
O952 Co944 2.074 . S
O952 C977 1.257 . S
H953 C978 0.930 . S
H954 C984 0.930 . S
O955 Co944 2.093 . S
O955 C947 1.224 . S
H956 C988 0.929 . S
H957 C990 0.930 . S
H958 C991 0.930 . S
H959 C989 0.929 . S
H960 C992 0.928 . S
O961 Co945 2.057 . S
O961 C949 1.232 . S
H962 C981 0.929 1_556 S
H963 C982 0.929 1_556 S
H964 C994 0.931 . S
H965 C986 0.929 . S
H966 C995 0.930 . S
H967 C987 0.931 . S
O968 Co944 2.097 . S
O968 C996 1.214 . S
H969 C997 0.929 . S
H970 C998 0.929 . S
H971 C999 0.930 . S
H972 C1000 0.929 . S
H973 C1002 0.930 . S
H974 C979 0.930 . S
H975 C983 0.930 . S
O976 Co945 2.037 . S
O976 C996 1.234 . S
C977 O951 1.269 . S
C977 O952 1.257 . S
C978 H953 0.930 . S
C978 C981 1.388 . S
C978 C983 1.418 . S
C979 H974 0.930 . S
C979 C982 1.404 . S
C979 C983 1.353 . S
N980 Co945 2.145 . S
N980 C981 1.397 1_556 S
N980 C982 1.334 1_556 S
C981 H962 0.929 1_554 S
C981 C978 1.388 . S
C981 N980 1.397 1_554 S
C982 H963 0.929 1_554 S
C982 C979 1.404 . S
C982 N980 1.334 1_554 S
C983 H975 0.930 . S
C983 C978 1.418 . S
C983 C979 1.353 . S
C984 H954 0.930 . S
C984 N985 1.330 . S
C984 C986 1.446 . S
N985 Co944 2.151 . S
N985 C984 1.330 . S
N985 C989 1.418 . S
C986 H965 0.929 . S
C986 C984 1.446 . S
C986 C987 1.332 . S
C987 H967 0.931 . S
C987 C986 1.332 . S
C987 C988 1.267 . S
C988 H956 0.929 . S
C988 C987 1.267 . S
C988 C989 1.251 . S
C989 H959 0.929 . S
C989 N985 1.418 . S
C989 C988 1.251 . S
C990 H957 0.930 . S
C990 C992 1.406 . S
C990 C995 1.261 . S
C991 H958 0.930 . S
C991 N993 1.325 . S
C991 C994 1.357 . S
C992 H960 0.928 . S
C992 C990 1.406 . S
C992 N993 1.261 . S
N993 Co944 2.214 . S
N993 C991 1.325 . S
N993 C992 1.261 . S
C994 H964 0.931 . S
C994 C991 1.357 . S
C994 C995 1.312 . S
C995 H966 0.930 . S
C995 C990 1.261 . S
C995 C994 1.312 . S
C996 O968 1.214 . S
C996 O976 1.234 . S
C997 H969 0.929 . S
C997 C1000 1.391 . S
C997 C1002 1.391 . S
C998 H970 0.929 . S
C998 C999 1.390 . S
C998 N1001 1.391 . S
C999 H971 0.930 . S
C999 C998 1.390 . S
C999 C1000 1.392 . S
C1000 H972 0.929 . S
C1000 C997 1.391 . S
C1000 C999 1.392 . S
N1001 Co945 2.257 . S
N1001 C998 1.391 . S
N1001 C1002 1.388 . S
C1002 H973 0.930 . S
C1002 C997 1.391 . S
C1002 N1001 1.388 . S
Co1003 O1005 2.143 . S
Co1003 O1011 2.074 . S
Co1003 O1014 2.093 . S
Co1003 O1027 2.097 . S
Co1003 N1044 2.151 . S
Co1003 N1052 2.214 . S
Co1004 O1005 2.160 . S
Co1004 O1010 2.058 . S
Co1004 O1020 2.057 . S
Co1004 O1035 2.037 . S
Co1004 N1039 2.145 . S
Co1004 N1060 2.257 . S
O1005 Co1003 2.143 . S
O1005 Co1004 2.160 . S
C1006 O1007 1.278 . S
C1006 O1014 1.224 . S
O1007 C1006 1.278 . S
C1008 O1009 1.245 . S
C1008 O1020 1.232 . S
O1009 C1008 1.245 . S
O1010 Co1004 2.058 . S
O1010 C1036 1.269 . S
O1011 Co1003 2.074 . S
O1011 C1036 1.257 . S
H1012 C1037 0.930 . S
H1013 C1043 0.930 . S
O1014 Co1003 2.093 . S
O1014 C1006 1.224 . S
H1015 C1047 0.929 . S
H1016 C1049 0.930 . S
H1017 C1050 0.930 . S
H1018 C1048 0.929 . S
H1019 C1051 0.928 . S
O1020 Co1004 2.057 . S
O1020 C1008 1.232 . S
H1021 C1040 0.929 . S
H1022 C1041 0.929 . S
H1023 C1053 0.931 . S
H1024 C1045 0.929 . S
H1025 C1054 0.930 . S
H1026 C1046 0.931 . S
O1027 Co1003 2.097 . S
O1027 C1055 1.214 . S
H1028 C1056 0.929 . S
H1029 C1057 0.929 . S
H1030 C1058 0.930 . S
H1031 C1059 0.929 . S
H1032 C1061 0.930 . S
H1033 C1038 0.930 . S
H1034 C1042 0.930 . S
O1035 Co1004 2.037 . S
O1035 C1055 1.234 . S
C1036 O1010 1.269 . S
C1036 O1011 1.257 . S
C1037 H1012 0.930 . S
C1037 C1040 1.388 . S
C1037 C1042 1.418 . S
C1038 H1033 0.930 . S
C1038 C1041 1.404 . S
C1038 C1042 1.353 . S
N1039 Co1004 2.145 . S
N1039 C1040 1.397 . S
N1039 C1041 1.334 . S
C1040 H1021 0.929 . S
C1040 C1037 1.388 . S
C1040 N1039 1.397 . S
C1041 H1022 0.929 . S
C1041 C1038 1.404 . S
C1041 N1039 1.334 . S
C1042 H1034 0.930 . S
C1042 C1037 1.418 . S
C1042 C1038 1.353 . S
C1043 H1013 0.930 . S
C1043 N1044 1.330 . S
C1043 C1045 1.446 . S
N1044 Co1003 2.151 . S
N1044 C1043 1.330 . S
N1044 C1048 1.418 . S
C1045 H1024 0.929 . S
C1045 C1043 1.446 . S
C1045 C1046 1.332 . S
C1046 H1026 0.931 . S
C1046 C1045 1.332 . S
C1046 C1047 1.267 . S
C1047 H1015 0.929 . S
C1047 C1046 1.267 . S
C1047 C1048 1.251 . S
C1048 H1018 0.929 . S
C1048 N1044 1.418 . S
C1048 C1047 1.251 . S
C1049 H1016 0.930 . S
C1049 C1051 1.406 . S
C1049 C1054 1.261 . S
C1050 H1017 0.930 . S
C1050 N1052 1.325 . S
C1050 C1053 1.357 . S
C1051 H1019 0.928 . S
C1051 C1049 1.406 . S
C1051 N1052 1.261 . S
N1052 Co1003 2.214 . S
N1052 C1050 1.325 . S
N1052 C1051 1.261 . S
C1053 H1023 0.931 . S
C1053 C1050 1.357 . S
C1053 C1054 1.312 . S
C1054 H1025 0.930 . S
C1054 C1049 1.261 . S
C1054 C1053 1.312 . S
C1055 O1027 1.214 . S
C1055 O1035 1.234 . S
C1056 H1028 0.929 . S
C1056 C1059 1.391 . S
C1056 C1061 1.391 . S
C1057 H1029 0.929 . S
C1057 C1058 1.390 . S
C1057 N1060 1.391 . S
C1058 H1030 0.930 . S
C1058 C1057 1.390 . S
C1058 C1059 1.392 . S
C1059 H1031 0.929 . S
C1059 C1056 1.391 . S
C1059 C1058 1.392 . S
N1060 Co1004 2.257 . S
N1060 C1057 1.391 . S
N1060 C1061 1.388 . S
C1061 H1032 0.930 . S
C1061 C1056 1.391 . S
C1061 N1060 1.388 . S
Co1062 O1064 2.143 . S
Co1062 O1070 2.074 . S
Co1062 O1073 2.093 . S
Co1062 O1086 2.097 . S
Co1062 N1103 2.151 . S
Co1062 N1111 2.214 . S
Co1063 O1064 2.160 . S
Co1063 O1069 2.058 . S
Co1063 O1079 2.057 . S
Co1063 O1094 2.037 . S
Co1063 N1098 2.145 . S
Co1063 N1119 2.257 . S
O1064 Co1062 2.143 . S
O1064 Co1063 2.160 . S
C1065 O1066 1.278 . S
C1065 O1073 1.224 . S
O1066 C1065 1.278 . S
C1067 O1068 1.245 . S
C1067 O1079 1.232 . S
O1068 C1067 1.245 . S
O1069 Co1063 2.058 . S
O1069 C1095 1.269 . S
O1070 Co1062 2.074 . S
O1070 C1095 1.257 . S
H1071 C1096 0.930 . S
H1072 C1102 0.930 . S
O1073 Co1062 2.093 . S
O1073 C1065 1.224 . S
H1074 C1106 0.929 . S
H1075 C1108 0.930 . S
H1076 C1109 0.930 . S
H1077 C1107 0.929 . S
H1078 C1110 0.928 . S
O1079 Co1063 2.057 . S
O1079 C1067 1.232 . S
H1080 C1099 0.929 1_554 S
H1081 C1100 0.929 1_554 S
H1082 C1112 0.931 . S
H1083 C1104 0.929 . S
H1084 C1113 0.930 . S
H1085 C1105 0.931 . S
O1086 Co1062 2.097 . S
O1086 C1114 1.214 . S
H1087 C1115 0.929 . S
H1088 C1116 0.929 . S
H1089 C1117 0.930 . S
H1090 C1118 0.929 . S
H1091 C1120 0.930 . S
H1092 C1097 0.930 . S
H1093 C1101 0.930 . S
O1094 Co1063 2.037 . S
O1094 C1114 1.234 . S
C1095 O1069 1.269 . S
C1095 O1070 1.257 . S
C1096 H1071 0.930 . S
C1096 C1099 1.388 . S
C1096 C1101 1.418 . S
C1097 H1092 0.930 . S
C1097 C1100 1.404 . S
C1097 C1101 1.353 . S
N1098 Co1063 2.145 . S
N1098 C1099 1.397 1_554 S
N1098 C1100 1.334 1_554 S
C1099 H1080 0.929 1_556 S
C1099 C1096 1.388 . S
C1099 N1098 1.397 1_556 S
C1100 H1081 0.929 1_556 S
C1100 C1097 1.404 . S
C1100 N1098 1.334 1_556 S
C1101 H1093 0.930 . S
C1101 C1096 1.418 . S
C1101 C1097 1.353 . S
C1102 H1072 0.930 . S
C1102 N1103 1.330 . S
C1102 C1104 1.446 . S
N1103 Co1062 2.151 . S
N1103 C1102 1.330 . S
N1103 C1107 1.418 . S
C1104 H1083 0.929 . S
C1104 C1102 1.446 . S
C1104 C1105 1.332 . S
C1105 H1085 0.931 . S
C1105 C1104 1.332 . S
C1105 C1106 1.267 . S
C1106 H1074 0.929 . S
C1106 C1105 1.267 . S
C1106 C1107 1.251 . S
C1107 H1077 0.929 . S
C1107 N1103 1.418 . S
C1107 C1106 1.251 . S
C1108 H1075 0.930 . S
C1108 C1110 1.406 . S
C1108 C1113 1.261 . S
C1109 H1076 0.930 . S
C1109 N1111 1.325 . S
C1109 C1112 1.357 . S
C1110 H1078 0.928 . S
C1110 C1108 1.406 . S
C1110 N1111 1.261 . S
N1111 Co1062 2.214 . S
N1111 C1109 1.325 . S
N1111 C1110 1.261 . S
C1112 H1082 0.931 . S
C1112 C1109 1.357 . S
C1112 C1113 1.312 . S
C1113 H1084 0.930 . S
C1113 C1108 1.261 . S
C1113 C1112 1.312 . S
C1114 O1086 1.214 . S
C1114 O1094 1.234 . S
C1115 H1087 0.929 . S
C1115 C1118 1.391 . S
C1115 C1120 1.391 . S
C1116 H1088 0.929 . S
C1116 C1117 1.390 . S
C1116 N1119 1.391 . S
C1117 H1089 0.930 . S
C1117 C1116 1.390 . S
C1117 C1118 1.392 . S
C1118 H1090 0.929 . S
C1118 C1115 1.391 . S
C1118 C1117 1.392 . S
N1119 Co1063 2.257 . S
N1119 C1116 1.391 . S
N1119 C1120 1.388 . S
C1120 H1091 0.930 . S
C1120 C1115 1.391 . S
C1120 N1119 1.388 . S
Co1121 O1123 2.143 . S
Co1121 O1129 2.074 . S
Co1121 O1132 2.093 . S
Co1121 O1145 2.097 . S
Co1121 N1162 2.151 . S
Co1121 N1170 2.214 . S
Co1122 O1123 2.160 . S
Co1122 O1128 2.058 . S
Co1122 O1138 2.057 . S
Co1122 O1153 2.037 . S
Co1122 N1157 2.145 . S
Co1122 N1178 2.257 . S
O1123 Co1121 2.143 . S
O1123 Co1122 2.160 . S
C1124 O1125 1.278 . S
C1124 O1132 1.224 . S
O1125 C1124 1.278 . S
C1126 O1127 1.245 . S
C1126 O1138 1.232 . S
O1127 C1126 1.245 . S
O1128 Co1122 2.058 . S
O1128 C1154 1.269 . S
O1129 Co1121 2.074 . S
O1129 C1154 1.257 . S
H1130 C1155 0.930 . S
H1131 C1161 0.930 . S
O1132 Co1121 2.093 . S
O1132 C1124 1.224 . S
H1133 C1165 0.929 . S
H1134 C1167 0.930 . S
H1135 C1168 0.930 . S
H1136 C1166 0.929 . S
H1137 C1169 0.928 . S
O1138 Co1122 2.057 . S
O1138 C1126 1.232 . S
H1139 C1158 0.929 . S
H1140 C1159 0.929 . S
H1141 C1171 0.931 . S
H1142 C1163 0.929 . S
H1143 C1172 0.930 . S
H1144 C1164 0.931 . S
O1145 Co1121 2.097 . S
O1145 C1173 1.214 . S
H1146 C1174 0.929 . S
H1147 C1175 0.929 . S
H1148 C1176 0.930 . S
H1149 C1177 0.929 . S
H1150 C1179 0.930 . S
H1151 C1156 0.930 . S
H1152 C1160 0.930 . S
O1153 Co1122 2.037 . S
O1153 C1173 1.234 . S
C1154 O1128 1.269 . S
C1154 O1129 1.257 . S
C1155 H1130 0.930 . S
C1155 C1158 1.388 . S
C1155 C1160 1.418 . S
C1156 H1151 0.930 . S
C1156 C1159 1.404 . S
C1156 C1160 1.353 . S
N1157 Co1122 2.145 . S
N1157 C1158 1.397 . S
N1157 C1159 1.334 . S
C1158 H1139 0.929 . S
C1158 C1155 1.388 . S
C1158 N1157 1.397 . S
C1159 H1140 0.929 . S
C1159 C1156 1.404 . S
C1159 N1157 1.334 . S
C1160 H1152 0.930 . S
C1160 C1155 1.418 . S
C1160 C1156 1.353 . S
C1161 H1131 0.930 . S
C1161 N1162 1.330 . S
C1161 C1163 1.446 . S
N1162 Co1121 2.151 . S
N1162 C1161 1.330 . S
N1162 C1166 1.418 . S
C1163 H1142 0.929 . S
C1163 C1161 1.446 . S
C1163 C1164 1.332 . S
C1164 H1144 0.931 . S
C1164 C1163 1.332 . S
C1164 C1165 1.267 . S
C1165 H1133 0.929 . S
C1165 C1164 1.267 . S
C1165 C1166 1.251 . S
C1166 H1136 0.929 . S
C1166 N1162 1.418 . S
C1166 C1165 1.251 . S
C1167 H1134 0.930 . S
C1167 C1169 1.406 . S
C1167 C1172 1.261 . S
C1168 H1135 0.930 . S
C1168 N1170 1.325 . S
C1168 C1171 1.357 . S
C1169 H1137 0.928 . S
C1169 C1167 1.406 . S
C1169 N1170 1.261 . S
N1170 Co1121 2.214 . S
N1170 C1168 1.325 . S
N1170 C1169 1.261 . S
C1171 H1141 0.931 . S
C1171 C1168 1.357 . S
C1171 C1172 1.312 . S
C1172 H1143 0.930 . S
C1172 C1167 1.261 . S
C1172 C1171 1.312 . S
C1173 O1145 1.214 . S
C1173 O1153 1.234 . S
C1174 H1146 0.929 . S
C1174 C1177 1.391 . S
C1174 C1179 1.391 . S
C1175 H1147 0.929 . S
C1175 C1176 1.390 . S
C1175 N1178 1.391 . S
C1176 H1148 0.930 . S
C1176 C1175 1.390 . S
C1176 C1177 1.392 . S
C1177 H1149 0.929 . S
C1177 C1174 1.391 . S
C1177 C1176 1.392 . S
N1178 Co1122 2.257 . S
N1178 C1175 1.391 . S
N1178 C1179 1.388 . S
C1179 H1150 0.930 . S
C1179 C1174 1.391 . S
C1179 N1178 1.388 . S
Co1180 O1182 2.143 . S
Co1180 O1188 2.074 . S
Co1180 O1191 2.093 . S
Co1180 O1204 2.097 . S
Co1180 N1221 2.151 . S
Co1180 N1229 2.214 . S
Co1181 O1182 2.160 . S
Co1181 O1187 2.058 . S
Co1181 O1197 2.057 . S
Co1181 O1212 2.037 . S
Co1181 N1216 2.145 . S
Co1181 N1237 2.257 . S
O1182 Co1180 2.143 . S
O1182 Co1181 2.160 . S
C1183 O1184 1.278 . S
C1183 O1191 1.224 . S
O1184 C1183 1.278 . S
C1185 O1186 1.245 . S
C1185 O1197 1.232 . S
O1186 C1185 1.245 . S
O1187 Co1181 2.058 . S
O1187 C1213 1.269 . S
O1188 Co1180 2.074 . S
O1188 C1213 1.257 . S
H1189 C1214 0.930 . S
H1190 C1220 0.930 . S
O1191 Co1180 2.093 . S
O1191 C1183 1.224 . S
H1192 C1224 0.929 . S
H1193 C1226 0.930 . S
H1194 C1227 0.930 . S
H1195 C1225 0.929 . S
H1196 C1228 0.928 . S
O1197 Co1181 2.057 . S
O1197 C1185 1.232 . S
H1198 C1217 0.929 1_554 S
H1199 C1218 0.929 1_554 S
H1200 C1230 0.931 . S
H1201 C1222 0.929 . S
H1202 C1231 0.930 . S
H1203 C1223 0.931 . S
O1204 Co1180 2.097 . S
O1204 C1232 1.214 . S
H1205 C1233 0.929 . S
H1206 C1234 0.929 . S
H1207 C1235 0.930 . S
H1208 C1236 0.929 . S
H1209 C1238 0.930 . S
H1210 C1215 0.930 . S
H1211 C1219 0.930 . S
O1212 Co1181 2.037 . S
O1212 C1232 1.234 . S
C1213 O1187 1.269 . S
C1213 O1188 1.257 . S
C1214 H1189 0.930 . S
C1214 C1217 1.388 . S
C1214 C1219 1.418 . S
C1215 H1210 0.930 . S
C1215 C1218 1.404 . S
C1215 C1219 1.353 . S
N1216 Co1181 2.145 . S
N1216 C1217 1.397 1_554 S
N1216 C1218 1.334 1_554 S
C1217 H1198 0.929 1_556 S
C1217 C1214 1.388 . S
C1217 N1216 1.397 1_556 S
C1218 H1199 0.929 1_556 S
C1218 C1215 1.404 . S
C1218 N1216 1.334 1_556 S
C1219 H1211 0.930 . S
C1219 C1214 1.418 . S
C1219 C1215 1.353 . S
C1220 H1190 0.930 . S
C1220 N1221 1.330 . S
C1220 C1222 1.446 . S
N1221 Co1180 2.151 . S
N1221 C1220 1.330 . S
N1221 C1225 1.418 . S
C1222 H1201 0.929 . S
C1222 C1220 1.446 . S
C1222 C1223 1.332 . S
C1223 H1203 0.931 . S
C1223 C1222 1.332 . S
C1223 C1224 1.267 . S
C1224 H1192 0.929 . S
C1224 C1223 1.267 . S
C1224 C1225 1.251 . S
C1225 H1195 0.929 . S
C1225 N1221 1.418 . S
C1225 C1224 1.251 . S
C1226 H1193 0.930 . S
C1226 C1228 1.406 . S
C1226 C1231 1.261 . S
C1227 H1194 0.930 . S
C1227 N1229 1.325 . S
C1227 C1230 1.357 . S
C1228 H1196 0.928 . S
C1228 C1226 1.406 . S
C1228 N1229 1.261 . S
N1229 Co1180 2.214 . S
N1229 C1227 1.325 . S
N1229 C1228 1.261 . S
C1230 H1200 0.931 . S
C1230 C1227 1.357 . S
C1230 C1231 1.312 . S
C1231 H1202 0.930 . S
C1231 C1226 1.261 . S
C1231 C1230 1.312 . S
C1232 O1204 1.214 . S
C1232 O1212 1.234 . S
C1233 H1205 0.929 . S
C1233 C1236 1.391 . S
C1233 C1238 1.391 . S
C1234 H1206 0.929 . S
C1234 C1235 1.390 . S
C1234 N1237 1.391 . S
C1235 H1207 0.930 . S
C1235 C1234 1.390 . S
C1235 C1236 1.392 . S
C1236 H1208 0.929 . S
C1236 C1233 1.391 . S
C1236 C1235 1.392 . S
N1237 Co1181 2.257 . S
N1237 C1234 1.391 . S
N1237 C1238 1.388 . S
C1238 H1209 0.930 . S
C1238 C1233 1.391 . S
C1238 N1237 1.388 . S
Co1239 O1241 2.143 . S
Co1239 O1247 2.074 . S
Co1239 O1250 2.093 . S
Co1239 O1263 2.097 . S
Co1239 N1280 2.151 . S
Co1239 N1288 2.214 . S
Co1240 O1241 2.160 . S
Co1240 O1246 2.058 . S
Co1240 O1256 2.057 . S
Co1240 O1271 2.037 . S
Co1240 N1275 2.145 . S
Co1240 N1296 2.257 . S
O1241 Co1239 2.143 . S
O1241 Co1240 2.160 . S
C1242 O1243 1.278 . S
C1242 O1250 1.224 . S
O1243 C1242 1.278 . S
C1244 O1245 1.245 . S
C1244 O1256 1.232 . S
O1245 C1244 1.245 . S
O1246 Co1240 2.058 . S
O1246 C1272 1.269 . S
O1247 Co1239 2.074 . S
O1247 C1272 1.257 . S
H1248 C1273 0.930 . S
H1249 C1279 0.930 . S
O1250 Co1239 2.093 . S
O1250 C1242 1.224 . S
H1251 C1283 0.929 . S
H1252 C1285 0.930 . S
H1253 C1286 0.930 . S
H1254 C1284 0.929 . S
H1255 C1287 0.928 . S
O1256 Co1240 2.057 . S
O1256 C1244 1.232 . S
H1257 C1276 0.929 . S
H1258 C1277 0.929 . S
H1259 C1289 0.931 . S
H1260 C1281 0.929 . S
H1261 C1290 0.930 . S
H1262 C1282 0.931 . S
O1263 Co1239 2.097 . S
O1263 C1291 1.214 . S
H1264 C1292 0.929 . S
H1265 C1293 0.929 . S
H1266 C1294 0.930 . S
H1267 C1295 0.929 . S
H1268 C1297 0.930 . S
H1269 C1274 0.930 . S
H1270 C1278 0.930 . S
O1271 Co1240 2.037 . S
O1271 C1291 1.234 . S
C1272 O1246 1.269 . S
C1272 O1247 1.257 . S
C1273 H1248 0.930 . S
C1273 C1276 1.388 . S
C1273 C1278 1.418 . S
C1274 H1269 0.930 . S
C1274 C1277 1.404 . S
C1274 C1278 1.353 . S
N1275 Co1240 2.145 . S
N1275 C1276 1.397 . S
N1275 C1277 1.334 . S
C1276 H1257 0.929 . S
C1276 C1273 1.388 . S
C1276 N1275 1.397 . S
C1277 H1258 0.929 . S
C1277 C1274 1.404 . S
C1277 N1275 1.334 . S
C1278 H1270 0.930 . S
C1278 C1273 1.418 . S
C1278 C1274 1.353 . S
C1279 H1249 0.930 . S
C1279 N1280 1.330 . S
C1279 C1281 1.446 . S
N1280 Co1239 2.151 . S
N1280 C1279 1.330 . S
N1280 C1284 1.418 . S
C1281 H1260 0.929 . S
C1281 C1279 1.446 . S
C1281 C1282 1.332 . S
C1282 H1262 0.931 . S
C1282 C1281 1.332 . S
C1282 C1283 1.267 . S
C1283 H1251 0.929 . S
C1283 C1282 1.267 . S
C1283 C1284 1.251 . S
C1284 H1254 0.929 . S
C1284 N1280 1.418 . S
C1284 C1283 1.251 . S
C1285 H1252 0.930 . S
C1285 C1287 1.406 . S
C1285 C1290 1.261 . S
C1286 H1253 0.930 . S
C1286 N1288 1.325 . S
C1286 C1289 1.357 . S
C1287 H1255 0.928 . S
C1287 C1285 1.406 . S
C1287 N1288 1.261 . S
N1288 Co1239 2.214 . S
N1288 C1286 1.325 . S
N1288 C1287 1.261 . S
C1289 H1259 0.931 . S
C1289 C1286 1.357 . S
C1289 C1290 1.312 . S
C1290 H1261 0.930 . S
C1290 C1285 1.261 . S
C1290 C1289 1.312 . S
C1291 O1263 1.214 . S
C1291 O1271 1.234 . S
C1292 H1264 0.929 . S
C1292 C1295 1.391 . S
C1292 C1297 1.391 . S
C1293 H1265 0.929 . S
C1293 C1294 1.390 . S
C1293 N1296 1.391 . S
C1294 H1266 0.930 . S
C1294 C1293 1.390 . S
C1294 C1295 1.392 . S
C1295 H1267 0.929 . S
C1295 C1292 1.391 . S
C1295 C1294 1.392 . S
N1296 Co1240 2.257 . S
N1296 C1293 1.391 . S
N1296 C1297 1.388 . S
C1297 H1268 0.930 . S
C1297 C1292 1.391 . S
C1297 N1296 1.388 . S
Co1298 O1300 2.143 . S
Co1298 O1306 2.074 . S
Co1298 O1309 2.093 . S
Co1298 O1322 2.097 . S
Co1298 N1339 2.151 . S
Co1298 N1347 2.214 . S
Co1299 O1300 2.160 . S
Co1299 O1305 2.058 . S
Co1299 O1315 2.057 . S
Co1299 O1330 2.037 . S
Co1299 N1334 2.145 . S
Co1299 N1355 2.257 . S
O1300 Co1298 2.143 . S
O1300 Co1299 2.160 . S
C1301 O1302 1.278 . S
C1301 O1309 1.224 . S
O1302 C1301 1.278 . S
C1303 O1304 1.245 . S
C1303 O1315 1.232 . S
O1304 C1303 1.245 . S
O1305 Co1299 2.058 . S
O1305 C1331 1.269 . S
O1306 Co1298 2.074 . S
O1306 C1331 1.257 . S
H1307 C1332 0.930 . S
H1308 C1338 0.930 . S
O1309 Co1298 2.093 . S
O1309 C1301 1.224 . S
H1310 C1342 0.929 . S
H1311 C1344 0.930 . S
H1312 C1345 0.930 . S
H1313 C1343 0.929 . S
H1314 C1346 0.928 . S
O1315 Co1299 2.057 . S
O1315 C1303 1.232 . S
H1316 C1335 0.929 1_554 S
H1317 C1336 0.929 1_554 S
H1318 C1348 0.931 . S
H1319 C1340 0.929 . S
H1320 C1349 0.930 . S
H1321 C1341 0.931 . S
O1322 Co1298 2.097 . S
O1322 C1350 1.214 . S
H1323 C1351 0.929 . S
H1324 C1352 0.929 . S
H1325 C1353 0.930 . S
H1326 C1354 0.929 . S
H1327 C1356 0.930 . S
H1328 C1333 0.930 . S
H1329 C1337 0.930 . S
O1330 Co1299 2.037 . S
O1330 C1350 1.234 . S
C1331 O1305 1.269 . S
C1331 O1306 1.257 . S
C1332 H1307 0.930 . S
C1332 C1335 1.388 . S
C1332 C1337 1.418 . S
C1333 H1328 0.930 . S
C1333 C1336 1.404 . S
C1333 C1337 1.353 . S
N1334 Co1299 2.145 . S
N1334 C1335 1.397 1_554 S
N1334 C1336 1.334 1_554 S
C1335 H1316 0.929 1_556 S
C1335 C1332 1.388 . S
C1335 N1334 1.397 1_556 S
C1336 H1317 0.929 1_556 S
C1336 C1333 1.404 . S
C1336 N1334 1.334 1_556 S
C1337 H1329 0.930 . S
C1337 C1332 1.418 . S
C1337 C1333 1.353 . S
C1338 H1308 0.930 . S
C1338 N1339 1.330 . S
C1338 C1340 1.446 . S
N1339 Co1298 2.151 . S
N1339 C1338 1.330 . S
N1339 C1343 1.418 . S
C1340 H1319 0.929 . S
C1340 C1338 1.446 . S
C1340 C1341 1.332 . S
C1341 H1321 0.931 . S
C1341 C1340 1.332 . S
C1341 C1342 1.267 . S
C1342 H1310 0.929 . S
C1342 C1341 1.267 . S
C1342 C1343 1.251 . S
C1343 H1313 0.929 . S
C1343 N1339 1.418 . S
C1343 C1342 1.251 . S
C1344 H1311 0.930 . S
C1344 C1346 1.406 . S
C1344 C1349 1.261 . S
C1345 H1312 0.930 . S
C1345 N1347 1.325 . S
C1345 C1348 1.357 . S
C1346 H1314 0.928 . S
C1346 C1344 1.406 . S
C1346 N1347 1.261 . S
N1347 Co1298 2.214 . S
N1347 C1345 1.325 . S
N1347 C1346 1.261 . S
C1348 H1318 0.931 . S
C1348 C1345 1.357 . S
C1348 C1349 1.312 . S
C1349 H1320 0.930 . S
C1349 C1344 1.261 . S
C1349 C1348 1.312 . S
C1350 O1322 1.214 . S
C1350 O1330 1.234 . S
C1351 H1323 0.929 . S
C1351 C1354 1.391 . S
C1351 C1356 1.391 . S
C1352 H1324 0.929 . S
C1352 C1353 1.390 . S
C1352 N1355 1.391 . S
C1353 H1325 0.930 . S
C1353 C1352 1.390 . S
C1353 C1354 1.392 . S
C1354 H1326 0.929 . S
C1354 C1351 1.391 . S
C1354 C1353 1.392 . S
N1355 Co1299 2.257 . S
N1355 C1352 1.391 . S
N1355 C1356 1.388 . S
C1356 H1327 0.930 . S
C1356 C1351 1.391 . S
C1356 N1355 1.388 . S
Co1357 O1359 2.143 . S
Co1357 O1365 2.074 . S
Co1357 O1368 2.093 . S
Co1357 O1381 2.097 . S
Co1357 N1398 2.151 . S
Co1357 N1406 2.214 . S
Co1358 O1359 2.160 . S
Co1358 O1364 2.058 . S
Co1358 O1374 2.057 . S
Co1358 O1389 2.037 . S
Co1358 N1393 2.145 . S
Co1358 N1414 2.257 . S
O1359 Co1357 2.143 . S
O1359 Co1358 2.160 . S
C1360 O1361 1.278 . S
C1360 O1368 1.224 . S
O1361 C1360 1.278 . S
C1362 O1363 1.245 . S
C1362 O1374 1.232 . S
O1363 C1362 1.245 . S
O1364 Co1358 2.058 . S
O1364 C1390 1.269 . S
O1365 Co1357 2.074 . S
O1365 C1390 1.257 . S
H1366 C1391 0.930 . S
H1367 C1397 0.930 . S
O1368 Co1357 2.093 . S
O1368 C1360 1.224 . S
H1369 C1401 0.929 . S
H1370 C1403 0.930 . S
H1371 C1404 0.930 . S
H1372 C1402 0.929 . S
H1373 C1405 0.928 . S
O1374 Co1358 2.057 . S
O1374 C1362 1.232 . S
H1375 C1394 0.929 . S
H1376 C1395 0.929 . S
H1377 C1407 0.931 . S
H1378 C1399 0.929 . S
H1379 C1408 0.930 . S
H1380 C1400 0.931 . S
O1381 Co1357 2.097 . S
O1381 C1409 1.214 . S
H1382 C1410 0.929 . S
H1383 C1411 0.929 . S
H1384 C1412 0.930 . S
H1385 C1413 0.929 . S
H1386 C1415 0.930 . S
H1387 C1392 0.930 . S
H1388 C1396 0.930 . S
O1389 Co1358 2.037 . S
O1389 C1409 1.234 . S
C1390 O1364 1.269 . S
C1390 O1365 1.257 . S
C1391 H1366 0.930 . S
C1391 C1394 1.388 . S
C1391 C1396 1.418 . S
C1392 H1387 0.930 . S
C1392 C1395 1.404 . S
C1392 C1396 1.353 . S
N1393 Co1358 2.145 . S
N1393 C1394 1.397 . S
N1393 C1395 1.334 . S
C1394 H1375 0.929 . S
C1394 C1391 1.388 . S
C1394 N1393 1.397 . S
C1395 H1376 0.929 . S
C1395 C1392 1.404 . S
C1395 N1393 1.334 . S
C1396 H1388 0.930 . S
C1396 C1391 1.418 . S
C1396 C1392 1.353 . S
C1397 H1367 0.930 . S
C1397 N1398 1.330 . S
C1397 C1399 1.446 . S
N1398 Co1357 2.151 . S
N1398 C1397 1.330 . S
N1398 C1402 1.418 . S
C1399 H1378 0.929 . S
C1399 C1397 1.446 . S
C1399 C1400 1.332 . S
C1400 H1380 0.931 . S
C1400 C1399 1.332 . S
C1400 C1401 1.267 . S
C1401 H1369 0.929 . S
C1401 C1400 1.267 . S
C1401 C1402 1.251 . S
C1402 H1372 0.929 . S
C1402 N1398 1.418 . S
C1402 C1401 1.251 . S
C1403 H1370 0.930 . S
C1403 C1405 1.406 . S
C1403 C1408 1.261 . S
C1404 H1371 0.930 . S
C1404 N1406 1.325 . S
C1404 C1407 1.357 . S
C1405 H1373 0.928 . S
C1405 C1403 1.406 . S
C1405 N1406 1.261 . S
N1406 Co1357 2.214 . S
N1406 C1404 1.325 . S
N1406 C1405 1.261 . S
C1407 H1377 0.931 . S
C1407 C1404 1.357 . S
C1407 C1408 1.312 . S
C1408 H1379 0.930 . S
C1408 C1403 1.261 . S
C1408 C1407 1.312 . S
C1409 O1381 1.214 . S
C1409 O1389 1.234 . S
C1410 H1382 0.929 . S
C1410 C1413 1.391 . S
C1410 C1415 1.391 . S
C1411 H1383 0.929 . S
C1411 C1412 1.390 . S
C1411 N1414 1.391 . S
C1412 H1384 0.930 . S
C1412 C1411 1.390 . S
C1412 C1413 1.392 . S
C1413 H1385 0.929 . S
C1413 C1410 1.391 . S
C1413 C1412 1.392 . S
N1414 Co1358 2.257 . S
N1414 C1411 1.391 . S
N1414 C1415 1.388 . S
C1415 H1386 0.930 . S
C1415 C1410 1.391 . S
C1415 N1414 1.388 . S
H1416 C1422 0.930 . S
H1417 C1426 0.930 . S
H1418 C1431 0.929 . S
H1419 C1429 0.929 . S
H1420 C1424 0.929 . S
H1421 C1430 0.929 . S
C1422 H1416 0.930 . S
C1422 C1423 1.367 . S
C1422 C1430 1.378 . S
C1423 C1422 1.367 . S
C1423 C1431 1.433 . S
C1424 H1420 0.929 . S
C1424 C1426 1.378 . S
C1424 C1428 1.350 . S
C1425 C1428 1.463 . S
C1425 C1430 1.350 . S
C1425 N1433 1.427 . S
C1426 H1417 0.930 . S
C1426 C1424 1.378 . S
C1426 C1427 1.367 . S
C1427 C1426 1.367 . S
C1427 C1429 1.433 . S
C1428 C1424 1.350 . S
C1428 C1425 1.463 . S
C1428 N1432 1.427 . S
C1429 H1419 0.929 . S
C1429 C1427 1.433 . S
C1429 N1432 1.384 . S
C1430 H1421 0.929 . S
C1430 C1422 1.378 . S
C1430 C1425 1.350 . S
C1431 H1418 0.929 . S
C1431 C1423 1.433 . S
C1431 N1433 1.384 . S
N1432 C1428 1.427 . S
N1432 C1429 1.384 . S
N1433 C1425 1.427 . S
N1433 C1431 1.384 . S
H1434 C1440 0.930 . S
H1435 C1444 0.930 . S
H1436 C1449 0.929 . S
H1437 C1447 0.929 . S
H1438 C1442 0.929 . S
H1439 C1448 0.929 . S
C1440 H1434 0.930 . S
C1440 C1441 1.367 . S
C1440 C1448 1.378 . S
C1441 C1440 1.367 . S
C1441 C1449 1.433 . S
C1442 H1438 0.929 . S
C1442 C1444 1.378 . S
C1442 C1446 1.350 . S
C1443 C1446 1.463 . S
C1443 C1448 1.350 . S
C1443 N1451 1.427 . S
C1444 H1435 0.930 . S
C1444 C1442 1.378 . S
C1444 C1445 1.367 . S
C1445 C1444 1.367 . S
C1445 C1447 1.433 . S
C1446 C1442 1.350 . S
C1446 C1443 1.463 . S
C1446 N1450 1.427 . S
C1447 H1437 0.929 . S
C1447 C1445 1.433 . S
C1447 N1450 1.384 . S
C1448 H1439 0.929 . S
C1448 C1440 1.378 . S
C1448 C1443 1.350 . S
C1449 H1436 0.929 . S
C1449 C1441 1.433 . S
C1449 N1451 1.384 . S
N1450 C1446 1.427 . S
N1450 C1447 1.384 . S
N1451 C1443 1.427 . S
N1451 C1449 1.384 . S
H1452 C1458 0.930 . S
H1453 C1462 0.930 . S
H1454 C1467 0.929 . S
H1455 C1465 0.929 . S
H1456 C1460 0.929 . S
H1457 C1466 0.929 . S
C1458 H1452 0.930 . S
C1458 C1459 1.367 . S
C1458 C1466 1.378 . S
C1459 C1458 1.367 . S
C1459 C1467 1.433 . S
C1460 H1456 0.929 . S
C1460 C1462 1.378 . S
C1460 C1464 1.350 . S
C1461 C1464 1.463 . S
C1461 C1466 1.350 . S
C1461 N1469 1.427 . S
C1462 H1453 0.930 . S
C1462 C1460 1.378 . S
C1462 C1463 1.367 . S
C1463 C1462 1.367 . S
C1463 C1465 1.433 . S
C1464 C1460 1.350 . S
C1464 C1461 1.463 . S
C1464 N1468 1.427 . S
C1465 H1455 0.929 . S
C1465 C1463 1.433 . S
C1465 N1468 1.384 . S
C1466 H1457 0.929 . S
C1466 C1458 1.378 . S
C1466 C1461 1.350 . S
C1467 H1454 0.929 . S
C1467 C1459 1.433 . S
C1467 N1469 1.384 . S
N1468 C1464 1.427 . S
N1468 C1465 1.384 . S
N1469 C1461 1.427 . S
N1469 C1467 1.384 . S
H1470 C1476 0.930 . S
H1471 C1480 0.930 . S
H1472 C1485 0.929 . S
H1473 C1483 0.929 . S
H1474 C1478 0.929 . S
H1475 C1484 0.929 . S
C1476 H1470 0.930 . S
C1476 C1477 1.367 . S
C1476 C1484 1.378 . S
C1477 C1476 1.367 . S
C1477 C1485 1.433 . S
C1478 H1474 0.929 . S
C1478 C1480 1.378 . S
C1478 C1482 1.350 . S
C1479 C1482 1.463 . S
C1479 C1484 1.350 . S
C1479 N1487 1.427 . S
C1480 H1471 0.930 . S
C1480 C1478 1.378 . S
C1480 C1481 1.367 . S
C1481 C1480 1.367 . S
C1481 C1483 1.433 . S
C1482 C1478 1.350 . S
C1482 C1479 1.463 . S
C1482 N1486 1.427 . S
C1483 H1473 0.929 . S
C1483 C1481 1.433 . S
C1483 N1486 1.384 . S
C1484 H1475 0.929 . S
C1484 C1476 1.378 . S
C1484 C1479 1.350 . S
C1485 H1472 0.929 . S
C1485 C1477 1.433 . S
C1485 N1487 1.384 . S
N1486 C1482 1.427 . S
N1486 C1483 1.384 . S
N1487 C1479 1.427 . S
N1487 C1485 1.384 . S
H1488 C1494 0.930 . S
H1489 C1498 0.930 . S
H1490 C1503 0.929 . S
H1491 C1501 0.929 . S
H1492 C1496 0.929 . S
H1493 C1502 0.929 . S
C1494 H1488 0.930 . S
C1494 C1495 1.367 . S
C1494 C1502 1.378 . S
C1495 C1494 1.367 . S
C1495 C1503 1.433 . S
C1496 H1492 0.929 . S
C1496 C1498 1.378 . S
C1496 C1500 1.350 . S
C1497 C1500 1.463 . S
C1497 C1502 1.350 . S
C1497 N1505 1.427 . S
C1498 H1489 0.930 . S
C1498 C1496 1.378 . S
C1498 C1499 1.367 . S
C1499 C1498 1.367 . S
C1499 C1501 1.433 . S
C1500 C1496 1.350 . S
C1500 C1497 1.463 . S
C1500 N1504 1.427 . S
C1501 H1491 0.929 . S
C1501 C1499 1.433 . S
C1501 N1504 1.384 . S
C1502 H1493 0.929 . S
C1502 C1494 1.378 . S
C1502 C1497 1.350 . S
C1503 H1490 0.929 . S
C1503 C1495 1.433 . S
C1503 N1505 1.384 . S
N1504 C1500 1.427 . S
N1504 C1501 1.384 . S
N1505 C1497 1.427 . S
N1505 C1503 1.384 . S
H1506 C1512 0.930 . S
H1507 C1516 0.930 . S
H1508 C1521 0.929 . S
H1509 C1519 0.929 . S
H1510 C1514 0.929 . S
H1511 C1520 0.929 . S
C1512 H1506 0.930 . S
C1512 C1513 1.367 . S
C1512 C1520 1.378 . S
C1513 C1512 1.367 . S
C1513 C1521 1.433 . S
C1514 H1510 0.929 . S
C1514 C1516 1.378 . S
C1514 C1518 1.350 . S
C1515 C1518 1.463 . S
C1515 C1520 1.350 . S
C1515 N1523 1.427 . S
C1516 H1507 0.930 . S
C1516 C1514 1.378 . S
C1516 C1517 1.367 . S
C1517 C1516 1.367 . S
C1517 C1519 1.433 . S
C1518 C1514 1.350 . S
C1518 C1515 1.463 . S
C1518 N1522 1.427 . S
C1519 H1509 0.929 . S
C1519 C1517 1.433 . S
C1519 N1522 1.384 . S
C1520 H1511 0.929 . S
C1520 C1512 1.378 . S
C1520 C1515 1.350 . S
C1521 H1508 0.929 . S
C1521 C1513 1.433 . S
C1521 N1523 1.384 . S
N1522 C1518 1.427 . S
N1522 C1519 1.384 . S
N1523 C1515 1.427 . S
N1523 C1521 1.384 . S
H1524 C1530 0.930 . S
H1525 C1534 0.930 . S
H1526 C1539 0.929 . S
H1527 C1537 0.929 . S
H1528 C1532 0.929 . S
H1529 C1538 0.929 . S
C1530 H1524 0.930 . S
C1530 C1531 1.367 . S
C1530 C1538 1.378 . S
C1531 C1530 1.367 . S
C1531 C1539 1.433 . S
C1532 H1528 0.929 . S
C1532 C1534 1.378 . S
C1532 C1536 1.350 . S
C1533 C1536 1.463 . S
C1533 C1538 1.350 . S
C1533 N1541 1.427 . S
C1534 H1525 0.930 . S
C1534 C1532 1.378 . S
C1534 C1535 1.367 . S
C1535 C1534 1.367 . S
C1535 C1537 1.433 . S
C1536 C1532 1.350 . S
C1536 C1533 1.463 . S
C1536 N1540 1.427 . S
C1537 H1527 0.929 . S
C1537 C1535 1.433 . S
C1537 N1540 1.384 . S
C1538 H1529 0.929 . S
C1538 C1530 1.378 . S
C1538 C1533 1.350 . S
C1539 H1526 0.929 . S
C1539 C1531 1.433 . S
C1539 N1541 1.384 . S
N1540 C1536 1.427 . S
N1540 C1537 1.384 . S
N1541 C1533 1.427 . S
N1541 C1539 1.384 . S
H1542 C1548 0.930 . S
H1543 C1552 0.930 . S
H1544 C1557 0.929 . S
H1545 C1555 0.929 . S
H1546 C1550 0.929 . S
H1547 C1556 0.929 . S
C1548 H1542 0.930 . S
C1548 C1549 1.367 . S
C1548 C1556 1.378 . S
C1549 C1548 1.367 . S
C1549 C1557 1.433 . S
C1550 H1546 0.929 . S
C1550 C1552 1.378 . S
C1550 C1554 1.350 . S
C1551 C1554 1.463 . S
C1551 C1556 1.350 . S
C1551 N1559 1.427 . S
C1552 H1543 0.930 . S
C1552 C1550 1.378 . S
C1552 C1553 1.367 . S
C1553 C1552 1.367 . S
C1553 C1555 1.433 . S
C1554 C1550 1.350 . S
C1554 C1551 1.463 . S
C1554 N1558 1.427 . S
C1555 H1545 0.929 . S
C1555 C1553 1.433 . S
C1555 N1558 1.384 . S
C1556 H1547 0.929 . S
C1556 C1548 1.378 . S
C1556 C1551 1.350 . S
C1557 H1544 0.929 . S
C1557 C1549 1.433 . S
C1557 N1559 1.384 . S
N1558 C1554 1.427 . S
N1558 C1555 1.384 . S
N1559 C1551 1.427 . S
N1559 C1557 1.384 . S
H1560 C1566 0.930 . S
H1561 C1570 0.930 . S
H1562 C1575 0.929 . S
H1563 C1573 0.929 . S
H1564 C1568 0.929 . S
H1565 C1574 0.929 . S
C1566 H1560 0.930 . S
C1566 C1567 1.367 . S
C1566 C1574 1.378 . S
C1567 C1566 1.367 . S
C1567 C1575 1.433 . S
C1568 H1564 0.929 . S
C1568 C1570 1.378 . S
C1568 C1572 1.350 . S
C1569 C1572 1.463 . S
C1569 C1574 1.350 . S
C1569 N1577 1.427 . S
C1570 H1561 0.930 . S
C1570 C1568 1.378 . S
C1570 C1571 1.367 . S
C1571 C1570 1.367 . S
C1571 C1573 1.433 . S
C1572 C1568 1.350 . S
C1572 C1569 1.463 . S
C1572 N1576 1.427 . S
C1573 H1563 0.929 . S
C1573 C1571 1.433 . S
C1573 N1576 1.384 . S
C1574 H1565 0.929 . S
C1574 C1566 1.378 . S
C1574 C1569 1.350 . S
C1575 H1562 0.929 . S
C1575 C1567 1.433 . S
C1575 N1577 1.384 . S
N1576 C1572 1.427 . S
N1576 C1573 1.384 . S
N1577 C1569 1.427 . S
N1577 C1575 1.384 . S
H1578 C1584 0.930 . S
H1579 C1588 0.930 . S
H1580 C1593 0.929 . S
H1581 C1591 0.929 . S
H1582 C1586 0.929 . S
H1583 C1592 0.929 . S
C1584 H1578 0.930 . S
C1584 C1585 1.367 . S
C1584 C1592 1.378 . S
C1585 C1584 1.367 . S
C1585 C1593 1.433 . S
C1586 H1582 0.929 . S
C1586 C1588 1.378 . S
C1586 C1590 1.350 . S
C1587 C1590 1.463 . S
C1587 C1592 1.350 . S
C1587 N1595 1.427 . S
C1588 H1579 0.930 . S
C1588 C1586 1.378 . S
C1588 C1589 1.367 . S
C1589 C1588 1.367 . S
C1589 C1591 1.433 . S
C1590 C1586 1.350 . S
C1590 C1587 1.463 . S
C1590 N1594 1.427 . S
C1591 H1581 0.929 . S
C1591 C1589 1.433 . S
C1591 N1594 1.384 . S
C1592 H1583 0.929 . S
C1592 C1584 1.378 . S
C1592 C1587 1.350 . S
C1593 H1580 0.929 . S
C1593 C1585 1.433 . S
C1593 N1595 1.384 . S
N1594 C1590 1.427 . S
N1594 C1591 1.384 . S
N1595 C1587 1.427 . S
N1595 C1593 1.384 . S
H1596 C1602 0.930 . S
H1597 C1606 0.930 . S
H1598 C1611 0.929 . S
H1599 C1609 0.929 . S
H1600 C1604 0.929 . S
H1601 C1610 0.929 . S
C1602 H1596 0.930 . S
C1602 C1603 1.367 . S
C1602 C1610 1.378 . S
C1603 C1602 1.367 . S
C1603 C1611 1.433 . S
C1604 H1600 0.929 . S
C1604 C1606 1.378 . S
C1604 C1608 1.350 . S
C1605 C1608 1.463 . S
C1605 C1610 1.350 . S
C1605 N1613 1.427 . S
C1606 H1597 0.930 . S
C1606 C1604 1.378 . S
C1606 C1607 1.367 . S
C1607 C1606 1.367 . S
C1607 C1609 1.433 . S
C1608 C1604 1.350 . S
C1608 C1605 1.463 . S
C1608 N1612 1.427 . S
C1609 H1599 0.929 . S
C1609 C1607 1.433 . S
C1609 N1612 1.384 . S
C1610 H1601 0.929 . S
C1610 C1602 1.378 . S
C1610 C1605 1.350 . S
C1611 H1598 0.929 . S
C1611 C1603 1.433 . S
C1611 N1613 1.384 . S
N1612 C1608 1.427 . S
N1612 C1609 1.384 . S
N1613 C1605 1.427 . S
N1613 C1611 1.384 . S
H1614 C1620 0.930 . S
H1615 C1624 0.930 . S
H1616 C1629 0.929 . S
H1617 C1627 0.929 . S
H1618 C1622 0.929 . S
H1619 C1628 0.929 . S
C1620 H1614 0.930 . S
C1620 C1621 1.367 . S
C1620 C1628 1.378 . S
C1621 C1620 1.367 . S
C1621 C1629 1.433 . S
C1622 H1618 0.929 . S
C1622 C1624 1.378 . S
C1622 C1626 1.350 . S
C1623 C1626 1.463 . S
C1623 C1628 1.350 . S
C1623 N1631 1.427 . S
C1624 H1615 0.930 . S
C1624 C1622 1.378 . S
C1624 C1625 1.367 . S
C1625 C1624 1.367 . S
C1625 C1627 1.433 . S
C1626 C1622 1.350 . S
C1626 C1623 1.463 . S
C1626 N1630 1.427 . S
C1627 H1617 0.929 . S
C1627 C1625 1.433 . S
C1627 N1630 1.384 . S
C1628 H1619 0.929 . S
C1628 C1620 1.378 . S
C1628 C1623 1.350 . S
C1629 H1616 0.929 . S
C1629 C1621 1.433 . S
C1629 N1631 1.384 . S
N1630 C1626 1.427 . S
N1630 C1627 1.384 . S
N1631 C1623 1.427 . S
N1631 C1629 1.384 . S
H1632 C1638 0.930 . S
H1633 C1642 0.930 . S
H1634 C1647 0.929 . S
H1635 C1645 0.929 . S
H1636 C1640 0.929 . S
H1637 C1646 0.929 . S
C1638 H1632 0.930 . S
C1638 C1639 1.367 . S
C1638 C1646 1.378 1_556 S
C1639 C1638 1.367 . S
C1639 C1647 1.433 . S
C1640 H1636 0.929 . S
C1640 C1642 1.378 1_556 S
C1640 C1644 1.350 1_556 S
C1641 C1644 1.463 1_556 S
C1641 C1646 1.350 1_556 S
C1641 N1649 1.427 . S
C1642 H1633 0.930 . S
C1642 C1640 1.378 1_554 S
C1642 C1643 1.367 . S
C1643 C1642 1.367 . S
C1643 C1645 1.433 . S
C1644 C1640 1.350 1_554 S
C1644 C1641 1.463 1_554 S
C1644 N1648 1.427 . S
C1645 H1635 0.929 . S
C1645 C1643 1.433 . S
C1645 N1648 1.384 . S
C1646 H1637 0.929 . S
C1646 C1638 1.378 1_554 S
C1646 C1641 1.350 1_554 S
C1647 H1634 0.929 . S
C1647 C1639 1.433 . S
C1647 N1649 1.384 . S
N1648 C1644 1.427 . S
N1648 C1645 1.384 . S
N1649 C1641 1.427 . S
N1649 C1647 1.384 . S
H1650 C1656 0.930 . S
H1651 C1660 0.930 . S
H1652 C1665 0.929 . S
H1653 C1663 0.929 . S
H1654 C1658 0.929 . S
H1655 C1664 0.929 . S
C1656 H1650 0.930 . S
C1656 C1657 1.367 . S
C1656 C1664 1.378 . S
C1657 C1656 1.367 . S
C1657 C1665 1.433 . S
C1658 H1654 0.929 . S
C1658 C1660 1.378 . S
C1658 C1662 1.350 . S
C1659 C1662 1.463 . S
C1659 C1664 1.350 . S
C1659 N1667 1.427 . S
C1660 H1651 0.930 . S
C1660 C1658 1.378 . S
C1660 C1661 1.367 . S
C1661 C1660 1.367 . S
C1661 C1663 1.433 . S
C1662 C1658 1.350 . S
C1662 C1659 1.463 . S
C1662 N1666 1.427 . S
C1663 H1653 0.929 . S
C1663 C1661 1.433 . S
C1663 N1666 1.384 . S
C1664 H1655 0.929 . S
C1664 C1656 1.378 . S
C1664 C1659 1.350 . S
C1665 H1652 0.929 . S
C1665 C1657 1.433 . S
C1665 N1667 1.384 . S
N1666 C1662 1.427 . S
N1666 C1663 1.384 . S
N1667 C1659 1.427 . S
N1667 C1665 1.384 . S
H1668 C1674 0.930 . S
H1669 C1678 0.930 . S
H1670 C1683 0.929 . S
H1671 C1681 0.929 . S
H1672 C1676 0.912 1_554 S
H1673 C1682 0.912 1_556 S
C1674 H1668 0.930 . S
C1674 C1675 1.367 . S
C1674 C1682 1.389 . S
C1675 C1674 1.367 . S
C1675 C1683 1.433 . S
C1676 H1672 0.912 1_556 S
C1676 C1678 1.389 . S
C1676 C1680 1.356 . S
C1677 C1680 1.463 1_554 S
C1677 C1682 1.355 . S
C1677 N1685 1.427 . S
C1678 H1669 0.930 . S
C1678 C1676 1.389 . S
C1678 C1679 1.367 . S
C1679 C1678 1.367 . S
C1679 C1681 1.433 . S
C1680 C1676 1.356 . S
C1680 C1677 1.463 1_556 S
C1680 N1684 1.427 . S
C1681 H1671 0.929 . S
C1681 C1679 1.433 . S
C1681 N1684 1.384 . S
C1682 H1673 0.912 1_554 S
C1682 C1674 1.389 . S
C1682 C1677 1.355 . S
C1683 H1670 0.929 . S
C1683 C1675 1.433 . S
C1683 N1685 1.384 . S
N1684 C1680 1.427 . S
N1684 C1681 1.384 . S
N1685 C1677 1.427 . S
N1685 C1683 1.384 . S
H1686 C1692 0.930 . S
H1687 C1696 0.930 . S
H1688 C1701 0.929 . S
H1689 C1699 0.929 . S
H1690 C1694 0.929 . S
H1691 C1700 0.929 . S
C1692 H1686 0.930 . S
C1692 C1693 1.367 . S
C1692 C1700 1.378 . S
C1693 C1692 1.367 . S
C1693 C1701 1.433 . S
C1694 H1690 0.929 . S
C1694 C1696 1.378 . S
C1694 C1698 1.350 . S
C1695 C1698 1.463 . S
C1695 C1700 1.350 . S
C1695 N1703 1.427 . S
C1696 H1687 0.930 . S
C1696 C1694 1.378 . S
C1696 C1697 1.367 . S
C1697 C1696 1.367 . S
C1697 C1699 1.433 . S
C1698 C1694 1.350 . S
C1698 C1695 1.463 . S
C1698 N1702 1.427 . S
C1699 H1689 0.929 . S
C1699 C1697 1.433 . S
C1699 N1702 1.384 . S
C1700 H1691 0.929 . S
C1700 C1692 1.378 . S
C1700 C1695 1.350 . S
C1701 H1688 0.929 . S
C1701 C1693 1.433 . S
C1701 N1703 1.384 . S
N1702 C1698 1.427 . S
N1702 C1699 1.384 . S
N1703 C1695 1.427 . S
N1703 C1701 1.384 . S
H1704 C1710 0.930 . S
H1705 C1714 0.930 . S
H1706 C1719 0.929 . S
H1707 C1717 0.929 . S
H1708 C1712 0.929 1_556 S
H1709 C1718 0.929 1_554 S
C1710 H1704 0.930 . S
C1710 C1711 1.367 . S
C1710 C1718 1.378 . S
C1711 C1710 1.367 . S
C1711 C1719 1.433 . S
C1712 H1708 0.929 1_554 S
C1712 C1714 1.378 . S
C1712 C1716 1.350 . S
C1713 C1716 1.463 1_556 S
C1713 C1718 1.350 . S
C1713 N1721 1.427 . S
C1714 H1705 0.930 . S
C1714 C1712 1.378 . S
C1714 C1715 1.367 . S
C1715 C1714 1.367 . S
C1715 C1717 1.433 . S
C1716 C1712 1.350 . S
C1716 C1713 1.463 1_554 S
C1716 N1720 1.427 . S
C1717 H1707 0.929 . S
C1717 C1715 1.433 . S
C1717 N1720 1.384 . S
C1718 H1709 0.929 1_556 S
C1718 C1710 1.378 . S
C1718 C1713 1.350 . S
C1719 H1706 0.929 . S
C1719 C1711 1.433 . S
C1719 N1721 1.384 . S
N1720 C1716 1.427 . S
N1720 C1717 1.384 . S
N1721 C1713 1.427 . S
N1721 C1719 1.384 . S
H1722 C1728 0.930 . S
H1723 C1732 0.930 . S
H1724 C1737 0.929 . S
H1725 C1735 0.929 . S
H1726 C1730 0.929 . S
H1727 C1736 0.929 . S
C1728 H1722 0.930 . S
C1728 C1729 1.367 . S
C1728 C1736 1.378 . S
C1729 C1728 1.367 . S
C1729 C1737 1.433 . S
C1730 H1726 0.929 . S
C1730 C1732 1.378 . S
C1730 C1734 1.350 . S
C1731 C1734 1.463 . S
C1731 C1736 1.350 . S
C1731 N1739 1.427 . S
C1732 H1723 0.930 . S
C1732 C1730 1.378 . S
C1732 C1733 1.367 . S
C1733 C1732 1.367 . S
C1733 C1735 1.433 . S
C1734 C1730 1.350 . S
C1734 C1731 1.463 . S
C1734 N1738 1.427 . S
C1735 H1725 0.929 . S
C1735 C1733 1.433 . S
C1735 N1738 1.384 . S
C1736 H1727 0.929 . S
C1736 C1728 1.378 . S
C1736 C1731 1.350 . S
C1737 H1724 0.929 . S
C1737 C1729 1.433 . S
C1737 N1739 1.384 . S
N1738 C1734 1.427 . S
N1738 C1735 1.384 . S
N1739 C1731 1.427 . S
N1739 C1737 1.384 . S
H1740 C1746 0.930 . S
H1741 C1750 0.930 . S
H1742 C1755 0.929 . S
H1743 C1753 0.929 . S
H1744 C1748 0.929 1_554 S
H1745 C1754 0.929 1_556 S
C1746 H1740 0.930 . S
C1746 C1747 1.367 . S
C1746 C1754 1.378 . S
C1747 C1746 1.367 . S
C1747 C1755 1.433 . S
C1748 H1744 0.929 1_556 S
C1748 C1750 1.378 . S
C1748 C1752 1.350 . S
C1749 C1752 1.463 1_554 S
C1749 C1754 1.350 . S
C1749 N1757 1.427 . S
C1750 H1741 0.930 . S
C1750 C1748 1.378 . S
C1750 C1751 1.367 . S
C1751 C1750 1.367 . S
C1751 C1753 1.433 . S
C1752 C1748 1.350 . S
C1752 C1749 1.463 1_556 S
C1752 N1756 1.427 . S
C1753 H1743 0.929 . S
C1753 C1751 1.433 . S
C1753 N1756 1.384 . S
C1754 H1745 0.929 1_554 S
C1754 C1746 1.378 . S
C1754 C1749 1.350 . S
C1755 H1742 0.929 . S
C1755 C1747 1.433 . S
C1755 N1757 1.384 . S
N1756 C1752 1.427 . S
N1756 C1753 1.384 . S
N1757 C1749 1.427 . S
N1757 C1755 1.384 . S
H1758 C1764 0.930 . S
H1759 C1768 0.930 . S
H1760 C1773 0.929 . S
H1761 C1771 0.929 . S
H1762 C1766 0.929 . S
H1763 C1772 0.929 . S
C1764 H1758 0.930 . S
C1764 C1765 1.367 . S
C1764 C1772 1.378 . S
C1765 C1764 1.367 . S
C1765 C1773 1.433 . S
C1766 H1762 0.929 . S
C1766 C1768 1.378 . S
C1766 C1770 1.350 . S
C1767 C1770 1.463 . S
C1767 C1772 1.350 . S
C1767 N1775 1.427 . S
C1768 H1759 0.930 . S
C1768 C1766 1.378 . S
C1768 C1769 1.367 . S
C1769 C1768 1.367 . S
C1769 C1771 1.433 . S
C1770 C1766 1.350 . S
C1770 C1767 1.463 . S
C1770 N1774 1.427 . S
C1771 H1761 0.929 . S
C1771 C1769 1.433 . S
C1771 N1774 1.384 . S
C1772 H1763 0.929 . S
C1772 C1764 1.378 . S
C1772 C1767 1.350 . S
C1773 H1760 0.929 . S
C1773 C1765 1.433 . S
C1773 N1775 1.384 . S
N1774 C1770 1.427 . S
N1774 C1771 1.384 . S
N1775 C1767 1.427 . S
N1775 C1773 1.384 . S
H1776 C1782 0.930 . S
H1777 C1786 0.930 . S
H1778 C1791 0.929 . S
H1779 C1789 0.929 . S
H1780 C1784 0.933 . S
H1781 C1790 0.932 . S
C1782 H1776 0.930 . S
C1782 C1783 1.367 . S
C1782 C1790 1.378 . S
C1783 C1782 1.367 . S
C1783 C1791 1.433 . S
C1784 H1780 0.933 . S
C1784 C1786 1.378 . S
C1784 C1788 1.350 . S
C1785 C1788 1.463 1_556 S
C1785 C1790 1.350 . S
C1785 N1793 1.427 . S
C1786 H1777 0.930 . S
C1786 C1784 1.378 . S
C1786 C1787 1.367 . S
C1787 C1786 1.367 . S
C1787 C1789 1.433 . S
C1788 C1784 1.350 . S
C1788 C1785 1.463 1_554 S
C1788 N1792 1.427 . S
C1789 H1779 0.929 . S
C1789 C1787 1.433 . S
C1789 N1792 1.384 . S
C1790 H1781 0.932 . S
C1790 C1782 1.378 . S
C1790 C1785 1.350 . S
C1791 H1778 0.929 . S
C1791 C1783 1.433 . S
C1791 N1793 1.384 . S
N1792 C1788 1.427 . S
N1792 C1789 1.384 . S
N1793 C1785 1.427 . S
N1793 C1791 1.384 . S
H1794 C1800 0.930 . S
H1795 C1804 0.930 . S
H1796 C1809 0.929 . S
H1797 C1807 0.929 . S
H1798 C1802 0.929 . S
H1799 C1808 0.929 . S
C1800 H1794 0.930 . S
C1800 C1801 1.367 . S
C1800 C1808 1.378 . S
C1801 C1800 1.367 . S
C1801 C1809 1.433 . S
C1802 H1798 0.929 . S
C1802 C1804 1.378 . S
C1802 C1806 1.350 . S
C1803 C1806 1.463 . S
C1803 C1808 1.350 . S
C1803 N1811 1.427 . S
C1804 H1795 0.930 . S
C1804 C1802 1.378 . S
C1804 C1805 1.367 . S
C1805 C1804 1.367 . S
C1805 C1807 1.433 . S
C1806 C1802 1.350 . S
C1806 C1803 1.463 . S
C1806 N1810 1.427 . S
C1807 H1797 0.929 . S
C1807 C1805 1.433 . S
C1807 N1810 1.384 . S
C1808 H1799 0.929 . S
C1808 C1800 1.378 . S
C1808 C1803 1.350 . S
C1809 H1796 0.929 . S
C1809 C1801 1.433 . S
C1809 N1811 1.384 . S
N1810 C1806 1.427 . S
N1810 C1807 1.384 . S
N1811 C1803 1.427 . S
N1811 C1809 1.384 . S
H1812 C1818 0.930 . S
H1813 C1822 0.930 . S
H1814 C1827 0.929 . S
H1815 C1825 0.929 . S
H1816 C1820 0.929 . S
H1817 C1826 0.929 . S
C1818 H1812 0.930 . S
C1818 C1819 1.367 . S
C1818 C1826 1.378 . S
C1819 C1818 1.367 . S
C1819 C1827 1.433 . S
C1820 H1816 0.929 . S
C1820 C1822 1.378 . S
C1820 C1824 1.350 . S
C1821 C1824 1.463 1_556 S
C1821 C1826 1.350 . S
C1821 N1829 1.427 . S
C1822 H1813 0.930 . S
C1822 C1820 1.378 . S
C1822 C1823 1.367 . S
C1823 C1822 1.367 . S
C1823 C1825 1.433 . S
C1824 C1820 1.350 . S
C1824 C1821 1.463 1_554 S
C1824 N1828 1.427 . S
C1825 H1815 0.929 . S
C1825 C1823 1.433 . S
C1825 N1828 1.384 . S
C1826 H1817 0.929 . S
C1826 C1818 1.378 . S
C1826 C1821 1.350 . S
C1827 H1814 0.929 . S
C1827 C1819 1.433 . S
C1827 N1829 1.384 . S
N1828 C1824 1.427 . S
N1828 C1825 1.384 . S
N1829 C1821 1.427 . S
N1829 C1827 1.384 . S
H1830 C1836 0.930 . S
H1831 C1840 0.930 . S
H1832 C1845 0.929 . S
H1833 C1843 0.929 . S
H1834 C1838 0.929 . S
H1835 C1844 0.929 . S
C1836 H1830 0.930 . S
C1836 C1837 1.367 . S
C1836 C1844 1.378 . S
C1837 C1836 1.367 . S
C1837 C1845 1.433 . S
C1838 H1834 0.929 . S
C1838 C1840 1.378 . S
C1838 C1842 1.350 . S
C1839 C1842 1.463 . S
C1839 C1844 1.350 . S
C1839 N1847 1.427 . S
C1840 H1831 0.930 . S
C1840 C1838 1.378 . S
C1840 C1841 1.367 . S
C1841 C1840 1.367 . S
C1841 C1843 1.433 . S
C1842 C1838 1.350 . S
C1842 C1839 1.463 . S
C1842 N1846 1.427 . S
C1843 H1833 0.929 . S
C1843 C1841 1.433 . S
C1843 N1846 1.384 . S
C1844 H1835 0.929 . S
C1844 C1836 1.378 . S
C1844 C1839 1.350 . S
C1845 H1832 0.929 . S
C1845 C1837 1.433 . S
C1845 N1847 1.384 . S
N1846 C1842 1.427 . S
N1846 C1843 1.384 . S
N1847 C1839 1.427 . S
N1847 C1845 1.384 . S
H1848 C1854 0.930 . S
H1849 C1858 0.930 . S
H1850 C1863 0.929 . S
H1851 C1861 0.929 . S
H1852 C1856 0.929 . S
H1853 C1862 0.929 . S
C1854 H1848 0.930 . S
C1854 C1855 1.367 . S
C1854 C1862 1.378 . S
C1855 C1854 1.367 . S
C1855 C1863 1.433 . S
C1856 H1852 0.929 . S
C1856 C1858 1.378 . S
C1856 C1860 1.350 . S
C1857 C1860 1.463 . S
C1857 C1862 1.350 . S
C1857 N1865 1.427 . S
C1858 H1849 0.930 . S
C1858 C1856 1.378 . S
C1858 C1859 1.367 . S
C1859 C1858 1.367 . S
C1859 C1861 1.433 . S
C1860 C1856 1.350 . S
C1860 C1857 1.463 . S
C1860 N1864 1.427 . S
C1861 H1851 0.929 . S
C1861 C1859 1.433 . S
C1861 N1864 1.384 . S
C1862 H1853 0.929 . S
C1862 C1854 1.378 . S
C1862 C1857 1.350 . S
C1863 H1850 0.929 . S
C1863 C1855 1.433 . S
C1863 N1865 1.384 . S
N1864 C1860 1.427 . S
N1864 C1861 1.384 . S
N1865 C1857 1.427 . S
N1865 C1863 1.384 . S
H1866 C1872 0.930 . S
H1867 C1876 0.930 . S
H1868 C1881 0.929 . S
H1869 C1879 0.929 . S
H1870 C1874 0.929 . S
H1871 C1880 0.929 . S
C1872 H1866 0.930 . S
C1872 C1873 1.367 . S
C1872 C1880 1.378 . S
C1873 C1872 1.367 . S
C1873 C1881 1.433 . S
C1874 H1870 0.929 . S
C1874 C1876 1.378 . S
C1874 C1878 1.350 . S
C1875 C1878 1.463 1_455 S
C1875 C1880 1.350 . S
C1875 N1883 1.427 . S
C1876 H1867 0.930 . S
C1876 C1874 1.378 . S
C1876 C1877 1.367 . S
C1877 C1876 1.367 . S
C1877 C1879 1.433 . S
C1878 C1874 1.350 . S
C1878 C1875 1.463 1_655 S
C1878 N1882 1.427 . S
C1879 H1869 0.929 . S
C1879 C1877 1.433 . S
C1879 N1882 1.384 . S
C1880 H1871 0.929 . S
C1880 C1872 1.378 . S
C1880 C1875 1.350 . S
C1881 H1868 0.929 . S
C1881 C1873 1.433 . S
C1881 N1883 1.384 . S
N1882 C1878 1.427 . S
N1882 C1879 1.384 . S
N1883 C1875 1.427 . S
N1883 C1881 1.384 . S
H1884 C1890 0.930 . S
H1885 C1894 0.930 . S
H1886 C1899 0.929 . S
H1887 C1897 0.929 . S
H1888 C1892 0.929 . S
H1889 C1898 0.929 . S
C1890 H1884 0.930 . S
C1890 C1891 1.367 . S
C1890 C1898 1.378 . S
C1891 C1890 1.367 . S
C1891 C1899 1.433 . S
C1892 H1888 0.929 . S
C1892 C1894 1.378 . S
C1892 C1896 1.350 . S
C1893 C1896 1.463 1_565 S
C1893 C1898 1.350 . S
C1893 N1901 1.427 . S
C1894 H1885 0.930 . S
C1894 C1892 1.378 . S
C1894 C1895 1.367 . S
C1895 C1894 1.367 . S
C1895 C1897 1.433 . S
C1896 C1892 1.350 . S
C1896 C1893 1.463 1_545 S
C1896 N1900 1.427 . S
C1897 H1887 0.929 . S
C1897 C1895 1.433 . S
C1897 N1900 1.384 . S
C1898 H1889 0.929 . S
C1898 C1890 1.378 . S
C1898 C1893 1.350 . S
C1899 H1886 0.929 . S
C1899 C1891 1.433 . S
C1899 N1901 1.384 . S
N1900 C1896 1.427 . S
N1900 C1897 1.384 . S
N1901 C1893 1.427 . S
N1901 C1899 1.384 . S
H1902 C1908 0.930 . S
H1903 C1912 0.930 . S
H1904 C1917 0.929 . S
H1905 C1915 0.929 . S
H1906 C1910 0.929 . S
H1907 C1916 0.929 . S
C1908 H1902 0.930 . S
C1908 C1909 1.367 . S
C1908 C1916 1.378 . S
C1909 C1908 1.367 . S
C1909 C1917 1.433 . S
C1910 H1906 0.929 . S
C1910 C1912 1.378 . S
C1910 C1914 1.350 . S
C1911 C1914 1.463 . S
C1911 C1916 1.350 . S
C1911 N1919 1.427 . S
C1912 H1903 0.930 . S
C1912 C1910 1.378 . S
C1912 C1913 1.367 . S
C1913 C1912 1.367 . S
C1913 C1915 1.433 . S
C1914 C1910 1.350 . S
C1914 C1911 1.463 . S
C1914 N1918 1.427 . S
C1915 H1905 0.929 . S
C1915 C1913 1.433 . S
C1915 N1918 1.384 . S
C1916 H1907 0.929 . S
C1916 C1908 1.378 . S
C1916 C1911 1.350 . S
C1917 H1904 0.929 . S
C1917 C1909 1.433 . S
C1917 N1919 1.384 . S
N1918 C1914 1.427 . S
N1918 C1915 1.384 . S
N1919 C1911 1.427 . S
N1919 C1917 1.384 . S
H1920 C1926 0.930 . S
H1921 C1930 0.930 . S
H1922 C1935 0.929 . S
H1923 C1933 0.929 . S
H1924 C1928 0.929 . S
H1925 C1934 0.929 . S
C1926 H1920 0.930 . S
C1926 C1927 1.367 . S
C1926 C1934 1.378 . S
C1927 C1926 1.367 . S
C1927 C1935 1.433 . S
C1928 H1924 0.929 . S
C1928 C1930 1.378 . S
C1928 C1932 1.350 . S
C1929 C1932 1.463 1_655 S
C1929 C1934 1.350 . S
C1929 N1937 1.427 . S
C1930 H1921 0.930 . S
C1930 C1928 1.378 . S
C1930 C1931 1.367 . S
C1931 C1930 1.367 . S
C1931 C1933 1.433 . S
C1932 C1928 1.350 . S
C1932 C1929 1.463 1_455 S
C1932 N1936 1.427 . S
C1933 H1923 0.929 . S
C1933 C1931 1.433 . S
C1933 N1936 1.384 . S
C1934 H1925 0.929 . S
C1934 C1926 1.378 . S
C1934 C1929 1.350 . S
C1935 H1922 0.929 . S
C1935 C1927 1.433 . S
C1935 N1937 1.384 . S
N1936 C1932 1.427 . S
N1936 C1933 1.384 . S
N1937 C1929 1.427 . S
N1937 C1935 1.384 . S
H1938 C1944 0.930 . S
H1939 C1948 0.930 . S
H1940 C1953 0.929 . S
H1941 C1951 0.929 . S
H1942 C1946 0.929 . S
H1943 C1952 0.929 . S
C1944 H1938 0.930 . S
C1944 C1945 1.367 . S
C1944 C1952 1.378 . S
C1945 C1944 1.367 . S
C1945 C1953 1.433 . S
C1946 H1942 0.929 . S
C1946 C1948 1.378 . S
C1946 C1950 1.350 . S
C1947 C1950 1.463 1_545 S
C1947 C1952 1.350 . S
C1947 N1955 1.427 . S
C1948 H1939 0.930 . S
C1948 C1946 1.378 . S
C1948 C1949 1.367 . S
C1949 C1948 1.367 . S
C1949 C1951 1.433 . S
C1950 C1946 1.350 . S
C1950 C1947 1.463 1_565 S
C1950 N1954 1.427 . S
C1951 H1941 0.929 . S
C1951 C1949 1.433 . S
C1951 N1954 1.384 . S
C1952 H1943 0.929 . S
C1952 C1944 1.378 . S
C1952 C1947 1.350 . S
C1953 H1940 0.929 . S
C1953 C1945 1.433 . S
C1953 N1955 1.384 . S
N1954 C1950 1.427 . S
N1954 C1951 1.384 . S
N1955 C1947 1.427 . S
N1955 C1953 1.384 . S
H1956 C1962 0.930 . S
H1957 C1966 0.930 . S
H1958 C1971 0.929 . S
H1959 C1969 0.929 . S
H1960 C1964 0.929 . S
H1961 C1970 0.929 . S
C1962 H1956 0.930 . S
C1962 C1963 1.367 . S
C1962 C1970 1.378 . S
C1963 C1962 1.367 . S
C1963 C1971 1.433 . S
C1964 H1960 0.929 . S
C1964 C1966 1.378 . S
C1964 C1968 1.350 . S
C1965 C1968 1.463 . S
C1965 C1970 1.350 . S
C1965 N1973 1.427 . S
C1966 H1957 0.930 . S
C1966 C1964 1.378 . S
C1966 C1967 1.367 . S
C1967 C1966 1.367 . S
C1967 C1969 1.433 . S
C1968 C1964 1.350 . S
C1968 C1965 1.463 . S
C1968 N1972 1.427 . S
C1969 H1959 0.929 . S
C1969 C1967 1.433 . S
C1969 N1972 1.384 . S
C1970 H1961 0.929 . S
C1970 C1962 1.378 . S
C1970 C1965 1.350 . S
C1971 H1958 0.929 . S
C1971 C1963 1.433 . S
C1971 N1973 1.384 . S
N1972 C1968 1.427 . S
N1972 C1969 1.384 . S
N1973 C1965 1.427 . S
N1973 C1971 1.384 . S
H1974 C1980 0.930 . S
H1975 C1984 0.930 . S
H1976 C1989 0.929 . S
H1977 C1987 0.929 . S
H1978 C1982 0.929 . S
H1979 C1988 0.929 . S
C1980 H1974 0.930 . S
C1980 C1981 1.367 . S
C1980 C1988 1.378 . S
C1981 C1980 1.367 . S
C1981 C1989 1.433 . S
C1982 H1978 0.929 . S
C1982 C1984 1.378 . S
C1982 C1986 1.350 . S
C1983 C1986 1.463 1_655 S
C1983 C1988 1.350 . S
C1983 N1991 1.427 . S
C1984 H1975 0.930 . S
C1984 C1982 1.378 . S
C1984 C1985 1.367 . S
C1985 C1984 1.367 . S
C1985 C1987 1.433 . S
C1986 C1982 1.350 . S
C1986 C1983 1.463 1_455 S
C1986 N1990 1.427 . S
C1987 H1977 0.929 . S
C1987 C1985 1.433 . S
C1987 N1990 1.384 . S
C1988 H1979 0.929 . S
C1988 C1980 1.378 . S
C1988 C1983 1.350 . S
C1989 H1976 0.929 . S
C1989 C1981 1.433 . S
C1989 N1991 1.384 . S
N1990 C1986 1.427 . S
N1990 C1987 1.384 . S
N1991 C1983 1.427 . S
N1991 C1989 1.384 . S
H1992 C1998 0.930 . S
H1993 C2002 0.930 . S
H1994 C2007 0.929 . S
H1995 C2005 0.929 . S
H1996 C2000 0.929 . S
H1997 C2006 0.929 . S
C1998 H1992 0.930 . S
C1998 C1999 1.367 . S
C1998 C2006 1.378 . S
C1999 C1998 1.367 . S
C1999 C2007 1.433 . S
C2000 H1996 0.929 . S
C2000 C2002 1.378 . S
C2000 C2004 1.350 . S
C2001 C2004 1.463 1_545 S
C2001 C2006 1.350 . S
C2001 N2009 1.427 . S
C2002 H1993 0.930 . S
C2002 C2000 1.378 . S
C2002 C2003 1.367 . S
C2003 C2002 1.367 . S
C2003 C2005 1.433 . S
C2004 C2000 1.350 . S
C2004 C2001 1.463 1_565 S
C2004 N2008 1.427 . S
C2005 H1995 0.929 . S
C2005 C2003 1.433 . S
C2005 N2008 1.384 . S
C2006 H1997 0.929 . S
C2006 C1998 1.378 . S
C2006 C2001 1.350 . S
C2007 H1994 0.929 . S
C2007 C1999 1.433 . S
C2007 N2009 1.384 . S
N2008 C2004 1.427 . S
N2008 C2005 1.384 . S
N2009 C2001 1.427 . S
N2009 C2007 1.384 . S
H2010 C2016 0.930 . S
H2011 C2020 0.930 . S
H2012 C2025 0.929 . S
H2013 C2023 0.929 . S
H2014 C2018 0.929 . S
H2015 C2024 0.929 . S
C2016 H2010 0.930 . S
C2016 C2017 1.367 . S
C2016 C2024 1.378 . S
C2017 C2016 1.367 . S
C2017 C2025 1.433 . S
C2018 H2014 0.929 . S
C2018 C2020 1.378 . S
C2018 C2022 1.350 . S
C2019 C2022 1.463 . S
C2019 C2024 1.350 . S
C2019 N2027 1.427 . S
C2020 H2011 0.930 . S
C2020 C2018 1.378 . S
C2020 C2021 1.367 . S
C2021 C2020 1.367 . S
C2021 C2023 1.433 . S
C2022 C2018 1.350 . S
C2022 C2019 1.463 . S
C2022 N2026 1.427 . S
C2023 H2013 0.929 . S
C2023 C2021 1.433 . S
C2023 N2026 1.384 . S
C2024 H2015 0.929 . S
C2024 C2016 1.378 . S
C2024 C2019 1.350 . S
C2025 H2012 0.929 . S
C2025 C2017 1.433 . S
C2025 N2027 1.384 . S
N2026 C2022 1.427 . S
N2026 C2023 1.384 . S
N2027 C2019 1.427 . S
N2027 C2025 1.384 . S
H2028 C2034 0.930 . S
H2029 C2038 0.930 . S
H2030 C2043 0.929 . S
H2031 C2041 0.929 . S
H2032 C2036 0.929 . S
H2033 C2042 0.929 . S
C2034 H2028 0.930 . S
C2034 C2035 1.367 . S
C2034 C2042 1.378 . S
C2035 C2034 1.367 . S
C2035 C2043 1.433 . S
C2036 H2032 0.929 . S
C2036 C2038 1.378 . S
C2036 C2040 1.350 . S
C2037 C2040 1.463 1_455 S
C2037 C2042 1.350 . S
C2037 N2045 1.427 . S
C2038 H2029 0.930 . S
C2038 C2036 1.378 . S
C2038 C2039 1.367 . S
C2039 C2038 1.367 . S
C2039 C2041 1.433 . S
C2040 C2036 1.350 . S
C2040 C2037 1.463 1_655 S
C2040 N2044 1.427 . S
C2041 H2031 0.929 . S
C2041 C2039 1.433 . S
C2041 N2044 1.384 . S
C2042 H2033 0.929 . S
C2042 C2034 1.378 . S
C2042 C2037 1.350 . S
C2043 H2030 0.929 . S
C2043 C2035 1.433 . S
C2043 N2045 1.384 . S
N2044 C2040 1.427 . S
N2044 C2041 1.384 . S
N2045 C2037 1.427 . S
N2045 C2043 1.384 . S
H2046 C2052 0.930 . S
H2047 C2056 0.930 . S
H2048 C2061 0.929 . S
H2049 C2059 0.929 . S
H2050 C2054 0.929 . S
H2051 C2060 0.929 . S
C2052 H2046 0.930 . S
C2052 C2053 1.367 . S
C2052 C2060 1.378 . S
C2053 C2052 1.367 . S
C2053 C2061 1.433 . S
C2054 H2050 0.929 . S
C2054 C2056 1.378 . S
C2054 C2058 1.350 . S
C2055 C2058 1.463 1_565 S
C2055 C2060 1.350 . S
C2055 N2063 1.427 . S
C2056 H2047 0.930 . S
C2056 C2054 1.378 . S
C2056 C2057 1.367 . S
C2057 C2056 1.367 . S
C2057 C2059 1.433 . S
C2058 C2054 1.350 . S
C2058 C2055 1.463 1_545 S
C2058 N2062 1.427 . S
C2059 H2049 0.929 . S
C2059 C2057 1.433 . S
C2059 N2062 1.384 . S
C2060 H2051 0.929 . S
C2060 C2052 1.378 . S
C2060 C2055 1.350 . S
C2061 H2048 0.929 . S
C2061 C2053 1.433 . S
C2061 N2063 1.384 . S
N2062 C2058 1.427 . S
N2062 C2059 1.384 . S
N2063 C2055 1.427 . S
N2063 C2061 1.384 . S
H2064 C2070 0.930 . S
H2065 C2074 0.930 . S
H2066 C2079 0.929 . S
H2067 C2077 0.929 . S
H2068 C2072 0.929 . S
H2069 C2078 0.929 . S
C2070 H2064 0.930 . S
C2070 C2071 1.367 . S
C2070 C2078 1.378 1_556 S
C2071 C2070 1.367 . S
C2071 C2079 1.433 . S
C2072 H2068 0.929 . S
C2072 C2074 1.378 1_556 S
C2072 C2076 1.350 1_556 S
C2073 C2076 1.463 1_556 S
C2073 C2078 1.350 1_556 S
C2073 N2081 1.427 . S
C2074 H2065 0.930 . S
C2074 C2072 1.378 1_554 S
C2074 C2075 1.367 . S
C2075 C2074 1.367 . S
C2075 C2077 1.433 . S
C2076 C2072 1.350 1_554 S
C2076 C2073 1.463 1_554 S
C2076 N2080 1.427 . S
C2077 H2067 0.929 . S
C2077 C2075 1.433 . S
C2077 N2080 1.384 . S
C2078 H2069 0.929 . S
C2078 C2070 1.378 1_554 S
C2078 C2073 1.350 1_554 S
C2079 H2066 0.929 . S
C2079 C2071 1.433 . S
C2079 N2081 1.384 . S
N2080 C2076 1.427 . S
N2080 C2077 1.384 . S
N2081 C2073 1.427 . S
N2081 C2079 1.384 . S
H2082 C2088 0.930 . S
H2083 C2092 0.930 . S
H2084 C2097 0.929 . S
H2085 C2095 0.929 . S
H2086 C2090 0.929 . S
H2087 C2096 0.929 . S
C2088 H2082 0.930 . S
C2088 C2089 1.367 . S
C2088 C2096 1.378 . S
C2089 C2088 1.367 . S
C2089 C2097 1.433 . S
C2090 H2086 0.929 . S
C2090 C2092 1.378 . S
C2090 C2094 1.350 . S
C2091 C2094 1.463 . S
C2091 C2096 1.350 . S
C2091 N2099 1.427 . S
C2092 H2083 0.930 . S
C2092 C2090 1.378 . S
C2092 C2093 1.367 . S
C2093 C2092 1.367 . S
C2093 C2095 1.433 . S
C2094 C2090 1.350 . S
C2094 C2091 1.463 . S
C2094 N2098 1.427 . S
C2095 H2085 0.929 . S
C2095 C2093 1.433 . S
C2095 N2098 1.384 . S
C2096 H2087 0.929 . S
C2096 C2088 1.378 . S
C2096 C2091 1.350 . S
C2097 H2084 0.929 . S
C2097 C2089 1.433 . S
C2097 N2099 1.384 . S
N2098 C2094 1.427 . S
N2098 C2095 1.384 . S
N2099 C2091 1.427 . S
N2099 C2097 1.384 . S
H2100 C2106 0.930 . S
H2101 C2110 0.930 . S
H2102 C2115 0.929 . S
H2103 C2113 0.929 . S
H2104 C2108 0.929 . S
H2105 C2114 0.929 . S
C2106 H2100 0.930 . S
C2106 C2107 1.367 . S
C2106 C2114 1.378 . S
C2107 C2106 1.367 . S
C2107 C2115 1.433 . S
C2108 H2104 0.929 . S
C2108 C2110 1.378 . S
C2108 C2112 1.350 . S
C2109 C2112 1.463 1_556 S
C2109 C2114 1.350 . S
C2109 N2117 1.426 . S
C2110 H2101 0.930 . S
C2110 C2108 1.378 . S
C2110 C2111 1.367 . S
C2111 C2110 1.367 . S
C2111 C2113 1.433 . S
C2112 C2108 1.350 . S
C2112 C2109 1.463 1_554 S
C2112 N2116 1.426 . S
C2113 H2103 0.929 . S
C2113 C2111 1.433 . S
C2113 N2116 1.382 . S
C2114 H2105 0.929 . S
C2114 C2106 1.378 . S
C2114 C2109 1.350 . S
C2115 H2102 0.929 . S
C2115 C2107 1.433 . S
C2115 N2117 1.382 . S
N2116 C2112 1.426 . S
N2116 C2113 1.382 . S
N2117 C2109 1.426 . S
N2117 C2115 1.382 . S
H2118 C2124 0.930 . S
H2119 C2128 0.930 . S
H2120 C2133 0.929 . S
H2121 C2131 0.929 . S
H2122 C2126 0.929 . S
H2123 C2132 0.929 . S
C2124 H2118 0.930 . S
C2124 C2125 1.367 . S
C2124 C2132 1.378 . S
C2125 C2124 1.367 . S
C2125 C2133 1.433 . S
C2126 H2122 0.929 . S
C2126 C2128 1.378 . S
C2126 C2130 1.350 . S
C2127 C2130 1.463 . S
C2127 C2132 1.350 . S
C2127 N2135 1.427 . S
C2128 H2119 0.930 . S
C2128 C2126 1.378 . S
C2128 C2129 1.367 . S
C2129 C2128 1.367 . S
C2129 C2131 1.433 . S
C2130 C2126 1.350 . S
C2130 C2127 1.463 . S
C2130 N2134 1.427 . S
C2131 H2121 0.929 . S
C2131 C2129 1.433 . S
C2131 N2134 1.384 . S
C2132 H2123 0.929 . S
C2132 C2124 1.378 . S
C2132 C2127 1.350 . S
C2133 H2120 0.929 . S
C2133 C2125 1.433 . S
C2133 N2135 1.384 . S
N2134 C2130 1.427 . S
N2134 C2131 1.384 . S
N2135 C2127 1.427 . S
N2135 C2133 1.384 . S
H2136 C2142 0.930 . S
H2137 C2146 0.930 . S
H2138 C2151 0.929 1_554 S
H2139 C2149 0.929 1_556 S
H2140 C2144 0.929 . S
H2141 C2150 0.929 . S
C2142 H2136 0.930 . S
C2142 C2143 1.367 . S
C2142 C2150 1.378 . S
C2143 C2142 1.367 . S
C2143 C2151 1.433 . S
C2144 H2140 0.929 . S
C2144 C2146 1.378 . S
C2144 C2148 1.350 . S
C2145 C2148 1.463 1_556 S
C2145 C2150 1.350 . S
C2145 N2153 1.427 1_556 S
C2146 H2137 0.930 . S
C2146 C2144 1.378 . S
C2146 C2147 1.367 . S
C2147 C2146 1.367 . S
C2147 C2149 1.433 . S
C2148 C2144 1.350 . S
C2148 C2145 1.463 1_554 S
C2148 N2152 1.427 1_554 S
C2149 H2139 0.929 1_554 S
C2149 C2147 1.433 . S
C2149 N2152 1.384 1_554 S
C2150 H2141 0.929 . S
C2150 C2142 1.378 . S
C2150 C2145 1.350 . S
C2151 H2138 0.929 1_556 S
C2151 C2143 1.433 . S
C2151 N2153 1.384 1_556 S
N2152 C2148 1.427 1_556 S
N2152 C2149 1.384 1_556 S
N2153 C2145 1.427 1_554 S
N2153 C2151 1.384 1_554 S
H2154 C2160 0.930 . S
H2155 C2164 0.930 . S
H2156 C2169 0.929 . S
H2157 C2167 0.929 . S
H2158 C2162 0.929 . S
H2159 C2168 0.929 . S
C2160 H2154 0.930 . S
C2160 C2161 1.367 . S
C2160 C2168 1.378 . S
C2161 C2160 1.367 . S
C2161 C2169 1.433 . S
C2162 H2158 0.929 . S
C2162 C2164 1.378 . S
C2162 C2166 1.350 . S
C2163 C2166 1.463 . S
C2163 C2168 1.350 . S
C2163 N2171 1.427 . S
C2164 H2155 0.930 . S
C2164 C2162 1.378 . S
C2164 C2165 1.367 . S
C2165 C2164 1.367 . S
C2165 C2167 1.433 . S
C2166 C2162 1.350 . S
C2166 C2163 1.463 . S
C2166 N2170 1.427 . S
C2167 H2157 0.929 . S
C2167 C2165 1.433 . S
C2167 N2170 1.384 . S
C2168 H2159 0.929 . S
C2168 C2160 1.378 . S
C2168 C2163 1.350 . S
C2169 H2156 0.929 . S
C2169 C2161 1.433 . S
C2169 N2171 1.384 . S
N2170 C2166 1.427 . S
N2170 C2167 1.384 . S
N2171 C2163 1.427 . S
N2171 C2169 1.384 . S
H2172 C2178 0.930 1_556 S
H2173 C2182 0.930 1_554 S
H2174 C2187 0.929 . S
H2175 C2185 0.929 . S
H2176 C2180 0.929 . S
H2177 C2186 0.929 . S
C2178 H2172 0.930 1_554 S
C2178 C2179 1.367 . S
C2178 C2186 1.378 1_554 S
C2179 C2178 1.367 . S
C2179 C2187 1.433 . S
C2180 H2176 0.929 . S
C2180 C2182 1.378 1_554 S
C2180 C2184 1.350 1_554 S
C2181 C2184 1.463 1_554 S
C2181 C2186 1.350 1_554 S
C2181 N2189 1.427 . S
C2182 H2173 0.930 1_556 S
C2182 C2180 1.378 1_556 S
C2182 C2183 1.367 . S
C2183 C2182 1.367 . S
C2183 C2185 1.433 . S
C2184 C2180 1.350 1_556 S
C2184 C2181 1.463 1_556 S
C2184 N2188 1.427 . S
C2185 H2175 0.929 . S
C2185 C2183 1.433 . S
C2185 N2188 1.384 . S
C2186 H2177 0.929 . S
C2186 C2178 1.378 1_556 S
C2186 C2181 1.350 1_556 S
C2187 H2174 0.929 . S
C2187 C2179 1.433 . S
C2187 N2189 1.384 . S
N2188 C2184 1.427 . S
N2188 C2185 1.384 . S
N2189 C2181 1.427 . S
N2189 C2187 1.384 . S
H2190 C2196 0.930 . S
H2191 C2200 0.930 . S
H2192 C2205 0.929 . S
H2193 C2203 0.929 . S
H2194 C2198 0.929 . S
H2195 C2204 0.929 . S
C2196 H2190 0.930 . S
C2196 C2197 1.367 . S
C2196 C2204 1.378 . S
C2197 C2196 1.367 . S
C2197 C2205 1.433 . S
C2198 H2194 0.929 . S
C2198 C2200 1.378 . S
C2198 C2202 1.350 . S
C2199 C2202 1.463 . S
C2199 C2204 1.350 . S
C2199 N2207 1.427 . S
C2200 H2191 0.930 . S
C2200 C2198 1.378 . S
C2200 C2201 1.367 . S
C2201 C2200 1.367 . S
C2201 C2203 1.433 . S
C2202 C2198 1.350 . S
C2202 C2199 1.463 . S
C2202 N2206 1.427 . S
C2203 H2193 0.929 . S
C2203 C2201 1.433 . S
C2203 N2206 1.384 . S
C2204 H2195 0.929 . S
C2204 C2196 1.378 . S
C2204 C2199 1.350 . S
C2205 H2192 0.929 . S
C2205 C2197 1.433 . S
C2205 N2207 1.384 . S
N2206 C2202 1.427 . S
N2206 C2203 1.384 . S
N2207 C2199 1.427 . S
N2207 C2205 1.384 . S
H2208 C2214 0.930 . S
H2209 C2218 0.930 . S
H2210 C2223 0.929 . S
H2211 C2221 0.929 . S
H2212 C2216 0.929 . S
H2213 C2222 0.929 . S
C2214 H2208 0.930 . S
C2214 C2215 1.367 . S
C2214 C2222 1.378 . S
C2215 C2214 1.367 . S
C2215 C2223 1.433 . S
C2216 H2212 0.929 . S
C2216 C2218 1.378 . S
C2216 C2220 1.350 . S
C2217 C2220 1.463 1_554 S
C2217 C2222 1.350 . S
C2217 N2225 1.427 . S
C2218 H2209 0.930 . S
C2218 C2216 1.378 . S
C2218 C2219 1.367 . S
C2219 C2218 1.367 . S
C2219 C2221 1.433 . S
C2220 C2216 1.350 . S
C2220 C2217 1.463 1_556 S
C2220 N2224 1.427 . S
C2221 H2211 0.929 . S
C2221 C2219 1.433 . S
C2221 N2224 1.384 . S
C2222 H2213 0.929 . S
C2222 C2214 1.378 . S
C2222 C2217 1.350 . S
C2223 H2210 0.929 . S
C2223 C2215 1.433 . S
C2223 N2225 1.384 . S
N2224 C2220 1.427 . S
N2224 C2221 1.384 . S
N2225 C2217 1.427 . S
N2225 C2223 1.384 . S
H2226 C2232 0.930 . S
H2227 C2236 0.930 . S
H2228 C2241 0.929 . S
H2229 C2239 0.929 . S
H2230 C2234 0.929 . S
H2231 C2240 0.929 . S
C2232 H2226 0.930 . S
C2232 C2233 1.367 . S
C2232 C2240 1.378 . S
C2233 C2232 1.367 . S
C2233 C2241 1.433 . S
C2234 H2230 0.929 . S
C2234 C2236 1.378 . S
C2234 C2238 1.350 . S
C2235 C2238 1.463 . S
C2235 C2240 1.350 . S
C2235 N2243 1.427 . S
C2236 H2227 0.930 . S
C2236 C2234 1.378 . S
C2236 C2237 1.367 . S
C2237 C2236 1.367 . S
C2237 C2239 1.433 . S
C2238 C2234 1.350 . S
C2238 C2235 1.463 . S
C2238 N2242 1.427 . S
C2239 H2229 0.929 . S
C2239 C2237 1.433 . S
C2239 N2242 1.384 . S
C2240 H2231 0.929 . S
C2240 C2232 1.378 . S
C2240 C2235 1.350 . S
C2241 H2228 0.929 . S
C2241 C2233 1.433 . S
C2241 N2243 1.384 . S
N2242 C2238 1.427 . S
N2242 C2239 1.384 . S
N2243 C2235 1.427 . S
N2243 C2241 1.384 . S
H2244 C2250 0.930 . S
H2245 C2254 0.930 . S
H2246 C2259 0.918 1_554 S
H2247 C2257 0.918 1_556 S
H2248 C2252 0.929 . S
H2249 C2258 0.929 . S
C2250 H2244 0.930 . S
C2250 C2251 1.367 . S
C2250 C2258 1.378 . S
C2251 C2250 1.367 . S
C2251 C2259 1.433 . S
C2252 H2248 0.929 . S
C2252 C2254 1.378 . S
C2252 C2256 1.350 . S
C2253 C2256 1.463 1_556 S
C2253 C2258 1.350 . S
C2253 N2261 1.427 1_556 S
C2254 H2245 0.930 . S
C2254 C2252 1.378 . S
C2254 C2255 1.367 . S
C2255 C2254 1.367 . S
C2255 C2257 1.433 . S
C2256 C2252 1.350 . S
C2256 C2253 1.463 1_554 S
C2256 N2260 1.427 1_554 S
C2257 H2247 0.918 1_554 S
C2257 C2255 1.433 . S
C2257 N2260 1.384 1_554 S
C2258 H2249 0.929 . S
C2258 C2250 1.378 . S
C2258 C2253 1.350 . S
C2259 H2246 0.918 1_556 S
C2259 C2251 1.433 . S
C2259 N2261 1.384 1_556 S
N2260 C2256 1.427 1_556 S
N2260 C2257 1.384 1_556 S
N2261 C2253 1.427 1_554 S
N2261 C2259 1.384 1_554 S
H2262 C2268 0.930 . S
H2263 C2272 0.930 . S
H2264 C2277 0.929 . S
H2265 C2275 0.929 . S
H2266 C2270 0.929 . S
H2267 C2276 0.929 . S
C2268 H2262 0.930 . S
C2268 C2269 1.367 . S
C2268 C2276 1.378 . S
C2269 C2268 1.367 . S
C2269 C2277 1.433 . S
C2270 H2266 0.929 . S
C2270 C2272 1.378 . S
C2270 C2274 1.350 . S
C2271 C2274 1.463 . S
C2271 C2276 1.350 . S
C2271 N2279 1.427 . S
C2272 H2263 0.930 . S
C2272 C2270 1.378 . S
C2272 C2273 1.367 . S
C2273 C2272 1.367 . S
C2273 C2275 1.433 . S
C2274 C2270 1.350 . S
C2274 C2271 1.463 . S
C2274 N2278 1.427 . S
C2275 H2265 0.929 . S
C2275 C2273 1.433 . S
C2275 N2278 1.384 . S
C2276 H2267 0.929 . S
C2276 C2268 1.378 . S
C2276 C2271 1.350 . S
C2277 H2264 0.929 . S
C2277 C2269 1.433 . S
C2277 N2279 1.384 . S
N2278 C2274 1.427 . S
N2278 C2275 1.384 . S
N2279 C2271 1.427 . S
N2279 C2277 1.384 . S
C1423 C3 1.555 . S
C1427 C888 1.565 . S
C1441 C62 1.555 . S
C1445 C947 1.565 . S
C1459 C1006 1.563 . S
C1463 C121 1.557 . S
C1477 C711 1.565 . S
C1481 C180 1.555 . S
C1495 C770 1.555 . S
C1499 C239 1.565 . S
C1513 C829 1.562 . S
C1517 C298 1.558 . S
C1531 C1242 1.558 . S
C1535 C357 1.562 . S
C1549 C416 1.556 . S
C1553 C1301 1.564 . S
C1567 C1360 1.557 . S
C1571 C475 1.562 . S
C1585 C534 1.560 . S
C1589 C1065 1.560 . S
C1603 C1124 1.562 . S
C1607 C593 1.558 . S
C1621 C652 1.563 . S
C1625 C1183 1.557 . S
C1639 C595 1.520 . S
C1643 C5 1.521 . S
C1657 C654 1.520 . S
C1661 C64 1.520 . S
C1675 C123 1.520 . S
C1679 C359 1.522 . S
C1693 C182 1.521 . S
C1697 C418 1.520 . S
C1711 C477 1.521 . S
C1715 C241 1.523 . S
C1729 C300 1.522 . S
C1733 C536 1.520 . S
C1747 C1303 1.522 . S
C1751 C713 1.520 . S
C1765 C772 1.525 . S
C1769 C1362 1.524 . S
C1783 C831 1.521 . S
C1787 C1067 1.523 . S
C1801 C1126 1.521 . S
C1805 C890 1.520 . S
C1819 C949 1.525 . S
C1823 C1185 1.523 . S
C1837 C1008 1.520 . S
C1841 C1244 1.520 . S
C1855 C52 1.510 . S
C1859 C1114 1.508 . S
C1873 C1173 1.508 . S
C1877 C111 1.509 . S
C1891 C170 1.510 . S
C1895 C1232 1.507 . S
C1909 C229 1.509 . S
C1913 C1291 1.509 . S
C1927 C1350 1.510 . S
C1931 C288 1.508 . S
C1945 C347 1.510 . S
C1949 C1409 1.507 . S
C1963 C406 1.508 . S
C1967 C760 1.510 . S
C1981 C465 1.510 . S
C1985 C819 1.508 . S
C1999 C878 1.507 . S
C2003 C524 1.510 . S
C2017 C937 1.510 . S
C2021 C583 1.508 . S
C2035 C642 1.510 . S
C2039 C996 1.507 . S
C2053 C1055 1.510 . S
C2057 C701 1.508 . S
C2071 C387 1.573 . S
C2075 C33 1.573 . S
C2089 C92 1.573 . S
C2093 C446 1.573 . S
C2107 C505 1.569 . S
C2111 C151 1.569 . S
C2125 C564 1.573 . S
C2129 C210 1.573 . S
C2143 C623 1.568 . S
C2147 C269 1.568 . S
C2161 C328 1.569 . S
C2165 C682 1.569 . S
C2179 C1095 1.574 . S
C2183 C741 1.574 . S
C2197 C800 1.574 . S
C2201 C1154 1.573 . S
C2215 C1213 1.571 . S
C2219 C859 1.571 . S
C2233 C1272 1.568 . S
C2237 C918 1.568 . S
C2251 C977 1.569 . S
C2255 C1331 1.569 . S
C2269 C1036 1.570 . S
C2273 C1390 1.571 . S
