# Generated by pormake.
# Topology sod-e, (6)-cn, num edge types: 1
# Building blocks:
#     Node 0, Type 0, BuildingBlock: OJICUG_clean_sbu_0, # of connection points: 6
#     Node 1, Type 0, BuildingBlock: OJICUG_clean_sbu_0, # of connection points: 6
#     Node 2, Type 0, BuildingBlock: OJICUG_clean_sbu_0, # of connection points: 6
#     Node 3, Type 0, BuildingBlock: OJICUG_clean_sbu_0, # of connection points: 6
#     Node 4, Type 0, BuildingBlock: OJICUG_clean_sbu_0, # of connection points: 6
#     Node 5, Type 0, BuildingBlock: OJICUG_clean_sbu_0, # of connection points: 6
#     Node 6, Type 0, BuildingBlock: OJICUG_clean_sbu_0, # of connection points: 6
#     Node 7, Type 0, BuildingBlock: OJICUG_clean_sbu_0, # of connection points: 6
#     Node 8, Type 0, BuildingBlock: OJICUG_clean_sbu_0, # of connection points: 6
#     Node 9, Type 0, BuildingBlock: OJICUG_clean_sbu_0, # of connection points: 6
#     Node 10, Type 0, BuildingBlock: OJICUG_clean_sbu_0, # of connection points: 6
#     Node 11, Type 0, BuildingBlock: OJICUG_clean_sbu_0, # of connection points: 6
#     Node 12, Type 0, BuildingBlock: OJICUG_clean_sbu_0, # of connection points: 6
#     Node 13, Type 0, BuildingBlock: OJICUG_clean_sbu_0, # of connection points: 6
#     Node 14, Type 0, BuildingBlock: OJICUG_clean_sbu_0, # of connection points: 6
#     Node 15, Type 0, BuildingBlock: OJICUG_clean_sbu_0, # of connection points: 6
#     Node 16, Type 0, BuildingBlock: OJICUG_clean_sbu_0, # of connection points: 6
#     Node 17, Type 0, BuildingBlock: OJICUG_clean_sbu_0, # of connection points: 6
#     Node 18, Type 0, BuildingBlock: OJICUG_clean_sbu_0, # of connection points: 6
#     Node 19, Type 0, BuildingBlock: OJICUG_clean_sbu_0, # of connection points: 6
#     Node 20, Type 0, BuildingBlock: OJICUG_clean_sbu_0, # of connection points: 6
#     Node 21, Type 0, BuildingBlock: OJICUG_clean_sbu_0, # of connection points: 6
#     Node 22, Type 0, BuildingBlock: OJICUG_clean_sbu_0, # of connection points: 6
#     Node 23, Type 0, BuildingBlock: OJICUG_clean_sbu_0, # of connection points: 6
#     Edge 24, Type (0, 0), BuildingBlock: AJUNOK_clean_linker_0, # of connection points: 2
#     Edge 25, Type (0, 0), BuildingBlock: AJUNOK_clean_linker_0, # of connection points: 2
#     Edge 26, Type (0, 0), BuildingBlock: AJUNOK_clean_linker_0, # of connection points: 2
#     Edge 27, Type (0, 0), BuildingBlock: AJUNOK_clean_linker_0, # of connection points: 2
#     Edge 28, Type (0, 0), BuildingBlock: AJUNOK_clean_linker_0, # of connection points: 2
#     Edge 29, Type (0, 0), BuildingBlock: AJUNOK_clean_linker_0, # of connection points: 2
#     Edge 30, Type (0, 0), BuildingBlock: AJUNOK_clean_linker_0, # of connection points: 2
#     Edge 31, Type (0, 0), BuildingBlock: AJUNOK_clean_linker_0, # of connection points: 2
#     Edge 32, Type (0, 0), BuildingBlock: AJUNOK_clean_linker_0, # of connection points: 2
#     Edge 33, Type (0, 0), BuildingBlock: AJUNOK_clean_linker_0, # of connection points: 2
#     Edge 34, Type (0, 0), BuildingBlock: AJUNOK_clean_linker_0, # of connection points: 2
#     Edge 35, Type (0, 0), BuildingBlock: AJUNOK_clean_linker_0, # of connection points: 2
#     Edge 36, Type (0, 0), BuildingBlock: AJUNOK_clean_linker_0, # of connection points: 2
#     Edge 37, Type (0, 0), BuildingBlock: AJUNOK_clean_linker_0, # of connection points: 2
#     Edge 38, Type (0, 0), BuildingBlock: AJUNOK_clean_linker_0, # of connection points: 2
#     Edge 39, Type (0, 0), BuildingBlock: AJUNOK_clean_linker_0, # of connection points: 2
#     Edge 40, Type (0, 0), BuildingBlock: AJUNOK_clean_linker_0, # of connection points: 2
#     Edge 41, Type (0, 0), BuildingBlock: AJUNOK_clean_linker_0, # of connection points: 2
#     Edge 42, Type (0, 0), BuildingBlock: AJUNOK_clean_linker_0, # of connection points: 2
#     Edge 43, Type (0, 0), BuildingBlock: AJUNOK_clean_linker_0, # of connection points: 2
#     Edge 44, Type (0, 0), BuildingBlock: AJUNOK_clean_linker_0, # of connection points: 2
#     Edge 45, Type (0, 0), BuildingBlock: AJUNOK_clean_linker_0, # of connection points: 2
#     Edge 46, Type (0, 0), BuildingBlock: AJUNOK_clean_linker_0, # of connection points: 2
#     Edge 47, Type (0, 0), BuildingBlock: AJUNOK_clean_linker_0, # of connection points: 2
#     Edge 48, Type (0, 0), BuildingBlock: AJUNOK_clean_linker_0, # of connection points: 2
#     Edge 49, Type (0, 0), BuildingBlock: AJUNOK_clean_linker_0, # of connection points: 2
#     Edge 50, Type (0, 0), BuildingBlock: AJUNOK_clean_linker_0, # of connection points: 2
#     Edge 51, Type (0, 0), BuildingBlock: AJUNOK_clean_linker_0, # of connection points: 2
#     Edge 52, Type (0, 0), BuildingBlock: AJUNOK_clean_linker_0, # of connection points: 2
#     Edge 53, Type (0, 0), BuildingBlock: AJUNOK_clean_linker_0, # of connection points: 2
#     Edge 54, Type (0, 0), BuildingBlock: AJUNOK_clean_linker_0, # of connection points: 2
#     Edge 55, Type (0, 0), BuildingBlock: AJUNOK_clean_linker_0, # of connection points: 2
#     Edge 56, Type (0, 0), BuildingBlock: AJUNOK_clean_linker_0, # of connection points: 2
#     Edge 57, Type (0, 0), BuildingBlock: AJUNOK_clean_linker_0, # of connection points: 2
#     Edge 58, Type (0, 0), BuildingBlock: AJUNOK_clean_linker_0, # of connection points: 2
#     Edge 59, Type (0, 0), BuildingBlock: AJUNOK_clean_linker_0, # of connection points: 2
#     Edge 60, Type (0, 0), BuildingBlock: AJUNOK_clean_linker_0, # of connection points: 2
#     Edge 61, Type (0, 0), BuildingBlock: AJUNOK_clean_linker_0, # of connection points: 2
#     Edge 62, Type (0, 0), BuildingBlock: AJUNOK_clean_linker_0, # of connection points: 2
#     Edge 63, Type (0, 0), BuildingBlock: AJUNOK_clean_linker_0, # of connection points: 2
#     Edge 64, Type (0, 0), BuildingBlock: AJUNOK_clean_linker_0, # of connection points: 2
#     Edge 65, Type (0, 0), BuildingBlock: AJUNOK_clean_linker_0, # of connection points: 2
#     Edge 66, Type (0, 0), BuildingBlock: AJUNOK_clean_linker_0, # of connection points: 2
#     Edge 67, Type (0, 0), BuildingBlock: AJUNOK_clean_linker_0, # of connection points: 2
#     Edge 68, Type (0, 0), BuildingBlock: AJUNOK_clean_linker_0, # of connection points: 2
#     Edge 69, Type (0, 0), BuildingBlock: AJUNOK_clean_linker_0, # of connection points: 2
#     Edge 70, Type (0, 0), BuildingBlock: AJUNOK_clean_linker_0, # of connection points: 2
#     Edge 71, Type (0, 0), BuildingBlock: AJUNOK_clean_linker_0, # of connection points: 2
#     Edge 72, Type (0, 0), BuildingBlock: AJUNOK_clean_linker_0, # of connection points: 2
#     Edge 73, Type (0, 0), BuildingBlock: AJUNOK_clean_linker_0, # of connection points: 2
#     Edge 74, Type (0, 0), BuildingBlock: AJUNOK_clean_linker_0, # of connection points: 2
#     Edge 75, Type (0, 0), BuildingBlock: AJUNOK_clean_linker_0, # of connection points: 2
#     Edge 76, Type (0, 0), BuildingBlock: AJUNOK_clean_linker_0, # of connection points: 2
#     Edge 77, Type (0, 0), BuildingBlock: AJUNOK_clean_linker_0, # of connection points: 2
#     Edge 78, Type (0, 0), BuildingBlock: AJUNOK_clean_linker_0, # of connection points: 2
#     Edge 79, Type (0, 0), BuildingBlock: AJUNOK_clean_linker_0, # of connection points: 2
#     Edge 80, Type (0, 0), BuildingBlock: AJUNOK_clean_linker_0, # of connection points: 2
#     Edge 81, Type (0, 0), BuildingBlock: AJUNOK_clean_linker_0, # of connection points: 2
#     Edge 82, Type (0, 0), BuildingBlock: AJUNOK_clean_linker_0, # of connection points: 2
#     Edge 83, Type (0, 0), BuildingBlock: AJUNOK_clean_linker_0, # of connection points: 2
#     Edge 84, Type (0, 0), BuildingBlock: AJUNOK_clean_linker_0, # of connection points: 2
#     Edge 85, Type (0, 0), BuildingBlock: AJUNOK_clean_linker_0, # of connection points: 2
#     Edge 86, Type (0, 0), BuildingBlock: AJUNOK_clean_linker_0, # of connection points: 2
#     Edge 87, Type (0, 0), BuildingBlock: AJUNOK_clean_linker_0, # of connection points: 2
#     Edge 88, Type (0, 0), BuildingBlock: AJUNOK_clean_linker_0, # of connection points: 2
#     Edge 89, Type (0, 0), BuildingBlock: AJUNOK_clean_linker_0, # of connection points: 2
#     Edge 90, Type (0, 0), BuildingBlock: AJUNOK_clean_linker_0, # of connection points: 2
#     Edge 91, Type (0, 0), BuildingBlock: AJUNOK_clean_linker_0, # of connection points: 2
#     Edge 92, Type (0, 0), BuildingBlock: AJUNOK_clean_linker_0, # of connection points: 2
#     Edge 93, Type (0, 0), BuildingBlock: AJUNOK_clean_linker_0, # of connection points: 2
#     Edge 94, Type (0, 0), BuildingBlock: AJUNOK_clean_linker_0, # of connection points: 2
#     Edge 95, Type (0, 0), BuildingBlock: AJUNOK_clean_linker_0, # of connection points: 2
# Relax obj value: 0.275
# Max RMSD: 0.220
# Mean RMSD: 0.220
data_MOF--net-sod-e--node1-OJICUG_clean_sbu_0--edge1-AJUNOK_clean_linker_0
_symmetry_space_group_name_H-M    P1
_symmetry_Int_Tables_number       1
_symmetry_cell_setting            triclinic
loop_
_symmetry_equiv_pos_as_xyz
'x, y, z'
_cell_length_a     39.792203
_cell_length_b     39.531845
_cell_length_c     39.543082
_cell_angle_alpha  90.289044
_cell_angle_beta   89.518485
_cell_angle_gamma 89.618345
loop_
_atom_site_label
_atom_site_type_symbol
_atom_site_fract_x
_atom_site_fract_y
_atom_site_fract_z
_atom_type_partial_charge
Sc0 Sc 0.95298 0.29983 0.31154 0.0
Sc1 Sc 0.02489 0.33349 0.346 0.0
Sc2 Sc 0.94848 0.3667 0.36842 0.0
O3 O 0.97494 0.33317 0.34172 0.0
C4 C 0.90771 0.36401 0.29991 0.0
C5 C 0.01569 0.32996 0.26993 0.0
C6 C 0.00766 0.4085 0.34431 0.0
C7 C 0.01167 0.25734 0.33997 0.0
C8 C 0.9087 0.30041 0.37936 0.0
C9 C 0.00484 0.34091 0.4189 0.0
O10 O 0.92354 0.33856 0.28786 0.0
O11 O 0.02834 0.34505 0.29502 0.0
O12 O 0.97604 0.40533 0.34416 0.0
O13 O 0.98019 0.25942 0.33598 0.0
O14 O 0.92093 0.32737 0.39151 0.0
O15 O 0.02003 0.32171 0.39793 0.0
O16 O 0.91404 0.29007 0.34908 0.0
O17 O 0.03075 0.28156 0.3325 0.0
O18 O 0.98353 0.36339 0.40998 0.0
O19 O -0.00872 0.30894 0.27191 0.0
O20 O 0.91091 0.37397 0.33028 0.0
O21 O 0.02669 0.38653 0.35749 0.0
Sc22 Sc 0.67691 -0.00779 0.30599 0.0
Sc23 Sc 0.61129 0.96029 0.35389 0.0
Sc24 Sc 0.62574 0.0452 0.35241 0.0
O25 O 0.63829 -0.00168 0.33774 0.0
C26 C 0.69867 0.0478 0.3624 0.0
C27 C 0.68693 0.93164 0.35682 0.0
C28 C 0.60385 0.00528 0.41635 0.0
C29 C 0.62659 0.93377 0.28158 0.0
C30 C 0.64347 0.05708 0.28009 0.0
C31 C 0.56017 0.01699 0.32813 0.0
O32 O 0.70408 0.03358 0.33337 0.0
O33 O 0.65541 0.92951 0.36274 0.0
O34 O 0.60025 0.03138 0.39837 0.0
O35 O 0.65425 0.94974 0.27807 0.0
O36 O 0.65018 0.06729 0.30945 0.0
O37 O 0.56638 -0.01056 0.34387 0.0
O38 O 0.65078 0.02677 0.27185 0.0
O39 O 0.60602 0.9396 0.30536 0.0
O40 O 0.58064 0.04131 0.32571 0.0
O41 O 0.69994 0.95532 0.33909 0.0
O42 O 0.67103 0.04521 0.37807 0.0
O43 O 0.6144 0.97746 0.40443 0.0
Sc44 Sc 0.01129 0.66714 0.29988 0.0
Sc45 Sc 0.98406 0.60213 0.35224 0.0
Sc46 Sc 0.07045 0.6142 0.34036 0.0
O47 O 0.02192 0.62814 0.33095 0.0
C48 C 0.07094 0.62686 0.26153 0.0
C49 C 0.95137 0.61879 0.28117 0.0
C50 C 0.03393 0.54478 0.32899 0.0
C51 C 0.95678 0.67628 0.36047 0.0
C52 C 0.07428 0.69372 0.34257 0.0
C53 C 0.03823 0.60311 0.41118 0.0
O54 O 0.04667 0.64816 0.26152 0.0
O55 O 0.95221 0.60433 0.30955 0.0
O56 O 0.06022 0.56137 0.33561 0.0
O57 O 0.97276 0.68687 0.33439 0.0
O58 O 0.08672 0.66459 0.34685 0.0
O59 O 0.00992 0.59584 0.39877 0.0
O60 O 0.04735 0.69878 0.32605 0.0
O61 O 0.96068 0.64669 0.37225 0.0
O62 O 0.06281 0.6134 0.39369 0.0
O63 O 0.97317 0.64033 0.27204 0.0
O64 O 0.08233 0.61358 0.28817 0.0
O65 O 0.0044 0.55663 0.33209 0.0
Sc66 Sc 0.37202 0.97737 0.37666 0.0
Sc67 Sc 0.35645 0.06082 0.35619 0.0
Sc68 Sc 0.3091 -0.00236 0.31972 0.0
O69 O 0.34543 0.01131 0.35139 0.0
C70 C 0.363 0.93716 0.30851 0.0
C71 C 0.42326 0.02697 0.33939 0.0
C72 C 0.34004 0.05727 0.28099 0.0
C73 C 0.37668 0.03542 0.42856 0.0
C74 C 0.29776 0.94896 0.38191 0.0
C75 C 0.28111 0.06076 0.36523 0.0
O76 O 0.37874 0.94453 0.33506 0.0
O77 O 0.40332 0.05125 0.33317 0.0
O78 O 0.33297 0.02614 0.27997 0.0
O79 O 0.36807 0.00547 0.42201 0.0
O80 O 0.28651 0.96585 0.35705 0.0
O81 O 0.30923 0.06762 0.3783 0.0
O82 O 0.32793 0.9502 0.39232 0.0
O83 O 0.37848 0.05802 0.40605 0.0
O84 O 0.27781 0.04077 0.33955 0.0
O85 O 0.41697 0.00272 0.35979 0.0
O86 O 0.3368 0.95354 0.29927 0.0
O87 O 0.33555 0.07396 0.30797 0.0
Sc88 Sc 0.04978 0.61937 0.6288 0.0
Sc89 Sc 0.96533 0.60441 0.60849 0.0
Sc90 Sc 0.98467 0.66568 0.66931 0.0
O91 O 4e-05 0.62992 0.63549 0.0
C92 C 0.04709 0.63282 0.70786 0.0
C93 C 0.01583 0.5468 0.63184 0.0
C94 C 0.92941 0.61018 0.68006 0.0
C95 C 0.02463 0.60957 0.5545 0.0
C96 C 0.04648 0.69993 0.63098 0.0
C97 C 0.9342 0.67713 0.60672 0.0
O98 O 0.05977 0.62029 0.68119 0.0
O99 O -0.01309 0.55766 0.62371 0.0
O100 O 0.94953 0.63161 0.69256 0.0
O101 O 0.04751 0.61707 0.57508 0.0
O102 O 0.0189 0.70199 0.64753 0.0
O103 O 0.94127 0.6495 0.59176 0.0
O104 O 0.061 0.67201 0.62379 0.0
O105 O -0.00545 0.60397 0.56326 0.0
O106 O 0.94646 0.68509 0.63537 0.0
O107 O 0.04178 0.56547 0.63316 0.0
O108 O 0.02009 0.65023 0.70809 0.0
O109 O 0.9306 0.60032 0.64962 0.0
Sc110 Sc 0.35339 0.98566 0.62351 0.0
Sc111 Sc 0.35486 0.07092 0.64292 0.0
Sc112 Sc 0.29191 0.01987 0.67624 0.0
O113 O 0.33267 0.02524 0.64688 0.0
C114 C 0.27508 0.9699 0.61595 0.0
C115 C 0.36906 0.03995 0.57042 0.0
C116 C 0.28126 0.08942 0.63347 0.0
C117 C 0.41456 0.02415 0.65726 0.0
C118 C 0.33309 0.95178 0.69198 0.0
C119 C 0.33299 0.07229 0.71759 0.0
O120 O 0.30606 0.96505 0.60962 0.0
O121 O 0.37548 0.06201 0.5928 0.0
O122 O 0.27177 0.06801 0.65602 0.0
O123 O 0.4025 0.0023 0.637 0.0
O124 O 0.3085 0.97196 0.69775 0.0
O125 O 0.33655 0.08909 0.69082 0.0
O126 O 0.3535 0.9557 0.66765 0.0
O127 O 0.3992 0.05119 0.66575 0.0
O128 O 0.31908 0.04353 0.71742 0.0
O129 O 0.35493 0.01215 0.57708 0.0
O130 O 0.26462 -0.00811 0.63755 0.0
O131 O 0.31086 0.09007 0.62137 0.0
Sc132 Sc -0.0018 0.29387 0.68744 0.0
Sc133 Sc 0.05316 0.33172 0.63079 0.0
Sc134 Sc 0.96788 0.34159 0.62085 0.0
O135 O 0.00577 0.32223 0.64634 0.0
C136 C 0.94223 0.26713 0.63846 0.0
C137 C 0.05129 0.25517 0.63989 0.0
C138 C 0.01704 0.33032 0.56182 0.0
C139 C 0.06034 0.33576 0.70512 0.0
C140 C 0.93945 0.34986 0.69489 0.0
C141 C 0.02049 0.40189 0.63176 0.0
O142 O 0.96356 0.26142 0.66161 0.0
O143 O 0.05704 0.27969 0.62003 0.0
O144 O -0.01122 0.32314 0.57449 0.0
O145 O 0.03077 0.32825 0.71439 0.0
O146 O 0.94301 0.36049 0.6649 0.0
O147 O 0.0454 0.38416 0.6417 0.0
O148 O 0.95656 0.32507 0.70643 0.0
O149 O 0.07285 0.32128 0.6796 0.0
O150 O -0.00585 0.38945 0.61822 0.0
O151 O 0.03783 0.2586 0.66938 0.0
O152 O 0.93983 0.29535 0.62319 0.0
O153 O 0.04089 0.3418 0.5792 0.0
Sc154 Sc 0.62387 0.02225 0.63004 0.0
Sc155 Sc 0.59868 0.94073 0.61408 0.0
Sc156 Sc 0.66065 0.95674 0.67313 0.0
O157 O 0.62827 0.97238 0.63833 0.0
C158 C 0.69806 0.01337 0.62717 0.0
C159 C 0.60285 -0.00549 0.55922 0.0
C160 C 0.6697 0.90235 0.61383 0.0
C161 C 0.5524 -0.0001 0.64543 0.0
C162 C 0.63453 0.02316 0.70422 0.0
C163 C 0.59894 0.90645 0.68551 0.0
O164 O 0.67243 0.02032 0.60953 0.0
O165 O 0.6089 0.96429 0.56736 0.0
O166 O 0.68184 0.9198 0.63816 0.0
O167 O 0.57554 0.02075 0.65225 0.0
O168 O 0.63666 -0.00846 0.709 0.0
O169 O 0.58551 0.9137 0.65773 0.0
O170 O 0.64615 0.03516 0.67726 0.0
O171 O 0.55652 0.97392 0.62619 0.0
O172 O 0.62716 0.91863 0.69449 0.0
O173 O 0.602 0.01836 0.58064 0.0
O174 O 0.69717 -0.00553 0.65364 0.0
O175 O 0.6398 0.90635 0.60301 0.0
Sc176 Sc 0.33332 0.36063 0.93572 0.0
Sc177 Sc 0.34357 0.3507 0.02062 0.0
Sc178 Sc 0.29509 0.29378 0.97679 0.0
O179 O 0.32376 0.33474 0.97749 0.0
C180 C 0.25838 0.34592 0.92626 0.0
C181 C 0.31831 0.41631 -0.00876 0.0
C182 C 0.27257 0.32685 0.0449 0.0
C183 C 0.4016 0.36561 0.9684 0.0
C184 C 0.33853 0.28541 0.91001 0.0
C185 C 0.35559 0.27638 0.02924 0.0
O186 O 0.28214 0.36683 0.92745 0.0
O187 O 0.31682 0.39678 0.01646 0.0
O188 O 0.26303 0.31563 0.01624 0.0
O189 O 0.3856 0.35521 0.94298 0.0
O190 O 0.32738 0.27234 0.9374 0.0
O191 O 0.36968 0.30458 0.02459 0.0
O192 O 0.33555 0.31672 0.90374 0.0
O193 O 0.38724 0.37221 -0.0035 0.0
O194 O 0.32713 0.26896 0.01585 0.0
O195 O 0.33116 0.40766 0.9629 0.0
O196 O 0.2604 0.31596 0.93859 0.0
O197 O 0.30339 0.33134 0.05135 0.0
Sc198 Sc 0.29106 0.66882 0.01712 0.0
Sc199 Sc 0.33988 0.62482 0.95953 0.0
Sc200 Sc 0.35538 0.61582 0.04406 0.0
O201 O 0.32919 0.63747 0.00752 0.0
C202 C 0.34424 0.69074 0.07198 0.0
C203 C 0.33418 0.70041 0.95478 0.0
C204 C 0.41119 0.62145 -0.00862 0.0
C205 C 0.26417 0.62997 0.9547 0.0
C206 C 0.28282 0.61247 0.07511 0.0
C207 C 0.33356 0.55749 -0.00467 0.0
O208 O 0.32146 0.69913 0.05097 0.0
O209 O 0.35368 0.67503 0.95106 0.0
O210 O 0.40093 0.63074 0.02032 0.0
O211 O 0.25894 0.63771 0.98551 0.0
O212 O 0.31187 0.60007 0.0704 0.0
O213 O 0.32343 0.57562 0.97104 0.0
O214 O 0.27214 0.63857 0.05935 0.0
O215 O 0.2914 0.63779 0.94049 0.0
O216 O 0.3542 0.56818 0.01744 0.0
O217 O 0.30833 0.70084 0.97463 0.0
O218 O 0.35714 0.6613 0.07309 0.0
O219 O 0.39129 0.61064 0.96904 0.0
Sc220 Sc 0.66068 0.31254 -0.00825 0.0
Sc221 Sc 0.60769 0.37964 0.01319 0.0
Sc222 Sc 0.61061 0.34926 0.932 0.0
O223 O 0.62637 0.34735 0.97982 0.0
C224 C 0.68394 0.33504 0.92188 0.0
C225 C 0.68159 0.37566 0.03898 0.0
C226 C 0.62976 0.42137 0.94779 0.0
C227 C 0.60957 0.30967 0.05292 0.0
C228 C 0.60742 0.27571 0.94276 0.0
C229 C 0.54536 0.37247 0.96892 0.0
O230 O 0.69246 0.33367 0.95272 0.0
O231 O 0.65543 0.39251 0.03217 0.0
O232 O 0.63293 0.3972 0.92672 0.0
O233 O 0.6292 0.29439 0.03204 0.0
O234 O 0.58914 0.30201 0.9419 0.0
O235 O 0.55778 0.36952 -0.00199 0.0
O236 O 0.63693 0.27613 0.95592 0.0
O237 O 0.60128 0.3408 0.05068 0.0
O238 O 0.56322 0.37312 0.94239 0.0
O239 O 0.68643 0.3454 0.02826 0.0
O240 O 0.65538 0.32457 0.91346 0.0
O241 O 0.61477 0.41921 0.97649 0.0
Sc242 Sc 0.62284 0.61182 0.00646 0.0
Sc243 Sc 0.61384 0.62759 0.92093 0.0
Sc244 Sc 0.66326 0.67958 0.97023 0.0
O245 O 0.63306 0.6398 0.96631 0.0
C246 C 0.61628 0.68742 0.03396 0.0
C247 C 0.55417 0.61226 0.97026 0.0
C248 C 0.60474 0.70303 0.91957 0.0
C249 C 0.63856 0.55929 0.94642 0.0
C250 C 0.69525 0.62892 0.02493 0.0
C251 C 0.68671 0.64426 0.90408 0.0
O252 O 0.61629 0.65559 0.0391 0.0
O253 O 0.56737 0.60754 0.94125 0.0
O254 O 0.63405 0.70765 0.93199 0.0
O255 O 0.62896 0.56648 0.97653 0.0
O256 O 0.69434 0.65775 0.01052 0.0
O257 O 0.65668 0.648 0.89447 0.0
O258 O 0.67364 0.60632 0.01974 0.0
O259 O 0.63773 0.57991 0.9221 0.0
O260 O 0.69565 0.65443 0.93327 0.0
O261 O 0.57126 0.6164 -0.00336 0.0
O262 O 0.63012 0.70104 0.00813 0.0
O263 O 0.59022 0.67474 0.91943 0.0
Sc264 Sc 0.4478 0.81766 0.81833 0.0
Sc265 Sc 0.49655 0.87455 0.86143 0.0
Sc266 Sc 0.41112 0.88036 0.86918 0.0
O267 O 0.45142 0.85708 0.84935 0.0
C268 C 0.38894 0.86866 0.7947 0.0
C269 C 0.5114 0.85017 0.78706 0.0
C270 C 0.46132 0.93985 0.85031 0.0
C271 C 0.50872 0.79939 0.86955 0.0
C272 C 0.38955 0.804 0.87137 0.0
C273 C 0.45786 0.88388 0.92925 0.0
O274 O 0.40608 0.8413 0.79097 0.0
O275 O 0.52123 0.85783 0.81637 0.0
O276 O 0.43543 0.92873 0.86568 0.0
O277 O 0.49032 0.79273 0.84381 0.0
O278 O 0.38314 0.83512 0.87572 0.0
O279 O 0.48047 0.89445 0.9094 0.0
O280 O 0.4138 0.79311 0.853 0.0
O281 O 0.50866 0.82806 0.88414 0.0
O282 O 0.43012 0.87281 0.91859 0.0
O283 O 0.48177 0.83972 0.78166 0.0
O284 O 0.39055 0.88739 0.82078 0.0
O285 O 0.48363 0.92044 0.83785 0.0
Sc286 Sc 0.1648 0.49472 0.8103 0.0
Sc287 Sc 0.11196 0.43207 0.8378 0.0
Sc288 Sc 0.10756 0.5102 0.87549 0.0
O289 O 0.12841 0.47964 0.84184 0.0
C290 C 0.18143 0.53644 0.87834 0.0
C291 C 0.18675 0.42329 0.83001 0.0
C292 C 0.12603 0.44015 0.91224 0.0
C293 C 0.11408 0.45116 0.76572 0.0
C294 C 0.11237 0.55522 0.80859 0.0
C295 C 0.04521 0.46729 0.85912 0.0
O296 O 0.18811 0.52861 0.84756 0.0
O297 O 0.15927 0.41529 0.81644 0.0
O298 O 0.1132 0.47002 0.91226 0.0
O299 O 0.14422 0.46201 0.76938 0.0
O300 O 0.10259 0.55069 0.83909 0.0
O301 O 0.06244 0.4404 0.85776 0.0
O302 O 0.13367 0.53601 0.79331 0.0
O303 O 0.09447 0.44788 0.79071 0.0
O304 O 0.05843 0.4961 0.86122 0.0
O305 O 0.19535 0.4542 0.83049 0.0
O306 O 0.15419 0.52842 0.8927 0.0
O307 O 0.12956 0.42137 0.88637 0.0
Sc308 Sc 0.49765 0.1745 0.79625 0.0
Sc309 Sc 0.46341 0.15065 0.87158 0.0
Sc310 Sc 0.54498 0.12921 0.85362 0.0
O311 O 0.50178 0.1505 0.84044 0.0
C312 C 0.54413 0.11057 0.77966 0.0
C313 C 0.433 0.1335 0.79918 0.0
C314 C 0.49074 0.07843 0.87872 0.0
C315 C 0.44853 0.21714 0.84468 0.0
C316 C 0.56249 0.19875 0.82842 0.0
C317 C 0.52526 0.16186 0.92116 0.0
O318 O 0.5363 0.14123 0.77248 0.0
O319 O 0.42863 0.14397 0.82954 0.0
O320 O 0.52073 0.08913 0.8809 0.0
O321 O 0.456 0.20805 0.81447 0.0
O322 O 0.5709 0.16787 0.82562 0.0
O323 O 0.49451 0.15583 0.91517 0.0
O324 O 0.53493 0.20896 0.8155 0.0
O325 O 0.46343 0.20382 0.86912 0.0
O326 O 0.54856 0.1578 0.89938 0.0
O327 O 0.45982 0.1388 0.78213 0.0
O328 O 0.54148 0.09912 0.80937 0.0
O329 O 0.46576 0.0977 0.87363 0.0
Sc330 Sc 0.83381 0.43627 0.84902 0.0
Sc331 Sc 0.83997 0.52189 0.8464 0.0
Sc332 Sc 0.78862 0.48081 0.78954 0.0
O333 O 0.82045 0.47986 0.82803 0.0
C334 C 0.83368 0.41745 0.77374 0.0
C335 C 0.90119 0.46999 0.84768 0.0
C336 C 0.8467 0.5329 0.76973 0.0
C337 C 0.82589 0.48433 0.91117 0.0
C338 C 0.75791 0.42846 0.84313 0.0
C339 C 0.76592 0.54523 0.83058 0.0
O340 O 0.82759 0.40767 0.8035 0.0
O341 O 0.88678 0.49693 0.85831 0.0
O342 O 0.81775 0.52033 0.76363 0.0
O343 O 0.84017 0.45859 0.89802 0.0
O344 O 0.75739 0.4409 0.81319 0.0
O345 O 0.79632 0.55222 0.83665 0.0
O346 O 0.78359 0.42867 0.86173 0.0
O347 O 0.81921 0.5106 0.89433 0.0
O348 O 0.75702 0.51781 0.81613 0.0
O349 O 0.88489 0.44494 0.83652 0.0
O350 O 0.82139 0.44513 0.76285 0.0
O351 O 0.86007 0.5328 0.79866 0.0
Sc352 Sc 0.54953 0.13338 0.12895 0.0
Sc353 Sc 0.46604 0.1172 0.11355 0.0
Sc354 Sc 0.48747 0.17544 0.17458 0.0
O355 O 0.50072 0.14229 0.13922 0.0
C356 C 0.55059 0.14056 0.20637 0.0
C357 C 0.52003 0.06292 0.13165 0.0
C358 C 0.43378 0.11545 0.18485 0.0
C359 C 0.51787 0.13587 0.05887 0.0
C360 C 0.5482 0.21036 0.13388 0.0
C361 C 0.43273 0.18962 0.11887 0.0
O362 O 0.5659 0.1455 0.1788 0.0
O363 O 0.49764 0.07304 0.11123 0.0
O364 O 0.44584 0.14449 0.19188 0.0
O365 O 0.54042 0.12196 0.07658 0.0
O366 O 0.52753 0.21008 0.1589 0.0
O367 O 0.43088 0.15823 0.11254 0.0
O368 O 0.55569 0.18447 0.11619 0.0
O369 O 0.48754 0.1377 0.06874 0.0
O370 O 0.45449 0.20174 0.13922 0.0
O371 O 0.54241 0.0822 0.14352 0.0
O372 O 0.51942 0.14759 0.21007 0.0
O373 O 0.44275 0.0985 0.15879 0.0
Sc374 Sc 0.8451 0.44807 0.12106 0.0
Sc375 Sc 0.86206 0.53265 0.11007 0.0
Sc376 Sc 0.8014 0.50738 0.16818 0.0
O377 O 0.83678 0.49661 0.13389 0.0
C378 C 0.76994 0.4451 0.13278 0.0
C379 C 0.83456 0.48362 0.05376 0.0
C380 C 0.79002 0.56612 0.11335 0.0
C381 C 0.91666 0.47868 0.10718 0.0
C382 C 0.84593 0.44499 0.19738 0.0
C383 C 0.85946 0.55946 0.18583 0.0
O384 O 0.79747 0.43068 0.13881 0.0
O385 O 0.85469 0.50677 0.06305 0.0
O386 O 0.78077 0.54986 0.13965 0.0
O387 O 0.89517 0.45585 0.10192 0.0
O388 O 0.82049 0.46522 0.19937 0.0
O389 O 0.8701 0.56039 0.15548 0.0
O390 O 0.86274 0.43954 0.17033 0.0
O391 O 0.90855 0.50756 0.11854 0.0
O392 O 0.83537 0.54041 0.19538 0.0
O393 O 0.8255 0.45921 0.07254 0.0
O394 O 0.76597 0.47621 0.14009 0.0
O395 O 0.81831 0.56131 0.09925 0.0
Sc396 Sc 0.49161 0.80138 0.18351 0.0
Sc397 Sc 0.53327 0.85441 0.12859 0.0
Sc398 Sc 0.4487 0.86453 0.14053 0.0
O399 O 0.49065 0.83983 0.15117 0.0
C400 C 0.42477 0.7879 0.14322 0.0
C401 C 0.5372 0.77841 0.11884 0.0
C402 C 0.48139 0.86953 0.07148 0.0
C403 C 0.55897 0.83707 0.19877 0.0
C404 C 0.43665 0.85249 0.21688 0.0
C405 C 0.50466 0.92167 0.15161 0.0
O406 O 0.45125 0.77646 0.15728 0.0
O407 O 0.53515 0.80704 0.1046 0.0
O408 O 0.45704 0.85803 0.08828 0.0
O409 O 0.53109 0.82709 0.21104 0.0
O410 O 0.43627 0.87172 0.19152 0.0
O411 O 0.52969 0.90175 0.15356 0.0
O412 O 0.45443 0.82536 0.21833 0.0
O413 O 0.56492 0.83494 0.16746 0.0
O414 O 0.47552 0.91199 0.14228 0.0
O415 O 0.52775 0.77363 0.14971 0.0
O416 O 0.41943 0.81924 0.13828 0.0
O417 O 0.50944 0.87582 0.08491 0.0
Sc418 Sc 0.12614 0.49417 0.09342 0.0
Sc419 Sc 0.11092 0.41077 0.10854 0.0
Sc420 Sc 0.15266 0.45813 0.16774 0.0
O421 O 0.12953 0.45505 0.12351 0.0
C422 C 0.19429 0.51013 0.122 0.0
C423 C 0.14767 0.4321 0.0457 0.0
C424 C 0.17781 0.39047 0.13815 0.0
C425 C 0.05766 0.46135 0.08166 0.0
C426 C 0.11227 0.52562 0.16726 0.0
C427 C 0.08809 0.41075 0.17975 0.0
O428 O 0.17836 0.5019 0.09577 0.0
O429 O 0.1447 0.40891 0.06735 0.0
O430 O 0.18702 0.41934 0.14902 0.0
O431 O 0.07356 0.48743 0.09073 0.0
O432 O 0.11968 0.49881 0.18368 0.0
O433 O 0.07776 0.41401 0.14985 0.0
O434 O 0.11665 0.52872 0.1354 0.0
O435 O 0.0721 0.43287 0.07766 0.0
O436 O 0.11758 0.42013 0.18888 0.0
O437 O 0.1361 0.46209 0.05008 0.0
O438 O 0.18755 0.49782 0.15107 0.0
O439 O 0.14691 0.38314 0.13811 0.0
Sc440 Sc 0.84193 0.84148 0.42687 0.0
Sc441 Sc 0.84044 0.84639 0.51382 0.0
Sc442 Sc 0.79628 0.78287 0.47296 0.0
O443 O 0.82653 0.82314 0.47179 0.0
C444 C 0.77061 0.82336 0.41145 0.0
C445 C 0.81906 0.90574 0.46293 0.0
C446 C 0.76584 0.82911 0.53287 0.0
C447 C 0.90451 0.85759 0.47162 0.0
C448 C 0.85615 0.76613 0.41895 0.0
C449 C 0.84591 0.7685 0.53367 0.0
O450 O 0.80034 0.82 0.40095 0.0
O451 O 0.83144 0.89454 0.49044 0.0
O452 O 0.76401 0.80318 0.51359 0.0
O453 O 0.88743 0.86374 0.44543 0.0
O454 O 0.82782 0.75856 0.43291 0.0
O455 O 0.85019 0.79985 0.53927 0.0
O456 O 0.86785 0.79589 0.41828 0.0
O457 O 0.89158 0.84561 0.49824 0.0
O458 O 0.82834 0.75735 0.50914 0.0
O459 O 0.81569 0.88771 0.43647 0.0
O460 O 0.76226 0.80977 0.43926 0.0
O461 O 0.79101 0.84845 0.53359 0.0
Sc462 Sc 0.86495 0.11623 0.44969 0.0
Sc463 Sc 0.8738 0.0911 0.53281 0.0
Sc464 Sc 0.81396 0.15162 0.51122 0.0
O465 O 0.85126 0.1199 0.49859 0.0
C466 C 0.86167 0.19173 0.45971 0.0
C467 C 0.93317 0.09482 0.48349 0.0
C468 C 0.86834 0.16351 0.56849 0.0
C469 C 0.85092 0.04326 0.47171 0.0
C470 C 0.78979 0.12607 0.44224 0.0
C471 C 0.80017 0.09066 0.56219 0.0
O472 O 0.88127 0.16706 0.45256 0.0
O473 O 0.92251 0.10066 0.51308 0.0
O474 O 0.8445 0.1741 0.54979 0.0
O475 O 0.84651 0.06608 0.44961 0.0
O476 O 0.78257 0.1284 0.4735 0.0
O477 O 0.82877 0.07739 0.5577 0.0
O478 O 0.8182 0.13452 0.43106 0.0
O479 O 0.86579 0.04792 0.49999 0.0
O480 O 0.79121 0.11806 0.54796 0.0
O481 O 0.91432 0.09652 0.45807 0.0
O482 O 0.83365 0.18864 0.47549 0.0
O483 O 0.88074 0.13372 0.56619 0.0
Sc484 Sc 0.16147 0.82353 0.49707 0.0
Sc485 Sc 0.10686 0.88432 0.5302 0.0
Sc486 Sc 0.11689 0.87589 0.44407 0.0
O487 O 0.12768 0.85983 0.49063 0.0
C488 C 0.19394 0.87103 0.44122 0.0
C489 C 0.18059 0.87546 0.55504 0.0
C490 C 0.12677 0.9394 0.48132 0.0
C491 C 0.10342 0.8095 0.55312 0.0
C492 C 0.12579 0.7984 0.43144 0.0
C493 C 0.04792 0.87573 0.47637 0.0
O494 O 0.19426 0.8433 0.45764 0.0
O495 O 0.14994 0.88091 0.56228 0.0
O496 O 0.10588 0.92516 0.46239 0.0
O497 O 0.13118 0.80236 0.53793 0.0
O498 O 0.12605 0.82834 0.4204 0.0
O499 O 0.06012 0.89024 0.50248 0.0
O500 O 0.13513 0.79106 0.46139 0.0
O501 O 0.08827 0.83783 0.55009 0.0
O502 O 0.06612 0.86294 0.45299 0.0
O503 O 0.18946 0.8558 0.53094 0.0
O504 O 0.16783 0.8889 0.43647 0.0
O505 O 0.12955 0.92979 0.51158 0.0
Sc506 Sc 0.13477 0.09402 0.51546 0.0
Sc507 Sc 0.1226 0.10883 0.43124 0.0
Sc508 Sc 0.14425 0.17429 0.4845 0.0
O509 O 0.13343 0.12567 0.47752 0.0
C510 C 0.09969 0.16021 0.54676 0.0
C511 C 0.07351 0.06853 0.47625 0.0
C512 C 0.08398 0.17381 0.43163 0.0
C513 C 0.17091 0.05403 0.45442 0.0
C514 C 0.19142 0.13785 0.53794 0.0
C515 C 0.18207 0.15347 0.42041 0.0
O516 O 0.11364 0.13129 0.5505 0.0
O517 O 0.09089 0.06854 0.44918 0.0
O518 O 0.10981 0.18844 0.44396 0.0
O519 O 0.15667 0.05551 0.4835 0.0
O520 O 0.17763 0.16493 0.52731 0.0
O521 O 0.1526 0.14849 0.40988 0.0
O522 O 0.18402 0.10898 0.52659 0.0
O523 O 0.16478 0.07522 0.43122 0.0
O524 O 0.1859 0.1666 0.4496 0.0
O525 O 0.08509 0.07922 0.50407 0.0
O526 O 0.10368 0.17845 0.52048 0.0
O527 O 0.08044 0.14201 0.43193 0.0
C528 C 0.00721 0.36649 0.47588 0.0
C529 C 0.01248 0.33812 0.45487 0.0
C530 C 0.01052 0.36396 0.51075 0.0
C531 C 0.01904 0.33304 0.52547 0.0
H532 H -0.00029 0.39064 0.46543 0.0
H533 H 0.00516 0.38597 0.5264 0.0
S534 S 0.03769 0.25197 0.48208 0.0
N535 N 0.02852 0.27852 0.45132 0.0
N536 N 0.03447 0.27407 0.51755 0.0
C537 C 0.02574 0.30481 0.50505 0.0
C538 C 0.02263 0.30732 0.4694 0.0
C539 C 0.58358 0.97849 0.46836 0.0
C540 C 0.59703 0.00705 0.45252 0.0
C541 C 0.58358 0.9758 0.50334 0.0
C542 C 0.59717 0.00153 0.52352 0.0
H543 H 0.57452 0.95734 0.45353 0.0
H544 H 0.57429 0.95267 0.51456 0.0
S545 S 0.63222 0.08297 0.49412 0.0
N546 N 0.62152 0.06288 0.45913 0.0
N547 N 0.62165 0.05776 0.52561 0.0
C548 C 0.6083 0.03143 0.50818 0.0
C549 C 0.6082 0.03421 0.47234 0.0
C550 C 0.01711 0.58028 0.50023 0.0
C551 C 0.03315 0.60572 0.51877 0.0
C552 C 0.02106 0.57817 0.46537 0.0
C553 C 0.041 0.60158 0.44793 0.0
H554 H 0.00056 0.56246 0.51263 0.0
H555 H 0.0072 0.55895 0.45182 0.0
S556 S 0.09038 0.67138 0.48541 0.0
N557 N 0.07161 0.65329 0.518 0.0
N558 N 0.07884 0.6496 0.45173 0.0
C559 C 0.05896 0.62587 0.46635 0.0
C560 C 0.05502 0.62792 0.50209 0.0
C561 C 0.39835 0.01758 0.48363 0.0
C562 C 0.38367 0.0432 0.46407 0.0
C563 C 0.39616 0.01848 0.51872 0.0
C564 C 0.37956 0.0452 0.53538 0.0
H565 H 0.40932 -0.00467 0.47165 0.0
H566 H 0.40545 -0.00304 0.53282 0.0
S567 S 0.343 0.12169 0.49612 0.0
N568 N 0.35643 0.09846 0.4638 0.0
N569 N 0.35267 0.10031 0.53056 0.0
C570 C 0.36821 0.07291 0.5165 0.0
C571 C 0.37026 0.07191 0.48047 0.0
C572 C 0.47606 0.05679 0.32898 0.0
C573 C 0.45638 0.02792 0.32448 0.0
C574 C 0.51082 0.05438 0.32565 0.0
C575 C 0.52588 0.02303 0.31795 0.0
H576 H 0.46505 0.0801 0.33864 0.0
H577 H 0.52586 0.07592 0.33298 0.0
S578 S 0.48364 0.94437 0.2915 0.0
N579 N 0.45285 0.97032 0.30303 0.0
N580 N 0.51873 0.96579 0.29663 0.0
C581 C 0.50599 -0.00413 0.30778 0.0
C582 C 0.47078 -0.0017 0.3112 0.0
C583 C 0.05577 0.48918 0.34558 0.0
C584 C 0.03668 0.50865 0.32312 0.0
C585 C 0.04827 0.45513 0.35041 0.0
C586 C 0.02162 0.44032 0.33281 0.0
H587 H 0.07382 0.50103 0.36217 0.0
H588 H 0.06113 0.44144 0.37019 0.0
S589 S 0.9719 0.47842 0.26378 0.0
N590 N -0.00411 0.50935 0.27772 0.0
N591 N 0.98182 0.44498 0.2866 0.0
C592 C 0.00595 0.45829 0.30677 0.0
C593 C 0.0136 0.49276 0.30187 0.0
C594 C 0.46212 0.9856 0.66585 0.0
C595 C 0.44947 0.01884 0.66708 0.0
C596 C 0.49625 0.9796 0.66145 0.0
C597 C 0.51865 0.00667 0.65874 0.0
H598 H 0.44529 0.96415 0.66503 0.0
H599 H 0.50476 0.95371 0.65785 0.0
S600 S 0.49913 0.09746 0.67361 0.0
N601 N 0.46227 0.07851 0.67462 0.0
N602 N 0.52726 0.06717 0.66706 0.0
C603 C 0.50703 0.03963 0.66598 0.0
C604 C 0.47201 0.04577 0.67016 0.0
C605 C 0.05008 0.45736 0.62951 0.0
C606 C 0.02103 0.43862 0.63664 0.0
C607 C 0.04903 0.49283 0.62994 0.0
C608 C 0.01901 0.51025 0.63794 0.0
H609 H 0.07311 0.44463 0.62182 0.0
H610 H 0.07125 0.50657 0.62222 0.0
S611 S 0.93871 0.47212 0.6666 0.0
N612 N 0.96323 0.43957 0.65702 0.0
N613 N 0.96152 0.506 0.65905 0.0
C614 C -0.00916 0.49153 0.64824 0.0
C615 C -0.00825 0.45571 0.64718 0.0
C616 C 0.32853 0.46753 0.0242 0.0
C617 C 0.3127 0.45202 -0.00319 0.0
C618 C 0.33374 0.50221 0.02421 0.0
C619 C 0.32309 0.52215 -0.00312 0.0
H620 H 0.33957 0.45256 0.04418 0.0
H621 H 0.34777 0.51302 0.04494 0.0
S622 S 0.27165 0.49347 0.92425 0.0
N623 N 0.28048 0.45868 0.94542 0.0
N624 N 0.28943 0.52458 0.94545 0.0
C625 C 0.30337 0.50723 0.97148 0.0
C626 C 0.29838 0.47182 0.97146 0.0
C627 C 0.45488 0.38843 -0.00931 0.0
C628 C 0.4381 0.36973 0.96572 0.0
C629 C 0.48978 0.3901 -0.00913 0.0
C630 C 0.50895 0.37348 0.9659 0.0
H631 H 0.44104 0.40131 0.01071 0.0
H632 H 0.50189 0.40406 0.01099 0.0
S633 S 0.47756 0.32096 0.89512 0.0
N634 N 0.4434 0.33417 0.9153 0.0
N635 N 0.50936 0.33783 0.9156 0.0
C636 C 0.49269 0.35551 0.94019 0.0
C637 C 0.45709 0.35352 0.9401 0.0
C638 C 0.66119 0.47082 0.9651 0.0
C639 C 0.64367 0.45396 0.93955 0.0
C640 C 0.66307 0.50579 0.96507 0.0
C641 C 0.64772 0.52437 0.93932 0.0
H642 H 0.67024 0.45722 0.98699 0.0
H643 H 0.67368 0.51842 0.98688 0.0
S644 S 0.60795 0.49063 0.86191 0.0
N645 N 0.6175 0.45685 0.88439 0.0
N646 N 0.62146 0.52344 0.88387 0.0
C647 C 0.63521 0.50744 0.91081 0.0
C648 C 0.63309 0.47166 0.91102 0.0
C649 C 0.49577 0.59655 0.95443 0.0
C650 C 0.51774 0.61608 0.97385 0.0
C651 C 0.46103 0.59894 0.95971 0.0
C652 C 0.44745 0.62102 0.98443 0.0
H653 H 0.5055 0.57869 0.93586 0.0
H654 H 0.44481 0.58272 0.945 0.0
S655 S 0.49458 0.68153 0.03784 0.0
N656 N 0.52366 0.66094 0.01586 0.0
N657 N 0.45847 0.66537 0.02575 0.0
C658 C 0.46921 0.6419 0.00273 0.0
C659 C 0.50439 0.63946 -0.00259 0.0
C660 C 0.43765 0.88015 -0.01163 0.0
C661 C 0.46453 0.88367 0.96554 0.0
C662 C 0.44346 0.87648 0.02275 0.0
C663 C 0.47637 0.87607 0.03549 0.0
H664 H 0.41192 0.87963 0.97962 0.0
H665 H 0.42191 0.87342 0.03935 0.0
S666 S 0.55547 0.88502 0.98612 0.0
N667 N 0.5253 0.88728 0.95785 0.0
N668 N 0.53619 0.88027 0.02286 0.0
C669 C 0.5035 0.88054 0.01308 0.0
C670 C 0.49758 0.88436 0.97797 0.0
C671 C 0.17309 0.44667 -0.00815 0.0
C672 C 0.15639 0.42249 0.01138 0.0
C673 C 0.16522 0.45016 0.95797 0.0
C674 C 0.1413 0.42905 0.94318 0.0
H675 H 0.1884 0.46586 0.00376 0.0
H676 H 0.17561 0.47118 0.94401 0.0
S677 S 0.10014 0.35476 0.98096 0.0
N678 N 0.12193 0.37178 0.01202 0.0
N679 N 0.10778 0.37819 0.9473 0.0
C680 C 0.1295 0.40093 0.96065 0.0
C681 C 0.13729 0.39743 -0.00468 0.0
C682 C 0.5549 0.14146 0.97125 0.0
C683 C 0.53379 0.16587 0.95665 0.0
C684 C 0.55128 0.13315 0.00541 0.0
C685 C 0.52648 0.14912 0.02544 0.0
H686 H 0.5714 0.12603 0.95551 0.0
H687 H 0.5659 0.11227 0.01533 0.0
S688 S 0.47255 0.2217 0.00093 0.0
N689 N 0.4929 0.21086 0.96589 0.0
N690 N 0.48625 0.19565 0.03038 0.0
C691 C 0.50872 0.17679 0.01214 0.0
C692 C 0.51251 0.18523 0.97756 0.0
C693 C 0.82065 0.45407 0.96537 0.0
C694 C 0.82103 0.4849 0.94773 0.0
C695 C 0.82228 0.45362 0.00049 0.0
C696 C 0.82439 0.484 0.01862 0.0
H697 H 0.82079 0.43012 0.95192 0.0
H698 H 0.82429 0.42948 0.01319 0.0
S699 S 0.81892 0.57122 0.98499 0.0
N700 N 0.81877 0.54647 0.95127 0.0
N701 N 0.82072 0.54547 0.01763 0.0
C702 C 0.82112 0.51492 0.00163 0.0
C703 C 0.81971 0.51544 0.96594 0.0
C704 C 0.9548 0.49248 0.86926 0.0
C705 C 0.93786 0.46745 0.85077 0.0
C706 C -0.0105 0.49157 0.87248 0.0
C707 C 0.00861 0.46554 0.85749 0.0
H708 H 0.94127 0.51317 0.88136 0.0
H709 H 0.00146 0.51161 0.8867 0.0
S710 S 0.97685 0.39415 0.80588 0.0
N711 N 0.9429 0.41591 0.81688 0.0
N712 N 0.00869 0.41424 0.82319 0.0
C713 C -0.00778 0.44004 0.83922 0.0
C714 C 0.95668 0.44102 0.83575 0.0
C715 C 0.45195 0.03029 0.87689 0.0
C716 C 0.48507 0.04221 0.87502 0.0
C717 C 0.44428 -0.0024 0.86689 0.0
C718 C 0.46952 0.97549 0.85505 0.0
H719 H 0.43154 0.04658 0.88543 0.0
H720 H 0.41837 -0.01049 0.8689 0.0
S721 S 0.56056 -0.00569 0.84576 0.0
N722 N 0.5435 0.0296 0.86049 0.0
N723 N 0.5292 0.9675 0.84222 0.0
C724 C 0.50291 0.98696 0.85315 0.0
C725 C 0.51071 0.0204 0.86335 0.0
C726 C 0.97175 0.50013 0.0879 0.0
C727 C 0.95176 0.47256 0.09732 0.0
C728 C 0.00562 0.49568 0.07995 0.0
C729 C 0.02082 0.46354 0.08146 0.0
H730 H 0.96133 0.52551 0.08717 0.0
H731 H 0.02033 0.51789 0.07405 0.0
S732 S 0.97863 0.38276 0.10258 0.0
N733 N 0.94868 0.41173 0.1057 0.0
N734 N 0.01286 0.40326 0.09115 0.0
C735 C 0.00069 0.4354 0.08908 0.0
C736 C 0.96601 0.43996 0.09704 0.0
C737 C 0.48231 0.9799 0.15398 0.0
C738 C 0.51035 0.95819 0.15464 0.0
C739 C 0.48614 0.01414 0.14778 0.0
C740 C 0.51812 0.02793 0.14258 0.0
H741 H 0.45699 0.97019 0.15627 0.0
H742 H 0.46374 0.02974 0.14589 0.0
S743 S 0.59998 0.9838 0.14977 0.0
N744 N 0.57164 0.95396 0.15534 0.0
N745 N 0.57855 0.01918 0.14391 0.0
C746 C 0.54661 0.00751 0.14677 0.0
C747 C 0.54278 0.97234 0.15292 0.0
C748 C 0.81069 0.96051 0.49101 0.0
C749 C 0.81542 0.94246 0.46067 0.0
C750 C 0.82108 -0.00615 0.49376 0.0
C751 C 0.83574 0.01031 0.46606 0.0
H752 H 0.8019 0.94787 0.51366 0.0
H753 H 0.81911 0.00628 0.51818 0.0
S754 S 0.84487 0.97714 0.37873 0.0
N755 N 0.82952 0.94522 0.40065 0.0
N756 N 0.84822 0.00891 0.40576 0.0
C757 C 0.83616 -0.00575 0.43436 0.0
C758 C 0.82594 0.95995 0.43161 0.0
C759 C -0.0086 0.876 0.50317 0.0
C760 C 0.01122 0.87331 0.47369 0.0
C761 C 0.95676 0.87148 0.50206 0.0
C762 C 0.94064 0.86448 0.47138 0.0
H763 H 0.00277 0.88071 0.52754 0.0
H764 H 0.94255 0.8732 0.52552 0.0
S765 S 0.98085 0.85603 0.38678 0.0
N766 N 0.01214 0.86414 0.41268 0.0
N767 N 0.94665 0.85568 0.41068 0.0
C768 C 0.95991 0.86256 0.44152 0.0
C769 C -0.00467 0.86689 0.44266 0.0
C770 C 0.14534 0.97602 0.43381 0.0
C771 C 0.15097 0.9631 0.46644 0.0
C772 C 0.16355 0.00381 0.42223 0.0
C773 C 0.18455 0.02092 0.4448 0.0
H774 H 0.12501 0.96667 0.41837 0.0
H775 H 0.15508 0.01617 0.39939 0.0
S776 S 0.22242 0.98533 0.52169 0.0
N777 N 0.19078 0.95994 0.51302 0.0
N778 N 0.22333 0.01361 0.49109 0.0
C779 C 0.1978 0.00224 0.47161 0.0
C780 C 0.1798 0.9738 0.48372 0.0
C781 C 0.01872 0.06021 0.50418 0.0
C782 C 0.03691 0.0655 0.47413 0.0
C783 C 0.98492 0.06917 0.50664 0.0
C784 C 0.96806 0.08342 0.47901 0.0
H785 H 0.03126 0.05135 0.52673 0.0
H786 H 0.97226 0.06584 0.53074 0.0
S787 S 0.00299 0.09729 0.39296 0.0
N788 N 0.03468 0.08182 0.4148 0.0
N789 N 0.97076 0.09866 0.41948 0.0
C790 C -0.01492 0.08595 0.44786 0.0
C791 C 0.01961 0.07676 0.44534 0.0
C792 C 0.08007 0.20685 0.37963 0.0
C793 C 0.0637 0.19222 0.40731 0.0
C794 C 0.06202 0.22476 0.35559 0.0
C795 C 0.02706 0.22946 0.35891 0.0
H796 H 0.10712 0.20473 0.37672 0.0
H797 H 0.07593 0.23675 0.33529 0.0
S798 S 0.97237 0.19294 0.42571 0.0
N799 N 0.01068 0.17998 0.43534 0.0
N800 N 0.97639 0.21569 0.39095 0.0
C801 C 0.01007 0.21312 0.38553 0.0
C802 C 0.02857 0.19407 0.40968 0.0
C803 C 0.7792 0.08456 0.39617 0.0
C804 C 0.76681 0.10948 0.41882 0.0
C805 C 0.75734 0.06552 0.37613 0.0
C806 C 0.72262 0.07137 0.37792 0.0
H807 H 0.80581 0.07864 0.39511 0.0
H808 H 0.76746 0.04517 0.36057 0.0
S809 S 0.67887 0.1386 0.42831 0.0
N810 N 0.71873 0.14172 0.43899 0.0
N811 N 0.67746 0.1076 0.40025 0.0
C812 C 0.71042 0.09828 0.39849 0.0
C813 C 0.73256 0.11688 0.41934 0.0
C814 C 0.92051 0.72811 0.35958 0.0
C815 C 0.93024 0.69817 0.37598 0.0
C816 C 0.89479 0.74867 0.37267 0.0
C817 C 0.87751 0.74016 0.40259 0.0
H818 H 0.93289 0.73598 0.33646 0.0
H819 H 0.88893 0.77202 0.35966 0.0
S820 S 0.89282 0.6649 0.45569 0.0
N821 N 0.92006 0.66102 0.42415 0.0
N822 N 0.87158 0.70011 0.44841 0.0
C823 C 0.88622 0.71009 0.41898 0.0
C824 C 0.91268 0.68907 0.40583 0.0
C825 C 0.26855 0.92707 0.43286 0.0
C826 C 0.27493 0.92515 0.39796 0.0
C827 C 0.2435 0.90714 0.44751 0.0
C828 C 0.22513 0.88432 0.42773 0.0
H829 H 0.28151 0.94538 0.44842 0.0
H830 H 0.23707 0.91102 0.47391 0.0
S831 S 0.23497 0.86772 0.33611 0.0
N832 N 0.26288 0.8973 0.3445 0.0
N833 N 0.21604 0.85939 0.37244 0.0
C834 C 0.2326 0.88089 0.3933 0.0
C835 C 0.25762 0.90145 0.37828 0.0
C836 C 0.10873 0.75692 0.5873 0.0
C837 C 0.0885 0.78363 0.57556 0.0
C838 C 0.09521 0.73103 0.60698 0.0
C839 C 0.0609 0.73073 0.61579 0.0
H840 H 0.13523 0.75563 0.58086 0.0
H841 H 0.11168 0.71053 0.61456 0.0
S842 S -0.00297 0.79505 0.59209 0.0
N843 N 0.03237 0.80865 0.57491 0.0
N844 N 0.00697 0.75978 0.61193 0.0
C845 C 0.04052 0.75787 0.6053 0.0
C846 C 0.0543 0.78432 0.58514 0.0
C847 C 0.22214 0.1035 0.61888 0.0
C848 C 0.25634 0.11165 0.61703 0.0
C849 C 0.19974 0.11637 0.59515 0.0
C850 C 0.2109 0.13764 0.56899 0.0
H851 H 0.21316 0.0846 0.63646 0.0
H852 H 0.17424 0.10687 0.59518 0.0
S853 S 0.29528 0.17459 0.55925 0.0
N854 N 0.29845 0.149 0.59199 0.0
N855 N 0.25596 0.17185 0.54654 0.0
C856 C 0.24363 0.14981 0.56971 0.0
C857 C 0.26653 0.13709 0.59409 0.0
C858 C 0.87378 0.22218 0.59109 0.0
C859 C 0.88436 0.18814 0.5916 0.0
C860 C 0.89165 0.24723 0.60801 0.0
C861 C 0.92071 0.23934 0.62641 0.0
H862 H 0.85237 0.23 0.57624 0.0
H863 H 0.88323 0.27322 0.60557 0.0
S864 S 0.95666 0.15363 0.63975 0.0
N865 N 0.92405 0.1474 0.61503 0.0
N866 N 0.95744 0.19472 0.64717 0.0
C867 C 0.93021 0.20517 0.62939 0.0
C868 C 0.91213 0.17953 0.61186 0.0
C869 C 0.68371 0.86659 0.56278 0.0
C870 C 0.69187 0.87768 0.59574 0.0
C871 C 0.70656 0.84744 0.54315 0.0
C872 C 0.73815 0.83861 0.55597 0.0
H873 H 0.66036 0.87442 0.55121 0.0
H874 H 0.7005 0.8418 0.51707 0.0
S875 S 0.76963 0.8558 0.64229 0.0
N876 N 0.73225 0.87414 0.64155 0.0
N877 N 0.77499 0.83843 0.60456 0.0
C878 C 0.74547 0.84701 0.58966 0.0
C879 C 0.72241 0.86649 0.60958 0.0
C880 C 0.4021 0.06618 0.20845 0.0
C881 C 0.40765 0.1013 0.20755 0.0
C882 C 0.37858 0.05219 0.23087 0.0
C883 C 0.35963 0.07281 0.25317 0.0
H884 H 0.41681 0.04921 0.19251 0.0
H885 H 0.37639 0.02491 0.23176 0.0
S886 S 0.36113 0.16662 0.25738 0.0
N887 N 0.38972 0.15662 0.22849 0.0
N888 N 0.34559 0.13034 0.27051 0.0
C889 C 0.36363 0.10808 0.2512 0.0
C890 C 0.38764 0.1223 0.2285 0.0
C891 C 0.87599 0.36988 0.24631 0.0
C892 C 0.88675 0.38435 0.27686 0.0
C893 C 0.86072 0.38961 0.22157 0.0
C894 C 0.85542 0.42445 0.22653 0.0
H895 H 0.8805 0.34334 0.24087 0.0
H896 H 0.85416 0.37775 0.19777 0.0
S897 S 0.87767 0.47471 0.3021 0.0
N898 N 0.88989 0.43579 0.31107 0.0
N899 N 0.86076 0.47267 0.26415 0.0
C900 C 0.86435 0.43909 0.25743 0.0
C901 C 0.88014 0.41905 0.28273 0.0
C902 C 0.61733 0.90798 0.22437 0.0
C903 C 0.6175 0.90505 0.25963 0.0
C904 C 0.6002 0.88419 0.20455 0.0
C905 C 0.58233 0.85718 0.21948 0.0
H906 H 0.62836 0.92986 0.21231 0.0
H907 H 0.59905 0.88837 0.17753 0.0
S908 S 0.58084 0.83522 0.31029 0.0
N909 N 0.60311 0.87025 0.30827 0.0
N910 N 0.56995 0.82656 0.27101 0.0
C911 C 0.58471 0.85263 0.2544 0.0
C912 C 0.60261 0.87631 0.27444 0.0
C913 C 0.11606 0.59928 0.22781 0.0
C914 C 0.08236 0.61029 0.22991 0.0
C915 C 0.12563 0.57241 0.20658 0.0
C916 C 0.10193 0.55586 0.18648 0.0
H917 H 0.13463 0.60972 0.24474 0.0
H918 H 0.15148 0.56361 0.20691 0.0
S919 S 0.01141 0.57663 0.17988 0.0
N920 N 0.02575 0.60386 0.20806 0.0
N921 N 0.04422 0.55381 0.16736 0.0
C922 C 0.06881 0.56816 0.18613 0.0
C923 C 0.05892 0.59545 0.20797 0.0
C924 C 0.34296 0.90606 0.77459 0.0
C925 C 0.36831 0.88204 0.76688 0.0
C926 C 0.32943 0.92687 0.74965 0.0
C927 C 0.34075 0.92435 0.71606 0.0
H928 H 0.3351 0.91047 0.80056 0.0
H929 H 0.31191 0.94663 0.75727 0.0
S930 S 0.40041 0.85995 0.68134 0.0
N931 N 0.39983 0.85297 0.72246 0.0
N932 N 0.37388 0.89156 0.67516 0.0
C933 C 0.36308 0.89771 0.70733 0.0
C934 C 0.37695 0.87658 0.73285 0.0
C935 C 0.11011 0.37184 0.71723 0.0
C936 C 0.07498 0.36831 0.71543 0.0
C937 C 0.12449 0.40227 0.72819 0.0
C938 C 0.10406 0.43016 0.73688 0.0
H939 H 0.12643 0.35033 0.71215 0.0
H940 H 0.15117 0.40267 0.73341 0.0
S941 S 0.0115 0.4363 0.72892 0.0
N942 N 0.02062 0.39686 0.71819 0.0
N943 N 0.04786 0.45445 0.73673 0.0
C944 C 0.06941 0.42828 0.73035 0.0
C945 C 0.05468 0.39707 0.72075 0.0
C946 C 0.61615 0.08 0.72502 0.0
C947 C 0.61104 0.04474 0.72406 0.0
C948 C 0.5929 0.10185 0.74081 0.0
C949 C 0.56363 0.08918 0.756 0.0
H950 H 0.63854 0.09078 0.71376 0.0
H951 H 0.59863 0.12856 0.7425 0.0
S952 S 0.53552 -7e-05 0.75573 0.0
N953 N 0.57249 -0.00119 0.73641 0.0
N954 N 0.52896 0.0399 0.76638 0.0
C955 C 0.55742 0.05426 0.75392 0.0
C956 C 0.5811 0.03199 0.73796 0.0
C957 C 0.8728 0.59381 0.70136 0.0
C958 C 0.90798 0.59075 0.70264 0.0
C959 C 0.85225 0.57341 0.72172 0.0
C960 C 0.86661 0.5492 0.74317 0.0
H961 H 0.86125 0.6124 0.68502 0.0
H962 H 0.8253 0.57749 0.72169 0.0
S963 S 0.95726 0.52775 0.75059 0.0
N964 N 0.95609 0.55966 0.72382 0.0
N965 N 0.91776 0.52059 0.76131 0.0
C966 C 0.90173 0.54463 0.74281 0.0
C967 C 0.92242 0.56567 0.72272 0.0
C968 C 0.23626 0.37602 0.11942 0.0
C969 C 0.20175 0.36913 0.11816 0.0
C970 C 0.25886 0.36084 0.09663 0.0
C971 C 0.248 0.33838 0.07113 0.0
H972 H 0.24584 0.39428 0.13739 0.0
H973 H 0.28499 0.36817 0.0982 0.0
S974 S 0.16073 0.30874 0.05914 0.0
N975 N 0.15809 0.33551 0.09125 0.0
N976 N 0.20075 0.30782 0.04782 0.0
C977 C 0.21383 0.32988 0.07056 0.0
C978 C 0.19072 0.34493 0.09426 0.0
C979 C 0.24312 0.60591 0.90028 0.0
C980 C 0.24133 0.60732 0.93593 0.0
C981 C 0.22485 0.58202 0.88174 0.0
C982 C 0.20406 0.55857 0.89814 0.0
H983 H 0.25891 0.6234 0.8865 0.0
H984 H 0.22642 0.58249 0.85439 0.0
S985 S 0.19319 0.54936 -0.00874 0.0
N986 N 0.2189 0.58165 0.98695 0.0
N987 N 0.18435 0.53701 0.95243 0.0
C988 C 0.20259 0.5593 0.93388 0.0
C989 C 0.22116 0.58364 0.95268 0.0
C990 C 0.408 0.26578 0.84623 0.0
C991 C 0.4153 0.23187 0.85312 0.0
C992 C 0.38101 0.28225 0.86267 0.0
C993 C 0.36063 0.26538 0.88678 0.0
H994 H 0.42463 0.28029 0.83014 0.0
H995 H 0.37776 0.30906 0.85816 0.0
S996 S 0.36641 0.17458 0.90899 0.0
N997 N 0.3977 0.1807 0.88214 0.0
N998 N 0.34712 0.2115 0.91266 0.0
C999 C 0.36597 0.23063 0.89133 0.0
C1000 C 0.39331 0.21395 0.87465 0.0
C1001 C 0.72287 0.41622 0.89231 0.0
C1002 C 0.72969 0.4099 0.85785 0.0
C1003 C 0.709 0.39139 0.91293 0.0
C1004 C 0.70005 0.35982 0.89956 0.0
H1005 H 0.73116 0.43953 0.90408 0.0
H1006 H 0.70542 0.39695 0.93959 0.0
S1007 S 0.70799 0.33244 0.81008 0.0
N1008 N 0.72415 0.37086 0.81069 0.0
N1009 N 0.69517 0.32479 0.84916 0.0
C1010 C 0.70373 0.35425 0.86457 0.0
C1011 C 0.71902 0.37928 0.84367 0.0
C1012 C 0.57638 0.75882 0.92324 0.0
C1013 C 0.58582 0.73053 0.90395 0.0
C1014 C 0.55096 0.78058 0.91207 0.0
C1015 C 0.53416 0.77474 0.88121 0.0
H1016 H 0.58734 0.7631 0.94789 0.0
H1017 H 0.54406 0.80182 0.92816 0.0
S1018 S 0.55231 0.70499 0.82047 0.0
N1019 N 0.57835 0.6984 0.85207 0.0
N1020 N 0.53078 0.73944 0.83072 0.0
C1021 C 0.54441 0.74701 0.86122 0.0
C1022 C 0.57027 0.72496 0.87264 0.0
C1023 C 0.77724 0.60665 0.06646 0.0
C1024 C 0.76624 0.58903 0.09561 0.0
C1025 C 0.75442 0.62234 0.04459 0.0
C1026 C 0.71991 0.6212 0.05135 0.0
H1027 H 0.80356 0.60672 0.05928 0.0
H1028 H 0.76363 0.63326 0.02123 0.0
S1029 S 0.67833 0.58511 0.12727 0.0
N1030 N 0.71858 0.57621 0.13222 0.0
N1031 N 0.67588 0.60608 0.09137 0.0
C1032 C 0.70882 0.60679 0.08193 0.0
C1033 C 0.73193 0.59069 0.10409 0.0
C1034 C 0.38048 0.77379 0.10121 0.0
C1035 C 0.40028 0.76394 0.12896 0.0
C1036 C 0.3604 0.75046 0.0841 0.0
C1037 C 0.35935 0.71651 0.09422 0.0
H1038 H 0.38178 0.7993 0.09144 0.0
H1039 H 0.34724 0.75867 0.06168 0.0
S1040 S 0.40134 0.67949 0.16922 0.0
N1041 N 0.41406 0.71914 0.16842 0.0
N1042 N 0.37598 0.67528 0.13668 0.0
C1043 C 0.37692 0.707 0.12357 0.0
C1044 C 0.39752 0.73069 0.1408 0.0
C1045 C 0.59894 0.24093 0.11705 0.0
C1046 C 0.56415 0.24173 0.12332 0.0
C1047 C 0.61393 0.26452 0.09573 0.0
C1048 C 0.59456 0.28974 0.08024 0.0
H1049 H 0.6142 0.22029 0.12654 0.0
H1050 H 0.64049 0.26192 0.08992 0.0
S1051 S 0.50292 0.30419 0.0909 0.0
N1052 N 0.51108 0.27082 0.11452 0.0
N1053 N 0.53937 0.31593 0.07462 0.0
C1054 C 0.56021 0.29257 0.08856 0.0
C1055 C 0.54492 0.26831 0.11019 0.0
C1056 C 0.89301 0.68969 0.56082 0.0
C1057 C 0.91017 0.70045 0.59001 0.0
C1058 C 0.87093 0.71122 0.54374 0.0
C1059 C 0.86521 0.74455 0.55494 0.0
H1060 H 0.89689 0.66445 0.55065 0.0
H1061 H 0.85912 0.70194 0.52098 0.0
S1062 S 0.90157 0.78449 0.63171 0.0
N1063 N 0.91827 0.7462 0.63048 0.0
N1064 N 0.87666 0.78661 0.59865 0.0
C1065 C 0.88115 0.75528 0.5849 0.0
C1066 C 0.90365 0.73331 0.6023 0.0
C1067 C 0.21794 0.94347 0.61166 0.0
C1068 C 0.25109 0.94627 0.59952 0.0
C1069 C 0.19593 0.91935 0.5983 0.0
C1070 C 0.20605 0.89687 0.5722 0.0
H1071 H 0.20889 0.95983 0.63186 0.0
H1072 H 0.1705 0.9188 0.60825 0.0
S1073 S 0.29027 0.89386 0.53102 0.0
N1074 N 0.29288 0.92455 0.55925 0.0
N1075 N 0.2518 0.87904 0.53488 0.0
C1076 C 0.23929 0.89911 0.56009 0.0
C1077 C 0.26163 0.92386 0.57344 0.0
C1078 C 0.08883 0.20604 0.62948 0.0
C1079 C 0.05739 0.22164 0.62528 0.0
C1080 C 0.10119 0.183 0.60521 0.0
C1081 C 0.08263 0.17573 0.57596 0.0
H1082 H 0.1052 0.21409 0.64971 0.0
H1083 H 0.12661 0.17337 0.60774 0.0
S1084 S -0.00319 0.20591 0.55634 0.0
N1085 N 0.00625 0.22494 0.59229 0.0
N1086 N 0.02979 0.18212 0.54642 0.0
C1087 C 0.05001 0.18876 0.57315 0.0
C1088 C 0.03725 0.21162 0.59803 0.0
C1089 C 0.78064 0.03692 0.58857 0.0
C1090 C 0.77626 0.0721 0.58379 0.0
C1091 C 0.75656 0.01778 0.60581 0.0
C1092 C 0.72771 0.0334 0.61912 0.0
H1093 H 0.80195 0.02368 0.57741 0.0
H1094 H 0.7594 -0.00948 0.60669 0.0
S1095 S 0.7069 0.12496 0.61881 0.0
N1096 N 0.74271 0.12202 0.59756 0.0
N1097 N 0.69759 0.086 0.63026 0.0
C1098 C 0.7243 0.06874 0.61697 0.0
C1099 C 0.74853 0.08815 0.59916 0.0
C1100 C 0.85393 0.23058 0.41215 0.0
C1101 C 0.8689 0.22362 0.44336 0.0
C1102 C 0.8657 0.25698 0.39202 0.0
C1103 C 0.8923 0.27728 0.40298 0.0
H1104 H 0.83442 0.21429 0.40241 0.0
H1105 H 0.85488 0.26068 0.36724 0.0
S1106 S 0.93842 0.26962 0.48394 0.0
N1107 N 0.91038 0.23903 0.4851 0.0
N1108 N 0.93232 0.28945 0.44781 0.0
C1109 C 0.90615 0.27156 0.43516 0.0
C1110 C 0.89449 0.24436 0.45527 0.0
C1111 C 0.69683 0.88289 0.39604 0.0
C1112 C 0.70883 0.90423 0.37017 0.0
C1113 C 0.71638 0.8561 0.40846 0.0
C1114 C 0.74866 0.84921 0.39531 0.0
H1115 H 0.67218 0.8871 0.40718 0.0
H1116 H 0.70625 0.84103 0.42891 0.0
S1117 S 0.79139 0.8967 0.32629 0.0
N1118 N 0.75484 0.91606 0.33127 0.0
N1119 N 0.79142 0.8657 0.35404 0.0
C1120 C 0.76072 0.86999 0.3689 0.0
C1121 C 0.74094 0.8975 0.35657 0.0
C1122 C 0.11215 0.71365 0.38866 0.0
C1123 C 0.08947 0.72157 0.36242 0.0
C1124 C 0.12369 0.73839 0.4111 0.0
C1125 C 0.11343 0.77215 0.40793 0.0
H1126 H 0.12043 0.68784 0.39275 0.0
H1127 H 0.14075 0.731 0.43099 0.0
S1128 S 0.0547 0.80656 0.34356 0.0
N1129 N 0.0576 0.76585 0.33456 0.0
N1130 N 0.07915 0.8125 0.37651 0.0
C1131 C 0.09117 0.78063 0.38151 0.0
C1132 C 0.07928 0.75536 0.35881 0.0
C1133 C 0.20831 0.12238 0.37166 0.0
C1134 C 0.20874 0.13126 0.40627 0.0
C1135 C 0.23023 0.09757 0.35836 0.0
C1136 C 0.25277 0.08046 0.37944 0.0
H1137 H 0.19092 0.13479 0.35474 0.0
H1138 H 0.23036 0.09267 0.33138 0.0
S1139 S 0.2606 0.09065 0.47248 0.0
N1140 N 0.23205 0.1189 0.4616 0.0
N1141 N 0.27207 0.07159 0.43696 0.0
C1142 C 0.25236 0.08803 0.41429 0.0
C1143 C 0.23084 0.11375 0.4276 0.0
C1144 C 0.56843 0.86654 0.76666 0.0
C1145 C 0.53505 0.85745 0.75899 0.0
C1146 C 0.58975 0.88051 0.74231 0.0
C1147 C 0.57872 0.88567 0.70916 0.0
H1148 H 0.57782 0.86448 0.79221 0.0
H1149 H 0.61443 0.8888 0.75004 0.0
S1150 S 0.49571 0.86024 0.67446 0.0
N1151 N 0.49348 0.85056 0.71494 0.0
N1152 N 0.53363 0.87588 0.66862 0.0
C1153 C 0.54642 0.8737 0.70033 0.0
C1154 C 0.5246 0.85977 0.72535 0.0
C1155 C 0.09874 0.61817 0.73891 0.0
C1156 C 0.06365 0.62292 0.73956 0.0
C1157 C 0.11475 0.5981 0.76296 0.0
C1158 C 0.09632 0.58238 0.7888 0.0
H1159 H 0.11365 0.62787 0.71809 0.0
H1160 H 0.14148 0.59332 0.76015 0.0
S1161 S 0.00453 0.59076 0.80452 0.0
N1162 N 0.01141 0.61335 0.77015 0.0
N1163 N 0.04162 0.57597 0.81601 0.0
C1164 C 0.06169 0.58966 0.79179 0.0
C1165 C 0.0453 0.60998 0.767 0.0
C1166 C 0.37465 0.1323 0.77725 0.0
C1167 C 0.40528 0.11557 0.78294 0.0
C1168 C 0.34924 0.11665 0.75859 0.0
C1169 C 0.35329 0.08341 0.74631 0.0
H1170 H 0.37111 0.15826 0.78555 0.0
H1171 H 0.3271 0.13125 0.75207 0.0
S1172 S 0.42751 0.02769 0.75834 0.0
N1173 N 0.43756 0.06349 0.77735 0.0
N1174 N 0.3892 0.03345 0.7435 0.0
C1175 C 0.38286 0.06561 0.7542 0.0
C1176 C 0.4091 0.0819 0.77222 0.0
C1177 C 0.86745 0.40875 0.72057 0.0
C1178 C 0.85884 0.398 0.75328 0.0
C1179 C 0.89364 0.39321 0.70229 0.0
C1180 C 0.91268 0.36631 0.7159 0.0
H1181 H 0.8542 0.4297 0.70905 0.0
H1182 H 0.89891 0.4026 0.67714 0.0
S1183 S 0.90054 0.32841 0.80076 0.0
N1184 N 0.87159 0.35836 0.79866 0.0
N1185 N 0.92085 0.32955 0.76426 0.0
C1186 C 0.90431 0.35516 0.74856 0.0
C1187 C 0.87742 0.37083 0.76718 0.0
C1188 C 0.59933 0.13403 0.24436 0.0
C1189 C 0.56946 0.12067 0.2313 0.0
C1190 C 0.62348 0.11305 0.2594 0.0
C1191 C 0.61943 0.07773 0.26049 0.0
H1192 H 0.60453 0.16078 0.24191 0.0
H1193 H 0.64586 0.12451 0.26974 0.0
S1194 S 0.5452 0.03031 0.23052 0.0
N1195 N 0.53643 0.07018 0.22164 0.0
N1196 N 0.58264 0.03044 0.24827 0.0
C1197 C 0.58958 0.06404 0.24766 0.0
C1198 C 0.56439 0.0856 0.23352 0.0
C1199 C 0.9293 0.61231 0.22272 0.0
C1200 C 0.92475 0.60823 0.25762 0.0
C1201 C 0.90686 0.59803 0.19985 0.0
C1202 C 0.87888 0.57908 0.21094 0.0
H1203 H 0.95118 0.62525 0.21286 0.0
H1204 H 0.91247 0.6008 0.17316 0.0
S1205 S 0.85227 0.56683 0.30015 0.0
N1206 N 0.88762 0.58826 0.30255 0.0
N1207 N 0.84558 0.56109 0.2594 0.0
C1208 C 0.87262 0.5771 0.24587 0.0
C1209 C 0.89553 0.59171 0.26922 0.0
C1210 C 0.42668 0.87219 0.27596 0.0
C1211 C 0.41382 0.86341 0.24438 0.0
C1212 C 0.40884 0.89444 0.29735 0.0
C1213 C 0.37779 0.90922 0.28764 0.0
H1214 H 0.45179 0.86424 0.28294 0.0
H1215 H 0.42072 0.90166 0.32081 0.0
S1216 S 0.33069 0.88814 0.20999 0.0
N1217 N 0.36603 0.86621 0.20656 0.0
N1218 N 0.33287 0.90862 0.24639 0.0
C1219 C 0.36331 0.89782 0.25751 0.0
C1220 C 0.38124 0.87476 0.23603 0.0
C1221 C 0.08399 0.36061 0.21662 0.0
C1222 C 0.06818 0.38798 0.20079 0.0
C1223 C 0.06516 0.33694 0.23458 0.0
C1224 C 0.03005 0.34034 0.2378 0.0
H1225 H 0.11108 0.35767 0.21543 0.0
H1226 H 0.07841 0.31777 0.24886 0.0
S1227 S 0.97658 0.40569 0.19813 0.0
N1228 N 0.01526 0.4153 0.18625 0.0
N1229 N 0.98 0.37143 0.22164 0.0
C1230 C 0.01377 0.36615 0.22006 0.0
C1231 C 0.03286 0.39004 0.20138 0.0
C1232 C 0.71068 0.62124 0.84975 0.0
C1233 C 0.70766 0.61951 0.88523 0.0
C1234 C 0.72789 0.59588 0.83126 0.0
C1235 C 0.74114 0.56735 0.84761 0.0
H1236 H 0.70018 0.64261 0.83633 0.0
H1237 H 0.73157 0.59899 0.80429 0.0
S1238 S 0.73643 0.54888 0.93931 0.0
N1239 N 0.71769 0.58604 0.93555 0.0
N1240 N 0.74834 0.53777 0.9007 0.0
C1241 C 0.73693 0.56469 0.88278 0.0
C1242 C 0.72057 0.59089 0.90164 0.0
C1243 C 0.70432 0.42783 0.06621 0.0
C1244 C 0.70547 0.39227 0.06239 0.0
C1245 C 0.72387 0.44461 0.09024 0.0
C1246 C 0.74557 0.4266 0.11148 0.0
H1247 H 0.68812 0.44305 0.05039 0.0
H1248 H 0.72267 0.47198 0.09141 0.0
S1249 S 0.75688 0.33313 0.1132 0.0
N1250 N 0.7293 0.33959 0.0829 0.0
N1251 N 0.76629 0.37098 0.12805 0.0
C1252 C 0.74674 0.39098 0.10829 0.0
C1253 C 0.72679 0.37389 0.08371 0.0
C1254 C 0.55747 0.75678 0.06322 0.0
C1255 C 0.55441 0.75172 0.09844 0.0
C1256 C 0.57797 0.73617 0.04303 0.0
C1257 C 0.59585 0.709 0.05687 0.0
H1258 H 0.54451 0.7775 0.05098 0.0
H1259 H 0.57952 0.74147 0.0162 0.0
S1260 S 0.59472 0.68254 0.14678 0.0
N1261 N 0.56994 0.71624 0.14597 0.0
N1262 N 0.6078 0.67641 0.10744 0.0
C1263 C 0.59187 0.70231 0.09164 0.0
C1264 C 0.57125 0.72384 0.11254 0.0
C1265 C 0.22494 0.59294 0.08818 0.0
C1266 C 0.25933 0.59199 0.0956 0.0
C1267 C 0.20369 0.56725 0.09926 0.0
C1268 C 0.21593 0.53987 0.11836 0.0
H1269 H 0.21482 0.612 0.07143 0.0
H1270 H 0.17775 0.56779 0.09111 0.0
S1271 S 0.30222 0.52916 0.15046 0.0
N1272 N 0.30358 0.56421 0.12791 0.0
N1273 N 0.26305 0.51575 0.14842 0.0
C1274 C 0.24926 0.54038 0.12903 0.0
C1275 C 0.27113 0.56654 0.11769 0.0
C1276 C 0.37246 0.21881 0.05016 0.0
C1277 C 0.37194 0.25397 0.05429 0.0
C1278 C 0.39127 0.19828 0.07197 0.0
C1279 C 0.41019 0.21209 0.09892 0.0
H1280 H 0.35939 0.20719 0.02921 0.0
H1281 H 0.39173 0.17135 0.06682 0.0
S1282 S 0.41279 0.30266 0.12333 0.0
N1283 N 0.38884 0.30166 0.08948 0.0
N1284 N 0.4242 0.26308 0.13009 0.0
C1285 C 0.40834 0.24713 0.10427 0.0
C1286 C 0.38923 0.26801 0.0821 0.0
C1287 C 0.20725 0.41313 0.88814 0.0
C1288 C 0.20087 0.40028 0.85572 0.0
C1289 C 0.22016 0.39251 0.91352 0.0
C1290 C 0.22942 0.35863 0.90699 0.0
H1291 H 0.20265 0.4396 0.89387 0.0
H1292 H 0.22643 0.40423 0.93749 0.0
S1293 S 0.21512 0.31193 0.82701 0.0
N1294 N 0.20072 0.35047 0.81947 0.0
N1295 N 0.22879 0.31237 0.86639 0.0
C1296 C 0.22134 0.34479 0.87532 0.0
C1297 C 0.2065 0.36557 0.84976 0.0
C1298 C 0.56281 0.24795 0.91013 0.0
C1299 C 0.59711 0.24916 0.91867 0.0
C1300 C 0.55225 0.23304 0.88011 0.0
C1301 C 0.57529 0.21718 0.85804 0.0
H1302 H 0.54405 0.2606 0.92581 0.0
H1303 H 0.52566 0.23353 0.87448 0.0
S1304 S 0.66722 0.20915 0.8704 0.0
N1305 N 0.6539 0.23123 0.90353 0.0
N1306 N 0.63342 0.20055 0.848 0.0
C1307 C 0.6093 0.21578 0.86736 0.0
C1308 C 0.62033 0.23211 0.8976 0.0
C1309 C 0.36604 0.74662 0.87881 0.0
C1310 C 0.36972 0.77968 0.89105 0.0
C1311 C 0.35189 0.72169 0.8991 0.0
C1312 C 0.34119 0.7289 0.9324 0.0
H1313 H 0.37524 0.73966 0.85384 0.0
H1314 H 0.35075 0.69612 0.88918 0.0
S1315 S 0.34344 0.81186 0.97584 0.0
N1316 N 0.35969 0.81896 0.93797 0.0
N1317 N 0.33326 0.77142 0.97618 0.0
C1318 C 0.34275 0.76217 0.94435 0.0
C1319 C 0.35709 0.78778 0.92362 0.0
loop_
_geom_bond_atom_site_label_1
_geom_bond_atom_site_label_2
_geom_bond_distance
_geom_bond_site_symmetry_2
_ccdc_geom_bond_type
Sc0 O3 2.025 . S
Sc0 O10 2.105 1_455 S
Sc0 O13 2.105 . S
Sc0 O16 2.105 1_455 S
Sc0 O19 2.105 . S
Sc1 O3 2.025 . S
Sc1 O11 2.105 . S
Sc1 O15 2.105 . S
Sc1 O17 2.105 . S
Sc1 O21 2.105 . S
Sc2 O3 2.025 1_655 S
Sc2 O12 2.105 . S
Sc2 O14 2.105 . S
Sc2 O18 2.105 . S
Sc2 O20 2.105 . S
O3 Sc0 2.025 . S
O3 Sc1 2.025 . S
O3 Sc2 2.025 1_455 S
C4 O10 1.268 . S
C4 O20 1.268 . S
C5 O11 1.268 . S
C5 O19 1.268 . S
C6 O12 1.268 1_455 S
C6 O21 1.268 . S
C7 O13 1.268 . S
C7 O17 1.268 . S
C8 O14 1.268 . S
C8 O16 1.268 . S
C9 O15 1.268 . S
C9 O18 1.268 1_455 S
O10 Sc0 2.105 1_655 S
O10 C4 1.268 . S
O11 Sc1 2.105 . S
O11 C5 1.268 . S
O12 Sc2 2.105 . S
O12 C6 1.268 1_655 S
O13 Sc0 2.105 . S
O13 C7 1.268 . S
O14 Sc2 2.105 . S
O14 C8 1.268 . S
O15 Sc1 2.105 . S
O15 C9 1.268 . S
O16 Sc0 2.105 1_655 S
O16 C8 1.268 . S
O17 Sc1 2.105 . S
O17 C7 1.268 . S
O18 Sc2 2.105 . S
O18 C9 1.268 1_655 S
O19 Sc0 2.105 . S
O19 C5 1.268 . S
O20 Sc2 2.105 . S
O20 C4 1.268 . S
O21 Sc1 2.105 . S
O21 C6 1.268 . S
Sc22 O25 2.025 . S
Sc22 O32 2.105 . S
Sc22 O35 2.105 1_545 S
Sc22 O38 2.105 . S
Sc22 O41 2.105 1_545 S
Sc23 O25 2.025 1_565 S
Sc23 O33 2.105 . S
Sc23 O37 2.105 . S
Sc23 O39 2.105 . S
Sc23 O43 2.105 . S
Sc24 O25 2.025 . S
Sc24 O34 2.105 . S
Sc24 O36 2.105 . S
Sc24 O40 2.105 . S
Sc24 O42 2.105 . S
O25 Sc22 2.025 . S
O25 Sc23 2.025 1_545 S
O25 Sc24 2.025 . S
C26 O32 1.268 . S
C26 O42 1.268 . S
C27 O33 1.268 . S
C27 O41 1.268 . S
C28 O34 1.268 . S
C28 O43 1.268 1_545 S
C29 O35 1.268 . S
C29 O39 1.268 . S
C30 O36 1.268 . S
C30 O38 1.268 . S
C31 O37 1.268 1_545 S
C31 O40 1.268 . S
O32 Sc22 2.105 . S
O32 C26 1.268 . S
O33 Sc23 2.105 . S
O33 C27 1.268 . S
O34 Sc24 2.105 . S
O34 C28 1.268 . S
O35 Sc22 2.105 1_565 S
O35 C29 1.268 . S
O36 Sc24 2.105 . S
O36 C30 1.268 . S
O37 Sc23 2.105 . S
O37 C31 1.268 1_565 S
O38 Sc22 2.105 . S
O38 C30 1.268 . S
O39 Sc23 2.105 . S
O39 C29 1.268 . S
O40 Sc24 2.105 . S
O40 C31 1.268 . S
O41 Sc22 2.105 1_565 S
O41 C27 1.268 . S
O42 Sc24 2.105 . S
O42 C26 1.268 . S
O43 Sc23 2.105 . S
O43 C28 1.268 1_565 S
Sc44 O47 2.025 . S
Sc44 O54 2.105 . S
Sc44 O57 2.105 1_455 S
Sc44 O60 2.105 . S
Sc44 O63 2.105 1_455 S
Sc45 O47 2.025 1_655 S
Sc45 O55 2.105 . S
Sc45 O59 2.105 . S
Sc45 O61 2.105 . S
Sc45 O65 2.105 . S
Sc46 O47 2.025 . S
Sc46 O56 2.105 . S
Sc46 O58 2.105 . S
Sc46 O62 2.105 . S
Sc46 O64 2.105 . S
O47 Sc44 2.025 . S
O47 Sc45 2.025 1_455 S
O47 Sc46 2.025 . S
C48 O54 1.268 . S
C48 O64 1.268 . S
C49 O55 1.268 . S
C49 O63 1.268 . S
C50 O56 1.268 . S
C50 O65 1.268 1_455 S
C51 O57 1.268 . S
C51 O61 1.268 . S
C52 O58 1.268 . S
C52 O60 1.268 . S
C53 O59 1.268 1_455 S
C53 O62 1.268 . S
O54 Sc44 2.105 . S
O54 C48 1.268 . S
O55 Sc45 2.105 . S
O55 C49 1.268 . S
O56 Sc46 2.105 . S
O56 C50 1.268 . S
O57 Sc44 2.105 1_655 S
O57 C51 1.268 . S
O58 Sc46 2.105 . S
O58 C52 1.268 . S
O59 Sc45 2.105 . S
O59 C53 1.268 1_655 S
O60 Sc44 2.105 . S
O60 C52 1.268 . S
O61 Sc45 2.105 . S
O61 C51 1.268 . S
O62 Sc46 2.105 . S
O62 C53 1.268 . S
O63 Sc44 2.105 1_655 S
O63 C49 1.268 . S
O64 Sc46 2.105 . S
O64 C48 1.268 . S
O65 Sc45 2.105 . S
O65 C50 1.268 1_655 S
Sc66 O69 2.025 1_565 S
Sc66 O76 2.105 . S
Sc66 O79 2.105 . S
Sc66 O82 2.105 . S
Sc66 O85 2.105 . S
Sc67 O69 2.025 . S
Sc67 O77 2.105 . S
Sc67 O81 2.105 . S
Sc67 O83 2.105 . S
Sc67 O87 2.105 . S
Sc68 O69 2.025 . S
Sc68 O78 2.105 . S
Sc68 O80 2.105 1_545 S
Sc68 O84 2.105 . S
Sc68 O86 2.105 1_545 S
O69 Sc66 2.025 1_545 S
O69 Sc67 2.025 . S
O69 Sc68 2.025 . S
C70 O76 1.268 . S
C70 O86 1.268 . S
C71 O77 1.268 . S
C71 O85 1.268 1_545 S
C72 O78 1.268 . S
C72 O87 1.268 . S
C73 O79 1.268 1_545 S
C73 O83 1.268 . S
C74 O80 1.268 . S
C74 O82 1.268 . S
C75 O81 1.268 . S
C75 O84 1.268 . S
O76 Sc66 2.105 . S
O76 C70 1.268 . S
O77 Sc67 2.105 . S
O77 C71 1.268 . S
O78 Sc68 2.105 . S
O78 C72 1.268 . S
O79 Sc66 2.105 . S
O79 C73 1.268 1_565 S
O80 Sc68 2.105 1_565 S
O80 C74 1.268 . S
O81 Sc67 2.105 . S
O81 C75 1.268 . S
O82 Sc66 2.105 . S
O82 C74 1.268 . S
O83 Sc67 2.105 . S
O83 C73 1.268 . S
O84 Sc68 2.105 . S
O84 C75 1.268 . S
O85 Sc66 2.105 . S
O85 C71 1.268 1_565 S
O86 Sc68 2.105 1_565 S
O86 C70 1.268 . S
O87 Sc67 2.105 . S
O87 C72 1.268 . S
Sc88 O91 2.025 . S
Sc88 O98 2.105 . S
Sc88 O101 2.105 . S
Sc88 O104 2.105 . S
Sc88 O107 2.105 . S
Sc89 O91 2.025 1_655 S
Sc89 O99 2.105 . S
Sc89 O103 2.105 . S
Sc89 O105 2.105 . S
Sc89 O109 2.105 . S
Sc90 O91 2.025 . S
Sc90 O100 2.105 1_455 S
Sc90 O102 2.105 . S
Sc90 O106 2.105 1_455 S
Sc90 O108 2.105 . S
O91 Sc88 2.025 . S
O91 Sc89 2.025 1_455 S
O91 Sc90 2.025 . S
C92 O98 1.268 . S
C92 O108 1.268 . S
C93 O99 1.268 1_455 S
C93 O107 1.268 . S
C94 O100 1.268 . S
C94 O109 1.268 . S
C95 O101 1.268 . S
C95 O105 1.268 1_455 S
C96 O102 1.268 . S
C96 O104 1.268 . S
C97 O103 1.268 . S
C97 O106 1.268 . S
O98 Sc88 2.105 . S
O98 C92 1.268 . S
O99 Sc89 2.105 . S
O99 C93 1.268 1_655 S
O100 Sc90 2.105 1_655 S
O100 C94 1.268 . S
O101 Sc88 2.105 . S
O101 C95 1.268 . S
O102 Sc90 2.105 . S
O102 C96 1.268 . S
O103 Sc89 2.105 . S
O103 C97 1.268 . S
O104 Sc88 2.105 . S
O104 C96 1.268 . S
O105 Sc89 2.105 . S
O105 C95 1.268 1_655 S
O106 Sc90 2.105 1_655 S
O106 C97 1.268 . S
O107 Sc88 2.105 . S
O107 C93 1.268 . S
O108 Sc90 2.105 . S
O108 C92 1.268 . S
O109 Sc89 2.105 . S
O109 C94 1.268 . S
Sc110 O113 2.025 1_565 S
Sc110 O120 2.105 . S
Sc110 O123 2.105 . S
Sc110 O126 2.105 . S
Sc110 O129 2.105 . S
Sc111 O113 2.025 . S
Sc111 O121 2.105 . S
Sc111 O125 2.105 . S
Sc111 O127 2.105 . S
Sc111 O131 2.105 . S
Sc112 O113 2.025 . S
Sc112 O122 2.105 . S
Sc112 O124 2.105 1_545 S
Sc112 O128 2.105 . S
Sc112 O130 2.105 1_545 S
O113 Sc110 2.025 1_545 S
O113 Sc111 2.025 . S
O113 Sc112 2.025 . S
C114 O120 1.268 . S
C114 O130 1.268 . S
C115 O121 1.268 . S
C115 O129 1.268 1_545 S
C116 O122 1.268 . S
C116 O131 1.268 . S
C117 O123 1.268 1_545 S
C117 O127 1.268 . S
C118 O124 1.268 . S
C118 O126 1.268 . S
C119 O125 1.268 . S
C119 O128 1.268 . S
O120 Sc110 2.105 . S
O120 C114 1.268 . S
O121 Sc111 2.105 . S
O121 C115 1.268 . S
O122 Sc112 2.105 . S
O122 C116 1.268 . S
O123 Sc110 2.105 . S
O123 C117 1.268 1_565 S
O124 Sc112 2.105 1_565 S
O124 C118 1.268 . S
O125 Sc111 2.105 . S
O125 C119 1.268 . S
O126 Sc110 2.105 . S
O126 C118 1.268 . S
O127 Sc111 2.105 . S
O127 C117 1.268 . S
O128 Sc112 2.105 . S
O128 C119 1.268 . S
O129 Sc110 2.105 . S
O129 C115 1.268 1_565 S
O130 Sc112 2.105 1_565 S
O130 C114 1.268 . S
O131 Sc111 2.105 . S
O131 C116 1.268 . S
Sc132 O135 2.025 . S
Sc132 O142 2.105 1_455 S
Sc132 O145 2.105 . S
Sc132 O148 2.105 1_455 S
Sc132 O151 2.105 . S
Sc133 O135 2.025 . S
Sc133 O143 2.105 . S
Sc133 O147 2.105 . S
Sc133 O149 2.105 . S
Sc133 O153 2.105 . S
Sc134 O135 2.025 1_655 S
Sc134 O144 2.105 . S
Sc134 O146 2.105 . S
Sc134 O150 2.105 . S
Sc134 O152 2.105 . S
O135 Sc132 2.025 . S
O135 Sc133 2.025 . S
O135 Sc134 2.025 1_455 S
C136 O142 1.268 . S
C136 O152 1.268 . S
C137 O143 1.268 . S
C137 O151 1.268 . S
C138 O144 1.268 1_455 S
C138 O153 1.268 . S
C139 O145 1.268 . S
C139 O149 1.268 . S
C140 O146 1.268 . S
C140 O148 1.268 . S
C141 O147 1.268 . S
C141 O150 1.268 1_455 S
O142 Sc132 2.105 1_655 S
O142 C136 1.268 . S
O143 Sc133 2.105 . S
O143 C137 1.268 . S
O144 Sc134 2.105 . S
O144 C138 1.268 1_655 S
O145 Sc132 2.105 . S
O145 C139 1.268 . S
O146 Sc134 2.105 . S
O146 C140 1.268 . S
O147 Sc133 2.105 . S
O147 C141 1.268 . S
O148 Sc132 2.105 1_655 S
O148 C140 1.268 . S
O149 Sc133 2.105 . S
O149 C139 1.268 . S
O150 Sc134 2.105 . S
O150 C141 1.268 1_655 S
O151 Sc132 2.105 . S
O151 C137 1.268 . S
O152 Sc134 2.105 . S
O152 C136 1.268 . S
O153 Sc133 2.105 . S
O153 C138 1.268 . S
Sc154 O157 2.025 . S
Sc154 O164 2.105 . S
Sc154 O167 2.105 . S
Sc154 O170 2.105 . S
Sc154 O173 2.105 . S
Sc155 O157 2.025 1_565 S
Sc155 O165 2.105 . S
Sc155 O169 2.105 . S
Sc155 O171 2.105 . S
Sc155 O175 2.105 . S
Sc156 O157 2.025 . S
Sc156 O166 2.105 1_545 S
Sc156 O168 2.105 . S
Sc156 O172 2.105 1_545 S
Sc156 O174 2.105 . S
O157 Sc154 2.025 . S
O157 Sc155 2.025 1_545 S
O157 Sc156 2.025 . S
C158 O164 1.268 . S
C158 O174 1.268 . S
C159 O165 1.268 1_545 S
C159 O173 1.268 . S
C160 O166 1.268 . S
C160 O175 1.268 . S
C161 O167 1.268 . S
C161 O171 1.268 1_545 S
C162 O168 1.268 . S
C162 O170 1.268 . S
C163 O169 1.268 . S
C163 O172 1.268 . S
O164 Sc154 2.105 . S
O164 C158 1.268 . S
O165 Sc155 2.105 . S
O165 C159 1.268 1_565 S
O166 Sc156 2.105 1_565 S
O166 C160 1.268 . S
O167 Sc154 2.105 . S
O167 C161 1.268 . S
O168 Sc156 2.105 . S
O168 C162 1.268 . S
O169 Sc155 2.105 . S
O169 C163 1.268 . S
O170 Sc154 2.105 . S
O170 C162 1.268 . S
O171 Sc155 2.105 . S
O171 C161 1.268 1_565 S
O172 Sc156 2.105 1_565 S
O172 C163 1.268 . S
O173 Sc154 2.105 . S
O173 C159 1.268 . S
O174 Sc156 2.105 . S
O174 C158 1.268 . S
O175 Sc155 2.105 . S
O175 C160 1.268 . S
Sc176 O179 2.025 1_556 S
Sc176 O186 2.105 . S
Sc176 O189 2.105 . S
Sc176 O192 2.105 . S
Sc176 O195 2.105 . S
Sc177 O179 2.025 . S
Sc177 O187 2.105 . S
Sc177 O191 2.105 . S
Sc177 O193 2.105 . S
Sc177 O197 2.105 . S
Sc178 O179 2.025 . S
Sc178 O188 2.105 . S
Sc178 O190 2.105 1_554 S
Sc178 O194 2.105 . S
Sc178 O196 2.105 1_554 S
O179 Sc176 2.025 1_554 S
O179 Sc177 2.025 . S
O179 Sc178 2.025 . S
C180 O186 1.268 . S
C180 O196 1.268 . S
C181 O187 1.268 . S
C181 O195 1.268 1_554 S
C182 O188 1.268 . S
C182 O197 1.268 . S
C183 O189 1.268 1_554 S
C183 O193 1.268 . S
C184 O190 1.268 . S
C184 O192 1.268 . S
C185 O191 1.268 . S
C185 O194 1.268 . S
O186 Sc176 2.105 . S
O186 C180 1.268 . S
O187 Sc177 2.105 . S
O187 C181 1.268 . S
O188 Sc178 2.105 . S
O188 C182 1.268 . S
O189 Sc176 2.105 . S
O189 C183 1.268 1_556 S
O190 Sc178 2.105 1_556 S
O190 C184 1.268 . S
O191 Sc177 2.105 . S
O191 C185 1.268 . S
O192 Sc176 2.105 . S
O192 C184 1.268 . S
O193 Sc177 2.105 . S
O193 C183 1.268 . S
O194 Sc178 2.105 . S
O194 C185 1.268 . S
O195 Sc176 2.105 . S
O195 C181 1.268 1_556 S
O196 Sc178 2.105 1_556 S
O196 C180 1.268 . S
O197 Sc177 2.105 . S
O197 C182 1.268 . S
Sc198 O201 2.025 . S
Sc198 O208 2.105 . S
Sc198 O211 2.105 1_554 S
Sc198 O214 2.105 . S
Sc198 O217 2.105 1_554 S
Sc199 O201 2.025 1_556 S
Sc199 O209 2.105 . S
Sc199 O213 2.105 . S
Sc199 O215 2.105 . S
Sc199 O219 2.105 . S
Sc200 O201 2.025 . S
Sc200 O210 2.105 . S
Sc200 O212 2.105 . S
Sc200 O216 2.105 . S
Sc200 O218 2.105 . S
O201 Sc198 2.025 . S
O201 Sc199 2.025 1_554 S
O201 Sc200 2.025 . S
C202 O208 1.268 . S
C202 O218 1.268 . S
C203 O209 1.268 . S
C203 O217 1.268 . S
C204 O210 1.268 . S
C204 O219 1.268 1_554 S
C205 O211 1.268 . S
C205 O215 1.268 . S
C206 O212 1.268 . S
C206 O214 1.268 . S
C207 O213 1.268 1_554 S
C207 O216 1.268 . S
O208 Sc198 2.105 . S
O208 C202 1.268 . S
O209 Sc199 2.105 . S
O209 C203 1.268 . S
O210 Sc200 2.105 . S
O210 C204 1.268 . S
O211 Sc198 2.105 1_556 S
O211 C205 1.268 . S
O212 Sc200 2.105 . S
O212 C206 1.268 . S
O213 Sc199 2.105 . S
O213 C207 1.268 1_556 S
O214 Sc198 2.105 . S
O214 C206 1.268 . S
O215 Sc199 2.105 . S
O215 C205 1.268 . S
O216 Sc200 2.105 . S
O216 C207 1.268 . S
O217 Sc198 2.105 1_556 S
O217 C203 1.268 . S
O218 Sc200 2.105 . S
O218 C202 1.268 . S
O219 Sc199 2.105 . S
O219 C204 1.268 1_556 S
Sc220 O223 2.025 . S
Sc220 O230 2.105 1_554 S
Sc220 O233 2.105 . S
Sc220 O236 2.105 1_554 S
Sc220 O239 2.105 . S
Sc221 O223 2.025 . S
Sc221 O231 2.105 . S
Sc221 O235 2.105 . S
Sc221 O237 2.105 . S
Sc221 O241 2.105 . S
Sc222 O223 2.025 1_556 S
Sc222 O232 2.105 . S
Sc222 O234 2.105 . S
Sc222 O238 2.105 . S
Sc222 O240 2.105 . S
O223 Sc220 2.025 . S
O223 Sc221 2.025 . S
O223 Sc222 2.025 1_554 S
C224 O230 1.268 . S
C224 O240 1.268 . S
C225 O231 1.268 . S
C225 O239 1.268 . S
C226 O232 1.268 1_554 S
C226 O241 1.268 . S
C227 O233 1.268 . S
C227 O237 1.268 . S
C228 O234 1.268 . S
C228 O236 1.268 . S
C229 O235 1.268 . S
C229 O238 1.268 1_554 S
O230 Sc220 2.105 1_556 S
O230 C224 1.268 . S
O231 Sc221 2.105 . S
O231 C225 1.268 . S
O232 Sc222 2.105 . S
O232 C226 1.268 1_556 S
O233 Sc220 2.105 . S
O233 C227 1.268 . S
O234 Sc222 2.105 . S
O234 C228 1.268 . S
O235 Sc221 2.105 . S
O235 C229 1.268 . S
O236 Sc220 2.105 1_556 S
O236 C228 1.268 . S
O237 Sc221 2.105 . S
O237 C227 1.268 . S
O238 Sc222 2.105 . S
O238 C229 1.268 1_556 S
O239 Sc220 2.105 . S
O239 C225 1.268 . S
O240 Sc222 2.105 . S
O240 C224 1.268 . S
O241 Sc221 2.105 . S
O241 C226 1.268 . S
Sc242 O245 2.025 . S
Sc242 O252 2.105 . S
Sc242 O255 2.105 . S
Sc242 O258 2.105 . S
Sc242 O261 2.105 . S
Sc243 O245 2.025 1_556 S
Sc243 O253 2.105 . S
Sc243 O257 2.105 . S
Sc243 O259 2.105 . S
Sc243 O263 2.105 . S
Sc244 O245 2.025 . S
Sc244 O254 2.105 1_554 S
Sc244 O256 2.105 . S
Sc244 O260 2.105 1_554 S
Sc244 O262 2.105 . S
O245 Sc242 2.025 . S
O245 Sc243 2.025 1_554 S
O245 Sc244 2.025 . S
C246 O252 1.268 . S
C246 O262 1.268 . S
C247 O253 1.268 1_554 S
C247 O261 1.268 . S
C248 O254 1.268 . S
C248 O263 1.268 . S
C249 O255 1.268 . S
C249 O259 1.268 1_554 S
C250 O256 1.268 . S
C250 O258 1.268 . S
C251 O257 1.268 . S
C251 O260 1.268 . S
O252 Sc242 2.105 . S
O252 C246 1.268 . S
O253 Sc243 2.105 . S
O253 C247 1.268 1_556 S
O254 Sc244 2.105 1_556 S
O254 C248 1.268 . S
O255 Sc242 2.105 . S
O255 C249 1.268 . S
O256 Sc244 2.105 . S
O256 C250 1.268 . S
O257 Sc243 2.105 . S
O257 C251 1.268 . S
O258 Sc242 2.105 . S
O258 C250 1.268 . S
O259 Sc243 2.105 . S
O259 C249 1.268 1_556 S
O260 Sc244 2.105 1_556 S
O260 C251 1.268 . S
O261 Sc242 2.105 . S
O261 C247 1.268 . S
O262 Sc244 2.105 . S
O262 C246 1.268 . S
O263 Sc243 2.105 . S
O263 C248 1.268 . S
Sc264 O267 2.025 . S
Sc264 O274 2.105 . S
Sc264 O277 2.105 . S
Sc264 O280 2.105 . S
Sc264 O283 2.105 . S
Sc265 O267 2.025 . S
Sc265 O275 2.105 . S
Sc265 O279 2.105 . S
Sc265 O281 2.105 . S
Sc265 O285 2.105 . S
Sc266 O267 2.025 . S
Sc266 O276 2.105 . S
Sc266 O278 2.105 . S
Sc266 O282 2.105 . S
Sc266 O284 2.105 . S
O267 Sc264 2.025 . S
O267 Sc265 2.025 . S
O267 Sc266 2.025 . S
C268 O274 1.268 . S
C268 O284 1.268 . S
C269 O275 1.268 . S
C269 O283 1.268 . S
C270 O276 1.268 . S
C270 O285 1.268 . S
C271 O277 1.268 . S
C271 O281 1.268 . S
C272 O278 1.268 . S
C272 O280 1.268 . S
C273 O279 1.268 . S
C273 O282 1.268 . S
O274 Sc264 2.105 . S
O274 C268 1.268 . S
O275 Sc265 2.105 . S
O275 C269 1.268 . S
O276 Sc266 2.105 . S
O276 C270 1.268 . S
O277 Sc264 2.105 . S
O277 C271 1.268 . S
O278 Sc266 2.105 . S
O278 C272 1.268 . S
O279 Sc265 2.105 . S
O279 C273 1.268 . S
O280 Sc264 2.105 . S
O280 C272 1.268 . S
O281 Sc265 2.105 . S
O281 C271 1.268 . S
O282 Sc266 2.105 . S
O282 C273 1.268 . S
O283 Sc264 2.105 . S
O283 C269 1.268 . S
O284 Sc266 2.105 . S
O284 C268 1.268 . S
O285 Sc265 2.105 . S
O285 C270 1.268 . S
Sc286 O289 2.025 . S
Sc286 O296 2.105 . S
Sc286 O299 2.105 . S
Sc286 O302 2.105 . S
Sc286 O305 2.105 . S
Sc287 O289 2.025 . S
Sc287 O297 2.105 . S
Sc287 O301 2.105 . S
Sc287 O303 2.105 . S
Sc287 O307 2.105 . S
Sc288 O289 2.025 . S
Sc288 O298 2.105 . S
Sc288 O300 2.105 . S
Sc288 O304 2.105 . S
Sc288 O306 2.105 . S
O289 Sc286 2.025 . S
O289 Sc287 2.025 . S
O289 Sc288 2.025 . S
C290 O296 1.268 . S
C290 O306 1.268 . S
C291 O297 1.268 . S
C291 O305 1.268 . S
C292 O298 1.268 . S
C292 O307 1.268 . S
C293 O299 1.268 . S
C293 O303 1.268 . S
C294 O300 1.268 . S
C294 O302 1.268 . S
C295 O301 1.268 . S
C295 O304 1.268 . S
O296 Sc286 2.105 . S
O296 C290 1.268 . S
O297 Sc287 2.105 . S
O297 C291 1.268 . S
O298 Sc288 2.105 . S
O298 C292 1.268 . S
O299 Sc286 2.105 . S
O299 C293 1.268 . S
O300 Sc288 2.105 . S
O300 C294 1.268 . S
O301 Sc287 2.105 . S
O301 C295 1.268 . S
O302 Sc286 2.105 . S
O302 C294 1.268 . S
O303 Sc287 2.105 . S
O303 C293 1.268 . S
O304 Sc288 2.105 . S
O304 C295 1.268 . S
O305 Sc286 2.105 . S
O305 C291 1.268 . S
O306 Sc288 2.105 . S
O306 C290 1.268 . S
O307 Sc287 2.105 . S
O307 C292 1.268 . S
Sc308 O311 2.025 . S
Sc308 O318 2.105 . S
Sc308 O321 2.105 . S
Sc308 O324 2.105 . S
Sc308 O327 2.105 . S
Sc309 O311 2.025 . S
Sc309 O319 2.105 . S
Sc309 O323 2.105 . S
Sc309 O325 2.105 . S
Sc309 O329 2.105 . S
Sc310 O311 2.025 . S
Sc310 O320 2.105 . S
Sc310 O322 2.105 . S
Sc310 O326 2.105 . S
Sc310 O328 2.105 . S
O311 Sc308 2.025 . S
O311 Sc309 2.025 . S
O311 Sc310 2.025 . S
C312 O318 1.268 . S
C312 O328 1.268 . S
C313 O319 1.268 . S
C313 O327 1.268 . S
C314 O320 1.268 . S
C314 O329 1.268 . S
C315 O321 1.268 . S
C315 O325 1.268 . S
C316 O322 1.268 . S
C316 O324 1.268 . S
C317 O323 1.268 . S
C317 O326 1.268 . S
O318 Sc308 2.105 . S
O318 C312 1.268 . S
O319 Sc309 2.105 . S
O319 C313 1.268 . S
O320 Sc310 2.105 . S
O320 C314 1.268 . S
O321 Sc308 2.105 . S
O321 C315 1.268 . S
O322 Sc310 2.105 . S
O322 C316 1.268 . S
O323 Sc309 2.105 . S
O323 C317 1.268 . S
O324 Sc308 2.105 . S
O324 C316 1.268 . S
O325 Sc309 2.105 . S
O325 C315 1.268 . S
O326 Sc310 2.105 . S
O326 C317 1.268 . S
O327 Sc308 2.105 . S
O327 C313 1.268 . S
O328 Sc310 2.105 . S
O328 C312 1.268 . S
O329 Sc309 2.105 . S
O329 C314 1.268 . S
Sc330 O333 2.025 . S
Sc330 O340 2.105 . S
Sc330 O343 2.105 . S
Sc330 O346 2.105 . S
Sc330 O349 2.105 . S
Sc331 O333 2.025 . S
Sc331 O341 2.105 . S
Sc331 O345 2.105 . S
Sc331 O347 2.105 . S
Sc331 O351 2.105 . S
Sc332 O333 2.025 . S
Sc332 O342 2.105 . S
Sc332 O344 2.105 . S
Sc332 O348 2.105 . S
Sc332 O350 2.105 . S
O333 Sc330 2.025 . S
O333 Sc331 2.025 . S
O333 Sc332 2.025 . S
C334 O340 1.268 . S
C334 O350 1.268 . S
C335 O341 1.268 . S
C335 O349 1.268 . S
C336 O342 1.268 . S
C336 O351 1.268 . S
C337 O343 1.268 . S
C337 O347 1.268 . S
C338 O344 1.268 . S
C338 O346 1.268 . S
C339 O345 1.268 . S
C339 O348 1.268 . S
O340 Sc330 2.105 . S
O340 C334 1.268 . S
O341 Sc331 2.105 . S
O341 C335 1.268 . S
O342 Sc332 2.105 . S
O342 C336 1.268 . S
O343 Sc330 2.105 . S
O343 C337 1.268 . S
O344 Sc332 2.105 . S
O344 C338 1.268 . S
O345 Sc331 2.105 . S
O345 C339 1.268 . S
O346 Sc330 2.105 . S
O346 C338 1.268 . S
O347 Sc331 2.105 . S
O347 C337 1.268 . S
O348 Sc332 2.105 . S
O348 C339 1.268 . S
O349 Sc330 2.105 . S
O349 C335 1.268 . S
O350 Sc332 2.105 . S
O350 C334 1.268 . S
O351 Sc331 2.105 . S
O351 C336 1.268 . S
Sc352 O355 2.025 . S
Sc352 O362 2.105 . S
Sc352 O365 2.105 . S
Sc352 O368 2.105 . S
Sc352 O371 2.105 . S
Sc353 O355 2.025 . S
Sc353 O363 2.105 . S
Sc353 O367 2.105 . S
Sc353 O369 2.105 . S
Sc353 O373 2.105 . S
Sc354 O355 2.025 . S
Sc354 O364 2.105 . S
Sc354 O366 2.105 . S
Sc354 O370 2.105 . S
Sc354 O372 2.105 . S
O355 Sc352 2.025 . S
O355 Sc353 2.025 . S
O355 Sc354 2.025 . S
C356 O362 1.268 . S
C356 O372 1.268 . S
C357 O363 1.268 . S
C357 O371 1.268 . S
C358 O364 1.268 . S
C358 O373 1.268 . S
C359 O365 1.268 . S
C359 O369 1.268 . S
C360 O366 1.268 . S
C360 O368 1.268 . S
C361 O367 1.268 . S
C361 O370 1.268 . S
O362 Sc352 2.105 . S
O362 C356 1.268 . S
O363 Sc353 2.105 . S
O363 C357 1.268 . S
O364 Sc354 2.105 . S
O364 C358 1.268 . S
O365 Sc352 2.105 . S
O365 C359 1.268 . S
O366 Sc354 2.105 . S
O366 C360 1.268 . S
O367 Sc353 2.105 . S
O367 C361 1.268 . S
O368 Sc352 2.105 . S
O368 C360 1.268 . S
O369 Sc353 2.105 . S
O369 C359 1.268 . S
O370 Sc354 2.105 . S
O370 C361 1.268 . S
O371 Sc352 2.105 . S
O371 C357 1.268 . S
O372 Sc354 2.105 . S
O372 C356 1.268 . S
O373 Sc353 2.105 . S
O373 C358 1.268 . S
Sc374 O377 2.025 . S
Sc374 O384 2.105 . S
Sc374 O387 2.105 . S
Sc374 O390 2.105 . S
Sc374 O393 2.105 . S
Sc375 O377 2.025 . S
Sc375 O385 2.105 . S
Sc375 O389 2.105 . S
Sc375 O391 2.105 . S
Sc375 O395 2.105 . S
Sc376 O377 2.025 . S
Sc376 O386 2.105 . S
Sc376 O388 2.105 . S
Sc376 O392 2.105 . S
Sc376 O394 2.105 . S
O377 Sc374 2.025 . S
O377 Sc375 2.025 . S
O377 Sc376 2.025 . S
C378 O384 1.268 . S
C378 O394 1.268 . S
C379 O385 1.268 . S
C379 O393 1.268 . S
C380 O386 1.268 . S
C380 O395 1.268 . S
C381 O387 1.268 . S
C381 O391 1.268 . S
C382 O388 1.268 . S
C382 O390 1.268 . S
C383 O389 1.268 . S
C383 O392 1.268 . S
O384 Sc374 2.105 . S
O384 C378 1.268 . S
O385 Sc375 2.105 . S
O385 C379 1.268 . S
O386 Sc376 2.105 . S
O386 C380 1.268 . S
O387 Sc374 2.105 . S
O387 C381 1.268 . S
O388 Sc376 2.105 . S
O388 C382 1.268 . S
O389 Sc375 2.105 . S
O389 C383 1.268 . S
O390 Sc374 2.105 . S
O390 C382 1.268 . S
O391 Sc375 2.105 . S
O391 C381 1.268 . S
O392 Sc376 2.105 . S
O392 C383 1.268 . S
O393 Sc374 2.105 . S
O393 C379 1.268 . S
O394 Sc376 2.105 . S
O394 C378 1.268 . S
O395 Sc375 2.105 . S
O395 C380 1.268 . S
Sc396 O399 2.025 . S
Sc396 O406 2.105 . S
Sc396 O409 2.105 . S
Sc396 O412 2.105 . S
Sc396 O415 2.105 . S
Sc397 O399 2.025 . S
Sc397 O407 2.105 . S
Sc397 O411 2.105 . S
Sc397 O413 2.105 . S
Sc397 O417 2.105 . S
Sc398 O399 2.025 . S
Sc398 O408 2.105 . S
Sc398 O410 2.105 . S
Sc398 O414 2.105 . S
Sc398 O416 2.105 . S
O399 Sc396 2.025 . S
O399 Sc397 2.025 . S
O399 Sc398 2.025 . S
C400 O406 1.268 . S
C400 O416 1.268 . S
C401 O407 1.268 . S
C401 O415 1.268 . S
C402 O408 1.268 . S
C402 O417 1.268 . S
C403 O409 1.268 . S
C403 O413 1.268 . S
C404 O410 1.268 . S
C404 O412 1.268 . S
C405 O411 1.268 . S
C405 O414 1.268 . S
O406 Sc396 2.105 . S
O406 C400 1.268 . S
O407 Sc397 2.105 . S
O407 C401 1.268 . S
O408 Sc398 2.105 . S
O408 C402 1.268 . S
O409 Sc396 2.105 . S
O409 C403 1.268 . S
O410 Sc398 2.105 . S
O410 C404 1.268 . S
O411 Sc397 2.105 . S
O411 C405 1.268 . S
O412 Sc396 2.105 . S
O412 C404 1.268 . S
O413 Sc397 2.105 . S
O413 C403 1.268 . S
O414 Sc398 2.105 . S
O414 C405 1.268 . S
O415 Sc396 2.105 . S
O415 C401 1.268 . S
O416 Sc398 2.105 . S
O416 C400 1.268 . S
O417 Sc397 2.105 . S
O417 C402 1.268 . S
Sc418 O421 2.025 . S
Sc418 O428 2.105 . S
Sc418 O431 2.105 . S
Sc418 O434 2.105 . S
Sc418 O437 2.105 . S
Sc419 O421 2.025 . S
Sc419 O429 2.105 . S
Sc419 O433 2.105 . S
Sc419 O435 2.105 . S
Sc419 O439 2.105 . S
Sc420 O421 2.025 . S
Sc420 O430 2.105 . S
Sc420 O432 2.105 . S
Sc420 O436 2.105 . S
Sc420 O438 2.105 . S
O421 Sc418 2.025 . S
O421 Sc419 2.025 . S
O421 Sc420 2.025 . S
C422 O428 1.268 . S
C422 O438 1.268 . S
C423 O429 1.268 . S
C423 O437 1.268 . S
C424 O430 1.268 . S
C424 O439 1.268 . S
C425 O431 1.268 . S
C425 O435 1.268 . S
C426 O432 1.268 . S
C426 O434 1.268 . S
C427 O433 1.268 . S
C427 O436 1.268 . S
O428 Sc418 2.105 . S
O428 C422 1.268 . S
O429 Sc419 2.105 . S
O429 C423 1.268 . S
O430 Sc420 2.105 . S
O430 C424 1.268 . S
O431 Sc418 2.105 . S
O431 C425 1.268 . S
O432 Sc420 2.105 . S
O432 C426 1.268 . S
O433 Sc419 2.105 . S
O433 C427 1.268 . S
O434 Sc418 2.105 . S
O434 C426 1.268 . S
O435 Sc419 2.105 . S
O435 C425 1.268 . S
O436 Sc420 2.105 . S
O436 C427 1.268 . S
O437 Sc418 2.105 . S
O437 C423 1.268 . S
O438 Sc420 2.105 . S
O438 C422 1.268 . S
O439 Sc419 2.105 . S
O439 C424 1.268 . S
Sc440 O443 2.025 . S
Sc440 O450 2.105 . S
Sc440 O453 2.105 . S
Sc440 O456 2.105 . S
Sc440 O459 2.105 . S
Sc441 O443 2.025 . S
Sc441 O451 2.105 . S
Sc441 O455 2.105 . S
Sc441 O457 2.105 . S
Sc441 O461 2.105 . S
Sc442 O443 2.025 . S
Sc442 O452 2.105 . S
Sc442 O454 2.105 . S
Sc442 O458 2.105 . S
Sc442 O460 2.105 . S
O443 Sc440 2.025 . S
O443 Sc441 2.025 . S
O443 Sc442 2.025 . S
C444 O450 1.268 . S
C444 O460 1.268 . S
C445 O451 1.268 . S
C445 O459 1.268 . S
C446 O452 1.268 . S
C446 O461 1.268 . S
C447 O453 1.268 . S
C447 O457 1.268 . S
C448 O454 1.268 . S
C448 O456 1.268 . S
C449 O455 1.268 . S
C449 O458 1.268 . S
O450 Sc440 2.105 . S
O450 C444 1.268 . S
O451 Sc441 2.105 . S
O451 C445 1.268 . S
O452 Sc442 2.105 . S
O452 C446 1.268 . S
O453 Sc440 2.105 . S
O453 C447 1.268 . S
O454 Sc442 2.105 . S
O454 C448 1.268 . S
O455 Sc441 2.105 . S
O455 C449 1.268 . S
O456 Sc440 2.105 . S
O456 C448 1.268 . S
O457 Sc441 2.105 . S
O457 C447 1.268 . S
O458 Sc442 2.105 . S
O458 C449 1.268 . S
O459 Sc440 2.105 . S
O459 C445 1.268 . S
O460 Sc442 2.105 . S
O460 C444 1.268 . S
O461 Sc441 2.105 . S
O461 C446 1.268 . S
Sc462 O465 2.025 . S
Sc462 O472 2.105 . S
Sc462 O475 2.105 . S
Sc462 O478 2.105 . S
Sc462 O481 2.105 . S
Sc463 O465 2.025 . S
Sc463 O473 2.105 . S
Sc463 O477 2.105 . S
Sc463 O479 2.105 . S
Sc463 O483 2.105 . S
Sc464 O465 2.025 . S
Sc464 O474 2.105 . S
Sc464 O476 2.105 . S
Sc464 O480 2.105 . S
Sc464 O482 2.105 . S
O465 Sc462 2.025 . S
O465 Sc463 2.025 . S
O465 Sc464 2.025 . S
C466 O472 1.268 . S
C466 O482 1.268 . S
C467 O473 1.268 . S
C467 O481 1.268 . S
C468 O474 1.268 . S
C468 O483 1.268 . S
C469 O475 1.268 . S
C469 O479 1.268 . S
C470 O476 1.268 . S
C470 O478 1.268 . S
C471 O477 1.268 . S
C471 O480 1.268 . S
O472 Sc462 2.105 . S
O472 C466 1.268 . S
O473 Sc463 2.105 . S
O473 C467 1.268 . S
O474 Sc464 2.105 . S
O474 C468 1.268 . S
O475 Sc462 2.105 . S
O475 C469 1.268 . S
O476 Sc464 2.105 . S
O476 C470 1.268 . S
O477 Sc463 2.105 . S
O477 C471 1.268 . S
O478 Sc462 2.105 . S
O478 C470 1.268 . S
O479 Sc463 2.105 . S
O479 C469 1.268 . S
O480 Sc464 2.105 . S
O480 C471 1.268 . S
O481 Sc462 2.105 . S
O481 C467 1.268 . S
O482 Sc464 2.105 . S
O482 C466 1.268 . S
O483 Sc463 2.105 . S
O483 C468 1.268 . S
Sc484 O487 2.025 . S
Sc484 O494 2.105 . S
Sc484 O497 2.105 . S
Sc484 O500 2.105 . S
Sc484 O503 2.105 . S
Sc485 O487 2.025 . S
Sc485 O495 2.105 . S
Sc485 O499 2.105 . S
Sc485 O501 2.105 . S
Sc485 O505 2.105 . S
Sc486 O487 2.025 . S
Sc486 O496 2.105 . S
Sc486 O498 2.105 . S
Sc486 O502 2.105 . S
Sc486 O504 2.105 . S
O487 Sc484 2.025 . S
O487 Sc485 2.025 . S
O487 Sc486 2.025 . S
C488 O494 1.268 . S
C488 O504 1.268 . S
C489 O495 1.268 . S
C489 O503 1.268 . S
C490 O496 1.268 . S
C490 O505 1.268 . S
C491 O497 1.268 . S
C491 O501 1.268 . S
C492 O498 1.268 . S
C492 O500 1.268 . S
C493 O499 1.268 . S
C493 O502 1.268 . S
O494 Sc484 2.105 . S
O494 C488 1.268 . S
O495 Sc485 2.105 . S
O495 C489 1.268 . S
O496 Sc486 2.105 . S
O496 C490 1.268 . S
O497 Sc484 2.105 . S
O497 C491 1.268 . S
O498 Sc486 2.105 . S
O498 C492 1.268 . S
O499 Sc485 2.105 . S
O499 C493 1.268 . S
O500 Sc484 2.105 . S
O500 C492 1.268 . S
O501 Sc485 2.105 . S
O501 C491 1.268 . S
O502 Sc486 2.105 . S
O502 C493 1.268 . S
O503 Sc484 2.105 . S
O503 C489 1.268 . S
O504 Sc486 2.105 . S
O504 C488 1.268 . S
O505 Sc485 2.105 . S
O505 C490 1.268 . S
Sc506 O509 2.025 . S
Sc506 O516 2.105 . S
Sc506 O519 2.105 . S
Sc506 O522 2.105 . S
Sc506 O525 2.105 . S
Sc507 O509 2.025 . S
Sc507 O517 2.105 . S
Sc507 O521 2.105 . S
Sc507 O523 2.105 . S
Sc507 O527 2.105 . S
Sc508 O509 2.025 . S
Sc508 O518 2.105 . S
Sc508 O520 2.105 . S
Sc508 O524 2.105 . S
Sc508 O526 2.105 . S
O509 Sc506 2.025 . S
O509 Sc507 2.025 . S
O509 Sc508 2.025 . S
C510 O516 1.268 . S
C510 O526 1.268 . S
C511 O517 1.268 . S
C511 O525 1.268 . S
C512 O518 1.268 . S
C512 O527 1.268 . S
C513 O519 1.268 . S
C513 O523 1.268 . S
C514 O520 1.268 . S
C514 O522 1.268 . S
C515 O521 1.268 . S
C515 O524 1.268 . S
O516 Sc506 2.105 . S
O516 C510 1.268 . S
O517 Sc507 2.105 . S
O517 C511 1.268 . S
O518 Sc508 2.105 . S
O518 C512 1.268 . S
O519 Sc506 2.105 . S
O519 C513 1.268 . S
O520 Sc508 2.105 . S
O520 C514 1.268 . S
O521 Sc507 2.105 . S
O521 C515 1.268 . S
O522 Sc506 2.105 . S
O522 C514 1.268 . S
O523 Sc507 2.105 . S
O523 C513 1.268 . S
O524 Sc508 2.105 . S
O524 C515 1.268 . S
O525 Sc506 2.105 . S
O525 C511 1.268 . S
O526 Sc508 2.105 . S
O526 C510 1.268 . S
O527 Sc507 2.105 . S
O527 C512 1.268 . S
C528 C529 1.366 1_655 S
C528 C530 1.419 . S
C528 H532 0.930 . S
C529 C528 1.366 1_455 S
C529 C538 1.432 . S
C530 C528 1.419 . S
C530 C531 1.360 1_655 S
C530 H533 0.929 . S
C531 C530 1.360 1_455 S
C531 C537 1.431 . S
H532 C528 0.930 . S
H533 C530 0.929 . S
S534 N535 1.613 . S
S534 N536 1.610 . S
N535 S534 1.613 . S
N535 C538 1.350 . S
N536 S534 1.610 . S
N536 C537 1.351 . S
C537 C531 1.431 . S
C537 N536 1.351 . S
C537 C538 1.434 . S
C538 C529 1.432 . S
C538 N535 1.350 . S
C538 C537 1.434 . S
C539 C540 1.357 1_565 S
C539 C541 1.419 . S
C539 H543 0.930 . S
C540 C539 1.357 1_545 S
C540 C549 1.441 . S
C541 C539 1.419 . S
C541 C542 1.354 1_565 S
C541 H544 0.929 . S
C542 C541 1.354 1_545 S
C542 C548 1.438 . S
H543 C539 0.930 . S
H544 C541 0.929 . S
S545 N546 1.613 . S
S545 N547 1.610 . S
N546 S545 1.613 . S
N546 C549 1.350 . S
N547 S545 1.610 . S
N547 C548 1.351 . S
C548 C542 1.438 . S
C548 N547 1.351 . S
C548 C549 1.434 . S
C549 C540 1.441 . S
C549 N546 1.350 . S
C549 C548 1.434 . S
C550 C551 1.369 1_455 S
C550 C552 1.419 . S
C550 H554 0.930 . S
C551 C550 1.369 1_655 S
C551 C560 1.429 . S
C552 C550 1.419 . S
C552 C553 1.363 1_455 S
C552 H555 0.929 . S
C553 C552 1.363 1_655 S
C553 C559 1.428 . S
H554 C550 0.930 . S
H555 C552 0.929 . S
S556 N557 1.613 . S
S556 N558 1.610 . S
N557 S556 1.613 . S
N557 C560 1.350 . S
N558 S556 1.610 . S
N558 C559 1.351 . S
C559 C553 1.428 . S
C559 N558 1.351 . S
C559 C560 1.434 . S
C560 C551 1.429 . S
C560 N557 1.350 . S
C560 C559 1.434 . S
C561 C562 1.365 1_565 S
C561 C563 1.419 . S
C561 H565 0.930 . S
C562 C561 1.365 1_545 S
C562 C571 1.433 . S
C563 C561 1.419 . S
C563 C564 1.360 1_565 S
C563 H566 0.929 . S
C564 C563 1.360 1_545 S
C564 C570 1.432 . S
H565 C561 0.930 . S
H566 C563 0.929 . S
S567 N568 1.613 . S
S567 N569 1.610 . S
N568 S567 1.613 . S
N568 C571 1.350 . S
N569 S567 1.610 . S
N569 C570 1.351 . S
C570 C564 1.432 . S
C570 N569 1.351 . S
C570 C571 1.434 . S
C571 C562 1.433 . S
C571 N568 1.350 . S
C571 C570 1.434 . S
C572 C573 1.362 1_545 S
C572 C574 1.419 . S
C572 H576 0.930 . S
C573 C572 1.362 1_565 S
C573 C582 1.436 . S
C574 C572 1.419 . S
C574 C575 1.359 1_545 S
C574 H577 0.929 . S
C575 C574 1.359 1_565 S
C575 C581 1.433 . S
H576 C572 0.930 . S
H577 C574 0.929 . S
S578 N579 1.613 . S
S578 N580 1.610 . S
N579 S578 1.613 . S
N579 C582 1.350 . S
N580 S578 1.610 . S
N580 C581 1.351 . S
C581 C575 1.433 . S
C581 N580 1.351 . S
C581 C582 1.434 . S
C582 C573 1.436 . S
C582 N579 1.350 . S
C582 C581 1.434 . S
C583 C584 1.363 1_655 S
C583 C585 1.419 . S
C583 H587 0.930 . S
C584 C583 1.363 1_455 S
C584 C593 1.435 . S
C585 C583 1.419 . S
C585 C586 1.358 1_655 S
C585 H588 0.929 . S
C586 C585 1.358 1_455 S
C586 C592 1.434 . S
H587 C583 0.930 . S
H588 C585 0.929 . S
S589 N590 1.613 . S
S589 N591 1.610 . S
N590 S589 1.613 . S
N590 C593 1.350 . S
N591 S589 1.610 . S
N591 C592 1.351 . S
C592 C586 1.434 . S
C592 N591 1.351 . S
C592 C593 1.434 . S
C593 C584 1.435 . S
C593 N590 1.350 . S
C593 C592 1.434 . S
C594 C595 1.359 1_565 S
C594 C596 1.419 . S
C594 H598 0.930 . S
C595 C594 1.359 1_545 S
C595 C604 1.439 . S
C596 C594 1.419 . S
C596 C597 1.356 1_565 S
C596 H599 0.929 . S
C597 C596 1.356 1_545 S
C597 C603 1.436 . S
H598 C594 0.930 . S
H599 C596 0.929 . S
S600 N601 1.613 . S
S600 N602 1.610 . S
N601 S600 1.613 . S
N601 C604 1.350 . S
N602 S600 1.610 . S
N602 C603 1.351 . S
C603 C597 1.436 . S
C603 N602 1.351 . S
C603 C604 1.434 . S
C604 C595 1.439 . S
C604 N601 1.350 . S
C604 C603 1.434 . S
C605 C606 1.370 1_455 S
C605 C607 1.419 . S
C605 H609 0.930 . S
C606 C605 1.370 1_655 S
C606 C615 1.428 . S
C607 C605 1.419 . S
C607 C608 1.364 1_455 S
C607 H610 0.929 . S
C608 C607 1.364 1_655 S
C608 C614 1.427 . S
H609 C605 0.930 . S
H610 C607 0.929 . S
S611 N612 1.613 . S
S611 N613 1.610 . S
N612 S611 1.613 . S
N612 C615 1.350 . S
N613 S611 1.610 . S
N613 C614 1.351 . S
C614 C608 1.427 . S
C614 N613 1.351 . S
C614 C615 1.434 . S
C615 C606 1.428 . S
C615 N612 1.350 . S
C615 C614 1.434 . S
C616 C617 1.370 1_554 S
C616 C618 1.419 . S
C616 H620 0.930 . S
C617 C616 1.370 1_556 S
C617 C626 1.427 . S
C618 C616 1.419 . S
C618 C619 1.364 1_554 S
C618 H621 0.929 . S
C619 C618 1.364 1_556 S
C619 C625 1.427 . S
H620 C616 0.930 . S
H621 C618 0.929 . S
S622 N623 1.613 . S
S622 N624 1.610 . S
N623 S622 1.613 . S
N623 C626 1.350 . S
N624 S622 1.610 . S
N624 C625 1.351 . S
C625 C619 1.427 . S
C625 N624 1.351 . S
C625 C626 1.434 . S
C626 C617 1.427 . S
C626 N623 1.350 . S
C626 C625 1.434 . S
C627 C628 1.368 1_554 S
C627 C629 1.419 . S
C627 H631 0.930 . S
C628 C627 1.368 1_556 S
C628 C637 1.429 . S
C629 C627 1.419 . S
C629 C630 1.363 1_554 S
C629 H632 0.929 . S
C630 C629 1.363 1_556 S
C630 C636 1.428 . S
H631 C627 0.930 . S
H632 C629 0.929 . S
S633 N634 1.613 . S
S633 N635 1.610 . S
N634 S633 1.613 . S
N634 C637 1.350 . S
N635 S633 1.610 . S
N635 C636 1.351 . S
C636 C630 1.428 . S
C636 N635 1.351 . S
C636 C637 1.434 . S
C637 C628 1.429 . S
C637 N634 1.350 . S
C637 C636 1.434 . S
C638 C639 1.365 1_554 S
C638 C640 1.419 . S
C638 H642 0.930 . S
C639 C638 1.365 1_556 S
C639 C648 1.433 . S
C640 C638 1.419 . S
C640 C641 1.361 1_554 S
C640 H643 0.929 . S
C641 C640 1.361 1_556 S
C641 C647 1.430 . S
H642 C638 0.930 . S
H643 C640 0.929 . S
S644 N645 1.613 . S
S644 N646 1.610 . S
N645 S644 1.613 . S
N645 C648 1.350 . S
N646 S644 1.610 . S
N646 C647 1.351 . S
C647 C641 1.430 . S
C647 N646 1.351 . S
C647 C648 1.434 . S
C648 C639 1.433 . S
C648 N645 1.350 . S
C648 C647 1.434 . S
C649 C650 1.358 1_556 S
C649 C651 1.419 . S
C649 H653 0.930 . S
C650 C649 1.358 1_554 S
C650 C659 1.440 . S
C651 C649 1.419 . S
C651 C652 1.355 1_556 S
C651 H654 0.929 . S
C652 C651 1.355 1_554 S
C652 C658 1.437 . S
H653 C649 0.930 . S
H654 C651 0.929 . S
S655 N656 1.613 . S
S655 N657 1.610 . S
N656 S655 1.613 . S
N656 C659 1.350 . S
N657 S655 1.610 . S
N657 C658 1.351 . S
C658 C652 1.437 . S
C658 N657 1.351 . S
C658 C659 1.434 . S
C659 C650 1.440 . S
C659 N656 1.350 . S
C659 C658 1.434 . S
C660 C661 1.369 . S
C660 C662 1.419 1_556 S
C660 H664 0.930 . S
C661 C660 1.369 . S
C661 C670 1.429 . S
C662 C660 1.419 1_554 S
C662 C663 1.363 . S
C662 H665 0.929 . S
C663 C662 1.363 . S
C663 C669 1.428 . S
H664 C660 0.930 . S
H665 C662 0.929 . S
S666 N667 1.615 1_554 S
S666 N668 1.608 . S
N667 S666 1.615 1_556 S
N667 C670 1.350 . S
N668 S666 1.608 . S
N668 C669 1.351 . S
C669 C663 1.428 . S
C669 N668 1.351 . S
C669 C670 1.434 1_554 S
C670 C661 1.429 . S
C670 N667 1.350 . S
C670 C669 1.434 1_556 S
C671 C672 1.369 . S
C671 C673 1.419 1_554 S
C671 H675 0.930 . S
C672 C671 1.369 . S
C672 C681 1.429 . S
C673 C671 1.419 1_556 S
C673 C674 1.363 . S
C673 H676 0.929 . S
C674 C673 1.363 . S
C674 C680 1.428 . S
H675 C671 0.930 . S
H676 C673 0.929 . S
S677 N678 1.615 1_556 S
S677 N679 1.608 . S
N678 S677 1.615 1_554 S
N678 C681 1.350 . S
N679 S677 1.608 . S
N679 C680 1.351 . S
C680 C674 1.428 . S
C680 N679 1.351 . S
C680 C681 1.434 1_556 S
C681 C672 1.429 . S
C681 N678 1.350 . S
C681 C680 1.434 1_554 S
C682 C683 1.369 . S
C682 C684 1.419 1_556 S
C682 H686 0.930 . S
C683 C682 1.369 . S
C683 C692 1.429 . S
C684 C682 1.419 1_554 S
C684 C685 1.363 . S
C684 H687 0.929 . S
C685 C684 1.363 . S
C685 C691 1.428 . S
H686 C682 0.930 . S
H687 C684 0.929 . S
S688 N689 1.615 1_554 S
S688 N690 1.608 . S
N689 S688 1.615 1_556 S
N689 C692 1.350 . S
N690 S688 1.608 . S
N690 C691 1.351 . S
C691 C685 1.428 . S
C691 N690 1.351 . S
C691 C692 1.434 1_554 S
C692 C683 1.429 . S
C692 N689 1.350 . S
C692 C691 1.434 1_556 S
C693 C694 1.369 . S
C693 C695 1.419 1_556 S
C693 H697 0.930 . S
C694 C693 1.369 . S
C694 C703 1.429 . S
C695 C693 1.419 1_554 S
C695 C696 1.363 . S
C695 H698 0.929 . S
C696 C695 1.363 . S
C696 C702 1.428 . S
H697 C693 0.930 . S
H698 C695 0.929 . S
S699 N700 1.615 1_554 S
S699 N701 1.608 . S
N700 S699 1.615 1_556 S
N700 C703 1.350 . S
N701 S699 1.608 . S
N701 C702 1.351 . S
C702 C696 1.428 . S
C702 N701 1.351 . S
C702 C703 1.434 1_554 S
C703 C694 1.429 . S
C703 N700 1.350 . S
C703 C702 1.434 1_556 S
C704 C705 1.369 . S
C704 C706 1.419 1_655 S
C704 H708 0.930 . S
C705 C704 1.369 . S
C705 C714 1.429 . S
C706 C704 1.419 1_455 S
C706 C707 1.363 . S
C706 H709 0.929 . S
C707 C706 1.363 . S
C707 C713 1.428 . S
H708 C704 0.930 . S
H709 C706 0.929 . S
S710 N711 1.615 1_455 S
S710 N712 1.608 . S
N711 S710 1.615 1_655 S
N711 C714 1.350 . S
N712 S710 1.608 . S
N712 C713 1.351 . S
C713 C707 1.428 . S
C713 N712 1.351 . S
C713 C714 1.434 1_455 S
C714 C705 1.429 . S
C714 N711 1.350 . S
C714 C713 1.434 1_655 S
C715 C716 1.369 . S
C715 C717 1.419 1_545 S
C715 H719 0.930 . S
C716 C715 1.369 . S
C716 C725 1.429 . S
C717 C715 1.419 1_565 S
C717 C718 1.363 . S
C717 H720 0.929 . S
C718 C717 1.363 . S
C718 C724 1.428 . S
H719 C715 0.930 . S
H720 C717 0.929 . S
S721 N722 1.615 1_565 S
S721 N723 1.608 . S
N722 S721 1.615 1_545 S
N722 C725 1.350 . S
N723 S721 1.608 . S
N723 C724 1.351 . S
C724 C718 1.428 . S
C724 N723 1.351 . S
C724 C725 1.434 1_565 S
C725 C716 1.429 . S
C725 N722 1.350 . S
C725 C724 1.434 1_545 S
C726 C727 1.369 . S
C726 C728 1.419 1_655 S
C726 H730 0.930 . S
C727 C726 1.369 . S
C727 C736 1.429 . S
C728 C726 1.419 1_455 S
C728 C729 1.363 . S
C728 H731 0.929 . S
C729 C728 1.363 . S
C729 C735 1.428 . S
H730 C726 0.930 . S
H731 C728 0.929 . S
S732 N733 1.615 1_455 S
S732 N734 1.608 . S
N733 S732 1.615 1_655 S
N733 C736 1.350 . S
N734 S732 1.608 . S
N734 C735 1.351 . S
C735 C729 1.428 . S
C735 N734 1.351 . S
C735 C736 1.434 1_455 S
C736 C727 1.429 . S
C736 N733 1.350 . S
C736 C735 1.434 1_655 S
C737 C738 1.369 . S
C737 C739 1.419 1_565 S
C737 H741 0.930 . S
C738 C737 1.369 . S
C738 C747 1.429 . S
C739 C737 1.419 1_545 S
C739 C740 1.363 . S
C739 H742 0.929 . S
C740 C739 1.363 . S
C740 C746 1.428 . S
H741 C737 0.930 . S
H742 C739 0.929 . S
S743 N744 1.615 1_545 S
S743 N745 1.608 . S
N744 S743 1.615 1_565 S
N744 C747 1.350 . S
N745 S743 1.608 . S
N745 C746 1.351 . S
C746 C740 1.428 . S
C746 N745 1.351 . S
C746 C747 1.434 1_545 S
C747 C738 1.429 . S
C747 N744 1.350 . S
C747 C746 1.434 1_565 S
C748 C749 1.369 . S
C748 C750 1.419 1_565 S
C748 H752 0.930 . S
C749 C748 1.369 . S
C749 C758 1.429 . S
C750 C748 1.419 1_545 S
C750 C751 1.363 . S
C750 H753 0.929 . S
C751 C750 1.363 . S
C751 C757 1.428 . S
H752 C748 0.930 . S
H753 C750 0.929 . S
S754 N755 1.615 1_545 S
S754 N756 1.608 . S
N755 S754 1.615 1_565 S
N755 C758 1.350 . S
N756 S754 1.608 . S
N756 C757 1.351 . S
C757 C751 1.428 . S
C757 N756 1.351 . S
C757 C758 1.434 1_545 S
C758 C749 1.429 . S
C758 N755 1.350 . S
C758 C757 1.434 1_565 S
C759 C760 1.369 . S
C759 C761 1.419 1_455 S
C759 H763 0.930 . S
C760 C759 1.369 . S
C760 C769 1.429 . S
C761 C759 1.419 1_655 S
C761 C762 1.363 . S
C761 H764 0.929 . S
C762 C761 1.363 . S
C762 C768 1.428 . S
H763 C759 0.930 . S
H764 C761 0.929 . S
S765 N766 1.615 1_655 S
S765 N767 1.608 . S
N766 S765 1.615 1_455 S
N766 C769 1.350 . S
N767 S765 1.608 . S
N767 C768 1.351 . S
C768 C762 1.428 . S
C768 N767 1.351 . S
C768 C769 1.434 1_655 S
C769 C760 1.429 . S
C769 N766 1.350 . S
C769 C768 1.434 1_455 S
C770 C771 1.369 . S
C770 C772 1.419 1_565 S
C770 H774 0.930 . S
C771 C770 1.369 . S
C771 C780 1.429 . S
C772 C770 1.419 1_545 S
C772 C773 1.363 . S
C772 H775 0.929 . S
C773 C772 1.363 . S
C773 C779 1.428 . S
H774 C770 0.930 . S
H775 C772 0.929 . S
S776 N777 1.615 1_545 S
S776 N778 1.608 . S
N777 S776 1.615 1_565 S
N777 C780 1.350 . S
N778 S776 1.608 . S
N778 C779 1.351 . S
C779 C773 1.428 . S
C779 N778 1.351 . S
C779 C780 1.434 1_545 S
C780 C771 1.429 . S
C780 N777 1.350 . S
C780 C779 1.434 1_565 S
C781 C782 1.369 . S
C781 C783 1.419 1_455 S
C781 H785 0.930 . S
C782 C781 1.369 . S
C782 C791 1.429 . S
C783 C781 1.419 1_655 S
C783 C784 1.363 . S
C783 H786 0.929 . S
C784 C783 1.363 . S
C784 C790 1.428 . S
H785 C781 0.930 . S
H786 C783 0.929 . S
S787 N788 1.615 1_655 S
S787 N789 1.608 . S
N788 S787 1.615 1_455 S
N788 C791 1.350 . S
N789 S787 1.608 . S
N789 C790 1.351 . S
C790 C784 1.428 . S
C790 N789 1.351 . S
C790 C791 1.434 1_655 S
C791 C782 1.429 . S
C791 N788 1.350 . S
C791 C790 1.434 1_455 S
C792 C793 1.369 . S
C792 C794 1.419 . S
C792 H796 0.930 . S
C793 C792 1.369 . S
C793 C802 1.429 . S
C794 C792 1.419 . S
C794 C795 1.363 . S
C794 H797 0.929 . S
C795 C794 1.363 . S
C795 C801 1.428 . S
H796 C792 0.930 . S
H797 C794 0.929 . S
S798 N799 1.613 . S
S798 N800 1.610 . S
N799 S798 1.613 . S
N799 C802 1.350 . S
N800 S798 1.610 . S
N800 C801 1.351 . S
C801 C795 1.428 . S
C801 N800 1.351 . S
C801 C802 1.434 . S
C802 C793 1.429 . S
C802 N799 1.350 . S
C802 C801 1.434 . S
C803 C804 1.369 . S
C803 C805 1.419 . S
C803 H807 0.930 . S
C804 C803 1.369 . S
C804 C813 1.429 . S
C805 C803 1.419 . S
C805 C806 1.363 . S
C805 H808 0.929 . S
C806 C805 1.363 . S
C806 C812 1.428 . S
H807 C803 0.930 . S
H808 C805 0.929 . S
S809 N810 1.613 . S
S809 N811 1.610 . S
N810 S809 1.613 . S
N810 C813 1.350 . S
N811 S809 1.610 . S
N811 C812 1.351 . S
C812 C806 1.428 . S
C812 N811 1.351 . S
C812 C813 1.434 . S
C813 C804 1.429 . S
C813 N810 1.350 . S
C813 C812 1.434 . S
C814 C815 1.369 . S
C814 C816 1.419 . S
C814 H818 0.930 . S
C815 C814 1.369 . S
C815 C824 1.429 . S
C816 C814 1.419 . S
C816 C817 1.363 . S
C816 H819 0.929 . S
C817 C816 1.363 . S
C817 C823 1.428 . S
H818 C814 0.930 . S
H819 C816 0.929 . S
S820 N821 1.613 . S
S820 N822 1.610 . S
N821 S820 1.613 . S
N821 C824 1.350 . S
N822 S820 1.610 . S
N822 C823 1.351 . S
C823 C817 1.428 . S
C823 N822 1.351 . S
C823 C824 1.434 . S
C824 C815 1.429 . S
C824 N821 1.350 . S
C824 C823 1.434 . S
C825 C826 1.369 . S
C825 C827 1.419 . S
C825 H829 0.930 . S
C826 C825 1.369 . S
C826 C835 1.429 . S
C827 C825 1.419 . S
C827 C828 1.363 . S
C827 H830 0.929 . S
C828 C827 1.363 . S
C828 C834 1.428 . S
H829 C825 0.930 . S
H830 C827 0.929 . S
S831 N832 1.613 . S
S831 N833 1.610 . S
N832 S831 1.613 . S
N832 C835 1.350 . S
N833 S831 1.610 . S
N833 C834 1.351 . S
C834 C828 1.428 . S
C834 N833 1.351 . S
C834 C835 1.434 . S
C835 C826 1.429 . S
C835 N832 1.350 . S
C835 C834 1.434 . S
C836 C837 1.369 . S
C836 C838 1.419 . S
C836 H840 0.930 . S
C837 C836 1.369 . S
C837 C846 1.429 . S
C838 C836 1.419 . S
C838 C839 1.363 . S
C838 H841 0.929 . S
C839 C838 1.363 . S
C839 C845 1.428 . S
H840 C836 0.930 . S
H841 C838 0.929 . S
S842 N843 1.613 . S
S842 N844 1.610 . S
N843 S842 1.613 . S
N843 C846 1.350 . S
N844 S842 1.610 . S
N844 C845 1.351 . S
C845 C839 1.428 . S
C845 N844 1.351 . S
C845 C846 1.434 . S
C846 C837 1.429 . S
C846 N843 1.350 . S
C846 C845 1.434 . S
C847 C848 1.369 . S
C847 C849 1.419 . S
C847 H851 0.930 . S
C848 C847 1.369 . S
C848 C857 1.429 . S
C849 C847 1.419 . S
C849 C850 1.363 . S
C849 H852 0.929 . S
C850 C849 1.363 . S
C850 C856 1.428 . S
H851 C847 0.930 . S
H852 C849 0.929 . S
S853 N854 1.613 . S
S853 N855 1.610 . S
N854 S853 1.613 . S
N854 C857 1.350 . S
N855 S853 1.610 . S
N855 C856 1.351 . S
C856 C850 1.428 . S
C856 N855 1.351 . S
C856 C857 1.434 . S
C857 C848 1.429 . S
C857 N854 1.350 . S
C857 C856 1.434 . S
C858 C859 1.369 . S
C858 C860 1.419 . S
C858 H862 0.930 . S
C859 C858 1.369 . S
C859 C868 1.429 . S
C860 C858 1.419 . S
C860 C861 1.363 . S
C860 H863 0.929 . S
C861 C860 1.363 . S
C861 C867 1.428 . S
H862 C858 0.930 . S
H863 C860 0.929 . S
S864 N865 1.613 . S
S864 N866 1.610 . S
N865 S864 1.613 . S
N865 C868 1.350 . S
N866 S864 1.610 . S
N866 C867 1.351 . S
C867 C861 1.428 . S
C867 N866 1.351 . S
C867 C868 1.434 . S
C868 C859 1.429 . S
C868 N865 1.350 . S
C868 C867 1.434 . S
C869 C870 1.369 . S
C869 C871 1.419 . S
C869 H873 0.930 . S
C870 C869 1.369 . S
C870 C879 1.429 . S
C871 C869 1.419 . S
C871 C872 1.363 . S
C871 H874 0.929 . S
C872 C871 1.363 . S
C872 C878 1.428 . S
H873 C869 0.930 . S
H874 C871 0.929 . S
S875 N876 1.613 . S
S875 N877 1.610 . S
N876 S875 1.613 . S
N876 C879 1.350 . S
N877 S875 1.610 . S
N877 C878 1.351 . S
C878 C872 1.428 . S
C878 N877 1.351 . S
C878 C879 1.434 . S
C879 C870 1.429 . S
C879 N876 1.350 . S
C879 C878 1.434 . S
C880 C881 1.369 . S
C880 C882 1.419 . S
C880 H884 0.930 . S
C881 C880 1.369 . S
C881 C890 1.429 . S
C882 C880 1.419 . S
C882 C883 1.363 . S
C882 H885 0.929 . S
C883 C882 1.363 . S
C883 C889 1.428 . S
H884 C880 0.930 . S
H885 C882 0.929 . S
S886 N887 1.613 . S
S886 N888 1.610 . S
N887 S886 1.613 . S
N887 C890 1.350 . S
N888 S886 1.610 . S
N888 C889 1.351 . S
C889 C883 1.428 . S
C889 N888 1.351 . S
C889 C890 1.434 . S
C890 C881 1.429 . S
C890 N887 1.350 . S
C890 C889 1.434 . S
C891 C892 1.369 . S
C891 C893 1.419 . S
C891 H895 0.930 . S
C892 C891 1.369 . S
C892 C901 1.429 . S
C893 C891 1.419 . S
C893 C894 1.363 . S
C893 H896 0.929 . S
C894 C893 1.363 . S
C894 C900 1.428 . S
H895 C891 0.930 . S
H896 C893 0.929 . S
S897 N898 1.613 . S
S897 N899 1.610 . S
N898 S897 1.613 . S
N898 C901 1.350 . S
N899 S897 1.610 . S
N899 C900 1.351 . S
C900 C894 1.428 . S
C900 N899 1.351 . S
C900 C901 1.434 . S
C901 C892 1.429 . S
C901 N898 1.350 . S
C901 C900 1.434 . S
C902 C903 1.369 . S
C902 C904 1.419 . S
C902 H906 0.930 . S
C903 C902 1.369 . S
C903 C912 1.429 . S
C904 C902 1.419 . S
C904 C905 1.363 . S
C904 H907 0.929 . S
C905 C904 1.363 . S
C905 C911 1.428 . S
H906 C902 0.930 . S
H907 C904 0.929 . S
S908 N909 1.613 . S
S908 N910 1.610 . S
N909 S908 1.613 . S
N909 C912 1.350 . S
N910 S908 1.610 . S
N910 C911 1.351 . S
C911 C905 1.428 . S
C911 N910 1.351 . S
C911 C912 1.434 . S
C912 C903 1.429 . S
C912 N909 1.350 . S
C912 C911 1.434 . S
C913 C914 1.369 . S
C913 C915 1.419 . S
C913 H917 0.930 . S
C914 C913 1.369 . S
C914 C923 1.429 . S
C915 C913 1.419 . S
C915 C916 1.363 . S
C915 H918 0.929 . S
C916 C915 1.363 . S
C916 C922 1.428 . S
H917 C913 0.930 . S
H918 C915 0.929 . S
S919 N920 1.613 . S
S919 N921 1.610 . S
N920 S919 1.613 . S
N920 C923 1.350 . S
N921 S919 1.610 . S
N921 C922 1.351 . S
C922 C916 1.428 . S
C922 N921 1.351 . S
C922 C923 1.434 . S
C923 C914 1.429 . S
C923 N920 1.350 . S
C923 C922 1.434 . S
C924 C925 1.369 . S
C924 C926 1.419 . S
C924 H928 0.930 . S
C925 C924 1.369 . S
C925 C934 1.429 . S
C926 C924 1.419 . S
C926 C927 1.363 . S
C926 H929 0.929 . S
C927 C926 1.363 . S
C927 C933 1.428 . S
H928 C924 0.930 . S
H929 C926 0.929 . S
S930 N931 1.613 . S
S930 N932 1.610 . S
N931 S930 1.613 . S
N931 C934 1.350 . S
N932 S930 1.610 . S
N932 C933 1.351 . S
C933 C927 1.428 . S
C933 N932 1.351 . S
C933 C934 1.434 . S
C934 C925 1.429 . S
C934 N931 1.350 . S
C934 C933 1.434 . S
C935 C936 1.369 . S
C935 C937 1.419 . S
C935 H939 0.930 . S
C936 C935 1.369 . S
C936 C945 1.429 . S
C937 C935 1.419 . S
C937 C938 1.363 . S
C937 H940 0.929 . S
C938 C937 1.363 . S
C938 C944 1.428 . S
H939 C935 0.930 . S
H940 C937 0.929 . S
S941 N942 1.613 . S
S941 N943 1.610 . S
N942 S941 1.613 . S
N942 C945 1.350 . S
N943 S941 1.610 . S
N943 C944 1.351 . S
C944 C938 1.428 . S
C944 N943 1.351 . S
C944 C945 1.434 . S
C945 C936 1.429 . S
C945 N942 1.350 . S
C945 C944 1.434 . S
C946 C947 1.369 . S
C946 C948 1.419 . S
C946 H950 0.930 . S
C947 C946 1.369 . S
C947 C956 1.429 . S
C948 C946 1.419 . S
C948 C949 1.363 . S
C948 H951 0.929 . S
C949 C948 1.363 . S
C949 C955 1.428 . S
H950 C946 0.930 . S
H951 C948 0.929 . S
S952 N953 1.613 . S
S952 N954 1.610 . S
N953 S952 1.613 . S
N953 C956 1.350 . S
N954 S952 1.610 . S
N954 C955 1.351 . S
C955 C949 1.428 . S
C955 N954 1.351 . S
C955 C956 1.434 . S
C956 C947 1.429 . S
C956 N953 1.350 . S
C956 C955 1.434 . S
C957 C958 1.369 . S
C957 C959 1.419 . S
C957 H961 0.930 . S
C958 C957 1.369 . S
C958 C967 1.429 . S
C959 C957 1.419 . S
C959 C960 1.363 . S
C959 H962 0.929 . S
C960 C959 1.363 . S
C960 C966 1.428 . S
H961 C957 0.930 . S
H962 C959 0.929 . S
S963 N964 1.613 . S
S963 N965 1.610 . S
N964 S963 1.613 . S
N964 C967 1.350 . S
N965 S963 1.610 . S
N965 C966 1.351 . S
C966 C960 1.428 . S
C966 N965 1.351 . S
C966 C967 1.434 . S
C967 C958 1.429 . S
C967 N964 1.350 . S
C967 C966 1.434 . S
C968 C969 1.369 . S
C968 C970 1.419 . S
C968 H972 0.930 . S
C969 C968 1.369 . S
C969 C978 1.429 . S
C970 C968 1.419 . S
C970 C971 1.363 . S
C970 H973 0.929 . S
C971 C970 1.363 . S
C971 C977 1.428 . S
H972 C968 0.930 . S
H973 C970 0.929 . S
S974 N975 1.613 . S
S974 N976 1.610 . S
N975 S974 1.613 . S
N975 C978 1.350 . S
N976 S974 1.610 . S
N976 C977 1.351 . S
C977 C971 1.428 . S
C977 N976 1.351 . S
C977 C978 1.434 . S
C978 C969 1.429 . S
C978 N975 1.350 . S
C978 C977 1.434 . S
C979 C980 1.369 . S
C979 C981 1.419 . S
C979 H983 0.930 . S
C980 C979 1.369 . S
C980 C989 1.429 . S
C981 C979 1.419 . S
C981 C982 1.363 . S
C981 H984 0.929 . S
C982 C981 1.363 . S
C982 C988 1.428 . S
H983 C979 0.930 . S
H984 C981 0.929 . S
S985 N986 1.613 . S
S985 N987 1.610 . S
N986 S985 1.613 . S
N986 C989 1.350 . S
N987 S985 1.610 . S
N987 C988 1.351 . S
C988 C982 1.428 . S
C988 N987 1.351 . S
C988 C989 1.434 . S
C989 C980 1.429 . S
C989 N986 1.350 . S
C989 C988 1.434 . S
C990 C991 1.369 . S
C990 C992 1.419 . S
C990 H994 0.930 . S
C991 C990 1.369 . S
C991 C1000 1.429 . S
C992 C990 1.419 . S
C992 C993 1.363 . S
C992 H995 0.929 . S
C993 C992 1.363 . S
C993 C999 1.428 . S
H994 C990 0.930 . S
H995 C992 0.929 . S
S996 N997 1.613 . S
S996 N998 1.610 . S
N997 S996 1.613 . S
N997 C1000 1.350 . S
N998 S996 1.610 . S
N998 C999 1.351 . S
C999 C993 1.428 . S
C999 N998 1.351 . S
C999 C1000 1.434 . S
C1000 C991 1.429 . S
C1000 N997 1.350 . S
C1000 C999 1.434 . S
C1001 C1002 1.369 . S
C1001 C1003 1.419 . S
C1001 H1005 0.930 . S
C1002 C1001 1.369 . S
C1002 C1011 1.429 . S
C1003 C1001 1.419 . S
C1003 C1004 1.363 . S
C1003 H1006 0.929 . S
C1004 C1003 1.363 . S
C1004 C1010 1.428 . S
H1005 C1001 0.930 . S
H1006 C1003 0.929 . S
S1007 N1008 1.613 . S
S1007 N1009 1.610 . S
N1008 S1007 1.613 . S
N1008 C1011 1.350 . S
N1009 S1007 1.610 . S
N1009 C1010 1.351 . S
C1010 C1004 1.428 . S
C1010 N1009 1.351 . S
C1010 C1011 1.434 . S
C1011 C1002 1.429 . S
C1011 N1008 1.350 . S
C1011 C1010 1.434 . S
C1012 C1013 1.369 . S
C1012 C1014 1.419 . S
C1012 H1016 0.930 . S
C1013 C1012 1.369 . S
C1013 C1022 1.429 . S
C1014 C1012 1.419 . S
C1014 C1015 1.363 . S
C1014 H1017 0.929 . S
C1015 C1014 1.363 . S
C1015 C1021 1.428 . S
H1016 C1012 0.930 . S
H1017 C1014 0.929 . S
S1018 N1019 1.613 . S
S1018 N1020 1.610 . S
N1019 S1018 1.613 . S
N1019 C1022 1.350 . S
N1020 S1018 1.610 . S
N1020 C1021 1.351 . S
C1021 C1015 1.428 . S
C1021 N1020 1.351 . S
C1021 C1022 1.434 . S
C1022 C1013 1.429 . S
C1022 N1019 1.350 . S
C1022 C1021 1.434 . S
C1023 C1024 1.369 . S
C1023 C1025 1.419 . S
C1023 H1027 0.930 . S
C1024 C1023 1.369 . S
C1024 C1033 1.429 . S
C1025 C1023 1.419 . S
C1025 C1026 1.363 . S
C1025 H1028 0.929 . S
C1026 C1025 1.363 . S
C1026 C1032 1.428 . S
H1027 C1023 0.930 . S
H1028 C1025 0.929 . S
S1029 N1030 1.613 . S
S1029 N1031 1.610 . S
N1030 S1029 1.613 . S
N1030 C1033 1.350 . S
N1031 S1029 1.610 . S
N1031 C1032 1.351 . S
C1032 C1026 1.428 . S
C1032 N1031 1.351 . S
C1032 C1033 1.434 . S
C1033 C1024 1.429 . S
C1033 N1030 1.350 . S
C1033 C1032 1.434 . S
C1034 C1035 1.369 . S
C1034 C1036 1.419 . S
C1034 H1038 0.930 . S
C1035 C1034 1.369 . S
C1035 C1044 1.429 . S
C1036 C1034 1.419 . S
C1036 C1037 1.363 . S
C1036 H1039 0.929 . S
C1037 C1036 1.363 . S
C1037 C1043 1.428 . S
H1038 C1034 0.930 . S
H1039 C1036 0.929 . S
S1040 N1041 1.613 . S
S1040 N1042 1.610 . S
N1041 S1040 1.613 . S
N1041 C1044 1.350 . S
N1042 S1040 1.610 . S
N1042 C1043 1.351 . S
C1043 C1037 1.428 . S
C1043 N1042 1.351 . S
C1043 C1044 1.434 . S
C1044 C1035 1.429 . S
C1044 N1041 1.350 . S
C1044 C1043 1.434 . S
C1045 C1046 1.369 . S
C1045 C1047 1.419 . S
C1045 H1049 0.930 . S
C1046 C1045 1.369 . S
C1046 C1055 1.429 . S
C1047 C1045 1.419 . S
C1047 C1048 1.363 . S
C1047 H1050 0.929 . S
C1048 C1047 1.363 . S
C1048 C1054 1.428 . S
H1049 C1045 0.930 . S
H1050 C1047 0.929 . S
S1051 N1052 1.613 . S
S1051 N1053 1.610 . S
N1052 S1051 1.613 . S
N1052 C1055 1.350 . S
N1053 S1051 1.610 . S
N1053 C1054 1.351 . S
C1054 C1048 1.428 . S
C1054 N1053 1.351 . S
C1054 C1055 1.434 . S
C1055 C1046 1.429 . S
C1055 N1052 1.350 . S
C1055 C1054 1.434 . S
C1056 C1057 1.369 . S
C1056 C1058 1.419 . S
C1056 H1060 0.930 . S
C1057 C1056 1.369 . S
C1057 C1066 1.429 . S
C1058 C1056 1.419 . S
C1058 C1059 1.363 . S
C1058 H1061 0.929 . S
C1059 C1058 1.363 . S
C1059 C1065 1.428 . S
H1060 C1056 0.930 . S
H1061 C1058 0.929 . S
S1062 N1063 1.613 . S
S1062 N1064 1.610 . S
N1063 S1062 1.613 . S
N1063 C1066 1.350 . S
N1064 S1062 1.610 . S
N1064 C1065 1.351 . S
C1065 C1059 1.428 . S
C1065 N1064 1.351 . S
C1065 C1066 1.434 . S
C1066 C1057 1.429 . S
C1066 N1063 1.350 . S
C1066 C1065 1.434 . S
C1067 C1068 1.369 . S
C1067 C1069 1.419 . S
C1067 H1071 0.930 . S
C1068 C1067 1.369 . S
C1068 C1077 1.429 . S
C1069 C1067 1.419 . S
C1069 C1070 1.363 . S
C1069 H1072 0.929 . S
C1070 C1069 1.363 . S
C1070 C1076 1.428 . S
H1071 C1067 0.930 . S
H1072 C1069 0.929 . S
S1073 N1074 1.613 . S
S1073 N1075 1.610 . S
N1074 S1073 1.613 . S
N1074 C1077 1.350 . S
N1075 S1073 1.610 . S
N1075 C1076 1.351 . S
C1076 C1070 1.428 . S
C1076 N1075 1.351 . S
C1076 C1077 1.434 . S
C1077 C1068 1.429 . S
C1077 N1074 1.350 . S
C1077 C1076 1.434 . S
C1078 C1079 1.369 . S
C1078 C1080 1.419 . S
C1078 H1082 0.930 . S
C1079 C1078 1.369 . S
C1079 C1088 1.429 . S
C1080 C1078 1.419 . S
C1080 C1081 1.363 . S
C1080 H1083 0.929 . S
C1081 C1080 1.363 . S
C1081 C1087 1.428 . S
H1082 C1078 0.930 . S
H1083 C1080 0.929 . S
S1084 N1085 1.613 . S
S1084 N1086 1.610 . S
N1085 S1084 1.613 . S
N1085 C1088 1.350 . S
N1086 S1084 1.610 . S
N1086 C1087 1.351 . S
C1087 C1081 1.428 . S
C1087 N1086 1.351 . S
C1087 C1088 1.434 . S
C1088 C1079 1.429 . S
C1088 N1085 1.350 . S
C1088 C1087 1.434 . S
C1089 C1090 1.369 . S
C1089 C1091 1.419 . S
C1089 H1093 0.930 . S
C1090 C1089 1.369 . S
C1090 C1099 1.429 . S
C1091 C1089 1.419 . S
C1091 C1092 1.363 . S
C1091 H1094 0.929 . S
C1092 C1091 1.363 . S
C1092 C1098 1.428 . S
H1093 C1089 0.930 . S
H1094 C1091 0.929 . S
S1095 N1096 1.613 . S
S1095 N1097 1.610 . S
N1096 S1095 1.613 . S
N1096 C1099 1.350 . S
N1097 S1095 1.610 . S
N1097 C1098 1.351 . S
C1098 C1092 1.428 . S
C1098 N1097 1.351 . S
C1098 C1099 1.434 . S
C1099 C1090 1.429 . S
C1099 N1096 1.350 . S
C1099 C1098 1.434 . S
C1100 C1101 1.369 . S
C1100 C1102 1.419 . S
C1100 H1104 0.930 . S
C1101 C1100 1.369 . S
C1101 C1110 1.429 . S
C1102 C1100 1.419 . S
C1102 C1103 1.363 . S
C1102 H1105 0.929 . S
C1103 C1102 1.363 . S
C1103 C1109 1.428 . S
H1104 C1100 0.930 . S
H1105 C1102 0.929 . S
S1106 N1107 1.613 . S
S1106 N1108 1.610 . S
N1107 S1106 1.613 . S
N1107 C1110 1.350 . S
N1108 S1106 1.610 . S
N1108 C1109 1.351 . S
C1109 C1103 1.428 . S
C1109 N1108 1.351 . S
C1109 C1110 1.434 . S
C1110 C1101 1.429 . S
C1110 N1107 1.350 . S
C1110 C1109 1.434 . S
C1111 C1112 1.369 . S
C1111 C1113 1.419 . S
C1111 H1115 0.930 . S
C1112 C1111 1.369 . S
C1112 C1121 1.429 . S
C1113 C1111 1.419 . S
C1113 C1114 1.363 . S
C1113 H1116 0.929 . S
C1114 C1113 1.363 . S
C1114 C1120 1.428 . S
H1115 C1111 0.930 . S
H1116 C1113 0.929 . S
S1117 N1118 1.613 . S
S1117 N1119 1.610 . S
N1118 S1117 1.613 . S
N1118 C1121 1.350 . S
N1119 S1117 1.610 . S
N1119 C1120 1.351 . S
C1120 C1114 1.428 . S
C1120 N1119 1.351 . S
C1120 C1121 1.434 . S
C1121 C1112 1.429 . S
C1121 N1118 1.350 . S
C1121 C1120 1.434 . S
C1122 C1123 1.369 . S
C1122 C1124 1.419 . S
C1122 H1126 0.930 . S
C1123 C1122 1.369 . S
C1123 C1132 1.429 . S
C1124 C1122 1.419 . S
C1124 C1125 1.363 . S
C1124 H1127 0.929 . S
C1125 C1124 1.363 . S
C1125 C1131 1.428 . S
H1126 C1122 0.930 . S
H1127 C1124 0.929 . S
S1128 N1129 1.613 . S
S1128 N1130 1.610 . S
N1129 S1128 1.613 . S
N1129 C1132 1.350 . S
N1130 S1128 1.610 . S
N1130 C1131 1.351 . S
C1131 C1125 1.428 . S
C1131 N1130 1.351 . S
C1131 C1132 1.434 . S
C1132 C1123 1.429 . S
C1132 N1129 1.350 . S
C1132 C1131 1.434 . S
C1133 C1134 1.369 . S
C1133 C1135 1.419 . S
C1133 H1137 0.930 . S
C1134 C1133 1.369 . S
C1134 C1143 1.429 . S
C1135 C1133 1.419 . S
C1135 C1136 1.363 . S
C1135 H1138 0.929 . S
C1136 C1135 1.363 . S
C1136 C1142 1.428 . S
H1137 C1133 0.930 . S
H1138 C1135 0.929 . S
S1139 N1140 1.613 . S
S1139 N1141 1.610 . S
N1140 S1139 1.613 . S
N1140 C1143 1.350 . S
N1141 S1139 1.610 . S
N1141 C1142 1.351 . S
C1142 C1136 1.428 . S
C1142 N1141 1.351 . S
C1142 C1143 1.434 . S
C1143 C1134 1.429 . S
C1143 N1140 1.350 . S
C1143 C1142 1.434 . S
C1144 C1145 1.369 . S
C1144 C1146 1.419 . S
C1144 H1148 0.930 . S
C1145 C1144 1.369 . S
C1145 C1154 1.429 . S
C1146 C1144 1.419 . S
C1146 C1147 1.363 . S
C1146 H1149 0.929 . S
C1147 C1146 1.363 . S
C1147 C1153 1.428 . S
H1148 C1144 0.930 . S
H1149 C1146 0.929 . S
S1150 N1151 1.613 . S
S1150 N1152 1.610 . S
N1151 S1150 1.613 . S
N1151 C1154 1.350 . S
N1152 S1150 1.610 . S
N1152 C1153 1.351 . S
C1153 C1147 1.428 . S
C1153 N1152 1.351 . S
C1153 C1154 1.434 . S
C1154 C1145 1.429 . S
C1154 N1151 1.350 . S
C1154 C1153 1.434 . S
C1155 C1156 1.369 . S
C1155 C1157 1.419 . S
C1155 H1159 0.930 . S
C1156 C1155 1.369 . S
C1156 C1165 1.429 . S
C1157 C1155 1.419 . S
C1157 C1158 1.363 . S
C1157 H1160 0.929 . S
C1158 C1157 1.363 . S
C1158 C1164 1.428 . S
H1159 C1155 0.930 . S
H1160 C1157 0.929 . S
S1161 N1162 1.613 . S
S1161 N1163 1.610 . S
N1162 S1161 1.613 . S
N1162 C1165 1.350 . S
N1163 S1161 1.610 . S
N1163 C1164 1.351 . S
C1164 C1158 1.428 . S
C1164 N1163 1.351 . S
C1164 C1165 1.434 . S
C1165 C1156 1.429 . S
C1165 N1162 1.350 . S
C1165 C1164 1.434 . S
C1166 C1167 1.369 . S
C1166 C1168 1.419 . S
C1166 H1170 0.930 . S
C1167 C1166 1.369 . S
C1167 C1176 1.429 . S
C1168 C1166 1.419 . S
C1168 C1169 1.363 . S
C1168 H1171 0.929 . S
C1169 C1168 1.363 . S
C1169 C1175 1.428 . S
H1170 C1166 0.930 . S
H1171 C1168 0.929 . S
S1172 N1173 1.613 . S
S1172 N1174 1.610 . S
N1173 S1172 1.613 . S
N1173 C1176 1.350 . S
N1174 S1172 1.610 . S
N1174 C1175 1.351 . S
C1175 C1169 1.428 . S
C1175 N1174 1.351 . S
C1175 C1176 1.434 . S
C1176 C1167 1.429 . S
C1176 N1173 1.350 . S
C1176 C1175 1.434 . S
C1177 C1178 1.369 . S
C1177 C1179 1.419 . S
C1177 H1181 0.930 . S
C1178 C1177 1.369 . S
C1178 C1187 1.429 . S
C1179 C1177 1.419 . S
C1179 C1180 1.363 . S
C1179 H1182 0.929 . S
C1180 C1179 1.363 . S
C1180 C1186 1.428 . S
H1181 C1177 0.930 . S
H1182 C1179 0.929 . S
S1183 N1184 1.613 . S
S1183 N1185 1.610 . S
N1184 S1183 1.613 . S
N1184 C1187 1.350 . S
N1185 S1183 1.610 . S
N1185 C1186 1.351 . S
C1186 C1180 1.428 . S
C1186 N1185 1.351 . S
C1186 C1187 1.434 . S
C1187 C1178 1.429 . S
C1187 N1184 1.350 . S
C1187 C1186 1.434 . S
C1188 C1189 1.369 . S
C1188 C1190 1.419 . S
C1188 H1192 0.930 . S
C1189 C1188 1.369 . S
C1189 C1198 1.429 . S
C1190 C1188 1.419 . S
C1190 C1191 1.363 . S
C1190 H1193 0.929 . S
C1191 C1190 1.363 . S
C1191 C1197 1.428 . S
H1192 C1188 0.930 . S
H1193 C1190 0.929 . S
S1194 N1195 1.613 . S
S1194 N1196 1.610 . S
N1195 S1194 1.613 . S
N1195 C1198 1.350 . S
N1196 S1194 1.610 . S
N1196 C1197 1.351 . S
C1197 C1191 1.428 . S
C1197 N1196 1.351 . S
C1197 C1198 1.434 . S
C1198 C1189 1.429 . S
C1198 N1195 1.350 . S
C1198 C1197 1.434 . S
C1199 C1200 1.369 . S
C1199 C1201 1.419 . S
C1199 H1203 0.930 . S
C1200 C1199 1.369 . S
C1200 C1209 1.429 . S
C1201 C1199 1.419 . S
C1201 C1202 1.363 . S
C1201 H1204 0.929 . S
C1202 C1201 1.363 . S
C1202 C1208 1.428 . S
H1203 C1199 0.930 . S
H1204 C1201 0.929 . S
S1205 N1206 1.613 . S
S1205 N1207 1.610 . S
N1206 S1205 1.613 . S
N1206 C1209 1.350 . S
N1207 S1205 1.610 . S
N1207 C1208 1.351 . S
C1208 C1202 1.428 . S
C1208 N1207 1.351 . S
C1208 C1209 1.434 . S
C1209 C1200 1.429 . S
C1209 N1206 1.350 . S
C1209 C1208 1.434 . S
C1210 C1211 1.369 . S
C1210 C1212 1.419 . S
C1210 H1214 0.930 . S
C1211 C1210 1.369 . S
C1211 C1220 1.429 . S
C1212 C1210 1.419 . S
C1212 C1213 1.363 . S
C1212 H1215 0.929 . S
C1213 C1212 1.363 . S
C1213 C1219 1.428 . S
H1214 C1210 0.930 . S
H1215 C1212 0.929 . S
S1216 N1217 1.613 . S
S1216 N1218 1.610 . S
N1217 S1216 1.613 . S
N1217 C1220 1.350 . S
N1218 S1216 1.610 . S
N1218 C1219 1.351 . S
C1219 C1213 1.428 . S
C1219 N1218 1.351 . S
C1219 C1220 1.434 . S
C1220 C1211 1.429 . S
C1220 N1217 1.350 . S
C1220 C1219 1.434 . S
C1221 C1222 1.369 . S
C1221 C1223 1.419 . S
C1221 H1225 0.930 . S
C1222 C1221 1.369 . S
C1222 C1231 1.429 . S
C1223 C1221 1.419 . S
C1223 C1224 1.363 . S
C1223 H1226 0.929 . S
C1224 C1223 1.363 . S
C1224 C1230 1.428 . S
H1225 C1221 0.930 . S
H1226 C1223 0.929 . S
S1227 N1228 1.613 . S
S1227 N1229 1.610 . S
N1228 S1227 1.613 . S
N1228 C1231 1.350 . S
N1229 S1227 1.610 . S
N1229 C1230 1.351 . S
C1230 C1224 1.428 . S
C1230 N1229 1.351 . S
C1230 C1231 1.434 . S
C1231 C1222 1.429 . S
C1231 N1228 1.350 . S
C1231 C1230 1.434 . S
C1232 C1233 1.369 . S
C1232 C1234 1.419 . S
C1232 H1236 0.930 . S
C1233 C1232 1.369 . S
C1233 C1242 1.429 . S
C1234 C1232 1.419 . S
C1234 C1235 1.363 . S
C1234 H1237 0.929 . S
C1235 C1234 1.363 . S
C1235 C1241 1.428 . S
H1236 C1232 0.930 . S
H1237 C1234 0.929 . S
S1238 N1239 1.613 . S
S1238 N1240 1.610 . S
N1239 S1238 1.613 . S
N1239 C1242 1.350 . S
N1240 S1238 1.610 . S
N1240 C1241 1.351 . S
C1241 C1235 1.428 . S
C1241 N1240 1.351 . S
C1241 C1242 1.434 . S
C1242 C1233 1.429 . S
C1242 N1239 1.350 . S
C1242 C1241 1.434 . S
C1243 C1244 1.369 . S
C1243 C1245 1.419 . S
C1243 H1247 0.930 . S
C1244 C1243 1.369 . S
C1244 C1253 1.429 . S
C1245 C1243 1.419 . S
C1245 C1246 1.363 . S
C1245 H1248 0.929 . S
C1246 C1245 1.363 . S
C1246 C1252 1.428 . S
H1247 C1243 0.930 . S
H1248 C1245 0.929 . S
S1249 N1250 1.613 . S
S1249 N1251 1.610 . S
N1250 S1249 1.613 . S
N1250 C1253 1.350 . S
N1251 S1249 1.610 . S
N1251 C1252 1.351 . S
C1252 C1246 1.428 . S
C1252 N1251 1.351 . S
C1252 C1253 1.434 . S
C1253 C1244 1.429 . S
C1253 N1250 1.350 . S
C1253 C1252 1.434 . S
C1254 C1255 1.369 . S
C1254 C1256 1.419 . S
C1254 H1258 0.930 . S
C1255 C1254 1.369 . S
C1255 C1264 1.429 . S
C1256 C1254 1.419 . S
C1256 C1257 1.363 . S
C1256 H1259 0.929 . S
C1257 C1256 1.363 . S
C1257 C1263 1.428 . S
H1258 C1254 0.930 . S
H1259 C1256 0.929 . S
S1260 N1261 1.613 . S
S1260 N1262 1.610 . S
N1261 S1260 1.613 . S
N1261 C1264 1.350 . S
N1262 S1260 1.610 . S
N1262 C1263 1.351 . S
C1263 C1257 1.428 . S
C1263 N1262 1.351 . S
C1263 C1264 1.434 . S
C1264 C1255 1.429 . S
C1264 N1261 1.350 . S
C1264 C1263 1.434 . S
C1265 C1266 1.369 . S
C1265 C1267 1.419 . S
C1265 H1269 0.930 . S
C1266 C1265 1.369 . S
C1266 C1275 1.429 . S
C1267 C1265 1.419 . S
C1267 C1268 1.363 . S
C1267 H1270 0.929 . S
C1268 C1267 1.363 . S
C1268 C1274 1.428 . S
H1269 C1265 0.930 . S
H1270 C1267 0.929 . S
S1271 N1272 1.613 . S
S1271 N1273 1.610 . S
N1272 S1271 1.613 . S
N1272 C1275 1.350 . S
N1273 S1271 1.610 . S
N1273 C1274 1.351 . S
C1274 C1268 1.428 . S
C1274 N1273 1.351 . S
C1274 C1275 1.434 . S
C1275 C1266 1.429 . S
C1275 N1272 1.350 . S
C1275 C1274 1.434 . S
C1276 C1277 1.369 . S
C1276 C1278 1.419 . S
C1276 H1280 0.930 . S
C1277 C1276 1.369 . S
C1277 C1286 1.429 . S
C1278 C1276 1.419 . S
C1278 C1279 1.363 . S
C1278 H1281 0.929 . S
C1279 C1278 1.363 . S
C1279 C1285 1.428 . S
H1280 C1276 0.930 . S
H1281 C1278 0.929 . S
S1282 N1283 1.613 . S
S1282 N1284 1.610 . S
N1283 S1282 1.613 . S
N1283 C1286 1.350 . S
N1284 S1282 1.610 . S
N1284 C1285 1.351 . S
C1285 C1279 1.428 . S
C1285 N1284 1.351 . S
C1285 C1286 1.434 . S
C1286 C1277 1.429 . S
C1286 N1283 1.350 . S
C1286 C1285 1.434 . S
C1287 C1288 1.369 . S
C1287 C1289 1.419 . S
C1287 H1291 0.930 . S
C1288 C1287 1.369 . S
C1288 C1297 1.429 . S
C1289 C1287 1.419 . S
C1289 C1290 1.363 . S
C1289 H1292 0.929 . S
C1290 C1289 1.363 . S
C1290 C1296 1.428 . S
H1291 C1287 0.930 . S
H1292 C1289 0.929 . S
S1293 N1294 1.613 . S
S1293 N1295 1.610 . S
N1294 S1293 1.613 . S
N1294 C1297 1.350 . S
N1295 S1293 1.610 . S
N1295 C1296 1.351 . S
C1296 C1290 1.428 . S
C1296 N1295 1.351 . S
C1296 C1297 1.434 . S
C1297 C1288 1.429 . S
C1297 N1294 1.350 . S
C1297 C1296 1.434 . S
C1298 C1299 1.369 . S
C1298 C1300 1.419 . S
C1298 H1302 0.930 . S
C1299 C1298 1.369 . S
C1299 C1308 1.429 . S
C1300 C1298 1.419 . S
C1300 C1301 1.363 . S
C1300 H1303 0.929 . S
C1301 C1300 1.363 . S
C1301 C1307 1.428 . S
H1302 C1298 0.930 . S
H1303 C1300 0.929 . S
S1304 N1305 1.613 . S
S1304 N1306 1.610 . S
N1305 S1304 1.613 . S
N1305 C1308 1.350 . S
N1306 S1304 1.610 . S
N1306 C1307 1.351 . S
C1307 C1301 1.428 . S
C1307 N1306 1.351 . S
C1307 C1308 1.434 . S
C1308 C1299 1.429 . S
C1308 N1305 1.350 . S
C1308 C1307 1.434 . S
C1309 C1310 1.369 . S
C1309 C1311 1.419 . S
C1309 H1313 0.930 . S
C1310 C1309 1.369 . S
C1310 C1319 1.429 . S
C1311 C1309 1.419 . S
C1311 C1312 1.363 . S
C1311 H1314 0.929 . S
C1312 C1311 1.363 . S
C1312 C1318 1.428 . S
H1313 C1309 0.930 . S
H1314 C1311 0.929 . S
S1315 N1316 1.613 . S
S1315 N1317 1.610 . S
N1316 S1315 1.613 . S
N1316 C1319 1.350 . S
N1317 S1315 1.610 . S
N1317 C1318 1.351 . S
C1318 C1312 1.428 . S
C1318 N1317 1.351 . S
C1318 C1319 1.434 . S
C1319 C1310 1.429 . S
C1319 N1316 1.350 . S
C1319 C1318 1.434 . S
C529 C9 1.230 . S
C531 C138 1.229 . S
C540 C28 1.227 . S
C542 C159 1.227 . S
C551 C95 1.229 1_655 S
C553 C53 1.229 1_655 S
C562 C73 1.229 . S
C564 C115 1.229 . S
C573 C71 1.227 1_565 S
C575 C31 1.227 1_565 S
C584 C50 1.229 . S
C586 C6 1.229 . S
C595 C117 1.228 . S
C597 C161 1.228 . S
C606 C141 1.224 1_655 S
C608 C93 1.225 1_655 S
C617 C181 1.224 1_556 S
C619 C207 1.225 1_556 S
C628 C183 1.229 1_556 S
C630 C229 1.229 1_556 S
C639 C226 1.226 1_556 S
C641 C249 1.226 1_556 S
C650 C247 1.228 . S
C652 C204 1.228 . S
C661 C273 1.225 . S
C663 C402 1.226 . S
C672 C423 1.226 . S
C674 C292 1.226 . S
C683 C317 1.230 . S
C685 C359 1.229 . S
C694 C337 1.227 . S
C696 C379 1.227 . S
C705 C335 1.225 . S
C707 C295 1.226 . S
C716 C314 1.229 . S
C718 C270 1.228 . S
C727 C381 1.228 . S
C729 C425 1.228 . S
C738 C405 1.227 . S
C740 C357 1.227 . S
C749 C445 1.224 . S
C751 C469 1.225 . S
C760 C493 1.229 . S
C762 C447 1.229 . S
C771 C490 1.226 . S
C773 C513 1.227 . S
C782 C511 1.229 . S
C784 C467 1.229 . S
C793 C512 1.191 . S
C795 C7 1.192 . S
C804 C470 1.198 . S
C806 C26 1.186 . S
C815 C51 1.189 . S
C817 C448 1.197 . S
C826 C74 1.196 . S
C828 C488 1.193 . S
C837 C491 1.189 . S
C839 C96 1.193 . S
C848 C116 1.189 . S
C850 C514 1.193 . S
C859 C468 1.187 . S
C861 C136 1.199 . S
C870 C160 1.198 . S
C872 C446 1.191 . S
C881 C358 1.192 . S
C883 C72 1.191 . S
C892 C4 1.190 . S
C894 C382 1.197 . S
C903 C29 1.188 . S
C905 C403 1.198 . S
C914 C48 1.193 . S
C916 C426 1.190 . S
C925 C268 1.197 . S
C927 C118 1.192 . S
C936 C139 1.190 . S
C938 C293 1.192 . S
C947 C162 1.190 . S
C949 C312 1.192 . S
C958 C94 1.192 . S
C960 C336 1.195 . S
C969 C424 1.193 . S
C971 C182 1.190 . S
C980 C205 1.189 . S
C982 C290 1.198 . S
C991 C315 1.190 . S
C993 C184 1.197 . S
C1002 C338 1.192 . S
C1004 C224 1.196 . S
C1013 C248 1.193 . S
C1015 C271 1.195 . S
C1024 C380 1.192 . S
C1026 C250 1.191 . S
C1035 C400 1.191 . S
C1037 C202 1.192 . S
C1046 C360 1.196 . S
C1048 C227 1.188 . S
C1057 C97 1.198 . S
C1059 C449 1.191 . S
C1068 C114 1.193 . S
C1070 C489 1.195 . S
C1079 C137 1.198 . S
C1081 C510 1.187 . S
C1090 C471 1.188 . S
C1092 C158 1.194 . S
C1101 C466 1.197 . S
C1103 C8 1.192 . S
C1112 C27 1.188 . S
C1114 C444 1.198 . S
C1123 C52 1.198 . S
C1125 C492 1.187 . S
C1134 C515 1.190 . S
C1136 C75 1.193 . S
C1145 C269 1.194 . S
C1147 C163 1.194 . S
C1156 C92 1.198 . S
C1158 C294 1.186 . S
C1167 C313 1.196 . S
C1169 C119 1.188 . S
C1178 C334 1.190 . S
C1180 C140 1.196 . S
C1189 C356 1.192 . S
C1191 C30 1.192 . S
C1200 C49 1.194 . S
C1202 C383 1.194 . S
C1211 C404 1.188 . S
C1213 C70 1.199 . S
C1222 C427 1.196 . S
C1224 C5 1.189 . S
C1233 C251 1.193 . S
C1235 C339 1.195 . S
C1244 C225 1.192 . S
C1246 C378 1.190 . S
C1255 C401 1.191 . S
C1257 C246 1.192 . S
C1266 C206 1.188 . S
C1268 C422 1.195 . S
C1277 C185 1.188 . S
C1279 C361 1.195 . S
C1288 C291 1.190 . S
C1290 C180 1.197 . S
C1299 C228 1.198 . S
C1301 C316 1.191 . S
C1310 C272 1.190 . S
C1312 C203 1.197 . S
