# Generated by pormake.
# Topology sxb, (6)-cn, num edge types: 1
# Building blocks:
#     Node 0, Type 0, BuildingBlock: BETFEN_clean_sbu_0, # of connection points: 6
#     Node 1, Type 0, BuildingBlock: BETFEN_clean_sbu_0, # of connection points: 6
#     Node 2, Type 0, BuildingBlock: BETFEN_clean_sbu_0, # of connection points: 6
#     Node 3, Type 0, BuildingBlock: BETFEN_clean_sbu_0, # of connection points: 6
#     Edge 4, Type (0, 0), BuildingBlock: FUNLAD_clean_linker_0, # of connection points: 2
#     Edge 5, Type (0, 0), BuildingBlock: FUNLAD_clean_linker_0, # of connection points: 2
#     Edge 6, Type (0, 0), BuildingBlock: FUNLAD_clean_linker_0, # of connection points: 2
#     Edge 7, Type (0, 0), BuildingBlock: FUNLAD_clean_linker_0, # of connection points: 2
#     Edge 8, Type (0, 0), BuildingBlock: FUNLAD_clean_linker_0, # of connection points: 2
#     Edge 9, Type (0, 0), BuildingBlock: FUNLAD_clean_linker_0, # of connection points: 2
#     Edge 10, Type (0, 0), BuildingBlock: FUNLAD_clean_linker_0, # of connection points: 2
#     Edge 11, Type (0, 0), BuildingBlock: FUNLAD_clean_linker_0, # of connection points: 2
#     Edge 12, Type (0, 0), BuildingBlock: FUNLAD_clean_linker_0, # of connection points: 2
#     Edge 13, Type (0, 0), BuildingBlock: FUNLAD_clean_linker_0, # of connection points: 2
#     Edge 14, Type (0, 0), BuildingBlock: FUNLAD_clean_linker_0, # of connection points: 2
#     Edge 15, Type (0, 0), BuildingBlock: FUNLAD_clean_linker_0, # of connection points: 2
# Relax obj value: 0.335
# Max RMSD: 0.115
# Mean RMSD: 0.075
data_MOF--net-sxb--node1-BETFEN_clean_sbu_0--edge1-FUNLAD_clean_linker_0
_symmetry_space_group_name_H-M    P1
_symmetry_Int_Tables_number       1
_symmetry_cell_setting            triclinic
loop_
_symmetry_equiv_pos_as_xyz
'x, y, z'
_cell_length_a     19.023104
_cell_length_b     39.62955
_cell_length_c     35.32705
_cell_angle_alpha  93.195769
_cell_angle_beta   93.04547
_cell_angle_gamma 68.511688
loop_
_atom_site_label
_atom_site_type_symbol
_atom_site_fract_x
_atom_site_fract_y
_atom_site_fract_z
_atom_type_partial_charge
Pr0 Pr 1.04374 1.04947 -0.01033 0.0
Pr1 Pr 0.18138 1.05478 -0.00722 0.0
C2 C 0.91396 1.03698 0.98238 0.0
C3 C 0.85533 1.04911 0.95198 0.0
C4 C 0.82148 1.02543 0.93587 0.0
C5 C 0.77698 1.03415 0.9024 0.0
C6 C 0.76606 0.06662 0.88439 0.0
C7 C 0.79782 0.09085 0.90147 0.0
C8 C 0.84207 0.08216 0.93486 0.0
C9 C 1.08566 0.06081 0.91695 0.0
C10 C 1.03081 0.13215 -0.00371 0.0
C11 C 0.30445 0.06916 0.97763 0.0
C12 C 0.3354 0.07119 0.94095 0.0
C13 C 0.41368 1.05703 0.93645 0.0
C14 C 0.44303 1.05608 0.90081 0.0
C15 C 0.39443 0.06946 0.86921 0.0
C16 C 0.31604 0.08393 0.87385 0.0
C17 C 0.2867 0.08449 0.90936 0.0
C18 C 0.14919 1.0432 0.06682 0.0
C19 C 0.18779 0.97292 -0.00909 0.0
O20 O 0.92235 0.06227 0.00542 0.0
O21 O 0.97829 1.01339 0.97123 0.0
O22 O 0.12634 1.03775 0.93971 0.0
O23 O 1.02302 0.08052 0.93229 0.0
O24 O 1.10041 0.11668 0.98425 0.0
O25 O 0.99619 0.1112 0.00672 0.0
O26 O 0.23959 0.09445 0.9854 0.0
O27 O 0.3079 1.03698 0.98601 0.0
O28 O 0.10133 0.06454 0.04439 0.0
O29 O 0.2143 1.02855 0.05161 0.0
O30 O 0.1221 0.98994 0.00662 0.0
O31 O 0.2197 0.9927 0.97509 0.0
H32 H 0.83183 0.99961 0.94835 0.0
H33 H 0.75223 1.01518 0.89027 0.0
H34 H 0.79125 0.11587 0.88819 0.0
H35 H 0.86865 0.10065 0.94635 0.0
H36 H 0.45198 1.04626 0.96037 0.0
H37 H 0.50378 1.04513 0.89796 0.0
H38 H 0.27749 0.09415 0.84986 0.0
H39 H 0.22589 0.09484 0.91199 0.0
Pr40 Pr 0.1414 1.02139 0.49615 0.0
Pr41 Pr 1.07017 0.09488 0.49035 0.0
C42 C 0.18596 0.9508 0.51217 0.0
C43 C 0.14846 0.92438 0.50702 0.0
C44 C 0.18638 0.89026 0.48964 0.0
C45 C 0.14691 0.8676 0.47827 0.0
C46 C 1.06888 0.87894 0.48396 0.0
C47 C 1.03218 0.91243 0.50309 0.0
C48 C 1.07163 0.93482 0.51462 0.0
C49 C 0.12593 1.04028 0.41972 0.0
C50 C 0.94894 1.05434 0.48941 0.0
C51 C 1.0175 0.16634 0.47702 0.0
C52 C 1.03406 0.19795 0.49152 0.0
C53 C 0.10228 0.19338 0.5115 0.0
C54 C 0.11683 0.22356 0.52639 0.0
C55 C 1.06307 0.25876 0.52179 0.0
C56 C 0.99425 0.26309 0.50214 0.0
C57 C 0.97987 0.23282 0.48713 0.0
C58 C 1.08892 0.07528 0.56667 0.0
C59 C 0.26347 0.06161 0.49476 0.0
O60 O 0.15801 0.97721 0.53737 0.0
O61 O 0.202 0.96185 0.48081 0.0
O62 O 1.07357 1.05205 0.44318 0.0
O63 O 0.18826 1.01923 0.43573 0.0
O64 O 0.95799 0.08295 0.47641 0.0
O65 O 1.01029 1.02804 0.50247 0.0
O66 O 1.0694 0.14209 0.45687 0.0
O67 O 0.98848 0.1521 0.50136 0.0
O68 O 0.14012 0.06464 0.54268 0.0
O69 O 1.02531 0.09539 0.55123 0.0
O70 O 0.2559 1.03192 0.50579 0.0
O71 O 0.20112 0.08895 0.48425 0.0
H72 H 0.24569 0.88182 0.48346 0.0
H73 H 0.17696 0.84171 0.46411 0.0
H74 H 0.97196 0.92232 0.50748 0.0
H75 H 1.04102 0.96104 0.52792 0.0
H76 H 0.14436 0.1665 0.51544 0.0
H77 H 0.17101 0.21932 0.5407 0.0
H78 H 0.95161 0.28983 0.49839 0.0
H79 H 0.92645 0.2366 0.47218 0.0
Pr80 Pr 0.55647 0.55057 0.986 0.0
Pr81 Pr 0.6927 0.55698 0.98746 0.0
C82 C 0.43465 0.53568 0.0024 0.0
C83 C 0.40272 0.53494 0.03919 0.0
C84 C 0.32423 0.5484 0.04289 0.0
C85 C 0.29371 0.55018 0.07838 0.0
C86 C 0.34135 0.53832 0.11064 0.0
C87 C 0.41998 0.52469 0.10686 0.0
C88 C 0.45046 0.52331 0.07147 0.0
C89 C 0.58647 0.56105 0.91089 0.0
C90 C 0.54718 0.6328 0.98725 0.0
C91 C 0.82099 0.57075 -0.00666 0.0
C92 C 0.88074 0.5585 0.02322 0.0
C93 C 0.91185 0.5828 0.04048 0.0
C94 C 0.95608 0.57394 0.07402 0.0
C95 C 0.96944 0.54071 0.09097 0.0
C96 C 0.9408 0.51582 0.07264 0.0
C97 C 0.89688 0.52463 0.03917 0.0
C98 C 0.65865 0.5428 0.06062 0.0
C99 C 0.70792 0.4738 0.98064 0.0
O100 O 0.5004 0.51056 -0.00411 0.0
O101 O 0.42998 0.56758 -0.00766 0.0
O102 O 0.63503 0.54064 0.9337 0.0
O103 O 0.52158 0.57573 0.92634 0.0
O104 O 0.61201 0.6161 0.97072 0.0
O105 O 0.51701 0.61271 0.00379 0.0
O106 O 0.81257 0.54563 0.97002 0.0
O107 O 0.75675 0.59381 0.00528 0.0
O108 O 0.61401 0.5663 0.03922 0.0
O109 O 0.72034 0.52479 0.04361 0.0
O110 O 0.63856 0.48875 -0.00692 0.0
O111 O 0.74153 0.4952 0.97013 0.0
H112 H 0.28663 0.55788 0.01841 0.0
H113 H 0.23282 0.56045 0.08058 0.0
H114 H 0.45776 0.51564 0.13136 0.0
H115 H 0.51136 0.51351 0.06943 0.0
H116 H 0.89924 0.60923 0.02894 0.0
H117 H 0.97847 0.59344 0.0871 0.0
H118 H 0.94931 0.49018 0.08506 0.0
H119 H 0.87248 0.50559 0.02681 0.0
Pr120 Pr 0.62447 0.52426 0.49014 0.0
Pr121 Pr 0.56312 0.60042 0.48102 0.0
C122 C 0.65546 0.45631 0.51185 0.0
C123 C 0.60412 0.43965 0.52463 0.0
C124 C 0.61125 0.4047 0.51116 0.0
C125 C 0.55322 0.39188 0.51612 0.0
C126 C 0.4872 0.41399 0.53444 0.0
C127 C 0.48261 0.44804 0.55008 0.0
C128 C 0.54052 0.4608 0.54515 0.0
C129 C 0.62367 0.54132 0.41397 0.0
C130 C 0.43227 0.56431 0.48362 0.0
C131 C 0.51865 0.66969 0.4599 0.0
C132 C 0.55126 0.69359 0.44394 0.0
C133 C 0.50555 0.72959 0.43705 0.0
C134 C 0.53728 0.75325 0.42402 0.0
C135 C 0.61523 0.7411 0.41786 0.0
C136 C 0.66012 0.70448 0.42343 0.0
C137 C 0.62828 0.68089 0.43633 0.0
C138 C 0.561 0.58302 0.55689 0.0
C139 C 0.75555 0.55999 0.48702 0.0
O140 O 0.66494 0.48165 0.53448 0.0
O141 O 0.64516 0.46503 0.47633 0.0
O142 O 0.56928 0.55554 0.43596 0.0
O143 O 0.68107 0.51771 0.43129 0.0
O144 O 0.44523 0.59288 0.47308 0.0
O145 O 0.49083 0.53558 0.49474 0.0
O146 O 0.51469 0.64318 0.43735 0.0
O147 O 0.54128 0.65978 0.49448 0.0
O148 O 0.61672 0.56918 0.53562 0.0
O149 O 0.50415 0.60622 0.53892 0.0
O150 O 0.74266 0.53141 0.49775 0.0
O151 O 0.69694 0.58883 0.4759 0.0
H152 H 0.65971 0.38815 0.49507 0.0
H153 H 0.55864 0.36527 0.50429 0.0
H154 H 0.43222 0.46583 0.56398 0.0
H155 H 0.53337 0.48809 0.55547 0.0
H156 H 0.44572 0.73958 0.44255 0.0
H157 H 0.50127 0.78122 0.41968 0.0
H158 H 0.72054 0.69441 0.41958 0.0
H159 H 0.66412 0.65304 0.44137 0.0
C160 C 0.43853 0.69164 0.00357 0.0
C161 C 0.50849 0.67341 0.98647 0.0
C162 C 0.40255 0.72974 0.00261 0.0
C163 C 0.43549 0.75094 0.98441 0.0
C164 C 0.50546 0.73248 0.96744 0.0
C165 C 0.54124 0.69454 0.96841 0.0
C166 C 0.40054 0.79193 0.98224 0.0
C167 C 0.33281 0.81372 -0.00381 0.0
C168 C 0.29803 0.85472 -0.00606 0.0
C169 C 0.22727 0.87327 0.01015 0.0
C170 C 0.19182 0.91125 0.00911 0.0
C171 C 0.22576 0.93228 -0.00824 0.0
H172 H 0.38618 0.86345 0.96348 0.0
C173 C 0.29648 0.91395 0.97544 0.0
C174 C 0.33209 0.87586 0.97647 0.0
H175 H 0.32464 0.92906 0.9618 0.0
H176 H 0.41133 0.67644 0.01779 0.0
H177 H 0.34916 0.74213 0.01628 0.0
H178 H 0.53299 0.74753 0.95318 0.0
H179 H 0.59491 0.68176 0.95489 0.0
H180 H 0.43337 0.80444 0.96809 0.0
H181 H 0.29986 0.8012 0.01023 0.0
H182 H 0.19889 0.85828 0.02385 0.0
H183 H 0.13755 0.92413 0.02203 0.0
C184 C 0.71716 0.40958 -0.00662 0.0
C185 C 0.74983 0.43333 0.9804 0.0
C186 C 0.75786 0.37176 -0.00613 0.0
C187 C 0.83289 0.35642 0.9814 0.0
C188 C 0.86487 0.38035 0.96826 0.0
C189 C 0.82436 0.41799 0.96782 0.0
C190 C 0.88018 0.31614 0.98097 0.0
C191 C 0.86029 0.28993 -0.00457 0.0
C192 C 0.90733 0.24963 -0.00496 0.0
C193 C 0.87501 0.22591 0.00832 0.0
C194 C 0.91511 0.18827 0.00887 0.0
C195 C 0.98958 0.17267 -0.00375 0.0
H196 H 1.01061 0.25077 0.97228 0.0
C197 C 1.02263 0.1962 0.98309 0.0
C198 C 0.98228 0.23407 0.98248 0.0
H199 H 1.07978 0.18535 0.9731 0.0
H200 H 0.65997 0.42022 0.00333 0.0
H201 H 0.72967 0.35495 0.00393 0.0
H202 H 0.9221 0.36991 0.95833 0.0
H203 H 0.85194 0.43511 0.95765 0.0
H204 H 0.93456 0.30808 0.96799 0.0
H205 H 0.80595 0.29802 0.00844 0.0
H206 H 0.81783 0.23652 0.01831 0.0
H207 H 0.88721 0.17134 0.01919 0.0
C208 C 1.06585 0.32017 0.51154 0.0
C209 C 1.08185 0.29064 0.53507 0.0
C210 C 1.09662 0.34673 0.52039 0.0
C211 C 0.14481 0.34386 0.55264 0.0
C212 C 0.15409 0.31658 0.57816 0.0
C213 C 0.12302 0.29009 0.56942 0.0
C214 C 0.19385 0.3655 0.55781 0.0
C215 C 0.22344 0.37433 0.5278 0.0
C216 C 0.28918 0.38597 0.53067 0.0
C217 C 0.33368 0.38001 0.49877 0.0
C218 C 0.39862 0.38847 0.50034 0.0
C219 C 0.42037 0.40333 0.53387 0.0
H220 H 0.27622 0.40736 0.58904 0.0
C221 C 0.3752 0.41001 0.56569 0.0
C222 C 0.31002 0.40149 0.56413 0.0
H223 H 0.39038 0.42171 0.59183 0.0
H224 H 1.0338 0.32156 0.48502 0.0
H225 H 1.08589 0.36835 0.5009 0.0
H226 H 0.18988 0.31419 0.60355 0.0
H227 H 0.13438 0.26819 0.58863 0.0
H228 H 0.2158 0.36838 0.58629 0.0
H229 H 0.20567 0.36818 0.49935 0.0
H230 H 0.3187 0.3683 0.47255 0.0
H231 H 0.4311 0.38394 0.47502 0.0
C232 C 0.96267 0.85644 0.4872 0.0
C233 C 1.02395 0.8577 0.46761 0.0
C234 C 0.91356 0.8411 0.46977 0.0
C235 C 0.92519 0.82633 0.43254 0.0
C236 C 0.98892 0.82533 0.41376 0.0
C237 C 1.03759 0.84129 0.43098 0.0
C238 C 0.87201 0.81087 0.41388 0.0
C239 C 0.79697 0.82771 0.41737 0.0
C240 C 0.74249 0.80925 0.40973 0.0
C241 C 0.67668 0.8212 0.43071 0.0
C242 C 0.63188 0.80023 0.4312 0.0
C243 C 0.65175 0.76707 0.4103 0.0
H244 H 0.80655 0.7688 0.36792 0.0
C245 C 0.71308 0.75704 0.38616 0.0
C246 C 0.75813 0.77799 0.38579 0.0
H247 H 0.72832 0.73211 0.36891 0.0
H248 H 0.95183 0.86789 0.51582 0.0
H249 H 0.86637 0.84082 0.48546 0.0
H250 H 0.99947 0.81342 0.38529 0.0
H251 H 1.08401 0.84201 0.415 0.0
H252 H 0.89577 0.78442 0.39959 0.0
H253 H 0.77598 0.85446 0.43151 0.0
H254 H 0.66288 0.84543 0.44905 0.0
H255 H 0.5851 0.80873 0.45017 0.0
C256 C 0.48181 1.03712 0.8175 0.0
C257 C 0.42596 0.06886 0.83173 0.0
C258 C 0.51801 1.03763 0.78432 0.0
C259 C 0.49997 0.07006 0.76526 0.0
C260 C 0.4409 0.10127 0.77821 0.0
C261 C 0.40382 0.1006 0.81109 0.0
C262 C 0.55146 0.0725 0.73636 0.0
C263 C 0.58645 0.09609 0.74435 0.0
C264 C 0.64022 0.08932 0.77773 0.0
C265 C 0.63272 0.11728 0.80525 0.0
C266 C 0.67391 0.11002 0.83972 0.0
C267 C 0.72391 0.07467 0.8473 0.0
H268 H 0.70025 1.03225 0.76379 0.0
C269 C 0.73389 1.04705 0.81904 0.0
C270 C 0.69263 1.0543 0.7846 0.0
H271 H 0.77342 1.01974 0.82358 0.0
H272 H 0.49908 1.01221 0.83271 0.0
H273 H 0.56369 1.01329 0.77503 0.0
H274 H 0.42605 0.12659 0.76397 0.0
H275 H 0.3608 0.1254 0.82152 0.0
H276 H 0.58692 1.04618 0.72461 0.0
H277 H 0.55093 0.12448 0.74142 0.0
H278 H 0.59235 0.14445 0.80083 0.0
H279 H 0.66472 0.13189 0.86092 0.0
C280 C 0.4091 1.03421 0.50374 0.0
C281 C 0.34249 0.06373 0.49361 0.0
C282 C 0.48257 1.0358 0.50211 0.0
C283 C 0.49318 0.0671 0.4902 0.0
C284 C 0.4264 0.09654 0.48023 0.0
C285 C 0.35316 0.09495 0.48186 0.0
C286 C 0.57088 0.07085 0.48743 0.0
C287 C 0.64109 1.04549 0.4962 0.0
C288 C 0.71883 1.04921 0.49353 0.0
C289 C 0.7852 1.02034 0.50515 0.0
C290 C 0.85848 1.02186 0.50364 0.0
C291 C 0.86974 1.05235 0.49026 0.0
H292 H 0.68209 0.10287 0.47051 0.0
C293 C 0.80357 0.08128 0.47839 0.0
C294 C 0.72996 0.07981 0.47999 0.0
H295 H 0.80848 0.10545 0.46791 0.0
H296 H 0.40465 1.00948 0.51293 0.0
H297 H 0.53074 1.01222 0.51016 0.0
H298 H 0.43069 0.12127 0.47091 0.0
H299 H 0.30461 0.11841 0.47373 0.0
H300 H 0.56911 0.09655 0.47748 0.0
H301 H 0.64282 1.01987 0.50634 0.0
H302 H 0.78056 0.99614 0.51573 0.0
H303 H 0.90657 0.99889 0.51317 0.0
C304 C 1.06264 0.49749 0.13541 0.0
C305 C 1.01059 0.53253 0.1283 0.0
C306 C 0.10278 0.49016 0.17017 0.0
C307 C 1.09219 0.51776 0.19845 0.0
C308 C 1.03775 0.5524 0.19199 0.0
C309 C 0.9975 0.5597 0.15728 0.0
C310 C 0.14498 0.51125 0.2322 0.0
C311 C 0.17795 0.53552 0.24095 0.0
C312 C 0.23113 0.53825 0.21316 0.0
C313 C 0.21265 0.57041 0.19356 0.0
C314 C 0.25056 0.57084 0.16094 0.0
C315 C 0.30852 0.53933 0.14786 0.0
H316 H 0.30757 0.48227 0.21615 0.0
C317 C 0.3311 0.50799 0.16917 0.0
C318 C 0.29236 0.50738 0.20148 0.0
H319 H 0.37571 0.48336 0.15961 0.0
H320 H 1.07423 0.47596 0.11368 0.0
H321 H 0.14478 0.4633 0.17424 0.0
H322 H 1.02773 0.57415 0.21337 0.0
H323 H 0.95634 0.58672 0.15309 0.0
H324 H 0.18172 0.48298 0.23474 0.0
H325 H 0.14059 0.56172 0.25207 0.0
H326 H 0.16533 0.59448 0.20187 0.0
H327 H 0.23285 0.59544 0.14519 0.0
C328 C 0.3314 0.53601 0.49422 0.0
C329 C 0.35065 0.56534 0.48326 0.0
C330 C 0.25476 0.53802 0.49365 0.0
C331 C 0.19386 0.56954 0.48206 0.0
C332 C 0.2138 0.59857 0.47117 0.0
C333 C 0.28971 0.59658 0.47174 0.0
C334 C 0.10946 0.57427 0.48051 0.0
C335 C 1.07872 0.54958 0.48992 0.0
C336 C 0.99427 0.55438 0.4884 0.0
C337 C 0.97412 0.52549 0.4995 0.0
C338 C 0.89811 0.5276 0.49897 0.0
C339 C 0.83729 0.55881 0.48726 0.0
H340 H 0.94455 0.60905 0.46768 0.0
C341 C 0.85679 0.58798 0.47604 0.0
C342 C 0.93351 0.58586 0.47659 0.0
H343 H 0.81264 0.61263 0.46676 0.0
H344 H 0.37568 0.51133 0.50328 0.0
H345 H 0.2439 0.51471 0.50235 0.0
H346 H 0.16994 0.62339 0.46203 0.0
H347 H 0.30047 0.61996 0.46303 0.0
H348 H 1.07043 0.60019 0.47088 0.0
H349 H 0.11774 0.52366 0.49958 0.0
H350 H 1.01786 0.5007 0.5088 0.0
H351 H 0.8872 0.50433 0.50788 0.0
C352 C 0.17827 1.02906 0.35464 0.0
C353 C 0.11612 1.04512 0.37797 0.0
C354 C 0.17052 1.03277 0.31527 0.0
C355 C 1.09994 1.05248 0.29784 0.0
C356 C 1.03802 0.06917 0.32134 0.0
C357 C 1.04586 0.06542 0.3609 0.0
C358 C 1.09013 1.05714 0.25567 0.0
C359 C 0.13605 1.03335 0.23039 0.0
C360 C 0.13358 1.03701 0.18816 0.0
C361 C 0.19321 1.01203 0.16767 0.0
C362 C 0.19672 1.0141 0.12852 0.0
C363 C 0.14036 1.04109 0.10821 0.0
H364 H 1.02842 0.08351 0.18215 0.0
C365 C 1.07925 0.06577 0.12818 0.0
C366 C 1.07596 0.06389 0.16782 0.0
H367 H 1.03482 0.08686 0.11332 0.0
H368 H 0.23348 1.01363 0.36684 0.0
H369 H 0.22063 1.02064 0.29882 0.0
H370 H 0.98315 0.08493 0.30902 0.0
H371 H 0.99692 0.07834 0.37808 0.0
H372 H 1.04359 0.08061 0.24561 0.0
H373 H 0.18002 1.00928 0.24122 0.0
H374 H 0.23837 0.99088 0.18211 0.0
H375 H 0.24436 0.99445 0.11411 0.0
C376 C 1.06704 0.09039 0.85423 0.0
C377 C 1.09724 0.05901 0.87553 0.0
C378 C 1.07314 0.08826 0.81463 0.0
C379 C 0.1075 1.05453 0.79546 0.0
C380 C 0.13814 1.02325 0.81683 0.0
C381 C 0.13449 1.02555 0.85651 0.0
C382 C 0.10502 1.05102 0.75321 0.0
C383 C 0.12486 0.07234 0.73086 0.0
C384 C 0.11815 0.06984 0.68859 0.0
C385 C 0.1765 0.07109 0.66652 0.0
C386 C 0.16877 0.0711 0.62672 0.0
C387 C 0.10122 0.07137 0.60832 0.0
H388 H 1.00522 0.06846 0.68625 0.0
C389 C 1.04288 0.07017 0.63039 0.0
C390 C 1.05163 0.06885 0.67003 0.0
H391 H 0.99012 0.07047 0.61695 0.0
H392 H 1.03796 0.11651 0.86819 0.0
H393 H 1.04802 0.11275 0.79885 0.0
H394 H 0.16433 0.9969 0.80274 0.0
H395 H 0.15791 1.00089 0.87214 0.0
H396 H 1.08836 1.02946 0.74016 0.0
H397 H 0.14857 0.09152 0.74383 0.0
H398 H 0.22808 0.07216 0.68012 0.0
H399 H 0.2144 0.07234 0.61045 0.0
C400 C 0.68024 0.52642 0.34958 0.0
C401 C 0.61841 0.54582 0.37212 0.0
C402 C 0.67557 0.52974 0.31008 0.0
C403 C 0.60849 0.55249 0.2918 0.0
C404 C 0.5472 0.57245 0.31456 0.0
C405 C 0.55192 0.56908 0.35414 0.0
C406 C 0.60136 0.55705 0.24953 0.0
C407 C 0.64581 0.53246 0.22433 0.0
C408 C 0.64412 0.53631 0.18212 0.0
C409 C 0.7046 0.51184 0.16169 0.0
C410 C 0.70804 0.51396 0.12249 0.0
C411 C 0.6508 0.54052 0.10211 0.0
H412 H 0.53716 0.58169 0.17587 0.0
C413 C 0.58901 0.56468 0.12206 0.0
C414 C 0.58566 0.56268 0.16167 0.0
H415 H 0.54367 0.58531 0.10713 0.0
H416 H 0.73266 0.50859 0.36249 0.0
H417 H 0.72539 0.51483 0.29427 0.0
H418 H 0.49507 0.59055 0.30165 0.0
H419 H 0.50334 0.58462 0.37065 0.0
H420 H 0.55766 0.58144 0.23922 0.0
H421 H 0.68777 0.50776 0.23509 0.0
H422 H 0.75037 0.49106 0.17623 0.0
H423 H 0.75635 0.49477 0.10816 0.0
C424 C 0.62955 0.55882 0.61909 0.0
C425 C 0.56271 0.57847 0.59865 0.0
C426 C 0.62965 0.55613 0.65878 0.0
C427 C 0.56255 0.57292 0.67888 0.0
C428 C 0.49593 0.59192 0.65801 0.0
C429 C 0.49601 0.59478 0.6187 0.0
C430 C 0.55746 0.57146 0.72111 0.0
C431 C 0.61647 0.56005 0.7466 0.0
C432 C 0.60768 0.56075 0.78886 0.0
C433 C 0.66844 0.53914 0.81198 0.0
C434 C 0.66237 0.53924 0.85156 0.0
C435 C 0.59536 0.56115 0.86913 0.0
H436 H 0.49381 0.60147 0.79083 0.0
C437 C 0.53523 0.58329 0.84622 0.0
C438 C 0.54125 0.58325 0.8068 0.0
H439 H 0.48307 0.60089 0.85879 0.0
H440 H 0.68189 0.54578 0.60447 0.0
H441 H 0.68217 0.54071 0.6733 0.0
H442 H 0.44315 0.60504 0.67227 0.0
H443 H 0.44337 0.60996 0.60397 0.0
H444 H 0.50064 0.58093 0.73158 0.0
H445 H 0.67364 0.54953 0.73652 0.0
H446 H 0.72076 0.52183 0.79934 0.0
H447 H 0.70997 0.52199 0.86834 0.0
loop_
_geom_bond_atom_site_label_1
_geom_bond_atom_site_label_2
_geom_bond_distance
_geom_bond_site_symmetry_2
_ccdc_geom_bond_type
Pr0 C2 2.880 . S
Pr0 O20 2.562 1_566 S
Pr0 O21 2.490 . S
Pr0 O22 2.695 1_655 S
Pr0 O23 2.512 . S
Pr0 O25 2.437 1_565 S
Pr0 O28 2.436 1_566 S
Pr0 O30 2.438 1_655 S
Pr1 C11 2.880 . S
Pr1 O22 2.436 1_544 S
Pr1 O24 2.438 1_455 S
Pr1 O26 2.562 1_544 S
Pr1 O27 2.490 . S
Pr1 O28 2.695 1_455 S
Pr1 O29 2.512 . S
Pr1 O31 2.437 1_545 S
C2 Pr0 2.880 . S
C2 C3 1.491 1_565 S
C2 O20 1.254 1_566 S
C2 O21 1.225 . S
C3 C2 1.491 1_545 S
C3 C4 1.392 . S
C3 C8 1.356 1_556 S
C4 C3 1.392 . S
C4 C5 1.368 . S
C4 H32 0.929 1_545 S
C5 C4 1.368 . S
C5 C6 1.386 . S
C5 H33 0.929 . S
C6 C5 1.386 . S
C6 C7 1.373 1_556 S
C7 C6 1.373 1_554 S
C7 C8 1.409 . S
C7 H34 0.931 . S
C8 C3 1.356 1_554 S
C8 C7 1.409 . S
C8 H35 0.930 . S
C9 O22 1.270 1_655 S
C9 O23 1.248 . S
C10 O24 1.267 1_556 S
C10 O25 1.278 . S
C11 Pr1 2.880 . S
C11 C12 1.491 1_545 S
C11 O26 1.254 1_544 S
C11 O27 1.225 . S
C12 C11 1.491 1_565 S
C12 C13 1.392 . S
C12 C17 1.356 1_554 S
C13 C12 1.392 . S
C13 C14 1.368 . S
C13 H36 0.929 1_565 S
C14 C13 1.368 . S
C14 C15 1.386 . S
C14 H37 0.929 . S
C15 C14 1.386 . S
C15 C16 1.373 1_554 S
C16 C15 1.373 1_556 S
C16 C17 1.409 . S
C16 H38 0.931 . S
C17 C12 1.356 1_556 S
C17 C16 1.409 . S
C17 H39 0.930 . S
C18 O28 1.270 1_455 S
C18 O29 1.248 . S
C19 O30 1.267 1_554 S
C19 O31 1.278 . S
O20 Pr0 2.562 1_544 S
O20 C2 1.254 1_544 S
O21 Pr0 2.490 . S
O21 C2 1.225 . S
O22 Pr0 2.695 1_455 S
O22 Pr1 2.436 1_566 S
O22 C9 1.270 1_455 S
O23 Pr0 2.512 . S
O23 C9 1.248 . S
O24 Pr1 2.438 1_655 S
O24 C10 1.267 1_554 S
O25 Pr0 2.437 1_545 S
O25 C10 1.278 . S
O26 Pr1 2.562 1_566 S
O26 C11 1.254 1_566 S
O27 Pr1 2.490 . S
O27 C11 1.225 . S
O28 Pr0 2.436 1_544 S
O28 Pr1 2.695 1_655 S
O28 C18 1.270 1_655 S
O29 Pr1 2.512 . S
O29 C18 1.248 . S
O30 Pr0 2.438 1_455 S
O30 C19 1.267 1_556 S
O31 Pr1 2.437 1_565 S
O31 C19 1.278 . S
H32 C4 0.929 1_565 S
H33 C5 0.929 . S
H34 C7 0.931 . S
H35 C8 0.930 . S
H36 C13 0.929 1_545 S
H37 C14 0.929 . S
H38 C16 0.931 . S
H39 C17 0.930 . S
Pr40 C42 2.880 1_455 S
Pr40 O60 2.562 1_455 S
Pr40 O61 2.490 1_455 S
Pr40 O62 2.695 1_565 S
Pr40 O63 2.512 . S
Pr40 O65 2.437 1_455 S
Pr40 O68 2.436 1_455 S
Pr40 O70 2.438 . S
Pr41 C51 2.880 1_655 S
Pr41 O62 2.436 1_655 S
Pr41 O64 2.438 . S
Pr41 O66 2.562 1_655 S
Pr41 O67 2.490 1_655 S
Pr41 O68 2.695 1_545 S
Pr41 O69 2.512 . S
Pr41 O71 2.437 1_655 S
C42 Pr40 2.880 1_655 S
C42 C43 1.491 . S
C42 O60 1.254 . S
C42 O61 1.225 . S
C43 C42 1.491 . S
C43 C44 1.392 . S
C43 C48 1.356 . S
C44 C43 1.392 . S
C44 C45 1.368 . S
C44 H72 0.929 . S
C45 C44 1.368 . S
C45 C46 1.386 . S
C45 H73 0.929 . S
C46 C45 1.386 . S
C46 C47 1.373 . S
C47 C46 1.373 . S
C47 C48 1.409 . S
C47 H74 0.931 . S
C48 C43 1.356 . S
C48 C47 1.409 . S
C48 H75 0.930 . S
C49 O62 1.270 1_565 S
C49 O63 1.248 . S
C50 O64 1.267 . S
C50 O65 1.278 1_545 S
C51 Pr41 2.880 1_455 S
C51 C52 1.491 . S
C51 O66 1.254 . S
C51 O67 1.225 . S
C52 C51 1.491 . S
C52 C53 1.392 . S
C52 C57 1.356 . S
C53 C52 1.392 . S
C53 C54 1.368 . S
C53 H76 0.929 . S
C54 C53 1.368 . S
C54 C55 1.386 . S
C54 H77 0.929 . S
C55 C54 1.386 . S
C55 C56 1.373 . S
C56 C55 1.373 . S
C56 C57 1.409 . S
C56 H78 0.931 . S
C57 C52 1.356 . S
C57 C56 1.409 . S
C57 H79 0.930 . S
C58 O68 1.270 1_545 S
C58 O69 1.248 . S
C59 O70 1.267 . S
C59 O71 1.278 1_565 S
O60 Pr40 2.562 1_655 S
O60 C42 1.254 . S
O61 Pr40 2.490 1_655 S
O61 C42 1.225 . S
O62 Pr40 2.695 1_545 S
O62 Pr41 2.436 1_455 S
O62 C49 1.270 1_545 S
O63 Pr40 2.512 . S
O63 C49 1.248 . S
O64 Pr41 2.438 . S
O64 C50 1.267 . S
O65 Pr40 2.437 1_655 S
O65 C50 1.278 1_565 S
O66 Pr41 2.562 1_455 S
O66 C51 1.254 . S
O67 Pr41 2.490 1_455 S
O67 C51 1.225 . S
O68 Pr40 2.436 1_655 S
O68 Pr41 2.695 1_565 S
O68 C58 1.270 1_565 S
O69 Pr41 2.512 . S
O69 C58 1.248 . S
O70 Pr40 2.438 . S
O70 C59 1.267 . S
O71 Pr41 2.437 1_455 S
O71 C59 1.278 1_545 S
H72 C44 0.929 . S
H73 C45 0.929 . S
H74 C47 0.931 . S
H75 C48 0.930 . S
H76 C53 0.929 . S
H77 C54 0.929 . S
H78 C56 0.931 . S
H79 C57 0.930 . S
Pr80 C82 2.880 . S
Pr80 O100 2.562 1_556 S
Pr80 O101 2.490 . S
Pr80 O102 2.695 . S
Pr80 O103 2.512 . S
Pr80 O105 2.437 . S
Pr80 O108 2.436 1_556 S
Pr80 O110 2.438 . S
Pr81 C91 2.880 . S
Pr81 O102 2.436 1_554 S
Pr81 O104 2.438 . S
Pr81 O106 2.562 1_554 S
Pr81 O107 2.490 . S
Pr81 O108 2.695 . S
Pr81 O109 2.512 . S
Pr81 O111 2.437 . S
C82 Pr80 2.880 . S
C82 C83 1.491 . S
C82 O100 1.254 1_556 S
C82 O101 1.225 . S
C83 C82 1.491 . S
C83 C84 1.392 . S
C83 C88 1.356 1_556 S
C84 C83 1.392 . S
C84 C85 1.368 . S
C84 H112 0.929 . S
C85 C84 1.368 . S
C85 C86 1.386 . S
C85 H113 0.929 . S
C86 C85 1.386 . S
C86 C87 1.373 1_556 S
C87 C86 1.373 1_554 S
C87 C88 1.409 . S
C87 H114 0.931 . S
C88 C83 1.356 1_554 S
C88 C87 1.409 . S
C88 H115 0.930 . S
C89 O102 1.270 . S
C89 O103 1.248 . S
C90 O104 1.267 1_556 S
C90 O105 1.278 . S
C91 Pr81 2.880 . S
C91 C92 1.491 . S
C91 O106 1.254 1_554 S
C91 O107 1.225 . S
C92 C91 1.491 . S
C92 C93 1.392 . S
C92 C97 1.356 1_554 S
C93 C92 1.392 . S
C93 C94 1.368 . S
C93 H116 0.929 . S
C94 C93 1.368 . S
C94 C95 1.386 . S
C94 H117 0.929 . S
C95 C94 1.386 . S
C95 C96 1.373 1_554 S
C96 C95 1.373 1_556 S
C96 C97 1.409 . S
C96 H118 0.931 . S
C97 C92 1.356 1_556 S
C97 C96 1.409 . S
C97 H119 0.930 . S
C98 O108 1.270 . S
C98 O109 1.248 . S
C99 O110 1.267 1_554 S
C99 O111 1.278 . S
O100 Pr80 2.562 1_554 S
O100 C82 1.254 1_554 S
O101 Pr80 2.490 . S
O101 C82 1.225 . S
O102 Pr80 2.695 . S
O102 Pr81 2.436 1_556 S
O102 C89 1.270 . S
O103 Pr80 2.512 . S
O103 C89 1.248 . S
O104 Pr81 2.438 . S
O104 C90 1.267 1_554 S
O105 Pr80 2.437 . S
O105 C90 1.278 . S
O106 Pr81 2.562 1_556 S
O106 C91 1.254 1_556 S
O107 Pr81 2.490 . S
O107 C91 1.225 . S
O108 Pr80 2.436 1_554 S
O108 Pr81 2.695 . S
O108 C98 1.270 . S
O109 Pr81 2.512 . S
O109 C98 1.248 . S
O110 Pr80 2.438 . S
O110 C99 1.267 1_556 S
O111 Pr81 2.437 . S
O111 C99 1.278 . S
H112 C84 0.929 . S
H113 C85 0.929 . S
H114 C87 0.931 . S
H115 C88 0.930 . S
H116 C93 0.929 . S
H117 C94 0.929 . S
H118 C96 0.931 . S
H119 C97 0.930 . S
Pr120 C122 2.880 . S
Pr120 O140 2.562 . S
Pr120 O141 2.490 . S
Pr120 O142 2.695 . S
Pr120 O143 2.512 . S
Pr120 O145 2.437 . S
Pr120 O148 2.436 . S
Pr120 O150 2.438 . S
Pr121 C131 2.880 . S
Pr121 O142 2.436 . S
Pr121 O144 2.438 . S
Pr121 O146 2.562 . S
Pr121 O147 2.490 . S
Pr121 O148 2.695 . S
Pr121 O149 2.512 . S
Pr121 O151 2.437 . S
C122 Pr120 2.880 . S
C122 C123 1.491 . S
C122 O140 1.254 . S
C122 O141 1.225 . S
C123 C122 1.491 . S
C123 C124 1.392 . S
C123 C128 1.356 . S
C124 C123 1.392 . S
C124 C125 1.368 . S
C124 H152 0.929 . S
C125 C124 1.368 . S
C125 C126 1.386 . S
C125 H153 0.929 . S
C126 C125 1.386 . S
C126 C127 1.373 . S
C127 C126 1.373 . S
C127 C128 1.409 . S
C127 H154 0.931 . S
C128 C123 1.356 . S
C128 C127 1.409 . S
C128 H155 0.930 . S
C129 O142 1.270 . S
C129 O143 1.248 . S
C130 O144 1.267 . S
C130 O145 1.278 . S
C131 Pr121 2.880 . S
C131 C132 1.491 . S
C131 O146 1.254 . S
C131 O147 1.225 . S
C132 C131 1.491 . S
C132 C133 1.392 . S
C132 C137 1.356 . S
C133 C132 1.392 . S
C133 C134 1.368 . S
C133 H156 0.929 . S
C134 C133 1.368 . S
C134 C135 1.386 . S
C134 H157 0.929 . S
C135 C134 1.386 . S
C135 C136 1.373 . S
C136 C135 1.373 . S
C136 C137 1.409 . S
C136 H158 0.931 . S
C137 C132 1.356 . S
C137 C136 1.409 . S
C137 H159 0.930 . S
C138 O148 1.270 . S
C138 O149 1.248 . S
C139 O150 1.267 . S
C139 O151 1.278 . S
O140 Pr120 2.562 . S
O140 C122 1.254 . S
O141 Pr120 2.490 . S
O141 C122 1.225 . S
O142 Pr120 2.695 . S
O142 Pr121 2.436 . S
O142 C129 1.270 . S
O143 Pr120 2.512 . S
O143 C129 1.248 . S
O144 Pr121 2.438 . S
O144 C130 1.267 . S
O145 Pr120 2.437 . S
O145 C130 1.278 . S
O146 Pr121 2.562 . S
O146 C131 1.254 . S
O147 Pr121 2.490 . S
O147 C131 1.225 . S
O148 Pr120 2.436 . S
O148 Pr121 2.695 . S
O148 C138 1.270 . S
O149 Pr121 2.512 . S
O149 C138 1.248 . S
O150 Pr120 2.438 . S
O150 C139 1.267 . S
O151 Pr121 2.437 . S
O151 C139 1.278 . S
H152 C124 0.929 . S
H153 C125 0.929 . S
H154 C127 0.931 . S
H155 C128 0.930 . S
H156 C133 0.929 . S
H157 C134 0.929 . S
H158 C136 0.931 . S
H159 C137 0.930 . S
C160 C161 1.386 . S
C160 C162 1.383 . S
C160 H176 0.951 . S
C161 C160 1.386 . S
C161 C165 1.383 . S
C162 C160 1.383 . S
C162 C163 1.402 . S
C162 H177 0.951 . S
C163 C162 1.402 . S
C163 C164 1.375 . S
C163 C166 1.481 . S
C164 C163 1.375 . S
C164 C165 1.367 . S
C164 H178 0.951 . S
C165 C161 1.383 . S
C165 C164 1.367 . S
C165 H179 0.950 . S
C166 C163 1.481 . S
C166 C167 1.297 . S
C166 H180 0.950 . S
C167 C166 1.297 . S
C167 C168 1.479 . S
C167 H181 0.950 . S
C168 C167 1.479 . S
C168 C169 1.375 . S
C168 C174 1.404 . S
C169 C168 1.375 . S
C169 C170 1.369 . S
C169 H182 0.950 . S
C170 C169 1.369 . S
C170 C171 1.392 . S
C170 H183 0.951 . S
C171 C170 1.392 . S
C171 C173 1.384 . S
H172 C174 0.949 . S
C173 C171 1.384 . S
C173 C174 1.385 . S
C173 H175 0.950 . S
C174 C168 1.404 . S
C174 H172 0.949 . S
C174 C173 1.385 . S
H175 C173 0.950 . S
H176 C160 0.951 . S
H177 C162 0.951 . S
H178 C164 0.951 . S
H179 C165 0.950 . S
H180 C166 0.950 . S
H181 C167 0.950 . S
H182 C169 0.950 . S
H183 C170 0.951 . S
C184 C185 1.386 . S
C184 C186 1.383 . S
C184 H200 0.951 . S
C185 C184 1.386 . S
C185 C189 1.383 1_556 S
C186 C184 1.383 . S
C186 C187 1.414 . S
C186 H201 0.951 . S
C187 C186 1.414 . S
C187 C188 1.363 1_556 S
C187 C190 1.481 1_556 S
C188 C187 1.363 1_554 S
C188 C189 1.367 . S
C188 H202 0.951 . S
C189 C185 1.383 1_554 S
C189 C188 1.367 . S
C189 H203 0.950 . S
C190 C187 1.481 1_554 S
C190 C191 1.287 1_554 S
C190 H204 0.962 . S
C191 C190 1.287 1_556 S
C191 C192 1.479 . S
C191 H205 0.950 . S
C192 C191 1.479 . S
C192 C193 1.375 . S
C192 C198 1.404 1_556 S
C193 C192 1.375 . S
C193 C194 1.369 . S
C193 H206 0.950 . S
C194 C193 1.369 . S
C194 C195 1.392 . S
C194 H207 0.951 . S
C195 C194 1.392 . S
C195 C197 1.384 1_556 S
H196 C198 0.949 . S
C197 C195 1.384 1_554 S
C197 C198 1.385 . S
C197 H199 0.950 . S
C198 C192 1.404 1_554 S
C198 H196 0.949 . S
C198 C197 1.385 . S
H199 C197 0.950 . S
H200 C184 0.951 . S
H201 C186 0.951 . S
H202 C188 0.951 . S
H203 C189 0.950 . S
H204 C190 0.962 . S
H205 C191 0.950 . S
H206 C193 0.950 . S
H207 C194 0.951 . S
C208 C209 1.386 . S
C208 C210 1.383 . S
C208 H224 0.951 . S
C209 C208 1.386 . S
C209 C213 1.383 . S
C210 C208 1.383 . S
C210 C211 1.402 . S
C210 H225 0.951 . S
C211 C210 1.402 . S
C211 C212 1.375 . S
C211 C214 1.481 . S
C212 C211 1.375 . S
C212 C213 1.367 . S
C212 H226 0.951 . S
C213 C209 1.383 . S
C213 C212 1.367 . S
C213 H227 0.950 . S
C214 C211 1.481 . S
C214 C215 1.297 . S
C214 H228 0.950 . S
C215 C214 1.297 . S
C215 C216 1.479 . S
C215 H229 0.950 . S
C216 C215 1.479 . S
C216 C217 1.375 . S
C216 C222 1.404 . S
C217 C216 1.375 . S
C217 C218 1.369 . S
C217 H230 0.950 . S
C218 C217 1.369 . S
C218 C219 1.392 . S
C218 H231 0.951 . S
C219 C218 1.392 . S
C219 C221 1.384 . S
H220 C222 0.949 . S
C221 C219 1.384 . S
C221 C222 1.385 . S
C221 H223 0.950 . S
C222 C216 1.404 . S
C222 H220 0.949 . S
C222 C221 1.385 . S
H223 C221 0.950 . S
H224 C208 0.951 . S
H225 C210 0.951 . S
H226 C212 0.951 . S
H227 C213 0.950 . S
H228 C214 0.950 . S
H229 C215 0.950 . S
H230 C217 0.950 . S
H231 C218 0.951 . S
C232 C233 1.386 . S
C232 C234 1.383 . S
C232 H248 0.951 . S
C233 C232 1.386 . S
C233 C237 1.383 . S
C234 C232 1.383 . S
C234 C235 1.402 . S
C234 H249 0.951 . S
C235 C234 1.402 . S
C235 C236 1.375 . S
C235 C238 1.481 . S
C236 C235 1.375 . S
C236 C237 1.367 . S
C236 H250 0.951 . S
C237 C233 1.383 . S
C237 C236 1.367 . S
C237 H251 0.950 . S
C238 C235 1.481 . S
C238 C239 1.297 . S
C238 H252 0.950 . S
C239 C238 1.297 . S
C239 C240 1.479 . S
C239 H253 0.950 . S
C240 C239 1.479 . S
C240 C241 1.375 . S
C240 C246 1.404 . S
C241 C240 1.375 . S
C241 C242 1.369 . S
C241 H254 0.950 . S
C242 C241 1.369 . S
C242 C243 1.392 . S
C242 H255 0.951 . S
C243 C242 1.392 . S
C243 C245 1.384 . S
H244 C246 0.949 . S
C245 C243 1.384 . S
C245 C246 1.385 . S
C245 H247 0.950 . S
C246 C240 1.404 . S
C246 H244 0.949 . S
C246 C245 1.385 . S
H247 C245 0.950 . S
H248 C232 0.951 . S
H249 C234 0.951 . S
H250 C236 0.951 . S
H251 C237 0.950 . S
H252 C238 0.950 . S
H253 C239 0.950 . S
H254 C241 0.950 . S
H255 C242 0.951 . S
C256 C257 1.386 1_554 S
C256 C258 1.383 . S
C256 H272 0.951 . S
C257 C256 1.386 1_556 S
C257 C261 1.383 . S
C258 C256 1.383 . S
C258 C259 1.402 1_554 S
C258 H273 0.951 . S
C259 C258 1.402 1_556 S
C259 C260 1.375 . S
C259 C262 1.481 . S
C260 C259 1.375 . S
C260 C261 1.367 . S
C260 H274 0.951 . S
C261 C257 1.383 . S
C261 C260 1.367 . S
C261 H275 0.950 . S
C262 C259 1.481 . S
C262 C263 1.297 . S
C262 H276 0.950 1_565 S
C263 C262 1.297 . S
C263 C264 1.479 1_565 S
C263 H277 0.950 1_556 S
C264 C263 1.479 1_545 S
C264 C265 1.375 1_556 S
C264 C270 1.404 . S
C265 C264 1.375 1_554 S
C265 C266 1.369 . S
C265 H278 0.950 1_545 S
C266 C265 1.369 . S
C266 C267 1.392 1_554 S
C266 H279 0.951 . S
C267 C266 1.392 1_556 S
C267 C269 1.384 . S
H268 C270 0.949 . S
C269 C267 1.384 . S
C269 C270 1.385 . S
C269 H271 0.950 . S
C270 C264 1.404 . S
C270 H268 0.949 . S
C270 C269 1.385 . S
H271 C269 0.950 . S
H272 C256 0.951 . S
H273 C258 0.951 . S
H274 C260 0.951 . S
H275 C261 0.950 . S
H276 C262 0.950 1_545 S
H277 C263 0.950 1_554 S
H278 C265 0.950 1_565 S
H279 C266 0.951 . S
C280 C281 1.404 . S
C280 C282 1.383 . S
C280 H296 0.951 . S
C281 C280 1.404 . S
C281 C285 1.356 1_565 S
C282 C280 1.383 . S
C282 C283 1.402 1_565 S
C282 H297 0.951 . S
C283 C282 1.402 1_545 S
C283 C284 1.375 . S
C283 C286 1.481 . S
C284 C283 1.375 . S
C284 C285 1.367 . S
C284 H298 0.951 . S
C285 C281 1.356 1_545 S
C285 C284 1.367 . S
C285 H299 0.950 . S
C286 C283 1.481 . S
C286 C287 1.297 1_545 S
C286 H300 0.950 . S
C287 C286 1.297 1_565 S
C287 C288 1.479 . S
C287 H301 0.950 . S
C288 C287 1.479 . S
C288 C289 1.375 . S
C288 C294 1.404 1_565 S
C289 C288 1.375 . S
C289 C290 1.369 . S
C289 H302 0.950 . S
C290 C289 1.369 . S
C290 C291 1.392 . S
C290 H303 0.951 . S
C291 C290 1.392 . S
C291 C293 1.384 1_565 S
H292 C294 0.949 . S
C293 C291 1.384 1_545 S
C293 C294 1.385 . S
C293 H295 0.950 . S
C294 C288 1.404 1_545 S
C294 H292 0.949 . S
C294 C293 1.385 . S
H295 C293 0.950 . S
H296 C280 0.951 . S
H297 C282 0.951 . S
H298 C284 0.951 . S
H299 C285 0.950 . S
H300 C286 0.950 . S
H301 C287 0.950 . S
H302 C289 0.950 . S
H303 C290 0.951 . S
C304 C305 1.386 1_556 S
C304 C306 1.383 . S
C304 H320 0.951 . S
C305 C304 1.386 1_554 S
C305 C309 1.383 . S
C306 C304 1.383 . S
C306 C307 1.402 1_556 S
C306 H321 0.951 . S
C307 C306 1.402 1_554 S
C307 C308 1.375 . S
C307 C310 1.481 . S
C308 C307 1.375 . S
C308 C309 1.367 . S
C308 H322 0.951 . S
C309 C305 1.383 . S
C309 C308 1.367 . S
C309 H323 0.950 . S
C310 C307 1.481 . S
C310 C311 1.297 1_655 S
C310 H324 0.950 1_655 S
C311 C310 1.297 1_455 S
C311 C312 1.479 . S
C311 H325 0.950 1_455 S
C312 C311 1.479 . S
C312 C313 1.375 1_554 S
C312 C318 1.404 . S
C313 C312 1.375 1_556 S
C313 C314 1.369 . S
C313 H326 0.950 . S
C314 C313 1.369 . S
C314 C315 1.392 1_556 S
C314 H327 0.951 . S
C315 C314 1.392 1_554 S
C315 C317 1.384 . S
H316 C318 0.949 . S
C317 C315 1.384 . S
C317 C318 1.385 . S
C317 H319 0.950 . S
C318 C312 1.404 . S
C318 H316 0.949 . S
C318 C317 1.385 . S
H319 C317 0.950 . S
H320 C304 0.951 . S
H321 C306 0.951 . S
H322 C308 0.951 . S
H323 C309 0.950 . S
H324 C310 0.950 1_455 S
H325 C311 0.950 1_655 S
H326 C313 0.950 . S
H327 C314 0.951 . S
C328 C329 1.386 . S
C328 C330 1.383 . S
C328 H344 0.951 . S
C329 C328 1.386 . S
C329 C333 1.383 . S
C330 C328 1.383 . S
C330 C331 1.402 . S
C330 H345 0.951 . S
C331 C330 1.402 . S
C331 C332 1.375 . S
C331 C334 1.481 . S
C332 C331 1.375 . S
C332 C333 1.367 . S
C332 H346 0.951 . S
C333 C329 1.383 . S
C333 C332 1.367 . S
C333 H347 0.950 . S
C334 C331 1.481 . S
C334 C335 1.297 1_455 S
C334 H348 0.950 1_455 S
C335 C334 1.297 1_655 S
C335 C336 1.479 . S
C335 H349 0.950 . S
C336 C335 1.479 . S
C336 C337 1.375 . S
C336 C342 1.404 . S
C337 C336 1.375 . S
C337 C338 1.369 . S
C337 H350 0.950 . S
C338 C337 1.369 . S
C338 C339 1.392 . S
C338 H351 0.951 . S
C339 C338 1.392 . S
C339 C341 1.384 . S
H340 C342 0.949 . S
C341 C339 1.384 . S
C341 C342 1.385 . S
C341 H343 0.950 . S
C342 C336 1.404 . S
C342 H340 0.949 . S
C342 C341 1.385 . S
H343 C341 0.950 . S
H344 C328 0.951 . S
H345 C330 0.951 . S
H346 C332 0.951 . S
H347 C333 0.950 . S
H348 C334 0.950 1_655 S
H349 C335 0.950 . S
H350 C337 0.950 . S
H351 C338 0.951 . S
C352 C353 1.386 1_465 S
C352 C354 1.383 . S
C352 H368 0.951 . S
C353 C352 1.386 1_645 S
C353 C357 1.383 . S
C354 C352 1.383 . S
C354 C355 1.402 1_465 S
C354 H369 0.951 . S
C355 C354 1.402 1_645 S
C355 C356 1.375 . S
C355 C358 1.481 . S
C356 C355 1.375 . S
C356 C357 1.367 . S
C356 H370 0.951 . S
C357 C353 1.383 . S
C357 C356 1.367 . S
C357 H371 0.950 . S
C358 C355 1.481 . S
C358 C359 1.306 1_545 S
C358 H372 0.950 . S
C359 C358 1.306 1_565 S
C359 C360 1.479 . S
C359 H373 0.941 1_655 S
C360 C359 1.479 . S
C360 C361 1.375 1_655 S
C360 C366 1.404 1_565 S
C361 C360 1.375 1_455 S
C361 C362 1.369 . S
C361 H374 0.950 . S
C362 C361 1.369 . S
C362 C363 1.392 1_455 S
C362 H375 0.951 . S
C363 C362 1.392 1_655 S
C363 C365 1.384 1_565 S
H364 C366 0.949 . S
C365 C363 1.384 1_545 S
C365 C366 1.385 . S
C365 H367 0.950 . S
C366 C360 1.404 1_545 S
C366 H364 0.949 . S
C366 C365 1.385 . S
H367 C365 0.950 . S
H368 C352 0.951 . S
H369 C354 0.951 . S
H370 C356 0.951 . S
H371 C357 0.950 . S
H372 C358 0.950 . S
H373 C359 0.941 1_455 S
H374 C361 0.950 . S
H375 C362 0.951 . S
C376 C377 1.386 1_545 S
C376 C378 1.383 . S
C376 H392 0.951 . S
C377 C376 1.386 1_565 S
C377 C381 1.383 1_455 S
C378 C376 1.383 . S
C378 C379 1.402 1_545 S
C378 H393 0.951 . S
C379 C378 1.402 1_565 S
C379 C380 1.375 1_455 S
C379 C382 1.481 . S
C380 C379 1.375 1_655 S
C380 C381 1.367 . S
C380 H394 0.951 . S
C381 C377 1.383 1_655 S
C381 C380 1.367 . S
C381 H395 0.950 . S
C382 C379 1.481 . S
C382 C383 1.297 . S
C382 H396 0.950 1_455 S
C383 C382 1.297 . S
C383 C384 1.479 . S
C383 H397 0.950 1_565 S
C384 C383 1.479 . S
C384 C385 1.375 1_565 S
C384 C390 1.404 . S
C385 C384 1.375 1_545 S
C385 C386 1.369 . S
C385 H398 0.950 . S
C386 C385 1.369 . S
C386 C387 1.392 1_545 S
C386 H399 0.951 . S
C387 C386 1.392 1_565 S
C387 C389 1.384 1_455 S
H388 C390 0.949 1_655 S
C389 C387 1.384 1_655 S
C389 C390 1.385 1_655 S
C389 H391 0.950 . S
C390 C384 1.404 . S
C390 H388 0.949 1_455 S
C390 C389 1.385 1_455 S
H391 C389 0.950 . S
H392 C376 0.951 . S
H393 C378 0.951 . S
H394 C380 0.951 . S
H395 C381 0.950 . S
H396 C382 0.950 1_655 S
H397 C383 0.950 1_545 S
H398 C385 0.950 . S
H399 C386 0.951 . S
C400 C401 1.386 . S
C400 C402 1.383 . S
C400 H416 0.951 . S
C401 C400 1.386 . S
C401 C405 1.383 . S
C402 C400 1.383 . S
C402 C403 1.402 . S
C402 H417 0.951 . S
C403 C402 1.402 . S
C403 C404 1.375 . S
C403 C406 1.481 . S
C404 C403 1.375 . S
C404 C405 1.367 . S
C404 H418 0.951 . S
C405 C401 1.383 . S
C405 C404 1.367 . S
C405 H419 0.950 . S
C406 C403 1.481 . S
C406 C407 1.297 . S
C406 H420 0.950 . S
C407 C406 1.297 . S
C407 C408 1.479 . S
C407 H421 0.950 . S
C408 C407 1.479 . S
C408 C409 1.375 . S
C408 C414 1.404 . S
C409 C408 1.375 . S
C409 C410 1.369 . S
C409 H422 0.950 . S
C410 C409 1.369 . S
C410 C411 1.392 . S
C410 H423 0.951 . S
C411 C410 1.392 . S
C411 C413 1.384 . S
H412 C414 0.949 . S
C413 C411 1.384 . S
C413 C414 1.385 . S
C413 H415 0.950 . S
C414 C408 1.404 . S
C414 H412 0.949 . S
C414 C413 1.385 . S
H415 C413 0.950 . S
H416 C400 0.951 . S
H417 C402 0.951 . S
H418 C404 0.951 . S
H419 C405 0.950 . S
H420 C406 0.950 . S
H421 C407 0.950 . S
H422 C409 0.950 . S
H423 C410 0.951 . S
C424 C425 1.386 . S
C424 C426 1.383 . S
C424 H440 0.951 . S
C425 C424 1.386 . S
C425 C429 1.383 . S
C426 C424 1.383 . S
C426 C427 1.402 . S
C426 H441 0.951 . S
C427 C426 1.402 . S
C427 C428 1.375 . S
C427 C430 1.481 . S
C428 C427 1.375 . S
C428 C429 1.367 . S
C428 H442 0.951 . S
C429 C425 1.383 . S
C429 C428 1.367 . S
C429 H443 0.950 . S
C430 C427 1.481 . S
C430 C431 1.297 . S
C430 H444 0.950 . S
C431 C430 1.297 . S
C431 C432 1.479 . S
C431 H445 0.950 . S
C432 C431 1.479 . S
C432 C433 1.375 . S
C432 C438 1.404 . S
C433 C432 1.375 . S
C433 C434 1.369 . S
C433 H446 0.950 . S
C434 C433 1.369 . S
C434 C435 1.392 . S
C434 H447 0.951 . S
C435 C434 1.392 . S
C435 C437 1.384 . S
H436 C438 0.949 . S
C437 C435 1.384 . S
C437 C438 1.385 . S
C437 H439 0.950 . S
C438 C432 1.404 . S
C438 H436 0.949 . S
C438 C437 1.385 . S
H439 C437 0.950 . S
H440 C424 0.951 . S
H441 C426 0.951 . S
H442 C428 0.951 . S
H443 C429 0.950 . S
H444 C430 0.950 . S
H445 C431 0.950 . S
H446 C433 0.950 . S
H447 C434 0.951 . S
C161 C90 3.528 1_554 S
C171 C19 3.508 . S
C185 C99 3.538 1_556 S
C195 C10 3.505 . S
C209 C55 0.167 . S
C219 C126 0.139 . S
C233 C46 0.095 . S
C243 C135 0.253 . S
C257 C15 0.946 1_556 S
C267 C6 0.884 . S
C281 C59 4.883 . S
C291 C50 4.855 1_565 S
C305 C95 0.955 . S
C315 C86 1.013 1_554 S
C329 C130 4.868 . S
C339 C139 4.859 . S
C353 C49 1.446 1_645 S
C363 C18 1.480 1_665 S
C377 C9 1.436 1_455 S
C387 C58 1.468 1_465 S
C401 C129 1.469 . S
C411 C98 1.482 . S
C425 C138 1.421 . S
C435 C89 1.480 . S
