# Generated by pormake.
# Topology sml, (6)-cn, num edge types: 1
# Building blocks:
#     Node 0, Type 0, BuildingBlock: HISSIN_clean_sbu_0, # of connection points: 6
#     Node 1, Type 0, BuildingBlock: HISSIN_clean_sbu_0, # of connection points: 6
#     Node 2, Type 0, BuildingBlock: HISSIN_clean_sbu_0, # of connection points: 6
#     Node 3, Type 0, BuildingBlock: HISSIN_clean_sbu_0, # of connection points: 6
#     Node 4, Type 0, BuildingBlock: HISSIN_clean_sbu_0, # of connection points: 6
#     Node 5, Type 0, BuildingBlock: HISSIN_clean_sbu_0, # of connection points: 6
#     Edge 6, Type (0, 0), BuildingBlock: XUDNAN_clean_linker_2, # of connection points: 2
#     Edge 7, Type (0, 0), BuildingBlock: XUDNAN_clean_linker_2, # of connection points: 2
#     Edge 8, Type (0, 0), BuildingBlock: XUDNAN_clean_linker_2, # of connection points: 2
#     Edge 9, Type (0, 0), BuildingBlock: XUDNAN_clean_linker_2, # of connection points: 2
#     Edge 10, Type (0, 0), BuildingBlock: XUDNAN_clean_linker_2, # of connection points: 2
#     Edge 11, Type (0, 0), BuildingBlock: XUDNAN_clean_linker_2, # of connection points: 2
#     Edge 12, Type (0, 0), BuildingBlock: XUDNAN_clean_linker_2, # of connection points: 2
#     Edge 13, Type (0, 0), BuildingBlock: XUDNAN_clean_linker_2, # of connection points: 2
#     Edge 14, Type (0, 0), BuildingBlock: XUDNAN_clean_linker_2, # of connection points: 2
#     Edge 15, Type (0, 0), BuildingBlock: XUDNAN_clean_linker_2, # of connection points: 2
#     Edge 16, Type (0, 0), BuildingBlock: XUDNAN_clean_linker_2, # of connection points: 2
#     Edge 17, Type (0, 0), BuildingBlock: XUDNAN_clean_linker_2, # of connection points: 2
#     Edge 18, Type (0, 0), BuildingBlock: XUDNAN_clean_linker_2, # of connection points: 2
#     Edge 19, Type (0, 0), BuildingBlock: XUDNAN_clean_linker_2, # of connection points: 2
#     Edge 20, Type (0, 0), BuildingBlock: XUDNAN_clean_linker_2, # of connection points: 2
#     Edge 21, Type (0, 0), BuildingBlock: XUDNAN_clean_linker_2, # of connection points: 2
#     Edge 22, Type (0, 0), BuildingBlock: XUDNAN_clean_linker_2, # of connection points: 2
#     Edge 23, Type (0, 0), BuildingBlock: XUDNAN_clean_linker_2, # of connection points: 2
# Relax obj value: 0.175
# Max RMSD: 0.221
# Mean RMSD: 0.221
data_MOF--net-sml--node1-HISSIN_clean_sbu_0--edge1-XUDNAN_clean_linker_2
_symmetry_space_group_name_H-M    P1
_symmetry_Int_Tables_number       1
_symmetry_cell_setting            triclinic
loop_
_symmetry_equiv_pos_as_xyz
'x, y, z'
_cell_length_a     32.4968
_cell_length_b     32.522758
_cell_length_c     24.901839
_cell_angle_alpha  89.910717
_cell_angle_beta   89.915157
_cell_angle_gamma 120.05649
loop_
_atom_site_label
_atom_site_type_symbol
_atom_site_fract_x
_atom_site_fract_y
_atom_site_fract_z
_atom_type_partial_charge
Eu0 Eu 0.18061 0.39309 0.14287 0.0
Eu1 Eu 0.12559 0.39954 0.03475 0.0
C2 C 0.14219 0.46603 0.13689 0.0
C3 C 0.20633 0.3955 0.2914 0.0
C4 C 0.22086 0.44185 0.3091 0.0
C5 C 0.17591 0.36575 0.38102 0.0
C6 C 0.21375 0.45007 0.36237 0.0
C7 C 0.18345 0.35752 0.32778 0.0
C8 C 0.19157 0.41219 0.39892 0.0
C9 C 0.21439 0.38633 0.23531 0.0
O10 O 0.20242 0.43498 1.00998 0.0
O11 O 0.23741 0.45274 0.09349 0.0
C12 C 0.23992 0.45753 0.04088 0.0
O13 O 0.19996 0.35613 0.0812 0.0
O14 O 0.1129 0.44006 0.97394 0.0
O15 O 0.07029 0.36328 0.97436 0.0
O16 O 0.13805 0.33726 0.02287 0.0
C17 C 0.17311 0.33156 0.04077 0.0
O18 O 0.10891 0.32816 0.13255 0.0
O19 O 0.07239 0.36679 0.10233 0.0
O20 O 0.14364 0.46462 0.08421 0.0
O21 O 0.17883 0.3504 0.21163 0.0
O22 O 0.23616 0.42309 0.20357 0.0
O23 O 0.1454 0.43456 0.16669 0.0
C24 C 0.09331 0.40218 0.89067 0.0
C25 C 0.13284 0.39826 0.87578 0.0
C26 C 0.08016 0.41289 0.79696 0.0
C27 C 0.14659 0.4027 0.82203 0.0
C28 C 0.06687 0.40926 0.85103 0.0
C29 C 0.12073 0.41063 0.78225 0.0
C30 C 0.08226 0.40237 0.94779 0.0
C31 C 0.07131 0.3327 0.13125 0.0
H32 H 0.23811 0.47193 0.28204 0.0
H33 H 0.15907 0.33597 0.40855 0.0
H34 H 0.22592 0.48619 0.37516 0.0
H35 H 0.17175 0.32146 0.31512 0.0
H36 H 0.15382 0.39306 0.90596 0.0
H37 H 0.05994 0.41937 0.76697 0.0
H38 H 0.17789 0.40064 0.81159 0.0
H39 H 0.0367 0.41313 0.8619 0.0
Eu40 Eu 0.80601 0.23273 0.47961 0.0
Eu41 Eu 0.8797 0.28665 0.5827 0.0
C42 C 0.87104 0.344 0.48427 0.0
C43 C 0.78466 0.21105 0.33152 0.0
C44 C 0.83149 0.22114 0.32223 0.0
C45 C 0.77813 0.2246 0.23627 0.0
C46 C 0.85135 0.23257 0.2706 0.0
C47 C 0.75815 0.21278 0.28803 0.0
C48 C 0.8252 0.23496 0.22675 0.0
C49 C 0.76464 0.20145 0.3868 0.0
O50 O 0.80618 0.25854 0.61441 0.0
O51 O 0.76225 0.24939 0.53795 0.0
C52 C 0.76796 0.2536 0.5906 0.0
O53 O 0.78004 0.17623 0.54267 0.0
O54 O 0.90661 0.33968 0.64646 0.0
O55 O 0.93376 0.29128 0.63913 0.0
O56 O 0.85093 0.20711 0.5889 0.0
C57 C 0.80817 0.17175 0.57705 0.0
O58 O 0.86928 0.22215 0.4783 0.0
O59 O 0.92543 0.29369 0.5107 0.0
O60 O 0.8713 0.34278 0.537 0.0
O61 O 0.77716 0.17741 0.41828 0.0
O62 O 0.76593 0.23747 0.41156 0.0
O63 O 0.86107 0.30637 0.45622 0.0
C64 C 0.92449 0.31319 0.72783 0.0
C65 C 0.88214 0.30381 0.7538 0.0
C66 C 0.95555 0.3063 0.81445 0.0
C67 C 0.87684 0.2965 0.80958 0.0
C68 C 0.96088 0.31385 0.75874 0.0
C69 C 0.91369 0.29816 0.84096 0.0
C70 C 0.93147 0.32299 0.66908 0.0
C71 C 0.91302 0.25779 0.4779 0.0
H72 H 0.85298 0.22059 0.35509 0.0
H73 H 0.75697 0.22674 0.20404 0.0
H74 H 0.88729 0.23943 0.26518 0.0
H75 H 0.72218 0.20573 0.29423 0.0
H76 H 0.85325 0.30273 0.7311 0.0
H77 H 0.98441 0.30685 0.83673 0.0
H78 H 0.84425 0.29078 0.82821 0.0
H79 H -0.0063 0.32052 0.73981 0.0
Eu80 Eu 0.57694 0.80133 0.84137 0.0
Eu81 Eu 0.58099 0.74059 0.73556 0.0
C82 C 0.51646 0.68871 0.83756 0.0
C83 C 0.58136 0.82436 0.98899 0.0
C84 C 0.60329 0.79698 0.99687 0.0
C85 C 0.5655 0.82009 0.08505 0.0
C86 C 0.60622 0.78122 0.04831 0.0
C87 C 0.56275 0.83601 0.03348 0.0
C88 C 0.58685 0.79204 0.09314 0.0
C89 C 0.57519 0.83781 0.9341 0.0
O90 O 0.54344 0.77824 0.70738 0.0
O91 O 0.5169 0.7923 0.78741 0.0
C92 C 0.5157 0.78924 0.73456 0.0
O93 O 0.61074 0.8564 0.77706 0.0
O94 O 0.54557 0.68801 0.67262 0.0
O95 O 0.62243 0.72518 0.67777 0.0
O96 O 0.64044 0.81719 0.72726 0.0
C97 C 0.63955 0.85601 0.74033 0.0
O98 O 0.64571 0.80066 0.84002 0.0
O99 O 0.61774 0.72713 0.8043 0.0
O100 O 0.51619 0.68992 0.78485 0.0
O101 O 0.61266 0.85551 0.903 0.0
O102 O 0.53695 0.80642 0.90918 0.0
O103 O 0.54725 0.72537 0.86518 0.0
C104 C 0.58824 0.7046 0.59077 0.0
C105 C 0.56972 0.73087 0.56642 0.0
C106 C 0.61044 0.69 0.50248 0.0
C107 C 0.5709 0.73606 0.51042 0.0
C108 C 0.6089 0.68459 0.55838 0.0
C109 C 0.59091 0.71532 0.47753 0.0
C110 C 0.58516 0.69659 0.64948 0.0
C111 C 0.64692 0.76117 0.83651 0.0
H112 H 0.61761 0.78719 0.96306 0.0
H113 H 0.54961 0.82862 0.1183 0.0
H114 H 0.62359 0.76039 0.05281 0.0
H115 H 0.54523 0.85663 0.0282 0.0
H116 H 0.55365 0.74676 0.59063 0.0
H117 H 0.62697 0.67425 0.47886 0.0
H118 H 0.55502 0.75533 0.49292 0.0
H119 H 0.62345 0.66431 0.5764 0.0
Eu120 Eu 0.78542 0.57423 0.13098 0.0
Eu121 Eu 0.7203 0.56882 0.23755 0.0
C122 C 0.67221 0.51005 0.13178 0.0
C123 C 0.81186 0.58265 0.98204 0.0
C124 C 0.79454 0.54476 0.94546 0.0
C125 C 0.80236 0.63072 0.91323 0.0
C126 C 0.78071 0.54955 0.89359 0.0
C127 C 0.81582 0.6258 0.96517 0.0
C128 C 0.78417 0.59256 0.87674 0.0
C129 C 0.82351 0.576 0.038 0.0
O130 O 0.76367 0.53696 0.26547 0.0
O131 O 0.78622 0.51861 0.18521 0.0
C132 C 0.78241 0.51596 0.23803 0.0
O133 O 0.8402 0.614 0.19326 0.0
O134 O 0.67072 0.5292 0.3023 0.0
O135 O 0.69638 0.60448 0.29327 0.0
O136 O 0.79473 0.63116 0.25042 0.0
C137 C 0.83618 0.63799 0.23331 0.0
O138 O 0.7809 0.64086 0.13395 0.0
O139 O 0.7071 0.60867 0.17178 0.0
O140 O 0.67209 0.50629 0.18431 0.0
O141 O 0.83991 0.61263 0.07006 0.0
O142 O 0.79263 0.53673 0.06202 0.0
O143 O 0.7095 0.54277 0.10638 0.0
C144 C 0.6829 0.57364 0.38158 0.0
C145 C 0.72428 0.57654 0.40285 0.0
C146 C 0.65994 0.58366 0.47142 0.0
C147 C 0.73342 0.58294 0.45812 0.0
C148 C 0.65089 0.5773 0.41621 0.0
C149 C 0.70139 0.58667 0.49323 0.0
C150 C 0.67285 0.56691 0.3235 0.0
C151 C 0.7411 0.64093 0.14153 0.0
H152 H 0.79089 0.51103 0.95733 0.0
H153 H 0.80646 0.6647 0.90171 0.0
H154 H 0.7663 0.51909 0.86718 0.0
H155 H 0.82895 0.65582 0.99217 0.0
H156 H 0.74958 0.57401 0.37666 0.0
H157 H 0.63406 0.58566 0.49707 0.0
H158 H 0.76596 0.58571 0.47315 0.0
H159 H 0.61875 0.57511 0.40057 0.0
Eu160 Eu 0.19475 0.77569 0.48153 0.0
Eu161 Eu 0.25942 0.83485 0.37286 0.0
C162 C 0.30594 0.81291 0.47369 0.0
C163 C 0.16027 0.73493 0.62694 0.0
C164 C 0.20665 0.76456 0.64597 0.0
C165 C 0.13294 0.71209 0.71874 0.0
C166 C 0.21613 0.76777 0.70122 0.0
C167 C 0.12356 0.70891 0.66367 0.0
C168 C 0.17936 0.74137 0.73832 0.0
C169 C 0.14932 0.73167 0.5692 0.0
O170 O 0.23494 0.75712 0.36451 0.0
O171 O 0.16505 0.72476 0.41182 0.0
C172 C 0.19146 0.72241 0.37337 0.0
O173 O 0.15459 0.80603 0.4405 0.0
O174 O 0.31074 0.84383 0.3105 0.0
O175 O 0.27556 0.88547 0.30752 0.0
O176 O 0.18228 0.8089 0.35519 0.0
C177 C 0.15018 0.80746 0.3884 0.0
O178 O 0.24342 0.85035 0.50866 0.0
O179 O 0.2675 0.89276 0.42883 0.0
O180 O 0.31242 0.84485 0.43728 0.0
O181 O 0.14792 0.76776 0.54849 0.0
O182 O 0.17131 0.7166 0.53806 0.0
O183 O 0.26399 0.77586 0.48304 0.0
C184 C 0.28713 0.85642 0.22557 0.0
C185 C 0.23914 0.8252 0.21351 0.0
C186 C 0.3074 0.85356 0.13204 0.0
C187 C 0.22546 0.80753 0.16154 0.0
C188 C 0.32115 0.87086 0.18442 0.0
C189 C 0.25946 0.82106 0.12027 0.0
C190 C 0.30151 0.87174 0.28148 0.0
C191 C 0.26317 0.89039 0.48142 0.0
H192 H 0.23545 0.78514 0.61812 0.0
H193 H 0.10357 0.69198 0.74606 0.0
H194 H 0.25231 0.79037 0.71476 0.0
H195 H 0.08749 0.68625 0.64975 0.0
H196 H 0.21225 0.81406 0.24453 0.0
H197 H 0.33441 0.86446 0.10116 0.0
H198 H 0.18818 0.78316 0.15366 0.0
H199 H 0.35837 0.89489 0.19296 0.0
Eu200 Eu 0.39926 0.19567 0.79344 0.0
Eu201 Eu 0.40914 0.14212 0.90299 0.0
C202 C 0.48696 0.17991 0.80851 0.0
C203 C 0.38712 0.20582 0.64535 0.0
C204 C 0.39141 0.16525 0.63877 0.0
C205 C 0.37643 0.2078 0.54908 0.0
C206 C 0.38825 0.14607 0.58769 0.0
C207 C 0.37961 0.22696 0.60026 0.0
C208 C 0.38069 0.16708 0.54212 0.0
C209 C 0.38944 0.22517 0.69937 0.0
O210 O 0.42956 0.21522 0.93065 0.0
O211 O 0.44731 0.25557 0.84964 0.0
C212 C 0.44914 0.25485 0.90268 0.0
O213 O 0.35161 0.20257 0.85214 0.0
O214 O 0.44975 0.13748 0.96988 0.0
O215 O 0.37751 0.08048 0.95661 0.0
O216 O 0.33882 0.14125 0.90958 0.0
C217 C 0.3276 0.17221 0.89041 0.0
O218 O 0.34656 0.11763 0.79487 0.0
O219 O 0.39423 0.09391 0.83201 0.0
O220 O 0.48077 0.17853 0.86087 0.0
O221 O 0.35379 0.19847 0.73093 0.0
O222 O 0.43025 0.24231 0.72389 0.0
O223 O 0.45315 0.17384 0.77549 0.0
C224 C 0.40459 0.09737 0.04635 0.0
C225 C 0.39456 0.13086 0.06905 0.0
C226 C 0.39904 0.06344 0.13489 0.0
C227 C 0.38705 0.13079 0.12446 0.0
C228 C 0.40657 0.06359 0.07954 0.0
C229 C 0.38939 0.09717 0.15816 0.0
C230 C 0.41431 0.09806 0.9885 0.0
C231 C 0.36201 0.08762 0.79654 0.0
H232 H 0.39719 0.1484 0.67322 0.0
H233 H 0.36988 0.2245 0.51506 0.0
H234 H 0.39229 0.11511 0.58387 0.0
H235 H 0.37589 0.25808 0.60465 0.0
H236 H 0.39281 0.1572 0.04395 0.0
H237 H 0.40176 0.03747 0.15958 0.0
H238 H 0.37909 0.15687 0.14082 0.0
H239 H 0.41447 0.03761 0.0627 0.0
H240 H 0.32455 0.2059 0.98852 0.0
H241 H 0.24568 0.15184 0.84089 0.0
H242 H 0.18937 0.1778 0.8697 0.0
H243 H 0.22107 0.18481 0.07848 0.0
H244 H 0.25749 0.24022 0.1128 0.0
H245 H 0.28383 0.20695 0.08679 0.0
H246 H 0.3446 0.28119 0.03329 0.0
H247 H 0.31802 0.31439 0.05809 0.0
H248 H 0.32333 0.30885 0.98676 0.0
H249 H 0.15057 0.22133 0.90705 0.0
H250 H 0.13098 0.27747 0.95109 0.0
H251 H 0.23762 0.30594 0.07274 0.0
C252 C 0.29383 0.19733 0.9639 0.0
C253 C 0.28801 0.17551 0.91359 0.0
C254 C 0.24942 0.16725 0.88038 0.0
C255 C 0.2175 0.18201 0.89635 0.0
C256 C 0.22516 0.20534 0.94537 0.0
C257 C 0.26217 0.21262 0.97893 0.0
C258 C 0.26685 0.24448 0.02552 0.0
C259 C 0.25668 0.21749 0.07907 0.0
C260 C 0.3161 0.28989 0.02588 0.0
C261 C 0.22794 0.25536 1.01185 0.0
C262 C 0.20376 0.2319 0.96603 0.0
C263 C 0.16859 0.23918 0.9436 0.0
C264 C 0.15785 0.27129 0.96874 0.0
C265 C 0.18263 0.29605 1.01543 0.0
C266 C 0.21774 0.28742 0.0373 0.0
H267 H 0.05755 0.38029 0.21176 0.0
H268 H 0.01538 0.23908 0.15403 0.0
H269 H 0.97459 0.20489 0.24055 0.0
H270 H 0.08541 0.35827 0.34407 0.0
H271 H 0.06703 0.3958 0.37681 0.0
H272 H 0.089 0.40832 0.30878 0.0
H273 H 0.00981 0.40347 0.27536 0.0
H274 H 0.99241 0.39578 0.34464 0.0
H275 H 0.95388 0.35298 0.29556 0.0
H276 H 0.94241 0.18697 0.33366 0.0
H277 H 0.9113 0.18453 0.4246 0.0
H278 H 0.97828 0.33827 0.42419 0.0
C279 C 0.03829 0.34207 0.21686 0.0
C280 C 0.03807 0.31189 0.17614 0.0
C281 C 0.01458 0.26232 0.18462 0.0
C282 C 0.99198 0.24281 0.2337 0.0
C283 C -0.00546 0.2737 0.27402 0.0
C284 C 0.01678 0.32222 0.26609 0.0
C285 C 0.0166 0.34771 0.31687 0.0
C286 C 0.06752 0.37942 0.33785 0.0
C287 C 0.99155 0.37657 0.30752 0.0
C288 C 0.98851 0.30565 0.35393 0.0
C289 C 0.97723 0.26346 0.32861 0.0
C290 C 0.95105 0.21969 0.35401 0.0
C291 C 0.93386 0.21871 0.40577 0.0
C292 C 0.94264 0.26117 0.43142 0.0
C293 C 0.97177 0.30535 0.40592 0.0
H294 H 0.7174 0.10551 0.60381 0.0
H295 H 0.86251 0.13302 0.60573 0.0
H296 H 0.83462 0.05314 0.64443 0.0
H297 H 0.68436 0.04549 0.73054 0.0
H298 H 0.62439 0.0038 0.71025 0.0
H299 H 0.65557 0.06185 0.67986 0.0
H300 H 0.64062 0.0233 0.58563 0.0
H301 H 0.60954 0.96508 0.61572 0.0
H302 H 0.65938 0.98077 0.57174 0.0
H303 H 0.79007 0.96894 0.67928 0.0
H304 H 0.7335 0.89058 0.71913 0.0
H305 H 0.6193 0.9219 0.70185 0.0
C306 C 0.7432 0.09452 0.61212 0.0
C307 C 0.79195 0.12493 0.60147 0.0
C308 C 0.82496 0.10999 0.61373 0.0
C309 C 0.80944 0.06471 0.63536 0.0
C310 C 0.76099 0.03538 0.64518 0.0
C311 C 0.72847 0.04997 0.63477 0.0
C312 C 0.67883 0.01284 0.65185 0.0
C313 C 0.65969 0.03216 0.69574 0.0
C314 C 0.64512 0.99442 0.60334 0.0
C315 C 0.68851 0.97512 0.67368 0.0
C316 C 0.73592 0.98831 0.66846 0.0
C317 C 0.75296 0.95838 0.68406 0.0
C318 C 0.72072 0.91405 0.70635 0.0
C319 C 0.67254 0.90092 0.71379 0.0
C320 C 0.65625 0.93169 0.69709 0.0
H321 H 0.61905 0.67659 0.8857 0.0
H322 H 0.72964 0.82484 0.88499 0.0
H323 H 0.7647 0.81129 0.96658 0.0
H324 H 0.59975 0.66641 0.02319 0.0
H325 H 0.59117 0.6075 0.03138 0.0
H326 H 0.57653 0.62433 0.96867 0.0
H327 H 0.63325 0.60658 0.91325 0.0
H328 H 0.64295 0.58336 0.97432 0.0
H329 H 0.69296 0.62818 0.93713 0.0
H330 H 0.78769 0.7809 0.04758 0.0
H331 H 0.79684 0.73554 0.12221 0.0
H332 H 0.66576 0.61036 0.0753 0.0
C333 C 0.65143 0.70584 0.90185 0.0
C334 C 0.6724 0.7515 0.8787 0.0
C335 C 0.71367 0.78942 0.90194 0.0
C336 C 0.73357 0.78213 0.94832 0.0
C337 C 0.71118 0.73693 0.97118 0.0
C338 C 0.67108 0.69944 0.94869 0.0
C339 C 0.65287 0.6548 0.98203 0.0
C340 C 0.60208 0.63733 1.00255 0.0
C341 C 0.65575 0.61598 0.94979 0.0
C342 C 0.68844 0.67321 0.0274 0.0
C343 C 0.72232 0.72045 0.01995 0.0
C344 C 0.76096 0.74415 0.0544 0.0
C345 C 0.76571 0.71839 0.09676 0.0
C346 C 0.73125 0.67012 0.10491 0.0
C347 C 0.69167 0.64765 0.07063 0.0
H348 H 0.11212 0.76985 0.29118 0.0
H349 H 0.08329 0.82107 0.43928 0.0
H350 H 0.00045 0.79112 0.41013 0.0
H351 H 0.0302 0.78852 0.20196 0.0
H352 H 0.01318 0.73408 0.1664 0.0
H353 H 0.07211 0.76797 0.19408 0.0
H354 H 0.05928 0.6935 0.24636 0.0
H355 H 0.0002 0.65954 0.21969 0.0
H356 H 0.0092 0.66381 0.29132 0.0
H357 H 0.91857 0.74575 0.37092 0.0
H358 H 0.84444 0.68958 0.32409 0.0
H359 H 0.92749 0.66659 0.20343 0.0
C360 C 0.08895 0.77647 0.31655 0.0
C361 C 0.10411 0.7982 0.36716 0.0
C362 C 0.07231 0.80474 0.40012 0.0
C363 C 0.02528 0.78796 0.38387 0.0
C364 C 0.01083 0.7648 0.33464 0.0
C365 C 0.04186 0.75937 0.30129 0.0
C366 C 0.0164 0.72824 0.25369 0.0
C367 C 0.03402 0.7564 0.20091 0.0
C368 C 0.02158 0.68366 0.25277 0.0
C369 C 0.96596 0.71585 0.26629 0.0
C370 C 0.96347 0.73775 0.31266 0.0
C371 C 0.92013 0.72905 0.33401 0.0
C372 C 0.87823 0.69699 0.30725 0.0
C373 C 0.88014 0.67376 0.26004 0.0
C374 C 0.92471 0.6839 0.23924 0.0
H375 H 0.28238 0.04097 0.73582 0.0
H376 H 0.4288 0.07348 0.74721 0.0
H377 H 0.42237 0.03771 0.65785 0.0
H378 H 0.23844 0.92677 0.67718 0.0
H379 H 0.19563 0.93156 0.63566 0.0
H380 H 0.21408 0.96328 0.69812 0.0
H381 H 0.23793 0.04147 0.64665 0.0
H382 H 0.22152 0.01038 0.58346 0.0
H383 H 0.2807 0.05995 0.59284 0.0
H384 H 0.39979 -0.00171 0.56786 0.0
H385 H 0.35811 0.94266 0.49326 0.0
H386 H 0.22521 0.93097 0.54401 0.0
C387 C 0.31285 0.04006 0.71957 0.0
C388 C 0.35589 0.0595 0.74818 0.0
C389 C 0.39523 0.05794 0.72605 0.0
C390 C 0.39216 0.03849 0.67503 0.0
C391 C 0.34939 0.02042 0.64725 0.0
C392 C 0.31009 0.01994 0.66933 0.0
C393 C 0.26704 0.99437 0.63357 0.0
C394 C 0.22643 0.95145 0.66287 0.0
C395 C 0.25086 0.02859 0.6129 0.0
C396 C 0.2878 0.97914 0.58867 0.0
C397 C 0.33582 -0.00392 0.59631 0.0
C398 C 0.36235 0.98515 0.56117 0.0
C399 C 0.3386 0.95403 0.5187 0.0
C400 C 0.28895 0.93373 0.51287 0.0
C401 C 0.26348 0.94731 0.5472 0.0
H402 H 0.07151 0.36688 0.69026 0.0
H403 H 0.20963 0.47472 0.74854 0.0
H404 H 0.2409 0.48974 0.65584 0.0
H405 H 0.11566 0.31866 0.59303 0.0
H406 H 0.07065 0.30696 0.54356 0.0
H407 H 0.05763 0.3071 0.61384 0.0
H408 H 0.0331 0.37034 0.59607 0.0
H409 H 0.04595 0.37023 0.52565 0.0
H410 H 0.07419 0.4251 0.56281 0.0
H411 H 0.25797 0.49202 0.55871 0.0
H412 H 0.26162 0.47819 0.46194 0.0
H413 H 0.11342 0.36687 0.46534 0.0
C414 C 0.10811 0.39401 0.68318 0.0
C415 C 0.13826 0.4198 0.72626 0.0
C416 C 0.18617 0.45451 0.71592 0.0
C417 C 0.20411 0.46346 0.66349 0.0
C418 C 0.17372 0.4372 0.62191 0.0
C419 C 0.12682 0.40299 0.63097 0.0
C420 C 0.10278 0.37791 0.57922 0.0
C421 C 0.0857 0.3245 0.58264 0.0
C422 C 0.06157 0.38643 0.56511 0.0
C423 C 0.14376 0.40307 0.53997 0.0
C424 C 0.18406 0.43757 0.56547 0.0
C425 C 0.22664 0.4653 0.53813 0.0
C426 C 0.22832 0.45733 0.4832 0.0
C427 C 0.18782 0.42161 0.45631 0.0
C428 C 0.14493 0.39429 0.48508 0.0
H429 H 0.78285 0.20353 0.12685 0.0
H430 H 0.91838 0.29988 0.20156 0.0
H431 H 0.95537 0.32399 0.11222 0.0
H432 H 0.82992 0.16758 0.01636 0.0
H433 H 0.78766 0.16591 0.96834 0.0
H434 H 0.77177 0.15473 0.03836 0.0
H435 H 0.75096 0.22188 0.03858 0.0
H436 H 0.76677 0.23326 0.96857 0.0
H437 H 0.79488 0.28068 0.01672 0.0
H438 H 0.97757 0.33983 1.01445 0.0
H439 H 0.98343 0.34579 0.91593 0.0
H440 H 0.83386 0.24005 0.90318 0.0
C441 C 0.82022 0.22998 0.12464 0.0
C442 C 0.84747 0.24943 0.17197 0.0
C443 C 0.89656 0.28352 0.16653 0.0
C444 C 0.91798 0.29783 0.11571 0.0
C445 C 0.89003 0.27806 0.07019 0.0
C446 C 0.84223 0.24489 0.07409 0.0
C447 C 0.82019 0.22959 0.01866 0.0
C448 C 0.80127 0.17629 1.00993 0.0
C449 C 0.78087 0.24211 1.01015 0.0
C450 C 0.86298 0.25965 0.98301 0.0
C451 C 0.9029 0.28719 1.01367 0.0
C452 C 0.9466 0.31813 0.99008 0.0
C453 C 0.94966 0.32105 0.93381 0.0
C454 C 0.9094 0.29333 0.90107 0.0
C455 C 0.86542 0.26215 0.92654 0.0
H456 H 0.60276 0.79125 0.41515 0.0
H457 H 0.57672 0.64687 0.4034 0.0
H458 H 0.57498 0.65171 0.30481 0.0
H459 H 0.52457 0.78157 0.30759 0.0
H460 H 0.5625 0.8414 0.28376 0.0
H461 H 0.56339 0.82737 0.3536 0.0
H462 H 0.65428 0.86071 0.3478 0.0
H463 H 0.65367 0.87484 0.27793 0.0
H464 H 0.67763 0.83772 0.29783 0.0
H465 H 0.57419 0.67127 0.20716 0.0
H466 H 0.57407 0.704 0.11791 0.0
H467 H 0.60025 0.8357 0.19222 0.0
C468 C 0.59639 0.76048 0.392 0.0
C469 C 0.5902 0.71875 0.41757 0.0
C470 C 0.58252 0.67962 0.38523 0.0
C471 C 0.58111 0.68187 0.329 0.0
C472 C 0.58728 0.72342 0.30529 0.0
C473 C 0.59474 0.76203 0.33571 0.0
C474 C 0.59978 0.80227 0.30011 0.0
C475 C 0.5602 0.81382 0.31198 0.0
C476 C 0.64929 0.84649 0.30629 0.0
C477 C 0.59373 0.78012 0.24497 0.0
C478 C 0.5867 0.73467 0.24892 0.0
C479 C 0.57994 0.70694 0.20358 0.0
C480 C 0.58029 0.72607 0.15289 0.0
C481 C 0.58743 0.77267 0.14755 0.0
C482 C 0.59427 0.79987 0.19459 0.0
H483 H 0.79149 0.55303 0.78118 0.0
H484 H 0.74018 0.64279 0.84719 0.0
H485 H 0.71541 0.6523 0.75681 0.0
H486 H 0.83523 0.61447 0.65628 0.0
H487 H 0.81577 0.56124 0.61731 0.0
H488 H 0.83058 0.56211 0.68714 0.0
H489 H 0.74728 0.48933 0.70547 0.0
H490 H 0.73235 0.48809 0.63563 0.0
H491 H 0.69498 0.49178 0.68672 0.0
H492 H 0.69722 0.6533 0.65858 0.0
H493 H 0.68401 0.64284 0.56086 0.0
H494 H 0.74172 0.54793 0.5594 0.0
C495 C 0.77465 0.57435 0.77695 0.0
C496 C 0.76837 0.5975 0.8218 0.0
C497 C 0.74656 0.62548 0.81374 0.0
C498 C 0.73198 0.63087 0.76244 0.0
C499 C 0.73898 0.60779 0.71931 0.0
C500 C 0.75947 0.5798 0.72605 0.0
C501 C 0.76212 0.55814 0.6731 0.0
C502 C 0.81401 0.57501 0.65756 0.0
C503 C 0.7324 0.5036 0.67538 0.0
C504 C 0.7401 0.57851 0.63552 0.0
C505 C 0.72717 0.6072 0.66298 0.0
C506 C 0.70674 0.63048 0.63681 0.0
C507 C 0.69899 0.62398 0.58126 0.0
C508 C 0.71112 0.59405 0.55217 0.0
C509 C 0.73223 0.5713 0.58005 0.0
H510 H 0.23861 0.82018 0.79928 0.0
H511 H 0.1418 0.66806 0.81091 0.0
H512 H 0.15359 0.67194 0.90888 0.0
H513 H 0.3212 0.82566 0.90301 0.0
H514 H 0.33222 0.88221 0.92823 0.0
H515 H 0.31747 0.86746 0.85852 0.0
H516 H 0.24729 0.88336 0.86829 0.0
H517 H 0.26172 0.898 0.938 0.0
H518 H 0.20281 0.85219 0.91927 0.0
H519 H 0.17273 0.69233 1.00576 0.0
H520 H 0.19973 0.72786 0.09542 0.0
H521 H 0.28577 0.86659 0.022 0.0
C522 C 0.22044 0.78755 0.82228 0.0
C523 C 0.18895 0.74382 0.79718 0.0
C524 C 0.16543 0.70212 0.82909 0.0
C525 C 0.17215 0.70388 0.88482 0.0
C526 C 0.20282 0.74755 0.90829 0.0
C527 C 0.22686 0.78863 0.87812 0.0
C528 C 0.25709 0.83111 0.9137 0.0
C529 C 0.31015 0.85288 0.90005 0.0
C530 C 0.24126 0.86835 0.90956 0.0
C531 C 0.24571 0.80753 0.96859 0.0
C532 C 0.21438 0.75929 0.96442 0.0
C533 C 0.19744 0.73003 1.00953 0.0
C534 C 0.21275 0.75059 0.06031 0.0
C535 C 0.24478 0.8 0.06577 0.0
C536 C 0.2617 0.82866 0.01909 0.0
H537 H 0.41739 0.21515 0.44717 0.0
H538 H 0.3363 0.07274 0.51344 0.0
H539 H 0.33007 0.0392 0.42298 0.0
H540 H 0.35147 0.19206 0.32468 0.0
H541 H 0.40301 0.22994 0.28448 0.0
H542 H 0.40184 0.24258 0.35467 0.0
H543 H 0.47982 0.24075 0.36963 0.0
H544 H 0.48127 0.2282 0.29946 0.0
H545 H 0.4828 0.18903 0.3497 0.0
H546 H 0.33131 0.02133 0.32412 0.0
H547 H 0.34128 0.02057 0.22585 0.0
H548 H 0.42192 0.17477 0.22476 0.0
C549 C 0.39792 0.1769 0.44271 0.0
C550 C 0.37719 0.14667 0.48761 0.0
C551 C 0.35288 0.09674 0.47992 0.0
C552 C 0.34891 0.07732 0.42855 0.0
C553 C 0.3695 0.10823 0.38519 0.0
C554 C 0.39365 0.15695 0.39181 0.0
C555 C 0.41277 0.18246 0.33878 0.0
C556 C 0.39096 0.21358 0.32484 0.0
C557 C 0.4674 0.21183 0.33945 0.0
C558 C 0.39526 0.1405 0.30112 0.0
C559 C 0.37045 0.09799 0.32862 0.0
C560 C 0.35087 0.05444 0.30226 0.0
C561 C 0.35694 0.05438 0.24641 0.0
C562 C 0.38245 0.09759 0.21734 0.0
C563 C 0.40171 0.14111 0.24545 0.0
H564 H 0.13589 0.47792 0.24495 0.0
H565 H 0.14066 0.54165 0.09 0.0
H566 H 0.14171 0.60942 0.13574 0.0
H567 H 0.06239 0.52141 0.31513 0.0
H568 H 0.09481 0.53097 0.37688 0.0
H569 H 0.08664 0.48397 0.33215 0.0
H570 H 0.17754 0.51817 0.32876 0.0
H571 H 0.18627 0.56524 0.37336 0.0
H572 H 0.21592 0.5792 0.30908 0.0
H573 H 0.15314 0.6744 0.19703 0.0
H574 H 0.17536 0.73291 0.27009 0.0
H575 H 0.1631 0.62791 0.38583 0.0
C576 C 0.13604 0.50556 0.22052 0.0
C577 C 0.13814 0.50442 0.16379 0.0
C578 C 0.13887 0.54161 0.13343 0.0
C579 C 0.13924 0.58015 0.15907 0.0
C580 C 0.13821 0.58064 0.21505 0.0
C581 C 0.13623 0.54414 0.24547 0.0
C582 C 0.13973 0.55529 0.30498 0.0
C583 C 0.09312 0.52087 0.33399 0.0
C584 C 0.18243 0.55447 0.33051 0.0
C585 C 0.14697 0.60507 0.30312 0.0
C586 C 0.1448 0.61846 0.25083 0.0
C587 C 0.15401 0.66401 0.23814 0.0
C588 C 0.16681 0.69705 0.27971 0.0
C589 C 0.17044 0.68452 0.33311 0.0
C590 C 0.1594 0.63775 0.34531 0.0
H591 H 0.66983 0.20732 0.57555 0.0
H592 H 0.78185 0.29392 0.68835 0.0
H593 H 0.7223 0.28171 0.75655 0.0
H594 H 0.58847 0.24937 0.61832 0.0
H595 H 0.53595 0.19196 0.61017 0.0
H596 H 0.58749 0.20849 0.56882 0.0
H597 H 0.58805 0.13272 0.59999 0.0
H598 H 0.53703 0.11645 0.64216 0.0
H599 H 0.59069 0.12243 0.67072 0.0
H600 H 0.65226 0.25616 0.81519 0.0
H601 H 0.57362 0.22751 0.85725 0.0
H602 H 0.50541 0.16049 0.70707 0.0
C603 C 0.68163 0.22439 0.61422 0.0
C604 C 0.73057 0.2511 0.62677 0.0
C605 C 0.74462 0.27261 0.67805 0.0
C606 C 0.71106 0.26596 0.71719 0.0
C607 C 0.66328 0.23808 0.70452 0.0
C608 C 0.64829 0.21832 0.65412 0.0
C609 C 0.59437 0.19009 0.65169 0.0
C610 C 0.57546 0.21126 0.60977 0.0
C611 C 0.5765 0.13729 0.64048 0.0
C612 C 0.58193 0.19726 0.70843 0.0
C613 C 0.62231 0.22454 0.73832 0.0
C614 C 0.62022 0.23509 0.79216 0.0
C615 C 0.57546 0.21838 0.81585 0.0
C616 C 0.53356 0.19201 0.78544 0.0
C617 C 0.53694 0.18086 0.73122 0.0
H618 H 0.25919 0.49201 0.93721 0.0
H619 H 0.32705 0.49235 0.08755 0.0
H620 H 0.40558 0.54346 0.04649 0.0
H621 H 0.35005 0.49377 0.84685 0.0
H622 H 0.34585 0.5335 0.79952 0.0
H623 H 0.29458 0.49306 0.83863 0.0
H624 H 0.28648 0.56344 0.87412 0.0
H625 H 0.33737 0.60402 0.83487 0.0
H626 H 0.3366 0.61263 0.90628 0.0
H627 H 0.47555 0.59887 0.99328 0.0
H628 H 0.53349 0.65991 0.93208 0.0
H629 H 0.42254 0.62457 0.81438 0.0
C630 C 0.29061 0.50237 0.96128 0.0
C631 C 0.28693 0.48805 1.01564 0.0
C632 C 0.32887 0.50293 0.04595 0.0
C633 C 0.3737 0.53167 0.02286 0.0
C634 C 0.37609 0.54526 0.96937 0.0
C635 C 0.33579 0.53141 0.9389 0.0
C636 C 0.34846 0.55421 0.88357 0.0
C637 C 0.33387 0.51637 0.83954 0.0
C638 C 0.3259 0.58543 0.87419 0.0
C639 C 0.40216 0.58397 0.88829 0.0
C640 C 0.41715 0.57759 0.938 0.0
C641 C 0.46442 0.6036 0.95392 0.0
C642 C 0.49709 0.63809 0.91883 0.0
C643 C 0.4826 0.64624 0.86825 0.0
C644 C 0.43472 0.61802 0.85218 0.0
H645 H 0.82262 0.3923 0.49371 0.0
H646 H 0.93092 0.38381 0.40159 0.0
H647 H 0.92384 0.43197 0.32937 0.0
H648 H 0.74888 0.37405 0.39016 0.0
H649 H 0.72868 0.41436 0.40972 0.0
H650 H 0.74926 0.3891 0.4599 0.0
H651 H 0.81172 0.47294 0.49304 0.0
H652 H 0.79032 0.49863 0.44407 0.0
H653 H 0.85243 0.51615 0.44558 0.0
H654 H 0.89397 0.46667 0.26067 0.0
H655 H 0.85205 0.49728 0.20516 0.0
H656 H 0.76289 0.48377 0.34176 0.0
C657 C 0.8468 0.40323 0.45982 0.0
C658 C 0.87845 0.38578 0.45353 0.0
C659 C 0.90764 0.39825 0.40733 0.0
C660 C 0.90344 0.42513 0.36601 0.0
C661 C 0.86984 0.43944 0.37169 0.0
C662 C 0.8428 0.43004 0.41797 0.0
C663 C 0.80609 0.44548 0.41154 0.0
C664 C 0.75524 0.40322 0.41822 0.0
C665 C 0.81573 0.4857 0.45088 0.0
C666 C 0.81562 0.46324 0.35401 0.0
C667 C 0.85255 0.45954 0.33176 0.0
C668 C 0.86564 0.47072 0.27799 0.0
C669 C 0.84124 0.48748 0.24655 0.0
C670 C 0.80428 0.493 0.26907 0.0
C671 C 0.79127 0.48033 0.32344 0.0
H672 H 0.37606 0.78984 0.47265 0.0
H673 H 0.3145 0.85701 0.56767 0.0
H674 H 0.3648 0.86264 0.64463 0.0
H675 H 0.37956 0.71853 0.57309 0.0
H676 H 0.43577 0.7241 0.55445 0.0
H677 H 0.39989 0.73112 0.50441 0.0
H678 H 0.47014 0.81442 0.47966 0.0
H679 H 0.50643 0.80716 0.52917 0.0
H680 H 0.49865 0.85825 0.53162 0.0
H681 H 0.41443 0.85185 0.71443 0.0
H682 H 0.46513 0.83145 0.76954 0.0
H683 H 0.49478 0.77244 0.62816 0.0
C684 C 0.37463 0.80718 0.50913 0.0
C685 C 0.34244 0.82391 0.51433 0.0
C686 C 0.33988 0.84497 0.56293 0.0
C687 C 0.36813 0.84814 0.60685 0.0
C688 C 0.39887 0.83027 0.6012 0.0
C689 C 0.40292 0.81092 0.5533 0.0
C690 C 0.43664 0.79184 0.55882 0.0
C691 C 0.41143 0.73822 0.54701 0.0
C692 C 0.48057 0.81959 0.52268 0.0
C693 C 0.44945 0.80195 0.61758 0.0
C694 C 0.4276 0.82434 0.64136 0.0
C695 C 0.4324 0.83499 0.69609 0.0
C696 C 0.46092 0.82298 0.72714 0.0
C697 C 0.4841 0.80059 0.7032 0.0
C698 C 0.47802 0.79001 0.64773 0.0
H699 H 0.60425 0.41537 0.14649 0.0
H700 H 0.64748 0.5358 0.04031 0.0
H701 H 0.58688 0.48503 0.97488 0.0
H702 H 0.59271 0.33731 0.0476 0.0
H703 H 0.54142 0.28549 0.0746 0.0
H704 H 0.58087 0.33239 0.11879 0.0
H705 H 0.51038 0.34046 0.15477 0.0
H706 H 0.47057 0.2931 0.11093 0.0
H707 H 0.47343 0.34986 0.1082 0.0
H708 H 0.53202 0.42056 0.91474 0.0
H709 H 0.48353 0.34578 0.86509 0.0
H710 H 0.47528 0.26575 1.00852 0.0
C711 C 0.59945 0.43116 0.11046 0.0
C712 C 0.62989 0.47976 0.09885 0.0
C713 C 0.62393 0.49891 0.05031 0.0
C714 C 0.5896 0.4703 1.01282 0.0
C715 C 0.56131 0.42223 0.02422 0.0
C716 C 0.5654 0.40266 0.07199 0.0
C717 C 0.53427 0.34901 0.07115 0.0
C718 C 0.56412 0.32465 0.07844 0.0
C719 C 0.49481 0.33212 0.1138 0.0
C720 C 0.51395 0.34174 1.01487 0.0
C721 C 0.52949 0.38448 0.98879 0.0
C722 C 0.5187 0.38677 0.93503 0.0
C723 C 0.49139 0.34415 0.90703 0.0
C724 C 0.47531 0.2999 0.93284 0.0
C725 C 0.48633 0.29895 0.98772 0.0
loop_
_geom_bond_atom_site_label_1
_geom_bond_atom_site_label_2
_geom_bond_distance
_geom_bond_site_symmetry_2
_ccdc_geom_bond_type
Eu0 C9 2.828 . S
Eu0 O11 2.392 . S
Eu0 O13 2.418 . S
Eu0 O18 2.373 . S
Eu0 O21 2.488 . S
Eu0 O22 2.471 . S
Eu0 O23 2.349 . S
Eu1 O10 2.374 1_554 S
Eu1 O14 2.490 1_554 S
Eu1 O15 2.473 1_554 S
Eu1 O16 2.348 . S
Eu1 O19 2.391 . S
Eu1 O20 2.417 . S
Eu1 C30 2.830 1_554 S
C2 O20 1.244 . S
C2 O23 1.265 . S
C3 C4 1.379 . S
C3 C7 1.373 . S
C3 C9 1.505 . S
C4 C3 1.379 . S
C4 C6 1.369 . S
C4 H32 0.930 . S
C5 C7 1.383 . S
C5 C8 1.382 . S
C5 H33 0.930 . S
C6 C4 1.369 . S
C6 C8 1.392 . S
C6 H34 0.930 . S
C7 C3 1.373 . S
C7 C5 1.383 . S
C7 H35 0.931 . S
C8 C5 1.382 . S
C8 C6 1.392 . S
C9 Eu0 2.828 . S
C9 C3 1.505 . S
C9 O21 1.249 . S
C9 O22 1.244 . S
O10 Eu1 2.374 1_556 S
O10 C12 1.258 . S
O11 Eu0 2.392 . S
O11 C12 1.242 1_554 S
C12 O10 1.258 . S
C12 O11 1.242 1_556 S
O13 Eu0 2.418 . S
O13 C17 1.244 . S
O14 Eu1 2.490 1_556 S
O14 C30 1.249 . S
O15 Eu1 2.473 1_556 S
O15 C30 1.244 . S
O16 Eu1 2.348 . S
O16 C17 1.265 . S
C17 O13 1.244 . S
C17 O16 1.265 . S
O18 Eu0 2.373 . S
O18 C31 1.258 . S
O19 Eu1 2.391 . S
O19 C31 1.242 . S
O20 Eu1 2.417 . S
O20 C2 1.244 . S
O21 Eu0 2.488 . S
O21 C9 1.249 . S
O22 Eu0 2.471 . S
O22 C9 1.244 . S
O23 Eu0 2.349 . S
O23 C2 1.265 . S
C24 C25 1.379 . S
C24 C28 1.373 . S
C24 C30 1.505 . S
C25 C24 1.379 . S
C25 C27 1.369 . S
C25 H36 0.930 . S
C26 C28 1.383 . S
C26 C29 1.382 . S
C26 H37 0.930 . S
C27 C25 1.369 . S
C27 C29 1.392 . S
C27 H38 0.930 . S
C28 C24 1.373 . S
C28 C26 1.383 . S
C28 H39 0.931 . S
C29 C26 1.382 . S
C29 C27 1.392 . S
C30 Eu1 2.830 1_556 S
C30 O14 1.249 . S
C30 O15 1.244 . S
C30 C24 1.505 . S
C31 O18 1.258 . S
C31 O19 1.242 . S
H32 C4 0.930 . S
H33 C5 0.930 . S
H34 C6 0.930 . S
H35 C7 0.931 . S
H36 C25 0.930 . S
H37 C26 0.930 . S
H38 C27 0.930 . S
H39 C28 0.931 . S
Eu40 C49 2.828 . S
Eu40 O51 2.392 . S
Eu40 O53 2.418 . S
Eu40 O58 2.373 . S
Eu40 O61 2.488 . S
Eu40 O62 2.471 . S
Eu40 O63 2.349 . S
Eu41 O50 2.373 . S
Eu41 O54 2.488 . S
Eu41 O55 2.471 . S
Eu41 O56 2.349 . S
Eu41 O59 2.392 . S
Eu41 O60 2.418 . S
Eu41 C70 2.828 . S
C42 O60 1.244 . S
C42 O63 1.265 . S
C43 C44 1.379 . S
C43 C47 1.373 . S
C43 C49 1.505 . S
C44 C43 1.379 . S
C44 C46 1.369 . S
C44 H72 0.930 . S
C45 C47 1.383 . S
C45 C48 1.382 . S
C45 H73 0.930 . S
C46 C44 1.369 . S
C46 C48 1.392 . S
C46 H74 0.930 . S
C47 C43 1.373 . S
C47 C45 1.383 . S
C47 H75 0.931 . S
C48 C45 1.382 . S
C48 C46 1.392 . S
C49 Eu40 2.828 . S
C49 C43 1.505 . S
C49 O61 1.249 . S
C49 O62 1.244 . S
O50 Eu41 2.373 . S
O50 C52 1.258 . S
O51 Eu40 2.392 . S
O51 C52 1.242 . S
C52 O50 1.258 . S
C52 O51 1.242 . S
O53 Eu40 2.418 . S
O53 C57 1.244 . S
O54 Eu41 2.488 . S
O54 C70 1.249 . S
O55 Eu41 2.471 . S
O55 C70 1.244 . S
O56 Eu41 2.349 . S
O56 C57 1.265 . S
C57 O53 1.244 . S
C57 O56 1.265 . S
O58 Eu40 2.373 . S
O58 C71 1.258 . S
O59 Eu41 2.392 . S
O59 C71 1.242 . S
O60 Eu41 2.418 . S
O60 C42 1.244 . S
O61 Eu40 2.488 . S
O61 C49 1.249 . S
O62 Eu40 2.471 . S
O62 C49 1.244 . S
O63 Eu40 2.349 . S
O63 C42 1.265 . S
C64 C65 1.379 . S
C64 C68 1.373 . S
C64 C70 1.505 . S
C65 C64 1.379 . S
C65 C67 1.369 . S
C65 H76 0.930 . S
C66 C68 1.383 . S
C66 C69 1.382 . S
C66 H77 0.930 . S
C67 C65 1.369 . S
C67 C69 1.392 . S
C67 H78 0.930 . S
C68 C64 1.373 . S
C68 C66 1.383 . S
C68 H79 0.931 . S
C69 C66 1.382 . S
C69 C67 1.392 . S
C70 Eu41 2.828 . S
C70 O54 1.249 . S
C70 O55 1.244 . S
C70 C64 1.505 . S
C71 O58 1.258 . S
C71 O59 1.242 . S
H72 C44 0.930 . S
H73 C45 0.930 . S
H74 C46 0.930 . S
H75 C47 0.931 . S
H76 C65 0.930 . S
H77 C66 0.930 . S
H78 C67 0.930 . S
H79 C68 0.931 . S
Eu80 C89 2.828 . S
Eu80 O91 2.392 . S
Eu80 O93 2.418 . S
Eu80 O98 2.373 . S
Eu80 O101 2.488 . S
Eu80 O102 2.471 . S
Eu80 O103 2.349 . S
Eu81 O90 2.373 . S
Eu81 O94 2.488 . S
Eu81 O95 2.471 . S
Eu81 O96 2.349 . S
Eu81 O99 2.392 . S
Eu81 O100 2.418 . S
Eu81 C110 2.828 . S
C82 O100 1.244 . S
C82 O103 1.265 . S
C83 C84 1.379 . S
C83 C87 1.373 . S
C83 C89 1.505 . S
C84 C83 1.379 . S
C84 C86 1.369 1_556 S
C84 H112 0.930 . S
C85 C87 1.383 1_554 S
C85 C88 1.382 . S
C85 H113 0.930 . S
C86 C84 1.369 1_554 S
C86 C88 1.392 . S
C86 H114 0.930 . S
C87 C83 1.373 . S
C87 C85 1.383 1_556 S
C87 H115 0.931 . S
C88 C85 1.382 . S
C88 C86 1.392 . S
C89 Eu80 2.828 . S
C89 C83 1.505 . S
C89 O101 1.249 . S
C89 O102 1.244 . S
O90 Eu81 2.373 . S
O90 C92 1.258 . S
O91 Eu80 2.392 . S
O91 C92 1.242 . S
C92 O90 1.258 . S
C92 O91 1.242 . S
O93 Eu80 2.418 . S
O93 C97 1.244 . S
O94 Eu81 2.488 . S
O94 C110 1.249 . S
O95 Eu81 2.471 . S
O95 C110 1.244 . S
O96 Eu81 2.349 . S
O96 C97 1.265 . S
C97 O93 1.244 . S
C97 O96 1.265 . S
O98 Eu80 2.373 . S
O98 C111 1.258 . S
O99 Eu81 2.392 . S
O99 C111 1.242 . S
O100 Eu81 2.418 . S
O100 C82 1.244 . S
O101 Eu80 2.488 . S
O101 C89 1.249 . S
O102 Eu80 2.471 . S
O102 C89 1.244 . S
O103 Eu80 2.349 . S
O103 C82 1.265 . S
C104 C105 1.379 . S
C104 C108 1.373 . S
C104 C110 1.505 . S
C105 C104 1.379 . S
C105 C107 1.369 . S
C105 H116 0.930 . S
C106 C108 1.383 . S
C106 C109 1.382 . S
C106 H117 0.930 . S
C107 C105 1.369 . S
C107 C109 1.392 . S
C107 H118 0.930 . S
C108 C104 1.373 . S
C108 C106 1.383 . S
C108 H119 0.931 . S
C109 C106 1.382 . S
C109 C107 1.392 . S
C110 Eu81 2.828 . S
C110 O94 1.249 . S
C110 O95 1.244 . S
C110 C104 1.505 . S
C111 O98 1.258 . S
C111 O99 1.242 . S
H112 C84 0.930 . S
H113 C85 0.930 . S
H114 C86 0.930 . S
H115 C87 0.931 . S
H116 C105 0.930 . S
H117 C106 0.930 . S
H118 C107 0.930 . S
H119 C108 0.931 . S
Eu120 C129 2.828 . S
Eu120 O131 2.392 . S
Eu120 O133 2.418 . S
Eu120 O138 2.373 . S
Eu120 O141 2.488 . S
Eu120 O142 2.471 . S
Eu120 O143 2.349 . S
Eu121 O130 2.373 . S
Eu121 O134 2.488 . S
Eu121 O135 2.471 . S
Eu121 O136 2.349 . S
Eu121 O139 2.392 . S
Eu121 O140 2.418 . S
Eu121 C150 2.828 . S
C122 O140 1.244 . S
C122 O143 1.265 . S
C123 C124 1.379 . S
C123 C127 1.373 . S
C123 C129 1.505 1_556 S
C124 C123 1.379 . S
C124 C126 1.369 . S
C124 H152 0.930 . S
C125 C127 1.383 . S
C125 C128 1.382 . S
C125 H153 0.930 . S
C126 C124 1.369 . S
C126 C128 1.392 . S
C126 H154 0.930 . S
C127 C123 1.373 . S
C127 C125 1.383 . S
C127 H155 0.931 . S
C128 C125 1.382 . S
C128 C126 1.392 . S
C129 Eu120 2.828 . S
C129 C123 1.505 1_554 S
C129 O141 1.249 . S
C129 O142 1.244 . S
O130 Eu121 2.373 . S
O130 C132 1.258 . S
O131 Eu120 2.392 . S
O131 C132 1.242 . S
C132 O130 1.258 . S
C132 O131 1.242 . S
O133 Eu120 2.418 . S
O133 C137 1.244 . S
O134 Eu121 2.488 . S
O134 C150 1.249 . S
O135 Eu121 2.471 . S
O135 C150 1.244 . S
O136 Eu121 2.349 . S
O136 C137 1.265 . S
C137 O133 1.244 . S
C137 O136 1.265 . S
O138 Eu120 2.373 . S
O138 C151 1.258 . S
O139 Eu121 2.392 . S
O139 C151 1.242 . S
O140 Eu121 2.418 . S
O140 C122 1.244 . S
O141 Eu120 2.488 . S
O141 C129 1.249 . S
O142 Eu120 2.471 . S
O142 C129 1.244 . S
O143 Eu120 2.349 . S
O143 C122 1.265 . S
C144 C145 1.379 . S
C144 C148 1.373 . S
C144 C150 1.505 . S
C145 C144 1.379 . S
C145 C147 1.369 . S
C145 H156 0.930 . S
C146 C148 1.383 . S
C146 C149 1.382 . S
C146 H157 0.930 . S
C147 C145 1.369 . S
C147 C149 1.392 . S
C147 H158 0.930 . S
C148 C144 1.373 . S
C148 C146 1.383 . S
C148 H159 0.931 . S
C149 C146 1.382 . S
C149 C147 1.392 . S
C150 Eu121 2.828 . S
C150 O134 1.249 . S
C150 O135 1.244 . S
C150 C144 1.505 . S
C151 O138 1.258 . S
C151 O139 1.242 . S
H152 C124 0.930 . S
H153 C125 0.930 . S
H154 C126 0.930 . S
H155 C127 0.931 . S
H156 C145 0.930 . S
H157 C146 0.930 . S
H158 C147 0.930 . S
H159 C148 0.931 . S
Eu160 C169 2.828 . S
Eu160 O171 2.392 . S
Eu160 O173 2.418 . S
Eu160 O178 2.373 . S
Eu160 O181 2.488 . S
Eu160 O182 2.471 . S
Eu160 O183 2.349 . S
Eu161 O170 2.373 . S
Eu161 O174 2.488 . S
Eu161 O175 2.471 . S
Eu161 O176 2.349 . S
Eu161 O179 2.392 . S
Eu161 O180 2.418 . S
Eu161 C190 2.828 . S
C162 O180 1.244 . S
C162 O183 1.265 . S
C163 C164 1.379 . S
C163 C167 1.373 . S
C163 C169 1.505 . S
C164 C163 1.379 . S
C164 C166 1.369 . S
C164 H192 0.930 . S
C165 C167 1.383 . S
C165 C168 1.382 . S
C165 H193 0.930 . S
C166 C164 1.369 . S
C166 C168 1.392 . S
C166 H194 0.930 . S
C167 C163 1.373 . S
C167 C165 1.383 . S
C167 H195 0.931 . S
C168 C165 1.382 . S
C168 C166 1.392 . S
C169 Eu160 2.828 . S
C169 C163 1.505 . S
C169 O181 1.249 . S
C169 O182 1.244 . S
O170 Eu161 2.373 . S
O170 C172 1.258 . S
O171 Eu160 2.392 . S
O171 C172 1.242 . S
C172 O170 1.258 . S
C172 O171 1.242 . S
O173 Eu160 2.418 . S
O173 C177 1.244 . S
O174 Eu161 2.488 . S
O174 C190 1.249 . S
O175 Eu161 2.471 . S
O175 C190 1.244 . S
O176 Eu161 2.349 . S
O176 C177 1.265 . S
C177 O173 1.244 . S
C177 O176 1.265 . S
O178 Eu160 2.373 . S
O178 C191 1.258 . S
O179 Eu161 2.392 . S
O179 C191 1.242 . S
O180 Eu161 2.418 . S
O180 C162 1.244 . S
O181 Eu160 2.488 . S
O181 C169 1.249 . S
O182 Eu160 2.471 . S
O182 C169 1.244 . S
O183 Eu160 2.349 . S
O183 C162 1.265 . S
C184 C185 1.379 . S
C184 C188 1.373 . S
C184 C190 1.505 . S
C185 C184 1.379 . S
C185 C187 1.369 . S
C185 H196 0.930 . S
C186 C188 1.383 . S
C186 C189 1.382 . S
C186 H197 0.930 . S
C187 C185 1.369 . S
C187 C189 1.392 . S
C187 H198 0.930 . S
C188 C184 1.373 . S
C188 C186 1.383 . S
C188 H199 0.931 . S
C189 C186 1.382 . S
C189 C187 1.392 . S
C190 Eu161 2.828 . S
C190 O174 1.249 . S
C190 O175 1.244 . S
C190 C184 1.505 . S
C191 O178 1.258 . S
C191 O179 1.242 . S
H192 C164 0.930 . S
H193 C165 0.930 . S
H194 C166 0.930 . S
H195 C167 0.931 . S
H196 C185 0.930 . S
H197 C186 0.930 . S
H198 C187 0.930 . S
H199 C188 0.931 . S
Eu200 C209 2.828 . S
Eu200 O211 2.392 . S
Eu200 O213 2.418 . S
Eu200 O218 2.373 . S
Eu200 O221 2.488 . S
Eu200 O222 2.471 . S
Eu200 O223 2.349 . S
Eu201 O210 2.373 . S
Eu201 O214 2.488 1_556 S
Eu201 O215 2.471 1_556 S
Eu201 O216 2.349 . S
Eu201 O219 2.392 . S
Eu201 O220 2.418 . S
Eu201 C230 2.828 1_556 S
C202 O220 1.244 . S
C202 O223 1.265 . S
C203 C204 1.379 . S
C203 C207 1.373 . S
C203 C209 1.505 . S
C204 C203 1.379 . S
C204 C206 1.369 . S
C204 H232 0.930 . S
C205 C207 1.383 . S
C205 C208 1.382 . S
C205 H233 0.930 . S
C206 C204 1.369 . S
C206 C208 1.392 . S
C206 H234 0.930 . S
C207 C203 1.373 . S
C207 C205 1.383 . S
C207 H235 0.931 . S
C208 C205 1.382 . S
C208 C206 1.392 . S
C209 Eu200 2.828 . S
C209 C203 1.505 . S
C209 O221 1.249 . S
C209 O222 1.244 . S
O210 Eu201 2.373 . S
O210 C212 1.258 . S
O211 Eu200 2.392 . S
O211 C212 1.242 . S
C212 O210 1.258 . S
C212 O211 1.242 . S
O213 Eu200 2.418 . S
O213 C217 1.244 . S
O214 Eu201 2.488 1_554 S
O214 C230 1.249 . S
O215 Eu201 2.471 1_554 S
O215 C230 1.244 . S
O216 Eu201 2.349 . S
O216 C217 1.265 . S
C217 O213 1.244 . S
C217 O216 1.265 . S
O218 Eu200 2.373 . S
O218 C231 1.258 . S
O219 Eu201 2.392 . S
O219 C231 1.242 . S
O220 Eu201 2.418 . S
O220 C202 1.244 . S
O221 Eu200 2.488 . S
O221 C209 1.249 . S
O222 Eu200 2.471 . S
O222 C209 1.244 . S
O223 Eu200 2.349 . S
O223 C202 1.265 . S
C224 C225 1.379 . S
C224 C228 1.373 . S
C224 C230 1.505 . S
C225 C224 1.379 . S
C225 C227 1.369 . S
C225 H236 0.930 . S
C226 C228 1.383 . S
C226 C229 1.382 . S
C226 H237 0.930 . S
C227 C225 1.369 . S
C227 C229 1.392 . S
C227 H238 0.930 . S
C228 C224 1.373 . S
C228 C226 1.383 . S
C228 H239 0.931 . S
C229 C226 1.382 . S
C229 C227 1.392 . S
C230 Eu201 2.828 1_554 S
C230 O214 1.249 . S
C230 O215 1.244 . S
C230 C224 1.505 . S
C231 O218 1.258 . S
C231 O219 1.242 . S
H232 C204 0.930 . S
H233 C205 0.930 . S
H234 C206 0.930 . S
H235 C207 0.931 . S
H236 C225 0.930 . S
H237 C226 0.930 . S
H238 C227 0.930 . S
H239 C228 0.931 . S
H240 C252 0.930 . S
H241 C254 0.930 . S
H242 C255 0.930 . S
H243 C259 0.959 1_556 S
H244 C259 0.959 . S
H245 C259 0.961 . S
H246 C260 0.960 . S
H247 C260 0.961 . S
H248 C260 0.959 . S
H249 C263 0.929 . S
H250 C264 0.931 . S
H251 C266 0.930 . S
C252 H240 0.930 . S
C252 C253 1.399 . S
C252 C257 1.399 . S
C253 C252 1.399 . S
C253 C254 1.376 . S
C254 H241 0.930 . S
C254 C253 1.376 . S
C254 C255 1.388 . S
C255 H242 0.930 . S
C255 C254 1.388 . S
C255 C256 1.390 . S
C256 C255 1.390 . S
C256 C257 1.394 . S
C256 C262 1.465 . S
C257 C252 1.399 . S
C257 C256 1.394 . S
C257 C258 1.516 1_556 S
C258 C257 1.516 1_554 S
C258 C259 1.502 . S
C258 C260 1.561 . S
C258 C261 1.526 1_554 S
C259 H243 0.959 1_554 S
C259 H244 0.959 . S
C259 H245 0.961 . S
C259 C258 1.502 . S
C260 H246 0.960 . S
C260 H247 0.961 . S
C260 H248 0.959 . S
C260 C258 1.561 . S
C261 C258 1.526 1_556 S
C261 C262 1.396 . S
C261 C266 1.390 1_556 S
C262 C256 1.465 . S
C262 C261 1.396 . S
C262 C263 1.399 . S
C263 H249 0.929 . S
C263 C262 1.399 . S
C263 C264 1.385 . S
C264 H250 0.931 . S
C264 C263 1.385 . S
C264 C265 1.389 1_556 S
C265 C264 1.389 1_554 S
C265 C266 1.387 . S
C266 H251 0.930 . S
C266 C261 1.390 1_554 S
C266 C265 1.387 . S
H267 C279 0.930 . S
H268 C281 0.930 1_655 S
H269 C282 0.930 . S
H270 C286 0.959 . S
H271 C286 0.959 . S
H272 C286 0.961 . S
H273 C287 0.960 . S
H274 C287 0.961 . S
H275 C287 0.959 1_655 S
H276 C290 0.929 . S
H277 C291 0.931 . S
H278 C293 0.930 1_455 S
C279 H267 0.930 . S
C279 C280 1.399 . S
C279 C284 1.399 . S
C280 C279 1.399 . S
C280 C281 1.376 . S
C281 H268 0.930 1_455 S
C281 C280 1.376 . S
C281 C282 1.388 1_455 S
C282 H269 0.930 . S
C282 C281 1.388 1_655 S
C282 C283 1.390 . S
C283 C282 1.390 . S
C283 C284 1.394 1_655 S
C283 C289 1.465 . S
C284 C279 1.399 . S
C284 C283 1.394 1_455 S
C284 C285 1.516 . S
C285 C284 1.516 . S
C285 C286 1.502 . S
C285 C287 1.561 . S
C285 C288 1.526 1_455 S
C286 H270 0.959 . S
C286 H271 0.959 . S
C286 H272 0.961 . S
C286 C285 1.502 . S
C287 H273 0.960 . S
C287 H274 0.961 . S
C287 H275 0.959 1_455 S
C287 C285 1.561 . S
C288 C285 1.526 1_655 S
C288 C289 1.396 . S
C288 C293 1.390 . S
C289 C283 1.465 . S
C289 C288 1.396 . S
C289 C290 1.399 . S
C290 H276 0.929 . S
C290 C289 1.399 . S
C290 C291 1.385 . S
C291 H277 0.931 . S
C291 C290 1.385 . S
C291 C292 1.389 . S
C292 C291 1.389 . S
C292 C293 1.387 . S
C293 H278 0.930 1_655 S
C293 C288 1.390 . S
C293 C292 1.387 . S
H294 C306 0.930 . S
H295 C308 0.930 . S
H296 C309 0.930 . S
H297 C313 0.959 . S
H298 C313 0.959 . S
H299 C313 0.961 . S
H300 C314 0.960 . S
H301 C314 0.961 . S
H302 C314 0.959 . S
H303 C317 0.929 . S
H304 C318 0.931 . S
H305 C320 0.930 . S
C306 H294 0.930 . S
C306 C307 1.399 . S
C306 C311 1.399 . S
C307 C306 1.399 . S
C307 C308 1.376 . S
C308 H295 0.930 . S
C308 C307 1.376 . S
C308 C309 1.388 . S
C309 H296 0.930 . S
C309 C308 1.388 . S
C309 C310 1.390 . S
C310 C309 1.390 . S
C310 C311 1.394 . S
C310 C316 1.465 1_545 S
C311 C306 1.399 . S
C311 C310 1.394 . S
C311 C312 1.516 1_545 S
C312 C311 1.516 1_565 S
C312 C313 1.502 . S
C312 C314 1.561 . S
C312 C315 1.526 . S
C313 H297 0.959 . S
C313 H298 0.959 . S
C313 H299 0.961 . S
C313 C312 1.502 . S
C314 H300 0.960 . S
C314 H301 0.961 . S
C314 H302 0.959 . S
C314 C312 1.561 . S
C315 C312 1.526 . S
C315 C316 1.396 . S
C315 C320 1.390 . S
C316 C310 1.465 1_565 S
C316 C315 1.396 . S
C316 C317 1.399 . S
C317 H303 0.929 . S
C317 C316 1.399 . S
C317 C318 1.385 . S
C318 H304 0.931 . S
C318 C317 1.385 . S
C318 C319 1.389 . S
C319 C318 1.389 . S
C319 C320 1.387 . S
C320 H305 0.930 . S
C320 C315 1.390 . S
C320 C319 1.387 . S
H321 C333 0.930 . S
H322 C335 0.930 . S
H323 C336 0.930 . S
H324 C340 0.959 . S
H325 C340 0.959 1_554 S
H326 C340 0.961 . S
H327 C341 0.960 . S
H328 C341 0.961 . S
H329 C341 0.959 . S
H330 C344 0.929 . S
H331 C345 0.931 . S
H332 C347 0.930 . S
C333 H321 0.930 . S
C333 C334 1.399 . S
C333 C338 1.399 . S
C334 C333 1.399 . S
C334 C335 1.376 . S
C335 H322 0.930 . S
C335 C334 1.376 . S
C335 C336 1.388 . S
C336 H323 0.930 . S
C336 C335 1.388 . S
C336 C337 1.390 . S
C337 C336 1.390 . S
C337 C338 1.394 . S
C337 C343 1.465 . S
C338 C333 1.399 . S
C338 C337 1.394 . S
C338 C339 1.516 . S
C339 C338 1.516 . S
C339 C340 1.502 . S
C339 C341 1.561 . S
C339 C342 1.526 1_556 S
C340 H324 0.959 . S
C340 H325 0.959 1_556 S
C340 H326 0.961 . S
C340 C339 1.502 . S
C341 H327 0.960 . S
C341 H328 0.961 . S
C341 H329 0.959 . S
C341 C339 1.561 . S
C342 C339 1.526 1_554 S
C342 C343 1.396 1_554 S
C342 C347 1.390 . S
C343 C337 1.465 . S
C343 C342 1.396 1_556 S
C343 C344 1.399 1_556 S
C344 H330 0.929 . S
C344 C343 1.399 1_554 S
C344 C345 1.385 . S
C345 H331 0.931 . S
C345 C344 1.385 . S
C345 C346 1.389 . S
C346 C345 1.389 . S
C346 C347 1.387 . S
C347 H332 0.930 . S
C347 C342 1.390 . S
C347 C346 1.387 . S
H348 C360 0.930 . S
H349 C362 0.930 . S
H350 C363 0.930 . S
H351 C367 0.959 . S
H352 C367 0.959 . S
H353 C367 0.961 . S
H354 C368 0.960 . S
H355 C368 0.961 . S
H356 C368 0.959 . S
H357 C371 0.929 . S
H358 C372 0.931 . S
H359 C374 0.930 . S
C360 H348 0.930 . S
C360 C361 1.399 . S
C360 C365 1.399 . S
C361 C360 1.399 . S
C361 C362 1.376 . S
C362 H349 0.930 . S
C362 C361 1.376 . S
C362 C363 1.388 . S
C363 H350 0.930 . S
C363 C362 1.388 . S
C363 C364 1.390 . S
C364 C363 1.390 . S
C364 C365 1.394 . S
C364 C370 1.465 1_455 S
C365 C360 1.399 . S
C365 C364 1.394 . S
C365 C366 1.516 . S
C366 C365 1.516 . S
C366 C367 1.502 . S
C366 C368 1.561 . S
C366 C369 1.526 1_455 S
C367 H351 0.959 . S
C367 H352 0.959 . S
C367 H353 0.961 . S
C367 C366 1.502 . S
C368 H354 0.960 . S
C368 H355 0.961 . S
C368 H356 0.959 . S
C368 C366 1.561 . S
C369 C366 1.526 1_655 S
C369 C370 1.396 . S
C369 C374 1.390 . S
C370 C364 1.465 1_655 S
C370 C369 1.396 . S
C370 C371 1.399 . S
C371 H357 0.929 . S
C371 C370 1.399 . S
C371 C372 1.385 . S
C372 H358 0.931 . S
C372 C371 1.385 . S
C372 C373 1.389 . S
C373 C372 1.389 . S
C373 C374 1.387 . S
C374 H359 0.930 . S
C374 C369 1.390 . S
C374 C373 1.387 . S
H375 C387 0.930 . S
H376 C389 0.930 . S
H377 C390 0.930 1_565 S
H378 C394 0.959 1_565 S
H379 C394 0.959 . S
H380 C394 0.961 . S
H381 C395 0.960 . S
H382 C395 0.961 . S
H383 C395 0.959 . S
H384 C398 0.929 . S
H385 C399 0.931 . S
H386 C401 0.930 . S
C387 H375 0.930 . S
C387 C388 1.399 . S
C387 C392 1.399 . S
C388 C387 1.399 . S
C388 C389 1.376 . S
C389 H376 0.930 . S
C389 C388 1.376 . S
C389 C390 1.388 . S
C390 H377 0.930 1_545 S
C390 C389 1.388 . S
C390 C391 1.390 . S
C391 C390 1.390 . S
C391 C392 1.394 . S
C391 C397 1.465 1_545 S
C392 C387 1.399 . S
C392 C391 1.394 . S
C392 C393 1.516 . S
C393 C392 1.516 . S
C393 C394 1.502 . S
C393 C395 1.561 . S
C393 C396 1.526 1_545 S
C394 H378 0.959 1_545 S
C394 H379 0.959 . S
C394 H380 0.961 . S
C394 C393 1.502 . S
C395 H381 0.960 . S
C395 H382 0.961 . S
C395 H383 0.959 . S
C395 C393 1.561 . S
C396 C393 1.526 1_565 S
C396 C397 1.396 . S
C396 C401 1.390 . S
C397 C391 1.465 1_565 S
C397 C396 1.396 . S
C397 C398 1.399 . S
C398 H384 0.929 . S
C398 C397 1.399 . S
C398 C399 1.385 . S
C399 H385 0.931 . S
C399 C398 1.385 . S
C399 C400 1.389 . S
C400 C399 1.389 . S
C400 C401 1.387 . S
C401 H386 0.930 . S
C401 C396 1.390 . S
C401 C400 1.387 . S
H402 C414 0.930 . S
H403 C416 0.930 . S
H404 C417 0.930 . S
H405 C421 0.959 . S
H406 C421 0.959 . S
H407 C421 0.961 . S
H408 C422 0.960 . S
H409 C422 0.961 . S
H410 C422 0.959 . S
H411 C425 0.929 . S
H412 C426 0.931 . S
H413 C428 0.930 . S
C414 H402 0.930 . S
C414 C415 1.399 . S
C414 C419 1.399 . S
C415 C414 1.399 . S
C415 C416 1.376 . S
C416 H403 0.930 . S
C416 C415 1.376 . S
C416 C417 1.388 . S
C417 H404 0.930 . S
C417 C416 1.388 . S
C417 C418 1.390 . S
C418 C417 1.390 . S
C418 C419 1.394 . S
C418 C424 1.465 . S
C419 C414 1.399 . S
C419 C418 1.394 . S
C419 C420 1.516 . S
C420 C419 1.516 . S
C420 C421 1.502 . S
C420 C422 1.561 . S
C420 C423 1.526 . S
C421 H405 0.959 . S
C421 H406 0.959 . S
C421 H407 0.961 . S
C421 C420 1.502 . S
C422 H408 0.960 . S
C422 H409 0.961 . S
C422 H410 0.959 . S
C422 C420 1.561 . S
C423 C420 1.526 . S
C423 C424 1.396 . S
C423 C428 1.390 . S
C424 C418 1.465 . S
C424 C423 1.396 . S
C424 C425 1.399 . S
C425 H411 0.929 . S
C425 C424 1.399 . S
C425 C426 1.385 . S
C426 H412 0.931 . S
C426 C425 1.385 . S
C426 C427 1.389 . S
C427 C426 1.389 . S
C427 C428 1.387 . S
C428 H413 0.930 . S
C428 C423 1.390 . S
C428 C427 1.387 . S
H429 C441 0.930 . S
H430 C443 0.930 . S
H431 C444 0.930 . S
H432 C448 0.959 1_554 S
H433 C448 0.959 . S
H434 C448 0.961 1_554 S
H435 C449 0.960 1_554 S
H436 C449 0.961 . S
H437 C449 0.959 1_554 S
H438 C452 0.937 . S
H439 C453 0.931 . S
H440 C455 0.930 . S
C441 H429 0.930 . S
C441 C442 1.399 . S
C441 C446 1.399 . S
C442 C441 1.399 . S
C442 C443 1.376 . S
C443 H430 0.930 . S
C443 C442 1.376 . S
C443 C444 1.388 . S
C444 H431 0.930 . S
C444 C443 1.388 . S
C444 C445 1.390 . S
C445 C444 1.390 . S
C445 C446 1.394 . S
C445 C451 1.465 . S
C446 C441 1.399 . S
C446 C445 1.394 . S
C446 C447 1.516 . S
C447 C446 1.516 . S
C447 C448 1.502 1_554 S
C447 C449 1.561 1_554 S
C447 C450 1.526 1_554 S
C448 H432 0.959 1_556 S
C448 H433 0.959 . S
C448 H434 0.961 1_556 S
C448 C447 1.502 1_556 S
C449 H435 0.960 1_556 S
C449 H436 0.961 . S
C449 H437 0.959 1_556 S
C449 C447 1.561 1_556 S
C450 C447 1.526 1_556 S
C450 C451 1.396 1_556 S
C450 C455 1.390 . S
C451 C445 1.465 . S
C451 C450 1.396 1_554 S
C451 C452 1.402 . S
C452 H438 0.937 . S
C452 C451 1.402 . S
C452 C453 1.374 1_554 S
C453 H439 0.931 . S
C453 C452 1.374 1_556 S
C453 C454 1.389 . S
C454 C453 1.389 . S
C454 C455 1.387 . S
C455 H440 0.930 . S
C455 C450 1.390 . S
C455 C454 1.387 . S
H456 C468 0.930 . S
H457 C470 0.930 . S
H458 C471 0.930 . S
H459 C475 0.959 . S
H460 C475 0.959 . S
H461 C475 0.961 . S
H462 C476 0.960 . S
H463 C476 0.961 . S
H464 C476 0.959 . S
H465 C479 0.929 . S
H466 C480 0.931 . S
H467 C482 0.930 . S
C468 H456 0.930 . S
C468 C469 1.399 . S
C468 C473 1.399 . S
C469 C468 1.399 . S
C469 C470 1.376 . S
C470 H457 0.930 . S
C470 C469 1.376 . S
C470 C471 1.388 . S
C471 H458 0.930 . S
C471 C470 1.388 . S
C471 C472 1.390 . S
C472 C471 1.390 . S
C472 C473 1.394 . S
C472 C478 1.465 . S
C473 C468 1.399 . S
C473 C472 1.394 . S
C473 C474 1.516 . S
C474 C473 1.516 . S
C474 C475 1.502 . S
C474 C476 1.561 . S
C474 C477 1.526 . S
C475 H459 0.959 . S
C475 H460 0.959 . S
C475 H461 0.961 . S
C475 C474 1.502 . S
C476 H462 0.960 . S
C476 H463 0.961 . S
C476 H464 0.959 . S
C476 C474 1.561 . S
C477 C474 1.526 . S
C477 C478 1.396 . S
C477 C482 1.390 . S
C478 C472 1.465 . S
C478 C477 1.396 . S
C478 C479 1.399 . S
C479 H465 0.929 . S
C479 C478 1.399 . S
C479 C480 1.385 . S
C480 H466 0.931 . S
C480 C479 1.385 . S
C480 C481 1.389 . S
C481 C480 1.389 . S
C481 C482 1.387 . S
C482 H467 0.930 . S
C482 C477 1.390 . S
C482 C481 1.387 . S
H483 C495 0.930 . S
H484 C497 0.930 . S
H485 C498 0.930 . S
H486 C502 0.959 . S
H487 C502 0.959 . S
H488 C502 0.961 . S
H489 C503 0.960 . S
H490 C503 0.961 . S
H491 C503 0.959 . S
H492 C506 0.929 . S
H493 C507 0.931 . S
H494 C509 0.930 . S
C495 H483 0.930 . S
C495 C496 1.399 . S
C495 C500 1.399 . S
C496 C495 1.399 . S
C496 C497 1.376 . S
C497 H484 0.930 . S
C497 C496 1.376 . S
C497 C498 1.388 . S
C498 H485 0.930 . S
C498 C497 1.388 . S
C498 C499 1.390 . S
C499 C498 1.390 . S
C499 C500 1.394 . S
C499 C505 1.465 . S
C500 C495 1.399 . S
C500 C499 1.394 . S
C500 C501 1.516 . S
C501 C500 1.516 . S
C501 C502 1.502 . S
C501 C503 1.561 . S
C501 C504 1.526 . S
C502 H486 0.959 . S
C502 H487 0.959 . S
C502 H488 0.961 . S
C502 C501 1.502 . S
C503 H489 0.960 . S
C503 H490 0.961 . S
C503 H491 0.959 . S
C503 C501 1.561 . S
C504 C501 1.526 . S
C504 C505 1.396 . S
C504 C509 1.390 . S
C505 C499 1.465 . S
C505 C504 1.396 . S
C505 C506 1.399 . S
C506 H492 0.929 . S
C506 C505 1.399 . S
C506 C507 1.385 . S
C507 H493 0.931 . S
C507 C506 1.385 . S
C507 C508 1.389 . S
C508 C507 1.389 . S
C508 C509 1.387 . S
C509 H494 0.930 . S
C509 C504 1.390 . S
C509 C508 1.387 . S
H510 C522 0.930 . S
H511 C524 0.930 . S
H512 C525 0.930 . S
H513 C529 0.959 . S
H514 C529 0.959 . S
H515 C529 0.961 . S
H516 C530 0.960 . S
H517 C530 0.961 . S
H518 C530 0.959 . S
H519 C533 0.929 . S
H520 C534 0.931 . S
H521 C536 0.930 . S
C522 H510 0.930 . S
C522 C523 1.399 . S
C522 C527 1.399 . S
C523 C522 1.399 . S
C523 C524 1.376 . S
C524 H511 0.930 . S
C524 C523 1.376 . S
C524 C525 1.388 . S
C525 H512 0.930 . S
C525 C524 1.388 . S
C525 C526 1.390 . S
C526 C525 1.390 . S
C526 C527 1.394 . S
C526 C532 1.465 . S
C527 C522 1.399 . S
C527 C526 1.394 . S
C527 C528 1.516 . S
C528 C527 1.516 . S
C528 C529 1.502 . S
C528 C530 1.561 . S
C528 C531 1.526 . S
C529 H513 0.959 . S
C529 H514 0.959 . S
C529 H515 0.961 . S
C529 C528 1.502 . S
C530 H516 0.960 . S
C530 H517 0.961 . S
C530 H518 0.959 . S
C530 C528 1.561 . S
C531 C528 1.526 . S
C531 C532 1.396 . S
C531 C536 1.390 . S
C532 C526 1.465 . S
C532 C531 1.396 . S
C532 C533 1.399 . S
C533 H519 0.929 . S
C533 C532 1.399 . S
C533 C534 1.385 1_556 S
C534 H520 0.931 . S
C534 C533 1.385 1_554 S
C534 C535 1.389 . S
C535 C534 1.389 . S
C535 C536 1.387 1_554 S
C536 H521 0.930 . S
C536 C531 1.390 . S
C536 C535 1.387 1_556 S
H537 C549 0.930 . S
H538 C551 0.930 . S
H539 C552 0.930 . S
H540 C556 0.959 . S
H541 C556 0.959 . S
H542 C556 0.961 . S
H543 C557 0.960 . S
H544 C557 0.961 . S
H545 C557 0.959 . S
H546 C560 0.929 . S
H547 C561 0.931 . S
H548 C563 0.930 . S
C549 H537 0.930 . S
C549 C550 1.399 . S
C549 C554 1.399 . S
C550 C549 1.399 . S
C550 C551 1.376 . S
C551 H538 0.930 . S
C551 C550 1.376 . S
C551 C552 1.388 . S
C552 H539 0.930 . S
C552 C551 1.388 . S
C552 C553 1.390 . S
C553 C552 1.390 . S
C553 C554 1.394 . S
C553 C559 1.465 . S
C554 C549 1.399 . S
C554 C553 1.394 . S
C554 C555 1.516 . S
C555 C554 1.516 . S
C555 C556 1.502 . S
C555 C557 1.561 . S
C555 C558 1.526 . S
C556 H540 0.959 . S
C556 H541 0.959 . S
C556 H542 0.961 . S
C556 C555 1.502 . S
C557 H543 0.960 . S
C557 H544 0.961 . S
C557 H545 0.959 . S
C557 C555 1.561 . S
C558 C555 1.526 . S
C558 C559 1.396 . S
C558 C563 1.390 . S
C559 C553 1.465 . S
C559 C558 1.396 . S
C559 C560 1.399 . S
C560 H546 0.929 . S
C560 C559 1.399 . S
C560 C561 1.385 . S
C561 H547 0.931 . S
C561 C560 1.385 . S
C561 C562 1.389 . S
C562 C561 1.389 . S
C562 C563 1.387 . S
C563 H548 0.930 . S
C563 C558 1.390 . S
C563 C562 1.387 . S
H564 C576 0.930 . S
H565 C578 0.930 . S
H566 C579 0.930 . S
H567 C583 0.959 . S
H568 C583 0.959 . S
H569 C583 0.961 . S
H570 C584 0.960 . S
H571 C584 0.961 . S
H572 C584 0.959 . S
H573 C587 0.929 . S
H574 C588 0.931 . S
H575 C590 0.930 . S
C576 H564 0.930 . S
C576 C577 1.399 . S
C576 C581 1.399 . S
C577 C576 1.399 . S
C577 C578 1.376 . S
C578 H565 0.930 . S
C578 C577 1.376 . S
C578 C579 1.388 . S
C579 H566 0.930 . S
C579 C578 1.388 . S
C579 C580 1.390 . S
C580 C579 1.390 . S
C580 C581 1.394 . S
C580 C586 1.465 . S
C581 C576 1.399 . S
C581 C580 1.394 . S
C581 C582 1.516 . S
C582 C581 1.516 . S
C582 C583 1.502 . S
C582 C584 1.561 . S
C582 C585 1.526 . S
C583 H567 0.959 . S
C583 H568 0.959 . S
C583 H569 0.961 . S
C583 C582 1.502 . S
C584 H570 0.960 . S
C584 H571 0.961 . S
C584 H572 0.959 . S
C584 C582 1.561 . S
C585 C582 1.526 . S
C585 C586 1.396 . S
C585 C590 1.390 . S
C586 C580 1.465 . S
C586 C585 1.396 . S
C586 C587 1.399 . S
C587 H573 0.929 . S
C587 C586 1.399 . S
C587 C588 1.385 . S
C588 H574 0.931 . S
C588 C587 1.385 . S
C588 C589 1.389 . S
C589 C588 1.389 . S
C589 C590 1.387 . S
C590 H575 0.930 . S
C590 C585 1.390 . S
C590 C589 1.387 . S
H591 C603 0.930 . S
H592 C605 0.930 . S
H593 C606 0.930 . S
H594 C610 0.959 . S
H595 C610 0.959 . S
H596 C610 0.961 . S
H597 C611 0.960 . S
H598 C611 0.961 . S
H599 C611 0.959 . S
H600 C614 0.929 . S
H601 C615 0.931 . S
H602 C617 0.930 . S
C603 H591 0.930 . S
C603 C604 1.399 . S
C603 C608 1.399 . S
C604 C603 1.399 . S
C604 C605 1.376 . S
C605 H592 0.930 . S
C605 C604 1.376 . S
C605 C606 1.388 . S
C606 H593 0.930 . S
C606 C605 1.388 . S
C606 C607 1.390 . S
C607 C606 1.390 . S
C607 C608 1.394 . S
C607 C613 1.465 . S
C608 C603 1.399 . S
C608 C607 1.394 . S
C608 C609 1.516 . S
C609 C608 1.516 . S
C609 C610 1.502 . S
C609 C611 1.561 . S
C609 C612 1.526 . S
C610 H594 0.959 . S
C610 H595 0.959 . S
C610 H596 0.961 . S
C610 C609 1.502 . S
C611 H597 0.960 . S
C611 H598 0.961 . S
C611 H599 0.959 . S
C611 C609 1.561 . S
C612 C609 1.526 . S
C612 C613 1.396 . S
C612 C617 1.390 . S
C613 C607 1.465 . S
C613 C612 1.396 . S
C613 C614 1.399 . S
C614 H600 0.929 . S
C614 C613 1.399 . S
C614 C615 1.385 . S
C615 H601 0.931 . S
C615 C614 1.385 . S
C615 C616 1.389 . S
C616 C615 1.389 . S
C616 C617 1.387 . S
C617 H602 0.930 . S
C617 C612 1.390 . S
C617 C616 1.387 . S
H618 C630 0.930 . S
H619 C632 0.930 . S
H620 C633 0.930 . S
H621 C637 0.959 . S
H622 C637 0.959 . S
H623 C637 0.961 . S
H624 C638 0.960 . S
H625 C638 0.961 . S
H626 C638 0.959 . S
H627 C641 0.929 . S
H628 C642 0.931 . S
H629 C644 0.930 . S
C630 H618 0.930 . S
C630 C631 1.399 . S
C630 C635 1.399 . S
C631 C630 1.399 . S
C631 C632 1.376 . S
C632 H619 0.930 . S
C632 C631 1.376 . S
C632 C633 1.388 . S
C633 H620 0.930 . S
C633 C632 1.388 . S
C633 C634 1.390 . S
C634 C633 1.390 . S
C634 C635 1.394 . S
C634 C640 1.465 . S
C635 C630 1.399 . S
C635 C634 1.394 . S
C635 C636 1.516 . S
C636 C635 1.516 . S
C636 C637 1.502 . S
C636 C638 1.561 . S
C636 C639 1.526 . S
C637 H621 0.959 . S
C637 H622 0.959 . S
C637 H623 0.961 . S
C637 C636 1.502 . S
C638 H624 0.960 . S
C638 H625 0.961 . S
C638 H626 0.959 . S
C638 C636 1.561 . S
C639 C636 1.526 . S
C639 C640 1.396 . S
C639 C644 1.390 . S
C640 C634 1.465 . S
C640 C639 1.396 . S
C640 C641 1.399 . S
C641 H627 0.929 . S
C641 C640 1.399 . S
C641 C642 1.385 . S
C642 H628 0.931 . S
C642 C641 1.385 . S
C642 C643 1.389 . S
C643 C642 1.389 . S
C643 C644 1.387 . S
C644 H629 0.930 . S
C644 C639 1.390 . S
C644 C643 1.387 . S
H645 C657 0.930 . S
H646 C659 0.930 . S
H647 C660 0.930 . S
H648 C664 0.959 . S
H649 C664 0.959 . S
H650 C664 0.961 . S
H651 C665 0.960 . S
H652 C665 0.961 . S
H653 C665 0.959 . S
H654 C668 0.929 . S
H655 C669 0.931 . S
H656 C671 0.930 . S
C657 H645 0.930 . S
C657 C658 1.399 . S
C657 C662 1.399 . S
C658 C657 1.399 . S
C658 C659 1.376 . S
C659 H646 0.930 . S
C659 C658 1.376 . S
C659 C660 1.388 . S
C660 H647 0.930 . S
C660 C659 1.388 . S
C660 C661 1.390 . S
C661 C660 1.390 . S
C661 C662 1.394 . S
C661 C667 1.465 . S
C662 C657 1.399 . S
C662 C661 1.394 . S
C662 C663 1.516 . S
C663 C662 1.516 . S
C663 C664 1.502 . S
C663 C665 1.561 . S
C663 C666 1.526 . S
C664 H648 0.959 . S
C664 H649 0.959 . S
C664 H650 0.961 . S
C664 C663 1.502 . S
C665 H651 0.960 . S
C665 H652 0.961 . S
C665 H653 0.959 . S
C665 C663 1.561 . S
C666 C663 1.526 . S
C666 C667 1.396 . S
C666 C671 1.390 . S
C667 C661 1.465 . S
C667 C666 1.396 . S
C667 C668 1.399 . S
C668 H654 0.929 . S
C668 C667 1.399 . S
C668 C669 1.385 . S
C669 H655 0.931 . S
C669 C668 1.385 . S
C669 C670 1.389 . S
C670 C669 1.389 . S
C670 C671 1.387 . S
C671 H656 0.930 . S
C671 C666 1.390 . S
C671 C670 1.387 . S
H672 C684 0.930 . S
H673 C686 0.930 . S
H674 C687 0.930 . S
H675 C691 0.959 . S
H676 C691 0.959 . S
H677 C691 0.961 . S
H678 C692 0.960 . S
H679 C692 0.961 . S
H680 C692 0.959 . S
H681 C695 0.929 . S
H682 C696 0.931 . S
H683 C698 0.930 . S
C684 H672 0.930 . S
C684 C685 1.399 . S
C684 C689 1.399 . S
C685 C684 1.399 . S
C685 C686 1.376 . S
C686 H673 0.930 . S
C686 C685 1.376 . S
C686 C687 1.388 . S
C687 H674 0.930 . S
C687 C686 1.388 . S
C687 C688 1.390 . S
C688 C687 1.390 . S
C688 C689 1.394 . S
C688 C694 1.465 . S
C689 C684 1.399 . S
C689 C688 1.394 . S
C689 C690 1.516 . S
C690 C689 1.516 . S
C690 C691 1.502 . S
C690 C692 1.561 . S
C690 C693 1.526 . S
C691 H675 0.959 . S
C691 H676 0.959 . S
C691 H677 0.961 . S
C691 C690 1.502 . S
C692 H678 0.960 . S
C692 H679 0.961 . S
C692 H680 0.959 . S
C692 C690 1.561 . S
C693 C690 1.526 . S
C693 C694 1.396 . S
C693 C698 1.390 . S
C694 C688 1.465 . S
C694 C693 1.396 . S
C694 C695 1.399 . S
C695 H681 0.929 . S
C695 C694 1.399 . S
C695 C696 1.385 . S
C696 H682 0.931 . S
C696 C695 1.385 . S
C696 C697 1.389 . S
C697 C696 1.389 . S
C697 C698 1.387 . S
C698 H683 0.930 . S
C698 C693 1.390 . S
C698 C697 1.387 . S
H699 C711 0.930 . S
H700 C713 0.930 . S
H701 C714 0.930 . S
H702 C718 0.959 . S
H703 C718 0.959 . S
H704 C718 0.961 . S
H705 C719 0.960 . S
H706 C719 0.961 . S
H707 C719 0.959 . S
H708 C722 0.929 . S
H709 C723 0.931 . S
H710 C725 0.930 . S
C711 H699 0.930 . S
C711 C712 1.399 . S
C711 C716 1.399 . S
C712 C711 1.399 . S
C712 C713 1.376 . S
C713 H700 0.930 . S
C713 C712 1.376 . S
C713 C714 1.388 . S
C714 H701 0.930 . S
C714 C713 1.388 . S
C714 C715 1.390 . S
C715 C714 1.390 . S
C715 C716 1.394 . S
C715 C721 1.465 . S
C716 C711 1.399 . S
C716 C715 1.394 . S
C716 C717 1.516 . S
C717 C716 1.516 . S
C717 C718 1.502 . S
C717 C719 1.561 . S
C717 C720 1.526 . S
C718 H702 0.959 . S
C718 H703 0.959 . S
C718 H704 0.961 . S
C718 C717 1.502 . S
C719 H705 0.960 . S
C719 H706 0.961 . S
C719 H707 0.959 . S
C719 C717 1.561 . S
C720 C717 1.526 . S
C720 C721 1.396 . S
C720 C725 1.390 . S
C721 C715 1.465 . S
C721 C720 1.396 . S
C721 C722 1.399 1_554 S
C722 H708 0.929 . S
C722 C721 1.399 1_556 S
C722 C723 1.385 . S
C723 H709 0.931 . S
C723 C722 1.385 . S
C723 C724 1.389 . S
C724 C723 1.389 . S
C724 C725 1.387 1_556 S
C725 H710 0.930 . S
C725 C720 1.390 . S
C725 C724 1.387 1_554 S
C253 C217 1.314 . S
C265 C17 1.348 . S
C280 C31 1.702 . S
C292 C71 1.661 . S
C307 C57 1.415 . S
C319 C97 1.371 . S
C334 C111 1.699 . S
C346 C151 1.688 . S
C361 C177 1.321 . S
C373 C137 1.380 . S
C388 C231 1.658 . S
C400 C191 1.649 . S
C415 C29 1.190 . S
C427 C8 1.145 . S
C442 C48 1.125 . S
C454 C69 1.201 . S
C469 C109 1.195 . S
C481 C88 1.125 . S
C496 C128 1.158 . S
C508 C149 1.156 . S
C523 C168 1.195 . S
C535 C189 1.138 . S
C550 C208 1.124 . S
C562 C229 1.194 . S
C577 C2 1.852 . S
C589 C172 1.858 . S
C604 C52 1.859 . S
C616 C202 1.851 . S
C631 C12 1.857 . S
C643 C82 1.850 . S
C658 C42 1.853 . S
C670 C132 1.850 . S
C685 C162 1.851 . S
C697 C92 1.854 . S
C712 C122 1.858 . S
C724 C212 1.849 . S
