# Generated by pormake.
# Topology fnw, (5)-cn, num edge types: 1
# Building blocks:
#     Node 0, Type 0, BuildingBlock: XOMCOT_clean_sbu_1, # of connection points: 5
#     Node 1, Type 0, BuildingBlock: XOMCOT_clean_sbu_1, # of connection points: 5
#     Node 2, Type 0, BuildingBlock: XOMCOT_clean_sbu_1, # of connection points: 5
#     Node 3, Type 0, BuildingBlock: XOMCOT_clean_sbu_1, # of connection points: 5
#     Node 4, Type 0, BuildingBlock: XOMCOT_clean_sbu_1, # of connection points: 5
#     Node 5, Type 0, BuildingBlock: XOMCOT_clean_sbu_1, # of connection points: 5
#     Node 6, Type 0, BuildingBlock: XOMCOT_clean_sbu_1, # of connection points: 5
#     Node 7, Type 0, BuildingBlock: XOMCOT_clean_sbu_1, # of connection points: 5
#     Node 8, Type 0, BuildingBlock: XOMCOT_clean_sbu_1, # of connection points: 5
#     Node 9, Type 0, BuildingBlock: XOMCOT_clean_sbu_1, # of connection points: 5
#     Node 10, Type 0, BuildingBlock: XOMCOT_clean_sbu_1, # of connection points: 5
#     Node 11, Type 0, BuildingBlock: XOMCOT_clean_sbu_1, # of connection points: 5
#     Edge 12, Type (0, 0), BuildingBlock: OJICUG_clean_linker_0, # of connection points: 2
#     Edge 13, Type (0, 0), BuildingBlock: OJICUG_clean_linker_0, # of connection points: 2
#     Edge 14, Type (0, 0), BuildingBlock: OJICUG_clean_linker_0, # of connection points: 2
#     Edge 15, Type (0, 0), BuildingBlock: OJICUG_clean_linker_0, # of connection points: 2
#     Edge 16, Type (0, 0), BuildingBlock: OJICUG_clean_linker_0, # of connection points: 2
#     Edge 17, Type (0, 0), BuildingBlock: OJICUG_clean_linker_0, # of connection points: 2
#     Edge 18, Type (0, 0), BuildingBlock: OJICUG_clean_linker_0, # of connection points: 2
#     Edge 19, Type (0, 0), BuildingBlock: OJICUG_clean_linker_0, # of connection points: 2
#     Edge 20, Type (0, 0), BuildingBlock: OJICUG_clean_linker_0, # of connection points: 2
#     Edge 21, Type (0, 0), BuildingBlock: OJICUG_clean_linker_0, # of connection points: 2
#     Edge 22, Type (0, 0), BuildingBlock: OJICUG_clean_linker_0, # of connection points: 2
#     Edge 23, Type (0, 0), BuildingBlock: OJICUG_clean_linker_0, # of connection points: 2
#     Edge 24, Type (0, 0), BuildingBlock: OJICUG_clean_linker_0, # of connection points: 2
#     Edge 25, Type (0, 0), BuildingBlock: OJICUG_clean_linker_0, # of connection points: 2
#     Edge 26, Type (0, 0), BuildingBlock: OJICUG_clean_linker_0, # of connection points: 2
#     Edge 27, Type (0, 0), BuildingBlock: OJICUG_clean_linker_0, # of connection points: 2
#     Edge 28, Type (0, 0), BuildingBlock: OJICUG_clean_linker_0, # of connection points: 2
#     Edge 29, Type (0, 0), BuildingBlock: OJICUG_clean_linker_0, # of connection points: 2
#     Edge 30, Type (0, 0), BuildingBlock: OJICUG_clean_linker_0, # of connection points: 2
#     Edge 31, Type (0, 0), BuildingBlock: OJICUG_clean_linker_0, # of connection points: 2
#     Edge 32, Type (0, 0), BuildingBlock: OJICUG_clean_linker_0, # of connection points: 2
#     Edge 33, Type (0, 0), BuildingBlock: OJICUG_clean_linker_0, # of connection points: 2
#     Edge 34, Type (0, 0), BuildingBlock: OJICUG_clean_linker_0, # of connection points: 2
#     Edge 35, Type (0, 0), BuildingBlock: OJICUG_clean_linker_0, # of connection points: 2
#     Edge 36, Type (0, 0), BuildingBlock: OJICUG_clean_linker_0, # of connection points: 2
#     Edge 37, Type (0, 0), BuildingBlock: OJICUG_clean_linker_0, # of connection points: 2
#     Edge 38, Type (0, 0), BuildingBlock: OJICUG_clean_linker_0, # of connection points: 2
#     Edge 39, Type (0, 0), BuildingBlock: OJICUG_clean_linker_0, # of connection points: 2
#     Edge 40, Type (0, 0), BuildingBlock: OJICUG_clean_linker_0, # of connection points: 2
#     Edge 41, Type (0, 0), BuildingBlock: OJICUG_clean_linker_0, # of connection points: 2
# Relax obj value: 0.362
# Max RMSD: 0.157
# Mean RMSD: 0.157
data_MOF--net-fnw--node1-XOMCOT_clean_sbu_1--edge1-OJICUG_clean_linker_0
_symmetry_space_group_name_H-M    P1
_symmetry_Int_Tables_number       1
_symmetry_cell_setting            triclinic
loop_
_symmetry_equiv_pos_as_xyz
'x, y, z'
_cell_length_a     41.201857
_cell_length_b     41.605739
_cell_length_c     19.652086
_cell_angle_alpha  89.957304
_cell_angle_beta   89.805656
_cell_angle_gamma 119.66908
loop_
_atom_site_label
_atom_site_type_symbol
_atom_site_fract_x
_atom_site_fract_y
_atom_site_fract_z
_atom_type_partial_charge
C0 C 0.17961 0.44805 0.20171 0.0
C1 C 0.15525 0.46101 0.21434 0.0
N2 N 0.16088 0.47437 0.2784 0.0
N3 N 0.20021 0.45284 0.25771 0.0
C4 C 0.1881 0.46875 0.30349 0.0
H5 H 0.18377 0.43818 0.15347 0.0
Co6 Co 0.24134 0.44624 0.26692 0.0
C7 C 0.24213 0.42963 0.41782 0.0
O8 O 0.27731 0.43802 0.41568 0.0
N9 N 0.28316 0.43975 0.2765 0.0
C10 C 0.34093 0.44865 0.27222 0.0
C11 C 0.3194 0.46517 0.26583 0.0
C12 C 0.28343 0.40787 0.28838 0.0
N13 N 0.31826 0.41257 0.2862 0.0
O14 O 0.21152 0.39622 0.23117 0.0
H15 H 0.32971 0.4937 0.25162 0.0
H16 H 0.25845 0.38162 0.29762 0.0
O17 O 0.22596 0.43128 0.36324 0.0
C18 C 0.22335 0.39429 0.17152 0.0
O19 O 0.25579 0.42169 0.15157 0.0
N20 N 0.27033 0.49637 0.28795 0.0
C21 C 0.3172 0.57266 0.27908 0.0
C22 C 0.31104 0.55428 0.34203 0.0
C23 C 0.28694 0.51579 0.34565 0.0
C24 C 0.27574 0.51407 0.22718 0.0
C25 C 0.29865 0.55199 0.22166 0.0
H26 H 0.2827 0.50194 0.39388 0.0
H27 H 0.26289 0.49814 0.18183 0.0
H28 H 0.20131 0.47888 0.3523 0.0
H29 H 0.13636 0.46229 0.17775 0.0
H30 H 0.37078 0.46183 0.26371 0.0
H31 H 0.32506 0.5694 0.38751 0.0
H32 H 0.30321 0.56471 0.17183 0.0
C33 C 0.76879 0.28507 0.70995 0.0
C34 C 0.73111 0.27269 0.70573 0.0
N35 N 0.71346 0.24583 0.75263 0.0
N36 N 0.77473 0.26614 0.75936 0.0
C37 C 0.7405 0.24232 0.78425 0.0
H38 H 0.79047 0.30615 0.67848 0.0
Co39 Co 0.82051 0.27088 0.7808 0.0
C40 C 0.81472 0.24714 0.927 0.0
O41 O 0.85089 0.26874 0.93395 0.0
N42 N 0.86751 0.27507 0.80033 0.0
C43 C 0.91238 0.26006 0.81012 0.0
C44 C 0.87445 0.24657 0.80461 0.0
C45 C 0.90171 0.30544 0.8046 0.0
N46 N 0.92942 0.29722 0.80922 0.0
O47 O 0.80633 0.22665 0.72868 0.0
H48 H 0.85335 0.21768 0.80191 0.0
H49 H 0.90686 0.3334 0.80442 0.0
O50 O 0.79956 0.24417 0.86854 0.0
C51 C 0.81965 0.23765 0.66871 0.0
O52 O 0.84424 0.27286 0.66045 0.0
N53 N 0.83363 0.31661 0.82054 0.0
C54 C 0.83161 0.38268 0.82578 0.0
C55 C 0.81248 0.35477 0.87465 0.0
C56 C 0.8139 0.32183 0.87124 0.0
C57 C 0.854 0.34439 0.77554 0.0
C58 C 0.85494 0.37815 0.77942 0.0
H59 H 0.7952 0.29923 0.90359 0.0
H60 H 0.86683 0.33913 0.73204 0.0
H61 H 0.73524 0.22188 0.82313 0.0
H62 H 0.71776 0.28272 0.671 0.0
H63 H 0.92631 0.24383 0.81183 0.0
H64 H 0.79352 0.35655 0.9107 0.0
H65 H 0.87092 0.39905 0.74156 0.0
C66 C 0.46873 0.75969 0.12274 0.0
C67 C 0.43485 0.72774 0.13029 0.0
N68 N 0.43327 0.71433 0.19341 0.0
N69 N 0.48827 0.76638 0.1809 0.0
C70 C 0.46597 0.73813 0.22271 0.0
H71 H 0.47802 0.77758 0.07854 0.0
Co72 Co 0.53296 0.80909 0.20096 0.0
C73 C 0.55609 0.77411 0.31697 0.0
O74 O 0.58427 0.77338 0.28712 0.0
N75 N 0.57778 0.85167 0.22126 0.0
C76 C 0.6383 0.88994 0.23674 0.0
C77 C 0.61157 0.85403 0.2248 0.0
C78 C 0.58472 0.88661 0.23107 0.0
N79 N 0.62145 0.91057 0.24083 0.0
O80 O 0.55907 0.7913 0.14499 0.0
H81 H 0.61691 0.83143 0.21653 0.0
H82 H 0.56322 0.89429 0.23026 0.0
O83 O 0.53759 0.78649 0.28512 0.0
C84 C 0.56458 0.80753 0.08718 0.0
O85 O 0.55616 0.83403 0.08123 0.0
N86 N 0.5053 0.82695 0.24631 0.0
C87 C 0.43422 0.81391 0.27455 0.0
C88 C 0.45615 0.81159 0.32675 0.0
C89 C 0.49235 0.81881 0.31158 0.0
C90 C 0.4873 0.83646 0.19935 0.0
C91 C 0.4512 0.82961 0.21214 0.0
H92 H 0.50797 0.81397 0.35011 0.0
H93 H 0.49834 0.84339 0.14812 0.0
H94 H 0.47275 0.73563 0.27463 0.0
H95 H 0.41311 0.71541 0.09236 0.0
H96 H 0.66801 0.90005 0.23948 0.0
H97 H 0.44419 0.80043 0.37623 0.0
H98 H 0.43532 0.83257 0.17119 0.0
C99 C 0.73807 0.49871 0.72129 0.0
C100 C 0.75424 0.47697 0.71468 0.0
N101 N 0.77429 0.48073 0.7712 0.0
N102 N 0.74779 0.51619 0.78159 0.0
C103 C 0.76998 0.50482 0.81104 0.0
H104 H 0.71942 0.50086 0.68532 0.0
Co105 Co 0.72918 0.54611 0.81068 0.0
C106 C 0.74327 0.55306 0.96043 0.0
O107 O 0.70761 0.54122 0.9692 0.0
N108 N 0.70956 0.57729 0.83842 0.0
C109 C 0.67117 0.59715 0.87484 0.0
C110 C 0.67823 0.5683 0.87504 0.0
C111 C 0.72068 0.61216 0.81664 0.0
N112 N 0.69759 0.62452 0.83714 0.0
O113 O 0.77121 0.58674 0.7652 0.0
H114 H 0.65959 0.5415 0.89683 0.0
H115 H 0.74366 0.6277 0.78215 0.0
O116 O 0.75627 0.55569 0.89976 0.0
C117 C 0.76054 0.58793 0.70438 0.0
O118 O 0.72454 0.56913 0.69161 0.0
N119 N 0.68671 0.50358 0.84195 0.0
C120 C 0.63031 0.43049 0.82666 0.0
C121 C 0.65872 0.43968 0.87467 0.0
C122 C 0.68707 0.47657 0.88114 0.0
C123 C 0.65775 0.49524 0.79892 0.0
C124 C 0.62896 0.45904 0.7914 0.0
H125 H 0.71119 0.48252 0.91154 0.0
H126 H 0.65885 0.51631 0.76517 0.0
H127 H 0.78209 0.5134 0.86105 0.0
H128 H 0.75019 0.4586 0.6726 0.0
H129 H 0.64615 0.59639 0.89417 0.0
H130 H 0.66103 0.41828 0.90197 0.0
H131 H 0.60743 0.45309 0.75407 0.0
C132 C 0.21805 0.67743 0.30154 0.0
C133 C 0.25455 0.68925 0.28299 0.0
N134 N 0.27531 0.72512 0.30035 0.0
N135 N 0.21609 0.70566 0.33129 0.0
C136 C 0.25125 0.7345 0.32796 0.0
H137 H 0.19444 0.65021 0.29286 0.0
Co138 Co 0.17404 0.70803 0.35986 0.0
C139 C 0.22501 0.73742 0.48485 0.0
O140 O 0.24733 0.72477 0.46687 0.0
N141 N 0.13235 0.71118 0.3873 0.0
C142 C 0.08437 0.70549 0.44819 0.0
C143 C 0.11967 0.70989 0.45115 0.0
C144 C 0.10486 0.70857 0.34676 0.0
N145 N 0.07472 0.70396 0.38224 0.0
O146 O 0.19279 0.7535 0.3101 0.0
H147 H 0.13362 0.70884 0.4969 0.0
H148 H 0.10568 0.7068 0.29213 0.0
O149 O 0.19821 0.73298 0.44601 0.0
C150 C 0.1822 0.74248 0.2491 0.0
O151 O 0.16026 0.70684 0.23905 0.0
N152 N 0.15313 0.66029 0.39822 0.0
C153 C 0.13422 0.58629 0.38949 0.0
C154 C 0.1615 0.61002 0.4358 0.0
C155 C 0.17025 0.64706 0.44008 0.0
C156 C 0.12297 0.63628 0.36085 0.0
C157 C 0.11248 0.59901 0.35705 0.0
H158 H 0.1935 0.66525 0.4709 0.0
H159 H 0.10973 0.6466 0.32677 0.0
H160 H 0.25904 0.76208 0.34527 0.0
H161 H 0.26503 0.67273 0.2591 0.0
H162 H 0.06589 0.69976 0.49134 0.0
H163 H 0.1788 0.60143 0.46281 0.0
H164 H 0.09022 0.5814 0.32271 0.0
C165 C 0.51421 0.22873 0.67908 0.0
C166 C 0.54239 0.26501 0.68134 0.0
N167 N 0.5379 0.2805 0.73825 0.0
N168 N 0.49209 0.22152 0.73412 0.0
C169 C 0.50715 0.25359 0.76912 0.0
H170 H 0.51031 0.20866 0.64039 0.0
Co171 Co 0.45145 0.17587 0.75486 0.0
C172 C 0.43283 0.18045 0.89871 0.0
O173 O 0.42811 0.14704 0.90676 0.0
N174 N 0.40952 0.12983 0.77443 0.0
C175 C 0.34996 0.08954 0.79665 0.0
C176 C 0.37537 0.126 0.78533 0.0
C177 C 0.40404 0.09507 0.77936 0.0
N178 N 0.36803 0.07011 0.7928 0.0
O179 O 0.42086 0.18849 0.69961 0.0
H180 H 0.36936 0.14852 0.78587 0.0
H181 H 0.42563 0.08782 0.77294 0.0
O182 O 0.44167 0.19582 0.83966 0.0
C183 C 0.41672 0.17312 0.64141 0.0
O184 O 0.42904 0.14962 0.63365 0.0
N185 N 0.48439 0.16389 0.79879 0.0
C186 C 0.55587 0.1727 0.80335 0.0
C187 C 0.54425 0.18913 0.85284 0.0
C188 C 0.50841 0.18474 0.84929 0.0
C189 C 0.49411 0.14467 0.75496 0.0
C190 C 0.5295 0.14819 0.75702 0.0
H191 H 0.50274 0.20262 0.88067 0.0
H192 H 0.47646 0.13079 0.71187 0.0
H193 H 0.49593 0.25732 0.81636 0.0
H194 H 0.56481 0.2787 0.64465 0.0
H195 H 0.32061 0.07831 0.80822 0.0
H196 H 0.56402 0.20889 0.88855 0.0
H197 H 0.53743 0.13507 0.71784 0.0
C198 C 0.46334 0.67939 0.79056 0.0
C199 C 0.44202 0.69495 0.81029 0.0
N200 N 0.46014 0.73075 0.79131 0.0
N201 N 0.49435 0.70522 0.75829 0.0
C202 C 0.49199 0.73642 0.76159 0.0
H203 H 0.45697 0.65128 0.80034 0.0
Co204 Co 0.5361 0.70224 0.72949 0.0
C205 C 0.51953 0.73568 0.60299 0.0
O206 O 0.48646 0.72899 0.62382 0.0
N207 N 0.57858 0.70029 0.70249 0.0
C208 C 0.62293 0.69692 0.6437 0.0
C209 C 0.59078 0.69915 0.63923 0.0
C210 C 0.60351 0.69852 0.74419 0.0
N211 N 0.63088 0.69643 0.71009 0.0
O212 O 0.56678 0.74724 0.77882 0.0
H213 H 0.57653 0.6985 0.59276 0.0
H214 H 0.60026 0.69632 0.79873 0.0
O215 O 0.53963 0.72761 0.6413 0.0
C216 C 0.56473 0.73531 0.83985 0.0
O217 O 0.54686 0.69931 0.84973 0.0
N218 N 0.50515 0.65504 0.69218 0.0
C219 C 0.44508 0.58346 0.70393 0.0
C220 C 0.44327 0.609 0.6595 0.0
C221 C 0.47396 0.6448 0.65378 0.0
C222 C 0.50905 0.62896 0.72758 0.0
C223 C 0.47963 0.59283 0.73301 0.0
H224 H 0.47033 0.6649 0.6258 0.0
H225 H 0.53324 0.63701 0.75918 0.0
H226 H 0.51348 0.76302 0.74274 0.0
H227 H 0.41521 0.68101 0.83594 0.0
H228 H 0.63828 0.69442 0.6012 0.0
H229 H 0.41724 0.60296 0.63551 0.0
H230 H 0.48271 0.57367 0.76608 0.0
C231 C 0.74833 0.51418 0.4408 0.0
C232 C 0.71013 0.49427 0.4341 0.0
N233 N 0.70172 0.49043 0.36716 0.0
N234 N 0.76397 0.52304 0.3785 0.0
C235 C 0.73498 0.50846 0.33478 0.0
H236 H 0.76378 0.52006 0.48785 0.0
Co237 Co 0.81435 0.54344 0.35944 0.0
C238 C 0.82232 0.56198 0.20983 0.0
O239 O 0.85105 0.55659 0.20549 0.0
N240 N 0.86589 0.56394 0.34025 0.0
C241 C 0.92154 0.57075 0.3142 0.0
C242 C 0.88469 0.54579 0.32511 0.0
C243 C 0.89244 0.60013 0.33871 0.0
N244 N 0.92636 0.60483 0.3229 0.0
O245 O 0.8225 0.58845 0.40328 0.0
H246 H 0.87293 0.51623 0.32146 0.0
H247 H 0.88727 0.62269 0.34953 0.0
O248 O 0.80628 0.55865 0.26773 0.0
C249 C 0.83594 0.59022 0.46291 0.0
O250 O 0.85102 0.56944 0.47552 0.0
N251 N 0.80459 0.49731 0.33004 0.0
C252 C 0.77864 0.4218 0.33015 0.0
C253 C 0.77511 0.43926 0.27162 0.0
C254 C 0.78803 0.4774 0.27278 0.0
C255 C 0.8091 0.48075 0.38612 0.0
C256 C 0.79694 0.44325 0.38694 0.0
H257 H 0.78233 0.48995 0.22985 0.0
H258 H 0.82117 0.49687 0.43159 0.0
H259 H 0.73832 0.50965 0.28015 0.0
H260 H 0.69038 0.48176 0.47548 0.0
H261 H 0.9435 0.56431 0.30356 0.0
H262 H 0.76051 0.4233 0.22723 0.0
H263 H 0.80055 0.43089 0.43278 0.0
C264 C 0.31711 0.77014 0.94513 0.0
C265 C 0.31572 0.73665 0.93688 0.0
N266 N 0.29347 0.71917 0.88347 0.0
N267 N 0.29602 0.77391 0.89702 0.0
C268 C 0.28156 0.7422 0.86096 0.0
H269 H 0.33306 0.79078 0.98303 0.0
Co270 Co 0.29222 0.81625 0.88363 0.0
C271 C 0.24958 0.80478 0.75088 0.0
O272 O 0.25682 0.83921 0.74849 0.0
N273 N 0.28835 0.85899 0.87254 0.0
C274 C 0.26375 0.896 0.87099 0.0
C275 C 0.25691 0.86088 0.8839 0.0
C276 C 0.31414 0.89372 0.85382 0.0
N277 N 0.29967 0.91658 0.85177 0.0
O278 O 0.25068 0.79653 0.9456 0.0
H279 H 0.23013 0.83791 0.89861 0.0
H280 H 0.3427 0.90202 0.84045 0.0
O281 O 0.26039 0.79321 0.80197 0.0
C282 C 0.26287 0.81067 1.00425 0.0
O283 O 0.29837 0.83562 1.00984 0.0
N284 N 0.33598 0.83566 0.83135 0.0
C285 C 0.39568 0.82452 0.80558 0.0
C286 C 0.36872 0.81665 0.75533 0.0
C287 C 0.33884 0.82259 0.76921 0.0
C288 C 0.36557 0.85007 0.87473 0.0
C289 C 0.39567 0.8442 0.86335 0.0
H290 H 0.31634 0.81228 0.7334 0.0
H291 H 0.36281 0.86012 0.92394 0.0
H292 H 0.26299 0.73616 0.81854 0.0
H293 H 0.32986 0.72602 0.96819 0.0
H294 H 0.24379 0.90565 0.87545 0.0
H295 H 0.3681 0.80184 0.70958 0.0
H296 H 0.41632 0.85109 0.9029 0.0
C297 C 0.51148 0.28352 0.36441 0.0
C298 C 0.5333 0.26704 0.36879 0.0
N299 N 0.5211 0.23956 0.32255 0.0
N300 N 0.48579 0.26663 0.31541 0.0
C301 C 0.49212 0.23979 0.29125 0.0
H302 H 0.51422 0.30647 0.39456 0.0
Co303 Co 0.44889 0.27766 0.29025 0.0
C304 C 0.44475 0.26531 0.14139 0.0
O305 O 0.44936 0.29873 0.13414 0.0
N306 N 0.40942 0.28689 0.26656 0.0
C307 C 0.35702 0.28109 0.22178 0.0
C308 C 0.38143 0.2676 0.22192 0.0
C309 C 0.39912 0.30969 0.29686 0.0
N310 N 0.36849 0.30793 0.26874 0.0
O311 O 0.41346 0.23359 0.33688 0.0
H312 H 0.37799 0.24433 0.19215 0.0
H313 H 0.41229 0.32588 0.34158 0.0
O314 O 0.44305 0.25232 0.20151 0.0
C315 C 0.41174 0.24446 0.39711 0.0
O316 O 0.42796 0.28025 0.40799 0.0
N317 N 0.48694 0.32382 0.25418 0.0
C318 C 0.5564 0.3887 0.26011 0.0
C319 C 0.5521 0.358 0.22291 0.0
C320 C 0.51694 0.32598 0.21969 0.0
C321 C 0.49033 0.35483 0.28439 0.0
C322 C 0.52416 0.38777 0.28527 0.0
H323 H 0.51528 0.30149 0.19729 0.0
H324 H 0.46882 0.35371 0.31612 0.0
H325 H 0.47546 0.22038 0.25215 0.0
H326 H 0.55672 0.2751 0.40269 0.0
H327 H 0.33297 0.27202 0.18912 0.0
H328 H 0.57605 0.35715 0.2023 0.0
H329 H 0.52561 0.41108 0.31245 0.0
C330 C 0.26077 0.44894 0.8995 0.0
C331 C 0.29823 0.46302 0.8863 0.0
N332 N 0.30531 0.47584 0.82168 0.0
N333 N 0.24418 0.45239 0.84331 0.0
C334 C 0.27191 0.46875 0.79688 0.0
H335 H 0.24706 0.43899 0.94807 0.0
Co336 Co 0.19553 0.44343 0.83444 0.0
C337 C 0.17788 0.42497 0.68432 0.0
O338 O 0.14948 0.43099 0.68661 0.0
N339 N 0.14624 0.43455 0.82537 0.0
C340 C 0.09609 0.44148 0.82682 0.0
C341 C 0.13422 0.45926 0.83294 0.0
C342 C 0.11465 0.40176 0.81599 0.0
N343 N 0.08385 0.40533 0.81639 0.0
O344 O 0.17758 0.39408 0.87236 0.0
H345 H 0.15171 0.4883 0.84402 0.0
H346 H 0.11426 0.37578 0.8089 0.0
O347 O 0.19637 0.42806 0.73873 0.0
C348 C 0.16401 0.39218 0.93219 0.0
O349 O 0.1578 0.41896 0.95114 0.0
N350 N 0.21464 0.49305 0.81079 0.0
C351 C 0.24646 0.56963 0.81264 0.0
C352 C 0.23348 0.55008 0.75129 0.0
C353 C 0.21792 0.51141 0.75121 0.0
C354 C 0.22672 0.51187 0.87042 0.0
C355 C 0.243 0.55003 0.87244 0.0
H356 H 0.20853 0.49671 0.70386 0.0
H357 H 0.22342 0.49678 0.91717 0.0
H358 H 0.26805 0.47785 0.74751 0.0
H359 H 0.3188 0.46511 0.92275 0.0
H360 H 0.07858 0.45397 0.83197 0.0
H361 H 0.23559 0.56453 0.7042 0.0
H362 H 0.25202 0.56405 0.92092 0.0
C363 C 0.67477 0.20656 0.38425 0.0
C364 C 0.68201 0.24214 0.39395 0.0
N365 N 0.7133 0.26489 0.35921 0.0
N366 N 0.70063 0.20668 0.34169 0.0
C367 C 0.72476 0.24283 0.33033 0.0
H368 H 0.65232 0.18234 0.40805 0.0
Co369 Co 0.70338 0.16556 0.31206 0.0
C370 C 0.7335 0.21469 0.18279 0.0
O371 O 0.7128 0.23038 0.19068 0.0
N372 N 0.70683 0.1249 0.28458 0.0
C373 C 0.73142 0.09068 0.25049 0.0
C374 C 0.7384 0.12607 0.26217 0.0
C375 C 0.68103 0.08867 0.28609 0.0
N376 N 0.69531 0.06734 0.26547 0.0
O377 O 0.74816 0.18269 0.36562 0.0
H378 H 0.76501 0.15109 0.25584 0.0
H379 H 0.65264 0.0779 0.30374 0.0
O380 O 0.73206 0.19125 0.22708 0.0
C381 C 0.7385 0.16714 0.4242 0.0
O382 O 0.7036 0.14102 0.4327 0.0
N383 N 0.65618 0.14677 0.26947 0.0
C384 C 0.59283 0.15368 0.26693 0.0
C385 C 0.61629 0.16349 0.20946 0.0
C386 C 0.64747 0.15836 0.21089 0.0
C387 C 0.62919 0.12908 0.31764 0.0
C388 C 0.59697 0.1321 0.3173 0.0
H389 H 0.66564 0.16643 0.16728 0.0
H390 H 0.63555 0.11849 0.36293 0.0
H391 H 0.75057 0.25293 0.3021 0.0
H392 H 0.66524 0.25049 0.42356 0.0
H393 H 0.75125 0.0827 0.23232 0.0
H394 H 0.61293 0.17817 0.16702 0.0
H395 H 0.57837 0.12209 0.36088 0.0
C396 C 0.37748 0.36831 0.30664 0.0
C397 C 0.35397 0.3326 0.28111 0.0
H398 H 0.38424 0.42148 0.32934 0.0
C399 C 0.31718 0.32263 0.26302 0.0
H400 H 0.40606 0.37716 0.32055 0.0
C401 C 0.30482 0.34839 0.26736 0.0
C402 C 0.32906 0.38461 0.28971 0.0
H403 H 0.2982 0.29524 0.24402 0.0
H404 H 0.27688 0.34039 0.25037 0.0
C405 C 0.36515 0.39395 0.31093 0.0
C406 C 0.98205 0.35818 0.77689 0.0
C407 C 0.96891 0.32335 0.8077 0.0
H408 H 0.02896 0.41126 0.75506 0.0
C409 C 0.99484 0.31498 0.83748 0.0
H410 H 0.96319 0.36523 0.75136 0.0
C411 C 0.03291 0.34147 0.83858 0.0
C412 C 0.04553 0.37675 0.81025 0.0
H413 H 0.98561 0.28843 0.8616 0.0
H414 H 0.05224 0.33488 0.86369 0.0
C415 C 0.01981 0.38457 0.77853 0.0
C416 C 0.69483 0.00838 0.27797 0.0
C417 C 0.67618 0.02778 0.26155 0.0
H418 H 0.69185 0.95606 0.28693 0.0
C419 C 0.63884 0.00817 0.24055 0.0
H420 H 0.72346 0.02295 0.29548 0.0
C421 C 0.6207 0.96974 0.23426 0.0
C422 C 0.63946 0.95012 0.24981 0.0
H423 H 0.62403 0.02269 0.22718 0.0
H424 H 0.59231 0.95575 0.21581 0.0
C425 C 0.67661 0.96998 0.27278 0.0
C426 C 0.68974 0.65198 0.73266 0.0
C427 C 0.69215 0.65208 0.80388 0.0
H428 H 0.66792 0.66579 0.6464 0.0
C429 C 0.6812 0.67351 0.84199 0.0
H430 H 0.69787 0.63538 0.70232 0.0
C431 C 0.66454 0.69156 0.80998 0.0
C432 C 0.65739 0.68736 0.73953 0.0
H433 H 0.68318 0.67408 0.89696 0.0
H434 H 0.65501 0.70663 0.84132 0.0
C435 C 0.67233 0.66933 0.70069 0.0
C436 C 0.00826 0.6861 0.39818 0.0
C437 C 0.03702 0.68762 0.35696 0.0
H438 H 0.94938 0.65798 0.41893 0.0
C439 C 0.02729 0.66745 0.29571 0.0
H440 H 0.0147 0.70201 0.44463 0.0
C441 C 0.99011 0.64275 0.28101 0.0
C442 C 0.9619 0.63784 0.32669 0.0
H443 H 0.04815 0.66782 0.2618 0.0
H444 H 0.98354 0.62518 0.23667 0.0
C445 C 0.97087 0.66128 0.38316 0.0
C446 C 0.3562 0.97822 0.84502 0.0
C447 C 0.31802 0.95485 0.83215 0.0
H448 H 0.40213 0.03373 0.84323 0.0
C449 C 0.2974 0.96961 0.802 0.0
H450 H 0.37266 0.96754 0.86854 0.0
C451 C 0.31414 0.00721 0.78749 0.0
C452 C 0.3519 0.03094 0.8028 0.0
H453 H 0.26817 0.95208 0.78989 0.0
H454 H 0.29742 0.01776 0.76458 0.0
C455 C 0.37302 0.01603 0.8305 0.0
C456 C 0.1991 0.36611 0.99238 0.0
C457 C 0.1672 0.36991 0.98826 0.0
H458 H 0.24233 0.36995 0.05771 0.0
C459 C 0.14656 0.36541 0.04846 0.0
H460 H 0.21525 0.3686 0.94709 0.0
C461 C 0.16186 0.36567 0.11228 0.0
C462 C 0.19816 0.37098 0.11625 0.0
H463 H 0.12127 0.3673 1.04682 0.0
H464 H 0.14792 0.36779 0.15747 0.0
C465 C 0.21464 0.36689 0.05618 0.0
C466 C 0.7981 0.21336 0.48207 0.0
C467 C 0.76289 0.18143 0.48531 0.0
H468 H 0.84404 0.25547 0.53745 0.0
C469 C 0.74905 0.16508 0.54968 0.0
H470 H 0.80971 0.22661 0.43365 0.0
C471 C 0.76857 0.18174 0.60957 0.0
C472 C 0.80257 0.21508 0.60658 0.0
H473 H 0.72208 0.14025 0.5543 0.0
H474 H 0.75601 0.1696 0.65819 0.0
C475 C 0.81773 0.22988 0.54191 0.0
C476 C 0.57601 0.76113 1.02551 0.0
C477 C 0.57352 0.7935 1.02444 0.0
H478 H 0.57648 0.71805 0.96717 0.0
C479 C 0.57509 0.81022 0.96095 0.0
H480 H 0.57518 0.74771 0.07325 0.0
C481 C 0.57563 0.79313 0.89983 0.0
C482 C 0.57478 0.75908 0.90108 0.0
H483 H 0.5736 0.83545 0.95816 0.0
H484 H 0.57395 0.8052 0.85203 0.0
C485 C 0.57674 0.74419 0.9645 0.0
C486 C 0.84018 0.60516 0.58701 0.0
C487 C 0.82405 0.60371 0.52296 0.0
H488 H 0.83295 0.6017 0.69556 0.0
C489 C 0.79137 0.60625 0.52087 0.0
H490 H 0.86558 0.60357 0.59048 0.0
C491 C 0.77281 0.60539 0.58136 0.0
C492 C 0.78651 0.60199 0.64515 0.0
H493 H 0.77813 0.60516 0.47274 0.0
H494 H 0.74599 0.60415 0.57774 0.0
C495 C 0.82157 0.60423 0.64753 0.0
C496 C 0.20243 0.76881 0.06413 0.0
C497 C 0.23948 0.7977 0.06664 0.0
H498 H 0.15479 0.72952 0.12069 0.0
C499 C 0.25531 0.81243 0.13065 0.0
H500 H 0.18928 0.75712 1.01586 0.0
C501 C 0.23556 0.79666 0.19096 0.0
C502 C 0.19957 0.76589 0.18834 0.0
H503 H 0.28376 0.83502 0.13446 0.0
H504 H 0.24941 0.80691 0.23931 0.0
C505 C 0.18268 0.75313 0.12435 0.0
C506 C 0.40065 0.21695 0.58206 0.0
C507 C 0.40551 0.18593 0.57983 0.0
H508 H 0.39747 0.2591 0.52514 0.0
C509 C 0.40466 0.17001 0.51594 0.0
H510 H 0.40086 0.22972 0.63019 0.0
C511 C 0.40291 0.18693 0.45545 0.0
C512 C 0.4018 0.22004 0.45771 0.0
H513 H 0.40787 0.14575 0.51228 0.0
H514 H 0.40542 0.1757 0.40727 0.0
C515 C 0.39871 0.23374 0.52163 0.0
C516 C 0.77053 0.56445 0.14691 0.0
C517 C 0.8047 0.56474 0.14554 0.0
H518 H 0.7249 0.56098 0.09001 0.0
C519 C 0.82036 0.56444 0.08159 0.0
H520 H 0.75766 0.56481 0.19484 0.0
C521 C 0.80145 0.56217 1.02081 0.0
C522 C 0.7664 0.56005 1.02264 0.0
H523 H 0.84676 0.56475 0.0784 0.0
H524 H 0.81361 0.56069 0.97278 0.0
C525 C 0.75168 0.56211 0.08643 0.0
C526 C 0.25006 0.75782 0.67118 0.0
C527 C 0.23794 0.78317 0.68658 0.0
H528 H 0.25628 0.72436 0.59549 0.0
C529 C 0.21938 0.79173 0.6357 0.0
H530 H 0.265 0.75095 0.70812 0.0
C531 C 0.21417 0.77621 0.57051 0.0
C532 C 0.22825 0.75252 0.55441 0.0
H533 H 0.20978 0.81126 0.64574 0.0
H534 H 0.20033 0.78377 0.53212 0.0
C535 C 0.24562 0.74301 0.60585 0.0
C536 C 0.44153 0.23848 0.95543 0.0
C537 C 0.43381 0.2017 0.96029 0.0
H538 H 0.45103 0.28724 1.00843 0.0
C539 C 0.42903 0.18573 1.02551 0.0
H540 H 0.44549 0.25171 0.90625 0.0
C541 C 0.43248 0.20617 0.08434 0.0
C542 C 0.44056 0.24305 0.07948 0.0
H543 H 0.42316 0.15747 1.03142 0.0
H544 H 0.42898 0.19309 0.13357 0.0
C545 C 0.44478 0.25886 1.01425 0.0
C546 C 0.242 0.42348 0.54551 0.0
C547 C 0.22346 0.42393 0.48559 0.0
H548 H 0.24228 0.42309 0.6547 0.0
C549 C 0.18835 0.42158 0.49197 0.0
H550 H 0.26904 0.42513 0.54285 0.0
C551 C 0.17298 0.42037 0.55642 0.0
C552 C 0.19222 0.42144 0.61638 0.0
H553 H 0.17321 0.42186 0.44723 0.0
H554 H 0.14638 0.41969 0.5591 0.0
C555 C 0.2266 0.42223 0.60995 0.0
C556 C 0.75658 0.23148 0.994 0.0
C557 C 0.79152 0.23335 0.99001 0.0
H558 H 0.71154 0.22504 0.0581 0.0
C559 C 0.80629 0.22673 0.04966 0.0
H560 H 0.74449 0.23675 0.94949 0.0
C561 C 0.787 0.2193 0.11202 0.0
C562 C 0.75311 0.21957 0.11654 0.0
H563 H 0.83323 0.2281 0.04838 0.0
H564 H 0.79929 0.21483 0.15713 0.0
C565 C 0.7379 0.2252 0.05659 0.0
C566 C 0.56529 0.75478 0.50411 0.0
C567 C 0.53019 0.74664 0.53052 0.0
H568 H 0.601 0.76952 0.41596 0.0
C569 C 0.50384 0.74695 0.48564 0.0
H570 H 0.58637 0.75499 0.53709 0.0
C571 C 0.51209 0.75499 0.41666 0.0
C572 C 0.54711 0.76336 0.38998 0.0
H573 H 0.47634 0.74045 0.50345 0.0
H574 H 0.49065 0.75434 0.38434 0.0
C575 C 0.57362 0.76295 0.43455 0.0
C576 C 0.14915 0.50324 0.37898 0.0
C577 C 0.14774 0.49758 0.30813 0.0
H578 H 0.14505 0.53507 0.46102 0.0
C579 C 0.13706 0.51802 0.26618 0.0
H580 H 0.15662 0.48745 0.41291 0.0
C581 C 0.13048 0.54513 0.29357 0.0
C582 C 0.13408 0.55251 0.36392 0.0
H583 H 0.1361 0.51492 0.21148 0.0
H584 H 0.12503 0.56196 0.25848 0.0
C585 C 0.14245 0.53047 0.4066 0.0
C586 C 0.64871 0.21702 0.71171 0.0
C587 C 0.67391 0.22482 0.76526 0.0
H588 H 0.59182 0.1942 0.68188 0.0
C589 C 0.65994 0.21274 0.83137 0.0
H590 H 0.65868 0.22562 0.66023 0.0
C591 C 0.62141 0.19444 0.84398 0.0
C592 C 0.59627 0.1874 0.79044 0.0
H593 H 0.67884 0.21861 0.87363 0.0
H594 H 0.61132 0.18644 0.89562 0.0
C595 C 0.61037 0.19846 0.72408 0.0
C596 C 0.36612 0.66866 0.20329 0.0
C597 C 0.40316 0.68138 0.22339 0.0
H598 H 0.3094 0.62477 0.20779 0.0
C599 C 0.41052 0.66052 0.27099 0.0
H600 H 0.35945 0.68462 0.16825 0.0
C601 C 0.38184 0.62625 0.29386 0.0
C602 C 0.34528 0.61231 0.26969 0.0
H603 H 0.43879 0.66966 0.28754 0.0
H604 H 0.38877 0.6096 0.32667 0.0
C605 C 0.33747 0.63458 0.22643 0.0
C606 C 0.81135 0.42769 0.86779 0.0
C607 C 0.82181 0.41228 0.81407 0.0
H608 H 0.78782 0.46163 0.8964 0.0
C609 C 0.81921 0.42263 0.74691 0.0
H610 H 0.81319 0.42063 0.92013 0.0
C611 C 0.80553 0.44653 0.73361 0.0
C612 C 0.79321 0.46034 0.78674 0.0
H613 H 0.82597 0.41092 0.70365 0.0
H614 H 0.80356 0.4533 0.68117 0.0
C615 C 0.79716 0.4515 0.85424 0.0
C616 C 0.3356 0.77553 0.34207 0.0
C617 C 0.31499 0.74855 0.29281 0.0
H618 H 0.38986 0.81749 0.37528 0.0
C619 C 0.33372 0.74439 0.23679 0.0
H620 H 0.32181 0.77895 0.3862 0.0
C621 C 0.37231 0.76669 0.23014 0.0
C622 C 0.39303 0.7933 0.27983 0.0
H623 H 0.31849 0.72393 0.19809 0.0
H624 H 0.38613 0.76236 0.18699 0.0
C625 C 0.37441 0.79747 0.33603 0.0
C626 C 0.60165 0.38299 0.73548 0.0
C627 C 0.60584 0.39164 0.80523 0.0
H628 H 0.57668 0.34098 0.65971 0.0
C629 C 0.58766 0.363 0.85294 0.0
H630 H 0.61594 0.40438 0.69747 0.0
C631 C 0.56517 0.32647 0.83108 0.0
C632 C 0.56096 0.31795 0.76118 0.0
H633 H 0.59062 0.36889 0.90696 0.0
H634 H 0.55153 0.30484 0.86883 0.0
C635 C 0.57956 0.34661 0.71377 0.0
C636 C 0.43724 0.80486 0.74702 0.0
C637 C 0.41728 0.80481 0.80503 0.0
H638 H 0.46715 0.78134 0.69783 0.0
C639 C 0.41349 0.78149 0.86 0.0
H640 H 0.44015 0.82227 0.70377 0.0
C641 C 0.42801 0.75754 0.85594 0.0
C642 C 0.44729 0.75703 0.79746 0.0
H643 H 0.3977 0.78048 0.90492 0.0
H644 H 0.42381 0.73908 0.89809 0.0
C645 C 0.45258 0.7815 0.74366 0.0
C646 C 0.59788 0.43266 0.34974 0.0
C647 C 0.59388 0.41818 0.28352 0.0
H648 H 0.63453 0.46752 0.42691 0.0
C649 C 0.62619 0.42977 0.24363 0.0
H650 H 0.57406 0.4239 0.38325 0.0
C651 C 0.66152 0.45424 0.27012 0.0
C652 C 0.66536 0.46783 0.33709 0.0
H653 H 0.62431 0.41946 0.1924 0.0
H654 H 0.68573 0.46139 0.23863 0.0
C655 C 0.63293 0.45733 0.37572 0.0
C656 C 0.24001 0.62595 0.80002 0.0
C657 C 0.26197 0.61007 0.81735 0.0
H658 H 0.23233 0.67295 0.80881 0.0
C659 C 0.2962 0.63177 0.85038 0.0
H660 H 0.21329 0.60956 0.77531 0.0
C661 C 0.30724 0.66804 0.8695 0.0
C662 C 0.28408 0.68329 0.8567 0.0
H663 H 0.31367 0.62008 0.86401 0.0
H664 H 0.33348 0.68374 0.89594 0.0
C665 C 0.25091 0.66223 0.81966 0.0
C666 C 0.53424 0.20073 0.2436 0.0
C667 C 0.53627 0.21549 0.30897 0.0
H668 H 0.55007 0.16918 0.17871 0.0
C669 C 0.55449 0.20735 0.36064 0.0
H670 H 0.5206 0.20671 0.2025 0.0
C671 C 0.57121 0.18596 0.34713 0.0
C672 C 0.57025 0.17197 0.28143 0.0
H673 H 0.55622 0.21787 0.41163 0.0
H674 H 0.58629 0.18172 0.38798 0.0
C675 C 0.55126 0.17937 0.22985 0.0
C676 C 0.37896 0.5307 0.69012 0.0
C677 C 0.41035 0.55143 0.73128 0.0
H678 H 0.32107 0.48947 0.68629 0.0
C679 C 0.40717 0.54429 0.80173 0.0
H680 H 0.3805 0.53532 0.63568 0.0
C681 C 0.37329 0.51835 0.83071 0.0
C682 C 0.34138 0.49879 0.79027 0.0
H683 H 0.43035 0.56027 0.83557 0.0
H684 H 0.37187 0.51529 0.88543 0.0
C685 C 0.34487 0.50453 0.71927 0.0
C686 C 0.74998 0.32209 0.29203 0.0
C687 C 0.72979 0.30424 0.35135 0.0
H688 H 0.78112 0.37354 0.23835 0.0
C689 C 0.72491 0.32519 0.40203 0.0
H690 H 0.75358 0.30652 0.25153 0.0
C691 C 0.74023 0.36319 0.39411 0.0
C692 C 0.76089 0.38117 0.33542 0.0
H693 H 0.70963 0.31229 0.44826 0.0
H694 H 0.73593 0.3786 0.43416 0.0
C695 C 0.7653 0.36028 0.284 0.0
loop_
_geom_bond_atom_site_label_1
_geom_bond_atom_site_label_2
_geom_bond_distance
_geom_bond_site_symmetry_2
_ccdc_geom_bond_type
C0 C1 1.351 . S
C0 N3 1.368 . S
C0 H5 0.931 . S
C1 C0 1.351 . S
C1 N2 1.373 . S
C1 H29 0.930 . S
N2 C1 1.373 . S
N2 C4 1.340 . S
N3 C0 1.368 . S
N3 C4 1.321 . S
N3 Co6 2.135 . S
C4 N2 1.340 . S
C4 N3 1.321 . S
C4 H28 0.930 . S
H5 C0 0.931 . S
Co6 N3 2.135 . S
Co6 N9 2.121 . S
Co6 O14 2.055 . S
Co6 O17 2.039 . S
Co6 N20 2.140 . S
C7 O8 1.227 . S
C7 O17 1.265 . S
O8 C7 1.227 . S
N9 Co6 2.121 . S
N9 C11 1.375 . S
N9 C12 1.313 . S
C10 C11 1.338 . S
C10 N13 1.377 . S
C10 H30 0.930 . S
C11 N9 1.375 . S
C11 C10 1.338 . S
C11 H15 0.931 . S
C12 N9 1.313 . S
C12 N13 1.344 . S
C12 H16 0.930 . S
N13 C10 1.377 . S
N13 C12 1.344 . S
O14 Co6 2.055 . S
O14 C18 1.253 . S
H15 C11 0.931 . S
H16 C12 0.930 . S
O17 Co6 2.039 . S
O17 C7 1.265 . S
C18 O14 1.253 . S
C18 O19 1.227 . S
O19 C18 1.227 . S
N20 Co6 2.140 . S
N20 C23 1.346 . S
N20 C24 1.345 . S
C21 C22 1.387 . S
C21 C25 1.391 . S
C22 C21 1.387 . S
C22 C23 1.369 . S
C22 H31 0.929 . S
C23 N20 1.346 . S
C23 C22 1.369 . S
C23 H26 0.928 . S
C24 N20 1.345 . S
C24 C25 1.371 . S
C24 H27 0.931 . S
C25 C21 1.391 . S
C25 C24 1.371 . S
C25 H32 0.930 . S
H26 C23 0.928 . S
H27 C24 0.931 . S
H28 C4 0.930 . S
H29 C1 0.930 . S
H30 C10 0.930 . S
H31 C22 0.929 . S
H32 C25 0.930 . S
C33 C34 1.351 . S
C33 N36 1.368 . S
C33 H38 0.931 . S
C34 C33 1.351 . S
C34 N35 1.373 . S
C34 H62 0.930 . S
N35 C34 1.373 . S
N35 C37 1.340 . S
N36 C33 1.368 . S
N36 C37 1.321 . S
N36 Co39 2.135 . S
C37 N35 1.340 . S
C37 N36 1.321 . S
C37 H61 0.930 . S
H38 C33 0.931 . S
Co39 N36 2.135 . S
Co39 N42 2.121 . S
Co39 O47 2.055 . S
Co39 O50 2.039 . S
Co39 N53 2.140 . S
C40 O41 1.227 . S
C40 O50 1.265 . S
O41 C40 1.227 . S
N42 Co39 2.121 . S
N42 C44 1.375 . S
N42 C45 1.313 . S
C43 C44 1.338 . S
C43 N46 1.377 . S
C43 H63 0.930 . S
C44 N42 1.375 . S
C44 C43 1.338 . S
C44 H48 0.931 . S
C45 N42 1.313 . S
C45 N46 1.344 . S
C45 H49 0.930 . S
N46 C43 1.377 . S
N46 C45 1.344 . S
O47 Co39 2.055 . S
O47 C51 1.253 . S
H48 C44 0.931 . S
H49 C45 0.930 . S
O50 Co39 2.039 . S
O50 C40 1.265 . S
C51 O47 1.253 . S
C51 O52 1.227 . S
O52 C51 1.227 . S
N53 Co39 2.140 . S
N53 C56 1.346 . S
N53 C57 1.345 . S
C54 C55 1.387 . S
C54 C58 1.391 . S
C55 C54 1.387 . S
C55 C56 1.369 . S
C55 H64 0.929 . S
C56 N53 1.346 . S
C56 C55 1.369 . S
C56 H59 0.928 . S
C57 N53 1.345 . S
C57 C58 1.371 . S
C57 H60 0.931 . S
C58 C54 1.391 . S
C58 C57 1.371 . S
C58 H65 0.930 . S
H59 C56 0.928 . S
H60 C57 0.931 . S
H61 C37 0.930 . S
H62 C34 0.930 . S
H63 C43 0.930 . S
H64 C55 0.929 . S
H65 C58 0.930 . S
C66 C67 1.351 . S
C66 N69 1.368 . S
C66 H71 0.931 . S
C67 C66 1.351 . S
C67 N68 1.373 . S
C67 H95 0.930 . S
N68 C67 1.373 . S
N68 C70 1.340 . S
N69 C66 1.368 . S
N69 C70 1.321 . S
N69 Co72 2.135 . S
C70 N68 1.340 . S
C70 N69 1.321 . S
C70 H94 0.930 . S
H71 C66 0.931 . S
Co72 N69 2.135 . S
Co72 N75 2.121 . S
Co72 O80 2.055 . S
Co72 O83 2.039 . S
Co72 N86 2.140 . S
C73 O74 1.227 . S
C73 O83 1.265 . S
O74 C73 1.227 . S
N75 Co72 2.121 . S
N75 C77 1.375 . S
N75 C78 1.313 . S
C76 C77 1.338 . S
C76 N79 1.377 . S
C76 H96 0.930 . S
C77 N75 1.375 . S
C77 C76 1.338 . S
C77 H81 0.931 . S
C78 N75 1.313 . S
C78 N79 1.344 . S
C78 H82 0.930 . S
N79 C76 1.377 . S
N79 C78 1.344 . S
O80 Co72 2.055 . S
O80 C84 1.253 . S
H81 C77 0.931 . S
H82 C78 0.930 . S
O83 Co72 2.039 . S
O83 C73 1.265 . S
C84 O80 1.253 . S
C84 O85 1.227 . S
O85 C84 1.227 . S
N86 Co72 2.140 . S
N86 C89 1.346 . S
N86 C90 1.345 . S
C87 C88 1.387 . S
C87 C91 1.391 . S
C88 C87 1.387 . S
C88 C89 1.369 . S
C88 H97 0.929 . S
C89 N86 1.346 . S
C89 C88 1.369 . S
C89 H92 0.928 . S
C90 N86 1.345 . S
C90 C91 1.371 . S
C90 H93 0.931 . S
C91 C87 1.391 . S
C91 C90 1.371 . S
C91 H98 0.930 . S
H92 C89 0.928 . S
H93 C90 0.931 . S
H94 C70 0.930 . S
H95 C67 0.930 . S
H96 C76 0.930 . S
H97 C88 0.929 . S
H98 C91 0.930 . S
C99 C100 1.351 . S
C99 N102 1.368 . S
C99 H104 0.931 . S
C100 C99 1.351 . S
C100 N101 1.373 . S
C100 H128 0.930 . S
N101 C100 1.373 . S
N101 C103 1.340 . S
N102 C99 1.368 . S
N102 C103 1.321 . S
N102 Co105 2.135 . S
C103 N101 1.340 . S
C103 N102 1.321 . S
C103 H127 0.930 . S
H104 C99 0.931 . S
Co105 N102 2.135 . S
Co105 N108 2.121 . S
Co105 O113 2.055 . S
Co105 O116 2.039 . S
Co105 N119 2.140 . S
C106 O107 1.227 . S
C106 O116 1.265 . S
O107 C106 1.227 . S
N108 Co105 2.121 . S
N108 C110 1.375 . S
N108 C111 1.313 . S
C109 C110 1.338 . S
C109 N112 1.377 . S
C109 H129 0.930 . S
C110 N108 1.375 . S
C110 C109 1.338 . S
C110 H114 0.931 . S
C111 N108 1.313 . S
C111 N112 1.344 . S
C111 H115 0.930 . S
N112 C109 1.377 . S
N112 C111 1.344 . S
O113 Co105 2.055 . S
O113 C117 1.253 . S
H114 C110 0.931 . S
H115 C111 0.930 . S
O116 Co105 2.039 . S
O116 C106 1.265 . S
C117 O113 1.253 . S
C117 O118 1.227 . S
O118 C117 1.227 . S
N119 Co105 2.140 . S
N119 C122 1.346 . S
N119 C123 1.345 . S
C120 C121 1.387 . S
C120 C124 1.391 . S
C121 C120 1.387 . S
C121 C122 1.369 . S
C121 H130 0.929 . S
C122 N119 1.346 . S
C122 C121 1.369 . S
C122 H125 0.928 . S
C123 N119 1.345 . S
C123 C124 1.371 . S
C123 H126 0.931 . S
C124 C120 1.391 . S
C124 C123 1.371 . S
C124 H131 0.930 . S
H125 C122 0.928 . S
H126 C123 0.931 . S
H127 C103 0.930 . S
H128 C100 0.930 . S
H129 C109 0.930 . S
H130 C121 0.929 . S
H131 C124 0.930 . S
C132 C133 1.351 . S
C132 N135 1.368 . S
C132 H137 0.931 . S
C133 C132 1.351 . S
C133 N134 1.373 . S
C133 H161 0.930 . S
N134 C133 1.373 . S
N134 C136 1.340 . S
N135 C132 1.368 . S
N135 C136 1.321 . S
N135 Co138 2.135 . S
C136 N134 1.340 . S
C136 N135 1.321 . S
C136 H160 0.930 . S
H137 C132 0.931 . S
Co138 N135 2.135 . S
Co138 N141 2.121 . S
Co138 O146 2.055 . S
Co138 O149 2.039 . S
Co138 N152 2.140 . S
C139 O140 1.227 . S
C139 O149 1.265 . S
O140 C139 1.227 . S
N141 Co138 2.121 . S
N141 C143 1.375 . S
N141 C144 1.313 . S
C142 C143 1.338 . S
C142 N145 1.377 . S
C142 H162 0.930 . S
C143 N141 1.375 . S
C143 C142 1.338 . S
C143 H147 0.931 . S
C144 N141 1.313 . S
C144 N145 1.344 . S
C144 H148 0.930 . S
N145 C142 1.377 . S
N145 C144 1.344 . S
O146 Co138 2.055 . S
O146 C150 1.253 . S
H147 C143 0.931 . S
H148 C144 0.930 . S
O149 Co138 2.039 . S
O149 C139 1.265 . S
C150 O146 1.253 . S
C150 O151 1.227 . S
O151 C150 1.227 . S
N152 Co138 2.140 . S
N152 C155 1.346 . S
N152 C156 1.345 . S
C153 C154 1.387 . S
C153 C157 1.391 . S
C154 C153 1.387 . S
C154 C155 1.369 . S
C154 H163 0.929 . S
C155 N152 1.346 . S
C155 C154 1.369 . S
C155 H158 0.928 . S
C156 N152 1.345 . S
C156 C157 1.371 . S
C156 H159 0.931 . S
C157 C153 1.391 . S
C157 C156 1.371 . S
C157 H164 0.930 . S
H158 C155 0.928 . S
H159 C156 0.931 . S
H160 C136 0.930 . S
H161 C133 0.930 . S
H162 C142 0.930 . S
H163 C154 0.929 . S
H164 C157 0.930 . S
C165 C166 1.351 . S
C165 N168 1.368 . S
C165 H170 0.931 . S
C166 C165 1.351 . S
C166 N167 1.373 . S
C166 H194 0.930 . S
N167 C166 1.373 . S
N167 C169 1.340 . S
N168 C165 1.368 . S
N168 C169 1.321 . S
N168 Co171 2.135 . S
C169 N167 1.340 . S
C169 N168 1.321 . S
C169 H193 0.930 . S
H170 C165 0.931 . S
Co171 N168 2.135 . S
Co171 N174 2.121 . S
Co171 O179 2.055 . S
Co171 O182 2.039 . S
Co171 N185 2.140 . S
C172 O173 1.227 . S
C172 O182 1.265 . S
O173 C172 1.227 . S
N174 Co171 2.121 . S
N174 C176 1.375 . S
N174 C177 1.313 . S
C175 C176 1.338 . S
C175 N178 1.377 . S
C175 H195 0.930 . S
C176 N174 1.375 . S
C176 C175 1.338 . S
C176 H180 0.931 . S
C177 N174 1.313 . S
C177 N178 1.344 . S
C177 H181 0.930 . S
N178 C175 1.377 . S
N178 C177 1.344 . S
O179 Co171 2.055 . S
O179 C183 1.253 . S
H180 C176 0.931 . S
H181 C177 0.930 . S
O182 Co171 2.039 . S
O182 C172 1.265 . S
C183 O179 1.253 . S
C183 O184 1.227 . S
O184 C183 1.227 . S
N185 Co171 2.140 . S
N185 C188 1.346 . S
N185 C189 1.345 . S
C186 C187 1.387 . S
C186 C190 1.391 . S
C187 C186 1.387 . S
C187 C188 1.369 . S
C187 H196 0.929 . S
C188 N185 1.346 . S
C188 C187 1.369 . S
C188 H191 0.928 . S
C189 N185 1.345 . S
C189 C190 1.371 . S
C189 H192 0.931 . S
C190 C186 1.391 . S
C190 C189 1.371 . S
C190 H197 0.930 . S
H191 C188 0.928 . S
H192 C189 0.931 . S
H193 C169 0.930 . S
H194 C166 0.930 . S
H195 C175 0.930 . S
H196 C187 0.929 . S
H197 C190 0.930 . S
C198 C199 1.351 . S
C198 N201 1.368 . S
C198 H203 0.931 . S
C199 C198 1.351 . S
C199 N200 1.373 . S
C199 H227 0.930 . S
N200 C199 1.373 . S
N200 C202 1.340 . S
N201 C198 1.368 . S
N201 C202 1.321 . S
N201 Co204 2.135 . S
C202 N200 1.340 . S
C202 N201 1.321 . S
C202 H226 0.930 . S
H203 C198 0.931 . S
Co204 N201 2.135 . S
Co204 N207 2.121 . S
Co204 O212 2.055 . S
Co204 O215 2.039 . S
Co204 N218 2.140 . S
C205 O206 1.227 . S
C205 O215 1.265 . S
O206 C205 1.227 . S
N207 Co204 2.121 . S
N207 C209 1.375 . S
N207 C210 1.313 . S
C208 C209 1.338 . S
C208 N211 1.377 . S
C208 H228 0.930 . S
C209 N207 1.375 . S
C209 C208 1.338 . S
C209 H213 0.931 . S
C210 N207 1.313 . S
C210 N211 1.344 . S
C210 H214 0.930 . S
N211 C208 1.377 . S
N211 C210 1.344 . S
O212 Co204 2.055 . S
O212 C216 1.253 . S
H213 C209 0.931 . S
H214 C210 0.930 . S
O215 Co204 2.039 . S
O215 C205 1.265 . S
C216 O212 1.253 . S
C216 O217 1.227 . S
O217 C216 1.227 . S
N218 Co204 2.140 . S
N218 C221 1.346 . S
N218 C222 1.345 . S
C219 C220 1.387 . S
C219 C223 1.391 . S
C220 C219 1.387 . S
C220 C221 1.369 . S
C220 H229 0.929 . S
C221 N218 1.346 . S
C221 C220 1.369 . S
C221 H224 0.928 . S
C222 N218 1.345 . S
C222 C223 1.371 . S
C222 H225 0.931 . S
C223 C219 1.391 . S
C223 C222 1.371 . S
C223 H230 0.930 . S
H224 C221 0.928 . S
H225 C222 0.931 . S
H226 C202 0.930 . S
H227 C199 0.930 . S
H228 C208 0.930 . S
H229 C220 0.929 . S
H230 C223 0.930 . S
C231 C232 1.351 . S
C231 N234 1.368 . S
C231 H236 0.931 . S
C232 C231 1.351 . S
C232 N233 1.373 . S
C232 H260 0.930 . S
N233 C232 1.373 . S
N233 C235 1.340 . S
N234 C231 1.368 . S
N234 C235 1.321 . S
N234 Co237 2.135 . S
C235 N233 1.340 . S
C235 N234 1.321 . S
C235 H259 0.930 . S
H236 C231 0.931 . S
Co237 N234 2.135 . S
Co237 N240 2.121 . S
Co237 O245 2.055 . S
Co237 O248 2.039 . S
Co237 N251 2.140 . S
C238 O239 1.227 . S
C238 O248 1.265 . S
O239 C238 1.227 . S
N240 Co237 2.121 . S
N240 C242 1.375 . S
N240 C243 1.313 . S
C241 C242 1.338 . S
C241 N244 1.377 . S
C241 H261 0.930 . S
C242 N240 1.375 . S
C242 C241 1.338 . S
C242 H246 0.931 . S
C243 N240 1.313 . S
C243 N244 1.344 . S
C243 H247 0.930 . S
N244 C241 1.377 . S
N244 C243 1.344 . S
O245 Co237 2.055 . S
O245 C249 1.253 . S
H246 C242 0.931 . S
H247 C243 0.930 . S
O248 Co237 2.039 . S
O248 C238 1.265 . S
C249 O245 1.253 . S
C249 O250 1.227 . S
O250 C249 1.227 . S
N251 Co237 2.140 . S
N251 C254 1.346 . S
N251 C255 1.345 . S
C252 C253 1.387 . S
C252 C256 1.391 . S
C253 C252 1.387 . S
C253 C254 1.369 . S
C253 H262 0.929 . S
C254 N251 1.346 . S
C254 C253 1.369 . S
C254 H257 0.928 . S
C255 N251 1.345 . S
C255 C256 1.371 . S
C255 H258 0.931 . S
C256 C252 1.391 . S
C256 C255 1.371 . S
C256 H263 0.930 . S
H257 C254 0.928 . S
H258 C255 0.931 . S
H259 C235 0.930 . S
H260 C232 0.930 . S
H261 C241 0.930 . S
H262 C253 0.929 . S
H263 C256 0.930 . S
C264 C265 1.351 . S
C264 N267 1.368 . S
C264 H269 0.931 . S
C265 C264 1.351 . S
C265 N266 1.373 . S
C265 H293 0.930 . S
N266 C265 1.373 . S
N266 C268 1.340 . S
N267 C264 1.368 . S
N267 C268 1.321 . S
N267 Co270 2.135 . S
C268 N266 1.340 . S
C268 N267 1.321 . S
C268 H292 0.930 . S
H269 C264 0.931 . S
Co270 N267 2.135 . S
Co270 N273 2.121 . S
Co270 O278 2.055 . S
Co270 O281 2.039 . S
Co270 N284 2.140 . S
C271 O272 1.227 . S
C271 O281 1.265 . S
O272 C271 1.227 . S
N273 Co270 2.121 . S
N273 C275 1.375 . S
N273 C276 1.313 . S
C274 C275 1.338 . S
C274 N277 1.377 . S
C274 H294 0.930 . S
C275 N273 1.375 . S
C275 C274 1.338 . S
C275 H279 0.931 . S
C276 N273 1.313 . S
C276 N277 1.344 . S
C276 H280 0.930 . S
N277 C274 1.377 . S
N277 C276 1.344 . S
O278 Co270 2.055 . S
O278 C282 1.253 . S
H279 C275 0.931 . S
H280 C276 0.930 . S
O281 Co270 2.039 . S
O281 C271 1.265 . S
C282 O278 1.253 . S
C282 O283 1.227 . S
O283 C282 1.227 . S
N284 Co270 2.140 . S
N284 C287 1.346 . S
N284 C288 1.345 . S
C285 C286 1.387 . S
C285 C289 1.391 . S
C286 C285 1.387 . S
C286 C287 1.369 . S
C286 H295 0.929 . S
C287 N284 1.346 . S
C287 C286 1.369 . S
C287 H290 0.928 . S
C288 N284 1.345 . S
C288 C289 1.371 . S
C288 H291 0.931 . S
C289 C285 1.391 . S
C289 C288 1.371 . S
C289 H296 0.930 . S
H290 C287 0.928 . S
H291 C288 0.931 . S
H292 C268 0.930 . S
H293 C265 0.930 . S
H294 C274 0.930 . S
H295 C286 0.929 . S
H296 C289 0.930 . S
C297 C298 1.351 . S
C297 N300 1.368 . S
C297 H302 0.931 . S
C298 C297 1.351 . S
C298 N299 1.373 . S
C298 H326 0.930 . S
N299 C298 1.373 . S
N299 C301 1.340 . S
N300 C297 1.368 . S
N300 C301 1.321 . S
N300 Co303 2.135 . S
C301 N299 1.340 . S
C301 N300 1.321 . S
C301 H325 0.930 . S
H302 C297 0.931 . S
Co303 N300 2.135 . S
Co303 N306 2.121 . S
Co303 O311 2.055 . S
Co303 O314 2.039 . S
Co303 N317 2.140 . S
C304 O305 1.227 . S
C304 O314 1.265 . S
O305 C304 1.227 . S
N306 Co303 2.121 . S
N306 C308 1.375 . S
N306 C309 1.313 . S
C307 C308 1.338 . S
C307 N310 1.377 . S
C307 H327 0.930 . S
C308 N306 1.375 . S
C308 C307 1.338 . S
C308 H312 0.931 . S
C309 N306 1.313 . S
C309 N310 1.344 . S
C309 H313 0.930 . S
N310 C307 1.377 . S
N310 C309 1.344 . S
O311 Co303 2.055 . S
O311 C315 1.253 . S
H312 C308 0.931 . S
H313 C309 0.930 . S
O314 Co303 2.039 . S
O314 C304 1.265 . S
C315 O311 1.253 . S
C315 O316 1.227 . S
O316 C315 1.227 . S
N317 Co303 2.140 . S
N317 C320 1.346 . S
N317 C321 1.345 . S
C318 C319 1.387 . S
C318 C322 1.391 . S
C319 C318 1.387 . S
C319 C320 1.369 . S
C319 H328 0.929 . S
C320 N317 1.346 . S
C320 C319 1.369 . S
C320 H323 0.928 . S
C321 N317 1.345 . S
C321 C322 1.371 . S
C321 H324 0.931 . S
C322 C318 1.391 . S
C322 C321 1.371 . S
C322 H329 0.930 . S
H323 C320 0.928 . S
H324 C321 0.931 . S
H325 C301 0.930 . S
H326 C298 0.930 . S
H327 C307 0.930 . S
H328 C319 0.929 . S
H329 C322 0.930 . S
C330 C331 1.351 . S
C330 N333 1.368 . S
C330 H335 0.931 . S
C331 C330 1.351 . S
C331 N332 1.373 . S
C331 H359 0.930 . S
N332 C331 1.373 . S
N332 C334 1.340 . S
N333 C330 1.368 . S
N333 C334 1.321 . S
N333 Co336 2.135 . S
C334 N332 1.340 . S
C334 N333 1.321 . S
C334 H358 0.930 . S
H335 C330 0.931 . S
Co336 N333 2.135 . S
Co336 N339 2.121 . S
Co336 O344 2.055 . S
Co336 O347 2.039 . S
Co336 N350 2.140 . S
C337 O338 1.227 . S
C337 O347 1.265 . S
O338 C337 1.227 . S
N339 Co336 2.121 . S
N339 C341 1.375 . S
N339 C342 1.313 . S
C340 C341 1.338 . S
C340 N343 1.377 . S
C340 H360 0.930 . S
C341 N339 1.375 . S
C341 C340 1.338 . S
C341 H345 0.931 . S
C342 N339 1.313 . S
C342 N343 1.344 . S
C342 H346 0.930 . S
N343 C340 1.377 . S
N343 C342 1.344 . S
O344 Co336 2.055 . S
O344 C348 1.253 . S
H345 C341 0.931 . S
H346 C342 0.930 . S
O347 Co336 2.039 . S
O347 C337 1.265 . S
C348 O344 1.253 . S
C348 O349 1.227 . S
O349 C348 1.227 . S
N350 Co336 2.140 . S
N350 C353 1.346 . S
N350 C354 1.345 . S
C351 C352 1.387 . S
C351 C355 1.391 . S
C352 C351 1.387 . S
C352 C353 1.369 . S
C352 H361 0.929 . S
C353 N350 1.346 . S
C353 C352 1.369 . S
C353 H356 0.928 . S
C354 N350 1.345 . S
C354 C355 1.371 . S
C354 H357 0.931 . S
C355 C351 1.391 . S
C355 C354 1.371 . S
C355 H362 0.930 . S
H356 C353 0.928 . S
H357 C354 0.931 . S
H358 C334 0.930 . S
H359 C331 0.930 . S
H360 C340 0.930 . S
H361 C352 0.929 . S
H362 C355 0.930 . S
C363 C364 1.351 . S
C363 N366 1.368 . S
C363 H368 0.931 . S
C364 C363 1.351 . S
C364 N365 1.373 . S
C364 H392 0.930 . S
N365 C364 1.373 . S
N365 C367 1.340 . S
N366 C363 1.368 . S
N366 C367 1.321 . S
N366 Co369 2.135 . S
C367 N365 1.340 . S
C367 N366 1.321 . S
C367 H391 0.930 . S
H368 C363 0.931 . S
Co369 N366 2.135 . S
Co369 N372 2.121 . S
Co369 O377 2.055 . S
Co369 O380 2.039 . S
Co369 N383 2.140 . S
C370 O371 1.227 . S
C370 O380 1.265 . S
O371 C370 1.227 . S
N372 Co369 2.121 . S
N372 C374 1.375 . S
N372 C375 1.313 . S
C373 C374 1.338 . S
C373 N376 1.377 . S
C373 H393 0.930 . S
C374 N372 1.375 . S
C374 C373 1.338 . S
C374 H378 0.931 . S
C375 N372 1.313 . S
C375 N376 1.344 . S
C375 H379 0.930 . S
N376 C373 1.377 . S
N376 C375 1.344 . S
O377 Co369 2.055 . S
O377 C381 1.253 . S
H378 C374 0.931 . S
H379 C375 0.930 . S
O380 Co369 2.039 . S
O380 C370 1.265 . S
C381 O377 1.253 . S
C381 O382 1.227 . S
O382 C381 1.227 . S
N383 Co369 2.140 . S
N383 C386 1.346 . S
N383 C387 1.345 . S
C384 C385 1.387 . S
C384 C388 1.391 . S
C385 C384 1.387 . S
C385 C386 1.369 . S
C385 H394 0.929 . S
C386 N383 1.346 . S
C386 C385 1.369 . S
C386 H389 0.928 . S
C387 N383 1.345 . S
C387 C388 1.371 . S
C387 H390 0.931 . S
C388 C384 1.391 . S
C388 C387 1.371 . S
C388 H395 0.930 . S
H389 C386 0.928 . S
H390 C387 0.931 . S
H391 C367 0.930 . S
H392 C364 0.930 . S
H393 C373 0.930 . S
H394 C385 0.929 . S
H395 C388 0.930 . S
C396 C397 1.387 . S
C396 H400 0.950 . S
C396 C405 1.390 . S
C397 C396 1.387 . S
C397 C399 1.387 . S
H398 C405 0.950 . S
C399 C397 1.387 . S
C399 C401 1.390 . S
C399 H403 0.950 . S
H400 C396 0.950 . S
C401 C399 1.390 . S
C401 C402 1.387 . S
C401 H404 0.950 . S
C402 C401 1.387 . S
C402 C405 1.387 . S
H403 C399 0.950 . S
H404 C401 0.950 . S
C405 C396 1.390 . S
C405 H398 0.950 . S
C405 C402 1.387 . S
C406 C407 1.387 . S
C406 H410 0.950 . S
C406 C415 1.390 1_655 S
C407 C406 1.387 . S
C407 C409 1.387 . S
H408 C415 0.950 . S
C409 C407 1.387 . S
C409 C411 1.390 1_655 S
C409 H413 0.950 . S
H410 C406 0.950 . S
C411 C409 1.390 1_455 S
C411 C412 1.387 . S
C411 H414 0.950 . S
C412 C411 1.387 . S
C412 C415 1.387 . S
H413 C409 0.950 . S
H414 C411 0.950 . S
C415 C406 1.390 1_455 S
C415 H408 0.950 . S
C415 C412 1.387 . S
C416 C417 1.387 . S
C416 H420 0.950 . S
C416 C425 1.390 1_545 S
C417 C416 1.387 . S
C417 C419 1.387 . S
H418 C425 0.950 . S
C419 C417 1.387 . S
C419 C421 1.390 1_545 S
C419 H423 0.950 . S
H420 C416 0.950 . S
C421 C419 1.390 1_565 S
C421 C422 1.387 . S
C421 H424 0.950 . S
C422 C421 1.387 . S
C422 C425 1.387 . S
H423 C419 0.950 . S
H424 C421 0.950 . S
C425 C416 1.390 1_565 S
C425 H418 0.950 . S
C425 C422 1.387 . S
C426 C427 1.387 . S
C426 H430 0.950 . S
C426 C435 1.390 . S
C427 C426 1.387 . S
C427 C429 1.387 . S
H428 C435 0.950 . S
C429 C427 1.387 . S
C429 C431 1.390 . S
C429 H433 0.950 . S
H430 C426 0.950 . S
C431 C429 1.390 . S
C431 C432 1.387 . S
C431 H434 0.950 . S
C432 C431 1.387 . S
C432 C435 1.387 . S
H433 C429 0.950 . S
H434 C431 0.950 . S
C435 C426 1.390 . S
C435 H428 0.950 . S
C435 C432 1.387 . S
C436 C437 1.387 . S
C436 H440 0.950 . S
C436 C445 1.390 1_455 S
C437 C436 1.387 . S
C437 C439 1.387 . S
H438 C445 0.950 . S
C439 C437 1.387 . S
C439 C441 1.390 1_455 S
C439 H443 0.950 . S
H440 C436 0.950 . S
C441 C439 1.390 1_655 S
C441 C442 1.387 . S
C441 H444 0.950 . S
C442 C441 1.387 . S
C442 C445 1.387 . S
H443 C439 0.950 . S
H444 C441 0.950 . S
C445 C436 1.390 1_655 S
C445 H438 0.950 . S
C445 C442 1.387 . S
C446 C447 1.387 . S
C446 H450 0.950 . S
C446 C455 1.390 1_565 S
C447 C446 1.387 . S
C447 C449 1.387 . S
H448 C455 0.950 . S
C449 C447 1.387 . S
C449 C451 1.390 1_565 S
C449 H453 0.950 . S
H450 C446 0.950 . S
C451 C449 1.390 1_545 S
C451 C452 1.387 . S
C451 H454 0.950 . S
C452 C451 1.387 . S
C452 C455 1.387 . S
H453 C449 0.950 . S
H454 C451 0.950 . S
C455 C446 1.390 1_545 S
C455 H448 0.950 . S
C455 C452 1.387 . S
C456 C457 1.387 . S
C456 H460 0.950 . S
C456 C465 1.390 1_556 S
C457 C456 1.387 . S
C457 C459 1.387 . S
H458 C465 0.950 . S
C459 C457 1.387 . S
C459 C461 1.390 1_556 S
C459 H463 0.950 . S
H460 C456 0.950 . S
C461 C459 1.390 1_554 S
C461 C462 1.387 . S
C461 H464 0.950 . S
C462 C461 1.387 . S
C462 C465 1.387 . S
H463 C459 0.950 . S
H464 C461 0.950 . S
C465 C456 1.390 1_554 S
C465 H458 0.950 . S
C465 C462 1.387 . S
C466 C467 1.387 . S
C466 H470 0.950 . S
C466 C475 1.390 . S
C467 C466 1.387 . S
C467 C469 1.387 . S
H468 C475 0.950 . S
C469 C467 1.387 . S
C469 C471 1.390 . S
C469 H473 0.950 . S
H470 C466 0.950 . S
C471 C469 1.390 . S
C471 C472 1.387 . S
C471 H474 0.950 . S
C472 C471 1.387 . S
C472 C475 1.387 . S
H473 C469 0.950 . S
H474 C471 0.950 . S
C475 C466 1.390 . S
C475 H468 0.950 . S
C475 C472 1.387 . S
C476 C477 1.387 . S
C476 H480 0.950 . S
C476 C485 1.390 1_554 S
C477 C476 1.387 . S
C477 C479 1.387 . S
H478 C485 0.950 . S
C479 C477 1.387 . S
C479 C481 1.390 1_554 S
C479 H483 0.950 . S
H480 C476 0.950 . S
C481 C479 1.390 1_556 S
C481 C482 1.387 . S
C481 H484 0.950 . S
C482 C481 1.387 . S
C482 C485 1.387 . S
H483 C479 0.950 . S
H484 C481 0.950 . S
C485 C476 1.390 1_556 S
C485 H478 0.950 . S
C485 C482 1.387 . S
C486 C487 1.387 . S
C486 H490 0.950 . S
C486 C495 1.390 . S
C487 C486 1.387 . S
C487 C489 1.387 . S
H488 C495 0.950 . S
C489 C487 1.387 . S
C489 C491 1.390 . S
C489 H493 0.950 . S
H490 C486 0.950 . S
C491 C489 1.390 . S
C491 C492 1.387 . S
C491 H494 0.950 . S
C492 C491 1.387 . S
C492 C495 1.387 . S
H493 C489 0.950 . S
H494 C491 0.950 . S
C495 C486 1.390 . S
C495 H488 0.950 . S
C495 C492 1.387 . S
C496 C497 1.387 . S
C496 H500 0.950 . S
C496 C505 1.390 1_556 S
C497 C496 1.387 . S
C497 C499 1.387 . S
H498 C505 0.950 . S
C499 C497 1.387 . S
C499 C501 1.390 1_556 S
C499 H503 0.950 . S
H500 C496 0.950 . S
C501 C499 1.390 1_554 S
C501 C502 1.387 . S
C501 H504 0.950 . S
C502 C501 1.387 . S
C502 C505 1.387 . S
H503 C499 0.950 . S
H504 C501 0.950 . S
C505 C496 1.390 1_554 S
C505 H498 0.950 . S
C505 C502 1.387 . S
C506 C507 1.387 . S
C506 H510 0.950 . S
C506 C515 1.390 . S
C507 C506 1.387 . S
C507 C509 1.387 . S
H508 C515 0.950 . S
C509 C507 1.387 . S
C509 C511 1.390 . S
C509 H513 0.950 . S
H510 C506 0.950 . S
C511 C509 1.390 . S
C511 C512 1.387 . S
C511 H514 0.950 . S
C512 C511 1.387 . S
C512 C515 1.387 . S
H513 C509 0.950 . S
H514 C511 0.950 . S
C515 C506 1.390 . S
C515 H508 0.950 . S
C515 C512 1.387 . S
C516 C517 1.387 . S
C516 H520 0.950 . S
C516 C525 1.390 1_554 S
C517 C516 1.387 . S
C517 C519 1.387 . S
H518 C525 0.950 . S
C519 C517 1.387 . S
C519 C521 1.390 1_554 S
C519 H523 0.950 . S
H520 C516 0.950 . S
C521 C519 1.390 1_556 S
C521 C522 1.387 . S
C521 H524 0.950 . S
C522 C521 1.387 . S
C522 C525 1.387 . S
H523 C519 0.950 . S
H524 C521 0.950 . S
C525 C516 1.390 1_556 S
C525 H518 0.950 . S
C525 C522 1.387 . S
C526 C527 1.387 . S
C526 H530 0.950 . S
C526 C535 1.390 . S
C527 C526 1.387 . S
C527 C529 1.387 . S
H528 C535 0.950 . S
C529 C527 1.387 . S
C529 C531 1.390 . S
C529 H533 0.950 . S
H530 C526 0.950 . S
C531 C529 1.390 . S
C531 C532 1.387 . S
C531 H534 0.950 . S
C532 C531 1.387 . S
C532 C535 1.387 . S
H533 C529 0.950 . S
H534 C531 0.950 . S
C535 C526 1.390 . S
C535 H528 0.950 . S
C535 C532 1.387 . S
C536 C537 1.387 . S
C536 H540 0.950 . S
C536 C545 1.390 1_556 S
C537 C536 1.387 . S
C537 C539 1.387 . S
H538 C545 0.950 . S
C539 C537 1.387 . S
C539 C541 1.390 1_556 S
C539 H543 0.950 . S
H540 C536 0.950 . S
C541 C539 1.390 1_554 S
C541 C542 1.387 . S
C541 H544 0.950 . S
C542 C541 1.387 . S
C542 C545 1.387 . S
H543 C539 0.950 . S
H544 C541 0.950 . S
C545 C536 1.390 1_554 S
C545 H538 0.950 . S
C545 C542 1.387 . S
C546 C547 1.387 . S
C546 H550 0.950 . S
C546 C555 1.390 . S
C547 C546 1.387 . S
C547 C549 1.387 . S
H548 C555 0.950 . S
C549 C547 1.387 . S
C549 C551 1.390 . S
C549 H553 0.950 . S
H550 C546 0.950 . S
C551 C549 1.390 . S
C551 C552 1.387 . S
C551 H554 0.950 . S
C552 C551 1.387 . S
C552 C555 1.387 . S
H553 C549 0.950 . S
H554 C551 0.950 . S
C555 C546 1.390 . S
C555 H548 0.950 . S
C555 C552 1.387 . S
C556 C557 1.387 . S
C556 H560 0.950 . S
C556 C565 1.390 1_556 S
C557 C556 1.387 . S
C557 C559 1.387 . S
H558 C565 0.950 . S
C559 C557 1.387 . S
C559 C561 1.390 1_556 S
C559 H563 0.950 . S
H560 C556 0.950 . S
C561 C559 1.390 1_554 S
C561 C562 1.387 . S
C561 H564 0.950 . S
C562 C561 1.387 . S
C562 C565 1.387 . S
H563 C559 0.950 . S
H564 C561 0.950 . S
C565 C556 1.390 1_554 S
C565 H558 0.950 . S
C565 C562 1.387 . S
C566 C567 1.387 . S
C566 H570 0.950 . S
C566 C575 1.390 . S
C567 C566 1.387 . S
C567 C569 1.387 . S
H568 C575 0.950 . S
C569 C567 1.387 . S
C569 C571 1.390 . S
C569 H573 0.950 . S
H570 C566 0.950 . S
C571 C569 1.390 . S
C571 C572 1.387 . S
C571 H574 0.950 . S
C572 C571 1.387 . S
C572 C575 1.387 . S
H573 C569 0.950 . S
H574 C571 0.950 . S
C575 C566 1.390 . S
C575 H568 0.950 . S
C575 C572 1.387 . S
C576 C577 1.387 . S
C576 H580 0.950 . S
C576 C585 1.390 . S
C577 C576 1.387 . S
C577 C579 1.387 . S
H578 C585 0.950 . S
C579 C577 1.387 . S
C579 C581 1.390 . S
C579 H583 0.950 . S
H580 C576 0.950 . S
C581 C579 1.390 . S
C581 C582 1.387 . S
C581 H584 0.950 . S
C582 C581 1.387 . S
C582 C585 1.387 . S
H583 C579 0.950 . S
H584 C581 0.950 . S
C585 C576 1.390 . S
C585 H578 0.950 . S
C585 C582 1.387 . S
C586 C587 1.387 . S
C586 H590 0.950 . S
C586 C595 1.390 . S
C587 C586 1.387 . S
C587 C589 1.387 . S
H588 C595 0.950 . S
C589 C587 1.387 . S
C589 C591 1.390 . S
C589 H593 0.950 . S
H590 C586 0.950 . S
C591 C589 1.390 . S
C591 C592 1.387 . S
C591 H594 0.950 . S
C592 C591 1.387 . S
C592 C595 1.387 . S
H593 C589 0.950 . S
H594 C591 0.950 . S
C595 C586 1.390 . S
C595 H588 0.950 . S
C595 C592 1.387 . S
C596 C597 1.387 . S
C596 H600 0.950 . S
C596 C605 1.390 . S
C597 C596 1.387 . S
C597 C599 1.387 . S
H598 C605 0.950 . S
C599 C597 1.387 . S
C599 C601 1.390 . S
C599 H603 0.950 . S
H600 C596 0.950 . S
C601 C599 1.390 . S
C601 C602 1.387 . S
C601 H604 0.950 . S
C602 C601 1.387 . S
C602 C605 1.387 . S
H603 C599 0.950 . S
H604 C601 0.950 . S
C605 C596 1.390 . S
C605 H598 0.950 . S
C605 C602 1.387 . S
C606 C607 1.387 . S
C606 H610 0.950 . S
C606 C615 1.390 . S
C607 C606 1.387 . S
C607 C609 1.387 . S
H608 C615 0.950 . S
C609 C607 1.387 . S
C609 C611 1.390 . S
C609 H613 0.950 . S
H610 C606 0.950 . S
C611 C609 1.390 . S
C611 C612 1.387 . S
C611 H614 0.950 . S
C612 C611 1.387 . S
C612 C615 1.387 . S
H613 C609 0.950 . S
H614 C611 0.950 . S
C615 C606 1.390 . S
C615 H608 0.950 . S
C615 C612 1.387 . S
C616 C617 1.387 . S
C616 H620 0.950 . S
C616 C625 1.390 . S
C617 C616 1.387 . S
C617 C619 1.387 . S
H618 C625 0.950 . S
C619 C617 1.387 . S
C619 C621 1.390 . S
C619 H623 0.950 . S
H620 C616 0.950 . S
C621 C619 1.390 . S
C621 C622 1.387 . S
C621 H624 0.950 . S
C622 C621 1.387 . S
C622 C625 1.387 . S
H623 C619 0.950 . S
H624 C621 0.950 . S
C625 C616 1.390 . S
C625 H618 0.950 . S
C625 C622 1.387 . S
C626 C627 1.387 . S
C626 H630 0.950 . S
C626 C635 1.390 . S
C627 C626 1.387 . S
C627 C629 1.387 . S
H628 C635 0.950 . S
C629 C627 1.387 . S
C629 C631 1.390 . S
C629 H633 0.950 . S
H630 C626 0.950 . S
C631 C629 1.390 . S
C631 C632 1.387 . S
C631 H634 0.950 . S
C632 C631 1.387 . S
C632 C635 1.387 . S
H633 C629 0.950 . S
H634 C631 0.950 . S
C635 C626 1.390 . S
C635 H628 0.950 . S
C635 C632 1.387 . S
C636 C637 1.387 . S
C636 H640 0.950 . S
C636 C645 1.390 . S
C637 C636 1.387 . S
C637 C639 1.387 . S
H638 C645 0.950 . S
C639 C637 1.387 . S
C639 C641 1.390 . S
C639 H643 0.950 . S
H640 C636 0.950 . S
C641 C639 1.390 . S
C641 C642 1.387 . S
C641 H644 0.950 . S
C642 C641 1.387 . S
C642 C645 1.387 . S
H643 C639 0.950 . S
H644 C641 0.950 . S
C645 C636 1.390 . S
C645 H638 0.950 . S
C645 C642 1.387 . S
C646 C647 1.387 . S
C646 H650 0.950 . S
C646 C655 1.390 . S
C647 C646 1.387 . S
C647 C649 1.387 . S
H648 C655 0.950 . S
C649 C647 1.387 . S
C649 C651 1.390 . S
C649 H653 0.950 . S
H650 C646 0.950 . S
C651 C649 1.390 . S
C651 C652 1.387 . S
C651 H654 0.950 . S
C652 C651 1.387 . S
C652 C655 1.387 . S
H653 C649 0.950 . S
H654 C651 0.950 . S
C655 C646 1.390 . S
C655 H648 0.950 . S
C655 C652 1.387 . S
C656 C657 1.387 . S
C656 H660 0.950 . S
C656 C665 1.390 . S
C657 C656 1.387 . S
C657 C659 1.387 . S
H658 C665 0.950 . S
C659 C657 1.387 . S
C659 C661 1.390 . S
C659 H663 0.950 . S
H660 C656 0.950 . S
C661 C659 1.390 . S
C661 C662 1.387 . S
C661 H664 0.950 . S
C662 C661 1.387 . S
C662 C665 1.387 . S
H663 C659 0.950 . S
H664 C661 0.950 . S
C665 C656 1.390 . S
C665 H658 0.950 . S
C665 C662 1.387 . S
C666 C667 1.387 . S
C666 H670 0.950 . S
C666 C675 1.390 . S
C667 C666 1.387 . S
C667 C669 1.387 . S
H668 C675 0.950 . S
C669 C667 1.387 . S
C669 C671 1.390 . S
C669 H673 0.950 . S
H670 C666 0.950 . S
C671 C669 1.390 . S
C671 C672 1.387 . S
C671 H674 0.950 . S
C672 C671 1.387 . S
C672 C675 1.387 . S
H673 C669 0.950 . S
H674 C671 0.950 . S
C675 C666 1.390 . S
C675 H668 0.950 . S
C675 C672 1.387 . S
C676 C677 1.387 . S
C676 H680 0.950 . S
C676 C685 1.390 . S
C677 C676 1.387 . S
C677 C679 1.387 . S
H678 C685 0.950 . S
C679 C677 1.387 . S
C679 C681 1.390 . S
C679 H683 0.950 . S
H680 C676 0.950 . S
C681 C679 1.390 . S
C681 C682 1.387 . S
C681 H684 0.950 . S
C682 C681 1.387 . S
C682 C685 1.387 . S
H683 C679 0.950 . S
H684 C681 0.950 . S
C685 C676 1.390 . S
C685 H678 0.950 . S
C685 C682 1.387 . S
C686 C687 1.387 . S
C686 H690 0.950 . S
C686 C695 1.390 . S
C687 C686 1.387 . S
C687 C689 1.387 . S
H688 C695 0.950 . S
C689 C687 1.387 . S
C689 C691 1.390 . S
C689 H693 0.950 . S
H690 C686 0.950 . S
C691 C689 1.390 . S
C691 C692 1.387 . S
C691 H694 0.950 . S
C692 C691 1.387 . S
C692 C695 1.387 . S
H693 C689 0.950 . S
H694 C691 0.950 . S
C695 C686 1.390 . S
C695 H688 0.950 . S
C695 C692 1.387 . S
C397 N310 1.682 . S
C402 N13 1.681 . S
C407 N46 1.682 . S
C412 N343 1.682 . S
C417 N376 1.680 . S
C422 N79 1.680 . S
C427 N112 1.682 . S
C432 N211 1.681 . S
C437 N145 1.681 . S
C442 N244 1.682 . S
C447 N277 1.683 . S
C452 N178 1.683 . S
C457 C348 1.780 . S
C462 C18 1.780 . S
C467 C381 1.782 . S
C472 C51 1.780 . S
C477 C84 1.782 . S
C482 C216 1.781 . S
C487 C249 1.780 . S
C492 C117 1.780 . S
C497 C282 1.782 . S
C502 C150 1.780 . S
C507 C183 1.781 . S
C512 C315 1.779 . S
C517 C238 1.068 . S
C522 C106 1.068 . S
C527 C271 1.064 . S
C532 C139 1.066 . S
C537 C172 1.064 . S
C542 C304 1.068 . S
C547 C7 1.065 . S
C552 C337 1.065 . S
C557 C40 1.064 . S
C562 C370 1.067 . S
C567 C205 1.067 . S
C572 C73 1.069 . S
C577 N2 1.367 . S
C582 C153 1.453 . S
C587 N35 1.364 . S
C592 C186 1.453 . S
C597 N68 1.364 . S
C602 C21 1.453 . S
C607 C54 1.453 . S
C612 N101 1.367 . S
C617 N134 1.367 . S
C622 C87 1.453 . S
C627 C120 1.453 . S
C632 N167 1.364 . S
C637 C285 1.453 . S
C642 N200 1.367 . S
C647 C318 1.453 . S
C652 N233 1.365 . S
C657 C351 1.453 . S
C662 N266 1.367 . S
C667 N299 1.367 . S
C672 C384 1.453 . S
C677 C219 1.453 . S
C682 N332 1.367 . S
C687 N365 1.367 . S
C692 C252 1.453 . S
