# Generated by pormake.
# Topology uou, (4)-cn, num edge types: 1
# Building blocks:
#     Node 0, Type 0, BuildingBlock: CEKHIL_clean_sbu_0, # of connection points: 4
#     Node 1, Type 0, BuildingBlock: CEKHIL_clean_sbu_0, # of connection points: 4
#     Node 2, Type 0, BuildingBlock: CEKHIL_clean_sbu_0, # of connection points: 4
#     Node 3, Type 0, BuildingBlock: CEKHIL_clean_sbu_0, # of connection points: 4
#     Node 4, Type 0, BuildingBlock: CEKHIL_clean_sbu_0, # of connection points: 4
#     Node 5, Type 0, BuildingBlock: CEKHIL_clean_sbu_0, # of connection points: 4
#     Node 6, Type 0, BuildingBlock: CEKHIL_clean_sbu_0, # of connection points: 4
#     Node 7, Type 0, BuildingBlock: CEKHIL_clean_sbu_0, # of connection points: 4
#     Node 8, Type 0, BuildingBlock: CEKHIL_clean_sbu_0, # of connection points: 4
#     Node 9, Type 0, BuildingBlock: CEKHIL_clean_sbu_0, # of connection points: 4
#     Node 10, Type 0, BuildingBlock: CEKHIL_clean_sbu_0, # of connection points: 4
#     Node 11, Type 0, BuildingBlock: CEKHIL_clean_sbu_0, # of connection points: 4
#     Node 12, Type 0, BuildingBlock: CEKHIL_clean_sbu_0, # of connection points: 4
#     Node 13, Type 0, BuildingBlock: CEKHIL_clean_sbu_0, # of connection points: 4
#     Node 14, Type 0, BuildingBlock: CEKHIL_clean_sbu_0, # of connection points: 4
#     Node 15, Type 0, BuildingBlock: CEKHIL_clean_sbu_0, # of connection points: 4
#     Edge 16, Type (0, 0), BuildingBlock: XUDNAN_clean_linker_2, # of connection points: 2
#     Edge 17, Type (0, 0), BuildingBlock: XUDNAN_clean_linker_2, # of connection points: 2
#     Edge 18, Type (0, 0), BuildingBlock: XUDNAN_clean_linker_2, # of connection points: 2
#     Edge 19, Type (0, 0), BuildingBlock: XUDNAN_clean_linker_2, # of connection points: 2
#     Edge 20, Type (0, 0), BuildingBlock: XUDNAN_clean_linker_2, # of connection points: 2
#     Edge 21, Type (0, 0), BuildingBlock: XUDNAN_clean_linker_2, # of connection points: 2
#     Edge 22, Type (0, 0), BuildingBlock: XUDNAN_clean_linker_2, # of connection points: 2
#     Edge 23, Type (0, 0), BuildingBlock: XUDNAN_clean_linker_2, # of connection points: 2
#     Edge 24, Type (0, 0), BuildingBlock: XUDNAN_clean_linker_2, # of connection points: 2
#     Edge 25, Type (0, 0), BuildingBlock: XUDNAN_clean_linker_2, # of connection points: 2
#     Edge 26, Type (0, 0), BuildingBlock: XUDNAN_clean_linker_2, # of connection points: 2
#     Edge 27, Type (0, 0), BuildingBlock: XUDNAN_clean_linker_2, # of connection points: 2
#     Edge 28, Type (0, 0), BuildingBlock: XUDNAN_clean_linker_2, # of connection points: 2
#     Edge 29, Type (0, 0), BuildingBlock: XUDNAN_clean_linker_2, # of connection points: 2
#     Edge 30, Type (0, 0), BuildingBlock: XUDNAN_clean_linker_2, # of connection points: 2
#     Edge 31, Type (0, 0), BuildingBlock: XUDNAN_clean_linker_2, # of connection points: 2
#     Edge 32, Type (0, 0), BuildingBlock: XUDNAN_clean_linker_2, # of connection points: 2
#     Edge 33, Type (0, 0), BuildingBlock: XUDNAN_clean_linker_2, # of connection points: 2
#     Edge 34, Type (0, 0), BuildingBlock: XUDNAN_clean_linker_2, # of connection points: 2
#     Edge 35, Type (0, 0), BuildingBlock: XUDNAN_clean_linker_2, # of connection points: 2
#     Edge 36, Type (0, 0), BuildingBlock: XUDNAN_clean_linker_2, # of connection points: 2
#     Edge 37, Type (0, 0), BuildingBlock: XUDNAN_clean_linker_2, # of connection points: 2
#     Edge 38, Type (0, 0), BuildingBlock: XUDNAN_clean_linker_2, # of connection points: 2
#     Edge 39, Type (0, 0), BuildingBlock: XUDNAN_clean_linker_2, # of connection points: 2
#     Edge 40, Type (0, 0), BuildingBlock: XUDNAN_clean_linker_2, # of connection points: 2
#     Edge 41, Type (0, 0), BuildingBlock: XUDNAN_clean_linker_2, # of connection points: 2
#     Edge 42, Type (0, 0), BuildingBlock: XUDNAN_clean_linker_2, # of connection points: 2
#     Edge 43, Type (0, 0), BuildingBlock: XUDNAN_clean_linker_2, # of connection points: 2
#     Edge 44, Type (0, 0), BuildingBlock: XUDNAN_clean_linker_2, # of connection points: 2
#     Edge 45, Type (0, 0), BuildingBlock: XUDNAN_clean_linker_2, # of connection points: 2
#     Edge 46, Type (0, 0), BuildingBlock: XUDNAN_clean_linker_2, # of connection points: 2
#     Edge 47, Type (0, 0), BuildingBlock: XUDNAN_clean_linker_2, # of connection points: 2
# Relax obj value: 0.038
# Max RMSD: 0.067
# Mean RMSD: 0.067
data_MOF--net-uou--node1-CEKHIL_clean_sbu_0--edge1-XUDNAN_clean_linker_2
_symmetry_space_group_name_H-M    P1
_symmetry_Int_Tables_number       1
_symmetry_cell_setting            triclinic
loop_
_symmetry_equiv_pos_as_xyz
'x, y, z'
_cell_length_a     37.632294
_cell_length_b     40.044468
_cell_length_c     52.743656
_cell_angle_alpha  90.019994
_cell_angle_beta   90.040551
_cell_angle_gamma 89.934452
loop_
_atom_site_label
_atom_site_type_symbol
_atom_site_fract_x
_atom_site_fract_y
_atom_site_fract_z
_atom_type_partial_charge
Co0 Co 0.08371 0.0807 0.12705 0.0
O1 O 0.11467 0.0416 0.12835 0.0
O2 O 0.12661 0.08786 0.10744 0.0
C3 C 0.07232 0.08286 0.16902 0.0
O4 O 0.06085 0.127 0.12231 0.0
Co5 Co 1.00429 0.0802 0.14366 0.0
O6 O 0.0073 0.12946 0.1411 0.0
C7 C 0.02558 0.04909 0.09502 0.0
C8 C 0.13717 0.05849 0.11478 0.0
C9 C 0.03311 0.14344 0.12968 0.0
O10 O 0.05707 0.06181 0.09668 0.0
O11 O 1.00253 0.0512 0.11279 0.0
O12 O 0.10184 0.09485 0.16013 0.0
O13 O 0.05223 0.06781 0.15287 0.0
Co14 Co 0.42999 0.92989 0.12556 0.0
O15 O 0.40588 0.97264 0.1265 0.0
O16 O 0.37989 0.9251 0.11639 0.0
C17 C 0.45917 0.93427 0.16298 0.0
O18 O 0.44601 0.8808 0.12331 0.0
Co19 Co 0.51284 0.92657 0.12352 0.0
O20 O 0.50541 0.87795 0.12834 0.0
C21 C 0.47304 0.94846 0.07863 0.0
C22 C 0.3771 0.9572 0.11968 0.0
C23 C 0.47517 0.86395 0.12593 0.0
O24 O 0.44384 0.93827 0.0889 0.0
O25 O 0.50273 0.94919 0.09045 0.0
O26 O 0.42596 0.92531 0.16258 0.0
O27 O 0.47193 0.94367 0.14147 0.0
Co28 Co 0.58566 0.93629 0.3723 0.0
O29 O 0.61056 0.97845 0.36997 0.0
O30 O 0.63034 0.93468 0.39115 0.0
C31 C 0.57356 0.93232 0.33032 0.0
O32 O 0.56793 0.8882 0.37827 0.0
Co33 Co 0.50628 0.92907 0.35621 0.0
O34 O 0.51734 0.88069 0.35612 0.0
C35 C 0.52499 0.96209 0.40501 0.0
C36 C 0.63567 0.96514 0.38345 0.0
C37 C 0.54329 0.8693 0.36897 0.0
O38 O 0.55792 0.9533 0.40282 0.0
O39 O 0.50177 0.95681 0.38768 0.0
O40 O 0.60435 0.92315 0.33903 0.0
O41 O 0.55242 0.94553 0.3467 0.0
Co42 Co 0.93688 0.07144 0.37601 0.0
O43 O 0.90055 0.03738 0.37176 0.0
O44 O 0.8916 0.0866 0.38945 0.0
C45 C 0.96054 0.06884 0.33647 0.0
O46 O 0.96688 0.1137 0.38254 0.0
Co47 Co 0.01736 0.05349 0.3718 0.0
O48 O 0.02429 0.10232 0.37396 0.0
C49 C 0.97578 0.02995 0.41521 0.0
C50 C 0.87851 0.05797 0.38248 0.0
C51 C 0.99966 0.12277 0.37981 0.0
O52 O 0.95074 0.05098 0.41005 0.0
O53 O 1.00215 0.02465 0.40049 0.0
O54 O 0.93141 0.0856 0.34035 0.0
O55 O 0.9715 0.05163 0.35555 0.0
Co56 Co 0.92953 0.93998 0.87782 0.0
O57 O 0.89269 0.97396 0.87657 0.0
O58 O 0.88429 0.92234 0.88973 0.0
C59 C 0.95235 0.9494 0.83873 0.0
O60 O 0.96087 0.89765 0.88065 0.0
Co61 Co 0.00927 0.96099 0.87499 0.0
O62 O 0.0173 0.91233 0.87178 0.0
C63 C 0.96977 0.97146 0.92236 0.0
C64 C 0.87077 0.95168 0.8851 0.0
C65 C 0.99392 0.89022 0.87664 0.0
O66 O 0.94326 0.95457 0.9135 0.0
O67 O 0.99684 0.97934 0.90901 0.0
O68 O 0.92389 0.93136 0.84126 0.0
O69 O 0.96322 0.96374 0.85917 0.0
Co70 Co 0.57064 0.0603 0.86926 0.0
O71 O 0.59971 0.02056 0.86724 0.0
O72 O 0.6168 0.06718 0.8858 0.0
C73 C 0.55397 0.05881 0.82788 0.0
O74 O 0.54784 0.10685 0.87443 0.0
Co75 Co 0.48952 0.05643 0.85699 0.0
O76 O 0.49076 0.10538 0.86131 0.0
C77 C 0.51767 0.02773 0.90473 0.0
C78 C 0.62431 0.03659 0.87932 0.0
C79 C 0.51752 0.12106 0.8701 0.0
O80 O 0.54794 0.04252 0.90169 0.0
O81 O 0.4933 0.02773 0.8878 0.0
O82 O 0.58387 0.07276 0.83419 0.0
O83 O 0.53674 0.0452 0.84613 0.0
Co84 Co 0.42585 0.0779 0.61861 0.0
O85 O 0.39522 0.03865 0.61971 0.0
O86 O 0.37877 0.08849 0.60628 0.0
C87 C 0.44941 0.07205 0.65767 0.0
O88 O 0.44713 0.12478 0.61578 0.0
Co89 Co 0.50747 0.07596 0.62148 0.0
O90 O 0.5052 0.12528 0.62525 0.0
C91 C 0.47199 0.05492 0.57433 0.0
C92 C 0.37011 0.05766 0.61081 0.0
C93 C 0.47637 0.14053 0.62012 0.0
O94 O 0.44215 0.06563 0.58323 0.0
O95 O 0.50065 0.05446 0.58741 0.0
O96 O 0.41825 0.08554 0.65477 0.0
O97 O 0.46405 0.06011 0.63746 0.0
Co98 Co 0.07882 0.93412 0.62904 0.0
O99 O 0.10783 0.97367 0.62816 0.0
O100 O 0.12454 0.92501 0.6125 0.0
C101 C 0.06308 0.93835 0.67019 0.0
O102 O 0.05456 0.88808 0.62725 0.0
Co103 Co 0.99788 0.94552 0.63915 0.0
O104 O 0.99673 0.89607 0.63729 0.0
C105 C 0.02676 0.96028 0.5889 0.0
C106 C 0.13208 0.95625 0.61688 0.0
C107 C 0.02261 0.87718 0.63099 0.0
O108 O 0.05642 0.94678 0.59557 0.0
O109 O 1.00114 0.96566 0.60432 0.0
O110 O 0.09338 0.92523 0.66393 0.0
O111 O 0.04549 0.9518 0.65184 0.0
Co112 Co 0.58245 0.57074 0.13093 0.0
O113 O 0.61948 0.53705 0.13318 0.0
O114 O 0.62605 0.58616 0.11489 0.0
C115 C 0.56396 0.56902 0.17169 0.0
O116 O 0.55105 0.61243 0.12614 0.0
Co117 Co 0.50398 0.55021 0.13845 0.0
O118 O 0.49566 0.59913 0.13866 0.0
C119 C 0.53756 0.5358 0.08956 0.0
C120 C 0.64016 0.55766 0.12128 0.0
C121 C 0.51854 0.62046 0.13125 0.0
O122 O 0.56546 0.55135 0.09747 0.0
O123 O 0.51058 0.53038 0.10372 0.0
O124 O 0.59208 0.58582 0.16536 0.0
O125 O 0.55077 0.5503 0.15401 0.0
Co126 Co 0.93671 0.44575 0.13113 0.0
O127 O 0.90769 0.4856 0.13263 0.0
O128 O 0.89354 0.44047 0.11082 0.0
C129 C 0.94648 0.44205 0.17343 0.0
O130 O 0.96002 0.39952 0.12595 0.0
Co131 Co 0.01571 0.44907 0.14963 0.0
O132 O 0.01471 0.40037 0.14367 0.0
C133 C 0.99604 0.47739 0.09971 0.0
C134 C 0.88492 0.4704 0.11829 0.0
C135 C 0.98958 0.38519 0.1323 0.0
O136 O 0.9644 0.46503 0.10135 0.0
O137 O 0.01857 0.47619 0.11789 0.0
O138 O 0.91726 0.43062 0.16363 0.0
O139 O 0.96686 0.45787 0.15795 0.0
Co140 Co 0.07438 0.43526 0.38366 0.0
O141 O 0.09706 0.47864 0.38408 0.0
O142 O 0.12382 0.43153 0.39449 0.0
C143 C 0.04852 0.44045 0.34491 0.0
O144 O 0.06023 0.38557 0.38467 0.0
Co145 Co 0.9918 0.42785 0.38029 0.0
O146 O 1.00222 0.37996 0.37508 0.0
C147 C 0.02552 0.44642 0.42905 0.0
C148 C 0.12598 0.46367 0.39123 0.0
C149 C 0.0326 0.3674 0.37989 0.0
O150 O 0.05711 0.44213 0.41998 0.0
O151 O 0.99724 0.44446 0.41566 0.0
O152 O 0.08174 0.43192 0.34675 0.0
O153 O 0.03343 0.44838 0.36597 0.0
Co154 Co 0.42459 0.5761 0.37813 0.0
O155 O 0.38979 0.54031 0.37588 0.0
O156 O 0.37969 0.58964 0.39306 0.0
C157 C 0.44425 0.57335 0.33765 0.0
O158 O 0.45234 0.6197 0.38315 0.0
Co159 Co 0.50503 0.56364 0.37152 0.0
O160 O 0.50734 0.61301 0.36732 0.0
C161 C 0.47161 0.54707 0.42048 0.0
C162 C 0.36747 0.56036 0.3869 0.0
C163 C 0.48263 0.63148 0.37603 0.0
O164 O 0.44199 0.55896 0.41206 0.0
O165 O 0.49956 0.54463 0.40674 0.0
O166 O 0.41516 0.58923 0.34317 0.0
O167 O 0.45867 0.55693 0.35612 0.0
Co168 Co 0.43204 0.42729 0.87983 0.0
O169 O 0.40055 0.46592 0.87758 0.0
O170 O 0.38778 0.41917 0.89761 0.0
C171 C 0.44685 0.42593 0.83818 0.0
O172 O 0.45509 0.38121 0.88512 0.0
Co173 Co 0.51212 0.42845 0.86645 0.0
O174 O 0.50884 0.37899 0.86675 0.0
C175 C 0.4873 0.45791 0.91508 0.0
C176 C 0.37745 0.44862 0.89029 0.0
C177 C 0.48268 0.36474 0.87755 0.0
O178 O 0.45566 0.44616 0.91163 0.0
O179 O 0.5119 0.45549 0.8984 0.0
O180 O 0.41728 0.4127 0.84593 0.0
O181 O 0.46513 0.44135 0.85522 0.0
Co182 Co 0.08642 0.58091 0.88049 0.0
O183 O 0.11022 0.53809 0.87932 0.0
O184 O 0.13654 0.58527 0.88992 0.0
C185 C 0.05787 0.57675 0.84284 0.0
O186 O 0.07029 0.6301 0.88294 0.0
Co187 Co 1.00361 0.58409 0.88211 0.0
O188 O 0.01093 0.63267 0.87749 0.0
C189 C 0.04294 0.56235 0.92737 0.0
C190 C 0.13906 0.55318 0.88638 0.0
C191 C 0.04102 0.64682 0.88018 0.0
O192 O 0.07233 0.57193 0.91703 0.0
O193 O 0.01321 0.56236 0.91559 0.0
O194 O 0.091 0.58585 0.84353 0.0
O195 O 0.04474 0.56727 0.86423 0.0
Co196 Co 0.9265 0.57167 0.63433 0.0
O197 O 0.89943 0.53088 0.63775 0.0
O198 O 0.8804 0.57579 0.61758 0.0
C199 C 0.94333 0.57563 0.67525 0.0
O200 O 0.94653 0.61876 0.62781 0.0
Co201 Co 0.00773 0.57212 0.64347 0.0
O202 O 1.0021 0.62123 0.64346 0.0
C203 C 0.98001 0.54266 0.59649 0.0
C204 C 0.87429 0.54533 0.62498 0.0
C205 C 0.97476 0.63531 0.63403 0.0
O206 O 0.94877 0.55322 0.60244 0.0
O207 O 0.0072 0.54616 0.61083 0.0
O208 O 0.91219 0.58591 0.668 0.0
O209 O 0.96199 0.56042 0.65815 0.0
Co210 Co 0.57583 0.43706 0.62961 0.0
O211 O 0.6115 0.47181 0.63235 0.0
O212 O 0.61821 0.42528 0.61046 0.0
C213 C 0.56264 0.43406 0.67151 0.0
O214 O 0.54612 0.39468 0.62359 0.0
Co215 Co 0.49746 0.45091 0.64538 0.0
O216 O 0.49206 0.40206 0.6411 0.0
C217 C 0.52406 0.47655 0.59626 0.0
C218 C 0.63192 0.45321 0.61845 0.0
C219 C 0.51516 0.38377 0.63015 0.0
O220 O 0.55351 0.46023 0.5989 0.0
O221 O 0.50044 0.47809 0.61368 0.0
O222 O 0.59006 0.41837 0.6625 0.0
O223 O 0.54647 0.45337 0.65573 0.0
H224 H 0.30743 0.93669 0.12754 0.0
H225 H 0.37083 0.02062 0.10218 0.0
H226 H 0.31622 0.0536 0.09529 0.0
H227 H 0.23093 0.94971 0.08555 0.0
H228 H 0.19862 0.93912 0.10944 0.0
H229 H 0.24236 0.92077 0.11044 0.0
H230 H 0.25091 0.94259 0.15625 0.0
H231 H 0.20719 0.9609 0.15541 0.0
H232 H 0.24522 0.98649 0.16272 0.0
H233 H 0.25509 0.07793 0.09133 0.0
H234 H 0.19207 0.09415 0.09465 0.0
H235 H 0.16701 0.99651 0.1255 0.0
C236 C 0.30967 0.96185 0.12021 0.0
C237 C 0.34347 0.97596 0.1151 0.0
C238 C 0.34533 0.00925 0.10614 0.0
C239 C 0.3144 0.02815 0.10206 0.0
C240 C 0.28155 0.01372 0.1074 0.0
C241 C 0.27889 0.98149 0.11659 0.0
C242 C 0.24033 0.97305 0.12256 0.0
C243 C 0.2273 0.94393 0.10601 0.0
C244 C 0.23565 0.96531 0.15092 0.0
C245 C 0.22186 0.00556 0.11534 0.0
C246 C 0.24619 0.02843 0.10627 0.0
C247 C 0.23581 0.06023 0.09843 0.0
C248 C 0.19981 0.06919 0.10031 0.0
C249 C 0.17435 0.04671 0.1103 0.0
C250 C 0.18567 0.01429 0.11768 0.0
H251 H 0.70442 0.94118 0.38228 0.0
H252 H 0.64263 0.03129 0.39378 0.0
H253 H 0.69805 0.06411 0.39744 0.0
H254 H 0.78043 0.96268 0.4234 0.0
H255 H 0.81268 0.94524 0.40187 0.0
H256 H 0.76842 0.92819 0.40316 0.0
H257 H 0.76136 0.93792 0.35489 0.0
H258 H 0.80548 0.95516 0.35347 0.0
H259 H 0.76819 0.97918 0.34212 0.0
H260 H 0.76021 0.0876 0.39848 0.0
H261 H 0.82409 0.10062 0.39422 0.0
H262 H 0.8461 0.99621 0.37871 0.0
C263 C 0.70269 0.96768 0.38622 0.0
C264 C 0.66922 0.98364 0.3883 0.0
C265 C 0.66797 0.01854 0.39247 0.0
C266 C 0.69933 0.03737 0.39457 0.0
C267 C 0.73192 0.02109 0.39201 0.0
C268 C 0.73387 0.98705 0.38774 0.0
C269 C 0.77219 0.97625 0.38355 0.0
C270 C 0.78413 0.95163 0.40423 0.0
C271 C 0.77708 0.96125 0.35693 0.0
C272 C 0.79139 0.00949 0.38602 0.0
C273 C 0.76767 0.03493 0.39126 0.0
C274 C 0.779 0.06785 0.39438 0.0
C275 C 0.81541 0.07502 0.39195 0.0
C276 C 0.84023 0.04954 0.38606 0.0
C277 C 0.82786 0.01631 0.38314 0.0
H278 H 0.83641 0.01236 0.87991 0.0
H279 H 0.81741 0.90797 0.89723 0.0
H280 H 0.753 0.91942 0.90015 0.0
H281 H 0.76753 0.04631 0.92207 0.0
H282 H 0.7555 0.07931 0.90047 0.0
H283 H 0.8003 0.06335 0.9008 0.0
H284 H 0.796 0.05064 0.85277 0.0
H285 H 0.75124 0.06656 0.85228 0.0
H286 H 0.76028 0.02484 0.84117 0.0
H287 H 0.69033 0.94105 0.89769 0.0
H288 H 0.63394 0.97169 0.89193 0.0
H289 H 0.69249 0.06314 0.87849 0.0
C290 C 0.81875 0.99195 0.88458 0.0
C291 C 0.83215 0.95916 0.88836 0.0
C292 C 0.80798 0.93325 0.89433 0.0
C293 C 0.77127 0.93953 0.89602 0.0
C294 C 0.75895 0.97199 0.89196 0.0
C295 C 0.78196 0.99788 0.88658 0.0
C296 C 0.76161 0.03034 0.88253 0.0
C297 C 0.77185 0.05637 0.90267 0.0
C298 C 0.76764 0.04388 0.85559 0.0
C299 C 0.72351 0.01858 0.88608 0.0
C300 C 0.7227 0.98477 0.89144 0.0
C301 C 0.69071 0.9676 0.8939 0.0
C302 C 0.65877 0.98523 0.89057 0.0
C303 C 0.65874 0.01989 0.88517 0.0
C304 C 0.69165 0.03685 0.88324 0.0
H305 H 0.20158 0.93433 0.62358 0.0
H306 H 0.13829 0.01634 0.59453 0.0
H307 H 0.19273 0.04901 0.58691 0.0
H308 H 0.26154 0.98483 0.65759 0.0
H309 H 0.30057 0.95994 0.65155 0.0
H310 H 0.25737 0.94067 0.65161 0.0
H311 H 0.26822 0.91804 0.60629 0.0
H312 H 0.31162 0.93705 0.60616 0.0
H313 H 0.28029 0.9466 0.58133 0.0
H314 H 0.25256 0.07479 0.58552 0.0
H315 H 0.31473 0.0926 0.59067 0.0
H316 H 0.34129 0.99545 0.62199 0.0
C317 C 0.19946 0.95873 0.61486 0.0
C318 C 0.16574 0.9726 0.60913 0.0
C319 C 0.16384 0.00512 0.59872 0.0
C320 C 0.19464 0.02388 0.59433 0.0
C321 C 0.22739 0.01 0.6007 0.0
C322 C 0.23019 0.97818 0.61072 0.0
C323 C 0.26863 0.97059 0.61776 0.0
C324 C 0.27222 0.9636 0.64633 0.0
C325 C 0.28304 0.94133 0.60194 0.0
C326 C 0.28668 1.00325 0.61053 0.0
C327 C 0.2623 0.02541 0.60048 0.0
C328 C 0.27198 0.05755 0.59314 0.0
C329 C 0.30746 0.06748 0.5962 0.0
C330 C 0.3331 0.0455 0.60666 0.0
C331 C 0.32246 0.0128 0.61375 0.0
H332 H 0.81745 0.44527 0.12482 0.0
H333 H 0.87491 0.53293 0.09988 0.0
H334 H 0.81813 0.56349 0.09483 0.0
H335 H 0.7367 0.45646 0.08544 0.0
H336 H 0.70734 0.4432 0.11047 0.0
H337 H 0.75191 0.42684 0.10879 0.0
H338 H 0.76348 0.44661 0.1548 0.0
H339 H 0.71908 0.46323 0.15656 0.0
H340 H 0.75661 0.4899 0.16286 0.0
H341 H 0.75523 0.58568 0.09481 0.0
H342 H 0.69167 0.59854 0.10159 0.0
H343 H 0.67484 0.49777 0.12926 0.0
C344 C 0.81785 0.47055 0.11754 0.0
C345 C 0.85047 0.48654 0.11206 0.0
C346 C 0.85015 0.52011 0.10371 0.0
C347 C 0.81802 0.53765 0.10082 0.0
C348 C 0.78629 0.5215 0.10683 0.0
C349 C 0.78592 0.48873 0.11514 0.0
C350 C 0.74852 0.47831 0.12262 0.0
C351 C 0.73535 0.44949 0.10582 0.0
C352 C 0.74684 0.46897 0.15088 0.0
C353 C 0.72802 0.5103 0.11731 0.0
C354 C 0.75025 0.53478 0.10794 0.0
C355 C 0.73758 0.56663 0.10205 0.0
C356 C 0.70136 0.57373 0.10597 0.0
C357 C 0.6781 0.54927 0.11597 0.0
C358 C 0.6918 0.51707 0.12154 0.0
H359 H 0.33588 0.49844 0.38104 0.0
H360 H 0.31311 0.60097 0.40225 0.0
H361 H 0.2497 0.5867 0.40729 0.0
H362 H 0.25697 0.48412 0.34527 0.0
H363 H 0.25107 0.44165 0.35576 0.0
H364 H 0.29493 0.4595 0.35458 0.0
H365 H 0.30429 0.44523 0.40199 0.0
H366 H 0.26043 0.4273 0.40332 0.0
H367 H 0.27271 0.45999 0.42512 0.0
H368 H 0.18804 0.56248 0.40701 0.0
H369 H 0.13296 0.52923 0.40384 0.0
H370 H 0.19509 0.44129 0.38529 0.0
C371 C 0.31759 0.51783 0.38694 0.0
C372 C 0.32962 0.55092 0.39123 0.0
C373 C 0.30472 0.57548 0.39892 0.0
C374 C 0.26856 0.56761 0.40181 0.0
C375 C 0.25755 0.53491 0.39725 0.0
C376 C 0.28135 0.51028 0.39023 0.0
C377 C 0.26238 0.47714 0.38633 0.0
C378 C 0.26659 0.46489 0.35885 0.0
C379 C 0.27575 0.45086 0.40533 0.0
C380 C 0.22416 0.48708 0.3919 0.0
C381 C 0.22203 0.5206 0.39804 0.0
C382 C 0.18947 0.53612 0.40257 0.0
C383 C 0.15828 0.51703 0.40069 0.0
C384 C 0.15968 0.48259 0.39465 0.0
C385 C 0.1932 0.46741 0.39046 0.0
H386 H 0.2092 0.57332 0.87981 0.0
H387 H 0.14419 0.48899 0.90222 0.0
H388 H 0.19814 0.45486 0.90827 0.0
H389 H 0.27104 0.52489 0.84345 0.0
H390 H 0.30944 0.54936 0.85191 0.0
H391 H 0.26607 0.56842 0.85147 0.0
H392 H 0.27436 0.58721 0.89806 0.0
H393 H 0.31777 0.56815 0.89865 0.0
H394 H 0.28499 0.55658 0.92194 0.0
H395 H 0.25865 0.42929 0.91148 0.0
H396 H 0.32147 0.41237 0.90817 0.0
H397 H 0.34864 0.51139 0.88096 0.0
C398 C 0.20647 0.54782 0.88635 0.0
C399 C 0.1724 0.53393 0.89082 0.0
C400 C 0.16992 0.50022 0.89875 0.0
C401 C 0.20046 0.48064 0.90234 0.0
C402 C 0.23358 0.49484 0.89758 0.0
C403 C 0.23688 0.52754 0.88951 0.0
C404 C 0.27566 0.53572 0.88408 0.0
C405 C 0.28084 0.54515 0.85606 0.0
C406 C 0.28898 0.56357 0.90174 0.0
C407 C 0.29346 0.50251 0.89024 0.0
C408 C 0.26863 0.47951 0.89836 0.0
C409 C 0.27833 0.44711 0.90514 0.0
C410 C 0.31421 0.43774 0.90325 0.0
C411 C 0.3402 0.46044 0.89432 0.0
C412 C 0.32953 0.49341 0.88791 0.0
H413 H 0.66377 0.5148 0.62385 0.0
H414 H 0.68602 0.41188 0.6036 0.0
H415 H 0.75004 0.42513 0.60077 0.0
H416 H 0.7319 0.55183 0.58166 0.0
H417 H 0.74252 0.58458 0.60384 0.0
H418 H 0.69827 0.56743 0.60292 0.0
H419 H 0.70238 0.55376 0.65081 0.0
H420 H 0.74665 0.57069 0.65187 0.0
H421 H 0.73868 0.5285 0.66229 0.0
H422 H 0.81218 0.448 0.60514 0.0
H423 H 0.86746 0.48005 0.61212 0.0
H424 H 0.8055 0.56948 0.62601 0.0
C425 C 0.68207 0.49517 0.61843 0.0
C426 C 0.6698 0.46222 0.61394 0.0
C427 C 0.69465 0.43729 0.60696 0.0
C428 C 0.73113 0.44458 0.60539 0.0
C429 C 0.74242 0.47713 0.61036 0.0
C430 C 0.71857 0.50219 0.61629 0.0
C431 C 0.73776 0.53502 0.621 0.0
C432 C 0.72697 0.56127 0.60117 0.0
C433 C 0.73096 0.54773 0.6481 0.0
C434 C 0.7762 0.52432 0.61753 0.0
C435 C 0.77824 0.49074 0.61152 0.0
C436 C 0.81085 0.47443 0.60931 0.0
C437 C 0.84212 0.49281 0.61338 0.0
C438 C 0.84078 0.52731 0.61917 0.0
C439 C 0.80732 0.54332 0.62097 0.0
H440 H 0.93977 0.08495 0.28765 0.0
H441 H 0.0323 0.061 0.33334 0.0
H442 H 0.07074 0.06785 0.29638 0.0
H443 H 0.96829 0.03741 0.23439 0.0
H444 H 0.95088 0.06573 0.21089 0.0
H445 H 0.93044 0.06333 0.24168 0.0
H446 H 0.93923 0.12703 0.24757 0.0
H447 H 0.9599 0.12956 0.21681 0.0
H448 H 0.98307 0.14463 0.24444 0.0
H449 H 0.09991 0.07711 0.25484 0.0
H450 H 0.11669 0.07963 0.20954 0.0
H451 H 1.0057 0.0909 0.18905 0.0
C452 C 0.96817 0.08165 0.28986 0.0
C453 C 0.98299 0.07315 0.31364 0.0
C454 C 0.02016 0.06804 0.31561 0.0
C455 C 0.04241 0.07198 0.29464 0.0
C456 C 0.02714 0.08036 0.27153 0.0
C457 C 0.99084 0.08452 0.26879 0.0
C458 C 0.98122 0.09006 0.24116 0.0
C459 C 0.95624 0.06248 0.23147 0.0
C460 C 0.96489 0.1249 0.23727 0.0
C461 C 0.01767 0.08769 0.22895 0.0
C462 C 0.04385 0.08309 0.24696 0.0
C463 C 0.07968 0.08062 0.24049 0.0
C464 C 0.089 0.0822 0.2148 0.0
C465 C 0.06249 0.08527 0.19597 0.0
C466 C 0.02644 0.08834 0.20315 0.0
H467 H 0.43881 0.93339 0.21308 0.0
H468 H 0.53134 0.92822 0.16421 0.0
H469 H 0.57009 0.92296 0.2016 0.0
H470 H 0.47973 0.98507 0.25969 0.0
H471 H 0.4577 0.96582 0.28626 0.0
H472 H 0.43673 0.96599 0.25558 0.0
H473 H 0.43124 0.90152 0.25723 0.0
H474 H 0.45233 0.90117 0.28792 0.0
H475 H 0.47047 0.87653 0.26241 0.0
H476 H 0.5992 0.91872 0.24432 0.0
H477 H 0.61682 0.92151 0.28949 0.0
H478 H 0.50618 0.93364 0.31072 0.0
C479 C 0.46718 0.93075 0.2103 0.0
C480 C 0.48199 0.93081 0.18569 0.0
C481 C 0.51931 0.92804 0.18282 0.0
C482 C 0.5416 0.92491 0.20397 0.0
C483 C 0.52627 0.92506 0.22797 0.0
C484 C 0.48997 0.92831 0.2313 0.0
C485 C 0.48064 0.93029 0.25922 0.0
C486 C 0.46265 0.96379 0.26555 0.0
C487 C 0.45729 0.9006 0.26716 0.0
C488 C 0.51736 0.92794 0.27096 0.0
C489 C 0.54325 0.92433 0.25262 0.0
C490 C 0.57917 0.92159 0.25887 0.0
C491 C 0.58893 0.92311 0.28454 0.0
C492 C 0.56292 0.92791 0.30355 0.0
C493 C 0.52669 0.93006 0.29659 0.0
H494 H 0.99619 0.92997 0.69028 0.0
H495 H 0.10546 0.95255 0.70997 0.0
H496 H 0.08828 0.95892 0.75487 0.0
H497 H 0.95292 0.98451 0.73484 0.0
H498 H 0.91828 0.95537 0.74298 0.0
H499 H 0.93855 0.95377 0.71207 0.0
H500 H 0.95469 0.89155 0.71907 0.0
H501 H 0.93436 0.89293 0.74998 0.0
H502 H 0.97993 0.87971 0.74672 0.0
H503 H 0.05937 0.96623 0.79651 0.0
H504 H 0.02185 0.96707 0.83447 0.0
H505 H 0.93165 0.93353 0.78986 0.0
C506 C 0.01631 0.93638 0.70414 0.0
C507 C 0.05206 0.94117 0.69684 0.0
C508 C 0.07796 0.94886 0.71534 0.0
C509 C 0.06844 0.95263 0.74081 0.0
C510 C 0.03303 0.94783 0.7475 0.0
C511 C 0.00742 0.93923 0.72989 0.0
C512 C 0.97171 0.93368 0.74263 0.0
C513 C 0.94371 0.95831 0.73253 0.0
C514 C 0.95946 0.89731 0.73941 0.0
C515 C 0.98124 0.94118 0.77003 0.0
C516 C 0.01669 0.94968 0.7722 0.0
C517 C 0.03169 0.95912 0.79518 0.0
C518 C 0.01005 0.95953 0.81669 0.0
C519 C 0.9739 0.94986 0.81528 0.0
C520 C 0.95931 0.9406 0.79157 0.0
H521 H 0.48571 0.1143 0.68968 0.0
H522 H 0.44671 0.01306 0.68169 0.0
H523 H 0.47198 0.99856 0.72356 0.0
H524 H 0.56915 0.09161 0.72067 0.0
H525 H 0.56929 0.1272 0.7416 0.0
H526 H 0.54816 0.13005 0.711 0.0
H527 H 0.48938 0.14838 0.73238 0.0
H528 H 0.51037 0.14577 0.76302 0.0
H529 H 0.47026 0.12258 0.75683 0.0
H530 H 0.49822 0.9955 0.76622 0.0
H531 H 0.52572 1.00322 0.80815 0.0
H532 H 0.55187 0.10563 0.78901 0.0
C533 C 0.48254 0.08919 0.69695 0.0
C534 C 0.46413 0.06469 0.68284 0.0
C535 C 0.46063 0.032 0.69249 0.0
C536 C 0.47494 0.02359 0.71614 0.0
C537 C 0.49307 0.04812 0.72968 0.0
C538 C 0.49716 0.08023 0.72053 0.0
C539 C 0.51806 0.10157 0.73916 0.0
C540 C 0.55326 0.1133 0.7274 0.0
C541 C 0.49567 0.13133 0.7484 0.0
C542 C 0.52449 0.07654 0.76035 0.0
C543 C 0.50971 0.04594 0.7543 0.0
C544 C 0.51028 0.01917 0.77107 0.0
C545 C 0.52593 0.02382 0.79483 0.0
C546 C 0.54126 0.05482 0.8016 0.0
C547 C 0.54102 0.08147 0.78402 0.0
H548 H 0.53272 0.52379 0.20425 0.0
H549 H 0.55449 0.6292 0.19393 0.0
H550 H 0.52531 0.64168 0.23481 0.0
H551 H 0.44741 0.53218 0.23594 0.0
H552 H 0.45563 0.49865 0.25798 0.0
H553 H 0.47617 0.49806 0.22713 0.0
H554 H 0.53814 0.49278 0.24816 0.0
H555 H 0.5178 0.49344 0.27907 0.0
H556 H 0.55182 0.52337 0.27127 0.0
H557 H 0.49216 0.64311 0.27597 0.0
H558 H 0.46182 0.63281 0.31684 0.0
H559 H 0.46698 0.52615 0.30341 0.0
C560 C 0.53098 0.54947 0.21059 0.0
C561 C 0.54554 0.57563 0.19593 0.0
C562 C 0.54347 0.60886 0.20494 0.0
C563 C 0.52687 0.61619 0.22808 0.0
C564 C 0.51305 0.58991 0.24228 0.0
C565 C 0.51531 0.55715 0.2341 0.0
C566 C 0.50003 0.53351 0.2538 0.0
C567 C 0.4679 0.51448 0.24307 0.0
C568 C 0.52866 0.50935 0.26366 0.0
C569 C 0.48876 0.55811 0.27422 0.0
C570 C 0.49602 0.59056 0.26693 0.0
C571 C 0.48666 0.6178 0.282 0.0
C572 C 0.46943 0.61176 0.30512 0.0
C573 C 0.46253 0.57877 0.31325 0.0
C574 C 0.47251 0.55159 0.29769 0.0
H575 H 0.07301 0.44241 0.29563 0.0
H576 H 0.97685 0.43287 0.34042 0.0
H577 H 0.94138 0.42845 0.30152 0.0
H578 H 0.03395 0.49536 0.24875 0.0
H579 H 0.05842 0.4779 0.22253 0.0
H580 H 0.07718 0.47713 0.25394 0.0
H581 H 0.08479 0.41295 0.25081 0.0
H582 H 0.06597 0.41353 0.21938 0.0
H583 H 0.0468 0.38729 0.24351 0.0
H584 H 0.9158 0.42506 0.25804 0.0
H585 H 0.90122 0.42887 0.21242 0.0
H586 H 0.01258 0.4454 0.19531 0.0
C587 C 0.04455 0.43897 0.29717 0.0
C588 C 0.02783 0.43747 0.32113 0.0
C589 C 0.99043 0.43378 0.32239 0.0
C590 C 0.96994 0.43114 0.30034 0.0
C591 C 0.9871 0.43281 0.27705 0.0
C592 C 0.02347 0.43708 0.27522 0.0
C593 C 0.03472 0.4406 0.24773 0.0
C594 C 0.05208 0.47479 0.24297 0.0
C595 C 0.05954 0.41188 0.2399 0.0
C596 C 0.99897 0.43792 0.23456 0.0
C597 C 0.97198 0.43279 0.25183 0.0
C598 C 0.93668 0.42916 0.24429 0.0
C599 C 0.92865 0.43128 0.21838 0.0
C600 C 0.95571 0.43759 0.20042 0.0
C601 C 0.99132 0.44076 0.20866 0.0
H602 H 0.54582 0.47681 0.70994 0.0
H603 H 0.54311 0.37252 0.68827 0.0
H604 H 0.51124 0.35889 0.72813 0.0
H605 H 0.56328 0.46059 0.77695 0.0
H606 H 0.53729 0.49577 0.78751 0.0
H607 H 0.55894 0.49699 0.75708 0.0
H608 H 0.49849 0.50967 0.73556 0.0
H609 H 0.4766 0.50814 0.76589 0.0
H610 H 0.46165 0.48164 0.7404 0.0
H611 H 0.47538 0.35789 0.76913 0.0
H612 H 0.44697 0.3679 0.81092 0.0
H613 H 0.47944 0.47157 0.80786 0.0
C614 C 0.53871 0.45111 0.71378 0.0
C615 C 0.54676 0.42563 0.69623 0.0
C616 C 0.53732 0.39224 0.70173 0.0
C617 C 0.51905 0.38437 0.72418 0.0
C618 C 0.5112 0.41011 0.74113 0.0
C619 C 0.5215 0.44269 0.73646 0.0
C620 C 0.51143 0.46546 0.75827 0.0
C621 C 0.54472 0.48058 0.77069 0.0
C622 C 0.4855 0.49284 0.7495 0.0
C623 C 0.49334 0.44077 0.77578 0.0
C624 C 0.49288 0.40907 0.76538 0.0
C625 C 0.47601 0.38251 0.77757 0.0
C626 C 0.45976 0.38842 0.80116 0.0
C627 C 0.46123 0.42041 0.81249 0.0
C628 C 0.47824 0.44682 0.79961 0.0
H629 H 0.07895 0.57364 0.79285 0.0
H630 H 0.98628 0.58553 0.84094 0.0
H631 H 0.94813 0.58961 0.80321 0.0
H632 H 0.05004 0.6282 0.74119 0.0
H633 H 0.06715 0.60132 0.71664 0.0
H634 H 0.0881 0.60204 0.74737 0.0
H635 H 0.07973 0.53804 0.75126 0.0
H636 H 0.05878 0.53713 0.72055 0.0
H637 H 0.03592 0.52044 0.74776 0.0
H638 H 0.91979 0.59245 0.76088 0.0
H639 H 0.90181 0.58878 0.71606 0.0
H640 H 0.01143 0.57058 0.69446 0.0
C641 C 0.05068 0.57749 0.79534 0.0
C642 C 0.03561 0.57966 0.81984 0.0
C643 C 0.99845 0.58395 0.82242 0.0
C644 C 0.97653 0.58641 0.80107 0.0
C645 C 0.99205 0.58399 0.77721 0.0
C646 C 0.02817 0.57923 0.77412 0.0
C647 C 0.03746 0.57516 0.74626 0.0
C648 C 0.06215 0.60336 0.73735 0.0
C649 C 0.05394 0.54064 0.74117 0.0
C650 C 1.00089 0.57821 0.73431 0.0
C651 C 0.97526 0.58385 0.75256 0.0
C652 C 0.93956 0.58794 0.74639 0.0
C653 C 0.92963 0.58587 0.72086 0.0
C654 C 0.95518 0.57923 0.70182 0.0
C655 C 0.99132 0.57547 0.70866 0.0
H656 H 0.97777 0.18632 0.14098 0.0
H657 H 0.0833 0.18396 0.10766 0.0
H658 H 0.08033 0.24489 0.10105 0.0
H659 H 0.94136 0.25187 0.09936 0.0
H660 H 0.91566 0.27066 0.12443 0.0
H661 H 0.92476 0.22646 0.12495 0.0
H662 H 0.95249 0.23217 0.16969 0.0
H663 H 0.94336 0.27629 0.16936 0.0
H664 H 0.98803 0.26161 0.17473 0.0
H665 H 0.06819 0.3061 0.10097 0.0
H666 H 0.0483 0.364 0.10812 0.0
H667 H 0.94985 0.32784 0.14065 0.0
C668 C 1.00017 0.19848 0.13203 0.0
C669 C 0.03082 0.18008 0.12479 0.0
C670 C 0.05951 0.19725 0.11331 0.0
C671 C 0.05802 0.23192 0.10941 0.0
C672 C 0.02756 0.24919 0.11688 0.0
C673 C 0.99908 0.2331 0.1279 0.0
C674 C 0.97016 0.25785 0.13523 0.0
C675 C 0.93595 0.25131 0.12009 0.0
C676 C 0.96312 0.25692 0.16396 0.0
C677 C 0.98727 0.29055 0.1273 0.0
C678 C 0.02025 0.28478 0.11652 0.0
C679 C 0.04224 0.31087 0.10903 0.0
C680 C 0.03068 0.34367 0.11315 0.0
C681 C 0.99735 0.35037 0.12456 0.0
C682 C 0.97501 0.32342 0.13128 0.0
H683 H 0.53179 0.82048 0.12951 0.0
H684 H 0.41685 0.82267 0.1218 0.0
H685 H 0.41608 0.76094 0.1212 0.0
H686 H 0.54737 0.75008 0.08841 0.0
H687 H 0.58283 0.73329 0.10756 0.0
H688 H 0.57448 0.7776 0.10732 0.0
H689 H 0.56786 0.77722 0.15619 0.0
H690 H 0.57631 0.73295 0.15661 0.0
H691 H 0.53632 0.74932 0.17074 0.0
H692 H 0.42768 0.69912 0.12226 0.0
H693 H 0.45026 0.64157 0.12492 0.0
H694 H 0.55815 0.67903 0.13124 0.0
C695 C 0.50634 0.80812 0.12767 0.0
C696 C 0.47429 0.8267 0.12569 0.0
C697 C 0.44174 0.80922 0.12334 0.0
C698 C 0.44106 0.77411 0.12295 0.0
C699 C 0.47313 0.75673 0.12488 0.0
C700 C 0.50518 0.77313 0.12719 0.0
C701 C 0.53586 0.74853 0.12915 0.0
C702 C 0.56165 0.75263 0.10677 0.0
C703 C 0.55522 0.75223 0.15469 0.0
C704 C 0.51607 0.71561 0.12762 0.0
C705 C 0.4799 0.72101 0.12521 0.0
C706 C 0.45593 0.69464 0.12407 0.0
C707 C 0.46912 0.66196 0.12565 0.0
C708 C 0.50608 0.65558 0.12825 0.0
C709 C 0.52984 0.68294 0.12899 0.0
H710 H 0.50906 0.67593 0.3414 0.0
H711 H 0.47412 0.66756 0.41938 0.0
H712 H 0.49192 0.72629 0.42713 0.0
H713 H 0.58383 0.73072 0.35121 0.0
H714 H 0.57555 0.75537 0.32323 0.0
H715 H 0.5622 0.71218 0.32414 0.0
H716 H 0.49743 0.72894 0.31333 0.0
H717 H 0.51072 0.77208 0.31195 0.0
H718 H 0.47506 0.75958 0.33266 0.0
H719 H 0.51597 0.78553 0.42663 0.0
H720 H 0.53308 0.84364 0.41601 0.0
H721 H 0.54614 0.81527 0.33733 0.0
C722 C 0.50518 0.68659 0.36007 0.0
C723 C 0.49048 0.66731 0.3799 0.0
C724 C 0.48526 0.68206 0.40399 0.0
C725 C 0.49559 0.71525 0.40858 0.0
C726 C 0.51044 0.73356 0.38873 0.0
C727 C 0.51435 0.72001 0.36477 0.0
C728 C 0.52823 0.74582 0.34621 0.0
C729 C 0.56461 0.73539 0.33557 0.0
C730 C 0.50124 0.75197 0.32478 0.0
C731 C 0.53155 0.77602 0.36343 0.0
C732 C 0.52204 0.76819 0.38804 0.0
C733 C 0.52337 0.79193 0.40741 0.0
C734 C 0.53347 0.82476 0.4013 0.0
C735 C 0.54141 0.83365 0.37599 0.0
C736 C 0.54076 0.80888 0.35691 0.0
H737 H 0.97838 0.32181 0.37485 0.0
H738 H 0.0922 0.32856 0.38769 0.0
H739 H 0.09533 0.26698 0.39057 0.0
H740 H 0.96204 0.25375 0.41784 0.0
H741 H 0.92892 0.23455 0.39792 0.0
H742 H 0.93554 0.27908 0.39682 0.0
H743 H 0.94633 0.27585 0.34838 0.0
H744 H 0.93954 0.23137 0.34929 0.0
H745 H 0.98004 0.24811 0.33625 0.0
H746 H 0.08612 0.20482 0.39153 0.0
H747 H 0.06609 0.14646 0.38968 0.0
H748 H 0.95771 0.17978 0.3768 0.0
C749 C 1.00409 0.31049 0.37822 0.0
C750 C 0.03514 0.33027 0.38101 0.0
C751 C 0.06807 0.31414 0.38547 0.0
C752 C 0.07008 0.27914 0.38718 0.0
C753 C 0.03891 0.26057 0.38451 0.0
C754 C 0.00654 0.27568 0.38009 0.0
C755 C 0.97702 0.24999 0.37776 0.0
C756 C 0.94924 0.25463 0.39884 0.0
C757 C 0.95972 0.25142 0.35135 0.0
C758 C 0.99787 0.21792 0.3814 0.0
C759 C 0.03351 0.22469 0.3853 0.0
C760 C 0.05829 0.19928 0.38856 0.0
C761 C 0.04655 0.16612 0.38745 0.0
C762 C 0.01022 0.15834 0.38314 0.0
C763 C 0.98552 0.18478 0.38041 0.0
H764 H 0.9836 0.68955 0.87863 0.0
H765 H 0.09894 0.68894 0.88235 0.0
H766 H 0.09875 0.75071 0.88249 0.0
H767 H 0.97474 0.76 0.83721 0.0
H768 H 0.93566 0.77612 0.85275 0.0
H769 H 0.94477 0.73196 0.85321 0.0
H770 H 0.94197 0.73221 0.90227 0.0
H771 H 0.93287 0.7764 0.90197 0.0
H772 H 0.97003 0.76042 0.91984 0.0
H773 H 0.08611 0.81222 0.88146 0.0
H774 H 0.06277 0.86934 0.87976 0.0
H775 H 0.95489 0.83083 0.87725 0.0
C776 C 0.00895 0.70226 0.87949 0.0
C777 C 0.04141 0.68411 0.88045 0.0
C778 C 0.07377 0.70205 0.88162 0.0
C779 C 0.0739 0.73718 0.8817 0.0
C780 C 0.04145 0.75412 0.88071 0.0
C781 C 0.00955 0.73727 0.87969 0.0
C782 C 0.97837 0.76147 0.8787 0.0
C783 C 0.95714 0.75712 0.854 0.0
C784 C 0.9544 0.75737 0.90209 0.0
C785 C 0.99771 0.79471 0.8792 0.0
C786 C 0.03408 0.78974 0.88034 0.0
C787 C 0.05771 0.81636 0.8806 0.0
C788 C 0.044 0.84886 0.87956 0.0
C789 C 0.00679 0.85494 0.87832 0.0
C790 C 0.98338 0.82726 0.8783 0.0
H791 H 0.53548 0.3205 0.8629 0.0
H792 H 0.43299 0.32491 0.90065 0.0
H793 H 0.43402 0.26374 0.90572 0.0
H794 H 0.51921 0.24646 0.82807 0.0
H795 H 0.56363 0.23006 0.83119 0.0
H796 H 0.55628 0.27448 0.832 0.0
H797 H 0.58801 0.27783 0.8755 0.0
H798 H 0.59539 0.23335 0.87487 0.0
H799 H 0.57266 0.25217 0.90134 0.0
H800 H 0.44373 0.20236 0.90428 0.0
H801 H 0.46102 0.14405 0.89602 0.0
H802 H 0.55808 0.17771 0.85991 0.0
C803 C 0.51339 0.3087 0.8725 0.0
C804 C 0.48414 0.32783 0.88146 0.0
C805 C 0.45573 0.31111 0.89368 0.0
C806 C 0.45612 0.27628 0.8967 0.0
C807 C 0.48517 0.2583 0.88756 0.0
C808 C 0.51335 0.27385 0.87574 0.0
C809 C 0.5406 0.24832 0.86673 0.0
C810 C 0.54518 0.24993 0.83778 0.0
C811 C 0.57628 0.25322 0.88043 0.0
C812 C 0.52291 0.21593 0.87483 0.0
C813 C 0.49105 0.22249 0.88698 0.0
C814 C 0.46877 0.19695 0.89508 0.0
C815 C 0.47884 0.16389 0.89027 0.0
C816 C 0.51104 0.15631 0.87757 0.0
C817 C 0.53372 0.18273 0.87014 0.0
H818 H 0.53303 0.18395 0.62659 0.0
H819 H 0.41961 0.1817 0.61112 0.0
H820 H 0.41865 0.24311 0.60975 0.0
H821 H 0.53159 0.25537 0.66726 0.0
H822 H 0.57297 0.27233 0.65591 0.0
H823 H 0.56537 0.22796 0.6548 0.0
H824 H 0.57831 0.22798 0.60658 0.0
H825 H 0.58585 0.2724 0.60753 0.0
H826 H 0.55333 0.2553 0.58605 0.0
H827 H 0.4287 0.30426 0.61205 0.0
H828 H 0.44926 0.36211 0.61777 0.0
H829 H 0.55671 0.32645 0.63064 0.0
C830 C 0.50801 0.19633 0.62277 0.0
C831 C 0.47636 0.17772 0.61892 0.0
C832 C 0.44423 0.19512 0.61408 0.0
C833 C 0.4434 0.2301 0.61322 0.0
C834 C 0.47492 0.24756 0.61712 0.0
C835 C 0.50668 0.23139 0.62174 0.0
C836 C 0.53654 0.25641 0.62584 0.0
C837 C 0.55255 0.25279 0.65254 0.0
C838 C 0.5652 0.2528 0.60527 0.0
C839 C 0.51644 0.28915 0.62307 0.0
C840 C 0.48093 0.28327 0.61802 0.0
C841 C 0.45649 0.3092 0.61578 0.0
C842 C 0.46845 0.34199 0.61911 0.0
C843 C 0.50463 0.34885 0.62446 0.0
C844 C 0.52905 0.32202 0.6261 0.0
H845 H 0.05879 0.81932 0.64488 0.0
H846 H 0.96436 0.85535 0.60637 0.0
H847 H 0.94299 0.79763 0.60142 0.0
H848 H 0.06892 0.74124 0.60789 0.0
H849 H 0.0825 0.71721 0.63513 0.0
H850 H 0.09224 0.76122 0.63362 0.0
H851 H 0.06024 0.76996 0.67659 0.0
H852 H 0.05014 0.72607 0.6781 0.0
H853 H 0.01484 0.75641 0.68011 0.0
H854 H 0.92935 0.73657 0.60307 0.0
H855 H 0.92564 0.67568 0.61025 0.0
H856 H 0.02812 0.67852 0.64819 0.0
C857 C 0.03408 0.81487 0.63491 0.0
C858 C 0.01332 0.84181 0.62589 0.0
C859 C 0.98067 0.83507 0.61346 0.0
C860 C 0.96828 0.80236 0.61051 0.0
C861 C 0.98872 0.77637 0.62017 0.0
C862 C 0.02099 0.78211 0.63203 0.0
C863 C 0.03658 0.74962 0.64187 0.0
C864 C 0.07217 0.74187 0.62884 0.0
C865 C 0.04068 0.75059 0.67089 0.0
C866 C 0.00792 0.72504 0.63387 0.0
C867 C 0.98061 0.74099 0.62131 0.0
C868 C 0.95073 0.7237 0.61272 0.0
C869 C 0.94878 0.68909 0.61696 0.0
C870 C 0.97653 0.67206 0.62971 0.0
C871 C 0.00644 0.69055 0.63822 0.0
H872 H 0.01895 0.01096 0.94633 0.0
H873 H 0.92352 0.95282 0.96033 0.0
H874 H 0.9288 0.96515 0.00614 0.0
H875 H 0.0667 0.98546 1.00132 0.0
H876 H 0.08653 0.02578 0.0068 0.0
H877 H 0.07481 0.01325 0.97507 0.0
H878 H 0.03605 0.06633 0.9699 0.0
H879 H 0.04796 0.07923 1.00149 0.0
H880 H 1.00182 0.07514 0.99285 0.0
H881 H 0.94541 0.98263 0.0503 0.0
H882 H 0.96943 0.00673 0.08958 0.0
H883 H 0.05451 0.05352 0.04682 0.0
C884 C 0.99893 1.00087 0.95892 0.0
C885 C 0.97076 0.98079 0.94962 0.0
C886 C 0.94523 0.96831 0.96689 0.0
C887 C 0.94813 0.97506 0.99296 0.0
C888 C 0.97663 0.99439 1.00142 0.0
C889 C 1.00141 0.00734 0.98489 0.0
C890 C 0.02945 0.0275 0.99878 0.0
C891 C 0.06657 0.01206 0.99528 0.0
C892 C 0.02876 0.06423 0.99025 0.0
C893 C 0.01667 0.02381 0.02585 0.0
C894 C 0.98621 0.00454 0.02689 0.0
C895 C 0.96916 0.99782 0.04968 0.0
C896 C 0.98312 0.01169 0.07192 0.0
C897 C 0.01391 0.03217 0.07137 0.0
C898 C 0.03116 0.03782 0.04797 0.0
H899 H 0.55048 0.03265 0.95208 0.0
H900 H 0.46374 0.98378 0.91222 0.0
H901 H 0.44289 0.95954 0.95208 0.0
H902 H 0.5668 0.96382 0.99674 0.0
H903 H 0.57647 0.99132 0.02291 0.0
H904 H 0.58572 0.00444 0.99092 0.0
H905 H 0.54718 0.05729 0.99788 0.0
H906 H 0.53746 0.04411 0.02978 0.0
H907 H 0.50169 0.05278 0.008 0.0
H908 H 0.42816 0.94341 0.99614 0.0
H909 H 0.42501 0.93098 0.04194 0.0
H910 H 0.52194 0.98764 0.05394 0.0
C911 C 0.52745 0.01647 0.95171 0.0
C912 C 0.50868 0.01054 0.92889 0.0
C913 C 0.4785 0.98922 0.92936 0.0
C914 C 0.4663 0.97521 0.95197 0.0
C915 C 0.48461 0.98232 0.97415 0.0
C916 C 0.51483 1.00197 0.97429 0.0
C917 C 0.52929 0.00539 1.00104 0.0
C918 C 0.56679 0.99033 0.00301 0.0
C919 C 0.52887 0.04207 0.00968 0.0
C920 C 0.50235 0.98476 0.01567 0.0
C921 C 0.47663 0.97199 0.99977 0.0
C922 C 0.44833 0.95298 0.00884 0.0
C923 C 0.44661 0.94622 0.0349 0.0
C924 C 0.47327 0.95812 0.05152 0.0
C925 C 0.5013 0.97789 0.04169 0.0
H926 H 0.52883 0.02621 0.5494 0.0
H927 H 0.41884 0.05639 0.53869 0.0
H928 H 0.42159 0.03709 0.49435 0.0
H929 H 0.56021 0.04996 0.48732 0.0
H930 H 0.58968 0.01468 0.4842 0.0
H931 H 0.57952 0.03113 0.51516 0.0
H932 H 0.55807 0.97275 0.52962 0.0
H933 H 0.56825 0.95608 0.49875 0.0
H934 H 0.52416 0.95155 0.51162 0.0
H935 H 0.43576 0.01484 0.45161 0.0
H936 H 0.45947 0.98938 0.41293 0.0
H937 H 0.56075 0.97258 0.45062 0.0
C938 C 0.50528 0.02887 0.53776 0.0
C939 C 0.47357 0.04298 0.54765 0.0
C940 C 0.44342 0.04574 0.53169 0.0
C941 C 0.44473 0.03489 0.50642 0.0
C942 C 0.47636 0.02125 0.49735 0.0
C943 C 0.50607 0.01806 0.51249 0.0
C944 C 0.53654 1.00197 0.49802 0.0
C945 C 0.56837 0.02587 0.49606 0.0
C946 C 0.54738 0.9686 0.51023 0.0
C947 C 0.51923 0.99657 0.47235 0.0
C948 C 0.48455 0.00802 0.47249 0.0
C949 C 0.46285 0.00574 0.45126 0.0
C950 C 0.47672 0.99112 0.42932 0.0
C951 C 0.51212 0.97873 0.42855 0.0
C952 C 0.53369 0.9818 0.45044 0.0
H953 H 0.98888 0.01111 0.56589 0.0
H954 H 0.04967 0.9212 0.55043 0.0
H955 H 0.03562 0.92629 0.50499 0.0
H956 H 0.9201 0.99963 0.51787 0.0
H957 H 0.91871 0.04304 0.50889 0.0
H958 H 0.93083 0.03148 0.54078 0.0
H959 H 0.98997 0.06407 0.53661 0.0
H960 H 0.97773 0.07616 0.50491 0.0
H961 H 0.01931 0.05499 0.51048 0.0
H962 H 0.01549 0.94001 0.46209 0.0
H963 H 0.99993 0.96729 0.42193 0.0
H964 H 0.95518 0.05123 0.46314 0.0
C965 C 0.99909 0.99254 0.55285 0.0
C966 C 0.02024 0.96565 0.56161 0.0
C967 C 0.03363 0.94207 0.54407 0.0
C968 C 0.02544 0.94453 0.51828 0.0
C969 C 1.00423 0.971 0.51025 0.0
C970 C 0.99188 0.99509 0.52679 0.0
C971 C 0.97242 0.02261 0.51254 0.0
C972 C 0.93318 0.02428 0.5205 0.0
C973 C 0.99097 0.05646 0.51636 0.0
C974 C 0.97618 0.01028 0.48542 0.0
C975 C 0.9939 0.98001 0.48482 0.0
C976 C 1.00166 0.96371 0.46225 0.0
C977 C 0.99263 0.97942 0.43954 0.0
C978 C 0.97643 0.01139 0.43942 0.0
C979 C 0.967 0.02658 0.46269 0.0
H980 H 0.48543 0.49884 0.06493 0.0
H981 H 0.5854 0.55046 0.05217 0.0
H982 H 0.58119 0.53784 0.00666 0.0
H983 H 0.50123 0.43254 0.01909 0.0
H984 H 0.45556 0.43048 0.00889 0.0
H985 H 0.46603 0.44351 0.04072 0.0
H986 H 0.43072 0.49825 0.03363 0.0
H987 H 0.42043 0.48553 1.00169 0.0
H988 H 0.44208 0.52497 0.00736 0.0
H989 H 0.56622 0.52161 0.96286 0.0
H990 H 0.54421 0.49827 0.92294 0.0
H991 H 0.45397 0.45507 0.96249 0.0
C992 C 0.50655 0.50736 0.0526 0.0
C993 C 0.53578 0.52579 0.06234 0.0
C994 C 0.56279 0.53631 0.04541 0.0
C995 C 0.56057 0.52939 0.01942 0.0
C996 C 0.53129 0.5117 0.01047 0.0
C997 C 0.50491 0.50043 0.02647 0.0
C998 C 0.47672 0.48128 0.01168 0.0
C999 C 0.47478 0.44479 0.02063 0.0
C1000 C 0.44033 0.49855 0.01372 0.0
C1001 C 0.49146 0.48367 0.98488 0.0
C1002 C 0.52285 0.50158 0.98482 0.0
C1003 C 0.5418 0.50736 0.96268 0.0
C1004 C 0.52895 0.49388 0.94002 0.0
C1005 C 0.49736 0.47451 0.93939 0.0
C1006 C 0.47805 0.46983 0.96221 0.0
H1007 H 0.9581 0.48936 0.05533 0.0
H1008 H 0.06306 0.49932 0.089 0.0
H1009 H 0.08593 0.52197 0.04909 0.0
H1010 H 0.98757 0.46444 0.99354 0.0
H1011 H 0.95417 0.48794 0.97671 0.0
H1012 H 0.94524 0.47286 0.00823 0.0
H1013 H 0.93044 0.53305 0.02289 0.0
H1014 H 0.93921 0.54828 0.99137 0.0
H1015 H 0.96254 0.56582 0.01809 0.0
H1016 H 0.09867 0.54213 0.00532 0.0
H1017 H 0.09927 0.56045 0.96062 0.0
H1018 H 0.98641 0.53858 0.95509 0.0
C1019 C 0.98582 0.49644 0.05436 0.0
C1020 C 0.00859 0.49244 0.07551 0.0
C1021 C 0.0448 0.50211 0.07327 0.0
C1022 C 0.05823 0.51501 0.05059 0.0
C1023 C 0.03526 0.5184 0.03014 0.0
C1024 C 0.99979 0.50964 0.03177 0.0
C1025 C 0.98097 0.516 0.00679 0.0
C1026 C 0.96612 0.48336 0.99566 0.0
C1027 C 0.95155 0.54236 0.00998 0.0
C1028 C 0.01152 0.52933 0.99097 0.0
C1029 C 0.04259 0.53049 0.00482 0.0
C1030 C 0.07445 0.54153 0.99426 0.0
C1031 C 0.07454 0.55186 0.96883 0.0
C1032 C 0.04295 0.55115 0.95423 0.0
C1033 C 0.01109 0.53962 0.96562 0.0
H1034 H 0.03475 0.54449 0.56159 0.0
H1035 H 0.93361 0.49731 0.57809 0.0
H1036 H 0.93924 0.46306 0.53948 0.0
H1037 H 0.01911 0.55099 0.49481 0.0
H1038 H 0.0646 0.54351 0.48574 0.0
H1039 H 0.05478 0.56205 0.51604 0.0
H1040 H 0.09055 0.51521 0.53834 0.0
H1041 H 0.10016 0.49633 0.50807 0.0
H1042 H 0.07909 0.47215 0.53264 0.0
H1043 H 0.95423 0.43499 0.49977 0.0
H1044 H 0.97319 0.41953 0.45686 0.0
H1045 H 0.06343 0.48656 0.4628 0.0
C1046 C 0.01406 0.52667 0.55709 0.0
C1047 C 0.98384 0.52325 0.57286 0.0
C1048 C 0.95688 0.50028 0.56621 0.0
C1049 C 0.96001 0.48053 0.54446 0.0
C1050 C 0.99004 0.48437 0.52933 0.0
C1051 C 0.01634 0.50722 0.53496 0.0
C1052 C 0.04403 0.50833 0.51394 0.0
C1053 C 0.04571 0.54329 0.50192 0.0
C1054 C 0.08063 0.49735 0.52385 0.0
C1055 C 0.02885 0.48279 0.49556 0.0
C1056 C 0.99807 0.46894 0.50528 0.0
C1057 C 0.97825 0.44561 0.49192 0.0
C1058 C 0.98928 0.43703 0.46754 0.0
C1059 C 0.0197 0.45191 0.45647 0.0
C1060 C 0.04039 0.47445 0.47093 0.0
H1061 H 0.55567 0.46937 0.5485 0.0
H1062 H 0.47062 0.52107 0.58822 0.0
H1063 H 0.44863 0.54331 0.54798 0.0
H1064 H 0.5704 0.53626 0.50116 0.0
H1065 H 0.57922 0.50735 0.47572 0.0
H1066 H 0.58978 0.49605 0.50793 0.0
H1067 H 0.55134 0.4428 0.5034 0.0
H1068 H 0.5403 0.45416 0.47129 0.0
H1069 H 0.50544 0.44664 0.494 0.0
H1070 H 0.43202 0.55648 0.50398 0.0
H1071 H 0.42625 0.56607 0.45813 0.0
H1072 H 0.523 0.50919 0.44521 0.0
C1073 C 0.53283 0.48583 0.54875 0.0
C1074 C 0.51484 0.49309 0.57175 0.0
C1075 C 0.48486 0.51467 0.57106 0.0
C1076 C 0.472 0.52754 0.5482 0.0
C1077 C 0.48948 0.5191 0.52593 0.0
C1078 C 0.5196 0.49931 0.52588 0.0
C1079 C 0.533 0.49442 0.4989 0.0
C1080 C 0.57032 0.50942 0.49574 0.0
C1081 C 0.53248 0.4573 0.49147 0.0
C1082 C 0.50539 0.5142 0.48401 0.0
C1083 C 0.48044 0.5279 0.50011 0.0
C1084 C 0.4516 0.54622 0.49112 0.0
C1085 C 0.44843 0.55133 0.46496 0.0
C1086 C 0.47415 0.53852 0.44791 0.0
C1087 C 0.50295 0.5195 0.45769 0.0
loop_
_geom_bond_atom_site_label_1
_geom_bond_atom_site_label_2
_geom_bond_distance
_geom_bond_site_symmetry_2
_ccdc_geom_bond_type
Co0 O1 2.216 . S
Co0 O2 2.091 . S
Co0 O4 2.004 . S
Co0 O10 2.021 . S
Co0 O12 2.137 . S
Co0 O13 2.244 . S
O1 Co0 2.216 . S
O1 C8 1.247 . S
O2 Co0 2.091 . S
O2 C8 1.261 . S
C3 O12 1.247 . S
C3 O13 1.272 . S
O4 Co0 2.004 . S
O4 C9 1.259 . S
Co5 O6 2.061 1_655 S
Co5 O11 2.052 1_655 S
Co5 O13 2.135 1_655 S
O6 Co5 2.061 1_455 S
O6 C9 1.235 . S
C7 O10 1.238 . S
C7 O11 1.241 . S
C8 O1 1.247 . S
C8 O2 1.261 . S
C9 O4 1.259 . S
C9 O6 1.235 . S
O10 Co0 2.021 . S
O10 C7 1.238 . S
O11 Co5 2.052 1_455 S
O11 C7 1.241 . S
O12 Co0 2.137 . S
O12 C3 1.247 . S
O13 Co0 2.244 . S
O13 C3 1.272 . S
O13 Co5 2.135 1_455 S
Co14 O15 2.216 . S
Co14 O16 2.091 . S
Co14 O18 2.004 . S
Co14 O24 2.021 . S
Co14 O26 2.137 . S
Co14 O27 2.244 . S
O15 Co14 2.216 . S
O15 C22 1.247 . S
O16 Co14 2.091 . S
O16 C22 1.261 . S
C17 O26 1.247 . S
C17 O27 1.272 . S
O18 Co14 2.004 . S
O18 C23 1.259 . S
Co19 O20 2.061 . S
Co19 O25 2.052 . S
Co19 O27 2.135 . S
O20 Co19 2.061 . S
O20 C23 1.235 . S
C21 O24 1.238 . S
C21 O25 1.241 . S
C22 O15 1.247 . S
C22 O16 1.261 . S
C23 O18 1.259 . S
C23 O20 1.235 . S
O24 Co14 2.021 . S
O24 C21 1.238 . S
O25 Co19 2.052 . S
O25 C21 1.241 . S
O26 Co14 2.137 . S
O26 C17 1.247 . S
O27 Co14 2.244 . S
O27 C17 1.272 . S
O27 Co19 2.135 . S
Co28 O29 2.216 . S
Co28 O30 2.091 . S
Co28 O32 2.004 . S
Co28 O38 2.021 . S
Co28 O40 2.137 . S
Co28 O41 2.244 . S
O29 Co28 2.216 . S
O29 C36 1.247 . S
O30 Co28 2.091 . S
O30 C36 1.261 . S
C31 O40 1.247 . S
C31 O41 1.272 . S
O32 Co28 2.004 . S
O32 C37 1.259 . S
Co33 O34 2.061 . S
Co33 O39 2.052 . S
Co33 O41 2.135 . S
O34 Co33 2.061 . S
O34 C37 1.235 . S
C35 O38 1.238 . S
C35 O39 1.241 . S
C36 O29 1.247 . S
C36 O30 1.261 . S
C37 O32 1.259 . S
C37 O34 1.235 . S
O38 Co28 2.021 . S
O38 C35 1.238 . S
O39 Co33 2.052 . S
O39 C35 1.241 . S
O40 Co28 2.137 . S
O40 C31 1.247 . S
O41 Co28 2.244 . S
O41 C31 1.272 . S
O41 Co33 2.135 . S
Co42 O43 2.216 . S
Co42 O44 2.091 . S
Co42 O46 2.004 . S
Co42 O52 2.021 . S
Co42 O54 2.137 . S
Co42 O55 2.244 . S
O43 Co42 2.216 . S
O43 C50 1.247 . S
O44 Co42 2.091 . S
O44 C50 1.261 . S
C45 O54 1.247 . S
C45 O55 1.272 . S
O46 Co42 2.004 . S
O46 C51 1.259 . S
Co47 O48 2.061 1_455 S
Co47 O53 2.052 1_455 S
Co47 O55 2.135 1_455 S
O48 Co47 2.061 1_655 S
O48 C51 1.235 . S
C49 O52 1.238 . S
C49 O53 1.241 . S
C50 O43 1.247 . S
C50 O44 1.261 . S
C51 O46 1.259 . S
C51 O48 1.235 . S
O52 Co42 2.021 . S
O52 C49 1.238 . S
O53 Co47 2.052 1_655 S
O53 C49 1.241 . S
O54 Co42 2.137 . S
O54 C45 1.247 . S
O55 Co42 2.244 . S
O55 C45 1.272 . S
O55 Co47 2.135 1_655 S
Co56 O57 2.216 . S
Co56 O58 2.091 . S
Co56 O60 2.004 . S
Co56 O66 2.021 . S
Co56 O68 2.137 . S
Co56 O69 2.244 . S
O57 Co56 2.216 . S
O57 C64 1.247 . S
O58 Co56 2.091 . S
O58 C64 1.261 . S
C59 O68 1.247 . S
C59 O69 1.272 . S
O60 Co56 2.004 . S
O60 C65 1.259 . S
Co61 O62 2.061 1_455 S
Co61 O67 2.052 1_455 S
Co61 O69 2.135 1_455 S
O62 Co61 2.061 1_655 S
O62 C65 1.235 . S
C63 O66 1.238 . S
C63 O67 1.241 . S
C64 O57 1.247 . S
C64 O58 1.261 . S
C65 O60 1.259 . S
C65 O62 1.235 . S
O66 Co56 2.021 . S
O66 C63 1.238 . S
O67 Co61 2.052 1_655 S
O67 C63 1.241 . S
O68 Co56 2.137 . S
O68 C59 1.247 . S
O69 Co56 2.244 . S
O69 C59 1.272 . S
O69 Co61 2.135 1_655 S
Co70 O71 2.216 . S
Co70 O72 2.091 . S
Co70 O74 2.004 . S
Co70 O80 2.021 . S
Co70 O82 2.137 . S
Co70 O83 2.244 . S
O71 Co70 2.216 . S
O71 C78 1.247 . S
O72 Co70 2.091 . S
O72 C78 1.261 . S
C73 O82 1.247 . S
C73 O83 1.272 . S
O74 Co70 2.004 . S
O74 C79 1.259 . S
Co75 O76 2.061 . S
Co75 O81 2.052 . S
Co75 O83 2.135 . S
O76 Co75 2.061 . S
O76 C79 1.235 . S
C77 O80 1.238 . S
C77 O81 1.241 . S
C78 O71 1.247 . S
C78 O72 1.261 . S
C79 O74 1.259 . S
C79 O76 1.235 . S
O80 Co70 2.021 . S
O80 C77 1.238 . S
O81 Co75 2.052 . S
O81 C77 1.241 . S
O82 Co70 2.137 . S
O82 C73 1.247 . S
O83 Co70 2.244 . S
O83 C73 1.272 . S
O83 Co75 2.135 . S
Co84 O85 2.216 . S
Co84 O86 2.091 . S
Co84 O88 2.004 . S
Co84 O94 2.021 . S
Co84 O96 2.137 . S
Co84 O97 2.244 . S
O85 Co84 2.216 . S
O85 C92 1.247 . S
O86 Co84 2.091 . S
O86 C92 1.261 . S
C87 O96 1.247 . S
C87 O97 1.272 . S
O88 Co84 2.004 . S
O88 C93 1.259 . S
Co89 O90 2.061 . S
Co89 O95 2.052 . S
Co89 O97 2.135 . S
O90 Co89 2.061 . S
O90 C93 1.235 . S
C91 O94 1.238 . S
C91 O95 1.241 . S
C92 O85 1.247 . S
C92 O86 1.261 . S
C93 O88 1.259 . S
C93 O90 1.235 . S
O94 Co84 2.021 . S
O94 C91 1.238 . S
O95 Co89 2.052 . S
O95 C91 1.241 . S
O96 Co84 2.137 . S
O96 C87 1.247 . S
O97 Co84 2.244 . S
O97 C87 1.272 . S
O97 Co89 2.135 . S
Co98 O99 2.216 . S
Co98 O100 2.091 . S
Co98 O102 2.004 . S
Co98 O108 2.021 . S
Co98 O110 2.137 . S
Co98 O111 2.244 . S
O99 Co98 2.216 . S
O99 C106 1.247 . S
O100 Co98 2.091 . S
O100 C106 1.261 . S
C101 O110 1.247 . S
C101 O111 1.272 . S
O102 Co98 2.004 . S
O102 C107 1.259 . S
Co103 O104 2.061 1_655 S
Co103 O109 2.052 1_655 S
Co103 O111 2.135 1_655 S
O104 Co103 2.061 1_455 S
O104 C107 1.235 . S
C105 O108 1.238 . S
C105 O109 1.241 . S
C106 O99 1.247 . S
C106 O100 1.261 . S
C107 O102 1.259 . S
C107 O104 1.235 . S
O108 Co98 2.021 . S
O108 C105 1.238 . S
O109 Co103 2.052 1_455 S
O109 C105 1.241 . S
O110 Co98 2.137 . S
O110 C101 1.247 . S
O111 Co98 2.244 . S
O111 C101 1.272 . S
O111 Co103 2.135 1_455 S
Co112 O113 2.216 . S
Co112 O114 2.091 . S
Co112 O116 2.004 . S
Co112 O122 2.021 . S
Co112 O124 2.137 . S
Co112 O125 2.244 . S
O113 Co112 2.216 . S
O113 C120 1.247 . S
O114 Co112 2.091 . S
O114 C120 1.261 . S
C115 O124 1.247 . S
C115 O125 1.272 . S
O116 Co112 2.004 . S
O116 C121 1.259 . S
Co117 O118 2.061 . S
Co117 O123 2.052 . S
Co117 O125 2.135 . S
O118 Co117 2.061 . S
O118 C121 1.235 . S
C119 O122 1.238 . S
C119 O123 1.241 . S
C120 O113 1.247 . S
C120 O114 1.261 . S
C121 O116 1.259 . S
C121 O118 1.235 . S
O122 Co112 2.021 . S
O122 C119 1.238 . S
O123 Co117 2.052 . S
O123 C119 1.241 . S
O124 Co112 2.137 . S
O124 C115 1.247 . S
O125 Co112 2.244 . S
O125 C115 1.272 . S
O125 Co117 2.135 . S
Co126 O127 2.216 . S
Co126 O128 2.091 . S
Co126 O130 2.004 . S
Co126 O136 2.021 . S
Co126 O138 2.137 . S
Co126 O139 2.244 . S
O127 Co126 2.216 . S
O127 C134 1.247 . S
O128 Co126 2.091 . S
O128 C134 1.261 . S
C129 O138 1.247 . S
C129 O139 1.272 . S
O130 Co126 2.004 . S
O130 C135 1.259 . S
Co131 O132 2.061 1_455 S
Co131 O137 2.052 1_455 S
Co131 O139 2.135 1_455 S
O132 Co131 2.061 1_655 S
O132 C135 1.235 . S
C133 O136 1.238 . S
C133 O137 1.241 . S
C134 O127 1.247 . S
C134 O128 1.261 . S
C135 O130 1.259 . S
C135 O132 1.235 . S
O136 Co126 2.021 . S
O136 C133 1.238 . S
O137 Co131 2.052 1_655 S
O137 C133 1.241 . S
O138 Co126 2.137 . S
O138 C129 1.247 . S
O139 Co126 2.244 . S
O139 C129 1.272 . S
O139 Co131 2.135 1_655 S
Co140 O141 2.216 . S
Co140 O142 2.091 . S
Co140 O144 2.004 . S
Co140 O150 2.021 . S
Co140 O152 2.137 . S
Co140 O153 2.244 . S
O141 Co140 2.216 . S
O141 C148 1.247 . S
O142 Co140 2.091 . S
O142 C148 1.261 . S
C143 O152 1.247 . S
C143 O153 1.272 . S
O144 Co140 2.004 . S
O144 C149 1.259 . S
Co145 O146 2.061 1_655 S
Co145 O151 2.052 1_655 S
Co145 O153 2.135 1_655 S
O146 Co145 2.061 1_455 S
O146 C149 1.235 . S
C147 O150 1.238 . S
C147 O151 1.241 . S
C148 O141 1.247 . S
C148 O142 1.261 . S
C149 O144 1.259 . S
C149 O146 1.235 . S
O150 Co140 2.021 . S
O150 C147 1.238 . S
O151 Co145 2.052 1_455 S
O151 C147 1.241 . S
O152 Co140 2.137 . S
O152 C143 1.247 . S
O153 Co140 2.244 . S
O153 C143 1.272 . S
O153 Co145 2.135 1_455 S
Co154 O155 2.216 . S
Co154 O156 2.091 . S
Co154 O158 2.004 . S
Co154 O164 2.021 . S
Co154 O166 2.137 . S
Co154 O167 2.244 . S
O155 Co154 2.216 . S
O155 C162 1.247 . S
O156 Co154 2.091 . S
O156 C162 1.261 . S
C157 O166 1.247 . S
C157 O167 1.272 . S
O158 Co154 2.004 . S
O158 C163 1.259 . S
Co159 O160 2.061 . S
Co159 O165 2.052 . S
Co159 O167 2.135 . S
O160 Co159 2.061 . S
O160 C163 1.235 . S
C161 O164 1.238 . S
C161 O165 1.241 . S
C162 O155 1.247 . S
C162 O156 1.261 . S
C163 O158 1.259 . S
C163 O160 1.235 . S
O164 Co154 2.021 . S
O164 C161 1.238 . S
O165 Co159 2.052 . S
O165 C161 1.241 . S
O166 Co154 2.137 . S
O166 C157 1.247 . S
O167 Co154 2.244 . S
O167 C157 1.272 . S
O167 Co159 2.135 . S
Co168 O169 2.216 . S
Co168 O170 2.091 . S
Co168 O172 2.004 . S
Co168 O178 2.021 . S
Co168 O180 2.137 . S
Co168 O181 2.244 . S
O169 Co168 2.216 . S
O169 C176 1.247 . S
O170 Co168 2.091 . S
O170 C176 1.261 . S
C171 O180 1.247 . S
C171 O181 1.272 . S
O172 Co168 2.004 . S
O172 C177 1.259 . S
Co173 O174 2.061 . S
Co173 O179 2.052 . S
Co173 O181 2.135 . S
O174 Co173 2.061 . S
O174 C177 1.235 . S
C175 O178 1.238 . S
C175 O179 1.241 . S
C176 O169 1.247 . S
C176 O170 1.261 . S
C177 O172 1.259 . S
C177 O174 1.235 . S
O178 Co168 2.021 . S
O178 C175 1.238 . S
O179 Co173 2.052 . S
O179 C175 1.241 . S
O180 Co168 2.137 . S
O180 C171 1.247 . S
O181 Co168 2.244 . S
O181 C171 1.272 . S
O181 Co173 2.135 . S
Co182 O183 2.216 . S
Co182 O184 2.091 . S
Co182 O186 2.004 . S
Co182 O192 2.021 . S
Co182 O194 2.137 . S
Co182 O195 2.244 . S
O183 Co182 2.216 . S
O183 C190 1.247 . S
O184 Co182 2.091 . S
O184 C190 1.261 . S
C185 O194 1.247 . S
C185 O195 1.272 . S
O186 Co182 2.004 . S
O186 C191 1.259 . S
Co187 O188 2.061 1_655 S
Co187 O193 2.052 1_655 S
Co187 O195 2.135 1_655 S
O188 Co187 2.061 1_455 S
O188 C191 1.235 . S
C189 O192 1.238 . S
C189 O193 1.241 . S
C190 O183 1.247 . S
C190 O184 1.261 . S
C191 O186 1.259 . S
C191 O188 1.235 . S
O192 Co182 2.021 . S
O192 C189 1.238 . S
O193 Co187 2.052 1_455 S
O193 C189 1.241 . S
O194 Co182 2.137 . S
O194 C185 1.247 . S
O195 Co182 2.244 . S
O195 C185 1.272 . S
O195 Co187 2.135 1_455 S
Co196 O197 2.216 . S
Co196 O198 2.091 . S
Co196 O200 2.004 . S
Co196 O206 2.021 . S
Co196 O208 2.137 . S
Co196 O209 2.244 . S
O197 Co196 2.216 . S
O197 C204 1.247 . S
O198 Co196 2.091 . S
O198 C204 1.261 . S
C199 O208 1.247 . S
C199 O209 1.272 . S
O200 Co196 2.004 . S
O200 C205 1.259 . S
Co201 O202 2.061 1_455 S
Co201 O207 2.052 1_455 S
Co201 O209 2.135 1_455 S
O202 Co201 2.061 1_655 S
O202 C205 1.235 . S
C203 O206 1.238 . S
C203 O207 1.241 . S
C204 O197 1.247 . S
C204 O198 1.261 . S
C205 O200 1.259 . S
C205 O202 1.235 . S
O206 Co196 2.021 . S
O206 C203 1.238 . S
O207 Co201 2.052 1_655 S
O207 C203 1.241 . S
O208 Co196 2.137 . S
O208 C199 1.247 . S
O209 Co196 2.244 . S
O209 C199 1.272 . S
O209 Co201 2.135 1_655 S
Co210 O211 2.216 . S
Co210 O212 2.091 . S
Co210 O214 2.004 . S
Co210 O220 2.021 . S
Co210 O222 2.137 . S
Co210 O223 2.244 . S
O211 Co210 2.216 . S
O211 C218 1.247 . S
O212 Co210 2.091 . S
O212 C218 1.261 . S
C213 O222 1.247 . S
C213 O223 1.272 . S
O214 Co210 2.004 . S
O214 C219 1.259 . S
Co215 O216 2.061 . S
Co215 O221 2.052 . S
Co215 O223 2.135 . S
O216 Co215 2.061 . S
O216 C219 1.235 . S
C217 O220 1.238 . S
C217 O221 1.241 . S
C218 O211 1.247 . S
C218 O212 1.261 . S
C219 O214 1.259 . S
C219 O216 1.235 . S
O220 Co210 2.021 . S
O220 C217 1.238 . S
O221 Co215 2.052 . S
O221 C217 1.241 . S
O222 Co210 2.137 . S
O222 C213 1.247 . S
O223 Co210 2.244 . S
O223 C213 1.272 . S
O223 Co215 2.135 . S
H224 C236 0.930 . S
H225 C238 0.930 . S
H226 C239 0.930 . S
H227 C243 0.959 . S
H228 C243 0.959 . S
H229 C243 0.961 . S
H230 C244 0.960 . S
H231 C244 0.961 . S
H232 C244 0.959 . S
H233 C247 0.929 . S
H234 C248 0.931 . S
H235 C250 0.930 . S
C236 H224 0.930 . S
C236 C237 1.399 . S
C236 C241 1.399 . S
C237 C236 1.399 . S
C237 C238 1.376 . S
C238 H225 0.930 . S
C238 C237 1.376 . S
C238 C239 1.388 1_565 S
C239 H226 0.930 . S
C239 C238 1.388 1_545 S
C239 C240 1.390 . S
C240 C239 1.390 . S
C240 C241 1.394 1_545 S
C240 C246 1.465 . S
C241 C236 1.399 . S
C241 C240 1.394 1_565 S
C241 C242 1.516 . S
C242 C241 1.516 . S
C242 C243 1.502 . S
C242 C244 1.561 1_565 S
C242 C245 1.526 1_565 S
C243 H227 0.959 . S
C243 H228 0.959 . S
C243 H229 0.961 . S
C243 C242 1.502 . S
C244 H230 0.960 . S
C244 H231 0.961 . S
C244 H232 0.959 . S
C244 C242 1.561 1_545 S
C245 C242 1.526 1_545 S
C245 C246 1.396 . S
C245 C250 1.390 . S
C246 C240 1.465 . S
C246 C245 1.396 . S
C246 C247 1.399 . S
C247 H233 0.929 . S
C247 C246 1.399 . S
C247 C248 1.385 . S
C248 H234 0.931 . S
C248 C247 1.385 . S
C248 C249 1.389 . S
C249 C248 1.389 . S
C249 C250 1.387 . S
C250 H235 0.930 . S
C250 C245 1.390 . S
C250 C249 1.387 . S
H251 C263 0.930 . S
H252 C265 0.930 . S
H253 C266 0.930 . S
H254 C270 0.959 . S
H255 C270 0.959 . S
H256 C270 0.961 . S
H257 C271 0.960 . S
H258 C271 0.961 . S
H259 C271 0.959 . S
H260 C274 0.929 . S
H261 C275 0.931 . S
H262 C277 0.930 . S
C263 H251 0.930 . S
C263 C264 1.399 . S
C263 C268 1.399 . S
C264 C263 1.399 . S
C264 C265 1.376 . S
C265 H252 0.930 . S
C265 C264 1.376 . S
C265 C266 1.388 1_565 S
C266 H253 0.930 . S
C266 C265 1.388 1_545 S
C266 C267 1.390 . S
C267 C266 1.390 . S
C267 C268 1.394 1_545 S
C267 C273 1.465 . S
C268 C263 1.399 . S
C268 C267 1.394 1_565 S
C268 C269 1.516 . S
C269 C268 1.516 . S
C269 C270 1.502 . S
C269 C271 1.561 1_565 S
C269 C272 1.526 1_565 S
C270 H254 0.959 . S
C270 H255 0.959 . S
C270 H256 0.961 . S
C270 C269 1.502 . S
C271 H257 0.960 . S
C271 H258 0.961 . S
C271 H259 0.959 . S
C271 C269 1.561 1_545 S
C272 C269 1.526 1_545 S
C272 C273 1.396 . S
C272 C277 1.390 . S
C273 C267 1.465 . S
C273 C272 1.396 . S
C273 C274 1.399 . S
C274 H260 0.929 . S
C274 C273 1.399 . S
C274 C275 1.385 . S
C275 H261 0.931 . S
C275 C274 1.385 . S
C275 C276 1.389 . S
C276 C275 1.389 . S
C276 C277 1.387 . S
C277 H262 0.930 . S
C277 C272 1.390 . S
C277 C276 1.387 . S
H278 C290 0.930 1_545 S
H279 C292 0.930 . S
H280 C293 0.930 . S
H281 C297 0.959 . S
H282 C297 0.959 . S
H283 C297 0.961 . S
H284 C298 0.960 1_565 S
H285 C298 0.961 . S
H286 C298 0.959 1_565 S
H287 C301 0.929 . S
H288 C302 0.931 1_565 S
H289 C304 0.930 . S
C290 H278 0.930 1_565 S
C290 C291 1.399 . S
C290 C295 1.399 . S
C291 C290 1.399 . S
C291 C292 1.376 . S
C292 H279 0.930 . S
C292 C291 1.376 . S
C292 C293 1.388 . S
C293 H280 0.930 . S
C293 C292 1.388 . S
C293 C294 1.390 . S
C294 C293 1.390 . S
C294 C295 1.394 . S
C294 C300 1.465 . S
C295 C290 1.399 . S
C295 C294 1.394 . S
C295 C296 1.516 1_565 S
C296 C295 1.516 1_545 S
C296 C297 1.502 . S
C296 C298 1.561 . S
C296 C299 1.526 . S
C297 H281 0.959 . S
C297 H282 0.959 . S
C297 H283 0.961 . S
C297 C296 1.502 . S
C298 H284 0.960 1_545 S
C298 H285 0.961 . S
C298 H286 0.959 1_545 S
C298 C296 1.561 . S
C299 C296 1.526 . S
C299 C300 1.396 1_545 S
C299 C304 1.390 . S
C300 C294 1.465 . S
C300 C299 1.396 1_565 S
C300 C301 1.399 . S
C301 H287 0.929 . S
C301 C300 1.399 . S
C301 C302 1.385 1_565 S
C302 H288 0.931 1_545 S
C302 C301 1.385 1_545 S
C302 C303 1.389 . S
C303 C302 1.389 . S
C303 C304 1.387 . S
C304 H289 0.930 . S
C304 C299 1.390 . S
C304 C303 1.387 . S
H305 C317 0.930 . S
H306 C319 0.934 . S
H307 C320 0.930 . S
H308 C324 0.959 . S
H309 C324 0.959 . S
H310 C324 0.961 . S
H311 C325 0.960 1_565 S
H312 C325 0.961 . S
H313 C325 0.959 . S
H314 C328 0.929 . S
H315 C329 0.931 . S
H316 C331 0.930 . S
C317 H305 0.930 . S
C317 C318 1.399 . S
C317 C322 1.399 . S
C318 C317 1.399 . S
C318 C319 1.376 . S
C319 H306 0.934 . S
C319 C318 1.376 . S
C319 C320 1.388 1_565 S
C320 H307 0.930 . S
C320 C319 1.388 1_545 S
C320 C321 1.390 . S
C321 C320 1.390 . S
C321 C322 1.394 1_545 S
C321 C327 1.465 . S
C322 C317 1.399 . S
C322 C321 1.394 1_565 S
C322 C323 1.516 . S
C323 C322 1.516 . S
C323 C324 1.502 . S
C323 C325 1.561 1_565 S
C323 C326 1.526 1_565 S
C324 H308 0.959 . S
C324 H309 0.959 . S
C324 H310 0.961 . S
C324 C323 1.502 . S
C325 H311 0.960 1_545 S
C325 H312 0.961 . S
C325 H313 0.959 . S
C325 C323 1.561 1_545 S
C326 C323 1.526 1_545 S
C326 C327 1.396 . S
C326 C331 1.390 . S
C327 C321 1.465 . S
C327 C326 1.396 . S
C327 C328 1.399 . S
C328 H314 0.929 . S
C328 C327 1.399 . S
C328 C329 1.385 . S
C329 H315 0.931 . S
C329 C328 1.385 . S
C329 C330 1.389 . S
C330 C329 1.389 . S
C330 C331 1.387 . S
C331 H316 0.930 . S
C331 C326 1.390 . S
C331 C330 1.387 . S
H332 C344 0.930 . S
H333 C346 0.930 . S
H334 C347 0.930 . S
H335 C351 0.959 . S
H336 C351 0.959 . S
H337 C351 0.961 . S
H338 C352 0.960 . S
H339 C352 0.961 . S
H340 C352 0.959 . S
H341 C355 0.929 . S
H342 C356 0.931 . S
H343 C358 0.930 . S
C344 H332 0.930 . S
C344 C345 1.399 . S
C344 C349 1.399 . S
C345 C344 1.399 . S
C345 C346 1.376 . S
C346 H333 0.930 . S
C346 C345 1.376 . S
C346 C347 1.388 . S
C347 H334 0.930 . S
C347 C346 1.388 . S
C347 C348 1.390 . S
C348 C347 1.390 . S
C348 C349 1.394 . S
C348 C354 1.465 . S
C349 C344 1.399 . S
C349 C348 1.394 . S
C349 C350 1.516 . S
C350 C349 1.516 . S
C350 C351 1.502 . S
C350 C352 1.561 . S
C350 C353 1.526 . S
C351 H335 0.959 . S
C351 H336 0.959 . S
C351 H337 0.961 . S
C351 C350 1.502 . S
C352 H338 0.960 . S
C352 H339 0.961 . S
C352 H340 0.959 . S
C352 C350 1.561 . S
C353 C350 1.526 . S
C353 C354 1.396 . S
C353 C358 1.390 . S
C354 C348 1.465 . S
C354 C353 1.396 . S
C354 C355 1.399 . S
C355 H341 0.929 . S
C355 C354 1.399 . S
C355 C356 1.385 . S
C356 H342 0.931 . S
C356 C355 1.385 . S
C356 C357 1.389 . S
C357 C356 1.389 . S
C357 C358 1.387 . S
C358 H343 0.930 . S
C358 C353 1.390 . S
C358 C357 1.387 . S
H359 C371 0.930 . S
H360 C373 0.930 . S
H361 C374 0.930 . S
H362 C378 0.959 . S
H363 C378 0.959 . S
H364 C378 0.961 . S
H365 C379 0.960 . S
H366 C379 0.961 . S
H367 C379 0.959 . S
H368 C382 0.929 . S
H369 C383 0.931 . S
H370 C385 0.930 . S
C371 H359 0.930 . S
C371 C372 1.399 . S
C371 C376 1.399 . S
C372 C371 1.399 . S
C372 C373 1.376 . S
C373 H360 0.930 . S
C373 C372 1.376 . S
C373 C374 1.388 . S
C374 H361 0.930 . S
C374 C373 1.388 . S
C374 C375 1.390 . S
C375 C374 1.390 . S
C375 C376 1.394 . S
C375 C381 1.465 . S
C376 C371 1.399 . S
C376 C375 1.394 . S
C376 C377 1.516 . S
C377 C376 1.516 . S
C377 C378 1.502 . S
C377 C379 1.561 . S
C377 C380 1.526 . S
C378 H362 0.959 . S
C378 H363 0.959 . S
C378 H364 0.961 . S
C378 C377 1.502 . S
C379 H365 0.960 . S
C379 H366 0.961 . S
C379 H367 0.959 . S
C379 C377 1.561 . S
C380 C377 1.526 . S
C380 C381 1.396 . S
C380 C385 1.390 . S
C381 C375 1.465 . S
C381 C380 1.396 . S
C381 C382 1.399 . S
C382 H368 0.929 . S
C382 C381 1.399 . S
C382 C383 1.385 . S
C383 H369 0.931 . S
C383 C382 1.385 . S
C383 C384 1.389 . S
C384 C383 1.389 . S
C384 C385 1.387 . S
C385 H370 0.930 . S
C385 C380 1.390 . S
C385 C384 1.387 . S
H386 C398 0.930 . S
H387 C400 0.930 . S
H388 C401 0.930 . S
H389 C405 0.959 . S
H390 C405 0.959 . S
H391 C405 0.961 . S
H392 C406 0.960 . S
H393 C406 0.961 . S
H394 C406 0.959 . S
H395 C409 0.929 . S
H396 C410 0.931 . S
H397 C412 0.930 . S
C398 H386 0.930 . S
C398 C399 1.399 . S
C398 C403 1.399 . S
C399 C398 1.399 . S
C399 C400 1.376 . S
C400 H387 0.930 . S
C400 C399 1.376 . S
C400 C401 1.388 . S
C401 H388 0.930 . S
C401 C400 1.388 . S
C401 C402 1.390 . S
C402 C401 1.390 . S
C402 C403 1.394 . S
C402 C408 1.465 . S
C403 C398 1.399 . S
C403 C402 1.394 . S
C403 C404 1.516 . S
C404 C403 1.516 . S
C404 C405 1.502 . S
C404 C406 1.561 . S
C404 C407 1.526 . S
C405 H389 0.959 . S
C405 H390 0.959 . S
C405 H391 0.961 . S
C405 C404 1.502 . S
C406 H392 0.960 . S
C406 H393 0.961 . S
C406 H394 0.959 . S
C406 C404 1.561 . S
C407 C404 1.526 . S
C407 C408 1.396 . S
C407 C412 1.390 . S
C408 C402 1.465 . S
C408 C407 1.396 . S
C408 C409 1.399 . S
C409 H395 0.929 . S
C409 C408 1.399 . S
C409 C410 1.385 . S
C410 H396 0.931 . S
C410 C409 1.385 . S
C410 C411 1.389 . S
C411 C410 1.389 . S
C411 C412 1.387 . S
C412 H397 0.930 . S
C412 C407 1.390 . S
C412 C411 1.387 . S
H413 C425 0.930 . S
H414 C427 0.930 . S
H415 C428 0.930 . S
H416 C432 0.959 . S
H417 C432 0.959 . S
H418 C432 0.961 . S
H419 C433 0.960 . S
H420 C433 0.961 . S
H421 C433 0.959 . S
H422 C436 0.929 . S
H423 C437 0.931 . S
H424 C439 0.930 . S
C425 H413 0.930 . S
C425 C426 1.399 . S
C425 C430 1.399 . S
C426 C425 1.399 . S
C426 C427 1.376 . S
C427 H414 0.930 . S
C427 C426 1.376 . S
C427 C428 1.388 . S
C428 H415 0.930 . S
C428 C427 1.388 . S
C428 C429 1.390 . S
C429 C428 1.390 . S
C429 C430 1.394 . S
C429 C435 1.465 . S
C430 C425 1.399 . S
C430 C429 1.394 . S
C430 C431 1.516 . S
C431 C430 1.516 . S
C431 C432 1.502 . S
C431 C433 1.561 . S
C431 C434 1.526 . S
C432 H416 0.959 . S
C432 H417 0.959 . S
C432 H418 0.961 . S
C432 C431 1.502 . S
C433 H419 0.960 . S
C433 H420 0.961 . S
C433 H421 0.959 . S
C433 C431 1.561 . S
C434 C431 1.526 . S
C434 C435 1.396 . S
C434 C439 1.390 . S
C435 C429 1.465 . S
C435 C434 1.396 . S
C435 C436 1.399 . S
C436 H422 0.929 . S
C436 C435 1.399 . S
C436 C437 1.385 . S
C437 H423 0.931 . S
C437 C436 1.385 . S
C437 C438 1.389 . S
C438 C437 1.389 . S
C438 C439 1.387 . S
C439 H424 0.930 . S
C439 C434 1.390 . S
C439 C438 1.387 . S
H440 C452 0.930 . S
H441 C454 0.930 . S
H442 C455 0.930 1_565 S
H443 C459 0.959 . S
H444 C459 0.959 . S
H445 C459 0.961 . S
H446 C460 0.960 . S
H447 C460 0.961 . S
H448 C460 0.959 . S
H449 C463 0.929 1_565 S
H450 C464 0.931 . S
H451 C466 0.930 . S
C452 H440 0.930 . S
C452 C453 1.399 . S
C452 C457 1.399 . S
C453 C452 1.399 . S
C453 C454 1.376 . S
C454 H441 0.930 . S
C454 C453 1.376 . S
C454 C455 1.388 1_655 S
C455 H442 0.930 1_545 S
C455 C454 1.388 1_455 S
C455 C456 1.390 . S
C456 C455 1.390 . S
C456 C457 1.394 1_455 S
C456 C462 1.465 . S
C457 C452 1.399 . S
C457 C456 1.394 1_655 S
C457 C458 1.516 . S
C458 C457 1.516 . S
C458 C459 1.502 . S
C458 C460 1.561 1_655 S
C458 C461 1.526 1_655 S
C459 H443 0.959 . S
C459 H444 0.959 . S
C459 H445 0.961 . S
C459 C458 1.502 . S
C460 H446 0.960 . S
C460 H447 0.961 . S
C460 H448 0.959 . S
C460 C458 1.561 1_455 S
C461 C458 1.526 1_455 S
C461 C462 1.396 . S
C461 C466 1.390 . S
C462 C456 1.465 . S
C462 C461 1.396 . S
C462 C463 1.399 . S
C463 H449 0.929 1_545 S
C463 C462 1.399 . S
C463 C464 1.385 . S
C464 H450 0.931 . S
C464 C463 1.385 . S
C464 C465 1.389 . S
C465 C464 1.389 . S
C465 C466 1.387 . S
C466 H451 0.930 . S
C466 C461 1.390 . S
C466 C465 1.387 . S
H467 C479 0.930 . S
H468 C481 0.930 . S
H469 C482 0.930 . S
H470 C486 0.959 . S
H471 C486 0.959 . S
H472 C486 0.961 . S
H473 C487 0.960 . S
H474 C487 0.961 . S
H475 C487 0.959 . S
H476 C490 0.929 . S
H477 C491 0.931 . S
H478 C493 0.930 . S
C479 H467 0.930 . S
C479 C480 1.399 . S
C479 C484 1.399 . S
C480 C479 1.399 . S
C480 C481 1.376 . S
C481 H468 0.930 . S
C481 C480 1.376 . S
C481 C482 1.388 . S
C482 H469 0.930 . S
C482 C481 1.388 . S
C482 C483 1.390 . S
C483 C482 1.390 . S
C483 C484 1.394 . S
C483 C489 1.465 . S
C484 C479 1.399 . S
C484 C483 1.394 . S
C484 C485 1.516 . S
C485 C484 1.516 . S
C485 C486 1.502 . S
C485 C487 1.561 . S
C485 C488 1.526 . S
C486 H470 0.959 . S
C486 H471 0.959 . S
C486 H472 0.961 . S
C486 C485 1.502 . S
C487 H473 0.960 . S
C487 H474 0.961 . S
C487 H475 0.959 . S
C487 C485 1.561 . S
C488 C485 1.526 . S
C488 C489 1.396 . S
C488 C493 1.390 . S
C489 C483 1.465 . S
C489 C488 1.396 . S
C489 C490 1.399 . S
C490 H476 0.929 . S
C490 C489 1.399 . S
C490 C491 1.385 . S
C491 H477 0.931 . S
C491 C490 1.385 . S
C491 C492 1.389 . S
C492 C491 1.389 . S
C492 C493 1.387 . S
C493 H478 0.930 . S
C493 C488 1.390 . S
C493 C492 1.387 . S
H494 C506 0.930 . S
H495 C508 0.930 . S
H496 C509 0.918 1_545 S
H497 C513 0.959 . S
H498 C513 0.959 . S
H499 C513 0.961 . S
H500 C514 0.960 . S
H501 C514 0.961 . S
H502 C514 0.959 . S
H503 C517 0.929 1_545 S
H504 C518 0.931 . S
H505 C520 0.930 . S
C506 H494 0.930 . S
C506 C507 1.399 . S
C506 C511 1.399 . S
C507 C506 1.399 . S
C507 C508 1.376 . S
C508 H495 0.930 . S
C508 C507 1.376 . S
C508 C509 1.388 . S
C509 H496 0.918 1_565 S
C509 C508 1.388 . S
C509 C510 1.390 . S
C510 C509 1.390 . S
C510 C511 1.394 . S
C510 C516 1.465 . S
C511 C506 1.399 . S
C511 C510 1.394 . S
C511 C512 1.516 1_455 S
C512 C511 1.516 1_655 S
C512 C513 1.502 . S
C512 C514 1.561 1_655 S
C512 C515 1.526 . S
C513 H497 0.959 . S
C513 H498 0.959 . S
C513 H499 0.961 . S
C513 C512 1.502 . S
C514 H500 0.960 . S
C514 H501 0.961 . S
C514 H502 0.959 . S
C514 C512 1.561 1_455 S
C515 C512 1.526 . S
C515 C516 1.396 1_655 S
C515 C520 1.390 . S
C516 C510 1.465 . S
C516 C515 1.396 1_455 S
C516 C517 1.399 . S
C517 H503 0.929 1_565 S
C517 C516 1.399 . S
C517 C518 1.385 1_455 S
C518 H504 0.931 . S
C518 C517 1.385 1_655 S
C518 C519 1.389 . S
C519 C518 1.389 . S
C519 C520 1.387 . S
C520 H505 0.930 . S
C520 C515 1.390 . S
C520 C519 1.387 . S
H521 C533 0.930 . S
H522 C535 0.930 . S
H523 C536 0.930 1_565 S
H524 C540 0.959 . S
H525 C540 0.959 . S
H526 C540 0.961 . S
H527 C541 0.960 . S
H528 C541 0.961 . S
H529 C541 0.959 . S
H530 C544 0.929 1_565 S
H531 C545 0.931 . S
H532 C547 0.930 . S
C533 H521 0.930 . S
C533 C534 1.399 . S
C533 C538 1.399 . S
C534 C533 1.399 . S
C534 C535 1.376 . S
C535 H522 0.930 . S
C535 C534 1.376 . S
C535 C536 1.388 . S
C536 H523 0.930 1_545 S
C536 C535 1.388 . S
C536 C537 1.390 . S
C537 C536 1.390 . S
C537 C538 1.394 . S
C537 C543 1.465 . S
C538 C533 1.399 . S
C538 C537 1.394 . S
C538 C539 1.516 . S
C539 C538 1.516 . S
C539 C540 1.502 . S
C539 C541 1.561 . S
C539 C542 1.526 . S
C540 H524 0.959 . S
C540 H525 0.959 . S
C540 H526 0.961 . S
C540 C539 1.502 . S
C541 H527 0.960 . S
C541 H528 0.961 . S
C541 H529 0.959 . S
C541 C539 1.561 . S
C542 C539 1.526 . S
C542 C543 1.396 . S
C542 C547 1.390 . S
C543 C537 1.465 . S
C543 C542 1.396 . S
C543 C544 1.399 . S
C544 H530 0.929 1_545 S
C544 C543 1.399 . S
C544 C545 1.385 . S
C545 H531 0.931 . S
C545 C544 1.385 . S
C545 C546 1.389 . S
C546 C545 1.389 . S
C546 C547 1.387 . S
C547 H532 0.930 . S
C547 C542 1.390 . S
C547 C546 1.387 . S
H548 C560 0.930 . S
H549 C562 0.930 . S
H550 C563 0.930 . S
H551 C567 0.959 . S
H552 C567 0.959 . S
H553 C567 0.961 . S
H554 C568 0.960 . S
H555 C568 0.961 . S
H556 C568 0.959 . S
H557 C571 0.929 . S
H558 C572 0.931 . S
H559 C574 0.930 . S
C560 H548 0.930 . S
C560 C561 1.399 . S
C560 C565 1.399 . S
C561 C560 1.399 . S
C561 C562 1.376 . S
C562 H549 0.930 . S
C562 C561 1.376 . S
C562 C563 1.388 . S
C563 H550 0.930 . S
C563 C562 1.388 . S
C563 C564 1.390 . S
C564 C563 1.390 . S
C564 C565 1.394 . S
C564 C570 1.465 . S
C565 C560 1.399 . S
C565 C564 1.394 . S
C565 C566 1.516 . S
C566 C565 1.516 . S
C566 C567 1.502 . S
C566 C568 1.561 . S
C566 C569 1.526 . S
C567 H551 0.959 . S
C567 H552 0.959 . S
C567 H553 0.961 . S
C567 C566 1.502 . S
C568 H554 0.960 . S
C568 H555 0.961 . S
C568 H556 0.959 . S
C568 C566 1.561 . S
C569 C566 1.526 . S
C569 C570 1.396 . S
C569 C574 1.390 . S
C570 C564 1.465 . S
C570 C569 1.396 . S
C570 C571 1.399 . S
C571 H557 0.929 . S
C571 C570 1.399 . S
C571 C572 1.385 . S
C572 H558 0.931 . S
C572 C571 1.385 . S
C572 C573 1.389 . S
C573 C572 1.389 . S
C573 C574 1.387 . S
C574 H559 0.930 . S
C574 C569 1.390 . S
C574 C573 1.387 . S
H575 C587 0.930 . S
H576 C589 0.930 . S
H577 C590 0.931 1_655 S
H578 C594 0.959 . S
H579 C594 0.959 . S
H580 C594 0.961 . S
H581 C595 0.960 . S
H582 C595 0.961 . S
H583 C595 0.959 . S
H584 C598 0.929 . S
H585 C599 0.931 . S
H586 C601 0.930 . S
C587 H575 0.930 . S
C587 C588 1.399 . S
C587 C592 1.399 . S
C588 C587 1.399 . S
C588 C589 1.376 . S
C589 H576 0.930 . S
C589 C588 1.376 . S
C589 C590 1.388 . S
C590 H577 0.931 1_455 S
C590 C589 1.388 . S
C590 C591 1.390 1_455 S
C591 C590 1.390 1_655 S
C591 C592 1.394 1_655 S
C591 C597 1.465 . S
C592 C587 1.399 . S
C592 C591 1.394 1_455 S
C592 C593 1.516 . S
C593 C592 1.516 . S
C593 C594 1.502 . S
C593 C595 1.561 1_455 S
C593 C596 1.526 1_455 S
C594 H578 0.959 . S
C594 H579 0.959 . S
C594 H580 0.961 . S
C594 C593 1.502 . S
C595 H581 0.960 . S
C595 H582 0.961 . S
C595 H583 0.959 . S
C595 C593 1.561 1_655 S
C596 C593 1.526 1_655 S
C596 C597 1.396 . S
C596 C601 1.390 . S
C597 C591 1.465 . S
C597 C596 1.396 . S
C597 C598 1.399 . S
C598 H584 0.929 . S
C598 C597 1.399 . S
C598 C599 1.385 . S
C599 H585 0.931 . S
C599 C598 1.385 . S
C599 C600 1.389 . S
C600 C599 1.389 . S
C600 C601 1.387 . S
C601 H586 0.930 . S
C601 C596 1.390 . S
C601 C600 1.387 . S
H602 C614 0.930 . S
H603 C616 0.930 . S
H604 C617 0.930 . S
H605 C621 0.959 . S
H606 C621 0.959 . S
H607 C621 0.961 . S
H608 C622 0.960 . S
H609 C622 0.961 . S
H610 C622 0.959 . S
H611 C625 0.929 . S
H612 C626 0.931 . S
H613 C628 0.930 . S
C614 H602 0.930 . S
C614 C615 1.399 . S
C614 C619 1.399 . S
C615 C614 1.399 . S
C615 C616 1.376 . S
C616 H603 0.930 . S
C616 C615 1.376 . S
C616 C617 1.388 . S
C617 H604 0.930 . S
C617 C616 1.388 . S
C617 C618 1.390 . S
C618 C617 1.390 . S
C618 C619 1.394 . S
C618 C624 1.465 . S
C619 C614 1.399 . S
C619 C618 1.394 . S
C619 C620 1.516 . S
C620 C619 1.516 . S
C620 C621 1.502 . S
C620 C622 1.561 . S
C620 C623 1.526 . S
C621 H605 0.959 . S
C621 H606 0.959 . S
C621 H607 0.961 . S
C621 C620 1.502 . S
C622 H608 0.960 . S
C622 H609 0.961 . S
C622 H610 0.959 . S
C622 C620 1.561 . S
C623 C620 1.526 . S
C623 C624 1.396 . S
C623 C628 1.390 . S
C624 C618 1.465 . S
C624 C623 1.396 . S
C624 C625 1.399 . S
C625 H611 0.929 . S
C625 C624 1.399 . S
C625 C626 1.385 . S
C626 H612 0.931 . S
C626 C625 1.385 . S
C626 C627 1.389 . S
C627 C626 1.389 . S
C627 C628 1.387 . S
C628 H613 0.930 . S
C628 C623 1.390 . S
C628 C627 1.387 . S
H629 C641 0.930 . S
H630 C643 0.931 . S
H631 C644 0.930 . S
H632 C648 0.959 . S
H633 C648 0.959 . S
H634 C648 0.961 . S
H635 C649 0.960 . S
H636 C649 0.961 . S
H637 C649 0.959 . S
H638 C652 0.929 . S
H639 C653 0.931 . S
H640 C655 0.930 1_455 S
C641 H629 0.930 . S
C641 C642 1.399 . S
C641 C646 1.399 . S
C642 C641 1.399 . S
C642 C643 1.376 1_455 S
C643 H630 0.931 . S
C643 C642 1.376 1_655 S
C643 C644 1.389 . S
C644 H631 0.930 . S
C644 C643 1.389 . S
C644 C645 1.390 . S
C645 C644 1.390 . S
C645 C646 1.394 1_655 S
C645 C651 1.465 . S
C646 C641 1.399 . S
C646 C645 1.394 1_455 S
C646 C647 1.516 . S
C647 C646 1.516 . S
C647 C648 1.502 . S
C647 C649 1.561 . S
C647 C650 1.526 . S
C648 H632 0.959 . S
C648 H633 0.959 . S
C648 H634 0.961 . S
C648 C647 1.502 . S
C649 H635 0.960 . S
C649 H636 0.961 . S
C649 H637 0.959 . S
C649 C647 1.561 . S
C650 C647 1.526 . S
C650 C651 1.396 1_455 S
C650 C655 1.390 1_455 S
C651 C645 1.465 . S
C651 C650 1.396 1_655 S
C651 C652 1.399 . S
C652 H638 0.929 . S
C652 C651 1.399 . S
C652 C653 1.385 . S
C653 H639 0.931 . S
C653 C652 1.385 . S
C653 C654 1.389 . S
C654 C653 1.389 . S
C654 C655 1.387 . S
C655 H640 0.930 1_655 S
C655 C650 1.390 1_655 S
C655 C654 1.387 . S
H656 C668 0.930 . S
H657 C670 0.930 . S
H658 C671 0.930 . S
H659 C675 0.959 . S
H660 C675 0.959 1_655 S
H661 C675 0.961 . S
H662 C676 0.960 . S
H663 C676 0.961 . S
H664 C676 0.959 . S
H665 C679 0.929 1_455 S
H666 C680 0.931 . S
H667 C682 0.930 . S
C668 H656 0.930 . S
C668 C669 1.399 . S
C668 C673 1.399 . S
C669 C668 1.399 . S
C669 C670 1.376 . S
C670 H657 0.930 . S
C670 C669 1.376 . S
C670 C671 1.388 . S
C671 H658 0.930 . S
C671 C670 1.388 . S
C671 C672 1.390 . S
C672 C671 1.390 . S
C672 C673 1.394 . S
C672 C678 1.465 1_455 S
C673 C668 1.399 . S
C673 C672 1.394 . S
C673 C674 1.516 1_455 S
C674 C673 1.516 1_655 S
C674 C675 1.502 1_655 S
C674 C676 1.561 . S
C674 C677 1.526 . S
C675 H659 0.959 . S
C675 H660 0.959 1_455 S
C675 H661 0.961 . S
C675 C674 1.502 1_455 S
C676 H662 0.960 . S
C676 H663 0.961 . S
C676 H664 0.959 . S
C676 C674 1.561 . S
C677 C674 1.526 . S
C677 C678 1.396 . S
C677 C682 1.390 . S
C678 C672 1.465 1_655 S
C678 C677 1.396 . S
C678 C679 1.399 . S
C679 H665 0.929 1_655 S
C679 C678 1.399 . S
C679 C680 1.385 . S
C680 H666 0.931 . S
C680 C679 1.385 . S
C680 C681 1.389 . S
C681 C680 1.389 . S
C681 C682 1.387 . S
C682 H667 0.930 . S
C682 C677 1.390 . S
C682 C681 1.387 . S
H683 C695 0.930 . S
H684 C697 0.930 . S
H685 C698 0.930 . S
H686 C702 0.959 . S
H687 C702 0.959 . S
H688 C702 0.961 . S
H689 C703 0.960 . S
H690 C703 0.961 . S
H691 C703 0.959 . S
H692 C706 0.929 . S
H693 C707 0.931 . S
H694 C709 0.930 . S
C695 H683 0.930 . S
C695 C696 1.399 . S
C695 C700 1.399 . S
C696 C695 1.399 . S
C696 C697 1.376 . S
C697 H684 0.930 . S
C697 C696 1.376 . S
C697 C698 1.388 . S
C698 H685 0.930 . S
C698 C697 1.388 . S
C698 C699 1.390 . S
C699 C698 1.390 . S
C699 C700 1.394 . S
C699 C705 1.465 . S
C700 C695 1.399 . S
C700 C699 1.394 . S
C700 C701 1.516 . S
C701 C700 1.516 . S
C701 C702 1.502 . S
C701 C703 1.561 . S
C701 C704 1.526 . S
C702 H686 0.959 . S
C702 H687 0.959 . S
C702 H688 0.961 . S
C702 C701 1.502 . S
C703 H689 0.960 . S
C703 H690 0.961 . S
C703 H691 0.959 . S
C703 C701 1.561 . S
C704 C701 1.526 . S
C704 C705 1.396 . S
C704 C709 1.390 . S
C705 C699 1.465 . S
C705 C704 1.396 . S
C705 C706 1.399 . S
C706 H692 0.929 . S
C706 C705 1.399 . S
C706 C707 1.385 . S
C707 H693 0.931 . S
C707 C706 1.385 . S
C707 C708 1.389 . S
C708 C707 1.389 . S
C708 C709 1.387 . S
C709 H694 0.930 . S
C709 C704 1.390 . S
C709 C708 1.387 . S
H710 C722 0.930 . S
H711 C724 0.930 . S
H712 C725 0.930 . S
H713 C729 0.959 . S
H714 C729 0.959 . S
H715 C729 0.961 . S
H716 C730 0.960 . S
H717 C730 0.961 . S
H718 C730 0.959 . S
H719 C733 0.929 . S
H720 C734 0.931 . S
H721 C736 0.930 . S
C722 H710 0.930 . S
C722 C723 1.399 . S
C722 C727 1.399 . S
C723 C722 1.399 . S
C723 C724 1.376 . S
C724 H711 0.930 . S
C724 C723 1.376 . S
C724 C725 1.388 . S
C725 H712 0.930 . S
C725 C724 1.388 . S
C725 C726 1.390 . S
C726 C725 1.390 . S
C726 C727 1.394 . S
C726 C732 1.465 . S
C727 C722 1.399 . S
C727 C726 1.394 . S
C727 C728 1.516 . S
C728 C727 1.516 . S
C728 C729 1.502 . S
C728 C730 1.561 . S
C728 C731 1.526 . S
C729 H713 0.959 . S
C729 H714 0.959 . S
C729 H715 0.961 . S
C729 C728 1.502 . S
C730 H716 0.960 . S
C730 H717 0.961 . S
C730 H718 0.959 . S
C730 C728 1.561 . S
C731 C728 1.526 . S
C731 C732 1.396 . S
C731 C736 1.390 . S
C732 C726 1.465 . S
C732 C731 1.396 . S
C732 C733 1.399 . S
C733 H719 0.929 . S
C733 C732 1.399 . S
C733 C734 1.385 . S
C734 H720 0.931 . S
C734 C733 1.385 . S
C734 C735 1.389 . S
C735 C734 1.389 . S
C735 C736 1.387 . S
C736 H721 0.930 . S
C736 C731 1.390 . S
C736 C735 1.387 . S
H737 C749 0.930 1_655 S
H738 C751 0.930 . S
H739 C752 0.930 . S
H740 C756 0.959 1_455 S
H741 C756 0.959 . S
H742 C756 0.961 . S
H743 C757 0.960 . S
H744 C757 0.961 . S
H745 C757 0.959 . S
H746 C760 0.929 . S
H747 C761 0.931 1_455 S
H748 C763 0.930 . S
C749 H737 0.930 1_455 S
C749 C750 1.399 . S
C749 C754 1.399 1_455 S
C750 C749 1.399 . S
C750 C751 1.376 . S
C751 H738 0.930 . S
C751 C750 1.376 . S
C751 C752 1.388 . S
C752 H739 0.930 . S
C752 C751 1.388 . S
C752 C753 1.390 . S
C753 C752 1.390 . S
C753 C754 1.394 1_455 S
C753 C759 1.465 . S
C754 C749 1.399 1_655 S
C754 C753 1.394 1_655 S
C754 C755 1.516 . S
C755 C754 1.516 . S
C755 C756 1.502 . S
C755 C757 1.561 . S
C755 C758 1.526 . S
C756 H740 0.959 1_655 S
C756 H741 0.959 . S
C756 H742 0.961 . S
C756 C755 1.502 . S
C757 H743 0.960 . S
C757 H744 0.961 . S
C757 H745 0.959 . S
C757 C755 1.561 . S
C758 C755 1.526 . S
C758 C759 1.396 1_655 S
C758 C763 1.390 . S
C759 C753 1.465 . S
C759 C758 1.396 1_455 S
C759 C760 1.399 . S
C760 H746 0.929 . S
C760 C759 1.399 . S
C760 C761 1.385 1_455 S
C761 H747 0.931 1_655 S
C761 C760 1.385 1_655 S
C761 C762 1.389 . S
C762 C761 1.389 . S
C762 C763 1.387 . S
C763 H748 0.930 . S
C763 C758 1.390 . S
C763 C762 1.387 . S
H764 C776 0.930 . S
H765 C778 0.930 . S
H766 C779 0.930 . S
H767 C783 0.959 . S
H768 C783 0.959 . S
H769 C783 0.961 . S
H770 C784 0.960 . S
H771 C784 0.961 . S
H772 C784 0.959 . S
H773 C787 0.929 . S
H774 C788 0.931 . S
H775 C790 0.930 . S
C776 H764 0.930 . S
C776 C777 1.399 1_655 S
C776 C781 1.399 . S
C777 C776 1.399 1_455 S
C777 C778 1.376 . S
C778 H765 0.930 . S
C778 C777 1.376 . S
C778 C779 1.388 . S
C779 H766 0.930 . S
C779 C778 1.388 . S
C779 C780 1.390 . S
C780 C779 1.390 . S
C780 C781 1.394 1_455 S
C780 C786 1.465 . S
C781 C776 1.399 . S
C781 C780 1.394 1_655 S
C781 C782 1.516 . S
C782 C781 1.516 . S
C782 C783 1.502 . S
C782 C784 1.561 . S
C782 C785 1.526 . S
C783 H767 0.959 . S
C783 H768 0.959 . S
C783 H769 0.961 . S
C783 C782 1.502 . S
C784 H770 0.960 . S
C784 H771 0.961 . S
C784 H772 0.959 . S
C784 C782 1.561 . S
C785 C782 1.526 . S
C785 C786 1.396 1_655 S
C785 C790 1.390 . S
C786 C780 1.465 . S
C786 C785 1.396 1_455 S
C786 C787 1.399 . S
C787 H773 0.929 . S
C787 C786 1.399 . S
C787 C788 1.385 . S
C788 H774 0.931 . S
C788 C787 1.385 . S
C788 C789 1.389 1_455 S
C789 C788 1.389 1_655 S
C789 C790 1.387 . S
C790 H775 0.930 . S
C790 C785 1.390 . S
C790 C789 1.387 . S
H791 C803 0.930 . S
H792 C805 0.930 . S
H793 C806 0.930 . S
H794 C810 0.959 . S
H795 C810 0.959 . S
H796 C810 0.961 . S
H797 C811 0.960 . S
H798 C811 0.961 . S
H799 C811 0.959 . S
H800 C814 0.929 . S
H801 C815 0.931 . S
H802 C817 0.930 . S
C803 H791 0.930 . S
C803 C804 1.399 . S
C803 C808 1.399 . S
C804 C803 1.399 . S
C804 C805 1.376 . S
C805 H792 0.930 . S
C805 C804 1.376 . S
C805 C806 1.388 . S
C806 H793 0.930 . S
C806 C805 1.388 . S
C806 C807 1.390 . S
C807 C806 1.390 . S
C807 C808 1.394 . S
C807 C813 1.465 . S
C808 C803 1.399 . S
C808 C807 1.394 . S
C808 C809 1.516 . S
C809 C808 1.516 . S
C809 C810 1.502 . S
C809 C811 1.561 . S
C809 C812 1.526 . S
C810 H794 0.959 . S
C810 H795 0.959 . S
C810 H796 0.961 . S
C810 C809 1.502 . S
C811 H797 0.960 . S
C811 H798 0.961 . S
C811 H799 0.959 . S
C811 C809 1.561 . S
C812 C809 1.526 . S
C812 C813 1.396 . S
C812 C817 1.390 . S
C813 C807 1.465 . S
C813 C812 1.396 . S
C813 C814 1.399 . S
C814 H800 0.929 . S
C814 C813 1.399 . S
C814 C815 1.385 . S
C815 H801 0.931 . S
C815 C814 1.385 . S
C815 C816 1.389 . S
C816 C815 1.389 . S
C816 C817 1.387 . S
C817 H802 0.930 . S
C817 C812 1.390 . S
C817 C816 1.387 . S
H818 C830 0.930 . S
H819 C832 0.930 . S
H820 C833 0.930 . S
H821 C837 0.959 . S
H822 C837 0.959 . S
H823 C837 0.961 . S
H824 C838 0.960 . S
H825 C838 0.961 . S
H826 C838 0.959 . S
H827 C841 0.929 . S
H828 C842 0.931 . S
H829 C844 0.930 . S
C830 H818 0.930 . S
C830 C831 1.399 . S
C830 C835 1.399 . S
C831 C830 1.399 . S
C831 C832 1.376 . S
C832 H819 0.930 . S
C832 C831 1.376 . S
C832 C833 1.388 . S
C833 H820 0.930 . S
C833 C832 1.388 . S
C833 C834 1.390 . S
C834 C833 1.390 . S
C834 C835 1.394 . S
C834 C840 1.465 . S
C835 C830 1.399 . S
C835 C834 1.394 . S
C835 C836 1.516 . S
C836 C835 1.516 . S
C836 C837 1.502 . S
C836 C838 1.561 . S
C836 C839 1.526 . S
C837 H821 0.959 . S
C837 H822 0.959 . S
C837 H823 0.961 . S
C837 C836 1.502 . S
C838 H824 0.960 . S
C838 H825 0.961 . S
C838 H826 0.959 . S
C838 C836 1.561 . S
C839 C836 1.526 . S
C839 C840 1.396 . S
C839 C844 1.390 . S
C840 C834 1.465 . S
C840 C839 1.396 . S
C840 C841 1.399 . S
C841 H827 0.929 . S
C841 C840 1.399 . S
C841 C842 1.385 . S
C842 H828 0.931 . S
C842 C841 1.385 . S
C842 C843 1.389 . S
C843 C842 1.389 . S
C843 C844 1.387 . S
C844 H829 0.930 . S
C844 C839 1.390 . S
C844 C843 1.387 . S
H845 C857 0.930 . S
H846 C859 0.930 . S
H847 C860 0.930 . S
H848 C864 0.959 . S
H849 C864 0.959 . S
H850 C864 0.961 . S
H851 C865 0.960 . S
H852 C865 0.961 . S
H853 C865 0.959 . S
H854 C868 0.929 . S
H855 C869 0.931 . S
H856 C871 0.930 . S
C857 H845 0.930 . S
C857 C858 1.399 . S
C857 C862 1.399 . S
C858 C857 1.399 . S
C858 C859 1.376 . S
C859 H846 0.930 . S
C859 C858 1.376 . S
C859 C860 1.388 1_455 S
C860 H847 0.930 . S
C860 C859 1.388 1_655 S
C860 C861 1.390 . S
C861 C860 1.390 . S
C861 C862 1.394 1_655 S
C861 C867 1.465 . S
C862 C857 1.399 . S
C862 C861 1.394 1_455 S
C862 C863 1.516 . S
C863 C862 1.516 . S
C863 C864 1.502 . S
C863 C865 1.561 1_455 S
C863 C866 1.526 1_455 S
C864 H848 0.959 . S
C864 H849 0.959 . S
C864 H850 0.961 . S
C864 C863 1.502 . S
C865 H851 0.960 . S
C865 H852 0.961 . S
C865 H853 0.959 . S
C865 C863 1.561 1_655 S
C866 C863 1.526 1_655 S
C866 C867 1.396 . S
C866 C871 1.390 . S
C867 C861 1.465 . S
C867 C866 1.396 . S
C867 C868 1.399 . S
C868 H854 0.929 . S
C868 C867 1.399 . S
C868 C869 1.385 . S
C869 H855 0.931 . S
C869 C868 1.385 . S
C869 C870 1.389 . S
C870 C869 1.389 . S
C870 C871 1.387 . S
C871 H856 0.930 . S
C871 C866 1.390 . S
C871 C870 1.387 . S
H872 C884 0.930 1_545 S
H873 C886 0.930 . S
H874 C887 0.928 1_554 S
H875 C891 0.959 . S
H876 C891 0.959 . S
H877 C891 0.961 . S
H878 C892 0.960 . S
H879 C892 0.961 . S
H880 C892 0.959 . S
H881 C895 0.929 . S
H882 C896 0.931 . S
H883 C898 0.930 . S
C884 H872 0.930 1_565 S
C884 C885 1.399 . S
C884 C889 1.399 1_565 S
C885 C884 1.399 . S
C885 C886 1.376 . S
C886 H873 0.930 . S
C886 C885 1.376 . S
C886 C887 1.388 . S
C887 H874 0.928 1_556 S
C887 C886 1.388 . S
C887 C888 1.390 . S
C888 C887 1.390 . S
C888 C889 1.394 1_565 S
C888 C894 1.465 1_556 S
C889 C884 1.399 1_545 S
C889 C888 1.394 1_545 S
C889 C890 1.516 1_655 S
C890 C889 1.516 1_455 S
C890 C891 1.502 . S
C890 C892 1.561 1_455 S
C890 C893 1.526 1_556 S
C891 H875 0.959 . S
C891 H876 0.959 . S
C891 H877 0.961 . S
C891 C890 1.502 . S
C892 H878 0.960 . S
C892 H879 0.961 . S
C892 H880 0.959 . S
C892 C890 1.561 1_655 S
C893 C890 1.526 1_554 S
C893 C894 1.396 1_445 S
C893 C898 1.390 . S
C894 C888 1.465 1_554 S
C894 C893 1.396 1_665 S
C894 C895 1.399 . S
C895 H881 0.929 . S
C895 C894 1.399 . S
C895 C896 1.385 1_655 S
C896 H882 0.931 . S
C896 C895 1.385 1_455 S
C896 C897 1.389 1_565 S
C897 C896 1.389 1_545 S
C897 C898 1.387 . S
C898 H883 0.930 . S
C898 C893 1.390 . S
C898 C897 1.387 . S
H899 C911 0.930 . S
H900 C913 0.930 . S
H901 C914 0.930 . S
H902 C918 0.959 . S
H903 C918 0.959 . S
H904 C918 0.961 . S
H905 C919 0.960 1_556 S
H906 C919 0.961 . S
H907 C919 0.947 1_556 S
H908 C922 0.929 . S
H909 C923 0.931 . S
H910 C925 0.930 1_545 S
C911 H899 0.930 . S
C911 C912 1.399 . S
C911 C916 1.399 . S
C912 C911 1.399 . S
C912 C913 1.376 1_545 S
C913 H900 0.930 . S
C913 C912 1.376 1_565 S
C913 C914 1.388 . S
C914 H901 0.930 . S
C914 C913 1.388 . S
C914 C915 1.390 . S
C915 C914 1.390 . S
C915 C916 1.394 1_565 S
C915 C921 1.465 1_556 S
C916 C911 1.399 . S
C916 C915 1.394 1_545 S
C916 C917 1.516 1_556 S
C917 C916 1.516 1_554 S
C917 C918 1.502 . S
C917 C919 1.561 . S
C917 C920 1.526 . S
C918 H902 0.959 . S
C918 H903 0.959 . S
C918 H904 0.961 . S
C918 C917 1.502 . S
C919 H905 0.960 1_554 S
C919 H906 0.961 . S
C919 H907 0.947 1_554 S
C919 C917 1.561 . S
C920 C917 1.526 . S
C920 C921 1.396 1_545 S
C920 C925 1.390 1_545 S
C921 C915 1.465 1_554 S
C921 C920 1.396 1_565 S
C921 C922 1.399 . S
C922 H908 0.929 . S
C922 C921 1.399 . S
C922 C923 1.385 . S
C923 H909 0.931 . S
C923 C922 1.385 . S
C923 C924 1.389 . S
C924 C923 1.389 . S
C924 C925 1.387 . S
C925 H910 0.930 1_565 S
C925 C920 1.390 1_565 S
C925 C924 1.387 . S
H926 C938 0.930 1_565 S
H927 C940 0.930 . S
H928 C941 0.930 . S
H929 C945 0.959 . S
H930 C945 0.959 . S
H931 C945 0.961 . S
H932 C946 0.960 . S
H933 C946 0.961 . S
H934 C946 0.959 . S
H935 C949 0.929 . S
H936 C950 0.931 . S
H937 C952 0.930 . S
C938 H926 0.930 1_545 S
C938 C939 1.399 . S
C938 C943 1.393 1_545 S
C939 C938 1.399 . S
C939 C940 1.376 . S
C940 H927 0.930 . S
C940 C939 1.376 . S
C940 C941 1.388 . S
C941 H928 0.930 . S
C941 C940 1.388 . S
C941 C942 1.390 . S
C942 C941 1.390 . S
C942 C943 1.385 1_545 S
C942 C948 1.477 . S
C943 C938 1.393 1_565 S
C943 C942 1.385 1_565 S
C943 C944 1.531 . S
C944 C943 1.531 . S
C944 C945 1.502 . S
C944 C946 1.561 . S
C944 C947 1.526 . S
C945 H929 0.959 . S
C945 H930 0.959 . S
C945 H931 0.961 . S
C945 C944 1.502 . S
C946 H932 0.960 . S
C946 H933 0.961 . S
C946 H934 0.959 . S
C946 C944 1.561 . S
C947 C944 1.526 . S
C947 C948 1.374 1_565 S
C947 C952 1.390 . S
C948 C942 1.477 . S
C948 C947 1.374 1_545 S
C948 C949 1.406 . S
C949 H935 0.929 . S
C949 C948 1.406 . S
C949 C950 1.385 1_545 S
C950 H936 0.931 . S
C950 C949 1.385 1_565 S
C950 C951 1.389 . S
C951 C950 1.389 . S
C951 C952 1.387 . S
C952 H937 0.930 . S
C952 C947 1.390 . S
C952 C951 1.387 . S
H953 C965 0.930 1_545 S
H954 C967 0.930 . S
H955 C968 0.930 . S
H956 C972 0.959 . S
H957 C972 0.959 . S
H958 C972 0.961 . S
H959 C973 0.960 . S
H960 C973 0.961 . S
H961 C973 0.959 . S
H962 C976 0.929 . S
H963 C977 0.931 . S
H964 C979 0.930 . S
C965 H953 0.930 1_565 S
C965 C966 1.399 . S
C965 C970 1.399 1_565 S
C966 C965 1.399 . S
C966 C967 1.376 . S
C967 H954 0.930 . S
C967 C966 1.376 . S
C967 C968 1.388 . S
C968 H955 0.930 . S
C968 C967 1.388 . S
C968 C969 1.390 . S
C969 C968 1.390 . S
C969 C970 1.394 1_565 S
C969 C975 1.465 . S
C970 C965 1.399 1_545 S
C970 C969 1.394 1_545 S
C970 C971 1.516 1_455 S
C971 C970 1.516 1_655 S
C971 C972 1.502 . S
C971 C973 1.561 1_655 S
C971 C974 1.526 . S
C972 H956 0.959 . S
C972 H957 0.959 . S
C972 H958 0.961 . S
C972 C971 1.502 . S
C973 H959 0.960 . S
C973 H960 0.961 . S
C973 H961 0.959 . S
C973 C971 1.561 1_455 S
C974 C971 1.526 . S
C974 C975 1.396 1_645 S
C974 C979 1.390 . S
C975 C969 1.465 . S
C975 C974 1.396 1_465 S
C975 C976 1.399 . S
C976 H962 0.929 . S
C976 C975 1.399 . S
C976 C977 1.385 1_455 S
C977 H963 0.931 . S
C977 C976 1.385 1_655 S
C977 C978 1.389 1_565 S
C978 C977 1.389 1_545 S
C978 C979 1.387 . S
C979 H964 0.930 . S
C979 C974 1.390 . S
C979 C978 1.387 . S
H980 C992 0.930 . S
H981 C994 0.930 . S
H982 C995 0.930 . S
H983 C999 0.959 . S
H984 C999 0.959 . S
H985 C999 0.961 . S
H986 C1000 0.960 . S
H987 C1000 0.961 . S
H988 C1000 0.959 . S
H989 C1003 0.929 . S
H990 C1004 0.931 . S
H991 C1006 0.930 . S
C992 H980 0.930 . S
C992 C993 1.399 . S
C992 C997 1.399 . S
C993 C992 1.399 . S
C993 C994 1.376 . S
C994 H981 0.930 . S
C994 C993 1.376 . S
C994 C995 1.388 . S
C995 H982 0.930 . S
C995 C994 1.388 . S
C995 C996 1.390 . S
C996 C995 1.390 . S
C996 C997 1.394 . S
C996 C1002 1.465 1_554 S
C997 C992 1.399 . S
C997 C996 1.394 . S
C997 C998 1.516 . S
C998 C997 1.516 . S
C998 C999 1.502 . S
C998 C1000 1.561 . S
C998 C1001 1.526 1_554 S
C999 H983 0.959 . S
C999 H984 0.959 . S
C999 H985 0.961 . S
C999 C998 1.502 . S
C1000 H986 0.960 . S
C1000 H987 0.961 . S
C1000 H988 0.959 . S
C1000 C998 1.561 . S
C1001 C998 1.526 1_556 S
C1001 C1002 1.396 . S
C1001 C1006 1.390 . S
C1002 C996 1.465 1_556 S
C1002 C1001 1.396 . S
C1002 C1003 1.399 . S
C1003 H989 0.929 . S
C1003 C1002 1.399 . S
C1003 C1004 1.385 . S
C1004 H990 0.931 . S
C1004 C1003 1.385 . S
C1004 C1005 1.389 . S
C1005 C1004 1.389 . S
C1005 C1006 1.387 . S
C1006 H991 0.930 . S
C1006 C1001 1.390 . S
C1006 C1005 1.387 . S
H1007 C1019 0.930 . S
H1008 C1021 0.930 . S
H1009 C1022 0.930 . S
H1010 C1026 0.959 . S
H1011 C1026 0.959 . S
H1012 C1026 0.961 1_554 S
H1013 C1027 0.960 . S
H1014 C1027 0.958 . S
H1015 C1027 0.959 . S
H1016 C1030 0.929 . S
H1017 C1031 0.931 . S
H1018 C1033 0.925 1_655 S
C1019 H1007 0.930 . S
C1019 C1020 1.399 . S
C1019 C1024 1.399 . S
C1020 C1019 1.399 . S
C1020 C1021 1.376 1_655 S
C1021 H1008 0.930 . S
C1021 C1020 1.376 1_455 S
C1021 C1022 1.388 . S
C1022 H1009 0.930 . S
C1022 C1021 1.388 . S
C1022 C1023 1.390 . S
C1023 C1022 1.390 . S
C1023 C1024 1.394 1_455 S
C1023 C1029 1.465 1_554 S
C1024 C1019 1.399 . S
C1024 C1023 1.394 1_655 S
C1024 C1025 1.537 . S
C1025 C1024 1.537 . S
C1025 C1026 1.491 1_554 S
C1025 C1027 1.573 . S
C1025 C1028 1.505 1_554 S
C1026 H1010 0.959 . S
C1026 H1011 0.959 . S
C1026 H1012 0.961 1_556 S
C1026 C1025 1.491 1_556 S
C1027 H1013 0.960 . S
C1027 H1014 0.958 . S
C1027 H1015 0.959 . S
C1027 C1025 1.573 . S
C1028 C1025 1.505 1_556 S
C1028 C1029 1.396 1_655 S
C1028 C1033 1.389 1_655 S
C1029 C1023 1.465 1_556 S
C1029 C1028 1.396 1_455 S
C1029 C1030 1.399 . S
C1030 H1016 0.929 . S
C1030 C1029 1.399 . S
C1030 C1031 1.385 . S
C1031 H1017 0.931 . S
C1031 C1030 1.385 . S
C1031 C1032 1.389 . S
C1032 C1031 1.389 . S
C1032 C1033 1.392 . S
C1033 H1018 0.925 1_455 S
C1033 C1028 1.389 1_455 S
C1033 C1032 1.392 . S
H1034 C1046 0.930 1_455 S
H1035 C1048 0.930 . S
H1036 C1049 0.930 . S
H1037 C1053 0.959 . S
H1038 C1053 0.959 . S
H1039 C1053 0.961 . S
H1040 C1054 0.960 . S
H1041 C1054 0.961 . S
H1042 C1054 0.959 . S
H1043 C1057 0.929 . S
H1044 C1058 0.931 . S
H1045 C1060 0.930 . S
C1046 H1034 0.930 1_655 S
C1046 C1047 1.399 . S
C1046 C1051 1.399 1_655 S
C1047 C1046 1.399 . S
C1047 C1048 1.376 . S
C1048 H1035 0.930 . S
C1048 C1047 1.376 . S
C1048 C1049 1.388 . S
C1049 H1036 0.930 . S
C1049 C1048 1.388 . S
C1049 C1050 1.390 . S
C1050 C1049 1.390 . S
C1050 C1051 1.394 1_655 S
C1050 C1056 1.465 . S
C1051 C1046 1.399 1_455 S
C1051 C1050 1.394 1_455 S
C1051 C1052 1.516 . S
C1052 C1051 1.516 . S
C1052 C1053 1.502 . S
C1052 C1054 1.561 . S
C1052 C1055 1.526 . S
C1053 H1037 0.959 . S
C1053 H1038 0.959 . S
C1053 H1039 0.961 . S
C1053 C1052 1.502 . S
C1054 H1040 0.960 . S
C1054 H1041 0.961 . S
C1054 H1042 0.959 . S
C1054 C1052 1.561 . S
C1055 C1052 1.526 . S
C1055 C1056 1.396 1_455 S
C1055 C1060 1.390 . S
C1056 C1050 1.465 . S
C1056 C1055 1.396 1_655 S
C1056 C1057 1.399 . S
C1057 H1043 0.929 . S
C1057 C1056 1.399 . S
C1057 C1058 1.385 . S
C1058 H1044 0.931 . S
C1058 C1057 1.385 . S
C1058 C1059 1.389 1_655 S
C1059 C1058 1.389 1_455 S
C1059 C1060 1.387 . S
C1060 H1045 0.930 . S
C1060 C1055 1.390 . S
C1060 C1059 1.387 . S
H1061 C1073 0.930 . S
H1062 C1075 0.930 . S
H1063 C1076 0.930 . S
H1064 C1080 0.959 . S
H1065 C1080 0.959 . S
H1066 C1080 0.961 . S
H1067 C1081 0.960 . S
H1068 C1081 0.961 . S
H1069 C1081 0.959 . S
H1070 C1084 0.929 . S
H1071 C1085 0.931 . S
H1072 C1087 0.930 . S
C1073 H1061 0.930 . S
C1073 C1074 1.399 . S
C1073 C1078 1.399 . S
C1074 C1073 1.399 . S
C1074 C1075 1.376 . S
C1075 H1062 0.930 . S
C1075 C1074 1.376 . S
C1075 C1076 1.388 . S
C1076 H1063 0.930 . S
C1076 C1075 1.388 . S
C1076 C1077 1.390 . S
C1077 C1076 1.390 . S
C1077 C1078 1.394 . S
C1077 C1083 1.465 . S
C1078 C1073 1.399 . S
C1078 C1077 1.394 . S
C1078 C1079 1.516 . S
C1079 C1078 1.516 . S
C1079 C1080 1.502 . S
C1079 C1081 1.561 . S
C1079 C1082 1.526 . S
C1080 H1064 0.959 . S
C1080 H1065 0.959 . S
C1080 H1066 0.961 . S
C1080 C1079 1.502 . S
C1081 H1067 0.960 . S
C1081 H1068 0.961 . S
C1081 H1069 0.959 . S
C1081 C1079 1.561 . S
C1082 C1079 1.526 . S
C1082 C1083 1.396 . S
C1082 C1087 1.390 . S
C1083 C1077 1.465 . S
C1083 C1082 1.396 . S
C1083 C1084 1.399 . S
C1084 H1070 0.929 . S
C1084 C1083 1.399 . S
C1084 C1085 1.385 . S
C1085 H1071 0.931 . S
C1085 C1084 1.385 . S
C1085 C1086 1.389 . S
C1086 C1085 1.389 . S
C1086 C1087 1.387 . S
C1087 H1072 0.930 . S
C1087 C1082 1.390 . S
C1087 C1086 1.387 . S
C237 C22 1.507 . S
C249 C8 1.495 . S
C264 C36 1.508 . S
C276 C50 1.495 . S
C291 C64 1.488 . S
C303 C78 1.508 . S
C318 C106 1.505 . S
C330 C92 1.487 . S
C345 C134 1.507 . S
C357 C120 1.496 . S
C372 C162 1.484 . S
C384 C148 1.504 . S
C399 C190 1.503 . S
C411 C176 1.489 . S
C426 C218 1.501 . S
C438 C204 1.491 . S
C453 C45 1.413 . S
C465 C3 1.407 . S
C480 C17 1.412 . S
C492 C31 1.404 . S
C507 C101 1.401 . S
C519 C59 1.414 . S
C534 C87 1.402 . S
C546 C73 1.414 . S
C561 C115 1.381 . S
C573 C157 1.388 . S
C588 C143 1.414 . S
C600 C129 1.408 . S
C615 C213 1.395 . S
C627 C171 1.381 . S
C642 C185 1.414 . S
C654 C199 1.403 . S
C669 C9 1.467 . S
C681 C135 1.468 . S
C696 C23 1.502 . S
C708 C121 1.476 . S
C723 C163 1.503 . S
C735 C37 1.487 . S
C750 C149 1.472 . S
C762 C51 1.465 . S
C777 C191 1.498 . S
C789 C65 1.463 . S
C804 C177 1.488 . S
C816 C79 1.463 . S
C831 C93 1.490 . S
C843 C219 1.463 . S
C858 C107 1.479 . S
C870 C205 1.502 . S
C885 C63 1.347 . S
C897 C7 1.330 . S
C912 C77 1.335 . S
C924 C21 1.327 . S
C939 C91 1.355 . S
C951 C35 1.320 . S
C966 C105 1.346 . S
C978 C49 1.331 . S
C993 C119 1.319 . S
C1005 C175 1.342 . S
C1020 C133 1.308 . S
C1032 C189 1.360 . S
C1047 C203 1.350 . S
C1059 C147 1.313 . S
C1074 C217 1.318 . S
C1086 C161 1.343 . S
