# Generated by pormake.
# Topology gsi, (4)-cn, num edge types: 1
# Building blocks:
#     Node 0, Type 0, BuildingBlock: AZAVOO_clean_sbu_0, # of connection points: 4
#     Node 1, Type 0, BuildingBlock: AZAVOO_clean_sbu_0, # of connection points: 4
#     Node 2, Type 0, BuildingBlock: AZAVOO_clean_sbu_0, # of connection points: 4
#     Node 3, Type 0, BuildingBlock: AZAVOO_clean_sbu_0, # of connection points: 4
#     Node 4, Type 0, BuildingBlock: AZAVOO_clean_sbu_0, # of connection points: 4
#     Node 5, Type 0, BuildingBlock: AZAVOO_clean_sbu_0, # of connection points: 4
#     Node 6, Type 0, BuildingBlock: AZAVOO_clean_sbu_0, # of connection points: 4
#     Node 7, Type 0, BuildingBlock: AZAVOO_clean_sbu_0, # of connection points: 4
#     Node 8, Type 0, BuildingBlock: AZAVOO_clean_sbu_0, # of connection points: 4
#     Node 9, Type 0, BuildingBlock: AZAVOO_clean_sbu_0, # of connection points: 4
#     Node 10, Type 0, BuildingBlock: AZAVOO_clean_sbu_0, # of connection points: 4
#     Node 11, Type 0, BuildingBlock: AZAVOO_clean_sbu_0, # of connection points: 4
#     Node 12, Type 0, BuildingBlock: AZAVOO_clean_sbu_0, # of connection points: 4
#     Node 13, Type 0, BuildingBlock: AZAVOO_clean_sbu_0, # of connection points: 4
#     Node 14, Type 0, BuildingBlock: AZAVOO_clean_sbu_0, # of connection points: 4
#     Node 15, Type 0, BuildingBlock: AZAVOO_clean_sbu_0, # of connection points: 4
#     Edge 16, Type (0, 0), BuildingBlock: KIFKEQ_clean_linker_1, # of connection points: 2
#     Edge 17, Type (0, 0), BuildingBlock: KIFKEQ_clean_linker_1, # of connection points: 2
#     Edge 18, Type (0, 0), BuildingBlock: KIFKEQ_clean_linker_1, # of connection points: 2
#     Edge 19, Type (0, 0), BuildingBlock: KIFKEQ_clean_linker_1, # of connection points: 2
#     Edge 20, Type (0, 0), BuildingBlock: KIFKEQ_clean_linker_1, # of connection points: 2
#     Edge 21, Type (0, 0), BuildingBlock: KIFKEQ_clean_linker_1, # of connection points: 2
#     Edge 22, Type (0, 0), BuildingBlock: KIFKEQ_clean_linker_1, # of connection points: 2
#     Edge 23, Type (0, 0), BuildingBlock: KIFKEQ_clean_linker_1, # of connection points: 2
#     Edge 24, Type (0, 0), BuildingBlock: KIFKEQ_clean_linker_1, # of connection points: 2
#     Edge 25, Type (0, 0), BuildingBlock: KIFKEQ_clean_linker_1, # of connection points: 2
#     Edge 26, Type (0, 0), BuildingBlock: KIFKEQ_clean_linker_1, # of connection points: 2
#     Edge 27, Type (0, 0), BuildingBlock: KIFKEQ_clean_linker_1, # of connection points: 2
#     Edge 28, Type (0, 0), BuildingBlock: KIFKEQ_clean_linker_1, # of connection points: 2
#     Edge 29, Type (0, 0), BuildingBlock: KIFKEQ_clean_linker_1, # of connection points: 2
#     Edge 30, Type (0, 0), BuildingBlock: KIFKEQ_clean_linker_1, # of connection points: 2
#     Edge 31, Type (0, 0), BuildingBlock: KIFKEQ_clean_linker_1, # of connection points: 2
#     Edge 32, Type (0, 0), BuildingBlock: KIFKEQ_clean_linker_1, # of connection points: 2
#     Edge 33, Type (0, 0), BuildingBlock: KIFKEQ_clean_linker_1, # of connection points: 2
#     Edge 34, Type (0, 0), BuildingBlock: KIFKEQ_clean_linker_1, # of connection points: 2
#     Edge 35, Type (0, 0), BuildingBlock: KIFKEQ_clean_linker_1, # of connection points: 2
#     Edge 36, Type (0, 0), BuildingBlock: KIFKEQ_clean_linker_1, # of connection points: 2
#     Edge 37, Type (0, 0), BuildingBlock: KIFKEQ_clean_linker_1, # of connection points: 2
#     Edge 38, Type (0, 0), BuildingBlock: KIFKEQ_clean_linker_1, # of connection points: 2
#     Edge 39, Type (0, 0), BuildingBlock: KIFKEQ_clean_linker_1, # of connection points: 2
#     Edge 40, Type (0, 0), BuildingBlock: KIFKEQ_clean_linker_1, # of connection points: 2
#     Edge 41, Type (0, 0), BuildingBlock: KIFKEQ_clean_linker_1, # of connection points: 2
#     Edge 42, Type (0, 0), BuildingBlock: KIFKEQ_clean_linker_1, # of connection points: 2
#     Edge 43, Type (0, 0), BuildingBlock: KIFKEQ_clean_linker_1, # of connection points: 2
#     Edge 44, Type (0, 0), BuildingBlock: KIFKEQ_clean_linker_1, # of connection points: 2
#     Edge 45, Type (0, 0), BuildingBlock: KIFKEQ_clean_linker_1, # of connection points: 2
#     Edge 46, Type (0, 0), BuildingBlock: KIFKEQ_clean_linker_1, # of connection points: 2
#     Edge 47, Type (0, 0), BuildingBlock: KIFKEQ_clean_linker_1, # of connection points: 2
# Relax obj value: 0.019
# Max RMSD: 0.029
# Mean RMSD: 0.026
data_MOF--net-gsi--node1-AZAVOO_clean_sbu_0--edge1-KIFKEQ_clean_linker_1
_symmetry_space_group_name_H-M    P1
_symmetry_Int_Tables_number       1
_symmetry_cell_setting            triclinic
loop_
_symmetry_equiv_pos_as_xyz
'x, y, z'
_cell_length_a     44.036568
_cell_length_b     43.677015
_cell_length_c     43.215277
_cell_angle_alpha  89.987175
_cell_angle_beta   89.937094
_cell_angle_gamma 89.978217
loop_
_atom_site_label
_atom_site_type_symbol
_atom_site_fract_x
_atom_site_fract_y
_atom_site_fract_z
_atom_type_partial_charge
Mg0 Mg 0.14797 0.13689 0.14238 0.0
O1 O 0.17835 0.16329 0.17663 0.0
O2 O 0.22119 0.13628 0.182 0.0
Mg3 Mg 0.21798 0.09286 0.15279 0.0
C4 C 0.20481 0.15962 0.18821 0.0
C5 C 0.08806 0.17055 0.14054 0.0
O6 O 0.08092 0.14187 0.14613 0.0
O7 O 0.17794 0.15261 0.10228 0.0
O8 O 0.21914 0.12349 0.1096 0.0
O9 O 0.12802 0.11002 0.18122 0.0
O10 O 0.16832 0.09562 0.15441 0.0
C11 C 0.20446 0.14369 0.09428 0.0
C12 C 0.1497 0.0905 0.17677 0.0
O13 O 0.11593 0.17755 0.1374 0.0
Mg14 Mg 0.86091 0.36139 0.14053 0.0
O15 O 0.83242 0.33381 0.17581 0.0
O16 O 0.79029 0.36085 0.18525 0.0
Mg17 Mg 0.79068 0.40384 0.15561 0.0
C18 C 0.80702 0.3374 0.18975 0.0
C19 C 0.92109 0.32887 0.13478 0.0
O20 O 0.92794 0.35787 0.13884 0.0
O21 O 0.82949 0.34616 0.10181 0.0
O22 O 0.78745 0.37316 0.11237 0.0
O23 O 0.88281 0.38772 0.17827 0.0
O24 O 0.84054 0.40209 0.15491 0.0
C25 C 0.80216 0.35392 0.09586 0.0
C26 C 0.86058 0.40697 0.17605 0.0
O27 O 0.89324 0.32126 0.1335 0.0
Mg28 Mg 0.14878 0.85416 0.34123 0.0
O29 O 0.17842 0.82627 0.30746 0.0
O30 O 0.22063 0.85341 0.29881 0.0
Mg31 Mg 0.21876 0.89728 0.32743 0.0
C32 C 0.20424 0.82971 0.29433 0.0
C33 C 0.09058 0.82239 0.35845 0.0
O34 O 0.08615 0.85146 0.36485 0.0
O35 O 0.17937 0.83951 0.38104 0.0
O36 O 0.2207 0.86779 0.37148 0.0
O37 O 0.12815 0.88015 0.30208 0.0
O38 O 0.16915 0.89479 0.3275 0.0
C39 C 0.20619 0.84833 0.38794 0.0
C40 C 0.15009 0.89957 0.30551 0.0
O41 O 0.11639 0.81419 0.34815 0.0
Mg42 Mg 0.85689 0.64226 0.34362 0.0
O43 O 0.82904 0.66869 0.30712 0.0
O44 O 0.7874 0.64088 0.29777 0.0
Mg45 Mg 0.78816 0.59787 0.3275 0.0
C46 C 0.80381 0.66453 0.29308 0.0
C47 C 0.91451 0.67475 0.36101 0.0
O48 O 0.91937 0.64566 0.36701 0.0
O49 O 0.82374 0.65798 0.38077 0.0
O50 O 0.78346 0.62853 0.3705 0.0
O51 O 0.88069 0.6155 0.30723 0.0
O52 O 0.83778 0.60106 0.3293 0.0
C53 C 0.7968 0.64891 0.38679 0.0
C54 C 0.8586 0.59603 0.30898 0.0
O55 O 0.8885 0.68274 0.35112 0.0
Mg56 Mg 0.35802 0.86147 0.63912 0.0
O57 O 0.32827 0.83619 0.67476 0.0
O58 O 0.28708 0.865 0.68303 0.0
Mg59 Mg 0.28962 0.90728 0.65209 0.0
C60 C 0.30291 0.84107 0.68832 0.0
C61 C 0.41488 0.82714 0.62274 0.0
O62 O 0.42019 0.85581 0.61525 0.0
O63 O 0.32623 0.84593 0.60078 0.0
O64 O 0.2858 0.87571 0.60959 0.0
O65 O 0.38015 0.88803 0.67676 0.0
O66 O 0.33917 0.90326 0.65153 0.0
C67 C 0.29951 0.85506 0.59391 0.0
C68 C 0.35863 0.90791 0.67321 0.0
O69 O 0.38889 0.82017 0.63348 0.0
Mg70 Mg 0.85253 0.85872 0.85661 0.0
O71 O 0.81874 0.83229 0.82649 0.0
O72 O 0.77253 0.8528 0.83241 0.0
Mg73 Mg 0.77659 0.8916 0.86784 0.0
C74 C 0.7904 0.83313 0.82027 0.0
C75 C 0.91883 0.83933 0.84092 0.0
O76 O 0.92391 0.85977 0.86261 0.0
O77 O 0.85186 0.89953 0.82279 0.0
O78 O 0.80629 0.91876 0.83443 0.0
O79 O 0.84306 0.82673 0.89585 0.0
O80 O 0.81698 0.86904 0.88702 0.0
C81 C 0.83144 0.92014 0.8198 0.0
C82 C 0.82022 0.84411 0.90262 0.0
O83 O 0.89176 0.83513 0.83172 0.0
Mg84 Mg 0.14135 0.65256 0.8532 0.0
O85 O 0.17811 0.6792 0.82672 0.0
O86 O 0.22301 0.65636 0.83337 0.0
Mg87 Mg 0.21449 0.61317 0.86183 0.0
C88 C 0.20675 0.67786 0.82219 0.0
C89 C 0.07717 0.67661 0.83366 0.0
O90 O 0.06915 0.65112 0.8476 0.0
O91 O 0.1397 0.61607 0.81488 0.0
O92 O 0.18512 0.59422 0.8226 0.0
O93 O 0.1533 0.67817 0.89653 0.0
O94 O 0.17414 0.63433 0.88259 0.0
C95 C 0.15998 0.59623 0.80802 0.0
C96 C 0.17316 0.65692 0.90163 0.0
O97 O 0.10524 0.68265 0.83069 0.0
Mg98 Mg 0.8554 0.15432 0.62977 0.0
O99 O 0.81998 0.18109 0.65807 0.0
O100 O 0.7741 0.1611 0.64896 0.0
Mg101 Mg 0.78007 0.12101 0.61543 0.0
C102 C 0.79123 0.18064 0.6623 0.0
C103 C 0.92092 0.17341 0.64711 0.0
O104 O 0.92607 0.15173 0.62668 0.0
O105 O 0.85311 0.11459 0.66457 0.0
O106 O 0.80765 0.09548 0.65215 0.0
O107 O 0.84756 0.1848 0.58876 0.0
O108 O 0.82159 0.14257 0.59841 0.0
C109 C 0.83216 0.09458 0.66794 0.0
C110 C 0.82535 0.1667 0.58182 0.0
O111 O 0.8937 0.17871 0.6553 0.0
Mg112 Mg 0.14689 0.35554 0.62714 0.0
O113 O 0.18266 0.32876 0.6547 0.0
O114 O 0.22804 0.35076 0.64875 0.0
Mg115 Mg 0.22076 0.39363 0.61935 0.0
C116 C 0.21119 0.32968 0.65987 0.0
C117 C 0.08203 0.33331 0.64761 0.0
O118 O 0.07435 0.35907 0.63399 0.0
O119 O 0.14493 0.39272 0.66468 0.0
O120 O 0.19068 0.41397 0.65745 0.0
O121 O 0.15936 0.32906 0.58448 0.0
O122 O 0.18054 0.37282 0.59801 0.0
C123 C 0.16519 0.41256 0.67154 0.0
C124 C 0.17959 0.34994 0.57933 0.0
O125 O 0.10999 0.32645 0.64976 0.0
Mg126 Mg 0.65177 0.1447 0.35602 0.0
O127 O 0.68725 0.17184 0.32818 0.0
O128 O 0.73299 0.15115 0.33618 0.0
Mg129 Mg 0.72662 0.10977 0.36779 0.0
C130 C 0.71595 0.17133 0.32373 0.0
C131 C 0.58643 0.16561 0.33943 0.0
O132 O 0.58081 0.14352 0.35928 0.0
O133 O 0.65274 0.10615 0.3199 0.0
O134 O 0.69833 0.08625 0.33036 0.0
O135 O 0.66089 0.17396 0.39736 0.0
O136 O 0.68565 0.13119 0.38717 0.0
C137 C 0.6735 0.08623 0.3151 0.0
C138 C 0.6826 0.15519 0.40422 0.0
O139 O 0.61377 0.17063 0.33148 0.0
Mg140 Mg 0.64539 0.64229 0.63999 0.0
O141 O 0.67547 0.6699 0.67338 0.0
O142 O 0.7186 0.6435 0.67956 0.0
Mg143 Mg 0.71567 0.59912 0.65189 0.0
C144 C 0.70199 0.66686 0.68499 0.0
C145 C 0.58695 0.6747 0.6245 0.0
O146 O 0.5817 0.64564 0.61871 0.0
O147 O 0.67536 0.65709 0.59963 0.0
O148 O 0.71678 0.62856 0.60789 0.0
O149 O 0.62541 0.61671 0.67956 0.0
O150 O 0.66602 0.60173 0.65348 0.0
C151 C 0.70199 0.64823 0.592 0.0
C152 C 0.64742 0.59735 0.67603 0.0
O153 O 0.61324 0.68249 0.63373 0.0
Mg154 Mg 0.64219 0.36604 0.84681 0.0
O155 O 0.67304 0.3387 0.81353 0.0
O156 O 0.71541 0.36603 0.80647 0.0
Mg157 Mg 0.71315 0.40852 0.83689 0.0
C158 C 0.69907 0.34252 0.80096 0.0
C159 C 0.58192 0.33288 0.84726 0.0
O160 O 0.57507 0.36148 0.84095 0.0
O161 O 0.67077 0.35053 0.88767 0.0
O162 O 0.71372 0.37693 0.87961 0.0
O163 O 0.62366 0.3923 0.80708 0.0
O164 O 0.66342 0.40687 0.83463 0.0
C165 C 0.69788 0.35777 0.8951 0.0
C166 C 0.64554 0.41156 0.81156 0.0
O167 O 0.60963 0.32581 0.85149 0.0
Mg168 Mg 0.35601 0.1407 0.8428 0.0
O169 O 0.32695 0.16723 0.80758 0.0
O170 O 0.28551 0.13924 0.7981 0.0
Mg171 Mg 0.28719 0.09614 0.82796 0.0
C172 C 0.30171 0.16307 0.79361 0.0
C173 C 0.41531 0.17423 0.84853 0.0
O174 O 0.42248 0.14524 0.84494 0.0
O175 O 0.324 0.15564 0.88138 0.0
O176 O 0.2834 0.12652 0.87133 0.0
O177 O 0.37806 0.11475 0.80458 0.0
O178 O 0.3368 0.09934 0.82923 0.0
C179 C 0.29712 0.14656 0.88775 0.0
C180 C 0.35643 0.09494 0.80761 0.0
O181 O 0.38737 0.18159 0.84935 0.0
Mg182 Mg 0.3616 0.35107 0.35442 0.0
O183 O 0.32563 0.32367 0.32776 0.0
O184 O 0.28093 0.3477 0.33104 0.0
Mg185 Mg 0.28839 0.39087 0.36002 0.0
C186 C 0.29734 0.32551 0.32153 0.0
C187 C 0.42646 0.32739 0.33597 0.0
O188 O 0.43411 0.35326 0.34938 0.0
O189 O 0.36429 0.38687 0.31543 0.0
O190 O 0.31918 0.40969 0.3218 0.0
O191 O 0.34862 0.32619 0.39779 0.0
O192 O 0.32784 0.36965 0.38256 0.0
C193 C 0.34468 0.40716 0.30792 0.0
C194 C 0.32841 0.34732 0.40197 0.0
O195 O 0.39848 0.32088 0.33319 0.0
Mg196 Mg 0.35959 0.64356 0.1221 0.0
O197 O 0.32535 0.66657 0.15464 0.0
O198 O 0.28089 0.64234 0.15031 0.0
Mg199 Mg 0.28666 0.60312 0.11557 0.0
C200 C 0.2974 0.66344 0.16192 0.0
C201 C 0.41262 0.68704 0.12285 0.0
O202 O 0.40518 0.68327 0.09367 0.0
O203 O 0.36547 0.60299 0.15595 0.0
O204 O 0.32149 0.57915 0.14629 0.0
O205 O 0.34297 0.67328 0.08286 0.0
O206 O 0.32418 0.62791 0.09397 0.0
C207 C 0.34747 0.58022 0.15934 0.0
C208 C 0.32311 0.65221 0.0773 0.0
O209 O 0.39825 0.67183 0.14326 0.0
Mg210 Mg 0.6454 0.85272 0.12522 0.0
O211 O 0.68079 0.82705 0.15451 0.0
O212 O 0.72639 0.84742 0.14449 0.0
Mg213 Mg 0.72041 0.88612 0.10933 0.0
C214 C 0.70955 0.82805 0.15853 0.0
C215 C 0.57971 0.8394 0.14551 0.0
O216 O 0.57663 0.86434 0.12879 0.0
O217 O 0.64739 0.89384 0.15849 0.0
O218 O 0.69227 0.91318 0.14432 0.0
O219 O 0.65343 0.82048 0.08559 0.0
O220 O 0.67938 0.86304 0.09337 0.0
C221 C 0.66788 0.91452 0.16028 0.0
C222 C 0.67577 0.83814 0.07795 0.0
O223 O 0.60635 0.82965 0.15104 0.0
H224 H 0.26443 0.17025 0.20087 0.0
H225 H 0.17422 0.20337 0.22144 0.0
H226 H 0.28609 0.21028 0.23283 0.0
H227 H 0.19579 0.24267 0.25496 0.0
H228 H 0.24522 0.32876 0.28733 0.0
H229 H 0.22259 0.28885 0.2555 0.0
H230 H 0.29382 0.22641 0.28325 0.0
H231 H 0.3172 0.26686 0.3136 0.0
C232 C 0.24917 0.18586 0.21263 0.0
C233 C 0.21759 0.18359 0.20864 0.0
C234 C 0.2616 0.20879 0.23119 0.0
C235 C 0.24279 0.22979 0.24678 0.0
C236 C 0.2111 0.22731 0.24298 0.0
C237 C 0.19867 0.20464 0.22392 0.0
C238 C 0.25602 0.30648 0.28657 0.0
C239 C 0.28311 0.30103 0.30282 0.0
C240 C 0.24291 0.28346 0.26848 0.0
C241 C 0.25631 0.25424 0.2666 0.0
C242 C 0.28314 0.24873 0.28343 0.0
C243 C 0.29652 0.2719 0.30104 0.0
H244 H 0.75925 0.34111 0.22982 0.0
H245 H 0.82887 0.27897 0.19761 0.0
H246 H 0.73835 0.30101 0.26237 0.0
H247 H 0.80732 0.23842 0.22976 0.0
H248 H 0.77654 0.18194 0.31393 0.0
H249 H 0.79962 0.22206 0.28261 0.0
H250 H 0.71042 0.25432 0.25671 0.0
H251 H 0.68732 0.21479 0.28863 0.0
C252 C 0.77011 0.31885 0.22962 0.0
C253 C 0.79568 0.31325 0.21093 0.0
C254 C 0.75795 0.29576 0.24817 0.0
C255 C 0.77089 0.26635 0.24842 0.0
C256 C 0.79691 0.26088 0.23029 0.0
C257 C 0.80922 0.2841 0.21179 0.0
C258 C 0.76181 0.19756 0.30152 0.0
C259 C 0.73003 0.19517 0.30393 0.0
C260 C 0.77509 0.22049 0.28343 0.0
C261 C 0.75691 0.24153 0.26724 0.0
C262 C 0.72514 0.23887 0.26933 0.0
C263 C 0.71186 0.21605 0.28751 0.0
H264 H 0.32589 0.70669 0.19731 0.0
H265 H 0.23691 0.67168 0.17441 0.0
H266 H 0.30267 0.74581 0.22964 0.0
H267 H 0.21364 0.71148 0.20597 0.0
H268 H 0.1834 0.77079 0.28821 0.0
H269 H 0.20573 0.72953 0.25767 0.0
H270 H 0.2744 0.79186 0.22389 0.0
H271 H 0.25274 0.83267 0.25504 0.0
C272 C 0.30136 0.70732 0.19914 0.0
C273 C 0.2833 0.68606 0.18314 0.0
C274 C 0.288 0.72994 0.21752 0.0
C275 C 0.25622 0.73208 0.22019 0.0
C276 C 0.23817 0.71038 0.20472 0.0
C277 C 0.25155 0.68759 0.1865 0.0
C278 C 0.20318 0.7757 0.27414 0.0
C279 C 0.21635 0.80502 0.27423 0.0
C280 C 0.21595 0.75204 0.25655 0.0
C281 C 0.24207 0.75723 0.2385 0.0
C282 C 0.25474 0.78678 0.23806 0.0
C283 C 0.24214 0.8103 0.25578 0.0
H284 H 0.82517 0.72303 0.28457 0.0
H285 H 0.75566 0.66025 0.25363 0.0
H286 H 0.80281 0.76334 0.25274 0.0
H287 H 0.7339 0.70016 0.22145 0.0
H288 H 0.68177 0.78569 0.19572 0.0
H289 H 0.70569 0.74688 0.22793 0.0
H290 H 0.7942 0.77922 0.19972 0.0
H291 H 0.77035 0.81858 0.16807 0.0
C292 C 0.80538 0.7177 0.27072 0.0
C293 C 0.79211 0.68844 0.27185 0.0
C294 C 0.79259 0.7408 0.25242 0.0
C295 C 0.76634 0.73509 0.2348 0.0
C296 C 0.75368 0.70557 0.23528 0.0
C297 C 0.76634 0.68259 0.2536 0.0
C298 C 0.70633 0.78466 0.19646 0.0
C299 C 0.72409 0.80524 0.1792 0.0
C300 C 0.72007 0.76225 0.21478 0.0
C301 C 0.75189 0.75975 0.2162 0.0
C302 C 0.76966 0.78067 0.19938 0.0
C303 C 0.75592 0.80317 0.18112 0.0
H304 H 0.25494 0.84703 0.72802 0.0
H305 H 0.32296 0.78231 0.69755 0.0
H306 H 0.23286 0.80818 0.76143 0.0
H307 H 0.30025 0.74308 0.73035 0.0
H308 H 0.26766 0.68749 0.81351 0.0
H309 H 0.29194 0.72744 0.78292 0.0
H310 H 0.20373 0.76234 0.75695 0.0
H311 H 0.17948 0.72303 0.78823 0.0
C312 C 0.26519 0.82449 0.7284 0.0
C313 C 0.29067 0.81778 0.70996 0.0
C314 C 0.25238 0.80212 0.74744 0.0
C315 C 0.26455 0.77237 0.74839 0.0
C316 C 0.29044 0.76582 0.73045 0.0
C317 C 0.30342 0.7883 0.71153 0.0
C318 C 0.25342 0.7037 0.8013 0.0
C319 C 0.22158 0.70204 0.8034 0.0
C320 C 0.26738 0.72654 0.78362 0.0
C321 C 0.24983 0.74818 0.76748 0.0
C322 C 0.21799 0.74642 0.76951 0.0
C323 C 0.20404 0.72372 0.78732 0.0
H324 H 0.76149 0.6803 0.6947 0.0
H325 H 0.67087 0.70951 0.71898 0.0
H326 H 0.7827 0.72135 0.72568 0.0
H327 H 0.69203 0.74972 0.75164 0.0
H328 H 0.73825 0.83623 0.78606 0.0
H329 H 0.71694 0.79686 0.75253 0.0
H330 H 0.7915 0.73666 0.77598 0.0
H331 H 0.81349 0.77662 0.80789 0.0
C332 C 0.74609 0.69529 0.70706 0.0
C333 C 0.71451 0.69161 0.70451 0.0
C334 C 0.75825 0.7188 0.72504 0.0
C335 C 0.73918 0.73889 0.74151 0.0
C336 C 0.7075 0.7351 0.73896 0.0
C337 C 0.69531 0.7119 0.72042 0.0
C338 C 0.75012 0.81461 0.78382 0.0
C339 C 0.77763 0.80958 0.79944 0.0
C340 C 0.73778 0.7919 0.76479 0.0
C341 C 0.7524 0.7634 0.76142 0.0
C342 C 0.77986 0.75845 0.77731 0.0
C343 C 0.79246 0.78135 0.79581 0.0
H344 H 0.67695 0.28468 0.79026 0.0
H345 H 0.74907 0.34652 0.76377 0.0
H346 H 0.69897 0.24505 0.75733 0.0
H347 H 0.77046 0.30737 0.73035 0.0
H348 H 0.81999 0.22152 0.70029 0.0
H349 H 0.79704 0.25983 0.73381 0.0
H350 H 0.70778 0.23116 0.70416 0.0
H351 H 0.73069 0.1922 0.67127 0.0
C352 C 0.69731 0.28993 0.77722 0.0
C353 C 0.71131 0.31875 0.77983 0.0
C354 C 0.70988 0.26725 0.75824 0.0
C355 C 0.73664 0.27292 0.74133 0.0
C356 C 0.75023 0.30195 0.74353 0.0
C357 C 0.7378 0.32451 0.76258 0.0
C358 C 0.79547 0.22332 0.70093 0.0
C359 C 0.77723 0.20377 0.68301 0.0
C360 C 0.78228 0.24544 0.72004 0.0
C361 C 0.75053 0.24875 0.72158 0.0
C362 C 0.73228 0.22904 0.70385 0.0
C363 C 0.74547 0.20678 0.68484 0.0
H364 H 0.18236 0.28521 0.69344 0.0
H365 H 0.27173 0.31895 0.66991 0.0
H366 H 0.20517 0.24526 0.72496 0.0
H367 H 0.29458 0.27833 0.70076 0.0
H368 H 0.32305 0.22157 0.7857 0.0
H369 H 0.30167 0.26181 0.75324 0.0
H370 H 0.23329 0.19879 0.72036 0.0
H371 H 0.25403 0.15893 0.75342 0.0
C372 C 0.20689 0.28402 0.69482 0.0
C373 C 0.22518 0.30534 0.67911 0.0
C374 C 0.22001 0.26094 0.71276 0.0
C375 C 0.25176 0.25843 0.71531 0.0
C376 C 0.27006 0.27979 0.69964 0.0
C377 C 0.25693 0.30301 0.68182 0.0
C378 C 0.30355 0.21626 0.77142 0.0
C379 C 0.29015 0.18705 0.77236 0.0
C380 C 0.29135 0.23932 0.75269 0.0
C381 C 0.26559 0.23365 0.73433 0.0
C382 C 0.25273 0.20419 0.73469 0.0
C383 C 0.26477 0.18124 0.75353 0.0
H384 H 0.18018 0.95233 0.31831 0.0
H385 H 0.1261 0.90821 0.24785 0.0
H386 H 0.18174 0.99909 0.28714 0.0
H387 H 0.12858 0.9549 0.21631 0.0
H388 H 0.17816 0.03718 0.16208 0.0
H389 H 0.17981 0.98999 0.19271 0.0
H390 H 0.13023 0.03466 0.26604 0.0
H391 H 0.12764 0.08168 0.23512 0.0
C392 C 0.16902 0.95248 0.29598 0.0
C393 C 0.15298 0.9267 0.28545 0.0
C394 C 0.16984 0.97922 0.27831 0.0
C395 C 0.15527 0.98034 0.24953 0.0
C396 C 0.14003 0.95435 0.23848 0.0
C397 C 0.13858 0.92779 0.25649 0.0
C398 C 0.1678 0.03699 0.18483 0.0
C399 C 0.15276 0.06302 0.19629 0.0
C400 C 0.16864 0.01002 0.20217 0.0
C401 C 0.15511 0.00895 0.23152 0.0
C402 C 0.14084 0.03516 0.24341 0.0
C403 C 0.13935 0.06192 0.22577 0.0
H404 H 0.90306 0.42648 0.21732 0.0
H405 H 0.81428 0.44866 0.18105 0.0
H406 H 0.90179 0.47269 0.24899 0.0
H407 H 0.81296 0.49461 0.21314 0.0
H408 H 0.81305 0.55364 0.30372 0.0
H409 H 0.81259 0.50773 0.27164 0.0
H410 H 0.90161 0.53053 0.2367 0.0
H411 H 0.902 0.5768 0.26837 0.0
C412 C 0.88315 0.44101 0.21631 0.0
C413 C 0.85871 0.43382 0.19673 0.0
C414 C 0.88255 0.46754 0.23429 0.0
C415 C 0.85734 0.48719 0.23334 0.0
C416 C 0.83258 0.47969 0.21437 0.0
C417 C 0.83336 0.45337 0.19603 0.0
C418 C 0.83236 0.54916 0.28893 0.0
C419 C 0.85748 0.56901 0.28846 0.0
C420 C 0.83207 0.52284 0.2706 0.0
C421 C 0.8571 0.51562 0.25186 0.0
C422 C 0.88214 0.5355 0.2512 0.0
C423 C 0.88225 0.56204 0.26919 0.0
H424 H 0.23778 0.13908 0.90429 0.0
H425 H 0.32218 0.17861 0.93601 0.0
H426 H 0.21511 0.14843 0.95461 0.0
H427 H 0.29913 0.18845 0.98648 0.0
H428 H 0.26388 0.1406 0.07719 0.0
H429 H 0.28539 0.15133 0.02665 0.0
H430 H 0.19821 0.18417 -0.00494 0.0
H431 H 0.17638 0.17297 0.04589 0.0
C432 C 0.25134 0.15036 0.9218 0.0
C433 C 0.28202 0.1575 0.91632 0.0
C434 C 0.23819 0.15603 0.95061 0.0
C435 C 0.25542 0.1689 0.97464 0.0
C436 C 0.28542 0.17812 0.96849 0.0
C437 C 0.29859 0.17256 0.93956 0.0
C438 C 0.24934 0.15058 0.05967 0.0
C439 C 0.21827 0.15538 0.06537 0.0
C440 C 0.26179 0.15707 0.03074 0.0
C441 C 0.24346 0.16839 0.00676 0.0
C442 C 0.21282 0.17514 0.01303 0.0
C443 C 0.20035 0.16882 0.04215 0.0
H444 H 0.74438 0.33327 0.08856 0.0
H445 H 0.82748 0.35084 0.03886 0.0
H446 H 0.71828 0.32308 0.03997 0.0
H447 H 0.80127 0.34372 0.99015 0.0
H448 H 0.75278 0.33067 0.90299 0.0
H449 H 0.77752 0.31849 0.95188 0.0
H450 H 0.69756 0.35007 0.00101 0.0
H451 H 0.67234 0.35914 0.952 0.0
C452 C 0.75703 0.33471 0.06709 0.0
C453 C 0.78779 0.34293 0.06726 0.0
C454 C 0.74205 0.32928 0.03914 0.0
C455 C 0.75723 0.33324 0.01067 0.0
C456 C 0.78859 0.33991 0.01124 0.0
C457 C 0.80376 0.34425 0.03925 0.0
C458 C 0.74041 0.33408 0.92441 0.0
C459 C 0.71083 0.34588 0.92399 0.0
C460 C 0.75465 0.32752 0.95251 0.0
C461 C 0.74005 0.33392 0.98084 0.0
C462 C 0.70969 0.34429 0.98004 0.0
C463 C 0.69513 0.34977 0.95188 0.0
H464 H 0.32473 0.82114 0.54702 0.0
H465 H 0.2403 0.86219 0.57691 0.0
H466 H 0.30175 0.80899 0.49709 0.0
H467 H 0.21767 0.85049 0.52711 0.0
H468 H 0.1787 0.82095 0.43779 0.0
H469 H 0.2009 0.81231 0.48888 0.0
H470 H 0.28769 0.84403 0.45499 0.0
H471 H 0.26581 0.85223 0.40415 0.0
C472 C 0.30115 0.82707 0.54319 0.0
C473 C 0.28453 0.84317 0.56573 0.0
C474 C 0.28803 0.82017 0.51457 0.0
C475 C 0.258 0.82904 0.50806 0.0
C476 C 0.24076 0.8431 0.53144 0.0
C477 C 0.25388 0.85012 0.55992 0.0
C478 C 0.20268 0.82536 0.44109 0.0
C479 C 0.22037 0.83781 0.41709 0.0
C480 C 0.21535 0.82053 0.47036 0.0
C481 C 0.24596 0.82779 0.47604 0.0
C482 C 0.26411 0.83797 0.45137 0.0
C483 C 0.25145 0.84298 0.42225 0.0
H484 H 0.67402 0.67651 0.54296 0.0
H485 H 0.76155 0.64536 0.57545 0.0
H486 H 0.69622 0.68739 0.49222 0.0
H487 H 0.78342 0.65578 0.52502 0.0
H488 H 0.82088 0.68224 0.43466 0.0
H489 H 0.79709 0.69274 0.48461 0.0
H490 H 0.7139 0.65123 0.45242 0.0
H491 H 0.7373 0.64121 0.40258 0.0
C492 C 0.69807 0.67255 0.53949 0.0
C493 C 0.71591 0.65954 0.56302 0.0
C494 C 0.71074 0.6787 0.51044 0.0
C495 C 0.7415 0.67221 0.50455 0.0
C496 C 0.75973 0.66132 0.52882 0.0
C497 C 0.74707 0.655 0.55768 0.0
C498 C 0.7973 0.67601 0.438 0.0
C499 C 0.78118 0.6603 0.41486 0.0
C500 C 0.78372 0.68196 0.46664 0.0
C501 C 0.75375 0.67248 0.47257 0.0
C502 C 0.73694 0.65902 0.44857 0.0
C503 C 0.75051 0.65297 0.42005 0.0
H504 H 0.91641 0.26812 0.11952 0.0
H505 H 0.98116 0.33729 0.14684 0.0
H506 H 0.95698 0.23006 0.11848 0.0
H507 H 0.02134 0.29922 0.14701 0.0
H508 H 0.09282 0.22965 0.11973 0.0
H509 H 0.05237 0.26764 0.11559 0.0
H510 H 0.98841 0.20224 0.15298 0.0
H511 H 0.02846 0.16413 0.15594 0.0
C512 C 0.93927 0.27517 0.12538 0.0
C513 C 0.94555 0.30569 0.13329 0.0
C514 C 0.96253 0.25333 0.12497 0.0
C515 C 0.9925 0.2615 0.13276 0.0
C516 C 0.99871 0.29215 0.14037 0.0
C517 C 0.97556 0.31398 0.14048 0.0
C518 C 0.07009 0.22343 0.12698 0.0
C519 C 0.06385 0.19391 0.13816 0.0
C520 C 0.0469 0.24523 0.12474 0.0
C521 C 0.01704 0.23805 0.13394 0.0
C522 C 0.01093 0.20846 0.14511 0.0
C523 C 0.03401 0.18664 0.14705 0.0
H524 H 0.97214 0.66395 0.38129 0.0
H525 H 0.91409 0.73581 0.34624 0.0
H526 H 0.01469 0.69946 0.38271 0.0
H527 H 0.95692 0.77126 0.34718 0.0
H528 H 0.03335 0.83359 0.37981 0.0
H529 H 0.99074 0.79821 0.38258 0.0
H530 H 0.04746 0.72604 0.34599 0.0
H531 H 0.09035 0.76134 0.34371 0.0
C532 C 0.96841 0.68736 0.37396 0.0
C533 C 0.93971 0.69703 0.36357 0.0
C534 C 0.99289 0.70766 0.37459 0.0
C535 C 0.98927 0.73813 0.36488 0.0
C536 C 0.9604 0.748 0.3551 0.0
C537 C 0.93588 0.72766 0.35445 0.0
C538 C 0.03683 0.81013 0.3725 0.0
C539 C 0.06526 0.8003 0.36147 0.0
C540 C 0.01231 0.78991 0.37392 0.0
C541 C 0.01564 0.75936 0.36437 0.0
C542 C 0.04422 0.74936 0.35383 0.0
C543 C 0.06878 0.76962 0.3524 0.0
H544 H 0.58873 0.73598 0.6379 0.0
H545 H 0.5288 0.66456 0.60542 0.0
H546 H 0.54677 0.77244 0.6361 0.0
H547 H 0.48709 0.70109 0.60311 0.0
H548 H 0.41323 0.76669 0.63973 0.0
H549 H 0.45504 0.72999 0.63881 0.0
H550 H 0.51386 0.79897 0.59948 0.0
H551 H 0.47234 0.83574 0.60089 0.0
C552 C 0.56669 0.72812 0.63013 0.0
C553 C 0.5621 0.69736 0.6219 0.0
C554 C 0.54267 0.74904 0.62896 0.0
C555 C 0.51356 0.73963 0.61954 0.0
C556 C 0.50912 0.70896 0.61089 0.0
C557 C 0.53311 0.68807 0.61204 0.0
C558 C 0.43503 0.77396 0.63073 0.0
C559 C 0.43948 0.80416 0.6205 0.0
C560 C 0.45897 0.7529 0.63008 0.0
C561 C 0.48782 0.76162 0.61919 0.0
C562 C 0.49206 0.79167 0.60846 0.0
C563 C 0.46817 0.81268 0.60909 0.0
H564 H 0.88302 0.07759 0.7014 0.0
H565 H 0.78899 0.05372 0.68545 0.0
H566 H 0.88699 0.03533 0.73891 0.0
H567 H 0.79317 0.01222 0.72224 0.0
H568 H 0.79686 0.97144 0.81661 0.0
H569 H 0.80107 0.01384 0.78091 0.0
H570 H 0.88093 0.97312 0.74015 0.0
H571 H 0.87692 0.92986 0.77651 0.0
C572 C 0.86331 0.06345 0.70582 0.0
C573 C 0.83563 0.06928 0.69058 0.0
C574 C 0.86567 0.03919 0.72705 0.0
C575 C 0.84031 0.02074 0.73356 0.0
C576 C 0.81297 0.02632 0.71793 0.0
C577 C 0.81066 0.05017 0.69676 0.0
C578 C 0.81548 0.97129 0.80021 0.0
C579 C 0.83623 0.94682 0.79908 0.0
C580 C 0.81788 0.99574 0.77978 0.0
C581 C 0.84106 0.99653 0.75755 0.0
C582 C 0.86285 0.97299 0.75716 0.0
C583 C 0.86044 0.94822 0.77781 0.0
H584 H 0.10937 0.56086 0.79866 0.0
H585 H 0.19921 0.5793 0.76346 0.0
H586 H 0.10676 0.51444 0.76656 0.0
H587 H 0.19632 0.53416 0.73075 0.0
H588 H 0.20521 0.43547 0.71256 0.0
H589 H 0.19961 0.48095 0.7443 0.0
H590 H 0.10655 0.49039 0.71409 0.0
H591 H 0.11204 0.44366 0.68284 0.0
C592 C 0.12806 0.55552 0.78325 0.0
C593 C 0.15459 0.57337 0.78359 0.0
C594 C 0.12666 0.52893 0.76502 0.0
C595 C 0.15172 0.52011 0.74683 0.0
C596 C 0.17705 0.53966 0.74532 0.0
C597 C 0.1786 0.56575 0.76374 0.0
C598 C 0.18338 0.44691 0.71313 0.0
C599 C 0.15916 0.43625 0.69508 0.0
C600 C 0.18022 0.47319 0.73104 0.0
C601 C 0.15293 0.48992 0.73091 0.0
C602 C 0.12793 0.47814 0.71449 0.0
C603 C 0.13101 0.45137 0.69674 0.0
H604 H 0.73721 0.84375 0.07851 0.0
H605 H 0.66255 0.81317 0.02187 0.0
H606 H 0.77184 0.83767 0.035 0.0
H607 H 0.69742 0.80669 0.97801 0.0
H608 H 0.75954 0.85701 0.90488 0.0
H609 H 0.72462 0.84755 0.9473 0.0
H610 H 0.79557 0.80056 -0.00271 0.0
H611 H 0.8309 0.81047 0.95457 0.0
C612 C 0.72827 0.83557 0.05675 0.0
C613 C 0.69716 0.82973 0.05321 0.0
C614 C 0.74818 0.83159 0.03197 0.0
C615 C 0.73726 0.82195 0.00306 0.0
C616 C 0.70635 0.81441 1e-05 0.0
C617 C 0.68648 0.81799 0.02504 0.0
C618 C 0.76779 0.84473 0.92482 0.0
C619 C 0.79818 0.83523 0.92674 0.0
C620 C 0.74758 0.8388 0.94895 0.0
C621 C 0.75741 0.82343 0.97565 0.0
C622 C 0.78747 0.81264 0.97702 0.0
C623 C 0.80762 0.81825 0.95261 0.0
H624 H 0.18295 0.70469 0.94195 0.0
H625 H 0.21279 0.61294 0.91998 0.0
H626 H 0.21854 0.7059 0.98561 0.0
H627 H 0.24853 0.61456 0.96242 0.0
H628 H 0.31156 0.70217 0.04033 0.0
H629 H 0.27459 0.70557 -0.00198 0.0
H630 H 0.24445 0.61362 0.01829 0.0
H631 H 0.28162 0.60981 0.05925 0.0
C632 C 0.1972 0.68493 0.94627 0.0
C633 C 0.19507 0.65874 0.92747 0.0
C634 C 0.21766 0.68571 0.97111 0.0
C635 C 0.23612 0.66022 0.9776 0.0
C636 C 0.23426 0.63437 0.95839 0.0
C637 C 0.21393 0.63358 0.93378 0.0
C638 C 0.29688 0.6828 0.03577 0.0
C639 C 0.29956 0.65572 0.05318 0.0
C640 C 0.27563 0.68482 0.01171 0.0
C641 C 0.25685 0.65974 0.00464 0.0
C642 C 0.25895 0.63315 0.02278 0.0
C643 C 0.28011 0.6311 0.04657 0.0
H644 H 0.73458 0.12417 0.41916 0.0
H645 H 0.67909 0.20089 0.44752 0.0
H646 H 0.76977 0.13476 0.46097 0.0
H647 H 0.71404 0.21044 0.49067 0.0
H648 H 0.76372 0.16552 0.58331 0.0
H649 H 0.72917 0.16887 0.53908 0.0
H650 H 0.80537 0.18563 0.47857 0.0
H651 H 0.83997 0.183 0.52308 0.0
C652 C 0.73001 0.14354 0.43393 0.0
C653 C 0.70416 0.16192 0.42959 0.0
C654 C 0.75025 0.14957 0.45793 0.0
C655 C 0.74469 0.17359 0.47863 0.0
C656 C 0.71884 0.19196 0.47468 0.0
C657 C 0.6989 0.1864 0.45009 0.0
C658 C 0.77298 0.17041 0.56064 0.0
C659 C 0.80441 0.1736 0.55634 0.0
C660 C 0.75324 0.17263 0.53548 0.0
C661 C 0.76477 0.17743 0.50562 0.0
C662 C 0.79608 0.182 0.50151 0.0
C663 C 0.81577 0.18054 0.52684 0.0
H664 H 0.21957 0.39336 0.56019 0.0
H665 H 0.18964 0.30121 0.54037 0.0
H666 H 0.25548 0.39064 0.51772 0.0
H667 H 0.22553 0.29876 0.49698 0.0
H668 H 0.31807 0.29986 0.44236 0.0
H669 H 0.28183 0.29868 0.48545 0.0
H670 H 0.25157 0.38966 0.46129 0.0
H671 H 0.28788 0.39115 0.41907 0.0
C672 C 0.22075 0.3724 0.54687 0.0
C673 C 0.20177 0.34746 0.55373 0.0
C674 C 0.24118 0.37097 0.5223 0.0
C675 C 0.24314 0.34459 0.50383 0.0
C676 C 0.2246 0.31934 0.51093 0.0
C677 C 0.20397 0.32081 0.53562 0.0
C678 C 0.30359 0.31953 0.44627 0.0
C679 C 0.30586 0.3456 0.4273 0.0
C680 C 0.28275 0.31877 0.47079 0.0
C681 C 0.26403 0.34416 0.47686 0.0
C682 C 0.266 0.36991 0.45749 0.0
C683 C 0.28667 0.37064 0.43308 0.0
H684 H 0.08659 0.73518 0.8131 0.0
H685 H 0.01539 0.67138 0.83722 0.0
H686 H 0.04894 0.77585 0.80779 0.0
H687 H 0.9779 0.71209 0.83215 0.0
H688 H 0.91375 0.78753 0.80556 0.0
H689 H 0.9525 0.74851 0.79672 0.0
H690 H 0.01777 0.80348 0.84636 0.0
H691 H 0.97921 0.84256 0.85501 0.0
C692 C 0.06288 0.72968 0.81681 0.0
C693 C 0.05404 0.70007 0.82592 0.0
C694 C 0.04134 0.75305 0.8139 0.0
C695 C 0.01048 0.74727 0.8198 0.0
C696 C 1.00146 0.71726 0.8272 0.0
C697 C 0.023 0.69394 0.83028 0.0
C698 C 0.93651 0.79157 0.81409 0.0
C699 C 0.9433 0.81805 0.83128 0.0
C700 C 0.95865 0.76911 0.80916 0.0
C701 C 0.98812 0.77277 0.82107 0.0
C702 C 0.99536 0.80005 0.83667 0.0
C703 C 0.97318 0.8224 0.84178 0.0
H704 H 0.09041 0.27537 0.67033 0.0
H705 H 0.02032 0.33962 0.64416 0.0
H706 H 0.05203 0.23575 0.67764 0.0
H707 H 0.98209 0.29992 0.6511 0.0
H708 H 0.91638 0.2269 0.67999 0.0
H709 H 0.95578 0.26553 0.68735 0.0
H710 H 0.02052 0.20697 0.64107 0.0
H711 H 0.98138 0.16829 0.63404 0.0
C712 C 0.0668 0.28119 0.66654 0.0
C713 C 0.05848 0.3106 0.6563 0.0
C714 C 0.04482 0.25842 0.6706 0.0
C715 C 0.01404 0.26458 0.66468 0.0
C716 C 0.00557 0.29445 0.65612 0.0
C717 C 0.02754 0.31719 0.65194 0.0
C718 C 0.93916 0.22201 0.67192 0.0
C719 C 0.94565 0.19462 0.65612 0.0
C720 C 0.96168 0.24425 0.67598 0.0
C721 C 0.99121 0.23947 0.66454 0.0
C722 C 0.99809 0.21131 0.6504 0.0
C723 C 0.97557 0.18917 0.6462 0.0
H724 H 0.5918 0.21932 0.30701 0.0
H725 H 0.52584 0.16126 0.35222 0.0
H726 H 0.55281 0.25834 0.2993 0.0
H727 H 0.48711 0.20033 0.34487 0.0
H728 H 0.41802 0.26918 0.31403 0.0
H729 H 0.45623 0.22917 0.30785 0.0
H730 H 0.52618 0.29307 0.33485 0.0
H731 H 0.48813 0.33315 0.34063 0.0
C732 C 0.5689 0.21465 0.31489 0.0
C733 C 0.56201 0.18727 0.33052 0.0
C734 C 0.54661 0.23711 0.31063 0.0
C735 C 0.51691 0.23258 0.32171 0.0
C736 C 0.50967 0.20449 0.3358 0.0
C737 C 0.53196 0.18212 0.34019 0.0
C738 C 0.44161 0.27484 0.31817 0.0
C739 C 0.44997 0.30431 0.32816 0.0
C740 C 0.46349 0.25185 0.31477 0.0
C741 C 0.49422 0.25783 0.32112 0.0
C742 C 0.50275 0.28773 0.32951 0.0
C743 C 0.48088 0.31069 0.33302 0.0
H744 H 0.67724 0.54412 0.6642 0.0
H745 H 0.62531 0.59093 0.73469 0.0
H746 H 0.67956 0.49846 0.69701 0.0
H747 H 0.6285 0.54545 0.76779 0.0
H748 H 0.67432 0.46504 0.82495 0.0
H749 H 0.67745 0.51094 0.79246 0.0
H750 H 0.62994 0.46374 0.71943 0.0
H751 H 0.6259 0.41809 0.75214 0.0
C752 C 0.66676 0.5448 0.68688 0.0
C753 C 0.65102 0.57097 0.69693 0.0
C754 C 0.66802 0.51871 0.7055 0.0
C755 C 0.65422 0.51869 0.73474 0.0
C756 C 0.63941 0.54515 0.74531 0.0
C757 C 0.63752 0.57102 0.72639 0.0
C758 C 0.66479 0.46439 0.80186 0.0
C759 C 0.64979 0.43811 0.79102 0.0
C760 C 0.6665 0.49061 0.78343 0.0
C761 C 0.65393 0.49063 0.75364 0.0
C762 C 0.63988 0.46406 0.74235 0.0
C763 C 0.63752 0.43809 0.76104 0.0
H764 H 0.32761 0.04113 0.81929 0.0
H765 H 0.38078 0.0882 0.74994 0.0
H766 H 0.32702 0.99516 0.78683 0.0
H767 H 0.37927 0.04239 0.71716 0.0
H768 H 0.32997 0.96159 0.66062 0.0
H769 H 0.32815 0.00762 0.69295 0.0
H770 H 0.37923 0.96102 0.76387 0.0
H771 H 0.38196 0.91515 0.73123 0.0
C772 C 0.3388 0.04176 0.79696 0.0
C773 C 0.35428 0.06815 0.78707 0.0
C774 C 0.33855 0.01549 0.77857 0.0
C775 C 0.35311 0.0155 0.74972 0.0
C776 C 0.36786 0.04207 0.73938 0.0
C777 C 0.36874 0.06813 0.75809 0.0
C778 C 0.34068 0.96113 0.68317 0.0
C779 C 0.35615 0.93489 0.69348 0.0
C780 C 0.33972 0.98742 0.7015 0.0
C781 C 0.35355 0.98759 0.73068 0.0
C782 C 0.36836 0.9612 0.74138 0.0
C783 C 0.36997 0.93511 0.72274 0.0
H784 H 0.40982 0.23507 0.86319 0.0
H785 H 0.47569 0.16611 0.83786 0.0
H786 H 0.45017 0.27332 0.86525 0.0
H787 H 0.51567 0.20434 0.83873 0.0
H788 H 0.58594 0.27391 0.86854 0.0
H789 H 0.54542 0.23593 0.8714 0.0
H790 H 0.48273 0.30119 0.83168 0.0
H791 H 0.52283 0.33932 0.82997 0.0
C792 C 0.43288 0.22811 0.85797 0.0
C793 C 0.43954 0.19759 0.85036 0.0
C794 C 0.45601 0.25005 0.85897 0.0
C795 C 0.48624 0.24197 0.8521 0.0
C796 C 0.49281 0.21134 0.84469 0.0
C797 C 0.46978 0.18942 0.84398 0.0
C798 C 0.56347 0.28011 0.86052 0.0
C799 C 0.55761 0.30959 0.84902 0.0
C800 C 0.54025 0.25832 0.86201 0.0
C801 C 0.51073 0.26545 0.85175 0.0
C802 C 0.50497 0.29501 0.84032 0.0
C803 C 0.52808 0.31684 0.83911 0.0
H804 H 0.38126 0.5774 0.21319 0.0
H805 H 0.3338 0.52159 0.14647 0.0
H806 H 0.38674 0.53232 0.24709 0.0
H807 H 0.33963 0.47713 0.17966 0.0
H808 H 0.30376 0.43157 0.26871 0.0
H809 H 0.31143 0.4718 0.23081 0.0
H810 H 0.40709 0.47406 0.25248 0.0
H811 H 0.39936 0.43294 0.29086 0.0
C812 C 0.37278 0.55543 0.20545 0.0
C813 C 0.35649 0.55308 0.17761 0.0
C814 C 0.376 0.52968 0.22472 0.0
C815 C 0.36314 0.50141 0.21614 0.0
C816 C 0.34928 0.49873 0.18708 0.0
C817 C 0.34588 0.52424 0.16814 0.0
C818 C 0.32654 0.44031 0.26521 0.0
C819 C 0.35097 0.42908 0.28267 0.0
C820 C 0.33095 0.46331 0.24342 0.0
C821 C 0.35987 0.476 0.23865 0.0
C822 C 0.38457 0.46465 0.25579 0.0
C823 C 0.3802 0.44103 0.27745 0.0
H824 H 0.71674 0.04794 0.29261 0.0
H825 H 0.62115 0.06918 0.28428 0.0
H826 H 0.71129 0.00748 0.25484 0.0
H827 H 0.61584 0.02804 0.24573 0.0
H828 H 0.62474 0.924 0.20597 0.0
H829 H 0.62254 0.96707 0.24263 0.0
H830 H 0.69985 0.00831 0.19754 0.0
H831 H 0.70232 0.966 0.16154 0.0
C832 C 0.69447 0.04404 0.28271 0.0
C833 C 0.66939 0.06201 0.29143 0.0
C834 C 0.69143 0.02084 0.26094 0.0
C835 C 0.66321 0.01478 0.24721 0.0
C836 C 0.63784 0.03226 0.25608 0.0
C837 C 0.64094 0.0559 0.2779 0.0
C838 C 0.64105 0.94244 0.20379 0.0
C839 C 0.66407 0.94119 0.18119 0.0
C840 C 0.63966 0.9671 0.22462 0.0
C841 C 0.6613 0.99074 0.22311 0.0
C842 C 0.68322 0.99013 0.19958 0.0
C843 C 0.68462 0.96575 0.17896 0.0
H844 H 0.52037 0.85187 0.13262 0.0
H845 H 0.57835 0.78222 0.1721 0.0
H846 H 0.4781 0.81596 0.13252 0.0
H847 H 0.53578 0.74623 0.17188 0.0
H848 H 0.44191 0.69535 0.17869 0.0
H849 H 0.48062 0.73414 0.19091 0.0
H850 H 0.47387 0.76939 0.09785 0.0
H851 H 0.43593 0.73107 0.08562 0.0
C852 C 0.52399 0.82912 0.14188 0.0
C853 C 0.55292 0.81977 0.15182 0.0
C854 C 0.49975 0.80852 0.14174 0.0
C855 C 0.50381 0.77817 0.15169 0.0
C856 C 0.53201 0.7695 0.16408 0.0
C857 C 0.5564 0.79011 0.1641 0.0
C858 C 0.44873 0.71147 0.16095 0.0
C859 C 0.43591 0.71008 0.13117 0.0
C860 C 0.47085 0.73359 0.16793 0.0
C861 C 0.47996 0.75498 0.14543 0.0
C862 C 0.46693 0.75358 0.11584 0.0
C863 C 0.44534 0.73137 0.10877 0.0
loop_
_geom_bond_atom_site_label_1
_geom_bond_atom_site_label_2
_geom_bond_distance
_geom_bond_site_symmetry_2
_ccdc_geom_bond_type
Mg0 O1 2.028 . S
Mg0 O7 1.986 . S
Mg0 O9 2.114 . S
Mg0 O10 2.251 . S
Mg0 O13 2.010 . S
O1 Mg0 2.028 . S
O1 C4 1.250 . S
O2 Mg3 2.028 . S
O2 C4 1.248 . S
Mg3 O2 2.028 . S
Mg3 O8 2.032 . S
Mg3 O10 2.079 . S
C4 O1 1.250 . S
C4 O2 1.248 . S
C5 O6 1.264 . S
C5 O13 1.249 . S
O6 C5 1.264 . S
O7 Mg0 1.986 . S
O7 C11 1.246 . S
O8 Mg3 2.032 . S
O8 C11 1.259 . S
O9 Mg0 2.114 . S
O9 C12 1.252 . S
O10 Mg0 2.251 . S
O10 Mg3 2.079 . S
O10 C12 1.273 . S
C11 O7 1.246 . S
C11 O8 1.259 . S
C12 O9 1.252 . S
C12 O10 1.273 . S
O13 Mg0 2.010 . S
O13 C5 1.249 . S
Mg14 O15 2.028 . S
Mg14 O21 1.986 . S
Mg14 O23 2.114 . S
Mg14 O24 2.251 . S
Mg14 O27 2.010 . S
O15 Mg14 2.028 . S
O15 C18 1.250 . S
O16 Mg17 2.028 . S
O16 C18 1.248 . S
Mg17 O16 2.028 . S
Mg17 O22 2.032 . S
Mg17 O24 2.079 . S
C18 O15 1.250 . S
C18 O16 1.248 . S
C19 O20 1.264 . S
C19 O27 1.249 . S
O20 C19 1.264 . S
O21 Mg14 1.986 . S
O21 C25 1.246 . S
O22 Mg17 2.032 . S
O22 C25 1.259 . S
O23 Mg14 2.114 . S
O23 C26 1.252 . S
O24 Mg14 2.251 . S
O24 Mg17 2.079 . S
O24 C26 1.273 . S
C25 O21 1.246 . S
C25 O22 1.259 . S
C26 O23 1.252 . S
C26 O24 1.273 . S
O27 Mg14 2.010 . S
O27 C19 1.249 . S
Mg28 O29 2.028 . S
Mg28 O35 1.986 . S
Mg28 O37 2.114 . S
Mg28 O38 2.251 . S
Mg28 O41 2.010 . S
O29 Mg28 2.028 . S
O29 C32 1.250 . S
O30 Mg31 2.028 . S
O30 C32 1.248 . S
Mg31 O30 2.028 . S
Mg31 O36 2.032 . S
Mg31 O38 2.079 . S
C32 O29 1.250 . S
C32 O30 1.248 . S
C33 O34 1.264 . S
C33 O41 1.249 . S
O34 C33 1.264 . S
O35 Mg28 1.986 . S
O35 C39 1.246 . S
O36 Mg31 2.032 . S
O36 C39 1.259 . S
O37 Mg28 2.114 . S
O37 C40 1.252 . S
O38 Mg28 2.251 . S
O38 Mg31 2.079 . S
O38 C40 1.273 . S
C39 O35 1.246 . S
C39 O36 1.259 . S
C40 O37 1.252 . S
C40 O38 1.273 . S
O41 Mg28 2.010 . S
O41 C33 1.249 . S
Mg42 O43 2.028 . S
Mg42 O49 1.986 . S
Mg42 O51 2.114 . S
Mg42 O52 2.251 . S
Mg42 O55 2.010 . S
O43 Mg42 2.028 . S
O43 C46 1.250 . S
O44 Mg45 2.028 . S
O44 C46 1.248 . S
Mg45 O44 2.028 . S
Mg45 O50 2.032 . S
Mg45 O52 2.079 . S
C46 O43 1.250 . S
C46 O44 1.248 . S
C47 O48 1.264 . S
C47 O55 1.249 . S
O48 C47 1.264 . S
O49 Mg42 1.986 . S
O49 C53 1.246 . S
O50 Mg45 2.032 . S
O50 C53 1.259 . S
O51 Mg42 2.114 . S
O51 C54 1.252 . S
O52 Mg42 2.251 . S
O52 Mg45 2.079 . S
O52 C54 1.273 . S
C53 O49 1.246 . S
C53 O50 1.259 . S
C54 O51 1.252 . S
C54 O52 1.273 . S
O55 Mg42 2.010 . S
O55 C47 1.249 . S
Mg56 O57 2.028 . S
Mg56 O63 1.986 . S
Mg56 O65 2.114 . S
Mg56 O66 2.251 . S
Mg56 O69 2.010 . S
O57 Mg56 2.028 . S
O57 C60 1.250 . S
O58 Mg59 2.028 . S
O58 C60 1.248 . S
Mg59 O58 2.028 . S
Mg59 O64 2.032 . S
Mg59 O66 2.079 . S
C60 O57 1.250 . S
C60 O58 1.248 . S
C61 O62 1.264 . S
C61 O69 1.249 . S
O62 C61 1.264 . S
O63 Mg56 1.986 . S
O63 C67 1.246 . S
O64 Mg59 2.032 . S
O64 C67 1.259 . S
O65 Mg56 2.114 . S
O65 C68 1.252 . S
O66 Mg56 2.251 . S
O66 Mg59 2.079 . S
O66 C68 1.273 . S
C67 O63 1.246 . S
C67 O64 1.259 . S
C68 O65 1.252 . S
C68 O66 1.273 . S
O69 Mg56 2.010 . S
O69 C61 1.249 . S
Mg70 O71 2.028 . S
Mg70 O77 1.986 . S
Mg70 O79 2.114 . S
Mg70 O80 2.251 . S
Mg70 O83 2.010 . S
O71 Mg70 2.028 . S
O71 C74 1.250 . S
O72 Mg73 2.028 . S
O72 C74 1.248 . S
Mg73 O72 2.028 . S
Mg73 O78 2.032 . S
Mg73 O80 2.079 . S
C74 O71 1.250 . S
C74 O72 1.248 . S
C75 O76 1.264 . S
C75 O83 1.249 . S
O76 C75 1.264 . S
O77 Mg70 1.986 . S
O77 C81 1.246 . S
O78 Mg73 2.032 . S
O78 C81 1.259 . S
O79 Mg70 2.114 . S
O79 C82 1.252 . S
O80 Mg70 2.251 . S
O80 Mg73 2.079 . S
O80 C82 1.273 . S
C81 O77 1.246 . S
C81 O78 1.259 . S
C82 O79 1.252 . S
C82 O80 1.273 . S
O83 Mg70 2.010 . S
O83 C75 1.249 . S
Mg84 O85 2.028 . S
Mg84 O91 1.986 . S
Mg84 O93 2.114 . S
Mg84 O94 2.251 . S
Mg84 O97 2.010 . S
O85 Mg84 2.028 . S
O85 C88 1.250 . S
O86 Mg87 2.028 . S
O86 C88 1.248 . S
Mg87 O86 2.028 . S
Mg87 O92 2.032 . S
Mg87 O94 2.079 . S
C88 O85 1.250 . S
C88 O86 1.248 . S
C89 O90 1.264 . S
C89 O97 1.249 . S
O90 C89 1.264 . S
O91 Mg84 1.986 . S
O91 C95 1.246 . S
O92 Mg87 2.032 . S
O92 C95 1.259 . S
O93 Mg84 2.114 . S
O93 C96 1.252 . S
O94 Mg84 2.251 . S
O94 Mg87 2.079 . S
O94 C96 1.273 . S
C95 O91 1.246 . S
C95 O92 1.259 . S
C96 O93 1.252 . S
C96 O94 1.273 . S
O97 Mg84 2.010 . S
O97 C89 1.249 . S
Mg98 O99 2.028 . S
Mg98 O105 1.986 . S
Mg98 O107 2.114 . S
Mg98 O108 2.251 . S
Mg98 O111 2.010 . S
O99 Mg98 2.028 . S
O99 C102 1.250 . S
O100 Mg101 2.028 . S
O100 C102 1.248 . S
Mg101 O100 2.028 . S
Mg101 O106 2.032 . S
Mg101 O108 2.079 . S
C102 O99 1.250 . S
C102 O100 1.248 . S
C103 O104 1.264 . S
C103 O111 1.249 . S
O104 C103 1.264 . S
O105 Mg98 1.986 . S
O105 C109 1.246 . S
O106 Mg101 2.032 . S
O106 C109 1.259 . S
O107 Mg98 2.114 . S
O107 C110 1.252 . S
O108 Mg98 2.251 . S
O108 Mg101 2.079 . S
O108 C110 1.273 . S
C109 O105 1.246 . S
C109 O106 1.259 . S
C110 O107 1.252 . S
C110 O108 1.273 . S
O111 Mg98 2.010 . S
O111 C103 1.249 . S
Mg112 O113 2.028 . S
Mg112 O119 1.986 . S
Mg112 O121 2.114 . S
Mg112 O122 2.251 . S
Mg112 O125 2.010 . S
O113 Mg112 2.028 . S
O113 C116 1.250 . S
O114 Mg115 2.028 . S
O114 C116 1.248 . S
Mg115 O114 2.028 . S
Mg115 O120 2.032 . S
Mg115 O122 2.079 . S
C116 O113 1.250 . S
C116 O114 1.248 . S
C117 O118 1.264 . S
C117 O125 1.249 . S
O118 C117 1.264 . S
O119 Mg112 1.986 . S
O119 C123 1.246 . S
O120 Mg115 2.032 . S
O120 C123 1.259 . S
O121 Mg112 2.114 . S
O121 C124 1.252 . S
O122 Mg112 2.251 . S
O122 Mg115 2.079 . S
O122 C124 1.273 . S
C123 O119 1.246 . S
C123 O120 1.259 . S
C124 O121 1.252 . S
C124 O122 1.273 . S
O125 Mg112 2.010 . S
O125 C117 1.249 . S
Mg126 O127 2.028 . S
Mg126 O133 1.986 . S
Mg126 O135 2.114 . S
Mg126 O136 2.251 . S
Mg126 O139 2.010 . S
O127 Mg126 2.028 . S
O127 C130 1.250 . S
O128 Mg129 2.028 . S
O128 C130 1.248 . S
Mg129 O128 2.028 . S
Mg129 O134 2.032 . S
Mg129 O136 2.079 . S
C130 O127 1.250 . S
C130 O128 1.248 . S
C131 O132 1.264 . S
C131 O139 1.249 . S
O132 C131 1.264 . S
O133 Mg126 1.986 . S
O133 C137 1.246 . S
O134 Mg129 2.032 . S
O134 C137 1.259 . S
O135 Mg126 2.114 . S
O135 C138 1.252 . S
O136 Mg126 2.251 . S
O136 Mg129 2.079 . S
O136 C138 1.273 . S
C137 O133 1.246 . S
C137 O134 1.259 . S
C138 O135 1.252 . S
C138 O136 1.273 . S
O139 Mg126 2.010 . S
O139 C131 1.249 . S
Mg140 O141 2.028 . S
Mg140 O147 1.986 . S
Mg140 O149 2.114 . S
Mg140 O150 2.251 . S
Mg140 O153 2.010 . S
O141 Mg140 2.028 . S
O141 C144 1.250 . S
O142 Mg143 2.028 . S
O142 C144 1.248 . S
Mg143 O142 2.028 . S
Mg143 O148 2.032 . S
Mg143 O150 2.079 . S
C144 O141 1.250 . S
C144 O142 1.248 . S
C145 O146 1.264 . S
C145 O153 1.249 . S
O146 C145 1.264 . S
O147 Mg140 1.986 . S
O147 C151 1.246 . S
O148 Mg143 2.032 . S
O148 C151 1.259 . S
O149 Mg140 2.114 . S
O149 C152 1.252 . S
O150 Mg140 2.251 . S
O150 Mg143 2.079 . S
O150 C152 1.273 . S
C151 O147 1.246 . S
C151 O148 1.259 . S
C152 O149 1.252 . S
C152 O150 1.273 . S
O153 Mg140 2.010 . S
O153 C145 1.249 . S
Mg154 O155 2.028 . S
Mg154 O161 1.986 . S
Mg154 O163 2.114 . S
Mg154 O164 2.251 . S
Mg154 O167 2.010 . S
O155 Mg154 2.028 . S
O155 C158 1.250 . S
O156 Mg157 2.028 . S
O156 C158 1.248 . S
Mg157 O156 2.028 . S
Mg157 O162 2.032 . S
Mg157 O164 2.079 . S
C158 O155 1.250 . S
C158 O156 1.248 . S
C159 O160 1.264 . S
C159 O167 1.249 . S
O160 C159 1.264 . S
O161 Mg154 1.986 . S
O161 C165 1.246 . S
O162 Mg157 2.032 . S
O162 C165 1.259 . S
O163 Mg154 2.114 . S
O163 C166 1.252 . S
O164 Mg154 2.251 . S
O164 Mg157 2.079 . S
O164 C166 1.273 . S
C165 O161 1.246 . S
C165 O162 1.259 . S
C166 O163 1.252 . S
C166 O164 1.273 . S
O167 Mg154 2.010 . S
O167 C159 1.249 . S
Mg168 O169 2.028 . S
Mg168 O175 1.986 . S
Mg168 O177 2.114 . S
Mg168 O178 2.251 . S
Mg168 O181 2.010 . S
O169 Mg168 2.028 . S
O169 C172 1.250 . S
O170 Mg171 2.028 . S
O170 C172 1.248 . S
Mg171 O170 2.028 . S
Mg171 O176 2.032 . S
Mg171 O178 2.079 . S
C172 O169 1.250 . S
C172 O170 1.248 . S
C173 O174 1.264 . S
C173 O181 1.249 . S
O174 C173 1.264 . S
O175 Mg168 1.986 . S
O175 C179 1.246 . S
O176 Mg171 2.032 . S
O176 C179 1.259 . S
O177 Mg168 2.114 . S
O177 C180 1.252 . S
O178 Mg168 2.251 . S
O178 Mg171 2.079 . S
O178 C180 1.273 . S
C179 O175 1.246 . S
C179 O176 1.259 . S
C180 O177 1.252 . S
C180 O178 1.273 . S
O181 Mg168 2.010 . S
O181 C173 1.249 . S
Mg182 O183 2.028 . S
Mg182 O189 1.986 . S
Mg182 O191 2.114 . S
Mg182 O192 2.251 . S
Mg182 O195 2.010 . S
O183 Mg182 2.028 . S
O183 C186 1.250 . S
O184 Mg185 2.028 . S
O184 C186 1.248 . S
Mg185 O184 2.028 . S
Mg185 O190 2.032 . S
Mg185 O192 2.079 . S
C186 O183 1.250 . S
C186 O184 1.248 . S
C187 O188 1.264 . S
C187 O195 1.249 . S
O188 C187 1.264 . S
O189 Mg182 1.986 . S
O189 C193 1.246 . S
O190 Mg185 2.032 . S
O190 C193 1.259 . S
O191 Mg182 2.114 . S
O191 C194 1.252 . S
O192 Mg182 2.251 . S
O192 Mg185 2.079 . S
O192 C194 1.273 . S
C193 O189 1.246 . S
C193 O190 1.259 . S
C194 O191 1.252 . S
C194 O192 1.273 . S
O195 Mg182 2.010 . S
O195 C187 1.249 . S
Mg196 O197 2.028 . S
Mg196 O203 1.986 . S
Mg196 O205 2.114 . S
Mg196 O206 2.251 . S
Mg196 O209 2.010 . S
O197 Mg196 2.028 . S
O197 C200 1.250 . S
O198 Mg199 2.028 . S
O198 C200 1.248 . S
Mg199 O198 2.028 . S
Mg199 O204 2.032 . S
Mg199 O206 2.079 . S
C200 O197 1.250 . S
C200 O198 1.248 . S
C201 O202 1.264 . S
C201 O209 1.249 . S
O202 C201 1.264 . S
O203 Mg196 1.986 . S
O203 C207 1.246 . S
O204 Mg199 2.032 . S
O204 C207 1.259 . S
O205 Mg196 2.114 . S
O205 C208 1.252 . S
O206 Mg196 2.251 . S
O206 Mg199 2.079 . S
O206 C208 1.273 . S
C207 O203 1.246 . S
C207 O204 1.259 . S
C208 O205 1.252 . S
C208 O206 1.273 . S
O209 Mg196 2.010 . S
O209 C201 1.249 . S
Mg210 O211 2.028 . S
Mg210 O217 1.986 . S
Mg210 O219 2.114 . S
Mg210 O220 2.251 . S
Mg210 O223 2.010 . S
O211 Mg210 2.028 . S
O211 C214 1.250 . S
O212 Mg213 2.028 . S
O212 C214 1.248 . S
Mg213 O212 2.028 . S
Mg213 O218 2.032 . S
Mg213 O220 2.079 . S
C214 O211 1.250 . S
C214 O212 1.248 . S
C215 O216 1.264 . S
C215 O223 1.249 . S
O216 C215 1.264 . S
O217 Mg210 1.986 . S
O217 C221 1.246 . S
O218 Mg213 2.032 . S
O218 C221 1.259 . S
O219 Mg210 2.114 . S
O219 C222 1.252 . S
O220 Mg210 2.251 . S
O220 Mg213 2.079 . S
O220 C222 1.273 . S
C221 O217 1.246 . S
C221 O218 1.259 . S
C222 O219 1.252 . S
C222 O220 1.273 . S
O223 Mg210 2.010 . S
O223 C215 1.249 . S
H224 C232 0.950 . S
H225 C237 0.950 . S
H226 C234 0.950 . S
H227 C236 0.950 . S
H228 C238 0.950 . S
H229 C240 0.950 . S
H230 C242 0.950 . S
H231 C243 0.950 . S
C232 H224 0.950 . S
C232 C233 1.386 . S
C232 C234 1.391 . S
C233 C232 1.386 . S
C233 C237 1.393 . S
C234 H226 0.950 . S
C234 C232 1.391 . S
C234 C235 1.400 . S
C235 C234 1.400 . S
C235 C236 1.398 . S
C235 C241 1.491 . S
C236 H227 0.950 . S
C236 C235 1.398 . S
C236 C237 1.391 . S
C237 H225 0.950 . S
C237 C233 1.393 . S
C237 C236 1.391 . S
C238 H228 0.950 . S
C238 C239 1.386 . S
C238 C240 1.391 . S
C239 C238 1.386 . S
C239 C243 1.393 . S
C240 H229 0.950 . S
C240 C238 1.391 . S
C240 C241 1.400 . S
C241 C235 1.491 . S
C241 C240 1.400 . S
C241 C242 1.398 . S
C242 H230 0.950 . S
C242 C241 1.398 . S
C242 C243 1.391 . S
C243 H231 0.950 . S
C243 C239 1.393 . S
C243 C242 1.391 . S
H244 C252 0.950 . S
H245 C257 0.950 . S
H246 C254 0.950 . S
H247 C256 0.950 . S
H248 C258 0.950 . S
H249 C260 0.950 . S
H250 C262 0.950 . S
H251 C263 0.950 . S
C252 H244 0.950 . S
C252 C253 1.386 . S
C252 C254 1.391 . S
C253 C252 1.386 . S
C253 C257 1.393 . S
C254 H246 0.950 . S
C254 C252 1.391 . S
C254 C255 1.400 . S
C255 C254 1.400 . S
C255 C256 1.398 . S
C255 C261 1.491 . S
C256 H247 0.950 . S
C256 C255 1.398 . S
C256 C257 1.391 . S
C257 H245 0.950 . S
C257 C253 1.393 . S
C257 C256 1.391 . S
C258 H248 0.950 . S
C258 C259 1.386 . S
C258 C260 1.391 . S
C259 C258 1.386 . S
C259 C263 1.393 . S
C260 H249 0.950 . S
C260 C258 1.391 . S
C260 C261 1.400 . S
C261 C255 1.491 . S
C261 C260 1.400 . S
C261 C262 1.398 . S
C262 H250 0.950 . S
C262 C261 1.398 . S
C262 C263 1.391 . S
C263 H251 0.950 . S
C263 C259 1.393 . S
C263 C262 1.391 . S
H264 C272 0.950 . S
H265 C277 0.950 . S
H266 C274 0.950 . S
H267 C276 0.950 . S
H268 C278 0.950 . S
H269 C280 0.950 . S
H270 C282 0.950 . S
H271 C283 0.950 . S
C272 H264 0.950 . S
C272 C273 1.386 . S
C272 C274 1.391 . S
C273 C272 1.386 . S
C273 C277 1.393 . S
C274 H266 0.950 . S
C274 C272 1.391 . S
C274 C275 1.400 . S
C275 C274 1.400 . S
C275 C276 1.398 . S
C275 C281 1.491 . S
C276 H267 0.950 . S
C276 C275 1.398 . S
C276 C277 1.391 . S
C277 H265 0.950 . S
C277 C273 1.393 . S
C277 C276 1.391 . S
C278 H268 0.950 . S
C278 C279 1.386 . S
C278 C280 1.391 . S
C279 C278 1.386 . S
C279 C283 1.393 . S
C280 H269 0.950 . S
C280 C278 1.391 . S
C280 C281 1.400 . S
C281 C275 1.491 . S
C281 C280 1.400 . S
C281 C282 1.398 . S
C282 H270 0.950 . S
C282 C281 1.398 . S
C282 C283 1.391 . S
C283 H271 0.950 . S
C283 C279 1.393 . S
C283 C282 1.391 . S
H284 C292 0.950 . S
H285 C297 0.950 . S
H286 C294 0.950 . S
H287 C296 0.950 . S
H288 C298 0.950 . S
H289 C300 0.950 . S
H290 C302 0.950 . S
H291 C303 0.950 . S
C292 H284 0.950 . S
C292 C293 1.386 . S
C292 C294 1.391 . S
C293 C292 1.386 . S
C293 C297 1.393 . S
C294 H286 0.950 . S
C294 C292 1.391 . S
C294 C295 1.400 . S
C295 C294 1.400 . S
C295 C296 1.398 . S
C295 C301 1.491 . S
C296 H287 0.950 . S
C296 C295 1.398 . S
C296 C297 1.391 . S
C297 H285 0.950 . S
C297 C293 1.393 . S
C297 C296 1.391 . S
C298 H288 0.950 . S
C298 C299 1.386 . S
C298 C300 1.391 . S
C299 C298 1.386 . S
C299 C303 1.393 . S
C300 H289 0.950 . S
C300 C298 1.391 . S
C300 C301 1.400 . S
C301 C295 1.491 . S
C301 C300 1.400 . S
C301 C302 1.398 . S
C302 H290 0.950 . S
C302 C301 1.398 . S
C302 C303 1.391 . S
C303 H291 0.950 . S
C303 C299 1.393 . S
C303 C302 1.391 . S
H304 C312 0.950 . S
H305 C317 0.950 . S
H306 C314 0.950 . S
H307 C316 0.950 . S
H308 C318 0.950 . S
H309 C320 0.950 . S
H310 C322 0.950 . S
H311 C323 0.950 . S
C312 H304 0.950 . S
C312 C313 1.386 . S
C312 C314 1.391 . S
C313 C312 1.386 . S
C313 C317 1.393 . S
C314 H306 0.950 . S
C314 C312 1.391 . S
C314 C315 1.400 . S
C315 C314 1.400 . S
C315 C316 1.398 . S
C315 C321 1.491 . S
C316 H307 0.950 . S
C316 C315 1.398 . S
C316 C317 1.391 . S
C317 H305 0.950 . S
C317 C313 1.393 . S
C317 C316 1.391 . S
C318 H308 0.950 . S
C318 C319 1.386 . S
C318 C320 1.391 . S
C319 C318 1.386 . S
C319 C323 1.393 . S
C320 H309 0.950 . S
C320 C318 1.391 . S
C320 C321 1.400 . S
C321 C315 1.491 . S
C321 C320 1.400 . S
C321 C322 1.398 . S
C322 H310 0.950 . S
C322 C321 1.398 . S
C322 C323 1.391 . S
C323 H311 0.950 . S
C323 C319 1.393 . S
C323 C322 1.391 . S
H324 C332 0.950 . S
H325 C337 0.950 . S
H326 C334 0.950 . S
H327 C336 0.950 . S
H328 C338 0.950 . S
H329 C340 0.950 . S
H330 C342 0.950 . S
H331 C343 0.950 . S
C332 H324 0.950 . S
C332 C333 1.386 . S
C332 C334 1.391 . S
C333 C332 1.386 . S
C333 C337 1.393 . S
C334 H326 0.950 . S
C334 C332 1.391 . S
C334 C335 1.400 . S
C335 C334 1.400 . S
C335 C336 1.398 . S
C335 C341 1.491 . S
C336 H327 0.950 . S
C336 C335 1.398 . S
C336 C337 1.391 . S
C337 H325 0.950 . S
C337 C333 1.393 . S
C337 C336 1.391 . S
C338 H328 0.950 . S
C338 C339 1.386 . S
C338 C340 1.391 . S
C339 C338 1.386 . S
C339 C343 1.393 . S
C340 H329 0.950 . S
C340 C338 1.391 . S
C340 C341 1.400 . S
C341 C335 1.491 . S
C341 C340 1.400 . S
C341 C342 1.398 . S
C342 H330 0.950 . S
C342 C341 1.398 . S
C342 C343 1.391 . S
C343 H331 0.950 . S
C343 C339 1.393 . S
C343 C342 1.391 . S
H344 C352 0.950 . S
H345 C357 0.950 . S
H346 C354 0.950 . S
H347 C356 0.950 . S
H348 C358 0.950 . S
H349 C360 0.950 . S
H350 C362 0.950 . S
H351 C363 0.950 . S
C352 H344 0.950 . S
C352 C353 1.386 . S
C352 C354 1.391 . S
C353 C352 1.386 . S
C353 C357 1.393 . S
C354 H346 0.950 . S
C354 C352 1.391 . S
C354 C355 1.400 . S
C355 C354 1.400 . S
C355 C356 1.398 . S
C355 C361 1.491 . S
C356 H347 0.950 . S
C356 C355 1.398 . S
C356 C357 1.391 . S
C357 H345 0.950 . S
C357 C353 1.393 . S
C357 C356 1.391 . S
C358 H348 0.950 . S
C358 C359 1.386 . S
C358 C360 1.391 . S
C359 C358 1.386 . S
C359 C363 1.393 . S
C360 H349 0.950 . S
C360 C358 1.391 . S
C360 C361 1.400 . S
C361 C355 1.491 . S
C361 C360 1.400 . S
C361 C362 1.398 . S
C362 H350 0.950 . S
C362 C361 1.398 . S
C362 C363 1.391 . S
C363 H351 0.950 . S
C363 C359 1.393 . S
C363 C362 1.391 . S
H364 C372 0.950 . S
H365 C377 0.950 . S
H366 C374 0.950 . S
H367 C376 0.950 . S
H368 C378 0.950 . S
H369 C380 0.950 . S
H370 C382 0.950 . S
H371 C383 0.950 . S
C372 H364 0.950 . S
C372 C373 1.386 . S
C372 C374 1.391 . S
C373 C372 1.386 . S
C373 C377 1.393 . S
C374 H366 0.950 . S
C374 C372 1.391 . S
C374 C375 1.400 . S
C375 C374 1.400 . S
C375 C376 1.398 . S
C375 C381 1.491 . S
C376 H367 0.950 . S
C376 C375 1.398 . S
C376 C377 1.391 . S
C377 H365 0.950 . S
C377 C373 1.393 . S
C377 C376 1.391 . S
C378 H368 0.950 . S
C378 C379 1.386 . S
C378 C380 1.391 . S
C379 C378 1.386 . S
C379 C383 1.393 . S
C380 H369 0.950 . S
C380 C378 1.391 . S
C380 C381 1.400 . S
C381 C375 1.491 . S
C381 C380 1.400 . S
C381 C382 1.398 . S
C382 H370 0.950 . S
C382 C381 1.398 . S
C382 C383 1.391 . S
C383 H371 0.950 . S
C383 C379 1.393 . S
C383 C382 1.391 . S
H384 C392 0.950 . S
H385 C397 0.950 . S
H386 C394 0.950 1_545 S
H387 C396 0.950 . S
H388 C398 0.950 . S
H389 C400 0.950 1_565 S
H390 C402 0.950 . S
H391 C403 0.950 . S
C392 H384 0.950 . S
C392 C393 1.386 . S
C392 C394 1.391 . S
C393 C392 1.386 . S
C393 C397 1.393 . S
C394 H386 0.950 1_565 S
C394 C392 1.391 . S
C394 C395 1.400 . S
C395 C394 1.400 . S
C395 C396 1.398 . S
C395 C401 1.491 1_565 S
C396 H387 0.950 . S
C396 C395 1.398 . S
C396 C397 1.391 . S
C397 H385 0.950 . S
C397 C393 1.393 . S
C397 C396 1.391 . S
C398 H388 0.950 . S
C398 C399 1.386 . S
C398 C400 1.391 . S
C399 C398 1.386 . S
C399 C403 1.393 . S
C400 H389 0.950 1_545 S
C400 C398 1.391 . S
C400 C401 1.400 . S
C401 C395 1.491 1_545 S
C401 C400 1.400 . S
C401 C402 1.398 . S
C402 H390 0.950 . S
C402 C401 1.398 . S
C402 C403 1.391 . S
C403 H391 0.950 . S
C403 C399 1.393 . S
C403 C402 1.391 . S
H404 C412 0.950 . S
H405 C417 0.950 . S
H406 C414 0.950 . S
H407 C416 0.950 . S
H408 C418 0.950 . S
H409 C420 0.950 . S
H410 C422 0.950 . S
H411 C423 0.950 . S
C412 H404 0.950 . S
C412 C413 1.386 . S
C412 C414 1.391 . S
C413 C412 1.386 . S
C413 C417 1.393 . S
C414 H406 0.950 . S
C414 C412 1.391 . S
C414 C415 1.400 . S
C415 C414 1.400 . S
C415 C416 1.398 . S
C415 C421 1.491 . S
C416 H407 0.950 . S
C416 C415 1.398 . S
C416 C417 1.391 . S
C417 H405 0.950 . S
C417 C413 1.393 . S
C417 C416 1.391 . S
C418 H408 0.950 . S
C418 C419 1.386 . S
C418 C420 1.391 . S
C419 C418 1.386 . S
C419 C423 1.393 . S
C420 H409 0.950 . S
C420 C418 1.391 . S
C420 C421 1.400 . S
C421 C415 1.491 . S
C421 C420 1.400 . S
C421 C422 1.398 . S
C422 H410 0.950 . S
C422 C421 1.398 . S
C422 C423 1.391 . S
C423 H411 0.950 . S
C423 C419 1.393 . S
C423 C422 1.391 . S
H424 C432 0.950 . S
H425 C437 0.950 . S
H426 C434 0.950 . S
H427 C436 0.950 1_554 S
H428 C438 0.950 . S
H429 C440 0.950 . S
H430 C442 0.950 1_556 S
H431 C443 0.950 . S
C432 H424 0.950 . S
C432 C433 1.386 . S
C432 C434 1.391 . S
C433 C432 1.386 . S
C433 C437 1.393 . S
C434 H426 0.950 . S
C434 C432 1.391 . S
C434 C435 1.400 . S
C435 C434 1.400 . S
C435 C436 1.398 . S
C435 C441 1.491 1_556 S
C436 H427 0.950 1_556 S
C436 C435 1.398 . S
C436 C437 1.391 . S
C437 H425 0.950 . S
C437 C433 1.393 . S
C437 C436 1.391 . S
C438 H428 0.950 . S
C438 C439 1.386 . S
C438 C440 1.391 . S
C439 C438 1.386 . S
C439 C443 1.393 . S
C440 H429 0.950 . S
C440 C438 1.391 . S
C440 C441 1.400 . S
C441 C435 1.491 1_554 S
C441 C440 1.400 . S
C441 C442 1.398 . S
C442 H430 0.950 1_554 S
C442 C441 1.398 . S
C442 C443 1.391 . S
C443 H431 0.950 . S
C443 C439 1.393 . S
C443 C442 1.391 . S
H444 C452 0.950 . S
H445 C457 0.950 . S
H446 C454 0.950 . S
H447 C456 0.950 1_556 S
H448 C458 0.950 . S
H449 C460 0.950 . S
H450 C462 0.950 1_554 S
H451 C463 0.950 . S
C452 H444 0.950 . S
C452 C453 1.386 . S
C452 C454 1.391 . S
C453 C452 1.386 . S
C453 C457 1.393 . S
C454 H446 0.950 . S
C454 C452 1.391 . S
C454 C455 1.400 . S
C455 C454 1.400 . S
C455 C456 1.398 . S
C455 C461 1.491 1_554 S
C456 H447 0.950 1_554 S
C456 C455 1.398 . S
C456 C457 1.391 . S
C457 H445 0.950 . S
C457 C453 1.393 . S
C457 C456 1.391 . S
C458 H448 0.950 . S
C458 C459 1.386 . S
C458 C460 1.391 . S
C459 C458 1.386 . S
C459 C463 1.393 . S
C460 H449 0.950 . S
C460 C458 1.391 . S
C460 C461 1.400 . S
C461 C455 1.491 1_556 S
C461 C460 1.400 . S
C461 C462 1.398 . S
C462 H450 0.950 1_556 S
C462 C461 1.398 . S
C462 C463 1.391 . S
C463 H451 0.950 . S
C463 C459 1.393 . S
C463 C462 1.391 . S
H464 C472 0.950 . S
H465 C477 0.950 . S
H466 C474 0.950 . S
H467 C476 0.950 . S
H468 C478 0.950 . S
H469 C480 0.950 . S
H470 C482 0.950 . S
H471 C483 0.950 . S
C472 H464 0.950 . S
C472 C473 1.386 . S
C472 C474 1.391 . S
C473 C472 1.386 . S
C473 C477 1.393 . S
C474 H466 0.950 . S
C474 C472 1.391 . S
C474 C475 1.400 . S
C475 C474 1.400 . S
C475 C476 1.398 . S
C475 C481 1.491 . S
C476 H467 0.950 . S
C476 C475 1.398 . S
C476 C477 1.391 . S
C477 H465 0.950 . S
C477 C473 1.393 . S
C477 C476 1.391 . S
C478 H468 0.950 . S
C478 C479 1.386 . S
C478 C480 1.391 . S
C479 C478 1.386 . S
C479 C483 1.393 . S
C480 H469 0.950 . S
C480 C478 1.391 . S
C480 C481 1.400 . S
C481 C475 1.491 . S
C481 C480 1.400 . S
C481 C482 1.398 . S
C482 H470 0.950 . S
C482 C481 1.398 . S
C482 C483 1.391 . S
C483 H471 0.950 . S
C483 C479 1.393 . S
C483 C482 1.391 . S
H484 C492 0.950 . S
H485 C497 0.950 . S
H486 C494 0.950 . S
H487 C496 0.950 . S
H488 C498 0.950 . S
H489 C500 0.950 . S
H490 C502 0.950 . S
H491 C503 0.950 . S
C492 H484 0.950 . S
C492 C493 1.386 . S
C492 C494 1.391 . S
C493 C492 1.386 . S
C493 C497 1.393 . S
C494 H486 0.950 . S
C494 C492 1.391 . S
C494 C495 1.400 . S
C495 C494 1.400 . S
C495 C496 1.398 . S
C495 C501 1.491 . S
C496 H487 0.950 . S
C496 C495 1.398 . S
C496 C497 1.391 . S
C497 H485 0.950 . S
C497 C493 1.393 . S
C497 C496 1.391 . S
C498 H488 0.950 . S
C498 C499 1.386 . S
C498 C500 1.391 . S
C499 C498 1.386 . S
C499 C503 1.393 . S
C500 H489 0.950 . S
C500 C498 1.391 . S
C500 C501 1.400 . S
C501 C495 1.491 . S
C501 C500 1.400 . S
C501 C502 1.398 . S
C502 H490 0.950 . S
C502 C501 1.398 . S
C502 C503 1.391 . S
C503 H491 0.950 . S
C503 C499 1.393 . S
C503 C502 1.391 . S
H504 C512 0.950 . S
H505 C517 0.950 . S
H506 C514 0.950 . S
H507 C516 0.950 1_455 S
H508 C518 0.950 . S
H509 C520 0.950 . S
H510 C522 0.950 1_655 S
H511 C523 0.950 . S
C512 H504 0.950 . S
C512 C513 1.386 . S
C512 C514 1.391 . S
C513 C512 1.386 . S
C513 C517 1.393 . S
C514 H506 0.950 . S
C514 C512 1.391 . S
C514 C515 1.400 . S
C515 C514 1.400 . S
C515 C516 1.398 . S
C515 C521 1.491 1_655 S
C516 H507 0.950 1_655 S
C516 C515 1.398 . S
C516 C517 1.391 . S
C517 H505 0.950 . S
C517 C513 1.393 . S
C517 C516 1.391 . S
C518 H508 0.950 . S
C518 C519 1.386 . S
C518 C520 1.391 . S
C519 C518 1.386 . S
C519 C523 1.393 . S
C520 H509 0.950 . S
C520 C518 1.391 . S
C520 C521 1.400 . S
C521 C515 1.491 1_455 S
C521 C520 1.400 . S
C521 C522 1.398 . S
C522 H510 0.950 1_455 S
C522 C521 1.398 . S
C522 C523 1.391 . S
C523 H511 0.950 . S
C523 C519 1.393 . S
C523 C522 1.391 . S
H524 C532 0.950 . S
H525 C537 0.950 . S
H526 C534 0.965 . S
H527 C536 0.950 . S
H528 C538 0.950 . S
H529 C540 0.965 . S
H530 C542 0.950 . S
H531 C543 0.950 . S
C532 H524 0.950 . S
C532 C533 1.386 . S
C532 C534 1.391 . S
C533 C532 1.386 . S
C533 C537 1.393 . S
C534 H526 0.965 . S
C534 C532 1.391 . S
C534 C535 1.400 . S
C535 C534 1.400 . S
C535 C536 1.398 . S
C535 C541 1.491 1_655 S
C536 H527 0.950 . S
C536 C535 1.398 . S
C536 C537 1.391 . S
C537 H525 0.950 . S
C537 C533 1.393 . S
C537 C536 1.391 . S
C538 H528 0.950 . S
C538 C539 1.386 . S
C538 C540 1.391 . S
C539 C538 1.386 . S
C539 C543 1.393 . S
C540 H529 0.965 . S
C540 C538 1.391 . S
C540 C541 1.400 . S
C541 C535 1.491 1_455 S
C541 C540 1.400 . S
C541 C542 1.398 . S
C542 H530 0.950 . S
C542 C541 1.398 . S
C542 C543 1.391 . S
C543 H531 0.950 . S
C543 C539 1.393 . S
C543 C542 1.391 . S
H544 C552 0.950 . S
H545 C557 0.950 . S
H546 C554 0.950 . S
H547 C556 0.950 . S
H548 C558 0.950 . S
H549 C560 0.950 . S
H550 C562 0.950 . S
H551 C563 0.950 . S
C552 H544 0.950 . S
C552 C553 1.386 . S
C552 C554 1.391 . S
C553 C552 1.386 . S
C553 C557 1.393 . S
C554 H546 0.950 . S
C554 C552 1.391 . S
C554 C555 1.400 . S
C555 C554 1.400 . S
C555 C556 1.398 . S
C555 C561 1.491 . S
C556 H547 0.950 . S
C556 C555 1.398 . S
C556 C557 1.391 . S
C557 H545 0.950 . S
C557 C553 1.393 . S
C557 C556 1.391 . S
C558 H548 0.950 . S
C558 C559 1.386 . S
C558 C560 1.391 . S
C559 C558 1.386 . S
C559 C563 1.393 . S
C560 H549 0.950 . S
C560 C558 1.391 . S
C560 C561 1.400 . S
C561 C555 1.491 . S
C561 C560 1.400 . S
C561 C562 1.398 . S
C562 H550 0.950 . S
C562 C561 1.398 . S
C562 C563 1.391 . S
C563 H551 0.950 . S
C563 C559 1.393 . S
C563 C562 1.391 . S
H564 C572 0.950 . S
H565 C577 0.950 . S
H566 C574 0.950 1_565 S
H567 C576 0.950 . S
H568 C578 0.950 . S
H569 C580 0.950 1_545 S
H570 C582 0.950 . S
H571 C583 0.950 . S
C572 H564 0.950 . S
C572 C573 1.386 . S
C572 C574 1.391 . S
C573 C572 1.386 . S
C573 C577 1.393 . S
C574 H566 0.950 1_545 S
C574 C572 1.391 . S
C574 C575 1.400 . S
C575 C574 1.400 . S
C575 C576 1.398 . S
C575 C581 1.491 1_545 S
C576 H567 0.950 . S
C576 C575 1.398 . S
C576 C577 1.391 . S
C577 H565 0.950 . S
C577 C573 1.393 . S
C577 C576 1.391 . S
C578 H568 0.950 . S
C578 C579 1.386 . S
C578 C580 1.391 . S
C579 C578 1.386 . S
C579 C583 1.393 . S
C580 H569 0.950 1_565 S
C580 C578 1.391 . S
C580 C581 1.400 . S
C581 C575 1.491 1_565 S
C581 C580 1.400 . S
C581 C582 1.398 . S
C582 H570 0.950 . S
C582 C581 1.398 . S
C582 C583 1.391 . S
C583 H571 0.950 . S
C583 C579 1.393 . S
C583 C582 1.391 . S
H584 C592 0.950 . S
H585 C597 0.950 . S
H586 C594 0.950 . S
H587 C596 0.950 . S
H588 C598 0.950 . S
H589 C600 0.950 . S
H590 C602 0.950 . S
H591 C603 0.950 . S
C592 H584 0.950 . S
C592 C593 1.386 . S
C592 C594 1.391 . S
C593 C592 1.386 . S
C593 C597 1.393 . S
C594 H586 0.950 . S
C594 C592 1.391 . S
C594 C595 1.400 . S
C595 C594 1.400 . S
C595 C596 1.398 . S
C595 C601 1.491 . S
C596 H587 0.950 . S
C596 C595 1.398 . S
C596 C597 1.391 . S
C597 H585 0.950 . S
C597 C593 1.393 . S
C597 C596 1.391 . S
C598 H588 0.950 . S
C598 C599 1.386 . S
C598 C600 1.391 . S
C599 C598 1.386 . S
C599 C603 1.393 . S
C600 H589 0.950 . S
C600 C598 1.391 . S
C600 C601 1.400 . S
C601 C595 1.491 . S
C601 C600 1.400 . S
C601 C602 1.398 . S
C602 H590 0.950 . S
C602 C601 1.398 . S
C602 C603 1.391 . S
C603 H591 0.950 . S
C603 C599 1.393 . S
C603 C602 1.391 . S
H604 C612 0.950 . S
H605 C617 0.950 . S
H606 C614 0.950 . S
H607 C616 0.950 1_556 S
H608 C618 0.950 . S
H609 C620 0.950 . S
H610 C622 0.950 1_554 S
H611 C623 0.950 . S
C612 H604 0.950 . S
C612 C613 1.386 . S
C612 C614 1.391 . S
C613 C612 1.386 . S
C613 C617 1.393 . S
C614 H606 0.950 . S
C614 C612 1.391 . S
C614 C615 1.400 . S
C615 C614 1.400 . S
C615 C616 1.398 . S
C615 C621 1.491 1_554 S
C616 H607 0.950 1_554 S
C616 C615 1.398 . S
C616 C617 1.391 . S
C617 H605 0.950 . S
C617 C613 1.393 . S
C617 C616 1.391 . S
C618 H608 0.950 . S
C618 C619 1.386 . S
C618 C620 1.391 . S
C619 C618 1.386 . S
C619 C623 1.393 . S
C620 H609 0.950 . S
C620 C618 1.391 . S
C620 C621 1.400 . S
C621 C615 1.491 1_556 S
C621 C620 1.400 . S
C621 C622 1.398 . S
C622 H610 0.950 1_556 S
C622 C621 1.398 . S
C622 C623 1.391 . S
C623 H611 0.950 . S
C623 C619 1.393 . S
C623 C622 1.391 . S
H624 C632 0.950 . S
H625 C637 0.950 . S
H626 C634 0.977 . S
H627 C636 0.950 . S
H628 C638 0.950 . S
H629 C640 0.977 . S
H630 C642 0.950 . S
H631 C643 0.950 . S
C632 H624 0.950 . S
C632 C633 1.386 . S
C632 C634 1.391 . S
C633 C632 1.386 . S
C633 C637 1.393 . S
C634 H626 0.977 . S
C634 C632 1.391 . S
C634 C635 1.400 . S
C635 C634 1.400 . S
C635 C636 1.398 . S
C635 C641 1.491 1_556 S
C636 H627 0.950 . S
C636 C635 1.398 . S
C636 C637 1.391 . S
C637 H625 0.950 . S
C637 C633 1.393 . S
C637 C636 1.391 . S
C638 H628 0.950 . S
C638 C639 1.386 . S
C638 C640 1.391 . S
C639 C638 1.386 . S
C639 C643 1.393 . S
C640 H629 0.977 . S
C640 C638 1.391 . S
C640 C641 1.400 . S
C641 C635 1.491 1_554 S
C641 C640 1.400 . S
C641 C642 1.398 . S
C642 H630 0.950 . S
C642 C641 1.398 . S
C642 C643 1.391 . S
C643 H631 0.950 . S
C643 C639 1.393 . S
C643 C642 1.391 . S
H644 C652 0.950 . S
H645 C657 0.950 . S
H646 C654 0.950 . S
H647 C656 0.950 . S
H648 C658 0.950 . S
H649 C660 0.950 . S
H650 C662 0.950 . S
H651 C663 0.950 . S
C652 H644 0.950 . S
C652 C653 1.386 . S
C652 C654 1.391 . S
C653 C652 1.386 . S
C653 C657 1.393 . S
C654 H646 0.950 . S
C654 C652 1.391 . S
C654 C655 1.400 . S
C655 C654 1.400 . S
C655 C656 1.398 . S
C655 C661 1.491 . S
C656 H647 0.950 . S
C656 C655 1.398 . S
C656 C657 1.391 . S
C657 H645 0.950 . S
C657 C653 1.393 . S
C657 C656 1.391 . S
C658 H648 0.950 . S
C658 C659 1.386 . S
C658 C660 1.391 . S
C659 C658 1.386 . S
C659 C663 1.393 . S
C660 H649 0.950 . S
C660 C658 1.391 . S
C660 C661 1.400 . S
C661 C655 1.491 . S
C661 C660 1.400 . S
C661 C662 1.398 . S
C662 H650 0.950 . S
C662 C661 1.398 . S
C662 C663 1.391 . S
C663 H651 0.950 . S
C663 C659 1.393 . S
C663 C662 1.391 . S
H664 C672 0.950 . S
H665 C677 0.950 . S
H666 C674 0.950 . S
H667 C676 0.950 . S
H668 C678 0.950 . S
H669 C680 0.950 . S
H670 C682 0.950 . S
H671 C683 0.950 . S
C672 H664 0.950 . S
C672 C673 1.386 . S
C672 C674 1.391 . S
C673 C672 1.386 . S
C673 C677 1.393 . S
C674 H666 0.950 . S
C674 C672 1.391 . S
C674 C675 1.400 . S
C675 C674 1.400 . S
C675 C676 1.398 . S
C675 C681 1.491 . S
C676 H667 0.950 . S
C676 C675 1.398 . S
C676 C677 1.391 . S
C677 H665 0.950 . S
C677 C673 1.393 . S
C677 C676 1.391 . S
C678 H668 0.950 . S
C678 C679 1.386 . S
C678 C680 1.391 . S
C679 C678 1.386 . S
C679 C683 1.393 . S
C680 H669 0.950 . S
C680 C678 1.391 . S
C680 C681 1.400 . S
C681 C675 1.491 . S
C681 C680 1.400 . S
C681 C682 1.398 . S
C682 H670 0.950 . S
C682 C681 1.398 . S
C682 C683 1.391 . S
C683 H671 0.950 . S
C683 C679 1.393 . S
C683 C682 1.391 . S
H684 C692 0.950 . S
H685 C697 0.950 . S
H686 C694 0.950 . S
H687 C696 0.950 . S
H688 C698 0.950 . S
H689 C700 0.950 . S
H690 C702 0.950 . S
H691 C703 0.950 . S
C692 H684 0.950 . S
C692 C693 1.386 . S
C692 C694 1.391 . S
C693 C692 1.386 . S
C693 C697 1.393 . S
C694 H686 0.950 . S
C694 C692 1.391 . S
C694 C695 1.400 . S
C695 C694 1.400 . S
C695 C696 1.398 . S
C695 C701 1.491 1_455 S
C696 H687 0.950 . S
C696 C695 1.398 . S
C696 C697 1.391 . S
C697 H685 0.950 . S
C697 C693 1.393 . S
C697 C696 1.391 . S
C698 H688 0.950 . S
C698 C699 1.386 . S
C698 C700 1.391 . S
C699 C698 1.386 . S
C699 C703 1.393 . S
C700 H689 0.950 . S
C700 C698 1.391 . S
C700 C701 1.400 . S
C701 C695 1.491 1_655 S
C701 C700 1.400 . S
C701 C702 1.398 . S
C702 H690 0.950 . S
C702 C701 1.398 . S
C702 C703 1.391 . S
C703 H691 0.950 . S
C703 C699 1.393 . S
C703 C702 1.391 . S
H704 C712 0.950 . S
H705 C717 0.950 . S
H706 C714 0.950 . S
H707 C716 0.950 . S
H708 C718 0.950 . S
H709 C720 0.950 . S
H710 C722 0.950 . S
H711 C723 0.950 . S
C712 H704 0.950 . S
C712 C713 1.386 . S
C712 C714 1.391 . S
C713 C712 1.386 . S
C713 C717 1.393 . S
C714 H706 0.950 . S
C714 C712 1.391 . S
C714 C715 1.400 . S
C715 C714 1.400 . S
C715 C716 1.398 . S
C715 C721 1.491 1_455 S
C716 H707 0.950 . S
C716 C715 1.398 . S
C716 C717 1.391 . S
C717 H705 0.950 . S
C717 C713 1.393 . S
C717 C716 1.391 . S
C718 H708 0.950 . S
C718 C719 1.386 . S
C718 C720 1.391 . S
C719 C718 1.386 . S
C719 C723 1.393 . S
C720 H709 0.950 . S
C720 C718 1.391 . S
C720 C721 1.400 . S
C721 C715 1.491 1_655 S
C721 C720 1.400 . S
C721 C722 1.398 . S
C722 H710 0.950 . S
C722 C721 1.398 . S
C722 C723 1.391 . S
C723 H711 0.950 . S
C723 C719 1.393 . S
C723 C722 1.391 . S
H724 C732 0.950 . S
H725 C737 0.950 . S
H726 C734 0.950 . S
H727 C736 0.950 . S
H728 C738 0.950 . S
H729 C740 0.950 . S
H730 C742 0.950 . S
H731 C743 0.950 . S
C732 H724 0.950 . S
C732 C733 1.386 . S
C732 C734 1.391 . S
C733 C732 1.386 . S
C733 C737 1.393 . S
C734 H726 0.950 . S
C734 C732 1.391 . S
C734 C735 1.400 . S
C735 C734 1.400 . S
C735 C736 1.398 . S
C735 C741 1.491 . S
C736 H727 0.950 . S
C736 C735 1.398 . S
C736 C737 1.391 . S
C737 H725 0.950 . S
C737 C733 1.393 . S
C737 C736 1.391 . S
C738 H728 0.950 . S
C738 C739 1.386 . S
C738 C740 1.391 . S
C739 C738 1.386 . S
C739 C743 1.393 . S
C740 H729 0.950 . S
C740 C738 1.391 . S
C740 C741 1.400 . S
C741 C735 1.491 . S
C741 C740 1.400 . S
C741 C742 1.398 . S
C742 H730 0.950 . S
C742 C741 1.398 . S
C742 C743 1.391 . S
C743 H731 0.950 . S
C743 C739 1.393 . S
C743 C742 1.391 . S
H744 C752 0.950 . S
H745 C757 0.950 . S
H746 C754 0.950 . S
H747 C756 0.950 . S
H748 C758 0.950 . S
H749 C760 0.950 . S
H750 C762 0.950 . S
H751 C763 0.950 . S
C752 H744 0.950 . S
C752 C753 1.386 . S
C752 C754 1.391 . S
C753 C752 1.386 . S
C753 C757 1.393 . S
C754 H746 0.950 . S
C754 C752 1.391 . S
C754 C755 1.400 . S
C755 C754 1.400 . S
C755 C756 1.398 . S
C755 C761 1.491 . S
C756 H747 0.950 . S
C756 C755 1.398 . S
C756 C757 1.391 . S
C757 H745 0.950 . S
C757 C753 1.393 . S
C757 C756 1.391 . S
C758 H748 0.950 . S
C758 C759 1.386 . S
C758 C760 1.391 . S
C759 C758 1.386 . S
C759 C763 1.393 . S
C760 H749 0.950 . S
C760 C758 1.391 . S
C760 C761 1.400 . S
C761 C755 1.491 . S
C761 C760 1.400 . S
C761 C762 1.398 . S
C762 H750 0.950 . S
C762 C761 1.398 . S
C762 C763 1.391 . S
C763 H751 0.950 . S
C763 C759 1.393 . S
C763 C762 1.391 . S
H764 C772 0.950 . S
H765 C777 0.950 . S
H766 C774 0.950 1_565 S
H767 C776 0.950 . S
H768 C778 0.950 . S
H769 C780 0.950 1_545 S
H770 C782 0.950 . S
H771 C783 0.950 . S
C772 H764 0.950 . S
C772 C773 1.386 . S
C772 C774 1.391 . S
C773 C772 1.386 . S
C773 C777 1.393 . S
C774 H766 0.950 1_545 S
C774 C772 1.391 . S
C774 C775 1.400 . S
C775 C774 1.400 . S
C775 C776 1.398 . S
C775 C781 1.491 1_545 S
C776 H767 0.950 . S
C776 C775 1.398 . S
C776 C777 1.391 . S
C777 H765 0.950 . S
C777 C773 1.393 . S
C777 C776 1.391 . S
C778 H768 0.950 . S
C778 C779 1.386 . S
C778 C780 1.391 . S
C779 C778 1.386 . S
C779 C783 1.393 . S
C780 H769 0.950 1_565 S
C780 C778 1.391 . S
C780 C781 1.400 . S
C781 C775 1.491 1_565 S
C781 C780 1.400 . S
C781 C782 1.398 . S
C782 H770 0.950 . S
C782 C781 1.398 . S
C782 C783 1.391 . S
C783 H771 0.950 . S
C783 C779 1.393 . S
C783 C782 1.391 . S
H784 C792 0.950 . S
H785 C797 0.950 . S
H786 C794 0.950 . S
H787 C796 0.950 . S
H788 C798 0.950 . S
H789 C800 0.950 . S
H790 C802 0.950 . S
H791 C803 0.950 . S
C792 H784 0.950 . S
C792 C793 1.386 . S
C792 C794 1.391 . S
C793 C792 1.386 . S
C793 C797 1.393 . S
C794 H786 0.950 . S
C794 C792 1.391 . S
C794 C795 1.400 . S
C795 C794 1.400 . S
C795 C796 1.398 . S
C795 C801 1.491 . S
C796 H787 0.950 . S
C796 C795 1.398 . S
C796 C797 1.391 . S
C797 H785 0.950 . S
C797 C793 1.393 . S
C797 C796 1.391 . S
C798 H788 0.950 . S
C798 C799 1.386 . S
C798 C800 1.391 . S
C799 C798 1.386 . S
C799 C803 1.393 . S
C800 H789 0.950 . S
C800 C798 1.391 . S
C800 C801 1.400 . S
C801 C795 1.491 . S
C801 C800 1.400 . S
C801 C802 1.398 . S
C802 H790 0.950 . S
C802 C801 1.398 . S
C802 C803 1.391 . S
C803 H791 0.950 . S
C803 C799 1.393 . S
C803 C802 1.391 . S
H804 C812 0.950 . S
H805 C817 0.950 . S
H806 C814 0.950 . S
H807 C816 0.950 . S
H808 C818 0.950 . S
H809 C820 0.950 . S
H810 C822 0.950 . S
H811 C823 0.950 . S
C812 H804 0.950 . S
C812 C813 1.386 . S
C812 C814 1.391 . S
C813 C812 1.386 . S
C813 C817 1.393 . S
C814 H806 0.950 . S
C814 C812 1.391 . S
C814 C815 1.400 . S
C815 C814 1.400 . S
C815 C816 1.398 . S
C815 C821 1.491 . S
C816 H807 0.950 . S
C816 C815 1.398 . S
C816 C817 1.391 . S
C817 H805 0.950 . S
C817 C813 1.393 . S
C817 C816 1.391 . S
C818 H808 0.950 . S
C818 C819 1.386 . S
C818 C820 1.391 . S
C819 C818 1.386 . S
C819 C823 1.393 . S
C820 H809 0.950 . S
C820 C818 1.391 . S
C820 C821 1.400 . S
C821 C815 1.491 . S
C821 C820 1.400 . S
C821 C822 1.398 . S
C822 H810 0.950 . S
C822 C821 1.398 . S
C822 C823 1.391 . S
C823 H811 0.950 . S
C823 C819 1.393 . S
C823 C822 1.391 . S
H824 C832 0.950 . S
H825 C837 0.950 . S
H826 C834 0.950 . S
H827 C836 0.950 . S
H828 C838 0.950 . S
H829 C840 0.950 . S
H830 C842 0.950 . S
H831 C843 0.950 . S
C832 H824 0.950 . S
C832 C833 1.386 . S
C832 C834 1.391 . S
C833 C832 1.386 . S
C833 C837 1.393 . S
C834 H826 0.950 . S
C834 C832 1.391 . S
C834 C835 1.400 . S
C835 C834 1.400 . S
C835 C836 1.398 . S
C835 C841 1.491 1_545 S
C836 H827 0.950 . S
C836 C835 1.398 . S
C836 C837 1.391 . S
C837 H825 0.950 . S
C837 C833 1.393 . S
C837 C836 1.391 . S
C838 H828 0.950 . S
C838 C839 1.386 . S
C838 C840 1.391 . S
C839 C838 1.386 . S
C839 C843 1.393 . S
C840 H829 0.950 . S
C840 C838 1.391 . S
C840 C841 1.400 . S
C841 C835 1.491 1_565 S
C841 C840 1.400 . S
C841 C842 1.398 . S
C842 H830 0.950 . S
C842 C841 1.398 . S
C842 C843 1.391 . S
C843 H831 0.950 . S
C843 C839 1.393 . S
C843 C842 1.391 . S
H844 C852 0.950 . S
H845 C857 0.950 . S
H846 C854 0.950 . S
H847 C856 0.950 . S
H848 C858 0.950 . S
H849 C860 0.950 . S
H850 C862 0.950 . S
H851 C863 0.950 . S
C852 H844 0.950 . S
C852 C853 1.386 . S
C852 C854 1.391 . S
C853 C852 1.386 . S
C853 C857 1.393 . S
C854 H846 0.950 . S
C854 C852 1.391 . S
C854 C855 1.400 . S
C855 C854 1.400 . S
C855 C856 1.398 . S
C855 C861 1.491 . S
C856 H847 0.950 . S
C856 C855 1.398 . S
C856 C857 1.391 . S
C857 H845 0.950 . S
C857 C853 1.393 . S
C857 C856 1.391 . S
C858 H848 0.950 . S
C858 C859 1.386 . S
C858 C860 1.391 . S
C859 C858 1.386 . S
C859 C863 1.393 . S
C860 H849 0.950 . S
C860 C858 1.391 . S
C860 C861 1.400 . S
C861 C855 1.491 . S
C861 C860 1.400 . S
C861 C862 1.398 . S
C862 H850 0.950 . S
C862 C861 1.398 . S
C862 C863 1.391 . S
C863 H851 0.950 . S
C863 C859 1.393 . S
C863 C862 1.391 . S
C233 C4 1.205 . S
C239 C186 1.204 . S
C253 C18 1.212 . S
C259 C130 1.212 . S
C273 C200 1.193 . S
C279 C32 1.194 . S
C293 C46 1.196 . S
C299 C214 1.195 . S
C313 C60 1.211 . S
C319 C88 1.210 . S
C333 C144 1.205 . S
C339 C74 1.205 . S
C353 C158 1.213 . S
C359 C102 1.212 . S
C373 C116 1.196 . S
C379 C172 1.196 . S
C393 C40 1.524 . S
C399 C12 1.524 . S
C413 C26 1.528 . S
C419 C54 1.528 . S
C433 C179 1.471 . S
C439 C11 1.474 . S
C453 C25 1.469 . S
C459 C165 1.472 . S
C473 C67 1.456 . S
C479 C39 1.456 . S
C493 C151 1.457 . S
C499 C53 1.456 . S
C513 C19 1.368 . S
C519 C5 1.393 . S
C533 C47 1.397 . S
C539 C33 1.380 . S
C553 C145 1.370 . S
C559 C61 1.394 . S
C573 C109 1.535 . S
C579 C81 1.520 . S
C593 C95 1.528 . S
C599 C123 1.525 . S
C613 C222 1.513 . S
C619 C82 1.516 . S
C633 C96 1.516 . S
C639 C208 1.513 . S
C653 C138 1.511 . S
C659 C110 1.514 . S
C673 C124 1.512 . S
C679 C194 1.512 . S
C693 C89 1.351 . S
C699 C75 1.328 . S
C713 C117 1.351 . S
C719 C103 1.328 . S
C733 C131 1.321 . S
C739 C187 1.303 . S
C753 C152 1.524 . S
C759 C166 1.524 . S
C773 C180 1.525 . S
C779 C68 1.524 . S
C793 C173 1.352 . S
C799 C159 1.372 . S
C813 C207 1.520 . S
C819 C193 1.537 . S
C833 C137 1.536 . S
C839 C221 1.526 . S
C853 C215 1.324 . S
C859 C201 1.350 . S
