# Generated by pormake.
# Topology whk, (6)-cn, num edge types: 1
# Building blocks:
#     Node 0, Type 0, BuildingBlock: VOLQOD_clean_sbu_1, # of connection points: 6
#     Node 1, Type 0, BuildingBlock: VOLQOD_clean_sbu_1, # of connection points: 6
#     Node 2, Type 0, BuildingBlock: VOLQOD_clean_sbu_1, # of connection points: 6
#     Node 3, Type 0, BuildingBlock: VOLQOD_clean_sbu_1, # of connection points: 6
#     Node 4, Type 0, BuildingBlock: VOLQOD_clean_sbu_1, # of connection points: 6
#     Node 5, Type 0, BuildingBlock: VOLQOD_clean_sbu_1, # of connection points: 6
#     Node 6, Type 0, BuildingBlock: VOLQOD_clean_sbu_1, # of connection points: 6
#     Node 7, Type 0, BuildingBlock: VOLQOD_clean_sbu_1, # of connection points: 6
#     Node 8, Type 0, BuildingBlock: VOLQOD_clean_sbu_1, # of connection points: 6
#     Node 9, Type 0, BuildingBlock: VOLQOD_clean_sbu_1, # of connection points: 6
#     Node 10, Type 0, BuildingBlock: VOLQOD_clean_sbu_1, # of connection points: 6
#     Node 11, Type 0, BuildingBlock: VOLQOD_clean_sbu_1, # of connection points: 6
#     Node 12, Type 0, BuildingBlock: VOLQOD_clean_sbu_1, # of connection points: 6
#     Node 13, Type 0, BuildingBlock: VOLQOD_clean_sbu_1, # of connection points: 6
#     Node 14, Type 0, BuildingBlock: VOLQOD_clean_sbu_1, # of connection points: 6
#     Node 15, Type 0, BuildingBlock: VOLQOD_clean_sbu_1, # of connection points: 6
#     Edge 16, Type (0, 0), BuildingBlock: MIFKUJ_clean_linker_0, # of connection points: 2
#     Edge 17, Type (0, 0), BuildingBlock: MIFKUJ_clean_linker_0, # of connection points: 2
#     Edge 18, Type (0, 0), BuildingBlock: MIFKUJ_clean_linker_0, # of connection points: 2
#     Edge 19, Type (0, 0), BuildingBlock: MIFKUJ_clean_linker_0, # of connection points: 2
#     Edge 20, Type (0, 0), BuildingBlock: MIFKUJ_clean_linker_0, # of connection points: 2
#     Edge 21, Type (0, 0), BuildingBlock: MIFKUJ_clean_linker_0, # of connection points: 2
#     Edge 22, Type (0, 0), BuildingBlock: MIFKUJ_clean_linker_0, # of connection points: 2
#     Edge 23, Type (0, 0), BuildingBlock: MIFKUJ_clean_linker_0, # of connection points: 2
#     Edge 24, Type (0, 0), BuildingBlock: MIFKUJ_clean_linker_0, # of connection points: 2
#     Edge 25, Type (0, 0), BuildingBlock: MIFKUJ_clean_linker_0, # of connection points: 2
#     Edge 26, Type (0, 0), BuildingBlock: MIFKUJ_clean_linker_0, # of connection points: 2
#     Edge 27, Type (0, 0), BuildingBlock: MIFKUJ_clean_linker_0, # of connection points: 2
#     Edge 28, Type (0, 0), BuildingBlock: MIFKUJ_clean_linker_0, # of connection points: 2
#     Edge 29, Type (0, 0), BuildingBlock: MIFKUJ_clean_linker_0, # of connection points: 2
#     Edge 30, Type (0, 0), BuildingBlock: MIFKUJ_clean_linker_0, # of connection points: 2
#     Edge 31, Type (0, 0), BuildingBlock: MIFKUJ_clean_linker_0, # of connection points: 2
#     Edge 32, Type (0, 0), BuildingBlock: MIFKUJ_clean_linker_0, # of connection points: 2
#     Edge 33, Type (0, 0), BuildingBlock: MIFKUJ_clean_linker_0, # of connection points: 2
#     Edge 34, Type (0, 0), BuildingBlock: MIFKUJ_clean_linker_0, # of connection points: 2
#     Edge 35, Type (0, 0), BuildingBlock: MIFKUJ_clean_linker_0, # of connection points: 2
#     Edge 36, Type (0, 0), BuildingBlock: MIFKUJ_clean_linker_0, # of connection points: 2
#     Edge 37, Type (0, 0), BuildingBlock: MIFKUJ_clean_linker_0, # of connection points: 2
#     Edge 38, Type (0, 0), BuildingBlock: MIFKUJ_clean_linker_0, # of connection points: 2
#     Edge 39, Type (0, 0), BuildingBlock: MIFKUJ_clean_linker_0, # of connection points: 2
#     Edge 40, Type (0, 0), BuildingBlock: MIFKUJ_clean_linker_0, # of connection points: 2
#     Edge 41, Type (0, 0), BuildingBlock: MIFKUJ_clean_linker_0, # of connection points: 2
#     Edge 42, Type (0, 0), BuildingBlock: MIFKUJ_clean_linker_0, # of connection points: 2
#     Edge 43, Type (0, 0), BuildingBlock: MIFKUJ_clean_linker_0, # of connection points: 2
#     Edge 44, Type (0, 0), BuildingBlock: MIFKUJ_clean_linker_0, # of connection points: 2
#     Edge 45, Type (0, 0), BuildingBlock: MIFKUJ_clean_linker_0, # of connection points: 2
#     Edge 46, Type (0, 0), BuildingBlock: MIFKUJ_clean_linker_0, # of connection points: 2
#     Edge 47, Type (0, 0), BuildingBlock: MIFKUJ_clean_linker_0, # of connection points: 2
#     Edge 48, Type (0, 0), BuildingBlock: MIFKUJ_clean_linker_0, # of connection points: 2
#     Edge 49, Type (0, 0), BuildingBlock: MIFKUJ_clean_linker_0, # of connection points: 2
#     Edge 50, Type (0, 0), BuildingBlock: MIFKUJ_clean_linker_0, # of connection points: 2
#     Edge 51, Type (0, 0), BuildingBlock: MIFKUJ_clean_linker_0, # of connection points: 2
#     Edge 52, Type (0, 0), BuildingBlock: MIFKUJ_clean_linker_0, # of connection points: 2
#     Edge 53, Type (0, 0), BuildingBlock: MIFKUJ_clean_linker_0, # of connection points: 2
#     Edge 54, Type (0, 0), BuildingBlock: MIFKUJ_clean_linker_0, # of connection points: 2
#     Edge 55, Type (0, 0), BuildingBlock: MIFKUJ_clean_linker_0, # of connection points: 2
#     Edge 56, Type (0, 0), BuildingBlock: MIFKUJ_clean_linker_0, # of connection points: 2
#     Edge 57, Type (0, 0), BuildingBlock: MIFKUJ_clean_linker_0, # of connection points: 2
#     Edge 58, Type (0, 0), BuildingBlock: MIFKUJ_clean_linker_0, # of connection points: 2
#     Edge 59, Type (0, 0), BuildingBlock: MIFKUJ_clean_linker_0, # of connection points: 2
#     Edge 60, Type (0, 0), BuildingBlock: MIFKUJ_clean_linker_0, # of connection points: 2
#     Edge 61, Type (0, 0), BuildingBlock: MIFKUJ_clean_linker_0, # of connection points: 2
#     Edge 62, Type (0, 0), BuildingBlock: MIFKUJ_clean_linker_0, # of connection points: 2
#     Edge 63, Type (0, 0), BuildingBlock: MIFKUJ_clean_linker_0, # of connection points: 2
# Relax obj value: 0.405
# Max RMSD: 0.245
# Mean RMSD: 0.241
data_MOF--net-whk--node1-VOLQOD_clean_sbu_1--edge1-MIFKUJ_clean_linker_0
_symmetry_space_group_name_H-M    P1
_symmetry_Int_Tables_number       1
_symmetry_cell_setting            triclinic
loop_
_symmetry_equiv_pos_as_xyz
'x, y, z'
_cell_length_a     46.815173
_cell_length_b     46.831436
_cell_length_c     69.986852
_cell_angle_alpha  90.013001
_cell_angle_beta   90.058254
_cell_angle_gamma 90.036392
loop_
_atom_site_label
_atom_site_type_symbol
_atom_site_fract_x
_atom_site_fract_y
_atom_site_fract_z
_atom_type_partial_charge
O0 O 0.5794 0.20152 0.42188 0.0
Zn1 Zn 0.57378 0.19469 0.394 0.0
O2 O 0.55515 0.15917 0.38919 0.0
Zn3 Zn 0.58224 0.13269 0.37851 0.0
Zn4 Zn 0.54062 0.14576 0.41339 0.0
Zn5 Zn 0.52511 0.16512 0.37087 0.0
O6 O 0.56584 0.1134 0.35515 0.0
O7 O 0.53615 0.14761 0.34541 0.0
O8 O 0.60984 0.19823 0.37916 0.0
O9 O 0.61597 0.15423 0.36815 0.0
O10 O 0.59697 0.10616 0.39921 0.0
O11 O 0.56794 0.11599 0.42349 0.0
O12 O 0.50032 0.12997 0.40984 0.0
O13 O 0.54841 0.22637 0.38643 0.0
O14 O 0.49109 0.14387 0.38005 0.0
O15 O 0.51353 0.20708 0.36934 0.0
C16 C 0.56084 0.19717 0.43486 0.0
C17 C 0.55054 0.12494 0.34214 0.0
C18 C 0.58939 0.1027 0.41658 0.0
C19 C 0.62382 0.18019 0.36932 0.0
C20 C 0.48368 0.13122 0.39537 0.0
C21 C 0.52532 0.22879 0.37705 0.0
O22 O 0.54142 0.17823 0.4328 0.0
O23 O 0.2934 0.57857 0.42438 0.0
Zn24 Zn 0.30396 0.5775 0.39683 0.0
O25 O 0.34088 0.56043 0.39312 0.0
Zn26 Zn 0.36637 0.58845 0.38219 0.0
Zn27 Zn 0.35546 0.54752 0.41776 0.0
Zn28 Zn 0.33723 0.52935 0.37508 0.0
O29 O 0.387 0.57295 0.35933 0.0
O30 O 0.35659 0.53921 0.34998 0.0
O31 O 0.30082 0.61585 0.38444 0.0
O32 O 0.34404 0.62171 0.37205 0.0
O33 O 0.39285 0.60417 0.40231 0.0
O34 O 0.38462 0.57613 0.42733 0.0
O35 O 0.37298 0.50778 0.41491 0.0
O36 O 0.27366 0.5526 0.38615 0.0
O37 O 0.35788 0.49591 0.38577 0.0
O38 O 0.29593 0.51703 0.37161 0.0
C39 C 0.30096 0.56283 0.43832 0.0
C40 C 0.37801 0.55542 0.34675 0.0
C41 C 0.39718 0.59749 0.41973 0.0
C42 C 0.31845 0.6301 0.37441 0.0
C43 C 0.37113 0.48992 0.40115 0.0
C44 C 0.27298 0.52906 0.37716 0.0
O45 O 0.32335 0.54731 0.43754 0.0
O46 O 0.93272 0.28356 0.42122 0.0
Zn47 Zn 0.93589 0.29395 0.39372 0.0
O48 O 0.94842 0.33263 0.39051 0.0
Zn49 Zn 0.91673 0.35455 0.38024 0.0
Zn50 Zn 0.95991 0.34784 0.4154 0.0
Zn51 Zn 0.97973 0.33286 0.37231 0.0
O52 O 0.9297 0.37816 0.35808 0.0
O53 O 0.96871 0.35512 0.34851 0.0
O54 O 0.9001 0.28616 0.37963 0.0
O55 O 0.88629 0.32868 0.36923 0.0
O56 O 0.89876 0.37882 0.40073 0.0
O57 O 0.93009 0.37607 0.42455 0.0
O58 O -0.00059 0.36644 0.41354 0.0
O59 O 0.96359 0.26691 0.38264 0.0
O60 O 0.01227 0.35337 0.38417 0.0
O61 O 0.99448 0.29296 0.3661 0.0
C62 C 0.94541 0.29298 0.43604 0.0
C63 C 0.94935 0.37391 0.34582 0.0
C64 C 0.9067 0.38546 0.41759 0.0
C65 C 0.88306 0.30174 0.37013 0.0
C66 C 0.01765 0.36569 0.39997 0.0
C67 C 0.98524 0.26885 0.37185 0.0
O68 O 0.95955 0.31631 0.43561 0.0
O69 O 0.14606 0.95416 0.35299 0.0
Zn70 Zn 0.1741 0.94812 0.37449 0.0
O71 O 0.15436 0.94085 0.39858 0.0
Zn72 Zn 0.16208 0.97137 0.41631 0.0
Zn73 Zn 0.11351 0.93802 0.39365 0.0
Zn74 Zn 0.16843 0.90668 0.4103 0.0
O75 O 0.17302 0.95813 0.44274 0.0
O76 O 0.18751 0.91439 0.43556 0.0
O77 O 0.20257 0.98055 0.37709 0.0
O78 O 0.1961 0.99301 0.40737 0.0
O79 O 0.12947 0.99851 0.4164 0.0
O80 O 0.09487 0.97576 0.40079 0.0
O81 O 0.0961 0.90369 0.40777 0.0
O82 O 0.19727 0.91368 0.36691 0.0
O83 O 0.13588 0.88055 0.41565 0.0
O84 O 0.19597 0.8869 0.39312 0.0
C85 C 0.12094 0.94404 0.35093 0.0
C86 C 0.18574 0.93509 0.44731 0.0
C87 C 0.10437 0.99788 0.4094 0.0
C88 C 0.2096 0.99526 0.39169 0.0
C89 C 0.10875 0.88192 0.41484 0.0
C90 C 0.20482 0.8916 0.37622 0.0
O91 O 0.10702 0.93385 0.36506 0.0
O92 O 0.04694 0.84145 0.15657 0.0
Zn93 Zn 0.05516 0.81362 0.13533 0.0
O94 O 0.05946 0.8345 0.1117 0.0
Zn95 Zn 0.03098 0.82212 0.09432 0.0
Zn96 Zn 0.05512 0.87501 0.11573 0.0
Zn97 Zn 0.09479 0.82565 0.09963 0.0
O98 O 0.04561 0.81735 0.06773 0.0
O99 O 0.08797 0.80069 0.07647 0.0
O100 O 0.02734 0.78012 0.13283 0.0
O101 O 0.01894 0.7833 0.10166 0.0
O102 O 0.99679 0.84695 0.09653 0.0
O103 O 0.01372 0.8857 0.11105 0.0
O104 O 0.08209 0.89668 0.09754 0.0
O105 O 0.09284 0.79625 0.1425 0.0
O106 O 0.11196 0.86149 0.08977 0.0
O107 O 0.12144 0.80681 0.11815 0.0
C108 C 0.05452 0.86754 0.15847 0.0
C109 C 0.06801 0.80289 0.06413 0.0
C110 C 0.99309 0.87158 0.10379 0.0
C111 C 0.01734 0.76977 0.11733 0.0
C112 C 0.10444 0.88757 0.08897 0.0
C113 C 0.11728 0.79584 0.13458 0.0
O114 O 0.06196 0.8827 0.14407 0.0
O115 O 0.65232 0.03998 0.15015 0.0
Zn116 Zn 0.68305 0.04304 0.13035 0.0
O117 O 0.66653 0.04885 0.10505 0.0
Zn118 Zn 0.67413 0.01653 0.08858 0.0
Zn119 Zn 0.62557 0.05535 0.10764 0.0
Zn120 Zn 0.68477 0.08056 0.09303 0.0
O121 O 0.69223 0.02677 0.06298 0.0
O122 O 0.71053 0.06837 0.07179 0.0
O123 O 0.70974 0.00912 0.1306 0.0
O124 O 0.70401 0.99273 0.10107 0.0
O125 O 0.63888 0.99258 0.08622 0.0
O126 O 0.60489 0.01909 0.09961 0.0
O127 O 0.61297 0.08967 0.09138 0.0
O128 O 0.70636 0.07728 0.13838 0.0
O129 O 0.65524 0.10628 0.08211 0.0
O130 O 0.70806 0.10254 0.11157 0.0
C131 C 0.62761 0.05138 0.15082 0.0
C132 C 0.70948 0.04745 0.06023 0.0
C133 C 0.6131 0.996 0.0916 0.0
C134 C 0.71622 0.99173 0.1173 0.0
C135 C 0.6281 0.10786 0.08224 0.0
C136 C 0.71478 0.09898 0.12901 0.0
O137 O 0.61567 0.06138 0.13581 0.0
O138 O 0.41452 0.70545 0.07928 0.0
Zn139 Zn 0.42059 0.69789 0.10707 0.0
O140 O 0.44076 0.66274 0.11072 0.0
Zn141 Zn 0.41538 0.63553 0.12238 0.0
Zn142 Zn 0.45318 0.64834 0.08609 0.0
Zn143 Zn 0.47244 0.66911 0.12786 0.0
O144 O 0.43494 0.6151 0.14378 0.0
O145 O 0.46508 0.64908 0.15323 0.0
O146 O 0.38423 0.69886 0.12202 0.0
O147 O 0.3823 0.65552 0.1347 0.0
O148 O 0.39875 0.60924 0.10255 0.0
O149 O 0.42646 0.61712 0.07735 0.0
O150 O 0.49395 0.63356 0.08812 0.0
O151 O 0.44427 0.73065 0.11585 0.0
O152 O 0.50683 0.65068 0.11658 0.0
O153 O 0.48156 0.71141 0.13058 0.0
C154 C 0.43 0.69901 0.06494 0.0
C155 C 0.45165 0.62574 0.1563 0.0
C156 C 0.4054 0.60448 0.08519 0.0
C157 C 0.37234 0.68063 0.13291 0.0
C158 C 0.51254 0.63717 0.10127 0.0
C159 C 0.46785 0.73323 0.12468 0.0
O160 O 0.4489 0.67939 0.06594 0.0
O161 O 0.78059 0.42195 0.07909 0.0
Zn162 Zn 0.79126 0.42259 0.10678 0.0
O163 O 0.82951 0.43742 0.1101 0.0
Zn164 Zn 0.85338 0.40795 0.12075 0.0
Zn165 Zn 0.84507 0.4497 0.08548 0.0
Zn166 Zn 0.82853 0.46828 0.12851 0.0
O167 O 0.87567 0.42164 0.14333 0.0
O168 O 0.84824 0.45735 0.1533 0.0
O169 O 0.78588 0.38428 0.11942 0.0
O170 O 0.82922 0.37669 0.13125 0.0
O171 O 0.87856 0.39071 0.10063 0.0
O172 O 0.87462 0.42122 0.07645 0.0
O173 O 0.86323 0.48926 0.0881 0.0
O174 O 0.76297 0.44934 0.11809 0.0
O175 O 0.85072 0.50057 0.11782 0.0
O176 O 0.78827 0.48272 0.13287 0.0
C177 C 0.79025 0.43505 0.06451 0.0
C178 C 0.86853 0.43964 0.1561 0.0
C179 C 0.885 0.39853 0.08374 0.0
C180 C 0.80318 0.36956 0.12944 0.0
C181 C 0.86326 0.50659 0.10221 0.0
C182 C 0.76433 0.4724 0.12761 0.0
O183 O 0.81386 0.44875 0.06503 0.0
O184 O 0.43143 0.7896 0.57918 0.0
Zn185 Zn 0.43074 0.801 0.60664 0.0
O186 O 0.445 0.83914 0.61051 0.0
Zn187 Zn 0.41502 0.86192 0.62196 0.0
Zn188 Zn 0.45552 0.85483 0.58561 0.0
Zn189 Zn 0.47729 0.83817 0.62795 0.0
O190 O 0.42911 0.88378 0.64466 0.0
O191 O 0.46899 0.86063 0.65223 0.0
O192 O 0.39216 0.79558 0.61769 0.0
O193 O 0.38395 0.83677 0.63234 0.0
O194 O 0.39669 0.88723 0.60222 0.0
O195 O 0.42474 0.88218 0.57684 0.0
O196 O 0.49433 0.87406 0.58727 0.0
O197 O 0.45566 0.77281 0.61961 0.0
O198 O 0.5101 0.85699 0.61513 0.0
O199 O 0.48965 0.79773 0.63412 0.0
C200 C 0.44452 0.79941 0.56467 0.0
C201 C 0.44976 0.87906 0.65609 0.0
C202 C 0.40261 0.89266 0.58482 0.0
C203 C 0.37707 0.81111 0.62862 0.0
C204 C 0.51396 0.87093 0.59975 0.0
C205 C 0.47817 0.77395 0.62971 0.0
O206 O 0.45705 0.8236 0.56528 0.0
O207 O 0.70541 0.42948 0.57471 0.0
Zn208 Zn 0.69249 0.43027 0.60172 0.0
O209 O 0.65487 0.44602 0.60407 0.0
Zn210 Zn 0.62892 0.41691 0.61358 0.0
Zn211 Zn 0.64246 0.45918 0.57892 0.0
Zn212 Zn 0.65656 0.47677 0.62259 0.0
O213 O 0.60709 0.4307 0.63657 0.0
O214 O 0.6351 0.466 0.64669 0.0
O215 O 0.69544 0.3922 0.61384 0.0
O216 O 0.65111 0.383 0.62316 0.0
O217 O 0.60329 0.40244 0.59252 0.0
O218 O 0.61395 0.431 0.56819 0.0
O219 O 0.6244 0.4986 0.58146 0.0
O220 O 0.72118 0.45474 0.61439 0.0
O221 O 0.63702 0.51029 0.61124 0.0
O222 O 0.69708 0.48926 0.62869 0.0
C223 C 0.69851 0.4442 0.56014 0.0
C224 C 0.61446 0.44862 0.64939 0.0
C225 C 0.60042 0.40972 0.57507 0.0
C226 C 0.67739 0.37628 0.6222 0.0
C227 C 0.62513 0.51622 0.59538 0.0
C228 C 0.72065 0.47748 0.62422 0.0
O229 O 0.67577 0.45927 0.55992 0.0
O230 O 0.07537 0.69385 0.57191 0.0
Zn231 Zn 0.07251 0.69032 0.60015 0.0
O232 O 0.05578 0.65499 0.6078 0.0
Zn233 Zn 0.08475 0.63222 0.61992 0.0
Zn234 Zn 0.0418 0.63675 0.58481 0.0
Zn235 Zn 0.02608 0.6618 0.62626 0.0
O236 O 0.06954 0.61292 0.64335 0.0
O237 O 0.0373 0.64526 0.65212 0.0
O238 O 0.10965 0.69722 0.61298 0.0
O239 O 0.11613 0.65757 0.62975 0.0
O240 O 0.10186 0.60516 0.60067 0.0
O241 O 0.07097 0.60735 0.57652 0.0
O242 O 0.00276 0.61931 0.59003 0.0
O243 O 0.0473 0.72217 0.60775 0.0
O244 O 0.99162 0.6405 0.6176 0.0
O245 O 0.01505 0.70377 0.6274 0.0
C246 C 0.05734 0.68581 0.55939 0.0
C247 C 0.05304 0.62369 0.65593 0.0
C248 C 0.09399 0.59774 0.58393 0.0
C249 C 0.12359 0.68278 0.6252 0.0
C250 C 0.98525 0.62425 0.60364 0.0
C251 C 0.02568 0.72504 0.61851 0.0
O252 O 0.03959 0.66576 0.56295 0.0
O253 O 0.78448 0.06846 0.58049 0.0
Zn254 Zn 0.79802 0.06502 0.60744 0.0
O255 O 0.83684 0.05199 0.60908 0.0
Zn256 Zn 0.86072 0.0825 0.61951 0.0
Zn257 Zn 0.84926 0.04136 0.58336 0.0
Zn258 Zn 0.83783 0.01969 0.62642 0.0
O259 O 0.88334 0.06887 0.64234 0.0
O260 O 0.8597 0.02952 0.65049 0.0
O261 O 0.79264 0.10099 0.62156 0.0
O262 O 0.83633 0.11457 0.62992 0.0
O263 O 0.88593 0.09912 0.59893 0.0
O264 O 0.87742 0.07088 0.574 0.0
O265 O 0.86788 0.00198 0.58377 0.0
O266 O 0.77146 0.03762 0.61934 0.0
O267 O 0.85795 0.98789 0.61346 0.0
O268 O 0.79849 0.00458 0.63292 0.0
C269 C 0.79232 0.05614 0.56515 0.0
C270 C 0.87831 0.0487 0.65412 0.0
C271 C 0.88984 0.09244 0.58145 0.0
C272 C 0.8094 0.11823 0.62994 0.0
C273 C 0.86868 0.9833 0.59705 0.0
C274 C 0.77403 0.01477 0.6289 0.0
O275 O 0.81586 0.0424 0.56435 0.0
O276 O 0.92924 0.20393 0.92208 0.0
Zn277 Zn 0.93566 0.19452 0.89454 0.0
O278 O 0.95213 0.15745 0.89144 0.0
Zn279 Zn 0.92286 0.13156 0.88223 0.0
Zn280 Zn 0.96688 0.14627 0.91634 0.0
Zn281 Zn 0.98218 0.15965 0.87264 0.0
O282 O 0.93611 0.11076 0.8586 0.0
O283 O 0.97032 0.13981 0.84813 0.0
O284 O 0.89972 0.19831 0.87986 0.0
O285 O 0.88806 0.15344 0.87326 0.0
O286 O 0.91058 0.10517 0.90346 0.0
O287 O 0.94062 0.11568 0.92714 0.0
O288 O 0.00802 0.13232 0.91399 0.0
O289 O 0.96224 0.22408 0.885 0.0
O290 O 0.01598 0.13892 0.88289 0.0
O291 O 0.9951 0.20072 0.8684 0.0
C292 C 0.94571 0.19872 0.93613 0.0
C293 C 0.95315 0.11897 0.84547 0.0
C294 C 0.91923 0.10179 0.9206 0.0
C295 C 0.88286 0.18009 0.87253 0.0
C296 C 0.024 0.13026 0.89927 0.0
C297 C 0.98471 0.22397 0.87485 0.0
O298 O 0.96482 0.17937 0.93517 0.0
O299 O 0.27218 0.94805 0.91375 0.0
Zn300 Zn 0.29174 0.94932 0.88817 0.0
O301 O 0.33289 0.95146 0.89083 0.0
Zn302 Zn 0.34959 0.91613 0.88141 0.0
Zn303 Zn 0.34247 0.95812 0.91765 0.0
Zn304 Zn 0.34703 0.9831 0.87551 0.0
O305 O 0.3742 0.92336 0.8583 0.0
O306 O 0.36778 0.96943 0.85189 0.0
O307 O 0.27935 0.91525 0.87325 0.0
O308 O 0.31899 0.88941 0.87187 0.0
O309 O 0.37163 0.89619 0.90237 0.0
O310 O 0.36704 0.92565 0.92713 0.0
O311 O 0.36344 0.99601 0.921 0.0
O312 O 0.27696 0.98403 0.87555 0.0
O313 O 0.37417 0.00628 0.89078 0.0
O314 O 0.31499 0.0106 0.86893 0.0
C315 C 0.28079 0.95255 0.93074 0.0
C316 C 0.37814 0.94507 0.84763 0.0
C317 C 0.37646 0.90254 0.91981 0.0
C318 C 0.29244 0.89258 0.86849 0.0
C319 C 0.37652 0.01105 0.90858 0.0
C320 C 0.28805 0.00698 0.86937 0.0
O321 O 0.30703 0.95761 0.9343 0.0
O322 O 0.56927 0.29054 0.91985 0.0
Zn323 Zn 0.56428 0.29817 0.89208 0.0
O324 O 0.55233 0.33692 0.88789 0.0
Zn325 Zn 0.58322 0.35748 0.8756 0.0
Zn326 Zn 0.54285 0.35444 0.91247 0.0
Zn327 Zn 0.51967 0.33636 0.87091 0.0
O328 O 0.56906 0.37805 0.8522 0.0
O329 O 0.52995 0.35319 0.84502 0.0
O330 O 0.59977 0.28843 0.87787 0.0
O331 O 0.61296 0.33016 0.86585 0.0
O332 O 0.603 0.38362 0.89445 0.0
O333 O 0.5737 0.38267 0.91944 0.0
O334 O 0.50437 0.37491 0.91089 0.0
O335 O 0.53424 0.27094 0.8839 0.0
O336 O 0.48994 0.36145 0.88194 0.0
O337 O 0.50126 0.29707 0.86933 0.0
C338 C 0.55783 0.30122 0.93471 0.0
C339 C 0.54902 0.37158 0.84061 0.0
C340 C 0.59645 0.39147 0.91134 0.0
C341 C 0.6167 0.30342 0.86784 0.0
C342 C 0.48597 0.37512 0.89741 0.0
C343 C 0.51035 0.27311 0.87543 0.0
O344 O 0.54391 0.32467 0.93394 0.0
O345 O 0.1988 0.58497 0.92846 0.0
Zn346 Zn 0.19213 0.58092 0.90022 0.0
O347 O 0.15798 0.55964 0.89512 0.0
Zn348 Zn 0.1294 0.58469 0.8849 0.0
Zn349 Zn 0.14534 0.54403 0.91916 0.0
Zn350 Zn 0.16534 0.53022 0.8766 0.0
O351 O 0.11047 0.56777 0.86187 0.0
O352 O 0.14559 0.53979 0.85151 0.0
O353 O 0.19184 0.61859 0.88668 0.0
O354 O 0.14768 0.62045 0.8752 0.0
O355 O 0.10245 0.59713 0.9055 0.0
O356 O 0.11527 0.57035 0.93027 0.0
O357 O 0.13005 0.50383 0.91498 0.0
O358 O 0.2257 0.55887 0.89099 0.0
O359 O 0.14785 0.49407 0.88616 0.0
O360 O 0.20787 0.52333 0.87371 0.0
C361 C 0.19568 0.56525 0.94084 0.0
C362 C 0.12212 0.55307 0.84867 0.0
C363 C 0.10031 0.59046 0.92309 0.0
C364 C 0.1725 0.63112 0.87702 0.0
C365 C 0.13411 0.48667 0.90105 0.0
C366 C 0.22916 0.53663 0.88083 0.0
O367 O 0.17848 0.54448 0.93802 0.0
H368 H 0.58093 0.07876 0.32949 0.0
H369 H 0.58837 0.06374 0.2965 0.0
H370 H 0.53117 0.12969 0.27695 0.0
H371 H 0.52336 0.14488 0.31001 0.0
H372 H 0.52566 0.07835 0.25621 0.0
H373 H 0.59924 0.14319 0.27629 0.0
H374 H 0.63678 0.16088 0.29803 0.0
H375 H 0.68474 0.08381 0.28951 0.0
H376 H 0.64721 0.06543 0.26798 0.0
H377 H 0.58145 0.08479 0.16033 0.0
H378 H 0.56319 0.09469 0.19245 0.0
H379 H 0.62456 0.03593 0.21627 0.0
H380 H 0.64313 0.02627 0.18442 0.0
H381 H 0.62633 0.08537 0.23458 0.0
H382 H 0.55267 0.02038 0.2144 0.0
H383 H 0.51455 0.00232 0.19327 0.0
H384 H 0.46674 0.07949 0.20182 0.0
H385 H 0.50479 0.09819 0.2228 0.0
C386 C 0.56953 0.08986 0.31825 0.0
C387 C 0.55182 0.1133 0.32243 0.0
C388 C 0.57386 0.08123 0.29937 0.0
C389 C 0.56067 0.09589 0.28427 0.0
C390 C 0.54161 0.11816 0.2884 0.0
C391 C 0.53727 0.12685 0.30732 0.0
C392 C 0.56866 0.08944 0.26423 0.0
C393 C 0.54759 0.08017 0.25136 0.0
C394 C 0.59735 0.09156 0.25803 0.0
C395 C 0.62027 0.10282 0.27065 0.0
C396 C 0.6177 0.12993 0.27915 0.0
C397 C 0.63898 0.14009 0.29143 0.0
C398 C 0.6631 0.12345 0.29519 0.0
C399 C 0.66602 0.09666 0.28661 0.0
C400 C 0.64476 0.08636 0.27436 0.0
C401 C 0.59075 0.07365 0.17238 0.0
C402 C 0.61389 0.05488 0.16978 0.0
C403 C 0.58026 0.0793 0.19074 0.0
C404 C 0.59252 0.06606 0.2068 0.0
C405 C 0.61488 0.04655 0.20413 0.0
C406 C 0.62543 0.041 0.18586 0.0
C407 C 0.58344 0.07368 0.2265 0.0
C408 C 0.60437 0.08344 0.23934 0.0
C409 C 0.55464 0.07202 0.2326 0.0
C410 C 0.53173 0.06081 0.22001 0.0
C411 C 0.53415 0.03361 0.21164 0.0
C412 C 0.51253 0.02323 0.19972 0.0
C413 C 0.48828 0.03978 0.19616 0.0
C414 C 0.48556 0.06671 0.20456 0.0
C415 C 0.50714 0.0772 0.21648 0.0
H416 H 0.47156 0.03171 0.18693 0.0
H417 H 0.67953 0.13134 0.30472 0.0
H418 H 0.42714 0.5754 0.16718 0.0
H419 H 0.42082 0.55764 0.19961 0.0
H420 H 0.47117 0.62753 0.22145 0.0
H421 H 0.47769 0.64567 0.1889 0.0
H422 H 0.47991 0.57426 0.24104 0.0
H423 H 0.4035 0.63637 0.22093 0.0
H424 H 0.36558 0.65278 0.19904 0.0
H425 H 0.32204 0.57263 0.20535 0.0
H426 H 0.35997 0.55554 0.22702 0.0
H427 H 0.42329 0.58768 0.33477 0.0
H428 H 0.44125 0.59298 0.30232 0.0
H429 H 0.38104 0.52974 0.28255 0.0
H430 H 0.36252 0.52459 0.31504 0.0
H431 H 0.37839 0.57681 0.26137 0.0
H432 H 0.45315 0.51596 0.28368 0.0
H433 H 0.49132 0.49969 0.30539 0.0
H434 H 0.53797 0.57719 0.29529 0.0
H435 H 0.49988 0.59412 0.27372 0.0
C436 C 0.43735 0.58681 0.17879 0.0
C437 C 0.45251 0.61229 0.17545 0.0
C438 C 0.43371 0.57656 0.19733 0.0
C439 C 0.44512 0.59156 0.21289 0.0
C440 C 0.46212 0.61574 0.20958 0.0
C441 C 0.46576 0.62609 0.19098 0.0
C442 C 0.43674 0.58367 0.23258 0.0
C443 C 0.45778 0.57502 0.2456 0.0
C444 C 0.40776 0.58419 0.2383 0.0
C445 C 0.38475 0.59456 0.22544 0.0
C446 C 0.38597 0.62215 0.21753 0.0
C447 C 0.36446 0.63159 0.20518 0.0
C448 C 0.34146 0.61373 0.20077 0.0
C449 C 0.33989 0.58642 0.20875 0.0
C450 C 0.36138 0.57685 0.22107 0.0
C451 C 0.41409 0.57454 0.32361 0.0
C452 C 0.3913 0.55582 0.32753 0.0
C453 C 0.42454 0.5775 0.30504 0.0
C454 C 0.41262 0.56164 0.29001 0.0
C455 C 0.39056 0.54219 0.29395 0.0
C456 C 0.38005 0.53922 0.31255 0.0
C457 C 0.42154 0.56719 0.27001 0.0
C458 C 0.40053 0.57567 0.25686 0.0
C459 C 0.45054 0.56654 0.26425 0.0
C460 C 0.47352 0.55642 0.2772 0.0
C461 C 0.47143 0.52965 0.2862 0.0
C462 C 0.49308 0.52028 0.29846 0.0
C463 C 0.51702 0.53743 0.30175 0.0
C464 C 0.5194 0.56394 0.29274 0.0
C465 C 0.4978 0.57342 0.28048 0.0
H466 H 0.53376 0.53014 0.31124 0.0
H467 H 0.32483 0.62107 0.19121 0.0
H468 H 0.90742 0.41022 0.33379 0.0
H469 H 0.89968 0.42801 0.3015 0.0
H470 H 0.9789 0.38997 0.28331 0.0
H471 H 0.98687 0.3716 0.31567 0.0
H472 H 0.9608 0.44965 0.26646 0.0
H473 H 0.93116 0.34953 0.27548 0.0
H474 H 0.90629 0.31297 0.29467 0.0
H475 H 0.82796 0.3601 0.28993 0.0
H476 H 0.85247 0.39705 0.27084 0.0
H477 H 0.90155 0.39638 0.16984 0.0
H478 H 0.92057 0.39087 0.20206 0.0
H479 H 0.88643 0.47307 0.21771 0.0
H480 H 0.86671 0.4787 0.18539 0.0
H481 H 0.8841 0.39234 0.2358 0.0
H482 H 0.94022 0.49897 0.25096 0.0
H483 H 0.96466 0.53767 0.23349 0.0
H484 H 0.98979 0.47835 0.18985 0.0
H485 H 0.96588 0.43926 0.20719 0.0
C486 C 0.92361 0.4061 0.3231 0.0
C487 C 0.94757 0.38904 0.32727 0.0
C488 C 0.91916 0.41645 0.30467 0.0
C489 C 0.93867 0.41017 0.29011 0.0
C490 C 0.96372 0.39511 0.29446 0.0
C491 C 0.96811 0.38448 0.31292 0.0
C492 C 0.9306 0.41539 0.27003 0.0
C493 C 0.94408 0.43718 0.25969 0.0
C494 C 0.90876 0.39906 0.26134 0.0
C495 C 0.89367 0.37609 0.27187 0.0
C496 C 0.90864 0.35208 0.27856 0.0
C497 C 0.89461 0.33129 0.2894 0.0
C498 C 0.86557 0.33423 0.29355 0.0
C499 C 0.85044 0.35782 0.28669 0.0
C500 C 0.86437 0.37866 0.27583 0.0
C501 C 0.89832 0.41353 0.18 0.0
C502 C 0.88249 0.43797 0.17506 0.0
C503 C 0.90915 0.41025 0.19843 0.0
C504 C 0.90486 0.43154 0.21218 0.0
C505 C 0.89002 0.45648 0.20719 0.0
C506 C 0.87875 0.45961 0.18878 0.0
C507 C 0.91436 0.4266 0.23203 0.0
C508 C 0.9009 0.40485 0.24245 0.0
C509 C 0.93615 0.44306 0.24072 0.0
C510 C 0.95097 0.46627 0.23028 0.0
C511 C 0.95104 0.49418 0.23767 0.0
C512 C 0.9648 0.51619 0.22778 0.0
C513 C 0.97868 0.51049 0.21053 0.0
C514 C 0.97892 0.48276 0.20317 0.0
C515 C 0.96522 0.46068 0.213 0.0
H516 H 0.98929 0.52756 0.2029 0.0
H517 H 0.85482 0.31825 0.3021 0.0
H518 H 0.08053 0.90665 0.33802 0.0
H519 H 0.0656 0.89885 0.3049 0.0
H520 H 0.11871 0.96887 0.2866 0.0
H521 H 0.13441 0.9764 0.31967 0.0
H522 H 0.05814 0.96178 0.26834 0.0
H523 H 0.14918 0.91649 0.27941 0.0
H524 H 0.18273 0.88726 0.29825 0.0
H525 H 0.12621 0.81532 0.29375 0.0
H526 H 0.09202 0.84436 0.27518 0.0
H527 H 0.07277 0.92098 0.16945 0.0
H528 H 0.08026 0.9384 0.20208 0.0
H529 H 0.04876 0.85859 0.22446 0.0
H530 H 0.04136 0.84098 0.19209 0.0
H531 H 0.09906 0.87324 0.24059 0.0
H532 H 0.00915 0.91863 0.22717 0.0
H533 H 0.97585 0.94883 0.20881 0.0
H534 H 0.03048 0.02139 0.2174 0.0
H535 H 0.06437 0.99151 0.23555 0.0
C536 C 0.08863 0.92076 0.32702 0.0
C537 C 0.10881 0.94201 0.33143 0.0
C538 C 0.08006 0.91628 0.30812 0.0
C539 C 0.09108 0.9333 0.29338 0.0
C540 C 0.10989 0.95564 0.29783 0.0
C541 C 0.11894 0.95977 0.31669 0.0
C542 C 0.08546 0.92557 0.27322 0.0
C543 C 0.06729 0.94265 0.26212 0.0
C544 C 0.09723 0.90045 0.26531 0.0
C545 C 0.1179 0.88269 0.27612 0.0
C546 C 0.14378 0.89452 0.2826 0.0
C547 C 0.16293 0.87799 0.2932 0.0
C548 C 0.15657 0.84949 0.29725 0.0
C549 C 0.13108 0.83743 0.29064 0.0
C550 C 0.1118 0.85391 0.28007 0.0
C551 C 0.06712 0.90726 0.18131 0.0
C552 C 0.05658 0.87951 0.17809 0.0
C553 C 0.07137 0.91727 0.19996 0.0
C554 C 0.06506 0.89978 0.21571 0.0
C555 C 0.05389 0.8724 0.21253 0.0
C556 C 0.04959 0.86241 0.19396 0.0
C557 C 0.07136 0.90925 0.23553 0.0
C558 C 0.08982 0.89244 0.24666 0.0
C559 C 0.05991 0.9347 0.24335 0.0
C560 C 0.03946 0.95275 0.23255 0.0
C561 C 0.0142 0.94097 0.22501 0.0
C562 C 0.99519 0.95804 0.21466 0.0
C563 C 0.00108 0.98699 0.2119 0.0
C564 C 0.02596 -0.00105 0.21952 0.0
C565 C 0.04507 0.98196 0.22985 0.0
H566 H 0.98634 0.00018 0.2039 0.0
H567 H 0.17147 0.83681 0.30547 0.0
H568 H 0.40779 0.98505 0.827 0.0
H569 H 0.42964 0.9789 0.79547 0.0
H570 H 0.40227 0.89082 0.79479 0.0
H571 H 0.38215 0.89644 0.82663 0.0
H572 H 0.4498 0.89229 0.77865 0.0
H573 H 0.36439 0.94935 0.77204 0.0
H574 H 0.33304 0.99066 0.7782 0.0
H575 H 0.3978 0.04742 0.75708 0.0
H576 H 0.42965 0.00642 0.75099 0.0
H577 H 0.40428 0.90393 0.6735 0.0
H578 H 0.40083 0.92045 0.70627 0.0
H579 H 0.49061 0.9034 0.71465 0.0
H580 H 0.49386 0.8853 0.68183 0.0
H581 H 0.41984 0.95923 0.72753 0.0
H582 H 0.50233 0.8825 0.76036 0.0
H583 H 0.52531 0.83621 0.75337 0.0
H584 H 0.45208 0.81036 0.72065 0.0
H585 H 0.42858 0.85634 0.72762 0.0
C586 C 0.4068 0.96431 0.82017 0.0
C587 C 0.39315 0.94126 0.82922 0.0
C588 C 0.41915 0.96083 0.8021 0.0
C589 C 0.41716 0.93452 0.79247 0.0
C590 C 0.40425 0.91132 0.80183 0.0
C591 C 0.39262 0.91458 0.82006 0.0
C592 C 0.42702 0.93118 0.77235 0.0
C593 C 0.44339 0.90709 0.76752 0.0
C594 C 0.4186 0.95025 0.75767 0.0
C595 C 0.39951 0.97489 0.76129 0.0
C596 C 0.37199 0.97067 0.76883 0.0
C597 C 0.35414 0.99401 0.77229 0.0
C598 C 0.36346 0.02166 0.7681 0.0
C599 C 0.39064 0.026 0.76037 0.0
C600 C 0.4086 0.00273 0.75691 0.0
C601 C 0.42345 0.90397 0.68219 0.0
C602 C 0.44928 0.89294 0.67511 0.0
C603 C 0.42146 0.91356 0.70099 0.0
C604 C 0.44531 0.91278 0.71314 0.0
C605 C 0.47169 0.90358 0.70573 0.0
C606 C 0.47357 0.89336 0.68695 0.0
C607 C 0.44159 0.91976 0.73376 0.0
C608 C 0.42665 0.94469 0.73872 0.0
C609 C 0.4501 0.90074 0.74844 0.0
C610 C 0.46392 0.87296 0.7443 0.0
C611 C 0.49115 0.86689 0.7517 0.0
C612 C 0.50425 0.84073 0.74774 0.0
C613 C 0.49021 0.82041 0.73651 0.0
C614 C 0.46298 0.82616 0.72928 0.0
C615 C 0.44977 0.85226 0.73322 0.0
H616 H 0.50041 0.80019 0.73344 0.0
H617 H 0.34961 0.03971 0.77079 0.0
H618 H 0.51314 0.36002 0.8105 0.0
H619 H 0.51674 0.37803 0.77778 0.0
H620 H 0.58894 0.42992 0.79401 0.0
H621 H 0.58535 0.41238 0.82673 0.0
H622 H 0.55402 0.45817 0.76913 0.0
H623 H 0.59927 0.36564 0.77369 0.0
H624 H 0.60113 0.3142 0.78113 0.0
H625 H 0.53332 0.29833 0.74114 0.0
H626 H 0.53082 0.34978 0.73366 0.0
H627 H 0.63158 0.47427 0.68266 0.0
H628 H 0.61294 0.46588 0.71471 0.0
H629 H 0.54729 0.41132 0.69136 0.0
H630 H 0.56631 0.41897 0.6593 0.0
H631 H 0.57313 0.38532 0.71929 0.0
H632 H 0.53225 0.478 0.71171 0.0
H633 H 0.53207 0.52935 0.70392 0.0
H634 H 0.59217 0.54539 0.74906 0.0
H635 H 0.59306 0.49407 0.75694 0.0
C636 C 0.52956 0.37553 0.80719 0.0
C637 C 0.54915 0.38448 0.82124 0.0
C638 C 0.53162 0.38577 0.78846 0.0
C639 C 0.55335 0.40504 0.78341 0.0
C640 C 0.57202 0.41505 0.79758 0.0
C641 C 0.57001 0.40484 0.81628 0.0
C642 C 0.55804 0.41325 0.76316 0.0
C643 C 0.55831 0.44231 0.75821 0.0
C644 C 0.56307 0.3925 0.74886 0.0
C645 C 0.56463 0.36157 0.75329 0.0
C646 C 0.58461 0.35121 0.7666 0.0
C647 C 0.58581 0.32205 0.77081 0.0
C648 C 0.56729 0.30302 0.76166 0.0
C649 C 0.54761 0.31311 0.74825 0.0
C650 C 0.5463 0.34225 0.74401 0.0
C651 C 0.61285 0.4609 0.68428 0.0
C652 C 0.60057 0.44714 0.6684 0.0
C653 C 0.60211 0.45621 0.70265 0.0
C654 C 0.57857 0.43807 0.70549 0.0
C655 C 0.5655 0.42534 0.68955 0.0
C656 C 0.57639 0.42979 0.67121 0.0
C657 C 0.56926 0.43036 0.72513 0.0
C658 C 0.5683 0.4013 0.73004 0.0
C659 C 0.56365 0.45115 0.73934 0.0
C660 C 0.56286 0.48212 0.73483 0.0
C661 C 0.54557 0.49244 0.7199 0.0
C662 C 0.54532 0.52155 0.71548 0.0
C663 C 0.56214 0.54061 0.72596 0.0
C664 C 0.57916 0.5306 0.74094 0.0
C665 C 0.57951 0.5015 0.74541 0.0
H666 H 0.56195 0.56313 0.7225 0.0
H667 H 0.56825 0.28046 0.76493 0.0
H668 H 0.08256 0.57711 0.66876 0.0
H669 H 0.08896 0.56154 0.70171 0.0
H670 H 0.03302 0.62875 0.72099 0.0
H671 H 0.02671 0.64479 0.68798 0.0
H672 H 0.08226 0.62799 0.74094 0.0
H673 H 0.01182 0.55921 0.72246 0.0
H674 H 0.99021 0.52177 0.70232 0.0
H675 H 0.0627 0.46757 0.71213 0.0
H676 H 0.08495 0.50486 0.73212 0.0
H677 H 0.0764 0.58462 0.83675 0.0
H678 H 0.06032 0.59239 0.80405 0.0
H679 H 0.12327 0.53265 0.78356 0.0
H680 H 0.13978 0.52472 0.81638 0.0
H681 H 0.06879 0.52901 0.76466 0.0
H682 H 0.14029 0.59828 0.78138 0.0
H683 H 0.16238 0.63527 0.80168 0.0
H684 H 0.08831 0.68833 0.79491 0.0
H685 H 0.06556 0.65143 0.77481 0.0
C686 C 0.07128 0.58842 0.67995 0.0
C687 C 0.05418 0.6123 0.67569 0.0
C688 C 0.07489 0.57937 0.6988 0.0
C689 C 0.06136 0.59388 0.71381 0.0
C690 C 0.04366 0.61725 0.70961 0.0
C691 C 0.03999 0.62631 0.69072 0.0
C692 C 0.06721 0.58575 0.73394 0.0
C693 C 0.0788 0.60648 0.7462 0.0
C694 C 0.06351 0.55745 0.74065 0.0
C695 C 0.05017 0.53495 0.72866 0.0
C696 C 0.02327 0.5394 0.7202 0.0
C697 C 0.01088 0.51819 0.70883 0.0
C698 C 0.02511 0.49233 0.70591 0.0
C699 C 0.05172 0.48762 0.71439 0.0
C700 C 0.06422 0.50878 0.72576 0.0
C701 C 0.08662 0.57272 0.82539 0.0
C702 C 0.10966 0.55427 0.8292 0.0
C703 C 0.07739 0.57726 0.80669 0.0
C704 C 0.09088 0.56339 0.79143 0.0
C705 C 0.11267 0.54361 0.7952 0.0
C706 C 0.1221 0.53917 0.81395 0.0
C707 C 0.08363 0.57128 0.77153 0.0
C708 C 0.07197 0.55054 0.75935 0.0
C709 C 0.08734 0.59955 0.76484 0.0
C710 C 0.10108 0.62194 0.77676 0.0
C711 C 0.1286 0.61773 0.78435 0.0
C712 C 0.14126 0.63869 0.79581 0.0
C713 C 0.12673 0.66409 0.79964 0.0
C714 C 0.09953 0.66862 0.79196 0.0
C715 C 0.08674 0.64769 0.78053 0.0
H716 H 0.13656 0.68028 0.80852 0.0
H717 H 0.01548 0.47593 0.69711 0.0
H718 H 0.86546 0.0162 0.68547 0.0
H719 H 0.88322 0.02246 0.71804 0.0
H720 H 0.94005 0.08891 0.69875 0.0
H721 H 0.92234 0.08297 0.66609 0.0
H722 H 0.96446 0.05229 0.72706 0.0
H723 H 0.88014 0.10878 0.71607 0.0
H724 H 0.83026 0.11716 0.70623 0.0
H725 H 0.80104 0.05831 0.74901 0.0
H726 H 0.85084 0.0492 0.75889 0.0
H727 H 0.98271 0.13301 0.81295 0.0
H728 H 0.97483 0.11478 0.78066 0.0
H729 H 0.9111 0.05652 0.80214 0.0
H730 H 0.91854 0.07481 0.8344 0.0
H731 H 0.891 0.08627 0.77278 0.0
H732 H 0.97549 0.03233 0.7855 0.0
H733 H 0.02542 0.02447 0.79539 0.0
H734 H 0.05458 0.07865 0.74992 0.0
H735 H 0.00477 0.08717 0.73991 0.0
C736 C 0.8821 0.03181 0.68804 0.0
C737 C 0.89222 0.04933 0.67317 0.0
C738 C 0.89219 0.03537 0.70669 0.0
C739 C 0.91269 0.05637 0.71081 0.0
C740 C 0.92419 0.07261 0.69585 0.0
C741 C 0.91394 0.06925 0.6772 0.0
C742 C 0.92016 0.06312 0.7309 0.0
C743 C 0.94851 0.05992 0.73706 0.0
C744 C 0.89919 0.07262 0.74397 0.0
C745 C 0.86924 0.07803 0.73805 0.0
C746 C 0.8631 0.0974 0.72324 0.0
C747 C 0.83485 0.10232 0.71768 0.0
C748 C 0.8125 0.0882 0.72694 0.0
C749 C 0.81838 0.06918 0.74182 0.0
C750 C 0.84661 0.06412 0.7474 0.0
C751 C 0.96732 0.11601 0.81088 0.0
C752 C 0.95113 0.10554 0.8263 0.0
C753 C 0.96293 0.10551 0.79239 0.0
C754 C 0.94242 0.08421 0.78897 0.0
C755 C 0.92699 0.073 0.80443 0.0
C756 C 0.93134 0.08347 0.8229 0.0
C757 C 0.93536 0.07529 0.76914 0.0
C758 C 0.90701 0.0783 0.76293 0.0
C759 C 0.95637 0.06567 0.75609 0.0
C760 C 0.98636 0.0606 0.76206 0.0
C761 C 0.99253 0.04277 0.7777 0.0
C762 C 0.02082 0.03816 0.78331 0.0
C763 C 0.04316 0.05111 0.77332 0.0
C764 C 0.03725 0.06866 0.75766 0.0
C765 C 0.00899 0.07336 0.752 0.0
H766 H 0.06505 0.0475 0.77768 0.0
H767 H 0.79063 0.09206 0.72263 0.0
H768 H 0.44557 0.12714 0.36612 0.0
H769 H 0.39819 0.1062 0.36652 0.0
H770 H 0.40852 0.08451 0.42603 0.0
H771 H 0.45669 0.10526 0.42573 0.0
H772 H 0.38593 0.04097 0.40614 0.0
H773 H 0.36607 0.13987 0.41311 0.0
H774 H 0.36898 0.1913 0.40588 0.0
H775 H 0.33288 0.17635 0.35034 0.0
H776 H 0.33014 0.12474 0.35713 0.0
H777 H 0.23621 0.02031 0.42202 0.0
H778 H 0.28194 0.04521 0.42221 0.0
H779 H 0.2883 0.03564 0.36118 0.0
H780 H 0.24231 0.01034 0.36066 0.0
H781 H 0.30165 0.0952 0.38297 0.0
H782 H 0.32297 0.99427 0.37748 0.0
H783 H 0.32019 0.94357 0.38665 0.0
H784 H 0.35418 0.96364 0.44205 0.0
H785 H 0.35608 0.01467 0.43347 0.0
C786 C 0.4379 0.11803 0.37937 0.0
C787 C 0.45496 0.11803 0.39596 0.0
C788 C 0.41066 0.10617 0.37957 0.0
C789 C 0.39963 0.09428 0.39637 0.0
C790 C 0.41662 0.09379 0.41293 0.0
C791 C 0.4441 0.10564 0.41275 0.0
C792 C 0.3706 0.08173 0.39628 0.0
C793 C 0.36743 0.05296 0.40136 0.0
C794 C 0.34657 0.09732 0.38974 0.0
C795 C 0.34814 0.12837 0.38558 0.0
C796 C 0.35897 0.1475 0.39929 0.0
C797 C 0.36055 0.1767 0.39528 0.0
C798 C 0.35119 0.18708 0.37765 0.0
C799 C 0.34016 0.16828 0.36399 0.0
C800 C 0.33856 0.13905 0.36792 0.0
C801 C 0.24706 0.02367 0.40854 0.0
C802 C 0.23566 0.01314 0.39129 0.0
C803 C 0.2733 0.0377 0.40877 0.0
C804 C 0.28856 0.04159 0.39182 0.0
C805 C 0.27675 0.03251 0.37442 0.0
C806 C 0.25056 0.0181 0.37417 0.0
C807 C 0.31725 0.05447 0.39256 0.0
C808 C 0.32023 0.08333 0.38774 0.0
C809 C 0.34102 0.03907 0.3996 0.0
C810 C 0.33909 0.00845 0.40495 0.0
C811 C 0.32923 0.98801 0.39177 0.0
C812 C 0.32792 0.95917 0.39684 0.0
C813 C 0.33687 0.9504 0.41496 0.0
C814 C 0.3472 0.97046 0.42803 0.0
C815 C 0.34825 -0.00063 0.4231 0.0
H816 H 0.3359 0.92806 0.41885 0.0
H817 H 0.35242 0.20969 0.37457 0.0
H818 H 0.35726 0.44228 0.38119 0.0
H819 H 0.38339 0.39748 0.37958 0.0
H820 H 0.44324 0.42859 0.42163 0.0
H821 H 0.41698 0.47401 0.42331 0.0
H822 H 0.4691 0.4073 0.38883 0.0
H823 H 0.39866 0.37618 0.43368 0.0
H824 H 0.34976 0.37021 0.4461 0.0
H825 H 0.32734 0.3201 0.39693 0.0
H826 H 0.37601 0.32611 0.38407 0.0
H827 H 0.54312 0.27693 0.39528 0.0
H828 H 0.51676 0.32062 0.40044 0.0
H829 H 0.44784 0.28882 0.36536 0.0
H830 H 0.47393 0.24395 0.36066 0.0
H831 H 0.42703 0.31073 0.39664 0.0
H832 H 0.49497 0.34417 0.35043 0.0
H833 H 0.54281 0.35147 0.33652 0.0
H834 H 0.56879 0.39799 0.38648 0.0
H835 H 0.5212 0.39067 0.40079 0.0
C836 C 0.37578 0.43955 0.39031 0.0
C837 C 0.38519 0.46174 0.40231 0.0
C838 C 0.39059 0.41382 0.38944 0.0
C839 C 0.41514 0.40967 0.40054 0.0
C840 C 0.42424 0.43142 0.41299 0.0
C841 C 0.40919 0.45723 0.41401 0.0
C842 C 0.43225 0.3834 0.3979 0.0
C843 C 0.46015 0.38614 0.39089 0.0
C844 C 0.42011 0.3559 0.39997 0.0
C845 C 0.39096 0.35178 0.40785 0.0
C846 C 0.38326 0.36403 0.42546 0.0
C847 C 0.35558 0.36062 0.43258 0.0
C848 C 0.33543 0.34485 0.42229 0.0
C849 C 0.34296 0.33233 0.40489 0.0
C850 C 0.37061 0.33569 0.39769 0.0
C851 C 0.52253 0.27919 0.38836 0.0
C852 C 0.51067 0.25681 0.37749 0.0
C853 C 0.50747 0.3044 0.39132 0.0
C854 C 0.48039 0.30823 0.38316 0.0
C855 C 0.46873 0.28632 0.37182 0.0
C856 C 0.48374 0.26079 0.36901 0.0
C857 C 0.46387 0.33457 0.3873 0.0
C858 C 0.43608 0.33185 0.39463 0.0
C859 C 0.476 0.36215 0.38534 0.0
C860 C 0.50459 0.36671 0.37672 0.0
C861 C 0.51094 0.35581 0.35849 0.0
C862 C 0.53801 0.35997 0.35053 0.0
C863 C 0.55884 0.37514 0.36063 0.0
C864 C 0.55263 0.38624 0.37869 0.0
C865 C 0.52561 0.38213 0.38671 0.0
H866 H 0.57978 0.37833 0.35444 0.0
H867 H 0.31399 0.34229 0.42781 0.0
H868 H 0.03135 0.41328 0.42107 0.0
H869 H 0.0759 0.44099 0.41898 0.0
H870 H 0.11092 0.3782 0.38046 0.0
H871 H 0.06687 0.35066 0.38247 0.0
H872 H 0.15118 0.39873 0.40601 0.0
H873 H 0.0788 0.43514 0.3625 0.0
H874 H 0.03136 0.45498 0.3548 0.0
H875 H 0.04743 0.5264 0.39179 0.0
H876 H 0.09483 0.50675 0.39991 0.0
H877 H 0.26161 0.47637 0.36138 0.0
H878 H 0.21793 0.44821 0.36542 0.0
H879 H 0.17912 0.51815 0.39602 0.0
H880 H 0.22176 0.54668 0.39131 0.0
H881 H 0.14061 0.49406 0.37589 0.0
H882 H 0.21303 0.45996 0.41901 0.0
H883 H 0.26024 0.44067 0.42786 0.0
H884 H 0.24442 0.36602 0.39382 0.0
H885 H 0.19724 0.38505 0.38456 0.0
C886 C 0.04884 0.40514 0.41254 0.0
C887 C 0.04558 0.38005 0.40176 0.0
C888 C 0.07416 0.421 0.41127 0.0
C889 C 0.0965 0.41177 0.39935 0.0
C890 C 0.09393 0.38572 0.38969 0.0
C891 C 0.06868 0.3701 0.39079 0.0
C892 C 0.12156 0.43013 0.39545 0.0
C893 C 0.14896 0.41954 0.39936 0.0
C894 C 0.11854 0.45739 0.387 0.0
C895 C 0.0902 0.46934 0.38196 0.0
C896 C 0.07212 0.45497 0.36909 0.0
C897 C 0.04526 0.4662 0.36463 0.0
C898 C 0.03636 0.4919 0.37284 0.0
C899 C 0.05433 0.50647 0.38547 0.0
C900 C 0.0812 0.49531 0.38999 0.0
C901 C 0.24352 0.48596 0.36857 0.0
C902 C 0.24536 0.51368 0.37618 0.0
C903 C 0.21868 0.46973 0.37107 0.0
C904 C 0.19553 0.48078 0.38152 0.0
C905 C 0.19672 0.50905 0.38803 0.0
C906 C 0.22126 0.52536 0.38531 0.0
C907 C 0.17048 0.46278 0.38647 0.0
C908 C 0.143 0.47338 0.38269 0.0
C909 C 0.17347 0.43567 0.39525 0.0
C910 C 0.20172 0.42406 0.40094 0.0
C911 C 0.21969 0.43951 0.41332 0.0
C912 C 0.24644 0.42862 0.41842 0.0
C913 C 0.25536 0.40217 0.41137 0.0
C914 C 0.2375 0.38652 0.39925 0.0
C915 C 0.21075 0.39734 0.39408 0.0
H916 H 0.27608 0.39377 0.41532 0.0
H917 H 0.01555 0.50055 0.36938 0.0
H918 H 0.12195 0.05025 0.42162 0.0
H919 H 0.10167 0.09611 0.41326 0.0
H920 H 0.0302 0.05401 0.38625 0.0
H921 H 0.05128 0.00753 0.39379 0.0
H922 H 0.04961 0.09223 0.36333 0.0
H923 H 0.02392 0.09425 0.42897 0.0
H924 H 0.0292 0.09079 0.46394 0.0
H925 H 0.09162 0.15797 0.4631 0.0
H926 H 0.08703 0.16159 0.42807 0.0
H927 H 0.96262 0.21817 0.36141 0.0
H928 H 0.98559 0.17153 0.36433 0.0
H929 H 0.06542 0.21271 0.37817 0.0
H930 H 0.0425 0.25965 0.37485 0.0
H931 H 0.04285 0.17563 0.40675 0.0
H932 H 0.06384 0.17413 0.33981 0.0
H933 H 0.05305 0.17832 0.30545 0.0
H934 H 0.99249 0.10974 0.30982 0.0
H935 H 0.00261 0.1054 0.34429 0.0
C936 C 0.10159 0.05056 0.41425 0.0
C937 C 0.08835 0.02509 0.40827 0.0
C938 C 0.08992 0.07697 0.40953 0.0
C939 C 0.0643 0.07864 0.39918 0.0
C940 C 0.05009 0.05327 0.39416 0.0
C941 C 0.06202 0.0267 0.39863 0.0
C942 C 0.05371 0.10679 0.39246 0.0
C943 C 0.04762 0.11032 0.37292 0.0
C944 C 0.05184 0.13064 0.40483 0.0
C945 C 0.05537 0.12795 0.42585 0.0
C946 C 0.03907 0.10802 0.4362 0.0
C947 C 0.04188 0.10609 0.45605 0.0
C948 C 0.06081 0.12407 0.46573 0.0
C949 C 0.07702 0.144 0.45558 0.0
C950 C 0.07432 0.14601 0.43573 0.0
C951 C 0.98536 0.21724 0.36428 0.0
C952 C 0.0009 0.24235 0.36786 0.0
C953 C 0.99843 0.19063 0.36597 0.0
C954 C 0.02713 0.18874 0.37153 0.0
C955 C 0.04324 0.21384 0.37379 0.0
C956 C 0.03025 0.24057 0.37174 0.0
C957 C 0.03867 0.16088 0.37777 0.0
C958 C 0.04489 0.15744 0.39724 0.0
C959 C 0.03995 0.13705 0.36543 0.0
C960 C 0.03382 0.13961 0.34469 0.0
C961 C 0.04803 0.16011 0.3335 0.0
C962 C 0.04207 0.16247 0.31398 0.0
C963 C 0.02205 0.14435 0.30546 0.0
C964 C 0.00798 0.12378 0.31644 0.0
C965 C 0.01385 0.12134 0.33596 0.0
H966 H 0.01747 0.14621 0.29035 0.0
H967 H 0.06286 0.12262 0.4811 0.0
H968 H 0.97312 0.92662 0.10372 0.0
H969 H 0.92405 0.94221 0.11013 0.0
H970 H 0.89881 0.85439 0.1188 0.0
H971 H 0.94692 0.83887 0.11098 0.0
H972 H 0.86005 0.87596 0.10129 0.0
H973 H 0.90841 0.90559 0.1568 0.0
H974 H 0.94552 0.92847 0.17661 0.0
H975 H 0.92143 0.01072 0.15484 0.0
H976 H 0.88444 0.9883 0.13467 0.0
H977 H 0.74382 0.97584 0.1504 0.0
H978 H 0.78845 0.94858 0.15289 0.0
H979 H 0.79043 0.94007 0.09147 0.0
H980 H 0.74566 0.96543 0.08901 0.0
H981 H 0.83857 0.95981 0.14209 0.0
H982 H 0.82332 0.88483 0.07543 0.0
H983 H 0.7849 0.85616 0.06081 0.0
H984 H 0.74061 0.85345 0.11447 0.0
H985 H 0.77896 0.88173 0.1295 0.0
C986 C 0.9569 0.91077 0.10678 0.0
C987 C 0.96362 0.88159 0.10662 0.0
C988 C 0.92898 0.91964 0.11071 0.0
C989 C 0.90769 0.89952 0.11532 0.0
C990 C 0.91464 0.87038 0.1152 0.0
C991 C 0.94218 0.86151 0.11067 0.0
C992 C 0.87792 0.90858 0.11951 0.0
C993 C 0.85543 0.89415 0.11036 0.0
C994 C 0.87154 0.93153 0.132 0.0
C995 C 0.89376 0.94521 0.1441 0.0
C996 C 0.91115 0.92854 0.15613 0.0
C997 C 0.93215 0.94143 0.16744 0.0
C998 C 0.93586 0.97102 0.16696 0.0
C999 C 0.91854 0.98779 0.15519 0.0
C1000 C 0.89752 0.97501 0.14383 0.0
C1001 C 0.7535 0.96748 0.13752 0.0
C1002 C 0.74107 0.97258 0.11954 0.0
C1003 C 0.77906 0.95207 0.13893 0.0
C1004 C 0.79266 0.94185 0.12239 0.0
C1005 C 0.78001 0.94681 0.10452 0.0
C1006 C 0.75434 0.96153 0.10313 0.0
C1007 C 0.82104 0.92777 0.12331 0.0
C1008 C 0.84324 0.94125 0.13337 0.0
C1009 C 0.82703 0.90291 0.11253 0.0
C1010 C 0.80401 0.88556 0.10358 0.0
C1011 C 0.8055 0.87796 0.08416 0.0
C1012 C 0.7837 0.86181 0.07578 0.0
C1013 C 0.76031 0.85304 0.08669 0.0
C1014 C 0.75871 0.86033 0.10602 0.0
C1015 C 0.78046 0.87645 0.11447 0.0
H1016 H 0.74344 0.84056 0.08017 0.0
H1017 H 0.95213 0.98095 0.17572 0.0
H1018 H 0.44054 0.78449 0.12277 0.0
H1019 H 0.46217 0.83136 0.1179 0.0
H1020 H 0.54606 0.79384 0.12254 0.0
H1021 H 0.52448 0.74694 0.128 0.0
H1022 H 0.54645 0.84419 0.1384 0.0
H1023 H 0.51253 0.80641 0.07891 0.0
H1024 H 0.47774 0.78695 0.05581 0.0
H1025 H 0.42831 0.8639 0.0596 0.0
H1026 H 0.46243 0.88361 0.08303 0.0
H1027 H 0.62687 0.9408 0.08325 0.0
H1028 H 0.59802 0.89841 0.08917 0.0
H1029 H 0.52675 0.95128 0.10535 0.0
H1030 H 0.5557 0.99421 0.09989 0.0
H1031 H 0.51786 0.89576 0.07941 0.0
H1032 H 0.55399 0.9322 0.13999 0.0
H1033 H 0.59244 0.95119 0.1605 0.0
H1034 H 0.64136 0.8748 0.15161 0.0
H1035 H 0.60335 0.85557 0.13077 0.0
C1036 C 0.46361 0.78631 0.12314 0.0
C1037 C 0.48084 0.76199 0.12561 0.0
C1038 C 0.47594 0.81309 0.12019 0.0
C1039 C 0.50574 0.81599 0.11929 0.0
C1040 C 0.523 0.79207 0.12302 0.0
C1041 C 0.51065 0.76529 0.12622 0.0
C1042 C 0.51889 0.84362 0.11369 0.0
C1043 C 0.5402 0.85531 0.12545 0.0
C1044 C 0.51065 0.85839 0.09684 0.0
C1045 C 0.48986 0.84634 0.08295 0.0
C1046 C 0.49406 0.81906 0.075 0.0
C1047 C 0.47448 0.808 0.06182 0.0
C1048 C 0.45079 0.82415 0.05633 0.0
C1049 C 0.44662 0.85139 0.06395 0.0
C1050 C 0.46605 0.8625 0.07719 0.0
C1051 C 0.60488 0.94361 0.08766 0.0
C1052 C 0.5937 0.97098 0.09128 0.0
C1053 C 0.58847 0.91929 0.09107 0.0
C1054 C 0.56047 0.92184 0.09785 0.0
C1055 C 0.54841 0.94902 0.10013 0.0
C1056 C 0.56498 0.97347 0.09701 0.0
C1057 C 0.54502 0.89603 0.10417 0.0
C1058 C 0.52358 0.88467 0.09248 0.0
C1059 C 0.55336 0.88131 0.12089 0.0
C1060 C 0.57597 0.89259 0.13368 0.0
C1061 C 0.57306 0.91957 0.14228 0.0
C1062 C 0.59474 0.93035 0.15398 0.0
C1063 C 0.61936 0.91424 0.15731 0.0
C1064 C 0.62229 0.88727 0.149 0.0
C1065 C 0.60068 0.87641 0.13725 0.0
H1066 H 0.63614 0.92263 0.16637 0.0
H1067 H 0.4357 0.81563 0.0461 0.0
H1068 H 0.52549 0.58544 0.08556 0.0
H1069 H 0.57004 0.55863 0.09012 0.0
H1070 H 0.60728 0.63097 0.11905 0.0
H1071 H 0.56275 0.65758 0.11491 0.0
H1072 H 0.64549 0.59917 0.09308 0.0
H1073 H 0.58038 0.58694 0.14619 0.0
H1074 H 0.53355 0.57545 0.16036 0.0
H1075 H 0.53763 0.49103 0.13656 0.0
H1076 H 0.58428 0.50222 0.12195 0.0
H1077 H 0.75881 0.52823 0.13905 0.0
H1078 H 0.71611 0.55803 0.13599 0.0
H1079 H 0.66763 0.4847 0.11744 0.0
H1080 H 0.70976 0.45476 0.12087 0.0
H1081 H 0.63522 0.51855 0.13864 0.0
H1082 H 0.69864 0.52945 0.08507 0.0
H1083 H 0.7446 0.53992 0.06936 0.0
H1084 H 0.74322 0.62505 0.09216 0.0
H1085 H 0.69739 0.61494 0.10822 0.0
C1086 C 0.54348 0.59585 0.09238 0.0
C1087 C 0.54074 0.62345 0.09998 0.0
C1088 C 0.56878 0.58051 0.09507 0.0
C1089 C 0.59171 0.59283 0.10508 0.0
C1090 C 0.58977 0.62117 0.11131 0.0
C1091 C 0.56436 0.63628 0.10897 0.0
C1092 C 0.6165 0.57535 0.11081 0.0
C1093 C 0.6434 0.58173 0.10318 0.0
C1094 C 0.61349 0.55244 0.1238 0.0
C1095 C 0.58566 0.54553 0.1328 0.0
C1096 C 0.57117 0.56602 0.14384 0.0
C1097 C 0.54468 0.55954 0.15197 0.0
C1098 C 0.53259 0.53255 0.14932 0.0
C1099 C 0.547 0.51194 0.13858 0.0
C1100 C 0.57347 0.51834 0.13037 0.0
C1101 C 0.73888 0.51831 0.13482 0.0
C1102 C 0.73781 0.4892 0.12993 0.0
C1103 C 0.71456 0.53541 0.13292 0.0
C1104 C 0.68891 0.52369 0.12602 0.0
C1105 C 0.68725 0.49424 0.12263 0.0
C1106 C 0.71144 0.47716 0.12457 0.0
C1107 C 0.66442 0.54218 0.12085 0.0
C1108 C 0.63748 0.53603 0.12859 0.0
C1109 C 0.66736 0.56512 0.10779 0.0
C1110 C 0.69476 0.57135 0.09801 0.0
C1111 C 0.70824 0.55034 0.08684 0.0
C1112 C 0.73425 0.55621 0.07786 0.0
C1113 C 0.74687 0.58311 0.07981 0.0
C1114 C 0.73344 0.60421 0.09069 0.0
C1115 C 0.70745 0.59843 0.09973 0.0
H1116 H 0.76701 0.58761 0.07285 0.0
H1117 H 0.51208 0.52758 0.15563 0.0
H1118 H 0.985 0.74228 0.14447 0.0
H1119 H 0.96146 0.69565 0.14103 0.0
H1120 H 0.00017 0.68529 0.08546 0.0
H1121 H 0.02228 0.73209 0.08846 0.0
H1122 H 0.9485 0.67184 0.08229 0.0
H1123 H 0.02145 0.64621 0.12645 0.0
H1124 H 0.05084 0.64927 0.15563 0.0
H1125 H 0.97647 0.6348 0.19017 0.0
H1126 H 0.94655 0.63205 0.1612 0.0
H1127 H 0.90304 0.52404 0.07559 0.0
H1128 H 0.93239 0.56755 0.07684 0.0
H1129 H 0.88871 0.59381 0.12815 0.0
H1130 H 0.85968 0.55089 0.12711 0.0
H1131 H 0.94669 0.5965 0.132 0.0
H1132 H 0.87447 0.62471 0.0853 0.0
H1133 H 0.84815 0.61986 0.05492 0.0
H1134 H 0.92675 0.6265 0.02364 0.0
H1135 H 0.95358 0.63101 0.05386 0.0
C1136 C 0.98858 0.72982 0.13165 0.0
C1137 C 0.00518 0.74078 0.11668 0.0
C1138 C 0.97529 0.70316 0.12969 0.0
C1139 C 0.97914 0.68682 0.11298 0.0
C1140 C 0.99661 0.69751 0.09838 0.0
C1141 C 0.00929 0.72425 0.10015 0.0
C1142 C 0.96393 0.65929 0.11014 0.0
C1143 C 0.94855 0.65521 0.09307 0.0
C1144 C 0.9638 0.63754 0.12416 0.0
C1145 C 0.98171 0.6392 0.14164 0.0
C1146 C 0.01132 0.64391 0.14027 0.0
C1147 C 0.02808 0.64555 0.15678 0.0
C1148 C 0.01552 0.64231 0.17475 0.0
C1149 C 0.98617 0.63735 0.17624 0.0
C1150 C 0.9693 0.63572 0.15978 0.0
C1151 C 0.8995 0.53929 0.08698 0.0
C1152 C 0.87916 0.53388 0.10131 0.0
C1153 C 0.91629 0.56407 0.0877 0.0
C1154 C 0.91279 0.58377 0.10267 0.0
C1155 C 0.89195 0.57875 0.1166 0.0
C1156 C 0.8753 0.55417 0.11592 0.0
C1157 C 0.93104 0.60945 0.10438 0.0
C1158 C 0.947 0.61312 0.12121 0.0
C1159 C 0.93223 0.63053 0.08998 0.0
C1160 C 0.91604 0.62787 0.07184 0.0
C1161 C 0.88616 0.62489 0.07195 0.0
C1162 C 0.87115 0.62225 0.05476 0.0
C1163 C 0.88578 0.62278 0.03736 0.0
C1164 C 0.91545 0.62603 0.03712 0.0
C1165 C 0.93056 0.62865 0.05427 0.0
H1166 H 0.87412 0.62074 0.02407 0.0
H1167 H 0.02853 0.64358 0.18751 0.0
H1168 H 0.76842 0.95688 0.632 0.0
H1169 H 0.72369 0.93012 0.62874 0.0
H1170 H 0.6761 0.00895 0.63025 0.0
H1171 H 0.72053 0.03571 0.63361 0.0
H1172 H 0.64652 0.96475 0.64693 0.0
H1173 H 0.69679 0.98553 0.58879 0.0
H1174 H 0.7389 0.98608 0.56766 0.0
H1175 H 0.74105 0.89441 0.56807 0.0
H1176 H 0.69921 0.89334 0.58951 0.0
H1177 H 0.52478 0.92697 0.59273 0.0
H1178 H 0.57095 0.95105 0.59748 0.0
H1179 H 0.6115 0.8695 0.60659 0.0
H1180 H 0.56539 0.84555 0.60248 0.0
H1181 H 0.64455 0.91443 0.58442 0.0
H1182 H 0.59251 0.89572 0.6435 0.0
H1183 H 0.54918 0.89779 0.66347 0.0
H1184 H 0.54912 0.9893 0.6596 0.0
H1185 H 0.59218 0.9877 0.63928 0.0
C1186 C 0.74836 0.96837 0.63238 0.0
C1187 C 0.74788 0.99834 0.63274 0.0
C1188 C 0.72287 0.95311 0.63039 0.0
C1189 C 0.69676 0.9677 0.62883 0.0
C1190 C 0.69607 0.99736 0.6313 0.0
C1191 C 0.72147 0.0126 0.63316 0.0
C1192 C 0.67084 0.95284 0.62205 0.0
C1193 C 0.64607 0.95384 0.63326 0.0
C1194 C 0.67027 0.93884 0.60411 0.0
C1195 C 0.6951 0.93936 0.59094 0.0
C1196 C 0.70639 0.96549 0.58451 0.0
C1197 C 0.73022 0.96591 0.57249 0.0
C1198 C 0.74275 0.9403 0.56662 0.0
C1199 C 0.73138 0.91423 0.57269 0.0
C1200 C 0.70761 0.9137 0.58478 0.0
C1201 C 0.54379 0.91425 0.59507 0.0
C1202 C 0.54183 0.88456 0.59725 0.0
C1203 C 0.57 0.92794 0.59786 0.0
C1204 C 0.59439 0.91193 0.60249 0.0
C1205 C 0.59286 0.88208 0.60297 0.0
C1206 C 0.56662 0.86849 0.60063 0.0
C1207 C 0.62045 0.92621 0.60937 0.0
C1208 C 0.64516 0.92519 0.59815 0.0
C1209 C 0.62086 0.94054 0.62716 0.0
C1210 C 0.59535 0.94157 0.6397 0.0
C1211 C 0.58311 0.91626 0.64677 0.0
C1212 C 0.55862 0.91735 0.65817 0.0
C1213 C 0.54635 0.94366 0.66276 0.0
C1214 C 0.55861 0.96893 0.65601 0.0
C1215 C 0.58306 0.96795 0.64455 0.0
H1216 H 0.52739 0.94445 0.67158 0.0
H1217 H 0.76115 0.94065 0.55727 0.0
H1218 H 0.64828 0.56802 0.60174 0.0
H1219 H 0.62236 0.61227 0.60815 0.0
H1220 H 0.54281 0.56976 0.59507 0.0
H1221 H 0.5691 0.52583 0.58761 0.0
H1222 H 0.53846 0.62232 0.58505 0.0
H1223 H 0.56788 0.57571 0.64168 0.0
H1224 H 0.60072 0.55213 0.66427 0.0
H1225 H 0.64929 0.62958 0.66941 0.0
H1226 H 0.61693 0.65353 0.64664 0.0
H1227 H 0.45428 0.72138 0.63349 0.0
H1228 H 0.47898 0.67568 0.63052 0.0
H1229 H 0.5601 0.71941 0.63061 0.0
H1230 H 0.53551 0.76526 0.63401 0.0
H1231 H 0.56125 0.6647 0.64832 0.0
H1232 H 0.52325 0.70937 0.58978 0.0
H1233 H 0.4828 0.72804 0.57092 0.0
H1234 H 0.44162 0.64618 0.57348 0.0
H1235 H 0.48148 0.6272 0.59268 0.0
C1236 C 0.62536 0.56853 0.59958 0.0
C1237 C 0.61056 0.5438 0.59414 0.0
C1238 C 0.61053 0.59363 0.6035 0.0
C1239 C 0.58056 0.59404 0.60274 0.0
C1240 C 0.56591 0.56987 0.59591 0.0
C1241 C 0.58088 0.54488 0.59153 0.0
C1242 C 0.56462 0.61895 0.61029 0.0
C1243 C 0.54329 0.63136 0.59896 0.0
C1244 C 0.57059 0.63059 0.62859 0.0
C1245 C 0.59014 0.61633 0.6423 0.0
C1246 C 0.58569 0.58765 0.64752 0.0
C1247 C 0.6042 0.57423 0.66037 0.0
C1248 C 0.62712 0.58933 0.66823 0.0
C1249 C 0.63154 0.6179 0.66329 0.0
C1250 C 0.61311 0.63142 0.65042 0.0
C1251 C 0.47742 0.72118 0.63352 0.0
C1252 C 0.49301 0.74685 0.63365 0.0
C1253 C 0.49147 0.69508 0.63177 0.0
C1254 C 0.52125 0.69436 0.62978 0.0
C1255 C 0.53704 0.71964 0.63195 0.0
C1256 C 0.52299 0.7458 0.63394 0.0
C1257 C 0.53553 0.66814 0.62296 0.0
C1258 C 0.55655 0.65555 0.63442 0.0
C1259 C 0.52843 0.65562 0.60513 0.0
C1260 C 0.50521 0.66695 0.59285 0.0
C1261 C 0.50547 0.69542 0.58644 0.0
C1262 C 0.48261 0.70607 0.57572 0.0
C1263 C 0.45958 0.68833 0.57115 0.0
C1264 C 0.45943 0.6599 0.57712 0.0
C1265 C 0.48214 0.6492 0.58791 0.0
H1266 H 0.44183 0.69646 0.56295 0.0
H1267 H 0.64142 0.5789 0.67819 0.0
H1268 H 0.97076 0.57111 0.59062 0.0
H1269 H 0.92512 0.5465 0.59543 0.0
H1270 H 0.89048 0.62232 0.6218 0.0
H1271 H 0.93633 0.64633 0.61786 0.0
H1272 H 0.87769 0.57989 0.64268 0.0
H1273 H 0.8708 0.59808 0.57556 0.0
H1274 H 0.88587 0.59781 0.54181 0.0
H1275 H 0.88785 0.50614 0.54219 0.0
H1276 H 0.87319 0.50587 0.57603 0.0
H1277 H 0.72991 0.53305 0.63531 0.0
H1278 H 0.7756 0.55869 0.63413 0.0
H1279 H 0.81888 0.48036 0.61969 0.0
H1280 H 0.77376 0.45462 0.62102 0.0
H1281 H 0.82611 0.5248 0.59294 0.0
H1282 H 0.83202 0.5085 0.66095 0.0
H1283 H 0.81471 0.51076 0.69418 0.0
H1284 H 0.81151 0.60226 0.69099 0.0
H1285 H 0.82844 0.60053 0.65763 0.0
C1286 C 0.95321 0.58257 0.59716 0.0
C1287 C 0.95698 0.61052 0.60391 0.0
C1288 C 0.92713 0.56855 0.59989 0.0
C1289 C 0.90426 0.58261 0.60891 0.0
C1290 C 0.90782 0.61095 0.61496 0.0
C1291 C 0.93397 0.62468 0.61261 0.0
C1292 C 0.87706 0.56751 0.61295 0.0
C1293 C 0.86622 0.56822 0.63169 0.0
C1294 C 0.86225 0.55187 0.59875 0.0
C1295 C 0.87117 0.55197 0.5784 0.0
C1296 C 0.87468 0.57787 0.5685 0.0
C1297 C 0.88311 0.57781 0.54934 0.0
C1298 C 0.88789 0.55198 0.53988 0.0
C1299 C 0.88419 0.52614 0.54954 0.0
C1300 C 0.8758 0.52608 0.56871 0.0
C1301 C 0.74928 0.52117 0.63244 0.0
C1302 C 0.74816 0.4919 0.62799 0.0
C1303 C 0.77531 0.53584 0.63171 0.0
C1304 C 0.80043 0.52138 0.62658 0.0
C1305 C 0.79963 0.49187 0.62349 0.0
C1306 C 0.77379 0.47723 0.6243 0.0
C1307 C 0.82703 0.5372 0.62256 0.0
C1308 C 0.83766 0.53661 0.60383 0.0
C1309 C 0.84134 0.5533 0.63667 0.0
C1310 C 0.8312 0.55436 0.65673 0.0
C1311 C 0.82737 0.52909 0.66727 0.0
C1312 C 0.81768 0.53028 0.68615 0.0
C1313 C 0.81193 0.55663 0.69467 0.0
C1314 C 0.81593 0.58186 0.68436 0.0
C1315 C 0.8256 0.58079 0.66547 0.0
H1316 H 0.80444 0.55751 0.70929 0.0
H1317 H 0.8944 0.55198 0.52504 0.0
H1318 H 0.85099 0.93221 0.61018 0.0
H1319 H 0.87844 0.88805 0.61151 0.0
H1320 H 0.94651 0.92797 0.57968 0.0
H1321 H 0.91845 0.97232 0.5778 0.0
H1322 H 0.94075 0.87067 0.57089 0.0
H1323 H 0.95019 0.92797 0.62689 0.0
H1324 H 0.93321 0.95706 0.65396 0.0
H1325 H 0.88906 0.88437 0.6769 0.0
H1326 H 0.90539 0.85495 0.64978 0.0
H1327 H 0.04608 0.77522 0.6044 0.0
H1328 H 0.01987 0.81954 0.59969 0.0
H1329 H 0.94648 0.78318 0.62785 0.0
H1330 H 0.97263 0.7384 0.63269 0.0
H1331 H 0.95744 0.84006 0.63794 0.0
H1332 H 0.94918 0.78307 0.5806 0.0
H1333 H 0.9685 0.75508 0.55372 0.0
H1334 H 0.0139 0.82881 0.53355 0.0
H1335 H 0.99519 0.85717 0.56049 0.0
C1336 C 0.87153 0.93136 0.60307 0.0
C1337 C 0.88285 0.95565 0.59409 0.0
C1338 C 0.88721 0.90618 0.60389 0.0
C1339 C 0.9148 0.90505 0.59617 0.0
C1340 C 0.92531 0.92855 0.58585 0.0
C1341 C 0.90932 0.95379 0.58475 0.0
C1342 C 0.93332 0.8803 0.60056 0.0
C1343 C 0.94475 0.86417 0.58553 0.0
C1344 C 0.93837 0.8718 0.6197 0.0
C1345 C 0.92882 0.88931 0.63621 0.0
C1346 C 0.93671 0.91823 0.63764 0.0
C1347 C 0.92721 0.93478 0.653 0.0
C1348 C 0.91002 0.92258 0.66712 0.0
C1349 C 0.90236 0.89379 0.66594 0.0
C1350 C 0.91174 0.87716 0.65058 0.0
C1351 C 0.02448 0.77666 0.60985 0.0
C1352 C 0.0113 0.75312 0.61874 0.0
C1353 C 0.00953 0.80201 0.60705 0.0
C1354 C 0.98111 0.80433 0.61304 0.0
C1355 C 0.96838 0.78161 0.62299 0.0
C1356 C 0.98336 0.75611 0.62579 0.0
C1357 C 0.96441 0.83013 0.60829 0.0
C1358 C 0.95346 0.84657 0.6233 0.0
C1359 C 0.96019 0.83906 0.58914 0.0
C1360 C 0.97099 0.82218 0.57269 0.0
C1361 C 0.96343 0.79328 0.57051 0.0
C1362 C 0.97425 0.77735 0.55525 0.0
C1363 C 0.99246 0.79013 0.54196 0.0
C1364 C -0.0002 0.81892 0.54386 0.0
C1365 C 0.98907 0.83495 0.55912 0.0
H1366 H 0.00082 0.77772 0.53017 0.0
H1367 H 0.90268 0.93543 0.679 0.0
H1368 H 0.04954 0.09476 0.87432 0.0
H1369 H 0.09956 0.08006 0.87384 0.0
H1370 H 0.11477 0.12604 0.92626 0.0
H1371 H 0.064 0.14026 0.92713 0.0
H1372 H 0.15409 0.13643 0.88958 0.0
H1373 H 0.12516 0.06786 0.93559 0.0
H1374 H 0.09426 0.0318 0.9508 0.0
H1375 H 0.10089 0.97848 0.90109 0.0
H1376 H 0.1316 0.01438 0.88548 0.0
H1377 H 0.29166 0.05912 0.88602 0.0
H1378 H 0.25007 0.08872 0.89374 0.0
H1379 H 0.1981 0.0374 0.85609 0.0
H1380 H 0.23935 0.00754 0.84875 0.0
H1381 H 0.18201 0.03452 0.89411 0.0
H1382 H 0.20906 0.10807 0.84776 0.0
H1383 H 0.24321 0.14336 0.83501 0.0
H1384 H 0.24346 0.18738 0.88883 0.0
H1385 H 0.20954 0.15213 0.90197 0.0
C1386 C 0.06341 0.10131 0.88593 0.0
C1387 C 0.05302 0.11846 0.90082 0.0
C1388 C 0.09194 0.09303 0.8856 0.0
C1389 C 0.11074 0.10218 0.89993 0.0
C1390 C 0.10045 0.1189 0.91507 0.0
C1391 C 0.07154 0.12672 0.91565 0.0
C1392 C 0.14112 0.09423 0.89834 0.0
C1393 C 0.16057 0.1143 0.89101 0.0
C1394 C 0.14938 0.06543 0.9002 0.0
C1395 C 0.13047 0.04395 0.9093 0.0
C1396 C 0.11976 0.04859 0.92781 0.0
C1397 C 0.10236 0.02814 0.93653 0.0
C1398 C 0.09555 0.0029 0.9269 0.0
C1399 C 0.10617 0.99805 0.90853 0.0
C1400 C 0.12361 0.01843 0.89975 0.0
C1401 C 0.27171 0.05524 0.87859 0.0
C1402 C 0.26852 0.03112 0.86683 0.0
C1403 C 0.24791 0.07196 0.88317 0.0
C1404 C 0.22095 0.06483 0.87576 0.0
C1405 C 0.2187 0.043 0.86211 0.0
C1406 C 0.2423 0.02617 0.85773 0.0
C1407 C 0.19451 0.07636 0.88434 0.0
C1408 C 0.17587 0.05681 0.89304 0.0
C1409 C 0.18738 0.10566 0.88404 0.0
C1410 C 0.20697 0.12734 0.87589 0.0
C1411 C 0.2165 0.1252 0.8569 0.0
C1412 C 0.2358 0.1452 0.8496 0.0
C1413 C 0.24556 0.16755 0.86112 0.0
C1414 C 0.2359 0.17004 0.87993 0.0
C1415 C 0.2166 0.15009 0.8873 0.0
H1416 H 0.26057 0.18296 0.85546 0.0
H1417 H 0.08211 0.98707 0.93368 0.0
H1418 H 0.35558 0.05594 0.92868 0.0
H1419 H 0.375 0.10474 0.92803 0.0
H1420 H 0.45005 0.07388 0.8989 0.0
H1421 H 0.43041 0.02549 0.89911 0.0
H1422 H 0.46042 0.11859 0.92651 0.0
H1423 H 0.39536 0.09324 0.87373 0.0
H1424 H 0.34825 0.07904 0.86105 0.0
H1425 H 0.31007 0.15309 0.88661 0.0
H1426 H 0.35689 0.1674 0.89981 0.0
H1427 H 0.52601 0.21808 0.87013 0.0
H1428 H 0.49881 0.17585 0.8794 0.0
H1429 H 0.42609 0.22888 0.89258 0.0
H1430 H 0.45307 0.27127 0.88254 0.0
H1431 H 0.40858 0.17856 0.87936 0.0
H1432 H 0.47183 0.20899 0.92801 0.0
H1433 H 0.51709 0.22482 0.94264 0.0
H1434 H 0.55594 0.14456 0.92844 0.0
H1435 H 0.51106 0.12838 0.91347 0.0
C1436 C 0.37676 0.0595 0.92292 0.0
C1437 C 0.39173 0.03714 0.91408 0.0
C1438 C 0.38766 0.08733 0.92238 0.0
C1439 C 0.41376 0.09283 0.91323 0.0
C1440 C 0.42988 0.07001 0.90604 0.0
C1441 C 0.41877 0.0424 0.90624 0.0
C1442 C 0.42301 0.12228 0.90885 0.0
C1443 C 0.44913 0.1318 0.91625 0.0
C1444 C 0.40761 0.13985 0.89599 0.0
C1445 C 0.37955 0.13118 0.88797 0.0
C1446 C 0.37688 0.10633 0.87682 0.0
C1447 C 0.35023 0.09829 0.86951 0.0
C1448 C 0.32618 0.11513 0.87305 0.0
C1449 C 0.32871 0.14004 0.88392 0.0
C1450 C 0.35528 0.1481 0.89133 0.0
C1451 C 0.50391 0.2206 0.87441 0.0
C1452 C 0.49163 0.24785 0.8757 0.0
C1453 C 0.48849 0.19654 0.87993 0.0
C1454 C 0.46079 0.19936 0.88736 0.0
C1455 C 0.44757 0.22628 0.88712 0.0
C1456 C 0.4629 0.25043 0.88124 0.0
C1457 C 0.44671 0.1744 0.89641 0.0
C1458 C 0.41967 0.16578 0.88995 0.0
C1459 C 0.46096 0.15791 0.91049 0.0
C1460 C 0.48807 0.16753 0.9195 0.0
C1461 C 0.49007 0.19478 0.92788 0.0
C1462 C 0.51566 0.20381 0.93626 0.0
C1463 C 0.53938 0.18572 0.93644 0.0
C1464 C 0.53754 0.15855 0.92828 0.0
C1465 C 0.51202 0.14942 0.91987 0.0
H1466 H 0.55918 0.1927 0.9429 0.0
H1467 H 0.3056 0.10897 0.86732 0.0
H1468 H 0.4768 0.42464 0.91762 0.0
H1469 H 0.43469 0.45582 0.91536 0.0
H1470 H 0.39373 0.39452 0.87828 0.0
H1471 H 0.43558 0.36391 0.88014 0.0
H1472 H 0.39193 0.4457 0.86286 0.0
H1473 H 0.37265 0.40525 0.92501 0.0
H1474 H 0.38297 0.39369 0.95869 0.0
H1475 H 0.39096 0.48296 0.97168 0.0
H1476 H 0.38107 0.49503 0.93799 0.0
H1477 H 0.24561 0.48679 0.86337 0.0
H1478 H 0.29209 0.46328 0.86595 0.0
H1479 H 0.32466 0.53466 0.89827 0.0
H1480 H 0.27848 0.55834 0.89579 0.0
H1481 H 0.3338 0.48367 0.9163 0.0
H1482 H 0.34887 0.52389 0.85441 0.0
H1483 H 0.3374 0.53497 0.82084 0.0
H1484 H 0.33646 0.44551 0.80739 0.0
H1485 H 0.34752 0.43386 0.84096 0.0
C1486 C 0.45855 0.41769 0.90931 0.0
C1487 C 0.45951 0.39203 0.89893 0.0
C1488 C 0.43456 0.43548 0.90799 0.0
C1489 C 0.41116 0.42755 0.89653 0.0
C1490 C 0.41166 0.40124 0.887 0.0
C1491 C 0.43557 0.38373 0.88814 0.0
C1492 C 0.38659 0.44696 0.89345 0.0
C1493 C 0.37906 0.45379 0.87455 0.0
C1494 C 0.37039 0.45827 0.90871 0.0
C1495 C 0.37649 0.45102 0.92894 0.0
C1496 C 0.37688 0.4224 0.93501 0.0
C1497 C 0.3826 0.41576 0.95411 0.0
C1498 C 0.38772 0.43757 0.9673 0.0
C1499 C 0.38706 0.46608 0.96143 0.0
C1500 C 0.38139 0.47283 0.94234 0.0
C1501 C 0.2628 0.49776 0.87069 0.0
C1502 C 0.25822 0.52437 0.87947 0.0
C1503 C 0.28935 0.48429 0.87216 0.0
C1504 C 0.31173 0.49724 0.88237 0.0
C1505 C 0.3076 0.52429 0.89043 0.0
C1506 C 0.28117 0.53781 0.8889 0.0
C1507 C 0.33879 0.48172 0.88572 0.0
C1508 C 0.34683 0.47576 0.90464 0.0
C1509 C 0.35541 0.47108 0.87048 0.0
C1510 C 0.3488 0.478 0.85025 0.0
C1511 C 0.34599 0.50656 0.84434 0.0
C1512 C 0.3396 0.51295 0.8253 0.0
C1513 C 0.33614 0.49096 0.812 0.0
C1514 C 0.33912 0.46253 0.81771 0.0
C1515 C 0.34548 0.45602 0.83674 0.0
H1516 H 0.33121 0.49595 0.79726 0.0
H1517 H 0.39211 0.43239 0.98209 0.0
H1518 H 0.15726 0.43806 0.88697 0.0
H1519 H 0.13368 0.39198 0.88267 0.0
H1520 H 0.05782 0.42513 0.9098 0.0
H1521 H 0.08209 0.47086 0.9151 0.0
H1522 H 0.06311 0.37261 0.9191 0.0
H1523 H 0.06675 0.42225 0.85955 0.0
H1524 H 0.08927 0.4481 0.83281 0.0
H1525 H 0.13997 0.37432 0.81961 0.0
H1526 H 0.11803 0.34815 0.84646 0.0
H1527 H 0.96376 0.27747 0.88026 0.0
H1528 H 0.99105 0.32148 0.88364 0.0
H1529 H 0.06825 0.27667 0.86861 0.0
H1530 H 0.04099 0.23216 0.86516 0.0
H1531 H 0.06321 0.33365 0.85311 0.0
H1532 H 0.05372 0.28411 0.91376 0.0
H1533 H 0.02598 0.26088 0.93939 0.0
H1534 H 0.97974 0.3387 0.94899 0.0
H1535 H 0.00682 0.36225 0.9232 0.0
C1536 C 0.13572 0.43528 0.89233 0.0
C1537 C 0.12135 0.45795 0.90125 0.0
C1538 C 0.12218 0.40905 0.88972 0.0
C1539 C 0.09364 0.40534 0.89534 0.0
C1540 C 0.07977 0.42753 0.9052 0.0
C1541 C 0.09363 0.45361 0.90826 0.0
C1542 C 0.07797 0.37882 0.89026 0.0
C1543 C 0.06295 0.3643 0.90463 0.0
C1544 C 0.07786 0.36775 0.87138 0.0
C1545 C 0.09096 0.38335 0.85513 0.0
C1546 C 0.08284 0.4116 0.85102 0.0
C1547 C 0.09548 0.42631 0.83584 0.0
C1548 C 0.11609 0.41288 0.82455 0.0
C1549 C 0.12403 0.3847 0.82839 0.0
C1550 C 0.11149 0.36992 0.84358 0.0
C1551 C 0.98647 0.27699 0.87731 0.0
C1552 C 0.00031 0.25123 0.87271 0.0
C1553 C 0.00201 0.30217 0.8793 0.0
C1554 C 0.03168 0.30209 0.8768 0.0
C1555 C 0.04534 0.277 0.87073 0.0
C1556 C 0.02974 0.25165 0.86871 0.0
C1557 C 0.04848 0.32771 0.88192 0.0
C1558 C 0.06363 0.34198 0.86757 0.0
C1559 C 0.04808 0.33898 0.9007 0.0
C1560 C 0.03218 0.32488 0.91644 0.0
C1561 C 0.03752 0.29621 0.92125 0.0
C1562 C 0.02191 0.28299 0.93581 0.0
C1563 C 0.0011 0.29831 0.94578 0.0
C1564 C 0.99587 0.32688 0.94124 0.0
C1565 C 0.01135 0.34017 0.92667 0.0
H1566 H 0.98906 0.28812 0.95704 0.0
H1567 H 0.12586 0.4243 0.8128 0.0
H1568 H 0.66325 0.14711 0.35067 0.0
H1569 H 0.70921 0.16275 0.33772 0.0
H1570 H 0.6887 0.24998 0.35194 0.0
H1571 H 0.64291 0.23473 0.36484 0.0
H1572 H 0.72199 0.24426 0.3178 0.0
H1573 H 0.71942 0.21213 0.38496 0.0
H1574 H 0.70933 0.17579 0.40959 0.0
H1575 H 0.7656 0.11693 0.38142 0.0
H1576 H 0.77571 0.15286 0.35649 0.0
H1577 H 0.83178 0.32473 0.35937 0.0
H1578 H 0.79074 0.29892 0.34634 0.0
H1579 H 0.84106 0.22179 0.34352 0.0
H1580 H 0.88168 0.2472 0.35718 0.0
H1581 H 0.79664 0.21253 0.36344 0.0
H1582 H 0.81094 0.25178 0.30225 0.0
H1583 H 0.82066 0.28794 0.27751 0.0
H1584 H 0.74428 0.33296 0.29302 0.0
H1585 H 0.73414 0.29718 0.31795 0.0
C1586 C 0.66831 0.16968 0.35073 0.0
C1587 C 0.64983 0.18962 0.35927 0.0
C1588 C 0.69443 0.17856 0.34317 0.0
C1589 C 0.70229 0.20745 0.34403 0.0
C1590 C 0.68289 0.22761 0.35108 0.0
C1591 C 0.65691 0.21878 0.35871 0.0
C1592 C 0.73219 0.21623 0.34118 0.0
C1593 C 0.73855 0.23728 0.32759 0.0
C1594 C 0.75377 0.2064 0.35366 0.0
C1595 C 0.74804 0.185 0.36878 0.0
C1596 C 0.72949 0.19137 0.38398 0.0
C1597 C 0.72378 0.17087 0.39799 0.0
C1598 C 0.73674 0.14404 0.39704 0.0
C1599 C 0.75552 0.13769 0.38211 0.0
C1600 C 0.76125 0.15811 0.36804 0.0
C1601 C 0.83417 0.30242 0.35562 0.0
C1602 C 0.85957 0.28776 0.35972 0.0
C1603 C 0.81084 0.28773 0.34796 0.0
C1604 C 0.81284 0.25838 0.34392 0.0
C1605 C 0.83899 0.24437 0.34661 0.0
C1606 C 0.86208 0.25887 0.35456 0.0
C1607 C 0.78665 0.24149 0.34034 0.0
C1608 C 0.78079 0.21891 0.35295 0.0
C1609 C 0.76575 0.24992 0.32687 0.0
C1610 C 0.77183 0.27178 0.31204 0.0
C1611 C 0.7963 0.26949 0.30049 0.0
C1612 C 0.80184 0.28988 0.28639 0.0
C1613 C 0.78311 0.31273 0.2837 0.0
C1614 C 0.75875 0.31522 0.2951 0.0
C1615 C 0.75304 0.29482 0.30918 0.0
H1616 H 0.78746 0.32851 0.27279 0.0
H1617 H 0.73229 0.12819 0.40789 0.0
H1618 H 0.3448 0.66021 0.34584 0.0
H1619 H 0.33028 0.70644 0.33262 0.0
H1620 H 0.25714 0.70715 0.37014 0.0
H1621 H 0.27087 0.66087 0.38285 0.0
H1622 H 0.24304 0.72877 0.33661 0.0
H1623 H 0.32519 0.73682 0.3811 0.0
H1624 H 0.37563 0.72779 0.38948 0.0
H1625 H 0.40277 0.77038 0.33833 0.0
H1626 H 0.35248 0.7788 0.3293 0.0
H1627 H 0.24283 0.85764 0.39422 0.0
H1628 H 0.26919 0.81768 0.3808 0.0
H1629 H 0.23569 0.837 0.32479 0.0
H1630 H 0.20916 0.8776 0.33828 0.0
H1631 H 0.30899 0.80827 0.35248 0.0
H1632 H 0.21791 0.7667 0.30683 0.0
H1633 H 0.16611 0.77289 0.30156 0.0
H1634 H 0.1553 0.79701 0.36032 0.0
H1635 H 0.20688 0.79032 0.366 0.0
C1636 C 0.32546 0.67015 0.3511 0.0
C1637 C 0.30913 0.65711 0.36556 0.0
C1638 C 0.31717 0.69647 0.34348 0.0
C1639 C 0.29278 0.71033 0.3505 0.0
C1640 C 0.27594 0.69677 0.36439 0.0
C1641 C 0.28395 0.67038 0.37178 0.0
C1642 C 0.2858 0.74009 0.34516 0.0
C1643 C 0.25767 0.74621 0.33958 0.0
C1644 C 0.30501 0.76285 0.34874 0.0
C1645 C 0.33513 0.75808 0.3544 0.0
C1646 C 0.34192 0.74409 0.37159 0.0
C1647 C 0.37046 0.73909 0.37646 0.0
C1648 C 0.39236 0.74856 0.36449 0.0
C1649 C 0.38578 0.763 0.34758 0.0
C1650 C 0.35728 0.76779 0.34254 0.0
C1651 C 0.24148 0.85373 0.37898 0.0
C1652 C 0.22373 0.87038 0.36732 0.0
C1653 C 0.25679 0.83109 0.37128 0.0
C1654 C 0.25432 0.82439 0.35182 0.0
C1655 C 0.23788 0.84195 0.33984 0.0
C1656 C 0.22277 0.86502 0.34755 0.0
C1657 C 0.26576 0.79669 0.34531 0.0
C1658 C 0.29479 0.79095 0.34846 0.0
C1659 C 0.24724 0.7742 0.33993 0.0
C1660 C 0.21628 0.77857 0.33671 0.0
C1661 C 0.20444 0.77336 0.3186 0.0
C1662 C 0.17512 0.7768 0.31557 0.0
C1663 C 0.15745 0.78546 0.33057 0.0
C1664 C 0.16903 0.79046 0.34868 0.0
C1665 C 0.1983 0.78681 0.35181 0.0
H1666 H 0.13478 0.78825 0.32818 0.0
H1667 H 0.41443 0.74471 0.36831 0.0
H1668 H 0.34721 0.73295 0.134 0.0
H1669 H 0.30298 0.74615 0.14962 0.0
H1670 H 0.29449 0.66078 0.17214 0.0
H1671 H 0.33906 0.64712 0.15622 0.0
H1672 H 0.24718 0.67674 0.15453 0.0
H1673 H 0.30079 0.71619 0.20379 0.0
H1674 H 0.34022 0.74138 0.21995 0.0
H1675 H 0.31564 0.81981 0.1928 0.0
H1676 H 0.27636 0.79508 0.17621 0.0
H1677 H 0.11521 0.75508 0.16257 0.0
H1678 H 0.15587 0.73029 0.17731 0.0
H1679 H 0.21397 0.78193 0.14423 0.0
H1680 H 0.17375 0.80632 0.1293 0.0
H1681 H 0.23106 0.77174 0.18399 0.0
H1682 H 0.19433 0.721 0.12567 0.0
H1683 H 0.15533 0.69541 0.10917 0.0
H1684 H 0.14848 0.63715 0.15633 0.0
H1685 H 0.1873 0.66263 0.17316 0.0
C1686 C 0.33623 0.71698 0.14245 0.0
C1687 C 0.3465 0.68889 0.14365 0.0
C1688 C 0.31107 0.72469 0.15162 0.0
C1689 C 0.29567 0.70458 0.16236 0.0
C1690 C 0.30622 0.67667 0.16409 0.0
C1691 C 0.33158 0.66891 0.1549 0.0
C1692 C 0.26679 0.71227 0.16917 0.0
C1693 C 0.24356 0.69694 0.16172 0.0
C1694 C 0.26193 0.73841 0.17879 0.0
C1695 C 0.28547 0.75371 0.18878 0.0
C1696 C 0.30383 0.73879 0.20119 0.0
C1697 C 0.32618 0.753 0.21043 0.0
C1698 C 0.33041 0.78219 0.20743 0.0
C1699 C 0.31228 0.79722 0.19517 0.0
C1700 C 0.2899 0.78312 0.18587 0.0
C1701 C 0.13669 0.76136 0.15867 0.0
C1702 C 0.1414 0.78235 0.14463 0.0
C1703 C 0.1598 0.74731 0.16716 0.0
C1704 C 0.18778 0.75448 0.1619 0.0
C1705 C 0.19246 0.77635 0.14859 0.0
C1706 C 0.16949 0.79002 0.13991 0.0
C1707 C 0.21242 0.7372 0.16803 0.0
C1708 C 0.23467 0.75075 0.17791 0.0
C1709 C 0.21637 0.70926 0.16093 0.0
C1710 C 0.19342 0.69381 0.15071 0.0
C1711 C 0.18439 0.7028 0.13253 0.0
C1712 C 0.16235 0.68833 0.12312 0.0
C1713 C 0.14938 0.66471 0.13172 0.0
C1714 C 0.1585 0.65547 0.14971 0.0
C1715 C 0.18051 0.66991 0.15918 0.0
H1716 H 0.13231 0.65354 0.12443 0.0
H1717 H 0.34774 0.79315 0.21459 0.0
H1718 H 0.82682 0.34346 0.16042 0.0
H1719 H 0.81391 0.29711 0.17394 0.0
H1720 H 0.74505 0.2898 0.13316 0.0
H1721 H 0.75717 0.33659 0.12008 0.0
H1722 H 0.7301 0.26529 0.16575 0.0
H1723 H 0.81421 0.26416 0.12369 0.0
H1724 H 0.86319 0.27859 0.1149 0.0
H1725 H 0.89454 0.24686 0.16854 0.0
H1726 H 0.84564 0.23253 0.1777 0.0
H1727 H 0.75269 0.13452 0.11235 0.0
H1728 H 0.77317 0.17768 0.12587 0.0
H1729 H 0.73509 0.15812 0.18047 0.0
H1730 H 0.7142 0.11444 0.16682 0.0
H1731 H 0.80734 0.19462 0.15486 0.0
H1732 H 0.70812 0.22266 0.19604 0.0
H1733 H 0.65768 0.20794 0.19944 0.0
H1734 H 0.65481 0.18524 0.14 0.0
H1735 H 0.7051 0.20009 0.13626 0.0
C1736 C 0.80865 0.33213 0.15454 0.0
C1737 C 0.79331 0.34329 0.13894 0.0
C1738 C 0.80125 0.30574 0.16234 0.0
C1739 C 0.77887 0.2898 0.15434 0.0
C1740 C 0.7624 0.30177 0.13958 0.0
C1741 C 0.76945 0.3284 0.13201 0.0
C1742 C 0.77473 0.2594 0.15936 0.0
C1743 C 0.74714 0.24985 0.16385 0.0
C1744 C 0.79698 0.23922 0.157 0.0
C1745 C 0.82632 0.24764 0.15146 0.0
C1746 C 0.83156 0.26042 0.13363 0.0
C1747 C 0.85928 0.26856 0.12859 0.0
C1748 C 0.88195 0.26373 0.14119 0.0
C1749 C 0.87695 0.25066 0.15882 0.0
C1750 C 0.84925 0.24253 0.16395 0.0
C1751 C 0.74917 0.13904 0.12735 0.0
C1752 C 0.73149 0.1215 0.13847 0.0
C1753 C 0.76112 0.16358 0.13513 0.0
C1754 C 0.75543 0.1712 0.15412 0.0
C1755 C 0.73961 0.15258 0.16576 0.0
C1756 C 0.72775 0.12771 0.15797 0.0
C1757 C 0.76245 0.20059 0.16017 0.0
C1758 C 0.79064 0.21005 0.15787 0.0
C1759 C 0.74062 0.22068 0.16396 0.0
C1760 C 0.71034 0.21214 0.16596 0.0
C1761 C 0.69665 0.21456 0.18372 0.0
C1762 C 0.66812 0.20621 0.1857 0.0
C1763 C 0.65308 0.19557 0.16996 0.0
C1764 C 0.6665 0.1934 0.15219 0.0
C1765 C 0.69499 0.20178 0.15013 0.0
H1766 H 0.63102 0.18906 0.17153 0.0
H1767 H 0.9034 0.27005 0.13726 0.0
H1768 H 0.15341 0.72883 0.61294 0.0
H1769 H 0.19421 0.75133 0.62812 0.0
H1770 H 0.18953 0.69098 0.67467 0.0
H1771 H 0.14886 0.66751 0.65904 0.0
H1772 H 0.20455 0.77791 0.66035 0.0
H1773 H 0.25786 0.67957 0.68948 0.0
H1774 H 0.25722 0.62699 0.68652 0.0
H1775 H 0.23459 0.63428 0.62723 0.0
H1776 H 0.23534 0.68686 0.62986 0.0
H1777 H 0.34928 0.82852 0.66105 0.0
H1778 H 0.30691 0.8065 0.67554 0.0
H1779 H 0.30501 0.74409 0.6301 0.0
H1780 H 0.34745 0.76514 0.61613 0.0
H1781 H 0.29253 0.71913 0.66252 0.0
H1782 H 0.26519 0.80955 0.62964 0.0
H1783 H 0.26664 0.86209 0.62669 0.0
H1784 H 0.23761 0.8706 0.68459 0.0
H1785 H 0.2364 0.8181 0.68794 0.0
C1786 C 0.16095 0.72034 0.62644 0.0
C1787 C 0.14822 0.6962 0.63468 0.0
C1788 C 0.1841 0.73343 0.63523 0.0
C1789 C 0.19486 0.7229 0.65257 0.0
C1790 C 0.18164 0.69933 0.66123 0.0
C1791 C 0.1586 0.68586 0.65224 0.0
C1792 C 0.22173 0.73521 0.65999 0.0
C1793 C 0.22378 0.76506 0.66135 0.0
C1794 C 0.24671 0.71845 0.66171 0.0
C1795 C 0.24628 0.68698 0.65995 0.0
C1796 C 0.25275 0.66988 0.67584 0.0
C1797 C 0.25238 0.64012 0.67422 0.0
C1798 C 0.24576 0.6273 0.65672 0.0
C1799 C 0.23961 0.64422 0.64079 0.0
C1800 C 0.24 0.67398 0.64234 0.0
C1801 C 0.33977 0.81002 0.65426 0.0
C1802 C 0.35146 0.7986 0.63741 0.0
C1803 C 0.31575 0.7974 0.66261 0.0
C1804 C 0.30288 0.77362 0.65393 0.0
C1805 C 0.31484 0.76214 0.63724 0.0
C1806 C 0.33896 0.77437 0.62913 0.0
C1807 C 0.27546 0.76178 0.6607 0.0
C1808 C 0.27327 0.73202 0.6626 0.0
C1809 C 0.25041 0.77861 0.66119 0.0
C1810 C 0.25106 0.81004 0.65912 0.0
C1811 C 0.25926 0.82268 0.64175 0.0
C1812 C 0.26002 0.85241 0.64 0.0
C1813 C 0.25227 0.86966 0.65544 0.0
C1814 C 0.24368 0.85721 0.67266 0.0
C1815 C 0.24299 0.82749 0.6745 0.0
H1816 H 0.25285 0.89267 0.65406 0.0
H1817 H 0.24546 0.60427 0.6555 0.0
H1818 H 0.7573 0.12073 0.64643 0.0
H1819 H 0.73195 0.16353 0.65665 0.0
H1820 H 0.80701 0.21426 0.64534 0.0
H1821 H 0.83285 0.17117 0.63539 0.0
H1822 H 0.77131 0.2355 0.67618 0.0
H1823 H 0.76551 0.20441 0.60993 0.0
H1824 H 0.7566 0.16859 0.58477 0.0
H1825 H 0.67061 0.15776 0.60482 0.0
H1826 H 0.67921 0.19321 0.63032 0.0
H1827 H 0.73227 0.36208 0.63048 0.0
H1828 H 0.74987 0.317 0.64301 0.0
H1829 H 0.66349 0.28537 0.64709 0.0
H1830 H 0.64552 0.33071 0.63439 0.0
H1831 H 0.69772 0.25133 0.62614 0.0
H1832 H 0.70172 0.29348 0.68742 0.0
H1833 H 0.71206 0.33037 0.71158 0.0
H1834 H 0.80185 0.32258 0.70031 0.0
H1835 H 0.79206 0.28594 0.67586 0.0
C1836 C 0.76864 0.14091 0.64657 0.0
C1837 C 0.79673 0.14293 0.63965 0.0
C1838 C 0.75422 0.16523 0.65258 0.0
C1839 C 0.76753 0.19194 0.6514 0.0
C1840 C 0.79649 0.1937 0.64633 0.0
C1841 C 0.81112 0.16919 0.64053 0.0
C1842 C 0.74991 0.21794 0.65163 0.0
C1843 C 0.75519 0.23913 0.66531 0.0
C1844 C 0.72846 0.22211 0.63765 0.0
C1845 C 0.72311 0.20114 0.62216 0.0
C1846 C 0.74478 0.19422 0.60906 0.0
C1847 C 0.73978 0.17401 0.59473 0.0
C1848 C 0.71309 0.16083 0.59324 0.0
C1849 C 0.6913 0.16793 0.60603 0.0
C1850 C 0.69622 0.18807 0.62042 0.0
C1851 C 0.71692 0.34569 0.63423 0.0
C1852 C 0.68753 0.34975 0.6312 0.0
C1853 C 0.72702 0.32008 0.64166 0.0
C1854 C 0.70794 0.29806 0.6462 0.0
C1855 C 0.67847 0.30232 0.64384 0.0
C1856 C 0.66829 0.32811 0.63651 0.0
C1857 C 0.71936 0.26946 0.6505 0.0
C1858 C 0.71311 0.24761 0.63749 0.0
C1859 C 0.74001 0.26497 0.66498 0.0
C1860 C 0.74611 0.287 0.67972 0.0
C1861 C 0.72367 0.29976 0.68998 0.0
C1862 C 0.72943 0.32061 0.70376 0.0
C1863 C 0.75759 0.32883 0.70747 0.0
C1864 C 0.78004 0.31618 0.69743 0.0
C1865 C 0.7744 0.29532 0.68363 0.0
H1866 H 0.762 0.34498 0.71814 0.0
H1867 H 0.70926 0.14518 0.58215 0.0
H1868 H 0.83173 0.1524 0.86856 0.0
H1869 H 0.78673 0.17319 0.85743 0.0
H1870 H 0.83056 0.2517 0.84374 0.0
H1871 H 0.87519 0.23143 0.85549 0.0
H1872 H 0.7888 0.26202 0.86641 0.0
H1873 H 0.79834 0.2094 0.80874 0.0
H1874 H 0.80679 0.1673 0.78837 0.0
H1875 H 0.7331 0.12601 0.81223 0.0
H1876 H 0.72442 0.16768 0.83296 0.0
H1877 H 0.65921 0.32866 0.84696 0.0
H1878 H 0.7043 0.30701 0.83706 0.0
H1879 H 0.67645 0.22573 0.85926 0.0
H1880 H 0.63123 0.24697 0.869 0.0
H1881 H 0.71152 0.22051 0.82655 0.0
H1882 H 0.70978 0.26862 0.8884 0.0
H1883 H 0.70114 0.31025 0.90922 0.0
H1884 H 0.76156 0.35949 0.87691 0.0
H1885 H 0.77023 0.31822 0.85573 0.0
C1886 C 0.83178 0.17388 0.86282 0.0
C1887 C 0.85671 0.19053 0.86321 0.0
C1888 C 0.80614 0.18567 0.85631 0.0
C1889 C 0.80531 0.21401 0.84972 0.0
C1890 C 0.83069 0.22986 0.84885 0.0
C1891 C 0.85612 0.21831 0.85565 0.0
C1892 C 0.77763 0.22851 0.84657 0.0
C1893 C 0.77225 0.2533 0.85723 0.0
C1894 C 0.75576 0.2168 0.83499 0.0
C1895 C 0.76084 0.19165 0.82251 0.0
C1896 C 0.78405 0.19126 0.80976 0.0
C1897 C 0.78886 0.16748 0.79812 0.0
C1898 C 0.77052 0.14397 0.79903 0.0
C1899 C 0.74729 0.14423 0.81155 0.0
C1900 C 0.74239 0.16795 0.82323 0.0
C1901 C 0.6624 0.30605 0.84938 0.0
C1902 C 0.64195 0.28968 0.8592 0.0
C1903 C 0.68809 0.2937 0.8436 0.0
C1904 C 0.69372 0.26491 0.84767 0.0
C1905 C 0.67242 0.24799 0.85599 0.0
C1906 C 0.64673 0.26027 0.86174 0.0
C1907 C 0.72307 0.25369 0.8464 0.0
C1908 C 0.72857 0.22949 0.83517 0.0
C1909 C 0.74524 0.26585 0.85745 0.0
C1910 C 0.74038 0.29049 0.87036 0.0
C1911 C 0.72107 0.28839 0.88568 0.0
C1912 C 0.71618 0.3119 0.89754 0.0
C1913 C 0.73072 0.33753 0.89435 0.0
C1914 C 0.75027 0.33965 0.87933 0.0
C1915 C 0.75518 0.31622 0.8674 0.0
H1916 H 0.72689 0.35572 0.90355 0.0
H1917 H 0.77429 0.12558 0.79001 0.0
H1918 H 0.23685 0.89319 0.8564 0.0
H1919 H 0.20811 0.8523 0.84632 0.0
H1920 H 0.28198 0.79773 0.85113 0.0
H1921 H 0.31099 0.83846 0.86084 0.0
H1922 H 0.2469 0.7809 0.82175 0.0
H1923 H 0.23834 0.80827 0.88927 0.0
H1924 H 0.22651 0.842 0.91517 0.0
H1925 H 0.14116 0.85013 0.89328 0.0
H1926 H 0.15266 0.81667 0.86711 0.0
H1927 H 0.22494 0.6538 0.86985 0.0
H1928 H 0.23571 0.70075 0.8567 0.0
H1929 H 0.14569 0.71781 0.85016 0.0
H1930 H 0.13461 0.6705 0.86317 0.0
H1931 H 0.17531 0.75831 0.87177 0.0
H1932 H 0.18182 0.7166 0.81105 0.0
H1933 H 0.19462 0.68058 0.78688 0.0
H1934 H 0.28368 0.69723 0.79647 0.0
H1935 H 0.27148 0.73305 0.82094 0.0
C1936 C 0.24712 0.87258 0.85498 0.0
C1937 C 0.27607 0.86892 0.85983 0.0
C1938 C 0.23068 0.8493 0.84913 0.0
C1939 C 0.24286 0.82199 0.84827 0.0
C1940 C 0.2722 0.81867 0.8517 0.0
C1941 C 0.2887 0.84195 0.85741 0.0
C1942 C 0.22472 0.79628 0.84665 0.0
C1943 C 0.23106 0.77594 0.83255 0.0
C1944 C 0.20336 0.79033 0.86039 0.0
C1945 C 0.19645 0.81033 0.87612 0.0
C1946 C 0.21712 0.81742 0.88992 0.0
C1947 C 0.21047 0.83646 0.90465 0.0
C1948 C 0.18313 0.84828 0.90583 0.0
C1949 C 0.16236 0.84102 0.89231 0.0
C1950 C 0.16892 0.82204 0.87753 0.0
C1951 C 0.20742 0.66736 0.86541 0.0
C1952 C 0.17894 0.65865 0.86777 0.0
C1953 C 0.2136 0.69404 0.85769 0.0
C1954 C 0.19146 0.71254 0.85232 0.0
C1955 C 0.16301 0.70365 0.8541 0.0
C1956 C 0.15677 0.67672 0.86159 0.0
C1957 C 0.19849 0.74235 0.84745 0.0
C1958 C 0.19015 0.76356 0.8604 0.0
C1959 C 0.21806 0.74893 0.83274 0.0
C1960 C 0.2257 0.72754 0.8179 0.0
C1961 C 0.20415 0.71248 0.80811 0.0
C1962 C 0.2113 0.69209 0.79434 0.0
C1963 C 0.23994 0.68661 0.79015 0.0
C1964 C 0.2615 0.70153 0.79971 0.0
C1965 C 0.25447 0.72194 0.81351 0.0
H1966 H 0.24544 0.6708 0.77948 0.0
H1967 H 0.17802 0.86301 0.91725 0.0
H1968 H 0.58211 0.09433 0.45494 0.0
H1969 H 0.61845 0.07993 0.47794 0.0
H1970 H 0.67702 0.06205 0.43203 0.0
H1971 H 0.6408 0.07674 0.40871 0.0
H1972 H 0.6781 0.02241 0.46728 0.0
H1973 H 0.68621 0.12148 0.44742 0.0
H1974 H 0.66535 0.16862 0.44025 0.0
H1975 H 0.63481 0.17519 0.49792 0.0
H1976 H 0.65516 0.12785 0.50535 0.0
H1977 H 0.80104 0.03507 0.52877 0.0
H1978 H 0.7682 0.03768 0.50146 0.0
H1979 H 0.70666 0.08191 0.53647 0.0
H1980 H 0.73926 0.07999 0.56345 0.0
H1981 H 0.71045 0.10753 0.50367 0.0
H1982 H 0.69776 0.00981 0.52382 0.0
H1983 H 0.71293 0.96087 0.53192 0.0
H1984 H 0.74877 0.95073 0.47589 0.0
H1985 H 0.73356 -0.00041 0.46739 0.0
C1986 C 0.6024 0.08663 0.4496 0.0
C1987 C 0.6086 0.08713 0.42992 0.0
C1988 C 0.62317 0.07838 0.46282 0.0
C1989 C 0.65048 0.07027 0.45667 0.0
C1990 C 0.65603 0.06825 0.43703 0.0
C1991 C 0.63527 0.07671 0.42373 0.0
C1992 C 0.67396 0.06786 0.47081 0.0
C1993 C 0.68562 0.04102 0.47503 0.0
C1994 C 0.6833 0.0921 0.48112 0.0
C1995 C 0.67202 0.12104 0.4769 0.0
C1996 C 0.67494 0.13292 0.45855 0.0
C1997 C 0.66321 0.15968 0.45443 0.0
C1998 C 0.64869 0.17486 0.4686 0.0
C1999 C 0.64604 0.16339 0.48695 0.0
C2000 C 0.65771 0.13662 0.49113 0.0
C2001 C 0.78052 0.04537 0.53062 0.0
C2002 C 0.77291 0.05739 0.54833 0.0
C2003 C 0.76168 0.0467 0.51502 0.0
C2004 C 0.73481 0.05984 0.51691 0.0
C2005 C 0.72727 0.07177 0.53458 0.0
C2006 C 0.74602 0.07059 0.55006 0.0
C2007 C 0.71452 0.06188 0.50054 0.0
C2008 C 0.70338 0.08883 0.49582 0.0
C2009 C 0.7055 0.03766 0.48997 0.0
C2010 C 0.71483 0.00842 0.49505 0.0
C2011 C 0.70906 0.9972 0.51328 0.0
C2012 C 0.71763 0.96948 0.51793 0.0
C2013 C 0.73203 0.95278 0.5045 0.0
C2014 C 0.7377 0.96371 0.48631 0.0
C2015 C 0.72902 0.99138 0.48154 0.0
H2016 H 0.73868 0.93134 0.50815 0.0
H2017 H 0.63952 0.19552 0.46538 0.0
H2018 H 0.42223 0.74623 0.55979 0.0
H2019 H 0.42572 0.7153 0.53194 0.0
H2020 H 0.47257 0.78033 0.50178 0.0
H2021 H 0.46977 0.81169 0.52996 0.0
H2022 H 0.41905 0.75063 0.4834 0.0
H2023 H 0.51079 0.73397 0.51081 0.0
H2024 H 0.54652 0.72285 0.53557 0.0
H2025 H 0.50706 0.64136 0.54514 0.0
H2026 H 0.47048 0.65232 0.52087 0.0
H2027 H 0.42332 0.64767 0.40949 0.0
H2028 H 0.44191 0.68452 0.43088 0.0
H2029 H 0.4259 0.62991 0.47933 0.0
H2030 H 0.40774 0.59282 0.4581 0.0
H2031 H 0.47352 0.6598 0.48482 0.0
H2032 H 0.37719 0.6793 0.46447 0.0
H2033 H 0.3383 0.68871 0.44154 0.0
H2034 H 0.38265 0.76291 0.42108 0.0
H2035 H 0.4221 0.75362 0.44367 0.0
C2036 C 0.43348 0.75408 0.54734 0.0
C2037 C 0.44594 0.78143 0.54722 0.0
C2038 C 0.43556 0.73624 0.53148 0.0
C2039 C 0.44988 0.74534 0.51505 0.0
C2040 C 0.46176 0.77286 0.51451 0.0
C2041 C 0.46005 0.79072 0.53058 0.0
C2042 C 0.45082 0.72608 0.49832 0.0
C2043 C 0.43159 0.73114 0.48335 0.0
C2044 C 0.4665 0.70027 0.49875 0.0
C2045 C 0.48771 0.6941 0.51404 0.0
C2046 C 0.50939 0.71387 0.51839 0.0
C2047 C 0.52989 0.70754 0.5323 0.0
C2048 C 0.52915 0.68135 0.54184 0.0
C2049 C 0.50771 0.66156 0.53764 0.0
C2050 C 0.48703 0.66788 0.52386 0.0
C2051 C 0.42434 0.6432 0.42465 0.0
C2052 C 0.41366 0.61736 0.43208 0.0
C2053 C 0.43485 0.66439 0.43687 0.0
C2054 C 0.43474 0.66022 0.45674 0.0
C2055 C 0.42608 0.63368 0.46405 0.0
C2056 C 0.41563 0.61247 0.45186 0.0
C2057 C 0.44128 0.68404 0.47008 0.0
C2058 C 0.46165 0.67968 0.48451 0.0
C2059 C 0.42618 0.71026 0.46942 0.0
C2060 C 0.40279 0.71553 0.45556 0.0
C2061 C 0.37881 0.69743 0.45492 0.0
C2062 C 0.35664 0.70277 0.44202 0.0
C2063 C 0.35802 0.72636 0.42984 0.0
C2064 C 0.38163 0.74463 0.43051 0.0
C2065 C 0.40392 0.7393 0.44333 0.0
H2066 H 0.34079 0.73052 0.41991 0.0
H2067 H 0.54509 0.67645 0.55256 0.0
H2068 H 0.85413 0.4077 0.40847 0.0
H2069 H 0.81753 0.42451 0.43071 0.0
H2070 H 0.87641 0.41437 0.47762 0.0
H2071 H 0.9131 0.39759 0.4556 0.0
H2072 H 0.82604 0.38417 0.4821 0.0
H2073 H 0.85536 0.47952 0.46455 0.0
H2074 H 0.86502 0.51884 0.44203 0.0
H2075 H 0.77767 0.51697 0.42329 0.0
H2076 H 0.76758 0.47735 0.44552 0.0
H2077 H 0.75542 0.43464 0.56138 0.0
H2078 H 0.78866 0.43089 0.53488 0.0
H2079 H 0.72071 0.44962 0.49515 0.0
H2080 H 0.68703 0.4543 0.52202 0.0
H2081 H 0.7713 0.47482 0.48428 0.0
H2082 H 0.74076 0.38144 0.50172 0.0
H2083 H 0.72985 0.3415 0.52346 0.0
H2084 H 0.81779 0.33785 0.54076 0.0
H2085 H 0.82917 0.37809 0.51933 0.0
C2086 C 0.85955 0.40966 0.42346 0.0
C2087 C 0.88652 0.40096 0.43025 0.0
C2088 C 0.83858 0.41935 0.43615 0.0
C2089 C 0.84421 0.42052 0.45582 0.0
C2090 C 0.87161 0.4135 0.46248 0.0
C2091 C 0.8926 0.40398 0.44984 0.0
C2092 C 0.82092 0.42593 0.46972 0.0
C2093 C 0.81433 0.40414 0.48272 0.0
C2094 C 0.80473 0.45145 0.46991 0.0
C2095 C 0.8108 0.47525 0.45654 0.0
C2096 C 0.83828 0.4873 0.45549 0.0
C2097 C 0.84381 0.50969 0.44281 0.0
C2098 C 0.82199 0.52034 0.4312 0.0
C2099 C 0.79456 0.50867 0.43227 0.0
C2100 C 0.78892 0.48626 0.44492 0.0
C2101 C 0.74744 0.43809 0.54703 0.0
C2102 C 0.71846 0.44426 0.54375 0.0
C2103 C 0.76652 0.43594 0.53187 0.0
C2104 C 0.75706 0.43925 0.51299 0.0
C2105 C 0.72841 0.44676 0.50962 0.0
C2106 C 0.70921 0.44936 0.52494 0.0
C2107 C 0.77714 0.43337 0.49705 0.0
C2108 C 0.78295 0.45483 0.48358 0.0
C2109 C 0.79247 0.40734 0.49619 0.0
C2110 C 0.78578 0.38293 0.509 0.0
C2111 C 0.75775 0.37225 0.51025 0.0
C2112 C 0.75148 0.34954 0.52251 0.0
C2113 C 0.7731 0.33718 0.53351 0.0
C2114 C 0.80106 0.34746 0.53224 0.0
C2115 C 0.80744 0.3702 0.52001 0.0
H2116 H 0.76821 0.3196 0.543 0.0
H2117 H 0.82632 0.53768 0.42139 0.0
H2118 H 0.02 0.67896 0.52907 0.0
H2119 H 0.01635 0.70924 0.50043 0.0
H2120 H 0.08732 0.75984 0.52043 0.0
H2121 H 0.09126 0.73011 0.54865 0.0
H2122 H 0.04255 0.79302 0.50925 0.0
H2123 H 0.09815 0.71273 0.48608 0.0
H2124 H 0.10671 0.66188 0.47884 0.0
H2125 H 0.03268 0.66047 0.44256 0.0
H2126 H 0.02358 0.7113 0.44973 0.0
H2127 H 0.12815 0.82859 0.42238 0.0
H2128 H 0.10603 0.7924 0.44217 0.0
H2129 H 0.03001 0.84402 0.44684 0.0
H2130 H 0.05271 0.88123 0.42725 0.0
H2131 H 0.06244 0.75848 0.44363 0.0
H2132 H 0.00529 0.83635 0.49352 0.0
H2133 H 0.00522 0.88729 0.50263 0.0
H2134 H 0.09403 0.89381 0.48791 0.0
H2135 H 0.09468 0.84283 0.47899 0.0
C2136 C 0.03495 0.6964 0.52725 0.0
C2137 C 0.0559 0.70207 0.54121 0.0
C2138 C 0.03278 0.7137 0.51093 0.0
C2139 C 0.05141 0.73693 0.50843 0.0
C2140 C 0.07251 0.74224 0.52218 0.0
C2141 C 0.07482 0.72502 0.5383 0.0
C2142 C 0.04963 0.75606 0.49159 0.0
C2143 C 0.04621 0.78542 0.49481 0.0
C2144 C 0.05469 0.74619 0.47281 0.0
C2145 C 0.05995 0.71563 0.46865 0.0
C2146 C 0.08354 0.70148 0.47671 0.0
C2147 C 0.08854 0.6727 0.47258 0.0
C2148 C 0.07018 0.65792 0.46031 0.0
C2149 C 0.04684 0.67192 0.4521 0.0
C2150 C 0.04176 0.70071 0.45618 0.0
C2151 C 0.10655 0.83222 0.42735 0.0
C2152 C 0.09244 0.85813 0.42358 0.0
C2153 C 0.09377 0.81127 0.43856 0.0
C2154 C 0.0665 0.81558 0.4463 0.0
C2155 C 0.05127 0.84039 0.44126 0.0
C2156 C 0.0642 0.86159 0.43001 0.0
C2157 C 0.05631 0.79564 0.46139 0.0
C2158 C 0.0574 0.76606 0.45788 0.0
C2159 C 0.04998 0.80534 0.48009 0.0
C2160 C 0.04986 0.83599 0.48526 0.0
C2161 C 0.02476 0.84872 0.49219 0.0
C2162 C 0.02464 0.87755 0.49736 0.0
C2163 C 0.04956 0.89382 0.49574 0.0
C2164 C 0.0747 0.88123 0.48906 0.0
C2165 C 0.07496 0.85238 0.48395 0.0
H2166 H 0.04941 0.91615 0.49972 0.0
H2167 H 0.07409 0.63565 0.45712 0.0
H2168 H 0.22256 0.95776 0.92888 0.0
H2169 H 0.18817 0.95301 0.95514 0.0
H2170 H 0.25736 0.9383 0.99459 0.0
H2171 H 0.29192 0.94361 0.9686 0.0
H2172 H 0.20657 0.89527 0.99191 0.0
H2173 H 0.23108 0.99794 0.99848 0.0
H2174 H 0.23332 0.04633 0.98463 0.0
H2175 H 0.14339 0.04333 0.97265 0.0
H2176 H 0.1407 0.99477 0.98625 0.0
H2177 H 0.16157 0.8885 0.08399 0.0
H2178 H 0.187 0.90597 0.05595 0.0
H2179 H 0.10907 0.94313 0.03443 0.0
H2180 H 0.08344 0.92591 0.06289 0.0
H2181 H 0.15607 0.97521 0.02399 0.0
H2182 H 0.12548 0.88098 0.01807 0.0
H2183 H 0.11575 0.83057 0.02584 0.0
H2184 H 0.20578 0.81391 0.02915 0.0
H2185 H 0.21609 0.86436 0.02171 0.0
C2186 C 0.23047 0.9537 0.94318 0.0
C2187 C 0.25999 0.95101 0.94666 0.0
C2188 C 0.2108 0.95108 0.95813 0.0
C2189 C 0.2203 0.94533 0.97674 0.0
C2190 C 0.24968 0.9428 0.98029 0.0
C2191 C 0.26938 0.94592 0.96544 0.0
C2192 C 0.19974 0.94065 0.99247 0.0
C2193 C 0.19577 0.91272 0.9991 0.0
C2194 C 0.18417 0.96324 1.00089 0.0
C2195 C 0.18574 0.9927 0.99326 0.0
C2196 C 0.21182 0.00756 0.99281 0.0
C2197 C 0.21316 0.03502 0.98502 0.0
C2198 C 0.18852 0.04787 0.97772 0.0
C2199 C 0.16246 0.03334 0.97829 0.0
C2200 C 0.161 0.00588 0.98608 0.0
C2201 C 0.15005 0.90128 0.07363 0.0
C2202 C 0.12056 0.90581 0.07557 0.0
C2203 C 0.16454 0.91104 0.05752 0.0
C2204 C 0.14976 0.92515 0.04285 0.0
C2205 C 0.12083 0.93209 0.04553 0.0
C2206 C 0.10627 0.92246 0.06185 0.0
C2207 C 0.16427 0.9299 0.02424 0.0
C2208 C 0.16682 0.95767 0.01687 0.0
C2209 C 0.1775 0.90691 0.01449 0.0
C2210 C 0.17156 0.87661 0.01953 0.0
C2211 C 0.14323 0.86668 0.0207 0.0
C2212 C 0.13759 0.83807 0.025 0.0
C2213 C 0.16013 0.81908 0.02805 0.0
C2214 C 0.18834 0.82867 0.02682 0.0
C2215 C 0.19409 0.85728 0.02256 0.0
H2216 H 0.15573 0.7969 0.03127 0.0
H2217 H 0.18961 0.0691 0.97166 0.0
H2218 H 0.57065 0.1203 0.07758 0.0
H2219 H 0.54989 0.15797 0.05741 0.0
H2220 H 0.6346 0.1848 0.04104 0.0
H2221 H 0.65522 0.14837 0.06122 0.0
H2222 H 0.60399 0.22967 0.04621 0.0
H2223 H 0.59198 0.13887 0.01323 0.0
H2224 H 0.57339 0.08991 0.00927 0.0
H2225 H 0.48744 0.12119 0.01377 0.0
H2226 H 0.50559 0.17031 0.01798 0.0
H2227 H 0.58111 0.24854 0.93966 0.0
H2228 H 0.58496 0.22091 0.96886 0.0
H2229 H 0.54445 0.2887 1.00046 0.0
H2230 H 0.5402 0.31691 0.97091 0.0
H2231 H 0.54177 0.20113 0.99211 0.0
H2232 H 0.58031 0.28658 0.04532 0.0
H2233 H 0.61002 0.33014 0.04697 0.0
H2234 H 0.65602 0.30347 0.99702 0.0
H2235 H 0.62651 0.2599 0.99504 0.0
C2236 C 0.58477 0.13445 0.06981 0.0
C2237 C 0.61461 0.13112 0.07098 0.0
C2238 C 0.57289 0.15593 0.05826 0.0
C2239 C 0.59068 0.17421 0.04762 0.0
C2240 C 0.62037 0.17122 0.0492 0.0
C2241 C 0.63216 0.15009 0.06071 0.0
C2242 C 0.57916 0.19553 0.03387 0.0
C2243 C 0.58984 0.22358 0.03461 0.0
C2244 C 0.561 0.18762 0.01857 0.0
C2245 C 0.55013 0.15813 0.01622 0.0
C2246 C 0.56913 0.13524 0.01355 0.0
C2247 C 0.55868 0.10749 0.01123 0.0
C2248 C 0.52926 0.10242 0.01136 0.0
C2249 C 0.51023 0.12513 0.01375 0.0
C2250 C 0.52058 0.15292 0.01611 0.0
C2251 C 0.57296 0.2578 0.95274 0.0
C2252 C 0.5603 0.28505 0.95288 0.0
C2253 C 0.57505 0.2418 0.96944 0.0
C2254 C 0.56478 0.25261 0.98676 0.0
C2255 C 0.55243 0.27995 0.98717 0.0
C2256 C 0.55002 0.296 0.9703 0.0
C2257 C 0.56745 0.23481 0.00418 0.0
C2258 C 0.55492 0.20755 0.00416 0.0
C2259 C 0.58483 0.24305 0.01974 0.0
C2260 C 0.60094 0.27026 0.01989 0.0
C2261 C 0.59658 0.29021 0.03459 0.0
C2262 C 0.61345 0.31482 0.03562 0.0
C2263 C 0.63497 0.31949 0.02216 0.0
C2264 C 0.63936 0.29979 0.00745 0.0
C2265 C 0.62242 0.27527 0.00628 0.0
H2266 H 0.64817 0.33843 0.02306 0.0
H2267 H 0.5212 0.08093 0.00954 0.0
H2268 H 0.21735 0.51961 0.96032 0.0
H2269 H 0.25296 0.52051 0.98591 0.0
H2270 H 0.2509 0.61271 0.98574 0.0
H2271 H 0.21664 0.61178 0.95942 0.0
H2272 H 0.30212 0.59849 0.98739 0.0
H2273 H 0.21988 0.56855 0.02246 0.0
H2274 H 0.17781 0.53893 0.03003 0.0
H2275 H 0.23157 0.46525 0.03619 0.0
H2276 H 0.27394 0.49437 0.02842 0.0
H2277 H 0.34913 0.59358 0.09209 0.0
H2278 H 0.31324 0.58014 0.06855 0.0
H2279 H 0.37952 0.56557 0.02687 0.0
H2280 H 0.41555 0.58046 0.05016 0.0
H2281 H 0.29659 0.5398 0.04628 0.0
H2282 H 0.36016 0.59124 0.9844 0.0
H2283 H 0.39889 0.62645 0.98003 0.0
H2284 H 0.3748 0.66828 0.03217 0.0
H2285 H 0.33571 0.63354 0.03672 0.0
C2286 C 0.22424 0.54003 0.96595 0.0
C2287 C 0.21422 0.56563 0.95793 0.0
C2288 C 0.24458 0.54055 0.98063 0.0
C2289 C 0.25458 0.56669 0.98796 0.0
C2290 C 0.24378 0.59225 0.98029 0.0
C2291 C 0.22404 0.59172 0.96533 0.0
C2292 C 0.2771 0.56762 0.00302 0.0
C2293 C 0.30079 0.58561 1.00024 0.0
C2294 C 0.27545 0.55116 0.01998 0.0
C2295 C 0.25004 0.53358 0.02467 0.0
C2296 C 0.2227 0.54599 0.02529 0.0
C2297 C 0.19881 0.5293 0.02964 0.0
C2298 C 0.20201 0.50021 0.03353 0.0
C2299 C 0.22912 0.48777 0.03314 0.0
C2300 C 0.25309 0.50436 0.02878 0.0
C2301 C 0.3562 0.58681 0.07808 0.0
C2302 C 0.38517 0.5886 0.07288 0.0
C2303 C 0.33558 0.57911 0.06459 0.0
C2304 C 0.34357 0.57268 0.04575 0.0
C2305 C 0.37277 0.57129 0.04116 0.0
C2306 C 0.39338 0.5796 0.05453 0.0
C2307 C 0.32136 0.57065 0.0306 0.0
C2308 C 0.29785 0.55248 0.03333 0.0
C2309 C 0.32249 0.58791 0.01398 0.0
C2310 C 0.34526 0.60956 0.011 0.0
C2311 C 0.36306 0.60802 0.99488 0.0
C2312 C 0.38513 0.62782 0.99242 0.0
C2313 C 0.38947 0.64939 0.00592 0.0
C2314 C 0.37156 0.6514 0.02181 0.0
C2315 C 0.34944 0.63168 0.02433 0.0
H2316 H 0.40652 0.66472 0.00395 0.0
H2317 H 0.18348 0.48733 0.0369 0.0
H2318 H 0.91456 0.41104 0.05104 0.0
H2319 H 0.93318 0.37692 0.02769 0.0
H2320 H 0.90858 0.30719 0.06451 0.0
H2321 H 0.89147 0.34112 0.08825 0.0
H2322 H 0.95282 0.29147 0.04616 0.0
H2323 H 0.86378 0.33416 0.02833 0.0
H2324 H 0.83063 0.37372 0.02126 0.0
H2325 H 0.88446 0.40097 0.97507 0.0
H2326 H 0.91815 0.36178 0.98205 0.0
H2327 H 0.89731 0.22206 0.95049 0.0
H2328 H 0.89279 0.25454 0.97753 0.0
H2329 H 0.98389 0.24995 0.98691 0.0
H2330 H 0.98813 0.21604 0.96043 0.0
H2331 H 0.90938 0.30408 0.98206 0.0
H2332 H 0.00136 0.26818 0.03213 0.0
H2333 H 0.02662 0.22404 0.04136 0.0
H2334 H 0.95286 0.17429 0.02632 0.0
H2335 H 0.92707 0.21815 0.01722 0.0
C2336 C 0.91382 0.38845 0.05434 0.0
C2337 C 0.90124 0.37876 0.07137 0.0
C2338 C 0.92431 0.36895 0.04095 0.0
C2339 C 0.92151 0.33942 0.04407 0.0
C2340 C 0.91089 0.32982 0.06169 0.0
C2341 C 0.90104 0.3493 0.07527 0.0
C2342 C 0.9268 0.3186 0.02841 0.0
C2343 C 0.94345 0.29427 0.03211 0.0
C2344 C 0.91394 0.32178 0.0102 0.0
C2345 C 0.89364 0.34525 0.00585 0.0
C2346 C 0.86863 0.3487 0.01674 0.0
C2347 C 0.84974 0.37104 0.01275 0.0
C2348 C 0.85548 0.38989 0.99776 0.0
C2349 C 0.88007 0.38638 0.9867 0.0
C2350 C 0.89907 0.36411 0.99067 0.0
C2351 C 0.9163 0.22767 0.95852 0.0
C2352 C 0.94304 0.21649 0.95344 0.0
C2353 C 0.91375 0.24638 0.97392 0.0
C2354 C 0.93797 0.25484 0.98438 0.0
C2355 C 0.96474 0.24338 0.97942 0.0
C2356 C 0.96719 0.22407 0.96424 0.0
C2357 C 0.93502 0.27651 0.99984 0.0
C2358 C 0.91895 0.30121 0.99606 0.0
C2359 C 0.9472 0.2729 0.01823 0.0
C2360 C 0.96244 0.24642 0.02379 0.0
C2361 C 0.99053 0.24782 0.03085 0.0
C2362 C 0.00493 0.22286 0.03604 0.0
C2363 C 0.99139 0.19637 0.03436 0.0
C2364 C 0.96337 0.19481 0.02754 0.0
C2365 C 0.94886 0.21971 0.02234 0.0
H2366 H 0.00259 0.17707 0.03838 0.0
H2367 H 0.84083 0.40718 0.99469 0.0
H2368 H 0.3523 0.91718 0.59639 0.0
H2369 H 0.31245 0.93168 0.57603 0.0
H2370 H 0.36331 0.91487 0.52593 0.0
H2371 H 0.4034 0.90091 0.5461 0.0
H2372 H 0.32924 0.95942 0.51985 0.0
H2373 H 0.31954 0.86386 0.54502 0.0
H2374 H 0.31642 0.82785 0.57065 0.0
H2375 H 0.24168 0.86916 0.59296 0.0
H2376 H 0.24469 0.90574 0.56765 0.0
H2377 H 0.21088 0.8881 0.4632 0.0
H2378 H 0.2437 0.88689 0.49027 0.0
H2379 H 0.22944 0.97667 0.50012 0.0
H2380 H 0.19666 0.97819 0.47288 0.0
H2381 H 0.24291 0.89915 0.5283 0.0
H2382 H 0.29865 0.00586 0.50968 0.0
H2383 H 0.30386 0.03856 0.48226 0.0
H2384 H 0.28875 0.96913 0.44348 0.0
H2385 H 0.28495 0.93577 0.47057 0.0
C2386 C 0.35529 0.91722 0.58105 0.0
C2387 C 0.38097 0.90743 0.57289 0.0
C2388 C 0.3324 0.9254 0.56943 0.0
C2389 C 0.33468 0.92369 0.54946 0.0
C2390 C 0.361 0.91619 0.5413 0.0
C2391 C 0.38395 0.90817 0.55289 0.0
C2392 C 0.30915 0.92704 0.53705 0.0
C2393 C 0.31022 0.94651 0.52184 0.0
C2394 C 0.28449 0.90982 0.53945 0.0
C2395 C 0.28254 0.88772 0.55458 0.0
C2396 C 0.30258 0.86539 0.55548 0.0
C2397 C 0.30082 0.84487 0.56994 0.0
C2398 C 0.27892 0.84627 0.58346 0.0
C2399 C 0.25869 0.86815 0.58251 0.0
C2400 C 0.26041 0.88879 0.56812 0.0
C2401 C 0.21429 0.90752 0.4713 0.0
C2402 C 0.20144 0.93334 0.46568 0.0
C2403 C 0.23296 0.90674 0.48686 0.0
C2404 C 0.23932 0.93177 0.49703 0.0
C2405 C 0.22504 0.95717 0.49231 0.0
C2406 C 0.20626 0.95797 0.47676 0.0
C2407 C 0.26297 0.93163 0.51116 0.0
C2408 C 0.26162 0.9126 0.52661 0.0
C2409 C 0.28763 0.94881 0.50873 0.0
C2410 C 0.291 0.96842 0.49221 0.0
C2411 C 0.29668 0.99753 0.4953 0.0
C2412 C 0.29953 0.01615 0.47981 0.0
C2413 C 0.29664 0.00591 0.46116 0.0
C2414 C 0.29108 0.97701 0.45794 0.0
C2415 C 0.28869 0.95821 0.47336 0.0
H2416 H 0.29888 0.02035 0.44923 0.0
H2417 H 0.2776 0.83035 0.59464 0.0
H2418 H 0.5672 0.36334 0.58415 0.0
H2419 H 0.54991 0.32648 0.56226 0.0
H2420 H 0.58207 0.3748 0.51441 0.0
H2421 H 0.59858 0.41204 0.53605 0.0
H2422 H 0.53511 0.34826 0.50418 0.0
H2423 H 0.62219 0.32208 0.53683 0.0
H2424 H 0.65241 0.31262 0.56502 0.0
H2425 H 0.59488 0.24643 0.58298 0.0
H2426 H 0.5641 0.2558 0.55501 0.0
H2427 H 0.58738 0.24861 0.43796 0.0
H2428 H 0.58364 0.28323 0.46378 0.0
H2429 H 0.52934 0.22564 0.49522 0.0
H2430 H 0.53244 0.19069 0.46903 0.0
H2431 H 0.57846 0.2532 0.51609 0.0
H2432 H 0.49629 0.27585 0.47828 0.0
H2433 H 0.46946 0.28634 0.44877 0.0
H2434 H 0.52213 0.35985 0.43867 0.0
H2435 H 0.54959 0.3496 0.468 0.0
C2436 C 0.56998 0.36646 0.56894 0.0
C2437 C 0.58468 0.39049 0.5619 0.0
C2438 C 0.56021 0.34527 0.55644 0.0
C2439 C 0.56535 0.3475 0.53672 0.0
C2440 C 0.57799 0.37249 0.52957 0.0
C2441 C 0.58748 0.3938 0.54201 0.0
C2442 C 0.56016 0.32296 0.52369 0.0
C2443 C 0.54456 0.32748 0.50681 0.0
C2444 C 0.57212 0.29564 0.52722 0.0
C2445 C 0.59066 0.28989 0.54398 0.0
C2446 C 0.61588 0.30566 0.54687 0.0
C2447 C 0.63312 0.3003 0.5628 0.0
C2448 C 0.62551 0.27901 0.57583 0.0
C2449 C 0.6007 0.26297 0.57291 0.0
C2450 C 0.58335 0.26829 0.55703 0.0
C2451 C 0.57477 0.24307 0.45039 0.0
C2452 C 0.5602 0.21682 0.45144 0.0
C2453 C 0.57251 0.26302 0.46507 0.0
C2454 C 0.55596 0.25708 0.48124 0.0
C2455 C 0.54206 0.23061 0.48273 0.0
C2456 C 0.54389 0.21071 0.46781 0.0
C2457 C 0.55386 0.27874 0.49655 0.0
C2458 C 0.56832 0.27374 0.51376 0.0
C2459 C 0.54133 0.30575 0.49314 0.0
C2460 C 0.52511 0.31184 0.47533 0.0
C2461 C 0.50236 0.2941 0.46969 0.0
C2462 C 0.48698 0.30005 0.45301 0.0
C2463 C 0.49406 0.32378 0.44189 0.0
C2464 C 0.51663 0.34152 0.44735 0.0
C2465 C 0.53209 0.33567 0.46401 0.0
H2466 H 0.48198 0.32847 0.42908 0.0
H2467 H 0.63889 0.27489 0.58815 0.0
H2468 H 0.24347 0.56268 0.43687 0.0
H2469 H 0.2098 0.56137 0.46331 0.0
H2470 H 0.27988 0.55786 0.50338 0.0
H2471 H 0.31394 0.55757 0.47655 0.0
H2472 H 0.23794 0.52585 0.51599 0.0
H2473 H 0.2433 0.62141 0.49277 0.0
H2474 H 0.24228 0.66058 0.46924 0.0
H2475 H 0.15506 0.6407 0.45559 0.0
H2476 H 0.15571 0.60107 0.47876 0.0
H2477 H 0.1496 0.58338 0.59176 0.0
H2478 H 0.18592 0.5693 0.5686 0.0
H2479 H 0.12133 0.56295 0.52484 0.0
H2480 H 0.0849 0.57735 0.54778 0.0
H2481 H 0.16283 0.60049 0.51576 0.0
H2482 H 0.15876 0.50425 0.54021 0.0
H2483 H 0.16084 0.46735 0.5653 0.0
H2484 H 0.24688 0.49197 0.57882 0.0
H2485 H 0.24519 0.5293 0.55399 0.0
C2486 C 0.25174 0.56158 0.45132 0.0
C2487 C 0.28129 0.56077 0.45473 0.0
C2488 C 0.23246 0.56091 0.46644 0.0
C2489 C 0.24225 0.56045 0.4854 0.0
C2490 C 0.27181 0.55851 0.48888 0.0
C2491 C 0.29124 0.55844 0.4736 0.0
C2492 C 0.2214 0.56283 0.50136 0.0
C2493 C 0.22174 0.5424 0.51608 0.0
C2494 C 0.20005 0.58429 0.50147 0.0
C2495 C 0.19966 0.60806 0.4874 0.0
C2496 C 0.22398 0.62522 0.48463 0.0
C2497 C 0.22346 0.64753 0.47136 0.0
C2498 C 0.19865 0.65307 0.46089 0.0
C2499 C 0.17429 0.63635 0.46368 0.0
C2500 C 0.17472 0.61395 0.47688 0.0
C2501 C 0.14291 0.57814 0.57736 0.0
C2502 C 0.11433 0.58196 0.57157 0.0
C2503 C 0.16378 0.57003 0.56413 0.0
C2504 C 0.15638 0.56529 0.54495 0.0
C2505 C 0.12753 0.56669 0.53955 0.0
C2506 C 0.10669 0.57488 0.55272 0.0
C2507 C 0.1788 0.56305 0.53004 0.0
C2508 C 0.17894 0.58383 0.51562 0.0
C2509 C 0.20071 0.54225 0.53045 0.0
C2510 C 0.20174 0.51976 0.54535 0.0
C2511 C 0.17804 0.50197 0.54864 0.0
C2512 C 0.17917 0.48093 0.5628 0.0
C2513 C 0.20395 0.47736 0.57368 0.0
C2514 C 0.22769 0.49478 0.5704 0.0
C2515 C 0.22667 0.51585 0.55627 0.0
H2516 H 0.20478 0.46107 0.58463 0.0
H2517 H 0.19829 0.67038 0.45064 0.0
H2518 H 0.91984 0.14055 0.59168 0.0
H2519 H 0.93938 0.17694 0.57029 0.0
H2520 H 0.91489 0.12606 0.52154 0.0
H2521 H 0.8962 0.08935 0.5427 0.0
H2522 H 0.96286 0.15177 0.514 0.0
H2523 H 0.87159 0.18004 0.54018 0.0
H2524 H 0.83765 0.19148 0.56601 0.0
H2525 H 0.89276 0.25884 0.58546 0.0
H2526 H 0.92722 0.24752 0.55987 0.0
H2527 H 0.92024 0.241 0.44048 0.0
H2528 H 0.91983 0.21074 0.46864 0.0
H2529 H 0.96726 0.27422 0.50005 0.0
H2530 H 0.96788 0.30514 0.47162 0.0
H2531 H 0.91758 0.24721 0.5199 0.0
H2532 H 0.00426 0.22146 0.48701 0.0
H2533 H 0.02992 0.21125 0.457 0.0
H2534 H 0.97642 0.13821 0.44725 0.0
H2535 H 0.95018 0.14816 0.47707 0.0
C2536 C 0.91915 0.13683 0.57641 0.0
C2537 C 0.9061 0.11215 0.56892 0.0
C2538 C 0.93021 0.15775 0.5642 0.0
C2539 C 0.92805 0.15455 0.54429 0.0
C2540 C 0.91675 0.1291 0.53684 0.0
C2541 C 0.90596 0.1081 0.54901 0.0
C2542 C 0.93528 0.17834 0.53108 0.0
C2543 C 0.95311 0.17267 0.51541 0.0
C2544 C 0.92284 0.20582 0.53295 0.0
C2545 C 0.90215 0.21268 0.5483 0.0
C2546 C 0.87657 0.19714 0.55006 0.0
C2547 C 0.85723 0.20362 0.56464 0.0
C2548 C 0.8631 0.2258 0.57741 0.0
C2549 C 0.88828 0.24161 0.57559 0.0
C2550 C 0.90773 0.23517 0.56106 0.0
C2551 C 0.93054 0.24879 0.45333 0.0
C2552 C 0.94429 0.27552 0.45371 0.0
C2553 C 0.93028 0.23136 0.46943 0.0
C2554 C 0.94378 0.24013 0.48632 0.0
C2555 C 0.95682 0.2671 0.48708 0.0
C2556 C 0.95722 0.28465 0.47083 0.0
C2557 C 0.94457 0.22029 0.50278 0.0
C2558 C 0.92816 0.22665 0.51896 0.0
C2559 C 0.95778 0.19324 0.5012 0.0
C2560 C 0.97515 0.18567 0.48422 0.0
C2561 C 0.99803 0.20317 0.47849 0.0
C2562 C 0.01261 0.19748 0.4615 0.0
C2563 C 0.00457 0.17428 0.45017 0.0
C2564 C 0.98246 0.15627 0.45602 0.0
C2565 C 0.9678 0.16186 0.473 0.0
H2566 H 0.0154 0.17034 0.43682 0.0
H2567 H 0.84809 0.23079 0.58869 0.0
H2568 H 0.92131 0.10137 0.95963 0.0
H2569 H 0.88621 0.0813 0.9814 0.0
H2570 H 0.84135 0.04341 0.93382 0.0
H2571 H 0.87598 0.06445 0.91179 0.0
H2572 H 0.80505 0.06982 0.95439 0.0
H2573 H 0.87651 0.00217 0.96944 0.0
H2574 H 0.92431 0.98389 0.97773 0.0
H2575 H 0.92219 0.03023 0.03065 0.0
H2576 H 0.87455 0.04914 0.02257 0.0
H2577 H 0.70761 0.01529 0.02719 0.0
H2578 H 0.74343 0.01428 0.00144 0.0
H2579 H 0.79447 0.07577 0.03209 0.0
H2580 H 0.75894 0.07741 0.05744 0.0
H2581 H 0.82535 0.02636 0.01757 0.0
H2582 H 0.75702 0.09978 0.99806 0.0
H2583 H 0.70877 0.11652 0.98941 0.0
H2584 H 0.705 0.05492 0.94401 0.0
H2585 H 0.75312 0.03756 0.95259 0.0
C2586 C 0.90442 0.0882 0.95378 0.0
C2587 C 0.90145 0.08467 0.93392 0.0
C2588 C 0.88431 0.07657 0.96631 0.0
C2589 C 0.8611 0.06058 0.95934 0.0
C2590 C 0.85898 0.0557 0.93958 0.0
C2591 C 0.8789 0.06765 0.927 0.0
C2592 C 0.8377 0.05168 0.9725 0.0
C2593 C 0.80951 0.0596 0.96798 0.0
C2594 C 0.84327 0.03852 0.99036 0.0
C2595 C 0.87197 0.0272 0.99533 0.0
C2596 C 0.88631 0.00863 0.98279 0.0
C2597 C 0.91337 0.99813 0.98746 0.0
C2598 C 0.92629 0.00592 0.0047 0.0
C2599 C 0.91215 0.02421 0.01731 0.0
C2600 C 0.88509 0.03479 0.0127 0.0
C2601 C 0.72645 0.02862 0.02837 0.0
C2602 C 0.73031 0.04658 0.04429 0.0
C2603 C 0.74687 0.02797 0.0137 0.0
C2604 C 0.77162 0.04487 0.01496 0.0
C2605 C 0.7756 0.06247 0.03092 0.0
C2606 C 0.7551 0.06352 0.04532 0.0
C2607 C 0.79329 0.04523 0.99954 0.0
C2608 C 0.82104 0.03581 0.00372 0.0
C2609 C 0.7873 0.05663 0.98129 0.0
C2610 C 0.75846 0.06712 0.97613 0.0
C2611 C 0.74578 0.08963 0.98636 0.0
C2612 C 0.71849 0.09927 0.98144 0.0
C2613 C 0.70378 0.08672 0.96621 0.0
C2614 C 0.71638 0.06457 0.95583 0.0
C2615 C 0.74366 0.05483 0.96071 0.0
H2616 H 0.68266 0.09422 0.96242 0.0
H2617 H 0.94725 0.99777 0.00829 0.0
H2618 H 0.38348 0.90532 0.95852 0.0
H2619 H 0.40024 0.86784 0.97975 0.0
H2620 H 0.41843 0.81403 0.93121 0.0
H2621 H 0.40078 0.85132 0.90975 0.0
H2622 H 0.38965 0.78502 0.95638 0.0
H2623 H 0.4729 0.84308 0.96011 0.0
H2624 H 0.5016 0.88683 0.96419 0.0
H2625 H 0.46963 0.89656 0.02131 0.0
H2626 H 0.44029 0.85323 0.01744 0.0
H2627 H 0.45058 0.68757 0.02887 0.0
H2628 H 0.4475 0.71863 1.00057 0.0
H2629 H 0.40016 0.78055 0.03328 0.0
H2630 H 0.40286 0.75002 0.06133 0.0
H2631 H 0.45272 0.80045 0.01242 0.0
H2632 H 0.36302 0.74837 0.00571 0.0
H2633 H 0.33354 0.70512 0.0017 0.0
H2634 H 0.37907 0.68414 0.95036 0.0
H2635 H 0.40905 0.72717 0.9542 0.0
C2636 C 0.3915 0.88575 0.95226 0.0
C2637 C 0.39067 0.88136 0.93239 0.0
C2638 C 0.40127 0.86431 0.96447 0.0
C2639 C 0.41094 0.83814 0.95711 0.0
C2640 C 0.41112 0.83404 0.93723 0.0
C2641 C 0.4011 0.85544 0.92498 0.0
C2642 C 0.41842 0.81444 0.97034 0.0
C2643 C 0.40403 0.78822 0.96835 0.0
C2644 C 0.43691 0.81858 0.98614 0.0
C2645 C 0.45431 0.8449 0.98845 0.0
C2646 C 0.4718 0.85467 0.97349 0.0
C2647 C 0.4882 0.8794 0.97577 0.0
C2648 C 0.48742 0.89448 0.99299 0.0
C2649 C 0.47022 0.88487 0.00798 0.0
C2650 C 0.45373 0.8602 0.00575 0.0
C2651 C 0.43942 0.70776 0.02997 0.0
C2652 C 0.42707 0.71636 0.04737 0.0
C2653 C 0.43765 0.72538 0.01382 0.0
C2654 C 0.42384 0.75191 0.015 0.0
C2655 C 0.41113 0.76024 0.03221 0.0
C2656 C 0.41257 0.74263 0.04819 0.0
C2657 C 0.42324 0.77184 0.99867 0.0
C2658 C 0.43894 0.79722 1.00013 0.0
C2659 C 0.40603 0.76696 0.98243 0.0
C2660 C 0.38851 0.74077 0.98037 0.0
C2661 C 0.36697 0.73436 0.99369 0.0
C2662 C 0.35005 0.70999 0.99138 0.0
C2663 C 0.35436 0.69195 0.97575 0.0
C2664 C 0.3757 0.69818 0.96244 0.0
C2665 C 0.39266 0.72256 0.96466 0.0
H2666 H 0.34125 0.67308 0.974 0.0
H2667 H 0.50016 0.9136 0.99473 0.0
H2668 H 0.80742 0.43155 0.02706 0.0
H2669 H 0.77658 0.42891 0.99871 0.0
H2670 H 0.70222 0.43833 0.03466 0.0
H2671 H 0.73278 0.43913 0.06284 0.0
H2672 H 0.69103 0.39991 0.01126 0.0
H2673 H 0.73143 0.49367 0.00389 0.0
H2674 H 0.7701 0.52922 0.00114 0.0
H2675 H 0.80144 0.48705 0.95088 0.0
H2676 H 0.76313 0.45104 0.95346 0.0
H2677 H 0.5866 0.42326 0.94335 0.0
H2678 H 0.62211 0.43856 0.96683 0.0
H2679 H 0.68968 0.40883 0.93004 0.0
H2680 H 0.65431 0.39427 0.90619 0.0
H2681 H 0.70548 0.45711 0.95237 0.0
H2682 H 0.66187 0.36317 0.96145 0.0
H2683 H 0.61873 0.33298 0.96365 0.0
H2684 H 0.58985 0.38146 0.01197 0.0
H2685 H 0.63261 0.41215 0.00991 0.0
C2686 C 0.78449 0.43321 0.02879 0.0
C2687 C 0.77243 0.43545 0.04709 0.0
C2688 C 0.76685 0.43185 0.01259 0.0
C2689 C 0.73692 0.4337 0.01442 0.0
C2690 C 0.72512 0.43662 0.03276 0.0
C2691 C 0.74261 0.43717 0.04889 0.0
C2692 C 0.71756 0.43157 0.99751 0.0
C2693 C 0.69417 0.41276 0.99854 0.0
C2694 C 0.72164 0.44783 0.98062 0.0
C2695 C 0.7446 0.46951 0.97898 0.0
C2696 C 0.74669 0.49188 0.99232 0.0
C2697 C 0.76852 0.51212 0.99078 0.0
C2698 C 0.78827 0.51035 0.97587 0.0
C2699 C 0.78616 0.48837 0.96243 0.0
C2700 C 0.76438 0.46805 0.96392 0.0
C2701 C 0.60905 0.4208 0.93999 0.0
C2702 C 0.61763 0.40717 0.92305 0.0
C2703 C 0.62932 0.42952 0.95343 0.0
C2704 C 0.65847 0.42415 0.95037 0.0
C2705 C 0.66729 0.41304 0.93272 0.0
C2706 C 0.647 0.40471 0.9191 0.0
C2707 C 0.67898 0.42612 0.96651 0.0
C2708 C 0.70258 0.44448 0.96521 0.0
C2709 C 0.67488 0.40989 0.98335 0.0
C2710 C 0.65035 0.39003 0.98547 0.0
C2711 C 0.64632 0.36735 0.97256 0.0
C2712 C 0.62187 0.35026 0.97371 0.0
C2713 C 0.60147 0.35548 0.98784 0.0
C2714 C 0.60559 0.37759 0.00096 0.0
C2715 C 0.62997 0.39476 0.99985 0.0
H2716 H 0.58262 0.3422 0.98878 0.0
H2717 H 0.80516 0.52604 0.97471 0.0
H2718 H 0.1124 0.77046 0.05092 0.0
H2719 H 0.11143 0.7365 0.02442 0.0
H2720 H 0.02486 0.76118 0.01131 0.0
H2721 H 0.02552 0.79511 0.0378 0.0
H2722 H 0.03108 0.70307 0.0139 0.0
H2723 H 0.07727 0.78156 0.98259 0.0
H2724 H 0.11352 0.81961 0.98021 0.0
H2725 H 0.18024 0.75676 0.98023 0.0
H2726 H 0.1444 0.71832 0.98296 0.0
H2727 H 0.07425 0.6408 0.91376 0.0
H2728 H 0.06072 0.67886 0.93571 0.0
H2729 H 0.07818 0.62379 0.98366 0.0
H2730 H 0.09219 0.58552 0.96182 0.0
H2731 H 0.10152 0.70064 0.96103 0.0
H2732 H 0.03319 0.64905 0.02132 0.0
H2733 H 0.99553 0.61267 0.02521 0.0
H2734 H 0.97075 0.6235 0.96658 0.0
H2735 H 0.0078 0.66038 0.96243 0.0
C2736 C 0.09329 0.76898 0.04224 0.0
C2737 C 0.06901 0.78543 0.04653 0.0
C2738 C 0.09277 0.74956 0.02711 0.0
C2739 C 0.06803 0.74631 0.01597 0.0
C2740 C 0.04409 0.76331 0.01982 0.0
C2741 C 0.04462 0.78282 0.03489 0.0
C2742 C 0.0668 0.72437 1.00077 0.0
C2743 C 0.04638 0.70253 0.00227 0.0
C2744 C 0.08656 0.72404 0.98553 0.0
C2745 C 0.10813 0.74704 0.98308 0.0
C2746 C 0.09967 0.77584 0.98214 0.0
C2747 C 0.12015 0.79748 0.98073 0.0
C2748 C 0.14916 0.79061 0.98008 0.0
C2749 C 0.15775 0.76205 0.98073 0.0
C2750 C 0.13736 0.74032 0.98218 0.0
C2751 C 0.07449 0.63638 0.92895 0.0
C2752 C 0.08474 0.61015 0.93602 0.0
C2753 C 0.06685 0.65827 0.94147 0.0
C2754 C 0.06876 0.65421 0.96127 0.0
C2755 C 0.07654 0.62731 0.9684 0.0
C2756 C 0.08451 0.60544 0.95588 0.0
C2757 C 0.06608 0.67893 0.97433 0.0
C2758 C 0.08597 0.70126 0.97251 0.0
C2759 C 0.04575 0.67972 0.98925 0.0
C2760 C 0.02358 0.65727 0.99151 0.0
C2761 C 0.01969 0.64371 0.00925 0.0
C2762 C 0.99842 0.62302 0.01151 0.0
C2763 C 0.98086 0.61568 0.99613 0.0
C2764 C 0.98447 0.62909 0.97846 0.0
C2765 C 0.00565 0.64987 0.97614 0.0
H2766 H 0.96438 0.59967 0.99791 0.0
H2767 H 0.16498 0.80741 0.97908 0.0
loop_
_geom_bond_atom_site_label_1
_geom_bond_atom_site_label_2
_geom_bond_distance
_geom_bond_site_symmetry_2
_ccdc_geom_bond_type
O0 Zn1 1.953 . S
O0 C16 1.225 . S
Zn1 O0 1.953 . S
Zn1 O2 1.949 . S
Zn1 O8 1.919 . S
Zn1 O13 1.924 . S
O2 Zn1 1.949 . S
O2 Zn3 1.923 . S
O2 Zn4 1.950 . S
O2 Zn5 1.945 . S
Zn3 O2 1.923 . S
Zn3 O6 1.933 . S
Zn3 O9 1.941 . S
Zn3 O10 1.965 . S
Zn4 O2 1.950 . S
Zn4 O11 1.938 . S
Zn4 O12 1.906 . S
Zn4 O22 1.953 . S
Zn5 O2 1.945 . S
Zn5 O7 1.932 . S
Zn5 O14 1.977 . S
Zn5 O15 1.910 . S
O6 Zn3 1.933 . S
O6 C17 1.226 . S
O7 Zn5 1.932 . S
O7 C17 1.307 . S
O8 Zn1 1.919 . S
O8 C19 1.253 . S
O9 Zn3 1.941 . S
O9 C19 1.283 . S
O10 Zn3 1.965 . S
O10 C18 1.303 . S
O11 Zn4 1.938 . S
O11 C18 1.247 . S
O12 Zn4 1.906 . S
O12 C20 1.304 . S
O13 Zn1 1.924 . S
O13 C21 1.311 . S
O14 Zn5 1.977 . S
O14 C20 1.272 . S
O15 Zn5 1.910 . S
O15 C21 1.231 . S
C16 O0 1.225 . S
C16 O22 1.298 . S
C17 O6 1.226 . S
C17 O7 1.307 . S
C18 O10 1.303 . S
C18 O11 1.247 . S
C19 O8 1.253 . S
C19 O9 1.283 . S
C20 O12 1.304 . S
C20 O14 1.272 . S
C21 O13 1.311 . S
C21 O15 1.231 . S
O22 Zn4 1.953 . S
O22 C16 1.298 . S
O23 Zn24 1.953 . S
O23 C39 1.225 . S
Zn24 O23 1.953 . S
Zn24 O25 1.949 . S
Zn24 O31 1.919 . S
Zn24 O36 1.924 . S
O25 Zn24 1.949 . S
O25 Zn26 1.923 . S
O25 Zn27 1.950 . S
O25 Zn28 1.945 . S
Zn26 O25 1.923 . S
Zn26 O29 1.933 . S
Zn26 O32 1.941 . S
Zn26 O33 1.965 . S
Zn27 O25 1.950 . S
Zn27 O34 1.938 . S
Zn27 O35 1.906 . S
Zn27 O45 1.953 . S
Zn28 O25 1.945 . S
Zn28 O30 1.932 . S
Zn28 O37 1.977 . S
Zn28 O38 1.910 . S
O29 Zn26 1.933 . S
O29 C40 1.226 . S
O30 Zn28 1.932 . S
O30 C40 1.307 . S
O31 Zn24 1.919 . S
O31 C42 1.253 . S
O32 Zn26 1.941 . S
O32 C42 1.283 . S
O33 Zn26 1.965 . S
O33 C41 1.303 . S
O34 Zn27 1.938 . S
O34 C41 1.247 . S
O35 Zn27 1.906 . S
O35 C43 1.304 . S
O36 Zn24 1.924 . S
O36 C44 1.311 . S
O37 Zn28 1.977 . S
O37 C43 1.272 . S
O38 Zn28 1.910 . S
O38 C44 1.231 . S
C39 O23 1.225 . S
C39 O45 1.298 . S
C40 O29 1.226 . S
C40 O30 1.307 . S
C41 O33 1.303 . S
C41 O34 1.247 . S
C42 O31 1.253 . S
C42 O32 1.283 . S
C43 O35 1.304 . S
C43 O37 1.272 . S
C44 O36 1.311 . S
C44 O38 1.231 . S
O45 Zn27 1.953 . S
O45 C39 1.298 . S
O46 Zn47 1.953 . S
O46 C62 1.225 . S
Zn47 O46 1.953 . S
Zn47 O48 1.949 . S
Zn47 O54 1.919 . S
Zn47 O59 1.924 . S
O48 Zn47 1.949 . S
O48 Zn49 1.923 . S
O48 Zn50 1.950 . S
O48 Zn51 1.945 . S
Zn49 O48 1.923 . S
Zn49 O52 1.933 . S
Zn49 O55 1.941 . S
Zn49 O56 1.965 . S
Zn50 O48 1.950 . S
Zn50 O57 1.938 . S
Zn50 O58 1.906 . S
Zn50 O68 1.953 . S
Zn51 O48 1.945 . S
Zn51 O53 1.932 . S
Zn51 O60 1.977 . S
Zn51 O61 1.910 . S
O52 Zn49 1.933 . S
O52 C63 1.226 . S
O53 Zn51 1.932 . S
O53 C63 1.307 . S
O54 Zn47 1.919 . S
O54 C65 1.253 . S
O55 Zn49 1.941 . S
O55 C65 1.283 . S
O56 Zn49 1.965 . S
O56 C64 1.303 . S
O57 Zn50 1.938 . S
O57 C64 1.247 . S
O58 Zn50 1.906 . S
O58 C66 1.284 1_655 S
O59 Zn47 1.924 . S
O59 C67 1.311 . S
O60 Zn51 1.977 . S
O60 C66 1.267 1_655 S
O61 Zn51 1.910 . S
O61 C67 1.231 . S
C62 O46 1.225 . S
C62 O68 1.298 . S
C63 O52 1.226 . S
C63 O53 1.307 . S
C64 O56 1.303 . S
C64 O57 1.247 . S
C65 O54 1.253 . S
C65 O55 1.283 . S
C66 O58 1.284 1_455 S
C66 O60 1.267 1_455 S
C67 O59 1.311 . S
C67 O61 1.231 . S
O68 Zn50 1.953 . S
O68 C62 1.298 . S
O69 Zn70 1.953 . S
O69 C85 1.225 . S
Zn70 O69 1.953 . S
Zn70 O71 1.949 . S
Zn70 O77 1.919 . S
Zn70 O82 1.924 . S
O71 Zn70 1.949 . S
O71 Zn72 1.923 . S
O71 Zn73 1.950 . S
O71 Zn74 1.945 . S
Zn72 O71 1.923 . S
Zn72 O75 1.933 . S
Zn72 O78 1.941 . S
Zn72 O79 1.965 . S
Zn73 O71 1.950 . S
Zn73 O80 1.938 . S
Zn73 O81 1.906 . S
Zn73 O91 1.953 . S
Zn74 O71 1.945 . S
Zn74 O76 1.932 . S
Zn74 O83 1.977 . S
Zn74 O84 1.910 . S
O75 Zn72 1.933 . S
O75 C86 1.226 . S
O76 Zn74 1.932 . S
O76 C86 1.307 . S
O77 Zn70 1.919 . S
O77 C88 1.253 . S
O78 Zn72 1.941 . S
O78 C88 1.283 . S
O79 Zn72 1.965 . S
O79 C87 1.303 . S
O80 Zn73 1.938 . S
O80 C87 1.247 . S
O81 Zn73 1.906 . S
O81 C89 1.304 . S
O82 Zn70 1.924 . S
O82 C90 1.311 . S
O83 Zn74 1.977 . S
O83 C89 1.272 . S
O84 Zn74 1.910 . S
O84 C90 1.231 . S
C85 O69 1.225 . S
C85 O91 1.298 . S
C86 O75 1.226 . S
C86 O76 1.307 . S
C87 O79 1.303 . S
C87 O80 1.247 . S
C88 O77 1.253 . S
C88 O78 1.283 . S
C89 O81 1.304 . S
C89 O83 1.272 . S
C90 O82 1.311 . S
C90 O84 1.231 . S
O91 Zn73 1.953 . S
O91 C85 1.298 . S
O92 Zn93 1.953 . S
O92 C108 1.225 . S
Zn93 O92 1.953 . S
Zn93 O94 1.949 . S
Zn93 O100 1.919 . S
Zn93 O105 1.924 . S
O94 Zn93 1.949 . S
O94 Zn95 1.923 . S
O94 Zn96 1.950 . S
O94 Zn97 1.945 . S
Zn95 O94 1.923 . S
Zn95 O98 1.933 . S
Zn95 O101 1.941 . S
Zn95 O102 1.965 . S
Zn96 O94 1.950 . S
Zn96 O103 1.938 . S
Zn96 O104 1.906 . S
Zn96 O114 1.953 . S
Zn97 O94 1.945 . S
Zn97 O99 1.932 . S
Zn97 O106 1.977 . S
Zn97 O107 1.910 . S
O98 Zn95 1.933 . S
O98 C109 1.226 . S
O99 Zn97 1.932 . S
O99 C109 1.307 . S
O100 Zn93 1.919 . S
O100 C111 1.253 . S
O101 Zn95 1.941 . S
O101 C111 1.283 . S
O102 Zn95 1.965 . S
O102 C110 1.303 . S
O103 Zn96 1.938 . S
O103 C110 1.247 . S
O104 Zn96 1.906 . S
O104 C112 1.304 . S
O105 Zn93 1.924 . S
O105 C113 1.311 . S
O106 Zn97 1.977 . S
O106 C112 1.272 . S
O107 Zn97 1.910 . S
O107 C113 1.231 . S
C108 O92 1.225 . S
C108 O114 1.298 . S
C109 O98 1.226 . S
C109 O99 1.307 . S
C110 O102 1.303 . S
C110 O103 1.247 . S
C111 O100 1.253 . S
C111 O101 1.283 . S
C112 O104 1.304 . S
C112 O106 1.272 . S
C113 O105 1.311 . S
C113 O107 1.231 . S
O114 Zn96 1.953 . S
O114 C108 1.298 . S
O115 Zn116 1.953 . S
O115 C131 1.225 . S
Zn116 O115 1.953 . S
Zn116 O117 1.949 . S
Zn116 O123 1.919 . S
Zn116 O128 1.924 . S
O117 Zn116 1.949 . S
O117 Zn118 1.923 . S
O117 Zn119 1.950 . S
O117 Zn120 1.945 . S
Zn118 O117 1.923 . S
Zn118 O121 1.933 . S
Zn118 O124 1.941 . S
Zn118 O125 1.965 . S
Zn119 O117 1.950 . S
Zn119 O126 1.938 . S
Zn119 O127 1.906 . S
Zn119 O137 1.953 . S
Zn120 O117 1.945 . S
Zn120 O122 1.932 . S
Zn120 O129 1.977 . S
Zn120 O130 1.910 . S
O121 Zn118 1.933 . S
O121 C132 1.226 . S
O122 Zn120 1.932 . S
O122 C132 1.307 . S
O123 Zn116 1.919 . S
O123 C134 1.253 . S
O124 Zn118 1.941 . S
O124 C134 1.283 . S
O125 Zn118 1.965 . S
O125 C133 1.303 . S
O126 Zn119 1.938 . S
O126 C133 1.247 . S
O127 Zn119 1.906 . S
O127 C135 1.304 . S
O128 Zn116 1.924 . S
O128 C136 1.311 . S
O129 Zn120 1.977 . S
O129 C135 1.272 . S
O130 Zn120 1.910 . S
O130 C136 1.231 . S
C131 O115 1.225 . S
C131 O137 1.298 . S
C132 O121 1.226 . S
C132 O122 1.307 . S
C133 O125 1.303 . S
C133 O126 1.247 . S
C134 O123 1.253 . S
C134 O124 1.283 . S
C135 O127 1.304 . S
C135 O129 1.272 . S
C136 O128 1.311 . S
C136 O130 1.231 . S
O137 Zn119 1.953 . S
O137 C131 1.298 . S
O138 Zn139 1.953 . S
O138 C154 1.225 . S
Zn139 O138 1.953 . S
Zn139 O140 1.949 . S
Zn139 O146 1.919 . S
Zn139 O151 1.924 . S
O140 Zn139 1.949 . S
O140 Zn141 1.923 . S
O140 Zn142 1.950 . S
O140 Zn143 1.945 . S
Zn141 O140 1.923 . S
Zn141 O144 1.933 . S
Zn141 O147 1.941 . S
Zn141 O148 1.965 . S
Zn142 O140 1.950 . S
Zn142 O149 1.938 . S
Zn142 O150 1.906 . S
Zn142 O160 1.953 . S
Zn143 O140 1.945 . S
Zn143 O145 1.932 . S
Zn143 O152 1.977 . S
Zn143 O153 1.910 . S
O144 Zn141 1.933 . S
O144 C155 1.226 . S
O145 Zn143 1.932 . S
O145 C155 1.307 . S
O146 Zn139 1.919 . S
O146 C157 1.253 . S
O147 Zn141 1.941 . S
O147 C157 1.283 . S
O148 Zn141 1.965 . S
O148 C156 1.303 . S
O149 Zn142 1.938 . S
O149 C156 1.247 . S
O150 Zn142 1.906 . S
O150 C158 1.304 . S
O151 Zn139 1.924 . S
O151 C159 1.311 . S
O152 Zn143 1.977 . S
O152 C158 1.272 . S
O153 Zn143 1.910 . S
O153 C159 1.231 . S
C154 O138 1.225 . S
C154 O160 1.298 . S
C155 O144 1.226 . S
C155 O145 1.307 . S
C156 O148 1.303 . S
C156 O149 1.247 . S
C157 O146 1.253 . S
C157 O147 1.283 . S
C158 O150 1.304 . S
C158 O152 1.272 . S
C159 O151 1.311 . S
C159 O153 1.231 . S
O160 Zn142 1.953 . S
O160 C154 1.298 . S
O161 Zn162 1.953 . S
O161 C177 1.225 . S
Zn162 O161 1.953 . S
Zn162 O163 1.949 . S
Zn162 O169 1.919 . S
Zn162 O174 1.924 . S
O163 Zn162 1.949 . S
O163 Zn164 1.923 . S
O163 Zn165 1.950 . S
O163 Zn166 1.945 . S
Zn164 O163 1.923 . S
Zn164 O167 1.933 . S
Zn164 O170 1.941 . S
Zn164 O171 1.965 . S
Zn165 O163 1.950 . S
Zn165 O172 1.938 . S
Zn165 O173 1.906 . S
Zn165 O183 1.953 . S
Zn166 O163 1.945 . S
Zn166 O168 1.932 . S
Zn166 O175 1.977 . S
Zn166 O176 1.910 . S
O167 Zn164 1.933 . S
O167 C178 1.226 . S
O168 Zn166 1.932 . S
O168 C178 1.307 . S
O169 Zn162 1.919 . S
O169 C180 1.253 . S
O170 Zn164 1.941 . S
O170 C180 1.283 . S
O171 Zn164 1.965 . S
O171 C179 1.303 . S
O172 Zn165 1.938 . S
O172 C179 1.247 . S
O173 Zn165 1.906 . S
O173 C181 1.304 . S
O174 Zn162 1.924 . S
O174 C182 1.311 . S
O175 Zn166 1.977 . S
O175 C181 1.272 . S
O176 Zn166 1.910 . S
O176 C182 1.231 . S
C177 O161 1.225 . S
C177 O183 1.298 . S
C178 O167 1.226 . S
C178 O168 1.307 . S
C179 O171 1.303 . S
C179 O172 1.247 . S
C180 O169 1.253 . S
C180 O170 1.283 . S
C181 O173 1.304 . S
C181 O175 1.272 . S
C182 O174 1.311 . S
C182 O176 1.231 . S
O183 Zn165 1.953 . S
O183 C177 1.298 . S
O184 Zn185 1.953 . S
O184 C200 1.225 . S
Zn185 O184 1.953 . S
Zn185 O186 1.949 . S
Zn185 O192 1.919 . S
Zn185 O197 1.924 . S
O186 Zn185 1.949 . S
O186 Zn187 1.923 . S
O186 Zn188 1.950 . S
O186 Zn189 1.945 . S
Zn187 O186 1.923 . S
Zn187 O190 1.933 . S
Zn187 O193 1.941 . S
Zn187 O194 1.965 . S
Zn188 O186 1.950 . S
Zn188 O195 1.938 . S
Zn188 O196 1.906 . S
Zn188 O206 1.953 . S
Zn189 O186 1.945 . S
Zn189 O191 1.932 . S
Zn189 O198 1.977 . S
Zn189 O199 1.910 . S
O190 Zn187 1.933 . S
O190 C201 1.226 . S
O191 Zn189 1.932 . S
O191 C201 1.307 . S
O192 Zn185 1.919 . S
O192 C203 1.253 . S
O193 Zn187 1.941 . S
O193 C203 1.283 . S
O194 Zn187 1.965 . S
O194 C202 1.303 . S
O195 Zn188 1.938 . S
O195 C202 1.247 . S
O196 Zn188 1.906 . S
O196 C204 1.304 . S
O197 Zn185 1.924 . S
O197 C205 1.311 . S
O198 Zn189 1.977 . S
O198 C204 1.272 . S
O199 Zn189 1.910 . S
O199 C205 1.231 . S
C200 O184 1.225 . S
C200 O206 1.298 . S
C201 O190 1.226 . S
C201 O191 1.307 . S
C202 O194 1.303 . S
C202 O195 1.247 . S
C203 O192 1.253 . S
C203 O193 1.283 . S
C204 O196 1.304 . S
C204 O198 1.272 . S
C205 O197 1.311 . S
C205 O199 1.231 . S
O206 Zn188 1.953 . S
O206 C200 1.298 . S
O207 Zn208 1.953 . S
O207 C223 1.225 . S
Zn208 O207 1.953 . S
Zn208 O209 1.949 . S
Zn208 O215 1.919 . S
Zn208 O220 1.924 . S
O209 Zn208 1.949 . S
O209 Zn210 1.923 . S
O209 Zn211 1.950 . S
O209 Zn212 1.945 . S
Zn210 O209 1.923 . S
Zn210 O213 1.933 . S
Zn210 O216 1.941 . S
Zn210 O217 1.965 . S
Zn211 O209 1.950 . S
Zn211 O218 1.938 . S
Zn211 O219 1.906 . S
Zn211 O229 1.953 . S
Zn212 O209 1.945 . S
Zn212 O214 1.932 . S
Zn212 O221 1.977 . S
Zn212 O222 1.910 . S
O213 Zn210 1.933 . S
O213 C224 1.226 . S
O214 Zn212 1.932 . S
O214 C224 1.307 . S
O215 Zn208 1.919 . S
O215 C226 1.253 . S
O216 Zn210 1.941 . S
O216 C226 1.283 . S
O217 Zn210 1.965 . S
O217 C225 1.303 . S
O218 Zn211 1.938 . S
O218 C225 1.247 . S
O219 Zn211 1.906 . S
O219 C227 1.304 . S
O220 Zn208 1.924 . S
O220 C228 1.311 . S
O221 Zn212 1.977 . S
O221 C227 1.272 . S
O222 Zn212 1.910 . S
O222 C228 1.231 . S
C223 O207 1.225 . S
C223 O229 1.298 . S
C224 O213 1.226 . S
C224 O214 1.307 . S
C225 O217 1.303 . S
C225 O218 1.247 . S
C226 O215 1.253 . S
C226 O216 1.283 . S
C227 O219 1.304 . S
C227 O221 1.272 . S
C228 O220 1.311 . S
C228 O222 1.231 . S
O229 Zn211 1.953 . S
O229 C223 1.298 . S
O230 Zn231 1.953 . S
O230 C246 1.225 . S
Zn231 O230 1.953 . S
Zn231 O232 1.949 . S
Zn231 O238 1.919 . S
Zn231 O243 1.924 . S
O232 Zn231 1.949 . S
O232 Zn233 1.923 . S
O232 Zn234 1.950 . S
O232 Zn235 1.945 . S
Zn233 O232 1.923 . S
Zn233 O236 1.933 . S
Zn233 O239 1.941 . S
Zn233 O240 1.965 . S
Zn234 O232 1.950 . S
Zn234 O241 1.938 . S
Zn234 O242 1.906 . S
Zn234 O252 1.953 . S
Zn235 O232 1.945 . S
Zn235 O237 1.932 . S
Zn235 O244 1.977 . S
Zn235 O245 1.910 . S
O236 Zn233 1.933 . S
O236 C247 1.226 . S
O237 Zn235 1.932 . S
O237 C247 1.307 . S
O238 Zn231 1.919 . S
O238 C249 1.253 . S
O239 Zn233 1.941 . S
O239 C249 1.283 . S
O240 Zn233 1.965 . S
O240 C248 1.303 . S
O241 Zn234 1.938 . S
O241 C248 1.247 . S
O242 Zn234 1.906 . S
O242 C250 1.285 1_455 S
O243 Zn231 1.924 . S
O243 C251 1.311 . S
O244 Zn235 1.977 . S
O244 C250 1.267 1_455 S
O245 Zn235 1.910 . S
O245 C251 1.231 . S
C246 O230 1.225 . S
C246 O252 1.298 . S
C247 O236 1.226 . S
C247 O237 1.307 . S
C248 O240 1.303 . S
C248 O241 1.247 . S
C249 O238 1.253 . S
C249 O239 1.283 . S
C250 O242 1.285 1_655 S
C250 O244 1.267 1_655 S
C251 O243 1.311 . S
C251 O245 1.231 . S
O252 Zn234 1.953 . S
O252 C246 1.298 . S
O253 Zn254 1.953 . S
O253 C269 1.225 . S
Zn254 O253 1.953 . S
Zn254 O255 1.949 . S
Zn254 O261 1.919 . S
Zn254 O266 1.924 . S
O255 Zn254 1.949 . S
O255 Zn256 1.923 . S
O255 Zn257 1.950 . S
O255 Zn258 1.945 . S
Zn256 O255 1.923 . S
Zn256 O259 1.933 . S
Zn256 O262 1.941 . S
Zn256 O263 1.965 . S
Zn257 O255 1.950 . S
Zn257 O264 1.938 . S
Zn257 O265 1.906 . S
Zn257 O275 1.953 . S
Zn258 O255 1.945 . S
Zn258 O260 1.932 . S
Zn258 O267 1.977 . S
Zn258 O268 1.910 . S
O259 Zn256 1.933 . S
O259 C270 1.226 . S
O260 Zn258 1.932 . S
O260 C270 1.307 . S
O261 Zn254 1.919 . S
O261 C272 1.253 . S
O262 Zn256 1.941 . S
O262 C272 1.283 . S
O263 Zn256 1.965 . S
O263 C271 1.303 . S
O264 Zn257 1.938 . S
O264 C271 1.247 . S
O265 Zn257 1.906 . S
O265 C273 1.295 1_545 S
O266 Zn254 1.924 . S
O266 C274 1.311 . S
O267 Zn258 1.977 . S
O267 C273 1.269 1_545 S
O268 Zn258 1.910 . S
O268 C274 1.231 . S
C269 O253 1.225 . S
C269 O275 1.298 . S
C270 O259 1.226 . S
C270 O260 1.307 . S
C271 O263 1.303 . S
C271 O264 1.247 . S
C272 O261 1.253 . S
C272 O262 1.283 . S
C273 O265 1.295 1_565 S
C273 O267 1.269 1_565 S
C274 O266 1.311 . S
C274 O268 1.231 . S
O275 Zn257 1.953 . S
O275 C269 1.298 . S
O276 Zn277 1.953 . S
O276 C292 1.225 . S
Zn277 O276 1.953 . S
Zn277 O278 1.949 . S
Zn277 O284 1.919 . S
Zn277 O289 1.924 . S
O278 Zn277 1.949 . S
O278 Zn279 1.923 . S
O278 Zn280 1.950 . S
O278 Zn281 1.945 . S
Zn279 O278 1.923 . S
Zn279 O282 1.933 . S
Zn279 O285 1.941 . S
Zn279 O286 1.965 . S
Zn280 O278 1.950 . S
Zn280 O287 1.938 . S
Zn280 O288 1.906 . S
Zn280 O298 1.953 . S
Zn281 O278 1.945 . S
Zn281 O283 1.932 . S
Zn281 O290 1.977 . S
Zn281 O291 1.910 . S
O282 Zn279 1.933 . S
O282 C293 1.226 . S
O283 Zn281 1.932 . S
O283 C293 1.307 . S
O284 Zn277 1.919 . S
O284 C295 1.253 . S
O285 Zn279 1.941 . S
O285 C295 1.283 . S
O286 Zn279 1.965 . S
O286 C294 1.303 . S
O287 Zn280 1.938 . S
O287 C294 1.247 . S
O288 Zn280 1.906 . S
O288 C296 1.283 1_655 S
O289 Zn277 1.924 . S
O289 C297 1.311 . S
O290 Zn281 1.977 . S
O290 C296 1.267 1_655 S
O291 Zn281 1.910 . S
O291 C297 1.231 . S
C292 O276 1.225 . S
C292 O298 1.298 . S
C293 O282 1.226 . S
C293 O283 1.307 . S
C294 O286 1.303 . S
C294 O287 1.247 . S
C295 O284 1.253 . S
C295 O285 1.283 . S
C296 O288 1.283 1_455 S
C296 O290 1.267 1_455 S
C297 O289 1.311 . S
C297 O291 1.231 . S
O298 Zn280 1.953 . S
O298 C292 1.298 . S
O299 Zn300 1.953 . S
O299 C315 1.225 . S
Zn300 O299 1.953 . S
Zn300 O301 1.949 . S
Zn300 O307 1.919 . S
Zn300 O312 1.924 . S
O301 Zn300 1.949 . S
O301 Zn302 1.923 . S
O301 Zn303 1.950 . S
O301 Zn304 1.945 . S
Zn302 O301 1.923 . S
Zn302 O305 1.933 . S
Zn302 O308 1.941 . S
Zn302 O309 1.965 . S
Zn303 O301 1.950 . S
Zn303 O310 1.938 . S
Zn303 O311 1.906 . S
Zn303 O321 1.953 . S
Zn304 O301 1.945 . S
Zn304 O306 1.932 . S
Zn304 O313 1.977 . S
Zn304 O314 1.910 . S
O305 Zn302 1.933 . S
O305 C316 1.226 . S
O306 Zn304 1.932 . S
O306 C316 1.307 . S
O307 Zn300 1.919 . S
O307 C318 1.253 . S
O308 Zn302 1.941 . S
O308 C318 1.283 . S
O309 Zn302 1.965 . S
O309 C317 1.303 . S
O310 Zn303 1.938 . S
O310 C317 1.247 . S
O311 Zn303 1.906 . S
O311 C319 1.292 1_565 S
O312 Zn300 1.924 . S
O312 C320 1.311 . S
O313 Zn304 1.977 . S
O313 C319 1.269 1_565 S
O314 Zn304 1.910 . S
O314 C320 1.231 . S
C315 O299 1.225 . S
C315 O321 1.298 . S
C316 O305 1.226 . S
C316 O306 1.307 . S
C317 O309 1.303 . S
C317 O310 1.247 . S
C318 O307 1.253 . S
C318 O308 1.283 . S
C319 O311 1.292 1_545 S
C319 O313 1.269 1_545 S
C320 O312 1.311 . S
C320 O314 1.231 . S
O321 Zn303 1.953 . S
O321 C315 1.298 . S
O322 Zn323 1.953 . S
O322 C338 1.225 . S
Zn323 O322 1.953 . S
Zn323 O324 1.949 . S
Zn323 O330 1.919 . S
Zn323 O335 1.924 . S
O324 Zn323 1.949 . S
O324 Zn325 1.923 . S
O324 Zn326 1.950 . S
O324 Zn327 1.945 . S
Zn325 O324 1.923 . S
Zn325 O328 1.933 . S
Zn325 O331 1.941 . S
Zn325 O332 1.965 . S
Zn326 O324 1.950 . S
Zn326 O333 1.938 . S
Zn326 O334 1.906 . S
Zn326 O344 1.953 . S
Zn327 O324 1.945 . S
Zn327 O329 1.932 . S
Zn327 O336 1.977 . S
Zn327 O337 1.910 . S
O328 Zn325 1.933 . S
O328 C339 1.226 . S
O329 Zn327 1.932 . S
O329 C339 1.307 . S
O330 Zn323 1.919 . S
O330 C341 1.253 . S
O331 Zn325 1.941 . S
O331 C341 1.283 . S
O332 Zn325 1.965 . S
O332 C340 1.303 . S
O333 Zn326 1.938 . S
O333 C340 1.247 . S
O334 Zn326 1.906 . S
O334 C342 1.304 . S
O335 Zn323 1.924 . S
O335 C343 1.311 . S
O336 Zn327 1.977 . S
O336 C342 1.272 . S
O337 Zn327 1.910 . S
O337 C343 1.231 . S
C338 O322 1.225 . S
C338 O344 1.298 . S
C339 O328 1.226 . S
C339 O329 1.307 . S
C340 O332 1.303 . S
C340 O333 1.247 . S
C341 O330 1.253 . S
C341 O331 1.283 . S
C342 O334 1.304 . S
C342 O336 1.272 . S
C343 O335 1.311 . S
C343 O337 1.231 . S
O344 Zn326 1.953 . S
O344 C338 1.298 . S
O345 Zn346 1.953 . S
O345 C361 1.225 . S
Zn346 O345 1.953 . S
Zn346 O347 1.949 . S
Zn346 O353 1.919 . S
Zn346 O358 1.924 . S
O347 Zn346 1.949 . S
O347 Zn348 1.923 . S
O347 Zn349 1.950 . S
O347 Zn350 1.945 . S
Zn348 O347 1.923 . S
Zn348 O351 1.933 . S
Zn348 O354 1.941 . S
Zn348 O355 1.965 . S
Zn349 O347 1.950 . S
Zn349 O356 1.938 . S
Zn349 O357 1.906 . S
Zn349 O367 1.953 . S
Zn350 O347 1.945 . S
Zn350 O352 1.932 . S
Zn350 O359 1.977 . S
Zn350 O360 1.910 . S
O351 Zn348 1.933 . S
O351 C362 1.226 . S
O352 Zn350 1.932 . S
O352 C362 1.307 . S
O353 Zn346 1.919 . S
O353 C364 1.253 . S
O354 Zn348 1.941 . S
O354 C364 1.283 . S
O355 Zn348 1.965 . S
O355 C363 1.303 . S
O356 Zn349 1.938 . S
O356 C363 1.247 . S
O357 Zn349 1.906 . S
O357 C365 1.304 . S
O358 Zn346 1.924 . S
O358 C366 1.311 . S
O359 Zn350 1.977 . S
O359 C365 1.272 . S
O360 Zn350 1.910 . S
O360 C366 1.231 . S
C361 O345 1.225 . S
C361 O367 1.298 . S
C362 O351 1.226 . S
C362 O352 1.307 . S
C363 O355 1.303 . S
C363 O356 1.247 . S
C364 O353 1.253 . S
C364 O354 1.283 . S
C365 O357 1.304 . S
C365 O359 1.272 . S
C366 O358 1.311 . S
C366 O360 1.231 . S
O367 Zn349 1.953 . S
O367 C361 1.298 . S
H368 C386 0.951 . S
H369 C388 0.951 . S
H370 C390 0.950 . S
H371 C391 0.950 . S
H372 C393 0.950 . S
H373 C396 0.950 . S
H374 C397 0.950 . S
H375 C399 0.950 . S
H376 C400 0.950 . S
H377 C401 0.951 . S
H378 C403 0.951 . S
H379 C405 0.950 . S
H380 C406 0.950 . S
H381 C408 0.950 . S
H382 C411 0.950 . S
H383 C412 0.950 . S
H384 C414 0.950 . S
H385 C415 0.950 . S
C386 H368 0.951 . S
C386 C387 1.366 . S
C386 C388 1.388 . S
C387 C386 1.366 . S
C387 C391 1.385 . S
C388 H369 0.951 . S
C388 C386 1.388 . S
C388 C389 1.366 . S
C389 C388 1.366 . S
C389 C390 1.414 . S
C389 C392 1.499 . S
C390 H370 0.950 . S
C390 C389 1.414 . S
C390 C391 1.374 . S
C391 H371 0.950 . S
C391 C387 1.385 . S
C391 C390 1.374 . S
C392 C389 1.499 . S
C392 C393 1.373 . S
C392 C394 1.389 . S
C393 H372 0.950 . S
C393 C392 1.373 . S
C393 C409 1.377 . S
C394 C392 1.389 . S
C394 C395 1.524 . S
C394 C408 1.377 . S
C395 C394 1.524 . S
C395 C396 1.397 . S
C395 C400 1.363 . S
C396 H373 0.950 . S
C396 C395 1.397 . S
C396 C397 1.334 . S
C397 H374 0.950 . S
C397 C396 1.334 . S
C397 C398 1.287 . S
C398 C397 1.287 . S
C398 C399 1.524 . S
C398 H417 0.913 . S
C399 H375 0.950 . S
C399 C398 1.524 . S
C399 C400 1.415 . S
C400 H376 0.950 . S
C400 C395 1.363 . S
C400 C399 1.415 . S
C401 H377 0.951 . S
C401 C402 1.366 . S
C401 C403 1.388 . S
C402 C401 1.366 . S
C402 C406 1.385 . S
C403 H378 0.951 . S
C403 C401 1.388 . S
C403 C404 1.366 . S
C404 C403 1.366 . S
C404 C405 1.414 . S
C404 C407 1.499 . S
C405 H379 0.950 . S
C405 C404 1.414 . S
C405 C406 1.374 . S
C406 H380 0.950 . S
C406 C402 1.385 . S
C406 C405 1.374 . S
C407 C404 1.499 . S
C407 C408 1.373 . S
C407 C409 1.389 . S
C408 H381 0.950 . S
C408 C394 1.377 . S
C408 C407 1.373 . S
C409 C393 1.377 . S
C409 C407 1.389 . S
C409 C410 1.524 . S
C410 C409 1.524 . S
C410 C411 1.397 . S
C410 C415 1.363 . S
C411 H382 0.950 . S
C411 C410 1.397 . S
C411 C412 1.334 . S
C412 H383 0.950 . S
C412 C411 1.334 . S
C412 C413 1.287 . S
C413 C412 1.287 . S
C413 C414 1.524 . S
C413 H416 0.999 . S
C414 H384 0.950 . S
C414 C413 1.524 . S
C414 C415 1.415 . S
C415 H385 0.950 . S
C415 C410 1.363 . S
C415 C414 1.415 . S
H416 C413 0.999 . S
H417 C398 0.913 . S
H418 C436 0.951 . S
H419 C438 0.951 . S
H420 C440 0.950 . S
H421 C441 0.950 . S
H422 C443 0.950 . S
H423 C446 0.950 . S
H424 C447 0.950 . S
H425 C449 0.950 . S
H426 C450 0.950 . S
H427 C451 0.951 . S
H428 C453 0.951 . S
H429 C455 0.950 . S
H430 C456 0.950 . S
H431 C458 0.950 . S
H432 C461 0.950 . S
H433 C462 0.950 . S
H434 C464 0.950 . S
H435 C465 0.950 . S
C436 H418 0.951 . S
C436 C437 1.366 . S
C436 C438 1.388 . S
C437 C436 1.366 . S
C437 C441 1.385 . S
C438 H419 0.951 . S
C438 C436 1.388 . S
C438 C439 1.366 . S
C439 C438 1.366 . S
C439 C440 1.414 . S
C439 C442 1.499 . S
C440 H420 0.950 . S
C440 C439 1.414 . S
C440 C441 1.374 . S
C441 H421 0.950 . S
C441 C437 1.385 . S
C441 C440 1.374 . S
C442 C439 1.499 . S
C442 C443 1.373 . S
C442 C444 1.389 . S
C443 H422 0.950 . S
C443 C442 1.373 . S
C443 C459 1.377 . S
C444 C442 1.389 . S
C444 C445 1.524 . S
C444 C458 1.377 . S
C445 C444 1.524 . S
C445 C446 1.397 . S
C445 C450 1.363 . S
C446 H423 0.950 . S
C446 C445 1.397 . S
C446 C447 1.334 . S
C447 H424 0.950 . S
C447 C446 1.334 . S
C447 C448 1.287 . S
C448 C447 1.287 . S
C448 C449 1.524 . S
C448 H467 0.913 . S
C449 H425 0.950 . S
C449 C448 1.524 . S
C449 C450 1.415 . S
C450 H426 0.950 . S
C450 C445 1.363 . S
C450 C449 1.415 . S
C451 H427 0.951 . S
C451 C452 1.366 . S
C451 C453 1.388 . S
C452 C451 1.366 . S
C452 C456 1.385 . S
C453 H428 0.951 . S
C453 C451 1.388 . S
C453 C454 1.366 . S
C454 C453 1.366 . S
C454 C455 1.414 . S
C454 C457 1.499 . S
C455 H429 0.950 . S
C455 C454 1.414 . S
C455 C456 1.374 . S
C456 H430 0.950 . S
C456 C452 1.385 . S
C456 C455 1.374 . S
C457 C454 1.499 . S
C457 C458 1.373 . S
C457 C459 1.389 . S
C458 H431 0.950 . S
C458 C444 1.377 . S
C458 C457 1.373 . S
C459 C443 1.377 . S
C459 C457 1.389 . S
C459 C460 1.524 . S
C460 C459 1.524 . S
C460 C461 1.397 . S
C460 C465 1.363 . S
C461 H432 0.950 . S
C461 C460 1.397 . S
C461 C462 1.334 . S
C462 H433 0.950 . S
C462 C461 1.334 . S
C462 C463 1.287 . S
C463 C462 1.287 . S
C463 C464 1.524 . S
C463 H466 0.999 . S
C464 H434 0.950 . S
C464 C463 1.524 . S
C464 C465 1.415 . S
C465 H435 0.950 . S
C465 C460 1.363 . S
C465 C464 1.415 . S
H466 C463 0.999 . S
H467 C448 0.913 . S
H468 C486 0.951 . S
H469 C488 0.951 . S
H470 C490 0.950 . S
H471 C491 0.950 . S
H472 C493 0.950 . S
H473 C496 0.950 . S
H474 C497 0.950 . S
H475 C499 0.950 . S
H476 C500 0.950 . S
H477 C501 0.951 . S
H478 C503 0.951 . S
H479 C505 0.950 . S
H480 C506 0.950 . S
H481 C508 0.950 . S
H482 C511 0.950 . S
H483 C512 0.950 . S
H484 C514 0.950 . S
H485 C515 0.950 . S
C486 H468 0.951 . S
C486 C487 1.366 . S
C486 C488 1.388 . S
C487 C486 1.366 . S
C487 C491 1.385 . S
C488 H469 0.951 . S
C488 C486 1.388 . S
C488 C489 1.366 . S
C489 C488 1.366 . S
C489 C490 1.414 . S
C489 C492 1.499 . S
C490 H470 0.950 . S
C490 C489 1.414 . S
C490 C491 1.374 . S
C491 H471 0.950 . S
C491 C487 1.385 . S
C491 C490 1.374 . S
C492 C489 1.499 . S
C492 C493 1.373 . S
C492 C494 1.389 . S
C493 H472 0.950 . S
C493 C492 1.373 . S
C493 C509 1.377 . S
C494 C492 1.389 . S
C494 C495 1.524 . S
C494 C508 1.377 . S
C495 C494 1.524 . S
C495 C496 1.397 . S
C495 C500 1.363 . S
C496 H473 0.950 . S
C496 C495 1.397 . S
C496 C497 1.334 . S
C497 H474 0.950 . S
C497 C496 1.334 . S
C497 C498 1.287 . S
C498 C497 1.287 . S
C498 C499 1.524 . S
C498 H517 0.913 . S
C499 H475 0.950 . S
C499 C498 1.524 . S
C499 C500 1.415 . S
C500 H476 0.950 . S
C500 C495 1.363 . S
C500 C499 1.415 . S
C501 H477 0.951 . S
C501 C502 1.366 . S
C501 C503 1.388 . S
C502 C501 1.366 . S
C502 C506 1.385 . S
C503 H478 0.951 . S
C503 C501 1.388 . S
C503 C504 1.366 . S
C504 C503 1.366 . S
C504 C505 1.414 . S
C504 C507 1.499 . S
C505 H479 0.950 . S
C505 C504 1.414 . S
C505 C506 1.374 . S
C506 H480 0.950 . S
C506 C502 1.385 . S
C506 C505 1.374 . S
C507 C504 1.499 . S
C507 C508 1.373 . S
C507 C509 1.389 . S
C508 H481 0.950 . S
C508 C494 1.377 . S
C508 C507 1.373 . S
C509 C493 1.377 . S
C509 C507 1.389 . S
C509 C510 1.524 . S
C510 C509 1.524 . S
C510 C511 1.397 . S
C510 C515 1.363 . S
C511 H482 0.950 . S
C511 C510 1.397 . S
C511 C512 1.334 . S
C512 H483 0.950 . S
C512 C511 1.334 . S
C512 C513 1.287 . S
C513 C512 1.287 . S
C513 C514 1.524 . S
C513 H516 0.999 . S
C514 H484 0.950 . S
C514 C513 1.524 . S
C514 C515 1.415 . S
C515 H485 0.950 . S
C515 C510 1.363 . S
C515 C514 1.415 . S
H516 C513 0.999 . S
H517 C498 0.913 . S
H518 C536 0.951 . S
H519 C538 0.951 . S
H520 C540 0.950 . S
H521 C541 0.950 . S
H522 C543 0.950 . S
H523 C546 0.950 . S
H524 C547 0.950 . S
H525 C549 0.950 . S
H526 C550 0.950 . S
H527 C551 0.951 . S
H528 C553 0.951 . S
H529 C555 0.950 . S
H530 C556 0.950 . S
H531 C558 0.950 . S
H532 C561 0.950 . S
H533 C562 0.947 1_655 S
H534 C564 0.950 . S
H535 C565 0.950 . S
C536 H518 0.951 . S
C536 C537 1.366 . S
C536 C538 1.388 . S
C537 C536 1.366 . S
C537 C541 1.385 . S
C538 H519 0.951 . S
C538 C536 1.388 . S
C538 C539 1.366 . S
C539 C538 1.366 . S
C539 C540 1.414 . S
C539 C542 1.499 . S
C540 H520 0.950 . S
C540 C539 1.414 . S
C540 C541 1.374 . S
C541 H521 0.950 . S
C541 C537 1.385 . S
C541 C540 1.374 . S
C542 C539 1.499 . S
C542 C543 1.373 . S
C542 C544 1.389 . S
C543 H522 0.950 . S
C543 C542 1.373 . S
C543 C559 1.377 . S
C544 C542 1.389 . S
C544 C545 1.524 . S
C544 C558 1.377 . S
C545 C544 1.524 . S
C545 C546 1.397 . S
C545 C550 1.363 . S
C546 H523 0.950 . S
C546 C545 1.397 . S
C546 C547 1.334 . S
C547 H524 0.950 . S
C547 C546 1.334 . S
C547 C548 1.287 . S
C548 C547 1.287 . S
C548 C549 1.524 . S
C548 H567 0.913 . S
C549 H525 0.950 . S
C549 C548 1.524 . S
C549 C550 1.415 . S
C550 H526 0.950 . S
C550 C545 1.363 . S
C550 C549 1.415 . S
C551 H527 0.951 . S
C551 C552 1.366 . S
C551 C553 1.388 . S
C552 C551 1.366 . S
C552 C556 1.385 . S
C553 H528 0.951 . S
C553 C551 1.388 . S
C553 C554 1.366 . S
C554 C553 1.366 . S
C554 C555 1.414 . S
C554 C557 1.499 . S
C555 H529 0.950 . S
C555 C554 1.414 . S
C555 C556 1.374 . S
C556 H530 0.950 . S
C556 C552 1.385 . S
C556 C555 1.374 . S
C557 C554 1.499 . S
C557 C558 1.373 . S
C557 C559 1.389 . S
C558 H531 0.950 . S
C558 C544 1.377 . S
C558 C557 1.373 . S
C559 C543 1.377 . S
C559 C557 1.389 . S
C559 C560 1.524 . S
C560 C559 1.524 . S
C560 C561 1.397 . S
C560 C565 1.363 . S
C561 H532 0.950 . S
C561 C560 1.397 . S
C561 C562 1.334 . S
C562 H533 0.947 1_455 S
C562 C561 1.334 . S
C562 C563 1.287 . S
C563 C562 1.287 . S
C563 C564 1.524 . S
C563 H566 0.967 1_455 S
C564 H534 0.950 . S
C564 C563 1.524 . S
C564 C565 1.415 . S
C565 H535 0.950 . S
C565 C560 1.363 . S
C565 C564 1.415 . S
H566 C563 0.967 1_655 S
H567 C548 0.913 . S
H568 C586 0.951 . S
H569 C588 0.951 . S
H570 C590 0.950 . S
H571 C591 0.950 . S
H572 C593 0.950 . S
H573 C596 0.950 . S
H574 C597 0.950 . S
H575 C599 0.950 1_545 S
H576 C600 0.950 . S
H577 C601 0.951 . S
H578 C603 0.951 . S
H579 C605 0.950 . S
H580 C606 0.950 . S
H581 C608 0.950 . S
H582 C611 0.950 . S
H583 C612 0.950 . S
H584 C614 0.950 . S
H585 C615 0.950 . S
C586 H568 0.951 . S
C586 C587 1.366 . S
C586 C588 1.388 . S
C587 C586 1.366 . S
C587 C591 1.385 . S
C588 H569 0.951 . S
C588 C586 1.388 . S
C588 C589 1.366 . S
C589 C588 1.366 . S
C589 C590 1.414 . S
C589 C592 1.499 . S
C590 H570 0.950 . S
C590 C589 1.414 . S
C590 C591 1.374 . S
C591 H571 0.950 . S
C591 C587 1.385 . S
C591 C590 1.374 . S
C592 C589 1.499 . S
C592 C593 1.373 . S
C592 C594 1.389 . S
C593 H572 0.950 . S
C593 C592 1.373 . S
C593 C609 1.377 . S
C594 C592 1.389 . S
C594 C595 1.524 . S
C594 C608 1.377 . S
C595 C594 1.524 . S
C595 C596 1.397 . S
C595 C600 1.363 . S
C596 H573 0.950 . S
C596 C595 1.397 . S
C596 C597 1.334 . S
C597 H574 0.950 . S
C597 C596 1.334 . S
C597 C598 1.287 1_565 S
C598 C597 1.287 1_545 S
C598 C599 1.524 1_545 S
C598 H617 0.913 . S
C599 H575 0.950 1_565 S
C599 C598 1.524 1_565 S
C599 C600 1.415 . S
C600 H576 0.950 . S
C600 C595 1.363 . S
C600 C599 1.415 . S
C601 H577 0.951 . S
C601 C602 1.366 . S
C601 C603 1.388 . S
C602 C601 1.366 . S
C602 C606 1.385 . S
C603 H578 0.951 . S
C603 C601 1.388 . S
C603 C604 1.366 . S
C604 C603 1.366 . S
C604 C605 1.414 . S
C604 C607 1.499 . S
C605 H579 0.950 . S
C605 C604 1.414 . S
C605 C606 1.374 . S
C606 H580 0.950 . S
C606 C602 1.385 . S
C606 C605 1.374 . S
C607 C604 1.499 . S
C607 C608 1.373 . S
C607 C609 1.389 . S
C608 H581 0.950 . S
C608 C594 1.377 . S
C608 C607 1.373 . S
C609 C593 1.377 . S
C609 C607 1.389 . S
C609 C610 1.524 . S
C610 C609 1.524 . S
C610 C611 1.397 . S
C610 C615 1.363 . S
C611 H582 0.950 . S
C611 C610 1.397 . S
C611 C612 1.334 . S
C612 H583 0.950 . S
C612 C611 1.334 . S
C612 C613 1.287 . S
C613 C612 1.287 . S
C613 C614 1.524 . S
C613 H616 0.999 . S
C614 H584 0.950 . S
C614 C613 1.524 . S
C614 C615 1.415 . S
C615 H585 0.950 . S
C615 C610 1.363 . S
C615 C614 1.415 . S
H616 C613 0.999 . S
H617 C598 0.913 . S
H618 C636 0.951 . S
H619 C638 0.951 . S
H620 C640 0.950 . S
H621 C641 0.950 . S
H622 C643 0.950 . S
H623 C646 0.950 . S
H624 C647 0.950 . S
H625 C649 0.950 . S
H626 C650 0.950 . S
H627 C651 0.951 . S
H628 C653 0.951 . S
H629 C655 0.950 . S
H630 C656 0.950 . S
H631 C658 0.950 . S
H632 C661 0.950 . S
H633 C662 0.950 . S
H634 C664 0.950 . S
H635 C665 0.950 . S
C636 H618 0.951 . S
C636 C637 1.366 . S
C636 C638 1.388 . S
C637 C636 1.366 . S
C637 C641 1.385 . S
C638 H619 0.951 . S
C638 C636 1.388 . S
C638 C639 1.366 . S
C639 C638 1.366 . S
C639 C640 1.414 . S
C639 C642 1.499 . S
C640 H620 0.950 . S
C640 C639 1.414 . S
C640 C641 1.374 . S
C641 H621 0.950 . S
C641 C637 1.385 . S
C641 C640 1.374 . S
C642 C639 1.499 . S
C642 C643 1.373 . S
C642 C644 1.389 . S
C643 H622 0.950 . S
C643 C642 1.373 . S
C643 C659 1.377 . S
C644 C642 1.389 . S
C644 C645 1.524 . S
C644 C658 1.377 . S
C645 C644 1.524 . S
C645 C646 1.397 . S
C645 C650 1.363 . S
C646 H623 0.950 . S
C646 C645 1.397 . S
C646 C647 1.334 . S
C647 H624 0.950 . S
C647 C646 1.334 . S
C647 C648 1.287 . S
C648 C647 1.287 . S
C648 C649 1.524 . S
C648 H667 0.913 . S
C649 H625 0.950 . S
C649 C648 1.524 . S
C649 C650 1.415 . S
C650 H626 0.950 . S
C650 C645 1.363 . S
C650 C649 1.415 . S
C651 H627 0.951 . S
C651 C652 1.366 . S
C651 C653 1.388 . S
C652 C651 1.366 . S
C652 C656 1.385 . S
C653 H628 0.951 . S
C653 C651 1.388 . S
C653 C654 1.366 . S
C654 C653 1.366 . S
C654 C655 1.414 . S
C654 C657 1.499 . S
C655 H629 0.950 . S
C655 C654 1.414 . S
C655 C656 1.374 . S
C656 H630 0.950 . S
C656 C652 1.385 . S
C656 C655 1.374 . S
C657 C654 1.499 . S
C657 C658 1.373 . S
C657 C659 1.389 . S
C658 H631 0.950 . S
C658 C644 1.377 . S
C658 C657 1.373 . S
C659 C643 1.377 . S
C659 C657 1.389 . S
C659 C660 1.524 . S
C660 C659 1.524 . S
C660 C661 1.397 . S
C660 C665 1.363 . S
C661 H632 0.950 . S
C661 C660 1.397 . S
C661 C662 1.334 . S
C662 H633 0.950 . S
C662 C661 1.334 . S
C662 C663 1.287 . S
C663 C662 1.287 . S
C663 C664 1.524 . S
C663 H666 0.999 . S
C664 H634 0.950 . S
C664 C663 1.524 . S
C664 C665 1.415 . S
C665 H635 0.950 . S
C665 C660 1.363 . S
C665 C664 1.415 . S
H666 C663 0.999 . S
H667 C648 0.913 . S
H668 C686 0.951 . S
H669 C688 0.951 . S
H670 C690 0.950 . S
H671 C691 0.950 . S
H672 C693 0.950 . S
H673 C696 0.950 . S
H674 C697 0.950 . S
H675 C699 0.950 . S
H676 C700 0.950 . S
H677 C701 0.951 . S
H678 C703 0.951 . S
H679 C705 0.950 . S
H680 C706 0.950 . S
H681 C708 0.950 . S
H682 C711 0.950 . S
H683 C712 0.950 . S
H684 C714 0.950 . S
H685 C715 0.950 . S
C686 H668 0.951 . S
C686 C687 1.366 . S
C686 C688 1.388 . S
C687 C686 1.366 . S
C687 C691 1.385 . S
C688 H669 0.951 . S
C688 C686 1.388 . S
C688 C689 1.366 . S
C689 C688 1.366 . S
C689 C690 1.414 . S
C689 C692 1.499 . S
C690 H670 0.950 . S
C690 C689 1.414 . S
C690 C691 1.374 . S
C691 H671 0.950 . S
C691 C687 1.385 . S
C691 C690 1.374 . S
C692 C689 1.499 . S
C692 C693 1.373 . S
C692 C694 1.389 . S
C693 H672 0.950 . S
C693 C692 1.373 . S
C693 C709 1.377 . S
C694 C692 1.389 . S
C694 C695 1.524 . S
C694 C708 1.377 . S
C695 C694 1.524 . S
C695 C696 1.397 . S
C695 C700 1.363 . S
C696 H673 0.950 . S
C696 C695 1.397 . S
C696 C697 1.334 . S
C697 H674 0.950 . S
C697 C696 1.334 . S
C697 C698 1.287 . S
C698 C697 1.287 . S
C698 C699 1.524 . S
C698 H717 0.913 . S
C699 H675 0.950 . S
C699 C698 1.524 . S
C699 C700 1.415 . S
C700 H676 0.950 . S
C700 C695 1.363 . S
C700 C699 1.415 . S
C701 H677 0.951 . S
C701 C702 1.366 . S
C701 C703 1.388 . S
C702 C701 1.366 . S
C702 C706 1.385 . S
C703 H678 0.951 . S
C703 C701 1.388 . S
C703 C704 1.366 . S
C704 C703 1.366 . S
C704 C705 1.414 . S
C704 C707 1.499 . S
C705 H679 0.950 . S
C705 C704 1.414 . S
C705 C706 1.374 . S
C706 H680 0.950 . S
C706 C702 1.385 . S
C706 C705 1.374 . S
C707 C704 1.499 . S
C707 C708 1.373 . S
C707 C709 1.389 . S
C708 H681 0.950 . S
C708 C694 1.377 . S
C708 C707 1.373 . S
C709 C693 1.377 . S
C709 C707 1.389 . S
C709 C710 1.524 . S
C710 C709 1.524 . S
C710 C711 1.397 . S
C710 C715 1.363 . S
C711 H682 0.950 . S
C711 C710 1.397 . S
C711 C712 1.334 . S
C712 H683 0.950 . S
C712 C711 1.334 . S
C712 C713 1.287 . S
C713 C712 1.287 . S
C713 C714 1.524 . S
C713 H716 0.999 . S
C714 H684 0.950 . S
C714 C713 1.524 . S
C714 C715 1.415 . S
C715 H685 0.950 . S
C715 C710 1.363 . S
C715 C714 1.415 . S
H716 C713 0.999 . S
H717 C698 0.913 . S
H718 C736 0.951 . S
H719 C738 0.951 . S
H720 C740 0.950 . S
H721 C741 0.950 . S
H722 C743 0.950 . S
H723 C746 0.950 . S
H724 C747 0.950 . S
H725 C749 0.950 . S
H726 C750 0.950 . S
H727 C751 0.951 . S
H728 C753 0.951 . S
H729 C755 0.950 . S
H730 C756 0.950 . S
H731 C758 0.950 . S
H732 C761 0.950 . S
H733 C762 0.950 . S
H734 C764 0.950 . S
H735 C765 0.950 . S
C736 H718 0.951 . S
C736 C737 1.366 . S
C736 C738 1.388 . S
C737 C736 1.366 . S
C737 C741 1.385 . S
C738 H719 0.951 . S
C738 C736 1.388 . S
C738 C739 1.366 . S
C739 C738 1.366 . S
C739 C740 1.414 . S
C739 C742 1.499 . S
C740 H720 0.950 . S
C740 C739 1.414 . S
C740 C741 1.374 . S
C741 H721 0.950 . S
C741 C737 1.385 . S
C741 C740 1.374 . S
C742 C739 1.499 . S
C742 C743 1.373 . S
C742 C744 1.389 . S
C743 H722 0.950 . S
C743 C742 1.373 . S
C743 C759 1.377 . S
C744 C742 1.389 . S
C744 C745 1.524 . S
C744 C758 1.377 . S
C745 C744 1.524 . S
C745 C746 1.397 . S
C745 C750 1.363 . S
C746 H723 0.950 . S
C746 C745 1.397 . S
C746 C747 1.334 . S
C747 H724 0.950 . S
C747 C746 1.334 . S
C747 C748 1.287 . S
C748 C747 1.287 . S
C748 C749 1.524 . S
C748 H767 0.913 . S
C749 H725 0.950 . S
C749 C748 1.524 . S
C749 C750 1.415 . S
C750 H726 0.950 . S
C750 C745 1.363 . S
C750 C749 1.415 . S
C751 H727 0.951 . S
C751 C752 1.366 . S
C751 C753 1.388 . S
C752 C751 1.366 . S
C752 C756 1.385 . S
C753 H728 0.951 . S
C753 C751 1.388 . S
C753 C754 1.366 . S
C754 C753 1.366 . S
C754 C755 1.414 . S
C754 C757 1.499 . S
C755 H729 0.950 . S
C755 C754 1.414 . S
C755 C756 1.374 . S
C756 H730 0.950 . S
C756 C752 1.385 . S
C756 C755 1.374 . S
C757 C754 1.499 . S
C757 C758 1.373 . S
C757 C759 1.389 . S
C758 H731 0.950 . S
C758 C744 1.377 . S
C758 C757 1.373 . S
C759 C743 1.377 . S
C759 C757 1.389 . S
C759 C760 1.524 . S
C760 C759 1.524 . S
C760 C761 1.397 . S
C760 C765 1.363 . S
C761 H732 0.950 . S
C761 C760 1.397 . S
C761 C762 1.334 . S
C762 H733 0.950 . S
C762 C761 1.334 . S
C762 C763 1.287 . S
C763 C762 1.287 . S
C763 C764 1.524 . S
C763 H766 0.999 . S
C764 H734 0.950 . S
C764 C763 1.524 . S
C764 C765 1.415 . S
C765 H735 0.950 . S
C765 C760 1.363 . S
C765 C764 1.415 . S
H766 C763 0.999 . S
H767 C748 0.913 . S
H768 C786 0.951 . S
H769 C788 0.951 . S
H770 C790 0.950 . S
H771 C791 0.950 . S
H772 C793 0.950 . S
H773 C796 0.950 . S
H774 C797 0.950 . S
H775 C799 0.950 . S
H776 C800 0.950 . S
H777 C801 0.951 . S
H778 C803 0.951 . S
H779 C805 0.950 . S
H780 C806 0.950 . S
H781 C808 0.950 . S
H782 C811 0.950 . S
H783 C812 0.950 . S
H784 C814 0.950 . S
H785 C815 0.950 1_545 S
C786 H768 0.951 . S
C786 C787 1.366 . S
C786 C788 1.388 . S
C787 C786 1.366 . S
C787 C791 1.385 . S
C788 H769 0.951 . S
C788 C786 1.388 . S
C788 C789 1.366 . S
C789 C788 1.366 . S
C789 C790 1.414 . S
C789 C792 1.499 . S
C790 H770 0.950 . S
C790 C789 1.414 . S
C790 C791 1.374 . S
C791 H771 0.950 . S
C791 C787 1.385 . S
C791 C790 1.374 . S
C792 C789 1.499 . S
C792 C793 1.373 . S
C792 C794 1.389 . S
C793 H772 0.950 . S
C793 C792 1.373 . S
C793 C809 1.377 . S
C794 C792 1.389 . S
C794 C795 1.524 . S
C794 C808 1.377 . S
C795 C794 1.524 . S
C795 C796 1.397 . S
C795 C800 1.363 . S
C796 H773 0.950 . S
C796 C795 1.397 . S
C796 C797 1.334 . S
C797 H774 0.950 . S
C797 C796 1.334 . S
C797 C798 1.287 . S
C798 C797 1.287 . S
C798 C799 1.524 . S
C798 H817 0.913 . S
C799 H775 0.950 . S
C799 C798 1.524 . S
C799 C800 1.415 . S
C800 H776 0.950 . S
C800 C795 1.363 . S
C800 C799 1.415 . S
C801 H777 0.951 . S
C801 C802 1.366 . S
C801 C803 1.388 1_565 S
C802 C801 1.366 . S
C802 C806 1.385 1_565 S
C803 H778 0.951 . S
C803 C801 1.388 1_545 S
C803 C804 1.366 . S
C804 C803 1.366 . S
C804 C805 1.414 . S
C804 C807 1.499 . S
C805 H779 0.950 . S
C805 C804 1.414 . S
C805 C806 1.374 . S
C806 H780 0.950 . S
C806 C802 1.385 1_545 S
C806 C805 1.374 . S
C807 C804 1.499 . S
C807 C808 1.373 . S
C807 C809 1.389 . S
C808 H781 0.950 . S
C808 C794 1.377 . S
C808 C807 1.373 . S
C809 C793 1.377 . S
C809 C807 1.389 . S
C809 C810 1.524 . S
C810 C809 1.524 . S
C810 C811 1.397 1_545 S
C810 C815 1.363 1_545 S
C811 H782 0.950 . S
C811 C810 1.397 1_565 S
C811 C812 1.334 . S
C812 H783 0.950 . S
C812 C811 1.334 . S
C812 C813 1.287 . S
C813 C812 1.287 . S
C813 C814 1.524 . S
C813 H816 0.999 . S
C814 H784 0.950 . S
C814 C813 1.524 . S
C814 C815 1.415 . S
C815 H785 0.950 1_565 S
C815 C810 1.363 1_565 S
C815 C814 1.415 . S
H816 C813 0.999 . S
H817 C798 0.913 . S
H818 C836 0.951 . S
H819 C838 0.951 . S
H820 C840 0.950 . S
H821 C841 0.950 . S
H822 C843 0.950 . S
H823 C846 0.950 . S
H824 C847 0.950 . S
H825 C849 0.950 . S
H826 C850 0.950 . S
H827 C851 0.951 . S
H828 C853 0.951 . S
H829 C855 0.950 . S
H830 C856 0.950 . S
H831 C858 0.950 . S
H832 C861 0.950 . S
H833 C862 0.950 . S
H834 C864 0.950 . S
H835 C865 0.950 . S
C836 H818 0.951 . S
C836 C837 1.366 . S
C836 C838 1.388 . S
C837 C836 1.366 . S
C837 C841 1.385 . S
C838 H819 0.951 . S
C838 C836 1.388 . S
C838 C839 1.366 . S
C839 C838 1.366 . S
C839 C840 1.414 . S
C839 C842 1.499 . S
C840 H820 0.950 . S
C840 C839 1.414 . S
C840 C841 1.374 . S
C841 H821 0.950 . S
C841 C837 1.385 . S
C841 C840 1.374 . S
C842 C839 1.499 . S
C842 C843 1.373 . S
C842 C844 1.389 . S
C843 H822 0.950 . S
C843 C842 1.373 . S
C843 C859 1.377 . S
C844 C842 1.389 . S
C844 C845 1.524 . S
C844 C858 1.377 . S
C845 C844 1.524 . S
C845 C846 1.397 . S
C845 C850 1.363 . S
C846 H823 0.950 . S
C846 C845 1.397 . S
C846 C847 1.334 . S
C847 H824 0.950 . S
C847 C846 1.334 . S
C847 C848 1.287 . S
C848 C847 1.287 . S
C848 C849 1.524 . S
C848 H867 0.913 . S
C849 H825 0.950 . S
C849 C848 1.524 . S
C849 C850 1.415 . S
C850 H826 0.950 . S
C850 C845 1.363 . S
C850 C849 1.415 . S
C851 H827 0.951 . S
C851 C852 1.366 . S
C851 C853 1.388 . S
C852 C851 1.366 . S
C852 C856 1.385 . S
C853 H828 0.951 . S
C853 C851 1.388 . S
C853 C854 1.366 . S
C854 C853 1.366 . S
C854 C855 1.414 . S
C854 C857 1.499 . S
C855 H829 0.950 . S
C855 C854 1.414 . S
C855 C856 1.374 . S
C856 H830 0.950 . S
C856 C852 1.385 . S
C856 C855 1.374 . S
C857 C854 1.499 . S
C857 C858 1.373 . S
C857 C859 1.389 . S
C858 H831 0.950 . S
C858 C844 1.377 . S
C858 C857 1.373 . S
C859 C843 1.377 . S
C859 C857 1.389 . S
C859 C860 1.524 . S
C860 C859 1.524 . S
C860 C861 1.397 . S
C860 C865 1.363 . S
C861 H832 0.950 . S
C861 C860 1.397 . S
C861 C862 1.334 . S
C862 H833 0.950 . S
C862 C861 1.334 . S
C862 C863 1.287 . S
C863 C862 1.287 . S
C863 C864 1.524 . S
C863 H866 0.999 . S
C864 H834 0.950 . S
C864 C863 1.524 . S
C864 C865 1.415 . S
C865 H835 0.950 . S
C865 C860 1.363 . S
C865 C864 1.415 . S
H866 C863 0.999 . S
H867 C848 0.913 . S
H868 C886 0.951 . S
H869 C888 0.951 . S
H870 C890 0.950 . S
H871 C891 0.950 . S
H872 C893 0.950 . S
H873 C896 0.950 . S
H874 C897 0.950 . S
H875 C899 0.950 . S
H876 C900 0.950 . S
H877 C901 0.951 . S
H878 C903 0.951 . S
H879 C905 0.950 . S
H880 C906 0.950 . S
H881 C908 0.950 . S
H882 C911 0.950 . S
H883 C912 0.950 . S
H884 C914 0.950 . S
H885 C915 0.950 . S
C886 H868 0.951 . S
C886 C887 1.366 . S
C886 C888 1.388 . S
C887 C886 1.366 . S
C887 C891 1.385 . S
C888 H869 0.951 . S
C888 C886 1.388 . S
C888 C889 1.366 . S
C889 C888 1.366 . S
C889 C890 1.414 . S
C889 C892 1.499 . S
C890 H870 0.950 . S
C890 C889 1.414 . S
C890 C891 1.374 . S
C891 H871 0.950 . S
C891 C887 1.385 . S
C891 C890 1.374 . S
C892 C889 1.499 . S
C892 C893 1.373 . S
C892 C894 1.389 . S
C893 H872 0.950 . S
C893 C892 1.373 . S
C893 C909 1.377 . S
C894 C892 1.389 . S
C894 C895 1.524 . S
C894 C908 1.377 . S
C895 C894 1.524 . S
C895 C896 1.397 . S
C895 C900 1.363 . S
C896 H873 0.950 . S
C896 C895 1.397 . S
C896 C897 1.334 . S
C897 H874 0.950 . S
C897 C896 1.334 . S
C897 C898 1.287 . S
C898 C897 1.287 . S
C898 C899 1.524 . S
C898 H917 0.913 . S
C899 H875 0.950 . S
C899 C898 1.524 . S
C899 C900 1.415 . S
C900 H876 0.950 . S
C900 C895 1.363 . S
C900 C899 1.415 . S
C901 H877 0.951 . S
C901 C902 1.366 . S
C901 C903 1.388 . S
C902 C901 1.366 . S
C902 C906 1.385 . S
C903 H878 0.951 . S
C903 C901 1.388 . S
C903 C904 1.366 . S
C904 C903 1.366 . S
C904 C905 1.414 . S
C904 C907 1.499 . S
C905 H879 0.950 . S
C905 C904 1.414 . S
C905 C906 1.374 . S
C906 H880 0.950 . S
C906 C902 1.385 . S
C906 C905 1.374 . S
C907 C904 1.499 . S
C907 C908 1.373 . S
C907 C909 1.389 . S
C908 H881 0.950 . S
C908 C894 1.377 . S
C908 C907 1.373 . S
C909 C893 1.377 . S
C909 C907 1.389 . S
C909 C910 1.524 . S
C910 C909 1.524 . S
C910 C911 1.397 . S
C910 C915 1.363 . S
C911 H882 0.950 . S
C911 C910 1.397 . S
C911 C912 1.334 . S
C912 H883 0.950 . S
C912 C911 1.334 . S
C912 C913 1.287 . S
C913 C912 1.287 . S
C913 C914 1.524 . S
C913 H916 0.999 . S
C914 H884 0.950 . S
C914 C913 1.524 . S
C914 C915 1.415 . S
C915 H885 0.950 . S
C915 C910 1.363 . S
C915 C914 1.415 . S
H916 C913 0.999 . S
H917 C898 0.913 . S
H918 C936 0.951 . S
H919 C938 0.951 . S
H920 C940 0.950 . S
H921 C941 0.950 . S
H922 C943 0.950 . S
H923 C946 0.950 . S
H924 C947 0.950 . S
H925 C949 0.950 . S
H926 C950 0.950 . S
H927 C951 0.951 . S
H928 C953 0.951 1_655 S
H929 C955 0.950 . S
H930 C956 0.950 . S
H931 C958 0.950 . S
H932 C961 0.950 . S
H933 C962 0.950 . S
H934 C964 0.950 . S
H935 C965 0.950 . S
C936 H918 0.951 . S
C936 C937 1.366 . S
C936 C938 1.388 . S
C937 C936 1.366 . S
C937 C941 1.385 . S
C938 H919 0.951 . S
C938 C936 1.388 . S
C938 C939 1.366 . S
C939 C938 1.366 . S
C939 C940 1.414 . S
C939 C942 1.499 . S
C940 H920 0.950 . S
C940 C939 1.414 . S
C940 C941 1.374 . S
C941 H921 0.950 . S
C941 C937 1.385 . S
C941 C940 1.374 . S
C942 C939 1.499 . S
C942 C943 1.373 . S
C942 C944 1.389 . S
C943 H922 0.950 . S
C943 C942 1.373 . S
C943 C959 1.377 . S
C944 C942 1.389 . S
C944 C945 1.524 . S
C944 C958 1.377 . S
C945 C944 1.524 . S
C945 C946 1.397 . S
C945 C950 1.363 . S
C946 H923 0.950 . S
C946 C945 1.397 . S
C946 C947 1.334 . S
C947 H924 0.950 . S
C947 C946 1.334 . S
C947 C948 1.287 . S
C948 C947 1.287 . S
C948 C949 1.524 . S
C948 H967 0.913 . S
C949 H925 0.950 . S
C949 C948 1.524 . S
C949 C950 1.415 . S
C950 H926 0.950 . S
C950 C945 1.363 . S
C950 C949 1.415 . S
C951 H927 0.951 . S
C951 C952 1.366 . S
C951 C953 1.388 1_655 S
C952 C951 1.366 . S
C952 C956 1.385 1_655 S
C953 H928 0.951 1_455 S
C953 C951 1.388 1_455 S
C953 C954 1.366 . S
C954 C953 1.366 . S
C954 C955 1.414 . S
C954 C957 1.499 . S
C955 H929 0.950 . S
C955 C954 1.414 . S
C955 C956 1.374 . S
C956 H930 0.950 . S
C956 C952 1.385 1_455 S
C956 C955 1.374 . S
C957 C954 1.499 . S
C957 C958 1.373 . S
C957 C959 1.389 . S
C958 H931 0.950 . S
C958 C944 1.377 . S
C958 C957 1.373 . S
C959 C943 1.377 . S
C959 C957 1.389 . S
C959 C960 1.524 . S
C960 C959 1.524 . S
C960 C961 1.397 . S
C960 C965 1.363 . S
C961 H932 0.950 . S
C961 C960 1.397 . S
C961 C962 1.334 . S
C962 H933 0.950 . S
C962 C961 1.334 . S
C962 C963 1.287 . S
C963 C962 1.287 . S
C963 C964 1.524 . S
C963 H966 0.999 . S
C964 H934 0.950 . S
C964 C963 1.524 . S
C964 C965 1.415 . S
C965 H935 0.950 . S
C965 C960 1.363 . S
C965 C964 1.415 . S
H966 C963 0.999 . S
H967 C948 0.913 . S
H968 C986 0.951 . S
H969 C988 0.951 . S
H970 C990 0.950 . S
H971 C991 0.950 . S
H972 C993 0.950 . S
H973 C996 0.950 . S
H974 C997 0.950 . S
H975 C999 0.950 . S
H976 C1000 0.950 . S
H977 C1001 0.951 . S
H978 C1003 0.951 . S
H979 C1005 0.950 1_545 S
H980 C1006 0.950 . S
H981 C1008 0.950 . S
H982 C1011 0.950 . S
H983 C1012 0.950 . S
H984 C1014 0.950 . S
H985 C1015 0.950 . S
C986 H968 0.951 . S
C986 C987 1.366 . S
C986 C988 1.388 . S
C987 C986 1.366 . S
C987 C991 1.385 . S
C988 H969 0.951 . S
C988 C986 1.388 . S
C988 C989 1.366 . S
C989 C988 1.366 . S
C989 C990 1.414 . S
C989 C992 1.499 . S
C990 H970 0.950 . S
C990 C989 1.414 . S
C990 C991 1.374 . S
C991 H971 0.950 . S
C991 C987 1.385 . S
C991 C990 1.374 . S
C992 C989 1.499 . S
C992 C993 1.373 . S
C992 C994 1.389 . S
C993 H972 0.950 . S
C993 C992 1.373 . S
C993 C1009 1.377 . S
C994 C992 1.389 . S
C994 C995 1.524 . S
C994 C1008 1.377 . S
C995 C994 1.524 . S
C995 C996 1.397 . S
C995 C1000 1.363 . S
C996 H973 0.950 . S
C996 C995 1.397 . S
C996 C997 1.334 . S
C997 H974 0.950 . S
C997 C996 1.334 . S
C997 C998 1.287 . S
C998 C997 1.287 . S
C998 C999 1.524 1_565 S
C998 H1017 0.913 1_565 S
C999 H975 0.950 . S
C999 C998 1.524 1_545 S
C999 C1000 1.415 1_545 S
C1000 H976 0.950 . S
C1000 C995 1.363 . S
C1000 C999 1.415 1_565 S
C1001 H977 0.951 . S
C1001 C1002 1.366 1_565 S
C1001 C1003 1.388 . S
C1002 C1001 1.366 1_545 S
C1002 C1006 1.385 . S
C1003 H978 0.951 . S
C1003 C1001 1.388 . S
C1003 C1004 1.366 . S
C1004 C1003 1.366 . S
C1004 C1005 1.414 . S
C1004 C1007 1.499 . S
C1005 H979 0.950 1_565 S
C1005 C1004 1.414 . S
C1005 C1006 1.374 1_565 S
C1006 H980 0.950 . S
C1006 C1002 1.385 . S
C1006 C1005 1.374 1_545 S
C1007 C1004 1.499 . S
C1007 C1008 1.373 . S
C1007 C1009 1.389 . S
C1008 H981 0.950 . S
C1008 C994 1.377 . S
C1008 C1007 1.373 . S
C1009 C993 1.377 . S
C1009 C1007 1.389 . S
C1009 C1010 1.524 . S
C1010 C1009 1.524 . S
C1010 C1011 1.397 . S
C1010 C1015 1.363 . S
C1011 H982 0.950 . S
C1011 C1010 1.397 . S
C1011 C1012 1.334 . S
C1012 H983 0.950 . S
C1012 C1011 1.334 . S
C1012 C1013 1.287 . S
C1013 C1012 1.287 . S
C1013 C1014 1.524 . S
C1013 H1016 0.999 . S
C1014 H984 0.950 . S
C1014 C1013 1.524 . S
C1014 C1015 1.415 . S
C1015 H985 0.950 . S
C1015 C1010 1.363 . S
C1015 C1014 1.415 . S
H1016 C1013 0.999 . S
H1017 C998 0.913 1_545 S
H1018 C1036 0.951 . S
H1019 C1038 0.951 . S
H1020 C1040 0.950 . S
H1021 C1041 0.950 . S
H1022 C1043 0.950 . S
H1023 C1046 0.950 . S
H1024 C1047 0.950 . S
H1025 C1049 0.950 . S
H1026 C1050 0.950 . S
H1027 C1051 0.951 . S
H1028 C1053 0.951 . S
H1029 C1055 0.950 . S
H1030 C1056 0.950 . S
H1031 C1058 0.950 . S
H1032 C1061 0.950 . S
H1033 C1062 0.950 . S
H1034 C1064 0.950 . S
H1035 C1065 0.950 . S
C1036 H1018 0.951 . S
C1036 C1037 1.366 . S
C1036 C1038 1.388 . S
C1037 C1036 1.366 . S
C1037 C1041 1.385 . S
C1038 H1019 0.951 . S
C1038 C1036 1.388 . S
C1038 C1039 1.366 . S
C1039 C1038 1.366 . S
C1039 C1040 1.414 . S
C1039 C1042 1.499 . S
C1040 H1020 0.950 . S
C1040 C1039 1.414 . S
C1040 C1041 1.374 . S
C1041 H1021 0.950 . S
C1041 C1037 1.385 . S
C1041 C1040 1.374 . S
C1042 C1039 1.499 . S
C1042 C1043 1.373 . S
C1042 C1044 1.389 . S
C1043 H1022 0.950 . S
C1043 C1042 1.373 . S
C1043 C1059 1.377 . S
C1044 C1042 1.389 . S
C1044 C1045 1.524 . S
C1044 C1058 1.377 . S
C1045 C1044 1.524 . S
C1045 C1046 1.397 . S
C1045 C1050 1.363 . S
C1046 H1023 0.950 . S
C1046 C1045 1.397 . S
C1046 C1047 1.334 . S
C1047 H1024 0.950 . S
C1047 C1046 1.334 . S
C1047 C1048 1.287 . S
C1048 C1047 1.287 . S
C1048 C1049 1.524 . S
C1048 H1067 0.913 . S
C1049 H1025 0.950 . S
C1049 C1048 1.524 . S
C1049 C1050 1.415 . S
C1050 H1026 0.950 . S
C1050 C1045 1.363 . S
C1050 C1049 1.415 . S
C1051 H1027 0.951 . S
C1051 C1052 1.366 . S
C1051 C1053 1.388 . S
C1052 C1051 1.366 . S
C1052 C1056 1.385 . S
C1053 H1028 0.951 . S
C1053 C1051 1.388 . S
C1053 C1054 1.366 . S
C1054 C1053 1.366 . S
C1054 C1055 1.414 . S
C1054 C1057 1.499 . S
C1055 H1029 0.950 . S
C1055 C1054 1.414 . S
C1055 C1056 1.374 . S
C1056 H1030 0.950 . S
C1056 C1052 1.385 . S
C1056 C1055 1.374 . S
C1057 C1054 1.499 . S
C1057 C1058 1.373 . S
C1057 C1059 1.389 . S
C1058 H1031 0.950 . S
C1058 C1044 1.377 . S
C1058 C1057 1.373 . S
C1059 C1043 1.377 . S
C1059 C1057 1.389 . S
C1059 C1060 1.524 . S
C1060 C1059 1.524 . S
C1060 C1061 1.397 . S
C1060 C1065 1.363 . S
C1061 H1032 0.950 . S
C1061 C1060 1.397 . S
C1061 C1062 1.334 . S
C1062 H1033 0.950 . S
C1062 C1061 1.334 . S
C1062 C1063 1.287 . S
C1063 C1062 1.287 . S
C1063 C1064 1.524 . S
C1063 H1066 0.999 . S
C1064 H1034 0.950 . S
C1064 C1063 1.524 . S
C1064 C1065 1.415 . S
C1065 H1035 0.950 . S
C1065 C1060 1.363 . S
C1065 C1064 1.415 . S
H1066 C1063 0.999 . S
H1067 C1048 0.913 . S
H1068 C1086 0.951 . S
H1069 C1088 0.951 . S
H1070 C1090 0.950 . S
H1071 C1091 0.950 . S
H1072 C1093 0.950 . S
H1073 C1096 0.950 . S
H1074 C1097 0.950 . S
H1075 C1099 0.950 . S
H1076 C1100 0.950 . S
H1077 C1101 0.951 . S
H1078 C1103 0.951 . S
H1079 C1105 0.950 . S
H1080 C1106 0.950 . S
H1081 C1108 0.950 . S
H1082 C1111 0.950 . S
H1083 C1112 0.950 . S
H1084 C1114 0.950 . S
H1085 C1115 0.950 . S
C1086 H1068 0.951 . S
C1086 C1087 1.366 . S
C1086 C1088 1.388 . S
C1087 C1086 1.366 . S
C1087 C1091 1.385 . S
C1088 H1069 0.951 . S
C1088 C1086 1.388 . S
C1088 C1089 1.366 . S
C1089 C1088 1.366 . S
C1089 C1090 1.414 . S
C1089 C1092 1.499 . S
C1090 H1070 0.950 . S
C1090 C1089 1.414 . S
C1090 C1091 1.374 . S
C1091 H1071 0.950 . S
C1091 C1087 1.385 . S
C1091 C1090 1.374 . S
C1092 C1089 1.499 . S
C1092 C1093 1.373 . S
C1092 C1094 1.389 . S
C1093 H1072 0.950 . S
C1093 C1092 1.373 . S
C1093 C1109 1.377 . S
C1094 C1092 1.389 . S
C1094 C1095 1.524 . S
C1094 C1108 1.377 . S
C1095 C1094 1.524 . S
C1095 C1096 1.397 . S
C1095 C1100 1.363 . S
C1096 H1073 0.950 . S
C1096 C1095 1.397 . S
C1096 C1097 1.334 . S
C1097 H1074 0.950 . S
C1097 C1096 1.334 . S
C1097 C1098 1.287 . S
C1098 C1097 1.287 . S
C1098 C1099 1.524 . S
C1098 H1117 0.913 . S
C1099 H1075 0.950 . S
C1099 C1098 1.524 . S
C1099 C1100 1.415 . S
C1100 H1076 0.950 . S
C1100 C1095 1.363 . S
C1100 C1099 1.415 . S
C1101 H1077 0.951 . S
C1101 C1102 1.366 . S
C1101 C1103 1.388 . S
C1102 C1101 1.366 . S
C1102 C1106 1.385 . S
C1103 H1078 0.951 . S
C1103 C1101 1.388 . S
C1103 C1104 1.366 . S
C1104 C1103 1.366 . S
C1104 C1105 1.414 . S
C1104 C1107 1.499 . S
C1105 H1079 0.950 . S
C1105 C1104 1.414 . S
C1105 C1106 1.374 . S
C1106 H1080 0.950 . S
C1106 C1102 1.385 . S
C1106 C1105 1.374 . S
C1107 C1104 1.499 . S
C1107 C1108 1.373 . S
C1107 C1109 1.389 . S
C1108 H1081 0.950 . S
C1108 C1094 1.377 . S
C1108 C1107 1.373 . S
C1109 C1093 1.377 . S
C1109 C1107 1.389 . S
C1109 C1110 1.524 . S
C1110 C1109 1.524 . S
C1110 C1111 1.397 . S
C1110 C1115 1.363 . S
C1111 H1082 0.950 . S
C1111 C1110 1.397 . S
C1111 C1112 1.334 . S
C1112 H1083 0.950 . S
C1112 C1111 1.334 . S
C1112 C1113 1.287 . S
C1113 C1112 1.287 . S
C1113 C1114 1.524 . S
C1113 H1116 0.999 . S
C1114 H1084 0.950 . S
C1114 C1113 1.524 . S
C1114 C1115 1.415 . S
C1115 H1085 0.950 . S
C1115 C1110 1.363 . S
C1115 C1114 1.415 . S
H1116 C1113 0.999 . S
H1117 C1098 0.913 . S
H1118 C1136 0.951 . S
H1119 C1138 0.951 . S
H1120 C1140 0.956 . S
H1121 C1141 0.950 . S
H1122 C1143 0.950 . S
H1123 C1146 0.950 1_455 S
H1124 C1147 0.950 . S
H1125 C1149 0.950 . S
H1126 C1150 0.950 . S
H1127 C1151 0.951 . S
H1128 C1153 0.951 . S
H1129 C1155 0.950 . S
H1130 C1156 0.950 . S
H1131 C1158 0.950 . S
H1132 C1161 0.950 . S
H1133 C1162 0.950 . S
H1134 C1164 0.950 . S
H1135 C1165 0.950 . S
C1136 H1118 0.951 . S
C1136 C1137 1.366 1_655 S
C1136 C1138 1.388 . S
C1137 C1136 1.366 1_455 S
C1137 C1141 1.385 . S
C1138 H1119 0.951 . S
C1138 C1136 1.388 . S
C1138 C1139 1.366 . S
C1139 C1138 1.366 . S
C1139 C1140 1.414 . S
C1139 C1142 1.499 . S
C1140 H1120 0.956 . S
C1140 C1139 1.414 . S
C1140 C1141 1.374 1_655 S
C1141 H1121 0.950 . S
C1141 C1137 1.385 . S
C1141 C1140 1.374 1_455 S
C1142 C1139 1.499 . S
C1142 C1143 1.373 . S
C1142 C1144 1.389 . S
C1143 H1122 0.950 . S
C1143 C1142 1.373 . S
C1143 C1159 1.377 . S
C1144 C1142 1.389 . S
C1144 C1145 1.524 . S
C1144 C1158 1.377 . S
C1145 C1144 1.524 . S
C1145 C1146 1.397 . S
C1145 C1150 1.363 . S
C1146 H1123 0.950 1_655 S
C1146 C1145 1.397 . S
C1146 C1147 1.334 1_655 S
C1147 H1124 0.950 . S
C1147 C1146 1.334 1_455 S
C1147 C1148 1.287 1_455 S
C1148 C1147 1.287 1_655 S
C1148 C1149 1.524 . S
C1148 H1167 0.913 1_655 S
C1149 H1125 0.950 . S
C1149 C1148 1.524 . S
C1149 C1150 1.415 . S
C1150 H1126 0.950 . S
C1150 C1145 1.363 . S
C1150 C1149 1.415 . S
C1151 H1127 0.951 . S
C1151 C1152 1.366 . S
C1151 C1153 1.388 . S
C1152 C1151 1.366 . S
C1152 C1156 1.385 . S
C1153 H1128 0.951 . S
C1153 C1151 1.388 . S
C1153 C1154 1.366 . S
C1154 C1153 1.366 . S
C1154 C1155 1.414 . S
C1154 C1157 1.499 . S
C1155 H1129 0.950 . S
C1155 C1154 1.414 . S
C1155 C1156 1.374 . S
C1156 H1130 0.950 . S
C1156 C1152 1.385 . S
C1156 C1155 1.374 . S
C1157 C1154 1.499 . S
C1157 C1158 1.373 . S
C1157 C1159 1.389 . S
C1158 H1131 0.950 . S
C1158 C1144 1.377 . S
C1158 C1157 1.373 . S
C1159 C1143 1.377 . S
C1159 C1157 1.389 . S
C1159 C1160 1.524 . S
C1160 C1159 1.524 . S
C1160 C1161 1.397 . S
C1160 C1165 1.363 . S
C1161 H1132 0.950 . S
C1161 C1160 1.397 . S
C1161 C1162 1.334 . S
C1162 H1133 0.950 . S
C1162 C1161 1.334 . S
C1162 C1163 1.287 . S
C1163 C1162 1.287 . S
C1163 C1164 1.524 . S
C1163 H1166 0.999 . S
C1164 H1134 0.950 . S
C1164 C1163 1.524 . S
C1164 C1165 1.415 . S
C1165 H1135 0.950 . S
C1165 C1160 1.363 . S
C1165 C1164 1.415 . S
H1166 C1163 0.999 . S
H1167 C1148 0.913 1_455 S
H1168 C1186 0.951 . S
H1169 C1188 0.951 . S
H1170 C1190 0.950 . S
H1171 C1191 0.950 . S
H1172 C1193 0.950 . S
H1173 C1196 0.950 . S
H1174 C1197 0.950 . S
H1175 C1199 0.950 . S
H1176 C1200 0.950 . S
H1177 C1201 0.951 . S
H1178 C1203 0.951 . S
H1179 C1205 0.950 . S
H1180 C1206 0.950 . S
H1181 C1208 0.950 . S
H1182 C1211 0.950 . S
H1183 C1212 0.950 . S
H1184 C1214 0.950 1_545 S
H1185 C1215 0.950 . S
C1186 H1168 0.951 . S
C1186 C1187 1.366 1_565 S
C1186 C1188 1.388 . S
C1187 C1186 1.366 1_545 S
C1187 C1191 1.385 . S
C1188 H1169 0.951 . S
C1188 C1186 1.388 . S
C1188 C1189 1.366 . S
C1189 C1188 1.366 . S
C1189 C1190 1.414 1_565 S
C1189 C1192 1.499 . S
C1190 H1170 0.950 . S
C1190 C1189 1.414 1_545 S
C1190 C1191 1.374 . S
C1191 H1171 0.950 . S
C1191 C1187 1.385 . S
C1191 C1190 1.374 . S
C1192 C1189 1.499 . S
C1192 C1193 1.373 . S
C1192 C1194 1.389 . S
C1193 H1172 0.950 . S
C1193 C1192 1.373 . S
C1193 C1209 1.377 . S
C1194 C1192 1.389 . S
C1194 C1195 1.524 . S
C1194 C1208 1.377 . S
C1195 C1194 1.524 . S
C1195 C1196 1.397 . S
C1195 C1200 1.363 . S
C1196 H1173 0.950 . S
C1196 C1195 1.397 . S
C1196 C1197 1.334 . S
C1197 H1174 0.950 . S
C1197 C1196 1.334 . S
C1197 C1198 1.287 . S
C1198 C1197 1.287 . S
C1198 C1199 1.524 . S
C1198 H1217 0.913 . S
C1199 H1175 0.950 . S
C1199 C1198 1.524 . S
C1199 C1200 1.415 . S
C1200 H1176 0.950 . S
C1200 C1195 1.363 . S
C1200 C1199 1.415 . S
C1201 H1177 0.951 . S
C1201 C1202 1.366 . S
C1201 C1203 1.388 . S
C1202 C1201 1.366 . S
C1202 C1206 1.385 . S
C1203 H1178 0.951 . S
C1203 C1201 1.388 . S
C1203 C1204 1.366 . S
C1204 C1203 1.366 . S
C1204 C1205 1.414 . S
C1204 C1207 1.499 . S
C1205 H1179 0.950 . S
C1205 C1204 1.414 . S
C1205 C1206 1.374 . S
C1206 H1180 0.950 . S
C1206 C1202 1.385 . S
C1206 C1205 1.374 . S
C1207 C1204 1.499 . S
C1207 C1208 1.373 . S
C1207 C1209 1.389 . S
C1208 H1181 0.950 . S
C1208 C1194 1.377 . S
C1208 C1207 1.373 . S
C1209 C1193 1.377 . S
C1209 C1207 1.389 . S
C1209 C1210 1.524 . S
C1210 C1209 1.524 . S
C1210 C1211 1.397 . S
C1210 C1215 1.363 . S
C1211 H1182 0.950 . S
C1211 C1210 1.397 . S
C1211 C1212 1.334 . S
C1212 H1183 0.950 . S
C1212 C1211 1.334 . S
C1212 C1213 1.287 . S
C1213 C1212 1.287 . S
C1213 C1214 1.524 . S
C1213 H1216 0.999 . S
C1214 H1184 0.950 1_565 S
C1214 C1213 1.524 . S
C1214 C1215 1.415 . S
C1215 H1185 0.950 . S
C1215 C1210 1.363 . S
C1215 C1214 1.415 . S
H1216 C1213 0.999 . S
H1217 C1198 0.913 . S
H1218 C1236 0.951 . S
H1219 C1238 0.951 . S
H1220 C1240 0.950 . S
H1221 C1241 0.950 . S
H1222 C1243 0.950 . S
H1223 C1246 0.950 . S
H1224 C1247 0.950 . S
H1225 C1249 0.950 . S
H1226 C1250 0.950 . S
H1227 C1251 0.951 . S
H1228 C1253 0.951 . S
H1229 C1255 0.950 . S
H1230 C1256 0.950 . S
H1231 C1258 0.950 . S
H1232 C1261 0.950 . S
H1233 C1262 0.950 . S
H1234 C1264 0.950 . S
H1235 C1265 0.950 . S
C1236 H1218 0.951 . S
C1236 C1237 1.366 . S
C1236 C1238 1.388 . S
C1237 C1236 1.366 . S
C1237 C1241 1.385 . S
C1238 H1219 0.951 . S
C1238 C1236 1.388 . S
C1238 C1239 1.366 . S
C1239 C1238 1.366 . S
C1239 C1240 1.414 . S
C1239 C1242 1.499 . S
C1240 H1220 0.950 . S
C1240 C1239 1.414 . S
C1240 C1241 1.374 . S
C1241 H1221 0.950 . S
C1241 C1237 1.385 . S
C1241 C1240 1.374 . S
C1242 C1239 1.499 . S
C1242 C1243 1.373 . S
C1242 C1244 1.389 . S
C1243 H1222 0.950 . S
C1243 C1242 1.373 . S
C1243 C1259 1.377 . S
C1244 C1242 1.389 . S
C1244 C1245 1.524 . S
C1244 C1258 1.377 . S
C1245 C1244 1.524 . S
C1245 C1246 1.397 . S
C1245 C1250 1.363 . S
C1246 H1223 0.950 . S
C1246 C1245 1.397 . S
C1246 C1247 1.334 . S
C1247 H1224 0.950 . S
C1247 C1246 1.334 . S
C1247 C1248 1.287 . S
C1248 C1247 1.287 . S
C1248 C1249 1.524 . S
C1248 H1267 0.913 . S
C1249 H1225 0.950 . S
C1249 C1248 1.524 . S
C1249 C1250 1.415 . S
C1250 H1226 0.950 . S
C1250 C1245 1.363 . S
C1250 C1249 1.415 . S
C1251 H1227 0.951 . S
C1251 C1252 1.366 . S
C1251 C1253 1.388 . S
C1252 C1251 1.366 . S
C1252 C1256 1.385 . S
C1253 H1228 0.951 . S
C1253 C1251 1.388 . S
C1253 C1254 1.366 . S
C1254 C1253 1.366 . S
C1254 C1255 1.414 . S
C1254 C1257 1.499 . S
C1255 H1229 0.950 . S
C1255 C1254 1.414 . S
C1255 C1256 1.374 . S
C1256 H1230 0.950 . S
C1256 C1252 1.385 . S
C1256 C1255 1.374 . S
C1257 C1254 1.499 . S
C1257 C1258 1.373 . S
C1257 C1259 1.389 . S
C1258 H1231 0.950 . S
C1258 C1244 1.377 . S
C1258 C1257 1.373 . S
C1259 C1243 1.377 . S
C1259 C1257 1.389 . S
C1259 C1260 1.524 . S
C1260 C1259 1.524 . S
C1260 C1261 1.397 . S
C1260 C1265 1.363 . S
C1261 H1232 0.950 . S
C1261 C1260 1.397 . S
C1261 C1262 1.334 . S
C1262 H1233 0.950 . S
C1262 C1261 1.334 . S
C1262 C1263 1.287 . S
C1263 C1262 1.287 . S
C1263 C1264 1.524 . S
C1263 H1266 0.999 . S
C1264 H1234 0.950 . S
C1264 C1263 1.524 . S
C1264 C1265 1.415 . S
C1265 H1235 0.950 . S
C1265 C1260 1.363 . S
C1265 C1264 1.415 . S
H1266 C1263 0.999 . S
H1267 C1248 0.913 . S
H1268 C1286 0.951 . S
H1269 C1288 0.951 . S
H1270 C1290 0.950 . S
H1271 C1291 0.950 . S
H1272 C1293 0.950 . S
H1273 C1296 0.950 . S
H1274 C1297 0.950 . S
H1275 C1299 0.950 . S
H1276 C1300 0.950 . S
H1277 C1301 0.951 . S
H1278 C1303 0.951 . S
H1279 C1305 0.950 . S
H1280 C1306 0.950 . S
H1281 C1308 0.950 . S
H1282 C1311 0.950 . S
H1283 C1312 0.950 . S
H1284 C1314 0.950 . S
H1285 C1315 0.950 . S
C1286 H1268 0.951 . S
C1286 C1287 1.366 . S
C1286 C1288 1.388 . S
C1287 C1286 1.366 . S
C1287 C1291 1.385 . S
C1288 H1269 0.951 . S
C1288 C1286 1.388 . S
C1288 C1289 1.366 . S
C1289 C1288 1.366 . S
C1289 C1290 1.414 . S
C1289 C1292 1.499 . S
C1290 H1270 0.950 . S
C1290 C1289 1.414 . S
C1290 C1291 1.374 . S
C1291 H1271 0.950 . S
C1291 C1287 1.385 . S
C1291 C1290 1.374 . S
C1292 C1289 1.499 . S
C1292 C1293 1.373 . S
C1292 C1294 1.389 . S
C1293 H1272 0.950 . S
C1293 C1292 1.373 . S
C1293 C1309 1.377 . S
C1294 C1292 1.389 . S
C1294 C1295 1.524 . S
C1294 C1308 1.377 . S
C1295 C1294 1.524 . S
C1295 C1296 1.397 . S
C1295 C1300 1.363 . S
C1296 H1273 0.950 . S
C1296 C1295 1.397 . S
C1296 C1297 1.334 . S
C1297 H1274 0.950 . S
C1297 C1296 1.334 . S
C1297 C1298 1.287 . S
C1298 C1297 1.287 . S
C1298 C1299 1.524 . S
C1298 H1317 0.913 . S
C1299 H1275 0.950 . S
C1299 C1298 1.524 . S
C1299 C1300 1.415 . S
C1300 H1276 0.950 . S
C1300 C1295 1.363 . S
C1300 C1299 1.415 . S
C1301 H1277 0.951 . S
C1301 C1302 1.366 . S
C1301 C1303 1.388 . S
C1302 C1301 1.366 . S
C1302 C1306 1.385 . S
C1303 H1278 0.951 . S
C1303 C1301 1.388 . S
C1303 C1304 1.366 . S
C1304 C1303 1.366 . S
C1304 C1305 1.414 . S
C1304 C1307 1.499 . S
C1305 H1279 0.950 . S
C1305 C1304 1.414 . S
C1305 C1306 1.374 . S
C1306 H1280 0.950 . S
C1306 C1302 1.385 . S
C1306 C1305 1.374 . S
C1307 C1304 1.499 . S
C1307 C1308 1.373 . S
C1307 C1309 1.389 . S
C1308 H1281 0.950 . S
C1308 C1294 1.377 . S
C1308 C1307 1.373 . S
C1309 C1293 1.377 . S
C1309 C1307 1.389 . S
C1309 C1310 1.524 . S
C1310 C1309 1.524 . S
C1310 C1311 1.397 . S
C1310 C1315 1.363 . S
C1311 H1282 0.950 . S
C1311 C1310 1.397 . S
C1311 C1312 1.334 . S
C1312 H1283 0.950 . S
C1312 C1311 1.334 . S
C1312 C1313 1.287 . S
C1313 C1312 1.287 . S
C1313 C1314 1.524 . S
C1313 H1316 0.999 . S
C1314 H1284 0.950 . S
C1314 C1313 1.524 . S
C1314 C1315 1.415 . S
C1315 H1285 0.950 . S
C1315 C1310 1.363 . S
C1315 C1314 1.415 . S
H1316 C1313 0.999 . S
H1317 C1298 0.913 . S
H1318 C1336 0.951 . S
H1319 C1338 0.951 . S
H1320 C1340 0.950 . S
H1321 C1341 0.950 . S
H1322 C1343 0.950 . S
H1323 C1346 0.950 . S
H1324 C1347 0.950 . S
H1325 C1349 0.950 . S
H1326 C1350 0.950 . S
H1327 C1351 0.951 . S
H1328 C1353 0.951 . S
H1329 C1355 0.950 . S
H1330 C1356 0.947 1_455 S
H1331 C1358 0.950 . S
H1332 C1361 0.950 . S
H1333 C1362 0.950 . S
H1334 C1364 0.950 . S
H1335 C1365 0.950 . S
C1336 H1318 0.951 . S
C1336 C1337 1.366 . S
C1336 C1338 1.388 . S
C1337 C1336 1.366 . S
C1337 C1341 1.385 . S
C1338 H1319 0.951 . S
C1338 C1336 1.388 . S
C1338 C1339 1.366 . S
C1339 C1338 1.366 . S
C1339 C1340 1.414 . S
C1339 C1342 1.499 . S
C1340 H1320 0.950 . S
C1340 C1339 1.414 . S
C1340 C1341 1.374 . S
C1341 H1321 0.950 . S
C1341 C1337 1.385 . S
C1341 C1340 1.374 . S
C1342 C1339 1.499 . S
C1342 C1343 1.373 . S
C1342 C1344 1.389 . S
C1343 H1322 0.950 . S
C1343 C1342 1.373 . S
C1343 C1359 1.377 . S
C1344 C1342 1.389 . S
C1344 C1345 1.524 . S
C1344 C1358 1.377 . S
C1345 C1344 1.524 . S
C1345 C1346 1.397 . S
C1345 C1350 1.363 . S
C1346 H1323 0.950 . S
C1346 C1345 1.397 . S
C1346 C1347 1.334 . S
C1347 H1324 0.950 . S
C1347 C1346 1.334 . S
C1347 C1348 1.287 . S
C1348 C1347 1.287 . S
C1348 C1349 1.524 . S
C1348 H1367 0.913 . S
C1349 H1325 0.950 . S
C1349 C1348 1.524 . S
C1349 C1350 1.415 . S
C1350 H1326 0.950 . S
C1350 C1345 1.363 . S
C1350 C1349 1.415 . S
C1351 H1327 0.951 . S
C1351 C1352 1.366 . S
C1351 C1353 1.388 1_455 S
C1352 C1351 1.366 . S
C1352 C1356 1.385 1_455 S
C1353 H1328 0.951 . S
C1353 C1351 1.388 1_655 S
C1353 C1354 1.366 . S
C1354 C1353 1.366 . S
C1354 C1355 1.414 . S
C1354 C1357 1.499 . S
C1355 H1329 0.950 . S
C1355 C1354 1.414 . S
C1355 C1356 1.374 . S
C1356 H1330 0.947 1_655 S
C1356 C1352 1.385 1_655 S
C1356 C1355 1.374 . S
C1357 C1354 1.499 . S
C1357 C1358 1.373 . S
C1357 C1359 1.389 . S
C1358 H1331 0.950 . S
C1358 C1344 1.377 . S
C1358 C1357 1.373 . S
C1359 C1343 1.377 . S
C1359 C1357 1.389 . S
C1359 C1360 1.524 . S
C1360 C1359 1.524 . S
C1360 C1361 1.397 . S
C1360 C1365 1.363 . S
C1361 H1332 0.950 . S
C1361 C1360 1.397 . S
C1361 C1362 1.334 . S
C1362 H1333 0.950 . S
C1362 C1361 1.334 . S
C1362 C1363 1.287 . S
C1363 C1362 1.287 . S
C1363 C1364 1.524 . S
C1363 H1366 0.999 . S
C1364 H1334 0.950 . S
C1364 C1363 1.524 . S
C1364 C1365 1.415 . S
C1365 H1335 0.950 . S
C1365 C1360 1.363 . S
C1365 C1364 1.415 . S
H1366 C1363 0.999 . S
H1367 C1348 0.913 . S
H1368 C1386 0.951 . S
H1369 C1388 0.951 . S
H1370 C1390 0.950 . S
H1371 C1391 0.950 . S
H1372 C1393 0.950 . S
H1373 C1396 0.950 . S
H1374 C1397 0.950 . S
H1375 C1399 0.950 . S
H1376 C1400 0.950 . S
H1377 C1401 0.951 . S
H1378 C1403 0.951 . S
H1379 C1405 0.950 1_565 S
H1380 C1406 0.950 . S
H1381 C1408 0.950 . S
H1382 C1411 0.950 . S
H1383 C1412 0.950 . S
H1384 C1414 0.950 . S
H1385 C1415 0.950 . S
C1386 H1368 0.951 . S
C1386 C1387 1.366 . S
C1386 C1388 1.388 . S
C1387 C1386 1.366 . S
C1387 C1391 1.385 . S
C1388 H1369 0.951 . S
C1388 C1386 1.388 . S
C1388 C1389 1.366 . S
C1389 C1388 1.366 . S
C1389 C1390 1.414 . S
C1389 C1392 1.499 . S
C1390 H1370 0.950 . S
C1390 C1389 1.414 . S
C1390 C1391 1.374 . S
C1391 H1371 0.950 . S
C1391 C1387 1.385 . S
C1391 C1390 1.374 . S
C1392 C1389 1.499 . S
C1392 C1393 1.373 . S
C1392 C1394 1.389 . S
C1393 H1372 0.950 . S
C1393 C1392 1.373 . S
C1393 C1409 1.377 . S
C1394 C1392 1.389 . S
C1394 C1395 1.524 . S
C1394 C1408 1.377 . S
C1395 C1394 1.524 . S
C1395 C1396 1.397 . S
C1395 C1400 1.363 . S
C1396 H1373 0.950 . S
C1396 C1395 1.397 . S
C1396 C1397 1.334 . S
C1397 H1374 0.950 . S
C1397 C1396 1.334 . S
C1397 C1398 1.287 . S
C1398 C1397 1.287 . S
C1398 C1399 1.524 1_545 S
C1398 H1417 0.913 1_545 S
C1399 H1375 0.950 . S
C1399 C1398 1.524 1_565 S
C1399 C1400 1.415 1_565 S
C1400 H1376 0.950 . S
C1400 C1395 1.363 . S
C1400 C1399 1.415 1_545 S
C1401 H1377 0.951 . S
C1401 C1402 1.366 1_545 S
C1401 C1403 1.388 . S
C1402 C1401 1.366 1_565 S
C1402 C1406 1.385 . S
C1403 H1378 0.951 . S
C1403 C1401 1.388 . S
C1403 C1404 1.366 . S
C1404 C1403 1.366 . S
C1404 C1405 1.414 . S
C1404 C1407 1.499 . S
C1405 H1379 0.950 1_545 S
C1405 C1404 1.414 . S
C1405 C1406 1.374 1_545 S
C1406 H1380 0.950 . S
C1406 C1402 1.385 . S
C1406 C1405 1.374 1_565 S
C1407 C1404 1.499 . S
C1407 C1408 1.373 . S
C1407 C1409 1.389 . S
C1408 H1381 0.950 . S
C1408 C1394 1.377 . S
C1408 C1407 1.373 . S
C1409 C1393 1.377 . S
C1409 C1407 1.389 . S
C1409 C1410 1.524 . S
C1410 C1409 1.524 . S
C1410 C1411 1.397 . S
C1410 C1415 1.363 . S
C1411 H1382 0.950 . S
C1411 C1410 1.397 . S
C1411 C1412 1.334 . S
C1412 H1383 0.950 . S
C1412 C1411 1.334 . S
C1412 C1413 1.287 . S
C1413 C1412 1.287 . S
C1413 C1414 1.524 . S
C1413 H1416 0.999 . S
C1414 H1384 0.950 . S
C1414 C1413 1.524 . S
C1414 C1415 1.415 . S
C1415 H1385 0.950 . S
C1415 C1410 1.363 . S
C1415 C1414 1.415 . S
H1416 C1413 0.999 . S
H1417 C1398 0.913 1_565 S
H1418 C1436 0.951 . S
H1419 C1438 0.951 . S
H1420 C1440 0.950 . S
H1421 C1441 0.950 . S
H1422 C1443 0.950 . S
H1423 C1446 0.950 . S
H1424 C1447 0.950 . S
H1425 C1449 0.950 . S
H1426 C1450 0.950 . S
H1427 C1451 0.951 . S
H1428 C1453 0.951 . S
H1429 C1455 0.950 . S
H1430 C1456 0.950 . S
H1431 C1458 0.950 . S
H1432 C1461 0.950 . S
H1433 C1462 0.950 . S
H1434 C1464 0.950 . S
H1435 C1465 0.950 . S
C1436 H1418 0.951 . S
C1436 C1437 1.366 . S
C1436 C1438 1.388 . S
C1437 C1436 1.366 . S
C1437 C1441 1.385 . S
C1438 H1419 0.951 . S
C1438 C1436 1.388 . S
C1438 C1439 1.366 . S
C1439 C1438 1.366 . S
C1439 C1440 1.414 . S
C1439 C1442 1.499 . S
C1440 H1420 0.950 . S
C1440 C1439 1.414 . S
C1440 C1441 1.374 . S
C1441 H1421 0.950 . S
C1441 C1437 1.385 . S
C1441 C1440 1.374 . S
C1442 C1439 1.499 . S
C1442 C1443 1.373 . S
C1442 C1444 1.389 . S
C1443 H1422 0.950 . S
C1443 C1442 1.373 . S
C1443 C1459 1.377 . S
C1444 C1442 1.389 . S
C1444 C1445 1.524 . S
C1444 C1458 1.377 . S
C1445 C1444 1.524 . S
C1445 C1446 1.397 . S
C1445 C1450 1.363 . S
C1446 H1423 0.950 . S
C1446 C1445 1.397 . S
C1446 C1447 1.334 . S
C1447 H1424 0.950 . S
C1447 C1446 1.334 . S
C1447 C1448 1.287 . S
C1448 C1447 1.287 . S
C1448 C1449 1.524 . S
C1448 H1467 0.913 . S
C1449 H1425 0.950 . S
C1449 C1448 1.524 . S
C1449 C1450 1.415 . S
C1450 H1426 0.950 . S
C1450 C1445 1.363 . S
C1450 C1449 1.415 . S
C1451 H1427 0.951 . S
C1451 C1452 1.366 . S
C1451 C1453 1.388 . S
C1452 C1451 1.366 . S
C1452 C1456 1.385 . S
C1453 H1428 0.951 . S
C1453 C1451 1.388 . S
C1453 C1454 1.366 . S
C1454 C1453 1.366 . S
C1454 C1455 1.414 . S
C1454 C1457 1.499 . S
C1455 H1429 0.950 . S
C1455 C1454 1.414 . S
C1455 C1456 1.374 . S
C1456 H1430 0.950 . S
C1456 C1452 1.385 . S
C1456 C1455 1.374 . S
C1457 C1454 1.499 . S
C1457 C1458 1.373 . S
C1457 C1459 1.389 . S
C1458 H1431 0.950 . S
C1458 C1444 1.377 . S
C1458 C1457 1.373 . S
C1459 C1443 1.377 . S
C1459 C1457 1.389 . S
C1459 C1460 1.524 . S
C1460 C1459 1.524 . S
C1460 C1461 1.397 . S
C1460 C1465 1.363 . S
C1461 H1432 0.950 . S
C1461 C1460 1.397 . S
C1461 C1462 1.334 . S
C1462 H1433 0.950 . S
C1462 C1461 1.334 . S
C1462 C1463 1.287 . S
C1463 C1462 1.287 . S
C1463 C1464 1.524 . S
C1463 H1466 0.999 . S
C1464 H1434 0.950 . S
C1464 C1463 1.524 . S
C1464 C1465 1.415 . S
C1465 H1435 0.950 . S
C1465 C1460 1.363 . S
C1465 C1464 1.415 . S
H1466 C1463 0.999 . S
H1467 C1448 0.913 . S
H1468 C1486 0.951 . S
H1469 C1488 0.951 . S
H1470 C1490 0.950 . S
H1471 C1491 0.950 . S
H1472 C1493 0.950 . S
H1473 C1496 0.950 . S
H1474 C1497 0.950 . S
H1475 C1499 0.950 . S
H1476 C1500 0.950 . S
H1477 C1501 0.951 . S
H1478 C1503 0.951 . S
H1479 C1505 0.950 . S
H1480 C1506 0.950 . S
H1481 C1508 0.950 . S
H1482 C1511 0.950 . S
H1483 C1512 0.950 . S
H1484 C1514 0.950 . S
H1485 C1515 0.950 . S
C1486 H1468 0.951 . S
C1486 C1487 1.366 . S
C1486 C1488 1.388 . S
C1487 C1486 1.366 . S
C1487 C1491 1.385 . S
C1488 H1469 0.951 . S
C1488 C1486 1.388 . S
C1488 C1489 1.366 . S
C1489 C1488 1.366 . S
C1489 C1490 1.414 . S
C1489 C1492 1.499 . S
C1490 H1470 0.950 . S
C1490 C1489 1.414 . S
C1490 C1491 1.374 . S
C1491 H1471 0.950 . S
C1491 C1487 1.385 . S
C1491 C1490 1.374 . S
C1492 C1489 1.499 . S
C1492 C1493 1.373 . S
C1492 C1494 1.389 . S
C1493 H1472 0.950 . S
C1493 C1492 1.373 . S
C1493 C1509 1.377 . S
C1494 C1492 1.389 . S
C1494 C1495 1.524 . S
C1494 C1508 1.377 . S
C1495 C1494 1.524 . S
C1495 C1496 1.397 . S
C1495 C1500 1.363 . S
C1496 H1473 0.950 . S
C1496 C1495 1.397 . S
C1496 C1497 1.334 . S
C1497 H1474 0.950 . S
C1497 C1496 1.334 . S
C1497 C1498 1.287 . S
C1498 C1497 1.287 . S
C1498 C1499 1.524 . S
C1498 H1517 0.913 . S
C1499 H1475 0.950 . S
C1499 C1498 1.524 . S
C1499 C1500 1.415 . S
C1500 H1476 0.950 . S
C1500 C1495 1.363 . S
C1500 C1499 1.415 . S
C1501 H1477 0.951 . S
C1501 C1502 1.366 . S
C1501 C1503 1.388 . S
C1502 C1501 1.366 . S
C1502 C1506 1.385 . S
C1503 H1478 0.951 . S
C1503 C1501 1.388 . S
C1503 C1504 1.366 . S
C1504 C1503 1.366 . S
C1504 C1505 1.414 . S
C1504 C1507 1.499 . S
C1505 H1479 0.950 . S
C1505 C1504 1.414 . S
C1505 C1506 1.374 . S
C1506 H1480 0.950 . S
C1506 C1502 1.385 . S
C1506 C1505 1.374 . S
C1507 C1504 1.499 . S
C1507 C1508 1.373 . S
C1507 C1509 1.389 . S
C1508 H1481 0.950 . S
C1508 C1494 1.377 . S
C1508 C1507 1.373 . S
C1509 C1493 1.377 . S
C1509 C1507 1.389 . S
C1509 C1510 1.524 . S
C1510 C1509 1.524 . S
C1510 C1511 1.397 . S
C1510 C1515 1.363 . S
C1511 H1482 0.950 . S
C1511 C1510 1.397 . S
C1511 C1512 1.334 . S
C1512 H1483 0.950 . S
C1512 C1511 1.334 . S
C1512 C1513 1.287 . S
C1513 C1512 1.287 . S
C1513 C1514 1.524 . S
C1513 H1516 0.999 . S
C1514 H1484 0.950 . S
C1514 C1513 1.524 . S
C1514 C1515 1.415 . S
C1515 H1485 0.950 . S
C1515 C1510 1.363 . S
C1515 C1514 1.415 . S
H1516 C1513 0.999 . S
H1517 C1498 0.913 . S
H1518 C1536 0.951 . S
H1519 C1538 0.951 . S
H1520 C1540 0.950 . S
H1521 C1541 0.950 . S
H1522 C1543 0.950 . S
H1523 C1546 0.950 . S
H1524 C1547 0.950 . S
H1525 C1549 0.950 . S
H1526 C1550 0.950 . S
H1527 C1551 0.951 . S
H1528 C1553 0.951 . S
H1529 C1555 0.950 . S
H1530 C1556 0.950 . S
H1531 C1558 0.950 . S
H1532 C1561 0.950 . S
H1533 C1562 0.950 . S
H1534 C1564 0.950 . S
H1535 C1565 0.950 . S
C1536 H1518 0.951 . S
C1536 C1537 1.366 . S
C1536 C1538 1.388 . S
C1537 C1536 1.366 . S
C1537 C1541 1.385 . S
C1538 H1519 0.951 . S
C1538 C1536 1.388 . S
C1538 C1539 1.366 . S
C1539 C1538 1.366 . S
C1539 C1540 1.414 . S
C1539 C1542 1.499 . S
C1540 H1520 0.950 . S
C1540 C1539 1.414 . S
C1540 C1541 1.374 . S
C1541 H1521 0.950 . S
C1541 C1537 1.385 . S
C1541 C1540 1.374 . S
C1542 C1539 1.499 . S
C1542 C1543 1.373 . S
C1542 C1544 1.389 . S
C1543 H1522 0.950 . S
C1543 C1542 1.373 . S
C1543 C1559 1.377 . S
C1544 C1542 1.389 . S
C1544 C1545 1.524 . S
C1544 C1558 1.377 . S
C1545 C1544 1.524 . S
C1545 C1546 1.397 . S
C1545 C1550 1.363 . S
C1546 H1523 0.950 . S
C1546 C1545 1.397 . S
C1546 C1547 1.334 . S
C1547 H1524 0.950 . S
C1547 C1546 1.334 . S
C1547 C1548 1.287 . S
C1548 C1547 1.287 . S
C1548 C1549 1.524 . S
C1548 H1567 0.913 . S
C1549 H1525 0.950 . S
C1549 C1548 1.524 . S
C1549 C1550 1.415 . S
C1550 H1526 0.950 . S
C1550 C1545 1.363 . S
C1550 C1549 1.415 . S
C1551 H1527 0.951 . S
C1551 C1552 1.366 . S
C1551 C1553 1.388 . S
C1552 C1551 1.366 . S
C1552 C1556 1.385 1_655 S
C1553 H1528 0.951 . S
C1553 C1551 1.388 . S
C1553 C1554 1.366 1_655 S
C1554 C1553 1.366 1_455 S
C1554 C1555 1.414 . S
C1554 C1557 1.499 . S
C1555 H1529 0.950 . S
C1555 C1554 1.414 . S
C1555 C1556 1.374 . S
C1556 H1530 0.950 . S
C1556 C1552 1.385 1_455 S
C1556 C1555 1.374 . S
C1557 C1554 1.499 . S
C1557 C1558 1.373 . S
C1557 C1559 1.389 . S
C1558 H1531 0.950 . S
C1558 C1544 1.377 . S
C1558 C1557 1.373 . S
C1559 C1543 1.377 . S
C1559 C1557 1.389 . S
C1559 C1560 1.524 . S
C1560 C1559 1.524 . S
C1560 C1561 1.397 . S
C1560 C1565 1.363 . S
C1561 H1532 0.950 . S
C1561 C1560 1.397 . S
C1561 C1562 1.334 . S
C1562 H1533 0.950 . S
C1562 C1561 1.334 . S
C1562 C1563 1.287 1_455 S
C1563 C1562 1.287 1_655 S
C1563 C1564 1.524 . S
C1563 H1566 0.999 . S
C1564 H1534 0.950 . S
C1564 C1563 1.524 . S
C1564 C1565 1.415 1_655 S
C1565 H1535 0.950 . S
C1565 C1560 1.363 . S
C1565 C1564 1.415 1_455 S
H1566 C1563 0.999 . S
H1567 C1548 0.913 . S
H1568 C1586 0.951 . S
H1569 C1588 0.951 . S
H1570 C1590 0.950 . S
H1571 C1591 0.950 . S
H1572 C1593 0.950 . S
H1573 C1596 0.950 . S
H1574 C1597 0.950 . S
H1575 C1599 0.950 . S
H1576 C1600 0.950 . S
H1577 C1601 0.951 . S
H1578 C1603 0.951 . S
H1579 C1605 0.950 . S
H1580 C1606 0.950 . S
H1581 C1608 0.950 . S
H1582 C1611 0.950 . S
H1583 C1612 0.950 . S
H1584 C1614 0.950 . S
H1585 C1615 0.950 . S
C1586 H1568 0.951 . S
C1586 C1587 1.366 . S
C1586 C1588 1.388 . S
C1587 C1586 1.366 . S
C1587 C1591 1.385 . S
C1588 H1569 0.951 . S
C1588 C1586 1.388 . S
C1588 C1589 1.366 . S
C1589 C1588 1.366 . S
C1589 C1590 1.414 . S
C1589 C1592 1.499 . S
C1590 H1570 0.950 . S
C1590 C1589 1.414 . S
C1590 C1591 1.374 . S
C1591 H1571 0.950 . S
C1591 C1587 1.385 . S
C1591 C1590 1.374 . S
C1592 C1589 1.499 . S
C1592 C1593 1.373 . S
C1592 C1594 1.389 . S
C1593 H1572 0.950 . S
C1593 C1592 1.373 . S
C1593 C1609 1.377 . S
C1594 C1592 1.389 . S
C1594 C1595 1.524 . S
C1594 C1608 1.377 . S
C1595 C1594 1.524 . S
C1595 C1596 1.397 . S
C1595 C1600 1.363 . S
C1596 H1573 0.950 . S
C1596 C1595 1.397 . S
C1596 C1597 1.334 . S
C1597 H1574 0.950 . S
C1597 C1596 1.334 . S
C1597 C1598 1.287 . S
C1598 C1597 1.287 . S
C1598 C1599 1.524 . S
C1598 H1617 0.913 . S
C1599 H1575 0.950 . S
C1599 C1598 1.524 . S
C1599 C1600 1.415 . S
C1600 H1576 0.950 . S
C1600 C1595 1.363 . S
C1600 C1599 1.415 . S
C1601 H1577 0.951 . S
C1601 C1602 1.366 . S
C1601 C1603 1.388 . S
C1602 C1601 1.366 . S
C1602 C1606 1.385 . S
C1603 H1578 0.951 . S
C1603 C1601 1.388 . S
C1603 C1604 1.366 . S
C1604 C1603 1.366 . S
C1604 C1605 1.414 . S
C1604 C1607 1.499 . S
C1605 H1579 0.950 . S
C1605 C1604 1.414 . S
C1605 C1606 1.374 . S
C1606 H1580 0.950 . S
C1606 C1602 1.385 . S
C1606 C1605 1.374 . S
C1607 C1604 1.499 . S
C1607 C1608 1.373 . S
C1607 C1609 1.389 . S
C1608 H1581 0.950 . S
C1608 C1594 1.377 . S
C1608 C1607 1.373 . S
C1609 C1593 1.377 . S
C1609 C1607 1.389 . S
C1609 C1610 1.524 . S
C1610 C1609 1.524 . S
C1610 C1611 1.397 . S
C1610 C1615 1.363 . S
C1611 H1582 0.950 . S
C1611 C1610 1.397 . S
C1611 C1612 1.334 . S
C1612 H1583 0.950 . S
C1612 C1611 1.334 . S
C1612 C1613 1.287 . S
C1613 C1612 1.287 . S
C1613 C1614 1.524 . S
C1613 H1616 0.999 . S
C1614 H1584 0.950 . S
C1614 C1613 1.524 . S
C1614 C1615 1.415 . S
C1615 H1585 0.950 . S
C1615 C1610 1.363 . S
C1615 C1614 1.415 . S
H1616 C1613 0.999 . S
H1617 C1598 0.913 . S
H1618 C1636 0.951 . S
H1619 C1638 0.951 . S
H1620 C1640 0.950 . S
H1621 C1641 0.950 . S
H1622 C1643 0.950 . S
H1623 C1646 0.950 . S
H1624 C1647 0.950 . S
H1625 C1649 0.950 . S
H1626 C1650 0.950 . S
H1627 C1651 0.951 . S
H1628 C1653 0.951 . S
H1629 C1655 0.950 . S
H1630 C1656 0.950 . S
H1631 C1658 0.950 . S
H1632 C1661 0.950 . S
H1633 C1662 0.950 . S
H1634 C1664 0.950 . S
H1635 C1665 0.950 . S
C1636 H1618 0.951 . S
C1636 C1637 1.366 . S
C1636 C1638 1.388 . S
C1637 C1636 1.366 . S
C1637 C1641 1.385 . S
C1638 H1619 0.951 . S
C1638 C1636 1.388 . S
C1638 C1639 1.366 . S
C1639 C1638 1.366 . S
C1639 C1640 1.414 . S
C1639 C1642 1.499 . S
C1640 H1620 0.950 . S
C1640 C1639 1.414 . S
C1640 C1641 1.374 . S
C1641 H1621 0.950 . S
C1641 C1637 1.385 . S
C1641 C1640 1.374 . S
C1642 C1639 1.499 . S
C1642 C1643 1.373 . S
C1642 C1644 1.389 . S
C1643 H1622 0.950 . S
C1643 C1642 1.373 . S
C1643 C1659 1.377 . S
C1644 C1642 1.389 . S
C1644 C1645 1.524 . S
C1644 C1658 1.377 . S
C1645 C1644 1.524 . S
C1645 C1646 1.397 . S
C1645 C1650 1.363 . S
C1646 H1623 0.950 . S
C1646 C1645 1.397 . S
C1646 C1647 1.334 . S
C1647 H1624 0.950 . S
C1647 C1646 1.334 . S
C1647 C1648 1.287 . S
C1648 C1647 1.287 . S
C1648 C1649 1.524 . S
C1648 H1667 0.913 . S
C1649 H1625 0.950 . S
C1649 C1648 1.524 . S
C1649 C1650 1.415 . S
C1650 H1626 0.950 . S
C1650 C1645 1.363 . S
C1650 C1649 1.415 . S
C1651 H1627 0.951 . S
C1651 C1652 1.366 . S
C1651 C1653 1.388 . S
C1652 C1651 1.366 . S
C1652 C1656 1.385 . S
C1653 H1628 0.951 . S
C1653 C1651 1.388 . S
C1653 C1654 1.366 . S
C1654 C1653 1.366 . S
C1654 C1655 1.414 . S
C1654 C1657 1.499 . S
C1655 H1629 0.950 . S
C1655 C1654 1.414 . S
C1655 C1656 1.374 . S
C1656 H1630 0.950 . S
C1656 C1652 1.385 . S
C1656 C1655 1.374 . S
C1657 C1654 1.499 . S
C1657 C1658 1.373 . S
C1657 C1659 1.389 . S
C1658 H1631 0.950 . S
C1658 C1644 1.377 . S
C1658 C1657 1.373 . S
C1659 C1643 1.377 . S
C1659 C1657 1.389 . S
C1659 C1660 1.524 . S
C1660 C1659 1.524 . S
C1660 C1661 1.397 . S
C1660 C1665 1.363 . S
C1661 H1632 0.950 . S
C1661 C1660 1.397 . S
C1661 C1662 1.334 . S
C1662 H1633 0.950 . S
C1662 C1661 1.334 . S
C1662 C1663 1.287 . S
C1663 C1662 1.287 . S
C1663 C1664 1.524 . S
C1663 H1666 0.999 . S
C1664 H1634 0.950 . S
C1664 C1663 1.524 . S
C1664 C1665 1.415 . S
C1665 H1635 0.950 . S
C1665 C1660 1.363 . S
C1665 C1664 1.415 . S
H1666 C1663 0.999 . S
H1667 C1648 0.913 . S
H1668 C1686 0.951 . S
H1669 C1688 0.951 . S
H1670 C1690 0.950 . S
H1671 C1691 0.950 . S
H1672 C1693 0.950 . S
H1673 C1696 0.950 . S
H1674 C1697 0.950 . S
H1675 C1699 0.950 . S
H1676 C1700 0.950 . S
H1677 C1701 0.951 . S
H1678 C1703 0.951 . S
H1679 C1705 0.950 . S
H1680 C1706 0.950 . S
H1681 C1708 0.950 . S
H1682 C1711 0.950 . S
H1683 C1712 0.950 . S
H1684 C1714 0.950 . S
H1685 C1715 0.950 . S
C1686 H1668 0.951 . S
C1686 C1687 1.366 . S
C1686 C1688 1.388 . S
C1687 C1686 1.366 . S
C1687 C1691 1.385 . S
C1688 H1669 0.951 . S
C1688 C1686 1.388 . S
C1688 C1689 1.366 . S
C1689 C1688 1.366 . S
C1689 C1690 1.414 . S
C1689 C1692 1.499 . S
C1690 H1670 0.950 . S
C1690 C1689 1.414 . S
C1690 C1691 1.374 . S
C1691 H1671 0.950 . S
C1691 C1687 1.385 . S
C1691 C1690 1.374 . S
C1692 C1689 1.499 . S
C1692 C1693 1.373 . S
C1692 C1694 1.389 . S
C1693 H1672 0.950 . S
C1693 C1692 1.373 . S
C1693 C1709 1.377 . S
C1694 C1692 1.389 . S
C1694 C1695 1.524 . S
C1694 C1708 1.377 . S
C1695 C1694 1.524 . S
C1695 C1696 1.397 . S
C1695 C1700 1.363 . S
C1696 H1673 0.950 . S
C1696 C1695 1.397 . S
C1696 C1697 1.334 . S
C1697 H1674 0.950 . S
C1697 C1696 1.334 . S
C1697 C1698 1.287 . S
C1698 C1697 1.287 . S
C1698 C1699 1.524 . S
C1698 H1717 0.913 . S
C1699 H1675 0.950 . S
C1699 C1698 1.524 . S
C1699 C1700 1.415 . S
C1700 H1676 0.950 . S
C1700 C1695 1.363 . S
C1700 C1699 1.415 . S
C1701 H1677 0.951 . S
C1701 C1702 1.366 . S
C1701 C1703 1.388 . S
C1702 C1701 1.366 . S
C1702 C1706 1.385 . S
C1703 H1678 0.951 . S
C1703 C1701 1.388 . S
C1703 C1704 1.366 . S
C1704 C1703 1.366 . S
C1704 C1705 1.414 . S
C1704 C1707 1.499 . S
C1705 H1679 0.950 . S
C1705 C1704 1.414 . S
C1705 C1706 1.374 . S
C1706 H1680 0.950 . S
C1706 C1702 1.385 . S
C1706 C1705 1.374 . S
C1707 C1704 1.499 . S
C1707 C1708 1.373 . S
C1707 C1709 1.389 . S
C1708 H1681 0.950 . S
C1708 C1694 1.377 . S
C1708 C1707 1.373 . S
C1709 C1693 1.377 . S
C1709 C1707 1.389 . S
C1709 C1710 1.524 . S
C1710 C1709 1.524 . S
C1710 C1711 1.397 . S
C1710 C1715 1.363 . S
C1711 H1682 0.950 . S
C1711 C1710 1.397 . S
C1711 C1712 1.334 . S
C1712 H1683 0.950 . S
C1712 C1711 1.334 . S
C1712 C1713 1.287 . S
C1713 C1712 1.287 . S
C1713 C1714 1.524 . S
C1713 H1716 0.999 . S
C1714 H1684 0.950 . S
C1714 C1713 1.524 . S
C1714 C1715 1.415 . S
C1715 H1685 0.950 . S
C1715 C1710 1.363 . S
C1715 C1714 1.415 . S
H1716 C1713 0.999 . S
H1717 C1698 0.913 . S
H1718 C1736 0.951 . S
H1719 C1738 0.951 . S
H1720 C1740 0.950 . S
H1721 C1741 0.950 . S
H1722 C1743 0.950 . S
H1723 C1746 0.950 . S
H1724 C1747 0.950 . S
H1725 C1749 0.950 . S
H1726 C1750 0.950 . S
H1727 C1751 0.951 . S
H1728 C1753 0.951 . S
H1729 C1755 0.950 . S
H1730 C1756 0.950 . S
H1731 C1758 0.950 . S
H1732 C1761 0.950 . S
H1733 C1762 0.950 . S
H1734 C1764 0.950 . S
H1735 C1765 0.950 . S
C1736 H1718 0.951 . S
C1736 C1737 1.366 . S
C1736 C1738 1.388 . S
C1737 C1736 1.366 . S
C1737 C1741 1.385 . S
C1738 H1719 0.951 . S
C1738 C1736 1.388 . S
C1738 C1739 1.366 . S
C1739 C1738 1.366 . S
C1739 C1740 1.414 . S
C1739 C1742 1.499 . S
C1740 H1720 0.950 . S
C1740 C1739 1.414 . S
C1740 C1741 1.374 . S
C1741 H1721 0.950 . S
C1741 C1737 1.385 . S
C1741 C1740 1.374 . S
C1742 C1739 1.499 . S
C1742 C1743 1.373 . S
C1742 C1744 1.389 . S
C1743 H1722 0.950 . S
C1743 C1742 1.373 . S
C1743 C1759 1.377 . S
C1744 C1742 1.389 . S
C1744 C1745 1.524 . S
C1744 C1758 1.377 . S
C1745 C1744 1.524 . S
C1745 C1746 1.397 . S
C1745 C1750 1.363 . S
C1746 H1723 0.950 . S
C1746 C1745 1.397 . S
C1746 C1747 1.334 . S
C1747 H1724 0.950 . S
C1747 C1746 1.334 . S
C1747 C1748 1.287 . S
C1748 C1747 1.287 . S
C1748 C1749 1.524 . S
C1748 H1767 0.913 . S
C1749 H1725 0.950 . S
C1749 C1748 1.524 . S
C1749 C1750 1.415 . S
C1750 H1726 0.950 . S
C1750 C1745 1.363 . S
C1750 C1749 1.415 . S
C1751 H1727 0.951 . S
C1751 C1752 1.366 . S
C1751 C1753 1.388 . S
C1752 C1751 1.366 . S
C1752 C1756 1.385 . S
C1753 H1728 0.951 . S
C1753 C1751 1.388 . S
C1753 C1754 1.366 . S
C1754 C1753 1.366 . S
C1754 C1755 1.414 . S
C1754 C1757 1.499 . S
C1755 H1729 0.950 . S
C1755 C1754 1.414 . S
C1755 C1756 1.374 . S
C1756 H1730 0.950 . S
C1756 C1752 1.385 . S
C1756 C1755 1.374 . S
C1757 C1754 1.499 . S
C1757 C1758 1.373 . S
C1757 C1759 1.389 . S
C1758 H1731 0.950 . S
C1758 C1744 1.377 . S
C1758 C1757 1.373 . S
C1759 C1743 1.377 . S
C1759 C1757 1.389 . S
C1759 C1760 1.524 . S
C1760 C1759 1.524 . S
C1760 C1761 1.397 . S
C1760 C1765 1.363 . S
C1761 H1732 0.950 . S
C1761 C1760 1.397 . S
C1761 C1762 1.334 . S
C1762 H1733 0.950 . S
C1762 C1761 1.334 . S
C1762 C1763 1.287 . S
C1763 C1762 1.287 . S
C1763 C1764 1.524 . S
C1763 H1766 0.999 . S
C1764 H1734 0.950 . S
C1764 C1763 1.524 . S
C1764 C1765 1.415 . S
C1765 H1735 0.950 . S
C1765 C1760 1.363 . S
C1765 C1764 1.415 . S
H1766 C1763 0.999 . S
H1767 C1748 0.913 . S
H1768 C1786 0.951 . S
H1769 C1788 0.951 . S
H1770 C1790 0.950 . S
H1771 C1791 0.950 . S
H1772 C1793 0.950 . S
H1773 C1796 0.950 . S
H1774 C1797 0.950 . S
H1775 C1799 0.950 . S
H1776 C1800 0.950 . S
H1777 C1801 0.951 . S
H1778 C1803 0.951 . S
H1779 C1805 0.950 . S
H1780 C1806 0.950 . S
H1781 C1808 0.950 . S
H1782 C1811 0.950 . S
H1783 C1812 0.950 . S
H1784 C1814 0.950 . S
H1785 C1815 0.950 . S
C1786 H1768 0.951 . S
C1786 C1787 1.366 . S
C1786 C1788 1.388 . S
C1787 C1786 1.366 . S
C1787 C1791 1.385 . S
C1788 H1769 0.951 . S
C1788 C1786 1.388 . S
C1788 C1789 1.366 . S
C1789 C1788 1.366 . S
C1789 C1790 1.414 . S
C1789 C1792 1.499 . S
C1790 H1770 0.950 . S
C1790 C1789 1.414 . S
C1790 C1791 1.374 . S
C1791 H1771 0.950 . S
C1791 C1787 1.385 . S
C1791 C1790 1.374 . S
C1792 C1789 1.499 . S
C1792 C1793 1.373 . S
C1792 C1794 1.389 . S
C1793 H1772 0.950 . S
C1793 C1792 1.373 . S
C1793 C1809 1.377 . S
C1794 C1792 1.389 . S
C1794 C1795 1.524 . S
C1794 C1808 1.377 . S
C1795 C1794 1.524 . S
C1795 C1796 1.397 . S
C1795 C1800 1.363 . S
C1796 H1773 0.950 . S
C1796 C1795 1.397 . S
C1796 C1797 1.334 . S
C1797 H1774 0.950 . S
C1797 C1796 1.334 . S
C1797 C1798 1.287 . S
C1798 C1797 1.287 . S
C1798 C1799 1.524 . S
C1798 H1817 0.913 . S
C1799 H1775 0.950 . S
C1799 C1798 1.524 . S
C1799 C1800 1.415 . S
C1800 H1776 0.950 . S
C1800 C1795 1.363 . S
C1800 C1799 1.415 . S
C1801 H1777 0.951 . S
C1801 C1802 1.366 . S
C1801 C1803 1.388 . S
C1802 C1801 1.366 . S
C1802 C1806 1.385 . S
C1803 H1778 0.951 . S
C1803 C1801 1.388 . S
C1803 C1804 1.366 . S
C1804 C1803 1.366 . S
C1804 C1805 1.414 . S
C1804 C1807 1.499 . S
C1805 H1779 0.950 . S
C1805 C1804 1.414 . S
C1805 C1806 1.374 . S
C1806 H1780 0.950 . S
C1806 C1802 1.385 . S
C1806 C1805 1.374 . S
C1807 C1804 1.499 . S
C1807 C1808 1.373 . S
C1807 C1809 1.389 . S
C1808 H1781 0.950 . S
C1808 C1794 1.377 . S
C1808 C1807 1.373 . S
C1809 C1793 1.377 . S
C1809 C1807 1.389 . S
C1809 C1810 1.524 . S
C1810 C1809 1.524 . S
C1810 C1811 1.397 . S
C1810 C1815 1.363 . S
C1811 H1782 0.950 . S
C1811 C1810 1.397 . S
C1811 C1812 1.334 . S
C1812 H1783 0.950 . S
C1812 C1811 1.334 . S
C1812 C1813 1.287 . S
C1813 C1812 1.287 . S
C1813 C1814 1.524 . S
C1813 H1816 0.999 . S
C1814 H1784 0.950 . S
C1814 C1813 1.524 . S
C1814 C1815 1.415 . S
C1815 H1785 0.950 . S
C1815 C1810 1.363 . S
C1815 C1814 1.415 . S
H1816 C1813 0.999 . S
H1817 C1798 0.913 . S
H1818 C1836 0.951 . S
H1819 C1838 0.951 . S
H1820 C1840 0.950 . S
H1821 C1841 0.950 . S
H1822 C1843 0.950 . S
H1823 C1846 0.950 . S
H1824 C1847 0.950 . S
H1825 C1849 0.950 . S
H1826 C1850 0.950 . S
H1827 C1851 0.951 . S
H1828 C1853 0.951 . S
H1829 C1855 0.950 . S
H1830 C1856 0.950 . S
H1831 C1858 0.950 . S
H1832 C1861 0.950 . S
H1833 C1862 0.950 . S
H1834 C1864 0.950 . S
H1835 C1865 0.950 . S
C1836 H1818 0.951 . S
C1836 C1837 1.366 . S
C1836 C1838 1.388 . S
C1837 C1836 1.366 . S
C1837 C1841 1.385 . S
C1838 H1819 0.951 . S
C1838 C1836 1.388 . S
C1838 C1839 1.366 . S
C1839 C1838 1.366 . S
C1839 C1840 1.414 . S
C1839 C1842 1.499 . S
C1840 H1820 0.950 . S
C1840 C1839 1.414 . S
C1840 C1841 1.374 . S
C1841 H1821 0.950 . S
C1841 C1837 1.385 . S
C1841 C1840 1.374 . S
C1842 C1839 1.499 . S
C1842 C1843 1.373 . S
C1842 C1844 1.389 . S
C1843 H1822 0.950 . S
C1843 C1842 1.373 . S
C1843 C1859 1.377 . S
C1844 C1842 1.389 . S
C1844 C1845 1.524 . S
C1844 C1858 1.377 . S
C1845 C1844 1.524 . S
C1845 C1846 1.397 . S
C1845 C1850 1.363 . S
C1846 H1823 0.950 . S
C1846 C1845 1.397 . S
C1846 C1847 1.334 . S
C1847 H1824 0.950 . S
C1847 C1846 1.334 . S
C1847 C1848 1.287 . S
C1848 C1847 1.287 . S
C1848 C1849 1.524 . S
C1848 H1867 0.913 . S
C1849 H1825 0.950 . S
C1849 C1848 1.524 . S
C1849 C1850 1.415 . S
C1850 H1826 0.950 . S
C1850 C1845 1.363 . S
C1850 C1849 1.415 . S
C1851 H1827 0.951 . S
C1851 C1852 1.366 . S
C1851 C1853 1.388 . S
C1852 C1851 1.366 . S
C1852 C1856 1.385 . S
C1853 H1828 0.951 . S
C1853 C1851 1.388 . S
C1853 C1854 1.366 . S
C1854 C1853 1.366 . S
C1854 C1855 1.414 . S
C1854 C1857 1.499 . S
C1855 H1829 0.950 . S
C1855 C1854 1.414 . S
C1855 C1856 1.374 . S
C1856 H1830 0.950 . S
C1856 C1852 1.385 . S
C1856 C1855 1.374 . S
C1857 C1854 1.499 . S
C1857 C1858 1.373 . S
C1857 C1859 1.389 . S
C1858 H1831 0.950 . S
C1858 C1844 1.377 . S
C1858 C1857 1.373 . S
C1859 C1843 1.377 . S
C1859 C1857 1.389 . S
C1859 C1860 1.524 . S
C1860 C1859 1.524 . S
C1860 C1861 1.397 . S
C1860 C1865 1.363 . S
C1861 H1832 0.950 . S
C1861 C1860 1.397 . S
C1861 C1862 1.334 . S
C1862 H1833 0.950 . S
C1862 C1861 1.334 . S
C1862 C1863 1.287 . S
C1863 C1862 1.287 . S
C1863 C1864 1.524 . S
C1863 H1866 0.999 . S
C1864 H1834 0.950 . S
C1864 C1863 1.524 . S
C1864 C1865 1.415 . S
C1865 H1835 0.950 . S
C1865 C1860 1.363 . S
C1865 C1864 1.415 . S
H1866 C1863 0.999 . S
H1867 C1848 0.913 . S
H1868 C1886 0.951 . S
H1869 C1888 0.951 . S
H1870 C1890 0.950 . S
H1871 C1891 0.950 . S
H1872 C1893 0.950 . S
H1873 C1896 0.950 . S
H1874 C1897 0.950 . S
H1875 C1899 0.950 . S
H1876 C1900 0.950 . S
H1877 C1901 0.951 . S
H1878 C1903 0.951 . S
H1879 C1905 0.950 . S
H1880 C1906 0.950 . S
H1881 C1908 0.950 . S
H1882 C1911 0.950 . S
H1883 C1912 0.950 . S
H1884 C1914 0.950 . S
H1885 C1915 0.950 . S
C1886 H1868 0.951 . S
C1886 C1887 1.366 . S
C1886 C1888 1.388 . S
C1887 C1886 1.366 . S
C1887 C1891 1.385 . S
C1888 H1869 0.951 . S
C1888 C1886 1.388 . S
C1888 C1889 1.366 . S
C1889 C1888 1.366 . S
C1889 C1890 1.414 . S
C1889 C1892 1.499 . S
C1890 H1870 0.950 . S
C1890 C1889 1.414 . S
C1890 C1891 1.374 . S
C1891 H1871 0.950 . S
C1891 C1887 1.385 . S
C1891 C1890 1.374 . S
C1892 C1889 1.499 . S
C1892 C1893 1.373 . S
C1892 C1894 1.389 . S
C1893 H1872 0.950 . S
C1893 C1892 1.373 . S
C1893 C1909 1.377 . S
C1894 C1892 1.389 . S
C1894 C1895 1.524 . S
C1894 C1908 1.377 . S
C1895 C1894 1.524 . S
C1895 C1896 1.397 . S
C1895 C1900 1.363 . S
C1896 H1873 0.950 . S
C1896 C1895 1.397 . S
C1896 C1897 1.334 . S
C1897 H1874 0.950 . S
C1897 C1896 1.334 . S
C1897 C1898 1.287 . S
C1898 C1897 1.287 . S
C1898 C1899 1.524 . S
C1898 H1917 0.913 . S
C1899 H1875 0.950 . S
C1899 C1898 1.524 . S
C1899 C1900 1.415 . S
C1900 H1876 0.950 . S
C1900 C1895 1.363 . S
C1900 C1899 1.415 . S
C1901 H1877 0.951 . S
C1901 C1902 1.366 . S
C1901 C1903 1.388 . S
C1902 C1901 1.366 . S
C1902 C1906 1.385 . S
C1903 H1878 0.951 . S
C1903 C1901 1.388 . S
C1903 C1904 1.366 . S
C1904 C1903 1.366 . S
C1904 C1905 1.414 . S
C1904 C1907 1.499 . S
C1905 H1879 0.950 . S
C1905 C1904 1.414 . S
C1905 C1906 1.374 . S
C1906 H1880 0.950 . S
C1906 C1902 1.385 . S
C1906 C1905 1.374 . S
C1907 C1904 1.499 . S
C1907 C1908 1.373 . S
C1907 C1909 1.389 . S
C1908 H1881 0.950 . S
C1908 C1894 1.377 . S
C1908 C1907 1.373 . S
C1909 C1893 1.377 . S
C1909 C1907 1.389 . S
C1909 C1910 1.524 . S
C1910 C1909 1.524 . S
C1910 C1911 1.397 . S
C1910 C1915 1.363 . S
C1911 H1882 0.950 . S
C1911 C1910 1.397 . S
C1911 C1912 1.334 . S
C1912 H1883 0.950 . S
C1912 C1911 1.334 . S
C1912 C1913 1.287 . S
C1913 C1912 1.287 . S
C1913 C1914 1.524 . S
C1913 H1916 0.999 . S
C1914 H1884 0.950 . S
C1914 C1913 1.524 . S
C1914 C1915 1.415 . S
C1915 H1885 0.950 . S
C1915 C1910 1.363 . S
C1915 C1914 1.415 . S
H1916 C1913 0.999 . S
H1917 C1898 0.913 . S
H1918 C1936 0.951 . S
H1919 C1938 0.951 . S
H1920 C1940 0.950 . S
H1921 C1941 0.950 . S
H1922 C1943 0.950 . S
H1923 C1946 0.950 . S
H1924 C1947 0.950 . S
H1925 C1949 0.950 . S
H1926 C1950 0.950 . S
H1927 C1951 0.951 . S
H1928 C1953 0.951 . S
H1929 C1955 0.950 . S
H1930 C1956 0.950 . S
H1931 C1958 0.950 . S
H1932 C1961 0.950 . S
H1933 C1962 0.950 . S
H1934 C1964 0.950 . S
H1935 C1965 0.950 . S
C1936 H1918 0.951 . S
C1936 C1937 1.366 . S
C1936 C1938 1.388 . S
C1937 C1936 1.366 . S
C1937 C1941 1.385 . S
C1938 H1919 0.951 . S
C1938 C1936 1.388 . S
C1938 C1939 1.366 . S
C1939 C1938 1.366 . S
C1939 C1940 1.414 . S
C1939 C1942 1.499 . S
C1940 H1920 0.950 . S
C1940 C1939 1.414 . S
C1940 C1941 1.374 . S
C1941 H1921 0.950 . S
C1941 C1937 1.385 . S
C1941 C1940 1.374 . S
C1942 C1939 1.499 . S
C1942 C1943 1.373 . S
C1942 C1944 1.389 . S
C1943 H1922 0.950 . S
C1943 C1942 1.373 . S
C1943 C1959 1.377 . S
C1944 C1942 1.389 . S
C1944 C1945 1.524 . S
C1944 C1958 1.377 . S
C1945 C1944 1.524 . S
C1945 C1946 1.397 . S
C1945 C1950 1.363 . S
C1946 H1923 0.950 . S
C1946 C1945 1.397 . S
C1946 C1947 1.334 . S
C1947 H1924 0.950 . S
C1947 C1946 1.334 . S
C1947 C1948 1.287 . S
C1948 C1947 1.287 . S
C1948 C1949 1.524 . S
C1948 H1967 0.913 . S
C1949 H1925 0.950 . S
C1949 C1948 1.524 . S
C1949 C1950 1.415 . S
C1950 H1926 0.950 . S
C1950 C1945 1.363 . S
C1950 C1949 1.415 . S
C1951 H1927 0.951 . S
C1951 C1952 1.366 . S
C1951 C1953 1.388 . S
C1952 C1951 1.366 . S
C1952 C1956 1.385 . S
C1953 H1928 0.951 . S
C1953 C1951 1.388 . S
C1953 C1954 1.366 . S
C1954 C1953 1.366 . S
C1954 C1955 1.414 . S
C1954 C1957 1.499 . S
C1955 H1929 0.950 . S
C1955 C1954 1.414 . S
C1955 C1956 1.374 . S
C1956 H1930 0.950 . S
C1956 C1952 1.385 . S
C1956 C1955 1.374 . S
C1957 C1954 1.499 . S
C1957 C1958 1.373 . S
C1957 C1959 1.389 . S
C1958 H1931 0.950 . S
C1958 C1944 1.377 . S
C1958 C1957 1.373 . S
C1959 C1943 1.377 . S
C1959 C1957 1.389 . S
C1959 C1960 1.524 . S
C1960 C1959 1.524 . S
C1960 C1961 1.397 . S
C1960 C1965 1.363 . S
C1961 H1932 0.950 . S
C1961 C1960 1.397 . S
C1961 C1962 1.334 . S
C1962 H1933 0.950 . S
C1962 C1961 1.334 . S
C1962 C1963 1.287 . S
C1963 C1962 1.287 . S
C1963 C1964 1.524 . S
C1963 H1966 0.999 . S
C1964 H1934 0.950 . S
C1964 C1963 1.524 . S
C1964 C1965 1.415 . S
C1965 H1935 0.950 . S
C1965 C1960 1.363 . S
C1965 C1964 1.415 . S
H1966 C1963 0.999 . S
H1967 C1948 0.913 . S
H1968 C1986 0.951 . S
H1969 C1988 0.951 . S
H1970 C1990 0.950 . S
H1971 C1991 0.950 . S
H1972 C1993 0.950 . S
H1973 C1996 0.950 . S
H1974 C1997 0.950 . S
H1975 C1999 0.950 . S
H1976 C2000 0.950 . S
H1977 C2001 0.951 . S
H1978 C2003 0.951 . S
H1979 C2005 0.950 . S
H1980 C2006 0.950 . S
H1981 C2008 0.950 . S
H1982 C2011 0.950 . S
H1983 C2012 0.950 1_565 S
H1984 C2014 0.950 . S
H1985 C2015 0.950 . S
C1986 H1968 0.951 . S
C1986 C1987 1.366 . S
C1986 C1988 1.388 . S
C1987 C1986 1.366 . S
C1987 C1991 1.385 . S
C1988 H1969 0.951 . S
C1988 C1986 1.388 . S
C1988 C1989 1.366 . S
C1989 C1988 1.366 . S
C1989 C1990 1.414 . S
C1989 C1992 1.499 . S
C1990 H1970 0.950 . S
C1990 C1989 1.414 . S
C1990 C1991 1.374 . S
C1991 H1971 0.950 . S
C1991 C1987 1.385 . S
C1991 C1990 1.374 . S
C1992 C1989 1.499 . S
C1992 C1993 1.373 . S
C1992 C1994 1.389 . S
C1993 H1972 0.950 . S
C1993 C1992 1.373 . S
C1993 C2009 1.377 . S
C1994 C1992 1.389 . S
C1994 C1995 1.524 . S
C1994 C2008 1.377 . S
C1995 C1994 1.524 . S
C1995 C1996 1.397 . S
C1995 C2000 1.363 . S
C1996 H1973 0.950 . S
C1996 C1995 1.397 . S
C1996 C1997 1.334 . S
C1997 H1974 0.950 . S
C1997 C1996 1.334 . S
C1997 C1998 1.287 . S
C1998 C1997 1.287 . S
C1998 C1999 1.524 . S
C1998 H2017 0.913 . S
C1999 H1975 0.950 . S
C1999 C1998 1.524 . S
C1999 C2000 1.415 . S
C2000 H1976 0.950 . S
C2000 C1995 1.363 . S
C2000 C1999 1.415 . S
C2001 H1977 0.951 . S
C2001 C2002 1.366 . S
C2001 C2003 1.388 . S
C2002 C2001 1.366 . S
C2002 C2006 1.385 . S
C2003 H1978 0.951 . S
C2003 C2001 1.388 . S
C2003 C2004 1.366 . S
C2004 C2003 1.366 . S
C2004 C2005 1.414 . S
C2004 C2007 1.499 . S
C2005 H1979 0.950 . S
C2005 C2004 1.414 . S
C2005 C2006 1.374 . S
C2006 H1980 0.950 . S
C2006 C2002 1.385 . S
C2006 C2005 1.374 . S
C2007 C2004 1.499 . S
C2007 C2008 1.373 . S
C2007 C2009 1.389 . S
C2008 H1981 0.950 . S
C2008 C1994 1.377 . S
C2008 C2007 1.373 . S
C2009 C1993 1.377 . S
C2009 C2007 1.389 . S
C2009 C2010 1.524 . S
C2010 C2009 1.524 . S
C2010 C2011 1.397 . S
C2010 C2015 1.363 . S
C2011 H1982 0.950 . S
C2011 C2010 1.397 . S
C2011 C2012 1.334 . S
C2012 H1983 0.950 1_545 S
C2012 C2011 1.334 . S
C2012 C2013 1.287 . S
C2013 C2012 1.287 . S
C2013 C2014 1.524 . S
C2013 H2016 0.999 . S
C2014 H1984 0.950 . S
C2014 C2013 1.524 . S
C2014 C2015 1.415 . S
C2015 H1985 0.950 . S
C2015 C2010 1.363 . S
C2015 C2014 1.415 . S
H2016 C2013 0.999 . S
H2017 C1998 0.913 . S
H2018 C2036 0.951 . S
H2019 C2038 0.951 . S
H2020 C2040 0.950 . S
H2021 C2041 0.950 . S
H2022 C2043 0.950 . S
H2023 C2046 0.950 . S
H2024 C2047 0.950 . S
H2025 C2049 0.950 . S
H2026 C2050 0.950 . S
H2027 C2051 0.951 . S
H2028 C2053 0.951 . S
H2029 C2055 0.950 . S
H2030 C2056 0.950 . S
H2031 C2058 0.950 . S
H2032 C2061 0.950 . S
H2033 C2062 0.950 . S
H2034 C2064 0.950 . S
H2035 C2065 0.950 . S
C2036 H2018 0.951 . S
C2036 C2037 1.366 . S
C2036 C2038 1.388 . S
C2037 C2036 1.366 . S
C2037 C2041 1.385 . S
C2038 H2019 0.951 . S
C2038 C2036 1.388 . S
C2038 C2039 1.366 . S
C2039 C2038 1.366 . S
C2039 C2040 1.414 . S
C2039 C2042 1.499 . S
C2040 H2020 0.950 . S
C2040 C2039 1.414 . S
C2040 C2041 1.374 . S
C2041 H2021 0.950 . S
C2041 C2037 1.385 . S
C2041 C2040 1.374 . S
C2042 C2039 1.499 . S
C2042 C2043 1.373 . S
C2042 C2044 1.389 . S
C2043 H2022 0.950 . S
C2043 C2042 1.373 . S
C2043 C2059 1.377 . S
C2044 C2042 1.389 . S
C2044 C2045 1.524 . S
C2044 C2058 1.377 . S
C2045 C2044 1.524 . S
C2045 C2046 1.397 . S
C2045 C2050 1.363 . S
C2046 H2023 0.950 . S
C2046 C2045 1.397 . S
C2046 C2047 1.334 . S
C2047 H2024 0.950 . S
C2047 C2046 1.334 . S
C2047 C2048 1.287 . S
C2048 C2047 1.287 . S
C2048 C2049 1.524 . S
C2048 H2067 0.913 . S
C2049 H2025 0.950 . S
C2049 C2048 1.524 . S
C2049 C2050 1.415 . S
C2050 H2026 0.950 . S
C2050 C2045 1.363 . S
C2050 C2049 1.415 . S
C2051 H2027 0.951 . S
C2051 C2052 1.366 . S
C2051 C2053 1.388 . S
C2052 C2051 1.366 . S
C2052 C2056 1.385 . S
C2053 H2028 0.951 . S
C2053 C2051 1.388 . S
C2053 C2054 1.366 . S
C2054 C2053 1.366 . S
C2054 C2055 1.414 . S
C2054 C2057 1.499 . S
C2055 H2029 0.950 . S
C2055 C2054 1.414 . S
C2055 C2056 1.374 . S
C2056 H2030 0.950 . S
C2056 C2052 1.385 . S
C2056 C2055 1.374 . S
C2057 C2054 1.499 . S
C2057 C2058 1.373 . S
C2057 C2059 1.389 . S
C2058 H2031 0.950 . S
C2058 C2044 1.377 . S
C2058 C2057 1.373 . S
C2059 C2043 1.377 . S
C2059 C2057 1.389 . S
C2059 C2060 1.524 . S
C2060 C2059 1.524 . S
C2060 C2061 1.397 . S
C2060 C2065 1.363 . S
C2061 H2032 0.950 . S
C2061 C2060 1.397 . S
C2061 C2062 1.334 . S
C2062 H2033 0.950 . S
C2062 C2061 1.334 . S
C2062 C2063 1.287 . S
C2063 C2062 1.287 . S
C2063 C2064 1.524 . S
C2063 H2066 0.999 . S
C2064 H2034 0.950 . S
C2064 C2063 1.524 . S
C2064 C2065 1.415 . S
C2065 H2035 0.950 . S
C2065 C2060 1.363 . S
C2065 C2064 1.415 . S
H2066 C2063 0.999 . S
H2067 C2048 0.913 . S
H2068 C2086 0.951 . S
H2069 C2088 0.951 . S
H2070 C2090 0.950 . S
H2071 C2091 0.950 . S
H2072 C2093 0.950 . S
H2073 C2096 0.950 . S
H2074 C2097 0.950 . S
H2075 C2099 0.950 . S
H2076 C2100 0.950 . S
H2077 C2101 0.951 . S
H2078 C2103 0.951 . S
H2079 C2105 0.950 . S
H2080 C2106 0.950 . S
H2081 C2108 0.950 . S
H2082 C2111 0.950 . S
H2083 C2112 0.950 . S
H2084 C2114 0.950 . S
H2085 C2115 0.950 . S
C2086 H2068 0.951 . S
C2086 C2087 1.366 . S
C2086 C2088 1.388 . S
C2087 C2086 1.366 . S
C2087 C2091 1.385 . S
C2088 H2069 0.951 . S
C2088 C2086 1.388 . S
C2088 C2089 1.366 . S
C2089 C2088 1.366 . S
C2089 C2090 1.414 . S
C2089 C2092 1.499 . S
C2090 H2070 0.950 . S
C2090 C2089 1.414 . S
C2090 C2091 1.374 . S
C2091 H2071 0.950 . S
C2091 C2087 1.385 . S
C2091 C2090 1.374 . S
C2092 C2089 1.499 . S
C2092 C2093 1.373 . S
C2092 C2094 1.389 . S
C2093 H2072 0.950 . S
C2093 C2092 1.373 . S
C2093 C2109 1.377 . S
C2094 C2092 1.389 . S
C2094 C2095 1.524 . S
C2094 C2108 1.377 . S
C2095 C2094 1.524 . S
C2095 C2096 1.397 . S
C2095 C2100 1.363 . S
C2096 H2073 0.950 . S
C2096 C2095 1.397 . S
C2096 C2097 1.334 . S
C2097 H2074 0.950 . S
C2097 C2096 1.334 . S
C2097 C2098 1.287 . S
C2098 C2097 1.287 . S
C2098 C2099 1.524 . S
C2098 H2117 0.913 . S
C2099 H2075 0.950 . S
C2099 C2098 1.524 . S
C2099 C2100 1.415 . S
C2100 H2076 0.950 . S
C2100 C2095 1.363 . S
C2100 C2099 1.415 . S
C2101 H2077 0.951 . S
C2101 C2102 1.366 . S
C2101 C2103 1.388 . S
C2102 C2101 1.366 . S
C2102 C2106 1.385 . S
C2103 H2078 0.951 . S
C2103 C2101 1.388 . S
C2103 C2104 1.366 . S
C2104 C2103 1.366 . S
C2104 C2105 1.414 . S
C2104 C2107 1.499 . S
C2105 H2079 0.950 . S
C2105 C2104 1.414 . S
C2105 C2106 1.374 . S
C2106 H2080 0.950 . S
C2106 C2102 1.385 . S
C2106 C2105 1.374 . S
C2107 C2104 1.499 . S
C2107 C2108 1.373 . S
C2107 C2109 1.389 . S
C2108 H2081 0.950 . S
C2108 C2094 1.377 . S
C2108 C2107 1.373 . S
C2109 C2093 1.377 . S
C2109 C2107 1.389 . S
C2109 C2110 1.524 . S
C2110 C2109 1.524 . S
C2110 C2111 1.397 . S
C2110 C2115 1.363 . S
C2111 H2082 0.950 . S
C2111 C2110 1.397 . S
C2111 C2112 1.334 . S
C2112 H2083 0.950 . S
C2112 C2111 1.334 . S
C2112 C2113 1.287 . S
C2113 C2112 1.287 . S
C2113 C2114 1.524 . S
C2113 H2116 0.999 . S
C2114 H2084 0.950 . S
C2114 C2113 1.524 . S
C2114 C2115 1.415 . S
C2115 H2085 0.950 . S
C2115 C2110 1.363 . S
C2115 C2114 1.415 . S
H2116 C2113 0.999 . S
H2117 C2098 0.913 . S
H2118 C2136 0.951 . S
H2119 C2138 0.951 . S
H2120 C2140 0.950 . S
H2121 C2141 0.950 . S
H2122 C2143 0.950 . S
H2123 C2146 0.950 . S
H2124 C2147 0.950 . S
H2125 C2149 0.950 . S
H2126 C2150 0.950 . S
H2127 C2151 0.951 . S
H2128 C2153 0.951 . S
H2129 C2155 0.950 . S
H2130 C2156 0.950 . S
H2131 C2158 0.950 . S
H2132 C2161 0.950 . S
H2133 C2162 0.950 . S
H2134 C2164 0.950 . S
H2135 C2165 0.950 . S
C2136 H2118 0.951 . S
C2136 C2137 1.366 . S
C2136 C2138 1.388 . S
C2137 C2136 1.366 . S
C2137 C2141 1.385 . S
C2138 H2119 0.951 . S
C2138 C2136 1.388 . S
C2138 C2139 1.366 . S
C2139 C2138 1.366 . S
C2139 C2140 1.414 . S
C2139 C2142 1.499 . S
C2140 H2120 0.950 . S
C2140 C2139 1.414 . S
C2140 C2141 1.374 . S
C2141 H2121 0.950 . S
C2141 C2137 1.385 . S
C2141 C2140 1.374 . S
C2142 C2139 1.499 . S
C2142 C2143 1.373 . S
C2142 C2144 1.389 . S
C2143 H2122 0.950 . S
C2143 C2142 1.373 . S
C2143 C2159 1.377 . S
C2144 C2142 1.389 . S
C2144 C2145 1.524 . S
C2144 C2158 1.377 . S
C2145 C2144 1.524 . S
C2145 C2146 1.397 . S
C2145 C2150 1.363 . S
C2146 H2123 0.950 . S
C2146 C2145 1.397 . S
C2146 C2147 1.334 . S
C2147 H2124 0.950 . S
C2147 C2146 1.334 . S
C2147 C2148 1.287 . S
C2148 C2147 1.287 . S
C2148 C2149 1.524 . S
C2148 H2167 0.913 . S
C2149 H2125 0.950 . S
C2149 C2148 1.524 . S
C2149 C2150 1.415 . S
C2150 H2126 0.950 . S
C2150 C2145 1.363 . S
C2150 C2149 1.415 . S
C2151 H2127 0.951 . S
C2151 C2152 1.366 . S
C2151 C2153 1.388 . S
C2152 C2151 1.366 . S
C2152 C2156 1.385 . S
C2153 H2128 0.951 . S
C2153 C2151 1.388 . S
C2153 C2154 1.366 . S
C2154 C2153 1.366 . S
C2154 C2155 1.414 . S
C2154 C2157 1.499 . S
C2155 H2129 0.950 . S
C2155 C2154 1.414 . S
C2155 C2156 1.374 . S
C2156 H2130 0.950 . S
C2156 C2152 1.385 . S
C2156 C2155 1.374 . S
C2157 C2154 1.499 . S
C2157 C2158 1.373 . S
C2157 C2159 1.389 . S
C2158 H2131 0.950 . S
C2158 C2144 1.377 . S
C2158 C2157 1.373 . S
C2159 C2143 1.377 . S
C2159 C2157 1.389 . S
C2159 C2160 1.524 . S
C2160 C2159 1.524 . S
C2160 C2161 1.397 . S
C2160 C2165 1.363 . S
C2161 H2132 0.950 . S
C2161 C2160 1.397 . S
C2161 C2162 1.334 . S
C2162 H2133 0.950 . S
C2162 C2161 1.334 . S
C2162 C2163 1.287 . S
C2163 C2162 1.287 . S
C2163 C2164 1.524 . S
C2163 H2166 0.999 . S
C2164 H2134 0.950 . S
C2164 C2163 1.524 . S
C2164 C2165 1.415 . S
C2165 H2135 0.950 . S
C2165 C2160 1.363 . S
C2165 C2164 1.415 . S
H2166 C2163 0.999 . S
H2167 C2148 0.913 . S
H2168 C2186 0.951 . S
H2169 C2188 0.951 . S
H2170 C2190 0.950 . S
H2171 C2191 0.950 . S
H2172 C2193 0.952 . S
H2173 C2196 0.950 1_554 S
H2174 C2197 0.950 . S
H2175 C2199 0.947 1_545 S
H2176 C2200 0.950 . S
H2177 C2201 0.951 . S
H2178 C2203 0.951 . S
H2179 C2205 0.950 . S
H2180 C2206 0.950 . S
H2181 C2208 0.950 . S
H2182 C2211 0.950 . S
H2183 C2212 0.950 . S
H2184 C2214 0.950 . S
H2185 C2215 0.950 . S
C2186 H2168 0.951 . S
C2186 C2187 1.366 . S
C2186 C2188 1.388 . S
C2187 C2186 1.366 . S
C2187 C2191 1.385 . S
C2188 H2169 0.951 . S
C2188 C2186 1.388 . S
C2188 C2189 1.366 . S
C2189 C2188 1.366 . S
C2189 C2190 1.414 . S
C2189 C2192 1.499 . S
C2190 H2170 0.950 . S
C2190 C2189 1.414 . S
C2190 C2191 1.374 . S
C2191 H2171 0.950 . S
C2191 C2187 1.385 . S
C2191 C2190 1.374 . S
C2192 C2189 1.499 . S
C2192 C2193 1.373 1_556 S
C2192 C2194 1.389 1_556 S
C2193 H2172 0.952 . S
C2193 C2192 1.373 1_554 S
C2193 C2209 1.377 . S
C2194 C2192 1.389 1_554 S
C2194 C2195 1.524 1_554 S
C2194 C2208 1.377 . S
C2195 C2194 1.524 1_556 S
C2195 C2196 1.397 . S
C2195 C2200 1.363 . S
C2196 H2173 0.950 1_556 S
C2196 C2195 1.397 . S
C2196 C2197 1.334 1_565 S
C2197 H2174 0.950 . S
C2197 C2196 1.334 1_545 S
C2197 C2198 1.287 . S
C2198 C2197 1.287 . S
C2198 C2199 1.520 1_545 S
C2198 H2217 0.913 . S
C2199 H2175 0.947 1_565 S
C2199 C2198 1.520 1_565 S
C2199 C2200 1.422 . S
C2200 H2176 0.950 . S
C2200 C2195 1.363 . S
C2200 C2199 1.422 . S
C2201 H2177 0.951 . S
C2201 C2202 1.366 . S
C2201 C2203 1.388 . S
C2202 C2201 1.366 . S
C2202 C2206 1.385 . S
C2203 H2178 0.951 . S
C2203 C2201 1.388 . S
C2203 C2204 1.366 . S
C2204 C2203 1.366 . S
C2204 C2205 1.414 . S
C2204 C2207 1.499 . S
C2205 H2179 0.950 . S
C2205 C2204 1.414 . S
C2205 C2206 1.374 . S
C2206 H2180 0.950 . S
C2206 C2202 1.385 . S
C2206 C2205 1.374 . S
C2207 C2204 1.499 . S
C2207 C2208 1.373 . S
C2207 C2209 1.389 . S
C2208 H2181 0.950 . S
C2208 C2194 1.377 . S
C2208 C2207 1.373 . S
C2209 C2193 1.377 . S
C2209 C2207 1.389 . S
C2209 C2210 1.524 . S
C2210 C2209 1.524 . S
C2210 C2211 1.397 . S
C2210 C2215 1.363 . S
C2211 H2182 0.950 . S
C2211 C2210 1.397 . S
C2211 C2212 1.334 . S
C2212 H2183 0.950 . S
C2212 C2211 1.334 . S
C2212 C2213 1.287 . S
C2213 C2212 1.287 . S
C2213 C2214 1.524 . S
C2213 H2216 0.999 . S
C2214 H2184 0.950 . S
C2214 C2213 1.524 . S
C2214 C2215 1.415 . S
C2215 H2185 0.950 . S
C2215 C2210 1.363 . S
C2215 C2214 1.415 . S
H2216 C2213 0.999 . S
H2217 C2198 0.913 . S
H2218 C2236 0.951 . S
H2219 C2238 0.951 . S
H2220 C2240 0.950 . S
H2221 C2241 0.950 . S
H2222 C2243 0.950 . S
H2223 C2246 0.950 . S
H2224 C2247 0.950 . S
H2225 C2249 0.950 . S
H2226 C2250 0.950 . S
H2227 C2251 0.951 . S
H2228 C2253 0.951 . S
H2229 C2255 0.950 . S
H2230 C2256 0.950 . S
H2231 C2258 0.950 . S
H2232 C2261 0.950 . S
H2233 C2262 0.950 . S
H2234 C2264 0.950 . S
H2235 C2265 0.950 . S
C2236 H2218 0.951 . S
C2236 C2237 1.366 . S
C2236 C2238 1.388 . S
C2237 C2236 1.366 . S
C2237 C2241 1.385 . S
C2238 H2219 0.951 . S
C2238 C2236 1.388 . S
C2238 C2239 1.366 . S
C2239 C2238 1.366 . S
C2239 C2240 1.414 . S
C2239 C2242 1.499 . S
C2240 H2220 0.950 . S
C2240 C2239 1.414 . S
C2240 C2241 1.374 . S
C2241 H2221 0.950 . S
C2241 C2237 1.385 . S
C2241 C2240 1.374 . S
C2242 C2239 1.499 . S
C2242 C2243 1.373 . S
C2242 C2244 1.389 . S
C2243 H2222 0.950 . S
C2243 C2242 1.373 . S
C2243 C2259 1.377 . S
C2244 C2242 1.389 . S
C2244 C2245 1.524 . S
C2244 C2258 1.377 1_554 S
C2245 C2244 1.524 . S
C2245 C2246 1.397 . S
C2245 C2250 1.363 . S
C2246 H2223 0.950 . S
C2246 C2245 1.397 . S
C2246 C2247 1.334 . S
C2247 H2224 0.950 . S
C2247 C2246 1.334 . S
C2247 C2248 1.287 . S
C2248 C2247 1.287 . S
C2248 C2249 1.524 . S
C2248 H2267 0.913 . S
C2249 H2225 0.950 . S
C2249 C2248 1.524 . S
C2249 C2250 1.415 . S
C2250 H2226 0.950 . S
C2250 C2245 1.363 . S
C2250 C2249 1.415 . S
C2251 H2227 0.951 . S
C2251 C2252 1.366 . S
C2251 C2253 1.388 . S
C2252 C2251 1.366 . S
C2252 C2256 1.385 . S
C2253 H2228 0.951 . S
C2253 C2251 1.388 . S
C2253 C2254 1.366 . S
C2254 C2253 1.366 . S
C2254 C2255 1.414 . S
C2254 C2257 1.499 . S
C2255 H2229 0.950 . S
C2255 C2254 1.414 . S
C2255 C2256 1.374 . S
C2256 H2230 0.950 . S
C2256 C2252 1.385 . S
C2256 C2255 1.374 . S
C2257 C2254 1.499 . S
C2257 C2258 1.373 . S
C2257 C2259 1.389 1_556 S
C2258 H2231 0.950 . S
C2258 C2244 1.377 1_556 S
C2258 C2257 1.373 . S
C2259 C2243 1.377 . S
C2259 C2257 1.389 1_554 S
C2259 C2260 1.524 . S
C2260 C2259 1.524 . S
C2260 C2261 1.397 . S
C2260 C2265 1.363 . S
C2261 H2232 0.950 . S
C2261 C2260 1.397 . S
C2261 C2262 1.334 . S
C2262 H2233 0.950 . S
C2262 C2261 1.334 . S
C2262 C2263 1.287 . S
C2263 C2262 1.287 . S
C2263 C2264 1.524 . S
C2263 H2266 0.999 . S
C2264 H2234 0.950 . S
C2264 C2263 1.524 . S
C2264 C2265 1.415 . S
C2265 H2235 0.950 . S
C2265 C2260 1.363 . S
C2265 C2264 1.415 . S
H2266 C2263 0.999 . S
H2267 C2248 0.913 . S
H2268 C2286 0.951 . S
H2269 C2288 0.951 . S
H2270 C2290 0.950 . S
H2271 C2291 0.950 . S
H2272 C2293 0.950 . S
H2273 C2296 0.950 . S
H2274 C2297 0.950 . S
H2275 C2299 0.950 . S
H2276 C2300 0.950 . S
H2277 C2301 0.951 . S
H2278 C2303 0.951 . S
H2279 C2305 0.950 . S
H2280 C2306 0.950 . S
H2281 C2308 0.950 . S
H2282 C2311 0.950 . S
H2283 C2312 0.949 . S
H2284 C2314 0.950 . S
H2285 C2315 0.950 . S
C2286 H2268 0.951 . S
C2286 C2287 1.366 . S
C2286 C2288 1.388 . S
C2287 C2286 1.366 . S
C2287 C2291 1.385 . S
C2288 H2269 0.951 . S
C2288 C2286 1.388 . S
C2288 C2289 1.366 . S
C2289 C2288 1.366 . S
C2289 C2290 1.414 . S
C2289 C2292 1.499 . S
C2290 H2270 0.950 . S
C2290 C2289 1.414 . S
C2290 C2291 1.374 . S
C2291 H2271 0.950 . S
C2291 C2287 1.385 . S
C2291 C2290 1.374 . S
C2292 C2289 1.499 . S
C2292 C2293 1.373 . S
C2292 C2294 1.389 1_556 S
C2293 H2272 0.950 . S
C2293 C2292 1.373 . S
C2293 C2309 1.377 1_556 S
C2294 C2292 1.389 1_554 S
C2294 C2295 1.524 . S
C2294 C2308 1.377 . S
C2295 C2294 1.524 . S
C2295 C2296 1.397 . S
C2295 C2300 1.363 . S
C2296 H2273 0.950 . S
C2296 C2295 1.397 . S
C2296 C2297 1.334 . S
C2297 H2274 0.950 . S
C2297 C2296 1.334 . S
C2297 C2298 1.287 . S
C2298 C2297 1.287 . S
C2298 C2299 1.524 . S
C2298 H2317 0.913 . S
C2299 H2275 0.950 . S
C2299 C2298 1.524 . S
C2299 C2300 1.415 . S
C2300 H2276 0.950 . S
C2300 C2295 1.363 . S
C2300 C2299 1.415 . S
C2301 H2277 0.951 . S
C2301 C2302 1.366 . S
C2301 C2303 1.388 . S
C2302 C2301 1.366 . S
C2302 C2306 1.385 . S
C2303 H2278 0.951 . S
C2303 C2301 1.388 . S
C2303 C2304 1.366 . S
C2304 C2303 1.366 . S
C2304 C2305 1.414 . S
C2304 C2307 1.499 . S
C2305 H2279 0.950 . S
C2305 C2304 1.414 . S
C2305 C2306 1.374 . S
C2306 H2280 0.950 . S
C2306 C2302 1.385 . S
C2306 C2305 1.374 . S
C2307 C2304 1.499 . S
C2307 C2308 1.373 . S
C2307 C2309 1.389 . S
C2308 H2281 0.950 . S
C2308 C2294 1.377 . S
C2308 C2307 1.373 . S
C2309 C2293 1.377 1_554 S
C2309 C2307 1.389 . S
C2309 C2310 1.524 . S
C2310 C2309 1.524 . S
C2310 C2311 1.397 . S
C2310 C2315 1.363 1_554 S
C2311 H2282 0.950 . S
C2311 C2310 1.397 . S
C2311 C2312 1.323 1_554 S
C2312 H2283 0.949 . S
C2312 C2311 1.323 1_556 S
C2312 C2313 1.303 . S
C2313 C2312 1.303 . S
C2313 C2314 1.524 . S
C2313 H2316 0.999 . S
C2314 H2284 0.950 . S
C2314 C2313 1.524 . S
C2314 C2315 1.415 . S
C2315 H2285 0.950 . S
C2315 C2310 1.363 1_556 S
C2315 C2314 1.415 . S
H2316 C2313 0.999 . S
H2317 C2298 0.913 . S
H2318 C2336 0.951 . S
H2319 C2338 0.951 . S
H2320 C2340 0.950 . S
H2321 C2341 0.950 . S
H2322 C2343 0.950 . S
H2323 C2346 0.950 . S
H2324 C2347 0.950 . S
H2325 C2349 0.950 . S
H2326 C2350 0.950 . S
H2327 C2351 0.951 . S
H2328 C2353 0.951 . S
H2329 C2355 0.950 . S
H2330 C2356 0.950 . S
H2331 C2358 0.950 . S
H2332 C2361 0.950 . S
H2333 C2362 0.950 . S
H2334 C2364 0.950 . S
H2335 C2365 0.950 . S
C2336 H2318 0.951 . S
C2336 C2337 1.366 . S
C2336 C2338 1.388 . S
C2337 C2336 1.366 . S
C2337 C2341 1.385 . S
C2338 H2319 0.951 . S
C2338 C2336 1.388 . S
C2338 C2339 1.366 . S
C2339 C2338 1.366 . S
C2339 C2340 1.414 . S
C2339 C2342 1.499 . S
C2340 H2320 0.950 . S
C2340 C2339 1.414 . S
C2340 C2341 1.374 . S
C2341 H2321 0.950 . S
C2341 C2337 1.385 . S
C2341 C2340 1.374 . S
C2342 C2339 1.499 . S
C2342 C2343 1.373 . S
C2342 C2344 1.389 . S
C2343 H2322 0.950 . S
C2343 C2342 1.373 . S
C2343 C2359 1.377 . S
C2344 C2342 1.389 . S
C2344 C2345 1.524 1_554 S
C2344 C2358 1.377 1_554 S
C2345 C2344 1.524 1_556 S
C2345 C2346 1.397 1_556 S
C2345 C2350 1.364 . S
C2346 H2323 0.950 . S
C2346 C2345 1.397 1_554 S
C2346 C2347 1.334 1_554 S
C2347 H2324 0.950 . S
C2347 C2346 1.334 1_556 S
C2347 C2348 1.287 . S
C2348 C2347 1.287 . S
C2348 C2349 1.524 . S
C2348 H2367 0.913 . S
C2349 H2325 0.950 . S
C2349 C2348 1.524 . S
C2349 C2350 1.415 . S
C2350 H2326 0.950 . S
C2350 C2345 1.364 . S
C2350 C2349 1.415 . S
C2351 H2327 0.951 . S
C2351 C2352 1.366 . S
C2351 C2353 1.388 . S
C2352 C2351 1.366 . S
C2352 C2356 1.385 . S
C2353 H2328 0.951 . S
C2353 C2351 1.388 . S
C2353 C2354 1.366 . S
C2354 C2353 1.366 . S
C2354 C2355 1.414 . S
C2354 C2357 1.499 . S
C2355 H2329 0.950 . S
C2355 C2354 1.414 . S
C2355 C2356 1.374 . S
C2356 H2330 0.950 . S
C2356 C2352 1.385 . S
C2356 C2355 1.374 . S
C2357 C2354 1.499 . S
C2357 C2358 1.373 . S
C2357 C2359 1.389 1_556 S
C2358 H2331 0.950 . S
C2358 C2344 1.377 1_556 S
C2358 C2357 1.373 . S
C2359 C2343 1.377 . S
C2359 C2357 1.389 1_554 S
C2359 C2360 1.524 . S
C2360 C2359 1.524 . S
C2360 C2361 1.397 . S
C2360 C2365 1.363 . S
C2361 H2332 0.950 . S
C2361 C2360 1.397 . S
C2361 C2362 1.334 . S
C2362 H2333 0.950 . S
C2362 C2361 1.334 . S
C2362 C2363 1.287 . S
C2363 C2362 1.287 . S
C2363 C2364 1.524 . S
C2363 H2366 0.999 . S
C2364 H2334 0.950 . S
C2364 C2363 1.524 . S
C2364 C2365 1.415 . S
C2365 H2335 0.950 . S
C2365 C2360 1.363 . S
C2365 C2364 1.415 . S
H2366 C2363 0.999 . S
H2367 C2348 0.913 . S
H2368 C2386 0.951 . S
H2369 C2388 0.951 . S
H2370 C2390 0.950 . S
H2371 C2391 0.950 . S
H2372 C2393 0.950 . S
H2373 C2396 0.950 . S
H2374 C2397 0.950 . S
H2375 C2399 0.950 . S
H2376 C2400 0.950 . S
H2377 C2401 0.951 . S
H2378 C2403 0.951 . S
H2379 C2405 0.950 . S
H2380 C2406 0.950 . S
H2381 C2408 0.950 . S
H2382 C2411 0.950 . S
H2383 C2412 0.950 . S
H2384 C2414 0.950 . S
H2385 C2415 0.950 . S
C2386 H2368 0.951 . S
C2386 C2387 1.366 . S
C2386 C2388 1.388 . S
C2387 C2386 1.366 . S
C2387 C2391 1.385 . S
C2388 H2369 0.951 . S
C2388 C2386 1.388 . S
C2388 C2389 1.366 . S
C2389 C2388 1.366 . S
C2389 C2390 1.414 . S
C2389 C2392 1.499 . S
C2390 H2370 0.950 . S
C2390 C2389 1.414 . S
C2390 C2391 1.374 . S
C2391 H2371 0.950 . S
C2391 C2387 1.385 . S
C2391 C2390 1.374 . S
C2392 C2389 1.499 . S
C2392 C2393 1.373 . S
C2392 C2394 1.389 . S
C2393 H2372 0.950 . S
C2393 C2392 1.373 . S
C2393 C2409 1.377 . S
C2394 C2392 1.389 . S
C2394 C2395 1.524 . S
C2394 C2408 1.377 . S
C2395 C2394 1.524 . S
C2395 C2396 1.397 . S
C2395 C2400 1.363 . S
C2396 H2373 0.950 . S
C2396 C2395 1.397 . S
C2396 C2397 1.334 . S
C2397 H2374 0.950 . S
C2397 C2396 1.334 . S
C2397 C2398 1.287 . S
C2398 C2397 1.287 . S
C2398 C2399 1.524 . S
C2398 H2417 0.913 . S
C2399 H2375 0.950 . S
C2399 C2398 1.524 . S
C2399 C2400 1.415 . S
C2400 H2376 0.950 . S
C2400 C2395 1.363 . S
C2400 C2399 1.415 . S
C2401 H2377 0.951 . S
C2401 C2402 1.366 . S
C2401 C2403 1.388 . S
C2402 C2401 1.366 . S
C2402 C2406 1.385 . S
C2403 H2378 0.951 . S
C2403 C2401 1.388 . S
C2403 C2404 1.366 . S
C2404 C2403 1.366 . S
C2404 C2405 1.414 . S
C2404 C2407 1.499 . S
C2405 H2379 0.950 . S
C2405 C2404 1.414 . S
C2405 C2406 1.374 . S
C2406 H2380 0.950 . S
C2406 C2402 1.385 . S
C2406 C2405 1.374 . S
C2407 C2404 1.499 . S
C2407 C2408 1.373 . S
C2407 C2409 1.389 . S
C2408 H2381 0.950 . S
C2408 C2394 1.377 . S
C2408 C2407 1.373 . S
C2409 C2393 1.377 . S
C2409 C2407 1.389 . S
C2409 C2410 1.524 . S
C2410 C2409 1.524 . S
C2410 C2411 1.397 . S
C2410 C2415 1.363 . S
C2411 H2382 0.950 . S
C2411 C2410 1.397 . S
C2411 C2412 1.334 . S
C2412 H2383 0.950 . S
C2412 C2411 1.334 . S
C2412 C2413 1.287 . S
C2413 C2412 1.287 . S
C2413 C2414 1.524 . S
C2413 H2416 0.999 . S
C2414 H2384 0.950 . S
C2414 C2413 1.524 . S
C2414 C2415 1.415 . S
C2415 H2385 0.950 . S
C2415 C2410 1.363 . S
C2415 C2414 1.415 . S
H2416 C2413 0.999 . S
H2417 C2398 0.913 . S
H2418 C2436 0.951 . S
H2419 C2438 0.951 . S
H2420 C2440 0.950 . S
H2421 C2441 0.950 . S
H2422 C2443 0.950 . S
H2423 C2446 0.950 . S
H2424 C2447 0.950 . S
H2425 C2449 0.950 . S
H2426 C2450 0.950 . S
H2427 C2451 0.951 . S
H2428 C2453 0.951 . S
H2429 C2455 0.950 . S
H2430 C2456 0.950 . S
H2431 C2458 0.950 . S
H2432 C2461 0.950 . S
H2433 C2462 0.950 . S
H2434 C2464 0.950 . S
H2435 C2465 0.950 . S
C2436 H2418 0.951 . S
C2436 C2437 1.366 . S
C2436 C2438 1.388 . S
C2437 C2436 1.366 . S
C2437 C2441 1.385 . S
C2438 H2419 0.951 . S
C2438 C2436 1.388 . S
C2438 C2439 1.366 . S
C2439 C2438 1.366 . S
C2439 C2440 1.414 . S
C2439 C2442 1.499 . S
C2440 H2420 0.950 . S
C2440 C2439 1.414 . S
C2440 C2441 1.374 . S
C2441 H2421 0.950 . S
C2441 C2437 1.385 . S
C2441 C2440 1.374 . S
C2442 C2439 1.499 . S
C2442 C2443 1.373 . S
C2442 C2444 1.389 . S
C2443 H2422 0.950 . S
C2443 C2442 1.373 . S
C2443 C2459 1.377 . S
C2444 C2442 1.389 . S
C2444 C2445 1.524 . S
C2444 C2458 1.377 . S
C2445 C2444 1.524 . S
C2445 C2446 1.397 . S
C2445 C2450 1.363 . S
C2446 H2423 0.950 . S
C2446 C2445 1.397 . S
C2446 C2447 1.334 . S
C2447 H2424 0.950 . S
C2447 C2446 1.334 . S
C2447 C2448 1.287 . S
C2448 C2447 1.287 . S
C2448 C2449 1.524 . S
C2448 H2467 0.913 . S
C2449 H2425 0.950 . S
C2449 C2448 1.524 . S
C2449 C2450 1.415 . S
C2450 H2426 0.950 . S
C2450 C2445 1.363 . S
C2450 C2449 1.415 . S
C2451 H2427 0.951 . S
C2451 C2452 1.366 . S
C2451 C2453 1.388 . S
C2452 C2451 1.366 . S
C2452 C2456 1.385 . S
C2453 H2428 0.951 . S
C2453 C2451 1.388 . S
C2453 C2454 1.366 . S
C2454 C2453 1.366 . S
C2454 C2455 1.414 . S
C2454 C2457 1.499 . S
C2455 H2429 0.950 . S
C2455 C2454 1.414 . S
C2455 C2456 1.374 . S
C2456 H2430 0.950 . S
C2456 C2452 1.385 . S
C2456 C2455 1.374 . S
C2457 C2454 1.499 . S
C2457 C2458 1.373 . S
C2457 C2459 1.389 . S
C2458 H2431 0.950 . S
C2458 C2444 1.377 . S
C2458 C2457 1.373 . S
C2459 C2443 1.377 . S
C2459 C2457 1.389 . S
C2459 C2460 1.524 . S
C2460 C2459 1.524 . S
C2460 C2461 1.397 . S
C2460 C2465 1.363 . S
C2461 H2432 0.950 . S
C2461 C2460 1.397 . S
C2461 C2462 1.334 . S
C2462 H2433 0.950 . S
C2462 C2461 1.334 . S
C2462 C2463 1.287 . S
C2463 C2462 1.287 . S
C2463 C2464 1.524 . S
C2463 H2466 0.999 . S
C2464 H2434 0.950 . S
C2464 C2463 1.524 . S
C2464 C2465 1.415 . S
C2465 H2435 0.950 . S
C2465 C2460 1.363 . S
C2465 C2464 1.415 . S
H2466 C2463 0.999 . S
H2467 C2448 0.913 . S
H2468 C2486 0.951 . S
H2469 C2488 0.951 . S
H2470 C2490 0.950 . S
H2471 C2491 0.950 . S
H2472 C2493 0.950 . S
H2473 C2496 0.950 . S
H2474 C2497 0.950 . S
H2475 C2499 0.950 . S
H2476 C2500 0.950 . S
H2477 C2501 0.951 . S
H2478 C2503 0.951 . S
H2479 C2505 0.950 . S
H2480 C2506 0.950 . S
H2481 C2508 0.950 . S
H2482 C2511 0.950 . S
H2483 C2512 0.950 . S
H2484 C2514 0.950 . S
H2485 C2515 0.950 . S
C2486 H2468 0.951 . S
C2486 C2487 1.366 . S
C2486 C2488 1.388 . S
C2487 C2486 1.366 . S
C2487 C2491 1.385 . S
C2488 H2469 0.951 . S
C2488 C2486 1.388 . S
C2488 C2489 1.366 . S
C2489 C2488 1.366 . S
C2489 C2490 1.414 . S
C2489 C2492 1.499 . S
C2490 H2470 0.950 . S
C2490 C2489 1.414 . S
C2490 C2491 1.374 . S
C2491 H2471 0.950 . S
C2491 C2487 1.385 . S
C2491 C2490 1.374 . S
C2492 C2489 1.499 . S
C2492 C2493 1.373 . S
C2492 C2494 1.389 . S
C2493 H2472 0.950 . S
C2493 C2492 1.373 . S
C2493 C2509 1.377 . S
C2494 C2492 1.389 . S
C2494 C2495 1.524 . S
C2494 C2508 1.377 . S
C2495 C2494 1.524 . S
C2495 C2496 1.397 . S
C2495 C2500 1.363 . S
C2496 H2473 0.950 . S
C2496 C2495 1.397 . S
C2496 C2497 1.334 . S
C2497 H2474 0.950 . S
C2497 C2496 1.334 . S
C2497 C2498 1.287 . S
C2498 C2497 1.287 . S
C2498 C2499 1.524 . S
C2498 H2517 0.913 . S
C2499 H2475 0.950 . S
C2499 C2498 1.524 . S
C2499 C2500 1.415 . S
C2500 H2476 0.950 . S
C2500 C2495 1.363 . S
C2500 C2499 1.415 . S
C2501 H2477 0.951 . S
C2501 C2502 1.366 . S
C2501 C2503 1.388 . S
C2502 C2501 1.366 . S
C2502 C2506 1.385 . S
C2503 H2478 0.951 . S
C2503 C2501 1.388 . S
C2503 C2504 1.366 . S
C2504 C2503 1.366 . S
C2504 C2505 1.414 . S
C2504 C2507 1.499 . S
C2505 H2479 0.950 . S
C2505 C2504 1.414 . S
C2505 C2506 1.374 . S
C2506 H2480 0.950 . S
C2506 C2502 1.385 . S
C2506 C2505 1.374 . S
C2507 C2504 1.499 . S
C2507 C2508 1.373 . S
C2507 C2509 1.389 . S
C2508 H2481 0.950 . S
C2508 C2494 1.377 . S
C2508 C2507 1.373 . S
C2509 C2493 1.377 . S
C2509 C2507 1.389 . S
C2509 C2510 1.524 . S
C2510 C2509 1.524 . S
C2510 C2511 1.397 . S
C2510 C2515 1.363 . S
C2511 H2482 0.950 . S
C2511 C2510 1.397 . S
C2511 C2512 1.334 . S
C2512 H2483 0.950 . S
C2512 C2511 1.334 . S
C2512 C2513 1.287 . S
C2513 C2512 1.287 . S
C2513 C2514 1.524 . S
C2513 H2516 0.999 . S
C2514 H2484 0.950 . S
C2514 C2513 1.524 . S
C2514 C2515 1.415 . S
C2515 H2485 0.950 . S
C2515 C2510 1.363 . S
C2515 C2514 1.415 . S
H2516 C2513 0.999 . S
H2517 C2498 0.913 . S
H2518 C2536 0.951 . S
H2519 C2538 0.951 . S
H2520 C2540 0.950 . S
H2521 C2541 0.950 . S
H2522 C2543 0.950 . S
H2523 C2546 0.950 . S
H2524 C2547 0.950 . S
H2525 C2549 0.950 . S
H2526 C2550 0.950 . S
H2527 C2551 0.951 . S
H2528 C2553 0.951 . S
H2529 C2555 0.950 . S
H2530 C2556 0.950 . S
H2531 C2558 0.950 . S
H2532 C2561 0.950 . S
H2533 C2562 0.950 . S
H2534 C2564 0.950 . S
H2535 C2565 0.950 . S
C2536 H2518 0.951 . S
C2536 C2537 1.366 . S
C2536 C2538 1.388 . S
C2537 C2536 1.366 . S
C2537 C2541 1.385 . S
C2538 H2519 0.951 . S
C2538 C2536 1.388 . S
C2538 C2539 1.366 . S
C2539 C2538 1.366 . S
C2539 C2540 1.414 . S
C2539 C2542 1.499 . S
C2540 H2520 0.950 . S
C2540 C2539 1.414 . S
C2540 C2541 1.374 . S
C2541 H2521 0.950 . S
C2541 C2537 1.385 . S
C2541 C2540 1.374 . S
C2542 C2539 1.499 . S
C2542 C2543 1.373 . S
C2542 C2544 1.389 . S
C2543 H2522 0.950 . S
C2543 C2542 1.373 . S
C2543 C2559 1.377 . S
C2544 C2542 1.389 . S
C2544 C2545 1.524 . S
C2544 C2558 1.377 . S
C2545 C2544 1.524 . S
C2545 C2546 1.397 . S
C2545 C2550 1.363 . S
C2546 H2523 0.950 . S
C2546 C2545 1.397 . S
C2546 C2547 1.334 . S
C2547 H2524 0.950 . S
C2547 C2546 1.334 . S
C2547 C2548 1.287 . S
C2548 C2547 1.287 . S
C2548 C2549 1.524 . S
C2548 H2567 0.913 . S
C2549 H2525 0.950 . S
C2549 C2548 1.524 . S
C2549 C2550 1.415 . S
C2550 H2526 0.950 . S
C2550 C2545 1.363 . S
C2550 C2549 1.415 . S
C2551 H2527 0.951 . S
C2551 C2552 1.366 . S
C2551 C2553 1.388 . S
C2552 C2551 1.366 . S
C2552 C2556 1.385 . S
C2553 H2528 0.951 . S
C2553 C2551 1.388 . S
C2553 C2554 1.366 . S
C2554 C2553 1.366 . S
C2554 C2555 1.414 . S
C2554 C2557 1.499 . S
C2555 H2529 0.950 . S
C2555 C2554 1.414 . S
C2555 C2556 1.374 . S
C2556 H2530 0.950 . S
C2556 C2552 1.385 . S
C2556 C2555 1.374 . S
C2557 C2554 1.499 . S
C2557 C2558 1.373 . S
C2557 C2559 1.389 . S
C2558 H2531 0.950 . S
C2558 C2544 1.377 . S
C2558 C2557 1.373 . S
C2559 C2543 1.377 . S
C2559 C2557 1.389 . S
C2559 C2560 1.524 . S
C2560 C2559 1.524 . S
C2560 C2561 1.397 . S
C2560 C2565 1.363 . S
C2561 H2532 0.950 . S
C2561 C2560 1.397 . S
C2561 C2562 1.334 1_655 S
C2562 H2533 0.950 . S
C2562 C2561 1.334 1_455 S
C2562 C2563 1.287 . S
C2563 C2562 1.287 . S
C2563 C2564 1.524 1_455 S
C2563 H2566 0.999 . S
C2564 H2534 0.950 . S
C2564 C2563 1.524 1_655 S
C2564 C2565 1.415 . S
C2565 H2535 0.950 . S
C2565 C2560 1.363 . S
C2565 C2564 1.415 . S
H2566 C2563 0.999 . S
H2567 C2548 0.913 . S
H2568 C2586 0.951 . S
H2569 C2588 0.951 . S
H2570 C2590 0.950 . S
H2571 C2591 0.950 . S
H2572 C2593 0.950 . S
H2573 C2596 0.950 . S
H2574 C2597 0.950 . S
H2575 C2599 0.950 . S
H2576 C2600 0.950 . S
H2577 C2601 0.951 . S
H2578 C2603 0.951 . S
H2579 C2605 0.950 . S
H2580 C2606 0.950 . S
H2581 C2608 0.950 . S
H2582 C2611 0.950 . S
H2583 C2612 0.950 . S
H2584 C2614 0.950 . S
H2585 C2615 0.950 . S
C2586 H2568 0.951 . S
C2586 C2587 1.366 . S
C2586 C2588 1.388 . S
C2587 C2586 1.366 . S
C2587 C2591 1.385 . S
C2588 H2569 0.951 . S
C2588 C2586 1.388 . S
C2588 C2589 1.366 . S
C2589 C2588 1.366 . S
C2589 C2590 1.414 . S
C2589 C2592 1.499 . S
C2590 H2570 0.950 . S
C2590 C2589 1.414 . S
C2590 C2591 1.374 . S
C2591 H2571 0.950 . S
C2591 C2587 1.385 . S
C2591 C2590 1.374 . S
C2592 C2589 1.499 . S
C2592 C2593 1.373 . S
C2592 C2594 1.389 . S
C2593 H2572 0.950 . S
C2593 C2592 1.373 . S
C2593 C2609 1.377 . S
C2594 C2592 1.389 . S
C2594 C2595 1.524 . S
C2594 C2608 1.377 1_556 S
C2595 C2594 1.524 . S
C2595 C2596 1.397 . S
C2595 C2600 1.363 1_556 S
C2596 H2573 0.950 . S
C2596 C2595 1.397 . S
C2596 C2597 1.334 . S
C2597 H2574 0.950 . S
C2597 C2596 1.334 . S
C2597 C2598 1.287 . S
C2598 C2597 1.287 . S
C2598 C2599 1.524 1_556 S
C2598 H2617 0.913 . S
C2599 H2575 0.950 . S
C2599 C2598 1.524 1_554 S
C2599 C2600 1.415 . S
C2600 H2576 0.950 . S
C2600 C2595 1.363 1_554 S
C2600 C2599 1.415 . S
C2601 H2577 0.951 . S
C2601 C2602 1.366 . S
C2601 C2603 1.388 . S
C2602 C2601 1.366 . S
C2602 C2606 1.385 . S
C2603 H2578 0.951 . S
C2603 C2601 1.388 . S
C2603 C2604 1.366 . S
C2604 C2603 1.366 . S
C2604 C2605 1.414 . S
C2604 C2607 1.499 . S
C2605 H2579 0.950 . S
C2605 C2604 1.414 . S
C2605 C2606 1.374 . S
C2606 H2580 0.950 . S
C2606 C2602 1.385 . S
C2606 C2605 1.374 . S
C2607 C2604 1.499 . S
C2607 C2608 1.373 . S
C2607 C2609 1.389 1_554 S
C2608 H2581 0.950 . S
C2608 C2594 1.377 1_554 S
C2608 C2607 1.373 . S
C2609 C2593 1.377 . S
C2609 C2607 1.389 1_556 S
C2609 C2610 1.524 . S
C2610 C2609 1.524 . S
C2610 C2611 1.397 1_556 S
C2610 C2615 1.363 . S
C2611 H2582 0.950 . S
C2611 C2610 1.397 1_554 S
C2611 C2612 1.334 . S
C2612 H2583 0.950 . S
C2612 C2611 1.334 . S
C2612 C2613 1.287 1_554 S
C2613 C2612 1.287 1_556 S
C2613 C2614 1.524 . S
C2613 H2616 0.999 . S
C2614 H2584 0.950 . S
C2614 C2613 1.524 . S
C2614 C2615 1.415 . S
C2615 H2585 0.950 . S
C2615 C2610 1.363 . S
C2615 C2614 1.415 . S
H2616 C2613 0.999 . S
H2617 C2598 0.913 . S
H2618 C2636 0.951 . S
H2619 C2638 0.951 . S
H2620 C2640 0.950 . S
H2621 C2641 0.950 . S
H2622 C2643 0.950 . S
H2623 C2646 0.950 . S
H2624 C2647 0.950 . S
H2625 C2649 0.950 . S
H2626 C2650 0.950 . S
H2627 C2651 0.951 . S
H2628 C2653 0.951 . S
H2629 C2655 0.950 . S
H2630 C2656 0.950 . S
H2631 C2658 0.950 . S
H2632 C2661 0.950 1_554 S
H2633 C2662 0.950 1_554 S
H2634 C2664 0.950 . S
H2635 C2665 0.950 . S
C2636 H2618 0.951 . S
C2636 C2637 1.366 . S
C2636 C2638 1.388 . S
C2637 C2636 1.366 . S
C2637 C2641 1.385 . S
C2638 H2619 0.951 . S
C2638 C2636 1.388 . S
C2638 C2639 1.366 . S
C2639 C2638 1.366 . S
C2639 C2640 1.414 . S
C2639 C2642 1.499 . S
C2640 H2620 0.950 . S
C2640 C2639 1.414 . S
C2640 C2641 1.374 . S
C2641 H2621 0.950 . S
C2641 C2637 1.385 . S
C2641 C2640 1.374 . S
C2642 C2639 1.499 . S
C2642 C2643 1.373 . S
C2642 C2644 1.389 . S
C2643 H2622 0.950 . S
C2643 C2642 1.373 . S
C2643 C2659 1.377 . S
C2644 C2642 1.389 . S
C2644 C2645 1.524 . S
C2644 C2658 1.377 1_556 S
C2645 C2644 1.524 . S
C2645 C2646 1.397 . S
C2645 C2650 1.363 1_556 S
C2646 H2623 0.950 . S
C2646 C2645 1.397 . S
C2646 C2647 1.334 . S
C2647 H2624 0.950 . S
C2647 C2646 1.334 . S
C2647 C2648 1.240 1_556 S
C2648 C2647 1.240 1_554 S
C2648 C2649 1.566 . S
C2648 H2667 0.920 . S
C2649 H2625 0.950 . S
C2649 C2648 1.566 . S
C2649 C2650 1.415 . S
C2650 H2626 0.950 . S
C2650 C2645 1.363 1_554 S
C2650 C2649 1.415 . S
C2651 H2627 0.951 . S
C2651 C2652 1.366 . S
C2651 C2653 1.388 . S
C2652 C2651 1.366 . S
C2652 C2656 1.385 . S
C2653 H2628 0.951 . S
C2653 C2651 1.388 . S
C2653 C2654 1.366 . S
C2654 C2653 1.366 . S
C2654 C2655 1.414 . S
C2654 C2657 1.499 . S
C2655 H2629 0.950 . S
C2655 C2654 1.414 . S
C2655 C2656 1.374 . S
C2656 H2630 0.950 . S
C2656 C2652 1.385 . S
C2656 C2655 1.374 . S
C2657 C2654 1.499 . S
C2657 C2658 1.373 . S
C2657 C2659 1.389 1_554 S
C2658 H2631 0.950 . S
C2658 C2644 1.377 1_554 S
C2658 C2657 1.373 . S
C2659 C2643 1.377 . S
C2659 C2657 1.389 1_556 S
C2659 C2660 1.524 . S
C2660 C2659 1.524 . S
C2660 C2661 1.397 . S
C2660 C2665 1.363 . S
C2661 H2632 0.950 1_556 S
C2661 C2660 1.397 . S
C2661 C2662 1.334 . S
C2662 H2633 0.950 1_556 S
C2662 C2661 1.334 . S
C2662 C2663 1.287 . S
C2663 C2662 1.287 . S
C2663 C2664 1.524 . S
C2663 H2666 0.999 . S
C2664 H2634 0.950 . S
C2664 C2663 1.524 . S
C2664 C2665 1.415 . S
C2665 H2635 0.950 . S
C2665 C2660 1.363 . S
C2665 C2664 1.415 . S
H2666 C2663 0.999 . S
H2667 C2648 0.920 . S
H2668 C2686 0.951 . S
H2669 C2688 0.951 . S
H2670 C2690 0.950 . S
H2671 C2691 0.950 . S
H2672 C2693 0.950 . S
H2673 C2696 0.950 . S
H2674 C2697 0.950 . S
H2675 C2699 0.950 . S
H2676 C2700 0.950 . S
H2677 C2701 0.951 . S
H2678 C2703 0.951 . S
H2679 C2705 0.950 . S
H2680 C2706 0.950 . S
H2681 C2708 0.950 . S
H2682 C2711 0.950 . S
H2683 C2712 0.950 1_556 S
H2684 C2714 0.950 . S
H2685 C2715 0.950 . S
C2686 H2668 0.951 . S
C2686 C2687 1.366 . S
C2686 C2688 1.388 . S
C2687 C2686 1.366 . S
C2687 C2691 1.385 . S
C2688 H2669 0.951 . S
C2688 C2686 1.388 . S
C2688 C2689 1.366 . S
C2689 C2688 1.366 . S
C2689 C2690 1.414 . S
C2689 C2692 1.499 . S
C2690 H2670 0.950 . S
C2690 C2689 1.414 . S
C2690 C2691 1.374 . S
C2691 H2671 0.950 . S
C2691 C2687 1.385 . S
C2691 C2690 1.374 . S
C2692 C2689 1.499 . S
C2692 C2693 1.373 . S
C2692 C2694 1.389 1_554 S
C2693 H2672 0.950 . S
C2693 C2692 1.373 . S
C2693 C2709 1.377 1_554 S
C2694 C2692 1.389 1_556 S
C2694 C2695 1.524 . S
C2694 C2708 1.377 . S
C2695 C2694 1.524 . S
C2695 C2696 1.397 . S
C2695 C2700 1.363 . S
C2696 H2673 0.950 . S
C2696 C2695 1.397 . S
C2696 C2697 1.334 . S
C2697 H2674 0.950 . S
C2697 C2696 1.334 . S
C2697 C2698 1.287 . S
C2698 C2697 1.287 . S
C2698 C2699 1.524 . S
C2698 H2717 0.913 . S
C2699 H2675 0.950 . S
C2699 C2698 1.524 . S
C2699 C2700 1.415 . S
C2700 H2676 0.950 . S
C2700 C2695 1.363 . S
C2700 C2699 1.415 . S
C2701 H2677 0.951 . S
C2701 C2702 1.366 . S
C2701 C2703 1.388 . S
C2702 C2701 1.366 . S
C2702 C2706 1.385 . S
C2703 H2678 0.951 . S
C2703 C2701 1.388 . S
C2703 C2704 1.366 . S
C2704 C2703 1.366 . S
C2704 C2705 1.414 . S
C2704 C2707 1.499 . S
C2705 H2679 0.950 . S
C2705 C2704 1.414 . S
C2705 C2706 1.374 . S
C2706 H2680 0.950 . S
C2706 C2702 1.385 . S
C2706 C2705 1.374 . S
C2707 C2704 1.499 . S
C2707 C2708 1.373 . S
C2707 C2709 1.389 . S
C2708 H2681 0.950 . S
C2708 C2694 1.377 . S
C2708 C2707 1.373 . S
C2709 C2693 1.377 1_556 S
C2709 C2707 1.389 . S
C2709 C2710 1.524 1_556 S
C2710 C2709 1.524 1_554 S
C2710 C2711 1.397 1_554 S
C2710 C2715 1.363 . S
C2711 H2682 0.950 . S
C2711 C2710 1.397 1_556 S
C2711 C2712 1.334 1_556 S
C2712 H2683 0.950 1_554 S
C2712 C2711 1.334 1_554 S
C2712 C2713 1.287 . S
C2713 C2712 1.287 . S
C2713 C2714 1.524 . S
C2713 H2716 0.999 . S
C2714 H2684 0.950 . S
C2714 C2713 1.524 . S
C2714 C2715 1.415 . S
C2715 H2685 0.950 . S
C2715 C2710 1.363 . S
C2715 C2714 1.415 . S
H2716 C2713 0.999 . S
H2717 C2698 0.913 . S
H2718 C2736 0.951 . S
H2719 C2738 0.951 . S
H2720 C2740 0.950 . S
H2721 C2741 0.950 . S
H2722 C2743 0.950 . S
H2723 C2746 0.950 . S
H2724 C2747 0.950 . S
H2725 C2749 0.950 . S
H2726 C2750 0.950 . S
H2727 C2751 0.951 . S
H2728 C2753 0.951 . S
H2729 C2755 0.950 . S
H2730 C2756 0.950 . S
H2731 C2758 0.950 . S
H2732 C2761 0.950 . S
H2733 C2762 0.950 . S
H2734 C2764 0.950 . S
H2735 C2765 0.950 . S
C2736 H2718 0.951 . S
C2736 C2737 1.366 . S
C2736 C2738 1.388 . S
C2737 C2736 1.366 . S
C2737 C2741 1.385 . S
C2738 H2719 0.951 . S
C2738 C2736 1.388 . S
C2738 C2739 1.366 . S
C2739 C2738 1.366 . S
C2739 C2740 1.414 . S
C2739 C2742 1.499 . S
C2740 H2720 0.950 . S
C2740 C2739 1.414 . S
C2740 C2741 1.374 . S
C2741 H2721 0.950 . S
C2741 C2737 1.385 . S
C2741 C2740 1.374 . S
C2742 C2739 1.499 . S
C2742 C2743 1.373 . S
C2742 C2744 1.389 1_554 S
C2743 H2722 0.950 . S
C2743 C2742 1.373 . S
C2743 C2759 1.377 1_554 S
C2744 C2742 1.389 1_556 S
C2744 C2745 1.524 . S
C2744 C2758 1.377 . S
C2745 C2744 1.524 . S
C2745 C2746 1.397 . S
C2745 C2750 1.363 . S
C2746 H2723 0.950 . S
C2746 C2745 1.397 . S
C2746 C2747 1.334 . S
C2747 H2724 0.950 . S
C2747 C2746 1.334 . S
C2747 C2748 1.287 . S
C2748 C2747 1.287 . S
C2748 C2749 1.524 . S
C2748 H2767 0.913 . S
C2749 H2725 0.950 . S
C2749 C2748 1.524 . S
C2749 C2750 1.415 . S
C2750 H2726 0.950 . S
C2750 C2745 1.363 . S
C2750 C2749 1.415 . S
C2751 H2727 0.951 . S
C2751 C2752 1.366 . S
C2751 C2753 1.388 . S
C2752 C2751 1.366 . S
C2752 C2756 1.385 . S
C2753 H2728 0.951 . S
C2753 C2751 1.388 . S
C2753 C2754 1.366 . S
C2754 C2753 1.366 . S
C2754 C2755 1.414 . S
C2754 C2757 1.499 . S
C2755 H2729 0.950 . S
C2755 C2754 1.414 . S
C2755 C2756 1.374 . S
C2756 H2730 0.950 . S
C2756 C2752 1.385 . S
C2756 C2755 1.374 . S
C2757 C2754 1.499 . S
C2757 C2758 1.373 . S
C2757 C2759 1.389 . S
C2758 H2731 0.950 . S
C2758 C2744 1.377 . S
C2758 C2757 1.373 . S
C2759 C2743 1.377 1_556 S
C2759 C2757 1.389 . S
C2759 C2760 1.524 . S
C2760 C2759 1.524 . S
C2760 C2761 1.397 . S
C2760 C2765 1.363 . S
C2761 H2732 0.950 . S
C2761 C2760 1.397 . S
C2761 C2762 1.334 . S
C2762 H2733 0.950 . S
C2762 C2761 1.334 . S
C2762 C2763 1.287 . S
C2763 C2762 1.287 . S
C2763 C2764 1.524 . S
C2763 H2766 0.999 . S
C2764 H2734 0.950 . S
C2764 C2763 1.524 . S
C2764 C2765 1.415 . S
C2765 H2735 0.950 . S
C2765 C2760 1.363 . S
C2765 C2764 1.415 . S
H2766 C2763 0.999 . S
H2767 C2748 0.913 . S
C387 C17 1.719 . S
C402 C131 1.709 . S
C437 C155 1.676 . S
C452 C40 1.676 . S
C487 C63 1.683 . S
C502 C178 1.683 . S
C537 C85 1.739 . S
C552 C108 1.738 . S
C587 C316 1.716 . S
C602 C201 1.716 . S
C637 C339 1.714 . S
C652 C224 1.714 . S
C687 C247 1.716 . S
C702 C362 1.716 . S
C737 C270 1.709 . S
C752 C293 1.709 . S
C787 C20 1.517 . S
C802 C88 1.516 . S
C837 C43 1.480 . S
C852 C21 1.488 . S
C887 C66 1.525 . S
C902 C44 1.504 . S
C937 C87 1.523 1_545 S
C952 C67 1.538 . S
C987 C110 1.553 1_655 S
C1002 C134 1.559 . S
C1037 C159 1.547 . S
C1052 C133 1.531 1_565 S
C1087 C158 1.482 . S
C1102 C182 1.490 . S
C1137 C111 1.507 . S
C1152 C181 1.507 . S
C1187 C274 1.495 . S
C1202 C204 1.487 . S
C1237 C227 1.488 . S
C1252 C205 1.496 . S
C1287 C250 1.516 . S
C1302 C228 1.495 . S
C1337 C273 1.499 . S
C1352 C251 1.494 . S
C1387 C296 1.511 . S
C1402 C320 1.489 . S
C1437 C319 1.496 . S
C1452 C343 1.486 . S
C1487 C342 1.478 . S
C1502 C366 1.486 . S
C1537 C365 1.481 . S
C1552 C297 1.490 . S
C1587 C19 0.471 . S
C1602 C65 0.468 . S
C1637 C42 0.461 . S
C1652 C90 0.364 . S
C1687 C157 0.463 . S
C1702 C113 0.369 . S
C1737 C180 0.463 . S
C1752 C136 0.367 . S
C1787 C249 0.470 . S
C1802 C203 0.468 . S
C1837 C272 0.468 . S
C1852 C226 0.464 . S
C1887 C295 0.468 . S
C1902 C341 0.469 . S
C1937 C318 0.470 . S
C1952 C364 0.466 . S
C1987 C18 1.057 . S
C2002 C269 1.032 . S
C2037 C200 1.013 . S
C2052 C41 1.036 . S
C2087 C64 1.056 . S
C2102 C223 1.033 . S
C2137 C246 0.991 . S
C2152 C89 0.992 . S
C2187 C315 0.998 . S
C2202 C112 1.001 . S
C2237 C135 0.996 . S
C2252 C338 0.996 . S
C2287 C361 1.030 . S
C2302 C156 1.054 . S
C2337 C179 1.045 . S
C2352 C292 1.020 . S
C2387 C202 1.020 . S
C2402 C86 1.007 . S
C2437 C225 1.043 . S
C2452 C16 1.019 . S
C2487 C39 1.030 . S
C2502 C248 1.052 . S
C2537 C271 1.046 . S
C2552 C62 1.022 . S
C2587 C294 1.018 . S
C2602 C132 1.006 . S
C2637 C317 1.056 . S
C2652 C154 1.033 . S
C2687 C177 1.024 . S
C2702 C340 1.049 . S
C2737 C109 0.999 . S
C2752 C363 1.012 . S
