# Generated by pormake.
# Topology umg, (4)-cn, num edge types: 1
# Building blocks:
#     Node 0, Type 0, BuildingBlock: MUDLON_clean_sbu_0, # of connection points: 4
#     Node 1, Type 0, BuildingBlock: MUDLON_clean_sbu_0, # of connection points: 4
#     Node 2, Type 0, BuildingBlock: MUDLON_clean_sbu_0, # of connection points: 4
#     Node 3, Type 0, BuildingBlock: MUDLON_clean_sbu_0, # of connection points: 4
#     Node 4, Type 0, BuildingBlock: MUDLON_clean_sbu_0, # of connection points: 4
#     Node 5, Type 0, BuildingBlock: MUDLON_clean_sbu_0, # of connection points: 4
#     Node 6, Type 0, BuildingBlock: MUDLON_clean_sbu_0, # of connection points: 4
#     Node 7, Type 0, BuildingBlock: MUDLON_clean_sbu_0, # of connection points: 4
#     Node 8, Type 0, BuildingBlock: MUDLON_clean_sbu_0, # of connection points: 4
#     Node 9, Type 0, BuildingBlock: MUDLON_clean_sbu_0, # of connection points: 4
#     Node 10, Type 0, BuildingBlock: MUDLON_clean_sbu_0, # of connection points: 4
#     Node 11, Type 0, BuildingBlock: MUDLON_clean_sbu_0, # of connection points: 4
#     Edge 12, Type (0, 0), BuildingBlock: CIFDUS_clean_linker_0, # of connection points: 2
#     Edge 13, Type (0, 0), BuildingBlock: CIFDUS_clean_linker_0, # of connection points: 2
#     Edge 14, Type (0, 0), BuildingBlock: CIFDUS_clean_linker_0, # of connection points: 2
#     Edge 15, Type (0, 0), BuildingBlock: CIFDUS_clean_linker_0, # of connection points: 2
#     Edge 16, Type (0, 0), BuildingBlock: CIFDUS_clean_linker_0, # of connection points: 2
#     Edge 17, Type (0, 0), BuildingBlock: CIFDUS_clean_linker_0, # of connection points: 2
#     Edge 18, Type (0, 0), BuildingBlock: CIFDUS_clean_linker_0, # of connection points: 2
#     Edge 19, Type (0, 0), BuildingBlock: CIFDUS_clean_linker_0, # of connection points: 2
#     Edge 20, Type (0, 0), BuildingBlock: CIFDUS_clean_linker_0, # of connection points: 2
#     Edge 21, Type (0, 0), BuildingBlock: CIFDUS_clean_linker_0, # of connection points: 2
#     Edge 22, Type (0, 0), BuildingBlock: CIFDUS_clean_linker_0, # of connection points: 2
#     Edge 23, Type (0, 0), BuildingBlock: CIFDUS_clean_linker_0, # of connection points: 2
#     Edge 24, Type (0, 0), BuildingBlock: CIFDUS_clean_linker_0, # of connection points: 2
#     Edge 25, Type (0, 0), BuildingBlock: CIFDUS_clean_linker_0, # of connection points: 2
#     Edge 26, Type (0, 0), BuildingBlock: CIFDUS_clean_linker_0, # of connection points: 2
#     Edge 27, Type (0, 0), BuildingBlock: CIFDUS_clean_linker_0, # of connection points: 2
#     Edge 28, Type (0, 0), BuildingBlock: CIFDUS_clean_linker_0, # of connection points: 2
#     Edge 29, Type (0, 0), BuildingBlock: CIFDUS_clean_linker_0, # of connection points: 2
#     Edge 30, Type (0, 0), BuildingBlock: CIFDUS_clean_linker_0, # of connection points: 2
#     Edge 31, Type (0, 0), BuildingBlock: CIFDUS_clean_linker_0, # of connection points: 2
#     Edge 32, Type (0, 0), BuildingBlock: CIFDUS_clean_linker_0, # of connection points: 2
#     Edge 33, Type (0, 0), BuildingBlock: CIFDUS_clean_linker_0, # of connection points: 2
#     Edge 34, Type (0, 0), BuildingBlock: CIFDUS_clean_linker_0, # of connection points: 2
#     Edge 35, Type (0, 0), BuildingBlock: CIFDUS_clean_linker_0, # of connection points: 2
# Relax obj value: 0.016
# Max RMSD: 0.185
# Mean RMSD: 0.185
data_MOF--net-umg--node1-MUDLON_clean_sbu_0--edge1-CIFDUS_clean_linker_0
_symmetry_space_group_name_H-M    P1
_symmetry_Int_Tables_number       1
_symmetry_cell_setting            triclinic
loop_
_symmetry_equiv_pos_as_xyz
'x, y, z'
_cell_length_a     26.369114
_cell_length_b     25.922666
_cell_length_c     79.331102
_cell_angle_alpha  89.860433
_cell_angle_beta   90.012917
_cell_angle_gamma 119.46658
loop_
_atom_site_label
_atom_site_type_symbol
_atom_site_fract_x
_atom_site_fract_y
_atom_site_fract_z
_atom_type_partial_charge
Mg0 Mg 0.32152 0.61938 0.09672 0.0
C1 C 0.32009 0.67891 0.06351 0.0
O2 O 0.26862 0.6677 0.06895 0.0
C3 C 0.34781 0.64444 0.13278 0.0
O4 O 0.33729 0.58959 0.13126 0.0
C5 C 0.41677 0.59095 0.0982 0.0
O6 O 0.44506 0.64917 0.09782 0.0
O7 O 0.36143 0.56394 0.09788 0.0
O8 O 0.35209 0.66747 0.07303 0.0
O9 O 0.2273 0.56592 0.09665 0.0
C10 C 0.19766 0.59065 0.10065 0.0
O11 O 0.22511 0.64719 0.10455 0.0
O12 O 0.34602 0.67179 0.11964 0.0
Mg13 Mg 0.73061 0.31945 0.43037 0.0
C14 C 0.68297 0.32579 0.39576 0.0
O15 O 0.64616 0.26974 0.39886 0.0
C16 C 0.7286 0.34382 0.46655 0.0
O17 O 0.77176 0.33234 0.4654 0.0
C18 C 0.85347 0.41277 0.43349 0.0
O19 O 0.82584 0.44335 0.4334 0.0
O20 O 0.82396 0.35664 0.43243 0.0
O21 O 0.71897 0.35693 0.40713 0.0
O22 O 0.68729 0.22344 0.42926 0.0
C23 C 0.63269 0.19423 0.43192 0.0
O24 O 0.60445 0.2232 0.43492 0.0
O25 O 0.70161 0.3432 0.45318 0.0
Mg26 Mg 0.43183 0.71955 0.7659 0.0
C27 C 0.36121 0.72711 0.73634 0.0
O28 O 0.36067 0.76836 0.74578 0.0
C29 C 0.40711 0.71042 0.80213 0.0
O30 O 0.46225 0.75123 0.80104 0.0
C31 C 0.44981 0.84016 0.77384 0.0
O32 O 0.39733 0.80463 0.77973 0.0
O33 O 0.47853 0.81717 0.76744 0.0
O34 O 0.38386 0.69731 0.74215 0.0
O35 O 0.48101 0.67131 0.76551 0.0
C36 C 0.44835 0.6159 0.76297 0.0
O37 O 0.39243 0.59596 0.76061 0.0
O38 O 0.37923 0.68717 0.78862 0.0
Mg39 Mg 0.72849 0.43023 0.10154 0.0
C40 C 0.72478 0.37265 0.0678 0.0
O41 O 0.78111 0.3975 0.07045 0.0
C42 C 0.70239 0.4147 0.13793 0.0
O43 O 0.7114 0.46845 0.13497 0.0
C44 C 0.6349 0.46055 0.1011 0.0
O45 O 0.60639 0.40234 0.10158 0.0
O46 O 0.69024 0.48726 0.10098 0.0
O47 O 0.69245 0.37513 0.07929 0.0
O48 O 0.82275 0.48191 0.10029 0.0
C49 C 0.8525 0.45624 0.10297 0.0
O50 O 0.82521 0.39908 0.10618 0.0
O51 O 0.70536 0.38465 0.12568 0.0
Mg52 Mg 0.32116 0.71853 0.43409 0.0
C53 C 0.36903 0.71065 0.39962 0.0
O54 O 0.40529 0.76706 0.40233 0.0
C55 C 0.32101 0.69343 0.47056 0.0
O56 O 0.27627 0.70235 0.46919 0.0
C57 C 0.19809 0.62521 0.43596 0.0
O58 O 0.22571 0.59464 0.43558 0.0
O59 O 0.22773 0.68145 0.43567 0.0
O60 O 0.33343 0.67995 0.41118 0.0
O61 O 0.36448 0.81446 0.43228 0.0
C62 C 0.41925 0.84399 0.43455 0.0
O63 O 0.44781 0.81544 0.43774 0.0
O64 O 0.3494 0.69584 0.45732 0.0
Mg65 Mg 0.6224 0.31438 0.76665 0.0
C66 C 0.67591 0.36738 0.73226 0.0
O67 O 0.65218 0.4008 0.73503 0.0
C68 C 0.65028 0.31216 0.80269 0.0
O69 O 0.59725 0.26687 0.80161 0.0
C70 C 0.60559 0.19427 0.76475 0.0
O71 O 0.66117 0.23012 0.76176 0.0
O72 O 0.57311 0.21704 0.76757 0.0
O73 O 0.67356 0.33192 0.74372 0.0
O74 O 0.57661 0.36623 0.76608 0.0
C75 C 0.60851 0.42076 0.76991 0.0
O76 O 0.66316 0.43943 0.77394 0.0
O77 O 0.67475 0.34133 0.78939 0.0
Mg78 Mg 0.4275 0.72385 0.60335 0.0
C79 C 0.367 0.72072 0.63663 0.0
O80 O 0.37333 0.77125 0.63102 0.0
C81 C 0.402 0.69695 0.56739 0.0
O82 O 0.45751 0.71296 0.56862 0.0
C83 C 0.45968 0.63041 0.60094 0.0
O84 O 0.40244 0.60095 0.60102 0.0
O85 O 0.48544 0.6867 0.60179 0.0
O86 O 0.38185 0.69072 0.62723 0.0
O87 O 0.47157 0.82054 0.60314 0.0
C88 C 0.44043 0.84363 0.59901 0.0
O89 O 0.38553 0.80844 0.59508 0.0
O90 O 0.37431 0.69509 0.58073 0.0
Mg91 Mg 0.732 0.42719 0.93486 0.0
C92 C 0.68452 0.36924 0.96927 0.0
O93 O 0.64444 0.38407 0.96614 0.0
C94 C 0.73287 0.39943 0.89886 0.0
O95 O 0.77417 0.45505 0.89979 0.0
C96 C 0.85495 0.45735 0.93407 0.0
O97 O 0.82603 0.39986 0.9367 0.0
O98 O 0.82627 0.48495 0.93272 0.0
O99 O 0.7224 0.37826 0.95804 0.0
O100 O 0.67721 0.46922 0.9359 0.0
C101 C 0.62387 0.43579 0.93199 0.0
O102 O 0.6069 0.38077 0.92766 0.0
O103 O 0.70638 0.37303 0.91229 0.0
Mg104 Mg 0.32264 0.71545 0.26632 0.0
C105 C 0.32789 0.66782 0.30115 0.0
O106 O 0.27173 0.63431 0.2986 0.0
C107 C 0.34855 0.71909 0.23007 0.0
O108 O 0.33465 0.76102 0.23173 0.0
C109 C 0.41668 0.83877 0.26519 0.0
O110 O 0.44322 0.80715 0.2657 0.0
O111 O 0.36114 0.81165 0.26524 0.0
O112 O 0.3595 0.70168 0.28935 0.0
O113 O 0.22731 0.66255 0.26691 0.0
C114 C 0.20683 0.60714 0.26464 0.0
O115 O 0.24357 0.58734 0.26226 0.0
O116 O 0.3493 0.69097 0.24316 0.0
Mg117 Mg 0.62386 0.31789 0.59943 0.0
C118 C 0.68021 0.32783 0.63388 0.0
O119 O 0.66345 0.27172 0.63123 0.0
C120 C 0.64772 0.34437 0.56315 0.0
O121 O 0.59298 0.3312 0.56445 0.0
C122 C 0.59003 0.40977 0.59795 0.0
O123 O 0.64725 0.43942 0.59824 0.0
O124 O 0.56452 0.35339 0.59811 0.0
O125 O 0.67308 0.35764 0.6223 0.0
O126 O 0.58151 0.22141 0.6007 0.0
C127 C 0.61401 0.19846 0.59847 0.0
O128 O 0.66986 0.23369 0.59569 0.0
O129 O 0.67485 0.34439 0.57641 0.0
Mg130 Mg 0.32222 0.60487 0.93527 0.0
C131 C 0.31254 0.67842 0.96389 0.0
O132 O 0.27169 0.67716 0.95416 0.0
C133 C 0.32513 0.62761 0.89876 0.0
O134 O 0.28651 0.57107 0.90005 0.0
C135 C 0.19767 0.57247 0.92896 0.0
O136 O 0.22572 0.62629 0.92264 0.0
O137 O 0.22704 0.5493 0.93475 0.0
O138 O 0.34276 0.6558 0.95857 0.0
O139 O 0.37373 0.55939 0.93587 0.0
C140 C 0.42786 0.59365 0.9386 0.0
O141 O 0.44614 0.65023 0.94106 0.0
O142 O 0.34846 0.65661 0.91215 0.0
Mg143 Mg 0.74161 0.30881 0.26411 0.0
C144 C 0.73055 0.36099 0.29748 0.0
O145 O 0.78662 0.39616 0.29518 0.0
C146 C 0.69904 0.36507 0.23706 0.0
O147 O 0.69452 0.39567 0.24957 0.0
C148 C 0.64891 0.18548 0.26348 0.0
O149 O 0.62225 0.21695 0.26268 0.0
O150 O 0.70439 0.21281 0.26418 0.0
O151 O 0.70108 0.32435 0.28597 0.0
O152 O 0.83688 0.36296 0.26549 0.0
C153 C 0.85773 0.41819 0.26268 0.0
O154 O 0.82144 0.43784 0.25927 0.0
O155 O 0.71587 0.32771 0.24 0.0
H156 H 0.39064 0.68545 0.9876 0.0
H157 H 0.24025 0.70802 0.98075 0.0
H158 H 0.23344 0.71722 1.01113 0.0
H159 H 0.26251 0.70623 0.03973 0.0
H160 H 0.41231 0.6827 0.04662 0.0
H161 H 0.42735 0.68741 1.0162 0.0
C162 C 0.35695 0.69337 0.99272 0.0
C163 C 0.31547 0.69503 0.98189 0.0
C164 C 0.3528 0.69797 1.01026 0.0
C165 C 0.27254 0.70605 0.98876 0.0
C166 C 0.26841 0.71109 1.00617 0.0
C167 C 0.29904 0.70311 0.03461 0.0
C168 C 0.33557 0.69314 0.04547 0.0
C169 C 0.30711 0.70515 0.01706 0.0
C170 C 0.38315 0.68995 0.03859 0.0
C171 C 0.39169 0.69237 0.02116 0.0
H172 H 0.61503 0.27193 0.36839 0.0
H173 H 0.76956 0.43159 0.38373 0.0
H174 H 0.79402 0.46064 0.35433 0.0
H175 H 0.77894 0.43388 0.32437 0.0
H176 H 0.62507 0.27374 0.30898 0.0
H177 H 0.59265 0.25243 0.33823 0.0
C178 C 0.6535 0.31361 0.36533 0.0
C179 C 0.69092 0.34888 0.37827 0.0
C180 C 0.66781 0.32981 0.34834 0.0
C181 C 0.74017 0.4032 0.37405 0.0
C182 C 0.75441 0.41981 0.35721 0.0
C183 C 0.73778 0.39486 0.32736 0.0
C184 C 0.70511 0.35497 0.31451 0.0
C185 C 0.7197 0.38239 0.34425 0.0
C186 C 0.65141 0.30506 0.31861 0.0
C187 C 0.63292 0.29261 0.33537 0.0
H188 H 0.36247 0.6511 0.7128 0.0
H189 H 0.32661 0.79554 0.71898 0.0
H190 H 0.31868 0.80184 0.68853 0.0
H191 H 0.33362 0.77454 0.6601 0.0
H192 H 0.37075 0.63103 0.65385 0.0
H193 H 0.36563 0.6158 0.68429 0.0
C194 C 0.35197 0.68333 0.70752 0.0
C195 C 0.34608 0.72337 0.7182 0.0
C196 C 0.34815 0.68729 0.68993 0.0
C197 C 0.33188 0.76443 0.7111 0.0
C198 C 0.32752 0.76826 0.69365 0.0
C199 C 0.33969 0.7393 0.66536 0.0
C200 C 0.35344 0.70465 0.65468 0.0
C201 C 0.33742 0.73119 0.68292 0.0
C202 C 0.3605 0.65872 0.66174 0.0
C203 C 0.35783 0.65009 0.67919 0.0
H204 H 0.77975 0.35772 0.04081 0.0
H205 H 0.61764 0.34729 0.05586 0.0
H206 H 0.58745 0.33787 0.02645 0.0
H207 H 0.61299 0.34662 0.99637 0.0
H208 H 0.77562 0.35798 0.98139 0.0
H209 H 0.7991 0.35218 1.0108 0.0
C210 C 0.73735 0.35229 0.03769 0.0
C211 C 0.70154 0.35428 0.05052 0.0
C212 C 0.7205 0.34767 0.02071 0.0
C213 C 0.64636 0.34635 0.04626 0.0
C214 C 0.62912 0.34128 0.0294 0.0
C215 C 0.6531 0.34677 0.99951 0.0
C216 C 0.69289 0.35384 0.98668 0.0
C217 C 0.66676 0.34408 1.0165 0.0
C218 C 0.74433 0.35313 0.99098 0.0
C219 C 0.75799 0.35006 1.00783 0.0
H220 H 0.27586 0.59829 0.32852 0.0
H221 H 0.43292 0.75499 0.3128 0.0
H222 H 0.46316 0.77852 0.34214 0.0
H223 H 0.43868 0.76172 0.37229 0.0
H224 H 0.28133 0.60515 0.38796 0.0
H225 H 0.25816 0.57422 0.35866 0.0
C226 C 0.3172 0.63704 0.33149 0.0
C227 C 0.35152 0.67528 0.31848 0.0
C228 C 0.33412 0.65071 0.34842 0.0
C229 C 0.40538 0.72488 0.32254 0.0
C230 C 0.42263 0.73861 0.33935 0.0
C231 C 0.39983 0.72031 0.36933 0.0
C232 C 0.36136 0.68642 0.38231 0.0
C233 C 0.38637 0.70295 0.35241 0.0
C234 C 0.31159 0.63244 0.37824 0.0
C235 C 0.29809 0.61477 0.36146 0.0
H236 H 0.68897 0.43691 0.70499 0.0
H237 H 0.70229 0.28428 0.72056 0.0
H238 H 0.71225 0.26267 0.69125 0.0
H239 H 0.70361 0.27914 0.66114 0.0
H240 H 0.68968 0.43137 0.64555 0.0
H241 H 0.69448 0.46141 0.67487 0.0
C242 C 0.6951 0.39953 0.702 0.0
C243 C 0.6938 0.36173 0.71496 0.0
C244 C 0.70018 0.38687 0.68507 0.0
C245 C 0.70263 0.31394 0.71086 0.0
C246 C 0.70807 0.30131 0.69406 0.0
C247 C 0.70267 0.31947 0.66412 0.0
C248 C 0.69523 0.35228 0.65116 0.0
C249 C 0.70479 0.33623 0.68105 0.0
C250 C 0.69495 0.40493 0.65526 0.0
C251 C 0.69739 0.42206 0.67205 0.0
H252 H 0.35502 0.77466 0.20045 0.0
H253 H 0.36152 0.62409 0.22136 0.0
H254 H 0.36593 0.59011 0.19298 0.0
H255 H 0.36083 0.59937 0.16233 0.0
H256 H 0.35301 0.7492 0.1414 0.0
H257 H 0.35669 0.78753 0.16976 0.0
C258 C 0.35786 0.73463 0.19883 0.0
C259 C 0.35737 0.70166 0.21303 0.0
C260 C 0.35988 0.7151 0.18248 0.0
C261 C 0.36163 0.65022 0.21067 0.0
C262 C 0.36398 0.63066 0.19444 0.0
C263 C 0.36036 0.64067 0.16394 0.0
C264 C 0.35607 0.67107 0.14975 0.0
C265 C 0.36201 0.66216 0.18026 0.0
C266 C 0.35611 0.72481 0.15208 0.0
C267 C 0.35804 0.74666 0.1683 0.0
H268 H 0.78269 0.35572 0.49652 0.0
H269 H 0.63061 0.35013 0.47429 0.0
H270 H 0.5942 0.35394 0.50232 0.0
H271 H 0.60235 0.35178 0.5331 0.0
H272 H 0.75398 0.3562 0.5553 0.0
H273 H 0.79401 0.3604 0.52724 0.0
C274 C 0.74175 0.35575 0.49777 0.0
C275 C 0.70913 0.35205 0.48332 0.0
C276 C 0.72092 0.35751 0.51391 0.0
C277 C 0.65649 0.35276 0.48519 0.0
C278 C 0.63557 0.35477 0.50122 0.0
C279 C 0.64439 0.35412 0.53183 0.0
C280 C 0.67486 0.3531 0.54629 0.0
C281 C 0.66692 0.35605 0.51567 0.0
C282 C 0.7295 0.35672 0.54439 0.0
C283 C 0.75236 0.35895 0.52835 0.0
H284 H 0.44914 0.76433 0.83215 0.0
H285 H 0.3039 0.61128 0.80982 0.0
H286 H 0.26398 0.57391 0.83786 0.0
H287 H 0.27386 0.5817 0.86868 0.0
H288 H 0.41895 0.73514 0.89095 0.0
H289 H 0.45521 0.77565 0.86289 0.0
C290 C 0.40855 0.72293 0.83339 0.0
C291 C 0.37984 0.6903 0.81892 0.0
C292 C 0.38597 0.70175 0.84953 0.0
C293 C 0.32692 0.63717 0.82075 0.0
C294 C 0.30419 0.61571 0.83678 0.0
C295 C 0.31322 0.62421 0.86742 0.0
C296 C 0.34398 0.65507 0.8819 0.0
C297 C 0.33388 0.64715 0.85126 0.0
C298 C 0.39451 0.71041 0.88002 0.0
C299 C 0.41538 0.73351 0.86398 0.0
H300 H 0.68526 0.46487 0.16574 0.0
H301 H 0.70134 0.31464 0.14957 0.0
H302 H 0.69764 0.2839 0.1789 0.0
H303 H 0.69691 0.30374 0.20909 0.0
H304 H 0.68184 0.45459 0.22526 0.0
H305 H 0.6776 0.48075 0.19589 0.0
C306 C 0.68755 0.42514 0.1686 0.0
C307 C 0.69419 0.39244 0.15548 0.0
C308 C 0.68581 0.40799 0.18548 0.0
C309 C 0.69643 0.34073 0.15942 0.0
C310 C 0.69449 0.32322 0.17619 0.0
C311 C 0.69228 0.34214 0.20622 0.0
C312 C 0.69033 0.37753 0.21938 0.0
C313 C 0.6903 0.35716 0.18932 0.0
C314 C 0.68366 0.4267 0.2154 0.0
C315 C 0.68141 0.4418 0.1986 0.0
H316 H 0.44823 0.69034 0.53748 0.0
H317 H 0.29446 0.68187 0.5594 0.0
H318 H 0.25424 0.67608 0.53126 0.0
H319 H 0.26596 0.68058 0.50049 0.0
H320 H 0.42037 0.69027 0.47863 0.0
H321 H 0.45695 0.68802 0.50676 0.0
C322 C 0.40569 0.68678 0.53614 0.0
C323 C 0.37465 0.68711 0.55054 0.0
C324 C 0.38309 0.68396 0.51993 0.0
C325 C 0.31935 0.68186 0.54854 0.0
C326 C 0.29641 0.67875 0.53245 0.0
C327 C 0.30745 0.68177 0.50185 0.0
C328 C 0.34064 0.68617 0.48745 0.0
C329 C 0.3284 0.68089 0.51806 0.0
C330 C 0.39402 0.68708 0.48947 0.0
C331 C 0.41504 0.68595 0.50556 0.0
H332 H 0.78439 0.44314 0.86862 0.0
H333 H 0.63917 0.29114 0.89162 0.0
H334 H 0.6032 0.24873 0.86377 0.0
H335 H 0.60917 0.25842 0.83296 0.0
H336 H 0.75357 0.41137 0.81001 0.0
H337 H 0.79392 0.44957 0.83785 0.0
C338 C 0.74509 0.40049 0.86758 0.0
C339 C 0.71422 0.37064 0.88219 0.0
C340 C 0.72439 0.37667 0.85155 0.0
C341 C 0.66369 0.31516 0.88059 0.0
C342 C 0.643 0.29096 0.86466 0.0
C343 C 0.64975 0.29988 0.83401 0.0
C344 C 0.678 0.33224 0.8194 0.0
C345 C 0.6724 0.32188 0.85006 0.0
C346 C 0.73078 0.38564 0.82103 0.0
C347 C 0.75382 0.40762 0.83696 0.0
H348 H 0.92694 0.4121 0.10156 0.0
H349 H 0.92271 0.57639 0.10307 0.0
H350 H 0.02904 0.63226 0.10263 0.0
H351 H 0.12313 0.6345 0.10198 0.0
H352 H 0.12752 0.47043 0.09951 0.0
H353 H 1.02113 0.41443 0.10014 0.0
C354 C 0.94927 0.46013 0.10182 0.0
C355 C 0.91691 0.49 0.10242 0.0
C356 C 1.01041 0.49201 0.10138 0.0
C357 C 0.94653 0.55228 0.10258 0.0
C358 C 1.00735 0.58428 0.10236 0.0
C359 C 0.10084 0.58648 0.10161 0.0
C360 C 0.13323 0.5567 0.10078 0.0
C361 C 0.03971 0.55461 0.10179 0.0
C362 C 0.10364 0.49447 0.10013 0.0
C363 C 0.0428 0.4624 0.10052 0.0
H364 H 0.5156 0.1203 0.43231 0.0
H365 H 0.67948 0.1207 0.4314 0.0
H366 H 0.62785 1.0125 0.43212 0.0
H367 H 0.5363 0.91786 0.43341 0.0
H368 H 0.37238 0.91742 0.43362 0.0
H369 H 0.424 0.0256 0.43275 0.0
C370 C 0.54008 0.09676 0.43226 0.0
C371 C 0.60134 0.12862 0.43187 0.0
C372 C 0.51012 0.03453 0.43257 0.0
C373 C 0.63231 0.09733 0.43169 0.0
C374 C 0.60282 0.03543 0.43213 0.0
C375 C 0.51182 0.94139 0.43327 0.0
C376 C 0.45055 0.90954 0.43366 0.0
C377 C 0.54176 1.00359 0.43264 0.0
C378 C 0.41955 0.94078 0.43332 0.0
C379 C 0.44903 1.00268 0.43285 0.0
H380 H 0.49951 0.40107 0.76122 0.0
H381 H 0.66871 0.53846 0.77742 0.0
H382 H 0.63547 0.61095 0.7764 0.0
H383 H 0.5581 0.63626 0.77108 0.0
H384 H 0.38872 0.49863 0.75509 0.0
H385 H 0.42227 0.42638 0.75583 0.0
C386 C 0.52908 0.44681 0.76455 0.0
C387 C 0.58655 0.46389 0.7694 0.0
C388 C 0.5097 0.48877 0.76395 0.0
C389 C 0.62418 0.52363 0.77364 0.0
C390 C 0.60526 0.56542 0.77306 0.0
C391 C 0.52862 0.59054 0.76769 0.0
C392 C 0.47094 0.57327 0.76304 0.0
C393 C 0.5481 0.54863 0.76823 0.0
C394 C 0.43338 0.51355 0.75876 0.0
C395 C 0.45248 0.47192 0.75918 0.0
H396 H 0.50005 0.11162 0.59761 0.0
H397 H 0.67498 0.13905 0.60081 0.0
H398 H 0.63718 0.03221 0.60162 0.0
H399 H 0.55438 0.93045 0.60112 0.0
H400 H 0.37971 0.90324 0.59689 0.0
H401 H 0.41741 1.01001 0.59679 0.0
C402 C 0.52987 0.09422 0.59855 0.0
C403 C 0.59023 0.13339 0.59917 0.0
C404 C 0.50789 0.03255 0.59879 0.0
C405 C 0.62828 0.11 0.60026 0.0
C406 C 0.60672 0.04881 0.60074 0.0
C407 C 0.52459 0.9479 0.60022 0.0
C408 C 0.46431 0.90876 0.59903 0.0
C409 C 0.54661 1.0096 0.59997 0.0
C410 C 0.42635 0.93222 0.59777 0.0
C411 C 0.44784 0.99339 0.59774 0.0
H412 H 0.40955 0.48277 0.9307 0.0
H413 H 0.54321 0.65618 0.94646 0.0
H414 H 0.61534 0.62342 0.94588 0.0
H415 H 0.64151 0.54581 0.94064 0.0
H416 H 0.50805 0.37261 0.92467 0.0
H417 H 0.43566 0.405 0.92559 0.0
C418 C 0.45439 0.51331 0.93407 0.0
C419 C 0.47063 0.57188 0.93862 0.0
C420 C 0.49613 0.4943 0.93363 0.0
C421 C 0.52917 0.61083 0.94288 0.0
C422 C 0.57069 0.59218 0.94255 0.0
C423 C 0.59662 0.51516 0.93736 0.0
C424 C 0.58057 0.45686 0.93258 0.0
C425 C 0.55481 0.53407 0.93789 0.0
C426 C 0.52199 0.41781 0.92838 0.0
C427 C 0.48031 0.43625 0.92891 0.0
H428 H 0.11691 0.6316 0.26423 0.0
H429 H 0.15348 0.48664 0.2656 0.0
H430 H 0.04955 0.41555 0.26555 0.0
H431 H 0.94753 0.39379 0.26467 0.0
H432 H 0.91104 0.53873 0.26245 0.0
H433 H 1.0149 0.60984 0.26331 0.0
C434 C 0.10213 0.58448 0.26458 0.0
C435 C 0.14317 0.56472 0.26492 0.0
C436 C 0.04198 0.54348 0.26437 0.0
C437 C 0.12306 0.50335 0.26528 0.0
C438 C 0.06348 0.46246 0.26527 0.0
C439 C 0.9623 0.44092 0.26443 0.0
C440 C 0.92131 0.46065 0.26349 0.0
C441 C 1.02244 0.48192 0.26475 0.0
C442 C 0.94142 0.52203 0.26311 0.0
C443 C 1.00097 0.56293 0.26362 0.0
H444 H 0.51772 0.41538 0.101 0.0
H445 H 0.68001 0.58077 0.1003 0.0
H446 H 0.62663 0.63553 0.09945 0.0
H447 H 0.53407 0.63636 0.09873 0.0
H448 H 0.37185 0.47087 0.09938 0.0
H449 H 0.42526 0.41621 0.10043 0.0
C450 C 0.54151 0.46342 0.10067 0.0
C451 C 0.60279 0.49391 0.10069 0.0
C452 C 0.5106 0.49459 0.10016 0.0
C453 C 0.63285 0.55617 0.10028 0.0
C454 C 0.60236 0.58753 0.09979 0.0
C455 C 0.51032 0.58833 0.09911 0.0
C456 C 0.44903 0.55778 0.09895 0.0
C457 C 0.54126 0.55718 0.0997 0.0
C458 C 0.41901 0.49552 0.09947 0.0
C459 C 0.44951 0.46421 0.10007 0.0
H460 H 0.92735 0.53132 0.43535 0.0
H461 H 0.92416 0.36323 0.43393 0.0
H462 H 0.03044 0.4143 0.43497 0.0
H463 H 0.12408 0.50651 0.43569 0.0
H464 H 0.12733 0.67465 0.43689 0.0
H465 H 1.02098 0.6235 0.43656 0.0
C466 C 0.94982 0.50576 0.4353 0.0
C467 C 0.91779 0.44352 0.43451 0.0
C468 C 1.0109 0.53538 0.43584 0.0
C469 C 0.9477 0.41117 0.4345 0.0
C470 C 1.00849 0.44034 0.43508 0.0
C471 C 0.1016 0.53206 0.43593 0.0
C472 C 0.13368 0.59435 0.43627 0.0
C473 C 0.0405 0.50241 0.43567 0.0
C474 C 0.10376 0.62667 0.43659 0.0
C475 C 0.04293 0.59746 0.4364 0.0
H476 H 0.50144 0.10612 0.77711 0.0
H477 H 0.6602 0.13604 0.75289 0.0
H478 H 0.6273 0.03032 0.7537 0.0
H479 H 0.55351 0.92846 0.76133 0.0
H480 H 0.39544 0.89855 0.78603 0.0
H481 H 0.42803 1.00418 0.78505 0.0
C482 C 0.52864 0.08944 0.77194 0.0
C483 C 0.58316 0.12921 0.76493 0.0
C484 C 0.50974 0.02821 0.7726 0.0
C485 C 0.61805 0.10668 0.75841 0.0
C486 C 0.5993 0.04603 0.75886 0.0
C487 C 0.52631 0.94505 0.76656 0.0
C488 C 0.47208 0.90526 0.77373 0.0
C489 C 0.54531 1.00628 0.76598 0.0
C490 C 0.43745 0.92785 0.78042 0.0
C491 C 0.45597 0.98847 0.77984 0.0
H492 H 0.41588 0.51124 0.59927 0.0
H493 H 0.57804 0.67667 0.60047 0.0
H494 H 0.63227 0.62277 0.59933 0.0
H495 H 0.63363 0.52893 0.59842 0.0
H496 H 0.47157 0.36339 0.59739 0.0
H497 H 0.41726 0.41732 0.598 0.0
C498 C 0.46311 0.53563 0.59926 0.0
C499 C 0.49282 0.598 0.59999 0.0
C500 C 0.494 0.50436 0.59864 0.0
C501 C 0.55403 0.62873 0.59994 0.0
C502 C 0.58508 0.59792 0.59929 0.0
C503 C 0.58641 0.50451 0.59829 0.0
C504 C 0.55674 0.44211 0.59789 0.0
C505 C 0.55551 0.53577 0.5987 0.0
C506 C 0.49554 0.41136 0.59772 0.0
C507 C 0.46445 0.44219 0.59807 0.0
H508 H 0.12651 0.61892 0.92317 0.0
H509 H 0.1236 0.45709 0.93794 0.0
H510 H 1.01758 0.40768 0.94077 0.0
H511 H 0.92606 0.41064 0.93926 0.0
H512 H 0.92897 0.57299 0.92512 0.0
H513 H 0.03492 0.62211 0.9219 0.0
C514 C 0.10276 0.57273 0.92694 0.0
C515 C 0.13313 0.5417 0.93027 0.0
C516 C 0.04187 0.54481 0.92873 0.0
C517 C 0.10149 0.48203 0.93528 0.0
C518 C 0.04083 0.45377 0.93691 0.0
C519 C 0.94974 0.45681 0.93547 0.0
C520 C 0.91941 0.48804 0.93242 0.0
C521 C 1.01062 0.48478 0.93371 0.0
C522 C 0.95107 0.54789 0.92758 0.0
C523 C 1.01168 0.57597 0.92571 0.0
H524 H 0.53468 0.90642 0.26556 0.0
H525 H 0.37747 0.91898 0.26354 0.0
H526 H 0.43573 0.0271 0.26273 0.0
H527 H 0.53099 0.11774 0.26272 0.0
H528 H 0.68823 0.10527 0.26485 0.0
H529 H 0.62999 0.99711 0.26548 0.0
C530 C 0.51299 0.93268 0.26493 0.0
C531 C 0.45162 0.90444 0.26462 0.0
C532 C 0.54676 0.99479 0.26449 0.0
C533 C 0.42451 0.9394 0.26381 0.0
C534 C 0.45784 1.00126 0.26334 0.0
C535 C 0.5527 0.0915 0.26331 0.0
C536 C 0.61406 0.11977 0.26374 0.0
C537 C 0.51895 0.02939 0.2637 0.0
C538 C 0.6412 0.08482 0.26451 0.0
C539 C 0.60788 0.02294 0.26487 0.0
loop_
_geom_bond_atom_site_label_1
_geom_bond_atom_site_label_2
_geom_bond_distance
_geom_bond_site_symmetry_2
_ccdc_geom_bond_type
Mg0 O7 2.141 . S
Mg0 O8 2.048 . S
Mg0 O9 2.048 . S
Mg0 O12 2.141 . S
C1 O2 1.313 . S
C1 O8 1.195 . S
O2 C1 1.313 . S
C3 O4 1.245 . S
C3 O12 1.289 . S
O4 C3 1.245 . S
C5 O6 1.245 . S
C5 O7 1.289 . S
O6 C5 1.245 . S
O7 Mg0 2.141 . S
O7 C5 1.289 . S
O8 Mg0 2.048 . S
O8 C1 1.195 . S
O9 Mg0 2.048 . S
O9 C10 1.195 . S
C10 O9 1.195 . S
C10 O11 1.313 . S
O11 C10 1.313 . S
O12 Mg0 2.141 . S
O12 C3 1.289 . S
Mg13 O20 2.141 . S
Mg13 O21 2.048 . S
Mg13 O22 2.048 . S
Mg13 O25 2.141 . S
C14 O15 1.313 . S
C14 O21 1.195 . S
O15 C14 1.313 . S
C16 O17 1.245 . S
C16 O25 1.289 . S
O17 C16 1.245 . S
C18 O19 1.245 . S
C18 O20 1.289 . S
O19 C18 1.245 . S
O20 Mg13 2.141 . S
O20 C18 1.289 . S
O21 Mg13 2.048 . S
O21 C14 1.195 . S
O22 Mg13 2.048 . S
O22 C23 1.195 . S
C23 O22 1.195 . S
C23 O24 1.313 . S
O24 C23 1.313 . S
O25 Mg13 2.141 . S
O25 C16 1.289 . S
Mg26 O33 2.141 . S
Mg26 O34 2.048 . S
Mg26 O35 2.048 . S
Mg26 O38 2.141 . S
C27 O28 1.313 . S
C27 O34 1.195 . S
O28 C27 1.313 . S
C29 O30 1.245 . S
C29 O38 1.289 . S
O30 C29 1.245 . S
C31 O32 1.245 . S
C31 O33 1.289 . S
O32 C31 1.245 . S
O33 Mg26 2.141 . S
O33 C31 1.289 . S
O34 Mg26 2.048 . S
O34 C27 1.195 . S
O35 Mg26 2.048 . S
O35 C36 1.195 . S
C36 O35 1.195 . S
C36 O37 1.313 . S
O37 C36 1.313 . S
O38 Mg26 2.141 . S
O38 C29 1.289 . S
Mg39 O46 2.141 . S
Mg39 O47 2.048 . S
Mg39 O48 2.048 . S
Mg39 O51 2.141 . S
C40 O41 1.313 . S
C40 O47 1.195 . S
O41 C40 1.313 . S
C42 O43 1.245 . S
C42 O51 1.289 . S
O43 C42 1.245 . S
C44 O45 1.245 . S
C44 O46 1.289 . S
O45 C44 1.245 . S
O46 Mg39 2.141 . S
O46 C44 1.289 . S
O47 Mg39 2.048 . S
O47 C40 1.195 . S
O48 Mg39 2.048 . S
O48 C49 1.195 . S
C49 O48 1.195 . S
C49 O50 1.313 . S
O50 C49 1.313 . S
O51 Mg39 2.141 . S
O51 C42 1.289 . S
Mg52 O59 2.141 . S
Mg52 O60 2.048 . S
Mg52 O61 2.048 . S
Mg52 O64 2.141 . S
C53 O54 1.313 . S
C53 O60 1.195 . S
O54 C53 1.313 . S
C55 O56 1.245 . S
C55 O64 1.289 . S
O56 C55 1.245 . S
C57 O58 1.245 . S
C57 O59 1.289 . S
O58 C57 1.245 . S
O59 Mg52 2.141 . S
O59 C57 1.289 . S
O60 Mg52 2.048 . S
O60 C53 1.195 . S
O61 Mg52 2.048 . S
O61 C62 1.195 . S
C62 O61 1.195 . S
C62 O63 1.313 . S
O63 C62 1.313 . S
O64 Mg52 2.141 . S
O64 C55 1.289 . S
Mg65 O72 2.141 . S
Mg65 O73 2.048 . S
Mg65 O74 2.048 . S
Mg65 O77 2.141 . S
C66 O67 1.313 . S
C66 O73 1.195 . S
O67 C66 1.313 . S
C68 O69 1.245 . S
C68 O77 1.289 . S
O69 C68 1.245 . S
C70 O71 1.245 . S
C70 O72 1.289 . S
O71 C70 1.245 . S
O72 Mg65 2.141 . S
O72 C70 1.289 . S
O73 Mg65 2.048 . S
O73 C66 1.195 . S
O74 Mg65 2.048 . S
O74 C75 1.195 . S
C75 O74 1.195 . S
C75 O76 1.313 . S
O76 C75 1.313 . S
O77 Mg65 2.141 . S
O77 C68 1.289 . S
Mg78 O85 2.141 . S
Mg78 O86 2.048 . S
Mg78 O87 2.048 . S
Mg78 O90 2.141 . S
C79 O80 1.313 . S
C79 O86 1.195 . S
O80 C79 1.313 . S
C81 O82 1.245 . S
C81 O90 1.289 . S
O82 C81 1.245 . S
C83 O84 1.245 . S
C83 O85 1.289 . S
O84 C83 1.245 . S
O85 Mg78 2.141 . S
O85 C83 1.289 . S
O86 Mg78 2.048 . S
O86 C79 1.195 . S
O87 Mg78 2.048 . S
O87 C88 1.195 . S
C88 O87 1.195 . S
C88 O89 1.313 . S
O89 C88 1.313 . S
O90 Mg78 2.141 . S
O90 C81 1.289 . S
Mg91 O98 2.141 . S
Mg91 O99 2.048 . S
Mg91 O100 2.048 . S
Mg91 O103 2.141 . S
C92 O93 1.313 . S
C92 O99 1.195 . S
O93 C92 1.313 . S
C94 O95 1.245 . S
C94 O103 1.289 . S
O95 C94 1.245 . S
C96 O97 1.245 . S
C96 O98 1.289 . S
O97 C96 1.245 . S
O98 Mg91 2.141 . S
O98 C96 1.289 . S
O99 Mg91 2.048 . S
O99 C92 1.195 . S
O100 Mg91 2.048 . S
O100 C101 1.195 . S
C101 O100 1.195 . S
C101 O102 1.313 . S
O102 C101 1.313 . S
O103 Mg91 2.141 . S
O103 C94 1.289 . S
Mg104 O111 2.141 . S
Mg104 O112 2.048 . S
Mg104 O113 2.048 . S
Mg104 O116 2.141 . S
C105 O106 1.313 . S
C105 O112 1.195 . S
O106 C105 1.313 . S
C107 O108 1.245 . S
C107 O116 1.289 . S
O108 C107 1.245 . S
C109 O110 1.245 . S
C109 O111 1.289 . S
O110 C109 1.245 . S
O111 Mg104 2.141 . S
O111 C109 1.289 . S
O112 Mg104 2.048 . S
O112 C105 1.195 . S
O113 Mg104 2.048 . S
O113 C114 1.195 . S
C114 O113 1.195 . S
C114 O115 1.313 . S
O115 C114 1.313 . S
O116 Mg104 2.141 . S
O116 C107 1.289 . S
Mg117 O124 2.141 . S
Mg117 O125 2.048 . S
Mg117 O126 2.048 . S
Mg117 O129 2.141 . S
C118 O119 1.313 . S
C118 O125 1.195 . S
O119 C118 1.313 . S
C120 O121 1.245 . S
C120 O129 1.289 . S
O121 C120 1.245 . S
C122 O123 1.245 . S
C122 O124 1.289 . S
O123 C122 1.245 . S
O124 Mg117 2.141 . S
O124 C122 1.289 . S
O125 Mg117 2.048 . S
O125 C118 1.195 . S
O126 Mg117 2.048 . S
O126 C127 1.195 . S
C127 O126 1.195 . S
C127 O128 1.313 . S
O128 C127 1.313 . S
O129 Mg117 2.141 . S
O129 C120 1.289 . S
Mg130 O137 2.141 . S
Mg130 O138 2.048 . S
Mg130 O139 2.048 . S
Mg130 O142 2.141 . S
C131 O132 1.313 . S
C131 O138 1.195 . S
O132 C131 1.313 . S
C133 O134 1.245 . S
C133 O142 1.289 . S
O134 C133 1.245 . S
C135 O136 1.245 . S
C135 O137 1.289 . S
O136 C135 1.245 . S
O137 Mg130 2.141 . S
O137 C135 1.289 . S
O138 Mg130 2.048 . S
O138 C131 1.195 . S
O139 Mg130 2.048 . S
O139 C140 1.195 . S
C140 O139 1.195 . S
C140 O141 1.313 . S
O141 C140 1.313 . S
O142 Mg130 2.141 . S
O142 C133 1.289 . S
Mg143 O150 2.141 . S
Mg143 O151 2.048 . S
Mg143 O152 2.048 . S
Mg143 O155 2.141 . S
C144 O145 1.313 . S
C144 O151 1.195 . S
O145 C144 1.313 . S
C146 O147 1.245 . S
C146 O155 1.289 . S
O147 C146 1.245 . S
C148 O149 1.245 . S
C148 O150 1.289 . S
O149 C148 1.245 . S
O150 Mg143 2.141 . S
O150 C148 1.289 . S
O151 Mg143 2.048 . S
O151 C144 1.195 . S
O152 Mg143 2.048 . S
O152 C153 1.195 . S
C153 O152 1.195 . S
C153 O154 1.313 . S
O154 C153 1.313 . S
O155 Mg143 2.141 . S
O155 C146 1.289 . S
H156 C162 0.930 . S
H157 C165 0.930 . S
H158 C166 0.930 . S
H159 C167 0.930 . S
H160 C170 0.930 . S
H161 C171 0.930 . S
C162 H156 0.930 . S
C162 C163 1.355 . S
C162 C164 1.415 . S
C163 C162 1.355 . S
C163 C165 1.419 . S
C164 C162 1.415 . S
C164 C169 1.425 1_556 S
C164 C171 1.409 1_556 S
C165 H157 0.930 . S
C165 C163 1.419 . S
C165 C166 1.362 . S
C166 H158 0.930 . S
C166 C165 1.362 . S
C166 C169 1.409 1_556 S
C167 H159 0.930 . S
C167 C168 1.355 . S
C167 C169 1.415 . S
C168 C167 1.355 . S
C168 C170 1.419 . S
C169 C164 1.425 1_554 S
C169 C166 1.409 1_554 S
C169 C167 1.415 . S
C170 H160 0.930 . S
C170 C168 1.419 . S
C170 C171 1.362 . S
C171 H161 0.930 . S
C171 C164 1.409 1_554 S
C171 C170 1.362 . S
H172 C178 0.930 . S
H173 C181 0.930 . S
H174 C182 0.930 . S
H175 C183 0.930 . S
H176 C186 0.930 . S
H177 C187 0.930 . S
C178 H172 0.930 . S
C178 C179 1.355 . S
C178 C180 1.415 . S
C179 C178 1.355 . S
C179 C181 1.419 . S
C180 C178 1.415 . S
C180 C185 1.425 . S
C180 C187 1.409 . S
C181 H173 0.930 . S
C181 C179 1.419 . S
C181 C182 1.362 . S
C182 H174 0.930 . S
C182 C181 1.362 . S
C182 C185 1.409 . S
C183 H175 0.930 . S
C183 C184 1.355 . S
C183 C185 1.415 . S
C184 C183 1.355 . S
C184 C186 1.419 . S
C185 C180 1.425 . S
C185 C182 1.409 . S
C185 C183 1.415 . S
C186 H176 0.930 . S
C186 C184 1.419 . S
C186 C187 1.362 . S
C187 H177 0.930 . S
C187 C180 1.409 . S
C187 C186 1.362 . S
H188 C194 0.930 . S
H189 C197 0.930 . S
H190 C198 0.930 . S
H191 C199 0.930 . S
H192 C202 0.930 . S
H193 C203 0.930 . S
C194 H188 0.930 . S
C194 C195 1.355 . S
C194 C196 1.415 . S
C195 C194 1.355 . S
C195 C197 1.419 . S
C196 C194 1.415 . S
C196 C201 1.425 . S
C196 C203 1.409 . S
C197 H189 0.930 . S
C197 C195 1.419 . S
C197 C198 1.362 . S
C198 H190 0.930 . S
C198 C197 1.362 . S
C198 C201 1.409 . S
C199 H191 0.930 . S
C199 C200 1.355 . S
C199 C201 1.415 . S
C200 C199 1.355 . S
C200 C202 1.419 . S
C201 C196 1.425 . S
C201 C198 1.409 . S
C201 C199 1.415 . S
C202 H192 0.930 . S
C202 C200 1.419 . S
C202 C203 1.362 . S
C203 H193 0.930 . S
C203 C196 1.409 . S
C203 C202 1.362 . S
H204 C210 0.930 . S
H205 C213 0.930 . S
H206 C214 0.930 . S
H207 C215 0.930 . S
H208 C218 0.930 . S
H209 C219 0.930 . S
C210 H204 0.930 . S
C210 C211 1.355 . S
C210 C212 1.415 . S
C211 C210 1.355 . S
C211 C213 1.419 . S
C212 C210 1.415 . S
C212 C217 1.425 1_554 S
C212 C219 1.409 1_554 S
C213 H205 0.930 . S
C213 C211 1.419 . S
C213 C214 1.362 . S
C214 H206 0.930 . S
C214 C213 1.362 . S
C214 C217 1.409 1_554 S
C215 H207 0.930 . S
C215 C216 1.355 . S
C215 C217 1.415 . S
C216 C215 1.355 . S
C216 C218 1.419 . S
C217 C212 1.425 1_556 S
C217 C214 1.409 1_556 S
C217 C215 1.415 . S
C218 H208 0.930 . S
C218 C216 1.419 . S
C218 C219 1.362 . S
C219 H209 0.930 . S
C219 C212 1.409 1_556 S
C219 C218 1.362 . S
H220 C226 0.930 . S
H221 C229 0.930 . S
H222 C230 0.930 . S
H223 C231 0.930 . S
H224 C234 0.930 . S
H225 C235 0.930 . S
C226 H220 0.930 . S
C226 C227 1.355 . S
C226 C228 1.415 . S
C227 C226 1.355 . S
C227 C229 1.419 . S
C228 C226 1.415 . S
C228 C233 1.425 . S
C228 C235 1.409 . S
C229 H221 0.930 . S
C229 C227 1.419 . S
C229 C230 1.362 . S
C230 H222 0.930 . S
C230 C229 1.362 . S
C230 C233 1.409 . S
C231 H223 0.930 . S
C231 C232 1.355 . S
C231 C233 1.415 . S
C232 C231 1.355 . S
C232 C234 1.419 . S
C233 C228 1.425 . S
C233 C230 1.409 . S
C233 C231 1.415 . S
C234 H224 0.930 . S
C234 C232 1.419 . S
C234 C235 1.362 . S
C235 H225 0.930 . S
C235 C228 1.409 . S
C235 C234 1.362 . S
H236 C242 0.930 . S
H237 C245 0.930 . S
H238 C246 0.930 . S
H239 C247 0.930 . S
H240 C250 0.930 . S
H241 C251 0.930 . S
C242 H236 0.930 . S
C242 C243 1.355 . S
C242 C244 1.415 . S
C243 C242 1.355 . S
C243 C245 1.419 . S
C244 C242 1.415 . S
C244 C249 1.425 . S
C244 C251 1.409 . S
C245 H237 0.930 . S
C245 C243 1.419 . S
C245 C246 1.362 . S
C246 H238 0.930 . S
C246 C245 1.362 . S
C246 C249 1.409 . S
C247 H239 0.930 . S
C247 C248 1.355 . S
C247 C249 1.415 . S
C248 C247 1.355 . S
C248 C250 1.419 . S
C249 C244 1.425 . S
C249 C246 1.409 . S
C249 C247 1.415 . S
C250 H240 0.930 . S
C250 C248 1.419 . S
C250 C251 1.362 . S
C251 H241 0.930 . S
C251 C244 1.409 . S
C251 C250 1.362 . S
H252 C258 0.930 . S
H253 C261 0.930 . S
H254 C262 0.930 . S
H255 C263 0.930 . S
H256 C266 0.930 . S
H257 C267 0.930 . S
C258 H252 0.930 . S
C258 C259 1.355 . S
C258 C260 1.415 . S
C259 C258 1.355 . S
C259 C261 1.419 . S
C260 C258 1.415 . S
C260 C265 1.425 . S
C260 C267 1.409 . S
C261 H253 0.930 . S
C261 C259 1.419 . S
C261 C262 1.362 . S
C262 H254 0.930 . S
C262 C261 1.362 . S
C262 C265 1.409 . S
C263 H255 0.930 . S
C263 C264 1.355 . S
C263 C265 1.415 . S
C264 C263 1.355 . S
C264 C266 1.419 . S
C265 C260 1.425 . S
C265 C262 1.409 . S
C265 C263 1.415 . S
C266 H256 0.930 . S
C266 C264 1.419 . S
C266 C267 1.362 . S
C267 H257 0.930 . S
C267 C260 1.409 . S
C267 C266 1.362 . S
H268 C274 0.930 . S
H269 C277 0.930 . S
H270 C278 0.930 . S
H271 C279 0.930 . S
H272 C282 0.930 . S
H273 C283 0.930 . S
C274 H268 0.930 . S
C274 C275 1.355 . S
C274 C276 1.415 . S
C275 C274 1.355 . S
C275 C277 1.419 . S
C276 C274 1.415 . S
C276 C281 1.425 . S
C276 C283 1.409 . S
C277 H269 0.930 . S
C277 C275 1.419 . S
C277 C278 1.362 . S
C278 H270 0.930 . S
C278 C277 1.362 . S
C278 C281 1.409 . S
C279 H271 0.930 . S
C279 C280 1.355 . S
C279 C281 1.415 . S
C280 C279 1.355 . S
C280 C282 1.419 . S
C281 C276 1.425 . S
C281 C278 1.409 . S
C281 C279 1.415 . S
C282 H272 0.930 . S
C282 C280 1.419 . S
C282 C283 1.362 . S
C283 H273 0.930 . S
C283 C276 1.409 . S
C283 C282 1.362 . S
H284 C290 0.930 . S
H285 C293 0.930 . S
H286 C294 0.930 . S
H287 C295 0.930 . S
H288 C298 0.930 . S
H289 C299 0.930 . S
C290 H284 0.930 . S
C290 C291 1.355 . S
C290 C292 1.415 . S
C291 C290 1.355 . S
C291 C293 1.419 . S
C292 C290 1.415 . S
C292 C297 1.425 . S
C292 C299 1.409 . S
C293 H285 0.930 . S
C293 C291 1.419 . S
C293 C294 1.362 . S
C294 H286 0.930 . S
C294 C293 1.362 . S
C294 C297 1.409 . S
C295 H287 0.930 . S
C295 C296 1.355 . S
C295 C297 1.415 . S
C296 C295 1.355 . S
C296 C298 1.419 . S
C297 C292 1.425 . S
C297 C294 1.409 . S
C297 C295 1.415 . S
C298 H288 0.930 . S
C298 C296 1.419 . S
C298 C299 1.362 . S
C299 H289 0.930 . S
C299 C292 1.409 . S
C299 C298 1.362 . S
H300 C306 0.930 . S
H301 C309 0.930 . S
H302 C310 0.930 . S
H303 C311 0.930 . S
H304 C314 0.930 . S
H305 C315 0.930 . S
C306 H300 0.930 . S
C306 C307 1.355 . S
C306 C308 1.415 . S
C307 C306 1.355 . S
C307 C309 1.419 . S
C308 C306 1.415 . S
C308 C313 1.425 . S
C308 C315 1.409 . S
C309 H301 0.930 . S
C309 C307 1.419 . S
C309 C310 1.362 . S
C310 H302 0.930 . S
C310 C309 1.362 . S
C310 C313 1.409 . S
C311 H303 0.930 . S
C311 C312 1.355 . S
C311 C313 1.415 . S
C312 C311 1.355 . S
C312 C314 1.419 . S
C313 C308 1.425 . S
C313 C310 1.409 . S
C313 C311 1.415 . S
C314 H304 0.930 . S
C314 C312 1.419 . S
C314 C315 1.362 . S
C315 H305 0.930 . S
C315 C308 1.409 . S
C315 C314 1.362 . S
H316 C322 0.930 . S
H317 C325 0.930 . S
H318 C326 0.930 . S
H319 C327 0.930 . S
H320 C330 0.930 . S
H321 C331 0.930 . S
C322 H316 0.930 . S
C322 C323 1.355 . S
C322 C324 1.415 . S
C323 C322 1.355 . S
C323 C325 1.419 . S
C324 C322 1.415 . S
C324 C329 1.425 . S
C324 C331 1.409 . S
C325 H317 0.930 . S
C325 C323 1.419 . S
C325 C326 1.362 . S
C326 H318 0.930 . S
C326 C325 1.362 . S
C326 C329 1.409 . S
C327 H319 0.930 . S
C327 C328 1.355 . S
C327 C329 1.415 . S
C328 C327 1.355 . S
C328 C330 1.419 . S
C329 C324 1.425 . S
C329 C326 1.409 . S
C329 C327 1.415 . S
C330 H320 0.930 . S
C330 C328 1.419 . S
C330 C331 1.362 . S
C331 H321 0.930 . S
C331 C324 1.409 . S
C331 C330 1.362 . S
H332 C338 0.930 . S
H333 C341 0.930 . S
H334 C342 0.930 . S
H335 C343 0.930 . S
H336 C346 0.930 . S
H337 C347 0.930 . S
C338 H332 0.930 . S
C338 C339 1.355 . S
C338 C340 1.415 . S
C339 C338 1.355 . S
C339 C341 1.419 . S
C340 C338 1.415 . S
C340 C345 1.425 . S
C340 C347 1.409 . S
C341 H333 0.930 . S
C341 C339 1.419 . S
C341 C342 1.362 . S
C342 H334 0.930 . S
C342 C341 1.362 . S
C342 C345 1.409 . S
C343 H335 0.930 . S
C343 C344 1.355 . S
C343 C345 1.415 . S
C344 C343 1.355 . S
C344 C346 1.419 . S
C345 C340 1.425 . S
C345 C342 1.409 . S
C345 C343 1.415 . S
C346 H336 0.930 . S
C346 C344 1.419 . S
C346 C347 1.362 . S
C347 H337 0.930 . S
C347 C340 1.409 . S
C347 C346 1.362 . S
H348 C354 0.930 . S
H349 C357 0.930 . S
H350 C358 0.930 . S
H351 C359 0.930 . S
H352 C362 0.930 . S
H353 C363 0.930 . S
C354 H348 0.930 . S
C354 C355 1.355 . S
C354 C356 1.415 . S
C355 C354 1.355 . S
C355 C357 1.419 . S
C356 C354 1.415 . S
C356 C361 1.425 1_655 S
C356 C363 1.409 1_655 S
C357 H349 0.930 . S
C357 C355 1.419 . S
C357 C358 1.362 . S
C358 H350 0.930 . S
C358 C357 1.362 . S
C358 C361 1.409 1_655 S
C359 H351 0.930 . S
C359 C360 1.355 . S
C359 C361 1.415 . S
C360 C359 1.355 . S
C360 C362 1.419 . S
C361 C356 1.425 1_455 S
C361 C358 1.409 1_455 S
C361 C359 1.415 . S
C362 H352 0.930 . S
C362 C360 1.419 . S
C362 C363 1.362 . S
C363 H353 0.930 . S
C363 C356 1.409 1_455 S
C363 C362 1.362 . S
H364 C370 0.930 . S
H365 C373 0.930 . S
H366 C374 0.930 . S
H367 C375 0.930 . S
H368 C378 0.930 . S
H369 C379 0.930 . S
C370 H364 0.930 . S
C370 C371 1.355 . S
C370 C372 1.415 . S
C371 C370 1.355 . S
C371 C373 1.419 . S
C372 C370 1.415 . S
C372 C377 1.425 1_545 S
C372 C379 1.409 1_545 S
C373 H365 0.930 . S
C373 C371 1.419 . S
C373 C374 1.362 . S
C374 H366 0.930 . S
C374 C373 1.362 . S
C374 C377 1.409 1_545 S
C375 H367 0.930 . S
C375 C376 1.355 . S
C375 C377 1.415 . S
C376 C375 1.355 . S
C376 C378 1.419 . S
C377 C372 1.425 1_565 S
C377 C374 1.409 1_565 S
C377 C375 1.415 . S
C378 H368 0.930 . S
C378 C376 1.419 . S
C378 C379 1.362 . S
C379 H369 0.930 . S
C379 C372 1.409 1_565 S
C379 C378 1.362 . S
H380 C386 0.930 . S
H381 C389 0.930 . S
H382 C390 0.930 . S
H383 C391 0.930 . S
H384 C394 0.930 . S
H385 C395 0.930 . S
C386 H380 0.930 . S
C386 C387 1.355 . S
C386 C388 1.415 . S
C387 C386 1.355 . S
C387 C389 1.419 . S
C388 C386 1.415 . S
C388 C393 1.425 . S
C388 C395 1.409 . S
C389 H381 0.930 . S
C389 C387 1.419 . S
C389 C390 1.362 . S
C390 H382 0.930 . S
C390 C389 1.362 . S
C390 C393 1.409 . S
C391 H383 0.930 . S
C391 C392 1.355 . S
C391 C393 1.415 . S
C392 C391 1.355 . S
C392 C394 1.419 . S
C393 C388 1.425 . S
C393 C390 1.409 . S
C393 C391 1.415 . S
C394 H384 0.930 . S
C394 C392 1.419 . S
C394 C395 1.362 . S
C395 H385 0.930 . S
C395 C388 1.409 . S
C395 C394 1.362 . S
H396 C402 0.930 . S
H397 C405 0.930 . S
H398 C406 0.930 . S
H399 C407 0.930 . S
H400 C410 0.930 . S
H401 C411 0.930 . S
C402 H396 0.930 . S
C402 C403 1.355 . S
C402 C404 1.415 . S
C403 C402 1.355 . S
C403 C405 1.419 . S
C404 C402 1.415 . S
C404 C409 1.425 1_545 S
C404 C411 1.409 1_545 S
C405 H397 0.930 . S
C405 C403 1.419 . S
C405 C406 1.362 . S
C406 H398 0.930 . S
C406 C405 1.362 . S
C406 C409 1.409 1_545 S
C407 H399 0.930 . S
C407 C408 1.355 . S
C407 C409 1.415 . S
C408 C407 1.355 . S
C408 C410 1.419 . S
C409 C404 1.425 1_565 S
C409 C406 1.409 1_565 S
C409 C407 1.415 . S
C410 H400 0.930 . S
C410 C408 1.419 . S
C410 C411 1.362 . S
C411 H401 0.930 . S
C411 C404 1.409 1_565 S
C411 C410 1.362 . S
H412 C418 0.930 . S
H413 C421 0.930 . S
H414 C422 0.930 . S
H415 C423 0.930 . S
H416 C426 0.930 . S
H417 C427 0.930 . S
C418 H412 0.930 . S
C418 C419 1.355 . S
C418 C420 1.415 . S
C419 C418 1.355 . S
C419 C421 1.419 . S
C420 C418 1.415 . S
C420 C425 1.425 . S
C420 C427 1.409 . S
C421 H413 0.930 . S
C421 C419 1.419 . S
C421 C422 1.362 . S
C422 H414 0.930 . S
C422 C421 1.362 . S
C422 C425 1.409 . S
C423 H415 0.930 . S
C423 C424 1.355 . S
C423 C425 1.415 . S
C424 C423 1.355 . S
C424 C426 1.419 . S
C425 C420 1.425 . S
C425 C422 1.409 . S
C425 C423 1.415 . S
C426 H416 0.930 . S
C426 C424 1.419 . S
C426 C427 1.362 . S
C427 H417 0.930 . S
C427 C420 1.409 . S
C427 C426 1.362 . S
H428 C434 0.930 . S
H429 C437 0.930 . S
H430 C438 0.930 . S
H431 C439 0.930 . S
H432 C442 0.930 . S
H433 C443 0.930 . S
C434 H428 0.930 . S
C434 C435 1.355 . S
C434 C436 1.415 . S
C435 C434 1.355 . S
C435 C437 1.419 . S
C436 C434 1.415 . S
C436 C441 1.425 1_455 S
C436 C443 1.409 1_455 S
C437 H429 0.930 . S
C437 C435 1.419 . S
C437 C438 1.362 . S
C438 H430 0.930 . S
C438 C437 1.362 . S
C438 C441 1.409 1_455 S
C439 H431 0.930 . S
C439 C440 1.355 . S
C439 C441 1.415 . S
C440 C439 1.355 . S
C440 C442 1.419 . S
C441 C436 1.425 1_655 S
C441 C438 1.409 1_655 S
C441 C439 1.415 . S
C442 H432 0.930 . S
C442 C440 1.419 . S
C442 C443 1.362 . S
C443 H433 0.930 . S
C443 C436 1.409 1_655 S
C443 C442 1.362 . S
H444 C450 0.930 . S
H445 C453 0.930 . S
H446 C454 0.930 . S
H447 C455 0.930 . S
H448 C458 0.930 . S
H449 C459 0.930 . S
C450 H444 0.930 . S
C450 C451 1.355 . S
C450 C452 1.415 . S
C451 C450 1.355 . S
C451 C453 1.419 . S
C452 C450 1.415 . S
C452 C457 1.425 . S
C452 C459 1.409 . S
C453 H445 0.930 . S
C453 C451 1.419 . S
C453 C454 1.362 . S
C454 H446 0.930 . S
C454 C453 1.362 . S
C454 C457 1.409 . S
C455 H447 0.930 . S
C455 C456 1.355 . S
C455 C457 1.415 . S
C456 C455 1.355 . S
C456 C458 1.419 . S
C457 C452 1.425 . S
C457 C454 1.409 . S
C457 C455 1.415 . S
C458 H448 0.930 . S
C458 C456 1.419 . S
C458 C459 1.362 . S
C459 H449 0.930 . S
C459 C452 1.409 . S
C459 C458 1.362 . S
H460 C466 0.930 . S
H461 C469 0.930 . S
H462 C470 0.930 . S
H463 C471 0.930 . S
H464 C474 0.930 . S
H465 C475 0.930 . S
C466 H460 0.930 . S
C466 C467 1.355 . S
C466 C468 1.415 . S
C467 C466 1.355 . S
C467 C469 1.419 . S
C468 C466 1.415 . S
C468 C473 1.425 1_655 S
C468 C475 1.409 1_655 S
C469 H461 0.930 . S
C469 C467 1.419 . S
C469 C470 1.362 . S
C470 H462 0.930 . S
C470 C469 1.362 . S
C470 C473 1.409 1_655 S
C471 H463 0.930 . S
C471 C472 1.355 . S
C471 C473 1.415 . S
C472 C471 1.355 . S
C472 C474 1.419 . S
C473 C468 1.425 1_455 S
C473 C470 1.409 1_455 S
C473 C471 1.415 . S
C474 H464 0.930 . S
C474 C472 1.419 . S
C474 C475 1.362 . S
C475 H465 0.930 . S
C475 C468 1.409 1_455 S
C475 C474 1.362 . S
H476 C482 0.930 . S
H477 C485 0.930 . S
H478 C486 0.930 . S
H479 C487 0.930 . S
H480 C490 0.930 . S
H481 C491 0.930 . S
C482 H476 0.930 . S
C482 C483 1.355 . S
C482 C484 1.415 . S
C483 C482 1.355 . S
C483 C485 1.419 . S
C484 C482 1.415 . S
C484 C489 1.425 1_545 S
C484 C491 1.409 1_545 S
C485 H477 0.930 . S
C485 C483 1.419 . S
C485 C486 1.362 . S
C486 H478 0.930 . S
C486 C485 1.362 . S
C486 C489 1.409 1_545 S
C487 H479 0.930 . S
C487 C488 1.355 . S
C487 C489 1.415 . S
C488 C487 1.355 . S
C488 C490 1.419 . S
C489 C484 1.425 1_565 S
C489 C486 1.409 1_565 S
C489 C487 1.415 . S
C490 H480 0.930 . S
C490 C488 1.419 . S
C490 C491 1.362 . S
C491 H481 0.930 . S
C491 C484 1.409 1_565 S
C491 C490 1.362 . S
H492 C498 0.930 . S
H493 C501 0.930 . S
H494 C502 0.930 . S
H495 C503 0.930 . S
H496 C506 0.930 . S
H497 C507 0.930 . S
C498 H492 0.930 . S
C498 C499 1.355 . S
C498 C500 1.415 . S
C499 C498 1.355 . S
C499 C501 1.419 . S
C500 C498 1.415 . S
C500 C505 1.425 . S
C500 C507 1.409 . S
C501 H493 0.930 . S
C501 C499 1.419 . S
C501 C502 1.362 . S
C502 H494 0.930 . S
C502 C501 1.362 . S
C502 C505 1.409 . S
C503 H495 0.930 . S
C503 C504 1.355 . S
C503 C505 1.415 . S
C504 C503 1.355 . S
C504 C506 1.419 . S
C505 C500 1.425 . S
C505 C502 1.409 . S
C505 C503 1.415 . S
C506 H496 0.930 . S
C506 C504 1.419 . S
C506 C507 1.362 . S
C507 H497 0.930 . S
C507 C500 1.409 . S
C507 C506 1.362 . S
H508 C514 0.930 . S
H509 C517 0.930 . S
H510 C518 0.930 . S
H511 C519 0.930 . S
H512 C522 0.930 . S
H513 C523 0.930 . S
C514 H508 0.930 . S
C514 C515 1.355 . S
C514 C516 1.415 . S
C515 C514 1.355 . S
C515 C517 1.419 . S
C516 C514 1.415 . S
C516 C521 1.425 1_455 S
C516 C523 1.409 1_455 S
C517 H509 0.930 . S
C517 C515 1.419 . S
C517 C518 1.362 . S
C518 H510 0.930 . S
C518 C517 1.362 . S
C518 C521 1.409 1_455 S
C519 H511 0.930 . S
C519 C520 1.355 . S
C519 C521 1.415 . S
C520 C519 1.355 . S
C520 C522 1.419 . S
C521 C516 1.425 1_655 S
C521 C518 1.409 1_655 S
C521 C519 1.415 . S
C522 H512 0.930 . S
C522 C520 1.419 . S
C522 C523 1.362 . S
C523 H513 0.930 . S
C523 C516 1.409 1_655 S
C523 C522 1.362 . S
H524 C530 0.930 . S
H525 C533 0.930 . S
H526 C534 0.930 . S
H527 C535 0.930 . S
H528 C538 0.930 . S
H529 C539 0.930 . S
C530 H524 0.930 . S
C530 C531 1.355 . S
C530 C532 1.415 . S
C531 C530 1.355 . S
C531 C533 1.419 . S
C532 C530 1.415 . S
C532 C537 1.425 1_565 S
C532 C539 1.409 1_565 S
C533 H525 0.930 . S
C533 C531 1.419 . S
C533 C534 1.362 . S
C534 H526 0.930 . S
C534 C533 1.362 . S
C534 C537 1.409 1_565 S
C535 H527 0.930 . S
C535 C536 1.355 . S
C535 C537 1.415 . S
C536 C535 1.355 . S
C536 C538 1.419 . S
C537 C532 1.425 1_545 S
C537 C534 1.409 1_545 S
C537 C535 1.415 . S
C538 H528 0.930 . S
C538 C536 1.419 . S
C538 C539 1.362 . S
C539 H529 0.930 . S
C539 C532 1.409 1_545 S
C539 C538 1.362 . S
C163 C131 1.527 . S
C168 C1 1.557 . S
C179 C14 1.544 . S
C184 C144 1.545 . S
C195 C27 1.527 . S
C200 C79 1.557 . S
C211 C40 1.557 . S
C216 C92 1.525 . S
C227 C105 1.530 . S
C232 C53 1.555 . S
C243 C66 1.557 . S
C248 C118 1.526 . S
C259 C107 1.554 . S
C264 C3 1.571 . S
C275 C16 1.535 . S
C280 C120 1.552 . S
C291 C29 1.566 . S
C296 C133 1.548 . S
C307 C42 1.556 . S
C312 C146 1.538 . S
C323 C81 1.573 . S
C328 C55 1.557 . S
C339 C94 1.560 . S
C344 C68 1.541 . S
C355 C49 1.750 . S
C360 C10 1.750 . S
C371 C23 1.761 . S
C376 C62 1.766 . S
C387 C75 1.774 . S
C392 C36 1.779 . S
C403 C127 1.787 . S
C408 C88 1.786 . S
C419 C140 1.773 . S
C424 C101 1.778 . S
C435 C114 1.785 . S
C440 C153 1.787 . S
C451 C44 1.830 . S
C456 C5 1.830 . S
C467 C18 1.827 . S
C472 C57 1.827 . S
C483 C70 1.849 . S
C488 C31 1.849 . S
C499 C83 1.828 . S
C504 C122 1.828 . S
C515 C135 1.826 . S
C520 C96 1.826 . S
C531 C109 1.837 . S
C536 C148 1.838 . S
