# Generated by pormake.
# Topology uow, (4)-cn, num edge types: 1
# Building blocks:
#     Node 0, Type 0, BuildingBlock: QUQFOY_clean_sbu_1, # of connection points: 4
#     Node 1, Type 0, BuildingBlock: QUQFOY_clean_sbu_1, # of connection points: 4
#     Node 2, Type 0, BuildingBlock: QUQFOY_clean_sbu_1, # of connection points: 4
#     Node 3, Type 0, BuildingBlock: QUQFOY_clean_sbu_1, # of connection points: 4
#     Node 4, Type 0, BuildingBlock: QUQFOY_clean_sbu_1, # of connection points: 4
#     Node 5, Type 0, BuildingBlock: QUQFOY_clean_sbu_1, # of connection points: 4
#     Node 6, Type 0, BuildingBlock: QUQFOY_clean_sbu_1, # of connection points: 4
#     Node 7, Type 0, BuildingBlock: QUQFOY_clean_sbu_1, # of connection points: 4
#     Node 8, Type 0, BuildingBlock: QUQFOY_clean_sbu_1, # of connection points: 4
#     Node 9, Type 0, BuildingBlock: QUQFOY_clean_sbu_1, # of connection points: 4
#     Node 10, Type 0, BuildingBlock: QUQFOY_clean_sbu_1, # of connection points: 4
#     Node 11, Type 0, BuildingBlock: QUQFOY_clean_sbu_1, # of connection points: 4
#     Node 12, Type 0, BuildingBlock: QUQFOY_clean_sbu_1, # of connection points: 4
#     Node 13, Type 0, BuildingBlock: QUQFOY_clean_sbu_1, # of connection points: 4
#     Node 14, Type 0, BuildingBlock: QUQFOY_clean_sbu_1, # of connection points: 4
#     Node 15, Type 0, BuildingBlock: QUQFOY_clean_sbu_1, # of connection points: 4
#     Node 16, Type 0, BuildingBlock: QUQFOY_clean_sbu_1, # of connection points: 4
#     Node 17, Type 0, BuildingBlock: QUQFOY_clean_sbu_1, # of connection points: 4
#     Node 18, Type 0, BuildingBlock: QUQFOY_clean_sbu_1, # of connection points: 4
#     Node 19, Type 0, BuildingBlock: QUQFOY_clean_sbu_1, # of connection points: 4
#     Node 20, Type 0, BuildingBlock: QUQFOY_clean_sbu_1, # of connection points: 4
#     Node 21, Type 0, BuildingBlock: QUQFOY_clean_sbu_1, # of connection points: 4
#     Node 22, Type 0, BuildingBlock: QUQFOY_clean_sbu_1, # of connection points: 4
#     Node 23, Type 0, BuildingBlock: QUQFOY_clean_sbu_1, # of connection points: 4
#     Node 24, Type 0, BuildingBlock: QUQFOY_clean_sbu_1, # of connection points: 4
#     Node 25, Type 0, BuildingBlock: QUQFOY_clean_sbu_1, # of connection points: 4
#     Node 26, Type 0, BuildingBlock: QUQFOY_clean_sbu_1, # of connection points: 4
#     Node 27, Type 0, BuildingBlock: QUQFOY_clean_sbu_1, # of connection points: 4
#     Node 28, Type 0, BuildingBlock: QUQFOY_clean_sbu_1, # of connection points: 4
#     Node 29, Type 0, BuildingBlock: QUQFOY_clean_sbu_1, # of connection points: 4
#     Node 30, Type 0, BuildingBlock: QUQFOY_clean_sbu_1, # of connection points: 4
#     Node 31, Type 0, BuildingBlock: QUQFOY_clean_sbu_1, # of connection points: 4
#     Edge 32, Type (0, 0), BuildingBlock: MIFKUJ_clean_linker_0, # of connection points: 2
#     Edge 33, Type (0, 0), BuildingBlock: MIFKUJ_clean_linker_0, # of connection points: 2
#     Edge 34, Type (0, 0), BuildingBlock: MIFKUJ_clean_linker_0, # of connection points: 2
#     Edge 35, Type (0, 0), BuildingBlock: MIFKUJ_clean_linker_0, # of connection points: 2
#     Edge 36, Type (0, 0), BuildingBlock: MIFKUJ_clean_linker_0, # of connection points: 2
#     Edge 37, Type (0, 0), BuildingBlock: MIFKUJ_clean_linker_0, # of connection points: 2
#     Edge 38, Type (0, 0), BuildingBlock: MIFKUJ_clean_linker_0, # of connection points: 2
#     Edge 39, Type (0, 0), BuildingBlock: MIFKUJ_clean_linker_0, # of connection points: 2
#     Edge 40, Type (0, 0), BuildingBlock: MIFKUJ_clean_linker_0, # of connection points: 2
#     Edge 41, Type (0, 0), BuildingBlock: MIFKUJ_clean_linker_0, # of connection points: 2
#     Edge 42, Type (0, 0), BuildingBlock: MIFKUJ_clean_linker_0, # of connection points: 2
#     Edge 43, Type (0, 0), BuildingBlock: MIFKUJ_clean_linker_0, # of connection points: 2
#     Edge 44, Type (0, 0), BuildingBlock: MIFKUJ_clean_linker_0, # of connection points: 2
#     Edge 45, Type (0, 0), BuildingBlock: MIFKUJ_clean_linker_0, # of connection points: 2
#     Edge 46, Type (0, 0), BuildingBlock: MIFKUJ_clean_linker_0, # of connection points: 2
#     Edge 47, Type (0, 0), BuildingBlock: MIFKUJ_clean_linker_0, # of connection points: 2
#     Edge 48, Type (0, 0), BuildingBlock: MIFKUJ_clean_linker_0, # of connection points: 2
#     Edge 49, Type (0, 0), BuildingBlock: MIFKUJ_clean_linker_0, # of connection points: 2
#     Edge 50, Type (0, 0), BuildingBlock: MIFKUJ_clean_linker_0, # of connection points: 2
#     Edge 51, Type (0, 0), BuildingBlock: MIFKUJ_clean_linker_0, # of connection points: 2
#     Edge 52, Type (0, 0), BuildingBlock: MIFKUJ_clean_linker_0, # of connection points: 2
#     Edge 53, Type (0, 0), BuildingBlock: MIFKUJ_clean_linker_0, # of connection points: 2
#     Edge 54, Type (0, 0), BuildingBlock: MIFKUJ_clean_linker_0, # of connection points: 2
#     Edge 55, Type (0, 0), BuildingBlock: MIFKUJ_clean_linker_0, # of connection points: 2
#     Edge 56, Type (0, 0), BuildingBlock: MIFKUJ_clean_linker_0, # of connection points: 2
#     Edge 57, Type (0, 0), BuildingBlock: MIFKUJ_clean_linker_0, # of connection points: 2
#     Edge 58, Type (0, 0), BuildingBlock: MIFKUJ_clean_linker_0, # of connection points: 2
#     Edge 59, Type (0, 0), BuildingBlock: MIFKUJ_clean_linker_0, # of connection points: 2
#     Edge 60, Type (0, 0), BuildingBlock: MIFKUJ_clean_linker_0, # of connection points: 2
#     Edge 61, Type (0, 0), BuildingBlock: MIFKUJ_clean_linker_0, # of connection points: 2
#     Edge 62, Type (0, 0), BuildingBlock: MIFKUJ_clean_linker_0, # of connection points: 2
#     Edge 63, Type (0, 0), BuildingBlock: MIFKUJ_clean_linker_0, # of connection points: 2
#     Edge 64, Type (0, 0), BuildingBlock: MIFKUJ_clean_linker_0, # of connection points: 2
#     Edge 65, Type (0, 0), BuildingBlock: MIFKUJ_clean_linker_0, # of connection points: 2
#     Edge 66, Type (0, 0), BuildingBlock: MIFKUJ_clean_linker_0, # of connection points: 2
#     Edge 67, Type (0, 0), BuildingBlock: MIFKUJ_clean_linker_0, # of connection points: 2
#     Edge 68, Type (0, 0), BuildingBlock: MIFKUJ_clean_linker_0, # of connection points: 2
#     Edge 69, Type (0, 0), BuildingBlock: MIFKUJ_clean_linker_0, # of connection points: 2
#     Edge 70, Type (0, 0), BuildingBlock: MIFKUJ_clean_linker_0, # of connection points: 2
#     Edge 71, Type (0, 0), BuildingBlock: MIFKUJ_clean_linker_0, # of connection points: 2
#     Edge 72, Type (0, 0), BuildingBlock: MIFKUJ_clean_linker_0, # of connection points: 2
#     Edge 73, Type (0, 0), BuildingBlock: MIFKUJ_clean_linker_0, # of connection points: 2
#     Edge 74, Type (0, 0), BuildingBlock: MIFKUJ_clean_linker_0, # of connection points: 2
#     Edge 75, Type (0, 0), BuildingBlock: MIFKUJ_clean_linker_0, # of connection points: 2
#     Edge 76, Type (0, 0), BuildingBlock: MIFKUJ_clean_linker_0, # of connection points: 2
#     Edge 77, Type (0, 0), BuildingBlock: MIFKUJ_clean_linker_0, # of connection points: 2
#     Edge 78, Type (0, 0), BuildingBlock: MIFKUJ_clean_linker_0, # of connection points: 2
#     Edge 79, Type (0, 0), BuildingBlock: MIFKUJ_clean_linker_0, # of connection points: 2
#     Edge 80, Type (0, 0), BuildingBlock: MIFKUJ_clean_linker_0, # of connection points: 2
#     Edge 81, Type (0, 0), BuildingBlock: MIFKUJ_clean_linker_0, # of connection points: 2
#     Edge 82, Type (0, 0), BuildingBlock: MIFKUJ_clean_linker_0, # of connection points: 2
#     Edge 83, Type (0, 0), BuildingBlock: MIFKUJ_clean_linker_0, # of connection points: 2
#     Edge 84, Type (0, 0), BuildingBlock: MIFKUJ_clean_linker_0, # of connection points: 2
#     Edge 85, Type (0, 0), BuildingBlock: MIFKUJ_clean_linker_0, # of connection points: 2
#     Edge 86, Type (0, 0), BuildingBlock: MIFKUJ_clean_linker_0, # of connection points: 2
#     Edge 87, Type (0, 0), BuildingBlock: MIFKUJ_clean_linker_0, # of connection points: 2
#     Edge 88, Type (0, 0), BuildingBlock: MIFKUJ_clean_linker_0, # of connection points: 2
#     Edge 89, Type (0, 0), BuildingBlock: MIFKUJ_clean_linker_0, # of connection points: 2
#     Edge 90, Type (0, 0), BuildingBlock: MIFKUJ_clean_linker_0, # of connection points: 2
#     Edge 91, Type (0, 0), BuildingBlock: MIFKUJ_clean_linker_0, # of connection points: 2
#     Edge 92, Type (0, 0), BuildingBlock: MIFKUJ_clean_linker_0, # of connection points: 2
#     Edge 93, Type (0, 0), BuildingBlock: MIFKUJ_clean_linker_0, # of connection points: 2
#     Edge 94, Type (0, 0), BuildingBlock: MIFKUJ_clean_linker_0, # of connection points: 2
#     Edge 95, Type (0, 0), BuildingBlock: MIFKUJ_clean_linker_0, # of connection points: 2
# Relax obj value: 0.128
# Max RMSD: 0.125
# Mean RMSD: 0.125
data_MOF--net-uow--node1-QUQFOY_clean_sbu_1--edge1-MIFKUJ_clean_linker_0
_symmetry_space_group_name_H-M    P1
_symmetry_Int_Tables_number       1
_symmetry_cell_setting            triclinic
loop_
_symmetry_equiv_pos_as_xyz
'x, y, z'
_cell_length_a     83.339744
_cell_length_b     83.312337
_cell_length_c     56.779345
_cell_angle_alpha  90.009072
_cell_angle_beta   89.999567
_cell_angle_gamma 89.990318
loop_
_atom_site_label
_atom_site_type_symbol
_atom_site_fract_x
_atom_site_fract_y
_atom_site_fract_z
_atom_type_partial_charge
O0 O 0.02835 0.38941 0.31262 0.0
Cd1 Cd 0.05221 0.39347 0.30463 0.0
Cd2 Cd 0.04714 0.36978 0.27371 0.0
O3 O 0.02336 0.37309 0.28295 0.0
O4 O 0.05724 0.41604 0.31384 0.0
O5 O 0.05744 0.40752 0.27691 0.0
C6 C 0.059 0.4192 0.29173 0.0
C7 C 0.05462 0.36555 0.23442 0.0
C8 C 0.01853 0.38093 0.30082 0.0
C9 C 0.0692 0.36306 0.31491 0.0
O10 O 0.06102 0.35757 0.29782 0.0
O11 O 0.06859 0.37792 0.31999 0.0
O12 O 0.04646 0.35506 0.246 0.0
O13 O 0.05806 0.37888 0.24487 0.0
O14 O 0.86477 0.77486 0.56149 0.0
Cd15 Cd 0.86132 0.799 0.55473 0.0
Cd16 Cd 0.88616 0.7941 0.52492 0.0
O17 O 0.88351 0.77036 0.53482 0.0
O18 O 0.83874 0.80399 0.56392 0.0
O19 O 0.84751 0.80534 0.52718 0.0
C20 C 0.83574 0.80653 0.54193 0.0
C21 C 0.89094 0.80143 0.48569 0.0
C22 C 0.87434 0.76529 0.55112 0.0
C23 C 0.8915 0.81623 0.56662 0.0
O24 O 0.89728 0.80871 0.5491 0.0
O25 O 0.8767 0.81486 0.57175 0.0
O26 O 0.90162 0.79413 0.4981 0.0
O27 O 0.87709 0.80394 0.49523 0.0
O28 O 0.47324 0.6129 0.81173 0.0
Cd29 Cd 0.44963 0.60871 0.80253 0.0
Cd30 Cd 0.45517 0.6335 0.77353 0.0
O31 O 0.47885 0.63031 0.78367 0.0
O32 O 0.44487 0.58593 0.811 0.0
O33 O 0.44486 0.59491 0.77432 0.0
C34 C 0.44334 0.58302 0.78878 0.0
C35 C 0.44808 0.63834 0.73425 0.0
C36 C 0.48328 0.62189 0.80121 0.0
C37 C 0.43207 0.63861 0.81407 0.0
O38 O 0.44049 0.64473 0.7977 0.0
O39 O 0.43286 0.62362 0.81825 0.0
O40 O 0.45584 0.64879 0.7465 0.0
O41 O 0.44492 0.62469 0.74399 0.0
O42 O 0.63858 0.22654 0.06216 0.0
Cd43 Cd 0.64186 0.20264 0.054 0.0
Cd44 Cd 0.61754 0.20844 0.0241 0.0
O45 O 0.62125 0.23211 0.03398 0.0
O46 O 0.66454 0.19711 0.06196 0.0
O47 O 0.65508 0.19717 0.02552 0.0
C48 C 0.6671 0.19537 0.03967 0.0
C49 C 0.6128 0.20147 0.98474 0.0
C50 C 0.62988 0.23663 0.05124 0.0
C51 C 0.61142 0.18586 0.06507 0.0
O52 O 0.60578 0.194 0.04803 0.0
O53 O 0.62628 0.18663 0.07008 0.0
O54 O 0.6024 0.20936 0.9969 0.0
O55 O 0.62634 0.19808 0.99464 0.0
O56 O 0.02601 0.61151 0.18916 0.0
Cd57 Cd 0.04976 0.60845 0.19879 0.0
Cd58 Cd 0.04245 0.63284 0.22678 0.0
O59 O 0.01896 0.62763 0.21811 0.0
O60 O 0.05551 0.58591 0.1903 0.0
O61 O 0.05505 0.59485 0.227 0.0
C62 C 0.05709 0.58304 0.21252 0.0
C63 C 0.05044 0.63849 0.26543 0.0
C64 C 0.01525 0.61939 0.20007 0.0
C65 C 0.06459 0.63925 0.18578 0.0
O66 O 0.05515 0.64498 0.20123 0.0
O67 O 0.06588 0.62414 0.18321 0.0
O68 O 0.04149 0.64823 0.25367 0.0
O69 O 0.05433 0.62505 0.25559 0.0
O70 O 0.64298 0.77997 0.43724 0.0
Cd71 Cd 0.64698 0.80368 0.44637 0.0
Cd72 Cd 0.62319 0.79776 0.47669 0.0
O73 O 0.6271 0.77414 0.46707 0.0
O74 O 0.66971 0.80885 0.43829 0.0
O75 O 0.66049 0.80832 0.47486 0.0
C76 C 0.67245 0.81014 0.4606 0.0
C77 C 0.61791 0.80482 0.51591 0.0
C78 C 0.63483 0.76977 0.44885 0.0
C79 C 0.61662 0.82049 0.43614 0.0
O80 O 0.61109 0.81167 0.4525 0.0
O81 O 0.63157 0.82045 0.43161 0.0
O82 O 0.60785 0.79658 0.50364 0.0
O83 O 0.63143 0.80852 0.50624 0.0
O84 O 0.47545 0.38936 0.69007 0.0
Cd85 Cd 0.45162 0.39289 0.69879 0.0
Cd86 Cd 0.4579 0.36884 0.72874 0.0
O87 O 0.48153 0.37348 0.7198 0.0
O88 O 0.4462 0.41534 0.68939 0.0
O89 O 0.44642 0.40708 0.72644 0.0
C90 C 0.4446 0.41864 0.71148 0.0
C91 C 0.45048 0.36376 0.7678 0.0
C92 C 0.4858 0.38148 0.70178 0.0
C93 C 0.43542 0.36217 0.68803 0.0
O94 O 0.44434 0.35658 0.70423 0.0
O95 O 0.43525 0.37717 0.68385 0.0
O96 O 0.45901 0.35372 0.75593 0.0
O97 O 0.44666 0.37716 0.7578 0.0
O98 O 0.86289 0.22238 0.93756 0.0
Cd99 Cd 0.85636 0.19887 0.94361 0.0
Cd100 Cd 0.88295 0.19933 0.97236 0.0
O101 O 0.88372 0.22313 0.96155 0.0
O102 O 0.83318 0.19701 0.93523 0.0
O103 O 0.84237 0.19346 0.97142 0.0
C104 C 0.8303 0.19403 0.95713 0.0
C105 C 0.88985 0.19294 0.01132 0.0
C106 C 0.87455 0.23 0.9467 0.0
C107 C 0.88293 0.17683 0.93007 0.0
O108 O 0.89005 0.18226 0.94817 0.0
O109 O 0.86892 0.1817 0.92477 0.0
O110 O 0.90042 0.1975 0.99622 0.0
O111 O 0.87505 0.19252 0.00459 0.0
O112 O 0.97564 0.61243 0.6901 0.0
Cd113 Cd 0.95196 0.6079 0.69887 0.0
Cd114 Cd 0.95688 0.63259 0.72831 0.0
O115 O 0.9806 0.62971 0.71859 0.0
O116 O 0.94743 0.58514 0.6901 0.0
O117 O 0.94721 0.59391 0.72689 0.0
C118 C 0.94581 0.58209 0.71226 0.0
C119 C 0.94969 0.63761 0.76749 0.0
C120 C 0.98539 0.62151 0.70105 0.0
C121 C 0.93408 0.63768 0.68757 0.0
O122 O 0.94242 0.64383 0.70399 0.0
O123 O 0.93495 0.62271 0.68335 0.0
O124 O 0.95744 0.64802 0.75517 0.0
O125 O 0.94655 0.62391 0.75787 0.0
O126 O 0.13947 0.22478 0.44162 0.0
Cd127 Cd 0.14412 0.20077 0.44676 0.0
Cd128 Cd 0.11856 0.20261 0.47675 0.0
O129 O 0.11906 0.22648 0.46627 0.0
O130 O 0.167 0.19712 0.43801 0.0
O131 O 0.15777 0.19419 0.47432 0.0
C132 C 0.16978 0.19397 0.45989 0.0
C133 C 0.1131 0.19613 0.51613 0.0
C134 C 0.12845 0.23297 0.45137 0.0
C135 C 0.1157 0.1808 0.4342 0.0
O136 O 0.10945 0.18635 0.45291 0.0
O137 O 0.1298 0.18489 0.42808 0.0
O138 O 0.10233 0.20224 0.50257 0.0
O139 O 0.12732 0.19415 0.50759 0.0
O140 O 0.52904 0.39033 0.19075 0.0
Cd141 Cd 0.55278 0.39626 0.19591 0.0
Cd142 Cd 0.55216 0.3701 0.22544 0.0
O143 O 0.52839 0.36934 0.21446 0.0
O144 O 0.55512 0.41933 0.18714 0.0
O145 O 0.55892 0.41028 0.22336 0.0
C146 C 0.55842 0.42228 0.20892 0.0
C147 C 0.55854 0.36375 0.26463 0.0
C148 C 0.52146 0.37866 0.19989 0.0
C149 C 0.57433 0.36914 0.18293 0.0
O150 O 0.56917 0.3625 0.20158 0.0
O151 O 0.56936 0.38297 0.17691 0.0
O152 O 0.55359 0.35304 0.25001 0.0
O153 O 0.55934 0.3784 0.25729 0.0
O154 O 0.36386 0.7772 0.93904 0.0
Cd155 Cd 0.35936 0.80104 0.94693 0.0
Cd156 Cd 0.3837 0.79637 0.97716 0.0
O157 O 0.38085 0.77252 0.96801 0.0
O158 O 0.33652 0.80554 0.93857 0.0
O159 O 0.34568 0.80601 0.97517 0.0
C160 C 0.33371 0.80728 0.96079 0.0
C161 C 0.38905 0.8039 0.01616 0.0
C162 C 0.37275 0.76754 0.95049 0.0
C163 C 0.38913 0.81867 0.9356 0.0
O164 O 0.39497 0.8106 0.95254 0.0
O165 O 0.37423 0.8178 0.93093 0.0
O166 O 0.39951 0.79646 0.00352 0.0
O167 O 0.3751 0.80647 0.007 0.0
O168 O 0.97715 0.38905 0.81327 0.0
Cd169 Cd 0.95327 0.39274 0.80541 0.0
Cd170 Cd 0.95877 0.36928 0.77393 0.0
O171 O 0.98254 0.37304 0.78336 0.0
O172 O 0.94794 0.41534 0.81415 0.0
O173 O 0.94776 0.40641 0.77742 0.0
C174 C 0.94611 0.41824 0.79197 0.0
C175 C 0.95155 0.36502 0.73453 0.0
C176 C 0.98717 0.38091 0.80133 0.0
C177 C 0.93656 0.36212 0.81506 0.0
O178 O 0.94465 0.35691 0.79767 0.0
O179 O 0.93728 0.37687 0.82078 0.0
O180 O 0.95972 0.35457 0.7462 0.0
O181 O 0.94799 0.37833 0.74494 0.0
O182 O 0.36263 0.22352 0.56487 0.0
Cd183 Cd 0.35806 0.19974 0.55746 0.0
Cd184 Cd 0.38323 0.20313 0.52745 0.0
O185 O 0.38221 0.22673 0.53913 0.0
O186 O 0.3351 0.19553 0.56524 0.0
O187 O 0.34481 0.19438 0.52898 0.0
C188 C 0.33263 0.19337 0.54302 0.0
C189 C 0.38788 0.19717 0.48769 0.0
C190 C 0.37314 0.23238 0.55515 0.0
C191 C 0.3868 0.17977 0.56806 0.0
O192 O 0.39301 0.18655 0.55021 0.0
O193 O 0.37249 0.18301 0.57424 0.0
O194 O 0.3988 0.20352 0.50075 0.0
O195 O 0.37391 0.1948 0.49692 0.0
O196 O 0.53034 0.61501 0.31502 0.0
Cd197 Cd 0.55386 0.61127 0.30482 0.0
Cd198 Cd 0.54741 0.63573 0.27576 0.0
O199 O 0.524 0.63205 0.28682 0.0
O200 O 0.55933 0.58852 0.31259 0.0
O201 O 0.55796 0.59779 0.27611 0.0
C202 C 0.56017 0.58582 0.29023 0.0
C203 C 0.55373 0.63966 0.23601 0.0
C204 C 0.51996 0.62365 0.30457 0.0
C205 C 0.57138 0.64152 0.31484 0.0
O206 O 0.56242 0.64747 0.29895 0.0
O207 O 0.57087 0.62655 0.31923 0.0
O208 O 0.54604 0.65034 0.24795 0.0
O209 O 0.5573 0.62634 0.2464 0.0
O210 O 0.13831 0.77612 0.06141 0.0
Cd211 Cd 0.14497 0.79989 0.05859 0.0
Cd212 Cd 0.11807 0.8021 0.03111 0.0
O213 O 0.11588 0.77822 0.04092 0.0
O214 O 0.16834 0.80114 0.06613 0.0
O215 O 0.15839 0.807 0.03103 0.0
C216 C 0.17076 0.80548 0.0446 0.0
C217 C 0.11155 0.80947 0.99236 0.0
C218 C 0.12553 0.76991 0.05329 0.0
C219 C 0.11926 0.82226 0.07536 0.0
O220 O 0.11205 0.8188 0.05631 0.0
O221 O 0.13274 0.81589 0.08019 0.0
O222 O 0.10075 0.80519 0.00729 0.0
O223 O 0.12633 0.8092 0.99921 0.0
O224 O 0.52614 0.8905 0.80868 0.0
Cd225 Cd 0.55025 0.89478 0.80293 0.0
Cd226 Cd 0.54713 0.86949 0.77335 0.0
O227 O 0.52313 0.87128 0.78231 0.0
O228 O 0.55422 0.9175 0.81248 0.0
O229 O 0.55683 0.9089 0.77581 0.0
C230 C 0.55727 0.92065 0.79068 0.0
C231 C 0.55493 0.86466 0.73433 0.0
C232 C 0.51727 0.88037 0.79813 0.0
C233 C 0.56837 0.86527 0.81618 0.0
O234 O 0.56166 0.85903 0.79829 0.0
O235 O 0.56614 0.88003 0.82099 0.0
O236 O 0.54765 0.85392 0.74666 0.0
O237 O 0.55733 0.87853 0.74389 0.0
O238 O 0.36399 0.2764 0.06391 0.0
Cd239 Cd 0.36062 0.30014 0.05469 0.0
Cd240 Cd 0.38411 0.29339 0.02438 0.0
O241 O 0.37941 0.26985 0.03386 0.0
O242 O 0.33815 0.30599 0.06341 0.0
O243 O 0.34683 0.30511 0.02658 0.0
C244 C 0.33513 0.30731 0.04118 0.0
C245 C 0.38892 0.30065 0.98514 0.0
C246 C 0.37165 0.26585 0.05224 0.0
C247 C 0.39153 0.31594 0.06484 0.0
O248 O 0.39678 0.30692 0.0485 0.0
O249 O 0.37658 0.31637 0.06935 0.0
O250 O 0.39897 0.29206 0.99689 0.0
O251 O 0.37563 0.30457 0.99534 0.0
O252 O 0.97222 0.11367 0.31506 0.0
Cd253 Cd 0.94866 0.10841 0.30737 0.0
Cd254 Cd 0.95177 0.13454 0.2787 0.0
O255 O 0.97557 0.13336 0.28952 0.0
O256 O 0.94531 0.08533 0.31538 0.0
O257 O 0.94369 0.09477 0.27902 0.0
C258 C 0.94318 0.08264 0.29322 0.0
C259 C 0.94547 0.14112 0.23965 0.0
C260 C 0.98114 0.1242 0.3055 0.0
C261 C 0.92854 0.13647 0.3201 0.0
O262 O 0.9353 0.14327 0.3027 0.0
O263 O 0.93172 0.12194 0.32511 0.0
O264 O 0.95109 0.15161 0.25412 0.0
O265 O 0.94407 0.12651 0.24699 0.0
O266 O 0.13787 0.72813 0.55944 0.0
Cd267 Cd 0.14173 0.70422 0.5516 0.0
Cd268 Cd 0.11747 0.70932 0.52126 0.0
O269 O 0.12099 0.73314 0.53046 0.0
O270 O 0.16445 0.69919 0.56003 0.0
O271 O 0.15525 0.69865 0.52346 0.0
C272 C 0.16719 0.69716 0.53785 0.0
C273 C 0.11274 0.70201 0.48201 0.0
C274 C 0.12925 0.73798 0.54792 0.0
C275 C 0.11159 0.68691 0.56252 0.0
O276 O 0.10582 0.69497 0.54549 0.0
O277 O 0.12644 0.6879 0.5675 0.0
O278 O 0.10231 0.70993 0.49406 0.0
O279 O 0.12629 0.69873 0.49196 0.0
O280 O 0.5287 0.11272 0.68849 0.0
Cd281 Cd 0.55241 0.10994 0.69831 0.0
Cd282 Cd 0.54479 0.13367 0.72762 0.0
O283 O 0.52146 0.12838 0.71791 0.0
O284 O 0.55872 0.08747 0.69021 0.0
O285 O 0.55722 0.0965 0.72682 0.0
C286 C 0.55973 0.08467 0.71253 0.0
C287 C 0.5519 0.13877 0.76679 0.0
C288 C 0.51785 0.12029 0.69967 0.0
C289 C 0.56754 0.14115 0.68761 0.0
O290 O 0.55811 0.14642 0.70341 0.0
O291 O 0.56851 0.12613 0.68374 0.0
O292 O 0.54306 0.14859 0.75499 0.0
O293 O 0.55613 0.12555 0.75668 0.0
O294 O 0.14049 0.27916 0.93873 0.0
Cd295 Cd 0.1463 0.30292 0.94428 0.0
Cd296 Cd 0.12002 0.30233 0.97286 0.0
O297 O 0.11962 0.27842 0.96262 0.0
O298 O 0.16951 0.30538 0.93642 0.0
O299 O 0.15979 0.30893 0.97232 0.0
C300 C 0.17205 0.30855 0.95836 0.0
C301 C 0.11452 0.30917 0.01211 0.0
C302 C 0.12891 0.2715 0.94801 0.0
C303 C 0.11905 0.32415 0.93022 0.0
O304 O 0.11202 0.31879 0.94845 0.0
O305 O 0.13319 0.31957 0.92513 0.0
O306 O 0.10358 0.30359 0.99835 0.0
O307 O 0.12889 0.31046 0.00382 0.0
O308 O 0.97771 0.88853 0.19068 0.0
Cd309 Cd 0.95383 0.89391 0.19579 0.0
Cd310 Cd 0.95528 0.86793 0.22527 0.0
O311 O 0.97953 0.86897 0.21676 0.0
O312 O 0.95091 0.91703 0.18764 0.0
O313 O 0.94734 0.9074 0.22359 0.0
C314 C 0.94754 0.9196 0.20951 0.0
C315 C 0.94746 0.86175 0.26392 0.0
C316 C 0.986 0.87798 0.20135 0.0
C317 C 0.93392 0.86594 0.18174 0.0
O318 O 0.93972 0.85921 0.19995 0.0
O319 O 0.93765 0.88033 0.17669 0.0
O320 O 0.95369 0.85113 0.25021 0.0
O321 O 0.9462 0.87623 0.25602 0.0
O322 O 0.3612 0.72322 0.437 0.0
Cd323 Cd 0.35644 0.69939 0.44357 0.0
Cd324 Cd 0.38168 0.70226 0.47405 0.0
O325 O 0.38076 0.72601 0.46289 0.0
O326 O 0.33359 0.69556 0.4347 0.0
O327 O 0.34252 0.69376 0.47132 0.0
C328 C 0.33062 0.69316 0.45673 0.0
C329 C 0.38669 0.69621 0.51371 0.0
C330 C 0.37172 0.73191 0.44702 0.0
C331 C 0.38512 0.67934 0.43275 0.0
O332 O 0.39126 0.68572 0.45097 0.0
O333 O 0.37092 0.68288 0.42637 0.0
O334 O 0.39753 0.70244 0.50039 0.0
O335 O 0.37262 0.69395 0.50477 0.0
O336 O 0.47333 0.11243 0.18998 0.0
Cd337 Cd 0.44964 0.10689 0.19651 0.0
Cd338 Cd 0.45133 0.13277 0.22571 0.0
O339 O 0.47525 0.13227 0.21554 0.0
O340 O 0.44668 0.08378 0.18829 0.0
O341 O 0.444 0.09322 0.22452 0.0
C342 C 0.44393 0.08109 0.21031 0.0
C343 C 0.44465 0.13812 0.26504 0.0
C344 C 0.48159 0.12331 0.19994 0.0
C345 C 0.42906 0.13481 0.18357 0.0
O346 O 0.43514 0.14165 0.20149 0.0
O347 O 0.43285 0.12045 0.17841 0.0
O348 O 0.45077 0.14896 0.25162 0.0
O349 O 0.44272 0.12391 0.25638 0.0
O350 O 0.63779 0.72677 0.93832 0.0
Cd351 Cd 0.64331 0.70296 0.94372 0.0
Cd352 Cd 0.61835 0.70434 0.97494 0.0
O353 O 0.61888 0.72842 0.9654 0.0
O354 O 0.66631 0.69981 0.9351 0.0
O355 O 0.6571 0.69701 0.97145 0.0
C356 C 0.66913 0.69693 0.95706 0.0
C357 C 0.6128 0.69736 0.01413 0.0
C358 C 0.62736 0.73495 0.9494 0.0
C359 C 0.61515 0.68251 0.9322 0.0
O360 O 0.60901 0.68829 0.95086 0.0
O361 O 0.62922 0.68651 0.92583 0.0
O362 O 0.6021 0.70374 0.00073 0.0
O363 O 0.62703 0.69542 0.00558 0.0
O364 O 0.02908 0.88891 0.69217 0.0
Cd365 Cd 0.05285 0.89538 0.69563 0.0
Cd366 Cd 0.0541 0.86828 0.72296 0.0
O367 O 0.03018 0.8666 0.71312 0.0
O368 O 0.05418 0.91872 0.68792 0.0
O369 O 0.05968 0.90893 0.72323 0.0
C370 C 0.05828 0.92124 0.70952 0.0
C371 C 0.06147 0.86187 0.76167 0.0
C372 C 0.02233 0.87642 0.70039 0.0
C373 C 0.07494 0.86946 0.67918 0.0
O374 O 0.07085 0.86213 0.69785 0.0
O375 O 0.06909 0.88318 0.67443 0.0
O376 O 0.05737 0.85098 0.74675 0.0
O377 O 0.06094 0.87666 0.7549 0.0
O378 O 0.8635 0.27958 0.43822 0.0
Cd379 Cd 0.85946 0.30323 0.44735 0.0
Cd380 Cd 0.88387 0.29757 0.47695 0.0
O381 O 0.88012 0.27387 0.46725 0.0
O382 O 0.83678 0.30829 0.43885 0.0
O383 O 0.84571 0.30804 0.47557 0.0
C384 C 0.83387 0.30978 0.46108 0.0
C385 C 0.88917 0.30464 0.51612 0.0
C386 C 0.872 0.26945 0.44941 0.0
C387 C 0.88951 0.3205 0.43631 0.0
O388 O 0.89543 0.31195 0.45269 0.0
O389 O 0.87455 0.31993 0.43196 0.0
O390 O 0.89935 0.29664 0.50371 0.0
O391 O 0.87551 0.30806 0.50662 0.0
O392 O 0.47676 0.88845 0.31162 0.0
Cd393 Cd 0.45265 0.89195 0.30438 0.0
Cd394 Cd 0.45793 0.86722 0.27498 0.0
O395 O 0.48169 0.87049 0.28397 0.0
O396 O 0.44754 0.91457 0.31334 0.0
O397 O 0.44679 0.90574 0.27659 0.0
C398 C 0.44538 0.91753 0.29125 0.0
C399 C 0.44995 0.86223 0.23613 0.0
C400 C 0.48656 0.87937 0.30074 0.0
C401 C 0.43598 0.8616 0.3166 0.0
O402 O 0.44413 0.85575 0.29976 0.0
O403 O 0.43649 0.87658 0.32088 0.0
O404 O 0.45772 0.85171 0.24823 0.0
O405 O 0.44736 0.87606 0.24571 0.0
O406 O 0.86281 0.72576 0.06352 0.0
Cd407 Cd 0.85769 0.7022 0.05554 0.0
Cd408 Cd 0.88231 0.70579 0.02475 0.0
O409 O 0.88051 0.72965 0.03519 0.0
O410 O 0.83467 0.69826 0.06339 0.0
O411 O 0.84425 0.69734 0.02704 0.0
C412 C 0.83209 0.69638 0.04113 0.0
C413 C 0.88757 0.69931 0.98531 0.0
C414 C 0.87235 0.73498 0.05246 0.0
C415 C 0.88656 0.68267 0.0658 0.0
O416 O 0.89265 0.68987 0.0482 0.0
O417 O 0.87207 0.68526 0.07173 0.0
O418 O 0.89814 0.70621 0.99839 0.0
O419 O 0.87358 0.69666 0.9943 0.0
O420 O 0.02538 0.11314 0.81398 0.0
Cd421 Cd 0.04925 0.10989 0.80534 0.0
Cd422 Cd 0.04277 0.13322 0.77467 0.0
O423 O 0.01917 0.12832 0.78353 0.0
O424 O 0.0552 0.08746 0.81415 0.0
O425 O 0.05445 0.09613 0.77731 0.0
C426 C 0.05664 0.08444 0.79194 0.0
C427 C 0.05053 0.13766 0.73557 0.0
C428 C 0.01495 0.12063 0.80186 0.0
C429 C 0.06486 0.14097 0.81542 0.0
O430 O 0.05593 0.14614 0.79893 0.0
O431 O 0.06531 0.12603 0.82004 0.0
O432 O 0.04165 0.14775 0.74678 0.0
O433 O 0.05448 0.12455 0.74624 0.0
O434 O 0.64008 0.28126 0.56598 0.0
Cd435 Cd 0.64539 0.305 0.55937 0.0
Cd436 Cd 0.61885 0.30301 0.53121 0.0
O437 O 0.61918 0.27927 0.5423 0.0
O438 O 0.66856 0.30798 0.56706 0.0
O439 O 0.65875 0.31067 0.53105 0.0
C440 C 0.67103 0.31074 0.54499 0.0
C441 C 0.61275 0.30923 0.49192 0.0
C442 C 0.62877 0.27299 0.55713 0.0
C443 C 0.61783 0.32589 0.57283 0.0
O444 O 0.61079 0.31982 0.55509 0.0
O445 O 0.63214 0.32185 0.5779 0.0
O446 O 0.60204 0.30385 0.50624 0.0
O447 O 0.62727 0.31055 0.49966 0.0
H448 H 0.07954 0.37962 0.21068 0.0
H449 H 0.09139 0.37093 0.17332 0.0
H450 H 0.05495 0.33437 0.16678 0.0
H451 H 0.04354 0.34259 0.20446 0.0
H452 H 0.0822 0.32164 0.15789 0.0
H453 H 0.05618 0.37011 0.13213 0.0
H454 H 0.04991 0.39904 0.13256 0.0
H455 H 0.09943 0.41014 0.11955 0.0
H456 H 0.10604 0.38127 0.11933 0.0
H457 H 0.08743 0.30216 0.03683 0.0
H458 H 0.07937 0.31247 0.0753 0.0
H459 H 0.12363 0.33906 0.08025 0.0
H460 H 0.13192 0.32861 0.04163 0.0
H461 H 0.09534 0.35735 0.09072 0.0
H462 H 0.12025 0.30784 0.11347 0.0
H463 H 0.12528 0.2787 0.11171 0.0
H464 H 0.076 0.26943 0.12909 0.0
H465 H 0.07061 0.29852 0.13061 0.0
C466 C 0.07395 0.36988 0.20108 0.0
C467 C 0.06062 0.36178 0.21051 0.0
C468 C 0.08071 0.36493 0.17969 0.0
C469 C 0.07404 0.35201 0.16707 0.0
C470 C 0.06041 0.34429 0.17619 0.0
C471 C 0.05383 0.34905 0.1977 0.0
C472 C 0.08158 0.34597 0.14496 0.0
C473 C 0.08488 0.32947 0.14314 0.0
C474 C 0.08558 0.35618 0.12588 0.0
C475 C 0.08163 0.37354 0.12598 0.0
C476 C 0.06576 0.37873 0.12954 0.0
C477 C 0.06214 0.39511 0.12972 0.0
C478 C 0.07427 0.40642 0.12616 0.0
C479 C 0.09005 0.40137 0.12235 0.0
C480 C 0.09374 0.385 0.12218 0.0
C481 C 0.09554 0.31009 0.04616 0.0
C482 C 0.11034 0.31454 0.03621 0.0
C483 C 0.09091 0.31596 0.06816 0.0
C484 C 0.10092 0.3265 0.08064 0.0
C485 C 0.11575 0.33093 0.07087 0.0
C486 C 0.1205 0.32488 0.04891 0.0
C487 C 0.09556 0.33306 0.10363 0.0
C488 C 0.09273 0.34962 0.10561 0.0
C489 C 0.09178 0.32289 0.12277 0.0
C490 C 0.095 0.30537 0.12197 0.0
C491 C 0.11045 0.29959 0.11673 0.0
C492 C 0.11337 0.28308 0.11581 0.0
C493 C 0.10096 0.27222 0.12024 0.0
C494 C 0.0856 0.27785 0.12565 0.0
C495 C 0.08261 0.29435 0.12657 0.0
H496 H 0.10325 0.25944 0.11952 0.0
H497 H 0.07145 0.4191 0.1263 0.0
H498 H 0.94533 0.83159 0.28217 0.0
H499 H 0.93368 0.82341 0.31968 0.0
H500 H 0.92366 0.87287 0.33653 0.0
H501 H 0.9353 0.88123 0.29872 0.0
H502 H 0.93682 0.8558 0.37422 0.0
H503 H 0.89361 0.8504 0.31968 0.0
H504 H 0.88042 0.84165 0.28299 0.0
H505 H 0.88845 0.79235 0.30162 0.0
H506 H 0.9019 0.80081 0.33828 0.0
H507 H 0.87135 0.81733 0.45448 0.0
H508 H 0.87908 0.8295 0.41677 0.0
H509 H 0.92735 0.81193 0.42579 0.0
H510 H 0.9198 0.79978 0.46326 0.0
H511 H 0.89183 0.81675 0.37557 0.0
H512 H 0.95323 0.84105 0.40762 0.0
H513 H 0.96571 0.85064 0.44442 0.0
H514 H 0.91945 0.86432 0.47101 0.0
H515 H 0.90673 0.85504 0.43425 0.0
C516 C 0.94074 0.84078 0.29385 0.0
C517 C 0.94122 0.85708 0.28741 0.0
C518 C 0.934 0.83606 0.31526 0.0
C519 C 0.92762 0.84751 0.33076 0.0
C520 C 0.92845 0.86384 0.32474 0.0
C521 C 0.9351 0.86859 0.30316 0.0
C522 C 0.92013 0.84226 0.35321 0.0
C523 C 0.92694 0.84733 0.37453 0.0
C524 C 0.90705 0.83141 0.35361 0.0
C525 C 0.89887 0.82625 0.33165 0.0
C526 C 0.89267 0.83769 0.31588 0.0
C527 C 0.88513 0.83278 0.29509 0.0
C528 C 0.88362 0.81645 0.28996 0.0
C529 C 0.88963 0.805 0.30562 0.0
C530 C 0.89719 0.80984 0.32642 0.0
C531 C 0.88357 0.81595 0.44831 0.0
C532 C 0.89497 0.80763 0.46193 0.0
C533 C 0.88796 0.82291 0.42678 0.0
C534 C 0.90385 0.82182 0.41866 0.0
C535 C 0.91509 0.81313 0.43189 0.0
C536 C 0.91071 0.80611 0.45327 0.0
C537 C 0.90887 0.8299 0.39654 0.0
C538 C 0.90162 0.82534 0.37528 0.0
C539 C 0.92144 0.84134 0.39621 0.0
C540 C 0.92902 0.84722 0.41824 0.0
C541 C 0.94573 0.84618 0.42127 0.0
C542 C 0.95284 0.85155 0.44213 0.0
C543 C 0.94337 0.85804 0.46007 0.0
C544 C 0.92677 0.85924 0.45714 0.0
C545 C 0.9196 0.85391 0.4363 0.0
H546 H 0.9489 0.86217 0.47622 0.0
H547 H 0.87778 0.81267 0.27386 0.0
H548 H 0.42449 0.62337 0.70878 0.0
H549 H 0.4125 0.63244 0.67174 0.0
H550 H 0.44625 0.67168 0.66889 0.0
H551 H 0.45784 0.66301 0.70624 0.0
H552 H 0.41808 0.68268 0.66009 0.0
H553 H 0.44823 0.63746 0.63176 0.0
H554 H 0.45693 0.60919 0.63021 0.0
H555 H 0.40869 0.59446 0.61476 0.0
H556 H 0.39967 0.62265 0.61651 0.0
H557 H 0.41247 0.70529 0.53995 0.0
H558 H 0.42081 0.69484 0.57823 0.0
H559 H 0.37898 0.66443 0.58027 0.0
H560 H 0.3704 0.67501 0.54188 0.0
H561 H 0.40857 0.64832 0.59013 0.0
H562 H 0.37944 0.69477 0.61567 0.0
H563 H 0.372 0.72342 0.61589 0.0
H564 H 0.42015 0.73614 0.63527 0.0
H565 H 0.42794 0.70757 0.63484 0.0
C566 C 0.42949 0.63379 0.70007 0.0
C567 C 0.44211 0.64248 0.71044 0.0
C568 C 0.42264 0.63897 0.67885 0.0
C569 C 0.42849 0.65274 0.66737 0.0
C570 C 0.44143 0.6611 0.67742 0.0
C571 C 0.44811 0.65607 0.69874 0.0
C572 C 0.42079 0.65894 0.64548 0.0
C573 C 0.41619 0.67516 0.64473 0.0
C574 C 0.41785 0.64909 0.62558 0.0
C575 C 0.42324 0.63215 0.62453 0.0
C576 C 0.43946 0.62818 0.62822 0.0
C577 C 0.44445 0.61218 0.62727 0.0
C578 C 0.43336 0.60003 0.62246 0.0
C579 C 0.41726 0.60388 0.61853 0.0
C580 C 0.4122 0.61987 0.61948 0.0
C581 C 0.40492 0.69652 0.54864 0.0
C582 C 0.39076 0.691 0.53791 0.0
C583 C 0.40971 0.69057 0.57054 0.0
C584 C 0.4005 0.67888 0.5821 0.0
C585 C 0.38624 0.67345 0.57161 0.0
C586 C 0.38131 0.67958 0.54979 0.0
C587 C 0.4062 0.67204 0.60474 0.0
C588 C 0.41038 0.65573 0.60561 0.0
C589 C 0.40896 0.68184 0.62467 0.0
C590 C 0.4043 0.69903 0.62504 0.0
C591 C 0.38847 0.70368 0.61979 0.0
C592 C 0.38419 0.71991 0.61999 0.0
C593 C 0.3956 0.73159 0.62554 0.0
C594 C 0.41132 0.72707 0.63096 0.0
C595 C 0.41567 0.71087 0.63077 0.0
H596 H 0.39226 0.74415 0.62568 0.0
H597 H 0.43725 0.58765 0.62173 0.0
H598 H 0.57655 0.12515 0.79174 0.0
H599 H 0.58845 0.13497 0.82844 0.0
H600 H 0.55266 0.17234 0.83195 0.0
H601 H 0.54107 0.1629 0.795 0.0
H602 H 0.58074 0.18476 0.83935 0.0
H603 H 0.55279 0.13852 0.86931 0.0
H604 H 0.54548 0.10987 0.87149 0.0
H605 H 0.59451 0.0976 0.8862 0.0
H606 H 0.60215 0.12617 0.88381 0.0
H607 H 0.58719 0.21013 0.95776 0.0
H608 H 0.57889 0.19879 0.92006 0.0
H609 H 0.6205 0.16802 0.91993 0.0
H610 H 0.62894 0.17936 0.95787 0.0
H611 H 0.59219 0.15164 0.90996 0.0
H612 H 0.61935 0.19872 0.88278 0.0
H613 H 0.62587 0.22757 0.88147 0.0
H614 H 0.57723 0.23845 0.8623 0.0
H615 H 0.57036 0.20967 0.86381 0.0
C616 C 0.57109 0.13531 0.80053 0.0
C617 C 0.55788 0.14327 0.79045 0.0
C618 C 0.57789 0.14091 0.82155 0.0
C619 C 0.57144 0.1544 0.83307 0.0
C620 C 0.55793 0.16199 0.82336 0.0
C621 C 0.55126 0.15653 0.80227 0.0
C622 C 0.5791 0.16113 0.85462 0.0
C623 C 0.58306 0.17752 0.85487 0.0
C624 C 0.58263 0.15164 0.87466 0.0
C625 C 0.57806 0.13446 0.87612 0.0
C626 C 0.56203 0.1297 0.87282 0.0
C627 C 0.55783 0.11348 0.87413 0.0
C628 C 0.56953 0.10192 0.87891 0.0
C629 C 0.58546 0.10656 0.88246 0.0
C630 C 0.58973 0.12277 0.88115 0.0
C631 C 0.5947 0.20108 0.94963 0.0
C632 C 0.60875 0.19566 0.9608 0.0
C633 C 0.58994 0.19463 0.92803 0.0
C634 C 0.59911 0.18261 0.91713 0.0
C635 C 0.61326 0.17729 0.92805 0.0
C636 C 0.61811 0.18385 0.94964 0.0
C637 C 0.59348 0.17528 0.89475 0.0
C638 C 0.58995 0.15881 0.89434 0.0
C639 C 0.59021 0.18471 0.8746 0.0
C640 C 0.59432 0.20204 0.87359 0.0
C641 C 0.61001 0.20727 0.87846 0.0
C642 C 0.61378 0.22361 0.87765 0.0
C643 C 0.60197 0.23484 0.87186 0.0
C644 C 0.58637 0.22974 0.8668 0.0
C645 C 0.58254 0.21341 0.8676 0.0
H646 H 0.60491 0.24749 0.87124 0.0
H647 H 0.56625 0.08937 0.87992 0.0
H648 H 0.04082 0.66355 0.29284 0.0
H649 H 0.05316 0.67329 0.32906 0.0
H650 H 0.08738 0.63446 0.32668 0.0
H651 H 0.07475 0.62436 0.29059 0.0
H652 H 0.07823 0.6397 0.37084 0.0
H653 H 0.09766 0.6725 0.3083 0.0
H654 H 0.09589 0.68986 0.27323 0.0
H655 H 0.06878 0.72451 0.31262 0.0
H656 H 0.07019 0.70725 0.34786 0.0
H657 H 0.12828 0.67897 0.45608 0.0
H658 H 0.11965 0.66734 0.41843 0.0
H659 H 0.07939 0.69985 0.41665 0.0
H660 H 0.08785 0.71143 0.45416 0.0
H661 H 0.09461 0.69694 0.3733 0.0
H662 H 0.07391 0.66254 0.435 0.0
H663 H 0.07634 0.64501 0.46982 0.0
H664 H 0.10725 0.61324 0.43123 0.0
H665 H 0.10518 0.63071 0.39626 0.0
C666 C 0.05087 0.65697 0.30012 0.0
C667 C 0.05688 0.64324 0.28873 0.0
C668 C 0.058 0.66262 0.32078 0.0
C669 C 0.07147 0.65486 0.33031 0.0
C670 C 0.07708 0.64073 0.31957 0.0
C671 C 0.06984 0.63496 0.29896 0.0
C672 C 0.07981 0.66175 0.35117 0.0
C673 C 0.08206 0.65214 0.37121 0.0
C674 C 0.08474 0.67804 0.3518 0.0
C675 C 0.08393 0.68851 0.33068 0.0
C676 C 0.09123 0.68377 0.30945 0.0
C677 C 0.0903 0.6936 0.28954 0.0
C678 C 0.0822 0.70826 0.29068 0.0
C679 C 0.07504 0.71314 0.31176 0.0
C680 C 0.07592 0.70335 0.33171 0.0
C681 C 0.11771 0.68377 0.4475 0.0
C682 C 0.10872 0.69608 0.45814 0.0
C683 C 0.11275 0.67706 0.42607 0.0
C684 C 0.09879 0.68264 0.41487 0.0
C685 C 0.09018 0.69535 0.42501 0.0
C686 C 0.09503 0.70194 0.44648 0.0
C687 C 0.09272 0.67497 0.393 0.0
C688 C 0.09093 0.68446 0.37278 0.0
C689 C 0.08836 0.65856 0.39215 0.0
C690 C 0.08955 0.64803 0.41312 0.0
C691 C 0.08134 0.65189 0.43401 0.0
C692 C 0.08263 0.64195 0.45376 0.0
C693 C 0.09198 0.62805 0.45276 0.0
C694 C 0.10003 0.62403 0.43199 0.0
C695 C 0.0988 0.63394 0.4122 0.0
H696 H 0.09296 0.62037 0.46807 0.0
H697 H 0.08149 0.71586 0.27525 0.0
H698 H 0.63229 0.82852 0.54196 0.0
H699 H 0.62258 0.84031 0.57883 0.0
H700 H 0.58365 0.80617 0.58025 0.0
H701 H 0.59299 0.79472 0.54317 0.0
H702 H 0.57237 0.83459 0.58841 0.0
H703 H 0.617 0.80419 0.61832 0.0
H704 H 0.64525 0.79556 0.62091 0.0
H705 H 0.65951 0.84374 0.63776 0.0
H706 H 0.63135 0.8527 0.63497 0.0
H707 H 0.54659 0.83918 0.70693 0.0
H708 H 0.55815 0.83117 0.66921 0.0
H709 H 0.589 0.87271 0.6703 0.0
H710 H 0.57733 0.88093 0.70817 0.0
H711 H 0.60515 0.84344 0.66016 0.0
H712 H 0.5594 0.87289 0.63308 0.0
H713 H 0.53082 0.88047 0.63157 0.0
H714 H 0.51838 0.83259 0.61036 0.0
H715 H 0.54688 0.82465 0.61208 0.0
C716 C 0.6218 0.8234 0.55033 0.0
C717 C 0.6134 0.81071 0.53963 0.0
C718 C 0.61626 0.83014 0.57144 0.0
C719 C 0.60238 0.82412 0.58243 0.0
C720 C 0.59431 0.81111 0.57208 0.0
C721 C 0.59972 0.80452 0.55091 0.0
C722 C 0.59575 0.83172 0.60411 0.0
C723 C 0.57953 0.83634 0.60416 0.0
C724 C 0.60516 0.83451 0.62449 0.0
C725 C 0.62209 0.82915 0.62617 0.0
C726 C 0.62618 0.81297 0.62238 0.0
C727 C 0.64217 0.80801 0.62393 0.0
C728 C 0.65417 0.8191 0.62942 0.0
C729 C 0.6502 0.83517 0.63346 0.0
C730 C 0.63423 0.84019 0.63191 0.0
C731 C 0.55571 0.84672 0.69906 0.0
C732 C 0.56102 0.86071 0.71052 0.0
C733 C 0.5623 0.84213 0.67748 0.0
C734 C 0.5744 0.85136 0.66693 0.0
C735 C 0.57966 0.86543 0.67817 0.0
C736 C 0.57292 0.87015 0.6997 0.0
C737 C 0.58177 0.84594 0.64449 0.0
C738 C 0.59809 0.84177 0.64429 0.0
C739 C 0.57243 0.8434 0.62403 0.0
C740 C 0.55528 0.84815 0.62289 0.0
C741 C 0.55056 0.86394 0.62828 0.0
C742 C 0.53438 0.86831 0.62735 0.0
C743 C 0.52279 0.85701 0.62092 0.0
C744 C 0.52737 0.84132 0.61536 0.0
C745 C 0.54354 0.83689 0.61628 0.0
H746 H 0.51027 0.86041 0.62021 0.0
H747 H 0.66655 0.81524 0.63061 0.0
H748 H 0.41393 0.2912 0.95751 0.0
H749 H 0.42307 0.30328 0.92078 0.0
H750 H 0.38329 0.33639 0.92261 0.0
H751 H 0.37381 0.32405 0.95929 0.0
H752 H 0.38895 0.32647 0.87823 0.0
H753 H 0.42049 0.34815 0.94086 0.0
H754 H 0.43768 0.34735 0.97619 0.0
H755 H 0.47357 0.32122 0.93777 0.0
H756 H 0.45649 0.32167 0.90229 0.0
H757 H 0.42631 0.37803 0.79307 0.0
H758 H 0.41476 0.36881 0.83047 0.0
H759 H 0.4494 0.3304 0.83322 0.0
H760 H 0.46091 0.33943 0.79595 0.0
H761 H 0.44533 0.34562 0.87631 0.0
H762 H 0.41274 0.32256 0.81459 0.0
H763 H 0.39548 0.32351 0.77933 0.0
H764 H 0.36157 0.353 0.81635 0.0
H765 H 0.37874 0.35239 0.85176 0.0
C766 C 0.40699 0.30093 0.95 0.0
C767 C 0.39321 0.30676 0.96144 0.0
C768 C 0.41229 0.3079 0.92904 0.0
C769 C 0.40409 0.32101 0.91921 0.0
C770 C 0.38988 0.32636 0.92996 0.0
C771 C 0.38447 0.31929 0.95091 0.0
C772 C 0.41074 0.32937 0.89821 0.0
C773 C 0.40119 0.3309 0.87796 0.0
C774 C 0.42678 0.33503 0.8977 0.0
C775 C 0.43715 0.33484 0.91897 0.0
C776 C 0.432 0.34214 0.93999 0.0
C777 C 0.44173 0.34176 0.96004 0.0
C778 C 0.45669 0.33421 0.95924 0.0
C779 C 0.46197 0.32706 0.93837 0.0
C780 C 0.45228 0.32739 0.91828 0.0
C781 C 0.43158 0.36774 0.80181 0.0
C782 C 0.44449 0.35943 0.79153 0.0
C783 C 0.42491 0.36244 0.82309 0.0
C784 C 0.43113 0.34883 0.83449 0.0
C785 C 0.4444 0.34091 0.8247 0.0
C786 C 0.45095 0.34608 0.80337 0.0
C787 C 0.42364 0.34247 0.8563 0.0
C788 C 0.43304 0.34133 0.87671 0.0
C789 C 0.40747 0.33726 0.85695 0.0
C790 C 0.39712 0.33759 0.83572 0.0
C791 C 0.40167 0.32937 0.81514 0.0
C792 C 0.39189 0.32982 0.79515 0.0
C793 C 0.37746 0.33836 0.79558 0.0
C794 C 0.37276 0.34642 0.81603 0.0
C795 C 0.38251 0.34602 0.83607 0.0
H796 H 0.36991 0.33869 0.78008 0.0
H797 H 0.46421 0.33393 0.97478 0.0
H798 H 0.87096 0.18802 0.05035 0.0
H799 H 0.87973 0.17952 0.08969 0.0
H800 H 0.9286 0.1768 0.06487 0.0
H801 H 0.92005 0.18586 0.02611 0.0
H802 H 0.89284 0.15391 0.1069 0.0
H803 H 0.95499 0.18576 0.10657 0.0
H804 H 0.96741 0.21029 0.09046 0.0
H805 H 0.92124 0.23307 0.08736 0.0
H806 H 0.90857 0.20876 0.10374 0.0
H807 H 0.93946 0.12216 0.20101 0.0
H808 H 0.92965 0.13085 0.16234 0.0
H809 H 0.92825 0.17988 0.1869 0.0
H810 H 0.93879 0.17139 0.22488 0.0
H811 H 0.93892 0.18056 0.14595 0.0
H812 H 0.89349 0.1547 0.18065 0.0
H813 H 0.87851 0.13271 0.19968 0.0
H814 H 0.88658 0.10262 0.13942 0.0
H815 H 0.90178 0.12437 0.12014 0.0
C816 C 0.88358 0.18571 0.05339 0.0
C817 C 0.89483 0.18781 0.03521 0.0
C818 C 0.88858 0.18078 0.07584 0.0
C819 C 0.90489 0.17776 0.08043 0.0
C820 C 0.91602 0.17945 0.06204 0.0
C821 C 0.91109 0.1846 0.03981 0.0
C822 C 0.91037 0.17283 0.10434 0.0
C823 C 0.90289 0.15977 0.11547 0.0
C824 C 0.92328 0.18064 0.11584 0.0
C825 C 0.93082 0.19537 0.10617 0.0
C826 C 0.9475 0.19602 0.10254 0.0
C827 C 0.95458 0.20989 0.09334 0.0
C828 C 0.94511 0.22321 0.08782 0.0
C829 C 0.92855 0.22272 0.09156 0.0
C830 C 0.92141 0.2089 0.10077 0.0
C831 C 0.93714 0.13479 0.19804 0.0
C832 C 0.93994 0.14609 0.21596 0.0
C833 C 0.9314 0.13975 0.176 0.0
C834 C 0.92794 0.15603 0.17169 0.0
C835 C 0.93085 0.16727 0.18962 0.0
C836 C 0.93688 0.16238 0.2114 0.0
C837 C 0.92149 0.16153 0.14855 0.0
C838 C 0.92884 0.1747 0.13748 0.0
C839 C 0.90809 0.15419 0.13757 0.0
C840 C 0.8989 0.14111 0.14906 0.0
C841 C 0.89216 0.14335 0.17152 0.0
C842 C 0.88362 0.13094 0.18235 0.0
C843 C 0.88163 0.11626 0.17079 0.0
C844 C 0.88815 0.11399 0.14836 0.0
C845 C 0.89671 0.12636 0.13747 0.0
H846 H 0.87502 0.10666 0.1792 0.0
H847 H 0.95062 0.23392 0.08069 0.0
H848 H 0.92586 0.62299 0.79292 0.0
H849 H 0.91425 0.63209 0.83036 0.0
H850 H 0.94842 0.6709 0.83298 0.0
H851 H 0.95992 0.66204 0.79557 0.0
H852 H 0.94433 0.65489 0.87639 0.0
H853 H 0.91239 0.67883 0.81446 0.0
H854 H 0.89536 0.67816 0.77895 0.0
H855 H 0.861 0.64874 0.81517 0.0
H856 H 0.87795 0.64906 0.85082 0.0
H857 H 0.91328 0.70843 0.95897 0.0
H858 H 0.92259 0.69676 0.92202 0.0
H859 H 0.88166 0.66506 0.92113 0.0
H860 H 0.87198 0.67711 0.95792 0.0
H861 H 0.88821 0.67485 0.8777 0.0
H862 H 0.91879 0.65202 0.94036 0.0
H863 H 0.93565 0.65205 0.97605 0.0
H864 H 0.97241 0.67791 0.93908 0.0
H865 H 0.95567 0.67824 0.90325 0.0
C866 C 0.93102 0.63333 0.80165 0.0
C867 C 0.94378 0.64183 0.79129 0.0
C868 C 0.92432 0.63856 0.82294 0.0
C869 C 0.9304 0.65225 0.83431 0.0
C870 C 0.94354 0.66033 0.82447 0.0
C871 C 0.95008 0.65526 0.80308 0.0
C872 C 0.92284 0.65854 0.8561 0.0
C873 C 0.9321 0.65936 0.87667 0.0
C874 C 0.90674 0.66394 0.85658 0.0
C875 C 0.89652 0.6638 0.8352 0.0
C876 C 0.90127 0.67209 0.81478 0.0
C877 C 0.89162 0.67181 0.79465 0.0
C878 C 0.87713 0.66337 0.79478 0.0
C879 C 0.87224 0.65525 0.81508 0.0
C880 C 0.88186 0.65548 0.83526 0.0
C881 C 0.90614 0.69911 0.95079 0.0
C882 C 0.89197 0.69359 0.96147 0.0
C883 C 0.91153 0.69236 0.92971 0.0
C884 C 0.90307 0.67971 0.91909 0.0
C885 C 0.88847 0.67471 0.92909 0.0
C886 C 0.88294 0.68162 0.9501 0.0
C887 C 0.90979 0.67147 0.89802 0.0
C888 C 0.90039 0.67024 0.87757 0.0
C889 C 0.92574 0.66554 0.8977 0.0
C890 C 0.93591 0.66526 0.91917 0.0
C891 C 0.93042 0.65781 0.93988 0.0
C892 C 0.93996 0.65774 0.96013 0.0
C893 C 0.95507 0.665 0.95985 0.0
C894 C 0.96069 0.6723 0.93928 0.0
C895 C 0.95119 0.67242 0.91899 0.0
H896 H 0.96244 0.66495 0.97554 0.0
H897 H 0.86968 0.66317 0.77917 0.0
H898 H 0.12963 0.17554 0.54502 0.0
H899 H 0.1208 0.1648 0.58316 0.0
H900 H 0.07802 0.19381 0.57947 0.0
H901 H 0.08664 0.20444 0.54144 0.0
H902 H 0.09261 0.19413 0.62396 0.0
H903 H 0.07578 0.1558 0.56463 0.0
H904 H 0.0803 0.13705 0.53168 0.0
H905 H 0.11231 0.10925 0.57469 0.0
H906 H 0.10814 0.12799 0.60781 0.0
H907 H 0.0398 0.16091 0.70576 0.0
H908 H 0.05201 0.16981 0.66898 0.0
H909 H 0.08828 0.13313 0.67555 0.0
H910 H 0.07574 0.12379 0.71213 0.0
H911 H 0.07997 0.13611 0.63099 0.0
H912 H 0.09587 0.17269 0.69114 0.0
H913 H 0.09223 0.19132 0.72447 0.0
H914 H 0.06375 0.22237 0.68093 0.0
H915 H 0.06703 0.20381 0.64742 0.0
C916 C 0.11844 0.17976 0.5525 0.0
C917 C 0.10881 0.1908 0.5402 0.0
C918 C 0.11338 0.17356 0.5742 0.0
C919 C 0.09868 0.17842 0.58403 0.0
C920 C 0.08938 0.18989 0.57219 0.0
C921 C 0.09432 0.19593 0.55043 0.0
C922 C 0.09263 0.17129 0.60628 0.0
C923 C 0.08975 0.18147 0.62548 0.0
C924 C 0.08935 0.15469 0.60845 0.0
C925 C 0.0918 0.1434 0.58859 0.0
C926 C 0.08389 0.14577 0.56699 0.0
C927 C 0.08637 0.13513 0.5483 0.0
C928 C 0.09663 0.122 0.55106 0.0
C929 C 0.10439 0.11945 0.57256 0.0
C930 C 0.10197 0.13007 0.5913 0.0
C931 C 0.05027 0.15461 0.69926 0.0
C932 C 0.05688 0.14172 0.71196 0.0
C933 C 0.05732 0.15979 0.67829 0.0
C934 C 0.07134 0.15244 0.66978 0.0
C935 C 0.07755 0.13908 0.68184 0.0
C936 C 0.07036 0.13374 0.70273 0.0
C937 C 0.07964 0.15901 0.64865 0.0
C938 C 0.08298 0.14875 0.62965 0.0
C939 C 0.08352 0.17553 0.64674 0.0
C940 C 0.0816 0.18679 0.66681 0.0
C941 C 0.08874 0.18344 0.68871 0.0
C942 C 0.08676 0.19399 0.70763 0.0
C943 C 0.07774 0.208 0.70483 0.0
C944 C 0.07072 0.21151 0.68308 0.0
C945 C 0.07265 0.20099 0.66411 0.0
H946 H 0.07621 0.21616 0.7195 0.0
H947 H 0.09853 0.11377 0.53657 0.0
H948 H 0.58301 0.30829 0.47206 0.0
H949 H 0.57484 0.31824 0.43351 0.0
H950 H 0.62361 0.33236 0.41882 0.0
H951 H 0.63197 0.32227 0.45753 0.0
H952 H 0.5758 0.34806 0.41569 0.0
H953 H 0.62954 0.3284 0.35869 0.0
H954 H 0.65037 0.30734 0.35781 0.0
H955 H 0.61928 0.27548 0.3959 0.0
H956 H 0.59821 0.29627 0.39673 0.0
H957 H 0.56982 0.38312 0.30022 0.0
H958 H 0.5799 0.37468 0.3389 0.0
H959 H 0.56956 0.32534 0.3216 0.0
H960 H 0.55958 0.33361 0.28311 0.0
H961 H 0.59908 0.32823 0.34072 0.0
H962 H 0.54528 0.34593 0.3581 0.0
H963 H 0.52283 0.36521 0.35888 0.0
H964 H 0.55119 0.39789 0.39995 0.0
H965 H 0.57389 0.37887 0.39916 0.0
C966 C 0.59206 0.31341 0.46062 0.0
C967 C 0.60817 0.31445 0.46788 0.0
C968 C 0.58733 0.31919 0.43861 0.0
C969 C 0.59859 0.32606 0.42326 0.0
C970 C 0.61473 0.32699 0.43031 0.0
C971 C 0.61949 0.32122 0.45242 0.0
C972 C 0.59326 0.33225 0.39998 0.0
C973 C 0.58097 0.34379 0.3993 0.0
C974 C 0.59988 0.32661 0.37858 0.0
C975 C 0.61239 0.31396 0.37801 0.0
C976 C 0.62715 0.31688 0.36682 0.0
C977 C 0.63899 0.305 0.36634 0.0
C978 C 0.63617 0.29011 0.37687 0.0
C979 C 0.62148 0.28705 0.38784 0.0
C980 C 0.60959 0.29888 0.38835 0.0
C981 C 0.56961 0.37049 0.30473 0.0
C982 C 0.56386 0.35905 0.28859 0.0
C983 C 0.57538 0.36568 0.32683 0.0
C984 C 0.57548 0.34937 0.33314 0.0
C985 C 0.56968 0.33798 0.31707 0.0
C986 C 0.56388 0.34276 0.2951 0.0
C987 C 0.5816 0.344 0.35644 0.0
C988 C 0.59406 0.33265 0.35712 0.0
C989 C 0.57497 0.34963 0.37784 0.0
C990 C 0.56134 0.36106 0.37834 0.0
C991 C 0.54677 0.35729 0.36713 0.0
C992 C 0.53399 0.36815 0.3676 0.0
C993 C 0.5356 0.38279 0.37939 0.0
C994 C 0.54997 0.38657 0.39079 0.0
C995 C 0.5628 0.37575 0.39034 0.0
H996 H 0.52569 0.39119 0.37975 0.0
H997 H 0.64536 0.28093 0.37649 0.0
H998 H 0.43463 0.88191 0.20442 0.0
H999 H 0.42201 0.87404 0.16706 0.0
H1000 H 0.43739 0.82518 0.17795 0.0
H1001 H 0.45007 0.83289 0.21497 0.0
H1002 H 0.43488 0.85949 0.12638 0.0
H1003 H 0.40627 0.80071 0.16148 0.0
H1004 H 0.39535 0.79001 0.19869 0.0
H1005 H 0.38447 0.83784 0.2219 0.0
H1006 H 0.3951 0.84881 0.18471 0.0
H1007 H 0.41863 0.80382 0.03652 0.0
H1008 H 0.42662 0.81589 0.07384 0.0
H1009 H 0.37772 0.83035 0.08668 0.0
H1010 H 0.36956 0.81834 0.04901 0.0
H1011 H 0.39318 0.81692 0.12656 0.0
H1012 H 0.40207 0.85798 0.0694 0.0
H1013 H 0.4122 0.86936 0.03218 0.0
H1014 H 0.46058 0.85893 0.0532 0.0
H1015 H 0.45072 0.84725 0.09041 0.0
C1016 C 0.43543 0.86952 0.19874 0.0
C1017 C 0.44334 0.85803 0.21269 0.0
C1018 C 0.42822 0.86505 0.17742 0.0
C1019 C 0.4286 0.84899 0.16992 0.0
C1020 C 0.43679 0.8376 0.18356 0.0
C1021 C 0.4441 0.84206 0.20468 0.0
C1022 C 0.4204 0.84394 0.14794 0.0
C1023 C 0.4257 0.85025 0.12641 0.0
C1024 C 0.40822 0.83209 0.14804 0.0
C1025 C 0.4016 0.82558 0.17036 0.0
C1026 C 0.40148 0.80894 0.17448 0.0
C1027 C 0.39535 0.80283 0.19558 0.0
C1028 C 0.38925 0.81325 0.21266 0.0
C1029 C 0.38924 0.82979 0.20868 0.0
C1030 C 0.39534 0.83596 0.1876 0.0
C1031 C 0.40951 0.80945 0.0473 0.0
C1032 C 0.39344 0.81015 0.03974 0.0
C1033 C 0.41413 0.81642 0.0686 0.0
C1034 C 0.4028 0.82418 0.08288 0.0
C1035 C 0.38665 0.82447 0.07584 0.0
C1036 C 0.38202 0.81761 0.05433 0.0
C1037 C 0.40804 0.83209 0.105 0.0
C1038 C 0.40222 0.82628 0.12654 0.0
C1039 C 0.41964 0.84451 0.10492 0.0
C1040 C 0.42564 0.85163 0.08263 0.0
C1041 C 0.41486 0.858 0.06602 0.0
C1042 C 0.42055 0.86452 0.04493 0.0
C1043 C 0.43702 0.86484 0.04031 0.0
C1044 C 0.44783 0.85867 0.0568 0.0
C1045 C 0.44219 0.85211 0.07791 0.0
H1046 H 0.4414 0.8699 0.02398 0.0
H1047 H 0.38449 0.8085 0.22896 0.0
H1048 H 0.92773 0.38008 0.7096 0.0
H1049 H 0.91614 0.37165 0.67183 0.0
H1050 H 0.95028 0.33284 0.66785 0.0
H1051 H 0.9618 0.34108 0.70552 0.0
H1052 H 0.94628 0.34896 0.6251 0.0
H1053 H 0.91367 0.32525 0.68653 0.0
H1054 H 0.89647 0.32603 0.72186 0.0
H1055 H 0.86276 0.35614 0.68554 0.0
H1056 H 0.8799 0.35572 0.65008 0.0
H1057 H 0.91474 0.29545 0.54278 0.0
H1058 H 0.92414 0.30735 0.5795 0.0
H1059 H 0.88377 0.33976 0.57945 0.0
H1060 H 0.87401 0.32755 0.54282 0.0
H1061 H 0.88989 0.32983 0.62314 0.0
H1062 H 0.92096 0.35226 0.56086 0.0
H1063 H 0.93796 0.35212 0.52532 0.0
H1064 H 0.97434 0.32587 0.56253 0.0
H1065 H 0.95746 0.32565 0.59822 0.0
C1066 C 0.93289 0.36989 0.70051 0.0
C1067 C 0.94564 0.36121 0.71058 0.0
C1068 C 0.9262 0.36504 0.67902 0.0
C1069 C 0.93226 0.35153 0.66716 0.0
C1070 C 0.9454 0.34328 0.67672 0.0
C1071 C 0.95196 0.34799 0.69828 0.0
C1072 C 0.92466 0.34555 0.64519 0.0
C1073 C 0.93399 0.34468 0.62468 0.0
C1074 C 0.90848 0.34041 0.64451 0.0
C1075 C 0.89815 0.34061 0.66577 0.0
C1076 C 0.90266 0.33215 0.68615 0.0
C1077 C 0.89291 0.33251 0.70618 0.0
C1078 C 0.87856 0.34117 0.70597 0.0
C1079 C 0.8739 0.34946 0.68569 0.0
C1080 C 0.88362 0.34916 0.66562 0.0
C1081 C 0.90775 0.305 0.55068 0.0
C1082 C 0.89369 0.31065 0.53977 0.0
C1083 C 0.9132 0.31187 0.57163 0.0
C1084 C 0.9049 0.32474 0.58195 0.0
C1085 C 0.89045 0.32993 0.57171 0.0
C1086 C 0.88488 0.32293 0.5508 0.0
C1087 C 0.91161 0.33295 0.60306 0.0
C1088 C 0.90213 0.33427 0.62341 0.0
C1089 C 0.92763 0.33865 0.60356 0.0
C1090 C 0.93788 0.33884 0.58217 0.0
C1091 C 0.93254 0.34636 0.56142 0.0
C1092 C 0.94216 0.34636 0.54125 0.0
C1093 C 0.9572 0.33896 0.54165 0.0
C1094 C 0.96268 0.33159 0.56224 0.0
C1095 C 0.95309 0.33154 0.58246 0.0
H1096 H 0.96463 0.33897 0.52602 0.0
H1097 H 0.87102 0.34143 0.72149 0.0
H1098 H 0.42287 0.12227 0.29277 0.0
H1099 H 0.41226 0.13097 0.33108 0.0
H1100 H 0.44375 0.17201 0.32988 0.0
H1101 H 0.45417 0.1636 0.29157 0.0
H1102 H 0.44258 0.15521 0.37409 0.0
H1103 H 0.40719 0.17788 0.31493 0.0
H1104 H 0.3888 0.1763 0.28099 0.0
H1105 H 0.3574 0.14543 0.32027 0.0
H1106 H 0.37574 0.14665 0.35434 0.0
H1107 H 0.41288 0.20685 0.46032 0.0
H1108 H 0.42141 0.19571 0.42261 0.0
H1109 H 0.38093 0.16341 0.42323 0.0
H1110 H 0.37197 0.17502 0.46068 0.0
H1111 H 0.38591 0.17307 0.38014 0.0
H1112 H 0.41942 0.15104 0.43987 0.0
H1113 H 0.43754 0.15124 0.4742 0.0
H1114 H 0.47218 0.17844 0.43496 0.0
H1115 H 0.45417 0.1786 0.40049 0.0
C1116 C 0.42765 0.13304 0.30082 0.0
C1117 C 0.43932 0.14228 0.28915 0.0
C1118 C 0.42153 0.13803 0.32262 0.0
C1119 C 0.42716 0.15219 0.3332 0.0
C1120 C 0.43924 0.16107 0.32199 0.0
C1121 C 0.44515 0.15625 0.30008 0.0
C1122 C 0.42023 0.15811 0.35564 0.0
C1123 C 0.43023 0.15923 0.37542 0.0
C1124 C 0.40399 0.16287 0.3575 0.0
C1125 C 0.39293 0.1622 0.33707 0.0
C1126 C 0.39644 0.17064 0.31625 0.0
C1127 C 0.38601 0.16983 0.297 0.0
C1128 C 0.37196 0.16073 0.29844 0.0
C1129 C 0.3683 0.15245 0.31916 0.0
C1130 C 0.3787 0.1532 0.33845 0.0
C1131 C 0.40568 0.19751 0.4523 0.0
C1132 C 0.39182 0.19173 0.46355 0.0
C1133 C 0.41063 0.19105 0.4308 0.0
C1134 C 0.40209 0.17838 0.42035 0.0
C1135 C 0.38781 0.17308 0.43101 0.0
C1136 C 0.38269 0.17974 0.4524 0.0
C1137 C 0.40834 0.17047 0.39867 0.0
C1138 C 0.39823 0.16894 0.379 0.0
C1139 C 0.42445 0.16508 0.397 0.0
C1140 C 0.43538 0.16495 0.41766 0.0
C1141 C 0.43085 0.15716 0.43861 0.0
C1142 C 0.44111 0.15719 0.45809 0.0
C1143 C 0.45599 0.16487 0.45678 0.0
C1144 C 0.46065 0.1725 0.43596 0.0
C1145 C 0.45043 0.17252 0.41644 0.0
H1146 H 0.46392 0.16489 0.47188 0.0
H1147 H 0.3639 0.16012 0.28352 0.0
H1148 H 0.57724 0.62449 0.21069 0.0
H1149 H 0.58811 0.6325 0.17226 0.0
H1150 H 0.55343 0.67081 0.16824 0.0
H1151 H 0.54267 0.66305 0.20665 0.0
H1152 H 0.55734 0.6533 0.12551 0.0
H1153 H 0.58935 0.67977 0.18536 0.0
H1154 H 0.6067 0.68036 0.22053 0.0
H1155 H 0.64121 0.65049 0.18538 0.0
H1156 H 0.62392 0.64954 0.15011 0.0
H1157 H 0.58645 0.70558 0.03971 0.0
H1158 H 0.57747 0.69418 0.07698 0.0
H1159 H 0.61965 0.66417 0.07935 0.0
H1160 H 0.62901 0.67601 0.04224 0.0
H1161 H 0.61294 0.67453 0.12201 0.0
H1162 H 0.58272 0.64926 0.06132 0.0
H1163 H 0.5657 0.64773 0.02586 0.0
H1164 H 0.52825 0.67335 0.0617 0.0
H1165 H 0.54514 0.67525 0.09728 0.0
C1166 C 0.5718 0.63448 0.20146 0.0
C1167 C 0.55913 0.64318 0.21172 0.0
C1168 C 0.57807 0.63908 0.17958 0.0
C1169 C 0.57164 0.65232 0.16752 0.0
C1170 C 0.55856 0.66057 0.17728 0.0
C1171 C 0.55245 0.65614 0.19925 0.0
C1172 C 0.57887 0.65807 0.14518 0.0
C1173 C 0.56945 0.65805 0.12473 0.0
C1174 C 0.59484 0.66379 0.14407 0.0
C1175 C 0.60526 0.66442 0.16521 0.0
C1176 C 0.60057 0.67321 0.18521 0.0
C1177 C 0.6104 0.67363 0.20515 0.0
C1178 C 0.62502 0.66542 0.20522 0.0
C1179 C 0.62986 0.65681 0.18532 0.0
C1180 C 0.62006 0.65633 0.16535 0.0
C1181 C 0.59391 0.69666 0.04825 0.0
C1182 C 0.60838 0.6916 0.03794 0.0
C1183 C 0.5887 0.69006 0.06951 0.0
C1184 C 0.59765 0.67798 0.08069 0.0
C1185 C 0.61246 0.67338 0.07096 0.0
C1186 C 0.61781 0.68016 0.04977 0.0
C1187 C 0.5913 0.67005 0.10228 0.0
C1188 C 0.60088 0.66963 0.12262 0.0
C1189 C 0.57552 0.66373 0.10322 0.0
C1190 C 0.56525 0.6625 0.08192 0.0
C1191 C 0.57089 0.65466 0.06159 0.0
C1192 C 0.56127 0.65371 0.04148 0.0
C1193 C 0.54592 0.66047 0.04151 0.0
C1194 C 0.54015 0.66814 0.06169 0.0
C1195 C 0.54974 0.66913 0.08185 0.0
H1196 H 0.53849 0.65973 0.02591 0.0
H1197 H 0.63262 0.66577 0.22067 0.0
H1198 H 0.0734 0.83301 0.77533 0.0
H1199 H 0.08258 0.82501 0.81433 0.0
H1200 H 0.07088 0.87205 0.8412 0.0
H1201 H 0.06241 0.88039 0.80165 0.0
H1202 H 0.09717 0.86285 0.86064 0.0
H1203 H 0.04605 0.83778 0.85003 0.0
H1204 H 0.02557 0.82141 0.82989 0.0
H1205 H 0.05631 0.78013 0.8339 0.0
H1206 H 0.07706 0.79631 0.85381 0.0
H1207 H 0.08129 0.81328 0.9752 0.0
H1208 H 0.07322 0.82314 0.9366 0.0
H1209 H 0.12295 0.8277 0.9165 0.0
H1210 H 0.13116 0.81816 0.95555 0.0
H1211 H 0.07667 0.81199 0.89468 0.0
H1212 H 0.12696 0.85869 0.87729 0.0
H1213 H 0.1446 0.87688 0.8998 0.0
H1214 H 0.11037 0.87805 0.9563 0.0
H1215 H 0.09244 0.86007 0.93401 0.0
C1216 C 0.07276 0.84167 0.78954 0.0
C1217 C 0.06702 0.85728 0.7855 0.0
C1218 C 0.07797 0.83705 0.8119 0.0
C1219 C 0.07709 0.84777 0.83094 0.0
C1220 C 0.07163 0.86351 0.82685 0.0
C1221 C 0.06673 0.86826 0.80428 0.0
C1222 C 0.08172 0.84245 0.85506 0.0
C1223 C 0.09267 0.85173 0.86806 0.0
C1224 C 0.07566 0.82809 0.86508 0.0
C1225 C 0.06316 0.8183 0.85324 0.0
C1226 C 0.04848 0.82524 0.84649 0.0
C1227 C 0.03682 0.81599 0.83513 0.0
C1228 C 0.03965 0.79975 0.83057 0.0
C1229 C 0.05414 0.79272 0.83743 0.0
C1230 C 0.06585 0.80192 0.84877 0.0
C1231 C 0.09055 0.81637 0.96261 0.0
C1232 C 0.10689 0.81495 0.96849 0.0
C1233 C 0.0859 0.82199 0.94048 0.0
C1234 C 0.09744 0.82631 0.92365 0.0
C1235 C 0.1138 0.8247 0.92931 0.0
C1236 C 0.11848 0.81915 0.95159 0.0
C1237 C 0.09222 0.83229 0.90016 0.0
C1238 C 0.08119 0.8231 0.88724 0.0
C1239 C 0.0978 0.84697 0.8906 0.0
C1240 C 0.10846 0.85788 0.90408 0.0
C1241 C 0.12318 0.86287 0.89449 0.0
C1242 C 0.13323 0.87314 0.90721 0.0
C1243 C 0.12863 0.87857 0.9295 0.0
C1244 C 0.11395 0.87379 0.93908 0.0
C1245 C 0.10385 0.86354 0.92642 0.0
H1246 H 0.13643 0.88651 0.93933 0.0
H1247 H 0.03061 0.79261 0.82177 0.0
H1248 H 0.07 0.33048 0.31137 0.0
H1249 H 0.08314 0.31144 0.33734 0.0
H1250 H 0.10299 0.35049 0.37789 0.0
H1251 H 0.08931 0.36981 0.35219 0.0
H1252 H 0.11217 0.30448 0.34743 0.0
H1253 H 0.10671 0.3383 0.43564 0.0
H1254 H 0.08968 0.3589 0.45443 0.0
H1255 H 0.05015 0.34531 0.41021 0.0
H1256 H 0.06688 0.32452 0.39138 0.0
H1257 H 0.14919 0.25309 0.42852 0.0
H1258 H 0.14272 0.27853 0.40926 0.0
H1259 H 0.09415 0.27532 0.43515 0.0
H1260 H 0.10073 0.25028 0.45527 0.0
H1261 H 0.10215 0.30535 0.43355 0.0
H1262 H 0.10554 0.26091 0.37942 0.0
H1263 H 0.11861 0.23801 0.35966 0.0
H1264 H 0.15561 0.26921 0.33371 0.0
H1265 H 0.14285 0.29227 0.35359 0.0
C1266 C 0.07722 0.33511 0.3257 0.0
C1267 C 0.07851 0.35172 0.32973 0.0
C1268 C 0.08479 0.32415 0.34055 0.0
C1269 C 0.09396 0.32947 0.35976 0.0
C1270 C 0.09577 0.34607 0.36342 0.0
C1271 C 0.08801 0.3571 0.34864 0.0
C1272 C 0.10115 0.31744 0.37602 0.0
C1273 C 0.1101 0.30479 0.36629 0.0
C1274 C 0.09831 0.31764 0.40062 0.0
C1275 C 0.08811 0.33002 0.41191 0.0
C1276 C 0.09437 0.33971 0.42997 0.0
C1277 C 0.08478 0.35141 0.44062 0.0
C1278 C 0.06887 0.35346 0.43345 0.0
C1279 C 0.0625 0.34376 0.41568 0.0
C1280 C 0.07203 0.33203 0.40499 0.0
C1281 C 0.13722 0.25799 0.43052 0.0
C1282 C 0.12542 0.24957 0.44318 0.0
C1283 C 0.13352 0.27251 0.41941 0.0
C1284 C 0.11783 0.27866 0.42021 0.0
C1285 C 0.10633 0.27082 0.43417 0.0
C1286 C 0.1101 0.25646 0.44565 0.0
C1287 C 0.11293 0.2923 0.40486 0.0
C1288 C 0.10448 0.30524 0.41475 0.0
C1289 C 0.11569 0.29208 0.38023 0.0
C1290 C 0.12335 0.27826 0.36821 0.0
C1291 C 0.11652 0.26286 0.36963 0.0
C1292 C 0.12386 0.24986 0.3584 0.0
C1293 C 0.13796 0.25214 0.3455 0.0
C1294 C 0.14471 0.26745 0.34375 0.0
C1295 C 0.13743 0.28049 0.35499 0.0
H1296 H 0.14363 0.24206 0.33681 0.0
H1297 H 0.06146 0.36253 0.44171 0.0
H1298 H 0.92354 0.82079 0.56021 0.0
H1299 H 0.94246 0.83382 0.58646 0.0
H1300 H 0.90382 0.84647 0.63353 0.0
H1301 H 0.88465 0.83291 0.60741 0.0
H1302 H 0.94704 0.86263 0.60105 0.0
H1303 H 0.91875 0.84635 0.69046 0.0
H1304 H 0.90083 0.82591 0.70776 0.0
H1305 H 0.91553 0.79195 0.65511 0.0
H1306 H 0.93367 0.81211 0.6377 0.0
H1307 H 0.99947 0.89696 0.68343 0.0
H1308 H 0.97375 0.88987 0.66551 0.0
H1309 H 0.98242 0.83994 0.68122 0.0
H1310 H 0.00776 0.84705 0.7001 0.0
H1311 H 0.95187 0.84515 0.68427 0.0
H1312 H 0.99264 0.85753 0.62678 0.0
H1313 H 0.0131 0.87439 0.60747 0.0
H1314 H 0.97744 0.9102 0.59258 0.0
H1315 H 0.9568 0.89361 0.61209 0.0
C1316 C 0.91896 0.82641 0.57605 0.0
C1317 C 0.90254 0.82569 0.58175 0.0
C1318 C 0.92984 0.83394 0.59105 0.0
C1319 C 0.92464 0.84102 0.61212 0.0
C1320 C 0.90817 0.84088 0.61753 0.0
C1321 C 0.89721 0.83321 0.60252 0.0
C1322 C 0.93674 0.84801 0.62845 0.0
C1323 C 0.94796 0.85893 0.61932 0.0
C1324 C 0.93815 0.84305 0.65223 0.0
C1325 C 0.92738 0.83081 0.66262 0.0
C1326 C 0.91816 0.83451 0.68261 0.0
C1327 C 0.90797 0.82297 0.69243 0.0
C1328 C 0.90699 0.80766 0.68248 0.0
C1329 C 0.91625 0.80383 0.66274 0.0
C1330 C 0.92646 0.81531 0.65288 0.0
C1331 C 0.99574 0.88451 0.68348 0.0
C1332 C 0.00574 0.87254 0.69293 0.0
C1333 C 0.98106 0.88046 0.67314 0.0
C1334 C 0.9763 0.86431 0.67144 0.0
C1335 C 0.98581 0.85247 0.68221 0.0
C1336 C 1.00034 0.85655 0.69297 0.0
C1337 C 0.9623 0.85955 0.65671 0.0
C1338 C 0.95073 0.8491 0.66614 0.0
C1339 C 0.96087 0.86447 0.6329 0.0
C1340 C 0.97324 0.87443 0.62113 0.0
C1341 C 0.98919 0.86905 0.61952 0.0
C1342 C 1.00081 0.87855 0.60853 0.0
C1343 C 0.99658 0.89338 0.59887 0.0
C1344 C 0.9807 0.89872 0.60012 0.0
C1345 C 0.96904 0.88928 0.61114 0.0
H1346 H 0.00559 0.90072 0.59036 0.0
H1347 H 0.8991 0.79875 0.6901 0.0
H1348 H 0.35904 0.75345 0.91183 0.0
H1349 H 0.36624 0.72784 0.89389 0.0
H1350 H 0.39892 0.71827 0.95111 0.0
H1351 H 0.39197 0.74401 0.96903 0.0
H1352 H 0.41367 0.71499 0.91074 0.0
H1353 H 0.36492 0.69533 0.94287 0.0
H1354 H 0.336 0.69509 0.952 0.0
H1355 H 0.32492 0.69268 0.87823 0.0
H1356 H 0.35378 0.69314 0.86862 0.0
H1357 H 0.41464 0.63083 0.85369 0.0
H1358 H 0.40173 0.64951 0.88128 0.0
H1359 H 0.41498 0.68927 0.83676 0.0
H1360 H 0.4278 0.67089 0.80925 0.0
H1361 H 0.37741 0.67365 0.87718 0.0
H1362 H 0.43082 0.71795 0.87194 0.0
H1363 H 0.45998 0.71725 0.86448 0.0
H1364 H 0.46202 0.66857 0.88912 0.0
H1365 H 0.43293 0.66906 0.89707 0.0
C1366 C 0.36752 0.74578 0.92089 0.0
C1367 C 0.37503 0.75089 0.94179 0.0
C1368 C 0.37157 0.73106 0.91064 0.0
C1369 C 0.38311 0.72108 0.92116 0.0
C1370 C 0.39001 0.72578 0.94264 0.0
C1371 C 0.38599 0.7405 0.9529 0.0
C1372 C 0.38922 0.70672 0.90843 0.0
C1373 C 0.40572 0.7059 0.90363 0.0
C1374 C 0.37891 0.69469 0.89935 0.0
C1375 C 0.36153 0.69437 0.90502 0.0
C1376 C 0.35632 0.69487 0.92858 0.0
C1377 C 0.33993 0.69468 0.93384 0.0
C1378 C 0.32863 0.6939 0.91571 0.0
C1379 C 0.33369 0.69329 0.89227 0.0
C1380 C 0.35007 0.69349 0.8869 0.0
C1381 C 0.41458 0.64353 0.8496 0.0
C1382 C 0.42242 0.64936 0.82936 0.0
C1383 C 0.40718 0.65417 0.86537 0.0
C1384 C 0.40762 0.67077 0.8612 0.0
C1385 C 0.41469 0.67651 0.84045 0.0
C1386 C 0.42202 0.66595 0.82471 0.0
C1387 C 0.40168 0.68234 0.87904 0.0
C1388 C 0.3853 0.68266 0.88466 0.0
C1389 C 0.4121 0.69382 0.88922 0.0
C1390 C 0.42967 0.69351 0.88492 0.0
C1391 C 0.43751 0.70713 0.87589 0.0
C1392 C 0.45402 0.70676 0.87155 0.0
C1393 C 0.46284 0.69286 0.87626 0.0
C1394 C 0.45517 0.67931 0.8854 0.0
C1395 C 0.43867 0.67962 0.8898 0.0
H1396 H 0.47561 0.69259 0.87287 0.0
H1397 H 0.31595 0.69376 0.91982 0.0
H1398 H 0.61706 0.17196 0.10828 0.0
H1399 H 0.59733 0.1591 0.13419 0.0
H1400 H 0.56081 0.16553 0.08118 0.0
H1401 H 0.58025 0.17852 0.05549 0.0
H1402 H 0.55042 0.17595 0.12215 0.0
H1403 H 0.57697 0.12845 0.09358 0.0
H1404 H 0.60012 0.11073 0.08608 0.0
H1405 H 0.60955 0.10804 0.16033 0.0
H1406 H 0.58656 0.12592 0.16824 0.0
H1407 H 0.49858 0.10716 0.16612 0.0
H1408 H 0.52341 0.11571 0.14706 0.0
H1409 H 0.52683 0.15575 0.19492 0.0
H1410 H 0.50187 0.14742 0.21396 0.0
H1411 H 0.55474 0.122 0.15863 0.0
H1412 H 0.53688 0.1887 0.16245 0.0
H1413 H 0.51257 0.20539 0.16669 0.0
H1414 H 0.48406 0.16792 0.13594 0.0
H1415 H 0.50822 0.15111 0.13124 0.0
C1416 C 0.60487 0.17043 0.10204 0.0
C1417 C 0.60022 0.17637 0.07986 0.0
C1418 C 0.59361 0.16306 0.11687 0.0
C1419 C 0.57756 0.16139 0.10967 0.0
C1420 C 0.57308 0.16681 0.08721 0.0
C1421 C 0.58425 0.1742 0.0725 0.0
C1422 C 0.56511 0.15479 0.12574 0.0
C1423 C 0.55146 0.16418 0.13021 0.0
C1424 C 0.56636 0.13941 0.1362 0.0
C1425 C 0.58016 0.12866 0.13148 0.0
C1426 C 0.58406 0.12419 0.10829 0.0
C1427 C 0.59714 0.11409 0.10397 0.0
C1428 C 0.60633 0.1083 0.12271 0.0
C1429 C 0.60244 0.11256 0.14582 0.0
C1430 C 0.58938 0.12266 0.15024 0.0
C1431 C 0.50474 0.11762 0.17292 0.0
C1432 C 0.49807 0.12674 0.19136 0.0
C1433 C 0.519 0.12244 0.16205 0.0
C1434 C 0.52684 0.1365 0.16932 0.0
C1435 C 0.52086 0.14497 0.18883 0.0
C1436 C 0.50659 0.14017 0.19972 0.0
C1437 C 0.54013 0.14318 0.15491 0.0
C1438 C 0.55389 0.13385 0.1508 0.0
C1439 C 0.53889 0.15851 0.14433 0.0
C1440 C 0.52432 0.1686 0.14678 0.0
C1441 C 0.52542 0.18405 0.15655 0.0
C1442 C 0.51167 0.19353 0.15903 0.0
C1443 C 0.49677 0.18769 0.15167 0.0
C1444 C 0.4956 0.1724 0.14172 0.0
C1445 C 0.50931 0.16289 0.13917 0.0
H1446 H 0.48614 0.19504 0.15363 0.0
H1447 H 0.61645 0.10049 0.11933 0.0
H1448 H 0.05671 0.67021 0.1763 0.0
H1449 H 0.06974 0.68863 0.14894 0.0
H1450 H 0.10477 0.65242 0.13178 0.0
H1451 H 0.09147 0.63355 0.15887 0.0
H1452 H 0.11413 0.68941 0.14678 0.0
H1453 H 0.08548 0.6551 0.09148 0.0
H1454 H 0.06127 0.64062 0.07833 0.0
H1455 H 0.03503 0.68495 0.076 0.0
H1456 H 0.05904 0.69967 0.08947 0.0
H1457 H 0.14536 0.74496 0.06501 0.0
H1458 H 0.13759 0.71909 0.08199 0.0
H1459 H 0.08769 0.73267 0.07704 0.0
H1460 H 0.09539 0.75795 0.05863 0.0
H1461 H 0.0887 0.70311 0.07035 0.0
H1462 H 0.11242 0.73707 0.12946 0.0
H1463 H 0.13351 0.75376 0.14762 0.0
H1464 H 0.16555 0.71339 0.14829 0.0
H1465 H 0.14469 0.6965 0.12987 0.0
C1466 C 0.06723 0.66612 0.16683 0.0
C1467 C 0.0731 0.65042 0.16981 0.0
C1468 C 0.07461 0.67666 0.15114 0.0
C1469 C 0.08814 0.67183 0.13837 0.0
C1470 C 0.09429 0.65629 0.14151 0.0
C1471 C 0.08669 0.64556 0.15693 0.0
C1472 C 0.09569 0.68329 0.1219 0.0
C1473 C 0.10891 0.69217 0.12974 0.0
C1474 C 0.08837 0.68723 0.10023 0.0
C1475 C 0.07403 0.67846 0.09163 0.0
C1476 C 0.07452 0.66174 0.08832 0.0
C1477 C 0.06084 0.6535 0.08078 0.0
C1478 C 0.04662 0.66186 0.07636 0.0
C1479 C 0.04606 0.67849 0.07941 0.0
C1480 C 0.05971 0.68679 0.08696 0.0
C1481 C 0.13273 0.74224 0.06715 0.0
C1482 C 0.12098 0.7535 0.06063 0.0
C1483 C 0.12829 0.72751 0.07705 0.0
C1484 C 0.11205 0.72403 0.08149 0.0
C1485 C 0.10031 0.73499 0.07391 0.0
C1486 C 0.10472 0.74949 0.06339 0.0
C1487 C 0.10721 0.70955 0.09521 0.0
C1488 C 0.09434 0.70016 0.08702 0.0
C1489 C 0.11454 0.70547 0.11699 0.0
C1490 C 0.12709 0.71559 0.12802 0.0
C1491 C 0.12401 0.73179 0.13333 0.0
C1492 C 0.13591 0.74128 0.14369 0.0
C1493 C 0.15088 0.73466 0.14902 0.0
C1494 C 0.15396 0.71852 0.14408 0.0
C1495 C 0.14211 0.70898 0.13369 0.0
H1496 H 0.16007 0.74202 0.15705 0.0
H1497 H 0.03604 0.65545 0.07056 0.0
H1498 H 0.50757 0.85488 0.29228 0.0
H1499 H 0.53264 0.84944 0.31291 0.0
H1500 H 0.52863 0.89469 0.34944 0.0
H1501 H 0.50311 0.89988 0.32957 0.0
H1502 H 0.56127 0.86068 0.31925 0.0
H1503 H 0.54051 0.89041 0.40573 0.0
H1504 H 0.51542 0.89818 0.42586 0.0
H1505 H 0.48994 0.86108 0.38901 0.0
H1506 H 0.5149 0.85299 0.36891 0.0
H1507 H 0.62328 0.8443 0.40383 0.0
H1508 H 0.604 0.85889 0.37911 0.0
H1509 H 0.5652 0.83193 0.41027 0.0
H1510 H 0.58412 0.81795 0.43542 0.0
H1511 H 0.556 0.86073 0.40627 0.0
H1512 H 0.5825 0.82319 0.35415 0.0
H1513 H 0.60573 0.81109 0.3339 0.0
H1514 H 0.61675 0.85647 0.30192 0.0
H1515 H 0.59367 0.86889 0.32222 0.0
C1516 C 0.51215 0.86383 0.30438 0.0
C1517 C 0.5032 0.87769 0.30959 0.0
C1518 C 0.52655 0.86071 0.31614 0.0
C1519 C 0.53238 0.87147 0.33316 0.0
C1520 C 0.52418 0.88601 0.33683 0.0
C1521 C 0.50962 0.88899 0.32539 0.0
C1522 C 0.54599 0.86664 0.3486 0.0
C1523 C 0.56018 0.86084 0.33829 0.0
C1524 C 0.54456 0.86659 0.37347 0.0
C1525 C 0.52951 0.87126 0.38561 0.0
C1526 C 0.52955 0.88391 0.40197 0.0
C1527 C 0.51536 0.88836 0.41338 0.0
C1528 C 0.50108 0.88017 0.40865 0.0
C1529 C 0.50098 0.86746 0.39259 0.0
C1530 C 0.51515 0.86294 0.38118 0.0
C1531 C 0.61062 0.84161 0.40549 0.0
C1532 C 0.60526 0.82996 0.42162 0.0
C1533 C 0.59961 0.84989 0.39127 0.0
C1534 C 0.58311 0.84643 0.39261 0.0
C1535 C 0.57782 0.83494 0.40894 0.0
C1536 C 0.58871 0.82689 0.42331 0.0
C1537 C 0.57116 0.85436 0.37696 0.0
C1538 C 0.55727 0.86085 0.38725 0.0
C1539 C 0.57265 0.85444 0.3521 0.0
C1540 C 0.5865 0.847 0.33991 0.0
C1541 C 0.58995 0.83061 0.34293 0.0
C1542 C 0.60307 0.82369 0.33143 0.0
C1543 C 0.61274 0.83302 0.3167 0.0
C1544 C 0.60927 0.84927 0.31338 0.0
C1545 C 0.59617 0.85626 0.32487 0.0
H1546 H 0.62289 0.82764 0.3078 0.0
H1547 H 0.49011 0.88365 0.41747 0.0
H1548 H 0.35308 0.25038 0.5827 0.0
H1549 H 0.35905 0.27593 0.60197 0.0
H1550 H 0.40566 0.27659 0.56885 0.0
H1551 H 0.3995 0.25144 0.54885 0.0
H1552 H 0.37956 0.28158 0.63349 0.0
H1553 H 0.42115 0.3133 0.56487 0.0
H1554 H 0.42275 0.31692 0.52183 0.0
H1555 H 0.37215 0.3082 0.51577 0.0
H1556 H 0.37018 0.30474 0.55879 0.0
H1557 H 0.43626 0.32949 0.68904 0.0
H1558 H 0.42158 0.31072 0.66439 0.0
H1559 H 0.39795 0.35016 0.62943 0.0
H1560 H 0.41308 0.36923 0.65379 0.0
H1561 H 0.40677 0.32871 0.59809 0.0
H1562 H 0.37758 0.3265 0.66941 0.0
H1563 H 0.3735 0.32455 0.71232 0.0
H1564 H 0.3939 0.27723 0.71229 0.0
H1565 H 0.39834 0.27897 0.66942 0.0
C1566 C 0.36447 0.25615 0.57913 0.0
C1567 C 0.37582 0.24885 0.56425 0.0
C1568 C 0.36789 0.27075 0.59023 0.0
C1569 C 0.38279 0.27831 0.58686 0.0
C1570 C 0.39394 0.27126 0.57141 0.0
C1571 C 0.39043 0.25679 0.56003 0.0
C1572 C 0.38728 0.29266 0.60109 0.0
C1573 C 0.38537 0.29194 0.62566 0.0
C1574 C 0.3945 0.30644 0.59098 0.0
C1575 C 0.39555 0.30865 0.56508 0.0
C1576 C 0.41034 0.31224 0.55438 0.0
C1577 C 0.41132 0.31424 0.52998 0.0
C1578 C 0.39757 0.31275 0.51607 0.0
C1579 C 0.3828 0.3093 0.52655 0.0
C1580 C 0.38175 0.30729 0.55095 0.0
C1581 C 0.42787 0.33425 0.67625 0.0
C1582 C 0.4258 0.35091 0.67351 0.0
C1583 C 0.41941 0.32346 0.66219 0.0
C1584 C 0.40842 0.32898 0.6453 0.0
C1585 C 0.40631 0.34561 0.64242 0.0
C1586 C 0.41492 0.35648 0.65641 0.0
C1587 C 0.39958 0.31725 0.6304 0.0
C1588 C 0.40071 0.31846 0.60579 0.0
C1589 C 0.3912 0.30413 0.6404 0.0
C1590 C 0.38837 0.30291 0.66618 0.0
C1591 C 0.38128 0.3157 0.67856 0.0
C1592 C 0.37889 0.31464 0.70288 0.0
C1593 C 0.38345 0.30079 0.71503 0.0
C1594 C 0.39037 0.28795 0.70286 0.0
C1595 C 0.3928 0.28896 0.67854 0.0
H1596 H 0.38162 0.3 0.73387 0.0
H1597 H 0.39835 0.3143 0.49718 0.0
H1598 H 0.98852 0.13223 0.77856 0.0
H1599 H 0.96186 0.13734 0.79501 0.0
H1600 H 0.97713 0.11755 0.86158 0.0
H1601 H 0.00349 0.11185 0.84503 0.0
H1602 H 0.94732 0.10995 0.85495 0.0
H1603 H 0.9779 0.15904 0.84886 0.0
H1604 H 0.99332 0.18007 0.8283 0.0
H1605 H 0.9527 0.19017 0.78417 0.0
H1606 H 0.93711 0.16904 0.80431 0.0
H1607 H 0.90778 0.15706 0.94126 0.0
H1608 H 0.92559 0.14292 0.91412 0.0
H1609 H 0.89678 0.15867 0.85541 0.0
H1610 H 0.87869 0.17271 0.88261 0.0
H1611 H 0.92959 0.16676 0.85219 0.0
H1612 H 0.89773 0.12021 0.86607 0.0
H1613 H 0.88328 0.1002 0.89001 0.0
H1614 H 0.92742 0.08638 0.9233 0.0
H1615 H 0.94212 0.10646 0.89981 0.0
C1616 C 0.9861 0.12872 0.79658 0.0
C1617 C 0.9982 0.12179 0.81055 0.0
C1618 C 0.97087 0.13172 0.80601 0.0
C1619 C 0.96756 0.12817 0.82972 0.0
C1620 C 0.97936 0.12045 0.84326 0.0
C1621 C 0.99448 0.11723 0.83377 0.0
C1622 C 0.95235 0.13349 0.84108 0.0
C1623 C 0.94346 0.12238 0.85437 0.0
C1624 C 0.94707 0.14965 0.84 0.0
C1625 C 0.95643 0.16233 0.82786 0.0
C1626 C 0.97231 0.16566 0.83465 0.0
C1627 C 0.98107 0.17761 0.82309 0.0
C1628 C 0.97401 0.18641 0.80488 0.0
C1629 C 0.95816 0.18331 0.79824 0.0
C1630 C 0.94936 0.17136 0.80971 0.0
C1631 C 0.90501 0.15721 0.92262 0.0
C1632 C 0.89187 0.16603 0.91406 0.0
C1633 C 0.91517 0.14907 0.90713 0.0
C1634 C 0.91249 0.14972 0.88276 0.0
C1635 C 0.89901 0.15797 0.87418 0.0
C1636 C 0.88865 0.16592 0.88974 0.0
C1637 C 0.92481 0.1433 0.86642 0.0
C1638 C 0.93321 0.15425 0.85229 0.0
C1639 C 0.9298 0.12709 0.86714 0.0
C1640 C 0.92102 0.11492 0.88125 0.0
C1641 C 0.90435 0.11299 0.87862 0.0
C1642 C 0.89611 0.10162 0.89209 0.0
C1643 C 0.90442 0.09204 0.90819 0.0
C1644 C 0.921 0.0938 0.91082 0.0
C1645 C 0.92929 0.10516 0.8974 0.0
H1646 H 0.89803 0.08325 0.91861 0.0
H1647 H 0.98081 0.19566 0.79596 0.0
H1648 H 0.93372 0.67034 0.68766 0.0
H1649 H 0.91867 0.68823 0.66219 0.0
H1650 H 0.89651 0.64755 0.62823 0.0
H1651 H 0.9121 0.62934 0.65339 0.0
H1652 H 0.90475 0.66852 0.59633 0.0
H1653 H 0.87497 0.67175 0.66678 0.0
H1654 H 0.87032 0.67436 0.70949 0.0
H1655 H 0.89013 0.72192 0.70833 0.0
H1656 H 0.89515 0.71952 0.66567 0.0
H1657 H 0.85307 0.74819 0.5779 0.0
H1658 H 0.85769 0.72242 0.59735 0.0
H1659 H 0.9046 0.71969 0.56535 0.0
H1660 H 0.89972 0.74497 0.54507 0.0
H1661 H 0.87722 0.71627 0.62938 0.0
H1662 H 0.91941 0.68292 0.5629 0.0
H1663 H 0.92143 0.67858 0.52005 0.0
H1664 H 0.87107 0.68814 0.51242 0.0
H1665 H 0.86868 0.69231 0.55527 0.0
C1666 C 0.92556 0.66511 0.67495 0.0
C1667 C 0.92406 0.64836 0.6727 0.0
C1668 C 0.91688 0.67541 0.66042 0.0
C1669 C 0.90619 0.66929 0.64356 0.0
C1670 C 0.90461 0.65256 0.6412 0.0
C1671 C 0.91349 0.64218 0.65564 0.0
C1672 C 0.89722 0.68054 0.62804 0.0
C1673 C 0.89858 0.67889 0.60351 0.0
C1674 C 0.88867 0.69379 0.63735 0.0
C1675 C 0.88549 0.69542 0.663 0.0
C1676 C 0.87841 0.68274 0.67564 0.0
C1677 C 0.87571 0.68418 0.69985 0.0
C1678 C 0.87994 0.69829 0.71162 0.0
C1679 C 0.88685 0.711 0.69919 0.0
C1680 C 0.8896 0.70962 0.67498 0.0
C1681 C 0.8642 0.74188 0.57457 0.0
C1682 C 0.87603 0.74864 0.55997 0.0
C1683 C 0.86686 0.72716 0.58577 0.0
C1684 C 0.88148 0.71898 0.58283 0.0
C1685 C 0.89306 0.72547 0.56755 0.0
C1686 C 0.89029 0.74003 0.55602 0.0
C1687 C 0.88535 0.70468 0.59757 0.0
C1688 C 0.88306 0.70576 0.62204 0.0
C1689 C 0.89257 0.69068 0.58812 0.0
C1690 C 0.89389 0.68803 0.56232 0.0
C1691 C 0.90874 0.684 0.55212 0.0
C1692 C 0.90996 0.6816 0.52781 0.0
C1693 C 0.89639 0.68312 0.51352 0.0
C1694 C 0.88158 0.68702 0.52351 0.0
C1695 C 0.88029 0.68943 0.5478 0.0
H1696 H 0.89737 0.68126 0.49471 0.0
H1697 H 0.87786 0.69937 0.73037 0.0
H1698 H 0.00508 0.14329 0.28735 0.0
H1699 H 0.03085 0.14992 0.30593 0.0
H1700 H 0.01986 0.11807 0.36351 0.0
H1701 H 0.99436 0.11115 0.34505 0.0
H1702 H 0.02693 0.15149 0.37543 0.0
H1703 H 0.04763 0.10681 0.33014 0.0
H1704 H 0.05298 0.0919 0.29346 0.0
H1705 H 0.0801 0.13172 0.26665 0.0
H1706 H 0.07471 0.14697 0.30305 0.0
H1707 H 0.09332 0.15889 0.44728 0.0
H1708 H 0.07326 0.14609 0.42219 0.0
H1709 H 0.09443 0.16839 0.36102 0.0
H1710 H 0.11513 0.18052 0.38608 0.0
H1711 H 0.08254 0.14049 0.34866 0.0
H1712 H 0.06224 0.1857 0.39055 0.0
H1713 H 0.05665 0.20269 0.42516 0.0
H1714 H 0.02803 0.16511 0.4554 0.0
H1715 H 0.03366 0.1478 0.42111 0.0
C1716 C 0.00829 0.13747 0.30375 0.0
C1717 C 0.99759 0.12676 0.31477 0.0
C1718 C 0.02302 0.14125 0.31429 0.0
C1719 C 0.02719 0.13449 0.33608 0.0
C1720 C 0.01683 0.12339 0.34667 0.0
C1721 C 0.00226 0.11944 0.33604 0.0
C1722 C 0.04155 0.14009 0.34908 0.0
C1723 C 0.0391 0.14891 0.36977 0.0
C1724 C 0.05737 0.13727 0.34107 0.0
C1725 C 0.06061 0.1281 0.31921 0.0
C1726 C 0.0546 0.11246 0.31633 0.0
C1727 C 0.05767 0.10392 0.29561 0.0
C1728 C 0.06683 0.11087 0.2777 0.0
C1729 C 0.07298 0.12636 0.28051 0.0
C1730 C 0.06993 0.13495 0.30119 0.0
C1731 C 0.09392 0.16073 0.42841 0.0
C1732 C 0.10566 0.17079 0.41861 0.0
C1733 C 0.08239 0.15351 0.41408 0.0
C1734 C 0.08199 0.1567 0.38979 0.0
C1735 C 0.09439 0.16585 0.37973 0.0
C1736 C 0.10622 0.17277 0.39404 0.0
C1737 C 0.06793 0.1516 0.37544 0.0
C1738 C 0.07039 0.14304 0.3544 0.0
C1739 C 0.05202 0.15498 0.38278 0.0
C1740 C 0.04849 0.1654 0.40336 0.0
C1741 C 0.05484 0.18102 0.40465 0.0
C1742 C 0.05166 0.19071 0.4242 0.0
C1743 C 0.04202 0.18497 0.44249 0.0
C1744 C 0.03551 0.16953 0.44123 0.0
C1745 C 0.03868 0.15978 0.42173 0.0
H1746 H 0.03957 0.19249 0.45762 0.0
H1747 H 0.0692 0.10424 0.26168 0.0
H1748 H 0.64441 0.24936 0.09013 0.0
H1749 H 0.63859 0.27499 0.10905 0.0
H1750 H 0.60635 0.28732 0.05252 0.0
H1751 H 0.61201 0.26156 0.03338 0.0
H1752 H 0.62578 0.3142 0.07172 0.0
H1753 H 0.58973 0.27176 0.09605 0.0
H1754 H 0.58343 0.24464 0.11078 0.0
H1755 H 0.61007 0.25412 0.17401 0.0
H1756 H 0.61674 0.28123 0.15946 0.0
H1757 H 0.57518 0.36936 0.1348 0.0
H1758 H 0.58839 0.34963 0.10938 0.0
H1759 H 0.61061 0.32808 0.17036 0.0
H1760 H 0.59678 0.34722 0.19578 0.0
H1761 H 0.59682 0.3062 0.14716 0.0
H1762 H 0.632 0.34908 0.12475 0.0
H1763 H 0.63918 0.37604 0.11027 0.0
H1764 H 0.61553 0.36627 0.04463 0.0
H1765 H 0.60802 0.33931 0.05884 0.0
C1766 C 0.63632 0.25761 0.0814 0.0
C1767 C 0.62851 0.25328 0.06037 0.0
C1768 C 0.63304 0.27228 0.09225 0.0
C1769 C 0.62194 0.28295 0.08228 0.0
C1770 C 0.61498 0.27924 0.06046 0.0
C1771 C 0.61818 0.26447 0.04962 0.0
C1772 C 0.61619 0.29691 0.0961 0.0
C1773 C 0.61932 0.31254 0.08813 0.0
C1774 C 0.60803 0.29467 0.11766 0.0
C1775 C 0.60387 0.27845 0.12656 0.0
C1776 C 0.59435 0.26801 0.113 0.0
C1777 C 0.5907 0.25265 0.12133 0.0
C1778 C 0.59638 0.24764 0.14329 0.0
C1779 C 0.60569 0.25801 0.15699 0.0
C1780 C 0.60941 0.27337 0.14872 0.0
C1781 C 0.58322 0.36066 0.14266 0.0
C1782 C 0.58491 0.35975 0.16725 0.0
C1783 C 0.59081 0.34939 0.12811 0.0
C1784 C 0.60055 0.3373 0.13788 0.0
C1785 C 0.60307 0.33716 0.16235 0.0
C1786 C 0.59522 0.34815 0.17689 0.0
C1787 C 0.60664 0.32376 0.12322 0.0
C1788 C 0.60342 0.30806 0.13091 0.0
C1789 C 0.6148 0.32603 0.10155 0.0
C1790 C 0.61932 0.34222 0.09295 0.0
C1791 C 0.62822 0.35272 0.1073 0.0
C1792 C 0.63237 0.36799 0.09913 0.0
C1793 C 0.62778 0.37288 0.07657 0.0
C1794 C 0.61907 0.36247 0.06211 0.0
C1795 C 0.61488 0.34719 0.07021 0.0
H1796 H 0.631 0.38471 0.07028 0.0
H1797 H 0.59354 0.23575 0.14971 0.0
H1798 H 0.38169 0.84049 0.90066 0.0
H1799 H 0.40053 0.85491 0.87503 0.0
H1800 H 0.44025 0.83196 0.91034 0.0
H1801 H 0.42174 0.81818 0.93632 0.0
H1802 H 0.44797 0.86081 0.90338 0.0
H1803 H 0.42469 0.81941 0.85488 0.0
H1804 H 0.40271 0.80474 0.83533 0.0
H1805 H 0.38932 0.84747 0.79787 0.0
H1806 H 0.41113 0.86244 0.81743 0.0
H1807 H 0.49833 0.85404 0.79108 0.0
H1808 H 0.47347 0.8474 0.81156 0.0
H1809 H 0.47341 0.89413 0.84434 0.0
H1810 H 0.4987 0.90059 0.82465 0.0
H1811 H 0.44391 0.85657 0.81645 0.0
H1812 H 0.4618 0.89113 0.90065 0.0
H1813 H 0.48619 0.90111 0.9205 0.0
H1814 H 0.51417 0.86423 0.88721 0.0
H1815 H 0.48992 0.85394 0.86739 0.0
C1816 C 0.39445 0.83866 0.90304 0.0
C1817 C 0.40018 0.82817 0.92056 0.0
C1818 C 0.40521 0.84684 0.8883 0.0
C1819 C 0.42186 0.84443 0.89054 0.0
C1820 C 0.42751 0.83414 0.90826 0.0
C1821 C 0.41685 0.8262 0.92313 0.0
C1822 C 0.43361 0.85224 0.87441 0.0
C1823 C 0.44695 0.86 0.88437 0.0
C1824 C 0.43251 0.85105 0.84956 0.0
C1825 C 0.4194 0.84209 0.83783 0.0
C1826 C 0.41698 0.8257 0.84261 0.0
C1827 C 0.40457 0.81733 0.8315 0.0
C1828 C 0.39459 0.82518 0.81543 0.0
C1829 C 0.39703 0.84141 0.81037 0.0
C1830 C 0.40942 0.84985 0.82145 0.0
C1831 C 0.49288 0.86304 0.80229 0.0
C1832 C 0.50064 0.87775 0.80653 0.0
C1833 C 0.47861 0.85923 0.81397 0.0
C1834 C 0.47172 0.87012 0.82994 0.0
C1835 C 0.4787 0.88537 0.83257 0.0
C1836 C 0.49312 0.88908 0.82122 0.0
C1837 C 0.45834 0.86484 0.8455 0.0
C1838 C 0.44472 0.85763 0.83545 0.0
C1839 C 0.45947 0.8659 0.87035 0.0
C1840 C 0.47409 0.87192 0.88233 0.0
C1841 C 0.47316 0.88515 0.89762 0.0
C1842 C 0.48695 0.89086 0.90885 0.0
C1843 C 0.50173 0.88335 0.90504 0.0
C1844 C 0.50273 0.87008 0.89007 0.0
C1845 C 0.48897 0.86431 0.87882 0.0
H1846 H 0.5124 0.8878 0.91374 0.0
H1847 H 0.38499 0.81868 0.80684 0.0
H1848 H 0.85811 0.2479 0.91425 0.0
H1849 H 0.86683 0.27277 0.89547 0.0
H1850 H 0.90835 0.27423 0.94076 0.0
H1851 H 0.89986 0.2492 0.95946 0.0
H1852 H 0.87396 0.30349 0.90777 0.0
H1853 H 0.94052 0.2848 0.90719 0.0
H1854 H 0.95699 0.26021 0.90927 0.0
H1855 H 0.91838 0.23285 0.87931 0.0
H1856 H 0.90178 0.25731 0.87677 0.0
H1857 H 0.92326 0.36663 0.85892 0.0
H1858 H 0.9107 0.34625 0.88405 0.0
H1859 H 0.91625 0.31115 0.82877 0.0
H1860 H 0.92899 0.33124 0.80386 0.0
H1861 H 0.927 0.29948 0.86852 0.0
H1862 H 0.87932 0.32718 0.84354 0.0
H1863 H 0.86167 0.35064 0.83799 0.0
H1864 H 0.86043 0.35826 0.91277 0.0
H1865 H 0.87826 0.33496 0.91873 0.0
C1866 C 0.86897 0.25362 0.92053 0.0
C1867 C 0.87841 0.24639 0.93815 0.0
C1868 C 0.8739 0.2679 0.90982 0.0
C1869 C 0.88836 0.27523 0.91645 0.0
C1870 C 0.89725 0.26865 0.93513 0.0
C1871 C 0.89235 0.25435 0.94584 0.0
C1872 C 0.89486 0.28875 0.9023 0.0
C1873 C 0.88561 0.3027 0.89932 0.0
C1874 C 0.90993 0.28759 0.8909 0.0
C1875 C 0.91987 0.27284 0.89207 0.0
C1876 C 0.93558 0.27354 0.90099 0.0
C1877 C 0.94493 0.25963 0.90225 0.0
C1878 C 0.93871 0.24497 0.89451 0.0
C1879 C 0.92316 0.2442 0.88539 0.0
C1880 C 0.91377 0.25808 0.88406 0.0
C1881 C 0.92159 0.35462 0.85202 0.0
C1882 C 0.92722 0.35055 0.82942 0.0
C1883 C 0.9144 0.34299 0.8664 0.0
C1884 C 0.91255 0.32714 0.85833 0.0
C1885 C 0.91766 0.32325 0.83548 0.0
C1886 C 0.9249 0.33479 0.82121 0.0
C1887 C 0.90612 0.31431 0.87389 0.0
C1888 C 0.91543 0.30044 0.87717 0.0
C1889 C 0.89098 0.31544 0.88511 0.0
C1890 C 0.88026 0.32944 0.88156 0.0
C1891 C 0.8754 0.33394 0.85878 0.0
C1892 C 0.86534 0.3472 0.85557 0.0
C1893 C 0.85997 0.35597 0.87501 0.0
C1894 C 0.86462 0.35147 0.89772 0.0
C1895 C 0.87469 0.33824 0.90103 0.0
H1896 H 0.85219 0.36622 0.87249 0.0
H1897 H 0.94596 0.23421 0.89553 0.0
H1898 H 0.50743 0.10874 0.65732 0.0
H1899 H 0.48221 0.11494 0.63752 0.0
H1900 H 0.46579 0.14048 0.69898 0.0
H1901 H 0.49117 0.13451 0.71899 0.0
H1902 H 0.441 0.12087 0.67179 0.0
H1903 H 0.48129 0.16262 0.66325 0.0
H1904 H 0.50854 0.17235 0.65418 0.0
H1905 H 0.50489 0.15305 0.58425 0.0
H1906 H 0.4777 0.14296 0.59307 0.0
H1907 H 0.38477 0.17387 0.61542 0.0
H1908 H 0.40451 0.15982 0.63984 0.0
H1909 H 0.43128 0.14715 0.57744 0.0
H1910 H 0.41203 0.16176 0.55322 0.0
H1911 H 0.45047 0.15958 0.60685 0.0
H1912 H 0.41005 0.11897 0.6132 0.0
H1913 H 0.3832 0.10792 0.62146 0.0
H1914 H 0.38682 0.12333 0.69343 0.0
H1915 H 0.41363 0.13467 0.68553 0.0
C1916 C 0.49836 0.11536 0.66691 0.0
C1917 C 0.50143 0.12132 0.68966 0.0
C1918 C 0.48392 0.11886 0.65554 0.0
C1919 C 0.47223 0.12825 0.66675 0.0
C1920 C 0.47468 0.13317 0.69009 0.0
C1921 C 0.48922 0.12981 0.70144 0.0
C1922 C 0.45861 0.1347 0.65295 0.0
C1923 C 0.44295 0.12946 0.65772 0.0
C1924 C 0.46129 0.14563 0.63434 0.0
C1925 C 0.47754 0.15189 0.62891 0.0
C1926 C 0.48636 0.16033 0.64601 0.0
C1927 C 0.50178 0.16593 0.64091 0.0
C1928 C 0.50846 0.16328 0.61868 0.0
C1929 C 0.49971 0.15507 0.60148 0.0
C1930 C 0.48429 0.14941 0.60652 0.0
C1931 C 0.3947 0.16779 0.60692 0.0
C1932 C 0.39693 0.16899 0.58245 0.0
C1933 C 0.40597 0.15971 0.62089 0.0
C1934 C 0.41944 0.15237 0.61053 0.0
C1935 C 0.4211 0.15281 0.58592 0.0
C1936 C 0.41005 0.16113 0.57206 0.0
C1937 C 0.43261 0.14561 0.62523 0.0
C1938 C 0.44832 0.15091 0.62076 0.0
C1939 C 0.4299 0.13463 0.6439 0.0
C1940 C 0.41379 0.12782 0.64871 0.0
C1941 C 0.40507 0.12012 0.63074 0.0
C1942 C 0.38987 0.11378 0.63537 0.0
C1943 C 0.38329 0.11496 0.65794 0.0
C1944 C 0.39192 0.12244 0.67595 0.0
C1945 C 0.40713 0.12882 0.67141 0.0
H1946 H 0.37151 0.11004 0.66148 0.0
H1947 H 0.52041 0.16762 0.61475 0.0
H1948 H 0.61803 0.74488 0.46856 0.0
H1949 H 0.61105 0.71933 0.45009 0.0
H1950 H 0.63932 0.73193 0.38919 0.0
H1951 H 0.64662 0.75732 0.40769 0.0
H1952 H 0.59378 0.71647 0.41221 0.0
H1953 H 0.65098 0.69867 0.35934 0.0
H1954 H 0.68038 0.6993 0.36419 0.0
H1955 H 0.6749 0.69908 0.43939 0.0
H1956 H 0.64549 0.69822 0.435 0.0
H1957 H 0.57397 0.67406 0.31098 0.0
H1958 H 0.5881 0.69243 0.3371 0.0
H1959 H 0.60592 0.65245 0.37756 0.0
H1960 H 0.59169 0.63378 0.35141 0.0
H1961 H 0.62902 0.6778 0.37041 0.0
H1962 H 0.57573 0.66996 0.39852 0.0
H1963 H 0.54636 0.66814 0.39516 0.0
H1964 H 0.54406 0.71767 0.37451 0.0
H1965 H 0.57355 0.71967 0.37709 0.0
C1966 C 0.62307 0.74207 0.45146 0.0
C1967 C 0.6328 0.75324 0.43955 0.0
C1968 C 0.61903 0.72746 0.44089 0.0
C1969 C 0.62464 0.72367 0.41824 0.0
C1970 C 0.63501 0.73444 0.40682 0.0
C1971 C 0.63912 0.74902 0.41741 0.0
C1972 C 0.61824 0.70943 0.40549 0.0
C1973 C 0.60153 0.70797 0.40328 0.0
C1974 C 0.6283 0.69816 0.394 0.0
C1975 C 0.646 0.6985 0.39682 0.0
C1976 C 0.65604 0.69867 0.37691 0.0
C1977 C 0.67272 0.69909 0.37958 0.0
C1978 C 0.6795 0.69927 0.40208 0.0
C1979 C 0.66963 0.699 0.42197 0.0
C1980 C 0.65295 0.69857 0.4194 0.0
C1981 C 0.58102 0.66907 0.32523 0.0
C1982 C 0.58154 0.65241 0.32922 0.0
C1983 C 0.58911 0.67963 0.34016 0.0
C1984 C 0.59791 0.67381 0.35939 0.0
C1985 C 0.59918 0.65717 0.3628 0.0
C1986 C 0.59099 0.64654 0.34789 0.0
C1987 C 0.60468 0.68528 0.37673 0.0
C1988 C 0.62137 0.68624 0.37967 0.0
C1989 C 0.59463 0.69599 0.38922 0.0
C1990 C 0.57687 0.69492 0.38783 0.0
C1991 C 0.56898 0.68043 0.39306 0.0
C1992 C 0.5523 0.67938 0.39131 0.0
C1993 C 0.54332 0.69279 0.38466 0.0
C1994 C 0.55103 0.70729 0.37967 0.0
C1995 C 0.56774 0.70839 0.38125 0.0
H1996 H 0.53039 0.69198 0.38341 0.0
H1997 H 0.69241 0.69961 0.40411 0.0
H1998 H 0.09733 0.84574 0.06689 0.0
H1999 H 0.07941 0.85843 0.09544 0.0
H2000 H 0.10319 0.83331 0.15192 0.0
H2001 H 0.12145 0.82077 0.12338 0.0
H2002 H 0.06926 0.82823 0.14862 0.0
H2003 H 0.10635 0.8717 0.15254 0.0
H2004 H 0.1243 0.8926 0.13672 0.0
H2005 H 0.08429 0.91549 0.10292 0.0
H2006 H 0.06612 0.89459 0.11824 0.0
H2007 H 0.00893 0.85965 0.22342 0.0
H2008 H 0.03585 0.85318 0.20898 0.0
H2009 H 0.0279 0.88318 0.14813 0.0
H2010 H 0.00138 0.89018 0.16288 0.0
H2011 H 0.05751 0.88604 0.16045 0.0
H2012 H 0.02197 0.84099 0.14817 0.0
H2013 H 0.00317 0.81963 0.16013 0.0
H2014 H 0.03917 0.79931 0.20528 0.0
H2015 H 0.05813 0.82069 0.19378 0.0
C2016 C 0.09903 0.84325 0.08545 0.0
C2017 C 0.11077 0.83226 0.09291 0.0
C2018 C 0.08881 0.85054 0.10175 0.0
C2019 C 0.08998 0.8468 0.12578 0.0
C2020 C 0.10215 0.83638 0.13344 0.0
C2021 C 0.11262 0.82931 0.11715 0.0
C2022 C 0.0773 0.85238 0.1422 0.0
C2023 C 0.06691 0.84087 0.15176 0.0
C2024 C 0.07401 0.86886 0.14564 0.0
C2025 C 0.08488 0.88151 0.13644 0.0
C2026 C 0.10139 0.88112 0.14158 0.0
C2027 C 0.1116 0.89298 0.13273 0.0
C2028 C 0.10544 0.90535 0.11879 0.0
C2029 C 0.08905 0.9059 0.11372 0.0
C2030 C 0.07878 0.89406 0.12251 0.0
C2031 C 0.01302 0.86504 0.20714 0.0
C2032 C 0.00293 0.87531 0.19421 0.0
C2033 C 0.0284 0.86128 0.19883 0.0
C2034 C 0.03383 0.86742 0.17718 0.0
C2035 C 0.02404 0.87825 0.16485 0.0
C2036 C 0.0088 0.88221 0.1733 0.0
C2037 C 0.04919 0.86189 0.16645 0.0
C2038 C 0.06005 0.8734 0.15784 0.0
C2039 C 0.05276 0.84538 0.16342 0.0
C2040 C 0.04138 0.83254 0.17037 0.0
C2041 C 0.02583 0.83204 0.16079 0.0
C2042 C 0.01515 0.81992 0.16746 0.0
C2043 C 0.01995 0.80816 0.18352 0.0
C2044 C 0.03546 0.80846 0.19289 0.0
C2045 C 0.04617 0.82057 0.1863 0.0
H2046 H 0.01167 0.79878 0.18866 0.0
H2047 H 0.11337 0.91452 0.11196 0.0
H2048 H 0.64206 0.75212 0.91444 0.0
H2049 H 0.63395 0.77801 0.89842 0.0
H2050 H 0.597 0.78182 0.95132 0.0
H2051 H 0.60485 0.7557 0.96724 0.0
H2052 H 0.58471 0.7869 0.90987 0.0
H2053 H 0.62967 0.80757 0.95088 0.0
H2054 H 0.65773 0.80911 0.96441 0.0
H2055 H 0.67359 0.81613 0.89321 0.0
H2056 H 0.64564 0.8144 0.87918 0.0
H2057 H 0.58196 0.87292 0.85901 0.0
H2058 H 0.59396 0.85425 0.8875 0.0
H2059 H 0.58736 0.81526 0.83854 0.0
H2060 H 0.57551 0.83362 0.81012 0.0
H2061 H 0.62032 0.83174 0.88576 0.0
H2062 H 0.57025 0.78478 0.86894 0.0
H2063 H 0.54175 0.78431 0.85721 0.0
H2064 H 0.53533 0.83178 0.88515 0.0
H2065 H 0.56371 0.83243 0.89739 0.0
C2066 C 0.63239 0.75856 0.92298 0.0
C2067 C 0.62404 0.75173 0.94204 0.0
C2068 C 0.62782 0.77346 0.91385 0.0
C2069 C 0.6149 0.78195 0.92371 0.0
C2070 C 0.607 0.7755 0.9434 0.0
C2071 C 0.61153 0.76056 0.95252 0.0
C2072 C 0.60865 0.79662 0.9119 0.0
C2073 C 0.5925 0.79676 0.90487 0.0
C2074 C 0.61869 0.80967 0.90564 0.0
C2075 C 0.63554 0.81076 0.91396 0.0
C2076 C 0.63915 0.80933 0.93808 0.0
C2077 C 0.65504 0.81025 0.94584 0.0
C2078 C 0.66744 0.81269 0.92968 0.0
C2079 C 0.66397 0.81424 0.90571 0.0
C2080 C 0.6481 0.81331 0.89784 0.0
C2081 C 0.58331 0.86042 0.85418 0.0
C2082 C 0.57761 0.85476 0.83235 0.0
C2083 C 0.59018 0.84978 0.87047 0.0
C2084 C 0.59132 0.83336 0.86522 0.0
C2085 C 0.5864 0.82786 0.84303 0.0
C2086 C 0.57963 0.83842 0.82679 0.0
C2087 C 0.59665 0.82158 0.88317 0.0
C2088 C 0.61256 0.82197 0.89121 0.0
C2089 C 0.58635 0.80913 0.89076 0.0
C2090 C 0.56915 0.80869 0.88392 0.0
C2091 C 0.56273 0.79508 0.87271 0.0
C2092 C 0.5466 0.79479 0.86595 0.0
C2093 C 0.53675 0.80802 0.87038 0.0
C2094 C 0.54299 0.82155 0.88167 0.0
C2095 C 0.5591 0.82189 0.8885 0.0
H2096 H 0.52427 0.80778 0.8651 0.0
H2097 H 0.67973 0.81341 0.93573 0.0
H2098 H 0.50487 0.3505 0.20476 0.0
H2099 H 0.48018 0.34278 0.18456 0.0
H2100 H 0.47601 0.39056 0.1559 0.0
H2101 H 0.50101 0.39821 0.17541 0.0
H2102 H 0.44971 0.35059 0.18226 0.0
H2103 H 0.46333 0.38854 0.09957 0.0
H2104 H 0.48653 0.40071 0.07927 0.0
H2105 H 0.51763 0.36487 0.10877 0.0
H2106 H 0.4946 0.35238 0.12897 0.0
H2107 H 0.38534 0.33716 0.10096 0.0
H2108 H 0.40498 0.3508 0.12614 0.0
H2109 H 0.44352 0.32854 0.08728 0.0
H2110 H 0.42415 0.31534 0.06183 0.0
H2111 H 0.45116 0.35787 0.09556 0.0
H2112 H 0.43011 0.31429 0.14195 0.0
H2113 H 0.40896 0.29848 0.16156 0.0
H2114 H 0.39603 0.33941 0.20344 0.0
H2115 H 0.41699 0.35553 0.18385 0.0
C2116 C 0.49856 0.35946 0.19451 0.0
C2117 C 0.50505 0.3749 0.19141 0.0
C2118 C 0.4844 0.35503 0.18298 0.0
C2119 C 0.4764 0.36598 0.16828 0.0
C2120 C 0.48217 0.38179 0.1667 0.0
C2121 C 0.49644 0.38616 0.17794 0.0
C2122 C 0.46297 0.36041 0.15305 0.0
C2123 C 0.44995 0.35231 0.16332 0.0
C2124 C 0.46337 0.36237 0.12827 0.0
C2125 C 0.47728 0.36967 0.116 0.0
C2126 C 0.47512 0.38325 0.10166 0.0
C2127 C 0.48823 0.3902 0.09018 0.0
C2128 C 0.50355 0.38361 0.09281 0.0
C2129 C 0.50578 0.37 0.10683 0.0
C2130 C 0.4927 0.36299 0.11831 0.0
C2131 C 0.39801 0.3353 0.09768 0.0
C2132 C 0.40315 0.32511 0.07939 0.0
C2133 C 0.40922 0.34303 0.11217 0.0
C2134 C 0.42576 0.34057 0.10881 0.0
C2135 C 0.43085 0.33069 0.09024 0.0
C2136 C 0.41971 0.3231 0.07569 0.0
C2137 C 0.43792 0.34791 0.1247 0.0
C2138 C 0.45073 0.35639 0.11454 0.0
C2139 C 0.43757 0.34582 0.14946 0.0
C2140 C 0.42498 0.33616 0.16125 0.0
C2141 C 0.42267 0.31995 0.15521 0.0
C2142 C 0.41073 0.31093 0.16634 0.0
C2143 C 0.40112 0.31795 0.18368 0.0
C2144 C 0.40346 0.334 0.18997 0.0
C2145 C 0.41537 0.34308 0.17887 0.0
H2146 H 0.39189 0.31094 0.19228 0.0
H2147 H 0.51369 0.38901 0.08393 0.0
H2148 H 0.88501 0.24316 0.47144 0.0
H2149 H 0.89071 0.21689 0.45403 0.0
H2150 H 0.86949 0.23243 0.38855 0.0
H2151 H 0.86315 0.25834 0.40611 0.0
H2152 H 0.86275 0.20265 0.39409 0.0
H2153 H 0.91134 0.2336 0.39978 0.0
H2154 H 0.93243 0.24925 0.41983 0.0
H2155 H 0.94368 0.20864 0.46338 0.0
H2156 H 0.92251 0.1928 0.44374 0.0
H2157 H 0.91091 0.16274 0.30812 0.0
H2158 H 0.8972 0.18134 0.33468 0.0
H2159 H 0.90972 0.15151 0.39393 0.0
H2160 H 0.9232 0.13257 0.36731 0.0
H2161 H 0.91963 0.18516 0.39628 0.0
H2162 H 0.87269 0.15328 0.38265 0.0
H2163 H 0.85277 0.13901 0.35832 0.0
H2164 H 0.83973 0.18329 0.32469 0.0
H2165 H 0.85974 0.1978 0.34858 0.0
C2166 C 0.88133 0.24087 0.45345 0.0
C2167 C 0.87375 0.25291 0.44011 0.0
C2168 C 0.88468 0.22588 0.44346 0.0
C2169 C 0.88087 0.22275 0.41977 0.0
C2170 C 0.8726 0.23449 0.40683 0.0
C2171 C 0.86901 0.24936 0.41691 0.0
C2172 C 0.8863 0.20775 0.40788 0.0
C2173 C 0.8752 0.19887 0.39455 0.0
C2174 C 0.90252 0.2026 0.40866 0.0
C2175 C 0.91522 0.21209 0.42052 0.0
C2176 C 0.91823 0.22805 0.41376 0.0
C2177 C 0.93021 0.23695 0.42502 0.0
C2178 C 0.93934 0.22996 0.44293 0.0
C2179 C 0.93656 0.21404 0.44955 0.0
C2180 C 0.92458 0.2051 0.43836 0.0
C2181 C 0.91044 0.15995 0.32674 0.0
C2182 C 0.91813 0.14621 0.33565 0.0
C2183 C 0.90258 0.17057 0.34188 0.0
C2184 C 0.90245 0.16778 0.36624 0.0
C2185 C 0.90965 0.15381 0.37515 0.0
C2186 C 0.91726 0.14298 0.35993 0.0
C2187 C 0.89613 0.18029 0.38232 0.0
C2188 C 0.90711 0.18875 0.39631 0.0
C2189 C 0.87993 0.18528 0.38162 0.0
C2190 C 0.8678 0.17661 0.36732 0.0
C2191 C 0.86567 0.15996 0.36994 0.0
C2192 C 0.85434 0.15183 0.35625 0.0
C2193 C 0.84501 0.16023 0.33994 0.0
C2194 C 0.84696 0.17679 0.33733 0.0
C2195 C 0.85828 0.18498 0.35097 0.0
H2196 H 0.83624 0.15391 0.32936 0.0
H2197 H 0.94861 0.23686 0.45163 0.0
H2198 H 0.11843 0.67038 0.60331 0.0
H2199 H 0.09937 0.65648 0.62917 0.0
H2200 H 0.06093 0.66755 0.58099 0.0
H2201 H 0.07971 0.68147 0.55529 0.0
H2202 H 0.05305 0.67558 0.62493 0.0
H2203 H 0.07571 0.6297 0.58554 0.0
H2204 H 0.09755 0.61183 0.57246 0.0
H2205 H 0.11046 0.60271 0.64444 0.0
H2206 H 0.08882 0.62072 0.65795 0.0
H2207 H 0.99932 0.60704 0.66281 0.0
H2208 H 0.02377 0.61539 0.64248 0.0
H2209 H 0.03292 0.6504 0.69676 0.0
H2210 H 0.00843 0.64226 0.71715 0.0
H2211 H 0.05645 0.61891 0.65143 0.0
H2212 H 0.04245 0.68545 0.66885 0.0
H2213 H 0.01939 0.70269 0.67914 0.0
H2214 H 0.9873 0.6694 0.64574 0.0
H2215 H 0.01018 0.65212 0.63497 0.0
C2216 C 0.10595 0.66969 0.5981 0.0
C2217 C 0.1006 0.67713 0.57727 0.0
C2218 C 0.09508 0.66172 0.61288 0.0
C2219 C 0.07871 0.66101 0.60703 0.0
C2220 C 0.07347 0.66804 0.58594 0.0
C2221 C 0.08427 0.67597 0.57122 0.0
C2222 C 0.06678 0.65369 0.62323 0.0
C2223 C 0.05389 0.66321 0.63082 0.0
C2224 C 0.06777 0.63753 0.63082 0.0
C2225 C 0.08076 0.62669 0.62274 0.0
C2226 C 0.0833 0.624 0.59857 0.0
C2227 C 0.09562 0.61382 0.59109 0.0
C2228 C 0.10542 0.60618 0.60761 0.0
C2229 C 0.10288 0.60866 0.63166 0.0
C2230 C 0.09058 0.61884 0.63924 0.0
C2231 C 0.0067 0.61627 0.67074 0.0
C2232 C 0.00175 0.62416 0.69144 0.0
C2233 C 0.02073 0.62098 0.65912 0.0
C2234 C 0.03002 0.63368 0.66791 0.0
C2235 C 0.02581 0.6407 0.68953 0.0
C2236 C 0.0118 0.636 0.70118 0.0
C2237 C 0.04282 0.64085 0.65308 0.0
C2238 C 0.05581 0.63134 0.64578 0.0
C2239 C 0.04183 0.65698 0.64536 0.0
C2240 C 0.02801 0.66742 0.65138 0.0
C2241 C 0.03048 0.68185 0.66365 0.0
C2242 C 0.01744 0.69162 0.66956 0.0
C2243 C 0.00189 0.68711 0.66318 0.0
C2244 C 0.99934 0.67286 0.65076 0.0
C2245 C 0.01234 0.66306 0.64476 0.0
H2246 H 0.99181 0.69468 0.6678 0.0
H2247 H 0.11495 0.5983 0.60178 0.0
H2248 H 0.6486 0.25461 0.58446 0.0
H2249 H 0.6424 0.22899 0.60326 0.0
H2250 H 0.59599 0.2287 0.56957 0.0
H2251 H 0.60229 0.25408 0.55021 0.0
H2252 H 0.62092 0.22375 0.63453 0.0
H2253 H 0.5813 0.19124 0.56448 0.0
H2254 H 0.58039 0.18771 0.52137 0.0
H2255 H 0.6309 0.19741 0.51696 0.0
H2256 H 0.63216 0.20078 0.56006 0.0
H2257 H 0.56496 0.17373 0.68802 0.0
H2258 H 0.57905 0.19308 0.66362 0.0
H2259 H 0.60521 0.15472 0.63 0.0
H2260 H 0.59071 0.13503 0.65414 0.0
H2261 H 0.59568 0.17589 0.59807 0.0
H2262 H 0.62361 0.17922 0.67081 0.0
H2263 H 0.62674 0.18154 0.71386 0.0
H2264 H 0.60438 0.22796 0.71241 0.0
H2265 H 0.6009 0.22583 0.66939 0.0
C2266 C 0.63719 0.24895 0.58068 0.0
C2267 C 0.62591 0.25646 0.56589 0.0
C2268 C 0.63364 0.2343 0.5915 0.0
C2269 C 0.61874 0.22684 0.58785 0.0
C2270 C 0.60769 0.23402 0.57239 0.0
C2271 C 0.61128 0.24861 0.56138 0.0
C2272 C 0.61415 0.21244 0.60186 0.0
C2273 C 0.61554 0.21324 0.62648 0.0
C2274 C 0.60742 0.19853 0.59145 0.0
C2275 C 0.60679 0.19639 0.56551 0.0
C2276 C 0.59223 0.19255 0.55433 0.0
C2277 C 0.59165 0.19059 0.52989 0.0
C2278 C 0.60557 0.19238 0.51643 0.0
C2279 C 0.62011 0.19609 0.5274 0.0
C2280 C 0.62076 0.19805 0.55183 0.0
C2281 C 0.57378 0.16933 0.67558 0.0
C2282 C 0.57677 0.15279 0.67319 0.0
C2283 C 0.58188 0.18046 0.66165 0.0
C2284 C 0.59342 0.17541 0.64523 0.0
C2285 C 0.59642 0.1589 0.64263 0.0
C2286 C 0.58817 0.14767 0.6565 0.0
C2287 C 0.602 0.18751 0.63066 0.0
C2288 C 0.60131 0.18631 0.60601 0.0
C2289 C 0.60973 0.20091 0.64099 0.0
C2290 C 0.61193 0.20232 0.66687 0.0
C2291 C 0.61928 0.18989 0.67969 0.0
C2292 C 0.62112 0.19117 0.70409 0.0
C2293 C 0.61575 0.20488 0.71587 0.0
C2294 C 0.60854 0.21735 0.70326 0.0
C2295 C 0.60666 0.21612 0.67886 0.0
H2296 H 0.61718 0.20584 0.73476 0.0
H2297 H 0.6051 0.19086 0.49751 0.0
H2298 H 0.0131 0.36806 0.77813 0.0
H2299 H 0.03972 0.3625 0.79441 0.0
H2300 H 0.02539 0.38372 0.86049 0.0
H2301 H 0.99913 0.38991 0.84407 0.0
H2302 H 0.05516 0.39053 0.85344 0.0
H2303 H 0.02371 0.34186 0.84885 0.0
H2304 H 0.0079 0.32085 0.8289 0.0
H2305 H 0.04822 0.30957 0.78479 0.0
H2306 H 0.06421 0.33068 0.80432 0.0
H2307 H 0.09395 0.34375 0.94091 0.0
H2308 H 0.07613 0.35759 0.91343 0.0
H2309 H 0.10505 0.34138 0.85512 0.0
H2310 H 0.12317 0.32767 0.88265 0.0
H2311 H 0.07187 0.33339 0.85218 0.0
H2312 H 0.10454 0.37961 0.86474 0.0
H2313 H 0.11933 0.39963 0.88819 0.0
H2314 H 0.07545 0.41451 0.92126 0.0
H2315 H 0.06041 0.39441 0.89827 0.0
C2316 C 0.01572 0.37178 0.796 0.0
C2317 C 0.00392 0.37929 0.80986 0.0
C2318 C 0.03093 0.36851 0.80534 0.0
C2319 C 0.03449 0.37235 0.82889 0.0
C2320 C 0.02298 0.38059 0.84231 0.0
C2321 C 0.0079 0.38409 0.83288 0.0
C2322 C 0.04966 0.3669 0.84023 0.0
C2323 C 0.05878 0.37803 0.85318 0.0
C2324 C 0.05466 0.35064 0.83957 0.0
C2325 C 0.04507 0.33797 0.82781 0.0
C2326 C 0.02916 0.33498 0.83478 0.0
C2327 C 0.02017 0.32304 0.82357 0.0
C2328 C 0.02703 0.31392 0.80553 0.0
C2329 C 0.04291 0.31668 0.79872 0.0
C2330 C 0.05194 0.32862 0.80985 0.0
C2331 C 0.09673 0.34342 0.92228 0.0
C2332 C 0.10994 0.3346 0.91392 0.0
C2333 C 0.08657 0.35138 0.9066 0.0
C2334 C 0.08929 0.35053 0.88225 0.0
C2335 C 0.10279 0.34222 0.87387 0.0
C2336 C 0.11316 0.33447 0.88961 0.0
C2337 C 0.07707 0.35693 0.86576 0.0
C2338 C 0.06847 0.34596 0.85194 0.0
C2339 C 0.07237 0.37324 0.86605 0.0
C2340 C 0.08136 0.38542 0.87985 0.0
C2341 C 0.09805 0.38706 0.87714 0.0
C2342 C 0.10648 0.39845 0.89033 0.0
C2343 C 0.09834 0.40832 0.90623 0.0
C2344 C 0.08174 0.40685 0.90894 0.0
C2345 C 0.07326 0.39548 0.8958 0.0
H2346 H 0.10489 0.41713 0.91643 0.0
H2347 H 0.02006 0.30468 0.79688 0.0
H2348 H 0.88765 0.75992 0.03016 0.0
H2349 H 0.89477 0.78604 0.04692 0.0
H2350 H 0.8713 0.77307 0.11195 0.0
H2351 H 0.86354 0.74738 0.09499 0.0
H2352 H 0.86659 0.80302 0.10518 0.0
H2353 H 0.91339 0.76898 0.10198 0.0
H2354 H 0.93381 0.75196 0.08285 0.0
H2355 H 0.94814 0.79153 0.0392 0.0
H2356 H 0.92765 0.80873 0.05789 0.0
H2357 H 0.91512 0.84034 0.1929 0.0
H2358 H 0.9012 0.82226 0.16579 0.0
H2359 H 0.91658 0.85114 0.10697 0.0
H2360 H 0.93026 0.86957 0.13413 0.0
H2361 H 0.9245 0.81679 0.10527 0.0
H2362 H 0.87954 0.85174 0.1161 0.0
H2363 H 0.86007 0.86757 0.13912 0.0
H2364 H 0.84334 0.82462 0.17295 0.0
H2365 H 0.86288 0.80856 0.15038 0.0
C2366 C 0.8838 0.76275 0.0479 0.0
C2367 C 0.87514 0.7515 0.0613 0.0
C2368 C 0.88796 0.77766 0.05753 0.0
C2369 C 0.88391 0.78144 0.08094 0.0
C2370 C 0.87462 0.7705 0.09389 0.0
C2371 C 0.87021 0.75575 0.08416 0.0
C2372 C 0.89005 0.79625 0.09258 0.0
C2373 C 0.87927 0.80598 0.10522 0.0
C2374 C 0.90656 0.80038 0.09237 0.0
C2375 C 0.91886 0.79006 0.0811 0.0
C2376 C 0.92081 0.774 0.08817 0.0
C2377 C 0.93241 0.76434 0.07743 0.0
C2378 C 0.94223 0.77064 0.05976 0.0
C2379 C 0.9405 0.78665 0.05284 0.0
C2380 C 0.9289 0.79636 0.0635 0.0
C2381 C 0.91529 0.84302 0.17423 0.0
C2382 C 0.92379 0.85636 0.16562 0.0
C2383 C 0.9073 0.83271 0.15878 0.0
C2384 C 0.90786 0.83539 0.13441 0.0
C2385 C 0.91597 0.84892 0.12575 0.0
C2386 C 0.92371 0.85946 0.14127 0.0
C2387 C 0.9011 0.82324 0.11813 0.0
C2388 C 0.91179 0.814 0.10475 0.0
C2389 C 0.8846 0.81935 0.11812 0.0
C2390 C 0.87276 0.82896 0.13165 0.0
C2391 C 0.8718 0.84568 0.12858 0.0
C2392 C 0.86073 0.8547 0.14153 0.0
C2393 C 0.85049 0.84711 0.15751 0.0
C2394 C 0.85128 0.83049 0.16056 0.0
C2395 C 0.86234 0.82142 0.14767 0.0
H2396 H 0.84193 0.85411 0.16752 0.0
H2397 H 0.9512 0.76314 0.05147 0.0
H2398 H 0.38571 0.67695 0.38476 0.0
H2399 H 0.40619 0.66358 0.36086 0.0
H2400 H 0.42773 0.64431 0.424 0.0
H2401 H 0.40786 0.65844 0.44785 0.0
H2402 H 0.44947 0.65729 0.40057 0.0
H2403 H 0.40781 0.62068 0.37911 0.0
H2404 H 0.38125 0.6123 0.36447 0.0
H2405 H 0.3911 0.63429 0.29763 0.0
H2406 H 0.41765 0.64299 0.31197 0.0
H2407 H 0.5085 0.61046 0.34535 0.0
H2408 H 0.48299 0.61613 0.36478 0.0
H2409 H 0.46872 0.64594 0.30639 0.0
H2410 H 0.4943 0.6404 0.28673 0.0
H2411 H 0.44306 0.62656 0.32634 0.0
H2412 H 0.48489 0.66353 0.35038 0.0
H2413 H 0.51138 0.67092 0.36636 0.0
H2414 H 0.50055 0.64619 0.43077 0.0
H2415 H 0.47411 0.63835 0.41496 0.0
C2416 C 0.39462 0.66954 0.39343 0.0
C2417 C 0.39528 0.66877 0.41813 0.0
C2418 C 0.40631 0.66184 0.37976 0.0
C2419 C 0.41858 0.65285 0.39054 0.0
C2420 C 0.41853 0.65126 0.4152 0.0
C2421 C 0.40713 0.65928 0.42884 0.0
C2422 C 0.43243 0.64659 0.37665 0.0
C2423 C 0.44796 0.65027 0.38462 0.0
C2424 C 0.43062 0.63784 0.35539 0.0
C2425 C 0.41467 0.63262 0.3467 0.0
C2426 C 0.40427 0.62384 0.36135 0.0
C2427 C 0.38922 0.61901 0.35309 0.0
C2428 C 0.38447 0.62279 0.33016 0.0
C2429 C 0.39478 0.63138 0.3154 0.0
C2430 C 0.40984 0.63625 0.32358 0.0
C2431 C 0.49986 0.618 0.33638 0.0
C2432 C 0.50356 0.62513 0.31457 0.0
C2433 C 0.48527 0.62122 0.34755 0.0
C2434 C 0.47405 0.63158 0.33713 0.0
C2435 C 0.47723 0.63791 0.31471 0.0
C2436 C 0.49189 0.63478 0.30356 0.0
C2437 C 0.45984 0.63705 0.35068 0.0
C2438 C 0.44437 0.63338 0.3425 0.0
C2439 C 0.46162 0.64562 0.37201 0.0
C2440 C 0.47759 0.65021 0.38138 0.0
C2441 C 0.48822 0.65952 0.36784 0.0
C2442 C 0.50322 0.66382 0.3769 0.0
C2443 C 0.50764 0.65902 0.39957 0.0
C2444 C 0.49711 0.64988 0.41321 0.0
C2445 C 0.48213 0.6455 0.4042 0.0
H2446 H 0.51918 0.66244 0.40665 0.0
H2447 H 0.37282 0.61904 0.3238 0.0
H2448 H 0.4112 0.16111 0.1948 0.0
H2449 H 0.39709 0.17907 0.1678 0.0
H2450 H 0.40976 0.1485 0.10941 0.0
H2451 H 0.42371 0.13024 0.13647 0.0
H2452 H 0.41882 0.1815 0.1046 0.0
H2453 H 0.37225 0.15033 0.12231 0.0
H2454 H 0.35281 0.13664 0.14814 0.0
H2455 H 0.3405 0.18165 0.18025 0.0
H2456 H 0.36004 0.19559 0.15485 0.0
H2457 H 0.38303 0.23897 0.02979 0.0
H2458 H 0.38851 0.21269 0.04732 0.0
H2459 H 0.36969 0.22938 0.11377 0.0
H2460 H 0.36356 0.2553 0.09615 0.0
H2461 H 0.3622 0.19961 0.10929 0.0
H2462 H 0.41117 0.22982 0.09925 0.0
H2463 H 0.43179 0.24466 0.07697 0.0
H2464 H 0.44087 0.20297 0.03453 0.0
H2465 H 0.42015 0.18794 0.0564 0.0
C2466 C 0.41072 0.15803 0.17628 0.0
C2467 C 0.4186 0.14428 0.16774 0.0
C2468 C 0.40261 0.16828 0.16089 0.0
C2469 C 0.40236 0.16509 0.13663 0.0
C2470 C 0.40977 0.15111 0.1281 0.0
C2471 C 0.41767 0.14068 0.14358 0.0
C2472 C 0.39569 0.1772 0.1202 0.0
C2473 C 0.40634 0.18522 0.10515 0.0
C2474 C 0.37954 0.18232 0.12152 0.0
C2475 C 0.3677 0.17399 0.13675 0.0
C2476 C 0.36549 0.1573 0.135 0.0
C2477 C 0.35443 0.14949 0.14954 0.0
C2478 C 0.34544 0.15827 0.16585 0.0
C2479 C 0.34747 0.17487 0.16761 0.0
C2480 C 0.35852 0.18273 0.15311 0.0
C2481 C 0.37981 0.23693 0.04802 0.0
C2482 C 0.373 0.24929 0.06162 0.0
C2483 C 0.38303 0.22193 0.05807 0.0
C2484 C 0.37988 0.21913 0.08206 0.0
C2485 C 0.37229 0.23119 0.09527 0.0
C2486 C 0.36882 0.24607 0.08515 0.0
C2487 C 0.38542 0.2042 0.09398 0.0
C2488 C 0.3746 0.19569 0.10829 0.0
C2489 C 0.40153 0.19882 0.0924 0.0
C2490 C 0.41397 0.20783 0.07924 0.0
C2491 C 0.41748 0.22386 0.08505 0.0
C2492 C 0.4292 0.2323 0.07251 0.0
C2493 C 0.4376 0.22478 0.05429 0.0
C2494 C 0.43433 0.20879 0.04861 0.0
C2495 C 0.4226 0.20031 0.06106 0.0
H2496 H 0.44667 0.23133 0.04461 0.0
H2497 H 0.33689 0.1522 0.1771 0.0
H2498 H 0.50854 0.63914 0.78305 0.0
H2499 H 0.53375 0.64589 0.80297 0.0
H2500 H 0.51992 0.61668 0.86225 0.0
H2501 H 0.49487 0.60972 0.8425 0.0
H2502 H 0.52725 0.64901 0.87329 0.0
H2503 H 0.54976 0.60452 0.83003 0.0
H2504 H 0.5562 0.58915 0.79415 0.0
H2505 H 0.58315 0.62907 0.76727 0.0
H2506 H 0.57668 0.64477 0.80287 0.0
H2507 H 0.59285 0.66078 0.94632 0.0
H2508 H 0.57325 0.64681 0.92179 0.0
H2509 H 0.59427 0.66789 0.85958 0.0
H2510 H 0.61455 0.68115 0.88411 0.0
H2511 H 0.58359 0.63957 0.84865 0.0
H2512 H 0.56077 0.68475 0.88822 0.0
H2513 H 0.55399 0.702 0.92209 0.0
H2514 H 0.52688 0.66359 0.95303 0.0
H2515 H 0.53367 0.64604 0.91947 0.0
C2516 C 0.51101 0.63388 0.80011 0.0
C2517 C 0.4996 0.62398 0.81123 0.0
C2518 C 0.52544 0.63773 0.81144 0.0
C2519 C 0.52866 0.63181 0.83411 0.0
C2520 C 0.51764 0.62138 0.84477 0.0
C2521 C 0.50333 0.61739 0.83339 0.0
C2522 C 0.54264 0.63774 0.84774 0.0
C2523 C 0.53958 0.64672 0.86812 0.0
C2524 C 0.55867 0.63532 0.8404 0.0
C2525 C 0.56259 0.62588 0.81902 0.0
C2526 C 0.55693 0.61008 0.81638 0.0
C2527 C 0.56062 0.60129 0.79611 0.0
C2528 C 0.57004 0.60814 0.77841 0.0
C2529 C 0.57583 0.62378 0.78098 0.0
C2530 C 0.57217 0.63263 0.80121 0.0
C2531 C 0.59349 0.66215 0.92737 0.0
C2532 C 0.60511 0.67214 0.9171 0.0
C2533 C 0.58221 0.65426 0.91335 0.0
C2534 C 0.58191 0.6567 0.88886 0.0
C2535 C 0.59415 0.6659 0.87843 0.0
C2536 C 0.60574 0.67347 0.89245 0.0
C2537 C 0.56822 0.65063 0.87453 0.0
C2538 C 0.57128 0.64177 0.85393 0.0
C2539 C 0.55209 0.65346 0.88133 0.0
C2540 C 0.54785 0.66404 0.90144 0.0
C2541 C 0.55344 0.67996 0.90231 0.0
C2542 C 0.54959 0.68979 0.92145 0.0
C2543 C 0.54004 0.68389 0.93973 0.0
C2544 C 0.53428 0.66815 0.93887 0.0
C2545 C 0.53812 0.65825 0.91979 0.0
H2546 H 0.53708 0.69152 0.95453 0.0
H2547 H 0.57288 0.60132 0.76273 0.0
H2548 H 0.09685 0.84605 0.68823 0.0
H2549 H 0.11004 0.82849 0.65974 0.0
H2550 H 0.08884 0.85531 0.60272 0.0
H2551 H 0.07574 0.87316 0.63126 0.0
H2552 H 0.08229 0.82216 0.60174 0.0
H2553 H 0.1279 0.85634 0.60753 0.0
H2554 H 0.14872 0.87221 0.62774 0.0
H2555 H 0.16691 0.82948 0.66052 0.0
H2556 H 0.14606 0.81337 0.64078 0.0
H2557 H 0.11478 0.76338 0.52557 0.0
H2558 H 0.10936 0.79005 0.5418 0.0
H2559 H 0.13395 0.77697 0.60586 0.0
H2560 H 0.13992 0.75061 0.58947 0.0
H2561 H 0.13976 0.807 0.59697 0.0
H2562 H 0.09197 0.77416 0.59905 0.0
H2563 H 0.07045 0.75744 0.58208 0.0
H2564 H 0.05569 0.7967 0.53814 0.0
H2565 H 0.07727 0.8136 0.55466 0.0
C2566 C 0.09531 0.84847 0.66962 0.0
C2567 C 0.08523 0.86095 0.66198 0.0
C2568 C 0.1029 0.83845 0.65335 0.0
C2569 C 0.10044 0.84061 0.62911 0.0
C2570 C 0.09094 0.85349 0.62136 0.0
C2571 C 0.08354 0.86372 0.63767 0.0
C2572 C 0.10632 0.82827 0.61234 0.0
C2573 C 0.0949 0.8191 0.60017 0.0
C2574 C 0.12272 0.82402 0.61088 0.0
C2575 C 0.13534 0.83365 0.62275 0.0
C2576 C 0.13626 0.85033 0.61918 0.0
C2577 C 0.14809 0.85938 0.63054 0.0
C2578 C 0.15912 0.85186 0.64543 0.0
C2579 C 0.15836 0.83529 0.64897 0.0
C2580 C 0.14655 0.82619 0.63767 0.0
C2581 C 0.11925 0.76628 0.54297 0.0
C2582 C 0.12764 0.75478 0.55631 0.0
C2583 C 0.11608 0.78152 0.55228 0.0
C2584 C 0.12094 0.78544 0.57529 0.0
C2585 C 0.13003 0.77426 0.58811 0.0
C2586 C 0.1334 0.75913 0.57871 0.0
C2587 C 0.11568 0.80064 0.58677 0.0
C2588 C 0.12719 0.81029 0.59805 0.0
C2589 C 0.09931 0.8052 0.58779 0.0
C2590 C 0.08635 0.79506 0.57785 0.0
C2591 C 0.08421 0.77918 0.58563 0.0
C2592 C 0.072 0.76968 0.57612 0.0
C2593 C 0.06175 0.77599 0.55898 0.0
C2594 C 0.06366 0.79182 0.55137 0.0
C2595 C 0.07588 0.80137 0.5608 0.0
H2596 H 0.05229 0.76862 0.55164 0.0
H2597 H 0.16826 0.85889 0.65421 0.0
H2598 H 0.88207 0.33831 0.39695 0.0
H2599 H 0.90094 0.3514 0.36987 0.0
H2600 H 0.9404 0.33745 0.4145 0.0
H2601 H 0.92181 0.3244 0.44149 0.0
H2602 H 0.9249 0.37553 0.37467 0.0
H2603 H 0.96949 0.32241 0.37945 0.0
H2604 H 0.96896 0.29323 0.38686 0.0
H2605 H 0.92038 0.2909 0.3619 0.0
H2606 H 0.9207 0.32 0.35401 0.0
H2607 H 0.00464 0.39436 0.33985 0.0
H2608 H 0.97915 0.38697 0.35797 0.0
H2609 H 0.96925 0.35484 0.30019 0.0
H2610 H 0.99487 0.36199 0.28207 0.0
H2611 H 0.96643 0.33969 0.34061 0.0
H2612 H 0.94638 0.38864 0.30923 0.0
H2613 H 0.94601 0.41764 0.30064 0.0
H2614 H 0.94383 0.4281 0.37462 0.0
H2615 H 0.94441 0.39916 0.38369 0.0
C2616 C 0.89474 0.33823 0.40116 0.0
C2617 C 0.90043 0.33014 0.42128 0.0
C2618 C 0.90549 0.34574 0.3857 0.0
C2619 C 0.92206 0.34518 0.39004 0.0
C2620 C 0.92766 0.33783 0.41067 0.0
C2621 C 0.91699 0.33038 0.42611 0.0
C2622 C 0.93372 0.3513 0.37247 0.0
C2623 C 0.93395 0.36774 0.36709 0.0
C2624 C 0.94527 0.34102 0.36218 0.0
C2625 C 0.94509 0.32342 0.36631 0.0
C2626 C 0.95873 0.31565 0.37541 0.0
C2627 C 0.95846 0.29913 0.37972 0.0
C2628 C 0.94463 0.29023 0.37492 0.0
C2629 C 0.93107 0.29782 0.36569 0.0
C2630 C 0.93129 0.31433 0.36131 0.0
C2631 C 0.99691 0.38597 0.33071 0.0
C2632 C 0.0019 0.37867 0.30958 0.0
C2633 C 0.98227 0.3818 0.34107 0.0
C2634 C 0.97225 0.37035 0.33044 0.0
C2635 C 0.97681 0.36368 0.30874 0.0
C2636 C 0.99145 0.36782 0.29836 0.0
C2637 C 0.958 0.36409 0.34323 0.0
C2638 C 0.95729 0.34755 0.34784 0.0
C2639 C 0.94594 0.37428 0.3525 0.0
C2640 C 0.94555 0.39171 0.34714 0.0
C2641 C 0.94594 0.39712 0.32369 0.0
C2642 C 0.94567 0.41356 0.31872 0.0
C2643 C 0.94492 0.42471 0.33707 0.0
C2644 C 0.94441 0.41945 0.36042 0.0
C2645 C 0.94469 0.40302 0.36548 0.0
H2646 H 0.94472 0.43742 0.33319 0.0
H2647 H 0.94443 0.27744 0.37832 0.0
H2648 H 0.43846 0.82913 0.31852 0.0
H2649 H 0.42361 0.81053 0.34314 0.0
H2650 H 0.39703 0.84992 0.37335 0.0
H2651 H 0.41244 0.8689 0.34908 0.0
H2652 H 0.40472 0.82917 0.40665 0.0
H2653 H 0.37976 0.82464 0.33167 0.0
H2654 H 0.37845 0.82154 0.28851 0.0
H2655 H 0.40038 0.77504 0.29385 0.0
H2656 H 0.40204 0.77795 0.337 0.0
H2657 H 0.35237 0.74972 0.41816 0.0
H2658 H 0.3586 0.7754 0.39957 0.0
H2659 H 0.40372 0.777 0.43679 0.0
H2660 H 0.39735 0.75158 0.45597 0.0
H2661 H 0.38088 0.78069 0.36992 0.0
H2662 H 0.41781 0.81461 0.44184 0.0
H2663 H 0.41711 0.8188 0.48482 0.0
H2664 H 0.36662 0.80857 0.48563 0.0
H2665 H 0.36695 0.80454 0.44262 0.0
C2666 C 0.42941 0.83392 0.33028 0.0
C2667 C 0.42652 0.85053 0.33162 0.0
C2668 C 0.42086 0.82321 0.34433 0.0
C2669 C 0.40892 0.82874 0.35973 0.0
C2670 C 0.40612 0.84535 0.36146 0.0
C2671 C 0.41488 0.85617 0.34755 0.0
C2672 C 0.39963 0.817 0.37402 0.0
C2673 C 0.39938 0.81862 0.39864 0.0
C2674 C 0.39225 0.80345 0.36356 0.0
C2675 C 0.39108 0.80155 0.3376 0.0
C2676 C 0.38437 0.81379 0.32364 0.0
C2677 C 0.38357 0.81206 0.29917 0.0
C2678 C 0.38934 0.79811 0.28845 0.0
C2679 C 0.3959 0.78584 0.30218 0.0
C2680 C 0.39675 0.78751 0.32665 0.0
C2681 C 0.36348 0.75569 0.42278 0.0
C2682 C 0.3744 0.74853 0.43847 0.0
C2683 C 0.36704 0.77038 0.41208 0.0
C2684 C 0.38162 0.77822 0.41675 0.0
C2685 C 0.39225 0.7714 0.43317 0.0
C2686 C 0.38863 0.75678 0.44407 0.0
C2687 C 0.38648 0.7925 0.40267 0.0
C2688 C 0.38593 0.79134 0.37802 0.0
C2689 C 0.39277 0.80661 0.41312 0.0
C2690 C 0.39244 0.80915 0.43899 0.0
C2691 C 0.40654 0.81333 0.45116 0.0
C2692 C 0.40621 0.81566 0.47554 0.0
C2693 C 0.39184 0.81391 0.48796 0.0
C2694 C 0.37776 0.80986 0.47601 0.0
C2695 C 0.37802 0.80753 0.45163 0.0
H2696 H 0.39162 0.81571 0.50683 0.0
H2697 H 0.38872 0.79679 0.26952 0.0
H2698 H 0.00512 0.60833 0.15731 0.0
H2699 H 0.98051 0.61561 0.13666 0.0
H2700 H 0.96392 0.64124 0.19793 0.0
H2701 H 0.9887 0.63422 0.21879 0.0
H2702 H 0.93907 0.62243 0.16936 0.0
H2703 H 0.98073 0.66305 0.16337 0.0
H2704 H 0.00843 0.67196 0.15548 0.0
H2705 H 0.00519 0.65383 0.08485 0.0
H2706 H 0.97755 0.64454 0.09249 0.0
H2707 H 0.88428 0.67634 0.11296 0.0
H2708 H 0.90387 0.66223 0.13748 0.0
H2709 H 0.93163 0.6508 0.07549 0.0
H2710 H 0.91254 0.66561 0.0512 0.0
H2711 H 0.9506 0.66173 0.10591 0.0
H2712 H 0.90919 0.62197 0.10964 0.0
H2713 H 0.88196 0.61139 0.11657 0.0
H2714 H 0.88463 0.62582 0.18907 0.0
H2715 H 0.9118 0.63669 0.18249 0.0
C2716 C 0.99611 0.61518 0.16669 0.0
C2717 C 0.999 0.62087 0.18964 0.0
C2718 C 0.98204 0.61932 0.15481 0.0
C2719 C 0.97051 0.62906 0.16572 0.0
C2720 C 0.9727 0.63369 0.18926 0.0
C2721 C 0.98689 0.62971 0.2011 0.0
C2722 C 0.95733 0.63605 0.15156 0.0
C2723 C 0.94148 0.63115 0.15562 0.0
C2724 C 0.96062 0.64712 0.13334 0.0
C2725 C 0.97714 0.65294 0.12859 0.0
C2726 C 0.98598 0.66084 0.14623 0.0
C2727 C 0.00166 0.66597 0.1418 0.0
C2728 C 0.00859 0.66341 0.1197 0.0
C2729 C 0.99982 0.65577 0.10197 0.0
C2730 C 0.98414 0.65057 0.10634 0.0
C2731 C 0.89442 0.67057 0.10456 0.0
C2732 C 0.89692 0.67211 0.08019 0.0
C2733 C 0.90561 0.66243 0.11859 0.0
C2734 C 0.91926 0.65531 0.1084 0.0
C2735 C 0.9213 0.65626 0.08387 0.0
C2736 C 0.91034 0.66468 0.06996 0.0
C2737 C 0.93207 0.64802 0.12328 0.0
C2738 C 0.948 0.65294 0.11948 0.0
C2739 C 0.9288 0.63682 0.14149 0.0
C2740 C 0.91247 0.63028 0.14551 0.0
C2741 C 0.90392 0.623 0.12701 0.0
C2742 C 0.88851 0.61693 0.13089 0.0
C2743 C 0.88156 0.61797 0.15323 0.0
C2744 C 0.89002 0.62505 0.17176 0.0
C2745 C 0.90544 0.63115 0.16798 0.0
H2746 H 0.86962 0.61326 0.15619 0.0
H2747 H 0.02073 0.66739 0.11632 0.0
H2748 H 0.14823 0.25118 0.92282 0.0
H2749 H 0.14046 0.22607 0.90367 0.0
H2750 H 0.09316 0.22991 0.93404 0.0
H2751 H 0.10101 0.25468 0.95389 0.0
H2752 H 0.10104 0.19958 0.93164 0.0
H2753 H 0.10189 0.24427 0.87787 0.0
H2754 H 0.11402 0.26725 0.85703 0.0
H2755 H 0.14948 0.23606 0.82671 0.0
H2756 H 0.13767 0.21293 0.84763 0.0
H2757 H 0.06398 0.1736 0.81251 0.0
H2758 H 0.07745 0.19306 0.83751 0.0
H2759 H 0.10032 0.15464 0.87588 0.0
H2760 H 0.0864 0.13491 0.85117 0.0
H2761 H 0.10691 0.20072 0.84471 0.0
H2762 H 0.10599 0.16686 0.93332 0.0
H2763 H 0.09018 0.14598 0.95364 0.0
H2764 H 0.04861 0.15879 0.9131 0.0
H2765 H 0.06411 0.17986 0.89277 0.0
C2766 C 0.13627 0.24651 0.9258 0.0
C2767 C 0.12518 0.25505 0.93965 0.0
C2768 C 0.13183 0.23218 0.91476 0.0
C2769 C 0.1161 0.22628 0.91693 0.0
C2770 C 0.10535 0.23422 0.932 0.0
C2771 C 0.10985 0.24844 0.94332 0.0
C2772 C 0.11038 0.21275 0.902 0.0
C2773 C 0.10246 0.19975 0.91265 0.0
C2774 C 0.11193 0.21306 0.87716 0.0
C2775 C 0.11902 0.22692 0.86452 0.0
C2776 C 0.11234 0.24235 0.86688 0.0
C2777 C 0.11915 0.25539 0.85504 0.0
C2778 C 0.13254 0.25312 0.84061 0.0
C2779 C 0.13912 0.2378 0.83793 0.0
C2780 C 0.13238 0.22472 0.84977 0.0
C2781 C 0.07191 0.16921 0.82619 0.0
C2782 C 0.07404 0.15265 0.82987 0.0
C2783 C 0.07967 0.1804 0.84047 0.0
C2784 C 0.08982 0.17537 0.85875 0.0
C2785 C 0.09235 0.15884 0.86213 0.0
C2786 C 0.08445 0.14757 0.84791 0.0
C2787 C 0.09742 0.18759 0.87428 0.0
C2788 C 0.10574 0.20036 0.86373 0.0
C2789 C 0.09574 0.18732 0.89911 0.0
C2790 C 0.08627 0.17478 0.91133 0.0
C2791 C 0.09347 0.16523 0.92879 0.0
C2792 C 0.08456 0.15336 0.9403 0.0
C2793 C 0.06842 0.15102 0.93459 0.0
C2794 C 0.06113 0.16057 0.91743 0.0
C2795 C 0.06997 0.17246 0.90589 0.0
H2796 H 0.06155 0.14182 0.94352 0.0
H2797 H 0.13779 0.26323 0.83145 0.0
H2798 H 0.62238 0.33118 0.61998 0.0
H2799 H 0.60401 0.34505 0.64697 0.0
H2800 H 0.574 0.3584 0.5883 0.0
H2801 H 0.59208 0.3444 0.56136 0.0
H2802 H 0.57753 0.38303 0.624 0.0
H2803 H 0.56483 0.32603 0.61538 0.0
H2804 H 0.57155 0.29723 0.61755 0.0
H2805 H 0.58284 0.30219 0.69099 0.0
H2806 H 0.57639 0.33109 0.68913 0.0
H2807 H 0.49726 0.39085 0.65892 0.0
H2808 H 0.52363 0.38561 0.6423 0.0
H2809 H 0.53885 0.36448 0.70802 0.0
H2810 H 0.51211 0.36913 0.72451 0.0
H2811 H 0.54679 0.34562 0.67484 0.0
H2812 H 0.55463 0.40135 0.68599 0.0
H2813 H 0.5484 0.43026 0.68465 0.0
H2814 H 0.54742 0.42871 0.60908 0.0
H2815 H 0.55342 0.39974 0.60994 0.0
C2816 C 0.61207 0.3374 0.6128 0.0
C2817 C 0.60859 0.3366 0.58859 0.0
C2818 C 0.60158 0.34528 0.62823 0.0
C2819 C 0.58761 0.35265 0.61961 0.0
C2820 C 0.58473 0.35281 0.59528 0.0
C2821 C 0.59504 0.34474 0.57993 0.0
C2822 C 0.57504 0.35865 0.63585 0.0
C2823 C 0.57077 0.37492 0.63517 0.0
C2824 C 0.56659 0.34811 0.65091 0.0
C2825 C 0.57034 0.33073 0.65205 0.0
C2826 C 0.56888 0.321 0.63193 0.0
C2827 C 0.57261 0.30466 0.63311 0.0
C2828 C 0.57767 0.29789 0.65437 0.0
C2829 C 0.57895 0.30745 0.67452 0.0
C2830 C 0.57526 0.32381 0.67341 0.0
C2831 C 0.50628 0.38535 0.67003 0.0
C2832 C 0.50253 0.38036 0.69304 0.0
C2833 C 0.52146 0.38244 0.66052 0.0
C2834 C 0.5334 0.37481 0.67395 0.0
C2835 C 0.52988 0.37039 0.69727 0.0
C2836 C 0.51459 0.37309 0.70671 0.0
C2837 C 0.54889 0.3701 0.6628 0.0
C2838 C 0.55371 0.35397 0.66427 0.0
C2839 C 0.55794 0.38086 0.64871 0.0
C2840 C 0.55439 0.39832 0.64805 0.0
C2841 C 0.55299 0.40714 0.66908 0.0
C2842 C 0.54951 0.42355 0.66841 0.0
C2843 C 0.5475 0.43132 0.6468 0.0
C2844 C 0.54899 0.42269 0.62581 0.0
C2845 C 0.55245 0.40627 0.62638 0.0
H2846 H 0.5448 0.44402 0.64632 0.0
H2847 H 0.58055 0.28524 0.65526 0.0
H2848 H 0.06023 0.43048 0.2464 0.0
H2849 H 0.06247 0.45842 0.23355 0.0
H2850 H 0.06634 0.47367 0.30594 0.0
H2851 H 0.06382 0.44583 0.31891 0.0
H2852 H 0.04509 0.4915 0.28332 0.0
H2853 H 0.09901 0.47409 0.26799 0.0
H2854 H 0.11994 0.45659 0.25117 0.0
H2855 H 0.10328 0.46732 0.18137 0.0
H2856 H 0.0821 0.48474 0.19778 0.0
H2857 H 0.06196 0.57298 0.25796 0.0
H2858 H 0.06498 0.54537 0.272 0.0
H2859 H 0.06177 0.52806 0.20055 0.0
H2860 H 0.05915 0.55559 0.18637 0.0
H2861 H 0.08372 0.51147 0.22369 0.0
H2862 H 0.02915 0.52739 0.23842 0.0
H2863 H 0.00763 0.54451 0.25451 0.0
H2864 H 0.02492 0.53609 0.32467 0.0
H2865 H 0.04668 0.51908 0.30896 0.0
C2866 C 0.06175 0.43976 0.25957 0.0
C2867 C 0.06184 0.43591 0.28369 0.0
C2868 C 0.06308 0.45575 0.25219 0.0
C2869 C 0.06469 0.46819 0.26876 0.0
C2870 C 0.0651 0.46431 0.29281 0.0
C2871 C 0.06371 0.44836 0.3002 0.0
C2872 C 0.06513 0.48529 0.26116 0.0
C2873 C 0.05373 0.49591 0.27058 0.0
C2874 C 0.0761 0.491 0.24405 0.0
C2875 C 0.08888 0.48061 0.23413 0.0
C2876 C 0.09974 0.47263 0.24906 0.0
C2877 C 0.11166 0.46274 0.2396 0.0
C2878 C 0.11292 0.46082 0.21522 0.0
C2879 C 0.10228 0.46881 0.20025 0.0
C2880 C 0.09033 0.47871 0.20962 0.0
C2881 C 0.06205 0.56331 0.24522 0.0
C2882 C 0.06021 0.5665 0.22105 0.0
C2883 C 0.0637 0.54751 0.25328 0.0
C2884 C 0.06333 0.53457 0.23737 0.0
C2885 C 0.06206 0.5378 0.21318 0.0
C2886 C 0.06052 0.55358 0.2051 0.0
C2887 C 0.06369 0.51766 0.24589 0.0
C2888 C 0.07518 0.50707 0.23658 0.0
C2889 C 0.05274 0.51193 0.26301 0.0
C2890 C 0.03964 0.52211 0.27249 0.0
C2891 C 0.02843 0.52929 0.25726 0.0
C2892 C 0.01618 0.53895 0.26631 0.0
C2893 C 0.01494 0.54142 0.29059 0.0
C2894 C 0.02592 0.53419 0.30587 0.0
C2895 C 0.0382 0.52453 0.2969 0.0
H2896 H 0.00544 0.54891 0.29756 0.0
H2897 H 0.12215 0.45315 0.20793 0.0
H2898 H 0.82494 0.81066 0.49668 0.0
H2899 H 0.79713 0.81376 0.48356 0.0
H2900 H 0.78113 0.81283 0.5558 0.0
H2901 H 0.80882 0.80953 0.569 0.0
H2902 H 0.76366 0.79298 0.52949 0.0
H2903 H 0.78095 0.84772 0.52348 0.0
H2904 H 0.79845 0.86993 0.51068 0.0
H2905 H 0.78847 0.85879 0.43831 0.0
H2906 H 0.77107 0.83636 0.45068 0.0
H2907 H 0.68247 0.81241 0.50648 0.0
H2908 H 0.71008 0.81431 0.52092 0.0
H2909 H 0.72749 0.81513 0.44939 0.0
H2910 H 0.69996 0.8135 0.43483 0.0
H2911 H 0.74408 0.83585 0.47611 0.0
H2912 H 0.72803 0.78057 0.48169 0.0
H2913 H 0.71077 0.75803 0.49393 0.0
H2914 H 0.71879 0.76985 0.56659 0.0
H2915 H 0.73594 0.79261 0.55477 0.0
C2916 C 0.81552 0.8113 0.50979 0.0
C2917 C 0.81912 0.80983 0.53389 0.0
C2918 C 0.79962 0.81312 0.50226 0.0
C2919 C 0.78701 0.81363 0.5187 0.0
C2920 C 0.79063 0.81246 0.54278 0.0
C2921 C 0.8065 0.81062 0.55031 0.0
C2922 C 0.76999 0.81457 0.51082 0.0
C2923 C 0.75933 0.80251 0.51814 0.0
C2924 C 0.7644 0.82676 0.4955 0.0
C2925 C 0.77483 0.84026 0.48801 0.0
C2926 C 0.78259 0.84992 0.50483 0.0
C2927 C 0.79247 0.86257 0.49766 0.0
C2928 C 0.7946 0.86574 0.4737 0.0
C2929 C 0.78682 0.8563 0.45687 0.0
C2930 C 0.77693 0.84363 0.46395 0.0
C2931 C 0.69216 0.81316 0.49382 0.0
C2932 C 0.689 0.8127 0.4695 0.0
C2933 C 0.70796 0.81417 0.5021 0.0
C2934 C 0.7209 0.81461 0.48624 0.0
C2935 C 0.71772 0.81477 0.46197 0.0
C2936 C 0.70195 0.81379 0.45368 0.0
C2937 C 0.73777 0.81429 0.49486 0.0
C2938 C 0.74841 0.8264 0.48761 0.0
C2939 C 0.74338 0.80211 0.51019 0.0
C2940 C 0.73312 0.7884 0.51734 0.0
C2941 C 0.72601 0.77844 0.50028 0.0
C2942 C 0.71626 0.76561 0.50714 0.0
C2943 C 0.71365 0.76253 0.53102 0.0
C2944 C 0.72081 0.77226 0.5481 0.0
C2945 C 0.73055 0.78512 0.54133 0.0
H2946 H 0.7061 0.75259 0.5363 0.0
H2947 H 0.80226 0.87554 0.46818 0.0
H2948 H 0.44076 0.44527 0.68397 0.0
H2949 H 0.43831 0.47316 0.69669 0.0
H2950 H 0.43971 0.45805 0.7693 0.0
H2951 H 0.44202 0.43001 0.7567 0.0
H2952 H 0.41755 0.48178 0.76234 0.0
H2953 H 0.47297 0.47275 0.74338 0.0
H2954 H 0.49565 0.4643 0.7184 0.0
H2955 H 0.4825 0.49939 0.66648 0.0
H2956 H 0.45959 0.5079 0.69102 0.0
H2957 H 0.44015 0.55576 0.81514 0.0
H2958 H 0.43799 0.52813 0.80124 0.0
H2959 H 0.43855 0.54477 0.7293 0.0
H2960 H 0.44097 0.57252 0.74312 0.0
H2961 H 0.45889 0.52038 0.73505 0.0
H2962 H 0.40398 0.53023 0.75498 0.0
H2963 H 0.38146 0.53867 0.78027 0.0
H2964 H 0.39368 0.50221 0.83061 0.0
H2965 H 0.41643 0.49369 0.80577 0.0
C2966 C 0.44041 0.44783 0.70266 0.0
C2967 C 0.44169 0.43539 0.71932 0.0
C2968 C 0.43906 0.46381 0.7099 0.0
C2969 C 0.43907 0.46774 0.73395 0.0
C2970 C 0.43973 0.45532 0.75065 0.0
C2971 C 0.44108 0.43929 0.74341 0.0
C2972 C 0.43895 0.48482 0.7416 0.0
C2973 C 0.42668 0.49019 0.75659 0.0
C2974 C 0.45067 0.4959 0.73369 0.0
C2975 C 0.46447 0.49084 0.71893 0.0
C2976 C 0.47484 0.47858 0.72655 0.0
C2977 C 0.48775 0.47379 0.71248 0.0
C2978 C 0.49049 0.48127 0.69083 0.0
C2979 C 0.48035 0.49359 0.68323 0.0
C2980 C 0.46741 0.4984 0.69722 0.0
C2981 C 0.43965 0.55359 0.79635 0.0
C2982 C 0.44072 0.56638 0.78024 0.0
C2983 C 0.43835 0.53775 0.78842 0.0
C2984 C 0.43796 0.53433 0.76421 0.0
C2985 C 0.43881 0.5471 0.74807 0.0
C2986 C 0.44013 0.56297 0.756 0.0
C2987 C 0.43746 0.51741 0.75579 0.0
C2988 C 0.44967 0.51203 0.74069 0.0
C2989 C 0.4257 0.50635 0.76365 0.0
C2990 C 0.412 0.51142 0.7786 0.0
C2991 C 0.40195 0.52409 0.77153 0.0
C2992 C 0.38912 0.52888 0.78577 0.0
C2993 C 0.38616 0.52101 0.80706 0.0
C2994 C 0.396 0.50831 0.81412 0.0
C2995 C 0.40885 0.50348 0.79996 0.0
H2996 H 0.37623 0.52473 0.81805 0.0
H2997 H 0.5005 0.47755 0.67997 0.0
H2998 H 0.80292 0.19365 0.93075 0.0
H2999 H 0.77524 0.19187 0.94453 0.0
H3000 H 0.7919 0.18824 0.01625 0.0
H3001 H 0.81975 0.18978 0.00252 0.0
H3002 H 0.76728 0.16779 0.00824 0.0
H3003 H 0.77771 0.22363 0.99491 0.0
H3004 H 0.7864 0.24735 0.97229 0.0
H3005 H 0.75001 0.23811 0.9205 0.0
H3006 H 0.74124 0.21419 0.94266 0.0
H3007 H 0.69445 0.19038 0.06524 0.0
H3008 H 0.72189 0.18794 0.05059 0.0
H3009 H 0.70462 0.19137 0.97916 0.0
H3010 H 0.67708 0.19397 0.99372 0.0
H3011 H 0.72946 0.21138 0.98666 0.0
H3012 H 0.71848 0.15582 0.00115 0.0
H3013 H 0.7098 0.13239 0.02442 0.0
H3014 H 0.74715 0.14143 0.07479 0.0
H3015 H 0.75592 0.16505 0.05199 0.0
C3016 C 0.80074 0.19238 0.94946 0.0
C3017 C 0.81357 0.19196 0.96555 0.0
C3018 C 0.78488 0.19143 0.95732 0.0
C3019 C 0.78146 0.19018 0.98146 0.0
C3020 C 0.79424 0.18925 0.99754 0.0
C3021 C 0.81015 0.19017 0.98967 0.0
C3022 C 0.76454 0.19024 0.98989 0.0
C3023 C 0.75906 0.17741 0.00376 0.0
C3024 C 0.7537 0.20263 0.98366 0.0
C3025 C 0.75892 0.21703 0.97032 0.0
C3026 C 0.77164 0.22658 0.9786 0.0
C3027 C 0.77657 0.24008 0.96588 0.0
C3028 C 0.7688 0.24421 0.94494 0.0
C3029 C 0.75604 0.23488 0.93671 0.0
C3030 C 0.75108 0.22136 0.94935 0.0
C3031 C 0.69644 0.19043 0.04639 0.0
C3032 C 0.68354 0.19238 0.03065 0.0
C3033 C 0.71216 0.18898 0.03803 0.0
C3034 C 0.71534 0.18937 0.01375 0.0
C3035 C 0.70246 0.19103 0.99797 0.0
C3036 C 0.68671 0.19245 0.00632 0.0
C3037 C 0.73215 0.18889 0.00494 0.0
C3038 C 0.73764 0.2017 0.99104 0.0
C3039 C 0.74299 0.17652 0.01124 0.0
C3040 C 0.73776 0.1623 0.02497 0.0
C3041 C 0.72476 0.15289 0.01729 0.0
C3042 C 0.71984 0.13956 0.03038 0.0
C3043 C 0.72789 0.13545 0.0511 0.0
C3044 C 0.74091 0.14464 0.05875 0.0
C3045 C 0.74588 0.15799 0.04574 0.0
H3046 H 0.72406 0.12512 0.06121 0.0
H3047 H 0.77263 0.25466 0.93512 0.0
H3048 H 0.94321 0.44556 0.81833 0.0
H3049 H 0.94078 0.47315 0.80433 0.0
H3050 H 0.93998 0.45627 0.73251 0.0
H3051 H 0.94269 0.42858 0.7464 0.0
H3052 H 0.96051 0.48045 0.7372 0.0
H3053 H 0.90592 0.47115 0.75975 0.0
H3054 H 0.88391 0.46308 0.78623 0.0
H3055 H 0.89751 0.49981 0.83539 0.0
H3056 H 0.91976 0.50796 0.80934 0.0
H3057 H 0.94189 0.55515 0.68545 0.0
H3058 H 0.93968 0.52739 0.69884 0.0
H3059 H 0.94197 0.54325 0.77107 0.0
H3060 H 0.94397 0.57117 0.75778 0.0
H3061 H 0.91995 0.51952 0.76561 0.0
H3062 H 0.97498 0.52809 0.74409 0.0
H3063 H 0.99722 0.53618 0.71802 0.0
H3064 H 0.98291 0.50068 0.66736 0.0
H3065 H 0.96044 0.49253 0.693 0.0
C3066 C 0.94233 0.44767 0.79955 0.0
C3067 C 0.94315 0.43483 0.78348 0.0
C3068 C 0.94088 0.46348 0.79157 0.0
C3069 C 0.94005 0.46683 0.76735 0.0
C3070 C 0.94058 0.45401 0.75128 0.0
C3071 C 0.94207 0.43817 0.75925 0.0
C3072 C 0.93951 0.48372 0.7588 0.0
C3073 C 0.95145 0.4889 0.7431 0.0
C3074 C 0.92799 0.49492 0.767 0.0
C3075 C 0.9146 0.49007 0.78268 0.0
C3076 C 0.9043 0.47743 0.77629 0.0
C3077 C 0.89177 0.47285 0.79121 0.0
C3078 C 0.88934 0.4809 0.8125 0.0
C3079 C 0.89942 0.49357 0.8189 0.0
C3080 C 0.91198 0.49819 0.80405 0.0
C3081 C 0.9418 0.55278 0.7042 0.0
C3082 C 0.94322 0.5654 0.72055 0.0
C3083 C 0.94059 0.53687 0.71183 0.0
C3084 C 0.94092 0.53319 0.73596 0.0
C3085 C 0.94175 0.54579 0.75236 0.0
C3086 C 0.94292 0.56175 0.74473 0.0
C3087 C 0.9409 0.51618 0.74398 0.0
C3088 C 0.92892 0.51101 0.75962 0.0
C3089 C 0.9524 0.50497 0.73578 0.0
C3090 C 0.96593 0.50982 0.72036 0.0
C3091 C 0.9765 0.5221 0.72731 0.0
C3092 C 0.98916 0.52668 0.71262 0.0
C3093 C 0.99145 0.51898 0.69102 0.0
C3094 C 0.98111 0.50665 0.68408 0.0
C3095 C 0.96842 0.50204 0.69869 0.0
H3096 H 0.00126 0.52254 0.67967 0.0
H3097 H 0.87963 0.47734 0.82403 0.0
H3098 H 0.30496 0.19019 0.56842 0.0
H3099 H 0.2776 0.18779 0.55351 0.0
H3100 H 0.29548 0.18807 0.48222 0.0
H3101 H 0.32296 0.19066 0.49703 0.0
H3102 H 0.27092 0.20869 0.48747 0.0
H3103 H 0.2808 0.15365 0.50708 0.0
H3104 H 0.28893 0.1311 0.53253 0.0
H3105 H 0.25147 0.14289 0.58149 0.0
H3106 H 0.24325 0.16566 0.55648 0.0
H3107 H 0.19691 0.1912 0.43324 0.0
H3108 H 0.22457 0.1887 0.44689 0.0
H3109 H 0.20815 0.1881 0.51893 0.0
H3110 H 0.18033 0.19031 0.50535 0.0
H3111 H 0.23216 0.16683 0.51252 0.0
H3112 H 0.22307 0.22235 0.49442 0.0
H3113 H 0.21492 0.2453 0.46973 0.0
H3114 H 0.251 0.23301 0.41883 0.0
H3115 H 0.25922 0.20985 0.44308 0.0
C3116 C 0.30312 0.18958 0.54956 0.0
C3117 C 0.31617 0.19062 0.53392 0.0
C3118 C 0.28744 0.18814 0.54106 0.0
C3119 C 0.28446 0.18762 0.51673 0.0
C3120 C 0.29749 0.18843 0.50106 0.0
C3121 C 0.31319 0.18985 0.50956 0.0
C3122 C 0.26771 0.18706 0.50769 0.0
C3123 C 0.26254 0.19937 0.49262 0.0
C3124 C 0.25661 0.17517 0.51495 0.0
C3125 C 0.2615 0.16146 0.53 0.0
C3126 C 0.27438 0.15152 0.52336 0.0
C3127 C 0.27899 0.13868 0.53769 0.0
C3128 C 0.27075 0.13559 0.55864 0.0
C3129 C 0.25785 0.14531 0.56527 0.0
C3130 C 0.2532 0.15817 0.55101 0.0
C3131 C 0.19914 0.19039 0.45199 0.0
C3132 C 0.1864 0.19107 0.46821 0.0
C3133 C 0.21499 0.18903 0.45978 0.0
C3134 C 0.21848 0.1885 0.48396 0.0
C3135 C 0.20575 0.18855 0.50018 0.0
C3136 C 0.18986 0.18984 0.4924 0.0
C3137 C 0.23542 0.18844 0.49227 0.0
C3138 C 0.2406 0.17608 0.50726 0.0
C3139 C 0.24653 0.20032 0.48503 0.0
C3140 C 0.24165 0.21427 0.47045 0.0
C3141 C 0.22918 0.22447 0.47788 0.0
C3142 C 0.22456 0.23753 0.46398 0.0
C3143 C 0.23241 0.24058 0.4427 0.0
C3144 C 0.24492 0.23061 0.4353 0.0
C3145 C 0.24957 0.21753 0.44912 0.0
H3146 H 0.22882 0.2507 0.43196 0.0
H3147 H 0.27434 0.12564 0.56971 0.0
H3148 H 0.56598 0.55856 0.31565 0.0
H3149 H 0.56784 0.53103 0.3011 0.0
H3150 H 0.56175 0.54798 0.22989 0.0
H3151 H 0.55973 0.5756 0.24435 0.0
H3152 H 0.54209 0.52312 0.2392 0.0
H3153 H 0.59805 0.53431 0.24905 0.0
H3154 H 0.62231 0.54315 0.27024 0.0
H3155 H 0.61536 0.50599 0.32161 0.0
H3156 H 0.59091 0.49705 0.30091 0.0
H3157 H 0.5582 0.44959 0.18236 0.0
H3158 H 0.56045 0.47731 0.19586 0.0
H3159 H 0.56616 0.46082 0.26737 0.0
H3160 H 0.5641 0.43293 0.25392 0.0
H3161 H 0.58653 0.4855 0.25755 0.0
H3162 H 0.53032 0.47485 0.24872 0.0
H3163 H 0.50587 0.46599 0.22803 0.0
H3164 H 0.51309 0.50224 0.17535 0.0
H3165 H 0.53773 0.51118 0.19556 0.0
C3166 C 0.56521 0.55647 0.29686 0.0
C3167 C 0.5627 0.5693 0.28117 0.0
C3168 C 0.56634 0.54071 0.28855 0.0
C3169 C 0.56504 0.53742 0.26437 0.0
C3170 C 0.56279 0.55023 0.24862 0.0
C3171 C 0.56171 0.56602 0.25691 0.0
C3172 C 0.56523 0.52056 0.25568 0.0
C3173 C 0.55195 0.51498 0.24288 0.0
C3174 C 0.57785 0.50978 0.26106 0.0
C3175 C 0.59256 0.51511 0.27354 0.0
C3176 C 0.60161 0.52811 0.26498 0.0
C3177 C 0.61542 0.53312 0.27688 0.0
C3178 C 0.62035 0.52516 0.29729 0.0
C3179 C 0.61151 0.51215 0.30581 0.0
C3180 C 0.59769 0.5071 0.29399 0.0
C3181 C 0.56004 0.45181 0.20095 0.0
C3182 C 0.56087 0.43902 0.21708 0.0
C3183 C 0.56127 0.4677 0.20866 0.0
C3184 C 0.56323 0.47117 0.23268 0.0
C3185 C 0.5646 0.45843 0.24876 0.0
C3186 C 0.56338 0.4425 0.24105 0.0
C3187 C 0.56343 0.48811 0.241 0.0
C3188 C 0.57673 0.49368 0.25379 0.0
C3189 C 0.5508 0.4989 0.23569 0.0
C3190 C 0.53596 0.49357 0.22352 0.0
C3191 C 0.52677 0.48085 0.23262 0.0
C3192 C 0.51286 0.47582 0.221 0.0
C3193 C 0.50795 0.48352 0.20036 0.0
C3194 C 0.51692 0.49628 0.19132 0.0
C3195 C 0.53085 0.50134 0.20286 0.0
H3196 H 0.49717 0.47961 0.19139 0.0
H3197 H 0.63104 0.52906 0.30648 0.0
H3198 H 0.19871 0.80462 0.0697 0.0
H3199 H 0.22608 0.80723 0.05488 0.0
H3200 H 0.20786 0.81461 0.98462 0.0
H3201 H 0.18034 0.81188 0.99932 0.0
H3202 H 0.23194 0.79272 0.98529 0.0
H3203 H 0.22362 0.84572 0.01581 0.0
H3204 H 0.21615 0.86586 0.04568 0.0
H3205 H 0.25338 0.84857 0.09139 0.0
H3206 H 0.26093 0.82817 0.06192 0.0
H3207 H 0.30668 0.81255 0.93466 0.0
H3208 H 0.27902 0.81445 0.94855 0.0
H3209 H 0.29525 0.80907 0.02026 0.0
H3210 H 0.32306 0.8075 0.00649 0.0
H3211 H 0.27187 0.83087 0.018 0.0
H3212 H 0.2794 0.77726 0.98927 0.0
H3213 H 0.28688 0.75646 0.96036 0.0
H3214 H 0.25114 0.77415 0.91246 0.0
H3215 H 0.24359 0.7952 0.94098 0.0
C3216 C 0.20048 0.80692 0.05111 0.0
C3217 C 0.18731 0.80805 0.0357 0.0
C3218 C 0.21617 0.80849 0.04268 0.0
C3219 C 0.21905 0.81126 0.01866 0.0
C3220 C 0.20593 0.81251 0.00323 0.0
C3221 C 0.1902 0.811 0.01168 0.0
C3222 C 0.23578 0.8122 0.00958 0.0
C3223 C 0.24059 0.80126 0.99215 0.0
C3224 C 0.24722 0.82302 0.019 0.0
C3225 C 0.24275 0.83532 0.03673 0.0
C3226 C 0.23013 0.84613 0.03231 0.0
C3227 C 0.2259 0.85761 0.04916 0.0
C3228 C 0.23427 0.85847 0.07045 0.0
C3229 C 0.24691 0.84788 0.0749 0.0
C3230 C 0.25118 0.83637 0.05812 0.0
C3231 C 0.30441 0.8119 0.95341 0.0
C3232 C 0.31709 0.80977 0.96945 0.0
C3233 C 0.28855 0.81292 0.96133 0.0
C3234 C 0.28499 0.8116 0.98543 0.0
C3235 C 0.29768 0.81005 0.00157 0.0
C3236 C 0.31358 0.80914 0.99367 0.0
C3237 C 0.26802 0.81139 0.99371 0.0
C3238 C 0.26318 0.82241 0.01103 0.0
C3239 C 0.25656 0.80057 0.98431 0.0
C3240 C 0.26105 0.78791 0.96716 0.0
C3241 C 0.27322 0.77679 0.9725 0.0
C3242 C 0.27746 0.76495 0.9562 0.0
C3243 C 0.26952 0.76402 0.93456 0.0
C3244 C 0.2573 0.77491 0.92921 0.0
C3245 C 0.25303 0.78679 0.94544 0.0
H3246 H 0.27282 0.75484 0.92197 0.0
H3247 H 0.23097 0.86737 0.08347 0.0
H3248 H 0.55876 0.94754 0.81812 0.0
H3249 H 0.56156 0.97537 0.80534 0.0
H3250 H 0.56515 0.95975 0.73311 0.0
H3251 H 0.56251 0.93175 0.74581 0.0
H3252 H 0.58634 0.98395 0.74272 0.0
H3253 H 0.53013 0.97409 0.75392 0.0
H3254 H 0.50603 0.96537 0.77561 0.0
H3255 H 0.51509 1.00086 0.82882 0.0
H3256 H 0.53939 0.00964 0.80759 0.0
H3257 H 0.56545 0.05758 0.68668 0.0
H3258 H 0.56759 0.03 0.70087 0.0
H3259 H 0.56258 0.04661 0.77245 0.0
H3260 H 0.56023 0.07428 0.75834 0.0
H3261 H 0.54284 0.02199 0.76386 0.0
H3262 H 0.59864 0.03262 0.75156 0.0
H3263 H 0.62256 0.04132 0.72944 0.0
H3264 H 0.61416 0.00457 0.67788 0.0
H3265 H 0.59004 0.99577 0.69952 0.0
C3266 C 0.56028 0.94997 0.79951 0.0
C3267 C 0.5603 0.9374 0.78296 0.0
C3268 C 0.56182 0.96592 0.79223 0.0
C3269 C 0.56332 0.96969 0.76823 0.0
C3270 C 0.56396 0.95714 0.75172 0.0
C3271 C 0.56242 0.94114 0.759 0.0
C3272 C 0.56365 0.98673 0.76038 0.0
C3273 C 0.57675 0.99223 0.7471 0.0
C3274 C 0.5513 0.99764 0.76652 0.0
C3275 C 0.53667 0.99241 0.77929 0.0
C3276 C 0.52705 0.97995 0.77034 0.0
C3277 C 0.51334 0.97501 0.78254 0.0
C3278 C 0.50905 0.98252 0.80362 0.0
C3279 C 0.51844 0.99503 0.81251 0.0
C3280 C 0.53218 1.0 0.8004 0.0
C3281 C 0.565 0.05541 0.70548 0.0
C3282 C 0.56266 0.06816 0.72137 0.0
C3283 C 0.56629 0.03961 0.71358 0.0
C3284 C 0.56536 0.0362 0.73776 0.0
C3285 C 0.56334 0.04894 0.75371 0.0
C3286 C 0.56206 0.06476 0.74562 0.0
C3287 C 0.56557 0.01929 0.74624 0.0
C3288 C 0.55251 0.01377 0.75958 0.0
C3289 C 0.57793 0.00839 0.7401 0.0
C3290 C 0.59244 0.01363 0.72706 0.0
C3291 C 0.60181 0.02647 0.7354 0.0
C3292 C 0.61542 0.03141 0.72297 0.0
C3293 C 0.61985 0.02353 0.70224 0.0
C3294 C 0.6107 0.01067 0.69393 0.0
C3295 C 0.59707 0.00569 0.70628 0.0
H3296 H 0.6304 0.02737 0.69264 0.0
H3297 H 0.49843 0.97869 0.81303 0.0
H3298 H 0.32421 0.30824 0.99564 0.0
H3299 H 0.29643 0.31086 0.98226 0.0
H3300 H 0.28069 0.31576 0.05429 0.0
H3301 H 0.30837 0.31288 0.0678 0.0
H3302 H 0.26255 0.29468 0.03179 0.0
H3303 H 0.28112 0.34802 0.01595 0.0
H3304 H 0.29911 0.36861 0.99935 0.0
H3305 H 0.28888 0.35178 0.92946 0.0
H3306 H 0.27099 0.33094 0.94566 0.0
H3307 H 0.18177 0.31405 0.00383 0.0
H3308 H 0.20931 0.31625 0.0185 0.0
H3309 H 0.22735 0.31036 0.94782 0.0
H3310 H 0.19991 0.30839 0.933 0.0
H3311 H 0.24404 0.33304 0.97075 0.0
H3312 H 0.22678 0.27898 0.98649 0.0
H3313 H 0.20899 0.25809 0.00275 0.0
H3314 H 0.21705 0.2761 0.07262 0.0
H3315 H 0.23473 0.29725 0.05672 0.0
C3316 C 0.31486 0.31006 0.00862 0.0
C3317 C 0.31853 0.31034 0.0328 0.0
C3318 C 0.29897 0.31161 0.00094 0.0
C3319 C 0.28644 0.31362 0.01725 0.0
C3320 C 0.29013 0.3142 0.04136 0.0
C3321 C 0.30599 0.31261 0.04905 0.0
C3322 C 0.26942 0.31435 0.0093 0.0
C3323 C 0.25846 0.30327 0.01874 0.0
C3324 C 0.26411 0.32527 0.99184 0.0
C3325 C 0.27483 0.33782 0.98204 0.0
C3326 C 0.2828 0.34863 0.99705 0.0
C3327 C 0.29296 0.36036 0.98771 0.0
C3328 C 0.29517 0.36148 0.96337 0.0
C3329 C 0.28718 0.35089 0.94831 0.0
C3330 C 0.27701 0.33913 0.95756 0.0
C3331 C 0.19159 0.31335 0.99138 0.0
C3332 C 0.18862 0.31096 0.96725 0.0
C3333 C 0.20734 0.31454 0.99981 0.0
C3334 C 0.22043 0.31326 0.9843 0.0
C3335 C 0.21747 0.31137 0.96013 0.0
C3336 C 0.20175 0.31019 0.9517 0.0
C3337 C 0.23723 0.31338 0.99324 0.0
C3338 C 0.24813 0.32456 0.98395 0.0
C3339 C 0.24252 0.30253 0.0108 0.0
C3340 C 0.23193 0.2898 0.02039 0.0
C3341 C 0.22465 0.27857 0.0053 0.0
C3342 C 0.21461 0.26666 0.01445 0.0
C3343 C 0.21185 0.2658 0.0387 0.0
C3344 C 0.21917 0.2768 0.05384 0.0
C3345 C 0.22921 0.28874 0.04477 0.0
H3346 H 0.20408 0.25657 0.04575 0.0
H3347 H 0.30304 0.37057 0.95618 0.0
H3348 H 0.94274 0.07218 0.2474 0.0
H3349 H 0.94139 0.04443 0.23339 0.0
H3350 H 0.93727 0.02775 0.30508 0.0
H3351 H 0.939 0.05538 0.31919 0.0
H3352 H 0.95869 0.01058 0.28268 0.0
H3353 H 0.90489 0.02761 0.26586 0.0
H3354 H 0.88399 0.04509 0.24891 0.0
H3355 H 0.90195 0.03572 0.17937 0.0
H3356 H 0.9231 0.01834 0.19593 0.0
H3357 H 0.9414 0.92938 0.25477 0.0
H3358 H 0.93847 0.95694 0.26916 0.0
H3359 H 0.94463 0.97483 0.19846 0.0
H3360 H 0.94733 0.94737 0.18391 0.0
H3361 H 0.92138 0.99115 0.22087 0.0
H3362 H 0.97565 0.97513 0.23768 0.0
H3363 H 0.99679 0.95783 0.25438 0.0
H3364 H 0.97801 0.96557 0.32389 0.0
H3365 H 0.95661 0.98276 0.30755 0.0
C3366 C 0.94138 0.06261 0.26016 0.0
C3367 C 0.94099 0.06601 0.28442 0.0
C3368 C 0.94055 0.04674 0.25212 0.0
C3369 C 0.93909 0.03395 0.26816 0.0
C3370 C 0.93841 0.03737 0.29235 0.0
C3371 C 0.93935 0.05321 0.30039 0.0
C3372 C 0.93903 0.01697 0.25988 0.0
C3373 C 0.95033 0.00629 0.26945 0.0
C3374 C 0.92842 0.0114 0.24217 0.0
C3375 C 0.91567 0.02178 0.23216 0.0
C3376 C 0.90445 0.02937 0.24696 0.0
C3377 C 0.89255 0.03924 0.23743 0.0
C3378 C 0.89167 0.04155 0.21309 0.0
C3379 C 0.90266 0.03394 0.19823 0.0
C3380 C 0.9146 0.02406 0.20768 0.0
C3381 C 0.94201 0.93917 0.24226 0.0
C3382 C 0.94469 0.93616 0.21821 0.0
C3383 C 0.9404 0.95493 0.25052 0.0
C3384 C 0.94155 0.96799 0.23494 0.0
C3385 C 0.94372 0.96498 0.21083 0.0
C3386 C 0.94532 0.94925 0.20256 0.0
C3387 C 0.94099 0.98482 0.24376 0.0
C3388 C 0.92963 0.99545 0.23424 0.0
C3389 C 0.95155 0.99038 0.26151 0.0
C3390 C 0.96443 0.98009 0.27137 0.0
C3391 C 0.97595 0.97304 0.25651 0.0
C3392 C 0.98799 0.96327 0.26591 0.0
C3393 C 0.98872 0.96057 0.29017 0.0
C3394 C 0.97742 0.96766 0.30509 0.0
C3395 C 0.96534 0.97742 0.29577 0.0
H3396 H 0.99805 0.953 0.29742 0.0
H3397 H 0.88245 0.04921 0.20574 0.0
H3398 H 0.31973 0.69091 0.50221 0.0
H3399 H 0.29185 0.68921 0.51553 0.0
H3400 H 0.27582 0.68815 0.4433 0.0
H3401 H 0.30359 0.69012 0.42989 0.0
H3402 H 0.2589 0.7092 0.4676 0.0
H3403 H 0.27469 0.65437 0.47899 0.0
H3404 H 0.29156 0.63231 0.49399 0.0
H3405 H 0.28188 0.64701 0.56508 0.0
H3406 H 0.26511 0.66929 0.55048 0.0
H3407 H 0.17719 0.69291 0.49225 0.0
H3408 H 0.20475 0.68981 0.47806 0.0
H3409 H 0.22214 0.69163 0.54957 0.0
H3410 H 0.19464 0.69446 0.56389 0.0
H3411 H 0.23816 0.66939 0.52496 0.0
H3412 H 0.22354 0.72471 0.51385 0.0
H3413 H 0.20689 0.74707 0.49929 0.0
H3414 H 0.21472 0.73169 0.42802 0.0
H3415 H 0.23125 0.70909 0.44219 0.0
C3416 C 0.31028 0.69013 0.48916 0.0
C3417 C 0.3139 0.69067 0.46498 0.0
C3418 C 0.29433 0.68911 0.4968 0.0
C3419 C 0.2817 0.68844 0.48042 0.0
C3420 C 0.28534 0.68867 0.45628 0.0
C3421 C 0.30125 0.68975 0.44864 0.0
C3422 C 0.26466 0.68833 0.48834 0.0
C3423 C 0.25432 0.70031 0.47984 0.0
C3424 C 0.25872 0.67701 0.5048 0.0
C3425 C 0.26876 0.66359 0.51363 0.0
C3426 C 0.27625 0.65297 0.49781 0.0
C3427 C 0.28579 0.64042 0.50625 0.0
C3428 C 0.28783 0.63828 0.53047 0.0
C3429 C 0.28031 0.64868 0.54632 0.0
C3430 C 0.27077 0.66127 0.53797 0.0
C3431 C 0.18686 0.69251 0.50497 0.0
C3432 C 0.1837 0.69403 0.5292 0.0
C3433 C 0.20263 0.6908 0.49683 0.0
C3434 C 0.21556 0.69073 0.51272 0.0
C3435 C 0.21238 0.69169 0.53696 0.0
C3436 C 0.19663 0.69335 0.54511 0.0
C3437 C 0.23244 0.69022 0.50413 0.0
C3438 C 0.24274 0.67818 0.51258 0.0
C3439 C 0.23838 0.70151 0.48766 0.0
C3440 C 0.22849 0.71511 0.4791 0.0
C3441 C 0.22161 0.72602 0.49508 0.0
C3442 C 0.21221 0.73875 0.4869 0.0
C3443 C 0.20971 0.74078 0.46275 0.0
C3444 C 0.21664 0.73009 0.44673 0.0
C3445 C 0.22603 0.71733 0.45482 0.0
H3446 H 0.20243 0.75064 0.45644 0.0
H3447 H 0.29521 0.62856 0.53696 0.0
H3448 H 0.43881 0.07108 0.25574 0.0
H3449 H 0.4366 0.04344 0.27003 0.0
H3450 H 0.44169 0.02586 0.19896 0.0
H3451 H 0.44365 0.0534 0.18452 0.0
H3452 H 0.41927 0.00904 0.22206 0.0
H3453 H 0.47348 0.0261 0.23713 0.0
H3454 H 0.49453 0.04375 0.2533 0.0
H3455 H 0.47703 0.03529 0.32333 0.0
H3456 H 0.45574 0.01774 0.30754 0.0
H3457 H 0.44377 0.92855 0.2458 0.0
H3458 H 0.44112 0.95639 0.23265 0.0
H3459 H 0.43734 0.97197 0.3049 0.0
H3460 H 0.44031 0.94424 0.31817 0.0
H3461 H 0.45806 0.99007 0.28218 0.0
H3462 H 0.40453 0.97175 0.26701 0.0
H3463 H 0.38376 0.95391 0.25052 0.0
H3464 H 0.40013 0.96446 0.1805 0.0
H3465 H 0.42114 0.9822 0.19659 0.0
C3466 C 0.43933 0.06134 0.24313 0.0
C3467 C 0.44149 0.06446 0.219 0.0
C3468 C 0.43813 0.04553 0.25134 0.0
C3469 C 0.4392 0.03253 0.23561 0.0
C3470 C 0.44085 0.03566 0.21144 0.0
C3471 C 0.44202 0.05144 0.20323 0.0
C3472 C 0.43912 0.01567 0.24431 0.0
C3473 C 0.42784 0.00484 0.23505 0.0
C3474 C 0.4501 0.01024 0.2616 0.0
C3475 C 0.46291 0.02075 0.27113 0.0
C3476 C 0.47405 0.0281 0.25596 0.0
C3477 C 0.48603 0.03807 0.26506 0.0
C3478 C 0.48708 0.04068 0.28932 0.0
C3479 C 0.47618 0.03328 0.30454 0.0
C3480 C 0.46416 0.02332 0.29553 0.0
C3481 C 0.44219 0.93788 0.25888 0.0
C3482 C 0.44226 0.93415 0.28304 0.0
C3483 C 0.44061 0.9538 0.25133 0.0
C3484 C 0.43891 0.96631 0.26777 0.0
C3485 C 0.43866 0.96256 0.29187 0.0
C3486 C 0.44031 0.94667 0.29943 0.0
C3487 C 0.43819 0.98338 0.25997 0.0
C3488 C 0.44938 0.99425 0.26934 0.0
C3489 C 0.42716 0.98881 0.24276 0.0
C3490 C 0.4145 0.97819 0.23303 0.0
C3491 C 0.40378 0.97017 0.2481 0.0
C3492 C 0.39195 0.96009 0.23882 0.0
C3493 C 0.39065 0.95802 0.21448 0.0
C3494 C 0.40116 0.96606 0.19936 0.0
C3495 C 0.41301 0.97614 0.20855 0.0
H3496 H 0.38149 0.95021 0.20733 0.0
H3497 H 0.49637 0.0484 0.29633 0.0
H3498 H 0.82233 0.69347 0.9952 0.0
H3499 H 0.7948 0.69144 0.98044 0.0
H3500 H 0.77691 0.69217 0.05171 0.0
H3501 H 0.80436 0.69397 0.06659 0.0
H3502 H 0.76072 0.67062 0.02557 0.0
H3503 H 0.77639 0.72592 0.01788 0.0
H3504 H 0.79356 0.74834 0.00486 0.0
H3505 H 0.78598 0.735 0.93266 0.0
H3506 H 0.76894 0.71236 0.94528 0.0
H3507 H 0.67964 0.69357 0.00258 0.0
H3508 H 0.7074 0.6914 0.01631 0.0
H3509 H 0.72406 0.6923 0.94439 0.0
H3510 H 0.69642 0.69478 0.93059 0.0
H3511 H 0.7411 0.71229 0.97021 0.0
H3512 H 0.72446 0.65745 0.97799 0.0
H3513 H 0.70715 0.63522 0.99129 0.0
H3514 H 0.71631 0.64776 0.0634 0.0
H3515 H 0.73351 0.67021 0.05053 0.0
C3516 C 0.81255 0.69306 0.00774 0.0
C3517 C 0.81556 0.69397 0.03208 0.0
C3518 C 0.79681 0.69197 0.99927 0.0
C3519 C 0.78375 0.69187 0.01495 0.0
C3520 C 0.78677 0.69225 0.03926 0.0
C3521 C 0.80249 0.69332 0.04774 0.0
C3522 C 0.76694 0.6919 0.00608 0.0
C3523 C 0.75638 0.67982 0.01364 0.0
C3524 C 0.76132 0.70372 0.99017 0.0
C3525 C 0.77153 0.71735 0.98254 0.0
C3526 C 0.77849 0.7277 0.99924 0.0
C3527 C 0.78818 0.74045 0.99193 0.0
C3528 C 0.7909 0.74306 0.96795 0.0
C3529 C 0.78389 0.73295 0.95123 0.0
C3530 C 0.77421 0.72016 0.95845 0.0
C3531 C 0.68921 0.69315 0.98968 0.0
C3532 C 0.6858 0.69435 0.96548 0.0
C3533 C 0.70508 0.69185 0.99755 0.0
C3534 C 0.71787 0.69156 0.98139 0.0
C3535 C 0.71444 0.69252 0.95722 0.0
C3536 C 0.6986 0.69388 0.94935 0.0
C3537 C 0.73483 0.69098 0.98962 0.0
C3538 C 0.74543 0.70301 0.98201 0.0
C3539 C 0.74045 0.67912 0.0055 0.0
C3540 C 0.73015 0.6656 0.01329 0.0
C3541 C 0.72268 0.65555 0.99668 0.0
C3542 C 0.71291 0.64289 0.00414 0.0
C3543 C 0.7106 0.64011 0.02817 0.0
C3544 C 0.7181 0.64994 0.04479 0.0
C3545 C 0.72787 0.66262 0.03743 0.0
H3546 H 0.70303 0.6303 0.03391 0.0
H3547 H 0.7984 0.75295 0.96232 0.0
H3548 H 0.06308 0.05786 0.81855 0.0
H3549 H 0.06614 0.03017 0.80512 0.0
H3550 H 0.05969 0.04558 0.7332 0.0
H3551 H 0.05695 0.07337 0.74648 0.0
H3552 H 0.04514 0.01156 0.78392 0.0
H3553 H 0.07896 0.02037 0.6957 0.0
H3554 H 0.0991 0.03853 0.67828 0.0
H3555 H 0.11755 0.04918 0.74715 0.0
H3556 H 0.09768 0.03092 0.76495 0.0
H3557 H 0.05673 0.94914 0.68438 0.0
H3558 H 0.05873 0.9766 0.69916 0.0
H3559 H 0.06724 0.95856 0.76926 0.0
H3560 H 0.06506 0.93098 0.75462 0.0
H3561 H 0.08205 0.99353 0.72068 0.0
H3562 H 0.04894 0.98376 0.80875 0.0
H3563 H 0.02857 0.96576 0.826 0.0
H3564 H 0.0086 0.9574 0.75737 0.0
H3565 H 0.02871 0.9755 0.73977 0.0
C3566 C 0.06251 0.0554 0.79984 0.0
C3567 C 0.05979 0.06785 0.78359 0.0
C3568 C 0.06421 0.03953 0.79219 0.0
C3569 C 0.06326 0.03574 0.76813 0.0
C3570 C 0.06076 0.0482 0.75183 0.0
C3571 C 0.05914 0.0641 0.75946 0.0
C3572 C 0.06406 0.0187 0.76026 0.0
C3573 C 0.05343 0.00758 0.77038 0.0
C3574 C 0.07459 0.01352 0.7422 0.0
C3575 C 0.08672 0.02439 0.73166 0.0
C3576 C 0.08736 0.02654 0.70712 0.0
C3577 C 0.09872 0.03686 0.69718 0.0
C3578 C 0.10956 0.04504 0.7116 0.0
C3579 C 0.10911 0.04288 0.736 0.0
C3580 C 0.09778 0.03256 0.74602 0.0
C3581 C 0.05912 0.95098 0.70293 0.0
C3582 C 0.06064 0.93784 0.71835 0.0
C3583 C 0.06031 0.96671 0.71134 0.0
C3584 C 0.06296 0.96967 0.73536 0.0
C3585 C 0.06496 0.95658 0.7507 0.0
C3586 C 0.06378 0.94082 0.74229 0.0
C3587 C 0.06313 0.98646 0.74433 0.0
C3588 C 0.07389 0.99752 0.73437 0.0
C3589 C 0.05272 0.99161 0.76253 0.0
C3590 C 0.04046 0.98083 0.77294 0.0
C3591 C 0.04017 0.97811 0.79736 0.0
C3592 C 0.02868 0.96789 0.80719 0.0
C3593 C 0.01734 0.96039 0.79277 0.0
C3594 C 0.01744 0.96315 0.7685 0.0
C3595 C 0.02889 0.97337 0.75859 0.0
H3596 H 0.00845 0.95248 0.80042 0.0
H3597 H 0.11834 0.05304 0.70388 0.0
H3598 H 0.68061 0.31568 0.49932 0.0
H3599 H 0.70811 0.31786 0.48447 0.0
H3600 H 0.72631 0.3131 0.55525 0.0
H3601 H 0.69892 0.31118 0.57023 0.0
H3602 H 0.74287 0.33546 0.53165 0.0
H3603 H 0.7258 0.28114 0.51741 0.0
H3604 H 0.70806 0.25998 0.50179 0.0
H3605 H 0.7159 0.27715 0.43142 0.0
H3606 H 0.73352 0.29857 0.44667 0.0
H3607 H 0.82315 0.31094 0.50672 0.0
H3608 H 0.7954 0.31341 0.52033 0.0
H3609 H 0.77928 0.31739 0.44836 0.0
H3610 H 0.80692 0.31466 0.43463 0.0
H3611 H 0.76141 0.29643 0.47153 0.0
H3612 H 0.77974 0.35008 0.48592 0.0
H3613 H 0.79768 0.37094 0.5019 0.0
H3614 H 0.78777 0.35483 0.57225 0.0
H3615 H 0.76992 0.33372 0.55666 0.0
C3616 C 0.69046 0.31524 0.51174 0.0
C3617 C 0.68756 0.31317 0.53595 0.0
C3618 C 0.70619 0.31641 0.50322 0.0
C3619 C 0.71931 0.31542 0.51871 0.0
C3620 C 0.71641 0.31387 0.54295 0.0
C3621 C 0.70071 0.31273 0.55148 0.0
C3622 C 0.73609 0.3155 0.5097 0.0
C3623 C 0.74697 0.32684 0.51866 0.0
C3624 C 0.74139 0.30445 0.49242 0.0
C3625 C 0.73083 0.29156 0.48321 0.0
C3626 C 0.72364 0.28048 0.49862 0.0
C3627 C 0.71362 0.26843 0.48983 0.0
C3628 C 0.71081 0.26725 0.46563 0.0
C3629 C 0.71806 0.2781 0.45017 0.0
C3630 C 0.72807 0.29019 0.45887 0.0
C3631 C 0.81372 0.31251 0.4938 0.0
C3632 C 0.81727 0.3126 0.46958 0.0
C3633 C 0.79784 0.31397 0.50161 0.0
C3634 C 0.78522 0.3157 0.48538 0.0
C3635 C 0.78879 0.31606 0.46122 0.0
C3636 C 0.80463 0.31455 0.45341 0.0
C3637 C 0.76823 0.31641 0.49347 0.0
C3638 C 0.75731 0.30516 0.48438 0.0
C3639 C 0.76292 0.32751 0.51067 0.0
C3640 C 0.77361 0.34023 0.5201 0.0
C3641 C 0.78148 0.3509 0.50479 0.0
C3642 C 0.79162 0.36279 0.51378 0.0
C3643 C 0.7939 0.36418 0.53807 0.0
C3644 C 0.78601 0.35372 0.55343 0.0
C3645 C 0.77586 0.34181 0.54453 0.0
H3646 H 0.80175 0.37339 0.545 0.0
H3647 H 0.70306 0.25791 0.45886 0.0
loop_
_geom_bond_atom_site_label_1
_geom_bond_atom_site_label_2
_geom_bond_distance
_geom_bond_site_symmetry_2
_ccdc_geom_bond_type
O0 Cd1 2.223 . S
O0 C8 1.315 . S
Cd1 O0 2.223 . S
Cd1 O4 2.297 . S
Cd1 O5 2.439 . S
Cd1 O11 2.240 . S
Cd2 O3 2.240 . S
Cd2 O10 2.223 . S
Cd2 O12 2.297 . S
Cd2 O13 2.439 . S
O3 Cd2 2.240 . S
O3 C8 1.279 . S
O4 Cd1 2.297 . S
O4 C6 1.247 . S
O5 Cd1 2.439 . S
O5 C6 1.208 . S
C6 O4 1.247 . S
C6 O5 1.208 . S
C7 O12 1.247 . S
C7 O13 1.208 . S
C8 O0 1.315 . S
C8 O3 1.279 . S
C9 O10 1.315 . S
C9 O11 1.279 . S
O10 Cd2 2.223 . S
O10 C9 1.315 . S
O11 Cd1 2.240 . S
O11 C9 1.279 . S
O12 Cd2 2.297 . S
O12 C7 1.247 . S
O13 Cd2 2.439 . S
O13 C7 1.208 . S
O14 Cd15 2.223 . S
O14 C22 1.315 . S
Cd15 O14 2.223 . S
Cd15 O18 2.297 . S
Cd15 O19 2.439 . S
Cd15 O25 2.240 . S
Cd16 O17 2.240 . S
Cd16 O24 2.223 . S
Cd16 O26 2.297 . S
Cd16 O27 2.439 . S
O17 Cd16 2.240 . S
O17 C22 1.279 . S
O18 Cd15 2.297 . S
O18 C20 1.247 . S
O19 Cd15 2.439 . S
O19 C20 1.208 . S
C20 O18 1.247 . S
C20 O19 1.208 . S
C21 O26 1.247 . S
C21 O27 1.208 . S
C22 O14 1.315 . S
C22 O17 1.279 . S
C23 O24 1.315 . S
C23 O25 1.279 . S
O24 Cd16 2.223 . S
O24 C23 1.315 . S
O25 Cd15 2.240 . S
O25 C23 1.279 . S
O26 Cd16 2.297 . S
O26 C21 1.247 . S
O27 Cd16 2.439 . S
O27 C21 1.208 . S
O28 Cd29 2.223 . S
O28 C36 1.315 . S
Cd29 O28 2.223 . S
Cd29 O32 2.297 . S
Cd29 O33 2.439 . S
Cd29 O39 2.240 . S
Cd30 O31 2.240 . S
Cd30 O38 2.223 . S
Cd30 O40 2.297 . S
Cd30 O41 2.439 . S
O31 Cd30 2.240 . S
O31 C36 1.279 . S
O32 Cd29 2.297 . S
O32 C34 1.247 . S
O33 Cd29 2.439 . S
O33 C34 1.208 . S
C34 O32 1.247 . S
C34 O33 1.208 . S
C35 O40 1.247 . S
C35 O41 1.208 . S
C36 O28 1.315 . S
C36 O31 1.279 . S
C37 O38 1.315 . S
C37 O39 1.279 . S
O38 Cd30 2.223 . S
O38 C37 1.315 . S
O39 Cd29 2.240 . S
O39 C37 1.279 . S
O40 Cd30 2.297 . S
O40 C35 1.247 . S
O41 Cd30 2.439 . S
O41 C35 1.208 . S
O42 Cd43 2.223 . S
O42 C50 1.315 . S
Cd43 O42 2.223 . S
Cd43 O46 2.297 . S
Cd43 O47 2.439 . S
Cd43 O53 2.240 . S
Cd44 O45 2.240 . S
Cd44 O52 2.223 . S
Cd44 O54 2.297 1_554 S
Cd44 O55 2.439 1_554 S
O45 Cd44 2.240 . S
O45 C50 1.279 . S
O46 Cd43 2.297 . S
O46 C48 1.247 . S
O47 Cd43 2.439 . S
O47 C48 1.208 . S
C48 O46 1.247 . S
C48 O47 1.208 . S
C49 O54 1.247 . S
C49 O55 1.208 . S
C50 O42 1.315 . S
C50 O45 1.279 . S
C51 O52 1.315 . S
C51 O53 1.279 . S
O52 Cd44 2.223 . S
O52 C51 1.315 . S
O53 Cd43 2.240 . S
O53 C51 1.279 . S
O54 Cd44 2.297 1_556 S
O54 C49 1.247 . S
O55 Cd44 2.439 1_556 S
O55 C49 1.208 . S
O56 Cd57 2.223 . S
O56 C64 1.315 . S
Cd57 O56 2.223 . S
Cd57 O60 2.297 . S
Cd57 O61 2.439 . S
Cd57 O67 2.240 . S
Cd58 O59 2.240 . S
Cd58 O66 2.223 . S
Cd58 O68 2.297 . S
Cd58 O69 2.439 . S
O59 Cd58 2.240 . S
O59 C64 1.279 . S
O60 Cd57 2.297 . S
O60 C62 1.247 . S
O61 Cd57 2.439 . S
O61 C62 1.208 . S
C62 O60 1.247 . S
C62 O61 1.208 . S
C63 O68 1.247 . S
C63 O69 1.208 . S
C64 O56 1.315 . S
C64 O59 1.279 . S
C65 O66 1.315 . S
C65 O67 1.279 . S
O66 Cd58 2.223 . S
O66 C65 1.315 . S
O67 Cd57 2.240 . S
O67 C65 1.279 . S
O68 Cd58 2.297 . S
O68 C63 1.247 . S
O69 Cd58 2.439 . S
O69 C63 1.208 . S
O70 Cd71 2.223 . S
O70 C78 1.315 . S
Cd71 O70 2.223 . S
Cd71 O74 2.297 . S
Cd71 O75 2.439 . S
Cd71 O81 2.240 . S
Cd72 O73 2.240 . S
Cd72 O80 2.223 . S
Cd72 O82 2.297 . S
Cd72 O83 2.439 . S
O73 Cd72 2.240 . S
O73 C78 1.279 . S
O74 Cd71 2.297 . S
O74 C76 1.247 . S
O75 Cd71 2.439 . S
O75 C76 1.208 . S
C76 O74 1.247 . S
C76 O75 1.208 . S
C77 O82 1.247 . S
C77 O83 1.208 . S
C78 O70 1.315 . S
C78 O73 1.279 . S
C79 O80 1.315 . S
C79 O81 1.279 . S
O80 Cd72 2.223 . S
O80 C79 1.315 . S
O81 Cd71 2.240 . S
O81 C79 1.279 . S
O82 Cd72 2.297 . S
O82 C77 1.247 . S
O83 Cd72 2.439 . S
O83 C77 1.208 . S
O84 Cd85 2.223 . S
O84 C92 1.315 . S
Cd85 O84 2.223 . S
Cd85 O88 2.297 . S
Cd85 O89 2.439 . S
Cd85 O95 2.240 . S
Cd86 O87 2.240 . S
Cd86 O94 2.223 . S
Cd86 O96 2.297 . S
Cd86 O97 2.439 . S
O87 Cd86 2.240 . S
O87 C92 1.279 . S
O88 Cd85 2.297 . S
O88 C90 1.247 . S
O89 Cd85 2.439 . S
O89 C90 1.208 . S
C90 O88 1.247 . S
C90 O89 1.208 . S
C91 O96 1.247 . S
C91 O97 1.208 . S
C92 O84 1.315 . S
C92 O87 1.279 . S
C93 O94 1.315 . S
C93 O95 1.279 . S
O94 Cd86 2.223 . S
O94 C93 1.315 . S
O95 Cd85 2.240 . S
O95 C93 1.279 . S
O96 Cd86 2.297 . S
O96 C91 1.247 . S
O97 Cd86 2.439 . S
O97 C91 1.208 . S
O98 Cd99 2.223 . S
O98 C106 1.315 . S
Cd99 O98 2.223 . S
Cd99 O102 2.297 . S
Cd99 O103 2.439 . S
Cd99 O109 2.240 . S
Cd100 O101 2.240 . S
Cd100 O108 2.223 . S
Cd100 O110 2.297 1_556 S
Cd100 O111 2.439 1_556 S
O101 Cd100 2.240 . S
O101 C106 1.279 . S
O102 Cd99 2.297 . S
O102 C104 1.247 . S
O103 Cd99 2.439 . S
O103 C104 1.208 . S
C104 O102 1.247 . S
C104 O103 1.208 . S
C105 O110 1.247 . S
C105 O111 1.208 . S
C106 O98 1.315 . S
C106 O101 1.279 . S
C107 O108 1.315 . S
C107 O109 1.279 . S
O108 Cd100 2.223 . S
O108 C107 1.315 . S
O109 Cd99 2.240 . S
O109 C107 1.279 . S
O110 Cd100 2.297 1_554 S
O110 C105 1.247 . S
O111 Cd100 2.439 1_554 S
O111 C105 1.208 . S
O112 Cd113 2.223 . S
O112 C120 1.315 . S
Cd113 O112 2.223 . S
Cd113 O116 2.297 . S
Cd113 O117 2.439 . S
Cd113 O123 2.240 . S
Cd114 O115 2.240 . S
Cd114 O122 2.223 . S
Cd114 O124 2.297 . S
Cd114 O125 2.439 . S
O115 Cd114 2.240 . S
O115 C120 1.279 . S
O116 Cd113 2.297 . S
O116 C118 1.247 . S
O117 Cd113 2.439 . S
O117 C118 1.208 . S
C118 O116 1.247 . S
C118 O117 1.208 . S
C119 O124 1.247 . S
C119 O125 1.208 . S
C120 O112 1.315 . S
C120 O115 1.279 . S
C121 O122 1.315 . S
C121 O123 1.279 . S
O122 Cd114 2.223 . S
O122 C121 1.315 . S
O123 Cd113 2.240 . S
O123 C121 1.279 . S
O124 Cd114 2.297 . S
O124 C119 1.247 . S
O125 Cd114 2.439 . S
O125 C119 1.208 . S
O126 Cd127 2.223 . S
O126 C134 1.315 . S
Cd127 O126 2.223 . S
Cd127 O130 2.297 . S
Cd127 O131 2.439 . S
Cd127 O137 2.240 . S
Cd128 O129 2.240 . S
Cd128 O136 2.223 . S
Cd128 O138 2.297 . S
Cd128 O139 2.439 . S
O129 Cd128 2.240 . S
O129 C134 1.279 . S
O130 Cd127 2.297 . S
O130 C132 1.247 . S
O131 Cd127 2.439 . S
O131 C132 1.208 . S
C132 O130 1.247 . S
C132 O131 1.208 . S
C133 O138 1.247 . S
C133 O139 1.208 . S
C134 O126 1.315 . S
C134 O129 1.279 . S
C135 O136 1.315 . S
C135 O137 1.279 . S
O136 Cd128 2.223 . S
O136 C135 1.315 . S
O137 Cd127 2.240 . S
O137 C135 1.279 . S
O138 Cd128 2.297 . S
O138 C133 1.247 . S
O139 Cd128 2.439 . S
O139 C133 1.208 . S
O140 Cd141 2.223 . S
O140 C148 1.315 . S
Cd141 O140 2.223 . S
Cd141 O144 2.297 . S
Cd141 O145 2.439 . S
Cd141 O151 2.240 . S
Cd142 O143 2.240 . S
Cd142 O150 2.223 . S
Cd142 O152 2.297 . S
Cd142 O153 2.439 . S
O143 Cd142 2.240 . S
O143 C148 1.279 . S
O144 Cd141 2.297 . S
O144 C146 1.247 . S
O145 Cd141 2.439 . S
O145 C146 1.208 . S
C146 O144 1.247 . S
C146 O145 1.208 . S
C147 O152 1.247 . S
C147 O153 1.208 . S
C148 O140 1.315 . S
C148 O143 1.279 . S
C149 O150 1.315 . S
C149 O151 1.279 . S
O150 Cd142 2.223 . S
O150 C149 1.315 . S
O151 Cd141 2.240 . S
O151 C149 1.279 . S
O152 Cd142 2.297 . S
O152 C147 1.247 . S
O153 Cd142 2.439 . S
O153 C147 1.208 . S
O154 Cd155 2.223 . S
O154 C162 1.315 . S
Cd155 O154 2.223 . S
Cd155 O158 2.297 . S
Cd155 O159 2.439 . S
Cd155 O165 2.240 . S
Cd156 O157 2.240 . S
Cd156 O164 2.223 . S
Cd156 O166 2.297 1_556 S
Cd156 O167 2.439 1_556 S
O157 Cd156 2.240 . S
O157 C162 1.279 . S
O158 Cd155 2.297 . S
O158 C160 1.247 . S
O159 Cd155 2.439 . S
O159 C160 1.208 . S
C160 O158 1.247 . S
C160 O159 1.208 . S
C161 O166 1.247 . S
C161 O167 1.208 . S
C162 O154 1.315 . S
C162 O157 1.279 . S
C163 O164 1.315 . S
C163 O165 1.279 . S
O164 Cd156 2.223 . S
O164 C163 1.315 . S
O165 Cd155 2.240 . S
O165 C163 1.279 . S
O166 Cd156 2.297 1_554 S
O166 C161 1.247 . S
O167 Cd156 2.439 1_554 S
O167 C161 1.208 . S
O168 Cd169 2.223 . S
O168 C176 1.315 . S
Cd169 O168 2.223 . S
Cd169 O172 2.297 . S
Cd169 O173 2.439 . S
Cd169 O179 2.240 . S
Cd170 O171 2.240 . S
Cd170 O178 2.223 . S
Cd170 O180 2.297 . S
Cd170 O181 2.439 . S
O171 Cd170 2.240 . S
O171 C176 1.279 . S
O172 Cd169 2.297 . S
O172 C174 1.247 . S
O173 Cd169 2.439 . S
O173 C174 1.208 . S
C174 O172 1.247 . S
C174 O173 1.208 . S
C175 O180 1.247 . S
C175 O181 1.208 . S
C176 O168 1.315 . S
C176 O171 1.279 . S
C177 O178 1.315 . S
C177 O179 1.279 . S
O178 Cd170 2.223 . S
O178 C177 1.315 . S
O179 Cd169 2.240 . S
O179 C177 1.279 . S
O180 Cd170 2.297 . S
O180 C175 1.247 . S
O181 Cd170 2.439 . S
O181 C175 1.208 . S
O182 Cd183 2.223 . S
O182 C190 1.315 . S
Cd183 O182 2.223 . S
Cd183 O186 2.297 . S
Cd183 O187 2.439 . S
Cd183 O193 2.240 . S
Cd184 O185 2.240 . S
Cd184 O192 2.223 . S
Cd184 O194 2.297 . S
Cd184 O195 2.439 . S
O185 Cd184 2.240 . S
O185 C190 1.279 . S
O186 Cd183 2.297 . S
O186 C188 1.247 . S
O187 Cd183 2.439 . S
O187 C188 1.208 . S
C188 O186 1.247 . S
C188 O187 1.208 . S
C189 O194 1.247 . S
C189 O195 1.208 . S
C190 O182 1.315 . S
C190 O185 1.279 . S
C191 O192 1.315 . S
C191 O193 1.279 . S
O192 Cd184 2.223 . S
O192 C191 1.315 . S
O193 Cd183 2.240 . S
O193 C191 1.279 . S
O194 Cd184 2.297 . S
O194 C189 1.247 . S
O195 Cd184 2.439 . S
O195 C189 1.208 . S
O196 Cd197 2.223 . S
O196 C204 1.315 . S
Cd197 O196 2.223 . S
Cd197 O200 2.297 . S
Cd197 O201 2.439 . S
Cd197 O207 2.240 . S
Cd198 O199 2.240 . S
Cd198 O206 2.223 . S
Cd198 O208 2.297 . S
Cd198 O209 2.439 . S
O199 Cd198 2.240 . S
O199 C204 1.279 . S
O200 Cd197 2.297 . S
O200 C202 1.247 . S
O201 Cd197 2.439 . S
O201 C202 1.208 . S
C202 O200 1.247 . S
C202 O201 1.208 . S
C203 O208 1.247 . S
C203 O209 1.208 . S
C204 O196 1.315 . S
C204 O199 1.279 . S
C205 O206 1.315 . S
C205 O207 1.279 . S
O206 Cd198 2.223 . S
O206 C205 1.315 . S
O207 Cd197 2.240 . S
O207 C205 1.279 . S
O208 Cd198 2.297 . S
O208 C203 1.247 . S
O209 Cd198 2.439 . S
O209 C203 1.208 . S
O210 Cd211 2.223 . S
O210 C218 1.315 . S
Cd211 O210 2.223 . S
Cd211 O214 2.297 . S
Cd211 O215 2.439 . S
Cd211 O221 2.240 . S
Cd212 O213 2.240 . S
Cd212 O220 2.223 . S
Cd212 O222 2.297 1_554 S
Cd212 O223 2.439 1_554 S
O213 Cd212 2.240 . S
O213 C218 1.279 . S
O214 Cd211 2.297 . S
O214 C216 1.247 . S
O215 Cd211 2.439 . S
O215 C216 1.208 . S
C216 O214 1.247 . S
C216 O215 1.208 . S
C217 O222 1.247 . S
C217 O223 1.208 . S
C218 O210 1.315 . S
C218 O213 1.279 . S
C219 O220 1.315 . S
C219 O221 1.279 . S
O220 Cd212 2.223 . S
O220 C219 1.315 . S
O221 Cd211 2.240 . S
O221 C219 1.279 . S
O222 Cd212 2.297 1_556 S
O222 C217 1.247 . S
O223 Cd212 2.439 1_556 S
O223 C217 1.208 . S
O224 Cd225 2.223 . S
O224 C232 1.315 . S
Cd225 O224 2.223 . S
Cd225 O228 2.297 . S
Cd225 O229 2.439 . S
Cd225 O235 2.240 . S
Cd226 O227 2.240 . S
Cd226 O234 2.223 . S
Cd226 O236 2.297 . S
Cd226 O237 2.439 . S
O227 Cd226 2.240 . S
O227 C232 1.279 . S
O228 Cd225 2.297 . S
O228 C230 1.247 . S
O229 Cd225 2.439 . S
O229 C230 1.208 . S
C230 O228 1.247 . S
C230 O229 1.208 . S
C231 O236 1.247 . S
C231 O237 1.208 . S
C232 O224 1.315 . S
C232 O227 1.279 . S
C233 O234 1.315 . S
C233 O235 1.279 . S
O234 Cd226 2.223 . S
O234 C233 1.315 . S
O235 Cd225 2.240 . S
O235 C233 1.279 . S
O236 Cd226 2.297 . S
O236 C231 1.247 . S
O237 Cd226 2.439 . S
O237 C231 1.208 . S
O238 Cd239 2.223 . S
O238 C246 1.315 . S
Cd239 O238 2.223 . S
Cd239 O242 2.297 . S
Cd239 O243 2.439 . S
Cd239 O249 2.240 . S
Cd240 O241 2.240 . S
Cd240 O248 2.223 . S
Cd240 O250 2.297 1_554 S
Cd240 O251 2.439 1_554 S
O241 Cd240 2.240 . S
O241 C246 1.279 . S
O242 Cd239 2.297 . S
O242 C244 1.247 . S
O243 Cd239 2.439 . S
O243 C244 1.208 . S
C244 O242 1.247 . S
C244 O243 1.208 . S
C245 O250 1.247 . S
C245 O251 1.208 . S
C246 O238 1.315 . S
C246 O241 1.279 . S
C247 O248 1.315 . S
C247 O249 1.279 . S
O248 Cd240 2.223 . S
O248 C247 1.315 . S
O249 Cd239 2.240 . S
O249 C247 1.279 . S
O250 Cd240 2.297 1_556 S
O250 C245 1.247 . S
O251 Cd240 2.439 1_556 S
O251 C245 1.208 . S
O252 Cd253 2.223 . S
O252 C260 1.315 . S
Cd253 O252 2.223 . S
Cd253 O256 2.297 . S
Cd253 O257 2.439 . S
Cd253 O263 2.240 . S
Cd254 O255 2.240 . S
Cd254 O262 2.223 . S
Cd254 O264 2.297 . S
Cd254 O265 2.439 . S
O255 Cd254 2.240 . S
O255 C260 1.279 . S
O256 Cd253 2.297 . S
O256 C258 1.247 . S
O257 Cd253 2.439 . S
O257 C258 1.208 . S
C258 O256 1.247 . S
C258 O257 1.208 . S
C259 O264 1.247 . S
C259 O265 1.208 . S
C260 O252 1.315 . S
C260 O255 1.279 . S
C261 O262 1.315 . S
C261 O263 1.279 . S
O262 Cd254 2.223 . S
O262 C261 1.315 . S
O263 Cd253 2.240 . S
O263 C261 1.279 . S
O264 Cd254 2.297 . S
O264 C259 1.247 . S
O265 Cd254 2.439 . S
O265 C259 1.208 . S
O266 Cd267 2.223 . S
O266 C274 1.315 . S
Cd267 O266 2.223 . S
Cd267 O270 2.297 . S
Cd267 O271 2.439 . S
Cd267 O277 2.240 . S
Cd268 O269 2.240 . S
Cd268 O276 2.223 . S
Cd268 O278 2.297 . S
Cd268 O279 2.439 . S
O269 Cd268 2.240 . S
O269 C274 1.279 . S
O270 Cd267 2.297 . S
O270 C272 1.247 . S
O271 Cd267 2.439 . S
O271 C272 1.208 . S
C272 O270 1.247 . S
C272 O271 1.208 . S
C273 O278 1.247 . S
C273 O279 1.208 . S
C274 O266 1.315 . S
C274 O269 1.279 . S
C275 O276 1.315 . S
C275 O277 1.279 . S
O276 Cd268 2.223 . S
O276 C275 1.315 . S
O277 Cd267 2.240 . S
O277 C275 1.279 . S
O278 Cd268 2.297 . S
O278 C273 1.247 . S
O279 Cd268 2.439 . S
O279 C273 1.208 . S
O280 Cd281 2.223 . S
O280 C288 1.315 . S
Cd281 O280 2.223 . S
Cd281 O284 2.297 . S
Cd281 O285 2.439 . S
Cd281 O291 2.240 . S
Cd282 O283 2.240 . S
Cd282 O290 2.223 . S
Cd282 O292 2.297 . S
Cd282 O293 2.439 . S
O283 Cd282 2.240 . S
O283 C288 1.279 . S
O284 Cd281 2.297 . S
O284 C286 1.247 . S
O285 Cd281 2.439 . S
O285 C286 1.208 . S
C286 O284 1.247 . S
C286 O285 1.208 . S
C287 O292 1.247 . S
C287 O293 1.208 . S
C288 O280 1.315 . S
C288 O283 1.279 . S
C289 O290 1.315 . S
C289 O291 1.279 . S
O290 Cd282 2.223 . S
O290 C289 1.315 . S
O291 Cd281 2.240 . S
O291 C289 1.279 . S
O292 Cd282 2.297 . S
O292 C287 1.247 . S
O293 Cd282 2.439 . S
O293 C287 1.208 . S
O294 Cd295 2.223 . S
O294 C302 1.315 . S
Cd295 O294 2.223 . S
Cd295 O298 2.297 . S
Cd295 O299 2.439 . S
Cd295 O305 2.240 . S
Cd296 O297 2.240 . S
Cd296 O304 2.223 . S
Cd296 O306 2.297 1_556 S
Cd296 O307 2.439 1_556 S
O297 Cd296 2.240 . S
O297 C302 1.279 . S
O298 Cd295 2.297 . S
O298 C300 1.247 . S
O299 Cd295 2.439 . S
O299 C300 1.208 . S
C300 O298 1.247 . S
C300 O299 1.208 . S
C301 O306 1.247 . S
C301 O307 1.208 . S
C302 O294 1.315 . S
C302 O297 1.279 . S
C303 O304 1.315 . S
C303 O305 1.279 . S
O304 Cd296 2.223 . S
O304 C303 1.315 . S
O305 Cd295 2.240 . S
O305 C303 1.279 . S
O306 Cd296 2.297 1_554 S
O306 C301 1.247 . S
O307 Cd296 2.439 1_554 S
O307 C301 1.208 . S
O308 Cd309 2.223 . S
O308 C316 1.315 . S
Cd309 O308 2.223 . S
Cd309 O312 2.297 . S
Cd309 O313 2.439 . S
Cd309 O319 2.240 . S
Cd310 O311 2.240 . S
Cd310 O318 2.223 . S
Cd310 O320 2.297 . S
Cd310 O321 2.439 . S
O311 Cd310 2.240 . S
O311 C316 1.279 . S
O312 Cd309 2.297 . S
O312 C314 1.247 . S
O313 Cd309 2.439 . S
O313 C314 1.208 . S
C314 O312 1.247 . S
C314 O313 1.208 . S
C315 O320 1.247 . S
C315 O321 1.208 . S
C316 O308 1.315 . S
C316 O311 1.279 . S
C317 O318 1.315 . S
C317 O319 1.279 . S
O318 Cd310 2.223 . S
O318 C317 1.315 . S
O319 Cd309 2.240 . S
O319 C317 1.279 . S
O320 Cd310 2.297 . S
O320 C315 1.247 . S
O321 Cd310 2.439 . S
O321 C315 1.208 . S
O322 Cd323 2.223 . S
O322 C330 1.315 . S
Cd323 O322 2.223 . S
Cd323 O326 2.297 . S
Cd323 O327 2.439 . S
Cd323 O333 2.240 . S
Cd324 O325 2.240 . S
Cd324 O332 2.223 . S
Cd324 O334 2.297 . S
Cd324 O335 2.439 . S
O325 Cd324 2.240 . S
O325 C330 1.279 . S
O326 Cd323 2.297 . S
O326 C328 1.247 . S
O327 Cd323 2.439 . S
O327 C328 1.208 . S
C328 O326 1.247 . S
C328 O327 1.208 . S
C329 O334 1.247 . S
C329 O335 1.208 . S
C330 O322 1.315 . S
C330 O325 1.279 . S
C331 O332 1.315 . S
C331 O333 1.279 . S
O332 Cd324 2.223 . S
O332 C331 1.315 . S
O333 Cd323 2.240 . S
O333 C331 1.279 . S
O334 Cd324 2.297 . S
O334 C329 1.247 . S
O335 Cd324 2.439 . S
O335 C329 1.208 . S
O336 Cd337 2.223 . S
O336 C344 1.315 . S
Cd337 O336 2.223 . S
Cd337 O340 2.297 . S
Cd337 O341 2.439 . S
Cd337 O347 2.240 . S
Cd338 O339 2.240 . S
Cd338 O346 2.223 . S
Cd338 O348 2.297 . S
Cd338 O349 2.439 . S
O339 Cd338 2.240 . S
O339 C344 1.279 . S
O340 Cd337 2.297 . S
O340 C342 1.247 . S
O341 Cd337 2.439 . S
O341 C342 1.208 . S
C342 O340 1.247 . S
C342 O341 1.208 . S
C343 O348 1.247 . S
C343 O349 1.208 . S
C344 O336 1.315 . S
C344 O339 1.279 . S
C345 O346 1.315 . S
C345 O347 1.279 . S
O346 Cd338 2.223 . S
O346 C345 1.315 . S
O347 Cd337 2.240 . S
O347 C345 1.279 . S
O348 Cd338 2.297 . S
O348 C343 1.247 . S
O349 Cd338 2.439 . S
O349 C343 1.208 . S
O350 Cd351 2.223 . S
O350 C358 1.315 . S
Cd351 O350 2.223 . S
Cd351 O354 2.297 . S
Cd351 O355 2.439 . S
Cd351 O361 2.240 . S
Cd352 O353 2.240 . S
Cd352 O360 2.223 . S
Cd352 O362 2.297 1_556 S
Cd352 O363 2.439 1_556 S
O353 Cd352 2.240 . S
O353 C358 1.279 . S
O354 Cd351 2.297 . S
O354 C356 1.247 . S
O355 Cd351 2.439 . S
O355 C356 1.208 . S
C356 O354 1.247 . S
C356 O355 1.208 . S
C357 O362 1.247 . S
C357 O363 1.208 . S
C358 O350 1.315 . S
C358 O353 1.279 . S
C359 O360 1.315 . S
C359 O361 1.279 . S
O360 Cd352 2.223 . S
O360 C359 1.315 . S
O361 Cd351 2.240 . S
O361 C359 1.279 . S
O362 Cd352 2.297 1_554 S
O362 C357 1.247 . S
O363 Cd352 2.439 1_554 S
O363 C357 1.208 . S
O364 Cd365 2.223 . S
O364 C372 1.315 . S
Cd365 O364 2.223 . S
Cd365 O368 2.297 . S
Cd365 O369 2.439 . S
Cd365 O375 2.240 . S
Cd366 O367 2.240 . S
Cd366 O374 2.223 . S
Cd366 O376 2.297 . S
Cd366 O377 2.439 . S
O367 Cd366 2.240 . S
O367 C372 1.279 . S
O368 Cd365 2.297 . S
O368 C370 1.247 . S
O369 Cd365 2.439 . S
O369 C370 1.208 . S
C370 O368 1.247 . S
C370 O369 1.208 . S
C371 O376 1.247 . S
C371 O377 1.208 . S
C372 O364 1.315 . S
C372 O367 1.279 . S
C373 O374 1.315 . S
C373 O375 1.279 . S
O374 Cd366 2.223 . S
O374 C373 1.315 . S
O375 Cd365 2.240 . S
O375 C373 1.279 . S
O376 Cd366 2.297 . S
O376 C371 1.247 . S
O377 Cd366 2.439 . S
O377 C371 1.208 . S
O378 Cd379 2.223 . S
O378 C386 1.315 . S
Cd379 O378 2.223 . S
Cd379 O382 2.297 . S
Cd379 O383 2.439 . S
Cd379 O389 2.240 . S
Cd380 O381 2.240 . S
Cd380 O388 2.223 . S
Cd380 O390 2.297 . S
Cd380 O391 2.439 . S
O381 Cd380 2.240 . S
O381 C386 1.279 . S
O382 Cd379 2.297 . S
O382 C384 1.247 . S
O383 Cd379 2.439 . S
O383 C384 1.208 . S
C384 O382 1.247 . S
C384 O383 1.208 . S
C385 O390 1.247 . S
C385 O391 1.208 . S
C386 O378 1.315 . S
C386 O381 1.279 . S
C387 O388 1.315 . S
C387 O389 1.279 . S
O388 Cd380 2.223 . S
O388 C387 1.315 . S
O389 Cd379 2.240 . S
O389 C387 1.279 . S
O390 Cd380 2.297 . S
O390 C385 1.247 . S
O391 Cd380 2.439 . S
O391 C385 1.208 . S
O392 Cd393 2.223 . S
O392 C400 1.315 . S
Cd393 O392 2.223 . S
Cd393 O396 2.297 . S
Cd393 O397 2.439 . S
Cd393 O403 2.240 . S
Cd394 O395 2.240 . S
Cd394 O402 2.223 . S
Cd394 O404 2.297 . S
Cd394 O405 2.439 . S
O395 Cd394 2.240 . S
O395 C400 1.279 . S
O396 Cd393 2.297 . S
O396 C398 1.247 . S
O397 Cd393 2.439 . S
O397 C398 1.208 . S
C398 O396 1.247 . S
C398 O397 1.208 . S
C399 O404 1.247 . S
C399 O405 1.208 . S
C400 O392 1.315 . S
C400 O395 1.279 . S
C401 O402 1.315 . S
C401 O403 1.279 . S
O402 Cd394 2.223 . S
O402 C401 1.315 . S
O403 Cd393 2.240 . S
O403 C401 1.279 . S
O404 Cd394 2.297 . S
O404 C399 1.247 . S
O405 Cd394 2.439 . S
O405 C399 1.208 . S
O406 Cd407 2.223 . S
O406 C414 1.315 . S
Cd407 O406 2.223 . S
Cd407 O410 2.297 . S
Cd407 O411 2.439 . S
Cd407 O417 2.240 . S
Cd408 O409 2.240 . S
Cd408 O416 2.223 . S
Cd408 O418 2.297 1_554 S
Cd408 O419 2.439 1_554 S
O409 Cd408 2.240 . S
O409 C414 1.279 . S
O410 Cd407 2.297 . S
O410 C412 1.247 . S
O411 Cd407 2.439 . S
O411 C412 1.208 . S
C412 O410 1.247 . S
C412 O411 1.208 . S
C413 O418 1.247 . S
C413 O419 1.208 . S
C414 O406 1.315 . S
C414 O409 1.279 . S
C415 O416 1.315 . S
C415 O417 1.279 . S
O416 Cd408 2.223 . S
O416 C415 1.315 . S
O417 Cd407 2.240 . S
O417 C415 1.279 . S
O418 Cd408 2.297 1_556 S
O418 C413 1.247 . S
O419 Cd408 2.439 1_556 S
O419 C413 1.208 . S
O420 Cd421 2.223 . S
O420 C428 1.315 . S
Cd421 O420 2.223 . S
Cd421 O424 2.297 . S
Cd421 O425 2.439 . S
Cd421 O431 2.240 . S
Cd422 O423 2.240 . S
Cd422 O430 2.223 . S
Cd422 O432 2.297 . S
Cd422 O433 2.439 . S
O423 Cd422 2.240 . S
O423 C428 1.279 . S
O424 Cd421 2.297 . S
O424 C426 1.247 . S
O425 Cd421 2.439 . S
O425 C426 1.208 . S
C426 O424 1.247 . S
C426 O425 1.208 . S
C427 O432 1.247 . S
C427 O433 1.208 . S
C428 O420 1.315 . S
C428 O423 1.279 . S
C429 O430 1.315 . S
C429 O431 1.279 . S
O430 Cd422 2.223 . S
O430 C429 1.315 . S
O431 Cd421 2.240 . S
O431 C429 1.279 . S
O432 Cd422 2.297 . S
O432 C427 1.247 . S
O433 Cd422 2.439 . S
O433 C427 1.208 . S
O434 Cd435 2.223 . S
O434 C442 1.315 . S
Cd435 O434 2.223 . S
Cd435 O438 2.297 . S
Cd435 O439 2.439 . S
Cd435 O445 2.240 . S
Cd436 O437 2.240 . S
Cd436 O444 2.223 . S
Cd436 O446 2.297 . S
Cd436 O447 2.439 . S
O437 Cd436 2.240 . S
O437 C442 1.279 . S
O438 Cd435 2.297 . S
O438 C440 1.247 . S
O439 Cd435 2.439 . S
O439 C440 1.208 . S
C440 O438 1.247 . S
C440 O439 1.208 . S
C441 O446 1.247 . S
C441 O447 1.208 . S
C442 O434 1.315 . S
C442 O437 1.279 . S
C443 O444 1.315 . S
C443 O445 1.279 . S
O444 Cd436 2.223 . S
O444 C443 1.315 . S
O445 Cd435 2.240 . S
O445 C443 1.279 . S
O446 Cd436 2.297 . S
O446 C441 1.247 . S
O447 Cd436 2.439 . S
O447 C441 1.208 . S
H448 C466 0.951 . S
H449 C468 0.951 . S
H450 C470 0.950 . S
H451 C471 0.950 . S
H452 C473 0.950 . S
H453 C476 0.950 . S
H454 C477 0.950 . S
H455 C479 0.950 . S
H456 C480 0.950 . S
H457 C481 0.951 . S
H458 C483 0.951 . S
H459 C485 0.950 . S
H460 C486 0.950 . S
H461 C488 0.950 . S
H462 C491 0.950 . S
H463 C492 0.950 . S
H464 C494 0.950 . S
H465 C495 0.950 . S
C466 H448 0.951 . S
C466 C467 1.366 . S
C466 C468 1.388 . S
C467 C466 1.366 . S
C467 C471 1.385 . S
C468 H449 0.951 . S
C468 C466 1.388 . S
C468 C469 1.366 . S
C469 C468 1.366 . S
C469 C470 1.414 . S
C469 C472 1.499 . S
C470 H450 0.950 . S
C470 C469 1.414 . S
C470 C471 1.374 . S
C471 H451 0.950 . S
C471 C467 1.385 . S
C471 C470 1.374 . S
C472 C469 1.499 . S
C472 C473 1.373 . S
C472 C474 1.389 . S
C473 H452 0.950 . S
C473 C472 1.373 . S
C473 C489 1.377 . S
C474 C472 1.389 . S
C474 C475 1.524 . S
C474 C488 1.377 . S
C475 C474 1.524 . S
C475 C476 1.397 . S
C475 C480 1.363 . S
C476 H453 0.950 . S
C476 C475 1.397 . S
C476 C477 1.334 . S
C477 H454 0.950 . S
C477 C476 1.334 . S
C477 C478 1.287 . S
C478 C477 1.287 . S
C478 C479 1.524 . S
C478 H497 0.913 . S
C479 H455 0.950 . S
C479 C478 1.524 . S
C479 C480 1.415 . S
C480 H456 0.950 . S
C480 C475 1.363 . S
C480 C479 1.415 . S
C481 H457 0.951 . S
C481 C482 1.366 . S
C481 C483 1.388 . S
C482 C481 1.366 . S
C482 C486 1.385 . S
C483 H458 0.951 . S
C483 C481 1.388 . S
C483 C484 1.366 . S
C484 C483 1.366 . S
C484 C485 1.414 . S
C484 C487 1.499 . S
C485 H459 0.950 . S
C485 C484 1.414 . S
C485 C486 1.374 . S
C486 H460 0.950 . S
C486 C482 1.385 . S
C486 C485 1.374 . S
C487 C484 1.499 . S
C487 C488 1.373 . S
C487 C489 1.389 . S
C488 H461 0.950 . S
C488 C474 1.377 . S
C488 C487 1.373 . S
C489 C473 1.377 . S
C489 C487 1.389 . S
C489 C490 1.524 . S
C490 C489 1.524 . S
C490 C491 1.397 . S
C490 C495 1.363 . S
C491 H462 0.950 . S
C491 C490 1.397 . S
C491 C492 1.334 . S
C492 H463 0.950 . S
C492 C491 1.334 . S
C492 C493 1.287 . S
C493 C492 1.287 . S
C493 C494 1.524 . S
C493 H496 0.999 . S
C494 H464 0.950 . S
C494 C493 1.524 . S
C494 C495 1.415 . S
C495 H465 0.950 . S
C495 C490 1.363 . S
C495 C494 1.415 . S
H496 C493 0.999 . S
H497 C478 0.913 . S
H498 C516 0.951 . S
H499 C518 0.951 . S
H500 C520 0.950 . S
H501 C521 0.950 . S
H502 C523 0.950 . S
H503 C526 0.950 . S
H504 C527 0.950 . S
H505 C529 0.950 . S
H506 C530 0.950 . S
H507 C531 0.951 . S
H508 C533 0.951 . S
H509 C535 0.950 . S
H510 C536 0.950 . S
H511 C538 0.950 . S
H512 C541 0.950 . S
H513 C542 0.950 . S
H514 C544 0.950 . S
H515 C545 0.950 . S
C516 H498 0.951 . S
C516 C517 1.366 . S
C516 C518 1.388 . S
C517 C516 1.366 . S
C517 C521 1.385 . S
C518 H499 0.951 . S
C518 C516 1.388 . S
C518 C519 1.366 . S
C519 C518 1.366 . S
C519 C520 1.414 . S
C519 C522 1.499 . S
C520 H500 0.950 . S
C520 C519 1.414 . S
C520 C521 1.374 . S
C521 H501 0.950 . S
C521 C517 1.385 . S
C521 C520 1.374 . S
C522 C519 1.499 . S
C522 C523 1.373 . S
C522 C524 1.389 . S
C523 H502 0.950 . S
C523 C522 1.373 . S
C523 C539 1.377 . S
C524 C522 1.389 . S
C524 C525 1.524 . S
C524 C538 1.377 . S
C525 C524 1.524 . S
C525 C526 1.397 . S
C525 C530 1.363 . S
C526 H503 0.950 . S
C526 C525 1.397 . S
C526 C527 1.334 . S
C527 H504 0.950 . S
C527 C526 1.334 . S
C527 C528 1.287 . S
C528 C527 1.287 . S
C528 C529 1.524 . S
C528 H547 0.913 . S
C529 H505 0.950 . S
C529 C528 1.524 . S
C529 C530 1.415 . S
C530 H506 0.950 . S
C530 C525 1.363 . S
C530 C529 1.415 . S
C531 H507 0.951 . S
C531 C532 1.366 . S
C531 C533 1.388 . S
C532 C531 1.366 . S
C532 C536 1.385 . S
C533 H508 0.951 . S
C533 C531 1.388 . S
C533 C534 1.366 . S
C534 C533 1.366 . S
C534 C535 1.414 . S
C534 C537 1.499 . S
C535 H509 0.950 . S
C535 C534 1.414 . S
C535 C536 1.374 . S
C536 H510 0.950 . S
C536 C532 1.385 . S
C536 C535 1.374 . S
C537 C534 1.499 . S
C537 C538 1.373 . S
C537 C539 1.389 . S
C538 H511 0.950 . S
C538 C524 1.377 . S
C538 C537 1.373 . S
C539 C523 1.377 . S
C539 C537 1.389 . S
C539 C540 1.524 . S
C540 C539 1.524 . S
C540 C541 1.397 . S
C540 C545 1.363 . S
C541 H512 0.950 . S
C541 C540 1.397 . S
C541 C542 1.334 . S
C542 H513 0.950 . S
C542 C541 1.334 . S
C542 C543 1.287 . S
C543 C542 1.287 . S
C543 C544 1.524 . S
C543 H546 0.999 . S
C544 H514 0.950 . S
C544 C543 1.524 . S
C544 C545 1.415 . S
C545 H515 0.950 . S
C545 C540 1.363 . S
C545 C544 1.415 . S
H546 C543 0.999 . S
H547 C528 0.913 . S
H548 C566 0.951 . S
H549 C568 0.951 . S
H550 C570 0.950 . S
H551 C571 0.950 . S
H552 C573 0.950 . S
H553 C576 0.950 . S
H554 C577 0.950 . S
H555 C579 0.950 . S
H556 C580 0.950 . S
H557 C581 0.951 . S
H558 C583 0.951 . S
H559 C585 0.950 . S
H560 C586 0.950 . S
H561 C588 0.950 . S
H562 C591 0.950 . S
H563 C592 0.950 . S
H564 C594 0.950 . S
H565 C595 0.950 . S
C566 H548 0.951 . S
C566 C567 1.366 . S
C566 C568 1.388 . S
C567 C566 1.366 . S
C567 C571 1.385 . S
C568 H549 0.951 . S
C568 C566 1.388 . S
C568 C569 1.366 . S
C569 C568 1.366 . S
C569 C570 1.414 . S
C569 C572 1.499 . S
C570 H550 0.950 . S
C570 C569 1.414 . S
C570 C571 1.374 . S
C571 H551 0.950 . S
C571 C567 1.385 . S
C571 C570 1.374 . S
C572 C569 1.499 . S
C572 C573 1.373 . S
C572 C574 1.389 . S
C573 H552 0.950 . S
C573 C572 1.373 . S
C573 C589 1.377 . S
C574 C572 1.389 . S
C574 C575 1.524 . S
C574 C588 1.377 . S
C575 C574 1.524 . S
C575 C576 1.397 . S
C575 C580 1.363 . S
C576 H553 0.950 . S
C576 C575 1.397 . S
C576 C577 1.334 . S
C577 H554 0.950 . S
C577 C576 1.334 . S
C577 C578 1.287 . S
C578 C577 1.287 . S
C578 C579 1.524 . S
C578 H597 0.913 . S
C579 H555 0.950 . S
C579 C578 1.524 . S
C579 C580 1.415 . S
C580 H556 0.950 . S
C580 C575 1.363 . S
C580 C579 1.415 . S
C581 H557 0.951 . S
C581 C582 1.366 . S
C581 C583 1.388 . S
C582 C581 1.366 . S
C582 C586 1.385 . S
C583 H558 0.951 . S
C583 C581 1.388 . S
C583 C584 1.366 . S
C584 C583 1.366 . S
C584 C585 1.414 . S
C584 C587 1.499 . S
C585 H559 0.950 . S
C585 C584 1.414 . S
C585 C586 1.374 . S
C586 H560 0.950 . S
C586 C582 1.385 . S
C586 C585 1.374 . S
C587 C584 1.499 . S
C587 C588 1.373 . S
C587 C589 1.389 . S
C588 H561 0.950 . S
C588 C574 1.377 . S
C588 C587 1.373 . S
C589 C573 1.377 . S
C589 C587 1.389 . S
C589 C590 1.524 . S
C590 C589 1.524 . S
C590 C591 1.397 . S
C590 C595 1.363 . S
C591 H562 0.950 . S
C591 C590 1.397 . S
C591 C592 1.334 . S
C592 H563 0.950 . S
C592 C591 1.334 . S
C592 C593 1.287 . S
C593 C592 1.287 . S
C593 C594 1.524 . S
C593 H596 0.999 . S
C594 H564 0.950 . S
C594 C593 1.524 . S
C594 C595 1.415 . S
C595 H565 0.950 . S
C595 C590 1.363 . S
C595 C594 1.415 . S
H596 C593 0.999 . S
H597 C578 0.913 . S
H598 C616 0.951 . S
H599 C618 0.951 . S
H600 C620 0.950 . S
H601 C621 0.950 . S
H602 C623 0.950 . S
H603 C626 0.950 . S
H604 C627 0.950 . S
H605 C629 0.950 . S
H606 C630 0.950 . S
H607 C631 0.951 . S
H608 C633 0.951 . S
H609 C635 0.950 . S
H610 C636 0.950 . S
H611 C638 0.950 . S
H612 C641 0.950 . S
H613 C642 0.950 . S
H614 C644 0.950 . S
H615 C645 0.950 . S
C616 H598 0.951 . S
C616 C617 1.366 . S
C616 C618 1.388 . S
C617 C616 1.366 . S
C617 C621 1.385 . S
C618 H599 0.951 . S
C618 C616 1.388 . S
C618 C619 1.366 . S
C619 C618 1.366 . S
C619 C620 1.414 . S
C619 C622 1.499 . S
C620 H600 0.950 . S
C620 C619 1.414 . S
C620 C621 1.374 . S
C621 H601 0.950 . S
C621 C617 1.385 . S
C621 C620 1.374 . S
C622 C619 1.499 . S
C622 C623 1.373 . S
C622 C624 1.389 . S
C623 H602 0.950 . S
C623 C622 1.373 . S
C623 C639 1.377 . S
C624 C622 1.389 . S
C624 C625 1.524 . S
C624 C638 1.377 . S
C625 C624 1.524 . S
C625 C626 1.397 . S
C625 C630 1.363 . S
C626 H603 0.950 . S
C626 C625 1.397 . S
C626 C627 1.334 . S
C627 H604 0.950 . S
C627 C626 1.334 . S
C627 C628 1.287 . S
C628 C627 1.287 . S
C628 C629 1.524 . S
C628 H647 0.913 . S
C629 H605 0.950 . S
C629 C628 1.524 . S
C629 C630 1.415 . S
C630 H606 0.950 . S
C630 C625 1.363 . S
C630 C629 1.415 . S
C631 H607 0.951 . S
C631 C632 1.366 . S
C631 C633 1.388 . S
C632 C631 1.366 . S
C632 C636 1.385 . S
C633 H608 0.951 . S
C633 C631 1.388 . S
C633 C634 1.366 . S
C634 C633 1.366 . S
C634 C635 1.414 . S
C634 C637 1.499 . S
C635 H609 0.950 . S
C635 C634 1.414 . S
C635 C636 1.374 . S
C636 H610 0.950 . S
C636 C632 1.385 . S
C636 C635 1.374 . S
C637 C634 1.499 . S
C637 C638 1.373 . S
C637 C639 1.389 . S
C638 H611 0.950 . S
C638 C624 1.377 . S
C638 C637 1.373 . S
C639 C623 1.377 . S
C639 C637 1.389 . S
C639 C640 1.524 . S
C640 C639 1.524 . S
C640 C641 1.397 . S
C640 C645 1.363 . S
C641 H612 0.950 . S
C641 C640 1.397 . S
C641 C642 1.334 . S
C642 H613 0.950 . S
C642 C641 1.334 . S
C642 C643 1.287 . S
C643 C642 1.287 . S
C643 C644 1.524 . S
C643 H646 0.999 . S
C644 H614 0.950 . S
C644 C643 1.524 . S
C644 C645 1.415 . S
C645 H615 0.950 . S
C645 C640 1.363 . S
C645 C644 1.415 . S
H646 C643 0.999 . S
H647 C628 0.913 . S
H648 C666 0.951 . S
H649 C668 0.951 . S
H650 C670 0.950 . S
H651 C671 0.950 . S
H652 C673 0.950 . S
H653 C676 0.950 . S
H654 C677 0.950 . S
H655 C679 0.950 . S
H656 C680 0.950 . S
H657 C681 0.951 . S
H658 C683 0.951 . S
H659 C685 0.950 . S
H660 C686 0.950 . S
H661 C688 0.950 . S
H662 C691 0.950 . S
H663 C692 0.950 . S
H664 C694 0.950 . S
H665 C695 0.950 . S
C666 H648 0.951 . S
C666 C667 1.366 . S
C666 C668 1.388 . S
C667 C666 1.366 . S
C667 C671 1.385 . S
C668 H649 0.951 . S
C668 C666 1.388 . S
C668 C669 1.366 . S
C669 C668 1.366 . S
C669 C670 1.414 . S
C669 C672 1.499 . S
C670 H650 0.950 . S
C670 C669 1.414 . S
C670 C671 1.374 . S
C671 H651 0.950 . S
C671 C667 1.385 . S
C671 C670 1.374 . S
C672 C669 1.499 . S
C672 C673 1.373 . S
C672 C674 1.389 . S
C673 H652 0.950 . S
C673 C672 1.373 . S
C673 C689 1.377 . S
C674 C672 1.389 . S
C674 C675 1.524 . S
C674 C688 1.377 . S
C675 C674 1.524 . S
C675 C676 1.397 . S
C675 C680 1.363 . S
C676 H653 0.950 . S
C676 C675 1.397 . S
C676 C677 1.334 . S
C677 H654 0.950 . S
C677 C676 1.334 . S
C677 C678 1.287 . S
C678 C677 1.287 . S
C678 C679 1.524 . S
C678 H697 0.913 . S
C679 H655 0.950 . S
C679 C678 1.524 . S
C679 C680 1.415 . S
C680 H656 0.950 . S
C680 C675 1.363 . S
C680 C679 1.415 . S
C681 H657 0.951 . S
C681 C682 1.366 . S
C681 C683 1.388 . S
C682 C681 1.366 . S
C682 C686 1.385 . S
C683 H658 0.951 . S
C683 C681 1.388 . S
C683 C684 1.366 . S
C684 C683 1.366 . S
C684 C685 1.414 . S
C684 C687 1.499 . S
C685 H659 0.950 . S
C685 C684 1.414 . S
C685 C686 1.374 . S
C686 H660 0.950 . S
C686 C682 1.385 . S
C686 C685 1.374 . S
C687 C684 1.499 . S
C687 C688 1.373 . S
C687 C689 1.389 . S
C688 H661 0.950 . S
C688 C674 1.377 . S
C688 C687 1.373 . S
C689 C673 1.377 . S
C689 C687 1.389 . S
C689 C690 1.524 . S
C690 C689 1.524 . S
C690 C691 1.397 . S
C690 C695 1.363 . S
C691 H662 0.950 . S
C691 C690 1.397 . S
C691 C692 1.334 . S
C692 H663 0.950 . S
C692 C691 1.334 . S
C692 C693 1.287 . S
C693 C692 1.287 . S
C693 C694 1.524 . S
C693 H696 0.999 . S
C694 H664 0.950 . S
C694 C693 1.524 . S
C694 C695 1.415 . S
C695 H665 0.950 . S
C695 C690 1.363 . S
C695 C694 1.415 . S
H696 C693 0.999 . S
H697 C678 0.913 . S
H698 C716 0.951 . S
H699 C718 0.951 . S
H700 C720 0.950 . S
H701 C721 0.950 . S
H702 C723 0.950 . S
H703 C726 0.950 . S
H704 C727 0.950 . S
H705 C729 0.950 . S
H706 C730 0.950 . S
H707 C731 0.951 . S
H708 C733 0.951 . S
H709 C735 0.950 . S
H710 C736 0.950 . S
H711 C738 0.950 . S
H712 C741 0.950 . S
H713 C742 0.950 . S
H714 C744 0.950 . S
H715 C745 0.950 . S
C716 H698 0.951 . S
C716 C717 1.366 . S
C716 C718 1.388 . S
C717 C716 1.366 . S
C717 C721 1.385 . S
C718 H699 0.951 . S
C718 C716 1.388 . S
C718 C719 1.366 . S
C719 C718 1.366 . S
C719 C720 1.414 . S
C719 C722 1.499 . S
C720 H700 0.950 . S
C720 C719 1.414 . S
C720 C721 1.374 . S
C721 H701 0.950 . S
C721 C717 1.385 . S
C721 C720 1.374 . S
C722 C719 1.499 . S
C722 C723 1.373 . S
C722 C724 1.389 . S
C723 H702 0.950 . S
C723 C722 1.373 . S
C723 C739 1.377 . S
C724 C722 1.389 . S
C724 C725 1.524 . S
C724 C738 1.377 . S
C725 C724 1.524 . S
C725 C726 1.397 . S
C725 C730 1.363 . S
C726 H703 0.950 . S
C726 C725 1.397 . S
C726 C727 1.334 . S
C727 H704 0.950 . S
C727 C726 1.334 . S
C727 C728 1.287 . S
C728 C727 1.287 . S
C728 C729 1.524 . S
C728 H747 0.913 . S
C729 H705 0.950 . S
C729 C728 1.524 . S
C729 C730 1.415 . S
C730 H706 0.950 . S
C730 C725 1.363 . S
C730 C729 1.415 . S
C731 H707 0.951 . S
C731 C732 1.366 . S
C731 C733 1.388 . S
C732 C731 1.366 . S
C732 C736 1.385 . S
C733 H708 0.951 . S
C733 C731 1.388 . S
C733 C734 1.366 . S
C734 C733 1.366 . S
C734 C735 1.414 . S
C734 C737 1.499 . S
C735 H709 0.950 . S
C735 C734 1.414 . S
C735 C736 1.374 . S
C736 H710 0.950 . S
C736 C732 1.385 . S
C736 C735 1.374 . S
C737 C734 1.499 . S
C737 C738 1.373 . S
C737 C739 1.389 . S
C738 H711 0.950 . S
C738 C724 1.377 . S
C738 C737 1.373 . S
C739 C723 1.377 . S
C739 C737 1.389 . S
C739 C740 1.524 . S
C740 C739 1.524 . S
C740 C741 1.397 . S
C740 C745 1.363 . S
C741 H712 0.950 . S
C741 C740 1.397 . S
C741 C742 1.334 . S
C742 H713 0.950 . S
C742 C741 1.334 . S
C742 C743 1.287 . S
C743 C742 1.287 . S
C743 C744 1.524 . S
C743 H746 0.999 . S
C744 H714 0.950 . S
C744 C743 1.524 . S
C744 C745 1.415 . S
C745 H715 0.950 . S
C745 C740 1.363 . S
C745 C744 1.415 . S
H746 C743 0.999 . S
H747 C728 0.913 . S
H748 C766 0.951 . S
H749 C768 0.951 . S
H750 C770 0.950 . S
H751 C771 0.950 . S
H752 C773 0.950 . S
H753 C776 0.950 . S
H754 C777 0.950 . S
H755 C779 0.950 . S
H756 C780 0.950 . S
H757 C781 0.951 . S
H758 C783 0.951 . S
H759 C785 0.950 . S
H760 C786 0.950 . S
H761 C788 0.950 . S
H762 C791 0.950 . S
H763 C792 0.950 . S
H764 C794 0.950 . S
H765 C795 0.950 . S
C766 H748 0.951 . S
C766 C767 1.366 . S
C766 C768 1.388 . S
C767 C766 1.366 . S
C767 C771 1.385 . S
C768 H749 0.951 . S
C768 C766 1.388 . S
C768 C769 1.366 . S
C769 C768 1.366 . S
C769 C770 1.414 . S
C769 C772 1.499 . S
C770 H750 0.950 . S
C770 C769 1.414 . S
C770 C771 1.374 . S
C771 H751 0.950 . S
C771 C767 1.385 . S
C771 C770 1.374 . S
C772 C769 1.499 . S
C772 C773 1.373 . S
C772 C774 1.389 . S
C773 H752 0.950 . S
C773 C772 1.373 . S
C773 C789 1.377 . S
C774 C772 1.389 . S
C774 C775 1.524 . S
C774 C788 1.377 . S
C775 C774 1.524 . S
C775 C776 1.397 . S
C775 C780 1.363 . S
C776 H753 0.950 . S
C776 C775 1.397 . S
C776 C777 1.334 . S
C777 H754 0.950 . S
C777 C776 1.334 . S
C777 C778 1.287 . S
C778 C777 1.287 . S
C778 C779 1.524 . S
C778 H797 0.913 . S
C779 H755 0.950 . S
C779 C778 1.524 . S
C779 C780 1.415 . S
C780 H756 0.950 . S
C780 C775 1.363 . S
C780 C779 1.415 . S
C781 H757 0.951 . S
C781 C782 1.366 . S
C781 C783 1.388 . S
C782 C781 1.366 . S
C782 C786 1.385 . S
C783 H758 0.951 . S
C783 C781 1.388 . S
C783 C784 1.366 . S
C784 C783 1.366 . S
C784 C785 1.414 . S
C784 C787 1.499 . S
C785 H759 0.950 . S
C785 C784 1.414 . S
C785 C786 1.374 . S
C786 H760 0.950 . S
C786 C782 1.385 . S
C786 C785 1.374 . S
C787 C784 1.499 . S
C787 C788 1.373 . S
C787 C789 1.389 . S
C788 H761 0.950 . S
C788 C774 1.377 . S
C788 C787 1.373 . S
C789 C773 1.377 . S
C789 C787 1.389 . S
C789 C790 1.524 . S
C790 C789 1.524 . S
C790 C791 1.397 . S
C790 C795 1.363 . S
C791 H762 0.950 . S
C791 C790 1.397 . S
C791 C792 1.334 . S
C792 H763 0.950 . S
C792 C791 1.334 . S
C792 C793 1.287 . S
C793 C792 1.287 . S
C793 C794 1.524 . S
C793 H796 0.999 . S
C794 H764 0.950 . S
C794 C793 1.524 . S
C794 C795 1.415 . S
C795 H765 0.950 . S
C795 C790 1.363 . S
C795 C794 1.415 . S
H796 C793 0.999 . S
H797 C778 0.913 . S
H798 C816 0.951 . S
H799 C818 0.951 . S
H800 C820 0.950 . S
H801 C821 0.950 . S
H802 C823 0.950 . S
H803 C826 0.950 . S
H804 C827 0.950 . S
H805 C829 0.950 . S
H806 C830 0.950 . S
H807 C831 0.951 . S
H808 C833 0.951 . S
H809 C835 0.950 . S
H810 C836 0.950 . S
H811 C838 0.950 . S
H812 C841 0.950 . S
H813 C842 0.950 . S
H814 C844 0.950 . S
H815 C845 0.950 . S
C816 H798 0.951 . S
C816 C817 1.366 . S
C816 C818 1.388 . S
C817 C816 1.366 . S
C817 C821 1.385 . S
C818 H799 0.951 . S
C818 C816 1.388 . S
C818 C819 1.366 . S
C819 C818 1.366 . S
C819 C820 1.414 . S
C819 C822 1.499 . S
C820 H800 0.950 . S
C820 C819 1.414 . S
C820 C821 1.374 . S
C821 H801 0.950 . S
C821 C817 1.385 . S
C821 C820 1.374 . S
C822 C819 1.499 . S
C822 C823 1.373 . S
C822 C824 1.389 . S
C823 H802 0.950 . S
C823 C822 1.373 . S
C823 C839 1.377 . S
C824 C822 1.389 . S
C824 C825 1.524 . S
C824 C838 1.377 . S
C825 C824 1.524 . S
C825 C826 1.397 . S
C825 C830 1.363 . S
C826 H803 0.950 . S
C826 C825 1.397 . S
C826 C827 1.334 . S
C827 H804 0.950 . S
C827 C826 1.334 . S
C827 C828 1.287 . S
C828 C827 1.287 . S
C828 C829 1.524 . S
C828 H847 0.913 . S
C829 H805 0.950 . S
C829 C828 1.524 . S
C829 C830 1.415 . S
C830 H806 0.950 . S
C830 C825 1.363 . S
C830 C829 1.415 . S
C831 H807 0.951 . S
C831 C832 1.366 . S
C831 C833 1.388 . S
C832 C831 1.366 . S
C832 C836 1.385 . S
C833 H808 0.951 . S
C833 C831 1.388 . S
C833 C834 1.366 . S
C834 C833 1.366 . S
C834 C835 1.414 . S
C834 C837 1.499 . S
C835 H809 0.950 . S
C835 C834 1.414 . S
C835 C836 1.374 . S
C836 H810 0.950 . S
C836 C832 1.385 . S
C836 C835 1.374 . S
C837 C834 1.499 . S
C837 C838 1.373 . S
C837 C839 1.389 . S
C838 H811 0.950 . S
C838 C824 1.377 . S
C838 C837 1.373 . S
C839 C823 1.377 . S
C839 C837 1.389 . S
C839 C840 1.524 . S
C840 C839 1.524 . S
C840 C841 1.397 . S
C840 C845 1.363 . S
C841 H812 0.950 . S
C841 C840 1.397 . S
C841 C842 1.334 . S
C842 H813 0.950 . S
C842 C841 1.334 . S
C842 C843 1.287 . S
C843 C842 1.287 . S
C843 C844 1.524 . S
C843 H846 0.999 . S
C844 H814 0.950 . S
C844 C843 1.524 . S
C844 C845 1.415 . S
C845 H815 0.950 . S
C845 C840 1.363 . S
C845 C844 1.415 . S
H846 C843 0.999 . S
H847 C828 0.913 . S
H848 C866 0.951 . S
H849 C868 0.951 . S
H850 C870 0.950 . S
H851 C871 0.950 . S
H852 C873 0.950 . S
H853 C876 0.950 . S
H854 C877 0.950 . S
H855 C879 0.950 . S
H856 C880 0.950 . S
H857 C881 0.951 . S
H858 C883 0.951 . S
H859 C885 0.950 . S
H860 C886 0.950 . S
H861 C888 0.950 . S
H862 C891 0.950 . S
H863 C892 0.950 . S
H864 C894 0.950 . S
H865 C895 0.950 . S
C866 H848 0.951 . S
C866 C867 1.366 . S
C866 C868 1.388 . S
C867 C866 1.366 . S
C867 C871 1.385 . S
C868 H849 0.951 . S
C868 C866 1.388 . S
C868 C869 1.366 . S
C869 C868 1.366 . S
C869 C870 1.414 . S
C869 C872 1.499 . S
C870 H850 0.950 . S
C870 C869 1.414 . S
C870 C871 1.374 . S
C871 H851 0.950 . S
C871 C867 1.385 . S
C871 C870 1.374 . S
C872 C869 1.499 . S
C872 C873 1.373 . S
C872 C874 1.389 . S
C873 H852 0.950 . S
C873 C872 1.373 . S
C873 C889 1.377 . S
C874 C872 1.389 . S
C874 C875 1.524 . S
C874 C888 1.377 . S
C875 C874 1.524 . S
C875 C876 1.397 . S
C875 C880 1.363 . S
C876 H853 0.950 . S
C876 C875 1.397 . S
C876 C877 1.334 . S
C877 H854 0.950 . S
C877 C876 1.334 . S
C877 C878 1.287 . S
C878 C877 1.287 . S
C878 C879 1.524 . S
C878 H897 0.913 . S
C879 H855 0.950 . S
C879 C878 1.524 . S
C879 C880 1.415 . S
C880 H856 0.950 . S
C880 C875 1.363 . S
C880 C879 1.415 . S
C881 H857 0.951 . S
C881 C882 1.366 . S
C881 C883 1.388 . S
C882 C881 1.366 . S
C882 C886 1.385 . S
C883 H858 0.951 . S
C883 C881 1.388 . S
C883 C884 1.366 . S
C884 C883 1.366 . S
C884 C885 1.414 . S
C884 C887 1.499 . S
C885 H859 0.950 . S
C885 C884 1.414 . S
C885 C886 1.374 . S
C886 H860 0.950 . S
C886 C882 1.385 . S
C886 C885 1.374 . S
C887 C884 1.499 . S
C887 C888 1.373 . S
C887 C889 1.389 . S
C888 H861 0.950 . S
C888 C874 1.377 . S
C888 C887 1.373 . S
C889 C873 1.377 . S
C889 C887 1.389 . S
C889 C890 1.524 . S
C890 C889 1.524 . S
C890 C891 1.397 . S
C890 C895 1.363 . S
C891 H862 0.950 . S
C891 C890 1.397 . S
C891 C892 1.334 . S
C892 H863 0.950 . S
C892 C891 1.334 . S
C892 C893 1.287 . S
C893 C892 1.287 . S
C893 C894 1.524 . S
C893 H896 0.999 . S
C894 H864 0.950 . S
C894 C893 1.524 . S
C894 C895 1.415 . S
C895 H865 0.950 . S
C895 C890 1.363 . S
C895 C894 1.415 . S
H896 C893 0.999 . S
H897 C878 0.913 . S
H898 C916 0.951 . S
H899 C918 0.951 . S
H900 C920 0.950 . S
H901 C921 0.950 . S
H902 C923 0.950 . S
H903 C926 0.950 . S
H904 C927 0.950 . S
H905 C929 0.950 . S
H906 C930 0.950 . S
H907 C931 0.951 . S
H908 C933 0.951 . S
H909 C935 0.950 . S
H910 C936 0.950 . S
H911 C938 0.950 . S
H912 C941 0.950 . S
H913 C942 0.950 . S
H914 C944 0.950 . S
H915 C945 0.950 . S
C916 H898 0.951 . S
C916 C917 1.366 . S
C916 C918 1.388 . S
C917 C916 1.366 . S
C917 C921 1.385 . S
C918 H899 0.951 . S
C918 C916 1.388 . S
C918 C919 1.366 . S
C919 C918 1.366 . S
C919 C920 1.414 . S
C919 C922 1.499 . S
C920 H900 0.950 . S
C920 C919 1.414 . S
C920 C921 1.374 . S
C921 H901 0.950 . S
C921 C917 1.385 . S
C921 C920 1.374 . S
C922 C919 1.499 . S
C922 C923 1.373 . S
C922 C924 1.389 . S
C923 H902 0.950 . S
C923 C922 1.373 . S
C923 C939 1.377 . S
C924 C922 1.389 . S
C924 C925 1.524 . S
C924 C938 1.377 . S
C925 C924 1.524 . S
C925 C926 1.397 . S
C925 C930 1.363 . S
C926 H903 0.950 . S
C926 C925 1.397 . S
C926 C927 1.334 . S
C927 H904 0.950 . S
C927 C926 1.334 . S
C927 C928 1.287 . S
C928 C927 1.287 . S
C928 C929 1.524 . S
C928 H947 0.913 . S
C929 H905 0.950 . S
C929 C928 1.524 . S
C929 C930 1.415 . S
C930 H906 0.950 . S
C930 C925 1.363 . S
C930 C929 1.415 . S
C931 H907 0.951 . S
C931 C932 1.366 . S
C931 C933 1.388 . S
C932 C931 1.366 . S
C932 C936 1.385 . S
C933 H908 0.951 . S
C933 C931 1.388 . S
C933 C934 1.366 . S
C934 C933 1.366 . S
C934 C935 1.414 . S
C934 C937 1.499 . S
C935 H909 0.950 . S
C935 C934 1.414 . S
C935 C936 1.374 . S
C936 H910 0.950 . S
C936 C932 1.385 . S
C936 C935 1.374 . S
C937 C934 1.499 . S
C937 C938 1.373 . S
C937 C939 1.389 . S
C938 H911 0.950 . S
C938 C924 1.377 . S
C938 C937 1.373 . S
C939 C923 1.377 . S
C939 C937 1.389 . S
C939 C940 1.524 . S
C940 C939 1.524 . S
C940 C941 1.397 . S
C940 C945 1.363 . S
C941 H912 0.950 . S
C941 C940 1.397 . S
C941 C942 1.334 . S
C942 H913 0.950 . S
C942 C941 1.334 . S
C942 C943 1.287 . S
C943 C942 1.287 . S
C943 C944 1.524 . S
C943 H946 0.999 . S
C944 H914 0.950 . S
C944 C943 1.524 . S
C944 C945 1.415 . S
C945 H915 0.950 . S
C945 C940 1.363 . S
C945 C944 1.415 . S
H946 C943 0.999 . S
H947 C928 0.913 . S
H948 C966 0.951 . S
H949 C968 0.951 . S
H950 C970 0.950 . S
H951 C971 0.950 . S
H952 C973 0.950 . S
H953 C976 0.950 . S
H954 C977 0.950 . S
H955 C979 0.950 . S
H956 C980 0.950 . S
H957 C981 0.951 . S
H958 C983 0.951 . S
H959 C985 0.950 . S
H960 C986 0.950 . S
H961 C988 0.950 . S
H962 C991 0.950 . S
H963 C992 0.950 . S
H964 C994 0.950 . S
H965 C995 0.950 . S
C966 H948 0.951 . S
C966 C967 1.366 . S
C966 C968 1.388 . S
C967 C966 1.366 . S
C967 C971 1.385 . S
C968 H949 0.951 . S
C968 C966 1.388 . S
C968 C969 1.366 . S
C969 C968 1.366 . S
C969 C970 1.414 . S
C969 C972 1.499 . S
C970 H950 0.950 . S
C970 C969 1.414 . S
C970 C971 1.374 . S
C971 H951 0.950 . S
C971 C967 1.385 . S
C971 C970 1.374 . S
C972 C969 1.499 . S
C972 C973 1.373 . S
C972 C974 1.389 . S
C973 H952 0.950 . S
C973 C972 1.373 . S
C973 C989 1.377 . S
C974 C972 1.389 . S
C974 C975 1.524 . S
C974 C988 1.377 . S
C975 C974 1.524 . S
C975 C976 1.397 . S
C975 C980 1.363 . S
C976 H953 0.950 . S
C976 C975 1.397 . S
C976 C977 1.334 . S
C977 H954 0.950 . S
C977 C976 1.334 . S
C977 C978 1.287 . S
C978 C977 1.287 . S
C978 C979 1.524 . S
C978 H997 0.913 . S
C979 H955 0.950 . S
C979 C978 1.524 . S
C979 C980 1.415 . S
C980 H956 0.950 . S
C980 C975 1.363 . S
C980 C979 1.415 . S
C981 H957 0.951 . S
C981 C982 1.366 . S
C981 C983 1.388 . S
C982 C981 1.366 . S
C982 C986 1.385 . S
C983 H958 0.951 . S
C983 C981 1.388 . S
C983 C984 1.366 . S
C984 C983 1.366 . S
C984 C985 1.414 . S
C984 C987 1.499 . S
C985 H959 0.950 . S
C985 C984 1.414 . S
C985 C986 1.374 . S
C986 H960 0.950 . S
C986 C982 1.385 . S
C986 C985 1.374 . S
C987 C984 1.499 . S
C987 C988 1.373 . S
C987 C989 1.389 . S
C988 H961 0.950 . S
C988 C974 1.377 . S
C988 C987 1.373 . S
C989 C973 1.377 . S
C989 C987 1.389 . S
C989 C990 1.524 . S
C990 C989 1.524 . S
C990 C991 1.397 . S
C990 C995 1.363 . S
C991 H962 0.950 . S
C991 C990 1.397 . S
C991 C992 1.334 . S
C992 H963 0.950 . S
C992 C991 1.334 . S
C992 C993 1.287 . S
C993 C992 1.287 . S
C993 C994 1.524 . S
C993 H996 0.999 . S
C994 H964 0.950 . S
C994 C993 1.524 . S
C994 C995 1.415 . S
C995 H965 0.950 . S
C995 C990 1.363 . S
C995 C994 1.415 . S
H996 C993 0.999 . S
H997 C978 0.913 . S
H998 C1016 0.951 . S
H999 C1018 0.951 . S
H1000 C1020 0.950 . S
H1001 C1021 0.950 . S
H1002 C1023 0.950 . S
H1003 C1026 0.950 . S
H1004 C1027 0.950 . S
H1005 C1029 0.950 . S
H1006 C1030 0.950 . S
H1007 C1031 0.951 . S
H1008 C1033 0.951 . S
H1009 C1035 0.950 . S
H1010 C1036 0.950 . S
H1011 C1038 0.950 . S
H1012 C1041 0.950 . S
H1013 C1042 0.950 . S
H1014 C1044 0.950 . S
H1015 C1045 0.950 . S
C1016 H998 0.951 . S
C1016 C1017 1.366 . S
C1016 C1018 1.388 . S
C1017 C1016 1.366 . S
C1017 C1021 1.385 . S
C1018 H999 0.951 . S
C1018 C1016 1.388 . S
C1018 C1019 1.366 . S
C1019 C1018 1.366 . S
C1019 C1020 1.414 . S
C1019 C1022 1.499 . S
C1020 H1000 0.950 . S
C1020 C1019 1.414 . S
C1020 C1021 1.374 . S
C1021 H1001 0.950 . S
C1021 C1017 1.385 . S
C1021 C1020 1.374 . S
C1022 C1019 1.499 . S
C1022 C1023 1.373 . S
C1022 C1024 1.389 . S
C1023 H1002 0.950 . S
C1023 C1022 1.373 . S
C1023 C1039 1.377 . S
C1024 C1022 1.389 . S
C1024 C1025 1.524 . S
C1024 C1038 1.377 . S
C1025 C1024 1.524 . S
C1025 C1026 1.397 . S
C1025 C1030 1.363 . S
C1026 H1003 0.950 . S
C1026 C1025 1.397 . S
C1026 C1027 1.334 . S
C1027 H1004 0.950 . S
C1027 C1026 1.334 . S
C1027 C1028 1.287 . S
C1028 C1027 1.287 . S
C1028 C1029 1.524 . S
C1028 H1047 0.913 . S
C1029 H1005 0.950 . S
C1029 C1028 1.524 . S
C1029 C1030 1.415 . S
C1030 H1006 0.950 . S
C1030 C1025 1.363 . S
C1030 C1029 1.415 . S
C1031 H1007 0.951 . S
C1031 C1032 1.366 . S
C1031 C1033 1.388 . S
C1032 C1031 1.366 . S
C1032 C1036 1.385 . S
C1033 H1008 0.951 . S
C1033 C1031 1.388 . S
C1033 C1034 1.366 . S
C1034 C1033 1.366 . S
C1034 C1035 1.414 . S
C1034 C1037 1.499 . S
C1035 H1009 0.950 . S
C1035 C1034 1.414 . S
C1035 C1036 1.374 . S
C1036 H1010 0.950 . S
C1036 C1032 1.385 . S
C1036 C1035 1.374 . S
C1037 C1034 1.499 . S
C1037 C1038 1.373 . S
C1037 C1039 1.389 . S
C1038 H1011 0.950 . S
C1038 C1024 1.377 . S
C1038 C1037 1.373 . S
C1039 C1023 1.377 . S
C1039 C1037 1.389 . S
C1039 C1040 1.524 . S
C1040 C1039 1.524 . S
C1040 C1041 1.397 . S
C1040 C1045 1.363 . S
C1041 H1012 0.950 . S
C1041 C1040 1.397 . S
C1041 C1042 1.334 . S
C1042 H1013 0.950 . S
C1042 C1041 1.334 . S
C1042 C1043 1.287 . S
C1043 C1042 1.287 . S
C1043 C1044 1.524 . S
C1043 H1046 0.999 . S
C1044 H1014 0.950 . S
C1044 C1043 1.524 . S
C1044 C1045 1.415 . S
C1045 H1015 0.950 . S
C1045 C1040 1.363 . S
C1045 C1044 1.415 . S
H1046 C1043 0.999 . S
H1047 C1028 0.913 . S
H1048 C1066 0.951 . S
H1049 C1068 0.951 . S
H1050 C1070 0.950 . S
H1051 C1071 0.950 . S
H1052 C1073 0.950 . S
H1053 C1076 0.950 . S
H1054 C1077 0.950 . S
H1055 C1079 0.950 . S
H1056 C1080 0.950 . S
H1057 C1081 0.951 . S
H1058 C1083 0.951 . S
H1059 C1085 0.950 . S
H1060 C1086 0.950 . S
H1061 C1088 0.950 . S
H1062 C1091 0.950 . S
H1063 C1092 0.950 . S
H1064 C1094 0.950 . S
H1065 C1095 0.950 . S
C1066 H1048 0.951 . S
C1066 C1067 1.366 . S
C1066 C1068 1.388 . S
C1067 C1066 1.366 . S
C1067 C1071 1.385 . S
C1068 H1049 0.951 . S
C1068 C1066 1.388 . S
C1068 C1069 1.366 . S
C1069 C1068 1.366 . S
C1069 C1070 1.414 . S
C1069 C1072 1.499 . S
C1070 H1050 0.950 . S
C1070 C1069 1.414 . S
C1070 C1071 1.374 . S
C1071 H1051 0.950 . S
C1071 C1067 1.385 . S
C1071 C1070 1.374 . S
C1072 C1069 1.499 . S
C1072 C1073 1.373 . S
C1072 C1074 1.389 . S
C1073 H1052 0.950 . S
C1073 C1072 1.373 . S
C1073 C1089 1.377 . S
C1074 C1072 1.389 . S
C1074 C1075 1.524 . S
C1074 C1088 1.377 . S
C1075 C1074 1.524 . S
C1075 C1076 1.397 . S
C1075 C1080 1.363 . S
C1076 H1053 0.950 . S
C1076 C1075 1.397 . S
C1076 C1077 1.334 . S
C1077 H1054 0.950 . S
C1077 C1076 1.334 . S
C1077 C1078 1.287 . S
C1078 C1077 1.287 . S
C1078 C1079 1.524 . S
C1078 H1097 0.913 . S
C1079 H1055 0.950 . S
C1079 C1078 1.524 . S
C1079 C1080 1.415 . S
C1080 H1056 0.950 . S
C1080 C1075 1.363 . S
C1080 C1079 1.415 . S
C1081 H1057 0.951 . S
C1081 C1082 1.366 . S
C1081 C1083 1.388 . S
C1082 C1081 1.366 . S
C1082 C1086 1.385 . S
C1083 H1058 0.951 . S
C1083 C1081 1.388 . S
C1083 C1084 1.366 . S
C1084 C1083 1.366 . S
C1084 C1085 1.414 . S
C1084 C1087 1.499 . S
C1085 H1059 0.950 . S
C1085 C1084 1.414 . S
C1085 C1086 1.374 . S
C1086 H1060 0.950 . S
C1086 C1082 1.385 . S
C1086 C1085 1.374 . S
C1087 C1084 1.499 . S
C1087 C1088 1.373 . S
C1087 C1089 1.389 . S
C1088 H1061 0.950 . S
C1088 C1074 1.377 . S
C1088 C1087 1.373 . S
C1089 C1073 1.377 . S
C1089 C1087 1.389 . S
C1089 C1090 1.524 . S
C1090 C1089 1.524 . S
C1090 C1091 1.397 . S
C1090 C1095 1.363 . S
C1091 H1062 0.950 . S
C1091 C1090 1.397 . S
C1091 C1092 1.334 . S
C1092 H1063 0.950 . S
C1092 C1091 1.334 . S
C1092 C1093 1.287 . S
C1093 C1092 1.287 . S
C1093 C1094 1.524 . S
C1093 H1096 0.999 . S
C1094 H1064 0.950 . S
C1094 C1093 1.524 . S
C1094 C1095 1.415 . S
C1095 H1065 0.950 . S
C1095 C1090 1.363 . S
C1095 C1094 1.415 . S
H1096 C1093 0.999 . S
H1097 C1078 0.913 . S
H1098 C1116 0.951 . S
H1099 C1118 0.951 . S
H1100 C1120 0.950 . S
H1101 C1121 0.950 . S
H1102 C1123 0.950 . S
H1103 C1126 0.950 . S
H1104 C1127 0.950 . S
H1105 C1129 0.950 . S
H1106 C1130 0.950 . S
H1107 C1131 0.951 . S
H1108 C1133 0.951 . S
H1109 C1135 0.950 . S
H1110 C1136 0.950 . S
H1111 C1138 0.950 . S
H1112 C1141 0.950 . S
H1113 C1142 0.950 . S
H1114 C1144 0.950 . S
H1115 C1145 0.950 . S
C1116 H1098 0.951 . S
C1116 C1117 1.366 . S
C1116 C1118 1.388 . S
C1117 C1116 1.366 . S
C1117 C1121 1.385 . S
C1118 H1099 0.951 . S
C1118 C1116 1.388 . S
C1118 C1119 1.366 . S
C1119 C1118 1.366 . S
C1119 C1120 1.414 . S
C1119 C1122 1.499 . S
C1120 H1100 0.950 . S
C1120 C1119 1.414 . S
C1120 C1121 1.374 . S
C1121 H1101 0.950 . S
C1121 C1117 1.385 . S
C1121 C1120 1.374 . S
C1122 C1119 1.499 . S
C1122 C1123 1.373 . S
C1122 C1124 1.389 . S
C1123 H1102 0.950 . S
C1123 C1122 1.373 . S
C1123 C1139 1.377 . S
C1124 C1122 1.389 . S
C1124 C1125 1.524 . S
C1124 C1138 1.377 . S
C1125 C1124 1.524 . S
C1125 C1126 1.397 . S
C1125 C1130 1.363 . S
C1126 H1103 0.950 . S
C1126 C1125 1.397 . S
C1126 C1127 1.334 . S
C1127 H1104 0.950 . S
C1127 C1126 1.334 . S
C1127 C1128 1.287 . S
C1128 C1127 1.287 . S
C1128 C1129 1.524 . S
C1128 H1147 0.913 . S
C1129 H1105 0.950 . S
C1129 C1128 1.524 . S
C1129 C1130 1.415 . S
C1130 H1106 0.950 . S
C1130 C1125 1.363 . S
C1130 C1129 1.415 . S
C1131 H1107 0.951 . S
C1131 C1132 1.366 . S
C1131 C1133 1.388 . S
C1132 C1131 1.366 . S
C1132 C1136 1.385 . S
C1133 H1108 0.951 . S
C1133 C1131 1.388 . S
C1133 C1134 1.366 . S
C1134 C1133 1.366 . S
C1134 C1135 1.414 . S
C1134 C1137 1.499 . S
C1135 H1109 0.950 . S
C1135 C1134 1.414 . S
C1135 C1136 1.374 . S
C1136 H1110 0.950 . S
C1136 C1132 1.385 . S
C1136 C1135 1.374 . S
C1137 C1134 1.499 . S
C1137 C1138 1.373 . S
C1137 C1139 1.389 . S
C1138 H1111 0.950 . S
C1138 C1124 1.377 . S
C1138 C1137 1.373 . S
C1139 C1123 1.377 . S
C1139 C1137 1.389 . S
C1139 C1140 1.524 . S
C1140 C1139 1.524 . S
C1140 C1141 1.397 . S
C1140 C1145 1.363 . S
C1141 H1112 0.950 . S
C1141 C1140 1.397 . S
C1141 C1142 1.334 . S
C1142 H1113 0.950 . S
C1142 C1141 1.334 . S
C1142 C1143 1.287 . S
C1143 C1142 1.287 . S
C1143 C1144 1.524 . S
C1143 H1146 0.999 . S
C1144 H1114 0.950 . S
C1144 C1143 1.524 . S
C1144 C1145 1.415 . S
C1145 H1115 0.950 . S
C1145 C1140 1.363 . S
C1145 C1144 1.415 . S
H1146 C1143 0.999 . S
H1147 C1128 0.913 . S
H1148 C1166 0.951 . S
H1149 C1168 0.951 . S
H1150 C1170 0.950 . S
H1151 C1171 0.950 . S
H1152 C1173 0.950 . S
H1153 C1176 0.950 . S
H1154 C1177 0.950 . S
H1155 C1179 0.950 . S
H1156 C1180 0.950 . S
H1157 C1181 0.951 . S
H1158 C1183 0.951 . S
H1159 C1185 0.950 . S
H1160 C1186 0.950 . S
H1161 C1188 0.950 . S
H1162 C1191 0.950 . S
H1163 C1192 0.950 . S
H1164 C1194 0.950 . S
H1165 C1195 0.950 . S
C1166 H1148 0.951 . S
C1166 C1167 1.366 . S
C1166 C1168 1.388 . S
C1167 C1166 1.366 . S
C1167 C1171 1.385 . S
C1168 H1149 0.951 . S
C1168 C1166 1.388 . S
C1168 C1169 1.366 . S
C1169 C1168 1.366 . S
C1169 C1170 1.414 . S
C1169 C1172 1.499 . S
C1170 H1150 0.950 . S
C1170 C1169 1.414 . S
C1170 C1171 1.374 . S
C1171 H1151 0.950 . S
C1171 C1167 1.385 . S
C1171 C1170 1.374 . S
C1172 C1169 1.499 . S
C1172 C1173 1.373 . S
C1172 C1174 1.389 . S
C1173 H1152 0.950 . S
C1173 C1172 1.373 . S
C1173 C1189 1.377 . S
C1174 C1172 1.389 . S
C1174 C1175 1.524 . S
C1174 C1188 1.377 . S
C1175 C1174 1.524 . S
C1175 C1176 1.397 . S
C1175 C1180 1.363 . S
C1176 H1153 0.950 . S
C1176 C1175 1.397 . S
C1176 C1177 1.334 . S
C1177 H1154 0.950 . S
C1177 C1176 1.334 . S
C1177 C1178 1.287 . S
C1178 C1177 1.287 . S
C1178 C1179 1.524 . S
C1178 H1197 0.913 . S
C1179 H1155 0.950 . S
C1179 C1178 1.524 . S
C1179 C1180 1.415 . S
C1180 H1156 0.950 . S
C1180 C1175 1.363 . S
C1180 C1179 1.415 . S
C1181 H1157 0.951 . S
C1181 C1182 1.366 . S
C1181 C1183 1.388 . S
C1182 C1181 1.366 . S
C1182 C1186 1.385 . S
C1183 H1158 0.951 . S
C1183 C1181 1.388 . S
C1183 C1184 1.366 . S
C1184 C1183 1.366 . S
C1184 C1185 1.414 . S
C1184 C1187 1.499 . S
C1185 H1159 0.950 . S
C1185 C1184 1.414 . S
C1185 C1186 1.374 . S
C1186 H1160 0.950 . S
C1186 C1182 1.385 . S
C1186 C1185 1.374 . S
C1187 C1184 1.499 . S
C1187 C1188 1.373 . S
C1187 C1189 1.389 . S
C1188 H1161 0.950 . S
C1188 C1174 1.377 . S
C1188 C1187 1.373 . S
C1189 C1173 1.377 . S
C1189 C1187 1.389 . S
C1189 C1190 1.524 . S
C1190 C1189 1.524 . S
C1190 C1191 1.397 . S
C1190 C1195 1.363 . S
C1191 H1162 0.950 . S
C1191 C1190 1.397 . S
C1191 C1192 1.334 . S
C1192 H1163 0.950 . S
C1192 C1191 1.334 . S
C1192 C1193 1.287 . S
C1193 C1192 1.287 . S
C1193 C1194 1.524 . S
C1193 H1196 0.999 . S
C1194 H1164 0.950 . S
C1194 C1193 1.524 . S
C1194 C1195 1.415 . S
C1195 H1165 0.950 . S
C1195 C1190 1.363 . S
C1195 C1194 1.415 . S
H1196 C1193 0.999 . S
H1197 C1178 0.913 . S
H1198 C1216 0.951 . S
H1199 C1218 0.951 . S
H1200 C1220 0.950 . S
H1201 C1221 0.950 . S
H1202 C1223 0.950 . S
H1203 C1226 0.950 . S
H1204 C1227 0.950 . S
H1205 C1229 0.950 . S
H1206 C1230 0.950 . S
H1207 C1231 0.951 . S
H1208 C1233 0.951 . S
H1209 C1235 0.950 . S
H1210 C1236 0.950 . S
H1211 C1238 0.950 . S
H1212 C1241 0.950 . S
H1213 C1242 0.950 . S
H1214 C1244 0.950 . S
H1215 C1245 0.950 . S
C1216 H1198 0.951 . S
C1216 C1217 1.366 . S
C1216 C1218 1.388 . S
C1217 C1216 1.366 . S
C1217 C1221 1.385 . S
C1218 H1199 0.951 . S
C1218 C1216 1.388 . S
C1218 C1219 1.366 . S
C1219 C1218 1.366 . S
C1219 C1220 1.414 . S
C1219 C1222 1.499 . S
C1220 H1200 0.950 . S
C1220 C1219 1.414 . S
C1220 C1221 1.374 . S
C1221 H1201 0.950 . S
C1221 C1217 1.385 . S
C1221 C1220 1.374 . S
C1222 C1219 1.499 . S
C1222 C1223 1.373 . S
C1222 C1224 1.389 . S
C1223 H1202 0.950 . S
C1223 C1222 1.373 . S
C1223 C1239 1.377 . S
C1224 C1222 1.389 . S
C1224 C1225 1.524 . S
C1224 C1238 1.377 . S
C1225 C1224 1.524 . S
C1225 C1226 1.397 . S
C1225 C1230 1.363 . S
C1226 H1203 0.950 . S
C1226 C1225 1.397 . S
C1226 C1227 1.334 . S
C1227 H1204 0.950 . S
C1227 C1226 1.334 . S
C1227 C1228 1.287 . S
C1228 C1227 1.287 . S
C1228 C1229 1.524 . S
C1228 H1247 0.913 . S
C1229 H1205 0.950 . S
C1229 C1228 1.524 . S
C1229 C1230 1.415 . S
C1230 H1206 0.950 . S
C1230 C1225 1.363 . S
C1230 C1229 1.415 . S
C1231 H1207 0.951 . S
C1231 C1232 1.366 . S
C1231 C1233 1.388 . S
C1232 C1231 1.366 . S
C1232 C1236 1.385 . S
C1233 H1208 0.951 . S
C1233 C1231 1.388 . S
C1233 C1234 1.366 . S
C1234 C1233 1.366 . S
C1234 C1235 1.414 . S
C1234 C1237 1.499 . S
C1235 H1209 0.950 . S
C1235 C1234 1.414 . S
C1235 C1236 1.374 . S
C1236 H1210 0.950 . S
C1236 C1232 1.385 . S
C1236 C1235 1.374 . S
C1237 C1234 1.499 . S
C1237 C1238 1.373 . S
C1237 C1239 1.389 . S
C1238 H1211 0.950 . S
C1238 C1224 1.377 . S
C1238 C1237 1.373 . S
C1239 C1223 1.377 . S
C1239 C1237 1.389 . S
C1239 C1240 1.524 . S
C1240 C1239 1.524 . S
C1240 C1241 1.397 . S
C1240 C1245 1.363 . S
C1241 H1212 0.950 . S
C1241 C1240 1.397 . S
C1241 C1242 1.334 . S
C1242 H1213 0.950 . S
C1242 C1241 1.334 . S
C1242 C1243 1.287 . S
C1243 C1242 1.287 . S
C1243 C1244 1.524 . S
C1243 H1246 0.999 . S
C1244 H1214 0.950 . S
C1244 C1243 1.524 . S
C1244 C1245 1.415 . S
C1245 H1215 0.950 . S
C1245 C1240 1.363 . S
C1245 C1244 1.415 . S
H1246 C1243 0.999 . S
H1247 C1228 0.913 . S
H1248 C1266 0.951 . S
H1249 C1268 0.951 . S
H1250 C1270 0.950 . S
H1251 C1271 0.950 . S
H1252 C1273 0.950 . S
H1253 C1276 0.950 . S
H1254 C1277 0.950 . S
H1255 C1279 0.950 . S
H1256 C1280 0.950 . S
H1257 C1281 0.951 . S
H1258 C1283 0.951 . S
H1259 C1285 0.950 . S
H1260 C1286 0.950 . S
H1261 C1288 0.950 . S
H1262 C1291 0.950 . S
H1263 C1292 0.950 . S
H1264 C1294 0.950 . S
H1265 C1295 0.950 . S
C1266 H1248 0.951 . S
C1266 C1267 1.366 . S
C1266 C1268 1.388 . S
C1267 C1266 1.366 . S
C1267 C1271 1.385 . S
C1268 H1249 0.951 . S
C1268 C1266 1.388 . S
C1268 C1269 1.366 . S
C1269 C1268 1.366 . S
C1269 C1270 1.414 . S
C1269 C1272 1.499 . S
C1270 H1250 0.950 . S
C1270 C1269 1.414 . S
C1270 C1271 1.374 . S
C1271 H1251 0.950 . S
C1271 C1267 1.385 . S
C1271 C1270 1.374 . S
C1272 C1269 1.499 . S
C1272 C1273 1.373 . S
C1272 C1274 1.389 . S
C1273 H1252 0.950 . S
C1273 C1272 1.373 . S
C1273 C1289 1.377 . S
C1274 C1272 1.389 . S
C1274 C1275 1.524 . S
C1274 C1288 1.377 . S
C1275 C1274 1.524 . S
C1275 C1276 1.397 . S
C1275 C1280 1.363 . S
C1276 H1253 0.950 . S
C1276 C1275 1.397 . S
C1276 C1277 1.334 . S
C1277 H1254 0.950 . S
C1277 C1276 1.334 . S
C1277 C1278 1.287 . S
C1278 C1277 1.287 . S
C1278 C1279 1.524 . S
C1278 H1297 0.913 . S
C1279 H1255 0.950 . S
C1279 C1278 1.524 . S
C1279 C1280 1.415 . S
C1280 H1256 0.950 . S
C1280 C1275 1.363 . S
C1280 C1279 1.415 . S
C1281 H1257 0.951 . S
C1281 C1282 1.366 . S
C1281 C1283 1.388 . S
C1282 C1281 1.366 . S
C1282 C1286 1.385 . S
C1283 H1258 0.951 . S
C1283 C1281 1.388 . S
C1283 C1284 1.366 . S
C1284 C1283 1.366 . S
C1284 C1285 1.414 . S
C1284 C1287 1.499 . S
C1285 H1259 0.950 . S
C1285 C1284 1.414 . S
C1285 C1286 1.374 . S
C1286 H1260 0.950 . S
C1286 C1282 1.385 . S
C1286 C1285 1.374 . S
C1287 C1284 1.499 . S
C1287 C1288 1.373 . S
C1287 C1289 1.389 . S
C1288 H1261 0.950 . S
C1288 C1274 1.377 . S
C1288 C1287 1.373 . S
C1289 C1273 1.377 . S
C1289 C1287 1.389 . S
C1289 C1290 1.524 . S
C1290 C1289 1.524 . S
C1290 C1291 1.397 . S
C1290 C1295 1.363 . S
C1291 H1262 0.950 . S
C1291 C1290 1.397 . S
C1291 C1292 1.334 . S
C1292 H1263 0.950 . S
C1292 C1291 1.334 . S
C1292 C1293 1.287 . S
C1293 C1292 1.287 . S
C1293 C1294 1.524 . S
C1293 H1296 0.999 . S
C1294 H1264 0.950 . S
C1294 C1293 1.524 . S
C1294 C1295 1.415 . S
C1295 H1265 0.950 . S
C1295 C1290 1.363 . S
C1295 C1294 1.415 . S
H1296 C1293 0.999 . S
H1297 C1278 0.913 . S
H1298 C1316 0.951 . S
H1299 C1318 0.951 . S
H1300 C1320 0.950 . S
H1301 C1321 0.950 . S
H1302 C1323 0.950 . S
H1303 C1326 0.950 . S
H1304 C1327 0.950 . S
H1305 C1329 0.950 . S
H1306 C1330 0.950 . S
H1307 C1331 0.951 . S
H1308 C1333 0.951 . S
H1309 C1335 0.950 . S
H1310 C1336 0.950 . S
H1311 C1338 0.950 . S
H1312 C1341 0.950 . S
H1313 C1342 0.950 . S
H1314 C1344 0.950 . S
H1315 C1345 0.950 . S
C1316 H1298 0.951 . S
C1316 C1317 1.366 . S
C1316 C1318 1.388 . S
C1317 C1316 1.366 . S
C1317 C1321 1.385 . S
C1318 H1299 0.951 . S
C1318 C1316 1.388 . S
C1318 C1319 1.366 . S
C1319 C1318 1.366 . S
C1319 C1320 1.414 . S
C1319 C1322 1.499 . S
C1320 H1300 0.950 . S
C1320 C1319 1.414 . S
C1320 C1321 1.374 . S
C1321 H1301 0.950 . S
C1321 C1317 1.385 . S
C1321 C1320 1.374 . S
C1322 C1319 1.499 . S
C1322 C1323 1.373 . S
C1322 C1324 1.389 . S
C1323 H1302 0.950 . S
C1323 C1322 1.373 . S
C1323 C1339 1.377 . S
C1324 C1322 1.389 . S
C1324 C1325 1.524 . S
C1324 C1338 1.377 . S
C1325 C1324 1.524 . S
C1325 C1326 1.397 . S
C1325 C1330 1.363 . S
C1326 H1303 0.950 . S
C1326 C1325 1.397 . S
C1326 C1327 1.334 . S
C1327 H1304 0.950 . S
C1327 C1326 1.334 . S
C1327 C1328 1.287 . S
C1328 C1327 1.287 . S
C1328 C1329 1.524 . S
C1328 H1347 0.913 . S
C1329 H1305 0.950 . S
C1329 C1328 1.524 . S
C1329 C1330 1.415 . S
C1330 H1306 0.950 . S
C1330 C1325 1.363 . S
C1330 C1329 1.415 . S
C1331 H1307 0.951 . S
C1331 C1332 1.366 1_655 S
C1331 C1333 1.388 . S
C1332 C1331 1.366 1_455 S
C1332 C1336 1.385 . S
C1333 H1308 0.951 . S
C1333 C1331 1.388 . S
C1333 C1334 1.366 . S
C1334 C1333 1.366 . S
C1334 C1335 1.414 . S
C1334 C1337 1.499 . S
C1335 H1309 0.950 . S
C1335 C1334 1.414 . S
C1335 C1336 1.374 1_655 S
C1336 H1310 0.950 . S
C1336 C1332 1.385 . S
C1336 C1335 1.374 1_455 S
C1337 C1334 1.499 . S
C1337 C1338 1.373 . S
C1337 C1339 1.389 . S
C1338 H1311 0.950 . S
C1338 C1324 1.377 . S
C1338 C1337 1.373 . S
C1339 C1323 1.377 . S
C1339 C1337 1.389 . S
C1339 C1340 1.524 . S
C1340 C1339 1.524 . S
C1340 C1341 1.397 . S
C1340 C1345 1.363 . S
C1341 H1312 0.950 . S
C1341 C1340 1.397 . S
C1341 C1342 1.334 . S
C1342 H1313 0.950 . S
C1342 C1341 1.334 . S
C1342 C1343 1.287 . S
C1343 C1342 1.287 . S
C1343 C1344 1.524 . S
C1343 H1346 0.999 . S
C1344 H1314 0.950 . S
C1344 C1343 1.524 . S
C1344 C1345 1.415 . S
C1345 H1315 0.950 . S
C1345 C1340 1.363 . S
C1345 C1344 1.415 . S
H1346 C1343 0.999 . S
H1347 C1328 0.913 . S
H1348 C1366 0.951 . S
H1349 C1368 0.951 . S
H1350 C1370 0.950 . S
H1351 C1371 0.950 . S
H1352 C1373 0.950 . S
H1353 C1376 0.950 . S
H1354 C1377 0.950 . S
H1355 C1379 0.950 . S
H1356 C1380 0.950 . S
H1357 C1381 0.951 . S
H1358 C1383 0.951 . S
H1359 C1385 0.950 . S
H1360 C1386 0.950 . S
H1361 C1388 0.950 . S
H1362 C1391 0.950 . S
H1363 C1392 0.950 . S
H1364 C1394 0.950 . S
H1365 C1395 0.950 . S
C1366 H1348 0.951 . S
C1366 C1367 1.366 . S
C1366 C1368 1.388 . S
C1367 C1366 1.366 . S
C1367 C1371 1.385 . S
C1368 H1349 0.951 . S
C1368 C1366 1.388 . S
C1368 C1369 1.366 . S
C1369 C1368 1.366 . S
C1369 C1370 1.414 . S
C1369 C1372 1.499 . S
C1370 H1350 0.950 . S
C1370 C1369 1.414 . S
C1370 C1371 1.374 . S
C1371 H1351 0.950 . S
C1371 C1367 1.385 . S
C1371 C1370 1.374 . S
C1372 C1369 1.499 . S
C1372 C1373 1.373 . S
C1372 C1374 1.389 . S
C1373 H1352 0.950 . S
C1373 C1372 1.373 . S
C1373 C1389 1.377 . S
C1374 C1372 1.389 . S
C1374 C1375 1.524 . S
C1374 C1388 1.377 . S
C1375 C1374 1.524 . S
C1375 C1376 1.397 . S
C1375 C1380 1.363 . S
C1376 H1353 0.950 . S
C1376 C1375 1.397 . S
C1376 C1377 1.334 . S
C1377 H1354 0.950 . S
C1377 C1376 1.334 . S
C1377 C1378 1.287 . S
C1378 C1377 1.287 . S
C1378 C1379 1.524 . S
C1378 H1397 0.913 . S
C1379 H1355 0.950 . S
C1379 C1378 1.524 . S
C1379 C1380 1.415 . S
C1380 H1356 0.950 . S
C1380 C1375 1.363 . S
C1380 C1379 1.415 . S
C1381 H1357 0.951 . S
C1381 C1382 1.366 . S
C1381 C1383 1.388 . S
C1382 C1381 1.366 . S
C1382 C1386 1.385 . S
C1383 H1358 0.951 . S
C1383 C1381 1.388 . S
C1383 C1384 1.366 . S
C1384 C1383 1.366 . S
C1384 C1385 1.414 . S
C1384 C1387 1.499 . S
C1385 H1359 0.950 . S
C1385 C1384 1.414 . S
C1385 C1386 1.374 . S
C1386 H1360 0.950 . S
C1386 C1382 1.385 . S
C1386 C1385 1.374 . S
C1387 C1384 1.499 . S
C1387 C1388 1.373 . S
C1387 C1389 1.389 . S
C1388 H1361 0.950 . S
C1388 C1374 1.377 . S
C1388 C1387 1.373 . S
C1389 C1373 1.377 . S
C1389 C1387 1.389 . S
C1389 C1390 1.524 . S
C1390 C1389 1.524 . S
C1390 C1391 1.397 . S
C1390 C1395 1.363 . S
C1391 H1362 0.950 . S
C1391 C1390 1.397 . S
C1391 C1392 1.334 . S
C1392 H1363 0.950 . S
C1392 C1391 1.334 . S
C1392 C1393 1.287 . S
C1393 C1392 1.287 . S
C1393 C1394 1.524 . S
C1393 H1396 0.999 . S
C1394 H1364 0.950 . S
C1394 C1393 1.524 . S
C1394 C1395 1.415 . S
C1395 H1365 0.950 . S
C1395 C1390 1.363 . S
C1395 C1394 1.415 . S
H1396 C1393 0.999 . S
H1397 C1378 0.913 . S
H1398 C1416 0.951 . S
H1399 C1418 0.951 . S
H1400 C1420 0.950 . S
H1401 C1421 0.950 . S
H1402 C1423 0.950 . S
H1403 C1426 0.950 . S
H1404 C1427 0.950 . S
H1405 C1429 0.950 . S
H1406 C1430 0.950 . S
H1407 C1431 0.951 . S
H1408 C1433 0.951 . S
H1409 C1435 0.950 . S
H1410 C1436 0.950 . S
H1411 C1438 0.950 . S
H1412 C1441 0.950 . S
H1413 C1442 0.950 . S
H1414 C1444 0.950 . S
H1415 C1445 0.950 . S
C1416 H1398 0.951 . S
C1416 C1417 1.366 . S
C1416 C1418 1.388 . S
C1417 C1416 1.366 . S
C1417 C1421 1.385 . S
C1418 H1399 0.951 . S
C1418 C1416 1.388 . S
C1418 C1419 1.366 . S
C1419 C1418 1.366 . S
C1419 C1420 1.414 . S
C1419 C1422 1.499 . S
C1420 H1400 0.950 . S
C1420 C1419 1.414 . S
C1420 C1421 1.374 . S
C1421 H1401 0.950 . S
C1421 C1417 1.385 . S
C1421 C1420 1.374 . S
C1422 C1419 1.499 . S
C1422 C1423 1.373 . S
C1422 C1424 1.389 . S
C1423 H1402 0.950 . S
C1423 C1422 1.373 . S
C1423 C1439 1.377 . S
C1424 C1422 1.389 . S
C1424 C1425 1.524 . S
C1424 C1438 1.377 . S
C1425 C1424 1.524 . S
C1425 C1426 1.397 . S
C1425 C1430 1.363 . S
C1426 H1403 0.950 . S
C1426 C1425 1.397 . S
C1426 C1427 1.334 . S
C1427 H1404 0.950 . S
C1427 C1426 1.334 . S
C1427 C1428 1.287 . S
C1428 C1427 1.287 . S
C1428 C1429 1.524 . S
C1428 H1447 0.913 . S
C1429 H1405 0.950 . S
C1429 C1428 1.524 . S
C1429 C1430 1.415 . S
C1430 H1406 0.950 . S
C1430 C1425 1.363 . S
C1430 C1429 1.415 . S
C1431 H1407 0.951 . S
C1431 C1432 1.366 . S
C1431 C1433 1.388 . S
C1432 C1431 1.366 . S
C1432 C1436 1.385 . S
C1433 H1408 0.951 . S
C1433 C1431 1.388 . S
C1433 C1434 1.366 . S
C1434 C1433 1.366 . S
C1434 C1435 1.414 . S
C1434 C1437 1.499 . S
C1435 H1409 0.950 . S
C1435 C1434 1.414 . S
C1435 C1436 1.374 . S
C1436 H1410 0.950 . S
C1436 C1432 1.385 . S
C1436 C1435 1.374 . S
C1437 C1434 1.499 . S
C1437 C1438 1.373 . S
C1437 C1439 1.389 . S
C1438 H1411 0.950 . S
C1438 C1424 1.377 . S
C1438 C1437 1.373 . S
C1439 C1423 1.377 . S
C1439 C1437 1.389 . S
C1439 C1440 1.524 . S
C1440 C1439 1.524 . S
C1440 C1441 1.397 . S
C1440 C1445 1.363 . S
C1441 H1412 0.950 . S
C1441 C1440 1.397 . S
C1441 C1442 1.334 . S
C1442 H1413 0.950 . S
C1442 C1441 1.334 . S
C1442 C1443 1.287 . S
C1443 C1442 1.287 . S
C1443 C1444 1.524 . S
C1443 H1446 0.999 . S
C1444 H1414 0.950 . S
C1444 C1443 1.524 . S
C1444 C1445 1.415 . S
C1445 H1415 0.950 . S
C1445 C1440 1.363 . S
C1445 C1444 1.415 . S
H1446 C1443 0.999 . S
H1447 C1428 0.913 . S
H1448 C1466 0.951 . S
H1449 C1468 0.951 . S
H1450 C1470 0.950 . S
H1451 C1471 0.950 . S
H1452 C1473 0.950 . S
H1453 C1476 0.950 . S
H1454 C1477 0.950 . S
H1455 C1479 0.950 . S
H1456 C1480 0.950 . S
H1457 C1481 0.951 . S
H1458 C1483 0.951 . S
H1459 C1485 0.950 . S
H1460 C1486 0.950 . S
H1461 C1488 0.950 . S
H1462 C1491 0.950 . S
H1463 C1492 0.950 . S
H1464 C1494 0.950 . S
H1465 C1495 0.950 . S
C1466 H1448 0.951 . S
C1466 C1467 1.366 . S
C1466 C1468 1.388 . S
C1467 C1466 1.366 . S
C1467 C1471 1.385 . S
C1468 H1449 0.951 . S
C1468 C1466 1.388 . S
C1468 C1469 1.366 . S
C1469 C1468 1.366 . S
C1469 C1470 1.414 . S
C1469 C1472 1.499 . S
C1470 H1450 0.950 . S
C1470 C1469 1.414 . S
C1470 C1471 1.374 . S
C1471 H1451 0.950 . S
C1471 C1467 1.385 . S
C1471 C1470 1.374 . S
C1472 C1469 1.499 . S
C1472 C1473 1.373 . S
C1472 C1474 1.389 . S
C1473 H1452 0.950 . S
C1473 C1472 1.373 . S
C1473 C1489 1.377 . S
C1474 C1472 1.389 . S
C1474 C1475 1.524 . S
C1474 C1488 1.377 . S
C1475 C1474 1.524 . S
C1475 C1476 1.397 . S
C1475 C1480 1.363 . S
C1476 H1453 0.950 . S
C1476 C1475 1.397 . S
C1476 C1477 1.334 . S
C1477 H1454 0.950 . S
C1477 C1476 1.334 . S
C1477 C1478 1.287 . S
C1478 C1477 1.287 . S
C1478 C1479 1.524 . S
C1478 H1497 0.913 . S
C1479 H1455 0.950 . S
C1479 C1478 1.524 . S
C1479 C1480 1.415 . S
C1480 H1456 0.950 . S
C1480 C1475 1.363 . S
C1480 C1479 1.415 . S
C1481 H1457 0.951 . S
C1481 C1482 1.366 . S
C1481 C1483 1.388 . S
C1482 C1481 1.366 . S
C1482 C1486 1.385 . S
C1483 H1458 0.951 . S
C1483 C1481 1.388 . S
C1483 C1484 1.366 . S
C1484 C1483 1.366 . S
C1484 C1485 1.414 . S
C1484 C1487 1.499 . S
C1485 H1459 0.950 . S
C1485 C1484 1.414 . S
C1485 C1486 1.374 . S
C1486 H1460 0.950 . S
C1486 C1482 1.385 . S
C1486 C1485 1.374 . S
C1487 C1484 1.499 . S
C1487 C1488 1.373 . S
C1487 C1489 1.389 . S
C1488 H1461 0.950 . S
C1488 C1474 1.377 . S
C1488 C1487 1.373 . S
C1489 C1473 1.377 . S
C1489 C1487 1.389 . S
C1489 C1490 1.524 . S
C1490 C1489 1.524 . S
C1490 C1491 1.397 . S
C1490 C1495 1.363 . S
C1491 H1462 0.950 . S
C1491 C1490 1.397 . S
C1491 C1492 1.334 . S
C1492 H1463 0.950 . S
C1492 C1491 1.334 . S
C1492 C1493 1.287 . S
C1493 C1492 1.287 . S
C1493 C1494 1.524 . S
C1493 H1496 0.999 . S
C1494 H1464 0.950 . S
C1494 C1493 1.524 . S
C1494 C1495 1.415 . S
C1495 H1465 0.950 . S
C1495 C1490 1.363 . S
C1495 C1494 1.415 . S
H1496 C1493 0.999 . S
H1497 C1478 0.913 . S
H1498 C1516 0.951 . S
H1499 C1518 0.951 . S
H1500 C1520 0.950 . S
H1501 C1521 0.950 . S
H1502 C1523 0.950 . S
H1503 C1526 0.950 . S
H1504 C1527 0.950 . S
H1505 C1529 0.950 . S
H1506 C1530 0.950 . S
H1507 C1531 0.951 . S
H1508 C1533 0.951 . S
H1509 C1535 0.950 . S
H1510 C1536 0.950 . S
H1511 C1538 0.950 . S
H1512 C1541 0.950 . S
H1513 C1542 0.950 . S
H1514 C1544 0.950 . S
H1515 C1545 0.950 . S
C1516 H1498 0.951 . S
C1516 C1517 1.366 . S
C1516 C1518 1.388 . S
C1517 C1516 1.366 . S
C1517 C1521 1.385 . S
C1518 H1499 0.951 . S
C1518 C1516 1.388 . S
C1518 C1519 1.366 . S
C1519 C1518 1.366 . S
C1519 C1520 1.414 . S
C1519 C1522 1.499 . S
C1520 H1500 0.950 . S
C1520 C1519 1.414 . S
C1520 C1521 1.374 . S
C1521 H1501 0.950 . S
C1521 C1517 1.385 . S
C1521 C1520 1.374 . S
C1522 C1519 1.499 . S
C1522 C1523 1.373 . S
C1522 C1524 1.389 . S
C1523 H1502 0.950 . S
C1523 C1522 1.373 . S
C1523 C1539 1.377 . S
C1524 C1522 1.389 . S
C1524 C1525 1.524 . S
C1524 C1538 1.377 . S
C1525 C1524 1.524 . S
C1525 C1526 1.397 . S
C1525 C1530 1.363 . S
C1526 H1503 0.950 . S
C1526 C1525 1.397 . S
C1526 C1527 1.334 . S
C1527 H1504 0.950 . S
C1527 C1526 1.334 . S
C1527 C1528 1.287 . S
C1528 C1527 1.287 . S
C1528 C1529 1.524 . S
C1528 H1547 0.913 . S
C1529 H1505 0.950 . S
C1529 C1528 1.524 . S
C1529 C1530 1.415 . S
C1530 H1506 0.950 . S
C1530 C1525 1.363 . S
C1530 C1529 1.415 . S
C1531 H1507 0.951 . S
C1531 C1532 1.366 . S
C1531 C1533 1.388 . S
C1532 C1531 1.366 . S
C1532 C1536 1.385 . S
C1533 H1508 0.951 . S
C1533 C1531 1.388 . S
C1533 C1534 1.366 . S
C1534 C1533 1.366 . S
C1534 C1535 1.414 . S
C1534 C1537 1.499 . S
C1535 H1509 0.950 . S
C1535 C1534 1.414 . S
C1535 C1536 1.374 . S
C1536 H1510 0.950 . S
C1536 C1532 1.385 . S
C1536 C1535 1.374 . S
C1537 C1534 1.499 . S
C1537 C1538 1.373 . S
C1537 C1539 1.389 . S
C1538 H1511 0.950 . S
C1538 C1524 1.377 . S
C1538 C1537 1.373 . S
C1539 C1523 1.377 . S
C1539 C1537 1.389 . S
C1539 C1540 1.524 . S
C1540 C1539 1.524 . S
C1540 C1541 1.397 . S
C1540 C1545 1.363 . S
C1541 H1512 0.950 . S
C1541 C1540 1.397 . S
C1541 C1542 1.334 . S
C1542 H1513 0.950 . S
C1542 C1541 1.334 . S
C1542 C1543 1.287 . S
C1543 C1542 1.287 . S
C1543 C1544 1.524 . S
C1543 H1546 0.999 . S
C1544 H1514 0.950 . S
C1544 C1543 1.524 . S
C1544 C1545 1.415 . S
C1545 H1515 0.950 . S
C1545 C1540 1.363 . S
C1545 C1544 1.415 . S
H1546 C1543 0.999 . S
H1547 C1528 0.913 . S
H1548 C1566 0.951 . S
H1549 C1568 0.951 . S
H1550 C1570 0.950 . S
H1551 C1571 0.950 . S
H1552 C1573 0.950 . S
H1553 C1576 0.950 . S
H1554 C1577 0.950 . S
H1555 C1579 0.950 . S
H1556 C1580 0.950 . S
H1557 C1581 0.951 . S
H1558 C1583 0.951 . S
H1559 C1585 0.950 . S
H1560 C1586 0.950 . S
H1561 C1588 0.950 . S
H1562 C1591 0.950 . S
H1563 C1592 0.950 . S
H1564 C1594 0.950 . S
H1565 C1595 0.950 . S
C1566 H1548 0.951 . S
C1566 C1567 1.366 . S
C1566 C1568 1.388 . S
C1567 C1566 1.366 . S
C1567 C1571 1.385 . S
C1568 H1549 0.951 . S
C1568 C1566 1.388 . S
C1568 C1569 1.366 . S
C1569 C1568 1.366 . S
C1569 C1570 1.414 . S
C1569 C1572 1.499 . S
C1570 H1550 0.950 . S
C1570 C1569 1.414 . S
C1570 C1571 1.374 . S
C1571 H1551 0.950 . S
C1571 C1567 1.385 . S
C1571 C1570 1.374 . S
C1572 C1569 1.499 . S
C1572 C1573 1.373 . S
C1572 C1574 1.389 . S
C1573 H1552 0.950 . S
C1573 C1572 1.373 . S
C1573 C1589 1.377 . S
C1574 C1572 1.389 . S
C1574 C1575 1.524 . S
C1574 C1588 1.377 . S
C1575 C1574 1.524 . S
C1575 C1576 1.397 . S
C1575 C1580 1.363 . S
C1576 H1553 0.950 . S
C1576 C1575 1.397 . S
C1576 C1577 1.334 . S
C1577 H1554 0.950 . S
C1577 C1576 1.334 . S
C1577 C1578 1.287 . S
C1578 C1577 1.287 . S
C1578 C1579 1.524 . S
C1578 H1597 0.913 . S
C1579 H1555 0.950 . S
C1579 C1578 1.524 . S
C1579 C1580 1.415 . S
C1580 H1556 0.950 . S
C1580 C1575 1.363 . S
C1580 C1579 1.415 . S
C1581 H1557 0.951 . S
C1581 C1582 1.366 . S
C1581 C1583 1.388 . S
C1582 C1581 1.366 . S
C1582 C1586 1.385 . S
C1583 H1558 0.951 . S
C1583 C1581 1.388 . S
C1583 C1584 1.366 . S
C1584 C1583 1.366 . S
C1584 C1585 1.414 . S
C1584 C1587 1.499 . S
C1585 H1559 0.950 . S
C1585 C1584 1.414 . S
C1585 C1586 1.374 . S
C1586 H1560 0.950 . S
C1586 C1582 1.385 . S
C1586 C1585 1.374 . S
C1587 C1584 1.499 . S
C1587 C1588 1.373 . S
C1587 C1589 1.389 . S
C1588 H1561 0.950 . S
C1588 C1574 1.377 . S
C1588 C1587 1.373 . S
C1589 C1573 1.377 . S
C1589 C1587 1.389 . S
C1589 C1590 1.524 . S
C1590 C1589 1.524 . S
C1590 C1591 1.397 . S
C1590 C1595 1.363 . S
C1591 H1562 0.950 . S
C1591 C1590 1.397 . S
C1591 C1592 1.334 . S
C1592 H1563 0.950 . S
C1592 C1591 1.334 . S
C1592 C1593 1.287 . S
C1593 C1592 1.287 . S
C1593 C1594 1.524 . S
C1593 H1596 0.999 . S
C1594 H1564 0.950 . S
C1594 C1593 1.524 . S
C1594 C1595 1.415 . S
C1595 H1565 0.950 . S
C1595 C1590 1.363 . S
C1595 C1594 1.415 . S
H1596 C1593 0.999 . S
H1597 C1578 0.913 . S
H1598 C1616 0.951 . S
H1599 C1618 0.951 . S
H1600 C1620 0.950 . S
H1601 C1621 0.950 . S
H1602 C1623 0.950 . S
H1603 C1626 0.950 . S
H1604 C1627 0.950 1_455 S
H1605 C1629 0.950 . S
H1606 C1630 0.950 . S
H1607 C1631 0.951 . S
H1608 C1633 0.951 . S
H1609 C1635 0.950 . S
H1610 C1636 0.950 . S
H1611 C1638 0.950 . S
H1612 C1641 0.950 . S
H1613 C1642 0.950 . S
H1614 C1644 0.950 . S
H1615 C1645 0.950 . S
C1616 H1598 0.951 . S
C1616 C1617 1.366 1_655 S
C1616 C1618 1.388 . S
C1617 C1616 1.366 1_455 S
C1617 C1621 1.385 . S
C1618 H1599 0.951 . S
C1618 C1616 1.388 . S
C1618 C1619 1.366 . S
C1619 C1618 1.366 . S
C1619 C1620 1.414 . S
C1619 C1622 1.499 . S
C1620 H1600 0.950 . S
C1620 C1619 1.414 . S
C1620 C1621 1.374 1_655 S
C1621 H1601 0.950 . S
C1621 C1617 1.385 . S
C1621 C1620 1.374 1_455 S
C1622 C1619 1.499 . S
C1622 C1623 1.373 . S
C1622 C1624 1.389 . S
C1623 H1602 0.950 . S
C1623 C1622 1.373 . S
C1623 C1639 1.377 . S
C1624 C1622 1.389 . S
C1624 C1625 1.524 . S
C1624 C1638 1.377 . S
C1625 C1624 1.524 . S
C1625 C1626 1.397 . S
C1625 C1630 1.363 . S
C1626 H1603 0.950 . S
C1626 C1625 1.397 . S
C1626 C1627 1.334 . S
C1627 H1604 0.950 1_655 S
C1627 C1626 1.334 . S
C1627 C1628 1.287 . S
C1628 C1627 1.287 . S
C1628 C1629 1.524 . S
C1628 H1647 0.913 . S
C1629 H1605 0.950 . S
C1629 C1628 1.524 . S
C1629 C1630 1.415 . S
C1630 H1606 0.950 . S
C1630 C1625 1.363 . S
C1630 C1629 1.415 . S
C1631 H1607 0.951 . S
C1631 C1632 1.366 . S
C1631 C1633 1.388 . S
C1632 C1631 1.366 . S
C1632 C1636 1.385 . S
C1633 H1608 0.951 . S
C1633 C1631 1.388 . S
C1633 C1634 1.366 . S
C1634 C1633 1.366 . S
C1634 C1635 1.414 . S
C1634 C1637 1.499 . S
C1635 H1609 0.950 . S
C1635 C1634 1.414 . S
C1635 C1636 1.374 . S
C1636 H1610 0.950 . S
C1636 C1632 1.385 . S
C1636 C1635 1.374 . S
C1637 C1634 1.499 . S
C1637 C1638 1.373 . S
C1637 C1639 1.389 . S
C1638 H1611 0.950 . S
C1638 C1624 1.377 . S
C1638 C1637 1.373 . S
C1639 C1623 1.377 . S
C1639 C1637 1.389 . S
C1639 C1640 1.524 . S
C1640 C1639 1.524 . S
C1640 C1641 1.397 . S
C1640 C1645 1.363 . S
C1641 H1612 0.950 . S
C1641 C1640 1.397 . S
C1641 C1642 1.334 . S
C1642 H1613 0.950 . S
C1642 C1641 1.334 . S
C1642 C1643 1.287 . S
C1643 C1642 1.287 . S
C1643 C1644 1.524 . S
C1643 H1646 0.999 . S
C1644 H1614 0.950 . S
C1644 C1643 1.524 . S
C1644 C1645 1.415 . S
C1645 H1615 0.950 . S
C1645 C1640 1.363 . S
C1645 C1644 1.415 . S
H1646 C1643 0.999 . S
H1647 C1628 0.913 . S
H1648 C1666 0.951 . S
H1649 C1668 0.951 . S
H1650 C1670 0.950 . S
H1651 C1671 0.950 . S
H1652 C1673 0.950 . S
H1653 C1676 0.950 . S
H1654 C1677 0.950 . S
H1655 C1679 0.950 . S
H1656 C1680 0.950 . S
H1657 C1681 0.951 . S
H1658 C1683 0.951 . S
H1659 C1685 0.950 . S
H1660 C1686 0.950 . S
H1661 C1688 0.950 . S
H1662 C1691 0.950 . S
H1663 C1692 0.950 . S
H1664 C1694 0.950 . S
H1665 C1695 0.950 . S
C1666 H1648 0.951 . S
C1666 C1667 1.366 . S
C1666 C1668 1.388 . S
C1667 C1666 1.366 . S
C1667 C1671 1.385 . S
C1668 H1649 0.951 . S
C1668 C1666 1.388 . S
C1668 C1669 1.366 . S
C1669 C1668 1.366 . S
C1669 C1670 1.414 . S
C1669 C1672 1.499 . S
C1670 H1650 0.950 . S
C1670 C1669 1.414 . S
C1670 C1671 1.374 . S
C1671 H1651 0.950 . S
C1671 C1667 1.385 . S
C1671 C1670 1.374 . S
C1672 C1669 1.499 . S
C1672 C1673 1.373 . S
C1672 C1674 1.389 . S
C1673 H1652 0.950 . S
C1673 C1672 1.373 . S
C1673 C1689 1.377 . S
C1674 C1672 1.389 . S
C1674 C1675 1.524 . S
C1674 C1688 1.377 . S
C1675 C1674 1.524 . S
C1675 C1676 1.397 . S
C1675 C1680 1.363 . S
C1676 H1653 0.950 . S
C1676 C1675 1.397 . S
C1676 C1677 1.334 . S
C1677 H1654 0.950 . S
C1677 C1676 1.334 . S
C1677 C1678 1.287 . S
C1678 C1677 1.287 . S
C1678 C1679 1.524 . S
C1678 H1697 0.913 . S
C1679 H1655 0.950 . S
C1679 C1678 1.524 . S
C1679 C1680 1.415 . S
C1680 H1656 0.950 . S
C1680 C1675 1.363 . S
C1680 C1679 1.415 . S
C1681 H1657 0.951 . S
C1681 C1682 1.366 . S
C1681 C1683 1.388 . S
C1682 C1681 1.366 . S
C1682 C1686 1.385 . S
C1683 H1658 0.951 . S
C1683 C1681 1.388 . S
C1683 C1684 1.366 . S
C1684 C1683 1.366 . S
C1684 C1685 1.414 . S
C1684 C1687 1.499 . S
C1685 H1659 0.950 . S
C1685 C1684 1.414 . S
C1685 C1686 1.374 . S
C1686 H1660 0.950 . S
C1686 C1682 1.385 . S
C1686 C1685 1.374 . S
C1687 C1684 1.499 . S
C1687 C1688 1.373 . S
C1687 C1689 1.389 . S
C1688 H1661 0.950 . S
C1688 C1674 1.377 . S
C1688 C1687 1.373 . S
C1689 C1673 1.377 . S
C1689 C1687 1.389 . S
C1689 C1690 1.524 . S
C1690 C1689 1.524 . S
C1690 C1691 1.397 . S
C1690 C1695 1.363 . S
C1691 H1662 0.950 . S
C1691 C1690 1.397 . S
C1691 C1692 1.334 . S
C1692 H1663 0.950 . S
C1692 C1691 1.334 . S
C1692 C1693 1.287 . S
C1693 C1692 1.287 . S
C1693 C1694 1.524 . S
C1693 H1696 0.999 . S
C1694 H1664 0.950 . S
C1694 C1693 1.524 . S
C1694 C1695 1.415 . S
C1695 H1665 0.950 . S
C1695 C1690 1.363 . S
C1695 C1694 1.415 . S
H1696 C1693 0.999 . S
H1697 C1678 0.913 . S
H1698 C1716 0.951 . S
H1699 C1718 0.951 . S
H1700 C1720 0.950 . S
H1701 C1721 0.950 . S
H1702 C1723 0.950 . S
H1703 C1726 0.950 . S
H1704 C1727 0.950 . S
H1705 C1729 0.950 . S
H1706 C1730 0.950 . S
H1707 C1731 0.951 . S
H1708 C1733 0.951 . S
H1709 C1735 0.950 . S
H1710 C1736 0.950 . S
H1711 C1738 0.950 . S
H1712 C1741 0.950 . S
H1713 C1742 0.950 . S
H1714 C1744 0.950 . S
H1715 C1745 0.950 . S
C1716 H1698 0.951 . S
C1716 C1717 1.366 1_455 S
C1716 C1718 1.388 . S
C1717 C1716 1.366 1_655 S
C1717 C1721 1.385 . S
C1718 H1699 0.951 . S
C1718 C1716 1.388 . S
C1718 C1719 1.366 . S
C1719 C1718 1.366 . S
C1719 C1720 1.414 . S
C1719 C1722 1.499 . S
C1720 H1700 0.950 . S
C1720 C1719 1.414 . S
C1720 C1721 1.374 1_455 S
C1721 H1701 0.950 . S
C1721 C1717 1.385 . S
C1721 C1720 1.374 1_655 S
C1722 C1719 1.499 . S
C1722 C1723 1.373 . S
C1722 C1724 1.389 . S
C1723 H1702 0.950 . S
C1723 C1722 1.373 . S
C1723 C1739 1.377 . S
C1724 C1722 1.389 . S
C1724 C1725 1.524 . S
C1724 C1738 1.377 . S
C1725 C1724 1.524 . S
C1725 C1726 1.397 . S
C1725 C1730 1.363 . S
C1726 H1703 0.950 . S
C1726 C1725 1.397 . S
C1726 C1727 1.334 . S
C1727 H1704 0.950 . S
C1727 C1726 1.334 . S
C1727 C1728 1.287 . S
C1728 C1727 1.287 . S
C1728 C1729 1.524 . S
C1728 H1747 0.913 . S
C1729 H1705 0.950 . S
C1729 C1728 1.524 . S
C1729 C1730 1.415 . S
C1730 H1706 0.950 . S
C1730 C1725 1.363 . S
C1730 C1729 1.415 . S
C1731 H1707 0.951 . S
C1731 C1732 1.366 . S
C1731 C1733 1.388 . S
C1732 C1731 1.366 . S
C1732 C1736 1.385 . S
C1733 H1708 0.951 . S
C1733 C1731 1.388 . S
C1733 C1734 1.366 . S
C1734 C1733 1.366 . S
C1734 C1735 1.414 . S
C1734 C1737 1.499 . S
C1735 H1709 0.950 . S
C1735 C1734 1.414 . S
C1735 C1736 1.374 . S
C1736 H1710 0.950 . S
C1736 C1732 1.385 . S
C1736 C1735 1.374 . S
C1737 C1734 1.499 . S
C1737 C1738 1.373 . S
C1737 C1739 1.389 . S
C1738 H1711 0.950 . S
C1738 C1724 1.377 . S
C1738 C1737 1.373 . S
C1739 C1723 1.377 . S
C1739 C1737 1.389 . S
C1739 C1740 1.524 . S
C1740 C1739 1.524 . S
C1740 C1741 1.397 . S
C1740 C1745 1.363 . S
C1741 H1712 0.950 . S
C1741 C1740 1.397 . S
C1741 C1742 1.334 . S
C1742 H1713 0.950 . S
C1742 C1741 1.334 . S
C1742 C1743 1.287 . S
C1743 C1742 1.287 . S
C1743 C1744 1.524 . S
C1743 H1746 0.999 . S
C1744 H1714 0.950 . S
C1744 C1743 1.524 . S
C1744 C1745 1.415 . S
C1745 H1715 0.950 . S
C1745 C1740 1.363 . S
C1745 C1744 1.415 . S
H1746 C1743 0.999 . S
H1747 C1728 0.913 . S
H1748 C1766 0.951 . S
H1749 C1768 0.951 . S
H1750 C1770 0.950 . S
H1751 C1771 0.950 . S
H1752 C1773 0.950 . S
H1753 C1776 0.950 . S
H1754 C1777 0.950 . S
H1755 C1779 0.950 . S
H1756 C1780 0.950 . S
H1757 C1781 0.951 . S
H1758 C1783 0.951 . S
H1759 C1785 0.950 . S
H1760 C1786 0.950 . S
H1761 C1788 0.950 . S
H1762 C1791 0.950 . S
H1763 C1792 0.950 . S
H1764 C1794 0.950 . S
H1765 C1795 0.950 . S
C1766 H1748 0.951 . S
C1766 C1767 1.366 . S
C1766 C1768 1.388 . S
C1767 C1766 1.366 . S
C1767 C1771 1.385 . S
C1768 H1749 0.951 . S
C1768 C1766 1.388 . S
C1768 C1769 1.366 . S
C1769 C1768 1.366 . S
C1769 C1770 1.414 . S
C1769 C1772 1.499 . S
C1770 H1750 0.950 . S
C1770 C1769 1.414 . S
C1770 C1771 1.374 . S
C1771 H1751 0.950 . S
C1771 C1767 1.385 . S
C1771 C1770 1.374 . S
C1772 C1769 1.499 . S
C1772 C1773 1.373 . S
C1772 C1774 1.389 . S
C1773 H1752 0.950 . S
C1773 C1772 1.373 . S
C1773 C1789 1.377 . S
C1774 C1772 1.389 . S
C1774 C1775 1.524 . S
C1774 C1788 1.377 . S
C1775 C1774 1.524 . S
C1775 C1776 1.397 . S
C1775 C1780 1.363 . S
C1776 H1753 0.950 . S
C1776 C1775 1.397 . S
C1776 C1777 1.334 . S
C1777 H1754 0.950 . S
C1777 C1776 1.334 . S
C1777 C1778 1.287 . S
C1778 C1777 1.287 . S
C1778 C1779 1.524 . S
C1778 H1797 0.913 . S
C1779 H1755 0.950 . S
C1779 C1778 1.524 . S
C1779 C1780 1.415 . S
C1780 H1756 0.950 . S
C1780 C1775 1.363 . S
C1780 C1779 1.415 . S
C1781 H1757 0.951 . S
C1781 C1782 1.366 . S
C1781 C1783 1.388 . S
C1782 C1781 1.366 . S
C1782 C1786 1.385 . S
C1783 H1758 0.951 . S
C1783 C1781 1.388 . S
C1783 C1784 1.366 . S
C1784 C1783 1.366 . S
C1784 C1785 1.414 . S
C1784 C1787 1.499 . S
C1785 H1759 0.950 . S
C1785 C1784 1.414 . S
C1785 C1786 1.374 . S
C1786 H1760 0.950 . S
C1786 C1782 1.385 . S
C1786 C1785 1.374 . S
C1787 C1784 1.499 . S
C1787 C1788 1.373 . S
C1787 C1789 1.389 . S
C1788 H1761 0.950 . S
C1788 C1774 1.377 . S
C1788 C1787 1.373 . S
C1789 C1773 1.377 . S
C1789 C1787 1.389 . S
C1789 C1790 1.524 . S
C1790 C1789 1.524 . S
C1790 C1791 1.397 . S
C1790 C1795 1.363 . S
C1791 H1762 0.950 . S
C1791 C1790 1.397 . S
C1791 C1792 1.334 . S
C1792 H1763 0.950 . S
C1792 C1791 1.334 . S
C1792 C1793 1.287 . S
C1793 C1792 1.287 . S
C1793 C1794 1.524 . S
C1793 H1796 0.999 . S
C1794 H1764 0.950 . S
C1794 C1793 1.524 . S
C1794 C1795 1.415 . S
C1795 H1765 0.950 . S
C1795 C1790 1.363 . S
C1795 C1794 1.415 . S
H1796 C1793 0.999 . S
H1797 C1778 0.913 . S
H1798 C1816 0.951 . S
H1799 C1818 0.951 . S
H1800 C1820 0.950 . S
H1801 C1821 0.950 . S
H1802 C1823 0.950 . S
H1803 C1826 0.950 . S
H1804 C1827 0.950 . S
H1805 C1829 0.950 . S
H1806 C1830 0.950 . S
H1807 C1831 0.951 . S
H1808 C1833 0.951 . S
H1809 C1835 0.950 . S
H1810 C1836 0.950 . S
H1811 C1838 0.950 . S
H1812 C1841 0.950 . S
H1813 C1842 0.950 . S
H1814 C1844 0.950 . S
H1815 C1845 0.950 . S
C1816 H1798 0.951 . S
C1816 C1817 1.366 . S
C1816 C1818 1.388 . S
C1817 C1816 1.366 . S
C1817 C1821 1.385 . S
C1818 H1799 0.951 . S
C1818 C1816 1.388 . S
C1818 C1819 1.366 . S
C1819 C1818 1.366 . S
C1819 C1820 1.414 . S
C1819 C1822 1.499 . S
C1820 H1800 0.950 . S
C1820 C1819 1.414 . S
C1820 C1821 1.374 . S
C1821 H1801 0.950 . S
C1821 C1817 1.385 . S
C1821 C1820 1.374 . S
C1822 C1819 1.499 . S
C1822 C1823 1.373 . S
C1822 C1824 1.389 . S
C1823 H1802 0.950 . S
C1823 C1822 1.373 . S
C1823 C1839 1.377 . S
C1824 C1822 1.389 . S
C1824 C1825 1.524 . S
C1824 C1838 1.377 . S
C1825 C1824 1.524 . S
C1825 C1826 1.397 . S
C1825 C1830 1.363 . S
C1826 H1803 0.950 . S
C1826 C1825 1.397 . S
C1826 C1827 1.334 . S
C1827 H1804 0.950 . S
C1827 C1826 1.334 . S
C1827 C1828 1.287 . S
C1828 C1827 1.287 . S
C1828 C1829 1.524 . S
C1828 H1847 0.913 . S
C1829 H1805 0.950 . S
C1829 C1828 1.524 . S
C1829 C1830 1.415 . S
C1830 H1806 0.950 . S
C1830 C1825 1.363 . S
C1830 C1829 1.415 . S
C1831 H1807 0.951 . S
C1831 C1832 1.366 . S
C1831 C1833 1.388 . S
C1832 C1831 1.366 . S
C1832 C1836 1.385 . S
C1833 H1808 0.951 . S
C1833 C1831 1.388 . S
C1833 C1834 1.366 . S
C1834 C1833 1.366 . S
C1834 C1835 1.414 . S
C1834 C1837 1.499 . S
C1835 H1809 0.950 . S
C1835 C1834 1.414 . S
C1835 C1836 1.374 . S
C1836 H1810 0.950 . S
C1836 C1832 1.385 . S
C1836 C1835 1.374 . S
C1837 C1834 1.499 . S
C1837 C1838 1.373 . S
C1837 C1839 1.389 . S
C1838 H1811 0.950 . S
C1838 C1824 1.377 . S
C1838 C1837 1.373 . S
C1839 C1823 1.377 . S
C1839 C1837 1.389 . S
C1839 C1840 1.524 . S
C1840 C1839 1.524 . S
C1840 C1841 1.397 . S
C1840 C1845 1.363 . S
C1841 H1812 0.950 . S
C1841 C1840 1.397 . S
C1841 C1842 1.334 . S
C1842 H1813 0.950 . S
C1842 C1841 1.334 . S
C1842 C1843 1.287 . S
C1843 C1842 1.287 . S
C1843 C1844 1.524 . S
C1843 H1846 0.999 . S
C1844 H1814 0.950 . S
C1844 C1843 1.524 . S
C1844 C1845 1.415 . S
C1845 H1815 0.950 . S
C1845 C1840 1.363 . S
C1845 C1844 1.415 . S
H1846 C1843 0.999 . S
H1847 C1828 0.913 . S
H1848 C1866 0.951 . S
H1849 C1868 0.951 . S
H1850 C1870 0.950 . S
H1851 C1871 0.950 . S
H1852 C1873 0.950 . S
H1853 C1876 0.950 . S
H1854 C1877 0.950 . S
H1855 C1879 0.950 . S
H1856 C1880 0.950 . S
H1857 C1881 0.951 . S
H1858 C1883 0.951 . S
H1859 C1885 0.950 . S
H1860 C1886 0.950 . S
H1861 C1888 0.950 . S
H1862 C1891 0.950 . S
H1863 C1892 0.950 . S
H1864 C1894 0.950 . S
H1865 C1895 0.950 . S
C1866 H1848 0.951 . S
C1866 C1867 1.366 . S
C1866 C1868 1.388 . S
C1867 C1866 1.366 . S
C1867 C1871 1.385 . S
C1868 H1849 0.951 . S
C1868 C1866 1.388 . S
C1868 C1869 1.366 . S
C1869 C1868 1.366 . S
C1869 C1870 1.414 . S
C1869 C1872 1.499 . S
C1870 H1850 0.950 . S
C1870 C1869 1.414 . S
C1870 C1871 1.374 . S
C1871 H1851 0.950 . S
C1871 C1867 1.385 . S
C1871 C1870 1.374 . S
C1872 C1869 1.499 . S
C1872 C1873 1.373 . S
C1872 C1874 1.389 . S
C1873 H1852 0.950 . S
C1873 C1872 1.373 . S
C1873 C1889 1.377 . S
C1874 C1872 1.389 . S
C1874 C1875 1.524 . S
C1874 C1888 1.377 . S
C1875 C1874 1.524 . S
C1875 C1876 1.397 . S
C1875 C1880 1.363 . S
C1876 H1853 0.950 . S
C1876 C1875 1.397 . S
C1876 C1877 1.334 . S
C1877 H1854 0.950 . S
C1877 C1876 1.334 . S
C1877 C1878 1.287 . S
C1878 C1877 1.287 . S
C1878 C1879 1.524 . S
C1878 H1897 0.913 . S
C1879 H1855 0.950 . S
C1879 C1878 1.524 . S
C1879 C1880 1.415 . S
C1880 H1856 0.950 . S
C1880 C1875 1.363 . S
C1880 C1879 1.415 . S
C1881 H1857 0.951 . S
C1881 C1882 1.366 . S
C1881 C1883 1.388 . S
C1882 C1881 1.366 . S
C1882 C1886 1.385 . S
C1883 H1858 0.951 . S
C1883 C1881 1.388 . S
C1883 C1884 1.366 . S
C1884 C1883 1.366 . S
C1884 C1885 1.414 . S
C1884 C1887 1.499 . S
C1885 H1859 0.950 . S
C1885 C1884 1.414 . S
C1885 C1886 1.374 . S
C1886 H1860 0.950 . S
C1886 C1882 1.385 . S
C1886 C1885 1.374 . S
C1887 C1884 1.499 . S
C1887 C1888 1.373 . S
C1887 C1889 1.389 . S
C1888 H1861 0.950 . S
C1888 C1874 1.377 . S
C1888 C1887 1.373 . S
C1889 C1873 1.377 . S
C1889 C1887 1.389 . S
C1889 C1890 1.524 . S
C1890 C1889 1.524 . S
C1890 C1891 1.397 . S
C1890 C1895 1.363 . S
C1891 H1862 0.950 . S
C1891 C1890 1.397 . S
C1891 C1892 1.334 . S
C1892 H1863 0.950 . S
C1892 C1891 1.334 . S
C1892 C1893 1.287 . S
C1893 C1892 1.287 . S
C1893 C1894 1.524 . S
C1893 H1896 0.999 . S
C1894 H1864 0.950 . S
C1894 C1893 1.524 . S
C1894 C1895 1.415 . S
C1895 H1865 0.950 . S
C1895 C1890 1.363 . S
C1895 C1894 1.415 . S
H1896 C1893 0.999 . S
H1897 C1878 0.913 . S
H1898 C1916 0.951 . S
H1899 C1918 0.951 . S
H1900 C1920 0.950 . S
H1901 C1921 0.950 . S
H1902 C1923 0.950 . S
H1903 C1926 0.950 . S
H1904 C1927 0.950 . S
H1905 C1929 0.950 . S
H1906 C1930 0.950 . S
H1907 C1931 0.951 . S
H1908 C1933 0.951 . S
H1909 C1935 0.950 . S
H1910 C1936 0.950 . S
H1911 C1938 0.950 . S
H1912 C1941 0.950 . S
H1913 C1942 0.950 . S
H1914 C1944 0.950 . S
H1915 C1945 0.950 . S
C1916 H1898 0.951 . S
C1916 C1917 1.366 . S
C1916 C1918 1.388 . S
C1917 C1916 1.366 . S
C1917 C1921 1.385 . S
C1918 H1899 0.951 . S
C1918 C1916 1.388 . S
C1918 C1919 1.366 . S
C1919 C1918 1.366 . S
C1919 C1920 1.414 . S
C1919 C1922 1.499 . S
C1920 H1900 0.950 . S
C1920 C1919 1.414 . S
C1920 C1921 1.374 . S
C1921 H1901 0.950 . S
C1921 C1917 1.385 . S
C1921 C1920 1.374 . S
C1922 C1919 1.499 . S
C1922 C1923 1.373 . S
C1922 C1924 1.389 . S
C1923 H1902 0.950 . S
C1923 C1922 1.373 . S
C1923 C1939 1.377 . S
C1924 C1922 1.389 . S
C1924 C1925 1.524 . S
C1924 C1938 1.377 . S
C1925 C1924 1.524 . S
C1925 C1926 1.397 . S
C1925 C1930 1.363 . S
C1926 H1903 0.950 . S
C1926 C1925 1.397 . S
C1926 C1927 1.334 . S
C1927 H1904 0.950 . S
C1927 C1926 1.334 . S
C1927 C1928 1.287 . S
C1928 C1927 1.287 . S
C1928 C1929 1.524 . S
C1928 H1947 0.913 . S
C1929 H1905 0.950 . S
C1929 C1928 1.524 . S
C1929 C1930 1.415 . S
C1930 H1906 0.950 . S
C1930 C1925 1.363 . S
C1930 C1929 1.415 . S
C1931 H1907 0.951 . S
C1931 C1932 1.366 . S
C1931 C1933 1.388 . S
C1932 C1931 1.366 . S
C1932 C1936 1.385 . S
C1933 H1908 0.951 . S
C1933 C1931 1.388 . S
C1933 C1934 1.366 . S
C1934 C1933 1.366 . S
C1934 C1935 1.414 . S
C1934 C1937 1.499 . S
C1935 H1909 0.950 . S
C1935 C1934 1.414 . S
C1935 C1936 1.374 . S
C1936 H1910 0.950 . S
C1936 C1932 1.385 . S
C1936 C1935 1.374 . S
C1937 C1934 1.499 . S
C1937 C1938 1.373 . S
C1937 C1939 1.389 . S
C1938 H1911 0.950 . S
C1938 C1924 1.377 . S
C1938 C1937 1.373 . S
C1939 C1923 1.377 . S
C1939 C1937 1.389 . S
C1939 C1940 1.524 . S
C1940 C1939 1.524 . S
C1940 C1941 1.397 . S
C1940 C1945 1.363 . S
C1941 H1912 0.950 . S
C1941 C1940 1.397 . S
C1941 C1942 1.334 . S
C1942 H1913 0.950 . S
C1942 C1941 1.334 . S
C1942 C1943 1.287 . S
C1943 C1942 1.287 . S
C1943 C1944 1.524 . S
C1943 H1946 0.999 . S
C1944 H1914 0.950 . S
C1944 C1943 1.524 . S
C1944 C1945 1.415 . S
C1945 H1915 0.950 . S
C1945 C1940 1.363 . S
C1945 C1944 1.415 . S
H1946 C1943 0.999 . S
H1947 C1928 0.913 . S
H1948 C1966 0.951 . S
H1949 C1968 0.951 . S
H1950 C1970 0.950 . S
H1951 C1971 0.950 . S
H1952 C1973 0.950 . S
H1953 C1976 0.950 . S
H1954 C1977 0.950 . S
H1955 C1979 0.950 . S
H1956 C1980 0.950 . S
H1957 C1981 0.951 . S
H1958 C1983 0.951 . S
H1959 C1985 0.950 . S
H1960 C1986 0.950 . S
H1961 C1988 0.950 . S
H1962 C1991 0.950 . S
H1963 C1992 0.950 . S
H1964 C1994 0.950 . S
H1965 C1995 0.950 . S
C1966 H1948 0.951 . S
C1966 C1967 1.366 . S
C1966 C1968 1.388 . S
C1967 C1966 1.366 . S
C1967 C1971 1.385 . S
C1968 H1949 0.951 . S
C1968 C1966 1.388 . S
C1968 C1969 1.366 . S
C1969 C1968 1.366 . S
C1969 C1970 1.414 . S
C1969 C1972 1.499 . S
C1970 H1950 0.950 . S
C1970 C1969 1.414 . S
C1970 C1971 1.374 . S
C1971 H1951 0.950 . S
C1971 C1967 1.385 . S
C1971 C1970 1.374 . S
C1972 C1969 1.499 . S
C1972 C1973 1.373 . S
C1972 C1974 1.389 . S
C1973 H1952 0.950 . S
C1973 C1972 1.373 . S
C1973 C1989 1.377 . S
C1974 C1972 1.389 . S
C1974 C1975 1.524 . S
C1974 C1988 1.377 . S
C1975 C1974 1.524 . S
C1975 C1976 1.397 . S
C1975 C1980 1.363 . S
C1976 H1953 0.950 . S
C1976 C1975 1.397 . S
C1976 C1977 1.334 . S
C1977 H1954 0.950 . S
C1977 C1976 1.334 . S
C1977 C1978 1.287 . S
C1978 C1977 1.287 . S
C1978 C1979 1.524 . S
C1978 H1997 0.913 . S
C1979 H1955 0.950 . S
C1979 C1978 1.524 . S
C1979 C1980 1.415 . S
C1980 H1956 0.950 . S
C1980 C1975 1.363 . S
C1980 C1979 1.415 . S
C1981 H1957 0.951 . S
C1981 C1982 1.366 . S
C1981 C1983 1.388 . S
C1982 C1981 1.366 . S
C1982 C1986 1.385 . S
C1983 H1958 0.951 . S
C1983 C1981 1.388 . S
C1983 C1984 1.366 . S
C1984 C1983 1.366 . S
C1984 C1985 1.414 . S
C1984 C1987 1.499 . S
C1985 H1959 0.950 . S
C1985 C1984 1.414 . S
C1985 C1986 1.374 . S
C1986 H1960 0.950 . S
C1986 C1982 1.385 . S
C1986 C1985 1.374 . S
C1987 C1984 1.499 . S
C1987 C1988 1.373 . S
C1987 C1989 1.389 . S
C1988 H1961 0.950 . S
C1988 C1974 1.377 . S
C1988 C1987 1.373 . S
C1989 C1973 1.377 . S
C1989 C1987 1.389 . S
C1989 C1990 1.524 . S
C1990 C1989 1.524 . S
C1990 C1991 1.397 . S
C1990 C1995 1.363 . S
C1991 H1962 0.950 . S
C1991 C1990 1.397 . S
C1991 C1992 1.334 . S
C1992 H1963 0.950 . S
C1992 C1991 1.334 . S
C1992 C1993 1.287 . S
C1993 C1992 1.287 . S
C1993 C1994 1.524 . S
C1993 H1996 0.999 . S
C1994 H1964 0.950 . S
C1994 C1993 1.524 . S
C1994 C1995 1.415 . S
C1995 H1965 0.950 . S
C1995 C1990 1.363 . S
C1995 C1994 1.415 . S
H1996 C1993 0.999 . S
H1997 C1978 0.913 . S
H1998 C2016 0.951 . S
H1999 C2018 0.951 . S
H2000 C2020 0.950 . S
H2001 C2021 0.950 . S
H2002 C2023 0.950 . S
H2003 C2026 0.950 . S
H2004 C2027 0.950 . S
H2005 C2029 0.950 . S
H2006 C2030 0.950 . S
H2007 C2031 0.955 . S
H2008 C2033 0.951 . S
H2009 C2035 0.950 . S
H2010 C2036 0.947 1_655 S
H2011 C2038 0.950 . S
H2012 C2041 0.950 . S
H2013 C2042 0.950 . S
H2014 C2044 0.950 . S
H2015 C2045 0.950 . S
C2016 H1998 0.951 . S
C2016 C2017 1.366 . S
C2016 C2018 1.388 . S
C2017 C2016 1.366 . S
C2017 C2021 1.385 . S
C2018 H1999 0.951 . S
C2018 C2016 1.388 . S
C2018 C2019 1.366 . S
C2019 C2018 1.366 . S
C2019 C2020 1.414 . S
C2019 C2022 1.499 . S
C2020 H2000 0.950 . S
C2020 C2019 1.414 . S
C2020 C2021 1.374 . S
C2021 H2001 0.950 . S
C2021 C2017 1.385 . S
C2021 C2020 1.374 . S
C2022 C2019 1.499 . S
C2022 C2023 1.373 . S
C2022 C2024 1.389 . S
C2023 H2002 0.950 . S
C2023 C2022 1.373 . S
C2023 C2039 1.377 . S
C2024 C2022 1.389 . S
C2024 C2025 1.524 . S
C2024 C2038 1.377 . S
C2025 C2024 1.524 . S
C2025 C2026 1.397 . S
C2025 C2030 1.363 . S
C2026 H2003 0.950 . S
C2026 C2025 1.397 . S
C2026 C2027 1.334 . S
C2027 H2004 0.950 . S
C2027 C2026 1.334 . S
C2027 C2028 1.287 . S
C2028 C2027 1.287 . S
C2028 C2029 1.524 . S
C2028 H2047 0.913 . S
C2029 H2005 0.950 . S
C2029 C2028 1.524 . S
C2029 C2030 1.415 . S
C2030 H2006 0.950 . S
C2030 C2025 1.363 . S
C2030 C2029 1.415 . S
C2031 H2007 0.955 . S
C2031 C2032 1.366 1_455 S
C2031 C2033 1.388 . S
C2032 C2031 1.366 1_655 S
C2032 C2036 1.383 1_655 S
C2033 H2008 0.951 . S
C2033 C2031 1.388 . S
C2033 C2034 1.366 . S
C2034 C2033 1.366 . S
C2034 C2035 1.414 . S
C2034 C2037 1.499 . S
C2035 H2009 0.950 . S
C2035 C2034 1.414 . S
C2035 C2036 1.378 . S
C2036 H2010 0.947 1_455 S
C2036 C2032 1.383 1_455 S
C2036 C2035 1.378 . S
C2037 C2034 1.499 . S
C2037 C2038 1.373 . S
C2037 C2039 1.389 . S
C2038 H2011 0.950 . S
C2038 C2024 1.377 . S
C2038 C2037 1.373 . S
C2039 C2023 1.377 . S
C2039 C2037 1.389 . S
C2039 C2040 1.524 . S
C2040 C2039 1.524 . S
C2040 C2041 1.397 . S
C2040 C2045 1.363 . S
C2041 H2012 0.950 . S
C2041 C2040 1.397 . S
C2041 C2042 1.334 1_455 S
C2042 H2013 0.950 . S
C2042 C2041 1.334 1_655 S
C2042 C2043 1.287 . S
C2043 C2042 1.287 . S
C2043 C2044 1.524 1_655 S
C2043 H2046 0.999 . S
C2044 H2014 0.950 . S
C2044 C2043 1.524 1_455 S
C2044 C2045 1.415 . S
C2045 H2015 0.950 . S
C2045 C2040 1.363 . S
C2045 C2044 1.415 . S
H2046 C2043 0.999 . S
H2047 C2028 0.913 . S
H2048 C2066 0.951 . S
H2049 C2068 0.951 . S
H2050 C2070 0.950 . S
H2051 C2071 0.950 . S
H2052 C2073 0.950 . S
H2053 C2076 0.950 . S
H2054 C2077 0.950 . S
H2055 C2079 0.950 . S
H2056 C2080 0.950 . S
H2057 C2081 0.951 . S
H2058 C2083 0.951 . S
H2059 C2085 0.950 . S
H2060 C2086 0.950 . S
H2061 C2088 0.950 . S
H2062 C2091 0.950 . S
H2063 C2092 0.950 . S
H2064 C2094 0.950 . S
H2065 C2095 0.950 . S
C2066 H2048 0.951 . S
C2066 C2067 1.366 . S
C2066 C2068 1.388 . S
C2067 C2066 1.366 . S
C2067 C2071 1.385 . S
C2068 H2049 0.951 . S
C2068 C2066 1.388 . S
C2068 C2069 1.366 . S
C2069 C2068 1.366 . S
C2069 C2070 1.414 . S
C2069 C2072 1.499 . S
C2070 H2050 0.950 . S
C2070 C2069 1.414 . S
C2070 C2071 1.374 . S
C2071 H2051 0.950 . S
C2071 C2067 1.385 . S
C2071 C2070 1.374 . S
C2072 C2069 1.499 . S
C2072 C2073 1.373 . S
C2072 C2074 1.389 . S
C2073 H2052 0.950 . S
C2073 C2072 1.373 . S
C2073 C2089 1.377 . S
C2074 C2072 1.389 . S
C2074 C2075 1.524 . S
C2074 C2088 1.377 . S
C2075 C2074 1.524 . S
C2075 C2076 1.397 . S
C2075 C2080 1.363 . S
C2076 H2053 0.950 . S
C2076 C2075 1.397 . S
C2076 C2077 1.334 . S
C2077 H2054 0.950 . S
C2077 C2076 1.334 . S
C2077 C2078 1.287 . S
C2078 C2077 1.287 . S
C2078 C2079 1.524 . S
C2078 H2097 0.913 . S
C2079 H2055 0.950 . S
C2079 C2078 1.524 . S
C2079 C2080 1.415 . S
C2080 H2056 0.950 . S
C2080 C2075 1.363 . S
C2080 C2079 1.415 . S
C2081 H2057 0.951 . S
C2081 C2082 1.366 . S
C2081 C2083 1.388 . S
C2082 C2081 1.366 . S
C2082 C2086 1.385 . S
C2083 H2058 0.951 . S
C2083 C2081 1.388 . S
C2083 C2084 1.366 . S
C2084 C2083 1.366 . S
C2084 C2085 1.414 . S
C2084 C2087 1.499 . S
C2085 H2059 0.950 . S
C2085 C2084 1.414 . S
C2085 C2086 1.374 . S
C2086 H2060 0.950 . S
C2086 C2082 1.385 . S
C2086 C2085 1.374 . S
C2087 C2084 1.499 . S
C2087 C2088 1.373 . S
C2087 C2089 1.389 . S
C2088 H2061 0.950 . S
C2088 C2074 1.377 . S
C2088 C2087 1.373 . S
C2089 C2073 1.377 . S
C2089 C2087 1.389 . S
C2089 C2090 1.524 . S
C2090 C2089 1.524 . S
C2090 C2091 1.397 . S
C2090 C2095 1.363 . S
C2091 H2062 0.950 . S
C2091 C2090 1.397 . S
C2091 C2092 1.334 . S
C2092 H2063 0.950 . S
C2092 C2091 1.334 . S
C2092 C2093 1.287 . S
C2093 C2092 1.287 . S
C2093 C2094 1.524 . S
C2093 H2096 0.999 . S
C2094 H2064 0.950 . S
C2094 C2093 1.524 . S
C2094 C2095 1.415 . S
C2095 H2065 0.950 . S
C2095 C2090 1.363 . S
C2095 C2094 1.415 . S
H2096 C2093 0.999 . S
H2097 C2078 0.913 . S
H2098 C2116 0.951 . S
H2099 C2118 0.951 . S
H2100 C2120 0.950 . S
H2101 C2121 0.950 . S
H2102 C2123 0.950 . S
H2103 C2126 0.950 . S
H2104 C2127 0.950 . S
H2105 C2129 0.950 . S
H2106 C2130 0.950 . S
H2107 C2131 0.951 . S
H2108 C2133 0.951 . S
H2109 C2135 0.950 . S
H2110 C2136 0.950 . S
H2111 C2138 0.950 . S
H2112 C2141 0.950 . S
H2113 C2142 0.950 . S
H2114 C2144 0.950 . S
H2115 C2145 0.950 . S
C2116 H2098 0.951 . S
C2116 C2117 1.366 . S
C2116 C2118 1.388 . S
C2117 C2116 1.366 . S
C2117 C2121 1.385 . S
C2118 H2099 0.951 . S
C2118 C2116 1.388 . S
C2118 C2119 1.366 . S
C2119 C2118 1.366 . S
C2119 C2120 1.414 . S
C2119 C2122 1.499 . S
C2120 H2100 0.950 . S
C2120 C2119 1.414 . S
C2120 C2121 1.374 . S
C2121 H2101 0.950 . S
C2121 C2117 1.385 . S
C2121 C2120 1.374 . S
C2122 C2119 1.499 . S
C2122 C2123 1.373 . S
C2122 C2124 1.389 . S
C2123 H2102 0.950 . S
C2123 C2122 1.373 . S
C2123 C2139 1.377 . S
C2124 C2122 1.389 . S
C2124 C2125 1.524 . S
C2124 C2138 1.377 . S
C2125 C2124 1.524 . S
C2125 C2126 1.397 . S
C2125 C2130 1.363 . S
C2126 H2103 0.950 . S
C2126 C2125 1.397 . S
C2126 C2127 1.334 . S
C2127 H2104 0.950 . S
C2127 C2126 1.334 . S
C2127 C2128 1.287 . S
C2128 C2127 1.287 . S
C2128 C2129 1.524 . S
C2128 H2147 0.913 . S
C2129 H2105 0.950 . S
C2129 C2128 1.524 . S
C2129 C2130 1.415 . S
C2130 H2106 0.950 . S
C2130 C2125 1.363 . S
C2130 C2129 1.415 . S
C2131 H2107 0.951 . S
C2131 C2132 1.366 . S
C2131 C2133 1.388 . S
C2132 C2131 1.366 . S
C2132 C2136 1.385 . S
C2133 H2108 0.951 . S
C2133 C2131 1.388 . S
C2133 C2134 1.366 . S
C2134 C2133 1.366 . S
C2134 C2135 1.414 . S
C2134 C2137 1.499 . S
C2135 H2109 0.950 . S
C2135 C2134 1.414 . S
C2135 C2136 1.374 . S
C2136 H2110 0.950 . S
C2136 C2132 1.385 . S
C2136 C2135 1.374 . S
C2137 C2134 1.499 . S
C2137 C2138 1.373 . S
C2137 C2139 1.389 . S
C2138 H2111 0.950 . S
C2138 C2124 1.377 . S
C2138 C2137 1.373 . S
C2139 C2123 1.377 . S
C2139 C2137 1.389 . S
C2139 C2140 1.524 . S
C2140 C2139 1.524 . S
C2140 C2141 1.397 . S
C2140 C2145 1.363 . S
C2141 H2112 0.950 . S
C2141 C2140 1.397 . S
C2141 C2142 1.334 . S
C2142 H2113 0.950 . S
C2142 C2141 1.334 . S
C2142 C2143 1.287 . S
C2143 C2142 1.287 . S
C2143 C2144 1.524 . S
C2143 H2146 0.999 . S
C2144 H2114 0.950 . S
C2144 C2143 1.524 . S
C2144 C2145 1.415 . S
C2145 H2115 0.950 . S
C2145 C2140 1.363 . S
C2145 C2144 1.415 . S
H2146 C2143 0.999 . S
H2147 C2128 0.913 . S
H2148 C2166 0.951 . S
H2149 C2168 0.951 . S
H2150 C2170 0.950 . S
H2151 C2171 0.950 . S
H2152 C2173 0.950 . S
H2153 C2176 0.950 . S
H2154 C2177 0.950 . S
H2155 C2179 0.950 . S
H2156 C2180 0.950 . S
H2157 C2181 0.951 . S
H2158 C2183 0.951 . S
H2159 C2185 0.950 . S
H2160 C2186 0.950 . S
H2161 C2188 0.950 . S
H2162 C2191 0.950 . S
H2163 C2192 0.950 . S
H2164 C2194 0.950 . S
H2165 C2195 0.950 . S
C2166 H2148 0.951 . S
C2166 C2167 1.366 . S
C2166 C2168 1.388 . S
C2167 C2166 1.366 . S
C2167 C2171 1.385 . S
C2168 H2149 0.951 . S
C2168 C2166 1.388 . S
C2168 C2169 1.366 . S
C2169 C2168 1.366 . S
C2169 C2170 1.414 . S
C2169 C2172 1.499 . S
C2170 H2150 0.950 . S
C2170 C2169 1.414 . S
C2170 C2171 1.374 . S
C2171 H2151 0.950 . S
C2171 C2167 1.385 . S
C2171 C2170 1.374 . S
C2172 C2169 1.499 . S
C2172 C2173 1.373 . S
C2172 C2174 1.389 . S
C2173 H2152 0.950 . S
C2173 C2172 1.373 . S
C2173 C2189 1.377 . S
C2174 C2172 1.389 . S
C2174 C2175 1.524 . S
C2174 C2188 1.377 . S
C2175 C2174 1.524 . S
C2175 C2176 1.397 . S
C2175 C2180 1.363 . S
C2176 H2153 0.950 . S
C2176 C2175 1.397 . S
C2176 C2177 1.334 . S
C2177 H2154 0.950 . S
C2177 C2176 1.334 . S
C2177 C2178 1.287 . S
C2178 C2177 1.287 . S
C2178 C2179 1.524 . S
C2178 H2197 0.913 . S
C2179 H2155 0.950 . S
C2179 C2178 1.524 . S
C2179 C2180 1.415 . S
C2180 H2156 0.950 . S
C2180 C2175 1.363 . S
C2180 C2179 1.415 . S
C2181 H2157 0.951 . S
C2181 C2182 1.366 . S
C2181 C2183 1.388 . S
C2182 C2181 1.366 . S
C2182 C2186 1.385 . S
C2183 H2158 0.951 . S
C2183 C2181 1.388 . S
C2183 C2184 1.366 . S
C2184 C2183 1.366 . S
C2184 C2185 1.414 . S
C2184 C2187 1.499 . S
C2185 H2159 0.950 . S
C2185 C2184 1.414 . S
C2185 C2186 1.374 . S
C2186 H2160 0.950 . S
C2186 C2182 1.385 . S
C2186 C2185 1.374 . S
C2187 C2184 1.499 . S
C2187 C2188 1.373 . S
C2187 C2189 1.389 . S
C2188 H2161 0.950 . S
C2188 C2174 1.377 . S
C2188 C2187 1.373 . S
C2189 C2173 1.377 . S
C2189 C2187 1.389 . S
C2189 C2190 1.524 . S
C2190 C2189 1.524 . S
C2190 C2191 1.397 . S
C2190 C2195 1.363 . S
C2191 H2162 0.950 . S
C2191 C2190 1.397 . S
C2191 C2192 1.334 . S
C2192 H2163 0.950 . S
C2192 C2191 1.334 . S
C2192 C2193 1.287 . S
C2193 C2192 1.287 . S
C2193 C2194 1.524 . S
C2193 H2196 0.999 . S
C2194 H2164 0.950 . S
C2194 C2193 1.524 . S
C2194 C2195 1.415 . S
C2195 H2165 0.950 . S
C2195 C2190 1.363 . S
C2195 C2194 1.415 . S
H2196 C2193 0.999 . S
H2197 C2178 0.913 . S
H2198 C2216 0.951 . S
H2199 C2218 0.951 . S
H2200 C2220 0.950 . S
H2201 C2221 0.950 . S
H2202 C2223 0.950 . S
H2203 C2226 0.950 . S
H2204 C2227 0.950 . S
H2205 C2229 0.950 . S
H2206 C2230 0.950 . S
H2207 C2231 0.951 . S
H2208 C2233 0.951 . S
H2209 C2235 0.950 . S
H2210 C2236 0.950 . S
H2211 C2238 0.950 . S
H2212 C2241 0.950 . S
H2213 C2242 0.950 . S
H2214 C2244 0.950 . S
H2215 C2245 0.950 . S
C2216 H2198 0.951 . S
C2216 C2217 1.366 . S
C2216 C2218 1.388 . S
C2217 C2216 1.366 . S
C2217 C2221 1.385 . S
C2218 H2199 0.951 . S
C2218 C2216 1.388 . S
C2218 C2219 1.366 . S
C2219 C2218 1.366 . S
C2219 C2220 1.414 . S
C2219 C2222 1.499 . S
C2220 H2200 0.950 . S
C2220 C2219 1.414 . S
C2220 C2221 1.374 . S
C2221 H2201 0.950 . S
C2221 C2217 1.385 . S
C2221 C2220 1.374 . S
C2222 C2219 1.499 . S
C2222 C2223 1.373 . S
C2222 C2224 1.389 . S
C2223 H2202 0.950 . S
C2223 C2222 1.373 . S
C2223 C2239 1.377 . S
C2224 C2222 1.389 . S
C2224 C2225 1.524 . S
C2224 C2238 1.377 . S
C2225 C2224 1.524 . S
C2225 C2226 1.397 . S
C2225 C2230 1.363 . S
C2226 H2203 0.950 . S
C2226 C2225 1.397 . S
C2226 C2227 1.334 . S
C2227 H2204 0.950 . S
C2227 C2226 1.334 . S
C2227 C2228 1.287 . S
C2228 C2227 1.287 . S
C2228 C2229 1.524 . S
C2228 H2247 0.913 . S
C2229 H2205 0.950 . S
C2229 C2228 1.524 . S
C2229 C2230 1.415 . S
C2230 H2206 0.950 . S
C2230 C2225 1.363 . S
C2230 C2229 1.415 . S
C2231 H2207 0.951 . S
C2231 C2232 1.366 . S
C2231 C2233 1.388 1_655 S
C2232 C2231 1.366 . S
C2232 C2236 1.385 1_655 S
C2233 H2208 0.951 . S
C2233 C2231 1.388 1_455 S
C2233 C2234 1.366 . S
C2234 C2233 1.366 . S
C2234 C2235 1.414 . S
C2234 C2237 1.499 . S
C2235 H2209 0.950 . S
C2235 C2234 1.414 . S
C2235 C2236 1.374 . S
C2236 H2210 0.950 . S
C2236 C2232 1.385 1_455 S
C2236 C2235 1.374 . S
C2237 C2234 1.499 . S
C2237 C2238 1.373 . S
C2237 C2239 1.389 . S
C2238 H2211 0.950 . S
C2238 C2224 1.377 . S
C2238 C2237 1.373 . S
C2239 C2223 1.377 . S
C2239 C2237 1.389 . S
C2239 C2240 1.524 . S
C2240 C2239 1.524 . S
C2240 C2241 1.397 . S
C2240 C2245 1.363 . S
C2241 H2212 0.950 . S
C2241 C2240 1.397 . S
C2241 C2242 1.334 . S
C2242 H2213 0.950 . S
C2242 C2241 1.334 . S
C2242 C2243 1.287 . S
C2243 C2242 1.287 . S
C2243 C2244 1.524 . S
C2243 H2246 0.999 . S
C2244 H2214 0.950 . S
C2244 C2243 1.524 . S
C2244 C2245 1.415 . S
C2245 H2215 0.950 . S
C2245 C2240 1.363 . S
C2245 C2244 1.415 . S
H2246 C2243 0.999 . S
H2247 C2228 0.913 . S
H2248 C2266 0.951 . S
H2249 C2268 0.951 . S
H2250 C2270 0.950 . S
H2251 C2271 0.950 . S
H2252 C2273 0.950 . S
H2253 C2276 0.950 . S
H2254 C2277 0.950 . S
H2255 C2279 0.950 . S
H2256 C2280 0.950 . S
H2257 C2281 0.951 . S
H2258 C2283 0.951 . S
H2259 C2285 0.950 . S
H2260 C2286 0.950 . S
H2261 C2288 0.950 . S
H2262 C2291 0.950 . S
H2263 C2292 0.950 . S
H2264 C2294 0.950 . S
H2265 C2295 0.950 . S
C2266 H2248 0.951 . S
C2266 C2267 1.366 . S
C2266 C2268 1.388 . S
C2267 C2266 1.366 . S
C2267 C2271 1.385 . S
C2268 H2249 0.951 . S
C2268 C2266 1.388 . S
C2268 C2269 1.366 . S
C2269 C2268 1.366 . S
C2269 C2270 1.414 . S
C2269 C2272 1.499 . S
C2270 H2250 0.950 . S
C2270 C2269 1.414 . S
C2270 C2271 1.374 . S
C2271 H2251 0.950 . S
C2271 C2267 1.385 . S
C2271 C2270 1.374 . S
C2272 C2269 1.499 . S
C2272 C2273 1.373 . S
C2272 C2274 1.389 . S
C2273 H2252 0.950 . S
C2273 C2272 1.373 . S
C2273 C2289 1.377 . S
C2274 C2272 1.389 . S
C2274 C2275 1.524 . S
C2274 C2288 1.377 . S
C2275 C2274 1.524 . S
C2275 C2276 1.397 . S
C2275 C2280 1.363 . S
C2276 H2253 0.950 . S
C2276 C2275 1.397 . S
C2276 C2277 1.334 . S
C2277 H2254 0.950 . S
C2277 C2276 1.334 . S
C2277 C2278 1.287 . S
C2278 C2277 1.287 . S
C2278 C2279 1.524 . S
C2278 H2297 0.913 . S
C2279 H2255 0.950 . S
C2279 C2278 1.524 . S
C2279 C2280 1.415 . S
C2280 H2256 0.950 . S
C2280 C2275 1.363 . S
C2280 C2279 1.415 . S
C2281 H2257 0.951 . S
C2281 C2282 1.366 . S
C2281 C2283 1.388 . S
C2282 C2281 1.366 . S
C2282 C2286 1.385 . S
C2283 H2258 0.951 . S
C2283 C2281 1.388 . S
C2283 C2284 1.366 . S
C2284 C2283 1.366 . S
C2284 C2285 1.414 . S
C2284 C2287 1.499 . S
C2285 H2259 0.950 . S
C2285 C2284 1.414 . S
C2285 C2286 1.374 . S
C2286 H2260 0.950 . S
C2286 C2282 1.385 . S
C2286 C2285 1.374 . S
C2287 C2284 1.499 . S
C2287 C2288 1.373 . S
C2287 C2289 1.389 . S
C2288 H2261 0.950 . S
C2288 C2274 1.377 . S
C2288 C2287 1.373 . S
C2289 C2273 1.377 . S
C2289 C2287 1.389 . S
C2289 C2290 1.524 . S
C2290 C2289 1.524 . S
C2290 C2291 1.397 . S
C2290 C2295 1.363 . S
C2291 H2262 0.950 . S
C2291 C2290 1.397 . S
C2291 C2292 1.334 . S
C2292 H2263 0.950 . S
C2292 C2291 1.334 . S
C2292 C2293 1.287 . S
C2293 C2292 1.287 . S
C2293 C2294 1.524 . S
C2293 H2296 0.999 . S
C2294 H2264 0.950 . S
C2294 C2293 1.524 . S
C2294 C2295 1.415 . S
C2295 H2265 0.950 . S
C2295 C2290 1.363 . S
C2295 C2294 1.415 . S
H2296 C2293 0.999 . S
H2297 C2278 0.913 . S
H2298 C2316 0.951 . S
H2299 C2318 0.951 . S
H2300 C2320 0.950 . S
H2301 C2321 0.950 . S
H2302 C2323 0.950 . S
H2303 C2326 0.950 . S
H2304 C2327 0.950 . S
H2305 C2329 0.950 . S
H2306 C2330 0.950 . S
H2307 C2331 0.951 . S
H2308 C2333 0.951 . S
H2309 C2335 0.950 . S
H2310 C2336 0.950 . S
H2311 C2338 0.950 . S
H2312 C2341 0.950 . S
H2313 C2342 0.950 . S
H2314 C2344 0.950 . S
H2315 C2345 0.950 . S
C2316 H2298 0.951 . S
C2316 C2317 1.366 1_455 S
C2316 C2318 1.388 . S
C2317 C2316 1.366 1_655 S
C2317 C2321 1.385 . S
C2318 H2299 0.951 . S
C2318 C2316 1.388 . S
C2318 C2319 1.366 . S
C2319 C2318 1.366 . S
C2319 C2320 1.414 . S
C2319 C2322 1.499 . S
C2320 H2300 0.950 . S
C2320 C2319 1.414 . S
C2320 C2321 1.374 1_455 S
C2321 H2301 0.950 . S
C2321 C2317 1.385 . S
C2321 C2320 1.374 1_655 S
C2322 C2319 1.499 . S
C2322 C2323 1.373 . S
C2322 C2324 1.389 . S
C2323 H2302 0.950 . S
C2323 C2322 1.373 . S
C2323 C2339 1.377 . S
C2324 C2322 1.389 . S
C2324 C2325 1.524 . S
C2324 C2338 1.377 . S
C2325 C2324 1.524 . S
C2325 C2326 1.397 . S
C2325 C2330 1.363 . S
C2326 H2303 0.950 . S
C2326 C2325 1.397 . S
C2326 C2327 1.334 . S
C2327 H2304 0.950 . S
C2327 C2326 1.334 . S
C2327 C2328 1.287 . S
C2328 C2327 1.287 . S
C2328 C2329 1.524 . S
C2328 H2347 0.913 . S
C2329 H2305 0.950 . S
C2329 C2328 1.524 . S
C2329 C2330 1.415 . S
C2330 H2306 0.950 . S
C2330 C2325 1.363 . S
C2330 C2329 1.415 . S
C2331 H2307 0.951 . S
C2331 C2332 1.366 . S
C2331 C2333 1.388 . S
C2332 C2331 1.366 . S
C2332 C2336 1.385 . S
C2333 H2308 0.951 . S
C2333 C2331 1.388 . S
C2333 C2334 1.366 . S
C2334 C2333 1.366 . S
C2334 C2335 1.414 . S
C2334 C2337 1.499 . S
C2335 H2309 0.950 . S
C2335 C2334 1.414 . S
C2335 C2336 1.374 . S
C2336 H2310 0.950 . S
C2336 C2332 1.385 . S
C2336 C2335 1.374 . S
C2337 C2334 1.499 . S
C2337 C2338 1.373 . S
C2337 C2339 1.389 . S
C2338 H2311 0.950 . S
C2338 C2324 1.377 . S
C2338 C2337 1.373 . S
C2339 C2323 1.377 . S
C2339 C2337 1.389 . S
C2339 C2340 1.524 . S
C2340 C2339 1.524 . S
C2340 C2341 1.397 . S
C2340 C2345 1.363 . S
C2341 H2312 0.950 . S
C2341 C2340 1.397 . S
C2341 C2342 1.334 . S
C2342 H2313 0.950 . S
C2342 C2341 1.334 . S
C2342 C2343 1.287 . S
C2343 C2342 1.287 . S
C2343 C2344 1.524 . S
C2343 H2346 0.999 . S
C2344 H2314 0.950 . S
C2344 C2343 1.524 . S
C2344 C2345 1.415 . S
C2345 H2315 0.950 . S
C2345 C2340 1.363 . S
C2345 C2344 1.415 . S
H2346 C2343 0.999 . S
H2347 C2328 0.913 . S
H2348 C2366 0.951 . S
H2349 C2368 0.951 . S
H2350 C2370 0.950 . S
H2351 C2371 0.950 . S
H2352 C2373 0.950 . S
H2353 C2376 0.950 . S
H2354 C2377 0.950 . S
H2355 C2379 0.950 . S
H2356 C2380 0.950 . S
H2357 C2381 0.951 . S
H2358 C2383 0.951 . S
H2359 C2385 0.950 . S
H2360 C2386 0.950 . S
H2361 C2388 0.950 . S
H2362 C2391 0.950 . S
H2363 C2392 0.950 . S
H2364 C2394 0.950 . S
H2365 C2395 0.950 . S
C2366 H2348 0.951 . S
C2366 C2367 1.366 . S
C2366 C2368 1.388 . S
C2367 C2366 1.366 . S
C2367 C2371 1.385 . S
C2368 H2349 0.951 . S
C2368 C2366 1.388 . S
C2368 C2369 1.366 . S
C2369 C2368 1.366 . S
C2369 C2370 1.414 . S
C2369 C2372 1.499 . S
C2370 H2350 0.950 . S
C2370 C2369 1.414 . S
C2370 C2371 1.374 . S
C2371 H2351 0.950 . S
C2371 C2367 1.385 . S
C2371 C2370 1.374 . S
C2372 C2369 1.499 . S
C2372 C2373 1.373 . S
C2372 C2374 1.389 . S
C2373 H2352 0.950 . S
C2373 C2372 1.373 . S
C2373 C2389 1.377 . S
C2374 C2372 1.389 . S
C2374 C2375 1.524 . S
C2374 C2388 1.377 . S
C2375 C2374 1.524 . S
C2375 C2376 1.397 . S
C2375 C2380 1.363 . S
C2376 H2353 0.950 . S
C2376 C2375 1.397 . S
C2376 C2377 1.334 . S
C2377 H2354 0.950 . S
C2377 C2376 1.334 . S
C2377 C2378 1.287 . S
C2378 C2377 1.287 . S
C2378 C2379 1.524 . S
C2378 H2397 0.913 . S
C2379 H2355 0.950 . S
C2379 C2378 1.524 . S
C2379 C2380 1.415 . S
C2380 H2356 0.950 . S
C2380 C2375 1.363 . S
C2380 C2379 1.415 . S
C2381 H2357 0.951 . S
C2381 C2382 1.366 . S
C2381 C2383 1.388 . S
C2382 C2381 1.366 . S
C2382 C2386 1.385 . S
C2383 H2358 0.951 . S
C2383 C2381 1.388 . S
C2383 C2384 1.366 . S
C2384 C2383 1.366 . S
C2384 C2385 1.414 . S
C2384 C2387 1.499 . S
C2385 H2359 0.950 . S
C2385 C2384 1.414 . S
C2385 C2386 1.374 . S
C2386 H2360 0.950 . S
C2386 C2382 1.385 . S
C2386 C2385 1.374 . S
C2387 C2384 1.499 . S
C2387 C2388 1.373 . S
C2387 C2389 1.389 . S
C2388 H2361 0.950 . S
C2388 C2374 1.377 . S
C2388 C2387 1.373 . S
C2389 C2373 1.377 . S
C2389 C2387 1.389 . S
C2389 C2390 1.524 . S
C2390 C2389 1.524 . S
C2390 C2391 1.397 . S
C2390 C2395 1.363 . S
C2391 H2362 0.950 . S
C2391 C2390 1.397 . S
C2391 C2392 1.334 . S
C2392 H2363 0.950 . S
C2392 C2391 1.334 . S
C2392 C2393 1.287 . S
C2393 C2392 1.287 . S
C2393 C2394 1.524 . S
C2393 H2396 0.999 . S
C2394 H2364 0.950 . S
C2394 C2393 1.524 . S
C2394 C2395 1.415 . S
C2395 H2365 0.950 . S
C2395 C2390 1.363 . S
C2395 C2394 1.415 . S
H2396 C2393 0.999 . S
H2397 C2378 0.913 . S
H2398 C2416 0.951 . S
H2399 C2418 0.951 . S
H2400 C2420 0.950 . S
H2401 C2421 0.950 . S
H2402 C2423 0.950 . S
H2403 C2426 0.950 . S
H2404 C2427 0.950 . S
H2405 C2429 0.950 . S
H2406 C2430 0.950 . S
H2407 C2431 0.951 . S
H2408 C2433 0.951 . S
H2409 C2435 0.950 . S
H2410 C2436 0.950 . S
H2411 C2438 0.950 . S
H2412 C2441 0.950 . S
H2413 C2442 0.950 . S
H2414 C2444 0.950 . S
H2415 C2445 0.950 . S
C2416 H2398 0.951 . S
C2416 C2417 1.366 . S
C2416 C2418 1.388 . S
C2417 C2416 1.366 . S
C2417 C2421 1.385 . S
C2418 H2399 0.951 . S
C2418 C2416 1.388 . S
C2418 C2419 1.366 . S
C2419 C2418 1.366 . S
C2419 C2420 1.414 . S
C2419 C2422 1.499 . S
C2420 H2400 0.950 . S
C2420 C2419 1.414 . S
C2420 C2421 1.374 . S
C2421 H2401 0.950 . S
C2421 C2417 1.385 . S
C2421 C2420 1.374 . S
C2422 C2419 1.499 . S
C2422 C2423 1.373 . S
C2422 C2424 1.389 . S
C2423 H2402 0.950 . S
C2423 C2422 1.373 . S
C2423 C2439 1.377 . S
C2424 C2422 1.389 . S
C2424 C2425 1.524 . S
C2424 C2438 1.377 . S
C2425 C2424 1.524 . S
C2425 C2426 1.397 . S
C2425 C2430 1.363 . S
C2426 H2403 0.950 . S
C2426 C2425 1.397 . S
C2426 C2427 1.334 . S
C2427 H2404 0.950 . S
C2427 C2426 1.334 . S
C2427 C2428 1.287 . S
C2428 C2427 1.287 . S
C2428 C2429 1.524 . S
C2428 H2447 0.913 . S
C2429 H2405 0.950 . S
C2429 C2428 1.524 . S
C2429 C2430 1.415 . S
C2430 H2406 0.950 . S
C2430 C2425 1.363 . S
C2430 C2429 1.415 . S
C2431 H2407 0.951 . S
C2431 C2432 1.366 . S
C2431 C2433 1.388 . S
C2432 C2431 1.366 . S
C2432 C2436 1.385 . S
C2433 H2408 0.951 . S
C2433 C2431 1.388 . S
C2433 C2434 1.366 . S
C2434 C2433 1.366 . S
C2434 C2435 1.414 . S
C2434 C2437 1.499 . S
C2435 H2409 0.950 . S
C2435 C2434 1.414 . S
C2435 C2436 1.374 . S
C2436 H2410 0.950 . S
C2436 C2432 1.385 . S
C2436 C2435 1.374 . S
C2437 C2434 1.499 . S
C2437 C2438 1.373 . S
C2437 C2439 1.389 . S
C2438 H2411 0.950 . S
C2438 C2424 1.377 . S
C2438 C2437 1.373 . S
C2439 C2423 1.377 . S
C2439 C2437 1.389 . S
C2439 C2440 1.524 . S
C2440 C2439 1.524 . S
C2440 C2441 1.397 . S
C2440 C2445 1.363 . S
C2441 H2412 0.950 . S
C2441 C2440 1.397 . S
C2441 C2442 1.334 . S
C2442 H2413 0.950 . S
C2442 C2441 1.334 . S
C2442 C2443 1.287 . S
C2443 C2442 1.287 . S
C2443 C2444 1.524 . S
C2443 H2446 0.999 . S
C2444 H2414 0.950 . S
C2444 C2443 1.524 . S
C2444 C2445 1.415 . S
C2445 H2415 0.950 . S
C2445 C2440 1.363 . S
C2445 C2444 1.415 . S
H2446 C2443 0.999 . S
H2447 C2428 0.913 . S
H2448 C2466 0.951 . S
H2449 C2468 0.951 . S
H2450 C2470 0.950 . S
H2451 C2471 0.950 . S
H2452 C2473 0.950 . S
H2453 C2476 0.950 . S
H2454 C2477 0.950 . S
H2455 C2479 0.950 . S
H2456 C2480 0.950 . S
H2457 C2481 0.951 . S
H2458 C2483 0.951 . S
H2459 C2485 0.950 . S
H2460 C2486 0.950 . S
H2461 C2488 0.950 . S
H2462 C2491 0.950 . S
H2463 C2492 0.950 . S
H2464 C2494 0.950 . S
H2465 C2495 0.950 . S
C2466 H2448 0.951 . S
C2466 C2467 1.366 . S
C2466 C2468 1.388 . S
C2467 C2466 1.366 . S
C2467 C2471 1.385 . S
C2468 H2449 0.951 . S
C2468 C2466 1.388 . S
C2468 C2469 1.366 . S
C2469 C2468 1.366 . S
C2469 C2470 1.414 . S
C2469 C2472 1.499 . S
C2470 H2450 0.950 . S
C2470 C2469 1.414 . S
C2470 C2471 1.374 . S
C2471 H2451 0.950 . S
C2471 C2467 1.385 . S
C2471 C2470 1.374 . S
C2472 C2469 1.499 . S
C2472 C2473 1.373 . S
C2472 C2474 1.389 . S
C2473 H2452 0.950 . S
C2473 C2472 1.373 . S
C2473 C2489 1.377 . S
C2474 C2472 1.389 . S
C2474 C2475 1.524 . S
C2474 C2488 1.377 . S
C2475 C2474 1.524 . S
C2475 C2476 1.397 . S
C2475 C2480 1.363 . S
C2476 H2453 0.950 . S
C2476 C2475 1.397 . S
C2476 C2477 1.334 . S
C2477 H2454 0.950 . S
C2477 C2476 1.334 . S
C2477 C2478 1.287 . S
C2478 C2477 1.287 . S
C2478 C2479 1.524 . S
C2478 H2497 0.913 . S
C2479 H2455 0.950 . S
C2479 C2478 1.524 . S
C2479 C2480 1.415 . S
C2480 H2456 0.950 . S
C2480 C2475 1.363 . S
C2480 C2479 1.415 . S
C2481 H2457 0.951 . S
C2481 C2482 1.366 . S
C2481 C2483 1.388 . S
C2482 C2481 1.366 . S
C2482 C2486 1.385 . S
C2483 H2458 0.951 . S
C2483 C2481 1.388 . S
C2483 C2484 1.366 . S
C2484 C2483 1.366 . S
C2484 C2485 1.414 . S
C2484 C2487 1.499 . S
C2485 H2459 0.950 . S
C2485 C2484 1.414 . S
C2485 C2486 1.374 . S
C2486 H2460 0.950 . S
C2486 C2482 1.385 . S
C2486 C2485 1.374 . S
C2487 C2484 1.499 . S
C2487 C2488 1.373 . S
C2487 C2489 1.389 . S
C2488 H2461 0.950 . S
C2488 C2474 1.377 . S
C2488 C2487 1.373 . S
C2489 C2473 1.377 . S
C2489 C2487 1.389 . S
C2489 C2490 1.524 . S
C2490 C2489 1.524 . S
C2490 C2491 1.397 . S
C2490 C2495 1.363 . S
C2491 H2462 0.950 . S
C2491 C2490 1.397 . S
C2491 C2492 1.334 . S
C2492 H2463 0.950 . S
C2492 C2491 1.334 . S
C2492 C2493 1.287 . S
C2493 C2492 1.287 . S
C2493 C2494 1.524 . S
C2493 H2496 0.999 . S
C2494 H2464 0.950 . S
C2494 C2493 1.524 . S
C2494 C2495 1.415 . S
C2495 H2465 0.950 . S
C2495 C2490 1.363 . S
C2495 C2494 1.415 . S
H2496 C2493 0.999 . S
H2497 C2478 0.913 . S
H2498 C2516 0.951 . S
H2499 C2518 0.951 . S
H2500 C2520 0.950 . S
H2501 C2521 0.950 . S
H2502 C2523 0.950 . S
H2503 C2526 0.950 . S
H2504 C2527 0.950 . S
H2505 C2529 0.950 . S
H2506 C2530 0.950 . S
H2507 C2531 0.951 . S
H2508 C2533 0.951 . S
H2509 C2535 0.950 . S
H2510 C2536 0.950 . S
H2511 C2538 0.950 . S
H2512 C2541 0.950 . S
H2513 C2542 0.950 . S
H2514 C2544 0.950 . S
H2515 C2545 0.950 . S
C2516 H2498 0.951 . S
C2516 C2517 1.366 . S
C2516 C2518 1.388 . S
C2517 C2516 1.366 . S
C2517 C2521 1.385 . S
C2518 H2499 0.951 . S
C2518 C2516 1.388 . S
C2518 C2519 1.366 . S
C2519 C2518 1.366 . S
C2519 C2520 1.414 . S
C2519 C2522 1.499 . S
C2520 H2500 0.950 . S
C2520 C2519 1.414 . S
C2520 C2521 1.374 . S
C2521 H2501 0.950 . S
C2521 C2517 1.385 . S
C2521 C2520 1.374 . S
C2522 C2519 1.499 . S
C2522 C2523 1.373 . S
C2522 C2524 1.389 . S
C2523 H2502 0.950 . S
C2523 C2522 1.373 . S
C2523 C2539 1.377 . S
C2524 C2522 1.389 . S
C2524 C2525 1.524 . S
C2524 C2538 1.377 . S
C2525 C2524 1.524 . S
C2525 C2526 1.397 . S
C2525 C2530 1.363 . S
C2526 H2503 0.950 . S
C2526 C2525 1.397 . S
C2526 C2527 1.334 . S
C2527 H2504 0.950 . S
C2527 C2526 1.334 . S
C2527 C2528 1.287 . S
C2528 C2527 1.287 . S
C2528 C2529 1.524 . S
C2528 H2547 0.913 . S
C2529 H2505 0.950 . S
C2529 C2528 1.524 . S
C2529 C2530 1.415 . S
C2530 H2506 0.950 . S
C2530 C2525 1.363 . S
C2530 C2529 1.415 . S
C2531 H2507 0.951 . S
C2531 C2532 1.366 . S
C2531 C2533 1.388 . S
C2532 C2531 1.366 . S
C2532 C2536 1.385 . S
C2533 H2508 0.951 . S
C2533 C2531 1.388 . S
C2533 C2534 1.366 . S
C2534 C2533 1.366 . S
C2534 C2535 1.414 . S
C2534 C2537 1.499 . S
C2535 H2509 0.950 . S
C2535 C2534 1.414 . S
C2535 C2536 1.374 . S
C2536 H2510 0.950 . S
C2536 C2532 1.385 . S
C2536 C2535 1.374 . S
C2537 C2534 1.499 . S
C2537 C2538 1.373 . S
C2537 C2539 1.389 . S
C2538 H2511 0.950 . S
C2538 C2524 1.377 . S
C2538 C2537 1.373 . S
C2539 C2523 1.377 . S
C2539 C2537 1.389 . S
C2539 C2540 1.524 . S
C2540 C2539 1.524 . S
C2540 C2541 1.397 . S
C2540 C2545 1.363 . S
C2541 H2512 0.950 . S
C2541 C2540 1.397 . S
C2541 C2542 1.334 . S
C2542 H2513 0.950 . S
C2542 C2541 1.334 . S
C2542 C2543 1.287 . S
C2543 C2542 1.287 . S
C2543 C2544 1.524 . S
C2543 H2546 0.999 . S
C2544 H2514 0.950 . S
C2544 C2543 1.524 . S
C2544 C2545 1.415 . S
C2545 H2515 0.950 . S
C2545 C2540 1.363 . S
C2545 C2544 1.415 . S
H2546 C2543 0.999 . S
H2547 C2528 0.913 . S
H2548 C2566 0.951 . S
H2549 C2568 0.951 . S
H2550 C2570 0.950 . S
H2551 C2571 0.950 . S
H2552 C2573 0.950 . S
H2553 C2576 0.950 . S
H2554 C2577 0.950 . S
H2555 C2579 0.950 . S
H2556 C2580 0.950 . S
H2557 C2581 0.951 . S
H2558 C2583 0.951 . S
H2559 C2585 0.950 . S
H2560 C2586 0.950 . S
H2561 C2588 0.950 . S
H2562 C2591 0.950 . S
H2563 C2592 0.950 . S
H2564 C2594 0.950 . S
H2565 C2595 0.950 . S
C2566 H2548 0.951 . S
C2566 C2567 1.366 . S
C2566 C2568 1.388 . S
C2567 C2566 1.366 . S
C2567 C2571 1.385 . S
C2568 H2549 0.951 . S
C2568 C2566 1.388 . S
C2568 C2569 1.366 . S
C2569 C2568 1.366 . S
C2569 C2570 1.414 . S
C2569 C2572 1.499 . S
C2570 H2550 0.950 . S
C2570 C2569 1.414 . S
C2570 C2571 1.374 . S
C2571 H2551 0.950 . S
C2571 C2567 1.385 . S
C2571 C2570 1.374 . S
C2572 C2569 1.499 . S
C2572 C2573 1.373 . S
C2572 C2574 1.389 . S
C2573 H2552 0.950 . S
C2573 C2572 1.373 . S
C2573 C2589 1.377 . S
C2574 C2572 1.389 . S
C2574 C2575 1.524 . S
C2574 C2588 1.377 . S
C2575 C2574 1.524 . S
C2575 C2576 1.397 . S
C2575 C2580 1.363 . S
C2576 H2553 0.950 . S
C2576 C2575 1.397 . S
C2576 C2577 1.334 . S
C2577 H2554 0.950 . S
C2577 C2576 1.334 . S
C2577 C2578 1.287 . S
C2578 C2577 1.287 . S
C2578 C2579 1.524 . S
C2578 H2597 0.913 . S
C2579 H2555 0.950 . S
C2579 C2578 1.524 . S
C2579 C2580 1.415 . S
C2580 H2556 0.950 . S
C2580 C2575 1.363 . S
C2580 C2579 1.415 . S
C2581 H2557 0.951 . S
C2581 C2582 1.366 . S
C2581 C2583 1.388 . S
C2582 C2581 1.366 . S
C2582 C2586 1.385 . S
C2583 H2558 0.951 . S
C2583 C2581 1.388 . S
C2583 C2584 1.366 . S
C2584 C2583 1.366 . S
C2584 C2585 1.414 . S
C2584 C2587 1.499 . S
C2585 H2559 0.950 . S
C2585 C2584 1.414 . S
C2585 C2586 1.374 . S
C2586 H2560 0.950 . S
C2586 C2582 1.385 . S
C2586 C2585 1.374 . S
C2587 C2584 1.499 . S
C2587 C2588 1.373 . S
C2587 C2589 1.389 . S
C2588 H2561 0.950 . S
C2588 C2574 1.377 . S
C2588 C2587 1.373 . S
C2589 C2573 1.377 . S
C2589 C2587 1.389 . S
C2589 C2590 1.524 . S
C2590 C2589 1.524 . S
C2590 C2591 1.397 . S
C2590 C2595 1.363 . S
C2591 H2562 0.950 . S
C2591 C2590 1.397 . S
C2591 C2592 1.334 . S
C2592 H2563 0.950 . S
C2592 C2591 1.334 . S
C2592 C2593 1.287 . S
C2593 C2592 1.287 . S
C2593 C2594 1.524 . S
C2593 H2596 0.999 . S
C2594 H2564 0.950 . S
C2594 C2593 1.524 . S
C2594 C2595 1.415 . S
C2595 H2565 0.950 . S
C2595 C2590 1.363 . S
C2595 C2594 1.415 . S
H2596 C2593 0.999 . S
H2597 C2578 0.913 . S
H2598 C2616 0.951 . S
H2599 C2618 0.951 . S
H2600 C2620 0.950 . S
H2601 C2621 0.950 . S
H2602 C2623 0.950 . S
H2603 C2626 0.950 . S
H2604 C2627 0.950 . S
H2605 C2629 0.950 . S
H2606 C2630 0.950 . S
H2607 C2631 0.951 1_455 S
H2608 C2633 0.951 . S
H2609 C2635 0.950 . S
H2610 C2636 0.950 1_455 S
H2611 C2638 0.950 . S
H2612 C2641 0.950 . S
H2613 C2642 0.950 . S
H2614 C2644 0.950 . S
H2615 C2645 0.950 . S
C2616 H2598 0.951 . S
C2616 C2617 1.366 . S
C2616 C2618 1.388 . S
C2617 C2616 1.366 . S
C2617 C2621 1.385 . S
C2618 H2599 0.951 . S
C2618 C2616 1.388 . S
C2618 C2619 1.366 . S
C2619 C2618 1.366 . S
C2619 C2620 1.414 . S
C2619 C2622 1.499 . S
C2620 H2600 0.950 . S
C2620 C2619 1.414 . S
C2620 C2621 1.374 . S
C2621 H2601 0.950 . S
C2621 C2617 1.385 . S
C2621 C2620 1.374 . S
C2622 C2619 1.499 . S
C2622 C2623 1.373 . S
C2622 C2624 1.389 . S
C2623 H2602 0.950 . S
C2623 C2622 1.373 . S
C2623 C2639 1.377 . S
C2624 C2622 1.389 . S
C2624 C2625 1.524 . S
C2624 C2638 1.377 . S
C2625 C2624 1.524 . S
C2625 C2626 1.397 . S
C2625 C2630 1.363 . S
C2626 H2603 0.950 . S
C2626 C2625 1.397 . S
C2626 C2627 1.334 . S
C2627 H2604 0.950 . S
C2627 C2626 1.334 . S
C2627 C2628 1.287 . S
C2628 C2627 1.287 . S
C2628 C2629 1.524 . S
C2628 H2647 0.913 . S
C2629 H2605 0.950 . S
C2629 C2628 1.524 . S
C2629 C2630 1.415 . S
C2630 H2606 0.950 . S
C2630 C2625 1.363 . S
C2630 C2629 1.415 . S
C2631 H2607 0.951 1_655 S
C2631 C2632 1.366 1_655 S
C2631 C2633 1.388 . S
C2632 C2631 1.366 1_455 S
C2632 C2636 1.385 1_455 S
C2633 H2608 0.951 . S
C2633 C2631 1.388 . S
C2633 C2634 1.366 . S
C2634 C2633 1.366 . S
C2634 C2635 1.414 . S
C2634 C2637 1.499 . S
C2635 H2609 0.950 . S
C2635 C2634 1.414 . S
C2635 C2636 1.374 . S
C2636 H2610 0.950 1_655 S
C2636 C2632 1.385 1_655 S
C2636 C2635 1.374 . S
C2637 C2634 1.499 . S
C2637 C2638 1.373 . S
C2637 C2639 1.389 . S
C2638 H2611 0.950 . S
C2638 C2624 1.377 . S
C2638 C2637 1.373 . S
C2639 C2623 1.377 . S
C2639 C2637 1.389 . S
C2639 C2640 1.524 . S
C2640 C2639 1.524 . S
C2640 C2641 1.397 . S
C2640 C2645 1.363 . S
C2641 H2612 0.950 . S
C2641 C2640 1.397 . S
C2641 C2642 1.334 . S
C2642 H2613 0.950 . S
C2642 C2641 1.334 . S
C2642 C2643 1.287 . S
C2643 C2642 1.287 . S
C2643 C2644 1.524 . S
C2643 H2646 0.999 . S
C2644 H2614 0.950 . S
C2644 C2643 1.524 . S
C2644 C2645 1.415 . S
C2645 H2615 0.950 . S
C2645 C2640 1.363 . S
C2645 C2644 1.415 . S
H2646 C2643 0.999 . S
H2647 C2628 0.913 . S
H2648 C2666 0.951 . S
H2649 C2668 0.951 . S
H2650 C2670 0.950 . S
H2651 C2671 0.950 . S
H2652 C2673 0.950 . S
H2653 C2676 0.950 . S
H2654 C2677 0.950 . S
H2655 C2679 0.950 . S
H2656 C2680 0.950 . S
H2657 C2681 0.951 . S
H2658 C2683 0.951 . S
H2659 C2685 0.950 . S
H2660 C2686 0.950 . S
H2661 C2688 0.950 . S
H2662 C2691 0.950 . S
H2663 C2692 0.950 . S
H2664 C2694 0.950 . S
H2665 C2695 0.950 . S
C2666 H2648 0.951 . S
C2666 C2667 1.366 . S
C2666 C2668 1.388 . S
C2667 C2666 1.366 . S
C2667 C2671 1.385 . S
C2668 H2649 0.951 . S
C2668 C2666 1.388 . S
C2668 C2669 1.366 . S
C2669 C2668 1.366 . S
C2669 C2670 1.414 . S
C2669 C2672 1.499 . S
C2670 H2650 0.950 . S
C2670 C2669 1.414 . S
C2670 C2671 1.374 . S
C2671 H2651 0.950 . S
C2671 C2667 1.385 . S
C2671 C2670 1.374 . S
C2672 C2669 1.499 . S
C2672 C2673 1.373 . S
C2672 C2674 1.389 . S
C2673 H2652 0.950 . S
C2673 C2672 1.373 . S
C2673 C2689 1.377 . S
C2674 C2672 1.389 . S
C2674 C2675 1.524 . S
C2674 C2688 1.377 . S
C2675 C2674 1.524 . S
C2675 C2676 1.397 . S
C2675 C2680 1.363 . S
C2676 H2653 0.950 . S
C2676 C2675 1.397 . S
C2676 C2677 1.334 . S
C2677 H2654 0.950 . S
C2677 C2676 1.334 . S
C2677 C2678 1.287 . S
C2678 C2677 1.287 . S
C2678 C2679 1.524 . S
C2678 H2697 0.913 . S
C2679 H2655 0.950 . S
C2679 C2678 1.524 . S
C2679 C2680 1.415 . S
C2680 H2656 0.950 . S
C2680 C2675 1.363 . S
C2680 C2679 1.415 . S
C2681 H2657 0.951 . S
C2681 C2682 1.366 . S
C2681 C2683 1.388 . S
C2682 C2681 1.366 . S
C2682 C2686 1.385 . S
C2683 H2658 0.951 . S
C2683 C2681 1.388 . S
C2683 C2684 1.366 . S
C2684 C2683 1.366 . S
C2684 C2685 1.414 . S
C2684 C2687 1.499 . S
C2685 H2659 0.950 . S
C2685 C2684 1.414 . S
C2685 C2686 1.374 . S
C2686 H2660 0.950 . S
C2686 C2682 1.385 . S
C2686 C2685 1.374 . S
C2687 C2684 1.499 . S
C2687 C2688 1.373 . S
C2687 C2689 1.389 . S
C2688 H2661 0.950 . S
C2688 C2674 1.377 . S
C2688 C2687 1.373 . S
C2689 C2673 1.377 . S
C2689 C2687 1.389 . S
C2689 C2690 1.524 . S
C2690 C2689 1.524 . S
C2690 C2691 1.397 . S
C2690 C2695 1.363 . S
C2691 H2662 0.950 . S
C2691 C2690 1.397 . S
C2691 C2692 1.334 . S
C2692 H2663 0.950 . S
C2692 C2691 1.334 . S
C2692 C2693 1.287 . S
C2693 C2692 1.287 . S
C2693 C2694 1.524 . S
C2693 H2696 0.999 . S
C2694 H2664 0.950 . S
C2694 C2693 1.524 . S
C2694 C2695 1.415 . S
C2695 H2665 0.950 . S
C2695 C2690 1.363 . S
C2695 C2694 1.415 . S
H2696 C2693 0.999 . S
H2697 C2678 0.913 . S
H2698 C2716 0.925 1_455 S
H2699 C2718 0.951 . S
H2700 C2720 0.950 . S
H2701 C2721 0.950 1_455 S
H2702 C2723 0.950 . S
H2703 C2726 0.950 . S
H2704 C2727 0.950 . S
H2705 C2729 0.950 . S
H2706 C2730 0.950 . S
H2707 C2731 0.951 . S
H2708 C2733 0.951 . S
H2709 C2735 0.950 . S
H2710 C2736 0.950 . S
H2711 C2738 0.950 . S
H2712 C2741 0.950 . S
H2713 C2742 0.950 . S
H2714 C2744 0.950 . S
H2715 C2745 0.950 . S
C2716 H2698 0.925 1_655 S
C2716 C2717 1.345 1_655 S
C2716 C2718 1.438 . S
C2717 C2716 1.345 1_455 S
C2717 C2721 1.385 1_455 S
C2718 H2699 0.951 . S
C2718 C2716 1.438 . S
C2718 C2719 1.366 . S
C2719 C2718 1.366 . S
C2719 C2720 1.414 . S
C2719 C2722 1.499 . S
C2720 H2700 0.950 . S
C2720 C2719 1.414 . S
C2720 C2721 1.374 . S
C2721 H2701 0.950 1_655 S
C2721 C2717 1.385 1_655 S
C2721 C2720 1.374 . S
C2722 C2719 1.499 . S
C2722 C2723 1.373 . S
C2722 C2724 1.389 . S
C2723 H2702 0.950 . S
C2723 C2722 1.373 . S
C2723 C2739 1.377 . S
C2724 C2722 1.389 . S
C2724 C2725 1.524 . S
C2724 C2738 1.377 . S
C2725 C2724 1.524 . S
C2725 C2726 1.397 . S
C2725 C2730 1.363 . S
C2726 H2703 0.950 . S
C2726 C2725 1.397 . S
C2726 C2727 1.334 1_655 S
C2727 H2704 0.950 . S
C2727 C2726 1.334 1_455 S
C2727 C2728 1.287 . S
C2728 C2727 1.287 . S
C2728 C2729 1.524 1_455 S
C2728 H2747 0.913 . S
C2729 H2705 0.950 . S
C2729 C2728 1.524 1_655 S
C2729 C2730 1.415 . S
C2730 H2706 0.950 . S
C2730 C2725 1.363 . S
C2730 C2729 1.415 . S
C2731 H2707 0.951 . S
C2731 C2732 1.366 . S
C2731 C2733 1.388 . S
C2732 C2731 1.366 . S
C2732 C2736 1.385 . S
C2733 H2708 0.951 . S
C2733 C2731 1.388 . S
C2733 C2734 1.366 . S
C2734 C2733 1.366 . S
C2734 C2735 1.414 . S
C2734 C2737 1.499 . S
C2735 H2709 0.950 . S
C2735 C2734 1.414 . S
C2735 C2736 1.374 . S
C2736 H2710 0.950 . S
C2736 C2732 1.385 . S
C2736 C2735 1.374 . S
C2737 C2734 1.499 . S
C2737 C2738 1.373 . S
C2737 C2739 1.389 . S
C2738 H2711 0.950 . S
C2738 C2724 1.377 . S
C2738 C2737 1.373 . S
C2739 C2723 1.377 . S
C2739 C2737 1.389 . S
C2739 C2740 1.524 . S
C2740 C2739 1.524 . S
C2740 C2741 1.397 . S
C2740 C2745 1.363 . S
C2741 H2712 0.950 . S
C2741 C2740 1.397 . S
C2741 C2742 1.334 . S
C2742 H2713 0.950 . S
C2742 C2741 1.334 . S
C2742 C2743 1.287 . S
C2743 C2742 1.287 . S
C2743 C2744 1.524 . S
C2743 H2746 0.999 . S
C2744 H2714 0.950 . S
C2744 C2743 1.524 . S
C2744 C2745 1.415 . S
C2745 H2715 0.950 . S
C2745 C2740 1.363 . S
C2745 C2744 1.415 . S
H2746 C2743 0.999 . S
H2747 C2728 0.913 . S
H2748 C2766 0.951 . S
H2749 C2768 0.951 . S
H2750 C2770 0.950 . S
H2751 C2771 0.950 . S
H2752 C2773 0.950 . S
H2753 C2776 0.950 . S
H2754 C2777 0.950 . S
H2755 C2779 0.950 . S
H2756 C2780 0.950 . S
H2757 C2781 0.951 . S
H2758 C2783 0.951 . S
H2759 C2785 0.950 . S
H2760 C2786 0.950 . S
H2761 C2788 0.950 . S
H2762 C2791 0.950 . S
H2763 C2792 0.950 . S
H2764 C2794 0.950 . S
H2765 C2795 0.950 . S
C2766 H2748 0.951 . S
C2766 C2767 1.366 . S
C2766 C2768 1.388 . S
C2767 C2766 1.366 . S
C2767 C2771 1.385 . S
C2768 H2749 0.951 . S
C2768 C2766 1.388 . S
C2768 C2769 1.366 . S
C2769 C2768 1.366 . S
C2769 C2770 1.414 . S
C2769 C2772 1.499 . S
C2770 H2750 0.950 . S
C2770 C2769 1.414 . S
C2770 C2771 1.374 . S
C2771 H2751 0.950 . S
C2771 C2767 1.385 . S
C2771 C2770 1.374 . S
C2772 C2769 1.499 . S
C2772 C2773 1.373 . S
C2772 C2774 1.389 . S
C2773 H2752 0.950 . S
C2773 C2772 1.373 . S
C2773 C2789 1.377 . S
C2774 C2772 1.389 . S
C2774 C2775 1.524 . S
C2774 C2788 1.377 . S
C2775 C2774 1.524 . S
C2775 C2776 1.397 . S
C2775 C2780 1.363 . S
C2776 H2753 0.950 . S
C2776 C2775 1.397 . S
C2776 C2777 1.334 . S
C2777 H2754 0.950 . S
C2777 C2776 1.334 . S
C2777 C2778 1.287 . S
C2778 C2777 1.287 . S
C2778 C2779 1.524 . S
C2778 H2797 0.913 . S
C2779 H2755 0.950 . S
C2779 C2778 1.524 . S
C2779 C2780 1.415 . S
C2780 H2756 0.950 . S
C2780 C2775 1.363 . S
C2780 C2779 1.415 . S
C2781 H2757 0.951 . S
C2781 C2782 1.366 . S
C2781 C2783 1.388 . S
C2782 C2781 1.366 . S
C2782 C2786 1.385 . S
C2783 H2758 0.951 . S
C2783 C2781 1.388 . S
C2783 C2784 1.366 . S
C2784 C2783 1.366 . S
C2784 C2785 1.414 . S
C2784 C2787 1.499 . S
C2785 H2759 0.950 . S
C2785 C2784 1.414 . S
C2785 C2786 1.374 . S
C2786 H2760 0.950 . S
C2786 C2782 1.385 . S
C2786 C2785 1.374 . S
C2787 C2784 1.499 . S
C2787 C2788 1.373 . S
C2787 C2789 1.389 . S
C2788 H2761 0.950 . S
C2788 C2774 1.377 . S
C2788 C2787 1.373 . S
C2789 C2773 1.377 . S
C2789 C2787 1.389 . S
C2789 C2790 1.524 . S
C2790 C2789 1.524 . S
C2790 C2791 1.397 . S
C2790 C2795 1.363 . S
C2791 H2762 0.950 . S
C2791 C2790 1.397 . S
C2791 C2792 1.334 . S
C2792 H2763 0.950 . S
C2792 C2791 1.334 . S
C2792 C2793 1.287 . S
C2793 C2792 1.287 . S
C2793 C2794 1.524 . S
C2793 H2796 0.999 . S
C2794 H2764 0.950 . S
C2794 C2793 1.524 . S
C2794 C2795 1.415 . S
C2795 H2765 0.950 . S
C2795 C2790 1.363 . S
C2795 C2794 1.415 . S
H2796 C2793 0.999 . S
H2797 C2778 0.913 . S
H2798 C2816 0.951 . S
H2799 C2818 0.951 . S
H2800 C2820 0.950 . S
H2801 C2821 0.950 . S
H2802 C2823 0.950 . S
H2803 C2826 0.950 . S
H2804 C2827 0.950 . S
H2805 C2829 0.950 . S
H2806 C2830 0.950 . S
H2807 C2831 0.951 . S
H2808 C2833 0.951 . S
H2809 C2835 0.950 . S
H2810 C2836 0.950 . S
H2811 C2838 0.950 . S
H2812 C2841 0.950 . S
H2813 C2842 0.950 . S
H2814 C2844 0.950 . S
H2815 C2845 0.950 . S
C2816 H2798 0.951 . S
C2816 C2817 1.366 . S
C2816 C2818 1.388 . S
C2817 C2816 1.366 . S
C2817 C2821 1.385 . S
C2818 H2799 0.951 . S
C2818 C2816 1.388 . S
C2818 C2819 1.366 . S
C2819 C2818 1.366 . S
C2819 C2820 1.414 . S
C2819 C2822 1.499 . S
C2820 H2800 0.950 . S
C2820 C2819 1.414 . S
C2820 C2821 1.374 . S
C2821 H2801 0.950 . S
C2821 C2817 1.385 . S
C2821 C2820 1.374 . S
C2822 C2819 1.499 . S
C2822 C2823 1.373 . S
C2822 C2824 1.389 . S
C2823 H2802 0.950 . S
C2823 C2822 1.373 . S
C2823 C2839 1.377 . S
C2824 C2822 1.389 . S
C2824 C2825 1.524 . S
C2824 C2838 1.377 . S
C2825 C2824 1.524 . S
C2825 C2826 1.397 . S
C2825 C2830 1.363 . S
C2826 H2803 0.950 . S
C2826 C2825 1.397 . S
C2826 C2827 1.334 . S
C2827 H2804 0.950 . S
C2827 C2826 1.334 . S
C2827 C2828 1.287 . S
C2828 C2827 1.287 . S
C2828 C2829 1.524 . S
C2828 H2847 0.913 . S
C2829 H2805 0.950 . S
C2829 C2828 1.524 . S
C2829 C2830 1.415 . S
C2830 H2806 0.950 . S
C2830 C2825 1.363 . S
C2830 C2829 1.415 . S
C2831 H2807 0.951 . S
C2831 C2832 1.366 . S
C2831 C2833 1.388 . S
C2832 C2831 1.366 . S
C2832 C2836 1.385 . S
C2833 H2808 0.951 . S
C2833 C2831 1.388 . S
C2833 C2834 1.366 . S
C2834 C2833 1.366 . S
C2834 C2835 1.414 . S
C2834 C2837 1.499 . S
C2835 H2809 0.950 . S
C2835 C2834 1.414 . S
C2835 C2836 1.374 . S
C2836 H2810 0.950 . S
C2836 C2832 1.385 . S
C2836 C2835 1.374 . S
C2837 C2834 1.499 . S
C2837 C2838 1.373 . S
C2837 C2839 1.389 . S
C2838 H2811 0.950 . S
C2838 C2824 1.377 . S
C2838 C2837 1.373 . S
C2839 C2823 1.377 . S
C2839 C2837 1.389 . S
C2839 C2840 1.524 . S
C2840 C2839 1.524 . S
C2840 C2841 1.397 . S
C2840 C2845 1.363 . S
C2841 H2812 0.950 . S
C2841 C2840 1.397 . S
C2841 C2842 1.334 . S
C2842 H2813 0.950 . S
C2842 C2841 1.334 . S
C2842 C2843 1.287 . S
C2843 C2842 1.287 . S
C2843 C2844 1.524 . S
C2843 H2846 0.999 . S
C2844 H2814 0.950 . S
C2844 C2843 1.524 . S
C2844 C2845 1.415 . S
C2845 H2815 0.950 . S
C2845 C2840 1.363 . S
C2845 C2844 1.415 . S
H2846 C2843 0.999 . S
H2847 C2828 0.913 . S
H2848 C2866 0.951 . S
H2849 C2868 0.951 . S
H2850 C2870 0.950 . S
H2851 C2871 0.950 . S
H2852 C2873 0.950 . S
H2853 C2876 0.950 . S
H2854 C2877 0.950 . S
H2855 C2879 0.950 . S
H2856 C2880 0.951 1_655 S
H2857 C2881 0.951 . S
H2858 C2883 0.951 . S
H2859 C2885 0.950 . S
H2860 C2886 0.950 . S
H2861 C2888 0.950 . S
H2862 C2891 0.950 . S
H2863 C2892 0.950 . S
H2864 C2894 0.950 . S
H2865 C2895 0.950 . S
C2866 H2848 0.951 . S
C2866 C2867 1.366 . S
C2866 C2868 1.388 . S
C2867 C2866 1.366 . S
C2867 C2871 1.385 . S
C2868 H2849 0.951 . S
C2868 C2866 1.388 . S
C2868 C2869 1.366 . S
C2869 C2868 1.366 . S
C2869 C2870 1.414 . S
C2869 C2872 1.499 . S
C2870 H2850 0.950 . S
C2870 C2869 1.414 . S
C2870 C2871 1.374 . S
C2871 H2851 0.950 . S
C2871 C2867 1.385 . S
C2871 C2870 1.374 . S
C2872 C2869 1.499 . S
C2872 C2873 1.373 . S
C2872 C2874 1.389 . S
C2873 H2852 0.950 . S
C2873 C2872 1.373 . S
C2873 C2889 1.377 . S
C2874 C2872 1.389 . S
C2874 C2875 1.524 . S
C2874 C2888 1.377 . S
C2875 C2874 1.524 . S
C2875 C2876 1.397 . S
C2875 C2880 1.363 . S
C2876 H2853 0.950 . S
C2876 C2875 1.397 . S
C2876 C2877 1.334 . S
C2877 H2854 0.950 . S
C2877 C2876 1.334 . S
C2877 C2878 1.287 . S
C2878 C2877 1.287 . S
C2878 C2879 1.524 1_455 S
C2878 H2897 0.913 . S
C2879 H2855 0.950 . S
C2879 C2878 1.524 1_655 S
C2879 C2880 1.415 1_655 S
C2880 H2856 0.951 1_455 S
C2880 C2875 1.363 . S
C2880 C2879 1.415 1_455 S
C2881 H2857 0.951 . S
C2881 C2882 1.366 . S
C2881 C2883 1.388 . S
C2882 C2881 1.366 . S
C2882 C2886 1.385 . S
C2883 H2858 0.951 . S
C2883 C2881 1.388 . S
C2883 C2884 1.366 . S
C2884 C2883 1.366 . S
C2884 C2885 1.414 . S
C2884 C2887 1.499 . S
C2885 H2859 0.950 . S
C2885 C2884 1.414 . S
C2885 C2886 1.374 . S
C2886 H2860 0.950 . S
C2886 C2882 1.385 . S
C2886 C2885 1.374 . S
C2887 C2884 1.499 . S
C2887 C2888 1.373 . S
C2887 C2889 1.389 . S
C2888 H2861 0.950 . S
C2888 C2874 1.377 . S
C2888 C2887 1.373 . S
C2889 C2873 1.377 . S
C2889 C2887 1.389 . S
C2889 C2890 1.524 . S
C2890 C2889 1.524 . S
C2890 C2891 1.397 . S
C2890 C2895 1.363 . S
C2891 H2862 0.950 . S
C2891 C2890 1.397 . S
C2891 C2892 1.334 . S
C2892 H2863 0.950 . S
C2892 C2891 1.334 . S
C2892 C2893 1.287 . S
C2893 C2892 1.287 . S
C2893 C2894 1.524 . S
C2893 H2896 0.999 . S
C2894 H2864 0.950 . S
C2894 C2893 1.524 . S
C2894 C2895 1.415 . S
C2895 H2865 0.950 . S
C2895 C2890 1.363 . S
C2895 C2894 1.415 . S
H2896 C2893 0.999 . S
H2897 C2878 0.913 . S
H2898 C2916 0.951 . S
H2899 C2918 0.951 . S
H2900 C2920 0.950 . S
H2901 C2921 0.950 . S
H2902 C2923 0.950 . S
H2903 C2926 0.950 . S
H2904 C2927 0.950 . S
H2905 C2929 0.950 . S
H2906 C2930 0.950 . S
H2907 C2931 0.951 . S
H2908 C2933 0.951 . S
H2909 C2935 0.950 . S
H2910 C2936 0.950 . S
H2911 C2938 0.950 . S
H2912 C2941 0.950 . S
H2913 C2942 0.950 . S
H2914 C2944 0.950 . S
H2915 C2945 0.950 . S
C2916 H2898 0.951 . S
C2916 C2917 1.366 . S
C2916 C2918 1.388 . S
C2917 C2916 1.366 . S
C2917 C2921 1.385 . S
C2918 H2899 0.951 . S
C2918 C2916 1.388 . S
C2918 C2919 1.366 . S
C2919 C2918 1.366 . S
C2919 C2920 1.414 . S
C2919 C2922 1.499 . S
C2920 H2900 0.950 . S
C2920 C2919 1.414 . S
C2920 C2921 1.374 . S
C2921 H2901 0.950 . S
C2921 C2917 1.385 . S
C2921 C2920 1.374 . S
C2922 C2919 1.499 . S
C2922 C2923 1.373 . S
C2922 C2924 1.389 . S
C2923 H2902 0.950 . S
C2923 C2922 1.373 . S
C2923 C2939 1.377 . S
C2924 C2922 1.389 . S
C2924 C2925 1.524 . S
C2924 C2938 1.377 . S
C2925 C2924 1.524 . S
C2925 C2926 1.397 . S
C2925 C2930 1.363 . S
C2926 H2903 0.950 . S
C2926 C2925 1.397 . S
C2926 C2927 1.334 . S
C2927 H2904 0.950 . S
C2927 C2926 1.334 . S
C2927 C2928 1.287 . S
C2928 C2927 1.287 . S
C2928 C2929 1.524 . S
C2928 H2947 0.913 . S
C2929 H2905 0.950 . S
C2929 C2928 1.524 . S
C2929 C2930 1.415 . S
C2930 H2906 0.950 . S
C2930 C2925 1.363 . S
C2930 C2929 1.415 . S
C2931 H2907 0.951 . S
C2931 C2932 1.366 . S
C2931 C2933 1.388 . S
C2932 C2931 1.366 . S
C2932 C2936 1.385 . S
C2933 H2908 0.951 . S
C2933 C2931 1.388 . S
C2933 C2934 1.366 . S
C2934 C2933 1.366 . S
C2934 C2935 1.414 . S
C2934 C2937 1.499 . S
C2935 H2909 0.950 . S
C2935 C2934 1.414 . S
C2935 C2936 1.374 . S
C2936 H2910 0.950 . S
C2936 C2932 1.385 . S
C2936 C2935 1.374 . S
C2937 C2934 1.499 . S
C2937 C2938 1.373 . S
C2937 C2939 1.389 . S
C2938 H2911 0.950 . S
C2938 C2924 1.377 . S
C2938 C2937 1.373 . S
C2939 C2923 1.377 . S
C2939 C2937 1.389 . S
C2939 C2940 1.524 . S
C2940 C2939 1.524 . S
C2940 C2941 1.397 . S
C2940 C2945 1.363 . S
C2941 H2912 0.950 . S
C2941 C2940 1.397 . S
C2941 C2942 1.334 . S
C2942 H2913 0.950 . S
C2942 C2941 1.334 . S
C2942 C2943 1.287 . S
C2943 C2942 1.287 . S
C2943 C2944 1.524 . S
C2943 H2946 0.999 . S
C2944 H2914 0.950 . S
C2944 C2943 1.524 . S
C2944 C2945 1.415 . S
C2945 H2915 0.950 . S
C2945 C2940 1.363 . S
C2945 C2944 1.415 . S
H2946 C2943 0.999 . S
H2947 C2928 0.913 . S
H2948 C2966 0.951 . S
H2949 C2968 0.951 . S
H2950 C2970 0.950 . S
H2951 C2971 0.950 . S
H2952 C2973 0.950 . S
H2953 C2976 0.950 . S
H2954 C2977 0.950 . S
H2955 C2979 0.950 . S
H2956 C2980 0.950 . S
H2957 C2981 0.951 . S
H2958 C2983 0.951 . S
H2959 C2985 0.950 . S
H2960 C2986 0.950 . S
H2961 C2988 0.950 . S
H2962 C2991 0.950 . S
H2963 C2992 0.950 . S
H2964 C2994 0.950 . S
H2965 C2995 0.950 . S
C2966 H2948 0.951 . S
C2966 C2967 1.366 . S
C2966 C2968 1.388 . S
C2967 C2966 1.366 . S
C2967 C2971 1.385 . S
C2968 H2949 0.951 . S
C2968 C2966 1.388 . S
C2968 C2969 1.366 . S
C2969 C2968 1.366 . S
C2969 C2970 1.414 . S
C2969 C2972 1.499 . S
C2970 H2950 0.950 . S
C2970 C2969 1.414 . S
C2970 C2971 1.374 . S
C2971 H2951 0.950 . S
C2971 C2967 1.385 . S
C2971 C2970 1.374 . S
C2972 C2969 1.499 . S
C2972 C2973 1.373 . S
C2972 C2974 1.389 . S
C2973 H2952 0.950 . S
C2973 C2972 1.373 . S
C2973 C2989 1.377 . S
C2974 C2972 1.389 . S
C2974 C2975 1.524 . S
C2974 C2988 1.377 . S
C2975 C2974 1.524 . S
C2975 C2976 1.397 . S
C2975 C2980 1.363 . S
C2976 H2953 0.950 . S
C2976 C2975 1.397 . S
C2976 C2977 1.334 . S
C2977 H2954 0.950 . S
C2977 C2976 1.334 . S
C2977 C2978 1.287 . S
C2978 C2977 1.287 . S
C2978 C2979 1.524 . S
C2978 H2997 0.913 . S
C2979 H2955 0.950 . S
C2979 C2978 1.524 . S
C2979 C2980 1.415 . S
C2980 H2956 0.950 . S
C2980 C2975 1.363 . S
C2980 C2979 1.415 . S
C2981 H2957 0.951 . S
C2981 C2982 1.366 . S
C2981 C2983 1.388 . S
C2982 C2981 1.366 . S
C2982 C2986 1.385 . S
C2983 H2958 0.951 . S
C2983 C2981 1.388 . S
C2983 C2984 1.366 . S
C2984 C2983 1.366 . S
C2984 C2985 1.414 . S
C2984 C2987 1.499 . S
C2985 H2959 0.950 . S
C2985 C2984 1.414 . S
C2985 C2986 1.374 . S
C2986 H2960 0.950 . S
C2986 C2982 1.385 . S
C2986 C2985 1.374 . S
C2987 C2984 1.499 . S
C2987 C2988 1.373 . S
C2987 C2989 1.389 . S
C2988 H2961 0.950 . S
C2988 C2974 1.377 . S
C2988 C2987 1.373 . S
C2989 C2973 1.377 . S
C2989 C2987 1.389 . S
C2989 C2990 1.524 . S
C2990 C2989 1.524 . S
C2990 C2991 1.397 . S
C2990 C2995 1.363 . S
C2991 H2962 0.950 . S
C2991 C2990 1.397 . S
C2991 C2992 1.334 . S
C2992 H2963 0.950 . S
C2992 C2991 1.334 . S
C2992 C2993 1.287 . S
C2993 C2992 1.287 . S
C2993 C2994 1.524 . S
C2993 H2996 0.999 . S
C2994 H2964 0.950 . S
C2994 C2993 1.524 . S
C2994 C2995 1.415 . S
C2995 H2965 0.950 . S
C2995 C2990 1.363 . S
C2995 C2994 1.415 . S
H2996 C2993 0.999 . S
H2997 C2978 0.913 . S
H2998 C3016 0.951 . S
H2999 C3018 0.951 . S
H3000 C3020 0.950 1_554 S
H3001 C3021 0.950 . S
H3002 C3023 0.950 . S
H3003 C3026 0.950 . S
H3004 C3027 0.950 . S
H3005 C3029 0.940 1_556 S
H3006 C3030 0.963 . S
H3007 C3031 0.951 . S
H3008 C3033 0.951 . S
H3009 C3035 0.950 1_556 S
H3010 C3036 0.950 . S
H3011 C3038 0.950 . S
H3012 C3041 0.950 . S
H3013 C3042 0.950 . S
H3014 C3044 0.940 1_554 S
H3015 C3045 0.963 . S
C3016 H2998 0.951 . S
C3016 C3017 1.366 . S
C3016 C3018 1.388 . S
C3017 C3016 1.366 . S
C3017 C3021 1.385 . S
C3018 H2999 0.951 . S
C3018 C3016 1.388 . S
C3018 C3019 1.366 . S
C3019 C3018 1.366 . S
C3019 C3020 1.414 . S
C3019 C3022 1.499 . S
C3020 H3000 0.950 1_556 S
C3020 C3019 1.414 . S
C3020 C3021 1.374 . S
C3021 H3001 0.950 . S
C3021 C3017 1.385 . S
C3021 C3020 1.374 . S
C3022 C3019 1.499 . S
C3022 C3023 1.373 . S
C3022 C3024 1.389 1_556 S
C3023 H3002 0.950 . S
C3023 C3022 1.373 . S
C3023 C3039 1.377 . S
C3024 C3022 1.389 1_554 S
C3024 C3025 1.524 . S
C3024 C3038 1.377 . S
C3025 C3024 1.524 . S
C3025 C3026 1.397 . S
C3025 C3030 1.355 1_554 S
C3026 H3003 0.950 . S
C3026 C3025 1.397 . S
C3026 C3027 1.334 . S
C3027 H3004 0.950 . S
C3027 C3026 1.334 . S
C3027 C3028 1.287 . S
C3028 C3027 1.287 . S
C3028 C3029 1.524 . S
C3028 H3047 0.913 . S
C3029 H3005 0.940 1_554 S
C3029 C3028 1.524 . S
C3029 C3030 1.410 1_554 S
C3030 H3006 0.963 . S
C3030 C3025 1.355 1_556 S
C3030 C3029 1.410 1_556 S
C3031 H3007 0.951 . S
C3031 C3032 1.366 . S
C3031 C3033 1.388 . S
C3032 C3031 1.366 . S
C3032 C3036 1.385 . S
C3033 H3008 0.951 . S
C3033 C3031 1.388 . S
C3033 C3034 1.366 . S
C3034 C3033 1.366 . S
C3034 C3035 1.414 . S
C3034 C3037 1.499 . S
C3035 H3009 0.950 1_554 S
C3035 C3034 1.414 . S
C3035 C3036 1.374 . S
C3036 H3010 0.950 . S
C3036 C3032 1.385 . S
C3036 C3035 1.374 . S
C3037 C3034 1.499 . S
C3037 C3038 1.373 . S
C3037 C3039 1.389 1_554 S
C3038 H3011 0.950 . S
C3038 C3024 1.377 . S
C3038 C3037 1.373 . S
C3039 C3023 1.377 . S
C3039 C3037 1.389 1_556 S
C3039 C3040 1.524 . S
C3040 C3039 1.524 . S
C3040 C3041 1.397 . S
C3040 C3045 1.355 1_556 S
C3041 H3012 0.950 . S
C3041 C3040 1.397 . S
C3041 C3042 1.334 . S
C3042 H3013 0.950 . S
C3042 C3041 1.334 . S
C3042 C3043 1.287 . S
C3043 C3042 1.287 . S
C3043 C3044 1.524 . S
C3043 H3046 0.999 . S
C3044 H3014 0.940 1_556 S
C3044 C3043 1.524 . S
C3044 C3045 1.410 1_556 S
C3045 H3015 0.963 . S
C3045 C3040 1.355 1_554 S
C3045 C3044 1.410 1_554 S
H3046 C3043 0.999 . S
H3047 C3028 0.913 . S
H3048 C3066 0.951 . S
H3049 C3068 0.951 . S
H3050 C3070 0.950 . S
H3051 C3071 0.950 . S
H3052 C3073 0.950 . S
H3053 C3076 0.950 . S
H3054 C3077 0.950 . S
H3055 C3079 0.950 . S
H3056 C3080 0.950 . S
H3057 C3081 0.951 . S
H3058 C3083 0.951 . S
H3059 C3085 0.950 . S
H3060 C3086 0.950 . S
H3061 C3088 0.950 . S
H3062 C3091 0.950 . S
H3063 C3092 0.950 . S
H3064 C3094 0.950 . S
H3065 C3095 0.950 . S
C3066 H3048 0.951 . S
C3066 C3067 1.366 . S
C3066 C3068 1.388 . S
C3067 C3066 1.366 . S
C3067 C3071 1.385 . S
C3068 H3049 0.951 . S
C3068 C3066 1.388 . S
C3068 C3069 1.366 . S
C3069 C3068 1.366 . S
C3069 C3070 1.414 . S
C3069 C3072 1.499 . S
C3070 H3050 0.950 . S
C3070 C3069 1.414 . S
C3070 C3071 1.374 . S
C3071 H3051 0.950 . S
C3071 C3067 1.385 . S
C3071 C3070 1.374 . S
C3072 C3069 1.499 . S
C3072 C3073 1.373 . S
C3072 C3074 1.389 . S
C3073 H3052 0.950 . S
C3073 C3072 1.373 . S
C3073 C3089 1.377 . S
C3074 C3072 1.389 . S
C3074 C3075 1.524 . S
C3074 C3088 1.377 . S
C3075 C3074 1.524 . S
C3075 C3076 1.397 . S
C3075 C3080 1.363 . S
C3076 H3053 0.950 . S
C3076 C3075 1.397 . S
C3076 C3077 1.334 . S
C3077 H3054 0.950 . S
C3077 C3076 1.334 . S
C3077 C3078 1.287 . S
C3078 C3077 1.287 . S
C3078 C3079 1.524 . S
C3078 H3097 0.913 . S
C3079 H3055 0.950 . S
C3079 C3078 1.524 . S
C3079 C3080 1.415 . S
C3080 H3056 0.950 . S
C3080 C3075 1.363 . S
C3080 C3079 1.415 . S
C3081 H3057 0.951 . S
C3081 C3082 1.366 . S
C3081 C3083 1.388 . S
C3082 C3081 1.366 . S
C3082 C3086 1.385 . S
C3083 H3058 0.951 . S
C3083 C3081 1.388 . S
C3083 C3084 1.366 . S
C3084 C3083 1.366 . S
C3084 C3085 1.414 . S
C3084 C3087 1.499 . S
C3085 H3059 0.950 . S
C3085 C3084 1.414 . S
C3085 C3086 1.374 . S
C3086 H3060 0.950 . S
C3086 C3082 1.385 . S
C3086 C3085 1.374 . S
C3087 C3084 1.499 . S
C3087 C3088 1.373 . S
C3087 C3089 1.389 . S
C3088 H3061 0.950 . S
C3088 C3074 1.377 . S
C3088 C3087 1.373 . S
C3089 C3073 1.377 . S
C3089 C3087 1.389 . S
C3089 C3090 1.524 . S
C3090 C3089 1.524 . S
C3090 C3091 1.397 . S
C3090 C3095 1.363 . S
C3091 H3062 0.950 . S
C3091 C3090 1.397 . S
C3091 C3092 1.334 . S
C3092 H3063 0.950 . S
C3092 C3091 1.334 . S
C3092 C3093 1.287 . S
C3093 C3092 1.287 . S
C3093 C3094 1.524 . S
C3093 H3096 0.999 . S
C3094 H3064 0.950 . S
C3094 C3093 1.524 . S
C3094 C3095 1.415 . S
C3095 H3065 0.950 . S
C3095 C3090 1.363 . S
C3095 C3094 1.415 . S
H3096 C3093 0.999 . S
H3097 C3078 0.913 . S
H3098 C3116 0.951 . S
H3099 C3118 0.951 . S
H3100 C3120 0.950 . S
H3101 C3121 0.950 . S
H3102 C3123 0.950 . S
H3103 C3126 0.950 . S
H3104 C3127 0.950 . S
H3105 C3129 0.950 . S
H3106 C3130 0.950 . S
H3107 C3131 0.951 . S
H3108 C3133 0.951 . S
H3109 C3135 0.950 . S
H3110 C3136 0.950 . S
H3111 C3138 0.950 . S
H3112 C3141 0.950 . S
H3113 C3142 0.950 . S
H3114 C3144 0.950 . S
H3115 C3145 0.950 . S
C3116 H3098 0.951 . S
C3116 C3117 1.366 . S
C3116 C3118 1.388 . S
C3117 C3116 1.366 . S
C3117 C3121 1.385 . S
C3118 H3099 0.951 . S
C3118 C3116 1.388 . S
C3118 C3119 1.366 . S
C3119 C3118 1.366 . S
C3119 C3120 1.414 . S
C3119 C3122 1.499 . S
C3120 H3100 0.950 . S
C3120 C3119 1.414 . S
C3120 C3121 1.374 . S
C3121 H3101 0.950 . S
C3121 C3117 1.385 . S
C3121 C3120 1.374 . S
C3122 C3119 1.499 . S
C3122 C3123 1.373 . S
C3122 C3124 1.389 . S
C3123 H3102 0.950 . S
C3123 C3122 1.373 . S
C3123 C3139 1.377 . S
C3124 C3122 1.389 . S
C3124 C3125 1.524 . S
C3124 C3138 1.377 . S
C3125 C3124 1.524 . S
C3125 C3126 1.397 . S
C3125 C3130 1.363 . S
C3126 H3103 0.950 . S
C3126 C3125 1.397 . S
C3126 C3127 1.334 . S
C3127 H3104 0.950 . S
C3127 C3126 1.334 . S
C3127 C3128 1.287 . S
C3128 C3127 1.287 . S
C3128 C3129 1.524 . S
C3128 H3147 0.913 . S
C3129 H3105 0.950 . S
C3129 C3128 1.524 . S
C3129 C3130 1.415 . S
C3130 H3106 0.950 . S
C3130 C3125 1.363 . S
C3130 C3129 1.415 . S
C3131 H3107 0.951 . S
C3131 C3132 1.366 . S
C3131 C3133 1.388 . S
C3132 C3131 1.366 . S
C3132 C3136 1.385 . S
C3133 H3108 0.951 . S
C3133 C3131 1.388 . S
C3133 C3134 1.366 . S
C3134 C3133 1.366 . S
C3134 C3135 1.414 . S
C3134 C3137 1.499 . S
C3135 H3109 0.950 . S
C3135 C3134 1.414 . S
C3135 C3136 1.374 . S
C3136 H3110 0.950 . S
C3136 C3132 1.385 . S
C3136 C3135 1.374 . S
C3137 C3134 1.499 . S
C3137 C3138 1.373 . S
C3137 C3139 1.389 . S
C3138 H3111 0.950 . S
C3138 C3124 1.377 . S
C3138 C3137 1.373 . S
C3139 C3123 1.377 . S
C3139 C3137 1.389 . S
C3139 C3140 1.524 . S
C3140 C3139 1.524 . S
C3140 C3141 1.397 . S
C3140 C3145 1.363 . S
C3141 H3112 0.950 . S
C3141 C3140 1.397 . S
C3141 C3142 1.334 . S
C3142 H3113 0.950 . S
C3142 C3141 1.334 . S
C3142 C3143 1.287 . S
C3143 C3142 1.287 . S
C3143 C3144 1.524 . S
C3143 H3146 0.999 . S
C3144 H3114 0.950 . S
C3144 C3143 1.524 . S
C3144 C3145 1.415 . S
C3145 H3115 0.950 . S
C3145 C3140 1.363 . S
C3145 C3144 1.415 . S
H3146 C3143 0.999 . S
H3147 C3128 0.913 . S
H3148 C3166 0.951 . S
H3149 C3168 0.951 . S
H3150 C3170 0.950 . S
H3151 C3171 0.950 . S
H3152 C3173 0.950 . S
H3153 C3176 0.950 . S
H3154 C3177 0.950 . S
H3155 C3179 0.950 . S
H3156 C3180 0.950 . S
H3157 C3181 0.951 . S
H3158 C3183 0.951 . S
H3159 C3185 0.950 . S
H3160 C3186 0.950 . S
H3161 C3188 0.950 . S
H3162 C3191 0.950 . S
H3163 C3192 0.950 . S
H3164 C3194 0.950 . S
H3165 C3195 0.950 . S
C3166 H3148 0.951 . S
C3166 C3167 1.366 . S
C3166 C3168 1.388 . S
C3167 C3166 1.366 . S
C3167 C3171 1.385 . S
C3168 H3149 0.951 . S
C3168 C3166 1.388 . S
C3168 C3169 1.366 . S
C3169 C3168 1.366 . S
C3169 C3170 1.414 . S
C3169 C3172 1.499 . S
C3170 H3150 0.950 . S
C3170 C3169 1.414 . S
C3170 C3171 1.374 . S
C3171 H3151 0.950 . S
C3171 C3167 1.385 . S
C3171 C3170 1.374 . S
C3172 C3169 1.499 . S
C3172 C3173 1.373 . S
C3172 C3174 1.389 . S
C3173 H3152 0.950 . S
C3173 C3172 1.373 . S
C3173 C3189 1.377 . S
C3174 C3172 1.389 . S
C3174 C3175 1.524 . S
C3174 C3188 1.377 . S
C3175 C3174 1.524 . S
C3175 C3176 1.397 . S
C3175 C3180 1.363 . S
C3176 H3153 0.950 . S
C3176 C3175 1.397 . S
C3176 C3177 1.334 . S
C3177 H3154 0.950 . S
C3177 C3176 1.334 . S
C3177 C3178 1.287 . S
C3178 C3177 1.287 . S
C3178 C3179 1.524 . S
C3178 H3197 0.913 . S
C3179 H3155 0.950 . S
C3179 C3178 1.524 . S
C3179 C3180 1.415 . S
C3180 H3156 0.950 . S
C3180 C3175 1.363 . S
C3180 C3179 1.415 . S
C3181 H3157 0.951 . S
C3181 C3182 1.366 . S
C3181 C3183 1.388 . S
C3182 C3181 1.366 . S
C3182 C3186 1.385 . S
C3183 H3158 0.951 . S
C3183 C3181 1.388 . S
C3183 C3184 1.366 . S
C3184 C3183 1.366 . S
C3184 C3185 1.414 . S
C3184 C3187 1.499 . S
C3185 H3159 0.950 . S
C3185 C3184 1.414 . S
C3185 C3186 1.374 . S
C3186 H3160 0.950 . S
C3186 C3182 1.385 . S
C3186 C3185 1.374 . S
C3187 C3184 1.499 . S
C3187 C3188 1.373 . S
C3187 C3189 1.389 . S
C3188 H3161 0.950 . S
C3188 C3174 1.377 . S
C3188 C3187 1.373 . S
C3189 C3173 1.377 . S
C3189 C3187 1.389 . S
C3189 C3190 1.524 . S
C3190 C3189 1.524 . S
C3190 C3191 1.397 . S
C3190 C3195 1.363 . S
C3191 H3162 0.950 . S
C3191 C3190 1.397 . S
C3191 C3192 1.334 . S
C3192 H3163 0.950 . S
C3192 C3191 1.334 . S
C3192 C3193 1.287 . S
C3193 C3192 1.287 . S
C3193 C3194 1.524 . S
C3193 H3196 0.999 . S
C3194 H3164 0.950 . S
C3194 C3193 1.524 . S
C3194 C3195 1.415 . S
C3195 H3165 0.950 . S
C3195 C3190 1.363 . S
C3195 C3194 1.415 . S
H3196 C3193 0.999 . S
H3197 C3178 0.913 . S
H3198 C3216 0.951 . S
H3199 C3218 0.951 . S
H3200 C3220 0.966 . S
H3201 C3221 0.950 1_556 S
H3202 C3223 0.950 . S
H3203 C3226 0.950 . S
H3204 C3227 0.950 . S
H3205 C3229 0.950 . S
H3206 C3230 0.950 . S
H3207 C3231 0.951 . S
H3208 C3233 0.951 . S
H3209 C3235 0.966 . S
H3210 C3236 0.950 1_554 S
H3211 C3238 0.950 . S
H3212 C3241 0.950 . S
H3213 C3242 0.950 . S
H3214 C3244 0.950 . S
H3215 C3245 0.950 . S
C3216 H3198 0.951 . S
C3216 C3217 1.366 . S
C3216 C3218 1.388 . S
C3217 C3216 1.366 . S
C3217 C3221 1.385 . S
C3218 H3199 0.951 . S
C3218 C3216 1.388 . S
C3218 C3219 1.366 . S
C3219 C3218 1.366 . S
C3219 C3220 1.404 1_554 S
C3219 C3222 1.499 . S
C3220 H3200 0.966 . S
C3220 C3219 1.404 1_556 S
C3220 C3221 1.369 1_556 S
C3221 H3201 0.950 1_554 S
C3221 C3217 1.385 . S
C3221 C3220 1.369 1_554 S
C3222 C3219 1.499 . S
C3222 C3223 1.373 1_554 S
C3222 C3224 1.389 . S
C3223 H3202 0.950 . S
C3223 C3222 1.373 1_556 S
C3223 C3239 1.377 . S
C3224 C3222 1.389 . S
C3224 C3225 1.524 . S
C3224 C3238 1.377 . S
C3225 C3224 1.524 . S
C3225 C3226 1.397 . S
C3225 C3230 1.363 . S
C3226 H3203 0.950 . S
C3226 C3225 1.397 . S
C3226 C3227 1.334 . S
C3227 H3204 0.950 . S
C3227 C3226 1.334 . S
C3227 C3228 1.287 . S
C3228 C3227 1.287 . S
C3228 C3229 1.524 . S
C3228 H3247 0.913 . S
C3229 H3205 0.950 . S
C3229 C3228 1.524 . S
C3229 C3230 1.415 . S
C3230 H3206 0.950 . S
C3230 C3225 1.363 . S
C3230 C3229 1.415 . S
C3231 H3207 0.951 . S
C3231 C3232 1.366 . S
C3231 C3233 1.388 . S
C3232 C3231 1.366 . S
C3232 C3236 1.385 . S
C3233 H3208 0.951 . S
C3233 C3231 1.388 . S
C3233 C3234 1.366 . S
C3234 C3233 1.366 . S
C3234 C3235 1.404 1_556 S
C3234 C3237 1.499 . S
C3235 H3209 0.966 . S
C3235 C3234 1.404 1_554 S
C3235 C3236 1.369 1_554 S
C3236 H3210 0.950 1_556 S
C3236 C3232 1.385 . S
C3236 C3235 1.369 1_556 S
C3237 C3234 1.499 . S
C3237 C3238 1.373 1_556 S
C3237 C3239 1.389 . S
C3238 H3211 0.950 . S
C3238 C3224 1.377 . S
C3238 C3237 1.373 1_554 S
C3239 C3223 1.377 . S
C3239 C3237 1.389 . S
C3239 C3240 1.524 . S
C3240 C3239 1.524 . S
C3240 C3241 1.397 . S
C3240 C3245 1.363 . S
C3241 H3212 0.950 . S
C3241 C3240 1.397 . S
C3241 C3242 1.334 . S
C3242 H3213 0.950 . S
C3242 C3241 1.334 . S
C3242 C3243 1.287 . S
C3243 C3242 1.287 . S
C3243 C3244 1.524 . S
C3243 H3246 0.999 . S
C3244 H3214 0.950 . S
C3244 C3243 1.524 . S
C3244 C3245 1.415 . S
C3245 H3215 0.950 . S
C3245 C3240 1.363 . S
C3245 C3244 1.415 . S
H3246 C3243 0.999 . S
H3247 C3228 0.913 . S
H3248 C3266 0.951 . S
H3249 C3268 0.951 . S
H3250 C3270 0.950 . S
H3251 C3271 0.950 . S
H3252 C3273 0.950 . S
H3253 C3276 0.950 . S
H3254 C3277 0.950 . S
H3255 C3279 0.950 . S
H3256 C3280 0.950 . S
H3257 C3281 0.951 . S
H3258 C3283 0.951 . S
H3259 C3285 0.950 . S
H3260 C3286 0.950 . S
H3261 C3288 0.950 . S
H3262 C3291 0.950 . S
H3263 C3292 0.950 . S
H3264 C3294 0.950 . S
H3265 C3295 0.950 . S
C3266 H3248 0.951 . S
C3266 C3267 1.366 . S
C3266 C3268 1.388 . S
C3267 C3266 1.366 . S
C3267 C3271 1.385 . S
C3268 H3249 0.951 . S
C3268 C3266 1.388 . S
C3268 C3269 1.366 . S
C3269 C3268 1.366 . S
C3269 C3270 1.414 . S
C3269 C3272 1.499 . S
C3270 H3250 0.950 . S
C3270 C3269 1.414 . S
C3270 C3271 1.374 . S
C3271 H3251 0.950 . S
C3271 C3267 1.385 . S
C3271 C3270 1.374 . S
C3272 C3269 1.499 . S
C3272 C3273 1.373 . S
C3272 C3274 1.389 . S
C3273 H3252 0.950 . S
C3273 C3272 1.373 . S
C3273 C3289 1.377 1_565 S
C3274 C3272 1.389 . S
C3274 C3275 1.524 . S
C3274 C3288 1.377 1_565 S
C3275 C3274 1.524 . S
C3275 C3276 1.397 . S
C3275 C3280 1.363 . S
C3276 H3253 0.950 . S
C3276 C3275 1.397 . S
C3276 C3277 1.334 . S
C3277 H3254 0.950 . S
C3277 C3276 1.334 . S
C3277 C3278 1.287 . S
C3278 C3277 1.287 . S
C3278 C3279 1.524 . S
C3278 H3297 0.913 . S
C3279 H3255 0.950 . S
C3279 C3278 1.524 . S
C3279 C3280 1.415 . S
C3280 H3256 0.950 . S
C3280 C3275 1.363 . S
C3280 C3279 1.415 . S
C3281 H3257 0.951 . S
C3281 C3282 1.366 . S
C3281 C3283 1.388 . S
C3282 C3281 1.366 . S
C3282 C3286 1.385 . S
C3283 H3258 0.951 . S
C3283 C3281 1.388 . S
C3283 C3284 1.366 . S
C3284 C3283 1.366 . S
C3284 C3285 1.414 . S
C3284 C3287 1.499 . S
C3285 H3259 0.950 . S
C3285 C3284 1.414 . S
C3285 C3286 1.374 . S
C3286 H3260 0.950 . S
C3286 C3282 1.385 . S
C3286 C3285 1.374 . S
C3287 C3284 1.499 . S
C3287 C3288 1.373 . S
C3287 C3289 1.389 . S
C3288 H3261 0.950 . S
C3288 C3274 1.377 1_545 S
C3288 C3287 1.373 . S
C3289 C3273 1.377 1_545 S
C3289 C3287 1.389 . S
C3289 C3290 1.524 . S
C3290 C3289 1.524 . S
C3290 C3291 1.397 . S
C3290 C3295 1.363 . S
C3291 H3262 0.950 . S
C3291 C3290 1.397 . S
C3291 C3292 1.334 . S
C3292 H3263 0.950 . S
C3292 C3291 1.334 . S
C3292 C3293 1.287 . S
C3293 C3292 1.287 . S
C3293 C3294 1.524 . S
C3293 H3296 0.999 . S
C3294 H3264 0.950 . S
C3294 C3293 1.524 . S
C3294 C3295 1.415 . S
C3295 H3265 0.950 . S
C3295 C3290 1.363 . S
C3295 C3294 1.415 . S
H3296 C3293 0.999 . S
H3297 C3278 0.913 . S
H3298 C3316 0.951 1_556 S
H3299 C3318 0.951 . S
H3300 C3320 0.950 . S
H3301 C3321 0.950 . S
H3302 C3323 0.950 . S
H3303 C3326 0.950 . S
H3304 C3327 0.985 . S
H3305 C3329 0.950 . S
H3306 C3330 0.950 . S
H3307 C3331 0.951 1_554 S
H3308 C3333 0.951 . S
H3309 C3335 0.950 . S
H3310 C3336 0.950 . S
H3311 C3338 0.950 . S
H3312 C3341 0.950 . S
H3313 C3342 0.985 . S
H3314 C3344 0.950 . S
H3315 C3345 0.950 . S
C3316 H3298 0.951 1_554 S
C3316 C3317 1.366 . S
C3316 C3318 1.388 1_554 S
C3317 C3316 1.366 . S
C3317 C3321 1.385 . S
C3318 H3299 0.951 . S
C3318 C3316 1.388 1_556 S
C3318 C3319 1.366 1_556 S
C3319 C3318 1.366 1_554 S
C3319 C3320 1.414 . S
C3319 C3322 1.499 . S
C3320 H3300 0.950 . S
C3320 C3319 1.414 . S
C3320 C3321 1.374 . S
C3321 H3301 0.950 . S
C3321 C3317 1.385 . S
C3321 C3320 1.374 . S
C3322 C3319 1.499 . S
C3322 C3323 1.373 . S
C3322 C3324 1.389 1_554 S
C3323 H3302 0.950 . S
C3323 C3322 1.373 . S
C3323 C3339 1.377 . S
C3324 C3322 1.389 1_556 S
C3324 C3325 1.524 . S
C3324 C3338 1.377 . S
C3325 C3324 1.524 . S
C3325 C3326 1.397 1_556 S
C3325 C3330 1.363 . S
C3326 H3303 0.950 . S
C3326 C3325 1.397 1_554 S
C3326 C3327 1.343 . S
C3327 H3304 0.985 . S
C3327 C3326 1.343 . S
C3327 C3328 1.243 1_554 S
C3328 C3327 1.243 1_556 S
C3328 C3329 1.524 . S
C3328 H3347 0.913 . S
C3329 H3305 0.950 . S
C3329 C3328 1.524 . S
C3329 C3330 1.415 . S
C3330 H3306 0.950 . S
C3330 C3325 1.363 . S
C3330 C3329 1.415 . S
C3331 H3307 0.951 1_556 S
C3331 C3332 1.366 . S
C3331 C3333 1.388 1_556 S
C3332 C3331 1.366 . S
C3332 C3336 1.385 . S
C3333 H3308 0.951 . S
C3333 C3331 1.388 1_554 S
C3333 C3334 1.366 1_554 S
C3334 C3333 1.366 1_556 S
C3334 C3335 1.414 . S
C3334 C3337 1.499 . S
C3335 H3309 0.950 . S
C3335 C3334 1.414 . S
C3335 C3336 1.374 . S
C3336 H3310 0.950 . S
C3336 C3332 1.385 . S
C3336 C3335 1.374 . S
C3337 C3334 1.499 . S
C3337 C3338 1.373 . S
C3337 C3339 1.389 1_556 S
C3338 H3311 0.950 . S
C3338 C3324 1.377 . S
C3338 C3337 1.373 . S
C3339 C3323 1.377 . S
C3339 C3337 1.389 1_554 S
C3339 C3340 1.524 . S
C3340 C3339 1.524 . S
C3340 C3341 1.397 1_554 S
C3340 C3345 1.363 . S
C3341 H3312 0.950 . S
C3341 C3340 1.397 1_556 S
C3341 C3342 1.343 . S
C3342 H3313 0.985 . S
C3342 C3341 1.343 . S
C3342 C3343 1.243 1_556 S
C3343 C3342 1.243 1_554 S
C3343 C3344 1.524 . S
C3343 H3346 0.999 . S
C3344 H3314 0.950 . S
C3344 C3343 1.524 . S
C3344 C3345 1.415 . S
C3345 H3315 0.950 . S
C3345 C3340 1.363 . S
C3345 C3344 1.415 . S
H3346 C3343 0.999 . S
H3347 C3328 0.913 . S
H3348 C3366 0.951 . S
H3349 C3368 0.951 . S
H3350 C3370 0.950 . S
H3351 C3371 0.950 . S
H3352 C3373 0.950 . S
H3353 C3376 0.950 . S
H3354 C3377 0.950 . S
H3355 C3379 0.950 . S
H3356 C3380 0.950 . S
H3357 C3381 0.951 . S
H3358 C3383 0.951 . S
H3359 C3385 0.950 . S
H3360 C3386 0.950 . S
H3361 C3388 0.950 . S
H3362 C3391 0.950 . S
H3363 C3392 0.950 . S
H3364 C3394 0.950 . S
H3365 C3395 0.950 . S
C3366 H3348 0.951 . S
C3366 C3367 1.366 . S
C3366 C3368 1.388 . S
C3367 C3366 1.366 . S
C3367 C3371 1.385 . S
C3368 H3349 0.951 . S
C3368 C3366 1.388 . S
C3368 C3369 1.366 . S
C3369 C3368 1.366 . S
C3369 C3370 1.414 . S
C3369 C3372 1.499 . S
C3370 H3350 0.950 . S
C3370 C3369 1.414 . S
C3370 C3371 1.374 . S
C3371 H3351 0.950 . S
C3371 C3367 1.385 . S
C3371 C3370 1.374 . S
C3372 C3369 1.499 . S
C3372 C3373 1.373 . S
C3372 C3374 1.389 . S
C3373 H3352 0.950 . S
C3373 C3372 1.373 . S
C3373 C3389 1.377 1_545 S
C3374 C3372 1.389 . S
C3374 C3375 1.524 . S
C3374 C3388 1.377 1_545 S
C3375 C3374 1.524 . S
C3375 C3376 1.397 . S
C3375 C3380 1.363 . S
C3376 H3353 0.950 . S
C3376 C3375 1.397 . S
C3376 C3377 1.334 . S
C3377 H3354 0.950 . S
C3377 C3376 1.334 . S
C3377 C3378 1.287 . S
C3378 C3377 1.287 . S
C3378 C3379 1.524 . S
C3378 H3397 0.913 . S
C3379 H3355 0.950 . S
C3379 C3378 1.524 . S
C3379 C3380 1.415 . S
C3380 H3356 0.950 . S
C3380 C3375 1.363 . S
C3380 C3379 1.415 . S
C3381 H3357 0.951 . S
C3381 C3382 1.366 . S
C3381 C3383 1.388 . S
C3382 C3381 1.366 . S
C3382 C3386 1.385 . S
C3383 H3358 0.951 . S
C3383 C3381 1.388 . S
C3383 C3384 1.366 . S
C3384 C3383 1.366 . S
C3384 C3385 1.414 . S
C3384 C3387 1.499 . S
C3385 H3359 0.950 . S
C3385 C3384 1.414 . S
C3385 C3386 1.374 . S
C3386 H3360 0.950 . S
C3386 C3382 1.385 . S
C3386 C3385 1.374 . S
C3387 C3384 1.499 . S
C3387 C3388 1.373 . S
C3387 C3389 1.389 . S
C3388 H3361 0.950 . S
C3388 C3374 1.377 1_565 S
C3388 C3387 1.373 . S
C3389 C3373 1.377 1_565 S
C3389 C3387 1.389 . S
C3389 C3390 1.524 . S
C3390 C3389 1.524 . S
C3390 C3391 1.397 . S
C3390 C3395 1.363 . S
C3391 H3362 0.950 . S
C3391 C3390 1.397 . S
C3391 C3392 1.334 . S
C3392 H3363 0.950 . S
C3392 C3391 1.334 . S
C3392 C3393 1.287 . S
C3393 C3392 1.287 . S
C3393 C3394 1.524 . S
C3393 H3396 0.999 . S
C3394 H3364 0.950 . S
C3394 C3393 1.524 . S
C3394 C3395 1.415 . S
C3395 H3365 0.950 . S
C3395 C3390 1.363 . S
C3395 C3394 1.415 . S
H3396 C3393 0.999 . S
H3397 C3378 0.913 . S
H3398 C3416 0.951 . S
H3399 C3418 0.951 . S
H3400 C3420 0.950 . S
H3401 C3421 0.950 . S
H3402 C3423 0.950 . S
H3403 C3426 0.950 . S
H3404 C3427 0.950 . S
H3405 C3429 0.950 . S
H3406 C3430 0.950 . S
H3407 C3431 0.951 . S
H3408 C3433 0.951 . S
H3409 C3435 0.950 . S
H3410 C3436 0.950 . S
H3411 C3438 0.950 . S
H3412 C3441 0.950 . S
H3413 C3442 0.950 . S
H3414 C3444 0.950 . S
H3415 C3445 0.950 . S
C3416 H3398 0.951 . S
C3416 C3417 1.366 . S
C3416 C3418 1.388 . S
C3417 C3416 1.366 . S
C3417 C3421 1.385 . S
C3418 H3399 0.951 . S
C3418 C3416 1.388 . S
C3418 C3419 1.366 . S
C3419 C3418 1.366 . S
C3419 C3420 1.414 . S
C3419 C3422 1.499 . S
C3420 H3400 0.950 . S
C3420 C3419 1.414 . S
C3420 C3421 1.374 . S
C3421 H3401 0.950 . S
C3421 C3417 1.385 . S
C3421 C3420 1.374 . S
C3422 C3419 1.499 . S
C3422 C3423 1.373 . S
C3422 C3424 1.389 . S
C3423 H3402 0.950 . S
C3423 C3422 1.373 . S
C3423 C3439 1.377 . S
C3424 C3422 1.389 . S
C3424 C3425 1.524 . S
C3424 C3438 1.377 . S
C3425 C3424 1.524 . S
C3425 C3426 1.397 . S
C3425 C3430 1.363 . S
C3426 H3403 0.950 . S
C3426 C3425 1.397 . S
C3426 C3427 1.334 . S
C3427 H3404 0.950 . S
C3427 C3426 1.334 . S
C3427 C3428 1.287 . S
C3428 C3427 1.287 . S
C3428 C3429 1.524 . S
C3428 H3447 0.913 . S
C3429 H3405 0.950 . S
C3429 C3428 1.524 . S
C3429 C3430 1.415 . S
C3430 H3406 0.950 . S
C3430 C3425 1.363 . S
C3430 C3429 1.415 . S
C3431 H3407 0.951 . S
C3431 C3432 1.366 . S
C3431 C3433 1.388 . S
C3432 C3431 1.366 . S
C3432 C3436 1.385 . S
C3433 H3408 0.951 . S
C3433 C3431 1.388 . S
C3433 C3434 1.366 . S
C3434 C3433 1.366 . S
C3434 C3435 1.414 . S
C3434 C3437 1.499 . S
C3435 H3409 0.950 . S
C3435 C3434 1.414 . S
C3435 C3436 1.374 . S
C3436 H3410 0.950 . S
C3436 C3432 1.385 . S
C3436 C3435 1.374 . S
C3437 C3434 1.499 . S
C3437 C3438 1.373 . S
C3437 C3439 1.389 . S
C3438 H3411 0.950 . S
C3438 C3424 1.377 . S
C3438 C3437 1.373 . S
C3439 C3423 1.377 . S
C3439 C3437 1.389 . S
C3439 C3440 1.524 . S
C3440 C3439 1.524 . S
C3440 C3441 1.397 . S
C3440 C3445 1.363 . S
C3441 H3412 0.950 . S
C3441 C3440 1.397 . S
C3441 C3442 1.334 . S
C3442 H3413 0.950 . S
C3442 C3441 1.334 . S
C3442 C3443 1.287 . S
C3443 C3442 1.287 . S
C3443 C3444 1.524 . S
C3443 H3446 0.999 . S
C3444 H3414 0.950 . S
C3444 C3443 1.524 . S
C3444 C3445 1.415 . S
C3445 H3415 0.950 . S
C3445 C3440 1.363 . S
C3445 C3444 1.415 . S
H3446 C3443 0.999 . S
H3447 C3428 0.913 . S
H3448 C3466 0.951 . S
H3449 C3468 0.951 . S
H3450 C3470 0.950 . S
H3451 C3471 0.950 . S
H3452 C3473 0.950 . S
H3453 C3476 0.950 . S
H3454 C3477 0.950 . S
H3455 C3479 0.950 . S
H3456 C3480 0.950 . S
H3457 C3481 0.951 . S
H3458 C3483 0.951 . S
H3459 C3485 0.950 . S
H3460 C3486 0.950 . S
H3461 C3488 0.950 . S
H3462 C3491 0.950 . S
H3463 C3492 0.950 . S
H3464 C3494 0.950 . S
H3465 C3495 0.950 . S
C3466 H3448 0.951 . S
C3466 C3467 1.366 . S
C3466 C3468 1.388 . S
C3467 C3466 1.366 . S
C3467 C3471 1.385 . S
C3468 H3449 0.951 . S
C3468 C3466 1.388 . S
C3468 C3469 1.366 . S
C3469 C3468 1.366 . S
C3469 C3470 1.414 . S
C3469 C3472 1.499 . S
C3470 H3450 0.950 . S
C3470 C3469 1.414 . S
C3470 C3471 1.374 . S
C3471 H3451 0.950 . S
C3471 C3467 1.385 . S
C3471 C3470 1.374 . S
C3472 C3469 1.499 . S
C3472 C3473 1.373 . S
C3472 C3474 1.389 . S
C3473 H3452 0.950 . S
C3473 C3472 1.373 . S
C3473 C3489 1.377 1_545 S
C3474 C3472 1.389 . S
C3474 C3475 1.524 . S
C3474 C3488 1.377 1_545 S
C3475 C3474 1.524 . S
C3475 C3476 1.397 . S
C3475 C3480 1.363 . S
C3476 H3453 0.950 . S
C3476 C3475 1.397 . S
C3476 C3477 1.334 . S
C3477 H3454 0.950 . S
C3477 C3476 1.334 . S
C3477 C3478 1.287 . S
C3478 C3477 1.287 . S
C3478 C3479 1.524 . S
C3478 H3497 0.913 . S
C3479 H3455 0.950 . S
C3479 C3478 1.524 . S
C3479 C3480 1.415 . S
C3480 H3456 0.950 . S
C3480 C3475 1.363 . S
C3480 C3479 1.415 . S
C3481 H3457 0.951 . S
C3481 C3482 1.366 . S
C3481 C3483 1.388 . S
C3482 C3481 1.366 . S
C3482 C3486 1.385 . S
C3483 H3458 0.951 . S
C3483 C3481 1.388 . S
C3483 C3484 1.366 . S
C3484 C3483 1.366 . S
C3484 C3485 1.414 . S
C3484 C3487 1.499 . S
C3485 H3459 0.950 . S
C3485 C3484 1.414 . S
C3485 C3486 1.374 . S
C3486 H3460 0.950 . S
C3486 C3482 1.385 . S
C3486 C3485 1.374 . S
C3487 C3484 1.499 . S
C3487 C3488 1.373 . S
C3487 C3489 1.389 . S
C3488 H3461 0.950 . S
C3488 C3474 1.377 1_565 S
C3488 C3487 1.373 . S
C3489 C3473 1.377 1_565 S
C3489 C3487 1.389 . S
C3489 C3490 1.524 . S
C3490 C3489 1.524 . S
C3490 C3491 1.397 . S
C3490 C3495 1.363 . S
C3491 H3462 0.950 . S
C3491 C3490 1.397 . S
C3491 C3492 1.334 . S
C3492 H3463 0.950 . S
C3492 C3491 1.334 . S
C3492 C3493 1.287 . S
C3493 C3492 1.287 . S
C3493 C3494 1.524 . S
C3493 H3496 0.999 . S
C3494 H3464 0.950 . S
C3494 C3493 1.524 . S
C3494 C3495 1.415 . S
C3495 H3465 0.950 . S
C3495 C3490 1.363 . S
C3495 C3494 1.415 . S
H3496 C3493 0.999 . S
H3497 C3478 0.913 . S
H3498 C3516 0.951 1_556 S
H3499 C3518 0.951 . S
H3500 C3520 0.950 . S
H3501 C3521 0.950 . S
H3502 C3523 0.950 . S
H3503 C3526 0.986 . S
H3504 C3527 0.950 . S
H3505 C3529 0.950 . S
H3506 C3530 0.950 . S
H3507 C3531 0.951 1_554 S
H3508 C3533 0.951 . S
H3509 C3535 0.950 . S
H3510 C3536 0.950 . S
H3511 C3538 0.950 . S
H3512 C3541 0.986 . S
H3513 C3542 0.950 . S
H3514 C3544 0.950 . S
H3515 C3545 0.950 . S
C3516 H3498 0.951 1_554 S
C3516 C3517 1.366 . S
C3516 C3518 1.388 1_554 S
C3517 C3516 1.366 . S
C3517 C3521 1.385 . S
C3518 H3499 0.951 . S
C3518 C3516 1.388 1_556 S
C3518 C3519 1.366 1_556 S
C3519 C3518 1.366 1_554 S
C3519 C3520 1.414 . S
C3519 C3522 1.499 . S
C3520 H3500 0.950 . S
C3520 C3519 1.414 . S
C3520 C3521 1.374 . S
C3521 H3501 0.950 . S
C3521 C3517 1.385 . S
C3521 C3520 1.374 . S
C3522 C3519 1.499 . S
C3522 C3523 1.373 . S
C3522 C3524 1.389 1_554 S
C3523 H3502 0.950 . S
C3523 C3522 1.373 . S
C3523 C3539 1.377 . S
C3524 C3522 1.389 1_556 S
C3524 C3525 1.524 . S
C3524 C3538 1.377 . S
C3525 C3524 1.524 . S
C3525 C3526 1.397 . S
C3525 C3530 1.363 . S
C3526 H3503 0.986 . S
C3526 C3525 1.397 . S
C3526 C3527 1.334 . S
C3527 H3504 0.950 . S
C3527 C3526 1.334 . S
C3527 C3528 1.287 . S
C3528 C3527 1.287 . S
C3528 C3529 1.524 . S
C3528 H3547 0.913 . S
C3529 H3505 0.950 . S
C3529 C3528 1.524 . S
C3529 C3530 1.415 . S
C3530 H3506 0.950 . S
C3530 C3525 1.363 . S
C3530 C3529 1.415 . S
C3531 H3507 0.951 1_556 S
C3531 C3532 1.366 . S
C3531 C3533 1.388 1_556 S
C3532 C3531 1.366 . S
C3532 C3536 1.385 . S
C3533 H3508 0.951 . S
C3533 C3531 1.388 1_554 S
C3533 C3534 1.366 1_554 S
C3534 C3533 1.366 1_556 S
C3534 C3535 1.414 . S
C3534 C3537 1.499 . S
C3535 H3509 0.950 . S
C3535 C3534 1.414 . S
C3535 C3536 1.374 . S
C3536 H3510 0.950 . S
C3536 C3532 1.385 . S
C3536 C3535 1.374 . S
C3537 C3534 1.499 . S
C3537 C3538 1.373 . S
C3537 C3539 1.389 1_556 S
C3538 H3511 0.950 . S
C3538 C3524 1.377 . S
C3538 C3537 1.373 . S
C3539 C3523 1.377 . S
C3539 C3537 1.389 1_554 S
C3539 C3540 1.524 . S
C3540 C3539 1.524 . S
C3540 C3541 1.397 . S
C3540 C3545 1.363 . S
C3541 H3512 0.986 . S
C3541 C3540 1.397 . S
C3541 C3542 1.334 . S
C3542 H3513 0.950 . S
C3542 C3541 1.334 . S
C3542 C3543 1.287 . S
C3543 C3542 1.287 . S
C3543 C3544 1.524 . S
C3543 H3546 0.999 . S
C3544 H3514 0.950 . S
C3544 C3543 1.524 . S
C3544 C3545 1.415 . S
C3545 H3515 0.950 . S
C3545 C3540 1.363 . S
C3545 C3544 1.415 . S
H3546 C3543 0.999 . S
H3547 C3528 0.913 . S
H3548 C3566 0.951 . S
H3549 C3568 0.951 . S
H3550 C3570 0.950 . S
H3551 C3571 0.950 . S
H3552 C3573 0.950 . S
H3553 C3576 0.950 . S
H3554 C3577 0.950 . S
H3555 C3579 0.950 . S
H3556 C3580 0.950 . S
H3557 C3581 0.951 . S
H3558 C3583 0.951 . S
H3559 C3585 0.950 . S
H3560 C3586 0.950 . S
H3561 C3588 0.950 . S
H3562 C3591 0.950 . S
H3563 C3592 0.950 . S
H3564 C3594 0.950 . S
H3565 C3595 0.975 . S
C3566 H3548 0.951 . S
C3566 C3567 1.366 . S
C3566 C3568 1.388 . S
C3567 C3566 1.366 . S
C3567 C3571 1.385 . S
C3568 H3549 0.951 . S
C3568 C3566 1.388 . S
C3568 C3569 1.366 . S
C3569 C3568 1.366 . S
C3569 C3570 1.414 . S
C3569 C3572 1.499 . S
C3570 H3550 0.950 . S
C3570 C3569 1.414 . S
C3570 C3571 1.374 . S
C3571 H3551 0.950 . S
C3571 C3567 1.385 . S
C3571 C3570 1.374 . S
C3572 C3569 1.499 . S
C3572 C3573 1.373 . S
C3572 C3574 1.389 . S
C3573 H3552 0.950 . S
C3573 C3572 1.373 . S
C3573 C3589 1.377 1_545 S
C3574 C3572 1.389 . S
C3574 C3575 1.524 . S
C3574 C3588 1.377 1_545 S
C3575 C3574 1.524 . S
C3575 C3576 1.397 . S
C3575 C3580 1.363 . S
C3576 H3553 0.950 . S
C3576 C3575 1.397 . S
C3576 C3577 1.334 . S
C3577 H3554 0.950 . S
C3577 C3576 1.334 . S
C3577 C3578 1.287 . S
C3578 C3577 1.287 . S
C3578 C3579 1.524 . S
C3578 H3597 0.913 . S
C3579 H3555 0.950 . S
C3579 C3578 1.524 . S
C3579 C3580 1.415 . S
C3580 H3556 0.950 . S
C3580 C3575 1.363 . S
C3580 C3579 1.415 . S
C3581 H3557 0.951 . S
C3581 C3582 1.366 . S
C3581 C3583 1.388 . S
C3582 C3581 1.366 . S
C3582 C3586 1.385 . S
C3583 H3558 0.951 . S
C3583 C3581 1.388 . S
C3583 C3584 1.366 . S
C3584 C3583 1.366 . S
C3584 C3585 1.414 . S
C3584 C3587 1.499 . S
C3585 H3559 0.950 . S
C3585 C3584 1.414 . S
C3585 C3586 1.374 . S
C3586 H3560 0.950 . S
C3586 C3582 1.385 . S
C3586 C3585 1.374 . S
C3587 C3584 1.499 . S
C3587 C3588 1.373 . S
C3587 C3589 1.389 . S
C3588 H3561 0.950 . S
C3588 C3574 1.377 1_565 S
C3588 C3587 1.373 . S
C3589 C3573 1.377 1_565 S
C3589 C3587 1.389 . S
C3589 C3590 1.524 . S
C3590 C3589 1.524 . S
C3590 C3591 1.397 . S
C3590 C3595 1.300 1_455 S
C3591 H3562 0.950 . S
C3591 C3590 1.397 . S
C3591 C3592 1.334 . S
C3592 H3563 0.950 . S
C3592 C3591 1.334 . S
C3592 C3593 1.287 1_455 S
C3593 C3592 1.287 1_655 S
C3593 C3594 1.524 . S
C3593 H3596 0.999 . S
C3594 H3564 0.950 . S
C3594 C3593 1.524 . S
C3594 C3595 1.456 . S
C3595 H3565 0.975 . S
C3595 C3590 1.300 1_655 S
C3595 C3594 1.456 . S
H3596 C3593 0.999 . S
H3597 C3578 0.913 . S
H3598 C3616 0.951 . S
H3599 C3618 0.951 . S
H3600 C3620 0.950 . S
H3601 C3621 0.950 . S
H3602 C3623 0.950 . S
H3603 C3626 0.950 . S
H3604 C3627 0.950 . S
H3605 C3629 0.950 . S
H3606 C3630 0.950 . S
H3607 C3631 0.951 . S
H3608 C3633 0.951 . S
H3609 C3635 0.950 . S
H3610 C3636 0.950 . S
H3611 C3638 0.950 . S
H3612 C3641 0.950 . S
H3613 C3642 0.950 . S
H3614 C3644 0.950 . S
H3615 C3645 0.950 . S
C3616 H3598 0.951 . S
C3616 C3617 1.366 . S
C3616 C3618 1.388 . S
C3617 C3616 1.366 . S
C3617 C3621 1.385 . S
C3618 H3599 0.951 . S
C3618 C3616 1.388 . S
C3618 C3619 1.366 . S
C3619 C3618 1.366 . S
C3619 C3620 1.414 . S
C3619 C3622 1.499 . S
C3620 H3600 0.950 . S
C3620 C3619 1.414 . S
C3620 C3621 1.374 . S
C3621 H3601 0.950 . S
C3621 C3617 1.385 . S
C3621 C3620 1.374 . S
C3622 C3619 1.499 . S
C3622 C3623 1.373 . S
C3622 C3624 1.389 . S
C3623 H3602 0.950 . S
C3623 C3622 1.373 . S
C3623 C3639 1.377 . S
C3624 C3622 1.389 . S
C3624 C3625 1.524 . S
C3624 C3638 1.377 . S
C3625 C3624 1.524 . S
C3625 C3626 1.397 . S
C3625 C3630 1.363 . S
C3626 H3603 0.950 . S
C3626 C3625 1.397 . S
C3626 C3627 1.334 . S
C3627 H3604 0.950 . S
C3627 C3626 1.334 . S
C3627 C3628 1.287 . S
C3628 C3627 1.287 . S
C3628 C3629 1.524 . S
C3628 H3647 0.913 . S
C3629 H3605 0.950 . S
C3629 C3628 1.524 . S
C3629 C3630 1.415 . S
C3630 H3606 0.950 . S
C3630 C3625 1.363 . S
C3630 C3629 1.415 . S
C3631 H3607 0.951 . S
C3631 C3632 1.366 . S
C3631 C3633 1.388 . S
C3632 C3631 1.366 . S
C3632 C3636 1.385 . S
C3633 H3608 0.951 . S
C3633 C3631 1.388 . S
C3633 C3634 1.366 . S
C3634 C3633 1.366 . S
C3634 C3635 1.414 . S
C3634 C3637 1.499 . S
C3635 H3609 0.950 . S
C3635 C3634 1.414 . S
C3635 C3636 1.374 . S
C3636 H3610 0.950 . S
C3636 C3632 1.385 . S
C3636 C3635 1.374 . S
C3637 C3634 1.499 . S
C3637 C3638 1.373 . S
C3637 C3639 1.389 . S
C3638 H3611 0.950 . S
C3638 C3624 1.377 . S
C3638 C3637 1.373 . S
C3639 C3623 1.377 . S
C3639 C3637 1.389 . S
C3639 C3640 1.524 . S
C3640 C3639 1.524 . S
C3640 C3641 1.397 . S
C3640 C3645 1.363 . S
C3641 H3612 0.950 . S
C3641 C3640 1.397 . S
C3641 C3642 1.334 . S
C3642 H3613 0.950 . S
C3642 C3641 1.334 . S
C3642 C3643 1.287 . S
C3643 C3642 1.287 . S
C3643 C3644 1.524 . S
C3643 H3646 0.999 . S
C3644 H3614 0.950 . S
C3644 C3643 1.524 . S
C3644 C3645 1.415 . S
C3645 H3615 0.950 . S
C3645 C3640 1.363 . S
C3645 C3644 1.415 . S
H3646 C3643 0.999 . S
H3647 C3628 0.913 . S
C467 C7 1.016 . S
C482 C301 1.018 . S
C517 C315 1.017 . S
C532 C21 1.018 . S
C567 C35 1.017 . S
C582 C329 1.017 . S
C617 C287 1.016 . S
C632 C49 1.018 . S
C667 C63 1.018 . S
C682 C273 1.017 . S
C717 C77 1.017 . S
C732 C231 1.017 . S
C767 C245 1.018 . S
C782 C91 1.016 . S
C817 C105 1.018 . S
C832 C259 1.016 . S
C867 C119 1.016 . S
C882 C413 1.018 . S
C917 C133 1.016 . S
C932 C427 1.018 . S
C967 C441 1.017 . S
C982 C147 1.017 . S
C1017 C399 1.018 . S
C1032 C161 1.017 . S
C1067 C175 1.017 . S
C1082 C385 1.017 . S
C1117 C343 1.017 . S
C1132 C189 1.017 . S
C1167 C203 1.017 . S
C1182 C357 1.017 . S
C1217 C371 1.018 . S
C1232 C217 1.017 . S
C1267 C9 1.494 . S
C1282 C134 1.514 . S
C1317 C23 1.494 . S
C1332 C372 1.514 . S
C1367 C162 1.513 . S
C1382 C37 1.495 . S
C1417 C51 1.494 . S
C1432 C344 1.514 . S
C1467 C65 1.494 . S
C1482 C218 1.514 . S
C1517 C400 1.514 . S
C1532 C79 1.494 . S
C1567 C190 1.513 . S
C1582 C93 1.495 . S
C1617 C428 1.514 . S
C1632 C107 1.494 . S
C1667 C121 1.495 . S
C1682 C22 1.513 . S
C1717 C260 1.513 . S
C1732 C135 1.495 . S
C1767 C50 1.514 . S
C1782 C149 1.494 . S
C1817 C163 1.494 . S
C1832 C232 1.514 . S
C1867 C106 1.514 . S
C1882 C177 1.494 . S
C1917 C288 1.514 . S
C1932 C191 1.494 . S
C1967 C78 1.514 . S
C1982 C205 1.494 . S
C2017 C219 1.494 . S
C2032 C316 1.514 . S
C2067 C358 1.513 . S
C2082 C233 1.495 . S
C2117 C148 1.514 . S
C2132 C247 1.494 . S
C2167 C386 1.513 . S
C2182 C261 1.494 . S
C2217 C275 1.494 . S
C2232 C120 1.513 . S
C2267 C442 1.513 . S
C2282 C289 1.495 . S
C2317 C176 1.513 . S
C2332 C303 1.494 . S
C2367 C414 1.514 . S
C2382 C317 1.494 . S
C2417 C331 1.494 . S
C2432 C204 1.514 . S
C2467 C345 1.494 . S
C2482 C246 1.514 . S
C2517 C36 1.513 . S
C2532 C359 1.495 . S
C2567 C373 1.494 . S
C2582 C274 1.514 . S
C2617 C387 1.495 . S
C2632 C8 1.513 . S
C2667 C401 1.495 . S
C2682 C330 1.513 . S
C2717 C64 1.514 . S
C2732 C415 1.494 . S
C2767 C302 1.514 . S
C2782 C429 1.494 . S
C2817 C443 1.494 . S
C2832 C92 1.514 . S
C2867 C6 1.345 . S
C2882 C62 1.345 . S
C2917 C20 1.345 . S
C2932 C76 1.345 . S
C2967 C90 1.345 . S
C2982 C34 1.345 . S
C3017 C104 1.345 . S
C3032 C48 1.345 . S
C3067 C174 1.345 . S
C3082 C118 1.345 . S
C3117 C188 1.345 . S
C3132 C132 1.345 . S
C3167 C202 1.345 . S
C3182 C146 1.345 . S
C3217 C216 1.345 . S
C3232 C160 1.345 . S
C3267 C230 1.345 . S
C3282 C286 1.345 . S
C3317 C244 1.345 . S
C3332 C300 1.345 . S
C3367 C258 1.345 . S
C3382 C314 1.345 . S
C3417 C328 1.345 . S
C3432 C272 1.345 . S
C3467 C342 1.345 . S
C3482 C398 1.345 . S
C3517 C412 1.345 . S
C3532 C356 1.345 . S
C3567 C426 1.345 . S
C3582 C370 1.345 . S
C3617 C440 1.345 . S
C3632 C384 1.345 . S
