# Generated by pormake.
# Topology pcl, (4)-cn, num edge types: 1
# Building blocks:
#     Node 0, Type 0, BuildingBlock: UXUYUI_clean_sbu_0, # of connection points: 4
#     Node 1, Type 0, BuildingBlock: UXUYUI_clean_sbu_0, # of connection points: 4
#     Node 2, Type 0, BuildingBlock: UXUYUI_clean_sbu_0, # of connection points: 4
#     Node 3, Type 0, BuildingBlock: UXUYUI_clean_sbu_0, # of connection points: 4
#     Node 4, Type 0, BuildingBlock: UXUYUI_clean_sbu_0, # of connection points: 4
#     Node 5, Type 0, BuildingBlock: UXUYUI_clean_sbu_0, # of connection points: 4
#     Node 6, Type 0, BuildingBlock: UXUYUI_clean_sbu_0, # of connection points: 4
#     Node 7, Type 0, BuildingBlock: UXUYUI_clean_sbu_0, # of connection points: 4
#     Node 8, Type 0, BuildingBlock: UXUYUI_clean_sbu_0, # of connection points: 4
#     Node 9, Type 0, BuildingBlock: UXUYUI_clean_sbu_0, # of connection points: 4
#     Node 10, Type 0, BuildingBlock: UXUYUI_clean_sbu_0, # of connection points: 4
#     Node 11, Type 0, BuildingBlock: UXUYUI_clean_sbu_0, # of connection points: 4
#     Node 12, Type 0, BuildingBlock: UXUYUI_clean_sbu_0, # of connection points: 4
#     Node 13, Type 0, BuildingBlock: UXUYUI_clean_sbu_0, # of connection points: 4
#     Node 14, Type 0, BuildingBlock: UXUYUI_clean_sbu_0, # of connection points: 4
#     Node 15, Type 0, BuildingBlock: UXUYUI_clean_sbu_0, # of connection points: 4
#     Edge 16, Type (0, 0), BuildingBlock: EZIPEK_clean_linker_0, # of connection points: 2
#     Edge 17, Type (0, 0), BuildingBlock: EZIPEK_clean_linker_0, # of connection points: 2
#     Edge 18, Type (0, 0), BuildingBlock: EZIPEK_clean_linker_0, # of connection points: 2
#     Edge 19, Type (0, 0), BuildingBlock: EZIPEK_clean_linker_0, # of connection points: 2
#     Edge 20, Type (0, 0), BuildingBlock: EZIPEK_clean_linker_0, # of connection points: 2
#     Edge 21, Type (0, 0), BuildingBlock: EZIPEK_clean_linker_0, # of connection points: 2
#     Edge 22, Type (0, 0), BuildingBlock: EZIPEK_clean_linker_0, # of connection points: 2
#     Edge 23, Type (0, 0), BuildingBlock: EZIPEK_clean_linker_0, # of connection points: 2
#     Edge 24, Type (0, 0), BuildingBlock: EZIPEK_clean_linker_0, # of connection points: 2
#     Edge 25, Type (0, 0), BuildingBlock: EZIPEK_clean_linker_0, # of connection points: 2
#     Edge 26, Type (0, 0), BuildingBlock: EZIPEK_clean_linker_0, # of connection points: 2
#     Edge 27, Type (0, 0), BuildingBlock: EZIPEK_clean_linker_0, # of connection points: 2
#     Edge 28, Type (0, 0), BuildingBlock: EZIPEK_clean_linker_0, # of connection points: 2
#     Edge 29, Type (0, 0), BuildingBlock: EZIPEK_clean_linker_0, # of connection points: 2
#     Edge 30, Type (0, 0), BuildingBlock: EZIPEK_clean_linker_0, # of connection points: 2
#     Edge 31, Type (0, 0), BuildingBlock: EZIPEK_clean_linker_0, # of connection points: 2
#     Edge 32, Type (0, 0), BuildingBlock: EZIPEK_clean_linker_0, # of connection points: 2
#     Edge 33, Type (0, 0), BuildingBlock: EZIPEK_clean_linker_0, # of connection points: 2
#     Edge 34, Type (0, 0), BuildingBlock: EZIPEK_clean_linker_0, # of connection points: 2
#     Edge 35, Type (0, 0), BuildingBlock: EZIPEK_clean_linker_0, # of connection points: 2
#     Edge 36, Type (0, 0), BuildingBlock: EZIPEK_clean_linker_0, # of connection points: 2
#     Edge 37, Type (0, 0), BuildingBlock: EZIPEK_clean_linker_0, # of connection points: 2
#     Edge 38, Type (0, 0), BuildingBlock: EZIPEK_clean_linker_0, # of connection points: 2
#     Edge 39, Type (0, 0), BuildingBlock: EZIPEK_clean_linker_0, # of connection points: 2
#     Edge 40, Type (0, 0), BuildingBlock: EZIPEK_clean_linker_0, # of connection points: 2
#     Edge 41, Type (0, 0), BuildingBlock: EZIPEK_clean_linker_0, # of connection points: 2
#     Edge 42, Type (0, 0), BuildingBlock: EZIPEK_clean_linker_0, # of connection points: 2
#     Edge 43, Type (0, 0), BuildingBlock: EZIPEK_clean_linker_0, # of connection points: 2
#     Edge 44, Type (0, 0), BuildingBlock: EZIPEK_clean_linker_0, # of connection points: 2
#     Edge 45, Type (0, 0), BuildingBlock: EZIPEK_clean_linker_0, # of connection points: 2
#     Edge 46, Type (0, 0), BuildingBlock: EZIPEK_clean_linker_0, # of connection points: 2
#     Edge 47, Type (0, 0), BuildingBlock: EZIPEK_clean_linker_0, # of connection points: 2
# Relax obj value: 0.133
# Max RMSD: 0.100
# Mean RMSD: 0.099
data_MOF--net-pcl--node1-UXUYUI_clean_sbu_0--edge1-EZIPEK_clean_linker_0
_symmetry_space_group_name_H-M    P1
_symmetry_Int_Tables_number       1
_symmetry_cell_setting            triclinic
loop_
_symmetry_equiv_pos_as_xyz
'x, y, z'
_cell_length_a     51.870114
_cell_length_b     59.783397
_cell_length_c     52.796949
_cell_angle_alpha  90.020585
_cell_angle_beta   89.995439
_cell_angle_gamma 90.020593
loop_
_atom_site_label
_atom_site_type_symbol
_atom_site_fract_x
_atom_site_fract_y
_atom_site_fract_z
_atom_type_partial_charge
Li0 Li 0.18501 0.37392 0.11129 0.0
Li1 Li 0.19057 0.35505 0.07209 0.0
Li2 Li 0.18452 0.39713 0.07296 0.0
Li3 Li 0.14894 0.36976 0.08259 0.0
C4 C 0.23391 0.38462 0.10167 0.0
N5 N 0.27465 0.39646 0.13262 0.0
C6 C 0.24591 0.36852 0.11682 0.0
C7 C 0.24273 0.40672 0.10215 0.0
C8 C 0.26643 0.37485 0.13239 0.0
C9 C 0.26335 0.41237 0.11794 0.0
C10 C 0.17309 0.3237 0.10061 0.0
C11 C 0.16617 0.28659 0.08399 0.0
N12 N 0.18501 0.27865 0.09948 0.0
C13 C 0.19239 0.31517 0.11637 0.0
C14 C 0.15985 0.3093 0.0843 0.0
C15 C 0.19811 0.29235 0.11553 0.0
C16 C 0.18001 0.35904 0.1615 0.0
N17 N 0.19179 0.37498 0.14721 0.0
C18 C 0.20785 0.39294 0.18458 0.0
C19 C 0.20533 0.39192 0.15824 0.0
C20 C 0.19598 0.37657 0.19958 0.0
C21 C 0.18201 0.35943 0.18785 0.0
H22 H 0.16843 0.3463 0.15247 0.0
H23 H 0.21353 0.40501 0.14671 0.0
C24 C 0.19826 0.32487 0.0313 0.0
N25 N 0.20781 0.33136 0.05416 0.0
C26 C 0.20923 0.30688 0.0183 0.0
C27 C 0.24006 0.30277 0.05231 0.0
C28 C 0.22856 0.32092 0.0646 0.0
C29 C 0.23021 0.29556 0.02897 0.0
H30 H 0.18196 0.33353 0.02324 0.0
H31 H 0.2359 0.3264 0.0827 0.0
C32 C 0.15185 0.40684 0.12267 0.0
N33 N 0.13667 0.42618 0.16776 0.0
C34 C 0.13268 0.39678 0.13737 0.0
C35 C 0.16334 0.4267 0.13089 0.0
C36 C 0.12528 0.40682 0.16013 0.0
C37 C 0.1554 0.43622 0.15376 0.0
C38 C 0.14837 0.37536 0.03325 0.0
C39 C 0.14227 0.39571 0.02168 0.0
C40 C 0.13357 0.35638 0.02786 0.0
C41 C 0.12125 0.39681 1.00518 0.0
C42 C 0.11266 0.35818 0.01132 0.0
N43 N 0.10697 0.37819 1.00043 0.0
C44 C 0.21072 0.42776 0.04062 0.0
C45 C 0.17422 0.44209 0.06233 0.0
C46 C 0.21374 0.44796 0.02758 0.0
N47 N 0.19111 0.42523 0.05749 0.0
C48 C 0.17653 0.46251 0.04977 0.0
C49 C 0.19631 0.46547 0.03201 0.0
H50 H 0.22363 0.41393 0.03691 0.0
H51 H 0.15847 0.43942 0.07539 0.0
C52 C 0.10034 0.34824 0.08904 0.0
N53 N 0.11242 0.36717 0.08107 0.0
C54 C 0.07345 0.34695 0.08872 0.0
C55 C 0.07202 0.38467 0.07218 0.0
C56 C 0.09889 0.38529 0.07296 0.0
C57 C 0.05914 0.36535 0.08021 0.0
H58 H 0.11154 0.33432 0.09602 0.0
H59 H 0.10904 0.40028 0.06727 0.0
O60 O 0.21383 0.37878 0.08623 0.0
O61 O 0.16751 0.34608 0.10083 0.0
O62 O 0.15949 0.39718 0.10044 0.0
O63 O 0.16854 0.37407 0.04992 0.0
H64 H 0.23923 0.35141 0.11686 0.0
H65 H 0.23367 0.41941 0.0906 0.0
H66 H 0.27577 0.3626 0.14435 0.0
H67 H 0.27031 0.42942 0.11858 0.0
H68 H 0.15618 0.27529 0.07135 0.0
H69 H 0.2031 0.32606 0.12888 0.0
H70 H 0.14504 0.3156 0.0718 0.0
H71 H 0.21308 0.28555 0.12753 0.0
H72 H 0.21844 0.40658 0.1932 0.0
H73 H 0.17232 0.34675 0.19901 0.0
H74 H 0.2013 0.3017 1.00025 0.0
H75 H 0.2563 0.29434 0.06096 0.0
H76 H 0.12375 0.3813 0.13135 0.0
H77 H 0.17842 0.43456 0.11984 0.0
H78 H 0.11052 0.3992 0.17175 0.0
H79 H 0.16418 0.45155 0.16042 0.0
H80 H 0.15355 0.41055 0.02543 0.0
H81 H 0.13789 0.34053 0.03672 0.0
H82 H 0.11626 0.41248 0.99619 0.0
H83 H 0.10089 0.34368 0.00723 0.0
H84 H 0.22908 0.44977 0.01381 0.0
H85 H 0.16268 0.47569 0.05337 0.0
H86 H 0.06389 0.3319 0.09524 0.0
H87 H 0.06137 0.39917 0.06572 0.0
Li88 Li 0.82011 0.63672 0.6131 0.0
Li89 Li 0.81365 0.65797 0.5738 0.0
Li90 Li 0.82006 0.61728 0.57301 0.0
Li91 Li 0.85558 0.64276 0.58315 0.0
C92 C 0.7704 0.63415 0.60395 0.0
N93 N 0.72949 0.63485 0.63743 0.0
C94 C 0.75533 0.6534 0.60642 0.0
C95 C 0.76458 0.61521 0.61837 0.0
C96 C 0.73472 0.65342 0.62347 0.0
C97 C 0.74386 0.61592 0.63526 0.0
C98 C 0.85582 0.67807 0.61193 0.0
C99 C 0.89048 0.70432 0.6052 0.0
N100 N 0.89785 0.70172 0.62975 0.0
C101 C 0.86367 0.67573 0.63711 0.0
C102 C 0.86922 0.69258 0.59586 0.0
C103 C 0.88498 0.68783 0.64576 0.0
C104 C 0.82523 0.6193 0.66243 0.0
N105 N 0.81285 0.63517 0.64854 0.0
C106 C 0.79472 0.65114 0.68608 0.0
C107 C 0.79782 0.65097 0.65978 0.0
C108 C 0.80767 0.63518 0.70078 0.0
C109 C 0.82288 0.61899 0.68876 0.0
H110 H 0.83764 0.60734 0.65315 0.0
H111 H 0.78887 0.66382 0.64839 0.0
C112 C 0.77692 0.67822 0.54108 0.0
N113 N 0.79592 0.68244 0.5582 0.0
C114 C 0.76504 0.69582 0.52814 0.0
C115 C 0.79168 0.72183 0.55152 0.0
C116 C 0.80319 0.70373 0.56383 0.0
C117 C 0.77258 0.7179 0.53326 0.0
H118 H 0.77132 0.66114 0.53717 0.0
H119 H 0.81811 0.70665 0.57771 0.0
C120 C 0.85256 0.59315 0.59946 0.0
N121 N 0.8656 0.54857 0.59449 0.0
C122 C 0.87499 0.58705 0.58652 0.0
C123 C 0.83681 0.57659 0.60996 0.0
C124 C 0.88124 0.56441 0.5842 0.0
C125 C 0.84372 0.55414 0.60721 0.0
C126 C 0.83106 0.64902 0.5281 0.0
C127 C 0.8139 0.63807 0.51188 0.0
C128 C 0.84166 0.66956 0.5209 0.0
C129 C 0.80754 0.64792 0.48872 0.0
C130 C 0.83478 0.67888 0.49761 0.0
N131 N 0.818 0.66797 0.48214 0.0
C132 C 0.79127 0.57771 0.56024 0.0
C133 C 0.83132 0.58275 0.53927 0.0
C134 C 0.78766 0.55715 0.54805 0.0
N135 N 0.81295 0.58991 0.55576 0.0
C136 C 0.82856 0.56232 0.52683 0.0
C137 C 0.80659 0.5493 0.5313 0.0
H138 H 0.77698 0.58381 0.57343 0.0
H139 H 0.84833 0.59284 0.53609 0.0
C140 C 0.90596 0.64227 0.60234 0.0
N141 N 0.89198 0.6462 0.58101 0.0
C142 C 0.93281 0.64352 0.60172 0.0
C143 C 0.93041 0.65265 0.55714 0.0
C144 C 0.90356 0.6513 0.55863 0.0
C145 C 0.9452 0.64861 0.57887 0.0
H146 H 0.89621 0.63786 0.61974 0.0
H147 H 0.89199 0.65394 0.54188 0.0
O148 O 0.79084 0.63389 0.58761 0.0
O149 O 0.83544 0.66591 0.6029 0.0
O150 O 0.84577 0.61519 0.60143 0.0
O151 O 0.83713 0.63987 0.55107 0.0
H152 H 0.7596 0.66822 0.59543 0.0
H153 H 0.77615 0.60022 0.61678 0.0
H154 H 0.72295 0.66823 0.62565 0.0
H155 H 0.73925 0.60144 0.64668 0.0
H156 H 0.90118 0.71543 0.59291 0.0
H157 H 0.85362 0.66454 0.64981 0.0
H158 H 0.86355 0.69444 0.57626 0.0
H159 H 0.89134 0.68609 0.66517 0.0
H160 H 0.78307 0.66398 0.69495 0.0
H161 H 0.83327 0.60661 0.69971 0.0
H162 H 0.75029 0.69229 0.51419 0.0
H163 H 0.79779 0.73871 0.55595 0.0
H164 H 0.88729 0.59962 0.57808 0.0
H165 H 0.81928 0.58103 0.61986 0.0
H166 H 0.89847 0.55943 0.57412 0.0
H167 H 0.83164 0.54114 0.61509 0.0
H168 H 0.80533 0.62226 0.51722 0.0
H169 H 0.85477 0.67837 0.53333 0.0
H170 H 0.79419 0.63969 0.47603 0.0
H171 H 0.8427 0.69483 0.49187 0.0
H172 H 0.77051 0.54737 0.55183 0.0
H173 H 0.84347 0.55663 0.51397 0.0
H174 H 0.94383 0.64017 0.61873 0.0
H175 H 0.93957 0.65645 0.53921 0.0
Li176 Li 0.18124 0.61822 0.93718 0.0
Li177 Li 0.1468 0.64212 0.92856 0.0
Li178 Li 0.18093 0.63751 0.8966 0.0
Li179 Li 0.18815 0.65893 0.93908 0.0
C180 C 0.15304 0.593 0.90586 0.0
N181 N 0.14668 0.54746 0.8995 0.0
C182 C 0.13654 0.58106 0.92185 0.0
C183 C 0.16616 0.58181 0.88651 0.0
C184 C 0.13361 0.55804 0.91833 0.0
C185 C 0.16274 0.55876 0.88365 0.0
C186 C 0.14788 0.64408 0.97867 0.0
C187 C 0.12756 0.66834 0.00923 0.0
N188 N 0.11003 0.65204 0.01438 0.0
C189 C 0.12979 0.62749 0.98442 0.0
C190 C 0.14687 0.66464 0.99125 0.0
C191 C 0.11074 0.63188 1.00245 0.0
C192 C 0.18468 0.58887 0.97885 0.0
N193 N 0.19027 0.59049 0.95374 0.0
C194 C 0.20361 0.55216 0.95277 0.0
C195 C 0.20023 0.57279 0.94078 0.0
C196 C 0.1968 0.54989 0.97833 0.0
C197 C 0.18773 0.56858 0.99158 0.0
H198 H 0.17727 0.6032 0.98893 0.0
H199 H 0.2049 0.57443 0.92095 0.0
C200 C 0.09561 0.63119 0.91667 0.0
N201 N 0.10994 0.64579 0.93056 0.0
C202 C 0.06876 0.63215 0.91726 0.0
C203 C 0.07167 0.66363 0.94585 0.0
C204 C 0.09852 0.66209 0.94468 0.0
C205 C 0.05661 0.64841 0.93214 0.0
H206 H 0.10501 0.61875 0.90508 0.0
H207 H 0.11016 0.67388 0.95508 0.0
C208 C 0.23047 0.62198 0.92582 0.0
N209 N 0.27067 0.593 0.93573 0.0
C210 C 0.24149 0.62125 0.94996 0.0
C211 C 0.24001 0.60814 0.90665 0.0
C212 C 0.26175 0.60641 0.95461 0.0
C213 C 0.26034 0.59358 0.91205 0.0
C214 C 0.14577 0.68061 0.90467 0.0
C215 C 0.12972 0.67686 0.88384 0.0
C216 C 0.14099 0.69874 0.92072 0.0
C217 C 0.10895 0.69124 0.87953 0.0
C218 C 0.12008 0.71278 0.91571 0.0
N219 N 0.1046 0.70875 0.89542 0.0
C220 C 0.16732 0.63074 0.84621 0.0
C221 C 0.21044 0.64328 0.85113 0.0
C222 C 0.1699 0.63071 0.81992 0.0
N223 N 0.18739 0.63702 0.86118 0.0
C224 C 0.2139 0.64344 0.82483 0.0
C225 C 0.19336 0.63719 0.80904 0.0
H226 H 0.14921 0.6259 0.85476 0.0
H227 H 0.22601 0.64831 0.86352 0.0
C228 C 0.21483 0.68045 0.97889 0.0
N229 N 0.20588 0.68312 0.95486 0.0
C230 C 0.22658 0.6983 0.99152 0.0
C231 C 0.22013 0.72116 0.95426 0.0
C232 C 0.20859 0.70285 0.94231 0.0
C233 C 0.22905 0.71895 0.9792 0.0
H234 H 0.21234 0.66458 0.98842 0.0
H235 H 0.2014 0.70445 0.92317 0.0
O236 O 0.15604 0.61557 0.90891 0.0
O237 O 0.16663 0.64012 0.96102 0.0
O238 O 0.2103 0.63604 0.92103 0.0
O239 O 0.16575 0.66636 0.9096 0.0
H240 H 0.12613 0.58948 0.93681 0.0
H241 H 0.17916 0.59072 0.87408 0.0
H242 H 0.12094 0.54859 0.93059 0.0
H243 H 0.17292 0.54985 0.86888 0.0
H244 H 0.12645 0.68422 0.01901 0.0
H245 H 0.13035 0.61148 0.97492 0.0
H246 H 0.16059 0.67771 0.98696 0.0
H247 H 0.0965 0.61926 0.00693 0.0
H248 H 0.21076 0.53799 0.9421 0.0
H249 H 0.18245 0.56732 0.01138 0.0
H250 H 0.05756 0.62027 0.90634 0.0
H251 H 0.06274 0.67645 0.95739 0.0
H252 H 0.23424 0.63182 0.96499 0.0
H253 H 0.23158 0.60845 0.8879 0.0
H254 H 0.27034 0.60553 0.97325 0.0
H255 H 0.26782 0.58267 0.89746 0.0
H256 H 0.13305 0.66284 0.87133 0.0
H257 H 0.153 0.7017 0.93713 0.0
H258 H 0.09624 0.68844 0.8636 0.0
H259 H 0.11605 0.72679 0.92807 0.0
H260 H 0.15372 0.62586 0.80816 0.0
H261 H 0.2322 0.6486 0.81687 0.0
H262 H 0.2333 0.69616 0.01079 0.0
H263 H 0.22184 0.73693 0.94431 0.0
Li264 Li 0.81717 0.39716 0.43599 0.0
Li265 Li 0.85358 0.36988 0.42763 0.0
Li266 Li 0.81812 0.37397 0.39801 0.0
Li267 Li 0.81099 0.35465 0.43688 0.0
C268 C 0.85065 0.40701 0.38704 0.0
N269 N 0.86487 0.42623 0.34159 0.0
C270 C 0.87027 0.39744 0.3725 0.0
C271 C 0.83825 0.42633 0.3785 0.0
C272 C 0.87717 0.40741 0.34955 0.0
C273 C 0.84571 0.43579 0.35545 0.0
C274 C 0.84942 0.37458 0.47904 0.0
C275 C 0.87789 0.35577 0.5082 0.0
N276 N 0.88382 0.37578 0.51899 0.0
C277 C 0.85562 0.39494 0.49058 0.0
C278 C 0.86046 0.35481 0.48806 0.0
C279 C 0.87311 0.3952 0.51069 0.0
C280 C 0.79062 0.42731 0.46867 0.0
N281 N 0.81002 0.42515 0.45149 0.0
C282 C 0.82399 0.46262 0.45923 0.0
C283 C 0.8265 0.44228 0.44651 0.0
C284 C 0.80451 0.46516 0.47736 0.0
C285 C 0.78749 0.44738 0.48196 0.0
H286 H 0.77807 0.41325 0.47251 0.0
H287 H 0.84213 0.4399 0.43325 0.0
C288 C 0.9023 0.35049 0.41731 0.0
N289 N 0.89004 0.36688 0.43052 0.0
C290 C 0.92918 0.34912 0.41756 0.0
C291 C 0.93033 0.3815 0.44503 0.0
C292 C 0.90346 0.38241 0.44398 0.0
C293 C 0.94337 0.3648 0.43153 0.0
H294 H 0.89126 0.33885 0.406 0.0
H295 H 0.89336 0.39584 0.45338 0.0
C296 C 0.76813 0.38149 0.40613 0.0
N297 N 0.72705 0.38762 0.3736 0.0
C298 C 0.75905 0.36365 0.39152 0.0
C299 C 0.75621 0.40239 0.4044 0.0
C300 C 0.73831 0.36711 0.37511 0.0
C301 C 0.73547 0.40516 0.3878 0.0
C302 C 0.83526 0.32337 0.41 0.0
C303 C 0.82033 0.31098 0.39298 0.0
C304 C 0.85017 0.31224 0.42808 0.0
C305 C 0.82033 0.28765 0.39456 0.0
C306 C 0.84962 0.2889 0.42908 0.0
N307 N 0.83482 0.27719 0.41245 0.0
C308 C 0.82384 0.35882 0.34792 0.0
C309 C 0.79767 0.39121 0.35088 0.0
C310 C 0.82169 0.35888 0.32158 0.0
N311 N 0.81174 0.3747 0.36204 0.0
C312 C 0.79503 0.39192 0.32454 0.0
C313 C 0.80722 0.37562 0.3097 0.0
H314 H 0.83576 0.34642 0.35708 0.0
H315 H 0.78906 0.40418 0.36231 0.0
C316 C 0.7958 0.32951 0.47989 0.0
N317 N 0.79331 0.33094 0.45428 0.0
C318 C 0.78449 0.31183 0.49317 0.0
C319 C 0.76781 0.29756 0.45359 0.0
C320 C 0.77908 0.31572 0.44114 0.0
C321 C 0.77066 0.29546 0.47987 0.0
H322 H 0.8067 0.34204 0.49002 0.0
H323 H 0.77672 0.31747 0.42094 0.0
O324 O 0.84345 0.39736 0.40942 0.0
O325 O 0.83239 0.37401 0.45924 0.0
O326 O 0.78847 0.37851 0.42223 0.0
O327 O 0.83527 0.34625 0.40898 0.0
H328 H 0.87993 0.38239 0.37878 0.0
H329 H 0.82281 0.43379 0.38941 0.0
H330 H 0.89225 0.40015 0.33803 0.0
H331 H 0.83621 0.45069 0.34853 0.0
H332 H 0.88664 0.34059 0.51529 0.0
H333 H 0.84719 0.41041 0.48401 0.0
H334 H 0.85553 0.33887 0.47972 0.0
H335 H 0.87819 0.41085 0.51969 0.0
H336 H 0.83752 0.47603 0.45549 0.0
H337 H 0.77238 0.4489 0.49601 0.0
H338 H 0.93884 0.33624 0.4067 0.0
H339 H 0.94087 0.39402 0.45565 0.0
H340 H 0.76822 0.34744 0.39251 0.0
H341 H 0.76301 0.41635 0.41564 0.0
H342 H 0.73122 0.35352 0.36351 0.0
H343 H 0.7261 0.42126 0.38616 0.0
H344 H 0.80847 0.31929 0.379 0.0
H345 H 0.86208 0.32152 0.44116 0.0
H346 H 0.8087 0.27788 0.38164 0.0
H347 H 0.86099 0.28009 0.44306 0.0
H348 H 0.83163 0.34628 0.31053 0.0
H349 H 0.78404 0.40525 0.3158 0.0
H350 H 0.78683 0.3107 0.51351 0.0
H351 H 0.75702 0.28527 0.44286 0.0
Li352 Li 0.81383 0.65703 0.93933 0.0
Li353 Li 0.81926 0.61739 0.93952 0.0
Li354 Li 0.85537 0.64159 0.92984 0.0
Li355 Li 0.81995 0.63591 0.89802 0.0
C356 C 0.83046 0.64905 0.98452 0.0
N357 N 0.81734 0.66972 0.02955 0.0
C358 C 0.81188 0.63953 1.00039 0.0
C359 C 0.84232 0.66912 0.99154 0.0
C360 C 0.80553 0.65022 0.02308 0.0
C361 C 0.83544 0.67929 0.01439 0.0
C362 C 0.76989 0.62061 0.92378 0.0
C363 C 0.73944 0.59606 0.90327 0.0
N364 N 0.72751 0.59265 0.92589 0.0
C365 C 0.75726 0.61695 0.9468 0.0
C366 C 0.76089 0.61015 0.9018 0.0
C367 C 0.7359 0.60272 0.94748 0.0
C368 C 0.80537 0.70319 0.94912 0.0
N369 N 0.79652 0.68226 0.9543 0.0
C370 C 0.765 0.69714 0.98282 0.0
C371 C 0.77645 0.67899 0.9705 0.0
C372 C 0.7742 0.7188 0.9782 0.0
C373 C 0.79445 0.72182 0.96097 0.0
H374 H 0.8211 0.70544 0.93599 0.0
H375 H 0.76967 0.66226 0.97428 0.0
C376 C 0.82688 0.58511 0.9771 0.0
N377 N 0.81247 0.58917 0.95607 0.0
C378 C 0.82513 0.56462 0.98963 0.0
C379 C 0.79387 0.55256 0.95856 0.0
C380 C 0.79643 0.57324 0.94645 0.0
C381 C 0.80847 0.54814 0.98032 0.0
H382 H 0.84024 0.59764 0.98386 0.0
H383 H 0.78618 0.57623 0.92901 0.0
C384 C 0.85662 0.67667 0.90073 0.0
N385 N 0.89925 0.69948 0.88285 0.0
C386 C 0.86418 0.6744 0.87544 0.0
C387 C 0.87063 0.69069 0.91686 0.0
C388 C 0.88579 0.68607 0.86677 0.0
C389 C 0.89217 0.70201 0.90749 0.0
C390 C 0.85183 0.59245 0.91261 0.0
C391 C 0.87239 0.5859 0.92802 0.0
C392 C 0.83821 0.57637 0.89881 0.0
C393 C 0.8791 0.5633 0.92924 0.0
C394 C 0.84553 0.55393 0.90055 0.0
N395 N 0.86568 0.54793 0.91555 0.0
C396 C 0.9037 0.65034 0.9538 0.0
C397 C 0.90564 0.63967 0.91054 0.0
C398 C 0.93054 0.65202 0.95486 0.0
N399 N 0.89188 0.64439 0.93182 0.0
C400 C 0.93248 0.64109 0.91077 0.0
C401 C 0.94512 0.64729 0.93315 0.0
H402 H 0.89234 0.65357 0.97054 0.0
H403 H 0.89569 0.63472 0.89343 0.0
C404 C 0.79634 0.64899 0.85179 0.0
N405 N 0.81323 0.63447 0.86264 0.0
C406 C 0.7934 0.64947 0.82545 0.0
C407 C 0.82484 0.61974 0.82213 0.0
C408 C 0.82735 0.61997 0.84845 0.0
C409 C 0.80794 0.6348 0.81043 0.0
H410 H 0.78568 0.66057 0.86355 0.0
H411 H 0.84115 0.60906 0.85749 0.0
O412 O 0.83671 0.63898 0.96206 0.0
O413 O 0.79068 0.63464 0.92261 0.0
O414 O 0.83596 0.66486 0.90978 0.0
O415 O 0.84493 0.61448 0.91123 0.0
H416 H 0.80217 0.62421 0.99513 0.0
H417 H 0.85639 0.67696 0.97933 0.0
H418 H 0.79112 0.64308 0.03548 0.0
H419 H 0.84438 0.69488 0.01999 0.0
H420 H 0.73231 0.5878 0.88644 0.0
H421 H 0.7641 0.62469 0.96402 0.0
H422 H 0.7704 0.6128 0.88382 0.0
H423 H 0.72605 0.59961 0.9652 0.0
H424 H 0.74934 0.69432 0.99602 0.0
H425 H 0.80187 0.73839 0.95698 0.0
H426 H 0.83691 0.56151 0.00621 0.0
H427 H 0.7812 0.53994 0.9507 0.0
H428 H 0.85364 0.66363 0.86267 0.0
H429 H 0.86526 0.69244 0.93656 0.0
H430 H 0.89192 0.68439 0.84728 0.0
H431 H 0.90334 0.71272 0.91984 0.0
H432 H 0.88296 0.59811 0.93902 0.0
H433 H 0.82199 0.58113 0.8871 0.0
H434 H 0.89495 0.55797 0.9411 0.0
H435 H 0.83513 0.54129 0.89003 0.0
H436 H 0.93987 0.65671 0.97244 0.0
H437 H 0.94331 0.63723 0.89378 0.0
H438 H 0.78035 0.66139 0.81685 0.0
H439 H 0.83651 0.60841 0.81095 0.0
Li440 Li 0.18156 0.39582 0.43551 0.0
Li441 Li 0.18802 0.35508 0.43805 0.0
Li442 Li 0.18101 0.37458 0.39669 0.0
Li443 Li 0.14464 0.36938 0.42573 0.0
C444 C 0.23167 0.38978 0.42725 0.0
N445 N 0.27423 0.41476 0.44108 0.0
C446 C 0.24825 0.38206 0.44619 0.0
C447 C 0.23688 0.41008 0.41515 0.0
C448 C 0.26964 0.39496 0.45295 0.0
C449 C 0.25844 0.42251 0.42248 0.0
C450 C 0.15799 0.36908 0.48248 0.0
C451 C 0.13177 0.35012 0.51355 0.0
N452 N 0.14579 0.35978 0.53237 0.0
C453 C 0.17188 0.37906 0.50216 0.0
C454 C 0.13755 0.35469 0.48823 0.0
C455 C 0.16553 0.37405 0.52724 0.0
C456 C 0.1733 0.44159 0.44419 0.0
N457 N 0.18853 0.42412 0.45117 0.0
C458 C 0.20973 0.44689 0.48212 0.0
C459 C 0.20665 0.42644 0.46965 0.0
C460 C 0.19396 0.46498 0.47547 0.0
C461 C 0.17577 0.46233 0.45611 0.0
H462 H 0.15876 0.43927 0.42977 0.0
H463 H 0.2183 0.41229 0.47516 0.0
C464 C 0.21063 0.312 0.44186 0.0
N465 N 0.20539 0.331 0.45512 0.0
C466 C 0.22156 0.29351 0.45396 0.0
C467 C 0.22278 0.31478 0.49287 0.0
C468 C 0.21168 0.33282 0.48005 0.0
C469 C 0.2275 0.29477 0.47982 0.0
H470 H 0.20593 0.31108 0.42194 0.0
H471 H 0.2081 0.34823 0.49004 0.0
C472 C 0.14894 0.40755 0.38608 0.0
N473 N 0.13644 0.42773 0.34066 0.0
C474 C 0.12637 0.40152 0.37334 0.0
C475 C 0.16504 0.42397 0.37585 0.0
C476 C 0.12041 0.41188 0.35037 0.0
C477 C 0.15842 0.43393 0.35282 0.0
C478 C 0.15484 0.32511 0.40906 0.0
C479 C 0.15068 0.31354 0.38641 0.0
C480 C 0.14807 0.31515 0.43205 0.0
C481 C 0.13948 0.29229 0.38715 0.0
C482 C 0.13696 0.29387 0.43202 0.0
N483 N 0.13289 0.28298 0.40975 0.0
C484 C 0.21011 0.38342 0.35135 0.0
C485 C 0.16905 0.36654 0.34611 0.0
C486 C 0.21352 0.38433 0.32507 0.0
N487 N 0.18805 0.37474 0.36124 0.0
C488 C 0.17163 0.36713 0.31984 0.0
C489 C 0.19402 0.37618 0.30912 0.0
H490 H 0.22488 0.38987 0.36381 0.0
H491 H 0.15162 0.35997 0.35452 0.0
C492 C 0.09554 0.38005 0.44392 0.0
N493 N 0.10825 0.36592 0.42805 0.0
C494 C 0.06866 0.37954 0.44535 0.0
C495 C 0.06846 0.34984 0.41422 0.0
C496 C 0.09533 0.35103 0.41324 0.0
C497 C 0.05495 0.36435 0.43028 0.0
H498 H 0.10632 0.39194 0.45516 0.0
H499 H 0.10574 0.34047 0.4002 0.0
O500 O 0.21056 0.37745 0.42049 0.0
O501 O 0.16374 0.37406 0.45778 0.0
O502 O 0.15536 0.39728 0.40835 0.0
O503 O 0.16562 0.346 0.40861 0.0
H504 H 0.24459 0.36633 0.45564 0.0
H505 H 0.22426 0.41628 0.40045 0.0
H506 H 0.28258 0.38924 0.46766 0.0
H507 H 0.26259 0.43833 0.41342 0.0
H508 H 0.11606 0.33896 0.51823 0.0
H509 H 0.18762 0.39032 0.49816 0.0
H510 H 0.12606 0.34726 0.47338 0.0
H511 H 0.1763 0.38151 0.54262 0.0
H512 H 0.22385 0.44848 0.49713 0.0
H513 H 0.16322 0.476 0.45073 0.0
H514 H 0.22516 0.27831 0.44335 0.0
H515 H 0.22742 0.31632 0.5128 0.0
H516 H 0.1137 0.38883 0.38098 0.0
H517 H 0.18254 0.42888 0.38552 0.0
H518 H 0.10308 0.40729 0.34022 0.0
H519 H 0.17078 0.44657 0.3446 0.0
H520 H 0.15602 0.32088 0.36844 0.0
H521 H 0.15172 0.32361 0.44973 0.0
H522 H 0.13606 0.28319 0.36976 0.0
H523 H 0.13167 0.28597 0.4497 0.0
H524 H 0.23098 0.39147 0.31724 0.0
H525 H 0.15622 0.36083 0.30796 0.0
H526 H 0.05864 0.39103 0.45779 0.0
H527 H 0.05828 0.33812 0.40218 0.0
Li528 Li 0.8202 0.37396 0.1124 0.0
Li529 Li 0.85796 0.37037 0.08351 0.0
Li530 Li 0.82062 0.39429 0.07396 0.0
Li531 Li 0.81444 0.35498 0.07128 0.0
C532 C 0.85243 0.40659 0.12413 0.0
N533 N 0.86582 0.42515 0.17022 0.0
C534 C 0.87423 0.39896 0.13707 0.0
C535 C 0.83742 0.42365 0.13465 0.0
C536 C 0.88067 0.40855 0.16035 0.0
C537 C 0.84451 0.43281 0.15797 0.0
C538 C 0.82935 0.32496 0.10474 0.0
C539 C 0.83208 0.28527 0.0969 0.0
N540 N 0.81043 0.28208 0.11098 0.0
C541 C 0.80703 0.32129 0.11902 0.0
C542 C 0.84193 0.30682 0.09351 0.0
C543 C 0.79784 0.29949 0.12202 0.0
C544 C 0.79218 0.38407 0.15823 0.0
N545 N 0.81312 0.3738 0.14794 0.0
C546 C 0.82884 0.36403 0.18903 0.0
C547 C 0.83113 0.36366 0.16271 0.0
C548 C 0.80772 0.37482 0.20013 0.0
C549 C 0.78908 0.38478 0.18455 0.0
H550 H 0.77814 0.39197 0.14607 0.0
H551 H 0.84761 0.35567 0.15399 0.0
C552 C 0.90807 0.38679 0.07796 0.0
N553 N 0.89434 0.36765 0.08143 0.0
C554 C 0.93496 0.38617 0.0773 0.0
C555 C 0.93309 0.34611 0.08356 0.0
C556 C 0.9062 0.34752 0.08422 0.0
C557 C 0.94763 0.36565 0.08019 0.0
H558 H 0.89808 0.40259 0.07612 0.0
H559 H 0.89483 0.33264 0.08726 0.0
C560 C 0.77105 0.38991 0.08109 0.0
N561 N 0.73094 0.41732 0.0662 0.0
C562 C 0.75493 0.38351 0.06114 0.0
C563 C 0.76666 0.41018 0.09357 0.0
C564 C 0.73476 0.3976 0.0539 0.0
C565 C 0.74634 0.42384 0.08571 0.0
C566 C 0.83876 0.3825 0.02806 0.0
C567 C 0.81959 0.37722 0.01043 0.0
C568 C 0.85774 0.39816 0.02187 0.0
C569 C 0.81959 0.38793 0.98692 0.0
C570 C 0.85709 0.40847 0.99814 0.0
N571 N 0.83817 0.40322 0.98132 0.0
C572 C 0.82733 0.44055 0.06602 0.0
C573 C 0.79715 0.42431 0.03775 0.0
C574 C 0.82503 0.4612 0.05389 0.0
N575 N 0.81355 0.42259 0.0578 0.0
C576 C 0.79438 0.44463 0.02496 0.0
C577 C 0.80861 0.46324 0.03299 0.0
H578 H 0.84069 0.43872 0.08156 0.0
H579 H 0.78674 0.4098 0.03117 0.0
C580 C 0.77572 0.32214 0.05861 0.0
N581 N 0.79984 0.33006 0.05381 0.0
C582 C 0.76663 0.30314 0.0459 0.0
C583 C 0.80755 0.30069 0.02411 0.0
C584 C 0.8157 0.3198 0.03694 0.0
C585 C 0.78278 0.29218 0.02855 0.0
H586 H 0.76369 0.33042 0.07248 0.0
H587 H 0.83488 0.32633 0.03378 0.0
O588 O 0.84566 0.39728 0.10141 0.0
O589 O 0.83797 0.3463 0.10066 0.0
O590 O 0.7909 0.37634 0.08843 0.0
O591 O 0.83896 0.37233 0.05123 0.0
H592 H 0.88589 0.38559 0.12939 0.0
H593 H 0.82044 0.42969 0.12494 0.0
H594 H 0.89743 0.40275 0.17062 0.0
H595 H 0.83304 0.44598 0.16636 0.0
H596 H 0.84153 0.2711 0.08817 0.0
H597 H 0.79664 0.33514 0.12734 0.0
H598 H 0.85881 0.30936 0.08186 0.0
H599 H 0.78056 0.29643 0.13297 0.0
H600 H 0.84354 0.35625 0.20063 0.0
H601 H 0.7726 0.39327 0.19269 0.0
H602 H 0.94577 0.40152 0.07479 0.0
H603 H 0.94247 0.33007 0.08598 0.0
H604 H 0.75815 0.36797 0.05114 0.0
H605 H 0.77905 0.41546 0.10892 0.0
H606 H 0.72222 0.39292 0.0384 0.0
H607 H 0.74285 0.43965 0.09507 0.0
H608 H 0.80469 0.3652 0.01499 0.0
H609 H 0.87268 0.40243 0.03532 0.0
H610 H 0.80477 0.38414 0.97315 0.0
H611 H 0.87159 0.4207 0.99312 0.0
H612 H 0.83645 0.47528 0.06031 0.0
H613 H 0.78172 0.44572 0.0087 0.0
H614 H 0.74744 0.29686 0.04979 0.0
H615 H 0.82048 0.29253 0.0109 0.0
Li616 Li 0.1818 0.63658 0.61203 0.0
Li617 Li 0.14619 0.6408 0.58133 0.0
Li618 Li 0.18211 0.61808 0.57087 0.0
Li619 Li 0.18697 0.65815 0.57052 0.0
C620 C 0.15149 0.59183 0.59797 0.0
N621 N 0.13981 0.54688 0.59417 0.0
C622 C 0.13072 0.58479 0.5831 0.0
C623 C 0.16628 0.57603 0.61096 0.0
C624 C 0.12515 0.56198 0.58139 0.0
C625 C 0.16008 0.55337 0.60877 0.0
C626 C 0.14437 0.6772 0.60826 0.0
C627 C 0.11216 0.70544 0.60047 0.0
N628 N 0.10105 0.70061 0.62316 0.0
C629 C 0.13273 0.67258 0.63155 0.0
C630 C 0.13413 0.69382 0.59262 0.0
C631 C 0.11081 0.68459 0.63873 0.0
C632 C 0.20657 0.64976 0.65788 0.0
N633 N 0.18881 0.63582 0.64737 0.0
C634 C 0.17684 0.62192 0.68813 0.0
C635 C 0.17417 0.62194 0.66184 0.0
C636 C 0.19463 0.63641 0.6995 0.0
C637 C 0.20986 0.6503 0.68418 0.0
H638 H 0.21775 0.66076 0.64588 0.0
H639 H 0.15995 0.61128 0.65297 0.0
C640 C 0.09561 0.6349 0.59888 0.0
N641 N 0.1098 0.64391 0.57978 0.0
C642 C 0.06879 0.63636 0.59846 0.0
C643 C 0.07168 0.65669 0.55893 0.0
C644 C 0.0985 0.65474 0.56004 0.0
C645 C 0.05665 0.64728 0.57826 0.0
H646 H 0.1052 0.62647 0.61436 0.0
H647 H 0.11035 0.66183 0.54521 0.0
C648 C 0.23272 0.62387 0.59078 0.0
N649 N 0.27765 0.60015 0.59915 0.0
C650 C 0.25387 0.62666 0.57467 0.0
C651 C 0.23457 0.60924 0.61136 0.0
C652 C 0.27636 0.61443 0.57915 0.0
C653 C 0.25741 0.59735 0.61523 0.0
C654 C 0.1741 0.63999 0.5246 0.0
C655 C 0.20038 0.63616 0.5208 0.0
C656 C 0.1581 0.64396 0.5038 0.0
C657 C 0.21027 0.63636 0.4962 0.0
C658 C 0.16871 0.64404 0.47947 0.0
N659 N 0.19436 0.64028 0.47621 0.0
C660 C 0.17158 0.58449 0.53576 0.0
C661 C 0.2103 0.57708 0.55804 0.0
C662 C 0.1735 0.56418 0.52287 0.0
N663 N 0.1897 0.59052 0.55313 0.0
C664 C 0.21308 0.55665 0.54541 0.0
C665 C 0.19436 0.55002 0.52782 0.0
H666 H 0.15517 0.59523 0.5324 0.0
H667 H 0.22433 0.5818 0.57204 0.0
C668 C 0.22766 0.68862 0.55971 0.0
N669 N 0.20269 0.68329 0.55465 0.0
C670 C 0.23921 0.70695 0.54778 0.0
C671 C 0.19913 0.7139 0.52572 0.0
C672 C 0.18838 0.69544 0.53802 0.0
C673 C 0.22481 0.71977 0.53062 0.0
H674 H 0.23857 0.67864 0.57301 0.0
H675 H 0.16861 0.69072 0.53427 0.0
O676 O 0.15738 0.61409 0.59969 0.0
O677 O 0.16521 0.66502 0.60046 0.0
O678 O 0.21066 0.63594 0.58686 0.0
O679 O 0.16393 0.64005 0.54853 0.0
H680 H 0.11922 0.59677 0.57271 0.0
H681 H 0.1824 0.58119 0.62256 0.0
H682 H 0.10923 0.55627 0.56984 0.0
H683 H 0.17141 0.54094 0.61865 0.0
H684 H 0.1039 0.71823 0.58848 0.0
H685 H 0.14033 0.65967 0.6438 0.0
H686 H 0.14284 0.69749 0.57448 0.0
H687 H 0.10149 0.6811 0.65662 0.0
H688 H 0.16475 0.6111 0.69954 0.0
H689 H 0.22368 0.66172 0.69253 0.0
H690 H 0.05759 0.62896 0.61362 0.0
H691 H 0.06272 0.66521 0.54311 0.0
H692 H 0.25299 0.63817 0.55889 0.0
H693 H 0.21848 0.60683 0.62403 0.0
H694 H 0.29283 0.61634 0.56675 0.0
H695 H 0.25903 0.58587 0.63097 0.0
H696 H 0.21299 0.633 0.53664 0.0
H697 H 0.1377 0.64698 0.50643 0.0
H698 H 0.23058 0.63341 0.493 0.0
H699 H 0.15656 0.64711 0.46319 0.0
H700 H 0.15868 0.55941 0.50947 0.0
H701 H 0.22932 0.54592 0.54969 0.0
H702 H 0.2591 0.71112 0.55188 0.0
H703 H 0.1876 0.72349 0.51252 0.0
Li704 Li 0.68543 0.87391 0.11157 0.0
Li705 Li 0.69058 0.85467 0.073 0.0
Li706 Li 0.68556 0.89556 0.0725 0.0
Li707 Li 0.64793 0.86892 0.08382 0.0
C708 C 0.73598 0.88576 0.09789 0.0
N709 N 0.78032 0.90207 0.12031 0.0
C710 C 0.75501 0.87101 0.10641 0.0
C711 C 0.73971 0.90882 0.10041 0.0
C712 C 0.77721 0.87958 0.11782 0.0
C713 C 0.76221 0.91673 0.11187 0.0
C714 C 0.67611 0.8259 0.11083 0.0
C715 C 0.66866 0.7869 0.11985 0.0
N716 N 0.69303 0.78521 0.12915 0.0
C717 C 0.70105 0.8238 0.1205 0.0
C718 C 0.65973 0.80735 0.11051 0.0
C719 C 0.70926 0.80308 0.12968 0.0
C720 C 0.67551 0.86241 0.16178 0.0
N721 N 0.69231 0.87457 0.14754 0.0
C722 C 0.71361 0.88756 0.18502 0.0
C723 C 0.71109 0.88712 0.15866 0.0
C724 C 0.69641 0.87519 0.19997 0.0
C725 C 0.67725 0.86244 0.18814 0.0
H726 H 0.66029 0.85305 0.15264 0.0
H727 H 0.72374 0.89724 0.14729 0.0
C728 C 0.73212 0.83133 0.04959 0.0
N729 N 0.70683 0.83004 0.05625 0.0
C730 C 0.74392 0.81351 0.03693 0.0
C731 C 0.70344 0.79343 0.0383 0.0
C732 C 0.69246 0.81159 0.05092 0.0
C733 C 0.72943 0.79435 0.03117 0.0
H734 H 0.74305 0.84625 0.05394 0.0
H735 H 0.67235 0.81109 0.05627 0.0
C736 C 0.65526 0.90803 0.12265 0.0
N737 N 0.64658 0.92959 0.16812 0.0
C738 C 0.63504 0.90121 0.13834 0.0
C739 C 0.67098 0.92588 0.12998 0.0
C740 C 0.631 0.9123 0.1613 0.0
C741 C 0.6663 0.93654 0.15308 0.0
C742 C 0.66851 0.86161 0.02898 0.0
C743 C 0.68956 0.8652 0.01296 0.0
C744 C 0.64978 0.84584 0.02242 0.0
C745 C 0.69166 0.85272 0.99068 0.0
C746 C 0.65255 0.83373 0.99994 0.0
N747 N 0.67327 0.83737 0.98469 0.0
C748 C 0.71192 0.92558 0.03916 0.0
C749 C 0.67502 0.94001 0.06012 0.0
C750 C 0.71501 0.94564 0.02584 0.0
N751 N 0.69203 0.92315 0.05574 0.0
C752 C 0.67748 0.96033 0.04736 0.0
C753 C 0.69751 0.96318 0.02984 0.0
H754 H 0.72511 0.91185 0.03604 0.0
H755 H 0.65926 0.93752 0.07321 0.0
C756 C 0.59936 0.85327 0.10009 0.0
N757 N 0.61178 0.86539 0.08203 0.0
C758 C 0.57248 0.85184 0.09995 0.0
C759 C 0.57183 0.87497 0.06233 0.0
C760 C 0.59871 0.87604 0.06326 0.0
C761 C 0.55855 0.86293 0.081 0.0
H762 H 0.61034 0.84514 0.11488 0.0
H763 H 0.60918 0.88565 0.04928 0.0
O764 O 0.71428 0.87765 0.08636 0.0
O765 O 0.66782 0.84593 0.10135 0.0
O766 O 0.65985 0.89707 0.10037 0.0
O767 O 0.66654 0.87312 0.05126 0.0
H768 H 0.75274 0.85314 0.10411 0.0
H769 H 0.72531 0.92051 0.09388 0.0
H770 H 0.79203 0.86836 0.12461 0.0
H771 H 0.76525 0.93452 0.11412 0.0
H772 H 0.65622 0.77238 0.11967 0.0
H773 H 0.7139 0.83801 0.12092 0.0
H774 H 0.64038 0.80872 0.10298 0.0
H775 H 0.72854 0.80121 0.13721 0.0
H776 H 0.72847 0.89772 0.19371 0.0
H777 H 0.66356 0.85287 0.19922 0.0
H778 H 0.76404 0.81465 0.03158 0.0
H779 H 0.69181 0.77886 0.03403 0.0
H780 H 0.62277 0.88737 0.13298 0.0
H781 H 0.68671 0.93134 0.11805 0.0
H782 H 0.61553 0.90712 0.17372 0.0
H783 H 0.67839 0.95031 0.15907 0.0
H784 H 0.7043 0.87724 0.01789 0.0
H785 H 0.63346 0.84278 0.03472 0.0
H786 H 0.70796 0.85516 0.9782 0.0
H787 H 0.6383 0.82136 0.99469 0.0
H788 H 0.7306 0.94737 0.01233 0.0
H789 H 0.66362 0.97356 0.05073 0.0
H790 H 0.56263 0.84251 0.11464 0.0
H791 H 0.56148 0.88375 0.04755 0.0
Li792 Li 0.30983 0.15895 0.57561 0.0
Li793 Li 0.31806 0.13839 0.614 0.0
Li794 Li 0.35305 0.14337 0.58463 0.0
Li795 Li 0.31761 0.11857 0.57468 0.0
C796 C 0.32846 0.18048 0.62323 0.0
N797 N 0.31639 0.20613 0.66512 0.0
C798 C 0.30315 0.18774 0.62713 0.0
C799 C 0.34763 0.18628 0.64062 0.0
C800 C 0.29744 0.2007 0.64842 0.0
C801 C 0.34114 0.19924 0.6617 0.0
C802 C 0.27046 0.11974 0.59938 0.0
C803 C 0.25998 0.08696 0.62393 0.0
N804 N 0.23488 0.08899 0.61685 0.0
C805 C 0.24457 0.12151 0.59236 0.0
C806 C 0.27825 0.10234 0.6153 0.0
C807 C 0.22687 0.1058 0.60139 0.0
C808 C 0.27318 0.17926 0.54293 0.0
N809 N 0.29256 0.18339 0.55965 0.0
C810 C 0.29001 0.22266 0.55144 0.0
C811 C 0.30108 0.20456 0.56409 0.0
C812 C 0.27019 0.21887 0.53393 0.0
C813 C 0.26162 0.1969 0.52974 0.0
H814 H 0.26702 0.16222 0.53955 0.0
H815 H 0.31682 0.20736 0.57713 0.0
C816 C 0.33276 0.13302 0.66436 0.0
N817 N 0.31178 0.13718 0.64968 0.0
C818 C 0.33063 0.13301 0.6907 0.0
C819 C 0.28519 0.1413 0.68641 0.0
C820 C 0.28823 0.14129 0.66008 0.0
C821 C 0.30664 0.13725 0.7019 0.0
H822 H 0.35128 0.13008 0.65554 0.0
H823 H 0.27194 0.14488 0.64797 0.0
C824 C 0.34226 0.15628 0.53444 0.0
N825 N 0.36004 0.18611 0.49843 0.0
C826 C 0.34048 0.15108 0.50869 0.0
C827 C 0.35313 0.17668 0.54185 0.0
C828 C 0.34958 0.16636 0.49078 0.0
C829 C 0.36198 0.19152 0.52337 0.0
C830 C 0.36061 0.09935 0.59743 0.0
C831 C 0.36934 0.09595 0.57267 0.0
C832 C 0.37006 0.08595 0.617 0.0
C833 C 0.38738 0.07912 0.56791 0.0
C834 C 0.38811 0.06931 0.61148 0.0
N835 N 0.39632 0.06627 0.58725 0.0
C836 C 0.40271 0.14949 0.6043 0.0
C837 C 0.40225 0.14434 0.55975 0.0
C838 C 0.42961 0.15036 0.60434 0.0
N839 N 0.38962 0.14667 0.58221 0.0
C840 C 0.42913 0.14522 0.5589 0.0
C841 C 0.44298 0.14816 0.58142 0.0
H842 H 0.39223 0.15046 0.62196 0.0
H843 H 0.39157 0.1412 0.54255 0.0
C844 C 0.30661 0.09096 0.53248 0.0
N845 N 0.30984 0.09091 0.55804 0.0
C846 C 0.30451 0.0708 0.51922 0.0
C847 C 0.3079 0.05094 0.55897 0.0
C848 C 0.31023 0.07145 0.57141 0.0
C849 C 0.30553 0.05051 0.53252 0.0
H850 H 0.30648 0.10664 0.52233 0.0
H851 H 0.31336 0.07176 0.59164 0.0
O852 O 0.33421 0.16722 0.60287 0.0
O853 O 0.28792 0.13505 0.5906 0.0
O854 O 0.33278 0.14168 0.55213 0.0
O855 O 0.34301 0.11576 0.60271 0.0
H856 H 0.28798 0.18309 0.61407 0.0
H857 H 0.3673 0.18079 0.63794 0.0
H858 H 0.27791 0.20632 0.65174 0.0
H859 H 0.35576 0.20379 0.67537 0.0
H860 H 0.26575 0.07341 0.63626 0.0
H861 H 0.23824 0.13491 0.58004 0.0
H862 H 0.29817 0.10069 0.62099 0.0
H863 H 0.20676 0.10697 0.5961 0.0
H864 H 0.29709 0.23943 0.55495 0.0
H865 H 0.24641 0.19348 0.51623 0.0
H866 H 0.34752 0.12992 0.70225 0.0
H867 H 0.26647 0.14474 0.69462 0.0
H868 H 0.3321 0.13542 0.50255 0.0
H869 H 0.35477 0.18106 0.56163 0.0
H870 H 0.34829 0.16254 0.47079 0.0
H871 H 0.37039 0.20736 0.52886 0.0
H872 H 0.36228 0.10613 0.55725 0.0
H873 H 0.3635 0.08839 0.63627 0.0
H874 H 0.39427 0.07629 0.54884 0.0
H875 H 0.3956 0.05881 0.62645 0.0
H876 H 0.43991 0.15235 0.62204 0.0
H877 H 0.43905 0.14315 0.541 0.0
H878 H 0.30276 0.07098 0.49878 0.0
H879 H 0.30887 0.03553 0.56972 0.0
Li880 Li 0.68562 0.11743 0.9376 0.0
Li881 Li 0.64977 0.1415 0.9303 0.0
Li882 Li 0.68556 0.13579 0.89733 0.0
Li883 Li 0.6937 0.15637 0.93888 0.0
C884 C 0.65125 0.09342 0.90985 0.0
N885 N 0.63491 0.04947 0.90919 0.0
C886 C 0.63557 0.08527 0.92929 0.0
C887 C 0.65843 0.07934 0.88994 0.0
C888 C 0.62754 0.06298 0.92863 0.0
C889 C 0.65003 0.05713 0.89 0.0
C890 C 0.65992 0.15355 0.97938 0.0
C891 C 0.64315 0.18999 0.99016 0.0
N892 N 0.63803 0.18263 0.014 0.0
C893 C 0.65446 0.14637 1.00401 0.0
C894 C 0.65415 0.17554 0.9724 0.0
C895 C 0.64341 0.1613 0.02122 0.0
C896 C 0.68977 0.08749 0.97863 0.0
N897 N 0.69347 0.0891 0.9532 0.0
C898 C 0.70364 0.05011 0.95072 0.0
C899 C 0.70071 0.07101 0.93923 0.0
C900 C 0.699 0.04793 0.97677 0.0
C901 C 0.6924 0.06693 0.99088 0.0
H902 H 0.68417 0.10209 0.98931 0.0
H903 H 0.70354 0.07264 0.91904 0.0
C904 C 0.60101 0.15407 0.91232 0.0
N905 N 0.61364 0.14566 0.93277 0.0
C906 C 0.57416 0.15565 0.91243 0.0
C907 C 0.57385 0.13987 0.95462 0.0
C908 C 0.60072 0.13865 0.95374 0.0
C909 C 0.56038 0.14828 0.93368 0.0
H910 H 0.61179 0.15905 0.89572 0.0
H911 H 0.61121 0.13154 0.96948 0.0
C912 C 0.73453 0.11951 0.92843 0.0
N913 N 0.77255 0.0902 0.94396 0.0
C914 C 0.74415 0.12059 0.95313 0.0
C915 C 0.74435 0.10363 0.91157 0.0
C916 C 0.76332 0.10558 0.96064 0.0
C917 C 0.76357 0.08895 0.91979 0.0
C918 C 0.66798 0.18372 0.89794 0.0
C919 C 0.6863 0.18895 0.87943 0.0
C920 C 0.64801 0.19876 0.90303 0.0
C921 C 0.68442 0.20923 0.86643 0.0
C922 C 0.64682 0.21888 0.88964 0.0
N923 N 0.66489 0.22366 0.87177 0.0
C924 C 0.66875 0.13722 0.8475 0.0
C925 C 0.71413 0.13308 0.85076 0.0
C926 C 0.67024 0.13734 0.82111 0.0
N927 N 0.69049 0.13512 0.86168 0.0
C928 C 0.71648 0.13287 0.82436 0.0
C929 C 0.69431 0.13509 0.80935 0.0
H930 H 0.65026 0.13896 0.85678 0.0
H931 H 0.73114 0.13184 0.8625 0.0
C932 C 0.7199 0.17872 0.97894 0.0
N933 N 0.7126 0.18059 0.95434 0.0
C934 C 0.73427 0.19568 0.99056 0.0
C935 C 0.73202 0.21682 0.95203 0.0
C936 C 0.71783 0.19947 0.94108 0.0
C937 C 0.74278 0.21449 0.97654 0.0
H938 H 0.71436 0.1641 0.98969 0.0
H939 H 0.71088 0.20129 0.92199 0.0
O940 O 0.65942 0.11514 0.91019 0.0
O941 O 0.6704 0.13891 0.96226 0.0
O942 O 0.71537 0.13376 0.92095 0.0
O943 O 0.66929 0.1638 0.91064 0.0
H944 H 0.62992 0.09599 0.94485 0.0
H945 H 0.67052 0.08547 0.87473 0.0
H946 H 0.61554 0.05638 0.94362 0.0
H947 H 0.65556 0.04597 0.87481 0.0
H948 H 0.63868 0.20706 0.98497 0.0
H949 H 0.65854 0.12938 0.00977 0.0
H950 H 0.65824 0.1815 0.95357 0.0
H951 H 0.63905 0.15592 0.0403 0.0
H952 H 0.70876 0.0357 0.93936 0.0
H953 H 0.68872 0.06573 0.01103 0.0
H954 H 0.56418 0.16206 0.89593 0.0
H955 H 0.56364 0.13387 0.97118 0.0
H956 H 0.73664 0.13269 0.96645 0.0
H957 H 0.73689 0.10234 0.89251 0.0
H958 H 0.77081 0.10612 0.97975 0.0
H959 H 0.77122 0.07646 0.90701 0.0
H960 H 0.70204 0.17764 0.87541 0.0
H961 H 0.63356 0.19496 0.91717 0.0
H962 H 0.69852 0.21353 0.85214 0.0
H963 H 0.6315 0.2307 0.89344 0.0
H964 H 0.65283 0.13911 0.80996 0.0
H965 H 0.73532 0.13121 0.81572 0.0
H966 H 0.73793 0.19386 0.01055 0.0
H967 H 0.73371 0.23195 0.94107 0.0
Li968 Li 0.35294 0.86988 0.42737 0.0
Li969 Li 0.318 0.89778 0.4367 0.0
Li970 Li 0.31102 0.85575 0.43774 0.0
Li971 Li 0.31715 0.87447 0.39839 0.0
C972 C 0.35377 0.87575 0.47629 0.0
N973 N 0.39596 0.87834 0.50815 0.0
C974 C 0.36132 0.89635 0.48641 0.0
C975 C 0.36758 0.85644 0.48256 0.0
C976 C 0.3827 0.89731 0.50247 0.0
C977 C 0.3889 0.85811 0.49862 0.0
C978 C 0.35165 0.90606 0.38672 0.0
C979 C 0.34955 0.93412 0.35399 0.0
N980 N 0.36864 0.92337 0.34119 0.0
C981 C 0.37113 0.89521 0.37317 0.0
C982 C 0.34067 0.92562 0.37704 0.0
C983 C 0.37947 0.90425 0.35019 0.0
C984 C 0.40117 0.84683 0.42453 0.0
N985 N 0.38942 0.86668 0.42955 0.0
C986 C 0.43007 0.88429 0.43703 0.0
C987 C 0.40324 0.88527 0.43557 0.0
C988 C 0.44263 0.86402 0.43207 0.0
C989 C 0.42799 0.84509 0.42584 0.0
H990 H 0.38979 0.83246 0.41922 0.0
H991 H 0.39336 0.9009 0.43909 0.0
C992 C 0.29443 0.92785 0.47142 0.0
N993 N 0.31173 0.92601 0.45217 0.0
C994 C 0.29185 0.94807 0.48453 0.0
C995 C 0.32447 0.96417 0.45733 0.0
C996 C 0.32661 0.94363 0.44495 0.0
C997 C 0.30718 0.96642 0.47757 0.0
H998 H 0.28317 0.91344 0.477 0.0
H999 H 0.34073 0.94152 0.43009 0.0
C1000 C 0.32767 0.82415 0.40897 0.0
N1001 N 0.31444 0.77935 0.40918 0.0
C1002 C 0.30879 0.81612 0.39239 0.0
C1003 C 0.33973 0.80938 0.42573 0.0
C1004 C 0.3024 0.79342 0.39276 0.0
C1005 C 0.3328 0.7868 0.42552 0.0
C1006 C 0.26827 0.8859 0.40821 0.0
C1007 C 0.25595 0.87001 0.39301 0.0
C1008 C 0.25968 0.90806 0.40807 0.0
C1009 C 0.23536 0.87663 0.37769 0.0
C1010 C 0.23899 0.914 0.39253 0.0
N1011 N 0.22738 0.8983 0.37777 0.0
C1012 C 0.30197 0.82593 0.47869 0.0
C1013 C 0.27264 0.8218 0.44459 0.0
C1014 C 0.29068 0.80793 0.49143 0.0
N1015 N 0.29309 0.8323 0.45554 0.0
C1016 C 0.26083 0.80366 0.45662 0.0
C1017 C 0.27005 0.7965 0.48021 0.0
H1018 H 0.31801 0.83465 0.48717 0.0
H1019 H 0.26583 0.82718 0.42626 0.0
C1020 C 0.32257 0.85982 0.34808 0.0
N1021 N 0.31045 0.87556 0.36241 0.0
C1022 C 0.32057 0.86022 0.32172 0.0
C1023 C 0.29414 0.89337 0.32507 0.0
C1024 C 0.29666 0.89234 0.35141 0.0
C1025 C 0.30628 0.87718 0.31003 0.0
H1026 H 0.33437 0.84724 0.35709 0.0
H1027 H 0.28825 0.90532 0.36296 0.0
O1028 O 0.33333 0.87456 0.45993 0.0
O1029 O 0.34314 0.89741 0.4092 0.0
O1030 O 0.33401 0.84638 0.4091 0.0
O1031 O 0.28841 0.87979 0.42341 0.0
H1032 H 0.35094 0.91148 0.48181 0.0
H1033 H 0.36222 0.8404 0.47471 0.0
H1034 H 0.38881 0.91316 0.51033 0.0
H1035 H 0.39991 0.84334 0.5034 0.0
H1036 H 0.34119 0.94921 0.34623 0.0
H1037 H 0.3796 0.8799 0.38022 0.0
H1038 H 0.32525 0.934 0.38707 0.0
H1039 H 0.39451 0.89603 0.33948 0.0
H1040 H 0.44094 0.8992 0.44173 0.0
H1041 H 0.43727 0.82927 0.42172 0.0
H1042 H 0.27847 0.9493 0.50021 0.0
H1043 H 0.33671 0.97798 0.45168 0.0
H1044 H 0.29888 0.82731 0.3796 0.0
H1045 H 0.35402 0.81531 0.43902 0.0
H1046 H 0.28776 0.78701 0.38009 0.0
H1047 H 0.3419 0.77522 0.43846 0.0
H1048 H 0.26246 0.85285 0.39271 0.0
H1049 H 0.26896 0.92057 0.41974 0.0
H1050 H 0.22578 0.86455 0.36568 0.0
H1051 H 0.2322 0.9311 0.39215 0.0
H1052 H 0.29812 0.80281 0.5097 0.0
H1053 H 0.24487 0.79516 0.44754 0.0
H1054 H 0.33048 0.8477 0.31053 0.0
H1055 H 0.28333 0.90688 0.31648 0.0
Li1056 Li 0.31659 0.15777 0.9392 0.0
Li1057 Li 0.32236 0.11832 0.93895 0.0
Li1058 Li 0.35934 0.14298 0.92935 0.0
Li1059 Li 0.32106 0.13879 0.89872 0.0
C1060 C 0.3468 0.14629 0.9846 0.0
N1061 N 0.36162 0.15846 0.03296 0.0
C1062 C 0.33438 0.13708 1.00566 0.0
C1063 C 0.36708 0.16138 0.98817 0.0
C1064 C 0.34206 0.14353 0.02994 0.0
C1065 C 0.37418 0.16742 0.01275 0.0
C1066 C 0.27088 0.13118 0.93727 0.0
C1067 C 0.22595 0.12097 0.93919 0.0
N1068 N 0.2266 0.12302 0.96484 0.0
C1069 C 0.27112 0.13318 0.96363 0.0
C1070 C 0.24814 0.12504 0.92491 0.0
C1071 C 0.24854 0.129 0.97724 0.0
C1072 C 0.27469 0.18768 0.94983 0.0
N1073 N 0.29967 0.18279 0.95554 0.0
C1074 C 0.30182 0.21409 0.98376 0.0
C1075 C 0.31333 0.19578 0.97192 0.0
C1076 C 0.27603 0.21917 0.97856 0.0
C1077 C 0.26235 0.20585 0.96133 0.0
H1078 H 0.26437 0.17763 0.93617 0.0
H1079 H 0.33336 0.1923 0.9754 0.0
C1080 C 0.3345 0.08375 0.97188 0.0
N1081 N 0.31583 0.09054 0.95553 0.0
C1082 C 0.33237 0.06327 0.98433 0.0
C1083 C 0.29166 0.05712 0.96308 0.0
C1084 C 0.29465 0.07774 0.95088 0.0
C1085 C 0.31078 0.04977 0.97991 0.0
H1086 H 0.35128 0.09415 0.97493 0.0
H1087 H 0.2803 0.08335 0.93746 0.0
C1088 C 0.3356 0.18871 0.90977 0.0
N1089 N 0.32595 0.23413 0.9103 0.0
C1090 C 0.31411 0.1973 0.89712 0.0
C1091 C 0.35227 0.20319 0.92256 0.0
C1092 C 0.30953 0.22033 0.89767 0.0
C1093 C 0.34704 0.22611 0.92263 0.0
C1094 C 0.34799 0.09375 0.90648 0.0
C1095 C 0.36827 0.0813 0.91669 0.0
C1096 C 0.3281 0.08288 0.89354 0.0
C1097 C 0.36825 0.05806 0.91386 0.0
C1098 C 0.3288 0.05962 0.8911 0.0
N1099 N 0.34868 0.0478 0.90124 0.0
C1100 C 0.40859 0.13187 0.94729 0.0
C1101 C 0.40812 0.16071 0.91638 0.0
C1102 C 0.43546 0.13262 0.94844 0.0
N1103 N 0.3956 0.14573 0.93135 0.0
C1104 C 0.43499 0.1621 0.91703 0.0
C1105 C 0.44882 0.14781 0.93307 0.0
H1106 H 0.39803 0.1201 0.95888 0.0
H1107 H 0.39724 0.17134 0.90373 0.0
C1108 C 0.29127 0.14553 0.85354 0.0
N1109 N 0.31377 0.13783 0.86347 0.0
C1110 C 0.28756 0.1456 0.82726 0.0
C1111 C 0.33002 0.12946 0.82219 0.0
C1112 C 0.33295 0.12981 0.84844 0.0
C1113 C 0.30722 0.13759 0.8114 0.0
H1114 H 0.2764 0.1519 0.86597 0.0
H1115 H 0.3507 0.12394 0.85689 0.0
O1116 O 0.34004 0.13968 0.96068 0.0
O1117 O 0.2928 0.13496 0.92352 0.0
O1118 O 0.33992 0.16617 0.91013 0.0
O1119 O 0.34716 0.11641 0.90979 0.0
H1120 H 0.31909 0.12493 1.00333 0.0
H1121 H 0.37698 0.16863 0.97212 0.0
H1122 H 0.33256 0.13659 0.0464 0.0
H1123 H 0.38968 0.17924 0.01577 0.0
H1124 H 0.20821 0.11618 0.92988 0.0
H1125 H 0.28848 0.13806 0.97343 0.0
H1126 H 0.24769 0.12337 0.90449 0.0
H1127 H 0.24844 0.13053 0.99766 0.0
H1128 H 0.31295 0.2243 0.99672 0.0
H1129 H 0.24246 0.20957 0.95674 0.0
H1130 H 0.34748 0.05791 0.99713 0.0
H1131 H 0.27487 0.0469 0.95922 0.0
H1132 H 0.30094 0.18627 0.8873 0.0
H1133 H 0.36885 0.19676 0.93264 0.0
H1134 H 0.29288 0.22721 0.88812 0.0
H1135 H 0.35966 0.23752 0.9326 0.0
H1136 H 0.38372 0.08947 0.92688 0.0
H1137 H 0.31214 0.09229 0.88575 0.0
H1138 H 0.38373 0.04818 0.92178 0.0
H1139 H 0.31347 0.05096 0.88125 0.0
H1140 H 0.44573 0.12136 0.96093 0.0
H1141 H 0.44492 0.1739 0.90488 0.0
H1142 H 0.26977 0.15202 0.81937 0.0
H1143 H 0.34551 0.12324 0.81036 0.0
Li1144 Li 0.6856 0.85229 0.43876 0.0
Li1145 Li 0.67877 0.89425 0.43671 0.0
Li1146 Li 0.64425 0.86876 0.4278 0.0
Li1147 Li 0.67765 0.87288 0.39683 0.0
C1148 C 0.64442 0.86923 0.47719 0.0
N1149 N 0.60356 0.86386 0.51019 0.0
C1150 C 0.62883 0.88748 0.48344 0.0
C1151 C 0.63936 0.84829 0.48784 0.0
C1152 C 0.6082 0.8844 0.5001 0.0
C1153 C 0.61861 0.84592 0.5045 0.0
C1154 C 0.73093 0.88459 0.4258 0.0
C1155 C 0.76572 0.90966 0.4151 0.0
N1156 N 0.7791 0.90236 0.43565 0.0
C1157 C 0.74515 0.87717 0.44666 0.0
C1158 C 0.7414 0.90081 0.40973 0.0
C1159 C 0.76943 0.88642 0.45137 0.0
C1160 C 0.71191 0.81073 0.44141 0.0
N1161 N 0.70353 0.82853 0.4552 0.0
C1162 C 0.71883 0.8118 0.49348 0.0
C1163 C 0.70695 0.82948 0.48072 0.0
C1164 C 0.72706 0.793 0.47981 0.0
C1165 C 0.72368 0.79258 0.45345 0.0
H1166 H 0.70894 0.81046 0.42113 0.0
H1167 H 0.70022 0.8439 0.49117 0.0
C1168 C 0.66605 0.93733 0.4523 0.0
N1169 N 0.68573 0.9223 0.453 0.0
C1170 C 0.66818 0.95781 0.46479 0.0
C1171 C 0.71092 0.94719 0.47848 0.0
C1172 C 0.70788 0.92678 0.46587 0.0
C1173 C 0.69078 0.96283 0.47814 0.0
H1174 H 0.64845 0.93322 0.44236 0.0
H1175 H 0.72298 0.91445 0.46686 0.0
C1176 C 0.64442 0.82819 0.40611 0.0
N1177 N 0.60691 0.79597 0.39888 0.0
C1178 C 0.62562 0.83105 0.38743 0.0
C1179 C 0.6442 0.80888 0.42105 0.0
C1180 C 0.60677 0.81461 0.38412 0.0
C1181 C 0.62509 0.79278 0.41708 0.0
C1182 C 0.65423 0.91298 0.39156 0.0
C1183 C 0.63375 0.91622 0.37474 0.0
C1184 C 0.67592 0.92679 0.39001 0.0
C1185 C 0.63536 0.9332 0.35663 0.0
C1186 C 0.67678 0.9436 0.37168 0.0
N1187 N 0.65666 0.94643 0.35549 0.0
C1188 C 0.5933 0.88394 0.42447 0.0
C1189 C 0.59589 0.84702 0.4406 0.0
C1190 C 0.56645 0.88328 0.42541 0.0
N1191 N 0.60745 0.86583 0.43149 0.0
C1192 C 0.56903 0.8456 0.44182 0.0
C1193 C 0.55413 0.86384 0.43389 0.0
H1194 H 0.60288 0.89896 0.41812 0.0
H1195 H 0.60742 0.83306 0.44682 0.0
C1196 C 0.70939 0.87338 0.3522 0.0
N1197 N 0.68487 0.87336 0.36137 0.0
C1198 C 0.71377 0.87412 0.32604 0.0
C1199 C 0.66764 0.87447 0.3194 0.0
C1200 C 0.66419 0.87382 0.34556 0.0
C1201 C 0.69265 0.87463 0.30943 0.0
H1202 H 0.72552 0.87281 0.36515 0.0
H1203 H 0.64493 0.87388 0.35328 0.0
O1204 O 0.66421 0.87177 0.46034 0.0
O1205 O 0.7072 0.8756 0.42081 0.0
O1206 O 0.66303 0.84412 0.4097 0.0
O1207 O 0.65331 0.89597 0.40894 0.0
H1208 H 0.63239 0.90376 0.47524 0.0
H1209 H 0.65103 0.83393 0.48295 0.0
H1210 H 0.59584 0.89833 0.50495 0.0
H1211 H 0.61435 0.82978 0.51275 0.0
H1212 H 0.77399 0.92229 0.40289 0.0
H1213 H 0.73744 0.86459 0.45924 0.0
H1214 H 0.73095 0.90645 0.39321 0.0
H1215 H 0.78055 0.88094 0.46755 0.0
H1216 H 0.72126 0.81261 0.51384 0.0
H1217 H 0.72985 0.77828 0.4424 0.0
H1218 H 0.65226 0.96952 0.46431 0.0
H1219 H 0.72855 0.95058 0.4888 0.0
H1220 H 0.62526 0.84595 0.37591 0.0
H1221 H 0.65838 0.80646 0.43578 0.0
H1222 H 0.59198 0.81671 0.36987 0.0
H1223 H 0.62463 0.77781 0.42858 0.0
H1224 H 0.61694 0.90551 0.37536 0.0
H1225 H 0.69195 0.92453 0.40277 0.0
H1226 H 0.61971 0.9358 0.34341 0.0
H1227 H 0.69348 0.95438 0.37029 0.0
H1228 H 0.55538 0.89769 0.4194 0.0
H1229 H 0.55997 0.83043 0.44864 0.0
H1230 H 0.73331 0.87423 0.31882 0.0
H1231 H 0.65099 0.8749 0.30703 0.0
Li1232 Li 0.32096 0.87516 0.11289 0.0
Li1233 Li 0.35739 0.86942 0.08423 0.0
Li1234 Li 0.32108 0.89633 0.074 0.0
Li1235 Li 0.31389 0.85563 0.0716 0.0
C1236 C 0.3532 0.90789 0.12364 0.0
N1237 N 0.36515 0.92825 0.16912 0.0
C1238 C 0.37539 0.90165 0.13688 0.0
C1239 C 0.33718 0.92459 0.13341 0.0
C1240 C 0.38107 0.91212 0.15987 0.0
C1241 C 0.34352 0.93464 0.15647 0.0
C1242 C 0.34566 0.82508 0.10016 0.0
C1243 C 0.36191 0.79369 0.07631 0.0
N1244 N 0.3653 0.78215 0.09826 0.0
C1245 C 0.34912 0.81286 0.12247 0.0
C1246 C 0.35198 0.8154 0.0769 0.0
C1247 C 0.35916 0.79121 0.12111 0.0
C1248 C 0.29214 0.88481 0.15827 0.0
N1249 N 0.31379 0.87543 0.14832 0.0
C1250 C 0.32985 0.86712 0.18969 0.0
C1251 C 0.3324 0.86654 0.1634 0.0
C1252 C 0.30789 0.87686 0.20046 0.0
C1253 C 0.28877 0.8857 0.18456 0.0
H1254 H 0.2777 0.89183 0.14585 0.0
H1255 H 0.34952 0.85943 0.15495 0.0
C1256 C 0.40693 0.87971 0.067 0.0
N1257 N 0.39372 0.86551 0.08237 0.0
C1258 C 0.43381 0.87887 0.06597 0.0
C1259 C 0.43298 0.84875 0.09655 0.0
C1260 C 0.40612 0.85024 0.09709 0.0
C1261 C 0.447 0.86331 0.08098 0.0
H1262 H 0.39655 0.89191 0.05584 0.0
H1263 H 0.39528 0.83959 0.10971 0.0
C1264 C 0.27064 0.89053 0.0816 0.0
N1265 N 0.22822 0.91516 0.06671 0.0
C1266 C 0.25448 0.88254 0.06244 0.0
C1267 C 0.26511 0.91092 0.09337 0.0
C1268 C 0.23314 0.89527 0.05515 0.0
C1269 C 0.24362 0.92316 0.0855 0.0
C1270 C 0.34544 0.86993 0.02742 0.0
C1271 C 0.33249 0.88057 0.00757 0.0
C1272 C 0.36591 0.85549 0.02195 0.0
C1273 C 0.33989 0.87628 0.9826 0.0
C1274 C 0.37276 0.85166 0.99673 0.0
N1275 N 0.35971 0.86202 0.97774 0.0
C1276 C 0.33017 0.94194 0.0647 0.0
C1277 C 0.29655 0.92688 0.03949 0.0
C1278 C 0.32806 0.96255 0.05244 0.0
N1279 N 0.31463 0.92458 0.058 0.0
C1280 C 0.29381 0.9472 0.02668 0.0
C1281 C 0.3099 0.96517 0.03303 0.0
H1282 H 0.34466 0.93962 0.07917 0.0
H1283 H 0.28469 0.9128 0.03416 0.0
C1284 C 0.28755 0.8143 0.06885 0.0
N1285 N 0.29623 0.83173 0.05462 0.0
C1286 C 0.27597 0.79582 0.05726 0.0
C1287 C 0.28182 0.81379 0.01665 0.0
C1288 C 0.29322 0.83193 0.02902 0.0
C1289 C 0.27329 0.79544 0.03086 0.0
H1290 H 0.29003 0.81461 0.08919 0.0
H1291 H 0.29974 0.84608 0.01813 0.0
O1292 O 0.34706 0.89755 0.10134 0.0
O1293 O 0.33585 0.8463 0.10121 0.0
O1294 O 0.29166 0.87836 0.08891 0.0
O1295 O 0.33863 0.87418 0.05203 0.0
H1296 H 0.38797 0.88874 0.12959 0.0
H1297 H 0.31996 0.92962 0.12336 0.0
H1298 H 0.3981 0.90738 0.1704 0.0
H1299 H 0.33123 0.94749 0.16435 0.0
H1300 H 0.36682 0.78599 0.05841 0.0
H1301 H 0.34412 0.82001 0.14064 0.0
H1302 H 0.34889 0.8244 0.05946 0.0
H1303 H 0.36203 0.78159 0.13823 0.0
H1304 H 0.34497 0.86027 0.20152 0.0
H1305 H 0.27165 0.8934 0.19244 0.0
H1306 H 0.44424 0.89041 0.05392 0.0
H1307 H 0.44277 0.83675 0.10853 0.0
H1308 H 0.25843 0.86675 0.05322 0.0
H1309 H 0.27742 0.91733 0.10822 0.0
H1310 H 0.22052 0.88935 0.04027 0.0
H1311 H 0.2392 0.93905 0.0943 0.0
H1312 H 0.31666 0.89179 0.01134 0.0
H1313 H 0.37659 0.84742 0.03695 0.0
H1314 H 0.32988 0.88429 0.96709 0.0
H1315 H 0.38853 0.84049 0.99227 0.0
H1316 H 0.34083 0.97614 0.0576 0.0
H1317 H 0.27971 0.94876 0.01166 0.0
H1318 H 0.26947 0.78188 0.06869 0.0
H1319 H 0.27982 0.81398 0.99623 0.0
Li1320 Li 0.6442 0.14205 0.58304 0.0
Li1321 Li 0.68047 0.13764 0.61218 0.0
Li1322 Li 0.68712 0.15711 0.57062 0.0
Li1323 Li 0.6816 0.11612 0.57301 0.0
C1324 C 0.65176 0.1858 0.59965 0.0
N1325 N 0.6253 0.22588 0.59915 0.0
C1326 C 0.64455 0.19597 0.62241 0.0
C1327 C 0.64566 0.19606 0.57666 0.0
C1328 C 0.63112 0.21621 0.62176 0.0
C1329 C 0.63226 0.21632 0.57679 0.0
C1330 C 0.65231 0.10119 0.62119 0.0
C1331 C 0.66777 0.07252 0.64945 0.0
N1332 N 0.64635 0.07518 0.664 0.0
C1333 C 0.63032 0.1035 0.63625 0.0
C1334 C 0.67109 0.08546 0.62766 0.0
C1335 C 0.6277 0.09024 0.65788 0.0
C1336 C 0.5949 0.1365 0.56129 0.0
N1337 N 0.60785 0.1453 0.58134 0.0
C1338 C 0.56833 0.15638 0.60094 0.0
C1339 C 0.5952 0.15505 0.60103 0.0
C1340 C 0.55455 0.14738 0.58052 0.0
C1341 C 0.568 0.13743 0.56044 0.0
H1342 H 0.60544 0.12837 0.5462 0.0
H1343 H 0.60594 0.16132 0.61707 0.0
C1344 C 0.71056 0.13253 0.65766 0.0
N1345 N 0.68715 0.13773 0.64765 0.0
C1346 C 0.71391 0.13202 0.68396 0.0
C1347 C 0.6691 0.1423 0.68897 0.0
C1348 C 0.66669 0.14284 0.66268 0.0
C1349 C 0.69289 0.13677 0.6998 0.0
H1350 H 0.72655 0.1287 0.64528 0.0
H1351 H 0.64836 0.14703 0.65416 0.0
C1352 C 0.66041 0.14118 0.52549 0.0
N1353 N 0.65463 0.14796 0.47403 0.0
C1354 C 0.67561 0.12927 0.50828 0.0
C1355 C 0.64206 0.15635 0.51651 0.0
C1356 C 0.67245 0.13298 0.48234 0.0
C1357 C 0.6395 0.1596 0.49043 0.0
C1358 C 0.73281 0.12502 0.58226 0.0
C1359 C 0.74791 0.13342 0.56249 0.0
C1360 C 0.74145 0.10658 0.59614 0.0
C1361 C 0.77134 0.12306 0.55677 0.0
C1362 C 0.76497 0.09667 0.58979 0.0
N1363 N 0.77929 0.10503 0.5704 0.0
C1364 C 0.71152 0.19929 0.56851 0.0
C1365 C 0.70803 0.18163 0.52847 0.0
C1366 C 0.72302 0.21805 0.55742 0.0
N1367 N 0.70405 0.18165 0.55395 0.0
C1368 C 0.71919 0.2001 0.51657 0.0
C1369 C 0.72666 0.21859 0.53111 0.0
H1370 H 0.70831 0.19886 0.58875 0.0
H1371 H 0.70264 0.16733 0.51727 0.0
C1372 C 0.66829 0.07308 0.55856 0.0
N1373 N 0.68825 0.0878 0.55733 0.0
C1374 C 0.66978 0.05244 0.5463 0.0
C1375 C 0.71258 0.0622 0.53194 0.0
C1376 C 0.71016 0.08278 0.5443 0.0
C1377 C 0.69207 0.04693 0.53268 0.0
H1378 H 0.65092 0.0776 0.56867 0.0
H1379 H 0.72545 0.0949 0.54274 0.0
O1380 O 0.66461 0.16583 0.59997 0.0
O1381 O 0.65558 0.11444 0.60035 0.0
O1382 O 0.66318 0.13769 0.55095 0.0
O1383 O 0.70993 0.13506 0.58825 0.0
H1384 H 0.64919 0.18827 0.64038 0.0
H1385 H 0.6513 0.18852 0.55892 0.0
H1386 H 0.62532 0.22424 0.63922 0.0
H1387 H 0.62741 0.22445 0.55912 0.0
H1388 H 0.68224 0.06038 0.6548 0.0
H1389 H 0.61558 0.11558 0.63143 0.0
H1390 H 0.68808 0.08334 0.61603 0.0
H1391 H 0.61089 0.09196 0.66984 0.0
H1392 H 0.55836 0.16394 0.6168 0.0
H1393 H 0.55777 0.13018 0.54454 0.0
H1394 H 0.73254 0.12777 0.69188 0.0
H1395 H 0.65258 0.14612 0.70077 0.0
H1396 H 0.68993 0.11752 0.51485 0.0
H1397 H 0.62982 0.16545 0.5295 0.0
H1398 H 0.6842 0.12398 0.46882 0.0
H1399 H 0.62543 0.17133 0.48323 0.0
H1400 H 0.74158 0.14773 0.55162 0.0
H1401 H 0.73009 0.09994 0.61157 0.0
H1402 H 0.78317 0.12932 0.54146 0.0
H1403 H 0.77184 0.08232 0.60029 0.0
H1404 H 0.7287 0.2321 0.56912 0.0
H1405 H 0.72199 0.19999 0.49624 0.0
H1406 H 0.65359 0.04101 0.5471 0.0
H1407 H 0.72996 0.05844 0.52139 0.0
C1408 C 0.01709 0.35866 0.05801 0.0
C1409 C 0.03056 0.36469 0.08038 0.0
C1410 C 0.9897 0.36904 0.1032 0.0
C1411 C 0.97621 0.36478 0.08032 0.0
N1412 N 0.97637 0.35793 0.03534 0.0
N1413 N 0.03038 0.37816 0.12343 0.0
C1414 C 0.98972 0.36019 0.05754 0.0
C1415 C 0.01705 0.37054 0.10279 0.0
N1416 N 0.03049 0.35104 0.03743 0.0
N1417 N 0.97633 0.37117 0.12541 0.0
H1418 H 0.05046 0.37897 0.12406 0.0
H1419 H 0.02162 0.38515 0.1393 0.0
H1420 H 0.95624 0.37065 0.12636 0.0
H1421 H 0.98504 0.37181 0.14315 0.0
H1422 H 0.02181 0.34408 0.0215 0.0
H1423 H 0.05058 0.35017 0.03695 0.0
H1424 H 0.9851 0.35708 0.01762 0.0
H1425 H 0.95629 0.35841 0.03439 0.0
C1426 C 0.98757 0.66795 0.58578 0.0
C1427 C 0.97376 0.64878 0.57757 0.0
C1428 C 0.01428 0.62992 0.56683 0.0
C1429 C 0.02811 0.64826 0.57714 0.0
N1430 N 0.02862 0.68376 0.59878 0.0
N1431 N 0.9734 0.61049 0.56318 0.0
C1432 C 0.01495 0.66707 0.58721 0.0
C1433 C 0.98696 0.62949 0.56879 0.0
N1434 N 0.97447 0.68711 0.59167 0.0
N1435 N 0.0273 0.61312 0.55475 0.0
H1436 H 0.95333 0.60961 0.56397 0.0
H1437 H 0.982 0.5951 0.55952 0.0
H1438 H 0.04736 0.61265 0.55339 0.0
H1439 H 0.01828 0.60055 0.54438 0.0
H1440 H 0.98341 0.70238 0.59522 0.0
H1441 H 0.9544 0.68821 0.59117 0.0
H1442 H 0.02015 0.69668 0.60904 0.0
H1443 H 0.04872 0.68395 0.59957 0.0
C1444 C 0.98681 0.66614 0.92183 0.0
C1445 C 0.9737 0.64826 0.93394 0.0
C1446 C 0.01493 0.63262 0.94803 0.0
C1447 C 0.02807 0.64907 0.93361 0.0
N1448 N 0.02698 0.67989 0.90417 0.0
N1449 N 0.97498 0.61267 0.95545 0.0
C1450 C 0.01415 0.66547 0.91984 0.0
C1451 C 0.98767 0.63102 0.94628 0.0
N1452 N 0.97316 0.684 0.9128 0.0
N1453 N 0.0285 0.61887 0.96386 0.0
H1454 H 0.955 0.61083 0.95454 0.0
H1455 H 0.98436 0.59842 0.96206 0.0
H1456 H 0.04852 0.61956 0.96563 0.0
H1457 H 0.01981 0.60816 0.97687 0.0
H1458 H 0.98174 0.69861 0.90617 0.0
H1459 H 0.95311 0.68502 0.9139 0.0
H1460 H 0.01775 0.69054 0.89149 0.0
H1461 H 0.04701 0.68006 0.90242 0.0
C1462 C 0.01273 0.37732 0.41249 0.0
C1463 C 0.02635 0.36428 0.43053 0.0
C1464 C 0.98557 0.35036 0.44809 0.0
C1465 C 0.97197 0.36442 0.43105 0.0
N1466 N 0.97184 0.39281 0.39862 0.0
N1467 N 0.0266 0.34009 0.46701 0.0
C1468 C 0.98536 0.37833 0.41366 0.0
C1469 C 0.013 0.35124 0.44876 0.0
N1470 N 0.02603 0.38836 0.39391 0.0
N1471 N 0.9722 0.33591 0.4633 0.0
H1472 H 0.0467 0.33972 0.46752 0.0
H1473 H 0.01818 0.33229 0.48256 0.0
H1474 H 0.95211 0.33544 0.46401 0.0
H1475 H 0.9808 0.32343 0.47411 0.0
H1476 H 0.01735 0.39603 0.37843 0.0
H1477 H 0.04612 0.38877 0.39303 0.0
H1478 H 0.98035 0.4053 0.38773 0.0
H1479 H 0.95175 0.39329 0.39804 0.0
C1480 C 0.48902 0.84827 0.06468 0.0
C1481 C 0.47558 0.86292 0.08119 0.0
C1482 C 0.5165 0.87837 0.09654 0.0
C1483 C 0.52995 0.86273 0.08124 0.0
N1484 N 0.5297 0.83086 0.0533 0.0
N1485 N 0.47586 0.88975 0.1153 0.0
C1486 C 0.51639 0.84711 0.066 0.0
C1487 C 0.48915 0.87737 0.09785 0.0
N1488 N 0.47559 0.83588 0.04734 0.0
N1489 N 0.52988 0.89461 0.10923 0.0
H1490 H 0.45578 0.88989 0.11641 0.0
H1491 H 0.48465 0.89864 0.12989 0.0
H1492 H 0.54996 0.8956 0.10918 0.0
H1493 H 0.52117 0.90807 0.11834 0.0
H1494 H 0.48427 0.82676 0.03287 0.0
H1495 H 0.45551 0.83589 0.04629 0.0
H1496 H 0.52094 0.81748 0.04407 0.0
H1497 H 0.54977 0.82979 0.05348 0.0
C1498 C 0.51228 0.12816 0.5882 0.0
C1499 C 0.52595 0.14761 0.58063 0.0
C1500 C 0.48523 0.16794 0.57537 0.0
C1501 C 0.47157 0.14801 0.58112 0.0
N1502 N 0.47147 0.10836 0.58947 0.0
N1503 N 0.526 0.18506 0.56376 0.0
C1504 C 0.48493 0.12787 0.58655 0.0
C1505 C 0.51257 0.16727 0.57331 0.0
N1506 N 0.52546 0.1102 0.5977 0.0
N1507 N 0.47206 0.18759 0.5725 0.0
H1508 H 0.54606 0.18527 0.56233 0.0
H1509 H 0.51729 0.19895 0.55551 0.0
H1510 H 0.452 0.18861 0.57339 0.0
H1511 H 0.48097 0.20314 0.57108 0.0
H1512 H 0.51654 0.09652 0.60619 0.0
H1513 H 0.54552 0.10967 0.5989 0.0
H1514 H 0.48015 0.0927 0.59059 0.0
H1515 H 0.45138 0.10755 0.58886 0.0
C1516 C 0.5181 0.16476 0.94747 0.0
C1517 C 0.53177 0.14831 0.93351 0.0
C1518 C 0.49109 0.13285 0.9176 0.0
C1519 C 0.4774 0.14815 0.93313 0.0
N1520 N 0.47724 0.1767 0.96536 0.0
N1521 N 0.53172 0.11451 0.90852 0.0
C1522 C 0.49073 0.16357 0.9488 0.0
C1523 C 0.51839 0.13175 0.91941 0.0
N1524 N 0.53125 0.18188 0.9588 0.0
N1525 N 0.478 0.11972 0.90072 0.0
H1526 H 0.55175 0.11312 0.90938 0.0
H1527 H 0.5229 0.1006 0.90041 0.0
H1528 H 0.45794 0.11968 0.89924 0.0
H1529 H 0.48701 0.11012 0.88685 0.0
H1530 H 0.52232 0.19571 0.96696 0.0
H1531 H 0.5513 0.18319 0.95836 0.0
H1532 H 0.4859 0.18646 0.9793 0.0
H1533 H 0.45715 0.17662 0.96642 0.0
C1534 C 0.48523 0.86196 0.40965 0.0
C1535 C 0.4712 0.86287 0.4327 0.0
C1536 C 0.51162 0.86496 0.45671 0.0
C1537 C 0.52558 0.86254 0.43376 0.0
N1538 N 0.52606 0.8544 0.38903 0.0
N1539 N 0.47055 0.86131 0.47833 0.0
C1540 C 0.51247 0.85972 0.4104 0.0
C1541 C 0.48427 0.86321 0.45632 0.0
N1542 N 0.4726 0.86412 0.38704 0.0
N1543 N 0.52444 0.8697 0.4787 0.0
H1544 H 0.45049 0.86005 0.47875 0.0
H1545 H 0.47907 0.85911 0.49601 0.0
H1546 H 0.54448 0.87087 0.47976 0.0
H1547 H 0.51521 0.87414 0.49547 0.0
H1548 H 0.48203 0.86613 0.36977 0.0
H1549 H 0.45264 0.86581 0.38565 0.0
H1550 H 0.51738 0.84978 0.37202 0.0
H1551 H 0.54607 0.85263 0.38884 0.0
C1552 C 0.18101 0.39294 0.24089 0.0
C1553 C 0.19717 0.37774 0.22767 0.0
C1554 C 0.21162 0.36156 0.26792 0.0
C1555 C 0.19649 0.37753 0.28114 0.0
N1556 N 0.17076 0.41108 0.28073 0.0
N1557 N 0.23129 0.35041 0.22816 0.0
C1558 C 0.1824 0.39406 0.26774 0.0
C1559 C 0.21355 0.3629 0.24108 0.0
N1560 N 0.16357 0.40563 0.22784 0.0
N1561 N 0.22331 0.34459 0.28094 0.0
H1562 H 0.23311 0.35092 0.20848 0.0
H1563 H 0.2456 0.34101 0.23696 0.0
H1564 H 0.22263 0.34323 0.30063 0.0
H1565 H 0.2321 0.33097 0.27221 0.0
H1566 H 0.14922 0.41509 0.23653 0.0
H1567 H 0.16211 0.40541 0.20815 0.0
H1568 H 0.16243 0.42491 0.27198 0.0
H1569 H 0.17141 0.41241 0.30042 0.0
C1570 C 0.78858 0.62259 0.74215 0.0
C1571 C 0.8066 0.63608 0.72888 0.0
C1572 C 0.82529 0.6489 0.76906 0.0
C1573 C 0.80672 0.63598 0.78235 0.0
N1574 N 0.76873 0.6128 0.78236 0.0
N1575 N 0.83994 0.6642 0.72895 0.0
C1576 C 0.78773 0.62351 0.7691 0.0
C1577 C 0.8243 0.6499 0.74215 0.0
N1578 N 0.77276 0.60848 0.72892 0.0
N1579 N 0.84429 0.65974 0.78223 0.0
H1580 H 0.84051 0.66478 0.70922 0.0
H1581 H 0.85119 0.67654 0.73737 0.0
H1582 H 0.84496 0.6603 0.80197 0.0
H1583 H 0.86026 0.66718 0.77379 0.0
H1584 H 0.76124 0.59631 0.73731 0.0
H1585 H 0.77215 0.60804 0.70917 0.0
H1586 H 0.75272 0.60537 0.77399 0.0
H1587 H 0.76802 0.61256 0.8021 0.0
C1588 C 0.18507 0.65616 0.76751 0.0
C1589 C 0.19591 0.63794 0.78103 0.0
C1590 C 0.20962 0.62067 0.74107 0.0
C1591 C 0.1963 0.63762 0.72756 0.0
N1592 N 0.16867 0.67007 0.72752 0.0
N1593 N 0.21619 0.60166 0.78116 0.0
C1594 C 0.1834 0.65507 0.74066 0.0
C1595 C 0.2077 0.6199 0.76795 0.0
N1596 N 0.17677 0.67466 0.78038 0.0
N1597 N 0.22444 0.60558 0.72817 0.0
H1598 H 0.21555 0.60069 0.80088 0.0
H1599 H 0.22221 0.58687 0.77261 0.0
H1600 H 0.22608 0.60559 0.70847 0.0
H1601 H 0.23674 0.59423 0.73697 0.0
H1602 H 0.17121 0.68945 0.77154 0.0
H1603 H 0.17751 0.67595 0.80007 0.0
H1604 H 0.15637 0.68153 0.73615 0.0
H1605 H 0.16718 0.67003 0.70781 0.0
C1606 C 0.7903 0.36064 0.24159 0.0
C1607 C 0.80579 0.37619 0.22816 0.0
C1608 C 0.82234 0.3913 0.26817 0.0
C1609 C 0.80588 0.37652 0.28162 0.0
N1610 N 0.77108 0.34982 0.2817 0.0
N1611 N 0.83284 0.40897 0.22813 0.0
C1612 C 0.78889 0.36199 0.26847 0.0
C1613 C 0.82068 0.39236 0.24132 0.0
N1614 N 0.77765 0.34411 0.22868 0.0
N1615 N 0.84024 0.40371 0.281 0.0
H1616 H 0.83206 0.41018 0.20844 0.0
H1617 H 0.84181 0.4226 0.23668 0.0
H1618 H 0.84182 0.40359 0.30068 0.0
H1619 H 0.85478 0.41282 0.27216 0.0
H1620 H 0.76848 0.33071 0.23748 0.0
H1621 H 0.7778 0.3429 0.20897 0.0
H1622 H 0.75637 0.34069 0.27317 0.0
H1623 H 0.76971 0.35027 0.30141 0.0
C1624 C 0.70398 0.85591 0.2682 0.0
C1625 C 0.69635 0.87544 0.28154 0.0
C1626 C 0.68893 0.89499 0.24137 0.0
C1627 C 0.69789 0.87587 0.22807 0.0
N1628 N 0.71881 0.83989 0.22858 0.0
N1629 N 0.68662 0.91486 0.28136 0.0
C1630 C 0.70695 0.85686 0.24144 0.0
C1631 C 0.6904 0.89541 0.26825 0.0
N1632 N 0.70724 0.8362 0.28093 0.0
N1633 N 0.67796 0.91234 0.22839 0.0
H1634 H 0.68763 0.91578 0.30107 0.0
H1635 H 0.68481 0.93042 0.27269 0.0
H1636 H 0.67665 0.91274 0.2087 0.0
H1637 H 0.66835 0.92552 0.23716 0.0
H1638 H 0.70985 0.82087 0.27193 0.0
H1639 H 0.70534 0.83481 0.30053 0.0
H1640 H 0.72819 0.82665 0.23747 0.0
H1641 H 0.7213 0.84004 0.20896 0.0
C1642 C 0.29672 0.11858 0.77029 0.0
C1643 C 0.30449 0.13817 0.78339 0.0
C1644 C 0.30953 0.15807 0.74304 0.0
C1645 C 0.30434 0.13784 0.72993 0.0
N1646 N 0.29498 0.09836 0.73042 0.0
N1647 N 0.32053 0.17603 0.78283 0.0
C1648 C 0.29833 0.11796 0.74338 0.0
C1649 C 0.31135 0.15785 0.76993 0.0
N1650 N 0.28743 0.10071 0.78364 0.0
N1651 N 0.31241 0.17753 0.72972 0.0
H1652 H 0.32148 0.17672 0.80255 0.0
H1653 H 0.32876 0.1899 0.77409 0.0
H1654 H 0.31174 0.17821 0.70999 0.0
H1655 H 0.3135 0.19326 0.73812 0.0
H1656 H 0.27898 0.08676 0.77525 0.0
H1657 H 0.28633 0.10052 0.80337 0.0
H1658 H 0.29358 0.08279 0.7391 0.0
H1659 H 0.29518 0.09743 0.71069 0.0
C1660 C 0.70141 0.15546 0.76837 0.0
C1661 C 0.69609 0.13514 0.78126 0.0
C1662 C 0.69225 0.11534 0.74066 0.0
C1663 C 0.69552 0.136 0.7278 0.0
N1664 N 0.7016 0.17595 0.72864 0.0
N1665 N 0.68497 0.09601 0.78051 0.0
C1666 C 0.69981 0.15612 0.74146 0.0
C1667 C 0.69124 0.1151 0.76761 0.0
N1668 N 0.70824 0.17405 0.78193 0.0
N1669 N 0.69034 0.09594 0.72701 0.0
H1670 H 0.68522 0.09495 0.80023 0.0
H1671 H 0.67821 0.08149 0.77192 0.0
H1672 H 0.69002 0.09557 0.70726 0.0
H1673 H 0.69067 0.08005 0.73501 0.0
H1674 H 0.71509 0.18874 0.77381 0.0
H1675 H 0.70863 0.17443 0.80168 0.0
H1676 H 0.70158 0.19156 0.73734 0.0
H1677 H 0.70174 0.17696 0.70891 0.0
C1678 C 0.31981 0.89463 0.24184 0.0
C1679 C 0.30551 0.87821 0.22846 0.0
C1680 C 0.2885 0.86359 0.26854 0.0
C1681 C 0.30503 0.87835 0.28194 0.0
N1682 N 0.3387 0.90618 0.28174 0.0
N1683 N 0.27829 0.84551 0.22863 0.0
C1684 C 0.32123 0.89351 0.2687 0.0
C1685 C 0.29027 0.86232 0.24168 0.0
N1686 N 0.33164 0.91154 0.22883 0.0
N1687 N 0.27079 0.85112 0.28152 0.0
H1688 H 0.27877 0.84427 0.20892 0.0
H1689 H 0.26939 0.83192 0.23732 0.0
H1690 H 0.26912 0.85155 0.30122 0.0
H1691 H 0.25638 0.84177 0.27278 0.0
H1692 H 0.34015 0.92531 0.23754 0.0
H1693 H 0.33103 0.91282 0.20914 0.0
H1694 H 0.3531 0.91559 0.27307 0.0
H1695 H 0.3401 0.90602 0.30144 0.0
C1696 C 0.26886 0.26059 0.98201 0.0
C1697 C 0.26358 0.23868 0.99098 0.0
C1698 C 0.23462 0.25401 0.02338 0.0
C1699 C 0.24167 0.27596 0.01582 0.0
N1700 N 0.2679 0.3005 0.99036 0.0
N1701 N 0.24434 0.21433 0.02208 0.0
C1702 C 0.25945 0.27936 0.99576 0.0
C1703 C 0.2472 0.23532 0.01217 0.0
N1704 N 0.28229 0.26339 0.95994 0.0
N1705 N 0.21542 0.25106 0.04081 0.0
H1706 H 0.25294 0.20018 0.01417 0.0
H1707 H 0.23507 0.21109 0.03918 0.0
H1708 H 0.20603 0.26436 0.04965 0.0
H1709 H 0.20738 0.23556 0.04509 0.0
H1710 H 0.28445 0.27875 0.95091 0.0
H1711 H 0.2896 0.25002 0.94946 0.0
H1712 H 0.28298 0.30389 0.97792 0.0
H1713 H 0.26117 0.31467 0.99979 0.0
C1714 C 0.77567 0.74902 0.50133 0.0
C1715 C 0.76077 0.73692 0.51926 0.0
C1716 C 0.72305 0.75995 0.50904 0.0
C1717 C 0.73868 0.77355 0.49321 0.0
N1718 N 0.78087 0.78336 0.4775 0.0
N1719 N 0.72153 0.73313 0.54342 0.0
C1720 C 0.7653 0.76872 0.49021 0.0
C1721 C 0.73477 0.743 0.52402 0.0
N1722 N 0.79942 0.74128 0.49431 0.0
N1723 N 0.69689 0.76273 0.50915 0.0
H1724 H 0.72948 0.72074 0.55491 0.0
H1725 H 0.70351 0.73859 0.54955 0.0
H1726 H 0.68753 0.7748 0.49824 0.0
H1727 H 0.68428 0.75179 0.51821 0.0
H1728 H 0.80999 0.74802 0.47938 0.0
H1729 H 0.80759 0.72681 0.50186 0.0
H1730 H 0.80088 0.78197 0.47706 0.0
H1731 H 0.77404 0.79806 0.46924 0.0
C1732 C 0.27838 0.75882 0.0081 0.0
C1733 C 0.26191 0.77567 0.01796 0.0
C1734 C 0.22393 0.7544 1.00424 0.0
C1735 C 0.24042 0.73845 0.99264 0.0
N1736 N 0.28306 0.72658 0.98052 0.0
N1737 N 0.2194 0.7913 0.02293 0.0
C1738 C 0.2676 0.74095 0.99377 0.0
C1739 C 0.23476 0.77395 0.01536 0.0
N1740 N 0.30426 0.75967 0.01298 0.0
N1741 N 0.19796 0.75052 1.0052 0.0
H1742 H 0.2266 0.80565 0.03167 0.0
H1743 H 0.19977 0.79226 0.01897 0.0
H1744 H 0.18928 0.73658 0.9969 0.0
H1745 H 0.18517 0.76015 0.01578 0.0
H1746 H 0.31696 0.74671 0.0088 0.0
H1747 H 0.3129 0.77273 0.02299 0.0
H1748 H 0.30281 0.7289 0.97818 0.0
H1749 H 0.27586 0.71306 0.9702 0.0
C1750 C 0.72224 0.25727 0.51304 0.0
C1751 C 0.73812 0.23856 0.51864 0.0
C1752 C 0.7756 0.25765 0.50007 0.0
C1753 C 0.75945 0.27592 0.49341 0.0
N1754 N 0.71739 0.29294 0.49147 0.0
N1755 N 0.7791 0.2197 0.51627 0.0
C1756 C 0.73275 0.27568 0.49936 0.0
C1757 C 0.76462 0.23844 0.51186 0.0
N1758 N 0.69718 0.25749 0.52117 0.0
N1759 N 0.80151 0.25884 0.49533 0.0
H1760 H 0.77209 0.20579 0.526 0.0
H1761 H 0.79764 0.21729 0.50931 0.0
H1762 H 0.81003 0.27201 0.48544 0.0
H1763 H 0.81495 0.24745 0.50218 0.0
H1764 H 0.68524 0.27144 0.52036 0.0
H1765 H 0.68847 0.24392 0.53016 0.0
H1766 H 0.69736 0.29279 0.49241 0.0
H1767 H 0.72459 0.30723 0.48262 0.0
C1768 C 0.73622 0.77218 0.99131 0.0
C1769 C 0.74135 0.77525 0.01749 0.0
C1770 C 0.76981 0.74248 0.01729 0.0
C1771 C 0.7629 0.73829 0.99171 0.0
N1772 N 0.7368 0.74702 0.95525 0.0
N1773 N 0.75986 0.7618 0.05651 0.0
C1774 C 0.74535 0.75258 0.97893 0.0
C1775 C 0.75731 0.75998 0.03081 0.0
N1776 N 0.72322 0.78833 0.97815 0.0
N1777 N 0.78888 0.73014 0.02843 0.0
H1778 H 0.75121 0.77453 0.06703 0.0
H1779 H 0.76882 0.74976 0.0677 0.0
H1780 H 0.79833 0.7171 0.01917 0.0
H1781 H 0.79681 0.73392 0.04603 0.0
H1782 H 0.72127 0.78828 0.95853 0.0
H1783 H 0.71613 0.80284 0.98663 0.0
H1784 H 0.72188 0.75535 0.94605 0.0
H1785 H 0.74322 0.7329 0.94551 0.0
C1786 C 0.27368 0.24856 0.50041 0.0
C1787 C 0.25891 0.23791 0.51958 0.0
C1788 C 0.22259 0.26297 0.5106 0.0
C1789 C 0.2383 0.27506 0.49334 0.0
N1790 N 0.28002 0.28165 0.47461 0.0
N1791 N 0.22086 0.23699 0.54581 0.0
C1792 C 0.2642 0.26847 0.48898 0.0
C1793 C 0.23375 0.24565 0.52546 0.0
N1794 N 0.29642 0.23927 0.4926 0.0
N1795 N 0.19683 0.26758 0.51222 0.0
H1796 H 0.22837 0.22428 0.55715 0.0
H1797 H 0.20371 0.24366 0.55276 0.0
H1798 H 0.18792 0.28008 0.50159 0.0
H1799 H 0.18387 0.25777 0.5224 0.0
H1800 H 0.30669 0.2449 0.4769 0.0
H1801 H 0.30394 0.22463 0.50042 0.0
H1802 H 0.29981 0.27905 0.47304 0.0
H1803 H 0.27381 0.29637 0.46596 0.0
C1804 C 0.77457 0.25064 0.02747 0.0
C1805 C 0.77432 0.27166 0.01494 0.0
C1806 C 0.76642 0.25239 0.97483 0.0
C1807 C 0.76 0.23257 0.9882 0.0
N1808 N 0.77928 0.21082 0.02152 0.0
N1809 N 0.76917 0.29263 0.97613 0.0
C1810 C 0.7699 0.23083 0.01322 0.0
C1811 C 0.77006 0.27256 0.98843 0.0
N1812 N 0.77946 0.24945 0.05285 0.0
N1813 N 0.77372 0.25117 0.95006 0.0
H1814 H 0.77148 0.30792 0.9854 0.0
H1815 H 0.7639 0.29397 0.95712 0.0
H1816 H 0.77634 0.23579 0.94104 0.0
H1817 H 0.78082 0.26487 0.94002 0.0
H1818 H 0.77704 0.23479 0.06326 0.0
H1819 H 0.78432 0.26336 0.06376 0.0
H1820 H 0.7889 0.20883 0.03869 0.0
H1821 H 0.78085 0.19708 0.0094 0.0
C1822 C 0.25269 0.73616 0.4964 0.0
C1823 C 0.23654 0.73942 0.51778 0.0
C1824 C 0.2406 0.78012 0.51316 0.0
C1825 C 0.25835 0.77683 0.49306 0.0
N1826 N 0.28437 0.75199 0.46774 0.0
N1827 N 0.2179 0.76402 0.54898 0.0
C1828 C 0.26525 0.7549 0.48526 0.0
C1829 C 0.23125 0.76129 0.52686 0.0
N1830 N 0.2554 0.71522 0.4863 0.0
N1831 N 0.23211 0.80123 0.51866 0.0
H1832 H 0.21051 0.75064 0.55937 0.0
H1833 H 0.21584 0.77935 0.55811 0.0
H1834 H 0.23874 0.81543 0.50921 0.0
H1835 H 0.21707 0.80456 0.53116 0.0
H1836 H 0.26452 0.71207 0.4691 0.0
H1837 H 0.24679 0.70105 0.49414 0.0
H1838 H 0.29232 0.73649 0.46328 0.0
H1839 H 0.2938 0.76531 0.45899 0.0
C1840 C 0.17821 0.5117 0.98593 0.0
C1841 C 0.19777 0.52771 0.99097 0.0
C1842 C 0.21634 0.50306 0.02333 0.0
C1843 C 0.19773 0.48653 0.01714 0.0
N1844 N 0.16414 0.47315 0.98942 0.0
N1845 N 0.23794 0.53743 0.01107 0.0
C1846 C 0.17962 0.49027 0.99746 0.0
C1847 C 0.21761 0.52302 0.00868 0.0
N1848 N 0.1577 0.5173 0.97094 0.0
N1849 N 0.23214 0.50003 0.04376 0.0
H1850 H 0.23939 0.55223 1.0007 0.0
H1851 H 0.25435 0.53389 0.02168 0.0
H1852 H 0.23196 0.48553 0.05474 0.0
H1853 H 0.24409 0.51249 0.051 0.0
H1854 H 0.14139 0.50731 0.96888 0.0
H1855 H 0.15595 0.53282 0.96211 0.0
H1856 H 0.1525 0.47413 0.97339 0.0
H1857 H 0.16458 0.45721 0.99745 0.0
C1858 C 0.81538 0.5081 0.52967 0.0
C1859 C 0.80385 0.52726 0.5186 0.0
C1860 C 0.7892 0.50473 0.48249 0.0
C1861 C 0.80295 0.48615 0.49232 0.0
N1862 N 0.83108 0.4702 0.52387 0.0
N1863 N 0.78159 0.54479 0.48381 0.0
C1864 C 0.81647 0.48781 0.51563 0.0
C1865 C 0.7911 0.52582 0.49486 0.0
N1866 N 0.82495 0.50928 0.55377 0.0
N1867 N 0.77405 0.50204 0.46151 0.0
H1868 H 0.78193 0.56039 0.49267 0.0
H1869 H 0.77479 0.54545 0.46528 0.0
H1870 H 0.77261 0.48691 0.45175 0.0
H1871 H 0.76143 0.51421 0.45481 0.0
H1872 H 0.83119 0.49543 0.56401 0.0
H1873 H 0.82483 0.52398 0.56442 0.0
H1874 H 0.84385 0.47117 0.53903 0.0
H1875 H 0.83177 0.45484 0.51451 0.0
C1876 C 0.82491 0.48816 0.99831 0.0
C1877 C 0.80751 0.48459 0.01867 0.0
C1878 C 0.7906 0.52269 0.01389 0.0
C1879 C 0.80725 0.52593 0.99288 0.0
N1880 N 0.83761 0.51121 0.9626 0.0
N1881 N 0.77143 0.49671 0.04388 0.0
C1882 C 0.8236 0.50845 0.98432 0.0
C1883 C 0.78962 0.50137 0.02588 0.0
N1884 N 0.84322 0.4724 0.9929 0.0
N1885 N 0.77619 0.54019 0.02272 0.0
H1886 H 0.77057 0.48144 0.05342 0.0
H1887 H 0.75609 0.50725 0.0482 0.0
H1888 H 0.77564 0.55575 0.0138 0.0
H1889 H 0.76593 0.53983 0.03965 0.0
H1890 H 0.8584 0.47495 0.98035 0.0
H1891 H 0.8443 0.45706 1.00225 0.0
H1892 H 0.84768 0.49837 0.95369 0.0
H1893 H 0.83774 0.52608 0.95231 0.0
C1894 C 0.20971 0.50456 0.47939 0.0
C1895 C 0.19547 0.48642 0.4896 0.0
C1896 C 0.18374 0.50914 0.52655 0.0
C1897 C 0.19591 0.52787 0.51518 0.0
N1898 N 0.21856 0.54446 0.48004 0.0
N1899 N 0.16655 0.47168 0.52125 0.0
C1900 C 0.20845 0.52586 0.4914 0.0
C1901 C 0.18191 0.48873 0.51282 0.0
N1902 N 0.22484 0.50124 0.45851 0.0
N1903 N 0.17429 0.5108 0.55066 0.0
H1904 H 0.1651 0.45631 0.51201 0.0
H1905 H 0.15381 0.47321 0.53638 0.0
H1906 H 0.17488 0.52559 0.5611 0.0
H1907 H 0.16771 0.49719 0.56112 0.0
H1908 H 0.23779 0.51305 0.4516 0.0
H1909 H 0.22591 0.48593 0.44908 0.0
H1910 H 0.2253 0.54473 0.46147 0.0
H1911 H 0.21878 0.56015 0.48868 0.0
C1912 C 0.67932 0.0102 0.98484 0.0
C1913 C 0.69968 0.02562 0.98914 0.0
C1914 C 0.71864 1.00024 0.02055 0.0
C1915 C 0.69923 0.98424 0.01497 0.0
N1916 N 0.66433 0.97193 0.98818 0.0
N1917 N 0.7412 0.03386 0.00738 0.0
C1918 C 0.68054 0.98861 0.99598 0.0
C1919 C 0.72012 0.02018 0.0059 0.0
N1920 N 0.65827 0.01651 0.97098 0.0
N1921 N 0.735 0.9968 0.04047 0.0
H1922 H 0.74289 0.04859 0.99692 0.0
H1923 H 0.7579 0.02969 0.01725 0.0
H1924 H 0.73457 0.98237 0.05156 0.0
H1925 H 0.74763 0.00894 0.04726 0.0
H1926 H 0.64156 0.00694 0.96962 0.0
H1927 H 0.65655 0.03221 0.96256 0.0
H1928 H 0.65213 0.97341 0.9726 0.0
H1929 H 0.66475 0.95584 0.9958 0.0
C1930 C 0.28426 1.00177 0.4907 0.0
C1931 C 0.30623 0.98768 0.49223 0.0
C1932 C 0.32845 0.01571 0.51817 0.0
C1933 C 0.30564 0.02882 0.51867 0.0
N1934 N 0.26035 0.03254 0.50923 0.0
N1935 N 0.34715 0.97905 0.51168 0.0
C1936 C 0.28308 0.02134 0.50601 0.0
C1937 C 0.32774 0.99402 0.50722 0.0
N1938 N 0.26494 0.9969 0.47398 0.0
N1939 N 0.35107 0.02429 0.52727 0.0
H1940 H 0.34717 0.96285 0.50434 0.0
H1941 H 0.36196 0.98195 0.5246 0.0
H1942 H 0.35258 0.04028 0.53504 0.0
H1943 H 0.36883 0.01642 0.52492 0.0
H1944 H 0.24981 0.00781 0.47004 0.0
H1945 H 0.26516 0.98279 0.46236 0.0
H1946 H 0.24271 0.02657 0.50267 0.0
H1947 H 0.25871 0.04685 0.52043 0.0
C1948 C 0.32237 0.98849 0.99546 0.0
C1949 C 0.30865 0.98646 0.01862 0.0
C1950 C 0.29597 0.02595 0.0163 0.0
C1951 C 0.30873 0.02769 0.99261 0.0
N1952 N 0.33056 0.01025 0.95749 0.0
N1953 N 0.27912 1.00171 0.04931 0.0
C1954 C 0.32085 0.0088 0.98152 0.0
C1955 C 0.29445 1.00476 0.02852 0.0
N1956 N 0.33758 0.97125 0.98728 0.0
N1957 N 0.28601 0.0447 0.02746 0.0
H1958 H 0.27788 0.9865 0.05892 0.0
H1959 H 0.26618 0.01364 0.05597 0.0
H1960 H 0.28606 0.06035 0.01871 0.0
H1961 H 0.27915 0.04515 0.04597 0.0
H1962 H 0.35041 0.97254 0.9722 0.0
H1963 H 0.33877 0.95594 0.99668 0.0
H1964 H 0.33716 0.99655 0.94721 0.0
H1965 H 0.33021 0.02499 0.94692 0.0
C1966 C 0.69479 1.00498 0.53227 0.0
C1967 C 0.69347 0.0254 0.51864 0.0
C1968 C 0.69478 1.00469 0.47856 0.0
C1969 C 0.69292 0.9843 0.49219 0.0
N1970 N 0.68703 0.96504 0.53196 0.0
N1971 N 0.68803 0.04477 0.47887 0.0
C1972 C 0.6919 0.98442 0.51907 0.0
C1973 C 0.69242 0.02531 0.49177 0.0
N1974 N 0.69943 1.00524 0.55776 0.0
N1975 N 0.69937 1.00433 0.45307 0.0
H1976 H 0.6859 0.06022 0.48781 0.0
H1977 H 0.68423 0.04534 0.45951 0.0
H1978 H 0.70136 0.98952 0.44279 0.0
H1979 H 0.70357 0.01862 0.44256 0.0
H1980 H 0.70325 0.99088 0.56826 0.0
H1981 H 0.70184 0.02001 0.56804 0.0
H1982 H 0.68321 0.96454 0.55132 0.0
H1983 H 0.68458 0.94963 0.52302 0.0
loop_
_geom_bond_atom_site_label_1
_geom_bond_atom_site_label_2
_geom_bond_distance
_geom_bond_site_symmetry_2
_ccdc_geom_bond_type
Li0 N17 1.990 . S
Li0 O60 1.956 . S
Li0 O61 1.970 . S
Li0 O62 1.961 . S
Li1 N25 1.990 . S
Li1 O60 1.970 . S
Li1 O61 1.956 . S
Li1 O63 1.961 . S
Li2 N47 1.990 . S
Li2 O60 1.961 . S
Li2 O62 1.956 . S
Li2 O63 1.970 . S
Li3 N53 1.990 . S
Li3 O61 1.961 . S
Li3 O62 1.970 . S
Li3 O63 1.956 . S
C4 C6 1.348 . S
C4 C7 1.356 . S
C4 O60 1.325 . S
N5 C8 1.314 . S
N5 C9 1.279 . S
C6 C4 1.348 . S
C6 C8 1.353 . S
C6 H64 0.929 . S
C7 C4 1.356 . S
C7 C9 1.358 . S
C7 H65 0.930 . S
C8 N5 1.314 . S
C8 C6 1.353 . S
C8 H66 0.930 . S
C9 N5 1.279 . S
C9 C7 1.358 . S
C9 H67 0.930 . S
C10 C13 1.348 . S
C10 C14 1.356 . S
C10 O61 1.325 . S
C11 N12 1.279 . S
C11 C14 1.358 . S
C11 H68 0.930 . S
N12 C11 1.279 . S
N12 C15 1.314 . S
C13 C10 1.348 . S
C13 C15 1.353 . S
C13 H69 0.929 . S
C14 C10 1.356 . S
C14 C11 1.358 . S
C14 H70 0.930 . S
C15 N12 1.314 . S
C15 C13 1.353 . S
C15 H71 0.930 . S
C16 N17 1.314 . S
C16 C21 1.353 . S
C16 H22 0.930 . S
N17 Li0 1.990 . S
N17 C16 1.314 . S
N17 C19 1.279 . S
C18 C19 1.358 . S
C18 C20 1.356 . S
C18 H72 0.930 . S
C19 N17 1.279 . S
C19 C18 1.358 . S
C19 H23 0.930 . S
C20 C18 1.356 . S
C20 C21 1.348 . S
C21 C16 1.353 . S
C21 C20 1.348 . S
C21 H73 0.929 . S
H22 C16 0.930 . S
H23 C19 0.930 . S
C24 N25 1.314 . S
C24 C26 1.353 . S
C24 H30 0.930 . S
N25 Li1 1.990 . S
N25 C24 1.314 . S
N25 C28 1.279 . S
C26 C24 1.353 . S
C26 C29 1.348 . S
C26 H74 0.929 1_554 S
C27 C28 1.358 . S
C27 C29 1.356 . S
C27 H75 0.930 . S
C28 N25 1.279 . S
C28 C27 1.358 . S
C28 H31 0.930 . S
C29 C26 1.348 . S
C29 C27 1.356 . S
H30 C24 0.930 . S
H31 C28 0.930 . S
C32 C34 1.348 . S
C32 C35 1.356 . S
C32 O62 1.325 . S
N33 C36 1.314 . S
N33 C37 1.279 . S
C34 C32 1.348 . S
C34 C36 1.353 . S
C34 H76 0.929 . S
C35 C32 1.356 . S
C35 C37 1.358 . S
C35 H77 0.930 . S
C36 N33 1.314 . S
C36 C34 1.353 . S
C36 H78 0.930 . S
C37 N33 1.279 . S
C37 C35 1.358 . S
C37 H79 0.930 . S
C38 C39 1.348 . S
C38 C40 1.356 . S
C38 O63 1.325 . S
C39 C38 1.348 . S
C39 C41 1.353 1_554 S
C39 H80 0.929 . S
C40 C38 1.356 . S
C40 C42 1.358 1_554 S
C40 H81 0.930 . S
C41 C39 1.353 1_556 S
C41 N43 1.314 . S
C41 H82 0.930 . S
C42 C40 1.358 1_556 S
C42 N43 1.279 . S
C42 H83 0.930 . S
N43 C41 1.314 . S
N43 C42 1.279 . S
C44 C46 1.353 . S
C44 N47 1.314 . S
C44 H50 0.930 . S
C45 N47 1.279 . S
C45 C48 1.358 . S
C45 H51 0.930 . S
C46 C44 1.353 . S
C46 C49 1.348 . S
C46 H84 0.929 . S
N47 Li2 1.990 . S
N47 C44 1.314 . S
N47 C45 1.279 . S
C48 C45 1.358 . S
C48 C49 1.356 . S
C48 H85 0.930 . S
C49 C46 1.348 . S
C49 C48 1.356 . S
H50 C44 0.930 . S
H51 C45 0.930 . S
C52 N53 1.314 . S
C52 C54 1.353 . S
C52 H58 0.930 . S
N53 Li3 1.990 . S
N53 C52 1.314 . S
N53 C56 1.279 . S
C54 C52 1.353 . S
C54 C57 1.348 . S
C54 H86 0.929 . S
C55 C56 1.358 . S
C55 C57 1.356 . S
C55 H87 0.930 . S
C56 N53 1.279 . S
C56 C55 1.358 . S
C56 H59 0.930 . S
C57 C54 1.348 . S
C57 C55 1.356 . S
H58 C52 0.930 . S
H59 C56 0.930 . S
O60 Li0 1.956 . S
O60 Li1 1.970 . S
O60 Li2 1.961 . S
O60 C4 1.325 . S
O61 Li0 1.970 . S
O61 Li1 1.956 . S
O61 Li3 1.961 . S
O61 C10 1.325 . S
O62 Li0 1.961 . S
O62 Li2 1.956 . S
O62 Li3 1.970 . S
O62 C32 1.325 . S
O63 Li1 1.961 . S
O63 Li2 1.970 . S
O63 Li3 1.956 . S
O63 C38 1.325 . S
H64 C6 0.929 . S
H65 C7 0.930 . S
H66 C8 0.930 . S
H67 C9 0.930 . S
H68 C11 0.930 . S
H69 C13 0.929 . S
H70 C14 0.930 . S
H71 C15 0.930 . S
H72 C18 0.930 . S
H73 C21 0.929 . S
H74 C26 0.929 1_556 S
H75 C27 0.930 . S
H76 C34 0.929 . S
H77 C35 0.930 . S
H78 C36 0.930 . S
H79 C37 0.930 . S
H80 C39 0.929 . S
H81 C40 0.930 . S
H82 C41 0.930 . S
H83 C42 0.930 . S
H84 C46 0.929 . S
H85 C48 0.930 . S
H86 C54 0.929 . S
H87 C55 0.930 . S
Li88 N105 1.990 . S
Li88 O148 1.956 . S
Li88 O149 1.970 . S
Li88 O150 1.961 . S
Li89 N113 1.990 . S
Li89 O148 1.970 . S
Li89 O149 1.956 . S
Li89 O151 1.961 . S
Li90 N135 1.990 . S
Li90 O148 1.961 . S
Li90 O150 1.956 . S
Li90 O151 1.970 . S
Li91 N141 1.990 . S
Li91 O149 1.961 . S
Li91 O150 1.970 . S
Li91 O151 1.956 . S
C92 C94 1.348 . S
C92 C95 1.356 . S
C92 O148 1.325 . S
N93 C96 1.314 . S
N93 C97 1.279 . S
C94 C92 1.348 . S
C94 C96 1.353 . S
C94 H152 0.929 . S
C95 C92 1.356 . S
C95 C97 1.358 . S
C95 H153 0.930 . S
C96 N93 1.314 . S
C96 C94 1.353 . S
C96 H154 0.930 . S
C97 N93 1.279 . S
C97 C95 1.358 . S
C97 H155 0.930 . S
C98 C101 1.348 . S
C98 C102 1.356 . S
C98 O149 1.325 . S
C99 N100 1.279 . S
C99 C102 1.358 . S
C99 H156 0.930 . S
N100 C99 1.279 . S
N100 C103 1.314 . S
C101 C98 1.348 . S
C101 C103 1.353 . S
C101 H157 0.929 . S
C102 C98 1.356 . S
C102 C99 1.358 . S
C102 H158 0.930 . S
C103 N100 1.314 . S
C103 C101 1.353 . S
C103 H159 0.930 . S
C104 N105 1.314 . S
C104 C109 1.353 . S
C104 H110 0.930 . S
N105 Li88 1.990 . S
N105 C104 1.314 . S
N105 C107 1.279 . S
C106 C107 1.358 . S
C106 C108 1.356 . S
C106 H160 0.930 . S
C107 N105 1.279 . S
C107 C106 1.358 . S
C107 H111 0.930 . S
C108 C106 1.356 . S
C108 C109 1.348 . S
C109 C104 1.353 . S
C109 C108 1.348 . S
C109 H161 0.929 . S
H110 C104 0.930 . S
H111 C107 0.930 . S
C112 N113 1.314 . S
C112 C114 1.353 . S
C112 H118 0.930 . S
N113 Li89 1.990 . S
N113 C112 1.314 . S
N113 C116 1.279 . S
C114 C112 1.353 . S
C114 C117 1.348 . S
C114 H162 0.929 . S
C115 C116 1.358 . S
C115 C117 1.356 . S
C115 H163 0.930 . S
C116 N113 1.279 . S
C116 C115 1.358 . S
C116 H119 0.930 . S
C117 C114 1.348 . S
C117 C115 1.356 . S
H118 C112 0.930 . S
H119 C116 0.930 . S
C120 C122 1.348 . S
C120 C123 1.356 . S
C120 O150 1.325 . S
N121 C124 1.314 . S
N121 C125 1.279 . S
C122 C120 1.348 . S
C122 C124 1.353 . S
C122 H164 0.929 . S
C123 C120 1.356 . S
C123 C125 1.358 . S
C123 H165 0.930 . S
C124 N121 1.314 . S
C124 C122 1.353 . S
C124 H166 0.930 . S
C125 N121 1.279 . S
C125 C123 1.358 . S
C125 H167 0.930 . S
C126 C127 1.348 . S
C126 C128 1.356 . S
C126 O151 1.325 . S
C127 C126 1.348 . S
C127 C129 1.353 . S
C127 H168 0.929 . S
C128 C126 1.356 . S
C128 C130 1.358 . S
C128 H169 0.930 . S
C129 C127 1.353 . S
C129 N131 1.314 . S
C129 H170 0.930 . S
C130 C128 1.358 . S
C130 N131 1.279 . S
C130 H171 0.930 . S
N131 C129 1.314 . S
N131 C130 1.279 . S
C132 C134 1.353 . S
C132 N135 1.314 . S
C132 H138 0.930 . S
C133 N135 1.279 . S
C133 C136 1.358 . S
C133 H139 0.930 . S
C134 C132 1.353 . S
C134 C137 1.348 . S
C134 H172 0.929 . S
N135 Li90 1.990 . S
N135 C132 1.314 . S
N135 C133 1.279 . S
C136 C133 1.358 . S
C136 C137 1.356 . S
C136 H173 0.930 . S
C137 C134 1.348 . S
C137 C136 1.356 . S
H138 C132 0.930 . S
H139 C133 0.930 . S
C140 N141 1.314 . S
C140 C142 1.353 . S
C140 H146 0.930 . S
N141 Li91 1.990 . S
N141 C140 1.314 . S
N141 C144 1.279 . S
C142 C140 1.353 . S
C142 C145 1.348 . S
C142 H174 0.929 . S
C143 C144 1.358 . S
C143 C145 1.356 . S
C143 H175 0.930 . S
C144 N141 1.279 . S
C144 C143 1.358 . S
C144 H147 0.930 . S
C145 C142 1.348 . S
C145 C143 1.356 . S
H146 C140 0.930 . S
H147 C144 0.930 . S
O148 Li88 1.956 . S
O148 Li89 1.970 . S
O148 Li90 1.961 . S
O148 C92 1.325 . S
O149 Li88 1.970 . S
O149 Li89 1.956 . S
O149 Li91 1.961 . S
O149 C98 1.325 . S
O150 Li88 1.961 . S
O150 Li90 1.956 . S
O150 Li91 1.970 . S
O150 C120 1.325 . S
O151 Li89 1.961 . S
O151 Li90 1.970 . S
O151 Li91 1.956 . S
O151 C126 1.325 . S
H152 C94 0.929 . S
H153 C95 0.930 . S
H154 C96 0.930 . S
H155 C97 0.930 . S
H156 C99 0.930 . S
H157 C101 0.929 . S
H158 C102 0.930 . S
H159 C103 0.930 . S
H160 C106 0.930 . S
H161 C109 0.929 . S
H162 C114 0.929 . S
H163 C115 0.930 . S
H164 C122 0.929 . S
H165 C123 0.930 . S
H166 C124 0.930 . S
H167 C125 0.930 . S
H168 C127 0.929 . S
H169 C128 0.930 . S
H170 C129 0.930 . S
H171 C130 0.930 . S
H172 C134 0.929 . S
H173 C136 0.930 . S
H174 C142 0.929 . S
H175 C143 0.930 . S
Li176 N193 1.990 . S
Li176 O236 1.956 . S
Li176 O237 1.970 . S
Li176 O238 1.961 . S
Li177 N201 1.990 . S
Li177 O236 1.970 . S
Li177 O237 1.956 . S
Li177 O239 1.961 . S
Li178 N223 1.990 . S
Li178 O236 1.961 . S
Li178 O238 1.956 . S
Li178 O239 1.970 . S
Li179 N229 1.990 . S
Li179 O237 1.961 . S
Li179 O238 1.970 . S
Li179 O239 1.956 . S
C180 C182 1.348 . S
C180 C183 1.356 . S
C180 O236 1.325 . S
N181 C184 1.314 . S
N181 C185 1.279 . S
C182 C180 1.348 . S
C182 C184 1.353 . S
C182 H240 0.929 . S
C183 C180 1.356 . S
C183 C185 1.358 . S
C183 H241 0.930 . S
C184 N181 1.314 . S
C184 C182 1.353 . S
C184 H242 0.930 . S
C185 N181 1.279 . S
C185 C183 1.358 . S
C185 H243 0.930 . S
C186 C189 1.348 . S
C186 C190 1.356 . S
C186 O237 1.325 . S
C187 N188 1.279 . S
C187 C190 1.358 1_554 S
C187 H244 0.930 . S
N188 C187 1.279 . S
N188 C191 1.314 . S
C189 C186 1.348 . S
C189 C191 1.353 1_556 S
C189 H245 0.929 . S
C190 C186 1.356 . S
C190 C187 1.358 1_556 S
C190 H246 0.930 . S
C191 N188 1.314 . S
C191 C189 1.353 1_554 S
C191 H247 0.930 . S
C192 N193 1.314 . S
C192 C197 1.353 . S
C192 H198 0.930 . S
N193 Li176 1.990 . S
N193 C192 1.314 . S
N193 C195 1.279 . S
C194 C195 1.358 . S
C194 C196 1.356 . S
C194 H248 0.930 . S
C195 N193 1.279 . S
C195 C194 1.358 . S
C195 H199 0.930 . S
C196 C194 1.356 . S
C196 C197 1.348 . S
C197 C192 1.353 . S
C197 C196 1.348 . S
C197 H249 0.929 . S
H198 C192 0.930 . S
H199 C195 0.930 . S
C200 N201 1.314 . S
C200 C202 1.353 . S
C200 H206 0.930 . S
N201 Li177 1.990 . S
N201 C200 1.314 . S
N201 C204 1.279 . S
C202 C200 1.353 . S
C202 C205 1.348 . S
C202 H250 0.929 . S
C203 C204 1.358 . S
C203 C205 1.356 . S
C203 H251 0.930 . S
C204 N201 1.279 . S
C204 C203 1.358 . S
C204 H207 0.930 . S
C205 C202 1.348 . S
C205 C203 1.356 . S
H206 C200 0.930 . S
H207 C204 0.930 . S
C208 C210 1.348 . S
C208 C211 1.356 . S
C208 O238 1.325 . S
N209 C212 1.314 . S
N209 C213 1.279 . S
C210 C208 1.348 . S
C210 C212 1.353 . S
C210 H252 0.929 . S
C211 C208 1.356 . S
C211 C213 1.358 . S
C211 H253 0.930 . S
C212 N209 1.314 . S
C212 C210 1.353 . S
C212 H254 0.930 . S
C213 N209 1.279 . S
C213 C211 1.358 . S
C213 H255 0.930 . S
C214 C215 1.348 . S
C214 C216 1.356 . S
C214 O239 1.325 . S
C215 C214 1.348 . S
C215 C217 1.353 . S
C215 H256 0.929 . S
C216 C214 1.356 . S
C216 C218 1.358 . S
C216 H257 0.930 . S
C217 C215 1.353 . S
C217 N219 1.314 . S
C217 H258 0.930 . S
C218 C216 1.358 . S
C218 N219 1.279 . S
C218 H259 0.930 . S
N219 C217 1.314 . S
N219 C218 1.279 . S
C220 C222 1.353 . S
C220 N223 1.314 . S
C220 H226 0.930 . S
C221 N223 1.279 . S
C221 C224 1.358 . S
C221 H227 0.930 . S
C222 C220 1.353 . S
C222 C225 1.348 . S
C222 H260 0.929 . S
N223 Li178 1.990 . S
N223 C220 1.314 . S
N223 C221 1.279 . S
C224 C221 1.358 . S
C224 C225 1.356 . S
C224 H261 0.930 . S
C225 C222 1.348 . S
C225 C224 1.356 . S
H226 C220 0.930 . S
H227 C221 0.930 . S
C228 N229 1.314 . S
C228 C230 1.353 . S
C228 H234 0.930 . S
N229 Li179 1.990 . S
N229 C228 1.314 . S
N229 C232 1.279 . S
C230 C228 1.353 . S
C230 C233 1.348 . S
C230 H262 0.929 1_556 S
C231 C232 1.358 . S
C231 C233 1.356 . S
C231 H263 0.930 . S
C232 N229 1.279 . S
C232 C231 1.358 . S
C232 H235 0.930 . S
C233 C230 1.348 . S
C233 C231 1.356 . S
H234 C228 0.930 . S
H235 C232 0.930 . S
O236 Li176 1.956 . S
O236 Li177 1.970 . S
O236 Li178 1.961 . S
O236 C180 1.325 . S
O237 Li176 1.970 . S
O237 Li177 1.956 . S
O237 Li179 1.961 . S
O237 C186 1.325 . S
O238 Li176 1.961 . S
O238 Li178 1.956 . S
O238 Li179 1.970 . S
O238 C208 1.325 . S
O239 Li177 1.961 . S
O239 Li178 1.970 . S
O239 Li179 1.956 . S
O239 C214 1.325 . S
H240 C182 0.929 . S
H241 C183 0.930 . S
H242 C184 0.930 . S
H243 C185 0.930 . S
H244 C187 0.930 . S
H245 C189 0.929 . S
H246 C190 0.930 . S
H247 C191 0.930 . S
H248 C194 0.930 . S
H249 C197 0.929 . S
H250 C202 0.929 . S
H251 C203 0.930 . S
H252 C210 0.929 . S
H253 C211 0.930 . S
H254 C212 0.930 . S
H255 C213 0.930 . S
H256 C215 0.929 . S
H257 C216 0.930 . S
H258 C217 0.930 . S
H259 C218 0.930 . S
H260 C222 0.929 . S
H261 C224 0.930 . S
H262 C230 0.929 1_554 S
H263 C231 0.930 . S
Li264 N281 1.990 . S
Li264 O324 1.956 . S
Li264 O325 1.970 . S
Li264 O326 1.961 . S
Li265 N289 1.990 . S
Li265 O324 1.970 . S
Li265 O325 1.956 . S
Li265 O327 1.961 . S
Li266 N311 1.990 . S
Li266 O324 1.961 . S
Li266 O326 1.956 . S
Li266 O327 1.970 . S
Li267 N317 1.990 . S
Li267 O325 1.961 . S
Li267 O326 1.970 . S
Li267 O327 1.956 . S
C268 C270 1.348 . S
C268 C271 1.356 . S
C268 O324 1.325 . S
N269 C272 1.314 . S
N269 C273 1.279 . S
C270 C268 1.348 . S
C270 C272 1.353 . S
C270 H328 0.929 . S
C271 C268 1.356 . S
C271 C273 1.358 . S
C271 H329 0.930 . S
C272 N269 1.314 . S
C272 C270 1.353 . S
C272 H330 0.930 . S
C273 N269 1.279 . S
C273 C271 1.358 . S
C273 H331 0.930 . S
C274 C277 1.348 . S
C274 C278 1.356 . S
C274 O325 1.325 . S
C275 N276 1.279 . S
C275 C278 1.358 . S
C275 H332 0.930 . S
N276 C275 1.279 . S
N276 C279 1.314 . S
C277 C274 1.348 . S
C277 C279 1.353 . S
C277 H333 0.929 . S
C278 C274 1.356 . S
C278 C275 1.358 . S
C278 H334 0.930 . S
C279 N276 1.314 . S
C279 C277 1.353 . S
C279 H335 0.930 . S
C280 N281 1.314 . S
C280 C285 1.353 . S
C280 H286 0.930 . S
N281 Li264 1.990 . S
N281 C280 1.314 . S
N281 C283 1.279 . S
C282 C283 1.358 . S
C282 C284 1.356 . S
C282 H336 0.930 . S
C283 N281 1.279 . S
C283 C282 1.358 . S
C283 H287 0.930 . S
C284 C282 1.356 . S
C284 C285 1.348 . S
C285 C280 1.353 . S
C285 C284 1.348 . S
C285 H337 0.929 . S
H286 C280 0.930 . S
H287 C283 0.930 . S
C288 N289 1.314 . S
C288 C290 1.353 . S
C288 H294 0.930 . S
N289 Li265 1.990 . S
N289 C288 1.314 . S
N289 C292 1.279 . S
C290 C288 1.353 . S
C290 C293 1.348 . S
C290 H338 0.929 . S
C291 C292 1.358 . S
C291 C293 1.356 . S
C291 H339 0.930 . S
C292 N289 1.279 . S
C292 C291 1.358 . S
C292 H295 0.930 . S
C293 C290 1.348 . S
C293 C291 1.356 . S
H294 C288 0.930 . S
H295 C292 0.930 . S
C296 C298 1.348 . S
C296 C299 1.356 . S
C296 O326 1.325 . S
N297 C300 1.314 . S
N297 C301 1.279 . S
C298 C296 1.348 . S
C298 C300 1.353 . S
C298 H340 0.929 . S
C299 C296 1.356 . S
C299 C301 1.358 . S
C299 H341 0.930 . S
C300 N297 1.314 . S
C300 C298 1.353 . S
C300 H342 0.930 . S
C301 N297 1.279 . S
C301 C299 1.358 . S
C301 H343 0.930 . S
C302 C303 1.348 . S
C302 C304 1.356 . S
C302 O327 1.325 . S
C303 C302 1.348 . S
C303 C305 1.353 . S
C303 H344 0.929 . S
C304 C302 1.356 . S
C304 C306 1.358 . S
C304 H345 0.930 . S
C305 C303 1.353 . S
C305 N307 1.314 . S
C305 H346 0.930 . S
C306 C304 1.358 . S
C306 N307 1.279 . S
C306 H347 0.930 . S
N307 C305 1.314 . S
N307 C306 1.279 . S
C308 C310 1.353 . S
C308 N311 1.314 . S
C308 H314 0.930 . S
C309 N311 1.279 . S
C309 C312 1.358 . S
C309 H315 0.930 . S
C310 C308 1.353 . S
C310 C313 1.348 . S
C310 H348 0.929 . S
N311 Li266 1.990 . S
N311 C308 1.314 . S
N311 C309 1.279 . S
C312 C309 1.358 . S
C312 C313 1.356 . S
C312 H349 0.930 . S
C313 C310 1.348 . S
C313 C312 1.356 . S
H314 C308 0.930 . S
H315 C309 0.930 . S
C316 N317 1.314 . S
C316 C318 1.353 . S
C316 H322 0.930 . S
N317 Li267 1.990 . S
N317 C316 1.314 . S
N317 C320 1.279 . S
C318 C316 1.353 . S
C318 C321 1.348 . S
C318 H350 0.929 . S
C319 C320 1.358 . S
C319 C321 1.356 . S
C319 H351 0.930 . S
C320 N317 1.279 . S
C320 C319 1.358 . S
C320 H323 0.930 . S
C321 C318 1.348 . S
C321 C319 1.356 . S
H322 C316 0.930 . S
H323 C320 0.930 . S
O324 Li264 1.956 . S
O324 Li265 1.970 . S
O324 Li266 1.961 . S
O324 C268 1.325 . S
O325 Li264 1.970 . S
O325 Li265 1.956 . S
O325 Li267 1.961 . S
O325 C274 1.325 . S
O326 Li264 1.961 . S
O326 Li266 1.956 . S
O326 Li267 1.970 . S
O326 C296 1.325 . S
O327 Li265 1.961 . S
O327 Li266 1.970 . S
O327 Li267 1.956 . S
O327 C302 1.325 . S
H328 C270 0.929 . S
H329 C271 0.930 . S
H330 C272 0.930 . S
H331 C273 0.930 . S
H332 C275 0.930 . S
H333 C277 0.929 . S
H334 C278 0.930 . S
H335 C279 0.930 . S
H336 C282 0.930 . S
H337 C285 0.929 . S
H338 C290 0.929 . S
H339 C291 0.930 . S
H340 C298 0.929 . S
H341 C299 0.930 . S
H342 C300 0.930 . S
H343 C301 0.930 . S
H344 C303 0.929 . S
H345 C304 0.930 . S
H346 C305 0.930 . S
H347 C306 0.930 . S
H348 C310 0.929 . S
H349 C312 0.930 . S
H350 C318 0.929 . S
H351 C319 0.930 . S
Li352 N369 1.990 . S
Li352 O412 1.956 . S
Li352 O413 1.970 . S
Li352 O414 1.961 . S
Li353 N377 1.990 . S
Li353 O412 1.970 . S
Li353 O413 1.956 . S
Li353 O415 1.961 . S
Li354 N399 1.990 . S
Li354 O412 1.961 . S
Li354 O414 1.956 . S
Li354 O415 1.970 . S
Li355 N405 1.990 . S
Li355 O413 1.961 . S
Li355 O414 1.970 . S
Li355 O415 1.956 . S
C356 C358 1.348 . S
C356 C359 1.356 . S
C356 O412 1.325 . S
N357 C360 1.314 . S
N357 C361 1.279 . S
C358 C356 1.348 . S
C358 C360 1.353 1_556 S
C358 H416 0.929 . S
C359 C356 1.356 . S
C359 C361 1.358 1_556 S
C359 H417 0.930 . S
C360 N357 1.314 . S
C360 C358 1.353 1_554 S
C360 H418 0.930 . S
C361 N357 1.279 . S
C361 C359 1.358 1_554 S
C361 H419 0.930 . S
C362 C365 1.348 . S
C362 C366 1.356 . S
C362 O413 1.325 . S
C363 N364 1.279 . S
C363 C366 1.358 . S
C363 H420 0.930 . S
N364 C363 1.279 . S
N364 C367 1.314 . S
C365 C362 1.348 . S
C365 C367 1.353 . S
C365 H421 0.929 . S
C366 C362 1.356 . S
C366 C363 1.358 . S
C366 H422 0.930 . S
C367 N364 1.314 . S
C367 C365 1.353 . S
C367 H423 0.930 . S
C368 N369 1.314 . S
C368 C373 1.353 . S
C368 H374 0.930 . S
N369 Li352 1.990 . S
N369 C368 1.314 . S
N369 C371 1.279 . S
C370 C371 1.358 . S
C370 C372 1.356 . S
C370 H424 0.930 1_556 S
C371 N369 1.279 . S
C371 C370 1.358 . S
C371 H375 0.930 . S
C372 C370 1.356 . S
C372 C373 1.348 . S
C373 C368 1.353 . S
C373 C372 1.348 . S
C373 H425 0.929 . S
H374 C368 0.930 . S
H375 C371 0.930 . S
C376 N377 1.314 . S
C376 C378 1.353 . S
C376 H382 0.930 . S
N377 Li353 1.990 . S
N377 C376 1.314 . S
N377 C380 1.279 . S
C378 C376 1.353 . S
C378 C381 1.348 . S
C378 H426 0.929 . S
C379 C380 1.358 . S
C379 C381 1.356 . S
C379 H427 0.930 . S
C380 N377 1.279 . S
C380 C379 1.358 . S
C380 H383 0.930 . S
C381 C378 1.348 . S
C381 C379 1.356 . S
H382 C376 0.930 . S
H383 C380 0.930 . S
C384 C386 1.348 . S
C384 C387 1.356 . S
C384 O414 1.325 . S
N385 C388 1.314 . S
N385 C389 1.279 . S
C386 C384 1.348 . S
C386 C388 1.353 . S
C386 H428 0.929 . S
C387 C384 1.356 . S
C387 C389 1.358 . S
C387 H429 0.930 . S
C388 N385 1.314 . S
C388 C386 1.353 . S
C388 H430 0.930 . S
C389 N385 1.279 . S
C389 C387 1.358 . S
C389 H431 0.930 . S
C390 C391 1.348 . S
C390 C392 1.356 . S
C390 O415 1.325 . S
C391 C390 1.348 . S
C391 C393 1.353 . S
C391 H432 0.929 . S
C392 C390 1.356 . S
C392 C394 1.358 . S
C392 H433 0.930 . S
C393 C391 1.353 . S
C393 N395 1.314 . S
C393 H434 0.930 . S
C394 C392 1.358 . S
C394 N395 1.279 . S
C394 H435 0.930 . S
N395 C393 1.314 . S
N395 C394 1.279 . S
C396 C398 1.353 . S
C396 N399 1.314 . S
C396 H402 0.930 . S
C397 N399 1.279 . S
C397 C400 1.358 . S
C397 H403 0.930 . S
C398 C396 1.353 . S
C398 C401 1.348 . S
C398 H436 0.929 . S
N399 Li354 1.990 . S
N399 C396 1.314 . S
N399 C397 1.279 . S
C400 C397 1.358 . S
C400 C401 1.356 . S
C400 H437 0.930 . S
C401 C398 1.348 . S
C401 C400 1.356 . S
H402 C396 0.930 . S
H403 C397 0.930 . S
C404 N405 1.314 . S
C404 C406 1.353 . S
C404 H410 0.930 . S
N405 Li355 1.990 . S
N405 C404 1.314 . S
N405 C408 1.279 . S
C406 C404 1.353 . S
C406 C409 1.348 . S
C406 H438 0.929 . S
C407 C408 1.358 . S
C407 C409 1.356 . S
C407 H439 0.930 . S
C408 N405 1.279 . S
C408 C407 1.358 . S
C408 H411 0.930 . S
C409 C406 1.348 . S
C409 C407 1.356 . S
H410 C404 0.930 . S
H411 C408 0.930 . S
O412 Li352 1.956 . S
O412 Li353 1.970 . S
O412 Li354 1.961 . S
O412 C356 1.325 . S
O413 Li352 1.970 . S
O413 Li353 1.956 . S
O413 Li355 1.961 . S
O413 C362 1.325 . S
O414 Li352 1.961 . S
O414 Li354 1.956 . S
O414 Li355 1.970 . S
O414 C384 1.325 . S
O415 Li353 1.961 . S
O415 Li354 1.970 . S
O415 Li355 1.956 . S
O415 C390 1.325 . S
H416 C358 0.929 . S
H417 C359 0.930 . S
H418 C360 0.930 . S
H419 C361 0.930 . S
H420 C363 0.930 . S
H421 C365 0.929 . S
H422 C366 0.930 . S
H423 C367 0.930 . S
H424 C370 0.930 1_554 S
H425 C373 0.929 . S
H426 C378 0.929 . S
H427 C379 0.930 . S
H428 C386 0.929 . S
H429 C387 0.930 . S
H430 C388 0.930 . S
H431 C389 0.930 . S
H432 C391 0.929 . S
H433 C392 0.930 . S
H434 C393 0.930 . S
H435 C394 0.930 . S
H436 C398 0.929 . S
H437 C400 0.930 . S
H438 C406 0.929 . S
H439 C407 0.930 . S
Li440 N457 1.990 . S
Li440 O500 1.956 . S
Li440 O501 1.970 . S
Li440 O502 1.961 . S
Li441 N465 1.990 . S
Li441 O500 1.970 . S
Li441 O501 1.956 . S
Li441 O503 1.961 . S
Li442 N487 1.990 . S
Li442 O500 1.961 . S
Li442 O502 1.956 . S
Li442 O503 1.970 . S
Li443 N493 1.990 . S
Li443 O501 1.961 . S
Li443 O502 1.970 . S
Li443 O503 1.956 . S
C444 C446 1.348 . S
C444 C447 1.356 . S
C444 O500 1.325 . S
N445 C448 1.314 . S
N445 C449 1.279 . S
C446 C444 1.348 . S
C446 C448 1.353 . S
C446 H504 0.929 . S
C447 C444 1.356 . S
C447 C449 1.358 . S
C447 H505 0.930 . S
C448 N445 1.314 . S
C448 C446 1.353 . S
C448 H506 0.930 . S
C449 N445 1.279 . S
C449 C447 1.358 . S
C449 H507 0.930 . S
C450 C453 1.348 . S
C450 C454 1.356 . S
C450 O501 1.325 . S
C451 N452 1.279 . S
C451 C454 1.358 . S
C451 H508 0.930 . S
N452 C451 1.279 . S
N452 C455 1.314 . S
C453 C450 1.348 . S
C453 C455 1.353 . S
C453 H509 0.929 . S
C454 C450 1.356 . S
C454 C451 1.358 . S
C454 H510 0.930 . S
C455 N452 1.314 . S
C455 C453 1.353 . S
C455 H511 0.930 . S
C456 N457 1.314 . S
C456 C461 1.353 . S
C456 H462 0.930 . S
N457 Li440 1.990 . S
N457 C456 1.314 . S
N457 C459 1.279 . S
C458 C459 1.358 . S
C458 C460 1.356 . S
C458 H512 0.930 . S
C459 N457 1.279 . S
C459 C458 1.358 . S
C459 H463 0.930 . S
C460 C458 1.356 . S
C460 C461 1.348 . S
C461 C456 1.353 . S
C461 C460 1.348 . S
C461 H513 0.929 . S
H462 C456 0.930 . S
H463 C459 0.930 . S
C464 N465 1.314 . S
C464 C466 1.353 . S
C464 H470 0.930 . S
N465 Li441 1.990 . S
N465 C464 1.314 . S
N465 C468 1.279 . S
C466 C464 1.353 . S
C466 C469 1.348 . S
C466 H514 0.929 . S
C467 C468 1.358 . S
C467 C469 1.356 . S
C467 H515 0.930 . S
C468 N465 1.279 . S
C468 C467 1.358 . S
C468 H471 0.930 . S
C469 C466 1.348 . S
C469 C467 1.356 . S
H470 C464 0.930 . S
H471 C468 0.930 . S
C472 C474 1.348 . S
C472 C475 1.356 . S
C472 O502 1.325 . S
N473 C476 1.314 . S
N473 C477 1.279 . S
C474 C472 1.348 . S
C474 C476 1.353 . S
C474 H516 0.929 . S
C475 C472 1.356 . S
C475 C477 1.358 . S
C475 H517 0.930 . S
C476 N473 1.314 . S
C476 C474 1.353 . S
C476 H518 0.930 . S
C477 N473 1.279 . S
C477 C475 1.358 . S
C477 H519 0.930 . S
C478 C479 1.348 . S
C478 C480 1.356 . S
C478 O503 1.325 . S
C479 C478 1.348 . S
C479 C481 1.353 . S
C479 H520 0.929 . S
C480 C478 1.356 . S
C480 C482 1.358 . S
C480 H521 0.930 . S
C481 C479 1.353 . S
C481 N483 1.314 . S
C481 H522 0.930 . S
C482 C480 1.358 . S
C482 N483 1.279 . S
C482 H523 0.930 . S
N483 C481 1.314 . S
N483 C482 1.279 . S
C484 C486 1.353 . S
C484 N487 1.314 . S
C484 H490 0.930 . S
C485 N487 1.279 . S
C485 C488 1.358 . S
C485 H491 0.930 . S
C486 C484 1.353 . S
C486 C489 1.348 . S
C486 H524 0.929 . S
N487 Li442 1.990 . S
N487 C484 1.314 . S
N487 C485 1.279 . S
C488 C485 1.358 . S
C488 C489 1.356 . S
C488 H525 0.930 . S
C489 C486 1.348 . S
C489 C488 1.356 . S
H490 C484 0.930 . S
H491 C485 0.930 . S
C492 N493 1.314 . S
C492 C494 1.353 . S
C492 H498 0.930 . S
N493 Li443 1.990 . S
N493 C492 1.314 . S
N493 C496 1.279 . S
C494 C492 1.353 . S
C494 C497 1.348 . S
C494 H526 0.929 . S
C495 C496 1.358 . S
C495 C497 1.356 . S
C495 H527 0.930 . S
C496 N493 1.279 . S
C496 C495 1.358 . S
C496 H499 0.930 . S
C497 C494 1.348 . S
C497 C495 1.356 . S
H498 C492 0.930 . S
H499 C496 0.930 . S
O500 Li440 1.956 . S
O500 Li441 1.970 . S
O500 Li442 1.961 . S
O500 C444 1.325 . S
O501 Li440 1.970 . S
O501 Li441 1.956 . S
O501 Li443 1.961 . S
O501 C450 1.325 . S
O502 Li440 1.961 . S
O502 Li442 1.956 . S
O502 Li443 1.970 . S
O502 C472 1.325 . S
O503 Li441 1.961 . S
O503 Li442 1.970 . S
O503 Li443 1.956 . S
O503 C478 1.325 . S
H504 C446 0.929 . S
H505 C447 0.930 . S
H506 C448 0.930 . S
H507 C449 0.930 . S
H508 C451 0.930 . S
H509 C453 0.929 . S
H510 C454 0.930 . S
H511 C455 0.930 . S
H512 C458 0.930 . S
H513 C461 0.929 . S
H514 C466 0.929 . S
H515 C467 0.930 . S
H516 C474 0.929 . S
H517 C475 0.930 . S
H518 C476 0.930 . S
H519 C477 0.930 . S
H520 C479 0.929 . S
H521 C480 0.930 . S
H522 C481 0.930 . S
H523 C482 0.930 . S
H524 C486 0.929 . S
H525 C488 0.930 . S
H526 C494 0.929 . S
H527 C495 0.930 . S
Li528 N545 1.990 . S
Li528 O588 1.956 . S
Li528 O589 1.970 . S
Li528 O590 1.961 . S
Li529 N553 1.990 . S
Li529 O588 1.970 . S
Li529 O589 1.956 . S
Li529 O591 1.961 . S
Li530 N575 1.990 . S
Li530 O588 1.961 . S
Li530 O590 1.956 . S
Li530 O591 1.970 . S
Li531 N581 1.990 . S
Li531 O589 1.961 . S
Li531 O590 1.970 . S
Li531 O591 1.956 . S
C532 C534 1.348 . S
C532 C535 1.356 . S
C532 O588 1.325 . S
N533 C536 1.314 . S
N533 C537 1.279 . S
C534 C532 1.348 . S
C534 C536 1.353 . S
C534 H592 0.929 . S
C535 C532 1.356 . S
C535 C537 1.358 . S
C535 H593 0.930 . S
C536 N533 1.314 . S
C536 C534 1.353 . S
C536 H594 0.930 . S
C537 N533 1.279 . S
C537 C535 1.358 . S
C537 H595 0.930 . S
C538 C541 1.348 . S
C538 C542 1.356 . S
C538 O589 1.325 . S
C539 N540 1.279 . S
C539 C542 1.358 . S
C539 H596 0.930 . S
N540 C539 1.279 . S
N540 C543 1.314 . S
C541 C538 1.348 . S
C541 C543 1.353 . S
C541 H597 0.929 . S
C542 C538 1.356 . S
C542 C539 1.358 . S
C542 H598 0.930 . S
C543 N540 1.314 . S
C543 C541 1.353 . S
C543 H599 0.930 . S
C544 N545 1.314 . S
C544 C549 1.353 . S
C544 H550 0.930 . S
N545 Li528 1.990 . S
N545 C544 1.314 . S
N545 C547 1.279 . S
C546 C547 1.358 . S
C546 C548 1.356 . S
C546 H600 0.930 . S
C547 N545 1.279 . S
C547 C546 1.358 . S
C547 H551 0.930 . S
C548 C546 1.356 . S
C548 C549 1.348 . S
C549 C544 1.353 . S
C549 C548 1.348 . S
C549 H601 0.929 . S
H550 C544 0.930 . S
H551 C547 0.930 . S
C552 N553 1.314 . S
C552 C554 1.353 . S
C552 H558 0.930 . S
N553 Li529 1.990 . S
N553 C552 1.314 . S
N553 C556 1.279 . S
C554 C552 1.353 . S
C554 C557 1.348 . S
C554 H602 0.929 . S
C555 C556 1.358 . S
C555 C557 1.356 . S
C555 H603 0.930 . S
C556 N553 1.279 . S
C556 C555 1.358 . S
C556 H559 0.930 . S
C557 C554 1.348 . S
C557 C555 1.356 . S
H558 C552 0.930 . S
H559 C556 0.930 . S
C560 C562 1.348 . S
C560 C563 1.356 . S
C560 O590 1.325 . S
N561 C564 1.314 . S
N561 C565 1.279 . S
C562 C560 1.348 . S
C562 C564 1.353 . S
C562 H604 0.929 . S
C563 C560 1.356 . S
C563 C565 1.358 . S
C563 H605 0.930 . S
C564 N561 1.314 . S
C564 C562 1.353 . S
C564 H606 0.930 . S
C565 N561 1.279 . S
C565 C563 1.358 . S
C565 H607 0.930 . S
C566 C567 1.348 . S
C566 C568 1.356 . S
C566 O591 1.325 . S
C567 C566 1.348 . S
C567 C569 1.353 1_554 S
C567 H608 0.929 . S
C568 C566 1.356 . S
C568 C570 1.358 1_554 S
C568 H609 0.930 . S
C569 C567 1.353 1_556 S
C569 N571 1.314 . S
C569 H610 0.930 . S
C570 C568 1.358 1_556 S
C570 N571 1.279 . S
C570 H611 0.930 . S
N571 C569 1.314 . S
N571 C570 1.279 . S
C572 C574 1.353 . S
C572 N575 1.314 . S
C572 H578 0.930 . S
C573 N575 1.279 . S
C573 C576 1.358 . S
C573 H579 0.930 . S
C574 C572 1.353 . S
C574 C577 1.348 . S
C574 H612 0.929 . S
N575 Li530 1.990 . S
N575 C572 1.314 . S
N575 C573 1.279 . S
C576 C573 1.358 . S
C576 C577 1.356 . S
C576 H613 0.930 . S
C577 C574 1.348 . S
C577 C576 1.356 . S
H578 C572 0.930 . S
H579 C573 0.930 . S
C580 N581 1.314 . S
C580 C582 1.353 . S
C580 H586 0.930 . S
N581 Li531 1.990 . S
N581 C580 1.314 . S
N581 C584 1.279 . S
C582 C580 1.353 . S
C582 C585 1.348 . S
C582 H614 0.929 . S
C583 C584 1.358 . S
C583 C585 1.356 . S
C583 H615 0.930 1_554 S
C584 N581 1.279 . S
C584 C583 1.358 . S
C584 H587 0.930 . S
C585 C582 1.348 . S
C585 C583 1.356 . S
H586 C580 0.930 . S
H587 C584 0.930 . S
O588 Li528 1.956 . S
O588 Li529 1.970 . S
O588 Li530 1.961 . S
O588 C532 1.325 . S
O589 Li528 1.970 . S
O589 Li529 1.956 . S
O589 Li531 1.961 . S
O589 C538 1.325 . S
O590 Li528 1.961 . S
O590 Li530 1.956 . S
O590 Li531 1.970 . S
O590 C560 1.325 . S
O591 Li529 1.961 . S
O591 Li530 1.970 . S
O591 Li531 1.956 . S
O591 C566 1.325 . S
H592 C534 0.929 . S
H593 C535 0.930 . S
H594 C536 0.930 . S
H595 C537 0.930 . S
H596 C539 0.930 . S
H597 C541 0.929 . S
H598 C542 0.930 . S
H599 C543 0.930 . S
H600 C546 0.930 . S
H601 C549 0.929 . S
H602 C554 0.929 . S
H603 C555 0.930 . S
H604 C562 0.929 . S
H605 C563 0.930 . S
H606 C564 0.930 . S
H607 C565 0.930 . S
H608 C567 0.929 . S
H609 C568 0.930 . S
H610 C569 0.930 . S
H611 C570 0.930 . S
H612 C574 0.929 . S
H613 C576 0.930 . S
H614 C582 0.929 . S
H615 C583 0.930 1_556 S
Li616 N633 1.990 . S
Li616 O676 1.956 . S
Li616 O677 1.970 . S
Li616 O678 1.961 . S
Li617 N641 1.990 . S
Li617 O676 1.970 . S
Li617 O677 1.956 . S
Li617 O679 1.961 . S
Li618 N663 1.990 . S
Li618 O676 1.961 . S
Li618 O678 1.956 . S
Li618 O679 1.970 . S
Li619 N669 1.990 . S
Li619 O677 1.961 . S
Li619 O678 1.970 . S
Li619 O679 1.956 . S
C620 C622 1.348 . S
C620 C623 1.356 . S
C620 O676 1.325 . S
N621 C624 1.314 . S
N621 C625 1.279 . S
C622 C620 1.348 . S
C622 C624 1.353 . S
C622 H680 0.929 . S
C623 C620 1.356 . S
C623 C625 1.358 . S
C623 H681 0.930 . S
C624 N621 1.314 . S
C624 C622 1.353 . S
C624 H682 0.930 . S
C625 N621 1.279 . S
C625 C623 1.358 . S
C625 H683 0.930 . S
C626 C629 1.348 . S
C626 C630 1.356 . S
C626 O677 1.325 . S
C627 N628 1.279 . S
C627 C630 1.358 . S
C627 H684 0.930 . S
N628 C627 1.279 . S
N628 C631 1.314 . S
C629 C626 1.348 . S
C629 C631 1.353 . S
C629 H685 0.929 . S
C630 C626 1.356 . S
C630 C627 1.358 . S
C630 H686 0.930 . S
C631 N628 1.314 . S
C631 C629 1.353 . S
C631 H687 0.930 . S
C632 N633 1.314 . S
C632 C637 1.353 . S
C632 H638 0.930 . S
N633 Li616 1.990 . S
N633 C632 1.314 . S
N633 C635 1.279 . S
C634 C635 1.358 . S
C634 C636 1.356 . S
C634 H688 0.930 . S
C635 N633 1.279 . S
C635 C634 1.358 . S
C635 H639 0.930 . S
C636 C634 1.356 . S
C636 C637 1.348 . S
C637 C632 1.353 . S
C637 C636 1.348 . S
C637 H689 0.929 . S
H638 C632 0.930 . S
H639 C635 0.930 . S
C640 N641 1.314 . S
C640 C642 1.353 . S
C640 H646 0.930 . S
N641 Li617 1.990 . S
N641 C640 1.314 . S
N641 C644 1.279 . S
C642 C640 1.353 . S
C642 C645 1.348 . S
C642 H690 0.929 . S
C643 C644 1.358 . S
C643 C645 1.356 . S
C643 H691 0.930 . S
C644 N641 1.279 . S
C644 C643 1.358 . S
C644 H647 0.930 . S
C645 C642 1.348 . S
C645 C643 1.356 . S
H646 C640 0.930 . S
H647 C644 0.930 . S
C648 C650 1.348 . S
C648 C651 1.356 . S
C648 O678 1.325 . S
N649 C652 1.314 . S
N649 C653 1.279 . S
C650 C648 1.348 . S
C650 C652 1.353 . S
C650 H692 0.929 . S
C651 C648 1.356 . S
C651 C653 1.358 . S
C651 H693 0.930 . S
C652 N649 1.314 . S
C652 C650 1.353 . S
C652 H694 0.930 . S
C653 N649 1.279 . S
C653 C651 1.358 . S
C653 H695 0.930 . S
C654 C655 1.348 . S
C654 C656 1.356 . S
C654 O679 1.325 . S
C655 C654 1.348 . S
C655 C657 1.353 . S
C655 H696 0.929 . S
C656 C654 1.356 . S
C656 C658 1.358 . S
C656 H697 0.930 . S
C657 C655 1.353 . S
C657 N659 1.314 . S
C657 H698 0.930 . S
C658 C656 1.358 . S
C658 N659 1.279 . S
C658 H699 0.930 . S
N659 C657 1.314 . S
N659 C658 1.279 . S
C660 C662 1.353 . S
C660 N663 1.314 . S
C660 H666 0.930 . S
C661 N663 1.279 . S
C661 C664 1.358 . S
C661 H667 0.930 . S
C662 C660 1.353 . S
C662 C665 1.348 . S
C662 H700 0.929 . S
N663 Li618 1.990 . S
N663 C660 1.314 . S
N663 C661 1.279 . S
C664 C661 1.358 . S
C664 C665 1.356 . S
C664 H701 0.930 . S
C665 C662 1.348 . S
C665 C664 1.356 . S
H666 C660 0.930 . S
H667 C661 0.930 . S
C668 N669 1.314 . S
C668 C670 1.353 . S
C668 H674 0.930 . S
N669 Li619 1.990 . S
N669 C668 1.314 . S
N669 C672 1.279 . S
C670 C668 1.353 . S
C670 C673 1.348 . S
C670 H702 0.929 . S
C671 C672 1.358 . S
C671 C673 1.356 . S
C671 H703 0.930 . S
C672 N669 1.279 . S
C672 C671 1.358 . S
C672 H675 0.930 . S
C673 C670 1.348 . S
C673 C671 1.356 . S
H674 C668 0.930 . S
H675 C672 0.930 . S
O676 Li616 1.956 . S
O676 Li617 1.970 . S
O676 Li618 1.961 . S
O676 C620 1.325 . S
O677 Li616 1.970 . S
O677 Li617 1.956 . S
O677 Li619 1.961 . S
O677 C626 1.325 . S
O678 Li616 1.961 . S
O678 Li618 1.956 . S
O678 Li619 1.970 . S
O678 C648 1.325 . S
O679 Li617 1.961 . S
O679 Li618 1.970 . S
O679 Li619 1.956 . S
O679 C654 1.325 . S
H680 C622 0.929 . S
H681 C623 0.930 . S
H682 C624 0.930 . S
H683 C625 0.930 . S
H684 C627 0.930 . S
H685 C629 0.929 . S
H686 C630 0.930 . S
H687 C631 0.930 . S
H688 C634 0.930 . S
H689 C637 0.929 . S
H690 C642 0.929 . S
H691 C643 0.930 . S
H692 C650 0.929 . S
H693 C651 0.930 . S
H694 C652 0.930 . S
H695 C653 0.930 . S
H696 C655 0.929 . S
H697 C656 0.930 . S
H698 C657 0.930 . S
H699 C658 0.930 . S
H700 C662 0.929 . S
H701 C664 0.930 . S
H702 C670 0.929 . S
H703 C671 0.930 . S
Li704 N721 1.990 . S
Li704 O764 1.956 . S
Li704 O765 1.970 . S
Li704 O766 1.961 . S
Li705 N729 1.990 . S
Li705 O764 1.970 . S
Li705 O765 1.956 . S
Li705 O767 1.961 . S
Li706 N751 1.990 . S
Li706 O764 1.961 . S
Li706 O766 1.956 . S
Li706 O767 1.970 . S
Li707 N757 1.990 . S
Li707 O765 1.961 . S
Li707 O766 1.970 . S
Li707 O767 1.956 . S
C708 C710 1.348 . S
C708 C711 1.356 . S
C708 O764 1.325 . S
N709 C712 1.314 . S
N709 C713 1.279 . S
C710 C708 1.348 . S
C710 C712 1.353 . S
C710 H768 0.929 . S
C711 C708 1.356 . S
C711 C713 1.358 . S
C711 H769 0.930 . S
C712 N709 1.314 . S
C712 C710 1.353 . S
C712 H770 0.930 . S
C713 N709 1.279 . S
C713 C711 1.358 . S
C713 H771 0.930 . S
C714 C717 1.348 . S
C714 C718 1.356 . S
C714 O765 1.325 . S
C715 N716 1.279 . S
C715 C718 1.358 . S
C715 H772 0.930 . S
N716 C715 1.279 . S
N716 C719 1.314 . S
C717 C714 1.348 . S
C717 C719 1.353 . S
C717 H773 0.929 . S
C718 C714 1.356 . S
C718 C715 1.358 . S
C718 H774 0.930 . S
C719 N716 1.314 . S
C719 C717 1.353 . S
C719 H775 0.930 . S
C720 N721 1.314 . S
C720 C725 1.353 . S
C720 H726 0.930 . S
N721 Li704 1.990 . S
N721 C720 1.314 . S
N721 C723 1.279 . S
C722 C723 1.358 . S
C722 C724 1.356 . S
C722 H776 0.930 . S
C723 N721 1.279 . S
C723 C722 1.358 . S
C723 H727 0.930 . S
C724 C722 1.356 . S
C724 C725 1.348 . S
C725 C720 1.353 . S
C725 C724 1.348 . S
C725 H777 0.929 . S
H726 C720 0.930 . S
H727 C723 0.930 . S
C728 N729 1.314 . S
C728 C730 1.353 . S
C728 H734 0.930 . S
N729 Li705 1.990 . S
N729 C728 1.314 . S
N729 C732 1.279 . S
C730 C728 1.353 . S
C730 C733 1.348 . S
C730 H778 0.929 1_554 S
C731 C732 1.358 . S
C731 C733 1.356 . S
C731 H779 0.930 . S
C732 N729 1.279 . S
C732 C731 1.358 . S
C732 H735 0.930 . S
C733 C730 1.348 . S
C733 C731 1.356 . S
H734 C728 0.930 . S
H735 C732 0.930 . S
C736 C738 1.348 . S
C736 C739 1.356 . S
C736 O766 1.325 . S
N737 C740 1.314 . S
N737 C741 1.279 . S
C738 C736 1.348 . S
C738 C740 1.353 . S
C738 H780 0.929 . S
C739 C736 1.356 . S
C739 C741 1.358 . S
C739 H781 0.930 . S
C740 N737 1.314 . S
C740 C738 1.353 . S
C740 H782 0.930 . S
C741 N737 1.279 . S
C741 C739 1.358 . S
C741 H783 0.930 . S
C742 C743 1.348 . S
C742 C744 1.356 . S
C742 O767 1.325 . S
C743 C742 1.348 . S
C743 C745 1.353 1_554 S
C743 H784 0.929 . S
C744 C742 1.356 . S
C744 C746 1.358 1_554 S
C744 H785 0.930 . S
C745 C743 1.353 1_556 S
C745 N747 1.314 . S
C745 H786 0.930 . S
C746 C744 1.358 1_556 S
C746 N747 1.279 . S
C746 H787 0.930 . S
N747 C745 1.314 . S
N747 C746 1.279 . S
C748 C750 1.353 . S
C748 N751 1.314 . S
C748 H754 0.930 . S
C749 N751 1.279 . S
C749 C752 1.358 . S
C749 H755 0.930 . S
C750 C748 1.353 . S
C750 C753 1.348 . S
C750 H788 0.929 . S
N751 Li706 1.990 . S
N751 C748 1.314 . S
N751 C749 1.279 . S
C752 C749 1.358 . S
C752 C753 1.356 . S
C752 H789 0.930 . S
C753 C750 1.348 . S
C753 C752 1.356 . S
H754 C748 0.930 . S
H755 C749 0.930 . S
C756 N757 1.314 . S
C756 C758 1.353 . S
C756 H762 0.930 . S
N757 Li707 1.990 . S
N757 C756 1.314 . S
N757 C760 1.279 . S
C758 C756 1.353 . S
C758 C761 1.348 . S
C758 H790 0.929 . S
C759 C760 1.358 . S
C759 C761 1.356 . S
C759 H791 0.930 . S
C760 N757 1.279 . S
C760 C759 1.358 . S
C760 H763 0.930 . S
C761 C758 1.348 . S
C761 C759 1.356 . S
H762 C756 0.930 . S
H763 C760 0.930 . S
O764 Li704 1.956 . S
O764 Li705 1.970 . S
O764 Li706 1.961 . S
O764 C708 1.325 . S
O765 Li704 1.970 . S
O765 Li705 1.956 . S
O765 Li707 1.961 . S
O765 C714 1.325 . S
O766 Li704 1.961 . S
O766 Li706 1.956 . S
O766 Li707 1.970 . S
O766 C736 1.325 . S
O767 Li705 1.961 . S
O767 Li706 1.970 . S
O767 Li707 1.956 . S
O767 C742 1.325 . S
H768 C710 0.929 . S
H769 C711 0.930 . S
H770 C712 0.930 . S
H771 C713 0.930 . S
H772 C715 0.930 . S
H773 C717 0.929 . S
H774 C718 0.930 . S
H775 C719 0.930 . S
H776 C722 0.930 . S
H777 C725 0.929 . S
H778 C730 0.929 1_556 S
H779 C731 0.930 . S
H780 C738 0.929 . S
H781 C739 0.930 . S
H782 C740 0.930 . S
H783 C741 0.930 . S
H784 C743 0.929 . S
H785 C744 0.930 . S
H786 C745 0.930 . S
H787 C746 0.930 . S
H788 C750 0.929 . S
H789 C752 0.930 . S
H790 C758 0.929 . S
H791 C759 0.930 . S
Li792 N809 1.990 . S
Li792 O852 1.956 . S
Li792 O853 1.970 . S
Li792 O854 1.961 . S
Li793 N817 1.990 . S
Li793 O852 1.970 . S
Li793 O853 1.956 . S
Li793 O855 1.961 . S
Li794 N839 1.990 . S
Li794 O852 1.961 . S
Li794 O854 1.956 . S
Li794 O855 1.970 . S
Li795 N845 1.990 . S
Li795 O853 1.961 . S
Li795 O854 1.970 . S
Li795 O855 1.956 . S
C796 C798 1.348 . S
C796 C799 1.356 . S
C796 O852 1.325 . S
N797 C800 1.314 . S
N797 C801 1.279 . S
C798 C796 1.348 . S
C798 C800 1.353 . S
C798 H856 0.929 . S
C799 C796 1.356 . S
C799 C801 1.358 . S
C799 H857 0.930 . S
C800 N797 1.314 . S
C800 C798 1.353 . S
C800 H858 0.930 . S
C801 N797 1.279 . S
C801 C799 1.358 . S
C801 H859 0.930 . S
C802 C805 1.348 . S
C802 C806 1.356 . S
C802 O853 1.325 . S
C803 N804 1.279 . S
C803 C806 1.358 . S
C803 H860 0.930 . S
N804 C803 1.279 . S
N804 C807 1.314 . S
C805 C802 1.348 . S
C805 C807 1.353 . S
C805 H861 0.929 . S
C806 C802 1.356 . S
C806 C803 1.358 . S
C806 H862 0.930 . S
C807 N804 1.314 . S
C807 C805 1.353 . S
C807 H863 0.930 . S
C808 N809 1.314 . S
C808 C813 1.353 . S
C808 H814 0.930 . S
N809 Li792 1.990 . S
N809 C808 1.314 . S
N809 C811 1.279 . S
C810 C811 1.358 . S
C810 C812 1.356 . S
C810 H864 0.930 . S
C811 N809 1.279 . S
C811 C810 1.358 . S
C811 H815 0.930 . S
C812 C810 1.356 . S
C812 C813 1.348 . S
C813 C808 1.353 . S
C813 C812 1.348 . S
C813 H865 0.929 . S
H814 C808 0.930 . S
H815 C811 0.930 . S
C816 N817 1.314 . S
C816 C818 1.353 . S
C816 H822 0.930 . S
N817 Li793 1.990 . S
N817 C816 1.314 . S
N817 C820 1.279 . S
C818 C816 1.353 . S
C818 C821 1.348 . S
C818 H866 0.929 . S
C819 C820 1.358 . S
C819 C821 1.356 . S
C819 H867 0.930 . S
C820 N817 1.279 . S
C820 C819 1.358 . S
C820 H823 0.930 . S
C821 C818 1.348 . S
C821 C819 1.356 . S
H822 C816 0.930 . S
H823 C820 0.930 . S
C824 C826 1.348 . S
C824 C827 1.356 . S
C824 O854 1.325 . S
N825 C828 1.314 . S
N825 C829 1.279 . S
C826 C824 1.348 . S
C826 C828 1.353 . S
C826 H868 0.929 . S
C827 C824 1.356 . S
C827 C829 1.358 . S
C827 H869 0.930 . S
C828 N825 1.314 . S
C828 C826 1.353 . S
C828 H870 0.930 . S
C829 N825 1.279 . S
C829 C827 1.358 . S
C829 H871 0.930 . S
C830 C831 1.348 . S
C830 C832 1.356 . S
C830 O855 1.325 . S
C831 C830 1.348 . S
C831 C833 1.353 . S
C831 H872 0.929 . S
C832 C830 1.356 . S
C832 C834 1.358 . S
C832 H873 0.930 . S
C833 C831 1.353 . S
C833 N835 1.314 . S
C833 H874 0.930 . S
C834 C832 1.358 . S
C834 N835 1.279 . S
C834 H875 0.930 . S
N835 C833 1.314 . S
N835 C834 1.279 . S
C836 C838 1.353 . S
C836 N839 1.314 . S
C836 H842 0.930 . S
C837 N839 1.279 . S
C837 C840 1.358 . S
C837 H843 0.930 . S
C838 C836 1.353 . S
C838 C841 1.348 . S
C838 H876 0.929 . S
N839 Li794 1.990 . S
N839 C836 1.314 . S
N839 C837 1.279 . S
C840 C837 1.358 . S
C840 C841 1.356 . S
C840 H877 0.930 . S
C841 C838 1.348 . S
C841 C840 1.356 . S
H842 C836 0.930 . S
H843 C837 0.930 . S
C844 N845 1.314 . S
C844 C846 1.353 . S
C844 H850 0.930 . S
N845 Li795 1.990 . S
N845 C844 1.314 . S
N845 C848 1.279 . S
C846 C844 1.353 . S
C846 C849 1.348 . S
C846 H878 0.929 . S
C847 C848 1.358 . S
C847 C849 1.356 . S
C847 H879 0.930 . S
C848 N845 1.279 . S
C848 C847 1.358 . S
C848 H851 0.930 . S
C849 C846 1.348 . S
C849 C847 1.356 . S
H850 C844 0.930 . S
H851 C848 0.930 . S
O852 Li792 1.956 . S
O852 Li793 1.970 . S
O852 Li794 1.961 . S
O852 C796 1.325 . S
O853 Li792 1.970 . S
O853 Li793 1.956 . S
O853 Li795 1.961 . S
O853 C802 1.325 . S
O854 Li792 1.961 . S
O854 Li794 1.956 . S
O854 Li795 1.970 . S
O854 C824 1.325 . S
O855 Li793 1.961 . S
O855 Li794 1.970 . S
O855 Li795 1.956 . S
O855 C830 1.325 . S
H856 C798 0.929 . S
H857 C799 0.930 . S
H858 C800 0.930 . S
H859 C801 0.930 . S
H860 C803 0.930 . S
H861 C805 0.929 . S
H862 C806 0.930 . S
H863 C807 0.930 . S
H864 C810 0.930 . S
H865 C813 0.929 . S
H866 C818 0.929 . S
H867 C819 0.930 . S
H868 C826 0.929 . S
H869 C827 0.930 . S
H870 C828 0.930 . S
H871 C829 0.930 . S
H872 C831 0.929 . S
H873 C832 0.930 . S
H874 C833 0.930 . S
H875 C834 0.930 . S
H876 C838 0.929 . S
H877 C840 0.930 . S
H878 C846 0.929 . S
H879 C847 0.930 . S
Li880 N897 1.990 . S
Li880 O940 1.956 . S
Li880 O941 1.970 . S
Li880 O942 1.961 . S
Li881 N905 1.990 . S
Li881 O940 1.970 . S
Li881 O941 1.956 . S
Li881 O943 1.961 . S
Li882 N927 1.990 . S
Li882 O940 1.961 . S
Li882 O942 1.956 . S
Li882 O943 1.970 . S
Li883 N933 1.990 . S
Li883 O941 1.961 . S
Li883 O942 1.970 . S
Li883 O943 1.956 . S
C884 C886 1.348 . S
C884 C887 1.356 . S
C884 O940 1.325 . S
N885 C888 1.314 . S
N885 C889 1.279 . S
C886 C884 1.348 . S
C886 C888 1.353 . S
C886 H944 0.929 . S
C887 C884 1.356 . S
C887 C889 1.358 . S
C887 H945 0.930 . S
C888 N885 1.314 . S
C888 C886 1.353 . S
C888 H946 0.930 . S
C889 N885 1.279 . S
C889 C887 1.358 . S
C889 H947 0.930 . S
C890 C893 1.348 . S
C890 C894 1.356 . S
C890 O941 1.325 . S
C891 N892 1.279 . S
C891 C894 1.358 1_554 S
C891 H948 0.930 . S
N892 C891 1.279 . S
N892 C895 1.314 . S
C893 C890 1.348 . S
C893 C895 1.353 1_556 S
C893 H949 0.929 . S
C894 C890 1.356 . S
C894 C891 1.358 1_556 S
C894 H950 0.930 . S
C895 N892 1.314 . S
C895 C893 1.353 1_554 S
C895 H951 0.930 . S
C896 N897 1.314 . S
C896 C901 1.353 . S
C896 H902 0.930 . S
N897 Li880 1.990 . S
N897 C896 1.314 . S
N897 C899 1.279 . S
C898 C899 1.358 . S
C898 C900 1.356 . S
C898 H952 0.930 . S
C899 N897 1.279 . S
C899 C898 1.358 . S
C899 H903 0.930 . S
C900 C898 1.356 . S
C900 C901 1.348 . S
C901 C896 1.353 . S
C901 C900 1.348 . S
C901 H953 0.929 . S
H902 C896 0.930 . S
H903 C899 0.930 . S
C904 N905 1.314 . S
C904 C906 1.353 . S
C904 H910 0.930 . S
N905 Li881 1.990 . S
N905 C904 1.314 . S
N905 C908 1.279 . S
C906 C904 1.353 . S
C906 C909 1.348 . S
C906 H954 0.929 . S
C907 C908 1.358 . S
C907 C909 1.356 . S
C907 H955 0.930 . S
C908 N905 1.279 . S
C908 C907 1.358 . S
C908 H911 0.930 . S
C909 C906 1.348 . S
C909 C907 1.356 . S
H910 C904 0.930 . S
H911 C908 0.930 . S
C912 C914 1.348 . S
C912 C915 1.356 . S
C912 O942 1.325 . S
N913 C916 1.314 . S
N913 C917 1.279 . S
C914 C912 1.348 . S
C914 C916 1.353 . S
C914 H956 0.929 . S
C915 C912 1.356 . S
C915 C917 1.358 . S
C915 H957 0.930 . S
C916 N913 1.314 . S
C916 C914 1.353 . S
C916 H958 0.930 . S
C917 N913 1.279 . S
C917 C915 1.358 . S
C917 H959 0.930 . S
C918 C919 1.348 . S
C918 C920 1.356 . S
C918 O943 1.325 . S
C919 C918 1.348 . S
C919 C921 1.353 . S
C919 H960 0.929 . S
C920 C918 1.356 . S
C920 C922 1.358 . S
C920 H961 0.930 . S
C921 C919 1.353 . S
C921 N923 1.314 . S
C921 H962 0.930 . S
C922 C920 1.358 . S
C922 N923 1.279 . S
C922 H963 0.930 . S
N923 C921 1.314 . S
N923 C922 1.279 . S
C924 C926 1.353 . S
C924 N927 1.314 . S
C924 H930 0.930 . S
C925 N927 1.279 . S
C925 C928 1.358 . S
C925 H931 0.930 . S
C926 C924 1.353 . S
C926 C929 1.348 . S
C926 H964 0.929 . S
N927 Li882 1.990 . S
N927 C924 1.314 . S
N927 C925 1.279 . S
C928 C925 1.358 . S
C928 C929 1.356 . S
C928 H965 0.930 . S
C929 C926 1.348 . S
C929 C928 1.356 . S
H930 C924 0.930 . S
H931 C925 0.930 . S
C932 N933 1.314 . S
C932 C934 1.353 . S
C932 H938 0.930 . S
N933 Li883 1.990 . S
N933 C932 1.314 . S
N933 C936 1.279 . S
C934 C932 1.353 . S
C934 C937 1.348 . S
C934 H966 0.929 1_556 S
C935 C936 1.358 . S
C935 C937 1.356 . S
C935 H967 0.930 . S
C936 N933 1.279 . S
C936 C935 1.358 . S
C936 H939 0.930 . S
C937 C934 1.348 . S
C937 C935 1.356 . S
H938 C932 0.930 . S
H939 C936 0.930 . S
O940 Li880 1.956 . S
O940 Li881 1.970 . S
O940 Li882 1.961 . S
O940 C884 1.325 . S
O941 Li880 1.970 . S
O941 Li881 1.956 . S
O941 Li883 1.961 . S
O941 C890 1.325 . S
O942 Li880 1.961 . S
O942 Li882 1.956 . S
O942 Li883 1.970 . S
O942 C912 1.325 . S
O943 Li881 1.961 . S
O943 Li882 1.970 . S
O943 Li883 1.956 . S
O943 C918 1.325 . S
H944 C886 0.929 . S
H945 C887 0.930 . S
H946 C888 0.930 . S
H947 C889 0.930 . S
H948 C891 0.930 . S
H949 C893 0.929 . S
H950 C894 0.930 . S
H951 C895 0.930 . S
H952 C898 0.930 . S
H953 C901 0.929 . S
H954 C906 0.929 . S
H955 C907 0.930 . S
H956 C914 0.929 . S
H957 C915 0.930 . S
H958 C916 0.930 . S
H959 C917 0.930 . S
H960 C919 0.929 . S
H961 C920 0.930 . S
H962 C921 0.930 . S
H963 C922 0.930 . S
H964 C926 0.929 . S
H965 C928 0.930 . S
H966 C934 0.929 1_554 S
H967 C935 0.930 . S
Li968 N985 1.990 . S
Li968 O1028 1.956 . S
Li968 O1029 1.970 . S
Li968 O1030 1.961 . S
Li969 N993 1.990 . S
Li969 O1028 1.970 . S
Li969 O1029 1.956 . S
Li969 O1031 1.961 . S
Li970 N1015 1.990 . S
Li970 O1028 1.961 . S
Li970 O1030 1.956 . S
Li970 O1031 1.970 . S
Li971 N1021 1.990 . S
Li971 O1029 1.961 . S
Li971 O1030 1.970 . S
Li971 O1031 1.956 . S
C972 C974 1.348 . S
C972 C975 1.356 . S
C972 O1028 1.325 . S
N973 C976 1.314 . S
N973 C977 1.279 . S
C974 C972 1.348 . S
C974 C976 1.353 . S
C974 H1032 0.929 . S
C975 C972 1.356 . S
C975 C977 1.358 . S
C975 H1033 0.930 . S
C976 N973 1.314 . S
C976 C974 1.353 . S
C976 H1034 0.930 . S
C977 N973 1.279 . S
C977 C975 1.358 . S
C977 H1035 0.930 . S
C978 C981 1.348 . S
C978 C982 1.356 . S
C978 O1029 1.325 . S
C979 N980 1.279 . S
C979 C982 1.358 . S
C979 H1036 0.930 . S
N980 C979 1.279 . S
N980 C983 1.314 . S
C981 C978 1.348 . S
C981 C983 1.353 . S
C981 H1037 0.929 . S
C982 C978 1.356 . S
C982 C979 1.358 . S
C982 H1038 0.930 . S
C983 N980 1.314 . S
C983 C981 1.353 . S
C983 H1039 0.930 . S
C984 N985 1.314 . S
C984 C989 1.353 . S
C984 H990 0.930 . S
N985 Li968 1.990 . S
N985 C984 1.314 . S
N985 C987 1.279 . S
C986 C987 1.358 . S
C986 C988 1.356 . S
C986 H1040 0.930 . S
C987 N985 1.279 . S
C987 C986 1.358 . S
C987 H991 0.930 . S
C988 C986 1.356 . S
C988 C989 1.348 . S
C989 C984 1.353 . S
C989 C988 1.348 . S
C989 H1041 0.929 . S
H990 C984 0.930 . S
H991 C987 0.930 . S
C992 N993 1.314 . S
C992 C994 1.353 . S
C992 H998 0.930 . S
N993 Li969 1.990 . S
N993 C992 1.314 . S
N993 C996 1.279 . S
C994 C992 1.353 . S
C994 C997 1.348 . S
C994 H1042 0.929 . S
C995 C996 1.358 . S
C995 C997 1.356 . S
C995 H1043 0.930 . S
C996 N993 1.279 . S
C996 C995 1.358 . S
C996 H999 0.930 . S
C997 C994 1.348 . S
C997 C995 1.356 . S
H998 C992 0.930 . S
H999 C996 0.930 . S
C1000 C1002 1.348 . S
C1000 C1003 1.356 . S
C1000 O1030 1.325 . S
N1001 C1004 1.314 . S
N1001 C1005 1.279 . S
C1002 C1000 1.348 . S
C1002 C1004 1.353 . S
C1002 H1044 0.929 . S
C1003 C1000 1.356 . S
C1003 C1005 1.358 . S
C1003 H1045 0.930 . S
C1004 N1001 1.314 . S
C1004 C1002 1.353 . S
C1004 H1046 0.930 . S
C1005 N1001 1.279 . S
C1005 C1003 1.358 . S
C1005 H1047 0.930 . S
C1006 C1007 1.348 . S
C1006 C1008 1.356 . S
C1006 O1031 1.325 . S
C1007 C1006 1.348 . S
C1007 C1009 1.353 . S
C1007 H1048 0.929 . S
C1008 C1006 1.356 . S
C1008 C1010 1.358 . S
C1008 H1049 0.930 . S
C1009 C1007 1.353 . S
C1009 N1011 1.314 . S
C1009 H1050 0.930 . S
C1010 C1008 1.358 . S
C1010 N1011 1.279 . S
C1010 H1051 0.930 . S
N1011 C1009 1.314 . S
N1011 C1010 1.279 . S
C1012 C1014 1.353 . S
C1012 N1015 1.314 . S
C1012 H1018 0.930 . S
C1013 N1015 1.279 . S
C1013 C1016 1.358 . S
C1013 H1019 0.930 . S
C1014 C1012 1.353 . S
C1014 C1017 1.348 . S
C1014 H1052 0.929 . S
N1015 Li970 1.990 . S
N1015 C1012 1.314 . S
N1015 C1013 1.279 . S
C1016 C1013 1.358 . S
C1016 C1017 1.356 . S
C1016 H1053 0.930 . S
C1017 C1014 1.348 . S
C1017 C1016 1.356 . S
H1018 C1012 0.930 . S
H1019 C1013 0.930 . S
C1020 N1021 1.314 . S
C1020 C1022 1.353 . S
C1020 H1026 0.930 . S
N1021 Li971 1.990 . S
N1021 C1020 1.314 . S
N1021 C1024 1.279 . S
C1022 C1020 1.353 . S
C1022 C1025 1.348 . S
C1022 H1054 0.929 . S
C1023 C1024 1.358 . S
C1023 C1025 1.356 . S
C1023 H1055 0.930 . S
C1024 N1021 1.279 . S
C1024 C1023 1.358 . S
C1024 H1027 0.930 . S
C1025 C1022 1.348 . S
C1025 C1023 1.356 . S
H1026 C1020 0.930 . S
H1027 C1024 0.930 . S
O1028 Li968 1.956 . S
O1028 Li969 1.970 . S
O1028 Li970 1.961 . S
O1028 C972 1.325 . S
O1029 Li968 1.970 . S
O1029 Li969 1.956 . S
O1029 Li971 1.961 . S
O1029 C978 1.325 . S
O1030 Li968 1.961 . S
O1030 Li970 1.956 . S
O1030 Li971 1.970 . S
O1030 C1000 1.325 . S
O1031 Li969 1.961 . S
O1031 Li970 1.970 . S
O1031 Li971 1.956 . S
O1031 C1006 1.325 . S
H1032 C974 0.929 . S
H1033 C975 0.930 . S
H1034 C976 0.930 . S
H1035 C977 0.930 . S
H1036 C979 0.930 . S
H1037 C981 0.929 . S
H1038 C982 0.930 . S
H1039 C983 0.930 . S
H1040 C986 0.930 . S
H1041 C989 0.929 . S
H1042 C994 0.929 . S
H1043 C995 0.930 . S
H1044 C1002 0.929 . S
H1045 C1003 0.930 . S
H1046 C1004 0.930 . S
H1047 C1005 0.930 . S
H1048 C1007 0.929 . S
H1049 C1008 0.930 . S
H1050 C1009 0.930 . S
H1051 C1010 0.930 . S
H1052 C1014 0.929 . S
H1053 C1016 0.930 . S
H1054 C1022 0.929 . S
H1055 C1023 0.930 . S
Li1056 N1073 1.990 . S
Li1056 O1116 1.956 . S
Li1056 O1117 1.970 . S
Li1056 O1118 1.961 . S
Li1057 N1081 1.990 . S
Li1057 O1116 1.970 . S
Li1057 O1117 1.956 . S
Li1057 O1119 1.961 . S
Li1058 N1103 1.990 . S
Li1058 O1116 1.961 . S
Li1058 O1118 1.956 . S
Li1058 O1119 1.970 . S
Li1059 N1109 1.990 . S
Li1059 O1117 1.961 . S
Li1059 O1118 1.970 . S
Li1059 O1119 1.956 . S
C1060 C1062 1.348 . S
C1060 C1063 1.356 . S
C1060 O1116 1.325 . S
N1061 C1064 1.314 . S
N1061 C1065 1.279 . S
C1062 C1060 1.348 . S
C1062 C1064 1.353 1_556 S
C1062 H1120 0.929 . S
C1063 C1060 1.356 . S
C1063 C1065 1.358 1_556 S
C1063 H1121 0.930 . S
C1064 N1061 1.314 . S
C1064 C1062 1.353 1_554 S
C1064 H1122 0.930 . S
C1065 N1061 1.279 . S
C1065 C1063 1.358 1_554 S
C1065 H1123 0.930 . S
C1066 C1069 1.348 . S
C1066 C1070 1.356 . S
C1066 O1117 1.325 . S
C1067 N1068 1.279 . S
C1067 C1070 1.358 . S
C1067 H1124 0.930 . S
N1068 C1067 1.279 . S
N1068 C1071 1.314 . S
C1069 C1066 1.348 . S
C1069 C1071 1.353 . S
C1069 H1125 0.929 . S
C1070 C1066 1.356 . S
C1070 C1067 1.358 . S
C1070 H1126 0.930 . S
C1071 N1068 1.314 . S
C1071 C1069 1.353 . S
C1071 H1127 0.930 . S
C1072 N1073 1.314 . S
C1072 C1077 1.353 . S
C1072 H1078 0.930 . S
N1073 Li1056 1.990 . S
N1073 C1072 1.314 . S
N1073 C1075 1.279 . S
C1074 C1075 1.358 . S
C1074 C1076 1.356 . S
C1074 H1128 0.930 1_556 S
C1075 N1073 1.279 . S
C1075 C1074 1.358 . S
C1075 H1079 0.930 . S
C1076 C1074 1.356 . S
C1076 C1077 1.348 . S
C1077 C1072 1.353 . S
C1077 C1076 1.348 . S
C1077 H1129 0.929 . S
H1078 C1072 0.930 . S
H1079 C1075 0.930 . S
C1080 N1081 1.314 . S
C1080 C1082 1.353 . S
C1080 H1086 0.930 . S
N1081 Li1057 1.990 . S
N1081 C1080 1.314 . S
N1081 C1084 1.279 . S
C1082 C1080 1.353 . S
C1082 C1085 1.348 . S
C1082 H1130 0.929 . S
C1083 C1084 1.358 . S
C1083 C1085 1.356 . S
C1083 H1131 0.930 . S
C1084 N1081 1.279 . S
C1084 C1083 1.358 . S
C1084 H1087 0.930 . S
C1085 C1082 1.348 . S
C1085 C1083 1.356 . S
H1086 C1080 0.930 . S
H1087 C1084 0.930 . S
C1088 C1090 1.348 . S
C1088 C1091 1.356 . S
C1088 O1118 1.325 . S
N1089 C1092 1.314 . S
N1089 C1093 1.279 . S
C1090 C1088 1.348 . S
C1090 C1092 1.353 . S
C1090 H1132 0.929 . S
C1091 C1088 1.356 . S
C1091 C1093 1.358 . S
C1091 H1133 0.930 . S
C1092 N1089 1.314 . S
C1092 C1090 1.353 . S
C1092 H1134 0.930 . S
C1093 N1089 1.279 . S
C1093 C1091 1.358 . S
C1093 H1135 0.930 . S
C1094 C1095 1.348 . S
C1094 C1096 1.356 . S
C1094 O1119 1.325 . S
C1095 C1094 1.348 . S
C1095 C1097 1.353 . S
C1095 H1136 0.929 . S
C1096 C1094 1.356 . S
C1096 C1098 1.358 . S
C1096 H1137 0.930 . S
C1097 C1095 1.353 . S
C1097 N1099 1.314 . S
C1097 H1138 0.930 . S
C1098 C1096 1.358 . S
C1098 N1099 1.279 . S
C1098 H1139 0.930 . S
N1099 C1097 1.314 . S
N1099 C1098 1.279 . S
C1100 C1102 1.353 . S
C1100 N1103 1.314 . S
C1100 H1106 0.930 . S
C1101 N1103 1.279 . S
C1101 C1104 1.358 . S
C1101 H1107 0.930 . S
C1102 C1100 1.353 . S
C1102 C1105 1.348 . S
C1102 H1140 0.929 . S
N1103 Li1058 1.990 . S
N1103 C1100 1.314 . S
N1103 C1101 1.279 . S
C1104 C1101 1.358 . S
C1104 C1105 1.356 . S
C1104 H1141 0.930 . S
C1105 C1102 1.348 . S
C1105 C1104 1.356 . S
H1106 C1100 0.930 . S
H1107 C1101 0.930 . S
C1108 N1109 1.314 . S
C1108 C1110 1.353 . S
C1108 H1114 0.930 . S
N1109 Li1059 1.990 . S
N1109 C1108 1.314 . S
N1109 C1112 1.279 . S
C1110 C1108 1.353 . S
C1110 C1113 1.348 . S
C1110 H1142 0.929 . S
C1111 C1112 1.358 . S
C1111 C1113 1.356 . S
C1111 H1143 0.930 . S
C1112 N1109 1.279 . S
C1112 C1111 1.358 . S
C1112 H1115 0.930 . S
C1113 C1110 1.348 . S
C1113 C1111 1.356 . S
H1114 C1108 0.930 . S
H1115 C1112 0.930 . S
O1116 Li1056 1.956 . S
O1116 Li1057 1.970 . S
O1116 Li1058 1.961 . S
O1116 C1060 1.325 . S
O1117 Li1056 1.970 . S
O1117 Li1057 1.956 . S
O1117 Li1059 1.961 . S
O1117 C1066 1.325 . S
O1118 Li1056 1.961 . S
O1118 Li1058 1.956 . S
O1118 Li1059 1.970 . S
O1118 C1088 1.325 . S
O1119 Li1057 1.961 . S
O1119 Li1058 1.970 . S
O1119 Li1059 1.956 . S
O1119 C1094 1.325 . S
H1120 C1062 0.929 . S
H1121 C1063 0.930 . S
H1122 C1064 0.930 . S
H1123 C1065 0.930 . S
H1124 C1067 0.930 . S
H1125 C1069 0.929 . S
H1126 C1070 0.930 . S
H1127 C1071 0.930 . S
H1128 C1074 0.930 1_554 S
H1129 C1077 0.929 . S
H1130 C1082 0.929 . S
H1131 C1083 0.930 . S
H1132 C1090 0.929 . S
H1133 C1091 0.930 . S
H1134 C1092 0.930 . S
H1135 C1093 0.930 . S
H1136 C1095 0.929 . S
H1137 C1096 0.930 . S
H1138 C1097 0.930 . S
H1139 C1098 0.930 . S
H1140 C1102 0.929 . S
H1141 C1104 0.930 . S
H1142 C1110 0.929 . S
H1143 C1111 0.930 . S
Li1144 N1161 1.990 . S
Li1144 O1204 1.956 . S
Li1144 O1205 1.970 . S
Li1144 O1206 1.961 . S
Li1145 N1169 1.990 . S
Li1145 O1204 1.970 . S
Li1145 O1205 1.956 . S
Li1145 O1207 1.961 . S
Li1146 N1191 1.990 . S
Li1146 O1204 1.961 . S
Li1146 O1206 1.956 . S
Li1146 O1207 1.970 . S
Li1147 N1197 1.990 . S
Li1147 O1205 1.961 . S
Li1147 O1206 1.970 . S
Li1147 O1207 1.956 . S
C1148 C1150 1.348 . S
C1148 C1151 1.356 . S
C1148 O1204 1.325 . S
N1149 C1152 1.314 . S
N1149 C1153 1.279 . S
C1150 C1148 1.348 . S
C1150 C1152 1.353 . S
C1150 H1208 0.929 . S
C1151 C1148 1.356 . S
C1151 C1153 1.358 . S
C1151 H1209 0.930 . S
C1152 N1149 1.314 . S
C1152 C1150 1.353 . S
C1152 H1210 0.930 . S
C1153 N1149 1.279 . S
C1153 C1151 1.358 . S
C1153 H1211 0.930 . S
C1154 C1157 1.348 . S
C1154 C1158 1.356 . S
C1154 O1205 1.325 . S
C1155 N1156 1.279 . S
C1155 C1158 1.358 . S
C1155 H1212 0.930 . S
N1156 C1155 1.279 . S
N1156 C1159 1.314 . S
C1157 C1154 1.348 . S
C1157 C1159 1.353 . S
C1157 H1213 0.929 . S
C1158 C1154 1.356 . S
C1158 C1155 1.358 . S
C1158 H1214 0.930 . S
C1159 N1156 1.314 . S
C1159 C1157 1.353 . S
C1159 H1215 0.930 . S
C1160 N1161 1.314 . S
C1160 C1165 1.353 . S
C1160 H1166 0.930 . S
N1161 Li1144 1.990 . S
N1161 C1160 1.314 . S
N1161 C1163 1.279 . S
C1162 C1163 1.358 . S
C1162 C1164 1.356 . S
C1162 H1216 0.930 . S
C1163 N1161 1.279 . S
C1163 C1162 1.358 . S
C1163 H1167 0.930 . S
C1164 C1162 1.356 . S
C1164 C1165 1.348 . S
C1165 C1160 1.353 . S
C1165 C1164 1.348 . S
C1165 H1217 0.929 . S
H1166 C1160 0.930 . S
H1167 C1163 0.930 . S
C1168 N1169 1.314 . S
C1168 C1170 1.353 . S
C1168 H1174 0.930 . S
N1169 Li1145 1.990 . S
N1169 C1168 1.314 . S
N1169 C1172 1.279 . S
C1170 C1168 1.353 . S
C1170 C1173 1.348 . S
C1170 H1218 0.929 . S
C1171 C1172 1.358 . S
C1171 C1173 1.356 . S
C1171 H1219 0.930 . S
C1172 N1169 1.279 . S
C1172 C1171 1.358 . S
C1172 H1175 0.930 . S
C1173 C1170 1.348 . S
C1173 C1171 1.356 . S
H1174 C1168 0.930 . S
H1175 C1172 0.930 . S
C1176 C1178 1.348 . S
C1176 C1179 1.356 . S
C1176 O1206 1.325 . S
N1177 C1180 1.314 . S
N1177 C1181 1.279 . S
C1178 C1176 1.348 . S
C1178 C1180 1.353 . S
C1178 H1220 0.929 . S
C1179 C1176 1.356 . S
C1179 C1181 1.358 . S
C1179 H1221 0.930 . S
C1180 N1177 1.314 . S
C1180 C1178 1.353 . S
C1180 H1222 0.930 . S
C1181 N1177 1.279 . S
C1181 C1179 1.358 . S
C1181 H1223 0.930 . S
C1182 C1183 1.348 . S
C1182 C1184 1.356 . S
C1182 O1207 1.325 . S
C1183 C1182 1.348 . S
C1183 C1185 1.353 . S
C1183 H1224 0.929 . S
C1184 C1182 1.356 . S
C1184 C1186 1.358 . S
C1184 H1225 0.930 . S
C1185 C1183 1.353 . S
C1185 N1187 1.314 . S
C1185 H1226 0.930 . S
C1186 C1184 1.358 . S
C1186 N1187 1.279 . S
C1186 H1227 0.930 . S
N1187 C1185 1.314 . S
N1187 C1186 1.279 . S
C1188 C1190 1.353 . S
C1188 N1191 1.314 . S
C1188 H1194 0.930 . S
C1189 N1191 1.279 . S
C1189 C1192 1.358 . S
C1189 H1195 0.930 . S
C1190 C1188 1.353 . S
C1190 C1193 1.348 . S
C1190 H1228 0.929 . S
N1191 Li1146 1.990 . S
N1191 C1188 1.314 . S
N1191 C1189 1.279 . S
C1192 C1189 1.358 . S
C1192 C1193 1.356 . S
C1192 H1229 0.930 . S
C1193 C1190 1.348 . S
C1193 C1192 1.356 . S
H1194 C1188 0.930 . S
H1195 C1189 0.930 . S
C1196 N1197 1.314 . S
C1196 C1198 1.353 . S
C1196 H1202 0.930 . S
N1197 Li1147 1.990 . S
N1197 C1196 1.314 . S
N1197 C1200 1.279 . S
C1198 C1196 1.353 . S
C1198 C1201 1.348 . S
C1198 H1230 0.929 . S
C1199 C1200 1.358 . S
C1199 C1201 1.356 . S
C1199 H1231 0.930 . S
C1200 N1197 1.279 . S
C1200 C1199 1.358 . S
C1200 H1203 0.930 . S
C1201 C1198 1.348 . S
C1201 C1199 1.356 . S
H1202 C1196 0.930 . S
H1203 C1200 0.930 . S
O1204 Li1144 1.956 . S
O1204 Li1145 1.970 . S
O1204 Li1146 1.961 . S
O1204 C1148 1.325 . S
O1205 Li1144 1.970 . S
O1205 Li1145 1.956 . S
O1205 Li1147 1.961 . S
O1205 C1154 1.325 . S
O1206 Li1144 1.961 . S
O1206 Li1146 1.956 . S
O1206 Li1147 1.970 . S
O1206 C1176 1.325 . S
O1207 Li1145 1.961 . S
O1207 Li1146 1.970 . S
O1207 Li1147 1.956 . S
O1207 C1182 1.325 . S
H1208 C1150 0.929 . S
H1209 C1151 0.930 . S
H1210 C1152 0.930 . S
H1211 C1153 0.930 . S
H1212 C1155 0.930 . S
H1213 C1157 0.929 . S
H1214 C1158 0.930 . S
H1215 C1159 0.930 . S
H1216 C1162 0.930 . S
H1217 C1165 0.929 . S
H1218 C1170 0.929 . S
H1219 C1171 0.930 . S
H1220 C1178 0.929 . S
H1221 C1179 0.930 . S
H1222 C1180 0.930 . S
H1223 C1181 0.930 . S
H1224 C1183 0.929 . S
H1225 C1184 0.930 . S
H1226 C1185 0.930 . S
H1227 C1186 0.930 . S
H1228 C1190 0.929 . S
H1229 C1192 0.930 . S
H1230 C1198 0.929 . S
H1231 C1199 0.930 . S
Li1232 N1249 1.990 . S
Li1232 O1292 1.956 . S
Li1232 O1293 1.970 . S
Li1232 O1294 1.961 . S
Li1233 N1257 1.990 . S
Li1233 O1292 1.970 . S
Li1233 O1293 1.956 . S
Li1233 O1295 1.961 . S
Li1234 N1279 1.990 . S
Li1234 O1292 1.961 . S
Li1234 O1294 1.956 . S
Li1234 O1295 1.970 . S
Li1235 N1285 1.990 . S
Li1235 O1293 1.961 . S
Li1235 O1294 1.970 . S
Li1235 O1295 1.956 . S
C1236 C1238 1.348 . S
C1236 C1239 1.356 . S
C1236 O1292 1.325 . S
N1237 C1240 1.314 . S
N1237 C1241 1.279 . S
C1238 C1236 1.348 . S
C1238 C1240 1.353 . S
C1238 H1296 0.929 . S
C1239 C1236 1.356 . S
C1239 C1241 1.358 . S
C1239 H1297 0.930 . S
C1240 N1237 1.314 . S
C1240 C1238 1.353 . S
C1240 H1298 0.930 . S
C1241 N1237 1.279 . S
C1241 C1239 1.358 . S
C1241 H1299 0.930 . S
C1242 C1245 1.348 . S
C1242 C1246 1.356 . S
C1242 O1293 1.325 . S
C1243 N1244 1.279 . S
C1243 C1246 1.358 . S
C1243 H1300 0.930 . S
N1244 C1243 1.279 . S
N1244 C1247 1.314 . S
C1245 C1242 1.348 . S
C1245 C1247 1.353 . S
C1245 H1301 0.929 . S
C1246 C1242 1.356 . S
C1246 C1243 1.358 . S
C1246 H1302 0.930 . S
C1247 N1244 1.314 . S
C1247 C1245 1.353 . S
C1247 H1303 0.930 . S
C1248 N1249 1.314 . S
C1248 C1253 1.353 . S
C1248 H1254 0.930 . S
N1249 Li1232 1.990 . S
N1249 C1248 1.314 . S
N1249 C1251 1.279 . S
C1250 C1251 1.358 . S
C1250 C1252 1.356 . S
C1250 H1304 0.930 . S
C1251 N1249 1.279 . S
C1251 C1250 1.358 . S
C1251 H1255 0.930 . S
C1252 C1250 1.356 . S
C1252 C1253 1.348 . S
C1253 C1248 1.353 . S
C1253 C1252 1.348 . S
C1253 H1305 0.929 . S
H1254 C1248 0.930 . S
H1255 C1251 0.930 . S
C1256 N1257 1.314 . S
C1256 C1258 1.353 . S
C1256 H1262 0.930 . S
N1257 Li1233 1.990 . S
N1257 C1256 1.314 . S
N1257 C1260 1.279 . S
C1258 C1256 1.353 . S
C1258 C1261 1.348 . S
C1258 H1306 0.929 . S
C1259 C1260 1.358 . S
C1259 C1261 1.356 . S
C1259 H1307 0.930 . S
C1260 N1257 1.279 . S
C1260 C1259 1.358 . S
C1260 H1263 0.930 . S
C1261 C1258 1.348 . S
C1261 C1259 1.356 . S
H1262 C1256 0.930 . S
H1263 C1260 0.930 . S
C1264 C1266 1.348 . S
C1264 C1267 1.356 . S
C1264 O1294 1.325 . S
N1265 C1268 1.314 . S
N1265 C1269 1.279 . S
C1266 C1264 1.348 . S
C1266 C1268 1.353 . S
C1266 H1308 0.929 . S
C1267 C1264 1.356 . S
C1267 C1269 1.358 . S
C1267 H1309 0.930 . S
C1268 N1265 1.314 . S
C1268 C1266 1.353 . S
C1268 H1310 0.930 . S
C1269 N1265 1.279 . S
C1269 C1267 1.358 . S
C1269 H1311 0.930 . S
C1270 C1271 1.348 . S
C1270 C1272 1.356 . S
C1270 O1295 1.325 . S
C1271 C1270 1.348 . S
C1271 C1273 1.353 1_554 S
C1271 H1312 0.929 . S
C1272 C1270 1.356 . S
C1272 C1274 1.358 1_554 S
C1272 H1313 0.930 . S
C1273 C1271 1.353 1_556 S
C1273 N1275 1.314 . S
C1273 H1314 0.930 . S
C1274 C1272 1.358 1_556 S
C1274 N1275 1.279 . S
C1274 H1315 0.930 . S
N1275 C1273 1.314 . S
N1275 C1274 1.279 . S
C1276 C1278 1.353 . S
C1276 N1279 1.314 . S
C1276 H1282 0.930 . S
C1277 N1279 1.279 . S
C1277 C1280 1.358 . S
C1277 H1283 0.930 . S
C1278 C1276 1.353 . S
C1278 C1281 1.348 . S
C1278 H1316 0.929 . S
N1279 Li1234 1.990 . S
N1279 C1276 1.314 . S
N1279 C1277 1.279 . S
C1280 C1277 1.358 . S
C1280 C1281 1.356 . S
C1280 H1317 0.930 . S
C1281 C1278 1.348 . S
C1281 C1280 1.356 . S
H1282 C1276 0.930 . S
H1283 C1277 0.930 . S
C1284 N1285 1.314 . S
C1284 C1286 1.353 . S
C1284 H1290 0.930 . S
N1285 Li1235 1.990 . S
N1285 C1284 1.314 . S
N1285 C1288 1.279 . S
C1286 C1284 1.353 . S
C1286 C1289 1.348 . S
C1286 H1318 0.929 . S
C1287 C1288 1.358 . S
C1287 C1289 1.356 . S
C1287 H1319 0.930 1_554 S
C1288 N1285 1.279 . S
C1288 C1287 1.358 . S
C1288 H1291 0.930 . S
C1289 C1286 1.348 . S
C1289 C1287 1.356 . S
H1290 C1284 0.930 . S
H1291 C1288 0.930 . S
O1292 Li1232 1.956 . S
O1292 Li1233 1.970 . S
O1292 Li1234 1.961 . S
O1292 C1236 1.325 . S
O1293 Li1232 1.970 . S
O1293 Li1233 1.956 . S
O1293 Li1235 1.961 . S
O1293 C1242 1.325 . S
O1294 Li1232 1.961 . S
O1294 Li1234 1.956 . S
O1294 Li1235 1.970 . S
O1294 C1264 1.325 . S
O1295 Li1233 1.961 . S
O1295 Li1234 1.970 . S
O1295 Li1235 1.956 . S
O1295 C1270 1.325 . S
H1296 C1238 0.929 . S
H1297 C1239 0.930 . S
H1298 C1240 0.930 . S
H1299 C1241 0.930 . S
H1300 C1243 0.930 . S
H1301 C1245 0.929 . S
H1302 C1246 0.930 . S
H1303 C1247 0.930 . S
H1304 C1250 0.930 . S
H1305 C1253 0.929 . S
H1306 C1258 0.929 . S
H1307 C1259 0.930 . S
H1308 C1266 0.929 . S
H1309 C1267 0.930 . S
H1310 C1268 0.930 . S
H1311 C1269 0.930 . S
H1312 C1271 0.929 . S
H1313 C1272 0.930 . S
H1314 C1273 0.930 . S
H1315 C1274 0.930 . S
H1316 C1278 0.929 . S
H1317 C1280 0.930 . S
H1318 C1286 0.929 . S
H1319 C1287 0.930 1_556 S
Li1320 N1337 1.990 . S
Li1320 O1380 1.956 . S
Li1320 O1381 1.970 . S
Li1320 O1382 1.961 . S
Li1321 N1345 1.990 . S
Li1321 O1380 1.970 . S
Li1321 O1381 1.956 . S
Li1321 O1383 1.961 . S
Li1322 N1367 1.990 . S
Li1322 O1380 1.961 . S
Li1322 O1382 1.956 . S
Li1322 O1383 1.970 . S
Li1323 N1373 1.990 . S
Li1323 O1381 1.961 . S
Li1323 O1382 1.970 . S
Li1323 O1383 1.956 . S
C1324 C1326 1.348 . S
C1324 C1327 1.356 . S
C1324 O1380 1.325 . S
N1325 C1328 1.314 . S
N1325 C1329 1.279 . S
C1326 C1324 1.348 . S
C1326 C1328 1.353 . S
C1326 H1384 0.929 . S
C1327 C1324 1.356 . S
C1327 C1329 1.358 . S
C1327 H1385 0.930 . S
C1328 N1325 1.314 . S
C1328 C1326 1.353 . S
C1328 H1386 0.930 . S
C1329 N1325 1.279 . S
C1329 C1327 1.358 . S
C1329 H1387 0.930 . S
C1330 C1333 1.348 . S
C1330 C1334 1.356 . S
C1330 O1381 1.325 . S
C1331 N1332 1.279 . S
C1331 C1334 1.358 . S
C1331 H1388 0.930 . S
N1332 C1331 1.279 . S
N1332 C1335 1.314 . S
C1333 C1330 1.348 . S
C1333 C1335 1.353 . S
C1333 H1389 0.929 . S
C1334 C1330 1.356 . S
C1334 C1331 1.358 . S
C1334 H1390 0.930 . S
C1335 N1332 1.314 . S
C1335 C1333 1.353 . S
C1335 H1391 0.930 . S
C1336 N1337 1.314 . S
C1336 C1341 1.353 . S
C1336 H1342 0.930 . S
N1337 Li1320 1.990 . S
N1337 C1336 1.314 . S
N1337 C1339 1.279 . S
C1338 C1339 1.358 . S
C1338 C1340 1.356 . S
C1338 H1392 0.930 . S
C1339 N1337 1.279 . S
C1339 C1338 1.358 . S
C1339 H1343 0.930 . S
C1340 C1338 1.356 . S
C1340 C1341 1.348 . S
C1341 C1336 1.353 . S
C1341 C1340 1.348 . S
C1341 H1393 0.929 . S
H1342 C1336 0.930 . S
H1343 C1339 0.930 . S
C1344 N1345 1.314 . S
C1344 C1346 1.353 . S
C1344 H1350 0.930 . S
N1345 Li1321 1.990 . S
N1345 C1344 1.314 . S
N1345 C1348 1.279 . S
C1346 C1344 1.353 . S
C1346 C1349 1.348 . S
C1346 H1394 0.929 . S
C1347 C1348 1.358 . S
C1347 C1349 1.356 . S
C1347 H1395 0.930 . S
C1348 N1345 1.279 . S
C1348 C1347 1.358 . S
C1348 H1351 0.930 . S
C1349 C1346 1.348 . S
C1349 C1347 1.356 . S
H1350 C1344 0.930 . S
H1351 C1348 0.930 . S
C1352 C1354 1.348 . S
C1352 C1355 1.356 . S
C1352 O1382 1.325 . S
N1353 C1356 1.314 . S
N1353 C1357 1.279 . S
C1354 C1352 1.348 . S
C1354 C1356 1.353 . S
C1354 H1396 0.929 . S
C1355 C1352 1.356 . S
C1355 C1357 1.358 . S
C1355 H1397 0.930 . S
C1356 N1353 1.314 . S
C1356 C1354 1.353 . S
C1356 H1398 0.930 . S
C1357 N1353 1.279 . S
C1357 C1355 1.358 . S
C1357 H1399 0.930 . S
C1358 C1359 1.348 . S
C1358 C1360 1.356 . S
C1358 O1383 1.325 . S
C1359 C1358 1.348 . S
C1359 C1361 1.353 . S
C1359 H1400 0.929 . S
C1360 C1358 1.356 . S
C1360 C1362 1.358 . S
C1360 H1401 0.930 . S
C1361 C1359 1.353 . S
C1361 N1363 1.314 . S
C1361 H1402 0.930 . S
C1362 C1360 1.358 . S
C1362 N1363 1.279 . S
C1362 H1403 0.930 . S
N1363 C1361 1.314 . S
N1363 C1362 1.279 . S
C1364 C1366 1.353 . S
C1364 N1367 1.314 . S
C1364 H1370 0.930 . S
C1365 N1367 1.279 . S
C1365 C1368 1.358 . S
C1365 H1371 0.930 . S
C1366 C1364 1.353 . S
C1366 C1369 1.348 . S
C1366 H1404 0.929 . S
N1367 Li1322 1.990 . S
N1367 C1364 1.314 . S
N1367 C1365 1.279 . S
C1368 C1365 1.358 . S
C1368 C1369 1.356 . S
C1368 H1405 0.930 . S
C1369 C1366 1.348 . S
C1369 C1368 1.356 . S
H1370 C1364 0.930 . S
H1371 C1365 0.930 . S
C1372 N1373 1.314 . S
C1372 C1374 1.353 . S
C1372 H1378 0.930 . S
N1373 Li1323 1.990 . S
N1373 C1372 1.314 . S
N1373 C1376 1.279 . S
C1374 C1372 1.353 . S
C1374 C1377 1.348 . S
C1374 H1406 0.929 . S
C1375 C1376 1.358 . S
C1375 C1377 1.356 . S
C1375 H1407 0.930 . S
C1376 N1373 1.279 . S
C1376 C1375 1.358 . S
C1376 H1379 0.930 . S
C1377 C1374 1.348 . S
C1377 C1375 1.356 . S
H1378 C1372 0.930 . S
H1379 C1376 0.930 . S
O1380 Li1320 1.956 . S
O1380 Li1321 1.970 . S
O1380 Li1322 1.961 . S
O1380 C1324 1.325 . S
O1381 Li1320 1.970 . S
O1381 Li1321 1.956 . S
O1381 Li1323 1.961 . S
O1381 C1330 1.325 . S
O1382 Li1320 1.961 . S
O1382 Li1322 1.956 . S
O1382 Li1323 1.970 . S
O1382 C1352 1.325 . S
O1383 Li1321 1.961 . S
O1383 Li1322 1.970 . S
O1383 Li1323 1.956 . S
O1383 C1358 1.325 . S
H1384 C1326 0.929 . S
H1385 C1327 0.930 . S
H1386 C1328 0.930 . S
H1387 C1329 0.930 . S
H1388 C1331 0.930 . S
H1389 C1333 0.929 . S
H1390 C1334 0.930 . S
H1391 C1335 0.930 . S
H1392 C1338 0.930 . S
H1393 C1341 0.929 . S
H1394 C1346 0.929 . S
H1395 C1347 0.930 . S
H1396 C1354 0.929 . S
H1397 C1355 0.930 . S
H1398 C1356 0.930 . S
H1399 C1357 0.930 . S
H1400 C1359 0.929 . S
H1401 C1360 0.930 . S
H1402 C1361 0.930 . S
H1403 C1362 0.930 . S
H1404 C1366 0.929 . S
H1405 C1368 0.930 . S
H1406 C1374 0.929 . S
H1407 C1375 0.930 . S
C1408 C1409 1.363 . S
C1408 C1414 1.379 1_455 S
C1408 N1416 1.356 . S
C1409 C1408 1.363 . S
C1409 C1415 1.363 . S
C1410 C1411 1.363 . S
C1410 C1415 1.379 1_655 S
C1410 N1417 1.356 . S
C1411 C1410 1.363 . S
C1411 C1414 1.363 . S
N1412 C1414 1.356 . S
N1412 H1424 0.984 . S
N1412 H1425 0.985 . S
N1413 C1415 1.356 . S
N1413 H1418 0.984 . S
N1413 H1419 0.985 . S
C1414 C1408 1.379 1_655 S
C1414 C1411 1.363 . S
C1414 N1412 1.356 . S
C1415 C1409 1.363 . S
C1415 C1410 1.379 1_455 S
C1415 N1413 1.356 . S
N1416 C1408 1.356 . S
N1416 H1422 0.984 . S
N1416 H1423 0.984 . S
N1417 C1410 1.356 . S
N1417 H1420 0.984 . S
N1417 H1421 0.985 . S
H1418 N1413 0.984 . S
H1419 N1413 0.985 . S
H1420 N1417 0.984 . S
H1421 N1417 0.985 . S
H1422 N1416 0.984 . S
H1423 N1416 0.984 . S
H1424 N1412 0.984 . S
H1425 N1412 0.985 . S
C1426 C1427 1.363 . S
C1426 C1432 1.379 1_655 S
C1426 N1434 1.356 . S
C1427 C1426 1.363 . S
C1427 C1433 1.363 . S
C1428 C1429 1.363 . S
C1428 C1433 1.379 1_455 S
C1428 N1435 1.356 . S
C1429 C1428 1.363 . S
C1429 C1432 1.363 . S
N1430 C1432 1.356 . S
N1430 H1442 0.984 . S
N1430 H1443 0.985 . S
N1431 C1433 1.356 . S
N1431 H1436 0.984 . S
N1431 H1437 0.985 . S
C1432 C1426 1.379 1_455 S
C1432 C1429 1.363 . S
C1432 N1430 1.356 . S
C1433 C1427 1.363 . S
C1433 C1428 1.379 1_655 S
C1433 N1431 1.356 . S
N1434 C1426 1.356 . S
N1434 H1440 0.984 . S
N1434 H1441 0.984 . S
N1435 C1428 1.356 . S
N1435 H1438 0.984 . S
N1435 H1439 0.985 . S
H1436 N1431 0.984 . S
H1437 N1431 0.985 . S
H1438 N1435 0.984 . S
H1439 N1435 0.985 . S
H1440 N1434 0.984 . S
H1441 N1434 0.984 . S
H1442 N1430 0.984 . S
H1443 N1430 0.985 . S
C1444 C1445 1.363 . S
C1444 C1450 1.379 1_655 S
C1444 N1452 1.356 . S
C1445 C1444 1.363 . S
C1445 C1451 1.363 . S
C1446 C1447 1.363 . S
C1446 C1451 1.379 1_455 S
C1446 N1453 1.356 . S
C1447 C1446 1.363 . S
C1447 C1450 1.363 . S
N1448 C1450 1.356 . S
N1448 H1460 0.984 . S
N1448 H1461 0.985 . S
N1449 C1451 1.356 . S
N1449 H1454 0.984 . S
N1449 H1455 0.985 . S
C1450 C1444 1.379 1_455 S
C1450 C1447 1.363 . S
C1450 N1448 1.356 . S
C1451 C1445 1.363 . S
C1451 C1446 1.379 1_655 S
C1451 N1449 1.356 . S
N1452 C1444 1.356 . S
N1452 H1458 0.984 . S
N1452 H1459 0.984 . S
N1453 C1446 1.356 . S
N1453 H1456 0.984 . S
N1453 H1457 0.985 . S
H1454 N1449 0.984 . S
H1455 N1449 0.985 . S
H1456 N1453 0.984 . S
H1457 N1453 0.985 . S
H1458 N1452 0.984 . S
H1459 N1452 0.984 . S
H1460 N1448 0.984 . S
H1461 N1448 0.985 . S
C1462 C1463 1.363 . S
C1462 C1468 1.379 1_455 S
C1462 N1470 1.356 . S
C1463 C1462 1.363 . S
C1463 C1469 1.363 . S
C1464 C1465 1.363 . S
C1464 C1469 1.379 1_655 S
C1464 N1471 1.356 . S
C1465 C1464 1.363 . S
C1465 C1468 1.363 . S
N1466 C1468 1.356 . S
N1466 H1478 0.984 . S
N1466 H1479 0.985 . S
N1467 C1469 1.356 . S
N1467 H1472 0.984 . S
N1467 H1473 0.985 . S
C1468 C1462 1.379 1_655 S
C1468 C1465 1.363 . S
C1468 N1466 1.356 . S
C1469 C1463 1.363 . S
C1469 C1464 1.379 1_455 S
C1469 N1467 1.356 . S
N1470 C1462 1.356 . S
N1470 H1476 0.984 . S
N1470 H1477 0.984 . S
N1471 C1464 1.356 . S
N1471 H1474 0.984 . S
N1471 H1475 0.985 . S
H1472 N1467 0.984 . S
H1473 N1467 0.985 . S
H1474 N1471 0.984 . S
H1475 N1471 0.985 . S
H1476 N1470 0.984 . S
H1477 N1470 0.984 . S
H1478 N1466 0.984 . S
H1479 N1466 0.985 . S
C1480 C1481 1.363 . S
C1480 C1486 1.379 . S
C1480 N1488 1.356 . S
C1481 C1480 1.363 . S
C1481 C1487 1.363 . S
C1482 C1483 1.363 . S
C1482 C1487 1.379 . S
C1482 N1489 1.356 . S
C1483 C1482 1.363 . S
C1483 C1486 1.363 . S
N1484 C1486 1.356 . S
N1484 H1496 0.984 . S
N1484 H1497 0.985 . S
N1485 C1487 1.356 . S
N1485 H1490 0.984 . S
N1485 H1491 0.985 . S
C1486 C1480 1.379 . S
C1486 C1483 1.363 . S
C1486 N1484 1.356 . S
C1487 C1481 1.363 . S
C1487 C1482 1.379 . S
C1487 N1485 1.356 . S
N1488 C1480 1.356 . S
N1488 H1494 0.984 . S
N1488 H1495 0.984 . S
N1489 C1482 1.356 . S
N1489 H1492 0.984 . S
N1489 H1493 0.985 . S
H1490 N1485 0.984 . S
H1491 N1485 0.985 . S
H1492 N1489 0.984 . S
H1493 N1489 0.985 . S
H1494 N1488 0.984 . S
H1495 N1488 0.984 . S
H1496 N1484 0.984 . S
H1497 N1484 0.985 . S
C1498 C1499 1.363 . S
C1498 C1504 1.379 . S
C1498 N1506 1.356 . S
C1499 C1498 1.363 . S
C1499 C1505 1.363 . S
C1500 C1501 1.363 . S
C1500 C1505 1.379 . S
C1500 N1507 1.356 . S
C1501 C1500 1.363 . S
C1501 C1504 1.363 . S
N1502 C1504 1.356 . S
N1502 H1514 0.984 . S
N1502 H1515 0.985 . S
N1503 C1505 1.356 . S
N1503 H1508 0.984 . S
N1503 H1509 0.985 . S
C1504 C1498 1.379 . S
C1504 C1501 1.363 . S
C1504 N1502 1.356 . S
C1505 C1499 1.363 . S
C1505 C1500 1.379 . S
C1505 N1503 1.356 . S
N1506 C1498 1.356 . S
N1506 H1512 0.984 . S
N1506 H1513 0.984 . S
N1507 C1500 1.356 . S
N1507 H1510 0.984 . S
N1507 H1511 0.985 . S
H1508 N1503 0.984 . S
H1509 N1503 0.985 . S
H1510 N1507 0.984 . S
H1511 N1507 0.985 . S
H1512 N1506 0.984 . S
H1513 N1506 0.984 . S
H1514 N1502 0.984 . S
H1515 N1502 0.985 . S
C1516 C1517 1.363 . S
C1516 C1522 1.379 . S
C1516 N1524 1.356 . S
C1517 C1516 1.363 . S
C1517 C1523 1.363 . S
C1518 C1519 1.363 . S
C1518 C1523 1.379 . S
C1518 N1525 1.356 . S
C1519 C1518 1.363 . S
C1519 C1522 1.363 . S
N1520 C1522 1.356 . S
N1520 H1532 0.984 . S
N1520 H1533 0.985 . S
N1521 C1523 1.356 . S
N1521 H1526 0.984 . S
N1521 H1527 0.985 . S
C1522 C1516 1.379 . S
C1522 C1519 1.363 . S
C1522 N1520 1.356 . S
C1523 C1517 1.363 . S
C1523 C1518 1.379 . S
C1523 N1521 1.356 . S
N1524 C1516 1.356 . S
N1524 H1530 0.984 . S
N1524 H1531 0.984 . S
N1525 C1518 1.356 . S
N1525 H1528 0.984 . S
N1525 H1529 0.985 . S
H1526 N1521 0.984 . S
H1527 N1521 0.985 . S
H1528 N1525 0.984 . S
H1529 N1525 0.985 . S
H1530 N1524 0.984 . S
H1531 N1524 0.984 . S
H1532 N1520 0.984 . S
H1533 N1520 0.985 . S
C1534 C1535 1.363 . S
C1534 C1540 1.379 . S
C1534 N1542 1.356 . S
C1535 C1534 1.363 . S
C1535 C1541 1.363 . S
C1536 C1537 1.363 . S
C1536 C1541 1.379 . S
C1536 N1543 1.356 . S
C1537 C1536 1.363 . S
C1537 C1540 1.363 . S
N1538 C1540 1.356 . S
N1538 H1550 0.984 . S
N1538 H1551 0.985 . S
N1539 C1541 1.356 . S
N1539 H1544 0.984 . S
N1539 H1545 0.985 . S
C1540 C1534 1.379 . S
C1540 C1537 1.363 . S
C1540 N1538 1.356 . S
C1541 C1535 1.363 . S
C1541 C1536 1.379 . S
C1541 N1539 1.356 . S
N1542 C1534 1.356 . S
N1542 H1548 0.984 . S
N1542 H1549 0.984 . S
N1543 C1536 1.356 . S
N1543 H1546 0.984 . S
N1543 H1547 0.985 . S
H1544 N1539 0.984 . S
H1545 N1539 0.985 . S
H1546 N1543 0.984 . S
H1547 N1543 0.985 . S
H1548 N1542 0.984 . S
H1549 N1542 0.984 . S
H1550 N1538 0.984 . S
H1551 N1538 0.985 . S
C1552 C1553 1.363 . S
C1552 C1558 1.379 . S
C1552 N1560 1.356 . S
C1553 C1552 1.363 . S
C1553 C1559 1.363 . S
C1554 C1555 1.363 . S
C1554 C1559 1.379 . S
C1554 N1561 1.356 . S
C1555 C1554 1.363 . S
C1555 C1558 1.363 . S
N1556 C1558 1.356 . S
N1556 H1568 0.984 . S
N1556 H1569 0.985 . S
N1557 C1559 1.356 . S
N1557 H1562 0.984 . S
N1557 H1563 0.985 . S
C1558 C1552 1.379 . S
C1558 C1555 1.363 . S
C1558 N1556 1.356 . S
C1559 C1553 1.363 . S
C1559 C1554 1.379 . S
C1559 N1557 1.356 . S
N1560 C1552 1.356 . S
N1560 H1566 0.984 . S
N1560 H1567 0.984 . S
N1561 C1554 1.356 . S
N1561 H1564 0.984 . S
N1561 H1565 0.985 . S
H1562 N1557 0.984 . S
H1563 N1557 0.985 . S
H1564 N1561 0.984 . S
H1565 N1561 0.985 . S
H1566 N1560 0.984 . S
H1567 N1560 0.984 . S
H1568 N1556 0.984 . S
H1569 N1556 0.985 . S
C1570 C1571 1.363 . S
C1570 C1576 1.379 . S
C1570 N1578 1.356 . S
C1571 C1570 1.363 . S
C1571 C1577 1.363 . S
C1572 C1573 1.363 . S
C1572 C1577 1.379 . S
C1572 N1579 1.356 . S
C1573 C1572 1.363 . S
C1573 C1576 1.363 . S
N1574 C1576 1.356 . S
N1574 H1586 0.984 . S
N1574 H1587 0.985 . S
N1575 C1577 1.356 . S
N1575 H1580 0.984 . S
N1575 H1581 0.985 . S
C1576 C1570 1.379 . S
C1576 C1573 1.363 . S
C1576 N1574 1.356 . S
C1577 C1571 1.363 . S
C1577 C1572 1.379 . S
C1577 N1575 1.356 . S
N1578 C1570 1.356 . S
N1578 H1584 0.984 . S
N1578 H1585 0.984 . S
N1579 C1572 1.356 . S
N1579 H1582 0.984 . S
N1579 H1583 0.985 . S
H1580 N1575 0.984 . S
H1581 N1575 0.985 . S
H1582 N1579 0.984 . S
H1583 N1579 0.985 . S
H1584 N1578 0.984 . S
H1585 N1578 0.984 . S
H1586 N1574 0.984 . S
H1587 N1574 0.985 . S
C1588 C1589 1.363 . S
C1588 C1594 1.379 . S
C1588 N1596 1.356 . S
C1589 C1588 1.363 . S
C1589 C1595 1.363 . S
C1590 C1591 1.363 . S
C1590 C1595 1.379 . S
C1590 N1597 1.356 . S
C1591 C1590 1.363 . S
C1591 C1594 1.363 . S
N1592 C1594 1.356 . S
N1592 H1604 0.984 . S
N1592 H1605 0.985 . S
N1593 C1595 1.356 . S
N1593 H1598 0.984 . S
N1593 H1599 0.985 . S
C1594 C1588 1.379 . S
C1594 C1591 1.363 . S
C1594 N1592 1.356 . S
C1595 C1589 1.363 . S
C1595 C1590 1.379 . S
C1595 N1593 1.356 . S
N1596 C1588 1.356 . S
N1596 H1602 0.984 . S
N1596 H1603 0.984 . S
N1597 C1590 1.356 . S
N1597 H1600 0.984 . S
N1597 H1601 0.985 . S
H1598 N1593 0.984 . S
H1599 N1593 0.985 . S
H1600 N1597 0.984 . S
H1601 N1597 0.985 . S
H1602 N1596 0.984 . S
H1603 N1596 0.984 . S
H1604 N1592 0.984 . S
H1605 N1592 0.985 . S
C1606 C1607 1.363 . S
C1606 C1612 1.379 . S
C1606 N1614 1.356 . S
C1607 C1606 1.363 . S
C1607 C1613 1.363 . S
C1608 C1609 1.363 . S
C1608 C1613 1.379 . S
C1608 N1615 1.356 . S
C1609 C1608 1.363 . S
C1609 C1612 1.363 . S
N1610 C1612 1.356 . S
N1610 H1622 0.984 . S
N1610 H1623 0.985 . S
N1611 C1613 1.356 . S
N1611 H1616 0.984 . S
N1611 H1617 0.985 . S
C1612 C1606 1.379 . S
C1612 C1609 1.363 . S
C1612 N1610 1.356 . S
C1613 C1607 1.363 . S
C1613 C1608 1.379 . S
C1613 N1611 1.356 . S
N1614 C1606 1.356 . S
N1614 H1620 0.984 . S
N1614 H1621 0.984 . S
N1615 C1608 1.356 . S
N1615 H1618 0.984 . S
N1615 H1619 0.985 . S
H1616 N1611 0.984 . S
H1617 N1611 0.985 . S
H1618 N1615 0.984 . S
H1619 N1615 0.985 . S
H1620 N1614 0.984 . S
H1621 N1614 0.984 . S
H1622 N1610 0.984 . S
H1623 N1610 0.985 . S
C1624 C1625 1.363 . S
C1624 C1630 1.379 . S
C1624 N1632 1.356 . S
C1625 C1624 1.363 . S
C1625 C1631 1.363 . S
C1626 C1627 1.363 . S
C1626 C1631 1.379 . S
C1626 N1633 1.356 . S
C1627 C1626 1.363 . S
C1627 C1630 1.363 . S
N1628 C1630 1.356 . S
N1628 H1640 0.984 . S
N1628 H1641 0.985 . S
N1629 C1631 1.356 . S
N1629 H1634 0.984 . S
N1629 H1635 0.985 . S
C1630 C1624 1.379 . S
C1630 C1627 1.363 . S
C1630 N1628 1.356 . S
C1631 C1625 1.363 . S
C1631 C1626 1.379 . S
C1631 N1629 1.356 . S
N1632 C1624 1.356 . S
N1632 H1638 0.984 . S
N1632 H1639 0.984 . S
N1633 C1626 1.356 . S
N1633 H1636 0.984 . S
N1633 H1637 0.985 . S
H1634 N1629 0.984 . S
H1635 N1629 0.985 . S
H1636 N1633 0.984 . S
H1637 N1633 0.985 . S
H1638 N1632 0.984 . S
H1639 N1632 0.984 . S
H1640 N1628 0.984 . S
H1641 N1628 0.985 . S
C1642 C1643 1.363 . S
C1642 C1648 1.379 . S
C1642 N1650 1.356 . S
C1643 C1642 1.363 . S
C1643 C1649 1.363 . S
C1644 C1645 1.363 . S
C1644 C1649 1.379 . S
C1644 N1651 1.356 . S
C1645 C1644 1.363 . S
C1645 C1648 1.363 . S
N1646 C1648 1.356 . S
N1646 H1658 0.984 . S
N1646 H1659 0.985 . S
N1647 C1649 1.356 . S
N1647 H1652 0.984 . S
N1647 H1653 0.985 . S
C1648 C1642 1.379 . S
C1648 C1645 1.363 . S
C1648 N1646 1.356 . S
C1649 C1643 1.363 . S
C1649 C1644 1.379 . S
C1649 N1647 1.356 . S
N1650 C1642 1.356 . S
N1650 H1656 0.984 . S
N1650 H1657 0.984 . S
N1651 C1644 1.356 . S
N1651 H1654 0.984 . S
N1651 H1655 0.985 . S
H1652 N1647 0.984 . S
H1653 N1647 0.985 . S
H1654 N1651 0.984 . S
H1655 N1651 0.985 . S
H1656 N1650 0.984 . S
H1657 N1650 0.984 . S
H1658 N1646 0.984 . S
H1659 N1646 0.985 . S
C1660 C1661 1.363 . S
C1660 C1666 1.379 . S
C1660 N1668 1.356 . S
C1661 C1660 1.363 . S
C1661 C1667 1.363 . S
C1662 C1663 1.363 . S
C1662 C1667 1.379 . S
C1662 N1669 1.356 . S
C1663 C1662 1.363 . S
C1663 C1666 1.363 . S
N1664 C1666 1.356 . S
N1664 H1676 0.984 . S
N1664 H1677 0.985 . S
N1665 C1667 1.356 . S
N1665 H1670 0.984 . S
N1665 H1671 0.985 . S
C1666 C1660 1.379 . S
C1666 C1663 1.363 . S
C1666 N1664 1.356 . S
C1667 C1661 1.363 . S
C1667 C1662 1.379 . S
C1667 N1665 1.356 . S
N1668 C1660 1.356 . S
N1668 H1674 0.984 . S
N1668 H1675 0.984 . S
N1669 C1662 1.356 . S
N1669 H1672 0.984 . S
N1669 H1673 0.985 . S
H1670 N1665 0.984 . S
H1671 N1665 0.985 . S
H1672 N1669 0.984 . S
H1673 N1669 0.985 . S
H1674 N1668 0.984 . S
H1675 N1668 0.984 . S
H1676 N1664 0.984 . S
H1677 N1664 0.985 . S
C1678 C1679 1.363 . S
C1678 C1684 1.379 . S
C1678 N1686 1.356 . S
C1679 C1678 1.363 . S
C1679 C1685 1.363 . S
C1680 C1681 1.363 . S
C1680 C1685 1.379 . S
C1680 N1687 1.356 . S
C1681 C1680 1.363 . S
C1681 C1684 1.363 . S
N1682 C1684 1.356 . S
N1682 H1694 0.984 . S
N1682 H1695 0.985 . S
N1683 C1685 1.356 . S
N1683 H1688 0.984 . S
N1683 H1689 0.985 . S
C1684 C1678 1.379 . S
C1684 C1681 1.363 . S
C1684 N1682 1.356 . S
C1685 C1679 1.363 . S
C1685 C1680 1.379 . S
C1685 N1683 1.356 . S
N1686 C1678 1.356 . S
N1686 H1692 0.984 . S
N1686 H1693 0.984 . S
N1687 C1680 1.356 . S
N1687 H1690 0.984 . S
N1687 H1691 0.985 . S
H1688 N1683 0.984 . S
H1689 N1683 0.985 . S
H1690 N1687 0.984 . S
H1691 N1687 0.985 . S
H1692 N1686 0.984 . S
H1693 N1686 0.984 . S
H1694 N1682 0.984 . S
H1695 N1682 0.985 . S
C1696 C1697 1.363 . S
C1696 C1702 1.367 1_556 S
C1696 N1704 1.356 . S
C1697 C1696 1.363 . S
C1697 C1703 1.375 . S
C1698 C1699 1.363 . S
C1698 C1703 1.367 1_554 S
C1698 N1705 1.356 . S
C1699 C1698 1.363 . S
C1699 C1702 1.375 . S
N1700 C1702 1.361 . S
N1700 H1712 0.984 1_554 S
N1700 H1713 0.985 . S
N1701 C1703 1.361 . S
N1701 H1706 0.984 . S
N1701 H1707 0.985 1_556 S
C1702 C1696 1.367 1_554 S
C1702 C1699 1.375 . S
C1702 N1700 1.361 . S
C1703 C1697 1.375 . S
C1703 C1698 1.367 1_556 S
C1703 N1701 1.361 . S
N1704 C1696 1.356 . S
N1704 H1710 0.984 . S
N1704 H1711 0.984 . S
N1705 C1698 1.356 . S
N1705 H1708 0.984 . S
N1705 H1709 0.985 . S
H1706 N1701 0.984 . S
H1707 N1701 0.985 1_554 S
H1708 N1705 0.984 . S
H1709 N1705 0.985 . S
H1710 N1704 0.984 . S
H1711 N1704 0.984 . S
H1712 N1700 0.984 1_556 S
H1713 N1700 0.985 . S
C1714 C1715 1.363 . S
C1714 C1720 1.379 . S
C1714 N1722 1.356 . S
C1715 C1714 1.363 . S
C1715 C1721 1.363 . S
C1716 C1717 1.363 . S
C1716 C1721 1.379 . S
C1716 N1723 1.356 . S
C1717 C1716 1.363 . S
C1717 C1720 1.363 . S
N1718 C1720 1.356 . S
N1718 H1730 0.984 . S
N1718 H1731 0.985 . S
N1719 C1721 1.356 . S
N1719 H1724 0.984 . S
N1719 H1725 0.985 . S
C1720 C1714 1.379 . S
C1720 C1717 1.363 . S
C1720 N1718 1.356 . S
C1721 C1715 1.363 . S
C1721 C1716 1.379 . S
C1721 N1719 1.356 . S
N1722 C1714 1.356 . S
N1722 H1728 0.984 . S
N1722 H1729 0.984 . S
N1723 C1716 1.356 . S
N1723 H1726 0.984 . S
N1723 H1727 0.985 . S
H1724 N1719 0.984 . S
H1725 N1719 0.985 . S
H1726 N1723 0.984 . S
H1727 N1723 0.985 . S
H1728 N1722 0.984 . S
H1729 N1722 0.984 . S
H1730 N1718 0.984 . S
H1731 N1718 0.985 . S
C1732 C1733 1.363 . S
C1732 C1738 1.379 . S
C1732 N1740 1.356 . S
C1733 C1732 1.363 . S
C1733 C1739 1.363 1_554 S
C1734 C1735 1.363 . S
C1734 C1739 1.379 . S
C1734 N1741 1.356 . S
C1735 C1734 1.363 . S
C1735 C1738 1.363 1_556 S
N1736 C1738 1.356 . S
N1736 H1748 0.984 . S
N1736 H1749 0.985 1_554 S
N1737 C1739 1.356 . S
N1737 H1742 0.984 1_556 S
N1737 H1743 0.985 . S
C1738 C1732 1.379 . S
C1738 C1735 1.363 1_554 S
C1738 N1736 1.356 . S
C1739 C1733 1.363 1_556 S
C1739 C1734 1.379 . S
C1739 N1737 1.356 . S
N1740 C1732 1.356 . S
N1740 H1746 0.984 . S
N1740 H1747 0.984 . S
N1741 C1734 1.356 . S
N1741 H1744 0.984 . S
N1741 H1745 0.985 . S
H1742 N1737 0.984 1_554 S
H1743 N1737 0.985 . S
H1744 N1741 0.984 . S
H1745 N1741 0.985 . S
H1746 N1740 0.984 . S
H1747 N1740 0.984 . S
H1748 N1736 0.984 . S
H1749 N1736 0.985 1_556 S
C1750 C1751 1.363 . S
C1750 C1756 1.379 . S
C1750 N1758 1.356 . S
C1751 C1750 1.363 . S
C1751 C1757 1.363 . S
C1752 C1753 1.363 . S
C1752 C1757 1.379 . S
C1752 N1759 1.356 . S
C1753 C1752 1.363 . S
C1753 C1756 1.363 . S
N1754 C1756 1.356 . S
N1754 H1766 0.984 . S
N1754 H1767 0.985 . S
N1755 C1757 1.356 . S
N1755 H1760 0.984 . S
N1755 H1761 0.985 . S
C1756 C1750 1.379 . S
C1756 C1753 1.363 . S
C1756 N1754 1.356 . S
C1757 C1751 1.363 . S
C1757 C1752 1.379 . S
C1757 N1755 1.356 . S
N1758 C1750 1.356 . S
N1758 H1764 0.984 . S
N1758 H1765 0.984 . S
N1759 C1752 1.356 . S
N1759 H1762 0.984 . S
N1759 H1763 0.985 . S
H1760 N1755 0.984 . S
H1761 N1755 0.985 . S
H1762 N1759 0.984 . S
H1763 N1759 0.985 . S
H1764 N1758 0.984 . S
H1765 N1758 0.984 . S
H1766 N1754 0.984 . S
H1767 N1754 0.985 . S
C1768 C1769 1.363 1_556 S
C1768 C1774 1.379 . S
C1768 N1776 1.356 . S
C1769 C1768 1.363 1_554 S
C1769 C1775 1.363 . S
C1770 C1771 1.363 1_554 S
C1770 C1775 1.379 . S
C1770 N1777 1.356 . S
C1771 C1770 1.363 1_556 S
C1771 C1774 1.363 . S
N1772 C1774 1.356 . S
N1772 H1784 0.984 . S
N1772 H1785 0.985 . S
N1773 C1775 1.356 . S
N1773 H1778 0.984 . S
N1773 H1779 0.985 . S
C1774 C1768 1.379 . S
C1774 C1771 1.363 . S
C1774 N1772 1.356 . S
C1775 C1769 1.363 . S
C1775 C1770 1.379 . S
C1775 N1773 1.356 . S
N1776 C1768 1.356 . S
N1776 H1782 0.984 . S
N1776 H1783 1.000 . S
N1777 C1770 1.356 . S
N1777 H1780 1.000 . S
N1777 H1781 0.985 . S
H1778 N1773 0.984 . S
H1779 N1773 0.985 . S
H1780 N1777 1.000 . S
H1781 N1777 0.985 . S
H1782 N1776 0.984 . S
H1783 N1776 1.000 . S
H1784 N1772 0.984 . S
H1785 N1772 0.985 . S
C1786 C1787 1.363 . S
C1786 C1792 1.379 . S
C1786 N1794 1.356 . S
C1787 C1786 1.363 . S
C1787 C1793 1.363 . S
C1788 C1789 1.363 . S
C1788 C1793 1.379 . S
C1788 N1795 1.356 . S
C1789 C1788 1.363 . S
C1789 C1792 1.363 . S
N1790 C1792 1.356 . S
N1790 H1802 0.984 . S
N1790 H1803 0.985 . S
N1791 C1793 1.356 . S
N1791 H1796 0.984 . S
N1791 H1797 0.985 . S
C1792 C1786 1.379 . S
C1792 C1789 1.363 . S
C1792 N1790 1.356 . S
C1793 C1787 1.363 . S
C1793 C1788 1.379 . S
C1793 N1791 1.356 . S
N1794 C1786 1.356 . S
N1794 H1800 0.984 . S
N1794 H1801 0.984 . S
N1795 C1788 1.356 . S
N1795 H1798 0.984 . S
N1795 H1799 0.985 . S
H1796 N1791 0.984 . S
H1797 N1791 0.985 . S
H1798 N1795 0.984 . S
H1799 N1795 0.985 . S
H1800 N1794 0.984 . S
H1801 N1794 0.984 . S
H1802 N1790 0.984 . S
H1803 N1790 0.985 . S
C1804 C1805 1.363 . S
C1804 C1810 1.379 . S
C1804 N1812 1.356 . S
C1805 C1804 1.363 . S
C1805 C1811 1.363 1_554 S
C1806 C1807 1.363 . S
C1806 C1811 1.379 . S
C1806 N1813 1.356 . S
C1807 C1806 1.363 . S
C1807 C1810 1.363 1_556 S
N1808 C1810 1.356 . S
N1808 H1820 0.984 . S
N1808 H1821 0.985 . S
N1809 C1811 1.356 . S
N1809 H1814 0.984 . S
N1809 H1815 0.985 . S
C1810 C1804 1.379 . S
C1810 C1807 1.363 1_554 S
C1810 N1808 1.356 . S
C1811 C1805 1.363 1_556 S
C1811 C1806 1.379 . S
C1811 N1809 1.356 . S
N1812 C1804 1.356 . S
N1812 H1818 0.984 . S
N1812 H1819 0.984 . S
N1813 C1806 1.356 . S
N1813 H1816 0.984 . S
N1813 H1817 0.985 . S
H1814 N1809 0.984 . S
H1815 N1809 0.985 . S
H1816 N1813 0.984 . S
H1817 N1813 0.985 . S
H1818 N1812 0.984 . S
H1819 N1812 0.984 . S
H1820 N1808 0.984 . S
H1821 N1808 0.985 . S
C1822 C1823 1.363 . S
C1822 C1828 1.379 . S
C1822 N1830 1.356 . S
C1823 C1822 1.363 . S
C1823 C1829 1.363 . S
C1824 C1825 1.363 . S
C1824 C1829 1.379 . S
C1824 N1831 1.356 . S
C1825 C1824 1.363 . S
C1825 C1828 1.363 . S
N1826 C1828 1.356 . S
N1826 H1838 0.984 . S
N1826 H1839 0.985 . S
N1827 C1829 1.356 . S
N1827 H1832 0.984 . S
N1827 H1833 0.985 . S
C1828 C1822 1.379 . S
C1828 C1825 1.363 . S
C1828 N1826 1.356 . S
C1829 C1823 1.363 . S
C1829 C1824 1.379 . S
C1829 N1827 1.356 . S
N1830 C1822 1.356 . S
N1830 H1836 0.984 . S
N1830 H1837 0.984 . S
N1831 C1824 1.356 . S
N1831 H1834 0.984 . S
N1831 H1835 0.985 . S
H1832 N1827 0.984 . S
H1833 N1827 0.985 . S
H1834 N1831 0.984 . S
H1835 N1831 0.985 . S
H1836 N1830 0.984 . S
H1837 N1830 0.984 . S
H1838 N1826 0.984 . S
H1839 N1826 0.985 . S
C1840 C1841 1.363 . S
C1840 C1846 1.379 . S
C1840 N1848 1.356 . S
C1841 C1840 1.363 . S
C1841 C1847 1.363 1_556 S
C1842 C1843 1.363 . S
C1842 C1847 1.379 . S
C1842 N1849 1.356 . S
C1843 C1842 1.363 . S
C1843 C1846 1.363 1_554 S
N1844 C1846 1.352 1_554 S
N1844 H1856 0.963 1_554 S
N1844 H1857 1.013 . S
N1845 C1847 1.352 1_556 S
N1845 H1850 1.013 . S
N1845 H1851 0.963 1_556 S
C1846 C1840 1.379 . S
C1846 C1843 1.363 1_556 S
C1846 N1844 1.352 1_556 S
C1847 C1841 1.363 1_554 S
C1847 C1842 1.379 . S
C1847 N1845 1.352 1_554 S
N1848 C1840 1.356 . S
N1848 H1854 0.984 . S
N1848 H1855 0.984 . S
N1849 C1842 1.356 . S
N1849 H1852 0.984 . S
N1849 H1853 0.985 . S
H1850 N1845 1.013 . S
H1851 N1845 0.963 1_554 S
H1852 N1849 0.984 . S
H1853 N1849 0.985 . S
H1854 N1848 0.984 . S
H1855 N1848 0.984 . S
H1856 N1844 0.963 1_556 S
H1857 N1844 1.013 . S
C1858 C1859 1.363 . S
C1858 C1864 1.379 . S
C1858 N1866 1.356 . S
C1859 C1858 1.363 . S
C1859 C1865 1.363 . S
C1860 C1861 1.363 . S
C1860 C1865 1.379 . S
C1860 N1867 1.356 . S
C1861 C1860 1.363 . S
C1861 C1864 1.363 . S
N1862 C1864 1.356 . S
N1862 H1874 0.984 . S
N1862 H1875 0.985 . S
N1863 C1865 1.356 . S
N1863 H1868 0.984 . S
N1863 H1869 0.985 . S
C1864 C1858 1.379 . S
C1864 C1861 1.363 . S
C1864 N1862 1.356 . S
C1865 C1859 1.363 . S
C1865 C1860 1.379 . S
C1865 N1863 1.356 . S
N1866 C1858 1.356 . S
N1866 H1872 0.984 . S
N1866 H1873 0.984 . S
N1867 C1860 1.356 . S
N1867 H1870 0.984 . S
N1867 H1871 0.985 . S
H1868 N1863 0.984 . S
H1869 N1863 0.985 . S
H1870 N1867 0.984 . S
H1871 N1867 0.985 . S
H1872 N1866 0.984 . S
H1873 N1866 0.984 . S
H1874 N1862 0.984 . S
H1875 N1862 0.985 . S
C1876 C1877 1.363 1_556 S
C1876 C1882 1.379 . S
C1876 N1884 1.356 . S
C1877 C1876 1.363 1_554 S
C1877 C1883 1.363 . S
C1878 C1879 1.363 1_554 S
C1878 C1883 1.379 . S
C1878 N1885 1.356 . S
C1879 C1878 1.363 1_556 S
C1879 C1882 1.363 . S
N1880 C1882 1.356 . S
N1880 H1892 0.984 . S
N1880 H1893 0.985 . S
N1881 C1883 1.356 . S
N1881 H1886 0.984 . S
N1881 H1887 0.985 . S
C1882 C1876 1.379 . S
C1882 C1879 1.363 . S
C1882 N1880 1.356 . S
C1883 C1877 1.363 . S
C1883 C1878 1.379 . S
C1883 N1881 1.356 . S
N1884 C1876 1.356 . S
N1884 H1890 0.984 . S
N1884 H1891 0.996 . S
N1885 C1878 1.356 . S
N1885 H1888 0.996 . S
N1885 H1889 0.985 . S
H1886 N1881 0.984 . S
H1887 N1881 0.985 . S
H1888 N1885 0.996 . S
H1889 N1885 0.985 . S
H1890 N1884 0.984 . S
H1891 N1884 0.996 . S
H1892 N1880 0.984 . S
H1893 N1880 0.985 . S
C1894 C1895 1.363 . S
C1894 C1900 1.379 . S
C1894 N1902 1.356 . S
C1895 C1894 1.363 . S
C1895 C1901 1.363 . S
C1896 C1897 1.363 . S
C1896 C1901 1.379 . S
C1896 N1903 1.356 . S
C1897 C1896 1.363 . S
C1897 C1900 1.363 . S
N1898 C1900 1.356 . S
N1898 H1910 0.984 . S
N1898 H1911 0.985 . S
N1899 C1901 1.356 . S
N1899 H1904 0.984 . S
N1899 H1905 0.985 . S
C1900 C1894 1.379 . S
C1900 C1897 1.363 . S
C1900 N1898 1.356 . S
C1901 C1895 1.363 . S
C1901 C1896 1.379 . S
C1901 N1899 1.356 . S
N1902 C1894 1.356 . S
N1902 H1908 0.984 . S
N1902 H1909 0.984 . S
N1903 C1896 1.356 . S
N1903 H1906 0.984 . S
N1903 H1907 0.985 . S
H1904 N1899 0.984 . S
H1905 N1899 0.985 . S
H1906 N1903 0.984 . S
H1907 N1903 0.985 . S
H1908 N1902 0.984 . S
H1909 N1902 0.984 . S
H1910 N1898 0.984 . S
H1911 N1898 0.985 . S
C1912 C1913 1.363 . S
C1912 C1918 1.379 1_546 S
C1912 N1920 1.356 . S
C1913 C1912 1.363 . S
C1913 C1919 1.363 . S
C1914 C1915 1.363 . S
C1914 C1919 1.379 1_564 S
C1914 N1921 1.356 . S
C1915 C1914 1.363 . S
C1915 C1918 1.363 . S
N1916 C1918 1.356 . S
N1916 H1928 0.984 . S
N1916 H1929 0.985 . S
N1917 C1919 1.356 . S
N1917 H1922 0.984 . S
N1917 H1923 0.985 . S
C1918 C1912 1.379 1_564 S
C1918 C1915 1.363 . S
C1918 N1916 1.356 . S
C1919 C1913 1.363 . S
C1919 C1914 1.379 1_546 S
C1919 N1917 1.356 . S
N1920 C1912 1.356 . S
N1920 H1926 0.984 . S
N1920 H1927 0.984 . S
N1921 C1914 1.356 . S
N1921 H1924 0.984 . S
N1921 H1925 0.985 . S
H1922 N1917 0.984 . S
H1923 N1917 0.985 . S
H1924 N1921 0.984 . S
H1925 N1921 0.985 . S
H1926 N1920 0.984 . S
H1927 N1920 0.984 . S
H1928 N1916 0.984 . S
H1929 N1916 0.985 . S
C1930 C1931 1.363 . S
C1930 C1936 1.379 1_565 S
C1930 N1938 1.356 . S
C1931 C1930 1.363 . S
C1931 C1937 1.363 . S
C1932 C1933 1.363 . S
C1932 C1937 1.379 1_545 S
C1932 N1939 1.356 . S
C1933 C1932 1.363 . S
C1933 C1936 1.363 . S
N1934 C1936 1.356 . S
N1934 H1946 0.984 . S
N1934 H1947 0.985 . S
N1935 C1937 1.356 . S
N1935 H1940 0.984 . S
N1935 H1941 0.985 . S
C1936 C1930 1.379 1_545 S
C1936 C1933 1.363 . S
C1936 N1934 1.356 . S
C1937 C1931 1.363 . S
C1937 C1932 1.379 1_565 S
C1937 N1935 1.356 . S
N1938 C1930 1.356 . S
N1938 H1944 0.984 . S
N1938 H1945 0.984 . S
N1939 C1932 1.356 . S
N1939 H1942 0.984 . S
N1939 H1943 0.985 . S
H1940 N1935 0.984 . S
H1941 N1935 0.985 . S
H1942 N1939 0.984 . S
H1943 N1939 0.985 . S
H1944 N1938 0.984 . S
H1945 N1938 0.984 . S
H1946 N1934 0.984 . S
H1947 N1934 0.985 . S
C1948 C1949 1.363 1_556 S
C1948 C1954 1.379 1_565 S
C1948 N1956 1.357 1_556 S
C1949 C1948 1.363 1_554 S
C1949 C1955 1.363 . S
C1950 C1951 1.363 1_554 S
C1950 C1955 1.379 1_545 S
C1950 N1957 1.357 1_554 S
C1951 C1950 1.363 1_556 S
C1951 C1954 1.363 . S
N1952 C1954 1.356 . S
N1952 H1964 0.984 . S
N1952 H1965 0.985 . S
N1953 C1955 1.356 . S
N1953 H1958 0.984 . S
N1953 H1959 0.985 . S
C1954 C1948 1.379 1_545 S
C1954 C1951 1.363 . S
C1954 N1952 1.356 . S
C1955 C1949 1.363 . S
C1955 C1950 1.379 1_565 S
C1955 N1953 1.356 . S
N1956 C1948 1.357 1_554 S
N1956 H1962 0.987 1_554 S
N1956 H1963 0.982 . S
N1957 C1950 1.357 1_556 S
N1957 H1960 0.982 . S
N1957 H1961 0.987 1_556 S
H1958 N1953 0.984 . S
H1959 N1953 0.985 . S
H1960 N1957 0.982 . S
H1961 N1957 0.987 1_554 S
H1962 N1956 0.987 1_556 S
H1963 N1956 0.982 . S
H1964 N1952 0.984 . S
H1965 N1952 0.985 . S
C1966 C1967 1.363 . S
C1966 C1972 1.379 1_545 S
C1966 N1974 1.356 . S
C1967 C1966 1.363 . S
C1967 C1973 1.363 . S
C1968 C1969 1.363 . S
C1968 C1973 1.379 1_565 S
C1968 N1975 1.356 . S
C1969 C1968 1.363 . S
C1969 C1972 1.363 . S
N1970 C1972 1.356 . S
N1970 H1982 0.984 . S
N1970 H1983 0.985 . S
N1971 C1973 1.356 . S
N1971 H1976 0.984 . S
N1971 H1977 0.985 . S
C1972 C1966 1.379 1_565 S
C1972 C1969 1.363 . S
C1972 N1970 1.356 . S
C1973 C1967 1.363 . S
C1973 C1968 1.379 1_545 S
C1973 N1971 1.356 . S
N1974 C1966 1.356 . S
N1974 H1980 0.984 1_545 S
N1974 H1981 0.984 . S
N1975 C1968 1.356 . S
N1975 H1978 0.984 . S
N1975 H1979 0.985 1_565 S
H1976 N1971 0.984 . S
H1977 N1971 0.985 . S
H1978 N1975 0.984 . S
H1979 N1975 0.985 1_545 S
H1980 N1974 0.984 1_565 S
H1981 N1974 0.984 . S
H1982 N1970 0.984 . S
H1983 N1970 0.985 . S
C1409 C57 1.536 . S
C1411 C557 1.536 . S
C1427 C145 1.536 . S
C1429 C645 1.536 . S
C1445 C401 1.536 . S
C1447 C205 1.536 . S
C1463 C497 1.536 . S
C1465 C293 1.536 . S
C1481 C1261 1.536 . S
C1483 C761 1.536 . S
C1499 C1340 1.536 . S
C1501 C841 1.536 . S
C1517 C909 1.536 . S
C1519 C1105 1.536 . S
C1535 C988 1.536 . S
C1537 C1193 1.536 . S
C1553 C20 1.485 . S
C1555 C489 1.483 . S
C1571 C108 1.485 . S
C1573 C409 1.483 . S
C1589 C225 1.485 . S
C1591 C636 1.483 . S
C1607 C548 1.483 . S
C1609 C313 1.485 . S
C1625 C1201 1.483 . S
C1627 C724 1.485 . S
C1643 C1113 1.483 . S
C1645 C821 1.485 . S
C1661 C929 1.485 . S
C1663 C1349 1.483 . S
C1679 C1252 1.483 . S
C1681 C1025 1.485 . S
C1697 C1076 1.277 . S
C1699 C29 1.277 . S
C1715 C117 1.277 . S
C1717 C1164 1.277 . S
C1733 C1289 1.277 . S
C1735 C233 1.277 . S
C1751 C1369 1.277 . S
C1753 C321 1.277 . S
C1769 C733 1.277 . S
C1771 C372 1.277 . S
C1787 C812 1.277 . S
C1789 C469 1.277 . S
C1805 C585 1.277 . S
C1807 C937 1.277 . S
C1823 C673 1.277 . S
C1825 C1017 1.277 . S
C1841 C196 1.487 . S
C1843 C49 1.487 . S
C1859 C137 1.487 . S
C1861 C284 1.487 . S
C1877 C577 1.487 . S
C1879 C381 1.487 . S
C1895 C460 1.487 . S
C1897 C665 1.487 . S
C1913 C900 1.487 . S
C1915 C753 1.487 . S
C1931 C997 1.487 . S
C1933 C849 1.487 . S
C1949 C1281 1.487 . S
C1951 C1085 1.487 . S
C1967 C1377 1.487 . S
C1969 C1173 1.487 . S
