# Generated by pormake.
# Topology una, (4)-cn, num edge types: 1
# Building blocks:
#     Node 0, Type 0, BuildingBlock: CEKHIL_clean_sbu_0, # of connection points: 4
#     Node 1, Type 0, BuildingBlock: CEKHIL_clean_sbu_0, # of connection points: 4
#     Node 2, Type 0, BuildingBlock: CEKHIL_clean_sbu_0, # of connection points: 4
#     Node 3, Type 0, BuildingBlock: CEKHIL_clean_sbu_0, # of connection points: 4
#     Node 4, Type 0, BuildingBlock: CEKHIL_clean_sbu_0, # of connection points: 4
#     Node 5, Type 0, BuildingBlock: CEKHIL_clean_sbu_0, # of connection points: 4
#     Node 6, Type 0, BuildingBlock: CEKHIL_clean_sbu_0, # of connection points: 4
#     Node 7, Type 0, BuildingBlock: CEKHIL_clean_sbu_0, # of connection points: 4
#     Node 8, Type 0, BuildingBlock: CEKHIL_clean_sbu_0, # of connection points: 4
#     Node 9, Type 0, BuildingBlock: CEKHIL_clean_sbu_0, # of connection points: 4
#     Node 10, Type 0, BuildingBlock: CEKHIL_clean_sbu_0, # of connection points: 4
#     Node 11, Type 0, BuildingBlock: CEKHIL_clean_sbu_0, # of connection points: 4
#     Edge 12, Type (0, 0), BuildingBlock: EZIPEK_clean_linker_0, # of connection points: 2
#     Edge 13, Type (0, 0), BuildingBlock: EZIPEK_clean_linker_0, # of connection points: 2
#     Edge 14, Type (0, 0), BuildingBlock: EZIPEK_clean_linker_0, # of connection points: 2
#     Edge 15, Type (0, 0), BuildingBlock: EZIPEK_clean_linker_0, # of connection points: 2
#     Edge 16, Type (0, 0), BuildingBlock: EZIPEK_clean_linker_0, # of connection points: 2
#     Edge 17, Type (0, 0), BuildingBlock: EZIPEK_clean_linker_0, # of connection points: 2
#     Edge 18, Type (0, 0), BuildingBlock: EZIPEK_clean_linker_0, # of connection points: 2
#     Edge 19, Type (0, 0), BuildingBlock: EZIPEK_clean_linker_0, # of connection points: 2
#     Edge 20, Type (0, 0), BuildingBlock: EZIPEK_clean_linker_0, # of connection points: 2
#     Edge 21, Type (0, 0), BuildingBlock: EZIPEK_clean_linker_0, # of connection points: 2
#     Edge 22, Type (0, 0), BuildingBlock: EZIPEK_clean_linker_0, # of connection points: 2
#     Edge 23, Type (0, 0), BuildingBlock: EZIPEK_clean_linker_0, # of connection points: 2
#     Edge 24, Type (0, 0), BuildingBlock: EZIPEK_clean_linker_0, # of connection points: 2
#     Edge 25, Type (0, 0), BuildingBlock: EZIPEK_clean_linker_0, # of connection points: 2
#     Edge 26, Type (0, 0), BuildingBlock: EZIPEK_clean_linker_0, # of connection points: 2
#     Edge 27, Type (0, 0), BuildingBlock: EZIPEK_clean_linker_0, # of connection points: 2
#     Edge 28, Type (0, 0), BuildingBlock: EZIPEK_clean_linker_0, # of connection points: 2
#     Edge 29, Type (0, 0), BuildingBlock: EZIPEK_clean_linker_0, # of connection points: 2
#     Edge 30, Type (0, 0), BuildingBlock: EZIPEK_clean_linker_0, # of connection points: 2
#     Edge 31, Type (0, 0), BuildingBlock: EZIPEK_clean_linker_0, # of connection points: 2
#     Edge 32, Type (0, 0), BuildingBlock: EZIPEK_clean_linker_0, # of connection points: 2
#     Edge 33, Type (0, 0), BuildingBlock: EZIPEK_clean_linker_0, # of connection points: 2
#     Edge 34, Type (0, 0), BuildingBlock: EZIPEK_clean_linker_0, # of connection points: 2
#     Edge 35, Type (0, 0), BuildingBlock: EZIPEK_clean_linker_0, # of connection points: 2
# Relax obj value: 0.020
# Max RMSD: 0.036
# Mean RMSD: 0.036
data_MOF--net-una--node1-CEKHIL_clean_sbu_0--edge1-EZIPEK_clean_linker_0
_symmetry_space_group_name_H-M    P1
_symmetry_Int_Tables_number       1
_symmetry_cell_setting            triclinic
loop_
_symmetry_equiv_pos_as_xyz
'x, y, z'
_cell_length_a     42.166037
_cell_length_b     42.14017
_cell_length_c     16.066794
_cell_angle_alpha  89.98107
_cell_angle_beta   90.024911
_cell_angle_gamma 119.89551
loop_
_atom_site_label
_atom_site_type_symbol
_atom_site_fract_x
_atom_site_fract_y
_atom_site_fract_z
_atom_type_partial_charge
Co0 Co 0.13283 0.43763 0.0259 0.0
O1 O 0.10331 0.43656 0.93329 0.0
O2 O 0.08138 0.40166 0.04498 0.0
C3 C 0.1752 0.4353 0.94409 0.0
O4 O 0.15661 0.43079 0.13221 0.0
Co5 Co 0.2103 0.50337 0.04336 0.0
O6 O 0.21473 0.47736 0.14103 0.0
C7 C 0.14752 0.51269 0.07926 0.0
C8 C 0.07539 0.41095 0.9717 0.0
C9 C 0.18843 0.44736 0.16779 0.0
O10 O 0.12654 0.47774 0.07866 0.0
O11 O 0.1812 0.52862 0.05824 0.0
O12 O 0.14595 0.40561 0.96687 0.0
O13 O 0.17712 0.46562 0.96725 0.0
Co14 Co 0.7005 0.13531 0.18459 0.0
O15 O 0.67059 0.1035 0.09544 0.0
O16 O 0.68728 0.08453 0.20592 0.0
C17 C 0.74283 0.17816 0.09877 0.0
O18 O 0.73282 0.16034 0.28798 0.0
Co19 Co 0.71226 0.21349 0.20271 0.0
O20 O 0.74287 0.21794 0.30004 0.0
C21 C 0.64142 0.15031 0.24779 0.0
C22 C 0.67045 0.07654 0.13445 0.0
C23 C 0.74746 0.19185 0.32487 0.0
O24 O 0.655 0.1289 0.24311 0.0
O25 O 0.65867 0.18393 0.22589 0.0
O26 O 0.74438 0.14914 0.11893 0.0
O27 O 0.71462 0.17935 0.12585 0.0
Co28 Co 0.5684 0.69407 0.36262 0.0
O29 O 0.56937 0.66512 0.27051 0.0
O30 O 0.60437 0.67848 0.38199 0.0
C31 C 0.57038 0.73846 0.27972 0.0
O32 O 0.57576 0.72514 0.46866 0.0
Co33 Co 0.50327 0.70726 0.38109 0.0
O34 O 0.52948 0.7372 0.47911 0.0
C35 C 0.49326 0.6348 0.41839 0.0
C36 C 0.59515 0.66298 0.30901 0.0
C37 C 0.55949 0.74057 0.50511 0.0
O38 O 0.52816 0.64809 0.41665 0.0
O39 O 0.4777 0.653 0.39757 0.0
O40 O 0.60016 0.73882 0.30167 0.0
O41 O 0.54024 0.71045 0.30445 0.0
Co42 Co 0.87677 0.57157 0.51395 0.0
O43 O 0.90968 0.57392 0.42814 0.0
O44 O 0.92732 0.60701 0.54322 0.0
C45 C 0.83772 0.57522 0.42431 0.0
O46 O 0.84858 0.57652 0.61414 0.0
Co47 Co 0.79777 0.50552 0.51443 0.0
O48 O 0.78931 0.53254 0.6041 0.0
C49 C 0.85888 0.49532 0.56725 0.0
C50 C 0.93603 0.59901 0.47145 0.0
C51 C 0.81495 0.5606 0.63992 0.0
O52 O 0.88035 0.53025 0.56911 0.0
O53 O 0.8261 0.48003 0.53953 0.0
O54 O 0.86647 0.60468 0.45006 0.0
O55 O 0.83499 0.54472 0.44844 0.0
Co56 Co 0.31233 0.87357 0.67909 0.0
O57 O 0.34328 0.90534 0.59231 0.0
O58 O 0.32769 0.92452 0.70489 0.0
C59 C 0.26998 0.83442 0.58961 0.0
O60 O 0.27858 0.84654 0.77925 0.0
Co61 Co 0.29833 0.79404 0.68446 0.0
O62 O 0.26256 0.78691 0.77221 0.0
C63 C 0.3697 0.85502 0.73674 0.0
C64 C 0.34432 0.93223 0.63306 0.0
C65 C 0.26029 0.81306 0.806 0.0
O66 O 0.35664 0.87689 0.73661 0.0
O67 O 0.35201 0.82201 0.71038 0.0
O68 O 0.26962 0.86359 0.61362 0.0
O69 O 0.29713 0.8311 0.61599 0.0
Co70 Co 0.43793 0.30649 0.85557 0.0
O71 O 0.43194 0.33352 0.76676 0.0
O72 O 0.40414 0.32351 0.88835 0.0
C73 C 0.42982 0.26028 0.77118 0.0
O74 O 0.43879 0.27855 0.96136 0.0
Co75 Co 0.50315 0.29252 0.84329 0.0
O76 O 0.47786 0.25783 0.93544 0.0
C77 C 0.51599 0.36518 0.89527 0.0
C78 C 0.40926 0.3373 0.81353 0.0
C79 C 0.45423 0.25961 0.98167 0.0
O80 O 0.48133 0.35298 0.89787 0.0
O81 O 0.53023 0.34639 0.86904 0.0
O82 O 0.40185 0.26056 0.80378 0.0
O83 O 0.46126 0.28866 0.78595 0.0
Co84 Co 0.56897 0.87318 0.92811 0.0
O85 O 0.56959 0.90582 0.01299 0.0
O86 O 0.60567 0.92394 0.90366 0.0
C87 C 0.571 0.83383 0.01981 0.0
O88 O 0.57581 0.84537 0.82923 0.0
Co89 Co 0.50321 0.79382 0.92311 0.0
O90 O 0.53161 0.78601 0.83593 0.0
C91 C 0.49378 0.8553 0.86777 0.0
C92 C 0.59665 0.93243 0.97447 0.0
C93 C 0.56025 0.81184 0.80236 0.0
O94 O 0.52869 0.87701 0.86823 0.0
O95 O 0.47829 0.82243 0.89511 0.0
O96 O 0.60079 0.86265 0.99616 0.0
O97 O 0.54095 0.83099 0.99192 0.0
Co98 Co 0.69648 0.56746 0.07911 0.0
O99 O 0.66715 0.56842 0.17034 0.0
O100 O 0.67983 0.60247 0.05737 0.0
C101 C 0.74155 0.57146 0.16297 0.0
O102 O 0.72776 0.57472 0.97386 0.0
Co103 Co 0.71128 0.50327 0.06518 0.0
O104 O 0.74019 0.52864 0.9653 0.0
C105 C 0.63876 0.49136 0.0226 0.0
C106 C 0.66448 0.59363 0.13054 0.0
C107 C 0.74323 0.55836 0.93814 0.0
O108 O 0.65109 0.52613 0.02528 0.0
O109 O 0.65741 0.47646 0.0446 0.0
O110 O 0.74098 0.60058 0.1392 0.0
O111 O 0.71389 0.54069 0.13972 0.0
Co112 Co 0.13268 0.698 0.24475 0.0
O113 O 0.10274 0.66948 0.33679 0.0
O114 O 0.08148 0.68343 0.22525 0.0
C115 C 0.17525 0.74179 0.32762 0.0
O116 O 0.15675 0.72874 0.13885 0.0
Co117 Co 0.21038 0.70937 0.22719 0.0
O118 O 0.21468 0.73957 0.12921 0.0
C119 C 0.14704 0.63763 0.19003 0.0
C120 C 0.07512 0.66793 0.29827 0.0
C121 C 0.18844 0.74355 0.1028 0.0
O122 O 0.12608 0.65169 0.19096 0.0
O123 O 0.18073 0.65515 0.21121 0.0
O124 O 0.14625 0.74293 0.30544 0.0
O125 O 0.17685 0.71342 0.30301 0.0
Co126 Co 0.44055 0.13129 0.42326 0.0
O127 O 0.43483 0.09756 0.5101 0.0
O128 O 0.40683 0.08087 0.38846 0.0
C129 C 0.43267 0.16844 0.51089 0.0
O130 O 0.44097 0.16088 0.31944 0.0
Co131 Co 0.50512 0.21056 0.43644 0.0
O132 O 0.47708 0.22041 0.35145 0.0
C133 C 0.51849 0.1514 0.38057 0.0
C134 C 0.41215 0.07155 0.46243 0.0
C135 C 0.45465 0.19539 0.30273 0.0
O136 O 0.4839 0.12867 0.37881 0.0
O137 O 0.53252 0.18433 0.40723 0.0
O138 O 0.40462 0.14062 0.47742 0.0
O139 O 0.46414 0.17182 0.49433 0.0
Co140 Co 0.30949 0.43494 0.59249 0.0
O141 O 0.33977 0.43324 0.67984 0.0
O142 O 0.32433 0.39882 0.56688 0.0
C143 C 0.26707 0.43235 0.68104 0.0
O144 O 0.27646 0.42939 0.49138 0.0
Co145 Co 0.29696 0.5014 0.58779 0.0
O146 O 0.26117 0.47357 0.49948 0.0
C147 C 0.36806 0.51046 0.53715 0.0
C148 C 0.34077 0.40743 0.63899 0.0
C149 C 0.25867 0.44522 0.46481 0.0
O150 O 0.35443 0.4755 0.5364 0.0
O151 O 0.35072 0.5262 0.56338 0.0
O152 O 0.26619 0.4026 0.65674 0.0
O153 O 0.29478 0.46259 0.65587 0.0
Co154 Co 0.87832 0.31362 0.75012 0.0
O155 O 0.91106 0.34439 0.83592 0.0
O156 O 0.92886 0.32808 0.72231 0.0
C157 C 0.8392 0.2719 0.84084 0.0
O158 O 0.85039 0.28004 0.65028 0.0
Co159 Co 0.79913 0.30052 0.74708 0.0
O160 O 0.79112 0.26516 0.65754 0.0
C161 C 0.86043 0.37158 0.69387 0.0
C162 C 0.9374 0.34492 0.79391 0.0
C163 C 0.81692 0.26247 0.62327 0.0
O164 O 0.88208 0.35825 0.6931 0.0
O165 O 0.82759 0.35415 0.72112 0.0
O166 O 0.86775 0.2706 0.81577 0.0
O167 O 0.83643 0.29938 0.81465 0.0
C168 C 0.22698 0.42566 0.23761 0.0
C169 C 0.19687 0.4318 0.24252 0.0
C170 C 0.1992 0.429 0.39466 0.0
C171 C 0.23424 0.4317 0.38964 0.0
N172 N 0.28196 0.4331 0.30341 0.0
N173 N 0.15312 0.43826 0.32605 0.0
C174 C 0.24789 0.42916 0.31042 0.0
C175 C 0.18202 0.43223 0.32117 0.0
N176 N 0.23578 0.41701 0.16241 0.0
N177 N 0.18258 0.42377 0.47029 0.0
H178 H 0.13912 0.43939 0.27368 0.0
H179 H 0.14412 0.44389 0.38152 0.0
H180 H 0.19471 0.42175 0.52496 0.0
H181 H 0.15574 0.41812 0.47787 0.0
H182 H 0.25544 0.40915 0.15505 0.0
H183 H 0.22049 0.41399 0.10882 0.0
H184 H 0.29512 0.43632 0.2466 0.0
H185 H 0.2983 0.43552 0.35425 0.0
C186 C 0.82345 0.25111 0.46973 0.0
C187 C 0.80626 0.2379 0.54831 0.0
C188 C 0.75479 0.18509 0.47841 0.0
C189 C 0.77091 0.19977 0.40035 0.0
N190 N 0.82563 0.23768 0.3233 0.0
N191 N 0.76139 0.18669 0.62839 0.0
C192 C 0.80712 0.22972 0.39696 0.0
C193 C 0.77391 0.20285 0.55271 0.0
N194 N 0.85353 0.28518 0.46293 0.0
N195 N 0.72029 0.15551 0.48153 0.0
H196 H 0.77442 0.19925 0.68366 0.0
H197 H 0.74025 0.15985 0.63601 0.0
H198 H 0.70668 0.14061 0.42866 0.0
H199 H 0.70471 0.14654 0.53568 0.0
H200 H 0.8642 0.29786 0.40601 0.0
H201 H 0.86656 0.30204 0.51363 0.0
H202 H 0.85316 0.25736 0.31719 0.0
H203 H 0.81425 0.2214 0.27058 0.0
C204 C 0.5824 0.80071 0.57631 0.0
C205 C 0.57524 0.76411 0.58051 0.0
C206 C 0.57632 0.76821 0.73284 0.0
C207 C 0.57434 0.801 0.72788 0.0
N208 N 0.57501 0.84841 0.64144 0.0
N209 N 0.56707 0.71305 0.66324 0.0
C210 C 0.57823 0.81784 0.64885 0.0
C211 C 0.5736 0.74818 0.65902 0.0
N212 N 0.59285 0.81882 0.50209 0.0
N213 N 0.58044 0.75609 0.80866 0.0
H214 H 0.56663 0.69837 0.61063 0.0
H215 H 0.56055 0.69798 0.71819 0.0
H216 H 0.58221 0.77002 0.86351 0.0
H217 H 0.58547 0.73445 0.8164 0.0
H218 H 0.60134 0.84651 0.49543 0.0
H219 H 0.5969 0.80684 0.44929 0.0
H220 H 0.57286 0.85888 0.58432 0.0
H221 H 0.57206 0.86214 0.69195 0.0
C222 C 0.77151 0.57648 0.71083 0.0
C223 C 0.80386 0.57375 0.71546 0.0
C224 C 0.80318 0.58026 0.8674 0.0
C225 C 0.76691 0.57398 0.86306 0.0
N226 N 0.71657 0.56773 0.78031 0.0
N227 N 0.85038 0.57241 0.80133 0.0
C228 C 0.75139 0.57347 0.78463 0.0
C229 C 0.82029 0.57645 0.79448 0.0
N230 N 0.75993 0.58169 0.63535 0.0
N231 N 0.82097 0.58941 0.94215 0.0
H232 H 0.86407 0.56965 0.75051 0.0
H233 H 0.86046 0.56935 0.85815 0.0
H234 H 0.80896 0.59287 0.99565 0.0
H235 H 0.84851 0.59734 0.94901 0.0
H236 H 0.73869 0.58733 0.62807 0.0
H237 H 0.77395 0.58374 0.58049 0.0
H238 H 0.70173 0.56196 0.72515 0.0
H239 H 0.70185 0.56716 0.83291 0.0
C240 C 0.24812 0.81975 0.95892 0.0
C241 C 0.23531 0.80267 0.88008 0.0
C242 C 0.1825 0.7508 0.94873 0.0
C243 C 0.19663 0.76692 0.02712 0.0
N244 N 0.23392 0.8217 0.10487 0.0
N245 N 0.18431 0.75818 0.7989 0.0
C246 C 0.22637 0.80326 0.03112 0.0
C247 C 0.20031 0.77034 0.87489 0.0
N248 N 0.28213 0.84983 0.96661 0.0
N249 N 0.15357 0.71592 0.94478 0.0
H250 H 0.19681 0.77171 0.74394 0.0
H251 H 0.15754 0.73693 0.791 0.0
H252 H 0.13897 0.70163 0.99739 0.0
H253 H 0.14507 0.70064 0.89013 0.0
H254 H 0.29449 0.86038 0.02388 0.0
H255 H 0.29925 0.86298 0.91637 0.0
H256 H 0.25341 0.84929 0.11122 0.0
H257 H 0.21755 0.81015 0.15738 0.0
C258 C 0.48473 0.23311 0.1769 0.0
C259 C 0.45161 0.20825 0.21745 0.0
C260 C 0.41758 0.21633 0.10164 0.0
C261 C 0.45105 0.24452 0.06782 0.0
N262 N 0.51528 0.28684 0.0905 0.0
N263 N 0.38592 0.17936 0.22325 0.0
C264 C 0.48419 0.25508 0.11105 0.0
C265 C 0.41771 0.20062 0.18114 0.0
N266 N 0.51686 0.23483 0.19914 0.0
N267 N 0.38604 0.20381 0.05704 0.0
H268 H 0.38525 0.16734 0.28047 0.0
H269 H 0.36071 0.17575 0.20418 0.0
H270 H 0.38515 0.21505 0.99981 0.0
H271 H 0.36146 0.1809 0.07418 0.0
H272 H 0.54117 0.25029 0.16635 0.0
H273 H 0.51827 0.2175 0.24358 0.0
H274 H 0.53933 0.29728 0.12516 0.0
H275 H 0.51574 0.3048 0.04514 0.0
C276 C 0.13081 0.54197 0.19371 0.0
C277 C 0.13316 0.53649 0.1074 0.0
C278 C 0.13157 0.59239 0.0746 0.0
C279 C 0.13272 0.59962 0.16102 0.0
N280 N 0.12182 0.57727 0.3015 0.0
N281 N 0.1241 0.54891 0.96619 0.0
C282 C 0.12816 0.57277 0.22017 0.0
C283 C 0.12936 0.55918 0.04795 0.0
N284 N 0.13352 0.51915 0.25008 0.0
N285 N 0.13497 0.61828 0.0185 0.0
H286 H 0.12223 0.52446 0.9461 0.0
H287 H 0.11835 0.56262 0.91999 0.0
H288 H 0.13542 0.64229 0.03639 0.0
H289 H 0.13874 0.61676 0.95492 0.0
H290 H 0.13637 0.52401 0.3139 0.0
H291 H 0.13436 0.49577 0.23237 0.0
H292 H 0.11546 0.55752 0.3473 0.0
H293 H 0.11967 0.59972 0.32139 0.0
C294 C 0.5763 0.13284 0.22842 0.0
C295 C 0.60447 0.13697 0.28294 0.0
C296 C 0.56818 0.13638 0.40262 0.0
C297 C 0.5439 0.13985 0.34728 0.0
N298 N 0.52376 0.14085 0.20718 0.0
N299 N 0.62754 0.14123 0.42193 0.0
C300 C 0.5471 0.13705 0.25997 0.0
C301 C 0.60012 0.13748 0.37033 0.0
N302 N 0.578 0.12535 0.14635 0.0
N303 N 0.56052 0.13208 0.48586 0.0
H304 H 0.65053 0.14069 0.40001 0.0
H305 H 0.62832 0.14636 0.48548 0.0
H306 H 0.53709 0.13098 0.51058 0.0
H307 H 0.57537 0.12635 0.5291 0.0
H308 H 0.55699 0.11901 0.10397 0.0
H309 H 0.59927 0.12209 0.12265 0.0
H310 H 0.5273 0.14346 0.14294 0.0
H311 H 0.50176 0.14349 0.22792 0.0
C312 C 0.43317 0.55702 0.56333 0.0
C313 C 0.40561 0.53458 0.50571 0.0
C314 C 0.44534 0.57037 0.39035 0.0
C315 C 0.469 0.59699 0.44832 0.0
N316 N 0.48745 0.61569 0.59003 0.0
N317 N 0.38536 0.51777 0.36413 0.0
C318 C 0.46402 0.58992 0.535 0.0
C319 C 0.41202 0.54009 0.41888 0.0
N320 N 0.42946 0.54676 0.64504 0.0
N321 N 0.45484 0.57451 0.30814 0.0
H322 H 0.36113 0.49481 0.38314 0.0
H323 H 0.38642 0.52279 0.30047 0.0
H324 H 0.47935 0.59649 0.28667 0.0
H325 H 0.44041 0.55481 0.26294 0.0
H326 H 0.44979 0.56021 0.68956 0.0
H327 H 0.40708 0.52255 0.66653 0.0
H328 H 0.48296 0.61436 0.65395 0.0
H329 H 0.51089 0.63947 0.57104 0.0
C330 C 0.87399 0.46653 0.68653 0.0
C331 C 0.87174 0.47072 0.59949 0.0
C332 C 0.87321 0.41416 0.57333 0.0
C333 C 0.87296 0.40873 0.66046 0.0
N334 N 0.88444 0.43394 0.79846 0.0
N335 N 0.88055 0.45568 0.46033 0.0
C336 C 0.87734 0.43656 0.71653 0.0
C337 C 0.87531 0.44688 0.54296 0.0
N338 N 0.87054 0.48972 0.74041 0.0
N339 N 0.86917 0.38713 0.52 0.0
H340 H 0.88247 0.47974 0.43722 0.0
H341 H 0.88637 0.44116 0.41636 0.0
H342 H 0.86863 0.36335 0.54023 0.0
H343 H 0.86464 0.3874 0.45638 0.0
H344 H 0.86752 0.48557 0.80445 0.0
H345 H 0.86886 0.51239 0.72053 0.0
H346 H 0.89094 0.45465 0.84182 0.0
H347 H 0.88722 0.41223 0.82116 0.0
C348 C 0.41201 0.86834 0.85811 0.0
C349 C 0.40674 0.8675 0.77079 0.0
C350 C 0.46518 0.86959 0.74679 0.0
C351 C 0.46925 0.86796 0.83406 0.0
N352 N 0.45338 0.87685 0.9723 0.0
N353 N 0.43221 0.87835 0.63306 0.0
C354 C 0.4449 0.87122 0.88955 0.0
C355 C 0.43485 0.87198 0.71547 0.0
N356 N 0.38468 0.86409 0.91068 0.0
N357 N 0.48893 0.86651 0.69406 0.0
H358 H 0.41026 0.88043 0.60932 0.0
H359 H 0.45305 0.88489 0.59011 0.0
H360 H 0.51193 0.86571 0.71502 0.0
H361 H 0.48502 0.86305 0.63001 0.0
H362 H 0.38489 0.85999 0.97451 0.0
H363 H 0.3607 0.86291 0.88972 0.0
H364 H 0.43848 0.88247 0.01559 0.0
H365 H 0.47753 0.87927 0.9962 0.0
C366 C 0.54467 0.40943 0.01377 0.0
C367 C 0.5413 0.40249 0.92679 0.0
C368 C 0.59748 0.46068 0.90119 0.0
C369 C 0.60194 0.46654 0.98834 0.0
N370 N 0.57571 0.45323 0.12522 0.0
N371 N 0.55763 0.42536 0.78706 0.0
C372 C 0.57392 0.44313 0.04379 0.0
C373 C 0.56548 0.42957 0.87022 0.0
N374 N 0.52144 0.38295 0.0678 0.0
N375 N 0.62481 0.48369 0.84864 0.0
H376 H 0.53412 0.40286 0.76328 0.0
H377 H 0.57237 0.44545 0.74283 0.0
H378 H 0.64792 0.50738 0.86936 0.0
H379 H 0.62544 0.47858 0.78545 0.0
H380 H 0.52515 0.38455 0.13203 0.0
H381 H 0.49934 0.35819 0.04821 0.0
H382 H 0.55476 0.43906 0.16798 0.0
H383 H 0.59698 0.47796 0.14787 0.0
C384 C 0.25967 0.44925 0.82581 0.0
C385 C 0.24343 0.43184 0.74929 0.0
C386 C 0.18296 0.41688 0.80059 0.0
C387 C 0.199 0.43439 0.87732 0.0
N388 N 0.25265 0.46999 0.96126 0.0
N389 N 0.18917 0.39045 0.67242 0.0
C390 C 0.2374 0.45141 0.88931 0.0
C391 C 0.20495 0.41299 0.7393 0.0
N392 N 0.29583 0.46081 0.84043 0.0
N393 N 0.1473 0.40649 0.78332 0.0
H394 H 0.20414 0.38732 0.62483 0.0
H395 H 0.16116 0.37241 0.66743 0.0
H396 H 0.13037 0.41033 0.82418 0.0
H397 H 0.13546 0.39768 0.72486 0.0
H398 H 0.30872 0.4702 0.8976 0.0
H399 H 0.31273 0.45788 0.79761 0.0
H400 H 0.28051 0.48759 0.97003 0.0
H401 H 0.237 0.46907 0.01178 0.0
C402 C 0.76538 0.18914 0.95236 0.0
C403 C 0.76678 0.20333 0.03293 0.0
C404 C 0.81484 0.26373 0.98614 0.0
C405 C 0.81577 0.24811 0.90841 0.0
N406 N 0.7988 0.19379 0.82697 0.0
N407 N 0.79581 0.25317 0.13024 0.0
C408 C 0.79336 0.2101 0.89455 0.0
C409 C 0.79218 0.24049 0.0508 0.0
N410 N 0.73593 0.15669 0.92897 0.0
N411 N 0.8361 0.30059 0.99894 0.0
H412 H 0.77933 0.23681 0.17806 0.0
H413 H 0.8167 0.2786 0.14997 0.0
H414 H 0.85623 0.3181 0.95745 0.0
H415 H 0.83285 0.31416 0.0495 0.0
H416 H 0.73215 0.14644 0.86852 0.0
H417 H 0.71304 0.14281 0.96705 0.0
H418 H 0.7852 0.16548 0.81898 0.0
H419 H 0.81908 0.20816 0.78278 0.0
C420 C 0.55487 0.78557 0.22853 0.0
C421 C 0.57065 0.76321 0.21369 0.0
C422 C 0.59083 0.7909 0.07576 0.0
C423 C 0.57136 0.80999 0.08681 0.0
N424 N 0.53424 0.82563 0.17355 0.0
N425 N 0.59694 0.73901 0.11626 0.0
C426 C 0.55288 0.80706 0.16285 0.0
C427 C 0.58697 0.76445 0.13557 0.0
N428 N 0.54385 0.78802 0.30689 0.0
N429 N 0.61337 0.79816 0.00874 0.0
H430 H 0.59344 0.71818 0.15666 0.0
H431 H 0.60512 0.73614 0.05689 0.0
H432 H 0.61614 0.81625 0.96139 0.0
H433 H 0.63154 0.78828 1.00326 0.0
H434 H 0.53608 0.8069 0.32483 0.0
H435 H 0.54583 0.77333 0.35632 0.0
H436 H 0.51572 0.8202 0.22175 0.0
H437 H 0.53617 0.84577 0.13291 0.0
C438 C 0.79451 0.59448 0.36711 0.0
C439 C 0.81479 0.57629 0.35606 0.0
C440 C 0.78942 0.55725 0.21574 0.0
C441 C 0.76716 0.57331 0.22886 0.0
N442 N 0.74278 0.60035 0.32388 0.0
N443 N 0.83923 0.54872 0.2635 0.0
C444 C 0.76841 0.59046 0.30603 0.0
C445 C 0.81409 0.55957 0.27887 0.0
N446 N 0.80077 0.61642 0.43491 0.0
N447 N 0.78673 0.53944 0.14295 0.0
H448 H 0.85915 0.5518 0.30624 0.0
H449 H 0.84299 0.53976 0.20602 0.0
H450 H 0.77208 0.54066 0.09263 0.0
H451 H 0.79762 0.52239 0.13306 0.0
H452 H 0.79023 0.634 0.44108 0.0
H453 H 0.81901 0.61954 0.48219 0.0
H454 H 0.73962 0.60888 0.38257 0.0
H455 H 0.72197 0.59648 0.28307 0.0
C456 C 0.18457 0.76709 0.47226 0.0
C457 C 0.19965 0.76598 0.39403 0.0
C458 C 0.26125 0.80852 0.44574 0.0
C459 C 0.24576 0.81132 0.52206 0.0
N460 N 0.1922 0.80028 0.6001 0.0
N461 N 0.25122 0.79056 0.30104 0.0
C462 C 0.20728 0.79292 0.53278 0.0
C463 C 0.23775 0.78781 0.37953 0.0
N464 N 0.14903 0.74212 0.49091 0.0
N465 N 0.29838 0.82647 0.43524 0.0
H466 H 0.23451 0.77654 0.25116 0.0
H467 H 0.27795 0.80916 0.28354 0.0
H468 H 0.31675 0.84629 0.4761 0.0
H469 H 0.31125 0.82086 0.38679 0.0
H470 H 0.13794 0.7391 0.55027 0.0
H471 H 0.13152 0.72179 0.44986 0.0
H472 H 0.16428 0.79093 0.60545 0.0
H473 H 0.20761 0.818 0.64784 0.0
C474 C 0.42124 0.24154 0.62134 0.0
C475 C 0.42547 0.23398 0.70552 0.0
C476 C 0.43283 0.18252 0.66215 0.0
C477 C 0.42831 0.18982 0.57791 0.0
N478 N 0.41015 0.22042 0.47809 0.0
N479 N 0.42481 0.19203 0.80776 0.0
C480 C 0.41986 0.21747 0.55772 0.0
C481 C 0.42812 0.20284 0.72652 0.0
N482 N 0.4195 0.27222 0.60205 0.0
N483 N 0.442 0.15645 0.6807 0.0
H484 H 0.41964 0.20559 0.85549 0.0
H485 H 0.42321 0.16766 0.82682 0.0
H486 H 0.44371 0.13947 0.63603 0.0
H487 H 0.45006 0.15306 0.73976 0.0
H488 H 0.42112 0.28181 0.54159 0.0
H489 H 0.4183 0.28934 0.64708 0.0
H490 H 0.40009 0.23758 0.46097 0.0
H491 H 0.40927 0.20344 0.4299 0.0
C492 C 0.02268 0.41424 0.90892 0.0
C493 C 0.03902 0.3929 0.93011 0.0
C494 C 0.98949 0.33997 0.85753 0.0
C495 C 0.97463 0.3621 0.83131 0.0
N496 N 0.98016 0.42162 0.82009 0.0
N497 N 0.04192 0.33758 0.91209 0.0
C498 C 0.99218 0.39966 0.85366 0.0
C499 C 0.0235 0.35632 0.90105 0.0
N500 N 0.03568 0.44808 0.94389 0.0
N501 N 0.97035 0.30301 0.84441 0.0
H502 H 0.06654 0.34828 0.9446 0.0
H503 H 0.03428 0.31259 0.88361 0.0
H504 H 0.9457 0.28993 0.81185 0.0
H505 H 0.9775 0.28492 0.87106 0.0
H506 H 0.02286 0.46362 0.93785 0.0
H507 H 0.05762 0.45937 0.98545 0.0
H508 H 0.9938 0.44994 0.82707 0.0
H509 H 0.95825 0.41188 0.77852 0.0
C510 C 0.6346 1.00222 0.96736 0.0
C511 C 0.61763 0.96947 0.01489 0.0
C512 C 0.6331 0.00683 0.1425 0.0
C513 C 0.65368 0.03922 0.09536 0.0
N514 N 0.68496 0.06428 0.9654 0.0
N515 N 0.61407 0.94267 0.15098 0.0
C516 C 0.65761 0.03597 0.00833 0.0
C517 C 0.6207 0.97227 0.10355 0.0
N518 N 0.6281 1.00184 0.88404 0.0
N519 N 0.6242 0.00854 0.22341 0.0
H520 H 0.60934 0.91793 0.12561 0.0
H521 H 0.61858 0.94445 0.21506 0.0
H522 H 0.63109 0.03304 0.25347 0.0
H523 H 0.60647 0.98526 0.25738 0.0
H524 H 0.63801 0.02581 0.84916 0.0
H525 H 0.60951 0.97836 0.85205 0.0
H526 H 0.69034 0.06234 0.90282 0.0
H527 H 0.70542 0.08718 0.99578 0.0
C528 C 0.66783 0.64939 0.19762 0.0
C529 C 0.6465 0.61244 0.17104 0.0
C530 C 0.59339 0.60739 0.24672 0.0
C531 C 0.61389 0.64511 0.26766 0.0
N532 N 0.6687 0.70368 0.25097 0.0
N533 N 0.58778 0.55763 0.1598 0.0
C534 C 0.65063 0.66657 0.23998 0.0
C535 C 0.60891 0.59181 0.19281 0.0
N536 N 0.70486 0.6677 0.18567 0.0
N537 N 0.55943 0.58618 0.2806 0.0
H538 H 0.59819 0.5456 0.11958 0.0
H539 H 0.55947 0.54248 0.16609 0.0
H540 H 0.54743 0.5966 0.32086 0.0
H541 H 0.54444 0.55782 0.27496 0.0
H542 H 0.72243 0.693 0.21252 0.0
H543 H 0.71851 0.65642 0.15417 0.0
H544 H 0.6938 0.72129 0.22338 0.0
H545 H 0.65737 0.71732 0.28236 0.0
C546 C 0.02129 0.61271 0.36007 0.0
C547 C 0.0387 0.65048 0.33959 0.0
C548 C 0.98967 0.65543 0.41062 0.0
C549 C 0.97361 0.61826 0.43584 0.0
N550 N 0.97718 0.56316 0.44706 0.0
N551 N 0.04342 0.70948 0.35828 0.0
C552 C 0.99038 0.59739 0.41411 0.0
C553 C 0.02398 0.67233 0.36838 0.0
N554 N 0.03365 0.59122 0.32553 0.0
N555 N 0.97139 0.6742 0.42346 0.0
H556 H 0.06833 0.72289 0.32682 0.0
H557 H 0.03629 0.72727 0.38662 0.0
H558 H 0.94658 0.66317 0.45521 0.0
H559 H 0.97947 0.69974 0.39741 0.0
H560 H 0.02007 0.56283 0.33096 0.0
H561 H 0.0559 0.60143 0.28492 0.0
H562 H 0.99015 0.54778 0.44053 0.0
H563 H 0.95494 0.5514 0.48775 0.0
C564 C 0.3559 0.0175 0.52141 0.0
C565 C 0.39293 0.0336 0.49557 0.0
C566 C 0.39919 0.98653 0.57234 0.0
C567 C 0.36156 0.96907 0.59377 0.0
N568 N 0.30237 0.96411 0.57658 0.0
N569 N 0.44831 0.03069 0.48447 0.0
C570 C 0.33941 0.98353 0.56513 0.0
C571 C 0.4141 0.01721 0.51757 0.0
N572 N 0.33687 0.03542 0.50723 0.0
N573 N 0.42092 0.97441 0.6067 0.0
H574 H 0.45974 0.05284 0.44343 0.0
H575 H 0.46403 0.01809 0.49129 0.0
H576 H 0.41096 0.95238 0.64799 0.0
H577 H 0.44925 0.98798 0.60045 0.0
H578 H 0.31148 0.02757 0.53373 0.0
H579 H 0.3475 0.05964 0.47308 0.0
H580 H 0.28433 0.97094 0.54838 0.0
H581 H 0.28921 0.93954 0.60946 0.0
C582 C 0.39574 0.40849 0.7008 0.0
C583 C 0.35826 0.38797 0.67811 0.0
C584 C 0.35308 0.33421 0.75106 0.0
C585 C 0.38983 0.35556 0.77857 0.0
N586 N 0.44459 0.41416 0.79095 0.0
N587 N 0.29946 0.33321 0.69309 0.0
C588 C 0.41067 0.3931 0.75669 0.0
C589 C 0.33642 0.35129 0.70614 0.0
N590 N 0.41731 0.44235 0.66662 0.0
N591 N 0.3345 0.2973 0.76501 0.0
H592 H 0.28623 0.34436 0.65934 0.0
H593 H 0.28153 0.30821 0.72069 0.0
H594 H 0.34523 0.28402 0.8001 0.0
H595 H 0.30943 0.27951 0.7375 0.0
H596 H 0.44558 0.45741 0.67394 0.0
H597 H 0.40736 0.45411 0.62436 0.0
H598 H 0.45997 0.44246 0.78425 0.0
H599 H 0.45605 0.4037 0.83269 0.0
loop_
_geom_bond_atom_site_label_1
_geom_bond_atom_site_label_2
_geom_bond_distance
_geom_bond_site_symmetry_2
_ccdc_geom_bond_type
Co0 O1 2.216 1_554 S
Co0 O2 2.091 . S
Co0 O4 2.004 . S
Co0 O10 2.021 . S
Co0 O12 2.137 1_554 S
Co0 O13 2.244 1_554 S
O1 Co0 2.216 1_556 S
O1 C8 1.247 . S
O2 Co0 2.091 . S
O2 C8 1.261 1_554 S
C3 O12 1.247 . S
C3 O13 1.272 . S
O4 Co0 2.004 . S
O4 C9 1.259 . S
Co5 O6 2.061 . S
Co5 O11 2.052 . S
Co5 O13 2.135 1_554 S
O6 Co5 2.061 . S
O6 C9 1.235 . S
C7 O10 1.238 . S
C7 O11 1.241 . S
C8 O1 1.247 . S
C8 O2 1.261 1_556 S
C9 O4 1.259 . S
C9 O6 1.235 . S
O10 Co0 2.021 . S
O10 C7 1.238 . S
O11 Co5 2.052 . S
O11 C7 1.241 . S
O12 Co0 2.137 1_556 S
O12 C3 1.247 . S
O13 Co0 2.244 1_556 S
O13 C3 1.272 . S
O13 Co5 2.135 1_556 S
Co14 O15 2.216 . S
Co14 O16 2.091 . S
Co14 O18 2.004 . S
Co14 O24 2.021 . S
Co14 O26 2.137 . S
Co14 O27 2.244 . S
O15 Co14 2.216 . S
O15 C22 1.247 . S
O16 Co14 2.091 . S
O16 C22 1.261 . S
C17 O26 1.247 . S
C17 O27 1.272 . S
O18 Co14 2.004 . S
O18 C23 1.259 . S
Co19 O20 2.061 . S
Co19 O25 2.052 . S
Co19 O27 2.135 . S
O20 Co19 2.061 . S
O20 C23 1.235 . S
C21 O24 1.238 . S
C21 O25 1.241 . S
C22 O15 1.247 . S
C22 O16 1.261 . S
C23 O18 1.259 . S
C23 O20 1.235 . S
O24 Co14 2.021 . S
O24 C21 1.238 . S
O25 Co19 2.052 . S
O25 C21 1.241 . S
O26 Co14 2.137 . S
O26 C17 1.247 . S
O27 Co14 2.244 . S
O27 C17 1.272 . S
O27 Co19 2.135 . S
Co28 O29 2.216 . S
Co28 O30 2.091 . S
Co28 O32 2.004 . S
Co28 O38 2.021 . S
Co28 O40 2.137 . S
Co28 O41 2.244 . S
O29 Co28 2.216 . S
O29 C36 1.247 . S
O30 Co28 2.091 . S
O30 C36 1.261 . S
C31 O40 1.247 . S
C31 O41 1.272 . S
O32 Co28 2.004 . S
O32 C37 1.259 . S
Co33 O34 2.061 . S
Co33 O39 2.052 . S
Co33 O41 2.135 . S
O34 Co33 2.061 . S
O34 C37 1.235 . S
C35 O38 1.238 . S
C35 O39 1.241 . S
C36 O29 1.247 . S
C36 O30 1.261 . S
C37 O32 1.259 . S
C37 O34 1.235 . S
O38 Co28 2.021 . S
O38 C35 1.238 . S
O39 Co33 2.052 . S
O39 C35 1.241 . S
O40 Co28 2.137 . S
O40 C31 1.247 . S
O41 Co28 2.244 . S
O41 C31 1.272 . S
O41 Co33 2.135 . S
Co42 O43 2.216 . S
Co42 O44 2.091 . S
Co42 O46 2.004 . S
Co42 O52 2.021 . S
Co42 O54 2.137 . S
Co42 O55 2.244 . S
O43 Co42 2.216 . S
O43 C50 1.247 . S
O44 Co42 2.091 . S
O44 C50 1.261 . S
C45 O54 1.247 . S
C45 O55 1.272 . S
O46 Co42 2.004 . S
O46 C51 1.259 . S
Co47 O48 2.061 . S
Co47 O53 2.052 . S
Co47 O55 2.135 . S
O48 Co47 2.061 . S
O48 C51 1.235 . S
C49 O52 1.238 . S
C49 O53 1.241 . S
C50 O43 1.247 . S
C50 O44 1.261 . S
C51 O46 1.259 . S
C51 O48 1.235 . S
O52 Co42 2.021 . S
O52 C49 1.238 . S
O53 Co47 2.052 . S
O53 C49 1.241 . S
O54 Co42 2.137 . S
O54 C45 1.247 . S
O55 Co42 2.244 . S
O55 C45 1.272 . S
O55 Co47 2.135 . S
Co56 O57 2.216 . S
Co56 O58 2.091 . S
Co56 O60 2.004 . S
Co56 O66 2.021 . S
Co56 O68 2.137 . S
Co56 O69 2.244 . S
O57 Co56 2.216 . S
O57 C64 1.247 . S
O58 Co56 2.091 . S
O58 C64 1.261 . S
C59 O68 1.247 . S
C59 O69 1.272 . S
O60 Co56 2.004 . S
O60 C65 1.259 . S
Co61 O62 2.061 . S
Co61 O67 2.052 . S
Co61 O69 2.135 . S
O62 Co61 2.061 . S
O62 C65 1.235 . S
C63 O66 1.238 . S
C63 O67 1.241 . S
C64 O57 1.247 . S
C64 O58 1.261 . S
C65 O60 1.259 . S
C65 O62 1.235 . S
O66 Co56 2.021 . S
O66 C63 1.238 . S
O67 Co61 2.052 . S
O67 C63 1.241 . S
O68 Co56 2.137 . S
O68 C59 1.247 . S
O69 Co56 2.244 . S
O69 C59 1.272 . S
O69 Co61 2.135 . S
Co70 O71 2.216 . S
Co70 O72 2.091 . S
Co70 O74 2.004 . S
Co70 O80 2.021 . S
Co70 O82 2.137 . S
Co70 O83 2.244 . S
O71 Co70 2.216 . S
O71 C78 1.247 . S
O72 Co70 2.091 . S
O72 C78 1.261 . S
C73 O82 1.247 . S
C73 O83 1.272 . S
O74 Co70 2.004 . S
O74 C79 1.259 1_556 S
Co75 O76 2.061 . S
Co75 O81 2.052 . S
Co75 O83 2.135 . S
O76 Co75 2.061 . S
O76 C79 1.235 1_556 S
C77 O80 1.238 . S
C77 O81 1.241 . S
C78 O71 1.247 . S
C78 O72 1.261 . S
C79 O74 1.259 1_554 S
C79 O76 1.235 1_554 S
O80 Co70 2.021 . S
O80 C77 1.238 . S
O81 Co75 2.052 . S
O81 C77 1.241 . S
O82 Co70 2.137 . S
O82 C73 1.247 . S
O83 Co70 2.244 . S
O83 C73 1.272 . S
O83 Co75 2.135 . S
Co84 O85 2.216 . S
Co84 O86 2.091 . S
Co84 O88 2.004 . S
Co84 O94 2.021 . S
Co84 O96 2.137 . S
Co84 O97 2.244 . S
O85 Co84 2.216 . S
O85 C92 1.247 . S
O86 Co84 2.091 . S
O86 C92 1.261 . S
C87 O96 1.247 1_554 S
C87 O97 1.272 1_554 S
O88 Co84 2.004 . S
O88 C93 1.259 . S
Co89 O90 2.061 . S
Co89 O95 2.052 . S
Co89 O97 2.135 . S
O90 Co89 2.061 . S
O90 C93 1.235 . S
C91 O94 1.238 . S
C91 O95 1.241 . S
C92 O85 1.247 . S
C92 O86 1.261 . S
C93 O88 1.259 . S
C93 O90 1.235 . S
O94 Co84 2.021 . S
O94 C91 1.238 . S
O95 Co89 2.052 . S
O95 C91 1.241 . S
O96 Co84 2.137 . S
O96 C87 1.247 1_556 S
O97 Co84 2.244 . S
O97 C87 1.272 1_556 S
O97 Co89 2.135 . S
Co98 O99 2.216 . S
Co98 O100 2.091 . S
Co98 O102 2.004 1_554 S
Co98 O108 2.021 . S
Co98 O110 2.137 . S
Co98 O111 2.244 . S
O99 Co98 2.216 . S
O99 C106 1.247 . S
O100 Co98 2.091 . S
O100 C106 1.261 . S
C101 O110 1.247 . S
C101 O111 1.272 . S
O102 Co98 2.004 1_556 S
O102 C107 1.259 . S
Co103 O104 2.061 1_554 S
Co103 O109 2.052 . S
Co103 O111 2.135 . S
O104 Co103 2.061 1_556 S
O104 C107 1.235 . S
C105 O108 1.238 . S
C105 O109 1.241 . S
C106 O99 1.247 . S
C106 O100 1.261 . S
C107 O102 1.259 . S
C107 O104 1.235 . S
O108 Co98 2.021 . S
O108 C105 1.238 . S
O109 Co103 2.052 . S
O109 C105 1.241 . S
O110 Co98 2.137 . S
O110 C101 1.247 . S
O111 Co98 2.244 . S
O111 C101 1.272 . S
O111 Co103 2.135 . S
Co112 O113 2.216 . S
Co112 O114 2.091 . S
Co112 O116 2.004 . S
Co112 O122 2.021 . S
Co112 O124 2.137 . S
Co112 O125 2.244 . S
O113 Co112 2.216 . S
O113 C120 1.247 . S
O114 Co112 2.091 . S
O114 C120 1.261 . S
C115 O124 1.247 . S
C115 O125 1.272 . S
O116 Co112 2.004 . S
O116 C121 1.259 . S
Co117 O118 2.061 . S
Co117 O123 2.052 . S
Co117 O125 2.135 . S
O118 Co117 2.061 . S
O118 C121 1.235 . S
C119 O122 1.238 . S
C119 O123 1.241 . S
C120 O113 1.247 . S
C120 O114 1.261 . S
C121 O116 1.259 . S
C121 O118 1.235 . S
O122 Co112 2.021 . S
O122 C119 1.238 . S
O123 Co117 2.052 . S
O123 C119 1.241 . S
O124 Co112 2.137 . S
O124 C115 1.247 . S
O125 Co112 2.244 . S
O125 C115 1.272 . S
O125 Co117 2.135 . S
Co126 O127 2.216 . S
Co126 O128 2.091 . S
Co126 O130 2.004 . S
Co126 O136 2.021 . S
Co126 O138 2.137 . S
Co126 O139 2.244 . S
O127 Co126 2.216 . S
O127 C134 1.247 . S
O128 Co126 2.091 . S
O128 C134 1.261 . S
C129 O138 1.247 . S
C129 O139 1.272 . S
O130 Co126 2.004 . S
O130 C135 1.259 . S
Co131 O132 2.061 . S
Co131 O137 2.052 . S
Co131 O139 2.135 . S
O132 Co131 2.061 . S
O132 C135 1.235 . S
C133 O136 1.238 . S
C133 O137 1.241 . S
C134 O127 1.247 . S
C134 O128 1.261 . S
C135 O130 1.259 . S
C135 O132 1.235 . S
O136 Co126 2.021 . S
O136 C133 1.238 . S
O137 Co131 2.052 . S
O137 C133 1.241 . S
O138 Co126 2.137 . S
O138 C129 1.247 . S
O139 Co126 2.244 . S
O139 C129 1.272 . S
O139 Co131 2.135 . S
Co140 O141 2.216 . S
Co140 O142 2.091 . S
Co140 O144 2.004 . S
Co140 O150 2.021 . S
Co140 O152 2.137 . S
Co140 O153 2.244 . S
O141 Co140 2.216 . S
O141 C148 1.247 . S
O142 Co140 2.091 . S
O142 C148 1.261 . S
C143 O152 1.247 . S
C143 O153 1.272 . S
O144 Co140 2.004 . S
O144 C149 1.259 . S
Co145 O146 2.061 . S
Co145 O151 2.052 . S
Co145 O153 2.135 . S
O146 Co145 2.061 . S
O146 C149 1.235 . S
C147 O150 1.238 . S
C147 O151 1.241 . S
C148 O141 1.247 . S
C148 O142 1.261 . S
C149 O144 1.259 . S
C149 O146 1.235 . S
O150 Co140 2.021 . S
O150 C147 1.238 . S
O151 Co145 2.052 . S
O151 C147 1.241 . S
O152 Co140 2.137 . S
O152 C143 1.247 . S
O153 Co140 2.244 . S
O153 C143 1.272 . S
O153 Co145 2.135 . S
Co154 O155 2.216 . S
Co154 O156 2.091 . S
Co154 O158 2.004 . S
Co154 O164 2.021 . S
Co154 O166 2.137 . S
Co154 O167 2.244 . S
O155 Co154 2.216 . S
O155 C162 1.247 . S
O156 Co154 2.091 . S
O156 C162 1.261 . S
C157 O166 1.247 . S
C157 O167 1.272 . S
O158 Co154 2.004 . S
O158 C163 1.259 . S
Co159 O160 2.061 . S
Co159 O165 2.052 . S
Co159 O167 2.135 . S
O160 Co159 2.061 . S
O160 C163 1.235 . S
C161 O164 1.238 . S
C161 O165 1.241 . S
C162 O155 1.247 . S
C162 O156 1.261 . S
C163 O158 1.259 . S
C163 O160 1.235 . S
O164 Co154 2.021 . S
O164 C161 1.238 . S
O165 Co159 2.052 . S
O165 C161 1.241 . S
O166 Co154 2.137 . S
O166 C157 1.247 . S
O167 Co154 2.244 . S
O167 C157 1.272 . S
O167 Co159 2.135 . S
C168 C169 1.363 . S
C168 C174 1.379 . S
C168 N176 1.356 . S
C169 C168 1.363 . S
C169 C175 1.363 . S
C170 C171 1.363 . S
C170 C175 1.379 . S
C170 N177 1.356 . S
C171 C170 1.363 . S
C171 C174 1.363 . S
N172 C174 1.356 . S
N172 H184 0.984 . S
N172 H185 0.985 . S
N173 C175 1.356 . S
N173 H178 0.984 . S
N173 H179 0.985 . S
C174 C168 1.379 . S
C174 C171 1.363 . S
C174 N172 1.356 . S
C175 C169 1.363 . S
C175 C170 1.379 . S
C175 N173 1.356 . S
N176 C168 1.356 . S
N176 H182 0.984 . S
N176 H183 0.984 . S
N177 C170 1.356 . S
N177 H180 0.984 . S
N177 H181 0.985 . S
H178 N173 0.984 . S
H179 N173 0.985 . S
H180 N177 0.984 . S
H181 N177 0.985 . S
H182 N176 0.984 . S
H183 N176 0.984 . S
H184 N172 0.984 . S
H185 N172 0.985 . S
C186 C187 1.363 . S
C186 C192 1.379 . S
C186 N194 1.356 . S
C187 C186 1.363 . S
C187 C193 1.363 . S
C188 C189 1.363 . S
C188 C193 1.379 . S
C188 N195 1.356 . S
C189 C188 1.363 . S
C189 C192 1.363 . S
N190 C192 1.356 . S
N190 H202 0.984 . S
N190 H203 0.985 . S
N191 C193 1.356 . S
N191 H196 0.984 . S
N191 H197 0.985 . S
C192 C186 1.379 . S
C192 C189 1.363 . S
C192 N190 1.356 . S
C193 C187 1.363 . S
C193 C188 1.379 . S
C193 N191 1.356 . S
N194 C186 1.356 . S
N194 H200 0.984 . S
N194 H201 0.984 . S
N195 C188 1.356 . S
N195 H198 0.984 . S
N195 H199 0.985 . S
H196 N191 0.984 . S
H197 N191 0.985 . S
H198 N195 0.984 . S
H199 N195 0.985 . S
H200 N194 0.984 . S
H201 N194 0.984 . S
H202 N190 0.984 . S
H203 N190 0.985 . S
C204 C205 1.363 . S
C204 C210 1.379 . S
C204 N212 1.356 . S
C205 C204 1.363 . S
C205 C211 1.363 . S
C206 C207 1.363 . S
C206 C211 1.379 . S
C206 N213 1.356 . S
C207 C206 1.363 . S
C207 C210 1.363 . S
N208 C210 1.356 . S
N208 H220 0.984 . S
N208 H221 0.985 . S
N209 C211 1.356 . S
N209 H214 0.984 . S
N209 H215 0.985 . S
C210 C204 1.379 . S
C210 C207 1.363 . S
C210 N208 1.356 . S
C211 C205 1.363 . S
C211 C206 1.379 . S
C211 N209 1.356 . S
N212 C204 1.356 . S
N212 H218 0.984 . S
N212 H219 0.984 . S
N213 C206 1.356 . S
N213 H216 0.984 . S
N213 H217 0.985 . S
H214 N209 0.984 . S
H215 N209 0.985 . S
H216 N213 0.984 . S
H217 N213 0.985 . S
H218 N212 0.984 . S
H219 N212 0.984 . S
H220 N208 0.984 . S
H221 N208 0.985 . S
C222 C223 1.363 . S
C222 C228 1.379 . S
C222 N230 1.356 . S
C223 C222 1.363 . S
C223 C229 1.363 . S
C224 C225 1.363 . S
C224 C229 1.379 . S
C224 N231 1.356 . S
C225 C224 1.363 . S
C225 C228 1.363 . S
N226 C228 1.356 . S
N226 H238 0.984 . S
N226 H239 0.985 . S
N227 C229 1.356 . S
N227 H232 0.984 . S
N227 H233 0.985 . S
C228 C222 1.379 . S
C228 C225 1.363 . S
C228 N226 1.356 . S
C229 C223 1.363 . S
C229 C224 1.379 . S
C229 N227 1.356 . S
N230 C222 1.356 . S
N230 H236 0.984 . S
N230 H237 0.984 . S
N231 C224 1.356 . S
N231 H234 0.984 . S
N231 H235 0.985 . S
H232 N227 0.984 . S
H233 N227 0.985 . S
H234 N231 0.984 . S
H235 N231 0.985 . S
H236 N230 0.984 . S
H237 N230 0.984 . S
H238 N226 0.984 . S
H239 N226 0.985 . S
C240 C241 1.363 . S
C240 C246 1.379 1_556 S
C240 N248 1.356 . S
C241 C240 1.363 . S
C241 C247 1.363 . S
C242 C243 1.363 1_556 S
C242 C247 1.379 . S
C242 N249 1.356 . S
C243 C242 1.363 1_554 S
C243 C246 1.363 . S
N244 C246 1.356 . S
N244 H256 0.984 . S
N244 H257 0.985 . S
N245 C247 1.356 . S
N245 H250 0.984 . S
N245 H251 0.985 . S
C246 C240 1.379 1_554 S
C246 C243 1.363 . S
C246 N244 1.356 . S
C247 C241 1.363 . S
C247 C242 1.379 . S
C247 N245 1.356 . S
N248 C240 1.356 . S
N248 H254 0.984 1_556 S
N248 H255 0.984 . S
N249 C242 1.356 . S
N249 H252 0.984 1_556 S
N249 H253 0.985 . S
H250 N245 0.984 . S
H251 N245 0.985 . S
H252 N249 0.984 1_554 S
H253 N249 0.985 . S
H254 N248 0.984 1_554 S
H255 N248 0.984 . S
H256 N244 0.984 . S
H257 N244 0.985 . S
C258 C259 1.363 . S
C258 C264 1.379 . S
C258 N266 1.356 . S
C259 C258 1.363 . S
C259 C265 1.363 . S
C260 C261 1.363 . S
C260 C265 1.379 . S
C260 N267 1.356 . S
C261 C260 1.363 . S
C261 C264 1.363 . S
N262 C264 1.356 . S
N262 H274 0.984 . S
N262 H275 0.985 . S
N263 C265 1.356 . S
N263 H268 0.984 . S
N263 H269 0.985 . S
C264 C258 1.379 . S
C264 C261 1.363 . S
C264 N262 1.356 . S
C265 C259 1.363 . S
C265 C260 1.379 . S
C265 N263 1.356 . S
N266 C258 1.356 . S
N266 H272 0.984 . S
N266 H273 0.984 . S
N267 C260 1.356 . S
N267 H270 0.984 1_554 S
N267 H271 0.985 . S
H268 N263 0.984 . S
H269 N263 0.985 . S
H270 N267 0.984 1_556 S
H271 N267 0.985 . S
H272 N266 0.984 . S
H273 N266 0.984 . S
H274 N262 0.984 . S
H275 N262 0.985 . S
C276 C277 1.363 . S
C276 C282 1.379 . S
C276 N284 1.356 . S
C277 C276 1.363 . S
C277 C283 1.363 . S
C278 C279 1.363 . S
C278 C283 1.379 . S
C278 N285 1.356 . S
C279 C278 1.363 . S
C279 C282 1.363 . S
N280 C282 1.356 . S
N280 H292 0.984 . S
N280 H293 0.985 . S
N281 C283 1.356 . S
N281 H286 0.984 . S
N281 H287 0.985 . S
C282 C276 1.379 . S
C282 C279 1.363 . S
C282 N280 1.356 . S
C283 C277 1.363 . S
C283 C278 1.379 . S
C283 N281 1.356 . S
N284 C276 1.356 . S
N284 H290 0.984 . S
N284 H291 0.984 . S
N285 C278 1.356 . S
N285 H288 0.984 . S
N285 H289 0.985 . S
H286 N281 0.984 . S
H287 N281 0.985 . S
H288 N285 0.984 . S
H289 N285 0.985 . S
H290 N284 0.984 . S
H291 N284 0.984 . S
H292 N280 0.984 . S
H293 N280 0.985 . S
C294 C295 1.363 . S
C294 C300 1.379 . S
C294 N302 1.356 . S
C295 C294 1.363 . S
C295 C301 1.363 . S
C296 C297 1.363 . S
C296 C301 1.379 . S
C296 N303 1.356 . S
C297 C296 1.363 . S
C297 C300 1.363 . S
N298 C300 1.356 . S
N298 H310 0.984 . S
N298 H311 0.985 . S
N299 C301 1.356 . S
N299 H304 0.984 . S
N299 H305 0.985 . S
C300 C294 1.379 . S
C300 C297 1.363 . S
C300 N298 1.356 . S
C301 C295 1.363 . S
C301 C296 1.379 . S
C301 N299 1.356 . S
N302 C294 1.356 . S
N302 H308 0.984 . S
N302 H309 0.984 . S
N303 C296 1.356 . S
N303 H306 0.984 . S
N303 H307 0.985 . S
H304 N299 0.984 . S
H305 N299 0.985 . S
H306 N303 0.984 . S
H307 N303 0.985 . S
H308 N302 0.984 . S
H309 N302 0.984 . S
H310 N298 0.984 . S
H311 N298 0.985 . S
C312 C313 1.363 . S
C312 C318 1.379 . S
C312 N320 1.356 . S
C313 C312 1.363 . S
C313 C319 1.363 . S
C314 C315 1.363 . S
C314 C319 1.379 . S
C314 N321 1.356 . S
C315 C314 1.363 . S
C315 C318 1.363 . S
N316 C318 1.356 . S
N316 H328 0.984 . S
N316 H329 0.985 . S
N317 C319 1.356 . S
N317 H322 0.984 . S
N317 H323 0.985 . S
C318 C312 1.379 . S
C318 C315 1.363 . S
C318 N316 1.356 . S
C319 C313 1.363 . S
C319 C314 1.379 . S
C319 N317 1.356 . S
N320 C312 1.356 . S
N320 H326 0.984 . S
N320 H327 0.984 . S
N321 C314 1.356 . S
N321 H324 0.984 . S
N321 H325 0.985 . S
H322 N317 0.984 . S
H323 N317 0.985 . S
H324 N321 0.984 . S
H325 N321 0.985 . S
H326 N320 0.984 . S
H327 N320 0.984 . S
H328 N316 0.984 . S
H329 N316 0.985 . S
C330 C331 1.363 . S
C330 C336 1.379 . S
C330 N338 1.356 . S
C331 C330 1.363 . S
C331 C337 1.363 . S
C332 C333 1.363 . S
C332 C337 1.379 . S
C332 N339 1.356 . S
C333 C332 1.363 . S
C333 C336 1.363 . S
N334 C336 1.356 . S
N334 H346 0.984 . S
N334 H347 0.985 . S
N335 C337 1.356 . S
N335 H340 0.984 . S
N335 H341 0.985 . S
C336 C330 1.379 . S
C336 C333 1.363 . S
C336 N334 1.356 . S
C337 C331 1.363 . S
C337 C332 1.379 . S
C337 N335 1.356 . S
N338 C330 1.356 . S
N338 H344 0.984 . S
N338 H345 0.984 . S
N339 C332 1.356 . S
N339 H342 0.984 . S
N339 H343 0.985 . S
H340 N335 0.984 . S
H341 N335 0.985 . S
H342 N339 0.984 . S
H343 N339 0.985 . S
H344 N338 0.984 . S
H345 N338 0.984 . S
H346 N334 0.984 . S
H347 N334 0.985 . S
C348 C349 1.363 . S
C348 C354 1.379 . S
C348 N356 1.356 . S
C349 C348 1.363 . S
C349 C355 1.363 . S
C350 C351 1.363 . S
C350 C355 1.379 . S
C350 N357 1.356 . S
C351 C350 1.363 . S
C351 C354 1.363 . S
N352 C354 1.356 . S
N352 H364 0.984 . S
N352 H365 0.985 . S
N353 C355 1.356 . S
N353 H358 0.984 . S
N353 H359 0.985 . S
C354 C348 1.379 . S
C354 C351 1.363 . S
C354 N352 1.356 . S
C355 C349 1.363 . S
C355 C350 1.379 . S
C355 N353 1.356 . S
N356 C348 1.356 . S
N356 H362 0.984 . S
N356 H363 0.984 . S
N357 C350 1.356 . S
N357 H360 0.984 . S
N357 H361 0.985 . S
H358 N353 0.984 . S
H359 N353 0.985 . S
H360 N357 0.984 . S
H361 N357 0.985 . S
H362 N356 0.984 . S
H363 N356 0.984 . S
H364 N352 0.984 . S
H365 N352 0.985 . S
C366 C367 1.363 1_554 S
C366 C372 1.379 . S
C366 N374 1.356 . S
C367 C366 1.363 1_556 S
C367 C373 1.363 . S
C368 C369 1.363 . S
C368 C373 1.379 . S
C368 N375 1.356 . S
C369 C368 1.363 . S
C369 C372 1.363 1_556 S
N370 C372 1.356 . S
N370 H382 0.984 . S
N370 H383 0.985 . S
N371 C373 1.356 . S
N371 H376 0.984 . S
N371 H377 0.985 . S
C372 C366 1.379 . S
C372 C369 1.363 1_554 S
C372 N370 1.356 . S
C373 C367 1.363 . S
C373 C368 1.379 . S
C373 N371 1.356 . S
N374 C366 1.356 . S
N374 H380 0.984 . S
N374 H381 0.984 . S
N375 C368 1.356 . S
N375 H378 0.984 . S
N375 H379 0.985 . S
H376 N371 0.984 . S
H377 N371 0.985 . S
H378 N375 0.984 . S
H379 N375 0.985 . S
H380 N374 0.984 . S
H381 N374 0.984 . S
H382 N370 0.984 . S
H383 N370 0.985 . S
C384 C385 1.363 . S
C384 C390 1.379 . S
C384 N392 1.356 . S
C385 C384 1.363 . S
C385 C391 1.363 . S
C386 C387 1.363 . S
C386 C391 1.379 . S
C386 N393 1.356 . S
C387 C386 1.363 . S
C387 C390 1.363 . S
N388 C390 1.356 . S
N388 H400 0.984 . S
N388 H401 0.985 . S
N389 C391 1.356 . S
N389 H394 0.984 . S
N389 H395 0.985 . S
C390 C384 1.379 . S
C390 C387 1.363 . S
C390 N388 1.356 . S
C391 C385 1.363 . S
C391 C386 1.379 . S
C391 N389 1.356 . S
N392 C384 1.356 . S
N392 H398 0.984 . S
N392 H399 0.984 . S
N393 C386 1.356 . S
N393 H396 0.984 . S
N393 H397 0.985 . S
H394 N389 0.984 . S
H395 N389 0.985 . S
H396 N393 0.984 . S
H397 N393 0.985 . S
H398 N392 0.984 . S
H399 N392 0.984 . S
H400 N388 0.984 . S
H401 N388 0.985 . S
C402 C403 1.363 1_556 S
C402 C408 1.379 . S
C402 N410 1.356 . S
C403 C402 1.363 1_554 S
C403 C409 1.363 . S
C404 C405 1.363 . S
C404 C409 1.379 1_556 S
C404 N411 1.356 . S
C405 C404 1.363 . S
C405 C408 1.363 . S
N406 C408 1.356 . S
N406 H418 0.984 . S
N406 H419 0.985 . S
N407 C409 1.356 . S
N407 H412 0.984 . S
N407 H413 0.985 . S
C408 C402 1.379 . S
C408 C405 1.363 . S
C408 N406 1.356 . S
C409 C403 1.363 . S
C409 C404 1.379 1_554 S
C409 N407 1.356 . S
N410 C402 1.356 . S
N410 H416 0.984 . S
N410 H417 0.984 1_556 S
N411 C404 1.356 . S
N411 H414 0.984 . S
N411 H415 0.985 1_556 S
H412 N407 0.984 . S
H413 N407 0.985 . S
H414 N411 0.984 . S
H415 N411 0.985 1_554 S
H416 N410 0.984 . S
H417 N410 0.984 1_554 S
H418 N406 0.984 . S
H419 N406 0.985 . S
C420 C421 1.363 . S
C420 C426 1.379 . S
C420 N428 1.356 . S
C421 C420 1.363 . S
C421 C427 1.363 . S
C422 C423 1.363 . S
C422 C427 1.379 . S
C422 N429 1.356 1_554 S
C423 C422 1.363 . S
C423 C426 1.363 . S
N424 C426 1.356 . S
N424 H436 0.984 . S
N424 H437 0.985 . S
N425 C427 1.356 . S
N425 H430 0.984 . S
N425 H431 0.985 . S
C426 C420 1.379 . S
C426 C423 1.363 . S
C426 N424 1.356 . S
C427 C421 1.363 . S
C427 C422 1.379 . S
C427 N425 1.356 . S
N428 C420 1.356 . S
N428 H434 0.984 . S
N428 H435 0.984 . S
N429 C422 1.356 1_556 S
N429 H432 0.984 . S
N429 H433 0.985 . S
H430 N425 0.984 . S
H431 N425 0.985 . S
H432 N429 0.984 . S
H433 N429 0.985 . S
H434 N428 0.984 . S
H435 N428 0.984 . S
H436 N424 0.984 . S
H437 N424 0.985 . S
C438 C439 1.363 . S
C438 C444 1.379 . S
C438 N446 1.356 . S
C439 C438 1.363 . S
C439 C445 1.363 . S
C440 C441 1.363 . S
C440 C445 1.379 . S
C440 N447 1.356 . S
C441 C440 1.363 . S
C441 C444 1.363 . S
N442 C444 1.356 . S
N442 H454 0.984 . S
N442 H455 0.985 . S
N443 C445 1.356 . S
N443 H448 0.984 . S
N443 H449 0.985 . S
C444 C438 1.379 . S
C444 C441 1.363 . S
C444 N442 1.356 . S
C445 C439 1.363 . S
C445 C440 1.379 . S
C445 N443 1.356 . S
N446 C438 1.356 . S
N446 H452 0.984 . S
N446 H453 0.984 . S
N447 C440 1.356 . S
N447 H450 0.984 . S
N447 H451 0.985 . S
H448 N443 0.984 . S
H449 N443 0.985 . S
H450 N447 0.984 . S
H451 N447 0.985 . S
H452 N446 0.984 . S
H453 N446 0.984 . S
H454 N442 0.984 . S
H455 N442 0.985 . S
C456 C457 1.363 . S
C456 C462 1.379 . S
C456 N464 1.356 . S
C457 C456 1.363 . S
C457 C463 1.363 . S
C458 C459 1.363 . S
C458 C463 1.379 . S
C458 N465 1.356 . S
C459 C458 1.363 . S
C459 C462 1.363 . S
N460 C462 1.356 . S
N460 H472 0.984 . S
N460 H473 0.985 . S
N461 C463 1.356 . S
N461 H466 0.984 . S
N461 H467 0.985 . S
C462 C456 1.379 . S
C462 C459 1.363 . S
C462 N460 1.356 . S
C463 C457 1.363 . S
C463 C458 1.379 . S
C463 N461 1.356 . S
N464 C456 1.356 . S
N464 H470 0.984 . S
N464 H471 0.984 . S
N465 C458 1.356 . S
N465 H468 0.984 . S
N465 H469 0.985 . S
H466 N461 0.984 . S
H467 N461 0.985 . S
H468 N465 0.984 . S
H469 N465 0.985 . S
H470 N464 0.984 . S
H471 N464 0.984 . S
H472 N460 0.984 . S
H473 N460 0.985 . S
C474 C475 1.363 . S
C474 C480 1.379 . S
C474 N482 1.356 . S
C475 C474 1.363 . S
C475 C481 1.363 . S
C476 C477 1.363 . S
C476 C481 1.379 . S
C476 N483 1.356 . S
C477 C476 1.363 . S
C477 C480 1.363 . S
N478 C480 1.356 . S
N478 H490 0.984 . S
N478 H491 0.985 . S
N479 C481 1.356 . S
N479 H484 0.984 . S
N479 H485 0.985 . S
C480 C474 1.379 . S
C480 C477 1.363 . S
C480 N478 1.356 . S
C481 C475 1.363 . S
C481 C476 1.379 . S
C481 N479 1.356 . S
N482 C474 1.356 . S
N482 H488 0.984 . S
N482 H489 0.984 . S
N483 C476 1.356 . S
N483 H486 0.984 . S
N483 H487 0.985 . S
H484 N479 0.984 . S
H485 N479 0.985 . S
H486 N483 0.984 . S
H487 N483 0.985 . S
H488 N482 0.984 . S
H489 N482 0.984 . S
H490 N478 0.984 . S
H491 N478 0.985 . S
C492 C493 1.363 . S
C492 C498 1.379 1_455 S
C492 N500 1.356 . S
C493 C492 1.363 . S
C493 C499 1.363 . S
C494 C495 1.363 . S
C494 C499 1.379 1_655 S
C494 N501 1.356 . S
C495 C494 1.363 . S
C495 C498 1.363 . S
N496 C498 1.356 . S
N496 H508 0.984 . S
N496 H509 0.985 . S
N497 C499 1.356 1_554 S
N497 H502 0.984 . S
N497 H503 0.985 . S
C498 C492 1.379 1_655 S
C498 C495 1.363 . S
C498 N496 1.356 . S
C499 C493 1.363 . S
C499 C494 1.379 1_455 S
C499 N497 1.356 1_556 S
N500 C492 1.356 . S
N500 H506 0.984 . S
N500 H507 0.984 . S
N501 C494 1.356 . S
N501 H504 0.984 . S
N501 H505 0.985 . S
H502 N497 0.984 . S
H503 N497 0.985 . S
H504 N501 0.984 . S
H505 N501 0.985 . S
H506 N500 0.984 . S
H507 N500 0.984 . S
H508 N496 0.984 . S
H509 N496 0.985 . S
C510 C511 1.365 1_545 S
C510 C516 1.379 1_556 S
C510 N518 1.356 1_545 S
C511 C510 1.365 1_565 S
C511 C517 1.357 1_556 S
C512 C513 1.363 1_565 S
C512 C517 1.379 . S
C512 N519 1.356 1_565 S
C513 C512 1.363 1_545 S
C513 C516 1.363 . S
N514 C516 1.356 . S
N514 H526 0.984 1_554 S
N514 H527 0.985 . S
N515 C517 1.356 . S
N515 H520 0.984 . S
N515 H521 0.985 . S
C516 C510 1.379 1_554 S
C516 C513 1.363 . S
C516 N514 1.356 . S
C517 C511 1.357 1_554 S
C517 C512 1.379 . S
C517 N515 1.356 . S
N518 C510 1.356 1_565 S
N518 H524 0.984 1_565 S
N518 H525 0.984 . S
N519 C512 1.356 1_545 S
N519 H522 0.984 . S
N519 H523 0.985 1_545 S
H520 N515 0.984 . S
H521 N515 0.985 . S
H522 N519 0.984 . S
H523 N519 0.985 1_565 S
H524 N518 0.984 1_545 S
H525 N518 0.984 . S
H526 N514 0.984 1_556 S
H527 N514 0.985 . S
C528 C529 1.363 . S
C528 C534 1.379 . S
C528 N536 1.356 . S
C529 C528 1.363 . S
C529 C535 1.363 . S
C530 C531 1.363 . S
C530 C535 1.379 . S
C530 N537 1.356 . S
C531 C530 1.363 . S
C531 C534 1.363 . S
N532 C534 1.356 . S
N532 H544 0.984 . S
N532 H545 0.985 . S
N533 C535 1.356 . S
N533 H538 0.984 . S
N533 H539 0.985 . S
C534 C528 1.379 . S
C534 C531 1.363 . S
C534 N532 1.356 . S
C535 C529 1.363 . S
C535 C530 1.379 . S
C535 N533 1.356 . S
N536 C528 1.356 . S
N536 H542 0.984 . S
N536 H543 0.984 . S
N537 C530 1.356 . S
N537 H540 0.984 . S
N537 H541 0.985 . S
H538 N533 0.984 . S
H539 N533 0.985 . S
H540 N537 0.984 . S
H541 N537 0.985 . S
H542 N536 0.984 . S
H543 N536 0.984 . S
H544 N532 0.984 . S
H545 N532 0.985 . S
C546 C547 1.376 . S
C546 C552 1.358 1_455 S
C546 N554 1.370 . S
C547 C546 1.376 . S
C547 C553 1.363 . S
C548 C549 1.376 . S
C548 C553 1.358 1_655 S
C548 N555 1.370 . S
C549 C548 1.376 . S
C549 C552 1.363 . S
N550 C552 1.356 . S
N550 H562 0.984 . S
N550 H563 0.985 . S
N551 C553 1.356 . S
N551 H556 0.984 . S
N551 H557 0.985 . S
C552 C546 1.358 1_655 S
C552 C549 1.363 . S
C552 N550 1.356 . S
C553 C547 1.363 . S
C553 C548 1.358 1_455 S
C553 N551 1.356 . S
N554 C546 1.370 . S
N554 H560 0.984 1_455 S
N554 H561 0.984 . S
N555 C548 1.370 . S
N555 H558 0.984 . S
N555 H559 0.985 1_655 S
H556 N551 0.984 . S
H557 N551 0.985 . S
H558 N555 0.984 . S
H559 N555 0.985 1_455 S
H560 N554 0.984 1_655 S
H561 N554 0.984 . S
H562 N550 0.984 . S
H563 N550 0.985 . S
C564 C565 1.365 1_565 S
C564 C570 1.376 . S
C564 N572 1.358 1_565 S
C565 C564 1.365 1_545 S
C565 C571 1.363 . S
C566 C567 1.365 1_545 S
C566 C571 1.376 . S
C566 N573 1.358 1_545 S
C567 C566 1.365 1_565 S
C567 C570 1.363 . S
N568 C570 1.356 . S
N568 H580 0.984 . S
N568 H581 0.985 . S
N569 C571 1.356 . S
N569 H574 0.984 . S
N569 H575 0.985 . S
C570 C564 1.376 . S
C570 C567 1.363 . S
C570 N568 1.356 . S
C571 C565 1.363 . S
C571 C566 1.376 . S
C571 N569 1.356 . S
N572 C564 1.358 1_545 S
N572 H578 0.984 1_545 S
N572 H579 0.984 . S
N573 C566 1.358 1_565 S
N573 H576 0.984 . S
N573 H577 0.985 1_565 S
H574 N569 0.984 . S
H575 N569 0.985 . S
H576 N573 0.984 . S
H577 N573 0.985 1_545 S
H578 N572 0.984 1_565 S
H579 N572 0.984 . S
H580 N568 0.984 . S
H581 N568 0.985 . S
C582 C583 1.363 . S
C582 C588 1.379 . S
C582 N590 1.356 . S
C583 C582 1.363 . S
C583 C589 1.363 . S
C584 C585 1.363 . S
C584 C589 1.379 . S
C584 N591 1.356 . S
C585 C584 1.363 . S
C585 C588 1.363 . S
N586 C588 1.356 . S
N586 H598 0.984 . S
N586 H599 0.985 . S
N587 C589 1.356 . S
N587 H592 0.984 . S
N587 H593 0.985 . S
C588 C582 1.379 . S
C588 C585 1.363 . S
C588 N586 1.356 . S
C589 C583 1.363 . S
C589 C584 1.379 . S
C589 N587 1.356 . S
N590 C582 1.356 . S
N590 H596 0.984 . S
N590 H597 0.984 . S
N591 C584 1.356 . S
N591 H594 0.984 . S
N591 H595 0.985 . S
H592 N587 0.984 . S
H593 N587 0.985 . S
H594 N591 0.984 . S
H595 N591 0.985 . S
H596 N590 0.984 . S
H597 N590 0.984 . S
H598 N586 0.984 . S
H599 N586 0.985 . S
C169 C9 1.430 . S
C171 C149 1.430 . S
C187 C163 1.430 . S
C189 C23 1.430 . S
C205 C37 1.430 . S
C207 C93 1.430 . S
C223 C51 1.430 . S
C225 C107 1.430 . S
C241 C65 1.430 . S
C243 C121 1.430 . S
C259 C135 1.430 . S
C261 C79 1.430 . S
C277 C7 1.550 . S
C279 C119 1.550 . S
C295 C21 1.550 . S
C297 C133 1.550 . S
C313 C147 1.550 . S
C315 C35 1.550 . S
C331 C49 1.550 . S
C333 C161 1.550 . S
C349 C63 1.550 . S
C351 C91 1.550 . S
C367 C77 1.550 . S
C369 C105 1.550 1_556 S
C385 C143 1.442 . S
C387 C3 1.442 . S
C403 C17 1.442 . S
C405 C157 1.442 . S
C421 C31 1.442 . S
C423 C87 1.442 . S
C439 C45 1.442 . S
C441 C101 1.442 . S
C457 C115 1.442 . S
C459 C59 1.442 . S
C475 C73 1.442 . S
C477 C129 1.442 . S
C493 C8 1.437 . S
C495 C162 1.437 . S
C511 C92 1.440 . S
C513 C22 1.437 . S
C529 C106 1.437 . S
C531 C36 1.437 . S
C547 C120 1.437 . S
C549 C50 1.437 . S
C565 C134 1.437 . S
C567 C64 1.437 . S
C583 C148 1.437 . S
C585 C78 1.437 . S
