# Generated by pormake.
# Topology rob, (6)-cn, num edge types: 1
# Building blocks:
#     Node 0, Type 0, BuildingBlock: KUMBOL_clean_sbu_1, # of connection points: 6
#     Node 1, Type 0, BuildingBlock: KUMBOL_clean_sbu_1, # of connection points: 6
#     Node 2, Type 0, BuildingBlock: KUMBOL_clean_sbu_1, # of connection points: 6
#     Node 3, Type 0, BuildingBlock: KUMBOL_clean_sbu_1, # of connection points: 6
#     Edge 4, Type (0, 0), BuildingBlock: XUDNAN_clean_linker_2, # of connection points: 2
#     Edge 5, Type (0, 0), BuildingBlock: XUDNAN_clean_linker_2, # of connection points: 2
#     Edge 6, Type (0, 0), BuildingBlock: XUDNAN_clean_linker_2, # of connection points: 2
#     Edge 7, Type (0, 0), BuildingBlock: XUDNAN_clean_linker_2, # of connection points: 2
#     Edge 8, Type (0, 0), BuildingBlock: XUDNAN_clean_linker_2, # of connection points: 2
#     Edge 9, Type (0, 0), BuildingBlock: XUDNAN_clean_linker_2, # of connection points: 2
#     Edge 10, Type (0, 0), BuildingBlock: XUDNAN_clean_linker_2, # of connection points: 2
#     Edge 11, Type (0, 0), BuildingBlock: XUDNAN_clean_linker_2, # of connection points: 2
#     Edge 12, Type (0, 0), BuildingBlock: XUDNAN_clean_linker_2, # of connection points: 2
#     Edge 13, Type (0, 0), BuildingBlock: XUDNAN_clean_linker_2, # of connection points: 2
#     Edge 14, Type (0, 0), BuildingBlock: XUDNAN_clean_linker_2, # of connection points: 2
#     Edge 15, Type (0, 0), BuildingBlock: XUDNAN_clean_linker_2, # of connection points: 2
# Relax obj value: 0.020
# Max RMSD: 0.113
# Mean RMSD: 0.113
data_MOF--net-rob--node1-KUMBOL_clean_sbu_1--edge1-XUDNAN_clean_linker_2
_symmetry_space_group_name_H-M    P1
_symmetry_Int_Tables_number       1
_symmetry_cell_setting            triclinic
loop_
_symmetry_equiv_pos_as_xyz
'x, y, z'
_cell_length_a     18.652025
_cell_length_b     23.195962
_cell_length_c     34.225858
_cell_angle_alpha  109.20212
_cell_angle_beta   90.482576
_cell_angle_gamma 90.055847
loop_
_atom_site_label
_atom_site_type_symbol
_atom_site_fract_x
_atom_site_fract_y
_atom_site_fract_z
_atom_type_partial_charge
C0 C 0.12309 0.41716 0.04797 0.0
C1 C 1.00041 0.38024 0.03543 0.0
C2 C 0.07357 0.37002 0.04141 0.0
C3 C 0.97779 0.43857 0.03691 0.0
C4 C 0.10084 0.47537 0.04857 0.0
C5 C 0.02787 0.48596 0.04371 0.0
N6 N 0.19311 0.40604 0.05374 0.0
C7 C 0.24332 0.45123 0.06127 0.0
C8 C 0.15268 0.52124 0.05436 0.0
C9 C 0.22414 0.50923 0.061 0.0
Gd10 Gd 0.33518 0.17759 0.95388 0.0
Gd11 Gd 0.21952 0.30866 0.05536 0.0
N12 N 0.09702 0.31429 0.04091 0.0
C13 C 0.95203 0.33176 0.02884 0.0
C14 C 0.04966 0.26763 0.03619 0.0
C15 C 0.97679 0.27526 0.02938 0.0
H16 H 0.06703 0.22499 0.03874 0.0
H17 H 0.93958 0.23786 0.02533 0.0
H18 H 0.48805 0.25849 0.97904 0.0
H19 H 0.29791 0.44321 0.06841 0.0
H20 H 0.61714 0.23813 0.98396 0.0
H21 H 0.89541 0.33775 0.02401 0.0
H22 H 0.92167 0.44761 0.03296 0.0
H23 H 0.25008 0.04312 0.93531 0.0
H24 H 0.13835 0.56621 0.05408 0.0
H25 H 0.26428 0.54482 0.06647 0.0
H26 H 0.62986 0.02055 0.95121 0.0
H27 H 0.00947 0.53079 0.04535 0.0
H28 H 0.40983 0.90685 0.92508 0.0
H29 H 0.28259 0.93554 0.92317 0.0
N30 N 0.3575 0.07549 0.94708 0.0
C31 C 0.42781 0.06081 0.94886 0.0
C32 C 0.30552 0.03153 0.93801 0.0
C33 C 0.39585 0.9543 0.93141 0.0
C34 C 0.32387 0.97039 0.93047 0.0
C35 C 0.44895 0.99959 0.94035 0.0
H36 H 0.53941 0.93888 0.93467 0.0
N37 N 0.45723 0.16571 0.96557 0.0
C38 C 0.47923 0.10705 0.95785 0.0
C39 C 0.60244 0.14108 0.96914 0.0
C40 C 0.55254 0.09319 0.95926 0.0
C41 C 0.50561 0.21244 0.97432 0.0
C42 C 0.57884 0.20094 0.97676 0.0
O43 O 0.19166 0.3128 0.99147 0.0
O44 O 0.22242 0.21489 0.95847 0.0
O45 O 0.37085 0.20487 0.90206 0.0
O46 O 0.32074 0.11674 0.89077 0.0
O47 O 0.19538 0.20721 0.04339 0.0
O48 O 0.22637 0.15112 0.97426 0.0
O49 O 0.38266 0.174 0.01423 0.0
O50 O 0.30366 0.24325 0.03057 0.0
O51 O 0.17719 0.29723 0.11199 0.0
O52 O 0.25214 0.37143 0.11534 0.0
O53 O 0.35766 0.28005 0.97161 0.0
O54 O 0.33204 0.33588 0.04121 0.0
C55 C 0.20208 0.26802 0.9565 0.0
C56 C 0.19125 0.15825 1.00947 0.0
C57 C 0.41202 0.12354 0.84472 0.0
C58 C 0.47977 0.11826 0.7831 0.0
C59 C 0.5064 0.04817 0.82036 0.0
C60 C 0.45183 0.07398 0.8482 0.0
C61 C 0.52061 0.07041 0.78803 0.0
C62 C 0.42604 0.14539 0.81177 0.0
C63 C 0.35537 0.15213 0.8747 0.0
C64 C 0.57372 0.03217 0.95047 0.0
C65 C 0.52214 0.98554 0.94092 0.0
H66 H 0.65927 0.13231 0.97067 0.0
C67 C 0.35076 0.21356 0.04436 0.0
C68 C 0.36141 0.33012 1.00477 0.0
C69 C 0.20788 0.36754 0.18132 0.0
C70 C 0.15449 0.3652 0.2461 0.0
C71 C 0.2362 0.44704 0.24642 0.0
C72 C 0.24457 0.4214 0.20373 0.0
C73 C 0.19107 0.41956 0.26744 0.0
C74 C 0.1636 0.33888 0.2029 0.0
C75 C 0.21143 0.34534 0.13544 0.0
H76 H 0.53695 0.01022 0.82349 0.0
H77 H 0.44037 0.05453 0.87196 0.0
H78 H 0.5624 0.04948 0.76622 0.0
H79 H 0.3943 0.18232 0.8079 0.0
H80 H 0.26434 0.48879 0.26325 0.0
H81 H 0.27874 0.4446 0.18816 0.0
H82 H 0.18543 0.44041 0.3006 0.0
H83 H 0.1347 0.29745 0.18615 0.0
C84 C 0.58388 0.9137 0.04574 0.0
C85 C 0.46673 0.86495 0.03248 0.0
C86 C 0.54014 0.864 0.04241 0.0
C87 C 0.4382 0.91629 0.02497 0.0
C88 C 0.55475 0.96625 0.03971 0.0
C89 C 0.48209 0.96679 0.02865 0.0
N90 N 0.65356 0.91209 0.05746 0.0
C91 C 0.69485 0.9637 0.06714 0.0
C92 C 0.59867 0.01761 0.04664 0.0
C93 C 0.66873 0.01655 0.06094 0.0
Gd94 Gd 0.8219 0.71855 0.97262 0.0
Gd95 Gd 0.69177 0.82002 0.06648 0.0
N96 N 0.56938 0.81487 0.04963 0.0
C97 C 0.42405 0.81458 0.03103 0.0
C98 C 0.52756 0.76682 0.05008 0.0
C99 C 0.45452 0.76553 0.04027 0.0
H100 H 0.55054 0.72957 0.05816 0.0
H101 H 0.42171 0.72694 0.0401 0.0
H102 H 0.95079 0.83057 0.99558 0.0
H103 H 0.7474 0.96536 0.08081 0.0
H104 H 0.07848 0.84031 0.01269 0.0
H105 H 0.3674 0.81359 0.02355 0.0
H106 H 0.382 0.91791 0.01713 0.0
H107 H 0.77774 0.57569 0.96181 0.0
H108 H 0.57815 0.05903 0.04266 0.0
H109 H 0.7022 0.0569 0.06806 0.0
H110 H 0.15093 0.63721 1.00006 0.0
H111 H 0.45873 1.00693 0.02421 0.0
H112 H 0.97209 0.48018 0.96528 0.0
H113 H 0.84062 0.47949 0.95593 0.0
N114 N 0.87219 0.62995 0.97766 0.0
C115 C 0.94434 0.63157 0.98348 0.0
C116 C 0.83465 0.57658 0.96797 0.0
C117 C 0.94449 0.52252 0.96914 0.0
C118 C 0.8702 0.52202 0.96396 0.0
C119 C 0.9825 0.57762 0.97934 0.0
H120 H 0.0876 0.5388 0.98078 0.0
N121 N 0.94289 0.73777 0.99292 0.0
C122 C 0.98038 0.68712 0.99243 0.0
C123 C 0.09029 0.746 1.00787 0.0
C124 C 0.05528 0.68981 0.99921 0.0
C125 C 0.97782 0.79184 0.999 0.0
C126 C 0.05138 0.79716 1.00763 0.0
O127 O 0.64574 0.78596 1.00125 0.0
O128 O 0.74507 0.78733 0.9626 0.0
O129 O 0.8874 0.7099 0.91806 0.0
O130 O 0.79118 0.6533 0.91317 0.0
O131 O 0.68725 0.71614 0.05007 0.0
O132 O 0.71485 0.6786 0.98006 0.0
O133 O 0.83505 0.70504 0.03524 0.0
O134 O 0.80872 0.80234 0.07198 0.0
O135 O 0.65648 0.79564 0.11986 0.0
O136 O 0.68609 0.88845 0.12705 0.0
O137 O 0.82277 0.82079 0.98647 0.0
O138 O 0.79559 0.86522 0.05604 0.0
C139 C 0.67535 0.7889 0.9673 0.0
C140 C 0.68146 0.6744 0.01289 0.0
C141 C 0.85926 0.63542 0.85011 0.0
C142 C 0.91142 0.63297 0.78419 0.0
C143 C 0.85752 0.54155 0.7914 0.0
C144 C 0.84054 0.57356 0.83244 0.0
C145 C 0.89304 0.57084 0.76746 0.0
C146 C 0.89427 0.66524 0.82571 0.0
C147 C 0.84626 0.6668 0.89456 0.0
C148 C 0.09331 0.63611 0.99555 0.0
C149 C 0.05722 0.58006 0.98476 0.0
H150 H 0.14765 0.74997 0.01346 0.0
C151 C 0.83246 0.74909 0.07094 0.0
C152 C 0.82126 0.86809 0.02088 0.0
C153 C 0.59308 0.87537 0.16918 0.0
C154 C 0.52192 0.88784 0.23115 0.0
C155 C 0.48602 0.938 0.18186 0.0
C156 C 0.54474 0.91306 0.15727 0.0
C157 C 0.47492 0.92611 0.21868 0.0
C158 C 0.58126 0.86259 0.20601 0.0
C159 C 0.65767 0.85204 0.14447 0.0
H160 H 0.84345 0.49375 0.77815 0.0
H161 H 0.81419 0.54955 0.85068 0.0
H162 H 0.90522 0.54514 0.73557 0.0
H163 H 0.90892 0.71301 0.83904 0.0
H164 H 0.44921 0.96708 0.17251 0.0
H165 H 0.55293 0.92416 0.12934 0.0
H166 H 0.42969 0.94739 0.23754 0.0
H167 H 0.61808 0.83281 0.21482 0.0
C168 C 0.06898 0.6076 0.48401 0.0
C169 C 0.95611 0.66221 0.49901 0.0
C170 C 0.03011 0.66118 0.49042 0.0
C171 C 0.92174 0.60877 0.49989 0.0
C172 C 0.03435 0.55378 0.48418 0.0
C173 C 0.96043 0.55448 0.49162 0.0
N174 N 0.14038 0.60768 0.47654 0.0
C175 C 0.18047 0.55616 0.46898 0.0
C176 C 0.07488 0.5004 0.47588 0.0
C177 C 0.14836 0.50169 0.46881 0.0
Gd178 Gd 0.30396 0.80781 0.56098 0.0
Gd179 Gd 0.18457 0.69488 0.46626 0.0
N180 N 0.06386 0.71131 0.48675 0.0
C181 C 0.91814 0.71631 0.50493 0.0
C182 C 0.02558 0.76276 0.48976 0.0
C183 C 0.95299 0.76667 0.50007 0.0
H184 H 0.04899 0.80026 0.48267 0.0
H185 H 0.92337 0.80796 0.50293 0.0
H186 H 0.45401 0.72979 0.55743 0.0
H187 H 0.23664 0.55663 0.46167 0.0
H188 H 0.58262 0.7375 0.54292 0.0
H189 H 0.8614 0.71902 0.51185 0.0
H190 H 0.8648 0.60857 0.5059 0.0
H191 H 0.23497 0.94881 0.57569 0.0
H192 H 0.04957 0.45753 0.47394 0.0
H193 H 0.17976 0.46042 0.46213 0.0
H194 H 0.60272 0.93065 0.52035 0.0
H195 H 0.93258 0.51316 0.49094 0.0
H196 H 0.3929 0.05568 0.5409 0.0
H197 H 0.2702 0.04388 0.56405 0.0
N198 N 0.33322 0.90319 0.55392 0.0
C199 C 0.40229 0.91039 0.54388 0.0
C200 C 0.28714 0.95149 0.56308 0.0
C201 C 0.37696 0.01287 0.54461 0.0
C202 C 0.30759 1.00631 0.55754 0.0
C203 C 0.42595 0.96522 0.53872 0.0
H204 H 0.51737 0.01307 0.52516 0.0
N205 N 0.42653 0.81291 0.54785 0.0
C206 C 0.45074 0.86427 0.54151 0.0
C207 C 0.57141 0.82449 0.5335 0.0
C208 C 0.52379 0.87121 0.53368 0.0
C209 C 0.4731 0.76858 0.54974 0.0
C210 C 0.54602 0.77323 0.54202 0.0
O211 O 0.17764 0.6854 0.53032 0.0
O212 O 0.18775 0.7861 0.56629 0.0
O213 O 0.33881 0.78472 0.61514 0.0
O214 O 0.30624 0.87659 0.62153 0.0
O215 O 0.17705 0.79562 0.47603 0.0
O216 O 0.19798 0.84484 0.54584 0.0
O217 O 0.35346 0.77601 0.49708 0.0
O218 O 0.2566 0.76422 0.4529 0.0
O219 O 0.11548 0.6762 0.41191 0.0
O220 O 0.21518 0.6274 0.40806 0.0
O221 O 0.31841 0.70475 0.54566 0.0
O222 O 0.29533 0.66247 0.47514 0.0
C223 C 0.16669 0.73151 0.56417 0.0
C224 C 0.17536 0.84468 0.50922 0.0
C225 C 0.39939 0.86629 0.66534 0.0
C226 C 0.47223 0.87662 0.72706 0.0
C227 C 0.503 0.93369 0.68112 0.0
C228 C 0.44463 0.90808 0.65569 0.0
C229 C 0.51673 0.91829 0.71654 0.0
C230 C 0.41359 0.85048 0.70089 0.0
C231 C 0.33569 0.84115 0.63955 0.0
C232 C 0.54697 0.92464 0.52684 0.0
C233 C 0.49817 0.97153 0.52939 0.0
H234 H 0.62794 0.82808 0.52761 0.0
C235 C 0.32469 0.77668 0.46208 0.0
C236 C 0.33078 0.66378 0.50897 0.0
C237 C 0.17384 0.6452 0.34668 0.0
C238 C 0.12906 0.66439 0.28436 0.0
C239 C 0.25284 0.63371 0.28846 0.0
C240 C 0.24142 0.6312 0.32809 0.0
C241 C 0.19727 0.65001 0.26669 0.0
C242 C 0.1178 0.66204 0.32457 0.0
C243 C 0.16036 0.63835 0.38768 0.0
H244 H 0.53729 0.96618 0.67362 0.0
H245 H 0.43438 0.9217 0.62885 0.0
H246 H 0.56178 0.93985 0.73596 0.0
H247 H 0.37898 0.81771 0.7079 0.0
H248 H 0.30511 0.62284 0.27448 0.0
H249 H 0.28549 0.61766 0.34392 0.0
H250 H 0.20799 0.65214 0.23614 0.0
H251 H 0.06509 0.67193 0.3382 0.0
C252 C 0.59252 0.09655 0.45178 0.0
C253 C 0.47548 0.14265 0.47054 0.0
C254 C 0.54951 0.14836 0.46436 0.0
C255 C 0.44512 0.08447 0.46288 0.0
C256 C 0.56228 0.03816 0.44477 0.0
C257 C 0.48828 0.03239 0.44976 0.0
N258 N 0.6638 0.10324 0.44635 0.0
C259 C 0.70788 0.0537 0.43411 0.0
C260 C 0.60729 0.98721 0.43269 0.0
C261 C 0.68041 0.99506 0.42745 0.0
Gd262 Gd 0.81522 0.30653 0.55231 0.0
Gd263 Gd 0.70112 0.20232 0.45283 0.0
N264 N 0.5804 0.20426 0.47183 0.0
C265 C 0.43407 0.19565 0.48428 0.0
C266 C 0.5397 0.25577 0.4838 0.0
C267 C 0.46634 0.25242 0.49087 0.0
H268 H 0.56269 0.29933 0.48683 0.0
H269 H 0.43446 0.29359 0.50067 0.0
H270 H 0.9593 0.21725 0.51746 0.0
H271 H 0.76383 0.05893 0.42823 0.0
H272 H 0.08682 0.22984 0.50513 0.0
H273 H 0.3771 0.19321 0.4895 0.0
H274 H 0.38828 0.07926 0.46716 0.0
H275 H 0.74283 0.44801 0.58097 0.0
H276 H 0.58608 0.94166 0.42715 0.0
H277 H 0.71546 0.95585 0.41762 0.0
H278 H 0.11845 0.44644 0.5442 0.0
H279 H 0.46403 0.98784 0.44405 0.0
H280 H 0.91231 0.57391 0.58499 0.0
H281 H 0.78437 0.5534 0.59374 0.0
N282 N 0.84464 0.40822 0.56087 0.0
C283 C 0.91522 0.41844 0.55558 0.0
C284 C 0.79785 0.45579 0.57458 0.0
C285 C 0.89385 0.52723 0.57791 0.0
C286 C 0.82156 0.51584 0.58276 0.0
C287 C 0.94171 0.47835 0.56447 0.0
H288 H 0.03615 0.53344 0.56618 0.0
N289 N 0.9349 0.31133 0.53339 0.0
C290 C 0.96165 0.36885 0.54189 0.0
C291 C 0.08041 0.32778 0.52314 0.0
C292 C 0.03533 0.37846 0.53724 0.0
C293 C 0.97922 0.26203 0.52134 0.0
C294 C 0.05214 0.26929 0.51512 0.0
O295 O 0.67777 0.18978 0.51437 0.0
O296 O 0.70137 0.28335 0.56364 0.0
O297 O 0.86158 0.27425 0.60054 0.0
O298 O 0.83099 0.36865 0.61469 0.0
O299 O 0.70334 0.3052 0.47057 0.0
O300 O 0.70751 0.34443 0.54156 0.0
O301 O 0.84815 0.3123 0.48893 0.0
O302 O 0.81646 0.21906 0.44115 0.0
O303 O 0.6484 0.22953 0.40453 0.0
O304 O 0.70307 0.1428 0.38903 0.0
O305 O 0.82693 0.20302 0.53389 0.0
O306 O 0.807 0.16396 0.46308 0.0
C307 C 0.67282 0.22836 0.55231 0.0
C308 C 0.68711 0.34788 0.50548 0.0
C309 C 0.84335 0.33317 0.67216 0.0
C310 C 0.88625 0.32687 0.7389 0.0
C311 C 0.7702 0.37214 0.73353 0.0
C312 C 0.78055 0.36157 0.69141 0.0
C313 C 0.82208 0.35462 0.75702 0.0
C314 C 0.89605 0.31606 0.69609 0.0
C315 C 0.85897 0.32804 0.62876 0.0
C316 C 0.06192 0.43814 0.54724 0.0
C317 C 0.01507 0.48777 0.5601 0.0
H318 H 0.13721 0.33336 0.51895 0.0
C319 C 0.8525 0.27063 0.45183 0.0
C320 C 0.83573 0.16064 0.49753 0.0
C321 C 0.59811 0.14663 0.3504 0.0
C322 C 0.50528 0.145 0.29907 0.0
C323 C 0.51403 0.06171 0.32733 0.0
C324 C 0.57358 0.0895 0.35086 0.0
C325 C 0.47976 0.08931 0.30181 0.0
C326 C 0.56385 0.17405 0.32425 0.0
C327 C 0.66035 0.17713 0.37604 0.0
H328 H 0.72169 0.39419 0.74817 0.0
H329 H 0.7399 0.37637 0.67404 0.0
H330 H 0.8115 0.36266 0.78943 0.0
H331 H 0.94574 0.29641 0.68154 0.0
H332 H 0.49505 0.01811 0.32838 0.0
H333 H 0.60073 0.06569 0.3689 0.0
H334 H 0.43389 0.06643 0.28366 0.0
H335 H 0.58459 0.21677 0.32247 0.0
H336 H 0.61565 0.63002 0.07048 0.0
H337 H 0.63252 0.59946 0.93854 0.0
H338 H 0.55121 0.51203 0.92394 0.0
H339 H 0.61193 0.47159 0.06261 0.0
H340 H 0.54681 0.48057 0.10279 0.0
H341 H 0.60495 0.54328 0.10414 0.0
H342 H 0.49421 0.61191 0.10722 0.0
H343 H 0.43567 0.54931 0.10578 0.0
H344 H 0.42557 0.58719 0.06778 0.0
H345 H 0.47082 0.42782 0.92195 0.0
H346 H 0.39535 0.34798 0.93272 0.0
H347 H 0.42832 0.42708 0.06565 0.0
C348 C 0.60189 0.60504 0.03859 0.0
C349 C 0.63108 0.62197 1.00574 0.0
C350 C 0.61173 0.58772 0.96441 0.0
C351 C 0.5651 0.53785 0.95565 0.0
C352 C 0.53766 0.52224 0.98844 0.0
C353 C 0.55499 0.55446 0.02911 0.0
C354 C 0.51828 0.52617 0.05809 0.0
C355 C 0.57382 0.50409 0.0834 0.0
C356 C 0.4653 0.57135 0.0864 0.0
C357 C 0.4789 0.47271 0.02714 0.0
C358 C 0.49069 0.47211 0.98724 0.0
C359 C 0.46108 0.42768 0.95304 0.0
C360 C 0.4184 0.38224 0.95958 0.0
C361 C 0.40555 0.38089 1.00005 0.0
C362 C 0.43628 0.42709 0.03435 0.0
H363 H 0.39153 0.61646 0.56683 0.0
H364 H 0.40564 0.61085 0.439 0.0
H365 H 0.50319 0.53644 0.42725 0.0
H366 H 0.58534 0.59833 0.58241 0.0
H367 H 0.57261 0.54947 0.61328 0.0
H368 H 0.50617 0.60604 0.61354 0.0
H369 H 0.40814 0.52201 0.59196 0.0
H370 H 0.47414 0.46534 0.59187 0.0
H371 H 0.4206 0.45664 0.54618 0.0
H372 H 0.59523 0.46147 0.42732 0.0
H373 H 0.67414 0.38346 0.4379 0.0
H374 H 0.603 0.43109 0.56515 0.0
C375 C 0.41574 0.59984 0.53655 0.0
C376 C 0.39061 0.61961 0.50381 0.0
C377 C 0.42325 0.59629 0.46451 0.0
C378 C 0.47923 0.55421 0.45754 0.0
C379 C 0.5024 0.53531 0.49009 0.0
C380 C 0.47182 0.55685 0.5288 0.0
C381 C 0.50543 0.52585 0.55744 0.0
C382 C 0.54471 0.57273 0.59383 0.0
C383 C 0.44868 0.49035 0.57276 0.0
C384 C 0.55829 0.48284 0.52837 0.0
C385 C 0.55591 0.49016 0.48992 0.0
C386 C 0.59782 0.45536 0.45731 0.0
C387 C 0.64251 0.41092 0.46371 0.0
C388 C 0.64507 0.40083 0.50237 0.0
C389 C 0.60302 0.43813 0.53541 0.0
H390 H 0.14012 0.11123 0.0684 0.0
H391 H 0.1026 0.11367 0.94361 0.0
H392 H 0.99359 0.05176 0.93826 0.0
H393 H 0.08915 0.95521 0.04561 0.0
H394 H 0.04734 0.96529 0.0947 0.0
H395 H 0.11893 0.01544 0.09122 0.0
H396 H 0.03773 0.1092 0.12291 0.0
H397 H 0.96534 0.05973 0.12663 0.0
H398 H 0.95206 0.11327 0.09919 0.0
H399 H 0.89168 0.98908 0.94475 0.0
H400 H 0.8117 0.91348 0.95825 0.0
H401 H 0.91482 0.94464 0.07753 0.0
C402 C 0.10864 0.09861 0.04009 0.0
C403 C 0.12969 0.117 1.00636 0.0
C404 C 0.08787 0.09939 0.9696 0.0
C405 C 0.02531 0.06496 0.96646 0.0
C406 C 1.00556 0.04785 1.00019 0.0
C407 C 0.04643 0.06285 0.03603 0.0
C408 C 0.01611 0.03324 0.06592 0.0
C409 C 0.07113 0.98969 0.07488 0.0
C410 C 0.99134 0.08177 0.10605 0.0
C411 C 0.95264 0.9986 0.04088 0.0
C412 C 0.94698 0.00913 1.00348 0.0
C413 C 0.89522 0.98059 0.97396 0.0
C414 C 0.84996 0.93789 0.98194 0.0
C415 C 0.85704 0.92372 0.01895 0.0
C416 C 0.90737 0.95587 0.04946 0.0
H417 H 0.88835 0.11557 0.55782 0.0
H418 H 0.9062 0.09677 0.42767 0.0
H419 H 1.0035 0.02322 0.42012 0.0
H420 H 0.07782 0.09852 0.57807 0.0
H421 H 0.06253 0.05235 0.61052 0.0
H422 H 0.99653 0.10757 0.6076 0.0
H423 H 0.89915 0.02282 0.58585 0.0
H424 H 0.96464 0.96769 0.58935 0.0
H425 H 0.9147 0.95534 0.54196 0.0
H426 H 0.09784 0.95325 0.42531 0.0
H427 H 0.17368 0.87652 0.44034 0.0
H428 H 0.09284 0.9319 0.56584 0.0
C429 C 0.91289 0.09589 0.52782 0.0
C430 C 0.88999 0.11252 0.49345 0.0
C431 C 0.92274 0.08515 0.45454 0.0
C432 C 0.97857 0.04354 0.44992 0.0
C433 C 1.0006 0.02879 0.48433 0.0
C434 C 0.96813 0.05288 0.52235 0.0
C435 C 0.99918 0.02492 0.55319 0.0
C436 C 0.03621 0.07377 0.5895 0.0
C437 C 0.94095 0.99066 0.56848 0.0
C438 C 0.05346 0.98112 0.52625 0.0
C439 C 0.054 0.98538 0.48692 0.0
C440 C 0.09791 0.94923 0.45593 0.0
C441 C 0.14074 0.90578 0.46479 0.0
C442 C 0.13888 0.89823 0.50417 0.0
C443 C 0.09594 0.93737 0.53567 0.0
H444 H 0.46353 0.08052 0.22025 0.0
H445 H 0.47861 0.2655 0.30617 0.0
H446 H 0.4327 0.30467 0.25152 0.0
H447 H 0.52361 0.1137 0.13512 0.0
H448 H 0.46518 0.06161 0.0981 0.0
H449 H 0.49241 0.0454 0.14386 0.0
H450 H 0.35962 0.03891 0.16498 0.0
H451 H 0.33257 0.04985 0.11728 0.0
H452 H 0.29901 0.0997 0.16591 0.0
H453 H 0.39423 0.32281 0.1841 0.0
H454 H 0.36724 0.31715 0.11187 0.0
H455 H 0.37088 0.12006 0.07344 0.0
C456 C 0.45528 0.1292 0.2282 0.0
C457 C 0.47398 0.16979 0.26773 0.0
C458 C 0.46496 0.23342 0.27604 0.0
C459 C 0.43839 0.25605 0.2453 0.0
C460 C 0.42075 0.21443 0.20655 0.0
C461 C 0.42854 0.15231 0.19822 0.0
C462 C 0.41087 0.11694 0.15368 0.0
C463 C 0.47705 0.08232 0.13149 0.0
C464 C 0.34672 0.0738 0.15028 0.0
C465 C 0.39164 0.16851 0.13789 0.0
C466 C 0.39754 0.22462 0.16868 0.0
C467 C 0.38732 0.27896 0.16019 0.0
C468 C 0.3706 0.27548 0.1193 0.0
C469 C 0.36302 0.21829 0.08783 0.0
C470 C 0.37424 0.16438 0.09732 0.0
H471 H 0.39162 0.86911 0.26164 0.0
H472 H 0.61997 0.87477 0.28854 0.0
H473 H 0.59516 0.84882 0.35165 0.0
H474 H 0.3368 0.93882 0.36918 0.0
H475 H 0.25651 0.89298 0.36167 0.0
H476 H 0.29284 0.91316 0.31927 0.0
H477 H 0.29757 0.79851 0.27491 0.0
H478 H 0.26188 0.77803 0.31724 0.0
H479 H 0.34575 0.74612 0.29432 0.0
H480 H 0.54433 0.81563 0.4099 0.0
H481 H 0.47186 0.78295 0.45911 0.0
H482 H 0.27767 0.80793 0.39601 0.0
C483 C 0.43661 0.86599 0.28102 0.0
C484 C 0.50786 0.87379 0.26985 0.0
C485 C 0.56497 0.86796 0.29593 0.0
C486 C 0.55138 0.85374 0.33205 0.0
C487 C 0.4804 0.84606 0.34188 0.0
C488 C 0.42401 0.8526 0.31726 0.0
C489 C 0.35259 0.8418 0.3343 0.0
C490 C 0.30701 0.90017 0.34685 0.0
C491 C 0.31211 0.78791 0.30335 0.0
C492 C 0.37754 0.82647 0.3718 0.0
C493 C 0.45135 0.82934 0.37588 0.0
C494 C 0.48643 0.81445 0.4074 0.0
C495 C 0.44483 0.7965 0.43548 0.0
C496 C 0.36905 0.79459 0.43226 0.0
C497 C 0.33543 0.80954 0.39976 0.0
H498 H 0.72017 0.82084 0.90156 0.0
H499 H 0.52863 0.77836 0.95803 0.0
H500 H 0.45439 0.79759 0.90342 0.0
H501 H 0.64584 0.94049 0.86943 0.0
H502 H 0.69494 0.91866 0.8217 0.0
H503 H 0.73154 0.90339 0.86616 0.0
H504 H 0.74258 0.78841 0.82287 0.0
H505 H 0.706 0.80355 0.7784 0.0
H506 H 0.66433 0.74734 0.79683 0.0
H507 H 0.40144 0.82611 0.84324 0.0
H508 H 0.37518 0.85237 0.7803 0.0
H509 H 0.60372 0.86612 0.76111 0.0
C510 C 0.66259 0.8156 0.90264 0.0
C511 C 0.63004 0.79927 0.93461 0.0
C512 C 0.55456 0.79249 0.93451 0.0
C513 C 0.51203 0.80289 0.90344 0.0
C514 C 0.546 0.81961 0.8726 0.0
C515 C 0.61967 0.82531 0.87186 0.0
C516 C 0.64365 0.84223 0.83499 0.0
C517 C 0.68121 0.90491 0.84892 0.0
C518 C 0.69196 0.79241 0.8066 0.0
C519 C 0.57195 0.84496 0.81483 0.0
C520 C 0.5161 0.8327 0.83719 0.0
C521 C 0.44488 0.83483 0.82514 0.0
C522 C 0.43056 0.84934 0.7891 0.0
C523 C 0.48726 0.8609 0.76523 0.0
C524 C 0.55878 0.85836 0.77857 0.0
H525 H 0.67702 0.27508 0.63767 0.0
H526 H 0.57557 0.13469 0.53568 0.0
H527 H 0.50383 0.10248 0.5842 0.0
H528 H 0.69563 0.17517 0.69953 0.0
H529 H 0.6856 0.23782 0.74714 0.0
H530 H 0.72123 0.25089 0.70202 0.0
H531 H 0.61775 0.33329 0.71032 0.0
H532 H 0.58477 0.315 0.75425 0.0
H533 H 0.52623 0.30904 0.7109 0.0
H534 H 0.44993 0.07818 0.64212 0.0
H535 H 0.42204 0.06094 0.70795 0.0
H536 H 0.56336 0.21018 0.77396 0.0
C537 C 0.63865 0.2384 0.62558 0.0
C538 C 0.62976 0.2095 0.58242 0.0
C539 C 0.58137 0.15972 0.56806 0.0
C540 C 0.54065 0.14041 0.59553 0.0
C541 C 0.55054 0.16969 0.63762 0.0
C542 C 0.59918 0.21688 0.65279 0.0
C543 C 0.60506 0.23547 0.69956 0.0
C544 C 0.68135 0.22426 0.71289 0.0
C545 C 0.58212 0.30217 0.72 0.0
C546 C 0.55176 0.19163 0.70804 0.0
C547 C 0.52064 0.15436 0.67171 0.0
C548 C 0.473 0.10764 0.6709 0.0
C549 C 0.45738 0.09821 0.70826 0.0
C550 C 0.48955 0.13507 0.74564 0.0
C551 C 0.53683 0.18264 0.74571 0.0
H552 H 0.91925 0.65696 0.07841 0.0
H553 H 0.8162 0.82561 0.15032 0.0
H554 H 0.87198 0.81796 0.21404 0.0
H555 H 0.914 0.57919 0.15919 0.0
H556 H 0.99961 0.54543 0.14097 0.0
H557 H 0.93774 0.56406 0.10609 0.0
H558 H 0.0458 0.62988 0.09029 0.0
H559 H 0.10058 0.6112 0.12828 0.0
H560 H 0.08438 0.68969 0.133 0.0
H561 H 0.94587 0.79461 0.27003 0.0
H562 H 0.0351 0.76025 0.31164 0.0
H563 H 0.09194 0.60888 0.20276 0.0
C564 C 0.9073 0.69166 0.10765 0.0
C565 C 0.86285 0.74163 0.10928 0.0
C566 C 0.84984 0.7867 0.14817 0.0
C567 C 0.88113 0.78269 0.18468 0.0
C568 C 0.92559 0.73332 0.18196 0.0
C569 C 0.93859 0.68867 0.14442 0.0
C570 C 0.99287 0.64308 0.14934 0.0
C571 C 0.95922 0.5791 0.13821 0.0
C572 C 0.05991 0.64334 0.12366 0.0
C573 C 0.00932 0.66922 0.19521 0.0
C574 C 0.9693 0.7209 0.21373 0.0
C575 C 0.97703 0.75388 0.2558 0.0
C576 C 0.02764 0.73391 0.27926 0.0
C577 C 0.07058 0.68194 0.26052 0.0
C578 C 0.06025 0.64896 0.21801 0.0
H579 H 0.87549 0.36793 0.42356 0.0
H580 H 0.94917 0.18577 0.41127 0.0
H581 H 0.02879 0.18721 0.35435 0.0
H582 H 0.87155 0.34282 0.31356 0.0
H583 H 0.90048 0.41887 0.31795 0.0
H584 H 0.8513 0.40596 0.35944 0.0
H585 H 0.95499 0.45425 0.41232 0.0
H586 H 0.99828 0.47149 0.37063 0.0
H587 H 0.04563 0.42857 0.39777 0.0
H588 H 0.09959 0.20751 0.29772 0.0
H589 H 0.16354 0.24947 0.24974 0.0
H590 H 0.04323 0.41746 0.29728 0.0
C591 C 0.90956 0.32901 0.40934 0.0
C592 C 0.90673 0.27683 0.422 0.0
C593 C 0.95069 0.22612 0.40204 0.0
C594 C 0.99587 0.22644 0.36956 0.0
C595 C 0.99598 0.2776 0.35681 0.0
C596 C 0.95435 0.32817 0.37617 0.0
C597 C 0.9633 0.37643 0.35542 0.0
C598 C 0.89243 0.3866 0.33541 0.0
C599 C 0.99218 0.43635 0.38596 0.0
C600 C 0.01866 0.34629 0.32287 0.0
C601 C 0.03581 0.28878 0.32364 0.0
C602 C 0.08654 0.25253 0.29686 0.0
C603 C 0.12236 0.2765 0.26958 0.0
C604 C 0.10819 0.33651 0.2698 0.0
C605 C 0.05482 0.3713 0.29638 0.0
H606 H 0.92406 0.38785 0.82074 0.0
H607 H 0.97598 0.22706 0.71654 0.0
H608 H 0.06608 0.19781 0.7597 0.0
H609 H 0.09956 0.42196 0.86427 0.0
H610 H 0.07266 0.44195 0.91742 0.0
H611 H 0.01179 0.45347 0.87948 0.0
H612 H 0.91541 0.38917 0.8985 0.0
H613 H 0.97272 0.37354 0.93655 0.0
H614 H 0.93419 0.31156 0.89529 0.0
H615 H 0.14597 0.18262 0.81562 0.0
H616 H 0.21018 0.18384 0.87908 0.0
H617 H 0.10742 0.35467 0.94703 0.0
C618 C 0.95396 0.34627 0.80682 0.0
C619 C 0.9425 0.30997 0.76483 0.0
C620 C 0.9841 0.25641 0.74819 0.0
C621 C 0.03526 0.23912 0.77262 0.0
C622 C 0.0445 0.27567 0.81382 0.0
C623 C 1.00496 0.32811 0.83081 0.0
C624 C 0.02325 0.35803 0.87637 0.0
C625 C 0.05355 0.42271 0.88487 0.0
C626 C 0.95749 0.3582 0.90327 0.0
C627 C 0.08029 0.31498 0.88222 0.0
C628 C 0.09122 0.26742 0.84584 0.0
C629 C 0.13845 0.22016 0.84408 0.0
C630 C 0.1751 0.22141 0.88037 0.0
C631 C 0.1654 0.26987 0.91805 0.0
C632 C 0.1174 0.31746 0.91869 0.0
H633 H 0.17597 0.64766 0.60517 0.0
H634 H 0.0526 0.80196 0.5977 0.0
H635 H 0.97795 0.79783 0.65614 0.0
H636 H 0.03253 0.56288 0.63887 0.0
H637 H 0.09671 0.54256 0.6713 0.0
H638 H 0.1268 0.55693 0.62551 0.0
H639 H 0.21509 0.63623 0.67767 0.0
H640 H 0.17302 0.62473 0.72177 0.0
H641 H 0.17698 0.70008 0.71757 0.0
H642 H 0.91514 0.77584 0.71482 0.0
H643 H 0.86663 0.73465 0.76752 0.0
H644 H 0.03418 0.5982 0.73943 0.0
C645 C 0.13243 0.67979 0.61555 0.0
C646 C 0.11927 0.72475 0.59681 0.0
C647 C 0.06321 0.76716 0.61173 0.0
C648 C 0.0207 0.76523 0.64491 0.0
C649 C 0.03586 0.72135 0.66348 0.0
C650 C 0.09041 0.67937 0.64942 0.0
C651 C 0.09774 0.63917 0.67644 0.0
C652 C 0.08803 0.57133 0.65137 0.0
C653 C 0.17 0.65076 0.69974 0.0
C654 C 0.03586 0.66228 0.70587 0.0
C655 C 1.00171 0.71053 0.69846 0.0
C656 C 0.9417 0.73824 0.72098 0.0
C657 C 0.91463 0.71475 0.75092 0.0
C658 C 0.94679 0.66344 0.75749 0.0
C659 C 0.00884 0.63769 0.7351 0.0
loop_
_geom_bond_atom_site_label_1
_geom_bond_atom_site_label_2
_geom_bond_distance
_geom_bond_site_symmetry_2
_ccdc_geom_bond_type
C0 C2 1.422 . S
C0 C4 1.415 . S
C0 N6 1.369 . S
C1 C2 1.421 1_655 S
C1 C3 1.416 . S
C1 C13 1.422 1_554 S
C2 C0 1.422 . S
C2 C1 1.421 1_455 S
C2 N12 1.359 . S
C3 C1 1.416 . S
C3 C5 1.329 . S
C3 H22 0.931 1_554 S
C4 C0 1.415 . S
C4 C5 1.437 1_455 S
C4 C8 1.413 . S
C5 C3 1.329 . S
C5 C4 1.437 1_655 S
C5 H27 0.929 . S
N6 C0 1.369 . S
N6 C7 1.338 . S
N6 Gd11 2.622 . S
C7 N6 1.338 . S
C7 C9 1.378 . S
C7 H19 0.929 . S
C8 C4 1.413 . S
C8 C9 1.348 . S
C8 H24 0.931 . S
C9 C7 1.378 . S
C9 C8 1.348 . S
C9 H25 0.930 . S
Gd10 N30 2.622 . S
Gd10 N37 2.570 . S
Gd10 O44 2.353 . S
Gd10 O45 2.468 . S
Gd10 O46 2.427 . S
Gd10 O48 2.388 . S
Gd10 O49 2.386 1_556 S
Gd10 O53 2.307 . S
Gd10 C63 2.805 . S
Gd11 N6 2.622 . S
Gd11 N12 2.570 . S
Gd11 O43 2.386 1_554 S
Gd11 O47 2.307 . S
Gd11 O50 2.353 . S
Gd11 O51 2.468 . S
Gd11 O52 2.427 . S
Gd11 O54 2.388 . S
Gd11 C75 2.805 . S
N12 C2 1.359 . S
N12 Gd11 2.570 . S
N12 C14 1.343 . S
C13 C1 1.422 1_556 S
C13 C15 1.323 . S
C13 H21 0.931 . S
C14 N12 1.343 . S
C14 C15 1.388 1_454 S
C14 H16 0.931 . S
C15 C13 1.323 . S
C15 C14 1.388 1_656 S
C15 H17 0.930 . S
H16 C14 0.931 . S
H17 C15 0.930 . S
H18 C41 0.931 . S
H19 C7 0.929 . S
H20 C42 0.929 . S
H21 C13 0.931 . S
H22 C3 0.931 1_556 S
H23 C32 0.929 . S
H24 C8 0.931 . S
H25 C9 0.930 . S
H26 C64 0.931 . S
H27 C5 0.929 . S
H28 C33 0.931 . S
H29 C34 0.930 . S
N30 Gd10 2.622 . S
N30 C31 1.369 . S
N30 C32 1.338 . S
C31 N30 1.369 . S
C31 C35 1.415 . S
C31 C38 1.422 . S
C32 H23 0.929 . S
C32 N30 1.338 . S
C32 C34 1.378 1_545 S
C33 H28 0.931 . S
C33 C34 1.348 . S
C33 C35 1.413 1_565 S
C34 H29 0.930 . S
C34 C32 1.378 1_565 S
C34 C33 1.348 . S
C35 C31 1.415 . S
C35 C33 1.413 1_545 S
C35 C65 1.437 . S
H36 C65 0.929 1_565 S
N37 Gd10 2.570 . S
N37 C38 1.359 . S
N37 C41 1.343 . S
C38 C31 1.422 . S
C38 N37 1.359 . S
C38 C40 1.421 . S
C39 C40 1.422 1_554 S
C39 C42 1.326 . S
C39 H66 0.931 . S
C40 C38 1.421 . S
C40 C39 1.422 1_556 S
C40 C64 1.416 1_556 S
C41 H18 0.931 . S
C41 N37 1.343 . S
C41 C42 1.386 1_556 S
C42 H20 0.929 . S
C42 C39 1.326 . S
C42 C41 1.386 1_554 S
O43 Gd11 2.386 1_556 S
O43 C55 1.265 . S
O44 Gd10 2.353 . S
O44 C55 1.242 . S
O45 Gd10 2.468 . S
O45 C63 1.263 . S
O46 Gd10 2.427 . S
O46 C63 1.252 . S
O47 Gd11 2.307 . S
O47 C56 1.261 1_554 S
O48 Gd10 2.388 . S
O48 C56 1.252 . S
O49 Gd10 2.386 1_554 S
O49 C67 1.265 . S
O50 Gd11 2.353 . S
O50 C67 1.242 . S
O51 Gd11 2.468 . S
O51 C75 1.263 . S
O52 Gd11 2.427 . S
O52 C75 1.252 . S
O53 Gd10 2.307 . S
O53 C68 1.261 1_556 S
O54 Gd11 2.388 . S
O54 C68 1.252 . S
C55 O43 1.265 . S
C55 O44 1.242 . S
C56 O47 1.261 1_556 S
C56 O48 1.252 . S
C57 C60 1.394 . S
C57 C62 1.370 . S
C57 C63 1.500 . S
C58 C61 1.383 . S
C58 C62 1.395 . S
C59 C60 1.396 . S
C59 C61 1.365 . S
C59 H76 0.929 . S
C60 C57 1.394 . S
C60 C59 1.396 . S
C60 H77 0.930 . S
C61 C58 1.383 . S
C61 C59 1.365 . S
C61 H78 0.931 . S
C62 C57 1.370 . S
C62 C58 1.395 . S
C62 H79 0.930 . S
C63 Gd10 2.805 . S
C63 O45 1.263 . S
C63 O46 1.252 . S
C63 C57 1.500 . S
C64 H26 0.931 . S
C64 C40 1.416 1_554 S
C64 C65 1.329 1_554 S
C65 C35 1.437 . S
C65 H36 0.929 1_545 S
C65 C64 1.329 1_556 S
H66 C39 0.931 . S
C67 O49 1.265 . S
C67 O50 1.242 . S
C68 O53 1.261 1_554 S
C68 O54 1.252 . S
C69 C72 1.394 . S
C69 C74 1.370 . S
C69 C75 1.500 . S
C70 C73 1.383 . S
C70 C74 1.395 . S
C71 C72 1.396 . S
C71 C73 1.365 . S
C71 H80 0.929 . S
C72 C69 1.394 . S
C72 C71 1.396 . S
C72 H81 0.930 . S
C73 C70 1.383 . S
C73 C71 1.365 . S
C73 H82 0.931 . S
C74 C69 1.370 . S
C74 C70 1.395 . S
C74 H83 0.930 . S
C75 Gd11 2.805 . S
C75 O51 1.263 . S
C75 O52 1.252 . S
C75 C69 1.500 . S
H76 C59 0.929 . S
H77 C60 0.930 . S
H78 C61 0.931 . S
H79 C62 0.930 . S
H80 C71 0.929 . S
H81 C72 0.930 . S
H82 C73 0.931 . S
H83 C74 0.930 . S
C84 C86 1.422 . S
C84 C88 1.415 . S
C84 N90 1.369 . S
C85 C86 1.421 . S
C85 C87 1.416 . S
C85 C97 1.422 1_554 S
C86 C84 1.422 . S
C86 C85 1.421 . S
C86 N96 1.359 . S
C87 C85 1.416 . S
C87 C89 1.329 . S
C87 H106 0.931 1_554 S
C88 C84 1.415 . S
C88 C89 1.437 . S
C88 C92 1.413 1_565 S
C89 C87 1.329 . S
C89 C88 1.437 . S
C89 H111 0.929 1_565 S
N90 C84 1.369 . S
N90 C91 1.338 . S
N90 Gd95 2.622 . S
C91 N90 1.338 . S
C91 C93 1.378 1_565 S
C91 H103 0.929 . S
C92 C88 1.413 1_545 S
C92 C93 1.348 . S
C92 H108 0.931 . S
C93 C91 1.378 1_545 S
C93 C92 1.348 . S
C93 H109 0.930 . S
Gd94 N114 2.622 . S
Gd94 N121 2.570 . S
Gd94 O128 2.353 . S
Gd94 O129 2.468 . S
Gd94 O130 2.427 . S
Gd94 O132 2.388 . S
Gd94 O133 2.386 1_556 S
Gd94 O137 2.307 . S
Gd94 C147 2.805 . S
Gd95 N90 2.622 . S
Gd95 N96 2.570 . S
Gd95 O127 2.386 1_554 S
Gd95 O131 2.307 . S
Gd95 O134 2.353 . S
Gd95 O135 2.468 . S
Gd95 O136 2.427 . S
Gd95 O138 2.388 . S
Gd95 C159 2.805 . S
N96 C86 1.359 . S
N96 Gd95 2.570 . S
N96 C98 1.343 . S
C97 C85 1.422 1_556 S
C97 C99 1.323 . S
C97 H105 0.931 . S
C98 N96 1.343 . S
C98 C99 1.388 1_554 S
C98 H100 0.931 . S
C99 C97 1.323 . S
C99 C98 1.388 1_556 S
C99 H101 0.930 . S
H100 C98 0.931 . S
H101 C99 0.930 . S
H102 C125 0.931 . S
H103 C91 0.929 . S
H104 C126 0.929 . S
H105 C97 0.931 . S
H106 C87 0.931 1_556 S
H107 C116 0.929 . S
H108 C92 0.931 . S
H109 C93 0.930 . S
H110 C148 0.931 . S
H111 C89 0.929 1_545 S
H112 C117 0.931 . S
H113 C118 0.930 . S
N114 Gd94 2.622 . S
N114 C115 1.369 . S
N114 C116 1.338 . S
C115 N114 1.369 . S
C115 C119 1.415 . S
C115 C122 1.422 . S
C116 H107 0.929 . S
C116 N114 1.338 . S
C116 C118 1.378 . S
C117 H112 0.931 . S
C117 C118 1.348 . S
C117 C119 1.413 . S
C118 H113 0.930 . S
C118 C116 1.378 . S
C118 C117 1.348 . S
C119 C115 1.415 . S
C119 C117 1.413 . S
C119 C149 1.437 1_655 S
H120 C149 0.929 . S
N121 Gd94 2.570 . S
N121 C122 1.359 . S
N121 C125 1.343 . S
C122 C115 1.422 . S
C122 N121 1.359 . S
C122 C124 1.421 1_655 S
C123 C124 1.422 1_554 S
C123 C126 1.326 . S
C123 H150 0.931 . S
C124 C122 1.421 1_455 S
C124 C123 1.422 1_556 S
C124 C148 1.416 1_556 S
C125 H102 0.931 . S
C125 N121 1.343 . S
C125 C126 1.386 1_656 S
C126 H104 0.929 . S
C126 C123 1.326 . S
C126 C125 1.386 1_454 S
O127 Gd95 2.386 1_556 S
O127 C139 1.265 . S
O128 Gd94 2.353 . S
O128 C139 1.242 . S
O129 Gd94 2.468 . S
O129 C147 1.263 . S
O130 Gd94 2.427 . S
O130 C147 1.252 . S
O131 Gd95 2.307 . S
O131 C140 1.261 1_554 S
O132 Gd94 2.388 . S
O132 C140 1.252 . S
O133 Gd94 2.386 1_554 S
O133 C151 1.265 . S
O134 Gd95 2.353 . S
O134 C151 1.242 . S
O135 Gd95 2.468 . S
O135 C159 1.263 . S
O136 Gd95 2.427 . S
O136 C159 1.252 . S
O137 Gd94 2.307 . S
O137 C152 1.261 1_556 S
O138 Gd95 2.388 . S
O138 C152 1.252 . S
C139 O127 1.265 . S
C139 O128 1.242 . S
C140 O131 1.261 1_556 S
C140 O132 1.252 . S
C141 C144 1.394 . S
C141 C146 1.370 . S
C141 C147 1.500 . S
C142 C145 1.383 . S
C142 C146 1.395 . S
C143 C144 1.396 . S
C143 C145 1.365 . S
C143 H160 0.929 . S
C144 C141 1.394 . S
C144 C143 1.396 . S
C144 H161 0.930 . S
C145 C142 1.383 . S
C145 C143 1.365 . S
C145 H162 0.931 . S
C146 C141 1.370 . S
C146 C142 1.395 . S
C146 H163 0.930 . S
C147 Gd94 2.805 . S
C147 O129 1.263 . S
C147 O130 1.252 . S
C147 C141 1.500 . S
C148 H110 0.931 . S
C148 C124 1.416 1_554 S
C148 C149 1.329 1_554 S
C149 C119 1.437 1_455 S
C149 H120 0.929 . S
C149 C148 1.329 1_556 S
H150 C123 0.931 . S
C151 O133 1.265 . S
C151 O134 1.242 . S
C152 O137 1.261 1_554 S
C152 O138 1.252 . S
C153 C156 1.394 . S
C153 C158 1.370 . S
C153 C159 1.500 . S
C154 C157 1.383 . S
C154 C158 1.395 . S
C155 C156 1.396 . S
C155 C157 1.365 . S
C155 H164 0.929 . S
C156 C153 1.394 . S
C156 C155 1.396 . S
C156 H165 0.930 . S
C157 C154 1.383 . S
C157 C155 1.365 . S
C157 H166 0.931 . S
C158 C153 1.370 . S
C158 C154 1.395 . S
C158 H167 0.930 . S
C159 Gd95 2.805 . S
C159 O135 1.263 . S
C159 O136 1.252 . S
C159 C153 1.500 . S
H160 C143 0.929 . S
H161 C144 0.930 . S
H162 C145 0.931 . S
H163 C146 0.930 . S
H164 C155 0.929 . S
H165 C156 0.930 . S
H166 C157 0.931 . S
H167 C158 0.930 . S
C168 C170 1.422 . S
C168 C172 1.415 . S
C168 N174 1.369 . S
C169 C170 1.421 1_655 S
C169 C171 1.417 . S
C169 C181 1.422 . S
C170 C168 1.422 . S
C170 C169 1.421 1_455 S
C170 N180 1.359 . S
C171 C169 1.417 . S
C171 C173 1.329 . S
C171 H190 0.930 . S
C172 C168 1.415 . S
C172 C173 1.437 1_455 S
C172 C176 1.413 . S
C173 C171 1.329 . S
C173 C172 1.437 1_655 S
C173 H195 0.929 . S
N174 C168 1.369 . S
N174 C175 1.338 . S
N174 Gd179 2.622 . S
C175 N174 1.338 . S
C175 C177 1.378 . S
C175 H187 0.929 . S
C176 C172 1.413 . S
C176 C177 1.348 . S
C176 H192 0.931 . S
C177 C175 1.378 . S
C177 C176 1.348 . S
C177 H193 0.930 . S
Gd178 N198 2.622 . S
Gd178 N205 2.570 . S
Gd178 O212 2.353 . S
Gd178 O213 2.468 . S
Gd178 O214 2.427 . S
Gd178 O216 2.388 . S
Gd178 O217 2.386 . S
Gd178 O221 2.307 . S
Gd178 C231 2.805 . S
Gd179 N174 2.622 . S
Gd179 N180 2.570 . S
Gd179 O211 2.386 . S
Gd179 O215 2.307 . S
Gd179 O218 2.353 . S
Gd179 O219 2.468 . S
Gd179 O220 2.427 . S
Gd179 O222 2.388 . S
Gd179 C243 2.805 . S
N180 C170 1.359 . S
N180 Gd179 2.570 . S
N180 C182 1.343 . S
C181 C169 1.422 . S
C181 C183 1.321 . S
C181 H189 0.931 . S
C182 N180 1.343 . S
C182 C183 1.390 1_455 S
C182 H184 0.931 . S
C183 C181 1.321 . S
C183 C182 1.390 1_655 S
C183 H185 0.930 . S
H184 C182 0.931 . S
H185 C183 0.930 . S
H186 C209 0.931 . S
H187 C175 0.929 . S
H188 C210 0.930 . S
H189 C181 0.931 . S
H190 C171 0.930 . S
H191 C200 0.929 . S
H192 C176 0.931 . S
H193 C177 0.930 . S
H194 C232 0.930 . S
H195 C173 0.929 . S
H196 C201 0.931 . S
H197 C202 0.930 . S
N198 Gd178 2.622 . S
N198 C199 1.369 . S
N198 C200 1.338 . S
C199 N198 1.369 . S
C199 C203 1.415 . S
C199 C206 1.422 . S
C200 H191 0.929 . S
C200 N198 1.338 . S
C200 C202 1.378 1_565 S
C201 H196 0.931 . S
C201 C202 1.348 . S
C201 C203 1.413 1_545 S
C202 H197 0.930 . S
C202 C200 1.378 1_545 S
C202 C201 1.348 . S
C203 C199 1.415 . S
C203 C201 1.413 1_565 S
C203 C233 1.437 . S
H204 C233 0.929 1_545 S
N205 Gd178 2.570 . S
N205 C206 1.359 . S
N205 C209 1.343 . S
C206 C199 1.422 . S
C206 N205 1.359 . S
C206 C208 1.421 . S
C207 C208 1.422 . S
C207 C210 1.321 . S
C207 H234 0.931 . S
C208 C206 1.421 . S
C208 C207 1.422 . S
C208 C232 1.417 . S
C209 H186 0.931 . S
C209 N205 1.343 . S
C209 C210 1.390 . S
C210 H188 0.930 . S
C210 C207 1.321 . S
C210 C209 1.390 . S
O211 Gd179 2.386 . S
O211 C223 1.265 . S
O212 Gd178 2.353 . S
O212 C223 1.242 . S
O213 Gd178 2.468 . S
O213 C231 1.263 . S
O214 Gd178 2.427 . S
O214 C231 1.252 . S
O215 Gd179 2.307 . S
O215 C224 1.261 . S
O216 Gd178 2.388 . S
O216 C224 1.252 . S
O217 Gd178 2.386 . S
O217 C235 1.265 . S
O218 Gd179 2.353 . S
O218 C235 1.242 . S
O219 Gd179 2.468 . S
O219 C243 1.263 . S
O220 Gd179 2.427 . S
O220 C243 1.252 . S
O221 Gd178 2.307 . S
O221 C236 1.261 . S
O222 Gd179 2.388 . S
O222 C236 1.252 . S
C223 O211 1.265 . S
C223 O212 1.242 . S
C224 O215 1.261 . S
C224 O216 1.252 . S
C225 C228 1.394 . S
C225 C230 1.370 . S
C225 C231 1.500 . S
C226 C229 1.383 . S
C226 C230 1.395 . S
C227 C228 1.396 . S
C227 C229 1.365 . S
C227 H244 0.929 . S
C228 C225 1.394 . S
C228 C227 1.396 . S
C228 H245 0.930 . S
C229 C226 1.383 . S
C229 C227 1.365 . S
C229 H246 0.931 . S
C230 C225 1.370 . S
C230 C226 1.395 . S
C230 H247 0.930 . S
C231 Gd178 2.805 . S
C231 O213 1.263 . S
C231 O214 1.252 . S
C231 C225 1.500 . S
C232 H194 0.930 . S
C232 C208 1.417 . S
C232 C233 1.329 . S
C233 C203 1.437 . S
C233 H204 0.929 1_565 S
C233 C232 1.329 . S
H234 C207 0.931 . S
C235 O217 1.265 . S
C235 O218 1.242 . S
C236 O221 1.261 . S
C236 O222 1.252 . S
C237 C240 1.394 . S
C237 C242 1.370 . S
C237 C243 1.500 . S
C238 C241 1.383 . S
C238 C242 1.395 . S
C239 C240 1.396 . S
C239 C241 1.365 . S
C239 H248 0.929 . S
C240 C237 1.394 . S
C240 C239 1.396 . S
C240 H249 0.930 . S
C241 C238 1.383 . S
C241 C239 1.365 . S
C241 H250 0.931 . S
C242 C237 1.370 . S
C242 C238 1.395 . S
C242 H251 0.930 . S
C243 Gd179 2.805 . S
C243 O219 1.263 . S
C243 O220 1.252 . S
C243 C237 1.500 . S
H244 C227 0.929 . S
H245 C228 0.930 . S
H246 C229 0.931 . S
H247 C230 0.930 . S
H248 C239 0.929 . S
H249 C240 0.930 . S
H250 C241 0.931 . S
H251 C242 0.930 . S
C252 C254 1.422 . S
C252 C256 1.415 . S
C252 N258 1.369 . S
C253 C254 1.421 . S
C253 C255 1.417 . S
C253 C265 1.422 . S
C254 C252 1.422 . S
C254 C253 1.421 . S
C254 N264 1.359 . S
C255 C253 1.417 . S
C255 C257 1.329 . S
C255 H274 0.930 . S
C256 C252 1.415 . S
C256 C257 1.437 . S
C256 C260 1.413 1_545 S
C257 C255 1.329 . S
C257 C256 1.437 . S
C257 H279 0.929 1_545 S
N258 C252 1.369 . S
N258 C259 1.338 . S
N258 Gd263 2.622 . S
C259 N258 1.338 . S
C259 C261 1.378 1_545 S
C259 H271 0.929 . S
C260 C256 1.413 1_565 S
C260 C261 1.348 . S
C260 H276 0.931 . S
C261 C259 1.378 1_565 S
C261 C260 1.348 . S
C261 H277 0.930 . S
Gd262 N282 2.622 . S
Gd262 N289 2.570 . S
Gd262 O296 2.353 . S
Gd262 O297 2.468 . S
Gd262 O298 2.427 . S
Gd262 O300 2.388 . S
Gd262 O301 2.386 . S
Gd262 O305 2.307 . S
Gd262 C315 2.805 . S
Gd263 N258 2.622 . S
Gd263 N264 2.570 . S
Gd263 O295 2.386 . S
Gd263 O299 2.307 . S
Gd263 O302 2.353 . S
Gd263 O303 2.468 . S
Gd263 O304 2.427 . S
Gd263 O306 2.388 . S
Gd263 C327 2.805 . S
N264 C254 1.359 . S
N264 Gd263 2.570 . S
N264 C266 1.343 . S
C265 C253 1.422 . S
C265 C267 1.321 . S
C265 H273 0.931 . S
C266 N264 1.343 . S
C266 C267 1.390 . S
C266 H268 0.931 . S
C267 C265 1.321 . S
C267 C266 1.390 . S
C267 H269 0.930 . S
H268 C266 0.931 . S
H269 C267 0.930 . S
H270 C293 0.931 . S
H271 C259 0.929 . S
H272 C294 0.930 . S
H273 C265 0.931 . S
H274 C255 0.930 . S
H275 C284 0.929 . S
H276 C260 0.931 . S
H277 C261 0.930 . S
H278 C316 0.930 . S
H279 C257 0.929 1_565 S
H280 C285 0.931 . S
H281 C286 0.930 . S
N282 Gd262 2.622 . S
N282 C283 1.369 . S
N282 C284 1.338 . S
C283 N282 1.369 . S
C283 C287 1.415 . S
C283 C290 1.422 . S
C284 H275 0.929 . S
C284 N282 1.338 . S
C284 C286 1.378 . S
C285 H280 0.931 . S
C285 C286 1.348 . S
C285 C287 1.413 . S
C286 H281 0.930 . S
C286 C284 1.378 . S
C286 C285 1.348 . S
C287 C283 1.415 . S
C287 C285 1.413 . S
C287 C317 1.437 1_655 S
H288 C317 0.929 . S
N289 Gd262 2.570 . S
N289 C290 1.359 . S
N289 C293 1.343 . S
C290 C283 1.422 . S
C290 N289 1.359 . S
C290 C292 1.421 1_655 S
C291 C292 1.422 . S
C291 C294 1.321 . S
C291 H318 0.931 . S
C292 C290 1.421 1_455 S
C292 C291 1.422 . S
C292 C316 1.417 . S
C293 H270 0.931 . S
C293 N289 1.343 . S
C293 C294 1.390 1_655 S
C294 H272 0.930 . S
C294 C291 1.321 . S
C294 C293 1.390 1_455 S
O295 Gd263 2.386 . S
O295 C307 1.265 . S
O296 Gd262 2.353 . S
O296 C307 1.242 . S
O297 Gd262 2.468 . S
O297 C315 1.263 . S
O298 Gd262 2.427 . S
O298 C315 1.252 . S
O299 Gd263 2.307 . S
O299 C308 1.261 . S
O300 Gd262 2.388 . S
O300 C308 1.252 . S
O301 Gd262 2.386 . S
O301 C319 1.265 . S
O302 Gd263 2.353 . S
O302 C319 1.242 . S
O303 Gd263 2.468 . S
O303 C327 1.263 . S
O304 Gd263 2.427 . S
O304 C327 1.252 . S
O305 Gd262 2.307 . S
O305 C320 1.261 . S
O306 Gd263 2.388 . S
O306 C320 1.252 . S
C307 O295 1.265 . S
C307 O296 1.242 . S
C308 O299 1.261 . S
C308 O300 1.252 . S
C309 C312 1.394 . S
C309 C314 1.370 . S
C309 C315 1.500 . S
C310 C313 1.383 . S
C310 C314 1.395 . S
C311 C312 1.396 . S
C311 C313 1.365 . S
C311 H328 0.929 . S
C312 C309 1.394 . S
C312 C311 1.396 . S
C312 H329 0.930 . S
C313 C310 1.383 . S
C313 C311 1.365 . S
C313 H330 0.931 . S
C314 C309 1.370 . S
C314 C310 1.395 . S
C314 H331 0.930 . S
C315 Gd262 2.805 . S
C315 O297 1.263 . S
C315 O298 1.252 . S
C315 C309 1.500 . S
C316 H278 0.930 . S
C316 C292 1.417 . S
C316 C317 1.329 . S
C317 C287 1.437 1_455 S
C317 H288 0.929 . S
C317 C316 1.329 . S
H318 C291 0.931 . S
C319 O301 1.265 . S
C319 O302 1.242 . S
C320 O305 1.261 . S
C320 O306 1.252 . S
C321 C324 1.394 . S
C321 C326 1.370 . S
C321 C327 1.500 . S
C322 C325 1.383 . S
C322 C326 1.395 . S
C323 C324 1.396 . S
C323 C325 1.365 . S
C323 H332 0.929 . S
C324 C321 1.394 . S
C324 C323 1.396 . S
C324 H333 0.930 . S
C325 C322 1.383 . S
C325 C323 1.365 . S
C325 H334 0.931 . S
C326 C321 1.370 . S
C326 C322 1.395 . S
C326 H335 0.930 . S
C327 Gd263 2.805 . S
C327 O303 1.263 . S
C327 O304 1.252 . S
C327 C321 1.500 . S
H328 C311 0.929 . S
H329 C312 0.930 . S
H330 C313 0.931 . S
H331 C314 0.930 . S
H332 C323 0.929 . S
H333 C324 0.930 . S
H334 C325 0.931 . S
H335 C326 0.930 . S
H336 C348 0.930 . S
H337 C350 0.930 . S
H338 C351 0.930 . S
H339 C355 0.959 . S
H340 C355 0.959 . S
H341 C355 0.961 . S
H342 C356 0.960 . S
H343 C356 0.961 . S
H344 C356 0.959 . S
H345 C359 0.929 . S
H346 C360 0.931 . S
H347 C362 0.930 . S
C348 H336 0.930 . S
C348 C349 1.399 1_554 S
C348 C353 1.399 . S
C349 C348 1.399 1_556 S
C349 C350 1.376 . S
C350 H337 0.930 . S
C350 C349 1.376 . S
C350 C351 1.388 . S
C351 H338 0.930 . S
C351 C350 1.388 . S
C351 C352 1.390 . S
C352 C351 1.390 . S
C352 C353 1.394 1_556 S
C352 C358 1.465 . S
C353 C348 1.399 . S
C353 C352 1.394 1_554 S
C353 C354 1.516 . S
C354 C353 1.516 . S
C354 C355 1.502 . S
C354 C356 1.561 . S
C354 C357 1.526 . S
C355 H339 0.959 . S
C355 H340 0.959 . S
C355 H341 0.961 . S
C355 C354 1.502 . S
C356 H342 0.960 . S
C356 H343 0.961 . S
C356 H344 0.959 . S
C356 C354 1.561 . S
C357 C354 1.526 . S
C357 C358 1.396 1_554 S
C357 C362 1.390 . S
C358 C352 1.465 . S
C358 C357 1.396 1_556 S
C358 C359 1.399 . S
C359 H345 0.929 . S
C359 C358 1.399 . S
C359 C360 1.385 . S
C360 H346 0.931 . S
C360 C359 1.385 . S
C360 C361 1.389 . S
C361 C360 1.389 . S
C361 C362 1.387 1_556 S
C362 H347 0.930 . S
C362 C357 1.390 . S
C362 C361 1.387 1_554 S
H363 C375 0.930 . S
H364 C377 0.930 . S
H365 C378 0.930 . S
H366 C382 0.959 . S
H367 C382 0.959 . S
H368 C382 0.961 . S
H369 C383 0.960 . S
H370 C383 0.961 . S
H371 C383 0.959 . S
H372 C386 0.929 . S
H373 C387 0.931 . S
H374 C389 0.930 . S
C375 H363 0.930 . S
C375 C376 1.399 . S
C375 C380 1.399 . S
C376 C375 1.399 . S
C376 C377 1.376 . S
C377 H364 0.930 . S
C377 C376 1.376 . S
C377 C378 1.388 . S
C378 H365 0.930 . S
C378 C377 1.388 . S
C378 C379 1.390 . S
C379 C378 1.390 . S
C379 C380 1.394 . S
C379 C385 1.465 . S
C380 C375 1.399 . S
C380 C379 1.394 . S
C380 C381 1.516 . S
C381 C380 1.516 . S
C381 C382 1.502 . S
C381 C383 1.561 . S
C381 C384 1.526 . S
C382 H366 0.959 . S
C382 H367 0.959 . S
C382 H368 0.961 . S
C382 C381 1.502 . S
C383 H369 0.960 . S
C383 H370 0.961 . S
C383 H371 0.959 . S
C383 C381 1.561 . S
C384 C381 1.526 . S
C384 C385 1.396 . S
C384 C389 1.390 . S
C385 C379 1.465 . S
C385 C384 1.396 . S
C385 C386 1.399 . S
C386 H372 0.929 . S
C386 C385 1.399 . S
C386 C387 1.385 . S
C387 H373 0.931 . S
C387 C386 1.385 . S
C387 C388 1.389 . S
C388 C387 1.389 . S
C388 C389 1.387 . S
C389 H374 0.930 . S
C389 C384 1.390 . S
C389 C388 1.387 . S
H390 C402 0.930 . S
H391 C404 0.930 . S
H392 C405 0.930 1_565 S
H393 C409 0.959 1_565 S
H394 C409 0.959 1_655 S
H395 C409 0.961 . S
H396 C410 0.960 . S
H397 C410 0.961 . S
H398 C410 0.959 . S
H399 C413 0.929 . S
H400 C414 0.931 . S
H401 C416 0.930 . S
C402 H390 0.930 . S
C402 C403 1.399 1_554 S
C402 C407 1.399 . S
C403 C402 1.399 1_556 S
C403 C404 1.376 . S
C404 H391 0.930 . S
C404 C403 1.376 . S
C404 C405 1.388 . S
C405 H392 0.930 1_545 S
C405 C404 1.388 . S
C405 C406 1.390 . S
C406 C405 1.390 . S
C406 C407 1.394 1_556 S
C406 C412 1.465 1_445 S
C407 C402 1.399 . S
C407 C406 1.394 1_554 S
C407 C408 1.516 1_455 S
C408 C407 1.516 1_655 S
C408 C409 1.502 1_655 S
C408 C410 1.561 . S
C408 C411 1.526 1_545 S
C409 H393 0.959 1_545 S
C409 H394 0.959 1_455 S
C409 H395 0.961 . S
C409 C408 1.502 1_455 S
C410 H396 0.960 . S
C410 H397 0.961 . S
C410 H398 0.959 . S
C410 C408 1.561 . S
C411 C408 1.526 1_565 S
C411 C412 1.396 1_554 S
C411 C416 1.390 . S
C412 C406 1.465 1_665 S
C412 C411 1.396 1_556 S
C412 C413 1.399 . S
C413 H399 0.929 . S
C413 C412 1.399 . S
C413 C414 1.385 . S
C414 H400 0.931 . S
C414 C413 1.385 . S
C414 C415 1.389 . S
C415 C414 1.389 . S
C415 C416 1.387 1_556 S
C416 H401 0.930 . S
C416 C411 1.390 . S
C416 C415 1.387 1_554 S
H417 C429 0.930 . S
H418 C431 0.930 . S
H419 C432 0.930 . S
H420 C436 0.959 . S
H421 C436 0.959 . S
H422 C436 0.961 . S
H423 C437 0.960 . S
H424 C437 0.961 . S
H425 C437 0.959 . S
H426 C440 0.929 . S
H427 C441 0.931 . S
H428 C443 0.930 . S
C429 H417 0.930 . S
C429 C430 1.399 . S
C429 C434 1.399 . S
C430 C429 1.399 . S
C430 C431 1.376 . S
C431 H418 0.930 . S
C431 C430 1.376 . S
C431 C432 1.388 1_655 S
C432 H419 0.930 . S
C432 C431 1.388 1_455 S
C432 C433 1.390 1_455 S
C433 C432 1.390 1_655 S
C433 C434 1.397 . S
C433 C439 1.462 1_645 S
C434 C429 1.399 . S
C434 C433 1.397 . S
C434 C435 1.516 1_545 S
C435 C434 1.516 1_565 S
C435 C436 1.502 . S
C435 C437 1.561 . S
C435 C438 1.526 1_655 S
C436 H420 0.959 . S
C436 H421 0.959 . S
C436 H422 0.961 . S
C436 C435 1.502 . S
C437 H423 0.960 . S
C437 H424 0.961 . S
C437 H425 0.959 . S
C437 C435 1.561 . S
C438 C435 1.526 1_455 S
C438 C439 1.396 . S
C438 C443 1.390 . S
C439 C433 1.462 1_465 S
C439 C438 1.396 . S
C439 C440 1.399 1_565 S
C440 H426 0.929 . S
C440 C439 1.399 1_545 S
C440 C441 1.385 1_545 S
C441 H427 0.931 . S
C441 C440 1.385 1_565 S
C441 C442 1.389 . S
C442 C441 1.389 . S
C442 C443 1.387 . S
C443 H428 0.930 . S
C443 C438 1.390 . S
C443 C442 1.387 . S
H444 C456 0.930 . S
H445 C458 0.930 . S
H446 C459 0.930 . S
H447 C463 0.959 . S
H448 C463 0.959 . S
H449 C463 0.961 . S
H450 C464 0.960 . S
H451 C464 0.961 . S
H452 C464 0.959 . S
H453 C467 0.929 . S
H454 C468 0.931 . S
H455 C470 0.930 . S
C456 H444 0.930 . S
C456 C457 1.399 . S
C456 C461 1.399 . S
C457 C456 1.399 . S
C457 C458 1.376 . S
C458 H445 0.930 . S
C458 C457 1.376 . S
C458 C459 1.388 . S
C459 H446 0.930 . S
C459 C458 1.388 . S
C459 C460 1.390 . S
C460 C459 1.390 . S
C460 C461 1.394 . S
C460 C466 1.465 . S
C461 C456 1.399 . S
C461 C460 1.394 . S
C461 C462 1.516 . S
C462 C461 1.516 . S
C462 C463 1.502 . S
C462 C464 1.561 . S
C462 C465 1.526 . S
C463 H447 0.959 . S
C463 H448 0.959 . S
C463 H449 0.961 . S
C463 C462 1.502 . S
C464 H450 0.960 . S
C464 H451 0.961 . S
C464 H452 0.959 . S
C464 C462 1.561 . S
C465 C462 1.526 . S
C465 C466 1.396 . S
C465 C470 1.390 . S
C466 C460 1.465 . S
C466 C465 1.396 . S
C466 C467 1.399 . S
C467 H453 0.929 . S
C467 C466 1.399 . S
C467 C468 1.385 . S
C468 H454 0.931 . S
C468 C467 1.385 . S
C468 C469 1.389 . S
C469 C468 1.389 . S
C469 C470 1.387 . S
C470 H455 0.930 . S
C470 C465 1.390 . S
C470 C469 1.387 . S
H471 C483 0.930 . S
H472 C485 0.930 . S
H473 C486 0.930 . S
H474 C490 0.959 . S
H475 C490 0.959 . S
H476 C490 0.961 . S
H477 C491 0.960 . S
H478 C491 0.961 . S
H479 C491 0.959 . S
H480 C494 0.929 . S
H481 C495 0.931 . S
H482 C497 0.930 . S
C483 H471 0.930 . S
C483 C484 1.399 . S
C483 C488 1.399 . S
C484 C483 1.399 . S
C484 C485 1.376 . S
C485 H472 0.930 . S
C485 C484 1.376 . S
C485 C486 1.388 . S
C486 H473 0.930 . S
C486 C485 1.388 . S
C486 C487 1.390 . S
C487 C486 1.390 . S
C487 C488 1.394 . S
C487 C493 1.465 . S
C488 C483 1.399 . S
C488 C487 1.394 . S
C488 C489 1.516 . S
C489 C488 1.516 . S
C489 C490 1.502 . S
C489 C491 1.561 . S
C489 C492 1.526 . S
C490 H474 0.959 . S
C490 H475 0.959 . S
C490 H476 0.961 . S
C490 C489 1.502 . S
C491 H477 0.960 . S
C491 H478 0.961 . S
C491 H479 0.959 . S
C491 C489 1.561 . S
C492 C489 1.526 . S
C492 C493 1.396 . S
C492 C497 1.390 . S
C493 C487 1.465 . S
C493 C492 1.396 . S
C493 C494 1.399 . S
C494 H480 0.929 . S
C494 C493 1.399 . S
C494 C495 1.385 . S
C495 H481 0.931 . S
C495 C494 1.385 . S
C495 C496 1.389 . S
C496 C495 1.389 . S
C496 C497 1.387 . S
C497 H482 0.930 . S
C497 C492 1.390 . S
C497 C496 1.387 . S
H498 C510 0.930 . S
H499 C512 0.930 . S
H500 C513 0.930 . S
H501 C517 0.959 . S
H502 C517 0.959 . S
H503 C517 0.961 . S
H504 C518 0.960 . S
H505 C518 0.961 . S
H506 C518 0.959 . S
H507 C521 0.929 . S
H508 C522 0.931 . S
H509 C524 0.930 . S
C510 H498 0.930 . S
C510 C511 1.399 . S
C510 C515 1.399 . S
C511 C510 1.399 . S
C511 C512 1.376 . S
C512 H499 0.930 . S
C512 C511 1.376 . S
C512 C513 1.388 . S
C513 H500 0.930 . S
C513 C512 1.388 . S
C513 C514 1.390 . S
C514 C513 1.390 . S
C514 C515 1.394 . S
C514 C520 1.465 . S
C515 C510 1.399 . S
C515 C514 1.394 . S
C515 C516 1.516 . S
C516 C515 1.516 . S
C516 C517 1.502 . S
C516 C518 1.561 . S
C516 C519 1.526 . S
C517 H501 0.959 . S
C517 H502 0.959 . S
C517 H503 0.961 . S
C517 C516 1.502 . S
C518 H504 0.960 . S
C518 H505 0.961 . S
C518 H506 0.959 . S
C518 C516 1.561 . S
C519 C516 1.526 . S
C519 C520 1.396 . S
C519 C524 1.390 . S
C520 C514 1.465 . S
C520 C519 1.396 . S
C520 C521 1.399 . S
C521 H507 0.929 . S
C521 C520 1.399 . S
C521 C522 1.385 . S
C522 H508 0.931 . S
C522 C521 1.385 . S
C522 C523 1.389 . S
C523 C522 1.389 . S
C523 C524 1.387 . S
C524 H509 0.930 . S
C524 C519 1.390 . S
C524 C523 1.387 . S
H525 C537 0.930 . S
H526 C539 0.930 . S
H527 C540 0.930 . S
H528 C544 0.959 . S
H529 C544 0.959 . S
H530 C544 0.961 . S
H531 C545 0.960 . S
H532 C545 0.961 . S
H533 C545 0.959 . S
H534 C548 0.929 . S
H535 C549 0.931 . S
H536 C551 0.930 . S
C537 H525 0.930 . S
C537 C538 1.399 . S
C537 C542 1.399 . S
C538 C537 1.399 . S
C538 C539 1.376 . S
C539 H526 0.930 . S
C539 C538 1.376 . S
C539 C540 1.388 . S
C540 H527 0.930 . S
C540 C539 1.388 . S
C540 C541 1.390 . S
C541 C540 1.390 . S
C541 C542 1.394 . S
C541 C547 1.465 . S
C542 C537 1.399 . S
C542 C541 1.394 . S
C542 C543 1.516 . S
C543 C542 1.516 . S
C543 C544 1.502 . S
C543 C545 1.561 . S
C543 C546 1.526 . S
C544 H528 0.959 . S
C544 H529 0.959 . S
C544 H530 0.961 . S
C544 C543 1.502 . S
C545 H531 0.960 . S
C545 H532 0.961 . S
C545 H533 0.959 . S
C545 C543 1.561 . S
C546 C543 1.526 . S
C546 C547 1.396 . S
C546 C551 1.390 . S
C547 C541 1.465 . S
C547 C546 1.396 . S
C547 C548 1.399 . S
C548 H534 0.929 . S
C548 C547 1.399 . S
C548 C549 1.385 . S
C549 H535 0.931 . S
C549 C548 1.385 . S
C549 C550 1.389 . S
C550 C549 1.389 . S
C550 C551 1.387 . S
C551 H536 0.930 . S
C551 C546 1.390 . S
C551 C550 1.387 . S
H552 C564 0.930 . S
H553 C566 0.930 . S
H554 C567 0.930 . S
H555 C571 0.959 . S
H556 C571 0.959 . S
H557 C571 0.961 . S
H558 C572 0.960 . S
H559 C572 0.961 . S
H560 C572 0.959 1_455 S
H561 C575 0.929 . S
H562 C576 0.931 . S
H563 C578 0.930 . S
C564 H552 0.930 . S
C564 C565 1.399 . S
C564 C569 1.399 . S
C565 C564 1.399 . S
C565 C566 1.376 . S
C566 H553 0.930 . S
C566 C565 1.376 . S
C566 C567 1.388 . S
C567 H554 0.930 . S
C567 C566 1.388 . S
C567 C568 1.390 . S
C568 C567 1.390 . S
C568 C569 1.394 . S
C568 C574 1.465 . S
C569 C564 1.399 . S
C569 C568 1.394 . S
C569 C570 1.516 . S
C570 C569 1.516 . S
C570 C571 1.502 . S
C570 C572 1.561 . S
C570 C573 1.526 . S
C571 H555 0.959 . S
C571 H556 0.959 . S
C571 H557 0.961 . S
C571 C570 1.502 . S
C572 H558 0.960 . S
C572 H559 0.961 . S
C572 H560 0.959 1_655 S
C572 C570 1.561 . S
C573 C570 1.526 . S
C573 C574 1.396 . S
C573 C578 1.390 . S
C574 C568 1.465 . S
C574 C573 1.396 . S
C574 C575 1.399 . S
C575 H561 0.929 . S
C575 C574 1.399 . S
C575 C576 1.385 1_655 S
C576 H562 0.931 . S
C576 C575 1.385 1_455 S
C576 C577 1.389 . S
C577 C576 1.389 . S
C577 C578 1.387 1_455 S
C578 H563 0.930 . S
C578 C573 1.390 . S
C578 C577 1.387 1_655 S
H579 C591 0.930 . S
H580 C593 0.930 . S
H581 C594 0.930 . S
H582 C598 0.959 . S
H583 C598 0.959 . S
H584 C598 0.961 . S
H585 C599 0.960 . S
H586 C599 0.961 . S
H587 C599 0.959 . S
H588 C602 0.929 . S
H589 C603 0.931 . S
H590 C605 0.930 . S
C591 H579 0.930 . S
C591 C592 1.399 . S
C591 C596 1.399 . S
C592 C591 1.399 . S
C592 C593 1.376 . S
C593 H580 0.930 . S
C593 C592 1.376 . S
C593 C594 1.388 . S
C594 H581 0.930 . S
C594 C593 1.388 . S
C594 C595 1.390 . S
C595 C594 1.390 . S
C595 C596 1.394 . S
C595 C601 1.465 . S
C596 C591 1.399 . S
C596 C595 1.394 . S
C596 C597 1.516 . S
C597 C596 1.516 . S
C597 C598 1.502 . S
C597 C599 1.561 . S
C597 C600 1.526 . S
C598 H582 0.959 . S
C598 H583 0.959 . S
C598 H584 0.961 . S
C598 C597 1.502 . S
C599 H585 0.960 . S
C599 H586 0.961 . S
C599 H587 0.959 . S
C599 C597 1.561 . S
C600 C597 1.526 . S
C600 C601 1.396 . S
C600 C605 1.390 . S
C601 C595 1.465 . S
C601 C600 1.396 . S
C601 C602 1.399 1_655 S
C602 H588 0.929 . S
C602 C601 1.399 1_455 S
C602 C603 1.385 . S
C603 H589 0.931 . S
C603 C602 1.385 . S
C603 C604 1.389 . S
C604 C603 1.389 . S
C604 C605 1.387 1_455 S
C605 H590 0.930 . S
C605 C600 1.390 . S
C605 C604 1.387 1_655 S
H606 C618 0.930 . S
H607 C620 0.930 . S
H608 C621 0.930 1_655 S
H609 C625 0.959 . S
H610 C625 0.959 . S
H611 C625 0.961 . S
H612 C626 0.960 . S
H613 C626 0.961 . S
H614 C626 0.947 1_655 S
H615 C629 0.929 . S
H616 C630 0.931 . S
H617 C632 0.930 . S
C618 H606 0.930 . S
C618 C619 1.399 1_455 S
C618 C623 1.399 . S
C619 C618 1.399 1_655 S
C619 C620 1.376 . S
C620 H607 0.930 . S
C620 C619 1.376 . S
C620 C621 1.388 1_655 S
C621 H608 0.930 1_455 S
C621 C620 1.388 1_455 S
C621 C622 1.390 . S
C622 C621 1.390 . S
C622 C623 1.394 . S
C622 C628 1.465 . S
C623 C618 1.399 . S
C623 C622 1.394 . S
C623 C624 1.516 . S
C624 C623 1.516 . S
C624 C625 1.502 . S
C624 C626 1.561 . S
C624 C627 1.526 . S
C625 H609 0.959 . S
C625 H610 0.959 . S
C625 H611 0.961 . S
C625 C624 1.502 . S
C626 H612 0.960 . S
C626 H613 0.961 . S
C626 H614 0.947 1_455 S
C626 C624 1.561 . S
C627 C624 1.526 . S
C627 C628 1.396 . S
C627 C632 1.390 . S
C628 C622 1.465 . S
C628 C627 1.396 . S
C628 C629 1.399 . S
C629 H615 0.929 . S
C629 C628 1.399 . S
C629 C630 1.385 . S
C630 H616 0.931 . S
C630 C629 1.385 . S
C630 C631 1.389 . S
C631 C630 1.389 . S
C631 C632 1.387 . S
C632 H617 0.930 . S
C632 C627 1.390 . S
C632 C631 1.387 . S
H633 C645 0.930 . S
H634 C647 0.930 . S
H635 C648 0.930 . S
H636 C652 0.959 . S
H637 C652 0.959 . S
H638 C652 0.961 . S
H639 C653 0.960 . S
H640 C653 0.961 . S
H641 C653 0.959 . S
H642 C656 0.929 . S
H643 C657 0.931 . S
H644 C659 0.930 . S
C645 H633 0.930 . S
C645 C646 1.399 . S
C645 C650 1.399 . S
C646 C645 1.399 . S
C646 C647 1.376 . S
C647 H634 0.930 . S
C647 C646 1.376 . S
C647 C648 1.388 . S
C648 H635 0.930 . S
C648 C647 1.388 . S
C648 C649 1.390 . S
C649 C648 1.390 . S
C649 C650 1.394 . S
C649 C655 1.465 . S
C650 C645 1.399 . S
C650 C649 1.394 . S
C650 C651 1.516 . S
C651 C650 1.516 . S
C651 C652 1.502 . S
C651 C653 1.561 . S
C651 C654 1.526 . S
C652 H636 0.959 . S
C652 H637 0.959 . S
C652 H638 0.961 . S
C652 C651 1.502 . S
C653 H639 0.960 . S
C653 H640 0.961 . S
C653 H641 0.959 . S
C653 C651 1.561 . S
C654 C651 1.526 . S
C654 C655 1.396 . S
C654 C659 1.390 . S
C655 C649 1.465 . S
C655 C654 1.396 . S
C655 C656 1.399 . S
C656 H642 0.929 . S
C656 C655 1.399 . S
C656 C657 1.385 1_455 S
C657 H643 0.931 . S
C657 C656 1.385 1_655 S
C657 C658 1.389 . S
C658 C657 1.389 . S
C658 C659 1.387 1_655 S
C659 H644 0.930 . S
C659 C654 1.390 . S
C659 C658 1.387 1_455 S
C349 C140 1.481 . S
C361 C68 1.525 1_556 S
C376 C236 1.503 . S
C388 C308 1.513 . S
C403 C56 1.481 . S
C415 C152 1.525 1_556 S
C430 C320 1.488 . S
C442 C224 1.515 . S
C457 C322 1.286 . S
C469 C67 1.304 . S
C484 C154 1.177 . S
C496 C235 1.308 . S
C511 C139 1.318 . S
C523 C226 1.176 . S
C538 C307 1.321 . S
C550 C58 1.182 . S
C565 C151 1.325 . S
C577 C238 1.273 . S
C592 C319 1.327 . S
C604 C70 1.258 . S
C619 C310 1.257 . S
C631 C55 1.325 . S
C646 C223 1.314 . S
C658 C142 1.281 . S
