# Generated by pormake.
# Topology upc, (4)-cn, num edge types: 1
# Building blocks:
#     Node 0, Type 0, BuildingBlock: QUQFOY_clean_sbu_3, # of connection points: 4
#     Node 1, Type 0, BuildingBlock: QUQFOY_clean_sbu_3, # of connection points: 4
#     Node 2, Type 0, BuildingBlock: QUQFOY_clean_sbu_3, # of connection points: 4
#     Node 3, Type 0, BuildingBlock: QUQFOY_clean_sbu_3, # of connection points: 4
#     Node 4, Type 0, BuildingBlock: QUQFOY_clean_sbu_3, # of connection points: 4
#     Node 5, Type 0, BuildingBlock: QUQFOY_clean_sbu_3, # of connection points: 4
#     Node 6, Type 0, BuildingBlock: QUQFOY_clean_sbu_3, # of connection points: 4
#     Node 7, Type 0, BuildingBlock: QUQFOY_clean_sbu_3, # of connection points: 4
#     Node 8, Type 0, BuildingBlock: QUQFOY_clean_sbu_3, # of connection points: 4
#     Node 9, Type 0, BuildingBlock: QUQFOY_clean_sbu_3, # of connection points: 4
#     Node 10, Type 0, BuildingBlock: QUQFOY_clean_sbu_3, # of connection points: 4
#     Node 11, Type 0, BuildingBlock: QUQFOY_clean_sbu_3, # of connection points: 4
#     Node 12, Type 0, BuildingBlock: QUQFOY_clean_sbu_3, # of connection points: 4
#     Node 13, Type 0, BuildingBlock: QUQFOY_clean_sbu_3, # of connection points: 4
#     Node 14, Type 0, BuildingBlock: QUQFOY_clean_sbu_3, # of connection points: 4
#     Node 15, Type 0, BuildingBlock: QUQFOY_clean_sbu_3, # of connection points: 4
#     Edge 16, Type (0, 0), BuildingBlock: XUDNAN_clean_linker_2, # of connection points: 2
#     Edge 17, Type (0, 0), BuildingBlock: XUDNAN_clean_linker_2, # of connection points: 2
#     Edge 18, Type (0, 0), BuildingBlock: XUDNAN_clean_linker_2, # of connection points: 2
#     Edge 19, Type (0, 0), BuildingBlock: XUDNAN_clean_linker_2, # of connection points: 2
#     Edge 20, Type (0, 0), BuildingBlock: XUDNAN_clean_linker_2, # of connection points: 2
#     Edge 21, Type (0, 0), BuildingBlock: XUDNAN_clean_linker_2, # of connection points: 2
#     Edge 22, Type (0, 0), BuildingBlock: XUDNAN_clean_linker_2, # of connection points: 2
#     Edge 23, Type (0, 0), BuildingBlock: XUDNAN_clean_linker_2, # of connection points: 2
#     Edge 24, Type (0, 0), BuildingBlock: XUDNAN_clean_linker_2, # of connection points: 2
#     Edge 25, Type (0, 0), BuildingBlock: XUDNAN_clean_linker_2, # of connection points: 2
#     Edge 26, Type (0, 0), BuildingBlock: XUDNAN_clean_linker_2, # of connection points: 2
#     Edge 27, Type (0, 0), BuildingBlock: XUDNAN_clean_linker_2, # of connection points: 2
#     Edge 28, Type (0, 0), BuildingBlock: XUDNAN_clean_linker_2, # of connection points: 2
#     Edge 29, Type (0, 0), BuildingBlock: XUDNAN_clean_linker_2, # of connection points: 2
#     Edge 30, Type (0, 0), BuildingBlock: XUDNAN_clean_linker_2, # of connection points: 2
#     Edge 31, Type (0, 0), BuildingBlock: XUDNAN_clean_linker_2, # of connection points: 2
#     Edge 32, Type (0, 0), BuildingBlock: XUDNAN_clean_linker_2, # of connection points: 2
#     Edge 33, Type (0, 0), BuildingBlock: XUDNAN_clean_linker_2, # of connection points: 2
#     Edge 34, Type (0, 0), BuildingBlock: XUDNAN_clean_linker_2, # of connection points: 2
#     Edge 35, Type (0, 0), BuildingBlock: XUDNAN_clean_linker_2, # of connection points: 2
#     Edge 36, Type (0, 0), BuildingBlock: XUDNAN_clean_linker_2, # of connection points: 2
#     Edge 37, Type (0, 0), BuildingBlock: XUDNAN_clean_linker_2, # of connection points: 2
#     Edge 38, Type (0, 0), BuildingBlock: XUDNAN_clean_linker_2, # of connection points: 2
#     Edge 39, Type (0, 0), BuildingBlock: XUDNAN_clean_linker_2, # of connection points: 2
#     Edge 40, Type (0, 0), BuildingBlock: XUDNAN_clean_linker_2, # of connection points: 2
#     Edge 41, Type (0, 0), BuildingBlock: XUDNAN_clean_linker_2, # of connection points: 2
#     Edge 42, Type (0, 0), BuildingBlock: XUDNAN_clean_linker_2, # of connection points: 2
#     Edge 43, Type (0, 0), BuildingBlock: XUDNAN_clean_linker_2, # of connection points: 2
#     Edge 44, Type (0, 0), BuildingBlock: XUDNAN_clean_linker_2, # of connection points: 2
#     Edge 45, Type (0, 0), BuildingBlock: XUDNAN_clean_linker_2, # of connection points: 2
#     Edge 46, Type (0, 0), BuildingBlock: XUDNAN_clean_linker_2, # of connection points: 2
#     Edge 47, Type (0, 0), BuildingBlock: XUDNAN_clean_linker_2, # of connection points: 2
# Relax obj value: 0.244
# Max RMSD: 0.293
# Mean RMSD: 0.293
data_MOF--net-upc--node1-QUQFOY_clean_sbu_3--edge1-XUDNAN_clean_linker_2
_symmetry_space_group_name_H-M    P1
_symmetry_Int_Tables_number       1
_symmetry_cell_setting            triclinic
loop_
_symmetry_equiv_pos_as_xyz
'x, y, z'
_cell_length_a     34.203308
_cell_length_b     34.00919
_cell_length_c     44.542357
_cell_angle_alpha  89.929396
_cell_angle_beta   89.967868
_cell_angle_gamma 90.059671
loop_
_atom_site_label
_atom_site_type_symbol
_atom_site_fract_x
_atom_site_fract_y
_atom_site_fract_z
_atom_type_partial_charge
C0 C 0.12663 0.67111 0.12389 0.0
O1 O 0.12669 0.65226 0.14848 0.0
Cd2 Cd 0.06765 0.6269 0.17031 0.0
O3 O 0.09659 0.67123 0.10712 0.0
Cd4 Cd 0.03361 0.63661 0.10279 0.0
C5 C 0.0026 0.70281 0.14851 0.0
O6 O 0.03442 0.58279 0.13938 0.0
O7 O 0.97815 0.60398 0.12529 0.0
O8 O 0.05563 0.59896 0.06224 0.0
C9 C -0.00248 0.58203 0.14281 0.0
O10 O 0.02308 0.68229 0.16661 0.0
C11 C 0.02752 0.60798 0.04498 0.0
O12 O 0.00093 0.69517 0.1206 0.0
O13 O 0.00403 0.63471 0.05348 0.0
C14 C 0.81064 0.11862 0.1227 0.0
O15 O 0.80907 0.10481 0.14923 0.0
Cd16 Cd 0.8356 0.04319 0.16784 0.0
O17 O 0.82431 0.098 0.10135 0.0
Cd18 Cd 0.84178 0.02829 0.10205 0.0
C19 C 0.77095 0.99422 0.13964 0.0
O20 O 0.89362 0.0373 0.14052 0.0
O21 O 0.87966 0.97755 0.12936 0.0
O22 O 0.87585 0.04394 0.05654 0.0
C23 C 0.90219 0.00129 0.14283 0.0
O24 O 0.80347 0.9834 0.15009 0.0
C25 C 0.87005 0.01065 0.04443 0.0
O26 O 0.77245 0.01583 0.11645 0.0
O27 O 0.84693 0.98717 0.05787 0.0
C28 C 0.35042 0.8412 0.11613 0.0
O29 O 0.35657 0.86239 0.13915 0.0
Cd30 Cd 0.414 0.84864 0.16634 0.0
O31 O 0.379 0.82534 0.10211 0.0
Cd32 Cd 0.45276 0.83588 0.10151 0.0
C33 C 0.45853 0.7702 0.14102 0.0
O34 O 0.46325 0.88514 0.14224 0.0
O35 O 0.51156 0.84745 0.1304 0.0
O36 O 0.45054 0.89096 0.0705 0.0
C37 C 0.4985 0.87505 0.14663 0.0
O38 O 0.42576 0.78738 0.14066 0.0
C39 C 0.46943 0.87688 0.04861 0.0
O40 O 0.4763 0.76889 0.11603 0.0
O41 O 0.47963 0.84092 0.04989 0.0
C42 C 0.67058 0.36959 0.12342 0.0
O43 O 0.6509 0.36984 0.14767 0.0
Cd44 Cd 0.62743 0.42766 0.17034 0.0
O45 O 0.67292 0.4002 0.10675 0.0
Cd46 Cd 0.64524 0.46873 0.10011 0.0
C47 C 0.70713 0.48649 0.14189 0.0
O48 O 0.58926 0.45898 0.13437 0.0
O49 O 0.60969 0.51849 0.13034 0.0
O50 O 0.61623 0.43618 0.05875 0.0
C51 C 0.58538 0.49464 0.14182 0.0
O52 O 0.67767 0.46613 0.14883 0.0
C53 C 0.61053 0.46677 0.04315 0.0
O54 O 0.70946 0.49936 0.11518 0.0
O55 O 0.62609 0.49857 0.05239 0.0
C56 C 0.12369 0.81073 0.37729 0.0
O57 O 0.13168 0.83443 0.35613 0.0
Cd58 Cd 0.07936 0.83393 0.32081 0.0
O59 O 0.08814 0.80494 0.38488 0.0
Cd60 Cd 0.0237 0.83933 0.37752 0.0
C61 C 0.00846 0.76996 0.33911 0.0
O62 O 0.0416 0.88689 0.33843 0.0
O63 O 0.98001 0.8745 0.34241 0.0
O64 O 0.04063 0.88379 0.41556 0.0
C65 C 0.00718 0.89282 0.32899 0.0
O66 O 0.04464 0.77728 0.34162 0.0
C67 C 0.01037 0.87837 0.43142 0.0
O68 O 0.98681 0.7813 0.3605 0.0
O69 O 0.98629 0.85202 0.42308 0.0
C70 C 0.66083 0.12802 0.35757 0.0
O71 O 0.64056 0.12725 0.33368 0.0
Cd72 Cd 0.6279 0.06563 0.30935 0.0
O73 O 0.66716 0.09674 0.37242 0.0
Cd74 Cd 0.6451 0.02847 0.37606 0.0
C75 C 0.71739 0.02059 0.33229 0.0
O76 O 0.59331 0.02039 0.33838 0.0
O77 O 0.62496 0.96859 0.35254 0.0
O78 O 0.60446 0.06185 0.4086 0.0
C79 C 0.59975 0.98378 0.33516 0.0
O80 O 0.69112 0.03658 0.31614 0.0
C81 C 0.60222 0.03511 0.42835 0.0
O82 O 0.71175 0.01313 0.36002 0.0
O83 O 0.62568 0.006 0.42623 0.0
C84 C 0.35972 0.6634 0.35331 0.0
O85 O 0.36565 0.64906 0.32743 0.0
Cd86 Cd 0.4258 0.62738 0.30735 0.0
O87 O 0.38733 0.6658 0.37246 0.0
Cd88 Cd 0.45665 0.64175 0.37526 0.0
C89 C 0.49046 0.7042 0.32708 0.0
O90 O 0.44969 0.58398 0.3432 0.0
O91 O 0.50835 0.60423 0.34934 0.0
O92 O 0.43326 0.61581 0.42218 0.0
C93 C 0.48557 0.57946 0.33737 0.0
O94 O 0.47204 0.68138 0.30937 0.0
C95 C 0.46614 0.61654 0.43519 0.0
O96 O 0.48757 0.70104 0.35548 0.0
O97 O 0.49425 0.63272 0.42122 0.0
C98 C 0.83168 0.35641 0.3632 0.0
O99 O 0.84912 0.35828 0.33807 0.0
Cd100 Cd 0.86875 0.41784 0.31441 0.0
O101 O 0.82862 0.3865 0.38 0.0
Cd102 Cd 0.85168 0.4555 0.38119 0.0
C103 C 0.78254 0.47017 0.33433 0.0
O104 O 0.90643 0.45845 0.34491 0.0
O105 O 0.87509 0.51197 0.35459 0.0
O106 O 0.88873 0.442 0.42528 0.0
C107 C 0.90186 0.495 0.33988 0.0
O108 O 0.80773 0.4525 0.31816 0.0
C109 C 0.87894 0.4733 0.43882 0.0
O110 O 0.78813 0.47603 0.36221 0.0
O111 O 0.85239 0.49423 0.42684 0.0
C112 C 0.86704 0.30938 0.86224 0.0
O113 O 0.86386 0.32554 0.83666 0.0
Cd114 Cd 0.91851 0.34558 0.80801 0.0
O115 O 0.89959 0.30897 0.8761 0.0
Cd116 Cd 0.96458 0.34093 0.87363 0.0
C117 C 0.98777 0.2713 0.82884 0.0
O118 O 0.95038 0.39187 0.83731 0.0
O119 O 0.01116 0.383 0.84596 0.0
O120 O 0.93289 0.36992 0.91455 0.0
C121 C 0.98531 0.40052 0.83062 0.0
O122 O 0.96348 0.29081 0.81308 0.0
C123 C 0.9637 0.37672 0.92936 0.0
O124 O -0.00365 0.28146 0.85553 0.0
O125 O -0.00476 0.36063 0.92039 0.0
C126 C 0.15306 0.86132 0.85789 0.0
O127 O 0.12597 0.86243 0.83836 0.0
Cd128 Cd 0.11133 0.92276 0.81491 0.0
O129 O 0.16316 0.89221 0.87233 0.0
Cd130 Cd 0.1412 0.96283 0.88145 0.0
C131 C 0.2044 0.96638 0.83754 0.0
O132 O 0.08272 0.96292 0.84978 0.0
O133 O 0.11384 0.0177 0.85117 0.0
O134 O 0.1131 0.93313 0.92439 0.0
C135 C 0.0857 -0.00206 0.84037 0.0
O136 O 0.17212 0.9513 0.82978 0.0
C137 C 0.1112 0.96407 0.94012 0.0
O138 O 0.20795 0.98023 0.86389 0.0
O139 O 0.12785 -0.00524 0.92977 0.0
C140 C 0.63161 0.15923 0.87201 0.0
O141 O 0.63483 0.14163 0.84694 0.0
Cd142 Cd 0.57946 0.13788 0.81513 0.0
O143 O 0.59827 0.16694 0.88349 0.0
Cd144 Cd 0.52735 0.14889 0.87915 0.0
C145 C 0.51793 0.20906 0.83617 0.0
O146 O 0.5375 0.09382 0.84166 0.0
O147 O 0.47894 0.11447 0.85064 0.0
O148 O 0.54204 0.11532 0.92499 0.0
C149 C 0.50101 0.09081 0.83686 0.0
O150 O 0.55135 0.19378 0.83895 0.0
C151 C 0.50696 0.11434 0.93401 0.0
O152 O 0.49844 0.21239 0.86019 0.0
O153 O 0.48245 0.13531 0.91986 0.0
C154 C 0.33318 0.63908 0.87793 0.0
O155 O 0.36943 0.63928 0.87227 0.0
Cd156 Cd 0.36433 0.58193 0.84137 0.0
O157 O 0.31518 0.60644 0.8766 0.0
Cd158 Cd 0.34686 0.53969 0.8739 0.0
C159 C 0.27394 0.54196 0.83497 0.0
O160 O 0.40471 0.52746 0.83788 0.0
O161 O 0.35666 0.48596 0.83995 0.0
O162 O 0.38681 0.55286 0.91615 0.0
C163 C 0.38976 0.49511 0.82919 0.0
O164 O 0.29938 0.56565 0.82458 0.0
C165 C 0.3768 0.52263 0.93105 0.0
O166 O 0.28119 0.52216 0.85851 0.0
O167 O 0.35004 0.50096 0.92001 0.0
C168 C 0.85626 0.17037 0.60391 0.0
O169 O 0.85561 0.14194 0.62222 0.0
Cd170 Cd 0.90682 0.16245 0.65474 0.0
O171 O 0.88938 0.18442 0.59631 0.0
Cd172 Cd 0.95862 0.1599 0.60309 0.0
C173 C 0.96619 0.23461 0.63309 0.0
O174 O 0.95228 0.11191 0.64462 0.0
O175 O 0.00815 0.14091 0.64133 0.0
O176 O 0.93123 0.11487 0.57055 0.0
C177 C 0.98718 0.11482 0.65371 0.0
O178 O 0.93086 0.22385 0.63112 0.0
C179 C 0.96143 0.10828 0.55502 0.0
O180 O 0.98762 0.22583 0.61083 0.0
O181 O 0.99134 0.12997 0.55943 0.0
C182 C 0.31246 0.85988 0.61289 0.0
O183 O 0.34135 0.85182 0.62956 0.0
Cd184 Cd 0.35509 0.90652 0.66174 0.0
O185 O 0.30522 0.89543 0.60599 0.0
Cd186 Cd 0.3438 0.95739 0.60641 0.0
C187 C 0.27226 0.96868 0.6479 0.0
O188 O 0.39919 0.95072 0.64088 0.0
O189 O 0.37014 0.00683 0.64022 0.0
O190 O 0.38314 0.93694 0.56614 0.0
C191 C 0.39698 0.98543 0.65114 0.0
O192 O 0.29455 0.94446 0.66156 0.0
C193 C 0.37692 0.96721 0.55018 0.0
O194 O 0.28146 0.98285 0.62247 0.0
O195 O 0.35196 0.99219 0.55946 0.0
C196 C 0.63049 0.34308 0.62169 0.0
O197 O 0.62287 0.36251 0.64529 0.0
Cd198 Cd 0.56139 0.37967 0.66598 0.0
O199 O 0.60361 0.33457 0.60298 0.0
Cd200 Cd 0.53331 0.35229 0.59764 0.0
C201 C 0.51123 0.29071 0.64961 0.0
O202 O 0.52282 0.41001 0.63047 0.0
O203 O 0.47284 0.37487 0.61913 0.0
O204 O 0.54655 0.38605 0.55169 0.0
C205 C 0.48668 0.4029 0.63446 0.0
O206 O 0.52571 0.31869 0.66505 0.0
C207 C 0.51531 0.37479 0.53897 0.0
O208 O 0.5132 0.29042 0.62103 0.0
O209 O 0.49622 0.34731 0.55162 0.0
C210 C 0.17208 0.6155 0.63193 0.0
O211 O 0.1679 0.6023 0.6585 0.0
Cd212 Cd 0.14849 0.53577 0.67298 0.0
O213 O 0.16683 0.59361 0.60917 0.0
Cd214 Cd 0.14792 0.52516 0.60071 0.0
C215 C 0.21528 0.48994 0.63878 0.0
O216 O 0.09615 0.5298 0.63987 0.0
O217 O 0.10649 0.47248 0.62131 0.0
O218 O 0.11905 0.55678 0.55844 0.0
C219 C 0.08649 0.49394 0.6388 0.0
O220 O 0.1817 0.48076 0.64825 0.0
C221 C 0.11845 0.52635 0.54202 0.0
O222 O 0.21632 0.50734 0.6136 0.0
O223 O 0.13578 0.49586 0.55186 0.0
H224 H 0.19195 0.67591 0.08698 0.0
H225 H 0.1238 0.73825 0.15379 0.0
H226 H 0.16821 0.79497 0.15003 0.0
H227 H 0.28325 0.70327 0.11348 0.0
H228 H 0.30651 0.7099 0.07748 0.0
H229 H 0.26576 0.67683 0.08106 0.0
H230 H 0.22968 0.71469 0.03895 0.0
H231 H 0.27021 0.7484 0.03565 0.0
H232 H 0.2217 0.76682 0.04271 0.0
H233 H 0.22009 0.84204 0.1427 0.0
H234 H 0.28456 0.87302 0.13987 0.0
H235 H 0.32424 0.78045 0.08 0.0
C236 C 0.18638 0.7019 0.10033 0.0
C237 C 0.15457 0.70334 0.12052 0.0
C238 C 0.14808 0.73712 0.13815 0.0
C239 C 0.17281 0.76955 0.13589 0.0
C240 C 0.2039 0.76771 0.11582 0.0
C241 C 0.21132 0.73472 0.09858 0.0
C242 C 0.24974 0.73924 0.08171 0.0
C243 C 0.27798 0.70531 0.0889 0.0
C244 C 0.24239 0.74247 0.04774 0.0
C245 C 0.26399 0.77825 0.09434 0.0
C246 C 0.23593 0.79485 0.11267 0.0
C247 C 0.24231 0.82964 0.12824 0.0
C248 C 0.27917 0.847 0.12649 0.0
C249 C 0.30967 0.82897 0.11 0.0
C250 C 0.30143 0.7951 0.09258 0.0
H251 H 0.76601 0.16313 0.16011 0.0
H252 H 0.8176 0.16277 0.07105 0.0
H253 H 0.78696 0.22732 0.06054 0.0
H254 H 0.6749 0.20383 0.13853 0.0
H255 H 0.6694 0.23232 0.17236 0.0
H256 H 0.69687 0.18721 0.17306 0.0
H257 H 0.75715 0.22427 0.19433 0.0
H258 H 0.72971 0.2694 0.19405 0.0
H259 H 0.77583 0.26663 0.17458 0.0
H260 H 0.74976 0.29291 0.06042 0.0
H261 H 0.70998 0.35231 0.07085 0.0
H262 H 0.68213 0.30587 0.15916 0.0
C263 C 0.77128 0.17669 0.13847 0.0
C264 C 0.79434 0.15802 0.11647 0.0
C265 C 0.80003 0.17662 0.08829 0.0
C266 C 0.78275 0.21324 0.0821 0.0
C267 C 0.75974 0.23059 0.10428 0.0
C268 C 0.75407 0.21278 0.13187 0.0
C269 C 0.72743 0.23662 0.15175 0.0
C270 C 0.68993 0.21362 0.15935 0.0
C271 C 0.74882 0.25002 0.18036 0.0
C272 C 0.719 0.2708 0.13117 0.0
C273 C 0.73787 0.26713 0.1039 0.0
C274 C 0.73479 0.29597 0.0817 0.0
C275 C 0.71214 0.32956 0.08779 0.0
C276 C 0.69278 0.33369 0.11576 0.0
C277 C 0.69618 0.30361 0.13744 0.0
H278 H 0.19449 0.8104 0.40733 0.0
H279 H 0.1153 0.73969 0.35394 0.0
H280 H 0.16563 0.68885 0.34859 0.0
H281 H 0.27737 0.79613 0.37061 0.0
H282 H 0.31055 0.78894 0.40158 0.0
H283 H 0.26632 0.81643 0.40705 0.0
H284 H 0.24599 0.76989 0.45027 0.0
H285 H 0.29049 0.74223 0.4452 0.0
H286 H 0.24383 0.71765 0.44382 0.0
H287 H 0.22589 0.65472 0.33895 0.0
H288 H 0.29327 0.63313 0.33022 0.0
H289 H 0.33546 0.72058 0.39336 0.0
C290 C 0.18751 0.78327 0.39581 0.0
C291 C 0.15103 0.77825 0.38151 0.0
C292 C 0.1428 0.74327 0.3657 0.0
C293 C 0.1712 0.7143 0.3625 0.0
C294 C 0.20728 0.72023 0.37612 0.0
C295 C 0.21536 0.75311 0.3933 0.0
C296 C 0.25765 0.75268 0.40375 0.0
C297 C 0.27921 0.79081 0.39519 0.0
C298 C 0.25961 0.74517 0.43778 0.0
C299 C 0.27294 0.7174 0.38646 0.0
C300 C 0.24289 0.69864 0.37145 0.0
C301 C 0.24958 0.66816 0.35135 0.0
C302 C 0.28804 0.65642 0.34629 0.0
C303 C 0.3195 0.67506 0.36123 0.0
C304 C 0.31181 0.7054 0.38211 0.0
H305 H 0.78676 0.3171 0.32396 0.0
H306 H 0.82163 0.319 0.41747 0.0
H307 H 0.77734 0.26247 0.42775 0.0
H308 H 0.68496 0.29656 0.33912 0.0
H309 H 0.67916 0.26676 0.30598 0.0
H310 H 0.71422 0.30633 0.30627 0.0
H311 H 0.76955 0.25781 0.29163 0.0
H312 H 0.73456 0.21833 0.29078 0.0
H313 H 0.7774 0.21442 0.31414 0.0
H314 H 0.73195 0.20297 0.42611 0.0
H315 H 0.68896 0.1469 0.41328 0.0
H316 H 0.68001 0.18997 0.32184 0.0
C317 C 0.78547 0.30523 0.34653 0.0
C318 C 0.80806 0.32147 0.36985 0.0
C319 C 0.80477 0.30631 0.39932 0.0
C320 C 0.77963 0.27451 0.40532 0.0
C321 C 0.75735 0.25939 0.38172 0.0
C322 C 0.75983 0.27461 0.35301 0.0
C323 C 0.7323 0.25417 0.33164 0.0
C324 C 0.7008 0.28266 0.32008 0.0
C325 C 0.75481 0.23504 0.30553 0.0
C326 C 0.71498 0.22377 0.35242 0.0
C327 C 0.72958 0.22723 0.38127 0.0
C328 C 0.71989 0.20039 0.40374 0.0
C329 C 0.69549 0.1687 0.39625 0.0
C330 C 0.68093 0.16442 0.36663 0.0
C331 C 0.69001 0.19295 0.34479 0.0
H332 H 0.79141 0.31777 0.84504 0.0
H333 H 0.86534 0.25612 0.90864 0.0
H334 H 0.80864 0.21615 0.9248 0.0
H335 H 0.69865 0.31432 0.89068 0.0
H336 H 0.66994 0.3069 0.85724 0.0
H337 H 0.71408 0.33582 0.85559 0.0
H338 H 0.74016 0.29086 0.81309 0.0
H339 H 0.69655 0.26158 0.81484 0.0
H340 H 0.74363 0.23862 0.81949 0.0
H341 H 0.74732 0.17439 0.92626 0.0
H342 H 0.68594 0.13798 0.91464 0.0
H343 H 0.65348 0.22871 0.85125 0.0
C344 C 0.79552 0.29659 0.86294 0.0
C345 C 0.8327 0.28973 0.87542 0.0
C346 C 0.83696 0.26178 0.89877 0.0
C347 C 0.80493 0.23905 0.90816 0.0
C348 C 0.76891 0.24534 0.89435 0.0
C349 C 0.76398 0.27402 0.8726 0.0
C350 C 0.72384 0.27234 0.8587 0.0
C351 C 0.70024 0.30956 0.86601 0.0
C352 C 0.72623 0.26541 0.82454 0.0
C353 C 0.70756 0.237 0.87485 0.0
C354 C 0.73356 0.22194 0.89567 0.0
C355 C 0.72625 0.18657 0.91071 0.0
C356 C 0.69163 0.16606 0.90399 0.0
C357 C 0.66539 0.1813 0.8825 0.0
C358 C 0.67307 0.21729 0.86828 0.0
H359 H 0.2982 0.69152 0.9174 0.0
H360 H 0.31593 0.66415 0.82329 0.0
H361 H 0.2716 0.71791 0.80889 0.0
H362 H 0.19713 0.71644 0.91228 0.0
H363 H 0.19907 0.75717 0.93809 0.0
H364 H 0.23332 0.71724 0.94169 0.0
H365 H 0.29103 0.76628 0.9383 0.0
H366 H 0.25699 0.80645 0.93489 0.0
H367 H 0.29421 0.79938 0.90674 0.0
H368 H 0.22282 0.76889 0.80423 0.0
H369 H 0.17564 0.82273 0.80854 0.0
H370 H 0.19076 0.8236 0.90538 0.0
C371 C 0.29315 0.69765 0.89386 0.0
C372 C 0.3106 0.67444 0.87127 0.0
C373 C 0.3031 0.68232 0.84069 0.0
C374 C 0.27788 0.71252 0.83234 0.0
C375 C 0.26072 0.73479 0.85491 0.0
C376 C 0.26831 0.72846 0.88501 0.0
C377 C 0.24562 0.7574 0.90433 0.0
C378 C 0.21709 0.73576 0.92533 0.0
C379 C 0.27364 0.78397 0.92211 0.0
C380 C 0.22387 0.78041 0.88025 0.0
C381 C 0.23292 0.76619 0.85204 0.0
C382 C 0.21565 0.78066 0.82611 0.0
C383 C 0.18859 0.81098 0.82886 0.0
C384 C 0.17934 0.82705 0.85729 0.0
C385 C 0.19738 0.81176 0.88341 0.0
H386 H 0.65838 0.29174 0.57821 0.0
H387 H 0.69209 0.35549 0.65883 0.0
H388 H 0.75349 0.31902 0.66063 0.0
H389 H 0.69413 0.20051 0.59831 0.0
H390 H 0.71417 0.18674 0.56239 0.0
H391 H 0.67392 0.2207 0.56424 0.0
H392 H 0.71359 0.27241 0.53421 0.0
H393 H 0.75363 0.23813 0.5317 0.0
H394 H 0.76156 0.28646 0.54709 0.0
H395 H 0.80467 0.27102 0.65948 0.0
H396 H 0.85246 0.21879 0.64996 0.0
H397 H 0.7913 0.18639 0.56827 0.0
C398 C 0.67919 0.29873 0.59572 0.0
C399 C 0.67011 0.32628 0.61855 0.0
C400 C 0.69806 0.33446 0.64117 0.0
C401 C 0.73313 0.31388 0.64246 0.0
C402 C 0.74037 0.2858 0.6206 0.0
C403 C 0.71502 0.27874 0.59711 0.0
C404 C 0.73044 0.24594 0.57713 0.0
C405 C 0.70143 0.21143 0.57544 0.0
C406 C 0.74039 0.26168 0.54567 0.0
C407 C 0.76726 0.2347 0.59413 0.0
C408 C 0.77204 0.25838 0.61908 0.0
C409 C 0.80206 0.25297 0.63959 0.0
C410 C 0.82887 0.22323 0.63407 0.0
C411 C 0.82564 0.1995 0.6082 0.0
C412 C 0.79439 0.20481 0.58795 0.0
H413 H 0.23084 0.64321 0.59656 0.0
H414 H 0.1391 0.67991 0.65745 0.0
H415 H 0.15884 0.74938 0.65052 0.0
H416 H 0.30131 0.70384 0.62555 0.0
H417 H 0.32545 0.71511 0.59058 0.0
H418 H 0.2989 0.6698 0.59459 0.0
H419 H 0.25706 0.68742 0.54797 0.0
H420 H 0.28358 0.73298 0.54389 0.0
H421 H 0.23105 0.73347 0.54697 0.0
H422 H 0.19094 0.81327 0.64027 0.0
H423 H 0.23998 0.86608 0.63502 0.0
H424 H 0.31608 0.78733 0.58599 0.0
C425 C 0.21447 0.66613 0.60781 0.0
C426 C 0.18324 0.65671 0.62723 0.0
C427 C 0.16303 0.68691 0.64242 0.0
C428 C 0.17374 0.72633 0.63832 0.0
C429 C 0.20504 0.73479 0.61929 0.0
C430 C 0.22555 0.70553 0.60461 0.0
C431 C 0.26173 0.72187 0.58933 0.0
C432 C 0.29903 0.70145 0.60072 0.0
C433 C 0.25813 0.71874 0.555 0.0
C434 C 0.25968 0.76435 0.59936 0.0
C435 C 0.22566 0.7715 0.61528 0.0
C436 C 0.21745 0.80816 0.6276 0.0
C437 C 0.24532 0.83797 0.62444 0.0
C438 C 0.28131 0.83055 0.60995 0.0
C439 C 0.28843 0.79357 0.59684 0.0
H440 H 0.94495 0.46271 0.2933 0.0
H441 H 0.89463 0.57212 0.3255 0.0
H442 H 0.91313 0.60472 0.2784 0.0
H443 H 0.02811 0.50768 0.25419 0.0
H444 H 0.02645 0.4735 0.22331 0.0
H445 H 0.0102 0.45837 0.26004 0.0
H446 H 0.94325 0.43811 0.23763 0.0
H447 H 0.95915 0.45358 0.20089 0.0
H448 H 0.91513 0.47376 0.2169 0.0
H449 H 0.93132 0.62447 0.22738 0.0
H450 H 0.95678 0.63323 0.17623 0.0
H451 H 0.00044 0.51352 0.1765 0.0
C452 C 0.93855 0.49369 0.29062 0.0
C453 C 0.91832 0.51484 0.31314 0.0
C454 C 0.91005 0.55525 0.30863 0.0
C455 C 0.9203 0.57407 0.28189 0.0
C456 C 0.93921 0.55226 0.25989 0.0
C457 C 0.94893 0.51321 0.26397 0.0
C458 C 0.96936 0.49698 0.23633 0.0
C459 C 0.01101 0.48333 0.24393 0.0
C460 C 0.94528 0.46363 0.22211 0.0
C461 C 0.96979 0.53317 0.21633 0.0
C462 C 0.95148 0.56438 0.23036 0.0
C463 C 0.94618 0.60045 0.21627 0.0
C464 C 0.96057 0.60508 0.18718 0.0
C465 C 0.9807 0.57414 0.17263 0.0
C466 C 0.98543 0.53766 0.18734 0.0
H467 H 0.8782 0.99238 0.20041 0.0
H468 H 0.97847 0.97898 0.14187 0.0
H469 H 0.01803 0.95565 0.18507 0.0
H470 H 0.93362 0.02401 0.26766 0.0
H471 H 0.90203 -0.0024 0.29305 0.0
H472 H 0.88282 0.01686 0.25835 0.0
H473 H 0.85836 0.9478 0.24379 0.0
H474 H 0.87714 0.92809 0.27834 0.0
H475 H 0.89208 0.90708 0.24298 0.0
H476 H 0.04624 0.93445 0.2342 0.0
H477 H 0.05923 0.90592 0.28409 0.0
H478 H 0.93899 0.92809 0.31017 0.0
C479 C 0.90865 0.9849 0.19693 0.0
C480 C 0.9258 0.98768 0.16819 0.0
C481 C 0.9653 0.97722 0.16396 0.0
C482 C 0.98787 0.96423 0.18832 0.0
C483 C 0.97028 0.96201 0.21655 0.0
C484 C 0.93146 0.97168 0.22096 0.0
C485 C 0.91898 0.96412 0.25314 0.0
C486 C 0.90877 0.00295 0.26898 0.0
C487 C 0.88463 0.93497 0.25463 0.0
C488 C 0.95629 0.9466 0.2657 0.0
C489 C 0.98589 0.94725 0.24454 0.0
C490 C 0.02331 0.93365 0.25094 0.0
C491 C 0.03042 0.9176 0.27937 0.0
C492 C 2e-05 0.91444 0.30079 0.0
C493 C 0.96264 0.92976 0.29403 0.0
H494 H 0.54826 0.00733 0.29061 0.0
H495 H 0.62214 0.91026 0.31905 0.0
H496 H 0.60739 0.87524 0.27234 0.0
H497 H 0.47329 0.94648 0.25663 0.0
H498 H 0.46428 0.97999 0.22602 0.0
H499 H 0.48145 -0.0015 0.2615 0.0
H500 H 0.53975 0.03183 0.23431 0.0
H501 H 0.52311 0.01273 0.19881 0.0
H502 H 0.57205 0.00246 0.21156 0.0
H503 H 0.58823 0.85164 0.2226 0.0
H504 H 0.55613 0.83503 0.17494 0.0
H505 H 0.48978 0.9437 0.17889 0.0
C506 C 0.56103 0.97859 0.28705 0.0
C507 C 0.58663 0.96173 0.30843 0.0
C508 C 0.6026 0.92395 0.30304 0.0
C509 C 0.59465 0.90384 0.27644 0.0
C510 C 0.57029 0.92161 0.25552 0.0
C511 C 0.55291 0.95763 0.26064 0.0
C512 C 0.52629 0.96881 0.23471 0.0
C513 C 0.48381 0.97371 0.24537 0.0
C514 C 0.5412 0.00617 0.21891 0.0
C515 C 0.53094 0.93294 0.21475 0.0
C516 C 0.55745 0.90681 0.22691 0.0
C517 C 0.56737 0.87179 0.21276 0.0
C518 C 0.54898 0.86264 0.18569 0.0
C519 C 0.52031 0.88794 0.17339 0.0
C520 C 0.51146 0.92378 0.18795 0.0
H521 H 0.60325 0.55021 0.18437 0.0
H522 H 0.51847 0.46028 0.16125 0.0
H523 H 0.48482 0.47083 0.20969 0.0
H524 H 0.61166 0.52324 0.26125 0.0
H525 H 0.61672 0.5728 0.27502 0.0
H526 H 0.6327 0.56076 0.23761 0.0
H527 H 0.58814 0.61528 0.21562 0.0
H528 H 0.57251 0.62791 0.253 0.0
H529 H 0.5368 0.61557 0.22481 0.0
H530 H 0.46099 0.49021 0.26054 0.0
H531 H 0.44706 0.51904 0.31032 0.0
H532 H 0.54957 0.59357 0.30178 0.0
C533 C 0.57709 0.53341 0.18928 0.0
C534 C 0.56298 0.50477 0.169 0.0
C535 C 0.52941 0.48253 0.17647 0.0
C536 C 0.51024 0.48823 0.20392 0.0
C537 C 0.5254 0.51591 0.22379 0.0
C538 C 0.55797 0.53827 0.21684 0.0
C539 C 0.56905 0.56496 0.24274 0.0
C540 C 0.60995 0.55482 0.25486 0.0
C541 C 0.56645 0.6085 0.23348 0.0
C542 C 0.53743 0.55422 0.26517 0.0
C543 C 0.51255 0.52593 0.25374 0.0
C544 C 0.48036 0.51222 0.26984 0.0
C545 C 0.47278 0.52859 0.29811 0.0
C546 C 0.49745 0.5581 0.31004 0.0
C547 C 0.53061 0.57047 0.29353 0.0
H548 H 0.06308 0.52765 0.69196 0.0
H549 H 0.05796 0.41932 0.64056 0.0
H550 H 0.02691 0.38591 0.68351 0.0
H551 H 0.08963 0.48514 0.75982 0.0
H552 H 0.06077 0.5167 0.78357 0.0
H553 H 0.07765 0.53427 0.74771 0.0
H554 H 0.00652 0.55043 0.73215 0.0
H555 H 0.98944 0.53327 0.76816 0.0
H556 H 0.96962 0.51262 0.73416 0.0
H557 H 0.00478 0.36216 0.73241 0.0
H558 H 0.98803 0.34956 0.78515 0.0
H559 H 0.00575 0.47255 0.8064 0.0
C560 C 0.05438 0.4972 0.68947 0.0
C561 C 0.06268 0.47603 0.66285 0.0
C562 C 0.05171 0.43605 0.66067 0.0
C563 C 0.03405 0.41686 0.68492 0.0
C564 C 0.02741 0.43814 0.71111 0.0
C565 C 0.03678 0.4775 0.71359 0.0
C566 C 0.02883 0.49253 0.74514 0.0
C567 C 0.06647 0.50805 0.75992 0.0
C568 C -0.00332 0.52408 0.74488 0.0
C569 C 0.01469 0.45505 0.76014 0.0
C570 C 0.01391 0.42426 0.73985 0.0
C571 C 0.00429 0.38615 0.74834 0.0
C572 C -0.00522 0.37925 0.77831 0.0
C573 C -0.00527 0.41019 0.79941 0.0
C574 C 0.0049 0.44864 0.79038 0.0
H575 H 0.09908 0.06457 0.80637 0.0
H576 H 0.03059 0.957 0.80917 0.0
H577 H 0.00259 0.97294 0.75971 0.0
H578 H 0.02662 0.12388 0.77396 0.0
H579 H 0.05853 0.15161 0.74948 0.0
H580 H 0.07689 0.13177 0.78414 0.0
H581 H 0.13117 0.09502 0.75655 0.0
H582 H 0.11467 0.11535 0.72143 0.0
H583 H 0.11928 0.06286 0.72562 0.0
H584 H 0.97984 0.00116 0.71144 0.0
H585 H 0.96124 0.04185 0.66788 0.0
H586 H 0.04495 0.13094 0.69494 0.0
C587 C 0.07808 0.04445 0.79663 0.0
C588 C 0.06684 0.00961 0.81179 0.0
C589 C 0.03945 0.98398 0.79815 0.0
C590 C 0.02359 0.99261 0.76992 0.0
C591 C 0.03547 0.02694 0.75551 0.0
C592 C 0.06203 0.05253 0.76832 0.0
C593 C 0.06847 0.08825 0.74846 0.0
C594 C 0.05687 0.12612 0.76499 0.0
C595 C 0.11095 0.09044 0.73736 0.0
C596 C 0.04073 0.07908 0.72283 0.0
C597 C 0.02233 0.04333 0.72732 0.0
C598 C -0.00583 0.02909 0.70757 0.0
C599 C 0.98377 0.05241 0.68294 0.0
C600 C 0.00172 0.08938 0.6781 0.0
C601 C 0.03125 0.10247 0.69791 0.0
H602 H 0.53206 0.0696 0.7822 0.0
H603 H 0.43088 0.05512 0.83992 0.0
H604 H 0.39638 0.02004 0.7995 0.0
H605 H 0.48012 0.09118 0.71658 0.0
H606 H 0.51261 0.06536 0.69171 0.0
H607 H 0.53085 0.08441 0.72665 0.0
H608 H 0.55512 0.01394 0.74019 0.0
H609 H 0.53553 -0.00461 0.70539 0.0
H610 H 0.52064 0.9738 0.74057 0.0
H611 H 0.3698 -0.00513 0.75247 0.0
H612 H 0.35209 0.97949 0.70007 0.0
H613 H 0.46942 0.00942 0.6711 0.0
C614 C 0.50322 0.05769 0.78652 0.0
C615 C 0.48419 0.06437 0.81421 0.0
C616 C 0.44593 0.04985 0.81889 0.0
C617 C 0.42616 0.02987 0.79612 0.0
C618 C 0.44507 0.02473 0.76876 0.0
C619 C 0.48277 0.03795 0.76374 0.0
C620 C 0.49467 0.03146 0.73125 0.0
C621 C 0.50519 0.07046 0.71567 0.0
C622 C 0.5285 0.00188 0.72924 0.0
C623 C 0.45717 0.01425 0.71866 0.0
C624 C 0.42927 0.01014 0.74093 0.0
C625 C 0.39144 -0.00259 0.73485 0.0
C626 C 0.38163 0.98892 0.70513 0.0
C627 C 0.40954 0.99316 0.68197 0.0
C628 C 0.4479 0.00555 0.6887 0.0
H629 H 0.5007 0.46604 0.67235 0.0
H630 H 0.42718 0.36286 0.66094 0.0
H631 H 0.39987 0.37251 0.71123 0.0
H632 H 0.52114 0.45778 0.7501 0.0
H633 H 0.51477 0.50916 0.75873 0.0
H634 H 0.52996 0.49452 0.72166 0.0
H635 H 0.47129 0.53171 0.69821 0.0
H636 H 0.45644 0.54718 0.73517 0.0
H637 H 0.42252 0.52127 0.71137 0.0
H638 H 0.38371 0.38948 0.76354 0.0
H639 H 0.36774 0.42203 0.81129 0.0
H640 H 0.44642 0.51794 0.78865 0.0
C641 C 0.47867 0.44573 0.68043 0.0
C642 C 0.46673 0.41328 0.66286 0.0
C643 C 0.43722 0.38776 0.67397 0.0
C644 C 0.42163 0.39275 0.70268 0.0
C645 C 0.43495 0.42406 0.71983 0.0
C646 C 0.46167 0.45101 0.70887 0.0
C647 C 0.46802 0.48402 0.73126 0.0
C648 C 0.51104 0.48649 0.74101 0.0
C649 C 0.45372 0.52337 0.71823 0.0
C650 C 0.44194 0.47037 0.75685 0.0
C651 C 0.42348 0.43549 0.74972 0.0
C652 C 0.39764 0.41703 0.76934 0.0
C653 C 0.38895 0.43566 0.79649 0.0
C654 C 0.40583 0.47251 0.80372 0.0
C655 C 0.43347 0.48955 0.78394 0.0
H656 H 0.02847 0.77238 0.16654 0.0
H657 H 0.92652 0.69793 0.16433 0.0
H658 H 0.90736 0.72101 0.21453 0.0
H659 H 0.05765 0.7434 0.2275 0.0
H660 H 0.07763 0.78733 0.24411 0.0
H661 H 0.07367 0.78383 0.20423 0.0
H662 H 0.03028 0.84663 0.20076 0.0
H663 H 0.03854 0.85178 0.24047 0.0
H664 H 0.98929 0.85187 0.22595 0.0
H665 H 0.91345 0.73128 0.26976 0.0
H666 H 0.93893 0.73659 0.3218 0.0
H667 H 0.04018 0.799 0.28794 0.0
C668 C 0.00026 0.76404 0.17562 0.0
C669 C 0.97896 0.73364 0.16205 0.0
C670 C 0.94289 0.72172 0.17451 0.0
C671 C 0.9321 0.73436 0.20328 0.0
C672 C 0.95727 0.75971 0.21851 0.0
C673 C 0.99009 0.7756 0.20463 0.0
C674 C 0.01749 0.79394 0.22722 0.0
C675 C 0.05896 0.77599 0.22566 0.0
C676 C 0.01888 0.83875 0.22334 0.0
C677 C -0.00306 0.78282 0.25591 0.0
C678 C 0.96168 0.76426 0.2507 0.0
C679 C 0.94022 0.74726 0.27411 0.0
C680 C 0.955 0.75003 0.3035 0.0
C681 C 0.99134 0.76853 0.30885 0.0
C682 C 0.0121 0.78526 0.28473 0.0
H683 H 0.73269 0.94392 0.17753 0.0
H684 H 0.74724 0.06724 0.15672 0.0
H685 H 0.75499 0.082 0.21063 0.0
H686 H 0.6731 0.9692 0.25085 0.0
H687 H 0.69031 0.92402 0.26732 0.0
H688 H 0.68103 0.92662 0.2276 0.0
H689 H 0.75137 0.90097 0.21985 0.0
H690 H 0.76325 0.90325 0.25918 0.0
H691 H 0.79218 0.9302 0.23226 0.0
H692 H 0.78082 0.07842 0.26406 0.0
H693 H 0.77793 0.06903 0.31884 0.0
H694 H 0.73511 0.95073 0.30614 0.0
C695 C 0.73454 0.9744 0.18443 0.0
C696 C 0.74268 0.00419 0.16319 0.0
C697 C 0.74361 0.04377 0.17286 0.0
C698 C 0.74872 0.05231 0.20336 0.0
C699 C 0.74815 0.02107 0.22358 0.0
C700 C 0.73708 0.98368 0.21496 0.0
C701 C 0.73494 0.95624 0.24176 0.0
C702 C 0.69235 0.94329 0.24722 0.0
C703 C 0.76207 0.92056 0.23803 0.0
C704 C 0.74929 0.98345 0.26634 0.0
C705 C 0.75791 0.02033 0.25506 0.0
C706 C 0.77237 0.05022 0.27331 0.0
C707 C 0.77208 0.04405 0.30443 0.0
C708 C 0.75314 0.01044 0.31628 0.0
C709 C 0.74827 0.97742 0.29744 0.0
H710 H 0.46603 0.77595 0.3133 0.0
H711 H 0.56365 0.69689 0.30523 0.0
H712 H 0.57825 0.72292 0.25504 0.0
H713 H 0.42656 0.75201 0.25574 0.0
H714 H 0.40699 0.7977 0.24168 0.0
H715 H 0.41736 0.79282 0.28065 0.0
H716 H 0.46159 0.85353 0.27855 0.0
H717 H 0.45335 0.85937 0.23876 0.0
H718 H 0.50237 0.85529 0.25316 0.0
H719 H 0.56569 0.73534 0.20111 0.0
H720 H 0.53173 0.73868 0.15198 0.0
H721 H 0.43539 0.79866 0.19498 0.0
C722 C 0.49253 0.76708 0.30186 0.0
C723 C 0.51381 0.73491 0.31279 0.0
C724 C 0.54754 0.72228 0.29728 0.0
C725 C 0.55568 0.73665 0.26844 0.0
C726 C 0.52998 0.76388 0.25583 0.0
C727 C 0.49953 0.77999 0.27252 0.0
C728 C 0.46984 0.79974 0.25237 0.0
C729 C 0.42782 0.78455 0.25793 0.0
C730 C 0.4719 0.84465 0.25589 0.0
C731 C 0.48524 0.78733 0.22207 0.0
C732 C 0.52107 0.76892 0.22415 0.0
C733 C 0.53835 0.7511 0.19912 0.0
C734 C 0.51864 0.75259 0.17139 0.0
C735 C 0.48129 0.7702 0.16932 0.0
C736 C 0.46473 0.78732 0.19515 0.0
H737 H 0.73647 0.4336 0.1786 0.0
H738 H 0.73372 0.55864 0.16112 0.0
H739 H 0.74282 0.57163 0.21555 0.0
H740 H 0.66933 0.4423 0.23365 0.0
H741 H 0.68671 0.40219 0.25653 0.0
H742 H 0.69475 0.40164 0.21661 0.0
H743 H 0.77014 0.39589 0.22289 0.0
H744 H 0.76177 0.39192 0.2626 0.0
H745 H 0.79489 0.42875 0.24833 0.0
H746 H 0.74996 0.56789 0.27367 0.0
H747 H 0.7629 0.54725 0.32595 0.0
H748 H 0.73194 0.42787 0.30336 0.0
C749 C 0.74025 0.46372 0.18606 0.0
C750 C 0.73472 0.49512 0.16597 0.0
C751 C 0.73867 0.53423 0.17627 0.0
C752 C 0.7427 0.54175 0.20722 0.0
C753 C 0.7415 0.50978 0.22696 0.0
C754 C 0.74051 0.47154 0.21657 0.0
C755 C 0.73275 0.44238 0.24133 0.0
C756 C 0.69356 0.42089 0.23673 0.0
C757 C 0.76692 0.41305 0.24396 0.0
C758 C 0.73078 0.4699 0.26777 0.0
C759 C 0.73673 0.50867 0.2593 0.0
C760 C 0.74427 0.53788 0.28051 0.0
C761 C 0.75048 0.52616 0.31042 0.0
C762 C 0.74888 0.48586 0.31819 0.0
C763 C 0.73273 0.45891 0.29778 0.0
H764 H 0.93186 0.20998 0.68488 0.0
H765 H 0.04001 0.25852 0.65026 0.0
H766 H 0.06812 0.25554 0.7017 0.0
H767 H 0.9276 0.25545 0.75095 0.0
H768 H 0.90771 0.21391 0.77102 0.0
H769 H 0.89988 0.21826 0.73149 0.0
H770 H 0.92936 0.14908 0.72484 0.0
H771 H 0.9403 0.14501 0.76436 0.0
H772 H 0.97846 0.1393 0.73688 0.0
H773 H 0.07717 0.25917 0.7581 0.0
H774 H 0.06364 0.27369 0.81123 0.0
H775 H 0.95734 0.20579 0.8067 0.0
C776 C 0.96213 0.21808 0.68739 0.0
C777 C 0.98414 0.23315 0.66323 0.0
C778 C 0.02287 0.24612 0.66841 0.0
C779 C 0.03912 0.24411 0.69742 0.0
C780 C 0.01679 0.22742 0.72047 0.0
C781 C 0.97926 0.21411 0.71541 0.0
C782 C 0.95959 0.20014 0.74375 0.0
C783 C 0.92155 0.22336 0.74963 0.0
C784 C 0.95146 0.15575 0.7424 0.0
C785 C 0.99107 0.2098 0.76634 0.0
C786 C 0.02395 0.22565 0.75256 0.0
C787 C 0.05243 0.24549 0.76911 0.0
C788 C 0.04502 0.25288 0.79961 0.0
C789 C 0.00926 0.24088 0.81266 0.0
C790 C 0.98521 0.21435 0.7971 0.0
H791 H 0.25507 0.03665 0.67837 0.0
H792 H 0.20874 0.92253 0.65513 0.0
H793 H 0.20127 0.90651 0.70866 0.0
H794 H 0.30582 0.02082 0.73542 0.0
H795 H 0.29163 0.05781 0.76221 0.0
H796 H 0.28507 0.06655 0.72267 0.0
H797 H 0.20999 0.07743 0.7277 0.0
H798 H 0.21773 0.07468 0.76767 0.0
H799 H 0.18209 0.0432 0.75013 0.0
H800 H 0.22969 0.89494 0.7604 0.0
H801 H 0.23514 0.90039 0.81522 0.0
H802 H 0.24126 0.02722 0.80769 0.0
C803 C 0.23993 0.0098 0.68441 0.0
C804 C 0.23612 0.97894 0.66338 0.0
C805 C 0.21425 0.94532 0.67154 0.0
C806 C 0.2109 0.93552 0.70189 0.0
C807 C 0.22372 0.96302 0.72276 0.0
C808 C 0.23313 0.0011 0.71474 0.0
C809 C 0.24267 0.02552 0.74235 0.0
C810 C 0.28375 0.04376 0.74053 0.0
C811 C 0.21126 0.05712 0.74724 0.0
C812 C 0.24064 0.99406 0.76646 0.0
C813 C 0.23179 0.95793 0.75411 0.0
C814 C 0.2337 0.92343 0.77076 0.0
C815 C 0.2384 0.9268 0.80177 0.0
C816 C 0.23575 0.96429 0.81544 0.0
C817 C 0.24192 -0.00181 0.79775 0.0
H818 H 0.47275 0.26455 0.80912 0.0
H819 H 0.51831 0.14718 0.7976 0.0
H820 H 0.49923 0.14752 0.74508 0.0
H821 H 0.39052 0.25549 0.74787 0.0
H822 H 0.39953 0.30539 0.73609 0.0
H823 H 0.40438 0.29215 0.77511 0.0
H824 H 0.47519 0.31895 0.77602 0.0
H825 H 0.47024 0.33342 0.73768 0.0
H826 H 0.5098 0.30147 0.74853 0.0
H827 H 0.5002 0.16889 0.69333 0.0
H828 H 0.51684 0.20979 0.64922 0.0
H829 H 0.45803 0.3085 0.69001 0.0
C830 C 0.47657 0.23825 0.79576 0.0
C831 C 0.49736 0.20595 0.8073 0.0
C832 C 0.50309 0.17242 0.78921 0.0
C833 C 0.49159 0.17206 0.75924 0.0
C834 C 0.47357 0.20529 0.74763 0.0
C835 C 0.46503 0.23756 0.76553 0.0
C836 C 0.45244 0.27217 0.74658 0.0
C837 C 0.40912 0.28183 0.75173 0.0
C838 C 0.47849 0.30855 0.75254 0.0
C839 C 0.45897 0.2554 0.71547 0.0
C840 C 0.47069 0.21651 0.71639 0.0
C841 C 0.48905 0.1986 0.69178 0.0
C842 C 0.49825 0.22181 0.66663 0.0
C843 C 0.48816 0.26193 0.66644 0.0
C844 C 0.46497 0.27748 0.68967 0.0
H845 H 0.26135 0.47163 0.80857 0.0
H846 H 0.21951 0.59153 0.81304 0.0
H847 H 0.21046 0.59206 0.75823 0.0
H848 H 0.3165 0.47998 0.74872 0.0
H849 H 0.30581 0.43446 0.72975 0.0
H850 H 0.30034 0.43775 0.76984 0.0
H851 H 0.22754 0.41693 0.7677 0.0
H852 H 0.23371 0.40966 0.72796 0.0
H853 H 0.19516 0.44106 0.74159 0.0
H854 H 0.22969 0.58749 0.70415 0.0
H855 H 0.2338 0.56557 0.65143 0.0
H856 H 0.25241 0.44593 0.68127 0.0
C857 C 0.24715 0.49676 0.79833 0.0
C858 C 0.24215 0.53201 0.81458 0.0
C859 C 0.22382 0.56447 0.80065 0.0
C860 C 0.21974 0.56542 0.76945 0.0
C861 C 0.23179 0.53263 0.75328 0.0
C862 C 0.24213 0.49778 0.76716 0.0
C863 C 0.25382 0.46699 0.74422 0.0
C864 C 0.29663 0.45406 0.7484 0.0
C865 C 0.22586 0.43158 0.74542 0.0
C866 C 0.24898 0.49042 0.71551 0.0
C867 C 0.23827 0.52874 0.72151 0.0
C868 C 0.23586 0.55703 0.69899 0.0
C869 C 0.23904 0.54452 0.66918 0.0
C870 C 0.24118 0.50395 0.66261 0.0
C871 C 0.2501 0.47712 0.68583 0.0
H872 H 0.02824 0.53057 0.05199 0.0
H873 H -0.00251 0.6224 0.98862 0.0
H874 H 0.97275 0.57147 0.95329 0.0
H875 H 0.06131 0.45902 0.0033 0.0
H876 H 0.03918 0.41842 0.02312 0.0
H877 H 0.05255 0.46227 0.04315 0.0
H878 H 0.98145 0.46927 0.06268 0.0
H879 H 0.96785 0.42524 0.04275 0.0
H880 H 0.94161 0.47037 0.03625 0.0
H881 H 0.95465 0.51115 0.92535 0.0
H882 H 0.94555 0.44494 0.90442 0.0
H883 H 0.98781 0.39274 0.98717 0.0
C884 C 0.01689 0.53992 0.03042 0.0
C885 C 0.01569 0.57988 0.02225 0.0
C886 C -0.00085 0.59159 -0.00534 0.0
C887 C 0.98482 0.56304 0.97481 0.0
C888 C 0.98633 0.52369 0.98376 0.0
C889 C 0.00164 0.51222 0.011 0.0
C890 C -0.00014 0.46826 0.01552 0.0
C891 C 0.04066 0.45099 0.02159 0.0
C892 C 0.97098 0.45767 0.04079 0.0
C893 C 0.98409 0.4562 0.98536 0.0
C894 C 0.97526 0.48879 0.96785 0.0
C895 C 0.96087 0.48549 0.93891 0.0
C896 C 0.95576 0.44789 0.92736 0.0
C897 C 0.96563 0.41432 0.94456 0.0
C898 C 0.97982 0.41822 0.97393 0.0
H899 H 0.07112 0.02884 0.95933 0.0
H900 H 0.08252 0.9029 0.97255 0.0
H901 H 0.01703 0.90088 -0.00446 0.0
H902 H 0.01475 0.04792 0.02991 0.0
H903 H 0.98597 0.08536 0.0117 0.0
H904 H 0.03553 0.0767 -0.00016 0.0
H905 H 0.00998 0.06691 0.94555 0.0
H906 H 0.96013 0.07323 0.95764 0.0
H907 H 0.97432 0.02909 0.93813 0.0
H908 H 0.94736 0.91045 0.0093 0.0
H909 H 0.88507 0.93434 0.03004 0.0
H910 H 0.9192 0.05437 0.00931 0.0
C911 C 0.06063 0.00118 0.96835 0.0
C912 C 0.08167 0.96595 0.96402 0.0
C913 C 0.06672 0.93019 0.97565 0.0
C914 C 0.02935 0.92864 0.98831 0.0
C915 C 0.00778 0.96323 0.98954 0.0
C916 C 0.02336 -0.00088 0.98115 0.0
C917 C -0.00619 0.03185 0.98501 0.0
C918 C 0.00838 0.06224 0.008 0.0
C919 C 0.984 0.05141 0.95478 0.0
C920 C 0.95932 0.00861 -0.00312 0.0
C921 C 0.96774 0.96897 -0.00147 0.0
C922 C 0.94055 0.94151 0.00864 0.0
C923 C 0.90498 0.95534 0.01995 0.0
C924 C 0.89764 -0.00376 0.02167 0.0
C925 C 0.92412 0.02294 0.00831 0.0
H926 H 0.50291 0.94663 0.05678 0.0
H927 H 0.46038 0.86799 0.98764 0.0
H928 H 0.46528 0.92223 0.95031 0.0
H929 H 0.45011 0.02724 0.03546 0.0
H930 H 0.48704 0.06339 0.04393 0.0
H931 H 0.48612 0.01747 0.06404 0.0
H932 H 0.5576 0.00266 0.04838 0.0
H933 H 0.55935 0.0493 0.02924 0.0
H934 H 0.57103 0.00476 0.00926 0.0
H935 H 0.46405 0.98739 0.9238 0.0
H936 H 0.47083 0.05578 0.90593 0.0
H937 H 0.51742 0.09068 -0.00765 0.0
C938 C 0.49593 0.94056 0.0335 0.0
C939 C 0.48142 0.90358 0.02471 0.0
C940 C 0.47202 0.89625 -0.0056 0.0
C941 C 0.47436 0.92689 0.9733 0.0
C942 C 0.48656 0.9639 0.98321 0.0
C943 C 0.49833 0.97048 0.01241 0.0
C944 C 0.50845 0.01313 0.01795 0.0
C945 C 0.48131 0.03135 0.04175 0.0
C946 C 0.55169 0.01772 0.0267 0.0
C947 C 0.50024 0.0299 0.98727 0.0
C948 C 0.48692 0.00115 0.96775 0.0
C949 C 0.47493 0.00996 0.93872 0.0
C950 C 0.47822 0.04888 0.92901 0.0
C951 C 0.4939 0.07811 0.94813 0.0
C952 C 0.50478 0.06874 0.97765 0.0
H953 H 0.43203 0.56535 0.96017 0.0
H954 H 0.37898 0.44945 0.9567 0.0
H955 H 0.43545 0.42213 0.98416 0.0
H956 H 0.52366 0.53655 0.94321 0.0
H957 H 0.54958 0.56984 0.96759 0.0
H958 H 0.50195 0.58285 0.95366 0.0
H959 H 0.47538 0.59209 0.0077 0.0
H960 H 0.52354 0.58136 0.02182 0.0
H961 H 0.48208 0.55345 0.03496 0.0
H962 H 0.50259 0.40572 0.00221 0.0
H963 H 0.56888 0.40349 0.02355 0.0
H964 H 0.57808 0.53041 0.01483 0.0
C965 C 0.43151 0.53451 0.96626 0.0
C966 C 0.40149 0.50936 0.95605 0.0
C967 C 0.40175 0.46919 0.96435 0.0
C968 C 0.43389 0.45336 0.97963 0.0
C969 C 0.46486 0.47834 0.98667 0.0
C970 C 0.46331 0.51831 0.9813 0.0
C971 C 0.50136 0.53839 0.9894 0.0
C972 C 0.52022 0.55806 0.96182 0.0
C973 C 0.49522 0.56805 0.01501 0.0
C974 C 0.52487 0.5033 -0.00039 0.0
C975 C 0.50342 0.46894 -0.00247 0.0
C976 C 0.51938 0.43253 0.00461 0.0
C977 C 0.55729 0.43156 0.01629 0.0
C978 C 0.57843 0.46688 0.0212 0.0
C979 C 0.56268 0.50294 0.01136 0.0
H980 H 0.0372 0.9525 0.43593 0.0
H981 H 0.96155 0.86719 0.47958 0.0
H982 H 0.94139 0.91808 0.51624 0.0
H983 H 0.06876 0.00683 0.50063 0.0
H984 H 0.06604 0.05359 0.48162 0.0
H985 H 0.07629 0.0096 0.46061 0.0
H986 H 0.01749 0.02454 0.42572 0.0
H987 H 0.00677 0.06835 0.44686 0.0
H988 H 0.96964 0.0313 0.44184 0.0
H989 H 0.92683 0.97794 0.54506 0.0
H990 H 0.92102 0.04295 0.56808 0.0
H991 H 0.00649 0.09008 0.50536 0.0
C992 C 0.01711 0.9442 0.45366 0.0
C993 C 0.00123 0.90598 0.45544 0.0
C994 C 0.9741 0.89639 0.4782 0.0
C995 C 0.96251 0.92502 0.49892 0.0
C996 C 0.97803 0.96276 0.49596 0.0
C997 C 0.00476 0.97242 0.47398 0.0
C998 C 0.01516 0.01565 0.47448 0.0
C999 C 0.05918 0.02176 0.47968 0.0
C1000 C 0.00145 0.03616 0.44551 0.0
C1001 C 0.99118 0.02865 0.50111 0.0
C1002 C 0.96946 -0.00228 0.51264 0.0
C1003 C 0.94373 0.00236 0.53637 0.0
C1004 C 0.94047 0.03952 0.54906 0.0
C1005 C 0.96328 0.07142 0.5383 0.0
C1006 C 0.98892 0.06606 0.51396 0.0
H1007 H 0.58894 -0.00424 0.48196 0.0
H1008 H 0.53364 0.0679 0.41343 0.0
H1009 H 0.46956 0.05485 0.43537 0.0
H1010 H 0.51824 0.92271 0.48909 0.0
H1011 H 0.5187 0.91965 0.52951 0.0
H1012 H 0.56177 0.93563 0.50971 0.0
H1013 H 0.5632 0.00015 0.54058 0.0
H1014 H 0.52055 0.98398 0.56092 0.0
H1015 H 0.52024 0.03074 0.54188 0.0
H1016 H 0.41114 0.03262 0.4624 0.0
H1017 H 0.3616 0.00784 0.49844 0.0
H1018 H 0.45356 0.95062 0.54935 0.0
C1019 C 0.56338 0.00939 0.47211 0.0
C1020 C 0.56629 0.03288 0.44614 0.0
C1021 C 0.53226 0.05027 0.43368 0.0
C1022 C 0.49553 0.04278 0.44573 0.0
C1023 C 0.49333 0.0187 0.47073 0.0
C1024 C 0.52622 0.00315 0.48443 0.0
C1025 C 0.51518 0.97968 0.51198 0.0
C1026 C 0.52931 0.93687 0.5099 0.0
C1027 C 0.53071 -0.00017 0.54052 0.0
C1028 C 0.47109 0.98251 0.51016 0.0
C1029 C 0.45914 0.00563 0.48646 0.0
C1030 C 0.41991 0.01436 0.48112 0.0
C1031 C 0.39206 0.0001 0.50143 0.0
C1032 C 0.40395 0.97688 0.52603 0.0
C1033 C 0.44373 0.96735 0.53007 0.0
H1034 H 0.53478 0.40559 0.48413 0.0
H1035 H 0.45213 0.4133 0.55761 0.0
H1036 H 0.4328 0.47959 0.54107 0.0
H1037 H 0.56985 0.49643 0.48295 0.0
H1038 H 0.5697 0.50548 0.44304 0.0
H1039 H 0.57288 0.45592 0.45692 0.0
H1040 H 0.51138 0.43535 0.42683 0.0
H1041 H 0.50912 0.48438 0.41152 0.0
H1042 H 0.4672 0.46379 0.43035 0.0
H1043 H 0.42838 0.54791 0.52021 0.0
H1044 H 0.42941 0.60894 0.48953 0.0
H1045 H 0.51553 0.55648 0.43061 0.0
C1046 C 0.51115 0.4205 0.49561 0.0
C1047 C 0.49432 0.40438 0.52166 0.0
C1048 C 0.46433 0.4249 0.53694 0.0
C1049 C 0.45361 0.46278 0.52803 0.0
C1050 C 0.47231 0.47896 0.50322 0.0
C1051 C 0.49909 0.45787 0.48637 0.0
C1052 C 0.51456 0.48214 0.46056 0.0
C1053 C 0.55942 0.48516 0.46094 0.0
C1054 C 0.49969 0.46543 0.43054 0.0
C1055 C 0.49542 0.52115 0.46741 0.0
C1056 C 0.47042 0.51855 0.49168 0.0
C1057 C 0.44778 0.55035 0.5011 0.0
C1058 C 0.44897 0.58499 0.48398 0.0
C1059 C 0.47357 0.58752 0.45858 0.0
C1060 C 0.4979 0.55574 0.45084 0.0
H1061 H 0.92646 0.43307 0.47693 0.0
H1062 H 0.89414 0.55063 0.44839 0.0
H1063 H 0.95653 0.57621 0.46793 0.0
H1064 H 0.98099 0.46627 0.54657 0.0
H1065 H 0.01576 0.42692 0.54213 0.0
H1066 H 0.9659 0.42025 0.53019 0.0
H1067 H -0.00825 0.40091 0.47753 0.0
H1068 H 0.0415 0.40992 0.48871 0.0
H1069 H 0.02141 0.4353 0.45669 0.0
H1070 H 0.02589 0.587 0.48321 0.0
H1071 H 0.09079 0.58627 0.50749 0.0
H1072 H 0.07799 0.46144 0.52517 0.0
C1073 C 0.93178 0.46446 0.47611 0.0
C1074 C 0.90575 0.48988 0.4611 0.0
C1075 C 0.91359 0.53074 0.46013 0.0
C1076 C 0.94924 0.54544 0.47068 0.0
C1077 C 0.97595 0.51893 0.48274 0.0
C1078 C 0.96698 0.47965 0.4868 0.0
C1079 C 0.00097 0.45735 0.50022 0.0
C1080 C 0.99028 0.4418 0.53164 0.0
C1081 C 0.0147 0.42391 0.47953 0.0
C1082 C 0.03097 0.48994 0.50191 0.0
C1083 C 0.01599 0.52517 0.4916 0.0
C1084 C 0.03784 0.55972 0.49169 0.0
C1085 C 0.07485 0.55892 0.50506 0.0
C1086 C 0.08929 0.52381 0.51802 0.0
C1087 C 0.06803 0.4885 0.51487 0.0
loop_
_geom_bond_atom_site_label_1
_geom_bond_atom_site_label_2
_geom_bond_distance
_geom_bond_site_symmetry_2
_ccdc_geom_bond_type
C0 O1 1.306 . S
C0 O3 1.160 . S
O1 C0 1.306 . S
O1 Cd2 2.228 . S
Cd2 O1 2.228 . S
Cd2 O6 2.273 . S
Cd2 O10 2.277 . S
O3 C0 1.160 . S
O3 Cd4 2.203 . S
Cd4 O3 2.203 . S
Cd4 O6 2.411 . S
Cd4 O7 2.333 1_455 S
Cd4 O8 2.352 . S
Cd4 O12 2.277 . S
Cd4 O13 2.356 1_455 S
C5 O10 1.209 . S
C5 O12 1.226 . S
O6 Cd2 2.273 . S
O6 Cd4 2.411 . S
O6 C9 1.320 . S
O7 Cd4 2.333 1_655 S
O7 C9 1.214 1_655 S
O8 Cd4 2.352 . S
O8 C11 1.258 . S
C9 O6 1.320 . S
C9 O7 1.214 1_455 S
O10 Cd2 2.277 . S
O10 C5 1.209 . S
C11 O8 1.258 . S
C11 O13 1.282 1_455 S
O12 Cd4 2.277 . S
O12 C5 1.226 . S
O13 Cd4 2.356 1_655 S
O13 C11 1.282 1_655 S
C14 O15 1.306 . S
C14 O17 1.160 . S
O15 C14 1.306 . S
O15 Cd16 2.228 . S
Cd16 O15 2.228 . S
Cd16 O20 2.273 . S
Cd16 O24 2.277 . S
O17 C14 1.160 . S
O17 Cd18 2.203 . S
Cd18 O17 2.203 . S
Cd18 O20 2.411 . S
Cd18 O21 2.333 1_545 S
Cd18 O22 2.352 . S
Cd18 O26 2.277 . S
Cd18 O27 2.356 1_545 S
C19 O24 1.209 . S
C19 O26 1.226 . S
O20 Cd16 2.273 . S
O20 Cd18 2.411 . S
O20 C23 1.320 . S
O21 Cd18 2.333 1_565 S
O21 C23 1.214 1_565 S
O22 Cd18 2.352 . S
O22 C25 1.258 . S
C23 O20 1.320 . S
C23 O21 1.214 1_545 S
O24 Cd16 2.277 . S
O24 C19 1.209 . S
C25 O22 1.258 . S
C25 O27 1.282 1_545 S
O26 Cd18 2.277 . S
O26 C19 1.226 . S
O27 Cd18 2.356 1_565 S
O27 C25 1.282 1_565 S
C28 O29 1.306 . S
C28 O31 1.160 . S
O29 C28 1.306 . S
O29 Cd30 2.228 . S
Cd30 O29 2.228 . S
Cd30 O34 2.273 . S
Cd30 O38 2.277 . S
O31 C28 1.160 . S
O31 Cd32 2.203 . S
Cd32 O31 2.203 . S
Cd32 O34 2.411 . S
Cd32 O35 2.333 . S
Cd32 O36 2.352 . S
Cd32 O40 2.277 . S
Cd32 O41 2.356 . S
C33 O38 1.209 . S
C33 O40 1.226 . S
O34 Cd30 2.273 . S
O34 Cd32 2.411 . S
O34 C37 1.320 . S
O35 Cd32 2.333 . S
O35 C37 1.214 . S
O36 Cd32 2.352 . S
O36 C39 1.258 . S
C37 O34 1.320 . S
C37 O35 1.214 . S
O38 Cd30 2.277 . S
O38 C33 1.209 . S
C39 O36 1.258 . S
C39 O41 1.282 . S
O40 Cd32 2.277 . S
O40 C33 1.226 . S
O41 Cd32 2.356 . S
O41 C39 1.282 . S
C42 O43 1.306 . S
C42 O45 1.160 . S
O43 C42 1.306 . S
O43 Cd44 2.228 . S
Cd44 O43 2.228 . S
Cd44 O48 2.273 . S
Cd44 O52 2.277 . S
O45 C42 1.160 . S
O45 Cd46 2.203 . S
Cd46 O45 2.203 . S
Cd46 O48 2.411 . S
Cd46 O49 2.333 . S
Cd46 O50 2.352 . S
Cd46 O54 2.277 . S
Cd46 O55 2.356 . S
C47 O52 1.209 . S
C47 O54 1.226 . S
O48 Cd44 2.273 . S
O48 Cd46 2.411 . S
O48 C51 1.320 . S
O49 Cd46 2.333 . S
O49 C51 1.214 . S
O50 Cd46 2.352 . S
O50 C53 1.258 . S
C51 O48 1.320 . S
C51 O49 1.214 . S
O52 Cd44 2.277 . S
O52 C47 1.209 . S
C53 O50 1.258 . S
C53 O55 1.282 . S
O54 Cd46 2.277 . S
O54 C47 1.226 . S
O55 Cd46 2.356 . S
O55 C53 1.282 . S
C56 O57 1.306 . S
C56 O59 1.160 . S
O57 C56 1.306 . S
O57 Cd58 2.228 . S
Cd58 O57 2.228 . S
Cd58 O62 2.273 . S
Cd58 O66 2.277 . S
O59 C56 1.160 . S
O59 Cd60 2.203 . S
Cd60 O59 2.203 . S
Cd60 O62 2.411 . S
Cd60 O63 2.333 1_455 S
Cd60 O64 2.352 . S
Cd60 O68 2.277 . S
Cd60 O69 2.356 1_455 S
C61 O66 1.209 . S
C61 O68 1.226 . S
O62 Cd58 2.273 . S
O62 Cd60 2.411 . S
O62 C65 1.320 . S
O63 Cd60 2.333 1_655 S
O63 C65 1.214 1_655 S
O64 Cd60 2.352 . S
O64 C67 1.258 . S
C65 O62 1.320 . S
C65 O63 1.214 1_455 S
O66 Cd58 2.277 . S
O66 C61 1.209 . S
C67 O64 1.258 . S
C67 O69 1.282 1_455 S
O68 Cd60 2.277 . S
O68 C61 1.226 . S
O69 Cd60 2.356 1_655 S
O69 C67 1.282 1_655 S
C70 O71 1.306 . S
C70 O73 1.160 . S
O71 C70 1.306 . S
O71 Cd72 2.228 . S
Cd72 O71 2.228 . S
Cd72 O76 2.273 . S
Cd72 O80 2.277 . S
O73 C70 1.160 . S
O73 Cd74 2.203 . S
Cd74 O73 2.203 . S
Cd74 O76 2.411 . S
Cd74 O77 2.333 1_545 S
Cd74 O78 2.352 . S
Cd74 O82 2.277 . S
Cd74 O83 2.356 1_545 S
C75 O80 1.209 . S
C75 O82 1.226 . S
O76 Cd72 2.273 . S
O76 Cd74 2.411 . S
O76 C79 1.320 . S
O77 Cd74 2.333 1_565 S
O77 C79 1.214 1_565 S
O78 Cd74 2.352 . S
O78 C81 1.258 . S
C79 O76 1.320 . S
C79 O77 1.214 1_545 S
O80 Cd72 2.277 . S
O80 C75 1.209 . S
C81 O78 1.258 . S
C81 O83 1.282 1_545 S
O82 Cd74 2.277 . S
O82 C75 1.226 . S
O83 Cd74 2.356 1_565 S
O83 C81 1.282 1_565 S
C84 O85 1.306 . S
C84 O87 1.160 . S
O85 C84 1.306 . S
O85 Cd86 2.228 . S
Cd86 O85 2.228 . S
Cd86 O90 2.273 . S
Cd86 O94 2.277 . S
O87 C84 1.160 . S
O87 Cd88 2.203 . S
Cd88 O87 2.203 . S
Cd88 O90 2.411 . S
Cd88 O91 2.333 . S
Cd88 O92 2.352 . S
Cd88 O96 2.277 . S
Cd88 O97 2.356 . S
C89 O94 1.209 . S
C89 O96 1.226 . S
O90 Cd86 2.273 . S
O90 Cd88 2.411 . S
O90 C93 1.320 . S
O91 Cd88 2.333 . S
O91 C93 1.214 . S
O92 Cd88 2.352 . S
O92 C95 1.258 . S
C93 O90 1.320 . S
C93 O91 1.214 . S
O94 Cd86 2.277 . S
O94 C89 1.209 . S
C95 O92 1.258 . S
C95 O97 1.282 . S
O96 Cd88 2.277 . S
O96 C89 1.226 . S
O97 Cd88 2.356 . S
O97 C95 1.282 . S
C98 O99 1.306 . S
C98 O101 1.160 . S
O99 C98 1.306 . S
O99 Cd100 2.228 . S
Cd100 O99 2.228 . S
Cd100 O104 2.273 . S
Cd100 O108 2.277 . S
O101 C98 1.160 . S
O101 Cd102 2.203 . S
Cd102 O101 2.203 . S
Cd102 O104 2.411 . S
Cd102 O105 2.333 . S
Cd102 O106 2.352 . S
Cd102 O110 2.277 . S
Cd102 O111 2.356 . S
C103 O108 1.209 . S
C103 O110 1.226 . S
O104 Cd100 2.273 . S
O104 Cd102 2.411 . S
O104 C107 1.320 . S
O105 Cd102 2.333 . S
O105 C107 1.214 . S
O106 Cd102 2.352 . S
O106 C109 1.258 . S
C107 O104 1.320 . S
C107 O105 1.214 . S
O108 Cd100 2.277 . S
O108 C103 1.209 . S
C109 O106 1.258 . S
C109 O111 1.282 . S
O110 Cd102 2.277 . S
O110 C103 1.226 . S
O111 Cd102 2.356 . S
O111 C109 1.282 . S
C112 O113 1.306 . S
C112 O115 1.160 . S
O113 C112 1.306 . S
O113 Cd114 2.228 . S
Cd114 O113 2.228 . S
Cd114 O118 2.273 . S
Cd114 O122 2.277 . S
O115 C112 1.160 . S
O115 Cd116 2.203 . S
Cd116 O115 2.203 . S
Cd116 O118 2.411 . S
Cd116 O119 2.333 1_655 S
Cd116 O120 2.352 . S
Cd116 O124 2.277 . S
Cd116 O125 2.356 1_655 S
C117 O122 1.209 . S
C117 O124 1.226 . S
O118 Cd114 2.273 . S
O118 Cd116 2.411 . S
O118 C121 1.320 . S
O119 Cd116 2.333 1_455 S
O119 C121 1.214 1_455 S
O120 Cd116 2.352 . S
O120 C123 1.258 . S
C121 O118 1.320 . S
C121 O119 1.214 1_655 S
O122 Cd114 2.277 . S
O122 C117 1.209 . S
C123 O120 1.258 . S
C123 O125 1.282 1_655 S
O124 Cd116 2.277 . S
O124 C117 1.226 . S
O125 Cd116 2.356 1_455 S
O125 C123 1.282 1_455 S
C126 O127 1.306 . S
C126 O129 1.160 . S
O127 C126 1.306 . S
O127 Cd128 2.228 . S
Cd128 O127 2.228 . S
Cd128 O132 2.273 . S
Cd128 O136 2.277 . S
O129 C126 1.160 . S
O129 Cd130 2.203 . S
Cd130 O129 2.203 . S
Cd130 O132 2.411 . S
Cd130 O133 2.333 1_565 S
Cd130 O134 2.352 . S
Cd130 O138 2.277 . S
Cd130 O139 2.356 1_565 S
C131 O136 1.209 . S
C131 O138 1.226 . S
O132 Cd128 2.273 . S
O132 Cd130 2.411 . S
O132 C135 1.320 . S
O133 Cd130 2.333 1_545 S
O133 C135 1.214 1_545 S
O134 Cd130 2.352 . S
O134 C137 1.258 . S
C135 O132 1.320 . S
C135 O133 1.214 1_565 S
O136 Cd128 2.277 . S
O136 C131 1.209 . S
C137 O134 1.258 . S
C137 O139 1.282 1_565 S
O138 Cd130 2.277 . S
O138 C131 1.226 . S
O139 Cd130 2.356 1_545 S
O139 C137 1.282 1_545 S
C140 O141 1.306 . S
C140 O143 1.160 . S
O141 C140 1.306 . S
O141 Cd142 2.228 . S
Cd142 O141 2.228 . S
Cd142 O146 2.273 . S
Cd142 O150 2.277 . S
O143 C140 1.160 . S
O143 Cd144 2.203 . S
Cd144 O143 2.203 . S
Cd144 O146 2.411 . S
Cd144 O147 2.333 . S
Cd144 O148 2.352 . S
Cd144 O152 2.277 . S
Cd144 O153 2.356 . S
C145 O150 1.209 . S
C145 O152 1.226 . S
O146 Cd142 2.273 . S
O146 Cd144 2.411 . S
O146 C149 1.320 . S
O147 Cd144 2.333 . S
O147 C149 1.214 . S
O148 Cd144 2.352 . S
O148 C151 1.258 . S
C149 O146 1.320 . S
C149 O147 1.214 . S
O150 Cd142 2.277 . S
O150 C145 1.209 . S
C151 O148 1.258 . S
C151 O153 1.282 . S
O152 Cd144 2.277 . S
O152 C145 1.226 . S
O153 Cd144 2.356 . S
O153 C151 1.282 . S
C154 O155 1.306 . S
C154 O157 1.160 . S
O155 C154 1.306 . S
O155 Cd156 2.228 . S
Cd156 O155 2.228 . S
Cd156 O160 2.273 . S
Cd156 O164 2.277 . S
O157 C154 1.160 . S
O157 Cd158 2.203 . S
Cd158 O157 2.203 . S
Cd158 O160 2.411 . S
Cd158 O161 2.333 . S
Cd158 O162 2.352 . S
Cd158 O166 2.277 . S
Cd158 O167 2.356 . S
C159 O164 1.209 . S
C159 O166 1.226 . S
O160 Cd156 2.273 . S
O160 Cd158 2.411 . S
O160 C163 1.320 . S
O161 Cd158 2.333 . S
O161 C163 1.214 . S
O162 Cd158 2.352 . S
O162 C165 1.258 . S
C163 O160 1.320 . S
C163 O161 1.214 . S
O164 Cd156 2.277 . S
O164 C159 1.209 . S
C165 O162 1.258 . S
C165 O167 1.282 . S
O166 Cd158 2.277 . S
O166 C159 1.226 . S
O167 Cd158 2.356 . S
O167 C165 1.282 . S
C168 O169 1.306 . S
C168 O171 1.160 . S
O169 C168 1.306 . S
O169 Cd170 2.228 . S
Cd170 O169 2.228 . S
Cd170 O174 2.273 . S
Cd170 O178 2.277 . S
O171 C168 1.160 . S
O171 Cd172 2.203 . S
Cd172 O171 2.203 . S
Cd172 O174 2.411 . S
Cd172 O175 2.333 1_655 S
Cd172 O176 2.352 . S
Cd172 O180 2.277 . S
Cd172 O181 2.356 1_655 S
C173 O178 1.209 . S
C173 O180 1.226 . S
O174 Cd170 2.273 . S
O174 Cd172 2.411 . S
O174 C177 1.320 . S
O175 Cd172 2.333 1_455 S
O175 C177 1.214 1_455 S
O176 Cd172 2.352 . S
O176 C179 1.258 . S
C177 O174 1.320 . S
C177 O175 1.214 1_655 S
O178 Cd170 2.277 . S
O178 C173 1.209 . S
C179 O176 1.258 . S
C179 O181 1.282 1_655 S
O180 Cd172 2.277 . S
O180 C173 1.226 . S
O181 Cd172 2.356 1_455 S
O181 C179 1.282 1_455 S
C182 O183 1.306 . S
C182 O185 1.160 . S
O183 C182 1.306 . S
O183 Cd184 2.228 . S
Cd184 O183 2.228 . S
Cd184 O188 2.273 . S
Cd184 O192 2.277 . S
O185 C182 1.160 . S
O185 Cd186 2.203 . S
Cd186 O185 2.203 . S
Cd186 O188 2.411 . S
Cd186 O189 2.333 1_565 S
Cd186 O190 2.352 . S
Cd186 O194 2.277 . S
Cd186 O195 2.356 1_565 S
C187 O192 1.209 . S
C187 O194 1.226 . S
O188 Cd184 2.273 . S
O188 Cd186 2.411 . S
O188 C191 1.320 . S
O189 Cd186 2.333 1_545 S
O189 C191 1.214 1_545 S
O190 Cd186 2.352 . S
O190 C193 1.258 . S
C191 O188 1.320 . S
C191 O189 1.214 1_565 S
O192 Cd184 2.277 . S
O192 C187 1.209 . S
C193 O190 1.258 . S
C193 O195 1.282 1_565 S
O194 Cd186 2.277 . S
O194 C187 1.226 . S
O195 Cd186 2.356 1_545 S
O195 C193 1.282 1_545 S
C196 O197 1.306 . S
C196 O199 1.160 . S
O197 C196 1.306 . S
O197 Cd198 2.228 . S
Cd198 O197 2.228 . S
Cd198 O202 2.273 . S
Cd198 O206 2.277 . S
O199 C196 1.160 . S
O199 Cd200 2.203 . S
Cd200 O199 2.203 . S
Cd200 O202 2.411 . S
Cd200 O203 2.333 . S
Cd200 O204 2.352 . S
Cd200 O208 2.277 . S
Cd200 O209 2.356 . S
C201 O206 1.209 . S
C201 O208 1.226 . S
O202 Cd198 2.273 . S
O202 Cd200 2.411 . S
O202 C205 1.320 . S
O203 Cd200 2.333 . S
O203 C205 1.214 . S
O204 Cd200 2.352 . S
O204 C207 1.258 . S
C205 O202 1.320 . S
C205 O203 1.214 . S
O206 Cd198 2.277 . S
O206 C201 1.209 . S
C207 O204 1.258 . S
C207 O209 1.282 . S
O208 Cd200 2.277 . S
O208 C201 1.226 . S
O209 Cd200 2.356 . S
O209 C207 1.282 . S
C210 O211 1.306 . S
C210 O213 1.160 . S
O211 C210 1.306 . S
O211 Cd212 2.228 . S
Cd212 O211 2.228 . S
Cd212 O216 2.273 . S
Cd212 O220 2.277 . S
O213 C210 1.160 . S
O213 Cd214 2.203 . S
Cd214 O213 2.203 . S
Cd214 O216 2.411 . S
Cd214 O217 2.333 . S
Cd214 O218 2.352 . S
Cd214 O222 2.277 . S
Cd214 O223 2.356 . S
C215 O220 1.209 . S
C215 O222 1.226 . S
O216 Cd212 2.273 . S
O216 Cd214 2.411 . S
O216 C219 1.320 . S
O217 Cd214 2.333 . S
O217 C219 1.214 . S
O218 Cd214 2.352 . S
O218 C221 1.258 . S
C219 O216 1.320 . S
C219 O217 1.214 . S
O220 Cd212 2.277 . S
O220 C215 1.209 . S
C221 O218 1.258 . S
C221 O223 1.282 . S
O222 Cd214 2.277 . S
O222 C215 1.226 . S
O223 Cd214 2.356 . S
O223 C221 1.282 . S
H224 C236 0.930 . S
H225 C238 0.930 . S
H226 C239 0.930 . S
H227 C243 0.959 . S
H228 C243 0.959 . S
H229 C243 0.961 . S
H230 C244 0.960 . S
H231 C244 0.961 . S
H232 C244 0.959 . S
H233 C247 0.929 . S
H234 C248 0.931 . S
H235 C250 0.930 . S
C236 H224 0.930 . S
C236 C237 1.399 . S
C236 C241 1.399 . S
C237 C236 1.399 . S
C237 C238 1.376 . S
C238 H225 0.930 . S
C238 C237 1.376 . S
C238 C239 1.388 . S
C239 H226 0.930 . S
C239 C238 1.388 . S
C239 C240 1.390 . S
C240 C239 1.390 . S
C240 C241 1.394 . S
C240 C246 1.465 . S
C241 C236 1.399 . S
C241 C240 1.394 . S
C241 C242 1.516 . S
C242 C241 1.516 . S
C242 C243 1.502 . S
C242 C244 1.561 . S
C242 C245 1.526 . S
C243 H227 0.959 . S
C243 H228 0.959 . S
C243 H229 0.961 . S
C243 C242 1.502 . S
C244 H230 0.960 . S
C244 H231 0.961 . S
C244 H232 0.959 . S
C244 C242 1.561 . S
C245 C242 1.526 . S
C245 C246 1.396 . S
C245 C250 1.390 . S
C246 C240 1.465 . S
C246 C245 1.396 . S
C246 C247 1.399 . S
C247 H233 0.929 . S
C247 C246 1.399 . S
C247 C248 1.385 . S
C248 H234 0.931 . S
C248 C247 1.385 . S
C248 C249 1.389 . S
C249 C248 1.389 . S
C249 C250 1.387 . S
C250 H235 0.930 . S
C250 C245 1.390 . S
C250 C249 1.387 . S
H251 C263 0.930 . S
H252 C265 0.930 . S
H253 C266 0.930 . S
H254 C270 0.959 . S
H255 C270 0.959 . S
H256 C270 0.961 . S
H257 C271 0.960 . S
H258 C271 0.961 . S
H259 C271 0.959 . S
H260 C274 0.929 . S
H261 C275 0.931 . S
H262 C277 0.930 . S
C263 H251 0.930 . S
C263 C264 1.399 . S
C263 C268 1.399 . S
C264 C263 1.399 . S
C264 C265 1.376 . S
C265 H252 0.930 . S
C265 C264 1.376 . S
C265 C266 1.388 . S
C266 H253 0.930 . S
C266 C265 1.388 . S
C266 C267 1.390 . S
C267 C266 1.390 . S
C267 C268 1.394 . S
C267 C273 1.465 . S
C268 C263 1.399 . S
C268 C267 1.394 . S
C268 C269 1.516 . S
C269 C268 1.516 . S
C269 C270 1.502 . S
C269 C271 1.561 . S
C269 C272 1.526 . S
C270 H254 0.959 . S
C270 H255 0.959 . S
C270 H256 0.961 . S
C270 C269 1.502 . S
C271 H257 0.960 . S
C271 H258 0.961 . S
C271 H259 0.959 . S
C271 C269 1.561 . S
C272 C269 1.526 . S
C272 C273 1.396 . S
C272 C277 1.390 . S
C273 C267 1.465 . S
C273 C272 1.396 . S
C273 C274 1.399 . S
C274 H260 0.929 . S
C274 C273 1.399 . S
C274 C275 1.385 . S
C275 H261 0.931 . S
C275 C274 1.385 . S
C275 C276 1.389 . S
C276 C275 1.389 . S
C276 C277 1.387 . S
C277 H262 0.930 . S
C277 C272 1.390 . S
C277 C276 1.387 . S
H278 C290 0.930 . S
H279 C292 0.930 . S
H280 C293 0.930 . S
H281 C297 0.959 . S
H282 C297 0.959 . S
H283 C297 0.961 . S
H284 C298 0.960 . S
H285 C298 0.961 . S
H286 C298 0.959 . S
H287 C301 0.929 . S
H288 C302 0.931 . S
H289 C304 0.930 . S
C290 H278 0.930 . S
C290 C291 1.399 . S
C290 C295 1.399 . S
C291 C290 1.399 . S
C291 C292 1.376 . S
C292 H279 0.930 . S
C292 C291 1.376 . S
C292 C293 1.388 . S
C293 H280 0.930 . S
C293 C292 1.388 . S
C293 C294 1.390 . S
C294 C293 1.390 . S
C294 C295 1.394 . S
C294 C300 1.465 . S
C295 C290 1.399 . S
C295 C294 1.394 . S
C295 C296 1.516 . S
C296 C295 1.516 . S
C296 C297 1.502 . S
C296 C298 1.561 . S
C296 C299 1.526 . S
C297 H281 0.959 . S
C297 H282 0.959 . S
C297 H283 0.961 . S
C297 C296 1.502 . S
C298 H284 0.960 . S
C298 H285 0.961 . S
C298 H286 0.959 . S
C298 C296 1.561 . S
C299 C296 1.526 . S
C299 C300 1.396 . S
C299 C304 1.390 . S
C300 C294 1.465 . S
C300 C299 1.396 . S
C300 C301 1.399 . S
C301 H287 0.929 . S
C301 C300 1.399 . S
C301 C302 1.385 . S
C302 H288 0.931 . S
C302 C301 1.385 . S
C302 C303 1.389 . S
C303 C302 1.389 . S
C303 C304 1.387 . S
C304 H289 0.930 . S
C304 C299 1.390 . S
C304 C303 1.387 . S
H305 C317 0.930 . S
H306 C319 0.930 . S
H307 C320 0.930 . S
H308 C324 0.959 . S
H309 C324 0.959 . S
H310 C324 0.961 . S
H311 C325 0.960 . S
H312 C325 0.961 . S
H313 C325 0.959 . S
H314 C328 0.929 . S
H315 C329 0.931 . S
H316 C331 0.930 . S
C317 H305 0.930 . S
C317 C318 1.399 . S
C317 C322 1.399 . S
C318 C317 1.399 . S
C318 C319 1.376 . S
C319 H306 0.930 . S
C319 C318 1.376 . S
C319 C320 1.388 . S
C320 H307 0.930 . S
C320 C319 1.388 . S
C320 C321 1.390 . S
C321 C320 1.390 . S
C321 C322 1.394 . S
C321 C327 1.465 . S
C322 C317 1.399 . S
C322 C321 1.394 . S
C322 C323 1.516 . S
C323 C322 1.516 . S
C323 C324 1.502 . S
C323 C325 1.561 . S
C323 C326 1.526 . S
C324 H308 0.959 . S
C324 H309 0.959 . S
C324 H310 0.961 . S
C324 C323 1.502 . S
C325 H311 0.960 . S
C325 H312 0.961 . S
C325 H313 0.959 . S
C325 C323 1.561 . S
C326 C323 1.526 . S
C326 C327 1.396 . S
C326 C331 1.390 . S
C327 C321 1.465 . S
C327 C326 1.396 . S
C327 C328 1.399 . S
C328 H314 0.929 . S
C328 C327 1.399 . S
C328 C329 1.385 . S
C329 H315 0.931 . S
C329 C328 1.385 . S
C329 C330 1.389 . S
C330 C329 1.389 . S
C330 C331 1.387 . S
C331 H316 0.930 . S
C331 C326 1.390 . S
C331 C330 1.387 . S
H332 C344 0.930 . S
H333 C346 0.930 . S
H334 C347 0.930 . S
H335 C351 0.959 . S
H336 C351 0.959 . S
H337 C351 0.961 . S
H338 C352 0.960 . S
H339 C352 0.961 . S
H340 C352 0.959 . S
H341 C355 0.929 . S
H342 C356 0.931 . S
H343 C358 0.930 . S
C344 H332 0.930 . S
C344 C345 1.399 . S
C344 C349 1.399 . S
C345 C344 1.399 . S
C345 C346 1.376 . S
C346 H333 0.930 . S
C346 C345 1.376 . S
C346 C347 1.388 . S
C347 H334 0.930 . S
C347 C346 1.388 . S
C347 C348 1.390 . S
C348 C347 1.390 . S
C348 C349 1.394 . S
C348 C354 1.465 . S
C349 C344 1.399 . S
C349 C348 1.394 . S
C349 C350 1.516 . S
C350 C349 1.516 . S
C350 C351 1.502 . S
C350 C352 1.561 . S
C350 C353 1.526 . S
C351 H335 0.959 . S
C351 H336 0.959 . S
C351 H337 0.961 . S
C351 C350 1.502 . S
C352 H338 0.960 . S
C352 H339 0.961 . S
C352 H340 0.959 . S
C352 C350 1.561 . S
C353 C350 1.526 . S
C353 C354 1.396 . S
C353 C358 1.390 . S
C354 C348 1.465 . S
C354 C353 1.396 . S
C354 C355 1.399 . S
C355 H341 0.929 . S
C355 C354 1.399 . S
C355 C356 1.385 . S
C356 H342 0.931 . S
C356 C355 1.385 . S
C356 C357 1.389 . S
C357 C356 1.389 . S
C357 C358 1.387 . S
C358 H343 0.930 . S
C358 C353 1.390 . S
C358 C357 1.387 . S
H359 C371 0.930 . S
H360 C373 0.930 . S
H361 C374 0.930 . S
H362 C378 0.959 . S
H363 C378 0.959 . S
H364 C378 0.961 . S
H365 C379 0.960 . S
H366 C379 0.961 . S
H367 C379 0.959 . S
H368 C382 0.929 . S
H369 C383 0.931 . S
H370 C385 0.930 . S
C371 H359 0.930 . S
C371 C372 1.399 . S
C371 C376 1.399 . S
C372 C371 1.399 . S
C372 C373 1.376 . S
C373 H360 0.930 . S
C373 C372 1.376 . S
C373 C374 1.388 . S
C374 H361 0.930 . S
C374 C373 1.388 . S
C374 C375 1.390 . S
C375 C374 1.390 . S
C375 C376 1.394 . S
C375 C381 1.465 . S
C376 C371 1.399 . S
C376 C375 1.394 . S
C376 C377 1.516 . S
C377 C376 1.516 . S
C377 C378 1.502 . S
C377 C379 1.561 . S
C377 C380 1.526 . S
C378 H362 0.959 . S
C378 H363 0.959 . S
C378 H364 0.961 . S
C378 C377 1.502 . S
C379 H365 0.960 . S
C379 H366 0.961 . S
C379 H367 0.959 . S
C379 C377 1.561 . S
C380 C377 1.526 . S
C380 C381 1.396 . S
C380 C385 1.390 . S
C381 C375 1.465 . S
C381 C380 1.396 . S
C381 C382 1.399 . S
C382 H368 0.929 . S
C382 C381 1.399 . S
C382 C383 1.385 . S
C383 H369 0.931 . S
C383 C382 1.385 . S
C383 C384 1.389 . S
C384 C383 1.389 . S
C384 C385 1.387 . S
C385 H370 0.930 . S
C385 C380 1.390 . S
C385 C384 1.387 . S
H386 C398 0.930 . S
H387 C400 0.930 . S
H388 C401 0.930 . S
H389 C405 0.959 . S
H390 C405 0.959 . S
H391 C405 0.961 . S
H392 C406 0.960 . S
H393 C406 0.961 . S
H394 C406 0.959 . S
H395 C409 0.929 . S
H396 C410 0.931 . S
H397 C412 0.930 . S
C398 H386 0.930 . S
C398 C399 1.399 . S
C398 C403 1.399 . S
C399 C398 1.399 . S
C399 C400 1.376 . S
C400 H387 0.930 . S
C400 C399 1.376 . S
C400 C401 1.388 . S
C401 H388 0.930 . S
C401 C400 1.388 . S
C401 C402 1.390 . S
C402 C401 1.390 . S
C402 C403 1.394 . S
C402 C408 1.465 . S
C403 C398 1.399 . S
C403 C402 1.394 . S
C403 C404 1.516 . S
C404 C403 1.516 . S
C404 C405 1.502 . S
C404 C406 1.561 . S
C404 C407 1.526 . S
C405 H389 0.959 . S
C405 H390 0.959 . S
C405 H391 0.961 . S
C405 C404 1.502 . S
C406 H392 0.960 . S
C406 H393 0.961 . S
C406 H394 0.959 . S
C406 C404 1.561 . S
C407 C404 1.526 . S
C407 C408 1.396 . S
C407 C412 1.390 . S
C408 C402 1.465 . S
C408 C407 1.396 . S
C408 C409 1.399 . S
C409 H395 0.929 . S
C409 C408 1.399 . S
C409 C410 1.385 . S
C410 H396 0.931 . S
C410 C409 1.385 . S
C410 C411 1.389 . S
C411 C410 1.389 . S
C411 C412 1.387 . S
C412 H397 0.930 . S
C412 C407 1.390 . S
C412 C411 1.387 . S
H413 C425 0.930 . S
H414 C427 0.930 . S
H415 C428 0.930 . S
H416 C432 0.959 . S
H417 C432 0.959 . S
H418 C432 0.961 . S
H419 C433 0.960 . S
H420 C433 0.961 . S
H421 C433 0.959 . S
H422 C436 0.929 . S
H423 C437 0.931 . S
H424 C439 0.930 . S
C425 H413 0.930 . S
C425 C426 1.399 . S
C425 C430 1.399 . S
C426 C425 1.399 . S
C426 C427 1.376 . S
C427 H414 0.930 . S
C427 C426 1.376 . S
C427 C428 1.388 . S
C428 H415 0.930 . S
C428 C427 1.388 . S
C428 C429 1.390 . S
C429 C428 1.390 . S
C429 C430 1.394 . S
C429 C435 1.465 . S
C430 C425 1.399 . S
C430 C429 1.394 . S
C430 C431 1.516 . S
C431 C430 1.516 . S
C431 C432 1.502 . S
C431 C433 1.561 . S
C431 C434 1.526 . S
C432 H416 0.959 . S
C432 H417 0.959 . S
C432 H418 0.961 . S
C432 C431 1.502 . S
C433 H419 0.960 . S
C433 H420 0.961 . S
C433 H421 0.959 . S
C433 C431 1.561 . S
C434 C431 1.526 . S
C434 C435 1.396 . S
C434 C439 1.390 . S
C435 C429 1.465 . S
C435 C434 1.396 . S
C435 C436 1.399 . S
C436 H422 0.929 . S
C436 C435 1.399 . S
C436 C437 1.385 . S
C437 H423 0.931 . S
C437 C436 1.385 . S
C437 C438 1.389 . S
C438 C437 1.389 . S
C438 C439 1.387 . S
C439 H424 0.930 . S
C439 C434 1.390 . S
C439 C438 1.387 . S
H440 C452 0.930 . S
H441 C454 0.930 . S
H442 C455 0.930 . S
H443 C459 0.959 . S
H444 C459 0.959 . S
H445 C459 0.961 . S
H446 C460 0.960 . S
H447 C460 0.961 . S
H448 C460 0.959 . S
H449 C463 0.929 . S
H450 C464 0.931 . S
H451 C466 0.930 1_455 S
C452 H440 0.930 . S
C452 C453 1.399 . S
C452 C457 1.399 . S
C453 C452 1.399 . S
C453 C454 1.376 . S
C454 H441 0.930 . S
C454 C453 1.376 . S
C454 C455 1.388 . S
C455 H442 0.930 . S
C455 C454 1.388 . S
C455 C456 1.390 . S
C456 C455 1.390 . S
C456 C457 1.394 . S
C456 C462 1.465 . S
C457 C452 1.399 . S
C457 C456 1.394 . S
C457 C458 1.516 . S
C458 C457 1.516 . S
C458 C459 1.502 1_655 S
C458 C460 1.561 . S
C458 C461 1.526 . S
C459 H443 0.959 . S
C459 H444 0.959 . S
C459 H445 0.961 . S
C459 C458 1.502 1_455 S
C460 H446 0.960 . S
C460 H447 0.961 . S
C460 H448 0.959 . S
C460 C458 1.561 . S
C461 C458 1.526 . S
C461 C462 1.396 . S
C461 C466 1.390 . S
C462 C456 1.465 . S
C462 C461 1.396 . S
C462 C463 1.399 . S
C463 H449 0.929 . S
C463 C462 1.399 . S
C463 C464 1.385 . S
C464 H450 0.931 . S
C464 C463 1.385 . S
C464 C465 1.389 . S
C465 C464 1.389 . S
C465 C466 1.387 . S
C466 H451 0.930 1_655 S
C466 C461 1.390 . S
C466 C465 1.387 . S
H467 C479 0.930 . S
H468 C481 0.930 . S
H469 C482 0.930 . S
H470 C486 0.959 . S
H471 C486 0.959 . S
H472 C486 0.961 . S
H473 C487 0.960 . S
H474 C487 0.961 . S
H475 C487 0.959 . S
H476 C490 0.929 . S
H477 C491 0.931 . S
H478 C493 0.930 . S
C479 H467 0.930 . S
C479 C480 1.399 1_545 S
C479 C484 1.399 1_545 S
C480 C479 1.399 1_565 S
C480 C481 1.376 . S
C481 H468 0.930 . S
C481 C480 1.376 . S
C481 C482 1.388 . S
C482 H469 0.930 . S
C482 C481 1.388 . S
C482 C483 1.390 . S
C483 C482 1.390 . S
C483 C484 1.394 . S
C483 C489 1.465 . S
C484 C479 1.399 1_565 S
C484 C483 1.394 . S
C484 C485 1.516 . S
C485 C484 1.516 . S
C485 C486 1.502 1_565 S
C485 C487 1.561 . S
C485 C488 1.526 . S
C486 H470 0.959 . S
C486 H471 0.959 . S
C486 H472 0.961 . S
C486 C485 1.502 1_545 S
C487 H473 0.960 . S
C487 H474 0.961 . S
C487 H475 0.959 . S
C487 C485 1.561 . S
C488 C485 1.526 . S
C488 C489 1.396 . S
C488 C493 1.390 . S
C489 C483 1.465 . S
C489 C488 1.396 . S
C489 C490 1.399 1_655 S
C490 H476 0.929 . S
C490 C489 1.399 1_455 S
C490 C491 1.385 . S
C491 H477 0.931 . S
C491 C490 1.385 . S
C491 C492 1.389 . S
C492 C491 1.389 . S
C492 C493 1.387 1_455 S
C493 H478 0.930 . S
C493 C488 1.390 . S
C493 C492 1.387 1_655 S
H494 C506 0.930 . S
H495 C508 0.930 . S
H496 C509 0.930 . S
H497 C513 0.959 1_565 S
H498 C513 0.959 . S
H499 C513 0.961 . S
H500 C514 0.960 . S
H501 C514 0.961 . S
H502 C514 0.959 . S
H503 C517 0.929 . S
H504 C518 0.931 . S
H505 C520 0.930 . S
C506 H494 0.930 . S
C506 C507 1.399 1_545 S
C506 C511 1.399 1_545 S
C507 C506 1.399 1_565 S
C507 C508 1.376 . S
C508 H495 0.930 . S
C508 C507 1.376 . S
C508 C509 1.388 . S
C509 H496 0.930 . S
C509 C508 1.388 . S
C509 C510 1.390 . S
C510 C509 1.390 . S
C510 C511 1.394 . S
C510 C516 1.465 . S
C511 C506 1.399 1_565 S
C511 C510 1.394 . S
C511 C512 1.518 . S
C512 C511 1.518 . S
C512 C513 1.499 1_565 S
C512 C514 1.557 1_565 S
C512 C515 1.532 . S
C513 H497 0.959 1_545 S
C513 H498 0.959 . S
C513 H499 0.961 . S
C513 C512 1.499 1_545 S
C514 H500 0.960 . S
C514 H501 0.961 . S
C514 H502 0.959 . S
C514 C512 1.557 1_545 S
C515 C512 1.532 . S
C515 C516 1.396 . S
C515 C520 1.390 . S
C516 C510 1.465 . S
C516 C515 1.396 . S
C516 C517 1.399 . S
C517 H503 0.929 . S
C517 C516 1.399 . S
C517 C518 1.385 . S
C518 H504 0.931 . S
C518 C517 1.385 . S
C518 C519 1.389 . S
C519 C518 1.389 . S
C519 C520 1.387 . S
C520 H505 0.930 . S
C520 C515 1.390 . S
C520 C519 1.387 . S
H521 C533 0.930 . S
H522 C535 0.930 . S
H523 C536 0.930 . S
H524 C540 0.959 . S
H525 C540 0.959 . S
H526 C540 0.961 . S
H527 C541 0.960 . S
H528 C541 0.961 . S
H529 C541 0.959 . S
H530 C544 0.929 . S
H531 C545 0.931 . S
H532 C547 0.930 . S
C533 H521 0.930 . S
C533 C534 1.399 . S
C533 C538 1.399 . S
C534 C533 1.399 . S
C534 C535 1.376 . S
C535 H522 0.930 . S
C535 C534 1.376 . S
C535 C536 1.388 . S
C536 H523 0.930 . S
C536 C535 1.388 . S
C536 C537 1.390 . S
C537 C536 1.390 . S
C537 C538 1.394 . S
C537 C543 1.465 . S
C538 C533 1.399 . S
C538 C537 1.394 . S
C538 C539 1.516 . S
C539 C538 1.516 . S
C539 C540 1.502 . S
C539 C541 1.561 . S
C539 C542 1.526 . S
C540 H524 0.959 . S
C540 H525 0.959 . S
C540 H526 0.961 . S
C540 C539 1.502 . S
C541 H527 0.960 . S
C541 H528 0.961 . S
C541 H529 0.959 . S
C541 C539 1.561 . S
C542 C539 1.526 . S
C542 C543 1.396 . S
C542 C547 1.390 . S
C543 C537 1.465 . S
C543 C542 1.396 . S
C543 C544 1.399 . S
C544 H530 0.929 . S
C544 C543 1.399 . S
C544 C545 1.385 . S
C545 H531 0.931 . S
C545 C544 1.385 . S
C545 C546 1.389 . S
C546 C545 1.389 . S
C546 C547 1.387 . S
C547 H532 0.930 . S
C547 C542 1.390 . S
C547 C546 1.387 . S
H548 C560 0.930 . S
H549 C562 0.930 . S
H550 C563 0.930 . S
H551 C567 0.959 . S
H552 C567 0.959 . S
H553 C567 0.961 . S
H554 C568 0.956 1_455 S
H555 C568 0.968 . S
H556 C568 0.973 . S
H557 C571 0.929 . S
H558 C572 0.928 1_655 S
H559 C574 0.930 . S
C560 H548 0.930 . S
C560 C561 1.399 . S
C560 C565 1.399 . S
C561 C560 1.399 . S
C561 C562 1.376 . S
C562 H549 0.930 . S
C562 C561 1.376 . S
C562 C563 1.388 . S
C563 H550 0.930 . S
C563 C562 1.388 . S
C563 C564 1.390 . S
C564 C563 1.390 . S
C564 C565 1.394 . S
C564 C570 1.465 . S
C565 C560 1.399 . S
C565 C564 1.394 . S
C565 C566 1.516 . S
C566 C565 1.516 . S
C566 C567 1.502 . S
C566 C568 1.545 1_455 S
C566 C569 1.526 . S
C567 H551 0.959 . S
C567 H552 0.959 . S
C567 H553 0.961 . S
C567 C566 1.502 . S
C568 H554 0.956 1_655 S
C568 H555 0.968 . S
C568 H556 0.973 . S
C568 C566 1.545 1_655 S
C569 C566 1.526 . S
C569 C570 1.396 . S
C569 C574 1.390 . S
C570 C564 1.465 . S
C570 C569 1.396 . S
C570 C571 1.399 . S
C571 H557 0.929 . S
C571 C570 1.399 . S
C571 C572 1.385 . S
C572 H558 0.928 1_455 S
C572 C571 1.385 . S
C572 C573 1.392 . S
C573 C572 1.392 . S
C573 C574 1.390 . S
C574 H559 0.930 . S
C574 C569 1.390 . S
C574 C573 1.390 . S
H575 C587 0.930 . S
H576 C589 0.930 . S
H577 C590 0.930 . S
H578 C594 0.959 . S
H579 C594 0.959 . S
H580 C594 0.961 . S
H581 C595 0.960 . S
H582 C595 0.961 . S
H583 C595 0.959 . S
H584 C598 0.929 1_565 S
H585 C599 0.931 . S
H586 C601 0.930 . S
C587 H575 0.930 . S
C587 C588 1.399 1_545 S
C587 C592 1.399 . S
C588 C587 1.399 1_565 S
C588 C589 1.376 . S
C589 H576 0.930 . S
C589 C588 1.376 . S
C589 C590 1.388 . S
C590 H577 0.930 . S
C590 C589 1.388 . S
C590 C591 1.390 1_565 S
C591 C590 1.390 1_545 S
C591 C592 1.394 . S
C591 C597 1.465 . S
C592 C587 1.399 . S
C592 C591 1.394 . S
C592 C593 1.516 . S
C593 C592 1.516 . S
C593 C594 1.502 . S
C593 C595 1.561 . S
C593 C596 1.526 . S
C594 H578 0.959 . S
C594 H579 0.959 . S
C594 H580 0.961 . S
C594 C593 1.502 . S
C595 H581 0.960 . S
C595 H582 0.961 . S
C595 H583 0.959 . S
C595 C593 1.561 . S
C596 C593 1.526 . S
C596 C597 1.396 . S
C596 C601 1.390 . S
C597 C591 1.465 . S
C597 C596 1.396 . S
C597 C598 1.399 . S
C598 H584 0.929 1_545 S
C598 C597 1.399 . S
C598 C599 1.385 1_455 S
C599 H585 0.931 . S
C599 C598 1.385 1_655 S
C599 C600 1.389 1_655 S
C600 C599 1.389 1_455 S
C600 C601 1.389 . S
C601 H586 0.930 . S
C601 C596 1.390 . S
C601 C600 1.389 . S
H602 C614 0.930 . S
H603 C616 0.930 . S
H604 C617 0.930 . S
H605 C621 0.959 . S
H606 C621 0.959 . S
H607 C621 0.961 . S
H608 C622 0.957 1_545 S
H609 C622 0.966 . S
H610 C622 0.969 . S
H611 C625 0.929 . S
H612 C626 0.926 1_565 S
H613 C628 0.930 . S
C614 H602 0.930 . S
C614 C615 1.399 . S
C614 C619 1.399 . S
C615 C614 1.399 . S
C615 C616 1.376 . S
C616 H603 0.930 . S
C616 C615 1.376 . S
C616 C617 1.388 . S
C617 H604 0.930 . S
C617 C616 1.388 . S
C617 C618 1.390 . S
C618 C617 1.390 . S
C618 C619 1.394 . S
C618 C624 1.465 . S
C619 C614 1.399 . S
C619 C618 1.394 . S
C619 C620 1.516 . S
C620 C619 1.516 . S
C620 C621 1.502 . S
C620 C622 1.550 1_545 S
C620 C623 1.526 . S
C621 H605 0.959 . S
C621 H606 0.959 . S
C621 H607 0.961 . S
C621 C620 1.502 . S
C622 H608 0.957 1_565 S
C622 H609 0.966 . S
C622 H610 0.969 . S
C622 C620 1.550 1_565 S
C623 C620 1.526 . S
C623 C624 1.396 . S
C623 C628 1.390 . S
C624 C618 1.465 . S
C624 C623 1.396 . S
C624 C625 1.399 . S
C625 H611 0.929 . S
C625 C624 1.399 . S
C625 C626 1.385 . S
C626 H612 0.926 1_545 S
C626 C625 1.385 . S
C626 C627 1.392 . S
C627 C626 1.392 . S
C627 C628 1.390 . S
C628 H613 0.930 . S
C628 C623 1.390 . S
C628 C627 1.390 . S
H629 C641 0.930 . S
H630 C643 0.930 . S
H631 C644 0.930 . S
H632 C648 0.959 . S
H633 C648 0.959 . S
H634 C648 0.961 . S
H635 C649 0.960 . S
H636 C649 0.961 . S
H637 C649 0.959 . S
H638 C652 0.929 . S
H639 C653 0.931 . S
H640 C655 0.930 . S
C641 H629 0.930 . S
C641 C642 1.399 . S
C641 C646 1.399 . S
C642 C641 1.399 . S
C642 C643 1.376 . S
C643 H630 0.930 . S
C643 C642 1.376 . S
C643 C644 1.388 . S
C644 H631 0.930 . S
C644 C643 1.388 . S
C644 C645 1.390 . S
C645 C644 1.390 . S
C645 C646 1.394 . S
C645 C651 1.465 . S
C646 C641 1.399 . S
C646 C645 1.394 . S
C646 C647 1.516 . S
C647 C646 1.516 . S
C647 C648 1.502 . S
C647 C649 1.561 . S
C647 C650 1.526 . S
C648 H632 0.959 . S
C648 H633 0.959 . S
C648 H634 0.961 . S
C648 C647 1.502 . S
C649 H635 0.960 . S
C649 H636 0.961 . S
C649 H637 0.959 . S
C649 C647 1.561 . S
C650 C647 1.526 . S
C650 C651 1.396 . S
C650 C655 1.390 . S
C651 C645 1.465 . S
C651 C650 1.396 . S
C651 C652 1.399 . S
C652 H638 0.929 . S
C652 C651 1.399 . S
C652 C653 1.385 . S
C653 H639 0.931 . S
C653 C652 1.385 . S
C653 C654 1.389 . S
C654 C653 1.389 . S
C654 C655 1.387 . S
C655 H640 0.930 . S
C655 C650 1.390 . S
C655 C654 1.387 . S
H656 C668 0.930 . S
H657 C670 0.930 . S
H658 C671 0.930 . S
H659 C675 0.959 . S
H660 C675 0.959 . S
H661 C675 0.961 . S
H662 C676 0.960 . S
H663 C676 0.961 . S
H664 C676 0.959 1_655 S
H665 C679 0.929 . S
H666 C680 0.931 . S
H667 C682 0.930 . S
C668 H656 0.930 . S
C668 C669 1.399 . S
C668 C673 1.399 . S
C669 C668 1.399 . S
C669 C670 1.376 1_455 S
C670 H657 0.930 . S
C670 C669 1.376 1_655 S
C670 C671 1.388 . S
C671 H658 0.930 . S
C671 C670 1.388 . S
C671 C672 1.386 1_655 S
C672 C671 1.386 1_455 S
C672 C673 1.399 . S
C672 C678 1.465 . S
C673 C668 1.399 . S
C673 C672 1.399 . S
C673 C674 1.516 . S
C674 C673 1.516 . S
C674 C675 1.502 . S
C674 C676 1.561 . S
C674 C677 1.526 . S
C675 H659 0.959 . S
C675 H660 0.959 . S
C675 H661 0.961 . S
C675 C674 1.502 . S
C676 H662 0.960 . S
C676 H663 0.961 . S
C676 H664 0.959 1_455 S
C676 C674 1.561 . S
C677 C674 1.526 . S
C677 C678 1.411 . S
C677 C682 1.390 . S
C678 C672 1.465 . S
C678 C677 1.411 . S
C678 C679 1.388 1_455 S
C679 H665 0.929 . S
C679 C678 1.388 1_655 S
C679 C680 1.385 . S
C680 H666 0.931 . S
C680 C679 1.385 . S
C680 C681 1.389 1_655 S
C681 C680 1.389 1_455 S
C681 C682 1.387 . S
C682 H667 0.930 . S
C682 C677 1.390 . S
C682 C681 1.387 . S
H683 C695 0.930 . S
H684 C697 0.930 . S
H685 C698 0.930 . S
H686 C702 0.959 . S
H687 C702 0.959 . S
H688 C702 0.961 . S
H689 C703 0.960 . S
H690 C703 0.961 . S
H691 C703 0.959 . S
H692 C706 0.929 . S
H693 C707 0.931 . S
H694 C709 0.930 . S
C695 H683 0.930 . S
C695 C696 1.399 1_565 S
C695 C700 1.399 . S
C696 C695 1.399 1_545 S
C696 C697 1.376 . S
C697 H684 0.930 . S
C697 C696 1.376 . S
C697 C698 1.388 . S
C698 H685 0.930 . S
C698 C697 1.388 . S
C698 C699 1.390 . S
C699 C698 1.390 . S
C699 C700 1.394 1_545 S
C699 C705 1.465 . S
C700 C695 1.399 . S
C700 C699 1.394 1_565 S
C700 C701 1.516 . S
C701 C700 1.516 . S
C701 C702 1.502 . S
C701 C703 1.561 . S
C701 C704 1.526 . S
C702 H686 0.959 . S
C702 H687 0.959 . S
C702 H688 0.961 . S
C702 C701 1.502 . S
C703 H689 0.960 . S
C703 H690 0.961 . S
C703 H691 0.959 . S
C703 C701 1.561 . S
C704 C701 1.526 . S
C704 C705 1.396 1_565 S
C704 C709 1.390 . S
C705 C699 1.465 . S
C705 C704 1.396 1_545 S
C705 C706 1.399 . S
C706 H692 0.929 . S
C706 C705 1.399 . S
C706 C707 1.385 . S
C707 H693 0.931 . S
C707 C706 1.385 . S
C707 C708 1.389 . S
C708 C707 1.389 . S
C708 C709 1.387 1_545 S
C709 H694 0.930 . S
C709 C704 1.390 . S
C709 C708 1.387 1_565 S
H710 C722 0.930 . S
H711 C724 0.930 . S
H712 C725 0.930 . S
H713 C729 0.959 . S
H714 C729 0.959 . S
H715 C729 0.961 . S
H716 C730 0.960 . S
H717 C730 0.961 . S
H718 C730 0.959 . S
H719 C733 0.929 . S
H720 C734 0.931 . S
H721 C736 0.930 . S
C722 H710 0.930 . S
C722 C723 1.399 . S
C722 C727 1.399 . S
C723 C722 1.399 . S
C723 C724 1.376 . S
C724 H711 0.930 . S
C724 C723 1.376 . S
C724 C725 1.388 . S
C725 H712 0.930 . S
C725 C724 1.388 . S
C725 C726 1.390 . S
C726 C725 1.390 . S
C726 C727 1.394 . S
C726 C732 1.465 . S
C727 C722 1.399 . S
C727 C726 1.394 . S
C727 C728 1.516 . S
C728 C727 1.516 . S
C728 C729 1.502 . S
C728 C730 1.561 . S
C728 C731 1.526 . S
C729 H713 0.959 . S
C729 H714 0.959 . S
C729 H715 0.961 . S
C729 C728 1.502 . S
C730 H716 0.960 . S
C730 H717 0.961 . S
C730 H718 0.959 . S
C730 C728 1.561 . S
C731 C728 1.526 . S
C731 C732 1.396 . S
C731 C736 1.390 . S
C732 C726 1.465 . S
C732 C731 1.396 . S
C732 C733 1.399 . S
C733 H719 0.929 . S
C733 C732 1.399 . S
C733 C734 1.385 . S
C734 H720 0.931 . S
C734 C733 1.385 . S
C734 C735 1.389 . S
C735 C734 1.389 . S
C735 C736 1.387 . S
C736 H721 0.930 . S
C736 C731 1.390 . S
C736 C735 1.387 . S
H737 C749 0.930 . S
H738 C751 0.930 . S
H739 C752 0.930 . S
H740 C756 0.959 . S
H741 C756 0.959 . S
H742 C756 0.961 . S
H743 C757 0.960 . S
H744 C757 0.961 . S
H745 C757 0.959 . S
H746 C760 0.929 . S
H747 C761 0.931 . S
H748 C763 0.930 . S
C749 H737 0.930 . S
C749 C750 1.399 . S
C749 C754 1.399 . S
C750 C749 1.399 . S
C750 C751 1.376 . S
C751 H738 0.930 . S
C751 C750 1.376 . S
C751 C752 1.388 . S
C752 H739 0.930 . S
C752 C751 1.388 . S
C752 C753 1.390 . S
C753 C752 1.390 . S
C753 C754 1.394 . S
C753 C759 1.465 . S
C754 C749 1.399 . S
C754 C753 1.394 . S
C754 C755 1.516 . S
C755 C754 1.516 . S
C755 C756 1.502 . S
C755 C757 1.561 . S
C755 C758 1.526 . S
C756 H740 0.959 . S
C756 H741 0.959 . S
C756 H742 0.961 . S
C756 C755 1.502 . S
C757 H743 0.960 . S
C757 H744 0.961 . S
C757 H745 0.959 . S
C757 C755 1.561 . S
C758 C755 1.526 . S
C758 C759 1.396 . S
C758 C763 1.390 . S
C759 C753 1.465 . S
C759 C758 1.396 . S
C759 C760 1.399 . S
C760 H746 0.929 . S
C760 C759 1.399 . S
C760 C761 1.385 . S
C761 H747 0.931 . S
C761 C760 1.385 . S
C761 C762 1.389 . S
C762 C761 1.389 . S
C762 C763 1.387 . S
C763 H748 0.930 . S
C763 C758 1.390 . S
C763 C762 1.387 . S
H764 C776 0.930 . S
H765 C778 0.930 . S
H766 C779 0.930 . S
H767 C783 0.959 . S
H768 C783 0.959 . S
H769 C783 0.961 . S
H770 C784 0.960 1_655 S
H771 C784 0.961 1_655 S
H772 C784 0.959 . S
H773 C787 0.929 . S
H774 C788 0.931 . S
H775 C790 0.930 . S
C776 H764 0.930 . S
C776 C777 1.399 . S
C776 C781 1.399 . S
C777 C776 1.399 . S
C777 C778 1.376 1_655 S
C778 H765 0.930 . S
C778 C777 1.376 1_455 S
C778 C779 1.388 . S
C779 H766 0.930 . S
C779 C778 1.388 . S
C779 C780 1.390 1_455 S
C780 C779 1.390 1_655 S
C780 C781 1.394 . S
C780 C786 1.465 . S
C781 C776 1.399 . S
C781 C780 1.394 . S
C781 C782 1.516 . S
C782 C781 1.516 . S
C782 C783 1.502 . S
C782 C784 1.561 1_655 S
C782 C785 1.526 . S
C783 H767 0.959 . S
C783 H768 0.959 . S
C783 H769 0.961 . S
C783 C782 1.502 . S
C784 H770 0.960 1_455 S
C784 H771 0.961 1_455 S
C784 H772 0.959 . S
C784 C782 1.561 1_455 S
C785 C782 1.526 . S
C785 C786 1.396 . S
C785 C790 1.390 . S
C786 C780 1.465 . S
C786 C785 1.396 . S
C786 C787 1.399 1_655 S
C787 H773 0.929 . S
C787 C786 1.399 1_455 S
C787 C788 1.385 . S
C788 H774 0.931 . S
C788 C787 1.385 . S
C788 C789 1.389 1_455 S
C789 C788 1.389 1_655 S
C789 C790 1.387 . S
C790 H775 0.930 . S
C790 C785 1.390 . S
C790 C789 1.387 . S
H791 C803 0.930 . S
H792 C805 0.930 . S
H793 C806 0.930 . S
H794 C810 0.959 . S
H795 C810 0.959 . S
H796 C810 0.961 . S
H797 C811 0.960 . S
H798 C811 0.961 . S
H799 C811 0.959 . S
H800 C814 0.929 . S
H801 C815 0.931 . S
H802 C817 0.930 . S
C803 H791 0.930 . S
C803 C804 1.399 1_545 S
C803 C808 1.399 . S
C804 C803 1.399 1_565 S
C804 C805 1.376 . S
C805 H792 0.930 . S
C805 C804 1.376 . S
C805 C806 1.388 . S
C806 H793 0.930 . S
C806 C805 1.388 . S
C806 C807 1.390 . S
C807 C806 1.390 . S
C807 C808 1.394 1_565 S
C807 C813 1.465 . S
C808 C803 1.399 . S
C808 C807 1.394 1_545 S
C808 C809 1.516 . S
C809 C808 1.516 . S
C809 C810 1.502 . S
C809 C811 1.561 . S
C809 C812 1.526 . S
C810 H794 0.959 . S
C810 H795 0.959 . S
C810 H796 0.961 . S
C810 C809 1.502 . S
C811 H797 0.960 . S
C811 H798 0.961 . S
C811 H799 0.959 . S
C811 C809 1.561 . S
C812 C809 1.526 . S
C812 C813 1.396 1_545 S
C812 C817 1.390 . S
C813 C807 1.465 . S
C813 C812 1.396 1_565 S
C813 C814 1.399 . S
C814 H800 0.929 . S
C814 C813 1.399 . S
C814 C815 1.385 . S
C815 H801 0.931 . S
C815 C814 1.385 . S
C815 C816 1.389 . S
C816 C815 1.389 . S
C816 C817 1.387 1_565 S
C817 H802 0.930 . S
C817 C812 1.390 . S
C817 C816 1.387 1_545 S
H818 C830 0.930 . S
H819 C832 0.930 . S
H820 C833 0.930 . S
H821 C837 0.959 . S
H822 C837 0.959 . S
H823 C837 0.961 . S
H824 C838 0.960 . S
H825 C838 0.961 . S
H826 C838 0.959 . S
H827 C841 0.929 . S
H828 C842 0.931 . S
H829 C844 0.930 . S
C830 H818 0.930 . S
C830 C831 1.399 . S
C830 C835 1.399 . S
C831 C830 1.399 . S
C831 C832 1.376 . S
C832 H819 0.930 . S
C832 C831 1.376 . S
C832 C833 1.388 . S
C833 H820 0.930 . S
C833 C832 1.388 . S
C833 C834 1.390 . S
C834 C833 1.390 . S
C834 C835 1.394 . S
C834 C840 1.465 . S
C835 C830 1.399 . S
C835 C834 1.394 . S
C835 C836 1.516 . S
C836 C835 1.516 . S
C836 C837 1.502 . S
C836 C838 1.561 . S
C836 C839 1.526 . S
C837 H821 0.959 . S
C837 H822 0.959 . S
C837 H823 0.961 . S
C837 C836 1.502 . S
C838 H824 0.960 . S
C838 H825 0.961 . S
C838 H826 0.959 . S
C838 C836 1.561 . S
C839 C836 1.526 . S
C839 C840 1.396 . S
C839 C844 1.390 . S
C840 C834 1.465 . S
C840 C839 1.396 . S
C840 C841 1.399 . S
C841 H827 0.929 . S
C841 C840 1.399 . S
C841 C842 1.385 . S
C842 H828 0.931 . S
C842 C841 1.385 . S
C842 C843 1.389 . S
C843 C842 1.389 . S
C843 C844 1.387 . S
C844 H829 0.930 . S
C844 C839 1.390 . S
C844 C843 1.387 . S
H845 C857 0.930 . S
H846 C859 0.930 . S
H847 C860 0.930 . S
H848 C864 0.959 . S
H849 C864 0.959 . S
H850 C864 0.961 . S
H851 C865 0.960 . S
H852 C865 0.961 . S
H853 C865 0.959 . S
H854 C868 0.929 . S
H855 C869 0.931 . S
H856 C871 0.930 . S
C857 H845 0.930 . S
C857 C858 1.399 . S
C857 C862 1.399 . S
C858 C857 1.399 . S
C858 C859 1.376 . S
C859 H846 0.930 . S
C859 C858 1.376 . S
C859 C860 1.388 . S
C860 H847 0.930 . S
C860 C859 1.388 . S
C860 C861 1.390 . S
C861 C860 1.390 . S
C861 C862 1.394 . S
C861 C867 1.465 . S
C862 C857 1.399 . S
C862 C861 1.394 . S
C862 C863 1.516 . S
C863 C862 1.516 . S
C863 C864 1.502 . S
C863 C865 1.561 . S
C863 C866 1.526 . S
C864 H848 0.959 . S
C864 H849 0.959 . S
C864 H850 0.961 . S
C864 C863 1.502 . S
C865 H851 0.960 . S
C865 H852 0.961 . S
C865 H853 0.959 . S
C865 C863 1.561 . S
C866 C863 1.526 . S
C866 C867 1.396 . S
C866 C871 1.390 . S
C867 C861 1.465 . S
C867 C866 1.396 . S
C867 C868 1.399 . S
C868 H854 0.929 . S
C868 C867 1.399 . S
C868 C869 1.385 . S
C869 H855 0.931 . S
C869 C868 1.385 . S
C869 C870 1.389 . S
C870 C869 1.389 . S
C870 C871 1.387 . S
C871 H856 0.930 . S
C871 C866 1.390 . S
C871 C870 1.387 . S
H872 C884 0.930 . S
H873 C886 0.930 . S
H874 C887 0.930 . S
H875 C891 0.959 . S
H876 C891 0.959 . S
H877 C891 0.961 . S
H878 C892 0.960 . S
H879 C892 0.961 . S
H880 C892 0.959 . S
H881 C895 0.929 . S
H882 C896 0.931 . S
H883 C898 0.935 1_455 S
C884 H872 0.930 . S
C884 C885 1.399 . S
C884 C889 1.399 . S
C885 C884 1.399 . S
C885 C886 1.376 1_455 S
C886 H873 0.930 . S
C886 C885 1.376 1_655 S
C886 C887 1.388 1_554 S
C887 H874 0.930 . S
C887 C886 1.388 1_556 S
C887 C888 1.390 . S
C888 C887 1.390 . S
C888 C889 1.394 1_656 S
C888 C894 1.465 . S
C889 C884 1.399 . S
C889 C888 1.394 1_454 S
C889 C890 1.516 . S
C890 C889 1.516 . S
C890 C891 1.502 . S
C890 C892 1.561 1_455 S
C890 C893 1.526 1_454 S
C891 H875 0.959 . S
C891 H876 0.959 . S
C891 H877 0.961 . S
C891 C890 1.502 . S
C892 H878 0.960 . S
C892 H879 0.961 . S
C892 H880 0.959 . S
C892 C890 1.561 1_655 S
C893 C890 1.526 1_656 S
C893 C894 1.396 . S
C893 C898 1.390 . S
C894 C888 1.465 . S
C894 C893 1.396 . S
C894 C895 1.399 . S
C895 H881 0.929 . S
C895 C894 1.399 . S
C895 C896 1.385 . S
C896 H882 0.931 . S
C896 C895 1.385 . S
C896 C897 1.389 . S
C897 C896 1.389 . S
C897 C898 1.392 . S
C898 H883 0.935 1_655 S
C898 C893 1.390 . S
C898 C897 1.392 . S
H899 C911 0.930 . S
H900 C913 0.930 . S
H901 C914 0.930 . S
H902 C918 0.959 . S
H903 C918 0.959 1_655 S
H904 C918 0.961 . S
H905 C919 0.960 . S
H906 C919 0.961 . S
H907 C919 0.959 . S
H908 C922 0.929 . S
H909 C923 0.931 . S
H910 C925 0.930 . S
C911 H899 0.930 . S
C911 C912 1.399 1_545 S
C911 C916 1.399 . S
C912 C911 1.399 1_565 S
C912 C913 1.376 . S
C913 H900 0.930 . S
C913 C912 1.376 . S
C913 C914 1.388 . S
C914 H901 0.930 . S
C914 C913 1.388 . S
C914 C915 1.390 . S
C915 C914 1.390 . S
C915 C916 1.394 1_565 S
C915 C921 1.465 1_456 S
C916 C911 1.399 . S
C916 C915 1.394 1_545 S
C916 C917 1.516 1_455 S
C917 C916 1.516 1_655 S
C917 C918 1.502 1_656 S
C917 C919 1.561 . S
C917 C920 1.526 1_556 S
C918 H902 0.959 . S
C918 H903 0.959 1_455 S
C918 H904 0.961 . S
C918 C917 1.502 1_454 S
C919 H905 0.960 . S
C919 H906 0.961 . S
C919 H907 0.959 . S
C919 C917 1.561 . S
C920 C917 1.526 1_554 S
C920 C921 1.396 1_545 S
C920 C925 1.390 . S
C921 C915 1.465 1_654 S
C921 C920 1.396 1_565 S
C921 C922 1.399 . S
C922 H908 0.929 . S
C922 C921 1.399 . S
C922 C923 1.385 . S
C923 H909 0.931 . S
C923 C922 1.385 . S
C923 C924 1.389 1_565 S
C924 C923 1.389 1_545 S
C924 C925 1.387 . S
C925 H910 0.930 . S
C925 C920 1.390 . S
C925 C924 1.387 . S
H926 C938 0.930 . S
H927 C940 0.930 . S
H928 C941 0.930 . S
H929 C945 0.959 . S
H930 C945 0.959 . S
H931 C945 0.961 . S
H932 C946 0.960 . S
H933 C946 0.961 . S
H934 C946 0.959 . S
H935 C949 0.929 1_565 S
H936 C950 0.931 . S
H937 C952 0.918 1_554 S
C938 H926 0.930 . S
C938 C939 1.399 . S
C938 C943 1.399 . S
C939 C938 1.399 . S
C939 C940 1.376 . S
C940 H927 0.930 . S
C940 C939 1.376 . S
C940 C941 1.388 1_554 S
C941 H928 0.930 . S
C941 C940 1.388 1_556 S
C941 C942 1.390 . S
C942 C941 1.390 . S
C942 C943 1.394 1_556 S
C942 C948 1.465 1_565 S
C943 C938 1.399 . S
C943 C942 1.394 1_554 S
C943 C944 1.516 1_565 S
C944 C943 1.516 1_545 S
C944 C945 1.502 . S
C944 C946 1.561 . S
C944 C947 1.526 1_554 S
C945 H929 0.959 . S
C945 H930 0.959 . S
C945 H931 0.961 . S
C945 C944 1.502 . S
C946 H932 0.960 . S
C946 H933 0.961 . S
C946 H934 0.959 . S
C946 C944 1.561 . S
C947 C944 1.526 1_556 S
C947 C948 1.396 . S
C947 C952 1.390 . S
C948 C942 1.465 1_545 S
C948 C947 1.396 . S
C948 C949 1.399 . S
C949 H935 0.929 1_545 S
C949 C948 1.399 . S
C949 C950 1.385 . S
C950 H936 0.931 . S
C950 C949 1.385 . S
C950 C951 1.389 . S
C951 C950 1.389 . S
C951 C952 1.387 . S
C952 H937 0.918 1_556 S
C952 C947 1.390 . S
C952 C951 1.387 . S
H953 C965 0.930 . S
H954 C967 0.930 . S
H955 C968 0.930 1_554 S
H956 C972 0.959 . S
H957 C972 0.959 . S
H958 C972 0.961 . S
H959 C973 0.960 . S
H960 C973 0.961 . S
H961 C973 0.959 . S
H962 C976 0.929 . S
H963 C977 0.931 . S
H964 C979 0.930 . S
C965 H953 0.930 . S
C965 C966 1.399 . S
C965 C970 1.399 . S
C966 C965 1.399 . S
C966 C967 1.376 . S
C967 H954 0.930 . S
C967 C966 1.376 . S
C967 C968 1.388 . S
C968 H955 0.930 1_556 S
C968 C967 1.388 . S
C968 C969 1.390 . S
C969 C968 1.390 . S
C969 C970 1.394 . S
C969 C975 1.465 1_556 S
C970 C965 1.399 . S
C970 C969 1.394 . S
C970 C971 1.516 . S
C971 C970 1.516 . S
C971 C972 1.502 . S
C971 C973 1.561 1_556 S
C971 C974 1.526 1_556 S
C972 H956 0.959 . S
C972 H957 0.959 . S
C972 H958 0.961 . S
C972 C971 1.502 . S
C973 H959 0.960 . S
C973 H960 0.961 . S
C973 H961 0.959 . S
C973 C971 1.561 1_554 S
C974 C971 1.526 1_554 S
C974 C975 1.396 . S
C974 C979 1.390 . S
C975 C969 1.465 1_554 S
C975 C974 1.396 . S
C975 C976 1.399 . S
C976 H962 0.929 . S
C976 C975 1.399 . S
C976 C977 1.385 . S
C977 H963 0.931 . S
C977 C976 1.385 . S
C977 C978 1.389 . S
C978 C977 1.389 . S
C978 C979 1.387 . S
C979 H964 0.930 . S
C979 C974 1.390 . S
C979 C978 1.387 . S
H980 C992 0.930 . S
H981 C994 0.930 . S
H982 C995 0.930 . S
H983 C999 0.959 . S
H984 C999 0.959 . S
H985 C999 0.961 . S
H986 C1000 0.960 1_455 S
H987 C1000 0.961 1_455 S
H988 C1000 0.959 . S
H989 C1003 0.929 1_565 S
H990 C1004 0.931 . S
H991 C1006 0.930 . S
C992 H980 0.930 . S
C992 C993 1.399 . S
C992 C997 1.399 . S
C993 C992 1.399 . S
C993 C994 1.376 1_455 S
C994 H981 0.930 . S
C994 C993 1.376 1_655 S
C994 C995 1.388 . S
C995 H982 0.930 . S
C995 C994 1.388 . S
C995 C996 1.390 . S
C996 C995 1.390 . S
C996 C997 1.394 1_655 S
C996 C1002 1.465 1_565 S
C997 C992 1.399 . S
C997 C996 1.394 1_455 S
C997 C998 1.516 1_565 S
C998 C997 1.516 1_545 S
C998 C999 1.502 . S
C998 C1000 1.561 1_455 S
C998 C1001 1.526 . S
C999 H983 0.959 . S
C999 H984 0.959 . S
C999 H985 0.961 . S
C999 C998 1.502 . S
C1000 H986 0.960 1_655 S
C1000 H987 0.961 1_655 S
C1000 H988 0.959 . S
C1000 C998 1.561 1_655 S
C1001 C998 1.526 . S
C1001 C1002 1.396 1_455 S
C1001 C1006 1.390 . S
C1002 C996 1.465 1_545 S
C1002 C1001 1.396 1_655 S
C1002 C1003 1.399 . S
C1003 H989 0.929 1_545 S
C1003 C1002 1.399 . S
C1003 C1004 1.385 . S
C1004 H990 0.931 . S
C1004 C1003 1.385 . S
C1004 C1005 1.389 . S
C1005 C1004 1.389 . S
C1005 C1006 1.387 1_655 S
C1006 H991 0.930 . S
C1006 C1001 1.390 . S
C1006 C1005 1.387 1_455 S
H1007 C1019 0.930 . S
H1008 C1021 0.930 . S
H1009 C1022 0.930 . S
H1010 C1026 0.959 . S
H1011 C1026 0.959 . S
H1012 C1026 0.961 . S
H1013 C1027 0.960 . S
H1014 C1027 0.961 . S
H1015 C1027 0.959 . S
H1016 C1030 0.929 . S
H1017 C1031 0.931 . S
H1018 C1033 0.930 . S
C1019 H1007 0.930 . S
C1019 C1020 1.399 1_565 S
C1019 C1024 1.399 . S
C1020 C1019 1.399 1_545 S
C1020 C1021 1.376 . S
C1021 H1008 0.930 . S
C1021 C1020 1.376 . S
C1021 C1022 1.388 . S
C1022 H1009 0.930 . S
C1022 C1021 1.388 . S
C1022 C1023 1.390 . S
C1023 C1022 1.390 . S
C1023 C1024 1.394 1_545 S
C1023 C1029 1.465 . S
C1024 C1019 1.399 . S
C1024 C1023 1.394 1_565 S
C1024 C1025 1.516 . S
C1025 C1024 1.516 . S
C1025 C1026 1.502 . S
C1025 C1027 1.561 1_565 S
C1025 C1028 1.526 . S
C1026 H1010 0.959 . S
C1026 H1011 0.959 . S
C1026 H1012 0.961 . S
C1026 C1025 1.502 . S
C1027 H1013 0.960 . S
C1027 H1014 0.961 . S
C1027 H1015 0.959 . S
C1027 C1025 1.561 1_545 S
C1028 C1025 1.526 . S
C1028 C1029 1.396 1_565 S
C1028 C1033 1.390 . S
C1029 C1023 1.465 . S
C1029 C1028 1.396 1_545 S
C1029 C1030 1.399 . S
C1030 H1016 0.929 . S
C1030 C1029 1.399 . S
C1030 C1031 1.385 . S
C1031 H1017 0.931 . S
C1031 C1030 1.385 . S
C1031 C1032 1.389 1_545 S
C1032 C1031 1.389 1_565 S
C1032 C1033 1.387 . S
C1033 H1018 0.930 . S
C1033 C1028 1.390 . S
C1033 C1032 1.387 . S
H1034 C1046 0.930 . S
H1035 C1048 0.930 . S
H1036 C1049 0.930 . S
H1037 C1053 0.959 . S
H1038 C1053 0.959 . S
H1039 C1053 0.961 . S
H1040 C1054 0.960 . S
H1041 C1054 0.961 . S
H1042 C1054 0.959 . S
H1043 C1057 0.929 . S
H1044 C1058 0.931 . S
H1045 C1060 0.930 . S
C1046 H1034 0.930 . S
C1046 C1047 1.399 . S
C1046 C1051 1.399 . S
C1047 C1046 1.399 . S
C1047 C1048 1.376 . S
C1048 H1035 0.930 . S
C1048 C1047 1.376 . S
C1048 C1049 1.388 . S
C1049 H1036 0.930 . S
C1049 C1048 1.388 . S
C1049 C1050 1.390 . S
C1050 C1049 1.390 . S
C1050 C1051 1.394 . S
C1050 C1056 1.465 . S
C1051 C1046 1.399 . S
C1051 C1050 1.394 . S
C1051 C1052 1.516 . S
C1052 C1051 1.516 . S
C1052 C1053 1.502 . S
C1052 C1054 1.561 . S
C1052 C1055 1.526 . S
C1053 H1037 0.959 . S
C1053 H1038 0.959 . S
C1053 H1039 0.961 . S
C1053 C1052 1.502 . S
C1054 H1040 0.960 . S
C1054 H1041 0.961 . S
C1054 H1042 0.959 . S
C1054 C1052 1.561 . S
C1055 C1052 1.526 . S
C1055 C1056 1.396 . S
C1055 C1060 1.390 . S
C1056 C1050 1.465 . S
C1056 C1055 1.396 . S
C1056 C1057 1.399 . S
C1057 H1043 0.929 . S
C1057 C1056 1.399 . S
C1057 C1058 1.385 . S
C1058 H1044 0.931 . S
C1058 C1057 1.385 . S
C1058 C1059 1.389 . S
C1059 C1058 1.389 . S
C1059 C1060 1.387 . S
C1060 H1045 0.930 . S
C1060 C1055 1.390 . S
C1060 C1059 1.387 . S
H1061 C1073 0.930 . S
H1062 C1075 0.930 . S
H1063 C1076 0.930 . S
H1064 C1080 0.959 . S
H1065 C1080 0.959 . S
H1066 C1080 0.961 . S
H1067 C1081 0.960 1_655 S
H1068 C1081 0.961 . S
H1069 C1081 0.959 . S
H1070 C1084 0.929 . S
H1071 C1085 0.931 . S
H1072 C1087 0.930 . S
C1073 H1061 0.930 . S
C1073 C1074 1.399 . S
C1073 C1078 1.399 . S
C1074 C1073 1.399 . S
C1074 C1075 1.376 . S
C1075 H1062 0.930 . S
C1075 C1074 1.376 . S
C1075 C1076 1.388 . S
C1076 H1063 0.930 . S
C1076 C1075 1.388 . S
C1076 C1077 1.390 . S
C1077 C1076 1.390 . S
C1077 C1078 1.394 . S
C1077 C1083 1.465 1_655 S
C1078 C1073 1.399 . S
C1078 C1077 1.394 . S
C1078 C1079 1.516 . S
C1079 C1078 1.516 . S
C1079 C1080 1.502 . S
C1079 C1081 1.561 1_655 S
C1079 C1082 1.526 1_655 S
C1080 H1064 0.959 . S
C1080 H1065 0.959 . S
C1080 H1066 0.961 . S
C1080 C1079 1.502 . S
C1081 H1067 0.960 1_455 S
C1081 H1068 0.961 . S
C1081 H1069 0.959 . S
C1081 C1079 1.561 1_455 S
C1082 C1079 1.526 1_455 S
C1082 C1083 1.396 . S
C1082 C1087 1.390 . S
C1083 C1077 1.465 1_455 S
C1083 C1082 1.396 . S
C1083 C1084 1.399 . S
C1084 H1070 0.929 . S
C1084 C1083 1.399 . S
C1084 C1085 1.385 . S
C1085 H1071 0.931 . S
C1085 C1084 1.385 . S
C1085 C1086 1.389 . S
C1086 C1085 1.389 . S
C1086 C1087 1.387 . S
C1087 H1072 0.930 . S
C1087 C1082 1.390 . S
C1087 C1086 1.387 . S
C237 C0 1.583 . S
C249 C28 1.611 . S
C264 C14 1.646 . S
C276 C42 1.622 . S
C291 C56 1.583 . S
C303 C84 1.612 . S
C318 C98 1.646 . S
C330 C70 1.624 . S
C345 C112 1.598 . S
C357 C140 1.645 . S
C372 C154 1.603 . S
C384 C126 1.591 . S
C399 C196 1.616 . S
C411 C168 1.585 . S
C426 C210 1.630 . S
C438 C182 1.584 . S
C453 C107 1.166 . S
C465 C9 1.166 1_655 S
C480 C23 1.191 1_565 S
C492 C65 1.181 . S
C507 C79 1.166 1_565 S
C519 C37 1.166 . S
C534 C51 1.217 . S
C546 C93 1.212 . S
C561 C219 1.194 . S
C573 C121 1.166 1_455 S
C588 C135 1.197 . S
C600 C177 1.215 1_455 S
C615 C149 1.194 . S
C627 C191 1.166 1_545 S
C642 C205 1.167 . S
C654 C163 1.172 . S
C669 C5 0.825 . S
C681 C61 0.948 . S
C696 C19 0.741 . S
C708 C75 0.868 . S
C723 C89 0.826 . S
C735 C33 0.948 . S
C750 C47 0.939 . S
C762 C103 0.854 . S
C777 C173 0.945 . S
C789 C117 0.775 . S
C804 C187 0.906 . S
C816 C131 0.759 . S
C831 C145 0.748 . S
C843 C201 0.916 . S
C858 C159 0.913 . S
C870 C215 0.754 . S
C885 C11 1.792 . S
C897 C123 1.730 . S
C912 C137 1.743 . S
C924 C25 1.773 . S
C939 C39 1.796 . S
C951 C151 1.730 . S
C966 C165 1.791 . S
C978 C53 1.741 . S
C993 C67 1.786 . S
C1005 C179 1.733 . S
C1020 C81 1.734 . S
C1032 C193 1.794 . S
C1047 C207 1.746 . S
C1059 C95 1.787 . S
C1074 C109 1.744 . S
C1086 C221 1.772 . S
