# Generated by pormake.
# Topology sra, (4)-cn, num edge types: 1
# Building blocks:
#     Node 0, Type 0, BuildingBlock: AZAVOO_clean_sbu_0, # of connection points: 4
#     Node 1, Type 0, BuildingBlock: AZAVOO_clean_sbu_0, # of connection points: 4
#     Node 2, Type 0, BuildingBlock: AZAVOO_clean_sbu_0, # of connection points: 4
#     Node 3, Type 0, BuildingBlock: AZAVOO_clean_sbu_0, # of connection points: 4
#     Node 4, Type 0, BuildingBlock: AZAVOO_clean_sbu_0, # of connection points: 4
#     Node 5, Type 0, BuildingBlock: AZAVOO_clean_sbu_0, # of connection points: 4
#     Node 6, Type 0, BuildingBlock: AZAVOO_clean_sbu_0, # of connection points: 4
#     Node 7, Type 0, BuildingBlock: AZAVOO_clean_sbu_0, # of connection points: 4
#     Edge 8, Type (0, 0), BuildingBlock: KIFKEQ_clean_linker_1, # of connection points: 2
#     Edge 9, Type (0, 0), BuildingBlock: KIFKEQ_clean_linker_1, # of connection points: 2
#     Edge 10, Type (0, 0), BuildingBlock: KIFKEQ_clean_linker_1, # of connection points: 2
#     Edge 11, Type (0, 0), BuildingBlock: KIFKEQ_clean_linker_1, # of connection points: 2
#     Edge 12, Type (0, 0), BuildingBlock: KIFKEQ_clean_linker_1, # of connection points: 2
#     Edge 13, Type (0, 0), BuildingBlock: KIFKEQ_clean_linker_1, # of connection points: 2
#     Edge 14, Type (0, 0), BuildingBlock: KIFKEQ_clean_linker_1, # of connection points: 2
#     Edge 15, Type (0, 0), BuildingBlock: KIFKEQ_clean_linker_1, # of connection points: 2
#     Edge 16, Type (0, 0), BuildingBlock: KIFKEQ_clean_linker_1, # of connection points: 2
#     Edge 17, Type (0, 0), BuildingBlock: KIFKEQ_clean_linker_1, # of connection points: 2
#     Edge 18, Type (0, 0), BuildingBlock: KIFKEQ_clean_linker_1, # of connection points: 2
#     Edge 19, Type (0, 0), BuildingBlock: KIFKEQ_clean_linker_1, # of connection points: 2
#     Edge 20, Type (0, 0), BuildingBlock: KIFKEQ_clean_linker_1, # of connection points: 2
#     Edge 21, Type (0, 0), BuildingBlock: KIFKEQ_clean_linker_1, # of connection points: 2
#     Edge 22, Type (0, 0), BuildingBlock: KIFKEQ_clean_linker_1, # of connection points: 2
#     Edge 23, Type (0, 0), BuildingBlock: KIFKEQ_clean_linker_1, # of connection points: 2
# Relax obj value: 0.077
# Max RMSD: 0.074
# Mean RMSD: 0.074
data_MOF--net-sra--node1-AZAVOO_clean_sbu_0--edge1-KIFKEQ_clean_linker_1
_symmetry_space_group_name_H-M    P1
_symmetry_Int_Tables_number       1
_symmetry_cell_setting            triclinic
loop_
_symmetry_equiv_pos_as_xyz
'x, y, z'
_cell_length_a     27.680007
_cell_length_b     39.766956
_cell_length_c     45.156795
_cell_angle_alpha  90.059705
_cell_angle_beta   89.965186
_cell_angle_gamma 90.010018
loop_
_atom_site_label
_atom_site_type_symbol
_atom_site_fract_x
_atom_site_fract_y
_atom_site_fract_z
_atom_type_partial_charge
Mg0 Mg 0.02327 0.04607 0.16451 0.0
O1 O 0.02654 0.10379 0.16062 0.0
O2 O 0.09521 0.11745 0.13754 0.0
Mg3 Mg 0.13451 0.069 0.12556 0.0
C4 C 0.0558 0.12572 0.15028 0.0
C5 C 0.92185 0.02237 0.18448 0.0
O6 O 0.94219 0.99342 0.17805 0.0
O7 O 0.0027 0.0413 0.11581 0.0
O8 O 0.0726 0.05482 0.09389 0.0
O9 O 0.0636 0.04805 0.2068 0.0
O10 O 0.09862 0.04365 0.16294 0.0
C11 C 0.02833 0.04578 0.09263 0.0
C12 C 0.10285 0.04698 0.19124 0.0
O13 O 0.94513 0.04934 0.17966 0.0
Mg14 Mg -0.00266 0.45214 0.16663 0.0
O15 O -0.00292 0.39441 0.16155 0.0
O16 O 0.9294 0.38015 0.13767 0.0
Mg17 Mg 0.88809 0.42787 0.12625 0.0
C18 C 0.96883 0.37224 0.15052 0.0
C19 C 0.08605 0.47205 0.2022 0.0
O20 O 0.05249 0.49305 0.21127 0.0
O21 O 0.01871 0.45866 0.11821 0.0
O22 O 0.95005 0.44415 0.09539 0.0
O23 O 0.95603 0.44799 0.20854 0.0
O24 O 0.92193 0.45283 0.1645 0.0
C25 C -0.0061 0.45421 0.09472 0.0
C26 C 0.91713 0.44858 0.19266 0.0
O27 O 0.07556 0.45093 0.18206 0.0
Mg28 Mg 0.01262 0.95387 0.81917 0.0
O29 O 0.01533 0.89641 0.82618 0.0
O30 O 0.08597 0.88428 0.8477 0.0
Mg31 Mg 0.1269 0.93309 0.85576 0.0
C32 C 0.04548 0.87521 0.83677 0.0
C33 C 0.92122 0.96479 0.78295 0.0
O34 O 0.95494 0.97989 0.76738 0.0
O35 O -0.00352 0.96222 0.86815 0.0
O36 O 0.06782 0.94954 0.88858 0.0
O37 O 0.04923 0.9483 0.77563 0.0
O38 O 0.0879 0.95505 0.81807 0.0
C39 C 0.02383 0.95899 0.89071 0.0
C40 C 0.08964 0.9495 0.78996 0.0
O41 O 0.93279 0.95109 0.80736 0.0
Mg42 Mg 0.00226 0.54825 0.82319 0.0
O43 O -0.00201 0.6057 0.82929 0.0
O44 O 0.92869 0.61777 0.85238 0.0
Mg45 Mg 0.89007 0.56854 0.8625 0.0
C46 C 0.96816 0.62692 0.84019 0.0
C47 C 0.09098 0.54374 0.78277 0.0
O48 O 0.05615 0.53157 0.76617 0.0
O49 O 0.02213 0.5412 0.8718 0.0
O50 O 0.95188 0.55351 0.89386 0.0
O51 O 0.96202 0.55232 0.78084 0.0
O52 O 0.92667 0.54532 0.82427 0.0
C53 C -0.0038 0.54462 0.895 0.0
C54 C 0.92265 0.55017 0.79615 0.0
O55 O 0.08123 0.55281 0.80912 0.0
Mg56 Mg 0.52151 0.54288 0.66595 0.0
O57 O 0.52335 0.60047 0.65986 0.0
O58 O 0.59324 0.61389 0.63802 0.0
Mg59 Mg 0.63479 0.56551 0.62897 0.0
C60 C 0.55276 0.62225 0.64941 0.0
C61 C 0.42765 0.56449 0.69842 0.0
O62 O 0.45916 0.58476 0.71088 0.0
O63 O 0.50489 0.53561 0.61697 0.0
O64 O 0.57563 0.54912 0.59614 0.0
O65 O 0.5586 0.54737 0.70936 0.0
O66 O 0.59678 0.5422 0.66654 0.0
C67 C 0.53174 0.53939 0.59423 0.0
C68 C 0.59887 0.54678 0.69479 0.0
O69 O 0.44173 0.54463 0.67809 0.0
Mg70 Mg 0.49319 0.94842 0.66252 0.0
O71 O 0.49272 0.89078 0.65696 0.0
O72 O 0.42467 0.87666 0.6334 0.0
Mg73 Mg 0.38328 0.92457 0.62259 0.0
C74 C 0.46434 0.86868 0.64597 0.0
C75 C 0.58118 0.95746 0.70297 0.0
O76 O 0.54547 0.96862 0.71943 0.0
O77 O 0.51362 0.95542 0.61407 0.0
O78 O 0.4448 0.94105 0.59137 0.0
O79 O 0.45259 0.94368 0.70463 0.0
O80 O 0.41764 0.94913 0.66091 0.0
C81 C 0.48863 0.95114 0.59062 0.0
C82 C 0.4134 0.94457 0.68906 0.0
O83 O 0.57204 0.94698 0.67695 0.0
Mg84 Mg 0.5138 0.44882 0.32035 0.0
O85 O 0.51705 0.39112 0.32546 0.0
O86 O 0.58757 0.37847 0.34686 0.0
Mg87 Mg 0.62821 0.42707 0.35637 0.0
C88 C 0.54727 0.36965 0.33552 0.0
C89 C 0.41506 0.47302 0.29847 0.0
O90 O 0.44134 0.50052 0.29744 0.0
O91 O 0.4976 0.45518 0.36957 0.0
O92 O 0.56918 0.44232 0.38961 0.0
O93 O 0.55068 0.44554 0.27667 0.0
O94 O 0.58898 0.45044 0.31944 0.0
C95 C 0.52509 0.45145 0.39202 0.0
C96 C 0.59099 0.4463 0.29116 0.0
O97 O 0.43409 0.44622 0.30837 0.0
Mg98 Mg 0.50701 0.04251 0.31838 0.0
O99 O 0.50182 0.10006 0.32381 0.0
O100 O 0.43189 0.11182 0.34634 0.0
Mg101 Mg 0.39359 0.06246 0.35642 0.0
C102 C 0.47146 0.12115 0.33437 0.0
C103 C 0.61223 0.02128 0.30281 0.0
O104 O 0.59508 0.99228 0.31195 0.0
O105 O 0.52596 0.03639 0.36726 0.0
O106 O 0.45481 0.04824 0.38842 0.0
O107 O 0.46825 0.0453 0.27549 0.0
O108 O 0.43176 0.03943 0.31879 0.0
C109 C 0.49926 0.0398 0.39013 0.0
C110 C 0.42854 0.04369 0.29055 0.0
O111 O 0.58559 0.04722 0.30439 0.0
H112 H 0.91363 0.31811 0.13487 0.0
H113 H 0.05335 0.34444 0.17089 0.0
H114 H 0.93508 0.25889 0.13695 0.0
H115 H 0.07451 0.28487 0.17325 0.0
H116 H 0.11248 0.17957 0.13563 0.0
H117 H 0.09168 0.23897 0.13775 0.0
H118 H 0.95121 0.21369 0.17296 0.0
H119 H 0.97166 0.15406 0.17056 0.0
C120 C 0.94888 0.31131 0.14336 0.0
C121 C 0.98184 0.33614 0.1526 0.0
C122 C 0.96099 0.27728 0.14476 0.0
C123 C 0.00644 0.26719 0.15531 0.0
C124 C 0.03935 0.29191 0.16477 0.0
C125 C 0.02713 0.32603 0.16353 0.0
C126 C 0.07717 0.18658 0.14393 0.0
C127 C 0.04363 0.16194 0.15276 0.0
C128 C 0.06542 0.2207 0.14534 0.0
C129 C 0.0198 0.23102 0.15548 0.0
C130 C 0.98649 0.20648 0.16473 0.0
C131 C -0.00169 0.17232 0.16347 0.0
H132 H 0.96069 0.84508 0.81959 0.0
H133 H 0.10367 0.82277 0.85276 0.0
H134 H 0.942 0.78506 0.81903 0.0
H135 H 0.08466 0.76309 0.8525 0.0
H136 H 0.0508 0.657 0.81959 0.0
H137 H 0.06882 0.717 0.81737 0.0
H138 H 0.92904 0.73931 0.85511 0.0
H139 H 0.91063 0.67951 0.85704 0.0
C140 C -0.01189 0.82746 0.82677 0.0
C141 C 0.03366 0.83883 0.83626 0.0
C142 C 0.97731 0.79308 0.82657 0.0
C143 C 0.01189 0.76935 0.83569 0.0
C144 C 0.05746 0.7807 0.84498 0.0
C145 C 0.06819 0.815 0.84532 0.0
C146 C 0.02384 0.67467 0.82736 0.0
C147 C 0.97932 0.66335 0.83857 0.0
C148 C 0.03426 0.70905 0.8262 0.0
C149 C 0.00034 0.73288 0.83608 0.0
C150 C 0.95569 0.7216 0.84701 0.0
C151 C 0.94533 0.68726 0.8483 0.0
H152 H 0.60896 0.67591 0.63368 0.0
H153 H 0.46735 0.65068 0.66757 0.0
H154 H 0.58756 0.73522 0.63426 0.0
H155 H 0.44627 0.71028 0.66842 0.0
H156 H 0.40953 0.81453 0.62967 0.0
H157 H 0.43095 0.75528 0.63198 0.0
H158 H 0.56967 0.78134 0.66922 0.0
H159 H 0.54858 0.84088 0.66665 0.0
C160 C 0.5733 0.68296 0.64137 0.0
C161 C 0.5398 0.65842 0.65045 0.0
C162 C 0.5612 0.71704 0.6419 0.0
C163 C 0.51526 0.72745 0.65139 0.0
C164 C 0.48182 0.703 0.66069 0.0
C165 C 0.49399 0.66886 0.66032 0.0
C166 C 0.44463 0.80774 0.63839 0.0
C167 C 0.4774 0.83257 0.64788 0.0
C168 C 0.45672 0.7737 0.63991 0.0
C169 C 0.50195 0.76362 0.65082 0.0
C170 C 0.53469 0.78836 0.66045 0.0
C171 C 0.52251 0.82247 0.65908 0.0
H172 H 0.46311 0.33984 0.3168 0.0
H173 H 0.6055 0.31686 0.35056 0.0
H174 H 0.44477 0.27982 0.31464 0.0
H175 H 0.58682 0.25718 0.34873 0.0
H176 H 0.55418 0.15173 0.3144 0.0
H177 H 0.57187 0.21181 0.31287 0.0
H178 H 0.4311 0.23325 0.3496 0.0
H179 H 0.41301 0.17341 0.35081 0.0
C180 C 0.49048 0.32207 0.32376 0.0
C181 C 0.53574 0.33326 0.33392 0.0
C182 C 0.47988 0.28769 0.32264 0.0
C183 C 0.51438 0.26376 0.33149 0.0
C184 C 0.5597 0.27494 0.34139 0.0
C185 C 0.57023 0.30924 0.34263 0.0
C186 C 0.52691 0.16923 0.32206 0.0
C187 C 0.48224 0.15765 0.33283 0.0
C188 C 0.53715 0.20366 0.3213 0.0
C189 C 0.50289 0.22727 0.33116 0.0
C190 C 0.45803 0.21573 0.34153 0.0
C191 C 0.44785 0.18135 0.34241 0.0
H192 H 0.34443 0.06882 0.31348 0.0
H193 H 0.40647 0.0267 0.234 0.0
H194 H 0.26641 0.07291 0.28918 0.0
H195 H 0.32792 0.02907 0.20994 0.0
H196 H 0.19035 0.06064 0.16541 0.0
H197 H 0.26883 0.06344 0.18922 0.0
H198 H 0.20216 0.03965 0.2733 0.0
H199 H 0.12341 0.03892 0.24964 0.0
C200 C 0.34125 0.06006 0.29093 0.0
C201 C 0.3814 0.04717 0.27573 0.0
C202 C 0.29641 0.06229 0.27694 0.0
C203 C 0.29051 0.05108 0.24759 0.0
C204 C 0.33105 0.03851 0.23235 0.0
C205 C 0.37608 0.03691 0.24618 0.0
C206 C 0.19234 0.05637 0.18899 0.0
C207 C 0.15059 0.04967 0.20562 0.0
C208 C 0.23753 0.05767 0.20268 0.0
C209 C 0.24213 0.05161 0.23324 0.0
C210 C 0.20014 0.0451 0.24985 0.0
C211 C 0.1549 0.04444 0.23624 0.0
H212 H 0.61316 0.46627 0.23537 0.0
H213 H 0.67357 0.41712 0.31198 0.0
H214 H 0.6917 0.46445 0.2111 0.0
H215 H 0.75155 0.41367 0.28742 0.0
H216 H 0.89535 0.45112 0.25135 0.0
H217 H 0.81619 0.44809 0.27433 0.0
H218 H 0.75121 0.43188 0.18839 0.0
H219 H 0.83017 0.43699 0.16536 0.0
C220 C 0.64316 0.45459 0.24681 0.0
C221 C 0.63755 0.44236 0.27573 0.0
C222 C 0.68819 0.45332 0.23286 0.0
C223 C 0.72835 0.43915 0.24735 0.0
C224 C 0.72193 0.42563 0.27587 0.0
C225 C 0.67714 0.42752 0.28999 0.0
C226 C 0.86418 0.44674 0.23737 0.0
C227 C 0.86913 0.44431 0.2065 0.0
C228 C 0.81868 0.44474 0.25059 0.0
C229 C 0.77702 0.43969 0.23329 0.0
C230 C 0.78225 0.4364 0.20243 0.0
C231 C 0.82772 0.439 0.18918 0.0
H232 H 0.11115 0.96624 0.73331 0.0
H233 H 0.17209 0.92075 0.81152 0.0
H234 H 0.18902 0.96212 0.70853 0.0
H235 H 0.24937 0.91488 0.78646 0.0
H236 H 0.39302 0.94925 0.74775 0.0
H237 H 0.31443 0.94761 0.77146 0.0
H238 H 0.24736 0.92797 0.68666 0.0
H239 H 0.32592 0.93169 0.66282 0.0
C240 C 0.14113 0.95486 0.74502 0.0
C241 C 0.13589 0.94436 0.77449 0.0
C242 C 0.18576 0.95225 0.73077 0.0
C243 C 0.22588 0.93837 0.7455 0.0
C244 C 0.2198 0.92656 0.77465 0.0
C245 C 0.17542 0.92985 0.78907 0.0
C246 C 0.36152 0.94438 0.73418 0.0
C247 C 0.36574 0.94071 0.70337 0.0
C248 C 0.31632 0.94317 0.74783 0.0
C249 C 0.27423 0.93767 0.73105 0.0
C250 C 0.27875 0.93294 0.70028 0.0
C251 C 0.32394 0.93478 0.68656 0.0
H252 H 0.61974 0.5306 0.75168 0.0
H253 H 0.68279 0.57314 0.67275 0.0
H254 H 0.69769 0.53354 0.77637 0.0
H255 H 0.76022 0.57789 0.69771 0.0
H256 H 0.90271 0.54337 0.73759 0.0
H257 H 0.82429 0.54478 0.71359 0.0
H258 H 0.75674 0.56729 0.79773 0.0
H259 H 0.83495 0.5638 0.82185 0.0
C260 C 0.65019 0.5411 0.73977 0.0
C261 C 0.64538 0.55122 0.71017 0.0
C262 C 0.6949 0.54303 0.75397 0.0
C263 C 0.73563 0.5558 0.73905 0.0
C264 C 0.73013 0.56709 0.70971 0.0
C265 C 0.68562 0.5645 0.69535 0.0
C266 C 0.8711 0.54877 0.75093 0.0
C267 C 0.87507 0.55336 0.78166 0.0
C268 C 0.82603 0.54984 0.73712 0.0
C269 C 0.78387 0.55616 0.75364 0.0
C270 C 0.78816 0.56166 0.78432 0.0
C271 C 0.83318 0.55993 0.7982 0.0
H272 H 0.6103 0.97311 0.75899 0.0
H273 H 0.66477 0.9414 0.67368 0.0
H274 H 0.69234 0.974 0.77845 0.0
H275 H 0.74696 0.94202 0.69335 0.0
H276 H 0.88777 0.98758 0.72988 0.0
H277 H 0.80571 0.98468 0.71069 0.0
H278 H 0.7592 0.93498 0.7908 0.0
H279 H 0.84146 0.93813 0.81024 0.0
C280 C 0.63976 0.96621 0.7444 0.0
C281 C 0.63103 0.95729 0.71474 0.0
C282 C 0.68673 0.96652 0.75564 0.0
C283 C 0.72606 0.95809 0.73744 0.0
C284 C 0.71737 0.94897 0.70782 0.0
C285 C 0.6703 0.94847 0.6966 0.0
C286 C 0.86011 0.97604 0.74346 0.0
C287 C 0.87114 0.96312 0.77162 0.0
C288 C 0.81314 0.97417 0.73234 0.0
C289 C 0.77607 0.9595 0.74918 0.0
C290 C 0.78699 0.94668 0.77741 0.0
C291 C 0.8341 0.94838 0.78849 0.0
H292 H 0.3577 0.51883 0.68402 0.0
H293 H 0.38412 0.60649 0.73827 0.0
H294 H 0.27683 0.51412 0.70473 0.0
H295 H 0.30256 0.60243 0.75834 0.0
H296 H 0.17383 0.56239 0.81176 0.0
H297 H 0.25482 0.56805 0.7909 0.0
H298 H 0.19963 0.54049 0.70471 0.0
H299 H 0.11937 0.53381 0.72567 0.0
C300 C 0.34604 0.53735 0.70011 0.0
C301 C 0.3774 0.56299 0.70954 0.0
C302 C 0.29954 0.53474 0.71191 0.0
C303 C 0.28312 0.55787 0.73327 0.0
C304 C 0.31427 0.58385 0.74232 0.0
C305 C 0.36092 0.58634 0.73064 0.0
C306 C 0.17909 0.55749 0.78838 0.0
C307 C 0.14022 0.54749 0.77042 0.0
C308 C 0.22544 0.56096 0.77636 0.0
C309 C 0.23381 0.55469 0.7461 0.0
C310 C 0.19473 0.54496 0.72818 0.0
C311 C 0.14858 0.54129 0.7402 0.0
H312 H 0.64846 0.07322 0.27005 0.0
H313 H 0.6822 0.97287 0.30023 0.0
H314 H 0.72198 0.07385 0.24057 0.0
H315 H 0.75687 0.97396 0.27165 0.0
H316 H 0.85813 0.97079 0.19284 0.0
H317 H 0.78393 0.97139 0.22185 0.0
H318 H 0.80716 0.07637 0.24241 0.0
H319 H 0.88023 0.07603 0.21245 0.0
C320 C 0.672 0.05148 0.27079 0.0
C321 C 0.65938 0.02293 0.28741 0.0
C322 C 0.71433 0.05188 0.25392 0.0
C323 C 0.74534 0.02386 0.2535 0.0
C324 C 0.73336 0.9957 0.27088 0.0
C325 C 0.69076 0.99518 0.28752 0.0
C326 C 0.84713 0.99406 0.20335 0.0
C327 C 0.87506 0.02335 0.20032 0.0
C328 C 0.80481 0.99434 0.22025 0.0
C329 C 0.78967 0.02385 0.23477 0.0
C330 C 0.8173 0.05328 0.2313 0.0
C331 C 0.85934 0.05308 0.21415 0.0
H332 H 0.12012 0.51624 0.24342 0.0
H333 H 0.16107 0.42825 0.19305 0.0
H334 H 0.19854 0.51599 0.26782 0.0
H335 H 0.23994 0.42829 0.21733 0.0
H336 H 0.35525 0.41893 0.29015 0.0
H337 H 0.27542 0.41857 0.26712 0.0
H338 H 0.28369 0.52617 0.25523 0.0
H339 H 0.36307 0.52665 0.27847 0.0
C340 C 0.14592 0.49691 0.23744 0.0
C341 C 0.13436 0.47228 0.21624 0.0
C342 C 0.19095 0.49686 0.25137 0.0
C343 C 0.22541 0.47211 0.24453 0.0
C344 C 0.2139 0.44746 0.22332 0.0
C345 C 0.16888 0.44759 0.20926 0.0
C346 C 0.33988 0.44253 0.28281 0.0
C347 C 0.36553 0.47282 0.28613 0.0
C348 C 0.29433 0.44228 0.26941 0.0
C349 C 0.27337 0.47232 0.25925 0.0
C350 C 0.29868 0.50265 0.26306 0.0
C351 C 0.34427 0.50289 0.27629 0.0
H352 H 0.9684 0.99361 0.07905 0.0
H353 H 0.04571 0.07692 0.0402 0.0
H354 H 0.95174 0.97136 0.02938 0.0
H355 H 0.02763 0.05532 0.99072 0.0
H356 H 0.04289 0.92885 0.94327 0.0
H357 H 0.02676 0.95123 0.99274 0.0
H358 H 0.95197 0.03569 0.95419 0.0
H359 H 0.96663 0.01261 0.9045 0.0
C360 C 0.9802 0.0078 0.0599 0.0
C361 C 0.00857 0.03684 0.06335 0.0
C362 C 0.97078 0.99504 0.03158 0.0
C363 C -0.01162 0.01172 0.00639 0.0
C364 C 0.01328 0.04222 0.00983 0.0
C365 C 0.02379 0.05447 0.03808 0.0
C366 C 0.02173 0.95164 0.94543 0.0
C367 C 0.00608 0.96908 0.92019 0.0
C368 C 0.01229 0.96433 0.97367 0.0
C369 C -0.01189 0.9951 0.97712 0.0
C370 C 0.97042 0.0118 0.95198 0.0
C371 C 0.97872 0.99858 0.92367 0.0
H372 H 0.97926 0.57464 0.94798 0.0
H373 H 0.05522 0.49163 0.90756 0.0
H374 H -0.00327 0.55175 -0.00298 0.0
H375 H 0.07134 0.46808 0.95681 0.0
H376 H 0.97899 0.42402 0.04154 0.0
H377 H -0.00237 0.44701 0.99268 0.0
H378 H 0.06966 0.53129 0.03363 0.0
H379 H 0.05237 0.50768 0.0827 0.0
C380 C 0.00078 0.55196 0.94968 0.0
C381 C 0.01577 0.53481 0.92409 0.0
C382 C 0.01098 0.53898 0.97769 0.0
C383 C 0.03531 0.50818 0.98056 0.0
C384 C 0.05272 0.49195 0.95506 0.0
C385 C 0.04362 0.50546 0.92699 0.0
C386 C 0.00018 0.44687 0.04006 0.0
C387 C 0.01408 0.46418 0.0658 0.0
C388 C 0.01106 0.45991 0.01216 0.0
C389 C 0.035 0.49088 0.00952 0.0
C390 C 0.05135 0.50727 0.03519 0.0
C391 C 0.04156 0.49374 0.06317 0.0
H392 H 0.46817 0.50489 0.40655 0.0
H393 H 0.54486 0.42068 0.44423 0.0
H394 H 0.45525 0.52787 0.45643 0.0
H395 H 0.53041 0.44299 0.49395 0.0
H396 H 0.47209 0.48694 0.58086 0.0
H397 H 0.45546 0.46409 0.53137 0.0
H398 H 0.53376 0.54655 0.49204 0.0
H399 H 0.55186 0.56873 0.54134 0.0
C400 C 0.48063 0.49071 0.42554 0.0
C401 C 0.50767 0.46113 0.42167 0.0
C402 C 0.47337 0.50388 0.45396 0.0
C403 C 0.49177 0.48707 0.47885 0.0
C404 C 0.51547 0.45617 0.47507 0.0
C405 C 0.52389 0.44352 0.44669 0.0
C406 C 0.48463 0.5006 0.56159 0.0
C407 C 0.51348 0.52946 0.56482 0.0
C408 C 0.47518 0.48752 0.53339 0.0
C409 C 0.49321 0.50372 0.50808 0.0
C410 C 0.51905 0.53387 0.51127 0.0
C411 C 0.5296 0.54641 0.53941 0.0
H412 H 0.54879 0.00378 0.57878 0.0
H413 H 0.4725 0.9216 0.53726 0.0
H414 H 0.56804 0.02687 0.52979 0.0
H415 H 0.49311 0.94405 0.48849 0.0
H416 H 0.55661 0.98639 0.40393 0.0
H417 H 0.57 0.96318 0.45362 0.0
H418 H 0.49661 0.04848 0.49197 0.0
H419 H 0.48177 0.07102 0.44247 0.0
C420 C 0.53762 0.99007 0.5592 0.0
C421 C 0.50888 0.96107 0.5617 0.0
C422 C 0.54857 0.00329 0.53128 0.0
C423 C 0.53215 0.98712 0.50552 0.0
C424 C 0.50664 0.95675 0.50805 0.0
C425 C 0.49461 0.94404 0.5359 0.0
C426 C 0.54477 0.00065 0.42307 0.0
C427 C 0.51797 0.03036 0.41951 0.0
C428 C 0.55229 0.98734 0.45138 0.0
C429 C 0.53434 0.00412 0.47647 0.0
C430 C 0.51122 0.03527 0.47297 0.0
C431 C 0.50257 0.04808 0.4447 0.0
loop_
_geom_bond_atom_site_label_1
_geom_bond_atom_site_label_2
_geom_bond_distance
_geom_bond_site_symmetry_2
_ccdc_geom_bond_type
Mg0 O1 2.028 . S
Mg0 O7 1.986 . S
Mg0 O9 2.114 . S
Mg0 O10 2.251 . S
Mg0 O13 2.010 1_455 S
O1 Mg0 2.028 . S
O1 C4 1.250 . S
O2 Mg3 2.028 . S
O2 C4 1.248 . S
Mg3 O2 2.028 . S
Mg3 O8 2.032 . S
Mg3 O10 2.079 . S
C4 O1 1.250 . S
C4 O2 1.248 . S
C5 O6 1.264 . S
C5 O13 1.249 . S
O6 C5 1.264 . S
O7 Mg0 1.986 . S
O7 C11 1.246 . S
O8 Mg3 2.032 . S
O8 C11 1.259 . S
O9 Mg0 2.114 . S
O9 C12 1.252 . S
O10 Mg0 2.251 . S
O10 Mg3 2.079 . S
O10 C12 1.273 . S
C11 O7 1.246 . S
C11 O8 1.259 . S
C12 O9 1.252 . S
C12 O10 1.273 . S
O13 Mg0 2.010 1_655 S
O13 C5 1.249 . S
Mg14 O15 2.028 . S
Mg14 O21 1.986 . S
Mg14 O23 2.114 1_455 S
Mg14 O24 2.251 1_455 S
Mg14 O27 2.010 . S
O15 Mg14 2.028 . S
O15 C18 1.250 . S
O16 Mg17 2.028 . S
O16 C18 1.248 1_655 S
Mg17 O16 2.028 . S
Mg17 O22 2.032 . S
Mg17 O24 2.079 . S
C18 O15 1.250 . S
C18 O16 1.248 1_455 S
C19 O20 1.264 . S
C19 O27 1.249 . S
O20 C19 1.264 . S
O21 Mg14 1.986 . S
O21 C25 1.246 . S
O22 Mg17 2.032 . S
O22 C25 1.259 1_655 S
O23 Mg14 2.114 1_655 S
O23 C26 1.252 . S
O24 Mg14 2.251 1_655 S
O24 Mg17 2.079 . S
O24 C26 1.273 . S
C25 O21 1.246 . S
C25 O22 1.259 1_455 S
C26 O23 1.252 . S
C26 O24 1.273 . S
O27 Mg14 2.010 . S
O27 C19 1.249 . S
Mg28 O29 2.028 . S
Mg28 O35 1.986 . S
Mg28 O37 2.114 . S
Mg28 O38 2.251 . S
Mg28 O41 2.010 1_455 S
O29 Mg28 2.028 . S
O29 C32 1.250 . S
O30 Mg31 2.028 . S
O30 C32 1.248 . S
Mg31 O30 2.028 . S
Mg31 O36 2.032 . S
Mg31 O38 2.079 . S
C32 O29 1.250 . S
C32 O30 1.248 . S
C33 O34 1.264 . S
C33 O41 1.249 . S
O34 C33 1.264 . S
O35 Mg28 1.986 . S
O35 C39 1.246 . S
O36 Mg31 2.032 . S
O36 C39 1.259 . S
O37 Mg28 2.114 . S
O37 C40 1.252 . S
O38 Mg28 2.251 . S
O38 Mg31 2.079 . S
O38 C40 1.273 . S
C39 O35 1.246 . S
C39 O36 1.259 . S
C40 O37 1.252 . S
C40 O38 1.273 . S
O41 Mg28 2.010 1_655 S
O41 C33 1.249 . S
Mg42 O43 2.028 . S
Mg42 O49 1.986 . S
Mg42 O51 2.114 1_455 S
Mg42 O52 2.251 1_455 S
Mg42 O55 2.010 . S
O43 Mg42 2.028 . S
O43 C46 1.250 . S
O44 Mg45 2.028 . S
O44 C46 1.248 1_655 S
Mg45 O44 2.028 . S
Mg45 O50 2.032 . S
Mg45 O52 2.079 . S
C46 O43 1.250 . S
C46 O44 1.248 1_455 S
C47 O48 1.264 . S
C47 O55 1.249 . S
O48 C47 1.264 . S
O49 Mg42 1.986 . S
O49 C53 1.246 . S
O50 Mg45 2.032 . S
O50 C53 1.259 1_655 S
O51 Mg42 2.114 1_655 S
O51 C54 1.252 . S
O52 Mg42 2.251 1_655 S
O52 Mg45 2.079 . S
O52 C54 1.273 . S
C53 O49 1.246 . S
C53 O50 1.259 1_455 S
C54 O51 1.252 . S
C54 O52 1.273 . S
O55 Mg42 2.010 . S
O55 C47 1.249 . S
Mg56 O57 2.028 . S
Mg56 O63 1.986 . S
Mg56 O65 2.114 . S
Mg56 O66 2.251 . S
Mg56 O69 2.010 . S
O57 Mg56 2.028 . S
O57 C60 1.250 . S
O58 Mg59 2.028 . S
O58 C60 1.248 . S
Mg59 O58 2.028 . S
Mg59 O64 2.032 . S
Mg59 O66 2.079 . S
C60 O57 1.250 . S
C60 O58 1.248 . S
C61 O62 1.264 . S
C61 O69 1.249 . S
O62 C61 1.264 . S
O63 Mg56 1.986 . S
O63 C67 1.246 . S
O64 Mg59 2.032 . S
O64 C67 1.259 . S
O65 Mg56 2.114 . S
O65 C68 1.252 . S
O66 Mg56 2.251 . S
O66 Mg59 2.079 . S
O66 C68 1.273 . S
C67 O63 1.246 . S
C67 O64 1.259 . S
C68 O65 1.252 . S
C68 O66 1.273 . S
O69 Mg56 2.010 . S
O69 C61 1.249 . S
Mg70 O71 2.028 . S
Mg70 O77 1.986 . S
Mg70 O79 2.114 . S
Mg70 O80 2.251 . S
Mg70 O83 2.010 . S
O71 Mg70 2.028 . S
O71 C74 1.250 . S
O72 Mg73 2.028 . S
O72 C74 1.248 . S
Mg73 O72 2.028 . S
Mg73 O78 2.032 . S
Mg73 O80 2.079 . S
C74 O71 1.250 . S
C74 O72 1.248 . S
C75 O76 1.264 . S
C75 O83 1.249 . S
O76 C75 1.264 . S
O77 Mg70 1.986 . S
O77 C81 1.246 . S
O78 Mg73 2.032 . S
O78 C81 1.259 . S
O79 Mg70 2.114 . S
O79 C82 1.252 . S
O80 Mg70 2.251 . S
O80 Mg73 2.079 . S
O80 C82 1.273 . S
C81 O77 1.246 . S
C81 O78 1.259 . S
C82 O79 1.252 . S
C82 O80 1.273 . S
O83 Mg70 2.010 . S
O83 C75 1.249 . S
Mg84 O85 2.028 . S
Mg84 O91 1.986 . S
Mg84 O93 2.114 . S
Mg84 O94 2.251 . S
Mg84 O97 2.010 . S
O85 Mg84 2.028 . S
O85 C88 1.250 . S
O86 Mg87 2.028 . S
O86 C88 1.248 . S
Mg87 O86 2.028 . S
Mg87 O92 2.032 . S
Mg87 O94 2.079 . S
C88 O85 1.250 . S
C88 O86 1.248 . S
C89 O90 1.264 . S
C89 O97 1.249 . S
O90 C89 1.264 . S
O91 Mg84 1.986 . S
O91 C95 1.246 . S
O92 Mg87 2.032 . S
O92 C95 1.259 . S
O93 Mg84 2.114 . S
O93 C96 1.252 . S
O94 Mg84 2.251 . S
O94 Mg87 2.079 . S
O94 C96 1.273 . S
C95 O91 1.246 . S
C95 O92 1.259 . S
C96 O93 1.252 . S
C96 O94 1.273 . S
O97 Mg84 2.010 . S
O97 C89 1.249 . S
Mg98 O99 2.028 . S
Mg98 O105 1.986 . S
Mg98 O107 2.114 . S
Mg98 O108 2.251 . S
Mg98 O111 2.010 . S
O99 Mg98 2.028 . S
O99 C102 1.250 . S
O100 Mg101 2.028 . S
O100 C102 1.248 . S
Mg101 O100 2.028 . S
Mg101 O106 2.032 . S
Mg101 O108 2.079 . S
C102 O99 1.250 . S
C102 O100 1.248 . S
C103 O104 1.264 . S
C103 O111 1.249 . S
O104 C103 1.264 . S
O105 Mg98 1.986 . S
O105 C109 1.246 . S
O106 Mg101 2.032 . S
O106 C109 1.259 . S
O107 Mg98 2.114 . S
O107 C110 1.252 . S
O108 Mg98 2.251 . S
O108 Mg101 2.079 . S
O108 C110 1.273 . S
C109 O105 1.246 . S
C109 O106 1.259 . S
C110 O107 1.252 . S
C110 O108 1.273 . S
O111 Mg98 2.010 . S
O111 C103 1.249 . S
H112 C120 0.950 . S
H113 C125 0.950 . S
H114 C122 0.950 . S
H115 C124 0.950 . S
H116 C126 0.950 . S
H117 C128 0.950 . S
H118 C130 0.950 . S
H119 C131 0.950 . S
C120 H112 0.950 . S
C120 C121 1.386 1_655 S
C120 C122 1.391 . S
C121 C120 1.386 1_455 S
C121 C125 1.393 . S
C122 H114 0.950 . S
C122 C120 1.391 . S
C122 C123 1.400 1_655 S
C123 C122 1.400 1_455 S
C123 C124 1.398 . S
C123 C129 1.491 . S
C124 H115 0.950 . S
C124 C123 1.398 . S
C124 C125 1.391 . S
C125 H113 0.950 . S
C125 C121 1.393 . S
C125 C124 1.391 . S
C126 H116 0.950 . S
C126 C127 1.386 . S
C126 C128 1.391 . S
C127 C126 1.386 . S
C127 C131 1.393 1_455 S
C128 H117 0.950 . S
C128 C126 1.391 . S
C128 C129 1.400 . S
C129 C123 1.491 . S
C129 C128 1.400 . S
C129 C130 1.398 1_455 S
C130 H118 0.950 . S
C130 C129 1.398 1_655 S
C130 C131 1.391 . S
C131 H119 0.950 . S
C131 C127 1.393 1_655 S
C131 C130 1.391 . S
H132 C140 0.950 . S
H133 C145 0.950 . S
H134 C142 0.950 . S
H135 C144 0.950 . S
H136 C146 0.950 . S
H137 C148 0.950 . S
H138 C150 0.950 . S
H139 C151 0.950 . S
C140 H132 0.950 . S
C140 C141 1.386 1_655 S
C140 C142 1.391 . S
C141 C140 1.386 1_455 S
C141 C145 1.393 . S
C142 H134 0.950 . S
C142 C140 1.391 . S
C142 C143 1.400 1_655 S
C143 C142 1.400 1_455 S
C143 C144 1.398 . S
C143 C149 1.491 . S
C144 H135 0.950 . S
C144 C143 1.398 . S
C144 C145 1.391 . S
C145 H133 0.950 . S
C145 C141 1.393 . S
C145 C144 1.391 . S
C146 H136 0.950 . S
C146 C147 1.386 . S
C146 C148 1.391 . S
C147 C146 1.386 . S
C147 C151 1.393 1_455 S
C148 H137 0.950 . S
C148 C146 1.391 . S
C148 C149 1.400 . S
C149 C143 1.491 . S
C149 C148 1.400 . S
C149 C150 1.398 1_455 S
C150 H138 0.950 . S
C150 C149 1.398 1_655 S
C150 C151 1.391 . S
C151 H139 0.950 . S
C151 C147 1.393 1_655 S
C151 C150 1.391 . S
H152 C160 0.950 . S
H153 C165 0.950 . S
H154 C162 0.950 . S
H155 C164 0.950 . S
H156 C166 0.950 . S
H157 C168 0.950 . S
H158 C170 0.950 . S
H159 C171 0.950 . S
C160 H152 0.950 . S
C160 C161 1.386 . S
C160 C162 1.391 . S
C161 C160 1.386 . S
C161 C165 1.393 . S
C162 H154 0.950 . S
C162 C160 1.391 . S
C162 C163 1.400 . S
C163 C162 1.400 . S
C163 C164 1.398 . S
C163 C169 1.491 . S
C164 H155 0.950 . S
C164 C163 1.398 . S
C164 C165 1.391 . S
C165 H153 0.950 . S
C165 C161 1.393 . S
C165 C164 1.391 . S
C166 H156 0.950 . S
C166 C167 1.386 . S
C166 C168 1.391 . S
C167 C166 1.386 . S
C167 C171 1.393 . S
C168 H157 0.950 . S
C168 C166 1.391 . S
C168 C169 1.400 . S
C169 C163 1.491 . S
C169 C168 1.400 . S
C169 C170 1.398 . S
C170 H158 0.950 . S
C170 C169 1.398 . S
C170 C171 1.391 . S
C171 H159 0.950 . S
C171 C167 1.393 . S
C171 C170 1.391 . S
H172 C180 0.950 . S
H173 C185 0.950 . S
H174 C182 0.950 . S
H175 C184 0.950 . S
H176 C186 0.950 . S
H177 C188 0.950 . S
H178 C190 0.950 . S
H179 C191 0.950 . S
C180 H172 0.950 . S
C180 C181 1.386 . S
C180 C182 1.391 . S
C181 C180 1.386 . S
C181 C185 1.393 . S
C182 H174 0.950 . S
C182 C180 1.391 . S
C182 C183 1.400 . S
C183 C182 1.400 . S
C183 C184 1.398 . S
C183 C189 1.491 . S
C184 H175 0.950 . S
C184 C183 1.398 . S
C184 C185 1.391 . S
C185 H173 0.950 . S
C185 C181 1.393 . S
C185 C184 1.391 . S
C186 H176 0.950 . S
C186 C187 1.386 . S
C186 C188 1.391 . S
C187 C186 1.386 . S
C187 C191 1.393 . S
C188 H177 0.950 . S
C188 C186 1.391 . S
C188 C189 1.400 . S
C189 C183 1.491 . S
C189 C188 1.400 . S
C189 C190 1.398 . S
C190 H178 0.950 . S
C190 C189 1.398 . S
C190 C191 1.391 . S
C191 H179 0.950 . S
C191 C187 1.393 . S
C191 C190 1.391 . S
H192 C200 0.950 . S
H193 C205 0.950 . S
H194 C202 0.950 . S
H195 C204 0.950 . S
H196 C206 0.950 . S
H197 C208 0.950 . S
H198 C210 0.950 . S
H199 C211 0.950 . S
C200 H192 0.950 . S
C200 C201 1.386 . S
C200 C202 1.391 . S
C201 C200 1.386 . S
C201 C205 1.393 . S
C202 H194 0.950 . S
C202 C200 1.391 . S
C202 C203 1.400 . S
C203 C202 1.400 . S
C203 C204 1.398 . S
C203 C209 1.491 . S
C204 H195 0.950 . S
C204 C203 1.398 . S
C204 C205 1.391 . S
C205 H193 0.950 . S
C205 C201 1.393 . S
C205 C204 1.391 . S
C206 H196 0.950 . S
C206 C207 1.386 . S
C206 C208 1.391 . S
C207 C206 1.386 . S
C207 C211 1.393 . S
C208 H197 0.950 . S
C208 C206 1.391 . S
C208 C209 1.400 . S
C209 C203 1.491 . S
C209 C208 1.400 . S
C209 C210 1.398 . S
C210 H198 0.950 . S
C210 C209 1.398 . S
C210 C211 1.391 . S
C211 H199 0.950 . S
C211 C207 1.393 . S
C211 C210 1.391 . S
H212 C220 0.950 . S
H213 C225 0.950 . S
H214 C222 0.950 . S
H215 C224 0.950 . S
H216 C226 0.950 . S
H217 C228 0.950 . S
H218 C230 0.950 . S
H219 C231 0.950 . S
C220 H212 0.950 . S
C220 C221 1.386 . S
C220 C222 1.391 . S
C221 C220 1.386 . S
C221 C225 1.393 . S
C222 H214 0.950 . S
C222 C220 1.391 . S
C222 C223 1.400 . S
C223 C222 1.400 . S
C223 C224 1.398 . S
C223 C229 1.491 . S
C224 H215 0.950 . S
C224 C223 1.398 . S
C224 C225 1.391 . S
C225 H213 0.950 . S
C225 C221 1.393 . S
C225 C224 1.391 . S
C226 H216 0.950 . S
C226 C227 1.386 . S
C226 C228 1.391 . S
C227 C226 1.386 . S
C227 C231 1.393 . S
C228 H217 0.950 . S
C228 C226 1.391 . S
C228 C229 1.400 . S
C229 C223 1.491 . S
C229 C228 1.400 . S
C229 C230 1.398 . S
C230 H218 0.950 . S
C230 C229 1.398 . S
C230 C231 1.391 . S
C231 H219 0.950 . S
C231 C227 1.393 . S
C231 C230 1.391 . S
H232 C240 0.950 . S
H233 C245 0.950 . S
H234 C242 0.950 . S
H235 C244 0.950 . S
H236 C246 0.950 . S
H237 C248 0.950 . S
H238 C250 0.950 . S
H239 C251 0.950 . S
C240 H232 0.950 . S
C240 C241 1.386 . S
C240 C242 1.391 . S
C241 C240 1.386 . S
C241 C245 1.393 . S
C242 H234 0.950 . S
C242 C240 1.391 . S
C242 C243 1.400 . S
C243 C242 1.400 . S
C243 C244 1.398 . S
C243 C249 1.491 . S
C244 H235 0.950 . S
C244 C243 1.398 . S
C244 C245 1.391 . S
C245 H233 0.950 . S
C245 C241 1.393 . S
C245 C244 1.391 . S
C246 H236 0.950 . S
C246 C247 1.386 . S
C246 C248 1.391 . S
C247 C246 1.386 . S
C247 C251 1.393 . S
C248 H237 0.950 . S
C248 C246 1.391 . S
C248 C249 1.400 . S
C249 C243 1.491 . S
C249 C248 1.400 . S
C249 C250 1.398 . S
C250 H238 0.950 . S
C250 C249 1.398 . S
C250 C251 1.391 . S
C251 H239 0.950 . S
C251 C247 1.393 . S
C251 C250 1.391 . S
H252 C260 0.950 . S
H253 C265 0.950 . S
H254 C262 0.950 . S
H255 C264 0.950 . S
H256 C266 0.950 . S
H257 C268 0.950 . S
H258 C270 0.950 . S
H259 C271 0.950 . S
C260 H252 0.950 . S
C260 C261 1.386 . S
C260 C262 1.391 . S
C261 C260 1.386 . S
C261 C265 1.393 . S
C262 H254 0.950 . S
C262 C260 1.391 . S
C262 C263 1.400 . S
C263 C262 1.400 . S
C263 C264 1.398 . S
C263 C269 1.491 . S
C264 H255 0.950 . S
C264 C263 1.398 . S
C264 C265 1.391 . S
C265 H253 0.950 . S
C265 C261 1.393 . S
C265 C264 1.391 . S
C266 H256 0.950 . S
C266 C267 1.386 . S
C266 C268 1.391 . S
C267 C266 1.386 . S
C267 C271 1.393 . S
C268 H257 0.950 . S
C268 C266 1.391 . S
C268 C269 1.400 . S
C269 C263 1.491 . S
C269 C268 1.400 . S
C269 C270 1.398 . S
C270 H258 0.950 . S
C270 C269 1.398 . S
C270 C271 1.391 . S
C271 H259 0.950 . S
C271 C267 1.393 . S
C271 C270 1.391 . S
H272 C280 0.950 . S
H273 C285 0.950 . S
H274 C282 0.950 . S
H275 C284 0.950 . S
H276 C286 0.950 . S
H277 C288 0.950 . S
H278 C290 0.950 . S
H279 C291 0.950 . S
C280 H272 0.950 . S
C280 C281 1.386 . S
C280 C282 1.391 . S
C281 C280 1.386 . S
C281 C285 1.393 . S
C282 H274 0.950 . S
C282 C280 1.391 . S
C282 C283 1.400 . S
C283 C282 1.400 . S
C283 C284 1.398 . S
C283 C289 1.491 . S
C284 H275 0.950 . S
C284 C283 1.398 . S
C284 C285 1.391 . S
C285 H273 0.950 . S
C285 C281 1.393 . S
C285 C284 1.391 . S
C286 H276 0.950 . S
C286 C287 1.386 . S
C286 C288 1.391 . S
C287 C286 1.386 . S
C287 C291 1.393 . S
C288 H277 0.950 . S
C288 C286 1.391 . S
C288 C289 1.400 . S
C289 C283 1.491 . S
C289 C288 1.400 . S
C289 C290 1.398 . S
C290 H278 0.950 . S
C290 C289 1.398 . S
C290 C291 1.391 . S
C291 H279 0.950 . S
C291 C287 1.393 . S
C291 C290 1.391 . S
H292 C300 0.950 . S
H293 C305 0.950 . S
H294 C302 0.950 . S
H295 C304 0.950 . S
H296 C306 0.950 . S
H297 C308 0.950 . S
H298 C310 0.950 . S
H299 C311 0.950 . S
C300 H292 0.950 . S
C300 C301 1.386 . S
C300 C302 1.391 . S
C301 C300 1.386 . S
C301 C305 1.393 . S
C302 H294 0.950 . S
C302 C300 1.391 . S
C302 C303 1.400 . S
C303 C302 1.400 . S
C303 C304 1.398 . S
C303 C309 1.491 . S
C304 H295 0.950 . S
C304 C303 1.398 . S
C304 C305 1.391 . S
C305 H293 0.950 . S
C305 C301 1.393 . S
C305 C304 1.391 . S
C306 H296 0.950 . S
C306 C307 1.386 . S
C306 C308 1.391 . S
C307 C306 1.386 . S
C307 C311 1.393 . S
C308 H297 0.950 . S
C308 C306 1.391 . S
C308 C309 1.400 . S
C309 C303 1.491 . S
C309 C308 1.400 . S
C309 C310 1.398 . S
C310 H298 0.950 . S
C310 C309 1.398 . S
C310 C311 1.391 . S
C311 H299 0.950 . S
C311 C307 1.393 . S
C311 C310 1.391 . S
H312 C320 0.950 . S
H313 C325 0.950 1_565 S
H314 C322 0.950 . S
H315 C324 0.950 1_565 S
H316 C326 0.950 1_565 S
H317 C328 0.950 1_565 S
H318 C330 0.950 . S
H319 C331 0.950 . S
C320 H312 0.950 . S
C320 C321 1.386 . S
C320 C322 1.391 . S
C321 C320 1.386 . S
C321 C325 1.393 . S
C322 H314 0.950 . S
C322 C320 1.391 . S
C322 C323 1.400 . S
C323 C322 1.400 . S
C323 C324 1.398 . S
C323 C329 1.491 . S
C324 H315 0.950 1_545 S
C324 C323 1.398 . S
C324 C325 1.391 . S
C325 H313 0.950 1_545 S
C325 C321 1.393 . S
C325 C324 1.391 . S
C326 H316 0.950 1_545 S
C326 C327 1.386 . S
C326 C328 1.391 . S
C327 C326 1.386 . S
C327 C331 1.393 . S
C328 H317 0.950 1_545 S
C328 C326 1.391 . S
C328 C329 1.400 . S
C329 C323 1.491 . S
C329 C328 1.400 . S
C329 C330 1.398 . S
C330 H318 0.950 . S
C330 C329 1.398 . S
C330 C331 1.391 . S
C331 H319 0.950 . S
C331 C327 1.393 . S
C331 C330 1.391 . S
H332 C340 0.950 . S
H333 C345 0.950 . S
H334 C342 0.950 . S
H335 C344 0.950 . S
H336 C346 0.950 . S
H337 C348 0.950 . S
H338 C350 0.950 . S
H339 C351 0.950 . S
C340 H332 0.950 . S
C340 C341 1.386 . S
C340 C342 1.391 . S
C341 C340 1.386 . S
C341 C345 1.393 . S
C342 H334 0.950 . S
C342 C340 1.391 . S
C342 C343 1.400 . S
C343 C342 1.400 . S
C343 C344 1.398 . S
C343 C349 1.491 . S
C344 H335 0.950 . S
C344 C343 1.398 . S
C344 C345 1.391 . S
C345 H333 0.950 . S
C345 C341 1.393 . S
C345 C344 1.391 . S
C346 H336 0.950 . S
C346 C347 1.386 . S
C346 C348 1.391 . S
C347 C346 1.386 . S
C347 C351 1.393 . S
C348 H337 0.950 . S
C348 C346 1.391 . S
C348 C349 1.400 . S
C349 C343 1.491 . S
C349 C348 1.400 . S
C349 C350 1.398 . S
C350 H338 0.950 . S
C350 C349 1.398 . S
C350 C351 1.391 . S
C351 H339 0.950 . S
C351 C347 1.393 . S
C351 C350 1.391 . S
H352 C360 0.940 1_655 S
H353 C365 0.950 . S
H354 C362 0.950 1_655 S
H355 C364 0.950 . S
H356 C366 0.953 . S
H357 C368 0.950 . S
H358 C370 0.950 1_655 S
H359 C371 0.950 1_655 S
C360 H352 0.940 1_455 S
C360 C361 1.393 1_565 S
C360 C362 1.394 . S
C361 C360 1.393 1_545 S
C361 C365 1.393 . S
C362 H354 0.950 1_455 S
C362 C360 1.394 . S
C362 C363 1.400 1_565 S
C363 C362 1.400 1_545 S
C363 C364 1.398 . S
C363 C369 1.491 1_544 S
C364 H355 0.950 . S
C364 C363 1.398 . S
C364 C365 1.391 . S
C365 H353 0.950 . S
C365 C361 1.393 . S
C365 C364 1.391 . S
C366 H356 0.953 . S
C366 C367 1.380 1_545 S
C366 C368 1.393 . S
C367 C366 1.380 1_565 S
C367 C371 1.393 . S
C368 H357 0.950 . S
C368 C366 1.393 . S
C368 C369 1.400 1_545 S
C369 C363 1.491 1_566 S
C369 C368 1.400 1_565 S
C369 C370 1.398 . S
C370 H358 0.950 1_455 S
C370 C369 1.398 . S
C370 C371 1.391 . S
C371 H359 0.950 1_455 S
C371 C367 1.393 . S
C371 C370 1.391 . S
H372 C380 0.950 . S
H373 C385 0.950 . S
H374 C382 0.950 . S
H375 C384 0.950 . S
H376 C386 0.950 . S
H377 C388 0.950 . S
H378 C390 0.950 . S
H379 C391 0.950 . S
C380 H372 0.950 . S
C380 C381 1.386 1_655 S
C380 C382 1.391 . S
C381 C380 1.386 1_455 S
C381 C385 1.393 . S
C382 H374 0.950 . S
C382 C380 1.391 . S
C382 C383 1.400 1_655 S
C383 C382 1.400 1_455 S
C383 C384 1.398 . S
C383 C389 1.491 1_556 S
C384 H375 0.950 . S
C384 C383 1.398 . S
C384 C385 1.391 . S
C385 H373 0.950 . S
C385 C381 1.393 . S
C385 C384 1.391 . S
C386 H376 0.950 . S
C386 C387 1.386 . S
C386 C388 1.391 . S
C387 C386 1.386 . S
C387 C391 1.393 1_455 S
C388 H377 0.950 . S
C388 C386 1.391 . S
C388 C389 1.400 . S
C389 C383 1.491 1_554 S
C389 C388 1.400 . S
C389 C390 1.398 1_455 S
C390 H378 0.950 . S
C390 C389 1.398 1_655 S
C390 C391 1.391 . S
C391 H379 0.950 . S
C391 C387 1.393 1_655 S
C391 C390 1.391 . S
H392 C400 0.950 . S
H393 C405 0.950 . S
H394 C402 0.950 . S
H395 C404 0.950 . S
H396 C406 0.950 . S
H397 C408 0.950 . S
H398 C410 0.950 . S
H399 C411 0.950 . S
C400 H392 0.950 . S
C400 C401 1.386 . S
C400 C402 1.391 . S
C401 C400 1.386 . S
C401 C405 1.393 . S
C402 H394 0.950 . S
C402 C400 1.391 . S
C402 C403 1.400 . S
C403 C402 1.400 . S
C403 C404 1.398 . S
C403 C409 1.491 . S
C404 H395 0.950 . S
C404 C403 1.398 . S
C404 C405 1.391 . S
C405 H393 0.950 . S
C405 C401 1.393 . S
C405 C404 1.391 . S
C406 H396 0.950 . S
C406 C407 1.386 . S
C406 C408 1.391 . S
C407 C406 1.386 . S
C407 C411 1.393 . S
C408 H397 0.950 . S
C408 C406 1.391 . S
C408 C409 1.400 . S
C409 C403 1.491 . S
C409 C408 1.400 . S
C409 C410 1.398 . S
C410 H398 0.950 . S
C410 C409 1.398 . S
C410 C411 1.391 . S
C411 H399 0.950 . S
C411 C407 1.393 . S
C411 C410 1.391 . S
H412 C420 0.942 1_545 S
H413 C425 0.950 . S
H414 C422 0.950 . S
H415 C424 0.950 . S
H416 C426 0.942 1_565 S
H417 C428 0.950 . S
H418 C430 0.950 . S
H419 C431 0.950 . S
C420 H412 0.942 1_565 S
C420 C421 1.386 . S
C420 C422 1.391 1_565 S
C421 C420 1.386 . S
C421 C425 1.393 . S
C422 H414 0.950 . S
C422 C420 1.391 1_545 S
C422 C423 1.400 1_545 S
C423 C422 1.400 1_565 S
C423 C424 1.398 . S
C423 C429 1.491 1_565 S
C424 H415 0.950 . S
C424 C423 1.398 . S
C424 C425 1.391 . S
C425 H413 0.950 . S
C425 C421 1.393 . S
C425 C424 1.391 . S
C426 H416 0.942 1_545 S
C426 C427 1.386 . S
C426 C428 1.391 1_545 S
C427 C426 1.386 . S
C427 C431 1.393 . S
C428 H417 0.950 . S
C428 C426 1.391 1_565 S
C428 C429 1.400 1_565 S
C429 C423 1.491 1_545 S
C429 C428 1.400 1_545 S
C429 C430 1.398 . S
C430 H418 0.950 . S
C430 C429 1.398 . S
C430 C431 1.391 . S
C431 H419 0.950 . S
C431 C427 1.393 . S
C431 C430 1.391 . S
C121 C18 1.472 . S
C127 C4 1.476 . S
C141 C32 1.475 . S
C147 C46 1.471 . S
C161 C60 1.474 . S
C167 C74 1.478 . S
C181 C88 1.469 . S
C187 C102 1.464 . S
C201 C110 1.480 . S
C207 C12 1.485 . S
C221 C96 1.486 . S
C227 C26 1.480 . S
C241 C40 1.486 . S
C247 C82 1.480 . S
C261 C68 1.487 . S
C267 C54 1.478 . S
C281 C75 1.257 . S
C287 C33 1.213 . S
C301 C61 1.215 . S
C307 C47 1.250 . S
C321 C103 1.237 . S
C327 C5 1.237 . S
C341 C19 1.249 . S
C347 C89 1.215 . S
C361 C11 1.331 . S
C367 C39 1.321 . S
C381 C53 1.337 . S
C387 C25 1.343 . S
C401 C95 1.336 . S
C407 C67 1.322 . S
C421 C81 1.328 . S
C427 C109 1.321 . S
