# Generated by pormake.
# Topology lon, (4)-cn, num edge types: 1
# Building blocks:
#     Node 0, Type 0, BuildingBlock: UXUYUI_clean_sbu_0, # of connection points: 4
#     Node 1, Type 0, BuildingBlock: UXUYUI_clean_sbu_0, # of connection points: 4
#     Node 2, Type 0, BuildingBlock: UXUYUI_clean_sbu_0, # of connection points: 4
#     Node 3, Type 0, BuildingBlock: UXUYUI_clean_sbu_0, # of connection points: 4
#     Edge 4, Type (0, 0), BuildingBlock: XIVTED_clean_linker_0, # of connection points: 2
#     Edge 5, Type (0, 0), BuildingBlock: XIVTED_clean_linker_0, # of connection points: 2
#     Edge 6, Type (0, 0), BuildingBlock: XIVTED_clean_linker_0, # of connection points: 2
#     Edge 7, Type (0, 0), BuildingBlock: XIVTED_clean_linker_0, # of connection points: 2
#     Edge 8, Type (0, 0), BuildingBlock: XIVTED_clean_linker_0, # of connection points: 2
#     Edge 9, Type (0, 0), BuildingBlock: XIVTED_clean_linker_0, # of connection points: 2
#     Edge 10, Type (0, 0), BuildingBlock: XIVTED_clean_linker_0, # of connection points: 2
#     Edge 11, Type (0, 0), BuildingBlock: XIVTED_clean_linker_0, # of connection points: 2
# Relax obj value: 0.000
# Max RMSD: 0.004
# Mean RMSD: 0.003
data_MOF--net-lon--node1-UXUYUI_clean_sbu_0--edge1-XIVTED_clean_linker_0
_symmetry_space_group_name_H-M    P1
_symmetry_Int_Tables_number       1
_symmetry_cell_setting            triclinic
loop_
_symmetry_equiv_pos_as_xyz
'x, y, z'
_cell_length_a     36.689646
_cell_length_b     36.625743
_cell_length_c     59.837665
_cell_angle_alpha  90.081775
_cell_angle_beta   90.089402
_cell_angle_gamma 120.12979
loop_
_atom_site_label
_atom_site_type_symbol
_atom_site_fract_x
_atom_site_fract_y
_atom_site_fract_z
_atom_type_partial_charge
Li0 Li 0.34589 0.67457 0.09563 0.0
Li1 Li 0.36397 0.65211 0.06237 0.0
Li2 Li 0.36617 0.71926 0.06295 0.0
Li3 Li 0.29685 0.65033 0.06191 0.0
C4 C 0.42761 0.71836 0.09833 0.0
N5 N 0.47905 0.74926 0.13557 0.0
C6 C 0.44586 0.69614 0.10744 0.0
C7 C 0.43568 0.75637 0.10814 0.0
C8 C 0.47175 0.71228 0.12627 0.0
C9 C 0.4617 0.77144 0.12696 0.0
C10 C 0.30882 0.57817 0.08076 0.0
C11 C 0.2697 0.50539 0.06891 0.0
N12 N 0.29895 0.4983 0.07882 0.0
C13 C 0.33839 0.5701 0.09092 0.0
C14 C 0.27411 0.54555 0.06971 0.0
C15 C 0.3329 0.52954 0.08971 0.0
C16 C 0.32941 0.69511 0.13877 0.0
N17 N 0.34569 0.67416 0.12766 0.0
C18 C 0.36162 0.65237 0.16219 0.0
C19 C 0.36119 0.65261 0.13888 0.0
C20 C 0.34527 0.67395 0.17417 0.0
C21 C 0.32891 0.69546 0.16212 0.0
H22 H 0.31641 0.71124 0.12954 0.0
H23 H 0.37357 0.63583 0.12977 0.0
C24 C 0.43398 0.64204 0.05262 0.0
N25 N 0.39162 0.62395 0.04989 0.0
C26 C 0.45524 0.62213 0.04446 0.0
C27 C 0.38924 0.56634 0.02975 0.0
C28 C 0.36927 0.58722 0.03832 0.0
C29 C 0.43278 0.58348 0.033 0.0
H30 H 0.45135 0.67198 0.06117 0.0
H31 H 0.33583 0.57404 0.03572 0.0
C32 C 0.30675 0.73317 0.08182 0.0
N33 N 0.29094 0.79942 0.08106 0.0
C34 C 0.27304 0.73 0.06932 0.0
C35 C 0.33211 0.76988 0.09412 0.0
C36 C 0.26563 0.76387 0.06912 0.0
C37 C 0.32371 0.80308 0.09345 0.0
C38 C 0.358 0.66974 0.02008 0.0
C39 C 0.40011 0.69761 0.01468 0.0
C40 C 0.33335 0.6354 1.00608 0.0
C41 C 0.417 0.69046 0.99537 0.0
C42 C 0.35141 0.62937 0.98692 0.0
N43 N 0.39251 0.65677 0.98201 0.0
C44 C 0.43631 0.80016 0.05435 0.0
C45 C 0.37127 0.7899 0.04049 0.0
C46 C 0.45738 0.84152 0.04633 0.0
N47 N 0.39391 0.77557 0.05166 0.0
C48 C 0.39095 0.83122 0.03245 0.0
C49 C 0.43456 0.85764 0.03542 0.0
H50 H 0.45383 0.78761 0.06265 0.0
H51 H 0.33792 0.7692 0.03776 0.0
C52 C 0.20877 0.59988 0.06649 0.0
N53 N 0.24025 0.62292 0.0518 0.0
C54 C 0.1668 0.5793 0.05941 0.0
C55 C 0.19054 0.60698 0.02229 0.0
C56 C 0.23201 0.6271 0.03011 0.0
C57 C 0.15719 0.58257 0.037 0.0
H58 H 0.21637 0.5975 0.08371 0.0
H59 H 0.2577 0.64613 0.01889 0.0
O60 O 0.40174 0.70287 0.08003 0.0
O61 O 0.3136 0.61767 0.0817 0.0
O62 O 0.31458 0.70035 0.08216 0.0
O63 O 0.34127 0.67561 0.03922 0.0
H64 H 0.43949 0.66633 0.10036 0.0
H65 H 0.42196 0.77405 0.10132 0.0
H66 H 0.48584 0.69526 0.13357 0.0
H67 H 0.4681 0.80077 0.13473 0.0
H68 H 0.24307 0.47989 0.06034 0.0
H69 H 0.36586 0.59508 0.09914 0.0
H70 H 0.25098 0.55121 0.06168 0.0
H71 H 0.35577 0.52297 0.09731 0.0
H72 H 0.37506 0.63578 0.1707 0.0
H73 H 0.31521 0.71184 0.17059 0.0
H74 H 0.48878 0.63658 0.04745 0.0
H75 H 0.37075 0.53723 0.02053 0.0
H76 H 0.25294 0.70183 0.05978 0.0
H77 H 0.35805 0.77278 0.10406 0.0
H78 H 0.23977 0.76191 0.05944 0.0
H79 H 0.34323 0.83174 0.1028 0.0
H80 H 0.41967 0.72415 0.02544 0.0
H81 H 0.30085 0.61323 0.01018 0.0
H82 H 0.44961 0.71162 0.99104 0.0
H83 H 0.33281 0.60278 0.97601 0.0
H84 H 0.49106 0.86085 0.04891 0.0
H85 H 0.37238 0.84217 0.02371 0.0
H86 H 0.14215 0.56144 0.07143 0.0
H87 H 0.18475 0.61009 1.00484 0.0
Li88 Li 0.65849 0.36539 0.56198 0.0
Li89 Li 0.72629 0.36404 0.56262 0.0
Li90 Li 0.65699 0.29721 0.56341 0.0
Li91 Li 0.68081 0.34379 0.59446 0.0
C92 C 0.68717 0.34832 0.51763 0.0
N93 N 0.7007 0.36491 0.47244 0.0
C94 C 0.71872 0.38791 0.51029 0.0
C95 C 0.66237 0.31724 0.50199 0.0
C96 C 0.72512 0.39565 0.48737 0.0
C97 C 0.66972 0.32623 0.47922 0.0
C98 C 0.72616 0.4251 0.59816 0.0
C99 C 0.77966 0.45743 0.62667 0.0
N100 N 0.75655 0.4723 0.63683 0.0
C101 C 0.70303 0.44087 0.60881 0.0
C102 C 0.76484 0.4335 0.6071 0.0
C103 C 0.71889 0.46459 0.62838 0.0
C104 C 0.60763 0.40245 0.56541 0.0
N105 N 0.63041 0.39364 0.55071 0.0
C106 C 0.61123 0.42388 0.52078 0.0
C107 C 0.63237 0.40376 0.52872 0.0
C108 C 0.58774 0.43372 0.53559 0.0
C109 C 0.5861 0.42277 0.55821 0.0
H110 H 0.60589 0.39332 0.58273 0.0
H111 H 0.65014 0.39619 0.51723 0.0
C112 C 0.79787 0.3669 0.54312 0.0
N113 N 0.78211 0.39064 0.55148 0.0
C114 C 0.83882 0.38639 0.53459 0.0
C115 C 0.84634 0.45425 0.54353 0.0
C116 C 0.80531 0.43348 0.55182 0.0
C117 C 0.86365 0.4307 0.5347 0.0
H118 H 0.7785 0.33285 0.54296 0.0
H119 H 0.7918 0.45154 0.55844 0.0
C120 C 0.58273 0.29664 0.57393 0.0
N121 N 0.50045 0.25741 0.55873 0.0
C122 C 0.54939 0.28126 0.58912 0.0
C123 C 0.5742 0.29212 0.55099 0.0
C124 C 0.50802 0.26149 0.58111 0.0
C125 C 0.5324 0.2722 0.54364 0.0
C126 C 0.702 0.28005 0.59443 0.0
C127 C 0.66387 0.25598 0.60569 0.0
C128 C 0.73351 0.2694 0.59614 0.0
C129 C 0.6579 0.22154 0.61847 0.0
C130 C 0.72634 0.23473 0.6091 0.0
N131 N 0.689 0.21171 0.61991 0.0
C132 C 0.64708 0.22935 0.53676 0.0
C133 C 0.59189 0.21086 0.56276 0.0
C134 C 0.6274 0.188 0.52859 0.0
N135 N 0.62885 0.24004 0.55332 0.0
C136 C 0.57102 0.16927 0.55504 0.0
C137 C 0.58864 0.15743 0.53763 0.0
H138 H 0.67681 0.2531 0.52978 0.0
H139 H 0.57858 0.21971 0.57637 0.0
C140 C 0.64807 0.34409 0.63711 0.0
N141 N 0.6812 0.34533 0.62631 0.0
C142 C 0.64711 0.34447 0.66044 0.0
C143 C 0.71457 0.34772 0.66102 0.0
C144 C 0.71414 0.34714 0.6377 0.0
C145 C 0.68064 0.34619 0.67273 0.0
H146 H 0.62231 0.34265 0.62757 0.0
H147 H 0.74018 0.34828 0.62864 0.0
O148 O 0.68045 0.33994 0.54 0.0
O149 O 0.71063 0.40081 0.57934 0.0
O150 O 0.62333 0.31612 0.58168 0.0
O151 O 0.70873 0.31395 0.58177 0.0
H152 H 0.73755 0.41262 0.52213 0.0
H153 H 0.63751 0.28657 0.50737 0.0
H154 H 0.74937 0.42617 0.48145 0.0
H155 H 0.65074 0.30248 0.46694 0.0
H156 H 0.80941 0.46393 0.63386 0.0
H157 H 0.673 0.43456 0.60216 0.0
H158 H 0.78288 0.42105 0.59924 0.0
H159 H 0.70122 0.47679 0.63688 0.0
H160 H 0.61367 0.43208 0.50325 0.0
H161 H 0.56784 0.42921 0.57013 0.0
H162 H 0.85065 0.36699 0.52769 0.0
H163 H 0.86442 0.48839 0.54425 0.0
H164 H 0.55545 0.28448 0.60693 0.0
H165 H 0.59943 0.3038 0.53895 0.0
H166 H 0.48192 0.24939 0.59269 0.0
H167 H 0.52538 0.2685 0.52594 0.0
H168 H 0.63916 0.2638 0.60464 0.0
H169 H 0.7632 0.28777 0.58752 0.0
H170 H 0.62856 0.20263 0.62727 0.0
H171 H 0.75045 0.22612 0.61058 0.0
H172 H 0.64199 0.18023 0.5151 0.0
H173 H 0.54164 0.1465 0.56279 0.0
H174 H 0.62007 0.34272 0.66872 0.0
H175 H 0.7414 0.34974 0.66976 0.0
Li176 Li 0.36833 0.72109 0.4521 0.0
Li177 Li 0.34636 0.67486 0.42078 0.0
Li178 Li 0.3015 0.65239 0.45222 0.0
Li179 Li 0.37048 0.65206 0.45178 0.0
C180 C 0.29641 0.72319 0.44141 0.0
N181 N 0.25571 0.76391 0.45776 0.0
C182 C 0.28264 0.74356 0.4268 0.0
C183 C 0.28942 0.72358 0.46434 0.0
C184 C 0.26216 0.76398 0.43539 0.0
C185 C 0.2688 0.74429 0.47228 0.0
C186 C 0.43017 0.72366 0.41717 0.0
C187 C 0.4836 0.72895 0.39184 0.0
N188 N 0.48307 0.76157 0.3813 0.0
C189 C 0.43039 0.75747 0.40625 0.0
C190 C 0.45714 0.70941 0.41006 0.0
C191 C 0.45727 0.77611 0.38807 0.0
C192 C 0.42335 0.78662 0.48097 0.0
N193 N 0.39739 0.77746 0.46303 0.0
C194 C 0.41362 0.8492 0.46069 0.0
C195 C 0.39262 0.8078 0.45266 0.0
C196 C 0.44026 0.85957 0.47938 0.0
C197 C 0.44521 0.8277 0.48949 0.0
H198 H 0.42695 0.76192 0.4887 0.0
H199 H 0.37271 0.79998 0.43805 0.0
C200 C 0.32447 0.68971 0.37781 0.0
N201 N 0.34672 0.67467 0.38871 0.0
C202 C 0.32387 0.69043 0.35449 0.0
C203 C 0.36878 0.65974 0.35399 0.0
C204 C 0.36861 0.65975 0.37732 0.0
C205 C 0.34625 0.67531 0.34227 0.0
H206 H 0.307 0.70096 0.38725 0.0
H207 H 0.38594 0.64779 0.38634 0.0
C208 C 0.34364 0.66759 0.49719 0.0
N209 N 0.33575 0.65163 0.54259 0.0
C210 C 0.33907 0.6298 0.50539 0.0
C211 C 0.34458 0.69744 0.51214 0.0
C212 C 0.335 0.62225 0.52838 0.0
C213 C 0.34043 0.68873 0.53502 0.0
C214 C 0.30239 0.59266 0.41606 0.0
C215 C 0.2663 0.58826 0.40562 0.0
C216 C 0.3226 0.57219 0.40716 0.0
C217 C 0.25125 0.56375 0.38625 0.0
C218 C 0.30652 0.5479 0.38778 0.0
N219 N 0.2715 0.54426 0.3778 0.0
C220 C 0.21428 0.62456 0.45098 0.0
C221 C 0.23524 0.59926 0.48197 0.0
C222 C 0.1725 0.60328 0.45824 0.0
N223 N 0.24473 0.62253 0.46297 0.0
C224 C 0.19393 0.5776 0.4899 0.0
C225 C 0.16184 0.57946 0.47801 0.0
H226 H 0.2224 0.64262 0.43568 0.0
H227 H 0.25961 0.59727 0.49098 0.0
C228 C 0.43914 0.64871 0.47082 0.0
N229 N 0.39939 0.62505 0.46264 0.0
C230 C 0.46064 0.62914 0.47916 0.0
C231 C 0.39982 0.56135 0.4704 0.0
C232 C 0.37949 0.5822 0.46233 0.0
C233 C 0.44097 0.58485 0.47897 0.0
H234 H 0.45407 0.68278 0.47086 0.0
H235 H 0.34758 0.56423 0.45605 0.0
O236 O 0.31684 0.70337 0.43315 0.0
O237 O 0.40368 0.70462 0.43478 0.0
O238 O 0.34849 0.67589 0.47474 0.0
O239 O 0.31804 0.61721 0.43479 0.0
H240 H 0.28791 0.74384 0.40901 0.0
H241 H 0.2994 0.70777 0.47588 0.0
H242 H 0.25143 0.77991 0.42426 0.0
H243 H 0.26314 0.7447 0.48999 0.0
H244 H 0.50448 0.71812 0.38604 0.0
H245 H 0.4096 0.76876 0.41157 0.0
H246 H 0.45731 0.6833 0.41842 0.0
H247 H 0.45756 0.80208 0.37932 0.0
H248 H 0.40955 0.87297 0.45216 0.0
H249 H 0.46529 0.83432 0.50399 0.0
H250 H 0.30559 0.70215 0.34613 0.0
H251 H 0.3868 0.64815 0.34525 0.0
H252 H 0.33795 0.6062 0.49411 0.0
H253 H 0.34856 0.72711 0.5062 0.0
H254 H 0.33116 0.59301 0.53491 0.0
H255 H 0.34101 0.71151 0.54675 0.0
H256 H 0.25046 0.6041 0.41222 0.0
H257 H 0.35081 0.57559 0.4149 0.0
H258 H 0.22353 0.56032 0.37789 0.0
H259 H 0.322 0.53212 0.38061 0.0
H260 H 0.14875 0.60501 0.44828 0.0
H261 H 0.18734 0.55995 0.50531 0.0
H262 H 0.49247 0.64845 0.48542 0.0
H263 H 0.38324 0.52716 0.47027 0.0
Li264 Li 0.65105 0.29581 0.95274 0.0
Li265 Li 0.65311 0.36406 0.95354 0.0
Li266 Li 0.67656 0.34107 0.91917 0.0
Li267 Li 0.71984 0.36516 0.95314 0.0
C268 C 0.58085 0.2837 0.92696 0.0
N269 N 0.50182 0.21982 0.91423 0.0
C270 C 0.54475 0.28122 0.93626 0.0
C271 C 0.57671 0.25412 0.91089 0.0
C272 C 0.50509 0.24857 0.92969 0.0
C273 C 0.53651 0.22196 0.90475 0.0
C274 C 0.66307 0.34754 0.99664 0.0
C275 C 0.67028 0.39509 0.02647 0.0
N276 N 0.63801 0.36249 0.03751 0.0
C277 C 0.63024 0.31442 0.00837 0.0
C278 C 0.68353 0.38813 1.00584 0.0
C279 C 0.61794 0.32265 0.02898 0.0
C280 C 0.64576 0.2199 0.96676 0.0
N281 N 0.62264 0.23901 0.96331 0.0
C282 C 0.56005 0.17714 0.97537 0.0
C283 C 0.58066 0.21872 0.96773 0.0
C284 C 0.58297 0.15632 0.9789 0.0
C285 C 0.6265 0.17841 0.97455 0.0
H286 H 0.67928 0.23703 0.96354 0.0
H287 H 0.56314 0.23489 0.96558 0.0
C288 C 0.63631 0.43123 0.95561 0.0
N289 N 0.62441 0.39223 0.96379 0.0
C290 C 0.61621 0.45297 0.96277 0.0
C291 C 0.57172 0.39387 0.98651 0.0
C292 C 0.59245 0.37317 0.97875 0.0
C293 C 0.58349 0.4344 0.97853 0.0
H294 H 0.66125 0.44538 0.94339 0.0
H295 H 0.58294 0.34179 0.98465 0.0
C296 C 0.71437 0.29081 0.92133 0.0
N297 N 0.7362 0.24541 0.89286 0.0
C298 C 0.75654 0.30636 0.91559 0.0
C299 C 0.68342 0.25177 0.91293 0.0
C300 C 0.76691 0.28307 0.90107 0.0
C301 C 0.69505 0.22939 0.89848 0.0
C302 C 0.73697 0.43687 0.93207 0.0
C303 C 0.7607 0.44928 0.91243 0.0
C304 C 0.74912 0.46483 0.95014 0.0
C305 C 0.79671 0.48926 0.91135 0.0
C306 C 0.78535 0.50451 0.94841 0.0
N307 N 0.80822 0.51579 0.92922 0.0
C308 C 0.6431 0.33622 0.87599 0.0
C309 C 0.71267 0.34777 0.87634 0.0
C310 C 0.64273 0.33626 0.85265 0.0
N311 N 0.67754 0.34141 0.88731 0.0
C312 C 0.71369 0.34799 0.85302 0.0
C313 C 0.67833 0.34205 0.84084 0.0
H314 H 0.61587 0.33212 0.88509 0.0
H315 H 0.74021 0.35338 0.88568 0.0
C316 C 0.78355 0.39461 0.98627 0.0
N317 N 0.77642 0.39353 0.96391 0.0
C318 C 0.8247 0.41542 0.99461 0.0
C319 C 0.85044 0.43335 0.95676 0.0
C320 C 0.80882 0.41199 0.94915 0.0
C321 C 0.85881 0.43529 0.97978 0.0
H322 H 0.75728 0.37923 0.99764 0.0
H323 H 0.80235 0.41003 0.93144 0.0
O324 O 0.61993 0.31534 0.93334 0.0
O325 O 0.67538 0.3401 0.97638 0.0
O326 O 0.70366 0.31336 0.93543 0.0
O327 O 0.70188 0.39767 0.93353 0.0
H328 H 0.54729 0.30408 0.94853 0.0
H329 H 0.60418 0.25622 0.90304 0.0
H330 H 0.4769 0.2461 0.93688 0.0
H331 H 0.53288 0.19879 0.89238 0.0
H332 H 0.6857 0.42641 0.03372 0.0
H333 H 0.61428 0.28275 1.00161 0.0
H334 H 0.70934 0.41399 0.99714 0.0
H335 H 0.59242 0.29736 0.03818 0.0
H336 H 0.52643 0.16146 0.9783 0.0
H337 H 0.6457 0.16409 0.97745 0.0
H338 H 0.62583 0.48372 0.95575 0.0
H339 H 0.54701 0.37836 0.99881 0.0
H340 H 0.781 0.33625 0.92214 0.0
H341 H 0.65084 0.23864 0.9177 0.0
H342 H 0.79939 0.29493 0.89635 0.0
H343 H 0.67137 0.1992 0.89181 0.0
H344 H 0.75157 0.4282 0.89823 0.0
H345 H 0.7308 0.45597 0.96532 0.0
H346 H 0.81552 0.49918 0.8963 0.0
H347 H 0.79524 0.52636 0.96232 0.0
H348 H 0.61471 0.33137 0.84396 0.0
H349 H 0.74215 0.35353 0.84463 0.0
H350 H 0.82971 0.41637 0.01249 0.0
H351 H 0.87579 0.44762 0.94471 0.0
H352 H 0.3302 0.60863 0.20229 0.0
H353 H 0.35263 0.7377 0.31447 0.0
H354 H 0.35956 0.73853 0.20291 0.0
H355 H 0.33929 0.61373 0.31354 0.0
H356 H 0.35186 0.73744 0.27361 0.0
H357 H 0.33082 0.60907 0.24303 0.0
C358 C 0.33705 0.63737 0.21095 0.0
C359 C 0.34499 0.67366 0.19905 0.0
C360 C 0.34916 0.71031 0.28234 0.0
C361 C 0.34506 0.67411 0.24587 0.0
C362 C 0.34934 0.71033 0.30567 0.0
C363 C 0.34602 0.67567 0.31746 0.0
C364 C 0.34542 0.67529 0.27067 0.0
C365 C 0.34243 0.64133 0.30516 0.0
C366 C 0.33715 0.63749 0.23426 0.0
C367 C 0.35274 0.70963 0.21131 0.0
N368 N 0.34213 0.64198 0.28246 0.0
N369 N 0.35258 0.70893 0.23402 0.0
H370 H 0.6529 0.38642 0.7009 0.0
H371 H 0.71073 0.30629 0.81273 0.0
H372 H 0.70709 0.30554 0.70134 0.0
H373 H 0.64698 0.37835 0.81233 0.0
H374 H 0.7117 0.30759 0.77191 0.0
H375 H 0.65175 0.38508 0.7417 0.0
C376 C 0.66435 0.36818 0.70954 0.0
C377 C 0.6801 0.34604 0.69759 0.0
C378 C 0.69744 0.32308 0.78074 0.0
C379 C 0.67937 0.34483 0.74441 0.0
C380 C 0.6971 0.32256 0.80406 0.0
C381 C 0.67876 0.34226 0.81601 0.0
C382 C 0.67945 0.34357 0.76921 0.0
C383 C 0.661 0.3623 0.80384 0.0
C384 C 0.66389 0.36762 0.73287 0.0
C385 C 0.69522 0.32359 0.70979 0.0
N386 N 0.66186 0.36251 0.78114 0.0
N387 N 0.69447 0.32357 0.73249 0.0
H388 H 0.4031 0.4981 0.03216 0.0
H389 H 0.61752 0.5193 0.98676 0.0
H390 H 0.51223 0.61749 0.01498 0.0
H391 H 0.49953 0.40124 0.98847 0.0
H392 H 0.58091 0.55568 0.99951 0.0
H393 H 0.43934 0.4619 0.01861 0.0
C394 C 0.43453 0.51677 0.02538 0.0
C395 C 0.45451 0.56103 0.02469 0.0
C396 C 0.56306 0.52181 0.99706 0.0
C397 C 0.49655 0.51961 0.00953 0.0
C398 C 0.58389 0.50098 0.98966 0.0
C399 C 0.56167 0.45701 0.98646 0.0
C400 C 0.51967 0.49857 1.00149 0.0
C401 C 0.51822 0.43501 0.99099 0.0
C402 C 0.45531 0.49602 0.01777 0.0
C403 C 0.49571 0.58342 0.01617 0.0
N404 N 0.4987 0.45599 0.9983 0.0
N405 N 0.51535 0.56248 0.00897 0.0
H406 H 0.11906 0.50118 0.49759 0.0
H407 H 0.90313 0.50358 0.51005 0.0
H408 H 0.10349 0.60551 0.47701 0.0
H409 H 0.92377 0.4073 0.53872 0.0
H410 H 0.97539 0.53965 0.49623 0.0
H411 H 0.04664 0.46473 0.51125 0.0
C412 C 0.10055 0.51658 0.49604 0.0
C413 C 0.11758 0.55661 0.48615 0.0
C414 C 0.96413 0.51063 0.50554 0.0
C415 C 0.03424 0.51463 0.50149 0.0
C416 C 0.92289 0.49009 0.51356 0.0
C417 C 0.90728 0.45237 0.52568 0.0
C418 C 0.99008 0.49335 0.50958 0.0
C419 C 0.9342 0.43601 0.52926 0.0
C420 C 0.05908 0.4956 0.50374 0.0
C421 C 0.09165 0.57451 0.48423 0.0
N422 N 0.97426 0.45661 0.52127 0.0
N423 N 0.05135 0.55342 0.49183 0.0
H424 H 0.59878 0.09274 0.96753 0.0
H425 H 0.40911 0.9159 0.03952 0.0
H426 H 0.5183 0.11853 0.00927 0.0
H427 H 0.50896 0.89959 0.01245 0.0
H428 H 0.44517 0.98858 0.02575 0.0
H429 H 0.56325 0.02034 0.98142 0.0
C430 C 0.57388 0.08339 0.97971 0.0
C431 C 0.56163 0.11203 0.9872 0.0
C432 C 0.45923 0.96913 0.02286 0.0
C433 C 0.52025 0.02872 1.00285 0.0
C434 C 0.43854 0.92759 0.03058 0.0
C435 C 0.4561 0.90172 0.02712 0.0
C436 C 0.49756 0.9848 0.01137 0.0
C437 C 0.49455 0.91862 0.01566 0.0
C438 C 0.55345 0.04191 0.98754 0.0
C439 C 0.52846 0.09757 1.00268 0.0
N440 N 0.51391 0.95904 0.00811 0.0
N441 N 0.50891 0.05696 0.00993 0.0
H442 H 0.54195 0.41809 0.49701 0.0
H443 H 0.48997 0.60357 0.51666 0.0
H444 H 0.58204 0.49828 0.55543 0.0
H445 H 0.44233 0.5167 0.46103 0.0
H446 H 0.52558 0.56685 0.53069 0.0
H447 H 0.5066 0.45504 0.48321 0.0
C448 C 0.54344 0.4436 0.5069 0.0
C449 C 0.56512 0.4552 0.52738 0.0
C450 C 0.5073 0.5558 0.51543 0.0
C451 C 0.52442 0.49754 0.51173 0.0
C452 C 0.48719 0.57692 0.50733 0.0
C453 C 0.46309 0.56317 0.48764 0.0
C454 C 0.50348 0.52078 0.5037 0.0
C455 C 0.46012 0.52808 0.47642 0.0
C456 C 0.52306 0.46456 0.49907 0.0
C457 C 0.56538 0.48803 0.53966 0.0
N458 N 0.48011 0.50818 0.48458 0.0
N459 N 0.54548 0.50816 0.53161 0.0
H460 H 0.09268 0.5039 0.04858 0.0
H461 H 0.92461 0.51115 0.96592 0.0
H462 H 0.1202 0.61103 1.00706 0.0
H463 H 0.8934 0.41041 0.01289 0.0
H464 H 0.99709 0.5471 0.97982 0.0
H465 H 0.02002 0.4684 0.03508 0.0
C466 C 0.08344 0.52013 0.03675 0.0
C467 C 0.11275 0.56061 0.02898 0.0
C468 C 0.97439 0.51716 0.98712 0.0
C469 C 0.02955 0.51976 0.01318 0.0
C470 C 0.93305 0.4965 0.97909 0.0
C471 C 0.90287 0.45768 0.98824 0.0
C472 C 0.98579 0.49882 1.00436 0.0
C473 C 0.91548 0.4405 1.00552 0.0
C474 C 0.04195 0.4997 0.02894 0.0
C475 C 0.09898 0.57964 0.0133 0.0
N476 N 0.95598 0.46111 0.01297 0.0
N477 N 0.05844 0.55905 1.00592 0.0
H478 H 0.50452 0.10722 0.52868 0.0
H479 H 0.52239 0.90581 0.49347 0.0
H480 H 0.62229 0.10763 0.52681 0.0
H481 H 0.40932 0.9131 0.4854 0.0
H482 H 0.55878 0.97826 0.50777 0.0
H483 H 0.46835 0.03463 0.51479 0.0
C484 C 0.52274 0.09195 0.52544 0.0
C485 C 0.56649 0.11349 0.52895 0.0
C486 C 0.52602 0.96402 0.50285 0.0
C487 C 0.5253 0.03041 0.51292 0.0
C488 C 0.50517 0.92259 0.49482 0.0
C489 C 0.46276 0.9034 0.48821 0.0
C490 C 0.50424 0.98636 0.50445 0.0
C491 C 0.44215 0.92682 0.49006 0.0
C492 C 0.50211 0.05058 0.51739 0.0
C493 C 0.5886 0.09234 0.52414 0.0
N494 N 0.46304 0.96699 0.49805 0.0
N495 N 0.56774 0.05192 0.51645 0.0
loop_
_geom_bond_atom_site_label_1
_geom_bond_atom_site_label_2
_geom_bond_distance
_geom_bond_site_symmetry_2
_ccdc_geom_bond_type
Li0 N17 1.990 . S
Li0 O60 1.956 . S
Li0 O61 1.970 . S
Li0 O62 1.961 . S
Li1 N25 1.990 . S
Li1 O60 1.970 . S
Li1 O61 1.956 . S
Li1 O63 1.961 . S
Li2 N47 1.990 . S
Li2 O60 1.961 . S
Li2 O62 1.956 . S
Li2 O63 1.970 . S
Li3 N53 1.990 . S
Li3 O61 1.961 . S
Li3 O62 1.970 . S
Li3 O63 1.956 . S
C4 C6 1.348 . S
C4 C7 1.356 . S
C4 O60 1.325 . S
N5 C8 1.314 . S
N5 C9 1.279 . S
C6 C4 1.348 . S
C6 C8 1.353 . S
C6 H64 0.929 . S
C7 C4 1.356 . S
C7 C9 1.358 . S
C7 H65 0.930 . S
C8 N5 1.314 . S
C8 C6 1.353 . S
C8 H66 0.930 . S
C9 N5 1.279 . S
C9 C7 1.358 . S
C9 H67 0.930 . S
C10 C13 1.348 . S
C10 C14 1.356 . S
C10 O61 1.325 . S
C11 N12 1.279 . S
C11 C14 1.358 . S
C11 H68 0.930 . S
N12 C11 1.279 . S
N12 C15 1.314 . S
C13 C10 1.348 . S
C13 C15 1.353 . S
C13 H69 0.929 . S
C14 C10 1.356 . S
C14 C11 1.358 . S
C14 H70 0.930 . S
C15 N12 1.314 . S
C15 C13 1.353 . S
C15 H71 0.930 . S
C16 N17 1.314 . S
C16 C21 1.353 . S
C16 H22 0.930 . S
N17 Li0 1.990 . S
N17 C16 1.314 . S
N17 C19 1.279 . S
C18 C19 1.358 . S
C18 C20 1.356 . S
C18 H72 0.930 . S
C19 N17 1.279 . S
C19 C18 1.358 . S
C19 H23 0.930 . S
C20 C18 1.356 . S
C20 C21 1.348 . S
C21 C16 1.353 . S
C21 C20 1.348 . S
C21 H73 0.929 . S
H22 C16 0.930 . S
H23 C19 0.930 . S
C24 N25 1.314 . S
C24 C26 1.353 . S
C24 H30 0.930 . S
N25 Li1 1.990 . S
N25 C24 1.314 . S
N25 C28 1.279 . S
C26 C24 1.353 . S
C26 C29 1.348 . S
C26 H74 0.929 . S
C27 C28 1.358 . S
C27 C29 1.356 . S
C27 H75 0.930 . S
C28 N25 1.279 . S
C28 C27 1.358 . S
C28 H31 0.930 . S
C29 C26 1.348 . S
C29 C27 1.356 . S
H30 C24 0.930 . S
H31 C28 0.930 . S
C32 C34 1.348 . S
C32 C35 1.356 . S
C32 O62 1.325 . S
N33 C36 1.314 . S
N33 C37 1.279 . S
C34 C32 1.348 . S
C34 C36 1.353 . S
C34 H76 0.929 . S
C35 C32 1.356 . S
C35 C37 1.358 . S
C35 H77 0.930 . S
C36 N33 1.314 . S
C36 C34 1.353 . S
C36 H78 0.930 . S
C37 N33 1.279 . S
C37 C35 1.358 . S
C37 H79 0.930 . S
C38 C39 1.331 1_554 S
C38 C40 1.357 1_554 S
C38 O63 1.325 . S
C39 C38 1.331 1_556 S
C39 C41 1.382 . S
C39 H80 0.917 1_556 S
C40 C38 1.357 1_556 S
C40 C42 1.358 . S
C40 H81 0.930 1_556 S
C41 C39 1.382 . S
C41 N43 1.314 . S
C41 H82 0.930 . S
C42 C40 1.358 . S
C42 N43 1.279 . S
C42 H83 0.930 . S
N43 C41 1.314 . S
N43 C42 1.279 . S
C44 C46 1.353 . S
C44 N47 1.314 . S
C44 H50 0.930 . S
C45 N47 1.279 . S
C45 C48 1.358 . S
C45 H51 0.930 . S
C46 C44 1.353 . S
C46 C49 1.348 . S
C46 H84 0.929 . S
N47 Li2 1.990 . S
N47 C44 1.314 . S
N47 C45 1.279 . S
C48 C45 1.358 . S
C48 C49 1.356 . S
C48 H85 0.930 . S
C49 C46 1.348 . S
C49 C48 1.356 . S
H50 C44 0.930 . S
H51 C45 0.930 . S
C52 N53 1.314 . S
C52 C54 1.353 . S
C52 H58 0.930 . S
N53 Li3 1.990 . S
N53 C52 1.314 . S
N53 C56 1.279 . S
C54 C52 1.353 . S
C54 C57 1.348 . S
C54 H86 0.929 . S
C55 C56 1.358 . S
C55 C57 1.356 . S
C55 H87 0.930 1_554 S
C56 N53 1.279 . S
C56 C55 1.358 . S
C56 H59 0.930 . S
C57 C54 1.348 . S
C57 C55 1.356 . S
H58 C52 0.930 . S
H59 C56 0.930 . S
O60 Li0 1.956 . S
O60 Li1 1.970 . S
O60 Li2 1.961 . S
O60 C4 1.325 . S
O61 Li0 1.970 . S
O61 Li1 1.956 . S
O61 Li3 1.961 . S
O61 C10 1.325 . S
O62 Li0 1.961 . S
O62 Li2 1.956 . S
O62 Li3 1.970 . S
O62 C32 1.325 . S
O63 Li1 1.961 . S
O63 Li2 1.970 . S
O63 Li3 1.956 . S
O63 C38 1.325 . S
H64 C6 0.929 . S
H65 C7 0.930 . S
H66 C8 0.930 . S
H67 C9 0.930 . S
H68 C11 0.930 . S
H69 C13 0.929 . S
H70 C14 0.930 . S
H71 C15 0.930 . S
H72 C18 0.930 . S
H73 C21 0.929 . S
H74 C26 0.929 . S
H75 C27 0.930 . S
H76 C34 0.929 . S
H77 C35 0.930 . S
H78 C36 0.930 . S
H79 C37 0.930 . S
H80 C39 0.917 1_554 S
H81 C40 0.930 1_554 S
H82 C41 0.930 . S
H83 C42 0.930 . S
H84 C46 0.929 . S
H85 C48 0.930 . S
H86 C54 0.929 . S
H87 C55 0.930 1_556 S
Li88 N105 1.990 . S
Li88 O148 1.956 . S
Li88 O149 1.970 . S
Li88 O150 1.961 . S
Li89 N113 1.990 . S
Li89 O148 1.970 . S
Li89 O149 1.956 . S
Li89 O151 1.961 . S
Li90 N135 1.990 . S
Li90 O148 1.961 . S
Li90 O150 1.956 . S
Li90 O151 1.970 . S
Li91 N141 1.990 . S
Li91 O149 1.961 . S
Li91 O150 1.970 . S
Li91 O151 1.956 . S
C92 C94 1.348 . S
C92 C95 1.356 . S
C92 O148 1.325 . S
N93 C96 1.314 . S
N93 C97 1.279 . S
C94 C92 1.348 . S
C94 C96 1.353 . S
C94 H152 0.929 . S
C95 C92 1.356 . S
C95 C97 1.358 . S
C95 H153 0.930 . S
C96 N93 1.314 . S
C96 C94 1.353 . S
C96 H154 0.930 . S
C97 N93 1.279 . S
C97 C95 1.358 . S
C97 H155 0.930 . S
C98 C101 1.348 . S
C98 C102 1.356 . S
C98 O149 1.325 . S
C99 N100 1.279 . S
C99 C102 1.358 . S
C99 H156 0.930 . S
N100 C99 1.279 . S
N100 C103 1.314 . S
C101 C98 1.348 . S
C101 C103 1.353 . S
C101 H157 0.929 . S
C102 C98 1.356 . S
C102 C99 1.358 . S
C102 H158 0.930 . S
C103 N100 1.314 . S
C103 C101 1.353 . S
C103 H159 0.930 . S
C104 N105 1.314 . S
C104 C109 1.353 . S
C104 H110 0.930 . S
N105 Li88 1.990 . S
N105 C104 1.314 . S
N105 C107 1.279 . S
C106 C107 1.358 . S
C106 C108 1.356 . S
C106 H160 0.930 . S
C107 N105 1.279 . S
C107 C106 1.358 . S
C107 H111 0.930 . S
C108 C106 1.356 . S
C108 C109 1.348 . S
C109 C104 1.353 . S
C109 C108 1.348 . S
C109 H161 0.929 . S
H110 C104 0.930 . S
H111 C107 0.930 . S
C112 N113 1.314 . S
C112 C114 1.353 . S
C112 H118 0.930 . S
N113 Li89 1.990 . S
N113 C112 1.314 . S
N113 C116 1.279 . S
C114 C112 1.353 . S
C114 C117 1.348 . S
C114 H162 0.929 . S
C115 C116 1.358 . S
C115 C117 1.356 . S
C115 H163 0.930 . S
C116 N113 1.279 . S
C116 C115 1.358 . S
C116 H119 0.930 . S
C117 C114 1.348 . S
C117 C115 1.356 . S
H118 C112 0.930 . S
H119 C116 0.930 . S
C120 C122 1.348 . S
C120 C123 1.356 . S
C120 O150 1.325 . S
N121 C124 1.314 . S
N121 C125 1.279 . S
C122 C120 1.348 . S
C122 C124 1.353 . S
C122 H164 0.929 . S
C123 C120 1.356 . S
C123 C125 1.358 . S
C123 H165 0.930 . S
C124 N121 1.314 . S
C124 C122 1.353 . S
C124 H166 0.930 . S
C125 N121 1.279 . S
C125 C123 1.358 . S
C125 H167 0.930 . S
C126 C127 1.348 . S
C126 C128 1.356 . S
C126 O151 1.325 . S
C127 C126 1.348 . S
C127 C129 1.353 . S
C127 H168 0.929 . S
C128 C126 1.356 . S
C128 C130 1.358 . S
C128 H169 0.930 . S
C129 C127 1.353 . S
C129 N131 1.314 . S
C129 H170 0.930 . S
C130 C128 1.358 . S
C130 N131 1.279 . S
C130 H171 0.930 . S
N131 C129 1.314 . S
N131 C130 1.279 . S
C132 C134 1.353 . S
C132 N135 1.314 . S
C132 H138 0.930 . S
C133 N135 1.279 . S
C133 C136 1.358 . S
C133 H139 0.930 . S
C134 C132 1.353 . S
C134 C137 1.348 . S
C134 H172 0.929 . S
N135 Li90 1.990 . S
N135 C132 1.314 . S
N135 C133 1.279 . S
C136 C133 1.358 . S
C136 C137 1.356 . S
C136 H173 0.930 . S
C137 C134 1.348 . S
C137 C136 1.356 . S
H138 C132 0.930 . S
H139 C133 0.930 . S
C140 N141 1.314 . S
C140 C142 1.353 . S
C140 H146 0.930 . S
N141 Li91 1.990 . S
N141 C140 1.314 . S
N141 C144 1.279 . S
C142 C140 1.353 . S
C142 C145 1.348 . S
C142 H174 0.929 . S
C143 C144 1.358 . S
C143 C145 1.356 . S
C143 H175 0.930 . S
C144 N141 1.279 . S
C144 C143 1.358 . S
C144 H147 0.930 . S
C145 C142 1.348 . S
C145 C143 1.356 . S
H146 C140 0.930 . S
H147 C144 0.930 . S
O148 Li88 1.956 . S
O148 Li89 1.970 . S
O148 Li90 1.961 . S
O148 C92 1.325 . S
O149 Li88 1.970 . S
O149 Li89 1.956 . S
O149 Li91 1.961 . S
O149 C98 1.325 . S
O150 Li88 1.961 . S
O150 Li90 1.956 . S
O150 Li91 1.970 . S
O150 C120 1.325 . S
O151 Li89 1.961 . S
O151 Li90 1.970 . S
O151 Li91 1.956 . S
O151 C126 1.325 . S
H152 C94 0.929 . S
H153 C95 0.930 . S
H154 C96 0.930 . S
H155 C97 0.930 . S
H156 C99 0.930 . S
H157 C101 0.929 . S
H158 C102 0.930 . S
H159 C103 0.930 . S
H160 C106 0.930 . S
H161 C109 0.929 . S
H162 C114 0.929 . S
H163 C115 0.930 . S
H164 C122 0.929 . S
H165 C123 0.930 . S
H166 C124 0.930 . S
H167 C125 0.930 . S
H168 C127 0.929 . S
H169 C128 0.930 . S
H170 C129 0.930 . S
H171 C130 0.930 . S
H172 C134 0.929 . S
H173 C136 0.930 . S
H174 C142 0.929 . S
H175 C143 0.930 . S
Li176 N193 1.990 . S
Li176 O236 1.956 . S
Li176 O237 1.970 . S
Li176 O238 1.961 . S
Li177 N201 1.990 . S
Li177 O236 1.970 . S
Li177 O237 1.956 . S
Li177 O239 1.961 . S
Li178 N223 1.990 . S
Li178 O236 1.961 . S
Li178 O238 1.956 . S
Li178 O239 1.970 . S
Li179 N229 1.990 . S
Li179 O237 1.961 . S
Li179 O238 1.970 . S
Li179 O239 1.956 . S
C180 C182 1.348 . S
C180 C183 1.356 . S
C180 O236 1.325 . S
N181 C184 1.314 . S
N181 C185 1.279 . S
C182 C180 1.348 . S
C182 C184 1.353 . S
C182 H240 0.929 . S
C183 C180 1.356 . S
C183 C185 1.358 . S
C183 H241 0.930 . S
C184 N181 1.314 . S
C184 C182 1.353 . S
C184 H242 0.930 . S
C185 N181 1.279 . S
C185 C183 1.358 . S
C185 H243 0.930 . S
C186 C189 1.348 . S
C186 C190 1.356 . S
C186 O237 1.325 . S
C187 N188 1.279 . S
C187 C190 1.358 . S
C187 H244 0.930 . S
N188 C187 1.279 . S
N188 C191 1.314 . S
C189 C186 1.348 . S
C189 C191 1.353 . S
C189 H245 0.929 . S
C190 C186 1.356 . S
C190 C187 1.358 . S
C190 H246 0.930 . S
C191 N188 1.314 . S
C191 C189 1.353 . S
C191 H247 0.930 . S
C192 N193 1.314 . S
C192 C197 1.353 . S
C192 H198 0.930 . S
N193 Li176 1.990 . S
N193 C192 1.314 . S
N193 C195 1.279 . S
C194 C195 1.358 . S
C194 C196 1.356 . S
C194 H248 0.930 . S
C195 N193 1.279 . S
C195 C194 1.358 . S
C195 H199 0.930 . S
C196 C194 1.356 . S
C196 C197 1.348 . S
C197 C192 1.353 . S
C197 C196 1.348 . S
C197 H249 0.929 . S
H198 C192 0.930 . S
H199 C195 0.930 . S
C200 N201 1.314 . S
C200 C202 1.353 . S
C200 H206 0.930 . S
N201 Li177 1.990 . S
N201 C200 1.314 . S
N201 C204 1.279 . S
C202 C200 1.353 . S
C202 C205 1.348 . S
C202 H250 0.929 . S
C203 C204 1.358 . S
C203 C205 1.356 . S
C203 H251 0.930 . S
C204 N201 1.279 . S
C204 C203 1.358 . S
C204 H207 0.930 . S
C205 C202 1.348 . S
C205 C203 1.356 . S
H206 C200 0.930 . S
H207 C204 0.930 . S
C208 C210 1.348 . S
C208 C211 1.356 . S
C208 O238 1.325 . S
N209 C212 1.314 . S
N209 C213 1.279 . S
C210 C208 1.348 . S
C210 C212 1.353 . S
C210 H252 0.929 . S
C211 C208 1.356 . S
C211 C213 1.358 . S
C211 H253 0.930 . S
C212 N209 1.314 . S
C212 C210 1.353 . S
C212 H254 0.930 . S
C213 N209 1.279 . S
C213 C211 1.358 . S
C213 H255 0.930 . S
C214 C215 1.348 . S
C214 C216 1.356 . S
C214 O239 1.325 . S
C215 C214 1.348 . S
C215 C217 1.353 . S
C215 H256 0.929 . S
C216 C214 1.356 . S
C216 C218 1.358 . S
C216 H257 0.930 . S
C217 C215 1.353 . S
C217 N219 1.314 . S
C217 H258 0.930 . S
C218 C216 1.358 . S
C218 N219 1.279 . S
C218 H259 0.930 . S
N219 C217 1.314 . S
N219 C218 1.279 . S
C220 C222 1.353 . S
C220 N223 1.314 . S
C220 H226 0.930 . S
C221 N223 1.279 . S
C221 C224 1.358 . S
C221 H227 0.930 . S
C222 C220 1.353 . S
C222 C225 1.348 . S
C222 H260 0.929 . S
N223 Li178 1.990 . S
N223 C220 1.314 . S
N223 C221 1.279 . S
C224 C221 1.358 . S
C224 C225 1.356 . S
C224 H261 0.930 . S
C225 C222 1.348 . S
C225 C224 1.356 . S
H226 C220 0.930 . S
H227 C221 0.930 . S
C228 N229 1.314 . S
C228 C230 1.353 . S
C228 H234 0.930 . S
N229 Li179 1.990 . S
N229 C228 1.314 . S
N229 C232 1.279 . S
C230 C228 1.353 . S
C230 C233 1.348 . S
C230 H262 0.929 . S
C231 C232 1.358 . S
C231 C233 1.356 . S
C231 H263 0.930 . S
C232 N229 1.279 . S
C232 C231 1.358 . S
C232 H235 0.930 . S
C233 C230 1.348 . S
C233 C231 1.356 . S
H234 C228 0.930 . S
H235 C232 0.930 . S
O236 Li176 1.956 . S
O236 Li177 1.970 . S
O236 Li178 1.961 . S
O236 C180 1.325 . S
O237 Li176 1.970 . S
O237 Li177 1.956 . S
O237 Li179 1.961 . S
O237 C186 1.325 . S
O238 Li176 1.961 . S
O238 Li178 1.956 . S
O238 Li179 1.970 . S
O238 C208 1.325 . S
O239 Li177 1.961 . S
O239 Li178 1.970 . S
O239 Li179 1.956 . S
O239 C214 1.325 . S
H240 C182 0.929 . S
H241 C183 0.930 . S
H242 C184 0.930 . S
H243 C185 0.930 . S
H244 C187 0.930 . S
H245 C189 0.929 . S
H246 C190 0.930 . S
H247 C191 0.930 . S
H248 C194 0.930 . S
H249 C197 0.929 . S
H250 C202 0.929 . S
H251 C203 0.930 . S
H252 C210 0.929 . S
H253 C211 0.930 . S
H254 C212 0.930 . S
H255 C213 0.930 . S
H256 C215 0.929 . S
H257 C216 0.930 . S
H258 C217 0.930 . S
H259 C218 0.930 . S
H260 C222 0.929 . S
H261 C224 0.930 . S
H262 C230 0.929 . S
H263 C231 0.930 . S
Li264 N281 1.990 . S
Li264 O324 1.956 . S
Li264 O325 1.970 . S
Li264 O326 1.961 . S
Li265 N289 1.990 . S
Li265 O324 1.970 . S
Li265 O325 1.956 . S
Li265 O327 1.961 . S
Li266 N311 1.990 . S
Li266 O324 1.961 . S
Li266 O326 1.956 . S
Li266 O327 1.970 . S
Li267 N317 1.990 . S
Li267 O325 1.961 . S
Li267 O326 1.970 . S
Li267 O327 1.956 . S
C268 C270 1.348 . S
C268 C271 1.356 . S
C268 O324 1.325 . S
N269 C272 1.314 . S
N269 C273 1.279 . S
C270 C268 1.348 . S
C270 C272 1.353 . S
C270 H328 0.929 . S
C271 C268 1.356 . S
C271 C273 1.358 . S
C271 H329 0.930 . S
C272 N269 1.314 . S
C272 C270 1.353 . S
C272 H330 0.930 . S
C273 N269 1.279 . S
C273 C271 1.358 . S
C273 H331 0.930 . S
C274 C277 1.332 1_556 S
C274 C278 1.357 1_556 S
C274 O325 1.325 . S
C275 N276 1.279 . S
C275 C278 1.357 . S
C275 H332 0.930 . S
N276 C275 1.279 . S
N276 C279 1.314 . S
C277 C274 1.332 1_554 S
C277 C279 1.382 . S
C277 H333 0.917 1_554 S
C278 C274 1.357 1_554 S
C278 C275 1.357 . S
C278 H334 0.930 1_554 S
C279 N276 1.314 . S
C279 C277 1.382 . S
C279 H335 0.930 . S
C280 N281 1.314 . S
C280 C285 1.353 . S
C280 H286 0.930 . S
N281 Li264 1.990 . S
N281 C280 1.314 . S
N281 C283 1.279 . S
C282 C283 1.358 . S
C282 C284 1.356 . S
C282 H336 0.930 . S
C283 N281 1.279 . S
C283 C282 1.358 . S
C283 H287 0.930 . S
C284 C282 1.356 . S
C284 C285 1.348 . S
C285 C280 1.353 . S
C285 C284 1.348 . S
C285 H337 0.929 . S
H286 C280 0.930 . S
H287 C283 0.930 . S
C288 N289 1.314 . S
C288 C290 1.353 . S
C288 H294 0.930 . S
N289 Li265 1.990 . S
N289 C288 1.314 . S
N289 C292 1.279 . S
C290 C288 1.353 . S
C290 C293 1.348 . S
C290 H338 0.929 . S
C291 C292 1.358 . S
C291 C293 1.356 . S
C291 H339 0.930 1_556 S
C292 N289 1.279 . S
C292 C291 1.358 . S
C292 H295 0.930 . S
C293 C290 1.348 . S
C293 C291 1.356 . S
H294 C288 0.930 . S
H295 C292 0.930 . S
C296 C298 1.348 . S
C296 C299 1.356 . S
C296 O326 1.325 . S
N297 C300 1.314 . S
N297 C301 1.279 . S
C298 C296 1.348 . S
C298 C300 1.353 . S
C298 H340 0.929 . S
C299 C296 1.356 . S
C299 C301 1.358 . S
C299 H341 0.930 . S
C300 N297 1.314 . S
C300 C298 1.353 . S
C300 H342 0.930 . S
C301 N297 1.279 . S
C301 C299 1.358 . S
C301 H343 0.930 . S
C302 C303 1.348 . S
C302 C304 1.356 . S
C302 O327 1.325 . S
C303 C302 1.348 . S
C303 C305 1.353 . S
C303 H344 0.929 . S
C304 C302 1.356 . S
C304 C306 1.358 . S
C304 H345 0.930 . S
C305 C303 1.353 . S
C305 N307 1.314 . S
C305 H346 0.930 . S
C306 C304 1.358 . S
C306 N307 1.279 . S
C306 H347 0.930 . S
N307 C305 1.314 . S
N307 C306 1.279 . S
C308 C310 1.353 . S
C308 N311 1.314 . S
C308 H314 0.930 . S
C309 N311 1.279 . S
C309 C312 1.358 . S
C309 H315 0.930 . S
C310 C308 1.353 . S
C310 C313 1.348 . S
C310 H348 0.929 . S
N311 Li266 1.990 . S
N311 C308 1.314 . S
N311 C309 1.279 . S
C312 C309 1.358 . S
C312 C313 1.356 . S
C312 H349 0.930 . S
C313 C310 1.348 . S
C313 C312 1.356 . S
H314 C308 0.930 . S
H315 C309 0.930 . S
C316 N317 1.314 . S
C316 C318 1.353 . S
C316 H322 0.930 . S
N317 Li267 1.990 . S
N317 C316 1.314 . S
N317 C320 1.279 . S
C318 C316 1.353 . S
C318 C321 1.348 . S
C318 H350 0.929 . S
C319 C320 1.358 . S
C319 C321 1.356 . S
C319 H351 0.930 . S
C320 N317 1.279 . S
C320 C319 1.358 . S
C320 H323 0.930 . S
C321 C318 1.348 . S
C321 C319 1.356 . S
H322 C316 0.930 . S
H323 C320 0.930 . S
O324 Li264 1.956 . S
O324 Li265 1.970 . S
O324 Li266 1.961 . S
O324 C268 1.325 . S
O325 Li264 1.970 . S
O325 Li265 1.956 . S
O325 Li267 1.961 . S
O325 C274 1.325 . S
O326 Li264 1.961 . S
O326 Li266 1.956 . S
O326 Li267 1.970 . S
O326 C296 1.325 . S
O327 Li265 1.961 . S
O327 Li266 1.970 . S
O327 Li267 1.956 . S
O327 C302 1.325 . S
H328 C270 0.929 . S
H329 C271 0.930 . S
H330 C272 0.930 . S
H331 C273 0.930 . S
H332 C275 0.930 . S
H333 C277 0.917 1_556 S
H334 C278 0.930 1_556 S
H335 C279 0.930 . S
H336 C282 0.930 . S
H337 C285 0.929 . S
H338 C290 0.929 . S
H339 C291 0.930 1_554 S
H340 C298 0.929 . S
H341 C299 0.930 . S
H342 C300 0.930 . S
H343 C301 0.930 . S
H344 C303 0.929 . S
H345 C304 0.930 . S
H346 C305 0.930 . S
H347 C306 0.930 . S
H348 C310 0.929 . S
H349 C312 0.930 . S
H350 C318 0.929 . S
H351 C319 0.930 . S
H352 C358 0.930 . S
H353 C362 0.930 . S
H354 C367 0.929 . S
H355 C365 0.929 . S
H356 C360 0.929 . S
H357 C366 0.929 . S
C358 H352 0.930 . S
C358 C359 1.367 . S
C358 C366 1.378 . S
C359 C358 1.367 . S
C359 C367 1.433 . S
C360 H356 0.929 . S
C360 C362 1.378 . S
C360 C364 1.350 . S
C361 C364 1.463 . S
C361 C366 1.350 . S
C361 N369 1.427 . S
C362 H353 0.930 . S
C362 C360 1.378 . S
C362 C363 1.367 . S
C363 C362 1.367 . S
C363 C365 1.433 . S
C364 C360 1.350 . S
C364 C361 1.463 . S
C364 N368 1.427 . S
C365 H355 0.929 . S
C365 C363 1.433 . S
C365 N368 1.384 . S
C366 H357 0.929 . S
C366 C358 1.378 . S
C366 C361 1.350 . S
C367 H354 0.929 . S
C367 C359 1.433 . S
C367 N369 1.384 . S
N368 C364 1.427 . S
N368 C365 1.384 . S
N369 C361 1.427 . S
N369 C367 1.384 . S
H370 C376 0.930 . S
H371 C380 0.930 . S
H372 C385 0.929 . S
H373 C383 0.929 . S
H374 C378 0.929 . S
H375 C384 0.929 . S
C376 H370 0.930 . S
C376 C377 1.367 . S
C376 C384 1.378 . S
C377 C376 1.367 . S
C377 C385 1.433 . S
C378 H374 0.929 . S
C378 C380 1.378 . S
C378 C382 1.350 . S
C379 C382 1.463 . S
C379 C384 1.350 . S
C379 N387 1.427 . S
C380 H371 0.930 . S
C380 C378 1.378 . S
C380 C381 1.367 . S
C381 C380 1.367 . S
C381 C383 1.433 . S
C382 C378 1.350 . S
C382 C379 1.463 . S
C382 N386 1.427 . S
C383 H373 0.929 . S
C383 C381 1.433 . S
C383 N386 1.384 . S
C384 H375 0.929 . S
C384 C376 1.378 . S
C384 C379 1.350 . S
C385 H372 0.929 . S
C385 C377 1.433 . S
C385 N387 1.384 . S
N386 C382 1.427 . S
N386 C383 1.384 . S
N387 C379 1.427 . S
N387 C385 1.384 . S
H388 C394 0.930 . S
H389 C398 0.930 . S
H390 C403 0.919 1_556 S
H391 C401 0.908 1_554 S
H392 C396 0.929 . S
H393 C402 0.929 . S
C394 H388 0.930 . S
C394 C395 1.367 . S
C394 C402 1.378 . S
C395 C394 1.367 . S
C395 C403 1.452 . S
C396 H392 0.929 . S
C396 C398 1.378 . S
C396 C400 1.350 . S
C397 C400 1.463 1_554 S
C397 C402 1.350 . S
C397 N405 1.427 1_554 S
C398 H389 0.930 . S
C398 C396 1.378 . S
C398 C399 1.367 . S
C399 C398 1.367 . S
C399 C401 1.474 . S
C400 C396 1.350 . S
C400 C397 1.463 1_556 S
C400 N404 1.427 1_556 S
C401 H391 0.908 1_556 S
C401 C399 1.474 . S
C401 N404 1.368 1_556 S
C402 H393 0.929 . S
C402 C394 1.378 . S
C402 C397 1.350 . S
C403 H390 0.919 1_554 S
C403 C395 1.452 . S
C403 N405 1.376 1_554 S
N404 C400 1.427 1_554 S
N404 C401 1.368 1_554 S
N405 C397 1.427 1_556 S
N405 C403 1.376 1_556 S
H406 C412 0.930 . S
H407 C416 0.930 . S
H408 C421 0.929 . S
H409 C419 0.929 . S
H410 C414 0.929 . S
H411 C420 0.929 . S
C412 H406 0.930 . S
C412 C413 1.367 . S
C412 C420 1.378 . S
C413 C412 1.367 . S
C413 C421 1.433 . S
C414 H410 0.929 . S
C414 C416 1.378 . S
C414 C418 1.350 . S
C415 C418 1.463 1_455 S
C415 C420 1.350 . S
C415 N423 1.427 . S
C416 H407 0.930 . S
C416 C414 1.378 . S
C416 C417 1.367 . S
C417 C416 1.367 . S
C417 C419 1.433 . S
C418 C414 1.350 . S
C418 C415 1.463 1_655 S
C418 N422 1.427 . S
C419 H409 0.929 . S
C419 C417 1.433 . S
C419 N422 1.384 . S
C420 H411 0.929 . S
C420 C412 1.378 . S
C420 C415 1.350 . S
C421 H408 0.929 . S
C421 C413 1.433 . S
C421 N423 1.384 . S
N422 C418 1.427 . S
N422 C419 1.384 . S
N423 C415 1.427 . S
N423 C421 1.384 . S
H424 C430 0.930 . S
H425 C434 0.930 . S
H426 C439 0.931 1_554 S
H427 C437 0.931 1_556 S
H428 C432 0.929 . S
H429 C438 0.929 . S
C430 H424 0.930 . S
C430 C431 1.367 . S
C430 C438 1.378 . S
C431 C430 1.367 . S
C431 C439 1.429 . S
C432 H428 0.929 . S
C432 C434 1.378 . S
C432 C436 1.350 . S
C433 C436 1.463 1_546 S
C433 C438 1.350 . S
C433 N441 1.427 1_556 S
C434 H425 0.930 . S
C434 C432 1.378 . S
C434 C435 1.367 . S
C435 C434 1.367 . S
C435 C437 1.430 . S
C436 C432 1.350 . S
C436 C433 1.463 1_564 S
C436 N440 1.427 1_554 S
C437 H427 0.931 1_554 S
C437 C435 1.430 . S
C437 N440 1.385 1_554 S
C438 H429 0.929 . S
C438 C430 1.378 . S
C438 C433 1.350 . S
C439 H426 0.931 1_556 S
C439 C431 1.429 . S
C439 N441 1.385 1_556 S
N440 C436 1.427 1_556 S
N440 C437 1.385 1_556 S
N441 C433 1.427 1_554 S
N441 C439 1.385 1_554 S
H442 C448 0.930 . S
H443 C452 0.930 . S
H444 C457 0.929 . S
H445 C455 0.929 . S
H446 C450 0.929 . S
H447 C456 0.929 . S
C448 H442 0.930 . S
C448 C449 1.367 . S
C448 C456 1.378 . S
C449 C448 1.367 . S
C449 C457 1.433 . S
C450 H446 0.929 . S
C450 C452 1.378 . S
C450 C454 1.350 . S
C451 C454 1.463 . S
C451 C456 1.350 . S
C451 N459 1.427 . S
C452 H443 0.930 . S
C452 C450 1.378 . S
C452 C453 1.367 . S
C453 C452 1.367 . S
C453 C455 1.433 . S
C454 C450 1.350 . S
C454 C451 1.463 . S
C454 N458 1.427 . S
C455 H445 0.929 . S
C455 C453 1.433 . S
C455 N458 1.384 . S
C456 H447 0.929 . S
C456 C448 1.378 . S
C456 C451 1.350 . S
C457 H444 0.929 . S
C457 C449 1.433 . S
C457 N459 1.384 . S
N458 C454 1.427 . S
N458 C455 1.384 . S
N459 C451 1.427 . S
N459 C457 1.384 . S
H460 C466 0.930 . S
H461 C470 0.930 . S
H462 C475 0.929 . S
H463 C473 0.929 . S
H464 C468 0.929 . S
H465 C474 0.929 . S
C466 H460 0.930 . S
C466 C467 1.367 . S
C466 C474 1.378 . S
C467 C466 1.367 . S
C467 C475 1.433 . S
C468 H464 0.929 . S
C468 C470 1.378 . S
C468 C472 1.350 . S
C469 C472 1.463 1_454 S
C469 C474 1.350 . S
C469 N477 1.427 . S
C470 H461 0.930 . S
C470 C468 1.378 . S
C470 C471 1.367 . S
C471 C470 1.367 . S
C471 C473 1.433 . S
C472 C468 1.350 . S
C472 C469 1.463 1_656 S
C472 N476 1.427 . S
C473 H463 0.929 . S
C473 C471 1.433 . S
C473 N476 1.384 . S
C474 H465 0.929 . S
C474 C466 1.378 . S
C474 C469 1.350 . S
C475 H462 0.929 . S
C475 C467 1.433 . S
C475 N477 1.384 . S
N476 C472 1.427 . S
N476 C473 1.384 . S
N477 C469 1.427 . S
N477 C475 1.384 . S
H478 C484 0.930 . S
H479 C488 0.930 . S
H480 C493 0.929 . S
H481 C491 0.929 . S
H482 C486 0.929 . S
H483 C492 0.929 . S
C484 H478 0.930 . S
C484 C485 1.367 . S
C484 C492 1.378 . S
C485 C484 1.367 . S
C485 C493 1.433 . S
C486 H482 0.929 . S
C486 C488 1.378 . S
C486 C490 1.350 . S
C487 C490 1.463 1_545 S
C487 C492 1.350 . S
C487 N495 1.427 . S
C488 H479 0.930 . S
C488 C486 1.378 . S
C488 C489 1.367 . S
C489 C488 1.367 . S
C489 C491 1.433 . S
C490 C486 1.350 . S
C490 C487 1.463 1_565 S
C490 N494 1.427 . S
C491 H481 0.929 . S
C491 C489 1.433 . S
C491 N494 1.384 . S
C492 H483 0.929 . S
C492 C484 1.378 . S
C492 C487 1.350 . S
C493 H480 0.929 . S
C493 C485 1.433 . S
C493 N495 1.384 . S
N494 C490 1.427 . S
N494 C491 1.384 . S
N495 C487 1.427 . S
N495 C493 1.384 . S
C359 C20 1.500 . S
C363 C205 1.500 . S
C377 C145 1.500 . S
C381 C313 1.499 . S
C395 C29 1.493 . S
C399 C293 1.494 . S
C413 C225 1.505 . S
C417 C117 1.506 . S
C431 C284 1.511 . S
C435 C49 1.511 . S
C449 C108 1.505 . S
C453 C233 1.506 . S
C467 C57 1.493 . S
C471 C321 1.493 . S
C485 C137 1.487 . S
C489 C196 1.488 . S
