# Generated by pormake.
# Topology sml, (6)-cn, num edge types: 1
# Building blocks:
#     Node 0, Type 0, BuildingBlock: CUWYAW_clean_sbu_0, # of connection points: 6
#     Node 1, Type 0, BuildingBlock: CUWYAW_clean_sbu_0, # of connection points: 6
#     Node 2, Type 0, BuildingBlock: CUWYAW_clean_sbu_0, # of connection points: 6
#     Node 3, Type 0, BuildingBlock: CUWYAW_clean_sbu_0, # of connection points: 6
#     Node 4, Type 0, BuildingBlock: CUWYAW_clean_sbu_0, # of connection points: 6
#     Node 5, Type 0, BuildingBlock: CUWYAW_clean_sbu_0, # of connection points: 6
#     Edge 6, Type (0, 0), BuildingBlock: OJICUG_clean_linker_0, # of connection points: 2
#     Edge 7, Type (0, 0), BuildingBlock: OJICUG_clean_linker_0, # of connection points: 2
#     Edge 8, Type (0, 0), BuildingBlock: OJICUG_clean_linker_0, # of connection points: 2
#     Edge 9, Type (0, 0), BuildingBlock: OJICUG_clean_linker_0, # of connection points: 2
#     Edge 10, Type (0, 0), BuildingBlock: OJICUG_clean_linker_0, # of connection points: 2
#     Edge 11, Type (0, 0), BuildingBlock: OJICUG_clean_linker_0, # of connection points: 2
#     Edge 12, Type (0, 0), BuildingBlock: OJICUG_clean_linker_0, # of connection points: 2
#     Edge 13, Type (0, 0), BuildingBlock: OJICUG_clean_linker_0, # of connection points: 2
#     Edge 14, Type (0, 0), BuildingBlock: OJICUG_clean_linker_0, # of connection points: 2
#     Edge 15, Type (0, 0), BuildingBlock: OJICUG_clean_linker_0, # of connection points: 2
#     Edge 16, Type (0, 0), BuildingBlock: OJICUG_clean_linker_0, # of connection points: 2
#     Edge 17, Type (0, 0), BuildingBlock: OJICUG_clean_linker_0, # of connection points: 2
#     Edge 18, Type (0, 0), BuildingBlock: OJICUG_clean_linker_0, # of connection points: 2
#     Edge 19, Type (0, 0), BuildingBlock: OJICUG_clean_linker_0, # of connection points: 2
#     Edge 20, Type (0, 0), BuildingBlock: OJICUG_clean_linker_0, # of connection points: 2
#     Edge 21, Type (0, 0), BuildingBlock: OJICUG_clean_linker_0, # of connection points: 2
#     Edge 22, Type (0, 0), BuildingBlock: OJICUG_clean_linker_0, # of connection points: 2
#     Edge 23, Type (0, 0), BuildingBlock: OJICUG_clean_linker_0, # of connection points: 2
# Relax obj value: 0.308
# Max RMSD: 0.298
# Mean RMSD: 0.298
data_MOF--net-sml--node1-CUWYAW_clean_sbu_0--edge1-OJICUG_clean_linker_0
_symmetry_space_group_name_H-M    P1
_symmetry_Int_Tables_number       1
_symmetry_cell_setting            triclinic
loop_
_symmetry_equiv_pos_as_xyz
'x, y, z'
_cell_length_a     21.961327
_cell_length_b     21.833706
_cell_length_c     20.376224
_cell_angle_alpha  89.90965
_cell_angle_beta   89.992982
_cell_angle_gamma 120.26456
loop_
_atom_site_label
_atom_site_type_symbol
_atom_site_fract_x
_atom_site_fract_y
_atom_site_fract_z
_atom_type_partial_charge
C0 C 0.27162 0.35814 0.22149 0.0
Eu1 Eu 0.23735 0.39214 0.11056 0.0
C2 C 0.26034 0.36698 0.29196 0.0
C3 C 0.31595 0.41819 0.33025 0.0
C4 C 0.30473 0.42938 0.39576 0.0
C5 C 0.23741 0.38995 0.42451 0.0
C6 C 0.18228 0.33771 0.38631 0.0
C7 C 0.19384 0.32574 0.32136 0.0
C8 C 0.31935 0.48859 1.01995 0.0
C9 C 0.18297 0.50561 0.14 0.0
C10 C 0.12969 0.46597 0.89042 0.0
Eu11 Eu 0.15932 0.42959 1.00225 0.0
C12 C 0.14696 0.46083 0.82106 0.0
C13 C 0.09244 0.42104 0.77636 0.0
C14 C 0.10783 0.41145 0.71183 0.0
C15 C 0.17815 0.44213 0.69043 0.0
C16 C 0.23269 0.4835 0.73468 0.0
C17 C 0.21729 0.4924 0.7994 0.0
C18 C 0.07491 0.33556 0.09224 0.0
C19 C 0.218 0.3196 0.97232 0.0
O20 O 0.21598 0.31414 0.18718 0.0
O21 O 0.31386 0.41615 0.18892 0.0
O22 O 0.33497 0.4437 0.04578 0.0
O23 O 0.265 0.48321 0.04604 0.0
O24 O 0.20527 0.46334 0.16216 0.0
O25 O 0.16647 0.50754 0.07794 0.0
O26 O 0.18166 0.51033 0.92821 0.0
O27 O 0.08739 0.40574 0.91985 0.0
O28 O 0.05904 0.37761 0.06107 0.0
O29 O 0.12991 0.33893 0.06923 0.0
O30 O 0.1972 0.36314 0.95032 0.0
O31 O 0.23098 0.31494 0.03486 0.0
H32 H 0.36817 0.44998 0.30942 0.0
H33 H 0.34899 0.46884 0.42381 0.0
H34 H 0.12947 0.3067 0.40598 0.0
H35 H 0.1501 0.28471 0.29399 0.0
H36 H 0.03781 0.3963 0.79168 0.0
H37 H 0.06466 0.37992 0.67864 0.0
H38 H 0.28736 0.50731 0.7198 0.0
H39 H 0.26054 0.52294 0.83265 0.0
C40 C 0.89938 0.27977 0.54845 0.0
Eu41 Eu 0.83133 0.24307 0.43766 0.0
C42 C 0.87821 0.2703 0.61872 0.0
C43 C 0.8584 0.31535 0.64955 0.0
C44 C 0.83488 0.30353 0.71474 0.0
C45 C 0.83062 0.24642 0.75072 0.0
C46 C 0.85236 0.20273 0.72038 0.0
C47 C 0.87602 0.21464 0.65536 0.0
C48 C 0.81992 0.3246 0.34483 0.0
C49 C 0.66337 0.18873 0.4688 0.0
C50 C 0.64973 0.13672 0.21892 0.0
Eu51 Eu 0.71401 0.16441 0.3314 0.0
C52 C 0.67402 0.15232 0.1496 0.0
C53 C 0.69694 0.11108 0.11646 0.0
C54 C 0.72163 0.12717 0.05188 0.0
C55 C 0.72378 0.18469 1.0185 0.0
C56 C 0.70066 0.22587 0.05153 0.0
C57 C 0.67586 0.20971 0.11622 0.0
C58 C 0.72252 0.08033 0.42242 0.0
C59 C 0.88113 0.21639 0.30079 0.0
O60 O 0.88608 0.22238 0.51615 0.0
O61 O 0.88632 0.32235 0.51357 0.0
O62 O 0.88011 0.33884 0.36994 0.0
O63 O 0.76976 0.27178 0.37266 0.0
O64 O 0.7282 0.21102 0.4901 0.0
O65 O 0.6443 0.17243 0.40689 0.0
O66 O 0.6614 0.19108 0.25529 0.0
O67 O 0.66144 0.09129 0.25058 0.0
O68 O 0.66441 0.06419 0.39169 0.0
O69 O 0.77449 0.13471 0.39806 0.0
O70 O 0.8172 0.19788 0.27953 0.0
O71 O 0.89924 0.22982 0.36328 0.0
H72 H 0.85992 0.35916 0.62308 0.0
H73 H 0.81831 0.33809 0.73635 0.0
H74 H 0.85118 0.15915 0.74695 0.0
H75 H 0.89173 0.17952 0.63348 0.0
H76 H 0.69651 0.06659 0.1405 0.0
H77 H 0.74 0.09497 1.0284 0.0
H78 H 0.70088 0.2701 1.02714 0.0
H79 H 0.65832 0.24238 0.14019 0.0
C80 C 0.61216 0.90605 0.88224 0.0
Eu81 Eu 0.58091 0.83881 0.77034 0.0
C82 C 0.59701 0.88261 0.95152 0.0
C83 C 0.60168 0.92982 1.00056 0.0
C84 C 0.58495 0.90706 0.06594 0.0
C85 C 0.56275 0.83637 0.08347 0.0
C86 C 0.5579 0.7893 0.03392 0.0
C87 C 0.5747 0.81212 0.96886 0.0
C88 C 0.48684 0.83147 0.6809 0.0
C89 C 0.46275 0.67131 0.8024 0.0
C90 C 0.48951 0.65684 0.55115 0.0
Eu91 Eu 0.53348 0.72106 0.66357 0.0
C92 C 0.49288 0.68215 0.48327 0.0
C93 C 0.48469 0.638 0.43009 0.0
C94 C 0.49167 0.6631 0.36558 0.0
C95 C 0.50743 0.73312 0.35303 0.0
C96 C 0.51441 0.77676 0.40669 0.0
C97 C 0.50708 0.75147 0.47107 0.0
C98 C 0.62601 0.72246 0.75076 0.0
C99 C 0.65414 0.88809 0.63247 0.0
O100 O 0.65525 0.89142 0.85056 0.0
O101 O 0.55739 0.89364 0.84691 0.0
O102 O 0.53637 0.89119 0.7046 0.0
O103 O 0.48744 0.77993 0.70786 0.0
O104 O 0.50875 0.73575 0.82288 0.0
O105 O 0.45648 0.65177 0.74037 0.0
O106 O 0.44936 0.66719 0.59184 0.0
O107 O 0.54996 0.67192 0.57735 0.0
O108 O 0.58042 0.66605 0.7192 0.0
O109 O 0.62716 0.77737 0.7288 0.0
O110 O 0.60518 0.82465 0.61204 0.0
O111 O 0.66227 0.90625 0.69514 0.0
H112 H 0.6176 0.98412 0.98823 0.0
H113 H 0.58832 0.94454 0.10255 0.0
H114 H 0.54198 0.7348 0.04546 0.0
H115 H 0.56998 0.77432 0.93224 0.0
H116 H 0.47401 0.58446 0.43846 0.0
H117 H 0.48669 0.62823 0.32561 0.0
H118 H 0.52559 0.83055 0.39898 0.0
H119 H 0.51334 0.78641 0.51136 0.0
C120 C 0.73491 0.63888 0.20114 0.0
Eu121 Eu 0.75597 0.59569 0.08887 0.0
C122 C 0.74679 0.62675 0.27072 0.0
C123 C 0.68941 0.59084 0.31377 0.0
C124 C 0.69975 0.57619 0.37857 0.0
C125 C 0.76785 0.5968 0.40198 0.0
C126 C 0.82525 0.63347 0.35877 0.0
C127 C 0.81488 0.64872 0.29436 0.0
C128 C 0.66526 0.49829 1.00392 0.0
C129 C 0.79127 0.46764 0.12168 0.0
C130 C 0.85008 0.50266 0.87235 0.0
Eu131 Eu 0.82259 0.54259 0.98336 0.0
C132 C 0.83563 0.51001 0.80256 0.0
C133 C 0.89066 0.53562 0.75649 0.0
C134 C 0.87927 0.54756 0.69124 0.0
C135 C 0.8124 0.53381 0.67043 0.0
C136 C 0.75696 0.50684 0.71642 0.0
C137 C 0.7685 0.49539 0.7818 0.0
C138 C 0.91325 0.63723 0.07095 0.0
C139 C 0.77126 0.65795 0.94639 0.0
O140 O 0.791 0.67676 0.16471 0.0
O141 O 0.68542 0.584 0.1697 0.0
O142 O 0.6557 0.54799 1.02822 0.0
O143 O 0.71823 0.4996 1.02907 0.0
O144 O 0.77671 0.51649 0.14191 0.0
O145 O 0.80592 0.46159 0.05993 0.0
O146 O 0.79583 0.46085 0.90937 0.0
O147 O 0.89488 0.56156 0.90215 0.0
O148 O 0.92051 0.58654 0.04602 0.0
O149 O 0.86152 0.63823 0.04519 0.0
O150 O 0.78617 0.60871 0.92836 0.0
O151 O 0.76555 0.67107 1.00881 0.0
H152 H 0.63633 0.57374 0.29719 0.0
H153 H 0.65424 0.54918 0.41041 0.0
H154 H 0.87843 0.6496 0.37419 0.0
H155 H 0.86034 0.67736 0.26291 0.0
H156 H 0.94289 0.54744 0.77125 0.0
H157 H 0.9229 0.56758 0.65698 0.0
H158 H 0.70505 0.49646 0.70233 0.0
H159 H 0.72516 0.47642 0.8163 0.0
C160 C 0.06479 0.71081 0.54742 0.0
Eu161 Eu 0.13381 0.74462 0.43679 0.0
C162 C 0.08461 0.72158 0.61804 0.0
C163 C 0.08495 0.66716 0.6548 0.0
C164 C 0.10742 0.67826 0.72026 0.0
C165 C 0.13019 0.74415 0.75071 0.0
C166 C 0.12795 0.79788 0.71433 0.0
C167 C 0.10485 0.78651 0.64915 0.0
C168 C 0.14803 0.66055 0.34904 0.0
C169 C 0.30169 0.80127 0.46854 0.0
C170 C 0.31603 0.84989 0.21691 0.0
Eu171 Eu 0.25035 0.8216 0.32893 0.0
C172 C 0.29292 0.83383 0.1474 0.0
C173 C 0.29634 0.88741 0.10652 0.0
C174 C 0.2707 0.87219 0.04221 0.0
C175 C 0.24164 0.80313 1.01689 0.0
C176 C 0.24002 0.74991 0.05714 0.0
C177 C 0.2652 0.76501 0.12168 0.0
C178 C 0.23984 0.90781 0.4157 0.0
C179 C 0.08182 0.76086 0.2968 0.0
O180 O 0.07799 0.76706 0.51297 0.0
O181 O 0.07917 0.66785 0.51498 0.0
O182 O 0.08758 0.64521 0.37432 0.0
O183 O 0.19738 0.71588 0.37443 0.0
O184 O 0.23686 0.77916 0.48968 0.0
O185 O 0.32069 0.81638 0.4063 0.0
O186 O 0.30567 0.79655 0.25439 0.0
O187 O 0.3017 0.89414 0.24708 0.0
O188 O 0.29821 0.92356 0.38573 0.0
O189 O 0.18835 0.8517 0.39319 0.0
O190 O 0.14651 0.78237 0.27581 0.0
O191 O 0.06347 0.74861 0.3593 0.0
H192 H 0.06839 0.616 0.63276 0.0
H193 H 0.10677 0.63504 0.74701 0.0
H194 H 0.14554 0.84953 0.73567 0.0
H195 H 0.10403 0.82923 0.6229 0.0
H196 H 0.31798 0.94106 0.12461 0.0
H197 H 0.27376 0.91463 1.01219 0.0
H198 H 0.21764 0.69609 0.03931 0.0
H199 H 0.26189 0.72241 0.15159 0.0
C200 C 0.33499 0.08218 0.87488 0.0
Eu201 Eu 0.3764 0.14909 0.76321 0.0
C202 C 0.34467 0.1044 0.94476 0.0
C203 C 0.37486 0.07803 0.98919 0.0
C204 C 0.3873 0.10129 0.05454 0.0
C205 C 0.37024 0.15188 0.07674 0.0
C206 C 0.33895 0.17726 0.03238 0.0
C207 C 0.32599 0.15353 0.96739 0.0
C208 C 0.47049 0.15565 0.67454 0.0
C209 C 0.50412 0.31392 0.79349 0.0
C210 C 0.46315 0.33452 0.54495 0.0
Eu211 Eu 0.42618 0.26906 0.65721 0.0
C212 C 0.45333 0.30954 0.47611 0.0
C213 C 0.42892 0.33895 0.42897 0.0
C214 C 0.41595 0.31343 0.36444 0.0
C215 C 0.42739 0.25797 0.34539 0.0
C216 C 0.45216 0.22882 0.39291 0.0
C217 C 0.46466 0.25405 0.4575 0.0
C218 C 0.33587 0.26668 0.74786 0.0
C219 C 0.30729 0.10223 0.62349 0.0
O220 O 0.29589 0.09876 0.83878 0.0
O221 O 0.39136 0.09172 0.84379 0.0
O222 O 0.4216 0.09591 0.69943 0.0
O223 O 0.46994 0.20743 0.70072 0.0
O224 O 0.45582 0.25038 0.81511 0.0
O225 O 0.50874 0.33391 0.73158 0.0
O226 O 0.50571 0.32308 0.5814 0.0
O227 O 0.4057 0.32171 0.57616 0.0
O228 O 0.38528 0.3247 0.72118 0.0
O229 O 0.33337 0.21296 0.72207 0.0
O230 O 0.35624 0.16617 0.6039 0.0
O231 O 0.29789 0.08314 0.68593 0.0
H232 H 0.38959 0.03997 0.97315 0.0
H233 H 0.41178 0.08087 0.08727 0.0
H234 H 0.32394 0.21523 0.04801 0.0
H235 H 0.30155 0.17393 0.9348 0.0
H236 H 0.41892 0.38113 0.4423 0.0
H237 H 0.39569 0.33641 0.3298 0.0
H238 H 0.46248 0.18676 0.38021 0.0
H239 H 0.48275 0.22971 0.49294 0.0
C240 C 0.34448 0.30174 0.86443 0.0
C241 C 0.30223 0.26636 0.81005 0.0
H242 H 0.34882 0.34097 0.96142 0.0
C243 C 0.22927 0.23896 0.81342 0.0
H244 H 0.40097 0.3247 0.86252 0.0
C245 C 0.19977 0.25153 0.86909 0.0
C246 C 0.24265 0.28862 0.92277 0.0
H247 H 0.19609 0.21255 0.77143 0.0
H248 H 0.14434 0.23544 0.86901 0.0
C249 C 0.31459 0.31096 0.92111 0.0
C250 C 0.05509 0.30775 0.21109 0.0
C251 C 0.0319 0.29008 0.14611 0.0
H252 H 0.02515 0.29708 0.31246 0.0
C253 C 0.96155 0.23942 0.13359 0.0
H254 H 0.10884 0.34835 0.22141 0.0
C255 C 0.91371 0.20999 0.18518 0.0
C256 C 0.93522 0.23206 0.25017 0.0
H257 H 0.94257 0.22603 0.08359 0.0
H258 H 0.85884 0.17377 0.17352 0.0
C259 C 0.00705 0.27864 0.26306 0.0
C260 C 0.73769 0.06207 0.54066 0.0
C261 C 0.72559 0.03709 0.47578 0.0
H262 H 0.72501 0.03385 0.64278 0.0
C263 C 0.70237 0.96573 0.46348 0.0
H264 H 0.75444 0.11691 0.55104 0.0
C265 C 0.68665 0.91864 0.5154 0.0
C266 C 0.6917 0.94169 0.58073 0.0
H267 H 0.69232 0.94553 0.4137 0.0
H268 H 0.66539 0.86306 0.50403 0.0
C269 C 0.72075 0.0145 0.5931 0.0
C270 C 0.68748 0.75118 0.85952 0.0
C271 C 0.67706 0.72127 0.79674 0.0
H272 H 0.72544 0.75452 0.95736 0.0
C273 C 0.70673 0.6794 0.78143 0.0
H274 H 0.66432 0.78282 0.87244 0.0
C275 C 0.74283 0.66431 0.82899 0.0
C276 C 0.74822 0.68892 0.89381 0.0
H277 H 0.69932 0.65565 0.73327 0.0
H278 H 0.76247 0.62942 0.8156 0.0
C279 C 0.72231 0.73467 0.90807 0.0
C280 C 0.97865 0.66129 0.24472 0.0
C281 C 0.02677 0.73424 0.24646 0.0
H282 H 0.90784 0.57316 0.18612 0.0
C283 C 0.03213 0.77658 0.19227 0.0
H284 H 0.97468 0.62751 0.28546 0.0
C285 C -0.00917 0.74568 0.13629 0.0
C286 C 0.94658 0.67191 0.13304 0.0
H287 H 0.07045 0.8328 0.19216 0.0
H288 H -0.0029 0.77861 0.09408 0.0
C289 C 0.94036 0.63016 0.18782 0.0
C290 C 0.24117 0.97596 0.58474 0.0
C291 C 0.27113 0.04877 0.57153 0.0
H292 H 0.20747 0.87316 0.54414 0.0
C293 C 0.27769 0.07147 0.50587 0.0
H294 H 0.23609 0.9569 0.63469 0.0
C295 C 0.26146 0.02363 0.45459 0.0
C296 C 0.23674 0.95204 0.4679 0.0
H297 H 0.30015 0.12711 0.49384 0.0
H298 H 0.27232 0.04334 0.40459 0.0
C299 C 0.22429 0.92787 0.53302 0.0
C300 C 0.15972 0.36029 0.59673 0.0
C301 C 0.19446 0.42917 0.62279 0.0
H302 H 0.14774 0.2934 0.51558 0.0
C303 C 0.24498 0.48506 0.58402 0.0
H304 H 0.12148 0.31594 0.62587 0.0
C305 C 0.25934 0.47247 0.52004 0.0
C306 C 0.22415 0.40346 0.49356 0.0
H307 H 0.27234 0.53882 0.60269 0.0
H308 H 0.29697 0.51722 0.49098 0.0
C309 C 0.17472 0.3475 0.53324 0.0
C310 C 0.79339 0.27168 0.92842 0.0
C311 C 0.74986 0.20118 0.94948 0.0
H312 H 0.85389 0.34134 0.84982 0.0
C313 C 0.73208 0.14614 0.90421 0.0
H314 H 0.80873 0.31538 0.96212 0.0
C315 C 0.75789 0.16099 0.83996 0.0
C316 C 0.80234 0.23132 0.81908 0.0
H317 H 0.69754 0.09135 0.9182 0.0
H318 H 0.7423 0.11715 0.80638 0.0
C319 C 0.81933 0.28658 0.86399 0.0
C320 C 0.57399 0.83003 0.2698 0.0
C321 C 0.51882 0.76109 0.28445 0.0
H322 H 0.63153 0.90747 0.19542 0.0
C323 C 0.47613 0.71848 0.23274 0.0
H324 H 0.60845 0.86409 0.30821 0.0
C325 C 0.48935 0.74344 0.16796 0.0
C326 C 0.54575 0.81166 0.15305 0.0
H327 H 0.43234 0.66569 0.24231 0.0
H328 H 0.45528 0.70911 0.12948 0.0
C329 C 0.58726 0.85497 0.20499 0.0
C330 C 0.85103 0.61238 0.57034 0.0
C331 C 0.80106 0.54932 0.60153 0.0
H332 H 0.87916 0.67777 0.48468 0.0
C333 C 0.74 0.50186 0.56665 0.0
H334 H 0.89816 0.65066 0.59605 0.0
C335 C 0.72932 0.51699 0.50217 0.0
C336 C 0.77912 0.58036 0.47092 0.0
H337 H 0.70084 0.45237 0.58887 0.0
H338 H 0.68237 0.47832 0.47657 0.0
C339 C 0.8401 0.62783 0.50616 0.0
C340 C 0.19826 0.72918 0.84321 0.0
C341 C 0.15711 0.75736 0.81965 0.0
H342 H 0.25761 0.72189 0.92337 0.0
C343 C 0.14317 0.7996 0.86215 0.0
H344 H 0.21109 0.69732 0.81177 0.0
C345 C 0.17048 0.81422 0.92589 0.0
C346 C 0.21211 0.78664 0.94915 0.0
H347 H 0.11056 0.82104 0.84643 0.0
H348 H 0.15826 0.84658 0.95731 0.0
C349 C 0.2252 0.74345 0.90721 0.0
C350 C 0.38542 0.15792 0.26328 0.0
C351 C 0.4133 0.23059 0.27646 0.0
H352 H 0.34968 0.07612 0.19046 0.0
C353 C 0.4274 0.27693 0.22309 0.0
H354 H 0.37266 0.12028 0.30293 0.0
C355 C 0.41353 0.25138 0.15864 0.0
C356 C 0.38555 0.17881 0.14556 0.0
H357 H 0.45012 0.33334 0.23089 0.0
H358 H 0.42569 0.28878 0.11886 0.0
C359 C 0.37202 0.13245 0.19869 0.0
C360 C 0.11109 0.54836 0.19687 0.0
C361 C 0.17574 0.55104 0.1884 0.0
H362 H 0.05078 0.57922 0.25663 0.0
C363 C 0.23143 0.59102 0.23183 0.0
H364 H 0.06715 0.51663 0.16448 0.0
C365 C 0.22266 0.62785 0.28334 0.0
C366 C 0.15735 0.62336 0.29336 0.0
H367 H 0.28153 0.59311 0.22628 0.0
H368 H 0.26636 0.65827 0.31638 0.0
C369 C 0.10162 0.58351 0.24975 0.0
C370 C 0.54486 0.11918 0.52169 0.0
C371 C 0.61109 0.18131 0.51781 0.0
H372 H 0.44837 0.0612 0.57639 0.0
C373 C 0.63 0.23462 0.56493 0.0
H374 H 0.52974 0.0771 0.48613 0.0
C375 C 0.58351 0.22617 0.6153 0.0
C376 C 0.51822 0.1633 0.62063 0.0
H377 H 0.68097 0.28284 0.56287 0.0
H378 H 0.59927 0.26829 0.65095 0.0
C379 C 0.49894 0.10978 0.57349 0.0
C380 C 0.38771 0.51351 0.91555 0.0
C381 C 0.35411 0.53338 0.96251 0.0
H382 H 0.44647 0.54103 0.82532 0.0
C383 C 0.35238 0.59618 0.95374 0.0
H384 H 0.38949 0.46518 0.9214 0.0
C385 C 0.38589 0.63984 0.89996 0.0
C386 C 0.41949 0.62012 0.853 0.0
H387 H 0.32662 0.6124 0.98936 0.0
H388 H 0.38628 0.6895 0.89537 0.0
C389 C 0.41941 0.55622 0.86043 0.0
C390 C 0.86439 0.38561 0.23676 0.0
C391 C 0.81146 0.35723 0.28503 0.0
H392 H 0.89791 0.4408 0.14457 0.0
C393 C 0.74926 0.35921 0.27559 0.0
H394 H 0.91248 0.38381 0.24284 0.0
C395 C 0.74143 0.39226 0.22029 0.0
C396 C 0.79472 0.42189 0.17258 0.0
H397 H 0.70765 0.33724 0.31207 0.0
H398 H 0.69437 0.3962 0.21548 0.0
C399 C 0.85563 0.41699 0.18029 0.0
C400 C 0.41896 0.86982 0.52417 0.0
C401 C 0.35311 0.80764 0.51818 0.0
H402 H 0.51289 0.92715 0.58228 0.0
C403 C 0.33271 0.75336 0.56481 0.0
H404 H 0.43523 0.91265 0.4891 0.0
C405 C 0.37695 0.76113 0.61705 0.0
C406 C 0.44165 0.82409 0.62463 0.0
H407 H 0.28197 0.70506 0.5612 0.0
H408 H 0.35977 0.71844 0.65245 0.0
C409 C 0.46271 0.8784 0.57771 0.0
C410 C 0.59602 0.47599 0.90064 0.0
C411 C 0.62631 0.45292 0.9482 0.0
H412 H 0.5352 0.45016 0.81189 0.0
C413 C 0.62066 0.38634 0.94162 0.0
H414 H 0.60066 0.52768 0.90448 0.0
C415 C 0.58247 0.34193 0.8898 0.0
C416 C 0.55155 0.3645 0.84256 0.0
H417 H 0.64414 0.36784 0.97758 0.0
H418 H 0.57639 0.28957 0.88696 0.0
C419 C 0.55962 0.43232 0.84746 0.0
loop_
_geom_bond_atom_site_label_1
_geom_bond_atom_site_label_2
_geom_bond_distance
_geom_bond_site_symmetry_2
_ccdc_geom_bond_type
C0 Eu1 2.835 . S
C0 C2 1.500 . S
C0 O20 1.257 . S
C0 O21 1.260 . S
Eu1 C0 2.835 . S
Eu1 O20 2.473 . S
Eu1 O21 2.480 . S
Eu1 O22 2.430 . S
Eu1 O23 2.670 1_554 S
Eu1 O24 2.394 . S
Eu1 O29 2.355 . S
Eu1 O31 2.375 1_554 S
C2 C0 1.500 . S
C2 C3 1.377 . S
C2 C7 1.377 . S
C3 C2 1.377 . S
C3 C4 1.395 . S
C3 H32 0.931 . S
C4 C3 1.395 . S
C4 C5 1.383 . S
C4 H33 0.931 . S
C5 C4 1.383 . S
C5 C6 1.394 . S
C6 C5 1.394 . S
C6 C7 1.378 . S
C6 H34 0.931 . S
C7 C2 1.377 . S
C7 C6 1.378 . S
C7 H35 0.931 . S
C8 O22 1.259 1_556 S
C8 O23 1.270 . S
C9 O24 1.251 . S
C9 O25 1.251 . S
C10 Eu11 2.835 . S
C10 C12 1.500 . S
C10 O26 1.257 . S
C10 O27 1.260 . S
Eu11 C10 2.835 . S
Eu11 O23 2.355 . S
Eu11 O25 2.374 1_556 S
Eu11 O26 2.473 . S
Eu11 O27 2.480 . S
Eu11 O28 2.430 1_556 S
Eu11 O29 2.670 1_556 S
Eu11 O30 2.394 . S
C12 C10 1.500 . S
C12 C13 1.377 . S
C12 C17 1.377 . S
C13 C12 1.377 . S
C13 C14 1.395 . S
C13 H36 0.931 1_455 S
C14 C13 1.395 . S
C14 C15 1.383 . S
C14 H37 0.931 1_455 S
C15 C14 1.383 . S
C15 C16 1.394 . S
C16 C15 1.394 . S
C16 C17 1.378 . S
C16 H38 0.931 . S
C17 C12 1.377 . S
C17 C16 1.378 . S
C17 H39 0.931 . S
C18 O28 1.259 . S
C18 O29 1.270 . S
C19 O30 1.251 . S
C19 O31 1.250 . S
O20 C0 1.257 . S
O20 Eu1 2.473 . S
O21 C0 1.260 . S
O21 Eu1 2.480 . S
O22 Eu1 2.430 . S
O22 C8 1.259 1_554 S
O23 Eu1 2.670 1_556 S
O23 C8 1.270 . S
O23 Eu11 2.355 . S
O24 Eu1 2.394 . S
O24 C9 1.251 . S
O25 C9 1.251 . S
O25 Eu11 2.374 1_554 S
O26 C10 1.257 . S
O26 Eu11 2.473 . S
O27 C10 1.260 . S
O27 Eu11 2.480 . S
O28 Eu11 2.430 1_554 S
O28 C18 1.259 . S
O29 Eu1 2.355 . S
O29 Eu11 2.670 1_554 S
O29 C18 1.270 . S
O30 Eu11 2.394 . S
O30 C19 1.251 . S
O31 Eu1 2.375 1_556 S
O31 C19 1.250 . S
H32 C3 0.931 . S
H33 C4 0.931 . S
H34 C6 0.931 . S
H35 C7 0.931 . S
H36 C13 0.931 1_655 S
H37 C14 0.931 1_655 S
H38 C16 0.931 . S
H39 C17 0.931 . S
C40 Eu41 2.835 . S
C40 C42 1.500 . S
C40 O60 1.257 . S
C40 O61 1.260 . S
Eu41 C40 2.835 . S
Eu41 O60 2.473 . S
Eu41 O61 2.480 . S
Eu41 O62 2.430 . S
Eu41 O63 2.670 . S
Eu41 O64 2.394 . S
Eu41 O69 2.355 . S
Eu41 O71 2.374 . S
C42 C40 1.500 . S
C42 C43 1.377 . S
C42 C47 1.377 . S
C43 C42 1.377 . S
C43 C44 1.395 . S
C43 H72 0.931 . S
C44 C43 1.395 . S
C44 C45 1.383 . S
C44 H73 0.931 . S
C45 C44 1.383 . S
C45 C46 1.394 . S
C46 C45 1.394 . S
C46 C47 1.378 . S
C46 H74 0.931 . S
C47 C42 1.377 . S
C47 C46 1.378 . S
C47 H75 0.931 . S
C48 O62 1.259 . S
C48 O63 1.270 . S
C49 O64 1.251 . S
C49 O65 1.251 . S
C50 Eu51 2.835 . S
C50 C52 1.500 . S
C50 O66 1.257 . S
C50 O67 1.260 . S
Eu51 C50 2.835 . S
Eu51 O63 2.355 . S
Eu51 O65 2.374 . S
Eu51 O66 2.473 . S
Eu51 O67 2.480 . S
Eu51 O68 2.430 . S
Eu51 O69 2.670 . S
Eu51 O70 2.394 . S
C52 C50 1.500 . S
C52 C53 1.377 . S
C52 C57 1.377 . S
C53 C52 1.377 . S
C53 C54 1.395 . S
C53 H76 0.931 1_545 S
C54 C53 1.395 . S
C54 C55 1.383 1_554 S
C54 H77 0.931 1_544 S
C55 C54 1.383 1_556 S
C55 C56 1.394 . S
C56 C55 1.394 . S
C56 C57 1.378 1_556 S
C56 H78 0.931 . S
C57 C52 1.377 . S
C57 C56 1.378 1_554 S
C57 H79 0.931 . S
C58 O68 1.259 . S
C58 O69 1.270 . S
C59 O70 1.251 . S
C59 O71 1.251 . S
O60 C40 1.257 . S
O60 Eu41 2.473 . S
O61 C40 1.260 . S
O61 Eu41 2.480 . S
O62 Eu41 2.430 . S
O62 C48 1.259 . S
O63 Eu41 2.670 . S
O63 C48 1.270 . S
O63 Eu51 2.355 . S
O64 Eu41 2.394 . S
O64 C49 1.251 . S
O65 C49 1.251 . S
O65 Eu51 2.374 . S
O66 C50 1.257 . S
O66 Eu51 2.473 . S
O67 C50 1.260 . S
O67 Eu51 2.480 . S
O68 Eu51 2.430 . S
O68 C58 1.259 . S
O69 Eu41 2.355 . S
O69 Eu51 2.670 . S
O69 C58 1.270 . S
O70 Eu51 2.394 . S
O70 C59 1.251 . S
O71 Eu41 2.374 . S
O71 C59 1.251 . S
H72 C43 0.931 . S
H73 C44 0.931 . S
H74 C46 0.931 . S
H75 C47 0.931 . S
H76 C53 0.931 1_565 S
H77 C54 0.931 1_566 S
H78 C56 0.931 . S
H79 C57 0.931 . S
C80 Eu81 2.835 . S
C80 C82 1.500 . S
C80 O100 1.257 . S
C80 O101 1.260 . S
Eu81 C80 2.835 . S
Eu81 O100 2.473 . S
Eu81 O101 2.480 . S
Eu81 O102 2.430 . S
Eu81 O103 2.670 . S
Eu81 O104 2.394 . S
Eu81 O109 2.355 . S
Eu81 O111 2.374 . S
C82 C80 1.500 . S
C82 C83 1.377 . S
C82 C87 1.377 . S
C83 C82 1.377 . S
C83 C84 1.395 1_556 S
C83 H112 0.931 . S
C84 C83 1.395 1_554 S
C84 C85 1.383 . S
C84 H113 0.931 . S
C85 C84 1.383 . S
C85 C86 1.394 . S
C86 C85 1.394 . S
C86 C87 1.378 1_554 S
C86 H114 0.931 . S
C87 C82 1.377 . S
C87 C86 1.378 1_556 S
C87 H115 0.931 . S
C88 O102 1.259 . S
C88 O103 1.270 . S
C89 O104 1.251 . S
C89 O105 1.251 . S
C90 Eu91 2.835 . S
C90 C92 1.500 . S
C90 O106 1.257 . S
C90 O107 1.260 . S
Eu91 C90 2.835 . S
Eu91 O103 2.355 . S
Eu91 O105 2.374 . S
Eu91 O106 2.473 . S
Eu91 O107 2.480 . S
Eu91 O108 2.430 . S
Eu91 O109 2.670 . S
Eu91 O110 2.394 . S
C92 C90 1.500 . S
C92 C93 1.377 . S
C92 C97 1.377 . S
C93 C92 1.377 . S
C93 C94 1.395 . S
C93 H116 0.931 . S
C94 C93 1.395 . S
C94 C95 1.383 . S
C94 H117 0.931 . S
C95 C94 1.383 . S
C95 C96 1.394 . S
C96 C95 1.394 . S
C96 C97 1.378 . S
C96 H118 0.931 . S
C97 C92 1.377 . S
C97 C96 1.378 . S
C97 H119 0.931 . S
C98 O108 1.259 . S
C98 O109 1.270 . S
C99 O110 1.251 . S
C99 O111 1.251 . S
O100 C80 1.257 . S
O100 Eu81 2.473 . S
O101 C80 1.260 . S
O101 Eu81 2.480 . S
O102 Eu81 2.430 . S
O102 C88 1.259 . S
O103 Eu81 2.670 . S
O103 C88 1.270 . S
O103 Eu91 2.355 . S
O104 Eu81 2.394 . S
O104 C89 1.251 . S
O105 C89 1.251 . S
O105 Eu91 2.374 . S
O106 C90 1.257 . S
O106 Eu91 2.473 . S
O107 C90 1.260 . S
O107 Eu91 2.480 . S
O108 Eu91 2.430 . S
O108 C98 1.259 . S
O109 Eu81 2.355 . S
O109 Eu91 2.670 . S
O109 C98 1.270 . S
O110 Eu91 2.394 . S
O110 C99 1.251 . S
O111 Eu81 2.374 . S
O111 C99 1.251 . S
H112 C83 0.931 . S
H113 C84 0.931 . S
H114 C86 0.931 . S
H115 C87 0.931 . S
H116 C93 0.931 . S
H117 C94 0.931 . S
H118 C96 0.931 . S
H119 C97 0.931 . S
C120 Eu121 2.835 . S
C120 C122 1.500 . S
C120 O140 1.257 . S
C120 O141 1.260 . S
Eu121 C120 2.835 . S
Eu121 O140 2.473 . S
Eu121 O141 2.480 . S
Eu121 O142 2.430 . S
Eu121 O143 2.670 1_554 S
Eu121 O144 2.394 . S
Eu121 O149 2.355 . S
Eu121 O151 2.375 1_554 S
C122 C120 1.500 . S
C122 C123 1.377 . S
C122 C127 1.377 . S
C123 C122 1.377 . S
C123 C124 1.395 . S
C123 H152 0.931 . S
C124 C123 1.395 . S
C124 C125 1.383 . S
C124 H153 0.931 . S
C125 C124 1.383 . S
C125 C126 1.394 . S
C126 C125 1.394 . S
C126 C127 1.378 . S
C126 H154 0.931 . S
C127 C122 1.377 . S
C127 C126 1.378 . S
C127 H155 0.931 . S
C128 O142 1.259 1_556 S
C128 O143 1.270 . S
C129 O144 1.251 . S
C129 O145 1.251 . S
C130 Eu131 2.835 . S
C130 C132 1.500 . S
C130 O146 1.257 . S
C130 O147 1.260 . S
Eu131 C130 2.835 . S
Eu131 O143 2.355 . S
Eu131 O145 2.374 1_556 S
Eu131 O146 2.473 . S
Eu131 O147 2.480 . S
Eu131 O148 2.430 1_556 S
Eu131 O149 2.670 1_556 S
Eu131 O150 2.394 . S
C132 C130 1.500 . S
C132 C133 1.377 . S
C132 C137 1.377 . S
C133 C132 1.377 . S
C133 C134 1.395 . S
C133 H156 0.931 1_655 S
C134 C133 1.395 . S
C134 C135 1.383 . S
C134 H157 0.931 1_655 S
C135 C134 1.383 . S
C135 C136 1.394 . S
C136 C135 1.394 . S
C136 C137 1.378 . S
C136 H158 0.931 . S
C137 C132 1.377 . S
C137 C136 1.378 . S
C137 H159 0.931 . S
C138 O148 1.259 . S
C138 O149 1.270 . S
C139 O150 1.251 . S
C139 O151 1.250 . S
O140 C120 1.257 . S
O140 Eu121 2.473 . S
O141 C120 1.260 . S
O141 Eu121 2.480 . S
O142 Eu121 2.430 . S
O142 C128 1.259 1_554 S
O143 Eu121 2.670 1_556 S
O143 C128 1.270 . S
O143 Eu131 2.355 . S
O144 Eu121 2.394 . S
O144 C129 1.251 . S
O145 C129 1.251 . S
O145 Eu131 2.374 1_554 S
O146 C130 1.257 . S
O146 Eu131 2.473 . S
O147 C130 1.260 . S
O147 Eu131 2.480 . S
O148 Eu131 2.430 1_554 S
O148 C138 1.259 . S
O149 Eu121 2.355 . S
O149 Eu131 2.670 1_554 S
O149 C138 1.270 . S
O150 Eu131 2.394 . S
O150 C139 1.251 . S
O151 Eu121 2.375 1_556 S
O151 C139 1.250 . S
H152 C123 0.931 . S
H153 C124 0.931 . S
H154 C126 0.931 . S
H155 C127 0.931 . S
H156 C133 0.931 1_455 S
H157 C134 0.931 1_455 S
H158 C136 0.931 . S
H159 C137 0.931 . S
C160 Eu161 2.835 . S
C160 C162 1.500 . S
C160 O180 1.257 . S
C160 O181 1.260 . S
Eu161 C160 2.835 . S
Eu161 O180 2.473 . S
Eu161 O181 2.480 . S
Eu161 O182 2.430 . S
Eu161 O183 2.670 . S
Eu161 O184 2.394 . S
Eu161 O189 2.355 . S
Eu161 O191 2.374 . S
C162 C160 1.500 . S
C162 C163 1.377 . S
C162 C167 1.377 . S
C163 C162 1.377 . S
C163 C164 1.395 . S
C163 H192 0.931 . S
C164 C163 1.395 . S
C164 C165 1.383 . S
C164 H193 0.931 . S
C165 C164 1.383 . S
C165 C166 1.394 . S
C166 C165 1.394 . S
C166 C167 1.378 . S
C166 H194 0.931 . S
C167 C162 1.377 . S
C167 C166 1.378 . S
C167 H195 0.931 . S
C168 O182 1.259 . S
C168 O183 1.270 . S
C169 O184 1.251 . S
C169 O185 1.251 . S
C170 Eu171 2.835 . S
C170 C172 1.500 . S
C170 O186 1.257 . S
C170 O187 1.260 . S
Eu171 C170 2.835 . S
Eu171 O183 2.355 . S
Eu171 O185 2.374 . S
Eu171 O186 2.473 . S
Eu171 O187 2.480 . S
Eu171 O188 2.430 . S
Eu171 O189 2.670 . S
Eu171 O190 2.394 . S
C172 C170 1.500 . S
C172 C173 1.377 . S
C172 C177 1.377 . S
C173 C172 1.377 . S
C173 C174 1.395 . S
C173 H196 0.931 1_565 S
C174 C173 1.395 . S
C174 C175 1.383 1_554 S
C174 H197 0.931 1_564 S
C175 C174 1.383 1_556 S
C175 C176 1.394 . S
C176 C175 1.394 . S
C176 C177 1.378 1_556 S
C176 H198 0.931 . S
C177 C172 1.377 . S
C177 C176 1.378 1_554 S
C177 H199 0.931 . S
C178 O188 1.259 . S
C178 O189 1.270 . S
C179 O190 1.251 . S
C179 O191 1.251 . S
O180 C160 1.257 . S
O180 Eu161 2.473 . S
O181 C160 1.260 . S
O181 Eu161 2.480 . S
O182 Eu161 2.430 . S
O182 C168 1.259 . S
O183 Eu161 2.670 . S
O183 C168 1.270 . S
O183 Eu171 2.355 . S
O184 Eu161 2.394 . S
O184 C169 1.251 . S
O185 C169 1.251 . S
O185 Eu171 2.374 . S
O186 C170 1.257 . S
O186 Eu171 2.473 . S
O187 C170 1.260 . S
O187 Eu171 2.480 . S
O188 Eu171 2.430 . S
O188 C178 1.259 . S
O189 Eu161 2.355 . S
O189 Eu171 2.670 . S
O189 C178 1.270 . S
O190 Eu171 2.394 . S
O190 C179 1.251 . S
O191 Eu161 2.374 . S
O191 C179 1.251 . S
H192 C163 0.931 . S
H193 C164 0.931 . S
H194 C166 0.931 . S
H195 C167 0.931 . S
H196 C173 0.931 1_545 S
H197 C174 0.931 1_546 S
H198 C176 0.931 . S
H199 C177 0.931 . S
C200 Eu201 2.835 . S
C200 C202 1.500 . S
C200 O220 1.257 . S
C200 O221 1.260 . S
Eu201 C200 2.835 . S
Eu201 O220 2.473 . S
Eu201 O221 2.480 . S
Eu201 O222 2.430 . S
Eu201 O223 2.670 . S
Eu201 O224 2.394 . S
Eu201 O229 2.355 . S
Eu201 O231 2.374 . S
C202 C200 1.500 . S
C202 C203 1.377 . S
C202 C207 1.377 . S
C203 C202 1.377 . S
C203 C204 1.395 1_556 S
C203 H232 0.931 . S
C204 C203 1.395 1_554 S
C204 C205 1.383 . S
C204 H233 0.931 . S
C205 C204 1.383 . S
C205 C206 1.394 . S
C206 C205 1.394 . S
C206 C207 1.378 1_554 S
C206 H234 0.931 . S
C207 C202 1.377 . S
C207 C206 1.378 1_556 S
C207 H235 0.931 . S
C208 O222 1.259 . S
C208 O223 1.270 . S
C209 O224 1.251 . S
C209 O225 1.251 . S
C210 Eu211 2.835 . S
C210 C212 1.500 . S
C210 O226 1.257 . S
C210 O227 1.260 . S
Eu211 C210 2.835 . S
Eu211 O223 2.355 . S
Eu211 O225 2.374 . S
Eu211 O226 2.473 . S
Eu211 O227 2.480 . S
Eu211 O228 2.430 . S
Eu211 O229 2.670 . S
Eu211 O230 2.394 . S
C212 C210 1.500 . S
C212 C213 1.377 . S
C212 C217 1.377 . S
C213 C212 1.377 . S
C213 C214 1.395 . S
C213 H236 0.931 . S
C214 C213 1.395 . S
C214 C215 1.383 . S
C214 H237 0.931 . S
C215 C214 1.383 . S
C215 C216 1.394 . S
C216 C215 1.394 . S
C216 C217 1.378 . S
C216 H238 0.931 . S
C217 C212 1.377 . S
C217 C216 1.378 . S
C217 H239 0.931 . S
C218 O228 1.259 . S
C218 O229 1.270 . S
C219 O230 1.251 . S
C219 O231 1.251 . S
O220 C200 1.257 . S
O220 Eu201 2.473 . S
O221 C200 1.260 . S
O221 Eu201 2.480 . S
O222 Eu201 2.430 . S
O222 C208 1.259 . S
O223 Eu201 2.670 . S
O223 C208 1.270 . S
O223 Eu211 2.355 . S
O224 Eu201 2.394 . S
O224 C209 1.251 . S
O225 C209 1.251 . S
O225 Eu211 2.374 . S
O226 C210 1.257 . S
O226 Eu211 2.473 . S
O227 C210 1.260 . S
O227 Eu211 2.480 . S
O228 Eu211 2.430 . S
O228 C218 1.259 . S
O229 Eu201 2.355 . S
O229 Eu211 2.670 . S
O229 C218 1.270 . S
O230 Eu211 2.394 . S
O230 C219 1.251 . S
O231 Eu201 2.374 . S
O231 C219 1.251 . S
H232 C203 0.931 . S
H233 C204 0.931 . S
H234 C206 0.931 . S
H235 C207 0.931 . S
H236 C213 0.931 . S
H237 C214 0.931 . S
H238 C216 0.931 . S
H239 C217 0.931 . S
C240 C241 1.387 . S
C240 H244 0.950 . S
C240 C249 1.390 . S
C241 C240 1.387 . S
C241 C243 1.387 . S
H242 C249 0.950 . S
C243 C241 1.387 . S
C243 C245 1.390 . S
C243 H247 0.950 . S
H244 C240 0.950 . S
C245 C243 1.390 . S
C245 C246 1.387 . S
C245 H248 0.950 . S
C246 C245 1.387 . S
C246 C249 1.387 . S
H247 C243 0.950 . S
H248 C245 0.950 . S
C249 C240 1.390 . S
C249 H242 0.950 . S
C249 C246 1.387 . S
C250 C251 1.387 . S
C250 H254 0.950 . S
C250 C259 1.390 . S
C251 C250 1.387 . S
C251 C253 1.387 1_455 S
H252 C259 0.950 . S
C253 C251 1.387 1_655 S
C253 C255 1.390 . S
C253 H257 0.950 . S
H254 C250 0.950 . S
C255 C253 1.390 . S
C255 C256 1.387 . S
C255 H258 0.950 . S
C256 C255 1.387 . S
C256 C259 1.387 1_655 S
H257 C253 0.950 . S
H258 C255 0.950 . S
C259 C250 1.390 . S
C259 H252 0.950 . S
C259 C256 1.387 1_455 S
C260 C261 1.387 . S
C260 H264 0.950 . S
C260 C269 1.390 1_545 S
C261 C260 1.387 . S
C261 C263 1.387 . S
H262 C269 0.950 . S
C263 C261 1.387 . S
C263 C265 1.390 1_545 S
C263 H267 0.950 . S
H264 C260 0.950 . S
C265 C263 1.390 1_565 S
C265 C266 1.387 . S
C265 H268 0.950 . S
C266 C265 1.387 . S
C266 C269 1.387 . S
H267 C263 0.950 . S
H268 C265 0.950 . S
C269 C260 1.390 1_565 S
C269 H262 0.950 . S
C269 C266 1.387 . S
C270 C271 1.387 . S
C270 H274 0.950 . S
C270 C279 1.390 . S
C271 C270 1.387 . S
C271 C273 1.387 . S
H272 C279 0.950 . S
C273 C271 1.387 . S
C273 C275 1.390 . S
C273 H277 0.950 . S
H274 C270 0.950 . S
C275 C273 1.390 . S
C275 C276 1.387 . S
C275 H278 0.950 . S
C276 C275 1.387 . S
C276 C279 1.387 . S
H277 C273 0.950 . S
H278 C275 0.950 . S
C279 C270 1.390 . S
C279 H272 0.950 . S
C279 C276 1.387 . S
C280 C281 1.387 1_655 S
C280 H284 0.950 . S
C280 C289 1.390 . S
C281 C280 1.387 1_455 S
C281 C283 1.387 . S
H282 C289 0.950 . S
C283 C281 1.387 . S
C283 C285 1.390 . S
C283 H287 0.950 . S
H284 C280 0.950 . S
C285 C283 1.390 . S
C285 C286 1.387 1_455 S
C285 H288 0.950 . S
C286 C285 1.387 1_655 S
C286 C289 1.387 . S
H287 C283 0.950 . S
H288 C285 0.950 . S
C289 C280 1.390 . S
C289 H282 0.950 . S
C289 C286 1.387 . S
C290 C291 1.387 . S
C290 H294 0.950 . S
C290 C299 1.390 1_545 S
C291 C290 1.387 . S
C291 C293 1.387 . S
H292 C299 0.950 . S
C293 C291 1.387 . S
C293 C295 1.390 1_545 S
C293 H297 0.950 . S
H294 C290 0.950 . S
C295 C293 1.390 1_565 S
C295 C296 1.387 . S
C295 H298 0.950 . S
C296 C295 1.387 . S
C296 C299 1.387 . S
H297 C293 0.950 . S
H298 C295 0.950 . S
C299 C290 1.390 1_565 S
C299 H292 0.950 . S
C299 C296 1.387 . S
C300 C301 1.387 . S
C300 H304 0.950 . S
C300 C309 1.390 . S
C301 C300 1.387 . S
C301 C303 1.387 . S
H302 C309 0.950 . S
C303 C301 1.387 . S
C303 C305 1.390 . S
C303 H307 0.950 . S
H304 C300 0.950 . S
C305 C303 1.390 . S
C305 C306 1.387 . S
C305 H308 0.950 . S
C306 C305 1.387 . S
C306 C309 1.387 . S
H307 C303 0.950 . S
H308 C305 0.950 . S
C309 C300 1.390 . S
C309 H302 0.950 . S
C309 C306 1.387 . S
C310 C311 1.387 . S
C310 H314 0.950 . S
C310 C319 1.390 . S
C311 C310 1.387 . S
C311 C313 1.387 . S
H312 C319 0.950 . S
C313 C311 1.387 . S
C313 C315 1.390 . S
C313 H317 0.950 . S
H314 C310 0.950 . S
C315 C313 1.390 . S
C315 C316 1.387 . S
C315 H318 0.950 . S
C316 C315 1.387 . S
C316 C319 1.387 . S
H317 C313 0.950 . S
H318 C315 0.950 . S
C319 C310 1.390 . S
C319 H312 0.950 . S
C319 C316 1.387 . S
C320 C321 1.387 . S
C320 H324 0.950 . S
C320 C329 1.390 . S
C321 C320 1.387 . S
C321 C323 1.387 . S
H322 C329 0.950 . S
C323 C321 1.387 . S
C323 C325 1.390 . S
C323 H327 0.950 . S
H324 C320 0.950 . S
C325 C323 1.390 . S
C325 C326 1.387 . S
C325 H328 0.950 . S
C326 C325 1.387 . S
C326 C329 1.387 . S
H327 C323 0.950 . S
H328 C325 0.950 . S
C329 C320 1.390 . S
C329 H322 0.950 . S
C329 C326 1.387 . S
C330 C331 1.387 . S
C330 H334 0.950 . S
C330 C339 1.390 . S
C331 C330 1.387 . S
C331 C333 1.387 . S
H332 C339 0.950 . S
C333 C331 1.387 . S
C333 C335 1.390 . S
C333 H337 0.950 . S
H334 C330 0.950 . S
C335 C333 1.390 . S
C335 C336 1.387 . S
C335 H338 0.950 . S
C336 C335 1.387 . S
C336 C339 1.387 . S
H337 C333 0.950 . S
H338 C335 0.950 . S
C339 C330 1.390 . S
C339 H332 0.950 . S
C339 C336 1.387 . S
C340 C341 1.387 . S
C340 H344 0.950 . S
C340 C349 1.390 . S
C341 C340 1.387 . S
C341 C343 1.387 . S
H342 C349 0.950 . S
C343 C341 1.387 . S
C343 C345 1.390 . S
C343 H347 0.950 . S
H344 C340 0.950 . S
C345 C343 1.390 . S
C345 C346 1.387 . S
C345 H348 0.950 . S
C346 C345 1.387 . S
C346 C349 1.387 . S
H347 C343 0.950 . S
H348 C345 0.950 . S
C349 C340 1.390 . S
C349 H342 0.950 . S
C349 C346 1.387 . S
C350 C351 1.387 . S
C350 H354 0.950 . S
C350 C359 1.390 . S
C351 C350 1.387 . S
C351 C353 1.387 . S
H352 C359 0.950 . S
C353 C351 1.387 . S
C353 C355 1.390 . S
C353 H357 0.950 . S
H354 C350 0.950 . S
C355 C353 1.390 . S
C355 C356 1.387 . S
C355 H358 0.950 . S
C356 C355 1.387 . S
C356 C359 1.387 . S
H357 C353 0.950 . S
H358 C355 0.950 . S
C359 C350 1.390 . S
C359 H352 0.950 . S
C359 C356 1.387 . S
C360 C361 1.387 . S
C360 H364 0.950 . S
C360 C369 1.390 . S
C361 C360 1.387 . S
C361 C363 1.387 . S
H362 C369 0.950 . S
C363 C361 1.387 . S
C363 C365 1.390 . S
C363 H367 0.950 . S
H364 C360 0.950 . S
C365 C363 1.390 . S
C365 C366 1.387 . S
C365 H368 0.950 . S
C366 C365 1.387 . S
C366 C369 1.387 . S
H367 C363 0.950 . S
H368 C365 0.950 . S
C369 C360 1.390 . S
C369 H362 0.950 . S
C369 C366 1.387 . S
C370 C371 1.387 . S
C370 H374 0.950 . S
C370 C379 1.390 . S
C371 C370 1.387 . S
C371 C373 1.387 . S
H372 C379 0.950 . S
C373 C371 1.387 . S
C373 C375 1.390 . S
C373 H377 0.950 . S
H374 C370 0.950 . S
C375 C373 1.390 . S
C375 C376 1.387 . S
C375 H378 0.950 . S
C376 C375 1.387 . S
C376 C379 1.387 . S
H377 C373 0.950 . S
H378 C375 0.950 . S
C379 C370 1.390 . S
C379 H372 0.950 . S
C379 C376 1.387 . S
C380 C381 1.387 . S
C380 H384 0.950 . S
C380 C389 1.390 . S
C381 C380 1.387 . S
C381 C383 1.387 . S
H382 C389 0.950 . S
C383 C381 1.387 . S
C383 C385 1.390 . S
C383 H387 0.950 . S
H384 C380 0.950 . S
C385 C383 1.390 . S
C385 C386 1.387 . S
C385 H388 0.950 . S
C386 C385 1.387 . S
C386 C389 1.387 . S
H387 C383 0.950 . S
H388 C385 0.950 . S
C389 C380 1.390 . S
C389 H382 0.950 . S
C389 C386 1.387 . S
C390 C391 1.387 . S
C390 H394 0.950 . S
C390 C399 1.390 . S
C391 C390 1.387 . S
C391 C393 1.387 . S
H392 C399 0.950 . S
C393 C391 1.387 . S
C393 C395 1.390 . S
C393 H397 0.950 . S
H394 C390 0.950 . S
C395 C393 1.390 . S
C395 C396 1.387 . S
C395 H398 0.950 . S
C396 C395 1.387 . S
C396 C399 1.387 . S
H397 C393 0.950 . S
H398 C395 0.950 . S
C399 C390 1.390 . S
C399 H392 0.950 . S
C399 C396 1.387 . S
C400 C401 1.387 . S
C400 H404 0.950 . S
C400 C409 1.390 . S
C401 C400 1.387 . S
C401 C403 1.387 . S
H402 C409 0.950 . S
C403 C401 1.387 . S
C403 C405 1.390 . S
C403 H407 0.950 . S
H404 C400 0.950 . S
C405 C403 1.390 . S
C405 C406 1.387 . S
C405 H408 0.950 . S
C406 C405 1.387 . S
C406 C409 1.387 . S
H407 C403 0.950 . S
H408 C405 0.950 . S
C409 C400 1.390 . S
C409 H402 0.950 . S
C409 C406 1.387 . S
C410 C411 1.387 . S
C410 H414 0.950 . S
C410 C419 1.390 . S
C411 C410 1.387 . S
C411 C413 1.387 . S
H412 C419 0.950 . S
C413 C411 1.387 . S
C413 C415 1.390 . S
C413 H417 0.950 . S
H414 C410 0.950 . S
C415 C413 1.390 . S
C415 C416 1.387 . S
C415 H418 0.950 . S
C416 C415 1.387 . S
C416 C419 1.387 . S
H417 C413 0.950 . S
H418 C415 0.950 . S
C419 C410 1.390 . S
C419 H412 0.950 . S
C419 C416 1.387 . S
C241 C218 1.516 . S
C246 C19 1.585 . S
C251 C18 1.518 . S
C256 C59 1.585 . S
C261 C58 1.517 . S
C266 C99 1.585 . S
C271 C98 1.519 . S
C276 C139 1.586 . S
C281 C179 1.585 . S
C286 C138 1.517 . S
C291 C219 1.585 . S
C296 C178 1.517 . S
C301 C15 2.029 . S
C306 C5 2.029 . S
C311 C55 2.027 . S
C316 C45 2.027 . S
C321 C95 2.029 . S
C326 C85 2.029 . S
C331 C135 2.028 . S
C336 C125 2.028 . S
C341 C165 2.031 . S
C346 C175 2.031 . S
C351 C215 2.028 . S
C356 C205 2.028 . S
C361 C9 1.838 . S
C366 C168 1.825 . S
C371 C49 1.838 . S
C376 C208 1.825 . S
C381 C8 1.826 . S
C386 C89 1.838 . S
C391 C48 1.824 . S
C396 C129 1.837 . S
C401 C169 1.838 . S
C406 C88 1.825 . S
C411 C128 1.825 . S
C416 C209 1.837 . S
