# Generated by pormake.
# Topology zfu, (5)-cn, num edge types: 1
# Building blocks:
#     Node 0, Type 0, BuildingBlock: BEQFEK_clean_sbu_0, # of connection points: 5
#     Node 1, Type 0, BuildingBlock: BEQFEK_clean_sbu_0, # of connection points: 5
#     Node 2, Type 0, BuildingBlock: BEQFEK_clean_sbu_0, # of connection points: 5
#     Node 3, Type 0, BuildingBlock: BEQFEK_clean_sbu_0, # of connection points: 5
#     Node 4, Type 0, BuildingBlock: BEQFEK_clean_sbu_0, # of connection points: 5
#     Node 5, Type 0, BuildingBlock: BEQFEK_clean_sbu_0, # of connection points: 5
#     Node 6, Type 0, BuildingBlock: BEQFEK_clean_sbu_0, # of connection points: 5
#     Node 7, Type 0, BuildingBlock: BEQFEK_clean_sbu_0, # of connection points: 5
#     Edge 8, Type (0, 0), BuildingBlock: XIVTED_clean_linker_0, # of connection points: 2
#     Edge 9, Type (0, 0), BuildingBlock: XIVTED_clean_linker_0, # of connection points: 2
#     Edge 10, Type (0, 0), BuildingBlock: XIVTED_clean_linker_0, # of connection points: 2
#     Edge 11, Type (0, 0), BuildingBlock: XIVTED_clean_linker_0, # of connection points: 2
#     Edge 12, Type (0, 0), BuildingBlock: XIVTED_clean_linker_0, # of connection points: 2
#     Edge 13, Type (0, 0), BuildingBlock: XIVTED_clean_linker_0, # of connection points: 2
#     Edge 14, Type (0, 0), BuildingBlock: XIVTED_clean_linker_0, # of connection points: 2
#     Edge 15, Type (0, 0), BuildingBlock: XIVTED_clean_linker_0, # of connection points: 2
#     Edge 16, Type (0, 0), BuildingBlock: XIVTED_clean_linker_0, # of connection points: 2
#     Edge 17, Type (0, 0), BuildingBlock: XIVTED_clean_linker_0, # of connection points: 2
#     Edge 18, Type (0, 0), BuildingBlock: XIVTED_clean_linker_0, # of connection points: 2
#     Edge 19, Type (0, 0), BuildingBlock: XIVTED_clean_linker_0, # of connection points: 2
#     Edge 20, Type (0, 0), BuildingBlock: XIVTED_clean_linker_0, # of connection points: 2
#     Edge 21, Type (0, 0), BuildingBlock: XIVTED_clean_linker_0, # of connection points: 2
#     Edge 22, Type (0, 0), BuildingBlock: XIVTED_clean_linker_0, # of connection points: 2
#     Edge 23, Type (0, 0), BuildingBlock: XIVTED_clean_linker_0, # of connection points: 2
#     Edge 24, Type (0, 0), BuildingBlock: XIVTED_clean_linker_0, # of connection points: 2
#     Edge 25, Type (0, 0), BuildingBlock: XIVTED_clean_linker_0, # of connection points: 2
#     Edge 26, Type (0, 0), BuildingBlock: XIVTED_clean_linker_0, # of connection points: 2
#     Edge 27, Type (0, 0), BuildingBlock: XIVTED_clean_linker_0, # of connection points: 2
# Relax obj value: 0.066
# Max RMSD: 0.102
# Mean RMSD: 0.102
data_MOF--net-zfu--node1-BEQFEK_clean_sbu_0--edge1-XIVTED_clean_linker_0
_symmetry_space_group_name_H-M    P1
_symmetry_Int_Tables_number       1
_symmetry_cell_setting            triclinic
loop_
_symmetry_equiv_pos_as_xyz
'x, y, z'
_cell_length_a     41.825442
_cell_length_b     41.839822
_cell_length_c     27.046664
_cell_angle_alpha  90.015807
_cell_angle_beta   89.99355
_cell_angle_gamma 89.998321
loop_
_atom_site_label
_atom_site_type_symbol
_atom_site_fract_x
_atom_site_fract_y
_atom_site_fract_z
_atom_type_partial_charge
Co0 Co 0.43663 0.69398 0.05781 0.0
Co1 Co 0.40034 0.75925 0.04699 0.0
C2 C 0.4655 0.75878 0.08598 0.0
O3 O 0.46465 0.72843 0.08335 0.0
O4 O 0.44233 0.7757 0.0703 0.0
C5 C 0.492 0.66031 0.03379 0.0
O6 O 0.49947 0.68908 0.01814 0.0
C7 C 0.37788 0.82152 0.00798 0.0
C8 C 0.32585 0.81651 0.01986 0.0
C9 C 0.3487 0.83635 0.99902 0.0
N10 N 0.37227 0.79392 0.03211 0.0
N11 N 0.3412 0.79149 0.04 0.0
C12 C 0.41003 0.83133 0.98904 0.0
H13 H 0.42668 0.81068 0.98888 0.0
H14 H 0.40797 0.84138 0.9512 0.0
H15 H 0.41994 0.85013 0.01358 0.0
C16 C 0.41297 0.68541 0.95674 0.0
N17 N 0.41831 0.70407 0.99639 0.0
N18 N 0.40401 0.73178 0.99032 0.0
C19 C 0.3899 0.73196 0.94536 0.0
C20 C 0.39481 0.70244 0.92271 0.0
C21 C 0.42087 0.65049 0.95541 0.0
H22 H 0.41952 0.64025 0.99315 0.0
H23 H 0.44563 0.64742 0.94148 0.0
H24 H 0.40427 0.6371 0.93106 0.0
O25 O 0.40221 0.687 0.10549 0.0
O26 O 0.37965 0.73525 0.10307 0.0
H27 H 0.34892 0.76256 0.94464 0.0
H28 H 0.36708 0.75683 0.88453 0.0
C29 C 0.37188 0.75977 0.92458 0.0
H30 H 0.38614 0.78178 0.92947 0.0
H31 H 0.33032 0.77194 0.05704 0.0
O32 O 0.46445 0.65563 0.05228 0.0
C33 C 0.38165 0.70708 0.12096 0.0
Co34 Co 0.79814 0.94089 0.30388 0.0
Co35 Co 0.73526 0.89969 0.30049 0.0
C36 C 0.73349 0.96696 0.33473 0.0
O37 O 0.76351 0.96847 0.32793 0.0
O38 O 0.71789 0.94169 0.32427 0.0
C39 C 0.83099 0.996 0.27472 0.0
O40 O 0.80227 0.00275 0.25801 0.0
C41 C 0.67191 0.87411 0.26884 0.0
C42 C 0.67955 0.82262 0.28243 0.0
C43 C 0.65754 0.84424 0.26376 0.0
N44 N 0.70124 0.87 0.28855 0.0
N45 N 0.70541 0.83919 0.297 0.0
C46 C 0.658 0.90601 0.25603 0.0
H47 H 0.66843 0.92497 0.27952 0.0
H48 H 0.66358 0.91173 0.21693 0.0
H49 H 0.63164 0.90583 0.26081 0.0
C50 C 0.80562 0.9146 0.20428 0.0
N51 N 0.78783 0.91977 0.24491 0.0
N52 N 0.76092 0.90364 0.24172 0.0
C53 C 0.76029 0.88848 0.19758 0.0
C54 C 0.78875 0.8947 0.17245 0.0
C55 C 0.83995 0.92449 0.20013 0.0
H56 H 0.8513 0.92461 0.23715 0.0
H57 H 0.84117 0.94903 0.18469 0.0
H58 H 0.85366 0.90811 0.17585 0.0
O59 O 0.80665 0.90949 0.35506 0.0
O60 O 0.76189 0.8808 0.35568 0.0
H61 H 0.73316 0.84521 0.19997 0.0
H62 H 0.73444 0.86384 0.1396 0.0
C63 C 0.73303 0.86834 0.17995 0.0
H64 H 0.71022 0.88069 0.18777 0.0
H65 H 0.72627 0.82937 0.31173 0.0
O66 O 0.83571 0.9692 0.29553 0.0
C67 C 0.78968 0.88701 0.37281 0.0
Co68 Co 0.55991 0.30307 0.55372 0.0
Co69 Co 0.59926 0.23912 0.55112 0.0
C70 C 0.53208 0.23979 0.58632 0.0
O71 O 0.53097 0.26976 0.57885 0.0
O72 O 0.55705 0.22369 0.57612 0.0
C73 C 0.51119 0.34326 0.51415 0.0
O74 O 0.50733 0.3194 0.48312 0.0
C75 C 0.62158 0.17435 0.52017 0.0
C76 C 0.6734 0.17945 0.5336 0.0
C77 C 0.65067 0.15843 0.51531 0.0
N78 N 0.6272 0.20358 0.53941 0.0
N79 N 0.65819 0.20621 0.54777 0.0
C80 C 0.589 0.16199 0.50752 0.0
H81 H 0.57053 0.17373 0.53046 0.0
H82 H 0.5837 0.1673 0.46819 0.0
H83 H 0.58778 0.13574 0.51313 0.0
C84 C 0.58714 0.30921 0.45388 0.0
N85 N 0.58059 0.29175 0.49443 0.0
N86 N 0.59554 0.26414 0.49165 0.0
C87 C 0.61087 0.26258 0.44771 0.0
C88 C 0.60628 0.29123 0.42238 0.0
C89 C 0.58035 0.34429 0.44994 0.0
H90 H 0.57839 0.35512 0.48721 0.0
H91 H 0.55748 0.34788 0.42993 0.0
H92 H 0.59956 0.35681 0.42933 0.0
O93 O 0.59237 0.31121 0.60338 0.0
O94 O 0.6201 0.26586 0.60479 0.0
H95 H 0.65297 0.23366 0.45078 0.0
H96 H 0.63454 0.23535 0.39029 0.0
C97 C 0.62988 0.23439 0.43063 0.0
H98 H 0.61654 0.21218 0.43865 0.0
H99 H 0.66908 0.22662 0.56218 0.0
O100 O 0.53307 0.34172 0.54661 0.0
C101 C 0.61494 0.29418 0.62067 0.0
Co102 Co 0.2034 0.05544 0.80561 0.0
Co103 Co 0.26402 0.0997 0.80664 0.0
C104 C 0.26851 0.02877 0.82349 0.0
O105 O 0.2387 0.02552 0.81609 0.0
O106 O 0.28172 0.05619 0.82206 0.0
C107 C 0.16247 0.00585 0.76939 0.0
O108 O 0.18612 0.00045 0.73853 0.0
C109 C 0.32594 0.12487 0.76981 0.0
C110 C 0.32441 0.1742 0.79872 0.0
C111 C 0.34276 0.15366 0.77012 0.0
N112 N 0.29883 0.1287 0.79614 0.0
N113 N 0.29829 0.15816 0.81364 0.0
C114 C 0.33542 0.09407 0.74573 0.0
H115 H 0.32302 0.07361 0.763 0.0
H116 H 0.32858 0.09467 0.70613 0.0
H117 H 0.36166 0.09047 0.74845 0.0
C118 C 0.19278 0.08801 0.7099 0.0
N119 N 0.21066 0.08175 0.75016 0.0
N120 N 0.23618 0.10021 0.74993 0.0
C121 C 0.23519 0.11888 0.70916 0.0
C122 C 0.20778 0.11158 0.68241 0.0
C123 C 0.16024 0.07432 0.70077 0.0
H124 H 0.14727 0.07145 0.73622 0.0
H125 H 0.16278 0.05051 0.68318 0.0
H126 H 0.14597 0.08982 0.67586 0.0
O127 O 0.1982 0.08191 0.86505 0.0
O128 O 0.23987 0.11482 0.86613 0.0
H129 H 0.26114 0.16142 0.72687 0.0
H130 H 0.25401 0.15609 0.6614 0.0
C131 C 0.25965 0.14366 0.69652 0.0
H132 H 0.28329 0.13206 0.69257 0.0
H133 H 0.27977 0.16751 0.83506 0.0
O134 O 0.16445 0.02894 0.79974 0.0
C135 C 0.21386 0.10458 0.885 0.0
Co136 Co 0.93994 0.80109 0.74665 0.0
Co137 Co 0.89949 0.73811 0.75055 0.0
C138 C 0.96747 0.73639 0.72021 0.0
O139 O 0.96862 0.76647 0.72631 0.0
O140 O 0.94198 0.72079 0.72926 0.0
C141 C 0.98948 0.84161 0.78367 0.0
O142 O 0.99273 0.81895 0.81691 0.0
C143 C 0.87627 0.67584 0.7872 0.0
C144 C 0.82472 0.67975 0.7705 0.0
C145 C 0.84714 0.66034 0.79341 0.0
N146 N 0.87102 0.70333 0.76264 0.0
N147 N 0.84028 0.70513 0.75187 0.0
C148 C 0.90785 0.66686 0.8092 0.0
H149 H 0.92388 0.68796 0.81106 0.0
H150 H 0.90457 0.6567 0.84677 0.0
H151 H 0.91929 0.64842 0.7856 0.0
C152 C 0.91079 0.81058 0.84448 0.0
N153 N 0.91768 0.79199 0.80529 0.0
N154 N 0.90199 0.76482 0.80878 0.0
C155 C 0.88561 0.76479 0.8519 0.0
C156 C 0.89041 0.79393 0.87581 0.0
C157 C 0.91899 0.8454 0.8472 0.0
H158 H 0.92199 0.85542 0.80957 0.0
H159 H 0.94171 0.84837 0.86785 0.0
H160 H 0.90003 0.85908 0.86658 0.0
O161 O 0.909 0.80813 0.69443 0.0
O162 O 0.88035 0.76342 0.69404 0.0
H163 H 0.84378 0.73554 0.84686 0.0
H164 H 0.85889 0.74025 0.90919 0.0
C165 C 0.86566 0.73746 0.86981 0.0
H166 H 0.87943 0.71505 0.86636 0.0
H167 H 0.82968 0.72447 0.73381 0.0
O168 O 0.9675 0.83938 0.75146 0.0
C169 C 0.88656 0.79114 0.67672 0.0
Co170 Co 0.70081 0.44236 0.99706 0.0
Co171 Co 0.76382 0.40102 0.00045 0.0
C172 C 0.76587 0.47056 0.97679 0.0
O173 O 0.73577 0.47229 0.98252 0.0
O174 O 0.78066 0.44418 0.98204 0.0
C175 C 0.66523 0.49498 0.03008 0.0
O176 O 0.69312 0.50156 0.04997 0.0
C177 C 0.82749 0.37706 0.03353 0.0
C178 C 0.8221 0.3256 0.0174 0.0
C179 C 0.84297 0.34771 0.0378 0.0
N180 N 0.79862 0.37219 0.01257 0.0
N181 N 0.79581 0.34141 0.00265 0.0
C182 C 0.83999 0.4092 0.04828 0.0
H183 H 0.83009 0.42807 0.02416 0.0
H184 H 0.83263 0.41442 0.08686 0.0
H185 H 0.86647 0.40987 0.04597 0.0
C186 C 0.69067 0.41152 0.09318 0.0
N187 N 0.70923 0.41805 0.05388 0.0
N188 N 0.73628 0.40217 0.0574 0.0
C189 C 0.73618 0.38578 0.10045 0.0
C190 C 0.70714 0.39097 0.1245 0.0
C191 C 0.65631 0.42139 0.0968 0.0
H192 H 0.64551 0.42255 0.05942 0.0
H193 H 0.65491 0.44548 0.11381 0.0
H194 H 0.64225 0.40438 0.11951 0.0
O195 O 0.69556 0.41392 0.94023 0.0
O196 O 0.73937 0.38374 0.94206 0.0
H197 H 0.76434 0.34318 0.09738 0.0
H198 H 0.76148 0.36061 0.15847 0.0
C199 C 0.76356 0.36593 0.11844 0.0
H200 H 0.78625 0.3789 0.11222 0.0
H201 H 0.77558 0.33107 0.98668 0.0
O202 O 0.66202 0.46924 0.00561 0.0
C203 C 0.71274 0.39159 0.92238 0.0
Co204 Co 0.05784 0.19705 0.25434 0.0
Co205 Co 0.10076 0.25861 0.25195 0.0
C206 C 0.03353 0.26021 0.21596 0.0
O207 O 0.03128 0.23053 0.22496 0.0
O208 O 0.05891 0.27564 0.22636 0.0
C209 C 0.00034 0.16533 0.27637 0.0
O210 O 0.99134 0.19499 0.28414 0.0
C211 C 0.12525 0.32059 0.28755 0.0
C212 C 0.17409 0.32039 0.25656 0.0
C213 C 0.15354 0.33819 0.28601 0.0
N214 N 0.12936 0.29368 0.26098 0.0
N215 N 0.15851 0.29387 0.24228 0.0
C216 C 0.09442 0.32915 0.31233 0.0
H217 H 0.0743 0.31559 0.29591 0.0
H218 H 0.0958 0.32284 0.35209 0.0
H219 H 0.08979 0.35518 0.30903 0.0
C220 C 0.08149 0.19434 0.35623 0.0
N221 N 0.07765 0.21026 0.31346 0.0
N222 N 0.09697 0.23508 0.31257 0.0
C223 C 0.11438 0.23522 0.3547 0.0
C224 C 0.10509 0.20939 0.38381 0.0
C225 C 0.06443 0.1639 0.3685 0.0
H226 H 0.0727 0.1447 0.34324 0.0
H227 H 0.03841 0.16718 0.36273 0.0
H228 H 0.06852 0.15658 0.4074 0.0
O229 O 0.09072 0.18571 0.20535 0.0
O230 O 0.11974 0.23014 0.20021 0.0
H231 H 0.15752 0.25711 0.32855 0.0
H232 H 0.15843 0.24689 0.39319 0.0
C233 C 0.14309 0.25596 0.36286 0.0
H234 H 0.13514 0.28046 0.37238 0.0
H235 H 0.16797 0.27561 0.22039 0.0
O236 O 0.02927 0.15974 0.26479 0.0
C237 C 0.1136 0.20164 0.18632 0.0
Co238 Co 0.30346 0.56225 0.48427 0.0
Co239 Co 0.23724 0.59602 0.50047 0.0
C240 C 0.23911 0.53036 0.46323 0.0
O241 O 0.26947 0.53221 0.4636 0.0
O242 O 0.22188 0.55326 0.47906 0.0
C243 C 0.34495 0.51431 0.51839 0.0
O244 O 0.32182 0.51102 0.55089 0.0
C245 C 0.17357 0.61827 0.53808 0.0
C246 C 0.17977 0.67027 0.52778 0.0
C247 C 0.15846 0.6476 0.54533 0.0
N248 N 0.20257 0.62371 0.51786 0.0
N249 N 0.20588 0.65483 0.51161 0.0
C250 C 0.16057 0.58571 0.54901 0.0
H251 H 0.17177 0.56757 0.5248 0.0
H252 H 0.16602 0.57941 0.58794 0.0
H253 H 0.13426 0.58522 0.54378 0.0
C254 C 0.31462 0.58775 0.58439 0.0
N255 N 0.29516 0.58129 0.54604 0.0
N256 N 0.26677 0.59361 0.55454 0.0
C257 C 0.26686 0.60707 0.59992 0.0
C258 C 0.29732 0.60405 0.62032 0.0
C259 C 0.35012 0.583 0.58296 0.0
H260 H 0.35874 0.58242 0.54421 0.0
H261 H 0.35619 0.55999 0.60102 0.0
H262 H 0.36264 0.60249 0.60296 0.0
O263 O 0.30702 0.59581 0.43461 0.0
O264 O 0.25835 0.61705 0.4418 0.0
H265 H 0.23498 0.64666 0.60788 0.0
H266 H 0.24092 0.62395 0.664 0.0
C267 C 0.23824 0.62231 0.62328 0.0
H268 H 0.21665 0.60802 0.61486 0.0
H269 H 0.22627 0.66559 0.49687 0.0
O270 O 0.34289 0.53611 0.48586 0.0
C271 C 0.2857 0.61559 0.42101 0.0
H272 H 0.6692 0.55753 0.05712 0.0
H273 H 0.4829 0.59542 0.04217 0.0
H274 H 0.60139 0.48591 0.01016 0.0
H275 H 0.55634 0.66688 0.02352 0.0
H276 H 0.52451 0.55386 0.04242 0.0
H277 H 0.6263 0.59699 0.05846 0.0
C278 C 0.64522 0.55003 0.0474 0.0
C279 C 0.63887 0.51841 0.0333 0.0
C280 C 0.53136 0.57867 0.03814 0.0
C281 C 0.58962 0.56353 0.0349 0.0
C282 C 0.50772 0.60234 0.03813 0.0
C283 C 0.51621 0.63462 0.03277 0.0
C284 C 0.56362 0.58752 0.03377 0.0
C285 C 0.54868 0.6423 0.02751 0.0
C286 C 0.62079 0.57263 0.04791 0.0
C287 C 0.60732 0.51011 0.02096 0.0
N288 N 0.57119 0.61897 0.02852 0.0
N289 N 0.58376 0.53256 0.02218 0.0
H290 H 0.01077 0.10045 0.27565 0.0
H291 H 0.82533 0.05888 0.24985 0.0
H292 H 0.93552 0.17104 0.2799 0.0
H293 H 0.89493 0.98845 0.29489 0.0
H294 H 0.86708 0.09951 0.25061 0.0
H295 H 0.97004 0.0582 0.27424 0.0
C296 C 0.98573 0.10705 0.27643 0.0
C297 C 0.9765 0.1393 0.27789 0.0
C298 C 0.87325 0.07516 0.26032 0.0
C299 C 0.93003 0.0913 0.27566 0.0
C300 C 0.84945 0.05189 0.25963 0.0
C301 C 0.85663 0.02024 0.27252 0.0
C302 C 0.90459 0.06674 0.27351 0.0
C303 C 0.88834 0.01263 0.28495 0.0
C304 C 0.96256 0.08296 0.27568 0.0
C305 C 0.94375 0.14652 0.27893 0.0
N306 N 0.91123 0.03574 0.28507 0.0
N307 N 0.92174 0.12273 0.27748 0.0
H308 H 0.47518 0.36459 0.43649 0.0
H309 H 0.36839 0.48041 0.59643 0.0
H310 H 0.49746 0.38464 0.58918 0.0
H311 H 0.38311 0.49727 0.4407 0.0
H312 H 0.41156 0.44083 0.59491 0.0
H313 H 0.43692 0.40906 0.43702 0.0
C314 C 0.47208 0.37842 0.47002 0.0
C315 C 0.48939 0.37095 0.51288 0.0
C316 C 0.40547 0.45341 0.56121 0.0
C317 C 0.44557 0.42126 0.5139 0.0
C318 C 0.38081 0.47585 0.56199 0.0
C319 C 0.37222 0.49202 0.5186 0.0
C320 C 0.42105 0.4466 0.51648 0.0
C321 C 0.38914 0.48536 0.47498 0.0
C322 C 0.45042 0.40381 0.47021 0.0
C323 C 0.48463 0.38969 0.5553 0.0
N324 N 0.41252 0.46279 0.47485 0.0
N325 N 0.46284 0.41375 0.55495 0.0
H326 H 0.00546 0.87773 0.70342 0.0
H327 H 0.12238 0.99494 0.84714 0.0
H328 H 0.02592 0.86589 0.85873 0.0
H329 H 0.13958 0.96737 0.69568 0.0
H330 H 0.07827 0.95645 0.85093 0.0
H331 H 0.04625 0.91972 0.69921 0.0
C332 C 0.0183 0.88421 0.73673 0.0
C333 C 0.01245 0.8683 0.7815 0.0
C334 C 0.09166 0.959 0.81688 0.0
C335 C 0.05865 0.91634 0.77692 0.0
C336 C 0.11666 0.98101 0.81454 0.0
C337 C 0.13468 0.98419 0.77104 0.0
C338 C 0.08423 0.94061 0.7751 0.0
C339 C 0.12638 0.96546 0.72999 0.0
C340 C 0.04162 0.90798 0.73418 0.0
C341 C 0.02988 0.87747 0.82347 0.0
N342 N 0.10159 0.94452 0.73292 0.0
N343 N 0.05214 0.90106 0.82024 0.0
H344 H 0.32908 0.66366 0.41503 0.0
H345 H 0.35167 0.65006 0.13365 0.0
H346 H 0.25922 0.61183 0.32977 0.0
H347 H 0.36465 0.74238 0.20166 0.0
H348 H 0.32142 0.63254 0.20648 0.0
H349 H 0.34659 0.69106 0.33925 0.0
C350 C 0.31706 0.65865 0.3804 0.0
C351 C 0.29261 0.63585 0.37818 0.0
C352 C 0.33048 0.65678 0.20504 0.0
C353 C 0.31305 0.66589 0.292 0.0
C354 C 0.34781 0.6667 0.16378 0.0
C355 C 0.36057 0.69763 0.16196 0.0
C356 C 0.32692 0.67761 0.24529 0.0
C357 C 0.35498 0.71837 0.20178 0.0
C358 C 0.32696 0.67421 0.33742 0.0
C359 C 0.27796 0.6296 0.33266 0.0
N360 N 0.3391 0.70776 0.24249 0.0
N361 N 0.28887 0.64408 0.29095 0.0
H362 H 0.76436 0.83428 0.4212 0.0
H363 H 0.88928 0.85165 0.6411 0.0
H364 H 0.84374 0.90036 0.42434 0.0
H365 H 0.84228 0.76113 0.61588 0.0
H366 H 0.86376 0.87298 0.56809 0.0
H367 H 0.78537 0.80916 0.49713 0.0
C368 C 0.78616 0.8434 0.43756 0.0
C369 C 0.80221 0.86959 0.41638 0.0
C370 C 0.85898 0.84841 0.57831 0.0
C371 C 0.82578 0.84147 0.5029 0.0
C372 C 0.87352 0.83614 0.62023 0.0
C373 C 0.86839 0.80429 0.63435 0.0
C374 C 0.83894 0.8289 0.5498 0.0
C375 C 0.84712 0.78573 0.60605 0.0
C376 C 0.79807 0.82906 0.48072 0.0
C377 C 0.83039 0.88035 0.43908 0.0
N378 N 0.83321 0.79828 0.56472 0.0
N379 N 0.84104 0.86643 0.48107 0.0
H380 H 0.73299 0.3345 0.88107 0.0
H381 H 0.61828 0.35654 0.64745 0.0
H382 H 0.66718 0.41274 0.85892 0.0
H383 H 0.65623 0.26378 0.68568 0.0
H384 H 0.64527 0.3794 0.71825 0.0
H385 H 0.71287 0.30972 0.80435 0.0
C386 C 0.71445 0.34647 0.86014 0.0
C387 C 0.70165 0.37568 0.87659 0.0
C388 C 0.64782 0.35403 0.71132 0.0
C389 C 0.67907 0.34784 0.78914 0.0
C390 C 0.6324 0.34089 0.67071 0.0
C391 C 0.6345 0.30802 0.66098 0.0
C392 C 0.66558 0.33432 0.74298 0.0
C393 C 0.65378 0.2892 0.69208 0.0
C394 C 0.70299 0.33231 0.81656 0.0
C395 C 0.67766 0.39013 0.84809 0.0
N396 N 0.66843 0.30259 0.73214 0.0
N397 N 0.6673 0.37614 0.80591 0.0
H398 H 0.1656 0.08162 0.94239 0.0
H399 H 0.1624 0.2282 0.13136 0.0
H400 H 0.23339 0.15929 0.93366 0.0
H401 H 0.10684 0.14179 0.14751 0.0
H402 H 0.18927 0.20437 0.05962 0.0
H403 H 0.144 0.10452 0.01761 0.0
C404 C 0.176 0.10357 0.95626 0.0
C405 C 0.20132 0.11861 0.93139 0.0
C406 C 0.17135 0.19063 0.07919 0.0
C407 C 0.17646 0.14515 0.01826 0.0
C408 C 0.156 0.20418 0.12014 0.0
C409 C 0.13211 0.18708 0.14538 0.0
C410 C 0.1626 0.15987 0.06335 0.0
C411 C 0.1249 0.15604 0.12919 0.0
C412 C 0.16367 0.11661 0.99951 0.0
C413 C 0.21385 0.14691 0.9516 0.0
N414 N 0.13991 0.14359 0.08915 0.0
N415 N 0.20115 0.15941 0.9938 0.0
H416 H 0.33882 0.57693 0.68605 0.0
H417 H 0.33283 0.70949 0.89117 0.0
H418 H 0.28534 0.66347 0.65976 0.0
H419 H 0.42252 0.66564 0.85099 0.0
H420 H 0.30838 0.68645 0.81689 0.0
H421 H 0.36328 0.60209 0.75861 0.0
C422 C 0.33214 0.60116 0.69557 0.0
C423 C 0.31004 0.61813 0.6667 0.0
C424 C 0.33346 0.68212 0.82437 0.0
C425 C 0.33714 0.6465 0.75028 0.0
C426 C 0.34752 0.69547 0.86637 0.0
C427 C 0.37991 0.68984 0.87689 0.0
C428 C 0.35164 0.66218 0.79367 0.0
C429 C 0.39745 0.67042 0.84439 0.0
C430 C 0.34605 0.61539 0.73694 0.0
C431 C 0.30175 0.64924 0.68144 0.0
N432 N 0.383 0.65696 0.80448 0.0
N433 N 0.31516 0.66241 0.72248 0.0
H434 H 0.82213 0.92361 0.09806 0.0
H435 H 0.82716 0.78812 0.90247 0.0
H436 H 0.78376 0.83216 0.14195 0.0
H437 H 0.91637 0.82991 0.94993 0.0
H438 H 0.80088 0.81149 0.97517 0.0
H439 H 0.84715 0.89783 0.02625 0.0
C440 C 0.81872 0.89821 0.09239 0.0
C441 C 0.80087 0.88001 0.12611 0.0
C442 C 0.82623 0.81529 0.96948 0.0
C443 C 0.82835 0.85091 0.04352 0.0
C444 C 0.84135 0.80172 0.92848 0.0
C445 C 0.87417 0.80667 0.92051 0.0
C446 C 0.84382 0.83488 0.00145 0.0
C447 C 0.89101 0.8257 0.95443 0.0
C448 C 0.83292 0.88365 0.05153 0.0
C449 C 0.79675 0.84725 0.11646 0.0
N450 N 0.87556 0.8395 0.99313 0.0
N451 N 0.81025 0.83372 0.07576 0.0
H452 H 0.67283 0.41899 0.19863 0.0
H453 H 0.66872 0.28276 0.39264 0.0
H454 H 0.71259 0.32826 0.15407 0.0
H455 H 0.57987 0.32662 0.34812 0.0
H456 H 0.69446 0.30527 0.31888 0.0
H457 H 0.64771 0.3926 0.26966 0.0
C458 C 0.67644 0.39359 0.20391 0.0
C459 C 0.69471 0.37578 0.17023 0.0
C460 C 0.66928 0.30965 0.32537 0.0
C461 C 0.6671 0.34595 0.25206 0.0
C462 C 0.65445 0.29658 0.36702 0.0
C463 C 0.62195 0.30257 0.37634 0.0
C464 C 0.65173 0.3297 0.29403 0.0
C465 C 0.60503 0.32171 0.3427 0.0
C466 C 0.66219 0.37867 0.24437 0.0
C467 C 0.69918 0.34303 0.17953 0.0
N468 N 0.62023 0.33504 0.30341 0.0
N469 N 0.68562 0.32913 0.21988 0.0
H470 H 0.11869 0.23966 0.47105 0.0
H471 H 0.19163 0.08228 0.59652 0.0
H472 H 0.1302 0.14981 0.39521 0.0
H473 H 0.19534 0.17491 0.66582 0.0
H474 H 0.16808 0.10675 0.52284 0.0
H475 H 0.14599 0.21686 0.54346 0.0
C476 C 0.12698 0.21514 0.4698 0.0
C477 C 0.12181 0.19637 0.42763 0.0
C478 C 0.17425 0.12185 0.55392 0.0
C479 C 0.15287 0.17017 0.50975 0.0
C480 C 0.18766 0.10787 0.59586 0.0
C481 C 0.19559 0.12672 0.63681 0.0
C482 C 0.16837 0.15494 0.55317 0.0
C483 C 0.18988 0.15971 0.63454 0.0
C484 C 0.14253 0.20215 0.51096 0.0
C485 C 0.13311 0.16483 0.42749 0.0
N486 N 0.17645 0.17281 0.59344 0.0
N487 N 0.14795 0.15268 0.46796 0.0
H488 H 0.30021 0.84092 0.93345 0.0
H489 H 0.32607 0.02577 0.8731 0.0
H490 H 0.38021 0.89425 0.99105 0.0
H491 H 0.25228 0.9665 0.80953 0.0
H492 H 0.35006 0.97784 0.91034 0.0
H493 H 0.28549 0.88652 0.88279 0.0
C494 C 0.31477 0.86231 0.93529 0.0
C495 C 0.34142 0.86384 0.96655 0.0
C496 C 0.32888 0.97537 0.88764 0.0
C497 C 0.32457 0.91657 0.90861 0.0
C498 C 0.31529 0.00266 0.86617 0.0
C499 C 0.28686 0.00018 0.83875 0.0
C500 C 0.3139 0.94554 0.88145 0.0
C501 C 0.27389 0.96967 0.831 0.0
C502 C 0.30645 0.88836 0.90612 0.0
C503 C 0.35963 0.89203 0.96706 0.0
N504 N 0.28731 0.94371 0.8526 0.0
N505 N 0.35067 0.9175 0.93885 0.0
H506 H 0.48403 0.82224 0.08596 0.0
H507 H 0.62064 0.79316 0.28692 0.0
H508 H 0.50996 0.72954 0.14365 0.0
H509 H 0.6249 0.87305 0.18613 0.0
H510 H 0.57301 0.77407 0.24425 0.0
H511 H 0.52959 0.84564 0.13104 0.0
C512 C 0.49924 0.80684 0.10795 0.0
C513 C 0.4932 0.77386 0.1109 0.0
C514 C 0.58418 0.796 0.23184 0.0
C515 C 0.5446 0.80046 0.16293 0.0
C516 C 0.61134 0.80698 0.25625 0.0
C517 C 0.62665 0.83507 0.24075 0.0
C518 C 0.57204 0.81317 0.19144 0.0
C519 C 0.61345 0.8519 0.20061 0.0
C520 C 0.52516 0.82019 0.13354 0.0
C521 C 0.51369 0.75503 0.13996 0.0
N522 N 0.58687 0.84067 0.17726 0.0
N523 N 0.53824 0.76862 0.165 0.0
H524 H 0.669 0.98204 0.34098 0.0
H525 H 0.70008 0.11949 0.53878 0.0
H526 H 0.7626 0.01392 0.38706 0.0
H527 H 0.62008 0.12639 0.43844 0.0
H528 H 0.71762 0.07145 0.4957 0.0
H529 H 0.64528 0.02711 0.38732 0.0
C530 C 0.6845 0.99843 0.36062 0.0
C531 C 0.71784 0.99425 0.35993 0.0
C532 C 0.69595 0.08327 0.48357 0.0
C533 C 0.69099 0.04483 0.41354 0.0
C534 C 0.68586 0.11067 0.50819 0.0
C535 C 0.65834 0.12699 0.49272 0.0
C536 C 0.67844 0.07184 0.44305 0.0
C537 C 0.6409 0.11428 0.45275 0.0
C538 C 0.67098 0.02403 0.38692 0.0
C539 C 0.73682 0.01618 0.38611 0.0
N540 N 0.6513 0.08743 0.42912 0.0
N541 N 0.72314 0.04024 0.41205 0.0
H542 H 0.51387 0.1763 0.58624 0.0
H543 H 0.38385 0.20076 0.79701 0.0
H544 H 0.48834 0.26873 0.6453 0.0
H545 H 0.36993 0.12939 0.68357 0.0
H546 H 0.4308 0.21993 0.75254 0.0
H547 H 0.46866 0.15265 0.63207 0.0
C548 C 0.49881 0.19156 0.6087 0.0
C549 C 0.50472 0.22454 0.61172 0.0
C550 C 0.41761 0.19976 0.73786 0.0
C551 C 0.45398 0.1977 0.66474 0.0
C552 C 0.39081 0.18874 0.7632 0.0
C553 C 0.37294 0.16295 0.74476 0.0
C554 C 0.42697 0.18481 0.6938 0.0
C555 C 0.38331 0.14847 0.70056 0.0
C556 C 0.47311 0.1781 0.63467 0.0
C557 C 0.48452 0.24325 0.64145 0.0
N558 N 0.40971 0.15957 0.67661 0.0
N559 N 0.46029 0.22954 0.66708 0.0
H560 H 0.88079 0.60402 0.80667 0.0
H561 H 0.74585 0.53213 0.98461 0.0
H562 H 0.79515 0.65348 0.85195 0.0
H563 H 0.82412 0.47513 0.92937 0.0
H564 H 0.76893 0.57895 0.94541 0.0
H565 H 0.86513 0.55852 0.85884 0.0
C566 C 0.85897 0.60549 0.82803 0.0
C567 C 0.83928 0.63261 0.82514 0.0
C568 C 0.78129 0.55631 0.942 0.0
C569 C 0.8212 0.5808 0.88437 0.0
C570 C 0.76813 0.52951 0.96457 0.0
C571 C 0.78284 0.49955 0.95972 0.0
C572 C 0.80932 0.5533 0.91383 0.0
C573 C 0.81193 0.49777 0.93384 0.0
C574 C 0.84997 0.57947 0.85756 0.0
C575 C 0.81093 0.63297 0.85275 0.0
N576 N 0.82406 0.52425 0.91125 0.0
N577 N 0.80279 0.60754 0.8811 0.0
H578 H 0.98896 0.23076 0.1595 0.0
H579 H 0.87348 0.37639 0.11774 0.0
H580 H 0.0171 0.32436 0.21084 0.0
H581 H 0.88228 0.29862 0.01364 0.0
H582 H 0.92235 0.3581 0.15873 0.0
H583 H 0.94505 0.25472 0.1141 0.0
C584 C 0.98584 0.25644 0.16144 0.0
C585 C 0.00677 0.27559 0.18919 0.0
C586 C 0.9138 0.34551 0.12633 0.0
C587 C 0.95612 0.30322 0.13698 0.0
C588 C 0.88606 0.35612 0.10243 0.0
C589 C 0.87399 0.33945 0.06128 0.0
C590 C 0.92896 0.31759 0.10979 0.0
C591 C 0.89063 0.31228 0.04509 0.0
C592 C 0.96084 0.27011 0.13512 0.0
C593 C 0.00155 0.30877 0.18981 0.0
N594 N 0.91702 0.30207 0.0696 0.0
N595 N 0.97645 0.3216 0.16438 0.0
H596 H 0.17689 0.50862 0.47098 0.0
H597 H 0.19901 0.38033 0.25676 0.0
H598 H 0.26738 0.48798 0.40096 0.0
H599 H 0.13003 0.36502 0.37326 0.0
H600 H 0.2181 0.42757 0.30027 0.0
H601 H 0.15332 0.46257 0.42724 0.0
C602 C 0.19177 0.49443 0.44664 0.0
C603 C 0.22418 0.50209 0.43978 0.0
C604 C 0.19852 0.41401 0.31596 0.0
C605 C 0.19733 0.45029 0.38919 0.0
C606 C 0.18752 0.38702 0.29113 0.0
C607 C 0.16248 0.36864 0.31077 0.0
C608 C 0.18434 0.423 0.36081 0.0
C609 C 0.14861 0.37873 0.35556 0.0
C610 C 0.17834 0.46825 0.42183 0.0
C611 C 0.24237 0.48292 0.40774 0.0
N612 N 0.15972 0.40529 0.37911 0.0
N613 N 0.22864 0.45816 0.3834 0.0
H614 H 0.12549 0.61593 0.62032 0.0
H615 H 0.01773 0.76545 0.67553 0.0
H616 H 0.12101 0.69861 0.52501 0.0
H617 H 0.98113 0.67169 0.71131 0.0
H618 H 0.06186 0.74084 0.63179 0.0
H619 H 0.07709 0.63465 0.66264 0.0
C620 C 0.11399 0.63744 0.60723 0.0
C621 C 0.12726 0.65551 0.56844 0.0
C622 C 0.04421 0.72559 0.6492 0.0
C623 C 0.07292 0.6776 0.61831 0.0
C624 C 0.01905 0.7396 0.67464 0.0
C625 C 0.99549 0.72062 0.69715 0.0
C626 C 0.04643 0.69224 0.64658 0.0
C627 C 0.99869 0.6872 0.69434 0.0
C628 C 0.08654 0.64824 0.63185 0.0
C629 C 0.11183 0.68394 0.55478 0.0
N630 N 0.02388 0.67396 0.66959 0.0
N631 N 0.08579 0.69423 0.57996 0.0
loop_
_geom_bond_atom_site_label_1
_geom_bond_atom_site_label_2
_geom_bond_distance
_geom_bond_site_symmetry_2
_ccdc_geom_bond_type
Co0 O3 1.970 . S
Co0 N17 1.989 1_554 S
Co0 O25 1.967 . S
Co0 O32 1.920 . S
Co1 O4 1.966 . S
Co1 N10 2.022 . S
Co1 N18 1.993 1_554 S
Co1 O26 1.941 . S
C2 O3 1.258 . S
C2 O4 1.263 . S
O3 Co0 1.970 . S
O3 C2 1.258 . S
O4 Co1 1.966 . S
O4 C2 1.263 . S
C5 O6 1.235 . S
C5 O32 1.289 . S
O6 C5 1.235 . S
C7 C9 1.400 . S
C7 N10 1.351 . S
C7 C12 1.501 . S
C8 C9 1.387 . S
C8 N11 1.341 . S
C9 C7 1.400 . S
C9 C8 1.387 . S
N10 Co1 2.022 . S
N10 C7 1.351 . S
N10 N11 1.365 . S
N11 C8 1.341 . S
N11 N10 1.365 . S
N11 H31 0.862 . S
C12 C7 1.501 . S
C12 H13 0.961 . S
C12 H14 0.961 1_554 S
C12 H15 0.960 . S
H13 C12 0.961 . S
H14 C12 0.961 1_556 S
H15 C12 0.960 . S
C16 N17 1.342 . S
C16 C20 1.401 . S
C16 C21 1.499 . S
N17 Co0 1.989 1_556 S
N17 C16 1.342 . S
N17 N18 1.388 . S
N18 Co1 1.993 1_556 S
N18 N17 1.388 . S
N18 C19 1.346 . S
C19 N18 1.346 . S
C19 C20 1.396 . S
C19 C29 1.510 . S
C20 C16 1.401 . S
C20 C19 1.396 . S
C21 C16 1.499 . S
C21 H22 0.959 . S
C21 H23 0.960 . S
C21 H24 0.961 . S
H22 C21 0.959 . S
H23 C21 0.960 . S
H24 C21 0.961 . S
O25 Co0 1.967 . S
O25 C33 1.258 . S
O26 Co1 1.941 . S
O26 C33 1.266 . S
H27 C29 0.959 . S
H28 C29 0.961 . S
C29 C19 1.510 . S
C29 H27 0.959 . S
C29 H28 0.961 . S
C29 H30 0.960 . S
H30 C29 0.960 . S
H31 N11 0.862 . S
O32 Co0 1.920 . S
O32 C5 1.289 . S
C33 O25 1.258 . S
C33 O26 1.266 . S
Co34 O37 1.970 . S
Co34 N51 1.989 . S
Co34 O59 1.967 . S
Co34 O66 1.920 . S
Co35 O38 1.966 . S
Co35 N44 2.022 . S
Co35 N52 1.993 . S
Co35 O60 1.941 . S
C36 O37 1.258 . S
C36 O38 1.263 . S
O37 Co34 1.970 . S
O37 C36 1.258 . S
O38 Co35 1.966 . S
O38 C36 1.263 . S
C39 O40 1.248 . S
C39 O66 1.289 . S
O40 C39 1.248 . S
C41 C43 1.400 . S
C41 N44 1.351 . S
C41 C46 1.501 . S
C42 C43 1.387 . S
C42 N45 1.341 . S
C43 C41 1.400 . S
C43 C42 1.387 . S
N44 Co35 2.022 . S
N44 C41 1.351 . S
N44 N45 1.365 . S
N45 C42 1.341 . S
N45 N44 1.365 . S
N45 H65 0.862 . S
C46 C41 1.501 . S
C46 H47 0.961 . S
C46 H48 0.961 . S
C46 H49 0.960 . S
H47 C46 0.961 . S
H48 C46 0.961 . S
H49 C46 0.960 . S
C50 N51 1.342 . S
C50 C54 1.401 . S
C50 C55 1.499 . S
N51 Co34 1.989 . S
N51 C50 1.342 . S
N51 N52 1.388 . S
N52 Co35 1.993 . S
N52 N51 1.388 . S
N52 C53 1.346 . S
C53 N52 1.346 . S
C53 C54 1.396 . S
C53 C63 1.510 . S
C54 C50 1.401 . S
C54 C53 1.396 . S
C55 C50 1.499 . S
C55 H56 0.959 . S
C55 H57 0.960 . S
C55 H58 0.961 . S
H56 C55 0.959 . S
H57 C55 0.960 . S
H58 C55 0.961 . S
O59 Co34 1.967 . S
O59 C67 1.258 . S
O60 Co35 1.941 . S
O60 C67 1.266 . S
H61 C63 0.959 . S
H62 C63 0.961 . S
C63 C53 1.510 . S
C63 H61 0.959 . S
C63 H62 0.961 . S
C63 H64 0.960 . S
H64 C63 0.960 . S
H65 N45 0.862 . S
O66 Co34 1.920 . S
O66 C39 1.289 . S
C67 O59 1.258 . S
C67 O60 1.266 . S
Co68 O71 1.970 . S
Co68 N85 1.989 . S
Co68 O93 1.967 . S
Co68 O100 1.920 . S
Co69 O72 1.966 . S
Co69 N78 2.022 . S
Co69 N86 1.993 . S
Co69 O94 1.941 . S
C70 O71 1.258 . S
C70 O72 1.263 . S
O71 Co68 1.970 . S
O71 C70 1.258 . S
O72 Co69 1.966 . S
O72 C70 1.263 . S
C73 O74 1.235 . S
C73 O100 1.289 . S
O74 C73 1.235 . S
C75 C77 1.400 . S
C75 N78 1.351 . S
C75 C80 1.501 . S
C76 C77 1.387 . S
C76 N79 1.341 . S
C77 C75 1.400 . S
C77 C76 1.387 . S
N78 Co69 2.022 . S
N78 C75 1.351 . S
N78 N79 1.365 . S
N79 C76 1.341 . S
N79 N78 1.365 . S
N79 H99 0.862 . S
C80 C75 1.501 . S
C80 H81 0.961 . S
C80 H82 0.961 . S
C80 H83 0.960 . S
H81 C80 0.961 . S
H82 C80 0.961 . S
H83 C80 0.960 . S
C84 N85 1.342 . S
C84 C88 1.401 . S
C84 C89 1.499 . S
N85 Co68 1.989 . S
N85 C84 1.342 . S
N85 N86 1.388 . S
N86 Co69 1.993 . S
N86 N85 1.388 . S
N86 C87 1.346 . S
C87 N86 1.346 . S
C87 C88 1.396 . S
C87 C97 1.510 . S
C88 C84 1.401 . S
C88 C87 1.396 . S
C89 C84 1.499 . S
C89 H90 0.959 . S
C89 H91 0.960 . S
C89 H92 0.961 . S
H90 C89 0.959 . S
H91 C89 0.960 . S
H92 C89 0.961 . S
O93 Co68 1.967 . S
O93 C101 1.258 . S
O94 Co69 1.941 . S
O94 C101 1.266 . S
H95 C97 0.959 . S
H96 C97 0.961 . S
C97 C87 1.510 . S
C97 H95 0.959 . S
C97 H96 0.961 . S
C97 H98 0.960 . S
H98 C97 0.960 . S
H99 N79 0.862 . S
O100 Co68 1.920 . S
O100 C73 1.289 . S
C101 O93 1.258 . S
C101 O94 1.266 . S
Co102 O105 1.970 . S
Co102 N119 1.989 . S
Co102 O127 1.967 . S
Co102 O134 1.920 . S
Co103 O106 1.966 . S
Co103 N112 2.022 . S
Co103 N120 1.993 . S
Co103 O128 1.941 . S
C104 O105 1.258 . S
C104 O106 1.263 . S
O105 Co102 1.970 . S
O105 C104 1.258 . S
O106 Co103 1.966 . S
O106 C104 1.263 . S
C107 O108 1.248 . S
C107 O134 1.289 . S
O108 C107 1.248 . S
C109 C111 1.400 . S
C109 N112 1.351 . S
C109 C114 1.501 . S
C110 C111 1.387 . S
C110 N113 1.341 . S
C111 C109 1.400 . S
C111 C110 1.387 . S
N112 Co103 2.022 . S
N112 C109 1.351 . S
N112 N113 1.365 . S
N113 C110 1.341 . S
N113 N112 1.365 . S
N113 H133 0.862 . S
C114 C109 1.501 . S
C114 H115 0.961 . S
C114 H116 0.961 . S
C114 H117 0.960 . S
H115 C114 0.961 . S
H116 C114 0.961 . S
H117 C114 0.960 . S
C118 N119 1.342 . S
C118 C122 1.401 . S
C118 C123 1.499 . S
N119 Co102 1.989 . S
N119 C118 1.342 . S
N119 N120 1.388 . S
N120 Co103 1.993 . S
N120 N119 1.388 . S
N120 C121 1.346 . S
C121 N120 1.346 . S
C121 C122 1.396 . S
C121 C131 1.510 . S
C122 C118 1.401 . S
C122 C121 1.396 . S
C123 C118 1.499 . S
C123 H124 0.959 . S
C123 H125 0.960 . S
C123 H126 0.961 . S
H124 C123 0.959 . S
H125 C123 0.960 . S
H126 C123 0.961 . S
O127 Co102 1.967 . S
O127 C135 1.258 . S
O128 Co103 1.941 . S
O128 C135 1.266 . S
H129 C131 0.959 . S
H130 C131 0.961 . S
C131 C121 1.510 . S
C131 H129 0.959 . S
C131 H130 0.961 . S
C131 H132 0.960 . S
H132 C131 0.960 . S
H133 N113 0.862 . S
O134 Co102 1.920 . S
O134 C107 1.289 . S
C135 O127 1.258 . S
C135 O128 1.266 . S
Co136 O139 1.970 . S
Co136 N153 1.989 . S
Co136 O161 1.967 . S
Co136 O168 1.920 . S
Co137 O140 1.966 . S
Co137 N146 2.022 . S
Co137 N154 1.993 . S
Co137 O162 1.941 . S
C138 O139 1.258 . S
C138 O140 1.263 . S
O139 Co136 1.970 . S
O139 C138 1.258 . S
O140 Co137 1.966 . S
O140 C138 1.263 . S
C141 O142 1.248 . S
C141 O168 1.289 . S
O142 C141 1.248 . S
C143 C145 1.400 . S
C143 N146 1.351 . S
C143 C148 1.501 . S
C144 C145 1.387 . S
C144 N147 1.341 . S
C145 C143 1.400 . S
C145 C144 1.387 . S
N146 Co137 2.022 . S
N146 C143 1.351 . S
N146 N147 1.365 . S
N147 C144 1.341 . S
N147 N146 1.365 . S
N147 H167 0.862 . S
C148 C143 1.501 . S
C148 H149 0.961 . S
C148 H150 0.961 . S
C148 H151 0.960 . S
H149 C148 0.961 . S
H150 C148 0.961 . S
H151 C148 0.960 . S
C152 N153 1.342 . S
C152 C156 1.401 . S
C152 C157 1.499 . S
N153 Co136 1.989 . S
N153 C152 1.342 . S
N153 N154 1.388 . S
N154 Co137 1.993 . S
N154 N153 1.388 . S
N154 C155 1.346 . S
C155 N154 1.346 . S
C155 C156 1.396 . S
C155 C165 1.510 . S
C156 C152 1.401 . S
C156 C155 1.396 . S
C157 C152 1.499 . S
C157 H158 0.959 . S
C157 H159 0.960 . S
C157 H160 0.961 . S
H158 C157 0.959 . S
H159 C157 0.960 . S
H160 C157 0.961 . S
O161 Co136 1.967 . S
O161 C169 1.258 . S
O162 Co137 1.941 . S
O162 C169 1.266 . S
H163 C165 0.959 . S
H164 C165 0.961 . S
C165 C155 1.510 . S
C165 H163 0.959 . S
C165 H164 0.961 . S
C165 H166 0.960 . S
H166 C165 0.960 . S
H167 N147 0.862 . S
O168 Co136 1.920 . S
O168 C141 1.289 . S
C169 O161 1.258 . S
C169 O162 1.266 . S
Co170 O173 1.970 . S
Co170 N187 1.989 1_556 S
Co170 O195 1.967 . S
Co170 O202 1.920 . S
Co171 O174 1.966 . S
Co171 N180 2.022 1_556 S
Co171 N188 1.993 1_556 S
Co171 O196 1.941 . S
C172 O173 1.258 . S
C172 O174 1.263 . S
O173 Co170 1.970 . S
O173 C172 1.258 . S
O174 Co171 1.966 . S
O174 C172 1.263 . S
C175 O176 1.235 . S
C175 O202 1.289 1_554 S
O176 C175 1.235 . S
C177 C179 1.400 . S
C177 N180 1.351 . S
C177 C182 1.501 . S
C178 C179 1.387 . S
C178 N181 1.341 . S
C179 C177 1.400 . S
C179 C178 1.387 . S
N180 Co171 2.022 1_554 S
N180 C177 1.351 . S
N180 N181 1.365 . S
N181 C178 1.341 . S
N181 N180 1.365 . S
N181 H201 0.862 . S
C182 C177 1.501 . S
C182 H183 0.961 . S
C182 H184 0.961 . S
C182 H185 0.960 . S
H183 C182 0.961 . S
H184 C182 0.961 . S
H185 C182 0.960 . S
C186 N187 1.342 . S
C186 C190 1.401 . S
C186 C191 1.499 . S
N187 Co170 1.989 1_554 S
N187 C186 1.342 . S
N187 N188 1.388 . S
N188 Co171 1.993 1_554 S
N188 N187 1.388 . S
N188 C189 1.346 . S
C189 N188 1.346 . S
C189 C190 1.396 . S
C189 C199 1.510 . S
C190 C186 1.401 . S
C190 C189 1.396 . S
C191 C186 1.499 . S
C191 H192 0.959 . S
C191 H193 0.960 . S
C191 H194 0.961 . S
H192 C191 0.959 . S
H193 C191 0.960 . S
H194 C191 0.961 . S
O195 Co170 1.967 . S
O195 C203 1.258 . S
O196 Co171 1.941 . S
O196 C203 1.266 . S
H197 C199 0.959 . S
H198 C199 0.961 . S
C199 C189 1.510 . S
C199 H197 0.959 . S
C199 H198 0.961 . S
C199 H200 0.960 . S
H200 C199 0.960 . S
H201 N181 0.862 . S
O202 Co170 1.920 . S
O202 C175 1.289 1_556 S
C203 O195 1.258 . S
C203 O196 1.266 . S
Co204 O207 1.970 . S
Co204 N221 1.989 . S
Co204 O229 1.967 . S
Co204 O236 1.920 . S
Co205 O208 1.966 . S
Co205 N214 2.022 . S
Co205 N222 1.993 . S
Co205 O230 1.941 . S
C206 O207 1.258 . S
C206 O208 1.263 . S
O207 Co204 1.970 . S
O207 C206 1.258 . S
O208 Co205 1.966 . S
O208 C206 1.263 . S
C209 O210 1.248 . S
C209 O236 1.289 . S
O210 C209 1.248 . S
C211 C213 1.400 . S
C211 N214 1.351 . S
C211 C216 1.501 . S
C212 C213 1.387 . S
C212 N215 1.341 . S
C213 C211 1.400 . S
C213 C212 1.387 . S
N214 Co205 2.022 . S
N214 C211 1.351 . S
N214 N215 1.365 . S
N215 C212 1.341 . S
N215 N214 1.365 . S
N215 H235 0.862 . S
C216 C211 1.501 . S
C216 H217 0.961 . S
C216 H218 0.961 . S
C216 H219 0.960 . S
H217 C216 0.961 . S
H218 C216 0.961 . S
H219 C216 0.960 . S
C220 N221 1.342 . S
C220 C224 1.401 . S
C220 C225 1.499 . S
N221 Co204 1.989 . S
N221 C220 1.342 . S
N221 N222 1.388 . S
N222 Co205 1.993 . S
N222 N221 1.388 . S
N222 C223 1.346 . S
C223 N222 1.346 . S
C223 C224 1.396 . S
C223 C233 1.510 . S
C224 C220 1.401 . S
C224 C223 1.396 . S
C225 C220 1.499 . S
C225 H226 0.959 . S
C225 H227 0.960 . S
C225 H228 0.961 . S
H226 C225 0.959 . S
H227 C225 0.960 . S
H228 C225 0.961 . S
O229 Co204 1.967 . S
O229 C237 1.258 . S
O230 Co205 1.941 . S
O230 C237 1.266 . S
H231 C233 0.959 . S
H232 C233 0.961 . S
C233 C223 1.510 . S
C233 H231 0.959 . S
C233 H232 0.961 . S
C233 H234 0.960 . S
H234 C233 0.960 . S
H235 N215 0.862 . S
O236 Co204 1.920 . S
O236 C209 1.289 . S
C237 O229 1.258 . S
C237 O230 1.266 . S
Co238 O241 1.970 . S
Co238 N255 1.989 . S
Co238 O263 1.967 . S
Co238 O270 1.920 . S
Co239 O242 1.966 . S
Co239 N248 2.022 . S
Co239 N256 1.993 . S
Co239 O264 1.941 . S
C240 O241 1.258 . S
C240 O242 1.263 . S
O241 Co238 1.970 . S
O241 C240 1.258 . S
O242 Co239 1.966 . S
O242 C240 1.263 . S
C243 O244 1.235 . S
C243 O270 1.289 . S
O244 C243 1.235 . S
C245 C247 1.400 . S
C245 N248 1.351 . S
C245 C250 1.501 . S
C246 C247 1.387 . S
C246 N249 1.341 . S
C247 C245 1.400 . S
C247 C246 1.387 . S
N248 Co239 2.022 . S
N248 C245 1.351 . S
N248 N249 1.365 . S
N249 C246 1.341 . S
N249 N248 1.365 . S
N249 H269 0.862 . S
C250 C245 1.501 . S
C250 H251 0.961 . S
C250 H252 0.961 . S
C250 H253 0.960 . S
H251 C250 0.961 . S
H252 C250 0.961 . S
H253 C250 0.960 . S
C254 N255 1.342 . S
C254 C258 1.401 . S
C254 C259 1.499 . S
N255 Co238 1.989 . S
N255 C254 1.342 . S
N255 N256 1.388 . S
N256 Co239 1.993 . S
N256 N255 1.388 . S
N256 C257 1.346 . S
C257 N256 1.346 . S
C257 C258 1.396 . S
C257 C267 1.510 . S
C258 C254 1.401 . S
C258 C257 1.396 . S
C259 C254 1.499 . S
C259 H260 0.959 . S
C259 H261 0.960 . S
C259 H262 0.961 . S
H260 C259 0.959 . S
H261 C259 0.960 . S
H262 C259 0.961 . S
O263 Co238 1.967 . S
O263 C271 1.258 . S
O264 Co239 1.941 . S
O264 C271 1.266 . S
H265 C267 0.959 . S
H266 C267 0.961 . S
C267 C257 1.510 . S
C267 H265 0.959 . S
C267 H266 0.961 . S
C267 H268 0.960 . S
H268 C267 0.960 . S
H269 N249 0.862 . S
O270 Co238 1.920 . S
O270 C243 1.289 . S
C271 O263 1.258 . S
C271 O264 1.266 . S
H272 C278 0.930 . S
H273 C282 0.930 . S
H274 C287 0.929 . S
H275 C285 0.929 . S
H276 C280 0.929 1_556 S
H277 C286 0.929 . S
C278 H272 0.930 . S
C278 C279 1.367 . S
C278 C286 1.378 . S
C279 C278 1.367 . S
C279 C287 1.433 1_554 S
C280 H276 0.929 1_554 S
C280 C282 1.378 . S
C280 C284 1.350 . S
C281 C284 1.463 . S
C281 C286 1.350 . S
C281 N289 1.423 1_554 S
C282 H273 0.930 . S
C282 C280 1.378 . S
C282 C283 1.367 . S
C283 C282 1.367 . S
C283 C285 1.433 . S
C284 C280 1.350 . S
C284 C281 1.463 . S
C284 N288 1.427 . S
C285 H275 0.929 . S
C285 C283 1.433 . S
C285 N288 1.384 . S
C286 H277 0.929 . S
C286 C278 1.378 . S
C286 C281 1.350 . S
C287 H274 0.929 . S
C287 C279 1.433 1_556 S
C287 N289 1.385 . S
N288 C284 1.427 . S
N288 C285 1.384 . S
N289 C281 1.423 1_556 S
N289 C287 1.385 . S
H290 C296 0.930 . S
H291 C300 0.930 . S
H292 C305 0.929 . S
H293 C303 0.951 . S
H294 C298 0.929 . S
H295 C304 0.929 . S
C296 H290 0.930 . S
C296 C297 1.367 1_455 S
C296 C304 1.378 1_455 S
C297 C296 1.367 1_655 S
C297 C305 1.433 . S
C298 H294 0.929 . S
C298 C300 1.378 . S
C298 C302 1.350 . S
C299 C302 1.463 . S
C299 C304 1.350 . S
C299 N307 1.427 . S
C300 H291 0.930 . S
C300 C298 1.378 . S
C300 C301 1.367 . S
C301 C300 1.367 . S
C301 C303 1.428 1_545 S
C302 C298 1.350 . S
C302 C299 1.463 . S
C302 N306 1.427 . S
C303 H293 0.951 . S
C303 C301 1.428 1_565 S
C303 N306 1.367 1_565 S
C304 H295 0.929 . S
C304 C296 1.378 1_655 S
C304 C299 1.350 . S
C305 H292 0.929 . S
C305 C297 1.433 . S
C305 N307 1.384 . S
N306 C302 1.427 . S
N306 C303 1.367 1_545 S
N307 C299 1.427 . S
N307 C305 1.384 . S
H308 C314 0.930 . S
H309 C318 0.930 . S
H310 C323 0.929 . S
H311 C321 0.929 . S
H312 C316 0.929 . S
H313 C322 0.929 . S
C314 H308 0.930 . S
C314 C315 1.367 . S
C314 C322 1.378 . S
C315 C314 1.367 . S
C315 C323 1.433 . S
C316 H312 0.929 . S
C316 C318 1.378 . S
C316 C320 1.350 . S
C317 C320 1.463 . S
C317 C322 1.350 . S
C317 N325 1.427 . S
C318 H309 0.930 . S
C318 C316 1.378 . S
C318 C319 1.367 . S
C319 C318 1.367 . S
C319 C321 1.433 . S
C320 C316 1.350 . S
C320 C317 1.463 . S
C320 N324 1.427 . S
C321 H311 0.929 . S
C321 C319 1.433 . S
C321 N324 1.384 . S
C322 H313 0.929 . S
C322 C314 1.378 . S
C322 C317 1.350 . S
C323 H310 0.929 . S
C323 C315 1.433 . S
C323 N325 1.384 . S
N324 C320 1.427 . S
N324 C321 1.384 . S
N325 C317 1.427 . S
N325 C323 1.384 . S
H326 C332 0.930 . S
H327 C336 0.930 . S
H328 C341 0.929 . S
H329 C339 0.929 1_545 S
H330 C334 0.929 . S
H331 C340 0.929 . S
C332 H326 0.930 . S
C332 C333 1.367 . S
C332 C340 1.378 . S
C333 C332 1.367 . S
C333 C341 1.433 . S
C334 H330 0.929 . S
C334 C336 1.378 . S
C334 C338 1.350 . S
C335 C338 1.463 . S
C335 C340 1.350 . S
C335 N343 1.427 . S
C336 H327 0.930 . S
C336 C334 1.378 . S
C336 C337 1.367 . S
C337 C336 1.367 . S
C337 C339 1.433 . S
C338 C334 1.350 . S
C338 C335 1.463 . S
C338 N342 1.427 . S
C339 H329 0.929 1_565 S
C339 C337 1.433 . S
C339 N342 1.384 . S
C340 H331 0.929 . S
C340 C332 1.378 . S
C340 C335 1.350 . S
C341 H328 0.929 . S
C341 C333 1.433 . S
C341 N343 1.384 . S
N342 C338 1.427 . S
N342 C339 1.384 . S
N343 C335 1.427 . S
N343 C341 1.384 . S
H344 C350 0.930 . S
H345 C354 0.930 . S
H346 C359 0.929 . S
H347 C357 0.929 . S
H348 C352 0.929 . S
H349 C358 0.929 . S
C350 H344 0.930 . S
C350 C351 1.367 . S
C350 C358 1.378 . S
C351 C350 1.367 . S
C351 C359 1.433 . S
C352 H348 0.929 . S
C352 C354 1.378 . S
C352 C356 1.350 . S
C353 C356 1.463 . S
C353 C358 1.350 . S
C353 N361 1.427 . S
C354 H345 0.930 . S
C354 C352 1.378 . S
C354 C355 1.367 . S
C355 C354 1.367 . S
C355 C357 1.433 . S
C356 C352 1.350 . S
C356 C353 1.463 . S
C356 N360 1.427 . S
C357 H347 0.929 . S
C357 C355 1.433 . S
C357 N360 1.384 . S
C358 H349 0.929 . S
C358 C350 1.378 . S
C358 C353 1.350 . S
C359 H346 0.929 . S
C359 C351 1.433 . S
C359 N361 1.384 . S
N360 C356 1.427 . S
N360 C357 1.384 . S
N361 C353 1.427 . S
N361 C359 1.384 . S
H362 C368 0.930 . S
H363 C372 0.930 . S
H364 C377 0.929 . S
H365 C375 0.929 . S
H366 C370 0.929 . S
H367 C376 0.929 . S
C368 H362 0.930 . S
C368 C369 1.367 . S
C368 C376 1.378 . S
C369 C368 1.367 . S
C369 C377 1.433 . S
C370 H366 0.929 . S
C370 C372 1.378 . S
C370 C374 1.350 . S
C371 C374 1.463 . S
C371 C376 1.350 . S
C371 N379 1.427 . S
C372 H363 0.930 . S
C372 C370 1.378 . S
C372 C373 1.367 . S
C373 C372 1.367 . S
C373 C375 1.433 . S
C374 C370 1.350 . S
C374 C371 1.463 . S
C374 N378 1.427 . S
C375 H365 0.929 . S
C375 C373 1.433 . S
C375 N378 1.384 . S
C376 H367 0.929 . S
C376 C368 1.378 . S
C376 C371 1.350 . S
C377 H364 0.929 . S
C377 C369 1.433 . S
C377 N379 1.384 . S
N378 C374 1.427 . S
N378 C375 1.384 . S
N379 C371 1.427 . S
N379 C377 1.384 . S
H380 C386 0.930 . S
H381 C390 0.930 . S
H382 C395 0.929 . S
H383 C393 0.929 . S
H384 C388 0.929 . S
H385 C394 0.929 . S
C386 H380 0.930 . S
C386 C387 1.367 . S
C386 C394 1.378 . S
C387 C386 1.367 . S
C387 C395 1.433 . S
C388 H384 0.929 . S
C388 C390 1.378 . S
C388 C392 1.350 . S
C389 C392 1.463 . S
C389 C394 1.350 . S
C389 N397 1.427 . S
C390 H381 0.930 . S
C390 C388 1.378 . S
C390 C391 1.367 . S
C391 C390 1.367 . S
C391 C393 1.433 . S
C392 C388 1.350 . S
C392 C389 1.463 . S
C392 N396 1.427 . S
C393 H383 0.929 . S
C393 C391 1.433 . S
C393 N396 1.384 . S
C394 H385 0.929 . S
C394 C386 1.378 . S
C394 C389 1.350 . S
C395 H382 0.929 . S
C395 C387 1.433 . S
C395 N397 1.384 . S
N396 C392 1.427 . S
N396 C393 1.384 . S
N397 C389 1.427 . S
N397 C395 1.384 . S
H398 C404 0.930 . S
H399 C408 0.930 . S
H400 C413 0.929 . S
H401 C411 0.929 . S
H402 C406 0.929 . S
H403 C412 0.929 1_554 S
C404 H398 0.930 . S
C404 C405 1.367 . S
C404 C412 1.378 . S
C405 C404 1.367 . S
C405 C413 1.433 . S
C406 H402 0.929 . S
C406 C408 1.378 . S
C406 C410 1.350 . S
C407 C410 1.463 . S
C407 C412 1.350 1_554 S
C407 N415 1.427 1_554 S
C408 H399 0.930 . S
C408 C406 1.378 . S
C408 C409 1.367 . S
C409 C408 1.367 . S
C409 C411 1.433 . S
C410 C406 1.350 . S
C410 C407 1.463 . S
C410 N414 1.427 . S
C411 H401 0.929 . S
C411 C409 1.433 . S
C411 N414 1.384 . S
C412 H403 0.929 1_556 S
C412 C404 1.378 . S
C412 C407 1.350 1_556 S
C413 H400 0.929 . S
C413 C405 1.433 . S
C413 N415 1.384 . S
N414 C410 1.427 . S
N414 C411 1.384 . S
N415 C407 1.427 1_556 S
N415 C413 1.384 . S
H416 C422 0.930 . S
H417 C426 0.930 . S
H418 C431 0.929 . S
H419 C429 0.929 . S
H420 C424 0.929 . S
H421 C430 0.929 . S
C422 H416 0.930 . S
C422 C423 1.367 . S
C422 C430 1.378 . S
C423 C422 1.367 . S
C423 C431 1.433 . S
C424 H420 0.929 . S
C424 C426 1.378 . S
C424 C428 1.350 . S
C425 C428 1.463 . S
C425 C430 1.350 . S
C425 N433 1.427 . S
C426 H417 0.930 . S
C426 C424 1.378 . S
C426 C427 1.367 . S
C427 C426 1.367 . S
C427 C429 1.433 . S
C428 C424 1.350 . S
C428 C425 1.463 . S
C428 N432 1.427 . S
C429 H419 0.929 . S
C429 C427 1.433 . S
C429 N432 1.384 . S
C430 H421 0.929 . S
C430 C422 1.378 . S
C430 C425 1.350 . S
C431 H418 0.929 . S
C431 C423 1.433 . S
C431 N433 1.384 . S
N432 C428 1.427 . S
N432 C429 1.384 . S
N433 C425 1.427 . S
N433 C431 1.384 . S
H434 C440 0.930 . S
H435 C444 0.930 . S
H436 C449 0.929 . S
H437 C447 0.929 . S
H438 C442 0.929 1_554 S
H439 C448 0.929 . S
C440 H434 0.930 . S
C440 C441 1.367 . S
C440 C448 1.378 . S
C441 C440 1.367 . S
C441 C449 1.433 . S
C442 H438 0.929 1_556 S
C442 C444 1.378 . S
C442 C446 1.350 1_556 S
C443 C446 1.463 . S
C443 C448 1.350 . S
C443 N451 1.427 . S
C444 H435 0.930 . S
C444 C442 1.378 . S
C444 C445 1.367 . S
C445 C444 1.367 . S
C445 C447 1.433 . S
C446 C442 1.350 1_554 S
C446 C443 1.463 . S
C446 N450 1.427 1_554 S
C447 H437 0.929 . S
C447 C445 1.433 . S
C447 N450 1.384 . S
C448 H439 0.929 . S
C448 C440 1.378 . S
C448 C443 1.350 . S
C449 H436 0.929 . S
C449 C441 1.433 . S
C449 N451 1.384 . S
N450 C446 1.427 1_556 S
N450 C447 1.384 . S
N451 C443 1.427 . S
N451 C449 1.384 . S
H452 C458 0.930 . S
H453 C462 0.930 . S
H454 C467 0.929 . S
H455 C465 0.929 . S
H456 C460 0.929 . S
H457 C466 0.929 . S
C458 H452 0.930 . S
C458 C459 1.367 . S
C458 C466 1.378 . S
C459 C458 1.367 . S
C459 C467 1.433 . S
C460 H456 0.929 . S
C460 C462 1.378 . S
C460 C464 1.350 . S
C461 C464 1.463 . S
C461 C466 1.350 . S
C461 N469 1.427 . S
C462 H453 0.930 . S
C462 C460 1.378 . S
C462 C463 1.367 . S
C463 C462 1.367 . S
C463 C465 1.433 . S
C464 C460 1.350 . S
C464 C461 1.463 . S
C464 N468 1.427 . S
C465 H455 0.929 . S
C465 C463 1.433 . S
C465 N468 1.384 . S
C466 H457 0.929 . S
C466 C458 1.378 . S
C466 C461 1.350 . S
C467 H454 0.929 . S
C467 C459 1.433 . S
C467 N469 1.384 . S
N468 C464 1.427 . S
N468 C465 1.384 . S
N469 C461 1.427 . S
N469 C467 1.384 . S
H470 C476 0.930 . S
H471 C480 0.930 . S
H472 C485 0.929 . S
H473 C483 0.929 . S
H474 C478 0.929 . S
H475 C484 0.929 . S
C476 H470 0.930 . S
C476 C477 1.367 . S
C476 C484 1.378 . S
C477 C476 1.367 . S
C477 C485 1.433 . S
C478 H474 0.929 . S
C478 C480 1.378 . S
C478 C482 1.350 . S
C479 C482 1.463 . S
C479 C484 1.350 . S
C479 N487 1.427 . S
C480 H471 0.930 . S
C480 C478 1.378 . S
C480 C481 1.367 . S
C481 C480 1.367 . S
C481 C483 1.433 . S
C482 C478 1.350 . S
C482 C479 1.463 . S
C482 N486 1.427 . S
C483 H473 0.929 . S
C483 C481 1.433 . S
C483 N486 1.384 . S
C484 H475 0.929 . S
C484 C476 1.378 . S
C484 C479 1.350 . S
C485 H472 0.929 . S
C485 C477 1.433 . S
C485 N487 1.384 . S
N486 C482 1.427 . S
N486 C483 1.384 . S
N487 C479 1.427 . S
N487 C485 1.384 . S
H488 C494 0.930 . S
H489 C498 0.930 . S
H490 C503 0.929 . S
H491 C501 0.929 . S
H492 C496 0.929 . S
H493 C502 0.929 . S
C494 H488 0.930 . S
C494 C495 1.367 . S
C494 C502 1.378 . S
C495 C494 1.367 . S
C495 C503 1.433 1_556 S
C496 H492 0.929 . S
C496 C498 1.378 1_565 S
C496 C500 1.350 . S
C497 C500 1.463 . S
C497 C502 1.350 . S
C497 N505 1.427 . S
C498 H489 0.930 . S
C498 C496 1.378 1_545 S
C498 C499 1.367 . S
C499 C498 1.367 . S
C499 C501 1.433 1_545 S
C500 C496 1.350 . S
C500 C497 1.463 . S
C500 N504 1.427 . S
C501 H491 0.929 . S
C501 C499 1.433 1_565 S
C501 N504 1.384 . S
C502 H493 0.929 . S
C502 C494 1.378 . S
C502 C497 1.350 . S
C503 H490 0.929 . S
C503 C495 1.433 1_554 S
C503 N505 1.384 1_554 S
N504 C500 1.427 . S
N504 C501 1.384 . S
N505 C497 1.427 . S
N505 C503 1.384 1_556 S
H506 C512 0.930 . S
H507 C516 0.930 . S
H508 C521 0.929 . S
H509 C519 0.929 . S
H510 C514 0.929 . S
H511 C520 0.929 . S
C512 H506 0.930 . S
C512 C513 1.367 . S
C512 C520 1.378 . S
C513 C512 1.367 . S
C513 C521 1.433 . S
C514 H510 0.929 . S
C514 C516 1.378 . S
C514 C518 1.350 . S
C515 C518 1.463 . S
C515 C520 1.350 . S
C515 N523 1.427 . S
C516 H507 0.930 . S
C516 C514 1.378 . S
C516 C517 1.367 . S
C517 C516 1.367 . S
C517 C519 1.433 . S
C518 C514 1.350 . S
C518 C515 1.463 . S
C518 N522 1.427 . S
C519 H509 0.929 . S
C519 C517 1.433 . S
C519 N522 1.384 . S
C520 H511 0.929 . S
C520 C512 1.378 . S
C520 C515 1.350 . S
C521 H508 0.929 . S
C521 C513 1.433 . S
C521 N523 1.384 . S
N522 C518 1.427 . S
N522 C519 1.384 . S
N523 C515 1.427 . S
N523 C521 1.384 . S
H524 C530 0.930 . S
H525 C534 0.930 . S
H526 C539 0.929 . S
H527 C537 0.929 . S
H528 C532 0.929 . S
H529 C538 0.929 . S
C530 H524 0.930 . S
C530 C531 1.367 1_545 S
C530 C538 1.378 . S
C531 C530 1.367 1_565 S
C531 C539 1.433 . S
C532 H528 0.929 . S
C532 C534 1.378 . S
C532 C536 1.350 . S
C533 C536 1.463 . S
C533 C538 1.350 . S
C533 N541 1.427 . S
C534 H525 0.930 . S
C534 C532 1.378 . S
C534 C535 1.367 . S
C535 C534 1.367 . S
C535 C537 1.433 . S
C536 C532 1.350 . S
C536 C533 1.463 . S
C536 N540 1.427 . S
C537 H527 0.929 . S
C537 C535 1.433 . S
C537 N540 1.384 . S
C538 H529 0.929 . S
C538 C530 1.378 . S
C538 C533 1.350 . S
C539 H526 0.929 . S
C539 C531 1.433 . S
C539 N541 1.384 1_565 S
N540 C536 1.427 . S
N540 C537 1.384 . S
N541 C533 1.427 . S
N541 C539 1.384 1_545 S
H542 C548 0.930 . S
H543 C552 0.930 . S
H544 C557 0.929 . S
H545 C555 0.929 . S
H546 C550 0.929 . S
H547 C556 0.929 . S
C548 H542 0.930 . S
C548 C549 1.367 . S
C548 C556 1.378 . S
C549 C548 1.367 . S
C549 C557 1.433 . S
C550 H546 0.929 . S
C550 C552 1.378 . S
C550 C554 1.350 . S
C551 C554 1.463 . S
C551 C556 1.350 . S
C551 N559 1.427 . S
C552 H543 0.930 . S
C552 C550 1.378 . S
C552 C553 1.367 . S
C553 C552 1.367 . S
C553 C555 1.433 . S
C554 C550 1.350 . S
C554 C551 1.463 . S
C554 N558 1.427 . S
C555 H545 0.929 . S
C555 C553 1.433 . S
C555 N558 1.384 . S
C556 H547 0.929 . S
C556 C548 1.378 . S
C556 C551 1.350 . S
C557 H544 0.929 . S
C557 C549 1.433 . S
C557 N559 1.384 . S
N558 C554 1.427 . S
N558 C555 1.384 . S
N559 C551 1.427 . S
N559 C557 1.384 . S
H560 C566 0.930 . S
H561 C570 0.933 . S
H562 C575 0.929 . S
H563 C573 0.929 . S
H564 C568 0.929 . S
H565 C574 0.929 . S
C566 H560 0.930 . S
C566 C567 1.367 . S
C566 C574 1.378 . S
C567 C566 1.367 . S
C567 C575 1.433 . S
C568 H564 0.929 . S
C568 C570 1.378 . S
C568 C572 1.350 . S
C569 C572 1.463 . S
C569 C574 1.350 . S
C569 N577 1.427 . S
C570 H561 0.933 . S
C570 C568 1.378 . S
C570 C571 1.367 . S
C571 C570 1.367 . S
C571 C573 1.433 . S
C572 C568 1.350 . S
C572 C569 1.463 . S
C572 N576 1.427 . S
C573 H563 0.929 . S
C573 C571 1.433 . S
C573 N576 1.384 . S
C574 H565 0.929 . S
C574 C566 1.378 . S
C574 C569 1.350 . S
C575 H562 0.929 . S
C575 C567 1.433 . S
C575 N577 1.384 . S
N576 C572 1.427 . S
N576 C573 1.384 . S
N577 C569 1.427 . S
N577 C575 1.384 . S
H578 C584 0.930 . S
H579 C588 0.930 . S
H580 C593 0.926 1_455 S
H581 C591 0.929 . S
H582 C586 0.929 . S
H583 C592 0.929 . S
C584 H578 0.930 . S
C584 C585 1.367 1_655 S
C584 C592 1.378 . S
C585 C584 1.367 1_455 S
C585 C593 1.433 1_455 S
C586 H582 0.929 . S
C586 C588 1.378 . S
C586 C590 1.350 . S
C587 C590 1.463 . S
C587 C592 1.350 . S
C587 N595 1.427 . S
C588 H579 0.930 . S
C588 C586 1.378 . S
C588 C589 1.367 . S
C589 C588 1.367 . S
C589 C591 1.433 . S
C590 C586 1.350 . S
C590 C587 1.463 . S
C590 N594 1.427 . S
C591 H581 0.929 . S
C591 C589 1.433 . S
C591 N594 1.384 . S
C592 H583 0.929 . S
C592 C584 1.378 . S
C592 C587 1.350 . S
C593 H580 0.926 1_655 S
C593 C585 1.433 1_655 S
C593 N595 1.387 . S
N594 C590 1.427 . S
N594 C591 1.384 . S
N595 C587 1.427 . S
N595 C593 1.387 . S
H596 C602 0.930 . S
H597 C606 0.930 . S
H598 C611 0.929 . S
H599 C609 0.929 . S
H600 C604 0.929 . S
H601 C610 0.929 . S
C602 H596 0.930 . S
C602 C603 1.367 . S
C602 C610 1.378 . S
C603 C602 1.367 . S
C603 C611 1.433 . S
C604 H600 0.929 . S
C604 C606 1.378 . S
C604 C608 1.350 . S
C605 C608 1.463 . S
C605 C610 1.350 . S
C605 N613 1.427 . S
C606 H597 0.930 . S
C606 C604 1.378 . S
C606 C607 1.367 . S
C607 C606 1.367 . S
C607 C609 1.433 . S
C608 C604 1.350 . S
C608 C605 1.463 . S
C608 N612 1.427 . S
C609 H599 0.929 . S
C609 C607 1.433 . S
C609 N612 1.384 . S
C610 H601 0.929 . S
C610 C602 1.378 . S
C610 C605 1.350 . S
C611 H598 0.929 . S
C611 C603 1.433 . S
C611 N613 1.384 . S
N612 C608 1.427 . S
N612 C609 1.384 . S
N613 C605 1.427 . S
N613 C611 1.384 . S
H614 C620 0.930 . S
H615 C624 0.923 1_655 S
H616 C629 0.929 . S
H617 C627 0.929 . S
H618 C622 0.929 . S
H619 C628 0.929 . S
C620 H614 0.930 . S
C620 C621 1.367 . S
C620 C628 1.378 . S
C621 C620 1.367 . S
C621 C629 1.433 . S
C622 H618 0.929 . S
C622 C624 1.387 . S
C622 C626 1.350 . S
C623 C626 1.463 . S
C623 C628 1.350 . S
C623 N631 1.427 . S
C624 H615 0.923 1_455 S
C624 C622 1.387 . S
C624 C625 1.364 1_455 S
C625 C624 1.364 1_655 S
C625 C627 1.433 1_655 S
C626 C622 1.350 . S
C626 C623 1.463 . S
C626 N630 1.427 . S
C627 H617 0.929 . S
C627 C625 1.433 1_455 S
C627 N630 1.384 . S
C628 H619 0.929 . S
C628 C620 1.378 . S
C628 C623 1.350 . S
C629 H616 0.929 . S
C629 C621 1.433 . S
C629 N631 1.384 . S
N630 C626 1.427 . S
N630 C627 1.384 . S
N631 C623 1.427 . S
N631 C629 1.384 . S
C279 C175 1.379 . S
C283 C5 1.388 . S
C297 C209 1.389 1_655 S
C301 C39 1.380 1_545 S
C315 C73 1.379 . S
C319 C243 1.383 . S
C333 C141 1.391 1_455 S
C337 C107 1.388 1_565 S
C351 C271 1.450 . S
C355 C33 1.450 . S
C369 C67 1.450 . S
C373 C169 1.450 . S
C387 C203 1.450 . S
C391 C101 1.450 . S
C405 C135 1.451 . S
C409 C237 1.452 . S
C423 C258 1.398 . S
C427 C20 1.400 . S
C441 C54 1.398 . S
C445 C156 1.400 . S
C459 C190 1.399 . S
C463 C88 1.401 . S
C477 C224 1.399 . S
C481 C122 1.399 . S
C495 C9 1.638 1_556 S
C499 C104 1.656 . S
C513 C2 1.659 . S
C517 C43 1.634 . S
C531 C36 1.657 . S
C535 C77 1.637 . S
C549 C70 1.659 . S
C553 C111 1.634 . S
C567 C145 1.640 . S
C571 C172 1.655 . S
C585 C206 1.653 . S
C589 C179 1.643 . S
C603 C240 1.658 . S
C607 C213 1.636 . S
C621 C247 1.641 . S
C625 C138 1.654 . S
