# Generated by pormake.
# Topology wli, (5)-cn, num edge types: 1
# Building blocks:
#     Node 0, Type 0, BuildingBlock: BEQFEK_clean_sbu_0, # of connection points: 5
#     Node 1, Type 0, BuildingBlock: BEQFEK_clean_sbu_0, # of connection points: 5
#     Node 2, Type 0, BuildingBlock: BEQFEK_clean_sbu_0, # of connection points: 5
#     Node 3, Type 0, BuildingBlock: BEQFEK_clean_sbu_0, # of connection points: 5
#     Node 4, Type 0, BuildingBlock: BEQFEK_clean_sbu_0, # of connection points: 5
#     Node 5, Type 0, BuildingBlock: BEQFEK_clean_sbu_0, # of connection points: 5
#     Edge 6, Type (0, 0), BuildingBlock: ZUJKAS_clean_linker_0, # of connection points: 2
#     Edge 7, Type (0, 0), BuildingBlock: ZUJKAS_clean_linker_0, # of connection points: 2
#     Edge 8, Type (0, 0), BuildingBlock: ZUJKAS_clean_linker_0, # of connection points: 2
#     Edge 9, Type (0, 0), BuildingBlock: ZUJKAS_clean_linker_0, # of connection points: 2
#     Edge 10, Type (0, 0), BuildingBlock: ZUJKAS_clean_linker_0, # of connection points: 2
#     Edge 11, Type (0, 0), BuildingBlock: ZUJKAS_clean_linker_0, # of connection points: 2
#     Edge 12, Type (0, 0), BuildingBlock: ZUJKAS_clean_linker_0, # of connection points: 2
#     Edge 13, Type (0, 0), BuildingBlock: ZUJKAS_clean_linker_0, # of connection points: 2
#     Edge 14, Type (0, 0), BuildingBlock: ZUJKAS_clean_linker_0, # of connection points: 2
#     Edge 15, Type (0, 0), BuildingBlock: ZUJKAS_clean_linker_0, # of connection points: 2
#     Edge 16, Type (0, 0), BuildingBlock: ZUJKAS_clean_linker_0, # of connection points: 2
#     Edge 17, Type (0, 0), BuildingBlock: ZUJKAS_clean_linker_0, # of connection points: 2
#     Edge 18, Type (0, 0), BuildingBlock: ZUJKAS_clean_linker_0, # of connection points: 2
#     Edge 19, Type (0, 0), BuildingBlock: ZUJKAS_clean_linker_0, # of connection points: 2
#     Edge 20, Type (0, 0), BuildingBlock: ZUJKAS_clean_linker_0, # of connection points: 2
# Relax obj value: 0.162
# Max RMSD: 0.125
# Mean RMSD: 0.125
data_MOF--net-wli--node1-BEQFEK_clean_sbu_0--edge1-ZUJKAS_clean_linker_0
_symmetry_space_group_name_H-M    P1
_symmetry_Int_Tables_number       1
_symmetry_cell_setting            triclinic
loop_
_symmetry_equiv_pos_as_xyz
'x, y, z'
_cell_length_a     46.387684
_cell_length_b     46.391136
_cell_length_c     35.248879
_cell_angle_alpha  90.002884
_cell_angle_beta   90.009441
_cell_angle_gamma 119.99058
loop_
_atom_site_label
_atom_site_type_symbol
_atom_site_fract_x
_atom_site_fract_y
_atom_site_fract_z
_atom_type_partial_charge
Co0 Co 0.19045 0.42791 0.00997 0.0
Co1 Co 0.13328 0.37425 0.06103 0.0
C2 C 0.18774 0.36378 0.03375 0.0
O3 O 0.20018 0.39118 0.01569 0.0
O4 O 0.1618 0.35386 0.05417 0.0
C5 C 0.2588 0.47102 0.99179 0.0
O6 O 0.26301 0.45286 0.01738 0.0
C7 C 0.09717 0.33521 0.12876 0.0
C8 C 0.04606 0.32396 0.11525 0.0
C9 C 0.06498 0.32029 0.14321 0.0
N10 N 0.09713 0.34736 0.09411 0.0
N11 N 0.06639 0.34002 0.08601 0.0
C12 C 0.12803 0.34067 0.14857 0.0
H13 H 0.1505 0.36082 0.13449 0.0
H14 H 0.12753 0.34698 0.17886 0.0
H15 H 0.12925 0.31742 0.14731 0.0
C16 C 0.19489 0.47154 0.07341 0.0
N17 N 0.1821 0.4412 0.05752 0.0
N18 N 0.15784 0.41915 0.07899 0.0
C19 C 0.15423 0.43503 0.10917 0.0
C20 C 0.1777 0.46868 0.10668 0.0
C21 C 0.22296 0.50255 0.05668 0.0
H22 H 0.24506 0.49945 0.05393 0.0
H23 H 0.22987 0.52477 0.07448 0.0
H24 H 0.21593 0.50648 0.02785 0.0
O25 O 0.15139 0.41334 0.97633 0.0
O26 O 0.11245 0.37312 0.01171 0.0
H27 H 0.12359 0.43805 0.15366 0.0
H28 H 0.13185 0.40417 0.15762 0.0
C29 C 0.1265 0.41919 0.13741 0.0
H30 H 0.10278 0.40258 0.12268 0.0
H31 H 0.05948 0.34705 0.06102 0.0
O32 O 0.2295 0.46518 0.98455 0.0
C33 C 0.12157 0.38992 0.98113 0.0
Co34 Co 0.57778 0.76719 0.67923 0.0
Co35 Co 0.63135 0.76227 0.72908 0.0
C36 C 0.64226 0.82787 0.70326 0.0
O37 O 0.61443 0.81339 0.68601 0.0
O38 O 0.65242 0.81138 0.72246 0.0
C39 C 0.54583 0.79042 0.62938 0.0
O40 O 0.57662 0.80992 0.61807 0.0
C41 C 0.67261 0.76546 0.79488 0.0
C42 C 0.67917 0.72235 0.78277 0.0
C43 C 0.68629 0.747 0.80941 0.0
N44 N 0.65788 0.75193 0.76156 0.0
N45 N 0.6624 0.72655 0.75426 0.0
C46 C 0.67074 0.79344 0.81356 0.0
H47 H 0.65094 0.79686 0.80033 0.0
H48 H 0.66584 0.78858 0.84439 0.0
H49 H 0.6949 0.81677 0.80996 0.0
C50 C 0.53438 0.7275 0.74228 0.0
N51 N 0.56466 0.74486 0.72625 0.0
N52 N 0.58673 0.74251 0.74752 0.0
C53 C 0.57094 0.72316 0.77779 0.0
C54 C 0.5373 0.71316 0.77553 0.0
C55 C 0.50301 0.72223 0.7239 0.0
H56 H 0.50215 0.71416 0.69409 0.0
H57 H 0.50307 0.74618 0.7234 0.0
H58 H 0.48048 0.70328 0.73899 0.0
O59 O 0.59235 0.74364 0.64422 0.0
O60 O 0.63135 0.74233 0.67941 0.0
H61 H 0.60008 0.70133 0.79481 0.0
H62 H 0.56986 0.69758 0.82985 0.0
C63 C 0.58764 0.71398 0.80793 0.0
H64 H 0.60684 0.73689 0.82203 0.0
H65 H 0.65304 0.71135 0.73035 0.0
O66 O 0.54016 0.76944 0.65561 0.0
C67 C 0.61493 0.73595 0.64861 0.0
Co68 Co 0.23679 0.81221 0.34437 0.0
Co69 Co 0.24075 0.86938 0.39581 0.0
C70 C 0.17559 0.81499 0.36943 0.0
O71 O 0.19043 0.80252 0.35116 0.0
O72 O 0.19175 0.84105 0.38964 0.0
C73 C 0.21289 0.74357 0.32956 0.0
O74 O 0.19297 0.73972 0.35801 0.0
C75 C 0.23763 0.90681 0.46239 0.0
C76 C 0.28091 0.95648 0.4508 0.0
C77 C 0.25622 0.93876 0.47732 0.0
N78 N 0.25112 0.90586 0.42893 0.0
N79 N 0.2766 0.93578 0.42195 0.0
C80 C 0.2096 0.87686 0.48084 0.0
H81 H 0.20612 0.85371 0.46734 0.0
H82 H 0.21442 0.87658 0.51164 0.0
H83 H 0.1863 0.8778 0.47735 0.0
C84 C 0.27728 0.80833 0.40668 0.0
N85 N 0.2592 0.82077 0.39136 0.0
N86 N 0.26111 0.84468 0.41324 0.0
C87 C 0.28069 0.84821 0.44329 0.0
C88 C 0.2914 0.82517 0.44018 0.0
C89 C 0.28378 0.78337 0.38742 0.0
H90 H 0.28798 0.78902 0.35669 0.0
H91 H 0.26165 0.75823 0.39078 0.0
H92 H 0.30575 0.78321 0.3996 0.0
O93 O 0.26072 0.85097 0.31041 0.0
O94 O 0.2599 0.89002 0.34607 0.0
H95 H 0.30223 0.89885 0.46143 0.0
H96 H 0.3057 0.87182 0.49591 0.0
C97 C 0.28949 0.87355 0.47399 0.0
H98 H 0.2664 0.86955 0.48793 0.0
H99 H 0.2918 0.94179 0.39803 0.0
O100 O 0.23429 0.77283 0.31914 0.0
C101 C 0.26718 0.8808 0.31527 0.0
Co102 Co 0.42562 0.1896 0.98557 0.0
Co103 Co 0.37203 0.13267 0.93409 0.0
C104 C 0.36149 0.18698 0.96133 0.0
O105 O 0.38881 0.19921 0.97957 0.0
O106 O 0.35153 0.16112 0.94073 0.0
C107 C 0.46823 0.25792 0.0051 0.0
O108 O 0.44875 0.26232 0.98167 0.0
C109 C 0.33142 0.09541 0.86741 0.0
C110 C 0.32483 0.04565 0.879 0.0
C111 C 0.31802 0.06346 0.85244 0.0
N112 N 0.34575 0.09627 0.90092 0.0
N113 N 0.34119 0.0663 0.9079 0.0
C114 C 0.33344 0.1254 0.84896 0.0
H115 H 0.35306 0.14852 0.86258 0.0
H116 H 0.33868 0.12574 0.81819 0.0
H117 H 0.30921 0.12448 0.85228 0.0
C118 C 0.46939 0.19429 0.92241 0.0
N119 N 0.439 0.18138 0.93818 0.0
N120 N 0.41698 0.15739 0.9164 0.0
C121 C 0.43291 0.15416 0.88606 0.0
C122 C 0.46658 0.17757 0.8888 0.0
C123 C 0.50081 0.21975 0.94132 0.0
H124 H 0.50073 0.21277 0.97144 0.0
H125 H 0.50191 0.24419 0.9407 0.0
H126 H 0.52326 0.22216 0.92717 0.0
O127 O 0.411 0.15061 0.01914 0.0
O128 O 0.37069 0.11186 0.98363 0.0
H129 H 0.40353 0.10349 0.86812 0.0
H130 H 0.43438 0.13018 0.83377 0.0
C131 C 0.41639 0.12874 0.85544 0.0
H132 H 0.39756 0.13293 0.84115 0.0
H133 H 0.3503 0.06022 0.93184 0.0
O134 O 0.46309 0.22865 0.01072 0.0
C135 C 0.38744 0.12087 0.01428 0.0
Co136 Co 0.8123 0.23762 0.65101 0.0
Co137 Co 0.87066 0.24249 0.60103 0.0
C138 C 0.81587 0.17689 0.62647 0.0
O139 O 0.80276 0.19137 0.64421 0.0
O140 O 0.84234 0.1934 0.60699 0.0
C141 C 0.7554 0.2128 0.69873 0.0
O142 O 0.76435 0.19084 0.70734 0.0
C143 C 0.90786 0.24066 0.53385 0.0
C144 C 0.95875 0.28042 0.5484 0.0
C145 C 0.94027 0.25809 0.52004 0.0
N146 N 0.90738 0.25246 0.56856 0.0
N147 N 0.93798 0.27583 0.57728 0.0
C148 C 0.87732 0.21549 0.5134 0.0
H149 H 0.85464 0.2131 0.52702 0.0
H150 H 0.87831 0.22255 0.48313 0.0
H151 H 0.87601 0.19096 0.51462 0.0
C152 C 0.80815 0.27697 0.58794 0.0
N153 N 0.82129 0.25979 0.60391 0.0
N154 N 0.84613 0.26281 0.58292 0.0
C155 C 0.84993 0.2827 0.55308 0.0
C156 C 0.82589 0.29221 0.55525 0.0
C157 C 0.77917 0.27866 0.60405 0.0
H158 H 0.75893 0.25319 0.61107 0.0
H159 H 0.76944 0.29009 0.58386 0.0
H160 H 0.78694 0.29336 0.63069 0.0
O161 O 0.8507 0.26163 0.68568 0.0
O162 O 0.89056 0.26151 0.65089 0.0
H163 H 0.88134 0.31765 0.50998 0.0
H164 H 0.8735 0.27573 0.50472 0.0
C165 C 0.87826 0.29551 0.52556 0.0
H166 H 0.90171 0.30236 0.54079 0.0
H167 H 0.94449 0.28949 0.60246 0.0
O168 O 0.77278 0.23577 0.6752 0.0
C169 C 0.88071 0.26843 0.68145 0.0
Co170 Co 0.76394 0.5767 0.32093 0.0
Co171 Co 0.76055 0.62882 0.26691 0.0
C172 C 0.82535 0.64067 0.29582 0.0
O173 O 0.81026 0.61351 0.31433 0.0
O174 O 0.80947 0.65028 0.27467 0.0
C175 C 0.78812 0.53255 0.33659 0.0
O176 O 0.80767 0.54843 0.30781 0.0
C177 C 0.76445 0.66956 0.19989 0.0
C178 C 0.7188 0.67249 0.20858 0.0
C179 C 0.74503 0.68146 0.18364 0.0
N180 N 0.74993 0.65398 0.23253 0.0
N181 N 0.723 0.65635 0.23777 0.0
C182 C 0.79441 0.6701 0.18334 0.0
H183 H 0.79882 0.65118 0.19725 0.0
H184 H 0.79123 0.66542 0.15232 0.0
H185 H 0.81655 0.69501 0.18807 0.0
C186 C 0.72399 0.5312 0.25898 0.0
N187 N 0.7421 0.56199 0.27365 0.0
N188 N 0.74137 0.58374 0.25026 0.0
C189 C 0.72299 0.56738 0.21963 0.0
C190 C 0.71133 0.53353 0.22415 0.0
C191 C 0.71598 0.50001 0.27997 0.0
H192 H 0.71272 0.50304 0.31059 0.0
H193 H 0.73697 0.49515 0.27672 0.0
H194 H 0.69298 0.47825 0.26898 0.0
O195 O 0.73967 0.59201 0.35361 0.0
O196 O 0.73961 0.63004 0.3155 0.0
H197 H 0.70111 0.59449 0.1961 0.0
H198 H 0.70416 0.56632 0.16295 0.0
C199 C 0.71668 0.58386 0.18672 0.0
H200 H 0.74067 0.6044 0.17624 0.0
H201 H 0.70683 0.64595 0.26073 0.0
O202 O 0.76668 0.54032 0.34716 0.0
C203 C 0.73229 0.61454 0.347 0.0
H204 H 0.24957 0.74296 0.26914 0.0
H205 H 0.24294 0.69455 0.23404 0.0
H206 H 0.16349 0.62952 0.30922 0.0
H207 H 0.16961 0.6778 0.34425 0.0
H208 H 0.2474 0.63936 0.25892 0.0
H209 H 0.12139 0.60203 0.20329 0.0
H210 H 0.14804 0.64225 0.22442 0.0
H211 H 0.12543 0.60621 0.25397 0.0
C212 C 0.23069 0.71838 0.27827 0.0
C213 C 0.20992 0.71425 0.30931 0.0
C214 C 0.22698 0.69075 0.2582 0.0
C215 C 0.20241 0.65852 0.2687 0.0
C216 C 0.18219 0.65424 0.30023 0.0
H217 H 0.18725 0.47426 0.18314 0.0
H218 H 0.19298 0.51967 0.22424 0.0
C219 C 0.18584 0.68186 0.32031 0.0
C220 C 0.19786 0.62949 0.24637 0.0
H221 H 0.14244 0.56603 0.18999 0.0
C222 C 0.22444 0.62325 0.24391 0.0
C223 C 0.16799 0.60879 0.22651 0.0
C224 C 0.13914 0.61521 0.22679 0.0
C225 C 0.22193 0.59674 0.22214 0.0
C226 C 0.19188 0.57575 0.20277 0.0
C227 C 0.16533 0.58203 0.20518 0.0
C228 C 0.18798 0.54798 0.17847 0.0
C229 C 0.25171 0.59193 0.21921 0.0
C230 C 0.18244 0.54852 0.1394 0.0
C231 C 0.17902 0.52265 0.11611 0.0
C232 C 0.18102 0.49582 0.13152 0.0
C233 C 0.18589 0.4949 0.1707 0.0
C234 C 0.18935 0.52083 0.19405 0.0
H235 H 0.27494 0.61429 0.22885 0.0
H236 H 0.2476 0.57064 0.23733 0.0
H237 H 0.25523 0.58619 0.18956 0.0
H238 H 0.18105 0.56913 0.1269 0.0
H239 H 0.1747 0.52354 0.08603 0.0
H240 H 0.49175 0.72341 0.81244 0.0
H241 H 0.44482 0.68336 0.85144 0.0
H242 H 0.47451 0.60997 0.83278 0.0
H243 H 0.5211 0.64981 0.79336 0.0
H244 H 0.40614 0.58694 0.81968 0.0
H245 H 0.44806 0.64993 0.95938 0.0
H246 H 0.44768 0.67569 0.92151 0.0
H247 H 0.47587 0.65978 0.91949 0.0
C248 C 0.48826 0.69877 0.81699 0.0
C249 C 0.51003 0.68963 0.80039 0.0
C250 C 0.46167 0.67604 0.83935 0.0
C251 C 0.45652 0.64389 0.84538 0.0
C252 C 0.47825 0.63475 0.82868 0.0
H253 H 0.32459 0.49141 0.0027 0.0
H254 H 0.37228 0.53384 0.96718 0.0
C255 C 0.50486 0.65749 0.80641 0.0
C256 C 0.4277 0.61929 0.86785 0.0
H257 H 0.39346 0.60327 0.9565 0.0
C258 C 0.40334 0.59046 0.8496 0.0
C259 C 0.42436 0.6239 0.90692 0.0
C260 C 0.45048 0.65384 0.92818 0.0
C261 C 0.37546 0.5662 0.86933 0.0
C262 C 0.37174 0.57114 0.9082 0.0
C263 C 0.39629 0.59977 0.92659 0.0
C264 C 0.34285 0.54639 0.93042 0.0
C265 C 0.35046 0.53521 0.84862 0.0
C266 C 0.31059 0.53986 0.92187 0.0
C267 C 0.28327 0.51567 0.94214 0.0
C268 C 0.28777 0.49762 0.97133 0.0
C269 C 0.32024 0.50475 0.98029 0.0
C270 C 0.34753 0.52902 0.96009 0.0
H271 H 0.36053 0.5319 0.82139 0.0
H272 H 0.34267 0.51276 0.86644 0.0
H273 H 0.328 0.53703 0.84222 0.0
H274 H 0.30656 0.55338 0.89941 0.0
H275 H 0.25862 0.51091 0.93465 0.0
H276 H 0.28299 0.76906 0.47446 0.0
H277 H 0.32419 0.76235 0.51129 0.0
H278 H 0.3956 0.86642 0.49504 0.0
H279 H 0.3543 0.87315 0.45867 0.0
H280 H 0.38424 0.77243 0.48686 0.0
H281 H 0.40265 0.85591 0.60829 0.0
H282 H 0.36808 0.84203 0.57587 0.0
H283 H 0.40844 0.87592 0.56312 0.0
C284 C 0.30738 0.7905 0.47928 0.0
C285 C 0.31549 0.82169 0.46433 0.0
C286 C 0.33085 0.78669 0.50021 0.0
C287 C 0.36278 0.81401 0.50648 0.0
C288 C 0.37085 0.84521 0.49147 0.0
H289 H 0.55018 0.83536 0.57633 0.0
H290 H 0.50455 0.83993 0.5477 0.0
C291 C 0.34734 0.84904 0.47068 0.0
C292 C 0.38824 0.80947 0.52674 0.0
H293 H 0.44275 0.83821 0.60116 0.0
C294 C 0.39678 0.78657 0.51207 0.0
C295 C 0.40453 0.8279 0.5597 0.0
C296 C 0.39526 0.85158 0.57792 0.0
C297 C 0.42177 0.78226 0.52891 0.0
C298 C 0.43857 0.80131 0.56113 0.0
C299 C 0.42979 0.8238 0.57626 0.0
C300 C 0.46589 0.7986 0.57896 0.0
C301 C 0.43064 0.75785 0.51196 0.0
C302 C 0.45902 0.77385 0.60602 0.0
C303 C 0.48499 0.77116 0.62252 0.0
C304 C 0.51822 0.79316 0.61207 0.0
C305 C 0.52489 0.81797 0.58494 0.0
C306 C 0.49891 0.8207 0.5686 0.0
H307 H 0.41558 0.74529 0.48636 0.0
H308 H 0.45741 0.77097 0.50413 0.0
H309 H 0.42667 0.73865 0.53336 0.0
H310 H 0.43357 0.75661 0.61427 0.0
H311 H 0.47902 0.75179 0.64334 0.0
H312 H 0.51253 0.2335 0.8526 0.0
H313 H 0.5603 0.24075 0.81502 0.0
H314 H 0.5309 0.1378 0.83442 0.0
H315 H 0.48294 0.13049 0.87135 0.0
H316 H 0.61179 0.23361 0.83874 0.0
H317 H 0.54662 0.14532 0.72127 0.0
H318 H 0.52548 0.15887 0.75342 0.0
H319 H 0.53368 0.12625 0.76706 0.0
C320 C 0.51615 0.2124 0.84826 0.0
C321 C 0.49404 0.18136 0.86427 0.0
C322 C 0.54336 0.21653 0.82692 0.0
C323 C 0.54883 0.18967 0.82132 0.0
C324 C 0.52665 0.15862 0.83741 0.0
H325 H 0.7091 0.16277 0.74301 0.0
H326 H 0.65906 0.15872 0.77128 0.0
C327 C 0.49937 0.15446 0.85857 0.0
C328 C 0.57883 0.19459 0.80072 0.0
H329 H 0.60475 0.1641 0.72825 0.0
C330 C 0.61024 0.2187 0.81429 0.0
C331 C 0.57676 0.17512 0.76879 0.0
C332 C 0.54381 0.15018 0.75153 0.0
C333 C 0.63962 0.22314 0.79752 0.0
C334 C 0.63748 0.20305 0.76635 0.0
C335 C 0.60618 0.17933 0.75232 0.0
C336 C 0.66756 0.20565 0.74867 0.0
C337 C 0.6728 0.24859 0.81383 0.0
C338 C 0.68866 0.23332 0.7264 0.0
C339 C 0.71723 0.23568 0.71002 0.0
C340 C 0.72517 0.21044 0.71586 0.0
C341 C 0.70381 0.18271 0.73811 0.0
C342 C 0.67516 0.18028 0.7542 0.0
H343 H 0.67012 0.25905 0.84109 0.0
H344 H 0.68871 0.23729 0.81853 0.0
H345 H 0.68584 0.26933 0.79333 0.0
H346 H 0.68298 0.25302 0.72165 0.0
H347 H 0.73312 0.25731 0.69294 0.0
H348 H 0.75069 0.49386 0.39589 0.0
H349 H 0.75776 0.45217 0.4307 0.0
H350 H 0.8397 0.47004 0.35781 0.0
H351 H 0.83308 0.51198 0.32302 0.0
H352 H 0.75596 0.39348 0.40366 0.0
H353 H 0.87868 0.48347 0.46601 0.0
H354 H 0.85149 0.49632 0.44474 0.0
H355 H 0.87608 0.48528 0.41528 0.0
C356 C 0.77022 0.48894 0.38723 0.0
C357 C 0.79149 0.50643 0.35685 0.0
C358 C 0.77417 0.46506 0.40711 0.0
C359 C 0.79953 0.45839 0.39713 0.0
C360 C 0.82034 0.47526 0.36634 0.0
H361 H 0.81985 0.29112 0.47826 0.0
H362 H 0.81372 0.33112 0.43821 0.0
C363 C 0.8164 0.49911 0.3464 0.0
C364 C 0.80427 0.43388 0.41914 0.0
H365 H 0.85904 0.42635 0.47724 0.0
C366 C 0.7785 0.40059 0.4197 0.0
C367 C 0.83358 0.4434 0.44031 0.0
C368 C 0.86148 0.4791 0.44195 0.0
C369 C 0.78134 0.37645 0.4408 0.0
C370 C 0.81086 0.38588 0.46149 0.0
C371 C 0.83657 0.4192 0.46104 0.0
C372 C 0.81501 0.36184 0.48517 0.0
C373 C 0.75244 0.34124 0.44155 0.0
C374 C 0.81855 0.36635 0.5246 0.0
C375 C 0.82219 0.34373 0.54731 0.0
C376 C 0.82248 0.31629 0.53095 0.0
C377 C 0.81956 0.31207 0.49143 0.0
C378 C 0.81584 0.33471 0.46867 0.0
H379 H 0.72916 0.33966 0.43085 0.0
H380 H 0.75827 0.32535 0.42328 0.0
H381 H 0.74802 0.33098 0.47079 0.0
H382 H 0.81821 0.38726 0.53783 0.0
H383 H 0.82493 0.34774 0.57769 0.0
H384 H 0.47958 0.3216 0.00833 0.0
H385 H 0.52285 0.3684 0.04434 0.0
H386 H 0.56111 0.30616 0.08402 0.0
H387 H 0.51779 0.259 0.04832 0.0
H388 H 0.53504 0.35974 0.13403 0.0
H389 H 0.64055 0.40068 0.03248 0.0
H390 H 0.59791 0.38131 0.01629 0.0
H391 H 0.61241 0.35684 0.04008 0.0
C392 C 0.49729 0.31786 0.02451 0.0
C393 C 0.49521 0.28656 0.02555 0.0
C394 C 0.52193 0.34461 0.04505 0.0
C395 C 0.54506 0.34059 0.0666 0.0
C396 C 0.54344 0.30962 0.06735 0.0
H397 H 0.71699 0.48127 0.19831 0.0
H398 H 0.67634 0.43366 0.16071 0.0
C399 C 0.51867 0.28276 0.04703 0.0
C400 C 0.57016 0.36854 0.08947 0.0
H401 H 0.65134 0.43064 0.08967 0.0
C402 C 0.56049 0.37532 0.12445 0.0
C403 C 0.60326 0.38838 0.07685 0.0
C404 C 0.61444 0.38172 0.03933 0.0
C405 C 0.58326 0.40161 0.1474 0.0
C406 C 0.61629 0.42213 0.13439 0.0
C407 C 0.62599 0.41501 0.09949 0.0
C408 C 0.64107 0.45118 0.15654 0.0
C409 C 0.57185 0.40668 0.18565 0.0
C410 C 0.63496 0.47701 0.16613 0.0
C411 C 0.65792 0.50391 0.18788 0.0
C412 C 0.68766 0.50574 0.19982 0.0
C413 C 0.69413 0.48028 0.18953 0.0
C414 C 0.67104 0.45323 0.168 0.0
H415 H 0.54967 0.38359 0.19589 0.0
H416 H 0.59192 0.41475 0.20716 0.0
H417 H 0.56485 0.42625 0.18328 0.0
H418 H 0.61234 0.4763 0.15693 0.0
H419 H 0.65218 0.52304 0.19585 0.0
H420 H 0.93552 0.26335 0.69537 0.0
H421 H 0.97525 0.28827 0.74719 0.0
H422 H 0.92143 0.33555 0.7885 0.0
H423 H 0.88036 0.30896 0.73769 0.0
H424 H 0.01695 0.34936 0.76419 0.0
H425 H 0.92834 0.29425 0.88402 0.0
H426 H 0.91632 0.28145 0.8356 0.0
H427 H 0.91872 0.31903 0.85322 0.0
C428 C 0.93203 0.2789 0.71564 0.0
C429 C 0.90474 0.28404 0.71272 0.0
C430 C 0.9548 0.29321 0.74521 0.0
C431 C 0.95111 0.31341 0.77217 0.0
C432 C 0.92428 0.31927 0.76877 0.0
H433 H 0.12088 0.43031 0.92494 0.0
H434 H 0.07923 0.41527 0.8747 0.0
C435 C 0.90095 0.30426 0.73962 0.0
C436 C 0.97578 0.3284 0.80333 0.0
H437 H 0.98397 0.33344 0.89967 0.0
C438 C 0.00974 0.34586 0.79384 0.0
C439 C 0.96636 0.32363 0.84203 0.0
C440 C 0.93049 0.3033 0.8544 0.0
C441 C 0.03455 0.35778 0.82183 0.0
C442 C 0.02514 0.35348 0.86053 0.0
C443 C 0.99117 0.3369 0.87001 0.0
C444 C 0.04987 0.36359 0.89168 0.0
C445 C 0.07043 0.37332 0.80948 0.0
C446 C 0.04649 0.34 0.91887 0.0
C447 C 0.06962 0.34878 0.94812 0.0
C448 C 0.09694 0.38124 0.95046 0.0
C449 C 0.10029 0.40499 0.92344 0.0
C450 C 0.07663 0.39635 0.89462 0.0
H451 H 0.0726 0.36617 0.77998 0.0
H452 H 0.0821 0.40082 0.81031 0.0
H453 H 0.08467 0.36589 0.82849 0.0
H454 H 0.02609 0.31457 0.91726 0.0
H455 H 0.06643 0.32993 0.96851 0.0
H456 H 0.71351 0.58837 0.41852 0.0
H457 H 0.68867 0.60596 0.46813 0.0
H458 H 0.68849 0.67871 0.39217 0.0
H459 H 0.71344 0.6616 0.34253 0.0
H460 H 0.71777 0.70415 0.46317 0.0
H461 H 0.59321 0.59104 0.47763 0.0
H462 H 0.62776 0.58376 0.47987 0.0
H463 H 0.61943 0.59874 0.43661 0.0
C464 C 0.7079 0.60789 0.41222 0.0
C465 C 0.71558 0.62363 0.37656 0.0
C466 C 0.69352 0.61775 0.44053 0.0
C467 C 0.68644 0.64336 0.4336 0.0
C468 C 0.69364 0.65878 0.39795 0.0
H469 H 0.58509 0.71711 0.5787 0.0
H470 H 0.60117 0.69374 0.52585 0.0
C471 C 0.70794 0.64895 0.36965 0.0
C472 C 0.67368 0.65572 0.46424 0.0
H473 H 0.60826 0.63306 0.52464 0.0
C474 C 0.69376 0.68867 0.4765 0.0
C475 C 0.64224 0.63551 0.48124 0.0
C476 C 0.6192 0.60037 0.46803 0.0
C477 C 0.68352 0.70179 0.50595 0.0
C478 C 0.65257 0.68128 0.52376 0.0
C479 C 0.6321 0.64856 0.51099 0.0
C480 C 0.64152 0.69344 0.55622 0.0
C481 C 0.70584 0.73752 0.51779 0.0
C482 C 0.65856 0.70031 0.59083 0.0
C483 C 0.64948 0.71355 0.621 0.0
C484 C 0.62315 0.72019 0.61711 0.0
C485 C 0.60556 0.71244 0.5826 0.0
C486 C 0.61463 0.69904 0.55242 0.0
H487 H 0.72518 0.75188 0.49612 0.0
H488 H 0.69107 0.75 0.52287 0.0
H489 H 0.71859 0.73816 0.54468 0.0
H490 H 0.67916 0.69577 0.59432 0.0
H491 H 0.66347 0.71902 0.6472 0.0
H492 H 0.32703 0.06638 0.02732 0.0
H493 H 0.31125 0.0264 0.07905 0.0
H494 H 0.4122 0.07843 0.12101 0.0
H495 H 0.42767 0.11974 0.07034 0.0
H496 H 0.32901 0.98368 0.09705 0.0
H497 H 0.36414 0.07335 0.21596 0.0
H498 H 0.36383 0.08522 0.16737 0.0
H499 H 0.39852 0.08215 0.1855 0.0
C500 C 0.34584 0.06939 0.04768 0.0
C501 C 0.3785 0.09631 0.04506 0.0
C502 C 0.33681 0.04648 0.07721 0.0
C503 C 0.36036 0.04968 0.1044 0.0
C504 C 0.39332 0.07601 0.10114 0.0
H505 H 0.30719 0.8809 0.25819 0.0
H506 H 0.33301 0.92205 0.2074 0.0
C507 C 0.4022 0.09945 0.07205 0.0
C508 C 0.35008 0.02515 0.13579 0.0
H509 H 0.34734 0.01769 0.23222 0.0
C510 C 0.33297 0.99112 0.12663 0.0
C511 C 0.35498 0.03486 0.17441 0.0
C512 C 0.37106 0.07086 0.18646 0.0
C513 C 0.31993 0.96655 0.15487 0.0
C514 C 0.32549 0.97624 0.19348 0.0
C515 C 0.34328 0.01026 0.20263 0.0
C516 C 0.31122 0.95177 0.22491 0.0
C517 C 0.29907 0.93062 0.14288 0.0
C518 C 0.29159 0.95552 0.25261 0.0
C519 C 0.27771 0.93267 0.28219 0.0
C520 C 0.28273 0.90526 0.28437 0.0
C521 C 0.30255 0.90156 0.25686 0.0
C522 C 0.31712 0.92493 0.22769 0.0
H523 H 0.28931 0.92838 0.11359 0.0
H524 H 0.31466 0.91867 0.14332 0.0
H525 H 0.27766 0.91669 0.16233 0.0
H526 H 0.28669 0.97601 0.25114 0.0
H527 H 0.26248 0.93612 0.30296 0.0
H528 H 0.37733 0.24439 -0.001 0.0
H529 H 0.34184 0.26813 0.0112 0.0
H530 H 0.26228 0.18866 0.94786 0.0
H531 H 0.29794 0.16466 0.93496 0.0
H532 H 0.27118 0.25124 0.93091 0.0
H533 H 0.26438 0.23149 0.08623 0.0
H534 H 0.30645 0.25334 0.06918 0.0
H535 H 0.27895 0.21118 0.05415 0.0
C536 C 0.35232 0.23185 0.98753 0.0
C537 C 0.34041 0.2024 0.96623 0.0
C538 C 0.33197 0.24538 0.99482 0.0
C539 C 0.29918 0.22969 0.98129 0.0
C540 C 0.28743 0.20091 0.95896 0.0
H541 H 0.16432 0.29972 0.05883 0.0
H542 H 0.18778 0.26367 0.04558 0.0
C543 C 0.30785 0.1873 0.95154 0.0
C544 C 0.2777 0.24407 0.98996 0.0
H545 H 0.24931 0.27103 0.06348 0.0
C546 C 0.26598 0.25517 0.95987 0.0
C547 C 0.2704 0.24859 0.02775 0.0
C548 C 0.2804 0.2352 0.06117 0.0
C549 C 0.24872 0.27233 0.96662 0.0
C550 C 0.24362 0.27904 0.00445 0.0
C551 C 0.25369 0.2663 0.03451 0.0
C552 C 0.22958 0.30079 0.01329 0.0
C553 C 0.2364 0.28342 0.93315 0.0
C554 C 0.24588 0.33383 0.00054 0.0
C555 C 0.23264 0.35441 0.00803 0.0
C556 C 0.20291 0.34248 0.02877 0.0
C557 C 0.18721 0.30967 0.04271 0.0
C558 C 0.2005 0.28901 0.03508 0.0
H559 H 0.23288 0.26781 0.90774 0.0
H560 H 0.21248 0.28237 0.93971 0.0
H561 H 0.25508 0.3095 0.92592 0.0
H562 H 0.26886 0.34371 0.98462 0.0
H563 H 0.24562 0.37962 0.99716 0.0
H564 H 0.75754 0.13411 0.6617 0.0
H565 H 0.73525 0.07524 0.6749 0.0
H566 H 0.81789 0.07766 0.61601 0.0
H567 H 0.84055 0.13701 0.60226 0.0
H568 H 0.7557 0.02214 0.59811 0.0
H569 H 0.77335 0.03801 0.7536 0.0
H570 H 0.7511 0.05721 0.73471 0.0
H571 H 0.79362 0.07237 0.72081 0.0
C572 C 0.77107 0.12226 0.65139 0.0
C573 C 0.80105 0.14044 0.63119 0.0
C574 C 0.75836 0.08859 0.65924 0.0
C575 C 0.77538 0.07235 0.64731 0.0
C576 C 0.80463 0.08993 0.62588 0.0
H577 H 0.70651 0.86818 0.7283 0.0
H578 H 0.74299 0.92758 0.71457 0.0
C579 C 0.81745 0.12378 0.61795 0.0
C580 C 0.76194 0.0368 0.65685 0.0
H581 H 0.73504 0.98271 0.73157 0.0
C582 C 0.75164 0.01352 0.62727 0.0
C583 C 0.75723 0.02564 0.69492 0.0
C584 C 0.76972 0.04964 0.72784 0.0
C585 C 0.7349 0.97922 0.63479 0.0
C586 C 0.72792 0.96805 0.67283 0.0
C587 C 0.74003 0.99134 0.70243 0.0
C588 C 0.70601 0.93244 0.68222 0.0
C589 C 0.72433 0.95523 0.60191 0.0
C590 C 0.67292 0.91592 0.66964 0.0
C591 C 0.65209 0.88225 0.6775 0.0
C592 C 0.66383 0.86431 0.69833 0.0
C593 C 0.69671 0.88122 0.71212 0.0
C594 C 0.71761 0.91509 0.7042 0.0
H595 H 0.73997 0.96704 0.57645 0.0
H596 H 0.72581 0.93275 0.60935 0.0
H597 H 0.69817 0.94724 0.59436 0.0
H598 H 0.66322 0.92909 0.65351 0.0
H599 H 0.62686 0.8702 0.66668 0.0
H600 H 0.13325 0.7565 0.33416 0.0
H601 H 0.07411 0.7333 0.32163 0.0
H602 H 0.07564 0.81545 0.3807 0.0
H603 H 0.13516 0.83889 0.39392 0.0
H604 H 0.02106 0.75415 0.39918 0.0
H605 H 0.0349 0.76897 0.24333 0.0
H606 H 0.05417 0.74681 0.26226 0.0
H607 H 0.06975 0.78958 0.27541 0.0
C608 C 0.12112 0.76971 0.34464 0.0
C609 C 0.13908 0.79977 0.36478 0.0
C610 C 0.08731 0.7565 0.33716 0.0
C611 C 0.07071 0.77312 0.34933 0.0
C612 C 0.08815 0.80247 0.37064 0.0
H613 H 0.86654 0.70406 0.26896 0.0
H614 H 0.92609 0.74001 0.28228 0.0
C615 C 0.1221 0.81576 0.37827 0.0
C616 C 0.03499 0.75919 0.34025 0.0
H617 H 0.97991 0.73103 0.26643 0.0
C618 C 0.01207 0.74951 0.37016 0.0
C619 C 0.02332 0.75375 0.30234 0.0
C620 C 0.04685 0.76565 0.26899 0.0
C621 C 0.97768 0.73281 0.3632 0.0
C622 C 0.96598 0.72514 0.32539 0.0
C623 C 0.98892 0.73651 0.29541 0.0
C624 C 0.93017 0.70354 0.31659 0.0
C625 C 0.95416 0.72321 0.39645 0.0
C626 C 0.91309 0.67088 0.3305 0.0
C627 C 0.87928 0.65036 0.32296 0.0
C628 C 0.86179 0.66196 0.30104 0.0
C629 C 0.87922 0.69438 0.28602 0.0
C630 C 0.91319 0.71498 0.29368 0.0
H631 H 0.96639 0.7395 0.42136 0.0
H632 H 0.93162 0.72459 0.38903 0.0
H633 H 0.94622 0.69725 0.40492 0.0
H634 H 0.92593 0.66123 0.34733 0.0
H635 H 0.86682 0.62544 0.33469 0.0
H636 H 0.9849 0.31127 0.4796 0.0
H637 H 0.00588 0.31216 0.41599 0.0
H638 H 0.94672 0.20506 0.41055 0.0
H639 H 0.92501 0.20413 0.47431 0.0
H640 H 0.04109 0.28558 0.38757 0.0
H641 H 0.91859 0.23162 0.31452 0.0
H642 H 0.92413 0.24508 0.36329 0.0
H643 H 0.92142 0.20618 0.35106 0.0
C644 C 0.9763 0.28787 0.46487 0.0
C645 C 0.95284 0.25768 0.48162 0.0
C646 C 0.98837 0.28841 0.42853 0.0
C647 C 0.97753 0.25873 0.40822 0.0
C648 C 0.95478 0.22834 0.42528 0.0
H649 H 0.08106 0.28222 0.18904 0.0
H650 H 0.06001 0.26187 0.25313 0.0
C651 C 0.94233 0.22783 0.46165 0.0
C652 C 0.99002 0.26035 0.36907 0.0
H653 H 0.96558 0.24756 0.27633 0.0
C654 C 0.02461 0.27696 0.3632 0.0
C655 C 0.96843 0.24914 0.33736 0.0
C656 C 0.93109 0.23224 0.34165 0.0
C657 C 0.03824 0.2842 0.32653 0.0
C658 C 0.01664 0.27367 0.29483 0.0
C659 C 0.98207 0.25554 0.3007 0.0
C660 C 0.02905 0.28458 0.25567 0.0
C661 C 0.07556 0.30476 0.32219 0.0
C662 C 0.01799 0.30326 0.23543 0.0
C663 C 0.02969 0.31455 0.19893 0.0
C664 C 0.05299 0.30772 0.18191 0.0
C665 C 0.06382 0.28864 0.20187 0.0
C666 C 0.05176 0.27696 0.23844 0.0
H667 H 0.08806 0.31662 0.34933 0.0
H668 H 0.08532 0.28848 0.31266 0.0
H669 H 0.0824 0.32458 0.30061 0.0
H670 H 0.00052 0.3095 0.24812 0.0
H671 H 0.02087 0.32919 0.18425 0.0
H672 H 0.67859 0.6949 0.85151 0.0
H673 H 0.70029 0.69562 0.91459 0.0
H674 H 0.74928 0.80283 0.91624 0.0
H675 H 0.72745 0.8023 0.85266 0.0
H676 H 0.76469 0.72472 0.94158 0.0
H677 H 0.69338 0.77654 0.01316 0.0
H678 H 0.68464 0.76114 0.96511 0.0
H679 H 0.7206 0.80078 0.97519 0.0
C680 C 0.69407 0.71871 0.86515 0.0
C681 C 0.70069 0.74852 0.84738 0.0
C682 C 0.7065 0.71906 0.90123 0.0
C683 C 0.72603 0.74922 0.92035 0.0
C684 C 0.73363 0.77922 0.90232 0.0
H685 H 0.80118 0.7256 0.14335 0.0
H686 H 0.80295 0.74832 0.07993 0.0
C687 C 0.72098 0.77887 0.86609 0.0
C688 C 0.73725 0.74844 0.95954 0.0
H689 H 0.72271 0.75908 0.05198 0.0
C690 C 0.75605 0.73274 0.96579 0.0
C691 C 0.72582 0.75887 0.99098 0.0
C692 C 0.7048 0.77509 0.98605 0.0
C693 C 0.76208 0.72544 0.00261 0.0
C694 C 0.74947 0.73467 0.03399 0.0
C695 C 0.73239 0.75213 0.0278 0.0
C696 C 0.74944 0.72235 0.07281 0.0
C697 C 0.77995 0.706 0.00751 0.0
C698 C 0.71886 0.70083 0.09009 0.0
C699 C 0.7178 0.68788 0.12603 0.0
C700 C 0.74731 0.69598 0.14556 0.0
C701 C 0.77804 0.71804 0.12858 0.0
C702 C 0.77908 0.73119 0.09245 0.0
H703 H 0.78344 0.69629 0.98011 0.0
H704 H 0.80486 0.72239 0.02007 0.0
H705 H 0.76594 0.6847 0.0271 0.0
H706 H 0.69568 0.69362 0.07546 0.0
H707 H 0.69371 0.67099 0.13828 0.0
H708 H 0.32717 0.02033 0.80971 0.0
H709 H 0.30581 0.99953 0.74647 0.0
H710 H 0.25503 0.05608 0.74555 0.0
H711 H 0.27666 0.0773 0.80923 0.0
H712 H 0.24188 0.96315 0.72016 0.0
H713 H 0.30932 0.08623 0.64792 0.0
H714 H 0.31874 0.08019 0.69591 0.0
H715 H 0.28205 0.08266 0.68609 0.0
C716 C 0.31141 0.02836 0.79615 0.0
C717 C 0.30414 0.05098 0.8142 0.0
C718 C 0.29918 0.0164 0.75998 0.0
C719 C 0.27917 0.02655 0.74105 0.0
C720 C 0.27106 0.0485 0.7593 0.0
H721 H 0.20093 0.92495 0.52032 0.0
H722 H 0.20038 0.94621 0.58392 0.0
C723 C 0.28355 0.06073 0.79561 0.0
C724 C 0.26773 0.01429 0.70198 0.0
H725 H 0.27986 0.0392 0.60941 0.0
C726 C 0.2497 0.97974 0.69589 0.0
C727 C 0.27809 0.03605 0.67045 0.0
C728 C 0.29832 0.07335 0.67515 0.0
C729 C 0.24336 0.96631 0.65912 0.0
C730 C 0.25475 0.98807 0.62759 0.0
C731 C 0.27111 0.02261 0.63368 0.0
C732 C 0.25402 0.97582 0.58854 0.0
C733 C 0.22646 0.92902 0.65442 0.0
C734 C 0.28423 0.98602 0.56969 0.0
C735 C 0.28459 0.97402 0.53357 0.0
C736 C 0.25474 0.95132 0.51549 0.0
C737 C 0.22437 0.94157 0.53398 0.0
C738 C 0.22401 0.95382 0.57024 0.0
H739 H 0.22459 0.91616 0.68168 0.0
H740 H 0.20089 0.91959 0.64339 0.0
H741 H 0.24016 0.92226 0.63374 0.0
H742 H 0.30769 0.00293 0.58325 0.0
H743 H 0.3084 0.98207 0.52009 0.0
loop_
_geom_bond_atom_site_label_1
_geom_bond_atom_site_label_2
_geom_bond_distance
_geom_bond_site_symmetry_2
_ccdc_geom_bond_type
Co0 O3 1.970 1_556 S
Co0 N17 1.989 1_556 S
Co0 O25 1.967 . S
Co0 O32 1.920 . S
Co1 O4 1.966 . S
Co1 N10 2.022 . S
Co1 N18 1.993 . S
Co1 O26 1.941 . S
C2 O3 1.258 . S
C2 O4 1.263 . S
O3 Co0 1.970 1_554 S
O3 C2 1.258 . S
O4 Co1 1.966 . S
O4 C2 1.263 . S
C5 O6 1.235 . S
C5 O32 1.289 . S
O6 C5 1.235 . S
C7 C9 1.400 . S
C7 N10 1.351 . S
C7 C12 1.501 . S
C8 C9 1.387 . S
C8 N11 1.341 . S
C9 C7 1.400 . S
C9 C8 1.387 . S
N10 Co1 2.022 . S
N10 C7 1.351 . S
N10 N11 1.365 . S
N11 C8 1.341 . S
N11 N10 1.365 . S
N11 H31 0.862 . S
C12 C7 1.501 . S
C12 H13 0.961 . S
C12 H14 0.961 . S
C12 H15 0.960 . S
H13 C12 0.961 . S
H14 C12 0.961 . S
H15 C12 0.960 . S
C16 N17 1.342 . S
C16 C20 1.401 . S
C16 C21 1.499 . S
N17 Co0 1.989 1_554 S
N17 C16 1.342 . S
N17 N18 1.388 . S
N18 Co1 1.993 . S
N18 N17 1.388 . S
N18 C19 1.346 . S
C19 N18 1.346 . S
C19 C20 1.396 . S
C19 C29 1.510 . S
C20 C16 1.401 . S
C20 C19 1.396 . S
C21 C16 1.499 . S
C21 H22 0.959 . S
C21 H23 0.960 . S
C21 H24 0.961 . S
H22 C21 0.959 . S
H23 C21 0.960 . S
H24 C21 0.961 . S
O25 Co0 1.967 . S
O25 C33 1.258 . S
O26 Co1 1.941 . S
O26 C33 1.266 1_554 S
H27 C29 0.959 . S
H28 C29 0.961 . S
C29 C19 1.510 . S
C29 H27 0.959 . S
C29 H28 0.961 . S
C29 H30 0.960 . S
H30 C29 0.960 . S
H31 N11 0.862 . S
O32 Co0 1.920 . S
O32 C5 1.289 . S
C33 O25 1.258 . S
C33 O26 1.266 1_556 S
Co34 O37 1.970 . S
Co34 N51 1.989 . S
Co34 O59 1.967 . S
Co34 O66 1.920 . S
Co35 O38 1.966 . S
Co35 N44 2.022 . S
Co35 N52 1.993 . S
Co35 O60 1.941 . S
C36 O37 1.258 . S
C36 O38 1.263 . S
O37 Co34 1.970 . S
O37 C36 1.258 . S
O38 Co35 1.966 . S
O38 C36 1.263 . S
C39 O40 1.235 . S
C39 O66 1.289 . S
O40 C39 1.235 . S
C41 C43 1.400 . S
C41 N44 1.351 . S
C41 C46 1.501 . S
C42 C43 1.387 . S
C42 N45 1.341 . S
C43 C41 1.400 . S
C43 C42 1.387 . S
N44 Co35 2.022 . S
N44 C41 1.351 . S
N44 N45 1.365 . S
N45 C42 1.341 . S
N45 N44 1.365 . S
N45 H65 0.862 . S
C46 C41 1.501 . S
C46 H47 0.961 . S
C46 H48 0.961 . S
C46 H49 0.960 . S
H47 C46 0.961 . S
H48 C46 0.961 . S
H49 C46 0.960 . S
C50 N51 1.342 . S
C50 C54 1.401 . S
C50 C55 1.499 . S
N51 Co34 1.989 . S
N51 C50 1.342 . S
N51 N52 1.388 . S
N52 Co35 1.993 . S
N52 N51 1.388 . S
N52 C53 1.346 . S
C53 N52 1.346 . S
C53 C54 1.396 . S
C53 C63 1.510 . S
C54 C50 1.401 . S
C54 C53 1.396 . S
C55 C50 1.499 . S
C55 H56 0.959 . S
C55 H57 0.960 . S
C55 H58 0.961 . S
H56 C55 0.959 . S
H57 C55 0.960 . S
H58 C55 0.961 . S
O59 Co34 1.967 . S
O59 C67 1.258 . S
O60 Co35 1.941 . S
O60 C67 1.266 . S
H61 C63 0.959 . S
H62 C63 0.961 . S
C63 C53 1.510 . S
C63 H61 0.959 . S
C63 H62 0.961 . S
C63 H64 0.960 . S
H64 C63 0.960 . S
H65 N45 0.862 . S
O66 Co34 1.920 . S
O66 C39 1.289 . S
C67 O59 1.258 . S
C67 O60 1.266 . S
Co68 O71 1.970 . S
Co68 N85 1.989 . S
Co68 O93 1.967 . S
Co68 O100 1.920 . S
Co69 O72 1.966 . S
Co69 N78 2.022 . S
Co69 N86 1.993 . S
Co69 O94 1.941 . S
C70 O71 1.258 . S
C70 O72 1.263 . S
O71 Co68 1.970 . S
O71 C70 1.258 . S
O72 Co69 1.966 . S
O72 C70 1.263 . S
C73 O74 1.235 . S
C73 O100 1.289 . S
O74 C73 1.235 . S
C75 C77 1.400 . S
C75 N78 1.351 . S
C75 C80 1.501 . S
C76 C77 1.387 . S
C76 N79 1.341 . S
C77 C75 1.400 . S
C77 C76 1.387 . S
N78 Co69 2.022 . S
N78 C75 1.351 . S
N78 N79 1.365 . S
N79 C76 1.341 . S
N79 N78 1.365 . S
N79 H99 0.862 . S
C80 C75 1.501 . S
C80 H81 0.961 . S
C80 H82 0.961 . S
C80 H83 0.960 . S
H81 C80 0.961 . S
H82 C80 0.961 . S
H83 C80 0.960 . S
C84 N85 1.342 . S
C84 C88 1.401 . S
C84 C89 1.499 . S
N85 Co68 1.989 . S
N85 C84 1.342 . S
N85 N86 1.388 . S
N86 Co69 1.993 . S
N86 N85 1.388 . S
N86 C87 1.346 . S
C87 N86 1.346 . S
C87 C88 1.396 . S
C87 C97 1.510 . S
C88 C84 1.401 . S
C88 C87 1.396 . S
C89 C84 1.499 . S
C89 H90 0.959 . S
C89 H91 0.960 . S
C89 H92 0.961 . S
H90 C89 0.959 . S
H91 C89 0.960 . S
H92 C89 0.961 . S
O93 Co68 1.967 . S
O93 C101 1.258 . S
O94 Co69 1.941 . S
O94 C101 1.266 . S
H95 C97 0.959 . S
H96 C97 0.961 . S
C97 C87 1.510 . S
C97 H95 0.959 . S
C97 H96 0.961 . S
C97 H98 0.960 . S
H98 C97 0.960 . S
H99 N79 0.862 . S
O100 Co68 1.920 . S
O100 C73 1.289 . S
C101 O93 1.258 . S
C101 O94 1.266 . S
Co102 O105 1.970 1_554 S
Co102 N119 1.989 1_554 S
Co102 O127 1.967 . S
Co102 O134 1.920 . S
Co103 O106 1.966 . S
Co103 N112 2.022 . S
Co103 N120 1.993 . S
Co103 O128 1.941 . S
C104 O105 1.258 . S
C104 O106 1.263 . S
O105 Co102 1.970 1_556 S
O105 C104 1.258 . S
O106 Co103 1.966 . S
O106 C104 1.263 . S
C107 O108 1.235 . S
C107 O134 1.289 . S
O108 C107 1.235 . S
C109 C111 1.400 . S
C109 N112 1.351 . S
C109 C114 1.501 . S
C110 C111 1.387 . S
C110 N113 1.341 . S
C111 C109 1.400 . S
C111 C110 1.387 . S
N112 Co103 2.022 . S
N112 C109 1.351 . S
N112 N113 1.365 . S
N113 C110 1.341 . S
N113 N112 1.365 . S
N113 H133 0.862 . S
C114 C109 1.501 . S
C114 H115 0.961 . S
C114 H116 0.961 . S
C114 H117 0.960 . S
H115 C114 0.961 . S
H116 C114 0.961 . S
H117 C114 0.960 . S
C118 N119 1.342 . S
C118 C122 1.401 . S
C118 C123 1.499 . S
N119 Co102 1.989 1_556 S
N119 C118 1.342 . S
N119 N120 1.388 . S
N120 Co103 1.993 . S
N120 N119 1.388 . S
N120 C121 1.346 . S
C121 N120 1.346 . S
C121 C122 1.396 . S
C121 C131 1.510 . S
C122 C118 1.401 . S
C122 C121 1.396 . S
C123 C118 1.499 . S
C123 H124 0.959 . S
C123 H125 0.960 . S
C123 H126 0.961 . S
H124 C123 0.959 . S
H125 C123 0.960 . S
H126 C123 0.961 . S
O127 Co102 1.967 . S
O127 C135 1.258 . S
O128 Co103 1.941 . S
O128 C135 1.266 1_556 S
H129 C131 0.959 . S
H130 C131 0.961 . S
C131 C121 1.510 . S
C131 H129 0.959 . S
C131 H130 0.961 . S
C131 H132 0.960 . S
H132 C131 0.960 . S
H133 N113 0.862 . S
O134 Co102 1.920 . S
O134 C107 1.289 . S
C135 O127 1.258 . S
C135 O128 1.266 1_554 S
Co136 O139 1.970 . S
Co136 N153 1.989 . S
Co136 O161 1.967 . S
Co136 O168 1.920 . S
Co137 O140 1.966 . S
Co137 N146 2.022 . S
Co137 N154 1.993 . S
Co137 O162 1.941 . S
C138 O139 1.258 . S
C138 O140 1.263 . S
O139 Co136 1.970 . S
O139 C138 1.258 . S
O140 Co137 1.966 . S
O140 C138 1.263 . S
C141 O142 1.235 . S
C141 O168 1.289 . S
O142 C141 1.235 . S
C143 C145 1.400 . S
C143 N146 1.351 . S
C143 C148 1.501 . S
C144 C145 1.387 . S
C144 N147 1.341 . S
C145 C143 1.400 . S
C145 C144 1.387 . S
N146 Co137 2.022 . S
N146 C143 1.351 . S
N146 N147 1.365 . S
N147 C144 1.341 . S
N147 N146 1.365 . S
N147 H167 0.862 . S
C148 C143 1.501 . S
C148 H149 0.961 . S
C148 H150 0.961 . S
C148 H151 0.960 . S
H149 C148 0.961 . S
H150 C148 0.961 . S
H151 C148 0.960 . S
C152 N153 1.342 . S
C152 C156 1.401 . S
C152 C157 1.499 . S
N153 Co136 1.989 . S
N153 C152 1.342 . S
N153 N154 1.388 . S
N154 Co137 1.993 . S
N154 N153 1.388 . S
N154 C155 1.346 . S
C155 N154 1.346 . S
C155 C156 1.396 . S
C155 C165 1.510 . S
C156 C152 1.401 . S
C156 C155 1.396 . S
C157 C152 1.499 . S
C157 H158 0.959 . S
C157 H159 0.960 . S
C157 H160 0.961 . S
H158 C157 0.959 . S
H159 C157 0.960 . S
H160 C157 0.961 . S
O161 Co136 1.967 . S
O161 C169 1.258 . S
O162 Co137 1.941 . S
O162 C169 1.266 . S
H163 C165 0.959 . S
H164 C165 0.961 . S
C165 C155 1.510 . S
C165 H163 0.959 . S
C165 H164 0.961 . S
C165 H166 0.960 . S
H166 C165 0.960 . S
H167 N147 0.862 . S
O168 Co136 1.920 . S
O168 C141 1.289 . S
C169 O161 1.258 . S
C169 O162 1.266 . S
Co170 O173 1.970 . S
Co170 N187 1.989 . S
Co170 O195 1.967 . S
Co170 O202 1.920 . S
Co171 O174 1.966 . S
Co171 N180 2.022 . S
Co171 N188 1.993 . S
Co171 O196 1.941 . S
C172 O173 1.258 . S
C172 O174 1.263 . S
O173 Co170 1.970 . S
O173 C172 1.258 . S
O174 Co171 1.966 . S
O174 C172 1.263 . S
C175 O176 1.235 . S
C175 O202 1.289 . S
O176 C175 1.235 . S
C177 C179 1.400 . S
C177 N180 1.351 . S
C177 C182 1.501 . S
C178 C179 1.387 . S
C178 N181 1.341 . S
C179 C177 1.400 . S
C179 C178 1.387 . S
N180 Co171 2.022 . S
N180 C177 1.351 . S
N180 N181 1.365 . S
N181 C178 1.341 . S
N181 N180 1.365 . S
N181 H201 0.862 . S
C182 C177 1.501 . S
C182 H183 0.961 . S
C182 H184 0.961 . S
C182 H185 0.960 . S
H183 C182 0.961 . S
H184 C182 0.961 . S
H185 C182 0.960 . S
C186 N187 1.342 . S
C186 C190 1.401 . S
C186 C191 1.499 . S
N187 Co170 1.989 . S
N187 C186 1.342 . S
N187 N188 1.388 . S
N188 Co171 1.993 . S
N188 N187 1.388 . S
N188 C189 1.346 . S
C189 N188 1.346 . S
C189 C190 1.396 . S
C189 C199 1.510 . S
C190 C186 1.401 . S
C190 C189 1.396 . S
C191 C186 1.499 . S
C191 H192 0.959 . S
C191 H193 0.960 . S
C191 H194 0.961 . S
H192 C191 0.959 . S
H193 C191 0.960 . S
H194 C191 0.961 . S
O195 Co170 1.967 . S
O195 C203 1.258 . S
O196 Co171 1.941 . S
O196 C203 1.266 . S
H197 C199 0.959 . S
H198 C199 0.961 . S
C199 C189 1.510 . S
C199 H197 0.959 . S
C199 H198 0.961 . S
C199 H200 0.960 . S
H200 C199 0.960 . S
H201 N181 0.862 . S
O202 Co170 1.920 . S
O202 C175 1.289 . S
C203 O195 1.258 . S
C203 O196 1.266 . S
H204 C212 0.929 . S
H205 C214 0.930 . S
H206 C216 0.930 . S
H207 C219 0.929 . S
H208 C222 0.930 . S
H209 C224 0.960 . S
H210 C224 0.960 . S
H211 C224 0.960 . S
C212 H204 0.929 . S
C212 C213 1.377 . S
C212 C214 1.384 . S
C213 C212 1.377 . S
C213 C219 1.390 . S
C214 H205 0.930 . S
C214 C212 1.384 . S
C214 C215 1.372 . S
C215 C214 1.372 . S
C215 C216 1.400 . S
C215 C220 1.490 . S
C216 H206 0.930 . S
C216 C215 1.400 . S
C216 C219 1.386 . S
H217 C233 0.930 . S
H218 C234 0.931 . S
C219 H207 0.929 . S
C219 C213 1.390 . S
C219 C216 1.386 . S
C220 C215 1.490 . S
C220 C222 1.395 . S
C220 C223 1.403 . S
H221 C227 0.930 . S
C222 H208 0.930 . S
C222 C220 1.395 . S
C222 C225 1.403 . S
C223 C220 1.403 . S
C223 C224 1.524 . S
C223 C227 1.400 . S
C224 H209 0.960 . S
C224 H210 0.960 . S
C224 H211 0.960 . S
C224 C223 1.524 . S
C225 C222 1.403 . S
C225 C226 1.392 . S
C225 C229 1.495 . S
C226 C225 1.392 . S
C226 C227 1.385 . S
C226 C228 1.478 . S
C227 H221 0.930 . S
C227 C223 1.400 . S
C227 C226 1.385 . S
C228 C226 1.478 . S
C228 C230 1.381 . S
C228 C234 1.383 . S
C229 C225 1.495 . S
C229 H235 0.959 . S
C229 H236 0.961 . S
C229 H237 0.960 . S
C230 C228 1.381 . S
C230 C231 1.394 . S
C230 H238 0.930 . S
C231 C230 1.394 . S
C231 C232 1.383 . S
C231 H239 0.929 . S
C232 C231 1.383 . S
C232 C233 1.377 . S
C233 H217 0.930 . S
C233 C232 1.377 . S
C233 C234 1.379 . S
C234 H218 0.931 . S
C234 C228 1.383 . S
C234 C233 1.379 . S
H235 C229 0.959 . S
H236 C229 0.961 . S
H237 C229 0.960 . S
H238 C230 0.930 . S
H239 C231 0.929 . S
H240 C248 0.929 . S
H241 C250 0.930 . S
H242 C252 0.930 . S
H243 C255 0.929 . S
H244 C258 0.930 . S
H245 C260 0.960 . S
H246 C260 0.960 . S
H247 C260 0.960 . S
C248 H240 0.929 . S
C248 C249 1.377 . S
C248 C250 1.384 . S
C249 C248 1.377 . S
C249 C255 1.390 . S
C250 H241 0.930 . S
C250 C248 1.384 . S
C250 C251 1.372 . S
C251 C250 1.372 . S
C251 C252 1.400 . S
C251 C256 1.490 . S
C252 H242 0.930 . S
C252 C251 1.400 . S
C252 C255 1.386 . S
H253 C269 0.930 . S
H254 C270 0.931 . S
C255 H243 0.929 . S
C255 C249 1.390 . S
C255 C252 1.386 . S
C256 C251 1.490 . S
C256 C258 1.395 . S
C256 C259 1.403 . S
H257 C263 0.930 . S
C258 H244 0.930 . S
C258 C256 1.395 . S
C258 C261 1.403 . S
C259 C256 1.403 . S
C259 C260 1.524 . S
C259 C263 1.400 . S
C260 H245 0.960 . S
C260 H246 0.960 . S
C260 H247 0.960 . S
C260 C259 1.524 . S
C261 C258 1.403 . S
C261 C262 1.392 . S
C261 C265 1.495 . S
C262 C261 1.392 . S
C262 C263 1.385 . S
C262 C264 1.478 . S
C263 H257 0.930 . S
C263 C259 1.400 . S
C263 C262 1.385 . S
C264 C262 1.478 . S
C264 C266 1.381 . S
C264 C270 1.383 . S
C265 C261 1.495 . S
C265 H271 0.959 . S
C265 H272 0.961 . S
C265 H273 0.960 . S
C266 C264 1.381 . S
C266 C267 1.394 . S
C266 H274 0.930 . S
C267 C266 1.394 . S
C267 C268 1.383 . S
C267 H275 0.929 . S
C268 C267 1.383 . S
C268 C269 1.377 . S
C269 H253 0.930 . S
C269 C268 1.377 . S
C269 C270 1.379 . S
C270 H254 0.931 . S
C270 C264 1.383 . S
C270 C269 1.379 . S
H271 C265 0.959 . S
H272 C265 0.961 . S
H273 C265 0.960 . S
H274 C266 0.930 . S
H275 C267 0.929 . S
H276 C284 0.929 . S
H277 C286 0.930 . S
H278 C288 0.930 . S
H279 C291 0.929 . S
H280 C294 0.930 . S
H281 C296 0.960 . S
H282 C296 0.960 . S
H283 C296 0.960 . S
C284 H276 0.929 . S
C284 C285 1.377 . S
C284 C286 1.384 . S
C285 C284 1.377 . S
C285 C291 1.390 . S
C286 H277 0.930 . S
C286 C284 1.384 . S
C286 C287 1.372 . S
C287 C286 1.372 . S
C287 C288 1.400 . S
C287 C292 1.490 . S
C288 H278 0.930 . S
C288 C287 1.400 . S
C288 C291 1.386 . S
H289 C305 0.930 . S
H290 C306 0.931 . S
C291 H279 0.929 . S
C291 C285 1.390 . S
C291 C288 1.386 . S
C292 C287 1.490 . S
C292 C294 1.395 . S
C292 C295 1.403 . S
H293 C299 0.930 . S
C294 H280 0.930 . S
C294 C292 1.395 . S
C294 C297 1.403 . S
C295 C292 1.403 . S
C295 C296 1.524 . S
C295 C299 1.400 . S
C296 H281 0.960 . S
C296 H282 0.960 . S
C296 H283 0.960 . S
C296 C295 1.524 . S
C297 C294 1.403 . S
C297 C298 1.392 . S
C297 C301 1.495 . S
C298 C297 1.392 . S
C298 C299 1.385 . S
C298 C300 1.478 . S
C299 H293 0.930 . S
C299 C295 1.400 . S
C299 C298 1.385 . S
C300 C298 1.478 . S
C300 C302 1.381 . S
C300 C306 1.383 . S
C301 C297 1.495 . S
C301 H307 0.959 . S
C301 H308 0.961 . S
C301 H309 0.960 . S
C302 C300 1.381 . S
C302 C303 1.394 . S
C302 H310 0.930 . S
C303 C302 1.394 . S
C303 C304 1.383 . S
C303 H311 0.929 . S
C304 C303 1.383 . S
C304 C305 1.377 . S
C305 H289 0.930 . S
C305 C304 1.377 . S
C305 C306 1.379 . S
C306 H290 0.931 . S
C306 C300 1.383 . S
C306 C305 1.379 . S
H307 C301 0.959 . S
H308 C301 0.961 . S
H309 C301 0.960 . S
H310 C302 0.930 . S
H311 C303 0.929 . S
H312 C320 0.929 . S
H313 C322 0.930 . S
H314 C324 0.930 . S
H315 C327 0.929 . S
H316 C330 0.930 . S
H317 C332 0.960 . S
H318 C332 0.960 . S
H319 C332 0.960 . S
C320 H312 0.929 . S
C320 C321 1.377 . S
C320 C322 1.384 . S
C321 C320 1.377 . S
C321 C327 1.390 . S
C322 H313 0.930 . S
C322 C320 1.384 . S
C322 C323 1.372 . S
C323 C322 1.372 . S
C323 C324 1.400 . S
C323 C328 1.490 . S
C324 H314 0.930 . S
C324 C323 1.400 . S
C324 C327 1.386 . S
H325 C341 0.930 . S
H326 C342 0.931 . S
C327 H315 0.929 . S
C327 C321 1.390 . S
C327 C324 1.386 . S
C328 C323 1.490 . S
C328 C330 1.395 . S
C328 C331 1.403 . S
H329 C335 0.930 . S
C330 H316 0.930 . S
C330 C328 1.395 . S
C330 C333 1.403 . S
C331 C328 1.403 . S
C331 C332 1.524 . S
C331 C335 1.400 . S
C332 H317 0.960 . S
C332 H318 0.960 . S
C332 H319 0.960 . S
C332 C331 1.524 . S
C333 C330 1.403 . S
C333 C334 1.392 . S
C333 C337 1.495 . S
C334 C333 1.392 . S
C334 C335 1.385 . S
C334 C336 1.478 . S
C335 H329 0.930 . S
C335 C331 1.400 . S
C335 C334 1.385 . S
C336 C334 1.478 . S
C336 C338 1.381 . S
C336 C342 1.383 . S
C337 C333 1.495 . S
C337 H343 0.959 . S
C337 H344 0.961 . S
C337 H345 0.960 . S
C338 C336 1.381 . S
C338 C339 1.394 . S
C338 H346 0.930 . S
C339 C338 1.394 . S
C339 C340 1.383 . S
C339 H347 0.929 . S
C340 C339 1.383 . S
C340 C341 1.377 . S
C341 H325 0.930 . S
C341 C340 1.377 . S
C341 C342 1.379 . S
C342 H326 0.931 . S
C342 C336 1.383 . S
C342 C341 1.379 . S
H343 C337 0.959 . S
H344 C337 0.961 . S
H345 C337 0.960 . S
H346 C338 0.930 . S
H347 C339 0.929 . S
H348 C356 0.929 . S
H349 C358 0.930 . S
H350 C360 0.930 . S
H351 C363 0.929 . S
H352 C366 0.930 . S
H353 C368 0.960 . S
H354 C368 0.960 . S
H355 C368 0.960 . S
C356 H348 0.929 . S
C356 C357 1.377 . S
C356 C358 1.384 . S
C357 C356 1.377 . S
C357 C363 1.390 . S
C358 H349 0.930 . S
C358 C356 1.384 . S
C358 C359 1.372 . S
C359 C358 1.372 . S
C359 C360 1.400 . S
C359 C364 1.490 . S
C360 H350 0.930 . S
C360 C359 1.400 . S
C360 C363 1.386 . S
H361 C377 0.930 . S
H362 C378 0.931 . S
C363 H351 0.929 . S
C363 C357 1.390 . S
C363 C360 1.386 . S
C364 C359 1.490 . S
C364 C366 1.395 . S
C364 C367 1.403 . S
H365 C371 0.930 . S
C366 H352 0.930 . S
C366 C364 1.395 . S
C366 C369 1.403 . S
C367 C364 1.403 . S
C367 C368 1.524 . S
C367 C371 1.400 . S
C368 H353 0.960 . S
C368 H354 0.960 . S
C368 H355 0.960 . S
C368 C367 1.524 . S
C369 C366 1.403 . S
C369 C370 1.392 . S
C369 C373 1.495 . S
C370 C369 1.392 . S
C370 C371 1.385 . S
C370 C372 1.478 . S
C371 H365 0.930 . S
C371 C367 1.400 . S
C371 C370 1.385 . S
C372 C370 1.478 . S
C372 C374 1.381 . S
C372 C378 1.383 . S
C373 C369 1.495 . S
C373 H379 0.959 . S
C373 H380 0.961 . S
C373 H381 0.960 . S
C374 C372 1.381 . S
C374 C375 1.394 . S
C374 H382 0.930 . S
C375 C374 1.394 . S
C375 C376 1.383 . S
C375 H383 0.929 . S
C376 C375 1.383 . S
C376 C377 1.377 . S
C377 H361 0.930 . S
C377 C376 1.377 . S
C377 C378 1.379 . S
C378 H362 0.931 . S
C378 C372 1.383 . S
C378 C377 1.379 . S
H379 C373 0.959 . S
H380 C373 0.961 . S
H381 C373 0.960 . S
H382 C374 0.930 . S
H383 C375 0.929 . S
H384 C392 0.929 . S
H385 C394 0.930 . S
H386 C396 0.930 . S
H387 C399 0.929 . S
H388 C402 0.930 . S
H389 C404 0.960 . S
H390 C404 0.960 . S
H391 C404 0.960 . S
C392 H384 0.929 . S
C392 C393 1.377 . S
C392 C394 1.384 . S
C393 C392 1.377 . S
C393 C399 1.390 . S
C394 H385 0.930 . S
C394 C392 1.384 . S
C394 C395 1.372 . S
C395 C394 1.372 . S
C395 C396 1.400 . S
C395 C400 1.490 . S
C396 H386 0.930 . S
C396 C395 1.400 . S
C396 C399 1.386 . S
H397 C413 0.930 . S
H398 C414 0.931 . S
C399 H387 0.929 . S
C399 C393 1.390 . S
C399 C396 1.386 . S
C400 C395 1.490 . S
C400 C402 1.395 . S
C400 C403 1.403 . S
H401 C407 0.930 . S
C402 H388 0.930 . S
C402 C400 1.395 . S
C402 C405 1.403 . S
C403 C400 1.403 . S
C403 C404 1.524 . S
C403 C407 1.400 . S
C404 H389 0.960 . S
C404 H390 0.960 . S
C404 H391 0.960 . S
C404 C403 1.524 . S
C405 C402 1.403 . S
C405 C406 1.392 . S
C405 C409 1.495 . S
C406 C405 1.392 . S
C406 C407 1.385 . S
C406 C408 1.478 . S
C407 H401 0.930 . S
C407 C403 1.400 . S
C407 C406 1.385 . S
C408 C406 1.478 . S
C408 C410 1.381 . S
C408 C414 1.383 . S
C409 C405 1.495 . S
C409 H415 0.959 . S
C409 H416 0.961 . S
C409 H417 0.960 . S
C410 C408 1.381 . S
C410 C411 1.394 . S
C410 H418 0.930 . S
C411 C410 1.394 . S
C411 C412 1.383 . S
C411 H419 0.929 . S
C412 C411 1.383 . S
C412 C413 1.377 . S
C413 H397 0.930 . S
C413 C412 1.377 . S
C413 C414 1.379 . S
C414 H398 0.931 . S
C414 C408 1.383 . S
C414 C413 1.379 . S
H415 C409 0.959 . S
H416 C409 0.961 . S
H417 C409 0.960 . S
H418 C410 0.930 . S
H419 C411 0.929 . S
H420 C428 0.929 . S
H421 C430 0.930 . S
H422 C432 0.930 . S
H423 C435 0.929 . S
H424 C438 0.930 . S
H425 C440 0.960 . S
H426 C440 0.960 . S
H427 C440 0.960 . S
C428 H420 0.929 . S
C428 C429 1.377 . S
C428 C430 1.384 . S
C429 C428 1.377 . S
C429 C435 1.390 . S
C430 H421 0.930 . S
C430 C428 1.384 . S
C430 C431 1.372 . S
C431 C430 1.372 . S
C431 C432 1.400 . S
C431 C436 1.490 . S
C432 H422 0.930 . S
C432 C431 1.400 . S
C432 C435 1.386 . S
H433 C449 0.930 . S
H434 C450 0.931 . S
C435 H423 0.929 . S
C435 C429 1.390 . S
C435 C432 1.386 . S
C436 C431 1.490 . S
C436 C438 1.395 1_655 S
C436 C439 1.403 . S
H437 C443 0.931 . S
C438 H424 0.930 . S
C438 C436 1.395 1_455 S
C438 C441 1.403 . S
C439 C436 1.403 . S
C439 C440 1.524 . S
C439 C443 1.402 . S
C440 H425 0.960 . S
C440 H426 0.960 . S
C440 H427 0.960 . S
C440 C439 1.524 . S
C441 C438 1.403 . S
C441 C442 1.392 . S
C441 C445 1.495 . S
C442 C441 1.392 . S
C442 C443 1.382 1_455 S
C442 C444 1.478 . S
C443 H437 0.931 . S
C443 C439 1.402 . S
C443 C442 1.382 1_655 S
C444 C442 1.478 . S
C444 C446 1.381 . S
C444 C450 1.383 . S
C445 C441 1.495 . S
C445 H451 0.959 . S
C445 H452 0.961 . S
C445 H453 0.960 . S
C446 C444 1.381 . S
C446 C447 1.394 . S
C446 H454 0.930 . S
C447 C446 1.394 . S
C447 C448 1.383 . S
C447 H455 0.929 . S
C448 C447 1.383 . S
C448 C449 1.377 . S
C449 H433 0.930 . S
C449 C448 1.377 . S
C449 C450 1.379 . S
C450 H434 0.931 . S
C450 C444 1.383 . S
C450 C449 1.379 . S
H451 C445 0.959 . S
H452 C445 0.961 . S
H453 C445 0.960 . S
H454 C446 0.930 . S
H455 C447 0.929 . S
H456 C464 0.929 . S
H457 C466 0.930 . S
H458 C468 0.930 . S
H459 C471 0.929 . S
H460 C474 0.930 . S
H461 C476 0.960 . S
H462 C476 0.960 . S
H463 C476 0.960 . S
C464 H456 0.929 . S
C464 C465 1.377 . S
C464 C466 1.384 . S
C465 C464 1.377 . S
C465 C471 1.390 . S
C466 H457 0.930 . S
C466 C464 1.384 . S
C466 C467 1.372 . S
C467 C466 1.372 . S
C467 C468 1.400 . S
C467 C472 1.490 . S
C468 H458 0.930 . S
C468 C467 1.400 . S
C468 C471 1.386 . S
H469 C485 0.930 . S
H470 C486 0.931 . S
C471 H459 0.929 . S
C471 C465 1.390 . S
C471 C468 1.386 . S
C472 C467 1.490 . S
C472 C474 1.395 . S
C472 C475 1.403 . S
H473 C479 0.930 . S
C474 H460 0.930 . S
C474 C472 1.395 . S
C474 C477 1.403 . S
C475 C472 1.403 . S
C475 C476 1.524 . S
C475 C479 1.400 . S
C476 H461 0.960 . S
C476 H462 0.960 . S
C476 H463 0.960 . S
C476 C475 1.524 . S
C477 C474 1.403 . S
C477 C478 1.392 . S
C477 C481 1.495 . S
C478 C477 1.392 . S
C478 C479 1.385 . S
C478 C480 1.478 . S
C479 H473 0.930 . S
C479 C475 1.400 . S
C479 C478 1.385 . S
C480 C478 1.478 . S
C480 C482 1.381 . S
C480 C486 1.383 . S
C481 C477 1.495 . S
C481 H487 0.959 . S
C481 H488 0.961 . S
C481 H489 0.960 . S
C482 C480 1.381 . S
C482 C483 1.394 . S
C482 H490 0.930 . S
C483 C482 1.394 . S
C483 C484 1.383 . S
C483 H491 0.929 . S
C484 C483 1.383 . S
C484 C485 1.377 . S
C485 H469 0.930 . S
C485 C484 1.377 . S
C485 C486 1.379 . S
C486 H470 0.931 . S
C486 C480 1.383 . S
C486 C485 1.379 . S
H487 C481 0.959 . S
H488 C481 0.961 . S
H489 C481 0.960 . S
H490 C482 0.930 . S
H491 C483 0.929 . S
H492 C500 0.929 . S
H493 C502 0.930 . S
H494 C504 0.930 . S
H495 C507 0.929 . S
H496 C510 0.930 . S
H497 C512 0.960 . S
H498 C512 0.960 . S
H499 C512 0.960 . S
C500 H492 0.929 . S
C500 C501 1.377 . S
C500 C502 1.384 . S
C501 C500 1.377 . S
C501 C507 1.390 . S
C502 H493 0.930 . S
C502 C500 1.384 . S
C502 C503 1.372 . S
C503 C502 1.372 . S
C503 C504 1.400 . S
C503 C508 1.490 . S
C504 H494 0.930 . S
C504 C503 1.400 . S
C504 C507 1.386 . S
H505 C521 0.930 . S
H506 C522 0.931 . S
C507 H495 0.929 . S
C507 C501 1.390 . S
C507 C504 1.386 . S
C508 C503 1.490 . S
C508 C510 1.395 1_545 S
C508 C511 1.403 . S
H509 C515 0.930 . S
C510 H496 0.930 . S
C510 C508 1.395 1_565 S
C510 C513 1.403 . S
C511 C508 1.403 . S
C511 C512 1.524 . S
C511 C515 1.400 . S
C512 H497 0.960 . S
C512 H498 0.960 . S
C512 H499 0.960 . S
C512 C511 1.524 . S
C513 C510 1.403 . S
C513 C514 1.392 . S
C513 C517 1.495 . S
C514 C513 1.392 . S
C514 C515 1.385 1_565 S
C514 C516 1.478 . S
C515 H509 0.930 . S
C515 C511 1.400 . S
C515 C514 1.385 1_545 S
C516 C514 1.478 . S
C516 C518 1.381 . S
C516 C522 1.383 . S
C517 C513 1.495 . S
C517 H523 0.959 . S
C517 H524 0.961 . S
C517 H525 0.960 . S
C518 C516 1.381 . S
C518 C519 1.394 . S
C518 H526 0.930 . S
C519 C518 1.394 . S
C519 C520 1.383 . S
C519 H527 0.929 . S
C520 C519 1.383 . S
C520 C521 1.377 . S
C521 H505 0.930 . S
C521 C520 1.377 . S
C521 C522 1.379 . S
C522 H506 0.931 . S
C522 C516 1.383 . S
C522 C521 1.379 . S
H523 C517 0.959 . S
H524 C517 0.961 . S
H525 C517 0.960 . S
H526 C518 0.930 . S
H527 C519 0.929 . S
H528 C536 0.929 . S
H529 C538 0.930 . S
H530 C540 0.929 1_554 S
H531 C543 0.929 . S
H532 C546 0.930 . S
H533 C548 0.960 . S
H534 C548 0.960 . S
H535 C548 0.960 . S
C536 H528 0.929 . S
C536 C537 1.377 . S
C536 C538 1.384 . S
C537 C536 1.377 . S
C537 C543 1.390 . S
C538 H529 0.930 . S
C538 C536 1.384 . S
C538 C539 1.372 . S
C539 C538 1.372 . S
C539 C540 1.400 . S
C539 C544 1.490 . S
C540 H530 0.929 1_556 S
C540 C539 1.400 . S
C540 C543 1.386 . S
H541 C557 0.930 . S
H542 C558 0.931 . S
C543 H531 0.929 . S
C543 C537 1.390 . S
C543 C540 1.386 . S
C544 C539 1.490 . S
C544 C546 1.395 . S
C544 C547 1.403 1_556 S
H545 C551 0.930 . S
C546 H532 0.930 . S
C546 C544 1.395 . S
C546 C549 1.403 . S
C547 C544 1.403 1_554 S
C547 C548 1.524 . S
C547 C551 1.400 . S
C548 H533 0.960 . S
C548 H534 0.960 . S
C548 H535 0.960 . S
C548 C547 1.524 . S
C549 C546 1.403 . S
C549 C550 1.405 . S
C549 C553 1.495 . S
C550 C549 1.405 . S
C550 C551 1.374 1_556 S
C550 C552 1.475 1_556 S
C551 H545 0.930 . S
C551 C547 1.400 . S
C551 C550 1.374 1_554 S
C552 C550 1.475 1_554 S
C552 C554 1.381 . S
C552 C558 1.383 . S
C553 C549 1.495 . S
C553 H559 0.959 . S
C553 H560 0.961 . S
C553 H561 0.960 . S
C554 C552 1.381 . S
C554 C555 1.394 . S
C554 H562 0.931 1_554 S
C555 C554 1.394 . S
C555 C556 1.383 . S
C555 H563 0.929 . S
C556 C555 1.383 . S
C556 C557 1.377 . S
C557 H541 0.930 . S
C557 C556 1.377 . S
C557 C558 1.379 . S
C558 H542 0.931 . S
C558 C552 1.383 . S
C558 C557 1.379 . S
H559 C553 0.959 . S
H560 C553 0.961 . S
H561 C553 0.960 . S
H562 C554 0.931 1_556 S
H563 C555 0.929 . S
H564 C572 0.929 . S
H565 C574 0.930 . S
H566 C576 0.930 . S
H567 C579 0.929 . S
H568 C582 0.930 . S
H569 C584 0.960 . S
H570 C584 0.960 . S
H571 C584 0.960 . S
C572 H564 0.929 . S
C572 C573 1.377 . S
C572 C574 1.384 . S
C573 C572 1.377 . S
C573 C579 1.390 . S
C574 H565 0.930 . S
C574 C572 1.384 . S
C574 C575 1.372 . S
C575 C574 1.372 . S
C575 C576 1.400 . S
C575 C580 1.490 . S
C576 H566 0.930 . S
C576 C575 1.400 . S
C576 C579 1.386 . S
H577 C593 0.930 . S
H578 C594 0.931 . S
C579 H567 0.929 . S
C579 C573 1.390 . S
C579 C576 1.386 . S
C580 C575 1.490 . S
C580 C582 1.395 . S
C580 C583 1.403 . S
H581 C587 0.930 . S
C582 H568 0.930 . S
C582 C580 1.395 . S
C582 C585 1.403 1_545 S
C583 C580 1.403 . S
C583 C584 1.524 . S
C583 C587 1.400 1_545 S
C584 H569 0.960 . S
C584 H570 0.960 . S
C584 H571 0.960 . S
C584 C583 1.524 . S
C585 C582 1.403 1_565 S
C585 C586 1.392 . S
C585 C589 1.495 . S
C586 C585 1.392 . S
C586 C587 1.385 . S
C586 C588 1.478 . S
C587 H581 0.930 . S
C587 C583 1.400 1_565 S
C587 C586 1.385 . S
C588 C586 1.478 . S
C588 C590 1.381 . S
C588 C594 1.383 . S
C589 C585 1.495 . S
C589 H595 0.959 . S
C589 H596 0.961 . S
C589 H597 0.960 . S
C590 C588 1.381 . S
C590 C591 1.394 . S
C590 H598 0.930 . S
C591 C590 1.394 . S
C591 C592 1.383 . S
C591 H599 0.929 . S
C592 C591 1.383 . S
C592 C593 1.377 . S
C593 H577 0.930 . S
C593 C592 1.377 . S
C593 C594 1.379 . S
C594 H578 0.931 . S
C594 C588 1.383 . S
C594 C593 1.379 . S
H595 C589 0.959 . S
H596 C589 0.961 . S
H597 C589 0.960 . S
H598 C590 0.930 . S
H599 C591 0.929 . S
H600 C608 0.929 . S
H601 C610 0.930 . S
H602 C612 0.930 . S
H603 C615 0.929 . S
H604 C618 0.930 . S
H605 C620 0.960 . S
H606 C620 0.960 . S
H607 C620 0.960 . S
C608 H600 0.929 . S
C608 C609 1.377 . S
C608 C610 1.384 . S
C609 C608 1.377 . S
C609 C615 1.390 . S
C610 H601 0.930 . S
C610 C608 1.384 . S
C610 C611 1.372 . S
C611 C610 1.372 . S
C611 C612 1.400 . S
C611 C616 1.490 . S
C612 H602 0.930 . S
C612 C611 1.400 . S
C612 C615 1.386 . S
H613 C629 0.930 . S
H614 C630 0.931 . S
C615 H603 0.929 . S
C615 C609 1.390 . S
C615 C612 1.386 . S
C616 C611 1.490 . S
C616 C618 1.395 . S
C616 C619 1.403 . S
H617 C623 0.930 . S
C618 H604 0.930 . S
C618 C616 1.395 . S
C618 C621 1.403 1_455 S
C619 C616 1.403 . S
C619 C620 1.524 . S
C619 C623 1.400 1_455 S
C620 H605 0.960 . S
C620 H606 0.960 . S
C620 H607 0.960 . S
C620 C619 1.524 . S
C621 C618 1.403 1_655 S
C621 C622 1.392 . S
C621 C625 1.495 . S
C622 C621 1.392 . S
C622 C623 1.385 . S
C622 C624 1.478 . S
C623 H617 0.930 . S
C623 C619 1.400 1_655 S
C623 C622 1.385 . S
C624 C622 1.478 . S
C624 C626 1.381 . S
C624 C630 1.383 . S
C625 C621 1.495 . S
C625 H631 0.959 . S
C625 H632 0.961 . S
C625 H633 0.960 . S
C626 C624 1.381 . S
C626 C627 1.394 . S
C626 H634 0.930 . S
C627 C626 1.394 . S
C627 C628 1.383 . S
C627 H635 0.929 . S
C628 C627 1.383 . S
C628 C629 1.377 . S
C629 H613 0.930 . S
C629 C628 1.377 . S
C629 C630 1.379 . S
C630 H614 0.931 . S
C630 C624 1.383 . S
C630 C629 1.379 . S
H631 C625 0.959 . S
H632 C625 0.961 . S
H633 C625 0.960 . S
H634 C626 0.930 . S
H635 C627 0.929 . S
H636 C644 0.929 . S
H637 C646 0.930 . S
H638 C648 0.930 . S
H639 C651 0.929 . S
H640 C654 0.930 . S
H641 C656 0.960 . S
H642 C656 0.960 . S
H643 C656 0.960 . S
C644 H636 0.929 . S
C644 C645 1.377 . S
C644 C646 1.384 . S
C645 C644 1.377 . S
C645 C651 1.390 . S
C646 H637 0.930 . S
C646 C644 1.384 . S
C646 C647 1.372 . S
C647 C646 1.372 . S
C647 C648 1.400 . S
C647 C652 1.490 . S
C648 H638 0.930 . S
C648 C647 1.400 . S
C648 C651 1.386 . S
H649 C665 0.930 . S
H650 C666 0.931 . S
C651 H639 0.929 . S
C651 C645 1.390 . S
C651 C648 1.386 . S
C652 C647 1.490 . S
C652 C654 1.395 1_655 S
C652 C655 1.403 . S
H653 C659 0.930 . S
C654 H640 0.930 . S
C654 C652 1.395 1_455 S
C654 C657 1.403 . S
C655 C652 1.403 . S
C655 C656 1.524 . S
C655 C659 1.400 . S
C656 H641 0.960 . S
C656 H642 0.960 . S
C656 H643 0.960 . S
C656 C655 1.524 . S
C657 C654 1.403 . S
C657 C658 1.392 . S
C657 C661 1.495 . S
C658 C657 1.392 . S
C658 C659 1.385 1_455 S
C658 C660 1.478 . S
C659 H653 0.930 . S
C659 C655 1.400 . S
C659 C658 1.385 1_655 S
C660 C658 1.478 . S
C660 C662 1.381 . S
C660 C666 1.383 . S
C661 C657 1.495 . S
C661 H667 0.959 . S
C661 H668 0.961 . S
C661 H669 0.960 . S
C662 C660 1.381 . S
C662 C663 1.394 . S
C662 H670 0.930 . S
C663 C662 1.394 . S
C663 C664 1.383 . S
C663 H671 0.929 . S
C664 C663 1.383 . S
C664 C665 1.377 . S
C665 H649 0.930 . S
C665 C664 1.377 . S
C665 C666 1.379 . S
C666 H650 0.931 . S
C666 C660 1.383 . S
C666 C665 1.379 . S
H667 C661 0.959 . S
H668 C661 0.961 . S
H669 C661 0.960 . S
H670 C662 0.930 . S
H671 C663 0.929 . S
H672 C680 0.929 . S
H673 C682 0.930 . S
H674 C684 0.930 . S
H675 C687 0.929 . S
H676 C690 0.930 . S
H677 C692 0.960 . S
H678 C692 0.960 1_556 S
H679 C692 0.960 1_556 S
C680 H672 0.929 . S
C680 C681 1.377 . S
C680 C682 1.384 . S
C681 C680 1.377 . S
C681 C687 1.390 . S
C682 H673 0.930 . S
C682 C680 1.384 . S
C682 C683 1.372 . S
C683 C682 1.372 . S
C683 C684 1.400 . S
C683 C688 1.490 . S
C684 H674 0.930 . S
C684 C683 1.400 . S
C684 C687 1.386 . S
H685 C701 0.930 . S
H686 C702 0.931 . S
C687 H675 0.929 . S
C687 C681 1.390 . S
C687 C684 1.386 . S
C688 C683 1.490 . S
C688 C690 1.395 . S
C688 C691 1.414 . S
H689 C695 0.930 . S
C690 H676 0.930 . S
C690 C688 1.395 . S
C690 C693 1.403 . S
C691 C688 1.414 . S
C691 C692 1.523 1_556 S
C691 C695 1.389 1_556 S
C692 H677 0.960 . S
C692 H678 0.960 1_554 S
C692 H679 0.960 1_554 S
C692 C691 1.523 1_554 S
C693 C690 1.403 . S
C693 C694 1.392 1_556 S
C693 C697 1.495 . S
C694 C693 1.392 1_554 S
C694 C695 1.385 . S
C694 C696 1.478 . S
C695 H689 0.930 . S
C695 C691 1.389 1_554 S
C695 C694 1.385 . S
C696 C694 1.478 . S
C696 C698 1.381 . S
C696 C702 1.383 . S
C697 C693 1.495 . S
C697 H703 0.959 . S
C697 H704 0.961 1_556 S
C697 H705 0.960 1_556 S
C698 C696 1.381 . S
C698 C699 1.394 . S
C698 H706 0.930 . S
C699 C698 1.394 . S
C699 C700 1.383 . S
C699 H707 0.929 . S
C700 C699 1.383 . S
C700 C701 1.377 . S
C701 H685 0.930 . S
C701 C700 1.377 . S
C701 C702 1.379 . S
C702 H686 0.931 . S
C702 C696 1.383 . S
C702 C701 1.379 . S
H703 C697 0.959 . S
H704 C697 0.961 1_554 S
H705 C697 0.960 1_554 S
H706 C698 0.930 . S
H707 C699 0.929 . S
H708 C716 0.929 . S
H709 C718 0.930 . S
H710 C720 0.930 . S
H711 C723 0.929 . S
H712 C726 0.930 . S
H713 C728 0.960 . S
H714 C728 0.960 . S
H715 C728 0.960 . S
C716 H708 0.929 . S
C716 C717 1.377 . S
C716 C718 1.384 . S
C717 C716 1.377 . S
C717 C723 1.390 . S
C718 H709 0.930 . S
C718 C716 1.384 . S
C718 C719 1.372 . S
C719 C718 1.372 . S
C719 C720 1.400 . S
C719 C724 1.490 . S
C720 H710 0.930 . S
C720 C719 1.400 . S
C720 C723 1.386 . S
H721 C737 0.930 . S
H722 C738 0.931 . S
C723 H711 0.929 . S
C723 C717 1.390 . S
C723 C720 1.386 . S
C724 C719 1.490 . S
C724 C726 1.395 1_545 S
C724 C727 1.403 . S
H725 C731 0.930 . S
C726 H712 0.930 . S
C726 C724 1.395 1_565 S
C726 C729 1.403 . S
C727 C724 1.403 . S
C727 C728 1.524 . S
C727 C731 1.400 . S
C728 H713 0.960 . S
C728 H714 0.960 . S
C728 H715 0.960 . S
C728 C727 1.524 . S
C729 C726 1.403 . S
C729 C730 1.392 . S
C729 C733 1.495 . S
C730 C729 1.392 . S
C730 C731 1.385 1_565 S
C730 C732 1.478 . S
C731 H725 0.930 . S
C731 C727 1.400 . S
C731 C730 1.385 1_545 S
C732 C730 1.478 . S
C732 C734 1.381 . S
C732 C738 1.383 . S
C733 C729 1.495 . S
C733 H739 0.959 . S
C733 H740 0.961 . S
C733 H741 0.960 . S
C734 C732 1.381 . S
C734 C735 1.394 . S
C734 H742 0.930 . S
C735 C734 1.394 . S
C735 C736 1.383 . S
C735 H743 0.929 . S
C736 C735 1.383 . S
C736 C737 1.377 . S
C737 H721 0.930 . S
C737 C736 1.377 . S
C737 C738 1.379 . S
C738 H722 0.931 . S
C738 C732 1.383 . S
C738 C737 1.379 . S
H739 C733 0.959 . S
H740 C733 0.961 . S
H741 C733 0.960 . S
H742 C734 0.930 . S
H743 C735 0.929 . S
C213 C73 1.572 . S
C232 C20 1.590 . S
C249 C54 1.596 . S
C268 C5 1.579 . S
C285 C88 1.596 . S
C304 C39 1.583 . S
C321 C122 1.595 . S
C340 C141 1.584 . S
C357 C175 1.573 . S
C376 C156 1.588 . S
C393 C107 1.567 . S
C412 C190 1.598 . S
C429 C169 1.056 . S
C448 C33 1.059 . S
C465 C203 1.056 . S
C484 C67 1.055 . S
C501 C135 1.056 . S
C520 C101 1.059 . S
C537 C104 1.404 . S
C556 C2 1.393 . S
C573 C138 1.404 . S
C592 C36 1.399 . S
C609 C70 1.404 . S
C628 C172 1.402 . S
C645 C145 1.317 . S
C664 C9 1.334 . S
C681 C43 1.317 . S
C700 C179 1.336 . S
C717 C111 1.316 . S
C736 C77 1.338 . S
