# Generated by pormake.
# Topology wjd, (6)-cn, num edge types: 1
# Building blocks:
#     Node 0, Type 0, BuildingBlock: MAKGUD_clean_sbu_1, # of connection points: 6
#     Node 1, Type 0, BuildingBlock: MAKGUD_clean_sbu_1, # of connection points: 6
#     Node 2, Type 0, BuildingBlock: MAKGUD_clean_sbu_1, # of connection points: 6
#     Node 3, Type 0, BuildingBlock: MAKGUD_clean_sbu_1, # of connection points: 6
#     Node 4, Type 0, BuildingBlock: MAKGUD_clean_sbu_1, # of connection points: 6
#     Node 5, Type 0, BuildingBlock: MAKGUD_clean_sbu_1, # of connection points: 6
#     Node 6, Type 0, BuildingBlock: MAKGUD_clean_sbu_1, # of connection points: 6
#     Node 7, Type 0, BuildingBlock: MAKGUD_clean_sbu_1, # of connection points: 6
#     Node 8, Type 0, BuildingBlock: MAKGUD_clean_sbu_1, # of connection points: 6
#     Node 9, Type 0, BuildingBlock: MAKGUD_clean_sbu_1, # of connection points: 6
#     Node 10, Type 0, BuildingBlock: MAKGUD_clean_sbu_1, # of connection points: 6
#     Node 11, Type 0, BuildingBlock: MAKGUD_clean_sbu_1, # of connection points: 6
#     Edge 12, Type (0, 0), BuildingBlock: AJUNOK_clean_linker_0, # of connection points: 2
#     Edge 13, Type (0, 0), BuildingBlock: AJUNOK_clean_linker_0, # of connection points: 2
#     Edge 14, Type (0, 0), BuildingBlock: AJUNOK_clean_linker_0, # of connection points: 2
#     Edge 15, Type (0, 0), BuildingBlock: AJUNOK_clean_linker_0, # of connection points: 2
#     Edge 16, Type (0, 0), BuildingBlock: AJUNOK_clean_linker_0, # of connection points: 2
#     Edge 17, Type (0, 0), BuildingBlock: AJUNOK_clean_linker_0, # of connection points: 2
#     Edge 18, Type (0, 0), BuildingBlock: AJUNOK_clean_linker_0, # of connection points: 2
#     Edge 19, Type (0, 0), BuildingBlock: AJUNOK_clean_linker_0, # of connection points: 2
#     Edge 20, Type (0, 0), BuildingBlock: AJUNOK_clean_linker_0, # of connection points: 2
#     Edge 21, Type (0, 0), BuildingBlock: AJUNOK_clean_linker_0, # of connection points: 2
#     Edge 22, Type (0, 0), BuildingBlock: AJUNOK_clean_linker_0, # of connection points: 2
#     Edge 23, Type (0, 0), BuildingBlock: AJUNOK_clean_linker_0, # of connection points: 2
#     Edge 24, Type (0, 0), BuildingBlock: AJUNOK_clean_linker_0, # of connection points: 2
#     Edge 25, Type (0, 0), BuildingBlock: AJUNOK_clean_linker_0, # of connection points: 2
#     Edge 26, Type (0, 0), BuildingBlock: AJUNOK_clean_linker_0, # of connection points: 2
#     Edge 27, Type (0, 0), BuildingBlock: AJUNOK_clean_linker_0, # of connection points: 2
#     Edge 28, Type (0, 0), BuildingBlock: AJUNOK_clean_linker_0, # of connection points: 2
#     Edge 29, Type (0, 0), BuildingBlock: AJUNOK_clean_linker_0, # of connection points: 2
#     Edge 30, Type (0, 0), BuildingBlock: AJUNOK_clean_linker_0, # of connection points: 2
#     Edge 31, Type (0, 0), BuildingBlock: AJUNOK_clean_linker_0, # of connection points: 2
#     Edge 32, Type (0, 0), BuildingBlock: AJUNOK_clean_linker_0, # of connection points: 2
#     Edge 33, Type (0, 0), BuildingBlock: AJUNOK_clean_linker_0, # of connection points: 2
#     Edge 34, Type (0, 0), BuildingBlock: AJUNOK_clean_linker_0, # of connection points: 2
#     Edge 35, Type (0, 0), BuildingBlock: AJUNOK_clean_linker_0, # of connection points: 2
#     Edge 36, Type (0, 0), BuildingBlock: AJUNOK_clean_linker_0, # of connection points: 2
#     Edge 37, Type (0, 0), BuildingBlock: AJUNOK_clean_linker_0, # of connection points: 2
#     Edge 38, Type (0, 0), BuildingBlock: AJUNOK_clean_linker_0, # of connection points: 2
#     Edge 39, Type (0, 0), BuildingBlock: AJUNOK_clean_linker_0, # of connection points: 2
#     Edge 40, Type (0, 0), BuildingBlock: AJUNOK_clean_linker_0, # of connection points: 2
#     Edge 41, Type (0, 0), BuildingBlock: AJUNOK_clean_linker_0, # of connection points: 2
#     Edge 42, Type (0, 0), BuildingBlock: AJUNOK_clean_linker_0, # of connection points: 2
#     Edge 43, Type (0, 0), BuildingBlock: AJUNOK_clean_linker_0, # of connection points: 2
#     Edge 44, Type (0, 0), BuildingBlock: AJUNOK_clean_linker_0, # of connection points: 2
#     Edge 45, Type (0, 0), BuildingBlock: AJUNOK_clean_linker_0, # of connection points: 2
#     Edge 46, Type (0, 0), BuildingBlock: AJUNOK_clean_linker_0, # of connection points: 2
#     Edge 47, Type (0, 0), BuildingBlock: AJUNOK_clean_linker_0, # of connection points: 2
# Relax obj value: 0.151
# Max RMSD: 0.291
# Mean RMSD: 0.291
data_MOF--net-wjd--node1-MAKGUD_clean_sbu_1--edge1-AJUNOK_clean_linker_0
_symmetry_space_group_name_H-M    P1
_symmetry_Int_Tables_number       1
_symmetry_cell_setting            triclinic
loop_
_symmetry_equiv_pos_as_xyz
'x, y, z'
_cell_length_a     28.846448
_cell_length_b     28.479463
_cell_length_c     36.721534
_cell_angle_alpha  89.86622
_cell_angle_beta   89.308198
_cell_angle_gamma 120.69714
loop_
_atom_site_label
_atom_site_type_symbol
_atom_site_fract_x
_atom_site_fract_y
_atom_site_fract_z
_atom_type_partial_charge
O0 O 0.57165 0.16493 0.10407 0.0
Tb1 Tb 0.50494 0.17153 0.12591 0.0
C2 C 0.40597 0.1469 0.17681 0.0
O3 O 0.40326 0.14344 0.08984 0.0
Tb4 Tb 0.3235 0.11221 0.11207 0.0
C5 C 0.25069 1.0069 0.10283 0.0
O6 O 0.46767 0.12492 0.07723 0.0
O7 O 0.28541 0.16024 0.10265 0.0
C8 C 0.2562 0.15204 0.07351 0.0
O9 O 0.25601 0.11945 0.0482 0.0
O10 O 0.43039 0.12502 0.15884 0.0
O11 O 0.35838 0.13807 0.16597 0.0
O12 O 0.53078 0.25719 0.11873 0.0
C13 C 0.41955 0.11598 0.07042 0.0
C14 C 0.59343 0.16545 0.13492 0.0
O15 O 0.27832 1.04177 0.07693 0.0
O16 O 0.26567 1.03123 0.1342 0.0
C17 C 0.55482 0.29104 0.14568 0.0
O18 O 0.55517 0.27054 0.17771 0.0
O19 O 0.56404 0.16775 0.1615 0.0
O20 O 0.71427 0.57512 0.39928 0.0
Tb21 Tb 0.79502 0.64201 0.38565 0.0
C22 C 0.8643 0.74346 0.33485 0.0
O23 O 0.86306 0.75048 0.42307 0.0
Tb24 Tb 0.90775 0.82879 0.39523 0.0
C25 C 0.8713 0.8977 0.39132 0.0
O26 O 0.7835 0.67629 0.43547 0.0
O27 O 0.9948 0.87056 0.40008 0.0
C28 C 1.02027 0.89468 0.43002 0.0
O29 O 0.99225 0.89295 0.45899 0.0
O30 O 0.82292 0.71994 0.35764 0.0
O31 O 0.90363 0.79323 0.34218 0.0
O32 O 0.85308 0.61537 0.39148 0.0
C33 C 0.81663 0.72862 0.44074 0.0
C34 C 0.70104 0.55697 0.36631 0.0
O35 O 0.89033 0.88777 0.42048 0.0
O36 O 0.87209 0.86799 0.36474 0.0
C37 C 0.86811 0.5994 0.3623 0.0
O38 O 0.85245 0.6065 0.33035 0.0
O39 O 0.74072 0.58762 0.34397 0.0
O40 O 0.94268 0.38972 0.08935 0.0
Tb41 Tb 0.93463 0.3137 0.10975 0.0
C42 C 0.97079 0.25088 0.16236 0.0
O43 O 0.96176 0.23583 0.07582 0.0
Tb44 Tb 0.99384 0.18968 0.10069 0.0
C45 C 0.0928 0.21251 0.08267 0.0
O46 O 0.97171 0.31474 0.0572 0.0
O47 O 0.9454 0.10088 0.09738 0.0
C48 C 0.93313 0.06904 0.12635 0.0
O49 O 0.94291 0.09094 0.15884 0.0
O50 O 0.98718 0.29088 0.1381 0.0
O51 O 0.97829 0.2095 0.15538 0.0
O52 O 0.84945 0.25127 0.11084 0.0
C53 C 0.98377 0.27657 0.05226 0.0
C54 C 0.94368 0.41098 0.12086 0.0
O55 O 1.05351 0.19874 0.06008 0.0
O56 O 0.077 0.21673 0.11532 0.0
C57 C 0.82112 0.23811 0.14149 0.0
O58 O 0.84643 0.2586 0.17211 0.0
O59 O 0.9411 0.37771 0.14646 0.0
O60 O 0.57007 0.21511 0.40398 0.0
Tb61 Tb 0.50064 0.21874 0.38351 0.0
C62 C 0.40167 0.17563 0.33141 0.0
O63 O 0.39722 0.19898 0.41674 0.0
Tb64 Tb 0.31804 0.16228 0.39296 0.0
C65 C 0.244 0.06113 0.4133 0.0
O66 O 0.46374 0.18764 0.43678 0.0
O67 O 0.27445 0.20665 0.38871 0.0
C68 C 0.24719 0.20855 0.41723 0.0
O69 O 0.25498 0.1921 0.44879 0.0
O70 O 0.42493 0.16142 0.35645 0.0
O71 O 0.35453 0.17174 0.33874 0.0
O72 O 0.52174 0.30323 0.37937 0.0
C73 C 0.41447 0.17807 0.44134 0.0
C74 C 0.59093 0.21498 0.37235 0.0
O75 O 0.26719 0.10297 0.43485 0.0
O76 O 0.26476 0.07609 0.38061 0.0
C77 C 0.54188 0.33003 0.34855 0.0
O78 O 0.54179 0.30267 0.31978 0.0
O79 O 0.55931 0.21452 0.34701 0.0
O80 O 0.74251 0.54175 0.09291 0.0
Tb81 Tb 0.80818 0.6165 0.11667 0.0
C82 C 0.86134 0.69531 0.18133 0.0
O83 O 0.88408 0.72292 0.06114 0.0
Tb84 Tb 0.91965 0.76549 0.11166 0.0
C85 C 0.91192 0.85519 0.11561 0.0
O86 O 0.79528 0.66341 0.07569 0.0
O87 O 1.00615 0.79723 0.11217 0.0
C88 C 1.03651 0.8213 0.08318 0.0
O89 O 1.01276 0.81864 0.05233 0.0
O90 O 0.8159 0.66426 0.16444 0.0
O91 O 0.90768 0.72251 0.16345 0.0
O92 O 0.87308 0.59849 0.11249 0.0
C93 C 0.83245 0.70173 0.05452 0.0
C94 C 0.71733 0.51942 0.12339 0.0
O95 O 0.94898 0.8509 0.09825 0.0
O96 O 0.87838 0.80835 0.13115 0.0
C97 C 0.8796 0.57277 0.14012 0.0
O98 O 0.85317 0.56801 0.17061 0.0
O99 O 0.7433 0.55205 0.14998 0.0
O100 O 0.92016 0.40657 0.40452 0.0
Tb101 Tb 0.93505 0.34495 0.38077 0.0
C102 C 0.95 0.2786 0.31788 0.0
O103 O 0.95712 0.27147 0.44109 0.0
Tb104 Tb 0.96491 0.23061 0.39337 0.0
C105 C 1.05776 0.23048 0.39734 0.0
O106 O 0.99538 0.35977 0.42162 0.0
O107 O 0.9064 0.14378 0.39796 0.0
C108 C 0.90554 0.11251 0.37136 0.0
O109 O 0.93568 0.13635 0.34231 0.0
O110 O 0.96451 0.32747 0.33062 0.0
O111 O 0.93612 0.2358 0.33924 0.0
O112 O 0.84861 0.2838 0.3834 0.0
C113 C 0.99067 0.32376 0.446 0.0
C114 C 0.93323 0.43787 0.37587 0.0
O115 O 1.0132 0.19825 0.41486 0.0
O116 O 1.05039 0.26372 0.37685 0.0
C117 C 0.81967 0.28486 0.35606 0.0
O118 O 0.84616 0.31637 0.32803 0.0
O119 O 0.94839 0.41722 0.34999 0.0
O120 O 0.23347 0.59101 0.59375 0.0
Tb121 Tb 0.21345 0.51161 0.6165 0.0
C122 C 0.18023 0.42229 0.67862 0.0
O123 O 0.17258 0.39223 0.57574 0.0
Tb124 Tb 0.14388 0.33206 0.61956 0.0
C125 C 1.04646 0.24387 0.60978 0.0
O126 O 0.14901 0.45748 0.57959 0.0
O127 O 0.1994 0.30182 0.6263 0.0
C128 C 0.20882 0.27987 0.59765 0.0
O129 O 0.19054 0.28477 0.56612 0.0
O130 O 0.21115 0.47413 0.66913 0.0
O131 O 0.14019 0.38884 0.65769 0.0
O132 O 0.29703 0.53736 0.60285 0.0
C133 C 0.14198 0.41169 0.56563 0.0
C134 C 0.21654 0.60717 0.62121 0.0
O135 O 0.07878 0.27565 0.58398 0.0
O136 O 1.06874 0.26273 0.64113 0.0
C137 C 0.33339 0.5615 0.62839 0.0
O138 O 0.31656 0.56228 0.66165 0.0
O139 O 0.19684 0.56879 0.64611 0.0
O140 O 0.40692 0.88976 0.92323 0.0
Tb141 Tb 0.34743 0.90169 0.89459 0.0
C142 C 0.29704 0.93288 0.82979 0.0
O143 O 0.2707 0.92471 0.94915 0.0
Tb144 Tb 0.23602 0.93864 0.90094 0.0
C145 C 0.24546 1.03702 0.90437 0.0
O146 O 0.35969 0.9623 0.93485 0.0
O147 O 0.14897 0.88561 0.89952 0.0
C148 C 0.12424 0.89379 0.87255 0.0
O149 O 0.1541 0.92877 0.84682 0.0
O150 O 0.34145 0.94163 0.84579 0.0
O151 O 0.2505 0.9137 0.8475 0.0
O152 O 0.28209 0.8163 0.8967 0.0
C153 C 0.32155 0.95827 0.95659 0.0
C154 C 0.43739 0.89633 0.89506 0.0
O155 O 0.21531 0.99544 0.9253 0.0
O156 O 0.27169 1.02384 0.88134 0.0
C157 C 0.2786 0.78477 0.86927 0.0
O158 O 0.30829 0.80847 0.84002 0.0
O159 O 0.4172 0.90627 0.86656 0.0
O160 O 0.57544 0.76239 0.57931 0.0
Tb161 Tb 0.65552 0.81778 0.60096 0.0
C162 C 0.72982 0.84674 0.66918 0.0
O163 O 0.7788 0.88565 0.55469 0.0
Tb164 Tb 0.81601 0.89923 0.6077 0.0
C165 C 0.90517 0.89318 0.60477 0.0
O166 O 0.7033 0.80109 0.56225 0.0
O167 O 0.84575 0.98622 0.61421 0.0
C168 C 0.87634 1.01945 0.58775 0.0
O169 O 0.88218 0.99774 0.55781 0.0
O170 O 0.6896 0.84865 0.65431 0.0
O171 O 0.7641 0.84035 0.64912 0.0
O172 O 0.63376 0.87944 0.59124 0.0
C173 C 0.74642 0.83582 0.54316 0.0
C174 C 0.5589 0.72591 0.60517 0.0
O175 O 0.86692 0.87254 0.58107 0.0
O176 O 0.89306 0.91704 0.63006 0.0
C177 C 0.60766 0.88691 0.61821 0.0
O178 O 0.60229 0.86145 0.64923 0.0
O179 O 0.59711 0.74123 0.62895 0.0
O180 O 0.20103 0.52744 0.91347 0.0
Tb181 Tb 0.20847 0.46014 0.89096 0.0
C182 C 0.17005 0.3641 0.83269 0.0
O183 O 0.17564 0.35156 0.91998 0.0
Tb184 Tb 0.14515 0.27416 0.89335 0.0
C185 C 1.0432 0.19441 0.90333 0.0
O186 O 0.16809 0.41948 0.9421 0.0
O187 O 0.19564 0.2377 0.88891 0.0
C188 C 0.20538 0.21599 0.91728 0.0
O189 O 0.18904 0.22196 0.94959 0.0
O190 O 0.15513 0.38902 0.85667 0.0
O191 O 0.1635 0.31552 0.84054 0.0
O192 O 0.29289 0.48316 0.89378 0.0
C193 C 0.15437 0.36811 0.94494 0.0
C194 C 0.20655 0.55311 0.88291 0.0
O195 O 0.07945 0.21511 0.92869 0.0
O196 O 1.06422 0.22027 0.87268 0.0
C197 C 0.32543 0.50631 0.86549 0.0
O198 O 0.30451 0.50799 0.83428 0.0
O199 O 0.21144 0.52517 0.8566 0.0
O200 O 0.42025 0.94721 0.57954 0.0
Tb201 Tb 0.35673 0.9538 0.60789 0.0
C202 C 0.29952 0.97589 0.67324 0.0
O203 O 0.278 0.98153 0.56623 0.0
Tb204 Tb 0.24164 1.00377 0.60952 0.0
C205 C 0.25546 0.10409 0.60519 0.0
O206 O 0.36693 1.01121 0.5652 0.0
O207 O 0.1552 0.95017 0.61374 0.0
C208 C 0.12364 0.93961 0.58572 0.0
O209 O 0.1454 0.95615 0.55311 0.0
O210 O 0.34436 0.99599 0.65347 0.0
O211 O 0.25589 0.9746 0.66094 0.0
O212 O 0.29249 0.8683 0.6058 0.0
C213 C 0.32673 1.01628 0.55424 0.0
C214 C 0.44866 0.95234 0.60802 0.0
O215 O 0.23228 0.06585 0.58111 0.0
O216 O 0.2729 0.08647 0.63151 0.0
C217 C 0.28393 0.83673 0.63448 0.0
O218 O 0.3087 0.85984 0.66479 0.0
O219 O 0.42536 0.95882 0.63661 0.0
O220 O 0.56521 0.69818 0.9147 0.0
Tb221 Tb 0.64536 0.75978 0.89482 0.0
C222 C 0.7244 0.81404 0.82632 0.0
O223 O 0.76864 0.83038 0.93168 0.0
Tb224 Tb 0.81608 0.85578 0.88158 0.0
C225 C 0.90367 0.84668 0.87713 0.0
O226 O 0.69645 0.74372 0.93018 0.0
O227 O 0.84652 0.94343 0.88077 0.0
C228 C 0.86504 0.97108 0.91116 0.0
O229 O 0.85736 0.94347 0.94149 0.0
O230 O 0.67958 0.80311 0.84341 0.0
O231 O 0.75861 0.80264 0.84133 0.0
O232 O 0.61848 0.81648 0.90883 0.0
C233 C 0.74466 0.77918 0.9424 0.0
C234 C 0.55153 0.6667 0.88643 0.0
O235 O 0.87072 0.83168 0.90503 0.0
O236 O 0.88659 0.86591 0.85185 0.0
C237 C 0.58959 0.82206 0.88343 0.0
O238 O 0.58228 0.79547 0.85284 0.0
O239 O 0.59145 0.68726 0.86285 0.0
C240 C 0.18343 0.22777 0.09887 0.0
C241 C 0.13934 0.20535 0.0753 0.0
C242 C 0.22258 0.21238 0.0969 0.0
C243 C 0.21847 0.17312 0.07177 0.0
H244 H 0.18669 0.25597 0.11983 0.0
H245 H 0.2552 0.22993 0.11617 0.0
S246 S 0.10924 0.1011 0.00459 0.0
N247 N 0.09441 0.14315 0.02539 0.0
N248 N 0.16538 0.11142 0.02329 0.0
C249 C 0.17493 0.15127 0.04754 0.0
C250 C 0.13607 0.16816 0.04887 0.0
C251 C 0.16145 1.00925 0.45244 0.0
C252 C 0.19166 1.01113 0.4215 0.0
C253 C 0.10661 0.96931 0.45619 0.0
C254 C 0.08006 0.92975 0.42915 0.0
H255 H 0.17923 1.04093 0.47277 0.0
H256 H 0.08431 0.97158 0.47938 0.0
S257 S 0.14437 0.91064 0.34669 0.0
N258 N 0.19333 0.96556 0.36613 0.0
N259 N 0.09067 0.89016 0.3732 0.0
C260 C 0.11125 0.92833 0.39979 0.0
C261 C 0.16698 0.96907 0.39598 0.0
C262 C 0.94397 0.99885 0.09303 0.0
C263 C 0.92034 1.01175 0.12209 0.0
C264 C 0.93991 0.94772 0.09104 0.0
C265 C 0.91068 0.90664 0.11736 0.0
H266 H 0.96826 1.02942 0.07259 0.0
H267 H 0.961 0.94083 0.06903 0.0
S268 S 0.83818 0.91825 0.19767 0.0
N269 N 0.86521 0.97858 0.17729 0.0
N270 N 0.85561 0.88146 0.17256 0.0
C271 C 0.88477 0.91798 0.14569 0.0
C272 C 0.89013 0.97077 0.14831 0.0
C273 C 0.19273 0.23809 0.3797 0.0
C274 C 0.20224 0.22024 0.41325 0.0
C275 C 0.1472 0.24369 0.37478 0.0
C276 C 0.10885 0.23046 0.40296 0.0
H277 H 0.22006 0.24679 0.35682 0.0
H278 H 0.14094 0.25643 0.34839 0.0
S279 S 0.11652 0.18693 0.49695 0.0
N280 N 0.17051 0.19366 0.47595 0.0
N281 N 0.08529 0.20261 0.4662 0.0
C282 C 0.11868 0.21428 0.43681 0.0
C283 C 0.16524 0.20967 0.4421 0.0
C284 C 0.16863 0.92329 0.12713 0.0
C285 C 0.20138 0.95303 0.09713 0.0
C286 C 0.11664 0.87813 0.12233 0.0
C287 C 0.09519 0.86111 0.08731 0.0
H288 H 0.18207 0.93664 0.1546 0.0
H289 H 0.09208 0.8585 0.14639 0.0
S290 S 0.1681 0.92008 0.99975 0.0
N291 N 0.21128 0.95839 0.03116 0.0
N292 N 0.11374 0.87376 0.02209 0.0
C293 C 0.12922 0.88802 0.05708 0.0
C294 C 0.18225 0.93389 0.062 0.0
C295 C 0.87293 0.96899 0.35134 0.0
C296 C 0.86532 0.94577 0.38628 0.0
C297 C 0.88141 1.0216 0.34655 0.0
C298 C 0.88216 1.05281 0.37649 0.0
H299 H 0.87636 0.94815 0.32773 0.0
H300 H 0.89068 1.03908 0.31933 0.0
S301 S 0.8498 1.00393 0.47238 0.0
N302 N 0.84913 0.95313 0.45038 0.0
N303 N 0.86421 1.05203 0.44155 0.0
C304 C 0.86838 1.02742 0.41109 0.0
C305 C 0.8603 0.97388 0.41595 0.0
C306 C 0.2468 0.17474 0.57085 0.0
C307 C 0.25397 0.15552 0.60435 0.0
C308 C 0.23586 0.21736 0.5691 0.0
C309 C 0.23051 0.24219 0.60082 0.0
H310 H 0.24794 0.15547 0.5457 0.0
H311 H 0.22931 0.22929 0.54252 0.0
S312 S 0.24998 0.20962 0.6954 0.0
N313 N 0.25909 0.16712 0.66997 0.0
N314 N 0.23735 0.24653 0.66687 0.0
C315 C 0.24047 0.22528 0.63449 0.0
C316 C 0.25243 0.18213 0.6362 0.0
C317 C 1.04124 0.88019 0.84255 0.0
C318 C 1.06515 0.87219 0.87333 0.0
C319 C 0.98809 0.86915 0.84369 0.0
C320 C 0.95638 0.84951 0.87563 0.0
H321 H 1.06436 0.89712 0.81757 0.0
H322 H 0.97245 0.87806 0.81963 0.0
S323 S 0.99708 0.81556 0.9626 0.0
N324 N 1.05111 0.83893 0.93598 0.0
N325 N 0.95078 0.81783 0.93791 0.0
C326 C 0.97835 0.83806 0.90599 0.0
C327 C 1.03281 0.84943 0.90489 0.0
C328 C 0.92987 0.09962 0.6287 0.0
C329 C 0.91213 0.07924 0.59354 0.0
C330 C 0.97163 0.1539 0.63392 0.0
C331 C 0.99698 0.18991 0.60421 0.0
H332 H 0.91357 0.07273 0.65223 0.0
H333 H 0.98571 0.16695 0.66133 0.0
S334 S 0.95972 0.15939 0.50719 0.0
N335 N 0.91924 0.10151 0.52897 0.0
N336 N 0.99711 0.20305 0.53881 0.0
C337 C 0.97713 0.17116 0.56921 0.0
C338 C 0.9349 0.11597 0.56389 0.0
C339 C 0.23296 0.15281 0.94349 0.0
C340 C 0.22609 0.17776 0.91256 0.0
C341 C 0.24126 0.10856 0.94046 0.0
C342 C 0.24605 0.08925 0.90628 0.0
H343 H 0.22988 0.16628 0.9704 0.0
H344 H 0.24291 0.08857 0.96516 0.0
S345 S 0.24004 0.14523 0.81648 0.0
N346 N 0.22993 0.1827 0.84621 0.0
N347 N 0.24884 0.10153 0.84075 0.0
C348 C 0.24423 0.11668 0.87503 0.0
C349 C 0.23378 0.16067 0.87807 0.0
C350 C 1.03062 0.90485 0.56199 0.0
C351 C 1.0653 0.91863 0.59186 0.0
C352 C 0.97744 0.89336 0.56661 0.0
C353 C 0.95749 0.8961 0.60116 0.0
H354 H 1.04512 0.90472 0.53468 0.0
H355 H 0.95279 0.88507 0.54273 0.0
S356 S 1.02886 0.92333 0.68876 0.0
N357 N 0.0733 0.92855 0.65785 0.0
N358 N 0.97401 0.90824 0.66604 0.0
C359 C 0.99044 0.9067 0.63144 0.0
C360 C 1.0442 0.91755 0.62692 0.0
C361 C 0.96442 0.11376 0.87502 0.0
C362 C 0.99126 0.14198 0.90662 0.0
C363 C 0.92129 0.05949 0.87685 0.0
C364 C 0.90314 1.03135 0.91038 0.0
H365 H 0.97867 0.13264 0.84844 0.0
H366 H 0.90394 1.03872 0.85158 0.0
S367 S 0.9544 0.09051 0.00161 0.0
N368 N 0.99274 0.14025 0.97267 0.0
N369 N 0.91154 1.03881 0.97643 0.0
C370 C 0.92707 0.06077 0.94243 0.0
C371 C 0.97117 0.11591 0.94046 0.0
C372 C 0.39848 0.20378 0.2678 0.0
C373 C 0.41728 0.17937 0.29224 0.0
C374 C 0.39978 0.19693 0.23018 0.0
C375 C 0.41979 0.1652 0.21515 0.0
H376 H 0.37961 0.22584 0.27791 0.0
H377 H 0.38181 0.21399 0.21282 0.0
S378 S 0.48406 0.10174 0.26666 0.0
N379 N 0.4643 0.1291 0.29838 0.0
N380 N 0.46668 0.11619 0.22735 0.0
C381 C 0.44406 0.14538 0.23888 0.0
C382 C 0.44279 0.15245 0.27751 0.0
C383 C 0.90961 0.73964 0.27781 0.0
C384 C 0.86152 0.72252 0.29765 0.0
C385 C 0.90906 0.72908 0.24053 0.0
C386 C 0.86031 0.70101 0.22152 0.0
H387 H 0.94823 0.76303 0.29095 0.0
H388 H 0.94735 0.74439 0.2264 0.0
S389 S 0.72282 0.64573 0.26143 0.0
N390 N 0.76372 0.67534 0.29581 0.0
N391 N 0.76222 0.65379 0.22611 0.0
C392 C 0.81168 0.68148 0.24148 0.0
C393 C 0.81238 0.69263 0.27945 0.0
C394 C 0.98159 0.31025 0.21619 0.0
C395 C 0.95808 0.25804 0.20062 0.0
C396 C 0.97739 0.31667 0.25391 0.0
C397 C 0.94933 0.27115 0.27751 0.0
H398 H 1.00564 0.34636 0.1995 0.0
H399 H 0.99802 0.35764 0.26474 0.0
S400 S 0.87233 0.12598 0.24887 0.0
N401 N 0.90038 0.16045 0.21084 0.0
N402 N 0.89152 0.1722 0.28116 0.0
C403 C 0.92255 0.21891 0.26167 0.0
C404 C 0.92715 0.21247 0.22343 0.0
C405 C 0.19245 0.44622 0.74511 0.0
C406 C 0.17939 0.40727 0.71749 0.0
C407 C 0.18937 0.43202 0.78214 0.0
C408 C 0.17427 0.37868 0.79313 0.0
H409 H 0.20398 0.48782 0.73816 0.0
H410 H 0.19898 0.46316 0.80227 0.0
S411 S 0.13891 0.26222 0.73077 0.0
N412 N 0.15238 0.31377 0.70335 0.0
N413 N 0.14751 0.28679 0.77238 0.0
C414 C 0.16237 0.33963 0.76546 0.0
C415 C 0.16464 0.354 0.72787 0.0
C416 C 0.25599 0.94478 0.77318 0.0
C417 C 0.29882 0.94292 0.78971 0.0
C418 C 0.25677 0.95536 0.73578 0.0
C419 C 0.30044 0.96477 0.71298 0.0
H420 H 0.22162 0.93856 0.78923 0.0
H421 H 0.22258 0.95647 0.72485 0.0
S422 S 0.42156 0.9612 0.74207 0.0
N423 N 0.38544 0.94911 0.77983 0.0
N424 N 0.38696 0.9694 0.70977 0.0
C425 C 0.34335 0.96236 0.72902 0.0
C426 C 0.34248 0.95139 0.76722 0.0
C427 C 0.76264 0.82396 0.72584 0.0
C428 C 0.73091 0.84261 0.70952 0.0
C429 C 0.7617 0.8164 0.7637 0.0
C430 C 0.72894 0.82713 0.78677 0.0
H431 H 0.78752 0.81379 0.70924 0.0
H432 H 0.78569 0.80053 0.77476 0.0
S433 S 0.64392 0.88386 0.7584 0.0
N434 N 0.66977 0.87663 0.71997 0.0
N435 N 0.66811 0.86258 0.79085 0.0
C436 C 0.69899 0.84824 0.77099 0.0
C437 C 0.69992 0.85591 0.73249 0.0
C438 C 0.34533 0.98052 0.02189 0.0
C439 C 0.33694 0.99616 0.98741 0.0
C440 C 0.36987 1.01917 0.04964 0.0
C441 C 0.38533 0.07418 0.04394 0.0
H442 H 0.33541 0.93885 0.02681 0.0
H443 H 0.37823 1.00638 0.07532 0.0
S444 S 0.37298 0.13565 0.95848 0.0
N445 N 0.3474 0.0704 0.94891 0.0
N446 N 0.39042 0.14219 0.00166 0.0
C447 C 0.37526 0.08973 0.01011 0.0
C448 C 0.3518 1.05086 0.98163 0.0
C449 C 0.83582 0.80905 0.47969 0.0
C450 C 0.79847 0.7603 0.46261 0.0
C451 C 0.81868 0.83629 0.50329 0.0
C452 C 0.76369 0.81391 0.51242 0.0
H453 H 0.87864 0.8254 0.47571 0.0
H454 H 0.84901 0.87384 0.51553 0.0
S455 S 0.64924 0.69123 0.47112 0.0
N456 N 0.70346 0.69477 0.45279 0.0
N457 N 0.67173 0.74361 0.49891 0.0
C458 C 0.7259 0.76667 0.49408 0.0
C459 C 0.74317 0.74015 0.46909 0.0
C460 C 1.05817 0.30074 0.96212 0.0
C461 C 0.11253 0.33233 0.97214 0.0
C462 C 1.01644 0.27821 0.98865 0.0
C463 C 1.0276 0.28686 0.02608 0.0
H464 H 1.04764 0.29636 0.93361 0.0
H465 H 0.97501 0.25678 0.97972 0.0
S466 S 0.16308 0.36621 0.06642 0.0
N467 N 0.17515 0.36989 0.02208 0.0
N468 N 0.0969 0.32878 0.07165 0.0
C469 C 0.08177 0.31691 0.03639 0.0
C470 C 0.12416 0.33936 0.00949 0.0
C471 C 0.35422 0.08128 0.46078 0.0
C472 C 0.37933 0.13718 0.46885 0.0
C473 C 0.3326 1.04147 0.48864 0.0
C474 C 0.33675 0.05659 0.52541 0.0
H475 H 0.35383 0.06844 0.43297 0.0
H476 H 0.31582 0.99897 0.48156 0.0
S477 S 0.39835 0.19734 0.56064 0.0
N478 N 0.40543 0.20538 0.51594 0.0
N479 N 0.36698 0.1308 0.56834 0.0
C480 C 0.3603 0.11212 0.53367 0.0
C481 C 0.38121 0.15246 0.50534 0.0
C482 C 0.76476 0.68649 0.00716 0.0
C483 C 0.81449 0.72177 0.02347 0.0
C484 C 0.74338 0.70533 0.98063 0.0
C485 C 0.7702 0.76065 0.96968 0.0
H486 H 0.74172 0.64384 0.01523 0.0
H487 H 0.70488 0.67616 0.96914 0.0
S488 S 0.90174 0.87013 0.00468 0.0
N489 N 0.89069 0.81445 0.02641 0.0
N490 N 0.84947 0.85066 0.97805 0.0
C491 C 0.82027 0.79638 0.98575 0.0
C492 C 0.8427 0.77676 0.01216 0.0
C493 C 1.05098 0.3801 0.53872 0.0
C494 C 0.10199 0.38478 0.53628 0.0
C495 C 1.01428 0.35865 0.50984 0.0
C496 C 1.02776 0.34217 0.4773 0.0
H497 H 1.03952 0.39343 0.56303 0.0
H498 H 0.9756 0.35604 0.51268 0.0
S499 S 0.15766 0.35041 0.45605 0.0
N500 N 0.16433 0.37251 0.49828 0.0
N501 N 0.09655 0.33471 0.44369 0.0
C502 C 0.07866 0.34708 0.47447 0.0
C503 C 0.11546 0.36767 0.50407 0.0
C504 C 0.73593 0.20606 0.10713 0.0
C505 C 0.76119 0.21008 0.14046 0.0
C506 C 0.68096 0.18864 0.10574 0.0
C507 C 0.64875 0.17458 0.13758 0.0
H508 H 0.75918 0.21892 0.08193 0.0
H509 H 0.66427 0.18872 0.07949 0.0
S510 S 0.69218 0.16655 0.23078 0.0
N511 N 0.74764 0.1904 0.20557 0.0
N512 N 0.64417 0.15822 0.2028 0.0
C513 C 0.67231 0.17448 0.1708 0.0
C514 C 0.72852 0.19205 0.17226 0.0
C515 C 0.61503 0.47392 0.38506 0.0
C516 C 0.65371 0.50332 0.35764 0.0
C517 C 0.57619 0.41869 0.38072 0.0
C518 C 0.57469 0.39063 0.34883 0.0
H519 H 0.61645 0.49288 0.4109 0.0
H520 H 0.54907 0.39721 0.4034 0.0
S521 S 0.66283 0.45158 0.26695 0.0
N522 N 0.68473 0.50239 0.29602 0.0
N523 N 0.61185 0.39849 0.28766 0.0
C524 C 0.61046 0.42087 0.32 0.0
C525 C 0.65 0.47727 0.32447 0.0
C526 C 0.92316 0.4698 0.16069 0.0
C527 C 0.93747 0.45934 0.12623 0.0
C528 C 0.90781 0.50906 0.16518 0.0
C529 C 0.90617 0.53969 0.13543 0.0
H530 H 0.92121 0.44566 0.18413 0.0
H531 H 0.89481 0.51357 0.19207 0.0
S532 S 0.94754 0.53324 0.04029 0.0
N533 N 0.95466 0.48683 0.06244 0.0
N534 N 0.92605 0.56051 0.07085 0.0
C535 C 0.9241 0.53225 0.10127 0.0
C536 C 0.9396 0.49211 0.09669 0.0
C537 C 0.67583 0.22052 0.39536 0.0
C538 C 0.64678 0.22534 0.36639 0.0
C539 C 0.7309 0.23698 0.39143 0.0
C540 C 0.75946 0.25961 0.35848 0.0
H541 H 0.65626 0.20527 0.42163 0.0
H542 H 0.75168 0.23393 0.41487 0.0
S543 S 0.70163 0.28112 0.27424 0.0
N544 N 0.65055 0.25353 0.30352 0.0
N545 N 0.75305 0.28462 0.29594 0.0
C546 C 0.73013 0.26305 0.32898 0.0
C547 C 0.67417 0.24592 0.33298 0.0
C548 C 0.61402 0.38603 0.16854 0.0
C549 C 0.58955 0.35087 0.13893 0.0
C550 C 0.65359 0.44108 0.1631 0.0
C551 C 0.6706 0.46324 0.12792 0.0
H552 H 0.60393 0.37057 0.19624 0.0
H553 H 0.67248 0.46601 0.18668 0.0
S554 S 0.61579 0.39073 0.04107 0.0
N555 N 0.5824 0.34389 0.07289 0.0
N556 N 0.6571 0.44725 0.06293 0.0
C557 C 0.64467 0.42956 0.09805 0.0
C558 C 0.60402 0.37344 0.1035 0.0
C559 C 0.89334 0.54223 0.39977 0.0
C560 C 0.89301 0.56489 0.36571 0.0
C561 C 0.90852 0.50277 0.40292 0.0
C562 C 0.92451 0.4847 0.37223 0.0
H563 H 0.87948 0.55316 0.42408 0.0
H564 H 0.90607 0.48505 0.42952 0.0
S565 S 0.93633 0.535 0.27733 0.0
N566 N 0.91427 0.56916 0.30094 0.0
N567 N 0.94299 0.49533 0.30707 0.0
C568 C 0.92727 0.50907 0.33832 0.0
C569 C 0.91149 0.54906 0.33502 0.0
C570 C 0.25653 0.75317 0.5969 0.0
C571 C 0.25732 0.77626 0.63091 0.0
C572 C 0.24123 0.69788 0.59392 0.0
C573 C 0.22522 0.66316 0.62471 0.0
H574 H 0.27063 0.77857 0.57259 0.0
H575 H 0.2436 0.68267 0.56738 0.0
S576 S 0.21452 0.70175 0.7195 0.0
N577 N 0.23675 0.75878 0.69571 0.0
N578 N 0.20715 0.65492 0.6899 0.0
C579 C 0.22269 0.68482 0.65853 0.0
C580 C 0.23896 0.74131 0.66167 0.0
C581 C 0.5071 0.88672 0.86078 0.0
C582 C 0.48305 0.88632 0.89434 0.0
C583 C 0.54451 0.86935 0.85818 0.0
C584 C 0.55974 0.85121 0.88904 0.0
H585 H 0.49518 0.89816 0.83599 0.0
H586 H 0.55996 0.86801 0.83139 0.0
S587 S 0.51316 0.84817 0.98398 0.0
N588 N 0.48059 0.87084 0.95972 0.0
N589 N 0.55125 0.83831 0.95471 0.0
C590 C 0.53887 0.85413 0.92316 0.0
C591 C 0.50033 0.87156 0.92582 0.0
C592 C 0.48415 0.65165 0.64267 0.0
C593 C 0.50324 0.67821 0.60882 0.0
C594 C 0.42962 0.61159 0.64807 0.0
C595 C 0.39209 0.59587 0.61973 0.0
H596 H 0.51093 0.66361 0.66566 0.0
H597 H 0.41643 0.59415 0.67512 0.0
S598 S 0.42318 0.64887 0.52472 0.0
N599 N 0.48142 0.68301 0.54569 0.0
N600 N 0.37928 0.6073 0.55569 0.0
C601 C 0.41147 0.61971 0.58512 0.0
C602 C 0.46691 0.66104 0.57974 0.0
C603 C 0.24823 0.6926 0.84235 0.0
C604 C 0.25083 0.72385 0.87291 0.0
C605 C 0.23122 0.63684 0.84554 0.0
C606 C 0.21601 0.60963 0.87943 0.0
H607 H 0.26143 0.71178 0.81575 0.0
H608 H 0.23213 0.6155 0.8214 0.0
S609 S 0.20963 0.67043 0.96737 0.0
N610 N 0.23217 0.72157 0.93785 0.0
N611 N 0.20027 0.61702 0.9438 0.0
C612 C 0.21536 0.63937 0.90989 0.0
C613 C 0.23264 0.69629 0.90664 0.0
C614 C 0.51948 0.94552 0.64189 0.0
C615 C 0.49566 0.94451 0.60856 0.0
C616 C 0.55867 0.93048 0.64414 0.0
C617 C 0.5758 0.91401 0.61313 0.0
H618 H 0.50616 0.95576 0.66677 0.0
H619 H 0.57401 0.92956 0.67075 0.0
S620 S 0.52952 0.90922 0.5187 0.0
N621 N 0.49488 0.9297 0.54327 0.0
N622 N 0.56856 0.90138 0.54757 0.0
C623 C 0.55477 0.91608 0.57923 0.0
C624 C 0.5146 0.93125 0.57695 0.0
C625 C 0.45998 0.59803 0.91038 0.0
C626 C 0.4964 0.6196 0.88069 0.0
C627 C 0.40545 0.55868 0.90546 0.0
C628 C 0.38483 0.53992 0.87052 0.0
H629 H 0.47332 0.61291 0.93763 0.0
H630 H 0.37881 0.54508 0.92911 0.0
S631 S 0.46455 0.57991 0.78404 0.0
N632 N 0.50899 0.61623 0.81542 0.0
N633 N 0.4064 0.54303 0.80595 0.0
C634 C 0.42143 0.55926 0.84075 0.0
C635 C 0.47721 0.59887 0.84589 0.0
loop_
_geom_bond_atom_site_label_1
_geom_bond_atom_site_label_2
_geom_bond_distance
_geom_bond_site_symmetry_2
_ccdc_geom_bond_type
O0 Tb1 2.506 . S
O0 C14 1.265 . S
Tb1 O0 2.506 . S
Tb1 O6 2.312 . S
Tb1 O10 2.271 . S
Tb1 O12 2.338 . S
Tb1 O19 2.441 . S
C2 O10 1.252 . S
C2 O11 1.253 . S
O3 Tb4 2.271 . S
O3 C13 1.252 . S
Tb4 O3 2.271 . S
Tb4 O7 2.338 . S
Tb4 O11 2.312 . S
Tb4 O15 2.441 . S
Tb4 O16 2.506 . S
C5 O15 1.244 . S
C5 O16 1.265 . S
O6 Tb1 2.312 . S
O6 C13 1.253 . S
O7 Tb4 2.338 . S
O7 C8 1.258 . S
C8 O7 1.258 . S
C8 O9 1.251 . S
O9 C8 1.251 . S
O10 Tb1 2.271 . S
O10 C2 1.252 . S
O11 C2 1.253 . S
O11 Tb4 2.312 . S
O12 Tb1 2.338 . S
O12 C17 1.258 . S
C13 O3 1.252 . S
C13 O6 1.253 . S
C14 O0 1.265 . S
C14 O19 1.244 . S
O15 Tb4 2.441 . S
O15 C5 1.244 . S
O16 Tb4 2.506 . S
O16 C5 1.265 . S
C17 O12 1.258 . S
C17 O18 1.251 . S
O18 C17 1.251 . S
O19 Tb1 2.441 . S
O19 C14 1.244 . S
O20 Tb21 2.506 . S
O20 C34 1.265 . S
Tb21 O20 2.506 . S
Tb21 O26 2.312 . S
Tb21 O30 2.271 . S
Tb21 O32 2.338 . S
Tb21 O39 2.441 . S
C22 O30 1.252 . S
C22 O31 1.253 . S
O23 Tb24 2.271 . S
O23 C33 1.252 . S
Tb24 O23 2.271 . S
Tb24 O27 2.338 . S
Tb24 O31 2.312 . S
Tb24 O35 2.441 . S
Tb24 O36 2.506 . S
C25 O35 1.244 . S
C25 O36 1.265 . S
O26 Tb21 2.312 . S
O26 C33 1.253 . S
O27 Tb24 2.338 . S
O27 C28 1.258 . S
C28 O27 1.258 . S
C28 O29 1.251 . S
O29 C28 1.251 . S
O30 Tb21 2.271 . S
O30 C22 1.252 . S
O31 C22 1.253 . S
O31 Tb24 2.312 . S
O32 Tb21 2.338 . S
O32 C37 1.258 . S
C33 O23 1.252 . S
C33 O26 1.253 . S
C34 O20 1.265 . S
C34 O39 1.244 . S
O35 Tb24 2.441 . S
O35 C25 1.244 . S
O36 Tb24 2.506 . S
O36 C25 1.265 . S
C37 O32 1.258 . S
C37 O38 1.251 . S
O38 C37 1.251 . S
O39 Tb21 2.441 . S
O39 C34 1.244 . S
O40 Tb41 2.506 . S
O40 C54 1.265 . S
Tb41 O40 2.506 . S
Tb41 O46 2.312 . S
Tb41 O50 2.271 . S
Tb41 O52 2.338 . S
Tb41 O59 2.441 . S
C42 O50 1.252 . S
C42 O51 1.253 . S
O43 Tb44 2.271 . S
O43 C53 1.252 . S
Tb44 O43 2.271 . S
Tb44 O47 2.338 . S
Tb44 O51 2.312 . S
Tb44 O55 2.441 . S
Tb44 O56 2.506 . S
C45 O55 1.244 . S
C45 O56 1.265 . S
O46 Tb41 2.312 . S
O46 C53 1.253 . S
O47 Tb44 2.338 . S
O47 C48 1.258 . S
C48 O47 1.258 . S
C48 O49 1.251 . S
O49 C48 1.251 . S
O50 Tb41 2.271 . S
O50 C42 1.252 . S
O51 C42 1.253 . S
O51 Tb44 2.312 . S
O52 Tb41 2.338 . S
O52 C57 1.258 . S
C53 O43 1.252 . S
C53 O46 1.253 . S
C54 O40 1.265 . S
C54 O59 1.244 . S
O55 Tb44 2.441 . S
O55 C45 1.244 . S
O56 Tb44 2.506 . S
O56 C45 1.265 . S
C57 O52 1.258 . S
C57 O58 1.251 . S
O58 C57 1.251 . S
O59 Tb41 2.441 . S
O59 C54 1.244 . S
O60 Tb61 2.506 . S
O60 C74 1.265 . S
Tb61 O60 2.506 . S
Tb61 O66 2.312 . S
Tb61 O70 2.271 . S
Tb61 O72 2.338 . S
Tb61 O79 2.441 . S
C62 O70 1.252 . S
C62 O71 1.253 . S
O63 Tb64 2.271 . S
O63 C73 1.252 . S
Tb64 O63 2.271 . S
Tb64 O67 2.338 . S
Tb64 O71 2.312 . S
Tb64 O75 2.441 . S
Tb64 O76 2.506 . S
C65 O75 1.244 . S
C65 O76 1.265 . S
O66 Tb61 2.312 . S
O66 C73 1.253 . S
O67 Tb64 2.338 . S
O67 C68 1.258 . S
C68 O67 1.258 . S
C68 O69 1.251 . S
O69 C68 1.251 . S
O70 Tb61 2.271 . S
O70 C62 1.252 . S
O71 C62 1.253 . S
O71 Tb64 2.312 . S
O72 Tb61 2.338 . S
O72 C77 1.258 . S
C73 O63 1.252 . S
C73 O66 1.253 . S
C74 O60 1.265 . S
C74 O79 1.244 . S
O75 Tb64 2.441 . S
O75 C65 1.244 . S
O76 Tb64 2.506 . S
O76 C65 1.265 . S
C77 O72 1.258 . S
C77 O78 1.251 . S
O78 C77 1.251 . S
O79 Tb61 2.441 . S
O79 C74 1.244 . S
O80 Tb81 2.506 . S
O80 C94 1.265 . S
Tb81 O80 2.506 . S
Tb81 O86 2.312 . S
Tb81 O90 2.271 . S
Tb81 O92 2.338 . S
Tb81 O99 2.441 . S
C82 O90 1.252 . S
C82 O91 1.253 . S
O83 Tb84 2.271 . S
O83 C93 1.252 . S
Tb84 O83 2.271 . S
Tb84 O87 2.338 . S
Tb84 O91 2.312 . S
Tb84 O95 2.441 . S
Tb84 O96 2.506 . S
C85 O95 1.244 . S
C85 O96 1.265 . S
O86 Tb81 2.312 . S
O86 C93 1.253 . S
O87 Tb84 2.338 . S
O87 C88 1.258 . S
C88 O87 1.258 . S
C88 O89 1.251 . S
O89 C88 1.251 . S
O90 Tb81 2.271 . S
O90 C82 1.252 . S
O91 C82 1.253 . S
O91 Tb84 2.312 . S
O92 Tb81 2.338 . S
O92 C97 1.258 . S
C93 O83 1.252 . S
C93 O86 1.253 . S
C94 O80 1.265 . S
C94 O99 1.244 . S
O95 Tb84 2.441 . S
O95 C85 1.244 . S
O96 Tb84 2.506 . S
O96 C85 1.265 . S
C97 O92 1.258 . S
C97 O98 1.251 . S
O98 C97 1.251 . S
O99 Tb81 2.441 . S
O99 C94 1.244 . S
O100 Tb101 2.506 . S
O100 C114 1.265 . S
Tb101 O100 2.506 . S
Tb101 O106 2.312 . S
Tb101 O110 2.271 . S
Tb101 O112 2.338 . S
Tb101 O119 2.441 . S
C102 O110 1.252 . S
C102 O111 1.253 . S
O103 Tb104 2.271 . S
O103 C113 1.252 . S
Tb104 O103 2.271 . S
Tb104 O107 2.338 . S
Tb104 O111 2.312 . S
Tb104 O115 2.441 . S
Tb104 O116 2.506 . S
C105 O115 1.244 . S
C105 O116 1.265 . S
O106 Tb101 2.312 . S
O106 C113 1.253 . S
O107 Tb104 2.338 . S
O107 C108 1.258 . S
C108 O107 1.258 . S
C108 O109 1.251 . S
O109 C108 1.251 . S
O110 Tb101 2.271 . S
O110 C102 1.252 . S
O111 C102 1.253 . S
O111 Tb104 2.312 . S
O112 Tb101 2.338 . S
O112 C117 1.258 . S
C113 O103 1.252 . S
C113 O106 1.253 . S
C114 O100 1.265 . S
C114 O119 1.244 . S
O115 Tb104 2.441 . S
O115 C105 1.244 . S
O116 Tb104 2.506 . S
O116 C105 1.265 . S
C117 O112 1.258 . S
C117 O118 1.251 . S
O118 C117 1.251 . S
O119 Tb101 2.441 . S
O119 C114 1.244 . S
O120 Tb121 2.506 . S
O120 C134 1.265 . S
Tb121 O120 2.506 . S
Tb121 O126 2.312 . S
Tb121 O130 2.271 . S
Tb121 O132 2.338 . S
Tb121 O139 2.441 . S
C122 O130 1.252 . S
C122 O131 1.253 . S
O123 Tb124 2.271 . S
O123 C133 1.252 . S
Tb124 O123 2.271 . S
Tb124 O127 2.338 . S
Tb124 O131 2.312 . S
Tb124 O135 2.441 . S
Tb124 O136 2.506 . S
C125 O135 1.244 . S
C125 O136 1.265 . S
O126 Tb121 2.312 . S
O126 C133 1.253 . S
O127 Tb124 2.338 . S
O127 C128 1.258 . S
C128 O127 1.258 . S
C128 O129 1.251 . S
O129 C128 1.251 . S
O130 Tb121 2.271 . S
O130 C122 1.252 . S
O131 C122 1.253 . S
O131 Tb124 2.312 . S
O132 Tb121 2.338 . S
O132 C137 1.258 . S
C133 O123 1.252 . S
C133 O126 1.253 . S
C134 O120 1.265 . S
C134 O139 1.244 . S
O135 Tb124 2.441 . S
O135 C125 1.244 . S
O136 Tb124 2.506 . S
O136 C125 1.265 . S
C137 O132 1.258 . S
C137 O138 1.251 . S
O138 C137 1.251 . S
O139 Tb121 2.441 . S
O139 C134 1.244 . S
O140 Tb141 2.506 . S
O140 C154 1.265 . S
Tb141 O140 2.506 . S
Tb141 O146 2.312 . S
Tb141 O150 2.271 . S
Tb141 O152 2.338 . S
Tb141 O159 2.441 . S
C142 O150 1.252 . S
C142 O151 1.253 . S
O143 Tb144 2.271 . S
O143 C153 1.252 . S
Tb144 O143 2.271 . S
Tb144 O147 2.338 . S
Tb144 O151 2.312 . S
Tb144 O155 2.441 . S
Tb144 O156 2.506 . S
C145 O155 1.244 . S
C145 O156 1.265 . S
O146 Tb141 2.312 . S
O146 C153 1.253 . S
O147 Tb144 2.338 . S
O147 C148 1.258 . S
C148 O147 1.258 . S
C148 O149 1.251 . S
O149 C148 1.251 . S
O150 Tb141 2.271 . S
O150 C142 1.252 . S
O151 C142 1.253 . S
O151 Tb144 2.312 . S
O152 Tb141 2.338 . S
O152 C157 1.258 . S
C153 O143 1.252 . S
C153 O146 1.253 . S
C154 O140 1.265 . S
C154 O159 1.244 . S
O155 Tb144 2.441 . S
O155 C145 1.244 . S
O156 Tb144 2.506 . S
O156 C145 1.265 . S
C157 O152 1.258 . S
C157 O158 1.251 . S
O158 C157 1.251 . S
O159 Tb141 2.441 . S
O159 C154 1.244 . S
O160 Tb161 2.506 . S
O160 C174 1.265 . S
Tb161 O160 2.506 . S
Tb161 O166 2.312 . S
Tb161 O170 2.271 . S
Tb161 O172 2.338 . S
Tb161 O179 2.441 . S
C162 O170 1.252 . S
C162 O171 1.253 . S
O163 Tb164 2.271 . S
O163 C173 1.252 . S
Tb164 O163 2.271 . S
Tb164 O167 2.338 . S
Tb164 O171 2.312 . S
Tb164 O175 2.441 . S
Tb164 O176 2.506 . S
C165 O175 1.244 . S
C165 O176 1.265 . S
O166 Tb161 2.312 . S
O166 C173 1.253 . S
O167 Tb164 2.338 . S
O167 C168 1.258 . S
C168 O167 1.258 . S
C168 O169 1.251 . S
O169 C168 1.251 . S
O170 Tb161 2.271 . S
O170 C162 1.252 . S
O171 C162 1.253 . S
O171 Tb164 2.312 . S
O172 Tb161 2.338 . S
O172 C177 1.258 . S
C173 O163 1.252 . S
C173 O166 1.253 . S
C174 O160 1.265 . S
C174 O179 1.244 . S
O175 Tb164 2.441 . S
O175 C165 1.244 . S
O176 Tb164 2.506 . S
O176 C165 1.265 . S
C177 O172 1.258 . S
C177 O178 1.251 . S
O178 C177 1.251 . S
O179 Tb161 2.441 . S
O179 C174 1.244 . S
O180 Tb181 2.506 . S
O180 C194 1.265 . S
Tb181 O180 2.506 . S
Tb181 O186 2.312 . S
Tb181 O190 2.271 . S
Tb181 O192 2.338 . S
Tb181 O199 2.441 . S
C182 O190 1.252 . S
C182 O191 1.253 . S
O183 Tb184 2.271 . S
O183 C193 1.252 . S
Tb184 O183 2.271 . S
Tb184 O187 2.338 . S
Tb184 O191 2.312 . S
Tb184 O195 2.441 . S
Tb184 O196 2.506 . S
C185 O195 1.244 . S
C185 O196 1.265 . S
O186 Tb181 2.312 . S
O186 C193 1.253 . S
O187 Tb184 2.338 . S
O187 C188 1.258 . S
C188 O187 1.258 . S
C188 O189 1.251 . S
O189 C188 1.251 . S
O190 Tb181 2.271 . S
O190 C182 1.252 . S
O191 C182 1.253 . S
O191 Tb184 2.312 . S
O192 Tb181 2.338 . S
O192 C197 1.258 . S
C193 O183 1.252 . S
C193 O186 1.253 . S
C194 O180 1.265 . S
C194 O199 1.244 . S
O195 Tb184 2.441 . S
O195 C185 1.244 . S
O196 Tb184 2.506 . S
O196 C185 1.265 . S
C197 O192 1.258 . S
C197 O198 1.251 . S
O198 C197 1.251 . S
O199 Tb181 2.441 . S
O199 C194 1.244 . S
O200 Tb201 2.506 . S
O200 C214 1.265 . S
Tb201 O200 2.506 . S
Tb201 O206 2.312 . S
Tb201 O210 2.271 . S
Tb201 O212 2.338 . S
Tb201 O219 2.441 . S
C202 O210 1.252 . S
C202 O211 1.253 . S
O203 Tb204 2.271 . S
O203 C213 1.252 . S
Tb204 O203 2.271 . S
Tb204 O207 2.338 . S
Tb204 O211 2.312 . S
Tb204 O215 2.441 . S
Tb204 O216 2.506 . S
C205 O215 1.244 . S
C205 O216 1.265 . S
O206 Tb201 2.312 . S
O206 C213 1.253 . S
O207 Tb204 2.338 . S
O207 C208 1.258 . S
C208 O207 1.258 . S
C208 O209 1.251 . S
O209 C208 1.251 . S
O210 Tb201 2.271 . S
O210 C202 1.252 . S
O211 C202 1.253 . S
O211 Tb204 2.312 . S
O212 Tb201 2.338 . S
O212 C217 1.258 . S
C213 O203 1.252 . S
C213 O206 1.253 . S
C214 O200 1.265 . S
C214 O219 1.244 . S
O215 Tb204 2.441 . S
O215 C205 1.244 . S
O216 Tb204 2.506 . S
O216 C205 1.265 . S
C217 O212 1.258 . S
C217 O218 1.251 . S
O218 C217 1.251 . S
O219 Tb201 2.441 . S
O219 C214 1.244 . S
O220 Tb221 2.506 . S
O220 C234 1.265 . S
Tb221 O220 2.506 . S
Tb221 O226 2.312 . S
Tb221 O230 2.271 . S
Tb221 O232 2.338 . S
Tb221 O239 2.441 . S
C222 O230 1.252 . S
C222 O231 1.253 . S
O223 Tb224 2.271 . S
O223 C233 1.252 . S
Tb224 O223 2.271 . S
Tb224 O227 2.338 . S
Tb224 O231 2.312 . S
Tb224 O235 2.441 . S
Tb224 O236 2.506 . S
C225 O235 1.244 . S
C225 O236 1.265 . S
O226 Tb221 2.312 . S
O226 C233 1.253 . S
O227 Tb224 2.338 . S
O227 C228 1.258 . S
C228 O227 1.258 . S
C228 O229 1.251 . S
O229 C228 1.251 . S
O230 Tb221 2.271 . S
O230 C222 1.252 . S
O231 C222 1.253 . S
O231 Tb224 2.312 . S
O232 Tb221 2.338 . S
O232 C237 1.258 . S
C233 O223 1.252 . S
C233 O226 1.253 . S
C234 O220 1.265 . S
C234 O239 1.244 . S
O235 Tb224 2.441 . S
O235 C225 1.244 . S
O236 Tb224 2.506 . S
O236 C225 1.265 . S
C237 O232 1.258 . S
C237 O238 1.251 . S
O238 C237 1.251 . S
O239 Tb221 2.441 . S
O239 C234 1.244 . S
C240 C241 1.369 . S
C240 C242 1.419 . S
C240 H244 0.930 . S
C241 C240 1.369 . S
C241 C250 1.429 . S
C242 C240 1.419 . S
C242 C243 1.363 . S
C242 H245 0.929 . S
C243 C242 1.363 . S
C243 C249 1.428 . S
H244 C240 0.930 . S
H245 C242 0.929 . S
S246 N247 1.613 . S
S246 N248 1.610 . S
N247 S246 1.613 . S
N247 C250 1.350 . S
N248 S246 1.610 . S
N248 C249 1.351 . S
C249 C243 1.428 . S
C249 N248 1.351 . S
C249 C250 1.434 . S
C250 C241 1.429 . S
C250 N247 1.350 . S
C250 C249 1.434 . S
C251 C252 1.369 . S
C251 C253 1.419 . S
C251 H255 0.930 . S
C252 C251 1.369 . S
C252 C261 1.429 . S
C253 C251 1.419 . S
C253 C254 1.363 1_455 S
C253 H256 0.929 . S
C254 C253 1.363 1_655 S
C254 C260 1.428 . S
H255 C251 0.930 . S
H256 C253 0.929 . S
S257 N258 1.613 1_655 S
S257 N259 1.610 . S
N258 S257 1.613 1_455 S
N258 C261 1.350 . S
N259 S257 1.610 . S
N259 C260 1.351 . S
C260 C254 1.428 . S
C260 N259 1.351 . S
C260 C261 1.434 1_655 S
C261 C252 1.429 . S
C261 N258 1.350 . S
C261 C260 1.434 1_455 S
C262 C263 1.369 1_565 S
C262 C264 1.419 . S
C262 H266 0.930 1_565 S
C263 C262 1.369 1_545 S
C263 C272 1.429 1_545 S
C264 C262 1.419 . S
C264 C265 1.363 . S
C264 H267 0.929 . S
C265 C264 1.363 . S
C265 C271 1.428 . S
H266 C262 0.930 1_545 S
H267 C264 0.929 . S
S268 N269 1.613 1_565 S
S268 N270 1.610 . S
N269 S268 1.613 1_545 S
N269 C272 1.350 1_545 S
N270 S268 1.610 . S
N270 C271 1.351 . S
C271 C265 1.428 . S
C271 N270 1.351 . S
C271 C272 1.434 . S
C272 C263 1.429 1_565 S
C272 N269 1.350 1_565 S
C272 C271 1.434 . S
C273 C274 1.369 . S
C273 C275 1.419 . S
C273 H277 0.930 . S
C274 C273 1.369 . S
C274 C283 1.429 . S
C275 C273 1.419 . S
C275 C276 1.363 . S
C275 H278 0.929 . S
C276 C275 1.363 . S
C276 C282 1.428 . S
H277 C273 0.930 . S
H278 C275 0.929 . S
S279 N280 1.613 . S
S279 N281 1.610 . S
N280 S279 1.613 . S
N280 C283 1.350 . S
N281 S279 1.610 . S
N281 C282 1.351 . S
C282 C276 1.428 . S
C282 N281 1.351 . S
C282 C283 1.434 . S
C283 C274 1.429 . S
C283 N280 1.350 . S
C283 C282 1.434 . S
C284 C285 1.369 . S
C284 C286 1.419 1_455 S
C284 H288 0.930 . S
C285 C284 1.369 . S
C285 C294 1.429 . S
C286 C284 1.419 1_655 S
C286 C287 1.363 . S
C286 H289 0.929 . S
C287 C286 1.363 . S
C287 C293 1.428 1_655 S
H288 C284 0.930 . S
H289 C286 0.929 . S
S290 N291 1.613 . S
S290 N292 1.610 . S
N291 S290 1.613 . S
N291 C294 1.350 . S
N292 S290 1.610 . S
N292 C293 1.351 . S
C293 C287 1.428 1_455 S
C293 N292 1.351 . S
C293 C294 1.434 . S
C294 C285 1.429 . S
C294 N291 1.350 . S
C294 C293 1.434 . S
C295 C296 1.369 . S
C295 C297 1.419 1_565 S
C295 H299 0.930 . S
C296 C295 1.369 . S
C296 C305 1.429 . S
C297 C295 1.419 1_545 S
C297 C298 1.363 . S
C297 H300 0.929 . S
C298 C297 1.363 . S
C298 C304 1.428 1_545 S
H299 C295 0.930 . S
H300 C297 0.929 . S
S301 N302 1.613 . S
S301 N303 1.610 . S
N302 S301 1.613 . S
N302 C305 1.350 . S
N303 S301 1.610 . S
N303 C304 1.351 . S
C304 C298 1.428 1_565 S
C304 N303 1.351 . S
C304 C305 1.434 . S
C305 C296 1.429 . S
C305 N302 1.350 . S
C305 C304 1.434 . S
C306 C307 1.369 . S
C306 C308 1.419 . S
C306 H310 0.930 . S
C307 C306 1.369 . S
C307 C316 1.429 . S
C308 C306 1.419 . S
C308 C309 1.363 . S
C308 H311 0.929 . S
C309 C308 1.363 . S
C309 C315 1.428 . S
H310 C306 0.930 . S
H311 C308 0.929 . S
S312 N313 1.613 . S
S312 N314 1.610 . S
N313 S312 1.613 . S
N313 C316 1.350 . S
N314 S312 1.610 . S
N314 C315 1.351 . S
C315 C309 1.428 . S
C315 N314 1.351 . S
C315 C316 1.434 . S
C316 C307 1.429 . S
C316 N313 1.350 . S
C316 C315 1.434 . S
C317 C318 1.369 . S
C317 C319 1.419 1_455 S
C317 H321 0.930 . S
C318 C317 1.369 . S
C318 C327 1.429 1_455 S
C319 C317 1.419 1_655 S
C319 C320 1.363 . S
C319 H322 0.929 . S
C320 C319 1.363 . S
C320 C326 1.428 . S
H321 C317 0.930 . S
H322 C319 0.929 . S
S323 N324 1.613 . S
S323 N325 1.610 . S
N324 S323 1.613 . S
N324 C327 1.350 . S
N325 S323 1.610 . S
N325 C326 1.351 . S
C326 C320 1.428 . S
C326 N325 1.351 . S
C326 C327 1.434 . S
C327 C318 1.429 1_655 S
C327 N324 1.350 . S
C327 C326 1.434 . S
C328 C329 1.369 . S
C328 C330 1.419 1_565 S
C328 H332 0.930 . S
C329 C328 1.369 . S
C329 C338 1.429 1_565 S
C330 C328 1.419 1_545 S
C330 C331 1.363 . S
C330 H333 0.929 . S
C331 C330 1.363 . S
C331 C337 1.428 . S
H332 C328 0.930 . S
H333 C330 0.929 . S
S334 N335 1.613 . S
S334 N336 1.610 . S
N335 S334 1.613 . S
N335 C338 1.350 . S
N336 S334 1.610 . S
N336 C337 1.351 . S
C337 C331 1.428 . S
C337 N336 1.351 . S
C337 C338 1.434 . S
C338 C329 1.429 1_545 S
C338 N335 1.350 . S
C338 C337 1.434 . S
C339 C340 1.369 . S
C339 C341 1.419 . S
C339 H343 0.930 . S
C340 C339 1.369 . S
C340 C349 1.429 . S
C341 C339 1.419 . S
C341 C342 1.363 . S
C341 H344 0.929 . S
C342 C341 1.363 . S
C342 C348 1.428 . S
H343 C339 0.930 . S
H344 C341 0.929 . S
S345 N346 1.613 . S
S345 N347 1.610 . S
N346 S345 1.613 . S
N346 C349 1.350 . S
N347 S345 1.610 . S
N347 C348 1.351 . S
C348 C342 1.428 . S
C348 N347 1.351 . S
C348 C349 1.434 . S
C349 C340 1.429 . S
C349 N346 1.350 . S
C349 C348 1.434 . S
C350 C351 1.369 1_655 S
C350 C352 1.419 . S
C350 H354 0.930 . S
C351 C350 1.369 1_455 S
C351 C360 1.429 . S
C352 C350 1.419 . S
C352 C353 1.363 . S
C352 H355 0.929 . S
C353 C352 1.363 . S
C353 C359 1.428 . S
H354 C350 0.930 . S
H355 C352 0.929 . S
S356 N357 1.613 . S
S356 N358 1.610 1_455 S
N357 S356 1.613 . S
N357 C360 1.350 . S
N358 S356 1.610 1_655 S
N358 C359 1.351 . S
C359 C353 1.428 . S
C359 N358 1.351 . S
C359 C360 1.434 1_655 S
C360 C351 1.429 . S
C360 N357 1.350 . S
C360 C359 1.434 1_455 S
C361 C362 1.369 . S
C361 C363 1.419 1_545 S
C361 H365 0.930 . S
C362 C361 1.369 . S
C362 C371 1.429 . S
C363 C361 1.419 1_565 S
C363 C364 1.363 . S
C363 H366 0.929 . S
C364 C363 1.363 . S
C364 C370 1.428 1_565 S
H365 C361 0.930 . S
H366 C363 0.929 . S
S367 N368 1.613 . S
S367 N369 1.610 . S
N368 S367 1.613 . S
N368 C371 1.350 . S
N369 S367 1.610 . S
N369 C370 1.351 . S
C370 C364 1.428 1_545 S
C370 N369 1.351 . S
C370 C371 1.434 . S
C371 C362 1.429 . S
C371 N368 1.350 . S
C371 C370 1.434 . S
C372 C373 1.369 . S
C372 C374 1.419 . S
C372 H376 0.930 . S
C373 C372 1.369 . S
C373 C382 1.429 . S
C374 C372 1.419 . S
C374 C375 1.363 . S
C374 H377 0.929 . S
C375 C374 1.363 . S
C375 C381 1.428 . S
H376 C372 0.930 . S
H377 C374 0.929 . S
S378 N379 1.613 . S
S378 N380 1.610 . S
N379 S378 1.613 . S
N379 C382 1.350 . S
N380 S378 1.610 . S
N380 C381 1.351 . S
C381 C375 1.428 . S
C381 N380 1.351 . S
C381 C382 1.434 . S
C382 C373 1.429 . S
C382 N379 1.350 . S
C382 C381 1.434 . S
C383 C384 1.369 . S
C383 C385 1.419 . S
C383 H387 0.930 . S
C384 C383 1.369 . S
C384 C393 1.429 . S
C385 C383 1.419 . S
C385 C386 1.363 . S
C385 H388 0.929 . S
C386 C385 1.363 . S
C386 C392 1.428 . S
H387 C383 0.930 . S
H388 C385 0.929 . S
S389 N390 1.613 . S
S389 N391 1.610 . S
N390 S389 1.613 . S
N390 C393 1.350 . S
N391 S389 1.610 . S
N391 C392 1.351 . S
C392 C386 1.428 . S
C392 N391 1.351 . S
C392 C393 1.434 . S
C393 C384 1.429 . S
C393 N390 1.350 . S
C393 C392 1.434 . S
C394 C395 1.369 . S
C394 C396 1.419 . S
C394 H398 0.930 . S
C395 C394 1.369 . S
C395 C404 1.429 . S
C396 C394 1.419 . S
C396 C397 1.363 . S
C396 H399 0.929 . S
C397 C396 1.363 . S
C397 C403 1.428 . S
H398 C394 0.930 . S
H399 C396 0.929 . S
S400 N401 1.613 . S
S400 N402 1.610 . S
N401 S400 1.613 . S
N401 C404 1.350 . S
N402 S400 1.610 . S
N402 C403 1.351 . S
C403 C397 1.428 . S
C403 N402 1.351 . S
C403 C404 1.434 . S
C404 C395 1.429 . S
C404 N401 1.350 . S
C404 C403 1.434 . S
C405 C406 1.369 . S
C405 C407 1.419 . S
C405 H409 0.930 . S
C406 C405 1.369 . S
C406 C415 1.429 . S
C407 C405 1.419 . S
C407 C408 1.363 . S
C407 H410 0.929 . S
C408 C407 1.363 . S
C408 C414 1.428 . S
H409 C405 0.930 . S
H410 C407 0.929 . S
S411 N412 1.613 . S
S411 N413 1.610 . S
N412 S411 1.613 . S
N412 C415 1.350 . S
N413 S411 1.610 . S
N413 C414 1.351 . S
C414 C408 1.428 . S
C414 N413 1.351 . S
C414 C415 1.434 . S
C415 C406 1.429 . S
C415 N412 1.350 . S
C415 C414 1.434 . S
C416 C417 1.369 . S
C416 C418 1.419 . S
C416 H420 0.930 . S
C417 C416 1.369 . S
C417 C426 1.429 . S
C418 C416 1.419 . S
C418 C419 1.363 . S
C418 H421 0.929 . S
C419 C418 1.363 . S
C419 C425 1.428 . S
H420 C416 0.930 . S
H421 C418 0.929 . S
S422 N423 1.613 . S
S422 N424 1.610 . S
N423 S422 1.613 . S
N423 C426 1.350 . S
N424 S422 1.610 . S
N424 C425 1.351 . S
C425 C419 1.428 . S
C425 N424 1.351 . S
C425 C426 1.434 . S
C426 C417 1.429 . S
C426 N423 1.350 . S
C426 C425 1.434 . S
C427 C428 1.369 . S
C427 C429 1.419 . S
C427 H431 0.930 . S
C428 C427 1.369 . S
C428 C437 1.429 . S
C429 C427 1.419 . S
C429 C430 1.363 . S
C429 H432 0.929 . S
C430 C429 1.363 . S
C430 C436 1.428 . S
H431 C427 0.930 . S
H432 C429 0.929 . S
S433 N434 1.613 . S
S433 N435 1.610 . S
N434 S433 1.613 . S
N434 C437 1.350 . S
N435 S433 1.610 . S
N435 C436 1.351 . S
C436 C430 1.428 . S
C436 N435 1.351 . S
C436 C437 1.434 . S
C437 C428 1.429 . S
C437 N434 1.350 . S
C437 C436 1.434 . S
C438 C439 1.369 1_554 S
C438 C440 1.419 1_565 S
C438 H442 0.930 . S
C439 C438 1.369 1_556 S
C439 C448 1.429 . S
C440 C438 1.419 1_545 S
C440 C441 1.363 . S
C440 H443 0.929 . S
C441 C440 1.363 . S
C441 C447 1.428 1_554 S
H442 C438 0.930 . S
H443 C440 0.929 . S
S444 N445 1.613 1_545 S
S444 N446 1.610 . S
N445 S444 1.613 1_565 S
N445 C448 1.350 . S
N446 S444 1.610 . S
N446 C447 1.351 . S
C447 C441 1.428 1_556 S
C447 N446 1.351 . S
C447 C448 1.434 1_545 S
C448 C439 1.429 . S
C448 N445 1.350 . S
C448 C447 1.434 1_565 S
C449 C450 1.369 . S
C449 C451 1.419 . S
C449 H453 0.930 . S
C450 C449 1.369 . S
C450 C459 1.429 . S
C451 C449 1.419 . S
C451 C452 1.363 . S
C451 H454 0.929 . S
C452 C451 1.363 . S
C452 C458 1.428 . S
H453 C449 0.930 . S
H454 C451 0.929 . S
S455 N456 1.613 . S
S455 N457 1.610 . S
N456 S455 1.613 . S
N456 C459 1.350 . S
N457 S455 1.610 . S
N457 C458 1.351 . S
C458 C452 1.428 . S
C458 N457 1.351 . S
C458 C459 1.434 . S
C459 C450 1.429 . S
C459 N456 1.350 . S
C459 C458 1.434 . S
C460 C461 1.369 . S
C460 C462 1.419 1_455 S
C460 H464 0.930 . S
C461 C460 1.369 . S
C461 C470 1.429 1_556 S
C462 C460 1.419 1_655 S
C462 C463 1.363 1_556 S
C462 H465 0.929 . S
C463 C462 1.363 1_554 S
C463 C469 1.428 . S
H464 C460 0.930 . S
H465 C462 0.929 . S
S466 N467 1.613 . S
S466 N468 1.610 . S
N467 S466 1.613 . S
N467 C470 1.350 . S
N468 S466 1.610 . S
N468 C469 1.351 1_455 S
C469 C463 1.428 . S
C469 N468 1.351 1_655 S
C469 C470 1.434 1_655 S
C470 C461 1.429 1_554 S
C470 N467 1.350 . S
C470 C469 1.434 1_455 S
C471 C472 1.369 . S
C471 C473 1.419 1_545 S
C471 H475 0.930 . S
C472 C471 1.369 . S
C472 C481 1.429 . S
C473 C471 1.419 1_565 S
C473 C474 1.363 . S
C473 H476 0.929 . S
C474 C473 1.363 . S
C474 C480 1.428 . S
H475 C471 0.930 . S
H476 C473 0.929 . S
S477 N478 1.613 . S
S477 N479 1.610 . S
N478 S477 1.613 . S
N478 C481 1.350 . S
N479 S477 1.610 . S
N479 C480 1.351 1_545 S
C480 C474 1.428 . S
C480 N479 1.351 1_565 S
C480 C481 1.434 1_565 S
C481 C472 1.429 . S
C481 N478 1.350 . S
C481 C480 1.434 1_545 S
C482 C483 1.369 . S
C482 C484 1.426 . S
C482 H486 0.930 . S
C483 C482 1.369 . S
C483 C492 1.421 1_554 S
C484 C482 1.426 . S
C484 C485 1.355 1_554 S
C484 H487 0.930 . S
C485 C484 1.355 1_556 S
C485 C491 1.428 . S
H486 C482 0.930 . S
H487 C484 0.930 . S
S488 N489 1.613 . S
S488 N490 1.610 . S
N489 S488 1.613 . S
N489 C492 1.351 . S
N490 S488 1.610 . S
N490 C491 1.351 . S
C491 C485 1.428 . S
C491 N490 1.351 . S
C491 C492 1.441 . S
C492 C483 1.421 1_556 S
C492 N489 1.351 . S
C492 C491 1.441 . S
C493 C494 1.369 . S
C493 C495 1.419 1_455 S
C493 H497 0.930 . S
C494 C493 1.369 . S
C494 C503 1.429 . S
C495 C493 1.419 1_655 S
C495 C496 1.363 . S
C495 H498 0.929 . S
C496 C495 1.363 . S
C496 C502 1.428 . S
H497 C493 0.930 . S
H498 C495 0.929 . S
S499 N500 1.613 . S
S499 N501 1.610 . S
N500 S499 1.613 . S
N500 C503 1.350 . S
N501 S499 1.610 . S
N501 C502 1.351 1_455 S
C502 C496 1.428 . S
C502 N501 1.351 1_655 S
C502 C503 1.434 1_655 S
C503 C494 1.429 . S
C503 N500 1.350 . S
C503 C502 1.434 1_455 S
C504 C505 1.369 . S
C504 C506 1.419 . S
C504 H508 0.930 . S
C505 C504 1.369 . S
C505 C514 1.429 . S
C506 C504 1.419 . S
C506 C507 1.363 . S
C506 H509 0.929 . S
C507 C506 1.363 . S
C507 C513 1.428 . S
H508 C504 0.930 . S
H509 C506 0.929 . S
S510 N511 1.613 . S
S510 N512 1.610 . S
N511 S510 1.613 . S
N511 C514 1.350 . S
N512 S510 1.610 . S
N512 C513 1.351 . S
C513 C507 1.428 . S
C513 N512 1.351 . S
C513 C514 1.434 . S
C514 C505 1.429 . S
C514 N511 1.350 . S
C514 C513 1.434 . S
C515 C516 1.369 . S
C515 C517 1.419 . S
C515 H519 0.930 . S
C516 C515 1.369 . S
C516 C525 1.429 . S
C517 C515 1.419 . S
C517 C518 1.363 . S
C517 H520 0.929 . S
C518 C517 1.363 . S
C518 C524 1.428 . S
H519 C515 0.930 . S
H520 C517 0.929 . S
S521 N522 1.613 . S
S521 N523 1.610 . S
N522 S521 1.613 . S
N522 C525 1.350 . S
N523 S521 1.610 . S
N523 C524 1.351 . S
C524 C518 1.428 . S
C524 N523 1.351 . S
C524 C525 1.434 . S
C525 C516 1.429 . S
C525 N522 1.350 . S
C525 C524 1.434 . S
C526 C527 1.369 . S
C526 C528 1.419 . S
C526 H530 0.930 . S
C527 C526 1.369 . S
C527 C536 1.429 . S
C528 C526 1.419 . S
C528 C529 1.363 . S
C528 H531 0.929 . S
C529 C528 1.363 . S
C529 C535 1.428 . S
H530 C526 0.930 . S
H531 C528 0.929 . S
S532 N533 1.613 . S
S532 N534 1.610 . S
N533 S532 1.613 . S
N533 C536 1.350 . S
N534 S532 1.610 . S
N534 C535 1.351 . S
C535 C529 1.428 . S
C535 N534 1.351 . S
C535 C536 1.434 . S
C536 C527 1.429 . S
C536 N533 1.350 . S
C536 C535 1.434 . S
C537 C538 1.369 . S
C537 C539 1.419 . S
C537 H541 0.930 . S
C538 C537 1.369 . S
C538 C547 1.429 . S
C539 C537 1.419 . S
C539 C540 1.363 . S
C539 H542 0.929 . S
C540 C539 1.363 . S
C540 C546 1.428 . S
H541 C537 0.930 . S
H542 C539 0.929 . S
S543 N544 1.613 . S
S543 N545 1.610 . S
N544 S543 1.613 . S
N544 C547 1.350 . S
N545 S543 1.610 . S
N545 C546 1.351 . S
C546 C540 1.428 . S
C546 N545 1.351 . S
C546 C547 1.434 . S
C547 C538 1.429 . S
C547 N544 1.350 . S
C547 C546 1.434 . S
C548 C549 1.369 . S
C548 C550 1.419 . S
C548 H552 0.930 . S
C549 C548 1.369 . S
C549 C558 1.429 . S
C550 C548 1.419 . S
C550 C551 1.363 . S
C550 H553 0.929 . S
C551 C550 1.363 . S
C551 C557 1.428 . S
H552 C548 0.930 . S
H553 C550 0.929 . S
S554 N555 1.613 . S
S554 N556 1.610 . S
N555 S554 1.613 . S
N555 C558 1.350 . S
N556 S554 1.610 . S
N556 C557 1.351 . S
C557 C551 1.428 . S
C557 N556 1.351 . S
C557 C558 1.434 . S
C558 C549 1.429 . S
C558 N555 1.350 . S
C558 C557 1.434 . S
C559 C560 1.369 . S
C559 C561 1.419 . S
C559 H563 0.930 . S
C560 C559 1.369 . S
C560 C569 1.429 . S
C561 C559 1.419 . S
C561 C562 1.363 . S
C561 H564 0.929 . S
C562 C561 1.363 . S
C562 C568 1.428 . S
H563 C559 0.930 . S
H564 C561 0.929 . S
S565 N566 1.613 . S
S565 N567 1.610 . S
N566 S565 1.613 . S
N566 C569 1.350 . S
N567 S565 1.610 . S
N567 C568 1.351 . S
C568 C562 1.428 . S
C568 N567 1.351 . S
C568 C569 1.434 . S
C569 C560 1.429 . S
C569 N566 1.350 . S
C569 C568 1.434 . S
C570 C571 1.369 . S
C570 C572 1.419 . S
C570 H574 0.930 . S
C571 C570 1.369 . S
C571 C580 1.429 . S
C572 C570 1.419 . S
C572 C573 1.363 . S
C572 H575 0.929 . S
C573 C572 1.363 . S
C573 C579 1.428 . S
H574 C570 0.930 . S
H575 C572 0.929 . S
S576 N577 1.613 . S
S576 N578 1.610 . S
N577 S576 1.613 . S
N577 C580 1.350 . S
N578 S576 1.610 . S
N578 C579 1.351 . S
C579 C573 1.428 . S
C579 N578 1.351 . S
C579 C580 1.434 . S
C580 C571 1.429 . S
C580 N577 1.350 . S
C580 C579 1.434 . S
C581 C582 1.369 . S
C581 C583 1.419 . S
C581 H585 0.930 . S
C582 C581 1.369 . S
C582 C591 1.429 . S
C583 C581 1.419 . S
C583 C584 1.363 . S
C583 H586 0.929 . S
C584 C583 1.363 . S
C584 C590 1.428 . S
H585 C581 0.930 . S
H586 C583 0.929 . S
S587 N588 1.613 . S
S587 N589 1.610 . S
N588 S587 1.613 . S
N588 C591 1.350 . S
N589 S587 1.610 . S
N589 C590 1.351 . S
C590 C584 1.428 . S
C590 N589 1.351 . S
C590 C591 1.434 . S
C591 C582 1.429 . S
C591 N588 1.350 . S
C591 C590 1.434 . S
C592 C593 1.369 . S
C592 C594 1.419 . S
C592 H596 0.930 . S
C593 C592 1.369 . S
C593 C602 1.429 . S
C594 C592 1.419 . S
C594 C595 1.363 . S
C594 H597 0.929 . S
C595 C594 1.363 . S
C595 C601 1.428 . S
H596 C592 0.930 . S
H597 C594 0.929 . S
S598 N599 1.613 . S
S598 N600 1.610 . S
N599 S598 1.613 . S
N599 C602 1.350 . S
N600 S598 1.610 . S
N600 C601 1.351 . S
C601 C595 1.428 . S
C601 N600 1.351 . S
C601 C602 1.434 . S
C602 C593 1.429 . S
C602 N599 1.350 . S
C602 C601 1.434 . S
C603 C604 1.369 . S
C603 C605 1.419 . S
C603 H607 0.930 . S
C604 C603 1.369 . S
C604 C613 1.429 . S
C605 C603 1.419 . S
C605 C606 1.363 . S
C605 H608 0.929 . S
C606 C605 1.363 . S
C606 C612 1.428 . S
H607 C603 0.930 . S
H608 C605 0.929 . S
S609 N610 1.613 . S
S609 N611 1.610 . S
N610 S609 1.613 . S
N610 C613 1.350 . S
N611 S609 1.610 . S
N611 C612 1.351 . S
C612 C606 1.428 . S
C612 N611 1.351 . S
C612 C613 1.434 . S
C613 C604 1.429 . S
C613 N610 1.350 . S
C613 C612 1.434 . S
C614 C615 1.369 . S
C614 C616 1.419 . S
C614 H618 0.930 . S
C615 C614 1.369 . S
C615 C624 1.429 . S
C616 C614 1.419 . S
C616 C617 1.363 . S
C616 H619 0.929 . S
C617 C616 1.363 . S
C617 C623 1.428 . S
H618 C614 0.930 . S
H619 C616 0.929 . S
S620 N621 1.613 . S
S620 N622 1.610 . S
N621 S620 1.613 . S
N621 C624 1.350 . S
N622 S620 1.610 . S
N622 C623 1.351 . S
C623 C617 1.428 . S
C623 N622 1.351 . S
C623 C624 1.434 . S
C624 C615 1.429 . S
C624 N621 1.350 . S
C624 C623 1.434 . S
C625 C626 1.369 . S
C625 C627 1.419 . S
C625 H629 0.930 . S
C626 C625 1.369 . S
C626 C635 1.429 . S
C627 C625 1.419 . S
C627 C628 1.363 . S
C627 H630 0.929 . S
C628 C627 1.363 . S
C628 C634 1.428 . S
H629 C625 0.930 . S
H630 C627 0.929 . S
S631 N632 1.613 . S
S631 N633 1.610 . S
N632 S631 1.613 . S
N632 C635 1.350 . S
N633 S631 1.610 . S
N633 C634 1.351 . S
C634 C628 1.428 . S
C634 N633 1.351 . S
C634 C635 1.434 . S
C635 C626 1.429 . S
C635 N632 1.350 . S
C635 C634 1.434 . S
C241 C45 2.148 1_455 S
C243 C8 1.753 . S
C252 C65 2.149 1_565 S
C254 C28 1.751 . S
C263 C48 1.740 . S
C265 C85 2.150 . S
C274 C68 1.754 . S
C276 C105 2.148 1_455 S
C285 C5 2.147 1_565 S
C287 C88 1.751 . S
C296 C25 2.148 . S
C298 C108 1.746 . S
C307 C205 2.151 1_545 S
C309 C128 1.743 . S
C318 C148 1.746 . S
C320 C225 2.148 . S
C329 C168 1.753 . S
C331 C125 2.147 1_655 S
C340 C188 1.742 . S
C342 C145 2.150 1_545 S
C351 C208 1.744 . S
C353 C165 2.150 . S
C362 C185 2.148 1_655 S
C364 C228 1.753 . S
C373 C62 1.822 . S
C375 C2 1.821 . S
C384 C22 1.822 . S
C386 C82 1.822 . S
C395 C42 1.816 . S
C397 C102 1.817 . S
C406 C122 1.816 . S
C408 C182 1.817 . S
C417 C142 1.822 . S
C419 C202 1.822 . S
C428 C162 1.822 . S
C430 C222 1.821 . S
C439 C153 1.913 . S
C441 C13 1.918 . S
C450 C33 1.914 . S
C452 C173 1.915 . S
C461 C193 1.922 . S
C463 C53 1.914 . S
C472 C73 1.921 . S
C474 C213 1.914 . S
C483 C93 1.919 . S
C485 C233 1.919 . S
C494 C133 1.921 . S
C496 C113 1.914 . S
C505 C57 1.708 . S
C507 C14 1.839 . S
C516 C34 1.838 . S
C518 C77 1.706 . S
C527 C54 1.837 . S
C529 C97 1.698 . S
C538 C74 1.835 . S
C540 C117 1.701 . S
C549 C17 1.707 . S
C551 C94 1.839 . S
C560 C37 1.708 . S
C562 C114 1.838 . S
C571 C217 1.704 . S
C573 C134 1.839 . S
C582 C154 1.836 . S
C584 C237 1.698 . S
C593 C174 1.840 . S
C595 C137 1.704 . S
C604 C157 1.705 . S
C606 C194 1.839 . S
C615 C214 1.838 . S
C617 C177 1.700 . S
C626 C234 1.839 . S
C628 C197 1.706 . S
