# Generated by pormake.
# Topology sod-e, (6)-cn, num edge types: 1
# Building blocks:
#     Node 0, Type 0, BuildingBlock: IZENUY_clean_sbu_0, # of connection points: 6
#     Node 1, Type 0, BuildingBlock: IZENUY_clean_sbu_0, # of connection points: 6
#     Node 2, Type 0, BuildingBlock: IZENUY_clean_sbu_0, # of connection points: 6
#     Node 3, Type 0, BuildingBlock: IZENUY_clean_sbu_0, # of connection points: 6
#     Node 4, Type 0, BuildingBlock: IZENUY_clean_sbu_0, # of connection points: 6
#     Node 5, Type 0, BuildingBlock: IZENUY_clean_sbu_0, # of connection points: 6
#     Node 6, Type 0, BuildingBlock: IZENUY_clean_sbu_0, # of connection points: 6
#     Node 7, Type 0, BuildingBlock: IZENUY_clean_sbu_0, # of connection points: 6
#     Node 8, Type 0, BuildingBlock: IZENUY_clean_sbu_0, # of connection points: 6
#     Node 9, Type 0, BuildingBlock: IZENUY_clean_sbu_0, # of connection points: 6
#     Node 10, Type 0, BuildingBlock: IZENUY_clean_sbu_0, # of connection points: 6
#     Node 11, Type 0, BuildingBlock: IZENUY_clean_sbu_0, # of connection points: 6
#     Node 12, Type 0, BuildingBlock: IZENUY_clean_sbu_0, # of connection points: 6
#     Node 13, Type 0, BuildingBlock: IZENUY_clean_sbu_0, # of connection points: 6
#     Node 14, Type 0, BuildingBlock: IZENUY_clean_sbu_0, # of connection points: 6
#     Node 15, Type 0, BuildingBlock: IZENUY_clean_sbu_0, # of connection points: 6
#     Node 16, Type 0, BuildingBlock: IZENUY_clean_sbu_0, # of connection points: 6
#     Node 17, Type 0, BuildingBlock: IZENUY_clean_sbu_0, # of connection points: 6
#     Node 18, Type 0, BuildingBlock: IZENUY_clean_sbu_0, # of connection points: 6
#     Node 19, Type 0, BuildingBlock: IZENUY_clean_sbu_0, # of connection points: 6
#     Node 20, Type 0, BuildingBlock: IZENUY_clean_sbu_0, # of connection points: 6
#     Node 21, Type 0, BuildingBlock: IZENUY_clean_sbu_0, # of connection points: 6
#     Node 22, Type 0, BuildingBlock: IZENUY_clean_sbu_0, # of connection points: 6
#     Node 23, Type 0, BuildingBlock: IZENUY_clean_sbu_0, # of connection points: 6
#     Edge 24, Type (0, 0), BuildingBlock: KIFKEQ_clean_linker_1, # of connection points: 2
#     Edge 25, Type (0, 0), BuildingBlock: KIFKEQ_clean_linker_1, # of connection points: 2
#     Edge 26, Type (0, 0), BuildingBlock: KIFKEQ_clean_linker_1, # of connection points: 2
#     Edge 27, Type (0, 0), BuildingBlock: KIFKEQ_clean_linker_1, # of connection points: 2
#     Edge 28, Type (0, 0), BuildingBlock: KIFKEQ_clean_linker_1, # of connection points: 2
#     Edge 29, Type (0, 0), BuildingBlock: KIFKEQ_clean_linker_1, # of connection points: 2
#     Edge 30, Type (0, 0), BuildingBlock: KIFKEQ_clean_linker_1, # of connection points: 2
#     Edge 31, Type (0, 0), BuildingBlock: KIFKEQ_clean_linker_1, # of connection points: 2
#     Edge 32, Type (0, 0), BuildingBlock: KIFKEQ_clean_linker_1, # of connection points: 2
#     Edge 33, Type (0, 0), BuildingBlock: KIFKEQ_clean_linker_1, # of connection points: 2
#     Edge 34, Type (0, 0), BuildingBlock: KIFKEQ_clean_linker_1, # of connection points: 2
#     Edge 35, Type (0, 0), BuildingBlock: KIFKEQ_clean_linker_1, # of connection points: 2
#     Edge 36, Type (0, 0), BuildingBlock: KIFKEQ_clean_linker_1, # of connection points: 2
#     Edge 37, Type (0, 0), BuildingBlock: KIFKEQ_clean_linker_1, # of connection points: 2
#     Edge 38, Type (0, 0), BuildingBlock: KIFKEQ_clean_linker_1, # of connection points: 2
#     Edge 39, Type (0, 0), BuildingBlock: KIFKEQ_clean_linker_1, # of connection points: 2
#     Edge 40, Type (0, 0), BuildingBlock: KIFKEQ_clean_linker_1, # of connection points: 2
#     Edge 41, Type (0, 0), BuildingBlock: KIFKEQ_clean_linker_1, # of connection points: 2
#     Edge 42, Type (0, 0), BuildingBlock: KIFKEQ_clean_linker_1, # of connection points: 2
#     Edge 43, Type (0, 0), BuildingBlock: KIFKEQ_clean_linker_1, # of connection points: 2
#     Edge 44, Type (0, 0), BuildingBlock: KIFKEQ_clean_linker_1, # of connection points: 2
#     Edge 45, Type (0, 0), BuildingBlock: KIFKEQ_clean_linker_1, # of connection points: 2
#     Edge 46, Type (0, 0), BuildingBlock: KIFKEQ_clean_linker_1, # of connection points: 2
#     Edge 47, Type (0, 0), BuildingBlock: KIFKEQ_clean_linker_1, # of connection points: 2
#     Edge 48, Type (0, 0), BuildingBlock: KIFKEQ_clean_linker_1, # of connection points: 2
#     Edge 49, Type (0, 0), BuildingBlock: KIFKEQ_clean_linker_1, # of connection points: 2
#     Edge 50, Type (0, 0), BuildingBlock: KIFKEQ_clean_linker_1, # of connection points: 2
#     Edge 51, Type (0, 0), BuildingBlock: KIFKEQ_clean_linker_1, # of connection points: 2
#     Edge 52, Type (0, 0), BuildingBlock: KIFKEQ_clean_linker_1, # of connection points: 2
#     Edge 53, Type (0, 0), BuildingBlock: KIFKEQ_clean_linker_1, # of connection points: 2
#     Edge 54, Type (0, 0), BuildingBlock: KIFKEQ_clean_linker_1, # of connection points: 2
#     Edge 55, Type (0, 0), BuildingBlock: KIFKEQ_clean_linker_1, # of connection points: 2
#     Edge 56, Type (0, 0), BuildingBlock: KIFKEQ_clean_linker_1, # of connection points: 2
#     Edge 57, Type (0, 0), BuildingBlock: KIFKEQ_clean_linker_1, # of connection points: 2
#     Edge 58, Type (0, 0), BuildingBlock: KIFKEQ_clean_linker_1, # of connection points: 2
#     Edge 59, Type (0, 0), BuildingBlock: KIFKEQ_clean_linker_1, # of connection points: 2
#     Edge 60, Type (0, 0), BuildingBlock: KIFKEQ_clean_linker_1, # of connection points: 2
#     Edge 61, Type (0, 0), BuildingBlock: KIFKEQ_clean_linker_1, # of connection points: 2
#     Edge 62, Type (0, 0), BuildingBlock: KIFKEQ_clean_linker_1, # of connection points: 2
#     Edge 63, Type (0, 0), BuildingBlock: KIFKEQ_clean_linker_1, # of connection points: 2
#     Edge 64, Type (0, 0), BuildingBlock: KIFKEQ_clean_linker_1, # of connection points: 2
#     Edge 65, Type (0, 0), BuildingBlock: KIFKEQ_clean_linker_1, # of connection points: 2
#     Edge 66, Type (0, 0), BuildingBlock: KIFKEQ_clean_linker_1, # of connection points: 2
#     Edge 67, Type (0, 0), BuildingBlock: KIFKEQ_clean_linker_1, # of connection points: 2
#     Edge 68, Type (0, 0), BuildingBlock: KIFKEQ_clean_linker_1, # of connection points: 2
#     Edge 69, Type (0, 0), BuildingBlock: KIFKEQ_clean_linker_1, # of connection points: 2
#     Edge 70, Type (0, 0), BuildingBlock: KIFKEQ_clean_linker_1, # of connection points: 2
#     Edge 71, Type (0, 0), BuildingBlock: KIFKEQ_clean_linker_1, # of connection points: 2
#     Edge 72, Type (0, 0), BuildingBlock: KIFKEQ_clean_linker_1, # of connection points: 2
#     Edge 73, Type (0, 0), BuildingBlock: KIFKEQ_clean_linker_1, # of connection points: 2
#     Edge 74, Type (0, 0), BuildingBlock: KIFKEQ_clean_linker_1, # of connection points: 2
#     Edge 75, Type (0, 0), BuildingBlock: KIFKEQ_clean_linker_1, # of connection points: 2
#     Edge 76, Type (0, 0), BuildingBlock: KIFKEQ_clean_linker_1, # of connection points: 2
#     Edge 77, Type (0, 0), BuildingBlock: KIFKEQ_clean_linker_1, # of connection points: 2
#     Edge 78, Type (0, 0), BuildingBlock: KIFKEQ_clean_linker_1, # of connection points: 2
#     Edge 79, Type (0, 0), BuildingBlock: KIFKEQ_clean_linker_1, # of connection points: 2
#     Edge 80, Type (0, 0), BuildingBlock: KIFKEQ_clean_linker_1, # of connection points: 2
#     Edge 81, Type (0, 0), BuildingBlock: KIFKEQ_clean_linker_1, # of connection points: 2
#     Edge 82, Type (0, 0), BuildingBlock: KIFKEQ_clean_linker_1, # of connection points: 2
#     Edge 83, Type (0, 0), BuildingBlock: KIFKEQ_clean_linker_1, # of connection points: 2
#     Edge 84, Type (0, 0), BuildingBlock: KIFKEQ_clean_linker_1, # of connection points: 2
#     Edge 85, Type (0, 0), BuildingBlock: KIFKEQ_clean_linker_1, # of connection points: 2
#     Edge 86, Type (0, 0), BuildingBlock: KIFKEQ_clean_linker_1, # of connection points: 2
#     Edge 87, Type (0, 0), BuildingBlock: KIFKEQ_clean_linker_1, # of connection points: 2
#     Edge 88, Type (0, 0), BuildingBlock: KIFKEQ_clean_linker_1, # of connection points: 2
#     Edge 89, Type (0, 0), BuildingBlock: KIFKEQ_clean_linker_1, # of connection points: 2
#     Edge 90, Type (0, 0), BuildingBlock: KIFKEQ_clean_linker_1, # of connection points: 2
#     Edge 91, Type (0, 0), BuildingBlock: KIFKEQ_clean_linker_1, # of connection points: 2
#     Edge 92, Type (0, 0), BuildingBlock: KIFKEQ_clean_linker_1, # of connection points: 2
#     Edge 93, Type (0, 0), BuildingBlock: KIFKEQ_clean_linker_1, # of connection points: 2
#     Edge 94, Type (0, 0), BuildingBlock: KIFKEQ_clean_linker_1, # of connection points: 2
#     Edge 95, Type (0, 0), BuildingBlock: KIFKEQ_clean_linker_1, # of connection points: 2
# Relax obj value: 0.473
# Max RMSD: 0.285
# Mean RMSD: 0.284
data_MOF--net-sod-e--node1-IZENUY_clean_sbu_0--edge1-KIFKEQ_clean_linker_1
_symmetry_space_group_name_H-M    P1
_symmetry_Int_Tables_number       1
_symmetry_cell_setting            triclinic
loop_
_symmetry_equiv_pos_as_xyz
'x, y, z'
_cell_length_a     50.254346
_cell_length_b     50.175683
_cell_length_c     50.295946
_cell_angle_alpha  90.2442
_cell_angle_beta   89.724327
_cell_angle_gamma 90.103312
loop_
_atom_site_label
_atom_site_type_symbol
_atom_site_fract_x
_atom_site_fract_y
_atom_site_fract_z
_atom_type_partial_charge
Fe0 Fe 0.01969 0.32258 0.28632 0.0
Fe1 Fe 0.98832 0.32808 0.33807 0.0
O2 O 0.01731 0.33449 0.31942 0.0
Fe3 Fe 0.04364 0.35272 0.33374 0.0
O4 O 0.04148 0.37783 0.30844 0.0
O5 O 0.04125 0.35008 0.27462 0.0
O6 O 0.99148 0.34299 0.27684 0.0
C7 C 0.9691 0.34194 0.28835 0.0
C8 C 0.06876 0.31079 0.30633 0.0
O9 O 0.96621 0.32833 0.30925 0.0
C10 C 0.02909 0.3223 0.37587 0.0
O11 O -0.00179 0.29293 0.2921 0.0
O12 O -0.00598 0.2927 0.33549 0.0
O13 O 0.06959 0.33428 0.31569 0.0
O14 O 0.04804 0.30209 0.29498 0.0
C15 C -0.00244 0.3802 0.35052 0.0
O16 O 0.00512 0.32699 0.37007 0.0
O17 O 0.04756 0.32881 0.36024 0.0
C18 C 0.99343 0.28051 0.3136 0.0
O19 O 0.98144 0.36323 0.34145 0.0
O20 O 0.02185 0.37431 0.35397 0.0
C21 C 0.044 0.37348 0.28395 0.0
Fe22 Fe 0.60261 0.00903 0.37863 0.0
Fe23 Fe 0.61679 0.95086 0.38774 0.0
O24 O 0.62025 0.98018 0.36857 0.0
Fe25 Fe 0.64114 0.98058 0.34032 0.0
O26 O 0.65238 0.01525 0.34586 0.0
O27 O 0.63301 0.02739 0.38358 0.0
O28 O 0.60354 0.00076 0.41398 0.0
C29 C 0.62273 0.98928 0.42528 0.0
C30 C 0.59918 0.01086 0.32304 0.0
O31 O 0.63181 0.96783 0.41583 0.0
C32 C 0.61373 0.93053 0.33778 0.0
O33 O 0.57143 0.99177 0.37342 0.0
O34 O 0.58281 0.9585 0.3986 0.0
O35 O 0.61403 0.99103 0.31872 0.0
O36 O 0.59897 0.02239 0.34536 0.0
C37 C 0.67064 0.94948 0.37366 0.0
O38 O 0.60257 0.9331 0.36017 0.0
O39 O 0.63275 0.94585 0.33062 0.0
C40 C 0.56564 0.97 0.38444 0.0
O41 O 0.64949 0.93756 0.37992 0.0
O42 O 0.66997 0.97037 0.35985 0.0
C43 C 0.65119 0.03014 0.36641 0.0
Fe44 Fe 0.91319 0.61585 0.37668 0.0
Fe45 Fe 0.94013 0.66052 0.34428 0.0
O46 O 0.94225 0.63228 0.36516 0.0
Fe47 Fe 0.97368 0.62045 0.37517 0.0
O48 O 0.96796 0.58903 0.35879 0.0
O49 O 0.92875 0.58244 0.3772 0.0
O50 O 0.90316 0.60848 0.34335 0.0
C51 C 0.89958 0.62535 0.32527 0.0
C52 C 0.94315 0.61657 0.42134 0.0
O53 O 0.91023 0.64837 0.3264 0.0
C54 C 0.98013 0.67376 0.38167 0.0
O55 O 0.89255 0.6461 0.37824 0.0
O56 O 0.9205 0.67839 0.36866 0.0
O57 O 0.96212 0.60774 0.40731 0.0
O58 O 0.92147 0.6228 0.41082 0.0
C59 C 0.98325 0.63607 0.322 0.0
O60 O 0.96957 0.6775 0.35904 0.0
O61 O 0.98053 0.65109 0.39211 0.0
C62 C 0.89958 0.6703 0.37992 0.0
O63 O 0.95995 0.64459 0.31844 0.0
O64 O 0.99152 0.63129 0.34519 0.0
C65 C 0.94907 0.57363 0.36484 0.0
Fe66 Fe 0.36489 0.94088 0.32873 0.0
Fe67 Fe 0.31461 0.92414 0.2988 0.0
O68 O 0.3415 0.91627 0.32003 0.0
Fe69 Fe 0.34542 0.88371 0.33299 0.0
O70 O 0.34196 0.89592 0.36696 0.0
O71 O 0.37216 0.92704 0.36142 0.0
O72 O 0.33962 0.96098 0.34474 0.0
C73 C 0.31895 0.96917 0.33325 0.0
C74 C 0.39824 0.89952 0.3213 0.0
O75 O 0.31054 0.95823 0.31205 0.0
C76 C 0.33201 0.87274 0.28185 0.0
O77 O 0.36212 0.95958 0.29813 0.0
O78 O 0.33638 0.93572 0.27221 0.0
O79 O 0.38204 0.8853 0.33446 0.0
O80 O 0.39108 0.92195 0.31286 0.0
C81 C 0.29004 0.89086 0.33399 0.0
O82 O 0.31477 0.89128 0.28201 0.0
O83 O 0.34872 0.87008 0.30025 0.0
C84 C 0.35413 0.9532 0.27531 0.0
O85 O 0.29054 0.91363 0.32366 0.0
O86 O 0.31007 0.87584 0.33349 0.0
C87 C 0.35772 0.913 0.37647 0.0
Fe88 Fe 0.0102 0.65557 0.6557 0.0
Fe89 Fe 0.95321 0.63561 0.65913 0.0
O90 O 0.97967 0.65374 0.67302 0.0
Fe91 Fe 0.97642 0.66988 0.7043 0.0
O92 O -0.00091 0.69778 0.69517 0.0
O93 O 0.00592 0.69096 0.65237 0.0
O94 O -0.00392 0.65175 0.62263 0.0
C95 C 0.97314 0.65669 0.61389 0.0
C96 C 0.02584 0.64778 0.70708 0.0
O97 O 0.95331 0.65576 0.62924 0.0
C98 C 0.94802 0.62145 0.71117 0.0
O99 O 0.01515 0.61989 0.65842 0.0
O100 O 0.97488 0.61011 0.64424 0.0
O101 O 0.00308 0.64932 0.71765 0.0
O102 O 0.0301 0.65982 0.6856 0.0
C103 C 0.92865 0.68151 0.68101 0.0
O104 O 0.9513 0.61422 0.68747 0.0
O105 O 0.95313 0.64514 0.71846 0.0
C106 C -0.00176 0.60299 0.65059 0.0
O107 O 0.92743 0.65781 0.6723 0.0
O108 O 0.94933 0.69034 0.69229 0.0
C109 C 0.00445 0.70659 0.67203 0.0
Fe110 Fe 0.3932 0.95001 0.61255 0.0
Fe111 Fe 0.38916 0.00965 0.60199 0.0
O112 O 0.37687 0.98085 0.61793 0.0
Fe113 Fe 0.34851 0.98287 0.63867 0.0
O114 O 0.36695 0.96994 0.66673 0.0
O115 O 0.38518 0.9364 0.64524 0.0
O116 O 0.4239 0.96283 0.62666 0.0
C117 C 0.43522 0.98349 0.61795 0.0
C118 C 0.34126 0.93456 0.60955 0.0
O119 O 0.42361 -0.0015 0.60161 0.0
C120 C 0.33393 0.01739 0.59963 0.0
O121 O 0.40371 0.95801 0.57861 0.0
O122 O 0.38225 -0.00513 0.56975 0.0
O123 O 0.33573 0.94954 0.62928 0.0
O124 O 0.36369 0.93561 0.59831 0.0
C125 C 0.37865 0.02941 0.65136 0.0
O126 O 0.3573 0.02643 0.59979 0.0
O127 O 0.32814 -0.00369 0.61199 0.0
C128 C 0.39162 0.97273 0.56231 0.0
O129 O 0.396 0.0256 0.63349 0.0
O130 O 0.35687 0.01642 0.65143 0.0
C131 C 0.37948 0.94823 0.6667 0.0
Fe132 Fe 0.05679 0.36388 0.60593 0.0
Fe133 Fe 0.02628 0.32041 0.63649 0.0
O134 O 0.02658 0.34993 0.61754 0.0
Fe135 Fe -0.00378 0.36539 0.60908 0.0
O136 O 0.00247 0.35832 0.57446 0.0
O137 O 0.04224 0.37613 0.57488 0.0
O138 O 0.06494 0.3341 0.58775 0.0
C139 C 0.06574 0.31085 0.59688 0.0
C140 C 0.03026 0.40905 0.6183 0.0
O141 O 0.05534 0.30533 0.6193 0.0
C142 C 0.98721 0.35405 0.66093 0.0
O143 O 0.07632 0.35338 0.63463 0.0
O144 O 0.04694 0.33548 0.66191 0.0
O145 O 0.01032 0.39895 0.60675 0.0
O146 O 0.05033 0.395 0.62343 0.0
C147 C 0.98376 0.31173 0.60372 0.0
O148 O -0.00291 0.33095 0.65681 0.0
O149 O 0.98907 0.37213 0.64359 0.0
C150 C 0.06926 0.34628 0.65772 0.0
O151 O 0.00588 0.30337 0.61185 0.0
O152 O 0.97623 0.33493 0.60974 0.0
C153 C 0.02351 0.36482 0.56244 0.0
Fe154 Fe 0.67825 0.03162 0.63624 0.0
Fe155 Fe 0.69164 0.07327 0.67809 0.0
O156 O 0.67492 0.06414 0.64848 0.0
Fe157 Fe 0.65551 0.08739 0.63104 0.0
O158 O 0.63097 0.06255 0.61967 0.0
O159 O 0.64314 0.02553 0.63958 0.0
O160 O 0.68179 0.01669 0.66911 0.0
C161 C 0.67118 0.02457 0.69058 0.0
C162 C 0.68015 0.0621 0.58978 0.0
O163 O 0.67222 0.04897 0.697 0.0
C164 C 0.70158 0.11534 0.64501 0.0
O165 O 0.71339 0.03688 0.63217 0.0
O166 O 0.71954 0.04938 0.67329 0.0
O167 O 0.67546 0.08408 0.60098 0.0
O168 O 0.67503 0.0405 0.60147 0.0
C169 C 0.64239 0.10009 0.68196 0.0
O170 O 0.71128 0.09752 0.65982 0.0
O171 O 0.67688 0.11569 0.63999 0.0
C172 C 0.72863 0.03983 0.65165 0.0
O173 O 0.6668 0.09851 0.68815 0.0
O174 O 0.6344 0.09218 0.65963 0.0
C175 C 0.62544 0.03977 0.6292 0.0
Fe176 Fe 0.30478 0.34223 0.02665 0.0
Fe177 Fe 0.34082 0.38293 0.05533 0.0
O178 O 0.33321 0.3632 0.02728 0.0
Fe179 Fe 0.3538 0.36468 -0.00106 0.0
O180 O 0.32739 0.35662 0.97548 0.0
O181 O 0.29116 0.36103 -0.00109 0.0
O182 O 0.28424 0.36347 0.0486 0.0
C183 C 0.28666 0.38814 0.05333 0.0
C184 C 0.3452 0.3119 0.0006 0.0
O185 O 0.30906 0.3991 0.05395 0.0
C186 C 0.3909 0.36925 0.04044 0.0
O187 O 0.31709 0.32333 0.05434 0.0
O188 O 0.32937 0.3576 0.07927 0.0
O189 O 0.36222 0.33021 0.00313 0.0
O190 O 0.32061 0.3168 0.00462 0.0
C191 C 0.3483 0.41713 0.01136 0.0
O192 O 0.37371 0.36851 0.05866 0.0
O193 O 0.38405 0.37329 0.01673 0.0
C194 C 0.32512 0.33278 0.07621 0.0
O195 O 0.3531 0.41139 0.0355 0.0
O196 O 0.34583 0.39915 -0.00599 0.0
C197 C 0.30362 0.3643 0.97735 0.0
Fe198 Fe 0.32373 0.69737 0.95321 0.0
Fe199 Fe 0.35334 0.65488 0.98491 0.0
O200 O 0.3427 0.66766 0.95411 0.0
Fe201 Fe 0.35193 0.65086 0.9245 0.0
O202 O 0.35459 0.68108 0.90427 0.0
O203 O 0.34873 0.71365 0.93289 0.0
O204 O 0.34093 0.71281 0.98191 0.0
C205 C 0.36427 0.70766 0.99003 0.0
C206 C 0.30068 0.66416 0.91363 0.0
O207 O 0.37271 0.68414 0.9908 0.0
C208 C 0.3387 0.60929 0.96049 0.0
O209 O 0.29758 0.68273 0.97389 0.0
O210 O 0.32503 0.66786 0.00405 0.0
O211 O 0.31775 0.64596 0.91554 0.0
O212 O 0.30395 0.68697 0.92412 0.0
C213 C 0.39798 0.64762 0.95249 0.0
O214 O 0.33449 0.62482 0.9798 0.0
O215 O 0.35078 0.61745 0.93977 0.0
C216 C 0.3016 0.67291 -0.00341 0.0
O217 O 0.38406 0.63972 0.97192 0.0
O218 O 0.38689 0.65539 0.93159 0.0
C219 C 0.35924 0.70467 0.91189 0.0
Fe220 Fe 0.63598 0.35467 0.06138 0.0
Fe221 Fe 0.61921 0.36544 0.00429 0.0
O222 O 0.63337 0.3441 0.02793 0.0
Fe223 Fe 0.64486 0.3121 0.0185 0.0
O224 O 0.62096 0.29674 0.04079 0.0
O225 O 0.63253 0.32098 0.07524 0.0
O226 O 0.60038 0.35744 0.06458 0.0
C227 C 0.58625 0.37155 0.04964 0.0
C228 C 0.68368 0.3308 0.05456 0.0
O229 O 0.59533 0.38046 0.02782 0.0
C230 C 0.66267 0.34184 0.97687 0.0
O231 O 0.63944 0.3904 0.05378 0.0
O232 O 0.64407 0.39059 0.01055 0.0
O233 O 0.67174 0.31132 0.04364 0.0
O234 O 0.67162 0.35223 0.0595 0.0
C235 C 0.59811 0.31845 0.98783 0.0
O236 O 0.64063 0.35409 0.97686 0.0
O237 O 0.66878 0.32606 -0.00461 0.0
C238 C 0.64696 0.40189 0.03268 0.0
O239 O 0.59346 0.34157 -0.00368 0.0
O240 O 0.62042 0.30747 0.99169 0.0
C241 C 0.61964 0.30168 0.06536 0.0
Fe242 Fe 0.64055 0.62896 0.9578 0.0
Fe243 Fe 0.6873 0.66057 0.98164 0.0
O244 O 0.655 0.64652 0.98452 0.0
Fe245 Fe 0.6375 0.64965 0.01498 0.0
O246 O 0.63791 0.61414 0.01968 0.0
O247 O 0.62451 0.60391 0.97929 0.0
O248 O 0.66803 0.60606 0.95573 0.0
C249 C 0.69208 0.61213 0.95277 0.0
C250 C 0.59616 0.65322 0.97721 0.0
O251 O 0.70018 0.63551 0.95793 0.0
C252 C 0.65775 0.69929 0.01026 0.0
O253 O 0.65461 0.65123 0.93234 0.0
O254 O 0.67672 0.68197 0.95499 0.0
O255 O 0.60414 0.64847 0.00048 0.0
O256 O 0.61157 0.65027 0.95767 0.0
C257 C 0.68857 0.63794 0.03074 0.0
O258 O 0.68008 0.68866 0.00474 0.0
O259 O 0.63683 0.68538 0.0113 0.0
C260 C 0.66469 0.6744 0.93426 0.0
O261 O 0.69913 0.639 0.00797 0.0
O262 O 0.66759 0.65099 0.03532 0.0
C263 C 0.6307 0.59707 0.00276 0.0
Fe264 Fe 0.5435 0.84604 0.81513 0.0
Fe265 Fe 0.51336 0.87526 0.85999 0.0
O266 O 0.54333 0.86704 0.84359 0.0
Fe267 Fe 0.57356 0.88054 0.85559 0.0
O268 O 0.59032 0.88039 0.82355 0.0
O269 O 0.55883 0.87238 0.79505 0.0
O270 O 0.51137 0.85783 0.80253 0.0
C271 C 0.49761 0.87826 0.80819 0.0
C272 C 0.58768 0.82917 0.84581 0.0
O273 O 0.49963 0.88975 0.83039 0.0
C274 C 0.5453 0.86989 0.90272 0.0
O275 O 0.52755 0.81868 0.83303 0.0
O276 O 0.4974 0.84336 0.85347 0.0
O277 O 0.58563 0.84768 0.86278 0.0
O278 O 0.57573 0.83041 0.82356 0.0
C279 C 0.54133 0.92383 0.85848 0.0
O280 O 0.52504 0.86124 0.89086 0.0
O281 O 0.5628 0.88293 0.89022 0.0
C282 C 0.50655 0.82089 0.84679 0.0
O283 O 0.52411 0.90888 0.86926 0.0
O284 O 0.56243 0.91426 0.84865 0.0
C285 C 0.58 0.88441 0.80124 0.0
Fe286 Fe 0.13433 0.51286 0.83498 0.0
Fe287 Fe 0.15769 0.45909 0.85 0.0
O288 O 0.15844 0.48788 0.82961 0.0
Fe289 Fe 0.18311 0.4913 0.80447 0.0
O290 O 0.18717 0.52754 0.80912 0.0
O291 O 0.15931 0.53757 0.84173 0.0
O292 O 0.13269 0.50757 0.87081 0.0
C293 C 0.15063 0.49892 0.88608 0.0
C294 C 0.13942 0.51163 0.77923 0.0
O295 O 0.16464 0.47906 0.87944 0.0
C296 C 0.16484 0.43779 0.80059 0.0
O297 O 0.10748 0.48962 0.82829 0.0
O298 O 0.12184 0.45996 0.8564 0.0
O299 O 0.1587 0.49571 0.7783 0.0
O300 O 0.13231 0.52279 0.80054 0.0
C301 C 0.21213 0.46777 0.84347 0.0
O302 O 0.1509 0.43842 0.82155 0.0
O303 O 0.18246 0.45546 0.7958 0.0
C304 C 0.10357 0.46899 0.8419 0.0
O305 O 0.19301 0.45211 0.84737 0.0
O306 O 0.20986 0.48755 0.82845 0.0
C307 C 0.17909 0.54319 0.82736 0.0
Fe308 Fe 0.45688 0.19445 0.8212 0.0
Fe309 Fe 0.49338 0.16574 0.86015 0.0
O310 O 0.462 0.16912 0.84516 0.0
Fe311 Fe 0.43572 0.14768 0.85462 0.0
O312 O 0.43222 0.13586 0.82115 0.0
O313 O 0.43202 0.17521 0.80194 0.0
O314 O 0.48208 0.18023 0.79938 0.0
C315 C 0.50573 0.17608 0.80667 0.0
C316 C 0.41256 0.19804 0.85298 0.0
O317 O 0.51191 0.17731 0.831 0.0
C318 C 0.45822 0.15712 0.90285 0.0
O319 O 0.48088 0.21811 0.83628 0.0
O320 O 0.49111 0.19875 0.87396 0.0
O321 O 0.40981 0.17311 0.85018 0.0
O322 O 0.43209 0.20978 0.84246 0.0
C323 C 0.48083 0.11385 0.85171 0.0
O324 O 0.48071 0.15355 0.89209 0.0
O325 O 0.43755 0.15821 0.88892 0.0
C326 C 0.48844 0.21946 0.86029 0.0
O327 O 0.49703 0.13247 0.84718 0.0
O328 O 0.45748 0.11872 0.86025 0.0
C329 C 0.42764 0.15025 0.8013 0.0
Fe330 Fe 0.86524 0.39875 0.86698 0.0
Fe331 Fe 0.87017 0.45825 0.87861 0.0
O332 O 0.8556 0.43201 0.86025 0.0
Fe333 Fe 0.83179 0.43924 0.83551 0.0
O334 O 0.81171 0.40893 0.8415 0.0
O335 O 0.83182 0.38953 0.87512 0.0
O336 O 0.8699 0.40462 0.90303 0.0
C337 C 0.85873 0.42243 0.91717 0.0
C338 C 0.86228 0.40038 0.81124 0.0
O339 O 0.85544 0.44566 0.90853 0.0
C340 C 0.87163 0.47935 0.82926 0.0
O341 O 0.89952 0.40603 0.85878 0.0
O342 O 0.90167 0.44102 0.88469 0.0
O343 O 0.85206 0.42328 0.81017 0.0
O344 O 0.8618 0.38714 0.83258 0.0
C345 C 0.81731 0.4756 0.87351 0.0
O346 O 0.88501 0.47205 0.84908 0.0
O347 O 0.84808 0.47073 0.82554 0.0
C348 C 0.91295 0.42371 0.87028 0.0
O349 O 0.84174 0.48066 0.87631 0.0
O350 O 0.80997 0.45616 0.85931 0.0
C351 C 0.8115 0.393 0.86108 0.0
Fe352 Fe 0.45567 0.15918 0.19041 0.0
Fe353 Fe 0.48106 0.13227 0.14178 0.0
O354 O 0.45256 0.1427 0.15951 0.0
Fe355 Fe 0.42068 0.13543 0.14659 0.0
O356 O 0.41298 0.17039 0.14438 0.0
O357 O 0.42586 0.18012 0.18536 0.0
O358 O 0.47469 0.18612 0.17535 0.0
C359 C 0.49583 0.18252 0.16217 0.0
C360 C 0.41469 0.12424 0.19977 0.0
O361 O 0.50208 0.15974 0.15332 0.0
C362 C 0.44729 0.08879 0.1388 0.0
O363 O 0.486 0.14109 0.2003 0.0
O364 O 0.49148 0.11117 0.16866 0.0
O365 O 0.40441 0.13341 0.17898 0.0
O366 O 0.43726 0.13253 0.20692 0.0
C367 C 0.45046 0.14958 0.10123 0.0
O368 O 0.46491 0.1028 0.12749 0.0
O369 O 0.42725 0.09991 0.14912 0.0
C370 C 0.49498 0.11879 0.19224 0.0
O371 O 0.47193 0.1528 0.11374 0.0
O372 O 0.43131 0.1368 0.11166 0.0
C373 C 0.41391 0.1862 0.16397 0.0
Fe374 Fe 0.84053 0.45595 0.15859 0.0
Fe375 Fe 0.81466 0.50679 0.13822 0.0
O376 O 0.81512 0.47996 0.1606 0.0
Fe377 Fe 0.78987 0.4768 0.18527 0.0
O378 O 0.81118 0.45903 0.20929 0.0
O379 O 0.85077 0.46417 0.19185 0.0
O380 O 0.86642 0.47897 0.14696 0.0
C381 C 0.8679 0.50414 0.14763 0.0
C382 C 0.79399 0.42605 0.16652 0.0
O383 O 0.84727 0.5182 0.14781 0.0
C384 C 0.76177 0.49733 0.14134 0.0
O385 O 0.83175 0.44666 0.1252 0.0
O386 O 0.82783 0.48748 0.10993 0.0
O387 O 0.77876 0.44576 0.17039 0.0
O388 O 0.81895 0.42837 0.16943 0.0
C389 C 0.80247 0.52954 0.18841 0.0
O390 O 0.78211 0.49707 0.12682 0.0
O391 O 0.76398 0.49438 0.1662 0.0
C392 C 0.82962 0.46254 0.10608 0.0
O393 O 0.80182 0.53069 0.16316 0.0
O394 O 0.80022 0.50765 0.20059 0.0
C395 C 0.83623 0.46035 0.21185 0.0
Fe396 Fe 0.5439 0.86387 0.14834 0.0
Fe397 Fe 0.51112 0.81216 0.14977 0.0
O398 O 0.514 0.84633 0.14195 0.0
Fe399 Fe 0.48714 0.86316 0.12728 0.0
O400 O 0.50804 0.8864 0.10834 0.0
O401 O 0.54831 0.87093 0.11356 0.0
O402 O 0.56587 0.83488 0.1426 0.0
C403 C 0.56108 0.81473 0.12809 0.0
C404 C 0.50331 0.90129 0.16153 0.0
O405 O 0.53832 0.80431 0.12789 0.0
C406 C 0.46163 0.82838 0.16359 0.0
O407 O 0.54089 0.85733 0.18323 0.0
O408 O 0.53279 0.81427 0.17931 0.0
O409 O 0.48488 0.88547 0.15535 0.0
O410 O 0.5272 0.8961 0.15485 0.0
C411 C 0.48491 0.81676 0.09993 0.0
O412 O 0.48296 0.81807 0.17171 0.0
O413 O 0.46135 0.84292 0.14314 0.0
C414 C 0.53881 0.8345 0.19326 0.0
O415 O 0.48923 0.80435 0.12146 0.0
O416 O 0.48792 0.84162 0.0986 0.0
C417 C 0.53125 0.88233 0.09944 0.0
Fe418 Fe 0.09718 0.53398 0.10899 0.0
Fe419 Fe 0.13577 0.56209 0.14639 0.0
O420 O 0.11063 0.56372 0.12205 0.0
Fe421 Fe 0.09864 0.59469 0.11004 0.0
O422 O 0.06406 0.58238 0.10556 0.0
O423 O 0.06543 0.54225 0.12311 0.0
O424 O 0.10317 0.51387 0.13829 0.0
C425 C 0.10396 0.52084 0.16234 0.0
C426 C 0.1019 0.56527 0.06462 0.0
O427 O 0.11476 0.5426 0.16888 0.0
C428 C 0.15391 0.60282 0.11397 0.0
O429 O 0.12889 0.52469 0.09486 0.0
O430 O 0.15133 0.53188 0.13188 0.0
O431 O 0.10922 0.58621 0.07634 0.0
O432 O 0.08828 0.54839 0.07713 0.0
C433 C 0.10153 0.60359 0.16389 0.0
O434 O 0.15851 0.58108 0.1256 0.0
O435 O 0.13057 0.6122 0.11315 0.0
C436 C 0.14952 0.52162 0.10873 0.0
O437 O 0.12391 0.59181 0.16462 0.0
O438 O 0.08812 0.60467 0.14282 0.0
C439 C 0.05297 0.56339 0.11817 0.0
Fe440 Fe 0.80226 0.83642 0.54253 0.0
Fe441 Fe 0.84818 0.86097 0.57399 0.0
O442 O 0.83362 0.85228 0.54327 0.0
Fe443 Fe 0.85032 0.86042 0.51356 0.0
O444 O 0.82331 0.88147 0.5029 0.0
O445 O 0.79162 0.85236 0.51135 0.0
O446 O 0.78722 0.86475 0.56014 0.0
C447 C 0.79524 0.87307 0.58246 0.0
C448 C 0.82793 0.80973 0.5025 0.0
O449 O 0.81682 0.8647 0.59172 0.0
C450 C 0.8918 0.84394 0.54337 0.0
O451 O 0.80805 0.8174 0.57346 0.0
O452 O 0.84995 0.82652 0.58331 0.0
O453 O 0.83744 0.83182 0.49489 0.0
O454 O 0.81572 0.80775 0.52446 0.0
C455 C 0.85721 0.90585 0.54519 0.0
O456 O 0.88244 0.8581 0.56204 0.0
O457 O 0.87841 0.83988 0.52262 0.0
C458 C 0.82982 0.81156 0.58485 0.0
O459 O 0.8465 0.89624 0.56578 0.0
O460 O 0.86591 0.89062 0.52701 0.0
C461 C 0.79979 0.87343 0.50007 0.0
Fe462 Fe 0.83618 0.17631 0.44922 0.0
Fe463 Fe 0.87106 0.14332 0.48635 0.0
O464 O 0.8556 0.14752 0.45526 0.0
Fe465 Fe 0.86018 0.12311 0.4303 0.0
O466 O 0.85949 0.14674 0.40258 0.0
O467 O 0.85774 0.18611 0.42192 0.0
O468 O 0.85653 0.19843 0.47081 0.0
C469 C 0.88045 0.19584 0.47858 0.0
C470 C 0.80798 0.13446 0.4231 0.0
O471 O 0.89046 0.17308 0.4814 0.0
C472 C 0.85365 0.09295 0.47773 0.0
O473 O 0.8136 0.16818 0.47638 0.0
O474 O 0.84551 0.16132 0.50523 0.0
O475 O 0.82513 0.11711 0.42844 0.0
O476 O 0.81259 0.15913 0.42668 0.0
C477 C 0.90998 0.12517 0.45059 0.0
O478 O 0.85254 0.11311 0.49273 0.0
O479 O 0.86169 0.09508 0.45383 0.0
C480 C 0.82128 0.16548 0.50008 0.0
O481 O 0.89965 0.12465 0.47351 0.0
O482 O 0.89572 0.12785 0.43037 0.0
C483 C 0.8644 0.17148 0.40253 0.0
Fe484 Fe 0.14008 0.84807 0.54204 0.0
Fe485 Fe 0.12102 0.83654 0.48587 0.0
O486 O 0.13868 0.82663 0.51424 0.0
Fe487 Fe 0.15456 0.79529 0.51486 0.0
O488 O 0.13393 0.78506 0.54263 0.0
O489 O 0.14165 0.82098 0.5664 0.0
O490 O 0.10438 0.84659 0.54592 0.0
C491 C 0.08831 0.8522 0.5277 0.0
C492 C 0.19086 0.83023 0.53985 0.0
O493 O 0.09668 0.85651 0.50437 0.0
C494 C 0.16656 0.81254 0.46506 0.0
O495 O 0.1389 0.87886 0.5223 0.0
O496 O 0.14282 0.86472 0.48109 0.0
O497 O 0.18199 0.80668 0.53674 0.0
O498 O 0.17564 0.85009 0.5393 0.0
C499 C 0.10571 0.78501 0.48837 0.0
O500 O 0.14221 0.81814 0.46251 0.0
O501 O 0.17557 0.80474 0.48705 0.0
C502 C 0.14596 0.88269 0.49834 0.0
O503 O 0.09848 0.80896 0.48941 0.0
O504 O 0.1298 0.77868 0.4929 0.0
C505 C 0.13159 0.79795 0.56413 0.0
Fe506 Fe 0.15603 0.11605 0.41354 0.0
Fe507 Fe 0.19275 0.1529 0.44595 0.0
O508 O 0.16698 0.12881 0.44449 0.0
Fe509 Fe 0.15189 0.11707 0.47384 0.0
O510 O 0.14546 0.08369 0.46069 0.0
O511 O 0.1663 0.08257 0.42226 0.0
O512 O 0.18808 0.12005 0.39686 0.0
C513 C 0.21106 0.11931 0.40677 0.0
C514 C 0.10861 0.12187 0.44263 0.0
O515 O 0.21565 0.13049 0.42879 0.0
C516 C 0.15873 0.1716 0.48471 0.0
O517 O 0.1456 0.14859 0.40352 0.0
O518 O 0.18251 0.16966 0.41475 0.0
O519 O 0.12004 0.12946 0.46352 0.0
O520 O 0.12158 0.11013 0.42442 0.0
C521 C 0.20357 0.11767 0.48883 0.0
O522 O 0.17146 0.17673 0.46359 0.0
O523 O 0.15606 0.1479 0.4925 0.0
C524 C 0.16055 0.16874 0.40218 0.0
O525 O 0.20708 0.13992 0.47725 0.0
O526 O 0.18269 0.10432 0.48563 0.0
C527 C 0.15851 0.07114 0.44314 0.0
H528 H -0.00428 0.30064 0.41218 0.0
H529 H 0.07615 0.32976 0.40232 0.0
H530 H -0.00021 0.30456 0.45977 0.0
H531 H 0.08076 0.33267 0.45052 0.0
H532 H 0.05347 0.3858 0.52234 0.0
H533 H 0.06169 0.36596 0.47868 0.0
H534 H 0.01665 0.29615 0.50193 0.0
H535 H 0.0071 0.31685 0.54463 0.0
C536 C 0.01466 0.30697 0.4203 0.0
C537 C 0.03523 0.3159 0.40363 0.0
C538 C 0.01713 0.30901 0.44771 0.0
C539 C 0.04037 0.31976 0.45894 0.0
C540 C 0.06231 0.32514 0.44234 0.0
C541 C 0.05976 0.32323 0.41477 0.0
C542 C 0.04526 0.36632 0.51787 0.0
C543 C 0.02879 0.35331 0.53619 0.0
C544 C 0.05039 0.35466 0.49315 0.0
C545 C 0.03963 0.3295 0.48673 0.0
C546 C 0.02466 0.3158 0.50596 0.0
C547 C 0.01898 0.32776 0.5303 0.0
H548 H 0.60258 0.02679 0.45857 0.0
H549 H 0.67501 0.98492 0.43847 0.0
H550 H 0.62611 0.05204 0.49229 0.0
H551 H 0.6991 0.0111 0.47158 0.0
H552 H 0.70698 0.02341 0.564 0.0
H553 H 0.69976 0.01049 0.51829 0.0
H554 H 0.65834 0.08463 0.50448 0.0
H555 H 0.66467 0.09699 0.55107 0.0
C556 C 0.62362 0.02312 0.46136 0.0
C557 C 0.63682 0.0034 0.44658 0.0
C558 C 0.63731 0.03801 0.48027 0.0
C559 C 0.66462 0.03378 0.48454 0.0
C560 C 0.67803 0.01467 0.46897 0.0
C561 C 0.6642 -0.00055 0.45029 0.0
C562 C 0.69716 0.03737 0.55092 0.0
C563 C 0.68539 0.06062 0.56112 0.0
C564 C 0.69317 0.03007 0.52457 0.0
C565 C 0.67748 0.04606 0.50803 0.0
C566 C 0.66967 0.07148 0.51713 0.0
C567 C 0.67352 0.07872 0.54368 0.0
H568 H 0.92864 0.67068 0.58565 0.0
H569 H 0.00864 0.64019 0.57678 0.0
H570 H 0.92124 0.66355 0.53811 0.0
H571 H 0.00081 0.63138 0.53054 0.0
H572 H 0.98906 0.63276 0.44376 0.0
H573 H -0.00422 0.64816 0.4889 0.0
H574 H 0.91385 0.62879 0.50786 0.0
H575 H 0.9067 0.61563 0.46165 0.0
C576 C 0.94463 0.66264 0.57353 0.0
C577 C 0.96916 0.65598 0.58493 0.0
C578 C 0.94034 0.65826 0.54641 0.0
C579 C 0.96035 0.64669 0.53043 0.0
C580 C 0.98507 0.64084 0.54189 0.0
C581 C 0.98953 0.64577 0.56865 0.0
C582 C 0.97257 0.63159 0.45767 0.0
C583 C 0.9475 0.6226 0.44949 0.0
C584 C 0.97638 0.64042 0.4836 0.0
C585 C 0.95545 0.63947 0.50225 0.0
C586 C 0.93033 0.63024 0.494 0.0
C587 C 0.9263 0.62225 0.4677 0.0
H588 H 0.40491 0.918 0.40096 0.0
H589 H 0.32031 0.91419 0.41594 0.0
H590 H 0.4126 0.93047 0.44711 0.0
H591 H 0.32801 0.92699 0.46256 0.0
H592 H 0.35555 0.9907 0.52618 0.0
H593 H 0.34584 0.97152 0.48249 0.0
H594 H 0.40735 0.91275 0.49394 0.0
H595 H 0.41716 0.93181 0.53745 0.0
C596 C 0.38802 0.91932 0.41439 0.0
C597 C 0.36204 0.91521 0.40514 0.0
C598 C 0.39242 0.9264 0.44075 0.0
C599 C 0.37087 0.92987 0.45821 0.0
C600 C 0.34489 0.92462 0.44929 0.0
C601 C 0.34051 0.91705 0.42286 0.0
C602 C 0.36717 0.97387 0.51922 0.0
C603 C 0.38732 0.96294 0.53505 0.0
C604 C 0.36132 0.96266 0.49447 0.0
C605 C 0.37571 0.94055 0.4851 0.0
C606 C 0.39599 0.9298 0.5008 0.0
C607 C 0.40166 0.9408 0.5256 0.0
H608 H 0.43788 0.91436 0.28763 0.0
H609 H 0.42308 0.87785 0.36391 0.0
H610 H 0.48284 0.9259 0.30166 0.0
H611 H 0.46751 0.89024 0.37829 0.0
H612 H 0.55215 0.91844 0.39587 0.0
H613 H 0.51632 0.8923 0.37598 0.0
H614 H 0.48981 0.96213 0.3337 0.0
H615 H 0.52574 0.988 0.35294 0.0
C616 C 0.44466 0.90783 0.30696 0.0
C617 C 0.42695 0.89581 0.32492 0.0
C618 C 0.47022 0.91469 0.31511 0.0
C619 C 0.47817 0.90992 0.34141 0.0
C620 C 0.46183 0.89439 0.35798 0.0
C621 C 0.43636 0.88718 0.34968 0.0
C622 C 0.53844 0.92827 0.38257 0.0
C623 C 0.54168 0.95534 0.37605 0.0
C624 C 0.51813 0.91321 0.37102 0.0
C625 C 0.5007 0.925 0.35282 0.0
C626 C 0.50348 0.95224 0.34698 0.0
C627 C 0.52376 0.96723 0.35842 0.0
H628 H 0.91741 0.53261 0.38266 0.0
H629 H 0.99032 0.549 0.33963 0.0
H630 H 0.92755 0.48488 0.38113 0.0
H631 H 0.0002 0.5017 0.33815 0.0
H632 H 0.94736 0.40026 0.34413 0.0
H633 H 0.9336 0.44678 0.34784 0.0
H634 H 0.01282 0.46849 0.37289 0.0
H635 H 0.02674 0.4222 0.36907 0.0
C636 C 0.9354 0.52606 0.37267 0.0
C637 C 0.95322 0.54464 0.36158 0.0
C638 C 0.94117 0.49878 0.37181 0.0
C639 C 0.9649 0.48973 0.35998 0.0
C640 C 0.98209 0.50821 0.34797 0.0
C641 C 0.9763 0.53531 0.34869 0.0
C642 C 0.96175 0.41488 0.35086 0.0
C643 C 0.98821 0.40754 0.3562 0.0
C644 C 0.95381 0.44149 0.35299 0.0
C645 C 0.97224 0.4612 0.36032 0.0
C646 C -0.00166 0.4537 0.36675 0.0
C647 C 0.00625 0.42716 0.36474 0.0
H648 H 0.47677 0.94884 0.62491 0.0
H649 H 0.45565 0.03222 0.62548 0.0
H650 H 0.52398 0.96109 0.62832 0.0
H651 H 0.50217 0.04442 0.62986 0.0
H652 H 0.58466 0.05884 0.59938 0.0
H653 H 0.53885 0.04323 0.59893 0.0
H654 H 0.55842 0.98217 0.65594 0.0
H655 H 0.60456 -0.00271 0.65582 0.0
C656 C 0.48225 0.96969 0.62638 0.0
C657 C 0.46289 0.98966 0.62448 0.0
C658 C 0.50914 0.97671 0.62831 0.0
C659 C 0.51672 0.00374 0.62866 0.0
C660 C 0.497 0.02348 0.62872 0.0
C661 C 0.47039 0.01651 0.62642 0.0
C662 C 0.57923 0.042 0.61169 0.0
C663 C 0.59812 0.02937 0.62768 0.0
C664 C 0.55298 0.03316 0.61159 0.0
C665 C 0.54501 0.01173 0.62773 0.0
C666 C 0.56404 -0.00137 0.64322 0.0
C667 C 0.59041 0.00735 0.64316 0.0
H668 H 0.00669 0.44556 0.58724 0.0
H669 H 0.05568 0.438 0.65714 0.0
H670 H 0.00268 0.49306 0.59512 0.0
H671 H 0.05093 0.48612 0.66562 0.0
H672 H 0.04775 0.5801 0.65605 0.0
H673 H 0.0595 0.53326 0.64805 0.0
H674 H 0.9773 0.51584 0.63007 0.0
H675 H 0.9657 0.562 0.63742 0.0
C676 C 0.01668 0.45415 0.6043 0.0
C677 C 0.03106 0.43812 0.6219 0.0
C678 C 0.01435 0.48134 0.60884 0.0
C679 C 0.02594 0.49312 0.63133 0.0
C680 C 0.04175 0.47746 0.64816 0.0
C681 C 0.04439 0.45003 0.64338 0.0
C682 C 0.03228 0.5662 0.65029 0.0
C683 C 0.0059 0.57486 0.64677 0.0
C684 C 0.03899 0.53944 0.64588 0.0
C685 C 0.0194 0.5211 0.6379 0.0
C686 C 0.99296 0.52968 0.63545 0.0
C687 C 0.98631 0.55619 0.63973 0.0
H688 H 0.33522 0.43533 0.96219 0.0
H689 H 0.35481 0.46212 0.04163 0.0
H690 H 0.32911 0.48126 0.94842 0.0
H691 H 0.34905 0.50822 0.02757 0.0
H692 H 0.35674 0.56805 0.92961 0.0
H693 H 0.35732 0.52097 0.94132 0.0
H694 H 0.31296 0.53837 0.01309 0.0
H695 H 0.31257 0.58544 0.00164 0.0
C696 C 0.3385 0.45102 0.97668 0.0
C697 C 0.3458 0.44511 0.00299 0.0
C698 C 0.33496 0.47732 0.96873 0.0
C699 C 0.33858 0.49824 0.98691 0.0
C700 C 0.34579 0.49239 0.01323 0.0
C701 C 0.34935 0.46605 0.02122 0.0
C702 C 0.34671 0.56178 0.94764 0.0
C703 C 0.335 0.5805 0.96491 0.0
C704 C 0.34703 0.53483 0.95433 0.0
C705 C 0.33559 0.52617 0.97834 0.0
C706 C 0.32245 0.54464 -0.00524 0.0
C707 C 0.32211 0.57154 0.98809 0.0
H708 H 0.43151 0.37064 0.00507 0.0
H709 H 0.41508 0.36897 0.08962 0.0
H710 H 0.47841 0.37558 0.0139 0.0
H711 H 0.46298 0.37381 0.09841 0.0
H712 H 0.5551 0.34343 0.08414 0.0
H713 H 0.50659 0.34541 0.08749 0.0
H714 H 0.50619 0.41317 0.03486 0.0
H715 H 0.55448 0.41102 0.03109 0.0
C716 C 0.43788 0.37134 0.02561 0.0
C717 C 0.4195 0.36978 0.04667 0.0
C718 C 0.46478 0.37439 0.03063 0.0
C719 C 0.47409 0.37581 0.0568 0.0
C720 C 0.45606 0.37313 0.07805 0.0
C721 C 0.42881 0.37027 0.07301 0.0
C722 C 0.54469 0.35926 0.07396 0.0
C723 C 0.55837 0.37671 0.05684 0.0
C724 C 0.517 0.36043 0.076 0.0
C725 C 0.50285 0.37912 0.06104 0.0
C726 C 0.51679 0.39831 0.04623 0.0
C727 C 0.54435 0.39703 0.04402 0.0
H728 H 0.67019 0.43109 -0.00652 0.0
H729 H 0.63415 0.43813 0.07141 0.0
H730 H 0.66786 0.47924 0.98823 0.0
H731 H 0.63138 0.4863 0.0659 0.0
H732 H 0.62032 0.55408 0.97092 0.0
H733 H 0.62878 0.50744 0.98079 0.0
H734 H 0.6546 0.52908 0.05983 0.0
H735 H 0.64534 0.57566 0.05032 0.0
C736 C 0.66226 0.44299 0.0097 0.0
C737 C 0.65191 0.43084 0.03265 0.0
C738 C 0.6607 0.4705 0.00659 0.0
C739 C 0.64871 0.48637 0.02632 0.0
C740 C 0.6406 0.47453 0.0503 0.0
C741 C 0.64226 0.44694 0.05348 0.0
C742 C 0.62737 0.54888 0.99054 0.0
C743 C 0.6321 0.5686 0.00982 0.0
C744 C 0.63261 0.52221 -0.00393 0.0
C745 C 0.64279 0.5147 0.02094 0.0
C746 C 0.64673 0.53427 0.04052 0.0
C747 C 0.64138 0.56095 0.03503 0.0
H748 H 0.5697 0.65181 0.92976 0.0
H749 H 0.55755 0.66341 0.01418 0.0
H750 H 0.52174 0.65145 0.92315 0.0
H751 H 0.50963 0.66383 0.00742 0.0
H752 H 0.42883 0.62627 0.99146 0.0
H753 H 0.47673 0.63058 -0.00325 0.0
H754 H 0.48108 0.67695 0.92462 0.0
H755 H 0.43318 0.67201 0.91892 0.0
C756 C 0.55682 0.6548 0.94684 0.0
C757 C 0.56743 0.65724 0.97256 0.0
C758 C 0.52931 0.65466 0.94303 0.0
C759 C 0.51186 0.65716 0.96482 0.0
C760 C 0.52253 0.66116 0.99031 0.0
C761 C 0.55001 0.66113 -0.00585 0.0
C762 C 0.44003 0.63719 0.97661 0.0
C763 C 0.42725 0.6486 0.95468 0.0
C764 C 0.46745 0.63993 0.97979 0.0
C765 C 0.4827 0.65433 0.96123 0.0
C766 C 0.46995 0.66553 0.93913 0.0
C767 C 0.44251 0.66266 0.93586 0.0
H768 H 0.50605 0.85394 0.93691 0.0
H769 H 0.58561 0.88704 0.93444 0.0
H770 H 0.50486 0.8605 0.98492 0.0
H771 H 0.58413 0.89388 0.98239 0.0
H772 H 0.57675 0.87016 0.07232 0.0
H773 H 0.58176 0.86726 0.02425 0.0
H774 H 0.50345 0.9011 0.01445 0.0
H775 H 0.49816 0.90379 0.06251 0.0
C776 C 0.52334 0.86238 0.94661 0.0
C777 C 0.5458 0.87025 0.93191 0.0
C778 C 0.52253 0.8664 0.974 0.0
C779 C 0.5442 0.8782 0.9871 0.0
C780 C 0.56714 0.88487 0.97264 0.0
C781 C 0.56794 0.88094 0.94525 0.0
C782 C 0.56086 0.87763 0.05993 0.0
C783 C 0.53691 0.88689 0.07115 0.0
C784 C 0.56374 0.8759 0.03244 0.0
C785 C 0.54274 0.88341 0.01584 0.0
C786 C 0.51965 0.8946 0.02698 0.0
C787 C 0.51677 0.89639 0.05444 0.0
H788 H 0.13481 0.59436 0.0318 0.0
H789 H 0.09316 0.51906 0.03801 0.0
H790 H 0.15466 0.57938 0.98961 0.0
H791 H 0.11308 0.50433 -0.00335 0.0
H792 H 0.16479 0.47448 0.93256 0.0
H793 H 0.15876 0.49276 0.97749 0.0
H794 H 0.13443 0.56803 0.94414 0.0
H795 H 0.14043 0.54991 0.89956 0.0
C796 C 0.12976 0.57479 0.02413 0.0
C797 C 0.11219 0.55804 0.03807 0.0
C798 C 0.14132 0.56615 0.00023 0.0
C799 C 0.13577 0.54052 0.99028 0.0
C800 C 0.11822 0.52391 0.00423 0.0
C801 C 0.10646 0.5326 0.02773 0.0
C802 C 0.15883 0.49509 0.93494 0.0
C803 C 0.15238 0.51062 0.9128 0.0
C804 C 0.15535 0.50553 0.96052 0.0
C805 C 0.1458 0.53166 0.96412 0.0
C806 C 0.14186 0.54788 0.9419 0.0
C807 C 0.145 0.53739 0.91644 0.0
H808 H 0.41364 0.16662 0.93278 0.0
H809 H 0.49822 0.15229 0.9389 0.0
H810 H 0.41059 0.17053 0.98095 0.0
H811 H 0.49493 0.15494 0.98701 0.0
H812 H 0.48661 0.17819 0.07214 0.0
H813 H 0.48722 0.1843 0.02406 0.0
H814 H 0.41309 0.14088 0.01793 0.0
H815 H 0.412 0.1356 0.0658 0.0
C816 C 0.43156 0.16422 0.94439 0.0
C817 C 0.45616 0.15902 0.93204 0.0
C818 C 0.42979 0.16638 0.97199 0.0
C819 C 0.45251 0.16303 0.98781 0.0
C820 C 0.47713 0.15811 0.9754 0.0
C821 C 0.47896 0.15624 0.94781 0.0
C822 C 0.47029 0.17027 0.06052 0.0
C823 C 0.44948 0.15606 0.0727 0.0
C824 C 0.47069 0.17366 0.033 0.0
C825 C 0.45038 0.16276 0.01716 0.0
C826 C 0.42892 0.14974 0.02954 0.0
C827 C 0.42841 0.14654 0.05702 0.0
H828 H 0.8114 0.43415 0.93849 0.0
H829 H 0.88808 0.40083 0.95737 0.0
H830 H 0.80103 0.43842 0.98567 0.0
H831 H 0.87793 0.40559 0.005 0.0
H832 H 0.84284 0.41193 0.09033 0.0
H833 H 0.84673 0.395 0.0448 0.0
H834 H 0.82386 0.47217 0.01491 0.0
H835 H 0.81995 0.48912 0.06009 0.0
C836 C 0.82569 0.42702 0.95288 0.0
C837 C 0.8506 0.41746 0.94462 0.0
C838 C 0.81983 0.42958 0.97978 0.0
C839 C 0.83894 0.42292 -0.00117 0.0
C840 C 0.86289 0.41086 0.99061 0.0
C841 C 0.8687 0.40809 0.96348 0.0
C842 C 0.83852 0.42524 0.07401 0.0
C843 C 0.83124 0.45195 0.07875 0.0
C844 C 0.8408 0.41551 0.04804 0.0
C845 C 0.8354 0.43222 0.02647 0.0
C846 C 0.82772 0.45874 0.03125 0.0
C847 C 0.82571 0.46852 0.0571 0.0
H848 H 0.94933 0.44393 0.90464 0.0
H849 H 0.94153 0.40646 0.82751 0.0
H850 H -0.00321 0.45062 0.89642 0.0
H851 H 0.9891 0.41373 0.81913 0.0
H852 H 0.06135 0.47663 0.80874 0.0
H853 H 0.01571 0.46055 0.81509 0.0
H854 H 0.03938 0.42048 0.88693 0.0
H855 H 0.08492 0.43609 0.8806 0.0
C856 C 0.95788 0.43684 0.8861 0.0
C857 C 0.94192 0.42469 0.86671 0.0
C858 C 0.98495 0.44059 0.88146 0.0
C859 C -0.00365 0.4327 0.85716 0.0
C860 C 0.98058 0.41996 0.83798 0.0
C861 C 0.95355 0.41569 0.84285 0.0
C862 C 0.05683 0.46416 0.82572 0.0
C863 C 0.07657 0.45785 0.84433 0.0
C864 C 0.03087 0.45482 0.8292 0.0
C865 C 0.02428 0.43939 0.8515 0.0
C866 C 0.04412 0.43242 0.86964 0.0
C867 C 0.07011 0.44137 0.86596 0.0
H868 H 0.4521 0.06821 0.85884 0.0
H869 H 0.53152 0.09685 0.84147 0.0
H870 H 0.46875 0.02272 0.85964 0.0
H871 H 0.54824 0.05137 0.84304 0.0
H872 H 0.56114 0.96122 0.82413 0.0
H873 H 0.54699 0.0078 0.82071 0.0
H874 H 0.49641 -0.00243 0.8897 0.0
H875 H 0.50992 0.95132 0.89267 0.0
C876 C 0.47309 0.06481 0.85521 0.0
C877 C 0.49052 0.08615 0.85044 0.0
C878 C 0.48267 0.03878 0.85581 0.0
C879 C 0.50989 0.03356 0.85182 0.0
C880 C 0.52717 0.05478 0.8461 0.0
C881 C 0.51757 0.08083 0.84536 0.0
C882 C 0.54732 0.96916 0.83874 0.0
C883 C 0.53641 0.95269 0.85849 0.0
C884 C 0.53918 -0.00427 0.83677 0.0
C885 C 0.52017 0.00612 0.85462 0.0
C886 C 0.51046 0.98992 0.87518 0.0
C887 C 0.51839 0.96348 0.87701 0.0
H888 H 0.91625 0.4813 0.15506 0.0
H889 H 0.87889 0.55638 0.13603 0.0
H890 H 0.95977 0.50196 0.15044 0.0
H891 H 0.92286 0.5771 0.13137 0.0
H892 H 0.01029 0.58092 0.08916 0.0
H893 H 0.96332 0.57093 0.09901 0.0
H894 H 0.98616 0.53736 0.17446 0.0
H895 H 0.03264 0.54685 0.16448 0.0
C896 C 0.91733 0.50225 0.15 0.0
C897 C 0.89416 0.51717 0.14584 0.0
C898 C 0.94224 0.51413 0.14754 0.0
C899 C 0.94458 0.54117 0.14073 0.0
C900 C 0.9215 0.55623 0.13662 0.0
C901 C 0.89643 0.54437 0.13938 0.0
C902 C 0.00501 0.5722 0.10813 0.0
C903 C 0.02484 0.56418 0.1259 0.0
C904 C 0.97827 0.56648 0.11377 0.0
C905 C 0.97134 0.55287 0.13723 0.0
C906 C 0.99108 0.54735 0.15601 0.0
C907 C 0.01759 0.55284 0.15033 0.0
H908 H 0.5356 0.94517 0.1657 0.0
H909 H 0.45358 0.91997 0.17334 0.0
H910 H 0.52118 0.99149 0.16469 0.0
H911 H 0.43923 0.96605 0.1713 0.0
H912 H 0.42265 0.05558 0.1743 0.0
H913 H 0.4373 0.01128 0.18772 0.0
H914 H 0.49968 0.01405 0.1283 0.0
H915 H 0.48554 0.05832 0.11547 0.0
C916 C 0.51458 0.94949 0.16777 0.0
C917 C 0.4957 0.92884 0.16876 0.0
C918 C 0.50629 0.97601 0.16691 0.0
C919 C 0.47902 0.98232 0.16692 0.0
C920 C 0.46037 0.96187 0.17099 0.0
C921 C 0.46865 0.93539 0.17204 0.0
C922 C 0.43927 0.04654 0.16392 0.0
C923 C 0.45291 0.06042 0.14381 0.0
C924 C 0.44778 0.02126 0.17175 0.0
C925 C 0.47003 0.00939 0.15949 0.0
C926 C 0.48301 0.02296 0.13875 0.0
C927 C 0.4746 0.04817 0.13106 0.0
H928 H 0.82558 0.94479 0.56701 0.0
H929 H 0.8916 0.93218 0.51307 0.0
H930 H 0.82248 0.9912 0.55218 0.0
H931 H 0.8888 0.97821 0.49872 0.0
H932 H 0.85468 0.04516 0.45184 0.0
H933 H 0.85525 0.00097 0.4714 0.0
H934 H 0.84645 0.0355 0.54974 0.0
H935 H 0.84546 0.07999 0.53014 0.0
C936 C 0.83982 0.95211 0.55254 0.0
C937 C 0.85863 0.93485 0.54095 0.0
C938 C 0.83798 0.97859 0.54399 0.0
C939 C 0.85497 0.98805 0.5238 0.0
C940 C 0.87493 0.97123 0.51372 0.0
C941 C 0.87668 0.94493 0.52212 0.0
C942 C 0.85261 0.04341 0.47321 0.0
C943 C 0.85046 0.06614 0.48944 0.0
C944 C 0.8531 0.01809 0.48444 0.0
C945 C 0.85151 0.01487 0.51215 0.0
C946 C 0.84783 0.03743 0.52834 0.0
C947 C 0.84731 0.06288 0.51708 0.0
H948 H 0.06305 0.83111 0.57092 0.0
H949 H 0.04879 0.86829 0.49485 0.0
H950 H 0.01543 0.82274 0.57588 0.0
H951 H 0.00139 0.86028 0.50004 0.0
H952 H 0.92194 0.82348 0.5027 0.0
H953 H 0.97039 0.82192 0.50065 0.0
H954 H 0.97449 0.84928 0.58211 0.0
H955 H 0.92623 0.85026 0.58447 0.0
C956 C 0.04972 0.83792 0.55551 0.0
C957 C 0.05955 0.85053 0.53256 0.0
C958 C 0.02255 0.83292 0.55827 0.0
C959 C 0.00489 0.84047 0.53813 0.0
C960 C 0.01469 0.85363 0.51554 0.0
C961 C 0.04177 0.85858 0.51276 0.0
C962 C 0.93317 0.82859 0.52034 0.0
C963 C 0.92036 0.83768 0.54351 0.0
C964 C 0.96085 0.82783 0.51911 0.0
C965 C 0.97605 0.8361 0.54103 0.0
C966 C 0.96323 0.84288 0.56492 0.0
C967 C 0.93558 0.84361 0.56617 0.0
H968 H 0.16703 0.8972 0.45026 0.0
H969 H 0.1426 0.92884 0.52666 0.0
H970 H 0.17662 0.94232 0.43484 0.0
H971 H 0.15127 0.9736 0.5111 0.0
H972 H 0.18093 0.05081 0.48675 0.0
H973 H 0.18488 0.00415 0.49869 0.0
H974 H 0.15143 0.98153 0.42274 0.0
H975 H 0.14906 0.02867 0.41028 0.0
C976 C 0.16379 0.91377 0.46377 0.0
C977 C 0.15384 0.90955 0.4896 0.0
C978 C 0.16921 0.93956 0.4549 0.0
C979 C 0.16472 0.96154 0.4717 0.0
C980 C 0.15549 0.95712 0.49777 0.0
C981 C 0.15029 0.93143 0.50667 0.0
C982 C 0.17496 0.03579 0.47243 0.0
C983 C 0.16432 0.04305 0.44782 0.0
C984 C 0.17708 0.0091 0.47929 0.0
C985 C 0.16782 0.98917 0.46196 0.0
C986 C 0.1588 -0.00357 0.43651 0.0
C987 C 0.15728 0.02331 0.42939 0.0
H988 H 0.0758 0.09935 0.40554 0.0
H989 H 0.07567 0.14794 0.47685 0.0
H990 H 0.02718 0.099 0.40604 0.0
H991 H 0.02736 0.14781 0.47702 0.0
H992 H 0.94558 0.11344 0.48931 0.0
H993 H -0.00624 0.1125 0.48545 0.0
H994 H 0.98812 0.13005 0.40163 0.0
H995 H 0.93967 0.13064 0.40529 0.0
C996 C 0.06542 0.11013 0.42113 0.0
C997 C 0.07947 0.12333 0.44138 0.0
C998 C 0.03767 0.10997 0.42135 0.0
C999 C 0.0237 0.12303 0.4418 0.0
C1000 C 0.03776 0.13708 0.46139 0.0
C1001 C 0.06539 0.13723 0.4612 0.0
C1002 C 0.95455 0.11688 0.47 0.0
C1003 C 0.9389 0.12225 0.44763 0.0
C1004 C 0.98211 0.11649 0.46784 0.0
C1005 C -0.00548 0.12156 0.44333 0.0
C1006 C 0.97893 0.126 0.42072 0.0
C1007 C 0.95127 0.12637 0.42286 0.0
H1008 H 0.11607 0.17031 0.37194 0.0
H1009 H 0.18705 0.21556 0.3903 0.0
H1010 H 0.10125 0.20512 0.34292 0.0
H1011 H 0.17216 0.25082 0.36018 0.0
H1012 H 0.10875 0.31816 0.34203 0.0
H1013 H 0.13709 0.2839 0.36051 0.0
H1014 H 0.10808 0.22776 0.30199 0.0
H1015 H 0.07866 0.26183 0.28424 0.0
C1016 C 0.1288 0.18759 0.36952 0.0
C1017 C 0.15275 0.19016 0.38365 0.0
C1018 C 0.12039 0.20751 0.35246 0.0
C1019 C 0.13566 0.23066 0.34886 0.0
C1020 C 0.15993 0.23318 0.36255 0.0
C1021 C 0.16845 0.21305 0.3798 0.0
C1022 C 0.10892 0.29872 0.33258 0.0
C1023 C 0.09096 0.29248 0.31208 0.0
C1024 C 0.12535 0.27907 0.34314 0.0
C1025 C 0.12435 0.25291 0.33318 0.0
C1026 C 0.10871 0.24757 0.31061 0.0
C1027 C 0.09195 0.2671 0.30032 0.0
H1028 H 0.8036 0.09196 0.3905 0.0
H1029 H 0.75767 0.1559 0.42551 0.0
H1030 H 0.76346 0.07227 0.37267 0.0
H1031 H 0.71683 0.13599 0.40725 0.0
H1032 H 0.65684 0.06262 0.40972 0.0
H1033 H 0.69282 0.09373 0.41879 0.0
H1034 H 0.72669 0.07733 0.34135 0.0
H1035 H 0.69087 0.04574 0.33231 0.0
C1036 C 0.78484 0.10203 0.39405 0.0
C1037 C 0.78364 0.12527 0.40968 0.0
C1038 C 0.76185 0.09088 0.38354 0.0
C1039 C 0.73699 0.10258 0.38853 0.0
C1040 C 0.73579 0.12653 0.40321 0.0
C1041 C 0.75905 0.13796 0.41354 0.0
C1042 C 0.67167 0.06596 0.39438 0.0
C1043 C 0.67119 0.0514 0.3704 0.0
C1044 C 0.69216 0.08402 0.39953 0.0
C1045 C 0.71261 0.08788 0.38084 0.0
C1046 C 0.7113 0.07452 0.35624 0.0
C1047 C 0.69082 0.05641 0.35108 0.0
H1048 H 0.85946 0.65969 0.41579 0.0
H1049 H 0.9042 0.72434 0.38068 0.0
H1050 H 0.83659 0.6916 0.44501 0.0
H1051 H 0.88188 0.75578 0.40983 0.0
H1052 H 0.83488 0.75683 0.51462 0.0
H1053 H 0.84783 0.72125 0.48346 0.0
H1054 H 0.83894 0.77583 0.4179 0.0
H1055 H 0.82688 0.81116 0.44885 0.0
C1056 C 0.86414 0.68069 0.41402 0.0
C1057 C 0.88358 0.68947 0.39578 0.0
C1058 C 0.85121 0.69891 0.43092 0.0
C1059 C 0.85729 0.72625 0.42968 0.0
C1060 C 0.87631 0.73495 0.41102 0.0
C1061 C 0.88926 0.71685 0.39435 0.0
C1062 C 0.83515 0.76091 0.49349 0.0
C1063 C 0.83033 0.78679 0.48415 0.0
C1064 C 0.84253 0.7406 0.47564 0.0
C1065 C 0.84496 0.74589 0.44824 0.0
C1066 C 0.83797 0.77127 0.43892 0.0
C1067 C 0.83094 0.79149 0.45665 0.0
H1068 H 0.26709 0.8427 0.32763 0.0
H1069 H 0.26113 0.91647 0.37176 0.0
H1070 H 0.2348 0.82195 0.35777 0.0
H1071 H 0.22934 0.89541 0.40243 0.0
H1072 H 0.2175 0.82979 0.46895 0.0
H1073 H 0.24388 0.85061 0.4337 0.0
H1074 H 0.1824 0.83232 0.37683 0.0
H1075 H 0.15554 0.81205 0.41221 0.0
C1076 C 0.25821 0.8546 0.34336 0.0
C1077 C 0.26627 0.88108 0.34753 0.0
C1078 C 0.23993 0.84276 0.36053 0.0
C1079 C 0.23009 0.85713 0.38234 0.0
C1080 C 0.23695 0.88408 0.38566 0.0
C1081 C 0.25479 0.89613 0.36809 0.0
C1082 C 0.2099 0.82968 0.44883 0.0
C1083 C 0.18461 0.8193 0.44317 0.0
C1084 C 0.22475 0.8419 0.42885 0.0
C1085 C 0.21472 0.84335 0.40293 0.0
C1086 C 0.19022 0.83155 0.39685 0.0
C1087 C 0.17508 0.81984 0.41695 0.0
H1088 H 0.12753 0.8154 0.61584 0.0
H1089 H 0.09493 0.75845 0.55997 0.0
H1090 H 0.09376 0.80214 0.64878 0.0
H1091 H 0.06137 0.7458 0.59247 0.0
H1092 H 0.98978 0.74442 0.63744 0.0
H1093 H 0.02149 0.77345 0.6148 0.0
H1094 H 0.08119 0.75397 0.6729 0.0
H1095 H 0.04923 0.72503 0.69576 0.0
C1096 C 0.11338 0.79993 0.6107 0.0
C1097 C 0.11396 0.78784 0.58537 0.0
C1098 C 0.09404 0.79255 0.62945 0.0
C1099 C 0.07473 0.77348 0.62283 0.0
C1100 C 0.07575 0.76101 0.5978 0.0
C1101 C 0.09522 0.76798 0.57934 0.0
C1102 C 0.00913 0.74771 0.64632 0.0
C1103 C 0.01722 0.73252 0.66816 0.0
C1104 C 0.02734 0.76405 0.63323 0.0
C1105 C 0.05385 0.76527 0.64182 0.0
C1106 C 0.06083 0.75326 0.66596 0.0
C1107 C 0.04249 0.73691 0.67916 0.0
H1108 H 0.3372 0.06967 0.58687 0.0
H1109 H 0.28482 0.00138 0.58205 0.0
H1110 H 0.30566 0.09607 0.56201 0.0
H1111 H 0.25327 0.02787 0.55639 0.0
H1112 H 0.25785 0.12291 0.48841 0.0
H1113 H 0.28917 0.09907 0.51693 0.0
H1114 H 0.22322 0.06522 0.56088 0.0
H1115 H 0.19228 0.08834 0.53222 0.0
C1116 C 0.31889 0.06026 0.58045 0.0
C1117 C 0.31347 0.03337 0.58629 0.0
C1118 C 0.30092 0.07541 0.56606 0.0
C1119 C 0.27714 0.06403 0.55705 0.0
C1120 C 0.27138 0.03727 0.56334 0.0
C1121 C 0.28937 0.02208 0.57797 0.0
C1122 C 0.25022 0.11075 0.50449 0.0
C1123 C 0.22278 0.10728 0.50805 0.0
C1124 C 0.26804 0.09706 0.52076 0.0
C1125 C 0.25857 0.07996 0.54089 0.0
C1126 C 0.2311 0.07767 0.54515 0.0
C1127 C 0.21342 0.09111 0.52886 0.0
H1128 H 0.93367 0.20397 0.47878 0.0
H1129 H 0.85972 0.2368 0.50792 0.0
H1130 H 0.95844 0.23372 0.50802 0.0
H1131 H 0.88437 0.26594 0.53807 0.0
H1132 H 0.93868 0.32697 0.57795 0.0
H1133 H 0.91405 0.30238 0.54439 0.0
H1134 H 0.96661 0.23512 0.55453 0.0
H1135 H 0.99193 0.26016 0.58746 0.0
C1136 C 0.92277 0.21799 0.49112 0.0
C1137 C 0.89483 0.21814 0.49113 0.0
C1138 C 0.93691 0.23474 0.50817 0.0
C1139 C 0.92341 0.25176 0.52592 0.0
C1140 C 0.89544 0.25316 0.52463 0.0
C1141 C 0.88127 0.23658 0.50726 0.0
C1142 C 0.94488 0.30683 0.57322 0.0
C1143 C 0.96724 0.29547 0.58552 0.0
C1144 C 0.9307 0.29273 0.55393 0.0
C1145 C 0.93841 0.26684 0.54654 0.0
C1146 C 0.96044 0.25526 0.55928 0.0
C1147 C 0.97477 0.26946 0.57844 0.0
H1148 H 0.73752 -0.00033 0.68601 0.0
H1149 H 0.7679 0.03689 0.61493 0.0
H1150 H 0.75443 0.95685 0.67077 0.0
H1151 H 0.78566 0.9942 0.59989 0.0
H1152 H 0.76782 0.91452 0.5608 0.0
H1153 H 0.75886 0.95733 0.5824 0.0
H1154 H 0.78887 0.92649 0.65654 0.0
H1155 H 0.79698 0.88366 0.63519 0.0
C1156 C 0.74944 -0.00097 0.66801 0.0
C1157 C 0.75116 0.02141 0.65144 0.0
C1158 C 0.75874 0.97436 0.65899 0.0
C1159 C 0.77029 0.97202 0.63356 0.0
C1160 C 0.77588 -0.00472 0.6191 0.0
C1161 C 0.76641 0.01986 0.62804 0.0
C1162 C 0.77158 0.91667 0.5819 0.0
C1163 C 0.78295 0.8958 0.59635 0.0
C1164 C 0.76712 0.94133 0.59415 0.0
C1165 C 0.77391 0.94548 0.62102 0.0
C1166 C 0.78362 0.92401 0.63582 0.0
C1167 C 0.78807 0.89944 0.62361 0.0
H1168 H 0.4354 0.09245 0.23868 0.0
H1169 H 0.36798 0.10029 0.18623 0.0
H1170 H 0.4198 0.04837 0.25157 0.0
H1171 H 0.3532 0.05585 0.19801 0.0
H1172 H 0.32085 0.98727 0.25105 0.0
H1173 H 0.33446 0.02966 0.23183 0.0
H1174 H 0.41671 0.0045 0.23442 0.0
H1175 H 0.40286 0.96272 0.25492 0.0
C1176 C 0.41708 0.08494 0.23019 0.0
C1177 C 0.40293 0.09995 0.2115 0.0
C1178 C 0.40839 0.05942 0.23713 0.0
C1179 C 0.38552 0.04827 0.22537 0.0
C1180 C 0.37082 0.06376 0.20753 0.0
C1181 C 0.37932 0.08934 0.20082 0.0
C1182 C 0.34167 0.99039 0.24625 0.0
C1183 C 0.36084 0.97179 0.25404 0.0
C1184 C 0.34958 0.01481 0.23552 0.0
C1185 C 0.37678 0.02081 0.23222 0.0
C1186 C 0.39567 0.00088 0.23746 0.0
C1187 C 0.38777 0.9767 0.24859 0.0
H1188 H 0.91864 0.34373 0.30869 0.0
H1189 H 0.96952 0.37885 0.24866 0.0
H1190 H 0.8838 0.3757 0.29817 0.0
H1191 H 0.93452 0.41038 0.2379 0.0
H1192 H 0.88126 0.47757 0.23533 0.0
H1193 H 0.91245 0.44906 0.25886 0.0
H1194 H 0.85347 0.38632 0.26093 0.0
H1195 H 0.82208 0.41521 0.23801 0.0
C1196 C 0.92228 0.35803 0.29301 0.0
C1197 C 0.94684 0.35873 0.27942 0.0
C1198 C 0.90235 0.37639 0.28712 0.0
C1199 C 0.90665 0.39584 0.26763 0.0
C1200 C 0.93091 0.39605 0.25356 0.0
C1201 C 0.95081 0.3777 0.25939 0.0
C1202 C 0.87461 0.45815 0.24202 0.0
C1203 C 0.84949 0.4484 0.23475 0.0
C1204 C 0.89253 0.44171 0.25508 0.0
C1205 C 0.88565 0.41521 0.26082 0.0
C1206 C 0.85935 0.40662 0.25658 0.0
C1207 C 0.84128 0.42322 0.24367 0.0
H1208 H 0.63277 0.91701 0.28842 0.0
H1209 H 0.57583 0.89297 0.34852 0.0
H1210 H 0.61583 0.88245 0.25885 0.0
H1211 H 0.55922 0.85827 0.31905 0.0
H1212 H 0.5876 0.81878 0.20878 0.0
H1213 H 0.60896 0.83434 0.24965 0.0
H1214 H 0.533 0.86311 0.27832 0.0
H1215 H 0.51198 0.84741 0.23768 0.0
C1216 C 0.61698 0.90409 0.2955 0.0
C1217 C 0.6054 0.90806 0.32064 0.0
C1218 C 0.60749 0.88404 0.27869 0.0
C1219 C 0.58621 0.8676 0.28669 0.0
C1220 C 0.57554 0.87071 0.31233 0.0
C1221 C 0.58503 0.89071 0.32913 0.0
C1222 C 0.57536 0.82699 0.22461 0.0
C1223 C 0.54824 0.83181 0.22046 0.0
C1224 C 0.58759 0.83625 0.24776 0.0
C1225 C 0.57274 0.85042 0.26689 0.0
C1226 C 0.54498 0.85216 0.26404 0.0
C1227 C 0.53285 0.84306 0.24086 0.0
H1228 H 0.97184 0.63621 0.2688 0.0
H1229 H 0.0373 0.63105 0.3239 0.0
H1230 H 0.00286 0.63143 0.23173 0.0
H1231 H 0.06842 0.62731 0.2869 0.0
H1232 H 0.11012 0.58718 0.21484 0.0
H1233 H 0.08247 0.59691 0.25361 0.0
H1234 H 0.03697 0.65298 0.20733 0.0
H1235 H 0.06397 0.64242 0.16841 0.0
C1236 C 0.99288 0.63436 0.27299 0.0
C1237 C 0.00205 0.63392 0.2993 0.0
C1238 C 0.01075 0.63183 0.25172 0.0
C1239 C 0.03827 0.62909 0.25625 0.0
C1240 C 0.0474 0.62899 0.28261 0.0
C1241 C 0.02952 0.63124 0.30386 0.0
C1242 C 0.09465 0.60209 0.21317 0.0
C1243 C 0.08918 0.61397 0.18857 0.0
C1244 C 0.0787 0.60764 0.23539 0.0
C1245 C 0.05713 0.62544 0.23355 0.0
C1246 C 0.0529 0.63864 0.20934 0.0
C1247 C 0.0686 0.63284 0.18709 0.0
H1248 H 0.49189 0.86401 0.75617 0.0
H1249 H 0.45752 0.91384 0.81766 0.0
H1250 H 0.45892 0.88 0.72492 0.0
H1251 H 0.4239 0.92918 0.78657 0.0
H1252 H 0.38765 0.89603 0.67753 0.0
H1253 H 0.41274 0.87782 0.71449 0.0
H1254 H 0.42057 0.95695 0.74801 0.0
H1255 H 0.39446 0.97493 0.71147 0.0
C1256 C 0.47711 0.87815 0.76309 0.0
C1257 C 0.47735 0.88769 0.78934 0.0
C1258 C 0.45803 0.88716 0.74524 0.0
C1259 C 0.4386 0.9057 0.75333 0.0
C1260 C 0.43872 0.91507 0.77967 0.0
C1261 C 0.45796 0.90623 0.79747 0.0
C1262 C 0.39422 0.90939 0.69317 0.0
C1263 C 0.38941 0.93688 0.69161 0.0
C1264 C 0.40877 0.89903 0.71419 0.0
C1265 C 0.41921 0.91602 0.73382 0.0
C1266 C 0.41275 0.94329 0.73325 0.0
C1267 C 0.39779 0.95362 0.71235 0.0
H1268 H 0.12284 0.35427 0.65515 0.0
H1269 H 0.0569 0.35014 0.71043 0.0
H1270 H 0.15192 0.36927 0.69081 0.0
H1271 H 0.08562 0.36612 0.74587 0.0
H1272 H 0.17511 0.43931 0.74742 0.0
H1273 H 0.15591 0.41055 0.71359 0.0
H1274 H 0.12228 0.36034 0.77487 0.0
H1275 H 0.14068 0.38983 0.80872 0.0
C1276 C 0.11463 0.35633 0.67501 0.0
C1277 C 0.08753 0.35139 0.67999 0.0
C1278 C 0.13128 0.365 0.69541 0.0
C1279 C 0.12107 0.36926 0.72113 0.0
C1280 C 0.09429 0.36277 0.72639 0.0
C1281 C 0.07773 0.35375 0.70605 0.0
C1282 C 0.16425 0.42173 0.75365 0.0
C1283 C 0.15903 0.41703 0.78065 0.0
C1284 C 0.15326 0.40513 0.73425 0.0
C1285 C 0.13714 0.38334 0.74152 0.0
C1286 C 0.13403 0.37732 0.76861 0.0
C1287 C 0.14471 0.39411 0.78799 0.0
H1288 H 0.6528 0.1341 0.72336 0.0
H1289 H 0.58854 0.0965 0.68035 0.0
H1290 H 0.62044 0.15689 0.75172 0.0
H1291 H 0.55635 0.11831 0.70918 0.0
H1292 H 0.50227 0.17482 0.75218 0.0
H1293 H 0.53643 0.1598 0.72085 0.0
H1294 H 0.59019 0.14618 0.78626 0.0
H1295 H 0.55678 0.16208 0.81716 0.0
C1296 C 0.63179 0.13058 0.72011 0.0
C1297 C 0.62319 0.11353 0.69969 0.0
C1298 C 0.61324 0.1436 0.73633 0.0
C1299 C 0.58577 0.1395 0.73267 0.0
C1300 C 0.57729 0.12242 0.7122 0.0
C1301 C 0.59577 0.1097 0.69582 0.0
C1302 C 0.52155 0.16903 0.75974 0.0
C1303 C 0.52677 0.1696 0.78713 0.0
C1304 C 0.54105 0.16024 0.74185 0.0
C1305 C 0.56601 0.15161 0.75107 0.0
C1306 C 0.5714 0.15304 0.77839 0.0
C1307 C 0.55208 0.16203 0.79617 0.0
H1308 H 0.94357 0.62467 0.76566 0.0
H1309 H 0.92515 0.57417 0.69824 0.0
H1310 H 0.92389 0.59125 0.79541 0.0
H1311 H 0.90591 0.5413 0.72768 0.0
H1312 H 0.84922 0.50069 0.78479 0.0
H1313 H 0.86645 0.5371 0.7577 0.0
H1314 H 0.93503 0.54353 0.80876 0.0
H1315 H 0.91787 0.50728 0.83602 0.0
C1316 C 0.93526 0.60661 0.75722 0.0
C1317 C 0.93593 0.60209 0.72964 0.0
C1318 C 0.92414 0.5875 0.77418 0.0
C1319 C 0.91327 0.56384 0.76374 0.0
C1320 C 0.91378 0.55952 0.73622 0.0
C1321 C 0.92503 0.57835 0.71939 0.0
C1322 C 0.86795 0.50986 0.79027 0.0
C1323 C 0.88221 0.501 0.81247 0.0
C1324 C 0.87779 0.53069 0.77479 0.0
C1325 C 0.90201 0.54311 0.78125 0.0
C1326 C 0.91613 0.5345 0.80358 0.0
C1327 C 0.9064 0.51357 0.81899 0.0
H1328 H 0.18283 0.49172 0.13917 0.0
H1329 H 0.16025 0.50663 0.05776 0.0
H1330 H 0.21326 0.45672 0.12399 0.0
H1331 H 0.19095 0.47189 0.04268 0.0
H1332 H 0.27795 0.43675 0.03318 0.0
H1333 H 0.243 0.46819 0.04556 0.0
H1334 H 0.20883 0.40977 0.09854 0.0
H1335 H 0.24379 0.37782 0.08559 0.0
C1336 C 0.18455 0.48768 0.11806 0.0
C1337 C 0.16932 0.50194 0.09962 0.0
C1338 C 0.20165 0.46746 0.10945 0.0
C1339 C 0.20413 0.46154 0.08225 0.0
C1340 C 0.18924 0.47607 0.06378 0.0
C1341 C 0.1718 0.49594 0.0724 0.0
C1342 C 0.26268 0.43049 0.04714 0.0
C1343 C 0.26341 0.40501 0.05854 0.0
C1344 C 0.24272 0.44841 0.05413 0.0
C1345 C 0.22344 0.44136 0.07306 0.0
C1346 C 0.22366 0.41559 0.08397 0.0
C1347 C 0.24341 0.39734 0.07648 0.0
H1348 H 0.25088 0.6521 0.92976 0.0
H1349 H 0.30013 0.66191 0.86012 0.0
H1350 H 0.21764 0.62883 0.90321 0.0
H1351 H 0.26648 0.63963 0.83297 0.0
H1352 H 0.23036 0.55583 0.81435 0.0
H1353 H 0.25604 0.59344 0.83093 0.0
H1354 H 0.18547 0.6253 0.86888 0.0
H1355 H 0.16007 0.5871 0.85308 0.0
C1356 C 0.25386 0.65038 0.90846 0.0
C1357 C 0.27774 0.65874 0.89678 0.0
C1358 C 0.23488 0.63706 0.89317 0.0
C1359 C 0.23958 0.63199 0.86596 0.0
C1360 C 0.2625 0.64274 0.85394 0.0
C1361 C 0.28158 0.65576 0.86932 0.0
C1362 C 0.22024 0.57117 0.82571 0.0
C1363 C 0.19338 0.5683 0.83281 0.0
C1364 C 0.2349 0.59289 0.83512 0.0
C1365 C 0.22287 0.6123 0.85154 0.0
C1366 C 0.19546 0.61044 0.85677 0.0
C1367 C 0.1809 0.58859 0.84765 0.0
H1368 H 0.36064 0.21384 0.86105 0.0
H1369 H 0.43788 0.21035 0.89766 0.0
H1370 H 0.34299 0.23664 0.9006 0.0
H1371 H 0.42002 0.22866 0.93821 0.0
H1372 H 0.39572 0.29751 0.98891 0.0
H1373 H 0.41011 0.26778 0.95473 0.0
H1374 H 0.32903 0.24033 0.94395 0.0
H1375 H 0.31416 0.27295 0.97705 0.0
C1376 C 0.37359 0.21749 0.87783 0.0
C1377 C 0.40057 0.21071 0.87642 0.0
C1378 C 0.36349 0.23012 0.9007 0.0
C1379 C 0.38008 0.23513 0.92281 0.0
C1380 C 0.4067 0.22654 0.9215 0.0
C1381 C 0.41696 0.21548 0.89833 0.0
C1382 C 0.38085 0.28497 0.97956 0.0
C1383 C 0.35369 0.28811 0.98534 0.0
C1384 C 0.38922 0.26739 0.95991 0.0
C1385 C 0.37083 0.2514 0.94603 0.0
C1386 C 0.34378 0.25276 0.95354 0.0
C1387 C 0.33525 0.27113 0.97289 0.0
H1388 H 0.80774 0.35046 0.8938 0.0
H1389 H 0.75977 0.4042 0.84733 0.0
H1390 H 0.76859 0.33452 0.91638 0.0
H1391 H 0.71972 0.38695 0.86914 0.0
H1392 H 0.66872 0.38597 0.94654 0.0
H1393 H 0.70145 0.39357 0.91167 0.0
H1394 H 0.72865 0.31218 0.91947 0.0
H1395 H 0.69695 0.30535 0.95566 0.0
C1396 C 0.78863 0.35834 0.88782 0.0
C1397 C 0.78691 0.37904 0.8692 0.0
C1398 C 0.76597 0.34891 0.90064 0.0
C1399 C 0.74086 0.35967 0.89496 0.0
C1400 C 0.73883 0.37866 0.87448 0.0
C1401 C 0.76171 0.38834 0.86174 0.0
C1402 C 0.68159 0.36968 0.94059 0.0
C1403 C 0.68076 0.34527 0.95408 0.0
C1404 C 0.70018 0.3739 0.92034 0.0
C1405 C 0.71797 0.35358 0.9128 0.0
C1406 C 0.71578 0.32853 0.92519 0.0
C1407 C 0.69763 0.32455 0.94591 0.0
H1408 H 0.62545 0.67393 0.89706 0.0
H1409 H 0.69397 0.71885 0.92324 0.0
H1410 H 0.61206 0.71095 0.86912 0.0
H1411 H 0.68123 0.75552 0.8944 0.0
H1412 H 0.62185 0.82501 0.88724 0.0
H1413 H 0.64583 0.7861 0.90161 0.0
H1414 H 0.61762 0.74231 0.83306 0.0
H1415 H 0.59266 0.7816 0.81887 0.0
C1416 C 0.63818 0.69135 0.89609 0.0
C1417 C 0.66045 0.69375 0.91272 0.0
C1418 C 0.63057 0.71256 0.87995 0.0
C1419 C 0.64529 0.73643 0.87994 0.0
C1420 C 0.66908 0.73766 0.89451 0.0
C1421 C 0.67645 0.71664 0.91095 0.0
C1422 C 0.62096 0.80726 0.87494 0.0
C1423 C 0.60505 0.80633 0.85206 0.0
C1424 C 0.63505 0.78493 0.88305 0.0
C1425 C 0.63373 0.76102 0.86847 0.0
C1426 C 0.61886 0.76039 0.84483 0.0
C1427 C 0.60468 0.78289 0.83665 0.0
H1428 H 0.73867 0.48783 0.09372 0.0
H1429 H 0.7346 0.53877 0.16293 0.0
H1430 H 0.71518 0.52131 0.06784 0.0
H1431 H 0.71222 0.57278 0.13692 0.0
H1432 H 0.72659 0.5998 0.02376 0.0
H1433 H 0.73575 0.56216 0.05245 0.0
H1434 H 0.6773 0.59068 0.10904 0.0
H1435 H 0.66856 0.62888 0.08056 0.0
C1436 C 0.73169 0.50574 0.10363 0.0
C1437 C 0.73858 0.51091 0.13016 0.0
C1438 C 0.7187 0.5251 0.08876 0.0
C1439 C 0.71287 0.55008 0.10009 0.0
C1440 C 0.71662 0.55382 0.12755 0.0
C1441 C 0.72926 0.53423 0.14256 0.0
C1442 C 0.71597 0.59831 0.0425 0.0
C1443 C 0.69698 0.61744 0.04993 0.0
C1444 C 0.72081 0.57642 0.05873 0.0
C1445 C 0.70677 0.57309 0.08276 0.0
C1446 C 0.68836 0.59264 0.09062 0.0
C1447 C 0.6835 0.61459 0.07436 0.0
H1448 H 0.45466 0.83945 0.06119 0.0
H1449 H 0.48246 0.76349 0.09029 0.0
H1450 H 0.42585 0.81644 0.02946 0.0
H1451 H 0.4539 0.74067 0.05843 0.0
H1452 H 0.4175 0.70712 0.98597 0.0
H1453 H 0.449 0.73664 0.00774 0.0
H1454 H 0.38408 0.78502 0.03699 0.0
H1455 H 0.3521 0.75517 0.0149 0.0
C1456 C 0.45501 0.81788 0.06046 0.0
C1457 C 0.47069 0.80317 0.07828 0.0
C1458 C 0.43839 0.80481 0.04246 0.0
C1459 C 0.43768 0.77692 0.04167 0.0
C1460 C 0.45428 0.76226 0.05859 0.0
C1461 C 0.47054 0.77527 0.07685 0.0
C1462 C 0.4099 0.72425 -0.00321 0.0
C1463 C 0.38238 0.72857 -0.00053 0.0
C1464 C 0.42795 0.74112 0.00912 0.0
C1465 C 0.41886 0.76268 0.02434 0.0
C1466 C 0.39146 0.76841 0.02528 0.0
C1467 C 0.37322 0.7514 0.01279 0.0
H1468 H 0.48241 0.23147 0.14368 0.0
H1469 H 0.5495 0.18272 0.16534 0.0
H1470 H 0.51282 0.26362 0.12276 0.0
H1471 H 0.57983 0.2151 0.14519 0.0
H1472 H 0.62459 0.29259 0.11864 0.0
H1473 H 0.59387 0.26757 0.14732 0.0
H1474 H 0.54373 0.25131 0.07973 0.0
H1475 H 0.57459 0.27562 0.05096 0.0
C1476 C 0.50368 0.22823 0.14486 0.0
C1477 C 0.51375 0.20479 0.15605 0.0
C1478 C 0.52099 0.24642 0.13276 0.0
C1479 C 0.54853 0.24162 0.13235 0.0
C1480 C 0.55867 0.21924 0.14543 0.0
C1481 C 0.54138 0.20079 0.15691 0.0
C1482 C 0.60705 0.28354 0.10995 0.0
C1483 C 0.60209 0.28568 0.08257 0.0
C1484 C 0.5895 0.26942 0.12634 0.0
C1485 C 0.56639 0.25793 0.11568 0.0
C1486 C 0.56127 0.26037 0.0884 0.0
C1487 C 0.57909 0.27391 0.07194 0.0
H1488 H 0.87927 0.66772 0.66306 0.0
H1489 H 0.9267 0.7356 0.68703 0.0
H1490 H 0.84547 0.69758 0.64569 0.0
H1491 H 0.89319 0.76533 0.66929 0.0
H1492 H 0.83116 0.7585 0.57505 0.0
H1493 H 0.84773 0.72484 0.60573 0.0
H1494 H 0.84861 0.78347 0.66902 0.0
H1495 H 0.83284 0.81713 0.63791 0.0
C1496 C 0.88225 0.68902 0.66513 0.0
C1497 C 0.90591 0.69934 0.67598 0.0
C1498 C 0.86287 0.70608 0.65512 0.0
C1499 C 0.86678 0.73376 0.65578 0.0
C1500 C 0.8894 0.74408 0.66868 0.0
C1501 C 0.90875 0.72703 0.67874 0.0
C1502 C 0.83386 0.76374 0.59579 0.0
C1503 C 0.83089 0.79013 0.60432 0.0
C1504 C 0.84333 0.74455 0.61341 0.0
C1505 C 0.84989 0.75166 0.63973 0.0
C1506 C 0.84418 0.77755 0.64878 0.0
C1507 C 0.83497 0.79671 0.63111 0.0
H1508 H 0.2939 0.9198 0.63264 0.0
H1509 H 0.34523 0.90317 0.56534 0.0
H1510 H 0.26161 0.88752 0.61569 0.0
H1511 H 0.31312 0.8709 0.54871 0.0
H1512 H 0.21399 0.81735 0.58676 0.0
H1513 H 0.25415 0.83841 0.60505 0.0
H1514 H 0.2678 0.87767 0.52989 0.0
H1515 H 0.22778 0.85691 0.51203 0.0
C1516 C 0.29841 0.90911 0.61442 0.0
C1517 C 0.32203 0.91423 0.60027 0.0
C1518 C 0.28008 0.89041 0.60488 0.0
C1519 C 0.28495 0.87664 0.58094 0.0
C1520 C 0.30885 0.88127 0.56718 0.0
C1521 C 0.32721 0.89979 0.57675 0.0
C1522 C 0.22633 0.82959 0.57397 0.0
C1523 C 0.21829 0.83529 0.54796 0.0
C1524 C 0.249 0.8419 0.58447 0.0
C1525 C 0.26394 0.8598 0.56893 0.0
C1526 C 0.25687 0.86377 0.54225 0.0
C1527 C 0.23407 0.85182 0.53195 0.0
H1528 H 0.08578 0.2629 0.61369 0.0
H1529 H 0.07875 0.31302 0.54443 0.0
H1530 H 0.11069 0.23037 0.58727 0.0
H1531 H 0.10259 0.28029 0.51792 0.0
H1532 H 0.16571 0.22615 0.4814 0.0
H1533 H 0.14497 0.26027 0.50963 0.0
H1534 H 0.10327 0.19878 0.55312 0.0
H1535 H 0.12438 0.16512 0.5259 0.0
C1536 C 0.08939 0.26687 0.59283 0.0
C1537 C 0.08035 0.29053 0.58123 0.0
C1538 C 0.10361 0.24824 0.57763 0.0
C1539 C 0.10874 0.25272 0.55041 0.0
C1540 C 0.09956 0.27639 0.53888 0.0
C1541 C 0.08565 0.29508 0.5541 0.0
C1542 C 0.15226 0.22002 0.49713 0.0
C1543 C 0.14691 0.19291 0.50147 0.0
C1544 C 0.14026 0.23953 0.51323 0.0
C1545 C 0.12253 0.23228 0.53382 0.0
C1546 C 0.11725 0.20515 0.53797 0.0
C1547 C 0.12931 0.18579 0.52213 0.0
H1548 H 0.8329 0.17764 0.5514 0.0
H1549 H 0.76729 0.15832 0.49952 0.0
H1550 H 0.80357 0.17437 0.58986 0.0
H1551 H 0.73798 0.15437 0.53817 0.0
H1552 H 0.75593 0.11547 0.64421 0.0
H1553 H 0.7842 0.13539 0.61045 0.0
H1554 H 0.716 0.17488 0.57664 0.0
H1555 H 0.68751 0.15459 0.61026 0.0
C1556 C 0.81209 0.17299 0.5482 0.0
C1557 C 0.80242 0.16779 0.52251 0.0
C1558 C 0.79533 0.1711 0.57025 0.0
C1559 C 0.76858 0.16375 0.56712 0.0
C1560 C 0.75846 0.16031 0.54125 0.0
C1561 C 0.77525 0.16243 0.5191 0.0
C1562 C 0.74704 0.12904 0.63012 0.0
C1563 C 0.7194 0.13307 0.6297 0.0
C1564 C 0.76328 0.14054 0.61073 0.0
C1565 C 0.75224 0.15638 0.59059 0.0
C1566 C 0.72498 0.16234 0.5916 0.0
C1567 C 0.70871 0.15085 0.61101 0.0
H1568 H 0.90064 0.14604 0.37108 0.0
H1569 H 0.86429 0.22286 0.38478 0.0
H1570 H 0.93244 0.16648 0.34025 0.0
H1571 H 0.89556 0.24303 0.35332 0.0
H1572 H 0.00287 0.23575 0.34181 0.0
H1573 H 0.96883 0.20371 0.35557 0.0
H1574 H 0.9129 0.24002 0.30199 0.0
H1575 H 0.94731 0.27151 0.28754 0.0
C1576 C 0.89888 0.16711 0.36685 0.0
C1577 C 0.88004 0.18292 0.38039 0.0
C1578 C 0.9171 0.17874 0.34925 0.0
C1579 C 0.91627 0.20622 0.34433 0.0
C1580 C 0.89634 0.2217 0.35651 0.0
C1581 C 0.87857 0.21022 0.37462 0.0
C1582 C 0.98378 0.23582 0.33187 0.0
C1583 C 0.97772 0.25582 0.31347 0.0
C1584 C 0.96427 0.21762 0.33983 0.0
C1585 C 0.93825 0.21965 0.32998 0.0
C1586 C 0.93286 0.2381 0.3098 0.0
C1587 C 0.9526 0.25588 0.30134 0.0
H1588 H 0.71665 0.97589 0.38737 0.0
H1589 H 0.68035 0.89791 0.38404 0.0
H1590 H 0.75284 0.95769 0.41432 0.0
H1591 H 0.71481 0.88023 0.4118 0.0
H1592 H 0.78149 0.84798 0.45667 0.0
H1593 H 0.75725 0.86695 0.41953 0.0
H1594 H 0.7583 0.94406 0.45855 0.0
H1595 H 0.78471 0.92511 0.49456 0.0
C1596 C 0.71681 0.95478 0.39181 0.0
C1597 C 0.69566 0.93833 0.38384 0.0
C1598 C 0.73723 0.94441 0.40762 0.0
C1599 C 0.73667 0.91751 0.4157 0.0
C1600 C 0.71639 0.90088 0.4059 0.0
C1601 C 0.69635 0.91111 0.39005 0.0
C1602 C 0.77643 0.86897 0.45715 0.0
C1603 C 0.78418 0.88505 0.47856 0.0
C1604 C 0.76256 0.87992 0.43592 0.0
C1605 C 0.75527 0.90703 0.43611 0.0
C1606 C 0.76374 0.92322 0.45743 0.0
C1607 C 0.77845 0.91237 0.4783 0.0
H1608 H 0.97397 0.68763 0.43276 0.0
H1609 H 0.02057 0.70502 0.36269 0.0
H1610 H 0.0046 0.71368 0.45988 0.0
H1611 H 0.05156 0.73141 0.38995 0.0
H1612 H 0.11701 0.74406 0.45399 0.0
H1613 H 0.08487 0.71934 0.42672 0.0
H1614 H 0.02028 0.76043 0.4662 0.0
H1615 H 0.05219 0.78492 0.4933 0.0
C1616 C 0.99045 0.69775 0.42312 0.0
C1617 C -0.00514 0.69472 0.3957 0.0
C1618 C 0.00803 0.71251 0.43863 0.0
C1619 C 0.0306 0.72431 0.42706 0.0
C1620 C 0.03446 0.72221 0.39937 0.0
C1621 C 0.01656 0.7076 0.38372 0.0
C1622 C 0.09593 0.74726 0.45721 0.0
C1623 C 0.08702 0.76623 0.4758 0.0
C1624 C 0.0776 0.73352 0.44133 0.0
C1625 C 0.05014 0.7383 0.44411 0.0
C1626 C 0.04131 0.75636 0.46361 0.0
C1627 C 0.05955 0.77027 0.47918 0.0
H1628 H 0.26158 0.10706 0.42374 0.0
H1629 H 0.20647 0.09394 0.35924 0.0
H1630 H 0.29156 0.07388 0.40432 0.0
H1631 H 0.23524 0.06018 0.3409 0.0
H1632 H 0.29484 0.00726 0.30373 0.0
H1633 H 0.27405 0.0482 0.31941 0.0
H1634 H 0.29318 0.02711 0.40044 0.0
H1635 H 0.31545 0.98699 0.38434 0.0
C1636 C 0.25605 0.09743 0.40525 0.0
C1637 C 0.23156 0.10305 0.39316 0.0
C1638 C 0.27305 0.07817 0.39428 0.0
C1639 C 0.26575 0.06403 0.37116 0.0
C1640 C 0.24188 0.07079 0.35845 0.0
C1641 C 0.22516 0.09014 0.36917 0.0
C1642 C 0.2946 0.01148 0.32488 0.0
C1643 C 0.30635 0.99386 0.34289 0.0
C1644 C 0.28268 0.03493 0.33392 0.0
C1645 C 0.2816 0.04095 0.36128 0.0
C1646 C 0.29393 0.02346 0.37923 0.0
C1647 C 0.30642 0.00029 0.37008 0.0
H1648 H 0.56786 0.89706 0.74929 0.0
H1649 H 0.62004 0.9182 0.81423 0.0
H1650 H 0.58815 0.9325 0.72233 0.0
H1651 H 0.63981 0.95314 0.78762 0.0
H1652 H 0.6512 0.03055 0.74134 0.0
H1653 H 0.62679 -0.00281 0.76736 0.0
H1654 H 0.63414 0.94092 0.70257 0.0
H1655 H 0.65838 0.97381 0.67675 0.0
C1656 C 0.58365 0.90908 0.75773 0.0
C1657 C 0.59251 0.90456 0.78376 0.0
C1658 C 0.59519 0.92936 0.74239 0.0
C1659 C 0.61539 0.94566 0.75304 0.0
C1660 C 0.62403 0.94118 0.77905 0.0
C1661 C 0.61285 0.92085 0.79415 0.0
C1662 C 0.64767 0.01103 0.73276 0.0
C1663 C 0.6571 0.00473 0.70718 0.0
C1664 C 0.63367 0.99199 0.74756 0.0
C1665 C 0.62854 0.96652 0.73688 0.0
C1666 C 0.63754 0.96046 0.71117 0.0
C1667 C 0.65175 0.97927 0.69656 0.0
H1668 H 0.07391 0.63669 0.68448 0.0
H1669 H 0.02036 0.61128 0.74703 0.0
H1670 H 0.1019 0.59817 0.69237 0.0
H1671 H 0.04908 0.57329 0.7557 0.0
H1672 H 0.09111 0.49919 0.76006 0.0
H1673 H 0.0632 0.53131 0.73693 0.0
H1674 H 0.13191 0.58199 0.72511 0.0
H1675 H 0.15967 0.54926 0.74719 0.0
C1676 C 0.06835 0.62314 0.70029 0.0
C1677 C 0.04493 0.62712 0.71525 0.0
C1678 C 0.08437 0.60097 0.70466 0.0
C1679 C 0.07751 0.58241 0.7243 0.0
C1680 C 0.05452 0.58681 0.73983 0.0
C1681 C 0.03834 0.60889 0.73529 0.0
C1682 C 0.10039 0.5164 0.75091 0.0
C1683 C 0.1274 0.52186 0.75509 0.0
C1684 C 0.08438 0.53508 0.73826 0.0
C1685 C 0.09519 0.55961 0.73012 0.0
C1686 C 0.12292 0.56335 0.73122 0.0
C1687 C 0.13895 0.54448 0.74358 0.0
H1688 H 0.39714 0.10584 0.80092 0.0
H1689 H 0.43153 0.16504 0.74889 0.0
H1690 H 0.38254 0.08017 0.76277 0.0
H1691 H 0.4165 0.13914 0.71017 0.0
H1692 H 0.42234 0.06159 0.65692 0.0
H1693 H 0.43036 0.09504 0.69123 0.0
H1694 H 0.35254 0.07964 0.72466 0.0
H1695 H 0.34459 0.04586 0.69067 0.0
C1696 C 0.4012 0.11359 0.78124 0.0
C1697 C 0.41565 0.13735 0.77784 0.0
C1698 C 0.39262 0.09896 0.75935 0.0
C1699 C 0.3984 0.1076 0.73346 0.0
C1700 C 0.41194 0.13194 0.72995 0.0
C1701 C 0.42034 0.14684 0.75202 0.0
C1702 C 0.40682 0.06547 0.67145 0.0
C1703 C 0.38293 0.05081 0.67123 0.0
C1704 C 0.41134 0.08485 0.69094 0.0
C1705 C 0.39209 0.08994 0.71064 0.0
C1706 C 0.36785 0.07595 0.70987 0.0
C1707 C 0.36332 0.05658 0.6904 0.0
H1708 H 0.86307 0.41983 0.76052 0.0
H1709 H 0.89602 0.35768 0.80958 0.0
H1710 H 0.89264 0.40673 0.7243 0.0
H1711 H 0.92618 0.34513 0.77363 0.0
H1712 H 0.96368 0.31749 0.6942 0.0
H1713 H 0.93127 0.32638 0.72958 0.0
H1714 H 0.93926 0.41095 0.71561 0.0
H1715 H 0.97087 0.40209 0.68005 0.0
C1716 C 0.87641 0.40318 0.76349 0.0
C1717 C 0.87719 0.38986 0.78798 0.0
C1718 C 0.89358 0.39583 0.74281 0.0
C1719 C 0.91215 0.37516 0.74619 0.0
C1720 C 0.91206 0.36102 0.77026 0.0
C1721 C 0.89474 0.36825 0.7909 0.0
C1722 C 0.95862 0.33796 0.69886 0.0
C1723 C 0.96967 0.35906 0.68416 0.0
C1724 C 0.94005 0.34307 0.71912 0.0
C1725 C 0.9323 0.36937 0.72516 0.0
C1726 C 0.94414 0.39042 0.71102 0.0
C1727 C 0.96248 0.38533 0.69075 0.0
H1728 H 0.51313 0.06821 0.18288 0.0
H1729 H 0.51266 0.13097 0.24211 0.0
H1730 H 0.53794 0.03967 0.21308 0.0
H1731 H 0.53777 0.1026 0.27198 0.0
H1732 H 0.55335 0.03767 0.32996 0.0
H1733 H 0.52819 0.06219 0.29717 0.0
H1734 H 0.58223 0.0355 0.23556 0.0
H1735 H 0.60748 0.01025 0.26876 0.0
C1736 C 0.51853 0.07603 0.20223 0.0
C1737 C 0.51089 0.1019 0.21014 0.0
C1738 C 0.53282 0.05967 0.21945 0.0
C1739 C 0.53964 0.06882 0.24492 0.0
C1740 C 0.53239 0.09482 0.25261 0.0
C1741 C 0.51811 0.11114 0.23546 0.0
C1742 C 0.55985 0.03687 0.30939 0.0
C1743 C 0.58266 0.02248 0.30194 0.0
C1744 C 0.54548 0.05103 0.29064 0.0
C1745 C 0.55362 0.05132 0.26394 0.0
C1746 C 0.57558 0.0357 0.25607 0.0
C1747 C 0.59001 0.02127 0.27499 0.0
H1748 H 0.86551 0.58359 0.32512 0.0
H1749 H 0.89066 0.65052 0.27724 0.0
H1750 H 0.83664 0.56869 0.29021 0.0
H1751 H 0.86059 0.63557 0.24168 0.0
H1752 H 0.83983 0.5672 0.17785 0.0
H1753 H 0.85909 0.59793 0.21027 0.0
H1754 H 0.79703 0.57723 0.26634 0.0
H1755 H 0.77898 0.54529 0.23449 0.0
C1756 C 0.86466 0.59541 0.30717 0.0
C1757 C 0.88067 0.61816 0.30392 0.0
C1758 C 0.84765 0.58702 0.28717 0.0
C1759 C 0.84593 0.60111 0.26319 0.0
C1760 C 0.86145 0.62431 0.25997 0.0
C1761 C 0.8786 0.63287 0.28029 0.0
C1762 C 0.82984 0.56996 0.19681 0.0
C1763 C 0.80827 0.55365 0.204 0.0
C1764 C 0.84083 0.58763 0.21537 0.0
C1765 C 0.83004 0.58945 0.24116 0.0
C1766 C 0.8063 0.57564 0.24691 0.0
C1767 C 0.79581 0.5575 0.22868 0.0
H1768 H 0.45325 0.81239 0.21471 0.0
H1769 H 0.41243 0.83064 0.14163 0.0
H1770 H 0.41087 0.8116 0.23815 0.0
H1771 H 0.36986 0.8292 0.16489 0.0
H1772 H 0.34195 0.81978 0.28239 0.0
H1773 H 0.36607 0.79622 0.24736 0.0
H1774 H 0.35452 0.86341 0.19513 0.0
H1775 H 0.32978 0.88634 0.22986 0.0
C1776 C 0.43513 0.81538 0.20354 0.0
C1777 C 0.43612 0.82241 0.17666 0.0
C1778 C 0.41074 0.81464 0.21684 0.0
C1779 C 0.38697 0.82071 0.20337 0.0
C1780 C 0.38785 0.8249 0.17585 0.0
C1781 C 0.41223 0.82589 0.16262 0.0
C1782 C 0.3434 0.82879 0.26289 0.0
C1783 C 0.33481 0.85505 0.25883 0.0
C1784 C 0.3573 0.81539 0.24292 0.0
C1785 C 0.36312 0.8284 0.21895 0.0
C1786 C 0.35057 0.85285 0.21347 0.0
C1787 C 0.33634 0.8661 0.23337 0.0
H1788 H 0.11716 0.51613 0.21536 0.0
H1789 H 0.06729 0.48256 0.15395 0.0
H1790 H 0.10275 0.48062 0.24571 0.0
H1791 H 0.05271 0.44786 0.18401 0.0
H1792 H 0.05792 0.37161 0.23126 0.0
H1793 H 0.07252 0.40852 0.20338 0.0
H1794 H 0.06375 0.46274 0.26979 0.0
H1795 H 0.04965 0.42585 0.29783 0.0
C1796 C 0.10294 0.50142 0.2085 0.0
C1797 C 0.09374 0.5018 0.1822 0.0
C1798 C 0.09468 0.48113 0.2258 0.0
C1799 C 0.07701 0.46112 0.21702 0.0
C1800 C 0.06693 0.46245 0.19113 0.0
C1801 C 0.07522 0.48246 0.17395 0.0
C1802 C 0.05911 0.39138 0.23991 0.0
C1803 C 0.05262 0.39574 0.26673 0.0
C1804 C 0.06739 0.41256 0.22394 0.0
C1805 C 0.06921 0.43858 0.2344 0.0
C1806 C 0.06286 0.44291 0.26125 0.0
C1807 C 0.05462 0.42174 0.27723 0.0
H1808 H 0.68189 0.55934 0.94415 0.0
H1809 H 0.7434 0.61903 0.93528 0.0
H1810 H 0.71131 0.52593 0.92487 0.0
H1811 H 0.77266 0.58563 0.91542 0.0
H1812 H 0.82748 0.51441 0.90977 0.0
H1813 H 0.79707 0.54677 0.92868 0.0
H1814 H 0.73264 0.51255 0.88327 0.0
H1815 H 0.76329 0.4794 0.86453 0.0
C1816 C 0.70166 0.5654 0.93794 0.0
C1817 C 0.7103 0.59192 0.94127 0.0
C1818 C 0.71845 0.54622 0.92671 0.0
C1819 C 0.74431 0.55307 0.91854 0.0
C1820 C 0.75295 0.5796 0.92183 0.0
C1821 C 0.73617 0.59879 0.93314 0.0
C1822 C 0.80684 0.5137 0.90369 0.0
C1823 C 0.79788 0.49443 0.88538 0.0
C1824 C 0.78942 0.53243 0.91448 0.0
C1825 C 0.7625 0.53253 0.90724 0.0
C1826 C 0.75328 0.51294 0.88934 0.0
C1827 C 0.77081 0.49401 0.87853 0.0
H1828 H 0.73207 0.34974 0.04102 0.0
H1829 H 0.68961 0.30636 0.10166 0.0
H1830 H 0.76575 0.36258 0.07341 0.0
H1831 H 0.72297 0.31971 0.13441 0.0
H1832 H 0.82009 0.38835 0.1374 0.0
H1833 H 0.79998 0.3523 0.11154 0.0
H1834 H 0.72332 0.3709 0.1459 0.0
H1835 H 0.7432 0.4073 0.17125 0.0
C1836 C 0.73093 0.34158 0.06091 0.0
C1837 C 0.70854 0.32698 0.06895 0.0
C1838 C 0.7501 0.34901 0.07952 0.0
C1839 C 0.74667 0.34241 0.10646 0.0
C1840 C 0.72598 0.32504 0.11376 0.0
C1841 C 0.70707 0.31721 0.095 0.0
C1842 C 0.79909 0.38419 0.14009 0.0
C1843 C 0.78309 0.40079 0.15612 0.0
C1844 C 0.78766 0.36355 0.12529 0.0
C1845 C 0.76019 0.3588 0.12681 0.0
C1846 C 0.74465 0.37389 0.14465 0.0
C1847 C 0.75595 0.39488 0.15899 0.0
H1848 H 0.55112 0.78847 0.08255 0.0
H1849 H 0.61612 0.81746 0.13068 0.0
H1850 H 0.58222 0.76906 0.05149 0.0
H1851 H 0.64798 0.79755 0.09888 0.0
H1852 H 0.67703 0.71359 0.0584 0.0
H1853 H 0.65907 0.74961 0.08602 0.0
H1854 H 0.61619 0.77967 0.01825 0.0
H1855 H 0.63325 0.74294 0.99116 0.0
C1856 C 0.5722 0.79076 0.08647 0.0
C1857 C 0.58118 0.80409 0.10935 0.0
C1858 C 0.5901 0.77999 0.06833 0.0
C1859 C 0.61763 0.78204 0.07248 0.0
C1860 C 0.62685 0.79579 0.09513 0.0
C1861 C 0.6087 0.80708 0.1133 0.0
C1862 C 0.66482 0.72872 0.0492 0.0
C1863 C 0.65635 0.72564 0.02282 0.0
C1864 C 0.65452 0.74934 0.06499 0.0
C1865 C 0.63573 0.76707 0.05444 0.0
C1866 C 0.63023 0.76596 0.02704 0.0
C1867 C 0.64012 0.74512 0.01145 0.0
H1868 H 0.24787 0.6715 0.98601 0.0
H1869 H 0.30465 0.66099 0.04931 0.0
H1870 H 0.21209 0.65703 0.01587 0.0
H1871 H 0.26908 0.64717 0.07907 0.0
H1872 H 0.15082 0.64761 0.08293 0.0
H1873 H 0.1859 0.66746 0.05566 0.0
H1874 H 0.24133 0.60848 0.08403 0.0
H1875 H 0.20655 0.58899 0.11157 0.0
C1876 C 0.25266 0.66658 0.00638 0.0
C1877 C 0.27918 0.66726 0.01516 0.0
C1878 C 0.23215 0.65833 0.02354 0.0
C1879 C 0.23771 0.65063 0.04985 0.0
C1880 C 0.2641 0.65238 0.05882 0.0
C1881 C 0.28451 0.6605 0.04173 0.0
C1882 C 0.1706 0.63912 0.08368 0.0
C1883 C 0.17584 0.61674 0.09963 0.0
C1884 C 0.19066 0.65037 0.06781 0.0
C1885 C 0.21647 0.63959 0.06756 0.0
C1886 C 0.22181 0.61759 0.08397 0.0
C1887 C 0.20179 0.60633 0.09977 0.0
H1888 H 0.35386 0.34251 0.12153 0.0
H1889 H 0.31153 0.2804 0.07944 0.0
H1890 H 0.37172 0.30927 0.15198 0.0
H1891 H 0.32984 0.24743 0.109 0.0
H1892 H 0.43154 0.23705 0.16014 0.0
H1893 H 0.40526 0.27551 0.1464 0.0
H1894 H 0.33364 0.22777 0.1513 0.0
H1895 H 0.36036 0.18916 0.16362 0.0
C1896 C 0.34787 0.3219 0.11914 0.0
C1897 C 0.33153 0.31405 0.09787 0.0
C1898 C 0.35828 0.30283 0.13646 0.0
C1899 C 0.35247 0.27562 0.13283 0.0
C1900 C 0.33456 0.26817 0.11271 0.0
C1901 C 0.32419 0.28713 0.09551 0.0
C1902 C 0.41009 0.23518 0.15898 0.0
C1903 C 0.39781 0.2104 0.16269 0.0
C1904 C 0.39497 0.25718 0.15124 0.0
C1905 C 0.36733 0.25463 0.14731 0.0
C1906 C 0.35493 0.23026 0.15354 0.0
C1907 C 0.3701 0.20824 0.16078 0.0
H1908 H 0.23126 0.49132 0.88762 0.0
H1909 H 0.24584 0.42818 0.83108 0.0
H1910 H 0.25833 0.46809 0.92052 0.0
H1911 H 0.27254 0.40475 0.86371 0.0
H1912 H 0.32425 0.37041 0.92772 0.0
H1913 H 0.31021 0.40158 0.89371 0.0
H1914 H 0.24492 0.42683 0.94398 0.0
H1915 H 0.25942 0.39607 0.97848 0.0
C1916 C 0.24157 0.47324 0.88181 0.0
C1917 C 0.23693 0.46156 0.8569 0.0
C1918 C 0.25655 0.45968 0.90074 0.0
C1919 C 0.26696 0.43433 0.89485 0.0
C1920 C 0.26483 0.42426 0.86883 0.0
C1921 C 0.24979 0.43776 0.85002 0.0
C1922 C 0.30677 0.38247 0.93149 0.0
C1923 C 0.29271 0.38055 0.95566 0.0
C1924 C 0.29887 0.40043 0.91204 0.0
C1925 C 0.2767 0.41685 0.9163 0.0
C1926 C 0.26246 0.41481 0.94038 0.0
C1927 C 0.27039 0.39681 0.9599 0.0
H1928 H 0.60762 0.31855 0.93525 0.0
H1929 H 0.54935 0.29584 -0.00592 0.0
H1930 H 0.5785 0.30265 0.89989 0.0
H1931 H 0.52069 0.27806 0.95909 0.0
H1932 H 0.46714 0.25556 0.89432 0.0
H1933 H 0.49252 0.28533 0.92329 0.0
H1934 H 0.56473 0.26286 0.88162 0.0
H1935 H 0.53891 0.23471 0.85201 0.0
C1936 C 0.58859 0.30976 0.94047 0.0
C1937 C 0.58069 0.30788 0.96713 0.0
C1938 C 0.57191 0.30062 0.9203 0.0
C1939 C 0.5472 0.28886 0.92648 0.0
C1940 C 0.53928 0.28741 0.9534 0.0
C1941 C 0.55578 0.29715 0.97353 0.0
C1942 C 0.48825 0.25821 0.89069 0.0
C1943 C 0.50116 0.24342 0.87081 0.0
C1944 C 0.50292 0.27477 0.90757 0.0
C1945 C 0.53085 0.27613 0.90529 0.0
C1946 C 0.54331 0.26272 0.88395 0.0
C1947 C 0.52855 0.24661 0.86682 0.0
H1948 H 0.48334 0.78301 0.815 0.0
H1949 H 0.49289 0.80789 0.89656 0.0
H1950 H 0.44695 0.75302 0.82849 0.0
H1951 H 0.45737 0.77776 0.91018 0.0
H1952 H 0.37145 0.75699 0.92032 0.0
H1953 H 0.40947 0.7815 0.90309 0.0
H1954 H 0.43233 0.71338 0.85549 0.0
H1955 H 0.39379 0.68878 0.87246 0.0
C1956 C 0.47834 0.78121 0.83589 0.0
C1957 C 0.49082 0.79755 0.85482 0.0
C1958 C 0.45743 0.76426 0.8436 0.0
C1959 C 0.44886 0.76358 0.8703 0.0
C1960 C 0.46298 0.7784 0.88936 0.0
C1961 C 0.48357 0.79534 0.88167 0.0
C1962 C 0.38427 0.74731 0.90585 0.0
C1963 C 0.37956 0.72088 0.89786 0.0
C1964 C 0.40627 0.76127 0.89618 0.0
C1965 C 0.42427 0.74915 0.87838 0.0
C1966 C 0.41886 0.72322 0.86923 0.0
C1967 C 0.39672 0.70919 0.8789 0.0
loop_
_geom_bond_atom_site_label_1
_geom_bond_atom_site_label_2
_geom_bond_distance
_geom_bond_site_symmetry_2
_ccdc_geom_bond_type
Fe0 O2 1.919 . S
Fe0 O5 1.997 . S
Fe0 O6 2.002 1_455 S
Fe0 O11 1.976 1_455 S
Fe0 O14 1.996 . S
Fe1 O2 1.887 1_655 S
Fe1 O9 1.997 . S
Fe1 O12 1.996 . S
Fe1 O16 1.976 . S
Fe1 O19 2.002 . S
O2 Fe0 1.919 . S
O2 Fe1 1.887 1_455 S
O2 Fe3 1.949 . S
Fe3 O2 1.949 . S
Fe3 O4 2.002 . S
Fe3 O13 1.976 . S
Fe3 O17 1.996 . S
Fe3 O20 1.997 . S
O4 Fe3 2.002 . S
O4 C21 1.295 . S
O5 Fe0 1.997 . S
O5 C21 1.235 . S
O6 Fe0 2.002 1_655 S
O6 C7 1.295 . S
C7 O6 1.295 . S
C7 O9 1.235 . S
C8 O13 1.287 . S
C8 O14 1.255 . S
O9 Fe1 1.997 . S
O9 C7 1.235 . S
C10 O16 1.287 1_455 S
C10 O17 1.255 . S
O11 Fe0 1.976 1_655 S
O11 C18 1.287 . S
O12 Fe1 1.996 . S
O12 C18 1.255 . S
O13 Fe3 1.976 . S
O13 C8 1.287 . S
O14 Fe0 1.996 . S
O14 C8 1.255 . S
C15 O19 1.296 1_455 S
C15 O20 1.234 . S
O16 Fe1 1.976 . S
O16 C10 1.287 1_655 S
O17 Fe3 1.996 . S
O17 C10 1.255 . S
C18 O11 1.287 . S
C18 O12 1.255 . S
O19 Fe1 2.002 . S
O19 C15 1.296 1_655 S
O20 Fe3 1.997 . S
O20 C15 1.234 . S
C21 O4 1.295 . S
C21 O5 1.235 . S
Fe22 O24 1.949 . S
Fe22 O27 1.997 . S
Fe22 O28 2.002 . S
Fe22 O33 1.976 . S
Fe22 O36 1.996 . S
Fe23 O24 1.887 1_565 S
Fe23 O31 1.997 . S
Fe23 O34 1.996 . S
Fe23 O38 1.976 . S
Fe23 O41 2.002 . S
O24 Fe22 1.949 . S
O24 Fe23 1.887 1_545 S
O24 Fe25 1.918 . S
Fe25 O24 1.918 . S
Fe25 O26 2.019 . S
Fe25 O35 1.992 . S
Fe25 O39 1.979 1_545 S
Fe25 O42 1.980 1_545 S
O26 Fe25 2.019 . S
O26 C43 1.295 . S
O27 Fe22 1.997 . S
O27 C43 1.235 . S
O28 Fe22 2.002 . S
O28 C29 1.295 . S
C29 O28 1.295 . S
C29 O31 1.235 1_545 S
C30 O35 1.287 . S
C30 O36 1.255 . S
O31 Fe23 1.997 . S
O31 C29 1.235 1_565 S
C32 O38 1.287 . S
C32 O39 1.255 . S
O33 Fe22 1.976 . S
O33 C40 1.282 . S
O34 Fe23 1.996 . S
O34 C40 1.259 1_565 S
O35 Fe25 1.992 . S
O35 C30 1.287 . S
O36 Fe22 1.996 . S
O36 C30 1.255 . S
C37 O41 1.295 . S
C37 O42 1.235 . S
O38 Fe23 1.976 . S
O38 C32 1.287 . S
O39 Fe25 1.979 1_565 S
O39 C32 1.255 . S
C40 O33 1.282 . S
C40 O34 1.259 1_545 S
O41 Fe23 2.002 . S
O41 C37 1.295 . S
O42 Fe25 1.980 1_565 S
O42 C37 1.235 . S
C43 O26 1.295 . S
C43 O27 1.235 . S
Fe44 O46 1.915 1_655 S
Fe44 O49 1.997 . S
Fe44 O50 2.002 . S
Fe44 O55 1.976 . S
Fe44 O58 1.996 . S
Fe45 O46 1.918 1_655 S
Fe45 O53 1.997 . S
Fe45 O56 1.996 . S
Fe45 O60 1.975 1_655 S
Fe45 O63 2.002 1_655 S
O46 Fe44 1.915 1_455 S
O46 Fe45 1.918 1_455 S
O46 Fe47 1.921 . S
Fe47 O46 1.921 . S
Fe47 O48 2.002 . S
Fe47 O57 1.976 . S
Fe47 O61 1.996 . S
Fe47 O64 1.997 . S
O48 Fe47 2.002 . S
O48 C65 1.331 . S
O49 Fe44 1.997 . S
O49 C65 1.200 1_655 S
O50 Fe44 2.002 . S
O50 C51 1.295 . S
C51 O50 1.295 . S
C51 O53 1.235 . S
C52 O57 1.264 1_655 S
C52 O58 1.277 . S
O53 Fe45 1.997 . S
O53 C51 1.235 . S
C54 O60 1.287 . S
C54 O61 1.255 . S
O55 Fe44 1.976 . S
O55 C62 1.287 . S
O56 Fe45 1.996 . S
O56 C62 1.255 . S
O57 Fe47 1.976 . S
O57 C52 1.264 1_455 S
O58 Fe44 1.996 . S
O58 C52 1.277 . S
C59 O63 1.295 . S
C59 O64 1.235 . S
O60 Fe45 1.975 1_455 S
O60 C54 1.287 . S
O61 Fe47 1.996 . S
O61 C54 1.255 . S
C62 O55 1.287 . S
C62 O56 1.255 . S
O63 Fe45 2.002 1_455 S
O63 C59 1.295 . S
O64 Fe47 1.997 . S
O64 C59 1.235 . S
C65 O48 1.331 . S
C65 O49 1.200 1_455 S
Fe66 O68 1.921 . S
Fe66 O71 1.997 . S
Fe66 O72 2.002 . S
Fe66 O77 1.976 . S
Fe66 O80 1.996 . S
Fe67 O68 1.918 . S
Fe67 O75 2.007 . S
Fe67 O78 2.006 . S
Fe67 O82 1.965 1_545 S
Fe67 O85 1.992 1_545 S
O68 Fe66 1.921 . S
O68 Fe67 1.918 . S
O68 Fe69 1.916 1_545 S
Fe69 O68 1.916 1_565 S
Fe69 O70 2.002 . S
Fe69 O79 1.976 . S
Fe69 O83 1.996 . S
Fe69 O86 1.997 . S
O70 Fe69 2.002 . S
O70 C87 1.315 . S
O71 Fe66 1.997 . S
O71 C87 1.216 1_545 S
O72 Fe66 2.002 . S
O72 C73 1.295 . S
C73 O72 1.295 . S
C73 O75 1.235 . S
C74 O79 1.249 1_545 S
C74 O80 1.294 . S
O75 Fe67 2.007 . S
O75 C73 1.235 . S
C76 O82 1.287 . S
C76 O83 1.255 . S
O77 Fe66 1.976 . S
O77 C84 1.287 . S
O78 Fe67 2.006 . S
O78 C84 1.255 . S
O79 Fe69 1.976 . S
O79 C74 1.249 1_565 S
O80 Fe66 1.996 . S
O80 C74 1.294 . S
C81 O85 1.295 . S
C81 O86 1.235 . S
O82 Fe67 1.965 1_565 S
O82 C76 1.287 . S
O83 Fe69 1.996 . S
O83 C76 1.255 . S
C84 O77 1.287 . S
C84 O78 1.255 . S
O85 Fe67 1.992 1_565 S
O85 C81 1.295 . S
O86 Fe69 1.997 . S
O86 C81 1.235 . S
C87 O70 1.315 . S
C87 O71 1.216 1_565 S
Fe88 O90 1.921 . S
Fe88 O93 1.997 . S
Fe88 O94 2.002 . S
Fe88 O99 1.976 . S
Fe88 O102 1.996 . S
Fe89 O90 1.916 1_655 S
Fe89 O97 1.997 . S
Fe89 O100 1.996 . S
Fe89 O104 1.976 . S
Fe89 O107 2.002 . S
O90 Fe88 1.921 . S
O90 Fe89 1.916 1_455 S
O90 Fe91 1.918 1_455 S
Fe91 O90 1.918 1_655 S
Fe91 O92 2.002 1_655 S
Fe91 O101 1.975 1_655 S
Fe91 O105 1.996 . S
Fe91 O108 1.997 . S
O92 Fe91 2.002 1_455 S
O92 C109 1.295 . S
O93 Fe88 1.997 . S
O93 C109 1.235 . S
O94 Fe88 2.002 . S
O94 C95 1.330 . S
C95 O94 1.330 . S
C95 O97 1.202 1_455 S
C96 O101 1.287 . S
C96 O102 1.255 . S
O97 Fe89 1.997 . S
O97 C95 1.202 1_655 S
C98 O104 1.287 . S
C98 O105 1.255 . S
O99 Fe88 1.976 . S
O99 C106 1.265 1_455 S
O100 Fe89 1.996 . S
O100 C106 1.276 . S
O101 Fe91 1.975 1_455 S
O101 C96 1.287 . S
O102 Fe88 1.996 . S
O102 C96 1.255 . S
C103 O107 1.295 . S
C103 O108 1.235 . S
O104 Fe89 1.976 . S
O104 C98 1.287 . S
O105 Fe91 1.996 . S
O105 C98 1.255 . S
C106 O99 1.265 1_655 S
C106 O100 1.276 . S
O107 Fe89 2.002 . S
O107 C103 1.295 . S
O108 Fe91 1.997 . S
O108 C103 1.235 . S
C109 O92 1.295 . S
C109 O93 1.235 . S
Fe110 O112 1.916 1_565 S
Fe110 O115 1.997 . S
Fe110 O116 2.002 . S
Fe110 O121 1.976 . S
Fe110 O124 1.996 . S
Fe111 O112 1.921 . S
Fe111 O119 1.997 . S
Fe111 O122 1.996 . S
Fe111 O126 1.976 . S
Fe111 O129 2.002 . S
O112 Fe110 1.916 1_545 S
O112 Fe111 1.921 . S
O112 Fe113 1.918 . S
Fe113 O112 1.918 . S
Fe113 O114 1.992 1_545 S
Fe113 O123 1.965 1_545 S
Fe113 O127 2.006 . S
Fe113 O130 2.007 . S
O114 Fe113 1.992 1_565 S
O114 C131 1.295 . S
O115 Fe110 1.997 . S
O115 C131 1.235 . S
O116 Fe110 2.002 . S
O116 C117 1.314 . S
C117 O116 1.314 . S
C117 O119 1.217 1_565 S
C118 O123 1.287 . S
C118 O124 1.255 . S
O119 Fe111 1.997 . S
O119 C117 1.217 1_545 S
C120 O126 1.287 . S
C120 O127 1.255 . S
O121 Fe110 1.976 . S
O121 C128 1.250 1_565 S
O122 Fe111 1.996 . S
O122 C128 1.292 . S
O123 Fe113 1.965 1_565 S
O123 C118 1.287 . S
O124 Fe110 1.996 . S
O124 C118 1.255 . S
C125 O129 1.295 . S
C125 O130 1.235 . S
O126 Fe111 1.976 . S
O126 C120 1.287 . S
O127 Fe113 2.006 . S
O127 C120 1.255 . S
C128 O121 1.250 1_545 S
C128 O122 1.292 . S
O129 Fe111 2.002 . S
O129 C125 1.295 . S
O130 Fe113 2.007 . S
O130 C125 1.235 . S
C131 O114 1.295 . S
C131 O115 1.235 . S
Fe132 O134 1.949 . S
Fe132 O137 1.997 . S
Fe132 O138 2.002 . S
Fe132 O143 1.976 . S
Fe132 O146 1.996 . S
Fe133 O134 1.919 . S
Fe133 O141 1.997 . S
Fe133 O144 1.996 . S
Fe133 O148 1.976 1_455 S
Fe133 O151 2.002 1_455 S
O134 Fe132 1.949 . S
O134 Fe133 1.919 . S
O134 Fe135 1.887 1_455 S
Fe135 O134 1.887 1_655 S
Fe135 O136 2.002 . S
Fe135 O145 1.976 . S
Fe135 O149 1.996 . S
Fe135 O152 1.997 . S
O136 Fe135 2.002 . S
O136 C153 1.295 1_655 S
O137 Fe132 1.997 . S
O137 C153 1.235 . S
O138 Fe132 2.002 . S
O138 C139 1.295 . S
C139 O138 1.295 . S
C139 O141 1.235 . S
C140 O145 1.287 1_455 S
C140 O146 1.255 . S
O141 Fe133 1.997 . S
O141 C139 1.235 . S
C142 O148 1.287 . S
C142 O149 1.255 . S
O143 Fe132 1.976 . S
O143 C150 1.287 . S
O144 Fe133 1.996 . S
O144 C150 1.255 . S
O145 Fe135 1.976 . S
O145 C140 1.287 1_655 S
O146 Fe132 1.996 . S
O146 C140 1.255 . S
C147 O151 1.295 . S
C147 O152 1.235 . S
O148 Fe133 1.976 1_655 S
O148 C142 1.287 . S
O149 Fe135 1.996 . S
O149 C142 1.255 . S
C150 O143 1.287 . S
C150 O144 1.255 . S
O151 Fe133 2.002 1_655 S
O151 C147 1.295 . S
O152 Fe135 1.997 . S
O152 C147 1.235 . S
C153 O136 1.295 1_455 S
C153 O137 1.235 . S
Fe154 O156 1.888 1_565 S
Fe154 O159 1.997 . S
Fe154 O160 2.002 . S
Fe154 O165 1.976 . S
Fe154 O168 1.996 . S
Fe155 O156 1.918 . S
Fe155 O163 1.980 1_545 S
Fe155 O166 1.979 1_545 S
Fe155 O170 1.992 . S
Fe155 O173 2.018 . S
O156 Fe154 1.888 1_545 S
O156 Fe155 1.918 . S
O156 Fe157 1.949 . S
Fe157 O156 1.949 . S
Fe157 O158 2.002 . S
Fe157 O167 1.976 . S
Fe157 O171 1.996 . S
Fe157 O174 1.997 . S
O158 Fe157 2.002 . S
O158 C175 1.295 . S
O159 Fe154 1.997 . S
O159 C175 1.235 1_565 S
O160 Fe154 2.002 . S
O160 C161 1.295 . S
C161 O160 1.295 . S
C161 O163 1.235 . S
C162 O167 1.283 . S
C162 O168 1.258 1_545 S
O163 Fe155 1.980 1_565 S
O163 C161 1.235 . S
C164 O170 1.287 . S
C164 O171 1.255 . S
O165 Fe154 1.976 . S
O165 C172 1.287 . S
O166 Fe155 1.979 1_565 S
O166 C172 1.255 . S
O167 Fe157 1.976 . S
O167 C162 1.283 . S
O168 Fe154 1.996 . S
O168 C162 1.258 1_565 S
C169 O173 1.295 . S
C169 O174 1.235 . S
O170 Fe155 1.992 . S
O170 C164 1.287 . S
O171 Fe157 1.996 . S
O171 C164 1.255 . S
C172 O165 1.287 . S
C172 O166 1.255 . S
O173 Fe155 2.018 . S
O173 C169 1.295 . S
O174 Fe157 1.997 . S
O174 C169 1.235 . S
C175 O158 1.295 . S
C175 O159 1.235 1_545 S
Fe176 O178 1.918 1_556 S
Fe176 O181 1.999 . S
Fe176 O182 2.000 1_556 S
Fe176 O187 1.974 1_556 S
Fe176 O190 1.998 . S
Fe177 O178 1.918 . S
Fe177 O185 1.997 . S
Fe177 O188 1.996 . S
Fe177 O192 1.976 . S
Fe177 O195 2.002 . S
O178 Fe176 1.918 1_554 S
O178 Fe177 1.918 . S
O178 Fe179 1.918 1_554 S
Fe179 O178 1.918 1_556 S
Fe179 O180 2.002 . S
Fe179 O189 1.976 . S
Fe179 O193 1.996 . S
Fe179 O196 1.997 . S
O180 Fe179 2.002 . S
O180 C197 1.295 . S
O181 Fe176 1.999 . S
O181 C197 1.235 . S
O182 Fe176 2.000 1_554 S
O182 C183 1.295 . S
C183 O182 1.295 . S
C183 O185 1.235 . S
C184 O189 1.287 . S
C184 O190 1.255 . S
O185 Fe177 1.997 . S
O185 C183 1.235 . S
C186 O192 1.260 1_556 S
C186 O193 1.282 . S
O187 Fe176 1.974 1_554 S
O187 C194 1.287 . S
O188 Fe177 1.996 . S
O188 C194 1.255 . S
O189 Fe179 1.976 . S
O189 C184 1.287 . S
O190 Fe176 1.998 . S
O190 C184 1.255 . S
C191 O195 1.328 . S
C191 O196 1.203 1_554 S
O192 Fe177 1.976 . S
O192 C186 1.260 1_554 S
O193 Fe179 1.996 . S
O193 C186 1.282 . S
C194 O187 1.287 . S
C194 O188 1.255 . S
O195 Fe177 2.002 . S
O195 C191 1.328 . S
O196 Fe179 1.997 . S
O196 C191 1.203 1_556 S
C197 O180 1.295 . S
C197 O181 1.235 . S
Fe198 O200 1.918 1_556 S
Fe198 O203 1.999 . S
Fe198 O204 2.000 1_556 S
Fe198 O209 1.974 1_556 S
Fe198 O212 1.998 . S
Fe199 O200 1.918 . S
Fe199 O207 1.997 . S
Fe199 O210 1.996 . S
Fe199 O214 1.976 . S
Fe199 O217 2.002 . S
O200 Fe198 1.918 1_554 S
O200 Fe199 1.918 . S
O200 Fe201 1.918 1_554 S
Fe201 O200 1.918 1_556 S
Fe201 O202 2.002 . S
Fe201 O211 1.976 . S
Fe201 O215 1.996 . S
Fe201 O218 1.997 . S
O202 Fe201 2.002 . S
O202 C219 1.295 . S
O203 Fe198 1.999 . S
O203 C219 1.235 . S
O204 Fe198 2.000 1_554 S
O204 C205 1.295 . S
C205 O204 1.295 . S
C205 O207 1.235 . S
C206 O211 1.287 . S
C206 O212 1.255 . S
O207 Fe199 1.997 . S
O207 C205 1.235 . S
C208 O214 1.263 1_556 S
C208 O215 1.279 . S
O209 Fe198 1.974 1_554 S
O209 C216 1.287 . S
O210 Fe199 1.996 . S
O210 C216 1.255 . S
O211 Fe201 1.976 . S
O211 C206 1.287 . S
O212 Fe198 1.998 . S
O212 C206 1.255 . S
C213 O217 1.326 . S
C213 O218 1.206 1_554 S
O214 Fe199 1.976 . S
O214 C208 1.263 1_554 S
O215 Fe201 1.996 . S
O215 C208 1.279 . S
C216 O209 1.287 . S
C216 O210 1.255 . S
O217 Fe199 2.002 . S
O217 C213 1.326 . S
O218 Fe201 1.997 . S
O218 C213 1.206 1_556 S
C219 O202 1.295 . S
C219 O203 1.235 . S
Fe220 O222 1.918 . S
Fe220 O225 1.997 . S
Fe220 O226 2.002 . S
Fe220 O231 1.976 . S
Fe220 O234 1.996 . S
Fe221 O222 1.918 1_556 S
Fe221 O229 1.997 . S
Fe221 O232 1.996 . S
Fe221 O236 1.976 . S
Fe221 O239 2.002 . S
O222 Fe220 1.918 . S
O222 Fe221 1.918 1_554 S
O222 Fe223 1.918 1_554 S
Fe223 O222 1.918 1_556 S
Fe223 O224 2.000 1_556 S
Fe223 O233 1.974 1_556 S
Fe223 O237 1.998 . S
Fe223 O240 1.999 . S
O224 Fe223 2.000 1_554 S
O224 C241 1.295 . S
O225 Fe220 1.997 . S
O225 C241 1.235 . S
O226 Fe220 2.002 . S
O226 C227 1.326 . S
C227 O226 1.326 . S
C227 O229 1.206 1_554 S
C228 O233 1.287 . S
C228 O234 1.255 . S
O229 Fe221 1.997 . S
O229 C227 1.206 1_556 S
C230 O236 1.287 . S
C230 O237 1.255 . S
O231 Fe220 1.976 . S
O231 C238 1.263 1_554 S
O232 Fe221 1.996 . S
O232 C238 1.279 . S
O233 Fe223 1.974 1_554 S
O233 C228 1.287 . S
O234 Fe220 1.996 . S
O234 C228 1.255 . S
C235 O239 1.295 . S
C235 O240 1.235 . S
O236 Fe221 1.976 . S
O236 C230 1.287 . S
O237 Fe223 1.998 . S
O237 C230 1.255 . S
C238 O231 1.263 1_556 S
C238 O232 1.279 . S
O239 Fe221 2.002 . S
O239 C235 1.295 . S
O240 Fe223 1.999 . S
O240 C235 1.235 . S
C241 O224 1.295 . S
C241 O225 1.235 . S
Fe242 O244 1.918 1_556 S
Fe242 O247 1.997 . S
Fe242 O248 2.002 . S
Fe242 O253 1.976 . S
Fe242 O256 1.996 . S
Fe243 O244 1.918 1_556 S
Fe243 O251 1.999 . S
Fe243 O254 1.998 . S
Fe243 O258 1.974 1_556 S
Fe243 O261 2.000 1_556 S
O244 Fe242 1.918 1_554 S
O244 Fe243 1.918 1_554 S
O244 Fe245 1.918 . S
Fe245 O244 1.918 . S
Fe245 O246 2.002 . S
Fe245 O255 1.976 . S
Fe245 O259 1.996 . S
Fe245 O262 1.997 . S
O246 Fe245 2.002 . S
O246 C263 1.328 . S
O247 Fe242 1.997 . S
O247 C263 1.203 1_556 S
O248 Fe242 2.002 . S
O248 C249 1.295 . S
C249 O248 1.295 . S
C249 O251 1.235 . S
C250 O255 1.260 1_556 S
C250 O256 1.282 . S
O251 Fe243 1.999 . S
O251 C249 1.235 . S
C252 O258 1.287 . S
C252 O259 1.255 . S
O253 Fe242 1.976 . S
O253 C260 1.287 . S
O254 Fe243 1.998 . S
O254 C260 1.255 . S
O255 Fe245 1.976 . S
O255 C250 1.260 1_554 S
O256 Fe242 1.996 . S
O256 C250 1.282 . S
C257 O261 1.295 . S
C257 O262 1.235 . S
O258 Fe243 1.974 1_554 S
O258 C252 1.287 . S
O259 Fe245 1.996 . S
O259 C252 1.255 . S
C260 O253 1.287 . S
C260 O254 1.255 . S
O261 Fe243 2.000 1_554 S
O261 C257 1.295 . S
O262 Fe245 1.997 . S
O262 C257 1.235 . S
C263 O246 1.328 . S
C263 O247 1.203 1_554 S
Fe264 O266 1.918 . S
Fe264 O269 1.997 . S
Fe264 O270 2.002 . S
Fe264 O275 1.976 . S
Fe264 O278 1.996 . S
Fe265 O266 1.918 . S
Fe265 O273 1.997 . S
Fe265 O276 1.996 . S
Fe265 O280 1.976 . S
Fe265 O283 2.002 . S
O266 Fe264 1.918 . S
O266 Fe265 1.918 . S
O266 Fe267 1.918 . S
Fe267 O266 1.918 . S
Fe267 O268 2.002 . S
Fe267 O277 1.976 . S
Fe267 O281 1.996 . S
Fe267 O284 1.997 . S
O268 Fe267 2.002 . S
O268 C285 1.295 . S
O269 Fe264 1.997 . S
O269 C285 1.235 . S
O270 Fe264 2.002 . S
O270 C271 1.295 . S
C271 O270 1.295 . S
C271 O273 1.235 . S
C272 O277 1.287 . S
C272 O278 1.255 . S
O273 Fe265 1.997 . S
O273 C271 1.235 . S
C274 O280 1.287 . S
C274 O281 1.255 . S
O275 Fe264 1.976 . S
O275 C282 1.287 . S
O276 Fe265 1.996 . S
O276 C282 1.255 . S
O277 Fe267 1.976 . S
O277 C272 1.287 . S
O278 Fe264 1.996 . S
O278 C272 1.255 . S
C279 O283 1.295 . S
C279 O284 1.235 . S
O280 Fe265 1.976 . S
O280 C274 1.287 . S
O281 Fe267 1.996 . S
O281 C274 1.255 . S
C282 O275 1.287 . S
C282 O276 1.255 . S
O283 Fe265 2.002 . S
O283 C279 1.295 . S
O284 Fe267 1.997 . S
O284 C279 1.235 . S
C285 O268 1.295 . S
C285 O269 1.235 . S
Fe286 O288 1.918 . S
Fe286 O291 1.997 . S
Fe286 O292 2.002 . S
Fe286 O297 1.976 . S
Fe286 O300 1.996 . S
Fe287 O288 1.918 . S
Fe287 O295 1.997 . S
Fe287 O298 1.996 . S
Fe287 O302 1.976 . S
Fe287 O305 2.002 . S
O288 Fe286 1.918 . S
O288 Fe287 1.918 . S
O288 Fe289 1.918 . S
Fe289 O288 1.918 . S
Fe289 O290 2.002 . S
Fe289 O299 1.976 . S
Fe289 O303 1.996 . S
Fe289 O306 1.997 . S
O290 Fe289 2.002 . S
O290 C307 1.295 . S
O291 Fe286 1.997 . S
O291 C307 1.235 . S
O292 Fe286 2.002 . S
O292 C293 1.295 . S
C293 O292 1.295 . S
C293 O295 1.235 . S
C294 O299 1.287 . S
C294 O300 1.255 . S
O295 Fe287 1.997 . S
O295 C293 1.235 . S
C296 O302 1.287 . S
C296 O303 1.255 . S
O297 Fe286 1.976 . S
O297 C304 1.287 . S
O298 Fe287 1.996 . S
O298 C304 1.255 . S
O299 Fe289 1.976 . S
O299 C294 1.287 . S
O300 Fe286 1.996 . S
O300 C294 1.255 . S
C301 O305 1.295 . S
C301 O306 1.235 . S
O302 Fe287 1.976 . S
O302 C296 1.287 . S
O303 Fe289 1.996 . S
O303 C296 1.255 . S
C304 O297 1.287 . S
C304 O298 1.255 . S
O305 Fe287 2.002 . S
O305 C301 1.295 . S
O306 Fe289 1.997 . S
O306 C301 1.235 . S
C307 O290 1.295 . S
C307 O291 1.235 . S
Fe308 O310 1.918 . S
Fe308 O313 1.997 . S
Fe308 O314 2.002 . S
Fe308 O319 1.976 . S
Fe308 O322 1.996 . S
Fe309 O310 1.918 . S
Fe309 O317 1.997 . S
Fe309 O320 1.996 . S
Fe309 O324 1.976 . S
Fe309 O327 2.002 . S
O310 Fe308 1.918 . S
O310 Fe309 1.918 . S
O310 Fe311 1.918 . S
Fe311 O310 1.918 . S
Fe311 O312 2.002 . S
Fe311 O321 1.976 . S
Fe311 O325 1.996 . S
Fe311 O328 1.997 . S
O312 Fe311 2.002 . S
O312 C329 1.295 . S
O313 Fe308 1.997 . S
O313 C329 1.235 . S
O314 Fe308 2.002 . S
O314 C315 1.295 . S
C315 O314 1.295 . S
C315 O317 1.235 . S
C316 O321 1.287 . S
C316 O322 1.255 . S
O317 Fe309 1.997 . S
O317 C315 1.235 . S
C318 O324 1.287 . S
C318 O325 1.255 . S
O319 Fe308 1.976 . S
O319 C326 1.287 . S
O320 Fe309 1.996 . S
O320 C326 1.255 . S
O321 Fe311 1.976 . S
O321 C316 1.287 . S
O322 Fe308 1.996 . S
O322 C316 1.255 . S
C323 O327 1.295 . S
C323 O328 1.235 . S
O324 Fe309 1.976 . S
O324 C318 1.287 . S
O325 Fe311 1.996 . S
O325 C318 1.255 . S
C326 O319 1.287 . S
C326 O320 1.255 . S
O327 Fe309 2.002 . S
O327 C323 1.295 . S
O328 Fe311 1.997 . S
O328 C323 1.235 . S
C329 O312 1.295 . S
C329 O313 1.235 . S
Fe330 O332 1.918 . S
Fe330 O335 1.997 . S
Fe330 O336 2.002 . S
Fe330 O341 1.976 . S
Fe330 O344 1.996 . S
Fe331 O332 1.918 . S
Fe331 O339 1.997 . S
Fe331 O342 1.996 . S
Fe331 O346 1.976 . S
Fe331 O349 2.002 . S
O332 Fe330 1.918 . S
O332 Fe331 1.918 . S
O332 Fe333 1.918 . S
Fe333 O332 1.918 . S
Fe333 O334 2.002 . S
Fe333 O343 1.976 . S
Fe333 O347 1.996 . S
Fe333 O350 1.997 . S
O334 Fe333 2.002 . S
O334 C351 1.295 . S
O335 Fe330 1.997 . S
O335 C351 1.235 . S
O336 Fe330 2.002 . S
O336 C337 1.295 . S
C337 O336 1.295 . S
C337 O339 1.235 . S
C338 O343 1.287 . S
C338 O344 1.255 . S
O339 Fe331 1.997 . S
O339 C337 1.235 . S
C340 O346 1.287 . S
C340 O347 1.255 . S
O341 Fe330 1.976 . S
O341 C348 1.287 . S
O342 Fe331 1.996 . S
O342 C348 1.255 . S
O343 Fe333 1.976 . S
O343 C338 1.287 . S
O344 Fe330 1.996 . S
O344 C338 1.255 . S
C345 O349 1.295 . S
C345 O350 1.235 . S
O346 Fe331 1.976 . S
O346 C340 1.287 . S
O347 Fe333 1.996 . S
O347 C340 1.255 . S
C348 O341 1.287 . S
C348 O342 1.255 . S
O349 Fe331 2.002 . S
O349 C345 1.295 . S
O350 Fe333 1.997 . S
O350 C345 1.235 . S
C351 O334 1.295 . S
C351 O335 1.235 . S
Fe352 O354 1.918 . S
Fe352 O357 1.997 . S
Fe352 O358 2.002 . S
Fe352 O363 1.976 . S
Fe352 O366 1.996 . S
Fe353 O354 1.918 . S
Fe353 O361 1.997 . S
Fe353 O364 1.996 . S
Fe353 O368 1.976 . S
Fe353 O371 2.002 . S
O354 Fe352 1.918 . S
O354 Fe353 1.918 . S
O354 Fe355 1.918 . S
Fe355 O354 1.918 . S
Fe355 O356 2.002 . S
Fe355 O365 1.976 . S
Fe355 O369 1.996 . S
Fe355 O372 1.997 . S
O356 Fe355 2.002 . S
O356 C373 1.295 . S
O357 Fe352 1.997 . S
O357 C373 1.235 . S
O358 Fe352 2.002 . S
O358 C359 1.295 . S
C359 O358 1.295 . S
C359 O361 1.235 . S
C360 O365 1.287 . S
C360 O366 1.255 . S
O361 Fe353 1.997 . S
O361 C359 1.235 . S
C362 O368 1.287 . S
C362 O369 1.255 . S
O363 Fe352 1.976 . S
O363 C370 1.287 . S
O364 Fe353 1.996 . S
O364 C370 1.255 . S
O365 Fe355 1.976 . S
O365 C360 1.287 . S
O366 Fe352 1.996 . S
O366 C360 1.255 . S
C367 O371 1.295 . S
C367 O372 1.235 . S
O368 Fe353 1.976 . S
O368 C362 1.287 . S
O369 Fe355 1.996 . S
O369 C362 1.255 . S
C370 O363 1.287 . S
C370 O364 1.255 . S
O371 Fe353 2.002 . S
O371 C367 1.295 . S
O372 Fe355 1.997 . S
O372 C367 1.235 . S
C373 O356 1.295 . S
C373 O357 1.235 . S
Fe374 O376 1.918 . S
Fe374 O379 1.997 . S
Fe374 O380 2.002 . S
Fe374 O385 1.976 . S
Fe374 O388 1.996 . S
Fe375 O376 1.918 . S
Fe375 O383 1.997 . S
Fe375 O386 1.996 . S
Fe375 O390 1.976 . S
Fe375 O393 2.002 . S
O376 Fe374 1.918 . S
O376 Fe375 1.918 . S
O376 Fe377 1.918 . S
Fe377 O376 1.918 . S
Fe377 O378 2.002 . S
Fe377 O387 1.976 . S
Fe377 O391 1.996 . S
Fe377 O394 1.997 . S
O378 Fe377 2.002 . S
O378 C395 1.295 . S
O379 Fe374 1.997 . S
O379 C395 1.235 . S
O380 Fe374 2.002 . S
O380 C381 1.295 . S
C381 O380 1.295 . S
C381 O383 1.235 . S
C382 O387 1.287 . S
C382 O388 1.255 . S
O383 Fe375 1.997 . S
O383 C381 1.235 . S
C384 O390 1.287 . S
C384 O391 1.255 . S
O385 Fe374 1.976 . S
O385 C392 1.287 . S
O386 Fe375 1.996 . S
O386 C392 1.255 . S
O387 Fe377 1.976 . S
O387 C382 1.287 . S
O388 Fe374 1.996 . S
O388 C382 1.255 . S
C389 O393 1.295 . S
C389 O394 1.235 . S
O390 Fe375 1.976 . S
O390 C384 1.287 . S
O391 Fe377 1.996 . S
O391 C384 1.255 . S
C392 O385 1.287 . S
C392 O386 1.255 . S
O393 Fe375 2.002 . S
O393 C389 1.295 . S
O394 Fe377 1.997 . S
O394 C389 1.235 . S
C395 O378 1.295 . S
C395 O379 1.235 . S
Fe396 O398 1.918 . S
Fe396 O401 1.997 . S
Fe396 O402 2.002 . S
Fe396 O407 1.976 . S
Fe396 O410 1.996 . S
Fe397 O398 1.918 . S
Fe397 O405 1.997 . S
Fe397 O408 1.996 . S
Fe397 O412 1.976 . S
Fe397 O415 2.002 . S
O398 Fe396 1.918 . S
O398 Fe397 1.918 . S
O398 Fe399 1.918 . S
Fe399 O398 1.918 . S
Fe399 O400 2.002 . S
Fe399 O409 1.976 . S
Fe399 O413 1.996 . S
Fe399 O416 1.997 . S
O400 Fe399 2.002 . S
O400 C417 1.295 . S
O401 Fe396 1.997 . S
O401 C417 1.235 . S
O402 Fe396 2.002 . S
O402 C403 1.295 . S
C403 O402 1.295 . S
C403 O405 1.235 . S
C404 O409 1.287 . S
C404 O410 1.255 . S
O405 Fe397 1.997 . S
O405 C403 1.235 . S
C406 O412 1.287 . S
C406 O413 1.255 . S
O407 Fe396 1.976 . S
O407 C414 1.287 . S
O408 Fe397 1.996 . S
O408 C414 1.255 . S
O409 Fe399 1.976 . S
O409 C404 1.287 . S
O410 Fe396 1.996 . S
O410 C404 1.255 . S
C411 O415 1.295 . S
C411 O416 1.235 . S
O412 Fe397 1.976 . S
O412 C406 1.287 . S
O413 Fe399 1.996 . S
O413 C406 1.255 . S
C414 O407 1.287 . S
C414 O408 1.255 . S
O415 Fe397 2.002 . S
O415 C411 1.295 . S
O416 Fe399 1.997 . S
O416 C411 1.235 . S
C417 O400 1.295 . S
C417 O401 1.235 . S
Fe418 O420 1.918 . S
Fe418 O423 1.997 . S
Fe418 O424 2.002 . S
Fe418 O429 1.976 . S
Fe418 O432 1.996 . S
Fe419 O420 1.918 . S
Fe419 O427 1.997 . S
Fe419 O430 1.996 . S
Fe419 O434 1.976 . S
Fe419 O437 2.002 . S
O420 Fe418 1.918 . S
O420 Fe419 1.918 . S
O420 Fe421 1.918 . S
Fe421 O420 1.918 . S
Fe421 O422 2.002 . S
Fe421 O431 1.976 . S
Fe421 O435 1.996 . S
Fe421 O438 1.997 . S
O422 Fe421 2.002 . S
O422 C439 1.295 . S
O423 Fe418 1.997 . S
O423 C439 1.235 . S
O424 Fe418 2.002 . S
O424 C425 1.295 . S
C425 O424 1.295 . S
C425 O427 1.235 . S
C426 O431 1.287 . S
C426 O432 1.255 . S
O427 Fe419 1.997 . S
O427 C425 1.235 . S
C428 O434 1.287 . S
C428 O435 1.255 . S
O429 Fe418 1.976 . S
O429 C436 1.287 . S
O430 Fe419 1.996 . S
O430 C436 1.255 . S
O431 Fe421 1.976 . S
O431 C426 1.287 . S
O432 Fe418 1.996 . S
O432 C426 1.255 . S
C433 O437 1.295 . S
C433 O438 1.235 . S
O434 Fe419 1.976 . S
O434 C428 1.287 . S
O435 Fe421 1.996 . S
O435 C428 1.255 . S
C436 O429 1.287 . S
C436 O430 1.255 . S
O437 Fe419 2.002 . S
O437 C433 1.295 . S
O438 Fe421 1.997 . S
O438 C433 1.235 . S
C439 O422 1.295 . S
C439 O423 1.235 . S
Fe440 O442 1.918 . S
Fe440 O445 1.997 . S
Fe440 O446 2.002 . S
Fe440 O451 1.976 . S
Fe440 O454 1.996 . S
Fe441 O442 1.918 . S
Fe441 O449 1.997 . S
Fe441 O452 1.996 . S
Fe441 O456 1.976 . S
Fe441 O459 2.002 . S
O442 Fe440 1.918 . S
O442 Fe441 1.918 . S
O442 Fe443 1.918 . S
Fe443 O442 1.918 . S
Fe443 O444 2.002 . S
Fe443 O453 1.976 . S
Fe443 O457 1.996 . S
Fe443 O460 1.997 . S
O444 Fe443 2.002 . S
O444 C461 1.295 . S
O445 Fe440 1.997 . S
O445 C461 1.235 . S
O446 Fe440 2.002 . S
O446 C447 1.295 . S
C447 O446 1.295 . S
C447 O449 1.235 . S
C448 O453 1.287 . S
C448 O454 1.255 . S
O449 Fe441 1.997 . S
O449 C447 1.235 . S
C450 O456 1.287 . S
C450 O457 1.255 . S
O451 Fe440 1.976 . S
O451 C458 1.287 . S
O452 Fe441 1.996 . S
O452 C458 1.255 . S
O453 Fe443 1.976 . S
O453 C448 1.287 . S
O454 Fe440 1.996 . S
O454 C448 1.255 . S
C455 O459 1.295 . S
C455 O460 1.235 . S
O456 Fe441 1.976 . S
O456 C450 1.287 . S
O457 Fe443 1.996 . S
O457 C450 1.255 . S
C458 O451 1.287 . S
C458 O452 1.255 . S
O459 Fe441 2.002 . S
O459 C455 1.295 . S
O460 Fe443 1.997 . S
O460 C455 1.235 . S
C461 O444 1.295 . S
C461 O445 1.235 . S
Fe462 O464 1.918 . S
Fe462 O467 1.997 . S
Fe462 O468 2.002 . S
Fe462 O473 1.976 . S
Fe462 O476 1.996 . S
Fe463 O464 1.918 . S
Fe463 O471 1.997 . S
Fe463 O474 1.996 . S
Fe463 O478 1.976 . S
Fe463 O481 2.002 . S
O464 Fe462 1.918 . S
O464 Fe463 1.918 . S
O464 Fe465 1.918 . S
Fe465 O464 1.918 . S
Fe465 O466 2.002 . S
Fe465 O475 1.976 . S
Fe465 O479 1.996 . S
Fe465 O482 1.997 . S
O466 Fe465 2.002 . S
O466 C483 1.295 . S
O467 Fe462 1.997 . S
O467 C483 1.235 . S
O468 Fe462 2.002 . S
O468 C469 1.295 . S
C469 O468 1.295 . S
C469 O471 1.235 . S
C470 O475 1.287 . S
C470 O476 1.255 . S
O471 Fe463 1.997 . S
O471 C469 1.235 . S
C472 O478 1.287 . S
C472 O479 1.255 . S
O473 Fe462 1.976 . S
O473 C480 1.287 . S
O474 Fe463 1.996 . S
O474 C480 1.255 . S
O475 Fe465 1.976 . S
O475 C470 1.287 . S
O476 Fe462 1.996 . S
O476 C470 1.255 . S
C477 O481 1.295 . S
C477 O482 1.235 . S
O478 Fe463 1.976 . S
O478 C472 1.287 . S
O479 Fe465 1.996 . S
O479 C472 1.255 . S
C480 O473 1.287 . S
C480 O474 1.255 . S
O481 Fe463 2.002 . S
O481 C477 1.295 . S
O482 Fe465 1.997 . S
O482 C477 1.235 . S
C483 O466 1.295 . S
C483 O467 1.235 . S
Fe484 O486 1.918 . S
Fe484 O489 1.997 . S
Fe484 O490 2.002 . S
Fe484 O495 1.976 . S
Fe484 O498 1.996 . S
Fe485 O486 1.918 . S
Fe485 O493 1.997 . S
Fe485 O496 1.996 . S
Fe485 O500 1.976 . S
Fe485 O503 2.002 . S
O486 Fe484 1.918 . S
O486 Fe485 1.918 . S
O486 Fe487 1.918 . S
Fe487 O486 1.918 . S
Fe487 O488 2.002 . S
Fe487 O497 1.976 . S
Fe487 O501 1.996 . S
Fe487 O504 1.997 . S
O488 Fe487 2.002 . S
O488 C505 1.295 . S
O489 Fe484 1.997 . S
O489 C505 1.235 . S
O490 Fe484 2.002 . S
O490 C491 1.295 . S
C491 O490 1.295 . S
C491 O493 1.235 . S
C492 O497 1.287 . S
C492 O498 1.255 . S
O493 Fe485 1.997 . S
O493 C491 1.235 . S
C494 O500 1.287 . S
C494 O501 1.255 . S
O495 Fe484 1.976 . S
O495 C502 1.287 . S
O496 Fe485 1.996 . S
O496 C502 1.255 . S
O497 Fe487 1.976 . S
O497 C492 1.287 . S
O498 Fe484 1.996 . S
O498 C492 1.255 . S
C499 O503 1.295 . S
C499 O504 1.235 . S
O500 Fe485 1.976 . S
O500 C494 1.287 . S
O501 Fe487 1.996 . S
O501 C494 1.255 . S
C502 O495 1.287 . S
C502 O496 1.255 . S
O503 Fe485 2.002 . S
O503 C499 1.295 . S
O504 Fe487 1.997 . S
O504 C499 1.235 . S
C505 O488 1.295 . S
C505 O489 1.235 . S
Fe506 O508 1.918 . S
Fe506 O511 1.997 . S
Fe506 O512 2.002 . S
Fe506 O517 1.976 . S
Fe506 O520 1.996 . S
Fe507 O508 1.918 . S
Fe507 O515 1.997 . S
Fe507 O518 1.996 . S
Fe507 O522 1.976 . S
Fe507 O525 2.002 . S
O508 Fe506 1.918 . S
O508 Fe507 1.918 . S
O508 Fe509 1.918 . S
Fe509 O508 1.918 . S
Fe509 O510 2.002 . S
Fe509 O519 1.976 . S
Fe509 O523 1.996 . S
Fe509 O526 1.997 . S
O510 Fe509 2.002 . S
O510 C527 1.295 . S
O511 Fe506 1.997 . S
O511 C527 1.235 . S
O512 Fe506 2.002 . S
O512 C513 1.295 . S
C513 O512 1.295 . S
C513 O515 1.235 . S
C514 O519 1.287 . S
C514 O520 1.255 . S
O515 Fe507 1.997 . S
O515 C513 1.235 . S
C516 O522 1.287 . S
C516 O523 1.255 . S
O517 Fe506 1.976 . S
O517 C524 1.287 . S
O518 Fe507 1.996 . S
O518 C524 1.255 . S
O519 Fe509 1.976 . S
O519 C514 1.287 . S
O520 Fe506 1.996 . S
O520 C514 1.255 . S
C521 O525 1.295 . S
C521 O526 1.235 . S
O522 Fe507 1.976 . S
O522 C516 1.287 . S
O523 Fe509 1.996 . S
O523 C516 1.255 . S
C524 O517 1.287 . S
C524 O518 1.255 . S
O525 Fe507 2.002 . S
O525 C521 1.295 . S
O526 Fe509 1.997 . S
O526 C521 1.235 . S
C527 O510 1.295 . S
C527 O511 1.235 . S
H528 C536 0.950 . S
H529 C541 0.950 . S
H530 C538 0.950 . S
H531 C540 0.950 . S
H532 C542 0.950 . S
H533 C544 0.950 . S
H534 C546 0.950 . S
H535 C547 0.950 . S
C536 H528 0.950 . S
C536 C537 1.386 1_655 S
C536 C538 1.391 . S
C537 C536 1.386 1_455 S
C537 C541 1.393 . S
C538 H530 0.950 . S
C538 C536 1.391 . S
C538 C539 1.368 1_655 S
C539 C538 1.368 1_455 S
C539 C540 1.431 . S
C539 C545 1.491 . S
C540 H531 0.950 . S
C540 C539 1.431 . S
C540 C541 1.391 . S
C541 H529 0.950 . S
C541 C537 1.393 . S
C541 C540 1.391 . S
C542 H532 0.950 . S
C542 C543 1.404 . S
C542 C544 1.391 . S
C543 C542 1.404 . S
C543 C547 1.375 1_455 S
C544 H533 0.950 . S
C544 C542 1.391 . S
C544 C545 1.428 . S
C545 C539 1.491 . S
C545 C544 1.428 . S
C545 C546 1.371 1_455 S
C546 H534 0.950 . S
C546 C545 1.371 1_655 S
C546 C547 1.391 . S
C547 H535 0.950 . S
C547 C543 1.375 1_655 S
C547 C546 1.391 . S
H548 C556 0.950 . S
H549 C561 0.950 . S
H550 C558 0.950 . S
H551 C560 0.950 . S
H552 C562 0.950 . S
H553 C564 0.950 . S
H554 C566 0.950 . S
H555 C567 0.950 . S
C556 H548 0.950 . S
C556 C557 1.386 . S
C556 C558 1.391 . S
C557 C556 1.386 . S
C557 C561 1.393 1_545 S
C558 H550 0.950 . S
C558 C556 1.391 . S
C558 C559 1.432 . S
C559 C558 1.432 . S
C559 C560 1.367 1_545 S
C559 C565 1.491 . S
C560 H551 0.950 . S
C560 C559 1.367 1_565 S
C560 C561 1.391 . S
C561 H549 0.950 . S
C561 C557 1.393 1_565 S
C561 C560 1.391 . S
C562 H552 0.950 . S
C562 C563 1.364 1_565 S
C562 C564 1.391 . S
C563 C562 1.364 1_545 S
C563 C567 1.415 . S
C564 H553 0.950 . S
C564 C562 1.391 . S
C564 C565 1.372 1_565 S
C565 C559 1.491 . S
C565 C564 1.372 1_545 S
C565 C566 1.427 . S
C566 H554 0.950 . S
C566 C565 1.427 . S
C566 C567 1.391 . S
C567 H555 0.950 . S
C567 C563 1.415 . S
C567 C566 1.391 . S
H568 C576 0.950 . S
H569 C581 0.950 . S
H570 C578 0.950 . S
H571 C580 0.950 . S
H572 C582 0.950 . S
H573 C584 0.950 . S
H574 C586 0.950 . S
H575 C587 0.950 . S
C576 H568 0.950 . S
C576 C577 1.386 1_655 S
C576 C578 1.391 . S
C577 C576 1.386 1_455 S
C577 C581 1.392 . S
C578 H570 0.950 . S
C578 C576 1.391 . S
C578 C579 1.403 1_655 S
C579 C578 1.403 1_455 S
C579 C580 1.396 . S
C579 C585 1.491 . S
C580 H571 0.950 . S
C580 C579 1.396 . S
C580 C581 1.391 . S
C581 H569 0.950 . S
C581 C577 1.392 . S
C581 C580 1.391 . S
C582 H572 0.950 . S
C582 C583 1.391 . S
C582 C584 1.391 . S
C583 C582 1.391 . S
C583 C587 1.387 1_455 S
C584 H573 0.950 . S
C584 C582 1.391 . S
C584 C585 1.408 . S
C585 C579 1.491 . S
C585 C584 1.408 . S
C585 C586 1.391 1_455 S
C586 H574 0.950 . S
C586 C585 1.391 1_655 S
C586 C587 1.391 . S
C587 H575 0.950 . S
C587 C583 1.387 1_655 S
C587 C586 1.391 . S
H588 C596 0.950 . S
H589 C601 0.950 . S
H590 C598 0.950 . S
H591 C600 0.950 . S
H592 C602 0.950 . S
H593 C604 0.950 . S
H594 C606 0.950 . S
H595 C607 0.950 . S
C596 H588 0.950 . S
C596 C597 1.396 . S
C596 C598 1.391 . S
C597 C596 1.396 . S
C597 C601 1.384 1_545 S
C598 H590 0.950 . S
C598 C596 1.391 . S
C598 C599 1.407 . S
C599 C598 1.407 . S
C599 C600 1.392 1_545 S
C599 C605 1.490 1_545 S
C600 H591 0.950 . S
C600 C599 1.392 1_565 S
C600 C601 1.391 . S
C601 H589 0.950 . S
C601 C597 1.384 1_565 S
C601 C600 1.391 . S
C602 H592 0.950 . S
C602 C603 1.391 . S
C602 C604 1.391 . S
C603 C602 1.391 . S
C603 C607 1.388 1_565 S
C604 H593 0.950 . S
C604 C602 1.391 . S
C604 C605 1.402 . S
C605 C599 1.490 1_565 S
C605 C604 1.402 . S
C605 C606 1.397 1_565 S
C606 H594 0.950 . S
C606 C605 1.397 1_545 S
C606 C607 1.391 . S
C607 H595 0.950 . S
C607 C603 1.388 1_545 S
C607 C606 1.391 . S
H608 C616 0.950 . S
H609 C621 0.950 . S
H610 C618 0.950 . S
H611 C620 0.950 . S
H612 C622 0.950 . S
H613 C624 0.950 . S
H614 C626 0.950 . S
H615 C627 0.950 . S
C616 H608 0.950 . S
C616 C617 1.381 1_545 S
C616 C618 1.391 . S
C617 C616 1.381 1_565 S
C617 C621 1.398 . S
C618 H610 0.950 . S
C618 C616 1.391 . S
C618 C619 1.401 . S
C619 C618 1.401 . S
C619 C620 1.398 1_545 S
C619 C625 1.490 . S
C620 H611 0.950 . S
C620 C619 1.398 1_565 S
C620 C621 1.391 . S
C621 H609 0.950 . S
C621 C617 1.398 . S
C621 C620 1.391 . S
C622 H612 0.950 . S
C622 C623 1.386 1_565 S
C622 C624 1.391 . S
C623 C622 1.386 1_545 S
C623 C627 1.393 . S
C624 H613 0.950 . S
C624 C622 1.391 . S
C624 C625 1.376 1_565 S
C625 C619 1.490 . S
C625 C624 1.376 1_545 S
C625 C626 1.424 . S
C626 H614 0.950 . S
C626 C625 1.424 . S
C626 C627 1.391 . S
C627 H615 0.950 . S
C627 C623 1.393 . S
C627 C626 1.391 . S
H628 C636 0.950 . S
H629 C641 0.950 . S
H630 C638 0.950 . S
H631 C640 0.950 . S
H632 C642 0.952 . S
H633 C644 0.950 . S
H634 C646 0.950 . S
H635 C647 0.950 . S
C636 H628 0.950 . S
C636 C637 1.384 1_455 S
C636 C638 1.391 . S
C637 C636 1.384 1_655 S
C637 C641 1.395 . S
C638 H630 0.950 . S
C638 C636 1.391 . S
C638 C639 1.400 1_455 S
C639 C638 1.400 1_655 S
C639 C640 1.398 . S
C639 C645 1.491 1_655 S
C640 H631 0.950 . S
C640 C639 1.398 . S
C640 C641 1.391 . S
C641 H629 0.950 . S
C641 C637 1.395 . S
C641 C640 1.391 . S
C642 H632 0.952 . S
C642 C643 1.384 1_655 S
C642 C644 1.392 . S
C643 C642 1.384 1_455 S
C643 C647 1.393 . S
C644 H633 0.950 . S
C644 C642 1.392 . S
C644 C645 1.400 1_655 S
C645 C639 1.491 1_455 S
C645 C644 1.400 1_455 S
C645 C646 1.398 . S
C646 H634 0.950 . S
C646 C645 1.398 . S
C646 C647 1.391 . S
C647 H635 0.950 . S
C647 C643 1.393 . S
C647 C646 1.391 . S
H648 C656 0.950 . S
H649 C661 0.950 . S
H650 C658 0.950 . S
H651 C660 0.950 . S
H652 C662 0.950 . S
H653 C664 0.950 . S
H654 C666 0.950 . S
H655 C667 0.950 . S
C656 H648 0.950 . S
C656 C657 1.367 1_565 S
C656 C658 1.391 . S
C657 C656 1.367 1_545 S
C657 C661 1.412 . S
C658 H650 0.950 . S
C658 C656 1.391 . S
C658 C659 1.379 1_565 S
C659 C658 1.379 1_545 S
C659 C660 1.420 . S
C659 C665 1.490 . S
C660 H651 0.950 . S
C660 C659 1.420 . S
C660 C661 1.391 . S
C661 H649 0.950 . S
C661 C657 1.412 . S
C661 C660 1.391 . S
C662 H652 0.950 . S
C662 C663 1.394 . S
C662 C664 1.391 . S
C663 C662 1.394 . S
C663 C667 1.385 1_545 S
C664 H653 0.950 . S
C664 C662 1.391 . S
C664 C665 1.406 . S
C665 C659 1.490 . S
C665 C664 1.406 . S
C665 C666 1.393 1_545 S
C666 H654 0.950 . S
C666 C665 1.393 1_565 S
C666 C667 1.391 . S
C667 H655 0.950 . S
C667 C663 1.385 1_565 S
C667 C666 1.391 . S
H668 C676 0.950 . S
H669 C681 0.950 . S
H670 C678 0.950 . S
H671 C680 0.950 . S
H672 C682 0.950 . S
H673 C684 0.950 . S
H674 C686 0.950 . S
H675 C687 0.950 . S
C676 H668 0.950 . S
C676 C677 1.358 1_655 S
C676 C678 1.391 . S
C677 C676 1.358 1_455 S
C677 C681 1.420 . S
C678 H670 0.950 . S
C678 C676 1.391 . S
C678 C679 1.386 1_655 S
C679 C678 1.386 1_455 S
C679 C680 1.413 . S
C679 C685 1.491 . S
C680 H671 0.950 . S
C680 C679 1.413 . S
C680 C681 1.391 . S
C681 H669 0.950 . S
C681 C677 1.420 . S
C681 C680 1.391 . S
C682 H672 0.950 . S
C682 C683 1.390 . S
C682 C684 1.391 . S
C683 C682 1.390 . S
C683 C687 1.389 1_455 S
C684 H673 0.950 . S
C684 C682 1.391 . S
C684 C685 1.417 . S
C685 C679 1.491 . S
C685 C684 1.417 . S
C685 C686 1.382 1_455 S
C686 H674 0.950 . S
C686 C685 1.382 1_655 S
C686 C687 1.391 . S
C687 H675 0.950 . S
C687 C683 1.389 1_655 S
C687 C686 1.391 . S
H688 C696 0.950 . S
H689 C701 0.950 . S
H690 C698 0.950 . S
H691 C700 0.950 . S
H692 C702 0.950 . S
H693 C704 0.950 . S
H694 C706 0.950 . S
H695 C707 0.950 . S
C696 H688 0.950 . S
C696 C697 1.386 1_556 S
C696 C698 1.391 . S
C697 C696 1.386 1_554 S
C697 C701 1.393 . S
C698 H690 0.950 . S
C698 C696 1.391 . S
C698 C699 1.396 1_556 S
C699 C698 1.396 1_554 S
C699 C700 1.405 . S
C699 C705 1.490 1_554 S
C700 H691 0.950 . S
C700 C699 1.405 . S
C700 C701 1.391 . S
C701 H689 0.950 . S
C701 C697 1.393 . S
C701 C700 1.391 . S
C702 H692 0.950 . S
C702 C703 1.386 1_554 S
C702 C704 1.391 . S
C703 C702 1.386 1_556 S
C703 C707 1.393 . S
C704 H693 0.950 . S
C704 C702 1.391 . S
C704 C705 1.398 1_554 S
C705 C699 1.490 1_556 S
C705 C704 1.398 1_556 S
C705 C706 1.402 . S
C706 H694 0.950 . S
C706 C705 1.402 . S
C706 C707 1.391 . S
C707 H695 0.950 . S
C707 C703 1.393 . S
C707 C706 1.391 . S
H708 C716 0.950 . S
H709 C721 0.950 . S
H710 C718 0.950 . S
H711 C720 0.950 . S
H712 C722 0.950 . S
H713 C724 0.950 . S
H714 C726 0.950 . S
H715 C727 0.950 . S
C716 H708 0.950 . S
C716 C717 1.406 . S
C716 C718 1.391 . S
C717 C716 1.406 . S
C717 C721 1.373 1_556 S
C718 H710 0.950 . S
C718 C716 1.391 . S
C718 C719 1.405 . S
C719 C718 1.405 . S
C719 C720 1.393 1_556 S
C719 C725 1.490 1_556 S
C720 H711 0.950 . S
C720 C719 1.393 1_554 S
C720 C721 1.391 . S
C721 H709 0.950 . S
C721 C717 1.373 1_554 S
C721 C720 1.391 . S
C722 H712 0.950 . S
C722 C723 1.410 . S
C722 C724 1.391 . S
C723 C722 1.410 . S
C723 C727 1.369 1_554 S
C724 H713 0.950 . S
C724 C722 1.391 . S
C724 C725 1.410 . S
C725 C719 1.490 1_554 S
C725 C724 1.410 . S
C725 C726 1.389 1_554 S
C726 H714 0.950 . S
C726 C725 1.389 1_556 S
C726 C727 1.391 . S
C727 H715 0.950 . S
C727 C723 1.369 1_556 S
C727 C726 1.391 . S
H728 C736 0.950 . S
H729 C741 0.950 . S
H730 C738 0.950 . S
H731 C740 0.950 . S
H732 C742 0.950 . S
H733 C744 0.950 . S
H734 C746 0.950 . S
H735 C747 0.950 . S
C736 H728 0.950 . S
C736 C737 1.386 1_554 S
C736 C738 1.391 . S
C737 C736 1.386 1_556 S
C737 C741 1.393 . S
C738 H730 0.950 . S
C738 C736 1.391 . S
C738 C739 1.396 1_554 S
C739 C738 1.396 1_556 S
C739 C740 1.404 . S
C739 C745 1.490 1_556 S
C740 H731 0.950 . S
C740 C739 1.404 . S
C740 C741 1.391 . S
C741 H729 0.950 . S
C741 C737 1.393 . S
C741 C740 1.391 . S
C742 H732 0.950 . S
C742 C743 1.386 1_556 S
C742 C744 1.391 . S
C743 C742 1.386 1_554 S
C743 C747 1.393 . S
C744 H733 0.950 . S
C744 C742 1.391 . S
C744 C745 1.392 1_556 S
C745 C739 1.490 1_554 S
C745 C744 1.392 1_554 S
C745 C746 1.408 . S
C746 H734 0.950 . S
C746 C745 1.408 . S
C746 C747 1.391 . S
C747 H735 0.950 . S
C747 C743 1.393 . S
C747 C746 1.391 . S
H748 C756 0.950 . S
H749 C761 0.950 . S
H750 C758 0.950 . S
H751 C760 0.950 . S
H752 C762 0.950 . S
H753 C764 0.950 . S
H754 C766 0.950 . S
H755 C767 0.950 . S
C756 H748 0.950 . S
C756 C757 1.407 . S
C756 C758 1.391 . S
C757 C756 1.407 . S
C757 C761 1.373 1_556 S
C758 H750 0.950 . S
C758 C756 1.391 . S
C758 C759 1.407 . S
C759 C758 1.407 . S
C759 C760 1.392 1_556 S
C759 C765 1.490 1_556 S
C760 H751 0.950 . S
C760 C759 1.392 1_554 S
C760 C761 1.391 . S
C761 H749 0.950 . S
C761 C757 1.373 1_554 S
C761 C760 1.391 . S
C762 H752 0.950 . S
C762 C763 1.386 . S
C762 C764 1.391 . S
C763 C762 1.386 . S
C763 C767 1.393 1_554 S
C764 H753 0.950 . S
C764 C762 1.391 . S
C764 C765 1.411 . S
C765 C759 1.490 1_554 S
C765 C764 1.411 . S
C765 C766 1.389 1_554 S
C766 H754 0.950 . S
C766 C765 1.389 1_556 S
C766 C767 1.391 . S
C767 H755 0.950 . S
C767 C763 1.393 1_556 S
C767 C766 1.391 . S
H768 C776 0.950 . S
H769 C781 0.950 . S
H770 C778 0.950 . S
H771 C780 0.950 . S
H772 C782 0.950 . S
H773 C784 0.950 . S
H774 C786 0.950 . S
H775 C787 0.950 . S
C776 H768 0.950 . S
C776 C777 1.386 . S
C776 C778 1.391 . S
C777 C776 1.386 . S
C777 C781 1.393 . S
C778 H770 0.950 . S
C778 C776 1.391 . S
C778 C779 1.400 . S
C779 C778 1.400 . S
C779 C780 1.398 . S
C779 C785 1.491 1_556 S
C780 H771 0.950 . S
C780 C779 1.398 . S
C780 C781 1.391 . S
C781 H769 0.950 . S
C781 C777 1.393 . S
C781 C780 1.391 . S
C782 H772 0.950 . S
C782 C783 1.386 . S
C782 C784 1.391 . S
C783 C782 1.386 . S
C783 C787 1.393 . S
C784 H773 0.950 . S
C784 C782 1.391 . S
C784 C785 1.400 . S
C785 C779 1.491 1_554 S
C785 C784 1.400 . S
C785 C786 1.398 . S
C786 H774 0.950 . S
C786 C785 1.398 . S
C786 C787 1.391 . S
C787 H775 0.950 . S
C787 C783 1.393 . S
C787 C786 1.391 . S
H788 C796 0.950 . S
H789 C801 0.950 . S
H790 C798 0.950 . S
H791 C800 0.950 . S
H792 C802 0.950 . S
H793 C804 0.950 . S
H794 C806 0.950 . S
H795 C807 0.950 . S
C796 H788 0.950 . S
C796 C797 1.386 . S
C796 C798 1.391 . S
C797 C796 1.386 . S
C797 C801 1.393 . S
C798 H790 0.950 . S
C798 C796 1.391 . S
C798 C799 1.400 . S
C799 C798 1.400 . S
C799 C800 1.398 . S
C799 C805 1.491 1_554 S
C800 H791 0.950 . S
C800 C799 1.398 . S
C800 C801 1.391 . S
C801 H789 0.950 . S
C801 C797 1.393 . S
C801 C800 1.391 . S
C802 H792 0.950 . S
C802 C803 1.386 . S
C802 C804 1.391 . S
C803 C802 1.386 . S
C803 C807 1.393 . S
C804 H793 0.950 . S
C804 C802 1.391 . S
C804 C805 1.400 . S
C805 C799 1.491 1_556 S
C805 C804 1.400 . S
C805 C806 1.398 . S
C806 H794 0.950 . S
C806 C805 1.398 . S
C806 C807 1.391 . S
C807 H795 0.950 . S
C807 C803 1.393 . S
C807 C806 1.391 . S
H808 C816 0.950 . S
H809 C821 0.950 . S
H810 C818 0.950 . S
H811 C820 0.950 . S
H812 C822 0.950 . S
H813 C824 0.950 . S
H814 C826 0.950 . S
H815 C827 0.950 . S
C816 H808 0.950 . S
C816 C817 1.386 . S
C816 C818 1.391 . S
C817 C816 1.386 . S
C817 C821 1.393 . S
C818 H810 0.950 . S
C818 C816 1.391 . S
C818 C819 1.400 . S
C819 C818 1.400 . S
C819 C820 1.398 . S
C819 C825 1.491 1_556 S
C820 H811 0.950 . S
C820 C819 1.398 . S
C820 C821 1.391 . S
C821 H809 0.950 . S
C821 C817 1.393 . S
C821 C820 1.391 . S
C822 H812 0.950 . S
C822 C823 1.386 . S
C822 C824 1.391 . S
C823 C822 1.386 . S
C823 C827 1.393 . S
C824 H813 0.950 . S
C824 C822 1.391 . S
C824 C825 1.400 . S
C825 C819 1.491 1_554 S
C825 C824 1.400 . S
C825 C826 1.398 . S
C826 H814 0.950 . S
C826 C825 1.398 . S
C826 C827 1.391 . S
C827 H815 0.950 . S
C827 C823 1.393 . S
C827 C826 1.391 . S
H828 C836 0.950 . S
H829 C841 0.950 . S
H830 C838 0.950 . S
H831 C840 0.950 . S
H832 C842 0.950 . S
H833 C844 0.950 . S
H834 C846 0.950 . S
H835 C847 0.950 . S
C836 H828 0.950 . S
C836 C837 1.386 . S
C836 C838 1.391 . S
C837 C836 1.386 . S
C837 C841 1.393 . S
C838 H830 0.950 . S
C838 C836 1.391 . S
C838 C839 1.400 . S
C839 C838 1.400 . S
C839 C840 1.398 . S
C839 C845 1.491 1_556 S
C840 H831 0.950 . S
C840 C839 1.398 . S
C840 C841 1.391 . S
C841 H829 0.950 . S
C841 C837 1.393 . S
C841 C840 1.391 . S
C842 H832 0.950 . S
C842 C843 1.386 . S
C842 C844 1.391 . S
C843 C842 1.386 . S
C843 C847 1.393 . S
C844 H833 0.950 . S
C844 C842 1.391 . S
C844 C845 1.400 . S
C845 C839 1.491 1_554 S
C845 C844 1.400 . S
C845 C846 1.398 . S
C846 H834 0.950 . S
C846 C845 1.398 . S
C846 C847 1.391 . S
C847 H835 0.950 . S
C847 C843 1.393 . S
C847 C846 1.391 . S
H848 C856 0.950 . S
H849 C861 0.950 . S
H850 C858 0.950 . S
H851 C860 0.950 . S
H852 C862 0.950 . S
H853 C864 0.950 . S
H854 C866 0.950 . S
H855 C867 0.950 . S
C856 H848 0.950 . S
C856 C857 1.386 . S
C856 C858 1.391 . S
C857 C856 1.386 . S
C857 C861 1.393 . S
C858 H850 0.950 . S
C858 C856 1.391 . S
C858 C859 1.400 . S
C859 C858 1.400 . S
C859 C860 1.398 . S
C859 C865 1.491 1_655 S
C860 H851 0.950 . S
C860 C859 1.398 . S
C860 C861 1.391 . S
C861 H849 0.950 . S
C861 C857 1.393 . S
C861 C860 1.391 . S
C862 H852 0.950 . S
C862 C863 1.386 . S
C862 C864 1.391 . S
C863 C862 1.386 . S
C863 C867 1.393 . S
C864 H853 0.950 . S
C864 C862 1.391 . S
C864 C865 1.400 . S
C865 C859 1.491 1_455 S
C865 C864 1.400 . S
C865 C866 1.398 . S
C866 H854 0.950 . S
C866 C865 1.398 . S
C866 C867 1.391 . S
C867 H855 0.950 . S
C867 C863 1.393 . S
C867 C866 1.391 . S
H868 C876 0.950 . S
H869 C881 0.950 . S
H870 C878 0.950 . S
H871 C880 0.950 . S
H872 C882 0.950 . S
H873 C884 0.950 . S
H874 C886 0.950 . S
H875 C887 0.950 . S
C876 H868 0.950 . S
C876 C877 1.386 . S
C876 C878 1.391 . S
C877 C876 1.386 . S
C877 C881 1.393 . S
C878 H870 0.950 . S
C878 C876 1.391 . S
C878 C879 1.400 . S
C879 C878 1.400 . S
C879 C880 1.398 . S
C879 C885 1.491 1_545 S
C880 H871 0.950 . S
C880 C879 1.398 . S
C880 C881 1.391 . S
C881 H869 0.950 . S
C881 C877 1.393 . S
C881 C880 1.391 . S
C882 H872 0.950 . S
C882 C883 1.386 . S
C882 C884 1.391 . S
C883 C882 1.386 . S
C883 C887 1.393 . S
C884 H873 0.950 . S
C884 C882 1.391 . S
C884 C885 1.400 . S
C885 C879 1.491 1_565 S
C885 C884 1.400 . S
C885 C886 1.398 . S
C886 H874 0.950 . S
C886 C885 1.398 . S
C886 C887 1.391 . S
C887 H875 0.950 . S
C887 C883 1.393 . S
C887 C886 1.391 . S
H888 C896 0.950 . S
H889 C901 0.950 . S
H890 C898 0.950 . S
H891 C900 0.950 . S
H892 C902 0.950 . S
H893 C904 0.950 . S
H894 C906 0.950 . S
H895 C907 0.950 . S
C896 H888 0.950 . S
C896 C897 1.386 . S
C896 C898 1.391 . S
C897 C896 1.386 . S
C897 C901 1.393 . S
C898 H890 0.950 . S
C898 C896 1.391 . S
C898 C899 1.400 . S
C899 C898 1.400 . S
C899 C900 1.398 . S
C899 C905 1.491 1_655 S
C900 H891 0.950 . S
C900 C899 1.398 . S
C900 C901 1.391 . S
C901 H889 0.950 . S
C901 C897 1.393 . S
C901 C900 1.391 . S
C902 H892 0.950 . S
C902 C903 1.386 . S
C902 C904 1.391 . S
C903 C902 1.386 . S
C903 C907 1.393 . S
C904 H893 0.950 . S
C904 C902 1.391 . S
C904 C905 1.400 . S
C905 C899 1.491 1_455 S
C905 C904 1.400 . S
C905 C906 1.398 . S
C906 H894 0.950 . S
C906 C905 1.398 . S
C906 C907 1.391 . S
C907 H895 0.950 . S
C907 C903 1.393 . S
C907 C906 1.391 . S
H908 C916 0.950 . S
H909 C921 0.950 . S
H910 C918 0.950 . S
H911 C920 0.950 . S
H912 C922 0.950 . S
H913 C924 0.950 . S
H914 C926 0.950 . S
H915 C927 0.950 . S
C916 H908 0.950 . S
C916 C917 1.386 . S
C916 C918 1.391 . S
C917 C916 1.386 . S
C917 C921 1.393 . S
C918 H910 0.950 . S
C918 C916 1.391 . S
C918 C919 1.400 . S
C919 C918 1.400 . S
C919 C920 1.398 . S
C919 C925 1.491 1_565 S
C920 H911 0.950 . S
C920 C919 1.398 . S
C920 C921 1.391 . S
C921 H909 0.950 . S
C921 C917 1.393 . S
C921 C920 1.391 . S
C922 H912 0.950 . S
C922 C923 1.386 . S
C922 C924 1.391 . S
C923 C922 1.386 . S
C923 C927 1.393 . S
C924 H913 0.950 . S
C924 C922 1.391 . S
C924 C925 1.400 . S
C925 C919 1.491 1_545 S
C925 C924 1.400 . S
C925 C926 1.398 . S
C926 H914 0.950 . S
C926 C925 1.398 . S
C926 C927 1.391 . S
C927 H915 0.950 . S
C927 C923 1.393 . S
C927 C926 1.391 . S
H928 C936 0.950 . S
H929 C941 0.950 . S
H930 C938 0.950 . S
H931 C940 0.950 . S
H932 C942 0.950 . S
H933 C944 0.950 . S
H934 C946 0.950 . S
H935 C947 0.950 . S
C936 H928 0.950 . S
C936 C937 1.386 . S
C936 C938 1.391 . S
C937 C936 1.386 . S
C937 C941 1.393 . S
C938 H930 0.950 . S
C938 C936 1.391 . S
C938 C939 1.400 . S
C939 C938 1.400 . S
C939 C940 1.398 . S
C939 C945 1.491 1_565 S
C940 H931 0.950 . S
C940 C939 1.398 . S
C940 C941 1.391 . S
C941 H929 0.950 . S
C941 C937 1.393 . S
C941 C940 1.391 . S
C942 H932 0.950 . S
C942 C943 1.386 . S
C942 C944 1.391 . S
C943 C942 1.386 . S
C943 C947 1.393 . S
C944 H933 0.950 . S
C944 C942 1.391 . S
C944 C945 1.400 . S
C945 C939 1.491 1_545 S
C945 C944 1.400 . S
C945 C946 1.398 . S
C946 H934 0.950 . S
C946 C945 1.398 . S
C946 C947 1.391 . S
C947 H935 0.950 . S
C947 C943 1.393 . S
C947 C946 1.391 . S
H948 C956 0.950 . S
H949 C961 0.950 . S
H950 C958 0.950 . S
H951 C960 0.950 . S
H952 C962 0.950 . S
H953 C964 0.950 . S
H954 C966 0.950 . S
H955 C967 0.950 . S
C956 H948 0.950 . S
C956 C957 1.386 . S
C956 C958 1.391 . S
C957 C956 1.386 . S
C957 C961 1.393 . S
C958 H950 0.950 . S
C958 C956 1.391 . S
C958 C959 1.400 . S
C959 C958 1.400 . S
C959 C960 1.398 . S
C959 C965 1.491 1_455 S
C960 H951 0.950 . S
C960 C959 1.398 . S
C960 C961 1.391 . S
C961 H949 0.950 . S
C961 C957 1.393 . S
C961 C960 1.391 . S
C962 H952 0.950 . S
C962 C963 1.386 . S
C962 C964 1.391 . S
C963 C962 1.386 . S
C963 C967 1.393 . S
C964 H953 0.950 . S
C964 C962 1.391 . S
C964 C965 1.400 . S
C965 C959 1.491 1_655 S
C965 C964 1.400 . S
C965 C966 1.398 . S
C966 H954 0.950 . S
C966 C965 1.398 . S
C966 C967 1.391 . S
C967 H955 0.950 . S
C967 C963 1.393 . S
C967 C966 1.391 . S
H968 C976 0.950 . S
H969 C981 0.950 . S
H970 C978 0.950 . S
H971 C980 0.950 . S
H972 C982 0.950 . S
H973 C984 0.950 . S
H974 C986 0.950 . S
H975 C987 0.950 . S
C976 H968 0.950 . S
C976 C977 1.386 . S
C976 C978 1.391 . S
C977 C976 1.386 . S
C977 C981 1.393 . S
C978 H970 0.950 . S
C978 C976 1.391 . S
C978 C979 1.400 . S
C979 C978 1.400 . S
C979 C980 1.398 . S
C979 C985 1.491 1_565 S
C980 H971 0.950 . S
C980 C979 1.398 . S
C980 C981 1.391 . S
C981 H969 0.950 . S
C981 C977 1.393 . S
C981 C980 1.391 . S
C982 H972 0.950 . S
C982 C983 1.386 . S
C982 C984 1.391 . S
C983 C982 1.386 . S
C983 C987 1.393 . S
C984 H973 0.950 . S
C984 C982 1.391 . S
C984 C985 1.400 . S
C985 C979 1.491 1_545 S
C985 C984 1.400 . S
C985 C986 1.398 . S
C986 H974 0.950 . S
C986 C985 1.398 . S
C986 C987 1.391 . S
C987 H975 0.950 . S
C987 C983 1.393 . S
C987 C986 1.391 . S
H988 C996 0.950 . S
H989 C1001 0.950 . S
H990 C998 0.950 . S
H991 C1000 0.950 . S
H992 C1002 0.950 . S
H993 C1004 0.950 . S
H994 C1006 0.950 . S
H995 C1007 0.950 . S
C996 H988 0.950 . S
C996 C997 1.386 . S
C996 C998 1.391 . S
C997 C996 1.386 . S
C997 C1001 1.393 . S
C998 H990 0.950 . S
C998 C996 1.391 . S
C998 C999 1.400 . S
C999 C998 1.400 . S
C999 C1000 1.398 . S
C999 C1005 1.491 1_455 S
C1000 H991 0.950 . S
C1000 C999 1.398 . S
C1000 C1001 1.391 . S
C1001 H989 0.950 . S
C1001 C997 1.393 . S
C1001 C1000 1.391 . S
C1002 H992 0.950 . S
C1002 C1003 1.386 . S
C1002 C1004 1.391 . S
C1003 C1002 1.386 . S
C1003 C1007 1.393 . S
C1004 H993 0.950 . S
C1004 C1002 1.391 . S
C1004 C1005 1.400 . S
C1005 C999 1.491 1_655 S
C1005 C1004 1.400 . S
C1005 C1006 1.398 . S
C1006 H994 0.950 . S
C1006 C1005 1.398 . S
C1006 C1007 1.391 . S
C1007 H995 0.950 . S
C1007 C1003 1.393 . S
C1007 C1006 1.391 . S
H1008 C1016 0.950 . S
H1009 C1021 0.950 . S
H1010 C1018 0.950 . S
H1011 C1020 0.950 . S
H1012 C1022 0.950 . S
H1013 C1024 0.950 . S
H1014 C1026 0.950 . S
H1015 C1027 0.950 . S
C1016 H1008 0.950 . S
C1016 C1017 1.386 . S
C1016 C1018 1.391 . S
C1017 C1016 1.386 . S
C1017 C1021 1.393 . S
C1018 H1010 0.950 . S
C1018 C1016 1.391 . S
C1018 C1019 1.400 . S
C1019 C1018 1.400 . S
C1019 C1020 1.398 . S
C1019 C1025 1.491 . S
C1020 H1011 0.950 . S
C1020 C1019 1.398 . S
C1020 C1021 1.391 . S
C1021 H1009 0.950 . S
C1021 C1017 1.393 . S
C1021 C1020 1.391 . S
C1022 H1012 0.950 . S
C1022 C1023 1.386 . S
C1022 C1024 1.391 . S
C1023 C1022 1.386 . S
C1023 C1027 1.393 . S
C1024 H1013 0.950 . S
C1024 C1022 1.391 . S
C1024 C1025 1.400 . S
C1025 C1019 1.491 . S
C1025 C1024 1.400 . S
C1025 C1026 1.398 . S
C1026 H1014 0.950 . S
C1026 C1025 1.398 . S
C1026 C1027 1.391 . S
C1027 H1015 0.950 . S
C1027 C1023 1.393 . S
C1027 C1026 1.391 . S
H1028 C1036 0.950 . S
H1029 C1041 0.950 . S
H1030 C1038 0.950 . S
H1031 C1040 0.950 . S
H1032 C1042 0.950 . S
H1033 C1044 0.950 . S
H1034 C1046 0.950 . S
H1035 C1047 0.950 . S
C1036 H1028 0.950 . S
C1036 C1037 1.386 . S
C1036 C1038 1.391 . S
C1037 C1036 1.386 . S
C1037 C1041 1.393 . S
C1038 H1030 0.950 . S
C1038 C1036 1.391 . S
C1038 C1039 1.400 . S
C1039 C1038 1.400 . S
C1039 C1040 1.398 . S
C1039 C1045 1.491 . S
C1040 H1031 0.950 . S
C1040 C1039 1.398 . S
C1040 C1041 1.391 . S
C1041 H1029 0.950 . S
C1041 C1037 1.393 . S
C1041 C1040 1.391 . S
C1042 H1032 0.950 . S
C1042 C1043 1.386 . S
C1042 C1044 1.391 . S
C1043 C1042 1.386 . S
C1043 C1047 1.393 . S
C1044 H1033 0.950 . S
C1044 C1042 1.391 . S
C1044 C1045 1.400 . S
C1045 C1039 1.491 . S
C1045 C1044 1.400 . S
C1045 C1046 1.398 . S
C1046 H1034 0.950 . S
C1046 C1045 1.398 . S
C1046 C1047 1.391 . S
C1047 H1035 0.950 . S
C1047 C1043 1.393 . S
C1047 C1046 1.391 . S
H1048 C1056 0.950 . S
H1049 C1061 0.950 . S
H1050 C1058 0.950 . S
H1051 C1060 0.950 . S
H1052 C1062 0.950 . S
H1053 C1064 0.950 . S
H1054 C1066 0.950 . S
H1055 C1067 0.950 . S
C1056 H1048 0.950 . S
C1056 C1057 1.386 . S
C1056 C1058 1.391 . S
C1057 C1056 1.386 . S
C1057 C1061 1.393 . S
C1058 H1050 0.950 . S
C1058 C1056 1.391 . S
C1058 C1059 1.400 . S
C1059 C1058 1.400 . S
C1059 C1060 1.398 . S
C1059 C1065 1.491 . S
C1060 H1051 0.950 . S
C1060 C1059 1.398 . S
C1060 C1061 1.391 . S
C1061 H1049 0.950 . S
C1061 C1057 1.393 . S
C1061 C1060 1.391 . S
C1062 H1052 0.950 . S
C1062 C1063 1.386 . S
C1062 C1064 1.391 . S
C1063 C1062 1.386 . S
C1063 C1067 1.393 . S
C1064 H1053 0.950 . S
C1064 C1062 1.391 . S
C1064 C1065 1.400 . S
C1065 C1059 1.491 . S
C1065 C1064 1.400 . S
C1065 C1066 1.398 . S
C1066 H1054 0.950 . S
C1066 C1065 1.398 . S
C1066 C1067 1.391 . S
C1067 H1055 0.950 . S
C1067 C1063 1.393 . S
C1067 C1066 1.391 . S
H1068 C1076 0.950 . S
H1069 C1081 0.950 . S
H1070 C1078 0.950 . S
H1071 C1080 0.950 . S
H1072 C1082 0.950 . S
H1073 C1084 0.950 . S
H1074 C1086 0.950 . S
H1075 C1087 0.950 . S
C1076 H1068 0.950 . S
C1076 C1077 1.386 . S
C1076 C1078 1.391 . S
C1077 C1076 1.386 . S
C1077 C1081 1.393 . S
C1078 H1070 0.950 . S
C1078 C1076 1.391 . S
C1078 C1079 1.400 . S
C1079 C1078 1.400 . S
C1079 C1080 1.398 . S
C1079 C1085 1.491 . S
C1080 H1071 0.950 . S
C1080 C1079 1.398 . S
C1080 C1081 1.391 . S
C1081 H1069 0.950 . S
C1081 C1077 1.393 . S
C1081 C1080 1.391 . S
C1082 H1072 0.950 . S
C1082 C1083 1.386 . S
C1082 C1084 1.391 . S
C1083 C1082 1.386 . S
C1083 C1087 1.393 . S
C1084 H1073 0.950 . S
C1084 C1082 1.391 . S
C1084 C1085 1.400 . S
C1085 C1079 1.491 . S
C1085 C1084 1.400 . S
C1085 C1086 1.398 . S
C1086 H1074 0.950 . S
C1086 C1085 1.398 . S
C1086 C1087 1.391 . S
C1087 H1075 0.950 . S
C1087 C1083 1.393 . S
C1087 C1086 1.391 . S
H1088 C1096 0.950 . S
H1089 C1101 0.950 . S
H1090 C1098 0.950 . S
H1091 C1100 0.950 . S
H1092 C1102 0.950 . S
H1093 C1104 0.950 . S
H1094 C1106 0.950 . S
H1095 C1107 0.950 . S
C1096 H1088 0.950 . S
C1096 C1097 1.386 . S
C1096 C1098 1.391 . S
C1097 C1096 1.386 . S
C1097 C1101 1.393 . S
C1098 H1090 0.950 . S
C1098 C1096 1.391 . S
C1098 C1099 1.400 . S
C1099 C1098 1.400 . S
C1099 C1100 1.398 . S
C1099 C1105 1.491 . S
C1100 H1091 0.950 . S
C1100 C1099 1.398 . S
C1100 C1101 1.391 . S
C1101 H1089 0.950 . S
C1101 C1097 1.393 . S
C1101 C1100 1.391 . S
C1102 H1092 0.950 . S
C1102 C1103 1.386 . S
C1102 C1104 1.391 . S
C1103 C1102 1.386 . S
C1103 C1107 1.393 . S
C1104 H1093 0.950 . S
C1104 C1102 1.391 . S
C1104 C1105 1.400 . S
C1105 C1099 1.491 . S
C1105 C1104 1.400 . S
C1105 C1106 1.398 . S
C1106 H1094 0.950 . S
C1106 C1105 1.398 . S
C1106 C1107 1.391 . S
C1107 H1095 0.950 . S
C1107 C1103 1.393 . S
C1107 C1106 1.391 . S
H1108 C1116 0.950 . S
H1109 C1121 0.950 . S
H1110 C1118 0.950 . S
H1111 C1120 0.950 . S
H1112 C1122 0.950 . S
H1113 C1124 0.950 . S
H1114 C1126 0.950 . S
H1115 C1127 0.950 . S
C1116 H1108 0.950 . S
C1116 C1117 1.386 . S
C1116 C1118 1.391 . S
C1117 C1116 1.386 . S
C1117 C1121 1.393 . S
C1118 H1110 0.950 . S
C1118 C1116 1.391 . S
C1118 C1119 1.400 . S
C1119 C1118 1.400 . S
C1119 C1120 1.398 . S
C1119 C1125 1.491 . S
C1120 H1111 0.950 . S
C1120 C1119 1.398 . S
C1120 C1121 1.391 . S
C1121 H1109 0.950 . S
C1121 C1117 1.393 . S
C1121 C1120 1.391 . S
C1122 H1112 0.950 . S
C1122 C1123 1.386 . S
C1122 C1124 1.391 . S
C1123 C1122 1.386 . S
C1123 C1127 1.393 . S
C1124 H1113 0.950 . S
C1124 C1122 1.391 . S
C1124 C1125 1.400 . S
C1125 C1119 1.491 . S
C1125 C1124 1.400 . S
C1125 C1126 1.398 . S
C1126 H1114 0.950 . S
C1126 C1125 1.398 . S
C1126 C1127 1.391 . S
C1127 H1115 0.950 . S
C1127 C1123 1.393 . S
C1127 C1126 1.391 . S
H1128 C1136 0.950 . S
H1129 C1141 0.950 . S
H1130 C1138 0.950 . S
H1131 C1140 0.950 . S
H1132 C1142 0.950 . S
H1133 C1144 0.950 . S
H1134 C1146 0.950 . S
H1135 C1147 0.950 . S
C1136 H1128 0.950 . S
C1136 C1137 1.386 . S
C1136 C1138 1.391 . S
C1137 C1136 1.386 . S
C1137 C1141 1.393 . S
C1138 H1130 0.950 . S
C1138 C1136 1.391 . S
C1138 C1139 1.400 . S
C1139 C1138 1.400 . S
C1139 C1140 1.398 . S
C1139 C1145 1.491 . S
C1140 H1131 0.950 . S
C1140 C1139 1.398 . S
C1140 C1141 1.391 . S
C1141 H1129 0.950 . S
C1141 C1137 1.393 . S
C1141 C1140 1.391 . S
C1142 H1132 0.950 . S
C1142 C1143 1.386 . S
C1142 C1144 1.391 . S
C1143 C1142 1.386 . S
C1143 C1147 1.393 . S
C1144 H1133 0.950 . S
C1144 C1142 1.391 . S
C1144 C1145 1.400 . S
C1145 C1139 1.491 . S
C1145 C1144 1.400 . S
C1145 C1146 1.398 . S
C1146 H1134 0.950 . S
C1146 C1145 1.398 . S
C1146 C1147 1.391 . S
C1147 H1135 0.950 . S
C1147 C1143 1.393 . S
C1147 C1146 1.391 . S
H1148 C1156 0.950 . S
H1149 C1161 0.950 . S
H1150 C1158 0.950 . S
H1151 C1160 0.950 . S
H1152 C1162 0.950 . S
H1153 C1164 0.950 . S
H1154 C1166 0.950 . S
H1155 C1167 0.950 . S
C1156 H1148 0.950 . S
C1156 C1157 1.386 . S
C1156 C1158 1.391 . S
C1157 C1156 1.386 . S
C1157 C1161 1.393 . S
C1158 H1150 0.950 . S
C1158 C1156 1.391 . S
C1158 C1159 1.400 . S
C1159 C1158 1.400 . S
C1159 C1160 1.398 . S
C1159 C1165 1.491 . S
C1160 H1151 0.950 . S
C1160 C1159 1.398 . S
C1160 C1161 1.391 . S
C1161 H1149 0.950 . S
C1161 C1157 1.393 . S
C1161 C1160 1.391 . S
C1162 H1152 0.950 . S
C1162 C1163 1.386 . S
C1162 C1164 1.391 . S
C1163 C1162 1.386 . S
C1163 C1167 1.393 . S
C1164 H1153 0.950 . S
C1164 C1162 1.391 . S
C1164 C1165 1.400 . S
C1165 C1159 1.491 . S
C1165 C1164 1.400 . S
C1165 C1166 1.398 . S
C1166 H1154 0.950 . S
C1166 C1165 1.398 . S
C1166 C1167 1.391 . S
C1167 H1155 0.950 . S
C1167 C1163 1.393 . S
C1167 C1166 1.391 . S
H1168 C1176 0.950 . S
H1169 C1181 0.950 . S
H1170 C1178 0.950 . S
H1171 C1180 0.950 . S
H1172 C1182 0.950 . S
H1173 C1184 0.950 . S
H1174 C1186 0.950 . S
H1175 C1187 0.950 . S
C1176 H1168 0.950 . S
C1176 C1177 1.386 . S
C1176 C1178 1.391 . S
C1177 C1176 1.386 . S
C1177 C1181 1.393 . S
C1178 H1170 0.950 . S
C1178 C1176 1.391 . S
C1178 C1179 1.400 . S
C1179 C1178 1.400 . S
C1179 C1180 1.398 . S
C1179 C1185 1.491 . S
C1180 H1171 0.950 . S
C1180 C1179 1.398 . S
C1180 C1181 1.391 . S
C1181 H1169 0.950 . S
C1181 C1177 1.393 . S
C1181 C1180 1.391 . S
C1182 H1172 0.950 . S
C1182 C1183 1.386 . S
C1182 C1184 1.391 . S
C1183 C1182 1.386 . S
C1183 C1187 1.393 . S
C1184 H1173 0.950 . S
C1184 C1182 1.391 . S
C1184 C1185 1.400 . S
C1185 C1179 1.491 . S
C1185 C1184 1.400 . S
C1185 C1186 1.398 . S
C1186 H1174 0.950 . S
C1186 C1185 1.398 . S
C1186 C1187 1.391 . S
C1187 H1175 0.950 . S
C1187 C1183 1.393 . S
C1187 C1186 1.391 . S
H1188 C1196 0.950 . S
H1189 C1201 0.950 . S
H1190 C1198 0.950 . S
H1191 C1200 0.950 . S
H1192 C1202 0.950 . S
H1193 C1204 0.950 . S
H1194 C1206 0.950 . S
H1195 C1207 0.950 . S
C1196 H1188 0.950 . S
C1196 C1197 1.386 . S
C1196 C1198 1.391 . S
C1197 C1196 1.386 . S
C1197 C1201 1.393 . S
C1198 H1190 0.950 . S
C1198 C1196 1.391 . S
C1198 C1199 1.400 . S
C1199 C1198 1.400 . S
C1199 C1200 1.398 . S
C1199 C1205 1.491 . S
C1200 H1191 0.950 . S
C1200 C1199 1.398 . S
C1200 C1201 1.391 . S
C1201 H1189 0.950 . S
C1201 C1197 1.393 . S
C1201 C1200 1.391 . S
C1202 H1192 0.950 . S
C1202 C1203 1.386 . S
C1202 C1204 1.391 . S
C1203 C1202 1.386 . S
C1203 C1207 1.393 . S
C1204 H1193 0.950 . S
C1204 C1202 1.391 . S
C1204 C1205 1.400 . S
C1205 C1199 1.491 . S
C1205 C1204 1.400 . S
C1205 C1206 1.398 . S
C1206 H1194 0.950 . S
C1206 C1205 1.398 . S
C1206 C1207 1.391 . S
C1207 H1195 0.950 . S
C1207 C1203 1.393 . S
C1207 C1206 1.391 . S
H1208 C1216 0.950 . S
H1209 C1221 0.950 . S
H1210 C1218 0.950 . S
H1211 C1220 0.950 . S
H1212 C1222 0.950 . S
H1213 C1224 0.950 . S
H1214 C1226 0.950 . S
H1215 C1227 0.950 . S
C1216 H1208 0.950 . S
C1216 C1217 1.386 . S
C1216 C1218 1.391 . S
C1217 C1216 1.386 . S
C1217 C1221 1.393 . S
C1218 H1210 0.950 . S
C1218 C1216 1.391 . S
C1218 C1219 1.400 . S
C1219 C1218 1.400 . S
C1219 C1220 1.398 . S
C1219 C1225 1.491 . S
C1220 H1211 0.950 . S
C1220 C1219 1.398 . S
C1220 C1221 1.391 . S
C1221 H1209 0.950 . S
C1221 C1217 1.393 . S
C1221 C1220 1.391 . S
C1222 H1212 0.950 . S
C1222 C1223 1.386 . S
C1222 C1224 1.391 . S
C1223 C1222 1.386 . S
C1223 C1227 1.393 . S
C1224 H1213 0.950 . S
C1224 C1222 1.391 . S
C1224 C1225 1.400 . S
C1225 C1219 1.491 . S
C1225 C1224 1.400 . S
C1225 C1226 1.398 . S
C1226 H1214 0.950 . S
C1226 C1225 1.398 . S
C1226 C1227 1.391 . S
C1227 H1215 0.950 . S
C1227 C1223 1.393 . S
C1227 C1226 1.391 . S
H1228 C1236 0.950 . S
H1229 C1241 0.950 . S
H1230 C1238 0.950 . S
H1231 C1240 0.950 . S
H1232 C1242 0.950 . S
H1233 C1244 0.950 . S
H1234 C1246 0.950 . S
H1235 C1247 0.950 . S
C1236 H1228 0.950 . S
C1236 C1237 1.386 . S
C1236 C1238 1.391 . S
C1237 C1236 1.386 . S
C1237 C1241 1.393 . S
C1238 H1230 0.950 . S
C1238 C1236 1.391 . S
C1238 C1239 1.400 . S
C1239 C1238 1.400 . S
C1239 C1240 1.398 . S
C1239 C1245 1.491 . S
C1240 H1231 0.950 . S
C1240 C1239 1.398 . S
C1240 C1241 1.391 . S
C1241 H1229 0.950 . S
C1241 C1237 1.393 . S
C1241 C1240 1.391 . S
C1242 H1232 0.950 . S
C1242 C1243 1.386 . S
C1242 C1244 1.391 . S
C1243 C1242 1.386 . S
C1243 C1247 1.393 . S
C1244 H1233 0.950 . S
C1244 C1242 1.391 . S
C1244 C1245 1.400 . S
C1245 C1239 1.491 . S
C1245 C1244 1.400 . S
C1245 C1246 1.398 . S
C1246 H1234 0.950 . S
C1246 C1245 1.398 . S
C1246 C1247 1.391 . S
C1247 H1235 0.950 . S
C1247 C1243 1.393 . S
C1247 C1246 1.391 . S
H1248 C1256 0.950 . S
H1249 C1261 0.950 . S
H1250 C1258 0.950 . S
H1251 C1260 0.950 . S
H1252 C1262 0.950 . S
H1253 C1264 0.950 . S
H1254 C1266 0.950 . S
H1255 C1267 0.950 . S
C1256 H1248 0.950 . S
C1256 C1257 1.386 . S
C1256 C1258 1.391 . S
C1257 C1256 1.386 . S
C1257 C1261 1.393 . S
C1258 H1250 0.950 . S
C1258 C1256 1.391 . S
C1258 C1259 1.400 . S
C1259 C1258 1.400 . S
C1259 C1260 1.398 . S
C1259 C1265 1.491 . S
C1260 H1251 0.950 . S
C1260 C1259 1.398 . S
C1260 C1261 1.391 . S
C1261 H1249 0.950 . S
C1261 C1257 1.393 . S
C1261 C1260 1.391 . S
C1262 H1252 0.950 . S
C1262 C1263 1.386 . S
C1262 C1264 1.391 . S
C1263 C1262 1.386 . S
C1263 C1267 1.393 . S
C1264 H1253 0.950 . S
C1264 C1262 1.391 . S
C1264 C1265 1.400 . S
C1265 C1259 1.491 . S
C1265 C1264 1.400 . S
C1265 C1266 1.398 . S
C1266 H1254 0.950 . S
C1266 C1265 1.398 . S
C1266 C1267 1.391 . S
C1267 H1255 0.950 . S
C1267 C1263 1.393 . S
C1267 C1266 1.391 . S
H1268 C1276 0.950 . S
H1269 C1281 0.950 . S
H1270 C1278 0.950 . S
H1271 C1280 0.950 . S
H1272 C1282 0.950 . S
H1273 C1284 0.950 . S
H1274 C1286 0.950 . S
H1275 C1287 0.950 . S
C1276 H1268 0.950 . S
C1276 C1277 1.386 . S
C1276 C1278 1.391 . S
C1277 C1276 1.386 . S
C1277 C1281 1.393 . S
C1278 H1270 0.950 . S
C1278 C1276 1.391 . S
C1278 C1279 1.400 . S
C1279 C1278 1.400 . S
C1279 C1280 1.398 . S
C1279 C1285 1.491 . S
C1280 H1271 0.950 . S
C1280 C1279 1.398 . S
C1280 C1281 1.391 . S
C1281 H1269 0.950 . S
C1281 C1277 1.393 . S
C1281 C1280 1.391 . S
C1282 H1272 0.950 . S
C1282 C1283 1.386 . S
C1282 C1284 1.391 . S
C1283 C1282 1.386 . S
C1283 C1287 1.393 . S
C1284 H1273 0.950 . S
C1284 C1282 1.391 . S
C1284 C1285 1.400 . S
C1285 C1279 1.491 . S
C1285 C1284 1.400 . S
C1285 C1286 1.398 . S
C1286 H1274 0.950 . S
C1286 C1285 1.398 . S
C1286 C1287 1.391 . S
C1287 H1275 0.950 . S
C1287 C1283 1.393 . S
C1287 C1286 1.391 . S
H1288 C1296 0.950 . S
H1289 C1301 0.950 . S
H1290 C1298 0.950 . S
H1291 C1300 0.950 . S
H1292 C1302 0.950 . S
H1293 C1304 0.950 . S
H1294 C1306 0.950 . S
H1295 C1307 0.950 . S
C1296 H1288 0.950 . S
C1296 C1297 1.386 . S
C1296 C1298 1.391 . S
C1297 C1296 1.386 . S
C1297 C1301 1.393 . S
C1298 H1290 0.950 . S
C1298 C1296 1.391 . S
C1298 C1299 1.400 . S
C1299 C1298 1.400 . S
C1299 C1300 1.398 . S
C1299 C1305 1.491 . S
C1300 H1291 0.950 . S
C1300 C1299 1.398 . S
C1300 C1301 1.391 . S
C1301 H1289 0.950 . S
C1301 C1297 1.393 . S
C1301 C1300 1.391 . S
C1302 H1292 0.950 . S
C1302 C1303 1.386 . S
C1302 C1304 1.391 . S
C1303 C1302 1.386 . S
C1303 C1307 1.393 . S
C1304 H1293 0.950 . S
C1304 C1302 1.391 . S
C1304 C1305 1.400 . S
C1305 C1299 1.491 . S
C1305 C1304 1.400 . S
C1305 C1306 1.398 . S
C1306 H1294 0.950 . S
C1306 C1305 1.398 . S
C1306 C1307 1.391 . S
C1307 H1295 0.950 . S
C1307 C1303 1.393 . S
C1307 C1306 1.391 . S
H1308 C1316 0.950 . S
H1309 C1321 0.950 . S
H1310 C1318 0.950 . S
H1311 C1320 0.950 . S
H1312 C1322 0.950 . S
H1313 C1324 0.950 . S
H1314 C1326 0.950 . S
H1315 C1327 0.950 . S
C1316 H1308 0.950 . S
C1316 C1317 1.386 . S
C1316 C1318 1.391 . S
C1317 C1316 1.386 . S
C1317 C1321 1.393 . S
C1318 H1310 0.950 . S
C1318 C1316 1.391 . S
C1318 C1319 1.400 . S
C1319 C1318 1.400 . S
C1319 C1320 1.398 . S
C1319 C1325 1.491 . S
C1320 H1311 0.950 . S
C1320 C1319 1.398 . S
C1320 C1321 1.391 . S
C1321 H1309 0.950 . S
C1321 C1317 1.393 . S
C1321 C1320 1.391 . S
C1322 H1312 0.950 . S
C1322 C1323 1.386 . S
C1322 C1324 1.391 . S
C1323 C1322 1.386 . S
C1323 C1327 1.393 . S
C1324 H1313 0.950 . S
C1324 C1322 1.391 . S
C1324 C1325 1.400 . S
C1325 C1319 1.491 . S
C1325 C1324 1.400 . S
C1325 C1326 1.398 . S
C1326 H1314 0.950 . S
C1326 C1325 1.398 . S
C1326 C1327 1.391 . S
C1327 H1315 0.950 . S
C1327 C1323 1.393 . S
C1327 C1326 1.391 . S
H1328 C1336 0.950 . S
H1329 C1341 0.950 . S
H1330 C1338 0.950 . S
H1331 C1340 0.950 . S
H1332 C1342 0.950 . S
H1333 C1344 0.950 . S
H1334 C1346 0.950 . S
H1335 C1347 0.950 . S
C1336 H1328 0.950 . S
C1336 C1337 1.386 . S
C1336 C1338 1.391 . S
C1337 C1336 1.386 . S
C1337 C1341 1.393 . S
C1338 H1330 0.950 . S
C1338 C1336 1.391 . S
C1338 C1339 1.400 . S
C1339 C1338 1.400 . S
C1339 C1340 1.398 . S
C1339 C1345 1.491 . S
C1340 H1331 0.950 . S
C1340 C1339 1.398 . S
C1340 C1341 1.391 . S
C1341 H1329 0.950 . S
C1341 C1337 1.393 . S
C1341 C1340 1.391 . S
C1342 H1332 0.950 . S
C1342 C1343 1.386 . S
C1342 C1344 1.391 . S
C1343 C1342 1.386 . S
C1343 C1347 1.393 . S
C1344 H1333 0.950 . S
C1344 C1342 1.391 . S
C1344 C1345 1.400 . S
C1345 C1339 1.491 . S
C1345 C1344 1.400 . S
C1345 C1346 1.398 . S
C1346 H1334 0.950 . S
C1346 C1345 1.398 . S
C1346 C1347 1.391 . S
C1347 H1335 0.950 . S
C1347 C1343 1.393 . S
C1347 C1346 1.391 . S
H1348 C1356 0.950 . S
H1349 C1361 0.950 . S
H1350 C1358 0.950 . S
H1351 C1360 0.950 . S
H1352 C1362 0.950 . S
H1353 C1364 0.950 . S
H1354 C1366 0.950 . S
H1355 C1367 0.950 . S
C1356 H1348 0.950 . S
C1356 C1357 1.386 . S
C1356 C1358 1.391 . S
C1357 C1356 1.386 . S
C1357 C1361 1.393 . S
C1358 H1350 0.950 . S
C1358 C1356 1.391 . S
C1358 C1359 1.400 . S
C1359 C1358 1.400 . S
C1359 C1360 1.398 . S
C1359 C1365 1.491 . S
C1360 H1351 0.950 . S
C1360 C1359 1.398 . S
C1360 C1361 1.391 . S
C1361 H1349 0.950 . S
C1361 C1357 1.393 . S
C1361 C1360 1.391 . S
C1362 H1352 0.950 . S
C1362 C1363 1.386 . S
C1362 C1364 1.391 . S
C1363 C1362 1.386 . S
C1363 C1367 1.393 . S
C1364 H1353 0.950 . S
C1364 C1362 1.391 . S
C1364 C1365 1.400 . S
C1365 C1359 1.491 . S
C1365 C1364 1.400 . S
C1365 C1366 1.398 . S
C1366 H1354 0.950 . S
C1366 C1365 1.398 . S
C1366 C1367 1.391 . S
C1367 H1355 0.950 . S
C1367 C1363 1.393 . S
C1367 C1366 1.391 . S
H1368 C1376 0.950 . S
H1369 C1381 0.950 . S
H1370 C1378 0.950 . S
H1371 C1380 0.950 . S
H1372 C1382 0.950 . S
H1373 C1384 0.950 . S
H1374 C1386 0.950 . S
H1375 C1387 0.950 . S
C1376 H1368 0.950 . S
C1376 C1377 1.386 . S
C1376 C1378 1.391 . S
C1377 C1376 1.386 . S
C1377 C1381 1.393 . S
C1378 H1370 0.950 . S
C1378 C1376 1.391 . S
C1378 C1379 1.400 . S
C1379 C1378 1.400 . S
C1379 C1380 1.398 . S
C1379 C1385 1.491 . S
C1380 H1371 0.950 . S
C1380 C1379 1.398 . S
C1380 C1381 1.391 . S
C1381 H1369 0.950 . S
C1381 C1377 1.393 . S
C1381 C1380 1.391 . S
C1382 H1372 0.950 . S
C1382 C1383 1.386 . S
C1382 C1384 1.391 . S
C1383 C1382 1.386 . S
C1383 C1387 1.393 . S
C1384 H1373 0.950 . S
C1384 C1382 1.391 . S
C1384 C1385 1.400 . S
C1385 C1379 1.491 . S
C1385 C1384 1.400 . S
C1385 C1386 1.398 . S
C1386 H1374 0.950 . S
C1386 C1385 1.398 . S
C1386 C1387 1.391 . S
C1387 H1375 0.950 . S
C1387 C1383 1.393 . S
C1387 C1386 1.391 . S
H1388 C1396 0.950 . S
H1389 C1401 0.950 . S
H1390 C1398 0.950 . S
H1391 C1400 0.950 . S
H1392 C1402 0.950 . S
H1393 C1404 0.950 . S
H1394 C1406 0.950 . S
H1395 C1407 0.950 . S
C1396 H1388 0.950 . S
C1396 C1397 1.386 . S
C1396 C1398 1.391 . S
C1397 C1396 1.386 . S
C1397 C1401 1.393 . S
C1398 H1390 0.950 . S
C1398 C1396 1.391 . S
C1398 C1399 1.400 . S
C1399 C1398 1.400 . S
C1399 C1400 1.398 . S
C1399 C1405 1.491 . S
C1400 H1391 0.950 . S
C1400 C1399 1.398 . S
C1400 C1401 1.391 . S
C1401 H1389 0.950 . S
C1401 C1397 1.393 . S
C1401 C1400 1.391 . S
C1402 H1392 0.950 . S
C1402 C1403 1.386 . S
C1402 C1404 1.391 . S
C1403 C1402 1.386 . S
C1403 C1407 1.393 . S
C1404 H1393 0.950 . S
C1404 C1402 1.391 . S
C1404 C1405 1.400 . S
C1405 C1399 1.491 . S
C1405 C1404 1.400 . S
C1405 C1406 1.398 . S
C1406 H1394 0.950 . S
C1406 C1405 1.398 . S
C1406 C1407 1.391 . S
C1407 H1395 0.950 . S
C1407 C1403 1.393 . S
C1407 C1406 1.391 . S
H1408 C1416 0.950 . S
H1409 C1421 0.950 . S
H1410 C1418 0.950 . S
H1411 C1420 0.950 . S
H1412 C1422 0.950 . S
H1413 C1424 0.950 . S
H1414 C1426 0.950 . S
H1415 C1427 0.950 . S
C1416 H1408 0.950 . S
C1416 C1417 1.386 . S
C1416 C1418 1.391 . S
C1417 C1416 1.386 . S
C1417 C1421 1.393 . S
C1418 H1410 0.950 . S
C1418 C1416 1.391 . S
C1418 C1419 1.400 . S
C1419 C1418 1.400 . S
C1419 C1420 1.398 . S
C1419 C1425 1.491 . S
C1420 H1411 0.950 . S
C1420 C1419 1.398 . S
C1420 C1421 1.391 . S
C1421 H1409 0.950 . S
C1421 C1417 1.393 . S
C1421 C1420 1.391 . S
C1422 H1412 0.950 . S
C1422 C1423 1.386 . S
C1422 C1424 1.391 . S
C1423 C1422 1.386 . S
C1423 C1427 1.393 . S
C1424 H1413 0.950 . S
C1424 C1422 1.391 . S
C1424 C1425 1.400 . S
C1425 C1419 1.491 . S
C1425 C1424 1.400 . S
C1425 C1426 1.398 . S
C1426 H1414 0.950 . S
C1426 C1425 1.398 . S
C1426 C1427 1.391 . S
C1427 H1415 0.950 . S
C1427 C1423 1.393 . S
C1427 C1426 1.391 . S
H1428 C1436 0.950 . S
H1429 C1441 0.950 . S
H1430 C1438 0.950 . S
H1431 C1440 0.950 . S
H1432 C1442 0.950 . S
H1433 C1444 0.950 . S
H1434 C1446 0.950 . S
H1435 C1447 0.950 . S
C1436 H1428 0.950 . S
C1436 C1437 1.386 . S
C1436 C1438 1.391 . S
C1437 C1436 1.386 . S
C1437 C1441 1.393 . S
C1438 H1430 0.950 . S
C1438 C1436 1.391 . S
C1438 C1439 1.400 . S
C1439 C1438 1.400 . S
C1439 C1440 1.398 . S
C1439 C1445 1.491 . S
C1440 H1431 0.950 . S
C1440 C1439 1.398 . S
C1440 C1441 1.391 . S
C1441 H1429 0.950 . S
C1441 C1437 1.393 . S
C1441 C1440 1.391 . S
C1442 H1432 0.950 . S
C1442 C1443 1.386 . S
C1442 C1444 1.391 . S
C1443 C1442 1.386 . S
C1443 C1447 1.393 . S
C1444 H1433 0.950 . S
C1444 C1442 1.391 . S
C1444 C1445 1.400 . S
C1445 C1439 1.491 . S
C1445 C1444 1.400 . S
C1445 C1446 1.398 . S
C1446 H1434 0.950 . S
C1446 C1445 1.398 . S
C1446 C1447 1.391 . S
C1447 H1435 0.950 . S
C1447 C1443 1.393 . S
C1447 C1446 1.391 . S
H1448 C1456 0.950 . S
H1449 C1461 0.950 . S
H1450 C1458 0.950 . S
H1451 C1460 0.950 . S
H1452 C1462 0.950 . S
H1453 C1464 0.950 . S
H1454 C1466 0.950 . S
H1455 C1467 0.950 . S
C1456 H1448 0.950 . S
C1456 C1457 1.386 . S
C1456 C1458 1.391 . S
C1457 C1456 1.386 . S
C1457 C1461 1.393 . S
C1458 H1450 0.950 . S
C1458 C1456 1.391 . S
C1458 C1459 1.400 . S
C1459 C1458 1.400 . S
C1459 C1460 1.398 . S
C1459 C1465 1.491 . S
C1460 H1451 0.950 . S
C1460 C1459 1.398 . S
C1460 C1461 1.391 . S
C1461 H1449 0.950 . S
C1461 C1457 1.393 . S
C1461 C1460 1.391 . S
C1462 H1452 0.950 . S
C1462 C1463 1.386 . S
C1462 C1464 1.391 . S
C1463 C1462 1.386 . S
C1463 C1467 1.393 . S
C1464 H1453 0.950 . S
C1464 C1462 1.391 . S
C1464 C1465 1.400 . S
C1465 C1459 1.491 . S
C1465 C1464 1.400 . S
C1465 C1466 1.398 . S
C1466 H1454 0.950 . S
C1466 C1465 1.398 . S
C1466 C1467 1.391 . S
C1467 H1455 0.950 . S
C1467 C1463 1.393 . S
C1467 C1466 1.391 . S
H1468 C1476 0.950 . S
H1469 C1481 0.950 . S
H1470 C1478 0.950 . S
H1471 C1480 0.950 . S
H1472 C1482 0.950 . S
H1473 C1484 0.950 . S
H1474 C1486 0.950 . S
H1475 C1487 0.950 . S
C1476 H1468 0.950 . S
C1476 C1477 1.386 . S
C1476 C1478 1.391 . S
C1477 C1476 1.386 . S
C1477 C1481 1.393 . S
C1478 H1470 0.950 . S
C1478 C1476 1.391 . S
C1478 C1479 1.400 . S
C1479 C1478 1.400 . S
C1479 C1480 1.398 . S
C1479 C1485 1.491 . S
C1480 H1471 0.950 . S
C1480 C1479 1.398 . S
C1480 C1481 1.391 . S
C1481 H1469 0.950 . S
C1481 C1477 1.393 . S
C1481 C1480 1.391 . S
C1482 H1472 0.950 . S
C1482 C1483 1.386 . S
C1482 C1484 1.391 . S
C1483 C1482 1.386 . S
C1483 C1487 1.393 . S
C1484 H1473 0.950 . S
C1484 C1482 1.391 . S
C1484 C1485 1.400 . S
C1485 C1479 1.491 . S
C1485 C1484 1.400 . S
C1485 C1486 1.398 . S
C1486 H1474 0.950 . S
C1486 C1485 1.398 . S
C1486 C1487 1.391 . S
C1487 H1475 0.950 . S
C1487 C1483 1.393 . S
C1487 C1486 1.391 . S
H1488 C1496 0.950 . S
H1489 C1501 0.950 . S
H1490 C1498 0.950 . S
H1491 C1500 0.950 . S
H1492 C1502 0.950 . S
H1493 C1504 0.950 . S
H1494 C1506 0.950 . S
H1495 C1507 0.950 . S
C1496 H1488 0.950 . S
C1496 C1497 1.386 . S
C1496 C1498 1.391 . S
C1497 C1496 1.386 . S
C1497 C1501 1.393 . S
C1498 H1490 0.950 . S
C1498 C1496 1.391 . S
C1498 C1499 1.400 . S
C1499 C1498 1.400 . S
C1499 C1500 1.398 . S
C1499 C1505 1.491 . S
C1500 H1491 0.950 . S
C1500 C1499 1.398 . S
C1500 C1501 1.391 . S
C1501 H1489 0.950 . S
C1501 C1497 1.393 . S
C1501 C1500 1.391 . S
C1502 H1492 0.950 . S
C1502 C1503 1.386 . S
C1502 C1504 1.391 . S
C1503 C1502 1.386 . S
C1503 C1507 1.393 . S
C1504 H1493 0.950 . S
C1504 C1502 1.391 . S
C1504 C1505 1.400 . S
C1505 C1499 1.491 . S
C1505 C1504 1.400 . S
C1505 C1506 1.398 . S
C1506 H1494 0.950 . S
C1506 C1505 1.398 . S
C1506 C1507 1.391 . S
C1507 H1495 0.950 . S
C1507 C1503 1.393 . S
C1507 C1506 1.391 . S
H1508 C1516 0.950 . S
H1509 C1521 0.950 . S
H1510 C1518 0.950 . S
H1511 C1520 0.950 . S
H1512 C1522 0.950 . S
H1513 C1524 0.950 . S
H1514 C1526 0.950 . S
H1515 C1527 0.950 . S
C1516 H1508 0.950 . S
C1516 C1517 1.386 . S
C1516 C1518 1.391 . S
C1517 C1516 1.386 . S
C1517 C1521 1.393 . S
C1518 H1510 0.950 . S
C1518 C1516 1.391 . S
C1518 C1519 1.400 . S
C1519 C1518 1.400 . S
C1519 C1520 1.398 . S
C1519 C1525 1.491 . S
C1520 H1511 0.950 . S
C1520 C1519 1.398 . S
C1520 C1521 1.391 . S
C1521 H1509 0.950 . S
C1521 C1517 1.393 . S
C1521 C1520 1.391 . S
C1522 H1512 0.950 . S
C1522 C1523 1.386 . S
C1522 C1524 1.391 . S
C1523 C1522 1.386 . S
C1523 C1527 1.393 . S
C1524 H1513 0.950 . S
C1524 C1522 1.391 . S
C1524 C1525 1.400 . S
C1525 C1519 1.491 . S
C1525 C1524 1.400 . S
C1525 C1526 1.398 . S
C1526 H1514 0.950 . S
C1526 C1525 1.398 . S
C1526 C1527 1.391 . S
C1527 H1515 0.950 . S
C1527 C1523 1.393 . S
C1527 C1526 1.391 . S
H1528 C1536 0.950 . S
H1529 C1541 0.950 . S
H1530 C1538 0.950 . S
H1531 C1540 0.950 . S
H1532 C1542 0.950 . S
H1533 C1544 0.950 . S
H1534 C1546 0.950 . S
H1535 C1547 0.950 . S
C1536 H1528 0.950 . S
C1536 C1537 1.386 . S
C1536 C1538 1.391 . S
C1537 C1536 1.386 . S
C1537 C1541 1.393 . S
C1538 H1530 0.950 . S
C1538 C1536 1.391 . S
C1538 C1539 1.400 . S
C1539 C1538 1.400 . S
C1539 C1540 1.398 . S
C1539 C1545 1.491 . S
C1540 H1531 0.950 . S
C1540 C1539 1.398 . S
C1540 C1541 1.391 . S
C1541 H1529 0.950 . S
C1541 C1537 1.393 . S
C1541 C1540 1.391 . S
C1542 H1532 0.950 . S
C1542 C1543 1.386 . S
C1542 C1544 1.391 . S
C1543 C1542 1.386 . S
C1543 C1547 1.393 . S
C1544 H1533 0.950 . S
C1544 C1542 1.391 . S
C1544 C1545 1.400 . S
C1545 C1539 1.491 . S
C1545 C1544 1.400 . S
C1545 C1546 1.398 . S
C1546 H1534 0.950 . S
C1546 C1545 1.398 . S
C1546 C1547 1.391 . S
C1547 H1535 0.950 . S
C1547 C1543 1.393 . S
C1547 C1546 1.391 . S
H1548 C1556 0.950 . S
H1549 C1561 0.950 . S
H1550 C1558 0.950 . S
H1551 C1560 0.950 . S
H1552 C1562 0.950 . S
H1553 C1564 0.950 . S
H1554 C1566 0.950 . S
H1555 C1567 0.950 . S
C1556 H1548 0.950 . S
C1556 C1557 1.386 . S
C1556 C1558 1.391 . S
C1557 C1556 1.386 . S
C1557 C1561 1.393 . S
C1558 H1550 0.950 . S
C1558 C1556 1.391 . S
C1558 C1559 1.400 . S
C1559 C1558 1.400 . S
C1559 C1560 1.398 . S
C1559 C1565 1.491 . S
C1560 H1551 0.950 . S
C1560 C1559 1.398 . S
C1560 C1561 1.391 . S
C1561 H1549 0.950 . S
C1561 C1557 1.393 . S
C1561 C1560 1.391 . S
C1562 H1552 0.950 . S
C1562 C1563 1.386 . S
C1562 C1564 1.391 . S
C1563 C1562 1.386 . S
C1563 C1567 1.393 . S
C1564 H1553 0.950 . S
C1564 C1562 1.391 . S
C1564 C1565 1.400 . S
C1565 C1559 1.491 . S
C1565 C1564 1.400 . S
C1565 C1566 1.398 . S
C1566 H1554 0.950 . S
C1566 C1565 1.398 . S
C1566 C1567 1.391 . S
C1567 H1555 0.950 . S
C1567 C1563 1.393 . S
C1567 C1566 1.391 . S
H1568 C1576 0.950 . S
H1569 C1581 0.950 . S
H1570 C1578 0.950 . S
H1571 C1580 0.950 . S
H1572 C1582 0.950 . S
H1573 C1584 0.950 . S
H1574 C1586 0.950 . S
H1575 C1587 0.950 . S
C1576 H1568 0.950 . S
C1576 C1577 1.386 . S
C1576 C1578 1.391 . S
C1577 C1576 1.386 . S
C1577 C1581 1.393 . S
C1578 H1570 0.950 . S
C1578 C1576 1.391 . S
C1578 C1579 1.400 . S
C1579 C1578 1.400 . S
C1579 C1580 1.398 . S
C1579 C1585 1.491 . S
C1580 H1571 0.950 . S
C1580 C1579 1.398 . S
C1580 C1581 1.391 . S
C1581 H1569 0.950 . S
C1581 C1577 1.393 . S
C1581 C1580 1.391 . S
C1582 H1572 0.950 . S
C1582 C1583 1.386 . S
C1582 C1584 1.391 . S
C1583 C1582 1.386 . S
C1583 C1587 1.393 . S
C1584 H1573 0.950 . S
C1584 C1582 1.391 . S
C1584 C1585 1.400 . S
C1585 C1579 1.491 . S
C1585 C1584 1.400 . S
C1585 C1586 1.398 . S
C1586 H1574 0.950 . S
C1586 C1585 1.398 . S
C1586 C1587 1.391 . S
C1587 H1575 0.950 . S
C1587 C1583 1.393 . S
C1587 C1586 1.391 . S
H1588 C1596 0.950 . S
H1589 C1601 0.950 . S
H1590 C1598 0.950 . S
H1591 C1600 0.950 . S
H1592 C1602 0.950 . S
H1593 C1604 0.950 . S
H1594 C1606 0.950 . S
H1595 C1607 0.950 . S
C1596 H1588 0.950 . S
C1596 C1597 1.386 . S
C1596 C1598 1.391 . S
C1597 C1596 1.386 . S
C1597 C1601 1.393 . S
C1598 H1590 0.950 . S
C1598 C1596 1.391 . S
C1598 C1599 1.400 . S
C1599 C1598 1.400 . S
C1599 C1600 1.398 . S
C1599 C1605 1.491 . S
C1600 H1591 0.950 . S
C1600 C1599 1.398 . S
C1600 C1601 1.391 . S
C1601 H1589 0.950 . S
C1601 C1597 1.393 . S
C1601 C1600 1.391 . S
C1602 H1592 0.950 . S
C1602 C1603 1.386 . S
C1602 C1604 1.391 . S
C1603 C1602 1.386 . S
C1603 C1607 1.393 . S
C1604 H1593 0.950 . S
C1604 C1602 1.391 . S
C1604 C1605 1.400 . S
C1605 C1599 1.491 . S
C1605 C1604 1.400 . S
C1605 C1606 1.398 . S
C1606 H1594 0.950 . S
C1606 C1605 1.398 . S
C1606 C1607 1.391 . S
C1607 H1595 0.950 . S
C1607 C1603 1.393 . S
C1607 C1606 1.391 . S
H1608 C1616 0.950 . S
H1609 C1621 0.950 . S
H1610 C1618 0.950 . S
H1611 C1620 0.950 . S
H1612 C1622 0.950 . S
H1613 C1624 0.950 . S
H1614 C1626 0.950 . S
H1615 C1627 0.950 . S
C1616 H1608 0.950 . S
C1616 C1617 1.386 . S
C1616 C1618 1.391 . S
C1617 C1616 1.386 . S
C1617 C1621 1.393 . S
C1618 H1610 0.950 . S
C1618 C1616 1.391 . S
C1618 C1619 1.400 . S
C1619 C1618 1.400 . S
C1619 C1620 1.398 . S
C1619 C1625 1.491 . S
C1620 H1611 0.950 . S
C1620 C1619 1.398 . S
C1620 C1621 1.391 . S
C1621 H1609 0.950 . S
C1621 C1617 1.393 . S
C1621 C1620 1.391 . S
C1622 H1612 0.950 . S
C1622 C1623 1.386 . S
C1622 C1624 1.391 . S
C1623 C1622 1.386 . S
C1623 C1627 1.393 . S
C1624 H1613 0.950 . S
C1624 C1622 1.391 . S
C1624 C1625 1.400 . S
C1625 C1619 1.491 . S
C1625 C1624 1.400 . S
C1625 C1626 1.398 . S
C1626 H1614 0.950 . S
C1626 C1625 1.398 . S
C1626 C1627 1.391 . S
C1627 H1615 0.950 . S
C1627 C1623 1.393 . S
C1627 C1626 1.391 . S
H1628 C1636 0.950 . S
H1629 C1641 0.950 . S
H1630 C1638 0.950 . S
H1631 C1640 0.950 . S
H1632 C1642 0.950 . S
H1633 C1644 0.950 . S
H1634 C1646 0.950 . S
H1635 C1647 0.950 . S
C1636 H1628 0.950 . S
C1636 C1637 1.386 . S
C1636 C1638 1.391 . S
C1637 C1636 1.386 . S
C1637 C1641 1.393 . S
C1638 H1630 0.950 . S
C1638 C1636 1.391 . S
C1638 C1639 1.400 . S
C1639 C1638 1.400 . S
C1639 C1640 1.398 . S
C1639 C1645 1.491 . S
C1640 H1631 0.950 . S
C1640 C1639 1.398 . S
C1640 C1641 1.391 . S
C1641 H1629 0.950 . S
C1641 C1637 1.393 . S
C1641 C1640 1.391 . S
C1642 H1632 0.950 . S
C1642 C1643 1.386 . S
C1642 C1644 1.391 . S
C1643 C1642 1.386 . S
C1643 C1647 1.393 . S
C1644 H1633 0.950 . S
C1644 C1642 1.391 . S
C1644 C1645 1.400 . S
C1645 C1639 1.491 . S
C1645 C1644 1.400 . S
C1645 C1646 1.398 . S
C1646 H1634 0.950 . S
C1646 C1645 1.398 . S
C1646 C1647 1.391 . S
C1647 H1635 0.950 . S
C1647 C1643 1.393 . S
C1647 C1646 1.391 . S
H1648 C1656 0.950 . S
H1649 C1661 0.950 . S
H1650 C1658 0.950 . S
H1651 C1660 0.950 . S
H1652 C1662 0.950 . S
H1653 C1664 0.950 . S
H1654 C1666 0.950 . S
H1655 C1667 0.950 . S
C1656 H1648 0.950 . S
C1656 C1657 1.386 . S
C1656 C1658 1.391 . S
C1657 C1656 1.386 . S
C1657 C1661 1.393 . S
C1658 H1650 0.950 . S
C1658 C1656 1.391 . S
C1658 C1659 1.400 . S
C1659 C1658 1.400 . S
C1659 C1660 1.398 . S
C1659 C1665 1.491 . S
C1660 H1651 0.950 . S
C1660 C1659 1.398 . S
C1660 C1661 1.391 . S
C1661 H1649 0.950 . S
C1661 C1657 1.393 . S
C1661 C1660 1.391 . S
C1662 H1652 0.950 . S
C1662 C1663 1.386 . S
C1662 C1664 1.391 . S
C1663 C1662 1.386 . S
C1663 C1667 1.393 . S
C1664 H1653 0.950 . S
C1664 C1662 1.391 . S
C1664 C1665 1.400 . S
C1665 C1659 1.491 . S
C1665 C1664 1.400 . S
C1665 C1666 1.398 . S
C1666 H1654 0.950 . S
C1666 C1665 1.398 . S
C1666 C1667 1.391 . S
C1667 H1655 0.950 . S
C1667 C1663 1.393 . S
C1667 C1666 1.391 . S
H1668 C1676 0.950 . S
H1669 C1681 0.950 . S
H1670 C1678 0.950 . S
H1671 C1680 0.950 . S
H1672 C1682 0.950 . S
H1673 C1684 0.950 . S
H1674 C1686 0.950 . S
H1675 C1687 0.950 . S
C1676 H1668 0.950 . S
C1676 C1677 1.386 . S
C1676 C1678 1.391 . S
C1677 C1676 1.386 . S
C1677 C1681 1.393 . S
C1678 H1670 0.950 . S
C1678 C1676 1.391 . S
C1678 C1679 1.400 . S
C1679 C1678 1.400 . S
C1679 C1680 1.398 . S
C1679 C1685 1.491 . S
C1680 H1671 0.950 . S
C1680 C1679 1.398 . S
C1680 C1681 1.391 . S
C1681 H1669 0.950 . S
C1681 C1677 1.393 . S
C1681 C1680 1.391 . S
C1682 H1672 0.950 . S
C1682 C1683 1.386 . S
C1682 C1684 1.391 . S
C1683 C1682 1.386 . S
C1683 C1687 1.393 . S
C1684 H1673 0.950 . S
C1684 C1682 1.391 . S
C1684 C1685 1.400 . S
C1685 C1679 1.491 . S
C1685 C1684 1.400 . S
C1685 C1686 1.398 . S
C1686 H1674 0.950 . S
C1686 C1685 1.398 . S
C1686 C1687 1.391 . S
C1687 H1675 0.950 . S
C1687 C1683 1.393 . S
C1687 C1686 1.391 . S
H1688 C1696 0.950 . S
H1689 C1701 0.950 . S
H1690 C1698 0.950 . S
H1691 C1700 0.950 . S
H1692 C1702 0.950 . S
H1693 C1704 0.950 . S
H1694 C1706 0.950 . S
H1695 C1707 0.950 . S
C1696 H1688 0.950 . S
C1696 C1697 1.386 . S
C1696 C1698 1.391 . S
C1697 C1696 1.386 . S
C1697 C1701 1.393 . S
C1698 H1690 0.950 . S
C1698 C1696 1.391 . S
C1698 C1699 1.400 . S
C1699 C1698 1.400 . S
C1699 C1700 1.398 . S
C1699 C1705 1.491 . S
C1700 H1691 0.950 . S
C1700 C1699 1.398 . S
C1700 C1701 1.391 . S
C1701 H1689 0.950 . S
C1701 C1697 1.393 . S
C1701 C1700 1.391 . S
C1702 H1692 0.950 . S
C1702 C1703 1.386 . S
C1702 C1704 1.391 . S
C1703 C1702 1.386 . S
C1703 C1707 1.393 . S
C1704 H1693 0.950 . S
C1704 C1702 1.391 . S
C1704 C1705 1.400 . S
C1705 C1699 1.491 . S
C1705 C1704 1.400 . S
C1705 C1706 1.398 . S
C1706 H1694 0.950 . S
C1706 C1705 1.398 . S
C1706 C1707 1.391 . S
C1707 H1695 0.950 . S
C1707 C1703 1.393 . S
C1707 C1706 1.391 . S
H1708 C1716 0.950 . S
H1709 C1721 0.950 . S
H1710 C1718 0.950 . S
H1711 C1720 0.950 . S
H1712 C1722 0.950 . S
H1713 C1724 0.950 . S
H1714 C1726 0.950 . S
H1715 C1727 0.950 . S
C1716 H1708 0.950 . S
C1716 C1717 1.386 . S
C1716 C1718 1.391 . S
C1717 C1716 1.386 . S
C1717 C1721 1.393 . S
C1718 H1710 0.950 . S
C1718 C1716 1.391 . S
C1718 C1719 1.400 . S
C1719 C1718 1.400 . S
C1719 C1720 1.398 . S
C1719 C1725 1.491 . S
C1720 H1711 0.950 . S
C1720 C1719 1.398 . S
C1720 C1721 1.391 . S
C1721 H1709 0.950 . S
C1721 C1717 1.393 . S
C1721 C1720 1.391 . S
C1722 H1712 0.950 . S
C1722 C1723 1.386 . S
C1722 C1724 1.391 . S
C1723 C1722 1.386 . S
C1723 C1727 1.393 . S
C1724 H1713 0.950 . S
C1724 C1722 1.391 . S
C1724 C1725 1.400 . S
C1725 C1719 1.491 . S
C1725 C1724 1.400 . S
C1725 C1726 1.398 . S
C1726 H1714 0.950 . S
C1726 C1725 1.398 . S
C1726 C1727 1.391 . S
C1727 H1715 0.950 . S
C1727 C1723 1.393 . S
C1727 C1726 1.391 . S
H1728 C1736 0.950 . S
H1729 C1741 0.950 . S
H1730 C1738 0.950 . S
H1731 C1740 0.950 . S
H1732 C1742 0.950 . S
H1733 C1744 0.950 . S
H1734 C1746 0.950 . S
H1735 C1747 0.950 . S
C1736 H1728 0.950 . S
C1736 C1737 1.386 . S
C1736 C1738 1.391 . S
C1737 C1736 1.386 . S
C1737 C1741 1.393 . S
C1738 H1730 0.950 . S
C1738 C1736 1.391 . S
C1738 C1739 1.400 . S
C1739 C1738 1.400 . S
C1739 C1740 1.398 . S
C1739 C1745 1.491 . S
C1740 H1731 0.950 . S
C1740 C1739 1.398 . S
C1740 C1741 1.391 . S
C1741 H1729 0.950 . S
C1741 C1737 1.393 . S
C1741 C1740 1.391 . S
C1742 H1732 0.950 . S
C1742 C1743 1.386 . S
C1742 C1744 1.391 . S
C1743 C1742 1.386 . S
C1743 C1747 1.393 . S
C1744 H1733 0.950 . S
C1744 C1742 1.391 . S
C1744 C1745 1.400 . S
C1745 C1739 1.491 . S
C1745 C1744 1.400 . S
C1745 C1746 1.398 . S
C1746 H1734 0.950 . S
C1746 C1745 1.398 . S
C1746 C1747 1.391 . S
C1747 H1735 0.950 . S
C1747 C1743 1.393 . S
C1747 C1746 1.391 . S
H1748 C1756 0.950 . S
H1749 C1761 0.950 . S
H1750 C1758 0.950 . S
H1751 C1760 0.950 . S
H1752 C1762 0.950 . S
H1753 C1764 0.950 . S
H1754 C1766 0.950 . S
H1755 C1767 0.950 . S
C1756 H1748 0.950 . S
C1756 C1757 1.386 . S
C1756 C1758 1.391 . S
C1757 C1756 1.386 . S
C1757 C1761 1.393 . S
C1758 H1750 0.950 . S
C1758 C1756 1.391 . S
C1758 C1759 1.400 . S
C1759 C1758 1.400 . S
C1759 C1760 1.398 . S
C1759 C1765 1.491 . S
C1760 H1751 0.950 . S
C1760 C1759 1.398 . S
C1760 C1761 1.391 . S
C1761 H1749 0.950 . S
C1761 C1757 1.393 . S
C1761 C1760 1.391 . S
C1762 H1752 0.950 . S
C1762 C1763 1.386 . S
C1762 C1764 1.391 . S
C1763 C1762 1.386 . S
C1763 C1767 1.393 . S
C1764 H1753 0.950 . S
C1764 C1762 1.391 . S
C1764 C1765 1.400 . S
C1765 C1759 1.491 . S
C1765 C1764 1.400 . S
C1765 C1766 1.398 . S
C1766 H1754 0.950 . S
C1766 C1765 1.398 . S
C1766 C1767 1.391 . S
C1767 H1755 0.950 . S
C1767 C1763 1.393 . S
C1767 C1766 1.391 . S
H1768 C1776 0.950 . S
H1769 C1781 0.950 . S
H1770 C1778 0.950 . S
H1771 C1780 0.950 . S
H1772 C1782 0.950 . S
H1773 C1784 0.950 . S
H1774 C1786 0.950 . S
H1775 C1787 0.950 . S
C1776 H1768 0.950 . S
C1776 C1777 1.386 . S
C1776 C1778 1.391 . S
C1777 C1776 1.386 . S
C1777 C1781 1.393 . S
C1778 H1770 0.950 . S
C1778 C1776 1.391 . S
C1778 C1779 1.400 . S
C1779 C1778 1.400 . S
C1779 C1780 1.398 . S
C1779 C1785 1.491 . S
C1780 H1771 0.950 . S
C1780 C1779 1.398 . S
C1780 C1781 1.391 . S
C1781 H1769 0.950 . S
C1781 C1777 1.393 . S
C1781 C1780 1.391 . S
C1782 H1772 0.950 . S
C1782 C1783 1.386 . S
C1782 C1784 1.391 . S
C1783 C1782 1.386 . S
C1783 C1787 1.393 . S
C1784 H1773 0.950 . S
C1784 C1782 1.391 . S
C1784 C1785 1.400 . S
C1785 C1779 1.491 . S
C1785 C1784 1.400 . S
C1785 C1786 1.398 . S
C1786 H1774 0.950 . S
C1786 C1785 1.398 . S
C1786 C1787 1.391 . S
C1787 H1775 0.950 . S
C1787 C1783 1.393 . S
C1787 C1786 1.391 . S
H1788 C1796 0.950 . S
H1789 C1801 0.950 . S
H1790 C1798 0.950 . S
H1791 C1800 0.950 . S
H1792 C1802 0.950 . S
H1793 C1804 0.950 . S
H1794 C1806 0.950 . S
H1795 C1807 0.950 . S
C1796 H1788 0.950 . S
C1796 C1797 1.386 . S
C1796 C1798 1.391 . S
C1797 C1796 1.386 . S
C1797 C1801 1.393 . S
C1798 H1790 0.950 . S
C1798 C1796 1.391 . S
C1798 C1799 1.400 . S
C1799 C1798 1.400 . S
C1799 C1800 1.398 . S
C1799 C1805 1.491 . S
C1800 H1791 0.950 . S
C1800 C1799 1.398 . S
C1800 C1801 1.391 . S
C1801 H1789 0.950 . S
C1801 C1797 1.393 . S
C1801 C1800 1.391 . S
C1802 H1792 0.950 . S
C1802 C1803 1.386 . S
C1802 C1804 1.391 . S
C1803 C1802 1.386 . S
C1803 C1807 1.393 . S
C1804 H1793 0.950 . S
C1804 C1802 1.391 . S
C1804 C1805 1.400 . S
C1805 C1799 1.491 . S
C1805 C1804 1.400 . S
C1805 C1806 1.398 . S
C1806 H1794 0.950 . S
C1806 C1805 1.398 . S
C1806 C1807 1.391 . S
C1807 H1795 0.950 . S
C1807 C1803 1.393 . S
C1807 C1806 1.391 . S
H1808 C1816 0.950 . S
H1809 C1821 0.950 . S
H1810 C1818 0.950 . S
H1811 C1820 0.950 . S
H1812 C1822 0.950 . S
H1813 C1824 0.950 . S
H1814 C1826 0.950 . S
H1815 C1827 0.950 . S
C1816 H1808 0.950 . S
C1816 C1817 1.386 . S
C1816 C1818 1.391 . S
C1817 C1816 1.386 . S
C1817 C1821 1.393 . S
C1818 H1810 0.950 . S
C1818 C1816 1.391 . S
C1818 C1819 1.400 . S
C1819 C1818 1.400 . S
C1819 C1820 1.398 . S
C1819 C1825 1.491 . S
C1820 H1811 0.950 . S
C1820 C1819 1.398 . S
C1820 C1821 1.391 . S
C1821 H1809 0.950 . S
C1821 C1817 1.393 . S
C1821 C1820 1.391 . S
C1822 H1812 0.950 . S
C1822 C1823 1.386 . S
C1822 C1824 1.391 . S
C1823 C1822 1.386 . S
C1823 C1827 1.393 . S
C1824 H1813 0.950 . S
C1824 C1822 1.391 . S
C1824 C1825 1.400 . S
C1825 C1819 1.491 . S
C1825 C1824 1.400 . S
C1825 C1826 1.398 . S
C1826 H1814 0.950 . S
C1826 C1825 1.398 . S
C1826 C1827 1.391 . S
C1827 H1815 0.950 . S
C1827 C1823 1.393 . S
C1827 C1826 1.391 . S
H1828 C1836 0.950 . S
H1829 C1841 0.950 . S
H1830 C1838 0.950 . S
H1831 C1840 0.950 . S
H1832 C1842 0.950 . S
H1833 C1844 0.950 . S
H1834 C1846 0.950 . S
H1835 C1847 0.950 . S
C1836 H1828 0.950 . S
C1836 C1837 1.386 . S
C1836 C1838 1.391 . S
C1837 C1836 1.386 . S
C1837 C1841 1.393 . S
C1838 H1830 0.950 . S
C1838 C1836 1.391 . S
C1838 C1839 1.400 . S
C1839 C1838 1.400 . S
C1839 C1840 1.398 . S
C1839 C1845 1.491 . S
C1840 H1831 0.950 . S
C1840 C1839 1.398 . S
C1840 C1841 1.391 . S
C1841 H1829 0.950 . S
C1841 C1837 1.393 . S
C1841 C1840 1.391 . S
C1842 H1832 0.950 . S
C1842 C1843 1.386 . S
C1842 C1844 1.391 . S
C1843 C1842 1.386 . S
C1843 C1847 1.393 . S
C1844 H1833 0.950 . S
C1844 C1842 1.391 . S
C1844 C1845 1.400 . S
C1845 C1839 1.491 . S
C1845 C1844 1.400 . S
C1845 C1846 1.398 . S
C1846 H1834 0.950 . S
C1846 C1845 1.398 . S
C1846 C1847 1.391 . S
C1847 H1835 0.950 . S
C1847 C1843 1.393 . S
C1847 C1846 1.391 . S
H1848 C1856 0.950 . S
H1849 C1861 0.950 . S
H1850 C1858 0.950 . S
H1851 C1860 0.950 . S
H1852 C1862 0.950 . S
H1853 C1864 0.950 . S
H1854 C1866 0.950 . S
H1855 C1867 0.950 . S
C1856 H1848 0.950 . S
C1856 C1857 1.386 . S
C1856 C1858 1.391 . S
C1857 C1856 1.386 . S
C1857 C1861 1.393 . S
C1858 H1850 0.950 . S
C1858 C1856 1.391 . S
C1858 C1859 1.400 . S
C1859 C1858 1.400 . S
C1859 C1860 1.398 . S
C1859 C1865 1.491 . S
C1860 H1851 0.950 . S
C1860 C1859 1.398 . S
C1860 C1861 1.391 . S
C1861 H1849 0.950 . S
C1861 C1857 1.393 . S
C1861 C1860 1.391 . S
C1862 H1852 0.950 . S
C1862 C1863 1.386 . S
C1862 C1864 1.391 . S
C1863 C1862 1.386 . S
C1863 C1867 1.393 . S
C1864 H1853 0.950 . S
C1864 C1862 1.391 . S
C1864 C1865 1.400 . S
C1865 C1859 1.491 . S
C1865 C1864 1.400 . S
C1865 C1866 1.398 . S
C1866 H1854 0.950 . S
C1866 C1865 1.398 . S
C1866 C1867 1.391 . S
C1867 H1855 0.950 . S
C1867 C1863 1.393 . S
C1867 C1866 1.391 . S
H1868 C1876 0.950 . S
H1869 C1881 0.950 . S
H1870 C1878 0.950 . S
H1871 C1880 0.950 . S
H1872 C1882 0.950 . S
H1873 C1884 0.950 . S
H1874 C1886 0.950 . S
H1875 C1887 0.950 . S
C1876 H1868 0.950 . S
C1876 C1877 1.386 . S
C1876 C1878 1.391 . S
C1877 C1876 1.386 . S
C1877 C1881 1.393 . S
C1878 H1870 0.950 . S
C1878 C1876 1.391 . S
C1878 C1879 1.400 . S
C1879 C1878 1.400 . S
C1879 C1880 1.398 . S
C1879 C1885 1.491 . S
C1880 H1871 0.950 . S
C1880 C1879 1.398 . S
C1880 C1881 1.391 . S
C1881 H1869 0.950 . S
C1881 C1877 1.393 . S
C1881 C1880 1.391 . S
C1882 H1872 0.950 . S
C1882 C1883 1.386 . S
C1882 C1884 1.391 . S
C1883 C1882 1.386 . S
C1883 C1887 1.393 . S
C1884 H1873 0.950 . S
C1884 C1882 1.391 . S
C1884 C1885 1.400 . S
C1885 C1879 1.491 . S
C1885 C1884 1.400 . S
C1885 C1886 1.398 . S
C1886 H1874 0.950 . S
C1886 C1885 1.398 . S
C1886 C1887 1.391 . S
C1887 H1875 0.950 . S
C1887 C1883 1.393 . S
C1887 C1886 1.391 . S
H1888 C1896 0.950 . S
H1889 C1901 0.950 . S
H1890 C1898 0.950 . S
H1891 C1900 0.950 . S
H1892 C1902 0.950 . S
H1893 C1904 0.950 . S
H1894 C1906 0.950 . S
H1895 C1907 0.950 . S
C1896 H1888 0.950 . S
C1896 C1897 1.386 . S
C1896 C1898 1.391 . S
C1897 C1896 1.386 . S
C1897 C1901 1.393 . S
C1898 H1890 0.950 . S
C1898 C1896 1.391 . S
C1898 C1899 1.400 . S
C1899 C1898 1.400 . S
C1899 C1900 1.398 . S
C1899 C1905 1.491 . S
C1900 H1891 0.950 . S
C1900 C1899 1.398 . S
C1900 C1901 1.391 . S
C1901 H1889 0.950 . S
C1901 C1897 1.393 . S
C1901 C1900 1.391 . S
C1902 H1892 0.950 . S
C1902 C1903 1.386 . S
C1902 C1904 1.391 . S
C1903 C1902 1.386 . S
C1903 C1907 1.393 . S
C1904 H1893 0.950 . S
C1904 C1902 1.391 . S
C1904 C1905 1.400 . S
C1905 C1899 1.491 . S
C1905 C1904 1.400 . S
C1905 C1906 1.398 . S
C1906 H1894 0.950 . S
C1906 C1905 1.398 . S
C1906 C1907 1.391 . S
C1907 H1895 0.950 . S
C1907 C1903 1.393 . S
C1907 C1906 1.391 . S
H1908 C1916 0.950 . S
H1909 C1921 0.950 . S
H1910 C1918 0.950 . S
H1911 C1920 0.950 . S
H1912 C1922 0.950 . S
H1913 C1924 0.950 . S
H1914 C1926 0.950 . S
H1915 C1927 0.950 . S
C1916 H1908 0.950 . S
C1916 C1917 1.386 . S
C1916 C1918 1.391 . S
C1917 C1916 1.386 . S
C1917 C1921 1.393 . S
C1918 H1910 0.950 . S
C1918 C1916 1.391 . S
C1918 C1919 1.400 . S
C1919 C1918 1.400 . S
C1919 C1920 1.398 . S
C1919 C1925 1.491 . S
C1920 H1911 0.950 . S
C1920 C1919 1.398 . S
C1920 C1921 1.391 . S
C1921 H1909 0.950 . S
C1921 C1917 1.393 . S
C1921 C1920 1.391 . S
C1922 H1912 0.950 . S
C1922 C1923 1.386 . S
C1922 C1924 1.391 . S
C1923 C1922 1.386 . S
C1923 C1927 1.393 . S
C1924 H1913 0.950 . S
C1924 C1922 1.391 . S
C1924 C1925 1.400 . S
C1925 C1919 1.491 . S
C1925 C1924 1.400 . S
C1925 C1926 1.398 . S
C1926 H1914 0.950 . S
C1926 C1925 1.398 . S
C1926 C1927 1.391 . S
C1927 H1915 0.950 . S
C1927 C1923 1.393 . S
C1927 C1926 1.391 . S
H1928 C1936 0.950 . S
H1929 C1941 0.950 . S
H1930 C1938 0.950 . S
H1931 C1940 0.950 . S
H1932 C1942 0.950 . S
H1933 C1944 0.950 . S
H1934 C1946 0.950 . S
H1935 C1947 0.950 . S
C1936 H1928 0.950 . S
C1936 C1937 1.386 . S
C1936 C1938 1.391 . S
C1937 C1936 1.386 . S
C1937 C1941 1.393 . S
C1938 H1930 0.950 . S
C1938 C1936 1.391 . S
C1938 C1939 1.400 . S
C1939 C1938 1.400 . S
C1939 C1940 1.398 . S
C1939 C1945 1.491 . S
C1940 H1931 0.950 . S
C1940 C1939 1.398 . S
C1940 C1941 1.391 . S
C1941 H1929 0.950 . S
C1941 C1937 1.393 . S
C1941 C1940 1.391 . S
C1942 H1932 0.950 . S
C1942 C1943 1.386 . S
C1942 C1944 1.391 . S
C1943 C1942 1.386 . S
C1943 C1947 1.393 . S
C1944 H1933 0.950 . S
C1944 C1942 1.391 . S
C1944 C1945 1.400 . S
C1945 C1939 1.491 . S
C1945 C1944 1.400 . S
C1945 C1946 1.398 . S
C1946 H1934 0.950 . S
C1946 C1945 1.398 . S
C1946 C1947 1.391 . S
C1947 H1935 0.950 . S
C1947 C1943 1.393 . S
C1947 C1946 1.391 . S
H1948 C1956 0.950 . S
H1949 C1961 0.950 . S
H1950 C1958 0.950 . S
H1951 C1960 0.950 . S
H1952 C1962 0.950 . S
H1953 C1964 0.950 . S
H1954 C1966 0.950 . S
H1955 C1967 0.950 . S
C1956 H1948 0.950 . S
C1956 C1957 1.386 . S
C1956 C1958 1.391 . S
C1957 C1956 1.386 . S
C1957 C1961 1.393 . S
C1958 H1950 0.950 . S
C1958 C1956 1.391 . S
C1958 C1959 1.400 . S
C1959 C1958 1.400 . S
C1959 C1960 1.398 . S
C1959 C1965 1.491 . S
C1960 H1951 0.950 . S
C1960 C1959 1.398 . S
C1960 C1961 1.391 . S
C1961 H1949 0.950 . S
C1961 C1957 1.393 . S
C1961 C1960 1.391 . S
C1962 H1952 0.950 . S
C1962 C1963 1.386 . S
C1962 C1964 1.391 . S
C1963 C1962 1.386 . S
C1963 C1967 1.393 . S
C1964 H1953 0.950 . S
C1964 C1962 1.391 . S
C1964 C1965 1.400 . S
C1965 C1959 1.491 . S
C1965 C1964 1.400 . S
C1965 C1966 1.398 . S
C1966 H1954 0.950 . S
C1966 C1965 1.398 . S
C1966 C1967 1.391 . S
C1967 H1955 0.950 . S
C1967 C1963 1.393 . S
C1967 C1966 1.391 . S
C537 C10 1.092 . S
C543 C153 1.086 . S
C557 C29 1.087 . S
C563 C162 1.091 . S
C577 C95 1.095 . S
C583 C52 1.094 1_455 S
C597 C87 1.092 1_545 S
C603 C128 1.093 1_565 S
C617 C74 1.047 1_565 S
C623 C40 1.047 . S
C637 C65 1.135 1_655 S
C643 C15 1.136 . S
C657 C117 1.132 1_545 S
C663 C175 1.140 . S
C677 C140 1.048 . S
C683 C106 1.048 1_455 S
C697 C191 1.092 . S
C703 C208 1.093 . S
C717 C186 1.094 . S
C723 C227 1.094 . S
C737 C238 1.092 . S
C743 C263 1.090 . S
C757 C250 1.093 . S
C763 C213 1.094 . S
C777 C274 1.092 . S
C783 C417 1.087 . S
C797 C426 1.092 . S
C803 C293 1.087 . S
C817 C318 1.095 . S
C823 C367 1.095 . S
C837 C337 1.096 . S
C843 C392 1.095 . S
C857 C348 1.048 . S
C863 C304 1.048 . S
C877 C323 1.140 . S
C883 C279 1.132 . S
C897 C381 1.133 . S
C903 C439 1.140 . S
C917 C404 1.048 . S
C923 C362 1.046 . S
C937 C455 1.087 . S
C943 C472 1.092 . S
C957 C491 1.087 . S
C963 C450 1.092 . S
C977 C502 1.094 . S
C983 C527 1.095 . S
C997 C514 1.094 . S
C1003 C477 1.095 . S
C1017 C524 0.808 . S
C1023 C8 0.808 . S
C1037 C470 0.825 . S
C1043 C43 0.828 . S
C1057 C62 0.774 . S
C1063 C448 0.780 . S
C1077 C81 0.801 . S
C1083 C494 0.791 . S
C1097 C505 0.850 . S
C1103 C109 0.856 . S
C1117 C120 0.839 . S
C1123 C521 0.832 . S
C1137 C469 0.879 . S
C1143 C147 0.870 . S
C1157 C172 0.828 . S
C1163 C447 0.835 . S
C1177 C360 0.827 . S
C1183 C84 0.815 . S
C1197 C7 0.839 . S
C1203 C395 0.834 . S
C1217 C32 0.828 . S
C1223 C414 0.811 . S
C1237 C59 0.851 . S
C1243 C433 0.840 . S
C1257 C271 0.864 . S
C1263 C131 0.854 . S
C1277 C150 0.802 . S
C1283 C296 0.788 . S
C1297 C169 0.833 . S
C1303 C315 0.839 . S
C1317 C98 0.827 . S
C1323 C340 0.804 . S
C1337 C436 0.856 . S
C1343 C183 0.839 . S
C1357 C206 0.820 . S
C1363 C307 0.804 . S
C1377 C316 0.780 . S
C1383 C184 0.808 . S
C1397 C351 0.800 . S
C1403 C230 0.818 . S
C1417 C260 0.790 . S
C1423 C272 0.813 . S
C1437 C384 0.856 . S
C1443 C257 0.839 . S
C1457 C411 0.851 . S
C1463 C205 0.856 . S
C1477 C359 0.880 . S
C1483 C241 0.870 . S
C1497 C103 0.805 . S
C1503 C458 0.820 . S
C1517 C118 0.780 . S
C1523 C492 0.803 . S
C1537 C139 0.799 . S
C1543 C516 0.816 . S
C1557 C480 0.770 . S
C1563 C164 0.797 . S
C1577 C483 0.843 . S
C1583 C18 0.855 . S
C1597 C37 0.839 . S
C1603 C461 0.836 . S
C1617 C54 0.846 . S
C1623 C499 0.830 . S
C1637 C513 0.855 . S
C1643 C73 0.866 . S
C1657 C285 0.825 . S
C1663 C161 0.836 . S
C1677 C96 0.806 . S
C1683 C294 0.819 . S
C1697 C329 0.856 . S
C1703 C125 0.856 . S
C1717 C338 0.799 . S
C1723 C142 0.776 . S
C1737 C370 0.775 . S
C1743 C30 0.787 . S
C1757 C51 0.827 . S
C1763 C389 0.820 . S
C1777 C406 0.795 . S
C1783 C76 0.775 . S
C1797 C425 0.821 . S
C1803 C21 0.828 . S
C1817 C249 0.853 . S
C1823 C345 0.844 . S
C1837 C228 0.763 . S
C1843 C382 0.763 . S
C1857 C403 0.797 . S
C1863 C252 0.777 . S
C1877 C216 0.771 . S
C1883 C428 0.758 . S
C1897 C194 0.798 . S
C1903 C373 0.816 . S
C1917 C301 0.837 . S
C1923 C197 0.839 . S
C1937 C235 0.838 . S
C1943 C326 0.853 . S
C1957 C282 0.849 . S
C1963 C219 0.856 . S
