# Generated by pormake.
# Topology snz, (6)-cn, num edge types: 1
# Building blocks:
#     Node 0, Type 0, BuildingBlock: BETDIP_clean_sbu_0, # of connection points: 6
#     Node 1, Type 0, BuildingBlock: BETDIP_clean_sbu_0, # of connection points: 6
#     Node 2, Type 0, BuildingBlock: BETDIP_clean_sbu_0, # of connection points: 6
#     Node 3, Type 0, BuildingBlock: BETDIP_clean_sbu_0, # of connection points: 6
#     Node 4, Type 0, BuildingBlock: BETDIP_clean_sbu_0, # of connection points: 6
#     Node 5, Type 0, BuildingBlock: BETDIP_clean_sbu_0, # of connection points: 6
#     Node 6, Type 0, BuildingBlock: BETDIP_clean_sbu_0, # of connection points: 6
#     Node 7, Type 0, BuildingBlock: BETDIP_clean_sbu_0, # of connection points: 6
#     Node 8, Type 0, BuildingBlock: BETDIP_clean_sbu_0, # of connection points: 6
#     Edge 9, Type (0, 0), BuildingBlock: UVAHIK_clean_linker_0, # of connection points: 2
#     Edge 10, Type (0, 0), BuildingBlock: UVAHIK_clean_linker_0, # of connection points: 2
#     Edge 11, Type (0, 0), BuildingBlock: UVAHIK_clean_linker_0, # of connection points: 2
#     Edge 12, Type (0, 0), BuildingBlock: UVAHIK_clean_linker_0, # of connection points: 2
#     Edge 13, Type (0, 0), BuildingBlock: UVAHIK_clean_linker_0, # of connection points: 2
#     Edge 14, Type (0, 0), BuildingBlock: UVAHIK_clean_linker_0, # of connection points: 2
#     Edge 15, Type (0, 0), BuildingBlock: UVAHIK_clean_linker_0, # of connection points: 2
#     Edge 16, Type (0, 0), BuildingBlock: UVAHIK_clean_linker_0, # of connection points: 2
#     Edge 17, Type (0, 0), BuildingBlock: UVAHIK_clean_linker_0, # of connection points: 2
#     Edge 18, Type (0, 0), BuildingBlock: UVAHIK_clean_linker_0, # of connection points: 2
#     Edge 19, Type (0, 0), BuildingBlock: UVAHIK_clean_linker_0, # of connection points: 2
#     Edge 20, Type (0, 0), BuildingBlock: UVAHIK_clean_linker_0, # of connection points: 2
#     Edge 21, Type (0, 0), BuildingBlock: UVAHIK_clean_linker_0, # of connection points: 2
#     Edge 22, Type (0, 0), BuildingBlock: UVAHIK_clean_linker_0, # of connection points: 2
#     Edge 23, Type (0, 0), BuildingBlock: UVAHIK_clean_linker_0, # of connection points: 2
#     Edge 24, Type (0, 0), BuildingBlock: UVAHIK_clean_linker_0, # of connection points: 2
#     Edge 25, Type (0, 0), BuildingBlock: UVAHIK_clean_linker_0, # of connection points: 2
#     Edge 26, Type (0, 0), BuildingBlock: UVAHIK_clean_linker_0, # of connection points: 2
#     Edge 27, Type (0, 0), BuildingBlock: UVAHIK_clean_linker_0, # of connection points: 2
#     Edge 28, Type (0, 0), BuildingBlock: UVAHIK_clean_linker_0, # of connection points: 2
#     Edge 29, Type (0, 0), BuildingBlock: UVAHIK_clean_linker_0, # of connection points: 2
#     Edge 30, Type (0, 0), BuildingBlock: UVAHIK_clean_linker_0, # of connection points: 2
#     Edge 31, Type (0, 0), BuildingBlock: UVAHIK_clean_linker_0, # of connection points: 2
#     Edge 32, Type (0, 0), BuildingBlock: UVAHIK_clean_linker_0, # of connection points: 2
#     Edge 33, Type (0, 0), BuildingBlock: UVAHIK_clean_linker_0, # of connection points: 2
#     Edge 34, Type (0, 0), BuildingBlock: UVAHIK_clean_linker_0, # of connection points: 2
#     Edge 35, Type (0, 0), BuildingBlock: UVAHIK_clean_linker_0, # of connection points: 2
# Relax obj value: 0.148
# Max RMSD: 0.224
# Mean RMSD: 0.193
data_MOF--net-snz--node1-BETDIP_clean_sbu_0--edge1-UVAHIK_clean_linker_0
_symmetry_space_group_name_H-M    P1
_symmetry_Int_Tables_number       1
_symmetry_cell_setting            triclinic
loop_
_symmetry_equiv_pos_as_xyz
'x, y, z'
_cell_length_a     81.414458
_cell_length_b     81.633376
_cell_length_c     18.787931
_cell_angle_alpha  90.023352
_cell_angle_beta   90.058474
_cell_angle_gamma 119.76107
loop_
_atom_site_label
_atom_site_type_symbol
_atom_site_fract_x
_atom_site_fract_y
_atom_site_fract_z
_atom_type_partial_charge
Tb0 Tb 0.19579 0.43192 0.03288 0.0
Tb1 Tb 0.15826 0.42976 0.00277 0.0
C2 C 0.22259 0.42935 0.08924 0.0
C3 C 0.23507 0.42086 0.0892 0.0
C4 C 0.22893 0.40251 0.11465 0.0
C5 C 0.2419 0.3961 0.12524 0.0
C6 C 0.26134 0.40793 0.11126 0.0
C7 C 0.26727 0.42606 0.08381 0.0
C8 C 0.25434 0.4324 0.07304 0.0
C9 C 0.19057 0.43806 0.89857 0.0
C10 C 0.15951 0.39226 0.9846 0.0
C11 C 0.13189 0.43403 0.95313 0.0
C12 C 0.12631 0.44861 0.9521 0.0
C13 C 0.11224 0.44672 0.90448 0.0
C14 C 0.10668 0.46036 0.90192 0.0
C15 C 0.11514 0.47624 0.9469 0.0
C16 C 0.1294 0.47817 -0.00565 0.0
C17 C 0.13489 0.46441 -0.00287 0.0
C18 C 0.16398 0.42342 0.13636 0.0
C19 C 0.19363 0.46946 0.04266 0.0
O20 O 0.20485 0.41914 0.10898 0.0
O21 O 0.22482 0.44116 0.03808 0.0
O22 O 0.17842 0.42665 0.94114 0.0
O23 O 0.207 0.44515 0.92898 0.0
O24 O 0.17668 0.4009 0.01468 0.0
O25 O 0.15062 0.40161 0.96846 0.0
O26 O 0.14725 0.43795 0.91773 0.0
O27 O 0.13108 0.4262 0.01476 0.0
O28 O 0.17589 0.43533 0.09434 0.0
O29 O 0.1476 0.41537 0.10528 0.0
O30 O 0.17724 0.46028 0.00908 0.0
O31 O 0.20225 0.46037 0.06682 0.0
H32 H 0.21422 0.3933 0.12843 0.0
H33 H 0.23669 0.38196 0.14546 0.0
H34 H 0.28209 0.43577 0.07351 0.0
H35 H 0.25962 0.44675 0.05481 0.0
H36 H 0.10556 0.43466 0.86906 0.0
H37 H 0.09589 0.45859 0.86398 0.0
H38 H 0.1361 0.49016 0.03002 0.0
H39 H 0.14574 0.46604 0.0345 0.0
Tb40 Tb 0.76012 0.60203 0.04346 0.0
Tb41 Tb 0.76403 0.56776 0.0133 0.0
C42 C 0.76173 0.63075 0.10102 0.0
C43 C 0.77141 0.65166 0.10717 0.0
C44 C 0.77947 0.66013 0.17273 0.0
C45 C 0.78547 0.67921 0.18513 0.0
C46 C 0.78349 0.69035 0.13237 0.0
C47 C 0.77623 0.68209 0.06551 0.0
C48 C 0.77017 0.66295 0.05314 0.0
C49 C 0.75551 0.59145 0.90898 0.0
C50 C 0.80126 0.60662 0.00724 0.0
C51 C 0.76103 0.53794 0.96178 0.0
C52 C 0.74601 0.51827 0.95093 0.0
C53 C 0.74726 0.50816 0.89297 0.0
C54 C 0.73339 0.48937 0.88194 0.0
C55 C 0.71791 0.48034 0.9286 0.0
C56 C 0.71653 0.49061 0.98618 0.0
C57 C 0.73053 0.50941 -0.00252 0.0
C58 C 0.76883 0.57894 0.14729 0.0
C59 C 0.72314 0.56207 0.04625 0.0
O60 O 0.77012 0.62188 0.12709 0.0
O61 O 0.75213 0.6228 0.04295 0.0
O62 O 0.76709 0.59108 0.95241 0.0
O63 O 0.74716 0.59966 0.93897 0.0
O64 O 0.79141 0.61478 0.0291 0.0
O65 O 0.79304 0.58847 0.99177 0.0
O66 O 0.75969 0.55066 0.92378 0.0
O67 O 0.76597 0.54334 0.02771 0.0
O68 O 0.75694 0.57875 0.10408 0.0
O69 O 0.77775 0.57134 0.1171 0.0
O70 O 0.73326 0.55552 0.01497 0.0
O71 O 0.73129 0.57964 0.07081 0.0
H72 H 0.78042 0.65179 0.2157 0.0
H73 H 0.7913 0.68513 0.23682 0.0
H74 H 0.77438 0.69017 0.02373 0.0
H75 H 0.76382 0.65686 0.00223 0.0
H76 H 0.75905 0.51479 0.85633 0.0
H77 H 0.73471 0.48193 0.83655 0.0
H78 H 0.70486 0.48401 0.02331 0.0
H79 H 0.72938 0.51696 0.04285 0.0
Tb80 Tb 0.59006 0.99633 0.03684 0.0
Tb81 Tb 0.6251 0.03386 0.00774 0.0
C82 C 0.5608 0.9698 0.09336 0.0
C83 C 0.53981 0.95857 0.09788 0.0
C84 C 0.53102 0.95766 0.16319 0.0
C85 C 0.51182 0.94465 0.17382 0.0
C86 C 0.50083 0.93209 0.11939 0.0
C87 C 0.5095 0.9335 0.053 0.0
C88 C 0.52875 0.94654 0.04241 0.0
C89 C 0.60113 1.00199 0.90282 0.0
C90 C 0.58665 0.03336 -0.00236 0.0
C91 C 0.65609 0.05961 0.95973 0.0
C92 C 0.67596 0.06361 0.955 0.0
C93 C 0.68202 0.05691 0.89747 0.0
C94 C 0.70102 0.06167 0.89126 0.0
C95 C 0.71445 0.07331 0.94221 0.0
C96 C 0.70829 0.07976 0.00025 0.0
C97 C 0.68933 0.07505 0.00637 0.0
C98 C 0.61349 0.02773 0.14134 0.0
C99 C 0.62955 0.99811 0.04265 0.0
O100 O 0.5695 0.98713 0.11806 0.0
O101 O 0.56913 0.9678 0.03707 0.0
O102 O 0.6017 1.01406 0.94587 0.0
O103 O 0.59239 0.98553 0.93279 0.0
O104 O 0.5781 1.0155 0.02048 0.0
O105 O 0.60491 0.04284 0.98271 0.0
O106 O 0.64342 0.04575 0.9208 0.0
O107 O 0.6497 0.05994 0.02331 0.0
O108 O 0.61346 1.01593 0.09833 0.0
O109 O 0.62158 0.04418 0.11124 0.0
O110 O 0.63649 1.01457 0.01018 0.0
O111 O 0.61198 0.9894 0.06756 0.0
H112 H 0.53923 0.96647 0.20739 0.0
H113 H 0.50584 0.9439 0.22598 0.0
H114 H 0.50148 0.9243 0.00941 0.0
H115 H 0.53508 0.94672 0.99152 0.0
H116 H 0.67216 0.04824 0.85646 0.0
H117 H 0.70526 0.05665 0.84533 0.0
H118 H 0.71816 0.08854 0.04104 0.0
H119 H 0.68519 0.08057 0.05109 0.0
Tb120 Tb 0.87288 0.92377 0.33931 0.0
Tb121 Tb 0.83546 0.92177 0.3096 0.0
C122 C 0.89895 0.91877 0.38672 0.0
C123 C 0.9038 0.90355 0.38758 0.0
C124 C 0.89166 0.88578 0.41765 0.0
C125 C 0.8971 0.87201 0.42118 0.0
C126 C 0.91478 0.8757 0.39472 0.0
C127 C 0.92666 0.89334 0.3631 0.0
C128 C 0.92126 0.90711 0.35988 0.0
C129 C 0.86704 0.9298 0.20576 0.0
C130 C 0.83707 0.88399 0.30258 0.0
C131 C 0.80909 0.92486 0.25232 0.0
C132 C 0.79804 0.93485 0.24825 0.0
C133 C 0.79731 0.94297 0.18329 0.0
C134 C 0.78446 0.94945 0.17301 0.0
C135 C 0.7719 0.94792 0.22745 0.0
C136 C 0.77315 0.94044 0.29351 0.0
C137 C 0.78603 0.93394 0.30377 0.0
C138 C 0.84077 0.91561 0.44362 0.0
C139 C 0.872 0.96142 0.35715 0.0
O140 O 0.88432 0.91615 0.42443 0.0
O141 O 0.89969 0.92645 0.32484 0.0
O142 O 0.85511 0.91798 0.24802 0.0
O143 O 0.88343 0.93806 0.23674 0.0
O144 O 0.85364 0.89329 0.33492 0.0
O145 O 0.82836 0.89297 0.27833 0.0
O146 O 0.82652 0.93339 0.22838 0.0
O147 O 0.80688 0.91436 0.30816 0.0
O148 O 0.85287 0.92708 0.40101 0.0
O149 O 0.8243 0.90836 0.41327 0.0
O150 O 0.85474 0.95277 0.32782 0.0
O151 O 0.88093 0.95207 0.37276 0.0
H152 H 0.87809 0.8826 0.43952 0.0
H153 H 0.88766 0.85868 0.44649 0.0
H154 H 0.94022 0.89657 0.34096 0.0
H155 H 0.93084 0.92067 0.33629 0.0
H156 H 0.80613 0.94354 0.13911 0.0
H157 H 0.78381 0.95488 0.12113 0.0
H158 H 0.76394 0.93929 0.33705 0.0
H159 H 0.78611 0.92764 0.35439 0.0
Tb160 Tb 0.26834 0.78613 0.33542 0.0
Tb161 Tb 0.27083 0.751 0.30579 0.0
C162 C 0.27237 0.81669 0.38354 0.0
C163 C 0.28703 0.83682 0.38648 0.0
C164 C 0.30558 0.84263 0.4091 0.0
C165 C 0.31887 0.86184 0.41513 0.0
C166 C 0.31385 0.87562 0.39885 0.0
C167 C 0.29536 0.86971 0.37492 0.0
C168 C 0.2821 0.85052 0.36889 0.0
C169 C 0.26236 0.77425 0.20188 0.0
C170 C 0.30847 0.79045 0.29878 0.0
C171 C 0.26829 0.72193 0.24796 0.0
C172 C 0.25866 0.70108 0.24089 0.0
C173 C 0.25439 0.69324 0.17227 0.0
C174 C 0.24844 0.67414 0.16136 0.0
C175 C 0.24658 0.66231 0.2189 0.0
C176 C 0.25001 0.66997 0.28815 0.0
C177 C 0.2561 0.68919 0.29904 0.0
C178 C 0.27701 0.76253 0.4397 0.0
C179 C 0.23087 0.74753 0.35313 0.0
O180 O 0.27538 0.8049 0.42096 0.0
O181 O 0.26519 0.80995 0.32083 0.0
O182 O 0.27429 0.77426 0.24428 0.0
O183 O 0.25393 0.78226 0.23276 0.0
O184 O 0.299 0.79765 0.33075 0.0
O185 O 0.29964 0.77279 0.27505 0.0
O186 O 0.2599 0.7309 0.22298 0.0
O187 O 0.27812 0.72973 0.30575 0.0
O188 O 0.26537 0.76301 0.39706 0.0
O189 O 0.28447 0.75349 0.40938 0.0
O190 O 0.2397 0.73905 0.32398 0.0
O191 O 0.24006 0.76574 0.36846 0.0
H192 H 0.30976 0.83235 0.42314 0.0
H193 H 0.33305 0.86591 0.43289 0.0
H194 H 0.29093 0.87991 0.36286 0.0
H195 H 0.26785 0.84635 0.35169 0.0
H196 H 0.25639 0.7021 0.12645 0.0
H197 H 0.24562 0.66869 0.10747 0.0
H198 H 0.24879 0.6613 0.33367 0.0
H199 H 0.25944 0.69485 0.35257 0.0
Tb200 Tb 0.405 0.31947 0.34291 0.0
Tb201 Tb 0.44067 0.35619 0.30923 0.0
C202 C 0.37448 0.29476 0.39759 0.0
C203 C 0.35468 0.29073 0.40226 0.0
C204 C 0.34589 0.28715 0.46908 0.0
C205 C 0.32697 0.28259 0.47504 0.0
C206 C 0.31636 0.28138 0.41413 0.0
C207 C 0.32526 0.28522 0.34722 0.0
C208 C 0.34425 0.28993 0.34133 0.0
C209 C 0.41505 0.3247 0.20745 0.0
C210 C 0.4017 0.35586 0.30766 0.0
C211 C 0.46918 0.38248 0.24855 0.0
C212 C 0.48967 0.39425 0.23435 0.0
C213 C 0.49512 0.4048 0.17137 0.0
C214 C 0.51413 0.41769 0.15775 0.0
C215 C 0.52839 0.42029 0.2065 0.0
C216 C 0.52288 0.40939 0.26949 0.0
C217 C 0.50368 0.39655 0.28345 0.0
C218 C 0.43065 0.35113 0.44474 0.0
C219 C 0.44292 0.31852 0.34642 0.0
O220 O 0.3871 0.30969 0.43201 0.0
O221 O 0.38053 0.29298 0.33509 0.0
O222 O 0.41632 0.33698 0.25093 0.0
O223 O 0.40641 0.30833 0.23812 0.0
O224 O 0.39433 0.33938 0.3403 0.0
O225 O 0.41913 0.36396 0.28149 0.0
O226 O 0.45991 0.36523 0.22337 0.0
O227 O 0.46261 0.38434 0.30976 0.0
O228 O 0.42936 0.33885 0.40127 0.0
O229 O 0.43951 0.3675 0.41408 0.0
O230 O 0.45173 0.33613 0.32082 0.0
O231 O 0.42496 0.31003 0.36606 0.0
H232 H 0.35363 0.28765 0.51677 0.0
H233 H 0.3205 0.27953 0.52726 0.0
H234 H 0.31753 0.28462 0.2994 0.0
H235 H 0.3507 0.29278 0.28907 0.0
H236 H 0.48453 0.40347 0.1332 0.0
H237 H 0.51751 0.42601 0.10959 0.0
H238 H 0.53336 0.41075 0.30809 0.0
H239 H 0.49978 0.38863 0.33274 0.0
Tb240 Tb 0.53571 0.19551 0.67949 0.0
Tb241 Tb 0.49673 0.15783 0.67358 0.0
C242 C 0.56371 0.22798 0.69509 0.0
C243 C 0.5703 0.24651 0.72967 0.0
C244 C 0.56584 0.25983 0.70187 0.0
C245 C 0.57496 0.27839 0.72771 0.0
C246 C 0.58881 0.28399 0.78129 0.0
C247 C 0.59245 0.27037 0.81154 0.0
C248 C 0.58336 0.25188 0.78589 0.0
C249 C 0.53555 0.16361 0.7077 0.0
C250 C 0.50579 0.18484 0.80371 0.0
C251 C 0.47456 0.12295 0.68221 0.0
C252 C 0.46201 0.10614 0.63893 0.0
C253 C 0.46788 0.09304 0.62261 0.0
C254 C 0.45559 0.07598 0.58925 0.0
C255 C 0.43703 0.0715 0.57177 0.0
C256 C 0.43128 0.08481 0.58642 0.0
C257 C 0.44363 0.10196 0.61977 0.0
C258 C 0.49384 0.18639 0.61832 0.0
C259 C 0.52249 0.17349 0.53584 0.0
O260 O 0.55178 0.22321 0.64168 0.0
O261 O 0.56014 0.21369 0.73669 0.0
O262 O 0.52335 0.16797 0.72572 0.0
O263 O 0.54897 0.17772 0.6739 0.0
O264 O 0.52011 0.19844 0.7681 0.0
O265 O 0.49606 0.16726 0.78028 0.0
O266 O 0.4928 0.13057 0.67035 0.0
O267 O 0.46934 0.13557 0.69451 0.0
O268 O 0.50792 0.18638 0.64585 0.0
O269 O 0.47999 0.16902 0.62087 0.0
O270 O 0.5092 0.15853 0.56995 0.0
O271 O 0.53347 0.18992 0.56705 0.0
H272 H 0.55593 0.25618 0.65817 0.0
H273 H 0.57192 0.28859 0.70306 0.0
H274 H 0.60284 0.27417 0.85359 0.0
H275 H 0.58719 0.24198 0.80807 0.0
H276 H 0.48184 0.09569 0.63781 0.0
H277 H 0.46041 0.06595 0.57998 0.0
H278 H 0.41712 0.08186 0.57308 0.0
H279 H 0.4386 0.11168 0.63208 0.0
Tb280 Tb 0.99826 0.17986 0.67385 0.0
Tb281 Tb 0.03163 0.17383 0.6713 0.0
C282 C 0.96606 0.17715 0.67856 0.0
C283 C 0.94789 0.16759 0.71671 0.0
C284 C 0.94092 0.14966 0.74738 0.0
C285 C 0.92288 0.14047 0.77842 0.0
C286 C 0.91157 0.14909 0.77945 0.0
C287 C 0.91888 0.16721 0.74978 0.0
C288 C 0.93682 0.17632 0.71884 0.0
C289 C 1.03107 0.21022 0.70368 0.0
C290 C 1.00714 0.16179 0.80724 0.0
C291 C 0.06382 0.17663 0.6644 0.0
C292 C 0.08201 0.18694 0.62621 0.0
C293 C 0.09176 0.20671 0.61988 0.0
C294 C 0.10991 0.21613 0.58992 0.0
C295 C 0.11859 0.20595 0.56546 0.0
C296 C 0.10849 0.18614 0.5699 0.0
C297 C 0.09044 0.17677 0.60008 0.0
C298 C 0.99878 0.1435 0.64161 0.0
C299 C 1.02284 0.19207 0.53842 0.0
O300 O 0.9702 0.16666 0.63804 0.0
O301 O 0.98074 0.18984 0.71392 0.0
O302 O 1.02573 0.19356 0.7234 0.0
O303 O 1.01739 0.21038 0.66897 0.0
O304 O 0.99414 0.16342 0.77064 0.0
O305 O 1.02406 0.16704 0.78113 0.0
O306 O 0.05949 0.18629 0.70874 0.0
O307 O 0.0492 0.16433 0.62773 0.0
O308 O 1.0042 0.16016 0.62171 0.0
O309 O 1.01244 0.14332 0.67635 0.0
O310 O 0.0359 0.19067 0.57552 0.0
O311 O 1.00583 0.18653 0.56401 0.0
H312 H 0.94929 0.14268 0.74638 0.0
H313 H 0.91776 0.12661 0.8014 0.0
H314 H 0.9105 0.17417 0.74845 0.0
H315 H 0.94191 0.1901 0.69504 0.0
H316 H 0.08556 0.21491 0.63939 0.0
H317 H 0.11722 0.23138 0.58653 0.0
H318 H 0.11482 0.17788 0.55249 0.0
H319 H 0.08324 0.16154 0.60485 0.0
Tb320 Tb 1.01203 0.65574 0.66967 0.0
Tb321 Tb 1.01733 0.69457 0.66577 0.0
C322 C 1.01596 0.62708 0.67856 0.0
C323 C 1.0264 0.61969 0.71994 0.0
C324 C 0.04458 0.62359 0.69904 0.0
C325 C 0.05335 0.61461 0.73235 0.0
C326 C 0.0441 0.60143 0.78703 0.0
C327 C 1.02622 0.59806 0.80959 0.0
C328 C 1.01744 0.60701 0.77626 0.0
C329 C 0.98118 0.6576 0.69873 0.0
C330 C 1.02978 0.68293 0.80248 0.0
C331 C 1.01382 0.72347 0.65712 0.0
C332 C 1.00357 0.73121 0.61662 0.0
C333 C 0.98481 0.72615 0.63345 0.0
C334 C 0.97623 0.73554 0.60181 0.0
C335 C 0.98626 0.75025 0.553 0.0
C336 C 1.00474 0.75474 0.53412 0.0
C337 C 1.01332 0.74539 0.56578 0.0
C338 C 0.0481 0.69252 0.63659 0.0
C339 C 0.99942 0.66735 0.53325 0.0
O340 O 1.02576 0.64121 0.63537 0.0
O341 O 1.00269 0.62871 0.71159 0.0
O342 O 0.99782 0.66912 0.7186 0.0
O343 O 0.98137 0.64393 0.66439 0.0
O344 O 1.02854 0.66849 0.76614 0.0
O345 O 1.02412 0.69423 0.77592 0.0
O346 O 1.00396 0.70941 0.70053 0.0
O347 O 1.0268 0.72157 0.62321 0.0
O348 O 1.03144 0.68116 0.61673 0.0
O349 O 0.04802 0.70621 0.67125 0.0
O350 O 1.00066 0.68177 0.56971 0.0
O351 O 1.00515 0.65608 0.5596 0.0
H352 H 0.05181 0.63311 0.65528 0.0
H353 H 0.06702 0.61739 0.71304 0.0
H354 H 1.01881 0.58819 0.85221 0.0
H355 H 1.00338 0.60357 0.7933 0.0
H356 H 0.97693 0.71541 0.67292 0.0
H357 H 0.96205 0.73184 0.61809 0.0
H358 H 1.01276 0.7658 0.49591 0.0
H359 H 1.02783 0.74971 0.55209 0.0
C360 C 0.16972 0.42568 0.79111 0.0
C361 C 0.18762 0.4377 0.82068 0.0
C362 C 0.16714 0.42425 0.71724 0.0
C363 C 0.19366 0.43224 0.54878 0.0
H364 H 0.14818 0.42754 0.46304 0.0
C365 C 0.18486 0.43536 0.24382 0.0
C366 C 0.16693 0.42351 0.21416 0.0
C367 C 0.18743 0.43664 0.31771 0.0
C368 C 0.16086 0.42858 0.48612 0.0
H369 H 0.21678 0.45798 0.79623 0.0
H370 H 0.21229 0.45569 0.66714 0.0
H371 H 0.15256 0.43136 0.59157 0.0
H372 H 0.13774 0.40328 0.2384 0.0
H373 H 0.14222 0.4053 0.36748 0.0
H374 H 0.20197 0.42946 0.44334 0.0
C375 C 0.20027 0.44713 0.70095 0.0
C376 C 0.16339 0.43082 0.55994 0.0
C377 C 0.20283 0.44856 0.77492 0.0
C378 C 0.15171 0.41259 0.25979 0.0
C379 C 0.15426 0.41387 0.33376 0.0
C380 C 0.19113 0.43 0.47496 0.0
C381 C 0.18243 0.43482 0.6711 0.0
C382 C 0.17983 0.43269 0.59229 0.0
C383 C 0.17212 0.42609 0.36375 0.0
C384 C 0.1747 0.42814 0.4426 0.0
H385 H 0.15774 0.41702 0.825 0.0
H386 H 0.15326 0.41447 0.69629 0.0
H387 H 0.20635 0.4333 0.57188 0.0
H388 H 0.19687 0.44398 0.20997 0.0
H389 H 0.20133 0.44633 0.33874 0.0
C390 C 0.76917 0.58449 0.80145 0.0
C391 C 0.75602 0.5889 0.83124 0.0
C392 C 0.77047 0.58329 0.72756 0.0
C393 C 0.74443 0.57788 0.55885 0.0
H394 H 0.79433 0.59959 0.47429 0.0
C395 C 0.75558 0.58655 0.2544 0.0
C396 C 0.76851 0.5818 0.22488 0.0
C397 C 0.75435 0.58792 0.32825 0.0
C398 C 0.78028 0.5933 0.49705 0.0
H399 H 0.73373 0.59522 0.80733 0.0
H400 H 0.73607 0.59329 0.67835 0.0
H401 H 0.79121 0.60026 0.60315 0.0
H402 H 0.79058 0.57517 0.24915 0.0
H403 H 0.78839 0.57745 0.37805 0.0
H404 H 0.7335 0.57093 0.45271 0.0
C405 C 0.74526 0.59055 0.7119 0.0
C406 C 0.77849 0.59365 0.57103 0.0
C407 C 0.74397 0.59175 0.78581 0.0
C408 C 0.7805 0.57889 0.27047 0.0
C409 C 0.77929 0.58028 0.34432 0.0
C410 C 0.74623 0.57754 0.48487 0.0
C411 C 0.75866 0.58648 0.68175 0.0
C412 C 0.76053 0.58593 0.60294 0.0
C413 C 0.76605 0.5846 0.37422 0.0
C414 C 0.76418 0.58524 0.45299 0.0
H415 H 0.7787 0.58228 0.83517 0.0
H416 H 0.78076 0.57985 0.70632 0.0
H417 H 0.73038 0.57156 0.58158 0.0
H418 H 0.7462 0.58893 0.22049 0.0
H419 H 0.74421 0.59158 0.34934 0.0
C420 C 0.60901 0.02269 0.79542 0.0
C421 C 0.60381 1.00499 0.82512 0.0
C422 C 0.61022 0.02518 0.72154 0.0
C423 C 0.61413 1.00382 0.55243 0.0
H424 H 0.594 0.03367 0.46899 0.0
C425 C 0.60519 1.00683 0.24828 0.0
C426 C 0.61058 0.02461 0.21891 0.0
C427 C 0.60385 1.00423 0.32212 0.0
C428 C 0.59985 0.02544 0.49142 0.0
H429 H 0.59615 0.97611 0.80107 0.0
H430 H 0.59811 0.98037 0.67208 0.0
H431 H 0.59346 0.02985 0.5978 0.0
H432 H 0.61836 0.0535 0.24345 0.0
H433 H 0.61614 0.04904 0.37233 0.0
H434 H 0.62051 0.99941 0.44602 0.0
C435 C 0.60144 0.9924 0.70571 0.0
C436 C 0.59958 0.02328 0.56537 0.0
C437 C 0.60024 0.98992 0.77961 0.0
C438 C 0.61414 0.03962 0.26465 0.0
C439 C 0.61279 0.03703 0.33849 0.0
C440 C 0.6144 1.00598 0.47847 0.0
C441 C 0.60625 1.01001 0.67566 0.0
C442 C 0.60673 1.01245 0.59687 0.0
C443 C 0.60784 0.01936 0.36824 0.0
C444 C 0.60727 1.01683 0.44698 0.0
H445 H 0.61182 0.03456 0.8292 0.0
H446 H 0.61424 0.039 0.70036 0.0
H447 H 0.61999 0.99561 0.57485 0.0
H448 H 0.6023 0.99497 0.21426 0.0
H449 H 0.5997 0.99035 0.34308 0.0
C450 C 0.82861 0.90489 0.56716 0.0
C451 C 0.84376 0.91594 0.52144 0.0
C452 C 0.83117 0.90628 0.64111 0.0
C453 C 0.86282 0.93873 0.7808 0.0
H454 H 0.83814 0.8945 0.90143 0.0
C455 C 0.8792 0.94073 0.08232 0.0
C456 C 0.86405 0.92964 0.12799 0.0
C457 C 0.87662 0.93943 0.00837 0.0
C458 C 0.84495 0.90704 0.86864 0.0
H459 H 0.87358 0.93682 0.51712 0.0
H460 H 0.87815 0.93903 0.64583 0.0
H461 H 0.83407 0.89102 0.77272 0.0
H462 H 0.83419 0.90889 0.13231 0.0
H463 H 0.8296 0.90679 0.00355 0.0
H464 H 0.87372 0.95475 0.87673 0.0
C465 C 0.86419 0.92951 0.62486 0.0
C466 C 0.84263 0.90504 0.79472 0.0
C467 C 0.86162 0.9281 0.55101 0.0
C468 C 0.84616 0.91757 0.09841 0.0
C469 C 0.84357 0.91626 0.02455 0.0
C470 C 0.86515 0.94074 0.85473 0.0
C471 C 0.84896 0.91876 0.67097 0.0
C472 C 0.85154 0.92085 0.74977 0.0
C473 C 0.85882 0.92699 0.97847 0.0
C474 C 0.85624 0.92492 0.89967 0.0
H475 H 0.81467 0.89544 0.54583 0.0
H476 H 0.81908 0.89792 0.67489 0.0
H477 H 0.86964 0.95127 0.74801 0.0
H478 H 0.89315 0.95013 0.10365 0.0
H479 H 0.88871 0.94779 0.97459 0.0
C480 C 0.28798 0.7613 0.56327 0.0
C481 C 0.27668 0.76517 0.51755 0.0
C482 C 0.28659 0.76244 0.63723 0.0
C483 C 0.26941 0.7822 0.77824 0.0
H484 H 0.26961 0.74316 0.89507 0.0
C485 C 0.25124 0.77531 0.07837 0.0
C486 C 0.26257 0.77148 0.12408 0.0
C487 C 0.25257 0.7741 0.00441 0.0
C488 C 0.26971 0.75428 0.86338 0.0
H489 H 0.25526 0.77354 0.51331 0.0
H490 H 0.25279 0.7755 0.64203 0.0
H491 H 0.2734 0.74266 0.76653 0.0
H492 H 0.28389 0.76298 0.12837 0.0
H493 H 0.28629 0.76093 -0.00039 0.0
H494 H 0.26572 0.79384 0.87509 0.0
C495 C 0.26288 0.77177 0.62104 0.0
C496 C 0.27193 0.75402 0.78956 0.0
C497 C 0.26426 0.7706 0.54717 0.0
C498 C 0.27492 0.76596 0.09447 0.0
C499 C 0.27624 0.76472 0.0206 0.0
C500 C 0.26719 0.78247 0.85206 0.0
C501 C 0.27389 0.76751 0.66714 0.0
C502 C 0.27181 0.76798 0.74597 0.0
C503 C 0.26524 0.76899 0.9745 0.0
C504 C 0.26731 0.76851 0.89566 0.0
H505 H 0.2977 0.75712 0.54192 0.0
H506 H 0.2955 0.75935 0.67101 0.0
H507 H 0.26951 0.79333 0.74655 0.0
H508 H 0.24155 0.77955 0.0997 0.0
H509 H 0.24366 0.77719 0.97065 0.0
C510 C 0.42201 0.33035 0.55242 0.0
C511 C 0.42791 0.3482 0.52259 0.0
C512 C 0.42041 0.32781 0.62632 0.0
C513 C 0.43752 0.35429 0.79581 0.0
H514 H 0.39628 0.30908 0.87859 0.0
C515 C 0.42387 0.34557 0.09999 0.0
C516 C 0.41778 0.32766 0.12962 0.0
C517 C 0.4254 0.34814 0.02609 0.0
C518 C 0.40803 0.32169 0.85639 0.0
H519 H 0.43646 0.37731 0.54657 0.0
H520 H 0.43354 0.37288 0.67554 0.0
H521 H 0.39784 0.31338 0.74989 0.0
H522 H 0.40889 0.29849 0.10529 0.0
H523 H 0.41177 0.30298 0.97638 0.0
H524 H 0.44773 0.36259 0.90227 0.0
C525 C 0.43037 0.36087 0.64201 0.0
C526 C 0.40891 0.32417 0.78245 0.0
C527 C 0.43193 0.3634 0.56808 0.0
C528 C 0.41356 0.31245 0.08394 0.0
C529 C 0.41508 0.31501 0.01003 0.0
C530 C 0.43665 0.35181 0.86974 0.0
C531 C 0.42473 0.34307 0.6722 0.0
C532 C 0.42366 0.3405 0.75112 0.0
C533 C 0.42087 0.33286 0.98002 0.0
C534 C 0.4219 0.33547 0.90109 0.0
H535 H 0.41895 0.3184 0.51873 0.0
H536 H 0.41624 0.31396 0.64756 0.0
H537 H 0.44927 0.3669 0.77357 0.0
H538 H 0.42715 0.35755 0.13385 0.0
H539 H 0.42971 0.36204 0.00505 0.0
C540 C 0.50742 0.1589 0.41996 0.0
C541 C 0.52284 0.17307 0.45766 0.0
C542 C 0.50517 0.16124 0.3478 0.0
C543 C 0.52922 0.18974 0.1895 0.0
H544 H 0.47858 0.17879 0.13762 0.0
C545 C 0.51586 0.20543 0.91121 0.0
C546 C 0.50257 0.18867 0.87735 0.0
C547 C 0.51628 0.20664 0.98519 0.0
C548 C 0.49279 0.18202 0.15172 0.0
H549 H 0.54905 0.19977 0.44803 0.0
H550 H 0.54504 0.20385 0.32264 0.0
H551 H 0.48488 0.17233 0.25859 0.0
H552 H 0.47747 0.16135 0.89316 0.0
H553 H 0.47836 0.16343 0.02206 0.0
H554 H 0.53711 0.19921 0.08271 0.0
C555 C 0.53462 0.19103 0.34862 0.0
C556 C 0.49635 0.17812 0.22042 0.0
C557 C 0.53689 0.18869 0.42058 0.0
C558 C 0.48814 0.17428 0.91789 0.0
C559 C 0.48855 0.17552 0.99182 0.0
C560 C 0.52568 0.19373 0.12109 0.0
C561 C 0.51834 0.17772 0.31239 0.0
C562 C 0.51455 0.18171 0.23955 0.0
C563 C 0.50337 0.19118 0.02596 0.0
C564 C 0.5074 0.18971 0.10136 0.0
H565 H 0.49641 0.14664 0.44695 0.0
H566 H 0.49273 0.15053 0.32043 0.0
H567 H 0.54333 0.19253 0.20266 0.0
H568 H 0.52696 0.21694 0.88132 0.0
H569 H 0.5276 0.21904 0.0106 0.0
C570 C 0.03961 0.19409 0.42557 0.0
C571 C 1.02596 0.19652 0.46231 0.0
C572 C 0.03847 0.19198 0.35184 0.0
C573 C 1.00062 0.17195 0.22245 0.0
H574 H 0.04095 0.18652 0.08504 0.0
C575 C 0.99049 0.15985 0.92034 0.0
C576 C 1.00414 0.15744 0.88347 0.0
C577 C 0.99168 0.162 -0.00595 0.0
C578 C 1.02959 0.18208 0.12333 0.0
H579 H 1.00237 0.20166 0.45081 0.0
H580 H 1.00063 0.1983 0.32186 0.0
H581 H 0.04836 0.20031 0.20397 0.0
H582 H 1.02777 0.15236 0.8948 0.0
H583 H 1.0296 0.1558 0.02371 0.0
H584 H 0.98185 0.15372 0.14184 0.0
C585 C 1.01173 0.19734 0.35014 0.0
C586 C 0.03382 0.19013 0.19094 0.0
C587 C 1.01281 0.19937 0.42376 0.0
C588 C 1.01734 0.15465 0.92191 0.0
C589 C 1.01847 0.15672 -0.00448 0.0
C590 C 0.99639 0.1639 0.15485 0.0
C591 C 1.02378 0.19244 0.3143 0.0
C592 C 1.01936 0.18516 0.24097 0.0
C593 C 1.00641 0.1616 0.03147 0.0
C594 C 1.01084 0.16887 0.10481 0.0
H595 H 0.05001 0.19199 0.45396 0.0
H596 H 0.04802 0.18832 0.3253 0.0
H597 H 0.98925 0.16752 0.26074 0.0
H598 H 0.98003 0.16188 0.89207 0.0
H599 H 0.98212 0.16564 0.02066 0.0
C600 C 0.99284 0.65019 0.4185 0.0
C601 C 0.99498 0.66587 0.45704 0.0
C602 C 0.99488 0.65121 0.3449 0.0
C603 C 1.00085 0.68005 0.18579 0.0
H604 H 0.03905 0.66663 0.13718 0.0
C605 C 0.03633 0.70013 0.91715 0.0
C606 C 0.03418 0.68443 0.87874 0.0
C607 C 0.0343 0.69915 0.99076 0.0
C608 C 1.02838 0.67039 0.15007 0.0
H609 H 0.99821 0.69385 0.44861 0.0
H610 H 1.00191 0.69566 0.32006 0.0
H611 H 1.02517 0.65974 0.2559 0.0
H612 H 1.03094 0.65645 0.88739 0.0
H613 H 1.02726 0.65471 0.01595 0.0
H614 H 1.00406 0.69069 0.07995 0.0
C615 C 0.9988 0.68265 0.34658 0.0
C616 C 1.02028 0.66628 0.21754 0.0
C617 C 0.99668 0.68161 0.42027 0.0
C618 C 0.03247 0.6687 0.91564 0.0
C619 C 1.03037 0.6677 0.98933 0.0
C620 C 1.00895 0.68416 0.11831 0.0
C621 C 0.99907 0.66791 0.30908 0.0
C622 C 1.00642 0.67103 0.23586 0.0
C623 C 1.03011 0.68247 0.02671 0.0
C624 C 1.0228 0.67939 0.09998 0.0
H625 H 0.9911 0.6377 0.44552 0.0
H626 H 0.99449 0.63945 0.31662 0.0
H627 H 0.99018 0.68381 0.19868 0.0
H628 H 0.03807 0.7126 0.89004 0.0
H629 H 0.0347 0.71092 0.01894 0.0
C630 C 0.39316 0.37694 0.23729 0.0
C631 C 0.389 0.36369 0.29199 0.0
C632 C 0.38004 0.38259 0.21797 0.0
C633 C 0.33777 0.38426 0.28235 0.0
H634 H 0.32678 0.38496 0.08197 0.0
C635 C 0.27361 0.39116 0.18983 0.0
C636 C 0.27559 0.40194 0.12865 0.0
C637 C 0.28758 0.38667 0.20879 0.0
C638 C 0.32981 0.38512 0.13817 0.0
H639 H 0.36796 0.34645 0.3706 0.0
H640 H 0.34536 0.35646 0.33769 0.0
H641 H 0.35152 0.37809 0.11807 0.0
H642 H 0.29382 0.41586 0.03825 0.0
H643 H 0.31833 0.40861 0.07238 0.0
H644 H 0.31629 0.39148 0.30279 0.0
C645 C 0.35871 0.3625 0.30957 0.0
C646 C 0.34404 0.38116 0.15885 0.0
C647 C 0.37169 0.35671 0.32829 0.0
C648 C 0.29183 0.40777 0.08631 0.0
C649 C 0.30585 0.40338 0.10549 0.0
C650 C 0.32366 0.38837 0.26171 0.0
C651 C 0.36256 0.37531 0.25351 0.0
C652 C 0.34811 0.38053 0.23125 0.0
C653 C 0.30405 0.39291 0.16742 0.0
C654 C 0.31933 0.38873 0.18929 0.0
H655 H 0.40629 0.38252 0.20791 0.0
H656 H 0.38353 0.39261 0.17497 0.0
H657 H 0.34069 0.38414 0.33855 0.0
H658 H 0.26147 0.38655 0.2244 0.0
H659 H 0.28542 0.37829 0.25614 0.0
C660 C 0.79697 0.7247 0.09828 0.0
C661 C 0.78803 0.71013 0.14861 0.0
C662 C 0.80112 0.74318 0.11427 0.0
C663 C 0.8073 0.77449 0.26839 0.0
H664 H 0.80385 0.80678 0.12492 0.0
C665 C 0.83903 0.8544 0.31396 0.0
C666 C 0.82952 0.86355 0.28732 0.0
C667 C 0.83295 0.83556 0.29714 0.0
C668 C 0.80471 0.7979 0.16589 0.0
H669 H 0.7758 0.70361 0.25442 0.0
H670 H 0.7829 0.73557 0.28201 0.0
H671 H 0.79509 0.77432 0.09479 0.0
H672 H 0.80589 0.85975 0.22218 0.0
H673 H 0.79504 0.82662 0.19345 0.0
H674 H 0.81658 0.79785 0.33983 0.0
C675 C 0.78718 0.73291 0.23074 0.0
C676 C 0.79992 0.77933 0.14832 0.0
C677 C 0.78311 0.71451 0.21488 0.0
C678 C 0.81354 0.85317 0.24384 0.0
C679 C 0.80742 0.83421 0.22688 0.0
C680 C 0.81205 0.793 0.28591 0.0
C681 C 0.79637 0.74758 0.18094 0.0
C682 C 0.80122 0.76736 0.19928 0.0
C683 C 0.81709 0.82515 0.25321 0.0
C684 C 0.81099 0.80506 0.23486 0.0
H685 H 0.80109 0.7219 0.0469 0.0
H686 H 0.80841 0.75409 0.0748 0.0
H687 H 0.80871 0.76587 0.30902 0.0
H688 H 0.85144 0.86185 0.34733 0.0
H689 H 0.841 0.82928 0.31753 0.0
C690 C 0.46894 0.92063 0.17748 0.0
C691 C 0.48078 0.91706 0.13333 0.0
C692 C 0.45062 0.90627 0.19437 0.0
C693 C 0.41211 0.8589 0.13806 0.0
H694 H 0.39494 0.8565 0.3321 0.0
C695 C 0.33926 0.79806 0.23804 0.0
C696 C 0.32891 0.8034 0.28307 0.0
C697 C 0.35814 0.81101 0.22016 0.0
C698 C 0.39938 0.85702 0.27744 0.0
H699 H 0.48223 0.89528 0.07199 0.0
H700 H 0.45027 0.87034 0.10083 0.0
H701 H 0.4266 0.88095 0.29859 0.0
H702 H 0.33064 0.82663 0.34519 0.0
H703 H 0.36305 0.84895 0.31391 0.0
H704 H 0.38474 0.83504 0.11687 0.0
C705 C 0.45515 0.88436 0.122 0.0
C706 C 0.4176 0.87111 0.25816 0.0
C707 C 0.47352 0.89873 0.10527 0.0
C708 C 0.33806 0.82189 0.31056 0.0
C709 C 0.35682 0.83475 0.29288 0.0
C710 C 0.39381 0.84481 0.15734 0.0
C711 C 0.44351 0.88786 0.16751 0.0
C712 C 0.42419 0.8724 0.18803 0.0
C713 C 0.36716 0.82959 0.24714 0.0
C714 C 0.38709 0.84379 0.22718 0.0
H715 H 0.47381 0.9346 0.19911 0.0
H716 H 0.44197 0.90964 0.22837 0.0
H717 H 0.41661 0.85951 0.08343 0.0
H718 H 0.3327 0.78398 0.21567 0.0
H719 H 0.36568 0.80644 0.18534 0.0
C720 C 0.58343 0.06211 -6e-05 0.0
C721 C 0.57574 0.04301 0.98139 0.0
C722 C 0.57545 0.0727 0.97439 0.0
C723 C 0.5507 0.07669 0.82029 0.0
H724 H 0.54414 0.11228 0.93673 0.0
C725 C 0.55018 0.14283 0.70786 0.0
C726 C 0.53668 0.14712 0.73504 0.0
C727 C 0.55217 0.12807 0.73688 0.0
C728 C 0.54573 0.10231 0.90349 0.0
H729 H 0.55349 0.01992 0.92204 0.0
H730 H 0.53966 0.03864 0.87565 0.0
H731 H 0.55193 0.08995 -0.00695 0.0
H732 H 0.51445 0.13909 0.81328 0.0
H733 H 0.51818 0.11356 0.86496 0.0
H734 H 0.54522 0.08956 0.73047 0.0
C735 C 0.55174 0.04529 0.91107 0.0
C736 C 0.55028 0.08958 0.93575 0.0
C737 C 0.5595 0.03453 0.93817 0.0
C738 C 0.52498 0.13612 0.79114 0.0
C739 C 0.52718 0.12156 0.82095 0.0
C740 C 0.54648 0.08966 0.78789 0.0
C741 C 0.55982 0.06459 0.9281 0.0
C742 C 0.55301 0.07673 0.89454 0.0
C743 C 0.5409 0.11744 0.79457 0.0
C744 C 0.54412 0.10276 0.82903 0.0
H745 H 0.59606 0.06905 0.03257 0.0
H746 H 0.58213 0.08753 0.98808 0.0
H747 H 0.55289 0.06711 0.78698 0.0
H748 H 0.5594 0.15106 0.66469 0.0
H749 H 0.56297 0.12539 0.71565 0.0
C750 C 0.05906 0.22675 0.78679 0.0
C751 C 0.04784 0.2275 0.73124 0.0
C752 C 0.07406 0.24344 0.81531 0.0
C753 C 0.10546 0.29434 0.77391 0.0
H754 H 0.11001 0.30184 0.97842 0.0
C755 C 0.13903 0.36781 0.89665 0.0
C756 C 0.15076 0.37256 0.95707 0.0
C757 C 0.12948 0.34941 0.87057 0.0
C758 C 0.1092 0.29986 0.92125 0.0
H759 H 0.04382 0.24627 0.66117 0.0
H760 H 0.06984 0.27517 0.71 0.0
H761 H 0.0875 0.27075 0.92942 0.0
H762 H 0.16184 0.3615 0.03688 0.0
H763 H 0.1447 0.32876 0.9913 0.0
H764 H 0.12667 0.32343 0.76531 0.0
C765 C 0.06723 0.26179 0.73169 0.0
C766 C 0.09626 0.28204 0.8931 0.0
C767 C 0.0522 0.2452 0.70383 0.0
C768 C 0.15295 0.3583 0.99019 0.0
C769 C 0.14305 0.33958 0.96434 0.0
C770 C 0.11834 0.31203 0.8019 0.0
C771 C 0.07831 0.26121 0.78816 0.0
C772 C 0.09381 0.27923 0.81894 0.0
C773 C 0.13119 0.33495 0.90402 0.0
C774 C 0.11997 0.31524 0.87586 0.0
H775 H 0.05601 0.2133 0.80916 0.0
H776 H 0.08234 0.24245 0.85846 0.0
H777 H 0.10432 0.29261 0.71664 0.0
H778 H 0.13707 0.37839 0.86916 0.0
H779 H 0.12031 0.34642 0.82481 0.0
C780 C 0.96417 0.66848 0.78236 0.0
C781 C 0.96363 0.65639 0.72787 0.0
C782 C 0.94733 0.6658 0.8139 0.0
C783 C 0.89781 0.62774 0.84215 0.0
H784 H 0.88875 0.66778 0.90551 0.0
C785 C 0.83308 0.60964 0.01254 0.0
C786 C 0.82191 0.61765 -0.00653 0.0
C787 C 0.8514 0.61688 0.98597 0.0
C788 C 0.89104 0.65644 0.88788 0.0
H789 H 0.945 0.63271 0.66121 0.0
H790 H 0.91585 0.62821 0.7149 0.0
H791 H 0.91834 0.67564 0.84368 0.0
H792 H 0.82154 0.64017 0.93414 0.0
H793 H 0.85378 0.6529 0.88662 0.0
H794 H 0.87063 0.60852 0.88469 0.0
C795 C 0.92918 0.63948 0.73483 0.0
C796 C 0.90808 0.66095 0.85295 0.0
C797 C 0.94593 0.64213 0.70362 0.0
C798 C 0.82994 0.63388 0.95054 0.0
C799 C 0.84837 0.64109 0.9231 0.0
C800 C 0.88095 0.62328 0.87704 0.0
C801 C 0.9296 0.65096 0.7916 0.0
C802 C 0.91165 0.64661 0.82931 0.0
C803 C 0.85905 0.63219 0.93835 0.0
C804 C 0.87729 0.63751 0.90083 0.0
H805 H 0.97761 0.67961 0.80218 0.0
H806 H 0.94825 0.67488 0.85755 0.0
H807 H 0.90007 0.61628 0.82586 0.0
H808 H 0.82728 0.59714 0.04567 0.0
H809 H 0.85932 0.60996 0.00068 0.0
C810 C 0.07203 0.59872 0.82991 0.0
C811 C 0.05248 0.59031 0.81694 0.0
C812 C 0.07991 0.58787 0.85392 0.0
C813 C 0.06733 0.54167 0.93605 0.0
H814 H 0.11326 0.54908 0.84509 0.0
C815 C 0.08969 0.48496 0.93766 0.0
C816 C 0.10899 0.49061 0.94383 0.0
C817 C 0.08383 0.49832 0.93097 0.0
C818 C 0.1006 0.54701 0.8719 0.0
H819 H 1.02593 0.56383 0.81891 0.0
H820 H 0.03959 0.54503 0.86066 0.0
H821 H 0.10117 0.57036 0.81774 0.0
H822 H 0.13728 0.51482 0.94903 0.0
H823 H 0.12701 0.53825 0.93791 0.0
H824 H 0.06654 0.51807 0.98899 0.0
C825 C 0.04883 0.56006 0.85362 0.0
C826 C 0.09366 0.55923 0.85623 0.0
C827 C 0.04098 0.57087 0.82966 0.0
C828 C 0.1223 0.51001 0.94473 0.0
C829 C 0.11643 0.52342 0.9377 0.0
C830 C 0.07425 0.52946 0.95162 0.0
C831 C 0.06841 0.56837 0.86553 0.0
C832 C 0.07675 0.55649 0.88714 0.0
C833 C 0.09712 0.51772 0.93019 0.0
C834 C 0.09078 0.53177 0.91878 0.0
H835 H 0.08127 0.61369 0.82147 0.0
H836 H 0.09501 0.59477 0.86342 0.0
H837 H 0.05448 0.53938 0.9619 0.0
H838 H 0.07906 0.47014 0.93767 0.0
H839 H 0.06887 0.49342 0.92454 0.0
C840 C 0.70927 0.44706 0.89961 0.0
C841 C 0.70354 0.46017 0.91748 0.0
C842 C 0.69591 0.42822 0.88656 0.0
C843 C 0.64558 0.39198 0.91325 0.0
H844 H 0.65644 0.36685 0.76038 0.0
C845 C 0.59279 0.3159 0.81143 0.0
C846 C 0.60072 0.3042 0.80094 0.0
C847 C 0.6044 0.33512 0.82701 0.0
C848 C 0.65325 0.37364 0.80352 0.0
H849 H 0.67924 0.46372 0.93669 0.0
H850 H 0.65579 0.43074 0.913 0.0
H851 H 0.67831 0.39999 0.78477 0.0
H852 H 0.62703 0.30355 0.79793 0.0
H853 H 0.64713 0.33686 0.82522 0.0
H854 H 0.62035 0.36544 0.93123 0.0
C855 C 0.67067 0.43501 0.90993 0.0
C856 C 0.66582 0.39263 0.81772 0.0
C857 C 0.68409 0.45391 0.92341 0.0
C858 C 0.62043 0.3121 0.80664 0.0
C859 C 0.63199 0.33124 0.82149 0.0
C860 C 0.63289 0.37293 0.89865 0.0
C861 C 0.67643 0.42197 0.89056 0.0
C862 C 0.66234 0.40199 0.87351 0.0
C863 C 0.62415 0.34301 0.83129 0.0
C864 C 0.63678 0.3635 0.84435 0.0
H865 H 0.72415 0.45135 0.89609 0.0
H866 H 0.7009 0.4185 0.87363 0.0
H867 H 0.64251 0.3987 0.95692 0.0
H868 H 0.57764 0.31019 0.80761 0.0
H869 H 0.59799 0.34388 0.83409 0.0
C870 C 0.88493 0.14914 0.84704 0.0
C871 C 0.89195 0.13914 0.80857 0.0
C872 C 0.86602 0.14033 0.86855 0.0
C873 C 0.81915 0.10001 0.82254 0.0
H874 H 0.80402 0.1135 -0.00129 0.0
C875 C 0.74052 0.06668 0.90722 0.0
C876 C 0.73488 0.07927 0.93357 0.0
C877 C 0.75971 0.07257 0.89705 0.0
C878 C 0.80801 0.10966 0.94912 0.0
H879 H 0.88458 0.11176 0.7646 0.0
H880 H 0.85167 0.09625 0.80367 0.0
H881 H 0.83753 0.12598 0.9736 0.0
H882 H 0.74517 0.10803 0.96932 0.0
H883 H 0.77849 0.11818 0.95221 0.0
H884 H 0.7896 0.08382 0.79787 0.0
C885 C 0.86075 0.11104 0.81612 0.0
C886 C 0.82723 0.11683 0.93466 0.0
C887 C 0.87971 0.11988 0.79448 0.0
C888 C 0.74895 0.09783 0.95023 0.0
C889 C 0.7681 0.10367 0.94034 0.0
C890 C 0.79991 0.09278 0.83715 0.0
C891 C 0.85358 0.12123 0.85245 0.0
C892 C 0.83308 0.11234 0.87067 0.0
C893 C 0.77373 0.09116 0.91326 0.0
C894 C 0.79411 0.09774 0.90013 0.0
H895 H 0.89401 0.16392 0.85972 0.0
H896 H 0.86102 0.14871 0.89582 0.0
H897 H 0.82309 0.09645 0.77227 0.0
H898 H 0.73012 0.05222 0.89482 0.0
H899 H 0.76357 0.06251 0.87692 0.0
C900 C 0.66137 1.00052 0.03198 0.0
C901 C 0.64278 0.99093 0.05879 0.0
C902 C 0.67462 0.99521 0.05178 0.0
C903 C 0.6802 0.95646 0.12878 0.0
H904 H 0.73096 0.99696 0.17021 0.0
C905 C 0.73855 0.94218 0.24074 0.0
C906 C 0.75701 0.95324 0.21386 0.0
C907 C 0.72432 0.94655 0.22475 0.0
C908 C 0.71694 0.98544 0.15809 0.0
H909 H 0.62351 0.96778 0.12618 0.0
H910 H 0.64673 0.95844 0.16074 0.0
H911 H 0.70661 1.00442 0.13561 0.0
H912 H 0.77492 0.97791 0.15018 0.0
H913 H 0.75016 0.98526 0.12119 0.0
H914 H 0.69062 0.93748 0.15067 0.0
C915 C 0.65098 0.97009 0.12408 0.0
C916 C 0.70293 0.98973 0.13824 0.0
C917 C 0.63765 0.97545 0.10432 0.0
C918 C 0.76087 0.96894 0.17134 0.0
C919 C 0.74666 0.97329 0.15533 0.0
C920 C 0.69427 0.95215 0.14846 0.0
C921 C 0.66975 0.98013 0.09899 0.0
C922 C 0.6844 0.97533 0.12265 0.0
C923 C 0.72814 0.96211 0.18145 0.0
C924 C 0.7129 0.96659 0.16286 0.0
H925 H 0.66589 1.01243 -0.00361 0.0
H926 H 0.68879 1.00303 0.03012 0.0
H927 H 0.66615 0.945 0.1166 0.0
H928 H 0.73492 0.92985 0.27292 0.0
H929 H 0.71032 0.93772 0.2466 0.0
C930 C 0.25054 0.63809 0.14945 0.0
C931 C 0.24193 0.64238 0.20589 0.0
C932 C 0.24622 0.61947 0.1363 0.0
C933 C 0.20899 0.57006 0.16459 0.0
H934 H 0.24807 0.55857 0.10926 0.0
C935 C 0.19108 0.49884 0.03681 0.0
C936 C 0.2009 0.48972 0.0606 0.0
C937 C 0.19671 0.51735 0.05747 0.0
C938 C 0.237 0.5615 0.12512 0.0
H939 H 0.22206 0.63029 0.29304 0.0
H940 H 0.21444 0.59773 0.26994 0.0
H941 H 0.2567 0.59089 0.14195 0.0
H942 H 0.22483 0.49337 0.12352 0.0
H943 H 0.23487 0.52593 0.1589 0.0
H944 H 0.18928 0.54075 0.14737 0.0
C945 C 0.22452 0.60884 0.23567 0.0
C946 C 0.24193 0.58007 0.14326 0.0
C947 C 0.22899 0.62752 0.24927 0.0
C948 C 0.21693 0.49991 0.10409 0.0
C949 C 0.22269 0.51859 0.12434 0.0
C950 C 0.20406 0.55156 0.14583 0.0
C951 C 0.23306 0.60456 0.1789 0.0
C952 C 0.22797 0.58463 0.16278 0.0
C953 C 0.21247 0.52744 0.10209 0.0
C954 C 0.21797 0.54704 0.12524 0.0
H955 H 0.26077 0.64918 0.11551 0.0
H956 H 0.25294 0.61673 0.09176 0.0
H957 H 0.19785 0.57304 0.17882 0.0
H958 H 0.17881 0.49162 0.0026 0.0
H959 H 0.18872 0.5238 0.03812 0.0
C960 C 0.69539 0.5292 0.04527 0.0
C961 C 0.70275 0.54847 0.0606 0.0
C962 C 0.6767 0.5159 0.06183 0.0
C963 C 0.63476 0.50873 0.169 0.0
H964 H 0.60961 0.46388 0.05156 0.0
C965 C 0.56129 0.44523 0.24652 0.0
C966 C 0.5487 0.43459 0.19151 0.0
C967 C 0.57999 0.45922 0.2314 0.0
C968 C 0.61617 0.47638 0.08468 0.0
H969 H 0.69578 0.56881 0.10436 0.0
H970 H 0.66275 0.54569 0.13032 0.0
H971 H 0.64106 0.48845 0.02071 0.0
H972 H 0.54655 0.43027 0.07704 0.0
H973 H 0.5783 0.45503 0.0507 0.0
H974 H 0.6093 0.49697 0.23071 0.0
C975 C 0.6717 0.54075 0.10742 0.0
C976 C 0.63456 0.49046 0.06761 0.0
C977 C 0.69064 0.5541 0.09188 0.0
C978 C 0.55553 0.43829 0.12111 0.0
C979 C 0.57404 0.45241 0.10595 0.0
C980 C 0.61617 0.49473 0.18545 0.0
C981 C 0.66443 0.52138 0.09287 0.0
C982 C 0.64431 0.50681 0.10983 0.0
C983 C 0.58665 0.46315 0.16071 0.0
C984 C 0.60657 0.47824 0.14372 0.0
H985 H 0.70415 0.52418 0.02133 0.0
H986 H 0.67206 0.5012 0.0512 0.0
H987 H 0.6417 0.52092 0.20353 0.0
H988 H 0.55665 0.44304 0.3014 0.0
H989 H 0.58921 0.46687 0.27544 0.0
C990 C 0.95881 0.75333 0.50669 0.0
C991 C 0.97803 0.76175 0.52577 0.0
C992 C 0.95106 0.76443 0.4844 0.0
C993 C 0.96454 0.81235 0.41764 0.0
H994 H 0.91578 0.80144 0.49254 0.0
C995 C 0.94011 0.86741 0.41943 0.0
C996 C 0.92116 0.86155 0.40231 0.0
C997 C 0.94619 0.85426 0.42772 0.0
C998 C 0.92928 0.80452 0.47034 0.0
H999 H 1.00405 0.78849 0.53723 0.0
H1000 H 0.9906 0.80773 0.49865 0.0
H1001 H 0.92795 0.78011 0.51855 0.0
H1002 H 0.89378 0.83711 0.37981 0.0
H1003 H 0.9044 0.81408 0.39528 0.0
H1004 H 0.96608 0.83697 0.37085 0.0
C1005 C 0.98157 0.79255 0.49932 0.0
C1006 C 0.93626 0.79229 0.48516 0.0
C1007 C 0.98931 0.78149 0.52147 0.0
C1008 C 0.90842 0.84212 0.39385 0.0
C1009 C 0.9145 0.82892 0.40256 0.0
C1010 C 0.95761 0.82459 0.40307 0.0
C1011 C 0.96234 0.78419 0.48077 0.0
C1012 C 0.95413 0.79624 0.46 0.0
C1013 C 0.93347 0.83486 0.41951 0.0
C1014 C 0.94005 0.82099 0.43023 0.0
H1015 H 0.94978 0.73816 0.50876 0.0
H1016 H 0.93624 0.75752 0.46973 0.0
H1017 H 0.97817 0.81562 0.39611 0.0
H1018 H 0.95024 0.88219 0.42795 0.0
H1019 H 0.96081 0.85928 0.44215 0.0
C1020 C 0.42938 0.0436 0.49321 0.0
C1021 C 0.42347 0.05247 0.54311 0.0
C1022 C 0.41721 0.02496 0.47209 0.0
C1023 C 0.37585 0.98146 0.53663 0.0
H1024 H 0.37401 0.96364 0.34383 0.0
C1025 C 0.33906 0.90217 0.47079 0.0
C1026 C 0.32751 0.89604 0.40982 0.0
C1027 C 0.35102 0.9214 0.48365 0.0
C1028 C 0.37428 0.96842 0.39783 0.0
H1029 H 0.3999 0.04878 0.60828 0.0
H1030 H 0.37858 1.01645 0.57032 0.0
H1031 H 0.3935 0.99725 0.37064 0.0
H1032 H 0.32001 0.90538 0.31327 0.0
H1033 H 0.3407 0.93898 0.33627 0.0
H1034 H 0.35651 0.95275 0.56381 0.0
C1035 C 0.39273 0.02383 0.54828 0.0
C1036 C 0.38557 0.98765 0.41332 0.0
C1037 C 0.40487 0.04247 0.56934 0.0
C1038 C 0.32856 0.90962 0.36116 0.0
C1039 C 0.34056 0.92888 0.37398 0.0
C1040 C 0.36463 0.96227 0.52122 0.0
C1041 C 0.39886 1.01473 0.50045 0.0
C1042 C 0.3865 0.99439 0.48296 0.0
C1043 C 0.35175 0.93501 0.43587 0.0
C1044 C 0.36374 0.95549 0.45172 0.0
H1045 H 0.44354 0.05098 0.47133 0.0
H1046 H 0.42244 1.01836 0.43543 0.0
H1047 H 0.37642 0.98611 0.59103 0.0
H1048 H 0.33849 0.89212 0.50971 0.0
H1049 H 0.35965 0.92563 0.53134 0.0
C1050 C 0.15253 0.23178 0.57488 0.0
C1051 C 0.13845 0.21585 0.53899 0.0
C1052 C 0.1715 0.24006 0.55414 0.0
C1053 C 0.20425 0.22853 0.45882 0.0
H1054 H 0.23867 0.28246 0.47103 0.0
C1055 C 0.28257 0.26218 0.37343 0.0
C1056 C 0.29595 0.27556 0.4205 0.0
C1057 C 0.26326 0.25583 0.38207 0.0
C1058 C 0.22925 0.26735 0.46775 0.0
H1059 H 0.1332 0.19673 0.4508 0.0
H1060 H 0.16622 0.21125 0.41411 0.0
H1061 H 0.20506 0.26984 0.49536 0.0
H1062 H 0.29957 0.29322 0.51202 0.0
H1063 H 0.26587 0.28207 0.52733 0.0
H1064 H 0.22845 0.22604 0.43161 0.0
C1065 C 0.16268 0.2171 0.45941 0.0
C1066 C 0.20998 0.26011 0.48178 0.0
C1067 C 0.14373 0.2088 0.48032 0.0
C1068 C 0.2896 0.28277 0.47529 0.0
C1069 C 0.2703 0.27652 0.48363 0.0
C1070 C 0.22349 0.23578 0.44451 0.0
C1071 C 0.17687 0.23265 0.49679 0.0
C1072 C 0.19724 0.24057 0.47813 0.0
C1073 C 0.25687 0.26279 0.43767 0.0
C1074 C 0.23626 0.25526 0.4494 0.0
H1075 H 0.149 0.23744 0.62086 0.0
H1076 H 0.18202 0.25185 0.5848 0.0
H1077 H 0.19497 0.21339 0.4567 0.0
H1078 H 0.28698 0.25624 0.331 0.0
H1079 H 0.2533 0.24538 0.34532 0.0
C1080 C 0.50737 0.22115 0.5906 0.0
C1081 C 0.49281 0.20229 0.58424 0.0
C1082 C 0.50557 0.23581 0.55869 0.0
C1083 C 0.47823 0.24415 0.41758 0.0
H1084 H 0.49007 0.2896 0.52261 0.0
C1085 C 0.44287 0.28806 0.35427 0.0
C1086 C 0.45311 0.30786 0.35878 0.0
C1087 C 0.45101 0.27721 0.3743 0.0
C1088 C 0.48701 0.27716 0.49196 0.0
H1089 H 0.46501 0.18405 0.53965 0.0
H1090 H 0.46187 0.20926 0.4846 0.0
H1091 H 0.4982 0.26682 0.57304 0.0
H1092 H 0.4802 0.33183 0.38698 0.0
H1093 H 0.49458 0.31269 0.42301 0.0
H1094 H 0.46657 0.25409 0.33756 0.0
C1095 C 0.4748 0.21291 0.5132 0.0
C1096 C 0.49165 0.26407 0.52094 0.0
C1097 C 0.47654 0.19841 0.54531 0.0
C1098 C 0.47201 0.31661 0.38223 0.0
C1099 C 0.48015 0.30564 0.40351 0.0
C1100 C 0.4736 0.25715 0.38881 0.0
C1101 C 0.48925 0.23184 0.51918 0.0
C1102 C 0.4868 0.2471 0.48502 0.0
C1103 C 0.46965 0.28575 0.4003 0.0
C1104 C 0.4774 0.27358 0.42641 0.0
H1105 H 0.51999 0.22459 0.62085 0.0
H1106 H 0.517 0.2502 0.56442 0.0
H1107 H 0.4747 0.23151 0.38742 0.0
H1108 H 0.42827 0.28085 0.33653 0.0
H1109 H 0.44237 0.26198 0.37185 0.0
C1110 C 0.89297 0.98608 0.44365 0.0
C1111 C 0.88081 0.98114 0.38445 0.0
C1112 C 0.90232 1.00446 0.47001 0.0
C1113 C 0.92145 0.0539 0.42172 0.0
H1114 H 0.92615 0.0607 0.62654 0.0
C1115 C 0.97094 0.12692 0.55778 0.0
C1116 C 0.98209 0.12621 0.61364 0.0
C1117 C 0.95607 0.1102 0.52887 0.0
C1118 C 0.92506 0.0591 0.56921 0.0
H1119 H 0.86881 0.99187 0.30697 0.0
H1120 H 0.88566 0.02459 0.3529 0.0
H1121 H 0.90427 0.02984 0.57695 0.0
H1122 H 0.98614 0.10747 0.68381 0.0
H1123 H 0.96039 0.07854 0.63422 0.0
H1124 H 0.9428 0.08314 0.41435 0.0
C1125 C 0.88776 1.01392 0.37873 0.0
C1126 C 0.91244 0.04139 0.54073 0.0
C1127 C 0.87806 0.99521 0.35268 0.0
C1128 C 0.9778 0.10852 0.64094 0.0
C1129 C 0.96292 0.0919 0.61265 0.0
C1130 C 0.93416 0.07172 0.45037 0.0
C1131 C 0.89999 1.0187 0.43798 0.0
C1132 C 0.91088 0.03836 0.46669 0.0
C1133 C 0.95189 0.09244 0.55588 0.0
C1134 C 0.93656 0.07439 0.52461 0.0
H1135 H 0.89536 0.97566 0.47015 0.0
H1136 H 0.91177 1.0076 0.51495 0.0
H1137 H 0.92067 0.05204 0.3645 0.0
H1138 H 0.97395 0.14037 0.53547 0.0
H1139 H 0.94782 0.11117 0.4855 0.0
C1140 C 0.08325 0.70681 0.63572 0.0
C1141 C 0.06555 0.69327 0.60885 0.0
C1142 C 0.09998 0.70858 0.60771 0.0
C1143 C 0.12032 0.69969 0.44653 0.0
H1144 H 0.16241 0.71196 0.57361 0.0
C1145 C 0.19702 0.71991 0.34892 0.0
C1146 C 0.21115 0.73661 0.38076 0.0
C1147 C 0.17829 0.711 0.3751 0.0
C1148 C 0.15081 0.70852 0.53723 0.0
H1149 H 0.05149 0.67077 0.5317 0.0
H1150 H 0.08086 0.6739 0.48222 0.0
H1151 H 0.13148 0.70319 0.62282 0.0
H1152 H 0.21672 0.7565 0.4668 0.0
H1153 H 0.18476 0.74115 0.5117 0.0
H1154 H 0.14002 0.70562 0.36085 0.0
C1155 C 0.08176 0.6832 0.52503 0.0
C1156 C 0.13305 0.70354 0.56551 0.0
C1157 C 0.06494 0.68131 0.55367 0.0
C1158 C 0.20626 0.74378 0.44023 0.0
C1159 C 0.18785 0.73484 0.46666 0.0
C1160 C 0.1382 0.70471 0.41808 0.0
C1161 C 0.09953 0.69692 0.55164 0.0
C1162 C 0.11768 0.69962 0.52071 0.0
C1163 C 0.17353 0.7184 0.43452 0.0
C1164 C 0.15382 0.70978 0.46319 0.0
H1165 H 0.08422 0.71626 0.67807 0.0
H1166 H 0.11334 0.71949 0.62896 0.0
H1167 H 0.10883 0.6968 0.41036 0.0
H1168 H 0.20032 0.71405 0.30301 0.0
H1169 H 0.16757 0.69832 0.34916 0.0
loop_
_geom_bond_atom_site_label_1
_geom_bond_atom_site_label_2
_geom_bond_distance
_geom_bond_site_symmetry_2
_ccdc_geom_bond_type
Tb0 C2 2.809 . S
Tb0 O20 2.484 . S
Tb0 O21 2.440 . S
Tb0 O22 2.658 . S
Tb0 O23 2.409 1_554 S
Tb0 O24 2.378 . S
Tb0 O28 2.325 . S
Tb0 O31 2.341 . S
Tb1 C11 2.809 . S
Tb1 O22 2.325 . S
Tb1 O25 2.341 . S
Tb1 O26 2.484 . S
Tb1 O27 2.440 . S
Tb1 O28 2.658 . S
Tb1 O29 2.409 . S
Tb1 O30 2.378 . S
C2 Tb0 2.809 . S
C2 C3 1.514 . S
C2 O20 1.248 . S
C2 O21 1.266 . S
C3 C2 1.514 . S
C3 C4 1.359 . S
C3 C8 1.348 . S
C4 C3 1.359 . S
C4 C5 1.380 . S
C4 H32 0.929 . S
C5 C4 1.380 . S
C5 C6 1.347 . S
C5 H33 0.931 . S
C6 C5 1.347 . S
C6 C7 1.369 . S
C7 C6 1.369 . S
C7 C8 1.408 . S
C7 H34 0.930 . S
C8 C3 1.348 . S
C8 C7 1.408 . S
C8 H35 0.930 . S
C9 O22 1.281 1_556 S
C9 O23 1.254 . S
C10 O24 1.236 . S
C10 O25 1.266 . S
C11 Tb1 2.809 . S
C11 C12 1.514 . S
C11 O26 1.248 . S
C11 O27 1.266 . S
C12 C11 1.514 . S
C12 C13 1.359 . S
C12 C17 1.348 . S
C13 C12 1.359 . S
C13 C14 1.380 . S
C13 H36 0.929 1_554 S
C14 C13 1.380 . S
C14 C15 1.347 . S
C14 H37 0.931 1_554 S
C15 C14 1.347 . S
C15 C16 1.369 . S
C16 C15 1.369 . S
C16 C17 1.408 . S
C16 H38 0.930 . S
C17 C12 1.348 . S
C17 C16 1.408 . S
C17 H39 0.930 . S
C18 O28 1.281 . S
C18 O29 1.254 . S
C19 O30 1.236 . S
C19 O31 1.266 . S
O20 Tb0 2.484 . S
O20 C2 1.248 . S
O21 Tb0 2.440 . S
O21 C2 1.266 . S
O22 Tb0 2.658 . S
O22 Tb1 2.325 . S
O22 C9 1.281 1_554 S
O23 Tb0 2.409 1_556 S
O23 C9 1.254 . S
O24 Tb0 2.378 . S
O24 C10 1.236 . S
O25 Tb1 2.341 . S
O25 C10 1.266 . S
O26 Tb1 2.484 . S
O26 C11 1.248 . S
O27 Tb1 2.440 . S
O27 C11 1.266 . S
O28 Tb0 2.325 . S
O28 Tb1 2.658 . S
O28 C18 1.281 . S
O29 Tb1 2.409 . S
O29 C18 1.254 . S
O30 Tb1 2.378 . S
O30 C19 1.236 . S
O31 Tb0 2.341 . S
O31 C19 1.266 . S
H32 C4 0.929 . S
H33 C5 0.931 . S
H34 C7 0.930 . S
H35 C8 0.930 . S
H36 C13 0.929 1_556 S
H37 C14 0.931 1_556 S
H38 C16 0.930 . S
H39 C17 0.930 . S
Tb40 C42 2.809 . S
Tb40 O60 2.484 . S
Tb40 O61 2.440 . S
Tb40 O62 2.658 . S
Tb40 O63 2.409 1_554 S
Tb40 O64 2.378 . S
Tb40 O68 2.325 . S
Tb40 O71 2.341 . S
Tb41 C51 2.809 . S
Tb41 O62 2.325 . S
Tb41 O65 2.341 . S
Tb41 O66 2.484 . S
Tb41 O67 2.440 . S
Tb41 O68 2.658 . S
Tb41 O69 2.409 . S
Tb41 O70 2.378 . S
C42 Tb40 2.809 . S
C42 C43 1.514 . S
C42 O60 1.248 . S
C42 O61 1.266 . S
C43 C42 1.514 . S
C43 C44 1.359 . S
C43 C48 1.348 . S
C44 C43 1.359 . S
C44 C45 1.380 . S
C44 H72 0.929 . S
C45 C44 1.380 . S
C45 C46 1.347 . S
C45 H73 0.931 . S
C46 C45 1.347 . S
C46 C47 1.369 . S
C47 C46 1.369 . S
C47 C48 1.408 . S
C47 H74 0.930 . S
C48 C43 1.348 . S
C48 C47 1.408 . S
C48 H75 0.930 . S
C49 O62 1.281 1_556 S
C49 O63 1.254 . S
C50 O64 1.236 . S
C50 O65 1.266 . S
C51 Tb41 2.809 . S
C51 C52 1.514 . S
C51 O66 1.248 . S
C51 O67 1.266 . S
C52 C51 1.514 . S
C52 C53 1.359 . S
C52 C57 1.348 . S
C53 C52 1.359 . S
C53 C54 1.380 . S
C53 H76 0.929 1_554 S
C54 C53 1.380 . S
C54 C55 1.347 . S
C54 H77 0.931 1_554 S
C55 C54 1.347 . S
C55 C56 1.369 . S
C56 C55 1.369 . S
C56 C57 1.408 . S
C56 H78 0.930 . S
C57 C52 1.348 . S
C57 C56 1.408 . S
C57 H79 0.930 . S
C58 O68 1.281 . S
C58 O69 1.254 . S
C59 O70 1.236 . S
C59 O71 1.266 . S
O60 Tb40 2.484 . S
O60 C42 1.248 . S
O61 Tb40 2.440 . S
O61 C42 1.266 . S
O62 Tb40 2.658 . S
O62 Tb41 2.325 . S
O62 C49 1.281 1_554 S
O63 Tb40 2.409 1_556 S
O63 C49 1.254 . S
O64 Tb40 2.378 . S
O64 C50 1.236 . S
O65 Tb41 2.341 . S
O65 C50 1.266 . S
O66 Tb41 2.484 . S
O66 C51 1.248 . S
O67 Tb41 2.440 . S
O67 C51 1.266 . S
O68 Tb40 2.325 . S
O68 Tb41 2.658 . S
O68 C58 1.281 . S
O69 Tb41 2.409 . S
O69 C58 1.254 . S
O70 Tb41 2.378 . S
O70 C59 1.236 . S
O71 Tb40 2.341 . S
O71 C59 1.266 . S
H72 C44 0.929 . S
H73 C45 0.931 . S
H74 C47 0.930 . S
H75 C48 0.930 . S
H76 C53 0.929 1_556 S
H77 C54 0.931 1_556 S
H78 C56 0.930 . S
H79 C57 0.930 . S
Tb80 C82 2.809 . S
Tb80 O100 2.484 . S
Tb80 O101 2.440 . S
Tb80 O102 2.658 1_565 S
Tb80 O103 2.409 1_554 S
Tb80 O104 2.378 1_565 S
Tb80 O108 2.325 1_565 S
Tb80 O111 2.341 . S
Tb81 C91 2.809 . S
Tb81 O102 2.325 . S
Tb81 O105 2.341 . S
Tb81 O106 2.484 . S
Tb81 O107 2.440 . S
Tb81 O108 2.658 . S
Tb81 O109 2.409 . S
Tb81 O110 2.378 . S
C82 Tb80 2.809 . S
C82 C83 1.514 . S
C82 O100 1.248 . S
C82 O101 1.266 . S
C83 C82 1.514 . S
C83 C84 1.359 . S
C83 C88 1.348 . S
C84 C83 1.359 . S
C84 C85 1.380 . S
C84 H112 0.929 . S
C85 C84 1.380 . S
C85 C86 1.347 . S
C85 H113 0.931 . S
C86 C85 1.347 . S
C86 C87 1.369 . S
C87 C86 1.369 . S
C87 C88 1.408 . S
C87 H114 0.930 . S
C88 C83 1.348 . S
C88 C87 1.408 . S
C88 H115 0.930 . S
C89 O102 1.281 1_556 S
C89 O103 1.254 1_545 S
C90 O104 1.236 . S
C90 O105 1.266 . S
C91 Tb81 2.809 . S
C91 C92 1.514 . S
C91 O106 1.248 . S
C91 O107 1.266 . S
C92 C91 1.514 . S
C92 C93 1.359 . S
C92 C97 1.348 . S
C93 C92 1.359 . S
C93 C94 1.380 . S
C93 H116 0.929 1_554 S
C94 C93 1.380 . S
C94 C95 1.347 . S
C94 H117 0.931 1_554 S
C95 C94 1.347 . S
C95 C96 1.369 . S
C96 C95 1.369 . S
C96 C97 1.408 . S
C96 H118 0.930 . S
C97 C92 1.348 . S
C97 C96 1.408 . S
C97 H119 0.930 . S
C98 O108 1.281 . S
C98 O109 1.254 . S
C99 O110 1.236 . S
C99 O111 1.266 1_545 S
O100 Tb80 2.484 . S
O100 C82 1.248 . S
O101 Tb80 2.440 . S
O101 C82 1.266 . S
O102 Tb80 2.658 1_545 S
O102 Tb81 2.325 . S
O102 C89 1.281 1_554 S
O103 Tb80 2.409 1_556 S
O103 C89 1.254 1_565 S
O104 Tb80 2.378 1_545 S
O104 C90 1.236 . S
O105 Tb81 2.341 . S
O105 C90 1.266 . S
O106 Tb81 2.484 . S
O106 C91 1.248 . S
O107 Tb81 2.440 . S
O107 C91 1.266 . S
O108 Tb80 2.325 1_545 S
O108 Tb81 2.658 . S
O108 C98 1.281 . S
O109 Tb81 2.409 . S
O109 C98 1.254 . S
O110 Tb81 2.378 . S
O110 C99 1.236 . S
O111 Tb80 2.341 . S
O111 C99 1.266 1_565 S
H112 C84 0.929 . S
H113 C85 0.931 . S
H114 C87 0.930 . S
H115 C88 0.930 . S
H116 C93 0.929 1_556 S
H117 C94 0.931 1_556 S
H118 C96 0.930 . S
H119 C97 0.930 . S
Tb120 C122 2.809 . S
Tb120 O140 2.484 . S
Tb120 O141 2.440 . S
Tb120 O142 2.658 . S
Tb120 O143 2.409 . S
Tb120 O144 2.378 . S
Tb120 O148 2.325 . S
Tb120 O151 2.341 . S
Tb121 C131 2.809 . S
Tb121 O142 2.325 . S
Tb121 O145 2.341 . S
Tb121 O146 2.484 . S
Tb121 O147 2.440 . S
Tb121 O148 2.658 . S
Tb121 O149 2.409 . S
Tb121 O150 2.378 . S
C122 Tb120 2.809 . S
C122 C123 1.514 . S
C122 O140 1.248 . S
C122 O141 1.266 . S
C123 C122 1.514 . S
C123 C124 1.359 . S
C123 C128 1.348 . S
C124 C123 1.359 . S
C124 C125 1.380 . S
C124 H152 0.929 . S
C125 C124 1.380 . S
C125 C126 1.347 . S
C125 H153 0.931 . S
C126 C125 1.347 . S
C126 C127 1.369 . S
C127 C126 1.369 . S
C127 C128 1.408 . S
C127 H154 0.930 . S
C128 C123 1.348 . S
C128 C127 1.408 . S
C128 H155 0.930 . S
C129 O142 1.281 . S
C129 O143 1.254 . S
C130 O144 1.236 . S
C130 O145 1.266 . S
C131 Tb121 2.809 . S
C131 C132 1.514 . S
C131 O146 1.248 . S
C131 O147 1.266 . S
C132 C131 1.514 . S
C132 C133 1.359 . S
C132 C137 1.348 . S
C133 C132 1.359 . S
C133 C134 1.380 . S
C133 H156 0.929 . S
C134 C133 1.380 . S
C134 C135 1.347 . S
C134 H157 0.931 . S
C135 C134 1.347 . S
C135 C136 1.369 . S
C136 C135 1.369 . S
C136 C137 1.408 . S
C136 H158 0.930 . S
C137 C132 1.348 . S
C137 C136 1.408 . S
C137 H159 0.930 . S
C138 O148 1.281 . S
C138 O149 1.254 . S
C139 O150 1.236 . S
C139 O151 1.266 . S
O140 Tb120 2.484 . S
O140 C122 1.248 . S
O141 Tb120 2.440 . S
O141 C122 1.266 . S
O142 Tb120 2.658 . S
O142 Tb121 2.325 . S
O142 C129 1.281 . S
O143 Tb120 2.409 . S
O143 C129 1.254 . S
O144 Tb120 2.378 . S
O144 C130 1.236 . S
O145 Tb121 2.341 . S
O145 C130 1.266 . S
O146 Tb121 2.484 . S
O146 C131 1.248 . S
O147 Tb121 2.440 . S
O147 C131 1.266 . S
O148 Tb120 2.325 . S
O148 Tb121 2.658 . S
O148 C138 1.281 . S
O149 Tb121 2.409 . S
O149 C138 1.254 . S
O150 Tb121 2.378 . S
O150 C139 1.236 . S
O151 Tb120 2.341 . S
O151 C139 1.266 . S
H152 C124 0.929 . S
H153 C125 0.931 . S
H154 C127 0.930 . S
H155 C128 0.930 . S
H156 C133 0.929 . S
H157 C134 0.931 . S
H158 C136 0.930 . S
H159 C137 0.930 . S
Tb160 C162 2.809 . S
Tb160 O180 2.484 . S
Tb160 O181 2.440 . S
Tb160 O182 2.658 . S
Tb160 O183 2.409 . S
Tb160 O184 2.378 . S
Tb160 O188 2.325 . S
Tb160 O191 2.341 . S
Tb161 C171 2.809 . S
Tb161 O182 2.325 . S
Tb161 O185 2.341 . S
Tb161 O186 2.484 . S
Tb161 O187 2.440 . S
Tb161 O188 2.658 . S
Tb161 O189 2.409 . S
Tb161 O190 2.378 . S
C162 Tb160 2.809 . S
C162 C163 1.514 . S
C162 O180 1.248 . S
C162 O181 1.266 . S
C163 C162 1.514 . S
C163 C164 1.359 . S
C163 C168 1.348 . S
C164 C163 1.359 . S
C164 C165 1.380 . S
C164 H192 0.929 . S
C165 C164 1.380 . S
C165 C166 1.347 . S
C165 H193 0.931 . S
C166 C165 1.347 . S
C166 C167 1.369 . S
C167 C166 1.369 . S
C167 C168 1.408 . S
C167 H194 0.930 . S
C168 C163 1.348 . S
C168 C167 1.408 . S
C168 H195 0.930 . S
C169 O182 1.281 . S
C169 O183 1.254 . S
C170 O184 1.236 . S
C170 O185 1.266 . S
C171 Tb161 2.809 . S
C171 C172 1.514 . S
C171 O186 1.248 . S
C171 O187 1.266 . S
C172 C171 1.514 . S
C172 C173 1.359 . S
C172 C177 1.348 . S
C173 C172 1.359 . S
C173 C174 1.380 . S
C173 H196 0.929 . S
C174 C173 1.380 . S
C174 C175 1.347 . S
C174 H197 0.931 . S
C175 C174 1.347 . S
C175 C176 1.369 . S
C176 C175 1.369 . S
C176 C177 1.408 . S
C176 H198 0.930 . S
C177 C172 1.348 . S
C177 C176 1.408 . S
C177 H199 0.930 . S
C178 O188 1.281 . S
C178 O189 1.254 . S
C179 O190 1.236 . S
C179 O191 1.266 . S
O180 Tb160 2.484 . S
O180 C162 1.248 . S
O181 Tb160 2.440 . S
O181 C162 1.266 . S
O182 Tb160 2.658 . S
O182 Tb161 2.325 . S
O182 C169 1.281 . S
O183 Tb160 2.409 . S
O183 C169 1.254 . S
O184 Tb160 2.378 . S
O184 C170 1.236 . S
O185 Tb161 2.341 . S
O185 C170 1.266 . S
O186 Tb161 2.484 . S
O186 C171 1.248 . S
O187 Tb161 2.440 . S
O187 C171 1.266 . S
O188 Tb160 2.325 . S
O188 Tb161 2.658 . S
O188 C178 1.281 . S
O189 Tb161 2.409 . S
O189 C178 1.254 . S
O190 Tb161 2.378 . S
O190 C179 1.236 . S
O191 Tb160 2.341 . S
O191 C179 1.266 . S
H192 C164 0.929 . S
H193 C165 0.931 . S
H194 C167 0.930 . S
H195 C168 0.930 . S
H196 C173 0.929 . S
H197 C174 0.931 . S
H198 C176 0.930 . S
H199 C177 0.930 . S
Tb200 C202 2.809 . S
Tb200 O220 2.484 . S
Tb200 O221 2.440 . S
Tb200 O222 2.658 . S
Tb200 O223 2.409 . S
Tb200 O224 2.378 . S
Tb200 O228 2.325 . S
Tb200 O231 2.341 . S
Tb201 C211 2.809 . S
Tb201 O222 2.325 . S
Tb201 O225 2.341 . S
Tb201 O226 2.484 . S
Tb201 O227 2.440 . S
Tb201 O228 2.658 . S
Tb201 O229 2.409 . S
Tb201 O230 2.378 . S
C202 Tb200 2.809 . S
C202 C203 1.514 . S
C202 O220 1.248 . S
C202 O221 1.266 . S
C203 C202 1.514 . S
C203 C204 1.359 . S
C203 C208 1.348 . S
C204 C203 1.359 . S
C204 C205 1.380 . S
C204 H232 0.929 . S
C205 C204 1.380 . S
C205 C206 1.347 . S
C205 H233 0.931 . S
C206 C205 1.347 . S
C206 C207 1.369 . S
C207 C206 1.369 . S
C207 C208 1.408 . S
C207 H234 0.930 . S
C208 C203 1.348 . S
C208 C207 1.408 . S
C208 H235 0.930 . S
C209 O222 1.281 . S
C209 O223 1.254 . S
C210 O224 1.236 . S
C210 O225 1.266 . S
C211 Tb201 2.809 . S
C211 C212 1.514 . S
C211 O226 1.248 . S
C211 O227 1.266 . S
C212 C211 1.514 . S
C212 C213 1.359 . S
C212 C217 1.348 . S
C213 C212 1.359 . S
C213 C214 1.380 . S
C213 H236 0.929 . S
C214 C213 1.380 . S
C214 C215 1.347 . S
C214 H237 0.931 . S
C215 C214 1.347 . S
C215 C216 1.369 . S
C216 C215 1.369 . S
C216 C217 1.408 . S
C216 H238 0.930 . S
C217 C212 1.348 . S
C217 C216 1.408 . S
C217 H239 0.930 . S
C218 O228 1.281 . S
C218 O229 1.254 . S
C219 O230 1.236 . S
C219 O231 1.266 . S
O220 Tb200 2.484 . S
O220 C202 1.248 . S
O221 Tb200 2.440 . S
O221 C202 1.266 . S
O222 Tb200 2.658 . S
O222 Tb201 2.325 . S
O222 C209 1.281 . S
O223 Tb200 2.409 . S
O223 C209 1.254 . S
O224 Tb200 2.378 . S
O224 C210 1.236 . S
O225 Tb201 2.341 . S
O225 C210 1.266 . S
O226 Tb201 2.484 . S
O226 C211 1.248 . S
O227 Tb201 2.440 . S
O227 C211 1.266 . S
O228 Tb200 2.325 . S
O228 Tb201 2.658 . S
O228 C218 1.281 . S
O229 Tb201 2.409 . S
O229 C218 1.254 . S
O230 Tb201 2.378 . S
O230 C219 1.236 . S
O231 Tb200 2.341 . S
O231 C219 1.266 . S
H232 C204 0.929 . S
H233 C205 0.931 . S
H234 C207 0.930 . S
H235 C208 0.930 . S
H236 C213 0.929 . S
H237 C214 0.931 . S
H238 C216 0.930 . S
H239 C217 0.930 . S
Tb240 C242 2.809 . S
Tb240 O260 2.484 . S
Tb240 O261 2.440 . S
Tb240 O262 2.658 . S
Tb240 O263 2.409 . S
Tb240 O264 2.378 . S
Tb240 O268 2.325 . S
Tb240 O271 2.341 . S
Tb241 C251 2.809 . S
Tb241 O262 2.325 . S
Tb241 O265 2.341 . S
Tb241 O266 2.484 . S
Tb241 O267 2.440 . S
Tb241 O268 2.658 . S
Tb241 O269 2.409 . S
Tb241 O270 2.378 . S
C242 Tb240 2.809 . S
C242 C243 1.514 . S
C242 O260 1.248 . S
C242 O261 1.266 . S
C243 C242 1.514 . S
C243 C244 1.359 . S
C243 C248 1.348 . S
C244 C243 1.359 . S
C244 C245 1.380 . S
C244 H272 0.929 . S
C245 C244 1.380 . S
C245 C246 1.347 . S
C245 H273 0.931 . S
C246 C245 1.347 . S
C246 C247 1.369 . S
C247 C246 1.369 . S
C247 C248 1.408 . S
C247 H274 0.930 . S
C248 C243 1.348 . S
C248 C247 1.408 . S
C248 H275 0.930 . S
C249 O262 1.281 . S
C249 O263 1.254 . S
C250 O264 1.236 . S
C250 O265 1.266 . S
C251 Tb241 2.809 . S
C251 C252 1.514 . S
C251 O266 1.248 . S
C251 O267 1.266 . S
C252 C251 1.514 . S
C252 C253 1.359 . S
C252 C257 1.348 . S
C253 C252 1.359 . S
C253 C254 1.380 . S
C253 H276 0.929 . S
C254 C253 1.380 . S
C254 C255 1.347 . S
C254 H277 0.931 . S
C255 C254 1.347 . S
C255 C256 1.369 . S
C256 C255 1.369 . S
C256 C257 1.408 . S
C256 H278 0.930 . S
C257 C252 1.348 . S
C257 C256 1.408 . S
C257 H279 0.930 . S
C258 O268 1.281 . S
C258 O269 1.254 . S
C259 O270 1.236 . S
C259 O271 1.266 . S
O260 Tb240 2.484 . S
O260 C242 1.248 . S
O261 Tb240 2.440 . S
O261 C242 1.266 . S
O262 Tb240 2.658 . S
O262 Tb241 2.325 . S
O262 C249 1.281 . S
O263 Tb240 2.409 . S
O263 C249 1.254 . S
O264 Tb240 2.378 . S
O264 C250 1.236 . S
O265 Tb241 2.341 . S
O265 C250 1.266 . S
O266 Tb241 2.484 . S
O266 C251 1.248 . S
O267 Tb241 2.440 . S
O267 C251 1.266 . S
O268 Tb240 2.325 . S
O268 Tb241 2.658 . S
O268 C258 1.281 . S
O269 Tb241 2.409 . S
O269 C258 1.254 . S
O270 Tb241 2.378 . S
O270 C259 1.236 . S
O271 Tb240 2.341 . S
O271 C259 1.266 . S
H272 C244 0.929 . S
H273 C245 0.931 . S
H274 C247 0.930 . S
H275 C248 0.930 . S
H276 C253 0.929 . S
H277 C254 0.931 . S
H278 C256 0.930 . S
H279 C257 0.930 . S
Tb280 C282 2.809 . S
Tb280 O300 2.484 . S
Tb280 O301 2.440 . S
Tb280 O302 2.658 . S
Tb280 O303 2.409 . S
Tb280 O304 2.378 . S
Tb280 O308 2.325 . S
Tb280 O311 2.341 . S
Tb281 C291 2.809 . S
Tb281 O302 2.325 1_455 S
Tb281 O305 2.341 1_455 S
Tb281 O306 2.484 . S
Tb281 O307 2.440 . S
Tb281 O308 2.658 1_455 S
Tb281 O309 2.409 1_455 S
Tb281 O310 2.378 1_455 S
C282 Tb280 2.809 . S
C282 C283 1.514 . S
C282 O300 1.248 . S
C282 O301 1.266 . S
C283 C282 1.514 . S
C283 C284 1.359 . S
C283 C288 1.348 . S
C284 C283 1.359 . S
C284 C285 1.380 . S
C284 H312 0.929 . S
C285 C284 1.380 . S
C285 C286 1.347 . S
C285 H313 0.931 . S
C286 C285 1.347 . S
C286 C287 1.369 . S
C287 C286 1.369 . S
C287 C288 1.408 . S
C287 H314 0.930 . S
C288 C283 1.348 . S
C288 C287 1.408 . S
C288 H315 0.930 . S
C289 O302 1.281 . S
C289 O303 1.254 . S
C290 O304 1.236 . S
C290 O305 1.266 . S
C291 Tb281 2.809 . S
C291 C292 1.514 . S
C291 O306 1.248 . S
C291 O307 1.266 . S
C292 C291 1.514 . S
C292 C293 1.359 . S
C292 C297 1.348 . S
C293 C292 1.359 . S
C293 C294 1.380 . S
C293 H316 0.929 . S
C294 C293 1.380 . S
C294 C295 1.347 . S
C294 H317 0.931 . S
C295 C294 1.347 . S
C295 C296 1.369 . S
C296 C295 1.369 . S
C296 C297 1.408 . S
C296 H318 0.930 . S
C297 C292 1.348 . S
C297 C296 1.408 . S
C297 H319 0.930 . S
C298 O308 1.281 . S
C298 O309 1.254 . S
C299 O310 1.236 . S
C299 O311 1.266 . S
O300 Tb280 2.484 . S
O300 C282 1.248 . S
O301 Tb280 2.440 . S
O301 C282 1.266 . S
O302 Tb280 2.658 . S
O302 Tb281 2.325 1_655 S
O302 C289 1.281 . S
O303 Tb280 2.409 . S
O303 C289 1.254 . S
O304 Tb280 2.378 . S
O304 C290 1.236 . S
O305 Tb281 2.341 1_655 S
O305 C290 1.266 . S
O306 Tb281 2.484 . S
O306 C291 1.248 . S
O307 Tb281 2.440 . S
O307 C291 1.266 . S
O308 Tb280 2.325 . S
O308 Tb281 2.658 1_655 S
O308 C298 1.281 . S
O309 Tb281 2.409 1_655 S
O309 C298 1.254 . S
O310 Tb281 2.378 1_655 S
O310 C299 1.236 . S
O311 Tb280 2.341 . S
O311 C299 1.266 . S
H312 C284 0.929 . S
H313 C285 0.931 . S
H314 C287 0.930 . S
H315 C288 0.930 . S
H316 C293 0.929 . S
H317 C294 0.931 . S
H318 C296 0.930 . S
H319 C297 0.930 . S
Tb320 C322 2.809 . S
Tb320 O340 2.484 1_655 S
Tb320 O341 2.440 . S
Tb320 O342 2.658 . S
Tb320 O343 2.409 . S
Tb320 O344 2.378 . S
Tb320 O348 2.325 1_655 S
Tb320 O351 2.341 . S
Tb321 C331 2.809 . S
Tb321 O342 2.325 . S
Tb321 O345 2.341 . S
Tb321 O346 2.484 . S
Tb321 O347 2.440 . S
Tb321 O348 2.658 1_655 S
Tb321 O349 2.409 1_655 S
Tb321 O350 2.378 . S
C322 Tb320 2.809 . S
C322 C323 1.488 1_655 S
C322 O340 1.248 1_655 S
C322 O341 1.266 . S
C323 C322 1.488 1_455 S
C323 C324 1.395 . S
C323 C328 1.339 1_455 S
C324 C323 1.395 . S
C324 C325 1.380 . S
C324 H352 0.929 . S
C325 C324 1.380 . S
C325 C326 1.347 . S
C325 H353 0.931 . S
C326 C325 1.347 . S
C326 C327 1.369 1_455 S
C327 C326 1.369 1_655 S
C327 C328 1.408 . S
C327 H354 0.930 . S
C328 C323 1.339 1_655 S
C328 C327 1.408 . S
C328 H355 0.930 . S
C329 O342 1.281 . S
C329 O343 1.254 . S
C330 O344 1.236 . S
C330 O345 1.266 . S
C331 Tb321 2.809 . S
C331 C332 1.514 . S
C331 O346 1.248 . S
C331 O347 1.266 . S
C332 C331 1.514 . S
C332 C333 1.359 . S
C332 C337 1.348 . S
C333 C332 1.359 . S
C333 C334 1.380 . S
C333 H356 0.929 . S
C334 C333 1.380 . S
C334 C335 1.347 . S
C334 H357 0.931 . S
C335 C334 1.347 . S
C335 C336 1.369 . S
C336 C335 1.369 . S
C336 C337 1.408 . S
C336 H358 0.930 . S
C337 C332 1.348 . S
C337 C336 1.408 . S
C337 H359 0.930 . S
C338 O348 1.281 . S
C338 O349 1.254 . S
C339 O350 1.236 . S
C339 O351 1.266 . S
O340 Tb320 2.484 1_455 S
O340 C322 1.248 1_455 S
O341 Tb320 2.440 . S
O341 C322 1.266 . S
O342 Tb320 2.658 . S
O342 Tb321 2.325 . S
O342 C329 1.281 . S
O343 Tb320 2.409 . S
O343 C329 1.254 . S
O344 Tb320 2.378 . S
O344 C330 1.236 . S
O345 Tb321 2.341 . S
O345 C330 1.266 . S
O346 Tb321 2.484 . S
O346 C331 1.248 . S
O347 Tb321 2.440 . S
O347 C331 1.266 . S
O348 Tb320 2.325 1_455 S
O348 Tb321 2.658 1_455 S
O348 C338 1.281 . S
O349 Tb321 2.409 1_455 S
O349 C338 1.254 . S
O350 Tb321 2.378 . S
O350 C339 1.236 . S
O351 Tb320 2.341 . S
O351 C339 1.266 . S
H352 C324 0.929 . S
H353 C325 0.931 . S
H354 C327 0.930 . S
H355 C328 0.930 . S
H356 C333 0.929 . S
H357 C334 0.931 . S
H358 C336 0.930 . S
H359 C337 0.930 . S
C360 C361 1.349 . S
C360 C362 1.327 . S
C360 H385 0.950 . S
C361 C360 1.349 . S
C361 C377 1.349 . S
C362 C360 1.327 . S
C362 C381 1.429 . S
C362 H386 0.950 . S
C363 C380 1.574 . S
C363 C382 1.368 . S
C363 H387 0.949 . S
H364 C368 0.949 . S
C365 C366 1.349 . S
C365 C367 1.327 . S
C365 H388 0.950 . S
C366 C365 1.349 . S
C366 C378 1.349 . S
C367 C365 1.327 . S
C367 C383 1.429 . S
C367 H389 0.950 . S
C368 H364 0.949 . S
C368 C376 1.574 . S
C368 C384 1.368 . S
H369 C377 0.950 . S
H370 C375 0.950 . S
H371 C376 0.949 . S
H372 C378 0.950 . S
H373 C379 0.950 . S
H374 C380 0.949 . S
C375 H370 0.950 . S
C375 C377 1.327 . S
C375 C381 1.429 . S
C376 C368 1.574 . S
C376 H371 0.949 . S
C376 C382 1.368 . S
C377 C361 1.349 . S
C377 H369 0.950 . S
C377 C375 1.327 . S
C378 C366 1.349 . S
C378 H372 0.950 . S
C378 C379 1.327 . S
C379 H373 0.950 . S
C379 C378 1.327 . S
C379 C383 1.429 . S
C380 C363 1.574 . S
C380 H374 0.949 . S
C380 C384 1.368 . S
C381 C362 1.429 . S
C381 C375 1.429 . S
C381 C382 1.523 . S
C382 C363 1.368 . S
C382 C376 1.368 . S
C382 C381 1.523 . S
C383 C367 1.429 . S
C383 C379 1.429 . S
C383 C384 1.523 . S
C384 C368 1.368 . S
C384 C380 1.368 . S
C384 C383 1.523 . S
H385 C360 0.950 . S
H386 C362 0.950 . S
H387 C363 0.949 . S
H388 C365 0.950 . S
H389 C367 0.950 . S
C390 C391 1.349 . S
C390 C392 1.327 . S
C390 H415 0.950 . S
C391 C390 1.349 . S
C391 C407 1.349 . S
C392 C390 1.327 . S
C392 C411 1.429 . S
C392 H416 0.950 . S
C393 C410 1.574 . S
C393 C412 1.368 . S
C393 H417 0.949 . S
H394 C398 0.949 . S
C395 C396 1.349 . S
C395 C397 1.327 . S
C395 H418 0.950 . S
C396 C395 1.349 . S
C396 C408 1.349 . S
C397 C395 1.327 . S
C397 C413 1.429 . S
C397 H419 0.950 . S
C398 H394 0.949 . S
C398 C406 1.574 . S
C398 C414 1.368 . S
H399 C407 0.950 . S
H400 C405 0.950 . S
H401 C406 0.949 . S
H402 C408 0.950 . S
H403 C409 0.950 . S
H404 C410 0.949 . S
C405 H400 0.950 . S
C405 C407 1.327 . S
C405 C411 1.429 . S
C406 C398 1.574 . S
C406 H401 0.949 . S
C406 C412 1.368 . S
C407 C391 1.349 . S
C407 H399 0.950 . S
C407 C405 1.327 . S
C408 C396 1.349 . S
C408 H402 0.950 . S
C408 C409 1.327 . S
C409 H403 0.950 . S
C409 C408 1.327 . S
C409 C413 1.429 . S
C410 C393 1.574 . S
C410 H404 0.949 . S
C410 C414 1.368 . S
C411 C392 1.429 . S
C411 C405 1.429 . S
C411 C412 1.523 . S
C412 C393 1.368 . S
C412 C406 1.368 . S
C412 C411 1.523 . S
C413 C397 1.429 . S
C413 C409 1.429 . S
C413 C414 1.523 . S
C414 C398 1.368 . S
C414 C410 1.368 . S
C414 C413 1.523 . S
H415 C390 0.950 . S
H416 C392 0.950 . S
H417 C393 0.949 . S
H418 C395 0.950 . S
H419 C397 0.950 . S
C420 C421 1.349 . S
C420 C422 1.327 . S
C420 H445 0.950 . S
C421 C420 1.349 . S
C421 C437 1.349 . S
C422 C420 1.327 . S
C422 C441 1.429 . S
C422 H446 0.950 . S
C423 C440 1.574 . S
C423 C442 1.368 . S
C423 H447 0.949 1_545 S
H424 C428 0.949 . S
C425 C426 1.349 . S
C425 C427 1.327 . S
C425 H448 0.965 . S
C426 C425 1.349 . S
C426 C438 1.349 . S
C427 C425 1.327 . S
C427 C443 1.429 . S
C427 H449 0.950 1_545 S
C428 H424 0.949 . S
C428 C436 1.574 . S
C428 C444 1.368 . S
H429 C437 0.950 1_565 S
H430 C435 0.950 1_565 S
H431 C436 0.949 . S
H432 C438 0.950 . S
H433 C439 0.950 . S
H434 C440 0.949 1_565 S
C435 H430 0.950 1_545 S
C435 C437 1.327 . S
C435 C441 1.429 . S
C436 C428 1.574 . S
C436 H431 0.949 . S
C436 C442 1.368 . S
C437 C421 1.349 . S
C437 H429 0.950 1_545 S
C437 C435 1.327 . S
C438 C426 1.349 . S
C438 H432 0.950 . S
C438 C439 1.327 . S
C439 H433 0.950 . S
C439 C438 1.327 . S
C439 C443 1.429 . S
C440 C423 1.574 . S
C440 H434 0.949 1_545 S
C440 C444 1.368 . S
C441 C422 1.429 . S
C441 C435 1.429 . S
C441 C442 1.523 . S
C442 C423 1.368 . S
C442 C436 1.368 . S
C442 C441 1.523 . S
C443 C427 1.429 . S
C443 C439 1.429 . S
C443 C444 1.523 . S
C444 C428 1.368 . S
C444 C440 1.368 . S
C444 C443 1.523 . S
H445 C420 0.950 . S
H446 C422 0.950 . S
H447 C423 0.949 1_565 S
H448 C425 0.965 . S
H449 C427 0.950 1_565 S
C450 C451 1.349 . S
C450 C452 1.327 . S
C450 H475 0.950 . S
C451 C450 1.349 . S
C451 C467 1.349 . S
C452 C450 1.327 . S
C452 C471 1.429 . S
C452 H476 0.950 . S
C453 C470 1.574 . S
C453 C472 1.368 . S
C453 H477 0.949 . S
H454 C458 0.949 . S
C455 C456 1.353 . S
C455 C457 1.318 1_554 S
C455 H478 0.954 . S
C456 C455 1.353 . S
C456 C468 1.349 . S
C457 C455 1.318 1_556 S
C457 C473 1.429 . S
C457 H479 0.950 . S
C458 H454 0.949 . S
C458 C466 1.574 . S
C458 C474 1.368 . S
H459 C467 0.950 . S
H460 C465 0.950 . S
H461 C466 0.949 . S
H462 C468 0.950 . S
H463 C469 0.950 . S
H464 C470 0.949 . S
C465 H460 0.950 . S
C465 C467 1.327 . S
C465 C471 1.429 . S
C466 C458 1.574 . S
C466 H461 0.949 . S
C466 C472 1.368 . S
C467 C451 1.349 . S
C467 H459 0.950 . S
C467 C465 1.327 . S
C468 C456 1.349 . S
C468 H462 0.950 . S
C468 C469 1.327 1_554 S
C469 H463 0.950 . S
C469 C468 1.327 1_556 S
C469 C473 1.429 . S
C470 C453 1.574 . S
C470 H464 0.949 . S
C470 C474 1.368 . S
C471 C452 1.429 . S
C471 C465 1.429 . S
C471 C472 1.523 . S
C472 C453 1.368 . S
C472 C466 1.368 . S
C472 C471 1.523 . S
C473 C457 1.429 . S
C473 C469 1.429 . S
C473 C474 1.523 . S
C474 C458 1.368 . S
C474 C470 1.368 . S
C474 C473 1.523 . S
H475 C450 0.950 . S
H476 C452 0.950 . S
H477 C453 0.949 . S
H478 C455 0.954 . S
H479 C457 0.950 . S
C480 C481 1.349 . S
C480 C482 1.327 . S
C480 H505 0.950 . S
C481 C480 1.349 . S
C481 C497 1.349 . S
C482 C480 1.327 . S
C482 C501 1.429 . S
C482 H506 0.950 . S
C483 C500 1.574 . S
C483 C502 1.368 . S
C483 H507 0.949 . S
H484 C488 0.949 . S
C485 C486 1.349 1_556 S
C485 C487 1.327 . S
C485 H508 0.950 1_556 S
C486 C485 1.349 1_554 S
C486 C498 1.349 . S
C487 C485 1.327 . S
C487 C503 1.429 . S
C487 H509 0.950 . S
C488 H484 0.949 . S
C488 C496 1.574 . S
C488 C504 1.368 . S
H489 C497 0.950 . S
H490 C495 0.950 . S
H491 C496 0.949 . S
H492 C498 0.950 . S
H493 C499 0.950 . S
H494 C500 0.949 . S
C495 H490 0.950 . S
C495 C497 1.327 . S
C495 C501 1.429 . S
C496 C488 1.574 . S
C496 H491 0.949 . S
C496 C502 1.368 . S
C497 C481 1.349 . S
C497 H489 0.950 . S
C497 C495 1.327 . S
C498 C486 1.349 . S
C498 H492 0.950 . S
C498 C499 1.327 1_554 S
C499 H493 0.950 . S
C499 C498 1.327 1_556 S
C499 C503 1.429 . S
C500 C483 1.574 . S
C500 H494 0.949 . S
C500 C504 1.368 . S
C501 C482 1.429 . S
C501 C495 1.429 . S
C501 C502 1.523 . S
C502 C483 1.368 . S
C502 C496 1.368 . S
C502 C501 1.523 . S
C503 C487 1.429 . S
C503 C499 1.429 . S
C503 C504 1.523 . S
C504 C488 1.368 . S
C504 C500 1.368 . S
C504 C503 1.523 . S
H505 C480 0.950 . S
H506 C482 0.950 . S
H507 C483 0.949 . S
H508 C485 0.950 1_554 S
H509 C487 0.950 . S
C510 C511 1.349 . S
C510 C512 1.327 . S
C510 H535 0.950 . S
C511 C510 1.349 . S
C511 C527 1.349 . S
C512 C510 1.327 . S
C512 C531 1.429 . S
C512 H536 0.950 . S
C513 C530 1.574 . S
C513 C532 1.368 . S
C513 H537 0.949 . S
H514 C518 0.949 . S
C515 C516 1.349 . S
C515 C517 1.327 1_554 S
C515 H538 0.950 . S
C516 C515 1.349 . S
C516 C528 1.349 1_554 S
C517 C515 1.327 1_556 S
C517 C533 1.429 . S
C517 H539 0.950 . S
C518 H514 0.949 . S
C518 C526 1.574 . S
C518 C534 1.368 . S
H519 C527 0.950 . S
H520 C525 0.950 . S
H521 C526 0.949 . S
H522 C528 0.950 1_554 S
H523 C529 0.950 . S
H524 C530 0.949 . S
C525 H520 0.950 . S
C525 C527 1.327 . S
C525 C531 1.429 . S
C526 C518 1.574 . S
C526 H521 0.949 . S
C526 C532 1.368 . S
C527 C511 1.349 . S
C527 H519 0.950 . S
C527 C525 1.327 . S
C528 C516 1.349 1_556 S
C528 H522 0.950 1_556 S
C528 C529 1.327 . S
C529 H523 0.950 . S
C529 C528 1.327 . S
C529 C533 1.429 . S
C530 C513 1.574 . S
C530 H524 0.949 . S
C530 C534 1.368 . S
C531 C512 1.429 . S
C531 C525 1.429 . S
C531 C532 1.523 . S
C532 C513 1.368 . S
C532 C526 1.368 . S
C532 C531 1.523 . S
C533 C517 1.429 . S
C533 C529 1.429 . S
C533 C534 1.523 . S
C534 C518 1.368 . S
C534 C530 1.368 . S
C534 C533 1.523 . S
H535 C510 0.950 . S
H536 C512 0.950 . S
H537 C513 0.949 . S
H538 C515 0.950 . S
H539 C517 0.950 . S
C540 C541 1.349 . S
C540 C542 1.327 . S
C540 H565 0.950 . S
C541 C540 1.349 . S
C541 C557 1.349 . S
C542 C540 1.327 . S
C542 C561 1.429 . S
C542 H566 0.950 . S
C543 C560 1.574 . S
C543 C562 1.368 . S
C543 H567 0.949 . S
H544 C548 0.949 . S
C545 C546 1.349 . S
C545 C547 1.327 . S
C545 H568 0.950 . S
C546 C545 1.349 . S
C546 C558 1.349 . S
C547 C545 1.327 . S
C547 C563 1.429 1_556 S
C547 H569 0.948 1_556 S
C548 H544 0.949 . S
C548 C556 1.574 . S
C548 C564 1.368 . S
H549 C557 0.950 . S
H550 C555 0.950 . S
H551 C556 0.949 . S
H552 C558 0.950 . S
H553 C559 0.950 1_554 S
H554 C560 0.949 . S
C555 H550 0.950 . S
C555 C557 1.327 . S
C555 C561 1.429 . S
C556 C548 1.574 . S
C556 H551 0.949 . S
C556 C562 1.368 . S
C557 C541 1.349 . S
C557 H549 0.950 . S
C557 C555 1.327 . S
C558 C546 1.349 . S
C558 H552 0.950 . S
C558 C559 1.327 . S
C559 H553 0.950 1_556 S
C559 C558 1.327 . S
C559 C563 1.429 1_556 S
C560 C543 1.574 . S
C560 H554 0.949 . S
C560 C564 1.368 . S
C561 C542 1.429 . S
C561 C555 1.429 . S
C561 C562 1.523 . S
C562 C543 1.368 . S
C562 C556 1.368 . S
C562 C561 1.523 . S
C563 C547 1.429 1_554 S
C563 C559 1.429 1_554 S
C563 C564 1.523 . S
C564 C548 1.368 . S
C564 C560 1.368 . S
C564 C563 1.523 . S
H565 C540 0.950 . S
H566 C542 0.950 . S
H567 C543 0.949 . S
H568 C545 0.950 . S
H569 C547 0.948 1_554 S
C570 C571 1.349 1_455 S
C570 C572 1.327 . S
C570 H595 0.950 . S
C571 C570 1.349 1_655 S
C571 C587 1.349 . S
C572 C570 1.327 . S
C572 C591 1.429 1_455 S
C572 H596 0.950 . S
C573 C590 1.574 . S
C573 C592 1.368 . S
C573 H597 0.949 . S
H574 C578 0.949 1_455 S
C575 C576 1.349 . S
C575 C577 1.327 . S
C575 H598 0.950 . S
C576 C575 1.349 . S
C576 C588 1.349 . S
C577 C575 1.327 . S
C577 C593 1.429 1_556 S
C577 H599 0.950 1_556 S
C578 H574 0.949 1_655 S
C578 C586 1.574 1_655 S
C578 C594 1.368 . S
H579 C587 0.950 . S
H580 C585 0.950 . S
H581 C586 0.949 . S
H582 C588 0.950 . S
H583 C589 0.949 1_455 S
H584 C590 0.949 . S
C585 H580 0.950 . S
C585 C587 1.327 . S
C585 C591 1.429 . S
C586 C578 1.574 1_455 S
C586 H581 0.949 . S
C586 C592 1.368 1_455 S
C587 C571 1.349 . S
C587 H579 0.950 . S
C587 C585 1.327 . S
C588 C576 1.349 . S
C588 H582 0.950 . S
C588 C589 1.327 . S
C589 H583 0.949 1_655 S
C589 C588 1.327 . S
C589 C593 1.429 1_556 S
C590 C573 1.574 . S
C590 H584 0.949 . S
C590 C594 1.368 . S
C591 C572 1.429 1_655 S
C591 C585 1.429 . S
C591 C592 1.523 . S
C592 C573 1.368 . S
C592 C586 1.368 1_655 S
C592 C591 1.523 . S
C593 C577 1.429 1_554 S
C593 C589 1.429 1_554 S
C593 C594 1.523 . S
C594 C578 1.368 . S
C594 C590 1.368 . S
C594 C593 1.523 . S
H595 C570 0.950 . S
H596 C572 0.950 . S
H597 C573 0.949 . S
H598 C575 0.950 . S
H599 C577 0.950 1_554 S
C600 C601 1.349 . S
C600 C602 1.327 . S
C600 H625 0.950 . S
C601 C600 1.349 . S
C601 C617 1.349 . S
C602 C600 1.327 . S
C602 C621 1.429 . S
C602 H626 0.950 . S
C603 C620 1.566 1_655 S
C603 C622 1.368 . S
C603 H627 0.949 1_655 S
H604 C608 0.949 . S
C605 C606 1.349 1_455 S
C605 C607 1.327 . S
C605 H628 0.950 . S
C606 C605 1.349 1_655 S
C606 C618 1.349 . S
C607 C605 1.327 . S
C607 C623 1.429 1_456 S
C607 H629 0.950 1_556 S
C608 H604 0.949 . S
C608 C616 1.574 . S
C608 C624 1.368 . S
H609 C617 0.950 . S
H610 C615 0.950 1_455 S
H611 C616 0.949 . S
H612 C618 0.950 . S
H613 C619 0.949 . S
H614 C620 0.982 . S
C615 H610 0.950 1_655 S
C615 C617 1.327 . S
C615 C621 1.429 . S
C616 C608 1.574 . S
C616 H611 0.949 . S
C616 C622 1.368 . S
C617 C601 1.349 . S
C617 H609 0.950 . S
C617 C615 1.327 . S
C618 C606 1.349 . S
C618 H612 0.950 . S
C618 C619 1.327 . S
C619 H613 0.949 . S
C619 C618 1.327 . S
C619 C623 1.429 1_556 S
C620 C603 1.566 1_455 S
C620 H614 0.982 . S
C620 C624 1.343 1_455 S
C621 C602 1.429 . S
C621 C615 1.429 . S
C621 C622 1.523 . S
C622 C603 1.368 . S
C622 C616 1.368 . S
C622 C621 1.523 . S
C623 C607 1.429 1_654 S
C623 C619 1.429 1_554 S
C623 C624 1.523 . S
C624 C608 1.368 . S
C624 C620 1.343 1_655 S
C624 C623 1.523 . S
H625 C600 0.950 . S
H626 C602 0.950 . S
H627 C603 0.949 1_455 S
H628 C605 0.950 . S
H629 C607 0.950 1_554 S
C630 C631 1.349 . S
C630 C632 1.327 . S
C630 H655 0.950 . S
C631 C630 1.349 . S
C631 C647 1.349 . S
C632 C630 1.327 . S
C632 C651 1.429 . S
C632 H656 0.950 . S
C633 C650 1.574 . S
C633 C652 1.368 . S
C633 H657 0.949 . S
H634 C638 0.949 . S
C635 C636 1.349 . S
C635 C637 1.327 . S
C635 H658 0.950 . S
C636 C635 1.349 . S
C636 C648 1.349 . S
C637 C635 1.327 . S
C637 C653 1.429 . S
C637 H659 0.950 . S
C638 H634 0.949 . S
C638 C646 1.574 . S
C638 C654 1.368 . S
H639 C647 0.950 . S
H640 C645 0.950 . S
H641 C646 0.949 . S
H642 C648 0.950 . S
H643 C649 0.950 . S
H644 C650 0.949 . S
C645 H640 0.950 . S
C645 C647 1.327 . S
C645 C651 1.429 . S
C646 C638 1.574 . S
C646 H641 0.949 . S
C646 C652 1.368 . S
C647 C631 1.349 . S
C647 H639 0.950 . S
C647 C645 1.327 . S
C648 C636 1.349 . S
C648 H642 0.950 . S
C648 C649 1.327 . S
C649 H643 0.950 . S
C649 C648 1.327 . S
C649 C653 1.429 . S
C650 C633 1.574 . S
C650 H644 0.949 . S
C650 C654 1.368 . S
C651 C632 1.429 . S
C651 C645 1.429 . S
C651 C652 1.523 . S
C652 C633 1.368 . S
C652 C646 1.368 . S
C652 C651 1.523 . S
C653 C637 1.429 . S
C653 C649 1.429 . S
C653 C654 1.523 . S
C654 C638 1.368 . S
C654 C650 1.368 . S
C654 C653 1.523 . S
H655 C630 0.950 . S
H656 C632 0.950 . S
H657 C633 0.949 . S
H658 C635 0.950 . S
H659 C637 0.950 . S
C660 C661 1.349 . S
C660 C662 1.327 . S
C660 H685 0.950 . S
C661 C660 1.349 . S
C661 C677 1.349 . S
C662 C660 1.327 . S
C662 C681 1.429 . S
C662 H686 0.950 . S
C663 C680 1.574 . S
C663 C682 1.368 . S
C663 H687 0.949 . S
H664 C668 0.949 . S
C665 C666 1.349 . S
C665 C667 1.327 . S
C665 H688 0.950 . S
C666 C665 1.349 . S
C666 C678 1.349 . S
C667 C665 1.327 . S
C667 C683 1.429 . S
C667 H689 0.950 . S
C668 H664 0.949 . S
C668 C676 1.574 . S
C668 C684 1.368 . S
H669 C677 0.950 . S
H670 C675 0.950 . S
H671 C676 0.949 . S
H672 C678 0.950 . S
H673 C679 0.950 . S
H674 C680 0.949 . S
C675 H670 0.950 . S
C675 C677 1.327 . S
C675 C681 1.429 . S
C676 C668 1.574 . S
C676 H671 0.949 . S
C676 C682 1.368 . S
C677 C661 1.349 . S
C677 H669 0.950 . S
C677 C675 1.327 . S
C678 C666 1.349 . S
C678 H672 0.950 . S
C678 C679 1.327 . S
C679 H673 0.950 . S
C679 C678 1.327 . S
C679 C683 1.429 . S
C680 C663 1.574 . S
C680 H674 0.949 . S
C680 C684 1.368 . S
C681 C662 1.429 . S
C681 C675 1.429 . S
C681 C682 1.523 . S
C682 C663 1.368 . S
C682 C676 1.368 . S
C682 C681 1.523 . S
C683 C667 1.429 . S
C683 C679 1.429 . S
C683 C684 1.523 . S
C684 C668 1.368 . S
C684 C680 1.368 . S
C684 C683 1.523 . S
H685 C660 0.950 . S
H686 C662 0.950 . S
H687 C663 0.949 . S
H688 C665 0.950 . S
H689 C667 0.950 . S
C690 C691 1.349 . S
C690 C692 1.327 . S
C690 H715 0.950 . S
C691 C690 1.349 . S
C691 C707 1.349 . S
C692 C690 1.327 . S
C692 C711 1.429 . S
C692 H716 0.950 . S
C693 C710 1.574 . S
C693 C712 1.368 . S
C693 H717 0.949 . S
H694 C698 0.949 . S
C695 C696 1.349 . S
C695 C697 1.327 . S
C695 H718 0.950 . S
C696 C695 1.349 . S
C696 C708 1.349 . S
C697 C695 1.327 . S
C697 C713 1.429 . S
C697 H719 0.950 . S
C698 H694 0.949 . S
C698 C706 1.574 . S
C698 C714 1.368 . S
H699 C707 0.950 . S
H700 C705 0.950 . S
H701 C706 0.949 . S
H702 C708 0.950 . S
H703 C709 0.950 . S
H704 C710 0.949 . S
C705 H700 0.950 . S
C705 C707 1.327 . S
C705 C711 1.429 . S
C706 C698 1.574 . S
C706 H701 0.949 . S
C706 C712 1.368 . S
C707 C691 1.349 . S
C707 H699 0.950 . S
C707 C705 1.327 . S
C708 C696 1.349 . S
C708 H702 0.950 . S
C708 C709 1.327 . S
C709 H703 0.950 . S
C709 C708 1.327 . S
C709 C713 1.429 . S
C710 C693 1.574 . S
C710 H704 0.949 . S
C710 C714 1.368 . S
C711 C692 1.429 . S
C711 C705 1.429 . S
C711 C712 1.523 . S
C712 C693 1.368 . S
C712 C706 1.368 . S
C712 C711 1.523 . S
C713 C697 1.429 . S
C713 C709 1.429 . S
C713 C714 1.523 . S
C714 C698 1.368 . S
C714 C710 1.368 . S
C714 C713 1.523 . S
H715 C690 0.950 . S
H716 C692 0.950 . S
H717 C693 0.949 . S
H718 C695 0.950 . S
H719 C697 0.950 . S
C720 C721 1.349 . S
C720 C722 1.327 . S
C720 H745 0.950 . S
C721 C720 1.349 . S
C721 C737 1.349 1_554 S
C722 C720 1.327 . S
C722 C741 1.429 1_554 S
C722 H746 0.950 . S
C723 C740 1.574 . S
C723 C742 1.368 . S
C723 H747 0.949 . S
H724 C728 0.949 . S
C725 C726 1.349 . S
C725 C727 1.327 . S
C725 H748 0.950 . S
C726 C725 1.349 . S
C726 C738 1.349 . S
C727 C725 1.327 . S
C727 C743 1.429 . S
C727 H749 0.950 . S
C728 H724 0.949 . S
C728 C736 1.574 . S
C728 C744 1.368 . S
H729 C737 0.950 . S
H730 C735 0.950 . S
H731 C736 0.949 1_554 S
H732 C738 0.950 . S
H733 C739 0.950 . S
H734 C740 0.949 . S
C735 H730 0.950 . S
C735 C737 1.327 . S
C735 C741 1.429 . S
C736 C728 1.574 . S
C736 H731 0.949 1_556 S
C736 C742 1.368 . S
C737 C721 1.349 1_556 S
C737 H729 0.950 . S
C737 C735 1.327 . S
C738 C726 1.349 . S
C738 H732 0.950 . S
C738 C739 1.327 . S
C739 H733 0.950 . S
C739 C738 1.327 . S
C739 C743 1.429 . S
C740 C723 1.574 . S
C740 H734 0.949 . S
C740 C744 1.368 . S
C741 C722 1.429 1_556 S
C741 C735 1.429 . S
C741 C742 1.523 . S
C742 C723 1.368 . S
C742 C736 1.368 . S
C742 C741 1.523 . S
C743 C727 1.429 . S
C743 C739 1.429 . S
C743 C744 1.523 . S
C744 C728 1.368 . S
C744 C740 1.368 . S
C744 C743 1.523 . S
H745 C720 0.950 . S
H746 C722 0.950 . S
H747 C723 0.949 . S
H748 C725 0.950 . S
H749 C727 0.950 . S
C750 C751 1.349 . S
C750 C752 1.327 . S
C750 H775 0.950 . S
C751 C750 1.349 . S
C751 C767 1.349 . S
C752 C750 1.327 . S
C752 C771 1.429 . S
C752 H776 0.950 . S
C753 C770 1.574 . S
C753 C772 1.368 . S
C753 H777 0.949 . S
H754 C758 0.949 1_554 S
C755 C756 1.349 . S
C755 C757 1.327 1_554 S
C755 H778 0.950 . S
C756 C755 1.349 . S
C756 C768 1.349 . S
C757 C755 1.327 1_556 S
C757 C773 1.429 . S
C757 H779 0.950 . S
C758 H754 0.949 1_556 S
C758 C766 1.574 . S
C758 C774 1.368 . S
H759 C767 0.950 . S
H760 C765 0.950 . S
H761 C766 0.949 . S
H762 C768 0.950 . S
H763 C769 0.950 . S
H764 C770 0.949 . S
C765 H760 0.950 . S
C765 C767 1.327 . S
C765 C771 1.429 . S
C766 C758 1.574 . S
C766 H761 0.949 . S
C766 C772 1.368 . S
C767 C751 1.349 . S
C767 H759 0.950 . S
C767 C765 1.327 . S
C768 C756 1.349 . S
C768 H762 0.950 . S
C768 C769 1.327 . S
C769 H763 0.950 . S
C769 C768 1.327 . S
C769 C773 1.429 1_554 S
C770 C753 1.574 . S
C770 H764 0.949 . S
C770 C774 1.368 . S
C771 C752 1.429 . S
C771 C765 1.429 . S
C771 C772 1.523 . S
C772 C753 1.368 . S
C772 C766 1.368 . S
C772 C771 1.523 . S
C773 C757 1.429 . S
C773 C769 1.429 1_556 S
C773 C774 1.523 . S
C774 C758 1.368 . S
C774 C770 1.368 . S
C774 C773 1.523 . S
H775 C750 0.950 . S
H776 C752 0.950 . S
H777 C753 0.949 . S
H778 C755 0.950 . S
H779 C757 0.950 . S
C780 C781 1.349 . S
C780 C782 1.327 . S
C780 H805 0.950 . S
C781 C780 1.349 . S
C781 C797 1.349 . S
C782 C780 1.327 . S
C782 C801 1.429 . S
C782 H806 0.950 . S
C783 C800 1.574 . S
C783 C802 1.368 . S
C783 H807 0.949 . S
H784 C788 0.949 . S
C785 C786 1.349 . S
C785 C787 1.327 . S
C785 H808 0.950 . S
C786 C785 1.349 . S
C786 C798 1.349 . S
C787 C785 1.327 . S
C787 C803 1.429 1_554 S
C787 H809 0.950 1_554 S
C788 H784 0.949 . S
C788 C796 1.574 . S
C788 C804 1.368 . S
H789 C797 0.950 . S
H790 C795 0.950 . S
H791 C796 0.949 . S
H792 C798 0.950 . S
H793 C799 0.950 . S
H794 C800 0.949 . S
C795 H790 0.950 . S
C795 C797 1.327 . S
C795 C801 1.429 . S
C796 C788 1.574 . S
C796 H791 0.949 . S
C796 C802 1.368 . S
C797 C781 1.349 . S
C797 H789 0.950 . S
C797 C795 1.327 . S
C798 C786 1.349 . S
C798 H792 0.950 . S
C798 C799 1.327 . S
C799 H793 0.950 . S
C799 C798 1.327 . S
C799 C803 1.429 1_554 S
C800 C783 1.574 . S
C800 H794 0.949 . S
C800 C804 1.368 . S
C801 C782 1.429 . S
C801 C795 1.429 . S
C801 C802 1.523 . S
C802 C783 1.368 . S
C802 C796 1.368 . S
C802 C801 1.523 . S
C803 C787 1.429 1_556 S
C803 C799 1.429 1_556 S
C803 C804 1.523 . S
C804 C788 1.368 . S
C804 C800 1.368 . S
C804 C803 1.523 . S
H805 C780 0.950 . S
H806 C782 0.950 . S
H807 C783 0.949 . S
H808 C785 0.950 . S
H809 C787 0.950 1_556 S
C810 C811 1.349 . S
C810 C812 1.327 . S
C810 H835 0.950 . S
C811 C810 1.349 . S
C811 C827 1.349 . S
C812 C810 1.327 . S
C812 C831 1.429 . S
C812 H836 0.950 . S
C813 C830 1.574 . S
C813 C832 1.368 . S
C813 H837 0.949 . S
H814 C818 0.949 . S
C815 C816 1.349 . S
C815 C817 1.327 . S
C815 H838 0.950 . S
C816 C815 1.349 . S
C816 C828 1.349 . S
C817 C815 1.327 . S
C817 C833 1.429 . S
C817 H839 0.950 1_554 S
C818 H814 0.949 . S
C818 C826 1.572 1_554 S
C818 C834 1.368 . S
H819 C827 0.950 1_655 S
H820 C825 0.950 . S
H821 C826 0.948 1_554 S
H822 C828 0.950 . S
H823 C829 0.950 . S
H824 C830 0.949 . S
C825 H820 0.950 . S
C825 C827 1.327 . S
C825 C831 1.429 . S
C826 C818 1.572 1_556 S
C826 H821 0.948 1_556 S
C826 C832 1.372 . S
C827 C811 1.349 . S
C827 H819 0.950 1_455 S
C827 C825 1.327 . S
C828 C816 1.349 . S
C828 H822 0.950 . S
C828 C829 1.327 . S
C829 H823 0.950 . S
C829 C828 1.327 . S
C829 C833 1.429 . S
C830 C813 1.574 . S
C830 H824 0.949 . S
C830 C834 1.368 1_556 S
C831 C812 1.429 . S
C831 C825 1.429 . S
C831 C832 1.523 . S
C832 C813 1.368 . S
C832 C826 1.372 . S
C832 C831 1.523 . S
C833 C817 1.429 . S
C833 C829 1.429 . S
C833 C834 1.523 . S
C834 C818 1.368 . S
C834 C830 1.368 1_554 S
C834 C833 1.523 . S
H835 C810 0.950 . S
H836 C812 0.950 . S
H837 C813 0.949 . S
H838 C815 0.950 . S
H839 C817 0.950 1_556 S
C840 C841 1.349 . S
C840 C842 1.327 1_554 S
C840 H865 0.950 1_554 S
C841 C840 1.349 . S
C841 C857 1.349 . S
C842 C840 1.327 1_556 S
C842 C861 1.429 1_556 S
C842 H866 0.950 . S
C843 C860 1.574 . S
C843 C862 1.368 . S
C843 H867 0.949 . S
H844 C848 0.949 . S
C845 C846 1.349 . S
C845 C847 1.327 . S
C845 H868 0.950 . S
C846 C845 1.349 . S
C846 C858 1.349 . S
C847 C845 1.327 . S
C847 C863 1.429 . S
C847 H869 0.950 1_556 S
C848 H844 0.949 . S
C848 C856 1.574 . S
C848 C864 1.368 . S
H849 C857 0.950 . S
H850 C855 0.950 . S
H851 C856 0.949 . S
H852 C858 0.950 . S
H853 C859 0.950 . S
H854 C860 0.949 . S
C855 H850 0.950 . S
C855 C857 1.327 . S
C855 C861 1.429 . S
C856 C848 1.574 . S
C856 H851 0.949 . S
C856 C862 1.368 1_556 S
C857 C841 1.349 . S
C857 H849 0.950 . S
C857 C855 1.327 . S
C858 C846 1.349 . S
C858 H852 0.950 . S
C858 C859 1.327 . S
C859 H853 0.950 . S
C859 C858 1.327 . S
C859 C863 1.429 . S
C860 C843 1.574 . S
C860 H854 0.949 . S
C860 C864 1.368 1_554 S
C861 C842 1.429 1_554 S
C861 C855 1.429 . S
C861 C862 1.523 . S
C862 C843 1.368 . S
C862 C856 1.368 1_554 S
C862 C861 1.523 . S
C863 C847 1.429 . S
C863 C859 1.429 . S
C863 C864 1.523 . S
C864 C848 1.368 . S
C864 C860 1.368 1_556 S
C864 C863 1.523 . S
H865 C840 0.950 1_556 S
H866 C842 0.950 . S
H867 C843 0.949 . S
H868 C845 0.950 . S
H869 C847 0.950 1_554 S
C870 C871 1.349 . S
C870 C872 1.327 . S
C870 H895 0.950 . S
C871 C870 1.349 . S
C871 C887 1.349 . S
C872 C870 1.327 . S
C872 C891 1.429 . S
C872 H896 0.950 . S
C873 C890 1.574 . S
C873 C892 1.368 . S
C873 H897 0.949 . S
H874 C878 0.949 . S
C875 C876 1.349 . S
C875 C877 1.327 . S
C875 H898 0.950 . S
C876 C875 1.349 . S
C876 C888 1.349 . S
C877 C875 1.327 . S
C877 C893 1.429 . S
C877 H899 0.950 1_554 S
C878 H874 0.949 . S
C878 C886 1.574 . S
C878 C894 1.368 . S
H879 C887 0.950 . S
H880 C885 0.950 . S
H881 C886 0.949 . S
H882 C888 0.950 . S
H883 C889 0.950 . S
H884 C890 0.949 . S
C885 H880 0.950 . S
C885 C887 1.327 . S
C885 C891 1.429 . S
C886 C878 1.574 . S
C886 H881 0.949 . S
C886 C892 1.368 1_554 S
C887 C871 1.349 . S
C887 H879 0.950 . S
C887 C885 1.327 . S
C888 C876 1.349 . S
C888 H882 0.950 . S
C888 C889 1.327 . S
C889 H883 0.950 . S
C889 C888 1.327 . S
C889 C893 1.429 . S
C890 C873 1.574 . S
C890 H884 0.949 . S
C890 C894 1.368 1_556 S
C891 C872 1.429 . S
C891 C885 1.429 . S
C891 C892 1.523 . S
C892 C873 1.368 . S
C892 C886 1.368 1_556 S
C892 C891 1.523 . S
C893 C877 1.429 . S
C893 C889 1.429 . S
C893 C894 1.523 . S
C894 C878 1.368 . S
C894 C890 1.368 1_554 S
C894 C893 1.523 . S
H895 C870 0.950 . S
H896 C872 0.950 . S
H897 C873 0.949 . S
H898 C875 0.950 . S
H899 C877 0.950 1_556 S
C900 C901 1.349 1_545 S
C900 C902 1.327 . S
C900 H925 0.950 . S
C901 C900 1.349 1_565 S
C901 C917 1.349 . S
C902 C900 1.327 . S
C902 C921 1.429 1_545 S
C902 H926 0.950 . S
C903 C920 1.574 . S
C903 C922 1.368 . S
C903 H927 0.949 . S
H904 C908 0.949 1_545 S
C905 C906 1.349 . S
C905 C907 1.327 . S
C905 H928 0.950 . S
C906 C905 1.349 . S
C906 C918 1.349 . S
C907 C905 1.327 . S
C907 C923 1.429 . S
C907 H929 0.950 . S
C908 H904 0.949 1_565 S
C908 C916 1.574 1_565 S
C908 C924 1.368 . S
H909 C917 0.950 . S
H910 C915 0.950 . S
H911 C916 0.949 . S
H912 C918 0.950 . S
H913 C919 0.950 1_545 S
H914 C920 0.949 . S
C915 H910 0.950 . S
C915 C917 1.327 . S
C915 C921 1.429 . S
C916 C908 1.574 1_545 S
C916 H911 0.949 . S
C916 C922 1.368 1_545 S
C917 C901 1.349 . S
C917 H909 0.950 . S
C917 C915 1.327 . S
C918 C906 1.349 . S
C918 H912 0.950 . S
C918 C919 1.327 . S
C919 H913 0.950 1_565 S
C919 C918 1.327 . S
C919 C923 1.429 . S
C920 C903 1.574 . S
C920 H914 0.949 . S
C920 C924 1.368 . S
C921 C902 1.429 1_565 S
C921 C915 1.429 . S
C921 C922 1.523 . S
C922 C903 1.368 . S
C922 C916 1.368 1_565 S
C922 C921 1.523 . S
C923 C907 1.429 . S
C923 C919 1.429 . S
C923 C924 1.523 . S
C924 C908 1.368 . S
C924 C920 1.368 . S
C924 C923 1.523 . S
H925 C900 0.950 . S
H926 C902 0.950 . S
H927 C903 0.949 . S
H928 C905 0.950 . S
H929 C907 0.950 . S
C930 C931 1.349 . S
C930 C932 1.327 . S
C930 H955 0.950 . S
C931 C930 1.349 . S
C931 C947 1.349 . S
C932 C930 1.327 . S
C932 C951 1.429 . S
C932 H956 0.950 . S
C933 C950 1.574 . S
C933 C952 1.368 . S
C933 H957 0.949 . S
H934 C938 0.949 . S
C935 C936 1.349 . S
C935 C937 1.327 . S
C935 H958 0.950 . S
C936 C935 1.349 . S
C936 C948 1.349 . S
C937 C935 1.327 . S
C937 C953 1.429 . S
C937 H959 0.950 . S
C938 H934 0.949 . S
C938 C946 1.574 . S
C938 C954 1.368 . S
H939 C947 0.950 . S
H940 C945 0.950 . S
H941 C946 0.949 . S
H942 C948 0.950 . S
H943 C949 0.950 . S
H944 C950 0.949 . S
C945 H940 0.950 . S
C945 C947 1.327 . S
C945 C951 1.429 . S
C946 C938 1.574 . S
C946 H941 0.949 . S
C946 C952 1.368 . S
C947 C931 1.349 . S
C947 H939 0.950 . S
C947 C945 1.327 . S
C948 C936 1.349 . S
C948 H942 0.950 . S
C948 C949 1.327 . S
C949 H943 0.950 . S
C949 C948 1.327 . S
C949 C953 1.429 . S
C950 C933 1.574 . S
C950 H944 0.949 . S
C950 C954 1.368 . S
C951 C932 1.429 . S
C951 C945 1.429 . S
C951 C952 1.523 . S
C952 C933 1.368 . S
C952 C946 1.368 . S
C952 C951 1.523 . S
C953 C937 1.429 . S
C953 C949 1.429 . S
C953 C954 1.523 . S
C954 C938 1.368 . S
C954 C950 1.368 . S
C954 C953 1.523 . S
H955 C930 0.950 . S
H956 C932 0.950 . S
H957 C933 0.949 . S
H958 C935 0.950 . S
H959 C937 0.950 . S
C960 C961 1.349 . S
C960 C962 1.327 . S
C960 H985 0.950 . S
C961 C960 1.349 . S
C961 C977 1.349 . S
C962 C960 1.327 . S
C962 C981 1.429 . S
C962 H986 0.950 . S
C963 C980 1.574 . S
C963 C982 1.368 . S
C963 H987 0.949 . S
H964 C968 0.949 . S
C965 C966 1.349 . S
C965 C967 1.327 . S
C965 H988 0.950 . S
C966 C965 1.349 . S
C966 C978 1.349 . S
C967 C965 1.327 . S
C967 C983 1.429 . S
C967 H989 0.950 . S
C968 H964 0.949 . S
C968 C976 1.574 . S
C968 C984 1.368 . S
H969 C977 0.950 . S
H970 C975 0.950 . S
H971 C976 0.949 . S
H972 C978 0.950 . S
H973 C979 0.950 . S
H974 C980 0.949 . S
C975 H970 0.950 . S
C975 C977 1.327 . S
C975 C981 1.429 . S
C976 C968 1.574 . S
C976 H971 0.949 . S
C976 C982 1.368 . S
C977 C961 1.349 . S
C977 H969 0.950 . S
C977 C975 1.327 . S
C978 C966 1.349 . S
C978 H972 0.950 . S
C978 C979 1.327 . S
C979 H973 0.950 . S
C979 C978 1.327 . S
C979 C983 1.429 . S
C980 C963 1.574 . S
C980 H974 0.949 . S
C980 C984 1.368 . S
C981 C962 1.429 . S
C981 C975 1.429 . S
C981 C982 1.523 . S
C982 C963 1.368 . S
C982 C976 1.368 . S
C982 C981 1.523 . S
C983 C967 1.429 . S
C983 C979 1.429 . S
C983 C984 1.523 . S
C984 C968 1.368 . S
C984 C980 1.368 . S
C984 C983 1.523 . S
H985 C960 0.950 . S
H986 C962 0.950 . S
H987 C963 0.949 . S
H988 C965 0.950 . S
H989 C967 0.950 . S
C990 C991 1.349 . S
C990 C992 1.327 . S
C990 H1015 0.950 . S
C991 C990 1.349 . S
C991 C1007 1.349 . S
C992 C990 1.327 . S
C992 C1011 1.429 . S
C992 H1016 0.950 . S
C993 C1010 1.574 . S
C993 C1012 1.368 . S
C993 H1017 0.949 . S
H994 C998 0.949 . S
C995 C996 1.349 . S
C995 C997 1.327 . S
C995 H1018 0.950 . S
C996 C995 1.349 . S
C996 C1008 1.349 . S
C997 C995 1.327 . S
C997 C1013 1.429 . S
C997 H1019 0.950 . S
C998 H994 0.949 . S
C998 C1006 1.574 . S
C998 C1014 1.368 . S
H999 C1007 0.950 . S
H1000 C1005 0.950 . S
H1001 C1006 0.949 . S
H1002 C1008 0.950 . S
H1003 C1009 0.950 . S
H1004 C1010 0.949 . S
C1005 H1000 0.950 . S
C1005 C1007 1.327 . S
C1005 C1011 1.429 . S
C1006 C998 1.574 . S
C1006 H1001 0.949 . S
C1006 C1012 1.368 . S
C1007 C991 1.349 . S
C1007 H999 0.950 . S
C1007 C1005 1.327 . S
C1008 C996 1.349 . S
C1008 H1002 0.950 . S
C1008 C1009 1.327 . S
C1009 H1003 0.950 . S
C1009 C1008 1.327 . S
C1009 C1013 1.429 . S
C1010 C993 1.574 . S
C1010 H1004 0.949 . S
C1010 C1014 1.368 . S
C1011 C992 1.429 . S
C1011 C1005 1.429 . S
C1011 C1012 1.523 . S
C1012 C993 1.368 . S
C1012 C1006 1.368 . S
C1012 C1011 1.523 . S
C1013 C997 1.429 . S
C1013 C1009 1.429 . S
C1013 C1014 1.523 . S
C1014 C998 1.368 . S
C1014 C1010 1.368 . S
C1014 C1013 1.523 . S
H1015 C990 0.950 . S
H1016 C992 0.950 . S
H1017 C993 0.949 . S
H1018 C995 0.950 . S
H1019 C997 0.950 . S
C1020 C1021 1.349 . S
C1020 C1022 1.327 . S
C1020 H1045 0.950 . S
C1021 C1020 1.349 . S
C1021 C1037 1.349 . S
C1022 C1020 1.327 . S
C1022 C1041 1.429 . S
C1022 H1046 0.950 . S
C1023 C1040 1.574 . S
C1023 C1042 1.368 . S
C1023 H1047 0.949 . S
H1024 C1028 0.949 . S
C1025 C1026 1.349 . S
C1025 C1027 1.327 . S
C1025 H1048 0.950 . S
C1026 C1025 1.349 . S
C1026 C1038 1.349 . S
C1027 C1025 1.327 . S
C1027 C1043 1.429 . S
C1027 H1049 0.950 . S
C1028 H1024 0.949 . S
C1028 C1036 1.574 . S
C1028 C1044 1.368 . S
H1029 C1037 0.950 . S
H1030 C1035 0.950 . S
H1031 C1036 0.949 . S
H1032 C1038 0.950 . S
H1033 C1039 0.950 . S
H1034 C1040 0.949 . S
C1035 H1030 0.950 . S
C1035 C1037 1.327 . S
C1035 C1041 1.429 . S
C1036 C1028 1.574 . S
C1036 H1031 0.949 . S
C1036 C1042 1.368 . S
C1037 C1021 1.349 . S
C1037 H1029 0.950 . S
C1037 C1035 1.327 . S
C1038 C1026 1.349 . S
C1038 H1032 0.950 . S
C1038 C1039 1.327 . S
C1039 H1033 0.950 . S
C1039 C1038 1.327 . S
C1039 C1043 1.429 . S
C1040 C1023 1.574 . S
C1040 H1034 0.949 . S
C1040 C1044 1.368 . S
C1041 C1022 1.429 . S
C1041 C1035 1.429 . S
C1041 C1042 1.523 1_545 S
C1042 C1023 1.368 . S
C1042 C1036 1.368 . S
C1042 C1041 1.523 1_565 S
C1043 C1027 1.429 . S
C1043 C1039 1.429 . S
C1043 C1044 1.523 . S
C1044 C1028 1.368 . S
C1044 C1040 1.368 . S
C1044 C1043 1.523 . S
H1045 C1020 0.950 . S
H1046 C1022 0.950 . S
H1047 C1023 0.949 . S
H1048 C1025 0.950 . S
H1049 C1027 0.950 . S
C1050 C1051 1.349 . S
C1050 C1052 1.327 . S
C1050 H1075 0.950 . S
C1051 C1050 1.349 . S
C1051 C1067 1.349 . S
C1052 C1050 1.327 . S
C1052 C1071 1.429 . S
C1052 H1076 0.950 . S
C1053 C1070 1.574 . S
C1053 C1072 1.368 . S
C1053 H1077 0.949 . S
H1054 C1058 0.949 . S
C1055 C1056 1.349 . S
C1055 C1057 1.327 . S
C1055 H1078 0.950 . S
C1056 C1055 1.349 . S
C1056 C1068 1.349 . S
C1057 C1055 1.327 . S
C1057 C1073 1.429 . S
C1057 H1079 0.950 . S
C1058 H1054 0.949 . S
C1058 C1066 1.574 . S
C1058 C1074 1.368 . S
H1059 C1067 0.950 . S
H1060 C1065 0.950 . S
H1061 C1066 0.949 . S
H1062 C1068 0.950 . S
H1063 C1069 0.950 . S
H1064 C1070 0.949 . S
C1065 H1060 0.950 . S
C1065 C1067 1.327 . S
C1065 C1071 1.429 . S
C1066 C1058 1.574 . S
C1066 H1061 0.949 . S
C1066 C1072 1.368 . S
C1067 C1051 1.349 . S
C1067 H1059 0.950 . S
C1067 C1065 1.327 . S
C1068 C1056 1.349 . S
C1068 H1062 0.950 . S
C1068 C1069 1.327 . S
C1069 H1063 0.950 . S
C1069 C1068 1.327 . S
C1069 C1073 1.429 . S
C1070 C1053 1.574 . S
C1070 H1064 0.949 . S
C1070 C1074 1.368 . S
C1071 C1052 1.429 . S
C1071 C1065 1.429 . S
C1071 C1072 1.523 . S
C1072 C1053 1.368 . S
C1072 C1066 1.368 . S
C1072 C1071 1.523 . S
C1073 C1057 1.429 . S
C1073 C1069 1.429 . S
C1073 C1074 1.523 . S
C1074 C1058 1.368 . S
C1074 C1070 1.368 . S
C1074 C1073 1.523 . S
H1075 C1050 0.950 . S
H1076 C1052 0.950 . S
H1077 C1053 0.949 . S
H1078 C1055 0.950 . S
H1079 C1057 0.950 . S
C1080 C1081 1.349 . S
C1080 C1082 1.327 . S
C1080 H1105 0.950 . S
C1081 C1080 1.349 . S
C1081 C1097 1.349 . S
C1082 C1080 1.327 . S
C1082 C1101 1.429 . S
C1082 H1106 0.950 . S
C1083 C1100 1.574 . S
C1083 C1102 1.368 . S
C1083 H1107 0.949 . S
H1084 C1088 0.949 . S
C1085 C1086 1.349 . S
C1085 C1087 1.327 . S
C1085 H1108 0.950 . S
C1086 C1085 1.349 . S
C1086 C1098 1.349 . S
C1087 C1085 1.327 . S
C1087 C1103 1.429 . S
C1087 H1109 0.950 . S
C1088 H1084 0.949 . S
C1088 C1096 1.574 . S
C1088 C1104 1.368 . S
H1089 C1097 0.950 . S
H1090 C1095 0.950 . S
H1091 C1096 0.949 . S
H1092 C1098 0.950 . S
H1093 C1099 0.950 . S
H1094 C1100 0.949 . S
C1095 H1090 0.950 . S
C1095 C1097 1.327 . S
C1095 C1101 1.429 . S
C1096 C1088 1.574 . S
C1096 H1091 0.949 . S
C1096 C1102 1.368 . S
C1097 C1081 1.349 . S
C1097 H1089 0.950 . S
C1097 C1095 1.327 . S
C1098 C1086 1.349 . S
C1098 H1092 0.950 . S
C1098 C1099 1.327 . S
C1099 H1093 0.950 . S
C1099 C1098 1.327 . S
C1099 C1103 1.429 . S
C1100 C1083 1.574 . S
C1100 H1094 0.949 . S
C1100 C1104 1.368 . S
C1101 C1082 1.429 . S
C1101 C1095 1.429 . S
C1101 C1102 1.523 . S
C1102 C1083 1.368 . S
C1102 C1096 1.368 . S
C1102 C1101 1.523 . S
C1103 C1087 1.429 . S
C1103 C1099 1.429 . S
C1103 C1104 1.523 . S
C1104 C1088 1.368 . S
C1104 C1100 1.368 . S
C1104 C1103 1.523 . S
H1105 C1080 0.950 . S
H1106 C1082 0.950 . S
H1107 C1083 0.949 . S
H1108 C1085 0.950 . S
H1109 C1087 0.950 . S
C1110 C1111 1.349 . S
C1110 C1112 1.327 . S
C1110 H1135 0.950 . S
C1111 C1110 1.349 . S
C1111 C1127 1.349 . S
C1112 C1110 1.327 . S
C1112 C1131 1.422 1_565 S
C1112 H1136 0.950 . S
C1113 C1130 1.574 . S
C1113 C1132 1.368 . S
C1113 H1137 0.949 . S
H1114 C1118 0.949 . S
C1115 C1116 1.349 . S
C1115 C1117 1.327 . S
C1115 H1138 0.950 . S
C1116 C1115 1.349 . S
C1116 C1128 1.349 . S
C1117 C1115 1.327 . S
C1117 C1133 1.429 . S
C1117 H1139 0.950 . S
C1118 H1114 0.949 . S
C1118 C1126 1.574 . S
C1118 C1134 1.368 . S
H1119 C1127 0.950 . S
H1120 C1125 0.950 1_545 S
H1121 C1126 0.949 . S
H1122 C1128 0.950 . S
H1123 C1129 0.950 . S
H1124 C1130 0.949 . S
C1125 H1120 0.950 1_565 S
C1125 C1127 1.327 . S
C1125 C1131 1.430 1_565 S
C1126 C1118 1.574 . S
C1126 H1121 0.949 . S
C1126 C1132 1.368 . S
C1127 C1111 1.349 . S
C1127 H1119 0.950 . S
C1127 C1125 1.327 . S
C1128 C1116 1.349 . S
C1128 H1122 0.950 . S
C1128 C1129 1.327 . S
C1129 H1123 0.950 . S
C1129 C1128 1.327 . S
C1129 C1133 1.429 . S
C1130 C1113 1.574 . S
C1130 H1124 0.949 . S
C1130 C1134 1.368 . S
C1131 C1112 1.422 1_545 S
C1131 C1125 1.430 1_545 S
C1131 C1132 1.528 . S
C1132 C1113 1.368 . S
C1132 C1126 1.368 . S
C1132 C1131 1.528 . S
C1133 C1117 1.429 . S
C1133 C1129 1.429 . S
C1133 C1134 1.523 . S
C1134 C1118 1.368 . S
C1134 C1130 1.368 . S
C1134 C1133 1.523 . S
H1135 C1110 0.950 . S
H1136 C1112 0.950 . S
H1137 C1113 0.949 . S
H1138 C1115 0.950 . S
H1139 C1117 0.950 . S
C1140 C1141 1.349 . S
C1140 C1142 1.327 . S
C1140 H1165 0.950 . S
C1141 C1140 1.349 . S
C1141 C1157 1.349 . S
C1142 C1140 1.327 . S
C1142 C1161 1.429 . S
C1142 H1166 0.950 . S
C1143 C1160 1.574 . S
C1143 C1162 1.368 . S
C1143 H1167 0.949 . S
H1144 C1148 0.949 . S
C1145 C1146 1.349 . S
C1145 C1147 1.327 . S
C1145 H1168 0.950 . S
C1146 C1145 1.349 . S
C1146 C1158 1.349 . S
C1147 C1145 1.327 . S
C1147 C1163 1.429 . S
C1147 H1169 0.950 . S
C1148 H1144 0.949 . S
C1148 C1156 1.574 . S
C1148 C1164 1.368 . S
H1149 C1157 0.950 . S
H1150 C1155 0.950 . S
H1151 C1156 0.949 . S
H1152 C1158 0.950 . S
H1153 C1159 0.950 . S
H1154 C1160 0.949 . S
C1155 H1150 0.950 . S
C1155 C1157 1.327 . S
C1155 C1161 1.429 . S
C1156 C1148 1.574 . S
C1156 H1151 0.949 . S
C1156 C1162 1.368 . S
C1157 C1141 1.349 . S
C1157 H1149 0.950 . S
C1157 C1155 1.327 . S
C1158 C1146 1.349 . S
C1158 H1152 0.950 . S
C1158 C1159 1.327 . S
C1159 H1153 0.950 . S
C1159 C1158 1.327 . S
C1159 C1163 1.429 . S
C1160 C1143 1.574 . S
C1160 H1154 0.949 . S
C1160 C1164 1.368 . S
C1161 C1142 1.429 . S
C1161 C1155 1.429 . S
C1161 C1162 1.523 . S
C1162 C1143 1.368 . S
C1162 C1156 1.368 . S
C1162 C1161 1.523 . S
C1163 C1147 1.429 . S
C1163 C1159 1.429 . S
C1163 C1164 1.523 . S
C1164 C1148 1.368 . S
C1164 C1160 1.368 . S
C1164 C1163 1.523 . S
H1165 C1140 0.950 . S
H1166 C1142 0.950 . S
H1167 C1143 0.949 . S
H1168 C1145 0.950 . S
H1169 C1147 0.950 . S
C361 C9 1.196 . S
C366 C18 1.196 . S
C391 C49 1.196 . S
C396 C58 1.196 . S
C421 C89 1.196 . S
C426 C98 1.196 . S
C451 C138 1.196 . S
C456 C129 1.196 . S
C481 C178 1.196 . S
C486 C169 1.196 . S
C511 C218 1.196 . S
C516 C209 1.196 . S
C541 C259 1.102 . S
C546 C250 1.102 . S
C571 C299 1.102 . S
C576 C290 1.102 . S
C601 C339 1.102 . S
C606 C330 1.102 . S
C631 C210 2.596 . S
C636 C6 2.565 . S
C661 C46 2.565 . S
C666 C130 2.597 . S
C691 C86 2.565 . S
C696 C170 2.596 . S
C721 C90 2.091 . S
C726 C249 2.185 . S
C751 C289 2.185 1_455 S
C756 C10 2.091 . S
C781 C329 2.184 . S
C786 C50 2.090 . S
C811 C326 0.974 . S
C816 C15 0.975 . S
C841 C55 0.975 . S
C846 C246 0.974 . S
C871 C286 0.974 . S
C876 C95 0.975 . S
C901 C99 2.596 1_565 S
C906 C135 2.565 . S
C931 C175 2.566 . S
C936 C19 2.597 . S
C961 C59 2.597 . S
C966 C215 2.565 . S
C991 C335 0.974 . S
C996 C126 0.974 . S
C1021 C255 0.974 . S
C1026 C166 0.975 . S
C1051 C295 0.974 . S
C1056 C206 0.975 . S
C1081 C258 2.185 . S
C1086 C219 2.091 . S
C1111 C139 2.091 . S
C1116 C298 2.186 . S
C1141 C338 2.185 . S
C1146 C179 2.091 . S
