# Generated by pormake.
# Topology uli, (4)-cn, num edge types: 1
# Building blocks:
#     Node 0, Type 0, BuildingBlock: CEKHIL_clean_sbu_0, # of connection points: 4
#     Node 1, Type 0, BuildingBlock: CEKHIL_clean_sbu_0, # of connection points: 4
#     Node 2, Type 0, BuildingBlock: CEKHIL_clean_sbu_0, # of connection points: 4
#     Node 3, Type 0, BuildingBlock: CEKHIL_clean_sbu_0, # of connection points: 4
#     Node 4, Type 0, BuildingBlock: CEKHIL_clean_sbu_0, # of connection points: 4
#     Node 5, Type 0, BuildingBlock: CEKHIL_clean_sbu_0, # of connection points: 4
#     Node 6, Type 0, BuildingBlock: CEKHIL_clean_sbu_0, # of connection points: 4
#     Node 7, Type 0, BuildingBlock: CEKHIL_clean_sbu_0, # of connection points: 4
#     Node 8, Type 0, BuildingBlock: CEKHIL_clean_sbu_0, # of connection points: 4
#     Node 9, Type 0, BuildingBlock: CEKHIL_clean_sbu_0, # of connection points: 4
#     Node 10, Type 0, BuildingBlock: CEKHIL_clean_sbu_0, # of connection points: 4
#     Node 11, Type 0, BuildingBlock: CEKHIL_clean_sbu_0, # of connection points: 4
#     Node 12, Type 0, BuildingBlock: CEKHIL_clean_sbu_0, # of connection points: 4
#     Node 13, Type 0, BuildingBlock: CEKHIL_clean_sbu_0, # of connection points: 4
#     Node 14, Type 0, BuildingBlock: CEKHIL_clean_sbu_0, # of connection points: 4
#     Node 15, Type 0, BuildingBlock: CEKHIL_clean_sbu_0, # of connection points: 4
#     Node 16, Type 0, BuildingBlock: CEKHIL_clean_sbu_0, # of connection points: 4
#     Node 17, Type 0, BuildingBlock: CEKHIL_clean_sbu_0, # of connection points: 4
#     Node 18, Type 0, BuildingBlock: CEKHIL_clean_sbu_0, # of connection points: 4
#     Node 19, Type 0, BuildingBlock: CEKHIL_clean_sbu_0, # of connection points: 4
#     Node 20, Type 0, BuildingBlock: CEKHIL_clean_sbu_0, # of connection points: 4
#     Node 21, Type 0, BuildingBlock: CEKHIL_clean_sbu_0, # of connection points: 4
#     Node 22, Type 0, BuildingBlock: CEKHIL_clean_sbu_0, # of connection points: 4
#     Node 23, Type 0, BuildingBlock: CEKHIL_clean_sbu_0, # of connection points: 4
#     Node 24, Type 0, BuildingBlock: CEKHIL_clean_sbu_0, # of connection points: 4
#     Node 25, Type 0, BuildingBlock: CEKHIL_clean_sbu_0, # of connection points: 4
#     Node 26, Type 0, BuildingBlock: CEKHIL_clean_sbu_0, # of connection points: 4
#     Node 27, Type 0, BuildingBlock: CEKHIL_clean_sbu_0, # of connection points: 4
#     Node 28, Type 0, BuildingBlock: CEKHIL_clean_sbu_0, # of connection points: 4
#     Node 29, Type 0, BuildingBlock: CEKHIL_clean_sbu_0, # of connection points: 4
#     Node 30, Type 0, BuildingBlock: CEKHIL_clean_sbu_0, # of connection points: 4
#     Node 31, Type 0, BuildingBlock: CEKHIL_clean_sbu_0, # of connection points: 4
#     Node 32, Type 0, BuildingBlock: CEKHIL_clean_sbu_0, # of connection points: 4
#     Node 33, Type 0, BuildingBlock: CEKHIL_clean_sbu_0, # of connection points: 4
#     Node 34, Type 0, BuildingBlock: CEKHIL_clean_sbu_0, # of connection points: 4
#     Node 35, Type 0, BuildingBlock: CEKHIL_clean_sbu_0, # of connection points: 4
#     Node 36, Type 0, BuildingBlock: CEKHIL_clean_sbu_0, # of connection points: 4
#     Node 37, Type 0, BuildingBlock: CEKHIL_clean_sbu_0, # of connection points: 4
#     Node 38, Type 0, BuildingBlock: CEKHIL_clean_sbu_0, # of connection points: 4
#     Node 39, Type 0, BuildingBlock: CEKHIL_clean_sbu_0, # of connection points: 4
#     Node 40, Type 0, BuildingBlock: CEKHIL_clean_sbu_0, # of connection points: 4
#     Node 41, Type 0, BuildingBlock: CEKHIL_clean_sbu_0, # of connection points: 4
#     Node 42, Type 0, BuildingBlock: CEKHIL_clean_sbu_0, # of connection points: 4
#     Node 43, Type 0, BuildingBlock: CEKHIL_clean_sbu_0, # of connection points: 4
#     Node 44, Type 0, BuildingBlock: CEKHIL_clean_sbu_0, # of connection points: 4
#     Node 45, Type 0, BuildingBlock: CEKHIL_clean_sbu_0, # of connection points: 4
#     Node 46, Type 0, BuildingBlock: CEKHIL_clean_sbu_0, # of connection points: 4
#     Node 47, Type 0, BuildingBlock: CEKHIL_clean_sbu_0, # of connection points: 4
#     Edge 48, Type (0, 0), BuildingBlock: MIFKUJ_clean_linker_0, # of connection points: 2
#     Edge 49, Type (0, 0), BuildingBlock: MIFKUJ_clean_linker_0, # of connection points: 2
#     Edge 50, Type (0, 0), BuildingBlock: MIFKUJ_clean_linker_0, # of connection points: 2
#     Edge 51, Type (0, 0), BuildingBlock: MIFKUJ_clean_linker_0, # of connection points: 2
#     Edge 52, Type (0, 0), BuildingBlock: MIFKUJ_clean_linker_0, # of connection points: 2
#     Edge 53, Type (0, 0), BuildingBlock: MIFKUJ_clean_linker_0, # of connection points: 2
#     Edge 54, Type (0, 0), BuildingBlock: MIFKUJ_clean_linker_0, # of connection points: 2
#     Edge 55, Type (0, 0), BuildingBlock: MIFKUJ_clean_linker_0, # of connection points: 2
#     Edge 56, Type (0, 0), BuildingBlock: MIFKUJ_clean_linker_0, # of connection points: 2
#     Edge 57, Type (0, 0), BuildingBlock: MIFKUJ_clean_linker_0, # of connection points: 2
#     Edge 58, Type (0, 0), BuildingBlock: MIFKUJ_clean_linker_0, # of connection points: 2
#     Edge 59, Type (0, 0), BuildingBlock: MIFKUJ_clean_linker_0, # of connection points: 2
#     Edge 60, Type (0, 0), BuildingBlock: MIFKUJ_clean_linker_0, # of connection points: 2
#     Edge 61, Type (0, 0), BuildingBlock: MIFKUJ_clean_linker_0, # of connection points: 2
#     Edge 62, Type (0, 0), BuildingBlock: MIFKUJ_clean_linker_0, # of connection points: 2
#     Edge 63, Type (0, 0), BuildingBlock: MIFKUJ_clean_linker_0, # of connection points: 2
#     Edge 64, Type (0, 0), BuildingBlock: MIFKUJ_clean_linker_0, # of connection points: 2
#     Edge 65, Type (0, 0), BuildingBlock: MIFKUJ_clean_linker_0, # of connection points: 2
#     Edge 66, Type (0, 0), BuildingBlock: MIFKUJ_clean_linker_0, # of connection points: 2
#     Edge 67, Type (0, 0), BuildingBlock: MIFKUJ_clean_linker_0, # of connection points: 2
#     Edge 68, Type (0, 0), BuildingBlock: MIFKUJ_clean_linker_0, # of connection points: 2
#     Edge 69, Type (0, 0), BuildingBlock: MIFKUJ_clean_linker_0, # of connection points: 2
#     Edge 70, Type (0, 0), BuildingBlock: MIFKUJ_clean_linker_0, # of connection points: 2
#     Edge 71, Type (0, 0), BuildingBlock: MIFKUJ_clean_linker_0, # of connection points: 2
#     Edge 72, Type (0, 0), BuildingBlock: MIFKUJ_clean_linker_0, # of connection points: 2
#     Edge 73, Type (0, 0), BuildingBlock: MIFKUJ_clean_linker_0, # of connection points: 2
#     Edge 74, Type (0, 0), BuildingBlock: MIFKUJ_clean_linker_0, # of connection points: 2
#     Edge 75, Type (0, 0), BuildingBlock: MIFKUJ_clean_linker_0, # of connection points: 2
#     Edge 76, Type (0, 0), BuildingBlock: MIFKUJ_clean_linker_0, # of connection points: 2
#     Edge 77, Type (0, 0), BuildingBlock: MIFKUJ_clean_linker_0, # of connection points: 2
#     Edge 78, Type (0, 0), BuildingBlock: MIFKUJ_clean_linker_0, # of connection points: 2
#     Edge 79, Type (0, 0), BuildingBlock: MIFKUJ_clean_linker_0, # of connection points: 2
#     Edge 80, Type (0, 0), BuildingBlock: MIFKUJ_clean_linker_0, # of connection points: 2
#     Edge 81, Type (0, 0), BuildingBlock: MIFKUJ_clean_linker_0, # of connection points: 2
#     Edge 82, Type (0, 0), BuildingBlock: MIFKUJ_clean_linker_0, # of connection points: 2
#     Edge 83, Type (0, 0), BuildingBlock: MIFKUJ_clean_linker_0, # of connection points: 2
#     Edge 84, Type (0, 0), BuildingBlock: MIFKUJ_clean_linker_0, # of connection points: 2
#     Edge 85, Type (0, 0), BuildingBlock: MIFKUJ_clean_linker_0, # of connection points: 2
#     Edge 86, Type (0, 0), BuildingBlock: MIFKUJ_clean_linker_0, # of connection points: 2
#     Edge 87, Type (0, 0), BuildingBlock: MIFKUJ_clean_linker_0, # of connection points: 2
#     Edge 88, Type (0, 0), BuildingBlock: MIFKUJ_clean_linker_0, # of connection points: 2
#     Edge 89, Type (0, 0), BuildingBlock: MIFKUJ_clean_linker_0, # of connection points: 2
#     Edge 90, Type (0, 0), BuildingBlock: MIFKUJ_clean_linker_0, # of connection points: 2
#     Edge 91, Type (0, 0), BuildingBlock: MIFKUJ_clean_linker_0, # of connection points: 2
#     Edge 92, Type (0, 0), BuildingBlock: MIFKUJ_clean_linker_0, # of connection points: 2
#     Edge 93, Type (0, 0), BuildingBlock: MIFKUJ_clean_linker_0, # of connection points: 2
#     Edge 94, Type (0, 0), BuildingBlock: MIFKUJ_clean_linker_0, # of connection points: 2
#     Edge 95, Type (0, 0), BuildingBlock: MIFKUJ_clean_linker_0, # of connection points: 2
#     Edge 96, Type (0, 0), BuildingBlock: MIFKUJ_clean_linker_0, # of connection points: 2
#     Edge 97, Type (0, 0), BuildingBlock: MIFKUJ_clean_linker_0, # of connection points: 2
#     Edge 98, Type (0, 0), BuildingBlock: MIFKUJ_clean_linker_0, # of connection points: 2
#     Edge 99, Type (0, 0), BuildingBlock: MIFKUJ_clean_linker_0, # of connection points: 2
#     Edge 100, Type (0, 0), BuildingBlock: MIFKUJ_clean_linker_0, # of connection points: 2
#     Edge 101, Type (0, 0), BuildingBlock: MIFKUJ_clean_linker_0, # of connection points: 2
#     Edge 102, Type (0, 0), BuildingBlock: MIFKUJ_clean_linker_0, # of connection points: 2
#     Edge 103, Type (0, 0), BuildingBlock: MIFKUJ_clean_linker_0, # of connection points: 2
#     Edge 104, Type (0, 0), BuildingBlock: MIFKUJ_clean_linker_0, # of connection points: 2
#     Edge 105, Type (0, 0), BuildingBlock: MIFKUJ_clean_linker_0, # of connection points: 2
#     Edge 106, Type (0, 0), BuildingBlock: MIFKUJ_clean_linker_0, # of connection points: 2
#     Edge 107, Type (0, 0), BuildingBlock: MIFKUJ_clean_linker_0, # of connection points: 2
#     Edge 108, Type (0, 0), BuildingBlock: MIFKUJ_clean_linker_0, # of connection points: 2
#     Edge 109, Type (0, 0), BuildingBlock: MIFKUJ_clean_linker_0, # of connection points: 2
#     Edge 110, Type (0, 0), BuildingBlock: MIFKUJ_clean_linker_0, # of connection points: 2
#     Edge 111, Type (0, 0), BuildingBlock: MIFKUJ_clean_linker_0, # of connection points: 2
#     Edge 112, Type (0, 0), BuildingBlock: MIFKUJ_clean_linker_0, # of connection points: 2
#     Edge 113, Type (0, 0), BuildingBlock: MIFKUJ_clean_linker_0, # of connection points: 2
#     Edge 114, Type (0, 0), BuildingBlock: MIFKUJ_clean_linker_0, # of connection points: 2
#     Edge 115, Type (0, 0), BuildingBlock: MIFKUJ_clean_linker_0, # of connection points: 2
#     Edge 116, Type (0, 0), BuildingBlock: MIFKUJ_clean_linker_0, # of connection points: 2
#     Edge 117, Type (0, 0), BuildingBlock: MIFKUJ_clean_linker_0, # of connection points: 2
#     Edge 118, Type (0, 0), BuildingBlock: MIFKUJ_clean_linker_0, # of connection points: 2
#     Edge 119, Type (0, 0), BuildingBlock: MIFKUJ_clean_linker_0, # of connection points: 2
#     Edge 120, Type (0, 0), BuildingBlock: MIFKUJ_clean_linker_0, # of connection points: 2
#     Edge 121, Type (0, 0), BuildingBlock: MIFKUJ_clean_linker_0, # of connection points: 2
#     Edge 122, Type (0, 0), BuildingBlock: MIFKUJ_clean_linker_0, # of connection points: 2
#     Edge 123, Type (0, 0), BuildingBlock: MIFKUJ_clean_linker_0, # of connection points: 2
#     Edge 124, Type (0, 0), BuildingBlock: MIFKUJ_clean_linker_0, # of connection points: 2
#     Edge 125, Type (0, 0), BuildingBlock: MIFKUJ_clean_linker_0, # of connection points: 2
#     Edge 126, Type (0, 0), BuildingBlock: MIFKUJ_clean_linker_0, # of connection points: 2
#     Edge 127, Type (0, 0), BuildingBlock: MIFKUJ_clean_linker_0, # of connection points: 2
#     Edge 128, Type (0, 0), BuildingBlock: MIFKUJ_clean_linker_0, # of connection points: 2
#     Edge 129, Type (0, 0), BuildingBlock: MIFKUJ_clean_linker_0, # of connection points: 2
#     Edge 130, Type (0, 0), BuildingBlock: MIFKUJ_clean_linker_0, # of connection points: 2
#     Edge 131, Type (0, 0), BuildingBlock: MIFKUJ_clean_linker_0, # of connection points: 2
#     Edge 132, Type (0, 0), BuildingBlock: MIFKUJ_clean_linker_0, # of connection points: 2
#     Edge 133, Type (0, 0), BuildingBlock: MIFKUJ_clean_linker_0, # of connection points: 2
#     Edge 134, Type (0, 0), BuildingBlock: MIFKUJ_clean_linker_0, # of connection points: 2
#     Edge 135, Type (0, 0), BuildingBlock: MIFKUJ_clean_linker_0, # of connection points: 2
#     Edge 136, Type (0, 0), BuildingBlock: MIFKUJ_clean_linker_0, # of connection points: 2
#     Edge 137, Type (0, 0), BuildingBlock: MIFKUJ_clean_linker_0, # of connection points: 2
#     Edge 138, Type (0, 0), BuildingBlock: MIFKUJ_clean_linker_0, # of connection points: 2
#     Edge 139, Type (0, 0), BuildingBlock: MIFKUJ_clean_linker_0, # of connection points: 2
#     Edge 140, Type (0, 0), BuildingBlock: MIFKUJ_clean_linker_0, # of connection points: 2
#     Edge 141, Type (0, 0), BuildingBlock: MIFKUJ_clean_linker_0, # of connection points: 2
#     Edge 142, Type (0, 0), BuildingBlock: MIFKUJ_clean_linker_0, # of connection points: 2
#     Edge 143, Type (0, 0), BuildingBlock: MIFKUJ_clean_linker_0, # of connection points: 2
# Relax obj value: 0.466
# Max RMSD: 0.154
# Mean RMSD: 0.154
data_MOF--net-uli--node1-CEKHIL_clean_sbu_0--edge1-MIFKUJ_clean_linker_0
_symmetry_space_group_name_H-M    P1
_symmetry_Int_Tables_number       1
_symmetry_cell_setting            triclinic
loop_
_symmetry_equiv_pos_as_xyz
'x, y, z'
_cell_length_a     86.251112
_cell_length_b     86.248814
_cell_length_c     86.256035
_cell_angle_alpha  89.99482
_cell_angle_beta   90.016877
_cell_angle_gamma 90.001971
loop_
_atom_site_label
_atom_site_type_symbol
_atom_site_fract_x
_atom_site_fract_y
_atom_site_fract_z
_atom_type_partial_charge
Co0 Co 0.10692 0.26523 0.21991 0.0
O1 O 0.09459 0.26286 0.23826 0.0
O2 O 0.08524 0.26484 0.21438 0.0
C3 C 0.12389 0.24614 0.2255 0.0
O4 O 0.11605 0.26696 0.1982 0.0
Co5 Co 0.14167 0.27469 0.22255 0.0
O6 O 0.14188 0.27043 0.20008 0.0
C7 C 0.11722 0.29847 0.22567 0.0
C8 C 0.08267 0.26279 0.2291 0.0
C9 C 0.12961 0.26831 0.19212 0.0
O10 O 0.10653 0.28856 0.22248 0.0
O11 O 0.13156 0.29498 0.22711 0.0
O12 O 0.11061 0.24295 0.21919 0.0
O13 O 0.12588 0.26043 0.22953 0.0
Co14 Co 0.73399 0.09397 0.22763 0.0
O15 O 0.73336 0.07224 0.2317 0.0
O16 O 0.72875 0.08308 0.20878 0.0
C17 C 0.7569 0.09932 0.23871 0.0
O18 O 0.7344 0.11594 0.21922 0.0
Co19 Co 0.73266 0.11672 0.25553 0.0
O20 O 0.73738 0.13238 0.23934 0.0
C21 C 0.70413 0.10135 0.24523 0.0
C22 C 0.73038 0.07058 0.21705 0.0
C23 C 0.73669 0.12957 0.22484 0.0
O24 O 0.71148 0.096 0.23343 0.0
O25 O 0.71083 0.10869 0.25625 0.0
O26 O 0.75623 0.09318 0.22501 0.0
O27 O 0.7439 0.09963 0.24625 0.0
Co28 Co 0.89599 0.73417 0.22929 0.0
O29 O 0.91661 0.7342 0.23731 0.0
O30 O 0.91014 0.72796 0.21312 0.0
C31 C 0.88884 0.75745 0.2385 0.0
O32 O 0.87596 0.73345 0.21686 0.0
Co33 Co 0.86807 0.73429 0.25203 0.0
O34 O 0.85582 0.73779 0.23287 0.0
C35 C 0.88671 0.70594 0.2481 0.0
C36 C 0.92087 0.72997 0.22352 0.0
C37 C 0.86145 0.73594 0.21932 0.0
O38 O 0.89341 0.71202 0.23626 0.0
O39 O 0.87735 0.71349 0.25681 0.0
O40 O 0.89685 0.75643 0.2258 0.0
O41 O 0.88705 0.74464 0.24606 0.0
Co42 Co 0.25888 0.90546 0.21981 0.0
O43 O 0.26001 0.9248 0.2303 0.0
O44 O 0.26818 0.92067 0.20617 0.0
C45 C 0.23416 0.90065 0.22641 0.0
O46 O 0.25906 0.88697 0.20524 0.0
Co47 Co 0.25265 0.87528 0.23836 0.0
O48 O 0.24847 0.86652 0.21748 0.0
C49 C 0.2833 0.89068 0.24007 0.0
C50 C 0.26611 0.93021 0.21768 0.0
C51 C 0.2535 0.87313 0.20525 0.0
O52 O 0.27968 0.89957 0.22866 0.0
O53 O 0.27369 0.88125 0.24637 0.0
O54 O 0.23718 0.90917 0.21438 0.0
O55 O 0.24594 0.89627 0.23451 0.0
Co56 Co 0.07959 0.73988 0.77424 0.0
O57 O 0.0578 0.7391 0.77072 0.0
O58 O 0.06923 0.73404 0.79325 0.0
C59 C 0.08377 0.76322 0.76325 0.0
O60 O 0.10174 0.74002 0.78212 0.0
Co61 Co 0.10203 0.74043 0.746 0.0
O62 O 0.11803 0.74416 0.76215 0.0
C63 C 0.08732 0.711 0.75539 0.0
C64 C 0.05651 0.73577 0.78533 0.0
C65 C 0.11539 0.74237 0.77659 0.0
O66 O 0.08186 0.71755 0.76764 0.0
O67 O 0.09428 0.7185 0.74462 0.0
O68 O 0.07858 0.76221 0.77732 0.0
O69 O 0.08445 0.75026 0.75573 0.0
Co70 Co 0.26949 0.0996 0.76938 0.0
O71 O 0.26813 0.07979 0.75975 0.0
O72 O 0.27153 0.08359 0.78503 0.0
C73 C 0.24878 0.11016 0.75759 0.0
O74 O 0.27092 0.1188 0.78302 0.0
Co75 Co 0.27632 0.12789 0.748 0.0
O76 O 0.27273 0.13973 0.76743 0.0
C77 C 0.30061 0.10501 0.75436 0.0
C78 C 0.26979 0.074 0.7735 0.0
C79 C 0.27148 0.13358 0.78083 0.0
O80 O 0.29259 0.09974 0.76574 0.0
O81 O 0.29542 0.11497 0.74466 0.0
O82 O 0.24695 0.10143 0.76971 0.0
O83 O 0.26268 0.11063 0.75205 0.0
Co84 Co 0.9069 0.26227 0.77196 0.0
O85 O 0.92593 0.26472 0.76097 0.0
O86 O 0.9224 0.27056 0.78584 0.0
C87 C 0.90176 0.23807 0.76368 0.0
O88 O 0.88892 0.26085 0.78711 0.0
Co89 Co 0.87623 0.25778 0.75357 0.0
O90 O 0.86764 0.2528 0.77435 0.0
C91 C 0.89091 0.28864 0.75502 0.0
C92 C 0.93163 0.26973 0.77394 0.0
C93 C 0.87474 0.2562 0.78688 0.0
O94 O 0.90035 0.28372 0.76546 0.0
O95 O 0.88143 0.27976 0.74782 0.0
O96 O 0.91116 0.24028 0.77523 0.0
O97 O 0.89716 0.25046 0.75664 0.0
Co98 Co 0.7393 0.89831 0.75838 0.0
O99 O 0.74019 0.91743 0.74727 0.0
O100 O 0.73566 0.9152 0.77257 0.0
C101 C 0.7609 0.88748 0.74877 0.0
O102 O 0.73808 0.8804 0.77366 0.0
Co103 Co 0.73446 0.86785 0.73977 0.0
O104 O 0.73805 0.85797 0.76025 0.0
C105 C 0.70856 0.88953 0.74353 0.0
C106 C 0.73736 0.92405 0.76048 0.0
C107 C 0.73843 0.86549 0.77299 0.0
O108 O 0.71645 0.89686 0.75382 0.0
O109 O 0.71425 0.87854 0.73535 0.0
O110 O 0.76177 0.89754 0.75994 0.0
O111 O 0.74737 0.88601 0.74246 0.0
Co112 Co 0.24036 0.0943 0.27442 0.0
O113 O 0.24838 0.07381 0.27601 0.0
O114 O 0.2237 0.08024 0.27967 0.0
C115 C 0.25135 0.10035 0.2516 0.0
O116 O 0.22811 0.11436 0.27303 0.0
Co117 Co 0.2637 0.12172 0.27538 0.0
O118 O 0.24495 0.13424 0.27069 0.0
C119 C 0.25691 0.10427 0.30373 0.0
C120 C 0.23425 0.06949 0.27879 0.0
C121 C 0.23119 0.12882 0.27097 0.0
O122 O 0.24524 0.098 0.29692 0.0
O123 O 0.26684 0.11274 0.29666 0.0
O124 O 0.23869 0.09226 0.25209 0.0
O125 O 0.25798 0.10275 0.26485 0.0
Co126 Co 0.91174 0.22081 0.25922 0.0
O127 O 0.93184 0.22927 0.2628 0.0
O128 O 0.92465 0.20538 0.26929 0.0
C129 C 0.90981 0.22859 0.23439 0.0
O130 O 0.89189 0.20827 0.25691 0.0
Co131 Co 0.88459 0.24324 0.25179 0.0
O132 O 0.87326 0.22372 0.24715 0.0
C133 C 0.89583 0.24037 0.28393 0.0
C134 C 0.9354 0.21596 0.26876 0.0
C135 C 0.87816 0.21044 0.25144 0.0
O136 O 0.90451 0.22896 0.27984 0.0
O137 O 0.88806 0.24853 0.27424 0.0
O138 O 0.91716 0.21592 0.23784 0.0
O139 O 0.90528 0.23682 0.24606 0.0
Co140 Co 0.76638 0.91023 0.26061 0.0
O141 O 0.7585 0.93089 0.25976 0.0
O142 O 0.78331 0.92469 0.26282 0.0
C143 C 0.75378 0.90112 0.23962 0.0
O144 O 0.77877 0.89026 0.26145 0.0
Co145 Co 0.74387 0.88261 0.26623 0.0
O146 O 0.76257 0.86982 0.26208 0.0
C147 C 0.75259 0.90302 0.29218 0.0
C148 C 0.77282 0.93536 0.26101 0.0
C149 C 0.77617 0.87558 0.26136 0.0
O150 O 0.76302 0.9095 0.28372 0.0
O151 O 0.74269 0.89333 0.28683 0.0
O152 O 0.76645 0.90907 0.23806 0.0
O153 O 0.74824 0.90052 0.25353 0.0
Co154 Co 0.10019 0.76183 0.25652 0.0
O155 O 0.0822 0.74895 0.25597 0.0
O156 O 0.08192 0.77471 0.25689 0.0
C157 C 0.11298 0.75014 0.23704 0.0
O158 O 0.11656 0.77877 0.25669 0.0
Co159 Co 0.13193 0.74702 0.26516 0.0
O160 O 0.14004 0.7675 0.25847 0.0
C161 C 0.10866 0.7527 0.28944 0.0
C162 C 0.07428 0.76174 0.25598 0.0
C163 C 0.13147 0.77941 0.25656 0.0
O164 O 0.10054 0.76069 0.27983 0.0
O165 O 0.12071 0.74499 0.28545 0.0
O166 O 0.10228 0.76029 0.2341 0.0
O167 O 0.11429 0.74611 0.25142 0.0
Co168 Co 0.21672 0.90434 0.72735 0.0
O169 O 0.23185 0.92049 0.72657 0.0
O170 O 0.20689 0.92345 0.72102 0.0
C171 C 0.22356 0.89528 0.75087 0.0
O172 O 0.1977 0.89029 0.72758 0.0
Co173 Co 0.22752 0.86979 0.72933 0.0
O174 O 0.20536 0.86602 0.73372 0.0
C175 C 0.22776 0.88629 0.69916 0.0
C176 C 0.22052 0.92965 0.72287 0.0
C177 C 0.19487 0.87607 0.73114 0.0
O178 O 0.22155 0.89848 0.70515 0.0
O179 O 0.23172 0.87433 0.70701 0.0
O180 O 0.2145 0.90723 0.74971 0.0
O181 O 0.22934 0.89029 0.73801 0.0
Co182 Co 0.10671 0.23967 0.72441 0.0
O183 O 0.08874 0.25192 0.72837 0.0
O184 O 0.08839 0.22777 0.71935 0.0
C185 C 0.11897 0.24424 0.74693 0.0
O186 O 0.12324 0.22363 0.71953 0.0
Co187 Co 0.13818 0.25718 0.72158 0.0
O188 O 0.14642 0.23578 0.71961 0.0
C189 C 0.11533 0.25963 0.69669 0.0
C190 C 0.08079 0.23997 0.72394 0.0
C191 C 0.13812 0.22358 0.71843 0.0
O192 O 0.10784 0.24821 0.70266 0.0
O193 O 0.1267 0.2663 0.70351 0.0
O194 O 0.10807 0.2339 0.74621 0.0
O195 O 0.12059 0.25278 0.73472 0.0
Co196 Co 0.76043 0.10965 0.73687 0.0
O197 O 0.74661 0.09229 0.7369 0.0
O198 O 0.77177 0.09125 0.73139 0.0
C199 C 0.75321 0.11968 0.75978 0.0
O200 O 0.77841 0.12488 0.73649 0.0
Co201 Co 0.74773 0.14332 0.73644 0.0
O202 O 0.7692 0.14836 0.74302 0.0
C203 C 0.74716 0.12454 0.70779 0.0
C204 C 0.7587 0.08402 0.73342 0.0
C205 C 0.78044 0.13901 0.74081 0.0
O206 O 0.75526 0.11391 0.71444 0.0
O207 O 0.74205 0.1365 0.71497 0.0
O208 O 0.76292 0.10819 0.75925 0.0
O209 O 0.74686 0.12343 0.74673 0.0
Co210 Co 0.91288 0.76375 0.73129 0.0
O211 O 0.93431 0.75862 0.7293 0.0
O212 O 0.92393 0.78117 0.72265 0.0
C213 C 0.91041 0.7557 0.75603 0.0
O214 O 0.89149 0.77349 0.73244 0.0
Co215 Co 0.88818 0.73829 0.73753 0.0
O216 O 0.87447 0.75625 0.74205 0.0
C217 C 0.90187 0.74179 0.70626 0.0
C218 C 0.93632 0.77286 0.72488 0.0
C219 C 0.87803 0.76996 0.73782 0.0
O220 O 0.90827 0.75468 0.71023 0.0
O221 O 0.89479 0.73292 0.71586 0.0
O222 O 0.9162 0.7692 0.75291 0.0
O223 O 0.90774 0.74693 0.74416 0.0
Co224 Co 0.26036 0.21031 0.08749 0.0
O225 O 0.25946 0.21786 0.06683 0.0
O226 O 0.26779 0.1944 0.07345 0.0
C227 C 0.23613 0.21761 0.09383 0.0
O228 O 0.26231 0.19876 0.10794 0.0
Co229 Co 0.25737 0.23392 0.11455 0.0
O230 O 0.2535 0.21472 0.12665 0.0
C231 C 0.28671 0.23162 0.09693 0.0
C232 C 0.26449 0.20437 0.06261 0.0
C233 C 0.25783 0.2014 0.12192 0.0
O234 O 0.28175 0.21939 0.08999 0.0
O235 O 0.27827 0.23976 0.10606 0.0
O236 O 0.2385 0.20464 0.08664 0.0
O237 O 0.24819 0.22632 0.09564 0.0
Co238 Co 0.26064 0.76457 0.89169 0.0
O239 O 0.26389 0.75279 0.91012 0.0
O240 O 0.26078 0.77835 0.90931 0.0
C241 C 0.24188 0.74951 0.88164 0.0
O242 O 0.25626 0.78038 0.87471 0.0
Co243 Co 0.26783 0.7495 0.85966 0.0
O244 O 0.25645 0.76785 0.85182 0.0
C245 C 0.29337 0.76009 0.87969 0.0
C246 C 0.26239 0.7658 0.91753 0.0
C247 C 0.25376 0.77987 0.85999 0.0
O248 O 0.28374 0.76681 0.88884 0.0
O249 O 0.28934 0.75164 0.86819 0.0
O250 O 0.23869 0.75966 0.89225 0.0
O251 O 0.25648 0.74748 0.87886 0.0
Co252 Co 0.23082 0.26622 0.90787 0.0
O253 O 0.23676 0.26551 0.92918 0.0
O254 O 0.21256 0.26786 0.92069 0.0
C255 C 0.2444 0.24544 0.89987 0.0
O256 O 0.22044 0.26661 0.88673 0.0
Co257 Co 0.25593 0.27254 0.8828 0.0
O258 O 0.2391 0.26602 0.8685 0.0
C259 C 0.2439 0.29847 0.90151 0.0
C260 C 0.22205 0.26608 0.93227 0.0
C261 C 0.2249 0.2653 0.87255 0.0
O262 O 0.23359 0.28944 0.90741 0.0
O263 O 0.25475 0.2936 0.89262 0.0
O264 O 0.23121 0.24375 0.90684 0.0
O265 O 0.24993 0.2594 0.8999 0.0
Co266 Co 0.73717 0.24851 0.90793 0.0
O267 O 0.73354 0.25625 0.92836 0.0
O268 O 0.72797 0.23235 0.92039 0.0
C269 C 0.76165 0.25689 0.90505 0.0
O270 O 0.73983 0.23649 0.88788 0.0
Co271 Co 0.74276 0.27174 0.88102 0.0
O272 O 0.74957 0.25269 0.8699 0.0
C273 C 0.71126 0.26748 0.89318 0.0
C274 C 0.72816 0.24255 0.93149 0.0
C275 C 0.74596 0.23911 0.87454 0.0
O276 O 0.71611 0.25593 0.90125 0.0
O277 O 0.72029 0.2763 0.88537 0.0
O278 O 0.75878 0.2443 0.91278 0.0
O279 O 0.74962 0.26505 0.90133 0.0
Co280 Co 0.78394 0.73455 0.90143 0.0
O281 O 0.768 0.73159 0.91652 0.0
O282 O 0.79323 0.73199 0.92159 0.0
C283 C 0.77256 0.75507 0.88989 0.0
O284 O 0.80371 0.73798 0.88902 0.0
Co285 Co 0.77747 0.73213 0.86611 0.0
O286 O 0.79646 0.74501 0.86503 0.0
C287 C 0.78235 0.70362 0.88487 0.0
C288 C 0.77906 0.73127 0.92672 0.0
C289 C 0.80658 0.74406 0.87573 0.0
O290 O 0.7847 0.71156 0.89727 0.0
O291 O 0.77893 0.70961 0.87171 0.0
O292 O 0.78077 0.75694 0.90236 0.0
O293 O 0.77057 0.74089 0.88549 0.0
Co294 Co 0.72526 0.77144 0.09347 0.0
O295 O 0.72517 0.7622 0.07342 0.0
O296 O 0.72173 0.78733 0.07808 0.0
C297 C 0.74687 0.75989 0.10239 0.0
O298 O 0.72509 0.78492 0.1128 0.0
Co299 Co 0.72081 0.75003 0.12214 0.0
O300 O 0.72447 0.76949 0.13389 0.0
C301 C 0.6944 0.75674 0.1018 0.0
C302 C 0.72282 0.77607 0.0681 0.0
C303 C 0.72524 0.78284 0.12758 0.0
O304 O 0.70231 0.76755 0.0953 0.0
O305 O 0.70025 0.74724 0.11159 0.0
O306 O 0.74785 0.77203 0.09356 0.0
O307 O 0.73313 0.7541 0.10387 0.0
Co308 Co 0.23956 0.73118 0.0883 0.0
O309 O 0.2457 0.72944 0.06712 0.0
O310 O 0.22264 0.72261 0.07645 0.0
C311 C 0.24761 0.75561 0.09229 0.0
O312 O 0.22902 0.73179 0.10926 0.0
Co313 Co 0.26446 0.73551 0.1139 0.0
O314 O 0.24616 0.73908 0.1275 0.0
C315 C 0.26012 0.70485 0.09968 0.0
C316 C 0.23184 0.72415 0.06461 0.0
C317 C 0.2324 0.73575 0.12323 0.0
O318 O 0.24794 0.70989 0.09273 0.0
O319 O 0.26923 0.71359 0.10749 0.0
O320 O 0.23446 0.75291 0.0855 0.0
O321 O 0.2563 0.74359 0.0946 0.0
Co322 Co 0.78459 0.27102 0.10517 0.0
O323 O 0.76558 0.2685 0.09402 0.0
O324 O 0.78891 0.26991 0.08324 0.0
C325 C 0.77985 0.25262 0.12301 0.0
O326 O 0.80674 0.27281 0.11322 0.0
Co327 Co 0.78345 0.28212 0.13944 0.0
O328 O 0.80581 0.27733 0.13894 0.0
C329 C 0.77911 0.30473 0.11416 0.0
C330 C 0.77402 0.26812 0.08159 0.0
C331 C 0.81328 0.27454 0.12652 0.0
O332 O 0.78217 0.2943 0.10397 0.0
O333 O 0.77809 0.30192 0.12869 0.0
O334 O 0.78537 0.24893 0.10952 0.0
O335 O 0.77591 0.26698 0.12472 0.0
Co336 Co 0.59737 0.76868 0.73369 0.0
O337 O 0.57789 0.76889 0.74409 0.0
O338 O 0.58096 0.77002 0.71853 0.0
C339 C 0.60769 0.74833 0.74627 0.0
O340 O 0.61578 0.7679 0.71909 0.0
Co341 Co 0.6272 0.77555 0.75274 0.0
O342 O 0.63757 0.76826 0.7335 0.0
C343 C 0.6054 0.80063 0.74549 0.0
C344 C 0.57169 0.76907 0.73039 0.0
C345 C 0.63057 0.76661 0.72056 0.0
O346 O 0.59875 0.79193 0.73541 0.0
O347 O 0.61585 0.79579 0.75484 0.0
O348 O 0.59806 0.74623 0.73492 0.0
O349 O 0.60907 0.76251 0.75097 0.0
Co350 Co 0.23365 0.60021 0.75657 0.0
O351 O 0.23059 0.58199 0.7688 0.0
O352 O 0.22539 0.58388 0.74368 0.0
C353 C 0.25771 0.60593 0.76466 0.0
O354 O 0.23628 0.61704 0.74018 0.0
Co355 Co 0.2377 0.63194 0.77313 0.0
O356 O 0.24563 0.63811 0.75241 0.0
C357 C 0.20657 0.61826 0.7705 0.0
C358 C 0.22597 0.57535 0.75612 0.0
C359 C 0.24266 0.63055 0.74005 0.0
O360 O 0.21205 0.6076 0.76163 0.0
O361 O 0.21512 0.6283 0.77731 0.0
O362 O 0.25554 0.59534 0.75419 0.0
O363 O 0.24529 0.61092 0.77142 0.0
Co364 Co 0.4006 0.23042 0.72549 0.0
O365 O 0.42155 0.23267 0.73221 0.0
O366 O 0.41432 0.22688 0.70813 0.0
C367 C 0.39164 0.25229 0.73651 0.0
O368 O 0.38005 0.22772 0.71432 0.0
Co369 Co 0.37444 0.22609 0.74979 0.0
O370 O 0.36044 0.22708 0.73154 0.0
C371 C 0.39594 0.20042 0.74322 0.0
C372 C 0.42537 0.22984 0.71795 0.0
C373 C 0.36552 0.22704 0.71766 0.0
O374 O 0.40107 0.2078 0.73132 0.0
O375 O 0.38653 0.20645 0.753 0.0
O376 O 0.39867 0.25279 0.72322 0.0
O377 O 0.39167 0.23895 0.74337 0.0
Co378 Co 0.75718 0.40475 0.73319 0.0
O379 O 0.75845 0.42419 0.74364 0.0
O380 O 0.76012 0.42108 0.71813 0.0
C381 C 0.73581 0.39603 0.74544 0.0
O382 O 0.75579 0.38635 0.71853 0.0
Co383 Co 0.76096 0.37433 0.75231 0.0
O384 O 0.75276 0.3648 0.733 0.0
C385 C 0.78824 0.39356 0.74516 0.0
C386 C 0.75959 0.43039 0.72999 0.0
C387 C 0.75283 0.37179 0.71997 0.0
O388 O 0.78023 0.40165 0.73553 0.0
O389 O 0.78241 0.38321 0.75406 0.0
O390 O 0.7346 0.4056 0.73391 0.0
O391 O 0.74978 0.3936 0.75029 0.0
Co392 Co 0.59102 0.23606 0.26621 0.0
O393 O 0.57399 0.23816 0.25222 0.0
O394 O 0.57239 0.22816 0.27587 0.0
C395 C 0.60084 0.26003 0.26305 0.0
O396 O 0.60635 0.23262 0.28377 0.0
Co397 Co 0.6242 0.23762 0.25189 0.0
O398 O 0.6305 0.23497 0.27387 0.0
C399 C 0.60516 0.21005 0.24705 0.0
C400 C 0.5655 0.23199 0.26298 0.0
C401 C 0.6212 0.23262 0.28514 0.0
O402 O 0.59575 0.21485 0.25756 0.0
O403 O 0.61618 0.21835 0.24161 0.0
O404 O 0.5892 0.25783 0.27235 0.0
O405 O 0.60469 0.24822 0.2547 0.0
Co406 Co 0.76112 0.5993 0.27316 0.0
O407 O 0.76222 0.58397 0.25724 0.0
O408 O 0.76768 0.57982 0.28204 0.0
C409 C 0.7379 0.60895 0.26619 0.0
O410 O 0.7606 0.61239 0.29283 0.0
Co411 Co 0.76004 0.63425 0.26416 0.0
O412 O 0.75229 0.6361 0.28572 0.0
C413 C 0.78935 0.6167 0.26151 0.0
C414 C 0.76649 0.57439 0.268 0.0
C415 C 0.75514 0.6259 0.29603 0.0
O416 O 0.78334 0.60523 0.2689 0.0
O417 O 0.78159 0.62872 0.25749 0.0
O418 O 0.73861 0.59652 0.27469 0.0
O419 O 0.75101 0.61403 0.26111 0.0
Co420 Co 0.39475 0.76527 0.28567 0.0
O421 O 0.41052 0.76943 0.27067 0.0
O422 O 0.41391 0.76969 0.29622 0.0
C423 C 0.38564 0.74374 0.27401 0.0
O424 O 0.38148 0.76101 0.30469 0.0
Co425 Co 0.35986 0.76495 0.27697 0.0
O426 O 0.35852 0.75228 0.2961 0.0
C427 C 0.3762 0.79486 0.28174 0.0
C428 C 0.41981 0.77098 0.28241 0.0
C429 C 0.36852 0.75399 0.30681 0.0
O430 O 0.38874 0.78784 0.28567 0.0
O431 O 0.36382 0.78787 0.27743 0.0
O432 O 0.39772 0.743 0.28295 0.0
O433 O 0.38025 0.75749 0.27148 0.0
Co434 Co 0.23335 0.40537 0.28677 0.0
O435 O 0.23144 0.4258 0.27866 0.0
O436 O 0.22521 0.41891 0.30272 0.0
C437 C 0.25757 0.40113 0.27805 0.0
O438 O 0.23432 0.38529 0.29905 0.0
Co439 Co 0.23732 0.37786 0.2639 0.0
O440 O 0.24187 0.36605 0.28314 0.0
C441 C 0.20689 0.39311 0.26715 0.0
C442 C 0.22639 0.42971 0.29225 0.0
C443 C 0.23866 0.37122 0.29662 0.0
O444 O 0.21182 0.40041 0.27918 0.0
O445 O 0.21568 0.38473 0.2586 0.0
O446 O 0.25535 0.40863 0.29089 0.0
O447 O 0.2452 0.39785 0.27025 0.0
Co448 Co 0.73027 0.59628 0.765 0.0
O449 O 0.73521 0.57479 0.7662 0.0
O450 O 0.71324 0.5853 0.77462 0.0
C451 C 0.73697 0.59914 0.73999 0.0
O452 O 0.72102 0.61793 0.76507 0.0
Co453 Co 0.75595 0.62039 0.75842 0.0
O454 O 0.73828 0.63483 0.75532 0.0
C455 C 0.75367 0.60597 0.7894 0.0
C456 C 0.72158 0.57296 0.77225 0.0
C457 C 0.7247 0.63151 0.7601 0.0
O458 O 0.74062 0.59986 0.78558 0.0
O459 O 0.76217 0.61349 0.77981 0.0
O460 O 0.72342 0.5938 0.74373 0.0
O461 O 0.74655 0.60127 0.75135 0.0
Co462 Co 0.41262 0.72702 0.75983 0.0
O463 O 0.43374 0.73287 0.76268 0.0
O464 O 0.42347 0.71043 0.77019 0.0
C465 C 0.41101 0.73395 0.73475 0.0
O466 O 0.39162 0.71668 0.75849 0.0
Co467 Co 0.38734 0.75112 0.75171 0.0
O468 O 0.37411 0.73264 0.74772 0.0
C469 C 0.39963 0.74935 0.78368 0.0
C470 C 0.43558 0.71929 0.76892 0.0
C471 C 0.37811 0.71936 0.75284 0.0
O472 O 0.40704 0.73692 0.78014 0.0
O473 O 0.39211 0.7574 0.7737 0.0
O474 O 0.41689 0.72065 0.73865 0.0
O475 O 0.40759 0.74316 0.74609 0.0
Co476 Co 0.26165 0.38923 0.76467 0.0
O477 O 0.24669 0.40385 0.75731 0.0
O478 O 0.26948 0.41001 0.76761 0.0
C479 C 0.26058 0.37311 0.74423 0.0
O480 O 0.28015 0.37696 0.77256 0.0
Co481 Co 0.25008 0.35584 0.77189 0.0
O482 O 0.27253 0.35208 0.77532 0.0
C483 C 0.24195 0.38116 0.79276 0.0
C484 C 0.2565 0.4145 0.76131 0.0
C485 C 0.28292 0.36263 0.77566 0.0
O486 O 0.25214 0.38972 0.78606 0.0
O487 O 0.2379 0.36785 0.78763 0.0
O488 O 0.2689 0.38565 0.74354 0.0
O489 O 0.25183 0.37186 0.75631 0.0
Co490 Co 0.59159 0.26248 0.76434 0.0
O491 O 0.57144 0.25339 0.76559 0.0
O492 O 0.57638 0.27858 0.76747 0.0
C493 C 0.59947 0.24979 0.74292 0.0
O494 O 0.61079 0.27605 0.76305 0.0
Co495 Co 0.62101 0.24197 0.76791 0.0
O496 O 0.63191 0.26094 0.76069 0.0
C497 C 0.60298 0.25083 0.79562 0.0
C498 C 0.56623 0.26745 0.76688 0.0
C499 C 0.62541 0.27422 0.76073 0.0
O500 O 0.59459 0.25996 0.78734 0.0
O501 O 0.61312 0.24165 0.78983 0.0
O502 O 0.59065 0.26192 0.74182 0.0
O503 O 0.60172 0.24472 0.75686 0.0
Co504 Co 0.73274 0.3941 0.22445 0.0
O505 O 0.75028 0.40761 0.22533 0.0
O506 O 0.72582 0.41534 0.22345 0.0
C507 C 0.73972 0.37875 0.24429 0.0
O508 O 0.71181 0.38322 0.22429 0.0
Co509 Co 0.73826 0.35955 0.21595 0.0
O510 O 0.716 0.35757 0.22127 0.0
C511 C 0.7415 0.38361 0.19221 0.0
C512 C 0.74043 0.41894 0.22477 0.0
C513 C 0.70707 0.36908 0.22377 0.0
O514 O 0.73447 0.39324 0.20113 0.0
O515 O 0.74573 0.37009 0.19661 0.0
O516 O 0.73299 0.39196 0.24687 0.0
O517 O 0.74364 0.37616 0.23005 0.0
Co518 Co 0.59159 0.73493 0.23153 0.0
O519 O 0.57221 0.74552 0.23191 0.0
O520 O 0.57518 0.72026 0.22747 0.0
C521 C 0.60154 0.74487 0.2535 0.0
O522 O 0.60984 0.72015 0.23084 0.0
Co523 Co 0.62168 0.75438 0.2277 0.0
O524 O 0.63189 0.73411 0.2318 0.0
C525 C 0.60015 0.75099 0.20169 0.0
C526 C 0.566 0.73212 0.22902 0.0
C527 C 0.62468 0.72118 0.23188 0.0
O528 O 0.59362 0.73963 0.20875 0.0
O529 O 0.61043 0.75965 0.20799 0.0
O530 O 0.59181 0.73339 0.25408 0.0
O531 O 0.60322 0.75115 0.23999 0.0
Co532 Co 0.25659 0.60063 0.23809 0.0
O533 O 0.2442 0.58234 0.23925 0.0
O534 O 0.26979 0.58263 0.23636 0.0
C535 C 0.24639 0.61266 0.25886 0.0
O536 O 0.27307 0.61741 0.23703 0.0
Co537 Co 0.24028 0.63204 0.23141 0.0
O538 O 0.26129 0.64065 0.23513 0.0
C539 C 0.24531 0.60994 0.20595 0.0
C540 C 0.2571 0.57469 0.23828 0.0
C541 C 0.27344 0.63232 0.23643 0.0
O542 O 0.25369 0.60151 0.21495 0.0
O543 O 0.23764 0.62172 0.21071 0.0
O544 O 0.25699 0.60213 0.26051 0.0
O545 O 0.24094 0.6142 0.24496 0.0
Co546 Co 0.38346 0.2686 0.22893 0.0
O547 O 0.39643 0.25053 0.22912 0.0
O548 O 0.40491 0.27476 0.22791 0.0
C549 C 0.36814 0.2613 0.24874 0.0
O550 O 0.37366 0.29011 0.2295 0.0
Co551 Co 0.34823 0.2657 0.2217 0.0
O552 O 0.34768 0.28768 0.22803 0.0
C553 C 0.37092 0.26519 0.19608 0.0
C554 C 0.40808 0.26004 0.22881 0.0
C555 C 0.35987 0.29581 0.22984 0.0
O556 O 0.38216 0.2677 0.20554 0.0
O557 O 0.35685 0.26324 0.20033 0.0
O558 O 0.38153 0.26763 0.25137 0.0
O559 O 0.36512 0.25818 0.23439 0.0
Co560 Co 0.75989 0.71314 0.59182 0.0
O561 O 0.76119 0.73001 0.5775 0.0
O562 O 0.7624 0.7051 0.57109 0.0
C563 C 0.73898 0.72216 0.60455 0.0
O564 O 0.75827 0.69266 0.60343 0.0
Co565 Co 0.76329 0.71897 0.62734 0.0
O566 O 0.75281 0.69847 0.62827 0.0
C567 C 0.79085 0.7196 0.60688 0.0
C568 C 0.76193 0.71955 0.56674 0.0
C569 C 0.75352 0.68888 0.61704 0.0
O570 O 0.78303 0.71409 0.59542 0.0
O571 O 0.78488 0.7234 0.61993 0.0
O572 O 0.73726 0.71457 0.59168 0.0
O573 O 0.7531 0.72514 0.60846 0.0
Co574 Co 0.75974 0.26209 0.4024 0.0
O575 O 0.76066 0.25619 0.42368 0.0
O576 O 0.76489 0.28002 0.41488 0.0
C577 C 0.73686 0.25076 0.3969 0.0
O578 O 0.75923 0.27225 0.38117 0.0
Co579 Co 0.76046 0.23611 0.37732 0.0
O580 O 0.75627 0.25368 0.36304 0.0
C581 C 0.78913 0.24475 0.39365 0.0
C582 C 0.76352 0.27065 0.42662 0.0
C583 C 0.75722 0.26789 0.36704 0.0
O584 O 0.78229 0.2566 0.39958 0.0
O585 O 0.78199 0.23427 0.38593 0.0
O586 O 0.7373 0.26419 0.40363 0.0
O587 O 0.7501 0.24385 0.39555 0.0
Co588 Co 0.73088 0.76935 0.40114 0.0
O589 O 0.73824 0.77239 0.42178 0.0
O590 O 0.71442 0.77794 0.41368 0.0
C591 C 0.73989 0.74503 0.39836 0.0
O592 O 0.7191 0.76723 0.38086 0.0
Co593 Co 0.75424 0.76414 0.37431 0.0
O594 O 0.7353 0.75884 0.36225 0.0
C595 C 0.75088 0.7951 0.3883 0.0
C596 C 0.72438 0.77726 0.42498 0.0
C597 C 0.72172 0.76217 0.36708 0.0
O598 O 0.7385 0.7906 0.39527 0.0
O599 O 0.75971 0.78591 0.38068 0.0
O600 O 0.72684 0.74755 0.40542 0.0
O601 O 0.74771 0.75726 0.39464 0.0
Co602 Co 0.22207 0.73557 0.41212 0.0
O603 O 0.21988 0.74341 0.43267 0.0
O604 O 0.2118 0.7202 0.42483 0.0
C605 C 0.24718 0.74186 0.40886 0.0
O606 O 0.22288 0.72365 0.39181 0.0
Co607 Co 0.22886 0.75901 0.38561 0.0
O608 O 0.23055 0.73991 0.37284 0.0
C609 C 0.1978 0.75764 0.39926 0.0
C610 C 0.21336 0.73027 0.43595 0.0
C611 C 0.22674 0.72644 0.37766 0.0
O612 O 0.2016 0.74504 0.40624 0.0
O613 O 0.20751 0.76603 0.3918 0.0
O614 O 0.24337 0.72936 0.41632 0.0
O615 O 0.23579 0.75099 0.40538 0.0
Co616 Co 0.26916 0.22821 0.41343 0.0
O617 O 0.26733 0.22962 0.43539 0.0
O618 O 0.2886 0.22226 0.42282 0.0
C619 C 0.25936 0.25147 0.40748 0.0
O620 O 0.27538 0.22625 0.39084 0.0
Co621 Co 0.23938 0.2277 0.39325 0.0
O622 O 0.25435 0.23073 0.37601 0.0
C623 C 0.24861 0.19956 0.41009 0.0
C624 C 0.28183 0.22562 0.43586 0.0
C625 C 0.2689 0.22869 0.37762 0.0
O626 O 0.26137 0.20625 0.41391 0.0
O627 O 0.23766 0.20659 0.40293 0.0
O628 O 0.2736 0.2501 0.41209 0.0
O629 O 0.25085 0.23915 0.40884 0.0
Co630 Co 0.23665 0.25938 0.58647 0.0
O631 O 0.23794 0.25417 0.56497 0.0
O632 O 0.23588 0.2781 0.57425 0.0
C633 C 0.25669 0.24499 0.59491 0.0
O634 O 0.23585 0.26913 0.60787 0.0
Co635 Co 0.22854 0.23388 0.6106 0.0
O636 O 0.23483 0.2501 0.62568 0.0
C637 C 0.20377 0.24722 0.59128 0.0
C638 C 0.23777 0.269 0.56239 0.0
C639 C 0.23633 0.26434 0.62199 0.0
O640 O 0.21338 0.25733 0.586 0.0
O641 O 0.20788 0.236 0.60009 0.0
O642 O 0.25901 0.25826 0.58827 0.0
O643 O 0.24259 0.23984 0.59417 0.0
Co644 Co 0.72518 0.23659 0.59231 0.0
O645 O 0.73303 0.23766 0.57166 0.0
O646 O 0.70922 0.23009 0.578 0.0
C647 C 0.73322 0.26023 0.59992 0.0
O648 O 0.71295 0.23462 0.61234 0.0
Co649 Co 0.748 0.23747 0.62019 0.0
O650 O 0.72879 0.2379 0.63285 0.0
C651 C 0.74503 0.20897 0.60153 0.0
C652 C 0.71937 0.23316 0.56729 0.0
C653 C 0.71537 0.23579 0.62702 0.0
O654 O 0.73322 0.21472 0.59445 0.0
O655 O 0.75339 0.21683 0.61096 0.0
O656 O 0.72052 0.25869 0.592 0.0
O657 O 0.74143 0.24779 0.60142 0.0
Co658 Co 0.28098 0.75574 0.60394 0.0
O659 O 0.26175 0.75867 0.59325 0.0
O660 O 0.28498 0.75886 0.58217 0.0
C661 C 0.27294 0.73486 0.61737 0.0
O662 O 0.30323 0.75252 0.61121 0.0
Co663 Co 0.28299 0.75761 0.63976 0.0
O664 O 0.30197 0.74518 0.63614 0.0
C665 C 0.28153 0.7865 0.621 0.0
C666 C 0.26997 0.75954 0.5807 0.0
C667 C 0.30929 0.7464 0.62338 0.0
O668 O 0.28223 0.77869 0.6083 0.0
O669 O 0.28095 0.78016 0.63443 0.0
O670 O 0.27807 0.73329 0.60331 0.0
O671 O 0.27189 0.74891 0.62241 0.0
H672 H 0.95207 0.22911 0.29173 0.0
H673 H 0.98002 0.23361 0.29028 0.0
H674 H 0.9829 0.2025 0.25121 0.0
H675 H 0.9551 0.19738 0.25325 0.0
H676 H 0.0106 0.20446 0.2651 0.0
H677 H 0.97227 0.23965 0.24544 0.0
H678 H 0.94906 0.25628 0.24704 0.0
H679 H 0.97135 0.28447 0.2815 0.0
H680 H 0.99464 0.26785 0.28024 0.0
H681 H 0.05896 0.24905 0.21344 0.0
H682 H 0.03503 0.23845 0.22461 0.0
H683 H 0.04777 0.25657 0.26941 0.0
H684 H 0.07195 0.26678 0.25846 0.0
H685 H 0.01357 0.26104 0.25467 0.0
H686 H 0.05394 0.22455 0.27068 0.0
H687 H 0.07631 0.20763 0.26511 0.0
H688 H 0.0489 0.18172 0.2326 0.0
H689 H 0.02644 0.19867 0.2378 0.0
C690 C 0.95889 0.22248 0.28352 0.0
C691 C 0.95159 0.21291 0.27261 0.0
C692 C 0.97481 0.22518 0.28257 0.0
C693 C 0.98339 0.21883 0.27027 0.0
C694 C 0.97647 0.20762 0.26071 0.0
C695 C 0.9606 0.20462 0.26192 0.0
C696 C 0.99816 0.22613 0.26543 0.0
C697 C 0.01126 0.21683 0.2629 0.0
C698 C 0.99897 0.24226 0.26226 0.0
C699 C 0.98511 0.25242 0.26288 0.0
C700 C 0.97218 0.24935 0.25341 0.0
C701 C 0.95902 0.25877 0.25426 0.0
C702 C 0.95871 0.27139 0.2644 0.0
C703 C 0.9716 0.27466 0.27368 0.0
C704 C 0.98478 0.26526 0.2729 0.0
C705 C 0.05652 0.25099 0.2256 0.0
C706 C 0.06725 0.25871 0.23511 0.0
C707 C 0.04296 0.24485 0.23196 0.0
C708 C 0.03985 0.24662 0.24782 0.0
C709 C 0.05011 0.25503 0.25717 0.0
C710 C 0.06384 0.26087 0.2509 0.0
C711 C 0.02597 0.23942 0.25466 0.0
C712 C 0.01298 0.24875 0.25729 0.0
C713 C 0.02517 0.2233 0.25747 0.0
C714 C 0.03858 0.21298 0.2545 0.0
C715 C 0.05274 0.21534 0.26223 0.0
C716 C 0.06542 0.20573 0.25917 0.0
C717 C 0.06404 0.19364 0.24848 0.0
C718 C 0.04996 0.1911 0.24087 0.0
C719 C 0.03725 0.2007 0.24388 0.0
H720 H 0.07387 0.1862 0.24612 0.0
H721 H 0.94851 0.27866 0.26505 0.0
H722 H 0.75637 0.96095 0.26822 0.0
H723 H 0.75675 0.98499 0.25337 0.0
H724 H 0.79773 0.96968 0.22921 0.0
H725 H 0.79756 0.94556 0.24432 0.0
H726 H 0.7882 0.00779 0.23718 0.0
H727 H 0.77667 0.96075 0.20766 0.0
H728 H 0.76679 0.9339 0.20707 0.0
H729 H 0.72229 0.94968 0.2228 0.0
H730 H 0.732 0.97659 0.22376 0.0
H731 H 0.74977 0.06339 0.19359 0.0
H732 H 0.76296 0.03833 0.19157 0.0
H733 H 0.73007 0.01855 0.22362 0.0
H734 H 0.71727 0.04363 0.22604 0.0
H735 H 0.74376 0.99638 0.20231 0.0
H736 H 0.75751 0.03845 0.23997 0.0
H737 H 0.76589 0.06529 0.2453 0.0
H738 H 0.80539 0.05909 0.21564 0.0
H739 H 0.79713 0.0322 0.21007 0.0
C740 C 0.76593 0.96307 0.26035 0.0
C741 C 0.77682 0.95143 0.25724 0.0
C742 C 0.76615 0.97678 0.25188 0.0
C743 C 0.77712 0.97888 0.24007 0.0
C744 C 0.78922 0.96819 0.23832 0.0
C745 C 0.78912 0.95447 0.24699 0.0
C746 C 0.77339 0.99008 0.22775 0.0
C747 C 0.77903 0.00523 0.22896 0.0
C748 C 0.76126 0.98666 0.21725 0.0
C749 C 0.75507 0.97066 0.21578 0.0
C750 C 0.76478 0.95848 0.21099 0.0
C751 C 0.75922 0.94325 0.21062 0.0
C752 C 0.74392 0.94008 0.2149 0.0
C753 C 0.73413 0.95215 0.21947 0.0
C754 C 0.73964 0.9674 0.21991 0.0
C755 C 0.74479 0.05342 0.19941 0.0
C756 C 0.73261 0.05532 0.21004 0.0
C757 C 0.7524 0.03916 0.19831 0.0
C758 C 0.74761 0.02672 0.20764 0.0
C759 C 0.73391 0.02803 0.21632 0.0
C760 C 0.72656 0.04233 0.21768 0.0
C761 C 0.75847 0.01418 0.21179 0.0
C762 C 0.75385 0.9988 0.20942 0.0
C763 C 0.77163 0.01738 0.22112 0.0
C764 C 0.77664 0.03344 0.22451 0.0
C765 C 0.76794 0.04286 0.23455 0.0
C766 C 0.77266 0.05806 0.2376 0.0
C767 C 0.78613 0.06392 0.23077 0.0
C768 C 0.79493 0.05455 0.22089 0.0
C769 C 0.79024 0.03933 0.21778 0.0
H770 H 0.78978 0.07568 0.23316 0.0
H771 H 0.73966 0.92828 0.21466 0.0
H772 H 0.05713 0.7823 0.23927 0.0
H773 H 0.03118 0.77762 0.22869 0.0
H774 H 0.02812 0.73523 0.25518 0.0
H775 H 0.05423 0.73954 0.26516 0.0
H776 H 0.02201 0.72953 0.2263 0.0
H777 H 0.00614 0.76874 0.26323 0.0
H778 H 0.00627 0.79458 0.27547 0.0
H779 H 0.99414 0.81555 0.23198 0.0
H780 H 0.99412 0.78983 0.21943 0.0
H781 H 0.94303 0.71522 0.2398 0.0
H782 H 0.97086 0.7203 0.23836 0.0
H783 H 0.96353 0.74969 0.19854 0.0
H784 H 0.93559 0.7441 0.19963 0.0
H785 H 0.97611 0.7641 0.22668 0.0
H786 H 0.98657 0.72262 0.19206 0.0
H787 H 0.98507 0.69603 0.18171 0.0
H788 H 0.00609 0.67838 0.22325 0.0
H789 H 0.00751 0.70484 0.23396 0.0
C790 C 0.05068 0.77224 0.24315 0.0
C791 C 0.05758 0.76123 0.25295 0.0
C792 C 0.03591 0.76954 0.23706 0.0
C793 C 0.02779 0.75599 0.24103 0.0
C794 C 0.03428 0.74564 0.25178 0.0
C795 C 0.04911 0.74816 0.25758 0.0
C796 C 0.01307 0.75183 0.23328 0.0
C797 C 0.01194 0.73707 0.22646 0.0
C798 C 0.00017 0.76193 0.23284 0.0
C799 C 0.00035 0.7774 0.24034 0.0
C800 C 0.00366 0.77888 0.25624 0.0
C801 C 0.00368 0.7935 0.26325 0.0
C802 C 0.00028 0.80671 0.2545 0.0
C803 C 0.99682 0.80532 0.23873 0.0
C804 C 0.9968 0.79073 0.23167 0.0
C805 C 0.94749 0.72217 0.23033 0.0
C806 C 0.93736 0.72925 0.21979 0.0
C807 C 0.96333 0.72507 0.2295 0.0
C808 C 0.96915 0.73538 0.21836 0.0
C809 C 0.95918 0.74162 0.20713 0.0
C810 C 0.94331 0.73836 0.2077 0.0
C811 C 0.98491 0.74156 0.22048 0.0
C812 C 0.9863 0.75673 0.22618 0.0
C813 C 0.99796 0.73173 0.22019 0.0
C814 C 0.99709 0.71575 0.21384 0.0
C815 C 0.99076 0.71307 0.19905 0.0
C816 C 0.98995 0.69801 0.1931 0.0
C817 C 0.99547 0.68552 0.20182 0.0
C818 C 0.00182 0.68807 0.2165 0.0
C819 C 0.00266 0.7031 0.2225 0.0
H820 H 0.99483 0.67387 0.1972 0.0
H821 H 0.00028 0.81801 0.25994 0.0
H822 H 0.25248 0.94963 0.19722 0.0
H823 H 0.2463 0.97671 0.20329 0.0
H824 H 0.27743 0.97485 0.24245 0.0
H825 H 0.28342 0.94795 0.23646 0.0
H826 H 0.23141 0.98053 0.23054 0.0
H827 H 0.28778 0.00961 0.25443 0.0
H828 H 0.31499 0.01325 0.24651 0.0
H829 H 0.30219 0.00712 0.1988 0.0
H830 H 0.27486 0.00367 0.20639 0.0
H831 H 0.24888 0.04526 0.29206 0.0
H832 H 0.25209 0.02036 0.27904 0.0
H833 H 0.21581 0.03252 0.24681 0.0
H834 H 0.21222 0.05722 0.26021 0.0
H835 H 0.26279 0.02455 0.24996 0.0
H836 H 0.20602 0.99867 0.22605 0.0
H837 H 0.17887 0.99445 0.23401 0.0
H838 H 0.19276 0.99361 0.28181 0.0
H839 H 0.22 0.99761 0.27413 0.0
C840 C 0.2587 0.95538 0.2065 0.0
C841 C 0.26842 0.9469 0.2164 0.0
C842 C 0.25504 0.97075 0.21007 0.0
C843 C 0.26129 0.97772 0.22339 0.0
C844 C 0.27258 0.96979 0.23202 0.0
C845 C 0.27607 0.95443 0.22857 0.0
C846 C 0.25389 0.99151 0.23033 0.0
C847 C 0.23815 0.99041 0.23444 0.0
C848 C 0.2628 0.00414 0.2357 0.0
C849 C 0.27924 0.00631 0.23101 0.0
C850 C 0.29073 0.00914 0.24224 0.0
C851 C 0.30619 0.01114 0.2378 0.0
C852 C 0.31032 0.01039 0.22216 0.0
C853 C 0.29899 0.00765 0.21091 0.0
C854 C 0.28351 0.00564 0.21528 0.0
C855 C 0.24091 0.04215 0.28285 0.0
C856 C 0.23043 0.05309 0.27699 0.0
C857 C 0.24287 0.02803 0.2753 0.0
C858 C 0.23448 0.02483 0.26173 0.0
C859 C 0.22241 0.03478 0.25725 0.0
C860 C 0.22027 0.04885 0.26501 0.0
C861 C 0.24055 0.01313 0.25079 0.0
C862 C 0.25599 0.01479 0.24585 0.0
C863 C 0.23137 0.00104 0.24471 0.0
C864 C 0.21503 0.99866 0.24951 0.0
C865 C 0.20328 0.99757 0.23826 0.0
C866 C 0.18788 0.99521 0.24272 0.0
C867 C 0.18409 0.99383 0.25841 0.0
C868 C 0.1957 0.99477 0.26967 0.0
C869 C 0.21112 0.99712 0.26527 0.0
H870 H 0.17216 0.99199 0.26184 0.0
H871 H 0.32229 0.01195 0.21876 0.0
H872 H 0.94089 0.79978 0.74028 0.0
H873 H 0.9617 0.8024 0.75931 0.0
H874 H 0.98591 0.76426 0.738 0.0
H875 H 0.96497 0.7613 0.71927 0.0
H876 H 0.96515 0.76574 0.77307 0.0
H877 H 0.00991 0.78205 0.73763 0.0
H878 H 0.02184 0.80228 0.72126 0.0
H879 H 0.01618 0.83556 0.75787 0.0
H880 H 0.00408 0.8155 0.77437 0.0
H881 H 0.02946 0.72202 0.77779 0.0
H882 H 0.00503 0.73599 0.77838 0.0
H883 H 0.02541 0.77053 0.80831 0.0
H884 H 0.04985 0.75617 0.80803 0.0
H885 H 0.02005 0.78144 0.77943 0.0
H886 H 0.98949 0.75765 0.81728 0.0
H887 H 0.97885 0.73645 0.83319 0.0
H888 H 0.95667 0.71706 0.79308 0.0
H889 H 0.96743 0.73791 0.77683 0.0
C890 C 0.95116 0.79268 0.73895 0.0
C891 C 0.95126 0.78014 0.7285 0.0
C892 C 0.96298 0.79412 0.74996 0.0
C893 C 0.97518 0.78341 0.75011 0.0
C894 C 0.97659 0.77269 0.73797 0.0
C895 C 0.96468 0.77107 0.72717 0.0
C896 C 0.98364 0.78019 0.76458 0.0
C897 C 0.97711 0.76928 0.77475 0.0
C898 C 0.99887 0.78541 0.76705 0.0
C899 C 0.00594 0.7974 0.7571 0.0
C900 C 0.01108 0.79373 0.7421 0.0
C901 C 0.01791 0.80514 0.73282 0.0
C902 C 0.01972 0.82021 0.7385 0.0
C903 C 0.01473 0.82389 0.75347 0.0
C904 C 0.00788 0.81252 0.76278 0.0
C905 C 0.02836 0.73193 0.78544 0.0
C906 C 0.04146 0.73814 0.79273 0.0
C907 C 0.01438 0.74 0.78575 0.0
C908 C 0.01348 0.75449 0.79317 0.0
C909 C 0.02588 0.7594 0.8025 0.0
C910 C 0.0398 0.7511 0.80244 0.0
C911 C 0.00204 0.76581 0.78722 0.0
C912 C 0.00789 0.77834 0.77854 0.0
C913 C 0.98617 0.76192 0.78608 0.0
C914 C 0.9793 0.74943 0.79581 0.0
C915 C 0.9824 0.74884 0.81181 0.0
C916 C 0.97636 0.73686 0.8209 0.0
C917 C 0.96714 0.7254 0.81414 0.0
C918 C 0.96383 0.72595 0.7983 0.0
C919 C 0.96987 0.73789 0.78914 0.0
H920 H 0.96254 0.71609 0.82119 0.0
H921 H 0.02502 0.82903 0.73131 0.0
H922 H 0.24661 0.05916 0.78842 0.0
H923 H 0.23742 0.03324 0.78143 0.0
H924 H 0.27918 0.02569 0.75489 0.0
H925 H 0.28798 0.05181 0.76138 0.0
H926 H 0.25467 0.02437 0.73702 0.0
H927 H 0.26878 0.00236 0.78618 0.0
H928 H 0.26956 0.00019 0.81466 0.0
H929 H 0.21999 0.99582 0.81595 0.0
H930 H 0.21888 0.99818 0.78747 0.0
H931 H 0.24657 0.94553 0.71569 0.0
H932 H 0.25325 0.97148 0.72483 0.0
H933 H 0.20691 0.97721 0.74275 0.0
H934 H 0.20007 0.95124 0.73333 0.0
H935 H 0.23089 0.98026 0.76515 0.0
H936 H 0.21734 0.00073 0.71563 0.0
H937 H 0.21701 0.00235 0.6871 0.0
H938 H 0.26633 0.00912 0.68664 0.0
H939 H 0.267 0.00733 0.71517 0.0
C940 C 0.25416 0.0516 0.78182 0.0
C941 C 0.26799 0.0573 0.77547 0.0
C942 C 0.24887 0.03682 0.77774 0.0
C943 C 0.25753 0.02761 0.76746 0.0
C944 C 0.27226 0.03267 0.76271 0.0
C945 C 0.27738 0.04749 0.76656 0.0
C946 C 0.25025 0.01427 0.75949 0.0
C947 C 0.24971 0.0146 0.7432 0.0
C948 C 0.24311 0.00192 0.76755 0.0
C949 C 0.24374 0.00063 0.78469 0.0
C950 C 0.25803 0.0011 0.79254 0.0
C951 C 0.25853 -0.00021 0.80869 0.0
C952 C 0.24483 0.99791 0.81712 0.0
C953 C 0.23059 0.9973 0.80941 0.0
C954 C 0.23002 0.99861 0.79326 0.0
C955 C 0.23764 0.95258 0.72102 0.0
C956 C 0.22283 0.94647 0.72382 0.0
C957 C 0.24147 0.96736 0.72628 0.0
C958 C 0.23059 0.97615 0.73456 0.0
C959 C 0.21544 0.97053 0.73639 0.0
C960 C 0.21151 0.95581 0.73086 0.0
C961 C 0.23576 0.99024 0.74277 0.0
C962 C 0.23582 0.9901 0.75905 0.0
C963 C 0.24256 0.00275 0.73473 0.0
C964 C 0.24223 0.00377 0.71755 0.0
C965 C 0.22814 0.00242 0.70944 0.0
C966 C 0.22789 0.00341 0.69327 0.0
C967 C 0.24164 0.0058 0.68506 0.0
C968 C 0.25568 0.00725 0.69302 0.0
C969 C 0.256 0.00628 0.70919 0.0
H970 H 0.24142 0.00657 0.67254 0.0
H971 H 0.24525 0.99689 0.82962 0.0
H972 H 0.06075 0.26197 0.71448 0.0
H973 H 0.03496 0.26654 0.72526 0.0
H974 H 0.03803 0.22364 0.75086 0.0
H975 H 0.06357 0.21866 0.73935 0.0
H976 H 0.0085 0.2298 0.74379 0.0
H977 H 0.05012 0.25716 0.76735 0.0
H978 H 0.07355 0.27352 0.76794 0.0
H979 H 0.04774 0.31161 0.74893 0.0
H980 H 0.0242 0.29539 0.74797 0.0
H981 H 0.95112 0.25653 0.79463 0.0
H982 H 0.97883 0.25212 0.78999 0.0
H983 H 0.9772 0.2832 0.75085 0.0
H984 H 0.94946 0.28714 0.75511 0.0
H985 H 0.00743 0.28143 0.76938 0.0
H986 H 0.96743 0.25057 0.74185 0.0
H987 H 0.94404 0.23413 0.74302 0.0
H988 H 0.96791 0.20193 0.77256 0.0
H989 H 0.99134 0.21839 0.77181 0.0
C990 C 0.05559 0.25322 0.72187 0.0
C991 C 0.064 0.24001 0.72616 0.0
C992 C 0.04097 0.2559 0.72816 0.0
C993 C 0.03489 0.24571 0.73931 0.0
C994 C 0.04262 0.23173 0.74242 0.0
C995 C 0.05713 0.22884 0.73578 0.0
C996 C 0.02147 0.25058 0.74881 0.0
C997 C 0.0084 0.24096 0.74959 0.0
C998 C 0.02138 0.26508 0.7566 0.0
C999 C 0.03541 0.27502 0.75751 0.0
C1000 C 0.04945 0.26901 0.76323 0.0
C1001 C 0.06275 0.27825 0.76363 0.0
C1002 C 0.06214 0.29359 0.75846 0.0
C1003 C 0.0482 0.29973 0.75293 0.0
C1004 C 0.03486 0.29052 0.75247 0.0
C1005 C 0.9569 0.26302 0.78557 0.0
C1006 C 0.94833 0.27213 0.77517 0.0
C1007 C 0.97267 0.26045 0.7829 0.0
C1008 C 0.9799 0.26724 0.77001 0.0
C1009 C 0.97176 0.27793 0.76088 0.0
C1010 C 0.95596 0.28019 0.76331 0.0
C1011 C 0.9945 0.26084 0.76394 0.0
C1012 C 0.00775 0.27016 0.76381 0.0
C1013 C 0.99487 0.24597 0.75702 0.0
C1014 C 0.98105 0.23576 0.75689 0.0
C1015 C 0.96765 0.24002 0.74865 0.0
C1016 C 0.95439 0.23071 0.74924 0.0
C1017 C 0.95448 0.21701 0.75789 0.0
C1018 C 0.96786 0.21255 0.76589 0.0
C1019 C 0.98112 0.22187 0.76539 0.0
H1020 H 0.94419 0.20983 0.75836 0.0
H1021 H 0.07245 0.30073 0.75875 0.0
H1022 H 0.78088 0.06425 0.74361 0.0
H1023 H 0.77736 0.03693 0.75014 0.0
H1024 H 0.73112 0.03832 0.73088 0.0
H1025 H 0.73431 0.06594 0.72535 0.0
H1026 H 0.72943 0.0258 0.75712 0.0
H1027 H 0.76358 0.01803 0.71381 0.0
H1028 H 0.78718 0.02131 0.698 0.0
H1029 H 0.815 0.00387 0.73542 0.0
H1030 H 0.79158 0.00066 0.75152 0.0
H1031 H 0.72387 0.94346 0.74008 0.0
H1032 H 0.72684 0.97166 0.73888 0.0
H1033 H 0.75365 0.97074 0.78108 0.0
H1034 H 0.75012 0.94245 0.7827 0.0
H1035 H 0.76624 0.98289 0.74675 0.0
H1036 H 0.7297 0.98916 0.78892 0.0
H1037 H 0.70486 0.98463 0.80232 0.0
H1038 H 0.68015 0.00366 0.76351 0.0
H1039 H 0.70484 0.00808 0.74977 0.0
C1040 C 0.77013 0.05858 0.74044 0.0
C1041 C 0.75786 0.06707 0.73398 0.0
C1042 C 0.76811 0.04297 0.74416 0.0
C1043 C 0.75398 0.03552 0.74097 0.0
C1044 C 0.74207 0.04385 0.7336 0.0
C1045 C 0.74393 0.05955 0.73031 0.0
C1046 C 0.75111 0.01944 0.7463 0.0
C1047 C 0.73745 0.01642 0.75469 0.0
C1048 C 0.76174 0.00723 0.74356 0.0
C1049 C 0.77585 0.00927 0.73393 0.0
C1050 C 0.77475 0.01502 0.71871 0.0
C1051 C 0.78809 0.01684 0.70969 0.0
C1052 C 0.80258 0.01285 0.71572 0.0
C1053 C 0.80377 0.00699 0.73077 0.0
C1054 C 0.79047 0.00515 0.73985 0.0
C1055 C 0.72999 0.94936 0.74933 0.0
C1056 C 0.73678 0.94096 0.76147 0.0
C1057 C 0.73166 0.96539 0.74865 0.0
C1058 C 0.74042 0.97313 0.75991 0.0
C1059 C 0.74672 0.96486 0.77241 0.0
C1060 C 0.74467 0.94881 0.77334 0.0
C1061 C 0.74458 0.98941 0.75723 0.0
C1062 C 0.75842 0.99241 0.7493 0.0
C1063 C 0.73398 0.0015 0.76005 0.0
C1064 C 0.71912 0.99877 0.76825 0.0
C1065 C 0.71896 0.9922 0.78316 0.0
C1066 C 0.70491 0.9897 0.79084 0.0
C1067 C 0.69093 0.99381 0.78375 0.0
C1068 C 0.69098 0.00046 0.76898 0.0
C1069 C 0.705 0.00297 0.76125 0.0
H1070 H 0.68007 0.99188 0.78972 0.0
H1071 H 0.8129 0.01425 0.70871 0.0
H1072 H 0.27717 0.21919 0.03834 0.0
H1073 H 0.26333 0.22243 0.01391 0.0
H1074 H 0.23265 0.18493 0.02613 0.0
H1075 H 0.24664 0.18157 0.05066 0.0
H1076 H 0.24509 0.19751 0.98826 0.0
H1077 H 0.21251 0.20553 0.03493 0.0
H1078 H 0.20864 0.21326 0.06222 0.0
H1079 H 0.22952 0.25747 0.05292 0.0
H1080 H 0.23374 0.24989 0.02564 0.0
H1081 H 0.20062 0.24393 0.93773 0.0
H1082 H 0.20094 0.22688 0.96044 0.0
H1083 H 0.23273 0.25801 0.98327 0.0
H1084 H 0.2329 0.2747 0.9604 0.0
H1085 H 0.21178 0.24185 0.00379 0.0
H1086 H 0.24742 0.23371 0.9601 0.0
H1087 H 0.2542 0.22745 0.93303 0.0
H1088 H 0.22959 0.18431 0.9366 0.0
H1089 H 0.22238 0.1905 0.9636 0.0
C1090 C 0.26819 0.21093 0.03532 0.0
C1091 C 0.2629 0.20018 0.04629 0.0
C1092 C 0.26018 0.21289 0.02146 0.0
C1093 C 0.24681 0.20414 0.0185 0.0
C1094 C 0.24293 0.1918 0.02833 0.0
C1095 C 0.25107 0.18976 0.04222 0.0
C1096 C 0.23553 0.21039 0.00733 0.0
C1097 C 0.23726 0.20676 0.99163 0.0
C1098 C 0.22564 0.2227 0.01182 0.0
C1099 C 0.22355 0.22709 0.02831 0.0
C1100 C 0.21645 0.21682 0.03877 0.0
C1101 C 0.21416 0.22119 0.05422 0.0
C1102 C 0.21883 0.23585 0.05929 0.0
C1103 C 0.22591 0.24612 0.04896 0.0
C1104 C 0.22826 0.24179 0.03352 0.0
C1105 C 0.20698 0.24755 0.94794 0.0
C1106 C 0.21677 0.26056 0.94742 0.0
C1107 C 0.20726 0.23773 0.96082 0.0
C1108 C 0.21705 0.24111 0.97335 0.0
C1109 C 0.22512 0.25523 0.97367 0.0
C1110 C 0.22515 0.26481 0.96066 0.0
C1111 C 0.22137 0.22903 0.98466 0.0
C1112 C 0.21867 0.23188 0.0004 0.0
C1113 C 0.23036 0.21603 0.98018 0.0
C1114 C 0.23413 0.21268 0.96376 0.0
C1115 C 0.24323 0.22302 0.95502 0.0
C1116 C 0.2472 0.21946 0.93971 0.0
C1117 C 0.24232 0.20549 0.93311 0.0
C1118 C 0.23333 0.19514 0.94173 0.0
C1119 C 0.22927 0.19868 0.95702 0.0
H1120 H 0.24564 0.2026 0.92137 0.0
H1121 H 0.21688 0.23931 0.07118 0.0
H1122 H 0.24264 0.7843 0.93371 0.0
H1123 H 0.23076 0.7776 0.95862 0.0
H1124 H 0.26268 0.73935 0.96348 0.0
H1125 H 0.27421 0.74573 0.93846 0.0
H1126 H 0.23315 0.72976 0.96481 0.0
H1127 H 0.26373 0.77177 0.98715 0.0
H1128 H 0.27226 0.79893 0.98983 0.0
H1129 H 0.22536 0.81306 0.99872 0.0
H1130 H 0.21653 0.78598 0.99591 0.0
H1131 H 0.24672 0.71012 0.041 0.0
H1132 H 0.24294 0.71612 0.01366 0.0
H1133 H 0.20183 0.74231 0.02496 0.0
H1134 H 0.20537 0.73584 0.05243 0.0
H1135 H 0.22623 0.75996 0.01318 0.0
H1136 H 0.19767 0.71623 0.99776 0.0
H1137 H 0.18992 0.68877 0.99619 0.0
H1138 H 0.23353 0.67737 0.97509 0.0
H1139 H 0.24166 0.7047 0.97674 0.0
C1140 C 0.2475 0.77486 0.94042 0.0
C1141 C 0.25925 0.76545 0.93422 0.0
C1142 C 0.24062 0.77097 0.95457 0.0
C1143 C 0.24567 0.7578 0.96271 0.0
C1144 C 0.25846 0.7494 0.95722 0.0
C1145 C 0.26516 0.75314 0.94304 0.0
C1146 C 0.2369 0.75174 0.97612 0.0
C1147 C 0.23167 0.73632 0.97544 0.0
C1148 C 0.23413 0.76063 0.98958 0.0
C1149 C 0.23944 0.7769 0.99109 0.0
C1150 C 0.25521 0.78069 0.98951 0.0
C1151 C 0.26011 0.79606 0.99109 0.0
C1152 C 0.24935 0.80772 0.99438 0.0
C1153 C 0.23368 0.80402 0.99613 0.0
C1154 C 0.22872 0.78867 0.99455 0.0
C1155 C 0.23641 0.71642 0.03752 0.0
C1156 C 0.22636 0.72258 0.04866 0.0
C1157 C 0.23423 0.71984 0.02191 0.0
C1158 C 0.22215 0.72974 0.01734 0.0
C1159 C 0.21116 0.73459 0.0283 0.0
C1160 C 0.21315 0.73083 0.04393 0.0
C1161 C 0.22351 0.73764 0.00224 0.0
C1162 C 0.22725 0.75349 0.00244 0.0
C1163 C 0.22504 0.72911 0.98838 0.0
C1164 C 0.22028 0.71257 0.9874 0.0
C1165 C 0.20566 0.70786 0.99289 0.0
C1166 C 0.20119 0.69231 0.99196 0.0
C1167 C 0.21122 0.68133 0.98555 0.0
C1168 C 0.22575 0.68589 0.98004 0.0
C1169 C 0.23029 0.70143 0.98093 0.0
H1170 H 0.20773 0.6693 0.98484 0.0
H1171 H 0.25317 0.81961 0.99562 0.0
H1172 H 0.74233 0.22086 0.94887 0.0
H1173 H 0.74402 0.22142 0.97705 0.0
H1174 H 0.70772 0.25594 0.9785 0.0
H1175 H 0.70704 0.25622 0.95016 0.0
H1176 H 0.73075 0.26732 0.99099 0.0
H1177 H 0.70626 0.21895 0.99869 0.0
H1178 H 0.69997 0.19134 0.99484 0.0
H1179 H 0.74645 0.1787 0.0074 0.0
H1180 H 0.75311 0.20624 0.01112 0.0
H1181 H 0.74413 0.27318 0.07327 0.0
H1182 H 0.73148 0.26568 0.04898 0.0
H1183 H 0.77474 0.24721 0.03206 0.0
H1184 H 0.78762 0.25504 0.05623 0.0
H1185 H 0.74425 0.22726 0.02994 0.0
H1186 H 0.76824 0.27725 0.0173 0.0
H1187 H 0.77301 0.30504 0.02208 0.0
H1188 H 0.72409 0.31405 0.01992 0.0
H1189 H 0.71904 0.28625 0.01534 0.0
C1190 C 0.73424 0.22802 0.95529 0.0
C1191 C 0.72461 0.23853 0.94754 0.0
C1192 C 0.73515 0.22832 0.97145 0.0
C1193 C 0.72606 0.23882 0.98 0.0
C1194 C 0.71498 0.24787 0.97218 0.0
C1195 C 0.71448 0.24796 0.95602 0.0
C1196 C 0.73047 0.24276 0.99617 0.0
C1197 C 0.73323 0.25847 -0.00042 0.0
C1198 C 0.73411 0.23133 0.0074 0.0
C1199 C 0.73021 0.21471 0.0051 0.0
C1200 C 0.71518 0.2103 0.00051 0.0
C1201 C 0.71154 0.19465 0.99838 0.0
C1202 C 0.7228 0.18328 0.00085 0.0
C1203 C 0.73773 0.18753 0.00549 0.0
C1204 C 0.74144 0.20316 0.00764 0.0
C1205 C 0.75097 0.26762 0.06432 0.0
C1206 C 0.76685 0.26474 0.06652 0.0
C1207 C 0.74372 0.26328 0.05055 0.0
C1208 C 0.75219 0.25578 0.03893 0.0
C1209 C 0.76805 0.25289 0.04104 0.0
C1210 C 0.7754 0.25751 0.05472 0.0
C1211 C 0.74459 0.25153 0.02427 0.0
C1212 C 0.74134 0.23589 0.02128 0.0
C1213 C 0.7402 0.26297 0.01348 0.0
C1214 C 0.74325 0.27967 0.01619 0.0
C1215 C 0.7585 0.28514 0.01801 0.0
C1216 C 0.76126 0.30089 0.02064 0.0
C1217 C 0.74886 0.3113 0.02136 0.0
C1218 C 0.73368 0.30597 0.0194 0.0
C1219 C 0.73086 0.29022 0.01678 0.0
H1220 H 0.75101 0.32349 0.02339 0.0
H1221 H 0.71996 0.17117 -0.00081 0.0
H1222 H 0.75133 0.72636 0.94065 0.0
H1223 H 0.74295 0.73761 0.96518 0.0
H1224 H 0.78969 0.75276 0.97445 0.0
H1225 H 0.79824 0.74146 0.94981 0.0
H1226 H 0.77181 0.74319 0.00155 0.0
H1227 H 0.76931 0.77766 0.9583 0.0
H1228 H 0.76314 0.78457 0.93125 0.0
H1229 H 0.71471 0.77733 0.94017 0.0
H1230 H 0.72061 0.77004 0.96719 0.0
H1231 H 0.7373 0.79957 0.05281 0.0
H1232 H 0.7472 0.79746 0.02621 0.0
H1233 H 0.72024 0.7559 0.01952 0.0
H1234 H 0.71055 0.75782 0.04599 0.0
H1235 H 0.73286 0.78443 0.99107 0.0
H1236 H 0.75036 0.73195 0.02489 0.0
H1237 H 0.75463 0.72444 0.0522 0.0
H1238 H 0.77386 0.76935 0.06179 0.0
H1239 H 0.76991 0.777 0.03449 0.0
C1240 C 0.75994 0.73163 0.94813 0.0
C1241 C 0.77537 0.73331 0.94323 0.0
C1242 C 0.75512 0.7381 0.96209 0.0
C1243 C 0.76566 0.74635 0.9713 0.0
C1244 C 0.78141 0.74654 0.96734 0.0
C1245 C 0.78627 0.74002 0.95332 0.0
C1246 C 0.75973 0.75617 0.98395 0.0
C1247 C 0.76359 0.75244 -0.00075 0.0
C1248 C 0.74912 0.76835 0.98087 0.0
C1249 C 0.74542 0.77322 0.96476 0.0
C1250 C 0.75735 0.77746 0.95447 0.0
C1251 C 0.7539 0.78144 0.93914 0.0
C1252 C 0.73855 0.78138 0.93399 0.0
C1253 C 0.7266 0.77738 0.94418 0.0
C1254 C 0.72999 0.77333 0.95951 0.0
C1255 C 0.73283 0.79052 0.04533 0.0
C1256 C 0.72341 0.77869 0.05136 0.0
C1257 C 0.73848 0.78934 0.03018 0.0
C1258 C 0.73456 0.77642 0.02112 0.0
C1259 C 0.72335 0.76594 0.02642 0.0
C1260 C 0.71788 0.76701 0.04153 0.0
C1261 C 0.74482 0.77127 0.00854 0.0
C1262 C 0.7416 0.77566 0.99328 0.0
C1263 C 0.75629 0.75996 0.01161 0.0
C1264 C 0.75982 0.75503 0.0277 0.0
C1265 C 0.75568 0.74013 0.0328 0.0
C1266 C 0.75799 0.73587 0.04828 0.0
C1267 C 0.76449 0.74642 0.05873 0.0
C1268 C 0.76882 0.76119 0.05369 0.0
C1269 C 0.76657 0.76548 0.03822 0.0
H1270 H 0.76618 0.74315 0.07073 0.0
H1271 H 0.7359 0.78444 0.92211 0.0
H1272 H 0.55953 0.74934 0.70908 0.0
H1273 H 0.53686 0.73291 0.71398 0.0
H1274 H 0.52523 0.76099 0.7537 0.0
H1275 H 0.54793 0.77718 0.74902 0.0
H1276 H 0.53254 0.73011 0.76078 0.0
H1277 H 0.50176 0.75946 0.72331 0.0
H1278 H 0.49529 0.76941 0.6973 0.0
H1279 H 0.49375 0.7229 0.67961 0.0
H1280 H 0.50043 0.71268 0.7055 0.0
H1281 H 0.45825 0.7331 0.78535 0.0
H1282 H 0.48556 0.73097 0.77883 0.0
H1283 H 0.47563 0.69151 0.74969 0.0
H1284 H 0.44818 0.69342 0.75666 0.0
H1285 H 0.48374 0.71722 0.73338 0.0
H1286 H 0.50644 0.68855 0.77342 0.0
H1287 H 0.5114 0.67907 0.79991 0.0
H1288 H 0.52727 0.72427 0.81343 0.0
H1289 H 0.52219 0.73412 0.78711 0.0
C1290 C 0.55165 0.75247 0.71834 0.0
C1291 C 0.55547 0.76436 0.72881 0.0
C1292 C 0.53883 0.74297 0.72122 0.0
C1293 C 0.5297 0.74555 0.73442 0.0
C1294 C 0.53236 0.7587 0.7436 0.0
C1295 C 0.54519 0.76805 0.74083 0.0
C1296 C 0.51888 0.73363 0.74015 0.0
C1297 C 0.52182 0.72724 0.75484 0.0
C1298 C 0.50552 0.72913 0.73188 0.0
C1299 C 0.50187 0.73532 0.71627 0.0
C1300 C 0.50026 0.75137 0.71383 0.0
C1301 C 0.4965 0.75705 0.69912 0.0
C1302 C 0.49418 0.7468 0.68679 0.0
C1303 C 0.4956 0.73083 0.68916 0.0
C1304 C 0.49938 0.72509 0.70384 0.0
C1305 C 0.46208 0.72334 0.77842 0.0
C1306 C 0.45127 0.71351 0.77138 0.0
C1307 C 0.47771 0.72209 0.77467 0.0
C1308 C 0.48258 0.71119 0.76359 0.0
C1309 C 0.47207 0.69996 0.75827 0.0
C1310 C 0.45643 0.70102 0.76233 0.0
C1311 C 0.49672 0.71477 0.75466 0.0
C1312 C 0.49466 0.71952 0.73919 0.0
C1313 C 0.51086 0.71785 0.76226 0.0
C1314 C 0.51395 0.71207 0.77821 0.0
C1315 C 0.51091 0.6965 0.78205 0.0
C1316 C 0.51376 0.69106 0.79705 0.0
C1317 C 0.51966 0.70105 0.80834 0.0
C1318 C 0.52273 0.71652 0.80466 0.0
C1319 C 0.51991 0.72203 0.78968 0.0
H1320 H 0.52186 0.69681 0.81994 0.0
H1321 H 0.49123 0.75122 0.67543 0.0
H1322 H 0.26671 0.4395 0.77783 0.0
H1323 H 0.25822 0.46655 0.7748 0.0
H1324 H 0.22969 0.45338 0.73592 0.0
H1325 H 0.23768 0.42633 0.73918 0.0
H1326 H 0.25245 0.48318 0.73491 0.0
H1327 H 0.20895 0.45729 0.76051 0.0
H1328 H 0.19815 0.44028 0.7808 0.0
H1329 H 0.2169 0.47002 0.81605 0.0
H1330 H 0.22804 0.48707 0.79594 0.0
H1331 H 0.21807 0.55723 0.73118 0.0
H1332 H 0.21902 0.52885 0.72998 0.0
H1333 H 0.23022 0.5272 0.77874 0.0
H1334 H 0.22863 0.55525 0.78015 0.0
H1335 H 0.21363 0.50347 0.77225 0.0
H1336 H 0.25857 0.52792 0.74944 0.0
H1337 H 0.27234 0.54499 0.73108 0.0
H1338 H 0.25439 0.51867 0.69281 0.0
H1339 H 0.24035 0.50157 0.71096 0.0
C1340 C 0.25876 0.44244 0.76857 0.0
C1341 C 0.25276 0.43091 0.7588 0.0
C1342 C 0.25392 0.45781 0.76687 0.0
C1343 C 0.24332 0.46179 0.75518 0.0
C1344 C 0.23785 0.45042 0.745 0.0
C1345 C 0.24238 0.43503 0.74692 0.0
C1346 C 0.23743 0.47775 0.75405 0.0
C1347 C 0.24375 0.48762 0.74285 0.0
C1348 C 0.22636 0.48343 0.76465 0.0
C1349 C 0.21946 0.47335 0.77673 0.0
C1350 C 0.21089 0.46012 0.77259 0.0
C1351 C 0.20468 0.45049 0.78405 0.0
C1352 C 0.20688 0.45404 0.7997 0.0
C1353 C 0.21523 0.46726 0.80392 0.0
C1354 C 0.22148 0.47692 0.7925 0.0
C1355 C 0.22034 0.55075 0.7417 0.0
C1356 C 0.22353 0.55845 0.7557 0.0
C1357 C 0.22098 0.53457 0.74099 0.0
C1358 C 0.2251 0.52594 0.75419 0.0
C1359 C 0.2271 0.53359 0.76838 0.0
C1360 C 0.22625 0.54968 0.76915 0.0
C1361 C 0.22877 0.50919 0.75317 0.0
C1362 C 0.22208 0.49907 0.76403 0.0
C1363 C 0.2398 0.50338 0.74245 0.0
C1364 C 0.24827 0.5136 0.73153 0.0
C1365 C 0.25748 0.52585 0.7371 0.0
C1366 C 0.26534 0.53551 0.72674 0.0
C1367 C 0.2642 0.53295 0.71078 0.0
C1368 C 0.25523 0.52067 0.70516 0.0
C1369 C 0.24732 0.51099 0.71548 0.0
H1370 H 0.27029 0.54044 0.70277 0.0
H1371 H 0.20207 0.44657 0.80856 0.0
H1372 H 0.45069 0.2145 0.72786 0.0
H1373 H 0.47664 0.22577 0.72907 0.0
H1374 H 0.4615 0.26384 0.70037 0.0
H1375 H 0.43561 0.25221 0.6987 0.0
H1376 H 0.50093 0.24024 0.70994 0.0
H1377 H 0.46916 0.29536 0.72459 0.0
H1378 H 0.44262 0.30462 0.73014 0.0
H1379 H 0.43184 0.26124 0.75209 0.0
H1380 H 0.45839 0.25189 0.74693 0.0
H1381 H 0.55299 0.29278 0.75334 0.0
H1382 H 0.52777 0.29259 0.74019 0.0
H1383 H 0.51729 0.2484 0.76105 0.0
H1384 H 0.54239 0.24842 0.77403 0.0
H1385 H 0.49203 0.28199 0.74868 0.0
H1386 H 0.52102 0.22571 0.72914 0.0
H1387 H 0.54756 0.21545 0.72603 0.0
H1388 H 0.56415 0.26104 0.71485 0.0
H1389 H 0.53767 0.27149 0.71758 0.0
C1390 C 0.45322 0.22473 0.72101 0.0
C1391 C 0.44135 0.2325 0.71314 0.0
C1392 C 0.468 0.23119 0.72172 0.0
C1393 C 0.47084 0.24572 0.71498 0.0
C1394 C 0.45947 0.25259 0.70559 0.0
C1395 C 0.44475 0.24591 0.70458 0.0
C1396 C 0.48397 0.25488 0.72092 0.0
C1397 C 0.49906 0.24964 0.71808 0.0
C1398 C 0.48145 0.2672 0.73151 0.0
C1399 C 0.46566 0.27289 0.73519 0.0
C1400 C 0.46113 0.28785 0.73066 0.0
C1401 C 0.4461 0.29311 0.73375 0.0
C1402 C 0.43553 0.2835 0.74141 0.0
C1403 C 0.44002 0.26866 0.74612 0.0
C1404 C 0.45505 0.26338 0.74313 0.0
C1405 C 0.54496 0.28343 0.75575 0.0
C1406 C 0.54966 0.27046 0.76444 0.0
C1407 C 0.53059 0.28335 0.74821 0.0
C1408 C 0.52092 0.27035 0.74948 0.0
C1409 C 0.52472 0.25847 0.7599 0.0
C1410 C 0.53905 0.25849 0.76729 0.0
C1411 C 0.50891 0.2672 0.73778 0.0
C1412 C 0.49403 0.27332 0.73979 0.0
C1413 C 0.51162 0.25579 0.7263 0.0
C1414 C 0.52738 0.24938 0.72365 0.0
C1415 C 0.5303 0.2335 0.72585 0.0
C1416 C 0.54534 0.22767 0.72419 0.0
C1417 C 0.55754 0.23759 0.72029 0.0
C1418 C 0.5547 0.25336 0.7179 0.0
C1419 C 0.53968 0.25924 0.7195 0.0
H1420 H 0.56919 0.23307 0.71909 0.0
H1421 H 0.42388 0.28757 0.74374 0.0
H1422 H 0.76961 0.45284 0.74928 0.0
H1423 H 0.75683 0.47778 0.75295 0.0
H1424 H 0.72967 0.47017 0.71167 0.0
H1425 H 0.7427 0.44515 0.70778 0.0
H1426 H 0.73779 0.5035 0.7199 0.0
H1427 H 0.71274 0.45834 0.73953 0.0
H1428 H 0.71241 0.43263 0.75203 0.0
H1429 H 0.72976 0.45264 0.79418 0.0
H1430 H 0.73055 0.47842 0.78182 0.0
H1431 H 0.69676 0.5623 0.75658 0.0
H1432 H 0.69516 0.5357 0.74678 0.0
H1433 H 0.73134 0.52197 0.77846 0.0
H1434 H 0.73326 0.54856 0.78787 0.0
H1435 H 0.71015 0.49735 0.7701 0.0
H1436 H 0.74259 0.5392 0.74675 0.0
H1437 H 0.74538 0.56462 0.73389 0.0
H1438 H 0.71348 0.55042 0.6984 0.0
H1439 H 0.71045 0.52494 0.71114 0.0
C1440 C 0.76149 0.45683 0.74057 0.0
C1441 C 0.75698 0.4471 0.72836 0.0
C1442 C 0.75413 0.47102 0.74271 0.0
C1443 C 0.74205 0.47551 0.7328 0.0
C1444 C 0.73892 0.46677 0.71946 0.0
C1445 C 0.74643 0.45256 0.71721 0.0
C1446 C 0.7313 0.48769 0.73807 0.0
C1447 C 0.7313 0.50207 0.73059 0.0
C1448 C 0.72279 0.48569 0.75197 0.0
C1449 C 0.72175 0.47032 0.75971 0.0
C1450 C 0.71655 0.45725 0.75144 0.0
C1451 C 0.71629 0.44266 0.7585 0.0
C1452 C 0.72106 0.441 0.77389 0.0
C1453 C 0.72605 0.45395 0.78226 0.0
C1454 C 0.72639 0.46856 0.77524 0.0
C1455 C 0.70362 0.55336 0.76214 0.0
C1456 C 0.71516 0.55733 0.77291 0.0
C1457 C 0.70279 0.53822 0.75643 0.0
C1458 C 0.71334 0.52702 0.76171 0.0
C1459 C 0.72312 0.53049 0.77424 0.0
C1460 C 0.72416 0.54565 0.7797 0.0
C1461 C 0.71706 0.51331 0.75221 0.0
C1462 C 0.7159 0.4986 0.75898 0.0
C1463 C 0.72435 0.51498 0.73757 0.0
C1464 C 0.72616 0.53028 0.72997 0.0
C1465 C 0.7361 0.54156 0.73626 0.0
C1466 C 0.73774 0.55596 0.72899 0.0
C1467 C 0.72958 0.55915 0.71536 0.0
C1468 C 0.71978 0.54794 0.70897 0.0
C1469 C 0.7181 0.53352 0.7162 0.0
H1470 H 0.7309 0.57027 0.70971 0.0
H1471 H 0.72088 0.42969 0.77932 0.0
H1472 H 0.41741 0.23013 0.23288 0.0
H1473 H 0.4432 0.22106 0.24025 0.0
H1474 H 0.46059 0.26787 0.23722 0.0
H1475 H 0.43474 0.2771 0.23013 0.0
H1476 H 0.47107 0.22127 0.22733 0.0
H1477 H 0.48571 0.27447 0.26625 0.0
H1478 H 0.4719 0.29348 0.28255 0.0
H1479 H 0.43451 0.26124 0.28895 0.0
H1480 H 0.44819 0.24195 0.27289 0.0
H1481 H 0.54986 0.23559 0.23601 0.0
H1482 H 0.52201 0.23502 0.23198 0.0
H1483 H 0.51507 0.22331 0.28013 0.0
H1484 H 0.54325 0.22408 0.28435 0.0
H1485 H 0.49717 0.24703 0.27169 0.0
H1486 H 0.50654 0.1968 0.25232 0.0
H1487 H 0.51969 0.17627 0.2374 0.0
H1488 H 0.50777 0.19922 0.19486 0.0
H1489 H 0.49475 0.22001 0.20952 0.0
C1490 C 0.42677 0.23849 0.23361 0.0
C1491 C 0.42404 0.25436 0.23107 0.0
C1492 C 0.44149 0.23327 0.23783 0.0
C1493 C 0.4537 0.24383 0.23959 0.0
C1494 C 0.45121 0.25958 0.23625 0.0
C1495 C 0.43647 0.26482 0.23209 0.0
C1496 C 0.46899 0.23851 0.24528 0.0
C1497 C 0.47678 0.22683 0.23707 0.0
C1498 C 0.47614 0.24535 0.25836 0.0
C1499 C 0.46794 0.25681 0.26826 0.0
C1500 C 0.47458 0.2714 0.27121 0.0
C1501 C 0.46677 0.28223 0.28039 0.0
C1502 C 0.45232 0.27858 0.28674 0.0
C1503 C 0.44568 0.26407 0.28398 0.0
C1504 C 0.45346 0.25319 0.27483 0.0
C1505 C 0.54246 0.2327 0.24574 0.0
C1506 C 0.54871 0.22997 0.26053 0.0
C1507 C 0.52652 0.23225 0.24337 0.0
C1508 C 0.51648 0.22895 0.25571 0.0
C1509 C 0.52267 0.2258 0.27044 0.0
C1510 C 0.53872 0.22622 0.27283 0.0
C1511 C 0.49956 0.23032 0.25328 0.0
C1512 C 0.49141 0.24126 0.26211 0.0
C1513 C 0.49197 0.22254 0.24099 0.0
C1514 C 0.49971 0.21001 0.23205 0.0
C1515 C 0.5068 0.19753 0.23979 0.0
C1516 C 0.51422 0.18583 0.23137 0.0
C1517 C 0.51457 0.18645 0.21519 0.0
C1518 C 0.50748 0.19875 0.20739 0.0
C1519 C 0.50005 0.21048 0.21575 0.0
H1520 H 0.52033 0.17739 0.2087 0.0
H1521 H 0.44629 0.287 0.29383 0.0
H1522 H 0.76995 0.42879 0.22962 0.0
H1523 H 0.7783 0.45453 0.23773 0.0
H1524 H 0.73133 0.47121 0.23339 0.0
H1525 H 0.72276 0.44528 0.22567 0.0
H1526 H 0.77847 0.48256 0.22612 0.0
H1527 H 0.72333 0.49557 0.26267 0.0
H1528 H 0.70338 0.48115 0.27724 0.0
H1529 H 0.73515 0.4434 0.2839 0.0
H1530 H 0.75535 0.45768 0.26958 0.0
H1531 H 0.76577 0.56114 0.23954 0.0
H1532 H 0.76641 0.5337 0.23336 0.0
H1533 H 0.77364 0.52277 0.28166 0.0
H1534 H 0.77261 0.55048 0.28805 0.0
H1535 H 0.75072 0.50643 0.27051 0.0
H1536 H 0.80222 0.51569 0.25462 0.0
H1537 H 0.82392 0.52911 0.24175 0.0
H1538 H 0.80319 0.52058 0.19731 0.0
H1539 H 0.78124 0.5073 0.20991 0.0
C1540 C 0.7614 0.43797 0.23022 0.0
C1541 C 0.74566 0.435 0.2272 0.0
C1542 C 0.76622 0.45268 0.23483 0.0
C1543 C 0.75539 0.46466 0.23648 0.0
C1544 C 0.73981 0.46198 0.23252 0.0
C1545 C 0.73495 0.44722 0.22801 0.0
C1546 C 0.76026 0.47974 0.24298 0.0
C1547 C 0.77245 0.4878 0.23584 0.0
C1548 C 0.75281 0.48623 0.25607 0.0
C1549 C 0.74081 0.47765 0.26493 0.0
C1550 C 0.72608 0.48423 0.26731 0.0
C1551 C 0.71473 0.47607 0.27552 0.0
C1552 C 0.71798 0.46135 0.28146 0.0
C1553 C 0.73262 0.45478 0.27926 0.0
C1554 C 0.74403 0.4629 0.27108 0.0
C1555 C 0.76773 0.55295 0.24886 0.0
C1556 C 0.769 0.55793 0.26431 0.0
C1557 C 0.76824 0.53725 0.24527 0.0
C1558 C 0.77022 0.5262 0.25702 0.0
C1559 C 0.77214 0.53115 0.27242 0.0
C1560 C 0.77157 0.54694 0.27605 0.0
C1561 C 0.76853 0.50957 0.25326 0.0
C1562 C 0.75692 0.50115 0.26092 0.0
C1563 C 0.77681 0.50261 0.24093 0.0
C1564 C 0.79003 0.51055 0.23324 0.0
C1565 C 0.80223 0.51676 0.24211 0.0
C1566 C 0.81459 0.52433 0.23486 0.0
C1567 C 0.81492 0.52571 0.21872 0.0
C1568 C 0.80292 0.5195 0.2098 0.0
C1569 C 0.79052 0.51192 0.217 0.0
H1570 H 0.8245 0.53159 0.21313 0.0
H1571 H 0.70917 0.45505 0.28778 0.0
H1572 H 0.5453 0.74939 0.21329 0.0
H1573 H 0.5186 0.754 0.2215 0.0
H1574 H 0.52268 0.71738 0.25536 0.0
H1575 H 0.54922 0.71226 0.24658 0.0
H1576 H 0.49203 0.72227 0.24621 0.0
H1577 H 0.53511 0.75134 0.26549 0.0
H1578 H 0.55919 0.76651 0.26283 0.0
H1579 H 0.53447 0.80181 0.23789 0.0
H1580 H 0.51028 0.78667 0.24014 0.0
H1581 H 0.44196 0.75769 0.3003 0.0
H1582 H 0.46806 0.75069 0.29158 0.0
H1583 H 0.46136 0.77742 0.24986 0.0
H1584 H 0.43508 0.78404 0.25826 0.0
H1585 H 0.49386 0.7767 0.26515 0.0
H1586 H 0.45081 0.74498 0.24514 0.0
H1587 H 0.42725 0.7294 0.24965 0.0
H1588 H 0.45303 0.6985 0.27897 0.0
H1589 H 0.47668 0.71413 0.27489 0.0
C1590 C 0.54017 0.74179 0.22188 0.0
C1591 C 0.54917 0.7306 0.22945 0.0
C1592 C 0.52499 0.74446 0.22662 0.0
C1593 C 0.51896 0.73637 0.23937 0.0
C1594 C 0.52723 0.72381 0.24557 0.0
C1595 C 0.54234 0.72087 0.24054 0.0
C1596 C 0.5058 0.74303 0.24802 0.0
C1597 C 0.49247 0.7341 0.25046 0.0
C1598 C 0.50653 0.75841 0.2538 0.0
C1599 C 0.52092 0.76782 0.25288 0.0
C1600 C 0.53483 0.76231 0.25939 0.0
C1601 C 0.54849 0.77089 0.25794 0.0
C1602 C 0.54836 0.78511 0.25018 0.0
C1603 C 0.53455 0.79079 0.24389 0.0
C1604 C 0.52085 0.78222 0.24525 0.0
C1605 C 0.4463 0.76259 0.28958 0.0
C1606 C 0.43658 0.77127 0.27984 0.0
C1607 C 0.46114 0.75853 0.2846 0.0
C1608 C 0.46641 0.76342 0.27004 0.0
C1609 C 0.45738 0.77357 0.26113 0.0
C1610 C 0.44243 0.77732 0.26593 0.0
C1611 C 0.48003 0.75607 0.26296 0.0
C1612 C 0.49348 0.76486 0.26092 0.0
C1613 C 0.4795 0.74049 0.25784 0.0
C1614 C 0.46545 0.73081 0.25985 0.0
C1615 C 0.45142 0.73493 0.25264 0.0
C1616 C 0.43805 0.7261 0.25511 0.0
C1617 C 0.43863 0.71299 0.26462 0.0
C1618 C 0.4526 0.70867 0.27163 0.0
C1619 C 0.46598 0.71751 0.26924 0.0
H1620 H 0.42827 0.70618 0.26654 0.0
H1621 H 0.55896 0.79173 0.24905 0.0
H1622 H 0.27831 0.55956 0.25593 0.0
H1623 H 0.27359 0.53536 0.26998 0.0
H1624 H 0.23113 0.5288 0.24426 0.0
H1625 H 0.2355 0.55331 0.23078 0.0
H1626 H 0.22538 0.52823 0.27387 0.0
H1627 H 0.264 0.50465 0.24064 0.0
H1628 H 0.2898 0.5018 0.22864 0.0
H1629 H 0.31055 0.49739 0.27368 0.0
H1630 H 0.28488 0.50041 0.28596 0.0
H1631 H 0.20767 0.44945 0.27711 0.0
H1632 H 0.2125 0.47716 0.27457 0.0
H1633 H 0.24672 0.47459 0.311 0.0
H1634 H 0.24159 0.44674 0.31374 0.0
H1635 H 0.25879 0.48228 0.28247 0.0
H1636 H 0.21832 0.50059 0.31476 0.0
H1637 H 0.19196 0.50211 0.32568 0.0
H1638 H 0.17393 0.51516 0.28115 0.0
H1639 H 0.20014 0.51352 0.26989 0.0
C1640 C 0.26831 0.5526 0.25287 0.0
C1641 C 0.25722 0.55821 0.24235 0.0
C1642 C 0.26556 0.53883 0.26096 0.0
C1643 C 0.25189 0.53038 0.25831 0.0
C1644 C 0.24163 0.53527 0.24665 0.0
C1645 C 0.24421 0.54915 0.23883 0.0
C1646 C 0.24733 0.51744 0.26861 0.0
C1647 C 0.23264 0.5181 0.27565 0.0
C1648 C 0.25711 0.50464 0.27159 0.0
C1649 C 0.27255 0.50297 0.26422 0.0
C1650 C 0.27408 0.50323 0.24799 0.0
C1651 C 0.28868 0.50155 0.24114 0.0
C1652 C 0.30181 0.49947 0.2504 0.0
C1653 C 0.30037 0.49904 0.26653 0.0
C1654 C 0.2858 0.50072 0.27343 0.0
C1655 C 0.21551 0.45502 0.28521 0.0
C1656 C 0.22422 0.44614 0.29564 0.0
C1657 C 0.21831 0.47084 0.28374 0.0
C1658 C 0.23005 0.47788 0.29254 0.0
C1659 C 0.23758 0.46933 0.30417 0.0
C1660 C 0.23455 0.4535 0.30582 0.0
C1661 C 0.23654 0.49274 0.28705 0.0
C1662 C 0.25165 0.49254 0.28097 0.0
C1663 C 0.22706 0.50587 0.28476 0.0
C1664 C 0.21123 0.50689 0.29147 0.0
C1665 C 0.20873 0.50368 0.30726 0.0
C1666 C 0.1938 0.50459 0.31352 0.0
C1667 C 0.18128 0.50872 0.30412 0.0
C1668 C 0.18365 0.51198 0.28843 0.0
C1669 C 0.19855 0.51109 0.28211 0.0
H1670 H 0.16973 0.50941 0.30899 0.0
H1671 H 0.31309 0.49816 0.24507 0.0
H1672 H 0.74538 0.70377 0.54513 0.0
H1673 H 0.73415 0.71479 0.52157 0.0
H1674 H 0.76065 0.75671 0.52859 0.0
H1675 H 0.77119 0.74599 0.55259 0.0
H1676 H 0.73227 0.76412 0.5244 0.0
H1677 H 0.76734 0.72946 0.49811 0.0
H1678 H 0.77945 0.70448 0.49124 0.0
H1679 H 0.73525 0.68671 0.47677 0.0
H1680 H 0.72283 0.71152 0.48375 0.0
H1681 H 0.73976 0.79232 0.44773 0.0
H1682 H 0.73912 0.78462 0.47495 0.0
H1683 H 0.69933 0.75572 0.46587 0.0
H1684 H 0.6996 0.76391 0.43869 0.0
H1685 H 0.7285 0.74032 0.47226 0.0
H1686 H 0.69516 0.77803 0.49435 0.0
H1687 H 0.68477 0.80413 0.49957 0.0
H1688 H 0.72803 0.81752 0.52024 0.0
H1689 H 0.73878 0.79157 0.51495 0.0
C1690 C 0.74919 0.71511 0.54132 0.0
C1691 C 0.75914 0.72405 0.55058 0.0
C1692 C 0.74271 0.72145 0.5279 0.0
C1693 C 0.74647 0.73664 0.52334 0.0
C1694 C 0.75741 0.74505 0.53198 0.0
C1695 C 0.76358 0.73887 0.54557 0.0
C1696 C 0.73822 0.74428 0.51034 0.0
C1697 C 0.73159 0.75897 0.51295 0.0
C1698 C 0.73671 0.73729 0.49558 0.0
C1699 C 0.74412 0.72227 0.49166 0.0
C1700 C 0.76017 0.72016 0.49363 0.0
C1701 C 0.7671 0.70605 0.48968 0.0
C1702 C 0.75812 0.694 0.48363 0.0
C1703 C 0.74219 0.69604 0.4815 0.0
C1704 C 0.7352 0.71012 0.48545 0.0
C1705 C 0.73029 0.78513 0.45179 0.0
C1706 C 0.71979 0.77862 0.44124 0.0
C1707 C 0.72994 0.7807 0.46732 0.0
C1708 C 0.71929 0.76948 0.4723 0.0
C1709 C 0.70758 0.76446 0.46219 0.0
C1710 C 0.70769 0.76921 0.44671 0.0
C1711 C 0.72313 0.76032 0.48621 0.0
C1712 C 0.72893 0.74532 0.4838 0.0
C1713 C 0.72418 0.76716 0.50102 0.0
C1714 C 0.71781 0.78284 0.50417 0.0
C1715 C 0.70252 0.78657 0.49989 0.0
C1716 C 0.69655 0.80134 0.50289 0.0
C1717 C 0.70574 0.81248 0.51021 0.0
C1718 C 0.72092 0.80887 0.51457 0.0
C1719 C 0.72695 0.79412 0.5116 0.0
H1720 H 0.7011 0.82391 0.51253 0.0
H1721 H 0.76351 0.6831 0.48054 0.0
H1722 H 0.77563 0.25768 0.45232 0.0
H1723 H 0.7628 0.25815 0.47748 0.0
H1724 H 0.73304 0.29511 0.4618 0.0
H1725 H 0.74613 0.29488 0.43656 0.0
H1726 H 0.74352 0.28832 0.50002 0.0
H1727 H 0.71367 0.27133 0.4544 0.0
H1728 H 0.71227 0.25969 0.4283 0.0
H1729 H 0.73416 0.21834 0.44533 0.0
H1730 H 0.73582 0.22983 0.4715 0.0
H1731 H 0.6967 0.25104 0.55531 0.0
H1732 H 0.69747 0.26225 0.5292 0.0
H1733 H 0.73402 0.2305 0.51673 0.0
H1734 H 0.73371 0.21977 0.54295 0.0
H1735 H 0.71247 0.24056 0.49112 0.0
H1736 H 0.74667 0.2594 0.53387 0.0
H1737 H 0.74882 0.26937 0.56061 0.0
H1738 H 0.71827 0.30701 0.54923 0.0
H1739 H 0.71574 0.29706 0.52248 0.0
C1740 C 0.76706 0.26659 0.45458 0.0
C1741 C 0.76175 0.27615 0.44257 0.0
C1742 C 0.75971 0.26683 0.46893 0.0
C1743 C 0.74685 0.27648 0.4713 0.0
C1744 C 0.743 0.28764 0.46013 0.0
C1745 C 0.75054 0.28753 0.44576 0.0
C1746 C 0.73551 0.27175 0.48315 0.0
C1747 C 0.73623 0.27828 0.49799 0.0
C1748 C 0.72615 0.25853 0.48047 0.0
C1749 C 0.72492 0.25145 0.46485 0.0
C1750 C 0.71824 0.25978 0.45254 0.0
C1751 C 0.7174 0.25321 0.43774 0.0
C1752 C 0.72313 0.23828 0.43515 0.0
C1753 C 0.72971 0.2299 0.44736 0.0
C1754 C 0.73058 0.23642 0.46217 0.0
C1755 C 0.70426 0.24589 0.5467 0.0
C1756 C 0.71515 0.23458 0.55097 0.0
C1757 C 0.70473 0.25235 0.53185 0.0
C1758 C 0.71589 0.24726 0.52118 0.0
C1759 C 0.72529 0.2345 0.52483 0.0
C1760 C 0.7251 0.22835 0.53976 0.0
C1761 C 0.72046 0.25709 0.508 0.0
C1762 C 0.71885 0.25124 0.49297 0.0
C1763 C 0.72878 0.27104 0.51049 0.0
C1764 C 0.73094 0.27746 0.52626 0.0
C1765 C 0.74041 0.26979 0.5371 0.0
C1766 C 0.74167 0.27541 0.55225 0.0
C1767 C 0.73366 0.2888 0.55663 0.0
C1768 C 0.72445 0.29663 0.54583 0.0
C1769 C 0.72309 0.29101 0.53068 0.0
H1770 H 0.73461 0.29311 0.56838 0.0
H1771 H 0.72243 0.23319 0.42371 0.0
H1772 H 0.22877 0.70968 0.45341 0.0
H1773 H 0.23238 0.71225 0.48124 0.0
H1774 H 0.19504 0.74562 0.48299 0.0
H1775 H 0.19236 0.74385 0.45482 0.0
H1776 H 0.21858 0.7587 0.49269 0.0
H1777 H 0.19664 0.71043 0.50629 0.0
H1778 H 0.19096 0.68245 0.50514 0.0
H1779 H 0.23882 0.67207 0.51407 0.0
H1780 H 0.24485 0.69999 0.51505 0.0
H1781 H 0.24073 0.76883 0.57362 0.0
H1782 H 0.22616 0.76249 0.55005 0.0
H1783 H 0.26696 0.74119 0.53053 0.0
H1784 H 0.28171 0.7478 0.55391 0.0
H1785 H 0.23729 0.72212 0.53287 0.0
H1786 H 0.25838 0.77141 0.51482 0.0
H1787 H 0.26283 0.79959 0.51678 0.0
H1788 H 0.21369 0.80754 0.51762 0.0
H1789 H 0.20896 0.77937 0.51587 0.0
C1790 C 0.2208 0.71691 0.4599 0.0
C1791 C 0.21029 0.72655 0.45215 0.0
C1792 C 0.22283 0.7184 0.47587 0.0
C1793 C 0.21405 0.72925 0.48431 0.0
C1794 C 0.20206 0.7373 0.47674 0.0
C1795 C 0.2004 0.73617 0.46069 0.0
C1796 C 0.21965 0.73462 0.49968 0.0
C1797 C 0.2222 0.75062 0.50163 0.0
C1798 C 0.22474 0.7242 0.51132 0.0
C1799 C 0.22121 0.70735 0.51067 0.0
C1800 C 0.20598 0.7022 0.50789 0.0
C1801 C 0.20269 0.68633 0.50729 0.0
C1802 C 0.21452 0.67549 0.50951 0.0
C1803 C 0.22966 0.68049 0.51236 0.0
C1804 C 0.23302 0.69633 0.51297 0.0
C1805 C 0.24667 0.76314 0.56413 0.0
C1806 C 0.26231 0.75879 0.56552 0.0
C1807 C 0.23834 0.75947 0.55076 0.0
C1808 C 0.2455 0.75121 0.53876 0.0
C1809 C 0.26128 0.74747 0.53981 0.0
C1810 C 0.26971 0.75141 0.55305 0.0
C1811 C 0.23635 0.74588 0.52538 0.0
C1812 C 0.23322 0.73 0.52395 0.0
C1813 C 0.23047 0.75637 0.51434 0.0
C1814 C 0.23332 0.77329 0.51543 0.0
C1815 C 0.24853 0.77916 0.5156 0.0
C1816 C 0.2511 0.79513 0.51662 0.0
C1817 C 0.23855 0.80535 0.51738 0.0
C1818 C 0.2234 0.79961 0.51707 0.0
C1819 C 0.22077 0.78365 0.51605 0.0
H1820 H 0.24056 0.81771 0.51817 0.0
H1821 H 0.21195 0.66322 0.50905 0.0
H1822 H 0.23218 0.25664 0.53416 0.0
H1823 H 0.24948 0.25905 0.51195 0.0
H1824 H 0.27433 0.29578 0.535 0.0
H1825 H 0.25677 0.29362 0.55726 0.0
H1826 H 0.26745 0.28845 0.49332 0.0
H1827 H 0.29666 0.27629 0.54233 0.0
H1828 H 0.29638 0.2653 0.5688 0.0
H1829 H 0.27783 0.22262 0.55112 0.0
H1830 H 0.27784 0.23342 0.52463 0.0
H1831 H 0.30649 0.24461 0.43885 0.0
H1832 H 0.31111 0.26008 0.46221 0.0
H1833 H 0.2803 0.23014 0.48785 0.0
H1834 H 0.27544 0.21504 0.46454 0.0
H1835 H 0.30214 0.24456 0.50686 0.0
H1836 H 0.26232 0.25833 0.46569 0.0
H1837 H 0.25626 0.26545 0.43864 0.0
H1838 H 0.29082 0.30127 0.44008 0.0
H1839 H 0.29701 0.29435 0.46722 0.0
C1840 C 0.24076 0.26581 0.53413 0.0
C1841 C 0.24328 0.27483 0.5474 0.0
C1842 C 0.25065 0.26718 0.52146 0.0
C1843 C 0.26326 0.27743 0.52203 0.0
C1844 C 0.26462 0.28784 0.53441 0.0
C1845 C 0.25453 0.28663 0.54706 0.0
C1846 C 0.27646 0.27421 0.51169 0.0
C1847 C 0.27572 0.27947 0.49637 0.0
C1848 C 0.28693 0.26224 0.51569 0.0
C1849 C 0.28729 0.25565 0.53155 0.0
C1850 C 0.29251 0.26457 0.54413 0.0
C1851 C 0.29238 0.25838 0.55912 0.0
C1852 C 0.28712 0.24326 0.56161 0.0
C1853 C 0.28194 0.23431 0.54916 0.0
C1854 C 0.28203 0.24045 0.53416 0.0
C1855 C 0.30155 0.24076 0.44975 0.0
C1856 C 0.29055 0.22876 0.45002 0.0
C1857 C 0.3041 0.2497 0.46304 0.0
C1858 C 0.29579 0.24644 0.47663 0.0
C1859 C 0.28681 0.23287 0.47746 0.0
C1860 C 0.28407 0.22417 0.46416 0.0
C1861 C 0.29289 0.25853 0.48839 0.0
C1862 C 0.29522 0.25467 0.50398 0.0
C1863 C 0.28374 0.27166 0.4846 0.0
C1864 C 0.28016 0.27579 0.46836 0.0
C1865 C 0.26862 0.2677 0.46019 0.0
C1866 C 0.26518 0.27169 0.44486 0.0
C1867 C 0.2732 0.28376 0.43761 0.0
C1868 C 0.28465 0.2919 0.4457 0.0
C1869 C 0.28812 0.28797 0.46106 0.0
H1870 H 0.27051 0.28684 0.42574 0.0
H1871 H 0.28709 0.23842 0.57318 0.0
H1872 H 0.22963 0.15921 0.27913 0.0
H1873 H 0.20984 0.17804 0.27152 0.0
H1874 H 0.18436 0.14197 0.24803 0.0
H1875 H 0.20406 0.12296 0.25584 0.0
H1876 H 0.19107 0.16875 0.22964 0.0
H1877 H 0.1688 0.15575 0.27874 0.0
H1878 H 0.16867 0.15127 0.30696 0.0
H1879 H 0.1821 0.19856 0.31481 0.0
H1880 H 0.18254 0.20327 0.2866 0.0
H1881 H 0.124 0.21631 0.21496 0.0
H1882 H 0.14245 0.19579 0.22162 0.0
H1883 H 0.16881 0.22829 0.24901 0.0
H1884 H 0.1505 0.2489 0.2423 0.0
H1885 H 0.16052 0.20204 0.26521 0.0
H1886 H 0.18554 0.21467 0.2172 0.0
H1887 H 0.18877 0.21925 0.18916 0.0
H1888 H 0.1715 0.17359 0.17943 0.0
H1889 H 0.16825 0.1687 0.20744 0.0
C1890 C 0.21966 0.15525 0.27258 0.0
C1891 C 0.21834 0.13966 0.26805 0.0
C1892 C 0.20837 0.16599 0.26828 0.0
C1893 C 0.19568 0.16135 0.25924 0.0
C1894 C 0.1941 0.14572 0.25503 0.0
C1895 C 0.20527 0.13489 0.25957 0.0
C1896 C 0.18469 0.1731 0.25338 0.0
C1897 C 0.1841 0.17583 0.23736 0.0
C1898 C 0.17608 0.18261 0.26356 0.0
C1899 C 0.17584 0.17983 0.28054 0.0
C1900 C 0.17187 0.16516 0.28647 0.0
C1901 C 0.17171 0.16259 0.30247 0.0
C1902 C 0.17541 0.17461 0.31267 0.0
C1903 C 0.17925 0.18925 0.30689 0.0
C1904 C 0.17944 0.19189 0.2909 0.0
C1905 C 0.13383 0.21912 0.22225 0.0
C1906 C 0.13575 0.23415 0.22825 0.0
C1907 C 0.1444 0.20741 0.22596 0.0
C1908 C 0.15696 0.21055 0.23581 0.0
C1909 C 0.15916 0.22566 0.24139 0.0
C1910 C 0.14871 0.23741 0.23755 0.0
C1911 C 0.16695 0.1978 0.24144 0.0
C1912 C 0.16734 0.19487 0.25745 0.0
C1913 C 0.17545 0.18818 0.23126 0.0
C1914 C 0.1765 0.19138 0.2144 0.0
C1915 C 0.18228 0.20566 0.20907 0.0
C1916 C 0.18427 0.20825 0.1932 0.0
C1917 C 0.18041 0.19669 0.18252 0.0
C1918 C 0.17454 0.18251 0.18771 0.0
C1919 C 0.17266 0.17981 0.20359 0.0
H1920 H 0.18187 0.19876 0.17023 0.0
H1921 H 0.17527 0.1726 0.32506 0.0
H1922 H 0.85022 0.20901 0.23657 0.0
H1923 H 0.83102 0.18831 0.23779 0.0
H1924 H 0.86154 0.1615 0.26697 0.0
H1925 H 0.88103 0.18207 0.26555 0.0
H1926 H 0.84786 0.14331 0.24647 0.0
H1927 H 0.83086 0.18104 0.28287 0.0
H1928 H 0.824 0.2071 0.29243 0.0
H1929 H 0.78753 0.21016 0.25867 0.0
H1930 H 0.79427 0.18419 0.24881 0.0
H1931 H 0.76308 0.11347 0.26663 0.0
H1932 H 0.78538 0.1302 0.27273 0.0
H1933 H 0.80293 0.12347 0.22635 0.0
H1934 H 0.78145 0.10638 0.22056 0.0
H1935 H 0.79395 0.15661 0.26156 0.0
H1936 H 0.8404 0.12557 0.22354 0.0
H1937 H 0.84698 0.09888 0.21568 0.0
H1938 H 0.82517 0.0811 0.25674 0.0
H1939 H 0.81871 0.10769 0.26499 0.0
C1940 C 0.85292 0.19869 0.24319 0.0
C1941 C 0.86713 0.19727 0.25107 0.0
C1942 C 0.84188 0.18689 0.24395 0.0
C1943 C 0.8447 0.17352 0.25278 0.0
C1944 C 0.85908 0.17178 0.26019 0.0
C1945 C 0.87022 0.18355 0.25934 0.0
C1946 C 0.83255 0.16143 0.25423 0.0
C1947 C 0.8361 0.14618 0.24986 0.0
C1948 C 0.8173 0.16507 0.25912 0.0
C1949 C 0.81314 0.18069 0.26504 0.0
C1950 C 0.82144 0.18731 0.27743 0.0
C1951 C 0.81756 0.20206 0.28291 0.0
C1952 C 0.80536 0.21029 0.27614 0.0
C1953 C 0.79698 0.20377 0.2639 0.0
C1954 C 0.80081 0.18902 0.25838 0.0
C1955 C 0.7719 0.11537 0.2579 0.0
C1956 C 0.77062 0.10848 0.24321 0.0
C1957 C 0.78457 0.12496 0.26135 0.0
C1958 C 0.79602 0.12786 0.2501 0.0
C1959 C 0.79458 0.12105 0.23541 0.0
C1960 C 0.78218 0.11131 0.23209 0.0
C1961 C 0.80911 0.13861 0.25319 0.0
C1962 C 0.80576 0.15364 0.25844 0.0
C1963 C 0.82461 0.13466 0.24942 0.0
C1964 C 0.82903 0.11865 0.24486 0.0
C1965 C 0.83716 0.11598 0.23098 0.0
C1966 C 0.84083 0.10086 0.22643 0.0
C1967 C 0.83648 0.0883 0.23569 0.0
C1968 C 0.82852 0.09084 0.24956 0.0
C1969 C 0.82485 0.10593 0.25418 0.0
H1970 H 0.83928 0.0766 0.23212 0.0
H1971 H 0.80237 0.22171 0.2804 0.0
H1972 H 0.88784 0.78442 0.22215 0.0
H1973 H 0.87146 0.80698 0.22717 0.0
H1974 H 0.85386 0.78512 0.26857 0.0
H1975 H 0.87027 0.76248 0.26365 0.0
H1976 H 0.83995 0.80621 0.22796 0.0
H1977 H 0.84434 0.81437 0.2945 0.0
H1978 H 0.86362 0.81114 0.31538 0.0
H1979 H 0.90056 0.81758 0.28264 0.0
H1980 H 0.88151 0.82107 0.26161 0.0
H1981 H 0.77626 0.84425 0.26587 0.0
H1982 H 0.79791 0.82633 0.26215 0.0
H1983 H 0.82814 0.86471 0.25175 0.0
H1984 H 0.80643 0.88276 0.25481 0.0
H1985 H 0.83766 0.83789 0.27594 0.0
H1986 H 0.8232 0.85074 0.22299 0.0
H1987 H 0.80573 0.85397 0.20057 0.0
H1988 H 0.79105 0.80659 0.20486 0.0
H1989 H 0.80831 0.80315 0.22744 0.0
C1990 C 0.88065 0.7845 0.23245 0.0
C1991 C 0.88025 0.77167 0.24247 0.0
C1992 C 0.87129 0.79738 0.23527 0.0
C1993 C 0.8615 0.7977 0.24824 0.0
C1994 C 0.86148 0.78514 0.25858 0.0
C1995 C 0.87079 0.77221 0.25573 0.0
C1996 C 0.8504 0.8106 0.25023 0.0
C1997 C 0.83953 0.81319 0.23842 0.0
C1998 C 0.84992 0.81973 0.26385 0.0
C1999 C 0.86148 0.81783 0.27645 0.0
C2000 C 0.85658 0.81516 0.29177 0.0
C2001 C 0.86747 0.81327 0.30363 0.0
C2002 C 0.88331 0.8141 0.30033 0.0
C2003 C 0.88829 0.81687 0.28517 0.0
C2004 C 0.87745 0.81878 0.27327 0.0
C2005 C 0.78747 0.8489 0.26268 0.0
C2006 C 0.78953 0.86489 0.26027 0.0
C2007 C 0.79982 0.83865 0.26064 0.0
C2008 C 0.81447 0.84426 0.25651 0.0
C2009 C 0.81682 0.86024 0.25483 0.0
C2010 C 0.80441 0.87049 0.25659 0.0
C2011 C 0.82724 0.8333 0.25373 0.0
C2012 C 0.83825 0.83096 0.26546 0.0
C2013 C 0.82796 0.82446 0.23998 0.0
C2014 C 0.8169 0.82675 0.22701 0.0
C2015 C 0.81607 0.84109 0.2193 0.0
C2016 C 0.80631 0.84291 0.20649 0.0
C2017 C 0.79736 0.83046 0.20123 0.0
C2018 C 0.79805 0.8162 0.20889 0.0
C2019 C 0.8078 0.81431 0.2217 0.0
H2020 H 0.78981 0.8319 0.19131 0.0
H2021 H 0.89172 0.81263 0.30953 0.0
H2022 H 0.2197 0.89992 0.2541 0.0
H2023 H 0.19659 0.88487 0.26077 0.0
H2024 H 0.19176 0.87119 0.21285 0.0
H2025 H 0.21431 0.88713 0.20606 0.0
H2026 H 0.16397 0.87131 0.22641 0.0
H2027 H 0.21478 0.85024 0.23808 0.0
H2028 H 0.24072 0.8507 0.25014 0.0
H2029 H 0.21997 0.85451 0.29523 0.0
H2030 H 0.19389 0.85421 0.2834 0.0
H2031 H 0.16189 0.78458 0.25009 0.0
H2032 H 0.17488 0.80921 0.24647 0.0
H2033 H 0.13185 0.83341 0.25477 0.0
H2034 H 0.11855 0.80854 0.25794 0.0
H2035 H 0.18072 0.83116 0.26406 0.0
H2036 H 0.13158 0.86664 0.24057 0.0
H2037 H 0.10745 0.86408 0.22532 0.0
H2038 H 0.128 0.82742 0.1986 0.0
H2039 H 0.15224 0.82999 0.21361 0.0
C2040 C 0.21332 0.89412 0.24496 0.0
C2041 C 0.2187 0.89448 0.22964 0.0
C2042 C 0.20018 0.88553 0.24875 0.0
C2043 C 0.19272 0.87657 0.23738 0.0
C2044 C 0.19735 0.87799 0.22182 0.0
C2045 C 0.21023 0.88702 0.21794 0.0
C2046 C 0.18206 0.86391 0.24198 0.0
C2047 C 0.16756 0.86258 0.23473 0.0
C2048 C 0.18679 0.85242 0.25271 0.0
C2049 C 0.20243 0.85237 0.25986 0.0
C2050 C 0.21577 0.85124 0.25056 0.0
C2051 C 0.23049 0.85148 0.25735 0.0
C2052 C 0.23199 0.8527 0.27343 0.0
C2053 C 0.21878 0.8536 0.28277 0.0
C2054 C 0.20403 0.85339 0.27604 0.0
C2055 C 0.15512 0.7951 0.25113 0.0
C2056 C 0.13915 0.79456 0.25425 0.0
C2057 C 0.16259 0.80925 0.2491 0.0
C2058 C 0.15435 0.82325 0.25013 0.0
C2059 C 0.13841 0.8228 0.25345 0.0
C2060 C 0.13084 0.80856 0.25536 0.0
C2061 C 0.16283 0.8381 0.24802 0.0
C2062 C 0.17694 0.83996 0.25591 0.0
C2063 C 0.15797 0.84972 0.23748 0.0
C2064 C 0.14354 0.84827 0.22836 0.0
C2065 C 0.1309 0.85805 0.23143 0.0
C2066 C 0.11722 0.85661 0.22284 0.0
C2067 C 0.11615 0.84553 0.21106 0.0
C2068 C 0.12878 0.83591 0.20781 0.0
C2069 C 0.14246 0.83731 0.21638 0.0
H2070 H 0.10557 0.84444 0.20441 0.0
H2071 H 0.2434 0.8529 0.27867 0.0
H2072 H 0.09929 0.76769 0.736 0.0
H2073 H 0.11434 0.79052 0.72848 0.0
H2074 H 0.09991 0.81398 0.77022 0.0
H2075 H 0.08473 0.79127 0.77775 0.0
H2076 H 0.10192 0.83424 0.74591 0.0
H2077 H 0.13324 0.7965 0.77054 0.0
H2078 H 0.14496 0.77115 0.77606 0.0
H2079 H 0.1653 0.7703 0.73063 0.0
H2080 H 0.15341 0.79566 0.72473 0.0
H2081 H 0.17251 0.88102 0.75287 0.0
H2082 H 0.14878 0.86548 0.75603 0.0
H2083 H 0.15846 0.84212 0.71286 0.0
H2084 H 0.18211 0.85744 0.70985 0.0
H2085 H 0.15783 0.82298 0.73858 0.0
H2086 H 0.12666 0.86386 0.71606 0.0
H2087 H 0.11653 0.89053 0.71429 0.0
H2088 H 0.09771 0.8867 0.76021 0.0
H2089 H 0.10792 0.86007 0.76234 0.0
C2090 C 0.09911 0.7778 0.74344 0.0
C2091 C 0.09102 0.77762 0.75755 0.0
C2092 C 0.10771 0.79083 0.73914 0.0
C2093 C 0.1084 0.80384 0.74892 0.0
C2094 C 0.09954 0.80406 0.76253 0.0
C2095 C 0.09095 0.79103 0.76684 0.0
C2096 C 0.11952 0.8165 0.74568 0.0
C2097 C 0.11416 0.83183 0.74437 0.0
C2098 C 0.13551 0.81336 0.74387 0.0
C2099 C 0.14224 0.79787 0.74711 0.0
C2100 C 0.13999 0.7908 0.76163 0.0
C2101 C 0.14668 0.77642 0.76482 0.0
C2102 C 0.15583 0.76904 0.75368 0.0
C2103 C 0.15819 0.77601 0.73925 0.0
C2104 C 0.15146 0.79038 0.73596 0.0
C2105 C 0.16912 0.87302 0.74379 0.0
C2106 C 0.1789 0.8704 0.73107 0.0
C2107 C 0.15563 0.86416 0.74559 0.0
C2108 C 0.1519 0.85267 0.73466 0.0
C2109 C 0.16113 0.85096 0.72138 0.0
C2110 C 0.17457 0.85971 0.71964 0.0
C2111 C 0.14021 0.84067 0.73821 0.0
C2112 C 0.14555 0.82541 0.73986 0.0
C2113 C 0.12437 0.84402 0.74072 0.0
C2114 C 0.11819 0.86001 0.73941 0.0
C2115 C 0.12048 0.86875 0.72583 0.0
C2116 C 0.1147 0.88385 0.72476 0.0
C2117 C 0.10651 0.89032 0.73715 0.0
C2118 C 0.10406 0.88168 0.75063 0.0
C2119 C 0.10983 0.86657 0.75177 0.0
H2120 H 0.10204 0.90201 0.73629 0.0
H2121 H 0.1612 0.758 0.75625 0.0
H2122 H 0.2181 0.10853 0.76492 0.0
H2123 H 0.19724 0.12549 0.75576 0.0
H2124 H 0.23004 0.15079 0.72775 0.0
H2125 H 0.25092 0.13379 0.7367 0.0
H2126 H 0.21083 0.16937 0.7473 0.0
H2127 H 0.20661 0.12729 0.71028 0.0
H2128 H 0.20344 0.09987 0.70286 0.0
H2129 H 0.15945 0.09838 0.72611 0.0
H2130 H 0.16247 0.12576 0.73387 0.0
H2131 H 0.16588 0.21849 0.70456 0.0
H2132 H 0.18246 0.19583 0.70791 0.0
H2133 H 0.14592 0.17258 0.7329 0.0
H2134 H 0.12907 0.19521 0.72933 0.0
H2135 H 0.16556 0.15201 0.71623 0.0
H2136 H 0.1681 0.19463 0.75087 0.0
H2137 H 0.1706 0.22202 0.75828 0.0
H2138 H 0.21769 0.22237 0.7422 0.0
H2139 H 0.2152 0.19518 0.73378 0.0
C2140 C 0.22084 0.11765 0.75673 0.0
C2141 C 0.23612 0.11988 0.75152 0.0
C2142 C 0.20892 0.12727 0.75149 0.0
C2143 C 0.21214 0.13932 0.74107 0.0
C2144 C 0.22737 0.14152 0.7358 0.0
C2145 C 0.23925 0.13179 0.74088 0.0
C2146 C 0.19977 0.15004 0.73607 0.0
C2147 C 0.20104 0.16567 0.74031 0.0
C2148 C 0.18672 0.14494 0.72756 0.0
C2149 C 0.18485 0.12852 0.7228 0.0
C2150 C 0.19633 0.12108 0.71393 0.0
C2151 C 0.19454 0.10555 0.70963 0.0
C2152 C 0.18127 0.09738 0.71405 0.0
C2153 C 0.16973 0.10473 0.72272 0.0
C2154 C 0.17147 0.12025 0.72706 0.0
C2155 C 0.16121 0.20837 0.71037 0.0
C2156 C 0.14635 0.20869 0.71701 0.0
C2157 C 0.17066 0.19542 0.7122 0.0
C2158 C 0.16551 0.18275 0.72097 0.0
C2159 C 0.15009 0.18232 0.72615 0.0
C2160 C 0.14052 0.19526 0.72415 0.0
C2161 C 0.17694 0.17148 0.72694 0.0
C2162 C 0.17539 0.15576 0.72313 0.0
C2163 C 0.1897 0.17647 0.73606 0.0
C2164 C 0.19135 0.19283 0.7414 0.0
C2165 C 0.1789 0.20059 0.74856 0.0
C2166 C 0.1803 0.21614 0.75291 0.0
C2167 C 0.19428 0.22396 0.75066 0.0
C2168 C 0.20685 0.2163 0.74392 0.0
C2169 C 0.20541 0.20083 0.73925 0.0
H2170 H 0.19539 0.23595 0.75422 0.0
H2171 H 0.17991 0.08535 0.71071 0.0
H2172 H 0.90623 0.21087 0.77941 0.0
H2173 H 0.89213 0.18647 0.7757 0.0
H2174 H 0.86746 0.20669 0.73714 0.0
H2175 H 0.88157 0.23085 0.74062 0.0
H2176 H 0.86222 0.18289 0.77935 0.0
H2177 H 0.85639 0.18106 0.71149 0.0
H2178 H 0.8732 0.18504 0.68874 0.0
H2179 H 0.91344 0.17549 0.71646 0.0
H2180 H 0.89687 0.17121 0.73933 0.0
H2181 H 0.78906 0.16644 0.75383 0.0
H2182 H 0.81509 0.17594 0.75861 0.0
H2183 H 0.83426 0.13384 0.73959 0.0
H2184 H 0.80799 0.12427 0.73439 0.0
H2185 H 0.84917 0.1589 0.72871 0.0
H2186 H 0.83673 0.13964 0.77806 0.0
H2187 H 0.82031 0.13457 0.80089 0.0
H2188 H 0.81882 0.18329 0.81098 0.0
H2189 H 0.83501 0.18871 0.78807 0.0
C2190 C 0.89802 0.20997 0.76995 0.0
C2191 C 0.89488 0.22278 0.76038 0.0
C2192 C 0.88999 0.19603 0.76785 0.0
C2193 C 0.87885 0.19469 0.75606 0.0
C2194 C 0.87623 0.20731 0.74611 0.0
C2195 C 0.88421 0.22119 0.7482 0.0
C2196 C 0.86845 0.18105 0.75522 0.0
C2197 C 0.85955 0.17742 0.76835 0.0
C2198 C 0.86533 0.1735 0.74099 0.0
C2199 C 0.87535 0.17584 0.72717 0.0
C2200 C 0.86881 0.17967 0.71272 0.0
C2201 C 0.87831 0.18202 0.6998 0.0
C2202 C 0.89438 0.18053 0.70116 0.0
C2203 C 0.90099 0.17667 0.71543 0.0
C2204 C 0.89155 0.1743 0.72838 0.0
C2205 C 0.79874 0.15918 0.75056 0.0
C2206 C 0.7964 0.14464 0.74361 0.0
C2207 C 0.81366 0.16456 0.75349 0.0
C2208 C 0.8266 0.15547 0.74972 0.0
C2209 C 0.8244 0.14097 0.7427 0.0
C2210 C 0.80939 0.13554 0.73974 0.0
C2211 C 0.84232 0.16175 0.75254 0.0
C2212 C 0.8522 0.16396 0.73982 0.0
C2213 C 0.84654 0.16774 0.76721 0.0
C2214 C 0.83711 0.16457 0.7813 0.0
C2215 C 0.83287 0.14929 0.78511 0.0
C2216 C 0.82359 0.14635 0.79807 0.0
C2217 C 0.81852 0.1586 0.80738 0.0
C2218 C 0.82277 0.17381 0.80377 0.0
C2219 C 0.83204 0.17682 0.79081 0.0
H2220 H 0.8113 0.15631 0.81738 0.0
H2221 H 0.90171 0.18237 0.69114 0.0
H2222 H 0.84865 0.76771 0.7497 0.0
H2223 H 0.82892 0.78798 0.75093 0.0
H2224 H 0.86071 0.82042 0.73003 0.0
H2225 H 0.88048 0.80024 0.72856 0.0
H2226 H 0.82838 0.81592 0.7655 0.0
H2227 H 0.84011 0.84421 0.70605 0.0
H2228 H 0.85042 0.83705 0.68034 0.0
H2229 H 0.83613 0.78989 0.68746 0.0
H2230 H 0.82555 0.79682 0.71311 0.0
H2231 H 0.7898 0.88784 0.76142 0.0
H2232 H 0.81002 0.86821 0.7587 0.0
H2233 H 0.78102 0.84262 0.72697 0.0
H2234 H 0.76082 0.86239 0.72941 0.0
H2235 H 0.81108 0.84286 0.71766 0.0
H2236 H 0.78277 0.83234 0.76487 0.0
H2237 H 0.77185 0.83949 0.7903 0.0
H2238 H 0.8175 0.84956 0.8074 0.0
H2239 H 0.8287 0.8426 0.78202 0.0
C2240 C 0.85147 0.77915 0.74533 0.0
C2241 C 0.86613 0.7823 0.73891 0.0
C2242 C 0.84019 0.79073 0.74612 0.0
C2243 C 0.84331 0.80563 0.74042 0.0
C2244 C 0.858 0.80892 0.73428 0.0
C2245 C 0.8693 0.79736 0.7335 0.0
C2246 C 0.83112 0.8177 0.74074 0.0
C2247 C 0.82459 0.82181 0.75505 0.0
C2248 C 0.82611 0.82527 0.72707 0.0
C2249 C 0.83218 0.82102 0.71155 0.0
C2250 C 0.83911 0.83233 0.70209 0.0
C2251 C 0.84501 0.82831 0.68754 0.0
C2252 C 0.84397 0.81302 0.68229 0.0
C2253 C 0.83697 0.80172 0.69156 0.0
C2254 C 0.83104 0.80569 0.70612 0.0
C2255 C 0.7878 0.87813 0.75371 0.0
C2256 C 0.77368 0.87656 0.74572 0.0
C2257 C 0.79933 0.8669 0.75223 0.0
C2258 C 0.79688 0.85383 0.74286 0.0
C2259 C 0.78309 0.85259 0.73432 0.0
C2260 C 0.77156 0.86387 0.73574 0.0
C2261 C 0.80846 0.84119 0.74243 0.0
C2262 C 0.81488 0.83697 0.72811 0.0
C2263 C 0.81325 0.83341 0.75607 0.0
C2264 C 0.80656 0.83709 0.77149 0.0
C2265 C 0.79047 0.83613 0.77403 0.0
C2266 C 0.78423 0.84016 0.78844 0.0
C2267 C 0.79396 0.84509 0.80042 0.0
C2268 C 0.80997 0.84579 0.79809 0.0
C2269 C 0.81628 0.84178 0.78371 0.0
H2270 H 0.78912 0.8484 0.8115 0.0
H2271 H 0.84856 0.80993 0.67103 0.0
H2272 H 0.27382 0.12251 0.24762 0.0
H2273 H 0.27875 0.13765 0.22406 0.0
H2274 H 0.24414 0.111 0.19965 0.0
H2275 H 0.2394 0.09574 0.22291 0.0
H2276 H 0.26701 0.11781 0.1805 0.0
H2277 H 0.23303 0.14588 0.21433 0.0
H2278 H 0.22426 0.15758 0.2388 0.0
H2279 H 0.26557 0.18534 0.2407 0.0
H2280 H 0.27445 0.17393 0.21595 0.0
H2281 H 0.23707 0.19602 0.14476 0.0
H2282 H 0.23853 0.17651 0.16516 0.0
H2283 H 0.28153 0.15952 0.1459 0.0
H2284 H 0.27954 0.17855 0.12487 0.0
H2285 H 0.2573 0.17413 0.18695 0.0
H2286 H 0.28785 0.12202 0.15725 0.0
H2287 H 0.28939 0.10961 0.13152 0.0
H2288 H 0.24463 0.12794 0.1197 0.0
H2289 H 0.24275 0.14029 0.14542 0.0
C2290 C 0.26751 0.11971 0.23714 0.0
C2291 C 0.2561 0.1081 0.23714 0.0
C2292 C 0.2703 0.12837 0.22371 0.0
C2293 C 0.26166 0.12556 0.21017 0.0
C2294 C 0.25095 0.11335 0.20994 0.0
C2295 C 0.24819 0.10471 0.2233 0.0
C2296 C 0.26253 0.13623 0.19675 0.0
C2297 C 0.26508 0.13017 0.18186 0.0
C2298 C 0.25949 0.15223 0.19849 0.0
C2299 C 0.25448 0.15893 0.21346 0.0
C2300 C 0.24029 0.1544 0.22004 0.0
C2301 C 0.23528 0.16101 0.23394 0.0
C2302 C 0.24441 0.1721 0.24142 0.0
C2303 C 0.25853 0.1767 0.23492 0.0
C2304 C 0.26353 0.17023 0.22092 0.0
C2305 C 0.2467 0.18796 0.14478 0.0
C2306 C 0.2582 0.18874 0.13332 0.0
C2307 C 0.24758 0.17686 0.15646 0.0
C2308 C 0.26017 0.16655 0.15714 0.0
C2309 C 0.27158 0.16716 0.14551 0.0
C2310 C 0.27046 0.17804 0.13354 0.0
C2311 C 0.26156 0.15576 0.17049 0.0
C2312 C 0.25954 0.16184 0.18546 0.0
C2313 C 0.26427 0.13966 0.16866 0.0
C2314 C 0.26527 0.13225 0.15318 0.0
C2315 C 0.27834 0.12338 0.14916 0.0
C2316 C 0.27926 0.11636 0.13458 0.0
C2317 C 0.26715 0.11804 0.12396 0.0
C2318 C 0.25404 0.12671 0.12791 0.0
C2319 C 0.25305 0.13374 0.14248 0.0
H2320 H 0.26789 0.1126 0.11268 0.0
H2321 H 0.24051 0.1772 0.25221 0.0
H2322 H 0.83119 0.25264 0.11223 0.0
H2323 H 0.85654 0.2436 0.12153 0.0
H2324 H 0.85799 0.2815 0.15416 0.0
H2325 H 0.83292 0.29051 0.14492 0.0
H2326 H 0.88719 0.27261 0.14582 0.0
H2327 H 0.83807 0.24868 0.16294 0.0
H2328 H 0.81388 0.2342 0.15792 0.0
H2329 H 0.84014 0.1967 0.13835 0.0
H2330 H 0.86446 0.21109 0.14305 0.0
H2331 H 0.8983 0.25599 0.22386 0.0
H2332 H 0.89032 0.26231 0.19744 0.0
H2333 H 0.90445 0.21685 0.1821 0.0
H2334 H 0.91261 0.21048 0.20858 0.0
H2335 H 0.87431 0.22426 0.17422 0.0
H2336 H 0.92392 0.24659 0.1681 0.0
H2337 H 0.94688 0.26205 0.17524 0.0
H2338 H 0.91918 0.3034 0.17589 0.0
H2339 H 0.896 0.28818 0.16899 0.0
C2340 C 0.8373 0.2594 0.12088 0.0
C2341 C 0.83006 0.27207 0.12811 0.0
C2342 C 0.85173 0.25421 0.12621 0.0
C2343 C 0.85896 0.2617 0.13875 0.0
C2344 C 0.85261 0.27551 0.14452 0.0
C2345 C 0.83822 0.2806 0.13931 0.0
C2346 C 0.87094 0.25383 0.14818 0.0
C2347 C 0.88456 0.26192 0.15189 0.0
C2348 C 0.86761 0.2397 0.15586 0.0
C2349 C 0.85303 0.23101 0.15316 0.0
C2350 C 0.83865 0.23738 0.15749 0.0
C2351 C 0.82493 0.2292 0.1547 0.0
C2352 C 0.82548 0.21456 0.14779 0.0
C2353 C 0.83974 0.20806 0.14367 0.0
C2354 C 0.85349 0.21623 0.14637 0.0
C2355 C 0.89989 0.24742 0.21483 0.0
C2356 C 0.90599 0.23273 0.21827 0.0
C2357 C 0.89547 0.25108 0.19972 0.0
C2358 C 0.89699 0.24011 0.18779 0.0
C2359 C 0.90334 0.22552 0.19113 0.0
C2360 C 0.90794 0.2219 0.20624 0.0
C2361 C 0.89021 0.24344 0.1724 0.0
C2362 C 0.87748 0.23452 0.16766 0.0
C2363 C 0.89426 0.25691 0.16397 0.0
C2364 C 0.90819 0.26621 0.16804 0.0
C2365 C 0.9227 0.25897 0.16985 0.0
C2366 C 0.93576 0.26769 0.17385 0.0
C2367 C 0.93449 0.28369 0.17602 0.0
C2368 C 0.92015 0.29101 0.17418 0.0
C2369 C 0.90705 0.28234 0.17019 0.0
H2370 H 0.94462 0.29043 0.17912 0.0
H2371 H 0.81486 0.20822 0.14566 0.0
H2372 H 0.73184 0.87832 0.24129 0.0
H2373 H 0.72479 0.85984 0.22095 0.0
H2374 H 0.75537 0.88318 0.189 0.0
H2375 H 0.76253 0.90166 0.2093 0.0
H2376 H 0.72745 0.87364 0.17527 0.0
H2377 H 0.76798 0.85327 0.20727 0.0
H2378 H 0.78118 0.84453 0.23095 0.0
H2379 H 0.74542 0.81081 0.23885 0.0
H2380 H 0.73176 0.81962 0.21532 0.0
H2381 H 0.73836 0.81111 0.12152 0.0
H2382 H 0.74096 0.83303 0.1394 0.0
H2383 H 0.71614 0.80734 0.17446 0.0
H2384 H 0.7141 0.78528 0.15692 0.0
H2385 H 0.74098 0.81884 0.18624 0.0
H2386 H 0.70012 0.83921 0.15432 0.0
H2387 H 0.68759 0.84704 0.12984 0.0
H2388 H 0.72404 0.87988 0.12138 0.0
H2389 H 0.7369 0.8721 0.14572 0.0
C2390 C 0.7369 0.87965 0.22988 0.0
C2391 C 0.74789 0.89129 0.22693 0.0
C2392 C 0.73288 0.86908 0.21829 0.0
C2393 C 0.73972 0.87006 0.20356 0.0
C2394 C 0.74999 0.88223 0.20031 0.0
C2395 C 0.75412 0.89272 0.21193 0.0
C2396 C 0.73707 0.85774 0.19193 0.0
C2397 C 0.73049 0.86166 0.17757 0.0
C2398 C 0.74089 0.8421 0.19508 0.0
C2399 C 0.74873 0.83726 0.20962 0.0
C2400 C 0.76275 0.8442 0.2142 0.0
C2401 C 0.77033 0.83921 0.22761 0.0
C2402 C 0.76413 0.82713 0.23644 0.0
C2403 C 0.75021 0.82016 0.23199 0.0
C2404 C 0.74253 0.82518 0.21863 0.0
C2405 C 0.73335 0.81024 0.133 0.0
C2406 C 0.7261 0.79648 0.13787 0.0
C2407 C 0.73475 0.82279 0.14317 0.0
C2408 C 0.72859 0.82191 0.15823 0.0
C2409 C 0.72099 0.8083 0.16291 0.0
C2410 C 0.71987 0.79568 0.15289 0.0
C2411 C 0.73103 0.83459 0.1696 0.0
C2412 C 0.73775 0.83077 0.18391 0.0
C2413 C 0.72728 0.85025 0.16639 0.0
C2414 C 0.71955 0.85496 0.15177 0.0
C2415 C 0.70553 0.84802 0.14718 0.0
C2416 C 0.69835 0.85246 0.13334 0.0
C2417 C 0.70504 0.86392 0.12404 0.0
C2418 C 0.71889 0.87099 0.12858 0.0
C2419 C 0.72612 0.86658 0.14241 0.0
H2420 H 0.69946 0.86735 0.11333 0.0
H2421 H 0.77014 0.82308 0.24667 0.0
H2422 H 0.1421 0.73834 0.24118 0.0
H2423 H 0.16177 0.73407 0.22111 0.0
H2424 H 0.12876 0.74686 0.18583 0.0
H2425 H 0.10918 0.75171 0.20583 0.0
H2426 H 0.15293 0.7161 0.18364 0.0
H2427 H 0.14566 0.77279 0.18579 0.0
H2428 H 0.14343 0.79789 0.19935 0.0
H2429 H 0.18683 0.78962 0.22229 0.0
H2430 H 0.18921 0.76436 0.209 0.0
H2431 H 0.20141 0.73076 0.11846 0.0
H2432 H 0.18067 0.73124 0.13768 0.0
H2433 H 0.21393 0.74193 0.17348 0.0
H2434 H 0.23475 0.74165 0.15435 0.0
H2435 H 0.1891 0.76016 0.17555 0.0
H2436 H 0.19855 0.70565 0.17008 0.0
H2437 H 0.20165 0.68105 0.15587 0.0
H2438 H 0.1548 0.68438 0.13935 0.0
H2439 H 0.15149 0.70914 0.15329 0.0
C2440 C 0.13898 0.74005 0.22915 0.0
C2441 C 0.12419 0.74549 0.22504 0.0
C2442 C 0.1502 0.7376 0.21773 0.0
C2443 C 0.14663 0.74021 0.20209 0.0
C2444 C 0.13164 0.7448 0.19788 0.0
C2445 C 0.12053 0.74759 0.2093 0.0
C2446 C 0.15893 0.73937 0.19031 0.0
C2447 C 0.16077 0.72574 0.18168 0.0
C2448 C 0.16924 0.75186 0.18809 0.0
C2449 C 0.16751 0.76665 0.19658 0.0
C2450 C 0.1546 0.77622 0.19391 0.0
C2451 C 0.15334 0.79049 0.20148 0.0
C2452 C 0.16501 0.79532 0.21162 0.0
C2453 C 0.17784 0.78584 0.21439 0.0
C2454 C 0.17914 0.77156 0.20686 0.0
C2455 C 0.20436 0.73319 0.13043 0.0
C2456 C 0.21979 0.73616 0.13485 0.0
C2457 C 0.19248 0.73337 0.14141 0.0
C2458 C 0.19581 0.73641 0.15703 0.0
C2459 C 0.21114 0.73951 0.16148 0.0
C2460 C 0.22303 0.73935 0.15051 0.0
C2461 C 0.18324 0.73684 0.16869 0.0
C2462 C 0.18133 0.75043 0.17739 0.0
C2463 C 0.1729 0.72426 0.17092 0.0
C2464 C 0.17482 0.70933 0.16261 0.0
C2465 C 0.18895 0.7012 0.16332 0.0
C2466 C 0.19073 0.68721 0.15533 0.0
C2467 C 0.17844 0.68117 0.14668 0.0
C2468 C 0.16432 0.68908 0.14604 0.0
C2469 C 0.16247 0.70309 0.154 0.0
H2470 H 0.17985 0.67034 0.1405 0.0
H2471 H 0.16418 0.80644 0.21726 0.0
H2472 H 0.23845 0.86786 0.75503 0.0
H2473 H 0.23914 0.85204 0.77843 0.0
H2474 H 0.21322 0.88689 0.80316 0.0
H2475 H 0.21218 0.90284 0.77954 0.0
H2476 H 0.24355 0.87062 0.81788 0.0
H2477 H 0.19168 0.86198 0.79869 0.0
H2478 H 0.17287 0.85826 0.77746 0.0
H2479 H 0.19694 0.81715 0.76304 0.0
H2480 H 0.21584 0.82057 0.78426 0.0
H2481 H 0.24425 0.80758 0.87273 0.0
H2482 H 0.23447 0.83041 0.85887 0.0
H2483 H 0.23992 0.80629 0.81538 0.0
H2484 H 0.24926 0.78355 0.82897 0.0
H2485 H 0.21356 0.82156 0.81537 0.0
H2486 H 0.26736 0.83244 0.82976 0.0
H2487 H 0.28869 0.83648 0.8484 0.0
H2488 H 0.26322 0.87346 0.8699 0.0
H2489 H 0.24166 0.86951 0.85147 0.0
C2490 C 0.23297 0.87225 0.76544 0.0
C2491 C 0.22514 0.88652 0.76544 0.0
C2492 C 0.2334 0.86321 0.77878 0.0
C2493 C 0.22616 0.86833 0.79239 0.0
C2494 C 0.21885 0.88282 0.79269 0.0
C2495 C 0.21826 0.89185 0.77923 0.0
C2496 C 0.2258 0.85788 0.80586 0.0
C2497 C 0.23666 0.8601 0.81773 0.0
C2498 C 0.21694 0.84414 0.80535 0.0
C2499 C 0.20518 0.84156 0.79304 0.0
C2500 C 0.19294 0.85214 0.791 0.0
C2501 C 0.18225 0.85006 0.77898 0.0
C2502 C 0.18369 0.83746 0.76892 0.0
C2503 C 0.19578 0.82685 0.77091 0.0
C2504 C 0.20644 0.82881 0.78297 0.0
C2505 C 0.2433 0.80715 0.86022 0.0
C2506 C 0.24765 0.79375 0.85197 0.0
C2507 C 0.2377 0.82019 0.85233 0.0
C2508 C 0.23652 0.82007 0.83609 0.0
C2509 C 0.24062 0.80663 0.82792 0.0
C2510 C 0.24608 0.79363 0.83575 0.0
C2511 C 0.23178 0.83398 0.82722 0.0
C2512 C 0.21999 0.83236 0.81609 0.0
C2513 C 0.23991 0.84821 0.82834 0.0
C2514 C 0.25283 0.85054 0.83941 0.0
C2515 C 0.26627 0.84134 0.83855 0.0
C2516 C 0.2784 0.84363 0.84906 0.0
C2517 C 0.27728 0.85518 0.86037 0.0
C2518 C 0.26405 0.86449 0.86117 0.0
C2519 C 0.25187 0.86223 0.8507 0.0
H2520 H 0.28669 0.85694 0.86848 0.0
H2521 H 0.17546 0.83592 0.75957 0.0
H2522 H 0.14935 0.2532 0.74762 0.0
H2523 H 0.16653 0.25391 0.77033 0.0
H2524 H 0.12883 0.23876 0.79943 0.0
H2525 H 0.11181 0.23727 0.77669 0.0
H2526 H 0.14952 0.2707 0.80464 0.0
H2527 H 0.14684 0.21532 0.8009 0.0
H2528 H 0.14912 0.18905 0.79005 0.0
H2529 H 0.19779 0.19605 0.78259 0.0
H2530 H 0.19572 0.22266 0.79276 0.0
H2531 H 0.19321 0.26489 0.87557 0.0
H2532 H 0.17401 0.26037 0.85515 0.0
H2533 H 0.21074 0.25513 0.82165 0.0
H2534 H 0.22997 0.25972 0.84181 0.0
H2535 H 0.18874 0.23169 0.82034 0.0
H2536 H 0.19079 0.28774 0.8217 0.0
H2537 H 0.1889 0.31362 0.83371 0.0
H2538 H 0.14193 0.3042 0.84722 0.0
H2539 H 0.14356 0.27823 0.83532 0.0
C2540 C 0.14478 0.24993 0.75885 0.0
C2541 C 0.12929 0.24521 0.76047 0.0
C2542 C 0.1546 0.25021 0.77174 0.0
C2543 C 0.14896 0.24608 0.78642 0.0
C2544 C 0.13343 0.24164 0.7881 0.0
C2545 C 0.12374 0.24091 0.77516 0.0
C2546 C 0.15888 0.24799 0.80018 0.0
C2547 C 0.15795 0.26208 0.80824 0.0
C2548 C 0.16997 0.23676 0.80463 0.0
C2549 C 0.171 0.22122 0.79725 0.0
C2550 C 0.15793 0.2115 0.79649 0.0
C2551 C 0.15923 0.19646 0.79059 0.0
C2552 C 0.1736 0.19087 0.78567 0.0
C2553 C 0.1867 0.20035 0.78653 0.0
C2554 C 0.18543 0.21548 0.79222 0.0
C2555 C 0.19721 0.26282 0.86386 0.0
C2556 C 0.21314 0.26273 0.86033 0.0
C2557 C 0.18622 0.26029 0.85222 0.0
C2558 C 0.19101 0.2575 0.83693 0.0
C2559 C 0.20686 0.25728 0.8334 0.0
C2560 C 0.21782 0.25995 0.84496 0.0
C2561 C 0.17958 0.25449 0.82455 0.0
C2562 C 0.18024 0.24024 0.81676 0.0
C2563 C 0.16824 0.26552 0.82034 0.0
C2564 C 0.16735 0.281 0.82776 0.0
C2565 C 0.1801 0.29114 0.82735 0.0
C2566 C 0.17906 0.30585 0.83407 0.0
C2567 C 0.16531 0.31054 0.84123 0.0
C2568 C 0.15257 0.30054 0.84168 0.0
C2569 C 0.15354 0.28584 0.83491 0.0
H2570 H 0.16452 0.32194 0.84642 0.0
H2571 H 0.1746 0.1792 0.78115 0.0
H2572 H 0.73038 0.14016 0.76696 0.0
H2573 H 0.7305 0.15936 0.78783 0.0
H2574 H 0.77511 0.14252 0.80312 0.0
H2575 H 0.77463 0.12282 0.78276 0.0
H2576 H 0.75875 0.14956 0.82717 0.0
H2577 H 0.77112 0.17559 0.77961 0.0
H2578 H 0.76725 0.18362 0.75239 0.0
H2579 H 0.72434 0.20558 0.76461 0.0
H2580 H 0.72782 0.1976 0.79185 0.0
H2581 H 0.76538 0.23797 0.84958 0.0
H2582 H 0.76899 0.21651 0.83148 0.0
H2583 H 0.73584 0.18919 0.85715 0.0
H2584 H 0.73254 0.21042 0.87557 0.0
H2585 H 0.74956 0.2044 0.81245 0.0
H2586 H 0.74298 0.151 0.85319 0.0
H2587 H 0.74943 0.14351 0.88003 0.0
H2588 H 0.78611 0.17716 0.88089 0.0
H2589 H 0.78003 0.1847 0.854 0.0
C2590 C 0.74008 0.14043 0.77494 0.0
C2591 C 0.75248 0.13006 0.77328 0.0
C2592 C 0.74021 0.15146 0.78677 0.0
C2593 C 0.75299 0.15261 0.79682 0.0
C2594 C 0.76514 0.14187 0.7955 0.0
C2595 C 0.76485 0.13061 0.78387 0.0
C2596 C 0.75388 0.1653 0.80839 0.0
C2597 C 0.75676 0.16156 0.82396 0.0
C2598 C 0.75171 0.18101 0.80413 0.0
C2599 C 0.74967 0.1859 0.78776 0.0
C2600 C 0.76081 0.18206 0.77648 0.0
C2601 C 0.7587 0.1866 0.76105 0.0
C2602 C 0.74556 0.19504 0.75678 0.0
C2603 C 0.73451 0.19902 0.76793 0.0
C2604 C 0.73655 0.19452 0.78336 0.0
C2605 C 0.75893 0.22735 0.85143 0.0
C2606 C 0.74861 0.22591 0.86396 0.0
C2607 C 0.76102 0.21509 0.84108 0.0
C2608 C 0.75277 0.20119 0.843 0.0
C2609 C 0.74257 0.19968 0.8556 0.0
C2610 C 0.74062 0.21187 0.86607 0.0
C2611 C 0.75412 0.18866 0.83131 0.0
C2612 C 0.75165 0.19243 0.81568 0.0
C2613 C 0.7571 0.17306 0.83547 0.0
C2614 C 0.76094 0.16851 0.85161 0.0
C2615 C 0.75246 0.15675 0.85908 0.0
C2616 C 0.75604 0.15251 0.87431 0.0
C2617 C 0.76814 0.15989 0.88218 0.0
C2618 C 0.7767 0.17149 0.87481 0.0
C2619 C 0.77318 0.17577 0.85958 0.0
H2620 H 0.77088 0.15659 0.89397 0.0
H2621 H 0.74395 0.19853 0.74484 0.0
H2622 H 0.81699 0.77062 0.86298 0.0
H2623 H 0.84057 0.77312 0.84735 0.0
H2624 H 0.8553 0.72776 0.86247 0.0
H2625 H 0.83179 0.72542 0.87826 0.0
H2626 H 0.88055 0.74806 0.8541 0.0
H2627 H 0.83156 0.72865 0.8341 0.0
H2628 H 0.8034 0.73047 0.82952 0.0
H2629 H 0.8101 0.77228 0.80332 0.0
H2630 H 0.83828 0.77093 0.80811 0.0
H2631 H 0.89273 0.73096 0.76496 0.0
H2632 H 0.8799 0.72741 0.79001 0.0
H2633 H 0.90216 0.76871 0.80738 0.0
H2634 H 0.91506 0.77229 0.78245 0.0
H2635 H 0.85942 0.74842 0.80054 0.0
H2636 H 0.90458 0.76609 0.84717 0.0
H2637 H 0.93264 0.76341 0.85206 0.0
H2638 H 0.93379 0.72225 0.82407 0.0
H2639 H 0.90578 0.72461 0.81913 0.0
C2640 C 0.82562 0.76152 0.86341 0.0
C2641 C 0.82258 0.74775 0.87144 0.0
C2642 C 0.83907 0.76296 0.85459 0.0
C2643 C 0.84943 0.75045 0.8535 0.0
C2644 C 0.8474 0.73751 0.86315 0.0
C2645 C 0.83399 0.73617 0.87215 0.0
C2646 C 0.85996 0.74939 0.84005 0.0
C2647 C 0.87601 0.74821 0.84237 0.0
C2648 C 0.85391 0.74915 0.82479 0.0
C2649 C 0.837 0.74977 0.82159 0.0
C2650 C 0.82702 0.73829 0.82746 0.0
C2651 C 0.81105 0.73924 0.82483 0.0
C2652 C 0.80496 0.7515 0.81616 0.0
C2653 C 0.81483 0.76279 0.81003 0.0
C2654 C 0.8308 0.76196 0.81274 0.0
C2655 C 0.89514 0.73909 0.77422 0.0
C2656 C 0.90469 0.75203 0.7717 0.0
C2657 C 0.88782 0.73705 0.78851 0.0
C2658 C 0.89009 0.74781 0.80052 0.0
C2659 C 0.90039 0.76019 0.79833 0.0
C2660 C 0.90765 0.76227 0.78403 0.0
C2661 C 0.88014 0.74732 0.81446 0.0
C2662 C 0.86408 0.74824 0.81223 0.0
C2663 C 0.88623 0.74717 0.82971 0.0
C2664 C 0.90309 0.74562 0.83268 0.0
C2665 C 0.91082 0.75645 0.8421 0.0
C2666 C 0.92673 0.755 0.84486 0.0
C2667 C 0.93502 0.7427 0.83833 0.0
C2668 C 0.92741 0.73183 0.82905 0.0
C2669 C 0.91151 0.73324 0.82623 0.0
H2670 H 0.94732 0.74158 0.84053 0.0
H2671 H 0.79259 0.75223 0.81416 0.0
H2672 H 0.11389 0.24855 0.1729 0.0
H2673 H 0.12322 0.23944 0.14761 0.0
H2674 H 0.15939 0.27399 0.1486 0.0
H2675 H 0.15014 0.28308 0.17363 0.0
H2676 H 0.15136 0.26582 0.11847 0.0
H2677 H 0.16269 0.24107 0.16913 0.0
H2678 H 0.1531 0.22766 0.1925 0.0
H2679 H 0.13455 0.19114 0.1642 0.0
H2680 H 0.14346 0.20471 0.14061 0.0
H2681 H 0.22783 0.24472 0.10763 0.0
H2682 H 0.20227 0.25196 0.11738 0.0
H2683 H 0.18407 0.20753 0.10338 0.0
H2684 H 0.20972 0.20017 0.09355 0.0
H2685 H 0.1757 0.21581 0.13335 0.0
H2686 H 0.17337 0.23735 0.08326 0.0
H2687 H 0.18325 0.25147 0.06048 0.0
H2688 H 0.18538 0.29348 0.08709 0.0
H2689 H 0.17586 0.27955 0.11016 0.0
C2690 C 0.12337 0.25463 0.16734 0.0
C2691 C 0.13159 0.26622 0.17531 0.0
C2692 C 0.12867 0.24944 0.15291 0.0
C2693 C 0.1422 0.25582 0.14644 0.0
C2694 C 0.14899 0.26884 0.15342 0.0
C2695 C 0.14379 0.27393 0.16781 0.0
C2696 C 0.15158 0.24714 0.13501 0.0
C2697 C 0.15652 0.25477 0.12151 0.0
C2698 C 0.15807 0.23254 0.13889 0.0
C2699 C 0.15351 0.22401 0.15311 0.0
C2700 C 0.15646 0.23024 0.16789 0.0
C2701 C 0.15104 0.22268 0.18117 0.0
C2702 C 0.14312 0.20861 0.17983 0.0
C2703 C 0.14061 0.20208 0.16521 0.0
C2704 C 0.14575 0.20975 0.15188 0.0
C2705 C 0.2184 0.2365 0.10661 0.0
C2706 C 0.22074 0.22189 0.09985 0.0
C2707 C 0.20378 0.24068 0.11208 0.0
C2708 C 0.19126 0.23034 0.11088 0.0
C2709 C 0.19358 0.21568 0.1043 0.0
C2710 C 0.20822 0.21151 0.09872 0.0
C2711 C 0.17598 0.23487 0.11719 0.0
C2712 C 0.17006 0.22647 0.12978 0.0
C2713 C 0.16862 0.24874 0.11246 0.0
C2714 C 0.1739 0.25737 0.09848 0.0
C2715 C 0.176 0.24959 0.08429 0.0
C2716 C 0.18155 0.25755 0.07132 0.0
C2717 C 0.18493 0.27336 0.07233 0.0
C2718 C 0.18273 0.28123 0.08632 0.0
C2719 C 0.17724 0.27331 0.09935 0.0
H2720 H 0.18926 0.2795 0.06228 0.0
H2721 H 0.13908 0.20268 0.19011 0.0
H2722 H 0.21102 0.74967 0.88735 0.0
H2723 H 0.19019 0.74456 0.86894 0.0
H2724 H 0.22381 0.73155 0.83429 0.0
H2725 H 0.24482 0.73642 0.85281 0.0
H2726 H 0.20313 0.75552 0.8253 0.0
H2727 H 0.20088 0.70453 0.8474 0.0
H2728 H 0.19958 0.68551 0.8687 0.0
H2729 H 0.15591 0.70443 0.88327 0.0
H2730 H 0.15705 0.72372 0.86219 0.0
H2731 H 0.14579 0.73763 0.76936 0.0
H2732 H 0.1678 0.73638 0.78706 0.0
H2733 H 0.13725 0.74455 0.82581 0.0
H2734 H 0.11509 0.74583 0.80812 0.0
H2735 H 0.15737 0.72123 0.83173 0.0
H2736 H 0.1606 0.77383 0.81419 0.0
H2737 H 0.16114 0.79501 0.79497 0.0
H2738 H 0.20157 0.77512 0.77383 0.0
H2739 H 0.20133 0.75386 0.79303 0.0
C2740 C 0.21398 0.74538 0.87592 0.0
C2741 C 0.22954 0.74362 0.87143 0.0
C2742 C 0.20207 0.74243 0.86544 0.0
C2743 C 0.2055 0.73771 0.85028 0.0
C2744 C 0.22098 0.73519 0.84597 0.0
C2745 C 0.23294 0.73795 0.85656 0.0
C2746 C 0.19297 0.737 0.83865 0.0
C2747 C 0.19329 0.74776 0.82646 0.0
C2748 C 0.1799 0.72733 0.84064 0.0
C2749 C 0.1791 0.71565 0.85326 0.0
C2750 C 0.19105 0.70471 0.85521 0.0
C2751 C 0.19033 0.69387 0.86723 0.0
C2752 C 0.17768 0.69378 0.87735 0.0
C2753 C 0.1657 0.70452 0.87543 0.0
C2754 C 0.16637 0.71539 0.86343 0.0
C2755 C 0.14376 0.73933 0.78163 0.0
C2756 C 0.12872 0.74203 0.78732 0.0
C2757 C 0.15635 0.73859 0.79172 0.0
C2758 C 0.15416 0.74052 0.80771 0.0
C2759 C 0.13916 0.74304 0.81349 0.0
C2760 C 0.12654 0.74381 0.80337 0.0
C2761 C 0.16753 0.73975 0.81839 0.0
C2762 C 0.16733 0.7288 0.83042 0.0
C2763 C 0.18061 0.74945 0.81648 0.0
C2764 C 0.18085 0.76219 0.80493 0.0
C2765 C 0.16957 0.77395 0.80541 0.0
C2766 C 0.16988 0.78601 0.79459 0.0
C2767 C 0.18135 0.78637 0.78317 0.0
C2768 C 0.19267 0.7748 0.78267 0.0
C2769 C 0.1925 0.76278 0.79356 0.0
H2770 H 0.1814 0.79558 0.77466 0.0
H2771 H 0.17715 0.68538 0.88665 0.0
H2772 H 0.23461 0.2156 0.89883 0.0
H2773 H 0.24173 0.19571 0.88003 0.0
H2774 H 0.27385 0.22739 0.85851 0.0
H2775 H 0.26717 0.24731 0.87771 0.0
H2776 H 0.24954 0.21275 0.83862 0.0
H2777 H 0.28907 0.19962 0.87658 0.0
H2778 H 0.29755 0.19301 0.90308 0.0
H2779 H 0.26835 0.15269 0.90264 0.0
H2780 H 0.25953 0.15918 0.87621 0.0
H2781 H 0.28044 0.16381 0.78226 0.0
H2782 H 0.27748 0.18178 0.8038 0.0
H2783 H 0.2569 0.1455 0.83143 0.0
H2784 H 0.26026 0.12721 0.80994 0.0
H2785 H 0.27506 0.16222 0.84895 0.0
H2786 H 0.23471 0.17311 0.81378 0.0
H2787 H 0.22177 0.17885 0.78896 0.0
H2788 H 0.24649 0.22193 0.78572 0.0
H2789 H 0.25988 0.21629 0.81036 0.0
C2790 C 0.24351 0.21823 0.89037 0.0
C2791 C 0.25039 0.233 0.88978 0.0
C2792 C 0.2475 0.20687 0.87961 0.0
C2793 C 0.25828 0.21013 0.86794 0.0
C2794 C 0.2655 0.22471 0.8675 0.0
C2795 C 0.26172 0.23603 0.87848 0.0
C2796 C 0.26113 0.19863 0.85559 0.0
C2797 C 0.25543 0.20183 0.84072 0.0
C2798 C 0.26794 0.18407 0.85873 0.0
C2799 C 0.27356 0.17995 0.87445 0.0
C2800 C 0.28439 0.18939 0.88217 0.0
C2801 C 0.28927 0.18566 0.89717 0.0
C2802 C 0.28347 0.17245 0.90455 0.0
C2803 C 0.27283 0.16291 0.89691 0.0
C2804 C 0.26791 0.1666 0.88191 0.0
C2805 C 0.27532 0.1596 0.79292 0.0
C2806 C 0.27044 0.14411 0.79433 0.0
C2807 C 0.27359 0.16992 0.80522 0.0
C2808 C 0.26666 0.16509 0.81912 0.0
C2809 C 0.26222 0.1495 0.82078 0.0
C2810 C 0.26413 0.13907 0.80849 0.0
C2811 C 0.26385 0.17646 0.83172 0.0
C2812 C 0.26936 0.1732 0.8467 0.0
C2813 C 0.25632 0.19079 0.82883 0.0
C2814 C 0.24846 0.19418 0.81386 0.0
C2815 C 0.23754 0.18373 0.8077 0.0
C2816 C 0.2301 0.18698 0.79367 0.0
C2817 C 0.23333 0.20073 0.78575 0.0
C2818 C 0.24402 0.21127 0.79185 0.0
C2819 C 0.25155 0.20804 0.80585 0.0
H2820 H 0.22751 0.20325 0.77491 0.0
H2821 H 0.28723 0.1696 0.91617 0.0
H2822 H 0.78397 0.23523 0.90007 0.0
H2823 H 0.80653 0.23755 0.88333 0.0
H2824 H 0.79621 0.286 0.876 0.0
H2825 H 0.77298 0.28343 0.89212 0.0
H2826 H 0.80048 0.27389 0.8501 0.0
H2827 H 0.82995 0.27218 0.8965 0.0
H2828 H 0.83829 0.26268 0.92214 0.0
H2829 H 0.85164 0.21916 0.90199 0.0
H2830 H 0.84319 0.22831 0.87626 0.0
H2831 H 0.88308 0.26819 0.81516 0.0
H2832 H 0.86688 0.27022 0.83839 0.0
H2833 H 0.83035 0.2452 0.81516 0.0
H2834 H 0.84626 0.2433 0.7919 0.0
H2835 H 0.85231 0.25024 0.85806 0.0
H2836 H 0.79643 0.26226 0.82231 0.0
H2837 H 0.78909 0.27416 0.79735 0.0
H2838 H 0.83039 0.30195 0.79815 0.0
H2839 H 0.83787 0.29038 0.8232 0.0
C2840 C 0.7867 0.24648 0.89519 0.0
C2841 C 0.77673 0.25917 0.89736 0.0
C2842 C 0.7997 0.24782 0.88567 0.0
C2843 C 0.80325 0.262 0.87849 0.0
C2844 C 0.79373 0.27492 0.88138 0.0
C2845 C 0.7805 0.27348 0.89062 0.0
C2846 C 0.81568 0.2628 0.86659 0.0
C2847 C 0.81185 0.26886 0.85197 0.0
C2848 C 0.83067 0.25646 0.86898 0.0
C2849 C 0.83585 0.25092 0.88444 0.0
C2850 C 0.83458 0.26055 0.89754 0.0
C2851 C 0.83934 0.25523 0.9121 0.0
C2852 C 0.84547 0.24032 0.9137 0.0
C2853 C 0.84689 0.23071 0.90073 0.0
C2854 C 0.84214 0.23597 0.88615 0.0
C2855 C 0.87166 0.26296 0.81505 0.0
C2856 C 0.86587 0.2558 0.80157 0.0
C2857 C 0.86245 0.26412 0.82835 0.0
C2858 C 0.84732 0.25814 0.82837 0.0
C2859 C 0.84188 0.25018 0.81526 0.0
C2860 C 0.85101 0.24909 0.80198 0.0
C2861 C 0.83681 0.26088 0.84166 0.0
C2862 C 0.841 0.25547 0.85641 0.0
C2863 C 0.82228 0.2682 0.83957 0.0
C2864 C 0.81776 0.27536 0.82458 0.0
C2865 C 0.80391 0.27096 0.81719 0.0
C2866 C 0.79973 0.27764 0.80302 0.0
C2867 C 0.80929 0.28878 0.79615 0.0
C2868 C 0.82303 0.29329 0.80346 0.0
C2869 C 0.82725 0.28666 0.81763 0.0
H2870 H 0.80604 0.29392 0.78518 0.0
H2871 H 0.84914 0.23622 0.92497 0.0
H2872 H 0.7297 0.83556 0.77781 0.0
H2873 H 0.73338 0.82002 0.80116 0.0
H2874 H 0.75389 0.85932 0.82429 0.0
H2875 H 0.75008 0.8751 0.80092 0.0
H2876 H 0.77181 0.83185 0.82512 0.0
H2877 H 0.72019 0.84803 0.83663 0.0
H2878 H 0.69252 0.85274 0.83124 0.0
H2879 H 0.6855 0.80411 0.82329 0.0
H2880 H 0.71318 0.79911 0.82841 0.0
H2881 H 0.77985 0.78572 0.89345 0.0
H2882 H 0.77256 0.80723 0.87636 0.0
H2883 H 0.7468 0.77557 0.84743 0.0
H2884 H 0.75405 0.75407 0.86439 0.0
H2885 H 0.73081 0.8025 0.85272 0.0
H2886 H 0.78158 0.78689 0.83545 0.0
H2887 H 0.80949 0.78117 0.83748 0.0
H2888 H 0.81809 0.82736 0.8539 0.0
H2889 H 0.79017 0.83339 0.85191 0.0
C2890 C 0.73483 0.84097 0.78791 0.0
C2891 C 0.73961 0.85654 0.78753 0.0
C2892 C 0.73683 0.8321 0.80127 0.0
C2893 C 0.74376 0.83859 0.81447 0.0
C2894 C 0.74839 0.85418 0.81424 0.0
C2895 C 0.74617 0.86316 0.80091 0.0
C2896 C 0.74726 0.82859 0.82793 0.0
C2897 C 0.76285 0.82576 0.83147 0.0
C2898 C 0.73552 0.82029 0.8358 0.0
C2899 C 0.71881 0.82321 0.83281 0.0
C2900 C 0.71278 0.83835 0.83362 0.0
C2901 C 0.69708 0.84107 0.83063 0.0
C2902 C 0.68726 0.82874 0.8269 0.0
C2903 C 0.69312 0.81365 0.82618 0.0
C2904 C 0.70881 0.81086 0.82915 0.0
C2905 C 0.77256 0.78339 0.8835 0.0
C2906 C 0.76756 0.76823 0.8802 0.0
C2907 C 0.76844 0.79566 0.87374 0.0
C2908 C 0.75921 0.79295 0.86061 0.0
C2909 C 0.7539 0.7779 0.85754 0.0
C2910 C 0.7581 0.76563 0.8672 0.0
C2911 C 0.75541 0.80567 0.84974 0.0
C2912 C 0.73976 0.80892 0.84665 0.0
C2913 C 0.7671 0.81423 0.84208 0.0
C2914 C 0.78378 0.81051 0.84378 0.0
C2915 C 0.7894 0.79577 0.83966 0.0
C2916 C 0.80523 0.7925 0.84072 0.0
C2917 C 0.81556 0.80385 0.8459 0.0
C2918 C 0.81007 0.81855 0.84995 0.0
C2919 C 0.79425 0.82192 0.84882 0.0
H2920 H 0.82781 0.80127 0.84673 0.0
H2921 H 0.67511 0.83087 0.82458 0.0
H2922 H 0.74598 0.74279 0.12898 0.0
H2923 H 0.76742 0.73795 0.14689 0.0
H2924 H 0.79902 0.76059 0.11547 0.0
H2925 H 0.77748 0.76594 0.09765 0.0
H2926 H 0.80913 0.72995 0.13154 0.0
H2927 H 0.79062 0.78192 0.13985 0.0
H2928 H 0.77084 0.80211 0.14414 0.0
H2929 H 0.75663 0.77959 0.18618 0.0
H2930 H 0.77607 0.75901 0.18193 0.0
H2931 H 0.86886 0.74018 0.1887 0.0
H2932 H 0.85095 0.74332 0.16691 0.0
H2933 H 0.81216 0.73679 0.19782 0.0
H2934 H 0.82989 0.7341 0.21964 0.0
H2935 H 0.80716 0.76071 0.18012 0.0
H2936 H 0.82493 0.70826 0.17161 0.0
H2937 H 0.84447 0.68781 0.16741 0.0
H2938 H 0.86006 0.71086 0.12613 0.0
H2939 H 0.84073 0.73156 0.1302 0.0
C2940 C 0.7575 0.74656 0.12577 0.0
C2941 C 0.76005 0.75491 0.11203 0.0
C2942 C 0.76972 0.74378 0.136 0.0
C2943 C 0.7847 0.74902 0.13248 0.0
C2944 C 0.78749 0.75649 0.11833 0.0
C2945 C 0.7752 0.75958 0.10823 0.0
C2946 C 0.79708 0.74773 0.1442 0.0
C2947 C 0.8089 0.73679 0.14209 0.0
C2948 C 0.79653 0.75657 0.15797 0.0
C2949 C 0.78467 0.7688 0.16046 0.0
C2950 C 0.78313 0.78113 0.14988 0.0
C2951 C 0.77201 0.79266 0.15233 0.0
C2952 C 0.76249 0.7921 0.16541 0.0
C2953 C 0.76401 0.77998 0.17604 0.0
C2954 C 0.77506 0.76837 0.17361 0.0
C2955 C 0.85651 0.7393 0.19082 0.0
C2956 C 0.8508 0.73693 0.20591 0.0
C2957 C 0.8463 0.74104 0.17835 0.0
C2958 C 0.83021 0.74018 0.18071 0.0
C2959 C 0.82452 0.73756 0.19573 0.0
C2960 C 0.83469 0.736 0.20819 0.0
C2961 C 0.81915 0.74258 0.16776 0.0
C2962 C 0.80754 0.75384 0.16959 0.0
C2963 C 0.8199 0.73398 0.15377 0.0
C2964 C 0.8315 0.72154 0.15131 0.0
C2965 C 0.83261 0.70903 0.16171 0.0
C2966 C 0.84363 0.69738 0.15933 0.0
C2967 C 0.85353 0.69806 0.14653 0.0
C2968 C 0.8524 0.71036 0.13605 0.0
C2969 C 0.84141 0.72205 0.13838 0.0
H2970 H 0.86205 0.68903 0.14471 0.0
H2971 H 0.75402 0.80111 0.16735 0.0
H2972 H 0.27539 0.7671 0.10233 0.0
H2973 H 0.27962 0.79087 0.11734 0.0
H2974 H 0.23062 0.80094 0.11504 0.0
H2975 H 0.22658 0.77787 0.09932 0.0
H2976 H 0.24486 0.82668 0.11454 0.0
H2977 H 0.24884 0.78053 0.14645 0.0
H2978 H 0.25977 0.75525 0.15423 0.0
H2979 H 0.30464 0.77603 0.15984 0.0
H2980 H 0.29403 0.80141 0.15194 0.0
H2981 H 0.23456 0.84918 0.19724 0.0
H2982 H 0.2362 0.83289 0.17407 0.0
H2983 H 0.27484 0.85995 0.15758 0.0
H2984 H 0.273 0.87666 0.18052 0.0
H2985 H 0.26965 0.81823 0.16575 0.0
H2986 H 0.26274 0.86559 0.13245 0.0
H2987 H 0.24865 0.88981 0.12661 0.0
H2988 H 0.20555 0.86487 0.12616 0.0
H2989 H 0.21941 0.84056 0.13226 0.0
C2990 C 0.26562 0.77458 0.10482 0.0
C2991 C 0.25066 0.77062 0.09981 0.0
C2992 C 0.26801 0.7881 0.11344 0.0
C2993 C 0.25538 0.79752 0.11765 0.0
C2994 C 0.24057 0.79391 0.11197 0.0
C2995 C 0.23825 0.78065 0.10303 0.0
C2996 C 0.25716 0.81035 0.129 0.0
C2997 C 0.25043 0.82482 0.12566 0.0
C2998 C 0.26436 0.80803 0.14359 0.0
C2999 C 0.2707 0.79281 0.14844 0.0
C3000 C 0.26106 0.77968 0.14927 0.0
C3001 C 0.26718 0.76534 0.1537 0.0
C3002 C 0.28288 0.76403 0.15747 0.0
C3003 C 0.29249 0.77706 0.15688 0.0
C3004 C 0.28643 0.79142 0.15243 0.0
C3005 C 0.24326 0.8518 0.18858 0.0
C3006 C 0.25368 0.86415 0.19069 0.0
C3007 C 0.24414 0.84255 0.17535 0.0
C3008 C 0.25551 0.84539 0.16411 0.0
C3009 C 0.26579 0.85782 0.16601 0.0
C3010 C 0.26475 0.86729 0.17913 0.0
C3011 C 0.25738 0.83434 0.15121 0.0
C3012 C 0.26459 0.82016 0.15439 0.0
C3013 C 0.25037 0.8368 0.13665 0.0
C3014 C 0.24207 0.85136 0.13303 0.0
C3015 C 0.25025 0.86533 0.13131 0.0
C3016 C 0.24231 0.87906 0.1279 0.0
C3017 C 0.22621 0.87889 0.12608 0.0
C3018 C 0.21802 0.86499 0.12762 0.0
C3019 C 0.2259 0.85125 0.13105 0.0
H3020 H 0.22009 0.88952 0.12342 0.0
H3021 H 0.2876 0.75291 0.16089 0.0
H3022 H 0.75042 0.12808 0.19648 0.0
H3023 H 0.75838 0.14993 0.18014 0.0
H3024 H 0.73789 0.18189 0.21267 0.0
H3025 H 0.73017 0.16014 0.22924 0.0
H3026 H 0.73147 0.18753 0.17973 0.0
H3027 H 0.77303 0.17849 0.21555 0.0
H3028 H 0.79241 0.16254 0.22913 0.0
H3029 H 0.8148 0.15236 0.18589 0.0
H3030 H 0.79521 0.16787 0.17193 0.0
H3031 H 0.76467 0.25616 0.15054 0.0
H3032 H 0.75831 0.23581 0.1693 0.0
H3033 H 0.7834 0.20244 0.14176 0.0
H3034 H 0.78988 0.22271 0.12304 0.0
H3035 H 0.78772 0.19795 0.17319 0.0
H3036 H 0.74573 0.205 0.13724 0.0
H3037 H 0.72595 0.21989 0.12295 0.0
H3038 H 0.70448 0.23305 0.16589 0.0
H3039 H 0.72429 0.21842 0.18046 0.0
C3040 C 0.74742 0.13976 0.20002 0.0
C3041 C 0.73974 0.14247 0.21412 0.0
C3042 C 0.75205 0.15218 0.19075 0.0
C3043 C 0.74883 0.16744 0.19535 0.0
C3044 C 0.74051 0.17016 0.20903 0.0
C3045 C 0.73615 0.15776 0.21846 0.0
C3046 C 0.75458 0.1806 0.1861 0.0
C3047 C 0.74375 0.18998 0.17847 0.0
C3048 C 0.77062 0.18347 0.18429 0.0
C3049 C 0.78251 0.17421 0.19266 0.0
C3050 C 0.78196 0.17271 0.20889 0.0
C3051 C 0.79302 0.16377 0.21668 0.0
C3052 C 0.80485 0.15645 0.2084 0.0
C3053 C 0.80562 0.15803 0.1923 0.0
C3054 C 0.79452 0.16688 0.18443 0.0
C3055 C 0.769 0.24453 0.14861 0.0
C3056 C 0.77754 0.24093 0.13523 0.0
C3057 C 0.76536 0.23294 0.1593 0.0
C3058 C 0.77021 0.21761 0.15676 0.0
C3059 C 0.77951 0.2142 0.14388 0.0
C3060 C 0.78311 0.22576 0.13317 0.0
C3061 C 0.76459 0.20492 0.16681 0.0
C3062 C 0.77544 0.19558 0.17455 0.0
C3063 C 0.74855 0.20199 0.16867 0.0
C3064 C 0.7366 0.21077 0.15994 0.0
C3065 C 0.73687 0.21118 0.14364 0.0
C3066 C 0.72564 0.21956 0.13549 0.0
C3067 C 0.71399 0.22746 0.14351 0.0
C3068 C 0.71353 0.22696 0.1597 0.0
C3069 C 0.72475 0.21862 0.16791 0.0
H3070 H 0.7053 0.23393 0.13717 0.0
H3071 H 0.81343 0.14959 0.21448 0.0
H3072 H 0.69517 0.62992 0.77162 0.0
H3073 H 0.67518 0.64994 0.77078 0.0
H3074 H 0.70691 0.68091 0.74768 0.0
H3075 H 0.72698 0.66094 0.74833 0.0
H3076 H 0.6739 0.67908 0.78283 0.0
H3077 H 0.68434 0.70247 0.72054 0.0
H3078 H 0.69446 0.6937 0.69534 0.0
H3079 H 0.68477 0.64643 0.70751 0.0
H3080 H 0.674 0.65494 0.73257 0.0
H3081 H 0.63285 0.75018 0.76569 0.0
H3082 H 0.65249 0.73004 0.77004 0.0
H3083 H 0.62646 0.69843 0.74133 0.0
H3084 H 0.60695 0.71835 0.73691 0.0
H3085 H 0.6565 0.70057 0.7324 0.0
H3086 H 0.62759 0.69289 0.77939 0.0
H3087 H 0.61545 0.70095 0.80398 0.0
H3088 H 0.65986 0.71486 0.82166 0.0
H3089 H 0.67225 0.70707 0.79708 0.0
C3090 C 0.69794 0.64098 0.76637 0.0
C3091 C 0.71268 0.64378 0.75997 0.0
C3092 C 0.68651 0.65243 0.76598 0.0
C3093 C 0.68955 0.66684 0.75908 0.0
C3094 C 0.7043 0.6698 0.75292 0.0
C3095 C 0.71576 0.65837 0.75334 0.0
C3096 C 0.67712 0.67863 0.75805 0.0
C3097 C 0.67013 0.68383 0.77181 0.0
C3098 C 0.67213 0.68469 0.74364 0.0
C3099 C 0.67862 0.67935 0.72859 0.0
C3100 C 0.68435 0.6902 0.71785 0.0
C3101 C 0.69018 0.68527 0.70356 0.0
C3102 C 0.69044 0.66951 0.69988 0.0
C3103 C 0.68468 0.65864 0.71042 0.0
C3104 C 0.67869 0.66351 0.72468 0.0
C3105 C 0.63122 0.73885 0.76053 0.0
C3106 C 0.61845 0.73587 0.75087 0.0
C3107 C 0.64242 0.72738 0.76302 0.0
C3108 C 0.64093 0.7128 0.75593 0.0
C3109 C 0.62786 0.70964 0.74681 0.0
C3110 C 0.6167 0.72104 0.74435 0.0
C3111 C 0.65335 0.70105 0.75715 0.0
C3112 C 0.66037 0.6959 0.74342 0.0
C3113 C 0.65823 0.69492 0.77153 0.0
C3114 C 0.65082 0.69954 0.78634 0.0
C3115 C 0.63475 0.69779 0.78847 0.0
C3116 C 0.62783 0.70228 0.80242 0.0
C3117 C 0.63687 0.70845 0.81436 0.0
C3118 C 0.65287 0.7101 0.81239 0.0
C3119 C 0.65985 0.70563 0.79846 0.0
H3120 H 0.63149 0.71193 0.82515 0.0
H3121 H 0.69501 0.66573 0.68882 0.0
H3122 H 0.2807 0.60616 0.74308 0.0
H3123 H 0.30227 0.62431 0.74136 0.0
H3124 H 0.28913 0.64422 0.78536 0.0
H3125 H 0.26702 0.62648 0.78677 0.0
H3126 H 0.29366 0.66614 0.76581 0.0
H3127 H 0.32265 0.62095 0.7802 0.0
H3128 H 0.33139 0.59378 0.77835 0.0
H3129 H 0.34896 0.60228 0.73256 0.0
H3130 H 0.34015 0.62945 0.73406 0.0
H3131 H 0.37943 0.69274 0.76975 0.0
H3132 H 0.35989 0.6725 0.77172 0.0
H3133 H 0.33144 0.69653 0.73827 0.0
H3134 H 0.35079 0.71724 0.73666 0.0
H3135 H 0.34803 0.65243 0.75306 0.0
H3136 H 0.29361 0.69083 0.7464 0.0
H3137 H 0.28544 0.71787 0.75093 0.0
H3138 H 0.31982 0.72254 0.78664 0.0
H3139 H 0.32806 0.69548 0.78245 0.0
C3140 C 0.2826 0.61417 0.75256 0.0
C3141 C 0.27224 0.61489 0.76511 0.0
C3142 C 0.29496 0.62455 0.75156 0.0
C3143 C 0.29741 0.63557 0.76329 0.0
C3144 C 0.28743 0.63585 0.77615 0.0
C3145 C 0.27489 0.62565 0.77702 0.0
C3146 C 0.30973 0.64744 0.76164 0.0
C3147 C 0.30557 0.66311 0.76309 0.0
C3148 C 0.32527 0.64353 0.75811 0.0
C3149 C 0.33062 0.62721 0.7572 0.0
C3150 C 0.32828 0.617 0.7697 0.0
C3151 C 0.33326 0.6016 0.76872 0.0
C3152 C 0.34069 0.5963 0.75534 0.0
C3153 C 0.34319 0.6064 0.74292 0.0
C3154 C 0.33822 0.6218 0.74383 0.0
C3155 C 0.36905 0.69373 0.76275 0.0
C3156 C 0.36659 0.70668 0.75315 0.0
C3157 C 0.3579 0.6821 0.76386 0.0
C3158 C 0.34411 0.68309 0.75531 0.0
C3159 C 0.34186 0.6957 0.74524 0.0
C3160 C 0.35294 0.7075 0.74429 0.0
C3161 C 0.33198 0.67108 0.75736 0.0
C3162 C 0.33614 0.65542 0.75584 0.0
C3163 C 0.31652 0.67496 0.76124 0.0
C3164 C 0.31155 0.69119 0.76398 0.0
C3165 C 0.29938 0.69762 0.75525 0.0
C3166 C 0.29475 0.71295 0.75775 0.0
C3167 C 0.30214 0.72193 0.76903 0.0
C3168 C 0.31414 0.71559 0.77787 0.0
C3169 C 0.31881 0.70026 0.77542 0.0
H3170 H 0.29854 0.7338 0.77094 0.0
H3171 H 0.34453 0.58438 0.7546 0.0
H3172 H 0.39368 0.28222 0.72666 0.0
H3173 H 0.37893 0.30457 0.73614 0.0
H3174 H 0.3562 0.27533 0.76974 0.0
H3175 H 0.37097 0.25296 0.76041 0.0
H3176 H 0.33601 0.29346 0.75089 0.0
H3177 H 0.38301 0.29945 0.78156 0.0
H3178 H 0.41135 0.30218 0.78414 0.0
H3179 H 0.41003 0.34403 0.75722 0.0
H3180 H 0.38169 0.34141 0.75425 0.0
H3181 H 0.29291 0.33982 0.7948 0.0
H3182 H 0.31704 0.3254 0.79194 0.0
H3183 H 0.33319 0.35876 0.75841 0.0
H3184 H 0.30906 0.37348 0.76145 0.0
H3185 H 0.35806 0.34059 0.77568 0.0
H3186 H 0.31319 0.33558 0.74371 0.0
H3187 H 0.28512 0.33418 0.73911 0.0
H3188 H 0.28283 0.29137 0.76441 0.0
H3189 H 0.31094 0.29282 0.76966 0.0
C3190 C 0.3856 0.28059 0.73614 0.0
C3191 C 0.38339 0.26586 0.74277 0.0
C3192 C 0.37726 0.29336 0.74156 0.0
C3193 C 0.36655 0.29156 0.75365 0.0
C3194 C 0.36445 0.27691 0.7604 0.0
C3195 C 0.3729 0.26417 0.75509 0.0
C3196 C 0.35687 0.30474 0.75875 0.0
C3197 C 0.34083 0.30366 0.75648 0.0
C3198 C 0.36328 0.31834 0.76537 0.0
C3199 C 0.38024 0.32016 0.76758 0.0
C3200 C 0.38877 0.30919 0.77611 0.0
C3201 C 0.40483 0.31072 0.77765 0.0
C3202 C 0.41249 0.32325 0.77081 0.0
C3203 C 0.40408 0.33432 0.76249 0.0
C3204 C 0.38802 0.33283 0.7609 0.0
C3205 C 0.3019 0.34448 0.78737 0.0
C3206 C 0.29903 0.35752 0.77806 0.0
C3207 C 0.31573 0.3363 0.78583 0.0
C3208 C 0.32669 0.34086 0.77472 0.0
C3209 C 0.32484 0.35508 0.76704 0.0
C3210 C 0.31101 0.36343 0.76873 0.0
C3211 C 0.33722 0.32896 0.76833 0.0
C3212 C 0.35331 0.33034 0.77014 0.0
C3213 C 0.33096 0.31574 0.76087 0.0
C3214 C 0.31414 0.31446 0.75733 0.0
C3215 C 0.30667 0.32601 0.74856 0.0
C3216 C 0.29073 0.32522 0.74584 0.0
C3217 C 0.28213 0.31276 0.75158 0.0
C3218 C 0.2895 0.30105 0.76003 0.0
C3219 C 0.30544 0.30187 0.7629 0.0
H3220 H 0.2698 0.31212 0.74936 0.0
H3221 H 0.42493 0.32439 0.77198 0.0
H3222 H 0.655 0.27555 0.74952 0.0
H3223 H 0.67186 0.29831 0.74795 0.0
H3224 H 0.63533 0.32691 0.76646 0.0
H3225 H 0.61813 0.30433 0.76761 0.0
H3226 H 0.66201 0.33088 0.73246 0.0
H3227 H 0.6618 0.34564 0.79702 0.0
H3228 H 0.65987 0.33325 0.82276 0.0
H3229 H 0.67802 0.29087 0.80401 0.0
H3230 H 0.68034 0.30309 0.77827 0.0
H3231 H 0.70524 0.40037 0.73873 0.0
H3232 H 0.684 0.38207 0.74301 0.0
H3233 H 0.71563 0.35086 0.76606 0.0
H3234 H 0.7366 0.36946 0.76261 0.0
H3235 H 0.68921 0.34938 0.77966 0.0
H3236 H 0.70556 0.34921 0.72533 0.0
H3237 H 0.70958 0.36116 0.69957 0.0
H3238 H 0.66125 0.37255 0.69698 0.0
H3239 H 0.65697 0.36096 0.72278 0.0
C3240 C 0.65049 0.28669 0.75315 0.0
C3241 C 0.63526 0.28811 0.7588 0.0
C3242 C 0.66013 0.29965 0.75223 0.0
C3243 C 0.65483 0.31414 0.75729 0.0
C3244 C 0.63959 0.31573 0.76263 0.0
C3245 C 0.6298 0.30284 0.76321 0.0
C3246 C 0.66533 0.32759 0.75694 0.0
C3247 C 0.66791 0.33504 0.74276 0.0
C3248 C 0.67295 0.33288 0.77042 0.0
C3249 C 0.67097 0.3252 0.78567 0.0
C3250 C 0.66532 0.33366 0.7984 0.0
C3251 C 0.66426 0.3267 0.813 0.0
C3252 C 0.66887 0.3113 0.81503 0.0
C3253 C 0.67446 0.3028 0.80243 0.0
C3254 C 0.67558 0.30972 0.78781 0.0
C3255 C 0.70757 0.38972 0.74495 0.0
C3256 C 0.72263 0.38619 0.75008 0.0
C3257 C 0.69546 0.37923 0.74729 0.0
C3258 C 0.69831 0.36488 0.75444 0.0
C3259 C 0.71316 0.36179 0.7604 0.0
C3260 C 0.72518 0.37242 0.75836 0.0
C3261 C 0.68623 0.35265 0.75505 0.0
C3262 C 0.68321 0.34543 0.76933 0.0
C3263 C 0.67834 0.34746 0.74158 0.0
C3264 C 0.68099 0.35436 0.72604 0.0
C3265 C 0.69583 0.35435 0.7193 0.0
C3266 C 0.69815 0.36104 0.7047 0.0
C3267 C 0.68571 0.3676 0.69668 0.0
C3268 C 0.67089 0.36748 0.70322 0.0
C3269 C 0.66851 0.36087 0.71782 0.0
H3270 H 0.68754 0.37275 0.68538 0.0
H3271 H 0.66801 0.30592 0.82634 0.0
H3272 H 0.68769 0.34937 0.20891 0.0
H3273 H 0.66382 0.33821 0.21935 0.0
H3274 H 0.667 0.36839 0.2591 0.0
H3275 H 0.69071 0.37999 0.24836 0.0
H3276 H 0.6683 0.33558 0.2652 0.0
H3277 H 0.63589 0.3721 0.24044 0.0
H3278 H 0.62613 0.38851 0.21917 0.0
H3279 H 0.61479 0.34792 0.19269 0.0
H3280 H 0.62469 0.33125 0.21368 0.0
H3281 H 0.59086 0.28849 0.27257 0.0
H3282 H 0.60482 0.31324 0.2705 0.0
H3283 H 0.64406 0.28944 0.25067 0.0
H3284 H 0.6301 0.26483 0.25232 0.0
H3285 H 0.61685 0.32573 0.24144 0.0
H3286 H 0.67663 0.30755 0.26711 0.0
H3287 H 0.68708 0.29145 0.28824 0.0
H3288 H 0.64414 0.29557 0.31304 0.0
H3289 H 0.63349 0.31199 0.29219 0.0
C3290 C 0.68292 0.35405 0.21954 0.0
C3291 C 0.69092 0.36552 0.22784 0.0
C3292 C 0.6693 0.34771 0.22549 0.0
C3293 C 0.66368 0.35251 0.23997 0.0
C3294 C 0.67112 0.36466 0.24783 0.0
C3295 C 0.68458 0.3713 0.24167 0.0
C3296 C 0.65192 0.34285 0.24783 0.0
C3297 C 0.65692 0.33358 0.26022 0.0
C3298 C 0.63706 0.34047 0.24138 0.0
C3299 C 0.63109 0.35042 0.22866 0.0
C3300 C 0.63142 0.36667 0.23004 0.0
C3301 C 0.62584 0.37602 0.21803 0.0
C3302 C 0.61986 0.36927 0.20458 0.0
C3303 C 0.61942 0.35314 0.20312 0.0
C3304 C 0.62499 0.34373 0.21509 0.0
C3305 C 0.6025 0.28856 0.26785 0.0
C3306 C 0.60939 0.2748 0.2625 0.0
C3307 C 0.61042 0.30267 0.26669 0.0
C3308 C 0.62547 0.30309 0.26056 0.0
C3309 C 0.63249 0.28929 0.25558 0.0
C3310 C 0.62448 0.27527 0.25644 0.0
C3311 C 0.63362 0.31796 0.25823 0.0
C3312 C 0.628 0.32806 0.24678 0.0
C3313 C 0.648 0.32104 0.26546 0.0
C3314 C 0.65422 0.31098 0.27801 0.0
C3315 C 0.66942 0.3051 0.27709 0.0
C3316 C 0.67539 0.29592 0.28904 0.0
C3317 C 0.6663 0.29252 0.302 0.0
C3318 C 0.65117 0.29822 0.30299 0.0
C3319 C 0.64515 0.30745 0.29109 0.0
H3320 H 0.67098 0.28547 0.31126 0.0
H3321 H 0.61554 0.37653 0.1953 0.0
H3322 H 0.73523 0.63754 0.25348 0.0
H3323 H 0.71195 0.65313 0.25062 0.0
H3324 H 0.68454 0.61649 0.27076 0.0
H3325 H 0.70815 0.60072 0.27409 0.0
H3326 H 0.67306 0.63093 0.24108 0.0
H3327 H 0.68641 0.64404 0.2927 0.0
H3328 H 0.70274 0.65131 0.31501 0.0
H3329 H 0.71623 0.69324 0.29183 0.0
H3330 H 0.70008 0.68618 0.26932 0.0
H3331 H 0.61409 0.69242 0.24035 0.0
H3332 H 0.62977 0.66978 0.24735 0.0
H3333 H 0.67136 0.69494 0.23566 0.0
H3334 H 0.65591 0.71756 0.22871 0.0
H3335 H 0.67081 0.68272 0.26598 0.0
H3336 H 0.6599 0.66694 0.21295 0.0
H3337 H 0.64272 0.65988 0.19121 0.0
H3338 H 0.62354 0.62265 0.21814 0.0
H3339 H 0.64047 0.62964 0.24013 0.0
C3340 C 0.72431 0.63275 0.25739 0.0
C3341 C 0.72352 0.61794 0.26409 0.0
C3342 C 0.71102 0.6417 0.25576 0.0
C3343 C 0.69662 0.63598 0.26062 0.0
C3344 C 0.69562 0.62107 0.26703 0.0
C3345 C 0.70906 0.61213 0.26891 0.0
C3346 C 0.68283 0.64586 0.25856 0.0
C3347 C 0.67221 0.64208 0.24683 0.0
C3348 C 0.68192 0.66042 0.26599 0.0
C3349 C 0.6921 0.66451 0.27926 0.0
C3350 C 0.693 0.65472 0.29227 0.0
C3351 C 0.70218 0.65884 0.30498 0.0
C3352 C 0.71057 0.67269 0.3048 0.0
C3353 C 0.70977 0.68248 0.29193 0.0
C3354 C 0.70056 0.67845 0.27921 0.0
C3355 C 0.62656 0.69303 0.239 0.0
C3356 C 0.63378 0.70685 0.23414 0.0
C3357 C 0.63547 0.68009 0.243 0.0
C3358 C 0.65168 0.68078 0.24209 0.0
C3359 C 0.65885 0.69426 0.2365 0.0
C3360 C 0.64999 0.70717 0.23256 0.0
C3361 C 0.66141 0.66806 0.24809 0.0
C3362 C 0.67128 0.67138 0.26057 0.0
C3363 C 0.66149 0.65309 0.24144 0.0
C3364 C 0.65128 0.64895 0.22825 0.0
C3365 C 0.65189 0.65736 0.2143 0.0
C3366 C 0.64223 0.65334 0.20191 0.0
C3367 C 0.632 0.64086 0.20331 0.0
C3368 C 0.63144 0.63234 0.21708 0.0
C3369 C 0.64107 0.63632 0.2295 0.0
H3370 H 0.62454 0.63776 0.19371 0.0
H3371 H 0.71763 0.67588 0.31467 0.0
H3372 H 0.28045 0.66139 0.22644 0.0
H3373 H 0.30445 0.6757 0.23053 0.0
H3374 H 0.32457 0.63594 0.25324 0.0
H3375 H 0.30046 0.62138 0.24909 0.0
H3376 H 0.32603 0.66307 0.27067 0.0
H3377 H 0.34089 0.64682 0.22021 0.0
H3378 H 0.33731 0.64141 0.1924 0.0
H3379 H 0.32774 0.68953 0.18398 0.0
H3380 H 0.33133 0.69525 0.21177 0.0
H3381 H 0.3912 0.71353 0.28198 0.0
H3382 H 0.37632 0.69063 0.27402 0.0
H3383 H 0.34656 0.71963 0.24617 0.0
H3384 H 0.36131 0.74247 0.25404 0.0
H3385 H 0.35485 0.69301 0.23089 0.0
H3386 H 0.33213 0.70714 0.28087 0.0
H3387 H 0.33209 0.71278 0.30892 0.0
H3388 H 0.35477 0.66937 0.31792 0.0
H3389 H 0.35462 0.66336 0.28991 0.0
C3390 C 0.29003 0.6556 0.23215 0.0
C3391 C 0.28853 0.64031 0.23758 0.0
C3392 C 0.30379 0.66375 0.23435 0.0
C3393 C 0.31631 0.65683 0.24209 0.0
C3394 C 0.31505 0.64142 0.24716 0.0
C3395 C 0.3013 0.63315 0.24477 0.0
C3396 C 0.3299 0.66641 0.24623 0.0
C3397 C 0.33271 0.66925 0.26198 0.0
C3398 C 0.33829 0.67472 0.23487 0.0
C3399 C 0.33633 0.67144 0.21809 0.0
C3400 C 0.33797 0.65624 0.21244 0.0
C3401 C 0.33595 0.65312 0.19667 0.0
C3402 C 0.33221 0.6651 0.18643 0.0
C3403 C 0.33062 0.68026 0.19192 0.0
C3404 C 0.33273 0.68346 0.20768 0.0
C3405 C 0.38154 0.71498 0.27408 0.0
C3406 C 0.37735 0.72977 0.26866 0.0
C3407 C 0.37304 0.70192 0.26959 0.0
C3408 C 0.3603 0.70347 0.25957 0.0
C3409 C 0.35638 0.71819 0.25387 0.0
C3410 C 0.36478 0.73123 0.25842 0.0
C3411 C 0.35066 0.68994 0.25532 0.0
C3412 C 0.34857 0.68642 0.23957 0.0
C3413 C 0.34281 0.68107 0.26666 0.0
C3414 C 0.34356 0.68491 0.28335 0.0
C3415 C 0.33723 0.69888 0.28884 0.0
C3416 C 0.33716 0.7021 0.30472 0.0
C3417 C 0.34354 0.6915 0.31519 0.0
C3418 C 0.34989 0.6776 0.30979 0.0
C3419 C 0.34981 0.67424 0.29393 0.0
H3420 H 0.3435 0.69401 0.32748 0.0
H3421 H 0.33058 0.66264 0.17423 0.0
H3422 H 0.33974 0.31505 0.21562 0.0
H3423 H 0.33145 0.34051 0.22453 0.0
H3424 H 0.36595 0.33924 0.26076 0.0
H3425 H 0.37449 0.31359 0.25162 0.0
H3426 H 0.33655 0.34237 0.27184 0.0
H3427 H 0.36721 0.36912 0.23584 0.0
H3428 H 0.37985 0.3751 0.21093 0.0
H3429 H 0.33539 0.38239 0.18977 0.0
H3430 H 0.32244 0.37622 0.21447 0.0
H3431 H 0.28462 0.4029 0.29445 0.0
H3432 H 0.30985 0.39199 0.28725 0.0
H3433 H 0.2906 0.37618 0.24387 0.0
H3434 H 0.26542 0.38702 0.25096 0.0
H3435 H 0.32064 0.38806 0.24074 0.0
H3436 H 0.2916 0.35231 0.27406 0.0
H3437 H 0.2784 0.34513 0.29839 0.0
H3438 H 0.32012 0.35419 0.324 0.0
H3439 H 0.33352 0.36161 0.2998 0.0
C3440 C 0.34591 0.32044 0.22516 0.0
C3441 C 0.35766 0.31241 0.23301 0.0
C3442 C 0.34125 0.33504 0.23018 0.0
C3443 C 0.34814 0.34182 0.24327 0.0
C3444 C 0.36059 0.33425 0.25056 0.0
C3445 C 0.36547 0.31966 0.24532 0.0
C3446 C 0.34024 0.35514 0.25067 0.0
C3447 C 0.33354 0.35268 0.26529 0.0
C3448 C 0.33617 0.36848 0.24205 0.0
C3449 C 0.34384 0.37219 0.22707 0.0
C3450 C 0.36011 0.3719 0.22586 0.0
C3451 C 0.36733 0.37534 0.21177 0.0
C3452 C 0.35843 0.37913 0.19878 0.0
C3453 C 0.34227 0.37948 0.19985 0.0
C3454 C 0.33498 0.37605 0.21392 0.0
C3455 C 0.28583 0.39725 0.2833 0.0
C3456 C 0.27304 0.39565 0.27331 0.0
C3457 C 0.30024 0.39108 0.27921 0.0
C3458 C 0.30205 0.38327 0.26506 0.0
C3459 C 0.28945 0.38226 0.25481 0.0
C3460 C 0.27505 0.38834 0.25892 0.0
C3461 C 0.31645 0.37473 0.2614 0.0
C3462 C 0.32425 0.37812 0.24754 0.0
C3463 C 0.32152 0.36218 0.27067 0.0
C3464 C 0.31348 0.35772 0.28518 0.0
C3465 C 0.29791 0.3529 0.2849 0.0
C3466 C 0.2904 0.34877 0.29866 0.0
C3467 C 0.29839 0.34927 0.31274 0.0
C3468 C 0.31393 0.35386 0.31309 0.0
C3469 C 0.32149 0.35803 0.29936 0.0
H3470 H 0.29255 0.34605 0.32338 0.0
H3471 H 0.36405 0.38179 0.18788 0.0
H3472 H 0.71673 0.60334 0.71635 0.0
H3473 H 0.72249 0.61091 0.68982 0.0
H3474 H 0.77145 0.61087 0.70031 0.0
H3475 H 0.76561 0.60392 0.72726 0.0
H3476 H 0.76499 0.63562 0.68576 0.0
H3477 H 0.75419 0.58323 0.67531 0.0
H3478 H 0.74034 0.5583 0.67689 0.0
H3479 H 0.7006 0.57866 0.65489 0.0
H3480 H 0.71407 0.60382 0.65344 0.0
H3481 H 0.77109 0.66358 0.6101 0.0
H3482 H 0.76983 0.63861 0.62368 0.0
H3483 H 0.7273 0.65279 0.64575 0.0
H3484 H 0.72873 0.67779 0.63254 0.0
H3485 H 0.73721 0.6149 0.63974 0.0
H3486 H 0.74837 0.66653 0.67072 0.0
H3487 H 0.75975 0.69235 0.66561 0.0
H3488 H 0.79982 0.67087 0.64535 0.0
H3489 H 0.7886 0.64497 0.65034 0.0
C3490 C 0.72874 0.60482 0.71298 0.0
C3491 C 0.74074 0.6031 0.72384 0.0
C3492 C 0.73204 0.60896 0.69774 0.0
C3493 C 0.74744 0.61111 0.69291 0.0
C3494 C 0.75949 0.60916 0.70372 0.0
C3495 C 0.75615 0.60525 0.7191 0.0
C3496 C 0.75065 0.61699 0.67706 0.0
C3497 C 0.75939 0.63064 0.67566 0.0
C3498 C 0.74331 0.61066 0.66374 0.0
C3499 C 0.73518 0.59547 0.66428 0.0
C3500 C 0.74248 0.58243 0.67086 0.0
C3501 C 0.73468 0.56825 0.67174 0.0
C3502 C 0.71961 0.5669 0.66598 0.0
C3503 C 0.7123 0.57972 0.65932 0.0
C3504 C 0.72002 0.59395 0.65844 0.0
C3505 C 0.76108 0.66101 0.61723 0.0
C3506 C 0.75014 0.67258 0.62058 0.0
C3507 C 0.7603 0.6467 0.62486 0.0
C3508 C 0.74849 0.64391 0.63571 0.0
C3509 C 0.73641 0.65467 0.63729 0.0
C3510 C 0.73733 0.66902 0.62993 0.0
C3511 C 0.75131 0.63331 0.64883 0.0
C3512 C 0.7435 0.61912 0.64977 0.0
C3513 C 0.75985 0.63876 0.66168 0.0
C3514 C 0.76776 0.65394 0.66104 0.0
C3515 C 0.75977 0.66738 0.66554 0.0
C3516 C 0.76611 0.68199 0.66254 0.0
C3517 C 0.78046 0.68322 0.65512 0.0
C3518 C 0.78871 0.66987 0.65109 0.0
C3519 C 0.78239 0.65524 0.65405 0.0
H3520 H 0.78507 0.6945 0.65228 0.0
H3521 H 0.71359 0.55591 0.66669 0.0
H3522 H 0.40941 0.71378 0.71059 0.0
H3523 H 0.39953 0.71885 0.68464 0.0
H3524 H 0.39388 0.76725 0.69617 0.0
H3525 H 0.40311 0.76201 0.72249 0.0
H3526 H 0.3688 0.75752 0.68509 0.0
H3527 H 0.42027 0.75392 0.66717 0.0
H3528 H 0.44674 0.74349 0.66449 0.0
H3529 H 0.42856 0.70182 0.64421 0.0
H3530 H 0.40195 0.71186 0.64699 0.0
H3531 H 0.33275 0.76485 0.61329 0.0
H3532 H 0.35915 0.7643 0.62377 0.0
H3533 H 0.34956 0.72037 0.64558 0.0
H3534 H 0.32316 0.72104 0.63541 0.0
H3535 H 0.3865 0.73403 0.63559 0.0
H3536 H 0.33828 0.73868 0.67476 0.0
H3537 H 0.31141 0.74855 0.67598 0.0
H3538 H 0.32549 0.79032 0.6528 0.0
H3539 H 0.35243 0.78065 0.6515 0.0
C3540 C 0.4063 0.72555 0.70751 0.0
C3541 C 0.40685 0.73748 0.71857 0.0
C3542 C 0.40082 0.72849 0.69258 0.0
C3543 C 0.39613 0.74349 0.68831 0.0
C3544 C 0.39744 0.75559 0.69916 0.0
C3545 C 0.40267 0.75259 0.7142 0.0
C3546 C 0.38776 0.74597 0.67347 0.0
C3547 C 0.37303 0.75284 0.67421 0.0
C3548 C 0.39307 0.73977 0.65916 0.0
C3549 C 0.40907 0.73365 0.65735 0.0
C3550 C 0.42189 0.74248 0.66222 0.0
C3551 C 0.43693 0.73664 0.66068 0.0
C3552 C 0.43933 0.722 0.6542 0.0
C3553 C 0.42669 0.71317 0.64922 0.0
C3554 C 0.41162 0.71895 0.65075 0.0
C3555 C 0.3366 0.75466 0.61954 0.0
C3556 C 0.32597 0.7431 0.62383 0.0
C3557 C 0.35171 0.75431 0.62544 0.0
C3558 C 0.35621 0.74234 0.63549 0.0
C3559 C 0.34632 0.72963 0.63773 0.0
C3560 C 0.3312 0.73009 0.63206 0.0
C3561 C 0.36788 0.74542 0.64758 0.0
C3562 C 0.38288 0.73935 0.64639 0.0
C3563 C 0.36314 0.75271 0.66143 0.0
C3564 C 0.34729 0.75902 0.66315 0.0
C3565 C 0.33564 0.75005 0.67012 0.0
C3566 C 0.32041 0.75557 0.67075 0.0
C3567 C 0.31675 0.77007 0.66451 0.0
C3568 C 0.32834 0.77911 0.65768 0.0
C3569 C 0.34359 0.77363 0.65701 0.0
H3570 H 0.30494 0.77429 0.66492 0.0
H3571 H 0.45098 0.71749 0.65302 0.0
H3572 H 0.24898 0.3437 0.7454 0.0
H3573 H 0.24824 0.32466 0.72432 0.0
H3574 H 0.27205 0.35676 0.69432 0.0
H3575 H 0.27326 0.37572 0.71545 0.0
H3576 H 0.23821 0.34267 0.68678 0.0
H3577 H 0.29258 0.33216 0.69559 0.0
H3578 H 0.3163 0.32483 0.70982 0.0
H3579 H 0.29476 0.28241 0.72441 0.0
H3580 H 0.27092 0.28947 0.71023 0.0
H3581 H 0.24195 0.29548 0.61912 0.0
H3582 H 0.24763 0.31393 0.63983 0.0
H3583 H 0.24271 0.27755 0.67379 0.0
H3584 H 0.23716 0.25898 0.65322 0.0
H3585 H 0.26854 0.29446 0.6788 0.0
H3586 H 0.21439 0.30452 0.66986 0.0
H3587 H 0.19114 0.31082 0.65447 0.0
H3588 H 0.21193 0.35373 0.64013 0.0
H3589 H 0.23532 0.34768 0.65547 0.0
C3590 C 0.25423 0.34662 0.73438 0.0
C3591 C 0.26106 0.36122 0.73199 0.0
C3592 C 0.25391 0.33571 0.72242 0.0
C3593 C 0.2602 0.33934 0.70789 0.0
C3594 C 0.26731 0.35375 0.70556 0.0
C3595 C 0.26792 0.36456 0.7176 0.0
C3596 C 0.25747 0.3289 0.69468 0.0
C3597 C 0.24498 0.33224 0.68484 0.0
C3598 C 0.26609 0.31517 0.69252 0.0
C3599 C 0.27991 0.31144 0.70203 0.0
C3600 C 0.29282 0.32138 0.70203 0.0
C3601 C 0.30634 0.3172 0.70994 0.0
C3602 C 0.30704 0.30314 0.71795 0.0
C3603 C 0.2942 0.29327 0.71815 0.0
C3604 C 0.2807 0.29734 0.71016 0.0
C3605 C 0.24199 0.29139 0.63099 0.0
C3606 C 0.23909 0.27573 0.6345 0.0
C3607 C 0.2452 0.30198 0.64281 0.0
C3608 C 0.24551 0.2971 0.65833 0.0
C3609 C 0.24256 0.28152 0.66187 0.0
C3610 C 0.23934 0.27094 0.65009 0.0
C3611 C 0.2492 0.30816 0.67088 0.0
C3612 C 0.2618 0.30492 0.68066 0.0
C3613 C 0.24063 0.32197 0.67303 0.0
C3614 C 0.22665 0.32558 0.66369 0.0
C3615 C 0.21405 0.31525 0.66334 0.0
C3616 C 0.20082 0.31879 0.65466 0.0
C3617 C 0.20008 0.33263 0.64627 0.0
C3618 C 0.21253 0.343 0.64661 0.0
C3619 C 0.22575 0.33954 0.65534 0.0
H3620 H 0.18984 0.33535 0.63955 0.0
H3621 H 0.31752 0.29992 0.72406 0.0
H3622 H 0.68533 0.24377 0.62114 0.0
H3623 H 0.66353 0.24347 0.63937 0.0
H3624 H 0.69344 0.22508 0.67498 0.0
H3625 H 0.7153 0.22544 0.65687 0.0
H3626 H 0.66346 0.21044 0.67304 0.0
H3627 H 0.68623 0.26187 0.67837 0.0
H3628 H 0.69586 0.28708 0.66892 0.0
H3629 H 0.65214 0.29582 0.64678 0.0
H3630 H 0.64212 0.27078 0.65643 0.0
H3631 H 0.62448 0.23026 0.74295 0.0
H3632 H 0.64184 0.22486 0.72124 0.0
H3633 H 0.6122 0.25138 0.69085 0.0
H3634 H 0.59507 0.2572 0.71262 0.0
H3635 H 0.64065 0.26099 0.68833 0.0
H3636 H 0.61636 0.21139 0.68735 0.0
H3637 H 0.60657 0.18669 0.6979 0.0
H3638 H 0.65275 0.17376 0.71125 0.0
H3639 H 0.6628 0.19849 0.70099 0.0
C3640 C 0.68721 0.23953 0.63281 0.0
C3641 C 0.70201 0.23474 0.63765 0.0
C3642 C 0.67478 0.2394 0.6432 0.0
C3643 C 0.67694 0.23431 0.6585 0.0
C3644 C 0.69157 0.22902 0.6632 0.0
C3645 C 0.70404 0.2293 0.65288 0.0
C3646 C 0.66412 0.23518 0.66982 0.0
C3647 C 0.65849 0.22146 0.6765 0.0
C3648 C 0.65746 0.24953 0.67399 0.0
C3649 C 0.6635 0.26443 0.66796 0.0
C3650 C 0.67872 0.26913 0.67139 0.0
C3651 C 0.68424 0.28339 0.66603 0.0
C3652 C 0.67469 0.29297 0.6571 0.0
C3653 C 0.65954 0.28837 0.65365 0.0
C3654 C 0.6539 0.27419 0.65914 0.0
C3655 C 0.62153 0.23471 0.73159 0.0
C3656 C 0.60854 0.24431 0.72951 0.0
C3657 C 0.63142 0.23155 0.71916 0.0
C3658 C 0.62832 0.23769 0.70439 0.0
C3659 C 0.61487 0.24657 0.70215 0.0
C3660 C 0.60508 0.24987 0.71459 0.0
C3661 C 0.63985 0.23621 0.69172 0.0
C3662 C 0.64535 0.24987 0.68478 0.0
C3663 C 0.64631 0.22177 0.68732 0.0
C3664 C 0.64032 0.20686 0.69351 0.0
C3665 C 0.62442 0.20334 0.69265 0.0
C3666 C 0.61882 0.18932 0.69856 0.0
C3667 C 0.62902 0.17868 0.70527 0.0
C3668 C 0.64486 0.18202 0.70606 0.0
C3669 C 0.65051 0.19603 0.70018 0.0
H3670 H 0.62467 0.16783 0.70983 0.0
H3671 H 0.67901 0.30399 0.65293 0.0
H3672 H 0.73596 0.38351 0.27516 0.0
H3673 H 0.73942 0.36482 0.29613 0.0
H3674 H 0.75186 0.32961 0.26287 0.0
H3675 H 0.7485 0.34836 0.24172 0.0
H3676 H 0.72953 0.32019 0.28573 0.0
H3677 H 0.77962 0.34528 0.2827 0.0
H3678 H 0.79708 0.36792 0.28219 0.0
H3679 H 0.781 0.38169 0.32724 0.0
H3680 H 0.76326 0.35925 0.32792 0.0
H3681 H 0.75881 0.26349 0.33577 0.0
H3682 H 0.75638 0.28289 0.31542 0.0
H3683 H 0.75046 0.31864 0.34989 0.0
H3684 H 0.75322 0.29927 0.37047 0.0
H3685 H 0.76908 0.32833 0.3268 0.0
H3686 H 0.71902 0.30543 0.33064 0.0
H3687 H 0.7011 0.28326 0.33293 0.0
H3688 H 0.71537 0.26676 0.2882 0.0
H3689 H 0.7335 0.2888 0.28568 0.0
C3690 C 0.73946 0.3718 0.27229 0.0
C3691 C 0.74203 0.36738 0.25682 0.0
C3692 C 0.74146 0.36116 0.28429 0.0
C3693 C 0.74599 0.34591 0.28102 0.0
C3694 C 0.74838 0.34137 0.26558 0.0
C3695 C 0.74653 0.35208 0.25354 0.0
C3696 C 0.74818 0.33472 0.29379 0.0
C3697 C 0.73832 0.32183 0.29459 0.0
C3698 C 0.75925 0.33725 0.30564 0.0
C3699 C 0.77002 0.35066 0.3053 0.0
C3700 C 0.77972 0.3532 0.29245 0.0
C3701 C 0.78968 0.36598 0.29213 0.0
C3702 C 0.79012 0.37625 0.30466 0.0
C3703 C 0.78063 0.37373 0.31754 0.0
C3704 C 0.77064 0.36098 0.3179 0.0
C3705 C 0.75698 0.27547 0.33908 0.0
C3706 C 0.75605 0.27981 0.35476 0.0
C3707 C 0.75557 0.28654 0.32741 0.0
C3708 C 0.75298 0.30215 0.33114 0.0
C3709 C 0.75241 0.30663 0.34678 0.0
C3710 C 0.75395 0.29554 0.35851 0.0
C3711 C 0.75057 0.31367 0.31864 0.0
C3712 C 0.7603 0.32667 0.31793 0.0
C3713 C 0.73918 0.31143 0.30704 0.0
C3714 C 0.72771 0.29866 0.30804 0.0
C3715 C 0.71834 0.29706 0.3213 0.0
C3716 C 0.70817 0.28453 0.32264 0.0
C3717 C 0.70722 0.27358 0.31077 0.0
C3718 C 0.71622 0.27524 0.29741 0.0
C3719 C 0.7264 0.28778 0.29599 0.0
H3720 H 0.6995 0.26382 0.31196 0.0
H3721 H 0.79784 0.38614 0.30439 0.0
H3722 H 0.62547 0.76559 0.25422 0.0
H3723 H 0.64451 0.7691 0.27494 0.0
H3724 H 0.62002 0.73589 0.3032 0.0
H3725 H 0.60111 0.7321 0.28242 0.0
H3726 H 0.64365 0.77831 0.30471 0.0
H3727 H 0.64771 0.71393 0.32297 0.0
H3728 H 0.64261 0.68795 0.31212 0.0
H3729 H 0.6498 0.70555 0.26616 0.0
H3730 H 0.65539 0.73144 0.27668 0.0
H3731 H 0.69137 0.77037 0.37185 0.0
H3732 H 0.66971 0.76787 0.35375 0.0
H3733 H 0.70028 0.74757 0.3198 0.0
H3734 H 0.72198 0.74987 0.33781 0.0
H3735 H 0.67315 0.73192 0.32172 0.0
H3736 H 0.68978 0.78508 0.3169 0.0
H3737 H 0.69607 0.81125 0.32659 0.0
H3738 H 0.64951 0.81647 0.34342 0.0
H3739 H 0.64301 0.79024 0.33401 0.0
C3740 C 0.62405 0.75916 0.26491 0.0
C3741 C 0.61191 0.74845 0.26664 0.0
C3742 C 0.63491 0.76121 0.27675 0.0
C3743 C 0.63381 0.75259 0.29052 0.0
C3744 C 0.62122 0.74247 0.29258 0.0
C3745 C 0.61041 0.74037 0.28071 0.0
C3746 C 0.64629 0.75359 0.30229 0.0
C3747 C 0.65004 0.76815 0.3085 0.0
C3748 C 0.65473 0.74035 0.30713 0.0
C3749 C 0.65174 0.72469 0.30062 0.0
C3750 C 0.64828 0.71222 0.31054 0.0
C3751 C 0.64533 0.69749 0.30444 0.0
C3752 C 0.64583 0.69509 0.28843 0.0
C3753 C 0.64939 0.70739 0.27852 0.0
C3754 C 0.65246 0.7221 0.28455 0.0
C3755 C 0.69351 0.76533 0.36055 0.0
C3756 C 0.70847 0.7604 0.35627 0.0
C3757 C 0.68111 0.76396 0.35021 0.0
C3758 C 0.68343 0.75767 0.33539 0.0
C3759 C 0.69825 0.75247 0.33118 0.0
C3760 C 0.71066 0.75387 0.34149 0.0
C3761 C 0.67048 0.75662 0.32415 0.0
C3762 C 0.66664 0.74204 0.31806 0.0
C3763 C 0.66209 0.76986 0.3193 0.0
C3764 C 0.66596 0.78564 0.3249 0.0
C3765 C 0.68092 0.79177 0.32277 0.0
C3766 C 0.68452 0.80661 0.3282 0.0
C3767 C 0.67321 0.8155 0.33565 0.0
C3768 C 0.65826 0.80956 0.33766 0.0
C3769 C 0.65462 0.79471 0.33228 0.0
H3770 H 0.67601 0.82699 0.33984 0.0
H3771 H 0.6435 0.6837 0.28369 0.0
H3772 H 0.22831 0.69522 0.38357 0.0
H3773 H 0.23041 0.67418 0.36449 0.0
H3774 H 0.22799 0.70748 0.32734 0.0
H3775 H 0.22536 0.72848 0.34618 0.0
H3776 H 0.20729 0.67138 0.33301 0.0
H3777 H 0.26523 0.6926 0.30954 0.0
H3778 H 0.29025 0.70386 0.31775 0.0
H3779 H 0.28485 0.68353 0.36287 0.0
H3780 H 0.25987 0.67208 0.35488 0.0
H3781 H 0.22581 0.63697 0.25896 0.0
H3782 H 0.22068 0.65495 0.28046 0.0
H3783 H 0.25278 0.62965 0.3093 0.0
H3784 H 0.25792 0.61178 0.28806 0.0
H3785 H 0.25858 0.66059 0.30931 0.0
H3786 H 0.2152 0.62641 0.31598 0.0
H3787 H 0.19177 0.61223 0.3078 0.0
H3788 H 0.16889 0.6553 0.29778 0.0
H3789 H 0.19229 0.66974 0.3057 0.0
C3790 C 0.22803 0.69804 0.37134 0.0
C3791 C 0.22691 0.71353 0.36637 0.0
C3792 C 0.22931 0.68604 0.36049 0.0
C3793 C 0.22959 0.68941 0.3446 0.0
C3794 C 0.22796 0.70475 0.3396 0.0
C3795 C 0.22649 0.7167 0.35038 0.0
C3796 C 0.23161 0.67699 0.33305 0.0
C3797 C 0.21848 0.66895 0.32782 0.0
C3798 C 0.24623 0.67388 0.3264 0.0
C3799 C 0.26059 0.68169 0.33168 0.0
C3800 C 0.26935 0.69064 0.32125 0.0
C3801 C 0.28356 0.69697 0.32583 0.0
C3802 C 0.28918 0.69432 0.34079 0.0
C3803 C 0.2805 0.68552 0.35127 0.0
C3804 C 0.26626 0.67921 0.34675 0.0
C3805 C 0.23163 0.6352 0.26994 0.0
C3806 C 0.2423 0.62303 0.27182 0.0
C3807 C 0.22867 0.64542 0.2822 0.0
C3808 C 0.23636 0.64358 0.29645 0.0
C3809 C 0.24678 0.63127 0.29838 0.0
C3810 C 0.24967 0.62107 0.28622 0.0
C3811 C 0.23426 0.65488 0.30917 0.0
C3812 C 0.24736 0.66291 0.3145 0.0
C3813 C 0.21965 0.65779 0.31601 0.0
C3814 C 0.20555 0.64915 0.31129 0.0
C3815 C 0.20522 0.63285 0.31191 0.0
C3816 C 0.19194 0.62477 0.30734 0.0
C3817 C 0.17886 0.63286 0.30224 0.0
C3818 C 0.17904 0.64905 0.30172 0.0
C3819 C 0.1923 0.65719 0.30626 0.0
H3820 H 0.16858 0.62658 0.29871 0.0
H3821 H 0.3002 0.6992 0.3443 0.0
H3822 H 0.29941 0.23676 0.37672 0.0
H3823 H 0.31508 0.24211 0.35371 0.0
H3824 H 0.27663 0.22945 0.32436 0.0
H3825 H 0.26074 0.22429 0.34734 0.0
H3826 H 0.30699 0.2171 0.31545 0.0
H3827 H 0.2812 0.26469 0.32797 0.0
H3828 H 0.27273 0.28604 0.345 0.0
H3829 H 0.3202 0.29823 0.35375 0.0
H3830 H 0.32897 0.27677 0.33698 0.0
H3831 H 0.33923 0.24855 0.24641 0.0
H3832 H 0.32113 0.24297 0.26756 0.0
H3833 H 0.35381 0.26164 0.30053 0.0
H3834 H 0.37184 0.26742 0.27947 0.0
H3835 H 0.32463 0.27119 0.30674 0.0
H3836 H 0.35044 0.22293 0.2956 0.0
H3837 H 0.35917 0.2014 0.27894 0.0
H3838 H 0.31188 0.19034 0.26797 0.0
H3839 H 0.30287 0.21196 0.28441 0.0
C3840 C 0.29435 0.23491 0.36537 0.0
C3841 C 0.27884 0.23018 0.3638 0.0
C3842 C 0.30328 0.23805 0.35227 0.0
C3843 C 0.29691 0.23631 0.33742 0.0
C3844 C 0.28168 0.23091 0.33577 0.0
C3845 C 0.27264 0.22801 0.34888 0.0
C3846 C 0.30606 0.24064 0.32365 0.0
C3847 C 0.31066 0.22895 0.31337 0.0
C3848 C 0.31099 0.25608 0.3212 0.0
C3849 C 0.30575 0.269 0.33133 0.0
C3850 C 0.28984 0.27181 0.33365 0.0
C3851 C 0.28498 0.28396 0.34323 0.0
C3852 C 0.29592 0.29346 0.35047 0.0
C3853 C 0.31174 0.29084 0.34814 0.0
C3854 C 0.31666 0.27869 0.33859 0.0
C3855 C 0.34252 0.25151 0.25816 0.0
C3856 C 0.35697 0.25831 0.26132 0.0
C3857 C 0.33219 0.24829 0.27022 0.0
C3858 C 0.33622 0.25175 0.28561 0.0
C3859 C 0.35049 0.25888 0.28873 0.0
C3860 C 0.3608 0.26211 0.27669 0.0
C3861 C 0.32575 0.24761 0.29856 0.0
C3862 C 0.32088 0.25935 0.30873 0.0
C3863 C 0.3206 0.2322 0.30093 0.0
C3864 C 0.32599 0.21916 0.29109 0.0
C3865 C 0.34191 0.21598 0.28954 0.0
C3866 C 0.34691 0.20375 0.28015 0.0
C3867 C 0.33609 0.19454 0.27237 0.0
C3868 C 0.32025 0.19751 0.27399 0.0
C3869 C 0.31519 0.20974 0.28334 0.0
H3870 H 0.33999 0.18507 0.26511 0.0
H3871 H 0.29214 0.30289 0.35784 0.0
H3872 H 0.7404 0.73641 0.63254 0.0
H3873 H 0.71925 0.74121 0.65058 0.0
H3874 H 0.68697 0.72005 0.61874 0.0
H3875 H 0.70825 0.71522 0.60043 0.0
H3876 H 0.67633 0.74787 0.63103 0.0
H3877 H 0.69651 0.69996 0.65048 0.0
H3878 H 0.71652 0.68146 0.65925 0.0
H3879 H 0.73046 0.71308 0.69506 0.0
H3880 H 0.71057 0.73177 0.68653 0.0
H3881 H 0.62031 0.75462 0.69296 0.0
H3882 H 0.63616 0.74495 0.6715 0.0
H3883 H 0.6776 0.75895 0.6958 0.0
H3884 H 0.66196 0.76831 0.71734 0.0
H3885 H 0.68024 0.73015 0.68562 0.0
H3886 H 0.6628 0.77925 0.66424 0.0
H3887 H 0.6432 0.79825 0.65571 0.0
H3888 H 0.62475 0.76513 0.62344 0.0
H3889 H 0.64413 0.74586 0.63192 0.0
C3890 C 0.72882 0.73275 0.62934 0.0
C3891 C 0.72597 0.72539 0.61511 0.0
C3892 C 0.71676 0.73542 0.6397 0.0
C3893 C 0.70162 0.73074 0.63608 0.0
C3894 C 0.69863 0.72364 0.62176 0.0
C3895 C 0.71076 0.7209 0.61134 0.0
C3896 C 0.68902 0.73376 0.64726 0.0
C3897 C 0.67694 0.74374 0.6429 0.0
C3898 C 0.69 0.72848 0.66275 0.0
C3899 C 0.70207 0.71729 0.66782 0.0
C3900 C 0.70392 0.70301 0.66016 0.0
C3901 C 0.71523 0.69249 0.66509 0.0
C3902 C 0.72477 0.69613 0.67766 0.0
C3903 C 0.72306 0.71029 0.68532 0.0
C3904 C 0.71173 0.72082 0.68048 0.0
C3905 C 0.6328 0.75581 0.69364 0.0
C3906 C 0.63989 0.7622 0.70688 0.0
C3907 C 0.64182 0.75027 0.68137 0.0
C3908 C 0.65805 0.75124 0.68207 0.0
C3909 C 0.6651 0.75799 0.69508 0.0
C3910 C 0.65612 0.76339 0.70737 0.0
C3911 C 0.66791 0.74483 0.66958 0.0
C3912 C 0.67943 0.73409 0.67369 0.0
C3913 C 0.66644 0.74949 0.65391 0.0
C3914 C 0.65478 0.76106 0.64885 0.0
C3915 C 0.65447 0.77597 0.65542 0.0
C3916 C 0.64342 0.7868 0.65058 0.0
C3917 C 0.6327 0.78288 0.63908 0.0
C3918 C 0.63304 0.76814 0.63237 0.0
C3919 C 0.64405 0.75727 0.63719 0.0
H3920 H 0.62416 0.79128 0.63534 0.0
H3921 H 0.73344 0.68795 0.68156 0.0
H3922 H 0.708 0.26342 0.39843 0.0
H3923 H 0.68542 0.25669 0.38271 0.0
H3924 H 0.71118 0.21944 0.36152 0.0
H3925 H 0.73385 0.22608 0.37725 0.0
H3926 H 0.69821 0.23978 0.34041 0.0
H3927 H 0.68202 0.21145 0.38577 0.0
H3928 H 0.67609 0.20857 0.41358 0.0
H3929 H 0.6405 0.24318 0.40984 0.0
H3930 H 0.64638 0.24645 0.38205 0.0
H3931 H 0.64285 0.21121 0.29193 0.0
H3932 H 0.65901 0.21021 0.31517 0.0
H3933 H 0.63232 0.24737 0.3354 0.0
H3934 H 0.61564 0.24793 0.31226 0.0
H3935 H 0.64488 0.22693 0.35791 0.0
H3936 H 0.66089 0.25629 0.31384 0.0
H3937 H 0.66653 0.26069 0.28619 0.0
H3938 H 0.70282 0.22667 0.28792 0.0
H3939 H 0.69704 0.22165 0.31548 0.0
C3940 C 0.70878 0.25361 0.39062 0.0
C3941 C 0.72273 0.24534 0.38897 0.0
C3942 C 0.69584 0.24976 0.3817 0.0
C3943 C 0.69664 0.23756 0.37099 0.0
C3944 C 0.71036 0.2289 0.36974 0.0
C3945 C 0.72329 0.23269 0.37874 0.0
C3946 C 0.68368 0.23477 0.36009 0.0
C3947 C 0.68663 0.23666 0.34423 0.0
C3948 C 0.66844 0.23141 0.36517 0.0
C3949 C 0.66473 0.22929 0.38184 0.0
C3950 C 0.673 0.21853 0.39089 0.0
C3951 C 0.66964 0.21681 0.40666 0.0
C3952 C 0.65795 0.22571 0.41348 0.0
C3953 C 0.64956 0.2363 0.40454 0.0
C3954 C 0.65289 0.23808 0.38878 0.0
C3955 C 0.64012 0.21877 0.30158 0.0
C3956 C 0.62821 0.22976 0.30036 0.0
C3957 C 0.6493 0.21818 0.31484 0.0
C3958 C 0.64705 0.22895 0.32682 0.0
C3959 C 0.63423 0.23898 0.32625 0.0
C3960 C 0.62478 0.23934 0.31305 0.0
C3961 C 0.65958 0.23149 0.33826 0.0
C3962 C 0.65653 0.22983 0.35415 0.0
C3963 C 0.67475 0.23532 0.33327 0.0
C3964 C 0.6784 0.23845 0.31671 0.0
C3965 C 0.66994 0.24959 0.30829 0.0
C3966 C 0.67316 0.25221 0.29263 0.0
C3967 C 0.68501 0.24395 0.2853 0.0
C3968 C 0.69363 0.23303 0.29361 0.0
C3969 C 0.69036 0.23027 0.30925 0.0
H3970 H 0.68754 0.24605 0.27319 0.0
H3971 H 0.65537 0.22437 0.42569 0.0
H3972 H 0.7309 0.64162 0.30771 0.0
H3973 H 0.73045 0.65613 0.33202 0.0
H3974 H 0.77447 0.63624 0.34485 0.0
H3975 H 0.77476 0.6213 0.32055 0.0
H3976 H 0.75006 0.64656 0.37127 0.0
H3977 H 0.78136 0.66385 0.3273 0.0
H3978 H 0.78503 0.66752 0.29918 0.0
H3979 H 0.74499 0.69705 0.29756 0.0
H3980 H 0.74087 0.69324 0.32562 0.0
H3981 H 0.76727 0.73623 0.38526 0.0
H3982 H 0.77364 0.71093 0.37418 0.0
H3983 H 0.7289 0.69346 0.38825 0.0
H3984 H 0.7227 0.71855 0.39976 0.0
H3985 H 0.75936 0.69952 0.35067 0.0
H3986 H 0.7287 0.65434 0.39062 0.0
H3987 H 0.72429 0.65004 0.41853 0.0
H3988 H 0.76483 0.67683 0.42936 0.0
H3989 H 0.76964 0.6811 0.40152 0.0
C3990 C 0.74014 0.63986 0.31603 0.0
C3991 C 0.75296 0.63062 0.31225 0.0
C3992 C 0.73984 0.64806 0.32991 0.0
C3993 C 0.75252 0.64738 0.34005 0.0
C3994 C 0.76455 0.6368 0.33717 0.0
C3995 C 0.76474 0.62836 0.32328 0.0
C3996 C 0.75477 0.66032 0.35102 0.0
C3997 C 0.75226 0.65815 0.36692 0.0
C3998 C 0.75793 0.67532 0.34525 0.0
C3999 C 0.76074 0.67815 0.32851 0.0
C4000 C 0.77328 0.67104 0.32092 0.0
C4001 C 0.77543 0.67313 0.30499 0.0
C4002 C 0.7652 0.68246 0.29657 0.0
C4003 C 0.75286 0.68978 0.30409 0.0
C4004 C 0.75062 0.68767 0.32 0.0
C4005 C 0.75893 0.72689 0.38626 0.0
C4006 C 0.74444 0.72938 0.39322 0.0
C4007 C 0.7626 0.71244 0.37997 0.0
C4008 C 0.7518 0.70025 0.38045 0.0
C4009 C 0.73757 0.70255 0.388 0.0
C4010 C 0.73397 0.71696 0.39444 0.0
C4011 C 0.75442 0.68603 0.37115 0.0
C4012 C 0.75765 0.68796 0.35534 0.0
C4013 C 0.75212 0.67088 0.37715 0.0
C4014 C 0.74947 0.66812 0.39394 0.0
C4015 C 0.73675 0.65923 0.39894 0.0
C4016 C 0.73416 0.65682 0.41476 0.0
C4017 C 0.74425 0.66318 0.42571 0.0
C4018 C 0.75699 0.67194 0.42087 0.0
C4019 C 0.75964 0.67438 0.40506 0.0
H4020 H 0.74222 0.66132 0.43795 0.0
H4021 H 0.76687 0.68406 0.28424 0.0
H4022 H 0.25731 0.76402 0.3886 0.0
H4023 H 0.28264 0.76518 0.37589 0.0
H4024 H 0.29808 0.7259 0.40271 0.0
H4025 H 0.2728 0.72465 0.41548 0.0
H4026 H 0.32177 0.74827 0.39767 0.0
H4027 H 0.28322 0.71929 0.36962 0.0
H4028 H 0.25891 0.71398 0.35579 0.0
H4029 H 0.26873 0.75072 0.32366 0.0
H4030 H 0.2931 0.75641 0.33748 0.0
H4031 H 0.35739 0.72624 0.31575 0.0
H4032 H 0.34216 0.72122 0.33917 0.0
H4033 H 0.35315 0.76702 0.35606 0.0
H4034 H 0.36869 0.77184 0.33277 0.0
H4035 H 0.31739 0.73858 0.34116 0.0
H4036 H 0.34376 0.76892 0.39539 0.0
H4037 H 0.36924 0.77197 0.40799 0.0
H4038 H 0.38502 0.72972 0.38692 0.0
H4039 H 0.35957 0.72628 0.37439 0.0
C4040 C 0.26619 0.75582 0.392 0.0
C4041 C 0.26302 0.7441 0.40285 0.0
C4042 C 0.28065 0.75652 0.38477 0.0
C4043 C 0.29214 0.74553 0.38829 0.0
C4044 C 0.28937 0.73449 0.39988 0.0
C4045 C 0.27488 0.73373 0.40706 0.0
C4046 C 0.30618 0.74433 0.37855 0.0
C4047 C 0.32089 0.74621 0.3853 0.0
C4048 C 0.30497 0.74124 0.36251 0.0
C4049 C 0.2899 0.7384 0.35472 0.0
C4050 C 0.28005 0.72647 0.35982 0.0
C4051 C 0.26624 0.72338 0.35195 0.0
C4052 C 0.2622 0.73206 0.33888 0.0
C4053 C 0.27187 0.744 0.33378 0.0
C4054 C 0.28568 0.74717 0.34164 0.0
C4055 C 0.35698 0.73494 0.32479 0.0
C4056 C 0.36387 0.74946 0.3225 0.0
C4057 C 0.34839 0.73208 0.33815 0.0
C4058 C 0.34637 0.74381 0.34926 0.0
C4059 C 0.35465 0.75775 0.34772 0.0
C4060 C 0.36348 0.76053 0.33441 0.0
C4061 C 0.33312 0.74286 0.36011 0.0
C4062 C 0.31842 0.74061 0.35354 0.0
C4063 C 0.33445 0.74553 0.37623 0.0
C4064 C 0.34977 0.74743 0.38383 0.0
C4065 C 0.35264 0.76024 0.3935 0.0
C4066 C 0.36709 0.76205 0.40062 0.0
C4067 C 0.37876 0.75107 0.39822 0.0
C4068 C 0.37599 0.73825 0.38872 0.0
C4069 C 0.36156 0.73638 0.38158 0.0
H4070 H 0.38994 0.7525 0.40374 0.0
H4071 H 0.25168 0.72949 0.33258 0.0
H4072 H 0.27843 0.27194 0.39353 0.0
H4073 H 0.2715 0.29382 0.37736 0.0
H4074 H 0.22294 0.2841 0.38459 0.0
H4075 H 0.22994 0.26139 0.40041 0.0
H4076 H 0.22758 0.29065 0.35571 0.0
H4077 H 0.24191 0.31555 0.40268 0.0
H4078 H 0.25841 0.32021 0.42556 0.0
H4079 H 0.2956 0.33512 0.39603 0.0
H4080 H 0.27944 0.33027 0.37295 0.0
H4081 H 0.23103 0.37674 0.32704 0.0
H4082 H 0.23116 0.35814 0.34849 0.0
H4083 H 0.24844 0.3227 0.31774 0.0
H4084 H 0.24811 0.34098 0.29626 0.0
H4085 H 0.25392 0.34144 0.36198 0.0
H4086 H 0.23199 0.2887 0.326 0.0
H4087 H 0.21461 0.28368 0.30385 0.0
H4088 H 0.18961 0.3256 0.3136 0.0
H4089 H 0.20668 0.33076 0.33594 0.0
C4090 C 0.26625 0.2745 0.39184 0.0
C4091 C 0.25468 0.26509 0.39837 0.0
C4092 C 0.2623 0.2871 0.38262 0.0
C4093 C 0.2467 0.29089 0.38008 0.0
C4094 C 0.23506 0.28146 0.38654 0.0
C4095 C 0.23904 0.26857 0.39558 0.0
C4096 C 0.24282 0.30429 0.37006 0.0
C4097 C 0.23318 0.30181 0.3572 0.0
C4098 C 0.24987 0.31899 0.37217 0.0
C4099 C 0.25944 0.32254 0.38606 0.0
C4100 C 0.25361 0.31982 0.40106 0.0
C4101 C 0.26291 0.32246 0.41406 0.0
C4102 C 0.27804 0.32796 0.41225 0.0
C4103 C 0.28387 0.33089 0.39742 0.0
C4104 C 0.27463 0.32822 0.38437 0.0
C4105 C 0.23488 0.36499 0.32484 0.0
C4106 C 0.23944 0.36033 0.30987 0.0
C4107 C 0.23496 0.3544 0.33712 0.0
C4108 C 0.23953 0.339 0.33462 0.0
C4109 C 0.24453 0.33446 0.31983 0.0
C4110 C 0.2444 0.34497 0.30757 0.0
C4111 C 0.23919 0.32754 0.34739 0.0
C4112 C 0.24805 0.33039 0.36072 0.0
C4113 C 0.23116 0.3133 0.34589 0.0
C4114 C 0.22068 0.31016 0.3326 0.0
C4115 C 0.22273 0.2968 0.32348 0.0
C4116 C 0.21294 0.29394 0.31087 0.0
C4117 C 0.20104 0.30433 0.3073 0.0
C4118 C 0.19886 0.31758 0.31635 0.0
C4119 C 0.2086 0.32049 0.32898 0.0
H4120 H 0.19348 0.3021 0.29753 0.0
H4121 H 0.28524 0.32996 0.42233 0.0
H4122 H 0.36935 0.23714 0.68795 0.0
H4123 H 0.35012 0.23709 0.66708 0.0
H4124 H 0.3171 0.21485 0.69729 0.0
H4125 H 0.33616 0.21515 0.71839 0.0
H4126 H 0.31979 0.20266 0.66445 0.0
H4127 H 0.31187 0.24874 0.69464 0.0
H4128 H 0.32039 0.27245 0.70802 0.0
H4129 H 0.33527 0.2919 0.66469 0.0
H4130 H 0.32745 0.26796 0.65111 0.0
H4131 H 0.25324 0.22215 0.61693 0.0
H4132 H 0.27151 0.216 0.63785 0.0
H4133 H 0.30477 0.24775 0.61813 0.0
H4134 H 0.28652 0.2543 0.59769 0.0
H4135 H 0.30024 0.25407 0.64757 0.0
H4136 H 0.30996 0.20811 0.6174 0.0
H4137 H 0.30291 0.18408 0.60362 0.0
H4138 H 0.28504 0.16477 0.64588 0.0
H4139 H 0.29179 0.18879 0.65988 0.0
C4140 C 0.35805 0.23213 0.69012 0.0
C4141 C 0.35421 0.22626 0.70483 0.0
C4142 C 0.34711 0.23209 0.6782 0.0
C4143 C 0.33225 0.22597 0.68071 0.0
C4144 C 0.32854 0.21957 0.69517 0.0
C4145 C 0.33939 0.21987 0.70721 0.0
C4146 C 0.32033 0.22728 0.66851 0.0
C4147 C 0.31531 0.21385 0.66084 0.0
C4148 C 0.31473 0.24193 0.66378 0.0
C4149 C 0.31926 0.25645 0.67188 0.0
C4150 C 0.31714 0.25797 0.68798 0.0
C4151 C 0.32182 0.27148 0.6956 0.0
C4152 C 0.32834 0.28371 0.68721 0.0
C4153 C 0.33023 0.28242 0.67118 0.0
C4154 C 0.32573 0.26885 0.66352 0.0
C4155 C 0.26456 0.22758 0.61693 0.0
C4156 C 0.2684 0.2388 0.60575 0.0
C4157 C 0.27499 0.22405 0.62886 0.0
C4158 C 0.28947 0.23149 0.62959 0.0
C4159 C 0.29361 0.24197 0.61788 0.0
C4160 C 0.28318 0.24562 0.60613 0.0
C4161 C 0.29993 0.22947 0.64308 0.0
C4162 C 0.30462 0.24282 0.65112 0.0
C4163 C 0.30527 0.21476 0.64804 0.0
C4164 C 0.30122 0.20031 0.63965 0.0
C4165 C 0.3044 0.19879 0.62373 0.0
C4166 C 0.30049 0.18516 0.61588 0.0
C4167 C 0.29349 0.17292 0.62386 0.0
C4168 C 0.29043 0.17427 0.63971 0.0
C4169 C 0.29431 0.18789 0.64761 0.0
H4170 H 0.29047 0.16237 0.61776 0.0
H4171 H 0.33193 0.29417 0.69313 0.0
H4172 H 0.75855 0.26635 0.61779 0.0
H4173 H 0.76204 0.28812 0.63559 0.0
H4174 H 0.71854 0.30765 0.62043 0.0
H4175 H 0.71516 0.28609 0.60233 0.0
H4176 H 0.73845 0.33041 0.6273 0.0
H4177 H 0.71835 0.28624 0.65142 0.0
H4178 H 0.71547 0.25898 0.65914 0.0
H4179 H 0.7598 0.26039 0.68179 0.0
H4180 H 0.76281 0.28789 0.67437 0.0
H4181 H 0.73367 0.34704 0.71759 0.0
H4182 H 0.72894 0.33093 0.69489 0.0
H4183 H 0.76135 0.35861 0.66855 0.0
H4184 H 0.76502 0.37557 0.69099 0.0
H4185 H 0.74536 0.31261 0.68156 0.0
H4186 H 0.75604 0.35531 0.63001 0.0
H4187 H 0.75137 0.38278 0.62357 0.0
H4188 H 0.71441 0.38457 0.65686 0.0
H4189 H 0.71871 0.35707 0.66335 0.0
C4190 C 0.74988 0.27543 0.61804 0.0
C4191 C 0.73646 0.27441 0.60889 0.0
C4192 C 0.75188 0.28786 0.62819 0.0
C4193 C 0.74042 0.29934 0.6295 0.0
C4194 C 0.72752 0.29891 0.6196 0.0
C4195 C 0.72556 0.28653 0.60935 0.0
C4196 C 0.74105 0.31069 0.64237 0.0
C4197 C 0.74002 0.32661 0.63918 0.0
C4198 C 0.74234 0.30565 0.65791 0.0
C4199 C 0.74086 0.28907 0.66223 0.0
C4200 C 0.72753 0.28071 0.65798 0.0
C4201 C 0.72586 0.26521 0.66232 0.0
C4202 C 0.7375 0.25787 0.67084 0.0
C4203 C 0.7508 0.26608 0.67515 0.0
C4204 C 0.75246 0.28166 0.67094 0.0
C4205 C 0.73959 0.34981 0.70687 0.0
C4206 C 0.74964 0.36255 0.70599 0.0
C4207 C 0.73695 0.34056 0.6939 0.0
C4208 C 0.74474 0.34351 0.67989 0.0
C4209 C 0.75485 0.35628 0.67903 0.0
C4210 C 0.75705 0.3659 0.69189 0.0
C4211 C 0.74299 0.33259 0.66665 0.0
C4212 C 0.74385 0.31662 0.66974 0.0
C4213 C 0.74058 0.33763 0.65118 0.0
C4214 C 0.73783 0.35416 0.64728 0.0
C4215 C 0.74689 0.36155 0.63591 0.0
C4216 C 0.7443 0.37713 0.63226 0.0
C4217 C 0.73263 0.38543 0.63984 0.0
C4218 C 0.72348 0.37815 0.65105 0.0
C4219 C 0.72601 0.36257 0.65473 0.0
H4220 H 0.73066 0.39749 0.637 0.0
H4221 H 0.73619 0.24583 0.67416 0.0
H4222 H 0.2617 0.6553 0.73551 0.0
H4223 H 0.26751 0.66849 0.7113 0.0
H4224 H 0.23957 0.63539 0.68629 0.0
H4225 H 0.23346 0.6221 0.71069 0.0
H4226 H 0.28111 0.66084 0.68427 0.0
H4227 H 0.22043 0.65624 0.65775 0.0
H4228 H 0.1933 0.65169 0.66569 0.0
H4229 H 0.20284 0.67149 0.71037 0.0
H4230 H 0.22994 0.67631 0.70261 0.0
H4231 H 0.28083 0.70445 0.6128 0.0
H4232 H 0.27586 0.6826 0.63039 0.0
H4233 H 0.25238 0.71342 0.66201 0.0
H4234 H 0.25744 0.73522 0.64468 0.0
H4235 H 0.23662 0.68513 0.65701 0.0
H4236 H 0.28775 0.70506 0.67002 0.0
H4237 H 0.31465 0.71239 0.66365 0.0
H4238 H 0.32405 0.66581 0.64877 0.0
H4239 H 0.29713 0.65825 0.65494 0.0
C4240 C 0.25677 0.65075 0.72489 0.0
C4241 C 0.24686 0.6378 0.72508 0.0
C4242 C 0.26026 0.65823 0.71102 0.0
C4243 C 0.2539 0.65299 0.69702 0.0
C4244 C 0.24451 0.63968 0.69701 0.0
C4245 C 0.24102 0.63212 0.71095 0.0
C4246 C 0.25619 0.66237 0.68282 0.0
C4247 C 0.27138 0.66593 0.67813 0.0
C4248 C 0.24351 0.66914 0.6749 0.0
C4249 C 0.22723 0.66642 0.67967 0.0
C4250 C 0.21671 0.65963 0.66925 0.0
C4251 C 0.20135 0.65701 0.67372 0.0
C4252 C 0.19637 0.66124 0.68855 0.0
C4253 C 0.20672 0.66816 0.69892 0.0
C4254 C 0.22209 0.67082 0.69449 0.0
C4255 C 0.27452 0.7065 0.62346 0.0
C4256 C 0.26954 0.7215 0.62743 0.0
C4257 C 0.2717 0.69405 0.63345 0.0
C4258 C 0.26373 0.69645 0.64743 0.0
C4259 C 0.25846 0.71135 0.65121 0.0
C4260 C 0.26144 0.72379 0.64136 0.0
C4261 C 0.26149 0.68373 0.65866 0.0
C4262 C 0.24633 0.67959 0.66279 0.0
C4263 C 0.27418 0.67669 0.66627 0.0
C4264 C 0.29041 0.68114 0.66278 0.0
C4265 C 0.29553 0.69641 0.6653 0.0
C4266 C 0.31078 0.7006 0.66175 0.0
C4267 C 0.32104 0.68959 0.65575 0.0
C4268 C 0.31608 0.67434 0.65338 0.0
C4269 C 0.30084 0.67009 0.65693 0.0
H4270 H 0.33283 0.69287 0.65297 0.0
H4271 H 0.18447 0.6592 0.69199 0.0
H4272 H 0.19304 0.38645 0.23959 0.0
H4273 H 0.16564 0.38192 0.23491 0.0
H4274 H 0.15513 0.39547 0.2819 0.0
H4275 H 0.18277 0.40003 0.28671 0.0
H4276 H 0.14556 0.3669 0.27598 0.0
H4277 H 0.13658 0.41461 0.25217 0.0
H4278 H 0.14169 0.4376 0.236 0.0
H4279 H 0.14201 0.40917 0.19516 0.0
H4280 H 0.13716 0.38596 0.21105 0.0
H4281 H 0.09656 0.31166 0.24588 0.0
H4282 H 0.09765 0.33875 0.25474 0.0
H4283 H 0.13119 0.34885 0.21897 0.0
H4284 H 0.12988 0.32217 0.21013 0.0
H4285 H 0.11649 0.37501 0.22705 0.0
H4286 H 0.14261 0.33044 0.25489 0.0
H4287 H 0.14054 0.30621 0.27001 0.0
H4288 H 0.10979 0.32866 0.30211 0.0
H4289 H 0.11164 0.35298 0.28706 0.0
C4290 C 0.18489 0.38885 0.24884 0.0
C4291 C 0.1901 0.39333 0.26359 0.0
C4292 C 0.16915 0.38647 0.24608 0.0
C4293 C 0.15826 0.38848 0.25802 0.0
C4294 C 0.16331 0.39398 0.27249 0.0
C4295 C 0.17911 0.39653 0.27522 0.0
C4296 C 0.14257 0.38169 0.25607 0.0
C4297 C 0.13875 0.36912 0.26563 0.0
C4298 C 0.13361 0.38457 0.24263 0.0
C4299 C 0.13642 0.3985 0.23286 0.0
C4300 C 0.13779 0.41323 0.23975 0.0
C4301 C 0.14064 0.42631 0.23062 0.0
C4302 C 0.14214 0.42485 0.21456 0.0
C4303 C 0.14079 0.41029 0.20759 0.0
C4304 C 0.13794 0.39716 0.21666 0.0
C4305 C 0.10352 0.31993 0.23949 0.0
C4306 C 0.11334 0.31493 0.22753 0.0
C4307 C 0.10419 0.33537 0.24457 0.0
C4308 C 0.11482 0.34575 0.23778 0.0
C4309 C 0.12294 0.34112 0.22447 0.0
C4310 C 0.12229 0.32582 0.21946 0.0
C4311 C 0.12068 0.35958 0.2462 0.0
C4312 C 0.12262 0.37348 0.23792 0.0
C4313 C 0.12814 0.35788 0.26073 0.0
C4314 C 0.12715 0.3434 0.26984 0.0
C4315 C 0.13542 0.33016 0.26518 0.0
C4316 C 0.13427 0.31643 0.27371 0.0
C4317 C 0.12501 0.31589 0.287 0.0
C4318 C 0.11692 0.32909 0.2918 0.0
C4319 C 0.11801 0.34284 0.28328 0.0
H4320 H 0.12413 0.30525 0.2936 0.0
H4321 H 0.14437 0.435 0.20752 0.0
H4322 H 0.68531 0.09447 0.2206 0.0
H4323 H 0.65888 0.10382 0.21713 0.0
H4324 H 0.65752 0.11815 0.26497 0.0
H4325 H 0.68398 0.10893 0.2686 0.0
H4326 H 0.62645 0.1111 0.24966 0.0
H4327 H 0.67505 0.14226 0.24428 0.0
H4328 H 0.70115 0.14532 0.23292 0.0
H4329 H 0.68198 0.14077 0.18719 0.0
H4330 H 0.65581 0.13742 0.19834 0.0
H4331 H 0.60196 0.18588 0.26672 0.0
H4332 H 0.60998 0.15934 0.26185 0.0
H4333 H 0.61606 0.17004 0.21328 0.0
H4334 H 0.60927 0.19708 0.21853 0.0
H4335 H 0.64064 0.15967 0.2223 0.0
H4336 H 0.59043 0.1394 0.22854 0.0
H4337 H 0.56438 0.13574 0.2397 0.0
H4338 H 0.58456 0.11886 0.28196 0.0
H4339 H 0.61074 0.12264 0.27117 0.0
C4340 C 0.6792 0.09896 0.2306 0.0
C4341 C 0.68696 0.10149 0.24474 0.0
C4342 C 0.66401 0.1042 0.22859 0.0
C4343 C 0.65642 0.11192 0.24071 0.0
C4344 C 0.66323 0.11224 0.25547 0.0
C4345 C 0.67845 0.10711 0.25747 0.0
C4346 C 0.64418 0.12336 0.23717 0.0
C4347 C 0.62934 0.12172 0.24357 0.0
C4348 C 0.64793 0.13694 0.22882 0.0
C4349 C 0.66355 0.13945 0.22212 0.0
C4350 C 0.67644 0.14186 0.2318 0.0
C4351 C 0.69123 0.14363 0.22541 0.0
C4352 C 0.69323 0.14321 0.20934 0.0
C4353 C 0.68042 0.14107 0.19963 0.0
C4354 C 0.66561 0.13923 0.20598 0.0
C4355 C 0.60447 0.18241 0.2549 0.0
C4356 C 0.60517 0.19349 0.24301 0.0
C4357 C 0.60895 0.16712 0.25206 0.0
C4358 C 0.61366 0.16251 0.23714 0.0
C4359 C 0.61264 0.17328 0.22492 0.0
C4360 C 0.60871 0.18871 0.22788 0.0
C4361 C 0.62259 0.14786 0.23511 0.0
C4362 C 0.63712 0.14892 0.2278 0.0
C4363 C 0.61834 0.13374 0.24244 0.0
C4364 C 0.6026 0.13134 0.24902 0.0
C4365 C 0.58933 0.13499 0.24024 0.0
C4366 C 0.57453 0.13288 0.24651 0.0
C4367 C 0.57282 0.12707 0.26153 0.0
C4368 C 0.58591 0.12333 0.27031 0.0
C4369 C 0.60074 0.12542 0.26411 0.0
H4370 H 0.56135 0.12546 0.26636 0.0
H4371 H 0.70468 0.14457 0.20441 0.0
H4372 H 0.80527 0.63774 0.24433 0.0
H4373 H 0.83279 0.63906 0.23982 0.0
H4374 H 0.83946 0.59637 0.2651 0.0
H4375 H 0.81144 0.59514 0.27011 0.0
H4376 H 0.8596 0.6161 0.27468 0.0
H4377 H 0.85139 0.5978 0.22591 0.0
H4378 H 0.83847 0.59213 0.20107 0.0
H4379 H 0.84196 0.64003 0.18798 0.0
H4380 H 0.85462 0.64609 0.21281 0.0
H4381 H 0.9031 0.68452 0.23095 0.0
H4382 H 0.90115 0.6563 0.23288 0.0
H4383 H 0.87191 0.66139 0.27324 0.0
H4384 H 0.87444 0.6891 0.27182 0.0
H4385 H 0.87796 0.64189 0.22674 0.0
H4386 H 0.86537 0.63383 0.29457 0.0
H4387 H 0.88032 0.63693 0.31865 0.0
H4388 H 0.92278 0.63689 0.29272 0.0
H4389 H 0.90816 0.63349 0.26844 0.0
C4390 C 0.81245 0.62845 0.24881 0.0
C4391 C 0.80609 0.6164 0.2577 0.0
C4392 C 0.82828 0.62909 0.24599 0.0
C4393 C 0.83826 0.61759 0.25176 0.0
C4394 C 0.83198 0.60526 0.26035 0.0
C4395 C 0.81598 0.60461 0.26323 0.0
C4396 C 0.85523 0.62016 0.25045 0.0
C4397 C 0.86386 0.62151 0.26418 0.0
C4398 C 0.86162 0.6258 0.23644 0.0
C4399 C 0.85415 0.62236 0.22125 0.0
C4400 C 0.8494 0.60715 0.21775 0.0
C4401 C 0.84209 0.60386 0.20366 0.0
C4402 C 0.83945 0.6157 0.19293 0.0
C4403 C 0.84409 0.63085 0.19627 0.0
C4404 C 0.85141 0.6342 0.21035 0.0
C4405 C 0.8967 0.67955 0.24054 0.0
C4406 C 0.88855 0.6891 0.25098 0.0
C4407 C 0.89563 0.66338 0.24166 0.0
C4408 C 0.88635 0.6565 0.25317 0.0
C4409 C 0.87947 0.66611 0.26441 0.0
C4410 C 0.88067 0.68216 0.26341 0.0
C4411 C 0.88059 0.64029 0.25157 0.0
C4412 C 0.87426 0.63599 0.23719 0.0
C4413 C 0.87683 0.63137 0.26483 0.0
C4414 C 0.88561 0.63326 0.27959 0.0
C4415 C 0.8779 0.63423 0.29395 0.0
C4416 C 0.88633 0.63613 0.30767 0.0
C4417 C 0.90249 0.63708 0.30722 0.0
C4418 C 0.91026 0.63615 0.29305 0.0
C4419 C 0.9019 0.63426 0.2793 0.0
H4420 H 0.90898 0.63855 0.31786 0.0
H4421 H 0.83376 0.61314 0.18204 0.0
H4422 H 0.35281 0.81302 0.29169 0.0
H4423 H 0.34953 0.84066 0.28705 0.0
H4424 H 0.39514 0.84286 0.26661 0.0
H4425 H 0.39859 0.81495 0.27157 0.0
H4426 H 0.3657 0.86995 0.29221 0.0
H4427 H 0.38956 0.86181 0.23551 0.0
H4428 H 0.39899 0.84184 0.21725 0.0
H4429 H 0.36058 0.81248 0.22921 0.0
H4430 H 0.35096 0.83234 0.24748 0.0
H4431 H 0.30959 0.90178 0.22576 0.0
H4432 H 0.33651 0.89807 0.23429 0.0
H4433 H 0.32003 0.87555 0.27584 0.0
H4434 H 0.2935 0.8794 0.26762 0.0
H4435 H 0.34944 0.87097 0.23707 0.0
H4436 H 0.34179 0.87695 0.30493 0.0
H4437 H 0.33148 0.89634 0.32314 0.0
H4438 H 0.33714 0.93201 0.28889 0.0
H4439 H 0.34775 0.9129 0.27051 0.0
C4440 C 0.36232 0.81949 0.28664 0.0
C4441 C 0.37585 0.81191 0.2818 0.0
C4442 C 0.36052 0.83531 0.28414 0.0
C4443 C 0.37209 0.8438 0.27647 0.0
C4444 C 0.38613 0.83651 0.27263 0.0
C4445 C 0.38806 0.82061 0.27542 0.0
C4446 C 0.36764 0.859 0.26992 0.0
C4447 C 0.36245 0.87058 0.28008 0.0
C4448 C 0.36417 0.86023 0.25397 0.0
C4449 C 0.36958 0.84849 0.24275 0.0
C4450 C 0.38312 0.85112 0.23414 0.0
C4451 C 0.3885 0.83982 0.22383 0.0
C4452 C 0.38039 0.8259 0.22206 0.0
C4453 C 0.36685 0.82326 0.23057 0.0
C4454 C 0.36141 0.83453 0.24087 0.0
C4455 C 0.31176 0.89641 0.23691 0.0
C4456 C 0.29942 0.89068 0.24592 0.0
C4457 C 0.32714 0.89434 0.24177 0.0
C4458 C 0.33035 0.88673 0.25582 0.0
C4459 C 0.31795 0.88183 0.26516 0.0
C4460 C 0.30271 0.88382 0.26031 0.0
C4461 C 0.34619 0.88121 0.25967 0.0
C4462 C 0.35349 0.87137 0.24897 0.0
C4463 C 0.35181 0.88186 0.27509 0.0
C4464 C 0.34569 0.89345 0.28632 0.0
C4465 C 0.34106 0.88895 0.30131 0.0
C4466 C 0.33508 0.8999 0.31166 0.0
C4467 C 0.33367 0.9154 0.30718 0.0
C4468 C 0.33824 0.91999 0.29234 0.0
C4469 C 0.34422 0.9091 0.28194 0.0
H4470 H 0.32903 0.92385 0.31521 0.0
H4471 H 0.38459 0.81716 0.21411 0.0
H4472 H 0.08485 0.69076 0.77973 0.0
H4473 H 0.0978 0.66569 0.78099 0.0
H4474 H 0.10586 0.66724 0.73172 0.0
H4475 H 0.09312 0.69241 0.73034 0.0
H4476 H 0.10409 0.63464 0.76547 0.0
H4477 H 0.14336 0.67231 0.7292 0.0
H4478 H 0.14631 0.69974 0.72141 0.0
H4479 H 0.12834 0.71425 0.76551 0.0
H4480 H 0.12569 0.68708 0.77361 0.0
H4481 H 0.18403 0.60451 0.75262 0.0
H4482 H 0.15688 0.61261 0.7505 0.0
H4483 H 0.16348 0.64465 0.78827 0.0
H4484 H 0.19048 0.63671 0.79054 0.0
H4485 H 0.15639 0.65762 0.75823 0.0
H4486 H 0.13957 0.61815 0.79423 0.0
H4487 H 0.13636 0.59127 0.80342 0.0
H4488 H 0.11007 0.58019 0.76261 0.0
H4489 H 0.11334 0.60696 0.75306 0.0
C4490 C 0.08863 0.68544 0.76901 0.0
C4491 C 0.08853 0.69386 0.75503 0.0
C4492 C 0.09594 0.67098 0.76975 0.0
C4493 C 0.10313 0.66484 0.75652 0.0
C4494 C 0.10051 0.67189 0.74209 0.0
C4495 C 0.09332 0.68638 0.74135 0.0
C4496 C 0.11697 0.6549 0.75855 0.0
C4497 C 0.11555 0.63952 0.76372 0.0
C4498 C 0.1319 0.66136 0.75649 0.0
C4499 C 0.13417 0.67773 0.75191 0.0
C4500 C 0.14017 0.68141 0.73723 0.0
C4501 C 0.1418 0.69692 0.73278 0.0
C4502 C 0.13751 0.70879 0.74295 0.0
C4503 C 0.13171 0.70515 0.75763 0.0
C4504 C 0.13015 0.6897 0.76216 0.0
C4505 C 0.17959 0.61293 0.7608 0.0
C4506 C 0.18953 0.62022 0.77153 0.0
C4507 C 0.16405 0.61748 0.7596 0.0
C4508 C 0.15827 0.62927 0.76917 0.0
C4509 C 0.16778 0.63552 0.78078 0.0
C4510 C 0.18324 0.63102 0.78199 0.0
C4511 C 0.14367 0.63731 0.76528 0.0
C4512 C 0.14499 0.65248 0.75969 0.0
C4513 C 0.12882 0.63058 0.7671 0.0
C4514 C 0.12687 0.61451 0.77284 0.0
C4515 C 0.13326 0.60994 0.78713 0.0
C4516 C 0.13139 0.59473 0.79242 0.0
C4517 C 0.12306 0.58401 0.78358 0.0
C4518 C 0.11655 0.58849 0.76943 0.0
C4519 C 0.11839 0.60369 0.76408 0.0
H4520 H 0.12162 0.57225 0.7877 0.0
H4521 H 0.13869 0.72079 0.73948 0.0
H4522 H 0.39141 0.1819 0.76847 0.0
H4523 H 0.38827 0.15397 0.76811 0.0
H4524 H 0.40436 0.15258 0.72076 0.0
H4525 H 0.40732 0.18074 0.72096 0.0
H4526 H 0.37537 0.14467 0.72256 0.0
H4527 H 0.41971 0.12675 0.74794 0.0
H4528 H 0.44108 0.12608 0.76688 0.0
H4529 H 0.40848 0.11953 0.80389 0.0
H4530 H 0.38686 0.1204 0.78525 0.0
H4531 H 0.31699 0.09304 0.7302 0.0
H4532 H 0.34499 0.09587 0.72637 0.0
H4533 H 0.34926 0.11438 0.77269 0.0
H4534 H 0.32161 0.11031 0.77688 0.0
H4535 H 0.37665 0.10465 0.7638 0.0
H4536 H 0.33583 0.13755 0.74049 0.0
H4537 H 0.3132 0.14168 0.72344 0.0
H4538 H 0.33874 0.12348 0.68477 0.0
H4539 H 0.36147 0.11912 0.70167 0.0
C4540 C 0.39483 0.17563 0.75814 0.0
C4541 C 0.39908 0.18359 0.74457 0.0
C4542 C 0.39326 0.15954 0.75802 0.0
C4543 C 0.39593 0.15112 0.74434 0.0
C4544 C 0.40219 0.15884 0.73143 0.0
C4545 C 0.4038 0.17498 0.73155 0.0
C4546 C 0.38792 0.13602 0.74238 0.0
C4547 C 0.37613 0.13554 0.73119 0.0
C4548 C 0.38868 0.12421 0.75375 0.0
C4549 C 0.40162 0.1236 0.76512 0.0
C4550 C 0.41706 0.12524 0.76012 0.0
C4551 C 0.42924 0.12482 0.77082 0.0
C4552 C 0.42614 0.12275 0.78658 0.0
C4553 C 0.41086 0.12109 0.79167 0.0
C4554 C 0.39864 0.1215 0.78103 0.0
C4555 C 0.32412 0.09692 0.73979 0.0
C4556 C 0.31727 0.1017 0.75374 0.0
C4557 C 0.34009 0.09859 0.7376 0.0
C4558 C 0.34913 0.10597 0.74899 0.0
C4559 C 0.34256 0.10881 0.76364 0.0
C4560 C 0.32671 0.10656 0.76603 0.0
C4561 C 0.36365 0.11421 0.74476 0.0
C4562 C 0.37655 0.11332 0.7547 0.0
C4563 C 0.36378 0.12517 0.73251 0.0
C4564 C 0.35021 0.12783 0.72233 0.0
C4565 C 0.33657 0.1344 0.72835 0.0
C4566 C 0.32374 0.13677 0.71873 0.0
C4567 C 0.32451 0.13279 0.70304 0.0
C4568 C 0.33814 0.1265 0.69693 0.0
C4569 C 0.35099 0.12407 0.70652 0.0
H4570 H 0.31457 0.13463 0.69561 0.0
H4571 H 0.43558 0.12244 0.79484 0.0
H4572 H 0.80573 0.38382 0.72135 0.0
H4573 H 0.83267 0.37549 0.72317 0.0
H4574 H 0.83604 0.39621 0.76864 0.0
H4575 H 0.80855 0.40336 0.76726 0.0
H4576 H 0.86131 0.38205 0.7278 0.0
H4577 H 0.85402 0.37266 0.7927 0.0
H4578 H 0.83359 0.37156 0.81274 0.0
H4579 H 0.80101 0.35494 0.77893 0.0
H4580 H 0.82129 0.35582 0.75877 0.0
H4581 H 0.90094 0.31227 0.77373 0.0
H4582 H 0.89371 0.33963 0.77177 0.0
H4583 H 0.87076 0.33045 0.72829 0.0
H4584 H 0.8779 0.30322 0.73014 0.0
H4585 H 0.86312 0.34594 0.77252 0.0
H4586 H 0.86728 0.36251 0.70701 0.0
H4587 H 0.88611 0.3601 0.68567 0.0
H4588 H 0.92342 0.35729 0.71851 0.0
H4589 H 0.90486 0.35993 0.74007 0.0
C4590 C 0.81242 0.38707 0.73148 0.0
C4591 C 0.80518 0.39403 0.74423 0.0
C4592 C 0.82786 0.38235 0.73252 0.0
C4593 C 0.83628 0.38475 0.74627 0.0
C4594 C 0.82964 0.39379 0.75811 0.0
C4595 C 0.814 0.398 0.7573 0.0
C4596 C 0.85035 0.3752 0.74917 0.0
C4597 C 0.86182 0.37423 0.73763 0.0
C4598 C 0.8513 0.36522 0.76221 0.0
C4599 C 0.83908 0.36452 0.77424 0.0
C4600 C 0.84249 0.36876 0.78959 0.0
C4601 C 0.83095 0.36818 0.80095 0.0
C4602 C 0.81599 0.36325 0.7971 0.0
C4603 C 0.81257 0.35881 0.78189 0.0
C4604 C 0.82408 0.35934 0.7705 0.0
C4605 C 0.89479 0.31617 0.76351 0.0
C4606 C 0.88972 0.30553 0.75223 0.0
C4607 C 0.89071 0.33183 0.76239 0.0
C4608 C 0.88174 0.3371 0.74987 0.0
C4609 C 0.87788 0.32673 0.73794 0.0
C4610 C 0.88182 0.31109 0.73911 0.0
C4611 C 0.87357 0.35218 0.75072 0.0
C4612 C 0.86314 0.35419 0.763 0.0
C4613 C 0.87336 0.36271 0.73815 0.0
C4614 C 0.88464 0.36141 0.72519 0.0
C4615 C 0.87951 0.36153 0.70971 0.0
C4616 C 0.89014 0.36008 0.69756 0.0
C4617 C 0.90595 0.35853 0.70073 0.0
C4618 C 0.91117 0.35846 0.71607 0.0
C4619 C 0.90059 0.35991 0.72826 0.0
H4620 H 0.91416 0.35739 0.69131 0.0
H4621 H 0.80707 0.36283 0.80591 0.0
H4622 H 0.68886 0.88079 0.72034 0.0
H4623 H 0.66076 0.8796 0.72178 0.0
H4624 H 0.66179 0.90378 0.76556 0.0
H4625 H 0.69006 0.90502 0.7642 0.0
H4626 H 0.65152 0.87491 0.7683 0.0
H4627 H 0.63713 0.91709 0.73763 0.0
H4628 H 0.63805 0.93573 0.716 0.0
H4629 H 0.62725 0.89935 0.6838 0.0
H4630 H 0.6265 0.88041 0.70517 0.0
H4631 H 0.59556 0.82009 0.76834 0.0
H4632 H 0.60048 0.84806 0.76924 0.0
H4633 H 0.61729 0.84635 0.72211 0.0
H4634 H 0.61104 0.81886 0.72084 0.0
H4635 H 0.61044 0.87482 0.72809 0.0
H4636 H 0.64059 0.83438 0.75581 0.0
H4637 H 0.64351 0.81386 0.77557 0.0
H4638 H 0.6284 0.8455 0.81094 0.0
H4639 H 0.62527 0.86614 0.79131 0.0
C4640 C 0.68311 0.88632 0.73003 0.0
C4641 C 0.69171 0.89257 0.74237 0.0
C4642 C 0.66697 0.88585 0.73074 0.0
C4643 C 0.65914 0.89157 0.74382 0.0
C4644 C 0.6676 0.89935 0.75534 0.0
C4645 C 0.68378 0.89994 0.75458 0.0
C4646 C 0.64343 0.8855 0.74719 0.0
C4647 C 0.64221 0.8754 0.75984 0.0
C4648 C 0.63138 0.886 0.73608 0.0
C4649 C 0.63172 0.89731 0.72308 0.0
C4650 C 0.63502 0.91303 0.72594 0.0
C4651 C 0.6355 0.92366 0.71371 0.0
C4652 C 0.63269 0.91873 0.69854 0.0
C4653 C 0.62938 0.90316 0.69557 0.0
C4654 C 0.62888 0.89247 0.70775 0.0
C4655 C 0.59951 0.82595 0.75796 0.0
C4656 C 0.60317 0.81745 0.7446 0.0
C4657 C 0.6024 0.84189 0.75848 0.0
C4658 C 0.60994 0.84918 0.746 0.0
C4659 C 0.61164 0.84103 0.73198 0.0
C4660 C 0.60815 0.82526 0.73126 0.0
C4661 C 0.61939 0.86339 0.74841 0.0
C4662 C 0.61934 0.87501 0.73696 0.0
C4663 C 0.63069 0.86404 0.76035 0.0
C4664 C 0.63249 0.85168 0.77212 0.0
C4665 C 0.63784 0.8369 0.76781 0.0
C4666 C 0.63953 0.82527 0.77897 0.0
C4667 C 0.6361 0.82836 0.7945 0.0
C4668 C 0.631 0.84311 0.7989 0.0
C4669 C 0.62925 0.85477 0.78777 0.0
H4670 H 0.63742 0.81935 0.80313 0.0
H4671 H 0.63308 0.92698 0.68909 0.0
H4672 H 0.27049 0.17979 0.42198 0.0
H4673 H 0.27339 0.1527 0.4146 0.0
H4674 H 0.228 0.15334 0.39374 0.0
H4675 H 0.22488 0.18039 0.40109 0.0
H4676 H 0.24009 0.12189 0.4021 0.0
H4677 H 0.25273 0.16924 0.37139 0.0
H4678 H 0.26513 0.19495 0.36946 0.0
H4679 H 0.30865 0.17523 0.38351 0.0
H4680 H 0.2964 0.1494 0.38561 0.0
H4681 H 0.23296 0.10303 0.32413 0.0
H4682 H 0.23417 0.1088 0.35168 0.0
H4683 H 0.28421 0.10881 0.34958 0.0
H4684 H 0.28294 0.10402 0.32167 0.0
H4685 H 0.27563 0.13468 0.35872 0.0
H4686 H 0.26202 0.08466 0.37592 0.0
H4687 H 0.24806 0.05975 0.37675 0.0
H4688 H 0.20574 0.0835 0.38778 0.0
H4689 H 0.21936 0.10859 0.38678 0.0
C4690 C 0.26079 0.17402 0.41647 0.0
C4691 C 0.24774 0.18246 0.41146 0.0
C4692 C 0.26243 0.15844 0.4124 0.0
C4693 C 0.25109 0.15121 0.40327 0.0
C4694 C 0.23694 0.15878 0.4007 0.0
C4695 C 0.23526 0.17436 0.40477 0.0
C4696 C 0.25564 0.13878 0.39242 0.0
C4697 C 0.248 0.12444 0.39266 0.0
C4698 C 0.26618 0.14212 0.38033 0.0
C4699 C 0.27366 0.1575 0.37878 0.0
C4700 C 0.26494 0.17044 0.37409 0.0
C4701 C 0.27193 0.18501 0.37298 0.0
C4702 C 0.28767 0.18675 0.37641 0.0
C4703 C 0.29646 0.17388 0.38089 0.0
C4704 C 0.2895 0.15927 0.38203 0.0
C4705 C 0.24423 0.10376 0.32965 0.0
C4706 C 0.25786 0.10342 0.32076 0.0
C4707 C 0.24493 0.10689 0.34551 0.0
C4708 C 0.2593 0.10929 0.35282 0.0
C4709 C 0.27298 0.10713 0.34421 0.0
C4710 C 0.27226 0.10445 0.32826 0.0
C4711 C 0.25987 0.11752 0.36796 0.0
C4712 C 0.26835 0.13141 0.36844 0.0
C4713 C 0.25007 0.11363 0.38059 0.0
C4714 C 0.24175 0.09855 0.38125 0.0
C4715 C 0.24972 0.0846 0.37844 0.0
C4716 C 0.24186 0.07043 0.37895 0.0
C4717 C 0.22602 0.07004 0.38231 0.0
C4718 C 0.21801 0.08382 0.38519 0.0
C4719 C 0.22581 0.09802 0.3847 0.0
H4720 H 0.21996 0.05906 0.3827 0.0
H4721 H 0.29307 0.19804 0.37555 0.0
H4722 H 0.88409 0.26625 0.29808 0.0
H4723 H 0.87365 0.26777 0.32442 0.0
H4724 H 0.88985 0.22144 0.33367 0.0
H4725 H 0.90068 0.21989 0.30756 0.0
H4726 H 0.85342 0.23229 0.33058 0.0
H4727 H 0.90292 0.23789 0.35656 0.0
H4728 H 0.92802 0.25065 0.36142 0.0
H4729 H 0.90453 0.29286 0.37346 0.0
H4730 H 0.87927 0.2804 0.36841 0.0
H4731 H 0.80794 0.21942 0.39242 0.0
H4732 H 0.83405 0.21908 0.38155 0.0
H4733 H 0.83478 0.26907 0.38146 0.0
H4734 H 0.80882 0.26949 0.39277 0.0
H4735 H 0.8652 0.25579 0.38181 0.0
H4736 H 0.81764 0.25377 0.35288 0.0
H4737 H 0.79149 0.24402 0.34668 0.0
H4738 H 0.81026 0.19878 0.33771 0.0
H4739 H 0.8365 0.20821 0.34421 0.0
C4740 C 0.88593 0.25659 0.3059 0.0
C4741 C 0.89301 0.24287 0.30066 0.0
C4742 C 0.88007 0.25754 0.32097 0.0
C4743 C 0.88111 0.24476 0.33095 0.0
C4744 C 0.88919 0.2315 0.32618 0.0
C4745 C 0.8953 0.23064 0.31122 0.0
C4746 C 0.87066 0.24385 0.34443 0.0
C4747 C 0.85613 0.2371 0.3419 0.0
C4748 C 0.87405 0.25075 0.35889 0.0
C4749 C 0.88921 0.25826 0.36191 0.0
C4750 C 0.9031 0.24995 0.36005 0.0
C4751 C 0.91736 0.25711 0.36289 0.0
C4752 C 0.91787 0.27257 0.36769 0.0
C4753 C 0.90412 0.28089 0.36971 0.0
C4754 C 0.88982 0.27378 0.36687 0.0
C4755 C 0.81396 0.23032 0.39079 0.0
C4756 C 0.80623 0.24447 0.39303 0.0
C4757 C 0.8289 0.23012 0.38463 0.0
C4758 C 0.83612 0.24405 0.38029 0.0
C4759 C 0.82936 0.25819 0.38465 0.0
C4760 C 0.81447 0.25841 0.39107 0.0
C4761 C 0.84811 0.24383 0.36803 0.0
C4762 C 0.86269 0.25062 0.37062 0.0
C4763 C 0.84471 0.23733 0.35335 0.0
C4764 C 0.82899 0.23163 0.34925 0.0
C4765 C 0.81617 0.24171 0.34973 0.0
C4766 C 0.80134 0.23625 0.34615 0.0
C4767 C 0.79921 0.22077 0.34186 0.0
C4768 C 0.81192 0.21075 0.34109 0.0
C4769 C 0.82678 0.21614 0.34474 0.0
H4770 H 0.78772 0.21656 0.33908 0.0
H4771 H 0.92893 0.2781 0.36989 0.0
H4772 H 0.77797 0.91106 0.30948 0.0
H4773 H 0.78248 0.90274 0.33616 0.0
H4774 H 0.73457 0.88898 0.34001 0.0
H4775 H 0.72993 0.89738 0.31349 0.0
H4776 H 0.74865 0.89483 0.36934 0.0
H4777 H 0.75816 0.86505 0.32061 0.0
H4778 H 0.77122 0.862 0.29533 0.0
H4779 H 0.81556 0.86723 0.31738 0.0
H4780 H 0.8027 0.87049 0.34277 0.0
H4781 H 0.73029 0.81897 0.38808 0.0
H4782 H 0.73563 0.84582 0.38135 0.0
H4783 H 0.78476 0.83609 0.3811 0.0
H4784 H 0.7793 0.80887 0.38687 0.0
H4785 H 0.77816 0.84739 0.35571 0.0
H4786 H 0.7669 0.86507 0.40591 0.0
H4787 H 0.75327 0.86726 0.43091 0.0
H4788 H 0.71286 0.88472 0.40767 0.0
H4789 H 0.72613 0.88241 0.38248 0.0
C4790 C 0.76819 0.90704 0.31626 0.0
C4791 C 0.75372 0.90431 0.30923 0.0
C4792 C 0.7708 0.90231 0.33155 0.0
C4793 C 0.75897 0.89482 0.33986 0.0
C4794 C 0.74391 0.89459 0.33374 0.0
C4795 C 0.7413 0.89927 0.31849 0.0
C4796 C 0.76279 0.88354 0.3522 0.0
C4797 C 0.75527 0.8845 0.36659 0.0
C4798 C 0.77179 0.87028 0.3487 0.0
C4799 C 0.7795 0.86819 0.3335 0.0
C4800 C 0.77069 0.86562 0.32002 0.0
C4801 C 0.77805 0.86386 0.30569 0.0
C4802 C 0.79421 0.86447 0.30474 0.0
C4803 C 0.80304 0.8668 0.31813 0.0
C4804 C 0.79573 0.86862 0.33248 0.0
C4805 C 0.74225 0.82266 0.387 0.0
C4806 C 0.75437 0.81183 0.38772 0.0
C4807 C 0.74534 0.83811 0.38332 0.0
C4808 C 0.76065 0.84313 0.38076 0.0
C4809 C 0.77285 0.83254 0.38292 0.0
C4810 C 0.76973 0.81698 0.38617 0.0
C4811 C 0.76352 0.85822 0.37291 0.0
C4812 C 0.77219 0.85792 0.35914 0.0
C4813 C 0.75565 0.87203 0.37713 0.0
C4814 C 0.74755 0.87354 0.39226 0.0
C4815 C 0.75508 0.8693 0.4061 0.0
C4816 C 0.74741 0.87057 0.42032 0.0
C4817 C 0.73221 0.87613 0.42088 0.0
C4818 C 0.72465 0.88044 0.40722 0.0
C4819 C 0.73226 0.87919 0.39296 0.0
H4820 H 0.72629 0.87709 0.4319 0.0
H4821 H 0.79991 0.86309 0.29365 0.0
H4822 H 0.18432 0.78622 0.39641 0.0
H4823 H 0.15784 0.79152 0.3877 0.0
H4824 H 0.14816 0.74236 0.38819 0.0
H4825 H 0.17393 0.73729 0.398 0.0
H4826 H 0.14982 0.78494 0.36164 0.0
H4827 H 0.11309 0.73142 0.3837 0.0
H4828 H 0.10689 0.71895 0.40862 0.0
H4829 H 0.11849 0.76086 0.43283 0.0
H4830 H 0.12453 0.77371 0.40805 0.0
H4831 H 0.11557 0.73202 0.31226 0.0
H4832 H 0.11828 0.73806 0.33972 0.0
H4833 H 0.09793 0.78306 0.332 0.0
H4834 H 0.09501 0.77703 0.30444 0.0
H4835 H 0.1029 0.75217 0.36722 0.0
H4836 H 0.12571 0.80704 0.34312 0.0
H4837 H 0.13189 0.81945 0.31804 0.0
H4838 H 0.14801 0.77584 0.30021 0.0
H4839 H 0.14213 0.76329 0.32526 0.0
C4840 C 0.17626 0.77666 0.39525 0.0
C4841 C 0.18119 0.76134 0.39768 0.0
C4842 C 0.16112 0.77968 0.39027 0.0
C4843 C 0.15085 0.76738 0.38718 0.0
C4844 C 0.1555 0.75218 0.39083 0.0
C4845 C 0.17042 0.74923 0.39629 0.0
C4846 C 0.13705 0.76981 0.37706 0.0
C4847 C 0.13928 0.7783 0.36332 0.0
C4848 C 0.12315 0.76121 0.37898 0.0
C4849 C 0.11926 0.75357 0.39394 0.0
C4850 C 0.11416 0.73807 0.3943 0.0
C4851 C 0.11072 0.7309 0.40843 0.0
C4852 C 0.1123 0.73911 0.4223 0.0
C4853 C 0.1173 0.75451 0.42208 0.0
C4854 C 0.12075 0.76174 0.40799 0.0
C4855 C 0.11106 0.74294 0.31652 0.0
C4856 C 0.10548 0.75421 0.30618 0.0
C4857 C 0.11244 0.74632 0.33226 0.0
C4858 C 0.10851 0.76109 0.33781 0.0
C4859 C 0.10101 0.7716 0.3279 0.0
C4860 C 0.09944 0.76815 0.31214 0.0
C4861 C 0.11634 0.76659 0.35201 0.0
C4862 C 0.11305 0.75953 0.36626 0.0
C4863 C 0.12917 0.7767 0.35079 0.0
C4864 C 0.13337 0.78425 0.33596 0.0
C4865 C 0.13066 0.80016 0.33386 0.0
C4866 C 0.1341 0.8072 0.31966 0.0
C4867 C 0.1403 0.79843 0.30752 0.0
C4868 C 0.1432 0.78262 0.3096 0.0
C4869 C 0.13984 0.77555 0.3238 0.0
H4870 H 0.14288 0.80388 0.29651 0.0
H4871 H 0.10964 0.73353 0.43322 0.0
H4872 H 0.28527 0.8067 0.64486 0.0
H4873 H 0.27909 0.83401 0.6453 0.0
H4874 H 0.26995 0.83309 0.59609 0.0
H4875 H 0.27564 0.8052 0.59567 0.0
H4876 H 0.28706 0.86075 0.63358 0.0
H4877 H 0.2408 0.8571 0.58978 0.0
H4878 H 0.2257 0.83828 0.5743 0.0
H4879 H 0.22507 0.80677 0.61286 0.0
H4880 H 0.24009 0.82547 0.62853 0.0
H4881 H 0.23976 0.90834 0.67937 0.0
H4882 H 0.2492 0.90345 0.65283 0.0
H4883 H 0.23085 0.8569 0.65521 0.0
H4884 H 0.22137 0.86184 0.68114 0.0
H4885 H 0.23037 0.86627 0.62604 0.0
H4886 H 0.27055 0.86652 0.6702 0.0
H4887 H 0.28465 0.88179 0.68993 0.0
H4888 H 0.29629 0.91586 0.65551 0.0
H4889 H 0.28219 0.90076 0.63563 0.0
C4890 C 0.28214 0.81225 0.63403 0.0
C4891 C 0.28055 0.80364 0.62031 0.0
C4892 C 0.27879 0.82802 0.63426 0.0
C4893 C 0.27383 0.83566 0.62076 0.0
C4894 C 0.27353 0.82742 0.6067 0.0
C4895 C 0.27681 0.81148 0.60648 0.0
C4896 C 0.26676 0.85128 0.62251 0.0
C4897 C 0.27477 0.86232 0.63142 0.0
C4898 C 0.25083 0.8537 0.6194 0.0
C4899 C 0.24161 0.84257 0.61021 0.0
C4900 C 0.23738 0.84616 0.59492 0.0
C4901 C 0.22886 0.83553 0.58613 0.0
C4902 C 0.22446 0.82132 0.59258 0.0
C4903 C 0.2285 0.81776 0.60787 0.0
C4904 C 0.23699 0.82836 0.61671 0.0
C4905 C 0.23732 0.8973 0.67389 0.0
C4906 C 0.23015 0.88533 0.6823 0.0
C4907 C 0.24273 0.8945 0.65879 0.0
C4908 C 0.24098 0.87972 0.65207 0.0
C4909 C 0.23236 0.86842 0.66001 0.0
C4910 C 0.22707 0.87118 0.67495 0.0
C4911 C 0.25035 0.87444 0.6386 0.0
C4912 C 0.24288 0.86555 0.62718 0.0
C4913 C 0.2667 0.87369 0.63975 0.0
C4914 C 0.27533 0.88261 0.65153 0.0
C4915 C 0.27617 0.87726 0.66689 0.0
C4916 C 0.28411 0.88588 0.67808 0.0
C4917 C 0.29135 0.89979 0.67398 0.0
C4918 C 0.29067 0.90509 0.65867 0.0
C4919 C 0.28271 0.89652 0.64744 0.0
H4920 H 0.29749 0.90646 0.68265 0.0
H4921 H 0.2179 0.81309 0.58575 0.0
H4922 H 0.18956 0.27355 0.58041 0.0
H4923 H 0.16339 0.28179 0.58724 0.0
H4924 H 0.15375 0.23629 0.60553 0.0
H4925 H 0.17972 0.22786 0.59858 0.0
H4926 H 0.12607 0.25387 0.59725 0.0
H4927 H 0.17487 0.25876 0.62963 0.0
H4928 H 0.20191 0.26801 0.63159 0.0
H4929 H 0.18756 0.31354 0.61741 0.0
H4930 H 0.16043 0.30452 0.61545 0.0
H4931 H 0.10855 0.23979 0.67331 0.0
H4932 H 0.11287 0.2445 0.64594 0.0
H4933 H 0.12004 0.29319 0.65535 0.0
H4934 H 0.11688 0.28814 0.68307 0.0
H4935 H 0.14366 0.28377 0.6431 0.0
H4936 H 0.09242 0.27839 0.62652 0.0
H4937 H 0.06574 0.26831 0.6249 0.0
H4938 H 0.08292 0.22465 0.60832 0.0
H4939 H 0.10973 0.23433 0.61007 0.0
C4940 C 0.18166 0.26504 0.58519 0.0
C4941 C 0.18694 0.25023 0.58957 0.0
C4942 C 0.16663 0.26978 0.58901 0.0
C4943 C 0.15683 0.25978 0.5973 0.0
C4944 C 0.16119 0.24424 0.59925 0.0
C4945 C 0.17616 0.23948 0.59542 0.0
C4946 C 0.14495 0.26614 0.60791 0.0
C4947 C 0.12967 0.26063 0.60722 0.0
C4948 C 0.14959 0.2754 0.62061 0.0
C4949 C 0.16573 0.28099 0.62235 0.0
C4950 C 0.17752 0.27076 0.627 0.0
C4951 C 0.19284 0.27594 0.62809 0.0
C4952 C 0.19645 0.29135 0.6246 0.0
C4953 C 0.18474 0.30161 0.6201 0.0
C4954 C 0.16939 0.29649 0.61905 0.0
C4955 C 0.11046 0.2516 0.66948 0.0
C4956 C 0.11269 0.26355 0.68028 0.0
C4957 C 0.11278 0.25436 0.65371 0.0
C4958 C 0.11689 0.26924 0.64841 0.0
C4959 C 0.11708 0.28157 0.65909 0.0
C4960 C 0.11526 0.2787 0.67493 0.0
C4961 C 0.12459 0.27095 0.63304 0.0
C4962 C 0.13936 0.27783 0.63289 0.0
C4963 C 0.11928 0.26311 0.61958 0.0
C4964 C 0.10315 0.25713 0.61842 0.0
C4965 C 0.09054 0.26661 0.6226 0.0
C4966 C 0.07538 0.26096 0.62165 0.0
C4967 C 0.07264 0.24585 0.6165 0.0
C4968 C 0.08506 0.23636 0.61227 0.0
C4969 C 0.10025 0.24195 0.6132 0.0
H4970 H 0.06089 0.2415 0.61578 0.0
H4971 H 0.20831 0.29536 0.62542 0.0
H4972 H 0.73074 0.14481 0.69008 0.0
H4973 H 0.72876 0.14567 0.66226 0.0
H4974 H 0.75465 0.10297 0.65866 0.0
H4975 H 0.75725 0.10235 0.687 0.0
H4976 H 0.76601 0.12132 0.6392 0.0
H4977 H 0.71592 0.10521 0.64357 0.0
H4978 H 0.68968 0.10108 0.65406 0.0
H4979 H 0.67896 0.14917 0.64702 0.0
H4980 H 0.70519 0.15371 0.63674 0.0
H4981 H 0.72814 0.18662 0.58606 0.0
H4982 H 0.72889 0.15874 0.59106 0.0
H4983 H 0.76836 0.16555 0.6212 0.0
H4984 H 0.7683 0.19276 0.61543 0.0
H4985 H 0.72095 0.14739 0.6149 0.0
H4986 H 0.7871 0.13792 0.63375 0.0
H4987 H 0.81244 0.1385 0.6207 0.0
H4988 H 0.79008 0.13513 0.57637 0.0
H4989 H 0.76455 0.13423 0.58911 0.0
C4990 C 0.73583 0.1354 0.68351 0.0
C4991 C 0.74429 0.12358 0.69086 0.0
C4992 C 0.73448 0.13578 0.66746 0.0
C4993 C 0.74124 0.1242 0.65822 0.0
C4994 C 0.7492 0.11198 0.66551 0.0
C4995 C 0.75068 0.11165 0.68171 0.0
C4996 C 0.74167 0.12652 0.64113 0.0
C4997 C 0.75614 0.12681 0.63369 0.0
C4998 C 0.72853 0.13228 0.63316 0.0
C4999 C 0.71257 0.12976 0.63923 0.0
C5000 C 0.70799 0.11493 0.64428 0.0
C5001 C 0.69311 0.11252 0.6502 0.0
C5002 C 0.68265 0.12485 0.65116 0.0
C5003 C 0.68706 0.13962 0.6462 0.0
C5004 C 0.70193 0.1421 0.64026 0.0
C5005 C 0.73737 0.18202 0.59323 0.0
C5006 C 0.74787 0.19201 0.60073 0.0
C5007 C 0.73777 0.16603 0.59612 0.0
C5008 C 0.74856 0.15981 0.60669 0.0
C5009 C 0.76005 0.16967 0.61275 0.0
C5010 C 0.75983 0.1855 0.60964 0.0
C5011 C 0.74582 0.14455 0.61439 0.0
C5012 C 0.73081 0.14146 0.61993 0.0
C5013 C 0.75832 0.13553 0.62008 0.0
C5014 C 0.77381 0.1359 0.61244 0.0
C5015 C 0.78752 0.13707 0.62123 0.0
C5016 C 0.80196 0.13753 0.61387 0.0
C5017 C 0.80288 0.13683 0.59772 0.0
C5018 C 0.78936 0.13568 0.58889 0.0
C5019 C 0.77489 0.13521 0.59617 0.0
H5020 H 0.81406 0.1372 0.59205 0.0
H5021 H 0.67113 0.12296 0.65578 0.0
H5022 H 0.81094 0.69588 0.60966 0.0
H5023 H 0.83772 0.69837 0.61874 0.0
H5024 H 0.83535 0.74789 0.61245 0.0
H5025 H 0.80838 0.74544 0.60377 0.0
H5026 H 0.86828 0.73059 0.60943 0.0
H5027 H 0.82488 0.74371 0.64278 0.0
H5028 H 0.79919 0.74047 0.65488 0.0
H5029 H 0.81243 0.69542 0.67144 0.0
H5030 H 0.83812 0.69829 0.65911 0.0
H5031 H 0.90129 0.76153 0.68139 0.0
H5032 H 0.89028 0.75552 0.65591 0.0
H5033 H 0.88791 0.70716 0.6683 0.0
H5034 H 0.89877 0.71304 0.69372 0.0
H5035 H 0.85928 0.72326 0.66579 0.0
H5036 H 0.90628 0.7154 0.6372 0.0
H5037 H 0.9321 0.7224 0.62719 0.0
H5038 H 0.91255 0.76142 0.60324 0.0
H5039 H 0.88662 0.7548 0.61331 0.0
C5040 C 0.81645 0.70717 0.60938 0.0
C5041 C 0.80777 0.72047 0.60595 0.0
C5042 C 0.83173 0.70859 0.61456 0.0
C5043 C 0.83846 0.72331 0.61625 0.0
C5044 C 0.83041 0.73643 0.61101 0.0
C5045 C 0.81502 0.73503 0.60609 0.0
C5046 C 0.85152 0.72526 0.62715 0.0
C5047 C 0.86642 0.72904 0.62177 0.0
C5048 C 0.84898 0.72331 0.6432 0.0
C5049 C 0.83328 0.72109 0.64979 0.0
C5050 C 0.82219 0.73299 0.64873 0.0
C5051 C 0.80768 0.73127 0.65571 0.0
C5052 C 0.8042 0.71777 0.66396 0.0
C5053 C 0.81516 0.70588 0.66507 0.0
C5054 C 0.82968 0.70752 0.65804 0.0
C5055 C 0.8991 0.74953 0.67841 0.0
C5056 C 0.90052 0.73779 0.68966 0.0
C5057 C 0.89286 0.7461 0.66381 0.0
C5058 C 0.88816 0.73092 0.66031 0.0
C5059 C 0.89147 0.71895 0.67081 0.0
C5060 C 0.89758 0.72235 0.68537 0.0
C5061 C 0.87632 0.72823 0.64821 0.0
C5062 C 0.86141 0.72451 0.65344 0.0
C5063 C 0.87893 0.73066 0.6322 0.0
C5064 C 0.89451 0.73468 0.62614 0.0
C5065 C 0.90749 0.72557 0.62994 0.0
C5066 C 0.92215 0.72945 0.62422 0.0
C5067 C 0.92397 0.74237 0.61462 0.0
C5068 C 0.91112 0.75142 0.61069 0.0
C5069 C 0.89644 0.7476 0.61639 0.0
H5070 H 0.93533 0.74535 0.6102 0.0
H5071 H 0.79302 0.71654 0.6695 0.0
H5072 H 0.30009 0.25934 0.10384 0.0
H5073 H 0.32735 0.26424 0.10832 0.0
H5074 H 0.33858 0.21832 0.09188 0.0
H5075 H 0.31098 0.21319 0.08763 0.0
H5076 H 0.34849 0.22135 0.1196 0.0
H5077 H 0.35795 0.25107 0.07603 0.0
H5078 H 0.35352 0.26944 0.05461 0.0
H5079 H 0.35016 0.30699 0.08709 0.0
H5080 H 0.35429 0.28887 0.10874 0.0
H5081 H 0.39371 0.24921 0.1807 0.0
H5082 H 0.394 0.24347 0.15272 0.0
H5083 H 0.35504 0.2742 0.14621 0.0
H5084 H 0.35466 0.27972 0.17384 0.0
H5085 H 0.37427 0.27272 0.11969 0.0
H5086 H 0.34744 0.23593 0.15794 0.0
H5087 H 0.35025 0.21792 0.18003 0.0
H5088 H 0.38702 0.19419 0.15626 0.0
H5089 H 0.38443 0.21216 0.13408 0.0
C5090 C 0.30836 0.2504 0.10074 0.0
C5091 C 0.30333 0.23575 0.09574 0.0
C5092 C 0.32407 0.25331 0.10308 0.0
C5093 C 0.33515 0.24167 0.1004 0.0
C5094 C 0.33028 0.2275 0.09399 0.0
C5095 C 0.31448 0.22458 0.0916 0.0
C5096 C 0.35068 0.24328 0.10772 0.0
C5097 C 0.35465 0.23231 0.11907 0.0
C5098 C 0.35901 0.25741 0.107 0.0
C5099 C 0.35655 0.26855 0.09406 0.0
C5100 C 0.35622 0.26324 0.07864 0.0
C5101 C 0.35375 0.27362 0.06643 0.0
C5102 C 0.3516 0.28937 0.06948 0.0
C5103 C 0.3519 0.29479 0.08474 0.0
C5104 C 0.35436 0.28446 0.09699 0.0
C5105 C 0.38563 0.25512 0.17312 0.0
C5106 C 0.37398 0.26466 0.17932 0.0
C5107 C 0.38583 0.25189 0.15718 0.0
C5108 C 0.37446 0.25831 0.14741 0.0
C5109 C 0.36398 0.26917 0.15348 0.0
C5110 C 0.36364 0.27219 0.1693 0.0
C5111 C 0.37066 0.25144 0.13213 0.0
C5112 C 0.36892 0.26135 0.11935 0.0
C5113 C 0.36444 0.23629 0.13137 0.0
C5114 C 0.36579 0.22534 0.14447 0.0
C5115 C 0.35609 0.22683 0.15746 0.0
C5116 C 0.35766 0.21667 0.16998 0.0
C5117 C 0.36882 0.20492 0.16955 0.0
C5118 C 0.3784 0.2033 0.15658 0.0
C5119 C 0.37688 0.21346 0.14404 0.0
H5120 H 0.37003 0.19707 0.17927 0.0
H5121 H 0.34967 0.29739 0.06002 0.0
H5122 H 0.38604 0.77521 0.79606 0.0
H5123 H 0.37859 0.77912 0.82293 0.0
H5124 H 0.4027 0.73727 0.83596 0.0
H5125 H 0.41011 0.73314 0.80896 0.0
H5126 H 0.37304 0.73532 0.84228 0.0
H5127 H 0.41159 0.77151 0.85444 0.0
H5128 H 0.42923 0.79371 0.85098 0.0
H5129 H 0.39033 0.82471 0.84912 0.0
H5130 H 0.37241 0.80269 0.85232 0.0
H5131 H 0.31479 0.7435 0.89579 0.0
H5132 H 0.34288 0.74417 0.8912 0.0
H5133 H 0.33682 0.78372 0.86111 0.0
H5134 H 0.30899 0.78334 0.86618 0.0
H5135 H 0.36588 0.78354 0.87276 0.0
H5136 H 0.3303 0.74626 0.84758 0.0
H5137 H 0.31158 0.72462 0.84841 0.0
H5138 H 0.34484 0.69648 0.87254 0.0
H5139 H 0.36369 0.71806 0.87198 0.0
C5140 C 0.39016 0.76704 0.80467 0.0
C5141 C 0.39833 0.75364 0.80027 0.0
C5142 C 0.38604 0.76941 0.82012 0.0
C5143 C 0.39008 0.75848 0.8315 0.0
C5144 C 0.39948 0.74586 0.82737 0.0
C5145 C 0.40364 0.74349 0.8119 0.0
C5146 C 0.38154 0.75846 0.84641 0.0
C5147 C 0.37196 0.74566 0.84937 0.0
C5148 C 0.37995 0.772 0.85554 0.0
C5149 C 0.39063 0.78539 0.85364 0.0
C5150 C 0.40677 0.78304 0.85321 0.0
C5151 C 0.41683 0.79561 0.8513 0.0
C5152 C 0.4109 0.81061 0.84984 0.0
C5153 C 0.3949 0.81308 0.85029 0.0
C5154 C 0.38479 0.80056 0.85219 0.0
C5155 C 0.31966 0.75277 0.88885 0.0
C5156 C 0.30993 0.76334 0.88126 0.0
C5157 C 0.33565 0.75314 0.8862 0.0
C5158 C 0.34189 0.76377 0.87552 0.0
C5159 C 0.3323 0.77542 0.86939 0.0
C5160 C 0.31639 0.77517 0.87221 0.0
C5161 C 0.35697 0.76077 0.86782 0.0
C5162 C 0.36765 0.77296 0.86622 0.0
C5163 C 0.35952 0.74675 0.85966 0.0
C5164 C 0.34828 0.73378 0.85992 0.0
C5165 C 0.33357 0.73546 0.85311 0.0
C5166 C 0.32295 0.72323 0.85354 0.0
C5167 C 0.327 0.7092 0.86056 0.0
C5168 C 0.3417 0.70737 0.86714 0.0
C5169 C 0.35235 0.71959 0.86679 0.0
H5170 H 0.31877 0.69974 0.86088 0.0
H5171 H 0.41871 0.82032 0.84835 0.0
H5172 H 0.21799 0.31425 0.91118 0.0
H5173 H 0.21117 0.34054 0.90324 0.0
H5174 H 0.2575 0.34735 0.8858 0.0
H5175 H 0.26452 0.32131 0.89394 0.0
H5176 H 0.24113 0.37612 0.8924 0.0
H5177 H 0.23378 0.32585 0.86163 0.0
H5178 H 0.22254 0.29949 0.8612 0.0
H5179 H 0.17835 0.31791 0.87485 0.0
H5180 H 0.18934 0.34437 0.87522 0.0
H5181 H 0.26017 0.38918 0.81683 0.0
H5182 H 0.25347 0.38667 0.84401 0.0
H5183 H 0.20533 0.38023 0.83159 0.0
H5184 H 0.21248 0.38124 0.80416 0.0
H5185 H 0.21219 0.35774 0.84626 0.0
H5186 H 0.21978 0.40933 0.86007 0.0
H5187 H 0.23109 0.43555 0.86085 0.0
H5188 H 0.27282 0.41727 0.88092 0.0
H5189 H 0.26191 0.3909 0.88003 0.0
C5190 C 0.22697 0.32158 0.90637 0.0
C5191 C 0.24162 0.31547 0.90259 0.0
C5192 C 0.22305 0.33667 0.90189 0.0
C5193 C 0.23369 0.34569 0.89349 0.0
C5194 C 0.24905 0.34054 0.89213 0.0
C5195 C 0.253 0.32552 0.89664 0.0
C5196 C 0.22821 0.35743 0.88222 0.0
C5197 C 0.23458 0.37239 0.88235 0.0
C5198 C 0.21912 0.3527 0.86944 0.0
C5199 C 0.21234 0.33698 0.86848 0.0
C5200 C 0.22164 0.32424 0.86443 0.0
C5201 C 0.21534 0.30931 0.86423 0.0
C5202 C 0.19975 0.30704 0.86804 0.0
C5203 C 0.19042 0.3197 0.87193 0.0
C5204 C 0.19665 0.33466 0.87207 0.0
C5205 C 0.24807 0.38784 0.81995 0.0
C5206 C 0.23685 0.38521 0.8085 0.0
C5207 C 0.24416 0.38656 0.8356 0.0
C5208 C 0.22882 0.38318 0.84008 0.0
C5209 C 0.21728 0.38262 0.82854 0.0
C5210 C 0.22132 0.38326 0.81286 0.0
C5211 C 0.2258 0.37657 0.85578 0.0
C5212 C 0.21795 0.36229 0.85647 0.0
C5213 C 0.23324 0.38221 0.86935 0.0
C5214 C 0.23997 0.39807 0.87 0.0
C5215 C 0.2314 0.41086 0.86459 0.0
C5216 C 0.23775 0.42577 0.86505 0.0
C5217 C 0.25266 0.42807 0.87094 0.0
C5218 C 0.26125 0.41547 0.87639 0.0
C5219 C 0.25496 0.40054 0.87595 0.0
H5220 H 0.25755 0.43962 0.87128 0.0
H5221 H 0.19486 0.2955 0.86791 0.0
H5222 H 0.59145 0.27521 0.81243 0.0
H5223 H 0.59961 0.28236 0.83858 0.0
H5224 H 0.62285 0.23838 0.84343 0.0
H5225 H 0.6147 0.23107 0.81742 0.0
H5226 H 0.6132 0.25288 0.87291 0.0
H5227 H 0.64222 0.2655 0.82296 0.0
H5228 H 0.64103 0.27823 0.79729 0.0
H5229 H 0.62551 0.32041 0.81871 0.0
H5230 H 0.62655 0.30788 0.84445 0.0
H5231 H 0.68926 0.24508 0.89413 0.0
H5232 H 0.66242 0.24722 0.88617 0.0
H5233 H 0.66779 0.29677 0.88092 0.0
H5234 H 0.69523 0.29437 0.88778 0.0
H5235 H 0.65601 0.28792 0.85712 0.0
H5236 H 0.64008 0.27823 0.90773 0.0
H5237 H 0.63922 0.26685 0.93392 0.0
H5238 H 0.62674 0.22269 0.91465 0.0
H5239 H 0.62777 0.2337 0.88832 0.0
C5240 C 0.59768 0.26675 0.81931 0.0
C5241 C 0.6029 0.25278 0.81267 0.0
C5242 C 0.60228 0.27085 0.8343 0.0
C5243 C 0.61212 0.26103 0.84276 0.0
C5244 C 0.61532 0.24615 0.83705 0.0
C5245 C 0.61078 0.24206 0.82208 0.0
C5246 C 0.62245 0.26735 0.85489 0.0
C5247 C 0.62251 0.2607 0.86971 0.0
C5248 C 0.63414 0.2781 0.85085 0.0
C5249 C 0.63441 0.28579 0.83553 0.0
C5250 C 0.63861 0.2775 0.82215 0.0
C5251 C 0.63788 0.28465 0.80761 0.0
C5252 C 0.6331 0.30008 0.8064 0.0
C5253 C 0.62912 0.30843 0.81969 0.0
C5254 C 0.62982 0.30134 0.83424 0.0
C5255 C 0.68464 0.25649 0.89164 0.0
C5256 C 0.69437 0.26954 0.89141 0.0
C5257 C 0.66914 0.25776 0.88726 0.0
C5258 C 0.66283 0.27221 0.88308 0.0
C5259 C 0.67231 0.28546 0.884 0.0
C5260 C 0.68799 0.28411 0.88793 0.0
C5261 C 0.64742 0.27286 0.87526 0.0
C5262 C 0.64647 0.28072 0.86102 0.0
C5263 C 0.6347 0.26363 0.88016 0.0
C5264 C 0.63401 0.25683 0.89599 0.0
C5265 C 0.63724 0.26607 0.90905 0.0
C5266 C 0.63671 0.25968 0.92394 0.0
C5267 C 0.63293 0.24406 0.92595 0.0
C5268 C 0.62964 0.2348 0.91307 0.0
C5269 C 0.63016 0.24112 0.89816 0.0
H5270 H 0.63253 0.23913 0.93748 0.0
H5271 H 0.63265 0.30566 0.79521 0.0
H5272 H 0.78105 0.6159 0.80178 0.0
H5273 H 0.78686 0.62022 0.82889 0.0
H5274 H 0.74329 0.59931 0.84186 0.0
H5275 H 0.73716 0.59523 0.81447 0.0
H5276 H 0.74465 0.62661 0.85318 0.0
H5277 H 0.77839 0.58505 0.85756 0.0
H5278 H 0.79824 0.5658 0.85041 0.0
H5279 H 0.83262 0.60171 0.84799 0.0
H5280 H 0.81297 0.62124 0.85487 0.0
H5281 H 0.76889 0.68361 0.90552 0.0
H5282 H 0.76571 0.65549 0.90172 0.0
H5283 H 0.79529 0.65777 0.86143 0.0
H5284 H 0.79825 0.68559 0.86507 0.0
H5285 H 0.79702 0.62869 0.87682 0.0
H5286 H 0.75675 0.6668 0.85686 0.0
H5287 H 0.73693 0.68663 0.86271 0.0
H5288 H 0.71518 0.65563 0.89505 0.0
H5289 H 0.73498 0.63568 0.88944 0.0
C5290 C 0.77282 0.61185 0.81036 0.0
C5291 C 0.75848 0.60554 0.8059 0.0
C5292 C 0.77628 0.61412 0.82597 0.0
C5293 C 0.76557 0.60999 0.83753 0.0
C5294 C 0.75176 0.60254 0.83317 0.0
C5295 C 0.74826 0.60028 0.81749 0.0
C5296 C 0.76755 0.6165 0.85335 0.0
C5297 C 0.7559 0.62648 0.8588 0.0
C5298 C 0.78212 0.61629 0.86093 0.0
C5299 C 0.79415 0.60464 0.85683 0.0
C5300 C 0.79017 0.58887 0.85545 0.0
C5301 C 0.8014 0.5779 0.85144 0.0
C5302 C 0.81669 0.58252 0.84877 0.0
C5303 C 0.82078 0.59813 0.85011 0.0
C5304 C 0.8096 0.60916 0.85413 0.0
C5305 C 0.77515 0.67791 0.89624 0.0
C5306 C 0.78361 0.68665 0.88541 0.0
C5307 C 0.77337 0.66189 0.89411 0.0
C5308 C 0.78018 0.65457 0.88123 0.0
C5309 C 0.79 0.66313 0.87149 0.0
C5310 C 0.79157 0.67905 0.87347 0.0
C5311 C 0.77458 0.63943 0.87542 0.0
C5312 C 0.78549 0.6279 0.87188 0.0
C5313 C 0.7593 0.63804 0.86964 0.0
C5314 C 0.74732 0.64986 0.87282 0.0
C5315 C 0.74772 0.66426 0.86522 0.0
C5316 C 0.73652 0.67551 0.8685 0.0
C5317 C 0.72482 0.6724 0.87926 0.0
C5318 C 0.72427 0.65802 0.88674 0.0
C5319 C 0.73547 0.64675 0.88352 0.0
H5320 H 0.71616 0.68112 0.8818 0.0
H5321 H 0.82536 0.57401 0.84565 0.0
H5322 H 0.67438 0.7331 0.10821 0.0
H5323 H 0.6467 0.73561 0.11266 0.0
H5324 H 0.64799 0.78257 0.09545 0.0
H5325 H 0.67585 0.78014 0.09097 0.0
H5326 H 0.64193 0.78127 0.12554 0.0
H5327 H 0.61966 0.75834 0.08181 0.0
H5328 H 0.61636 0.7398 0.06034 0.0
H5329 H 0.60797 0.70311 0.09291 0.0
H5330 H 0.61146 0.72134 0.11461 0.0
H5331 H 0.5918 0.77719 0.18623 0.0
H5332 H 0.59478 0.7817 0.15833 0.0
H5333 H 0.60764 0.73369 0.15217 0.0
H5334 H 0.60335 0.72898 0.17971 0.0
H5335 H 0.59811 0.74408 0.12563 0.0
H5336 H 0.63463 0.76319 0.16531 0.0
H5337 H 0.64164 0.77928 0.18793 0.0
H5338 H 0.62704 0.82021 0.16359 0.0
H5339 H 0.6198 0.80429 0.1409 0.0
C5340 C 0.6687 0.74377 0.10481 0.0
C5341 C 0.67737 0.75659 0.09973 0.0
C5342 C 0.65276 0.74513 0.10714 0.0
C5343 C 0.64526 0.75934 0.10451 0.0
C5344 C 0.65355 0.7715 0.09755 0.0
C5345 C 0.66951 0.77011 0.09509 0.0
C5346 C 0.63082 0.7626 0.11321 0.0
C5347 C 0.63198 0.77357 0.12514 0.0
C5348 C 0.61799 0.7524 0.11286 0.0
C5349 C 0.61579 0.74128 0.09988 0.0
C5350 C 0.61718 0.74631 0.08442 0.0
C5351 C 0.61527 0.73584 0.07219 0.0
C5352 C 0.61194 0.72029 0.07526 0.0
C5353 C 0.61051 0.71518 0.09056 0.0
C5354 C 0.61241 0.72559 0.10283 0.0
C5355 C 0.59457 0.76751 0.17872 0.0
C5356 C 0.59763 0.75282 0.18499 0.0
C5357 C 0.5963 0.77007 0.16281 0.0
C5358 C 0.60206 0.75819 0.15324 0.0
C5359 C 0.60332 0.7431 0.15929 0.0
C5360 C 0.60097 0.74041 0.17506 0.0
C5361 C 0.61007 0.76186 0.13844 0.0
C5362 C 0.60762 0.7523 0.12547 0.0
C5363 C 0.62215 0.773 0.13797 0.0
C5364 C 0.62648 0.78257 0.15155 0.0
C5365 C 0.63286 0.77562 0.16484 0.0
C5366 C 0.63687 0.78469 0.17766 0.0
C5367 C 0.63473 0.80075 0.17722 0.0
C5368 C 0.62863 0.80777 0.16394 0.0
C5369 C 0.62456 0.79873 0.1511 0.0
H5370 H 0.63784 0.80776 0.18715 0.0
H5371 H 0.61048 0.7122 0.06577 0.0
H5372 H 0.2687 0.59555 0.19012 0.0
H5373 H 0.27532 0.60013 0.16297 0.0
H5374 H 0.232 0.62416 0.15637 0.0
H5375 H 0.22532 0.61976 0.18347 0.0
H5376 H 0.24536 0.6096 0.128 0.0
H5377 H 0.25926 0.64498 0.17273 0.0
H5378 H 0.27243 0.6485 0.19793 0.0
H5379 H 0.31455 0.63024 0.17866 0.0
H5380 H 0.30158 0.62659 0.15342 0.0
H5381 H 0.23775 0.68282 0.09944 0.0
H5382 H 0.24015 0.65645 0.10861 0.0
H5383 H 0.28992 0.66172 0.1112 0.0
H5384 H 0.28731 0.68879 0.10313 0.0
H5385 H 0.28184 0.65322 0.1366 0.0
H5386 H 0.26999 0.63097 0.08891 0.0
H5387 H 0.25758 0.627 0.06348 0.0
H5388 H 0.214 0.61808 0.0858 0.0
H5389 H 0.22604 0.62224 0.11136 0.0
C5390 C 0.26025 0.60118 0.18273 0.0
C5391 C 0.24668 0.60771 0.18902 0.0
C5392 C 0.26405 0.60372 0.16718 0.0
C5393 C 0.25426 0.6127 0.15779 0.0
C5394 C 0.23971 0.61722 0.16346 0.0
C5395 C 0.23597 0.61482 0.17901 0.0
C5396 C 0.2605 0.62099 0.14417 0.0
C5397 C 0.25349 0.61905 0.12963 0.0
C5398 C 0.27162 0.63284 0.14623 0.0
C5399 C 0.27946 0.63543 0.16128 0.0
C5400 C 0.27133 0.64173 0.17391 0.0
C5401 C 0.27876 0.64376 0.18819 0.0
C5402 C 0.29434 0.63963 0.1899 0.0
C5403 C 0.30251 0.63349 0.17733 0.0
C5404 C 0.29514 0.63144 0.16304 0.0
C5405 C 0.24927 0.67823 0.10147 0.0
C5406 C 0.26232 0.68792 0.10083 0.0
C5407 C 0.25068 0.66297 0.10657 0.0
C5408 C 0.26526 0.65687 0.11062 0.0
C5409 C 0.27852 0.66611 0.10831 0.0
C5410 C 0.27704 0.68158 0.10369 0.0
C5411 C 0.26608 0.64254 0.12024 0.0
C5412 C 0.27434 0.64339 0.13427 0.0
C5413 C 0.25639 0.62953 0.11746 0.0
C5414 C 0.24898 0.62691 0.10211 0.0
C5415 C 0.25774 0.62824 0.08842 0.0
C5416 C 0.25077 0.62595 0.07396 0.0
C5417 C 0.23502 0.62228 0.07303 0.0
C5418 C 0.22621 0.62088 0.08655 0.0
C5419 C 0.23313 0.62316 0.10103 0.0
H5420 H 0.22964 0.62053 0.06183 0.0
H5421 H 0.30008 0.64119 0.20096 0.0
H5422 H 0.76718 0.37747 0.1755 0.0
H5423 H 0.77039 0.37981 0.14764 0.0
H5424 H 0.72522 0.40106 0.14396 0.0
H5425 H 0.72213 0.399 0.17227 0.0
H5426 H 0.72725 0.37474 0.12725 0.0
H5427 H 0.75441 0.42043 0.12481 0.0
H5428 H 0.77167 0.44178 0.13269 0.0
H5429 H 0.811 0.4114 0.12995 0.0
H5430 H 0.79402 0.38979 0.12232 0.0
H5431 H 0.76505 0.31549 0.08757 0.0
H5432 H 0.7565 0.34233 0.08277 0.0
H5433 H 0.77893 0.3567 0.12518 0.0
H5434 H 0.78752 0.33039 0.12976 0.0
H5435 H 0.77831 0.38071 0.10168 0.0
H5436 H 0.73393 0.34305 0.12995 0.0
H5437 H 0.71735 0.32042 0.12419 0.0
H5438 H 0.71237 0.33579 0.07709 0.0
H5439 H 0.72889 0.35853 0.08264 0.0
C5440 C 0.75815 0.38309 0.16882 0.0
C5441 C 0.74437 0.38789 0.17594 0.0
C5442 C 0.76006 0.38464 0.15289 0.0
C5443 C 0.74812 0.39081 0.14366 0.0
C5444 C 0.73466 0.3965 0.15087 0.0
C5445 C 0.73289 0.39525 0.16699 0.0
C5446 C 0.74864 0.38765 0.12677 0.0
C5447 C 0.73811 0.3766 0.12118 0.0
C5448 C 0.76237 0.39056 0.11829 0.0
C5449 C 0.77288 0.40348 0.12276 0.0
C5450 C 0.76674 0.41827 0.12588 0.0
C5451 C 0.77649 0.43043 0.13034 0.0
C5452 C 0.79243 0.42797 0.13176 0.0
C5453 C 0.79866 0.41332 0.12875 0.0
C5454 C 0.78897 0.40112 0.12429 0.0
C5455 C 0.76851 0.32456 0.09554 0.0
C5456 C 0.77661 0.32089 0.10922 0.0
C5457 C 0.7636 0.33984 0.09282 0.0
C5458 C 0.76688 0.35152 0.10371 0.0
C5459 C 0.7763 0.34798 0.11652 0.0
C5460 C 0.78105 0.33286 0.11927 0.0
C5461 C 0.75816 0.36633 0.10438 0.0
C5462 C 0.76688 0.37986 0.10684 0.0
C5463 C 0.74275 0.36583 0.10994 0.0
C5464 C 0.73257 0.35243 0.1067 0.0
C5465 C 0.72919 0.34162 0.11841 0.0
C5466 C 0.71986 0.32877 0.11517 0.0
C5467 C 0.7138 0.32667 0.10029 0.0
C5468 C 0.71705 0.33743 0.08861 0.0
C5469 C 0.72639 0.3503 0.09179 0.0
H5470 H 0.7066 0.3167 0.09779 0.0
H5471 H 0.79995 0.43739 0.13523 0.0
loop_
_geom_bond_atom_site_label_1
_geom_bond_atom_site_label_2
_geom_bond_distance
_geom_bond_site_symmetry_2
_ccdc_geom_bond_type
Co0 O1 2.216 . S
Co0 O2 2.091 . S
Co0 O4 2.004 . S
Co0 O10 2.021 . S
Co0 O12 2.137 . S
Co0 O13 2.244 . S
O1 Co0 2.216 . S
O1 C8 1.247 . S
O2 Co0 2.091 . S
O2 C8 1.261 . S
C3 O12 1.247 . S
C3 O13 1.272 . S
O4 Co0 2.004 . S
O4 C9 1.259 . S
Co5 O6 2.061 . S
Co5 O11 2.052 . S
Co5 O13 2.135 . S
O6 Co5 2.061 . S
O6 C9 1.235 . S
C7 O10 1.238 . S
C7 O11 1.241 . S
C8 O1 1.247 . S
C8 O2 1.261 . S
C9 O4 1.259 . S
C9 O6 1.235 . S
O10 Co0 2.021 . S
O10 C7 1.238 . S
O11 Co5 2.052 . S
O11 C7 1.241 . S
O12 Co0 2.137 . S
O12 C3 1.247 . S
O13 Co0 2.244 . S
O13 C3 1.272 . S
O13 Co5 2.135 . S
Co14 O15 2.216 . S
Co14 O16 2.091 . S
Co14 O18 2.004 . S
Co14 O24 2.021 . S
Co14 O26 2.137 . S
Co14 O27 2.244 . S
O15 Co14 2.216 . S
O15 C22 1.247 . S
O16 Co14 2.091 . S
O16 C22 1.261 . S
C17 O26 1.247 . S
C17 O27 1.272 . S
O18 Co14 2.004 . S
O18 C23 1.259 . S
Co19 O20 2.061 . S
Co19 O25 2.052 . S
Co19 O27 2.135 . S
O20 Co19 2.061 . S
O20 C23 1.235 . S
C21 O24 1.238 . S
C21 O25 1.241 . S
C22 O15 1.247 . S
C22 O16 1.261 . S
C23 O18 1.259 . S
C23 O20 1.235 . S
O24 Co14 2.021 . S
O24 C21 1.238 . S
O25 Co19 2.052 . S
O25 C21 1.241 . S
O26 Co14 2.137 . S
O26 C17 1.247 . S
O27 Co14 2.244 . S
O27 C17 1.272 . S
O27 Co19 2.135 . S
Co28 O29 2.216 . S
Co28 O30 2.091 . S
Co28 O32 2.004 . S
Co28 O38 2.021 . S
Co28 O40 2.137 . S
Co28 O41 2.244 . S
O29 Co28 2.216 . S
O29 C36 1.247 . S
O30 Co28 2.091 . S
O30 C36 1.261 . S
C31 O40 1.247 . S
C31 O41 1.272 . S
O32 Co28 2.004 . S
O32 C37 1.259 . S
Co33 O34 2.061 . S
Co33 O39 2.052 . S
Co33 O41 2.135 . S
O34 Co33 2.061 . S
O34 C37 1.235 . S
C35 O38 1.238 . S
C35 O39 1.241 . S
C36 O29 1.247 . S
C36 O30 1.261 . S
C37 O32 1.259 . S
C37 O34 1.235 . S
O38 Co28 2.021 . S
O38 C35 1.238 . S
O39 Co33 2.052 . S
O39 C35 1.241 . S
O40 Co28 2.137 . S
O40 C31 1.247 . S
O41 Co28 2.244 . S
O41 C31 1.272 . S
O41 Co33 2.135 . S
Co42 O43 2.216 . S
Co42 O44 2.091 . S
Co42 O46 2.004 . S
Co42 O52 2.021 . S
Co42 O54 2.137 . S
Co42 O55 2.244 . S
O43 Co42 2.216 . S
O43 C50 1.247 . S
O44 Co42 2.091 . S
O44 C50 1.261 . S
C45 O54 1.247 . S
C45 O55 1.272 . S
O46 Co42 2.004 . S
O46 C51 1.259 . S
Co47 O48 2.061 . S
Co47 O53 2.052 . S
Co47 O55 2.135 . S
O48 Co47 2.061 . S
O48 C51 1.235 . S
C49 O52 1.238 . S
C49 O53 1.241 . S
C50 O43 1.247 . S
C50 O44 1.261 . S
C51 O46 1.259 . S
C51 O48 1.235 . S
O52 Co42 2.021 . S
O52 C49 1.238 . S
O53 Co47 2.052 . S
O53 C49 1.241 . S
O54 Co42 2.137 . S
O54 C45 1.247 . S
O55 Co42 2.244 . S
O55 C45 1.272 . S
O55 Co47 2.135 . S
Co56 O57 2.216 . S
Co56 O58 2.091 . S
Co56 O60 2.004 . S
Co56 O66 2.021 . S
Co56 O68 2.137 . S
Co56 O69 2.244 . S
O57 Co56 2.216 . S
O57 C64 1.247 . S
O58 Co56 2.091 . S
O58 C64 1.261 . S
C59 O68 1.247 . S
C59 O69 1.272 . S
O60 Co56 2.004 . S
O60 C65 1.259 . S
Co61 O62 2.061 . S
Co61 O67 2.052 . S
Co61 O69 2.135 . S
O62 Co61 2.061 . S
O62 C65 1.235 . S
C63 O66 1.238 . S
C63 O67 1.241 . S
C64 O57 1.247 . S
C64 O58 1.261 . S
C65 O60 1.259 . S
C65 O62 1.235 . S
O66 Co56 2.021 . S
O66 C63 1.238 . S
O67 Co61 2.052 . S
O67 C63 1.241 . S
O68 Co56 2.137 . S
O68 C59 1.247 . S
O69 Co56 2.244 . S
O69 C59 1.272 . S
O69 Co61 2.135 . S
Co70 O71 2.216 . S
Co70 O72 2.091 . S
Co70 O74 2.004 . S
Co70 O80 2.021 . S
Co70 O82 2.137 . S
Co70 O83 2.244 . S
O71 Co70 2.216 . S
O71 C78 1.247 . S
O72 Co70 2.091 . S
O72 C78 1.261 . S
C73 O82 1.247 . S
C73 O83 1.272 . S
O74 Co70 2.004 . S
O74 C79 1.259 . S
Co75 O76 2.061 . S
Co75 O81 2.052 . S
Co75 O83 2.135 . S
O76 Co75 2.061 . S
O76 C79 1.235 . S
C77 O80 1.238 . S
C77 O81 1.241 . S
C78 O71 1.247 . S
C78 O72 1.261 . S
C79 O74 1.259 . S
C79 O76 1.235 . S
O80 Co70 2.021 . S
O80 C77 1.238 . S
O81 Co75 2.052 . S
O81 C77 1.241 . S
O82 Co70 2.137 . S
O82 C73 1.247 . S
O83 Co70 2.244 . S
O83 C73 1.272 . S
O83 Co75 2.135 . S
Co84 O85 2.216 . S
Co84 O86 2.091 . S
Co84 O88 2.004 . S
Co84 O94 2.021 . S
Co84 O96 2.137 . S
Co84 O97 2.244 . S
O85 Co84 2.216 . S
O85 C92 1.247 . S
O86 Co84 2.091 . S
O86 C92 1.261 . S
C87 O96 1.247 . S
C87 O97 1.272 . S
O88 Co84 2.004 . S
O88 C93 1.259 . S
Co89 O90 2.061 . S
Co89 O95 2.052 . S
Co89 O97 2.135 . S
O90 Co89 2.061 . S
O90 C93 1.235 . S
C91 O94 1.238 . S
C91 O95 1.241 . S
C92 O85 1.247 . S
C92 O86 1.261 . S
C93 O88 1.259 . S
C93 O90 1.235 . S
O94 Co84 2.021 . S
O94 C91 1.238 . S
O95 Co89 2.052 . S
O95 C91 1.241 . S
O96 Co84 2.137 . S
O96 C87 1.247 . S
O97 Co84 2.244 . S
O97 C87 1.272 . S
O97 Co89 2.135 . S
Co98 O99 2.216 . S
Co98 O100 2.091 . S
Co98 O102 2.004 . S
Co98 O108 2.021 . S
Co98 O110 2.137 . S
Co98 O111 2.244 . S
O99 Co98 2.216 . S
O99 C106 1.247 . S
O100 Co98 2.091 . S
O100 C106 1.261 . S
C101 O110 1.247 . S
C101 O111 1.272 . S
O102 Co98 2.004 . S
O102 C107 1.259 . S
Co103 O104 2.061 . S
Co103 O109 2.052 . S
Co103 O111 2.135 . S
O104 Co103 2.061 . S
O104 C107 1.235 . S
C105 O108 1.238 . S
C105 O109 1.241 . S
C106 O99 1.247 . S
C106 O100 1.261 . S
C107 O102 1.259 . S
C107 O104 1.235 . S
O108 Co98 2.021 . S
O108 C105 1.238 . S
O109 Co103 2.052 . S
O109 C105 1.241 . S
O110 Co98 2.137 . S
O110 C101 1.247 . S
O111 Co98 2.244 . S
O111 C101 1.272 . S
O111 Co103 2.135 . S
Co112 O113 2.216 . S
Co112 O114 2.091 . S
Co112 O116 2.004 . S
Co112 O122 2.021 . S
Co112 O124 2.137 . S
Co112 O125 2.244 . S
O113 Co112 2.216 . S
O113 C120 1.247 . S
O114 Co112 2.091 . S
O114 C120 1.261 . S
C115 O124 1.247 . S
C115 O125 1.272 . S
O116 Co112 2.004 . S
O116 C121 1.259 . S
Co117 O118 2.061 . S
Co117 O123 2.052 . S
Co117 O125 2.135 . S
O118 Co117 2.061 . S
O118 C121 1.235 . S
C119 O122 1.238 . S
C119 O123 1.241 . S
C120 O113 1.247 . S
C120 O114 1.261 . S
C121 O116 1.259 . S
C121 O118 1.235 . S
O122 Co112 2.021 . S
O122 C119 1.238 . S
O123 Co117 2.052 . S
O123 C119 1.241 . S
O124 Co112 2.137 . S
O124 C115 1.247 . S
O125 Co112 2.244 . S
O125 C115 1.272 . S
O125 Co117 2.135 . S
Co126 O127 2.216 . S
Co126 O128 2.091 . S
Co126 O130 2.004 . S
Co126 O136 2.021 . S
Co126 O138 2.137 . S
Co126 O139 2.244 . S
O127 Co126 2.216 . S
O127 C134 1.247 . S
O128 Co126 2.091 . S
O128 C134 1.261 . S
C129 O138 1.247 . S
C129 O139 1.272 . S
O130 Co126 2.004 . S
O130 C135 1.259 . S
Co131 O132 2.061 . S
Co131 O137 2.052 . S
Co131 O139 2.135 . S
O132 Co131 2.061 . S
O132 C135 1.235 . S
C133 O136 1.238 . S
C133 O137 1.241 . S
C134 O127 1.247 . S
C134 O128 1.261 . S
C135 O130 1.259 . S
C135 O132 1.235 . S
O136 Co126 2.021 . S
O136 C133 1.238 . S
O137 Co131 2.052 . S
O137 C133 1.241 . S
O138 Co126 2.137 . S
O138 C129 1.247 . S
O139 Co126 2.244 . S
O139 C129 1.272 . S
O139 Co131 2.135 . S
Co140 O141 2.216 . S
Co140 O142 2.091 . S
Co140 O144 2.004 . S
Co140 O150 2.021 . S
Co140 O152 2.137 . S
Co140 O153 2.244 . S
O141 Co140 2.216 . S
O141 C148 1.247 . S
O142 Co140 2.091 . S
O142 C148 1.261 . S
C143 O152 1.247 . S
C143 O153 1.272 . S
O144 Co140 2.004 . S
O144 C149 1.259 . S
Co145 O146 2.061 . S
Co145 O151 2.052 . S
Co145 O153 2.135 . S
O146 Co145 2.061 . S
O146 C149 1.235 . S
C147 O150 1.238 . S
C147 O151 1.241 . S
C148 O141 1.247 . S
C148 O142 1.261 . S
C149 O144 1.259 . S
C149 O146 1.235 . S
O150 Co140 2.021 . S
O150 C147 1.238 . S
O151 Co145 2.052 . S
O151 C147 1.241 . S
O152 Co140 2.137 . S
O152 C143 1.247 . S
O153 Co140 2.244 . S
O153 C143 1.272 . S
O153 Co145 2.135 . S
Co154 O155 2.216 . S
Co154 O156 2.091 . S
Co154 O158 2.004 . S
Co154 O164 2.021 . S
Co154 O166 2.137 . S
Co154 O167 2.244 . S
O155 Co154 2.216 . S
O155 C162 1.247 . S
O156 Co154 2.091 . S
O156 C162 1.261 . S
C157 O166 1.247 . S
C157 O167 1.272 . S
O158 Co154 2.004 . S
O158 C163 1.259 . S
Co159 O160 2.061 . S
Co159 O165 2.052 . S
Co159 O167 2.135 . S
O160 Co159 2.061 . S
O160 C163 1.235 . S
C161 O164 1.238 . S
C161 O165 1.241 . S
C162 O155 1.247 . S
C162 O156 1.261 . S
C163 O158 1.259 . S
C163 O160 1.235 . S
O164 Co154 2.021 . S
O164 C161 1.238 . S
O165 Co159 2.052 . S
O165 C161 1.241 . S
O166 Co154 2.137 . S
O166 C157 1.247 . S
O167 Co154 2.244 . S
O167 C157 1.272 . S
O167 Co159 2.135 . S
Co168 O169 2.216 . S
Co168 O170 2.091 . S
Co168 O172 2.004 . S
Co168 O178 2.021 . S
Co168 O180 2.137 . S
Co168 O181 2.244 . S
O169 Co168 2.216 . S
O169 C176 1.247 . S
O170 Co168 2.091 . S
O170 C176 1.261 . S
C171 O180 1.247 . S
C171 O181 1.272 . S
O172 Co168 2.004 . S
O172 C177 1.259 . S
Co173 O174 2.061 . S
Co173 O179 2.052 . S
Co173 O181 2.135 . S
O174 Co173 2.061 . S
O174 C177 1.235 . S
C175 O178 1.238 . S
C175 O179 1.241 . S
C176 O169 1.247 . S
C176 O170 1.261 . S
C177 O172 1.259 . S
C177 O174 1.235 . S
O178 Co168 2.021 . S
O178 C175 1.238 . S
O179 Co173 2.052 . S
O179 C175 1.241 . S
O180 Co168 2.137 . S
O180 C171 1.247 . S
O181 Co168 2.244 . S
O181 C171 1.272 . S
O181 Co173 2.135 . S
Co182 O183 2.216 . S
Co182 O184 2.091 . S
Co182 O186 2.004 . S
Co182 O192 2.021 . S
Co182 O194 2.137 . S
Co182 O195 2.244 . S
O183 Co182 2.216 . S
O183 C190 1.247 . S
O184 Co182 2.091 . S
O184 C190 1.261 . S
C185 O194 1.247 . S
C185 O195 1.272 . S
O186 Co182 2.004 . S
O186 C191 1.259 . S
Co187 O188 2.061 . S
Co187 O193 2.052 . S
Co187 O195 2.135 . S
O188 Co187 2.061 . S
O188 C191 1.235 . S
C189 O192 1.238 . S
C189 O193 1.241 . S
C190 O183 1.247 . S
C190 O184 1.261 . S
C191 O186 1.259 . S
C191 O188 1.235 . S
O192 Co182 2.021 . S
O192 C189 1.238 . S
O193 Co187 2.052 . S
O193 C189 1.241 . S
O194 Co182 2.137 . S
O194 C185 1.247 . S
O195 Co182 2.244 . S
O195 C185 1.272 . S
O195 Co187 2.135 . S
Co196 O197 2.216 . S
Co196 O198 2.091 . S
Co196 O200 2.004 . S
Co196 O206 2.021 . S
Co196 O208 2.137 . S
Co196 O209 2.244 . S
O197 Co196 2.216 . S
O197 C204 1.247 . S
O198 Co196 2.091 . S
O198 C204 1.261 . S
C199 O208 1.247 . S
C199 O209 1.272 . S
O200 Co196 2.004 . S
O200 C205 1.259 . S
Co201 O202 2.061 . S
Co201 O207 2.052 . S
Co201 O209 2.135 . S
O202 Co201 2.061 . S
O202 C205 1.235 . S
C203 O206 1.238 . S
C203 O207 1.241 . S
C204 O197 1.247 . S
C204 O198 1.261 . S
C205 O200 1.259 . S
C205 O202 1.235 . S
O206 Co196 2.021 . S
O206 C203 1.238 . S
O207 Co201 2.052 . S
O207 C203 1.241 . S
O208 Co196 2.137 . S
O208 C199 1.247 . S
O209 Co196 2.244 . S
O209 C199 1.272 . S
O209 Co201 2.135 . S
Co210 O211 2.216 . S
Co210 O212 2.091 . S
Co210 O214 2.004 . S
Co210 O220 2.021 . S
Co210 O222 2.137 . S
Co210 O223 2.244 . S
O211 Co210 2.216 . S
O211 C218 1.247 . S
O212 Co210 2.091 . S
O212 C218 1.261 . S
C213 O222 1.247 . S
C213 O223 1.272 . S
O214 Co210 2.004 . S
O214 C219 1.259 . S
Co215 O216 2.061 . S
Co215 O221 2.052 . S
Co215 O223 2.135 . S
O216 Co215 2.061 . S
O216 C219 1.235 . S
C217 O220 1.238 . S
C217 O221 1.241 . S
C218 O211 1.247 . S
C218 O212 1.261 . S
C219 O214 1.259 . S
C219 O216 1.235 . S
O220 Co210 2.021 . S
O220 C217 1.238 . S
O221 Co215 2.052 . S
O221 C217 1.241 . S
O222 Co210 2.137 . S
O222 C213 1.247 . S
O223 Co210 2.244 . S
O223 C213 1.272 . S
O223 Co215 2.135 . S
Co224 O225 2.216 . S
Co224 O226 2.091 . S
Co224 O228 2.004 . S
Co224 O234 2.021 . S
Co224 O236 2.137 . S
Co224 O237 2.244 . S
O225 Co224 2.216 . S
O225 C232 1.247 . S
O226 Co224 2.091 . S
O226 C232 1.261 . S
C227 O236 1.247 . S
C227 O237 1.272 . S
O228 Co224 2.004 . S
O228 C233 1.259 . S
Co229 O230 2.061 . S
Co229 O235 2.052 . S
Co229 O237 2.135 . S
O230 Co229 2.061 . S
O230 C233 1.235 . S
C231 O234 1.238 . S
C231 O235 1.241 . S
C232 O225 1.247 . S
C232 O226 1.261 . S
C233 O228 1.259 . S
C233 O230 1.235 . S
O234 Co224 2.021 . S
O234 C231 1.238 . S
O235 Co229 2.052 . S
O235 C231 1.241 . S
O236 Co224 2.137 . S
O236 C227 1.247 . S
O237 Co224 2.244 . S
O237 C227 1.272 . S
O237 Co229 2.135 . S
Co238 O239 2.216 . S
Co238 O240 2.091 . S
Co238 O242 2.004 . S
Co238 O248 2.021 . S
Co238 O250 2.137 . S
Co238 O251 2.244 . S
O239 Co238 2.216 . S
O239 C246 1.247 . S
O240 Co238 2.091 . S
O240 C246 1.261 . S
C241 O250 1.247 . S
C241 O251 1.272 . S
O242 Co238 2.004 . S
O242 C247 1.259 . S
Co243 O244 2.061 . S
Co243 O249 2.052 . S
Co243 O251 2.135 . S
O244 Co243 2.061 . S
O244 C247 1.235 . S
C245 O248 1.238 . S
C245 O249 1.241 . S
C246 O239 1.247 . S
C246 O240 1.261 . S
C247 O242 1.259 . S
C247 O244 1.235 . S
O248 Co238 2.021 . S
O248 C245 1.238 . S
O249 Co243 2.052 . S
O249 C245 1.241 . S
O250 Co238 2.137 . S
O250 C241 1.247 . S
O251 Co238 2.244 . S
O251 C241 1.272 . S
O251 Co243 2.135 . S
Co252 O253 2.216 . S
Co252 O254 2.091 . S
Co252 O256 2.004 . S
Co252 O262 2.021 . S
Co252 O264 2.137 . S
Co252 O265 2.244 . S
O253 Co252 2.216 . S
O253 C260 1.247 . S
O254 Co252 2.091 . S
O254 C260 1.261 . S
C255 O264 1.247 . S
C255 O265 1.272 . S
O256 Co252 2.004 . S
O256 C261 1.259 . S
Co257 O258 2.061 . S
Co257 O263 2.052 . S
Co257 O265 2.135 . S
O258 Co257 2.061 . S
O258 C261 1.235 . S
C259 O262 1.238 . S
C259 O263 1.241 . S
C260 O253 1.247 . S
C260 O254 1.261 . S
C261 O256 1.259 . S
C261 O258 1.235 . S
O262 Co252 2.021 . S
O262 C259 1.238 . S
O263 Co257 2.052 . S
O263 C259 1.241 . S
O264 Co252 2.137 . S
O264 C255 1.247 . S
O265 Co252 2.244 . S
O265 C255 1.272 . S
O265 Co257 2.135 . S
Co266 O267 2.216 . S
Co266 O268 2.091 . S
Co266 O270 2.004 . S
Co266 O276 2.021 . S
Co266 O278 2.137 . S
Co266 O279 2.244 . S
O267 Co266 2.216 . S
O267 C274 1.247 . S
O268 Co266 2.091 . S
O268 C274 1.261 . S
C269 O278 1.247 . S
C269 O279 1.272 . S
O270 Co266 2.004 . S
O270 C275 1.259 . S
Co271 O272 2.061 . S
Co271 O277 2.052 . S
Co271 O279 2.135 . S
O272 Co271 2.061 . S
O272 C275 1.235 . S
C273 O276 1.238 . S
C273 O277 1.241 . S
C274 O267 1.247 . S
C274 O268 1.261 . S
C275 O270 1.259 . S
C275 O272 1.235 . S
O276 Co266 2.021 . S
O276 C273 1.238 . S
O277 Co271 2.052 . S
O277 C273 1.241 . S
O278 Co266 2.137 . S
O278 C269 1.247 . S
O279 Co266 2.244 . S
O279 C269 1.272 . S
O279 Co271 2.135 . S
Co280 O281 2.216 . S
Co280 O282 2.091 . S
Co280 O284 2.004 . S
Co280 O290 2.021 . S
Co280 O292 2.137 . S
Co280 O293 2.244 . S
O281 Co280 2.216 . S
O281 C288 1.247 . S
O282 Co280 2.091 . S
O282 C288 1.261 . S
C283 O292 1.247 . S
C283 O293 1.272 . S
O284 Co280 2.004 . S
O284 C289 1.259 . S
Co285 O286 2.061 . S
Co285 O291 2.052 . S
Co285 O293 2.135 . S
O286 Co285 2.061 . S
O286 C289 1.235 . S
C287 O290 1.238 . S
C287 O291 1.241 . S
C288 O281 1.247 . S
C288 O282 1.261 . S
C289 O284 1.259 . S
C289 O286 1.235 . S
O290 Co280 2.021 . S
O290 C287 1.238 . S
O291 Co285 2.052 . S
O291 C287 1.241 . S
O292 Co280 2.137 . S
O292 C283 1.247 . S
O293 Co280 2.244 . S
O293 C283 1.272 . S
O293 Co285 2.135 . S
Co294 O295 2.216 . S
Co294 O296 2.091 . S
Co294 O298 2.004 . S
Co294 O304 2.021 . S
Co294 O306 2.137 . S
Co294 O307 2.244 . S
O295 Co294 2.216 . S
O295 C302 1.247 . S
O296 Co294 2.091 . S
O296 C302 1.261 . S
C297 O306 1.247 . S
C297 O307 1.272 . S
O298 Co294 2.004 . S
O298 C303 1.259 . S
Co299 O300 2.061 . S
Co299 O305 2.052 . S
Co299 O307 2.135 . S
O300 Co299 2.061 . S
O300 C303 1.235 . S
C301 O304 1.238 . S
C301 O305 1.241 . S
C302 O295 1.247 . S
C302 O296 1.261 . S
C303 O298 1.259 . S
C303 O300 1.235 . S
O304 Co294 2.021 . S
O304 C301 1.238 . S
O305 Co299 2.052 . S
O305 C301 1.241 . S
O306 Co294 2.137 . S
O306 C297 1.247 . S
O307 Co294 2.244 . S
O307 C297 1.272 . S
O307 Co299 2.135 . S
Co308 O309 2.216 . S
Co308 O310 2.091 . S
Co308 O312 2.004 . S
Co308 O318 2.021 . S
Co308 O320 2.137 . S
Co308 O321 2.244 . S
O309 Co308 2.216 . S
O309 C316 1.247 . S
O310 Co308 2.091 . S
O310 C316 1.261 . S
C311 O320 1.247 . S
C311 O321 1.272 . S
O312 Co308 2.004 . S
O312 C317 1.259 . S
Co313 O314 2.061 . S
Co313 O319 2.052 . S
Co313 O321 2.135 . S
O314 Co313 2.061 . S
O314 C317 1.235 . S
C315 O318 1.238 . S
C315 O319 1.241 . S
C316 O309 1.247 . S
C316 O310 1.261 . S
C317 O312 1.259 . S
C317 O314 1.235 . S
O318 Co308 2.021 . S
O318 C315 1.238 . S
O319 Co313 2.052 . S
O319 C315 1.241 . S
O320 Co308 2.137 . S
O320 C311 1.247 . S
O321 Co308 2.244 . S
O321 C311 1.272 . S
O321 Co313 2.135 . S
Co322 O323 2.216 . S
Co322 O324 2.091 . S
Co322 O326 2.004 . S
Co322 O332 2.021 . S
Co322 O334 2.137 . S
Co322 O335 2.244 . S
O323 Co322 2.216 . S
O323 C330 1.247 . S
O324 Co322 2.091 . S
O324 C330 1.261 . S
C325 O334 1.247 . S
C325 O335 1.272 . S
O326 Co322 2.004 . S
O326 C331 1.259 . S
Co327 O328 2.061 . S
Co327 O333 2.052 . S
Co327 O335 2.135 . S
O328 Co327 2.061 . S
O328 C331 1.235 . S
C329 O332 1.238 . S
C329 O333 1.241 . S
C330 O323 1.247 . S
C330 O324 1.261 . S
C331 O326 1.259 . S
C331 O328 1.235 . S
O332 Co322 2.021 . S
O332 C329 1.238 . S
O333 Co327 2.052 . S
O333 C329 1.241 . S
O334 Co322 2.137 . S
O334 C325 1.247 . S
O335 Co322 2.244 . S
O335 C325 1.272 . S
O335 Co327 2.135 . S
Co336 O337 2.216 . S
Co336 O338 2.091 . S
Co336 O340 2.004 . S
Co336 O346 2.021 . S
Co336 O348 2.137 . S
Co336 O349 2.244 . S
O337 Co336 2.216 . S
O337 C344 1.247 . S
O338 Co336 2.091 . S
O338 C344 1.261 . S
C339 O348 1.247 . S
C339 O349 1.272 . S
O340 Co336 2.004 . S
O340 C345 1.259 . S
Co341 O342 2.061 . S
Co341 O347 2.052 . S
Co341 O349 2.135 . S
O342 Co341 2.061 . S
O342 C345 1.235 . S
C343 O346 1.238 . S
C343 O347 1.241 . S
C344 O337 1.247 . S
C344 O338 1.261 . S
C345 O340 1.259 . S
C345 O342 1.235 . S
O346 Co336 2.021 . S
O346 C343 1.238 . S
O347 Co341 2.052 . S
O347 C343 1.241 . S
O348 Co336 2.137 . S
O348 C339 1.247 . S
O349 Co336 2.244 . S
O349 C339 1.272 . S
O349 Co341 2.135 . S
Co350 O351 2.216 . S
Co350 O352 2.091 . S
Co350 O354 2.004 . S
Co350 O360 2.021 . S
Co350 O362 2.137 . S
Co350 O363 2.244 . S
O351 Co350 2.216 . S
O351 C358 1.247 . S
O352 Co350 2.091 . S
O352 C358 1.261 . S
C353 O362 1.247 . S
C353 O363 1.272 . S
O354 Co350 2.004 . S
O354 C359 1.259 . S
Co355 O356 2.061 . S
Co355 O361 2.052 . S
Co355 O363 2.135 . S
O356 Co355 2.061 . S
O356 C359 1.235 . S
C357 O360 1.238 . S
C357 O361 1.241 . S
C358 O351 1.247 . S
C358 O352 1.261 . S
C359 O354 1.259 . S
C359 O356 1.235 . S
O360 Co350 2.021 . S
O360 C357 1.238 . S
O361 Co355 2.052 . S
O361 C357 1.241 . S
O362 Co350 2.137 . S
O362 C353 1.247 . S
O363 Co350 2.244 . S
O363 C353 1.272 . S
O363 Co355 2.135 . S
Co364 O365 2.216 . S
Co364 O366 2.091 . S
Co364 O368 2.004 . S
Co364 O374 2.021 . S
Co364 O376 2.137 . S
Co364 O377 2.244 . S
O365 Co364 2.216 . S
O365 C372 1.247 . S
O366 Co364 2.091 . S
O366 C372 1.261 . S
C367 O376 1.247 . S
C367 O377 1.272 . S
O368 Co364 2.004 . S
O368 C373 1.259 . S
Co369 O370 2.061 . S
Co369 O375 2.052 . S
Co369 O377 2.135 . S
O370 Co369 2.061 . S
O370 C373 1.235 . S
C371 O374 1.238 . S
C371 O375 1.241 . S
C372 O365 1.247 . S
C372 O366 1.261 . S
C373 O368 1.259 . S
C373 O370 1.235 . S
O374 Co364 2.021 . S
O374 C371 1.238 . S
O375 Co369 2.052 . S
O375 C371 1.241 . S
O376 Co364 2.137 . S
O376 C367 1.247 . S
O377 Co364 2.244 . S
O377 C367 1.272 . S
O377 Co369 2.135 . S
Co378 O379 2.216 . S
Co378 O380 2.091 . S
Co378 O382 2.004 . S
Co378 O388 2.021 . S
Co378 O390 2.137 . S
Co378 O391 2.244 . S
O379 Co378 2.216 . S
O379 C386 1.247 . S
O380 Co378 2.091 . S
O380 C386 1.261 . S
C381 O390 1.247 . S
C381 O391 1.272 . S
O382 Co378 2.004 . S
O382 C387 1.259 . S
Co383 O384 2.061 . S
Co383 O389 2.052 . S
Co383 O391 2.135 . S
O384 Co383 2.061 . S
O384 C387 1.235 . S
C385 O388 1.238 . S
C385 O389 1.241 . S
C386 O379 1.247 . S
C386 O380 1.261 . S
C387 O382 1.259 . S
C387 O384 1.235 . S
O388 Co378 2.021 . S
O388 C385 1.238 . S
O389 Co383 2.052 . S
O389 C385 1.241 . S
O390 Co378 2.137 . S
O390 C381 1.247 . S
O391 Co378 2.244 . S
O391 C381 1.272 . S
O391 Co383 2.135 . S
Co392 O393 2.216 . S
Co392 O394 2.091 . S
Co392 O396 2.004 . S
Co392 O402 2.021 . S
Co392 O404 2.137 . S
Co392 O405 2.244 . S
O393 Co392 2.216 . S
O393 C400 1.247 . S
O394 Co392 2.091 . S
O394 C400 1.261 . S
C395 O404 1.247 . S
C395 O405 1.272 . S
O396 Co392 2.004 . S
O396 C401 1.259 . S
Co397 O398 2.061 . S
Co397 O403 2.052 . S
Co397 O405 2.135 . S
O398 Co397 2.061 . S
O398 C401 1.235 . S
C399 O402 1.238 . S
C399 O403 1.241 . S
C400 O393 1.247 . S
C400 O394 1.261 . S
C401 O396 1.259 . S
C401 O398 1.235 . S
O402 Co392 2.021 . S
O402 C399 1.238 . S
O403 Co397 2.052 . S
O403 C399 1.241 . S
O404 Co392 2.137 . S
O404 C395 1.247 . S
O405 Co392 2.244 . S
O405 C395 1.272 . S
O405 Co397 2.135 . S
Co406 O407 2.216 . S
Co406 O408 2.091 . S
Co406 O410 2.004 . S
Co406 O416 2.021 . S
Co406 O418 2.137 . S
Co406 O419 2.244 . S
O407 Co406 2.216 . S
O407 C414 1.247 . S
O408 Co406 2.091 . S
O408 C414 1.261 . S
C409 O418 1.247 . S
C409 O419 1.272 . S
O410 Co406 2.004 . S
O410 C415 1.259 . S
Co411 O412 2.061 . S
Co411 O417 2.052 . S
Co411 O419 2.135 . S
O412 Co411 2.061 . S
O412 C415 1.235 . S
C413 O416 1.238 . S
C413 O417 1.241 . S
C414 O407 1.247 . S
C414 O408 1.261 . S
C415 O410 1.259 . S
C415 O412 1.235 . S
O416 Co406 2.021 . S
O416 C413 1.238 . S
O417 Co411 2.052 . S
O417 C413 1.241 . S
O418 Co406 2.137 . S
O418 C409 1.247 . S
O419 Co406 2.244 . S
O419 C409 1.272 . S
O419 Co411 2.135 . S
Co420 O421 2.216 . S
Co420 O422 2.091 . S
Co420 O424 2.004 . S
Co420 O430 2.021 . S
Co420 O432 2.137 . S
Co420 O433 2.244 . S
O421 Co420 2.216 . S
O421 C428 1.247 . S
O422 Co420 2.091 . S
O422 C428 1.261 . S
C423 O432 1.247 . S
C423 O433 1.272 . S
O424 Co420 2.004 . S
O424 C429 1.259 . S
Co425 O426 2.061 . S
Co425 O431 2.052 . S
Co425 O433 2.135 . S
O426 Co425 2.061 . S
O426 C429 1.235 . S
C427 O430 1.238 . S
C427 O431 1.241 . S
C428 O421 1.247 . S
C428 O422 1.261 . S
C429 O424 1.259 . S
C429 O426 1.235 . S
O430 Co420 2.021 . S
O430 C427 1.238 . S
O431 Co425 2.052 . S
O431 C427 1.241 . S
O432 Co420 2.137 . S
O432 C423 1.247 . S
O433 Co420 2.244 . S
O433 C423 1.272 . S
O433 Co425 2.135 . S
Co434 O435 2.216 . S
Co434 O436 2.091 . S
Co434 O438 2.004 . S
Co434 O444 2.021 . S
Co434 O446 2.137 . S
Co434 O447 2.244 . S
O435 Co434 2.216 . S
O435 C442 1.247 . S
O436 Co434 2.091 . S
O436 C442 1.261 . S
C437 O446 1.247 . S
C437 O447 1.272 . S
O438 Co434 2.004 . S
O438 C443 1.259 . S
Co439 O440 2.061 . S
Co439 O445 2.052 . S
Co439 O447 2.135 . S
O440 Co439 2.061 . S
O440 C443 1.235 . S
C441 O444 1.238 . S
C441 O445 1.241 . S
C442 O435 1.247 . S
C442 O436 1.261 . S
C443 O438 1.259 . S
C443 O440 1.235 . S
O444 Co434 2.021 . S
O444 C441 1.238 . S
O445 Co439 2.052 . S
O445 C441 1.241 . S
O446 Co434 2.137 . S
O446 C437 1.247 . S
O447 Co434 2.244 . S
O447 C437 1.272 . S
O447 Co439 2.135 . S
Co448 O449 2.216 . S
Co448 O450 2.091 . S
Co448 O452 2.004 . S
Co448 O458 2.021 . S
Co448 O460 2.137 . S
Co448 O461 2.244 . S
O449 Co448 2.216 . S
O449 C456 1.247 . S
O450 Co448 2.091 . S
O450 C456 1.261 . S
C451 O460 1.247 . S
C451 O461 1.272 . S
O452 Co448 2.004 . S
O452 C457 1.259 . S
Co453 O454 2.061 . S
Co453 O459 2.052 . S
Co453 O461 2.135 . S
O454 Co453 2.061 . S
O454 C457 1.235 . S
C455 O458 1.238 . S
C455 O459 1.241 . S
C456 O449 1.247 . S
C456 O450 1.261 . S
C457 O452 1.259 . S
C457 O454 1.235 . S
O458 Co448 2.021 . S
O458 C455 1.238 . S
O459 Co453 2.052 . S
O459 C455 1.241 . S
O460 Co448 2.137 . S
O460 C451 1.247 . S
O461 Co448 2.244 . S
O461 C451 1.272 . S
O461 Co453 2.135 . S
Co462 O463 2.216 . S
Co462 O464 2.091 . S
Co462 O466 2.004 . S
Co462 O472 2.021 . S
Co462 O474 2.137 . S
Co462 O475 2.244 . S
O463 Co462 2.216 . S
O463 C470 1.247 . S
O464 Co462 2.091 . S
O464 C470 1.261 . S
C465 O474 1.247 . S
C465 O475 1.272 . S
O466 Co462 2.004 . S
O466 C471 1.259 . S
Co467 O468 2.061 . S
Co467 O473 2.052 . S
Co467 O475 2.135 . S
O468 Co467 2.061 . S
O468 C471 1.235 . S
C469 O472 1.238 . S
C469 O473 1.241 . S
C470 O463 1.247 . S
C470 O464 1.261 . S
C471 O466 1.259 . S
C471 O468 1.235 . S
O472 Co462 2.021 . S
O472 C469 1.238 . S
O473 Co467 2.052 . S
O473 C469 1.241 . S
O474 Co462 2.137 . S
O474 C465 1.247 . S
O475 Co462 2.244 . S
O475 C465 1.272 . S
O475 Co467 2.135 . S
Co476 O477 2.216 . S
Co476 O478 2.091 . S
Co476 O480 2.004 . S
Co476 O486 2.021 . S
Co476 O488 2.137 . S
Co476 O489 2.244 . S
O477 Co476 2.216 . S
O477 C484 1.247 . S
O478 Co476 2.091 . S
O478 C484 1.261 . S
C479 O488 1.247 . S
C479 O489 1.272 . S
O480 Co476 2.004 . S
O480 C485 1.259 . S
Co481 O482 2.061 . S
Co481 O487 2.052 . S
Co481 O489 2.135 . S
O482 Co481 2.061 . S
O482 C485 1.235 . S
C483 O486 1.238 . S
C483 O487 1.241 . S
C484 O477 1.247 . S
C484 O478 1.261 . S
C485 O480 1.259 . S
C485 O482 1.235 . S
O486 Co476 2.021 . S
O486 C483 1.238 . S
O487 Co481 2.052 . S
O487 C483 1.241 . S
O488 Co476 2.137 . S
O488 C479 1.247 . S
O489 Co476 2.244 . S
O489 C479 1.272 . S
O489 Co481 2.135 . S
Co490 O491 2.216 . S
Co490 O492 2.091 . S
Co490 O494 2.004 . S
Co490 O500 2.021 . S
Co490 O502 2.137 . S
Co490 O503 2.244 . S
O491 Co490 2.216 . S
O491 C498 1.247 . S
O492 Co490 2.091 . S
O492 C498 1.261 . S
C493 O502 1.247 . S
C493 O503 1.272 . S
O494 Co490 2.004 . S
O494 C499 1.259 . S
Co495 O496 2.061 . S
Co495 O501 2.052 . S
Co495 O503 2.135 . S
O496 Co495 2.061 . S
O496 C499 1.235 . S
C497 O500 1.238 . S
C497 O501 1.241 . S
C498 O491 1.247 . S
C498 O492 1.261 . S
C499 O494 1.259 . S
C499 O496 1.235 . S
O500 Co490 2.021 . S
O500 C497 1.238 . S
O501 Co495 2.052 . S
O501 C497 1.241 . S
O502 Co490 2.137 . S
O502 C493 1.247 . S
O503 Co490 2.244 . S
O503 C493 1.272 . S
O503 Co495 2.135 . S
Co504 O505 2.216 . S
Co504 O506 2.091 . S
Co504 O508 2.004 . S
Co504 O514 2.021 . S
Co504 O516 2.137 . S
Co504 O517 2.244 . S
O505 Co504 2.216 . S
O505 C512 1.247 . S
O506 Co504 2.091 . S
O506 C512 1.261 . S
C507 O516 1.247 . S
C507 O517 1.272 . S
O508 Co504 2.004 . S
O508 C513 1.259 . S
Co509 O510 2.061 . S
Co509 O515 2.052 . S
Co509 O517 2.135 . S
O510 Co509 2.061 . S
O510 C513 1.235 . S
C511 O514 1.238 . S
C511 O515 1.241 . S
C512 O505 1.247 . S
C512 O506 1.261 . S
C513 O508 1.259 . S
C513 O510 1.235 . S
O514 Co504 2.021 . S
O514 C511 1.238 . S
O515 Co509 2.052 . S
O515 C511 1.241 . S
O516 Co504 2.137 . S
O516 C507 1.247 . S
O517 Co504 2.244 . S
O517 C507 1.272 . S
O517 Co509 2.135 . S
Co518 O519 2.216 . S
Co518 O520 2.091 . S
Co518 O522 2.004 . S
Co518 O528 2.021 . S
Co518 O530 2.137 . S
Co518 O531 2.244 . S
O519 Co518 2.216 . S
O519 C526 1.247 . S
O520 Co518 2.091 . S
O520 C526 1.261 . S
C521 O530 1.247 . S
C521 O531 1.272 . S
O522 Co518 2.004 . S
O522 C527 1.259 . S
Co523 O524 2.061 . S
Co523 O529 2.052 . S
Co523 O531 2.135 . S
O524 Co523 2.061 . S
O524 C527 1.235 . S
C525 O528 1.238 . S
C525 O529 1.241 . S
C526 O519 1.247 . S
C526 O520 1.261 . S
C527 O522 1.259 . S
C527 O524 1.235 . S
O528 Co518 2.021 . S
O528 C525 1.238 . S
O529 Co523 2.052 . S
O529 C525 1.241 . S
O530 Co518 2.137 . S
O530 C521 1.247 . S
O531 Co518 2.244 . S
O531 C521 1.272 . S
O531 Co523 2.135 . S
Co532 O533 2.216 . S
Co532 O534 2.091 . S
Co532 O536 2.004 . S
Co532 O542 2.021 . S
Co532 O544 2.137 . S
Co532 O545 2.244 . S
O533 Co532 2.216 . S
O533 C540 1.247 . S
O534 Co532 2.091 . S
O534 C540 1.261 . S
C535 O544 1.247 . S
C535 O545 1.272 . S
O536 Co532 2.004 . S
O536 C541 1.259 . S
Co537 O538 2.061 . S
Co537 O543 2.052 . S
Co537 O545 2.135 . S
O538 Co537 2.061 . S
O538 C541 1.235 . S
C539 O542 1.238 . S
C539 O543 1.241 . S
C540 O533 1.247 . S
C540 O534 1.261 . S
C541 O536 1.259 . S
C541 O538 1.235 . S
O542 Co532 2.021 . S
O542 C539 1.238 . S
O543 Co537 2.052 . S
O543 C539 1.241 . S
O544 Co532 2.137 . S
O544 C535 1.247 . S
O545 Co532 2.244 . S
O545 C535 1.272 . S
O545 Co537 2.135 . S
Co546 O547 2.216 . S
Co546 O548 2.091 . S
Co546 O550 2.004 . S
Co546 O556 2.021 . S
Co546 O558 2.137 . S
Co546 O559 2.244 . S
O547 Co546 2.216 . S
O547 C554 1.247 . S
O548 Co546 2.091 . S
O548 C554 1.261 . S
C549 O558 1.247 . S
C549 O559 1.272 . S
O550 Co546 2.004 . S
O550 C555 1.259 . S
Co551 O552 2.061 . S
Co551 O557 2.052 . S
Co551 O559 2.135 . S
O552 Co551 2.061 . S
O552 C555 1.235 . S
C553 O556 1.238 . S
C553 O557 1.241 . S
C554 O547 1.247 . S
C554 O548 1.261 . S
C555 O550 1.259 . S
C555 O552 1.235 . S
O556 Co546 2.021 . S
O556 C553 1.238 . S
O557 Co551 2.052 . S
O557 C553 1.241 . S
O558 Co546 2.137 . S
O558 C549 1.247 . S
O559 Co546 2.244 . S
O559 C549 1.272 . S
O559 Co551 2.135 . S
Co560 O561 2.216 . S
Co560 O562 2.091 . S
Co560 O564 2.004 . S
Co560 O570 2.021 . S
Co560 O572 2.137 . S
Co560 O573 2.244 . S
O561 Co560 2.216 . S
O561 C568 1.247 . S
O562 Co560 2.091 . S
O562 C568 1.261 . S
C563 O572 1.247 . S
C563 O573 1.272 . S
O564 Co560 2.004 . S
O564 C569 1.259 . S
Co565 O566 2.061 . S
Co565 O571 2.052 . S
Co565 O573 2.135 . S
O566 Co565 2.061 . S
O566 C569 1.235 . S
C567 O570 1.238 . S
C567 O571 1.241 . S
C568 O561 1.247 . S
C568 O562 1.261 . S
C569 O564 1.259 . S
C569 O566 1.235 . S
O570 Co560 2.021 . S
O570 C567 1.238 . S
O571 Co565 2.052 . S
O571 C567 1.241 . S
O572 Co560 2.137 . S
O572 C563 1.247 . S
O573 Co560 2.244 . S
O573 C563 1.272 . S
O573 Co565 2.135 . S
Co574 O575 2.216 . S
Co574 O576 2.091 . S
Co574 O578 2.004 . S
Co574 O584 2.021 . S
Co574 O586 2.137 . S
Co574 O587 2.244 . S
O575 Co574 2.216 . S
O575 C582 1.247 . S
O576 Co574 2.091 . S
O576 C582 1.261 . S
C577 O586 1.247 . S
C577 O587 1.272 . S
O578 Co574 2.004 . S
O578 C583 1.259 . S
Co579 O580 2.061 . S
Co579 O585 2.052 . S
Co579 O587 2.135 . S
O580 Co579 2.061 . S
O580 C583 1.235 . S
C581 O584 1.238 . S
C581 O585 1.241 . S
C582 O575 1.247 . S
C582 O576 1.261 . S
C583 O578 1.259 . S
C583 O580 1.235 . S
O584 Co574 2.021 . S
O584 C581 1.238 . S
O585 Co579 2.052 . S
O585 C581 1.241 . S
O586 Co574 2.137 . S
O586 C577 1.247 . S
O587 Co574 2.244 . S
O587 C577 1.272 . S
O587 Co579 2.135 . S
Co588 O589 2.216 . S
Co588 O590 2.091 . S
Co588 O592 2.004 . S
Co588 O598 2.021 . S
Co588 O600 2.137 . S
Co588 O601 2.244 . S
O589 Co588 2.216 . S
O589 C596 1.247 . S
O590 Co588 2.091 . S
O590 C596 1.261 . S
C591 O600 1.247 . S
C591 O601 1.272 . S
O592 Co588 2.004 . S
O592 C597 1.259 . S
Co593 O594 2.061 . S
Co593 O599 2.052 . S
Co593 O601 2.135 . S
O594 Co593 2.061 . S
O594 C597 1.235 . S
C595 O598 1.238 . S
C595 O599 1.241 . S
C596 O589 1.247 . S
C596 O590 1.261 . S
C597 O592 1.259 . S
C597 O594 1.235 . S
O598 Co588 2.021 . S
O598 C595 1.238 . S
O599 Co593 2.052 . S
O599 C595 1.241 . S
O600 Co588 2.137 . S
O600 C591 1.247 . S
O601 Co588 2.244 . S
O601 C591 1.272 . S
O601 Co593 2.135 . S
Co602 O603 2.216 . S
Co602 O604 2.091 . S
Co602 O606 2.004 . S
Co602 O612 2.021 . S
Co602 O614 2.137 . S
Co602 O615 2.244 . S
O603 Co602 2.216 . S
O603 C610 1.247 . S
O604 Co602 2.091 . S
O604 C610 1.261 . S
C605 O614 1.247 . S
C605 O615 1.272 . S
O606 Co602 2.004 . S
O606 C611 1.259 . S
Co607 O608 2.061 . S
Co607 O613 2.052 . S
Co607 O615 2.135 . S
O608 Co607 2.061 . S
O608 C611 1.235 . S
C609 O612 1.238 . S
C609 O613 1.241 . S
C610 O603 1.247 . S
C610 O604 1.261 . S
C611 O606 1.259 . S
C611 O608 1.235 . S
O612 Co602 2.021 . S
O612 C609 1.238 . S
O613 Co607 2.052 . S
O613 C609 1.241 . S
O614 Co602 2.137 . S
O614 C605 1.247 . S
O615 Co602 2.244 . S
O615 C605 1.272 . S
O615 Co607 2.135 . S
Co616 O617 2.216 . S
Co616 O618 2.091 . S
Co616 O620 2.004 . S
Co616 O626 2.021 . S
Co616 O628 2.137 . S
Co616 O629 2.244 . S
O617 Co616 2.216 . S
O617 C624 1.247 . S
O618 Co616 2.091 . S
O618 C624 1.261 . S
C619 O628 1.247 . S
C619 O629 1.272 . S
O620 Co616 2.004 . S
O620 C625 1.259 . S
Co621 O622 2.061 . S
Co621 O627 2.052 . S
Co621 O629 2.135 . S
O622 Co621 2.061 . S
O622 C625 1.235 . S
C623 O626 1.238 . S
C623 O627 1.241 . S
C624 O617 1.247 . S
C624 O618 1.261 . S
C625 O620 1.259 . S
C625 O622 1.235 . S
O626 Co616 2.021 . S
O626 C623 1.238 . S
O627 Co621 2.052 . S
O627 C623 1.241 . S
O628 Co616 2.137 . S
O628 C619 1.247 . S
O629 Co616 2.244 . S
O629 C619 1.272 . S
O629 Co621 2.135 . S
Co630 O631 2.216 . S
Co630 O632 2.091 . S
Co630 O634 2.004 . S
Co630 O640 2.021 . S
Co630 O642 2.137 . S
Co630 O643 2.244 . S
O631 Co630 2.216 . S
O631 C638 1.247 . S
O632 Co630 2.091 . S
O632 C638 1.261 . S
C633 O642 1.247 . S
C633 O643 1.272 . S
O634 Co630 2.004 . S
O634 C639 1.259 . S
Co635 O636 2.061 . S
Co635 O641 2.052 . S
Co635 O643 2.135 . S
O636 Co635 2.061 . S
O636 C639 1.235 . S
C637 O640 1.238 . S
C637 O641 1.241 . S
C638 O631 1.247 . S
C638 O632 1.261 . S
C639 O634 1.259 . S
C639 O636 1.235 . S
O640 Co630 2.021 . S
O640 C637 1.238 . S
O641 Co635 2.052 . S
O641 C637 1.241 . S
O642 Co630 2.137 . S
O642 C633 1.247 . S
O643 Co630 2.244 . S
O643 C633 1.272 . S
O643 Co635 2.135 . S
Co644 O645 2.216 . S
Co644 O646 2.091 . S
Co644 O648 2.004 . S
Co644 O654 2.021 . S
Co644 O656 2.137 . S
Co644 O657 2.244 . S
O645 Co644 2.216 . S
O645 C652 1.247 . S
O646 Co644 2.091 . S
O646 C652 1.261 . S
C647 O656 1.247 . S
C647 O657 1.272 . S
O648 Co644 2.004 . S
O648 C653 1.259 . S
Co649 O650 2.061 . S
Co649 O655 2.052 . S
Co649 O657 2.135 . S
O650 Co649 2.061 . S
O650 C653 1.235 . S
C651 O654 1.238 . S
C651 O655 1.241 . S
C652 O645 1.247 . S
C652 O646 1.261 . S
C653 O648 1.259 . S
C653 O650 1.235 . S
O654 Co644 2.021 . S
O654 C651 1.238 . S
O655 Co649 2.052 . S
O655 C651 1.241 . S
O656 Co644 2.137 . S
O656 C647 1.247 . S
O657 Co644 2.244 . S
O657 C647 1.272 . S
O657 Co649 2.135 . S
Co658 O659 2.216 . S
Co658 O660 2.091 . S
Co658 O662 2.004 . S
Co658 O668 2.021 . S
Co658 O670 2.137 . S
Co658 O671 2.244 . S
O659 Co658 2.216 . S
O659 C666 1.247 . S
O660 Co658 2.091 . S
O660 C666 1.261 . S
C661 O670 1.247 . S
C661 O671 1.272 . S
O662 Co658 2.004 . S
O662 C667 1.259 . S
Co663 O664 2.061 . S
Co663 O669 2.052 . S
Co663 O671 2.135 . S
O664 Co663 2.061 . S
O664 C667 1.235 . S
C665 O668 1.238 . S
C665 O669 1.241 . S
C666 O659 1.247 . S
C666 O660 1.261 . S
C667 O662 1.259 . S
C667 O664 1.235 . S
O668 Co658 2.021 . S
O668 C665 1.238 . S
O669 Co663 2.052 . S
O669 C665 1.241 . S
O670 Co658 2.137 . S
O670 C661 1.247 . S
O671 Co658 2.244 . S
O671 C661 1.272 . S
O671 Co663 2.135 . S
H672 C690 0.951 . S
H673 C692 0.951 . S
H674 C694 0.950 . S
H675 C695 0.950 . S
H676 C697 0.950 . S
H677 C700 0.950 . S
H678 C701 0.950 . S
H679 C703 0.950 . S
H680 C704 0.950 1_455 S
H681 C705 0.951 . S
H682 C707 0.951 . S
H683 C709 0.950 . S
H684 C710 0.950 . S
H685 C712 0.950 . S
H686 C715 0.950 . S
H687 C716 0.950 . S
H688 C718 0.950 . S
H689 C719 0.950 1_655 S
C690 H672 0.951 . S
C690 C691 1.366 . S
C690 C692 1.388 . S
C691 C690 1.366 . S
C691 C695 1.385 . S
C692 H673 0.951 . S
C692 C690 1.388 . S
C692 C693 1.366 . S
C693 C692 1.366 . S
C693 C694 1.414 . S
C693 C696 1.499 . S
C694 H674 0.950 . S
C694 C693 1.414 . S
C694 C695 1.374 . S
C695 H675 0.950 . S
C695 C691 1.385 . S
C695 C694 1.374 . S
C696 C693 1.499 . S
C696 C697 1.373 . S
C696 C698 1.389 . S
C697 H676 0.950 . S
C697 C696 1.373 . S
C697 C713 1.377 1_655 S
C698 C696 1.389 . S
C698 C699 1.524 . S
C698 C712 1.377 1_655 S
C699 C698 1.524 . S
C699 C700 1.397 . S
C699 C704 1.363 . S
C700 H677 0.950 . S
C700 C699 1.397 . S
C700 C701 1.334 . S
C701 H678 0.950 . S
C701 C700 1.334 . S
C701 C702 1.287 . S
C702 C701 1.287 . S
C702 C703 1.524 . S
C702 H721 0.913 . S
C703 H679 0.950 . S
C703 C702 1.524 . S
C703 C704 1.415 . S
C704 H680 0.950 1_655 S
C704 C699 1.363 . S
C704 C703 1.415 . S
C705 H681 0.951 . S
C705 C706 1.366 . S
C705 C707 1.388 . S
C706 C705 1.366 . S
C706 C710 1.385 . S
C707 H682 0.951 . S
C707 C705 1.388 . S
C707 C708 1.366 . S
C708 C707 1.366 . S
C708 C709 1.414 . S
C708 C711 1.499 . S
C709 H683 0.950 . S
C709 C708 1.414 . S
C709 C710 1.374 . S
C710 H684 0.950 . S
C710 C706 1.385 . S
C710 C709 1.374 . S
C711 C708 1.499 . S
C711 C712 1.373 . S
C711 C713 1.389 . S
C712 H685 0.950 . S
C712 C698 1.377 1_455 S
C712 C711 1.373 . S
C713 C697 1.377 1_455 S
C713 C711 1.389 . S
C713 C714 1.524 . S
C714 C713 1.524 . S
C714 C715 1.397 . S
C714 C719 1.363 . S
C715 H686 0.950 . S
C715 C714 1.397 . S
C715 C716 1.334 . S
C716 H687 0.950 . S
C716 C715 1.334 . S
C716 C717 1.287 . S
C717 C716 1.287 . S
C717 C718 1.524 . S
C717 H720 0.999 . S
C718 H688 0.950 . S
C718 C717 1.524 . S
C718 C719 1.415 . S
C719 H689 0.950 1_455 S
C719 C714 1.363 . S
C719 C718 1.415 . S
H720 C717 0.999 . S
H721 C702 0.913 . S
H722 C740 0.951 . S
H723 C742 0.951 . S
H724 C744 0.950 . S
H725 C745 0.950 . S
H726 C747 0.950 . S
H727 C750 0.950 . S
H728 C751 0.950 . S
H729 C753 0.950 . S
H730 C754 0.950 . S
H731 C755 0.951 . S
H732 C757 0.951 . S
H733 C759 0.950 . S
H734 C760 0.950 . S
H735 C762 0.950 . S
H736 C765 0.950 . S
H737 C766 0.950 . S
H738 C768 0.950 . S
H739 C769 0.950 . S
C740 H722 0.951 . S
C740 C741 1.366 . S
C740 C742 1.388 . S
C741 C740 1.366 . S
C741 C745 1.385 . S
C742 H723 0.951 . S
C742 C740 1.388 . S
C742 C743 1.366 . S
C743 C742 1.366 . S
C743 C744 1.414 . S
C743 C746 1.499 . S
C744 H724 0.950 . S
C744 C743 1.414 . S
C744 C745 1.374 . S
C745 H725 0.950 . S
C745 C741 1.385 . S
C745 C744 1.374 . S
C746 C743 1.499 . S
C746 C747 1.373 1_565 S
C746 C748 1.389 . S
C747 H726 0.950 . S
C747 C746 1.373 1_545 S
C747 C763 1.377 . S
C748 C746 1.389 . S
C748 C749 1.524 . S
C748 C762 1.377 . S
C749 C748 1.524 . S
C749 C750 1.397 . S
C749 C754 1.363 . S
C750 H727 0.950 . S
C750 C749 1.397 . S
C750 C751 1.334 . S
C751 H728 0.950 . S
C751 C750 1.334 . S
C751 C752 1.287 . S
C752 C751 1.287 . S
C752 C753 1.524 . S
C752 H771 0.913 . S
C753 H729 0.950 . S
C753 C752 1.524 . S
C753 C754 1.415 . S
C754 H730 0.950 . S
C754 C749 1.363 . S
C754 C753 1.415 . S
C755 H731 0.951 . S
C755 C756 1.366 . S
C755 C757 1.388 . S
C756 C755 1.366 . S
C756 C760 1.385 . S
C757 H732 0.951 . S
C757 C755 1.388 . S
C757 C758 1.366 . S
C758 C757 1.366 . S
C758 C759 1.414 . S
C758 C761 1.499 . S
C759 H733 0.950 . S
C759 C758 1.414 . S
C759 C760 1.374 . S
C760 H734 0.950 . S
C760 C756 1.385 . S
C760 C759 1.374 . S
C761 C758 1.499 . S
C761 C762 1.373 1_545 S
C761 C763 1.389 . S
C762 H735 0.950 . S
C762 C748 1.377 . S
C762 C761 1.373 1_565 S
C763 C747 1.377 . S
C763 C761 1.389 . S
C763 C764 1.524 . S
C764 C763 1.524 . S
C764 C765 1.397 . S
C764 C769 1.363 . S
C765 H736 0.950 . S
C765 C764 1.397 . S
C765 C766 1.334 . S
C766 H737 0.950 . S
C766 C765 1.334 . S
C766 C767 1.287 . S
C767 C766 1.287 . S
C767 C768 1.524 . S
C767 H770 0.999 . S
C768 H738 0.950 . S
C768 C767 1.524 . S
C768 C769 1.415 . S
C769 H739 0.950 . S
C769 C764 1.363 . S
C769 C768 1.415 . S
H770 C767 0.999 . S
H771 C752 0.913 . S
H772 C790 0.951 . S
H773 C792 0.951 . S
H774 C794 0.950 . S
H775 C795 0.950 . S
H776 C797 0.950 . S
H777 C800 0.950 . S
H778 C801 0.950 . S
H779 C803 0.950 . S
H780 C804 0.950 . S
H781 C805 0.951 . S
H782 C807 0.951 . S
H783 C809 0.950 . S
H784 C810 0.950 . S
H785 C812 0.950 . S
H786 C815 0.950 . S
H787 C816 0.950 . S
H788 C818 0.950 . S
H789 C819 0.950 . S
C790 H772 0.951 . S
C790 C791 1.366 . S
C790 C792 1.388 . S
C791 C790 1.366 . S
C791 C795 1.385 . S
C792 H773 0.951 . S
C792 C790 1.388 . S
C792 C793 1.366 . S
C793 C792 1.366 . S
C793 C794 1.414 . S
C793 C796 1.499 . S
C794 H774 0.950 . S
C794 C793 1.414 . S
C794 C795 1.374 . S
C795 H775 0.950 . S
C795 C791 1.385 . S
C795 C794 1.374 . S
C796 C793 1.499 . S
C796 C797 1.373 . S
C796 C798 1.389 . S
C797 H776 0.950 . S
C797 C796 1.373 . S
C797 C813 1.377 1_455 S
C798 C796 1.389 . S
C798 C799 1.524 . S
C798 C812 1.377 1_455 S
C799 C798 1.524 . S
C799 C800 1.397 . S
C799 C804 1.363 . S
C800 H777 0.950 . S
C800 C799 1.397 . S
C800 C801 1.334 . S
C801 H778 0.950 . S
C801 C800 1.334 . S
C801 C802 1.287 . S
C802 C801 1.287 . S
C802 C803 1.524 . S
C802 H821 0.913 . S
C803 H779 0.950 . S
C803 C802 1.524 . S
C803 C804 1.415 . S
C804 H780 0.950 . S
C804 C799 1.363 . S
C804 C803 1.415 . S
C805 H781 0.951 . S
C805 C806 1.366 . S
C805 C807 1.388 . S
C806 C805 1.366 . S
C806 C810 1.385 . S
C807 H782 0.951 . S
C807 C805 1.388 . S
C807 C808 1.366 . S
C808 C807 1.366 . S
C808 C809 1.414 . S
C808 C811 1.499 . S
C809 H783 0.950 . S
C809 C808 1.414 . S
C809 C810 1.374 . S
C810 H784 0.950 . S
C810 C806 1.385 . S
C810 C809 1.374 . S
C811 C808 1.499 . S
C811 C812 1.373 . S
C811 C813 1.389 . S
C812 H785 0.950 . S
C812 C798 1.377 1_655 S
C812 C811 1.373 . S
C813 C797 1.377 1_655 S
C813 C811 1.389 . S
C813 C814 1.524 . S
C814 C813 1.524 . S
C814 C815 1.397 . S
C814 C819 1.363 . S
C815 H786 0.950 . S
C815 C814 1.397 . S
C815 C816 1.334 . S
C816 H787 0.950 . S
C816 C815 1.334 . S
C816 C817 1.287 . S
C817 C816 1.287 . S
C817 C818 1.524 . S
C817 H820 0.999 . S
C818 H788 0.950 . S
C818 C817 1.524 . S
C818 C819 1.415 . S
C819 H789 0.950 . S
C819 C814 1.363 . S
C819 C818 1.415 . S
H820 C817 0.999 . S
H821 C802 0.913 . S
H822 C840 0.951 . S
H823 C842 0.951 . S
H824 C844 0.950 . S
H825 C845 0.950 . S
H826 C847 0.950 . S
H827 C850 0.950 . S
H828 C851 0.950 . S
H829 C853 0.950 . S
H830 C854 0.950 . S
H831 C855 0.951 . S
H832 C857 0.951 . S
H833 C859 0.950 . S
H834 C860 0.950 . S
H835 C862 0.950 . S
H836 C865 0.950 . S
H837 C866 0.950 . S
H838 C868 0.950 . S
H839 C869 0.950 . S
C840 H822 0.951 . S
C840 C841 1.366 . S
C840 C842 1.388 . S
C841 C840 1.366 . S
C841 C845 1.385 . S
C842 H823 0.951 . S
C842 C840 1.388 . S
C842 C843 1.366 . S
C843 C842 1.366 . S
C843 C844 1.414 . S
C843 C846 1.499 . S
C844 H824 0.950 . S
C844 C843 1.414 . S
C844 C845 1.374 . S
C845 H825 0.950 . S
C845 C841 1.385 . S
C845 C844 1.374 . S
C846 C843 1.499 . S
C846 C847 1.373 . S
C846 C848 1.389 1_565 S
C847 H826 0.950 . S
C847 C846 1.373 . S
C847 C863 1.377 . S
C848 C846 1.389 1_545 S
C848 C849 1.524 . S
C848 C862 1.377 . S
C849 C848 1.524 . S
C849 C850 1.397 1_545 S
C849 C854 1.363 . S
C850 H827 0.950 . S
C850 C849 1.397 1_565 S
C850 C851 1.334 . S
C851 H828 0.950 . S
C851 C850 1.334 . S
C851 C852 1.287 1_565 S
C852 C851 1.287 1_545 S
C852 C853 1.524 . S
C852 H871 0.913 . S
C853 H829 0.950 . S
C853 C852 1.524 . S
C853 C854 1.415 . S
C854 H830 0.950 . S
C854 C849 1.363 . S
C854 C853 1.415 . S
C855 H831 0.951 . S
C855 C856 1.366 . S
C855 C857 1.388 . S
C856 C855 1.366 . S
C856 C860 1.385 . S
C857 H832 0.951 . S
C857 C855 1.388 . S
C857 C858 1.366 . S
C858 C857 1.366 . S
C858 C859 1.414 . S
C858 C861 1.499 . S
C859 H833 0.950 . S
C859 C858 1.414 . S
C859 C860 1.374 . S
C860 H834 0.950 . S
C860 C856 1.385 . S
C860 C859 1.374 . S
C861 C858 1.499 . S
C861 C862 1.373 . S
C861 C863 1.389 1_545 S
C862 H835 0.950 . S
C862 C848 1.377 . S
C862 C861 1.373 . S
C863 C847 1.377 . S
C863 C861 1.389 1_565 S
C863 C864 1.524 . S
C864 C863 1.524 . S
C864 C865 1.397 1_565 S
C864 C869 1.363 . S
C865 H836 0.950 . S
C865 C864 1.397 1_545 S
C865 C866 1.334 . S
C866 H837 0.950 . S
C866 C865 1.334 . S
C866 C867 1.287 1_545 S
C867 C866 1.287 1_565 S
C867 C868 1.524 . S
C867 H870 0.999 . S
C868 H838 0.950 . S
C868 C867 1.524 . S
C868 C869 1.415 . S
C869 H839 0.950 . S
C869 C864 1.363 . S
C869 C868 1.415 . S
H870 C867 0.999 . S
H871 C852 0.913 . S
H872 C890 0.951 . S
H873 C892 0.951 . S
H874 C894 0.950 . S
H875 C895 0.950 . S
H876 C897 0.950 . S
H877 C900 0.950 1_655 S
H878 C901 0.943 1_655 S
H879 C903 0.950 . S
H880 C904 0.950 . S
H881 C905 0.951 . S
H882 C907 0.951 . S
H883 C909 0.950 . S
H884 C910 0.950 . S
H885 C912 0.950 . S
H886 C915 0.950 1_455 S
H887 C916 0.943 1_455 S
H888 C918 0.950 . S
H889 C919 0.950 . S
C890 H872 0.951 . S
C890 C891 1.366 . S
C890 C892 1.388 . S
C891 C890 1.366 . S
C891 C895 1.385 . S
C892 H873 0.951 . S
C892 C890 1.388 . S
C892 C893 1.366 . S
C893 C892 1.366 . S
C893 C894 1.414 . S
C893 C896 1.499 . S
C894 H874 0.950 . S
C894 C893 1.414 . S
C894 C895 1.374 . S
C895 H875 0.950 . S
C895 C891 1.385 . S
C895 C894 1.374 . S
C896 C893 1.499 . S
C896 C897 1.373 . S
C896 C898 1.389 1_655 S
C897 H876 0.950 . S
C897 C896 1.373 . S
C897 C913 1.377 . S
C898 C896 1.389 1_455 S
C898 C899 1.524 . S
C898 C912 1.377 . S
C899 C898 1.524 . S
C899 C900 1.397 . S
C899 C904 1.363 . S
C900 H877 0.950 1_455 S
C900 C899 1.397 . S
C900 C901 1.334 . S
C901 H878 0.943 1_455 S
C901 C900 1.334 . S
C901 C902 1.287 . S
C902 C901 1.287 . S
C902 C903 1.524 . S
C902 H921 0.913 . S
C903 H879 0.950 . S
C903 C902 1.524 . S
C903 C904 1.415 . S
C904 H880 0.950 . S
C904 C899 1.363 . S
C904 C903 1.415 . S
C905 H881 0.951 . S
C905 C906 1.366 . S
C905 C907 1.388 . S
C906 C905 1.366 . S
C906 C910 1.385 . S
C907 H882 0.951 . S
C907 C905 1.388 . S
C907 C908 1.366 . S
C908 C907 1.366 . S
C908 C909 1.414 . S
C908 C911 1.499 . S
C909 H883 0.950 . S
C909 C908 1.414 . S
C909 C910 1.374 . S
C910 H884 0.950 . S
C910 C906 1.385 . S
C910 C909 1.374 . S
C911 C908 1.499 . S
C911 C912 1.373 . S
C911 C913 1.389 1_455 S
C912 H885 0.950 . S
C912 C898 1.377 . S
C912 C911 1.373 . S
C913 C897 1.377 . S
C913 C911 1.389 1_655 S
C913 C914 1.524 . S
C914 C913 1.524 . S
C914 C915 1.397 . S
C914 C919 1.363 . S
C915 H886 0.950 1_655 S
C915 C914 1.397 . S
C915 C916 1.334 . S
C916 H887 0.943 1_655 S
C916 C915 1.334 . S
C916 C917 1.287 . S
C917 C916 1.287 . S
C917 C918 1.524 . S
C917 H920 0.999 . S
C918 H888 0.950 . S
C918 C917 1.524 . S
C918 C919 1.415 . S
C919 H889 0.950 . S
C919 C914 1.363 . S
C919 C918 1.415 . S
H920 C917 0.999 . S
H921 C902 0.913 . S
H922 C940 0.951 . S
H923 C942 0.951 . S
H924 C944 0.950 . S
H925 C945 0.950 . S
H926 C947 0.950 . S
H927 C950 0.952 . S
H928 C951 0.950 . S
H929 C953 0.950 . S
H930 C954 0.950 . S
H931 C955 0.951 . S
H932 C957 0.951 . S
H933 C959 0.950 . S
H934 C960 0.950 . S
H935 C962 0.950 . S
H936 C965 0.952 . S
H937 C966 0.950 . S
H938 C968 0.950 . S
H939 C969 0.950 . S
C940 H922 0.951 . S
C940 C941 1.366 . S
C940 C942 1.388 . S
C941 C940 1.366 . S
C941 C945 1.385 . S
C942 H923 0.951 . S
C942 C940 1.388 . S
C942 C943 1.366 . S
C943 C942 1.366 . S
C943 C944 1.414 . S
C943 C946 1.499 . S
C944 H924 0.950 . S
C944 C943 1.414 . S
C944 C945 1.374 . S
C945 H925 0.950 . S
C945 C941 1.385 . S
C945 C944 1.374 . S
C946 C943 1.499 . S
C946 C947 1.373 . S
C946 C948 1.375 1_545 S
C947 H926 0.950 . S
C947 C946 1.373 . S
C947 C963 1.390 . S
C948 C946 1.375 1_565 S
C948 C949 1.527 . S
C948 C962 1.390 . S
C949 C948 1.527 . S
C949 C950 1.397 . S
C949 C954 1.363 . S
C950 H927 0.952 . S
C950 C949 1.397 . S
C950 C951 1.334 . S
C951 H928 0.950 . S
C951 C950 1.334 . S
C951 C952 1.287 . S
C952 C951 1.287 . S
C952 C953 1.524 . S
C952 H971 0.913 . S
C953 H929 0.950 . S
C953 C952 1.524 . S
C953 C954 1.415 . S
C954 H930 0.950 . S
C954 C949 1.363 . S
C954 C953 1.415 . S
C955 H931 0.951 . S
C955 C956 1.366 . S
C955 C957 1.388 . S
C956 C955 1.366 . S
C956 C960 1.385 . S
C957 H932 0.951 . S
C957 C955 1.388 . S
C957 C958 1.366 . S
C958 C957 1.366 . S
C958 C959 1.414 . S
C958 C961 1.499 . S
C959 H933 0.950 . S
C959 C958 1.414 . S
C959 C960 1.374 . S
C960 H934 0.950 . S
C960 C956 1.385 . S
C960 C959 1.374 . S
C961 C958 1.499 . S
C961 C962 1.373 . S
C961 C963 1.375 1_565 S
C962 H935 0.950 . S
C962 C948 1.390 . S
C962 C961 1.373 . S
C963 C947 1.390 . S
C963 C961 1.375 1_545 S
C963 C964 1.527 . S
C964 C963 1.527 . S
C964 C965 1.397 . S
C964 C969 1.363 . S
C965 H936 0.952 . S
C965 C964 1.397 . S
C965 C966 1.334 . S
C966 H937 0.950 . S
C966 C965 1.334 . S
C966 C967 1.287 . S
C967 C966 1.287 . S
C967 C968 1.524 . S
C967 H970 0.999 . S
C968 H938 0.950 . S
C968 C967 1.524 . S
C968 C969 1.415 . S
C969 H939 0.950 . S
C969 C964 1.363 . S
C969 C968 1.415 . S
H970 C967 0.999 . S
H971 C952 0.913 . S
H972 C990 0.951 . S
H973 C992 0.951 . S
H974 C994 0.950 . S
H975 C995 0.950 . S
H976 C997 0.950 . S
H977 C1000 0.950 . S
H978 C1001 0.950 . S
H979 C1003 0.935 1_655 S
H980 C1004 0.895 1_655 S
H981 C1005 0.951 . S
H982 C1007 0.951 . S
H983 C1009 0.950 . S
H984 C1010 0.950 . S
H985 C1012 0.950 . S
H986 C1015 0.950 . S
H987 C1016 0.950 . S
H988 C1018 0.935 1_455 S
H989 C1019 0.895 1_455 S
C990 H972 0.951 . S
C990 C991 1.366 . S
C990 C992 1.388 . S
C991 C990 1.366 . S
C991 C995 1.385 . S
C992 H973 0.951 . S
C992 C990 1.388 . S
C992 C993 1.366 . S
C993 C992 1.366 . S
C993 C994 1.414 . S
C993 C996 1.499 . S
C994 H974 0.950 . S
C994 C993 1.414 . S
C994 C995 1.374 . S
C995 H975 0.950 . S
C995 C991 1.385 . S
C995 C994 1.374 . S
C996 C993 1.499 . S
C996 C997 1.373 . S
C996 C998 1.389 . S
C997 H976 0.950 . S
C997 C996 1.373 . S
C997 C1013 1.377 1_455 S
C998 C996 1.389 . S
C998 C999 1.524 . S
C998 C1012 1.377 1_455 S
C999 C998 1.524 . S
C999 C1000 1.397 . S
C999 C1004 1.400 . S
C1000 H977 0.950 . S
C1000 C999 1.397 . S
C1000 C1001 1.334 . S
C1001 H978 0.950 . S
C1001 C1000 1.334 . S
C1001 C1002 1.287 . S
C1002 C1001 1.287 . S
C1002 C1003 1.524 . S
C1002 H1021 0.913 . S
C1003 H979 0.935 1_455 S
C1003 C1002 1.524 . S
C1003 C1004 1.434 . S
C1004 H980 0.895 1_455 S
C1004 C999 1.400 . S
C1004 C1003 1.434 . S
C1005 H981 0.951 . S
C1005 C1006 1.366 . S
C1005 C1007 1.388 . S
C1006 C1005 1.366 . S
C1006 C1010 1.385 . S
C1007 H982 0.951 . S
C1007 C1005 1.388 . S
C1007 C1008 1.366 . S
C1008 C1007 1.366 . S
C1008 C1009 1.414 . S
C1008 C1011 1.499 . S
C1009 H983 0.950 . S
C1009 C1008 1.414 . S
C1009 C1010 1.374 . S
C1010 H984 0.950 . S
C1010 C1006 1.385 . S
C1010 C1009 1.374 . S
C1011 C1008 1.499 . S
C1011 C1012 1.373 . S
C1011 C1013 1.389 . S
C1012 H985 0.950 . S
C1012 C998 1.377 1_655 S
C1012 C1011 1.373 . S
C1013 C997 1.377 1_655 S
C1013 C1011 1.389 . S
C1013 C1014 1.524 . S
C1014 C1013 1.524 . S
C1014 C1015 1.397 . S
C1014 C1019 1.400 . S
C1015 H986 0.950 . S
C1015 C1014 1.397 . S
C1015 C1016 1.334 . S
C1016 H987 0.950 . S
C1016 C1015 1.334 . S
C1016 C1017 1.287 . S
C1017 C1016 1.287 . S
C1017 C1018 1.524 . S
C1017 H1020 0.999 . S
C1018 H988 0.935 1_655 S
C1018 C1017 1.524 . S
C1018 C1019 1.434 . S
C1019 H989 0.895 1_655 S
C1019 C1014 1.400 . S
C1019 C1018 1.434 . S
H1020 C1017 0.999 . S
H1021 C1002 0.913 . S
H1022 C1040 0.951 . S
H1023 C1042 0.951 . S
H1024 C1044 0.950 . S
H1025 C1045 0.950 . S
H1026 C1047 0.950 . S
H1027 C1050 0.950 1_545 S
H1028 C1051 0.950 . S
H1029 C1053 0.950 . S
H1030 C1054 0.950 . S
H1031 C1055 0.951 . S
H1032 C1057 0.951 . S
H1033 C1059 0.950 . S
H1034 C1060 0.950 . S
H1035 C1062 0.950 . S
H1036 C1065 0.950 1_565 S
H1037 C1066 0.950 . S
H1038 C1068 0.950 . S
H1039 C1069 0.950 . S
C1040 H1022 0.951 . S
C1040 C1041 1.366 . S
C1040 C1042 1.388 . S
C1041 C1040 1.366 . S
C1041 C1045 1.385 . S
C1042 H1023 0.951 . S
C1042 C1040 1.388 . S
C1042 C1043 1.366 . S
C1043 C1042 1.366 . S
C1043 C1044 1.414 . S
C1043 C1046 1.499 . S
C1044 H1024 0.950 . S
C1044 C1043 1.414 . S
C1044 C1045 1.374 . S
C1045 H1025 0.950 . S
C1045 C1041 1.385 . S
C1045 C1044 1.374 . S
C1046 C1043 1.499 . S
C1046 C1047 1.373 . S
C1046 C1048 1.389 1_545 S
C1047 H1026 0.950 . S
C1047 C1046 1.373 . S
C1047 C1063 1.377 . S
C1048 C1046 1.389 1_565 S
C1048 C1049 1.524 . S
C1048 C1062 1.377 . S
C1049 C1048 1.524 . S
C1049 C1050 1.397 . S
C1049 C1054 1.363 . S
C1050 H1027 0.950 1_565 S
C1050 C1049 1.397 . S
C1050 C1051 1.334 . S
C1051 H1028 0.950 . S
C1051 C1050 1.334 . S
C1051 C1052 1.287 . S
C1052 C1051 1.287 . S
C1052 C1053 1.524 . S
C1052 H1071 0.913 . S
C1053 H1029 0.950 . S
C1053 C1052 1.524 . S
C1053 C1054 1.415 . S
C1054 H1030 0.950 . S
C1054 C1049 1.363 . S
C1054 C1053 1.415 . S
C1055 H1031 0.951 . S
C1055 C1056 1.366 . S
C1055 C1057 1.388 . S
C1056 C1055 1.366 . S
C1056 C1060 1.385 . S
C1057 H1032 0.951 . S
C1057 C1055 1.388 . S
C1057 C1058 1.366 . S
C1058 C1057 1.366 . S
C1058 C1059 1.414 . S
C1058 C1061 1.499 . S
C1059 H1033 0.950 . S
C1059 C1058 1.414 . S
C1059 C1060 1.374 . S
C1060 H1034 0.950 . S
C1060 C1056 1.385 . S
C1060 C1059 1.374 . S
C1061 C1058 1.499 . S
C1061 C1062 1.373 . S
C1061 C1063 1.389 1_565 S
C1062 H1035 0.950 . S
C1062 C1048 1.377 . S
C1062 C1061 1.373 . S
C1063 C1047 1.377 . S
C1063 C1061 1.389 1_545 S
C1063 C1064 1.524 . S
C1064 C1063 1.524 . S
C1064 C1065 1.397 . S
C1064 C1069 1.363 . S
C1065 H1036 0.950 1_545 S
C1065 C1064 1.397 . S
C1065 C1066 1.334 . S
C1066 H1037 0.950 . S
C1066 C1065 1.334 . S
C1066 C1067 1.287 . S
C1067 C1066 1.287 . S
C1067 C1068 1.524 . S
C1067 H1070 0.999 . S
C1068 H1038 0.950 . S
C1068 C1067 1.524 . S
C1068 C1069 1.415 . S
C1069 H1039 0.950 . S
C1069 C1064 1.363 . S
C1069 C1068 1.415 . S
H1070 C1067 0.999 . S
H1071 C1052 0.913 . S
H1072 C1090 0.951 . S
H1073 C1092 0.951 . S
H1074 C1094 0.950 . S
H1075 C1095 0.950 . S
H1076 C1097 0.950 . S
H1077 C1100 0.950 . S
H1078 C1101 0.950 . S
H1079 C1103 0.950 . S
H1080 C1104 0.950 . S
H1081 C1105 0.951 . S
H1082 C1107 0.951 . S
H1083 C1109 0.950 . S
H1084 C1110 0.950 . S
H1085 C1112 0.950 . S
H1086 C1115 0.950 . S
H1087 C1116 0.950 . S
H1088 C1118 0.950 . S
H1089 C1119 0.950 . S
C1090 H1072 0.951 . S
C1090 C1091 1.366 . S
C1090 C1092 1.388 . S
C1091 C1090 1.366 . S
C1091 C1095 1.385 . S
C1092 H1073 0.951 . S
C1092 C1090 1.388 . S
C1092 C1093 1.366 . S
C1093 C1092 1.366 . S
C1093 C1094 1.414 . S
C1093 C1096 1.499 . S
C1094 H1074 0.950 . S
C1094 C1093 1.414 . S
C1094 C1095 1.374 . S
C1095 H1075 0.950 . S
C1095 C1091 1.385 . S
C1095 C1094 1.374 . S
C1096 C1093 1.499 . S
C1096 C1097 1.373 . S
C1096 C1098 1.389 . S
C1097 H1076 0.950 . S
C1097 C1096 1.373 . S
C1097 C1113 1.377 1_554 S
C1098 C1096 1.389 . S
C1098 C1099 1.524 . S
C1098 C1112 1.377 1_554 S
C1099 C1098 1.524 . S
C1099 C1100 1.397 . S
C1099 C1104 1.363 . S
C1100 H1077 0.950 . S
C1100 C1099 1.397 . S
C1100 C1101 1.334 . S
C1101 H1078 0.950 . S
C1101 C1100 1.334 . S
C1101 C1102 1.287 . S
C1102 C1101 1.287 . S
C1102 C1103 1.524 . S
C1102 H1121 0.913 . S
C1103 H1079 0.950 . S
C1103 C1102 1.524 . S
C1103 C1104 1.415 . S
C1104 H1080 0.950 . S
C1104 C1099 1.363 . S
C1104 C1103 1.415 . S
C1105 H1081 0.951 . S
C1105 C1106 1.366 . S
C1105 C1107 1.388 . S
C1106 C1105 1.366 . S
C1106 C1110 1.385 . S
C1107 H1082 0.951 . S
C1107 C1105 1.388 . S
C1107 C1108 1.366 . S
C1108 C1107 1.366 . S
C1108 C1109 1.414 . S
C1108 C1111 1.499 . S
C1109 H1083 0.950 . S
C1109 C1108 1.414 . S
C1109 C1110 1.374 . S
C1110 H1084 0.950 . S
C1110 C1106 1.385 . S
C1110 C1109 1.374 . S
C1111 C1108 1.499 . S
C1111 C1112 1.373 . S
C1111 C1113 1.389 . S
C1112 H1085 0.950 . S
C1112 C1098 1.377 1_556 S
C1112 C1111 1.373 . S
C1113 C1097 1.377 1_556 S
C1113 C1111 1.389 . S
C1113 C1114 1.524 . S
C1114 C1113 1.524 . S
C1114 C1115 1.397 . S
C1114 C1119 1.363 . S
C1115 H1086 0.950 . S
C1115 C1114 1.397 . S
C1115 C1116 1.334 . S
C1116 H1087 0.950 . S
C1116 C1115 1.334 . S
C1116 C1117 1.287 . S
C1117 C1116 1.287 . S
C1117 C1118 1.524 . S
C1117 H1120 0.999 . S
C1118 H1088 0.950 . S
C1118 C1117 1.524 . S
C1118 C1119 1.415 . S
C1119 H1089 0.950 . S
C1119 C1114 1.363 . S
C1119 C1118 1.415 . S
H1120 C1117 0.999 . S
H1121 C1102 0.913 . S
H1122 C1140 0.951 . S
H1123 C1142 0.951 . S
H1124 C1144 0.950 . S
H1125 C1145 0.950 . S
H1126 C1147 0.950 . S
H1127 C1150 0.950 . S
H1128 C1151 0.950 . S
H1129 C1153 0.950 . S
H1130 C1154 0.950 . S
H1131 C1155 0.951 . S
H1132 C1157 0.951 . S
H1133 C1159 0.950 . S
H1134 C1160 0.950 . S
H1135 C1162 0.950 . S
H1136 C1165 0.950 . S
H1137 C1166 0.950 . S
H1138 C1168 0.950 . S
H1139 C1169 0.950 . S
C1140 H1122 0.951 . S
C1140 C1141 1.366 . S
C1140 C1142 1.388 . S
C1141 C1140 1.366 . S
C1141 C1145 1.385 . S
C1142 H1123 0.951 . S
C1142 C1140 1.388 . S
C1142 C1143 1.366 . S
C1143 C1142 1.366 . S
C1143 C1144 1.414 . S
C1143 C1146 1.499 . S
C1144 H1124 0.950 . S
C1144 C1143 1.414 . S
C1144 C1145 1.374 . S
C1145 H1125 0.950 . S
C1145 C1141 1.385 . S
C1145 C1144 1.374 . S
C1146 C1143 1.499 . S
C1146 C1147 1.373 . S
C1146 C1148 1.388 . S
C1147 H1126 0.950 . S
C1147 C1146 1.373 . S
C1147 C1163 1.378 1_556 S
C1148 C1146 1.388 . S
C1148 C1149 1.525 1_556 S
C1148 C1162 1.378 1_556 S
C1149 C1148 1.525 1_554 S
C1149 C1150 1.397 . S
C1149 C1154 1.363 . S
C1150 H1127 0.950 . S
C1150 C1149 1.397 . S
C1150 C1151 1.334 . S
C1151 H1128 0.950 . S
C1151 C1150 1.334 . S
C1151 C1152 1.287 . S
C1152 C1151 1.287 . S
C1152 C1153 1.524 . S
C1152 H1171 0.913 . S
C1153 H1129 0.950 . S
C1153 C1152 1.524 . S
C1153 C1154 1.415 . S
C1154 H1130 0.950 . S
C1154 C1149 1.363 . S
C1154 C1153 1.415 . S
C1155 H1131 0.951 . S
C1155 C1156 1.366 . S
C1155 C1157 1.388 . S
C1156 C1155 1.366 . S
C1156 C1160 1.385 . S
C1157 H1132 0.951 . S
C1157 C1155 1.388 . S
C1157 C1158 1.366 . S
C1158 C1157 1.366 . S
C1158 C1159 1.414 . S
C1158 C1161 1.499 . S
C1159 H1133 0.950 . S
C1159 C1158 1.414 . S
C1159 C1160 1.374 . S
C1160 H1134 0.950 . S
C1160 C1156 1.385 . S
C1160 C1159 1.374 . S
C1161 C1158 1.499 . S
C1161 C1162 1.373 . S
C1161 C1163 1.388 . S
C1162 H1135 0.950 . S
C1162 C1148 1.378 1_554 S
C1162 C1161 1.373 . S
C1163 C1147 1.378 1_554 S
C1163 C1161 1.388 . S
C1163 C1164 1.525 1_554 S
C1164 C1163 1.525 1_556 S
C1164 C1165 1.397 . S
C1164 C1169 1.363 . S
C1165 H1136 0.950 . S
C1165 C1164 1.397 . S
C1165 C1166 1.334 . S
C1166 H1137 0.950 . S
C1166 C1165 1.334 . S
C1166 C1167 1.287 . S
C1167 C1166 1.287 . S
C1167 C1168 1.524 . S
C1167 H1170 0.999 . S
C1168 H1138 0.950 . S
C1168 C1167 1.524 . S
C1168 C1169 1.415 . S
C1169 H1139 0.950 . S
C1169 C1164 1.363 . S
C1169 C1168 1.415 . S
H1170 C1167 0.999 . S
H1171 C1152 0.913 . S
H1172 C1190 0.951 . S
H1173 C1192 0.951 . S
H1174 C1194 0.950 . S
H1175 C1195 0.950 . S
H1176 C1197 0.950 . S
H1177 C1200 0.948 1_556 S
H1178 C1201 0.956 . S
H1179 C1203 0.950 . S
H1180 C1204 0.950 . S
H1181 C1205 0.951 . S
H1182 C1207 0.951 . S
H1183 C1209 0.950 . S
H1184 C1210 0.950 . S
H1185 C1212 0.950 . S
H1186 C1215 0.948 1_554 S
H1187 C1216 0.956 . S
H1188 C1218 0.950 . S
H1189 C1219 0.950 . S
C1190 H1172 0.951 . S
C1190 C1191 1.366 . S
C1190 C1192 1.388 . S
C1191 C1190 1.366 . S
C1191 C1195 1.385 . S
C1192 H1173 0.951 . S
C1192 C1190 1.388 . S
C1192 C1193 1.366 . S
C1193 C1192 1.366 . S
C1193 C1194 1.414 . S
C1193 C1196 1.499 . S
C1194 H1174 0.950 . S
C1194 C1193 1.414 . S
C1194 C1195 1.374 . S
C1195 H1175 0.950 . S
C1195 C1191 1.385 . S
C1195 C1194 1.374 . S
C1196 C1193 1.499 . S
C1196 C1197 1.373 . S
C1196 C1198 1.432 . S
C1197 H1176 0.950 . S
C1197 C1196 1.373 . S
C1197 C1213 1.333 1_556 S
C1198 C1196 1.432 . S
C1198 C1199 1.523 . S
C1198 C1212 1.333 1_556 S
C1199 C1198 1.523 . S
C1199 C1200 1.397 1_556 S
C1199 C1204 1.363 1_556 S
C1200 H1177 0.948 1_554 S
C1200 C1199 1.397 1_554 S
C1200 C1201 1.336 . S
C1201 H1178 0.956 . S
C1201 C1200 1.336 . S
C1201 C1202 1.287 . S
C1202 C1201 1.287 . S
C1202 C1203 1.524 . S
C1202 H1221 0.913 . S
C1203 H1179 0.950 . S
C1203 C1202 1.524 . S
C1203 C1204 1.415 . S
C1204 H1180 0.950 . S
C1204 C1199 1.363 1_554 S
C1204 C1203 1.415 . S
C1205 H1181 0.951 . S
C1205 C1206 1.366 . S
C1205 C1207 1.388 . S
C1206 C1205 1.366 . S
C1206 C1210 1.385 . S
C1207 H1182 0.951 . S
C1207 C1205 1.388 . S
C1207 C1208 1.366 . S
C1208 C1207 1.366 . S
C1208 C1209 1.414 . S
C1208 C1211 1.499 . S
C1209 H1183 0.950 . S
C1209 C1208 1.414 . S
C1209 C1210 1.374 . S
C1210 H1184 0.950 . S
C1210 C1206 1.385 . S
C1210 C1209 1.374 . S
C1211 C1208 1.499 . S
C1211 C1212 1.373 . S
C1211 C1213 1.432 . S
C1212 H1185 0.950 . S
C1212 C1198 1.333 1_554 S
C1212 C1211 1.373 . S
C1213 C1197 1.333 1_554 S
C1213 C1211 1.432 . S
C1213 C1214 1.523 . S
C1214 C1213 1.523 . S
C1214 C1215 1.397 1_554 S
C1214 C1219 1.363 1_554 S
C1215 H1186 0.948 1_556 S
C1215 C1214 1.397 1_556 S
C1215 C1216 1.336 . S
C1216 H1187 0.956 . S
C1216 C1215 1.336 . S
C1216 C1217 1.287 . S
C1217 C1216 1.287 . S
C1217 C1218 1.524 . S
C1217 H1220 0.999 . S
C1218 H1188 0.950 . S
C1218 C1217 1.524 . S
C1218 C1219 1.415 . S
C1219 H1189 0.950 . S
C1219 C1214 1.363 1_556 S
C1219 C1218 1.415 . S
H1220 C1217 0.999 . S
H1221 C1202 0.913 . S
H1222 C1240 0.951 . S
H1223 C1242 0.951 . S
H1224 C1244 0.950 . S
H1225 C1245 0.950 . S
H1226 C1247 0.950 . S
H1227 C1250 0.950 . S
H1228 C1251 0.950 . S
H1229 C1253 0.950 . S
H1230 C1254 0.950 . S
H1231 C1255 0.951 . S
H1232 C1257 0.951 . S
H1233 C1259 0.950 . S
H1234 C1260 0.950 . S
H1235 C1262 0.950 . S
H1236 C1265 0.950 . S
H1237 C1266 0.950 . S
H1238 C1268 0.950 . S
H1239 C1269 0.950 . S
C1240 H1222 0.951 . S
C1240 C1241 1.366 . S
C1240 C1242 1.388 . S
C1241 C1240 1.366 . S
C1241 C1245 1.385 . S
C1242 H1223 0.951 . S
C1242 C1240 1.388 . S
C1242 C1243 1.366 . S
C1243 C1242 1.366 . S
C1243 C1244 1.414 . S
C1243 C1246 1.499 . S
C1244 H1224 0.950 . S
C1244 C1243 1.414 . S
C1244 C1245 1.374 . S
C1245 H1225 0.950 . S
C1245 C1241 1.385 . S
C1245 C1244 1.374 . S
C1246 C1243 1.499 . S
C1246 C1247 1.373 1_556 S
C1246 C1248 1.389 . S
C1247 H1226 0.950 . S
C1247 C1246 1.373 1_554 S
C1247 C1263 1.377 . S
C1248 C1246 1.389 . S
C1248 C1249 1.524 . S
C1248 C1262 1.377 . S
C1249 C1248 1.524 . S
C1249 C1250 1.397 . S
C1249 C1254 1.363 . S
C1250 H1227 0.950 . S
C1250 C1249 1.397 . S
C1250 C1251 1.334 . S
C1251 H1228 0.950 . S
C1251 C1250 1.334 . S
C1251 C1252 1.287 . S
C1252 C1251 1.287 . S
C1252 C1253 1.524 . S
C1252 H1271 0.913 . S
C1253 H1229 0.950 . S
C1253 C1252 1.524 . S
C1253 C1254 1.415 . S
C1254 H1230 0.950 . S
C1254 C1249 1.363 . S
C1254 C1253 1.415 . S
C1255 H1231 0.951 . S
C1255 C1256 1.366 . S
C1255 C1257 1.388 . S
C1256 C1255 1.366 . S
C1256 C1260 1.385 . S
C1257 H1232 0.951 . S
C1257 C1255 1.388 . S
C1257 C1258 1.366 . S
C1258 C1257 1.366 . S
C1258 C1259 1.414 . S
C1258 C1261 1.499 . S
C1259 H1233 0.950 . S
C1259 C1258 1.414 . S
C1259 C1260 1.374 . S
C1260 H1234 0.950 . S
C1260 C1256 1.385 . S
C1260 C1259 1.374 . S
C1261 C1258 1.499 . S
C1261 C1262 1.373 1_554 S
C1261 C1263 1.389 . S
C1262 H1235 0.950 . S
C1262 C1248 1.377 . S
C1262 C1261 1.373 1_556 S
C1263 C1247 1.377 . S
C1263 C1261 1.389 . S
C1263 C1264 1.524 . S
C1264 C1263 1.524 . S
C1264 C1265 1.397 . S
C1264 C1269 1.363 . S
C1265 H1236 0.950 . S
C1265 C1264 1.397 . S
C1265 C1266 1.334 . S
C1266 H1237 0.950 . S
C1266 C1265 1.334 . S
C1266 C1267 1.287 . S
C1267 C1266 1.287 . S
C1267 C1268 1.524 . S
C1267 H1270 0.999 . S
C1268 H1238 0.950 . S
C1268 C1267 1.524 . S
C1268 C1269 1.415 . S
C1269 H1239 0.950 . S
C1269 C1264 1.363 . S
C1269 C1268 1.415 . S
H1270 C1267 0.999 . S
H1271 C1252 0.913 . S
H1272 C1290 0.951 . S
H1273 C1292 0.951 . S
H1274 C1294 0.950 . S
H1275 C1295 0.950 . S
H1276 C1297 0.950 . S
H1277 C1300 0.950 . S
H1278 C1301 0.950 . S
H1279 C1303 0.950 . S
H1280 C1304 0.950 . S
H1281 C1305 0.951 . S
H1282 C1307 0.951 . S
H1283 C1309 0.950 . S
H1284 C1310 0.950 . S
H1285 C1312 0.950 . S
H1286 C1315 0.950 . S
H1287 C1316 0.950 . S
H1288 C1318 0.950 . S
H1289 C1319 0.950 . S
C1290 H1272 0.951 . S
C1290 C1291 1.366 . S
C1290 C1292 1.388 . S
C1291 C1290 1.366 . S
C1291 C1295 1.385 . S
C1292 H1273 0.951 . S
C1292 C1290 1.388 . S
C1292 C1293 1.366 . S
C1293 C1292 1.366 . S
C1293 C1294 1.414 . S
C1293 C1296 1.499 . S
C1294 H1274 0.950 . S
C1294 C1293 1.414 . S
C1294 C1295 1.374 . S
C1295 H1275 0.950 . S
C1295 C1291 1.385 . S
C1295 C1294 1.374 . S
C1296 C1293 1.499 . S
C1296 C1297 1.373 . S
C1296 C1298 1.389 . S
C1297 H1276 0.950 . S
C1297 C1296 1.373 . S
C1297 C1313 1.377 . S
C1298 C1296 1.389 . S
C1298 C1299 1.524 . S
C1298 C1312 1.377 . S
C1299 C1298 1.524 . S
C1299 C1300 1.397 . S
C1299 C1304 1.363 . S
C1300 H1277 0.950 . S
C1300 C1299 1.397 . S
C1300 C1301 1.334 . S
C1301 H1278 0.950 . S
C1301 C1300 1.334 . S
C1301 C1302 1.287 . S
C1302 C1301 1.287 . S
C1302 C1303 1.524 . S
C1302 H1321 0.913 . S
C1303 H1279 0.950 . S
C1303 C1302 1.524 . S
C1303 C1304 1.415 . S
C1304 H1280 0.950 . S
C1304 C1299 1.363 . S
C1304 C1303 1.415 . S
C1305 H1281 0.951 . S
C1305 C1306 1.366 . S
C1305 C1307 1.388 . S
C1306 C1305 1.366 . S
C1306 C1310 1.385 . S
C1307 H1282 0.951 . S
C1307 C1305 1.388 . S
C1307 C1308 1.366 . S
C1308 C1307 1.366 . S
C1308 C1309 1.414 . S
C1308 C1311 1.499 . S
C1309 H1283 0.950 . S
C1309 C1308 1.414 . S
C1309 C1310 1.374 . S
C1310 H1284 0.950 . S
C1310 C1306 1.385 . S
C1310 C1309 1.374 . S
C1311 C1308 1.499 . S
C1311 C1312 1.373 . S
C1311 C1313 1.389 . S
C1312 H1285 0.950 . S
C1312 C1298 1.377 . S
C1312 C1311 1.373 . S
C1313 C1297 1.377 . S
C1313 C1311 1.389 . S
C1313 C1314 1.524 . S
C1314 C1313 1.524 . S
C1314 C1315 1.397 . S
C1314 C1319 1.363 . S
C1315 H1286 0.950 . S
C1315 C1314 1.397 . S
C1315 C1316 1.334 . S
C1316 H1287 0.950 . S
C1316 C1315 1.334 . S
C1316 C1317 1.287 . S
C1317 C1316 1.287 . S
C1317 C1318 1.524 . S
C1317 H1320 0.999 . S
C1318 H1288 0.950 . S
C1318 C1317 1.524 . S
C1318 C1319 1.415 . S
C1319 H1289 0.950 . S
C1319 C1314 1.363 . S
C1319 C1318 1.415 . S
H1320 C1317 0.999 . S
H1321 C1302 0.913 . S
H1322 C1340 0.951 . S
H1323 C1342 0.951 . S
H1324 C1344 0.950 . S
H1325 C1345 0.950 . S
H1326 C1347 0.950 . S
H1327 C1350 0.950 . S
H1328 C1351 0.950 . S
H1329 C1353 0.950 . S
H1330 C1354 0.950 . S
H1331 C1355 0.951 . S
H1332 C1357 0.951 . S
H1333 C1359 0.950 . S
H1334 C1360 0.950 . S
H1335 C1362 0.950 . S
H1336 C1365 0.950 . S
H1337 C1366 0.950 . S
H1338 C1368 0.950 . S
H1339 C1369 0.950 . S
C1340 H1322 0.951 . S
C1340 C1341 1.366 . S
C1340 C1342 1.388 . S
C1341 C1340 1.366 . S
C1341 C1345 1.385 . S
C1342 H1323 0.951 . S
C1342 C1340 1.388 . S
C1342 C1343 1.366 . S
C1343 C1342 1.366 . S
C1343 C1344 1.414 . S
C1343 C1346 1.499 . S
C1344 H1324 0.950 . S
C1344 C1343 1.414 . S
C1344 C1345 1.374 . S
C1345 H1325 0.950 . S
C1345 C1341 1.385 . S
C1345 C1344 1.374 . S
C1346 C1343 1.499 . S
C1346 C1347 1.373 . S
C1346 C1348 1.389 . S
C1347 H1326 0.950 . S
C1347 C1346 1.373 . S
C1347 C1363 1.377 . S
C1348 C1346 1.389 . S
C1348 C1349 1.524 . S
C1348 C1362 1.377 . S
C1349 C1348 1.524 . S
C1349 C1350 1.397 . S
C1349 C1354 1.363 . S
C1350 H1327 0.950 . S
C1350 C1349 1.397 . S
C1350 C1351 1.334 . S
C1351 H1328 0.950 . S
C1351 C1350 1.334 . S
C1351 C1352 1.287 . S
C1352 C1351 1.287 . S
C1352 C1353 1.524 . S
C1352 H1371 0.913 . S
C1353 H1329 0.950 . S
C1353 C1352 1.524 . S
C1353 C1354 1.415 . S
C1354 H1330 0.950 . S
C1354 C1349 1.363 . S
C1354 C1353 1.415 . S
C1355 H1331 0.951 . S
C1355 C1356 1.366 . S
C1355 C1357 1.388 . S
C1356 C1355 1.366 . S
C1356 C1360 1.385 . S
C1357 H1332 0.951 . S
C1357 C1355 1.388 . S
C1357 C1358 1.366 . S
C1358 C1357 1.366 . S
C1358 C1359 1.414 . S
C1358 C1361 1.499 . S
C1359 H1333 0.950 . S
C1359 C1358 1.414 . S
C1359 C1360 1.374 . S
C1360 H1334 0.950 . S
C1360 C1356 1.385 . S
C1360 C1359 1.374 . S
C1361 C1358 1.499 . S
C1361 C1362 1.373 . S
C1361 C1363 1.389 . S
C1362 H1335 0.950 . S
C1362 C1348 1.377 . S
C1362 C1361 1.373 . S
C1363 C1347 1.377 . S
C1363 C1361 1.389 . S
C1363 C1364 1.524 . S
C1364 C1363 1.524 . S
C1364 C1365 1.397 . S
C1364 C1369 1.363 . S
C1365 H1336 0.950 . S
C1365 C1364 1.397 . S
C1365 C1366 1.334 . S
C1366 H1337 0.950 . S
C1366 C1365 1.334 . S
C1366 C1367 1.287 . S
C1367 C1366 1.287 . S
C1367 C1368 1.524 . S
C1367 H1370 0.999 . S
C1368 H1338 0.950 . S
C1368 C1367 1.524 . S
C1368 C1369 1.415 . S
C1369 H1339 0.950 . S
C1369 C1364 1.363 . S
C1369 C1368 1.415 . S
H1370 C1367 0.999 . S
H1371 C1352 0.913 . S
H1372 C1390 0.951 . S
H1373 C1392 0.951 . S
H1374 C1394 0.950 . S
H1375 C1395 0.950 . S
H1376 C1397 0.950 . S
H1377 C1400 0.950 . S
H1378 C1401 0.950 . S
H1379 C1403 0.950 . S
H1380 C1404 0.950 . S
H1381 C1405 0.951 . S
H1382 C1407 0.951 . S
H1383 C1409 0.950 . S
H1384 C1410 0.950 . S
H1385 C1412 0.950 . S
H1386 C1415 0.950 . S
H1387 C1416 0.950 . S
H1388 C1418 0.950 . S
H1389 C1419 0.950 . S
C1390 H1372 0.951 . S
C1390 C1391 1.366 . S
C1390 C1392 1.388 . S
C1391 C1390 1.366 . S
C1391 C1395 1.385 . S
C1392 H1373 0.951 . S
C1392 C1390 1.388 . S
C1392 C1393 1.366 . S
C1393 C1392 1.366 . S
C1393 C1394 1.414 . S
C1393 C1396 1.499 . S
C1394 H1374 0.950 . S
C1394 C1393 1.414 . S
C1394 C1395 1.374 . S
C1395 H1375 0.950 . S
C1395 C1391 1.385 . S
C1395 C1394 1.374 . S
C1396 C1393 1.499 . S
C1396 C1397 1.373 . S
C1396 C1398 1.389 . S
C1397 H1376 0.950 . S
C1397 C1396 1.373 . S
C1397 C1413 1.377 . S
C1398 C1396 1.389 . S
C1398 C1399 1.524 . S
C1398 C1412 1.377 . S
C1399 C1398 1.524 . S
C1399 C1400 1.397 . S
C1399 C1404 1.363 . S
C1400 H1377 0.950 . S
C1400 C1399 1.397 . S
C1400 C1401 1.334 . S
C1401 H1378 0.950 . S
C1401 C1400 1.334 . S
C1401 C1402 1.287 . S
C1402 C1401 1.287 . S
C1402 C1403 1.524 . S
C1402 H1421 0.913 . S
C1403 H1379 0.950 . S
C1403 C1402 1.524 . S
C1403 C1404 1.415 . S
C1404 H1380 0.950 . S
C1404 C1399 1.363 . S
C1404 C1403 1.415 . S
C1405 H1381 0.951 . S
C1405 C1406 1.366 . S
C1405 C1407 1.388 . S
C1406 C1405 1.366 . S
C1406 C1410 1.385 . S
C1407 H1382 0.951 . S
C1407 C1405 1.388 . S
C1407 C1408 1.366 . S
C1408 C1407 1.366 . S
C1408 C1409 1.414 . S
C1408 C1411 1.499 . S
C1409 H1383 0.950 . S
C1409 C1408 1.414 . S
C1409 C1410 1.374 . S
C1410 H1384 0.950 . S
C1410 C1406 1.385 . S
C1410 C1409 1.374 . S
C1411 C1408 1.499 . S
C1411 C1412 1.373 . S
C1411 C1413 1.389 . S
C1412 H1385 0.950 . S
C1412 C1398 1.377 . S
C1412 C1411 1.373 . S
C1413 C1397 1.377 . S
C1413 C1411 1.389 . S
C1413 C1414 1.524 . S
C1414 C1413 1.524 . S
C1414 C1415 1.397 . S
C1414 C1419 1.363 . S
C1415 H1386 0.950 . S
C1415 C1414 1.397 . S
C1415 C1416 1.334 . S
C1416 H1387 0.950 . S
C1416 C1415 1.334 . S
C1416 C1417 1.287 . S
C1417 C1416 1.287 . S
C1417 C1418 1.524 . S
C1417 H1420 0.999 . S
C1418 H1388 0.950 . S
C1418 C1417 1.524 . S
C1418 C1419 1.415 . S
C1419 H1389 0.950 . S
C1419 C1414 1.363 . S
C1419 C1418 1.415 . S
H1420 C1417 0.999 . S
H1421 C1402 0.913 . S
H1422 C1440 0.951 . S
H1423 C1442 0.951 . S
H1424 C1444 0.950 . S
H1425 C1445 0.950 . S
H1426 C1447 0.950 . S
H1427 C1450 0.950 . S
H1428 C1451 0.950 . S
H1429 C1453 0.950 . S
H1430 C1454 0.950 . S
H1431 C1455 0.951 . S
H1432 C1457 0.951 . S
H1433 C1459 0.950 . S
H1434 C1460 0.950 . S
H1435 C1462 0.950 . S
H1436 C1465 0.950 . S
H1437 C1466 0.950 . S
H1438 C1468 0.950 . S
H1439 C1469 0.950 . S
C1440 H1422 0.951 . S
C1440 C1441 1.366 . S
C1440 C1442 1.388 . S
C1441 C1440 1.366 . S
C1441 C1445 1.385 . S
C1442 H1423 0.951 . S
C1442 C1440 1.388 . S
C1442 C1443 1.366 . S
C1443 C1442 1.366 . S
C1443 C1444 1.414 . S
C1443 C1446 1.499 . S
C1444 H1424 0.950 . S
C1444 C1443 1.414 . S
C1444 C1445 1.374 . S
C1445 H1425 0.950 . S
C1445 C1441 1.385 . S
C1445 C1444 1.374 . S
C1446 C1443 1.499 . S
C1446 C1447 1.373 . S
C1446 C1448 1.389 . S
C1447 H1426 0.950 . S
C1447 C1446 1.373 . S
C1447 C1463 1.377 . S
C1448 C1446 1.389 . S
C1448 C1449 1.524 . S
C1448 C1462 1.377 . S
C1449 C1448 1.524 . S
C1449 C1450 1.397 . S
C1449 C1454 1.363 . S
C1450 H1427 0.950 . S
C1450 C1449 1.397 . S
C1450 C1451 1.334 . S
C1451 H1428 0.950 . S
C1451 C1450 1.334 . S
C1451 C1452 1.287 . S
C1452 C1451 1.287 . S
C1452 C1453 1.524 . S
C1452 H1471 0.913 . S
C1453 H1429 0.950 . S
C1453 C1452 1.524 . S
C1453 C1454 1.415 . S
C1454 H1430 0.950 . S
C1454 C1449 1.363 . S
C1454 C1453 1.415 . S
C1455 H1431 0.951 . S
C1455 C1456 1.366 . S
C1455 C1457 1.388 . S
C1456 C1455 1.366 . S
C1456 C1460 1.385 . S
C1457 H1432 0.951 . S
C1457 C1455 1.388 . S
C1457 C1458 1.366 . S
C1458 C1457 1.366 . S
C1458 C1459 1.414 . S
C1458 C1461 1.499 . S
C1459 H1433 0.950 . S
C1459 C1458 1.414 . S
C1459 C1460 1.374 . S
C1460 H1434 0.950 . S
C1460 C1456 1.385 . S
C1460 C1459 1.374 . S
C1461 C1458 1.499 . S
C1461 C1462 1.373 . S
C1461 C1463 1.389 . S
C1462 H1435 0.950 . S
C1462 C1448 1.377 . S
C1462 C1461 1.373 . S
C1463 C1447 1.377 . S
C1463 C1461 1.389 . S
C1463 C1464 1.524 . S
C1464 C1463 1.524 . S
C1464 C1465 1.397 . S
C1464 C1469 1.363 . S
C1465 H1436 0.950 . S
C1465 C1464 1.397 . S
C1465 C1466 1.334 . S
C1466 H1437 0.950 . S
C1466 C1465 1.334 . S
C1466 C1467 1.287 . S
C1467 C1466 1.287 . S
C1467 C1468 1.524 . S
C1467 H1470 0.999 . S
C1468 H1438 0.950 . S
C1468 C1467 1.524 . S
C1468 C1469 1.415 . S
C1469 H1439 0.950 . S
C1469 C1464 1.363 . S
C1469 C1468 1.415 . S
H1470 C1467 0.999 . S
H1471 C1452 0.913 . S
H1472 C1490 0.951 . S
H1473 C1492 0.951 . S
H1474 C1494 0.950 . S
H1475 C1495 0.950 . S
H1476 C1497 0.950 . S
H1477 C1500 0.950 . S
H1478 C1501 0.950 . S
H1479 C1503 0.950 . S
H1480 C1504 0.950 . S
H1481 C1505 0.951 . S
H1482 C1507 0.951 . S
H1483 C1509 0.950 . S
H1484 C1510 0.950 . S
H1485 C1512 0.950 . S
H1486 C1515 0.950 . S
H1487 C1516 0.950 . S
H1488 C1518 0.950 . S
H1489 C1519 0.950 . S
C1490 H1472 0.951 . S
C1490 C1491 1.366 . S
C1490 C1492 1.388 . S
C1491 C1490 1.366 . S
C1491 C1495 1.385 . S
C1492 H1473 0.951 . S
C1492 C1490 1.388 . S
C1492 C1493 1.366 . S
C1493 C1492 1.366 . S
C1493 C1494 1.414 . S
C1493 C1496 1.499 . S
C1494 H1474 0.950 . S
C1494 C1493 1.414 . S
C1494 C1495 1.374 . S
C1495 H1475 0.950 . S
C1495 C1491 1.385 . S
C1495 C1494 1.374 . S
C1496 C1493 1.499 . S
C1496 C1497 1.373 . S
C1496 C1498 1.389 . S
C1497 H1476 0.950 . S
C1497 C1496 1.373 . S
C1497 C1513 1.377 . S
C1498 C1496 1.389 . S
C1498 C1499 1.524 . S
C1498 C1512 1.377 . S
C1499 C1498 1.524 . S
C1499 C1500 1.397 . S
C1499 C1504 1.363 . S
C1500 H1477 0.950 . S
C1500 C1499 1.397 . S
C1500 C1501 1.334 . S
C1501 H1478 0.950 . S
C1501 C1500 1.334 . S
C1501 C1502 1.287 . S
C1502 C1501 1.287 . S
C1502 C1503 1.524 . S
C1502 H1521 0.913 . S
C1503 H1479 0.950 . S
C1503 C1502 1.524 . S
C1503 C1504 1.415 . S
C1504 H1480 0.950 . S
C1504 C1499 1.363 . S
C1504 C1503 1.415 . S
C1505 H1481 0.951 . S
C1505 C1506 1.366 . S
C1505 C1507 1.388 . S
C1506 C1505 1.366 . S
C1506 C1510 1.385 . S
C1507 H1482 0.951 . S
C1507 C1505 1.388 . S
C1507 C1508 1.366 . S
C1508 C1507 1.366 . S
C1508 C1509 1.414 . S
C1508 C1511 1.499 . S
C1509 H1483 0.950 . S
C1509 C1508 1.414 . S
C1509 C1510 1.374 . S
C1510 H1484 0.950 . S
C1510 C1506 1.385 . S
C1510 C1509 1.374 . S
C1511 C1508 1.499 . S
C1511 C1512 1.373 . S
C1511 C1513 1.389 . S
C1512 H1485 0.950 . S
C1512 C1498 1.377 . S
C1512 C1511 1.373 . S
C1513 C1497 1.377 . S
C1513 C1511 1.389 . S
C1513 C1514 1.524 . S
C1514 C1513 1.524 . S
C1514 C1515 1.397 . S
C1514 C1519 1.363 . S
C1515 H1486 0.950 . S
C1515 C1514 1.397 . S
C1515 C1516 1.334 . S
C1516 H1487 0.950 . S
C1516 C1515 1.334 . S
C1516 C1517 1.287 . S
C1517 C1516 1.287 . S
C1517 C1518 1.524 . S
C1517 H1520 0.999 . S
C1518 H1488 0.950 . S
C1518 C1517 1.524 . S
C1518 C1519 1.415 . S
C1519 H1489 0.950 . S
C1519 C1514 1.363 . S
C1519 C1518 1.415 . S
H1520 C1517 0.999 . S
H1521 C1502 0.913 . S
H1522 C1540 0.951 . S
H1523 C1542 0.951 . S
H1524 C1544 0.950 . S
H1525 C1545 0.950 . S
H1526 C1547 0.950 . S
H1527 C1550 0.950 . S
H1528 C1551 0.950 . S
H1529 C1553 0.950 . S
H1530 C1554 0.950 . S
H1531 C1555 0.951 . S
H1532 C1557 0.951 . S
H1533 C1559 0.950 . S
H1534 C1560 0.950 . S
H1535 C1562 0.950 . S
H1536 C1565 0.950 . S
H1537 C1566 0.950 . S
H1538 C1568 0.950 . S
H1539 C1569 0.950 . S
C1540 H1522 0.951 . S
C1540 C1541 1.366 . S
C1540 C1542 1.388 . S
C1541 C1540 1.366 . S
C1541 C1545 1.385 . S
C1542 H1523 0.951 . S
C1542 C1540 1.388 . S
C1542 C1543 1.366 . S
C1543 C1542 1.366 . S
C1543 C1544 1.414 . S
C1543 C1546 1.499 . S
C1544 H1524 0.950 . S
C1544 C1543 1.414 . S
C1544 C1545 1.374 . S
C1545 H1525 0.950 . S
C1545 C1541 1.385 . S
C1545 C1544 1.374 . S
C1546 C1543 1.499 . S
C1546 C1547 1.373 . S
C1546 C1548 1.389 . S
C1547 H1526 0.950 . S
C1547 C1546 1.373 . S
C1547 C1563 1.377 . S
C1548 C1546 1.389 . S
C1548 C1549 1.524 . S
C1548 C1562 1.377 . S
C1549 C1548 1.524 . S
C1549 C1550 1.397 . S
C1549 C1554 1.363 . S
C1550 H1527 0.950 . S
C1550 C1549 1.397 . S
C1550 C1551 1.334 . S
C1551 H1528 0.950 . S
C1551 C1550 1.334 . S
C1551 C1552 1.287 . S
C1552 C1551 1.287 . S
C1552 C1553 1.524 . S
C1552 H1571 0.913 . S
C1553 H1529 0.950 . S
C1553 C1552 1.524 . S
C1553 C1554 1.415 . S
C1554 H1530 0.950 . S
C1554 C1549 1.363 . S
C1554 C1553 1.415 . S
C1555 H1531 0.951 . S
C1555 C1556 1.366 . S
C1555 C1557 1.388 . S
C1556 C1555 1.366 . S
C1556 C1560 1.385 . S
C1557 H1532 0.951 . S
C1557 C1555 1.388 . S
C1557 C1558 1.366 . S
C1558 C1557 1.366 . S
C1558 C1559 1.414 . S
C1558 C1561 1.499 . S
C1559 H1533 0.950 . S
C1559 C1558 1.414 . S
C1559 C1560 1.374 . S
C1560 H1534 0.950 . S
C1560 C1556 1.385 . S
C1560 C1559 1.374 . S
C1561 C1558 1.499 . S
C1561 C1562 1.373 . S
C1561 C1563 1.389 . S
C1562 H1535 0.950 . S
C1562 C1548 1.377 . S
C1562 C1561 1.373 . S
C1563 C1547 1.377 . S
C1563 C1561 1.389 . S
C1563 C1564 1.524 . S
C1564 C1563 1.524 . S
C1564 C1565 1.397 . S
C1564 C1569 1.363 . S
C1565 H1536 0.950 . S
C1565 C1564 1.397 . S
C1565 C1566 1.334 . S
C1566 H1537 0.950 . S
C1566 C1565 1.334 . S
C1566 C1567 1.287 . S
C1567 C1566 1.287 . S
C1567 C1568 1.524 . S
C1567 H1570 0.999 . S
C1568 H1538 0.950 . S
C1568 C1567 1.524 . S
C1568 C1569 1.415 . S
C1569 H1539 0.950 . S
C1569 C1564 1.363 . S
C1569 C1568 1.415 . S
H1570 C1567 0.999 . S
H1571 C1552 0.913 . S
H1572 C1590 0.951 . S
H1573 C1592 0.951 . S
H1574 C1594 0.950 . S
H1575 C1595 0.950 . S
H1576 C1597 0.950 . S
H1577 C1600 0.950 . S
H1578 C1601 0.950 . S
H1579 C1603 0.950 . S
H1580 C1604 0.950 . S
H1581 C1605 0.951 . S
H1582 C1607 0.951 . S
H1583 C1609 0.950 . S
H1584 C1610 0.950 . S
H1585 C1612 0.950 . S
H1586 C1615 0.950 . S
H1587 C1616 0.950 . S
H1588 C1618 0.950 . S
H1589 C1619 0.950 . S
C1590 H1572 0.951 . S
C1590 C1591 1.366 . S
C1590 C1592 1.388 . S
C1591 C1590 1.366 . S
C1591 C1595 1.385 . S
C1592 H1573 0.951 . S
C1592 C1590 1.388 . S
C1592 C1593 1.366 . S
C1593 C1592 1.366 . S
C1593 C1594 1.414 . S
C1593 C1596 1.499 . S
C1594 H1574 0.950 . S
C1594 C1593 1.414 . S
C1594 C1595 1.374 . S
C1595 H1575 0.950 . S
C1595 C1591 1.385 . S
C1595 C1594 1.374 . S
C1596 C1593 1.499 . S
C1596 C1597 1.373 . S
C1596 C1598 1.389 . S
C1597 H1576 0.950 . S
C1597 C1596 1.373 . S
C1597 C1613 1.377 . S
C1598 C1596 1.389 . S
C1598 C1599 1.524 . S
C1598 C1612 1.377 . S
C1599 C1598 1.524 . S
C1599 C1600 1.397 . S
C1599 C1604 1.363 . S
C1600 H1577 0.950 . S
C1600 C1599 1.397 . S
C1600 C1601 1.334 . S
C1601 H1578 0.950 . S
C1601 C1600 1.334 . S
C1601 C1602 1.287 . S
C1602 C1601 1.287 . S
C1602 C1603 1.524 . S
C1602 H1621 0.913 . S
C1603 H1579 0.950 . S
C1603 C1602 1.524 . S
C1603 C1604 1.415 . S
C1604 H1580 0.950 . S
C1604 C1599 1.363 . S
C1604 C1603 1.415 . S
C1605 H1581 0.951 . S
C1605 C1606 1.366 . S
C1605 C1607 1.388 . S
C1606 C1605 1.366 . S
C1606 C1610 1.385 . S
C1607 H1582 0.951 . S
C1607 C1605 1.388 . S
C1607 C1608 1.366 . S
C1608 C1607 1.366 . S
C1608 C1609 1.414 . S
C1608 C1611 1.499 . S
C1609 H1583 0.950 . S
C1609 C1608 1.414 . S
C1609 C1610 1.374 . S
C1610 H1584 0.950 . S
C1610 C1606 1.385 . S
C1610 C1609 1.374 . S
C1611 C1608 1.499 . S
C1611 C1612 1.373 . S
C1611 C1613 1.389 . S
C1612 H1585 0.950 . S
C1612 C1598 1.377 . S
C1612 C1611 1.373 . S
C1613 C1597 1.377 . S
C1613 C1611 1.389 . S
C1613 C1614 1.524 . S
C1614 C1613 1.524 . S
C1614 C1615 1.397 . S
C1614 C1619 1.363 . S
C1615 H1586 0.950 . S
C1615 C1614 1.397 . S
C1615 C1616 1.334 . S
C1616 H1587 0.950 . S
C1616 C1615 1.334 . S
C1616 C1617 1.287 . S
C1617 C1616 1.287 . S
C1617 C1618 1.524 . S
C1617 H1620 0.999 . S
C1618 H1588 0.950 . S
C1618 C1617 1.524 . S
C1618 C1619 1.415 . S
C1619 H1589 0.950 . S
C1619 C1614 1.363 . S
C1619 C1618 1.415 . S
H1620 C1617 0.999 . S
H1621 C1602 0.913 . S
H1622 C1640 0.951 . S
H1623 C1642 0.951 . S
H1624 C1644 0.950 . S
H1625 C1645 0.950 . S
H1626 C1647 0.950 . S
H1627 C1650 0.950 . S
H1628 C1651 0.950 . S
H1629 C1653 0.950 . S
H1630 C1654 0.950 . S
H1631 C1655 0.951 . S
H1632 C1657 0.951 . S
H1633 C1659 0.950 . S
H1634 C1660 0.950 . S
H1635 C1662 0.950 . S
H1636 C1665 0.950 . S
H1637 C1666 0.950 . S
H1638 C1668 0.950 . S
H1639 C1669 0.950 . S
C1640 H1622 0.951 . S
C1640 C1641 1.366 . S
C1640 C1642 1.388 . S
C1641 C1640 1.366 . S
C1641 C1645 1.385 . S
C1642 H1623 0.951 . S
C1642 C1640 1.388 . S
C1642 C1643 1.366 . S
C1643 C1642 1.366 . S
C1643 C1644 1.414 . S
C1643 C1646 1.499 . S
C1644 H1624 0.950 . S
C1644 C1643 1.414 . S
C1644 C1645 1.374 . S
C1645 H1625 0.950 . S
C1645 C1641 1.385 . S
C1645 C1644 1.374 . S
C1646 C1643 1.499 . S
C1646 C1647 1.373 . S
C1646 C1648 1.389 . S
C1647 H1626 0.950 . S
C1647 C1646 1.373 . S
C1647 C1663 1.377 . S
C1648 C1646 1.389 . S
C1648 C1649 1.524 . S
C1648 C1662 1.377 . S
C1649 C1648 1.524 . S
C1649 C1650 1.397 . S
C1649 C1654 1.363 . S
C1650 H1627 0.950 . S
C1650 C1649 1.397 . S
C1650 C1651 1.334 . S
C1651 H1628 0.950 . S
C1651 C1650 1.334 . S
C1651 C1652 1.287 . S
C1652 C1651 1.287 . S
C1652 C1653 1.524 . S
C1652 H1671 0.913 . S
C1653 H1629 0.950 . S
C1653 C1652 1.524 . S
C1653 C1654 1.415 . S
C1654 H1630 0.950 . S
C1654 C1649 1.363 . S
C1654 C1653 1.415 . S
C1655 H1631 0.951 . S
C1655 C1656 1.366 . S
C1655 C1657 1.388 . S
C1656 C1655 1.366 . S
C1656 C1660 1.385 . S
C1657 H1632 0.951 . S
C1657 C1655 1.388 . S
C1657 C1658 1.366 . S
C1658 C1657 1.366 . S
C1658 C1659 1.414 . S
C1658 C1661 1.499 . S
C1659 H1633 0.950 . S
C1659 C1658 1.414 . S
C1659 C1660 1.374 . S
C1660 H1634 0.950 . S
C1660 C1656 1.385 . S
C1660 C1659 1.374 . S
C1661 C1658 1.499 . S
C1661 C1662 1.373 . S
C1661 C1663 1.389 . S
C1662 H1635 0.950 . S
C1662 C1648 1.377 . S
C1662 C1661 1.373 . S
C1663 C1647 1.377 . S
C1663 C1661 1.389 . S
C1663 C1664 1.524 . S
C1664 C1663 1.524 . S
C1664 C1665 1.397 . S
C1664 C1669 1.363 . S
C1665 H1636 0.950 . S
C1665 C1664 1.397 . S
C1665 C1666 1.334 . S
C1666 H1637 0.950 . S
C1666 C1665 1.334 . S
C1666 C1667 1.287 . S
C1667 C1666 1.287 . S
C1667 C1668 1.524 . S
C1667 H1670 0.999 . S
C1668 H1638 0.950 . S
C1668 C1667 1.524 . S
C1668 C1669 1.415 . S
C1669 H1639 0.950 . S
C1669 C1664 1.363 . S
C1669 C1668 1.415 . S
H1670 C1667 0.999 . S
H1671 C1652 0.913 . S
H1672 C1690 0.951 . S
H1673 C1692 0.951 . S
H1674 C1694 0.950 . S
H1675 C1695 0.950 . S
H1676 C1697 0.950 . S
H1677 C1700 0.950 . S
H1678 C1701 0.950 . S
H1679 C1703 0.950 . S
H1680 C1704 0.950 . S
H1681 C1705 0.951 . S
H1682 C1707 0.951 . S
H1683 C1709 0.950 . S
H1684 C1710 0.950 . S
H1685 C1712 0.950 . S
H1686 C1715 0.950 . S
H1687 C1716 0.950 . S
H1688 C1718 0.950 . S
H1689 C1719 0.950 . S
C1690 H1672 0.951 . S
C1690 C1691 1.366 . S
C1690 C1692 1.388 . S
C1691 C1690 1.366 . S
C1691 C1695 1.385 . S
C1692 H1673 0.951 . S
C1692 C1690 1.388 . S
C1692 C1693 1.366 . S
C1693 C1692 1.366 . S
C1693 C1694 1.414 . S
C1693 C1696 1.499 . S
C1694 H1674 0.950 . S
C1694 C1693 1.414 . S
C1694 C1695 1.374 . S
C1695 H1675 0.950 . S
C1695 C1691 1.385 . S
C1695 C1694 1.374 . S
C1696 C1693 1.499 . S
C1696 C1697 1.373 . S
C1696 C1698 1.389 . S
C1697 H1676 0.950 . S
C1697 C1696 1.373 . S
C1697 C1713 1.377 . S
C1698 C1696 1.389 . S
C1698 C1699 1.524 . S
C1698 C1712 1.377 . S
C1699 C1698 1.524 . S
C1699 C1700 1.397 . S
C1699 C1704 1.363 . S
C1700 H1677 0.950 . S
C1700 C1699 1.397 . S
C1700 C1701 1.334 . S
C1701 H1678 0.950 . S
C1701 C1700 1.334 . S
C1701 C1702 1.287 . S
C1702 C1701 1.287 . S
C1702 C1703 1.524 . S
C1702 H1721 0.913 . S
C1703 H1679 0.950 . S
C1703 C1702 1.524 . S
C1703 C1704 1.415 . S
C1704 H1680 0.950 . S
C1704 C1699 1.363 . S
C1704 C1703 1.415 . S
C1705 H1681 0.951 . S
C1705 C1706 1.366 . S
C1705 C1707 1.388 . S
C1706 C1705 1.366 . S
C1706 C1710 1.385 . S
C1707 H1682 0.951 . S
C1707 C1705 1.388 . S
C1707 C1708 1.366 . S
C1708 C1707 1.366 . S
C1708 C1709 1.414 . S
C1708 C1711 1.499 . S
C1709 H1683 0.950 . S
C1709 C1708 1.414 . S
C1709 C1710 1.374 . S
C1710 H1684 0.950 . S
C1710 C1706 1.385 . S
C1710 C1709 1.374 . S
C1711 C1708 1.499 . S
C1711 C1712 1.373 . S
C1711 C1713 1.389 . S
C1712 H1685 0.950 . S
C1712 C1698 1.377 . S
C1712 C1711 1.373 . S
C1713 C1697 1.377 . S
C1713 C1711 1.389 . S
C1713 C1714 1.524 . S
C1714 C1713 1.524 . S
C1714 C1715 1.397 . S
C1714 C1719 1.363 . S
C1715 H1686 0.950 . S
C1715 C1714 1.397 . S
C1715 C1716 1.334 . S
C1716 H1687 0.950 . S
C1716 C1715 1.334 . S
C1716 C1717 1.287 . S
C1717 C1716 1.287 . S
C1717 C1718 1.524 . S
C1717 H1720 0.999 . S
C1718 H1688 0.950 . S
C1718 C1717 1.524 . S
C1718 C1719 1.415 . S
C1719 H1689 0.950 . S
C1719 C1714 1.363 . S
C1719 C1718 1.415 . S
H1720 C1717 0.999 . S
H1721 C1702 0.913 . S
H1722 C1740 0.951 . S
H1723 C1742 0.951 . S
H1724 C1744 0.950 . S
H1725 C1745 0.950 . S
H1726 C1747 0.950 . S
H1727 C1750 0.950 . S
H1728 C1751 0.950 . S
H1729 C1753 0.950 . S
H1730 C1754 0.950 . S
H1731 C1755 0.951 . S
H1732 C1757 0.951 . S
H1733 C1759 0.950 . S
H1734 C1760 0.950 . S
H1735 C1762 0.950 . S
H1736 C1765 0.950 . S
H1737 C1766 0.950 . S
H1738 C1768 0.950 . S
H1739 C1769 0.950 . S
C1740 H1722 0.951 . S
C1740 C1741 1.366 . S
C1740 C1742 1.388 . S
C1741 C1740 1.366 . S
C1741 C1745 1.385 . S
C1742 H1723 0.951 . S
C1742 C1740 1.388 . S
C1742 C1743 1.366 . S
C1743 C1742 1.366 . S
C1743 C1744 1.414 . S
C1743 C1746 1.499 . S
C1744 H1724 0.950 . S
C1744 C1743 1.414 . S
C1744 C1745 1.374 . S
C1745 H1725 0.950 . S
C1745 C1741 1.385 . S
C1745 C1744 1.374 . S
C1746 C1743 1.499 . S
C1746 C1747 1.373 . S
C1746 C1748 1.389 . S
C1747 H1726 0.950 . S
C1747 C1746 1.373 . S
C1747 C1763 1.377 . S
C1748 C1746 1.389 . S
C1748 C1749 1.524 . S
C1748 C1762 1.377 . S
C1749 C1748 1.524 . S
C1749 C1750 1.397 . S
C1749 C1754 1.363 . S
C1750 H1727 0.950 . S
C1750 C1749 1.397 . S
C1750 C1751 1.334 . S
C1751 H1728 0.950 . S
C1751 C1750 1.334 . S
C1751 C1752 1.287 . S
C1752 C1751 1.287 . S
C1752 C1753 1.524 . S
C1752 H1771 0.913 . S
C1753 H1729 0.950 . S
C1753 C1752 1.524 . S
C1753 C1754 1.415 . S
C1754 H1730 0.950 . S
C1754 C1749 1.363 . S
C1754 C1753 1.415 . S
C1755 H1731 0.951 . S
C1755 C1756 1.366 . S
C1755 C1757 1.388 . S
C1756 C1755 1.366 . S
C1756 C1760 1.385 . S
C1757 H1732 0.951 . S
C1757 C1755 1.388 . S
C1757 C1758 1.366 . S
C1758 C1757 1.366 . S
C1758 C1759 1.414 . S
C1758 C1761 1.499 . S
C1759 H1733 0.950 . S
C1759 C1758 1.414 . S
C1759 C1760 1.374 . S
C1760 H1734 0.950 . S
C1760 C1756 1.385 . S
C1760 C1759 1.374 . S
C1761 C1758 1.499 . S
C1761 C1762 1.373 . S
C1761 C1763 1.389 . S
C1762 H1735 0.950 . S
C1762 C1748 1.377 . S
C1762 C1761 1.373 . S
C1763 C1747 1.377 . S
C1763 C1761 1.389 . S
C1763 C1764 1.524 . S
C1764 C1763 1.524 . S
C1764 C1765 1.397 . S
C1764 C1769 1.363 . S
C1765 H1736 0.950 . S
C1765 C1764 1.397 . S
C1765 C1766 1.334 . S
C1766 H1737 0.950 . S
C1766 C1765 1.334 . S
C1766 C1767 1.287 . S
C1767 C1766 1.287 . S
C1767 C1768 1.524 . S
C1767 H1770 0.999 . S
C1768 H1738 0.950 . S
C1768 C1767 1.524 . S
C1768 C1769 1.415 . S
C1769 H1739 0.950 . S
C1769 C1764 1.363 . S
C1769 C1768 1.415 . S
H1770 C1767 0.999 . S
H1771 C1752 0.913 . S
H1772 C1790 0.951 . S
H1773 C1792 0.951 . S
H1774 C1794 0.950 . S
H1775 C1795 0.950 . S
H1776 C1797 0.950 . S
H1777 C1800 0.950 . S
H1778 C1801 0.950 . S
H1779 C1803 0.950 . S
H1780 C1804 0.950 . S
H1781 C1805 0.951 . S
H1782 C1807 0.951 . S
H1783 C1809 0.950 . S
H1784 C1810 0.950 . S
H1785 C1812 0.950 . S
H1786 C1815 0.950 . S
H1787 C1816 0.950 . S
H1788 C1818 0.950 . S
H1789 C1819 0.950 . S
C1790 H1772 0.951 . S
C1790 C1791 1.366 . S
C1790 C1792 1.388 . S
C1791 C1790 1.366 . S
C1791 C1795 1.385 . S
C1792 H1773 0.951 . S
C1792 C1790 1.388 . S
C1792 C1793 1.366 . S
C1793 C1792 1.366 . S
C1793 C1794 1.414 . S
C1793 C1796 1.499 . S
C1794 H1774 0.950 . S
C1794 C1793 1.414 . S
C1794 C1795 1.374 . S
C1795 H1775 0.950 . S
C1795 C1791 1.385 . S
C1795 C1794 1.374 . S
C1796 C1793 1.499 . S
C1796 C1797 1.373 . S
C1796 C1798 1.389 . S
C1797 H1776 0.950 . S
C1797 C1796 1.373 . S
C1797 C1813 1.377 . S
C1798 C1796 1.389 . S
C1798 C1799 1.524 . S
C1798 C1812 1.377 . S
C1799 C1798 1.524 . S
C1799 C1800 1.397 . S
C1799 C1804 1.363 . S
C1800 H1777 0.950 . S
C1800 C1799 1.397 . S
C1800 C1801 1.334 . S
C1801 H1778 0.950 . S
C1801 C1800 1.334 . S
C1801 C1802 1.287 . S
C1802 C1801 1.287 . S
C1802 C1803 1.524 . S
C1802 H1821 0.913 . S
C1803 H1779 0.950 . S
C1803 C1802 1.524 . S
C1803 C1804 1.415 . S
C1804 H1780 0.950 . S
C1804 C1799 1.363 . S
C1804 C1803 1.415 . S
C1805 H1781 0.951 . S
C1805 C1806 1.366 . S
C1805 C1807 1.388 . S
C1806 C1805 1.366 . S
C1806 C1810 1.385 . S
C1807 H1782 0.951 . S
C1807 C1805 1.388 . S
C1807 C1808 1.366 . S
C1808 C1807 1.366 . S
C1808 C1809 1.414 . S
C1808 C1811 1.499 . S
C1809 H1783 0.950 . S
C1809 C1808 1.414 . S
C1809 C1810 1.374 . S
C1810 H1784 0.950 . S
C1810 C1806 1.385 . S
C1810 C1809 1.374 . S
C1811 C1808 1.499 . S
C1811 C1812 1.373 . S
C1811 C1813 1.389 . S
C1812 H1785 0.950 . S
C1812 C1798 1.377 . S
C1812 C1811 1.373 . S
C1813 C1797 1.377 . S
C1813 C1811 1.389 . S
C1813 C1814 1.524 . S
C1814 C1813 1.524 . S
C1814 C1815 1.397 . S
C1814 C1819 1.363 . S
C1815 H1786 0.950 . S
C1815 C1814 1.397 . S
C1815 C1816 1.334 . S
C1816 H1787 0.950 . S
C1816 C1815 1.334 . S
C1816 C1817 1.287 . S
C1817 C1816 1.287 . S
C1817 C1818 1.524 . S
C1817 H1820 0.999 . S
C1818 H1788 0.950 . S
C1818 C1817 1.524 . S
C1818 C1819 1.415 . S
C1819 H1789 0.950 . S
C1819 C1814 1.363 . S
C1819 C1818 1.415 . S
H1820 C1817 0.999 . S
H1821 C1802 0.913 . S
H1822 C1840 0.951 . S
H1823 C1842 0.951 . S
H1824 C1844 0.950 . S
H1825 C1845 0.950 . S
H1826 C1847 0.950 . S
H1827 C1850 0.950 . S
H1828 C1851 0.950 . S
H1829 C1853 0.950 . S
H1830 C1854 0.950 . S
H1831 C1855 0.951 . S
H1832 C1857 0.951 . S
H1833 C1859 0.950 . S
H1834 C1860 0.950 . S
H1835 C1862 0.950 . S
H1836 C1865 0.950 . S
H1837 C1866 0.950 . S
H1838 C1868 0.950 . S
H1839 C1869 0.950 . S
C1840 H1822 0.951 . S
C1840 C1841 1.366 . S
C1840 C1842 1.388 . S
C1841 C1840 1.366 . S
C1841 C1845 1.385 . S
C1842 H1823 0.951 . S
C1842 C1840 1.388 . S
C1842 C1843 1.366 . S
C1843 C1842 1.366 . S
C1843 C1844 1.414 . S
C1843 C1846 1.499 . S
C1844 H1824 0.950 . S
C1844 C1843 1.414 . S
C1844 C1845 1.374 . S
C1845 H1825 0.950 . S
C1845 C1841 1.385 . S
C1845 C1844 1.374 . S
C1846 C1843 1.499 . S
C1846 C1847 1.373 . S
C1846 C1848 1.389 . S
C1847 H1826 0.950 . S
C1847 C1846 1.373 . S
C1847 C1863 1.377 . S
C1848 C1846 1.389 . S
C1848 C1849 1.524 . S
C1848 C1862 1.377 . S
C1849 C1848 1.524 . S
C1849 C1850 1.397 . S
C1849 C1854 1.363 . S
C1850 H1827 0.950 . S
C1850 C1849 1.397 . S
C1850 C1851 1.334 . S
C1851 H1828 0.950 . S
C1851 C1850 1.334 . S
C1851 C1852 1.287 . S
C1852 C1851 1.287 . S
C1852 C1853 1.524 . S
C1852 H1871 0.913 . S
C1853 H1829 0.950 . S
C1853 C1852 1.524 . S
C1853 C1854 1.415 . S
C1854 H1830 0.950 . S
C1854 C1849 1.363 . S
C1854 C1853 1.415 . S
C1855 H1831 0.951 . S
C1855 C1856 1.366 . S
C1855 C1857 1.388 . S
C1856 C1855 1.366 . S
C1856 C1860 1.385 . S
C1857 H1832 0.951 . S
C1857 C1855 1.388 . S
C1857 C1858 1.366 . S
C1858 C1857 1.366 . S
C1858 C1859 1.414 . S
C1858 C1861 1.499 . S
C1859 H1833 0.950 . S
C1859 C1858 1.414 . S
C1859 C1860 1.374 . S
C1860 H1834 0.950 . S
C1860 C1856 1.385 . S
C1860 C1859 1.374 . S
C1861 C1858 1.499 . S
C1861 C1862 1.373 . S
C1861 C1863 1.389 . S
C1862 H1835 0.950 . S
C1862 C1848 1.377 . S
C1862 C1861 1.373 . S
C1863 C1847 1.377 . S
C1863 C1861 1.389 . S
C1863 C1864 1.524 . S
C1864 C1863 1.524 . S
C1864 C1865 1.397 . S
C1864 C1869 1.363 . S
C1865 H1836 0.950 . S
C1865 C1864 1.397 . S
C1865 C1866 1.334 . S
C1866 H1837 0.950 . S
C1866 C1865 1.334 . S
C1866 C1867 1.287 . S
C1867 C1866 1.287 . S
C1867 C1868 1.524 . S
C1867 H1870 0.999 . S
C1868 H1838 0.950 . S
C1868 C1867 1.524 . S
C1868 C1869 1.415 . S
C1869 H1839 0.950 . S
C1869 C1864 1.363 . S
C1869 C1868 1.415 . S
H1870 C1867 0.999 . S
H1871 C1852 0.913 . S
H1872 C1890 0.951 . S
H1873 C1892 0.951 . S
H1874 C1894 0.950 . S
H1875 C1895 0.950 . S
H1876 C1897 0.950 . S
H1877 C1900 0.950 . S
H1878 C1901 0.950 . S
H1879 C1903 0.950 . S
H1880 C1904 0.950 . S
H1881 C1905 0.951 . S
H1882 C1907 0.951 . S
H1883 C1909 0.950 . S
H1884 C1910 0.950 . S
H1885 C1912 0.950 . S
H1886 C1915 0.950 . S
H1887 C1916 0.950 . S
H1888 C1918 0.950 . S
H1889 C1919 0.950 . S
C1890 H1872 0.951 . S
C1890 C1891 1.366 . S
C1890 C1892 1.388 . S
C1891 C1890 1.366 . S
C1891 C1895 1.385 . S
C1892 H1873 0.951 . S
C1892 C1890 1.388 . S
C1892 C1893 1.366 . S
C1893 C1892 1.366 . S
C1893 C1894 1.414 . S
C1893 C1896 1.499 . S
C1894 H1874 0.950 . S
C1894 C1893 1.414 . S
C1894 C1895 1.374 . S
C1895 H1875 0.950 . S
C1895 C1891 1.385 . S
C1895 C1894 1.374 . S
C1896 C1893 1.499 . S
C1896 C1897 1.373 . S
C1896 C1898 1.389 . S
C1897 H1876 0.950 . S
C1897 C1896 1.373 . S
C1897 C1913 1.377 . S
C1898 C1896 1.389 . S
C1898 C1899 1.524 . S
C1898 C1912 1.377 . S
C1899 C1898 1.524 . S
C1899 C1900 1.397 . S
C1899 C1904 1.363 . S
C1900 H1877 0.950 . S
C1900 C1899 1.397 . S
C1900 C1901 1.334 . S
C1901 H1878 0.950 . S
C1901 C1900 1.334 . S
C1901 C1902 1.287 . S
C1902 C1901 1.287 . S
C1902 C1903 1.524 . S
C1902 H1921 0.913 . S
C1903 H1879 0.950 . S
C1903 C1902 1.524 . S
C1903 C1904 1.415 . S
C1904 H1880 0.950 . S
C1904 C1899 1.363 . S
C1904 C1903 1.415 . S
C1905 H1881 0.951 . S
C1905 C1906 1.366 . S
C1905 C1907 1.388 . S
C1906 C1905 1.366 . S
C1906 C1910 1.385 . S
C1907 H1882 0.951 . S
C1907 C1905 1.388 . S
C1907 C1908 1.366 . S
C1908 C1907 1.366 . S
C1908 C1909 1.414 . S
C1908 C1911 1.499 . S
C1909 H1883 0.950 . S
C1909 C1908 1.414 . S
C1909 C1910 1.374 . S
C1910 H1884 0.950 . S
C1910 C1906 1.385 . S
C1910 C1909 1.374 . S
C1911 C1908 1.499 . S
C1911 C1912 1.373 . S
C1911 C1913 1.389 . S
C1912 H1885 0.950 . S
C1912 C1898 1.377 . S
C1912 C1911 1.373 . S
C1913 C1897 1.377 . S
C1913 C1911 1.389 . S
C1913 C1914 1.524 . S
C1914 C1913 1.524 . S
C1914 C1915 1.397 . S
C1914 C1919 1.363 . S
C1915 H1886 0.950 . S
C1915 C1914 1.397 . S
C1915 C1916 1.334 . S
C1916 H1887 0.950 . S
C1916 C1915 1.334 . S
C1916 C1917 1.287 . S
C1917 C1916 1.287 . S
C1917 C1918 1.524 . S
C1917 H1920 0.999 . S
C1918 H1888 0.950 . S
C1918 C1917 1.524 . S
C1918 C1919 1.415 . S
C1919 H1889 0.950 . S
C1919 C1914 1.363 . S
C1919 C1918 1.415 . S
H1920 C1917 0.999 . S
H1921 C1902 0.913 . S
H1922 C1940 0.951 . S
H1923 C1942 0.951 . S
H1924 C1944 0.950 . S
H1925 C1945 0.950 . S
H1926 C1947 0.950 . S
H1927 C1950 0.950 . S
H1928 C1951 0.950 . S
H1929 C1953 0.950 . S
H1930 C1954 0.950 . S
H1931 C1955 0.951 . S
H1932 C1957 0.951 . S
H1933 C1959 0.950 . S
H1934 C1960 0.950 . S
H1935 C1962 0.950 . S
H1936 C1965 0.950 . S
H1937 C1966 0.950 . S
H1938 C1968 0.950 . S
H1939 C1969 0.950 . S
C1940 H1922 0.951 . S
C1940 C1941 1.366 . S
C1940 C1942 1.388 . S
C1941 C1940 1.366 . S
C1941 C1945 1.385 . S
C1942 H1923 0.951 . S
C1942 C1940 1.388 . S
C1942 C1943 1.366 . S
C1943 C1942 1.366 . S
C1943 C1944 1.414 . S
C1943 C1946 1.499 . S
C1944 H1924 0.950 . S
C1944 C1943 1.414 . S
C1944 C1945 1.374 . S
C1945 H1925 0.950 . S
C1945 C1941 1.385 . S
C1945 C1944 1.374 . S
C1946 C1943 1.499 . S
C1946 C1947 1.373 . S
C1946 C1948 1.389 . S
C1947 H1926 0.950 . S
C1947 C1946 1.373 . S
C1947 C1963 1.377 . S
C1948 C1946 1.389 . S
C1948 C1949 1.524 . S
C1948 C1962 1.377 . S
C1949 C1948 1.524 . S
C1949 C1950 1.397 . S
C1949 C1954 1.363 . S
C1950 H1927 0.950 . S
C1950 C1949 1.397 . S
C1950 C1951 1.334 . S
C1951 H1928 0.950 . S
C1951 C1950 1.334 . S
C1951 C1952 1.287 . S
C1952 C1951 1.287 . S
C1952 C1953 1.524 . S
C1952 H1971 0.913 . S
C1953 H1929 0.950 . S
C1953 C1952 1.524 . S
C1953 C1954 1.415 . S
C1954 H1930 0.950 . S
C1954 C1949 1.363 . S
C1954 C1953 1.415 . S
C1955 H1931 0.951 . S
C1955 C1956 1.366 . S
C1955 C1957 1.388 . S
C1956 C1955 1.366 . S
C1956 C1960 1.385 . S
C1957 H1932 0.951 . S
C1957 C1955 1.388 . S
C1957 C1958 1.366 . S
C1958 C1957 1.366 . S
C1958 C1959 1.414 . S
C1958 C1961 1.499 . S
C1959 H1933 0.950 . S
C1959 C1958 1.414 . S
C1959 C1960 1.374 . S
C1960 H1934 0.950 . S
C1960 C1956 1.385 . S
C1960 C1959 1.374 . S
C1961 C1958 1.499 . S
C1961 C1962 1.373 . S
C1961 C1963 1.389 . S
C1962 H1935 0.950 . S
C1962 C1948 1.377 . S
C1962 C1961 1.373 . S
C1963 C1947 1.377 . S
C1963 C1961 1.389 . S
C1963 C1964 1.524 . S
C1964 C1963 1.524 . S
C1964 C1965 1.397 . S
C1964 C1969 1.363 . S
C1965 H1936 0.950 . S
C1965 C1964 1.397 . S
C1965 C1966 1.334 . S
C1966 H1937 0.950 . S
C1966 C1965 1.334 . S
C1966 C1967 1.287 . S
C1967 C1966 1.287 . S
C1967 C1968 1.524 . S
C1967 H1970 0.999 . S
C1968 H1938 0.950 . S
C1968 C1967 1.524 . S
C1968 C1969 1.415 . S
C1969 H1939 0.950 . S
C1969 C1964 1.363 . S
C1969 C1968 1.415 . S
H1970 C1967 0.999 . S
H1971 C1952 0.913 . S
H1972 C1990 0.951 . S
H1973 C1992 0.951 . S
H1974 C1994 0.950 . S
H1975 C1995 0.950 . S
H1976 C1997 0.950 . S
H1977 C2000 0.950 . S
H1978 C2001 0.950 . S
H1979 C2003 0.950 . S
H1980 C2004 0.950 . S
H1981 C2005 0.951 . S
H1982 C2007 0.951 . S
H1983 C2009 0.950 . S
H1984 C2010 0.950 . S
H1985 C2012 0.950 . S
H1986 C2015 0.950 . S
H1987 C2016 0.950 . S
H1988 C2018 0.950 . S
H1989 C2019 0.950 . S
C1990 H1972 0.951 . S
C1990 C1991 1.366 . S
C1990 C1992 1.388 . S
C1991 C1990 1.366 . S
C1991 C1995 1.385 . S
C1992 H1973 0.951 . S
C1992 C1990 1.388 . S
C1992 C1993 1.366 . S
C1993 C1992 1.366 . S
C1993 C1994 1.414 . S
C1993 C1996 1.499 . S
C1994 H1974 0.950 . S
C1994 C1993 1.414 . S
C1994 C1995 1.374 . S
C1995 H1975 0.950 . S
C1995 C1991 1.385 . S
C1995 C1994 1.374 . S
C1996 C1993 1.499 . S
C1996 C1997 1.373 . S
C1996 C1998 1.389 . S
C1997 H1976 0.950 . S
C1997 C1996 1.373 . S
C1997 C2013 1.377 . S
C1998 C1996 1.389 . S
C1998 C1999 1.524 . S
C1998 C2012 1.377 . S
C1999 C1998 1.524 . S
C1999 C2000 1.397 . S
C1999 C2004 1.363 . S
C2000 H1977 0.950 . S
C2000 C1999 1.397 . S
C2000 C2001 1.334 . S
C2001 H1978 0.950 . S
C2001 C2000 1.334 . S
C2001 C2002 1.287 . S
C2002 C2001 1.287 . S
C2002 C2003 1.524 . S
C2002 H2021 0.913 . S
C2003 H1979 0.950 . S
C2003 C2002 1.524 . S
C2003 C2004 1.415 . S
C2004 H1980 0.950 . S
C2004 C1999 1.363 . S
C2004 C2003 1.415 . S
C2005 H1981 0.951 . S
C2005 C2006 1.366 . S
C2005 C2007 1.388 . S
C2006 C2005 1.366 . S
C2006 C2010 1.385 . S
C2007 H1982 0.951 . S
C2007 C2005 1.388 . S
C2007 C2008 1.366 . S
C2008 C2007 1.366 . S
C2008 C2009 1.414 . S
C2008 C2011 1.499 . S
C2009 H1983 0.950 . S
C2009 C2008 1.414 . S
C2009 C2010 1.374 . S
C2010 H1984 0.950 . S
C2010 C2006 1.385 . S
C2010 C2009 1.374 . S
C2011 C2008 1.499 . S
C2011 C2012 1.373 . S
C2011 C2013 1.389 . S
C2012 H1985 0.950 . S
C2012 C1998 1.377 . S
C2012 C2011 1.373 . S
C2013 C1997 1.377 . S
C2013 C2011 1.389 . S
C2013 C2014 1.524 . S
C2014 C2013 1.524 . S
C2014 C2015 1.397 . S
C2014 C2019 1.363 . S
C2015 H1986 0.950 . S
C2015 C2014 1.397 . S
C2015 C2016 1.334 . S
C2016 H1987 0.950 . S
C2016 C2015 1.334 . S
C2016 C2017 1.287 . S
C2017 C2016 1.287 . S
C2017 C2018 1.524 . S
C2017 H2020 0.999 . S
C2018 H1988 0.950 . S
C2018 C2017 1.524 . S
C2018 C2019 1.415 . S
C2019 H1989 0.950 . S
C2019 C2014 1.363 . S
C2019 C2018 1.415 . S
H2020 C2017 0.999 . S
H2021 C2002 0.913 . S
H2022 C2040 0.951 . S
H2023 C2042 0.951 . S
H2024 C2044 0.950 . S
H2025 C2045 0.950 . S
H2026 C2047 0.950 . S
H2027 C2050 0.950 . S
H2028 C2051 0.950 . S
H2029 C2053 0.950 . S
H2030 C2054 0.950 . S
H2031 C2055 0.951 . S
H2032 C2057 0.951 . S
H2033 C2059 0.950 . S
H2034 C2060 0.950 . S
H2035 C2062 0.950 . S
H2036 C2065 0.950 . S
H2037 C2066 0.950 . S
H2038 C2068 0.950 . S
H2039 C2069 0.950 . S
C2040 H2022 0.951 . S
C2040 C2041 1.366 . S
C2040 C2042 1.388 . S
C2041 C2040 1.366 . S
C2041 C2045 1.385 . S
C2042 H2023 0.951 . S
C2042 C2040 1.388 . S
C2042 C2043 1.366 . S
C2043 C2042 1.366 . S
C2043 C2044 1.414 . S
C2043 C2046 1.499 . S
C2044 H2024 0.950 . S
C2044 C2043 1.414 . S
C2044 C2045 1.374 . S
C2045 H2025 0.950 . S
C2045 C2041 1.385 . S
C2045 C2044 1.374 . S
C2046 C2043 1.499 . S
C2046 C2047 1.373 . S
C2046 C2048 1.389 . S
C2047 H2026 0.950 . S
C2047 C2046 1.373 . S
C2047 C2063 1.377 . S
C2048 C2046 1.389 . S
C2048 C2049 1.524 . S
C2048 C2062 1.377 . S
C2049 C2048 1.524 . S
C2049 C2050 1.397 . S
C2049 C2054 1.363 . S
C2050 H2027 0.950 . S
C2050 C2049 1.397 . S
C2050 C2051 1.334 . S
C2051 H2028 0.950 . S
C2051 C2050 1.334 . S
C2051 C2052 1.287 . S
C2052 C2051 1.287 . S
C2052 C2053 1.524 . S
C2052 H2071 0.913 . S
C2053 H2029 0.950 . S
C2053 C2052 1.524 . S
C2053 C2054 1.415 . S
C2054 H2030 0.950 . S
C2054 C2049 1.363 . S
C2054 C2053 1.415 . S
C2055 H2031 0.951 . S
C2055 C2056 1.366 . S
C2055 C2057 1.388 . S
C2056 C2055 1.366 . S
C2056 C2060 1.385 . S
C2057 H2032 0.951 . S
C2057 C2055 1.388 . S
C2057 C2058 1.366 . S
C2058 C2057 1.366 . S
C2058 C2059 1.414 . S
C2058 C2061 1.499 . S
C2059 H2033 0.950 . S
C2059 C2058 1.414 . S
C2059 C2060 1.374 . S
C2060 H2034 0.950 . S
C2060 C2056 1.385 . S
C2060 C2059 1.374 . S
C2061 C2058 1.499 . S
C2061 C2062 1.373 . S
C2061 C2063 1.389 . S
C2062 H2035 0.950 . S
C2062 C2048 1.377 . S
C2062 C2061 1.373 . S
C2063 C2047 1.377 . S
C2063 C2061 1.389 . S
C2063 C2064 1.524 . S
C2064 C2063 1.524 . S
C2064 C2065 1.397 . S
C2064 C2069 1.363 . S
C2065 H2036 0.950 . S
C2065 C2064 1.397 . S
C2065 C2066 1.334 . S
C2066 H2037 0.950 . S
C2066 C2065 1.334 . S
C2066 C2067 1.287 . S
C2067 C2066 1.287 . S
C2067 C2068 1.524 . S
C2067 H2070 0.999 . S
C2068 H2038 0.950 . S
C2068 C2067 1.524 . S
C2068 C2069 1.415 . S
C2069 H2039 0.950 . S
C2069 C2064 1.363 . S
C2069 C2068 1.415 . S
H2070 C2067 0.999 . S
H2071 C2052 0.913 . S
H2072 C2090 0.951 . S
H2073 C2092 0.951 . S
H2074 C2094 0.950 . S
H2075 C2095 0.950 . S
H2076 C2097 0.950 . S
H2077 C2100 0.950 . S
H2078 C2101 0.950 . S
H2079 C2103 0.950 . S
H2080 C2104 0.950 . S
H2081 C2105 0.951 . S
H2082 C2107 0.951 . S
H2083 C2109 0.950 . S
H2084 C2110 0.950 . S
H2085 C2112 0.950 . S
H2086 C2115 0.950 . S
H2087 C2116 0.950 . S
H2088 C2118 0.950 . S
H2089 C2119 0.950 . S
C2090 H2072 0.951 . S
C2090 C2091 1.366 . S
C2090 C2092 1.388 . S
C2091 C2090 1.366 . S
C2091 C2095 1.385 . S
C2092 H2073 0.951 . S
C2092 C2090 1.388 . S
C2092 C2093 1.366 . S
C2093 C2092 1.366 . S
C2093 C2094 1.414 . S
C2093 C2096 1.499 . S
C2094 H2074 0.950 . S
C2094 C2093 1.414 . S
C2094 C2095 1.374 . S
C2095 H2075 0.950 . S
C2095 C2091 1.385 . S
C2095 C2094 1.374 . S
C2096 C2093 1.499 . S
C2096 C2097 1.373 . S
C2096 C2098 1.389 . S
C2097 H2076 0.950 . S
C2097 C2096 1.373 . S
C2097 C2113 1.377 . S
C2098 C2096 1.389 . S
C2098 C2099 1.524 . S
C2098 C2112 1.377 . S
C2099 C2098 1.524 . S
C2099 C2100 1.397 . S
C2099 C2104 1.363 . S
C2100 H2077 0.950 . S
C2100 C2099 1.397 . S
C2100 C2101 1.334 . S
C2101 H2078 0.950 . S
C2101 C2100 1.334 . S
C2101 C2102 1.287 . S
C2102 C2101 1.287 . S
C2102 C2103 1.524 . S
C2102 H2121 0.913 . S
C2103 H2079 0.950 . S
C2103 C2102 1.524 . S
C2103 C2104 1.415 . S
C2104 H2080 0.950 . S
C2104 C2099 1.363 . S
C2104 C2103 1.415 . S
C2105 H2081 0.951 . S
C2105 C2106 1.366 . S
C2105 C2107 1.388 . S
C2106 C2105 1.366 . S
C2106 C2110 1.385 . S
C2107 H2082 0.951 . S
C2107 C2105 1.388 . S
C2107 C2108 1.366 . S
C2108 C2107 1.366 . S
C2108 C2109 1.414 . S
C2108 C2111 1.499 . S
C2109 H2083 0.950 . S
C2109 C2108 1.414 . S
C2109 C2110 1.374 . S
C2110 H2084 0.950 . S
C2110 C2106 1.385 . S
C2110 C2109 1.374 . S
C2111 C2108 1.499 . S
C2111 C2112 1.373 . S
C2111 C2113 1.389 . S
C2112 H2085 0.950 . S
C2112 C2098 1.377 . S
C2112 C2111 1.373 . S
C2113 C2097 1.377 . S
C2113 C2111 1.389 . S
C2113 C2114 1.524 . S
C2114 C2113 1.524 . S
C2114 C2115 1.397 . S
C2114 C2119 1.363 . S
C2115 H2086 0.950 . S
C2115 C2114 1.397 . S
C2115 C2116 1.334 . S
C2116 H2087 0.950 . S
C2116 C2115 1.334 . S
C2116 C2117 1.287 . S
C2117 C2116 1.287 . S
C2117 C2118 1.524 . S
C2117 H2120 0.999 . S
C2118 H2088 0.950 . S
C2118 C2117 1.524 . S
C2118 C2119 1.415 . S
C2119 H2089 0.950 . S
C2119 C2114 1.363 . S
C2119 C2118 1.415 . S
H2120 C2117 0.999 . S
H2121 C2102 0.913 . S
H2122 C2140 0.951 . S
H2123 C2142 0.951 . S
H2124 C2144 0.950 . S
H2125 C2145 0.950 . S
H2126 C2147 0.950 . S
H2127 C2150 0.950 . S
H2128 C2151 0.950 . S
H2129 C2153 0.950 . S
H2130 C2154 0.950 . S
H2131 C2155 0.951 . S
H2132 C2157 0.951 . S
H2133 C2159 0.950 . S
H2134 C2160 0.950 . S
H2135 C2162 0.950 . S
H2136 C2165 0.950 . S
H2137 C2166 0.950 . S
H2138 C2168 0.950 . S
H2139 C2169 0.950 . S
C2140 H2122 0.951 . S
C2140 C2141 1.366 . S
C2140 C2142 1.388 . S
C2141 C2140 1.366 . S
C2141 C2145 1.385 . S
C2142 H2123 0.951 . S
C2142 C2140 1.388 . S
C2142 C2143 1.366 . S
C2143 C2142 1.366 . S
C2143 C2144 1.414 . S
C2143 C2146 1.499 . S
C2144 H2124 0.950 . S
C2144 C2143 1.414 . S
C2144 C2145 1.374 . S
C2145 H2125 0.950 . S
C2145 C2141 1.385 . S
C2145 C2144 1.374 . S
C2146 C2143 1.499 . S
C2146 C2147 1.373 . S
C2146 C2148 1.389 . S
C2147 H2126 0.950 . S
C2147 C2146 1.373 . S
C2147 C2163 1.377 . S
C2148 C2146 1.389 . S
C2148 C2149 1.524 . S
C2148 C2162 1.377 . S
C2149 C2148 1.524 . S
C2149 C2150 1.397 . S
C2149 C2154 1.363 . S
C2150 H2127 0.950 . S
C2150 C2149 1.397 . S
C2150 C2151 1.334 . S
C2151 H2128 0.950 . S
C2151 C2150 1.334 . S
C2151 C2152 1.287 . S
C2152 C2151 1.287 . S
C2152 C2153 1.524 . S
C2152 H2171 0.913 . S
C2153 H2129 0.950 . S
C2153 C2152 1.524 . S
C2153 C2154 1.415 . S
C2154 H2130 0.950 . S
C2154 C2149 1.363 . S
C2154 C2153 1.415 . S
C2155 H2131 0.951 . S
C2155 C2156 1.366 . S
C2155 C2157 1.388 . S
C2156 C2155 1.366 . S
C2156 C2160 1.385 . S
C2157 H2132 0.951 . S
C2157 C2155 1.388 . S
C2157 C2158 1.366 . S
C2158 C2157 1.366 . S
C2158 C2159 1.414 . S
C2158 C2161 1.499 . S
C2159 H2133 0.950 . S
C2159 C2158 1.414 . S
C2159 C2160 1.374 . S
C2160 H2134 0.950 . S
C2160 C2156 1.385 . S
C2160 C2159 1.374 . S
C2161 C2158 1.499 . S
C2161 C2162 1.373 . S
C2161 C2163 1.389 . S
C2162 H2135 0.950 . S
C2162 C2148 1.377 . S
C2162 C2161 1.373 . S
C2163 C2147 1.377 . S
C2163 C2161 1.389 . S
C2163 C2164 1.524 . S
C2164 C2163 1.524 . S
C2164 C2165 1.397 . S
C2164 C2169 1.363 . S
C2165 H2136 0.950 . S
C2165 C2164 1.397 . S
C2165 C2166 1.334 . S
C2166 H2137 0.950 . S
C2166 C2165 1.334 . S
C2166 C2167 1.287 . S
C2167 C2166 1.287 . S
C2167 C2168 1.524 . S
C2167 H2170 0.999 . S
C2168 H2138 0.950 . S
C2168 C2167 1.524 . S
C2168 C2169 1.415 . S
C2169 H2139 0.950 . S
C2169 C2164 1.363 . S
C2169 C2168 1.415 . S
H2170 C2167 0.999 . S
H2171 C2152 0.913 . S
H2172 C2190 0.951 . S
H2173 C2192 0.951 . S
H2174 C2194 0.950 . S
H2175 C2195 0.950 . S
H2176 C2197 0.950 . S
H2177 C2200 0.950 . S
H2178 C2201 0.950 . S
H2179 C2203 0.950 . S
H2180 C2204 0.950 . S
H2181 C2205 0.951 . S
H2182 C2207 0.951 . S
H2183 C2209 0.950 . S
H2184 C2210 0.950 . S
H2185 C2212 0.950 . S
H2186 C2215 0.950 . S
H2187 C2216 0.950 . S
H2188 C2218 0.950 . S
H2189 C2219 0.950 . S
C2190 H2172 0.951 . S
C2190 C2191 1.366 . S
C2190 C2192 1.388 . S
C2191 C2190 1.366 . S
C2191 C2195 1.385 . S
C2192 H2173 0.951 . S
C2192 C2190 1.388 . S
C2192 C2193 1.366 . S
C2193 C2192 1.366 . S
C2193 C2194 1.414 . S
C2193 C2196 1.499 . S
C2194 H2174 0.950 . S
C2194 C2193 1.414 . S
C2194 C2195 1.374 . S
C2195 H2175 0.950 . S
C2195 C2191 1.385 . S
C2195 C2194 1.374 . S
C2196 C2193 1.499 . S
C2196 C2197 1.373 . S
C2196 C2198 1.389 . S
C2197 H2176 0.950 . S
C2197 C2196 1.373 . S
C2197 C2213 1.377 . S
C2198 C2196 1.389 . S
C2198 C2199 1.524 . S
C2198 C2212 1.377 . S
C2199 C2198 1.524 . S
C2199 C2200 1.397 . S
C2199 C2204 1.363 . S
C2200 H2177 0.950 . S
C2200 C2199 1.397 . S
C2200 C2201 1.334 . S
C2201 H2178 0.950 . S
C2201 C2200 1.334 . S
C2201 C2202 1.287 . S
C2202 C2201 1.287 . S
C2202 C2203 1.524 . S
C2202 H2221 0.913 . S
C2203 H2179 0.950 . S
C2203 C2202 1.524 . S
C2203 C2204 1.415 . S
C2204 H2180 0.950 . S
C2204 C2199 1.363 . S
C2204 C2203 1.415 . S
C2205 H2181 0.951 . S
C2205 C2206 1.366 . S
C2205 C2207 1.388 . S
C2206 C2205 1.366 . S
C2206 C2210 1.385 . S
C2207 H2182 0.951 . S
C2207 C2205 1.388 . S
C2207 C2208 1.366 . S
C2208 C2207 1.366 . S
C2208 C2209 1.414 . S
C2208 C2211 1.499 . S
C2209 H2183 0.950 . S
C2209 C2208 1.414 . S
C2209 C2210 1.374 . S
C2210 H2184 0.950 . S
C2210 C2206 1.385 . S
C2210 C2209 1.374 . S
C2211 C2208 1.499 . S
C2211 C2212 1.373 . S
C2211 C2213 1.389 . S
C2212 H2185 0.950 . S
C2212 C2198 1.377 . S
C2212 C2211 1.373 . S
C2213 C2197 1.377 . S
C2213 C2211 1.389 . S
C2213 C2214 1.524 . S
C2214 C2213 1.524 . S
C2214 C2215 1.397 . S
C2214 C2219 1.363 . S
C2215 H2186 0.950 . S
C2215 C2214 1.397 . S
C2215 C2216 1.334 . S
C2216 H2187 0.950 . S
C2216 C2215 1.334 . S
C2216 C2217 1.287 . S
C2217 C2216 1.287 . S
C2217 C2218 1.524 . S
C2217 H2220 0.999 . S
C2218 H2188 0.950 . S
C2218 C2217 1.524 . S
C2218 C2219 1.415 . S
C2219 H2189 0.950 . S
C2219 C2214 1.363 . S
C2219 C2218 1.415 . S
H2220 C2217 0.999 . S
H2221 C2202 0.913 . S
H2222 C2240 0.951 . S
H2223 C2242 0.951 . S
H2224 C2244 0.950 . S
H2225 C2245 0.950 . S
H2226 C2247 0.950 . S
H2227 C2250 0.950 . S
H2228 C2251 0.950 . S
H2229 C2253 0.950 . S
H2230 C2254 0.950 . S
H2231 C2255 0.951 . S
H2232 C2257 0.951 . S
H2233 C2259 0.950 . S
H2234 C2260 0.950 . S
H2235 C2262 0.950 . S
H2236 C2265 0.950 . S
H2237 C2266 0.950 . S
H2238 C2268 0.950 . S
H2239 C2269 0.950 . S
C2240 H2222 0.951 . S
C2240 C2241 1.366 . S
C2240 C2242 1.388 . S
C2241 C2240 1.366 . S
C2241 C2245 1.385 . S
C2242 H2223 0.951 . S
C2242 C2240 1.388 . S
C2242 C2243 1.366 . S
C2243 C2242 1.366 . S
C2243 C2244 1.414 . S
C2243 C2246 1.499 . S
C2244 H2224 0.950 . S
C2244 C2243 1.414 . S
C2244 C2245 1.374 . S
C2245 H2225 0.950 . S
C2245 C2241 1.385 . S
C2245 C2244 1.374 . S
C2246 C2243 1.499 . S
C2246 C2247 1.373 . S
C2246 C2248 1.389 . S
C2247 H2226 0.950 . S
C2247 C2246 1.373 . S
C2247 C2263 1.377 . S
C2248 C2246 1.389 . S
C2248 C2249 1.524 . S
C2248 C2262 1.377 . S
C2249 C2248 1.524 . S
C2249 C2250 1.397 . S
C2249 C2254 1.363 . S
C2250 H2227 0.950 . S
C2250 C2249 1.397 . S
C2250 C2251 1.334 . S
C2251 H2228 0.950 . S
C2251 C2250 1.334 . S
C2251 C2252 1.287 . S
C2252 C2251 1.287 . S
C2252 C2253 1.524 . S
C2252 H2271 0.913 . S
C2253 H2229 0.950 . S
C2253 C2252 1.524 . S
C2253 C2254 1.415 . S
C2254 H2230 0.950 . S
C2254 C2249 1.363 . S
C2254 C2253 1.415 . S
C2255 H2231 0.951 . S
C2255 C2256 1.366 . S
C2255 C2257 1.388 . S
C2256 C2255 1.366 . S
C2256 C2260 1.385 . S
C2257 H2232 0.951 . S
C2257 C2255 1.388 . S
C2257 C2258 1.366 . S
C2258 C2257 1.366 . S
C2258 C2259 1.414 . S
C2258 C2261 1.499 . S
C2259 H2233 0.950 . S
C2259 C2258 1.414 . S
C2259 C2260 1.374 . S
C2260 H2234 0.950 . S
C2260 C2256 1.385 . S
C2260 C2259 1.374 . S
C2261 C2258 1.499 . S
C2261 C2262 1.373 . S
C2261 C2263 1.389 . S
C2262 H2235 0.950 . S
C2262 C2248 1.377 . S
C2262 C2261 1.373 . S
C2263 C2247 1.377 . S
C2263 C2261 1.389 . S
C2263 C2264 1.524 . S
C2264 C2263 1.524 . S
C2264 C2265 1.397 . S
C2264 C2269 1.363 . S
C2265 H2236 0.950 . S
C2265 C2264 1.397 . S
C2265 C2266 1.334 . S
C2266 H2237 0.950 . S
C2266 C2265 1.334 . S
C2266 C2267 1.287 . S
C2267 C2266 1.287 . S
C2267 C2268 1.524 . S
C2267 H2270 0.999 . S
C2268 H2238 0.950 . S
C2268 C2267 1.524 . S
C2268 C2269 1.415 . S
C2269 H2239 0.950 . S
C2269 C2264 1.363 . S
C2269 C2268 1.415 . S
H2270 C2267 0.999 . S
H2271 C2252 0.913 . S
H2272 C2290 0.951 . S
H2273 C2292 0.951 . S
H2274 C2294 0.950 . S
H2275 C2295 0.950 . S
H2276 C2297 0.950 . S
H2277 C2300 0.950 . S
H2278 C2301 0.950 . S
H2279 C2303 0.950 . S
H2280 C2304 0.950 . S
H2281 C2305 0.951 . S
H2282 C2307 0.951 . S
H2283 C2309 0.950 . S
H2284 C2310 0.950 . S
H2285 C2312 0.950 . S
H2286 C2315 0.950 . S
H2287 C2316 0.950 . S
H2288 C2318 0.950 . S
H2289 C2319 0.950 . S
C2290 H2272 0.951 . S
C2290 C2291 1.366 . S
C2290 C2292 1.388 . S
C2291 C2290 1.366 . S
C2291 C2295 1.385 . S
C2292 H2273 0.951 . S
C2292 C2290 1.388 . S
C2292 C2293 1.366 . S
C2293 C2292 1.366 . S
C2293 C2294 1.414 . S
C2293 C2296 1.499 . S
C2294 H2274 0.950 . S
C2294 C2293 1.414 . S
C2294 C2295 1.374 . S
C2295 H2275 0.950 . S
C2295 C2291 1.385 . S
C2295 C2294 1.374 . S
C2296 C2293 1.499 . S
C2296 C2297 1.373 . S
C2296 C2298 1.389 . S
C2297 H2276 0.950 . S
C2297 C2296 1.373 . S
C2297 C2313 1.377 . S
C2298 C2296 1.389 . S
C2298 C2299 1.524 . S
C2298 C2312 1.377 . S
C2299 C2298 1.524 . S
C2299 C2300 1.397 . S
C2299 C2304 1.363 . S
C2300 H2277 0.950 . S
C2300 C2299 1.397 . S
C2300 C2301 1.334 . S
C2301 H2278 0.950 . S
C2301 C2300 1.334 . S
C2301 C2302 1.287 . S
C2302 C2301 1.287 . S
C2302 C2303 1.524 . S
C2302 H2321 0.913 . S
C2303 H2279 0.950 . S
C2303 C2302 1.524 . S
C2303 C2304 1.415 . S
C2304 H2280 0.950 . S
C2304 C2299 1.363 . S
C2304 C2303 1.415 . S
C2305 H2281 0.951 . S
C2305 C2306 1.366 . S
C2305 C2307 1.388 . S
C2306 C2305 1.366 . S
C2306 C2310 1.385 . S
C2307 H2282 0.951 . S
C2307 C2305 1.388 . S
C2307 C2308 1.366 . S
C2308 C2307 1.366 . S
C2308 C2309 1.414 . S
C2308 C2311 1.499 . S
C2309 H2283 0.950 . S
C2309 C2308 1.414 . S
C2309 C2310 1.374 . S
C2310 H2284 0.950 . S
C2310 C2306 1.385 . S
C2310 C2309 1.374 . S
C2311 C2308 1.499 . S
C2311 C2312 1.373 . S
C2311 C2313 1.389 . S
C2312 H2285 0.950 . S
C2312 C2298 1.377 . S
C2312 C2311 1.373 . S
C2313 C2297 1.377 . S
C2313 C2311 1.389 . S
C2313 C2314 1.524 . S
C2314 C2313 1.524 . S
C2314 C2315 1.397 . S
C2314 C2319 1.363 . S
C2315 H2286 0.950 . S
C2315 C2314 1.397 . S
C2315 C2316 1.334 . S
C2316 H2287 0.950 . S
C2316 C2315 1.334 . S
C2316 C2317 1.287 . S
C2317 C2316 1.287 . S
C2317 C2318 1.524 . S
C2317 H2320 0.999 . S
C2318 H2288 0.950 . S
C2318 C2317 1.524 . S
C2318 C2319 1.415 . S
C2319 H2289 0.950 . S
C2319 C2314 1.363 . S
C2319 C2318 1.415 . S
H2320 C2317 0.999 . S
H2321 C2302 0.913 . S
H2322 C2340 0.951 . S
H2323 C2342 0.951 . S
H2324 C2344 0.950 . S
H2325 C2345 0.950 . S
H2326 C2347 0.950 . S
H2327 C2350 0.950 . S
H2328 C2351 0.950 . S
H2329 C2353 0.950 . S
H2330 C2354 0.950 . S
H2331 C2355 0.951 . S
H2332 C2357 0.951 . S
H2333 C2359 0.950 . S
H2334 C2360 0.950 . S
H2335 C2362 0.950 . S
H2336 C2365 0.950 . S
H2337 C2366 0.950 . S
H2338 C2368 0.950 . S
H2339 C2369 0.950 . S
C2340 H2322 0.951 . S
C2340 C2341 1.366 . S
C2340 C2342 1.388 . S
C2341 C2340 1.366 . S
C2341 C2345 1.385 . S
C2342 H2323 0.951 . S
C2342 C2340 1.388 . S
C2342 C2343 1.366 . S
C2343 C2342 1.366 . S
C2343 C2344 1.414 . S
C2343 C2346 1.499 . S
C2344 H2324 0.950 . S
C2344 C2343 1.414 . S
C2344 C2345 1.374 . S
C2345 H2325 0.950 . S
C2345 C2341 1.385 . S
C2345 C2344 1.374 . S
C2346 C2343 1.499 . S
C2346 C2347 1.373 . S
C2346 C2348 1.389 . S
C2347 H2326 0.950 . S
C2347 C2346 1.373 . S
C2347 C2363 1.377 . S
C2348 C2346 1.389 . S
C2348 C2349 1.524 . S
C2348 C2362 1.377 . S
C2349 C2348 1.524 . S
C2349 C2350 1.397 . S
C2349 C2354 1.363 . S
C2350 H2327 0.950 . S
C2350 C2349 1.397 . S
C2350 C2351 1.334 . S
C2351 H2328 0.950 . S
C2351 C2350 1.334 . S
C2351 C2352 1.287 . S
C2352 C2351 1.287 . S
C2352 C2353 1.524 . S
C2352 H2371 0.913 . S
C2353 H2329 0.950 . S
C2353 C2352 1.524 . S
C2353 C2354 1.415 . S
C2354 H2330 0.950 . S
C2354 C2349 1.363 . S
C2354 C2353 1.415 . S
C2355 H2331 0.951 . S
C2355 C2356 1.366 . S
C2355 C2357 1.388 . S
C2356 C2355 1.366 . S
C2356 C2360 1.385 . S
C2357 H2332 0.951 . S
C2357 C2355 1.388 . S
C2357 C2358 1.366 . S
C2358 C2357 1.366 . S
C2358 C2359 1.414 . S
C2358 C2361 1.499 . S
C2359 H2333 0.950 . S
C2359 C2358 1.414 . S
C2359 C2360 1.374 . S
C2360 H2334 0.950 . S
C2360 C2356 1.385 . S
C2360 C2359 1.374 . S
C2361 C2358 1.499 . S
C2361 C2362 1.373 . S
C2361 C2363 1.389 . S
C2362 H2335 0.950 . S
C2362 C2348 1.377 . S
C2362 C2361 1.373 . S
C2363 C2347 1.377 . S
C2363 C2361 1.389 . S
C2363 C2364 1.524 . S
C2364 C2363 1.524 . S
C2364 C2365 1.397 . S
C2364 C2369 1.363 . S
C2365 H2336 0.950 . S
C2365 C2364 1.397 . S
C2365 C2366 1.334 . S
C2366 H2337 0.950 . S
C2366 C2365 1.334 . S
C2366 C2367 1.287 . S
C2367 C2366 1.287 . S
C2367 C2368 1.524 . S
C2367 H2370 0.999 . S
C2368 H2338 0.950 . S
C2368 C2367 1.524 . S
C2368 C2369 1.415 . S
C2369 H2339 0.950 . S
C2369 C2364 1.363 . S
C2369 C2368 1.415 . S
H2370 C2367 0.999 . S
H2371 C2352 0.913 . S
H2372 C2390 0.951 . S
H2373 C2392 0.951 . S
H2374 C2394 0.950 . S
H2375 C2395 0.950 . S
H2376 C2397 0.950 . S
H2377 C2400 0.950 . S
H2378 C2401 0.950 . S
H2379 C2403 0.950 . S
H2380 C2404 0.950 . S
H2381 C2405 0.951 . S
H2382 C2407 0.951 . S
H2383 C2409 0.950 . S
H2384 C2410 0.950 . S
H2385 C2412 0.950 . S
H2386 C2415 0.950 . S
H2387 C2416 0.950 . S
H2388 C2418 0.950 . S
H2389 C2419 0.950 . S
C2390 H2372 0.951 . S
C2390 C2391 1.366 . S
C2390 C2392 1.388 . S
C2391 C2390 1.366 . S
C2391 C2395 1.385 . S
C2392 H2373 0.951 . S
C2392 C2390 1.388 . S
C2392 C2393 1.366 . S
C2393 C2392 1.366 . S
C2393 C2394 1.414 . S
C2393 C2396 1.499 . S
C2394 H2374 0.950 . S
C2394 C2393 1.414 . S
C2394 C2395 1.374 . S
C2395 H2375 0.950 . S
C2395 C2391 1.385 . S
C2395 C2394 1.374 . S
C2396 C2393 1.499 . S
C2396 C2397 1.373 . S
C2396 C2398 1.389 . S
C2397 H2376 0.950 . S
C2397 C2396 1.373 . S
C2397 C2413 1.377 . S
C2398 C2396 1.389 . S
C2398 C2399 1.524 . S
C2398 C2412 1.377 . S
C2399 C2398 1.524 . S
C2399 C2400 1.397 . S
C2399 C2404 1.363 . S
C2400 H2377 0.950 . S
C2400 C2399 1.397 . S
C2400 C2401 1.334 . S
C2401 H2378 0.950 . S
C2401 C2400 1.334 . S
C2401 C2402 1.287 . S
C2402 C2401 1.287 . S
C2402 C2403 1.524 . S
C2402 H2421 0.913 . S
C2403 H2379 0.950 . S
C2403 C2402 1.524 . S
C2403 C2404 1.415 . S
C2404 H2380 0.950 . S
C2404 C2399 1.363 . S
C2404 C2403 1.415 . S
C2405 H2381 0.951 . S
C2405 C2406 1.366 . S
C2405 C2407 1.388 . S
C2406 C2405 1.366 . S
C2406 C2410 1.385 . S
C2407 H2382 0.951 . S
C2407 C2405 1.388 . S
C2407 C2408 1.366 . S
C2408 C2407 1.366 . S
C2408 C2409 1.414 . S
C2408 C2411 1.499 . S
C2409 H2383 0.950 . S
C2409 C2408 1.414 . S
C2409 C2410 1.374 . S
C2410 H2384 0.950 . S
C2410 C2406 1.385 . S
C2410 C2409 1.374 . S
C2411 C2408 1.499 . S
C2411 C2412 1.373 . S
C2411 C2413 1.389 . S
C2412 H2385 0.950 . S
C2412 C2398 1.377 . S
C2412 C2411 1.373 . S
C2413 C2397 1.377 . S
C2413 C2411 1.389 . S
C2413 C2414 1.524 . S
C2414 C2413 1.524 . S
C2414 C2415 1.397 . S
C2414 C2419 1.363 . S
C2415 H2386 0.950 . S
C2415 C2414 1.397 . S
C2415 C2416 1.334 . S
C2416 H2387 0.950 . S
C2416 C2415 1.334 . S
C2416 C2417 1.287 . S
C2417 C2416 1.287 . S
C2417 C2418 1.524 . S
C2417 H2420 0.999 . S
C2418 H2388 0.950 . S
C2418 C2417 1.524 . S
C2418 C2419 1.415 . S
C2419 H2389 0.950 . S
C2419 C2414 1.363 . S
C2419 C2418 1.415 . S
H2420 C2417 0.999 . S
H2421 C2402 0.913 . S
H2422 C2440 0.951 . S
H2423 C2442 0.951 . S
H2424 C2444 0.950 . S
H2425 C2445 0.950 . S
H2426 C2447 0.950 . S
H2427 C2450 0.950 . S
H2428 C2451 0.950 . S
H2429 C2453 0.950 . S
H2430 C2454 0.950 . S
H2431 C2455 0.951 . S
H2432 C2457 0.951 . S
H2433 C2459 0.950 . S
H2434 C2460 0.950 . S
H2435 C2462 0.950 . S
H2436 C2465 0.950 . S
H2437 C2466 0.950 . S
H2438 C2468 0.950 . S
H2439 C2469 0.950 . S
C2440 H2422 0.951 . S
C2440 C2441 1.366 . S
C2440 C2442 1.388 . S
C2441 C2440 1.366 . S
C2441 C2445 1.385 . S
C2442 H2423 0.951 . S
C2442 C2440 1.388 . S
C2442 C2443 1.366 . S
C2443 C2442 1.366 . S
C2443 C2444 1.414 . S
C2443 C2446 1.499 . S
C2444 H2424 0.950 . S
C2444 C2443 1.414 . S
C2444 C2445 1.374 . S
C2445 H2425 0.950 . S
C2445 C2441 1.385 . S
C2445 C2444 1.374 . S
C2446 C2443 1.499 . S
C2446 C2447 1.373 . S
C2446 C2448 1.389 . S
C2447 H2426 0.950 . S
C2447 C2446 1.373 . S
C2447 C2463 1.377 . S
C2448 C2446 1.389 . S
C2448 C2449 1.524 . S
C2448 C2462 1.377 . S
C2449 C2448 1.524 . S
C2449 C2450 1.397 . S
C2449 C2454 1.363 . S
C2450 H2427 0.950 . S
C2450 C2449 1.397 . S
C2450 C2451 1.334 . S
C2451 H2428 0.950 . S
C2451 C2450 1.334 . S
C2451 C2452 1.287 . S
C2452 C2451 1.287 . S
C2452 C2453 1.524 . S
C2452 H2471 0.913 . S
C2453 H2429 0.950 . S
C2453 C2452 1.524 . S
C2453 C2454 1.415 . S
C2454 H2430 0.950 . S
C2454 C2449 1.363 . S
C2454 C2453 1.415 . S
C2455 H2431 0.951 . S
C2455 C2456 1.366 . S
C2455 C2457 1.388 . S
C2456 C2455 1.366 . S
C2456 C2460 1.385 . S
C2457 H2432 0.951 . S
C2457 C2455 1.388 . S
C2457 C2458 1.366 . S
C2458 C2457 1.366 . S
C2458 C2459 1.414 . S
C2458 C2461 1.499 . S
C2459 H2433 0.950 . S
C2459 C2458 1.414 . S
C2459 C2460 1.374 . S
C2460 H2434 0.950 . S
C2460 C2456 1.385 . S
C2460 C2459 1.374 . S
C2461 C2458 1.499 . S
C2461 C2462 1.373 . S
C2461 C2463 1.389 . S
C2462 H2435 0.950 . S
C2462 C2448 1.377 . S
C2462 C2461 1.373 . S
C2463 C2447 1.377 . S
C2463 C2461 1.389 . S
C2463 C2464 1.524 . S
C2464 C2463 1.524 . S
C2464 C2465 1.397 . S
C2464 C2469 1.363 . S
C2465 H2436 0.950 . S
C2465 C2464 1.397 . S
C2465 C2466 1.334 . S
C2466 H2437 0.950 . S
C2466 C2465 1.334 . S
C2466 C2467 1.287 . S
C2467 C2466 1.287 . S
C2467 C2468 1.524 . S
C2467 H2470 0.999 . S
C2468 H2438 0.950 . S
C2468 C2467 1.524 . S
C2468 C2469 1.415 . S
C2469 H2439 0.950 . S
C2469 C2464 1.363 . S
C2469 C2468 1.415 . S
H2470 C2467 0.999 . S
H2471 C2452 0.913 . S
H2472 C2490 0.951 . S
H2473 C2492 0.951 . S
H2474 C2494 0.950 . S
H2475 C2495 0.950 . S
H2476 C2497 0.950 . S
H2477 C2500 0.950 . S
H2478 C2501 0.950 . S
H2479 C2503 0.950 . S
H2480 C2504 0.950 . S
H2481 C2505 0.951 . S
H2482 C2507 0.951 . S
H2483 C2509 0.950 . S
H2484 C2510 0.950 . S
H2485 C2512 0.950 . S
H2486 C2515 0.950 . S
H2487 C2516 0.950 . S
H2488 C2518 0.950 . S
H2489 C2519 0.950 . S
C2490 H2472 0.951 . S
C2490 C2491 1.366 . S
C2490 C2492 1.388 . S
C2491 C2490 1.366 . S
C2491 C2495 1.385 . S
C2492 H2473 0.951 . S
C2492 C2490 1.388 . S
C2492 C2493 1.366 . S
C2493 C2492 1.366 . S
C2493 C2494 1.414 . S
C2493 C2496 1.499 . S
C2494 H2474 0.950 . S
C2494 C2493 1.414 . S
C2494 C2495 1.374 . S
C2495 H2475 0.950 . S
C2495 C2491 1.385 . S
C2495 C2494 1.374 . S
C2496 C2493 1.499 . S
C2496 C2497 1.373 . S
C2496 C2498 1.389 . S
C2497 H2476 0.950 . S
C2497 C2496 1.373 . S
C2497 C2513 1.377 . S
C2498 C2496 1.389 . S
C2498 C2499 1.524 . S
C2498 C2512 1.377 . S
C2499 C2498 1.524 . S
C2499 C2500 1.397 . S
C2499 C2504 1.363 . S
C2500 H2477 0.950 . S
C2500 C2499 1.397 . S
C2500 C2501 1.334 . S
C2501 H2478 0.950 . S
C2501 C2500 1.334 . S
C2501 C2502 1.287 . S
C2502 C2501 1.287 . S
C2502 C2503 1.524 . S
C2502 H2521 0.913 . S
C2503 H2479 0.950 . S
C2503 C2502 1.524 . S
C2503 C2504 1.415 . S
C2504 H2480 0.950 . S
C2504 C2499 1.363 . S
C2504 C2503 1.415 . S
C2505 H2481 0.951 . S
C2505 C2506 1.366 . S
C2505 C2507 1.388 . S
C2506 C2505 1.366 . S
C2506 C2510 1.385 . S
C2507 H2482 0.951 . S
C2507 C2505 1.388 . S
C2507 C2508 1.366 . S
C2508 C2507 1.366 . S
C2508 C2509 1.414 . S
C2508 C2511 1.499 . S
C2509 H2483 0.950 . S
C2509 C2508 1.414 . S
C2509 C2510 1.374 . S
C2510 H2484 0.950 . S
C2510 C2506 1.385 . S
C2510 C2509 1.374 . S
C2511 C2508 1.499 . S
C2511 C2512 1.373 . S
C2511 C2513 1.389 . S
C2512 H2485 0.950 . S
C2512 C2498 1.377 . S
C2512 C2511 1.373 . S
C2513 C2497 1.377 . S
C2513 C2511 1.389 . S
C2513 C2514 1.524 . S
C2514 C2513 1.524 . S
C2514 C2515 1.397 . S
C2514 C2519 1.363 . S
C2515 H2486 0.950 . S
C2515 C2514 1.397 . S
C2515 C2516 1.334 . S
C2516 H2487 0.950 . S
C2516 C2515 1.334 . S
C2516 C2517 1.287 . S
C2517 C2516 1.287 . S
C2517 C2518 1.524 . S
C2517 H2520 0.999 . S
C2518 H2488 0.950 . S
C2518 C2517 1.524 . S
C2518 C2519 1.415 . S
C2519 H2489 0.950 . S
C2519 C2514 1.363 . S
C2519 C2518 1.415 . S
H2520 C2517 0.999 . S
H2521 C2502 0.913 . S
H2522 C2540 0.951 . S
H2523 C2542 0.951 . S
H2524 C2544 0.950 . S
H2525 C2545 0.950 . S
H2526 C2547 0.950 . S
H2527 C2550 0.950 . S
H2528 C2551 0.950 . S
H2529 C2553 0.950 . S
H2530 C2554 0.950 . S
H2531 C2555 0.951 . S
H2532 C2557 0.951 . S
H2533 C2559 0.950 . S
H2534 C2560 0.950 . S
H2535 C2562 0.950 . S
H2536 C2565 0.950 . S
H2537 C2566 0.950 . S
H2538 C2568 0.950 . S
H2539 C2569 0.950 . S
C2540 H2522 0.951 . S
C2540 C2541 1.366 . S
C2540 C2542 1.388 . S
C2541 C2540 1.366 . S
C2541 C2545 1.385 . S
C2542 H2523 0.951 . S
C2542 C2540 1.388 . S
C2542 C2543 1.366 . S
C2543 C2542 1.366 . S
C2543 C2544 1.414 . S
C2543 C2546 1.499 . S
C2544 H2524 0.950 . S
C2544 C2543 1.414 . S
C2544 C2545 1.374 . S
C2545 H2525 0.950 . S
C2545 C2541 1.385 . S
C2545 C2544 1.374 . S
C2546 C2543 1.499 . S
C2546 C2547 1.373 . S
C2546 C2548 1.389 . S
C2547 H2526 0.950 . S
C2547 C2546 1.373 . S
C2547 C2563 1.377 . S
C2548 C2546 1.389 . S
C2548 C2549 1.524 . S
C2548 C2562 1.377 . S
C2549 C2548 1.524 . S
C2549 C2550 1.397 . S
C2549 C2554 1.363 . S
C2550 H2527 0.950 . S
C2550 C2549 1.397 . S
C2550 C2551 1.334 . S
C2551 H2528 0.950 . S
C2551 C2550 1.334 . S
C2551 C2552 1.287 . S
C2552 C2551 1.287 . S
C2552 C2553 1.524 . S
C2552 H2571 0.913 . S
C2553 H2529 0.950 . S
C2553 C2552 1.524 . S
C2553 C2554 1.415 . S
C2554 H2530 0.950 . S
C2554 C2549 1.363 . S
C2554 C2553 1.415 . S
C2555 H2531 0.951 . S
C2555 C2556 1.366 . S
C2555 C2557 1.388 . S
C2556 C2555 1.366 . S
C2556 C2560 1.385 . S
C2557 H2532 0.951 . S
C2557 C2555 1.388 . S
C2557 C2558 1.366 . S
C2558 C2557 1.366 . S
C2558 C2559 1.414 . S
C2558 C2561 1.499 . S
C2559 H2533 0.950 . S
C2559 C2558 1.414 . S
C2559 C2560 1.374 . S
C2560 H2534 0.950 . S
C2560 C2556 1.385 . S
C2560 C2559 1.374 . S
C2561 C2558 1.499 . S
C2561 C2562 1.373 . S
C2561 C2563 1.389 . S
C2562 H2535 0.950 . S
C2562 C2548 1.377 . S
C2562 C2561 1.373 . S
C2563 C2547 1.377 . S
C2563 C2561 1.389 . S
C2563 C2564 1.524 . S
C2564 C2563 1.524 . S
C2564 C2565 1.397 . S
C2564 C2569 1.363 . S
C2565 H2536 0.950 . S
C2565 C2564 1.397 . S
C2565 C2566 1.334 . S
C2566 H2537 0.950 . S
C2566 C2565 1.334 . S
C2566 C2567 1.287 . S
C2567 C2566 1.287 . S
C2567 C2568 1.524 . S
C2567 H2570 0.999 . S
C2568 H2538 0.950 . S
C2568 C2567 1.524 . S
C2568 C2569 1.415 . S
C2569 H2539 0.950 . S
C2569 C2564 1.363 . S
C2569 C2568 1.415 . S
H2570 C2567 0.999 . S
H2571 C2552 0.913 . S
H2572 C2590 0.951 . S
H2573 C2592 0.951 . S
H2574 C2594 0.950 . S
H2575 C2595 0.950 . S
H2576 C2597 0.950 . S
H2577 C2600 0.950 . S
H2578 C2601 0.950 . S
H2579 C2603 0.950 . S
H2580 C2604 0.950 . S
H2581 C2605 0.951 . S
H2582 C2607 0.951 . S
H2583 C2609 0.950 . S
H2584 C2610 0.950 . S
H2585 C2612 0.950 . S
H2586 C2615 0.950 . S
H2587 C2616 0.950 . S
H2588 C2618 0.950 . S
H2589 C2619 0.950 . S
C2590 H2572 0.951 . S
C2590 C2591 1.366 . S
C2590 C2592 1.388 . S
C2591 C2590 1.366 . S
C2591 C2595 1.385 . S
C2592 H2573 0.951 . S
C2592 C2590 1.388 . S
C2592 C2593 1.366 . S
C2593 C2592 1.366 . S
C2593 C2594 1.414 . S
C2593 C2596 1.499 . S
C2594 H2574 0.950 . S
C2594 C2593 1.414 . S
C2594 C2595 1.374 . S
C2595 H2575 0.950 . S
C2595 C2591 1.385 . S
C2595 C2594 1.374 . S
C2596 C2593 1.499 . S
C2596 C2597 1.373 . S
C2596 C2598 1.389 . S
C2597 H2576 0.950 . S
C2597 C2596 1.373 . S
C2597 C2613 1.377 . S
C2598 C2596 1.389 . S
C2598 C2599 1.524 . S
C2598 C2612 1.377 . S
C2599 C2598 1.524 . S
C2599 C2600 1.397 . S
C2599 C2604 1.363 . S
C2600 H2577 0.950 . S
C2600 C2599 1.397 . S
C2600 C2601 1.334 . S
C2601 H2578 0.950 . S
C2601 C2600 1.334 . S
C2601 C2602 1.287 . S
C2602 C2601 1.287 . S
C2602 C2603 1.524 . S
C2602 H2621 0.913 . S
C2603 H2579 0.950 . S
C2603 C2602 1.524 . S
C2603 C2604 1.415 . S
C2604 H2580 0.950 . S
C2604 C2599 1.363 . S
C2604 C2603 1.415 . S
C2605 H2581 0.951 . S
C2605 C2606 1.366 . S
C2605 C2607 1.388 . S
C2606 C2605 1.366 . S
C2606 C2610 1.385 . S
C2607 H2582 0.951 . S
C2607 C2605 1.388 . S
C2607 C2608 1.366 . S
C2608 C2607 1.366 . S
C2608 C2609 1.414 . S
C2608 C2611 1.499 . S
C2609 H2583 0.950 . S
C2609 C2608 1.414 . S
C2609 C2610 1.374 . S
C2610 H2584 0.950 . S
C2610 C2606 1.385 . S
C2610 C2609 1.374 . S
C2611 C2608 1.499 . S
C2611 C2612 1.373 . S
C2611 C2613 1.389 . S
C2612 H2585 0.950 . S
C2612 C2598 1.377 . S
C2612 C2611 1.373 . S
C2613 C2597 1.377 . S
C2613 C2611 1.389 . S
C2613 C2614 1.524 . S
C2614 C2613 1.524 . S
C2614 C2615 1.397 . S
C2614 C2619 1.363 . S
C2615 H2586 0.950 . S
C2615 C2614 1.397 . S
C2615 C2616 1.334 . S
C2616 H2587 0.950 . S
C2616 C2615 1.334 . S
C2616 C2617 1.287 . S
C2617 C2616 1.287 . S
C2617 C2618 1.524 . S
C2617 H2620 0.999 . S
C2618 H2588 0.950 . S
C2618 C2617 1.524 . S
C2618 C2619 1.415 . S
C2619 H2589 0.950 . S
C2619 C2614 1.363 . S
C2619 C2618 1.415 . S
H2620 C2617 0.999 . S
H2621 C2602 0.913 . S
H2622 C2640 0.951 . S
H2623 C2642 0.951 . S
H2624 C2644 0.950 . S
H2625 C2645 0.950 . S
H2626 C2647 0.950 . S
H2627 C2650 0.950 . S
H2628 C2651 0.950 . S
H2629 C2653 0.950 . S
H2630 C2654 0.950 . S
H2631 C2655 0.951 . S
H2632 C2657 0.951 . S
H2633 C2659 0.950 . S
H2634 C2660 0.950 . S
H2635 C2662 0.950 . S
H2636 C2665 0.950 . S
H2637 C2666 0.950 . S
H2638 C2668 0.950 . S
H2639 C2669 0.950 . S
C2640 H2622 0.951 . S
C2640 C2641 1.366 . S
C2640 C2642 1.388 . S
C2641 C2640 1.366 . S
C2641 C2645 1.385 . S
C2642 H2623 0.951 . S
C2642 C2640 1.388 . S
C2642 C2643 1.366 . S
C2643 C2642 1.366 . S
C2643 C2644 1.414 . S
C2643 C2646 1.499 . S
C2644 H2624 0.950 . S
C2644 C2643 1.414 . S
C2644 C2645 1.374 . S
C2645 H2625 0.950 . S
C2645 C2641 1.385 . S
C2645 C2644 1.374 . S
C2646 C2643 1.499 . S
C2646 C2647 1.373 . S
C2646 C2648 1.389 . S
C2647 H2626 0.950 . S
C2647 C2646 1.373 . S
C2647 C2663 1.377 . S
C2648 C2646 1.389 . S
C2648 C2649 1.524 . S
C2648 C2662 1.377 . S
C2649 C2648 1.524 . S
C2649 C2650 1.397 . S
C2649 C2654 1.363 . S
C2650 H2627 0.950 . S
C2650 C2649 1.397 . S
C2650 C2651 1.334 . S
C2651 H2628 0.950 . S
C2651 C2650 1.334 . S
C2651 C2652 1.287 . S
C2652 C2651 1.287 . S
C2652 C2653 1.524 . S
C2652 H2671 0.913 . S
C2653 H2629 0.950 . S
C2653 C2652 1.524 . S
C2653 C2654 1.415 . S
C2654 H2630 0.950 . S
C2654 C2649 1.363 . S
C2654 C2653 1.415 . S
C2655 H2631 0.951 . S
C2655 C2656 1.366 . S
C2655 C2657 1.388 . S
C2656 C2655 1.366 . S
C2656 C2660 1.385 . S
C2657 H2632 0.951 . S
C2657 C2655 1.388 . S
C2657 C2658 1.366 . S
C2658 C2657 1.366 . S
C2658 C2659 1.414 . S
C2658 C2661 1.499 . S
C2659 H2633 0.950 . S
C2659 C2658 1.414 . S
C2659 C2660 1.374 . S
C2660 H2634 0.950 . S
C2660 C2656 1.385 . S
C2660 C2659 1.374 . S
C2661 C2658 1.499 . S
C2661 C2662 1.373 . S
C2661 C2663 1.389 . S
C2662 H2635 0.950 . S
C2662 C2648 1.377 . S
C2662 C2661 1.373 . S
C2663 C2647 1.377 . S
C2663 C2661 1.389 . S
C2663 C2664 1.524 . S
C2664 C2663 1.524 . S
C2664 C2665 1.397 . S
C2664 C2669 1.363 . S
C2665 H2636 0.950 . S
C2665 C2664 1.397 . S
C2665 C2666 1.334 . S
C2666 H2637 0.950 . S
C2666 C2665 1.334 . S
C2666 C2667 1.287 . S
C2667 C2666 1.287 . S
C2667 C2668 1.524 . S
C2667 H2670 0.999 . S
C2668 H2638 0.950 . S
C2668 C2667 1.524 . S
C2668 C2669 1.415 . S
C2669 H2639 0.950 . S
C2669 C2664 1.363 . S
C2669 C2668 1.415 . S
H2670 C2667 0.999 . S
H2671 C2652 0.913 . S
H2672 C2690 0.951 . S
H2673 C2692 0.951 . S
H2674 C2694 0.950 . S
H2675 C2695 0.950 . S
H2676 C2697 0.950 . S
H2677 C2700 0.950 . S
H2678 C2701 0.950 . S
H2679 C2703 0.950 . S
H2680 C2704 0.950 . S
H2681 C2705 0.951 . S
H2682 C2707 0.951 . S
H2683 C2709 0.950 . S
H2684 C2710 0.950 . S
H2685 C2712 0.950 . S
H2686 C2715 0.950 . S
H2687 C2716 0.950 . S
H2688 C2718 0.950 . S
H2689 C2719 0.950 . S
C2690 H2672 0.951 . S
C2690 C2691 1.366 . S
C2690 C2692 1.388 . S
C2691 C2690 1.366 . S
C2691 C2695 1.385 . S
C2692 H2673 0.951 . S
C2692 C2690 1.388 . S
C2692 C2693 1.366 . S
C2693 C2692 1.366 . S
C2693 C2694 1.414 . S
C2693 C2696 1.499 . S
C2694 H2674 0.950 . S
C2694 C2693 1.414 . S
C2694 C2695 1.374 . S
C2695 H2675 0.950 . S
C2695 C2691 1.385 . S
C2695 C2694 1.374 . S
C2696 C2693 1.499 . S
C2696 C2697 1.373 . S
C2696 C2698 1.389 . S
C2697 H2676 0.950 . S
C2697 C2696 1.373 . S
C2697 C2713 1.377 . S
C2698 C2696 1.389 . S
C2698 C2699 1.524 . S
C2698 C2712 1.377 . S
C2699 C2698 1.524 . S
C2699 C2700 1.397 . S
C2699 C2704 1.363 . S
C2700 H2677 0.950 . S
C2700 C2699 1.397 . S
C2700 C2701 1.334 . S
C2701 H2678 0.950 . S
C2701 C2700 1.334 . S
C2701 C2702 1.287 . S
C2702 C2701 1.287 . S
C2702 C2703 1.524 . S
C2702 H2721 0.913 . S
C2703 H2679 0.950 . S
C2703 C2702 1.524 . S
C2703 C2704 1.415 . S
C2704 H2680 0.950 . S
C2704 C2699 1.363 . S
C2704 C2703 1.415 . S
C2705 H2681 0.951 . S
C2705 C2706 1.366 . S
C2705 C2707 1.388 . S
C2706 C2705 1.366 . S
C2706 C2710 1.385 . S
C2707 H2682 0.951 . S
C2707 C2705 1.388 . S
C2707 C2708 1.366 . S
C2708 C2707 1.366 . S
C2708 C2709 1.414 . S
C2708 C2711 1.499 . S
C2709 H2683 0.950 . S
C2709 C2708 1.414 . S
C2709 C2710 1.374 . S
C2710 H2684 0.950 . S
C2710 C2706 1.385 . S
C2710 C2709 1.374 . S
C2711 C2708 1.499 . S
C2711 C2712 1.373 . S
C2711 C2713 1.389 . S
C2712 H2685 0.950 . S
C2712 C2698 1.377 . S
C2712 C2711 1.373 . S
C2713 C2697 1.377 . S
C2713 C2711 1.389 . S
C2713 C2714 1.524 . S
C2714 C2713 1.524 . S
C2714 C2715 1.397 . S
C2714 C2719 1.363 . S
C2715 H2686 0.950 . S
C2715 C2714 1.397 . S
C2715 C2716 1.334 . S
C2716 H2687 0.950 . S
C2716 C2715 1.334 . S
C2716 C2717 1.287 . S
C2717 C2716 1.287 . S
C2717 C2718 1.524 . S
C2717 H2720 0.999 . S
C2718 H2688 0.950 . S
C2718 C2717 1.524 . S
C2718 C2719 1.415 . S
C2719 H2689 0.950 . S
C2719 C2714 1.363 . S
C2719 C2718 1.415 . S
H2720 C2717 0.999 . S
H2721 C2702 0.913 . S
H2722 C2740 0.951 . S
H2723 C2742 0.951 . S
H2724 C2744 0.950 . S
H2725 C2745 0.950 . S
H2726 C2747 0.950 . S
H2727 C2750 0.950 . S
H2728 C2751 0.950 . S
H2729 C2753 0.950 . S
H2730 C2754 0.950 . S
H2731 C2755 0.951 . S
H2732 C2757 0.951 . S
H2733 C2759 0.950 . S
H2734 C2760 0.950 . S
H2735 C2762 0.950 . S
H2736 C2765 0.950 . S
H2737 C2766 0.950 . S
H2738 C2768 0.950 . S
H2739 C2769 0.950 . S
C2740 H2722 0.951 . S
C2740 C2741 1.366 . S
C2740 C2742 1.388 . S
C2741 C2740 1.366 . S
C2741 C2745 1.385 . S
C2742 H2723 0.951 . S
C2742 C2740 1.388 . S
C2742 C2743 1.366 . S
C2743 C2742 1.366 . S
C2743 C2744 1.414 . S
C2743 C2746 1.499 . S
C2744 H2724 0.950 . S
C2744 C2743 1.414 . S
C2744 C2745 1.374 . S
C2745 H2725 0.950 . S
C2745 C2741 1.385 . S
C2745 C2744 1.374 . S
C2746 C2743 1.499 . S
C2746 C2747 1.373 . S
C2746 C2748 1.389 . S
C2747 H2726 0.950 . S
C2747 C2746 1.373 . S
C2747 C2763 1.377 . S
C2748 C2746 1.389 . S
C2748 C2749 1.524 . S
C2748 C2762 1.377 . S
C2749 C2748 1.524 . S
C2749 C2750 1.397 . S
C2749 C2754 1.363 . S
C2750 H2727 0.950 . S
C2750 C2749 1.397 . S
C2750 C2751 1.334 . S
C2751 H2728 0.950 . S
C2751 C2750 1.334 . S
C2751 C2752 1.287 . S
C2752 C2751 1.287 . S
C2752 C2753 1.524 . S
C2752 H2771 0.913 . S
C2753 H2729 0.950 . S
C2753 C2752 1.524 . S
C2753 C2754 1.415 . S
C2754 H2730 0.950 . S
C2754 C2749 1.363 . S
C2754 C2753 1.415 . S
C2755 H2731 0.951 . S
C2755 C2756 1.366 . S
C2755 C2757 1.388 . S
C2756 C2755 1.366 . S
C2756 C2760 1.385 . S
C2757 H2732 0.951 . S
C2757 C2755 1.388 . S
C2757 C2758 1.366 . S
C2758 C2757 1.366 . S
C2758 C2759 1.414 . S
C2758 C2761 1.499 . S
C2759 H2733 0.950 . S
C2759 C2758 1.414 . S
C2759 C2760 1.374 . S
C2760 H2734 0.950 . S
C2760 C2756 1.385 . S
C2760 C2759 1.374 . S
C2761 C2758 1.499 . S
C2761 C2762 1.373 . S
C2761 C2763 1.389 . S
C2762 H2735 0.950 . S
C2762 C2748 1.377 . S
C2762 C2761 1.373 . S
C2763 C2747 1.377 . S
C2763 C2761 1.389 . S
C2763 C2764 1.524 . S
C2764 C2763 1.524 . S
C2764 C2765 1.397 . S
C2764 C2769 1.363 . S
C2765 H2736 0.950 . S
C2765 C2764 1.397 . S
C2765 C2766 1.334 . S
C2766 H2737 0.950 . S
C2766 C2765 1.334 . S
C2766 C2767 1.287 . S
C2767 C2766 1.287 . S
C2767 C2768 1.524 . S
C2767 H2770 0.999 . S
C2768 H2738 0.950 . S
C2768 C2767 1.524 . S
C2768 C2769 1.415 . S
C2769 H2739 0.950 . S
C2769 C2764 1.363 . S
C2769 C2768 1.415 . S
H2770 C2767 0.999 . S
H2771 C2752 0.913 . S
H2772 C2790 0.951 . S
H2773 C2792 0.951 . S
H2774 C2794 0.950 . S
H2775 C2795 0.950 . S
H2776 C2797 0.950 . S
H2777 C2800 0.950 . S
H2778 C2801 0.950 . S
H2779 C2803 0.950 . S
H2780 C2804 0.950 . S
H2781 C2805 0.951 . S
H2782 C2807 0.951 . S
H2783 C2809 0.950 . S
H2784 C2810 0.950 . S
H2785 C2812 0.950 . S
H2786 C2815 0.950 . S
H2787 C2816 0.950 . S
H2788 C2818 0.950 . S
H2789 C2819 0.950 . S
C2790 H2772 0.951 . S
C2790 C2791 1.366 . S
C2790 C2792 1.388 . S
C2791 C2790 1.366 . S
C2791 C2795 1.385 . S
C2792 H2773 0.951 . S
C2792 C2790 1.388 . S
C2792 C2793 1.366 . S
C2793 C2792 1.366 . S
C2793 C2794 1.414 . S
C2793 C2796 1.499 . S
C2794 H2774 0.950 . S
C2794 C2793 1.414 . S
C2794 C2795 1.374 . S
C2795 H2775 0.950 . S
C2795 C2791 1.385 . S
C2795 C2794 1.374 . S
C2796 C2793 1.499 . S
C2796 C2797 1.373 . S
C2796 C2798 1.389 . S
C2797 H2776 0.950 . S
C2797 C2796 1.373 . S
C2797 C2813 1.377 . S
C2798 C2796 1.389 . S
C2798 C2799 1.524 . S
C2798 C2812 1.377 . S
C2799 C2798 1.524 . S
C2799 C2800 1.397 . S
C2799 C2804 1.363 . S
C2800 H2777 0.950 . S
C2800 C2799 1.397 . S
C2800 C2801 1.334 . S
C2801 H2778 0.950 . S
C2801 C2800 1.334 . S
C2801 C2802 1.287 . S
C2802 C2801 1.287 . S
C2802 C2803 1.524 . S
C2802 H2821 0.913 . S
C2803 H2779 0.950 . S
C2803 C2802 1.524 . S
C2803 C2804 1.415 . S
C2804 H2780 0.950 . S
C2804 C2799 1.363 . S
C2804 C2803 1.415 . S
C2805 H2781 0.951 . S
C2805 C2806 1.366 . S
C2805 C2807 1.388 . S
C2806 C2805 1.366 . S
C2806 C2810 1.385 . S
C2807 H2782 0.951 . S
C2807 C2805 1.388 . S
C2807 C2808 1.366 . S
C2808 C2807 1.366 . S
C2808 C2809 1.414 . S
C2808 C2811 1.499 . S
C2809 H2783 0.950 . S
C2809 C2808 1.414 . S
C2809 C2810 1.374 . S
C2810 H2784 0.950 . S
C2810 C2806 1.385 . S
C2810 C2809 1.374 . S
C2811 C2808 1.499 . S
C2811 C2812 1.373 . S
C2811 C2813 1.389 . S
C2812 H2785 0.950 . S
C2812 C2798 1.377 . S
C2812 C2811 1.373 . S
C2813 C2797 1.377 . S
C2813 C2811 1.389 . S
C2813 C2814 1.524 . S
C2814 C2813 1.524 . S
C2814 C2815 1.397 . S
C2814 C2819 1.363 . S
C2815 H2786 0.950 . S
C2815 C2814 1.397 . S
C2815 C2816 1.334 . S
C2816 H2787 0.950 . S
C2816 C2815 1.334 . S
C2816 C2817 1.287 . S
C2817 C2816 1.287 . S
C2817 C2818 1.524 . S
C2817 H2820 0.999 . S
C2818 H2788 0.950 . S
C2818 C2817 1.524 . S
C2818 C2819 1.415 . S
C2819 H2789 0.950 . S
C2819 C2814 1.363 . S
C2819 C2818 1.415 . S
H2820 C2817 0.999 . S
H2821 C2802 0.913 . S
H2822 C2840 0.951 . S
H2823 C2842 0.951 . S
H2824 C2844 0.950 . S
H2825 C2845 0.950 . S
H2826 C2847 0.950 . S
H2827 C2850 0.950 . S
H2828 C2851 0.950 . S
H2829 C2853 0.950 . S
H2830 C2854 0.950 . S
H2831 C2855 0.951 . S
H2832 C2857 0.951 . S
H2833 C2859 0.950 . S
H2834 C2860 0.950 . S
H2835 C2862 0.950 . S
H2836 C2865 0.950 . S
H2837 C2866 0.950 . S
H2838 C2868 0.950 . S
H2839 C2869 0.950 . S
C2840 H2822 0.951 . S
C2840 C2841 1.366 . S
C2840 C2842 1.388 . S
C2841 C2840 1.366 . S
C2841 C2845 1.385 . S
C2842 H2823 0.951 . S
C2842 C2840 1.388 . S
C2842 C2843 1.366 . S
C2843 C2842 1.366 . S
C2843 C2844 1.414 . S
C2843 C2846 1.499 . S
C2844 H2824 0.950 . S
C2844 C2843 1.414 . S
C2844 C2845 1.374 . S
C2845 H2825 0.950 . S
C2845 C2841 1.385 . S
C2845 C2844 1.374 . S
C2846 C2843 1.499 . S
C2846 C2847 1.373 . S
C2846 C2848 1.389 . S
C2847 H2826 0.950 . S
C2847 C2846 1.373 . S
C2847 C2863 1.377 . S
C2848 C2846 1.389 . S
C2848 C2849 1.524 . S
C2848 C2862 1.377 . S
C2849 C2848 1.524 . S
C2849 C2850 1.397 . S
C2849 C2854 1.363 . S
C2850 H2827 0.950 . S
C2850 C2849 1.397 . S
C2850 C2851 1.334 . S
C2851 H2828 0.950 . S
C2851 C2850 1.334 . S
C2851 C2852 1.287 . S
C2852 C2851 1.287 . S
C2852 C2853 1.524 . S
C2852 H2871 0.913 . S
C2853 H2829 0.950 . S
C2853 C2852 1.524 . S
C2853 C2854 1.415 . S
C2854 H2830 0.950 . S
C2854 C2849 1.363 . S
C2854 C2853 1.415 . S
C2855 H2831 0.951 . S
C2855 C2856 1.366 . S
C2855 C2857 1.388 . S
C2856 C2855 1.366 . S
C2856 C2860 1.385 . S
C2857 H2832 0.951 . S
C2857 C2855 1.388 . S
C2857 C2858 1.366 . S
C2858 C2857 1.366 . S
C2858 C2859 1.414 . S
C2858 C2861 1.499 . S
C2859 H2833 0.950 . S
C2859 C2858 1.414 . S
C2859 C2860 1.374 . S
C2860 H2834 0.950 . S
C2860 C2856 1.385 . S
C2860 C2859 1.374 . S
C2861 C2858 1.499 . S
C2861 C2862 1.373 . S
C2861 C2863 1.389 . S
C2862 H2835 0.950 . S
C2862 C2848 1.377 . S
C2862 C2861 1.373 . S
C2863 C2847 1.377 . S
C2863 C2861 1.389 . S
C2863 C2864 1.524 . S
C2864 C2863 1.524 . S
C2864 C2865 1.397 . S
C2864 C2869 1.363 . S
C2865 H2836 0.950 . S
C2865 C2864 1.397 . S
C2865 C2866 1.334 . S
C2866 H2837 0.950 . S
C2866 C2865 1.334 . S
C2866 C2867 1.287 . S
C2867 C2866 1.287 . S
C2867 C2868 1.524 . S
C2867 H2870 0.999 . S
C2868 H2838 0.950 . S
C2868 C2867 1.524 . S
C2868 C2869 1.415 . S
C2869 H2839 0.950 . S
C2869 C2864 1.363 . S
C2869 C2868 1.415 . S
H2870 C2867 0.999 . S
H2871 C2852 0.913 . S
H2872 C2890 0.951 . S
H2873 C2892 0.951 . S
H2874 C2894 0.950 . S
H2875 C2895 0.950 . S
H2876 C2897 0.950 . S
H2877 C2900 0.950 . S
H2878 C2901 0.950 . S
H2879 C2903 0.950 . S
H2880 C2904 0.950 . S
H2881 C2905 0.951 . S
H2882 C2907 0.951 . S
H2883 C2909 0.950 . S
H2884 C2910 0.950 . S
H2885 C2912 0.950 . S
H2886 C2915 0.950 . S
H2887 C2916 0.950 . S
H2888 C2918 0.950 . S
H2889 C2919 0.950 . S
C2890 H2872 0.951 . S
C2890 C2891 1.366 . S
C2890 C2892 1.388 . S
C2891 C2890 1.366 . S
C2891 C2895 1.385 . S
C2892 H2873 0.951 . S
C2892 C2890 1.388 . S
C2892 C2893 1.366 . S
C2893 C2892 1.366 . S
C2893 C2894 1.414 . S
C2893 C2896 1.499 . S
C2894 H2874 0.950 . S
C2894 C2893 1.414 . S
C2894 C2895 1.374 . S
C2895 H2875 0.950 . S
C2895 C2891 1.385 . S
C2895 C2894 1.374 . S
C2896 C2893 1.499 . S
C2896 C2897 1.373 . S
C2896 C2898 1.389 . S
C2897 H2876 0.950 . S
C2897 C2896 1.373 . S
C2897 C2913 1.377 . S
C2898 C2896 1.389 . S
C2898 C2899 1.524 . S
C2898 C2912 1.377 . S
C2899 C2898 1.524 . S
C2899 C2900 1.397 . S
C2899 C2904 1.363 . S
C2900 H2877 0.950 . S
C2900 C2899 1.397 . S
C2900 C2901 1.334 . S
C2901 H2878 0.950 . S
C2901 C2900 1.334 . S
C2901 C2902 1.287 . S
C2902 C2901 1.287 . S
C2902 C2903 1.524 . S
C2902 H2921 0.913 . S
C2903 H2879 0.950 . S
C2903 C2902 1.524 . S
C2903 C2904 1.415 . S
C2904 H2880 0.950 . S
C2904 C2899 1.363 . S
C2904 C2903 1.415 . S
C2905 H2881 0.951 . S
C2905 C2906 1.366 . S
C2905 C2907 1.388 . S
C2906 C2905 1.366 . S
C2906 C2910 1.385 . S
C2907 H2882 0.951 . S
C2907 C2905 1.388 . S
C2907 C2908 1.366 . S
C2908 C2907 1.366 . S
C2908 C2909 1.414 . S
C2908 C2911 1.499 . S
C2909 H2883 0.950 . S
C2909 C2908 1.414 . S
C2909 C2910 1.374 . S
C2910 H2884 0.950 . S
C2910 C2906 1.385 . S
C2910 C2909 1.374 . S
C2911 C2908 1.499 . S
C2911 C2912 1.373 . S
C2911 C2913 1.389 . S
C2912 H2885 0.950 . S
C2912 C2898 1.377 . S
C2912 C2911 1.373 . S
C2913 C2897 1.377 . S
C2913 C2911 1.389 . S
C2913 C2914 1.524 . S
C2914 C2913 1.524 . S
C2914 C2915 1.397 . S
C2914 C2919 1.363 . S
C2915 H2886 0.950 . S
C2915 C2914 1.397 . S
C2915 C2916 1.334 . S
C2916 H2887 0.950 . S
C2916 C2915 1.334 . S
C2916 C2917 1.287 . S
C2917 C2916 1.287 . S
C2917 C2918 1.524 . S
C2917 H2920 0.999 . S
C2918 H2888 0.950 . S
C2918 C2917 1.524 . S
C2918 C2919 1.415 . S
C2919 H2889 0.950 . S
C2919 C2914 1.363 . S
C2919 C2918 1.415 . S
H2920 C2917 0.999 . S
H2921 C2902 0.913 . S
H2922 C2940 0.951 . S
H2923 C2942 0.951 . S
H2924 C2944 0.950 . S
H2925 C2945 0.950 . S
H2926 C2947 0.950 . S
H2927 C2950 0.950 . S
H2928 C2951 0.950 . S
H2929 C2953 0.950 . S
H2930 C2954 0.950 . S
H2931 C2955 0.951 . S
H2932 C2957 0.951 . S
H2933 C2959 0.950 . S
H2934 C2960 0.950 . S
H2935 C2962 0.950 . S
H2936 C2965 0.950 . S
H2937 C2966 0.950 . S
H2938 C2968 0.950 . S
H2939 C2969 0.950 . S
C2940 H2922 0.951 . S
C2940 C2941 1.366 . S
C2940 C2942 1.388 . S
C2941 C2940 1.366 . S
C2941 C2945 1.385 . S
C2942 H2923 0.951 . S
C2942 C2940 1.388 . S
C2942 C2943 1.366 . S
C2943 C2942 1.366 . S
C2943 C2944 1.414 . S
C2943 C2946 1.499 . S
C2944 H2924 0.950 . S
C2944 C2943 1.414 . S
C2944 C2945 1.374 . S
C2945 H2925 0.950 . S
C2945 C2941 1.385 . S
C2945 C2944 1.374 . S
C2946 C2943 1.499 . S
C2946 C2947 1.373 . S
C2946 C2948 1.389 . S
C2947 H2926 0.950 . S
C2947 C2946 1.373 . S
C2947 C2963 1.377 . S
C2948 C2946 1.389 . S
C2948 C2949 1.524 . S
C2948 C2962 1.377 . S
C2949 C2948 1.524 . S
C2949 C2950 1.397 . S
C2949 C2954 1.363 . S
C2950 H2927 0.950 . S
C2950 C2949 1.397 . S
C2950 C2951 1.334 . S
C2951 H2928 0.950 . S
C2951 C2950 1.334 . S
C2951 C2952 1.287 . S
C2952 C2951 1.287 . S
C2952 C2953 1.524 . S
C2952 H2971 0.913 . S
C2953 H2929 0.950 . S
C2953 C2952 1.524 . S
C2953 C2954 1.415 . S
C2954 H2930 0.950 . S
C2954 C2949 1.363 . S
C2954 C2953 1.415 . S
C2955 H2931 0.951 . S
C2955 C2956 1.366 . S
C2955 C2957 1.388 . S
C2956 C2955 1.366 . S
C2956 C2960 1.385 . S
C2957 H2932 0.951 . S
C2957 C2955 1.388 . S
C2957 C2958 1.366 . S
C2958 C2957 1.366 . S
C2958 C2959 1.414 . S
C2958 C2961 1.499 . S
C2959 H2933 0.950 . S
C2959 C2958 1.414 . S
C2959 C2960 1.374 . S
C2960 H2934 0.950 . S
C2960 C2956 1.385 . S
C2960 C2959 1.374 . S
C2961 C2958 1.499 . S
C2961 C2962 1.373 . S
C2961 C2963 1.389 . S
C2962 H2935 0.950 . S
C2962 C2948 1.377 . S
C2962 C2961 1.373 . S
C2963 C2947 1.377 . S
C2963 C2961 1.389 . S
C2963 C2964 1.524 . S
C2964 C2963 1.524 . S
C2964 C2965 1.397 . S
C2964 C2969 1.363 . S
C2965 H2936 0.950 . S
C2965 C2964 1.397 . S
C2965 C2966 1.334 . S
C2966 H2937 0.950 . S
C2966 C2965 1.334 . S
C2966 C2967 1.287 . S
C2967 C2966 1.287 . S
C2967 C2968 1.524 . S
C2967 H2970 0.999 . S
C2968 H2938 0.950 . S
C2968 C2967 1.524 . S
C2968 C2969 1.415 . S
C2969 H2939 0.950 . S
C2969 C2964 1.363 . S
C2969 C2968 1.415 . S
H2970 C2967 0.999 . S
H2971 C2952 0.913 . S
H2972 C2990 0.951 . S
H2973 C2992 0.951 . S
H2974 C2994 0.950 . S
H2975 C2995 0.950 . S
H2976 C2997 0.950 . S
H2977 C3000 0.950 . S
H2978 C3001 0.950 . S
H2979 C3003 0.950 . S
H2980 C3004 0.950 . S
H2981 C3005 0.951 . S
H2982 C3007 0.951 . S
H2983 C3009 0.950 . S
H2984 C3010 0.950 . S
H2985 C3012 0.950 . S
H2986 C3015 0.950 . S
H2987 C3016 0.950 . S
H2988 C3018 0.950 . S
H2989 C3019 0.950 . S
C2990 H2972 0.951 . S
C2990 C2991 1.366 . S
C2990 C2992 1.388 . S
C2991 C2990 1.366 . S
C2991 C2995 1.385 . S
C2992 H2973 0.951 . S
C2992 C2990 1.388 . S
C2992 C2993 1.366 . S
C2993 C2992 1.366 . S
C2993 C2994 1.414 . S
C2993 C2996 1.499 . S
C2994 H2974 0.950 . S
C2994 C2993 1.414 . S
C2994 C2995 1.374 . S
C2995 H2975 0.950 . S
C2995 C2991 1.385 . S
C2995 C2994 1.374 . S
C2996 C2993 1.499 . S
C2996 C2997 1.373 . S
C2996 C2998 1.389 . S
C2997 H2976 0.950 . S
C2997 C2996 1.373 . S
C2997 C3013 1.377 . S
C2998 C2996 1.389 . S
C2998 C2999 1.524 . S
C2998 C3012 1.377 . S
C2999 C2998 1.524 . S
C2999 C3000 1.397 . S
C2999 C3004 1.363 . S
C3000 H2977 0.950 . S
C3000 C2999 1.397 . S
C3000 C3001 1.334 . S
C3001 H2978 0.950 . S
C3001 C3000 1.334 . S
C3001 C3002 1.287 . S
C3002 C3001 1.287 . S
C3002 C3003 1.524 . S
C3002 H3021 0.913 . S
C3003 H2979 0.950 . S
C3003 C3002 1.524 . S
C3003 C3004 1.415 . S
C3004 H2980 0.950 . S
C3004 C2999 1.363 . S
C3004 C3003 1.415 . S
C3005 H2981 0.951 . S
C3005 C3006 1.366 . S
C3005 C3007 1.388 . S
C3006 C3005 1.366 . S
C3006 C3010 1.385 . S
C3007 H2982 0.951 . S
C3007 C3005 1.388 . S
C3007 C3008 1.366 . S
C3008 C3007 1.366 . S
C3008 C3009 1.414 . S
C3008 C3011 1.499 . S
C3009 H2983 0.950 . S
C3009 C3008 1.414 . S
C3009 C3010 1.374 . S
C3010 H2984 0.950 . S
C3010 C3006 1.385 . S
C3010 C3009 1.374 . S
C3011 C3008 1.499 . S
C3011 C3012 1.373 . S
C3011 C3013 1.389 . S
C3012 H2985 0.950 . S
C3012 C2998 1.377 . S
C3012 C3011 1.373 . S
C3013 C2997 1.377 . S
C3013 C3011 1.389 . S
C3013 C3014 1.524 . S
C3014 C3013 1.524 . S
C3014 C3015 1.397 . S
C3014 C3019 1.363 . S
C3015 H2986 0.950 . S
C3015 C3014 1.397 . S
C3015 C3016 1.334 . S
C3016 H2987 0.950 . S
C3016 C3015 1.334 . S
C3016 C3017 1.287 . S
C3017 C3016 1.287 . S
C3017 C3018 1.524 . S
C3017 H3020 0.999 . S
C3018 H2988 0.950 . S
C3018 C3017 1.524 . S
C3018 C3019 1.415 . S
C3019 H2989 0.950 . S
C3019 C3014 1.363 . S
C3019 C3018 1.415 . S
H3020 C3017 0.999 . S
H3021 C3002 0.913 . S
H3022 C3040 0.951 . S
H3023 C3042 0.951 . S
H3024 C3044 0.950 . S
H3025 C3045 0.950 . S
H3026 C3047 0.950 . S
H3027 C3050 0.950 . S
H3028 C3051 0.950 . S
H3029 C3053 0.950 . S
H3030 C3054 0.950 . S
H3031 C3055 0.951 . S
H3032 C3057 0.951 . S
H3033 C3059 0.950 . S
H3034 C3060 0.950 . S
H3035 C3062 0.950 . S
H3036 C3065 0.950 . S
H3037 C3066 0.950 . S
H3038 C3068 0.950 . S
H3039 C3069 0.950 . S
C3040 H3022 0.951 . S
C3040 C3041 1.366 . S
C3040 C3042 1.388 . S
C3041 C3040 1.366 . S
C3041 C3045 1.385 . S
C3042 H3023 0.951 . S
C3042 C3040 1.388 . S
C3042 C3043 1.366 . S
C3043 C3042 1.366 . S
C3043 C3044 1.414 . S
C3043 C3046 1.499 . S
C3044 H3024 0.950 . S
C3044 C3043 1.414 . S
C3044 C3045 1.374 . S
C3045 H3025 0.950 . S
C3045 C3041 1.385 . S
C3045 C3044 1.374 . S
C3046 C3043 1.499 . S
C3046 C3047 1.373 . S
C3046 C3048 1.389 . S
C3047 H3026 0.950 . S
C3047 C3046 1.373 . S
C3047 C3063 1.377 . S
C3048 C3046 1.389 . S
C3048 C3049 1.524 . S
C3048 C3062 1.377 . S
C3049 C3048 1.524 . S
C3049 C3050 1.397 . S
C3049 C3054 1.363 . S
C3050 H3027 0.950 . S
C3050 C3049 1.397 . S
C3050 C3051 1.334 . S
C3051 H3028 0.950 . S
C3051 C3050 1.334 . S
C3051 C3052 1.287 . S
C3052 C3051 1.287 . S
C3052 C3053 1.524 . S
C3052 H3071 0.913 . S
C3053 H3029 0.950 . S
C3053 C3052 1.524 . S
C3053 C3054 1.415 . S
C3054 H3030 0.950 . S
C3054 C3049 1.363 . S
C3054 C3053 1.415 . S
C3055 H3031 0.951 . S
C3055 C3056 1.366 . S
C3055 C3057 1.388 . S
C3056 C3055 1.366 . S
C3056 C3060 1.385 . S
C3057 H3032 0.951 . S
C3057 C3055 1.388 . S
C3057 C3058 1.366 . S
C3058 C3057 1.366 . S
C3058 C3059 1.414 . S
C3058 C3061 1.499 . S
C3059 H3033 0.950 . S
C3059 C3058 1.414 . S
C3059 C3060 1.374 . S
C3060 H3034 0.950 . S
C3060 C3056 1.385 . S
C3060 C3059 1.374 . S
C3061 C3058 1.499 . S
C3061 C3062 1.373 . S
C3061 C3063 1.389 . S
C3062 H3035 0.950 . S
C3062 C3048 1.377 . S
C3062 C3061 1.373 . S
C3063 C3047 1.377 . S
C3063 C3061 1.389 . S
C3063 C3064 1.524 . S
C3064 C3063 1.524 . S
C3064 C3065 1.397 . S
C3064 C3069 1.363 . S
C3065 H3036 0.950 . S
C3065 C3064 1.397 . S
C3065 C3066 1.334 . S
C3066 H3037 0.950 . S
C3066 C3065 1.334 . S
C3066 C3067 1.287 . S
C3067 C3066 1.287 . S
C3067 C3068 1.524 . S
C3067 H3070 0.999 . S
C3068 H3038 0.950 . S
C3068 C3067 1.524 . S
C3068 C3069 1.415 . S
C3069 H3039 0.950 . S
C3069 C3064 1.363 . S
C3069 C3068 1.415 . S
H3070 C3067 0.999 . S
H3071 C3052 0.913 . S
H3072 C3090 0.951 . S
H3073 C3092 0.951 . S
H3074 C3094 0.950 . S
H3075 C3095 0.950 . S
H3076 C3097 0.950 . S
H3077 C3100 0.950 . S
H3078 C3101 0.950 . S
H3079 C3103 0.950 . S
H3080 C3104 0.950 . S
H3081 C3105 0.951 . S
H3082 C3107 0.951 . S
H3083 C3109 0.950 . S
H3084 C3110 0.950 . S
H3085 C3112 0.950 . S
H3086 C3115 0.950 . S
H3087 C3116 0.950 . S
H3088 C3118 0.950 . S
H3089 C3119 0.950 . S
C3090 H3072 0.951 . S
C3090 C3091 1.366 . S
C3090 C3092 1.388 . S
C3091 C3090 1.366 . S
C3091 C3095 1.385 . S
C3092 H3073 0.951 . S
C3092 C3090 1.388 . S
C3092 C3093 1.366 . S
C3093 C3092 1.366 . S
C3093 C3094 1.414 . S
C3093 C3096 1.499 . S
C3094 H3074 0.950 . S
C3094 C3093 1.414 . S
C3094 C3095 1.374 . S
C3095 H3075 0.950 . S
C3095 C3091 1.385 . S
C3095 C3094 1.374 . S
C3096 C3093 1.499 . S
C3096 C3097 1.373 . S
C3096 C3098 1.389 . S
C3097 H3076 0.950 . S
C3097 C3096 1.373 . S
C3097 C3113 1.377 . S
C3098 C3096 1.389 . S
C3098 C3099 1.524 . S
C3098 C3112 1.377 . S
C3099 C3098 1.524 . S
C3099 C3100 1.397 . S
C3099 C3104 1.363 . S
C3100 H3077 0.950 . S
C3100 C3099 1.397 . S
C3100 C3101 1.334 . S
C3101 H3078 0.950 . S
C3101 C3100 1.334 . S
C3101 C3102 1.287 . S
C3102 C3101 1.287 . S
C3102 C3103 1.524 . S
C3102 H3121 0.913 . S
C3103 H3079 0.950 . S
C3103 C3102 1.524 . S
C3103 C3104 1.415 . S
C3104 H3080 0.950 . S
C3104 C3099 1.363 . S
C3104 C3103 1.415 . S
C3105 H3081 0.951 . S
C3105 C3106 1.366 . S
C3105 C3107 1.388 . S
C3106 C3105 1.366 . S
C3106 C3110 1.385 . S
C3107 H3082 0.951 . S
C3107 C3105 1.388 . S
C3107 C3108 1.366 . S
C3108 C3107 1.366 . S
C3108 C3109 1.414 . S
C3108 C3111 1.499 . S
C3109 H3083 0.950 . S
C3109 C3108 1.414 . S
C3109 C3110 1.374 . S
C3110 H3084 0.950 . S
C3110 C3106 1.385 . S
C3110 C3109 1.374 . S
C3111 C3108 1.499 . S
C3111 C3112 1.373 . S
C3111 C3113 1.389 . S
C3112 H3085 0.950 . S
C3112 C3098 1.377 . S
C3112 C3111 1.373 . S
C3113 C3097 1.377 . S
C3113 C3111 1.389 . S
C3113 C3114 1.524 . S
C3114 C3113 1.524 . S
C3114 C3115 1.397 . S
C3114 C3119 1.363 . S
C3115 H3086 0.950 . S
C3115 C3114 1.397 . S
C3115 C3116 1.334 . S
C3116 H3087 0.950 . S
C3116 C3115 1.334 . S
C3116 C3117 1.287 . S
C3117 C3116 1.287 . S
C3117 C3118 1.524 . S
C3117 H3120 0.999 . S
C3118 H3088 0.950 . S
C3118 C3117 1.524 . S
C3118 C3119 1.415 . S
C3119 H3089 0.950 . S
C3119 C3114 1.363 . S
C3119 C3118 1.415 . S
H3120 C3117 0.999 . S
H3121 C3102 0.913 . S
H3122 C3140 0.951 . S
H3123 C3142 0.951 . S
H3124 C3144 0.950 . S
H3125 C3145 0.950 . S
H3126 C3147 0.950 . S
H3127 C3150 0.950 . S
H3128 C3151 0.950 . S
H3129 C3153 0.950 . S
H3130 C3154 0.950 . S
H3131 C3155 0.951 . S
H3132 C3157 0.951 . S
H3133 C3159 0.950 . S
H3134 C3160 0.950 . S
H3135 C3162 0.950 . S
H3136 C3165 0.950 . S
H3137 C3166 0.950 . S
H3138 C3168 0.950 . S
H3139 C3169 0.950 . S
C3140 H3122 0.951 . S
C3140 C3141 1.366 . S
C3140 C3142 1.388 . S
C3141 C3140 1.366 . S
C3141 C3145 1.385 . S
C3142 H3123 0.951 . S
C3142 C3140 1.388 . S
C3142 C3143 1.366 . S
C3143 C3142 1.366 . S
C3143 C3144 1.414 . S
C3143 C3146 1.499 . S
C3144 H3124 0.950 . S
C3144 C3143 1.414 . S
C3144 C3145 1.374 . S
C3145 H3125 0.950 . S
C3145 C3141 1.385 . S
C3145 C3144 1.374 . S
C3146 C3143 1.499 . S
C3146 C3147 1.373 . S
C3146 C3148 1.389 . S
C3147 H3126 0.950 . S
C3147 C3146 1.373 . S
C3147 C3163 1.377 . S
C3148 C3146 1.389 . S
C3148 C3149 1.524 . S
C3148 C3162 1.377 . S
C3149 C3148 1.524 . S
C3149 C3150 1.397 . S
C3149 C3154 1.363 . S
C3150 H3127 0.950 . S
C3150 C3149 1.397 . S
C3150 C3151 1.334 . S
C3151 H3128 0.950 . S
C3151 C3150 1.334 . S
C3151 C3152 1.287 . S
C3152 C3151 1.287 . S
C3152 C3153 1.524 . S
C3152 H3171 0.913 . S
C3153 H3129 0.950 . S
C3153 C3152 1.524 . S
C3153 C3154 1.415 . S
C3154 H3130 0.950 . S
C3154 C3149 1.363 . S
C3154 C3153 1.415 . S
C3155 H3131 0.951 . S
C3155 C3156 1.366 . S
C3155 C3157 1.388 . S
C3156 C3155 1.366 . S
C3156 C3160 1.385 . S
C3157 H3132 0.951 . S
C3157 C3155 1.388 . S
C3157 C3158 1.366 . S
C3158 C3157 1.366 . S
C3158 C3159 1.414 . S
C3158 C3161 1.499 . S
C3159 H3133 0.950 . S
C3159 C3158 1.414 . S
C3159 C3160 1.374 . S
C3160 H3134 0.950 . S
C3160 C3156 1.385 . S
C3160 C3159 1.374 . S
C3161 C3158 1.499 . S
C3161 C3162 1.373 . S
C3161 C3163 1.389 . S
C3162 H3135 0.950 . S
C3162 C3148 1.377 . S
C3162 C3161 1.373 . S
C3163 C3147 1.377 . S
C3163 C3161 1.389 . S
C3163 C3164 1.524 . S
C3164 C3163 1.524 . S
C3164 C3165 1.397 . S
C3164 C3169 1.363 . S
C3165 H3136 0.950 . S
C3165 C3164 1.397 . S
C3165 C3166 1.334 . S
C3166 H3137 0.950 . S
C3166 C3165 1.334 . S
C3166 C3167 1.287 . S
C3167 C3166 1.287 . S
C3167 C3168 1.524 . S
C3167 H3170 0.999 . S
C3168 H3138 0.950 . S
C3168 C3167 1.524 . S
C3168 C3169 1.415 . S
C3169 H3139 0.950 . S
C3169 C3164 1.363 . S
C3169 C3168 1.415 . S
H3170 C3167 0.999 . S
H3171 C3152 0.913 . S
H3172 C3190 0.951 . S
H3173 C3192 0.951 . S
H3174 C3194 0.950 . S
H3175 C3195 0.950 . S
H3176 C3197 0.950 . S
H3177 C3200 0.950 . S
H3178 C3201 0.950 . S
H3179 C3203 0.950 . S
H3180 C3204 0.950 . S
H3181 C3205 0.951 . S
H3182 C3207 0.951 . S
H3183 C3209 0.950 . S
H3184 C3210 0.950 . S
H3185 C3212 0.950 . S
H3186 C3215 0.950 . S
H3187 C3216 0.950 . S
H3188 C3218 0.950 . S
H3189 C3219 0.950 . S
C3190 H3172 0.951 . S
C3190 C3191 1.366 . S
C3190 C3192 1.388 . S
C3191 C3190 1.366 . S
C3191 C3195 1.385 . S
C3192 H3173 0.951 . S
C3192 C3190 1.388 . S
C3192 C3193 1.366 . S
C3193 C3192 1.366 . S
C3193 C3194 1.414 . S
C3193 C3196 1.499 . S
C3194 H3174 0.950 . S
C3194 C3193 1.414 . S
C3194 C3195 1.374 . S
C3195 H3175 0.950 . S
C3195 C3191 1.385 . S
C3195 C3194 1.374 . S
C3196 C3193 1.499 . S
C3196 C3197 1.373 . S
C3196 C3198 1.389 . S
C3197 H3176 0.950 . S
C3197 C3196 1.373 . S
C3197 C3213 1.377 . S
C3198 C3196 1.389 . S
C3198 C3199 1.524 . S
C3198 C3212 1.377 . S
C3199 C3198 1.524 . S
C3199 C3200 1.397 . S
C3199 C3204 1.363 . S
C3200 H3177 0.950 . S
C3200 C3199 1.397 . S
C3200 C3201 1.334 . S
C3201 H3178 0.950 . S
C3201 C3200 1.334 . S
C3201 C3202 1.287 . S
C3202 C3201 1.287 . S
C3202 C3203 1.524 . S
C3202 H3221 0.913 . S
C3203 H3179 0.950 . S
C3203 C3202 1.524 . S
C3203 C3204 1.415 . S
C3204 H3180 0.950 . S
C3204 C3199 1.363 . S
C3204 C3203 1.415 . S
C3205 H3181 0.951 . S
C3205 C3206 1.366 . S
C3205 C3207 1.388 . S
C3206 C3205 1.366 . S
C3206 C3210 1.385 . S
C3207 H3182 0.951 . S
C3207 C3205 1.388 . S
C3207 C3208 1.366 . S
C3208 C3207 1.366 . S
C3208 C3209 1.414 . S
C3208 C3211 1.499 . S
C3209 H3183 0.950 . S
C3209 C3208 1.414 . S
C3209 C3210 1.374 . S
C3210 H3184 0.950 . S
C3210 C3206 1.385 . S
C3210 C3209 1.374 . S
C3211 C3208 1.499 . S
C3211 C3212 1.373 . S
C3211 C3213 1.389 . S
C3212 H3185 0.950 . S
C3212 C3198 1.377 . S
C3212 C3211 1.373 . S
C3213 C3197 1.377 . S
C3213 C3211 1.389 . S
C3213 C3214 1.524 . S
C3214 C3213 1.524 . S
C3214 C3215 1.397 . S
C3214 C3219 1.363 . S
C3215 H3186 0.950 . S
C3215 C3214 1.397 . S
C3215 C3216 1.334 . S
C3216 H3187 0.950 . S
C3216 C3215 1.334 . S
C3216 C3217 1.287 . S
C3217 C3216 1.287 . S
C3217 C3218 1.524 . S
C3217 H3220 0.999 . S
C3218 H3188 0.950 . S
C3218 C3217 1.524 . S
C3218 C3219 1.415 . S
C3219 H3189 0.950 . S
C3219 C3214 1.363 . S
C3219 C3218 1.415 . S
H3220 C3217 0.999 . S
H3221 C3202 0.913 . S
H3222 C3240 0.951 . S
H3223 C3242 0.951 . S
H3224 C3244 0.950 . S
H3225 C3245 0.950 . S
H3226 C3247 0.950 . S
H3227 C3250 0.950 . S
H3228 C3251 0.950 . S
H3229 C3253 0.950 . S
H3230 C3254 0.950 . S
H3231 C3255 0.951 . S
H3232 C3257 0.951 . S
H3233 C3259 0.950 . S
H3234 C3260 0.950 . S
H3235 C3262 0.950 . S
H3236 C3265 0.950 . S
H3237 C3266 0.950 . S
H3238 C3268 0.950 . S
H3239 C3269 0.950 . S
C3240 H3222 0.951 . S
C3240 C3241 1.366 . S
C3240 C3242 1.388 . S
C3241 C3240 1.366 . S
C3241 C3245 1.385 . S
C3242 H3223 0.951 . S
C3242 C3240 1.388 . S
C3242 C3243 1.366 . S
C3243 C3242 1.366 . S
C3243 C3244 1.414 . S
C3243 C3246 1.499 . S
C3244 H3224 0.950 . S
C3244 C3243 1.414 . S
C3244 C3245 1.374 . S
C3245 H3225 0.950 . S
C3245 C3241 1.385 . S
C3245 C3244 1.374 . S
C3246 C3243 1.499 . S
C3246 C3247 1.373 . S
C3246 C3248 1.389 . S
C3247 H3226 0.950 . S
C3247 C3246 1.373 . S
C3247 C3263 1.377 . S
C3248 C3246 1.389 . S
C3248 C3249 1.524 . S
C3248 C3262 1.377 . S
C3249 C3248 1.524 . S
C3249 C3250 1.397 . S
C3249 C3254 1.363 . S
C3250 H3227 0.950 . S
C3250 C3249 1.397 . S
C3250 C3251 1.334 . S
C3251 H3228 0.950 . S
C3251 C3250 1.334 . S
C3251 C3252 1.287 . S
C3252 C3251 1.287 . S
C3252 C3253 1.524 . S
C3252 H3271 0.913 . S
C3253 H3229 0.950 . S
C3253 C3252 1.524 . S
C3253 C3254 1.415 . S
C3254 H3230 0.950 . S
C3254 C3249 1.363 . S
C3254 C3253 1.415 . S
C3255 H3231 0.951 . S
C3255 C3256 1.366 . S
C3255 C3257 1.388 . S
C3256 C3255 1.366 . S
C3256 C3260 1.385 . S
C3257 H3232 0.951 . S
C3257 C3255 1.388 . S
C3257 C3258 1.366 . S
C3258 C3257 1.366 . S
C3258 C3259 1.414 . S
C3258 C3261 1.499 . S
C3259 H3233 0.950 . S
C3259 C3258 1.414 . S
C3259 C3260 1.374 . S
C3260 H3234 0.950 . S
C3260 C3256 1.385 . S
C3260 C3259 1.374 . S
C3261 C3258 1.499 . S
C3261 C3262 1.373 . S
C3261 C3263 1.389 . S
C3262 H3235 0.950 . S
C3262 C3248 1.377 . S
C3262 C3261 1.373 . S
C3263 C3247 1.377 . S
C3263 C3261 1.389 . S
C3263 C3264 1.524 . S
C3264 C3263 1.524 . S
C3264 C3265 1.397 . S
C3264 C3269 1.363 . S
C3265 H3236 0.950 . S
C3265 C3264 1.397 . S
C3265 C3266 1.334 . S
C3266 H3237 0.950 . S
C3266 C3265 1.334 . S
C3266 C3267 1.287 . S
C3267 C3266 1.287 . S
C3267 C3268 1.524 . S
C3267 H3270 0.999 . S
C3268 H3238 0.950 . S
C3268 C3267 1.524 . S
C3268 C3269 1.415 . S
C3269 H3239 0.950 . S
C3269 C3264 1.363 . S
C3269 C3268 1.415 . S
H3270 C3267 0.999 . S
H3271 C3252 0.913 . S
H3272 C3290 0.951 . S
H3273 C3292 0.951 . S
H3274 C3294 0.950 . S
H3275 C3295 0.950 . S
H3276 C3297 0.950 . S
H3277 C3300 0.950 . S
H3278 C3301 0.950 . S
H3279 C3303 0.950 . S
H3280 C3304 0.950 . S
H3281 C3305 0.951 . S
H3282 C3307 0.951 . S
H3283 C3309 0.950 . S
H3284 C3310 0.950 . S
H3285 C3312 0.950 . S
H3286 C3315 0.950 . S
H3287 C3316 0.950 . S
H3288 C3318 0.950 . S
H3289 C3319 0.950 . S
C3290 H3272 0.951 . S
C3290 C3291 1.366 . S
C3290 C3292 1.388 . S
C3291 C3290 1.366 . S
C3291 C3295 1.385 . S
C3292 H3273 0.951 . S
C3292 C3290 1.388 . S
C3292 C3293 1.366 . S
C3293 C3292 1.366 . S
C3293 C3294 1.414 . S
C3293 C3296 1.499 . S
C3294 H3274 0.950 . S
C3294 C3293 1.414 . S
C3294 C3295 1.374 . S
C3295 H3275 0.950 . S
C3295 C3291 1.385 . S
C3295 C3294 1.374 . S
C3296 C3293 1.499 . S
C3296 C3297 1.373 . S
C3296 C3298 1.389 . S
C3297 H3276 0.950 . S
C3297 C3296 1.373 . S
C3297 C3313 1.377 . S
C3298 C3296 1.389 . S
C3298 C3299 1.524 . S
C3298 C3312 1.377 . S
C3299 C3298 1.524 . S
C3299 C3300 1.397 . S
C3299 C3304 1.363 . S
C3300 H3277 0.950 . S
C3300 C3299 1.397 . S
C3300 C3301 1.334 . S
C3301 H3278 0.950 . S
C3301 C3300 1.334 . S
C3301 C3302 1.287 . S
C3302 C3301 1.287 . S
C3302 C3303 1.524 . S
C3302 H3321 0.913 . S
C3303 H3279 0.950 . S
C3303 C3302 1.524 . S
C3303 C3304 1.415 . S
C3304 H3280 0.950 . S
C3304 C3299 1.363 . S
C3304 C3303 1.415 . S
C3305 H3281 0.951 . S
C3305 C3306 1.366 . S
C3305 C3307 1.388 . S
C3306 C3305 1.366 . S
C3306 C3310 1.385 . S
C3307 H3282 0.951 . S
C3307 C3305 1.388 . S
C3307 C3308 1.366 . S
C3308 C3307 1.366 . S
C3308 C3309 1.414 . S
C3308 C3311 1.499 . S
C3309 H3283 0.950 . S
C3309 C3308 1.414 . S
C3309 C3310 1.374 . S
C3310 H3284 0.950 . S
C3310 C3306 1.385 . S
C3310 C3309 1.374 . S
C3311 C3308 1.499 . S
C3311 C3312 1.373 . S
C3311 C3313 1.389 . S
C3312 H3285 0.950 . S
C3312 C3298 1.377 . S
C3312 C3311 1.373 . S
C3313 C3297 1.377 . S
C3313 C3311 1.389 . S
C3313 C3314 1.524 . S
C3314 C3313 1.524 . S
C3314 C3315 1.397 . S
C3314 C3319 1.363 . S
C3315 H3286 0.950 . S
C3315 C3314 1.397 . S
C3315 C3316 1.334 . S
C3316 H3287 0.950 . S
C3316 C3315 1.334 . S
C3316 C3317 1.287 . S
C3317 C3316 1.287 . S
C3317 C3318 1.524 . S
C3317 H3320 0.999 . S
C3318 H3288 0.950 . S
C3318 C3317 1.524 . S
C3318 C3319 1.415 . S
C3319 H3289 0.950 . S
C3319 C3314 1.363 . S
C3319 C3318 1.415 . S
H3320 C3317 0.999 . S
H3321 C3302 0.913 . S
H3322 C3340 0.951 . S
H3323 C3342 0.951 . S
H3324 C3344 0.950 . S
H3325 C3345 0.950 . S
H3326 C3347 0.950 . S
H3327 C3350 0.950 . S
H3328 C3351 0.950 . S
H3329 C3353 0.950 . S
H3330 C3354 0.950 . S
H3331 C3355 0.951 . S
H3332 C3357 0.951 . S
H3333 C3359 0.950 . S
H3334 C3360 0.950 . S
H3335 C3362 0.950 . S
H3336 C3365 0.950 . S
H3337 C3366 0.950 . S
H3338 C3368 0.950 . S
H3339 C3369 0.950 . S
C3340 H3322 0.951 . S
C3340 C3341 1.366 . S
C3340 C3342 1.388 . S
C3341 C3340 1.366 . S
C3341 C3345 1.385 . S
C3342 H3323 0.951 . S
C3342 C3340 1.388 . S
C3342 C3343 1.366 . S
C3343 C3342 1.366 . S
C3343 C3344 1.414 . S
C3343 C3346 1.499 . S
C3344 H3324 0.950 . S
C3344 C3343 1.414 . S
C3344 C3345 1.374 . S
C3345 H3325 0.950 . S
C3345 C3341 1.385 . S
C3345 C3344 1.374 . S
C3346 C3343 1.499 . S
C3346 C3347 1.373 . S
C3346 C3348 1.389 . S
C3347 H3326 0.950 . S
C3347 C3346 1.373 . S
C3347 C3363 1.377 . S
C3348 C3346 1.389 . S
C3348 C3349 1.524 . S
C3348 C3362 1.377 . S
C3349 C3348 1.524 . S
C3349 C3350 1.397 . S
C3349 C3354 1.363 . S
C3350 H3327 0.950 . S
C3350 C3349 1.397 . S
C3350 C3351 1.334 . S
C3351 H3328 0.950 . S
C3351 C3350 1.334 . S
C3351 C3352 1.287 . S
C3352 C3351 1.287 . S
C3352 C3353 1.524 . S
C3352 H3371 0.913 . S
C3353 H3329 0.950 . S
C3353 C3352 1.524 . S
C3353 C3354 1.415 . S
C3354 H3330 0.950 . S
C3354 C3349 1.363 . S
C3354 C3353 1.415 . S
C3355 H3331 0.951 . S
C3355 C3356 1.366 . S
C3355 C3357 1.388 . S
C3356 C3355 1.366 . S
C3356 C3360 1.385 . S
C3357 H3332 0.951 . S
C3357 C3355 1.388 . S
C3357 C3358 1.366 . S
C3358 C3357 1.366 . S
C3358 C3359 1.414 . S
C3358 C3361 1.499 . S
C3359 H3333 0.950 . S
C3359 C3358 1.414 . S
C3359 C3360 1.374 . S
C3360 H3334 0.950 . S
C3360 C3356 1.385 . S
C3360 C3359 1.374 . S
C3361 C3358 1.499 . S
C3361 C3362 1.373 . S
C3361 C3363 1.389 . S
C3362 H3335 0.950 . S
C3362 C3348 1.377 . S
C3362 C3361 1.373 . S
C3363 C3347 1.377 . S
C3363 C3361 1.389 . S
C3363 C3364 1.524 . S
C3364 C3363 1.524 . S
C3364 C3365 1.397 . S
C3364 C3369 1.363 . S
C3365 H3336 0.950 . S
C3365 C3364 1.397 . S
C3365 C3366 1.334 . S
C3366 H3337 0.950 . S
C3366 C3365 1.334 . S
C3366 C3367 1.287 . S
C3367 C3366 1.287 . S
C3367 C3368 1.524 . S
C3367 H3370 0.999 . S
C3368 H3338 0.950 . S
C3368 C3367 1.524 . S
C3368 C3369 1.415 . S
C3369 H3339 0.950 . S
C3369 C3364 1.363 . S
C3369 C3368 1.415 . S
H3370 C3367 0.999 . S
H3371 C3352 0.913 . S
H3372 C3390 0.951 . S
H3373 C3392 0.951 . S
H3374 C3394 0.950 . S
H3375 C3395 0.950 . S
H3376 C3397 0.950 . S
H3377 C3400 0.950 . S
H3378 C3401 0.950 . S
H3379 C3403 0.950 . S
H3380 C3404 0.950 . S
H3381 C3405 0.951 . S
H3382 C3407 0.951 . S
H3383 C3409 0.950 . S
H3384 C3410 0.950 . S
H3385 C3412 0.950 . S
H3386 C3415 0.950 . S
H3387 C3416 0.950 . S
H3388 C3418 0.950 . S
H3389 C3419 0.950 . S
C3390 H3372 0.951 . S
C3390 C3391 1.366 . S
C3390 C3392 1.388 . S
C3391 C3390 1.366 . S
C3391 C3395 1.385 . S
C3392 H3373 0.951 . S
C3392 C3390 1.388 . S
C3392 C3393 1.366 . S
C3393 C3392 1.366 . S
C3393 C3394 1.414 . S
C3393 C3396 1.499 . S
C3394 H3374 0.950 . S
C3394 C3393 1.414 . S
C3394 C3395 1.374 . S
C3395 H3375 0.950 . S
C3395 C3391 1.385 . S
C3395 C3394 1.374 . S
C3396 C3393 1.499 . S
C3396 C3397 1.373 . S
C3396 C3398 1.389 . S
C3397 H3376 0.950 . S
C3397 C3396 1.373 . S
C3397 C3413 1.377 . S
C3398 C3396 1.389 . S
C3398 C3399 1.524 . S
C3398 C3412 1.377 . S
C3399 C3398 1.524 . S
C3399 C3400 1.397 . S
C3399 C3404 1.363 . S
C3400 H3377 0.950 . S
C3400 C3399 1.397 . S
C3400 C3401 1.334 . S
C3401 H3378 0.950 . S
C3401 C3400 1.334 . S
C3401 C3402 1.287 . S
C3402 C3401 1.287 . S
C3402 C3403 1.524 . S
C3402 H3421 0.913 . S
C3403 H3379 0.950 . S
C3403 C3402 1.524 . S
C3403 C3404 1.415 . S
C3404 H3380 0.950 . S
C3404 C3399 1.363 . S
C3404 C3403 1.415 . S
C3405 H3381 0.951 . S
C3405 C3406 1.366 . S
C3405 C3407 1.388 . S
C3406 C3405 1.366 . S
C3406 C3410 1.385 . S
C3407 H3382 0.951 . S
C3407 C3405 1.388 . S
C3407 C3408 1.366 . S
C3408 C3407 1.366 . S
C3408 C3409 1.414 . S
C3408 C3411 1.499 . S
C3409 H3383 0.950 . S
C3409 C3408 1.414 . S
C3409 C3410 1.374 . S
C3410 H3384 0.950 . S
C3410 C3406 1.385 . S
C3410 C3409 1.374 . S
C3411 C3408 1.499 . S
C3411 C3412 1.373 . S
C3411 C3413 1.389 . S
C3412 H3385 0.950 . S
C3412 C3398 1.377 . S
C3412 C3411 1.373 . S
C3413 C3397 1.377 . S
C3413 C3411 1.389 . S
C3413 C3414 1.524 . S
C3414 C3413 1.524 . S
C3414 C3415 1.397 . S
C3414 C3419 1.363 . S
C3415 H3386 0.950 . S
C3415 C3414 1.397 . S
C3415 C3416 1.334 . S
C3416 H3387 0.950 . S
C3416 C3415 1.334 . S
C3416 C3417 1.287 . S
C3417 C3416 1.287 . S
C3417 C3418 1.524 . S
C3417 H3420 0.999 . S
C3418 H3388 0.950 . S
C3418 C3417 1.524 . S
C3418 C3419 1.415 . S
C3419 H3389 0.950 . S
C3419 C3414 1.363 . S
C3419 C3418 1.415 . S
H3420 C3417 0.999 . S
H3421 C3402 0.913 . S
H3422 C3440 0.951 . S
H3423 C3442 0.951 . S
H3424 C3444 0.950 . S
H3425 C3445 0.950 . S
H3426 C3447 0.950 . S
H3427 C3450 0.950 . S
H3428 C3451 0.950 . S
H3429 C3453 0.950 . S
H3430 C3454 0.950 . S
H3431 C3455 0.951 . S
H3432 C3457 0.951 . S
H3433 C3459 0.950 . S
H3434 C3460 0.950 . S
H3435 C3462 0.950 . S
H3436 C3465 0.950 . S
H3437 C3466 0.950 . S
H3438 C3468 0.950 . S
H3439 C3469 0.950 . S
C3440 H3422 0.951 . S
C3440 C3441 1.366 . S
C3440 C3442 1.388 . S
C3441 C3440 1.366 . S
C3441 C3445 1.385 . S
C3442 H3423 0.951 . S
C3442 C3440 1.388 . S
C3442 C3443 1.366 . S
C3443 C3442 1.366 . S
C3443 C3444 1.414 . S
C3443 C3446 1.499 . S
C3444 H3424 0.950 . S
C3444 C3443 1.414 . S
C3444 C3445 1.374 . S
C3445 H3425 0.950 . S
C3445 C3441 1.385 . S
C3445 C3444 1.374 . S
C3446 C3443 1.499 . S
C3446 C3447 1.373 . S
C3446 C3448 1.389 . S
C3447 H3426 0.950 . S
C3447 C3446 1.373 . S
C3447 C3463 1.377 . S
C3448 C3446 1.389 . S
C3448 C3449 1.524 . S
C3448 C3462 1.377 . S
C3449 C3448 1.524 . S
C3449 C3450 1.397 . S
C3449 C3454 1.363 . S
C3450 H3427 0.950 . S
C3450 C3449 1.397 . S
C3450 C3451 1.334 . S
C3451 H3428 0.950 . S
C3451 C3450 1.334 . S
C3451 C3452 1.287 . S
C3452 C3451 1.287 . S
C3452 C3453 1.524 . S
C3452 H3471 0.913 . S
C3453 H3429 0.950 . S
C3453 C3452 1.524 . S
C3453 C3454 1.415 . S
C3454 H3430 0.950 . S
C3454 C3449 1.363 . S
C3454 C3453 1.415 . S
C3455 H3431 0.951 . S
C3455 C3456 1.366 . S
C3455 C3457 1.388 . S
C3456 C3455 1.366 . S
C3456 C3460 1.385 . S
C3457 H3432 0.951 . S
C3457 C3455 1.388 . S
C3457 C3458 1.366 . S
C3458 C3457 1.366 . S
C3458 C3459 1.414 . S
C3458 C3461 1.499 . S
C3459 H3433 0.950 . S
C3459 C3458 1.414 . S
C3459 C3460 1.374 . S
C3460 H3434 0.950 . S
C3460 C3456 1.385 . S
C3460 C3459 1.374 . S
C3461 C3458 1.499 . S
C3461 C3462 1.373 . S
C3461 C3463 1.389 . S
C3462 H3435 0.950 . S
C3462 C3448 1.377 . S
C3462 C3461 1.373 . S
C3463 C3447 1.377 . S
C3463 C3461 1.389 . S
C3463 C3464 1.524 . S
C3464 C3463 1.524 . S
C3464 C3465 1.397 . S
C3464 C3469 1.363 . S
C3465 H3436 0.950 . S
C3465 C3464 1.397 . S
C3465 C3466 1.334 . S
C3466 H3437 0.950 . S
C3466 C3465 1.334 . S
C3466 C3467 1.287 . S
C3467 C3466 1.287 . S
C3467 C3468 1.524 . S
C3467 H3470 0.999 . S
C3468 H3438 0.950 . S
C3468 C3467 1.524 . S
C3468 C3469 1.415 . S
C3469 H3439 0.950 . S
C3469 C3464 1.363 . S
C3469 C3468 1.415 . S
H3470 C3467 0.999 . S
H3471 C3452 0.913 . S
H3472 C3490 0.951 . S
H3473 C3492 0.951 . S
H3474 C3494 0.950 . S
H3475 C3495 0.950 . S
H3476 C3497 0.950 . S
H3477 C3500 0.950 . S
H3478 C3501 0.950 . S
H3479 C3503 0.950 . S
H3480 C3504 0.950 . S
H3481 C3505 0.951 . S
H3482 C3507 0.951 . S
H3483 C3509 0.950 . S
H3484 C3510 0.950 . S
H3485 C3512 0.950 . S
H3486 C3515 0.950 . S
H3487 C3516 0.950 . S
H3488 C3518 0.950 . S
H3489 C3519 0.950 . S
C3490 H3472 0.951 . S
C3490 C3491 1.366 . S
C3490 C3492 1.388 . S
C3491 C3490 1.366 . S
C3491 C3495 1.385 . S
C3492 H3473 0.951 . S
C3492 C3490 1.388 . S
C3492 C3493 1.366 . S
C3493 C3492 1.366 . S
C3493 C3494 1.414 . S
C3493 C3496 1.499 . S
C3494 H3474 0.950 . S
C3494 C3493 1.414 . S
C3494 C3495 1.374 . S
C3495 H3475 0.950 . S
C3495 C3491 1.385 . S
C3495 C3494 1.374 . S
C3496 C3493 1.499 . S
C3496 C3497 1.373 . S
C3496 C3498 1.389 . S
C3497 H3476 0.950 . S
C3497 C3496 1.373 . S
C3497 C3513 1.377 . S
C3498 C3496 1.389 . S
C3498 C3499 1.524 . S
C3498 C3512 1.377 . S
C3499 C3498 1.524 . S
C3499 C3500 1.397 . S
C3499 C3504 1.363 . S
C3500 H3477 0.950 . S
C3500 C3499 1.397 . S
C3500 C3501 1.334 . S
C3501 H3478 0.950 . S
C3501 C3500 1.334 . S
C3501 C3502 1.287 . S
C3502 C3501 1.287 . S
C3502 C3503 1.524 . S
C3502 H3521 0.913 . S
C3503 H3479 0.950 . S
C3503 C3502 1.524 . S
C3503 C3504 1.415 . S
C3504 H3480 0.950 . S
C3504 C3499 1.363 . S
C3504 C3503 1.415 . S
C3505 H3481 0.951 . S
C3505 C3506 1.366 . S
C3505 C3507 1.388 . S
C3506 C3505 1.366 . S
C3506 C3510 1.385 . S
C3507 H3482 0.951 . S
C3507 C3505 1.388 . S
C3507 C3508 1.366 . S
C3508 C3507 1.366 . S
C3508 C3509 1.414 . S
C3508 C3511 1.499 . S
C3509 H3483 0.950 . S
C3509 C3508 1.414 . S
C3509 C3510 1.374 . S
C3510 H3484 0.950 . S
C3510 C3506 1.385 . S
C3510 C3509 1.374 . S
C3511 C3508 1.499 . S
C3511 C3512 1.373 . S
C3511 C3513 1.389 . S
C3512 H3485 0.950 . S
C3512 C3498 1.377 . S
C3512 C3511 1.373 . S
C3513 C3497 1.377 . S
C3513 C3511 1.389 . S
C3513 C3514 1.524 . S
C3514 C3513 1.524 . S
C3514 C3515 1.397 . S
C3514 C3519 1.363 . S
C3515 H3486 0.950 . S
C3515 C3514 1.397 . S
C3515 C3516 1.334 . S
C3516 H3487 0.950 . S
C3516 C3515 1.334 . S
C3516 C3517 1.287 . S
C3517 C3516 1.287 . S
C3517 C3518 1.524 . S
C3517 H3520 0.999 . S
C3518 H3488 0.950 . S
C3518 C3517 1.524 . S
C3518 C3519 1.415 . S
C3519 H3489 0.950 . S
C3519 C3514 1.363 . S
C3519 C3518 1.415 . S
H3520 C3517 0.999 . S
H3521 C3502 0.913 . S
H3522 C3540 0.951 . S
H3523 C3542 0.951 . S
H3524 C3544 0.950 . S
H3525 C3545 0.950 . S
H3526 C3547 0.950 . S
H3527 C3550 0.950 . S
H3528 C3551 0.950 . S
H3529 C3553 0.950 . S
H3530 C3554 0.950 . S
H3531 C3555 0.951 . S
H3532 C3557 0.951 . S
H3533 C3559 0.950 . S
H3534 C3560 0.950 . S
H3535 C3562 0.950 . S
H3536 C3565 0.950 . S
H3537 C3566 0.950 . S
H3538 C3568 0.950 . S
H3539 C3569 0.950 . S
C3540 H3522 0.951 . S
C3540 C3541 1.366 . S
C3540 C3542 1.388 . S
C3541 C3540 1.366 . S
C3541 C3545 1.385 . S
C3542 H3523 0.951 . S
C3542 C3540 1.388 . S
C3542 C3543 1.366 . S
C3543 C3542 1.366 . S
C3543 C3544 1.414 . S
C3543 C3546 1.499 . S
C3544 H3524 0.950 . S
C3544 C3543 1.414 . S
C3544 C3545 1.374 . S
C3545 H3525 0.950 . S
C3545 C3541 1.385 . S
C3545 C3544 1.374 . S
C3546 C3543 1.499 . S
C3546 C3547 1.373 . S
C3546 C3548 1.389 . S
C3547 H3526 0.950 . S
C3547 C3546 1.373 . S
C3547 C3563 1.377 . S
C3548 C3546 1.389 . S
C3548 C3549 1.524 . S
C3548 C3562 1.377 . S
C3549 C3548 1.524 . S
C3549 C3550 1.397 . S
C3549 C3554 1.363 . S
C3550 H3527 0.950 . S
C3550 C3549 1.397 . S
C3550 C3551 1.334 . S
C3551 H3528 0.950 . S
C3551 C3550 1.334 . S
C3551 C3552 1.287 . S
C3552 C3551 1.287 . S
C3552 C3553 1.524 . S
C3552 H3571 0.913 . S
C3553 H3529 0.950 . S
C3553 C3552 1.524 . S
C3553 C3554 1.415 . S
C3554 H3530 0.950 . S
C3554 C3549 1.363 . S
C3554 C3553 1.415 . S
C3555 H3531 0.951 . S
C3555 C3556 1.366 . S
C3555 C3557 1.388 . S
C3556 C3555 1.366 . S
C3556 C3560 1.385 . S
C3557 H3532 0.951 . S
C3557 C3555 1.388 . S
C3557 C3558 1.366 . S
C3558 C3557 1.366 . S
C3558 C3559 1.414 . S
C3558 C3561 1.499 . S
C3559 H3533 0.950 . S
C3559 C3558 1.414 . S
C3559 C3560 1.374 . S
C3560 H3534 0.950 . S
C3560 C3556 1.385 . S
C3560 C3559 1.374 . S
C3561 C3558 1.499 . S
C3561 C3562 1.373 . S
C3561 C3563 1.389 . S
C3562 H3535 0.950 . S
C3562 C3548 1.377 . S
C3562 C3561 1.373 . S
C3563 C3547 1.377 . S
C3563 C3561 1.389 . S
C3563 C3564 1.524 . S
C3564 C3563 1.524 . S
C3564 C3565 1.397 . S
C3564 C3569 1.363 . S
C3565 H3536 0.950 . S
C3565 C3564 1.397 . S
C3565 C3566 1.334 . S
C3566 H3537 0.950 . S
C3566 C3565 1.334 . S
C3566 C3567 1.287 . S
C3567 C3566 1.287 . S
C3567 C3568 1.524 . S
C3567 H3570 0.999 . S
C3568 H3538 0.950 . S
C3568 C3567 1.524 . S
C3568 C3569 1.415 . S
C3569 H3539 0.950 . S
C3569 C3564 1.363 . S
C3569 C3568 1.415 . S
H3570 C3567 0.999 . S
H3571 C3552 0.913 . S
H3572 C3590 0.951 . S
H3573 C3592 0.951 . S
H3574 C3594 0.950 . S
H3575 C3595 0.950 . S
H3576 C3597 0.950 . S
H3577 C3600 0.950 . S
H3578 C3601 0.950 . S
H3579 C3603 0.950 . S
H3580 C3604 0.950 . S
H3581 C3605 0.951 . S
H3582 C3607 0.951 . S
H3583 C3609 0.950 . S
H3584 C3610 0.950 . S
H3585 C3612 0.950 . S
H3586 C3615 0.950 . S
H3587 C3616 0.950 . S
H3588 C3618 0.950 . S
H3589 C3619 0.950 . S
C3590 H3572 0.951 . S
C3590 C3591 1.366 . S
C3590 C3592 1.388 . S
C3591 C3590 1.366 . S
C3591 C3595 1.385 . S
C3592 H3573 0.951 . S
C3592 C3590 1.388 . S
C3592 C3593 1.366 . S
C3593 C3592 1.366 . S
C3593 C3594 1.414 . S
C3593 C3596 1.499 . S
C3594 H3574 0.950 . S
C3594 C3593 1.414 . S
C3594 C3595 1.374 . S
C3595 H3575 0.950 . S
C3595 C3591 1.385 . S
C3595 C3594 1.374 . S
C3596 C3593 1.499 . S
C3596 C3597 1.373 . S
C3596 C3598 1.389 . S
C3597 H3576 0.950 . S
C3597 C3596 1.373 . S
C3597 C3613 1.377 . S
C3598 C3596 1.389 . S
C3598 C3599 1.524 . S
C3598 C3612 1.377 . S
C3599 C3598 1.524 . S
C3599 C3600 1.397 . S
C3599 C3604 1.363 . S
C3600 H3577 0.950 . S
C3600 C3599 1.397 . S
C3600 C3601 1.334 . S
C3601 H3578 0.950 . S
C3601 C3600 1.334 . S
C3601 C3602 1.287 . S
C3602 C3601 1.287 . S
C3602 C3603 1.524 . S
C3602 H3621 0.913 . S
C3603 H3579 0.950 . S
C3603 C3602 1.524 . S
C3603 C3604 1.415 . S
C3604 H3580 0.950 . S
C3604 C3599 1.363 . S
C3604 C3603 1.415 . S
C3605 H3581 0.951 . S
C3605 C3606 1.366 . S
C3605 C3607 1.388 . S
C3606 C3605 1.366 . S
C3606 C3610 1.385 . S
C3607 H3582 0.951 . S
C3607 C3605 1.388 . S
C3607 C3608 1.366 . S
C3608 C3607 1.366 . S
C3608 C3609 1.414 . S
C3608 C3611 1.499 . S
C3609 H3583 0.950 . S
C3609 C3608 1.414 . S
C3609 C3610 1.374 . S
C3610 H3584 0.950 . S
C3610 C3606 1.385 . S
C3610 C3609 1.374 . S
C3611 C3608 1.499 . S
C3611 C3612 1.373 . S
C3611 C3613 1.389 . S
C3612 H3585 0.950 . S
C3612 C3598 1.377 . S
C3612 C3611 1.373 . S
C3613 C3597 1.377 . S
C3613 C3611 1.389 . S
C3613 C3614 1.524 . S
C3614 C3613 1.524 . S
C3614 C3615 1.397 . S
C3614 C3619 1.363 . S
C3615 H3586 0.950 . S
C3615 C3614 1.397 . S
C3615 C3616 1.334 . S
C3616 H3587 0.950 . S
C3616 C3615 1.334 . S
C3616 C3617 1.287 . S
C3617 C3616 1.287 . S
C3617 C3618 1.524 . S
C3617 H3620 0.999 . S
C3618 H3588 0.950 . S
C3618 C3617 1.524 . S
C3618 C3619 1.415 . S
C3619 H3589 0.950 . S
C3619 C3614 1.363 . S
C3619 C3618 1.415 . S
H3620 C3617 0.999 . S
H3621 C3602 0.913 . S
H3622 C3640 0.951 . S
H3623 C3642 0.951 . S
H3624 C3644 0.950 . S
H3625 C3645 0.950 . S
H3626 C3647 0.950 . S
H3627 C3650 0.950 . S
H3628 C3651 0.950 . S
H3629 C3653 0.950 . S
H3630 C3654 0.950 . S
H3631 C3655 0.951 . S
H3632 C3657 0.951 . S
H3633 C3659 0.950 . S
H3634 C3660 0.950 . S
H3635 C3662 0.950 . S
H3636 C3665 0.950 . S
H3637 C3666 0.950 . S
H3638 C3668 0.950 . S
H3639 C3669 0.950 . S
C3640 H3622 0.951 . S
C3640 C3641 1.366 . S
C3640 C3642 1.388 . S
C3641 C3640 1.366 . S
C3641 C3645 1.385 . S
C3642 H3623 0.951 . S
C3642 C3640 1.388 . S
C3642 C3643 1.366 . S
C3643 C3642 1.366 . S
C3643 C3644 1.414 . S
C3643 C3646 1.499 . S
C3644 H3624 0.950 . S
C3644 C3643 1.414 . S
C3644 C3645 1.374 . S
C3645 H3625 0.950 . S
C3645 C3641 1.385 . S
C3645 C3644 1.374 . S
C3646 C3643 1.499 . S
C3646 C3647 1.373 . S
C3646 C3648 1.389 . S
C3647 H3626 0.950 . S
C3647 C3646 1.373 . S
C3647 C3663 1.377 . S
C3648 C3646 1.389 . S
C3648 C3649 1.524 . S
C3648 C3662 1.377 . S
C3649 C3648 1.524 . S
C3649 C3650 1.397 . S
C3649 C3654 1.363 . S
C3650 H3627 0.950 . S
C3650 C3649 1.397 . S
C3650 C3651 1.334 . S
C3651 H3628 0.950 . S
C3651 C3650 1.334 . S
C3651 C3652 1.287 . S
C3652 C3651 1.287 . S
C3652 C3653 1.524 . S
C3652 H3671 0.913 . S
C3653 H3629 0.950 . S
C3653 C3652 1.524 . S
C3653 C3654 1.415 . S
C3654 H3630 0.950 . S
C3654 C3649 1.363 . S
C3654 C3653 1.415 . S
C3655 H3631 0.951 . S
C3655 C3656 1.366 . S
C3655 C3657 1.388 . S
C3656 C3655 1.366 . S
C3656 C3660 1.385 . S
C3657 H3632 0.951 . S
C3657 C3655 1.388 . S
C3657 C3658 1.366 . S
C3658 C3657 1.366 . S
C3658 C3659 1.414 . S
C3658 C3661 1.499 . S
C3659 H3633 0.950 . S
C3659 C3658 1.414 . S
C3659 C3660 1.374 . S
C3660 H3634 0.950 . S
C3660 C3656 1.385 . S
C3660 C3659 1.374 . S
C3661 C3658 1.499 . S
C3661 C3662 1.373 . S
C3661 C3663 1.389 . S
C3662 H3635 0.950 . S
C3662 C3648 1.377 . S
C3662 C3661 1.373 . S
C3663 C3647 1.377 . S
C3663 C3661 1.389 . S
C3663 C3664 1.524 . S
C3664 C3663 1.524 . S
C3664 C3665 1.397 . S
C3664 C3669 1.363 . S
C3665 H3636 0.950 . S
C3665 C3664 1.397 . S
C3665 C3666 1.334 . S
C3666 H3637 0.950 . S
C3666 C3665 1.334 . S
C3666 C3667 1.287 . S
C3667 C3666 1.287 . S
C3667 C3668 1.524 . S
C3667 H3670 0.999 . S
C3668 H3638 0.950 . S
C3668 C3667 1.524 . S
C3668 C3669 1.415 . S
C3669 H3639 0.950 . S
C3669 C3664 1.363 . S
C3669 C3668 1.415 . S
H3670 C3667 0.999 . S
H3671 C3652 0.913 . S
H3672 C3690 0.951 . S
H3673 C3692 0.951 . S
H3674 C3694 0.950 . S
H3675 C3695 0.950 . S
H3676 C3697 0.950 . S
H3677 C3700 0.950 . S
H3678 C3701 0.950 . S
H3679 C3703 0.950 . S
H3680 C3704 0.950 . S
H3681 C3705 0.951 . S
H3682 C3707 0.951 . S
H3683 C3709 0.950 . S
H3684 C3710 0.950 . S
H3685 C3712 0.950 . S
H3686 C3715 0.950 . S
H3687 C3716 0.950 . S
H3688 C3718 0.950 . S
H3689 C3719 0.950 . S
C3690 H3672 0.951 . S
C3690 C3691 1.366 . S
C3690 C3692 1.388 . S
C3691 C3690 1.366 . S
C3691 C3695 1.385 . S
C3692 H3673 0.951 . S
C3692 C3690 1.388 . S
C3692 C3693 1.366 . S
C3693 C3692 1.366 . S
C3693 C3694 1.414 . S
C3693 C3696 1.499 . S
C3694 H3674 0.950 . S
C3694 C3693 1.414 . S
C3694 C3695 1.374 . S
C3695 H3675 0.950 . S
C3695 C3691 1.385 . S
C3695 C3694 1.374 . S
C3696 C3693 1.499 . S
C3696 C3697 1.373 . S
C3696 C3698 1.389 . S
C3697 H3676 0.950 . S
C3697 C3696 1.373 . S
C3697 C3713 1.377 . S
C3698 C3696 1.389 . S
C3698 C3699 1.524 . S
C3698 C3712 1.377 . S
C3699 C3698 1.524 . S
C3699 C3700 1.397 . S
C3699 C3704 1.363 . S
C3700 H3677 0.950 . S
C3700 C3699 1.397 . S
C3700 C3701 1.334 . S
C3701 H3678 0.950 . S
C3701 C3700 1.334 . S
C3701 C3702 1.287 . S
C3702 C3701 1.287 . S
C3702 C3703 1.524 . S
C3702 H3721 0.913 . S
C3703 H3679 0.950 . S
C3703 C3702 1.524 . S
C3703 C3704 1.415 . S
C3704 H3680 0.950 . S
C3704 C3699 1.363 . S
C3704 C3703 1.415 . S
C3705 H3681 0.951 . S
C3705 C3706 1.366 . S
C3705 C3707 1.388 . S
C3706 C3705 1.366 . S
C3706 C3710 1.385 . S
C3707 H3682 0.951 . S
C3707 C3705 1.388 . S
C3707 C3708 1.366 . S
C3708 C3707 1.366 . S
C3708 C3709 1.414 . S
C3708 C3711 1.499 . S
C3709 H3683 0.950 . S
C3709 C3708 1.414 . S
C3709 C3710 1.374 . S
C3710 H3684 0.950 . S
C3710 C3706 1.385 . S
C3710 C3709 1.374 . S
C3711 C3708 1.499 . S
C3711 C3712 1.373 . S
C3711 C3713 1.389 . S
C3712 H3685 0.950 . S
C3712 C3698 1.377 . S
C3712 C3711 1.373 . S
C3713 C3697 1.377 . S
C3713 C3711 1.389 . S
C3713 C3714 1.524 . S
C3714 C3713 1.524 . S
C3714 C3715 1.397 . S
C3714 C3719 1.363 . S
C3715 H3686 0.950 . S
C3715 C3714 1.397 . S
C3715 C3716 1.334 . S
C3716 H3687 0.950 . S
C3716 C3715 1.334 . S
C3716 C3717 1.287 . S
C3717 C3716 1.287 . S
C3717 C3718 1.524 . S
C3717 H3720 0.999 . S
C3718 H3688 0.950 . S
C3718 C3717 1.524 . S
C3718 C3719 1.415 . S
C3719 H3689 0.950 . S
C3719 C3714 1.363 . S
C3719 C3718 1.415 . S
H3720 C3717 0.999 . S
H3721 C3702 0.913 . S
H3722 C3740 0.951 . S
H3723 C3742 0.951 . S
H3724 C3744 0.950 . S
H3725 C3745 0.950 . S
H3726 C3747 0.950 . S
H3727 C3750 0.950 . S
H3728 C3751 0.950 . S
H3729 C3753 0.950 . S
H3730 C3754 0.950 . S
H3731 C3755 0.951 . S
H3732 C3757 0.951 . S
H3733 C3759 0.950 . S
H3734 C3760 0.950 . S
H3735 C3762 0.950 . S
H3736 C3765 0.950 . S
H3737 C3766 0.950 . S
H3738 C3768 0.950 . S
H3739 C3769 0.950 . S
C3740 H3722 0.951 . S
C3740 C3741 1.366 . S
C3740 C3742 1.388 . S
C3741 C3740 1.366 . S
C3741 C3745 1.385 . S
C3742 H3723 0.951 . S
C3742 C3740 1.388 . S
C3742 C3743 1.366 . S
C3743 C3742 1.366 . S
C3743 C3744 1.414 . S
C3743 C3746 1.499 . S
C3744 H3724 0.950 . S
C3744 C3743 1.414 . S
C3744 C3745 1.374 . S
C3745 H3725 0.950 . S
C3745 C3741 1.385 . S
C3745 C3744 1.374 . S
C3746 C3743 1.499 . S
C3746 C3747 1.373 . S
C3746 C3748 1.389 . S
C3747 H3726 0.950 . S
C3747 C3746 1.373 . S
C3747 C3763 1.377 . S
C3748 C3746 1.389 . S
C3748 C3749 1.524 . S
C3748 C3762 1.377 . S
C3749 C3748 1.524 . S
C3749 C3750 1.397 . S
C3749 C3754 1.363 . S
C3750 H3727 0.950 . S
C3750 C3749 1.397 . S
C3750 C3751 1.334 . S
C3751 H3728 0.950 . S
C3751 C3750 1.334 . S
C3751 C3752 1.287 . S
C3752 C3751 1.287 . S
C3752 C3753 1.524 . S
C3752 H3771 0.913 . S
C3753 H3729 0.950 . S
C3753 C3752 1.524 . S
C3753 C3754 1.415 . S
C3754 H3730 0.950 . S
C3754 C3749 1.363 . S
C3754 C3753 1.415 . S
C3755 H3731 0.951 . S
C3755 C3756 1.366 . S
C3755 C3757 1.388 . S
C3756 C3755 1.366 . S
C3756 C3760 1.385 . S
C3757 H3732 0.951 . S
C3757 C3755 1.388 . S
C3757 C3758 1.366 . S
C3758 C3757 1.366 . S
C3758 C3759 1.414 . S
C3758 C3761 1.499 . S
C3759 H3733 0.950 . S
C3759 C3758 1.414 . S
C3759 C3760 1.374 . S
C3760 H3734 0.950 . S
C3760 C3756 1.385 . S
C3760 C3759 1.374 . S
C3761 C3758 1.499 . S
C3761 C3762 1.373 . S
C3761 C3763 1.389 . S
C3762 H3735 0.950 . S
C3762 C3748 1.377 . S
C3762 C3761 1.373 . S
C3763 C3747 1.377 . S
C3763 C3761 1.389 . S
C3763 C3764 1.524 . S
C3764 C3763 1.524 . S
C3764 C3765 1.397 . S
C3764 C3769 1.363 . S
C3765 H3736 0.950 . S
C3765 C3764 1.397 . S
C3765 C3766 1.334 . S
C3766 H3737 0.950 . S
C3766 C3765 1.334 . S
C3766 C3767 1.287 . S
C3767 C3766 1.287 . S
C3767 C3768 1.524 . S
C3767 H3770 0.999 . S
C3768 H3738 0.950 . S
C3768 C3767 1.524 . S
C3768 C3769 1.415 . S
C3769 H3739 0.950 . S
C3769 C3764 1.363 . S
C3769 C3768 1.415 . S
H3770 C3767 0.999 . S
H3771 C3752 0.913 . S
H3772 C3790 0.951 . S
H3773 C3792 0.951 . S
H3774 C3794 0.950 . S
H3775 C3795 0.950 . S
H3776 C3797 0.950 . S
H3777 C3800 0.950 . S
H3778 C3801 0.950 . S
H3779 C3803 0.950 . S
H3780 C3804 0.950 . S
H3781 C3805 0.951 . S
H3782 C3807 0.951 . S
H3783 C3809 0.950 . S
H3784 C3810 0.950 . S
H3785 C3812 0.950 . S
H3786 C3815 0.950 . S
H3787 C3816 0.950 . S
H3788 C3818 0.950 . S
H3789 C3819 0.950 . S
C3790 H3772 0.951 . S
C3790 C3791 1.366 . S
C3790 C3792 1.388 . S
C3791 C3790 1.366 . S
C3791 C3795 1.385 . S
C3792 H3773 0.951 . S
C3792 C3790 1.388 . S
C3792 C3793 1.366 . S
C3793 C3792 1.366 . S
C3793 C3794 1.414 . S
C3793 C3796 1.499 . S
C3794 H3774 0.950 . S
C3794 C3793 1.414 . S
C3794 C3795 1.374 . S
C3795 H3775 0.950 . S
C3795 C3791 1.385 . S
C3795 C3794 1.374 . S
C3796 C3793 1.499 . S
C3796 C3797 1.373 . S
C3796 C3798 1.389 . S
C3797 H3776 0.950 . S
C3797 C3796 1.373 . S
C3797 C3813 1.377 . S
C3798 C3796 1.389 . S
C3798 C3799 1.524 . S
C3798 C3812 1.377 . S
C3799 C3798 1.524 . S
C3799 C3800 1.397 . S
C3799 C3804 1.363 . S
C3800 H3777 0.950 . S
C3800 C3799 1.397 . S
C3800 C3801 1.334 . S
C3801 H3778 0.950 . S
C3801 C3800 1.334 . S
C3801 C3802 1.287 . S
C3802 C3801 1.287 . S
C3802 C3803 1.524 . S
C3802 H3821 0.913 . S
C3803 H3779 0.950 . S
C3803 C3802 1.524 . S
C3803 C3804 1.415 . S
C3804 H3780 0.950 . S
C3804 C3799 1.363 . S
C3804 C3803 1.415 . S
C3805 H3781 0.951 . S
C3805 C3806 1.366 . S
C3805 C3807 1.388 . S
C3806 C3805 1.366 . S
C3806 C3810 1.385 . S
C3807 H3782 0.951 . S
C3807 C3805 1.388 . S
C3807 C3808 1.366 . S
C3808 C3807 1.366 . S
C3808 C3809 1.414 . S
C3808 C3811 1.499 . S
C3809 H3783 0.950 . S
C3809 C3808 1.414 . S
C3809 C3810 1.374 . S
C3810 H3784 0.950 . S
C3810 C3806 1.385 . S
C3810 C3809 1.374 . S
C3811 C3808 1.499 . S
C3811 C3812 1.373 . S
C3811 C3813 1.389 . S
C3812 H3785 0.950 . S
C3812 C3798 1.377 . S
C3812 C3811 1.373 . S
C3813 C3797 1.377 . S
C3813 C3811 1.389 . S
C3813 C3814 1.524 . S
C3814 C3813 1.524 . S
C3814 C3815 1.397 . S
C3814 C3819 1.363 . S
C3815 H3786 0.950 . S
C3815 C3814 1.397 . S
C3815 C3816 1.334 . S
C3816 H3787 0.950 . S
C3816 C3815 1.334 . S
C3816 C3817 1.287 . S
C3817 C3816 1.287 . S
C3817 C3818 1.524 . S
C3817 H3820 0.999 . S
C3818 H3788 0.950 . S
C3818 C3817 1.524 . S
C3818 C3819 1.415 . S
C3819 H3789 0.950 . S
C3819 C3814 1.363 . S
C3819 C3818 1.415 . S
H3820 C3817 0.999 . S
H3821 C3802 0.913 . S
H3822 C3840 0.951 . S
H3823 C3842 0.951 . S
H3824 C3844 0.950 . S
H3825 C3845 0.950 . S
H3826 C3847 0.950 . S
H3827 C3850 0.950 . S
H3828 C3851 0.950 . S
H3829 C3853 0.950 . S
H3830 C3854 0.950 . S
H3831 C3855 0.951 . S
H3832 C3857 0.951 . S
H3833 C3859 0.950 . S
H3834 C3860 0.950 . S
H3835 C3862 0.950 . S
H3836 C3865 0.950 . S
H3837 C3866 0.950 . S
H3838 C3868 0.950 . S
H3839 C3869 0.950 . S
C3840 H3822 0.951 . S
C3840 C3841 1.366 . S
C3840 C3842 1.388 . S
C3841 C3840 1.366 . S
C3841 C3845 1.385 . S
C3842 H3823 0.951 . S
C3842 C3840 1.388 . S
C3842 C3843 1.366 . S
C3843 C3842 1.366 . S
C3843 C3844 1.414 . S
C3843 C3846 1.499 . S
C3844 H3824 0.950 . S
C3844 C3843 1.414 . S
C3844 C3845 1.374 . S
C3845 H3825 0.950 . S
C3845 C3841 1.385 . S
C3845 C3844 1.374 . S
C3846 C3843 1.499 . S
C3846 C3847 1.373 . S
C3846 C3848 1.389 . S
C3847 H3826 0.950 . S
C3847 C3846 1.373 . S
C3847 C3863 1.377 . S
C3848 C3846 1.389 . S
C3848 C3849 1.524 . S
C3848 C3862 1.377 . S
C3849 C3848 1.524 . S
C3849 C3850 1.397 . S
C3849 C3854 1.363 . S
C3850 H3827 0.950 . S
C3850 C3849 1.397 . S
C3850 C3851 1.334 . S
C3851 H3828 0.950 . S
C3851 C3850 1.334 . S
C3851 C3852 1.287 . S
C3852 C3851 1.287 . S
C3852 C3853 1.524 . S
C3852 H3871 0.913 . S
C3853 H3829 0.950 . S
C3853 C3852 1.524 . S
C3853 C3854 1.415 . S
C3854 H3830 0.950 . S
C3854 C3849 1.363 . S
C3854 C3853 1.415 . S
C3855 H3831 0.951 . S
C3855 C3856 1.366 . S
C3855 C3857 1.388 . S
C3856 C3855 1.366 . S
C3856 C3860 1.385 . S
C3857 H3832 0.951 . S
C3857 C3855 1.388 . S
C3857 C3858 1.366 . S
C3858 C3857 1.366 . S
C3858 C3859 1.414 . S
C3858 C3861 1.499 . S
C3859 H3833 0.950 . S
C3859 C3858 1.414 . S
C3859 C3860 1.374 . S
C3860 H3834 0.950 . S
C3860 C3856 1.385 . S
C3860 C3859 1.374 . S
C3861 C3858 1.499 . S
C3861 C3862 1.373 . S
C3861 C3863 1.389 . S
C3862 H3835 0.950 . S
C3862 C3848 1.377 . S
C3862 C3861 1.373 . S
C3863 C3847 1.377 . S
C3863 C3861 1.389 . S
C3863 C3864 1.524 . S
C3864 C3863 1.524 . S
C3864 C3865 1.397 . S
C3864 C3869 1.363 . S
C3865 H3836 0.950 . S
C3865 C3864 1.397 . S
C3865 C3866 1.334 . S
C3866 H3837 0.950 . S
C3866 C3865 1.334 . S
C3866 C3867 1.287 . S
C3867 C3866 1.287 . S
C3867 C3868 1.524 . S
C3867 H3870 0.999 . S
C3868 H3838 0.950 . S
C3868 C3867 1.524 . S
C3868 C3869 1.415 . S
C3869 H3839 0.950 . S
C3869 C3864 1.363 . S
C3869 C3868 1.415 . S
H3870 C3867 0.999 . S
H3871 C3852 0.913 . S
H3872 C3890 0.951 . S
H3873 C3892 0.951 . S
H3874 C3894 0.950 . S
H3875 C3895 0.950 . S
H3876 C3897 0.950 . S
H3877 C3900 0.950 . S
H3878 C3901 0.950 . S
H3879 C3903 0.950 . S
H3880 C3904 0.950 . S
H3881 C3905 0.951 . S
H3882 C3907 0.951 . S
H3883 C3909 0.950 . S
H3884 C3910 0.950 . S
H3885 C3912 0.950 . S
H3886 C3915 0.950 . S
H3887 C3916 0.950 . S
H3888 C3918 0.950 . S
H3889 C3919 0.950 . S
C3890 H3872 0.951 . S
C3890 C3891 1.366 . S
C3890 C3892 1.388 . S
C3891 C3890 1.366 . S
C3891 C3895 1.385 . S
C3892 H3873 0.951 . S
C3892 C3890 1.388 . S
C3892 C3893 1.366 . S
C3893 C3892 1.366 . S
C3893 C3894 1.414 . S
C3893 C3896 1.499 . S
C3894 H3874 0.950 . S
C3894 C3893 1.414 . S
C3894 C3895 1.374 . S
C3895 H3875 0.950 . S
C3895 C3891 1.385 . S
C3895 C3894 1.374 . S
C3896 C3893 1.499 . S
C3896 C3897 1.373 . S
C3896 C3898 1.389 . S
C3897 H3876 0.950 . S
C3897 C3896 1.373 . S
C3897 C3913 1.377 . S
C3898 C3896 1.389 . S
C3898 C3899 1.524 . S
C3898 C3912 1.377 . S
C3899 C3898 1.524 . S
C3899 C3900 1.397 . S
C3899 C3904 1.363 . S
C3900 H3877 0.950 . S
C3900 C3899 1.397 . S
C3900 C3901 1.334 . S
C3901 H3878 0.950 . S
C3901 C3900 1.334 . S
C3901 C3902 1.287 . S
C3902 C3901 1.287 . S
C3902 C3903 1.524 . S
C3902 H3921 0.913 . S
C3903 H3879 0.950 . S
C3903 C3902 1.524 . S
C3903 C3904 1.415 . S
C3904 H3880 0.950 . S
C3904 C3899 1.363 . S
C3904 C3903 1.415 . S
C3905 H3881 0.951 . S
C3905 C3906 1.366 . S
C3905 C3907 1.388 . S
C3906 C3905 1.366 . S
C3906 C3910 1.385 . S
C3907 H3882 0.951 . S
C3907 C3905 1.388 . S
C3907 C3908 1.366 . S
C3908 C3907 1.366 . S
C3908 C3909 1.414 . S
C3908 C3911 1.499 . S
C3909 H3883 0.950 . S
C3909 C3908 1.414 . S
C3909 C3910 1.374 . S
C3910 H3884 0.950 . S
C3910 C3906 1.385 . S
C3910 C3909 1.374 . S
C3911 C3908 1.499 . S
C3911 C3912 1.373 . S
C3911 C3913 1.389 . S
C3912 H3885 0.950 . S
C3912 C3898 1.377 . S
C3912 C3911 1.373 . S
C3913 C3897 1.377 . S
C3913 C3911 1.389 . S
C3913 C3914 1.524 . S
C3914 C3913 1.524 . S
C3914 C3915 1.397 . S
C3914 C3919 1.363 . S
C3915 H3886 0.950 . S
C3915 C3914 1.397 . S
C3915 C3916 1.334 . S
C3916 H3887 0.950 . S
C3916 C3915 1.334 . S
C3916 C3917 1.287 . S
C3917 C3916 1.287 . S
C3917 C3918 1.524 . S
C3917 H3920 0.999 . S
C3918 H3888 0.950 . S
C3918 C3917 1.524 . S
C3918 C3919 1.415 . S
C3919 H3889 0.950 . S
C3919 C3914 1.363 . S
C3919 C3918 1.415 . S
H3920 C3917 0.999 . S
H3921 C3902 0.913 . S
H3922 C3940 0.951 . S
H3923 C3942 0.951 . S
H3924 C3944 0.950 . S
H3925 C3945 0.950 . S
H3926 C3947 0.950 . S
H3927 C3950 0.950 . S
H3928 C3951 0.950 . S
H3929 C3953 0.950 . S
H3930 C3954 0.950 . S
H3931 C3955 0.951 . S
H3932 C3957 0.951 . S
H3933 C3959 0.950 . S
H3934 C3960 0.950 . S
H3935 C3962 0.950 . S
H3936 C3965 0.950 . S
H3937 C3966 0.950 . S
H3938 C3968 0.950 . S
H3939 C3969 0.950 . S
C3940 H3922 0.951 . S
C3940 C3941 1.366 . S
C3940 C3942 1.388 . S
C3941 C3940 1.366 . S
C3941 C3945 1.385 . S
C3942 H3923 0.951 . S
C3942 C3940 1.388 . S
C3942 C3943 1.366 . S
C3943 C3942 1.366 . S
C3943 C3944 1.414 . S
C3943 C3946 1.499 . S
C3944 H3924 0.950 . S
C3944 C3943 1.414 . S
C3944 C3945 1.374 . S
C3945 H3925 0.950 . S
C3945 C3941 1.385 . S
C3945 C3944 1.374 . S
C3946 C3943 1.499 . S
C3946 C3947 1.373 . S
C3946 C3948 1.389 . S
C3947 H3926 0.950 . S
C3947 C3946 1.373 . S
C3947 C3963 1.377 . S
C3948 C3946 1.389 . S
C3948 C3949 1.524 . S
C3948 C3962 1.377 . S
C3949 C3948 1.524 . S
C3949 C3950 1.397 . S
C3949 C3954 1.363 . S
C3950 H3927 0.950 . S
C3950 C3949 1.397 . S
C3950 C3951 1.334 . S
C3951 H3928 0.950 . S
C3951 C3950 1.334 . S
C3951 C3952 1.287 . S
C3952 C3951 1.287 . S
C3952 C3953 1.524 . S
C3952 H3971 0.913 . S
C3953 H3929 0.950 . S
C3953 C3952 1.524 . S
C3953 C3954 1.415 . S
C3954 H3930 0.950 . S
C3954 C3949 1.363 . S
C3954 C3953 1.415 . S
C3955 H3931 0.951 . S
C3955 C3956 1.366 . S
C3955 C3957 1.388 . S
C3956 C3955 1.366 . S
C3956 C3960 1.385 . S
C3957 H3932 0.951 . S
C3957 C3955 1.388 . S
C3957 C3958 1.366 . S
C3958 C3957 1.366 . S
C3958 C3959 1.414 . S
C3958 C3961 1.499 . S
C3959 H3933 0.950 . S
C3959 C3958 1.414 . S
C3959 C3960 1.374 . S
C3960 H3934 0.950 . S
C3960 C3956 1.385 . S
C3960 C3959 1.374 . S
C3961 C3958 1.499 . S
C3961 C3962 1.373 . S
C3961 C3963 1.389 . S
C3962 H3935 0.950 . S
C3962 C3948 1.377 . S
C3962 C3961 1.373 . S
C3963 C3947 1.377 . S
C3963 C3961 1.389 . S
C3963 C3964 1.524 . S
C3964 C3963 1.524 . S
C3964 C3965 1.397 . S
C3964 C3969 1.363 . S
C3965 H3936 0.950 . S
C3965 C3964 1.397 . S
C3965 C3966 1.334 . S
C3966 H3937 0.950 . S
C3966 C3965 1.334 . S
C3966 C3967 1.287 . S
C3967 C3966 1.287 . S
C3967 C3968 1.524 . S
C3967 H3970 0.999 . S
C3968 H3938 0.950 . S
C3968 C3967 1.524 . S
C3968 C3969 1.415 . S
C3969 H3939 0.950 . S
C3969 C3964 1.363 . S
C3969 C3968 1.415 . S
H3970 C3967 0.999 . S
H3971 C3952 0.913 . S
H3972 C3990 0.951 . S
H3973 C3992 0.951 . S
H3974 C3994 0.950 . S
H3975 C3995 0.950 . S
H3976 C3997 0.950 . S
H3977 C4000 0.950 . S
H3978 C4001 0.950 . S
H3979 C4003 0.950 . S
H3980 C4004 0.950 . S
H3981 C4005 0.951 . S
H3982 C4007 0.951 . S
H3983 C4009 0.950 . S
H3984 C4010 0.950 . S
H3985 C4012 0.950 . S
H3986 C4015 0.950 . S
H3987 C4016 0.950 . S
H3988 C4018 0.950 . S
H3989 C4019 0.950 . S
C3990 H3972 0.951 . S
C3990 C3991 1.366 . S
C3990 C3992 1.388 . S
C3991 C3990 1.366 . S
C3991 C3995 1.385 . S
C3992 H3973 0.951 . S
C3992 C3990 1.388 . S
C3992 C3993 1.366 . S
C3993 C3992 1.366 . S
C3993 C3994 1.414 . S
C3993 C3996 1.499 . S
C3994 H3974 0.950 . S
C3994 C3993 1.414 . S
C3994 C3995 1.374 . S
C3995 H3975 0.950 . S
C3995 C3991 1.385 . S
C3995 C3994 1.374 . S
C3996 C3993 1.499 . S
C3996 C3997 1.373 . S
C3996 C3998 1.389 . S
C3997 H3976 0.950 . S
C3997 C3996 1.373 . S
C3997 C4013 1.377 . S
C3998 C3996 1.389 . S
C3998 C3999 1.524 . S
C3998 C4012 1.377 . S
C3999 C3998 1.524 . S
C3999 C4000 1.397 . S
C3999 C4004 1.363 . S
C4000 H3977 0.950 . S
C4000 C3999 1.397 . S
C4000 C4001 1.334 . S
C4001 H3978 0.950 . S
C4001 C4000 1.334 . S
C4001 C4002 1.287 . S
C4002 C4001 1.287 . S
C4002 C4003 1.524 . S
C4002 H4021 0.913 . S
C4003 H3979 0.950 . S
C4003 C4002 1.524 . S
C4003 C4004 1.415 . S
C4004 H3980 0.950 . S
C4004 C3999 1.363 . S
C4004 C4003 1.415 . S
C4005 H3981 0.951 . S
C4005 C4006 1.366 . S
C4005 C4007 1.388 . S
C4006 C4005 1.366 . S
C4006 C4010 1.385 . S
C4007 H3982 0.951 . S
C4007 C4005 1.388 . S
C4007 C4008 1.366 . S
C4008 C4007 1.366 . S
C4008 C4009 1.414 . S
C4008 C4011 1.499 . S
C4009 H3983 0.950 . S
C4009 C4008 1.414 . S
C4009 C4010 1.374 . S
C4010 H3984 0.950 . S
C4010 C4006 1.385 . S
C4010 C4009 1.374 . S
C4011 C4008 1.499 . S
C4011 C4012 1.373 . S
C4011 C4013 1.389 . S
C4012 H3985 0.950 . S
C4012 C3998 1.377 . S
C4012 C4011 1.373 . S
C4013 C3997 1.377 . S
C4013 C4011 1.389 . S
C4013 C4014 1.524 . S
C4014 C4013 1.524 . S
C4014 C4015 1.397 . S
C4014 C4019 1.363 . S
C4015 H3986 0.950 . S
C4015 C4014 1.397 . S
C4015 C4016 1.334 . S
C4016 H3987 0.950 . S
C4016 C4015 1.334 . S
C4016 C4017 1.287 . S
C4017 C4016 1.287 . S
C4017 C4018 1.524 . S
C4017 H4020 0.999 . S
C4018 H3988 0.950 . S
C4018 C4017 1.524 . S
C4018 C4019 1.415 . S
C4019 H3989 0.950 . S
C4019 C4014 1.363 . S
C4019 C4018 1.415 . S
H4020 C4017 0.999 . S
H4021 C4002 0.913 . S
H4022 C4040 0.951 . S
H4023 C4042 0.951 . S
H4024 C4044 0.950 . S
H4025 C4045 0.950 . S
H4026 C4047 0.950 . S
H4027 C4050 0.950 . S
H4028 C4051 0.950 . S
H4029 C4053 0.950 . S
H4030 C4054 0.950 . S
H4031 C4055 0.951 . S
H4032 C4057 0.951 . S
H4033 C4059 0.950 . S
H4034 C4060 0.950 . S
H4035 C4062 0.950 . S
H4036 C4065 0.950 . S
H4037 C4066 0.950 . S
H4038 C4068 0.950 . S
H4039 C4069 0.950 . S
C4040 H4022 0.951 . S
C4040 C4041 1.366 . S
C4040 C4042 1.388 . S
C4041 C4040 1.366 . S
C4041 C4045 1.385 . S
C4042 H4023 0.951 . S
C4042 C4040 1.388 . S
C4042 C4043 1.366 . S
C4043 C4042 1.366 . S
C4043 C4044 1.414 . S
C4043 C4046 1.499 . S
C4044 H4024 0.950 . S
C4044 C4043 1.414 . S
C4044 C4045 1.374 . S
C4045 H4025 0.950 . S
C4045 C4041 1.385 . S
C4045 C4044 1.374 . S
C4046 C4043 1.499 . S
C4046 C4047 1.373 . S
C4046 C4048 1.389 . S
C4047 H4026 0.950 . S
C4047 C4046 1.373 . S
C4047 C4063 1.377 . S
C4048 C4046 1.389 . S
C4048 C4049 1.524 . S
C4048 C4062 1.377 . S
C4049 C4048 1.524 . S
C4049 C4050 1.397 . S
C4049 C4054 1.363 . S
C4050 H4027 0.950 . S
C4050 C4049 1.397 . S
C4050 C4051 1.334 . S
C4051 H4028 0.950 . S
C4051 C4050 1.334 . S
C4051 C4052 1.287 . S
C4052 C4051 1.287 . S
C4052 C4053 1.524 . S
C4052 H4071 0.913 . S
C4053 H4029 0.950 . S
C4053 C4052 1.524 . S
C4053 C4054 1.415 . S
C4054 H4030 0.950 . S
C4054 C4049 1.363 . S
C4054 C4053 1.415 . S
C4055 H4031 0.951 . S
C4055 C4056 1.366 . S
C4055 C4057 1.388 . S
C4056 C4055 1.366 . S
C4056 C4060 1.385 . S
C4057 H4032 0.951 . S
C4057 C4055 1.388 . S
C4057 C4058 1.366 . S
C4058 C4057 1.366 . S
C4058 C4059 1.414 . S
C4058 C4061 1.499 . S
C4059 H4033 0.950 . S
C4059 C4058 1.414 . S
C4059 C4060 1.374 . S
C4060 H4034 0.950 . S
C4060 C4056 1.385 . S
C4060 C4059 1.374 . S
C4061 C4058 1.499 . S
C4061 C4062 1.373 . S
C4061 C4063 1.389 . S
C4062 H4035 0.950 . S
C4062 C4048 1.377 . S
C4062 C4061 1.373 . S
C4063 C4047 1.377 . S
C4063 C4061 1.389 . S
C4063 C4064 1.524 . S
C4064 C4063 1.524 . S
C4064 C4065 1.397 . S
C4064 C4069 1.363 . S
C4065 H4036 0.950 . S
C4065 C4064 1.397 . S
C4065 C4066 1.334 . S
C4066 H4037 0.950 . S
C4066 C4065 1.334 . S
C4066 C4067 1.287 . S
C4067 C4066 1.287 . S
C4067 C4068 1.524 . S
C4067 H4070 0.999 . S
C4068 H4038 0.950 . S
C4068 C4067 1.524 . S
C4068 C4069 1.415 . S
C4069 H4039 0.950 . S
C4069 C4064 1.363 . S
C4069 C4068 1.415 . S
H4070 C4067 0.999 . S
H4071 C4052 0.913 . S
H4072 C4090 0.951 . S
H4073 C4092 0.951 . S
H4074 C4094 0.950 . S
H4075 C4095 0.950 . S
H4076 C4097 0.950 . S
H4077 C4100 0.950 . S
H4078 C4101 0.950 . S
H4079 C4103 0.950 . S
H4080 C4104 0.950 . S
H4081 C4105 0.951 . S
H4082 C4107 0.951 . S
H4083 C4109 0.950 . S
H4084 C4110 0.950 . S
H4085 C4112 0.950 . S
H4086 C4115 0.950 . S
H4087 C4116 0.950 . S
H4088 C4118 0.950 . S
H4089 C4119 0.950 . S
C4090 H4072 0.951 . S
C4090 C4091 1.366 . S
C4090 C4092 1.388 . S
C4091 C4090 1.366 . S
C4091 C4095 1.385 . S
C4092 H4073 0.951 . S
C4092 C4090 1.388 . S
C4092 C4093 1.366 . S
C4093 C4092 1.366 . S
C4093 C4094 1.414 . S
C4093 C4096 1.499 . S
C4094 H4074 0.950 . S
C4094 C4093 1.414 . S
C4094 C4095 1.374 . S
C4095 H4075 0.950 . S
C4095 C4091 1.385 . S
C4095 C4094 1.374 . S
C4096 C4093 1.499 . S
C4096 C4097 1.373 . S
C4096 C4098 1.389 . S
C4097 H4076 0.950 . S
C4097 C4096 1.373 . S
C4097 C4113 1.377 . S
C4098 C4096 1.389 . S
C4098 C4099 1.524 . S
C4098 C4112 1.377 . S
C4099 C4098 1.524 . S
C4099 C4100 1.397 . S
C4099 C4104 1.363 . S
C4100 H4077 0.950 . S
C4100 C4099 1.397 . S
C4100 C4101 1.334 . S
C4101 H4078 0.950 . S
C4101 C4100 1.334 . S
C4101 C4102 1.287 . S
C4102 C4101 1.287 . S
C4102 C4103 1.524 . S
C4102 H4121 0.913 . S
C4103 H4079 0.950 . S
C4103 C4102 1.524 . S
C4103 C4104 1.415 . S
C4104 H4080 0.950 . S
C4104 C4099 1.363 . S
C4104 C4103 1.415 . S
C4105 H4081 0.951 . S
C4105 C4106 1.366 . S
C4105 C4107 1.388 . S
C4106 C4105 1.366 . S
C4106 C4110 1.385 . S
C4107 H4082 0.951 . S
C4107 C4105 1.388 . S
C4107 C4108 1.366 . S
C4108 C4107 1.366 . S
C4108 C4109 1.414 . S
C4108 C4111 1.499 . S
C4109 H4083 0.950 . S
C4109 C4108 1.414 . S
C4109 C4110 1.374 . S
C4110 H4084 0.950 . S
C4110 C4106 1.385 . S
C4110 C4109 1.374 . S
C4111 C4108 1.499 . S
C4111 C4112 1.373 . S
C4111 C4113 1.389 . S
C4112 H4085 0.950 . S
C4112 C4098 1.377 . S
C4112 C4111 1.373 . S
C4113 C4097 1.377 . S
C4113 C4111 1.389 . S
C4113 C4114 1.524 . S
C4114 C4113 1.524 . S
C4114 C4115 1.397 . S
C4114 C4119 1.363 . S
C4115 H4086 0.950 . S
C4115 C4114 1.397 . S
C4115 C4116 1.334 . S
C4116 H4087 0.950 . S
C4116 C4115 1.334 . S
C4116 C4117 1.287 . S
C4117 C4116 1.287 . S
C4117 C4118 1.524 . S
C4117 H4120 0.999 . S
C4118 H4088 0.950 . S
C4118 C4117 1.524 . S
C4118 C4119 1.415 . S
C4119 H4089 0.950 . S
C4119 C4114 1.363 . S
C4119 C4118 1.415 . S
H4120 C4117 0.999 . S
H4121 C4102 0.913 . S
H4122 C4140 0.951 . S
H4123 C4142 0.951 . S
H4124 C4144 0.950 . S
H4125 C4145 0.950 . S
H4126 C4147 0.950 . S
H4127 C4150 0.950 . S
H4128 C4151 0.950 . S
H4129 C4153 0.950 . S
H4130 C4154 0.950 . S
H4131 C4155 0.951 . S
H4132 C4157 0.951 . S
H4133 C4159 0.950 . S
H4134 C4160 0.950 . S
H4135 C4162 0.950 . S
H4136 C4165 0.950 . S
H4137 C4166 0.950 . S
H4138 C4168 0.950 . S
H4139 C4169 0.950 . S
C4140 H4122 0.951 . S
C4140 C4141 1.366 . S
C4140 C4142 1.388 . S
C4141 C4140 1.366 . S
C4141 C4145 1.385 . S
C4142 H4123 0.951 . S
C4142 C4140 1.388 . S
C4142 C4143 1.366 . S
C4143 C4142 1.366 . S
C4143 C4144 1.414 . S
C4143 C4146 1.499 . S
C4144 H4124 0.950 . S
C4144 C4143 1.414 . S
C4144 C4145 1.374 . S
C4145 H4125 0.950 . S
C4145 C4141 1.385 . S
C4145 C4144 1.374 . S
C4146 C4143 1.499 . S
C4146 C4147 1.373 . S
C4146 C4148 1.389 . S
C4147 H4126 0.950 . S
C4147 C4146 1.373 . S
C4147 C4163 1.377 . S
C4148 C4146 1.389 . S
C4148 C4149 1.524 . S
C4148 C4162 1.377 . S
C4149 C4148 1.524 . S
C4149 C4150 1.397 . S
C4149 C4154 1.363 . S
C4150 H4127 0.950 . S
C4150 C4149 1.397 . S
C4150 C4151 1.334 . S
C4151 H4128 0.950 . S
C4151 C4150 1.334 . S
C4151 C4152 1.287 . S
C4152 C4151 1.287 . S
C4152 C4153 1.524 . S
C4152 H4171 0.913 . S
C4153 H4129 0.950 . S
C4153 C4152 1.524 . S
C4153 C4154 1.415 . S
C4154 H4130 0.950 . S
C4154 C4149 1.363 . S
C4154 C4153 1.415 . S
C4155 H4131 0.951 . S
C4155 C4156 1.366 . S
C4155 C4157 1.388 . S
C4156 C4155 1.366 . S
C4156 C4160 1.385 . S
C4157 H4132 0.951 . S
C4157 C4155 1.388 . S
C4157 C4158 1.366 . S
C4158 C4157 1.366 . S
C4158 C4159 1.414 . S
C4158 C4161 1.499 . S
C4159 H4133 0.950 . S
C4159 C4158 1.414 . S
C4159 C4160 1.374 . S
C4160 H4134 0.950 . S
C4160 C4156 1.385 . S
C4160 C4159 1.374 . S
C4161 C4158 1.499 . S
C4161 C4162 1.373 . S
C4161 C4163 1.389 . S
C4162 H4135 0.950 . S
C4162 C4148 1.377 . S
C4162 C4161 1.373 . S
C4163 C4147 1.377 . S
C4163 C4161 1.389 . S
C4163 C4164 1.524 . S
C4164 C4163 1.524 . S
C4164 C4165 1.397 . S
C4164 C4169 1.363 . S
C4165 H4136 0.950 . S
C4165 C4164 1.397 . S
C4165 C4166 1.334 . S
C4166 H4137 0.950 . S
C4166 C4165 1.334 . S
C4166 C4167 1.287 . S
C4167 C4166 1.287 . S
C4167 C4168 1.524 . S
C4167 H4170 0.999 . S
C4168 H4138 0.950 . S
C4168 C4167 1.524 . S
C4168 C4169 1.415 . S
C4169 H4139 0.950 . S
C4169 C4164 1.363 . S
C4169 C4168 1.415 . S
H4170 C4167 0.999 . S
H4171 C4152 0.913 . S
H4172 C4190 0.951 . S
H4173 C4192 0.951 . S
H4174 C4194 0.950 . S
H4175 C4195 0.950 . S
H4176 C4197 0.950 . S
H4177 C4200 0.950 . S
H4178 C4201 0.950 . S
H4179 C4203 0.950 . S
H4180 C4204 0.950 . S
H4181 C4205 0.951 . S
H4182 C4207 0.951 . S
H4183 C4209 0.950 . S
H4184 C4210 0.950 . S
H4185 C4212 0.950 . S
H4186 C4215 0.950 . S
H4187 C4216 0.950 . S
H4188 C4218 0.950 . S
H4189 C4219 0.950 . S
C4190 H4172 0.951 . S
C4190 C4191 1.366 . S
C4190 C4192 1.388 . S
C4191 C4190 1.366 . S
C4191 C4195 1.385 . S
C4192 H4173 0.951 . S
C4192 C4190 1.388 . S
C4192 C4193 1.366 . S
C4193 C4192 1.366 . S
C4193 C4194 1.414 . S
C4193 C4196 1.499 . S
C4194 H4174 0.950 . S
C4194 C4193 1.414 . S
C4194 C4195 1.374 . S
C4195 H4175 0.950 . S
C4195 C4191 1.385 . S
C4195 C4194 1.374 . S
C4196 C4193 1.499 . S
C4196 C4197 1.373 . S
C4196 C4198 1.389 . S
C4197 H4176 0.950 . S
C4197 C4196 1.373 . S
C4197 C4213 1.377 . S
C4198 C4196 1.389 . S
C4198 C4199 1.524 . S
C4198 C4212 1.377 . S
C4199 C4198 1.524 . S
C4199 C4200 1.397 . S
C4199 C4204 1.363 . S
C4200 H4177 0.950 . S
C4200 C4199 1.397 . S
C4200 C4201 1.334 . S
C4201 H4178 0.950 . S
C4201 C4200 1.334 . S
C4201 C4202 1.287 . S
C4202 C4201 1.287 . S
C4202 C4203 1.524 . S
C4202 H4221 0.913 . S
C4203 H4179 0.950 . S
C4203 C4202 1.524 . S
C4203 C4204 1.415 . S
C4204 H4180 0.950 . S
C4204 C4199 1.363 . S
C4204 C4203 1.415 . S
C4205 H4181 0.951 . S
C4205 C4206 1.366 . S
C4205 C4207 1.388 . S
C4206 C4205 1.366 . S
C4206 C4210 1.385 . S
C4207 H4182 0.951 . S
C4207 C4205 1.388 . S
C4207 C4208 1.366 . S
C4208 C4207 1.366 . S
C4208 C4209 1.414 . S
C4208 C4211 1.499 . S
C4209 H4183 0.950 . S
C4209 C4208 1.414 . S
C4209 C4210 1.374 . S
C4210 H4184 0.950 . S
C4210 C4206 1.385 . S
C4210 C4209 1.374 . S
C4211 C4208 1.499 . S
C4211 C4212 1.373 . S
C4211 C4213 1.389 . S
C4212 H4185 0.950 . S
C4212 C4198 1.377 . S
C4212 C4211 1.373 . S
C4213 C4197 1.377 . S
C4213 C4211 1.389 . S
C4213 C4214 1.524 . S
C4214 C4213 1.524 . S
C4214 C4215 1.397 . S
C4214 C4219 1.363 . S
C4215 H4186 0.950 . S
C4215 C4214 1.397 . S
C4215 C4216 1.334 . S
C4216 H4187 0.950 . S
C4216 C4215 1.334 . S
C4216 C4217 1.287 . S
C4217 C4216 1.287 . S
C4217 C4218 1.524 . S
C4217 H4220 0.999 . S
C4218 H4188 0.950 . S
C4218 C4217 1.524 . S
C4218 C4219 1.415 . S
C4219 H4189 0.950 . S
C4219 C4214 1.363 . S
C4219 C4218 1.415 . S
H4220 C4217 0.999 . S
H4221 C4202 0.913 . S
H4222 C4240 0.951 . S
H4223 C4242 0.951 . S
H4224 C4244 0.950 . S
H4225 C4245 0.950 . S
H4226 C4247 0.950 . S
H4227 C4250 0.950 . S
H4228 C4251 0.950 . S
H4229 C4253 0.950 . S
H4230 C4254 0.950 . S
H4231 C4255 0.951 . S
H4232 C4257 0.951 . S
H4233 C4259 0.950 . S
H4234 C4260 0.950 . S
H4235 C4262 0.950 . S
H4236 C4265 0.950 . S
H4237 C4266 0.950 . S
H4238 C4268 0.950 . S
H4239 C4269 0.950 . S
C4240 H4222 0.951 . S
C4240 C4241 1.366 . S
C4240 C4242 1.388 . S
C4241 C4240 1.366 . S
C4241 C4245 1.385 . S
C4242 H4223 0.951 . S
C4242 C4240 1.388 . S
C4242 C4243 1.366 . S
C4243 C4242 1.366 . S
C4243 C4244 1.414 . S
C4243 C4246 1.499 . S
C4244 H4224 0.950 . S
C4244 C4243 1.414 . S
C4244 C4245 1.374 . S
C4245 H4225 0.950 . S
C4245 C4241 1.385 . S
C4245 C4244 1.374 . S
C4246 C4243 1.499 . S
C4246 C4247 1.373 . S
C4246 C4248 1.389 . S
C4247 H4226 0.950 . S
C4247 C4246 1.373 . S
C4247 C4263 1.377 . S
C4248 C4246 1.389 . S
C4248 C4249 1.524 . S
C4248 C4262 1.377 . S
C4249 C4248 1.524 . S
C4249 C4250 1.397 . S
C4249 C4254 1.363 . S
C4250 H4227 0.950 . S
C4250 C4249 1.397 . S
C4250 C4251 1.334 . S
C4251 H4228 0.950 . S
C4251 C4250 1.334 . S
C4251 C4252 1.287 . S
C4252 C4251 1.287 . S
C4252 C4253 1.524 . S
C4252 H4271 0.913 . S
C4253 H4229 0.950 . S
C4253 C4252 1.524 . S
C4253 C4254 1.415 . S
C4254 H4230 0.950 . S
C4254 C4249 1.363 . S
C4254 C4253 1.415 . S
C4255 H4231 0.951 . S
C4255 C4256 1.366 . S
C4255 C4257 1.388 . S
C4256 C4255 1.366 . S
C4256 C4260 1.385 . S
C4257 H4232 0.951 . S
C4257 C4255 1.388 . S
C4257 C4258 1.366 . S
C4258 C4257 1.366 . S
C4258 C4259 1.414 . S
C4258 C4261 1.499 . S
C4259 H4233 0.950 . S
C4259 C4258 1.414 . S
C4259 C4260 1.374 . S
C4260 H4234 0.950 . S
C4260 C4256 1.385 . S
C4260 C4259 1.374 . S
C4261 C4258 1.499 . S
C4261 C4262 1.373 . S
C4261 C4263 1.389 . S
C4262 H4235 0.950 . S
C4262 C4248 1.377 . S
C4262 C4261 1.373 . S
C4263 C4247 1.377 . S
C4263 C4261 1.389 . S
C4263 C4264 1.524 . S
C4264 C4263 1.524 . S
C4264 C4265 1.397 . S
C4264 C4269 1.363 . S
C4265 H4236 0.950 . S
C4265 C4264 1.397 . S
C4265 C4266 1.334 . S
C4266 H4237 0.950 . S
C4266 C4265 1.334 . S
C4266 C4267 1.287 . S
C4267 C4266 1.287 . S
C4267 C4268 1.524 . S
C4267 H4270 0.999 . S
C4268 H4238 0.950 . S
C4268 C4267 1.524 . S
C4268 C4269 1.415 . S
C4269 H4239 0.950 . S
C4269 C4264 1.363 . S
C4269 C4268 1.415 . S
H4270 C4267 0.999 . S
H4271 C4252 0.913 . S
H4272 C4290 0.951 . S
H4273 C4292 0.951 . S
H4274 C4294 0.950 . S
H4275 C4295 0.950 . S
H4276 C4297 0.950 . S
H4277 C4300 0.950 . S
H4278 C4301 0.950 . S
H4279 C4303 0.950 . S
H4280 C4304 0.950 . S
H4281 C4305 0.951 . S
H4282 C4307 0.951 . S
H4283 C4309 0.950 . S
H4284 C4310 0.950 . S
H4285 C4312 0.950 . S
H4286 C4315 0.950 . S
H4287 C4316 0.950 . S
H4288 C4318 0.950 . S
H4289 C4319 0.950 . S
C4290 H4272 0.951 . S
C4290 C4291 1.366 . S
C4290 C4292 1.388 . S
C4291 C4290 1.366 . S
C4291 C4295 1.385 . S
C4292 H4273 0.951 . S
C4292 C4290 1.388 . S
C4292 C4293 1.366 . S
C4293 C4292 1.366 . S
C4293 C4294 1.414 . S
C4293 C4296 1.499 . S
C4294 H4274 0.950 . S
C4294 C4293 1.414 . S
C4294 C4295 1.374 . S
C4295 H4275 0.950 . S
C4295 C4291 1.385 . S
C4295 C4294 1.374 . S
C4296 C4293 1.499 . S
C4296 C4297 1.373 . S
C4296 C4298 1.389 . S
C4297 H4276 0.950 . S
C4297 C4296 1.373 . S
C4297 C4313 1.377 . S
C4298 C4296 1.389 . S
C4298 C4299 1.524 . S
C4298 C4312 1.377 . S
C4299 C4298 1.524 . S
C4299 C4300 1.397 . S
C4299 C4304 1.363 . S
C4300 H4277 0.950 . S
C4300 C4299 1.397 . S
C4300 C4301 1.334 . S
C4301 H4278 0.950 . S
C4301 C4300 1.334 . S
C4301 C4302 1.287 . S
C4302 C4301 1.287 . S
C4302 C4303 1.524 . S
C4302 H4321 0.913 . S
C4303 H4279 0.950 . S
C4303 C4302 1.524 . S
C4303 C4304 1.415 . S
C4304 H4280 0.950 . S
C4304 C4299 1.363 . S
C4304 C4303 1.415 . S
C4305 H4281 0.951 . S
C4305 C4306 1.366 . S
C4305 C4307 1.388 . S
C4306 C4305 1.366 . S
C4306 C4310 1.385 . S
C4307 H4282 0.951 . S
C4307 C4305 1.388 . S
C4307 C4308 1.366 . S
C4308 C4307 1.366 . S
C4308 C4309 1.414 . S
C4308 C4311 1.499 . S
C4309 H4283 0.950 . S
C4309 C4308 1.414 . S
C4309 C4310 1.374 . S
C4310 H4284 0.950 . S
C4310 C4306 1.385 . S
C4310 C4309 1.374 . S
C4311 C4308 1.499 . S
C4311 C4312 1.373 . S
C4311 C4313 1.389 . S
C4312 H4285 0.950 . S
C4312 C4298 1.377 . S
C4312 C4311 1.373 . S
C4313 C4297 1.377 . S
C4313 C4311 1.389 . S
C4313 C4314 1.524 . S
C4314 C4313 1.524 . S
C4314 C4315 1.397 . S
C4314 C4319 1.363 . S
C4315 H4286 0.950 . S
C4315 C4314 1.397 . S
C4315 C4316 1.334 . S
C4316 H4287 0.950 . S
C4316 C4315 1.334 . S
C4316 C4317 1.287 . S
C4317 C4316 1.287 . S
C4317 C4318 1.524 . S
C4317 H4320 0.999 . S
C4318 H4288 0.950 . S
C4318 C4317 1.524 . S
C4318 C4319 1.415 . S
C4319 H4289 0.950 . S
C4319 C4314 1.363 . S
C4319 C4318 1.415 . S
H4320 C4317 0.999 . S
H4321 C4302 0.913 . S
H4322 C4340 0.951 . S
H4323 C4342 0.951 . S
H4324 C4344 0.950 . S
H4325 C4345 0.950 . S
H4326 C4347 0.950 . S
H4327 C4350 0.950 . S
H4328 C4351 0.950 . S
H4329 C4353 0.950 . S
H4330 C4354 0.950 . S
H4331 C4355 0.951 . S
H4332 C4357 0.951 . S
H4333 C4359 0.950 . S
H4334 C4360 0.950 . S
H4335 C4362 0.950 . S
H4336 C4365 0.950 . S
H4337 C4366 0.950 . S
H4338 C4368 0.950 . S
H4339 C4369 0.950 . S
C4340 H4322 0.951 . S
C4340 C4341 1.366 . S
C4340 C4342 1.388 . S
C4341 C4340 1.366 . S
C4341 C4345 1.385 . S
C4342 H4323 0.951 . S
C4342 C4340 1.388 . S
C4342 C4343 1.366 . S
C4343 C4342 1.366 . S
C4343 C4344 1.414 . S
C4343 C4346 1.499 . S
C4344 H4324 0.950 . S
C4344 C4343 1.414 . S
C4344 C4345 1.374 . S
C4345 H4325 0.950 . S
C4345 C4341 1.385 . S
C4345 C4344 1.374 . S
C4346 C4343 1.499 . S
C4346 C4347 1.373 . S
C4346 C4348 1.389 . S
C4347 H4326 0.950 . S
C4347 C4346 1.373 . S
C4347 C4363 1.377 . S
C4348 C4346 1.389 . S
C4348 C4349 1.524 . S
C4348 C4362 1.377 . S
C4349 C4348 1.524 . S
C4349 C4350 1.397 . S
C4349 C4354 1.363 . S
C4350 H4327 0.950 . S
C4350 C4349 1.397 . S
C4350 C4351 1.334 . S
C4351 H4328 0.950 . S
C4351 C4350 1.334 . S
C4351 C4352 1.287 . S
C4352 C4351 1.287 . S
C4352 C4353 1.524 . S
C4352 H4371 0.913 . S
C4353 H4329 0.950 . S
C4353 C4352 1.524 . S
C4353 C4354 1.415 . S
C4354 H4330 0.950 . S
C4354 C4349 1.363 . S
C4354 C4353 1.415 . S
C4355 H4331 0.951 . S
C4355 C4356 1.366 . S
C4355 C4357 1.388 . S
C4356 C4355 1.366 . S
C4356 C4360 1.385 . S
C4357 H4332 0.951 . S
C4357 C4355 1.388 . S
C4357 C4358 1.366 . S
C4358 C4357 1.366 . S
C4358 C4359 1.414 . S
C4358 C4361 1.499 . S
C4359 H4333 0.950 . S
C4359 C4358 1.414 . S
C4359 C4360 1.374 . S
C4360 H4334 0.950 . S
C4360 C4356 1.385 . S
C4360 C4359 1.374 . S
C4361 C4358 1.499 . S
C4361 C4362 1.373 . S
C4361 C4363 1.389 . S
C4362 H4335 0.950 . S
C4362 C4348 1.377 . S
C4362 C4361 1.373 . S
C4363 C4347 1.377 . S
C4363 C4361 1.389 . S
C4363 C4364 1.524 . S
C4364 C4363 1.524 . S
C4364 C4365 1.397 . S
C4364 C4369 1.363 . S
C4365 H4336 0.950 . S
C4365 C4364 1.397 . S
C4365 C4366 1.334 . S
C4366 H4337 0.950 . S
C4366 C4365 1.334 . S
C4366 C4367 1.287 . S
C4367 C4366 1.287 . S
C4367 C4368 1.524 . S
C4367 H4370 0.999 . S
C4368 H4338 0.950 . S
C4368 C4367 1.524 . S
C4368 C4369 1.415 . S
C4369 H4339 0.950 . S
C4369 C4364 1.363 . S
C4369 C4368 1.415 . S
H4370 C4367 0.999 . S
H4371 C4352 0.913 . S
H4372 C4390 0.951 . S
H4373 C4392 0.951 . S
H4374 C4394 0.950 . S
H4375 C4395 0.950 . S
H4376 C4397 0.950 . S
H4377 C4400 0.950 . S
H4378 C4401 0.950 . S
H4379 C4403 0.950 . S
H4380 C4404 0.950 . S
H4381 C4405 0.951 . S
H4382 C4407 0.951 . S
H4383 C4409 0.950 . S
H4384 C4410 0.950 . S
H4385 C4412 0.950 . S
H4386 C4415 0.950 . S
H4387 C4416 0.950 . S
H4388 C4418 0.950 . S
H4389 C4419 0.950 . S
C4390 H4372 0.951 . S
C4390 C4391 1.366 . S
C4390 C4392 1.388 . S
C4391 C4390 1.366 . S
C4391 C4395 1.385 . S
C4392 H4373 0.951 . S
C4392 C4390 1.388 . S
C4392 C4393 1.366 . S
C4393 C4392 1.366 . S
C4393 C4394 1.414 . S
C4393 C4396 1.499 . S
C4394 H4374 0.950 . S
C4394 C4393 1.414 . S
C4394 C4395 1.374 . S
C4395 H4375 0.950 . S
C4395 C4391 1.385 . S
C4395 C4394 1.374 . S
C4396 C4393 1.499 . S
C4396 C4397 1.373 . S
C4396 C4398 1.389 . S
C4397 H4376 0.950 . S
C4397 C4396 1.373 . S
C4397 C4413 1.377 . S
C4398 C4396 1.389 . S
C4398 C4399 1.524 . S
C4398 C4412 1.377 . S
C4399 C4398 1.524 . S
C4399 C4400 1.397 . S
C4399 C4404 1.363 . S
C4400 H4377 0.950 . S
C4400 C4399 1.397 . S
C4400 C4401 1.334 . S
C4401 H4378 0.950 . S
C4401 C4400 1.334 . S
C4401 C4402 1.287 . S
C4402 C4401 1.287 . S
C4402 C4403 1.524 . S
C4402 H4421 0.913 . S
C4403 H4379 0.950 . S
C4403 C4402 1.524 . S
C4403 C4404 1.415 . S
C4404 H4380 0.950 . S
C4404 C4399 1.363 . S
C4404 C4403 1.415 . S
C4405 H4381 0.951 . S
C4405 C4406 1.366 . S
C4405 C4407 1.388 . S
C4406 C4405 1.366 . S
C4406 C4410 1.385 . S
C4407 H4382 0.951 . S
C4407 C4405 1.388 . S
C4407 C4408 1.366 . S
C4408 C4407 1.366 . S
C4408 C4409 1.414 . S
C4408 C4411 1.499 . S
C4409 H4383 0.950 . S
C4409 C4408 1.414 . S
C4409 C4410 1.374 . S
C4410 H4384 0.950 . S
C4410 C4406 1.385 . S
C4410 C4409 1.374 . S
C4411 C4408 1.499 . S
C4411 C4412 1.373 . S
C4411 C4413 1.389 . S
C4412 H4385 0.950 . S
C4412 C4398 1.377 . S
C4412 C4411 1.373 . S
C4413 C4397 1.377 . S
C4413 C4411 1.389 . S
C4413 C4414 1.524 . S
C4414 C4413 1.524 . S
C4414 C4415 1.397 . S
C4414 C4419 1.363 . S
C4415 H4386 0.950 . S
C4415 C4414 1.397 . S
C4415 C4416 1.334 . S
C4416 H4387 0.950 . S
C4416 C4415 1.334 . S
C4416 C4417 1.287 . S
C4417 C4416 1.287 . S
C4417 C4418 1.524 . S
C4417 H4420 0.999 . S
C4418 H4388 0.950 . S
C4418 C4417 1.524 . S
C4418 C4419 1.415 . S
C4419 H4389 0.950 . S
C4419 C4414 1.363 . S
C4419 C4418 1.415 . S
H4420 C4417 0.999 . S
H4421 C4402 0.913 . S
H4422 C4440 0.951 . S
H4423 C4442 0.951 . S
H4424 C4444 0.950 . S
H4425 C4445 0.950 . S
H4426 C4447 0.950 . S
H4427 C4450 0.950 . S
H4428 C4451 0.950 . S
H4429 C4453 0.950 . S
H4430 C4454 0.950 . S
H4431 C4455 0.951 . S
H4432 C4457 0.951 . S
H4433 C4459 0.950 . S
H4434 C4460 0.950 . S
H4435 C4462 0.950 . S
H4436 C4465 0.950 . S
H4437 C4466 0.950 . S
H4438 C4468 0.950 . S
H4439 C4469 0.950 . S
C4440 H4422 0.951 . S
C4440 C4441 1.366 . S
C4440 C4442 1.388 . S
C4441 C4440 1.366 . S
C4441 C4445 1.385 . S
C4442 H4423 0.951 . S
C4442 C4440 1.388 . S
C4442 C4443 1.366 . S
C4443 C4442 1.366 . S
C4443 C4444 1.414 . S
C4443 C4446 1.499 . S
C4444 H4424 0.950 . S
C4444 C4443 1.414 . S
C4444 C4445 1.374 . S
C4445 H4425 0.950 . S
C4445 C4441 1.385 . S
C4445 C4444 1.374 . S
C4446 C4443 1.499 . S
C4446 C4447 1.373 . S
C4446 C4448 1.389 . S
C4447 H4426 0.950 . S
C4447 C4446 1.373 . S
C4447 C4463 1.377 . S
C4448 C4446 1.389 . S
C4448 C4449 1.524 . S
C4448 C4462 1.377 . S
C4449 C4448 1.524 . S
C4449 C4450 1.397 . S
C4449 C4454 1.363 . S
C4450 H4427 0.950 . S
C4450 C4449 1.397 . S
C4450 C4451 1.334 . S
C4451 H4428 0.950 . S
C4451 C4450 1.334 . S
C4451 C4452 1.287 . S
C4452 C4451 1.287 . S
C4452 C4453 1.524 . S
C4452 H4471 0.913 . S
C4453 H4429 0.950 . S
C4453 C4452 1.524 . S
C4453 C4454 1.415 . S
C4454 H4430 0.950 . S
C4454 C4449 1.363 . S
C4454 C4453 1.415 . S
C4455 H4431 0.951 . S
C4455 C4456 1.366 . S
C4455 C4457 1.388 . S
C4456 C4455 1.366 . S
C4456 C4460 1.385 . S
C4457 H4432 0.951 . S
C4457 C4455 1.388 . S
C4457 C4458 1.366 . S
C4458 C4457 1.366 . S
C4458 C4459 1.414 . S
C4458 C4461 1.499 . S
C4459 H4433 0.950 . S
C4459 C4458 1.414 . S
C4459 C4460 1.374 . S
C4460 H4434 0.950 . S
C4460 C4456 1.385 . S
C4460 C4459 1.374 . S
C4461 C4458 1.499 . S
C4461 C4462 1.373 . S
C4461 C4463 1.389 . S
C4462 H4435 0.950 . S
C4462 C4448 1.377 . S
C4462 C4461 1.373 . S
C4463 C4447 1.377 . S
C4463 C4461 1.389 . S
C4463 C4464 1.524 . S
C4464 C4463 1.524 . S
C4464 C4465 1.397 . S
C4464 C4469 1.363 . S
C4465 H4436 0.950 . S
C4465 C4464 1.397 . S
C4465 C4466 1.334 . S
C4466 H4437 0.950 . S
C4466 C4465 1.334 . S
C4466 C4467 1.287 . S
C4467 C4466 1.287 . S
C4467 C4468 1.524 . S
C4467 H4470 0.999 . S
C4468 H4438 0.950 . S
C4468 C4467 1.524 . S
C4468 C4469 1.415 . S
C4469 H4439 0.950 . S
C4469 C4464 1.363 . S
C4469 C4468 1.415 . S
H4470 C4467 0.999 . S
H4471 C4452 0.913 . S
H4472 C4490 0.951 . S
H4473 C4492 0.951 . S
H4474 C4494 0.950 . S
H4475 C4495 0.950 . S
H4476 C4497 0.950 . S
H4477 C4500 0.950 . S
H4478 C4501 0.950 . S
H4479 C4503 0.950 . S
H4480 C4504 0.950 . S
H4481 C4505 0.951 . S
H4482 C4507 0.951 . S
H4483 C4509 0.950 . S
H4484 C4510 0.950 . S
H4485 C4512 0.950 . S
H4486 C4515 0.950 . S
H4487 C4516 0.950 . S
H4488 C4518 0.950 . S
H4489 C4519 0.950 . S
C4490 H4472 0.951 . S
C4490 C4491 1.366 . S
C4490 C4492 1.388 . S
C4491 C4490 1.366 . S
C4491 C4495 1.385 . S
C4492 H4473 0.951 . S
C4492 C4490 1.388 . S
C4492 C4493 1.366 . S
C4493 C4492 1.366 . S
C4493 C4494 1.414 . S
C4493 C4496 1.499 . S
C4494 H4474 0.950 . S
C4494 C4493 1.414 . S
C4494 C4495 1.374 . S
C4495 H4475 0.950 . S
C4495 C4491 1.385 . S
C4495 C4494 1.374 . S
C4496 C4493 1.499 . S
C4496 C4497 1.373 . S
C4496 C4498 1.389 . S
C4497 H4476 0.950 . S
C4497 C4496 1.373 . S
C4497 C4513 1.377 . S
C4498 C4496 1.389 . S
C4498 C4499 1.524 . S
C4498 C4512 1.377 . S
C4499 C4498 1.524 . S
C4499 C4500 1.397 . S
C4499 C4504 1.363 . S
C4500 H4477 0.950 . S
C4500 C4499 1.397 . S
C4500 C4501 1.334 . S
C4501 H4478 0.950 . S
C4501 C4500 1.334 . S
C4501 C4502 1.287 . S
C4502 C4501 1.287 . S
C4502 C4503 1.524 . S
C4502 H4521 0.913 . S
C4503 H4479 0.950 . S
C4503 C4502 1.524 . S
C4503 C4504 1.415 . S
C4504 H4480 0.950 . S
C4504 C4499 1.363 . S
C4504 C4503 1.415 . S
C4505 H4481 0.951 . S
C4505 C4506 1.366 . S
C4505 C4507 1.388 . S
C4506 C4505 1.366 . S
C4506 C4510 1.385 . S
C4507 H4482 0.951 . S
C4507 C4505 1.388 . S
C4507 C4508 1.366 . S
C4508 C4507 1.366 . S
C4508 C4509 1.414 . S
C4508 C4511 1.499 . S
C4509 H4483 0.950 . S
C4509 C4508 1.414 . S
C4509 C4510 1.374 . S
C4510 H4484 0.950 . S
C4510 C4506 1.385 . S
C4510 C4509 1.374 . S
C4511 C4508 1.499 . S
C4511 C4512 1.373 . S
C4511 C4513 1.389 . S
C4512 H4485 0.950 . S
C4512 C4498 1.377 . S
C4512 C4511 1.373 . S
C4513 C4497 1.377 . S
C4513 C4511 1.389 . S
C4513 C4514 1.524 . S
C4514 C4513 1.524 . S
C4514 C4515 1.397 . S
C4514 C4519 1.363 . S
C4515 H4486 0.950 . S
C4515 C4514 1.397 . S
C4515 C4516 1.334 . S
C4516 H4487 0.950 . S
C4516 C4515 1.334 . S
C4516 C4517 1.287 . S
C4517 C4516 1.287 . S
C4517 C4518 1.524 . S
C4517 H4520 0.999 . S
C4518 H4488 0.950 . S
C4518 C4517 1.524 . S
C4518 C4519 1.415 . S
C4519 H4489 0.950 . S
C4519 C4514 1.363 . S
C4519 C4518 1.415 . S
H4520 C4517 0.999 . S
H4521 C4502 0.913 . S
H4522 C4540 0.951 . S
H4523 C4542 0.951 . S
H4524 C4544 0.950 . S
H4525 C4545 0.950 . S
H4526 C4547 0.950 . S
H4527 C4550 0.950 . S
H4528 C4551 0.950 . S
H4529 C4553 0.950 . S
H4530 C4554 0.950 . S
H4531 C4555 0.951 . S
H4532 C4557 0.951 . S
H4533 C4559 0.950 . S
H4534 C4560 0.950 . S
H4535 C4562 0.950 . S
H4536 C4565 0.950 . S
H4537 C4566 0.950 . S
H4538 C4568 0.950 . S
H4539 C4569 0.950 . S
C4540 H4522 0.951 . S
C4540 C4541 1.366 . S
C4540 C4542 1.388 . S
C4541 C4540 1.366 . S
C4541 C4545 1.385 . S
C4542 H4523 0.951 . S
C4542 C4540 1.388 . S
C4542 C4543 1.366 . S
C4543 C4542 1.366 . S
C4543 C4544 1.414 . S
C4543 C4546 1.499 . S
C4544 H4524 0.950 . S
C4544 C4543 1.414 . S
C4544 C4545 1.374 . S
C4545 H4525 0.950 . S
C4545 C4541 1.385 . S
C4545 C4544 1.374 . S
C4546 C4543 1.499 . S
C4546 C4547 1.373 . S
C4546 C4548 1.389 . S
C4547 H4526 0.950 . S
C4547 C4546 1.373 . S
C4547 C4563 1.377 . S
C4548 C4546 1.389 . S
C4548 C4549 1.524 . S
C4548 C4562 1.377 . S
C4549 C4548 1.524 . S
C4549 C4550 1.397 . S
C4549 C4554 1.363 . S
C4550 H4527 0.950 . S
C4550 C4549 1.397 . S
C4550 C4551 1.334 . S
C4551 H4528 0.950 . S
C4551 C4550 1.334 . S
C4551 C4552 1.287 . S
C4552 C4551 1.287 . S
C4552 C4553 1.524 . S
C4552 H4571 0.913 . S
C4553 H4529 0.950 . S
C4553 C4552 1.524 . S
C4553 C4554 1.415 . S
C4554 H4530 0.950 . S
C4554 C4549 1.363 . S
C4554 C4553 1.415 . S
C4555 H4531 0.951 . S
C4555 C4556 1.366 . S
C4555 C4557 1.388 . S
C4556 C4555 1.366 . S
C4556 C4560 1.385 . S
C4557 H4532 0.951 . S
C4557 C4555 1.388 . S
C4557 C4558 1.366 . S
C4558 C4557 1.366 . S
C4558 C4559 1.414 . S
C4558 C4561 1.499 . S
C4559 H4533 0.950 . S
C4559 C4558 1.414 . S
C4559 C4560 1.374 . S
C4560 H4534 0.950 . S
C4560 C4556 1.385 . S
C4560 C4559 1.374 . S
C4561 C4558 1.499 . S
C4561 C4562 1.373 . S
C4561 C4563 1.389 . S
C4562 H4535 0.950 . S
C4562 C4548 1.377 . S
C4562 C4561 1.373 . S
C4563 C4547 1.377 . S
C4563 C4561 1.389 . S
C4563 C4564 1.524 . S
C4564 C4563 1.524 . S
C4564 C4565 1.397 . S
C4564 C4569 1.363 . S
C4565 H4536 0.950 . S
C4565 C4564 1.397 . S
C4565 C4566 1.334 . S
C4566 H4537 0.950 . S
C4566 C4565 1.334 . S
C4566 C4567 1.287 . S
C4567 C4566 1.287 . S
C4567 C4568 1.524 . S
C4567 H4570 0.999 . S
C4568 H4538 0.950 . S
C4568 C4567 1.524 . S
C4568 C4569 1.415 . S
C4569 H4539 0.950 . S
C4569 C4564 1.363 . S
C4569 C4568 1.415 . S
H4570 C4567 0.999 . S
H4571 C4552 0.913 . S
H4572 C4590 0.951 . S
H4573 C4592 0.951 . S
H4574 C4594 0.950 . S
H4575 C4595 0.950 . S
H4576 C4597 0.950 . S
H4577 C4600 0.950 . S
H4578 C4601 0.950 . S
H4579 C4603 0.950 . S
H4580 C4604 0.950 . S
H4581 C4605 0.951 . S
H4582 C4607 0.951 . S
H4583 C4609 0.950 . S
H4584 C4610 0.950 . S
H4585 C4612 0.950 . S
H4586 C4615 0.950 . S
H4587 C4616 0.950 . S
H4588 C4618 0.950 . S
H4589 C4619 0.950 . S
C4590 H4572 0.951 . S
C4590 C4591 1.366 . S
C4590 C4592 1.388 . S
C4591 C4590 1.366 . S
C4591 C4595 1.385 . S
C4592 H4573 0.951 . S
C4592 C4590 1.388 . S
C4592 C4593 1.366 . S
C4593 C4592 1.366 . S
C4593 C4594 1.414 . S
C4593 C4596 1.499 . S
C4594 H4574 0.950 . S
C4594 C4593 1.414 . S
C4594 C4595 1.374 . S
C4595 H4575 0.950 . S
C4595 C4591 1.385 . S
C4595 C4594 1.374 . S
C4596 C4593 1.499 . S
C4596 C4597 1.373 . S
C4596 C4598 1.389 . S
C4597 H4576 0.950 . S
C4597 C4596 1.373 . S
C4597 C4613 1.377 . S
C4598 C4596 1.389 . S
C4598 C4599 1.524 . S
C4598 C4612 1.377 . S
C4599 C4598 1.524 . S
C4599 C4600 1.397 . S
C4599 C4604 1.363 . S
C4600 H4577 0.950 . S
C4600 C4599 1.397 . S
C4600 C4601 1.334 . S
C4601 H4578 0.950 . S
C4601 C4600 1.334 . S
C4601 C4602 1.287 . S
C4602 C4601 1.287 . S
C4602 C4603 1.524 . S
C4602 H4621 0.913 . S
C4603 H4579 0.950 . S
C4603 C4602 1.524 . S
C4603 C4604 1.415 . S
C4604 H4580 0.950 . S
C4604 C4599 1.363 . S
C4604 C4603 1.415 . S
C4605 H4581 0.951 . S
C4605 C4606 1.366 . S
C4605 C4607 1.388 . S
C4606 C4605 1.366 . S
C4606 C4610 1.385 . S
C4607 H4582 0.951 . S
C4607 C4605 1.388 . S
C4607 C4608 1.366 . S
C4608 C4607 1.366 . S
C4608 C4609 1.414 . S
C4608 C4611 1.499 . S
C4609 H4583 0.950 . S
C4609 C4608 1.414 . S
C4609 C4610 1.374 . S
C4610 H4584 0.950 . S
C4610 C4606 1.385 . S
C4610 C4609 1.374 . S
C4611 C4608 1.499 . S
C4611 C4612 1.373 . S
C4611 C4613 1.389 . S
C4612 H4585 0.950 . S
C4612 C4598 1.377 . S
C4612 C4611 1.373 . S
C4613 C4597 1.377 . S
C4613 C4611 1.389 . S
C4613 C4614 1.524 . S
C4614 C4613 1.524 . S
C4614 C4615 1.397 . S
C4614 C4619 1.363 . S
C4615 H4586 0.950 . S
C4615 C4614 1.397 . S
C4615 C4616 1.334 . S
C4616 H4587 0.950 . S
C4616 C4615 1.334 . S
C4616 C4617 1.287 . S
C4617 C4616 1.287 . S
C4617 C4618 1.524 . S
C4617 H4620 0.999 . S
C4618 H4588 0.950 . S
C4618 C4617 1.524 . S
C4618 C4619 1.415 . S
C4619 H4589 0.950 . S
C4619 C4614 1.363 . S
C4619 C4618 1.415 . S
H4620 C4617 0.999 . S
H4621 C4602 0.913 . S
H4622 C4640 0.951 . S
H4623 C4642 0.951 . S
H4624 C4644 0.950 . S
H4625 C4645 0.950 . S
H4626 C4647 0.950 . S
H4627 C4650 0.950 . S
H4628 C4651 0.950 . S
H4629 C4653 0.950 . S
H4630 C4654 0.950 . S
H4631 C4655 0.951 . S
H4632 C4657 0.951 . S
H4633 C4659 0.950 . S
H4634 C4660 0.950 . S
H4635 C4662 0.950 . S
H4636 C4665 0.950 . S
H4637 C4666 0.950 . S
H4638 C4668 0.950 . S
H4639 C4669 0.950 . S
C4640 H4622 0.951 . S
C4640 C4641 1.366 . S
C4640 C4642 1.388 . S
C4641 C4640 1.366 . S
C4641 C4645 1.385 . S
C4642 H4623 0.951 . S
C4642 C4640 1.388 . S
C4642 C4643 1.366 . S
C4643 C4642 1.366 . S
C4643 C4644 1.414 . S
C4643 C4646 1.499 . S
C4644 H4624 0.950 . S
C4644 C4643 1.414 . S
C4644 C4645 1.374 . S
C4645 H4625 0.950 . S
C4645 C4641 1.385 . S
C4645 C4644 1.374 . S
C4646 C4643 1.499 . S
C4646 C4647 1.373 . S
C4646 C4648 1.389 . S
C4647 H4626 0.950 . S
C4647 C4646 1.373 . S
C4647 C4663 1.377 . S
C4648 C4646 1.389 . S
C4648 C4649 1.524 . S
C4648 C4662 1.377 . S
C4649 C4648 1.524 . S
C4649 C4650 1.397 . S
C4649 C4654 1.363 . S
C4650 H4627 0.950 . S
C4650 C4649 1.397 . S
C4650 C4651 1.334 . S
C4651 H4628 0.950 . S
C4651 C4650 1.334 . S
C4651 C4652 1.287 . S
C4652 C4651 1.287 . S
C4652 C4653 1.524 . S
C4652 H4671 0.913 . S
C4653 H4629 0.950 . S
C4653 C4652 1.524 . S
C4653 C4654 1.415 . S
C4654 H4630 0.950 . S
C4654 C4649 1.363 . S
C4654 C4653 1.415 . S
C4655 H4631 0.951 . S
C4655 C4656 1.366 . S
C4655 C4657 1.388 . S
C4656 C4655 1.366 . S
C4656 C4660 1.385 . S
C4657 H4632 0.951 . S
C4657 C4655 1.388 . S
C4657 C4658 1.366 . S
C4658 C4657 1.366 . S
C4658 C4659 1.414 . S
C4658 C4661 1.499 . S
C4659 H4633 0.950 . S
C4659 C4658 1.414 . S
C4659 C4660 1.374 . S
C4660 H4634 0.950 . S
C4660 C4656 1.385 . S
C4660 C4659 1.374 . S
C4661 C4658 1.499 . S
C4661 C4662 1.373 . S
C4661 C4663 1.389 . S
C4662 H4635 0.950 . S
C4662 C4648 1.377 . S
C4662 C4661 1.373 . S
C4663 C4647 1.377 . S
C4663 C4661 1.389 . S
C4663 C4664 1.524 . S
C4664 C4663 1.524 . S
C4664 C4665 1.397 . S
C4664 C4669 1.363 . S
C4665 H4636 0.950 . S
C4665 C4664 1.397 . S
C4665 C4666 1.334 . S
C4666 H4637 0.950 . S
C4666 C4665 1.334 . S
C4666 C4667 1.287 . S
C4667 C4666 1.287 . S
C4667 C4668 1.524 . S
C4667 H4670 0.999 . S
C4668 H4638 0.950 . S
C4668 C4667 1.524 . S
C4668 C4669 1.415 . S
C4669 H4639 0.950 . S
C4669 C4664 1.363 . S
C4669 C4668 1.415 . S
H4670 C4667 0.999 . S
H4671 C4652 0.913 . S
H4672 C4690 0.951 . S
H4673 C4692 0.951 . S
H4674 C4694 0.950 . S
H4675 C4695 0.950 . S
H4676 C4697 0.950 . S
H4677 C4700 0.950 . S
H4678 C4701 0.950 . S
H4679 C4703 0.950 . S
H4680 C4704 0.950 . S
H4681 C4705 0.951 . S
H4682 C4707 0.951 . S
H4683 C4709 0.950 . S
H4684 C4710 0.950 . S
H4685 C4712 0.950 . S
H4686 C4715 0.950 . S
H4687 C4716 0.950 . S
H4688 C4718 0.950 . S
H4689 C4719 0.950 . S
C4690 H4672 0.951 . S
C4690 C4691 1.366 . S
C4690 C4692 1.388 . S
C4691 C4690 1.366 . S
C4691 C4695 1.385 . S
C4692 H4673 0.951 . S
C4692 C4690 1.388 . S
C4692 C4693 1.366 . S
C4693 C4692 1.366 . S
C4693 C4694 1.414 . S
C4693 C4696 1.499 . S
C4694 H4674 0.950 . S
C4694 C4693 1.414 . S
C4694 C4695 1.374 . S
C4695 H4675 0.950 . S
C4695 C4691 1.385 . S
C4695 C4694 1.374 . S
C4696 C4693 1.499 . S
C4696 C4697 1.373 . S
C4696 C4698 1.389 . S
C4697 H4676 0.950 . S
C4697 C4696 1.373 . S
C4697 C4713 1.377 . S
C4698 C4696 1.389 . S
C4698 C4699 1.524 . S
C4698 C4712 1.377 . S
C4699 C4698 1.524 . S
C4699 C4700 1.397 . S
C4699 C4704 1.363 . S
C4700 H4677 0.950 . S
C4700 C4699 1.397 . S
C4700 C4701 1.334 . S
C4701 H4678 0.950 . S
C4701 C4700 1.334 . S
C4701 C4702 1.287 . S
C4702 C4701 1.287 . S
C4702 C4703 1.524 . S
C4702 H4721 0.913 . S
C4703 H4679 0.950 . S
C4703 C4702 1.524 . S
C4703 C4704 1.415 . S
C4704 H4680 0.950 . S
C4704 C4699 1.363 . S
C4704 C4703 1.415 . S
C4705 H4681 0.951 . S
C4705 C4706 1.366 . S
C4705 C4707 1.388 . S
C4706 C4705 1.366 . S
C4706 C4710 1.385 . S
C4707 H4682 0.951 . S
C4707 C4705 1.388 . S
C4707 C4708 1.366 . S
C4708 C4707 1.366 . S
C4708 C4709 1.414 . S
C4708 C4711 1.499 . S
C4709 H4683 0.950 . S
C4709 C4708 1.414 . S
C4709 C4710 1.374 . S
C4710 H4684 0.950 . S
C4710 C4706 1.385 . S
C4710 C4709 1.374 . S
C4711 C4708 1.499 . S
C4711 C4712 1.373 . S
C4711 C4713 1.389 . S
C4712 H4685 0.950 . S
C4712 C4698 1.377 . S
C4712 C4711 1.373 . S
C4713 C4697 1.377 . S
C4713 C4711 1.389 . S
C4713 C4714 1.524 . S
C4714 C4713 1.524 . S
C4714 C4715 1.397 . S
C4714 C4719 1.363 . S
C4715 H4686 0.950 . S
C4715 C4714 1.397 . S
C4715 C4716 1.334 . S
C4716 H4687 0.950 . S
C4716 C4715 1.334 . S
C4716 C4717 1.287 . S
C4717 C4716 1.287 . S
C4717 C4718 1.524 . S
C4717 H4720 0.999 . S
C4718 H4688 0.950 . S
C4718 C4717 1.524 . S
C4718 C4719 1.415 . S
C4719 H4689 0.950 . S
C4719 C4714 1.363 . S
C4719 C4718 1.415 . S
H4720 C4717 0.999 . S
H4721 C4702 0.913 . S
H4722 C4740 0.951 . S
H4723 C4742 0.951 . S
H4724 C4744 0.950 . S
H4725 C4745 0.950 . S
H4726 C4747 0.950 . S
H4727 C4750 0.950 . S
H4728 C4751 0.950 . S
H4729 C4753 0.950 . S
H4730 C4754 0.950 . S
H4731 C4755 0.951 . S
H4732 C4757 0.951 . S
H4733 C4759 0.950 . S
H4734 C4760 0.950 . S
H4735 C4762 0.950 . S
H4736 C4765 0.950 . S
H4737 C4766 0.950 . S
H4738 C4768 0.950 . S
H4739 C4769 0.950 . S
C4740 H4722 0.951 . S
C4740 C4741 1.366 . S
C4740 C4742 1.388 . S
C4741 C4740 1.366 . S
C4741 C4745 1.385 . S
C4742 H4723 0.951 . S
C4742 C4740 1.388 . S
C4742 C4743 1.366 . S
C4743 C4742 1.366 . S
C4743 C4744 1.414 . S
C4743 C4746 1.499 . S
C4744 H4724 0.950 . S
C4744 C4743 1.414 . S
C4744 C4745 1.374 . S
C4745 H4725 0.950 . S
C4745 C4741 1.385 . S
C4745 C4744 1.374 . S
C4746 C4743 1.499 . S
C4746 C4747 1.373 . S
C4746 C4748 1.389 . S
C4747 H4726 0.950 . S
C4747 C4746 1.373 . S
C4747 C4763 1.377 . S
C4748 C4746 1.389 . S
C4748 C4749 1.524 . S
C4748 C4762 1.377 . S
C4749 C4748 1.524 . S
C4749 C4750 1.397 . S
C4749 C4754 1.363 . S
C4750 H4727 0.950 . S
C4750 C4749 1.397 . S
C4750 C4751 1.334 . S
C4751 H4728 0.950 . S
C4751 C4750 1.334 . S
C4751 C4752 1.287 . S
C4752 C4751 1.287 . S
C4752 C4753 1.524 . S
C4752 H4771 0.913 . S
C4753 H4729 0.950 . S
C4753 C4752 1.524 . S
C4753 C4754 1.415 . S
C4754 H4730 0.950 . S
C4754 C4749 1.363 . S
C4754 C4753 1.415 . S
C4755 H4731 0.951 . S
C4755 C4756 1.366 . S
C4755 C4757 1.388 . S
C4756 C4755 1.366 . S
C4756 C4760 1.385 . S
C4757 H4732 0.951 . S
C4757 C4755 1.388 . S
C4757 C4758 1.366 . S
C4758 C4757 1.366 . S
C4758 C4759 1.414 . S
C4758 C4761 1.499 . S
C4759 H4733 0.950 . S
C4759 C4758 1.414 . S
C4759 C4760 1.374 . S
C4760 H4734 0.950 . S
C4760 C4756 1.385 . S
C4760 C4759 1.374 . S
C4761 C4758 1.499 . S
C4761 C4762 1.373 . S
C4761 C4763 1.389 . S
C4762 H4735 0.950 . S
C4762 C4748 1.377 . S
C4762 C4761 1.373 . S
C4763 C4747 1.377 . S
C4763 C4761 1.389 . S
C4763 C4764 1.524 . S
C4764 C4763 1.524 . S
C4764 C4765 1.397 . S
C4764 C4769 1.363 . S
C4765 H4736 0.950 . S
C4765 C4764 1.397 . S
C4765 C4766 1.334 . S
C4766 H4737 0.950 . S
C4766 C4765 1.334 . S
C4766 C4767 1.287 . S
C4767 C4766 1.287 . S
C4767 C4768 1.524 . S
C4767 H4770 0.999 . S
C4768 H4738 0.950 . S
C4768 C4767 1.524 . S
C4768 C4769 1.415 . S
C4769 H4739 0.950 . S
C4769 C4764 1.363 . S
C4769 C4768 1.415 . S
H4770 C4767 0.999 . S
H4771 C4752 0.913 . S
H4772 C4790 0.951 . S
H4773 C4792 0.951 . S
H4774 C4794 0.950 . S
H4775 C4795 0.950 . S
H4776 C4797 0.950 . S
H4777 C4800 0.950 . S
H4778 C4801 0.950 . S
H4779 C4803 0.950 . S
H4780 C4804 0.950 . S
H4781 C4805 0.951 . S
H4782 C4807 0.951 . S
H4783 C4809 0.950 . S
H4784 C4810 0.950 . S
H4785 C4812 0.950 . S
H4786 C4815 0.950 . S
H4787 C4816 0.950 . S
H4788 C4818 0.950 . S
H4789 C4819 0.950 . S
C4790 H4772 0.951 . S
C4790 C4791 1.366 . S
C4790 C4792 1.388 . S
C4791 C4790 1.366 . S
C4791 C4795 1.385 . S
C4792 H4773 0.951 . S
C4792 C4790 1.388 . S
C4792 C4793 1.366 . S
C4793 C4792 1.366 . S
C4793 C4794 1.414 . S
C4793 C4796 1.499 . S
C4794 H4774 0.950 . S
C4794 C4793 1.414 . S
C4794 C4795 1.374 . S
C4795 H4775 0.950 . S
C4795 C4791 1.385 . S
C4795 C4794 1.374 . S
C4796 C4793 1.499 . S
C4796 C4797 1.373 . S
C4796 C4798 1.389 . S
C4797 H4776 0.950 . S
C4797 C4796 1.373 . S
C4797 C4813 1.377 . S
C4798 C4796 1.389 . S
C4798 C4799 1.524 . S
C4798 C4812 1.377 . S
C4799 C4798 1.524 . S
C4799 C4800 1.397 . S
C4799 C4804 1.363 . S
C4800 H4777 0.950 . S
C4800 C4799 1.397 . S
C4800 C4801 1.334 . S
C4801 H4778 0.950 . S
C4801 C4800 1.334 . S
C4801 C4802 1.287 . S
C4802 C4801 1.287 . S
C4802 C4803 1.524 . S
C4802 H4821 0.913 . S
C4803 H4779 0.950 . S
C4803 C4802 1.524 . S
C4803 C4804 1.415 . S
C4804 H4780 0.950 . S
C4804 C4799 1.363 . S
C4804 C4803 1.415 . S
C4805 H4781 0.951 . S
C4805 C4806 1.366 . S
C4805 C4807 1.388 . S
C4806 C4805 1.366 . S
C4806 C4810 1.385 . S
C4807 H4782 0.951 . S
C4807 C4805 1.388 . S
C4807 C4808 1.366 . S
C4808 C4807 1.366 . S
C4808 C4809 1.414 . S
C4808 C4811 1.499 . S
C4809 H4783 0.950 . S
C4809 C4808 1.414 . S
C4809 C4810 1.374 . S
C4810 H4784 0.950 . S
C4810 C4806 1.385 . S
C4810 C4809 1.374 . S
C4811 C4808 1.499 . S
C4811 C4812 1.373 . S
C4811 C4813 1.389 . S
C4812 H4785 0.950 . S
C4812 C4798 1.377 . S
C4812 C4811 1.373 . S
C4813 C4797 1.377 . S
C4813 C4811 1.389 . S
C4813 C4814 1.524 . S
C4814 C4813 1.524 . S
C4814 C4815 1.397 . S
C4814 C4819 1.363 . S
C4815 H4786 0.950 . S
C4815 C4814 1.397 . S
C4815 C4816 1.334 . S
C4816 H4787 0.950 . S
C4816 C4815 1.334 . S
C4816 C4817 1.287 . S
C4817 C4816 1.287 . S
C4817 C4818 1.524 . S
C4817 H4820 0.999 . S
C4818 H4788 0.950 . S
C4818 C4817 1.524 . S
C4818 C4819 1.415 . S
C4819 H4789 0.950 . S
C4819 C4814 1.363 . S
C4819 C4818 1.415 . S
H4820 C4817 0.999 . S
H4821 C4802 0.913 . S
H4822 C4840 0.951 . S
H4823 C4842 0.951 . S
H4824 C4844 0.950 . S
H4825 C4845 0.950 . S
H4826 C4847 0.950 . S
H4827 C4850 0.950 . S
H4828 C4851 0.950 . S
H4829 C4853 0.950 . S
H4830 C4854 0.950 . S
H4831 C4855 0.951 . S
H4832 C4857 0.951 . S
H4833 C4859 0.950 . S
H4834 C4860 0.950 . S
H4835 C4862 0.950 . S
H4836 C4865 0.950 . S
H4837 C4866 0.950 . S
H4838 C4868 0.950 . S
H4839 C4869 0.950 . S
C4840 H4822 0.951 . S
C4840 C4841 1.366 . S
C4840 C4842 1.388 . S
C4841 C4840 1.366 . S
C4841 C4845 1.385 . S
C4842 H4823 0.951 . S
C4842 C4840 1.388 . S
C4842 C4843 1.366 . S
C4843 C4842 1.366 . S
C4843 C4844 1.414 . S
C4843 C4846 1.499 . S
C4844 H4824 0.950 . S
C4844 C4843 1.414 . S
C4844 C4845 1.374 . S
C4845 H4825 0.950 . S
C4845 C4841 1.385 . S
C4845 C4844 1.374 . S
C4846 C4843 1.499 . S
C4846 C4847 1.373 . S
C4846 C4848 1.389 . S
C4847 H4826 0.950 . S
C4847 C4846 1.373 . S
C4847 C4863 1.377 . S
C4848 C4846 1.389 . S
C4848 C4849 1.524 . S
C4848 C4862 1.377 . S
C4849 C4848 1.524 . S
C4849 C4850 1.397 . S
C4849 C4854 1.363 . S
C4850 H4827 0.950 . S
C4850 C4849 1.397 . S
C4850 C4851 1.334 . S
C4851 H4828 0.950 . S
C4851 C4850 1.334 . S
C4851 C4852 1.287 . S
C4852 C4851 1.287 . S
C4852 C4853 1.524 . S
C4852 H4871 0.913 . S
C4853 H4829 0.950 . S
C4853 C4852 1.524 . S
C4853 C4854 1.415 . S
C4854 H4830 0.950 . S
C4854 C4849 1.363 . S
C4854 C4853 1.415 . S
C4855 H4831 0.951 . S
C4855 C4856 1.366 . S
C4855 C4857 1.388 . S
C4856 C4855 1.366 . S
C4856 C4860 1.385 . S
C4857 H4832 0.951 . S
C4857 C4855 1.388 . S
C4857 C4858 1.366 . S
C4858 C4857 1.366 . S
C4858 C4859 1.414 . S
C4858 C4861 1.499 . S
C4859 H4833 0.950 . S
C4859 C4858 1.414 . S
C4859 C4860 1.374 . S
C4860 H4834 0.950 . S
C4860 C4856 1.385 . S
C4860 C4859 1.374 . S
C4861 C4858 1.499 . S
C4861 C4862 1.373 . S
C4861 C4863 1.389 . S
C4862 H4835 0.950 . S
C4862 C4848 1.377 . S
C4862 C4861 1.373 . S
C4863 C4847 1.377 . S
C4863 C4861 1.389 . S
C4863 C4864 1.524 . S
C4864 C4863 1.524 . S
C4864 C4865 1.397 . S
C4864 C4869 1.363 . S
C4865 H4836 0.950 . S
C4865 C4864 1.397 . S
C4865 C4866 1.334 . S
C4866 H4837 0.950 . S
C4866 C4865 1.334 . S
C4866 C4867 1.287 . S
C4867 C4866 1.287 . S
C4867 C4868 1.524 . S
C4867 H4870 0.999 . S
C4868 H4838 0.950 . S
C4868 C4867 1.524 . S
C4868 C4869 1.415 . S
C4869 H4839 0.950 . S
C4869 C4864 1.363 . S
C4869 C4868 1.415 . S
H4870 C4867 0.999 . S
H4871 C4852 0.913 . S
H4872 C4890 0.951 . S
H4873 C4892 0.951 . S
H4874 C4894 0.950 . S
H4875 C4895 0.950 . S
H4876 C4897 0.950 . S
H4877 C4900 0.950 . S
H4878 C4901 0.950 . S
H4879 C4903 0.950 . S
H4880 C4904 0.950 . S
H4881 C4905 0.951 . S
H4882 C4907 0.951 . S
H4883 C4909 0.950 . S
H4884 C4910 0.950 . S
H4885 C4912 0.950 . S
H4886 C4915 0.950 . S
H4887 C4916 0.950 . S
H4888 C4918 0.950 . S
H4889 C4919 0.950 . S
C4890 H4872 0.951 . S
C4890 C4891 1.366 . S
C4890 C4892 1.388 . S
C4891 C4890 1.366 . S
C4891 C4895 1.385 . S
C4892 H4873 0.951 . S
C4892 C4890 1.388 . S
C4892 C4893 1.366 . S
C4893 C4892 1.366 . S
C4893 C4894 1.414 . S
C4893 C4896 1.499 . S
C4894 H4874 0.950 . S
C4894 C4893 1.414 . S
C4894 C4895 1.374 . S
C4895 H4875 0.950 . S
C4895 C4891 1.385 . S
C4895 C4894 1.374 . S
C4896 C4893 1.499 . S
C4896 C4897 1.373 . S
C4896 C4898 1.389 . S
C4897 H4876 0.950 . S
C4897 C4896 1.373 . S
C4897 C4913 1.377 . S
C4898 C4896 1.389 . S
C4898 C4899 1.524 . S
C4898 C4912 1.377 . S
C4899 C4898 1.524 . S
C4899 C4900 1.397 . S
C4899 C4904 1.363 . S
C4900 H4877 0.950 . S
C4900 C4899 1.397 . S
C4900 C4901 1.334 . S
C4901 H4878 0.950 . S
C4901 C4900 1.334 . S
C4901 C4902 1.287 . S
C4902 C4901 1.287 . S
C4902 C4903 1.524 . S
C4902 H4921 0.913 . S
C4903 H4879 0.950 . S
C4903 C4902 1.524 . S
C4903 C4904 1.415 . S
C4904 H4880 0.950 . S
C4904 C4899 1.363 . S
C4904 C4903 1.415 . S
C4905 H4881 0.951 . S
C4905 C4906 1.366 . S
C4905 C4907 1.388 . S
C4906 C4905 1.366 . S
C4906 C4910 1.385 . S
C4907 H4882 0.951 . S
C4907 C4905 1.388 . S
C4907 C4908 1.366 . S
C4908 C4907 1.366 . S
C4908 C4909 1.414 . S
C4908 C4911 1.499 . S
C4909 H4883 0.950 . S
C4909 C4908 1.414 . S
C4909 C4910 1.374 . S
C4910 H4884 0.950 . S
C4910 C4906 1.385 . S
C4910 C4909 1.374 . S
C4911 C4908 1.499 . S
C4911 C4912 1.373 . S
C4911 C4913 1.389 . S
C4912 H4885 0.950 . S
C4912 C4898 1.377 . S
C4912 C4911 1.373 . S
C4913 C4897 1.377 . S
C4913 C4911 1.389 . S
C4913 C4914 1.524 . S
C4914 C4913 1.524 . S
C4914 C4915 1.397 . S
C4914 C4919 1.363 . S
C4915 H4886 0.950 . S
C4915 C4914 1.397 . S
C4915 C4916 1.334 . S
C4916 H4887 0.950 . S
C4916 C4915 1.334 . S
C4916 C4917 1.287 . S
C4917 C4916 1.287 . S
C4917 C4918 1.524 . S
C4917 H4920 0.999 . S
C4918 H4888 0.950 . S
C4918 C4917 1.524 . S
C4918 C4919 1.415 . S
C4919 H4889 0.950 . S
C4919 C4914 1.363 . S
C4919 C4918 1.415 . S
H4920 C4917 0.999 . S
H4921 C4902 0.913 . S
H4922 C4940 0.951 . S
H4923 C4942 0.951 . S
H4924 C4944 0.950 . S
H4925 C4945 0.950 . S
H4926 C4947 0.950 . S
H4927 C4950 0.950 . S
H4928 C4951 0.950 . S
H4929 C4953 0.950 . S
H4930 C4954 0.950 . S
H4931 C4955 0.951 . S
H4932 C4957 0.951 . S
H4933 C4959 0.950 . S
H4934 C4960 0.950 . S
H4935 C4962 0.950 . S
H4936 C4965 0.950 . S
H4937 C4966 0.950 . S
H4938 C4968 0.950 . S
H4939 C4969 0.950 . S
C4940 H4922 0.951 . S
C4940 C4941 1.366 . S
C4940 C4942 1.388 . S
C4941 C4940 1.366 . S
C4941 C4945 1.385 . S
C4942 H4923 0.951 . S
C4942 C4940 1.388 . S
C4942 C4943 1.366 . S
C4943 C4942 1.366 . S
C4943 C4944 1.414 . S
C4943 C4946 1.499 . S
C4944 H4924 0.950 . S
C4944 C4943 1.414 . S
C4944 C4945 1.374 . S
C4945 H4925 0.950 . S
C4945 C4941 1.385 . S
C4945 C4944 1.374 . S
C4946 C4943 1.499 . S
C4946 C4947 1.373 . S
C4946 C4948 1.389 . S
C4947 H4926 0.950 . S
C4947 C4946 1.373 . S
C4947 C4963 1.377 . S
C4948 C4946 1.389 . S
C4948 C4949 1.524 . S
C4948 C4962 1.377 . S
C4949 C4948 1.524 . S
C4949 C4950 1.397 . S
C4949 C4954 1.363 . S
C4950 H4927 0.950 . S
C4950 C4949 1.397 . S
C4950 C4951 1.334 . S
C4951 H4928 0.950 . S
C4951 C4950 1.334 . S
C4951 C4952 1.287 . S
C4952 C4951 1.287 . S
C4952 C4953 1.524 . S
C4952 H4971 0.913 . S
C4953 H4929 0.950 . S
C4953 C4952 1.524 . S
C4953 C4954 1.415 . S
C4954 H4930 0.950 . S
C4954 C4949 1.363 . S
C4954 C4953 1.415 . S
C4955 H4931 0.951 . S
C4955 C4956 1.366 . S
C4955 C4957 1.388 . S
C4956 C4955 1.366 . S
C4956 C4960 1.385 . S
C4957 H4932 0.951 . S
C4957 C4955 1.388 . S
C4957 C4958 1.366 . S
C4958 C4957 1.366 . S
C4958 C4959 1.414 . S
C4958 C4961 1.499 . S
C4959 H4933 0.950 . S
C4959 C4958 1.414 . S
C4959 C4960 1.374 . S
C4960 H4934 0.950 . S
C4960 C4956 1.385 . S
C4960 C4959 1.374 . S
C4961 C4958 1.499 . S
C4961 C4962 1.373 . S
C4961 C4963 1.389 . S
C4962 H4935 0.950 . S
C4962 C4948 1.377 . S
C4962 C4961 1.373 . S
C4963 C4947 1.377 . S
C4963 C4961 1.389 . S
C4963 C4964 1.524 . S
C4964 C4963 1.524 . S
C4964 C4965 1.397 . S
C4964 C4969 1.363 . S
C4965 H4936 0.950 . S
C4965 C4964 1.397 . S
C4965 C4966 1.334 . S
C4966 H4937 0.950 . S
C4966 C4965 1.334 . S
C4966 C4967 1.287 . S
C4967 C4966 1.287 . S
C4967 C4968 1.524 . S
C4967 H4970 0.999 . S
C4968 H4938 0.950 . S
C4968 C4967 1.524 . S
C4968 C4969 1.415 . S
C4969 H4939 0.950 . S
C4969 C4964 1.363 . S
C4969 C4968 1.415 . S
H4970 C4967 0.999 . S
H4971 C4952 0.913 . S
H4972 C4990 0.951 . S
H4973 C4992 0.951 . S
H4974 C4994 0.950 . S
H4975 C4995 0.950 . S
H4976 C4997 0.950 . S
H4977 C5000 0.950 . S
H4978 C5001 0.950 . S
H4979 C5003 0.950 . S
H4980 C5004 0.950 . S
H4981 C5005 0.951 . S
H4982 C5007 0.951 . S
H4983 C5009 0.950 . S
H4984 C5010 0.950 . S
H4985 C5012 0.950 . S
H4986 C5015 0.950 . S
H4987 C5016 0.950 . S
H4988 C5018 0.950 . S
H4989 C5019 0.950 . S
C4990 H4972 0.951 . S
C4990 C4991 1.366 . S
C4990 C4992 1.388 . S
C4991 C4990 1.366 . S
C4991 C4995 1.385 . S
C4992 H4973 0.951 . S
C4992 C4990 1.388 . S
C4992 C4993 1.366 . S
C4993 C4992 1.366 . S
C4993 C4994 1.414 . S
C4993 C4996 1.499 . S
C4994 H4974 0.950 . S
C4994 C4993 1.414 . S
C4994 C4995 1.374 . S
C4995 H4975 0.950 . S
C4995 C4991 1.385 . S
C4995 C4994 1.374 . S
C4996 C4993 1.499 . S
C4996 C4997 1.373 . S
C4996 C4998 1.389 . S
C4997 H4976 0.950 . S
C4997 C4996 1.373 . S
C4997 C5013 1.377 . S
C4998 C4996 1.389 . S
C4998 C4999 1.524 . S
C4998 C5012 1.377 . S
C4999 C4998 1.524 . S
C4999 C5000 1.397 . S
C4999 C5004 1.363 . S
C5000 H4977 0.950 . S
C5000 C4999 1.397 . S
C5000 C5001 1.334 . S
C5001 H4978 0.950 . S
C5001 C5000 1.334 . S
C5001 C5002 1.287 . S
C5002 C5001 1.287 . S
C5002 C5003 1.524 . S
C5002 H5021 0.913 . S
C5003 H4979 0.950 . S
C5003 C5002 1.524 . S
C5003 C5004 1.415 . S
C5004 H4980 0.950 . S
C5004 C4999 1.363 . S
C5004 C5003 1.415 . S
C5005 H4981 0.951 . S
C5005 C5006 1.366 . S
C5005 C5007 1.388 . S
C5006 C5005 1.366 . S
C5006 C5010 1.385 . S
C5007 H4982 0.951 . S
C5007 C5005 1.388 . S
C5007 C5008 1.366 . S
C5008 C5007 1.366 . S
C5008 C5009 1.414 . S
C5008 C5011 1.499 . S
C5009 H4983 0.950 . S
C5009 C5008 1.414 . S
C5009 C5010 1.374 . S
C5010 H4984 0.950 . S
C5010 C5006 1.385 . S
C5010 C5009 1.374 . S
C5011 C5008 1.499 . S
C5011 C5012 1.373 . S
C5011 C5013 1.389 . S
C5012 H4985 0.950 . S
C5012 C4998 1.377 . S
C5012 C5011 1.373 . S
C5013 C4997 1.377 . S
C5013 C5011 1.389 . S
C5013 C5014 1.524 . S
C5014 C5013 1.524 . S
C5014 C5015 1.397 . S
C5014 C5019 1.363 . S
C5015 H4986 0.950 . S
C5015 C5014 1.397 . S
C5015 C5016 1.334 . S
C5016 H4987 0.950 . S
C5016 C5015 1.334 . S
C5016 C5017 1.287 . S
C5017 C5016 1.287 . S
C5017 C5018 1.524 . S
C5017 H5020 0.999 . S
C5018 H4988 0.950 . S
C5018 C5017 1.524 . S
C5018 C5019 1.415 . S
C5019 H4989 0.950 . S
C5019 C5014 1.363 . S
C5019 C5018 1.415 . S
H5020 C5017 0.999 . S
H5021 C5002 0.913 . S
H5022 C5040 0.951 . S
H5023 C5042 0.951 . S
H5024 C5044 0.950 . S
H5025 C5045 0.950 . S
H5026 C5047 0.950 . S
H5027 C5050 0.950 . S
H5028 C5051 0.950 . S
H5029 C5053 0.950 . S
H5030 C5054 0.950 . S
H5031 C5055 0.951 . S
H5032 C5057 0.951 . S
H5033 C5059 0.950 . S
H5034 C5060 0.950 . S
H5035 C5062 0.950 . S
H5036 C5065 0.950 . S
H5037 C5066 0.950 . S
H5038 C5068 0.950 . S
H5039 C5069 0.950 . S
C5040 H5022 0.951 . S
C5040 C5041 1.366 . S
C5040 C5042 1.388 . S
C5041 C5040 1.366 . S
C5041 C5045 1.385 . S
C5042 H5023 0.951 . S
C5042 C5040 1.388 . S
C5042 C5043 1.366 . S
C5043 C5042 1.366 . S
C5043 C5044 1.414 . S
C5043 C5046 1.499 . S
C5044 H5024 0.950 . S
C5044 C5043 1.414 . S
C5044 C5045 1.374 . S
C5045 H5025 0.950 . S
C5045 C5041 1.385 . S
C5045 C5044 1.374 . S
C5046 C5043 1.499 . S
C5046 C5047 1.373 . S
C5046 C5048 1.389 . S
C5047 H5026 0.950 . S
C5047 C5046 1.373 . S
C5047 C5063 1.377 . S
C5048 C5046 1.389 . S
C5048 C5049 1.524 . S
C5048 C5062 1.377 . S
C5049 C5048 1.524 . S
C5049 C5050 1.397 . S
C5049 C5054 1.363 . S
C5050 H5027 0.950 . S
C5050 C5049 1.397 . S
C5050 C5051 1.334 . S
C5051 H5028 0.950 . S
C5051 C5050 1.334 . S
C5051 C5052 1.287 . S
C5052 C5051 1.287 . S
C5052 C5053 1.524 . S
C5052 H5071 0.913 . S
C5053 H5029 0.950 . S
C5053 C5052 1.524 . S
C5053 C5054 1.415 . S
C5054 H5030 0.950 . S
C5054 C5049 1.363 . S
C5054 C5053 1.415 . S
C5055 H5031 0.951 . S
C5055 C5056 1.366 . S
C5055 C5057 1.388 . S
C5056 C5055 1.366 . S
C5056 C5060 1.385 . S
C5057 H5032 0.951 . S
C5057 C5055 1.388 . S
C5057 C5058 1.366 . S
C5058 C5057 1.366 . S
C5058 C5059 1.414 . S
C5058 C5061 1.499 . S
C5059 H5033 0.950 . S
C5059 C5058 1.414 . S
C5059 C5060 1.374 . S
C5060 H5034 0.950 . S
C5060 C5056 1.385 . S
C5060 C5059 1.374 . S
C5061 C5058 1.499 . S
C5061 C5062 1.373 . S
C5061 C5063 1.389 . S
C5062 H5035 0.950 . S
C5062 C5048 1.377 . S
C5062 C5061 1.373 . S
C5063 C5047 1.377 . S
C5063 C5061 1.389 . S
C5063 C5064 1.524 . S
C5064 C5063 1.524 . S
C5064 C5065 1.397 . S
C5064 C5069 1.363 . S
C5065 H5036 0.950 . S
C5065 C5064 1.397 . S
C5065 C5066 1.334 . S
C5066 H5037 0.950 . S
C5066 C5065 1.334 . S
C5066 C5067 1.287 . S
C5067 C5066 1.287 . S
C5067 C5068 1.524 . S
C5067 H5070 0.999 . S
C5068 H5038 0.950 . S
C5068 C5067 1.524 . S
C5068 C5069 1.415 . S
C5069 H5039 0.950 . S
C5069 C5064 1.363 . S
C5069 C5068 1.415 . S
H5070 C5067 0.999 . S
H5071 C5052 0.913 . S
H5072 C5090 0.951 . S
H5073 C5092 0.951 . S
H5074 C5094 0.950 . S
H5075 C5095 0.950 . S
H5076 C5097 0.950 . S
H5077 C5100 0.950 . S
H5078 C5101 0.950 . S
H5079 C5103 0.950 . S
H5080 C5104 0.950 . S
H5081 C5105 0.951 . S
H5082 C5107 0.951 . S
H5083 C5109 0.950 . S
H5084 C5110 0.950 . S
H5085 C5112 0.950 . S
H5086 C5115 0.950 . S
H5087 C5116 0.950 . S
H5088 C5118 0.950 . S
H5089 C5119 0.950 . S
C5090 H5072 0.951 . S
C5090 C5091 1.366 . S
C5090 C5092 1.388 . S
C5091 C5090 1.366 . S
C5091 C5095 1.385 . S
C5092 H5073 0.951 . S
C5092 C5090 1.388 . S
C5092 C5093 1.366 . S
C5093 C5092 1.366 . S
C5093 C5094 1.414 . S
C5093 C5096 1.499 . S
C5094 H5074 0.950 . S
C5094 C5093 1.414 . S
C5094 C5095 1.374 . S
C5095 H5075 0.950 . S
C5095 C5091 1.385 . S
C5095 C5094 1.374 . S
C5096 C5093 1.499 . S
C5096 C5097 1.373 . S
C5096 C5098 1.389 . S
C5097 H5076 0.950 . S
C5097 C5096 1.373 . S
C5097 C5113 1.377 . S
C5098 C5096 1.389 . S
C5098 C5099 1.524 . S
C5098 C5112 1.377 . S
C5099 C5098 1.524 . S
C5099 C5100 1.397 . S
C5099 C5104 1.363 . S
C5100 H5077 0.950 . S
C5100 C5099 1.397 . S
C5100 C5101 1.334 . S
C5101 H5078 0.950 . S
C5101 C5100 1.334 . S
C5101 C5102 1.287 . S
C5102 C5101 1.287 . S
C5102 C5103 1.524 . S
C5102 H5121 0.913 . S
C5103 H5079 0.950 . S
C5103 C5102 1.524 . S
C5103 C5104 1.415 . S
C5104 H5080 0.950 . S
C5104 C5099 1.363 . S
C5104 C5103 1.415 . S
C5105 H5081 0.951 . S
C5105 C5106 1.366 . S
C5105 C5107 1.388 . S
C5106 C5105 1.366 . S
C5106 C5110 1.385 . S
C5107 H5082 0.951 . S
C5107 C5105 1.388 . S
C5107 C5108 1.366 . S
C5108 C5107 1.366 . S
C5108 C5109 1.414 . S
C5108 C5111 1.499 . S
C5109 H5083 0.950 . S
C5109 C5108 1.414 . S
C5109 C5110 1.374 . S
C5110 H5084 0.950 . S
C5110 C5106 1.385 . S
C5110 C5109 1.374 . S
C5111 C5108 1.499 . S
C5111 C5112 1.373 . S
C5111 C5113 1.389 . S
C5112 H5085 0.950 . S
C5112 C5098 1.377 . S
C5112 C5111 1.373 . S
C5113 C5097 1.377 . S
C5113 C5111 1.389 . S
C5113 C5114 1.524 . S
C5114 C5113 1.524 . S
C5114 C5115 1.397 . S
C5114 C5119 1.363 . S
C5115 H5086 0.950 . S
C5115 C5114 1.397 . S
C5115 C5116 1.334 . S
C5116 H5087 0.950 . S
C5116 C5115 1.334 . S
C5116 C5117 1.287 . S
C5117 C5116 1.287 . S
C5117 C5118 1.524 . S
C5117 H5120 0.999 . S
C5118 H5088 0.950 . S
C5118 C5117 1.524 . S
C5118 C5119 1.415 . S
C5119 H5089 0.950 . S
C5119 C5114 1.363 . S
C5119 C5118 1.415 . S
H5120 C5117 0.999 . S
H5121 C5102 0.913 . S
H5122 C5140 0.951 . S
H5123 C5142 0.951 . S
H5124 C5144 0.950 . S
H5125 C5145 0.950 . S
H5126 C5147 0.950 . S
H5127 C5150 0.950 . S
H5128 C5151 0.950 . S
H5129 C5153 0.950 . S
H5130 C5154 0.950 . S
H5131 C5155 0.951 . S
H5132 C5157 0.951 . S
H5133 C5159 0.950 . S
H5134 C5160 0.950 . S
H5135 C5162 0.950 . S
H5136 C5165 0.950 . S
H5137 C5166 0.950 . S
H5138 C5168 0.950 . S
H5139 C5169 0.950 . S
C5140 H5122 0.951 . S
C5140 C5141 1.366 . S
C5140 C5142 1.388 . S
C5141 C5140 1.366 . S
C5141 C5145 1.385 . S
C5142 H5123 0.951 . S
C5142 C5140 1.388 . S
C5142 C5143 1.366 . S
C5143 C5142 1.366 . S
C5143 C5144 1.414 . S
C5143 C5146 1.499 . S
C5144 H5124 0.950 . S
C5144 C5143 1.414 . S
C5144 C5145 1.374 . S
C5145 H5125 0.950 . S
C5145 C5141 1.385 . S
C5145 C5144 1.374 . S
C5146 C5143 1.499 . S
C5146 C5147 1.373 . S
C5146 C5148 1.389 . S
C5147 H5126 0.950 . S
C5147 C5146 1.373 . S
C5147 C5163 1.377 . S
C5148 C5146 1.389 . S
C5148 C5149 1.524 . S
C5148 C5162 1.377 . S
C5149 C5148 1.524 . S
C5149 C5150 1.397 . S
C5149 C5154 1.363 . S
C5150 H5127 0.950 . S
C5150 C5149 1.397 . S
C5150 C5151 1.334 . S
C5151 H5128 0.950 . S
C5151 C5150 1.334 . S
C5151 C5152 1.287 . S
C5152 C5151 1.287 . S
C5152 C5153 1.524 . S
C5152 H5171 0.913 . S
C5153 H5129 0.950 . S
C5153 C5152 1.524 . S
C5153 C5154 1.415 . S
C5154 H5130 0.950 . S
C5154 C5149 1.363 . S
C5154 C5153 1.415 . S
C5155 H5131 0.951 . S
C5155 C5156 1.366 . S
C5155 C5157 1.388 . S
C5156 C5155 1.366 . S
C5156 C5160 1.385 . S
C5157 H5132 0.951 . S
C5157 C5155 1.388 . S
C5157 C5158 1.366 . S
C5158 C5157 1.366 . S
C5158 C5159 1.414 . S
C5158 C5161 1.499 . S
C5159 H5133 0.950 . S
C5159 C5158 1.414 . S
C5159 C5160 1.374 . S
C5160 H5134 0.950 . S
C5160 C5156 1.385 . S
C5160 C5159 1.374 . S
C5161 C5158 1.499 . S
C5161 C5162 1.373 . S
C5161 C5163 1.389 . S
C5162 H5135 0.950 . S
C5162 C5148 1.377 . S
C5162 C5161 1.373 . S
C5163 C5147 1.377 . S
C5163 C5161 1.389 . S
C5163 C5164 1.524 . S
C5164 C5163 1.524 . S
C5164 C5165 1.397 . S
C5164 C5169 1.363 . S
C5165 H5136 0.950 . S
C5165 C5164 1.397 . S
C5165 C5166 1.334 . S
C5166 H5137 0.950 . S
C5166 C5165 1.334 . S
C5166 C5167 1.287 . S
C5167 C5166 1.287 . S
C5167 C5168 1.524 . S
C5167 H5170 0.999 . S
C5168 H5138 0.950 . S
C5168 C5167 1.524 . S
C5168 C5169 1.415 . S
C5169 H5139 0.950 . S
C5169 C5164 1.363 . S
C5169 C5168 1.415 . S
H5170 C5167 0.999 . S
H5171 C5152 0.913 . S
H5172 C5190 0.951 . S
H5173 C5192 0.951 . S
H5174 C5194 0.950 . S
H5175 C5195 0.950 . S
H5176 C5197 0.950 . S
H5177 C5200 0.950 . S
H5178 C5201 0.950 . S
H5179 C5203 0.950 . S
H5180 C5204 0.950 . S
H5181 C5205 0.951 . S
H5182 C5207 0.951 . S
H5183 C5209 0.950 . S
H5184 C5210 0.950 . S
H5185 C5212 0.950 . S
H5186 C5215 0.950 . S
H5187 C5216 0.950 . S
H5188 C5218 0.950 . S
H5189 C5219 0.950 . S
C5190 H5172 0.951 . S
C5190 C5191 1.366 . S
C5190 C5192 1.388 . S
C5191 C5190 1.366 . S
C5191 C5195 1.385 . S
C5192 H5173 0.951 . S
C5192 C5190 1.388 . S
C5192 C5193 1.366 . S
C5193 C5192 1.366 . S
C5193 C5194 1.414 . S
C5193 C5196 1.499 . S
C5194 H5174 0.950 . S
C5194 C5193 1.414 . S
C5194 C5195 1.374 . S
C5195 H5175 0.950 . S
C5195 C5191 1.385 . S
C5195 C5194 1.374 . S
C5196 C5193 1.499 . S
C5196 C5197 1.373 . S
C5196 C5198 1.389 . S
C5197 H5176 0.950 . S
C5197 C5196 1.373 . S
C5197 C5213 1.377 . S
C5198 C5196 1.389 . S
C5198 C5199 1.524 . S
C5198 C5212 1.377 . S
C5199 C5198 1.524 . S
C5199 C5200 1.397 . S
C5199 C5204 1.363 . S
C5200 H5177 0.950 . S
C5200 C5199 1.397 . S
C5200 C5201 1.334 . S
C5201 H5178 0.950 . S
C5201 C5200 1.334 . S
C5201 C5202 1.287 . S
C5202 C5201 1.287 . S
C5202 C5203 1.524 . S
C5202 H5221 0.913 . S
C5203 H5179 0.950 . S
C5203 C5202 1.524 . S
C5203 C5204 1.415 . S
C5204 H5180 0.950 . S
C5204 C5199 1.363 . S
C5204 C5203 1.415 . S
C5205 H5181 0.951 . S
C5205 C5206 1.366 . S
C5205 C5207 1.388 . S
C5206 C5205 1.366 . S
C5206 C5210 1.385 . S
C5207 H5182 0.951 . S
C5207 C5205 1.388 . S
C5207 C5208 1.366 . S
C5208 C5207 1.366 . S
C5208 C5209 1.414 . S
C5208 C5211 1.499 . S
C5209 H5183 0.950 . S
C5209 C5208 1.414 . S
C5209 C5210 1.374 . S
C5210 H5184 0.950 . S
C5210 C5206 1.385 . S
C5210 C5209 1.374 . S
C5211 C5208 1.499 . S
C5211 C5212 1.373 . S
C5211 C5213 1.389 . S
C5212 H5185 0.950 . S
C5212 C5198 1.377 . S
C5212 C5211 1.373 . S
C5213 C5197 1.377 . S
C5213 C5211 1.389 . S
C5213 C5214 1.524 . S
C5214 C5213 1.524 . S
C5214 C5215 1.397 . S
C5214 C5219 1.363 . S
C5215 H5186 0.950 . S
C5215 C5214 1.397 . S
C5215 C5216 1.334 . S
C5216 H5187 0.950 . S
C5216 C5215 1.334 . S
C5216 C5217 1.287 . S
C5217 C5216 1.287 . S
C5217 C5218 1.524 . S
C5217 H5220 0.999 . S
C5218 H5188 0.950 . S
C5218 C5217 1.524 . S
C5218 C5219 1.415 . S
C5219 H5189 0.950 . S
C5219 C5214 1.363 . S
C5219 C5218 1.415 . S
H5220 C5217 0.999 . S
H5221 C5202 0.913 . S
H5222 C5240 0.951 . S
H5223 C5242 0.951 . S
H5224 C5244 0.950 . S
H5225 C5245 0.950 . S
H5226 C5247 0.950 . S
H5227 C5250 0.950 . S
H5228 C5251 0.950 . S
H5229 C5253 0.950 . S
H5230 C5254 0.950 . S
H5231 C5255 0.951 . S
H5232 C5257 0.951 . S
H5233 C5259 0.950 . S
H5234 C5260 0.950 . S
H5235 C5262 0.950 . S
H5236 C5265 0.950 . S
H5237 C5266 0.950 . S
H5238 C5268 0.950 . S
H5239 C5269 0.950 . S
C5240 H5222 0.951 . S
C5240 C5241 1.366 . S
C5240 C5242 1.388 . S
C5241 C5240 1.366 . S
C5241 C5245 1.385 . S
C5242 H5223 0.951 . S
C5242 C5240 1.388 . S
C5242 C5243 1.366 . S
C5243 C5242 1.366 . S
C5243 C5244 1.414 . S
C5243 C5246 1.499 . S
C5244 H5224 0.950 . S
C5244 C5243 1.414 . S
C5244 C5245 1.374 . S
C5245 H5225 0.950 . S
C5245 C5241 1.385 . S
C5245 C5244 1.374 . S
C5246 C5243 1.499 . S
C5246 C5247 1.373 . S
C5246 C5248 1.389 . S
C5247 H5226 0.950 . S
C5247 C5246 1.373 . S
C5247 C5263 1.377 . S
C5248 C5246 1.389 . S
C5248 C5249 1.524 . S
C5248 C5262 1.377 . S
C5249 C5248 1.524 . S
C5249 C5250 1.397 . S
C5249 C5254 1.363 . S
C5250 H5227 0.950 . S
C5250 C5249 1.397 . S
C5250 C5251 1.334 . S
C5251 H5228 0.950 . S
C5251 C5250 1.334 . S
C5251 C5252 1.287 . S
C5252 C5251 1.287 . S
C5252 C5253 1.524 . S
C5252 H5271 0.913 . S
C5253 H5229 0.950 . S
C5253 C5252 1.524 . S
C5253 C5254 1.415 . S
C5254 H5230 0.950 . S
C5254 C5249 1.363 . S
C5254 C5253 1.415 . S
C5255 H5231 0.951 . S
C5255 C5256 1.366 . S
C5255 C5257 1.388 . S
C5256 C5255 1.366 . S
C5256 C5260 1.385 . S
C5257 H5232 0.951 . S
C5257 C5255 1.388 . S
C5257 C5258 1.366 . S
C5258 C5257 1.366 . S
C5258 C5259 1.414 . S
C5258 C5261 1.499 . S
C5259 H5233 0.950 . S
C5259 C5258 1.414 . S
C5259 C5260 1.374 . S
C5260 H5234 0.950 . S
C5260 C5256 1.385 . S
C5260 C5259 1.374 . S
C5261 C5258 1.499 . S
C5261 C5262 1.373 . S
C5261 C5263 1.389 . S
C5262 H5235 0.950 . S
C5262 C5248 1.377 . S
C5262 C5261 1.373 . S
C5263 C5247 1.377 . S
C5263 C5261 1.389 . S
C5263 C5264 1.524 . S
C5264 C5263 1.524 . S
C5264 C5265 1.397 . S
C5264 C5269 1.363 . S
C5265 H5236 0.950 . S
C5265 C5264 1.397 . S
C5265 C5266 1.334 . S
C5266 H5237 0.950 . S
C5266 C5265 1.334 . S
C5266 C5267 1.287 . S
C5267 C5266 1.287 . S
C5267 C5268 1.524 . S
C5267 H5270 0.999 . S
C5268 H5238 0.950 . S
C5268 C5267 1.524 . S
C5268 C5269 1.415 . S
C5269 H5239 0.950 . S
C5269 C5264 1.363 . S
C5269 C5268 1.415 . S
H5270 C5267 0.999 . S
H5271 C5252 0.913 . S
H5272 C5290 0.951 . S
H5273 C5292 0.951 . S
H5274 C5294 0.950 . S
H5275 C5295 0.950 . S
H5276 C5297 0.950 . S
H5277 C5300 0.950 . S
H5278 C5301 0.950 . S
H5279 C5303 0.950 . S
H5280 C5304 0.950 . S
H5281 C5305 0.951 . S
H5282 C5307 0.951 . S
H5283 C5309 0.950 . S
H5284 C5310 0.950 . S
H5285 C5312 0.950 . S
H5286 C5315 0.950 . S
H5287 C5316 0.950 . S
H5288 C5318 0.950 . S
H5289 C5319 0.950 . S
C5290 H5272 0.951 . S
C5290 C5291 1.366 . S
C5290 C5292 1.388 . S
C5291 C5290 1.366 . S
C5291 C5295 1.385 . S
C5292 H5273 0.951 . S
C5292 C5290 1.388 . S
C5292 C5293 1.366 . S
C5293 C5292 1.366 . S
C5293 C5294 1.414 . S
C5293 C5296 1.499 . S
C5294 H5274 0.950 . S
C5294 C5293 1.414 . S
C5294 C5295 1.374 . S
C5295 H5275 0.950 . S
C5295 C5291 1.385 . S
C5295 C5294 1.374 . S
C5296 C5293 1.499 . S
C5296 C5297 1.373 . S
C5296 C5298 1.389 . S
C5297 H5276 0.950 . S
C5297 C5296 1.373 . S
C5297 C5313 1.377 . S
C5298 C5296 1.389 . S
C5298 C5299 1.524 . S
C5298 C5312 1.377 . S
C5299 C5298 1.524 . S
C5299 C5300 1.397 . S
C5299 C5304 1.363 . S
C5300 H5277 0.950 . S
C5300 C5299 1.397 . S
C5300 C5301 1.334 . S
C5301 H5278 0.950 . S
C5301 C5300 1.334 . S
C5301 C5302 1.287 . S
C5302 C5301 1.287 . S
C5302 C5303 1.524 . S
C5302 H5321 0.913 . S
C5303 H5279 0.950 . S
C5303 C5302 1.524 . S
C5303 C5304 1.415 . S
C5304 H5280 0.950 . S
C5304 C5299 1.363 . S
C5304 C5303 1.415 . S
C5305 H5281 0.951 . S
C5305 C5306 1.366 . S
C5305 C5307 1.388 . S
C5306 C5305 1.366 . S
C5306 C5310 1.385 . S
C5307 H5282 0.951 . S
C5307 C5305 1.388 . S
C5307 C5308 1.366 . S
C5308 C5307 1.366 . S
C5308 C5309 1.414 . S
C5308 C5311 1.499 . S
C5309 H5283 0.950 . S
C5309 C5308 1.414 . S
C5309 C5310 1.374 . S
C5310 H5284 0.950 . S
C5310 C5306 1.385 . S
C5310 C5309 1.374 . S
C5311 C5308 1.499 . S
C5311 C5312 1.373 . S
C5311 C5313 1.389 . S
C5312 H5285 0.950 . S
C5312 C5298 1.377 . S
C5312 C5311 1.373 . S
C5313 C5297 1.377 . S
C5313 C5311 1.389 . S
C5313 C5314 1.524 . S
C5314 C5313 1.524 . S
C5314 C5315 1.397 . S
C5314 C5319 1.363 . S
C5315 H5286 0.950 . S
C5315 C5314 1.397 . S
C5315 C5316 1.334 . S
C5316 H5287 0.950 . S
C5316 C5315 1.334 . S
C5316 C5317 1.287 . S
C5317 C5316 1.287 . S
C5317 C5318 1.524 . S
C5317 H5320 0.999 . S
C5318 H5288 0.950 . S
C5318 C5317 1.524 . S
C5318 C5319 1.415 . S
C5319 H5289 0.950 . S
C5319 C5314 1.363 . S
C5319 C5318 1.415 . S
H5320 C5317 0.999 . S
H5321 C5302 0.913 . S
H5322 C5340 0.951 . S
H5323 C5342 0.951 . S
H5324 C5344 0.950 . S
H5325 C5345 0.950 . S
H5326 C5347 0.950 . S
H5327 C5350 0.950 . S
H5328 C5351 0.950 . S
H5329 C5353 0.950 . S
H5330 C5354 0.950 . S
H5331 C5355 0.951 . S
H5332 C5357 0.951 . S
H5333 C5359 0.950 . S
H5334 C5360 0.950 . S
H5335 C5362 0.950 . S
H5336 C5365 0.950 . S
H5337 C5366 0.950 . S
H5338 C5368 0.950 . S
H5339 C5369 0.950 . S
C5340 H5322 0.951 . S
C5340 C5341 1.366 . S
C5340 C5342 1.388 . S
C5341 C5340 1.366 . S
C5341 C5345 1.385 . S
C5342 H5323 0.951 . S
C5342 C5340 1.388 . S
C5342 C5343 1.366 . S
C5343 C5342 1.366 . S
C5343 C5344 1.414 . S
C5343 C5346 1.499 . S
C5344 H5324 0.950 . S
C5344 C5343 1.414 . S
C5344 C5345 1.374 . S
C5345 H5325 0.950 . S
C5345 C5341 1.385 . S
C5345 C5344 1.374 . S
C5346 C5343 1.499 . S
C5346 C5347 1.373 . S
C5346 C5348 1.389 . S
C5347 H5326 0.950 . S
C5347 C5346 1.373 . S
C5347 C5363 1.377 . S
C5348 C5346 1.389 . S
C5348 C5349 1.524 . S
C5348 C5362 1.377 . S
C5349 C5348 1.524 . S
C5349 C5350 1.397 . S
C5349 C5354 1.363 . S
C5350 H5327 0.950 . S
C5350 C5349 1.397 . S
C5350 C5351 1.334 . S
C5351 H5328 0.950 . S
C5351 C5350 1.334 . S
C5351 C5352 1.287 . S
C5352 C5351 1.287 . S
C5352 C5353 1.524 . S
C5352 H5371 0.913 . S
C5353 H5329 0.950 . S
C5353 C5352 1.524 . S
C5353 C5354 1.415 . S
C5354 H5330 0.950 . S
C5354 C5349 1.363 . S
C5354 C5353 1.415 . S
C5355 H5331 0.951 . S
C5355 C5356 1.366 . S
C5355 C5357 1.388 . S
C5356 C5355 1.366 . S
C5356 C5360 1.385 . S
C5357 H5332 0.951 . S
C5357 C5355 1.388 . S
C5357 C5358 1.366 . S
C5358 C5357 1.366 . S
C5358 C5359 1.414 . S
C5358 C5361 1.499 . S
C5359 H5333 0.950 . S
C5359 C5358 1.414 . S
C5359 C5360 1.374 . S
C5360 H5334 0.950 . S
C5360 C5356 1.385 . S
C5360 C5359 1.374 . S
C5361 C5358 1.499 . S
C5361 C5362 1.373 . S
C5361 C5363 1.389 . S
C5362 H5335 0.950 . S
C5362 C5348 1.377 . S
C5362 C5361 1.373 . S
C5363 C5347 1.377 . S
C5363 C5361 1.389 . S
C5363 C5364 1.524 . S
C5364 C5363 1.524 . S
C5364 C5365 1.397 . S
C5364 C5369 1.363 . S
C5365 H5336 0.950 . S
C5365 C5364 1.397 . S
C5365 C5366 1.334 . S
C5366 H5337 0.950 . S
C5366 C5365 1.334 . S
C5366 C5367 1.287 . S
C5367 C5366 1.287 . S
C5367 C5368 1.524 . S
C5367 H5370 0.999 . S
C5368 H5338 0.950 . S
C5368 C5367 1.524 . S
C5368 C5369 1.415 . S
C5369 H5339 0.950 . S
C5369 C5364 1.363 . S
C5369 C5368 1.415 . S
H5370 C5367 0.999 . S
H5371 C5352 0.913 . S
H5372 C5390 0.951 . S
H5373 C5392 0.951 . S
H5374 C5394 0.950 . S
H5375 C5395 0.950 . S
H5376 C5397 0.950 . S
H5377 C5400 0.950 . S
H5378 C5401 0.950 . S
H5379 C5403 0.950 . S
H5380 C5404 0.950 . S
H5381 C5405 0.951 . S
H5382 C5407 0.951 . S
H5383 C5409 0.950 . S
H5384 C5410 0.950 . S
H5385 C5412 0.950 . S
H5386 C5415 0.950 . S
H5387 C5416 0.950 . S
H5388 C5418 0.950 . S
H5389 C5419 0.950 . S
C5390 H5372 0.951 . S
C5390 C5391 1.366 . S
C5390 C5392 1.388 . S
C5391 C5390 1.366 . S
C5391 C5395 1.385 . S
C5392 H5373 0.951 . S
C5392 C5390 1.388 . S
C5392 C5393 1.366 . S
C5393 C5392 1.366 . S
C5393 C5394 1.414 . S
C5393 C5396 1.499 . S
C5394 H5374 0.950 . S
C5394 C5393 1.414 . S
C5394 C5395 1.374 . S
C5395 H5375 0.950 . S
C5395 C5391 1.385 . S
C5395 C5394 1.374 . S
C5396 C5393 1.499 . S
C5396 C5397 1.373 . S
C5396 C5398 1.389 . S
C5397 H5376 0.950 . S
C5397 C5396 1.373 . S
C5397 C5413 1.377 . S
C5398 C5396 1.389 . S
C5398 C5399 1.524 . S
C5398 C5412 1.377 . S
C5399 C5398 1.524 . S
C5399 C5400 1.397 . S
C5399 C5404 1.363 . S
C5400 H5377 0.950 . S
C5400 C5399 1.397 . S
C5400 C5401 1.334 . S
C5401 H5378 0.950 . S
C5401 C5400 1.334 . S
C5401 C5402 1.287 . S
C5402 C5401 1.287 . S
C5402 C5403 1.524 . S
C5402 H5421 0.913 . S
C5403 H5379 0.950 . S
C5403 C5402 1.524 . S
C5403 C5404 1.415 . S
C5404 H5380 0.950 . S
C5404 C5399 1.363 . S
C5404 C5403 1.415 . S
C5405 H5381 0.951 . S
C5405 C5406 1.366 . S
C5405 C5407 1.388 . S
C5406 C5405 1.366 . S
C5406 C5410 1.385 . S
C5407 H5382 0.951 . S
C5407 C5405 1.388 . S
C5407 C5408 1.366 . S
C5408 C5407 1.366 . S
C5408 C5409 1.414 . S
C5408 C5411 1.499 . S
C5409 H5383 0.950 . S
C5409 C5408 1.414 . S
C5409 C5410 1.374 . S
C5410 H5384 0.950 . S
C5410 C5406 1.385 . S
C5410 C5409 1.374 . S
C5411 C5408 1.499 . S
C5411 C5412 1.373 . S
C5411 C5413 1.389 . S
C5412 H5385 0.950 . S
C5412 C5398 1.377 . S
C5412 C5411 1.373 . S
C5413 C5397 1.377 . S
C5413 C5411 1.389 . S
C5413 C5414 1.524 . S
C5414 C5413 1.524 . S
C5414 C5415 1.397 . S
C5414 C5419 1.363 . S
C5415 H5386 0.950 . S
C5415 C5414 1.397 . S
C5415 C5416 1.334 . S
C5416 H5387 0.950 . S
C5416 C5415 1.334 . S
C5416 C5417 1.287 . S
C5417 C5416 1.287 . S
C5417 C5418 1.524 . S
C5417 H5420 0.999 . S
C5418 H5388 0.950 . S
C5418 C5417 1.524 . S
C5418 C5419 1.415 . S
C5419 H5389 0.950 . S
C5419 C5414 1.363 . S
C5419 C5418 1.415 . S
H5420 C5417 0.999 . S
H5421 C5402 0.913 . S
H5422 C5440 0.951 . S
H5423 C5442 0.951 . S
H5424 C5444 0.950 . S
H5425 C5445 0.950 . S
H5426 C5447 0.950 . S
H5427 C5450 0.950 . S
H5428 C5451 0.950 . S
H5429 C5453 0.950 . S
H5430 C5454 0.950 . S
H5431 C5455 0.951 . S
H5432 C5457 0.951 . S
H5433 C5459 0.950 . S
H5434 C5460 0.950 . S
H5435 C5462 0.950 . S
H5436 C5465 0.950 . S
H5437 C5466 0.950 . S
H5438 C5468 0.950 . S
H5439 C5469 0.950 . S
C5440 H5422 0.951 . S
C5440 C5441 1.366 . S
C5440 C5442 1.388 . S
C5441 C5440 1.366 . S
C5441 C5445 1.385 . S
C5442 H5423 0.951 . S
C5442 C5440 1.388 . S
C5442 C5443 1.366 . S
C5443 C5442 1.366 . S
C5443 C5444 1.414 . S
C5443 C5446 1.499 . S
C5444 H5424 0.950 . S
C5444 C5443 1.414 . S
C5444 C5445 1.374 . S
C5445 H5425 0.950 . S
C5445 C5441 1.385 . S
C5445 C5444 1.374 . S
C5446 C5443 1.499 . S
C5446 C5447 1.373 . S
C5446 C5448 1.389 . S
C5447 H5426 0.950 . S
C5447 C5446 1.373 . S
C5447 C5463 1.377 . S
C5448 C5446 1.389 . S
C5448 C5449 1.524 . S
C5448 C5462 1.377 . S
C5449 C5448 1.524 . S
C5449 C5450 1.397 . S
C5449 C5454 1.363 . S
C5450 H5427 0.950 . S
C5450 C5449 1.397 . S
C5450 C5451 1.334 . S
C5451 H5428 0.950 . S
C5451 C5450 1.334 . S
C5451 C5452 1.287 . S
C5452 C5451 1.287 . S
C5452 C5453 1.524 . S
C5452 H5471 0.913 . S
C5453 H5429 0.950 . S
C5453 C5452 1.524 . S
C5453 C5454 1.415 . S
C5454 H5430 0.950 . S
C5454 C5449 1.363 . S
C5454 C5453 1.415 . S
C5455 H5431 0.951 . S
C5455 C5456 1.366 . S
C5455 C5457 1.388 . S
C5456 C5455 1.366 . S
C5456 C5460 1.385 . S
C5457 H5432 0.951 . S
C5457 C5455 1.388 . S
C5457 C5458 1.366 . S
C5458 C5457 1.366 . S
C5458 C5459 1.414 . S
C5458 C5461 1.499 . S
C5459 H5433 0.950 . S
C5459 C5458 1.414 . S
C5459 C5460 1.374 . S
C5460 H5434 0.950 . S
C5460 C5456 1.385 . S
C5460 C5459 1.374 . S
C5461 C5458 1.499 . S
C5461 C5462 1.373 . S
C5461 C5463 1.389 . S
C5462 H5435 0.950 . S
C5462 C5448 1.377 . S
C5462 C5461 1.373 . S
C5463 C5447 1.377 . S
C5463 C5461 1.389 . S
C5463 C5464 1.524 . S
C5464 C5463 1.524 . S
C5464 C5465 1.397 . S
C5464 C5469 1.363 . S
C5465 H5436 0.950 . S
C5465 C5464 1.397 . S
C5465 C5466 1.334 . S
C5466 H5437 0.950 . S
C5466 C5465 1.334 . S
C5466 C5467 1.287 . S
C5467 C5466 1.287 . S
C5467 C5468 1.524 . S
C5467 H5470 0.999 . S
C5468 H5438 0.950 . S
C5468 C5467 1.524 . S
C5468 C5469 1.415 . S
C5469 H5439 0.950 . S
C5469 C5464 1.363 . S
C5469 C5468 1.415 . S
H5470 C5467 0.999 . S
H5471 C5452 0.913 . S
C691 C134 1.469 . S
C706 C8 1.470 . S
C741 C148 1.470 . S
C756 C22 1.470 . S
C791 C162 1.469 . S
C806 C36 1.469 . S
C841 C50 1.469 . S
C856 C120 1.469 . S
C891 C218 1.469 . S
C906 C64 1.469 . S
C941 C78 1.469 . S
C956 C176 1.469 . S
C991 C190 1.469 . S
C1006 C92 1.470 . S
C1041 C204 1.469 . S
C1056 C106 1.469 . S
C1091 C232 1.470 . S
C1106 C260 1.470 . S
C1141 C246 1.469 . S
C1156 C316 1.469 . S
C1191 C274 1.469 . S
C1206 C330 1.469 . S
C1241 C288 1.470 . S
C1256 C302 1.470 . S
C1291 C344 1.469 . S
C1306 C470 1.469 . S
C1341 C484 1.469 . S
C1356 C358 1.470 . S
C1391 C372 1.470 . S
C1406 C498 1.469 . S
C1441 C386 1.470 . S
C1456 C456 1.470 . S
C1491 C554 1.470 . S
C1506 C400 1.469 . S
C1541 C512 1.469 . S
C1556 C414 1.469 . S
C1591 C526 1.469 . S
C1606 C428 1.470 . S
C1641 C540 1.469 . S
C1656 C442 1.469 . S
C1691 C568 1.469 . S
C1706 C596 1.469 . S
C1741 C582 1.470 . S
C1756 C652 1.470 . S
C1791 C610 1.469 . S
C1806 C666 1.469 . S
C1841 C638 1.470 . S
C1856 C624 1.470 . S
C1891 C121 0.975 . S
C1906 C3 1.060 . S
C1941 C135 0.977 . S
C1956 C17 1.059 . S
C1991 C31 1.060 . S
C2006 C149 0.976 . S
C2041 C45 1.060 . S
C2056 C163 0.975 . S
C2091 C59 1.060 . S
C2106 C177 0.975 . S
C2141 C73 1.059 . S
C2156 C191 0.977 . S
C2191 C87 1.060 . S
C2206 C205 0.975 . S
C2241 C219 0.976 . S
C2256 C101 1.060 . S
C2291 C115 1.060 . S
C2306 C233 0.975 . S
C2341 C331 0.977 . S
C2356 C129 1.059 . S
C2391 C143 1.060 . S
C2406 C303 0.974 . S
C2441 C157 1.060 . S
C2456 C317 0.976 . S
C2491 C171 1.060 . S
C2506 C247 0.974 . S
C2541 C185 1.060 . S
C2556 C261 0.975 . S
C2591 C199 1.060 . S
C2606 C275 0.975 . S
C2641 C289 0.977 . S
C2656 C213 1.059 . S
C2691 C9 0.977 . S
C2706 C227 1.060 . S
C2741 C241 1.059 . S
C2756 C65 0.977 . S
C2791 C255 1.059 . S
C2806 C79 0.977 . S
C2841 C269 1.059 . S
C2856 C93 0.977 . S
C2891 C107 0.975 . S
C2906 C283 1.060 . S
C2941 C297 1.060 . S
C2956 C37 0.974 . S
C2991 C311 1.060 . S
C3006 C51 0.975 . S
C3041 C23 0.977 . S
C3056 C325 1.059 . S
C3091 C457 0.975 . S
C3106 C339 1.060 . S
C3141 C353 1.059 . S
C3156 C471 0.977 . S
C3191 C367 1.060 . S
C3206 C485 0.976 . S
C3241 C499 0.976 . S
C3256 C381 1.060 . S
C3291 C513 0.975 . S
C3306 C395 1.060 . S
C3341 C409 1.060 . S
C3356 C527 0.974 . S
C3391 C541 0.976 . S
C3406 C423 1.060 . S
C3441 C555 0.974 . S
C3456 C437 1.060 . S
C3491 C451 1.060 . S
C3506 C569 0.976 . S
C3541 C465 1.059 . S
C3556 C667 0.977 . S
C3591 C479 1.060 . S
C3606 C639 0.974 . S
C3641 C653 0.976 . S
C3656 C493 1.060 . S
C3691 C507 1.059 . S
C3706 C583 0.977 . S
C3741 C521 1.060 . S
C3756 C597 0.976 . S
C3791 C611 0.977 . S
C3806 C535 1.060 . S
C3841 C625 0.977 . S
C3856 C549 1.060 . S
C3891 C563 1.060 . S
C3906 C345 0.974 . S
C3941 C577 1.059 . S
C3956 C401 0.977 . S
C3991 C415 0.977 . S
C4006 C591 1.059 . S
C4041 C605 1.060 . S
C4056 C429 0.974 . S
C4091 C619 1.059 . S
C4106 C443 0.977 . S
C4141 C373 0.977 . S
C4156 C633 1.059 . S
C4191 C647 1.060 . S
C4206 C387 0.974 . S
C4241 C359 0.976 . S
C4256 C661 1.059 . S
C4291 C441 1.249 . S
C4306 C7 1.249 . S
C4341 C21 1.250 . S
C4356 C399 1.248 . S
C4391 C413 1.249 . S
C4406 C35 1.248 . S
C4441 C427 1.249 . S
C4456 C49 1.248 . S
C4491 C63 1.249 . S
C4506 C357 1.248 . S
C4541 C371 1.248 . S
C4556 C77 1.249 . S
C4591 C385 1.249 . S
C4606 C91 1.248 . S
C4641 C105 1.248 . S
C4656 C343 1.249 . S
C4691 C623 1.250 . S
C4706 C119 1.248 . S
C4741 C133 1.248 . S
C4756 C581 1.250 . S
C4791 C147 1.249 . S
C4806 C595 1.248 . S
C4841 C609 1.248 . S
C4856 C161 1.249 . S
C4891 C665 1.249 . S
C4906 C175 1.249 . S
C4941 C637 1.250 . S
C4956 C189 1.248 . S
C4991 C203 1.250 . S
C5006 C651 1.248 . S
C5041 C567 1.250 . S
C5056 C217 1.248 . S
C5091 C231 1.248 . S
C5106 C553 1.250 . S
C5141 C469 1.249 . S
C5156 C245 1.249 . S
C5191 C259 1.250 . S
C5206 C483 1.248 . S
C5241 C497 1.250 . S
C5256 C273 1.248 . S
C5291 C455 1.248 . S
C5306 C287 1.250 . S
C5341 C301 1.248 . S
C5356 C525 1.250 . S
C5391 C539 1.250 . S
C5406 C315 1.248 . S
C5441 C511 1.248 . S
C5456 C329 1.249 . S
