# Generated by pormake.
# Topology wgm, (5)-cn, num edge types: 1
# Building blocks:
#     Node 0, Type 0, BuildingBlock: XOMCOT_clean_sbu_1, # of connection points: 5
#     Node 1, Type 0, BuildingBlock: XOMCOT_clean_sbu_1, # of connection points: 5
#     Node 2, Type 0, BuildingBlock: XOMCOT_clean_sbu_1, # of connection points: 5
#     Node 3, Type 0, BuildingBlock: XOMCOT_clean_sbu_1, # of connection points: 5
#     Node 4, Type 0, BuildingBlock: XOMCOT_clean_sbu_1, # of connection points: 5
#     Node 5, Type 0, BuildingBlock: XOMCOT_clean_sbu_1, # of connection points: 5
#     Node 6, Type 0, BuildingBlock: XOMCOT_clean_sbu_1, # of connection points: 5
#     Node 7, Type 0, BuildingBlock: XOMCOT_clean_sbu_1, # of connection points: 5
#     Node 8, Type 0, BuildingBlock: XOMCOT_clean_sbu_1, # of connection points: 5
#     Node 9, Type 0, BuildingBlock: XOMCOT_clean_sbu_1, # of connection points: 5
#     Node 10, Type 0, BuildingBlock: XOMCOT_clean_sbu_1, # of connection points: 5
#     Node 11, Type 0, BuildingBlock: XOMCOT_clean_sbu_1, # of connection points: 5
#     Node 12, Type 0, BuildingBlock: XOMCOT_clean_sbu_1, # of connection points: 5
#     Node 13, Type 0, BuildingBlock: XOMCOT_clean_sbu_1, # of connection points: 5
#     Node 14, Type 0, BuildingBlock: XOMCOT_clean_sbu_1, # of connection points: 5
#     Node 15, Type 0, BuildingBlock: XOMCOT_clean_sbu_1, # of connection points: 5
#     Node 16, Type 0, BuildingBlock: XOMCOT_clean_sbu_1, # of connection points: 5
#     Node 17, Type 0, BuildingBlock: XOMCOT_clean_sbu_1, # of connection points: 5
#     Node 18, Type 0, BuildingBlock: XOMCOT_clean_sbu_1, # of connection points: 5
#     Node 19, Type 0, BuildingBlock: XOMCOT_clean_sbu_1, # of connection points: 5
#     Node 20, Type 0, BuildingBlock: XOMCOT_clean_sbu_1, # of connection points: 5
#     Node 21, Type 0, BuildingBlock: XOMCOT_clean_sbu_1, # of connection points: 5
#     Node 22, Type 0, BuildingBlock: XOMCOT_clean_sbu_1, # of connection points: 5
#     Node 23, Type 0, BuildingBlock: XOMCOT_clean_sbu_1, # of connection points: 5
#     Node 24, Type 0, BuildingBlock: XOMCOT_clean_sbu_1, # of connection points: 5
#     Node 25, Type 0, BuildingBlock: XOMCOT_clean_sbu_1, # of connection points: 5
#     Node 26, Type 0, BuildingBlock: XOMCOT_clean_sbu_1, # of connection points: 5
#     Node 27, Type 0, BuildingBlock: XOMCOT_clean_sbu_1, # of connection points: 5
#     Node 28, Type 0, BuildingBlock: XOMCOT_clean_sbu_1, # of connection points: 5
#     Node 29, Type 0, BuildingBlock: XOMCOT_clean_sbu_1, # of connection points: 5
#     Node 30, Type 0, BuildingBlock: XOMCOT_clean_sbu_1, # of connection points: 5
#     Node 31, Type 0, BuildingBlock: XOMCOT_clean_sbu_1, # of connection points: 5
#     Edge 32, Type (0, 0), BuildingBlock: CIFDUS_clean_linker_0, # of connection points: 2
#     Edge 33, Type (0, 0), BuildingBlock: CIFDUS_clean_linker_0, # of connection points: 2
#     Edge 34, Type (0, 0), BuildingBlock: CIFDUS_clean_linker_0, # of connection points: 2
#     Edge 35, Type (0, 0), BuildingBlock: CIFDUS_clean_linker_0, # of connection points: 2
#     Edge 36, Type (0, 0), BuildingBlock: CIFDUS_clean_linker_0, # of connection points: 2
#     Edge 37, Type (0, 0), BuildingBlock: CIFDUS_clean_linker_0, # of connection points: 2
#     Edge 38, Type (0, 0), BuildingBlock: CIFDUS_clean_linker_0, # of connection points: 2
#     Edge 39, Type (0, 0), BuildingBlock: CIFDUS_clean_linker_0, # of connection points: 2
#     Edge 40, Type (0, 0), BuildingBlock: CIFDUS_clean_linker_0, # of connection points: 2
#     Edge 41, Type (0, 0), BuildingBlock: CIFDUS_clean_linker_0, # of connection points: 2
#     Edge 42, Type (0, 0), BuildingBlock: CIFDUS_clean_linker_0, # of connection points: 2
#     Edge 43, Type (0, 0), BuildingBlock: CIFDUS_clean_linker_0, # of connection points: 2
#     Edge 44, Type (0, 0), BuildingBlock: CIFDUS_clean_linker_0, # of connection points: 2
#     Edge 45, Type (0, 0), BuildingBlock: CIFDUS_clean_linker_0, # of connection points: 2
#     Edge 46, Type (0, 0), BuildingBlock: CIFDUS_clean_linker_0, # of connection points: 2
#     Edge 47, Type (0, 0), BuildingBlock: CIFDUS_clean_linker_0, # of connection points: 2
#     Edge 48, Type (0, 0), BuildingBlock: CIFDUS_clean_linker_0, # of connection points: 2
#     Edge 49, Type (0, 0), BuildingBlock: CIFDUS_clean_linker_0, # of connection points: 2
#     Edge 50, Type (0, 0), BuildingBlock: CIFDUS_clean_linker_0, # of connection points: 2
#     Edge 51, Type (0, 0), BuildingBlock: CIFDUS_clean_linker_0, # of connection points: 2
#     Edge 52, Type (0, 0), BuildingBlock: CIFDUS_clean_linker_0, # of connection points: 2
#     Edge 53, Type (0, 0), BuildingBlock: CIFDUS_clean_linker_0, # of connection points: 2
#     Edge 54, Type (0, 0), BuildingBlock: CIFDUS_clean_linker_0, # of connection points: 2
#     Edge 55, Type (0, 0), BuildingBlock: CIFDUS_clean_linker_0, # of connection points: 2
#     Edge 56, Type (0, 0), BuildingBlock: CIFDUS_clean_linker_0, # of connection points: 2
#     Edge 57, Type (0, 0), BuildingBlock: CIFDUS_clean_linker_0, # of connection points: 2
#     Edge 58, Type (0, 0), BuildingBlock: CIFDUS_clean_linker_0, # of connection points: 2
#     Edge 59, Type (0, 0), BuildingBlock: CIFDUS_clean_linker_0, # of connection points: 2
#     Edge 60, Type (0, 0), BuildingBlock: CIFDUS_clean_linker_0, # of connection points: 2
#     Edge 61, Type (0, 0), BuildingBlock: CIFDUS_clean_linker_0, # of connection points: 2
#     Edge 62, Type (0, 0), BuildingBlock: CIFDUS_clean_linker_0, # of connection points: 2
#     Edge 63, Type (0, 0), BuildingBlock: CIFDUS_clean_linker_0, # of connection points: 2
#     Edge 64, Type (0, 0), BuildingBlock: CIFDUS_clean_linker_0, # of connection points: 2
#     Edge 65, Type (0, 0), BuildingBlock: CIFDUS_clean_linker_0, # of connection points: 2
#     Edge 66, Type (0, 0), BuildingBlock: CIFDUS_clean_linker_0, # of connection points: 2
#     Edge 67, Type (0, 0), BuildingBlock: CIFDUS_clean_linker_0, # of connection points: 2
#     Edge 68, Type (0, 0), BuildingBlock: CIFDUS_clean_linker_0, # of connection points: 2
#     Edge 69, Type (0, 0), BuildingBlock: CIFDUS_clean_linker_0, # of connection points: 2
#     Edge 70, Type (0, 0), BuildingBlock: CIFDUS_clean_linker_0, # of connection points: 2
#     Edge 71, Type (0, 0), BuildingBlock: CIFDUS_clean_linker_0, # of connection points: 2
#     Edge 72, Type (0, 0), BuildingBlock: CIFDUS_clean_linker_0, # of connection points: 2
#     Edge 73, Type (0, 0), BuildingBlock: CIFDUS_clean_linker_0, # of connection points: 2
#     Edge 74, Type (0, 0), BuildingBlock: CIFDUS_clean_linker_0, # of connection points: 2
#     Edge 75, Type (0, 0), BuildingBlock: CIFDUS_clean_linker_0, # of connection points: 2
#     Edge 76, Type (0, 0), BuildingBlock: CIFDUS_clean_linker_0, # of connection points: 2
#     Edge 77, Type (0, 0), BuildingBlock: CIFDUS_clean_linker_0, # of connection points: 2
#     Edge 78, Type (0, 0), BuildingBlock: CIFDUS_clean_linker_0, # of connection points: 2
#     Edge 79, Type (0, 0), BuildingBlock: CIFDUS_clean_linker_0, # of connection points: 2
#     Edge 80, Type (0, 0), BuildingBlock: CIFDUS_clean_linker_0, # of connection points: 2
#     Edge 81, Type (0, 0), BuildingBlock: CIFDUS_clean_linker_0, # of connection points: 2
#     Edge 82, Type (0, 0), BuildingBlock: CIFDUS_clean_linker_0, # of connection points: 2
#     Edge 83, Type (0, 0), BuildingBlock: CIFDUS_clean_linker_0, # of connection points: 2
#     Edge 84, Type (0, 0), BuildingBlock: CIFDUS_clean_linker_0, # of connection points: 2
#     Edge 85, Type (0, 0), BuildingBlock: CIFDUS_clean_linker_0, # of connection points: 2
#     Edge 86, Type (0, 0), BuildingBlock: CIFDUS_clean_linker_0, # of connection points: 2
#     Edge 87, Type (0, 0), BuildingBlock: CIFDUS_clean_linker_0, # of connection points: 2
#     Edge 88, Type (0, 0), BuildingBlock: CIFDUS_clean_linker_0, # of connection points: 2
#     Edge 89, Type (0, 0), BuildingBlock: CIFDUS_clean_linker_0, # of connection points: 2
#     Edge 90, Type (0, 0), BuildingBlock: CIFDUS_clean_linker_0, # of connection points: 2
#     Edge 91, Type (0, 0), BuildingBlock: CIFDUS_clean_linker_0, # of connection points: 2
#     Edge 92, Type (0, 0), BuildingBlock: CIFDUS_clean_linker_0, # of connection points: 2
#     Edge 93, Type (0, 0), BuildingBlock: CIFDUS_clean_linker_0, # of connection points: 2
#     Edge 94, Type (0, 0), BuildingBlock: CIFDUS_clean_linker_0, # of connection points: 2
#     Edge 95, Type (0, 0), BuildingBlock: CIFDUS_clean_linker_0, # of connection points: 2
#     Edge 96, Type (0, 0), BuildingBlock: CIFDUS_clean_linker_0, # of connection points: 2
#     Edge 97, Type (0, 0), BuildingBlock: CIFDUS_clean_linker_0, # of connection points: 2
#     Edge 98, Type (0, 0), BuildingBlock: CIFDUS_clean_linker_0, # of connection points: 2
#     Edge 99, Type (0, 0), BuildingBlock: CIFDUS_clean_linker_0, # of connection points: 2
#     Edge 100, Type (0, 0), BuildingBlock: CIFDUS_clean_linker_0, # of connection points: 2
#     Edge 101, Type (0, 0), BuildingBlock: CIFDUS_clean_linker_0, # of connection points: 2
#     Edge 102, Type (0, 0), BuildingBlock: CIFDUS_clean_linker_0, # of connection points: 2
#     Edge 103, Type (0, 0), BuildingBlock: CIFDUS_clean_linker_0, # of connection points: 2
#     Edge 104, Type (0, 0), BuildingBlock: CIFDUS_clean_linker_0, # of connection points: 2
#     Edge 105, Type (0, 0), BuildingBlock: CIFDUS_clean_linker_0, # of connection points: 2
#     Edge 106, Type (0, 0), BuildingBlock: CIFDUS_clean_linker_0, # of connection points: 2
#     Edge 107, Type (0, 0), BuildingBlock: CIFDUS_clean_linker_0, # of connection points: 2
#     Edge 108, Type (0, 0), BuildingBlock: CIFDUS_clean_linker_0, # of connection points: 2
#     Edge 109, Type (0, 0), BuildingBlock: CIFDUS_clean_linker_0, # of connection points: 2
#     Edge 110, Type (0, 0), BuildingBlock: CIFDUS_clean_linker_0, # of connection points: 2
#     Edge 111, Type (0, 0), BuildingBlock: CIFDUS_clean_linker_0, # of connection points: 2
# Relax obj value: 0.174
# Max RMSD: 0.173
# Mean RMSD: 0.173
data_MOF--net-wgm--node1-XOMCOT_clean_sbu_1--edge1-CIFDUS_clean_linker_0
_symmetry_space_group_name_H-M    P1
_symmetry_Int_Tables_number       1
_symmetry_cell_setting            triclinic
loop_
_symmetry_equiv_pos_as_xyz
'x, y, z'
_cell_length_a     40.527616
_cell_length_b     40.48614
_cell_length_c     70.471869
_cell_angle_alpha  90.088987
_cell_angle_beta   89.939672
_cell_angle_gamma 90.046202
loop_
_atom_site_label
_atom_site_type_symbol
_atom_site_fract_x
_atom_site_fract_y
_atom_site_fract_z
_atom_type_partial_charge
C0 C 0.23263 0.09884 0.35208 0.0
C1 C 0.23123 0.07113 0.34077 0.0
N2 N 0.21322 0.07813 0.32521 0.0
N3 N 0.21618 0.12382 0.3437 0.0
C4 C 0.20384 0.11012 0.3276 0.0
H5 H 0.24454 0.10052 0.36578 0.0
Co6 Co 0.20912 0.16615 0.35495 0.0
C7 C 0.23202 0.18713 0.31481 0.0
O8 O 0.24312 0.15829 0.30918 0.0
N9 N 0.20127 0.20783 0.3662 0.0
C10 C 0.20974 0.2599 0.37507 0.0
C11 C 0.21835 0.23573 0.36233 0.0
C12 C 0.18185 0.21597 0.38119 0.0
N13 N 0.18692 0.24744 0.38693 0.0
O14 O 0.16244 0.16187 0.35033 0.0
H15 H 0.2374 0.23785 0.35165 0.0
H16 H 0.1659 0.19869 0.38848 0.0
O17 O 0.2179 0.19012 0.331 0.0
C18 C 0.15214 0.14303 0.36365 0.0
O19 O 0.17382 0.13103 0.37566 0.0
N20 N 0.25436 0.16893 0.362 0.0
C21 C 0.31747 0.16355 0.37825 0.0
C22 C 0.31196 0.15569 0.359 0.0
C23 C 0.28047 0.15925 0.35108 0.0
C24 C 0.25951 0.17741 0.3805 0.0
C25 C 0.29085 0.17704 0.38841 0.0
H26 H 0.27678 0.15108 0.33675 0.0
H27 H 0.23908 0.18348 0.38968 0.0
H28 H 0.18836 0.12358 0.3178 0.0
H29 H 0.24203 0.04742 0.34409 0.0
H30 H 0.22006 0.28454 0.3759 0.0
H31 H 0.33091 0.14474 0.35023 0.0
H32 H 0.29316 0.18559 0.40287 0.0
C33 C 0.17049 0.96093 0.59344 0.0
C34 C 0.19909 0.96385 0.58301 0.0
N35 N 0.1929 0.95436 0.565 0.0
N36 N 0.14597 0.94999 0.58214 0.0
C37 C 0.16039 0.94607 0.56491 0.0
H38 H 0.1678 0.96596 0.60844 0.0
Co39 Co 0.10333 0.93769 0.59073 0.0
C40 C 0.0585 0.97074 0.56394 0.0
O41 O 0.04192 0.9796 0.57916 0.0
N42 N 0.06172 0.92208 0.59954 0.0
C43 C 1.0139 0.89463 0.60016 0.0
C44 C 0.03666 0.91023 0.5888 0.0
C45 C 0.05443 0.91098 0.61724 0.0
N46 N 0.02506 0.89537 0.6181 0.0
O47 O 0.11203 0.89287 0.58315 0.0
H48 H 0.03558 0.9111 0.5735 0.0
H49 H 0.07108 0.91288 0.6292 0.0
O50 O 0.08373 0.95157 0.56577 0.0
C51 C 0.12729 0.88106 0.5975 0.0
O52 O 0.13496 0.90116 0.61147 0.0
N53 N 0.09634 0.98176 0.60039 0.0
C54 C 0.10052 0.04328 0.61868 0.0
C55 C 0.11239 0.03908 0.60005 0.0
C56 C 0.10916 1.00845 0.59099 0.0
C57 C 0.08217 0.98656 0.61777 0.0
C58 C 0.0825 0.01722 0.62662 0.0
H59 H 0.11939 1.00564 0.57691 0.0
H60 H 0.07191 0.96681 0.62577 0.0
H61 H 0.14751 0.93617 0.55272 0.0
H62 H 0.22262 0.97236 0.58836 0.0
H63 H 0.99103 0.88336 0.59557 0.0
H64 H 0.12618 0.05824 0.59289 0.0
H65 H 0.07078 0.0194 0.64036 0.0
C66 C 0.30572 0.9242 0.84777 0.0
C67 C 0.30371 0.95167 0.83631 0.0
N68 N 0.31715 0.94441 0.81929 0.0
N69 N 0.32003 0.89924 0.8381 0.0
C70 C 0.32685 0.91235 0.82082 0.0
H71 H 0.29816 0.92277 0.86247 0.0
Co72 Co 0.33264 0.85767 0.84848 0.0
C73 C 0.30248 0.80988 0.82189 0.0
O74 O 0.29188 0.79449 0.83713 0.0
N75 N 0.34829 0.81703 0.85891 0.0
C76 C 0.37751 0.7703 0.8604 0.0
C77 C 0.36145 0.79197 0.84865 0.0
C78 C 0.35877 0.81066 0.8769 0.0
N79 N 0.37563 0.78197 0.87818 0.0
O80 O 0.37789 0.86627 0.84176 0.0
H81 H 0.36175 0.79047 0.83335 0.0
H82 H 0.35614 0.82774 0.88863 0.0
O83 O 0.32125 0.83544 0.8238 0.0
C84 C 0.38974 0.8868 0.85378 0.0
O85 O 0.36933 0.90134 0.86562 0.0
N86 N 0.2882 0.85074 0.8572 0.0
C87 C 0.22543 0.85586 0.8739 0.0
C88 C 0.2306 0.86484 0.85483 0.0
C89 C 0.26188 0.8612 0.84663 0.0
C90 C 0.28276 0.83944 0.87516 0.0
C91 C 0.25152 0.84013 0.88331 0.0
H92 H 0.26545 0.86946 0.83219 0.0
H93 H 0.3025 0.83154 0.88404 0.0
H94 H 0.33946 0.89873 0.80978 0.0
H95 H 0.29438 0.97558 0.84059 0.0
H96 H 0.39047 0.74811 0.85614 0.0
H97 H 0.21165 0.8768 0.84654 0.0
H98 H 0.24885 0.83053 0.89753 0.0
C99 C 0.36426 0.06207 0.09673 0.0
C100 C 0.3369 0.0599 0.08527 0.0
N101 N 0.34484 0.07123 0.06788 0.0
N102 N 0.38986 0.07433 0.08672 0.0
C103 C 0.37722 0.07984 0.06916 0.0
H104 H 0.3654 0.05545 0.11158 0.0
Co105 Co 0.43108 0.08577 0.0979 0.0
C106 C 0.48024 0.06044 0.07102 0.0
O107 O 0.49637 0.0503 0.08607 0.0
N108 N 0.47015 0.10088 0.1098 0.0
C109 C 0.51611 0.12913 0.11623 0.0
C110 C 0.49639 0.1165 0.10202 0.0
C111 C 0.47339 0.10676 0.12866 0.0
N112 N 0.5016 0.12275 0.13298 0.0
O113 O 0.422 0.13154 0.09304 0.0
H114 H 0.50067 0.11936 0.08698 0.0
H115 H 0.45563 0.09863 0.13916 0.0
O116 O 0.454 0.07797 0.0732 0.0
C117 C 0.40337 0.14107 0.10661 0.0
O118 O 0.39226 0.11881 0.11856 0.0
N119 N 0.43914 0.03957 0.10453 0.0
C120 C 0.4334 0.97601 0.11988 0.0
C121 C 0.41972 0.98346 0.10207 0.0
C122 C 0.42412 1.01496 0.09432 0.0
C123 C 0.45721 0.0306 0.12012 0.0
C124 C 0.45533 0.99896 0.12767 0.0
H125 H 0.41304 0.01998 0.0807 0.0
H126 H 0.473 0.04729 0.12746 0.0
H127 H 0.39122 0.09099 0.05776 0.0
H128 H 0.31298 0.05055 0.0895 0.0
H129 H 0.53976 0.1412 0.11444 0.0
H130 H 0.40365 0.96635 0.09475 0.0
H131 H 0.46917 0.99355 0.14043 0.0
C132 C 0.18793 0.93337 0.21188 0.0
C133 C 0.18737 0.95778 0.22536 0.0
N134 N 0.20011 0.94578 0.24159 0.0
N135 N 0.20084 0.90561 0.21929 0.0
C136 C 0.20838 0.91394 0.23748 0.0
H137 H 0.17989 0.93592 0.19734 0.0
Co138 Co 0.20513 0.86829 0.20347 0.0
C139 C 0.22695 0.8111 0.22715 0.0
O140 O 0.24043 0.79806 0.21195 0.0
N141 N 0.20849 0.83151 0.18621 0.0
C142 C 0.22063 0.80103 0.16069 0.0
C143 C 0.23041 0.82698 0.17191 0.0
C144 C 0.18588 0.80719 0.18337 0.0
N145 N 0.19239 0.78877 0.16777 0.0
O146 O 0.15785 0.86334 0.20384 0.0
H147 H 0.25198 0.84178 0.16919 0.0
H148 H 0.16413 0.80397 0.19209 0.0
O149 O 0.21155 0.83881 0.22585 0.0
C150 C 0.1473 0.87353 0.18777 0.0
O151 O 0.16894 0.88295 0.17496 0.0
N152 N 0.25009 0.8769 0.20141 0.0
C153 C 0.31329 0.89264 0.1895 0.0
C154 C 0.30862 0.87489 0.20633 0.0
C155 C 0.27643 0.86742 0.21222 0.0
C156 C 0.25445 0.89722 0.18626 0.0
C157 C 0.28585 0.90481 0.17979 0.0
H158 H 0.2731 0.8542 0.22532 0.0
H159 H 0.2332 0.90585 0.17844 0.0
H160 H 0.21972 0.89711 0.24745 0.0
H161 H 0.17909 0.98287 0.2231 0.0
H162 H 0.23328 0.79202 0.14817 0.0
H163 H 0.32952 0.86652 0.2146 0.0
H164 H 0.28868 0.91977 0.16715 0.0
C165 C 0.36337 0.97042 0.46329 0.0
C166 C 0.33603 0.97302 0.47468 0.0
N167 N 0.34235 0.95808 0.49135 0.0
N168 N 0.3875 0.95427 0.47262 0.0
C169 C 0.37393 0.94701 0.48976 0.0
H170 H 0.36503 0.9789 0.4488 0.0
Co171 Co 0.42755 0.94146 0.46077 0.0
C172 C 0.48158 0.96028 0.48729 0.0
O173 O 0.50014 0.96509 0.47226 0.0
N174 N 0.46692 0.92694 0.44822 0.0
C175 C 0.50816 0.89252 0.44083 0.0
C176 C 0.4845 0.90042 0.45409 0.0
C177 C 0.48102 0.93483 0.4313 0.0
N178 N 0.50587 0.91421 0.42651 0.0
O179 O 0.41772 0.89576 0.46598 0.0
H180 H 0.47999 0.8871 0.46713 0.0
H181 H 0.4731 0.95455 0.42215 0.0
O182 O 0.45215 0.94878 0.48511 0.0
C183 C 0.39929 0.88636 0.45228 0.0
O184 O 0.38896 0.90869 0.44017 0.0
N185 N 0.43445 0.98562 0.4536 0.0
C186 C 0.42728 0.04978 0.43982 0.0
C187 C 0.43545 0.04424 0.4589 0.0
C188 C 0.43824 1.01191 0.46562 0.0
C189 C 0.42675 0.99076 0.43504 0.0
C190 C 0.4239 0.0225 0.42774 0.0
H191 H 0.44051 1.00839 0.48071 0.0
H192 H 0.42019 0.96998 0.42615 0.0
H193 H 0.38647 0.93269 0.50051 0.0
H194 H 0.31309 0.98487 0.47081 0.0
H195 H 0.52585 0.87256 0.4417 0.0
H196 H 0.43713 0.06461 0.46883 0.0
H197 H 0.4159 0.02542 0.41318 0.0
C198 C 0.33704 0.09987 0.71024 0.0
C199 C 0.33762 0.07395 0.72269 0.0
N200 N 0.32563 0.08418 0.73954 0.0
N201 N 0.32481 0.1269 0.71889 0.0
C202 C 0.31774 0.11658 0.73681 0.0
H203 H 0.34452 0.0989 0.69553 0.0
Co204 Co 0.32049 0.16548 0.70414 0.0
C205 C 0.29456 0.22028 0.72888 0.0
O206 O 0.28277 0.23422 0.71353 0.0
N207 N 0.317 0.20355 0.68774 0.0
C208 C 0.30318 0.23622 0.66345 0.0
C209 C 0.29373 0.20989 0.67441 0.0
C210 C 0.34002 0.22741 0.68466 0.0
N211 N 0.33251 0.24704 0.66974 0.0
O212 O 0.36794 0.17142 0.70555 0.0
H213 H 0.2711 0.19642 0.67233 0.0
H214 H 0.36268 0.22954 0.69266 0.0
O215 O 0.3111 0.19315 0.72739 0.0
C216 C 0.38004 0.16229 0.68956 0.0
O217 O 0.35967 0.15386 0.67589 0.0
N218 N 0.27605 0.15562 0.70089 0.0
C219 C 0.21408 0.13674 0.68831 0.0
C220 C 0.21757 0.15254 0.7059 0.0
C221 C 0.24915 0.16171 0.71208 0.0
C222 C 0.27306 0.1375 0.6847 0.0
C223 C 0.24227 0.12851 0.67791 0.0
H224 H 0.25166 0.17314 0.72581 0.0
H225 H 0.29486 0.13146 0.67655 0.0
H226 H 0.30696 0.13238 0.74755 0.0
H227 H 0.34538 0.04908 0.71927 0.0
H228 H 0.28948 0.24657 0.65171 0.0
H229 H 0.19623 0.15776 0.71467 0.0
H230 H 0.2405 0.11501 0.66465 0.0
C231 C 0.18286 0.05498 0.96188 0.0
C232 C 0.20954 0.0532 0.97381 0.0
N233 N 0.20186 0.06834 0.99027 0.0
N234 N 0.15786 0.07093 0.97061 0.0
C235 C 0.17018 0.07877 0.98798 0.0
H236 H 0.18214 0.04591 0.94746 0.0
Co237 Co 0.11791 0.08203 0.95801 0.0
C238 C 0.06397 0.06173 0.98379 0.0
O239 O 0.0483 0.05148 0.96856 0.0
N240 N 0.07839 0.09467 0.94502 0.0
C241 C 0.03491 0.1267 0.93857 0.0
C242 C 0.05904 0.11943 0.95158 0.0
C243 C 0.0648 0.08701 0.92791 0.0
N244 N 0.0386 0.1063 0.92371 0.0
O245 O 0.12567 0.12822 0.96276 0.0
H246 H 0.06255 0.13195 0.965 0.0
H247 H 0.07391 0.06841 0.91831 0.0
O248 O 0.0924 0.07561 0.98197 0.0
C249 C 0.14685 0.13911 0.95086 0.0
O250 O 0.16381 0.11754 0.9409 0.0
N251 N 0.11285 0.03744 0.95128 0.0
C252 C 0.12193 0.97331 0.93774 0.0
C253 C 0.11452 0.97897 0.95693 0.0
C254 C 0.11063 1.01135 0.96352 0.0
C255 C 0.1203 0.03221 0.93269 0.0
C256 C 0.12401 1.00045 0.9255 0.0
H257 H 0.10845 1.01532 0.97861 0.0
H258 H 0.12601 0.05301 0.92366 0.0
H259 H 0.1566 0.09286 0.99846 0.0
H260 H 0.23289 0.04159 0.97052 0.0
H261 H 0.01585 0.14526 0.94001 0.0
H262 H 0.11394 0.95874 0.96697 0.0
H263 H 0.13153 0.99747 0.91084 0.0
C264 C 0.81255 0.92526 0.70749 0.0
C265 C 0.81013 0.95146 0.71976 0.0
N266 N 0.82338 0.94266 0.73651 0.0
N267 N 0.82704 0.89952 0.71631 0.0
C268 C 0.83333 0.91087 0.73409 0.0
H269 H 0.80515 0.9255 0.69278 0.0
Co270 Co 0.83893 0.86017 0.7035 0.0
C271 C 0.81842 0.80511 0.7286 0.0
O272 O 0.81025 0.78852 0.71327 0.0
N273 N 0.85219 0.82135 0.6902 0.0
C274 C 0.88384 0.77812 0.68262 0.0
C275 C 0.87703 0.80161 0.69618 0.0
C276 C 0.84414 0.80882 0.67292 0.0
N277 N 0.86311 0.78278 0.66804 0.0
O278 O 0.88468 0.86755 0.70937 0.0
H279 H 0.88986 0.80439 0.70953 0.0
H280 H 0.8254 0.81856 0.66367 0.0
O281 O 0.83112 0.83409 0.72694 0.0
C282 C 0.89678 0.88953 0.69841 0.0
O283 O 0.87642 0.90731 0.68818 0.0
N284 N 0.79494 0.85529 0.69577 0.0
C285 C 0.73226 0.86015 0.67958 0.0
C286 C 0.73604 0.85042 0.69859 0.0
C287 C 0.76764 0.84899 0.70659 0.0
C288 C 0.79154 0.86558 0.67754 0.0
C289 C 0.76074 0.86773 0.6691 0.0
H290 H 0.7697 0.84452 0.72162 0.0
H291 H 0.81309 0.87356 0.66971 0.0
H292 H 0.84608 0.89656 0.74477 0.0
H293 H 0.79951 0.97529 0.7165 0.0
H294 H 0.90225 0.75882 0.6835 0.0
H295 H 0.7148 0.84535 0.70745 0.0
H296 H 0.75939 0.87734 0.6548 0.0
C297 C 0.86348 0.11927 0.46513 0.0
C298 C 0.83853 0.12003 0.47826 0.0
N299 N 0.842 0.09416 0.49006 0.0
N300 N 0.88351 0.09331 0.46845 0.0
C301 C 0.86978 0.07846 0.48392 0.0
H302 H 0.86569 0.13605 0.45333 0.0
Co303 Co 0.91726 0.08057 0.45089 0.0
C304 C 0.97849 0.06481 0.4747 0.0
O305 O 0.9975 0.06122 0.4598 0.0
N306 N 0.94953 0.06853 0.43208 0.0
C307 C 0.97108 0.04465 0.40632 0.0
C308 C 0.94597 0.04369 0.41936 0.0
C309 C 0.97645 0.08531 0.42562 0.0
N310 N 0.99022 0.07089 0.41019 0.0
O311 O 0.92897 0.12664 0.44753 0.0
H312 H 0.92559 0.02651 0.41889 0.0
H313 H 0.98593 0.10758 0.43216 0.0
O314 O 0.94828 0.07381 0.47259 0.0
C315 C 0.91898 0.13656 0.43126 0.0
O316 O 0.90472 0.11503 0.41993 0.0
N317 N 0.9035 0.03652 0.45273 0.0
C318 C 0.8818 0.97313 0.44462 0.0
C319 C 0.91291 0.978 0.45267 0.0
C320 C 0.92324 1.01011 0.45693 0.0
C321 C 0.87248 0.03181 0.44582 0.0
C322 C 0.86093 1.00019 0.44191 0.0
H323 H 0.94819 1.01355 0.46169 0.0
H324 H 0.85747 0.05289 0.44207 0.0
H325 H 0.87889 0.05558 0.48986 0.0
H326 H 0.81895 0.13816 0.4788 0.0
H327 H 0.97454 0.02783 0.39452 0.0
H328 H 0.92972 0.95749 0.45458 0.0
H329 H 0.83692 0.99715 0.43538 0.0
C330 C 0.722 0.11753 0.21139 0.0
C331 C 0.72574 0.08967 0.22233 0.0
N332 N 0.71325 0.09567 0.23974 0.0
N333 N 0.70751 0.14153 0.22175 0.0
C334 C 0.70243 0.12745 0.239 0.0
H335 H 0.72873 0.11995 0.1966 0.0
Co336 Co 0.69287 0.18266 0.21167 0.0
C337 C 0.72334 0.23111 0.23777 0.0
O338 O 0.73267 0.24695 0.2224 0.0
N339 N 0.67536 0.2224 0.20141 0.0
C340 C 0.64573 0.2687 0.19909 0.0
C341 C 0.66314 0.24854 0.21114 0.0
C342 C 0.66301 0.22651 0.18364 0.0
N343 N 0.64588 0.25487 0.18175 0.0
O344 O 0.64819 0.17303 0.21933 0.0
H345 H 0.66459 0.2519 0.22631 0.0
H346 H 0.66506 0.20818 0.17249 0.0
O347 O 0.70498 0.20523 0.23611 0.0
C348 C 0.63511 0.15096 0.20872 0.0
O349 O 0.65464 0.13268 0.19819 0.0
N350 N 0.73658 0.19127 0.202 0.0
C351 C 0.79876 0.19255 0.1843 0.0
C352 C 0.79513 0.18106 0.20305 0.0
C353 C 0.76407 0.18159 0.2118 0.0
C354 C 0.7404 0.20455 0.18433 0.0
C355 C 0.77118 0.20716 0.17582 0.0
H356 H 0.76187 0.17202 0.22606 0.0
H357 H 0.71992 0.21199 0.17593 0.0
H358 H 0.68979 0.13986 0.2505 0.0
H359 H 0.73676 0.06669 0.21771 0.0
H360 H 0.63324 0.29141 0.20285 0.0
H361 H 0.81531 0.16974 0.21065 0.0
H362 H 0.77246 0.21856 0.16198 0.0
C363 C 0.6783 0.98562 0.95862 0.0
C364 C 0.70434 0.98892 0.97094 0.0
N365 N 0.69743 0.97208 0.98695 0.0
N366 N 0.65446 0.96709 0.9667 0.0
C367 C 0.66686 0.95915 0.98399 0.0
H368 H 0.67737 0.99547 0.9444 0.0
Co369 Co 0.61554 0.9525 0.9543 0.0
C370 C 0.56067 0.97198 0.97989 0.0
O371 O 0.54314 0.97854 0.96468 0.0
N372 N 0.57701 0.93638 0.94165 0.0
C373 C 0.53563 0.90132 0.93574 0.0
C374 C 0.55916 0.91088 0.94865 0.0
C375 C 0.56323 0.94203 0.92436 0.0
N376 N 0.53824 0.92091 0.92046 0.0
O377 O 0.62579 0.9074 0.96063 0.0
H378 H 0.56329 0.89947 0.9623 0.0
H379 H 0.57144 0.96054 0.91444 0.0
O380 O 0.58988 0.96001 0.97798 0.0
C381 C 0.64884 0.89657 0.94994 0.0
O382 O 0.66497 0.91774 0.93931 0.0
N383 N 0.60806 0.99598 0.9461 0.0
C384 C 0.61395 0.05906 0.93034 0.0
C385 C 0.60466 0.05499 0.94941 0.0
C386 C 0.60276 0.02324 0.95718 0.0
C387 C 0.6168 0.99955 0.92759 0.0
C388 C 0.61944 0.0306 0.91937 0.0
H389 H 0.59946 0.02104 0.9723 0.0
H390 H 0.6243 0.9781 0.9195 0.0
H391 H 0.65414 0.94317 0.99388 0.0
H392 H 0.7267 1.00268 0.96816 0.0
H393 H 0.51763 0.8818 0.93755 0.0
H394 H 0.60085 0.07611 0.95859 0.0
H395 H 0.62843 0.03207 0.90493 0.0
C396 C 0.80552 0.10109 0.844 0.0
C397 C 0.80355 0.07474 0.83177 0.0
N398 N 0.81955 0.08256 0.81564 0.0
N399 N 0.82248 0.1259 0.83573 0.0
C400 C 0.83067 0.11388 0.81837 0.0
H401 H 0.79616 0.10151 0.85836 0.0
Co402 Co 0.83568 0.16495 0.84842 0.0
C403 C 0.81776 0.22056 0.82271 0.0
O404 O 0.81271 0.23871 0.8379 0.0
N405 N 0.85043 0.20349 0.86159 0.0
C406 C 0.88426 0.24529 0.8688 0.0
C407 C 0.87609 0.222 0.85539 0.0
C408 C 0.84335 0.21655 0.87891 0.0
N409 N 0.86365 0.2418 0.88358 0.0
O410 O 0.88135 0.15555 0.84276 0.0
H411 H 0.88846 0.21856 0.84193 0.0
H412 H 0.82442 0.20758 0.88834 0.0
O413 O 0.82847 0.19082 0.82462 0.0
C414 C 0.89231 0.13286 0.85368 0.0
O415 O 0.87092 0.11565 0.8636 0.0
N416 N 0.79173 0.17164 0.85598 0.0
C417 C 0.72803 0.16675 0.87097 0.0
C418 C 0.73301 0.17636 0.85203 0.0
C419 C 0.76507 0.17789 0.84466 0.0
C420 C 0.78724 0.16212 0.87429 0.0
C421 C 0.75587 0.15997 0.88214 0.0
H422 H 0.76794 0.18192 0.82964 0.0
H423 H 0.80823 0.1541 0.88255 0.0
H424 H 0.84573 0.12728 0.80829 0.0
H425 H 0.79143 0.05146 0.83466 0.0
H426 H 0.90355 0.2637 0.86766 0.0
H427 H 0.71232 0.18101 0.84271 0.0
H428 H 0.75358 0.15067 0.89647 0.0
C429 C 0.68432 0.07287 0.59825 0.0
C430 C 0.71115 0.07253 0.58634 0.0
N431 N 0.70068 0.07706 0.56838 0.0
N432 N 0.65656 0.07754 0.58812 0.0
C433 C 0.66728 0.08019 0.56989 0.0
H434 H 0.68503 0.07024 0.61351 0.0
Co435 Co 0.61494 0.07986 0.6003 0.0
C436 C 0.56224 0.07028 0.57032 0.0
O437 O 0.53932 0.08428 0.58075 0.0
N438 N 0.57339 0.08211 0.61373 0.0
C439 C 0.52894 0.06669 0.63041 0.0
C440 C 0.55405 0.05619 0.61877 0.0
C441 C 0.5584 0.10835 0.62222 0.0
N442 N 0.53177 0.09948 0.63262 0.0
O443 O 0.61525 0.12727 0.59689 0.0
H444 H 0.55771 0.03087 0.61441 0.0
H445 H 0.56684 0.13356 0.62116 0.0
O446 O 0.59234 0.0703 0.57594 0.0
C447 C 0.62945 0.13837 0.61184 0.0
O448 O 0.63771 0.11736 0.62519 0.0
N449 N 0.61783 0.03491 0.60545 0.0
C450 C 0.62644 0.97083 0.61887 0.0
C451 C 0.61741 0.97644 0.59989 0.0
C452 C 0.61351 1.00886 0.59335 0.0
C453 C 0.6268 0.02992 0.62379 0.0
C454 C 0.63118 0.99824 0.63079 0.0
H455 H 0.60743 1.01278 0.57862 0.0
H456 H 0.63078 0.05091 0.63301 0.0
H457 H 0.65092 0.08435 0.55802 0.0
H458 H 0.73658 0.07009 0.59077 0.0
H459 H 0.5097 0.05149 0.63653 0.0
H460 H 0.6139 0.95608 0.59012 0.0
H461 H 0.63949 0.9955 0.6453 0.0
C462 C 0.7267 0.92677 0.34276 0.0
C463 C 0.72878 0.95454 0.33165 0.0
N464 N 0.71694 0.94736 0.31425 0.0
N465 N 0.71409 0.90154 0.33254 0.0
C466 C 0.7082 0.91492 0.31518 0.0
H467 H 0.73351 0.9251 0.35757 0.0
Co468 Co 0.70204 0.86027 0.34359 0.0
C469 C 0.72552 0.81087 0.31603 0.0
O470 O 0.73615 0.79432 0.33081 0.0
N471 N 0.68625 0.82135 0.35533 0.0
C472 C 0.65642 0.77625 0.36142 0.0
C473 C 0.66944 0.79602 0.34737 0.0
C474 C 0.68101 0.81748 0.37423 0.0
N475 N 0.66394 0.78975 0.37831 0.0
O476 O 0.65635 0.87038 0.33918 0.0
H477 H 0.6659 0.79253 0.3323 0.0
H478 H 0.69031 0.83441 0.38487 0.0
O479 O 0.70866 0.83747 0.31865 0.0
C480 C 0.64647 0.8898 0.35234 0.0
O481 O 0.66866 0.90308 0.36357 0.0
N482 N 0.74827 0.8509 0.35 0.0
C483 C 0.80938 0.85676 0.36793 0.0
C484 C 0.80372 0.87236 0.35047 0.0
C485 C 0.77338 0.86787 0.34131 0.0
C486 C 0.75652 0.8303 0.36468 0.0
C487 C 0.78691 0.83264 0.3737 0.0
H488 H 0.76948 0.88059 0.32806 0.0
H489 H 0.7401 0.81205 0.37016 0.0
H490 H 0.69647 0.9015 0.30373 0.0
H491 H 0.73826 0.97827 0.33615 0.0
H492 H 0.64315 0.75329 0.35942 0.0
H493 H 0.82108 0.89006 0.34473 0.0
H494 H 0.79145 0.81767 0.38616 0.0
C495 C 0.84811 0.97833 0.09846 0.0
C496 C 0.82208 0.97768 0.08608 0.0
N497 N 0.83382 0.97344 0.06834 0.0
N498 N 0.87661 0.97488 0.08883 0.0
C499 C 0.86721 0.97192 0.07041 0.0
H500 H 0.84636 0.98102 0.11369 0.0
Co501 Co 0.91634 0.97325 0.10253 0.0
C502 C 0.97048 0.99467 0.07675 0.0
O503 O 0.98462 1.0081 0.0916 0.0
N504 N 0.95595 0.97075 0.11782 0.0
C505 C 0.99326 0.98016 0.14059 0.0
C506 C 0.96851 0.99368 0.12992 0.0
C507 C 0.97486 0.94365 0.12122 0.0
N508 N 0.997 0.94859 0.13527 0.0
O509 O 0.91564 0.9259 0.10039 0.0
H510 H 0.96097 0.01909 0.13108 0.0
H511 H 0.97182 0.92019 0.11408 0.0
O512 O 0.94298 0.97912 0.07882 0.0
C513 C 0.90323 0.91586 0.11606 0.0
O514 O 0.89538 0.93797 0.12896 0.0
N515 N 0.91305 0.01869 0.10639 0.0
C516 C 0.89999 0.08304 0.11786 0.0
C517 C 0.9105 0.07657 0.09925 0.0
C518 C 0.91666 0.0439 0.09367 0.0
C519 C 0.90054 0.02459 0.124 0.0
C520 C 0.89477 0.05653 0.13021 0.0
H521 H 0.92304 0.03901 0.07907 0.0
H522 H 0.89574 1.00414 0.13346 0.0
H523 H 0.88439 0.96813 0.05885 0.0
H524 H 0.79642 0.98059 0.08997 0.0
H525 H 1.00767 0.9927 0.15135 0.0
H526 H 0.91307 0.0964 0.08905 0.0
H527 H 0.88495 0.06031 0.14436 0.0
C528 C 0.72125 0.60859 0.84918 0.0
C529 C 0.72328 0.58064 0.83805 0.0
N530 N 0.71475 0.58855 0.82011 0.0
N531 N 0.71188 0.63437 0.8384 0.0
C532 C 0.70785 0.62139 0.82081 0.0
H533 H 0.72614 0.61005 0.86425 0.0
Co534 Co 0.70262 0.67742 0.84742 0.0
C535 C 0.73611 0.72108 0.82029 0.0
O536 O 0.74719 0.73652 0.83543 0.0
N537 N 0.69016 0.72029 0.8566 0.0
C538 C 0.66374 0.76877 0.85645 0.0
C539 C 0.67777 0.74455 0.84546 0.0
C540 C 0.68134 0.72993 0.87442 0.0
N541 N 0.66613 0.75959 0.87468 0.0
O542 O 0.65731 0.67105 0.8405 0.0
H543 H 0.67658 0.7438 0.83016 0.0
H544 H 0.68314 0.7144 0.88684 0.0
O545 O 0.71601 0.69665 0.82236 0.0
C546 C 0.64493 0.65974 0.85586 0.0
O547 O 0.66446 0.65502 0.87047 0.0
N548 N 0.74723 0.68131 0.85622 0.0
C549 C 0.80906 0.67058 0.87303 0.0
C550 C 0.80342 0.6623 0.85391 0.0
C551 C 0.77263 0.66851 0.84569 0.0
C552 C 0.75322 0.69158 0.87432 0.0
C553 C 0.78416 0.68799 0.88259 0.0
H554 H 0.76847 0.66039 0.83127 0.0
H555 H 0.73391 0.70054 0.88321 0.0
H556 H 0.69917 0.63572 0.80888 0.0
H557 H 0.73071 0.55643 0.84289 0.0
H558 H 0.65167 0.79092 0.85141 0.0
H559 H 0.8215 0.64889 0.84564 0.0
H560 H 0.7874 0.69666 0.89699 0.0
C561 C 0.66481 0.45502 0.09504 0.0
C562 C 0.69296 0.4577 0.08422 0.0
N563 N 0.68585 0.4488 0.06624 0.0
N564 N 0.63957 0.44473 0.08408 0.0
C565 C 0.65316 0.44103 0.06656 0.0
H566 H 0.66283 0.46011 0.11007 0.0
Co567 Co 0.5969 0.43471 0.09385 0.0
C568 C 0.55311 0.46743 0.06614 0.0
O569 O 0.53952 0.48218 0.0808 0.0
N570 N 0.55508 0.42177 0.10397 0.0
C571 C 0.50607 0.39674 0.10608 0.0
C572 C 0.52829 0.41161 0.09408 0.0
C573 C 0.54886 0.41104 0.12191 0.0
N574 N 0.51899 0.3966 0.12361 0.0
O575 O 0.60363 0.38886 0.08783 0.0
H576 H 0.52574 0.41243 0.07885 0.0
H577 H 0.56668 0.41202 0.13333 0.0
O578 O 0.57598 0.44576 0.06872 0.0
C579 C 0.61896 0.37814 0.10243 0.0
O580 O 0.62801 0.39951 0.11547 0.0
N581 N 0.5921 0.47972 0.10219 0.0
C582 C 0.59688 0.54285 0.1185 0.0
C583 C 0.60846 0.53682 0.09998 0.0
C584 C 0.60512 0.50534 0.09194 0.0
C585 C 0.579 0.48601 0.11968 0.0
C586 C 0.57955 0.51745 0.12755 0.0
H587 H 0.61491 0.50116 0.07787 0.0
H588 H 0.56946 0.46686 0.12846 0.0
H589 H 0.63951 0.43203 0.05442 0.0
H590 H 0.71679 0.46595 0.08927 0.0
H591 H 0.48261 0.3859 0.10214 0.0
H592 H 0.62197 0.55533 0.0921 0.0
H593 H 0.56843 0.52086 0.14138 0.0
C594 C 0.8171 0.44566 0.34541 0.0
C595 C 0.81642 0.47061 0.33238 0.0
N596 N 0.8228 0.4579 0.3151 0.0
N597 N 0.82366 0.41668 0.33674 0.0
C598 C 0.82695 0.42488 0.31811 0.0
H599 H 0.81299 0.44862 0.36046 0.0
Co600 Co 0.82636 0.37811 0.3519 0.0
C601 C 0.80468 0.32106 0.32826 0.0
O602 O 0.79267 0.30776 0.34378 0.0
N603 N 0.83003 0.34048 0.36843 0.0
C604 C 0.82648 0.30746 0.39374 0.0
C605 C 0.81246 0.33339 0.38431 0.0
C606 C 0.85453 0.31749 0.36858 0.0
N607 N 0.85313 0.29759 0.384 0.0
O608 O 0.87375 0.37779 0.34937 0.0
H609 H 0.7909 0.34594 0.3894 0.0
H610 H 0.87361 0.31593 0.35788 0.0
O611 O 0.81987 0.34896 0.3293 0.0
C612 C 0.88597 0.39757 0.36165 0.0
O613 O 0.86566 0.41555 0.37187 0.0
N614 N 0.7807 0.3813 0.35593 0.0
C615 C 0.71587 0.39375 0.36666 0.0
C616 C 0.72282 0.38113 0.34857 0.0
C617 C 0.75568 0.37541 0.34335 0.0
C618 C 0.77421 0.39645 0.37277 0.0
C619 C 0.74204 0.40188 0.3787 0.0
H620 H 0.76074 0.36757 0.32901 0.0
H621 H 0.79443 0.40363 0.38192 0.0
H622 H 0.83258 0.40714 0.30708 0.0
H623 H 0.81096 0.49621 0.33549 0.0
H624 H 0.8176 0.29654 0.4068 0.0
H625 H 0.70318 0.37646 0.33851 0.0
H626 H 0.73773 0.41347 0.39235 0.0
C627 C 0.85302 0.54904 0.58783 0.0
C628 C 0.8267 0.54688 0.57564 0.0
N629 N 0.83354 0.56463 0.55998 0.0
N630 N 0.87697 0.56784 0.58001 0.0
C631 C 0.86436 0.57689 0.56292 0.0
H632 H 0.85377 0.53865 0.60191 0.0
Co633 Co 0.91517 0.58289 0.59319 0.0
C634 C 0.97218 0.56141 0.5698 0.0
O635 O 0.98822 0.55612 0.5857 0.0
N636 N 0.95281 0.59946 0.60657 0.0
C637 C 0.99508 0.63337 0.61267 0.0
C638 C 0.97226 0.62359 0.59938 0.0
C639 C 0.96486 0.59491 0.6244 0.0
N640 N 0.99039 0.61529 0.62839 0.0
O641 O 0.90629 0.62763 0.58555 0.0
H642 H 0.96988 0.63372 0.58526 0.0
H643 H 0.95513 0.57764 0.63459 0.0
O644 O 0.94276 0.57329 0.57046 0.0
C645 C 0.88259 0.63977 0.59529 0.0
O646 O 0.8634 0.61931 0.60465 0.0
N647 N 0.92153 0.5401 0.60272 0.0
C648 C 0.92041 0.47947 0.62161 0.0
C649 C 0.92985 0.48133 0.60244 0.0
C650 C 0.9294 0.51183 0.59309 0.0
C651 C 0.91129 0.53847 0.62107 0.0
C652 C 0.91095 0.50874 0.63082 0.0
H653 H 0.93389 0.51222 0.578 0.0
H654 H 0.90198 0.56048 0.62795 0.0
H655 H 0.87679 0.59362 0.55331 0.0
H656 H 0.80396 0.53364 0.57831 0.0
H657 H 1.01413 0.65185 0.61078 0.0
H658 H 0.93634 0.45934 0.59452 0.0
H659 H 0.90142 0.50865 0.64518 0.0
C660 C 0.7314 0.42976 0.7122 0.0
C661 C 0.73176 0.45635 0.72425 0.0
N662 N 0.71894 0.44712 0.74108 0.0
N663 N 0.71864 0.40325 0.72115 0.0
C664 C 0.71129 0.41456 0.73884 0.0
H665 H 0.73983 0.42983 0.69764 0.0
Co666 Co 0.71363 0.36209 0.70843 0.0
C667 C 0.71784 0.30996 0.73901 0.0
O668 O 0.6983 0.28939 0.72998 0.0
N669 N 0.70908 0.32149 0.69496 0.0
C670 C 0.72187 0.27397 0.68066 0.0
C671 C 0.73207 0.29738 0.69355 0.0
C672 C 0.685 0.31187 0.68274 0.0
N673 N 0.69228 0.28311 0.67387 0.0
O674 O 0.66645 0.36326 0.71264 0.0
H675 H 0.75514 0.29699 0.70124 0.0
H676 H 0.66309 0.32614 0.67984 0.0
O677 O 0.72325 0.33879 0.73227 0.0
C678 C 0.65457 0.38466 0.70115 0.0
O679 O 0.67522 0.40153 0.69054 0.0
N680 N 0.75827 0.36289 0.70236 0.0
C681 C 0.82168 0.37131 0.6879 0.0
C682 C 0.81677 0.36486 0.70732 0.0
C683 C 0.78464 0.36088 0.71435 0.0
C684 C 0.76262 0.36851 0.68353 0.0
C685 C 0.79394 0.37269 0.676 0.0
H686 H 0.78101 0.35726 0.72939 0.0
H687 H 0.74131 0.37082 0.67439 0.0
H688 H 0.70013 0.39936 0.74972 0.0
H689 H 0.74128 0.48058 0.72082 0.0
H690 H 0.73499 0.2517 0.67674 0.0
H691 H 0.83739 0.36388 0.71705 0.0
H692 H 0.79604 0.37884 0.66111 0.0
C693 C 0.85388 0.47291 0.96331 0.0
C694 C 0.82664 0.47451 0.97488 0.0
N695 N 0.8332 0.45828 0.99112 0.0
N696 N 0.87818 0.45604 0.97207 0.0
C697 C 0.86481 0.44744 0.98908 0.0
H698 H 0.85542 0.48262 0.94906 0.0
Co699 Co 0.91849 0.44368 0.95996 0.0
C700 C 0.97136 0.46889 0.9852 0.0
O701 O 0.98664 0.47792 0.96958 0.0
N702 N 0.95823 0.42937 0.94766 0.0
C703 C 1.00243 0.39693 0.9444 0.0
C704 C 0.9796 0.40935 0.95685 0.0
C705 C 0.96872 0.42811 0.92927 0.0
N706 N 0.99561 0.40858 0.92702 0.0
O707 O 0.91085 0.39803 0.96622 0.0
H708 H 0.97765 0.40258 0.97165 0.0
H709 H 0.95591 0.43904 0.91745 0.0
O710 O 0.94362 0.4534 0.98391 0.0
C711 C 0.88883 0.3862 0.95513 0.0
O712 O 0.87127 0.4069 0.94497 0.0
N713 N 0.92367 0.48763 0.95171 0.0
C714 C 0.91264 0.55055 0.93687 0.0
C715 C 0.9189 0.54626 0.95628 0.0
C716 C 0.92362 0.51452 0.9635 0.0
C717 C 0.91837 0.49158 0.93277 0.0
C718 C 0.91355 0.5228 0.92499 0.0
H719 H 0.92417 0.51155 0.97871 0.0
H720 H 0.91399 0.47026 0.92396 0.0
H721 H 0.87754 0.43232 0.99939 0.0
H722 H 0.80362 0.4866 0.97144 0.0
H723 H 0.02201 0.37974 0.94777 0.0
H724 H 0.91754 0.56694 0.96602 0.0
H725 H 0.90713 0.52467 0.91011 0.0
C726 C 0.82811 0.60262 0.20026 0.0
C727 C 0.82924 0.57675 0.21277 0.0
N728 N 0.82422 0.58847 0.23045 0.0
N729 N 0.82251 0.63098 0.20973 0.0
C730 C 0.82028 0.62167 0.2282 0.0
H731 H 0.83139 0.60091 0.18506 0.0
Co732 Co 0.81991 0.67053 0.19583 0.0
C733 C 0.79682 0.72418 0.22174 0.0
O734 O 0.78247 0.73775 0.207 0.0
N735 N 0.81816 0.70977 0.18041 0.0
C736 C 0.80661 0.74495 0.15693 0.0
C737 C 0.79596 0.7178 0.16679 0.0
C738 C 0.84181 0.7334 0.17863 0.0
N739 N 0.83561 0.75459 0.16424 0.0
O740 O 0.86734 0.6738 0.19677 0.0
H741 H 0.77326 0.70508 0.16374 0.0
H742 H 0.86391 0.73435 0.18722 0.0
O743 O 0.81338 0.69727 0.21952 0.0
C744 C 0.87768 0.66387 0.18057 0.0
O745 O 0.85573 0.65623 0.16756 0.0
N746 N 0.7748 0.66338 0.19308 0.0
C747 C 0.71133 0.64585 0.18229 0.0
C748 C 0.71704 0.65956 0.20028 0.0
C749 C 0.74932 0.66796 0.20554 0.0
C750 C 0.76975 0.64735 0.17635 0.0
C751 C 0.7382 0.63923 0.17043 0.0
H752 H 0.75361 0.67708 0.21969 0.0
H753 H 0.7905 0.64195 0.16721 0.0
H754 H 0.81565 0.63881 0.23968 0.0
H755 H 0.83416 0.5513 0.20905 0.0
H756 H 0.79391 0.75677 0.14526 0.0
H757 H 0.69691 0.66328 0.21017 0.0
H758 H 0.73495 0.62705 0.15686 0.0
C759 C 0.66759 0.57033 0.45529 0.0
C760 C 0.6954 0.56646 0.46626 0.0
N761 N 0.68858 0.5767 0.48405 0.0
N762 N 0.64298 0.58283 0.466 0.0
C763 C 0.65652 0.58648 0.48349 0.0
H764 H 0.66549 0.56473 0.44032 0.0
Co765 Co 0.601 0.59575 0.45657 0.0
C766 C 0.55492 0.56462 0.48365 0.0
O767 O 0.53823 0.55506 0.46863 0.0
N768 N 0.56019 0.61162 0.447 0.0
C769 C 0.51342 0.64064 0.44572 0.0
C770 C 0.53501 0.62421 0.45737 0.0
C771 C 0.55408 0.62282 0.42917 0.0
N772 N 0.5254 0.63958 0.42796 0.0
O773 O 0.60984 0.64095 0.46353 0.0
H774 H 0.5333 0.62368 0.47265 0.0
H775 H 0.57128 0.6205 0.41748 0.0
O776 O 0.58028 0.58351 0.48148 0.0
C777 C 0.62944 0.65334 0.4512 0.0
O778 O 0.64386 0.63327 0.43912 0.0
N779 N 0.59345 0.55148 0.44756 0.0
C780 C 0.59602 0.48878 0.43055 0.0
C781 C 0.60701 0.49366 0.44929 0.0
C782 C 0.60466 0.52491 0.45767 0.0
C783 C 0.58024 0.54631 0.42999 0.0
C784 C 0.57971 0.51512 0.42175 0.0
H785 H 0.61426 0.52817 0.47186 0.0
H786 H 0.57149 0.56613 0.42145 0.0
H787 H 0.64337 0.59697 0.49543 0.0
H788 H 0.7188 0.55661 0.46149 0.0
H789 H 0.49098 0.65307 0.45003 0.0
H790 H 0.61956 0.47446 0.4571 0.0
H791 H 0.56874 0.51265 0.40783 0.0
C792 C 0.3137 0.42067 0.21208 0.0
C793 C 0.31367 0.44908 0.22282 0.0
N794 N 0.32769 0.44257 0.23975 0.0
N795 N 0.32693 0.39568 0.22217 0.0
C796 C 0.33615 0.4101 0.23877 0.0
H797 H 0.30433 0.41823 0.19778 0.0
Co798 Co 0.33377 0.35234 0.21215 0.0
C799 C 0.30933 0.33407 0.2524 0.0
O800 O 0.29464 0.36218 0.25616 0.0
N801 N 0.34252 0.3099 0.20196 0.0
C802 C 0.33847 0.25626 0.19566 0.0
C803 C 0.33121 0.28066 0.20851 0.0
C804 C 0.35709 0.30236 0.18513 0.0
N805 N 0.35451 0.2699 0.1809 0.0
O806 O 0.38052 0.35724 0.2163 0.0
H807 H 0.31581 0.27749 0.22087 0.0
H808 H 0.36572 0.32079 0.17519 0.0
O809 O 0.32577 0.3305 0.23697 0.0
C810 C 0.39101 0.37359 0.202 0.0
O811 O 0.36936 0.38457 0.18967 0.0
N812 N 0.28747 0.34831 0.20554 0.0
C813 C 0.22475 0.35434 0.18875 0.0
C814 C 0.23154 0.36863 0.20654 0.0
C815 C 0.26267 0.36454 0.21489 0.0
C816 C 0.28007 0.33255 0.18886 0.0
C817 C 0.24868 0.33339 0.18106 0.0
H818 H 0.26742 0.37778 0.22781 0.0
H819 H 0.29851 0.32089 0.1803 0.0
H820 H 0.34913 0.39701 0.24986 0.0
H821 H 0.30339 0.47255 0.21852 0.0
H822 H 0.33008 0.23089 0.19631 0.0
H823 H 0.21425 0.38513 0.21339 0.0
H824 H 0.24456 0.31996 0.16799 0.0
C825 C 0.35186 0.56056 0.95079 0.0
C826 C 0.32413 0.56068 0.9621 0.0
N827 N 0.33193 0.57416 0.97903 0.0
N828 N 0.37757 0.57334 0.96048 0.0
C829 C 0.36444 0.58208 0.97748 0.0
H830 H 0.35302 0.55229 0.9362 0.0
Co831 Co 0.42036 0.58159 0.95026 0.0
C832 C 0.4379 0.54568 0.98752 0.0
O833 O 0.40898 0.53179 0.98999 0.0
N834 N 0.46265 0.59063 0.94018 0.0
C835 C 0.51453 0.5829 0.93082 0.0
C836 C 0.4901 0.57231 0.94292 0.0
C837 C 0.47124 0.61259 0.92653 0.0
N838 N 0.50257 0.60813 0.92053 0.0
O839 O 0.41808 0.62667 0.95921 0.0
H840 H 0.49172 0.55122 0.95227 0.0
H841 H 0.45414 0.62954 0.91999 0.0
O842 O 0.44293 0.56546 0.97361 0.0
C843 C 0.40034 0.64124 0.94675 0.0
O844 O 0.38759 0.62343 0.93299 0.0
N845 N 0.42116 0.5391 0.93852 0.0
C846 C 0.41282 0.48416 0.91452 0.0
C847 C 0.4053 0.4823 0.93403 0.0
C848 C 0.41019 0.50984 0.94581 0.0
C849 C 0.42889 0.54087 0.91968 0.0
C850 C 0.42707 0.51349 0.9079 0.0
H851 H 0.40187 0.5082 0.9602 0.0
H852 H 0.43502 0.56412 0.91317 0.0
H853 H 0.37868 0.59403 0.9885 0.0
H854 H 0.29988 0.55232 0.95786 0.0
H855 H 0.53895 0.57239 0.92932 0.0
H856 H 0.39352 0.46079 0.94008 0.0
H857 H 0.43478 0.51647 0.89332 0.0
C858 C 0.21803 0.6075 0.70447 0.0
C859 C 0.2199 0.5802 0.71603 0.0
N860 N 0.20755 0.58814 0.73321 0.0
N861 N 0.20479 0.63295 0.71421 0.0
C862 C 0.19862 0.62039 0.73171 0.0
H863 H 0.22538 0.60864 0.68972 0.0
Co864 Co 0.19353 0.67438 0.70337 0.0
C865 C 0.22355 0.72245 0.72988 0.0
O866 O 0.23502 0.73718 0.71462 0.0
N867 N 0.17935 0.71491 0.69229 0.0
C868 C 0.15101 0.76199 0.68967 0.0
C869 C 0.16644 0.7408 0.70196 0.0
C870 C 0.16944 0.72036 0.67411 0.0
N871 N 0.15307 0.74919 0.67214 0.0
O872 O 0.14786 0.66711 0.70959 0.0
H873 H 0.16566 0.74313 0.71722 0.0
H874 H 0.17181 0.70243 0.66279 0.0
O875 O 0.20443 0.69715 0.72798 0.0
C876 C 0.13584 0.64674 0.69754 0.0
O877 O 0.15622 0.63133 0.68606 0.0
N878 N 0.23838 0.68 0.69521 0.0
C879 C 0.30227 0.67502 0.67997 0.0
C880 C 0.29595 0.66675 0.69902 0.0
C881 C 0.26408 0.67011 0.70644 0.0
C882 C 0.24467 0.68988 0.67707 0.0
C883 C 0.27641 0.68917 0.66958 0.0
H884 H 0.25967 0.66246 0.72092 0.0
H885 H 0.22526 0.6967 0.66764 0.0
H886 H 0.18678 0.63436 0.74291 0.0
H887 H 0.22972 0.55634 0.71203 0.0
H888 H 0.13814 0.78451 0.6934 0.0
H889 H 0.31465 0.6557 0.70791 0.0
H890 H 0.27984 0.69772 0.65518 0.0
C891 C 0.18489 0.47556 0.46315 0.0
C892 C 0.21112 0.47936 0.47529 0.0
N893 N 0.20289 0.46668 0.49233 0.0
N894 N 0.15967 0.46084 0.47234 0.0
C895 C 0.17138 0.4557 0.49016 0.0
H896 H 0.18462 0.48232 0.44833 0.0
Co897 Co 0.12045 0.4468 0.46012 0.0
C898 C 0.06533 0.46857 0.4844 0.0
O899 O 0.04948 0.47494 0.46857 0.0
N900 N 0.08154 0.43092 0.44747 0.0
C901 C 0.03981 0.39634 0.44133 0.0
C902 C 0.06464 0.40422 0.45379 0.0
C903 C 0.06567 0.43906 0.43113 0.0
N904 N 0.04049 0.41828 0.42708 0.0
O905 O 0.13032 0.402 0.46701 0.0
H906 H 0.06991 0.39114 0.46679 0.0
H907 H 0.072 0.45962 0.42215 0.0
O908 O 0.09434 0.45572 0.48355 0.0
C909 C 0.14858 0.39194 0.45341 0.0
O910 O 0.15715 0.41305 0.44015 0.0
N911 N 0.11413 0.49016 0.45143 0.0
C912 C 0.124 0.55267 0.43581 0.0
C913 C 0.11572 0.54915 0.45504 0.0
C914 C 0.11144 0.51758 0.46268 0.0
C915 C 0.12198 0.49334 0.43273 0.0
C916 C 0.12613 0.52427 0.42451 0.0
H917 H 0.1089 0.51536 0.47787 0.0
H918 H 0.12742 0.47155 0.42441 0.0
H919 H 0.15753 0.44294 0.50105 0.0
H920 H 0.23458 0.49052 0.47173 0.0
H921 H 0.02202 0.37656 0.44289 0.0
H922 H 0.11496 0.57043 0.46437 0.0
H923 H 0.13404 0.52566 0.40985 0.0
C924 C 0.31766 0.60745 0.34556 0.0
C925 C 0.31643 0.57966 0.33432 0.0
N926 N 0.32585 0.58782 0.31657 0.0
N927 N 0.32746 0.63349 0.33507 0.0
C928 C 0.33239 0.62075 0.31745 0.0
H929 H 0.31202 0.60862 0.36056 0.0
Co930 Co 0.33598 0.67617 0.34525 0.0
C931 C 0.30156 0.72068 0.31888 0.0
O932 O 0.28924 0.73468 0.33416 0.0
N933 N 0.34762 0.71829 0.35568 0.0
C934 C 0.37261 0.76744 0.35734 0.0
C935 C 0.35822 0.74464 0.34553 0.0
C936 C 0.35784 0.72532 0.37365 0.0
N937 N 0.37222 0.75534 0.37506 0.0
O938 O 0.38154 0.67192 0.33826 0.0
H939 H 0.35823 0.74633 0.33025 0.0
H940 H 0.35732 0.70774 0.38521 0.0
O941 O 0.32253 0.69698 0.3207 0.0
C942 C 0.39422 0.65596 0.35207 0.0
O943 O 0.37449 0.64469 0.36537 0.0
N944 N 0.29121 0.67866 0.35413 0.0
C945 C 0.22895 0.66865 0.37076 0.0
C946 C 0.23497 0.65973 0.35175 0.0
C947 C 0.26592 0.66571 0.3436 0.0
C948 C 0.28494 0.68934 0.37214 0.0
C949 C 0.25383 0.68618 0.38026 0.0
H950 H 0.27019 0.65763 0.32918 0.0
H951 H 0.30402 0.69879 0.38103 0.0
H952 H 0.34153 0.63522 0.30567 0.0
H953 H 0.30894 0.55532 0.33896 0.0
H954 H 0.38383 0.79058 0.35313 0.0
H955 H 0.21698 0.64628 0.34347 0.0
H956 H 0.25039 0.69561 0.39449 0.0
C957 C 0.18603 0.58418 0.09254 0.0
C958 C 0.211 0.58492 0.07944 0.0
N959 N 0.19839 0.57781 0.06224 0.0
N960 N 0.15733 0.5766 0.08395 0.0
C961 C 0.16562 0.57258 0.06537 0.0
H962 H 0.1887 0.58875 0.10757 0.0
Co963 Co 0.11891 0.5748 0.09902 0.0
C964 C 0.06262 0.55175 0.07482 0.0
O965 O 0.04875 0.54002 0.09023 0.0
N966 N 0.08104 0.57405 0.11553 0.0
C967 C 0.04812 0.56466 0.14039 0.0
C968 C 0.07463 0.55333 0.13018 0.0
C969 C 0.0573 0.59757 0.11716 0.0
N970 N 0.03738 0.59267 0.13233 0.0
O971 O 0.11584 0.62242 0.09764 0.0
H972 H 0.08829 0.53144 0.13376 0.0
H973 H 0.05542 0.61869 0.10784 0.0
O974 O 0.09044 0.56709 0.07609 0.0
C975 C 0.12685 0.63247 0.11369 0.0
O976 O 0.13576 0.61028 0.12626 0.0
N977 N 0.12586 0.52969 0.10243 0.0
C978 C 0.1391 0.46705 0.11627 0.0
C979 C 0.12319 0.4708 0.09876 0.0
C980 C 0.11695 0.50271 0.09191 0.0
C981 C 0.14444 0.52605 0.11836 0.0
C982 C 0.1507 0.49504 0.12577 0.0
H983 H 0.10528 0.50533 0.07828 0.0
H984 H 0.15276 0.54764 0.12601 0.0
H985 H 0.14803 0.56633 0.05439 0.0
H986 H 0.23672 0.58971 0.08251 0.0
H987 H 0.03756 0.55312 0.15285 0.0
H988 H 0.11547 0.44944 0.09062 0.0
H989 H 0.16445 0.49294 0.1389 0.0
C990 C 0.2173 0.4274 0.84006 0.0
C991 C 0.22034 0.45379 0.82798 0.0
N992 N 0.2055 0.44622 0.81144 0.0
N993 N 0.20081 0.40274 0.83134 0.0
C994 C 0.19396 0.41493 0.81382 0.0
H995 H 0.22586 0.42668 0.85457 0.0
Co996 Co 0.18768 0.36345 0.84394 0.0
C997 C 0.2073 0.30837 0.81845 0.0
O998 O 0.21461 0.29183 0.83391 0.0
N999 N 0.17306 0.32452 0.85699 0.0
C1000 C 0.1393 0.28275 0.86451 0.0
C1001 C 0.14613 0.30713 0.8515 0.0
C1002 C 0.18239 0.30941 0.87336 0.0
N1003 N 0.1622 0.28427 0.87822 0.0
O1004 O 0.14184 0.3735 0.83884 0.0
H1005 H 0.132 0.31198 0.8388 0.0
H1006 H 0.20321 0.31636 0.88194 0.0
O1007 O 0.1944 0.33736 0.82001 0.0
C1008 C 0.13263 0.39506 0.85105 0.0
O1009 O 0.15512 0.40845 0.86204 0.0
N1010 N 0.2317 0.35674 0.85118 0.0
C1011 C 0.29518 0.35997 0.86619 0.0
C1012 C 0.29042 0.35375 0.84679 0.0
C1013 C 0.25834 0.35262 0.83948 0.0
C1014 C 0.23626 0.36428 0.86982 0.0
C1015 C 0.26757 0.3648 0.87777 0.0
H1016 H 0.25524 0.35079 0.82431 0.0
H1017 H 0.21529 0.37127 0.87845 0.0
H1018 H 0.17973 0.4016 0.80331 0.0
H1019 H 0.23255 0.4769 0.83123 0.0
H1020 H 0.11947 0.26486 0.86376 0.0
H1021 H 0.3113 0.35182 0.83725 0.0
H1022 H 0.27026 0.37176 0.89255 0.0
C1023 C 0.36136 0.47967 0.6009 0.0
C1024 C 0.33447 0.48206 0.58907 0.0
N1025 N 0.34273 0.46979 0.57191 0.0
N1026 N 0.38686 0.46621 0.59136 0.0
C1027 C 0.37477 0.46039 0.57371 0.0
H1028 H 0.36207 0.48671 0.6157 0.0
Co1029 Co 0.42738 0.45454 0.60267 0.0
C1030 C 0.47916 0.47405 0.57539 0.0
O1031 O 0.49641 0.483 0.59032 0.0
N1032 N 0.4678 0.44077 0.61437 0.0
C1033 C 0.50961 0.40597 0.61952 0.0
C1034 C 0.48559 0.41555 0.60697 0.0
C1035 C 0.4821 0.44623 0.63156 0.0
N1036 N 0.50733 0.4252 0.635 0.0
O1037 O 0.41683 0.40863 0.5987 0.0
H1038 H 0.48062 0.40396 0.59344 0.0
H1039 H 0.47373 0.46407 0.64185 0.0
O1040 O 0.45079 0.46025 0.57783 0.0
C1041 C 0.40524 0.4007 0.61498 0.0
O1042 O 0.40255 0.42395 0.62793 0.0
N1043 N 0.4342 0.4992 0.60888 0.0
C1044 C 0.42165 0.56355 0.62123 0.0
C1045 C 0.42889 0.55711 0.60209 0.0
C1046 C 0.4343 0.52463 0.59611 0.0
C1047 C 0.42844 0.50536 0.62759 0.0
C1048 C 0.42288 0.53731 0.63414 0.0
H1049 H 0.43512 0.51992 0.58105 0.0
H1050 H 0.42429 0.48507 0.63721 0.0
H1051 H 0.38887 0.4484 0.56262 0.0
H1052 H 0.31064 0.49211 0.59289 0.0
H1053 H 0.5274 0.38635 0.61746 0.0
H1054 H 0.4274 0.57652 0.59157 0.0
H1055 H 0.41588 0.5407 0.64885 0.0
H1056 H 0.2207 0.27725 0.41455 0.0
H1057 H 0.12245 0.25635 0.39496 0.0
H1058 H 0.09971 0.29573 0.41813 0.0
H1059 H 0.10958 0.34346 0.43956 0.0
H1060 H 0.20851 0.36489 0.45806 0.0
H1061 H 0.22935 0.31734 0.44034 0.0
C1062 C 0.19426 0.2808 0.41578 0.0
C1063 C 0.17318 0.26445 0.40303 0.0
C1064 C 0.18163 0.30352 0.429 0.0
C1065 C 0.13897 0.26881 0.40469 0.0
C1066 C 0.12609 0.29142 0.41785 0.0
C1067 C 0.13539 0.33654 0.44048 0.0
C1068 C 0.15749 0.35716 0.45036 0.0
C1069 C 0.14733 0.30989 0.42956 0.0
C1070 C 0.19105 0.34884 0.45092 0.0
C1071 C 0.20302 0.322 0.44051 0.0
H1072 H 0.02072 0.92638 0.65176 0.0
H1073 H 0.98966 0.83933 0.62145 0.0
H1074 H 0.9517 0.82512 0.64722 0.0
H1075 H 0.92057 0.84304 0.67521 0.0
H1076 H 0.94671 0.93342 0.70363 0.0
H1077 H 0.99397 0.94051 0.68226 0.0
C1078 C 1.00629 0.90384 0.65112 0.0
C1079 C 1.00769 0.88403 0.63471 0.0
C1080 C 0.98362 0.89656 0.6657 0.0
C1081 C 0.98861 0.85509 0.63387 0.0
C1082 C 0.96697 0.84699 0.64859 0.0
C1083 C 0.93765 0.86331 0.67733 0.0
C1084 C 0.93084 0.88718 0.69129 0.0
C1085 C 0.96333 0.86823 0.66421 0.0
C1086 C 0.95211 0.91431 0.69331 0.0
C1087 C 0.97877 0.9186 0.68088 0.0
H1088 H 0.44527 0.68261 0.9315 0.0
H1089 H 0.34757 0.67926 0.9553 0.0
H1090 H 0.33247 0.72913 0.93777 0.0
H1091 H 0.34306 0.76493 0.9099 0.0
H1092 H 0.43825 0.76213 0.88293 0.0
H1093 H 0.45845 0.7236 0.90703 0.0
C1094 C 0.42116 0.69363 0.93345 0.0
C1095 C 0.39765 0.67741 0.9448 0.0
C1096 C 0.41191 0.7207 0.9221 0.0
C1097 C 0.36631 0.69172 0.94698 0.0
C1098 C 0.35747 0.71986 0.93661 0.0
C1099 C 0.36851 0.75668 0.9098 0.0
C1100 C 0.38921 0.76617 0.89473 0.0
C1101 C 0.37941 0.73331 0.92325 0.0
C1102 C 0.42199 0.75497 0.89442 0.0
C1103 C 0.43345 0.73291 0.90816 0.0
H1104 H 0.59329 0.10055 0.20222 0.0
H1105 H 0.60069 0.20648 0.19916 0.0
H1106 H 0.55697 0.20778 0.17526 0.0
H1107 H 0.52423 0.17712 0.15093 0.0
H1108 H 0.51492 0.07156 0.15559 0.0
H1109 H 0.55134 0.07154 0.18328 0.0
C1110 C 0.58419 0.12404 0.19698 0.0
C1111 C 0.60052 0.15331 0.20222 0.0
C1112 C 0.55919 0.12448 0.18317 0.0
C1113 C 0.58864 0.18359 0.19531 0.0
C1114 C 0.56389 0.18428 0.18142 0.0
C1115 C 0.52962 0.15437 0.1584 0.0
C1116 C 0.51737 0.12431 0.15124 0.0
C1117 C 0.55024 0.15468 0.17452 0.0
C1118 C 0.52415 0.09488 0.16097 0.0
C1119 C 0.54505 0.09489 0.17672 0.0
H1120 H 0.11617 0.65896 0.1479 0.0
H1121 H 0.14916 0.68377 0.09156 0.0
H1122 H 0.17073 0.73672 0.10341 0.0
H1123 H 0.18637 0.77213 0.13071 0.0
H1124 H 0.15457 0.74534 0.18706 0.0
H1125 H 0.12615 0.69694 0.17431 0.0
C1126 C 0.12741 0.67635 0.13812 0.0
C1127 C 0.13125 0.66755 0.11891 0.0
C1128 C 0.14045 0.70602 0.14515 0.0
C1129 C 0.14564 0.69021 0.10635 0.0
C1130 C 0.15836 0.72022 0.11321 0.0
C1131 C 0.17315 0.75572 0.14018 0.0
C1132 C 0.17309 0.76205 0.1599 0.0
C1133 C 0.15701 0.72776 0.13272 0.0
C1134 C 0.15506 0.74106 0.1719 0.0
C1135 C 0.13891 0.71332 0.16461 0.0
H1136 H 0.52576 0.86323 0.40465 0.0
H1137 H 0.5325 0.96881 0.41114 0.0
H1138 H 0.57324 0.9714 0.38551 0.0
H1139 H 0.61233 0.94261 0.36451 0.0
H1140 H 0.60534 0.83718 0.35737 0.0
H1141 H 0.55875 0.83542 0.37954 0.0
C1142 C 0.53595 0.88676 0.40023 0.0
C1143 C 0.52665 0.91578 0.40992 0.0
C1144 C 0.5591 0.88803 0.38531 0.0
C1145 C 0.53942 0.94624 0.4039 0.0
C1146 C 0.56273 0.94768 0.38929 0.0
C1147 C 0.59968 0.91946 0.36724 0.0
C1148 C 0.61206 0.89012 0.35925 0.0
C1149 C 0.5734 0.91865 0.38026 0.0
C1150 C 0.59585 0.86017 0.36305 0.0
C1151 C 0.56958 0.85912 0.37601 0.0
H1152 H 0.33554 0.26522 0.63284 0.0
H1153 H 0.37346 0.28831 0.68848 0.0
H1154 H 0.40288 0.3359 0.67553 0.0
H1155 H 0.4135 0.37364 0.64921 0.0
H1156 H 0.37549 0.35215 0.59344 0.0
H1157 H 0.35071 0.30077 0.60552 0.0
C1158 C 0.35025 0.28069 0.64211 0.0
C1159 C 0.35189 0.2735 0.66171 0.0
C1160 C 0.36705 0.30814 0.63453 0.0
C1161 C 0.37178 0.29325 0.67342 0.0
C1162 C 0.38849 0.32054 0.66602 0.0
C1163 C 0.40014 0.35746 0.63961 0.0
C1164 C 0.39598 0.36672 0.62051 0.0
C1165 C 0.38572 0.32855 0.64672 0.0
C1166 C 0.37911 0.34541 0.60816 0.0
C1167 C 0.3647 0.31628 0.61514 0.0
H1168 H 0.92628 0.0793 0.86535 0.0
H1169 H 0.93577 0.18437 0.85727 0.0
H1170 H 0.9845 0.18513 0.87771 0.0
H1171 H 0.01884 0.15701 0.90194 0.0
H1172 H 1.01051 0.05178 0.90905 0.0
H1173 H 0.96707 0.04973 0.88487 0.0
C1174 C 0.93971 0.10218 0.86755 0.0
C1175 C 0.92718 0.1318 0.85997 0.0
C1176 C 0.96752 0.10242 0.87947 0.0
C1177 C 0.94484 0.16124 0.86288 0.0
C1178 C 0.97253 0.16173 0.87478 0.0
C1179 C 1.00783 0.13364 0.89787 0.0
C1180 C 0.01736 0.1046 0.90737 0.0
C1181 C 0.98316 0.13271 0.88381 0.0
C1182 C 1.00344 0.07433 0.9019 0.0
C1183 C 0.97856 0.07324 0.88815 0.0
H1184 H 0.91255 0.76268 0.64535 0.0
H1185 H 0.8074 0.75739 0.65347 0.0
H1186 H 0.80311 0.7159 0.62824 0.0
H1187 H 0.83057 0.67547 0.60754 0.0
H1188 H 0.93558 0.68178 0.59848 0.0
H1189 H 0.93867 0.72918 0.6199 0.0
C1190 C 0.88873 0.75271 0.6413 0.0
C1191 C 0.86035 0.76245 0.65137 0.0
C1192 C 0.8865 0.72915 0.62665 0.0
C1193 C 0.82947 0.75003 0.6459 0.0
C1194 C 0.82708 0.7263 0.63154 0.0
C1195 C 0.85398 0.68792 0.60976 0.0
C1196 C 0.88291 0.6746 0.60178 0.0
C1197 C 0.85557 0.71491 0.62227 0.0
C1198 C 0.91299 0.6912 0.60459 0.0
C1199 C 0.91481 0.71817 0.61702 0.0
H1200 H 1.00983 0.13205 0.399 0.0
H1201 H 0.03728 0.02924 0.39861 0.0
H1202 H 0.08804 0.04232 0.38158 0.0
H1203 H 0.12649 0.08308 0.3688 0.0
H1204 H 0.10044 0.18607 0.36821 0.0
H1205 H 0.04702 0.17307 0.38311 0.0
C1206 C 0.02707 0.11269 0.39517 0.0
C1207 C 0.02006 0.07972 0.40023 0.0
C1208 C 0.05616 0.1204 0.38497 0.0
C1209 C 0.04221 0.05471 0.39489 0.0
C1210 C 0.07119 0.06218 0.38514 0.0
C1211 C 0.10864 0.10254 0.37143 0.0
C1212 C 0.11704 0.13536 0.36719 0.0
C1213 C 0.07855 0.09489 0.38025 0.0
C1214 C 0.09408 0.16051 0.37091 0.0
C1215 C 0.06382 0.15309 0.37973 0.0
H1216 H 0.67447 0.26164 0.14753 0.0
H1217 H 0.58468 0.27964 0.1785 0.0
H1218 H 0.56348 0.31322 0.15236 0.0
H1219 H 0.57541 0.34599 0.12402 0.0
H1220 H 0.66817 0.33436 0.09511 0.0
H1221 H 0.68291 0.28883 0.11636 0.0
C1222 C 0.64989 0.27214 0.14819 0.0
C1223 C 0.63118 0.26851 0.1649 0.0
C1224 C 0.63851 0.29257 0.13338 0.0
C1225 C 0.59953 0.28249 0.16582 0.0
C1226 C 0.58746 0.30164 0.15089 0.0
C1227 C 0.59811 0.33236 0.12181 0.0
C1228 C 0.62044 0.34307 0.10783 0.0
C1229 C 0.60735 0.30805 0.13499 0.0
C1230 C 0.65024 0.32593 0.10544 0.0
C1231 C 0.65893 0.30037 0.11788 0.0
H1232 H 0.42576 0.94107 0.86134 0.0
H1233 H 0.43134 0.8349 0.8593 0.0
H1234 H 0.48097 0.83614 0.87911 0.0
H1235 H 0.51692 0.8673 0.90135 0.0
H1236 H 0.5114 0.97348 0.90297 0.0
H1237 H 0.4679 0.97263 0.87886 0.0
C1238 C 0.43873 0.91833 0.86458 0.0
C1239 C 0.42511 0.88796 0.85877 0.0
C1240 C 0.4668 0.91929 0.87628 0.0
C1241 C 0.44174 0.85859 0.86326 0.0
C1242 C 0.46979 0.8593 0.87489 0.0
C1243 C 0.50649 0.8902 0.89613 0.0
C1244 C 0.51689 0.92043 0.90409 0.0
C1245 C 0.48161 0.88943 0.88218 0.0
C1246 C 0.50371 0.95001 0.89705 0.0
C1247 C 0.47877 0.94947 0.88334 0.0
H1248 H 0.91543 0.26392 0.90392 0.0
H1249 H 0.80934 0.26597 0.90068 0.0
H1250 H 0.80739 0.30759 0.92591 0.0
H1251 H 0.83643 0.34906 0.94527 0.0
H1252 H 0.9425 0.3468 0.94898 0.0
H1253 H 0.94405 0.29906 0.92764 0.0
C1254 C 0.89194 0.27321 0.90899 0.0
C1255 C 0.86256 0.26237 0.90029 0.0
C1256 C 0.89108 0.29698 0.92361 0.0
C1257 C 0.8322 0.27403 0.90716 0.0
C1258 C 0.83112 0.29788 0.92152 0.0
C1259 C 0.85978 0.33727 0.94197 0.0
C1260 C 0.8893 0.35143 0.94867 0.0
C1261 C 0.86045 0.31026 0.92942 0.0
C1262 C 0.91943 0.33614 0.94422 0.0
C1263 C 0.92033 0.30914 0.93175 0.0
H1264 H 0.50947 0.08942 0.66811 0.0
H1265 H 0.50387 0.15609 0.62072 0.0
H1266 H 0.45891 0.18634 0.63628 0.0
H1267 H 0.41592 0.18805 0.66111 0.0
H1268 H 0.42204 0.1223 0.70892 0.0
H1269 H 0.47265 0.09795 0.69588 0.0
C1270 C 0.49872 0.11098 0.66143 0.0
C1271 C 0.50951 0.12034 0.64319 0.0
C1272 C 0.47313 0.12837 0.6706 0.0
C1273 C 0.49587 0.14851 0.63471 0.0
C1274 C 0.47011 0.16566 0.64359 0.0
C1275 C 0.4292 0.16935 0.66904 0.0
C1276 C 0.41556 0.15715 0.68603 0.0
C1277 C 0.45787 0.15515 0.66125 0.0
C1278 C 0.43252 0.13255 0.69606 0.0
C1279 C 0.46111 0.11825 0.6884 0.0
H1280 H 0.68111 0.69426 0.44635 0.0
H1281 H 0.57539 0.68916 0.44142 0.0
H1282 H 0.5761 0.73444 0.41846 0.0
H1283 H 0.60845 0.76784 0.39528 0.0
H1284 H 0.71384 0.7745 0.40152 0.0
H1285 H 0.71187 0.7367 0.4286 0.0
C1286 C 0.65811 0.70427 0.44098 0.0
C1287 C 0.62827 0.68842 0.44556 0.0
C1288 C 0.65884 0.73006 0.42763 0.0
C1289 C 0.59864 0.70118 0.4383 0.0
C1290 C 0.59912 0.72674 0.42489 0.0
C1291 C 0.63073 0.7616 0.40297 0.0
C1292 C 0.66132 0.77351 0.3964 0.0
C1293 C 0.62927 0.74016 0.41872 0.0
C1294 C 0.69013 0.76559 0.40643 0.0
C1295 C 0.68898 0.74389 0.42183 0.0
H1296 H 1.01336 0.94249 0.17204 0.0
H1297 H 0.03243 0.9028 0.11635 0.0
H1298 H 0.07809 0.86994 0.12901 0.0
H1299 H 0.11752 0.85984 0.1548 0.0
H1300 H 0.09951 0.90027 0.21043 0.0
H1301 H 0.04785 0.92494 0.19915 0.0
C1302 C 0.02733 0.92629 0.16277 0.0
C1303 C 0.02012 0.92549 0.14322 0.0
C1304 C 0.05356 0.90769 0.17018 0.0
C1305 C 0.03771 0.90387 0.13139 0.0
C1306 C 0.06384 0.88524 0.13863 0.0
C1307 C 0.10166 0.87317 0.16458 0.0
C1308 C 0.11216 0.87845 0.18336 0.0
C1309 C 0.07267 0.8879 0.15784 0.0
C1310 C 0.09163 0.89564 0.19598 0.0
C1311 C 0.06241 0.91014 0.18943 0.0
H1312 H 0.69821 0.77211 0.90727 0.0
H1313 H 0.60674 0.78866 0.87783 0.0
H1314 H 0.58934 0.82797 0.90229 0.0
H1315 H 0.60448 0.86445 0.92871 0.0
H1316 H 0.69878 0.85318 0.95588 0.0
H1317 H 0.71056 0.80453 0.93626 0.0
C1318 C 0.67414 0.78372 0.90659 0.0
C1319 C 0.65381 0.77777 0.89079 0.0
C1320 C 0.66492 0.8073 0.92036 0.0
C1321 C 0.62283 0.7932 0.88981 0.0
C1322 C 0.61292 0.81563 0.90378 0.0
C1323 C 0.62686 0.85031 0.93094 0.0
C1324 C 0.65037 0.86171 0.94404 0.0
C1325 C 0.63428 0.82381 0.91872 0.0
C1326 C 0.68 0.84421 0.94623 0.0
C1327 C 0.68692 0.81675 0.93478 0.0
H1328 H 0.42364 0.32937 0.18076 0.0
H1329 H 0.43432 0.42352 0.20843 0.0
H1330 H 0.48078 0.43724 0.18758 0.0
H1331 H 0.50995 0.42706 0.15712 0.0
H1332 H 0.49296 0.33595 0.12718 0.0
H1333 H 0.45752 0.31622 0.15296 0.0
C1334 C 0.43708 0.35226 0.18274 0.0
C1335 C 0.42598 0.37518 0.19632 0.0
C1336 C 0.46205 0.36086 0.16977 0.0
C1337 C 0.44303 0.40515 0.19842 0.0
C1338 C 0.46917 0.41323 0.18622 0.0
C1339 C 0.49917 0.40256 0.15662 0.0
C1340 C 0.50376 0.38296 0.14032 0.0
C1341 C 0.47768 0.39203 0.17118 0.0
C1342 C 0.48943 0.35142 0.13957 0.0
C1343 C 0.46921 0.3402 0.15429 0.0
H1344 H 0.92118 0.1613 0.39581 0.0
H1345 H 0.91195 0.19053 0.45443 0.0
H1346 H 0.89412 0.24574 0.44455 0.0
H1347 H 0.87296 0.28224 0.41928 0.0
H1348 H 0.88104 0.25238 0.36076 0.0
H1349 H 0.90804 0.20093 0.37047 0.0
C1350 C 0.91604 0.18006 0.40642 0.0
C1351 C 0.9175 0.17181 0.42583 0.0
C1352 C 0.90518 0.21139 0.40061 0.0
C1353 C 0.91115 0.19633 0.43944 0.0
C1354 C 0.90058 0.22776 0.43377 0.0
C1355 C 0.88109 0.26461 0.40867 0.0
C1356 C 0.87449 0.2707 0.38934 0.0
C1357 C 0.8962 0.23503 0.41442 0.0
C1358 C 0.88578 0.24815 0.37568 0.0
C1359 C 0.90099 0.21868 0.38126 0.0
H1360 H 1.01315 0.66909 0.64676 0.0
H1361 H 1.01344 0.56274 0.64758 0.0
H1362 H 0.05525 0.56312 0.67265 0.0
H1363 H 0.0977 0.59376 0.69045 0.0
H1364 H 0.09715 0.70013 0.69019 0.0
H1365 H 0.04896 0.69995 0.66923 0.0
C1366 C 0.02204 0.64609 0.65273 0.0
C1367 C 1.01069 0.61589 0.64519 0.0
C1368 C 0.04592 0.64659 0.66725 0.0
C1369 C 0.02188 0.58621 0.65317 0.0
C1370 C 0.04585 0.58646 0.66743 0.0
C1371 C 0.08606 0.61686 0.68646 0.0
C1372 C 0.10074 0.6469 0.69195 0.0
C1373 C 0.0588 0.61647 0.67413 0.0
C1374 C 0.08588 0.67672 0.68647 0.0
C1375 C 0.05868 0.67658 0.67419 0.0
H1376 H 0.71175 0.2567 0.64068 0.0
H1377 H 0.62821 0.26683 0.67795 0.0
H1378 H 0.59747 0.22602 0.65917 0.0
H1379 H 0.59843 0.18105 0.63533 0.0
H1380 H 0.68154 0.17185 0.59762 0.0
H1381 H 0.70817 0.21925 0.61291 0.0
C1382 C 0.68653 0.25043 0.64436 0.0
C1383 C 0.67232 0.26431 0.66079 0.0
C1384 C 0.66901 0.2272 0.63336 0.0
C1385 C 0.63955 0.25639 0.66538 0.0
C1386 C 0.6221 0.23297 0.65469 0.0
C1387 C 0.6216 0.19052 0.62986 0.0
C1388 C 0.63774 0.17342 0.6151 0.0
C1389 C 0.637 0.2174 0.63902 0.0
C1390 C 0.66826 0.1852 0.60856 0.0
C1391 C 0.68374 0.21193 0.61756 0.0
H1392 H 0.09288 0.34968 0.86726 0.0
H1393 H 0.09717 0.45165 0.85039 0.0
H1394 H 0.05034 0.46457 0.87109 0.0
H1395 H 1.01519 0.44864 0.89847 0.0
H1396 H 1.01506 0.34745 0.91713 0.0
H1397 H 0.05275 0.33232 0.89147 0.0
C1398 C 0.08246 0.37434 0.86743 0.0
C1399 C 0.0979 0.39951 0.85695 0.0
C1400 C 0.05678 0.38191 0.88025 0.0
C1401 C 0.0851 0.43171 0.85795 0.0
C1402 C 0.05866 0.4392 0.87005 0.0
C1403 C 0.02278 0.42319 0.89653 0.0
C1404 C 1.01267 0.39927 0.9098 0.0
C1405 C 0.04531 0.41482 0.88196 0.0
C1406 C 0.02291 0.36636 0.90726 0.0
C1407 C 0.04443 0.35769 0.89256 0.0
H1408 H 0.84391 0.77427 0.12804 0.0
H1409 H 0.87198 0.79611 0.18569 0.0
H1410 H 0.8998 0.84653 0.17511 0.0
H1411 H 0.91024 0.88729 0.1501 0.0
H1412 H 0.88218 0.86629 0.09236 0.0
H1413 H 0.86064 0.81219 0.1022 0.0
C1414 C 0.85632 0.79002 0.13823 0.0
C1415 C 0.85543 0.78186 0.15768 0.0
C1416 C 0.87217 0.81897 0.13201 0.0
C1417 C 0.8723 0.80194 0.1707 0.0
C1418 C 0.88804 0.8308 0.16465 0.0
C1419 C 0.89994 0.87057 0.13961 0.0
C1420 C 0.89743 0.88074 0.12057 0.0
C1421 C 0.88732 0.83996 0.14544 0.0
C1422 C 0.88448 0.85884 0.10705 0.0
C1423 C 0.87189 0.82812 0.11274 0.0
H1424 H 0.42548 0.70223 0.37219 0.0
H1425 H 0.43984 0.6088 0.34428 0.0
H1426 H 0.48803 0.59772 0.36425 0.0
H1427 H 0.5174 0.60917 0.39437 0.0
H1428 H 0.49727 0.69941 0.42458 0.0
H1429 H 0.46022 0.71746 0.39923 0.0
C1430 C 0.44022 0.68025 0.36987 0.0
C1431 C 0.4296 0.65662 0.35659 0.0
C1432 C 0.46624 0.67307 0.38237 0.0
C1433 C 0.44815 0.62769 0.35409 0.0
C1434 C 0.47528 0.62109 0.36579 0.0
C1435 C 0.50565 0.63319 0.39501 0.0
C1436 C 0.50968 0.65286 0.41132 0.0
C1437 C 0.48331 0.64272 0.38071 0.0
C1438 C 0.49411 0.6838 0.41222 0.0
C1439 C 0.47298 0.69407 0.39774 0.0
H1440 H 0.41064 0.26085 0.16075 0.0
H1441 H 0.30577 0.24398 0.1603 0.0
H1442 H 0.31123 0.20747 0.13287 0.0
H1443 H 0.34669 0.17229 0.11347 0.0
H1444 H 0.45197 0.18562 0.11454 0.0
H1445 H 0.44583 0.23208 0.13669 0.0
C1446 C 0.38908 0.24981 0.15421 0.0
C1447 C 0.35789 0.25452 0.16259 0.0
C1448 C 0.39259 0.22812 0.1386 0.0
C1449 C 0.32998 0.2402 0.15414 0.0
C1450 C 0.33311 0.21937 0.13849 0.0
C1451 C 0.36812 0.18646 0.11786 0.0
C1452 C 0.39963 0.1759 0.11229 0.0
C1453 C 0.36439 0.212 0.13117 0.0
C1454 C 0.42739 0.19385 0.11833 0.0
C1455 C 0.42388 0.21999 0.1313 0.0
H1456 H 0.59827 0.69557 0.87347 0.0
H1457 H 0.61596 0.60229 0.84594 0.0
H1458 H 0.56912 0.57784 0.86278 0.0
H1459 H 0.53092 0.58049 0.89012 0.0
H1460 H 0.51287 0.67357 0.9177 0.0
H1461 H 0.55178 0.701 0.89607 0.0
C1462 C 0.59063 0.67042 0.87043 0.0
C1463 C 0.61005 0.65082 0.85828 0.0
C1464 C 0.5643 0.65634 0.88066 0.0
C1465 C 0.60078 0.61798 0.85485 0.0
C1466 C 0.5744 0.60386 0.86478 0.0
C1467 C 0.53503 0.60692 0.89099 0.0
C1468 C 0.51972 0.62506 0.90556 0.0
C1469 C 0.55721 0.62235 0.87846 0.0
C1470 C 0.52465 0.6593 0.90659 0.0
C1471 C 0.54693 0.67485 0.89429 0.0
H1472 H 0.18468 0.7617 0.63936 0.0
H1473 H 0.09086 0.77027 0.66754 0.0
H1474 H 0.07051 0.80631 0.64227 0.0
H1475 H 0.08357 0.84396 0.61615 0.0
H1476 H 0.17957 0.8411 0.59016 0.0
H1477 H 0.19469 0.79357 0.60981 0.0
C1478 C 0.15948 0.77065 0.63952 0.0
C1479 C 0.13927 0.76363 0.65525 0.0
C1480 C 0.14847 0.7925 0.62527 0.0
C1481 C 0.10679 0.77565 0.65558 0.0
C1482 C 0.09523 0.79626 0.64117 0.0
C1483 C 0.10715 0.83176 0.61412 0.0
C1484 C 0.1302 0.84551 0.60148 0.0
C1485 C 0.11635 0.80605 0.62642 0.0
C1486 C 0.16113 0.83033 0.59942 0.0
C1487 C 0.16998 0.80358 0.61097 0.0
H1488 H 0.92296 0.44918 0.3728 0.0
H1489 H 0.92648 0.34368 0.36496 0.0
H1490 H 0.97709 0.34094 0.3839 0.0
H1491 H 1.01567 0.368 0.40646 0.0
H1492 H 1.01234 0.47364 0.41354 0.0
H1493 H 0.96653 0.47709 0.39103 0.0
C1494 C 0.93541 0.42572 0.37477 0.0
C1495 C 0.92095 0.39666 0.36759 0.0
C1496 C 0.9642 0.42438 0.38582 0.0
C1497 C 0.93724 0.36641 0.3702 0.0
C1498 C 0.96596 0.36482 0.38124 0.0
C1499 C 1.00511 0.39175 0.40281 0.0
C1500 C 0.01698 0.42052 0.4118 0.0
C1501 C 0.9789 0.3935 0.38974 0.0
C1502 C 1.0036 0.45125 0.40679 0.0
C1503 C 0.97734 0.45317 0.39399 0.0
H1504 H 0.34268 0.76626 0.40872 0.0
H1505 H 0.43318 0.78076 0.37786 0.0
H1506 H 0.45365 0.81769 0.40274 0.0
H1507 H 0.44131 0.85359 0.42992 0.0
H1508 H 0.34856 0.84401 0.4591 0.0
H1509 H 0.33364 0.79702 0.43883 0.0
C1510 C 0.36723 0.77681 0.40784 0.0
C1511 C 0.38639 0.77109 0.39149 0.0
C1512 C 0.37829 0.79905 0.42194 0.0
C1513 C 0.41801 0.78514 0.39027 0.0
C1514 C 0.42965 0.80625 0.40448 0.0
C1515 C 0.41858 0.84007 0.43242 0.0
C1516 C 0.39642 0.85159 0.44628 0.0
C1517 C 0.40946 0.81446 0.41996 0.0
C1518 C 0.36638 0.83491 0.44889 0.0
C1519 C 0.35764 0.80842 0.43706 0.0
H1520 H 0.90618 0.66991 0.14639 0.0
H1521 H 0.92734 0.64345 0.20432 0.0
H1522 H 0.98095 0.6209 0.19445 0.0
H1523 H 0.01826 0.60269 0.16862 0.0
H1524 H 0.99565 0.62838 0.11071 0.0
H1525 H 0.94613 0.65756 0.12127 0.0
C1526 C 0.92284 0.65979 0.15692 0.0
C1527 C 0.91281 0.65806 0.17603 0.0
C1528 C 0.95306 0.64635 0.15106 0.0
C1529 C 0.93466 0.64524 0.18957 0.0
C1530 C 0.96509 0.63201 0.18387 0.0
C1531 C 1.00253 0.6148 0.15834 0.0
C1532 C 1.01031 0.61288 0.13883 0.0
C1533 C 0.97397 0.63138 0.16455 0.0
C1534 C 0.99021 0.62945 0.12574 0.0
C1535 C 0.96183 0.646 0.13178 0.0
H1536 H 0.19778 0.17346 0.93623 0.0
H1537 H 0.09384 0.18098 0.94841 0.0
H1538 H 0.0895 0.22854 0.92717 0.0
H1539 H 0.11408 0.26287 0.90158 0.0
H1540 H 0.21831 0.25604 0.89035 0.0
H1541 H 0.22391 0.21344 0.91474 0.0
C1542 C 0.17439 0.18618 0.93469 0.0
C1543 C 0.14612 0.17349 0.94373 0.0
C1544 C 0.17206 0.21321 0.92229 0.0
C1545 C 0.11599 0.19024 0.94168 0.0
C1546 C 0.11342 0.21722 0.92932 0.0
C1547 C 0.138 0.25221 0.9047 0.0
C1548 C 0.16571 0.26208 0.89404 0.0
C1549 C 0.14103 0.22802 0.91895 0.0
C1550 C 0.19672 0.2487 0.89837 0.0
C1551 C 0.19987 0.22433 0.91227 0.0
H1552 H 0.52618 0.37057 0.65385 0.0
H1553 H 0.53614 0.47644 0.65279 0.0
H1554 H 0.57971 0.47354 0.67682 0.0
H1555 H 0.62058 0.4401 0.69398 0.0
H1556 H 0.61018 0.33425 0.69591 0.0
H1557 H 0.56056 0.33775 0.67613 0.0
C1558 C 0.53757 0.39296 0.6592 0.0
C1559 C 0.52848 0.42369 0.6514 0.0
C1560 C 0.56243 0.39101 0.67312 0.0
C1561 C 0.54286 0.45262 0.65859 0.0
C1562 C 0.56782 0.4509 0.67225 0.0
C1563 C 0.60669 0.4179 0.69066 0.0
C1564 C 0.61919 0.38693 0.69619 0.0
C1565 C 0.57855 0.42016 0.6791 0.0
C1566 C 0.60105 0.35836 0.69185 0.0
C1567 C 0.57291 0.36036 0.68032 0.0
H1568 H 0.24565 0.02162 0.31529 0.0
H1569 H 0.16367 0.08379 0.29936 0.0
H1570 H 0.15172 0.0474 0.27269 0.0
H1571 H 0.16466 0.99849 0.25353 0.0
H1572 H 0.24648 0.93607 0.269 0.0
H1573 H 0.25744 0.97129 0.29662 0.0
C1574 C 0.22489 0.02717 0.30619 0.0
C1575 C 0.20575 0.05589 0.30953 0.0
C1576 C 0.21791 1.00585 0.29081 0.0
C1577 C 0.17927 0.06246 0.29719 0.0
C1578 C 0.17222 0.04142 0.28192 0.0
C1579 C 0.18506 0.99255 0.26283 0.0
C1580 C 0.20494 0.96466 0.25893 0.0
C1581 C 0.19149 1.0132 0.27852 0.0
C1582 C 0.23065 0.95712 0.27158 0.0
C1583 C 0.23708 0.97748 0.28733 0.0
H1584 H 0.25979 0.94907 0.56716 0.0
H1585 H 0.17937 0.957 0.52731 0.0
H1586 H 0.21859 0.95716 0.50102 0.0
H1587 H 0.27558 0.95681 0.48928 0.0
H1588 H 0.35645 0.95057 0.52884 0.0
H1589 H 0.31717 0.94774 0.55526 0.0
C1590 C 0.25072 0.95107 0.55277 0.0
C1591 C 0.21635 0.95322 0.54939 0.0
C1592 C 0.27357 0.95141 0.53761 0.0
C1593 C 0.2054 0.95504 0.53048 0.0
C1594 C 0.22792 0.95532 0.51539 0.0
C1595 C 0.2848 0.95512 0.50366 0.0
C1596 C 0.3192 0.95432 0.50696 0.0
C1597 C 0.26205 0.95382 0.51878 0.0
C1598 C 0.3303 0.95112 0.52577 0.0
C1599 C 0.30777 0.9497 0.54091 0.0
H1600 H 0.3595 0.02855 0.74818 0.0
H1601 H 0.28212 0.09234 0.76879 0.0
H1602 H 0.27253 0.05462 0.79543 0.0
H1603 H 0.28474 1.00219 0.81213 0.0
H1604 H 0.36202 0.9388 0.79073 0.0
H1605 H 0.372 0.97711 0.76478 0.0
C1606 C 0.34025 0.03426 0.75832 0.0
C1607 C 0.32133 0.06336 0.75618 0.0
C1608 C 0.33452 1.01217 0.7734 0.0
C1609 C 0.29722 0.07041 0.76999 0.0
C1610 C 0.29156 0.04863 0.78518 0.0
C1611 C 0.30396 0.99673 0.80192 0.0
C1612 C 0.32247 0.96717 0.80359 0.0
C1613 C 0.30987 0.01923 0.78695 0.0
C1614 C 0.34693 0.96076 0.78988 0.0
C1615 C 0.35289 0.98292 0.77503 0.0
H1616 H 0.27794 0.07665 0.0682 0.0
H1617 H 0.36182 0.07071 0.03058 0.0
H1618 H 0.32487 0.07101 1.00319 0.0
H1619 H 0.26877 0.07068 0.9899 0.0
H1620 H 0.18468 0.07522 0.02738 0.0
H1621 H 0.22169 0.07796 0.0548 0.0
C1622 C 0.28826 0.07522 0.05404 0.0
C1623 C 0.3229 0.07335 0.05161 0.0
C1624 C 0.26675 0.07516 0.03829 0.0
C1625 C 0.33551 0.07236 0.03302 0.0
C1626 C 0.31429 0.07234 1.0173 0.0
C1627 C 0.25838 0.07205 1.00404 0.0
C1628 C 0.22371 0.07233 1.00646 0.0
C1629 C 0.27987 0.07334 1.01977 0.0
C1630 C 0.21106 0.07508 1.02498 0.0
C1631 C 0.23229 0.07644 0.0407 0.0
H1632 H 0.82965 1.00917 0.7371 0.0
H1633 H 0.82368 0.9238 0.77346 0.0
H1634 H 0.82362 0.95982 0.80144 0.0
H1635 H 0.82228 1.01569 0.81542 0.0
H1636 H 0.82712 0.10097 0.77891 0.0
H1637 H 0.83072 0.06485 0.75111 0.0
C1638 C 0.82819 0.99836 0.75112 0.0
C1639 C 0.82622 0.96368 0.7531 0.0
C1640 C 0.8279 0.01927 0.76711 0.0
C1641 C 0.8253 0.95026 0.77147 0.0
C1642 C 0.82506 0.97091 0.78747 0.0
C1643 C 0.82396 0.02645 0.80139 0.0
C1644 C 0.82402 0.06118 0.79931 0.0
C1645 C 0.82582 1.00547 0.78545 0.0
C1646 C 0.82713 0.07449 0.78099 0.0
C1647 C 0.829 0.05379 0.76507 0.0
H1648 H 0.7768 0.10912 0.49252 0.0
H1649 H 0.85521 0.0586 0.52192 0.0
H1650 H 0.81767 0.04715 0.54841 0.0
H1651 H 0.76335 0.05381 0.56383 0.0
H1652 H 0.68589 0.10645 0.5347 0.0
H1653 H 0.72233 0.11453 0.5075 0.0
C1654 C 0.78597 0.09583 0.50475 0.0
C1655 C 0.81925 0.08521 0.50521 0.0
C1656 C 0.7643 0.08969 0.52003 0.0
C1657 C 0.82994 0.06708 0.52105 0.0
C1658 C 0.80844 0.06069 0.53628 0.0
C1659 C 0.75431 0.06728 0.55164 0.0
C1660 C 0.72164 0.07981 0.55163 0.0
C1661 C 0.77568 0.07229 0.53604 0.0
C1662 C 0.71056 0.09636 0.5353 0.0
C1663 C 0.73157 0.10118 0.51971 0.0
H1664 H 0.71259 0.02851 0.23786 0.0
H1665 H 0.70989 0.10999 0.27738 0.0
H1666 H 0.70942 0.07116 0.3039 0.0
H1667 H 0.71149 1.0142 0.31598 0.0
H1668 H 0.71551 0.93263 0.27659 0.0
H1669 H 0.71357 0.97136 0.24998 0.0
C1670 C 0.71214 0.03793 0.25225 0.0
C1671 C 0.71155 0.07246 0.25547 0.0
C1672 C 0.71208 1.01535 0.26752 0.0
C1673 C 0.71015 0.08379 0.27433 0.0
C1674 C 0.71007 0.06151 0.28956 0.0
C1675 C 0.71221 1.00473 0.30161 0.0
C1676 C 0.71399 0.97024 0.29844 0.0
C1677 C 0.71133 0.02724 0.28634 0.0
C1678 C 0.71398 0.9588 0.27958 0.0
C1679 C 0.71307 0.98104 0.26432 0.0
H1680 H 0.76403 0.98117 0.98859 0.0
H1681 H 0.67959 0.95469 1.0228 0.0
H1682 H 0.71495 0.95065 0.05067 0.0
H1683 H 0.76918 0.95648 0.06562 0.0
H1684 H 0.85324 0.98603 0.03202 0.0
H1685 H 0.81861 0.98669 1.0036 0.0
C1686 C 0.75309 0.9748 1.00211 0.0
C1687 C 0.71877 0.96851 1.0034 0.0
C1688 C 0.77359 0.97299 1.01825 0.0
C1689 C 0.70569 0.95947 1.02115 0.0
C1690 C 0.72596 0.95732 0.03719 0.0
C1691 C 0.78008 0.96343 0.05218 0.0
C1692 C 0.81398 0.97164 0.05119 0.0
C1693 C 0.75985 0.96436 0.03595 0.0
C1694 C 0.82746 0.97948 0.03335 0.0
C1695 C 0.80753 0.98007 1.01707 0.0
H1696 H 0.71198 0.52107 0.81998 0.0
H1697 H 0.71497 0.6058 0.78281 0.0
H1698 H 0.71435 0.56944 0.75531 0.0
H1699 H 0.71457 0.51395 0.7416 0.0
H1700 H 0.7146 0.42866 0.77823 0.0
H1701 H 0.71207 0.46494 0.80605 0.0
C1702 C 0.71274 0.53176 0.80593 0.0
C1703 C 0.71359 0.56656 0.80374 0.0
C1704 C 0.71284 0.51052 0.78997 0.0
C1705 C 0.71394 0.57945 0.7852 0.0
C1706 C 0.71378 0.55855 0.76935 0.0
C1707 C 0.71437 0.50306 0.75562 0.0
C1708 C 0.71521 0.46831 0.75764 0.0
C1709 C 0.7135 0.52409 0.77156 0.0
C1710 C 0.71386 0.4551 0.77608 0.0
C1711 C 0.71263 0.47594 0.79205 0.0
H1712 H 0.7662 0.45747 0.98966 0.0
H1713 H 0.84817 0.44754 0.02823 0.0
H1714 H 0.80968 0.44238 0.05487 0.0
H1715 H 0.75274 0.44273 0.06739 0.0
H1716 H 0.67099 0.454 0.02875 0.0
H1717 H 0.70941 0.45648 1.00204 0.0
C1718 C 0.77583 0.45442 1.00388 0.0
C1719 C 0.81036 0.45329 1.00682 0.0
C1720 C 0.75347 0.45169 1.01918 0.0
C1721 C 0.82195 0.44839 1.02541 0.0
C1722 C 0.79985 0.44562 0.0407 0.0
C1723 C 0.74318 0.44593 0.05317 0.0
C1724 C 0.70869 0.44844 0.05027 0.0
C1725 C 0.76556 0.44759 0.0378 0.0
C1726 C 0.69714 0.45178 0.03155 0.0
C1727 C 0.71921 0.4534 1.01623 0.0
H1728 H 0.8132 0.52241 0.23394 0.0
H1729 H 0.83584 0.61008 0.2664 0.0
H1730 H 0.83856 0.57697 0.2953 0.0
H1731 H 0.83561 0.52331 0.31124 0.0
H1732 H 0.81247 0.4355 0.2791 0.0
H1733 H 0.81043 0.46843 0.24998 0.0
C1734 C 0.81906 0.53443 0.24724 0.0
C1735 C 0.82445 0.56901 0.24778 0.0
C1736 C 0.82095 0.51509 0.26385 0.0
C1737 C 0.83126 0.58381 0.26541 0.0
C1738 C 0.83308 0.56476 0.28197 0.0
C1739 C 0.82974 0.5112 0.29796 0.0
C1740 C 0.82385 0.47673 0.29756 0.0
C1741 C 0.82805 0.53041 0.28135 0.0
C1742 C 0.81731 0.46175 0.27996 0.0
C1743 C 0.81587 0.48069 0.2633 0.0
H1744 H 0.75541 0.58177 0.48323 0.0
H1745 H 0.67264 0.57144 0.52131 0.0
H1746 H 0.71033 0.56817 0.54829 0.0
H1747 H 0.76678 0.56615 0.56101 0.0
H1748 H 0.84983 0.57601 0.52316 0.0
H1749 H 0.81211 0.58176 0.49619 0.0
C1750 C 0.74555 0.57866 0.4974 0.0
C1751 C 0.71101 0.57661 0.50011 0.0
C1752 C 0.76749 0.5767 0.51292 0.0
C1753 C 0.6989 0.57332 0.51872 0.0
C1754 C 0.72053 0.57125 0.53417 0.0
C1755 C 0.77674 0.56936 0.54687 0.0
C1756 C 0.8113 0.57022 0.54416 0.0
C1757 C 0.75486 0.57256 0.53143 0.0
C1758 C 0.8235 0.57533 0.52572 0.0
C1759 C 0.80188 0.57844 0.51027 0.0
H1760 H 0.33353 0.52106 0.31711 0.0
H1761 H 0.32374 0.60393 0.27909 0.0
H1762 H 0.32521 0.56641 0.2519 0.0
H1763 H 0.32725 0.50989 0.23887 0.0
H1764 H 0.33488 0.42699 0.27708 0.0
H1765 H 0.33645 0.46472 0.30409 0.0
C1766 C 0.33145 0.53108 0.30293 0.0
C1767 C 0.32824 0.5656 0.30035 0.0
C1768 C 0.33199 0.50924 0.28728 0.0
C1769 C 0.32644 0.57774 0.28168 0.0
C1770 C 0.32709 0.55618 0.26606 0.0
C1771 C 0.32909 0.49988 0.25307 0.0
C1772 C 0.33077 0.46525 0.25572 0.0
C1773 C 0.32953 0.52183 0.26868 0.0
C1774 C 0.33385 0.45326 0.27438 0.0
C1775 C 0.33451 0.47493 0.28992 0.0
H1776 H 0.2725 0.54451 0.98584 0.0
H1777 H 0.34086 0.616 1.00888 0.0
H1778 H 0.30479 0.62422 0.03609 0.0
H1779 H 0.25437 0.61096 0.0537 0.0
H1780 H 0.18551 0.53982 0.03116 0.0
H1781 H 0.22064 0.53268 1.00307 0.0
C1782 C 0.27952 0.56219 0.99663 0.0
C1783 C 0.30988 0.57942 0.99509 0.0
C1784 C 0.25834 0.56712 1.01234 0.0
C1785 C 0.31824 0.60189 1.00958 0.0
C1786 C 0.29739 0.60683 1.02518 0.0
C1787 C 0.24699 0.59371 0.04273 0.0
C1788 C 0.21733 0.57565 0.04477 0.0
C1789 C 0.26752 0.58945 1.02678 0.0
C1790 C 0.20799 0.55415 0.03003 0.0
C1791 C 0.22827 0.54989 1.01402 0.0
H1792 H 0.20192 0.52123 0.73306 0.0
H1793 H 0.20672 0.60565 0.7704 0.0
H1794 H 0.20491 0.56908 0.79794 0.0
H1795 H 0.20408 0.51314 0.81148 0.0
H1796 H 0.20024 0.42846 0.77435 0.0
H1797 H 0.19933 0.46509 0.74671 0.0
C1798 C 0.20276 0.53172 0.7472 0.0
C1799 C 0.20474 0.56639 0.74952 0.0
C1800 C 0.20185 0.51042 0.76305 0.0
C1801 C 0.205 0.57929 0.76806 0.0
C1802 C 0.20415 0.5583 0.78386 0.0
C1803 C 0.20324 0.50257 0.79736 0.0
C1804 C 0.20262 0.46786 0.7951 0.0
C1805 C 0.20293 0.52383 0.78153 0.0
C1806 C 0.20061 0.45491 0.77661 0.0
C1807 C 0.2003 0.47591 0.76077 0.0
H1808 H 0.27575 0.46563 0.57144 0.0
H1809 H 0.36118 0.46798 0.53487 0.0
H1810 H 0.32536 0.46596 0.50701 0.0
H1811 H 0.26985 0.46512 0.49295 0.0
H1812 H 0.18423 0.46392 0.52937 0.0
H1813 H 0.22007 0.46371 0.55731 0.0
C1814 C 0.28665 0.46593 0.55741 0.0
C1815 C 0.32139 0.4672 0.5554 0.0
C1816 C 0.2658 0.46493 0.54137 0.0
C1817 C 0.33475 0.46678 0.53698 0.0
C1818 C 0.3142 0.46581 0.52099 0.0
C1819 C 0.25887 0.46507 0.50696 0.0
C1820 C 0.22412 0.46486 0.50891 0.0
C1821 C 0.27969 0.46516 0.523 0.0
C1822 C 0.2107 0.46391 0.52732 0.0
C1823 C 0.23126 0.46399 0.54334 0.0
H1824 H 0.43904 0.08144 0.40621 0.0
H1825 H 0.38536 0.09005 0.45894 0.0
H1826 H 0.3498 0.13162 0.44507 0.0
H1827 H 0.32645 0.15391 0.41673 0.0
H1828 H 0.37972 0.14844 0.36345 0.0
H1829 H 0.42251 0.11631 0.37894 0.0
C1830 C 0.42016 0.09322 0.41478 0.0
C1831 C 0.41445 0.08216 0.43345 0.0
C1832 C 0.39895 0.11653 0.40652 0.0
C1833 C 0.39039 0.09802 0.44456 0.0
C1834 C 0.36966 0.12152 0.43654 0.0
C1835 C 0.3476 0.14726 0.40823 0.0
C1836 C 0.34825 0.15271 0.38842 0.0
C1837 C 0.37253 0.12936 0.41725 0.0
C1838 C 0.37693 0.14326 0.3784 0.0
C1839 C 0.40186 0.1251 0.38732 0.0
H1840 H 0.1853 0.15517 0.65551 0.0
H1841 H 0.17233 0.09279 0.70443 0.0
H1842 H 0.13023 0.06091 0.68762 0.0
H1843 H 0.10814 0.04396 0.65737 0.0
H1844 H 0.11904 0.10671 0.60804 0.0
H1845 H 0.15159 0.14534 0.62683 0.0
C1846 C 0.17223 0.13535 0.66265 0.0
C1847 C 0.18188 0.12589 0.68101 0.0
C1848 C 0.14871 0.11672 0.65272 0.0
C1849 C 0.16506 0.10038 0.6903 0.0
C1850 C 0.14134 0.08198 0.68061 0.0
C1851 C 0.11608 0.06658 0.6506 0.0
C1852 C 0.11177 0.07142 0.63089 0.0
C1853 C 0.13444 0.08886 0.66149 0.0
C1854 C 0.12301 0.10125 0.62288 0.0
C1855 C 0.14147 0.12361 0.63368 0.0
H1856 H 0.10769 0.94091 0.90469 0.0
H1857 H 0.1662 0.93409 0.95568 0.0
H1858 H 0.20043 0.8919 0.94106 0.0
H1859 H 0.22077 0.86775 0.9122 0.0
H1860 H 0.16262 0.87189 0.86074 0.0
H1861 H 0.1216 0.90523 0.87724 0.0
C1862 C 0.12736 0.92941 0.91275 0.0
C1863 C 0.13473 0.94102 0.93112 0.0
C1864 C 0.14767 0.9057 0.90404 0.0
C1865 C 0.15989 0.92563 0.94156 0.0
C1866 C 0.17981 0.90177 0.9331 0.0
C1867 C 0.19874 0.87435 0.90446 0.0
C1868 C 0.19594 0.86787 0.88481 0.0
C1869 C 0.17499 0.89307 0.91404 0.0
C1870 C 0.16667 0.87755 0.87556 0.0
C1871 C 0.14287 0.89645 0.88505 0.0
H1872 H 0.3385 0.87275 0.15607 0.0
H1873 H 0.3604 0.93084 0.20574 0.0
H1874 H 0.40568 0.95807 0.18889 0.0
H1875 H 0.42894 0.97355 0.15855 0.0
H1876 H 0.40769 0.9157 0.10832 0.0
H1877 H 0.37188 0.87996 0.12705 0.0
C1878 C 0.3541 0.89051 0.16333 0.0
C1879 C 0.34624 0.90023 0.18194 0.0
C1880 C 0.37935 0.9066 0.15338 0.0
C1881 C 0.36628 0.9231 0.19141 0.0
C1882 C 0.39184 0.93885 0.1817 0.0
C1883 C 0.41785 0.95244 0.15158 0.0
C1884 C 0.42038 0.94831 0.13172 0.0
C1885 C 0.39728 0.93205 0.16239 0.0
C1886 C 0.40528 0.92055 0.12336 0.0
C1887 C 0.38489 0.8999 0.1341 0.0
H1888 H 0.61494 0.94548 0.65403 0.0
H1889 H 0.65771 0.92068 0.59972 0.0
H1890 H 0.68725 0.87481 0.61411 0.0
H1891 H 0.71203 0.85225 0.64294 0.0
H1892 H 0.67823 0.88658 0.69766 0.0
H1893 H 0.63379 0.91689 0.68253 0.0
C1894 C 0.63039 0.92975 0.64528 0.0
C1895 C 0.63508 0.93738 0.62598 0.0
C1896 C 0.64943 0.90516 0.6539 0.0
C1897 C 0.65386 0.91578 0.61465 0.0
C1898 C 0.67114 0.88969 0.62294 0.0
C1899 C 0.69465 0.866 0.65159 0.0
C1900 C 0.69941 0.86814 0.67136 0.0
C1901 C 0.67093 0.8858 0.64272 0.0
C1902 C 0.67565 0.88465 0.68242 0.0
C1903 C 0.65037 0.90247 0.67373 0.0
H1904 H 0.80126 0.86307 0.40582 0.0
H1905 H 0.87184 0.88172 0.36112 0.0
H1906 H 0.90475 0.91526 0.38299 0.0
H1907 H 0.90766 0.94673 0.41301 0.0
H1908 H 0.83404 0.93084 0.45617 0.0
H1909 H 0.80858 0.88746 0.43688 0.0
C1910 C 0.82447 0.87326 0.4009 0.0
C1911 C 0.83384 0.87001 0.38171 0.0
C1912 C 0.84261 0.89312 0.41333 0.0
C1913 C 0.86373 0.88422 0.37569 0.0
C1914 C 0.88255 0.90338 0.3882 0.0
C1915 C 0.88678 0.93278 0.41838 0.0
C1916 C 0.87269 0.94145 0.43592 0.0
C1917 C 0.87142 0.90914 0.4068 0.0
C1918 C 0.84527 0.92408 0.44275 0.0
C1919 C 0.83063 0.89961 0.43166 0.0
H1920 H 0.80248 0.18568 0.14551 0.0
H1921 H 0.86314 0.17989 0.19597 0.0
H1922 H 0.90489 0.15012 0.17794 0.0
H1923 H 0.91774 0.11585 0.14983 0.0
H1924 H 0.85644 0.12308 0.10005 0.0
H1925 H 0.82236 0.16457 0.11572 0.0
C1926 C 0.82516 0.17954 0.15274 0.0
C1927 C 0.82848 0.18409 0.17255 0.0
C1928 C 0.8492 0.16271 0.1423 0.0
C1929 C 0.8587 0.1754 0.18106 0.0
C1930 C 0.8829 0.15858 0.17069 0.0
C1931 C 0.89766 0.12757 0.14222 0.0
C1932 C 0.88904 0.11608 0.12403 0.0
C1933 C 0.87743 0.15045 0.1516 0.0
C1934 C 0.8634 0.13153 0.11409 0.0
C1935 C 0.84364 0.15488 0.12316 0.0
H1936 H 0.60761 0.08191 0.89404 0.0
H1937 H 0.6439 0.11029 0.94934 0.0
H1938 H 0.67597 0.15445 0.93514 0.0
H1939 H 0.70445 0.17502 0.90694 0.0
H1940 H 0.67643 0.13823 0.8517 0.0
H1941 H 0.63044 0.10843 0.86574 0.0
C1942 C 0.6222 0.09802 0.90304 0.0
C1943 C 0.6241 0.09184 0.92268 0.0
C1944 C 0.64274 0.12178 0.89466 0.0
C1945 C 0.64193 0.11401 0.93418 0.0
C1946 C 0.66077 0.13915 0.92603 0.0
C1947 C 0.68799 0.16086 0.89792 0.0
C1948 C 0.69471 0.15806 0.87837 0.0
C1949 C 0.66309 0.14168 0.90624 0.0
C1950 C 0.67224 0.14079 0.8668 0.0
C1951 C 0.64606 0.12329 0.87487 0.0
H1952 H 0.92556 0.58257 0.90345 0.0
H1953 H 0.86528 0.5874 0.95395 0.0
H1954 H 0.83065 0.62902 0.93933 0.0
H1955 H 0.81153 0.65498 0.91075 0.0
H1956 H 0.8714 0.65309 0.85988 0.0
H1957 H 0.91168 0.61848 0.87612 0.0
C1958 C 0.9053 0.59338 0.91137 0.0
C1959 C 0.89788 0.58162 0.9297 0.0
C1960 C 0.88484 0.61697 0.9027 0.0
C1961 C 0.87181 0.59609 0.93991 0.0
C1962 C 0.85166 0.61966 0.93146 0.0
C1963 C 0.83384 0.64852 0.90316 0.0
C1964 C 0.83759 0.65641 0.88378 0.0
C1965 C 0.85711 0.6291 0.91261 0.0
C1966 C 0.86689 0.64664 0.87455 0.0
C1967 C 0.89019 0.62697 0.88388 0.0
H1968 H 0.60626 0.54781 0.1569 0.0
H1969 H 0.61257 0.60552 0.10535 0.0
H1970 H 0.64435 0.64733 0.12227 0.0
H1971 H 0.67915 0.66119 0.14991 0.0
H1972 H 0.67144 0.60308 0.20092 0.0
H1973 H 0.62916 0.56864 0.18614 0.0
C1974 C 0.613 0.56998 0.14927 0.0
C1975 C 0.60768 0.57257 0.12951 0.0
C1976 C 0.63099 0.59401 0.15907 0.0
C1977 C 0.61738 0.60186 0.1203 0.0
C1978 C 0.63537 0.62603 0.13002 0.0
C1979 C 0.66719 0.64172 0.15796 0.0
C1980 C 0.67855 0.63415 0.1763 0.0
C1981 C 0.64377 0.6214 0.14913 0.0
C1982 C 0.66297 0.60923 0.18678 0.0
C1983 C 0.63917 0.5893 0.17823 0.0
H1984 H 0.60514 0.48502 0.39196 0.0
H1985 H 0.61217 0.42557 0.44283 0.0
H1986 H 0.64628 0.38597 0.42574 0.0
H1987 H 0.68332 0.37539 0.3985 0.0
H1988 H 0.67442 0.43486 0.34809 0.0
H1989 H 0.62982 0.46638 0.36274 0.0
C1990 C 0.61256 0.46294 0.39943 0.0
C1991 C 0.60699 0.45952 0.41913 0.0
C1992 C 0.63193 0.44013 0.38952 0.0
C1993 C 0.61732 0.43012 0.428 0.0
C1994 C 0.63668 0.40717 0.41817 0.0
C1995 C 0.67062 0.39444 0.39053 0.0
C1996 C 0.68229 0.40335 0.37244 0.0
C1997 C 0.6457 0.41304 0.39926 0.0
C1998 C 0.66575 0.42772 0.36205 0.0
C1999 C 0.64058 0.44598 0.37052 0.0
H2000 H 0.93009 0.46513 0.65902 0.0
H2001 H 0.89841 0.42101 0.60624 0.0
H2002 H 0.87324 0.37564 0.62354 0.0
H2003 H 0.84768 0.3573 0.65313 0.0
H2004 H 0.86913 0.40917 0.70525 0.0
H2005 H 0.91116 0.44159 0.68908 0.0
C2006 C 0.91803 0.44537 0.65127 0.0
C2007 C 0.91513 0.4473 0.63138 0.0
C2008 C 0.90119 0.42075 0.66134 0.0
C2009 C 0.90086 0.42061 0.62153 0.0
C2010 C 0.88602 0.39472 0.63146 0.0
C2011 C 0.86193 0.37536 0.66103 0.0
C2012 C 0.85427 0.38164 0.6802 0.0
C2013 C 0.88401 0.39591 0.65131 0.0
C2014 C 0.87407 0.40395 0.69045 0.0
C2015 C 0.89788 0.42291 0.68112 0.0
H2016 H 0.11919 0.44413 0.15031 0.0
H2017 H 0.17678 0.41861 0.10101 0.0
H2018 H 0.20498 0.3755 0.11901 0.0
H2019 H 0.22171 0.35612 0.14981 0.0
H2020 H 0.16414 0.38016 0.19977 0.0
H2021 H 0.12747 0.4135 0.18024 0.0
C2022 C 0.13703 0.42814 0.1434 0.0
C2023 C 0.14639 0.43453 0.12453 0.0
C2024 C 0.15377 0.40418 0.15401 0.0
C2025 C 0.16929 0.41391 0.11552 0.0
C2026 C 0.18565 0.38962 0.12589 0.0
C2027 C 0.20052 0.36713 0.15667 0.0
C2028 C 0.19681 0.36621 0.17663 0.0
C2029 C 0.1794 0.38602 0.14539 0.0
C2030 C 0.16882 0.38139 0.18467 0.0
C2031 C 0.14757 0.40033 0.17347 0.0
H2032 H 0.40023 0.41773 0.92058 0.0
H2033 H 0.39733 0.4925 0.87662 0.0
H2034 H 0.36936 0.45511 0.85585 0.0
H2035 H 0.33435 0.40709 0.85231 0.0
H2036 H 0.32692 0.33635 0.89766 0.0
H2037 H 0.36953 0.36605 0.91555 0.0
C2038 C 0.39358 0.42605 0.9065 0.0
C2039 C 0.40101 0.45857 0.90069 0.0
C2040 C 0.37492 0.40506 0.89474 0.0
C2041 C 0.39299 0.46787 0.88191 0.0
C2042 C 0.37629 0.44648 0.86984 0.0
C2043 C 0.3431 0.39742 0.86575 0.0
C2044 C 0.32771 0.36973 0.87371 0.0
C2045 C 0.36569 0.41578 0.87642 0.0
C2046 C 0.33866 0.35769 0.8913 0.0
C2047 C 0.36269 0.37488 0.90159 0.0
H2048 H 0.31041 0.6598 0.64237 0.0
H2049 H 0.36484 0.66488 0.6951 0.0
H2050 H 0.41012 0.63458 0.68037 0.0
H2051 H 0.4299 0.59925 0.65397 0.0
H2052 H 0.37438 0.59664 0.60169 0.0
H2053 H 0.33506 0.63573 0.61461 0.0
C2054 C 0.33244 0.65588 0.65071 0.0
C2055 C 0.33328 0.66416 0.67017 0.0
C2056 C 0.35856 0.63894 0.64214 0.0
C2057 C 0.36253 0.65782 0.68035 0.0
C2058 C 0.3887 0.64068 0.67188 0.0
C2059 C 0.40965 0.60797 0.64526 0.0
C2060 C 0.4049 0.59458 0.62699 0.0
C2061 C 0.3863 0.62984 0.65301 0.0
C2062 C 0.3789 0.60653 0.61574 0.0
C2063 C 0.35601 0.6286 0.62323 0.0
H2064 H 0.22407 0.65685 0.40901 0.0
H2065 H 0.16724 0.64972 0.35717 0.0
H2066 H 0.12637 0.61623 0.37369 0.0
H2067 H 0.11164 0.58218 0.40166 0.0
H2068 H 0.16839 0.59265 0.45313 0.0
H2069 H 0.20321 0.63379 0.43802 0.0
C2070 C 0.20233 0.64954 0.40118 0.0
C2071 C 0.19979 0.65543 0.38148 0.0
C2072 C 0.17857 0.63089 0.41079 0.0
C2073 C 0.17102 0.64466 0.37207 0.0
C2074 C 0.14731 0.62567 0.38157 0.0
C2075 C 0.13108 0.59421 0.40968 0.0
C2076 C 0.13769 0.58405 0.4284 0.0
C2077 C 0.15163 0.61746 0.40074 0.0
C2078 C 0.16262 0.60007 0.43875 0.0
C2079 C 0.18287 0.62333 0.43003 0.0
H2080 H 0.2601 0.32771 0.27868 0.0
H2081 H 0.33964 0.27342 0.25244 0.0
H2082 H 0.32154 0.22306 0.26848 0.0
H2083 H 0.28246 0.19403 0.28946 0.0
H2084 H 0.20433 0.24874 0.31674 0.0
H2085 H 0.22245 0.2992 0.30072 0.0
C2086 C 0.2738 0.30499 0.2766 0.0
C2087 C 0.30107 0.30446 0.26411 0.0
C2088 C 0.26322 0.27603 0.28591 0.0
C2089 C 0.31833 0.27462 0.26169 0.0
C2090 C 0.30796 0.24574 0.27088 0.0
C2091 C 0.26914 0.2169 0.29176 0.0
C2092 C 0.2417 0.21739 0.30412 0.0
C2093 C 0.28016 0.24603 0.28281 0.0
C2094 C 0.2253 0.24751 0.30722 0.0
C2095 C 0.23577 0.27644 0.29811 0.0
H2096 H 1.00355 1.00699 0.55685 0.0
H2097 H 0.09002 0.96737 0.5292 0.0
H2098 H 0.07358 0.99435 0.49951 0.0
H2099 H 0.03472 0.02938 0.48155 0.0
H2100 H 0.94791 0.0679 0.50943 0.0
H2101 H 0.96485 0.04148 0.53904 0.0
C2102 C 0.01892 1.00406 0.54435 0.0
C2103 C 0.04809 0.98497 0.54535 0.0
C2104 C 1.0094 0.01977 0.52742 0.0
C2105 C 0.06742 0.98161 0.5289 0.0
C2106 C 0.05808 0.99723 0.51194 0.0
C2107 C 0.01956 0.03233 0.49412 0.0
C2108 C 0.99007 0.05101 0.49319 0.0
C2109 C 0.02919 0.01651 0.51107 0.0
C2110 C 0.97074 0.05401 0.50966 0.0
C2111 C 0.98037 0.03873 0.5266 0.0
H2112 H 0.26198 0.75757 0.81477 0.0
H2113 H 0.31714 0.83427 0.78636 0.0
H2114 H 0.29693 0.81418 0.75567 0.0
H2115 H 0.26366 0.77505 0.73701 0.0
H2116 H 0.20853 0.69832 0.76542 0.0
H2117 H 0.2286 0.71852 0.79612 0.0
C2118 C 0.26977 0.76997 0.8019 0.0
C2119 C 0.2913 0.79748 0.80298 0.0
C2120 C 0.25789 0.75837 0.78432 0.0
C2121 C 0.30082 0.81308 0.78605 0.0
C2122 C 0.28916 0.8016 0.76848 0.0
C2123 C 0.25583 0.76267 0.74988 0.0
C2124 C 0.23438 0.73511 0.7488 0.0
C2125 C 0.26765 0.77432 0.76746 0.0
C2126 C 0.22478 0.71957 0.76574 0.0
C2127 C 0.23637 0.7311 0.78331 0.0
H2128 H 0.53477 0.02381 0.06334 0.0
H2129 H 0.45047 0.06832 0.03609 0.0
H2130 H 0.46736 0.04379 1.00575 0.0
H2131 H 0.50575 1.00914 0.98714 0.0
H2132 H 0.58994 0.965 1.01473 0.0
H2133 H 0.57296 0.98962 0.0449 0.0
C2134 C 0.52003 0.02841 0.05078 0.0
C2135 C 0.49133 0.04812 0.05208 0.0
C2136 C 0.52969 1.01393 0.03349 0.0
C2137 C 0.47273 0.05356 0.03556 0.0
C2138 C 0.48231 0.03933 1.01822 0.0
C2139 C 0.52033 1.00463 0.99975 0.0
C2140 C 0.54909 0.98492 0.99859 0.0
C2141 C 0.51063 0.01928 1.01705 0.0
C2142 C 0.56768 0.97977 1.01514 0.0
C2143 C 0.55803 0.99402 0.0324 0.0
H2144 H 0.2659 0.75757 0.234 0.0
H2145 H 0.20836 0.83227 0.2627 0.0
H2146 H 0.22647 0.8106 0.29337 0.0
H2147 H 0.25967 0.77164 0.31192 0.0
H2148 H 0.31812 0.69757 0.28333 0.0
H2149 H 0.29872 0.71815 0.25261 0.0
C2150 C 0.25705 0.7691 0.24693 0.0
C2151 C 0.23561 0.79661 0.24594 0.0
C2152 C 0.26798 0.7568 0.26451 0.0
C2153 C 0.22467 0.81109 0.26295 0.0
C2154 C 0.23516 0.79876 0.28051 0.0
C2155 C 0.26829 0.75987 0.299 0.0
C2156 C 0.29055 0.73305 0.30001 0.0
C2157 C 0.25702 0.77184 0.28144 0.0
C2158 C 0.30122 0.71827 0.28304 0.0
C2159 C 0.29003 0.73001 0.26547 0.0
H2160 H 0.50153 0.04379 0.56269 0.0
H2161 H 0.60082 0.04923 0.54074 0.0
H2162 H 0.58512 1.01379 0.51407 0.0
H2163 H 0.54301 0.98235 0.49654 0.0
H2164 H 0.44395 0.97558 0.5187 0.0
H2165 H 0.45996 1.00973 0.54592 0.0
C2166 C 0.51972 0.03748 0.55199 0.0
C2167 C 0.55228 0.04977 0.55361 0.0
C2168 C 0.51065 0.01641 0.53685 0.0
C2169 C 0.57558 0.04054 0.53981 0.0
C2170 C 0.56662 0.02011 0.52457 0.0
C2171 C 0.52491 0.98797 0.50741 0.0
C2172 C 0.4922 0.97626 0.50545 0.0
C2173 C 0.53423 1.00795 0.52293 0.0
C2174 C 0.46929 0.98387 0.51981 0.0
C2175 C 0.4784 1.00374 0.53532 0.0
H2176 H 0.24439 0.25301 0.81225 0.0
H2177 H 0.20055 0.33552 0.78285 0.0
H2178 H 0.22498 0.3162 0.75303 0.0
H2179 H 0.25874 0.27616 0.73535 0.0
H2180 H 0.30283 0.19368 0.76464 0.0
H2181 H 0.27877 0.21319 0.79456 0.0
C2182 C 0.2399 0.26678 0.79933 0.0
C2183 C 0.22025 0.29571 0.7999 0.0
C2184 C 0.25444 0.25573 0.78225 0.0
C2185 C 0.2152 0.31315 0.78293 0.0
C2186 C 0.22936 0.30216 0.76586 0.0
C2187 C 0.26336 0.26239 0.74826 0.0
C2188 C 0.28281 0.23334 0.74761 0.0
C2189 C 0.2491 0.27357 0.76537 0.0
C2190 C 0.28829 0.21612 0.76461 0.0
C2191 C 0.27431 0.2272 0.78173 0.0
H2192 H 0.02695 0.02844 0.06899 0.0
H2193 H 0.94511 0.97976 0.04144 0.0
H2194 H 0.96657 0.99696 1.01046 0.0
H2195 H 1.00799 0.02658 0.99132 0.0
H2196 H 0.08968 0.07526 1.01904 0.0
H2197 H 0.06845 0.05757 0.04993 0.0
C2198 C 1.01374 0.02136 0.05624 0.0
C2199 C 0.98433 1.00267 0.05765 0.0
C2200 C 0.02604 0.03165 0.03852 0.0
C2201 C 0.96778 0.9939 0.04087 0.0
C2202 C 0.98 1.00391 1.02314 0.0
C2203 C 0.02119 0.03352 1.00409 0.0
C2204 C 0.05045 0.05249 1.00276 0.0
C2205 C 1.00897 0.02299 1.02181 0.0
C2206 C 0.06711 0.06093 1.01955 0.0
C2207 C 0.05501 0.05068 0.03724 0.0
H2208 H 0.78068 0.75058 0.73569 0.0
H2209 H 0.82992 0.83164 0.76382 0.0
H2210 H 0.80836 0.81274 0.79435 0.0
H2211 H 0.77504 0.77406 0.81291 0.0
H2212 H 0.72491 0.69329 0.7851 0.0
H2213 H 0.74714 0.71156 0.75445 0.0
C2214 C 0.78695 0.76407 0.74849 0.0
C2215 C 0.80715 0.79252 0.74739 0.0
C2216 C 0.77406 0.7533 0.766 0.0
C2217 C 0.81465 0.80967 0.76418 0.0
C2218 C 0.8022 0.79892 0.78165 0.0
C2219 C 0.76882 0.76033 0.80018 0.0
C2220 C 0.74816 0.73226 0.80138 0.0
C2221 C 0.78175 0.77092 0.7827 0.0
C2222 C 0.74053 0.715 0.78464 0.0
C2223 C 0.75337 0.7254 0.76713 0.0
H2224 H 0.76673 0.26627 0.32199 0.0
H2225 H 0.81871 0.34386 0.29241 0.0
H2226 H 0.79785 0.32283 0.26214 0.0
H2227 H 0.76387 0.28356 0.24419 0.0
H2228 H 0.71135 0.20611 0.27354 0.0
H2229 H 0.73326 0.22626 0.30387 0.0
C2230 C 0.77378 0.27855 0.30894 0.0
C2231 C 0.79448 0.30673 0.30959 0.0
C2232 C 0.76131 0.26653 0.29157 0.0
C2233 C 0.80307 0.32216 0.29244 0.0
C2234 C 0.79098 0.31019 0.2751 0.0
C2235 C 0.75702 0.27098 0.25719 0.0
C2236 C 0.73567 0.24333 0.25649 0.0
C2237 C 0.76985 0.28261 0.27452 0.0
C2238 C 0.72746 0.22747 0.27358 0.0
C2239 C 0.74011 0.23896 0.29093 0.0
H2240 H 0.80271 0.28368 0.81291 0.0
H2241 H 0.79897 0.18376 0.79168 0.0
H2242 H 0.76685 0.20241 0.76427 0.0
H2243 H 0.73735 0.24689 0.7471 0.0
H2244 H 0.74334 0.347 0.76787 0.0
H2245 H 0.77662 0.32844 0.79477 0.0
C2246 C 0.79524 0.26597 0.80218 0.0
C2247 C 0.80329 0.23228 0.80445 0.0
C2248 C 0.77663 0.27687 0.78651 0.0
C2249 C 0.79346 0.20982 0.79029 0.0
C2250 C 0.77476 0.22046 0.77469 0.0
C2251 C 0.74574 0.26461 0.7576 0.0
C2252 C 0.73729 0.29828 0.75564 0.0
C2253 C 0.76567 0.25384 0.77282 0.0
C2254 C 0.74914 0.32097 0.76912 0.0
C2255 C 0.7683 0.31036 0.78447 0.0
H2256 H 0.76417 0.75789 0.30756 0.0
H2257 H 0.71009 0.83723 0.28105 0.0
H2258 H 0.72865 0.81801 0.24979 0.0
H2259 H 0.7599 0.77862 0.2301 0.0
H2260 H 0.81389 0.69935 0.25675 0.0
H2261 H 0.79596 0.71907 0.28797 0.0
C2262 C 0.75622 0.77106 0.29498 0.0
C2263 C 0.73543 0.79899 0.29676 0.0
C2264 C 0.76723 0.76003 0.2771 0.0
C2265 C 0.72579 0.81563 0.2802 0.0
C2266 C 0.73654 0.80469 0.26231 0.0
C2267 C 0.76799 0.76563 0.2427 0.0
C2268 C 0.78838 0.73739 0.24095 0.0
C2269 C 0.75727 0.77693 0.26061 0.0
C2270 C 0.79842 0.72111 0.25756 0.0
C2271 C 0.788 0.73233 0.27543 0.0
H2272 H 0.45501 0.48365 0.99812 0.0
H2273 H 0.4827 0.5857 1.00514 0.0
H2274 H 0.52423 0.56981 0.02875 0.0
H2275 H 0.54837 0.52725 0.04975 0.0
H2276 H 0.52326 0.4249 0.04141 0.0
H2277 H 0.48557 0.44023 1.01563 0.0
C2278 C 0.47042 0.50233 1.00471 0.0
C2279 C 0.46543 0.5359 1.0002 0.0
C2280 C 0.4948 0.49284 1.0179 0.0
C2281 C 0.48595 0.5598 1.0085 0.0
C2282 C 0.50965 0.55068 1.022 0.0
C2283 C 0.53544 0.50825 0.04183 0.0
C2284 C 0.53877 0.47495 0.04732 0.0
C2285 C 0.51381 0.51735 0.02709 0.0
C2286 C 0.52159 0.45056 0.03718 0.0
C2287 C 0.49969 0.45943 1.02263 0.0
H2288 H 1.00774 0.50206 0.48919 0.0
H2289 H 0.09268 0.46713 0.52015 0.0
H2290 H 0.07183 0.49387 0.54898 0.0
H2291 H 0.02988 0.52763 0.56521 0.0
H2292 H 0.94511 0.5626 0.53408 0.0
H2293 H 0.96596 0.53575 0.50535 0.0
C2294 C 0.02173 0.50003 0.50224 0.0
C2295 C 0.0518 0.48235 0.50244 0.0
C2296 C 1.00982 0.51585 0.51867 0.0
C2297 C 0.06945 0.48028 0.51955 0.0
C2298 C 0.05759 0.49576 0.53602 0.0
C2299 C 0.01596 0.52964 0.55214 0.0
C2300 C 0.98591 0.54737 0.55188 0.0
C2301 C 0.02792 0.51379 0.53571 0.0
C2302 C 0.96832 0.54939 0.53475 0.0
C2303 C 0.98017 0.53386 0.51832 0.0
H2304 H 1.00694 0.51549 0.06867 0.0
H2305 H 0.0872 0.56274 0.03884 0.0
H2306 H 0.06632 0.54056 1.00879 0.0
H2307 H 0.02604 0.50689 0.99113 0.0
H2308 H 0.94597 0.45948 1.02105 0.0
H2309 H 0.96645 0.4823 0.05103 0.0
C2310 C 0.01991 0.52121 0.05562 0.0
C2311 C 0.04874 0.54097 0.05614 0.0
C2312 C 1.00798 0.508 0.03843 0.0
C2313 C 0.06497 0.54787 0.03897 0.0
C2314 C 0.05309 0.535 1.02177 0.0
C2315 C 1.01301 0.50133 1.00419 0.0
C2316 C 0.98444 0.48119 1.00374 0.0
C2317 C 0.02479 0.51481 1.02136 0.0
C2318 C 0.96802 0.47462 1.02089 0.0
C2319 C 0.97968 0.48782 0.03804 0.0
H2320 H 0.50193 0.52554 0.4915 0.0
H2321 H 0.58566 0.5723 0.51825 0.0
H2322 H 0.57028 0.54702 0.54859 0.0
H2323 H 0.53322 0.51172 0.5674 0.0
H2324 H 0.44906 0.46563 0.54069 0.0
H2325 H 0.46491 0.49025 0.51028 0.0
C2326 C 0.51688 0.53041 0.50394 0.0
C2327 C 0.54496 0.55107 0.50251 0.0
C2328 C 0.50799 0.51561 0.52129 0.0
C2329 C 0.56387 0.55683 0.51888 0.0
C2330 C 0.55514 0.54219 0.53622 0.0
C2331 C 0.51835 0.50675 0.55494 0.0
C2332 C 0.48994 0.48652 0.55642 0.0
C2333 C 0.52733 0.52146 0.53757 0.0
C2334 C 0.47107 0.48077 0.54004 0.0
C2335 C 0.48007 0.49504 0.52265 0.0
loop_
_geom_bond_atom_site_label_1
_geom_bond_atom_site_label_2
_geom_bond_distance
_geom_bond_site_symmetry_2
_ccdc_geom_bond_type
C0 C1 1.351 . S
C0 N3 1.368 . S
C0 H5 0.931 . S
C1 C0 1.351 . S
C1 N2 1.373 . S
C1 H29 0.930 . S
N2 C1 1.373 . S
N2 C4 1.340 . S
N3 C0 1.368 . S
N3 C4 1.321 . S
N3 Co6 2.135 . S
C4 N2 1.340 . S
C4 N3 1.321 . S
C4 H28 0.930 . S
H5 C0 0.931 . S
Co6 N3 2.135 . S
Co6 N9 2.121 . S
Co6 O14 2.055 . S
Co6 O17 2.039 . S
Co6 N20 2.140 . S
C7 O8 1.227 . S
C7 O17 1.265 . S
O8 C7 1.227 . S
N9 Co6 2.121 . S
N9 C11 1.375 . S
N9 C12 1.313 . S
C10 C11 1.338 . S
C10 N13 1.377 . S
C10 H30 0.930 . S
C11 N9 1.375 . S
C11 C10 1.338 . S
C11 H15 0.931 . S
C12 N9 1.313 . S
C12 N13 1.344 . S
C12 H16 0.930 . S
N13 C10 1.377 . S
N13 C12 1.344 . S
O14 Co6 2.055 . S
O14 C18 1.253 . S
H15 C11 0.931 . S
H16 C12 0.930 . S
O17 Co6 2.039 . S
O17 C7 1.265 . S
C18 O14 1.253 . S
C18 O19 1.227 . S
O19 C18 1.227 . S
N20 Co6 2.140 . S
N20 C23 1.346 . S
N20 C24 1.345 . S
C21 C22 1.387 . S
C21 C25 1.391 . S
C22 C21 1.387 . S
C22 C23 1.369 . S
C22 H31 0.929 . S
C23 N20 1.346 . S
C23 C22 1.369 . S
C23 H26 0.928 . S
C24 N20 1.345 . S
C24 C25 1.371 . S
C24 H27 0.931 . S
C25 C21 1.391 . S
C25 C24 1.371 . S
C25 H32 0.930 . S
H26 C23 0.928 . S
H27 C24 0.931 . S
H28 C4 0.930 . S
H29 C1 0.930 . S
H30 C10 0.930 . S
H31 C22 0.929 . S
H32 C25 0.930 . S
C33 C34 1.351 . S
C33 N36 1.368 . S
C33 H38 0.931 . S
C34 C33 1.351 . S
C34 N35 1.373 . S
C34 H62 0.930 . S
N35 C34 1.373 . S
N35 C37 1.340 . S
N36 C33 1.368 . S
N36 C37 1.321 . S
N36 Co39 2.135 . S
C37 N35 1.340 . S
C37 N36 1.321 . S
C37 H61 0.930 . S
H38 C33 0.931 . S
Co39 N36 2.135 . S
Co39 N42 2.121 . S
Co39 O47 2.055 . S
Co39 O50 2.039 . S
Co39 N53 2.140 . S
C40 O41 1.227 . S
C40 O50 1.265 . S
O41 C40 1.227 . S
N42 Co39 2.121 . S
N42 C44 1.375 . S
N42 C45 1.313 . S
C43 C44 1.338 . S
C43 N46 1.377 . S
C43 H63 0.930 1_455 S
C44 N42 1.375 . S
C44 C43 1.338 . S
C44 H48 0.931 . S
C45 N42 1.313 . S
C45 N46 1.344 . S
C45 H49 0.930 . S
N46 C43 1.377 . S
N46 C45 1.344 . S
O47 Co39 2.055 . S
O47 C51 1.253 . S
H48 C44 0.931 . S
H49 C45 0.930 . S
O50 Co39 2.039 . S
O50 C40 1.265 . S
C51 O47 1.253 . S
C51 O52 1.227 . S
O52 C51 1.227 . S
N53 Co39 2.140 . S
N53 C56 1.346 . S
N53 C57 1.345 . S
C54 C55 1.387 . S
C54 C58 1.391 1_545 S
C55 C54 1.387 . S
C55 C56 1.369 1_545 S
C55 H64 0.929 . S
C56 N53 1.346 . S
C56 C55 1.369 1_565 S
C56 H59 0.928 . S
C57 N53 1.345 . S
C57 C58 1.371 . S
C57 H60 0.931 . S
C58 C54 1.391 1_565 S
C58 C57 1.371 . S
C58 H65 0.930 . S
H59 C56 0.928 . S
H60 C57 0.931 . S
H61 C37 0.930 . S
H62 C34 0.930 . S
H63 C43 0.930 1_655 S
H64 C55 0.929 . S
H65 C58 0.930 . S
C66 C67 1.351 . S
C66 N69 1.368 . S
C66 H71 0.931 . S
C67 C66 1.351 . S
C67 N68 1.373 . S
C67 H95 0.930 . S
N68 C67 1.373 . S
N68 C70 1.340 . S
N69 C66 1.368 . S
N69 C70 1.321 . S
N69 Co72 2.135 . S
C70 N68 1.340 . S
C70 N69 1.321 . S
C70 H94 0.930 . S
H71 C66 0.931 . S
Co72 N69 2.135 . S
Co72 N75 2.121 . S
Co72 O80 2.055 . S
Co72 O83 2.039 . S
Co72 N86 2.140 . S
C73 O74 1.227 . S
C73 O83 1.265 . S
O74 C73 1.227 . S
N75 Co72 2.121 . S
N75 C77 1.375 . S
N75 C78 1.313 . S
C76 C77 1.338 . S
C76 N79 1.377 . S
C76 H96 0.930 . S
C77 N75 1.375 . S
C77 C76 1.338 . S
C77 H81 0.931 . S
C78 N75 1.313 . S
C78 N79 1.344 . S
C78 H82 0.930 . S
N79 C76 1.377 . S
N79 C78 1.344 . S
O80 Co72 2.055 . S
O80 C84 1.253 . S
H81 C77 0.931 . S
H82 C78 0.930 . S
O83 Co72 2.039 . S
O83 C73 1.265 . S
C84 O80 1.253 . S
C84 O85 1.227 . S
O85 C84 1.227 . S
N86 Co72 2.140 . S
N86 C89 1.346 . S
N86 C90 1.345 . S
C87 C88 1.387 . S
C87 C91 1.391 . S
C88 C87 1.387 . S
C88 C89 1.369 . S
C88 H97 0.929 . S
C89 N86 1.346 . S
C89 C88 1.369 . S
C89 H92 0.928 . S
C90 N86 1.345 . S
C90 C91 1.371 . S
C90 H93 0.931 . S
C91 C87 1.391 . S
C91 C90 1.371 . S
C91 H98 0.930 . S
H92 C89 0.928 . S
H93 C90 0.931 . S
H94 C70 0.930 . S
H95 C67 0.930 . S
H96 C76 0.930 . S
H97 C88 0.929 . S
H98 C91 0.930 . S
C99 C100 1.351 . S
C99 N102 1.368 . S
C99 H104 0.931 . S
C100 C99 1.351 . S
C100 N101 1.373 . S
C100 H128 0.930 . S
N101 C100 1.373 . S
N101 C103 1.340 . S
N102 C99 1.368 . S
N102 C103 1.321 . S
N102 Co105 2.135 . S
C103 N101 1.340 . S
C103 N102 1.321 . S
C103 H127 0.930 . S
H104 C99 0.931 . S
Co105 N102 2.135 . S
Co105 N108 2.121 . S
Co105 O113 2.055 . S
Co105 O116 2.039 . S
Co105 N119 2.140 . S
C106 O107 1.227 . S
C106 O116 1.265 . S
O107 C106 1.227 . S
N108 Co105 2.121 . S
N108 C110 1.375 . S
N108 C111 1.313 . S
C109 C110 1.338 . S
C109 N112 1.377 . S
C109 H129 0.930 . S
C110 N108 1.375 . S
C110 C109 1.338 . S
C110 H114 0.931 . S
C111 N108 1.313 . S
C111 N112 1.344 . S
C111 H115 0.930 . S
N112 C109 1.377 . S
N112 C111 1.344 . S
O113 Co105 2.055 . S
O113 C117 1.253 . S
H114 C110 0.931 . S
H115 C111 0.930 . S
O116 Co105 2.039 . S
O116 C106 1.265 . S
C117 O113 1.253 . S
C117 O118 1.227 . S
O118 C117 1.227 . S
N119 Co105 2.140 . S
N119 C122 1.346 . S
N119 C123 1.345 . S
C120 C121 1.387 . S
C120 C124 1.391 1_565 S
C121 C120 1.387 . S
C121 C122 1.369 1_565 S
C121 H130 0.929 . S
C122 N119 1.346 . S
C122 C121 1.369 1_545 S
C122 H125 0.928 . S
C123 N119 1.345 . S
C123 C124 1.371 . S
C123 H126 0.931 . S
C124 C120 1.391 1_545 S
C124 C123 1.371 . S
C124 H131 0.930 . S
H125 C122 0.928 . S
H126 C123 0.931 . S
H127 C103 0.930 . S
H128 C100 0.930 . S
H129 C109 0.930 . S
H130 C121 0.929 . S
H131 C124 0.930 . S
C132 C133 1.351 . S
C132 N135 1.368 . S
C132 H137 0.931 . S
C133 C132 1.351 . S
C133 N134 1.373 . S
C133 H161 0.930 . S
N134 C133 1.373 . S
N134 C136 1.340 . S
N135 C132 1.368 . S
N135 C136 1.321 . S
N135 Co138 2.135 . S
C136 N134 1.340 . S
C136 N135 1.321 . S
C136 H160 0.930 . S
H137 C132 0.931 . S
Co138 N135 2.135 . S
Co138 N141 2.121 . S
Co138 O146 2.055 . S
Co138 O149 2.039 . S
Co138 N152 2.140 . S
C139 O140 1.227 . S
C139 O149 1.265 . S
O140 C139 1.227 . S
N141 Co138 2.121 . S
N141 C143 1.375 . S
N141 C144 1.313 . S
C142 C143 1.338 . S
C142 N145 1.377 . S
C142 H162 0.930 . S
C143 N141 1.375 . S
C143 C142 1.338 . S
C143 H147 0.931 . S
C144 N141 1.313 . S
C144 N145 1.344 . S
C144 H148 0.930 . S
N145 C142 1.377 . S
N145 C144 1.344 . S
O146 Co138 2.055 . S
O146 C150 1.253 . S
H147 C143 0.931 . S
H148 C144 0.930 . S
O149 Co138 2.039 . S
O149 C139 1.265 . S
C150 O146 1.253 . S
C150 O151 1.227 . S
O151 C150 1.227 . S
N152 Co138 2.140 . S
N152 C155 1.346 . S
N152 C156 1.345 . S
C153 C154 1.387 . S
C153 C157 1.391 . S
C154 C153 1.387 . S
C154 C155 1.369 . S
C154 H163 0.929 . S
C155 N152 1.346 . S
C155 C154 1.369 . S
C155 H158 0.928 . S
C156 N152 1.345 . S
C156 C157 1.371 . S
C156 H159 0.931 . S
C157 C153 1.391 . S
C157 C156 1.371 . S
C157 H164 0.930 . S
H158 C155 0.928 . S
H159 C156 0.931 . S
H160 C136 0.930 . S
H161 C133 0.930 . S
H162 C142 0.930 . S
H163 C154 0.929 . S
H164 C157 0.930 . S
C165 C166 1.351 . S
C165 N168 1.368 . S
C165 H170 0.931 . S
C166 C165 1.351 . S
C166 N167 1.373 . S
C166 H194 0.930 . S
N167 C166 1.373 . S
N167 C169 1.340 . S
N168 C165 1.368 . S
N168 C169 1.321 . S
N168 Co171 2.135 . S
C169 N167 1.340 . S
C169 N168 1.321 . S
C169 H193 0.930 . S
H170 C165 0.931 . S
Co171 N168 2.135 . S
Co171 N174 2.121 . S
Co171 O179 2.055 . S
Co171 O182 2.039 . S
Co171 N185 2.140 . S
C172 O173 1.227 . S
C172 O182 1.265 . S
O173 C172 1.227 . S
N174 Co171 2.121 . S
N174 C176 1.375 . S
N174 C177 1.313 . S
C175 C176 1.338 . S
C175 N178 1.377 . S
C175 H195 0.930 . S
C176 N174 1.375 . S
C176 C175 1.338 . S
C176 H180 0.931 . S
C177 N174 1.313 . S
C177 N178 1.344 . S
C177 H181 0.930 . S
N178 C175 1.377 . S
N178 C177 1.344 . S
O179 Co171 2.055 . S
O179 C183 1.253 . S
H180 C176 0.931 . S
H181 C177 0.930 . S
O182 Co171 2.039 . S
O182 C172 1.265 . S
C183 O179 1.253 . S
C183 O184 1.227 . S
O184 C183 1.227 . S
N185 Co171 2.140 . S
N185 C188 1.346 . S
N185 C189 1.345 . S
C186 C187 1.387 . S
C186 C190 1.391 1_545 S
C187 C186 1.387 . S
C187 C188 1.369 1_545 S
C187 H196 0.929 . S
C188 N185 1.346 . S
C188 C187 1.369 1_565 S
C188 H191 0.928 . S
C189 N185 1.345 . S
C189 C190 1.371 . S
C189 H192 0.931 . S
C190 C186 1.391 1_565 S
C190 C189 1.371 . S
C190 H197 0.930 . S
H191 C188 0.928 . S
H192 C189 0.931 . S
H193 C169 0.930 . S
H194 C166 0.930 . S
H195 C175 0.930 . S
H196 C187 0.929 . S
H197 C190 0.930 . S
C198 C199 1.351 . S
C198 N201 1.368 . S
C198 H203 0.931 . S
C199 C198 1.351 . S
C199 N200 1.373 . S
C199 H227 0.930 . S
N200 C199 1.373 . S
N200 C202 1.340 . S
N201 C198 1.368 . S
N201 C202 1.321 . S
N201 Co204 2.135 . S
C202 N200 1.340 . S
C202 N201 1.321 . S
C202 H226 0.930 . S
H203 C198 0.931 . S
Co204 N201 2.135 . S
Co204 N207 2.121 . S
Co204 O212 2.055 . S
Co204 O215 2.039 . S
Co204 N218 2.140 . S
C205 O206 1.227 . S
C205 O215 1.265 . S
O206 C205 1.227 . S
N207 Co204 2.121 . S
N207 C209 1.375 . S
N207 C210 1.313 . S
C208 C209 1.338 . S
C208 N211 1.377 . S
C208 H228 0.930 . S
C209 N207 1.375 . S
C209 C208 1.338 . S
C209 H213 0.931 . S
C210 N207 1.313 . S
C210 N211 1.344 . S
C210 H214 0.930 . S
N211 C208 1.377 . S
N211 C210 1.344 . S
O212 Co204 2.055 . S
O212 C216 1.253 . S
H213 C209 0.931 . S
H214 C210 0.930 . S
O215 Co204 2.039 . S
O215 C205 1.265 . S
C216 O212 1.253 . S
C216 O217 1.227 . S
O217 C216 1.227 . S
N218 Co204 2.140 . S
N218 C221 1.346 . S
N218 C222 1.345 . S
C219 C220 1.387 . S
C219 C223 1.391 . S
C220 C219 1.387 . S
C220 C221 1.369 . S
C220 H229 0.929 . S
C221 N218 1.346 . S
C221 C220 1.369 . S
C221 H224 0.928 . S
C222 N218 1.345 . S
C222 C223 1.371 . S
C222 H225 0.931 . S
C223 C219 1.391 . S
C223 C222 1.371 . S
C223 H230 0.930 . S
H224 C221 0.928 . S
H225 C222 0.931 . S
H226 C202 0.930 . S
H227 C199 0.930 . S
H228 C208 0.930 . S
H229 C220 0.929 . S
H230 C223 0.930 . S
C231 C232 1.351 . S
C231 N234 1.368 . S
C231 H236 0.931 . S
C232 C231 1.351 . S
C232 N233 1.373 . S
C232 H260 0.930 . S
N233 C232 1.373 . S
N233 C235 1.340 . S
N234 C231 1.368 . S
N234 C235 1.321 . S
N234 Co237 2.135 . S
C235 N233 1.340 . S
C235 N234 1.321 . S
C235 H259 0.930 . S
H236 C231 0.931 . S
Co237 N234 2.135 . S
Co237 N240 2.121 . S
Co237 O245 2.055 . S
Co237 O248 2.039 . S
Co237 N251 2.140 . S
C238 O239 1.227 . S
C238 O248 1.265 . S
O239 C238 1.227 . S
N240 Co237 2.121 . S
N240 C242 1.375 . S
N240 C243 1.313 . S
C241 C242 1.338 . S
C241 N244 1.377 . S
C241 H261 0.930 1_455 S
C242 N240 1.375 . S
C242 C241 1.338 . S
C242 H246 0.931 . S
C243 N240 1.313 . S
C243 N244 1.344 . S
C243 H247 0.930 . S
N244 C241 1.377 . S
N244 C243 1.344 . S
O245 Co237 2.055 . S
O245 C249 1.253 . S
H246 C242 0.931 . S
H247 C243 0.930 . S
O248 Co237 2.039 . S
O248 C238 1.265 . S
C249 O245 1.253 . S
C249 O250 1.227 . S
O250 C249 1.227 . S
N251 Co237 2.140 . S
N251 C254 1.346 . S
N251 C255 1.345 . S
C252 C253 1.387 . S
C252 C256 1.391 1_565 S
C253 C252 1.387 . S
C253 C254 1.369 1_565 S
C253 H262 0.929 . S
C254 N251 1.346 . S
C254 C253 1.369 1_545 S
C254 H257 0.928 . S
C255 N251 1.345 . S
C255 C256 1.371 . S
C255 H258 0.931 . S
C256 C252 1.391 1_545 S
C256 C255 1.371 . S
C256 H263 0.930 . S
H257 C254 0.928 . S
H258 C255 0.931 . S
H259 C235 0.930 . S
H260 C232 0.930 . S
H261 C241 0.930 1_655 S
H262 C253 0.929 . S
H263 C256 0.930 . S
C264 C265 1.351 . S
C264 N267 1.368 . S
C264 H269 0.931 . S
C265 C264 1.351 . S
C265 N266 1.373 . S
C265 H293 0.930 . S
N266 C265 1.373 . S
N266 C268 1.340 . S
N267 C264 1.368 . S
N267 C268 1.321 . S
N267 Co270 2.135 . S
C268 N266 1.340 . S
C268 N267 1.321 . S
C268 H292 0.930 . S
H269 C264 0.931 . S
Co270 N267 2.135 . S
Co270 N273 2.121 . S
Co270 O278 2.055 . S
Co270 O281 2.039 . S
Co270 N284 2.140 . S
C271 O272 1.227 . S
C271 O281 1.265 . S
O272 C271 1.227 . S
N273 Co270 2.121 . S
N273 C275 1.375 . S
N273 C276 1.313 . S
C274 C275 1.338 . S
C274 N277 1.377 . S
C274 H294 0.930 . S
C275 N273 1.375 . S
C275 C274 1.338 . S
C275 H279 0.931 . S
C276 N273 1.313 . S
C276 N277 1.344 . S
C276 H280 0.930 . S
N277 C274 1.377 . S
N277 C276 1.344 . S
O278 Co270 2.055 . S
O278 C282 1.253 . S
H279 C275 0.931 . S
H280 C276 0.930 . S
O281 Co270 2.039 . S
O281 C271 1.265 . S
C282 O278 1.253 . S
C282 O283 1.227 . S
O283 C282 1.227 . S
N284 Co270 2.140 . S
N284 C287 1.346 . S
N284 C288 1.345 . S
C285 C286 1.387 . S
C285 C289 1.391 . S
C286 C285 1.387 . S
C286 C287 1.369 . S
C286 H295 0.929 . S
C287 N284 1.346 . S
C287 C286 1.369 . S
C287 H290 0.928 . S
C288 N284 1.345 . S
C288 C289 1.371 . S
C288 H291 0.931 . S
C289 C285 1.391 . S
C289 C288 1.371 . S
C289 H296 0.930 . S
H290 C287 0.928 . S
H291 C288 0.931 . S
H292 C268 0.930 . S
H293 C265 0.930 . S
H294 C274 0.930 . S
H295 C286 0.929 . S
H296 C289 0.930 . S
C297 C298 1.351 . S
C297 N300 1.368 . S
C297 H302 0.931 . S
C298 C297 1.351 . S
C298 N299 1.373 . S
C298 H326 0.930 . S
N299 C298 1.373 . S
N299 C301 1.340 . S
N300 C297 1.368 . S
N300 C301 1.321 . S
N300 Co303 2.135 . S
C301 N299 1.340 . S
C301 N300 1.321 . S
C301 H325 0.930 . S
H302 C297 0.931 . S
Co303 N300 2.135 . S
Co303 N306 2.121 . S
Co303 O311 2.055 . S
Co303 O314 2.039 . S
Co303 N317 2.140 . S
C304 O305 1.227 . S
C304 O314 1.265 . S
O305 C304 1.227 . S
N306 Co303 2.121 . S
N306 C308 1.375 . S
N306 C309 1.313 . S
C307 C308 1.338 . S
C307 N310 1.377 . S
C307 H327 0.930 1_655 S
C308 N306 1.375 . S
C308 C307 1.338 . S
C308 H312 0.931 . S
C309 N306 1.313 . S
C309 N310 1.344 . S
C309 H313 0.930 . S
N310 C307 1.377 . S
N310 C309 1.344 . S
O311 Co303 2.055 . S
O311 C315 1.253 . S
H312 C308 0.931 . S
H313 C309 0.930 . S
O314 Co303 2.039 . S
O314 C304 1.265 . S
C315 O311 1.253 . S
C315 O316 1.227 . S
O316 C315 1.227 . S
N317 Co303 2.140 . S
N317 C320 1.346 . S
N317 C321 1.345 . S
C318 C319 1.387 . S
C318 C322 1.391 1_565 S
C319 C318 1.387 . S
C319 C320 1.369 1_565 S
C319 H328 0.929 . S
C320 N317 1.346 . S
C320 C319 1.369 1_545 S
C320 H323 0.928 . S
C321 N317 1.345 . S
C321 C322 1.371 . S
C321 H324 0.931 . S
C322 C318 1.391 1_545 S
C322 C321 1.371 . S
C322 H329 0.930 . S
H323 C320 0.928 . S
H324 C321 0.931 . S
H325 C301 0.930 . S
H326 C298 0.930 . S
H327 C307 0.930 1_455 S
H328 C319 0.929 . S
H329 C322 0.930 . S
C330 C331 1.351 . S
C330 N333 1.368 . S
C330 H335 0.931 . S
C331 C330 1.351 . S
C331 N332 1.373 . S
C331 H359 0.930 . S
N332 C331 1.373 . S
N332 C334 1.340 . S
N333 C330 1.368 . S
N333 C334 1.321 . S
N333 Co336 2.135 . S
C334 N332 1.340 . S
C334 N333 1.321 . S
C334 H358 0.930 . S
H335 C330 0.931 . S
Co336 N333 2.135 . S
Co336 N339 2.121 . S
Co336 O344 2.055 . S
Co336 O347 2.039 . S
Co336 N350 2.140 . S
C337 O338 1.227 . S
C337 O347 1.265 . S
O338 C337 1.227 . S
N339 Co336 2.121 . S
N339 C341 1.375 . S
N339 C342 1.313 . S
C340 C341 1.338 . S
C340 N343 1.377 . S
C340 H360 0.930 . S
C341 N339 1.375 . S
C341 C340 1.338 . S
C341 H345 0.931 . S
C342 N339 1.313 . S
C342 N343 1.344 . S
C342 H346 0.930 . S
N343 C340 1.377 . S
N343 C342 1.344 . S
O344 Co336 2.055 . S
O344 C348 1.253 . S
H345 C341 0.931 . S
H346 C342 0.930 . S
O347 Co336 2.039 . S
O347 C337 1.265 . S
C348 O344 1.253 . S
C348 O349 1.227 . S
O349 C348 1.227 . S
N350 Co336 2.140 . S
N350 C353 1.346 . S
N350 C354 1.345 . S
C351 C352 1.387 . S
C351 C355 1.391 . S
C352 C351 1.387 . S
C352 C353 1.369 . S
C352 H361 0.929 . S
C353 N350 1.346 . S
C353 C352 1.369 . S
C353 H356 0.928 . S
C354 N350 1.345 . S
C354 C355 1.371 . S
C354 H357 0.931 . S
C355 C351 1.391 . S
C355 C354 1.371 . S
C355 H362 0.930 . S
H356 C353 0.928 . S
H357 C354 0.931 . S
H358 C334 0.930 . S
H359 C331 0.930 . S
H360 C340 0.930 . S
H361 C352 0.929 . S
H362 C355 0.930 . S
C363 C364 1.351 . S
C363 N366 1.368 . S
C363 H368 0.931 . S
C364 C363 1.351 . S
C364 N365 1.373 . S
C364 H392 0.930 . S
N365 C364 1.373 . S
N365 C367 1.340 . S
N366 C363 1.368 . S
N366 C367 1.321 . S
N366 Co369 2.135 . S
C367 N365 1.340 . S
C367 N366 1.321 . S
C367 H391 0.930 . S
H368 C363 0.931 . S
Co369 N366 2.135 . S
Co369 N372 2.121 . S
Co369 O377 2.055 . S
Co369 O380 2.039 . S
Co369 N383 2.140 . S
C370 O371 1.227 . S
C370 O380 1.265 . S
O371 C370 1.227 . S
N372 Co369 2.121 . S
N372 C374 1.375 . S
N372 C375 1.313 . S
C373 C374 1.338 . S
C373 N376 1.377 . S
C373 H393 0.930 . S
C374 N372 1.375 . S
C374 C373 1.338 . S
C374 H378 0.931 . S
C375 N372 1.313 . S
C375 N376 1.344 . S
C375 H379 0.930 . S
N376 C373 1.377 . S
N376 C375 1.344 . S
O377 Co369 2.055 . S
O377 C381 1.253 . S
H378 C374 0.931 . S
H379 C375 0.930 . S
O380 Co369 2.039 . S
O380 C370 1.265 . S
C381 O377 1.253 . S
C381 O382 1.227 . S
O382 C381 1.227 . S
N383 Co369 2.140 . S
N383 C386 1.346 . S
N383 C387 1.345 . S
C384 C385 1.387 . S
C384 C388 1.391 1_545 S
C385 C384 1.387 . S
C385 C386 1.369 1_545 S
C385 H394 0.929 . S
C386 N383 1.346 . S
C386 C385 1.369 1_565 S
C386 H389 0.928 . S
C387 N383 1.345 . S
C387 C388 1.371 . S
C387 H390 0.931 . S
C388 C384 1.391 1_565 S
C388 C387 1.371 . S
C388 H395 0.930 . S
H389 C386 0.928 . S
H390 C387 0.931 . S
H391 C367 0.930 . S
H392 C364 0.930 . S
H393 C373 0.930 . S
H394 C385 0.929 . S
H395 C388 0.930 . S
C396 C397 1.351 . S
C396 N399 1.368 . S
C396 H401 0.931 . S
C397 C396 1.351 . S
C397 N398 1.373 . S
C397 H425 0.930 . S
N398 C397 1.373 . S
N398 C400 1.340 . S
N399 C396 1.368 . S
N399 C400 1.321 . S
N399 Co402 2.135 . S
C400 N398 1.340 . S
C400 N399 1.321 . S
C400 H424 0.930 . S
H401 C396 0.931 . S
Co402 N399 2.135 . S
Co402 N405 2.121 . S
Co402 O410 2.055 . S
Co402 O413 2.039 . S
Co402 N416 2.140 . S
C403 O404 1.227 . S
C403 O413 1.265 . S
O404 C403 1.227 . S
N405 Co402 2.121 . S
N405 C407 1.375 . S
N405 C408 1.313 . S
C406 C407 1.338 . S
C406 N409 1.377 . S
C406 H426 0.930 . S
C407 N405 1.375 . S
C407 C406 1.338 . S
C407 H411 0.931 . S
C408 N405 1.313 . S
C408 N409 1.344 . S
C408 H412 0.930 . S
N409 C406 1.377 . S
N409 C408 1.344 . S
O410 Co402 2.055 . S
O410 C414 1.253 . S
H411 C407 0.931 . S
H412 C408 0.930 . S
O413 Co402 2.039 . S
O413 C403 1.265 . S
C414 O410 1.253 . S
C414 O415 1.227 . S
O415 C414 1.227 . S
N416 Co402 2.140 . S
N416 C419 1.346 . S
N416 C420 1.345 . S
C417 C418 1.387 . S
C417 C421 1.391 . S
C418 C417 1.387 . S
C418 C419 1.369 . S
C418 H427 0.929 . S
C419 N416 1.346 . S
C419 C418 1.369 . S
C419 H422 0.928 . S
C420 N416 1.345 . S
C420 C421 1.371 . S
C420 H423 0.931 . S
C421 C417 1.391 . S
C421 C420 1.371 . S
C421 H428 0.930 . S
H422 C419 0.928 . S
H423 C420 0.931 . S
H424 C400 0.930 . S
H425 C397 0.930 . S
H426 C406 0.930 . S
H427 C418 0.929 . S
H428 C421 0.930 . S
C429 C430 1.351 . S
C429 N432 1.368 . S
C429 H434 0.931 . S
C430 C429 1.351 . S
C430 N431 1.373 . S
C430 H458 0.930 . S
N431 C430 1.373 . S
N431 C433 1.340 . S
N432 C429 1.368 . S
N432 C433 1.321 . S
N432 Co435 2.135 . S
C433 N431 1.340 . S
C433 N432 1.321 . S
C433 H457 0.930 . S
H434 C429 0.931 . S
Co435 N432 2.135 . S
Co435 N438 2.121 . S
Co435 O443 2.055 . S
Co435 O446 2.039 . S
Co435 N449 2.140 . S
C436 O437 1.227 . S
C436 O446 1.265 . S
O437 C436 1.227 . S
N438 Co435 2.121 . S
N438 C440 1.375 . S
N438 C441 1.313 . S
C439 C440 1.338 . S
C439 N442 1.377 . S
C439 H459 0.930 . S
C440 N438 1.375 . S
C440 C439 1.338 . S
C440 H444 0.931 . S
C441 N438 1.313 . S
C441 N442 1.344 . S
C441 H445 0.930 . S
N442 C439 1.377 . S
N442 C441 1.344 . S
O443 Co435 2.055 . S
O443 C447 1.253 . S
H444 C440 0.931 . S
H445 C441 0.930 . S
O446 Co435 2.039 . S
O446 C436 1.265 . S
C447 O443 1.253 . S
C447 O448 1.227 . S
O448 C447 1.227 . S
N449 Co435 2.140 . S
N449 C452 1.346 . S
N449 C453 1.345 . S
C450 C451 1.387 . S
C450 C454 1.391 1_565 S
C451 C450 1.387 . S
C451 C452 1.369 1_565 S
C451 H460 0.929 . S
C452 N449 1.346 . S
C452 C451 1.369 1_545 S
C452 H455 0.928 . S
C453 N449 1.345 . S
C453 C454 1.371 . S
C453 H456 0.931 . S
C454 C450 1.391 1_545 S
C454 C453 1.371 . S
C454 H461 0.930 . S
H455 C452 0.928 . S
H456 C453 0.931 . S
H457 C433 0.930 . S
H458 C430 0.930 . S
H459 C439 0.930 . S
H460 C451 0.929 . S
H461 C454 0.930 . S
C462 C463 1.351 . S
C462 N465 1.368 . S
C462 H467 0.931 . S
C463 C462 1.351 . S
C463 N464 1.373 . S
C463 H491 0.930 . S
N464 C463 1.373 . S
N464 C466 1.340 . S
N465 C462 1.368 . S
N465 C466 1.321 . S
N465 Co468 2.135 . S
C466 N464 1.340 . S
C466 N465 1.321 . S
C466 H490 0.930 . S
H467 C462 0.931 . S
Co468 N465 2.135 . S
Co468 N471 2.121 . S
Co468 O476 2.055 . S
Co468 O479 2.039 . S
Co468 N482 2.140 . S
C469 O470 1.227 . S
C469 O479 1.265 . S
O470 C469 1.227 . S
N471 Co468 2.121 . S
N471 C473 1.375 . S
N471 C474 1.313 . S
C472 C473 1.338 . S
C472 N475 1.377 . S
C472 H492 0.930 . S
C473 N471 1.375 . S
C473 C472 1.338 . S
C473 H477 0.931 . S
C474 N471 1.313 . S
C474 N475 1.344 . S
C474 H478 0.930 . S
N475 C472 1.377 . S
N475 C474 1.344 . S
O476 Co468 2.055 . S
O476 C480 1.253 . S
H477 C473 0.931 . S
H478 C474 0.930 . S
O479 Co468 2.039 . S
O479 C469 1.265 . S
C480 O476 1.253 . S
C480 O481 1.227 . S
O481 C480 1.227 . S
N482 Co468 2.140 . S
N482 C485 1.346 . S
N482 C486 1.345 . S
C483 C484 1.387 . S
C483 C487 1.391 . S
C484 C483 1.387 . S
C484 C485 1.369 . S
C484 H493 0.929 . S
C485 N482 1.346 . S
C485 C484 1.369 . S
C485 H488 0.928 . S
C486 N482 1.345 . S
C486 C487 1.371 . S
C486 H489 0.931 . S
C487 C483 1.391 . S
C487 C486 1.371 . S
C487 H494 0.930 . S
H488 C485 0.928 . S
H489 C486 0.931 . S
H490 C466 0.930 . S
H491 C463 0.930 . S
H492 C472 0.930 . S
H493 C484 0.929 . S
H494 C487 0.930 . S
C495 C496 1.351 . S
C495 N498 1.368 . S
C495 H500 0.931 . S
C496 C495 1.351 . S
C496 N497 1.373 . S
C496 H524 0.930 . S
N497 C496 1.373 . S
N497 C499 1.340 . S
N498 C495 1.368 . S
N498 C499 1.321 . S
N498 Co501 2.135 . S
C499 N497 1.340 . S
C499 N498 1.321 . S
C499 H523 0.930 . S
H500 C495 0.931 . S
Co501 N498 2.135 . S
Co501 N504 2.121 . S
Co501 O509 2.055 . S
Co501 O512 2.039 . S
Co501 N515 2.140 . S
C502 O503 1.227 . S
C502 O512 1.265 . S
O503 C502 1.227 . S
N504 Co501 2.121 . S
N504 C506 1.375 . S
N504 C507 1.313 . S
C505 C506 1.338 . S
C505 N508 1.377 . S
C505 H525 0.930 1_655 S
C506 N504 1.375 . S
C506 C505 1.338 . S
C506 H510 0.931 . S
C507 N504 1.313 . S
C507 N508 1.344 . S
C507 H511 0.930 . S
N508 C505 1.377 . S
N508 C507 1.344 . S
O509 Co501 2.055 . S
O509 C513 1.253 . S
H510 C506 0.931 . S
H511 C507 0.930 . S
O512 Co501 2.039 . S
O512 C502 1.265 . S
C513 O509 1.253 . S
C513 O514 1.227 . S
O514 C513 1.227 . S
N515 Co501 2.140 . S
N515 C518 1.346 . S
N515 C519 1.345 . S
C516 C517 1.387 . S
C516 C520 1.391 1_545 S
C517 C516 1.387 . S
C517 C518 1.369 1_545 S
C517 H526 0.929 . S
C518 N515 1.346 . S
C518 C517 1.369 1_565 S
C518 H521 0.928 . S
C519 N515 1.345 . S
C519 C520 1.371 . S
C519 H522 0.931 . S
C520 C516 1.391 1_565 S
C520 C519 1.371 . S
C520 H527 0.930 . S
H521 C518 0.928 . S
H522 C519 0.931 . S
H523 C499 0.930 . S
H524 C496 0.930 . S
H525 C505 0.930 1_455 S
H526 C517 0.929 . S
H527 C520 0.930 . S
C528 C529 1.351 . S
C528 N531 1.368 . S
C528 H533 0.931 . S
C529 C528 1.351 . S
C529 N530 1.373 . S
C529 H557 0.930 . S
N530 C529 1.373 . S
N530 C532 1.340 . S
N531 C528 1.368 . S
N531 C532 1.321 . S
N531 Co534 2.135 . S
C532 N530 1.340 . S
C532 N531 1.321 . S
C532 H556 0.930 . S
H533 C528 0.931 . S
Co534 N531 2.135 . S
Co534 N537 2.121 . S
Co534 O542 2.055 . S
Co534 O545 2.039 . S
Co534 N548 2.140 . S
C535 O536 1.227 . S
C535 O545 1.265 . S
O536 C535 1.227 . S
N537 Co534 2.121 . S
N537 C539 1.375 . S
N537 C540 1.313 . S
C538 C539 1.338 . S
C538 N541 1.377 . S
C538 H558 0.930 . S
C539 N537 1.375 . S
C539 C538 1.338 . S
C539 H543 0.931 . S
C540 N537 1.313 . S
C540 N541 1.344 . S
C540 H544 0.930 . S
N541 C538 1.377 . S
N541 C540 1.344 . S
O542 Co534 2.055 . S
O542 C546 1.253 . S
H543 C539 0.931 . S
H544 C540 0.930 . S
O545 Co534 2.039 . S
O545 C535 1.265 . S
C546 O542 1.253 . S
C546 O547 1.227 . S
O547 C546 1.227 . S
N548 Co534 2.140 . S
N548 C551 1.346 . S
N548 C552 1.345 . S
C549 C550 1.387 . S
C549 C553 1.391 . S
C550 C549 1.387 . S
C550 C551 1.369 . S
C550 H559 0.929 . S
C551 N548 1.346 . S
C551 C550 1.369 . S
C551 H554 0.928 . S
C552 N548 1.345 . S
C552 C553 1.371 . S
C552 H555 0.931 . S
C553 C549 1.391 . S
C553 C552 1.371 . S
C553 H560 0.930 . S
H554 C551 0.928 . S
H555 C552 0.931 . S
H556 C532 0.930 . S
H557 C529 0.930 . S
H558 C538 0.930 . S
H559 C550 0.929 . S
H560 C553 0.930 . S
C561 C562 1.351 . S
C561 N564 1.368 . S
C561 H566 0.931 . S
C562 C561 1.351 . S
C562 N563 1.373 . S
C562 H590 0.930 . S
N563 C562 1.373 . S
N563 C565 1.340 . S
N564 C561 1.368 . S
N564 C565 1.321 . S
N564 Co567 2.135 . S
C565 N563 1.340 . S
C565 N564 1.321 . S
C565 H589 0.930 . S
H566 C561 0.931 . S
Co567 N564 2.135 . S
Co567 N570 2.121 . S
Co567 O575 2.055 . S
Co567 O578 2.039 . S
Co567 N581 2.140 . S
C568 O569 1.227 . S
C568 O578 1.265 . S
O569 C568 1.227 . S
N570 Co567 2.121 . S
N570 C572 1.375 . S
N570 C573 1.313 . S
C571 C572 1.338 . S
C571 N574 1.377 . S
C571 H591 0.930 . S
C572 N570 1.375 . S
C572 C571 1.338 . S
C572 H576 0.931 . S
C573 N570 1.313 . S
C573 N574 1.344 . S
C573 H577 0.930 . S
N574 C571 1.377 . S
N574 C573 1.344 . S
O575 Co567 2.055 . S
O575 C579 1.253 . S
H576 C572 0.931 . S
H577 C573 0.930 . S
O578 Co567 2.039 . S
O578 C568 1.265 . S
C579 O575 1.253 . S
C579 O580 1.227 . S
O580 C579 1.227 . S
N581 Co567 2.140 . S
N581 C584 1.346 . S
N581 C585 1.345 . S
C582 C583 1.387 . S
C582 C586 1.391 . S
C583 C582 1.387 . S
C583 C584 1.369 . S
C583 H592 0.929 . S
C584 N581 1.346 . S
C584 C583 1.369 . S
C584 H587 0.928 . S
C585 N581 1.345 . S
C585 C586 1.371 . S
C585 H588 0.931 . S
C586 C582 1.391 . S
C586 C585 1.371 . S
C586 H593 0.930 . S
H587 C584 0.928 . S
H588 C585 0.931 . S
H589 C565 0.930 . S
H590 C562 0.930 . S
H591 C571 0.930 . S
H592 C583 0.929 . S
H593 C586 0.930 . S
C594 C595 1.351 . S
C594 N597 1.368 . S
C594 H599 0.931 . S
C595 C594 1.351 . S
C595 N596 1.373 . S
C595 H623 0.930 . S
N596 C595 1.373 . S
N596 C598 1.340 . S
N597 C594 1.368 . S
N597 C598 1.321 . S
N597 Co600 2.135 . S
C598 N596 1.340 . S
C598 N597 1.321 . S
C598 H622 0.930 . S
H599 C594 0.931 . S
Co600 N597 2.135 . S
Co600 N603 2.121 . S
Co600 O608 2.055 . S
Co600 O611 2.039 . S
Co600 N614 2.140 . S
C601 O602 1.227 . S
C601 O611 1.265 . S
O602 C601 1.227 . S
N603 Co600 2.121 . S
N603 C605 1.375 . S
N603 C606 1.313 . S
C604 C605 1.338 . S
C604 N607 1.377 . S
C604 H624 0.930 . S
C605 N603 1.375 . S
C605 C604 1.338 . S
C605 H609 0.931 . S
C606 N603 1.313 . S
C606 N607 1.344 . S
C606 H610 0.930 . S
N607 C604 1.377 . S
N607 C606 1.344 . S
O608 Co600 2.055 . S
O608 C612 1.253 . S
H609 C605 0.931 . S
H610 C606 0.930 . S
O611 Co600 2.039 . S
O611 C601 1.265 . S
C612 O608 1.253 . S
C612 O613 1.227 . S
O613 C612 1.227 . S
N614 Co600 2.140 . S
N614 C617 1.346 . S
N614 C618 1.345 . S
C615 C616 1.387 . S
C615 C619 1.391 . S
C616 C615 1.387 . S
C616 C617 1.369 . S
C616 H625 0.929 . S
C617 N614 1.346 . S
C617 C616 1.369 . S
C617 H620 0.928 . S
C618 N614 1.345 . S
C618 C619 1.371 . S
C618 H621 0.931 . S
C619 C615 1.391 . S
C619 C618 1.371 . S
C619 H626 0.930 . S
H620 C617 0.928 . S
H621 C618 0.931 . S
H622 C598 0.930 . S
H623 C595 0.930 . S
H624 C604 0.930 . S
H625 C616 0.929 . S
H626 C619 0.930 . S
C627 C628 1.351 . S
C627 N630 1.368 . S
C627 H632 0.931 . S
C628 C627 1.351 . S
C628 N629 1.373 . S
C628 H656 0.930 . S
N629 C628 1.373 . S
N629 C631 1.340 . S
N630 C627 1.368 . S
N630 C631 1.321 . S
N630 Co633 2.135 . S
C631 N629 1.340 . S
C631 N630 1.321 . S
C631 H655 0.930 . S
H632 C627 0.931 . S
Co633 N630 2.135 . S
Co633 N636 2.121 . S
Co633 O641 2.055 . S
Co633 O644 2.039 . S
Co633 N647 2.140 . S
C634 O635 1.227 . S
C634 O644 1.265 . S
O635 C634 1.227 . S
N636 Co633 2.121 . S
N636 C638 1.375 . S
N636 C639 1.313 . S
C637 C638 1.338 . S
C637 N640 1.377 . S
C637 H657 0.930 1_655 S
C638 N636 1.375 . S
C638 C637 1.338 . S
C638 H642 0.931 . S
C639 N636 1.313 . S
C639 N640 1.344 . S
C639 H643 0.930 . S
N640 C637 1.377 . S
N640 C639 1.344 . S
O641 Co633 2.055 . S
O641 C645 1.253 . S
H642 C638 0.931 . S
H643 C639 0.930 . S
O644 Co633 2.039 . S
O644 C634 1.265 . S
C645 O641 1.253 . S
C645 O646 1.227 . S
O646 C645 1.227 . S
N647 Co633 2.140 . S
N647 C650 1.346 . S
N647 C651 1.345 . S
C648 C649 1.387 . S
C648 C652 1.391 . S
C649 C648 1.387 . S
C649 C650 1.369 . S
C649 H658 0.929 . S
C650 N647 1.346 . S
C650 C649 1.369 . S
C650 H653 0.928 . S
C651 N647 1.345 . S
C651 C652 1.371 . S
C651 H654 0.931 . S
C652 C648 1.391 . S
C652 C651 1.371 . S
C652 H659 0.930 . S
H653 C650 0.928 . S
H654 C651 0.931 . S
H655 C631 0.930 . S
H656 C628 0.930 . S
H657 C637 0.930 1_455 S
H658 C649 0.929 . S
H659 C652 0.930 . S
C660 C661 1.351 . S
C660 N663 1.368 . S
C660 H665 0.931 . S
C661 C660 1.351 . S
C661 N662 1.373 . S
C661 H689 0.930 . S
N662 C661 1.373 . S
N662 C664 1.340 . S
N663 C660 1.368 . S
N663 C664 1.321 . S
N663 Co666 2.135 . S
C664 N662 1.340 . S
C664 N663 1.321 . S
C664 H688 0.930 . S
H665 C660 0.931 . S
Co666 N663 2.135 . S
Co666 N669 2.121 . S
Co666 O674 2.055 . S
Co666 O677 2.039 . S
Co666 N680 2.140 . S
C667 O668 1.227 . S
C667 O677 1.265 . S
O668 C667 1.227 . S
N669 Co666 2.121 . S
N669 C671 1.375 . S
N669 C672 1.313 . S
C670 C671 1.338 . S
C670 N673 1.377 . S
C670 H690 0.930 . S
C671 N669 1.375 . S
C671 C670 1.338 . S
C671 H675 0.931 . S
C672 N669 1.313 . S
C672 N673 1.344 . S
C672 H676 0.930 . S
N673 C670 1.377 . S
N673 C672 1.344 . S
O674 Co666 2.055 . S
O674 C678 1.253 . S
H675 C671 0.931 . S
H676 C672 0.930 . S
O677 Co666 2.039 . S
O677 C667 1.265 . S
C678 O674 1.253 . S
C678 O679 1.227 . S
O679 C678 1.227 . S
N680 Co666 2.140 . S
N680 C683 1.346 . S
N680 C684 1.345 . S
C681 C682 1.387 . S
C681 C685 1.391 . S
C682 C681 1.387 . S
C682 C683 1.369 . S
C682 H691 0.929 . S
C683 N680 1.346 . S
C683 C682 1.369 . S
C683 H686 0.928 . S
C684 N680 1.345 . S
C684 C685 1.371 . S
C684 H687 0.931 . S
C685 C681 1.391 . S
C685 C684 1.371 . S
C685 H692 0.930 . S
H686 C683 0.928 . S
H687 C684 0.931 . S
H688 C664 0.930 . S
H689 C661 0.930 . S
H690 C670 0.930 . S
H691 C682 0.929 . S
H692 C685 0.930 . S
C693 C694 1.351 . S
C693 N696 1.368 . S
C693 H698 0.931 . S
C694 C693 1.351 . S
C694 N695 1.373 . S
C694 H722 0.930 . S
N695 C694 1.373 . S
N695 C697 1.340 . S
N696 C693 1.368 . S
N696 C697 1.321 . S
N696 Co699 2.135 . S
C697 N695 1.340 . S
C697 N696 1.321 . S
C697 H721 0.930 . S
H698 C693 0.931 . S
Co699 N696 2.135 . S
Co699 N702 2.121 . S
Co699 O707 2.055 . S
Co699 O710 2.039 . S
Co699 N713 2.140 . S
C700 O701 1.227 . S
C700 O710 1.265 . S
O701 C700 1.227 . S
N702 Co699 2.121 . S
N702 C704 1.375 . S
N702 C705 1.313 . S
C703 C704 1.338 . S
C703 N706 1.377 . S
C703 H723 0.930 1_655 S
C704 N702 1.375 . S
C704 C703 1.338 . S
C704 H708 0.931 . S
C705 N702 1.313 . S
C705 N706 1.344 . S
C705 H709 0.930 . S
N706 C703 1.377 . S
N706 C705 1.344 . S
O707 Co699 2.055 . S
O707 C711 1.253 . S
H708 C704 0.931 . S
H709 C705 0.930 . S
O710 Co699 2.039 . S
O710 C700 1.265 . S
C711 O707 1.253 . S
C711 O712 1.227 . S
O712 C711 1.227 . S
N713 Co699 2.140 . S
N713 C716 1.346 . S
N713 C717 1.345 . S
C714 C715 1.387 . S
C714 C718 1.391 . S
C715 C714 1.387 . S
C715 C716 1.369 . S
C715 H724 0.929 . S
C716 N713 1.346 . S
C716 C715 1.369 . S
C716 H719 0.928 . S
C717 N713 1.345 . S
C717 C718 1.371 . S
C717 H720 0.931 . S
C718 C714 1.391 . S
C718 C717 1.371 . S
C718 H725 0.930 . S
H719 C716 0.928 . S
H720 C717 0.931 . S
H721 C697 0.930 . S
H722 C694 0.930 . S
H723 C703 0.930 1_455 S
H724 C715 0.929 . S
H725 C718 0.930 . S
C726 C727 1.351 . S
C726 N729 1.368 . S
C726 H731 0.931 . S
C727 C726 1.351 . S
C727 N728 1.373 . S
C727 H755 0.930 . S
N728 C727 1.373 . S
N728 C730 1.340 . S
N729 C726 1.368 . S
N729 C730 1.321 . S
N729 Co732 2.135 . S
C730 N728 1.340 . S
C730 N729 1.321 . S
C730 H754 0.930 . S
H731 C726 0.931 . S
Co732 N729 2.135 . S
Co732 N735 2.121 . S
Co732 O740 2.055 . S
Co732 O743 2.039 . S
Co732 N746 2.140 . S
C733 O734 1.227 . S
C733 O743 1.265 . S
O734 C733 1.227 . S
N735 Co732 2.121 . S
N735 C737 1.375 . S
N735 C738 1.313 . S
C736 C737 1.338 . S
C736 N739 1.377 . S
C736 H756 0.930 . S
C737 N735 1.375 . S
C737 C736 1.338 . S
C737 H741 0.931 . S
C738 N735 1.313 . S
C738 N739 1.344 . S
C738 H742 0.930 . S
N739 C736 1.377 . S
N739 C738 1.344 . S
O740 Co732 2.055 . S
O740 C744 1.253 . S
H741 C737 0.931 . S
H742 C738 0.930 . S
O743 Co732 2.039 . S
O743 C733 1.265 . S
C744 O740 1.253 . S
C744 O745 1.227 . S
O745 C744 1.227 . S
N746 Co732 2.140 . S
N746 C749 1.346 . S
N746 C750 1.345 . S
C747 C748 1.387 . S
C747 C751 1.391 . S
C748 C747 1.387 . S
C748 C749 1.369 . S
C748 H757 0.929 . S
C749 N746 1.346 . S
C749 C748 1.369 . S
C749 H752 0.928 . S
C750 N746 1.345 . S
C750 C751 1.371 . S
C750 H753 0.931 . S
C751 C747 1.391 . S
C751 C750 1.371 . S
C751 H758 0.930 . S
H752 C749 0.928 . S
H753 C750 0.931 . S
H754 C730 0.930 . S
H755 C727 0.930 . S
H756 C736 0.930 . S
H757 C748 0.929 . S
H758 C751 0.930 . S
C759 C760 1.351 . S
C759 N762 1.368 . S
C759 H764 0.931 . S
C760 C759 1.351 . S
C760 N761 1.373 . S
C760 H788 0.930 . S
N761 C760 1.373 . S
N761 C763 1.340 . S
N762 C759 1.368 . S
N762 C763 1.321 . S
N762 Co765 2.135 . S
C763 N761 1.340 . S
C763 N762 1.321 . S
C763 H787 0.930 . S
H764 C759 0.931 . S
Co765 N762 2.135 . S
Co765 N768 2.121 . S
Co765 O773 2.055 . S
Co765 O776 2.039 . S
Co765 N779 2.140 . S
C766 O767 1.227 . S
C766 O776 1.265 . S
O767 C766 1.227 . S
N768 Co765 2.121 . S
N768 C770 1.375 . S
N768 C771 1.313 . S
C769 C770 1.338 . S
C769 N772 1.377 . S
C769 H789 0.930 . S
C770 N768 1.375 . S
C770 C769 1.338 . S
C770 H774 0.931 . S
C771 N768 1.313 . S
C771 N772 1.344 . S
C771 H775 0.930 . S
N772 C769 1.377 . S
N772 C771 1.344 . S
O773 Co765 2.055 . S
O773 C777 1.253 . S
H774 C770 0.931 . S
H775 C771 0.930 . S
O776 Co765 2.039 . S
O776 C766 1.265 . S
C777 O773 1.253 . S
C777 O778 1.227 . S
O778 C777 1.227 . S
N779 Co765 2.140 . S
N779 C782 1.346 . S
N779 C783 1.345 . S
C780 C781 1.387 . S
C780 C784 1.391 . S
C781 C780 1.387 . S
C781 C782 1.369 . S
C781 H790 0.929 . S
C782 N779 1.346 . S
C782 C781 1.369 . S
C782 H785 0.928 . S
C783 N779 1.345 . S
C783 C784 1.371 . S
C783 H786 0.931 . S
C784 C780 1.391 . S
C784 C783 1.371 . S
C784 H791 0.930 . S
H785 C782 0.928 . S
H786 C783 0.931 . S
H787 C763 0.930 . S
H788 C760 0.930 . S
H789 C769 0.930 . S
H790 C781 0.929 . S
H791 C784 0.930 . S
C792 C793 1.351 . S
C792 N795 1.368 . S
C792 H797 0.931 . S
C793 C792 1.351 . S
C793 N794 1.373 . S
C793 H821 0.930 . S
N794 C793 1.373 . S
N794 C796 1.340 . S
N795 C792 1.368 . S
N795 C796 1.321 . S
N795 Co798 2.135 . S
C796 N794 1.340 . S
C796 N795 1.321 . S
C796 H820 0.930 . S
H797 C792 0.931 . S
Co798 N795 2.135 . S
Co798 N801 2.121 . S
Co798 O806 2.055 . S
Co798 O809 2.039 . S
Co798 N812 2.140 . S
C799 O800 1.227 . S
C799 O809 1.265 . S
O800 C799 1.227 . S
N801 Co798 2.121 . S
N801 C803 1.375 . S
N801 C804 1.313 . S
C802 C803 1.338 . S
C802 N805 1.377 . S
C802 H822 0.930 . S
C803 N801 1.375 . S
C803 C802 1.338 . S
C803 H807 0.931 . S
C804 N801 1.313 . S
C804 N805 1.344 . S
C804 H808 0.930 . S
N805 C802 1.377 . S
N805 C804 1.344 . S
O806 Co798 2.055 . S
O806 C810 1.253 . S
H807 C803 0.931 . S
H808 C804 0.930 . S
O809 Co798 2.039 . S
O809 C799 1.265 . S
C810 O806 1.253 . S
C810 O811 1.227 . S
O811 C810 1.227 . S
N812 Co798 2.140 . S
N812 C815 1.346 . S
N812 C816 1.345 . S
C813 C814 1.387 . S
C813 C817 1.391 . S
C814 C813 1.387 . S
C814 C815 1.369 . S
C814 H823 0.929 . S
C815 N812 1.346 . S
C815 C814 1.369 . S
C815 H818 0.928 . S
C816 N812 1.345 . S
C816 C817 1.371 . S
C816 H819 0.931 . S
C817 C813 1.391 . S
C817 C816 1.371 . S
C817 H824 0.930 . S
H818 C815 0.928 . S
H819 C816 0.931 . S
H820 C796 0.930 . S
H821 C793 0.930 . S
H822 C802 0.930 . S
H823 C814 0.929 . S
H824 C817 0.930 . S
C825 C826 1.351 . S
C825 N828 1.368 . S
C825 H830 0.931 . S
C826 C825 1.351 . S
C826 N827 1.373 . S
C826 H854 0.930 . S
N827 C826 1.373 . S
N827 C829 1.340 . S
N828 C825 1.368 . S
N828 C829 1.321 . S
N828 Co831 2.135 . S
C829 N827 1.340 . S
C829 N828 1.321 . S
C829 H853 0.930 . S
H830 C825 0.931 . S
Co831 N828 2.135 . S
Co831 N834 2.121 . S
Co831 O839 2.055 . S
Co831 O842 2.039 . S
Co831 N845 2.140 . S
C832 O833 1.227 . S
C832 O842 1.265 . S
O833 C832 1.227 . S
N834 Co831 2.121 . S
N834 C836 1.375 . S
N834 C837 1.313 . S
C835 C836 1.338 . S
C835 N838 1.377 . S
C835 H855 0.930 . S
C836 N834 1.375 . S
C836 C835 1.338 . S
C836 H840 0.931 . S
C837 N834 1.313 . S
C837 N838 1.344 . S
C837 H841 0.930 . S
N838 C835 1.377 . S
N838 C837 1.344 . S
O839 Co831 2.055 . S
O839 C843 1.253 . S
H840 C836 0.931 . S
H841 C837 0.930 . S
O842 Co831 2.039 . S
O842 C832 1.265 . S
C843 O839 1.253 . S
C843 O844 1.227 . S
O844 C843 1.227 . S
N845 Co831 2.140 . S
N845 C848 1.346 . S
N845 C849 1.345 . S
C846 C847 1.387 . S
C846 C850 1.391 . S
C847 C846 1.387 . S
C847 C848 1.369 . S
C847 H856 0.929 . S
C848 N845 1.346 . S
C848 C847 1.369 . S
C848 H851 0.928 . S
C849 N845 1.345 . S
C849 C850 1.371 . S
C849 H852 0.931 . S
C850 C846 1.391 . S
C850 C849 1.371 . S
C850 H857 0.930 . S
H851 C848 0.928 . S
H852 C849 0.931 . S
H853 C829 0.930 . S
H854 C826 0.930 . S
H855 C835 0.930 . S
H856 C847 0.929 . S
H857 C850 0.930 . S
C858 C859 1.351 . S
C858 N861 1.368 . S
C858 H863 0.931 . S
C859 C858 1.351 . S
C859 N860 1.373 . S
C859 H887 0.930 . S
N860 C859 1.373 . S
N860 C862 1.340 . S
N861 C858 1.368 . S
N861 C862 1.321 . S
N861 Co864 2.135 . S
C862 N860 1.340 . S
C862 N861 1.321 . S
C862 H886 0.930 . S
H863 C858 0.931 . S
Co864 N861 2.135 . S
Co864 N867 2.121 . S
Co864 O872 2.055 . S
Co864 O875 2.039 . S
Co864 N878 2.140 . S
C865 O866 1.227 . S
C865 O875 1.265 . S
O866 C865 1.227 . S
N867 Co864 2.121 . S
N867 C869 1.375 . S
N867 C870 1.313 . S
C868 C869 1.338 . S
C868 N871 1.377 . S
C868 H888 0.930 . S
C869 N867 1.375 . S
C869 C868 1.338 . S
C869 H873 0.931 . S
C870 N867 1.313 . S
C870 N871 1.344 . S
C870 H874 0.930 . S
N871 C868 1.377 . S
N871 C870 1.344 . S
O872 Co864 2.055 . S
O872 C876 1.253 . S
H873 C869 0.931 . S
H874 C870 0.930 . S
O875 Co864 2.039 . S
O875 C865 1.265 . S
C876 O872 1.253 . S
C876 O877 1.227 . S
O877 C876 1.227 . S
N878 Co864 2.140 . S
N878 C881 1.346 . S
N878 C882 1.345 . S
C879 C880 1.387 . S
C879 C883 1.391 . S
C880 C879 1.387 . S
C880 C881 1.369 . S
C880 H889 0.929 . S
C881 N878 1.346 . S
C881 C880 1.369 . S
C881 H884 0.928 . S
C882 N878 1.345 . S
C882 C883 1.371 . S
C882 H885 0.931 . S
C883 C879 1.391 . S
C883 C882 1.371 . S
C883 H890 0.930 . S
H884 C881 0.928 . S
H885 C882 0.931 . S
H886 C862 0.930 . S
H887 C859 0.930 . S
H888 C868 0.930 . S
H889 C880 0.929 . S
H890 C883 0.930 . S
C891 C892 1.351 . S
C891 N894 1.368 . S
C891 H896 0.931 . S
C892 C891 1.351 . S
C892 N893 1.373 . S
C892 H920 0.930 . S
N893 C892 1.373 . S
N893 C895 1.340 . S
N894 C891 1.368 . S
N894 C895 1.321 . S
N894 Co897 2.135 . S
C895 N893 1.340 . S
C895 N894 1.321 . S
C895 H919 0.930 . S
H896 C891 0.931 . S
Co897 N894 2.135 . S
Co897 N900 2.121 . S
Co897 O905 2.055 . S
Co897 O908 2.039 . S
Co897 N911 2.140 . S
C898 O899 1.227 . S
C898 O908 1.265 . S
O899 C898 1.227 . S
N900 Co897 2.121 . S
N900 C902 1.375 . S
N900 C903 1.313 . S
C901 C902 1.338 . S
C901 N904 1.377 . S
C901 H921 0.930 1_455 S
C902 N900 1.375 . S
C902 C901 1.338 . S
C902 H906 0.931 . S
C903 N900 1.313 . S
C903 N904 1.344 . S
C903 H907 0.930 . S
N904 C901 1.377 . S
N904 C903 1.344 . S
O905 Co897 2.055 . S
O905 C909 1.253 . S
H906 C902 0.931 . S
H907 C903 0.930 . S
O908 Co897 2.039 . S
O908 C898 1.265 . S
C909 O905 1.253 . S
C909 O910 1.227 . S
O910 C909 1.227 . S
N911 Co897 2.140 . S
N911 C914 1.346 . S
N911 C915 1.345 . S
C912 C913 1.387 . S
C912 C916 1.391 . S
C913 C912 1.387 . S
C913 C914 1.369 . S
C913 H922 0.929 . S
C914 N911 1.346 . S
C914 C913 1.369 . S
C914 H917 0.928 . S
C915 N911 1.345 . S
C915 C916 1.371 . S
C915 H918 0.931 . S
C916 C912 1.391 . S
C916 C915 1.371 . S
C916 H923 0.930 . S
H917 C914 0.928 . S
H918 C915 0.931 . S
H919 C895 0.930 . S
H920 C892 0.930 . S
H921 C901 0.930 1_655 S
H922 C913 0.929 . S
H923 C916 0.930 . S
C924 C925 1.351 . S
C924 N927 1.368 . S
C924 H929 0.931 . S
C925 C924 1.351 . S
C925 N926 1.373 . S
C925 H953 0.930 . S
N926 C925 1.373 . S
N926 C928 1.340 . S
N927 C924 1.368 . S
N927 C928 1.321 . S
N927 Co930 2.135 . S
C928 N926 1.340 . S
C928 N927 1.321 . S
C928 H952 0.930 . S
H929 C924 0.931 . S
Co930 N927 2.135 . S
Co930 N933 2.121 . S
Co930 O938 2.055 . S
Co930 O941 2.039 . S
Co930 N944 2.140 . S
C931 O932 1.227 . S
C931 O941 1.265 . S
O932 C931 1.227 . S
N933 Co930 2.121 . S
N933 C935 1.375 . S
N933 C936 1.313 . S
C934 C935 1.338 . S
C934 N937 1.377 . S
C934 H954 0.930 . S
C935 N933 1.375 . S
C935 C934 1.338 . S
C935 H939 0.931 . S
C936 N933 1.313 . S
C936 N937 1.344 . S
C936 H940 0.930 . S
N937 C934 1.377 . S
N937 C936 1.344 . S
O938 Co930 2.055 . S
O938 C942 1.253 . S
H939 C935 0.931 . S
H940 C936 0.930 . S
O941 Co930 2.039 . S
O941 C931 1.265 . S
C942 O938 1.253 . S
C942 O943 1.227 . S
O943 C942 1.227 . S
N944 Co930 2.140 . S
N944 C947 1.346 . S
N944 C948 1.345 . S
C945 C946 1.387 . S
C945 C949 1.391 . S
C946 C945 1.387 . S
C946 C947 1.369 . S
C946 H955 0.929 . S
C947 N944 1.346 . S
C947 C946 1.369 . S
C947 H950 0.928 . S
C948 N944 1.345 . S
C948 C949 1.371 . S
C948 H951 0.931 . S
C949 C945 1.391 . S
C949 C948 1.371 . S
C949 H956 0.930 . S
H950 C947 0.928 . S
H951 C948 0.931 . S
H952 C928 0.930 . S
H953 C925 0.930 . S
H954 C934 0.930 . S
H955 C946 0.929 . S
H956 C949 0.930 . S
C957 C958 1.351 . S
C957 N960 1.368 . S
C957 H962 0.931 . S
C958 C957 1.351 . S
C958 N959 1.373 . S
C958 H986 0.930 . S
N959 C958 1.373 . S
N959 C961 1.340 . S
N960 C957 1.368 . S
N960 C961 1.321 . S
N960 Co963 2.135 . S
C961 N959 1.340 . S
C961 N960 1.321 . S
C961 H985 0.930 . S
H962 C957 0.931 . S
Co963 N960 2.135 . S
Co963 N966 2.121 . S
Co963 O971 2.055 . S
Co963 O974 2.039 . S
Co963 N977 2.140 . S
C964 O965 1.227 . S
C964 O974 1.265 . S
O965 C964 1.227 . S
N966 Co963 2.121 . S
N966 C968 1.375 . S
N966 C969 1.313 . S
C967 C968 1.338 . S
C967 N970 1.377 . S
C967 H987 0.930 1_455 S
C968 N966 1.375 . S
C968 C967 1.338 . S
C968 H972 0.931 . S
C969 N966 1.313 . S
C969 N970 1.344 . S
C969 H973 0.930 . S
N970 C967 1.377 . S
N970 C969 1.344 . S
O971 Co963 2.055 . S
O971 C975 1.253 . S
H972 C968 0.931 . S
H973 C969 0.930 . S
O974 Co963 2.039 . S
O974 C964 1.265 . S
C975 O971 1.253 . S
C975 O976 1.227 . S
O976 C975 1.227 . S
N977 Co963 2.140 . S
N977 C980 1.346 . S
N977 C981 1.345 . S
C978 C979 1.387 . S
C978 C982 1.391 . S
C979 C978 1.387 . S
C979 C980 1.369 . S
C979 H988 0.929 . S
C980 N977 1.346 . S
C980 C979 1.369 . S
C980 H983 0.928 . S
C981 N977 1.345 . S
C981 C982 1.371 . S
C981 H984 0.931 . S
C982 C978 1.391 . S
C982 C981 1.371 . S
C982 H989 0.930 . S
H983 C980 0.928 . S
H984 C981 0.931 . S
H985 C961 0.930 . S
H986 C958 0.930 . S
H987 C967 0.930 1_655 S
H988 C979 0.929 . S
H989 C982 0.930 . S
C990 C991 1.351 . S
C990 N993 1.368 . S
C990 H995 0.931 . S
C991 C990 1.351 . S
C991 N992 1.373 . S
C991 H1019 0.930 . S
N992 C991 1.373 . S
N992 C994 1.340 . S
N993 C990 1.368 . S
N993 C994 1.321 . S
N993 Co996 2.135 . S
C994 N992 1.340 . S
C994 N993 1.321 . S
C994 H1018 0.930 . S
H995 C990 0.931 . S
Co996 N993 2.135 . S
Co996 N999 2.121 . S
Co996 O1004 2.055 . S
Co996 O1007 2.039 . S
Co996 N1010 2.140 . S
C997 O998 1.227 . S
C997 O1007 1.265 . S
O998 C997 1.227 . S
N999 Co996 2.121 . S
N999 C1001 1.375 . S
N999 C1002 1.313 . S
C1000 C1001 1.338 . S
C1000 N1003 1.377 . S
C1000 H1020 0.930 . S
C1001 N999 1.375 . S
C1001 C1000 1.338 . S
C1001 H1005 0.931 . S
C1002 N999 1.313 . S
C1002 N1003 1.344 . S
C1002 H1006 0.930 . S
N1003 C1000 1.377 . S
N1003 C1002 1.344 . S
O1004 Co996 2.055 . S
O1004 C1008 1.253 . S
H1005 C1001 0.931 . S
H1006 C1002 0.930 . S
O1007 Co996 2.039 . S
O1007 C997 1.265 . S
C1008 O1004 1.253 . S
C1008 O1009 1.227 . S
O1009 C1008 1.227 . S
N1010 Co996 2.140 . S
N1010 C1013 1.346 . S
N1010 C1014 1.345 . S
C1011 C1012 1.387 . S
C1011 C1015 1.391 . S
C1012 C1011 1.387 . S
C1012 C1013 1.369 . S
C1012 H1021 0.929 . S
C1013 N1010 1.346 . S
C1013 C1012 1.369 . S
C1013 H1016 0.928 . S
C1014 N1010 1.345 . S
C1014 C1015 1.371 . S
C1014 H1017 0.931 . S
C1015 C1011 1.391 . S
C1015 C1014 1.371 . S
C1015 H1022 0.930 . S
H1016 C1013 0.928 . S
H1017 C1014 0.931 . S
H1018 C994 0.930 . S
H1019 C991 0.930 . S
H1020 C1000 0.930 . S
H1021 C1012 0.929 . S
H1022 C1015 0.930 . S
C1023 C1024 1.351 . S
C1023 N1026 1.368 . S
C1023 H1028 0.931 . S
C1024 C1023 1.351 . S
C1024 N1025 1.373 . S
C1024 H1052 0.930 . S
N1025 C1024 1.373 . S
N1025 C1027 1.340 . S
N1026 C1023 1.368 . S
N1026 C1027 1.321 . S
N1026 Co1029 2.135 . S
C1027 N1025 1.340 . S
C1027 N1026 1.321 . S
C1027 H1051 0.930 . S
H1028 C1023 0.931 . S
Co1029 N1026 2.135 . S
Co1029 N1032 2.121 . S
Co1029 O1037 2.055 . S
Co1029 O1040 2.039 . S
Co1029 N1043 2.140 . S
C1030 O1031 1.227 . S
C1030 O1040 1.265 . S
O1031 C1030 1.227 . S
N1032 Co1029 2.121 . S
N1032 C1034 1.375 . S
N1032 C1035 1.313 . S
C1033 C1034 1.338 . S
C1033 N1036 1.377 . S
C1033 H1053 0.930 . S
C1034 N1032 1.375 . S
C1034 C1033 1.338 . S
C1034 H1038 0.931 . S
C1035 N1032 1.313 . S
C1035 N1036 1.344 . S
C1035 H1039 0.930 . S
N1036 C1033 1.377 . S
N1036 C1035 1.344 . S
O1037 Co1029 2.055 . S
O1037 C1041 1.253 . S
H1038 C1034 0.931 . S
H1039 C1035 0.930 . S
O1040 Co1029 2.039 . S
O1040 C1030 1.265 . S
C1041 O1037 1.253 . S
C1041 O1042 1.227 . S
O1042 C1041 1.227 . S
N1043 Co1029 2.140 . S
N1043 C1046 1.346 . S
N1043 C1047 1.345 . S
C1044 C1045 1.387 . S
C1044 C1048 1.391 . S
C1045 C1044 1.387 . S
C1045 C1046 1.369 . S
C1045 H1054 0.929 . S
C1046 N1043 1.346 . S
C1046 C1045 1.369 . S
C1046 H1049 0.928 . S
C1047 N1043 1.345 . S
C1047 C1048 1.371 . S
C1047 H1050 0.931 . S
C1048 C1044 1.391 . S
C1048 C1047 1.371 . S
C1048 H1055 0.930 . S
H1049 C1046 0.928 . S
H1050 C1047 0.931 . S
H1051 C1027 0.930 . S
H1052 C1024 0.930 . S
H1053 C1033 0.930 . S
H1054 C1045 0.929 . S
H1055 C1048 0.930 . S
H1056 C1062 0.930 . S
H1057 C1065 0.930 . S
H1058 C1066 0.930 . S
H1059 C1067 0.930 . S
H1060 C1070 0.930 . S
H1061 C1071 0.930 . S
C1062 H1056 0.930 . S
C1062 C1063 1.355 . S
C1062 C1064 1.415 . S
C1063 C1062 1.355 . S
C1063 C1065 1.419 . S
C1064 C1062 1.415 . S
C1064 C1069 1.425 . S
C1064 C1071 1.409 . S
C1065 H1057 0.930 . S
C1065 C1063 1.419 . S
C1065 C1066 1.362 . S
C1066 H1058 0.930 . S
C1066 C1065 1.362 . S
C1066 C1069 1.409 . S
C1067 H1059 0.930 . S
C1067 C1068 1.355 . S
C1067 C1069 1.415 . S
C1068 C1067 1.355 . S
C1068 C1070 1.419 . S
C1069 C1064 1.425 . S
C1069 C1066 1.409 . S
C1069 C1067 1.415 . S
C1070 H1060 0.930 . S
C1070 C1068 1.419 . S
C1070 C1071 1.362 . S
C1071 H1061 0.930 . S
C1071 C1064 1.409 . S
C1071 C1070 1.362 . S
H1072 C1078 0.930 1_455 S
H1073 C1081 0.930 . S
H1074 C1082 0.930 . S
H1075 C1083 0.930 . S
H1076 C1086 0.930 . S
H1077 C1087 0.930 . S
C1078 H1072 0.930 1_655 S
C1078 C1079 1.355 . S
C1078 C1080 1.415 . S
C1079 C1078 1.355 . S
C1079 C1081 1.419 . S
C1080 C1078 1.415 . S
C1080 C1085 1.425 . S
C1080 C1087 1.409 . S
C1081 H1073 0.930 . S
C1081 C1079 1.419 . S
C1081 C1082 1.362 . S
C1082 H1074 0.930 . S
C1082 C1081 1.362 . S
C1082 C1085 1.409 . S
C1083 H1075 0.930 . S
C1083 C1084 1.355 . S
C1083 C1085 1.415 . S
C1084 C1083 1.355 . S
C1084 C1086 1.419 . S
C1085 C1080 1.425 . S
C1085 C1082 1.409 . S
C1085 C1083 1.415 . S
C1086 H1076 0.930 . S
C1086 C1084 1.419 . S
C1086 C1087 1.362 . S
C1087 H1077 0.930 . S
C1087 C1080 1.409 . S
C1087 C1086 1.362 . S
H1088 C1094 0.930 . S
H1089 C1097 0.930 . S
H1090 C1098 0.930 . S
H1091 C1099 0.930 . S
H1092 C1102 0.930 . S
H1093 C1103 0.930 . S
C1094 H1088 0.930 . S
C1094 C1095 1.355 . S
C1094 C1096 1.415 . S
C1095 C1094 1.355 . S
C1095 C1097 1.419 . S
C1096 C1094 1.415 . S
C1096 C1101 1.425 . S
C1096 C1103 1.409 . S
C1097 H1089 0.930 . S
C1097 C1095 1.419 . S
C1097 C1098 1.362 . S
C1098 H1090 0.930 . S
C1098 C1097 1.362 . S
C1098 C1101 1.409 . S
C1099 H1091 0.930 . S
C1099 C1100 1.355 . S
C1099 C1101 1.415 . S
C1100 C1099 1.355 . S
C1100 C1102 1.419 . S
C1101 C1096 1.425 . S
C1101 C1098 1.409 . S
C1101 C1099 1.415 . S
C1102 H1092 0.930 . S
C1102 C1100 1.419 . S
C1102 C1103 1.362 . S
C1103 H1093 0.930 . S
C1103 C1096 1.409 . S
C1103 C1102 1.362 . S
H1104 C1110 0.930 . S
H1105 C1113 0.930 . S
H1106 C1114 0.930 . S
H1107 C1115 0.930 . S
H1108 C1118 0.930 . S
H1109 C1119 0.930 . S
C1110 H1104 0.930 . S
C1110 C1111 1.355 . S
C1110 C1112 1.415 . S
C1111 C1110 1.355 . S
C1111 C1113 1.419 . S
C1112 C1110 1.415 . S
C1112 C1117 1.425 . S
C1112 C1119 1.409 . S
C1113 H1105 0.930 . S
C1113 C1111 1.419 . S
C1113 C1114 1.362 . S
C1114 H1106 0.930 . S
C1114 C1113 1.362 . S
C1114 C1117 1.409 . S
C1115 H1107 0.930 . S
C1115 C1116 1.355 . S
C1115 C1117 1.415 . S
C1116 C1115 1.355 . S
C1116 C1118 1.419 . S
C1117 C1112 1.425 . S
C1117 C1114 1.409 . S
C1117 C1115 1.415 . S
C1118 H1108 0.930 . S
C1118 C1116 1.419 . S
C1118 C1119 1.362 . S
C1119 H1109 0.930 . S
C1119 C1112 1.409 . S
C1119 C1118 1.362 . S
H1120 C1126 0.930 . S
H1121 C1129 0.930 . S
H1122 C1130 0.930 . S
H1123 C1131 0.930 . S
H1124 C1134 0.930 . S
H1125 C1135 0.930 . S
C1126 H1120 0.930 . S
C1126 C1127 1.355 . S
C1126 C1128 1.415 . S
C1127 C1126 1.355 . S
C1127 C1129 1.419 . S
C1128 C1126 1.415 . S
C1128 C1133 1.425 . S
C1128 C1135 1.409 . S
C1129 H1121 0.930 . S
C1129 C1127 1.419 . S
C1129 C1130 1.362 . S
C1130 H1122 0.930 . S
C1130 C1129 1.362 . S
C1130 C1133 1.409 . S
C1131 H1123 0.930 . S
C1131 C1132 1.355 . S
C1131 C1133 1.415 . S
C1132 C1131 1.355 . S
C1132 C1134 1.419 . S
C1133 C1128 1.425 . S
C1133 C1130 1.409 . S
C1133 C1131 1.415 . S
C1134 H1124 0.930 . S
C1134 C1132 1.419 . S
C1134 C1135 1.362 . S
C1135 H1125 0.930 . S
C1135 C1128 1.409 . S
C1135 C1134 1.362 . S
H1136 C1142 0.930 . S
H1137 C1145 0.930 . S
H1138 C1146 0.930 . S
H1139 C1147 0.930 . S
H1140 C1150 0.930 . S
H1141 C1151 0.930 . S
C1142 H1136 0.930 . S
C1142 C1143 1.355 . S
C1142 C1144 1.415 . S
C1143 C1142 1.355 . S
C1143 C1145 1.419 . S
C1144 C1142 1.415 . S
C1144 C1149 1.425 . S
C1144 C1151 1.409 . S
C1145 H1137 0.930 . S
C1145 C1143 1.419 . S
C1145 C1146 1.362 . S
C1146 H1138 0.930 . S
C1146 C1145 1.362 . S
C1146 C1149 1.409 . S
C1147 H1139 0.930 . S
C1147 C1148 1.355 . S
C1147 C1149 1.415 . S
C1148 C1147 1.355 . S
C1148 C1150 1.419 . S
C1149 C1144 1.425 . S
C1149 C1146 1.409 . S
C1149 C1147 1.415 . S
C1150 H1140 0.930 . S
C1150 C1148 1.419 . S
C1150 C1151 1.362 . S
C1151 H1141 0.930 . S
C1151 C1144 1.409 . S
C1151 C1150 1.362 . S
H1152 C1158 0.930 . S
H1153 C1161 0.930 . S
H1154 C1162 0.930 . S
H1155 C1163 0.930 . S
H1156 C1166 0.930 . S
H1157 C1167 0.930 . S
C1158 H1152 0.930 . S
C1158 C1159 1.355 . S
C1158 C1160 1.415 . S
C1159 C1158 1.355 . S
C1159 C1161 1.419 . S
C1160 C1158 1.415 . S
C1160 C1165 1.425 . S
C1160 C1167 1.409 . S
C1161 H1153 0.930 . S
C1161 C1159 1.419 . S
C1161 C1162 1.362 . S
C1162 H1154 0.930 . S
C1162 C1161 1.362 . S
C1162 C1165 1.409 . S
C1163 H1155 0.930 . S
C1163 C1164 1.355 . S
C1163 C1165 1.415 . S
C1164 C1163 1.355 . S
C1164 C1166 1.419 . S
C1165 C1160 1.425 . S
C1165 C1162 1.409 . S
C1165 C1163 1.415 . S
C1166 H1156 0.930 . S
C1166 C1164 1.419 . S
C1166 C1167 1.362 . S
C1167 H1157 0.930 . S
C1167 C1160 1.409 . S
C1167 C1166 1.362 . S
H1168 C1174 0.930 . S
H1169 C1177 0.930 . S
H1170 C1178 0.930 . S
H1171 C1179 0.930 . S
H1172 C1182 0.930 . S
H1173 C1183 0.930 1_455 S
C1174 H1168 0.930 . S
C1174 C1175 1.355 . S
C1174 C1176 1.415 . S
C1175 C1174 1.355 . S
C1175 C1177 1.419 . S
C1176 C1174 1.415 . S
C1176 C1181 1.425 . S
C1176 C1183 1.409 . S
C1177 H1169 0.930 . S
C1177 C1175 1.419 . S
C1177 C1178 1.362 . S
C1178 H1170 0.930 . S
C1178 C1177 1.362 . S
C1178 C1181 1.409 . S
C1179 H1171 0.930 . S
C1179 C1180 1.355 . S
C1179 C1181 1.415 . S
C1180 C1179 1.355 . S
C1180 C1182 1.419 1_655 S
C1181 C1176 1.425 . S
C1181 C1178 1.409 . S
C1181 C1179 1.415 . S
C1182 H1172 0.930 . S
C1182 C1180 1.419 1_455 S
C1182 C1183 1.362 1_455 S
C1183 H1173 0.930 1_655 S
C1183 C1176 1.409 . S
C1183 C1182 1.362 1_655 S
H1184 C1190 0.930 . S
H1185 C1193 0.930 . S
H1186 C1194 0.930 . S
H1187 C1195 0.930 . S
H1188 C1198 0.930 . S
H1189 C1199 0.930 . S
C1190 H1184 0.930 . S
C1190 C1191 1.355 . S
C1190 C1192 1.415 . S
C1191 C1190 1.355 . S
C1191 C1193 1.419 . S
C1192 C1190 1.415 . S
C1192 C1197 1.425 . S
C1192 C1199 1.409 . S
C1193 H1185 0.930 . S
C1193 C1191 1.419 . S
C1193 C1194 1.362 . S
C1194 H1186 0.930 . S
C1194 C1193 1.362 . S
C1194 C1197 1.409 . S
C1195 H1187 0.930 . S
C1195 C1196 1.355 . S
C1195 C1197 1.415 . S
C1196 C1195 1.355 . S
C1196 C1198 1.419 . S
C1197 C1192 1.425 . S
C1197 C1194 1.409 . S
C1197 C1195 1.415 . S
C1198 H1188 0.930 . S
C1198 C1196 1.419 . S
C1198 C1199 1.362 . S
C1199 H1189 0.930 . S
C1199 C1192 1.409 . S
C1199 C1198 1.362 . S
H1200 C1206 0.930 . S
H1201 C1209 0.930 . S
H1202 C1210 0.930 . S
H1203 C1211 0.930 . S
H1204 C1214 0.930 . S
H1205 C1215 0.930 . S
C1206 H1200 0.930 . S
C1206 C1207 1.355 . S
C1206 C1208 1.415 . S
C1207 C1206 1.355 . S
C1207 C1209 1.419 1_455 S
C1208 C1206 1.415 . S
C1208 C1213 1.425 . S
C1208 C1215 1.409 . S
C1209 H1201 0.930 . S
C1209 C1207 1.419 1_655 S
C1209 C1210 1.362 1_655 S
C1210 H1202 0.930 . S
C1210 C1209 1.362 1_455 S
C1210 C1213 1.409 . S
C1211 H1203 0.930 . S
C1211 C1212 1.355 . S
C1211 C1213 1.415 . S
C1212 C1211 1.355 . S
C1212 C1214 1.419 . S
C1213 C1208 1.425 . S
C1213 C1210 1.409 . S
C1213 C1211 1.415 . S
C1214 H1204 0.930 . S
C1214 C1212 1.419 . S
C1214 C1215 1.362 . S
C1215 H1205 0.930 . S
C1215 C1208 1.409 . S
C1215 C1214 1.362 . S
H1216 C1222 0.930 . S
H1217 C1225 0.930 . S
H1218 C1226 0.930 . S
H1219 C1227 0.930 . S
H1220 C1230 0.930 . S
H1221 C1231 0.930 . S
C1222 H1216 0.930 . S
C1222 C1223 1.355 . S
C1222 C1224 1.415 . S
C1223 C1222 1.355 . S
C1223 C1225 1.419 . S
C1224 C1222 1.415 . S
C1224 C1229 1.425 . S
C1224 C1231 1.409 . S
C1225 H1217 0.930 . S
C1225 C1223 1.419 . S
C1225 C1226 1.362 . S
C1226 H1218 0.930 . S
C1226 C1225 1.362 . S
C1226 C1229 1.409 . S
C1227 H1219 0.930 . S
C1227 C1228 1.355 . S
C1227 C1229 1.415 . S
C1228 C1227 1.355 . S
C1228 C1230 1.419 . S
C1229 C1224 1.425 . S
C1229 C1226 1.409 . S
C1229 C1227 1.415 . S
C1230 H1220 0.930 . S
C1230 C1228 1.419 . S
C1230 C1231 1.362 . S
C1231 H1221 0.930 . S
C1231 C1224 1.409 . S
C1231 C1230 1.362 . S
H1232 C1238 0.930 . S
H1233 C1241 0.930 . S
H1234 C1242 0.930 . S
H1235 C1243 0.930 . S
H1236 C1246 0.930 . S
H1237 C1247 0.930 . S
C1238 H1232 0.930 . S
C1238 C1239 1.355 . S
C1238 C1240 1.415 . S
C1239 C1238 1.355 . S
C1239 C1241 1.419 . S
C1240 C1238 1.415 . S
C1240 C1245 1.425 . S
C1240 C1247 1.409 . S
C1241 H1233 0.930 . S
C1241 C1239 1.419 . S
C1241 C1242 1.362 . S
C1242 H1234 0.930 . S
C1242 C1241 1.362 . S
C1242 C1245 1.409 . S
C1243 H1235 0.930 . S
C1243 C1244 1.355 . S
C1243 C1245 1.415 . S
C1244 C1243 1.355 . S
C1244 C1246 1.419 . S
C1245 C1240 1.425 . S
C1245 C1242 1.409 . S
C1245 C1243 1.415 . S
C1246 H1236 0.930 . S
C1246 C1244 1.419 . S
C1246 C1247 1.362 . S
C1247 H1237 0.930 . S
C1247 C1240 1.409 . S
C1247 C1246 1.362 . S
H1248 C1254 0.930 . S
H1249 C1257 0.930 . S
H1250 C1258 0.930 . S
H1251 C1259 0.930 . S
H1252 C1262 0.930 . S
H1253 C1263 0.930 . S
C1254 H1248 0.930 . S
C1254 C1255 1.355 . S
C1254 C1256 1.415 . S
C1255 C1254 1.355 . S
C1255 C1257 1.419 . S
C1256 C1254 1.415 . S
C1256 C1261 1.425 . S
C1256 C1263 1.409 . S
C1257 H1249 0.930 . S
C1257 C1255 1.419 . S
C1257 C1258 1.362 . S
C1258 H1250 0.930 . S
C1258 C1257 1.362 . S
C1258 C1261 1.409 . S
C1259 H1251 0.930 . S
C1259 C1260 1.355 . S
C1259 C1261 1.415 . S
C1260 C1259 1.355 . S
C1260 C1262 1.419 . S
C1261 C1256 1.425 . S
C1261 C1258 1.409 . S
C1261 C1259 1.415 . S
C1262 H1252 0.930 . S
C1262 C1260 1.419 . S
C1262 C1263 1.362 . S
C1263 H1253 0.930 . S
C1263 C1256 1.409 . S
C1263 C1262 1.362 . S
H1264 C1270 0.930 . S
H1265 C1273 0.930 . S
H1266 C1274 0.930 . S
H1267 C1275 0.930 . S
H1268 C1278 0.930 . S
H1269 C1279 0.930 . S
C1270 H1264 0.930 . S
C1270 C1271 1.355 . S
C1270 C1272 1.415 . S
C1271 C1270 1.355 . S
C1271 C1273 1.419 . S
C1272 C1270 1.415 . S
C1272 C1277 1.425 . S
C1272 C1279 1.409 . S
C1273 H1265 0.930 . S
C1273 C1271 1.419 . S
C1273 C1274 1.362 . S
C1274 H1266 0.930 . S
C1274 C1273 1.362 . S
C1274 C1277 1.409 . S
C1275 H1267 0.930 . S
C1275 C1276 1.355 . S
C1275 C1277 1.415 . S
C1276 C1275 1.355 . S
C1276 C1278 1.419 . S
C1277 C1272 1.425 . S
C1277 C1274 1.409 . S
C1277 C1275 1.415 . S
C1278 H1268 0.930 . S
C1278 C1276 1.419 . S
C1278 C1279 1.362 . S
C1279 H1269 0.930 . S
C1279 C1272 1.409 . S
C1279 C1278 1.362 . S
H1280 C1286 0.930 . S
H1281 C1289 0.930 . S
H1282 C1290 0.930 . S
H1283 C1291 0.930 . S
H1284 C1294 0.930 . S
H1285 C1295 0.930 . S
C1286 H1280 0.930 . S
C1286 C1287 1.355 . S
C1286 C1288 1.415 . S
C1287 C1286 1.355 . S
C1287 C1289 1.419 . S
C1288 C1286 1.415 . S
C1288 C1293 1.425 . S
C1288 C1295 1.409 . S
C1289 H1281 0.930 . S
C1289 C1287 1.419 . S
C1289 C1290 1.362 . S
C1290 H1282 0.930 . S
C1290 C1289 1.362 . S
C1290 C1293 1.409 . S
C1291 H1283 0.930 . S
C1291 C1292 1.355 . S
C1291 C1293 1.415 . S
C1292 C1291 1.355 . S
C1292 C1294 1.419 . S
C1293 C1288 1.425 . S
C1293 C1290 1.409 . S
C1293 C1291 1.415 . S
C1294 H1284 0.930 . S
C1294 C1292 1.419 . S
C1294 C1295 1.362 . S
C1295 H1285 0.930 . S
C1295 C1288 1.409 . S
C1295 C1294 1.362 . S
H1296 C1302 0.930 . S
H1297 C1305 0.930 . S
H1298 C1306 0.930 . S
H1299 C1307 0.930 . S
H1300 C1310 0.930 . S
H1301 C1311 0.930 . S
C1302 H1296 0.930 . S
C1302 C1303 1.355 . S
C1302 C1304 1.415 . S
C1303 C1302 1.355 . S
C1303 C1305 1.419 . S
C1304 C1302 1.415 . S
C1304 C1309 1.425 . S
C1304 C1311 1.409 . S
C1305 H1297 0.930 . S
C1305 C1303 1.419 . S
C1305 C1306 1.362 . S
C1306 H1298 0.930 . S
C1306 C1305 1.362 . S
C1306 C1309 1.409 . S
C1307 H1299 0.930 . S
C1307 C1308 1.355 . S
C1307 C1309 1.415 . S
C1308 C1307 1.355 . S
C1308 C1310 1.419 . S
C1309 C1304 1.425 . S
C1309 C1306 1.409 . S
C1309 C1307 1.415 . S
C1310 H1300 0.930 . S
C1310 C1308 1.419 . S
C1310 C1311 1.362 . S
C1311 H1301 0.930 . S
C1311 C1304 1.409 . S
C1311 C1310 1.362 . S
H1312 C1318 0.930 . S
H1313 C1321 0.930 . S
H1314 C1322 0.930 . S
H1315 C1323 0.930 . S
H1316 C1326 0.930 . S
H1317 C1327 0.930 . S
C1318 H1312 0.930 . S
C1318 C1319 1.355 . S
C1318 C1320 1.415 . S
C1319 C1318 1.355 . S
C1319 C1321 1.419 . S
C1320 C1318 1.415 . S
C1320 C1325 1.425 . S
C1320 C1327 1.409 . S
C1321 H1313 0.930 . S
C1321 C1319 1.419 . S
C1321 C1322 1.362 . S
C1322 H1314 0.930 . S
C1322 C1321 1.362 . S
C1322 C1325 1.409 . S
C1323 H1315 0.930 . S
C1323 C1324 1.355 . S
C1323 C1325 1.415 . S
C1324 C1323 1.355 . S
C1324 C1326 1.419 . S
C1325 C1320 1.425 . S
C1325 C1322 1.409 . S
C1325 C1323 1.415 . S
C1326 H1316 0.930 . S
C1326 C1324 1.419 . S
C1326 C1327 1.362 . S
C1327 H1317 0.930 . S
C1327 C1320 1.409 . S
C1327 C1326 1.362 . S
H1328 C1334 0.930 . S
H1329 C1337 0.930 . S
H1330 C1338 0.930 . S
H1331 C1339 0.930 . S
H1332 C1342 0.930 . S
H1333 C1343 0.930 . S
C1334 H1328 0.930 . S
C1334 C1335 1.355 . S
C1334 C1336 1.415 . S
C1335 C1334 1.355 . S
C1335 C1337 1.419 . S
C1336 C1334 1.415 . S
C1336 C1341 1.425 . S
C1336 C1343 1.409 . S
C1337 H1329 0.930 . S
C1337 C1335 1.419 . S
C1337 C1338 1.362 . S
C1338 H1330 0.930 . S
C1338 C1337 1.362 . S
C1338 C1341 1.409 . S
C1339 H1331 0.930 . S
C1339 C1340 1.355 . S
C1339 C1341 1.415 . S
C1340 C1339 1.355 . S
C1340 C1342 1.419 . S
C1341 C1336 1.425 . S
C1341 C1338 1.409 . S
C1341 C1339 1.415 . S
C1342 H1332 0.930 . S
C1342 C1340 1.419 . S
C1342 C1343 1.362 . S
C1343 H1333 0.930 . S
C1343 C1336 1.409 . S
C1343 C1342 1.362 . S
H1344 C1350 0.930 . S
H1345 C1353 0.930 . S
H1346 C1354 0.930 . S
H1347 C1355 0.930 . S
H1348 C1358 0.930 . S
H1349 C1359 0.930 . S
C1350 H1344 0.930 . S
C1350 C1351 1.355 . S
C1350 C1352 1.415 . S
C1351 C1350 1.355 . S
C1351 C1353 1.419 . S
C1352 C1350 1.415 . S
C1352 C1357 1.425 . S
C1352 C1359 1.409 . S
C1353 H1345 0.930 . S
C1353 C1351 1.419 . S
C1353 C1354 1.362 . S
C1354 H1346 0.930 . S
C1354 C1353 1.362 . S
C1354 C1357 1.409 . S
C1355 H1347 0.930 . S
C1355 C1356 1.355 . S
C1355 C1357 1.415 . S
C1356 C1355 1.355 . S
C1356 C1358 1.419 . S
C1357 C1352 1.425 . S
C1357 C1354 1.409 . S
C1357 C1355 1.415 . S
C1358 H1348 0.930 . S
C1358 C1356 1.419 . S
C1358 C1359 1.362 . S
C1359 H1349 0.930 . S
C1359 C1352 1.409 . S
C1359 C1358 1.362 . S
H1360 C1366 0.918 1_655 S
H1361 C1369 0.930 . S
H1362 C1370 0.930 . S
H1363 C1371 0.930 . S
H1364 C1374 0.930 . S
H1365 C1375 0.930 . S
C1366 H1360 0.918 1_455 S
C1366 C1367 1.355 . S
C1366 C1368 1.415 . S
C1367 C1366 1.355 . S
C1367 C1369 1.419 . S
C1368 C1366 1.415 . S
C1368 C1373 1.425 . S
C1368 C1375 1.409 . S
C1369 H1361 0.930 . S
C1369 C1367 1.419 . S
C1369 C1370 1.362 . S
C1370 H1362 0.930 . S
C1370 C1369 1.362 . S
C1370 C1373 1.409 . S
C1371 H1363 0.930 . S
C1371 C1372 1.355 . S
C1371 C1373 1.415 . S
C1372 C1371 1.355 . S
C1372 C1374 1.419 . S
C1373 C1368 1.425 . S
C1373 C1370 1.409 . S
C1373 C1371 1.415 . S
C1374 H1364 0.930 . S
C1374 C1372 1.419 . S
C1374 C1375 1.362 . S
C1375 H1365 0.930 . S
C1375 C1368 1.409 . S
C1375 C1374 1.362 . S
H1376 C1382 0.930 . S
H1377 C1385 0.930 . S
H1378 C1386 0.930 . S
H1379 C1387 0.930 . S
H1380 C1390 0.930 . S
H1381 C1391 0.930 . S
C1382 H1376 0.930 . S
C1382 C1383 1.355 . S
C1382 C1384 1.415 . S
C1383 C1382 1.355 . S
C1383 C1385 1.419 . S
C1384 C1382 1.415 . S
C1384 C1389 1.425 . S
C1384 C1391 1.409 . S
C1385 H1377 0.930 . S
C1385 C1383 1.419 . S
C1385 C1386 1.362 . S
C1386 H1378 0.930 . S
C1386 C1385 1.362 . S
C1386 C1389 1.409 . S
C1387 H1379 0.930 . S
C1387 C1388 1.355 . S
C1387 C1389 1.415 . S
C1388 C1387 1.355 . S
C1388 C1390 1.419 . S
C1389 C1384 1.425 . S
C1389 C1386 1.409 . S
C1389 C1387 1.415 . S
C1390 H1380 0.930 . S
C1390 C1388 1.419 . S
C1390 C1391 1.362 . S
C1391 H1381 0.930 . S
C1391 C1384 1.409 . S
C1391 C1390 1.362 . S
H1392 C1398 0.930 . S
H1393 C1401 0.930 . S
H1394 C1402 0.930 . S
H1395 C1403 0.930 . S
H1396 C1406 0.930 . S
H1397 C1407 0.930 1_655 S
C1398 H1392 0.930 . S
C1398 C1399 1.355 . S
C1398 C1400 1.415 . S
C1399 C1398 1.355 . S
C1399 C1401 1.419 . S
C1400 C1398 1.415 . S
C1400 C1405 1.425 . S
C1400 C1407 1.409 . S
C1401 H1393 0.930 . S
C1401 C1399 1.419 . S
C1401 C1402 1.362 . S
C1402 H1394 0.930 . S
C1402 C1401 1.362 . S
C1402 C1405 1.409 . S
C1403 H1395 0.930 . S
C1403 C1404 1.355 . S
C1403 C1405 1.415 . S
C1404 C1403 1.355 . S
C1404 C1406 1.419 1_455 S
C1405 C1400 1.425 . S
C1405 C1402 1.409 . S
C1405 C1403 1.415 . S
C1406 H1396 0.930 . S
C1406 C1404 1.419 1_655 S
C1406 C1407 1.362 1_655 S
C1407 H1397 0.930 1_455 S
C1407 C1400 1.409 . S
C1407 C1406 1.362 1_455 S
H1408 C1414 0.930 . S
H1409 C1417 0.930 . S
H1410 C1418 0.930 . S
H1411 C1419 0.930 . S
H1412 C1422 0.930 . S
H1413 C1423 0.930 . S
C1414 H1408 0.930 . S
C1414 C1415 1.355 . S
C1414 C1416 1.415 . S
C1415 C1414 1.355 . S
C1415 C1417 1.419 . S
C1416 C1414 1.415 . S
C1416 C1421 1.425 . S
C1416 C1423 1.409 . S
C1417 H1409 0.930 . S
C1417 C1415 1.419 . S
C1417 C1418 1.362 . S
C1418 H1410 0.930 . S
C1418 C1417 1.362 . S
C1418 C1421 1.409 . S
C1419 H1411 0.930 . S
C1419 C1420 1.355 . S
C1419 C1421 1.415 . S
C1420 C1419 1.355 . S
C1420 C1422 1.419 . S
C1421 C1416 1.425 . S
C1421 C1418 1.409 . S
C1421 C1419 1.415 . S
C1422 H1412 0.930 . S
C1422 C1420 1.419 . S
C1422 C1423 1.362 . S
C1423 H1413 0.930 . S
C1423 C1416 1.409 . S
C1423 C1422 1.362 . S
H1424 C1430 0.930 . S
H1425 C1433 0.930 . S
H1426 C1434 0.930 . S
H1427 C1435 0.930 . S
H1428 C1438 0.930 . S
H1429 C1439 0.930 . S
C1430 H1424 0.930 . S
C1430 C1431 1.355 . S
C1430 C1432 1.415 . S
C1431 C1430 1.355 . S
C1431 C1433 1.419 . S
C1432 C1430 1.415 . S
C1432 C1437 1.425 . S
C1432 C1439 1.409 . S
C1433 H1425 0.930 . S
C1433 C1431 1.419 . S
C1433 C1434 1.362 . S
C1434 H1426 0.930 . S
C1434 C1433 1.362 . S
C1434 C1437 1.409 . S
C1435 H1427 0.930 . S
C1435 C1436 1.355 . S
C1435 C1437 1.415 . S
C1436 C1435 1.355 . S
C1436 C1438 1.419 . S
C1437 C1432 1.425 . S
C1437 C1434 1.409 . S
C1437 C1435 1.415 . S
C1438 H1428 0.930 . S
C1438 C1436 1.419 . S
C1438 C1439 1.362 . S
C1439 H1429 0.930 . S
C1439 C1432 1.409 . S
C1439 C1438 1.362 . S
H1440 C1446 0.930 . S
H1441 C1449 0.930 . S
H1442 C1450 0.930 . S
H1443 C1451 0.930 . S
H1444 C1454 0.930 . S
H1445 C1455 0.930 . S
C1446 H1440 0.930 . S
C1446 C1447 1.355 . S
C1446 C1448 1.415 . S
C1447 C1446 1.355 . S
C1447 C1449 1.419 . S
C1448 C1446 1.415 . S
C1448 C1453 1.425 . S
C1448 C1455 1.409 . S
C1449 H1441 0.930 . S
C1449 C1447 1.419 . S
C1449 C1450 1.362 . S
C1450 H1442 0.930 . S
C1450 C1449 1.362 . S
C1450 C1453 1.409 . S
C1451 H1443 0.930 . S
C1451 C1452 1.355 . S
C1451 C1453 1.415 . S
C1452 C1451 1.355 . S
C1452 C1454 1.419 . S
C1453 C1448 1.425 . S
C1453 C1450 1.409 . S
C1453 C1451 1.415 . S
C1454 H1444 0.930 . S
C1454 C1452 1.419 . S
C1454 C1455 1.362 . S
C1455 H1445 0.930 . S
C1455 C1448 1.409 . S
C1455 C1454 1.362 . S
H1456 C1462 0.930 . S
H1457 C1465 0.930 . S
H1458 C1466 0.930 . S
H1459 C1467 0.930 . S
H1460 C1470 0.930 . S
H1461 C1471 0.930 . S
C1462 H1456 0.930 . S
C1462 C1463 1.355 . S
C1462 C1464 1.415 . S
C1463 C1462 1.355 . S
C1463 C1465 1.419 . S
C1464 C1462 1.415 . S
C1464 C1469 1.425 . S
C1464 C1471 1.409 . S
C1465 H1457 0.930 . S
C1465 C1463 1.419 . S
C1465 C1466 1.362 . S
C1466 H1458 0.930 . S
C1466 C1465 1.362 . S
C1466 C1469 1.409 . S
C1467 H1459 0.930 . S
C1467 C1468 1.355 . S
C1467 C1469 1.415 . S
C1468 C1467 1.355 . S
C1468 C1470 1.419 . S
C1469 C1464 1.425 . S
C1469 C1466 1.409 . S
C1469 C1467 1.415 . S
C1470 H1460 0.930 . S
C1470 C1468 1.419 . S
C1470 C1471 1.362 . S
C1471 H1461 0.930 . S
C1471 C1464 1.409 . S
C1471 C1470 1.362 . S
H1472 C1478 0.930 . S
H1473 C1481 0.930 . S
H1474 C1482 0.930 . S
H1475 C1483 0.930 . S
H1476 C1486 0.930 . S
H1477 C1487 0.930 . S
C1478 H1472 0.930 . S
C1478 C1479 1.355 . S
C1478 C1480 1.415 . S
C1479 C1478 1.355 . S
C1479 C1481 1.419 . S
C1480 C1478 1.415 . S
C1480 C1485 1.425 . S
C1480 C1487 1.409 . S
C1481 H1473 0.930 . S
C1481 C1479 1.419 . S
C1481 C1482 1.362 . S
C1482 H1474 0.930 . S
C1482 C1481 1.362 . S
C1482 C1485 1.409 . S
C1483 H1475 0.930 . S
C1483 C1484 1.355 . S
C1483 C1485 1.415 . S
C1484 C1483 1.355 . S
C1484 C1486 1.419 . S
C1485 C1480 1.425 . S
C1485 C1482 1.409 . S
C1485 C1483 1.415 . S
C1486 H1476 0.930 . S
C1486 C1484 1.419 . S
C1486 C1487 1.362 . S
C1487 H1477 0.930 . S
C1487 C1480 1.409 . S
C1487 C1486 1.362 . S
H1488 C1494 0.930 . S
H1489 C1497 0.930 . S
H1490 C1498 0.930 . S
H1491 C1499 0.930 1_455 S
H1492 C1502 0.930 . S
H1493 C1503 0.930 . S
C1494 H1488 0.930 . S
C1494 C1495 1.355 . S
C1494 C1496 1.415 . S
C1495 C1494 1.355 . S
C1495 C1497 1.419 . S
C1496 C1494 1.415 . S
C1496 C1501 1.425 . S
C1496 C1503 1.409 . S
C1497 H1489 0.930 . S
C1497 C1495 1.419 . S
C1497 C1498 1.362 . S
C1498 H1490 0.930 . S
C1498 C1497 1.362 . S
C1498 C1501 1.409 . S
C1499 H1491 0.930 1_655 S
C1499 C1500 1.355 . S
C1499 C1501 1.415 . S
C1500 C1499 1.355 . S
C1500 C1502 1.419 . S
C1501 C1496 1.425 . S
C1501 C1498 1.409 . S
C1501 C1499 1.415 . S
C1502 H1492 0.930 . S
C1502 C1500 1.419 . S
C1502 C1503 1.362 . S
C1503 H1493 0.930 . S
C1503 C1496 1.409 . S
C1503 C1502 1.362 . S
H1504 C1510 0.930 . S
H1505 C1513 0.930 . S
H1506 C1514 0.930 . S
H1507 C1515 0.930 . S
H1508 C1518 0.930 . S
H1509 C1519 0.930 . S
C1510 H1504 0.930 . S
C1510 C1511 1.355 . S
C1510 C1512 1.415 . S
C1511 C1510 1.355 . S
C1511 C1513 1.419 . S
C1512 C1510 1.415 . S
C1512 C1517 1.425 . S
C1512 C1519 1.409 . S
C1513 H1505 0.930 . S
C1513 C1511 1.419 . S
C1513 C1514 1.362 . S
C1514 H1506 0.930 . S
C1514 C1513 1.362 . S
C1514 C1517 1.409 . S
C1515 H1507 0.930 . S
C1515 C1516 1.355 . S
C1515 C1517 1.415 . S
C1516 C1515 1.355 . S
C1516 C1518 1.419 . S
C1517 C1512 1.425 . S
C1517 C1514 1.409 . S
C1517 C1515 1.415 . S
C1518 H1508 0.930 . S
C1518 C1516 1.419 . S
C1518 C1519 1.362 . S
C1519 H1509 0.930 . S
C1519 C1512 1.409 . S
C1519 C1518 1.362 . S
H1520 C1526 0.930 . S
H1521 C1529 0.930 . S
H1522 C1530 0.930 . S
H1523 C1531 0.930 . S
H1524 C1534 0.930 . S
H1525 C1535 0.930 1_455 S
C1526 H1520 0.930 . S
C1526 C1527 1.355 . S
C1526 C1528 1.415 . S
C1527 C1526 1.355 . S
C1527 C1529 1.419 . S
C1528 C1526 1.415 . S
C1528 C1533 1.425 . S
C1528 C1535 1.409 . S
C1529 H1521 0.930 . S
C1529 C1527 1.419 . S
C1529 C1530 1.362 . S
C1530 H1522 0.930 . S
C1530 C1529 1.362 . S
C1530 C1533 1.409 . S
C1531 H1523 0.930 . S
C1531 C1532 1.355 . S
C1531 C1533 1.415 . S
C1532 C1531 1.355 . S
C1532 C1534 1.419 1_655 S
C1533 C1528 1.425 . S
C1533 C1530 1.409 . S
C1533 C1531 1.415 . S
C1534 H1524 0.930 . S
C1534 C1532 1.419 1_455 S
C1534 C1535 1.362 1_455 S
C1535 H1525 0.930 1_655 S
C1535 C1528 1.409 . S
C1535 C1534 1.362 1_655 S
H1536 C1542 0.930 . S
H1537 C1545 0.930 . S
H1538 C1546 0.930 . S
H1539 C1547 0.930 . S
H1540 C1550 0.930 . S
H1541 C1551 0.930 . S
C1542 H1536 0.930 . S
C1542 C1543 1.355 . S
C1542 C1544 1.415 . S
C1543 C1542 1.355 . S
C1543 C1545 1.419 . S
C1544 C1542 1.415 . S
C1544 C1549 1.425 . S
C1544 C1551 1.409 . S
C1545 H1537 0.930 . S
C1545 C1543 1.419 . S
C1545 C1546 1.362 . S
C1546 H1538 0.930 . S
C1546 C1545 1.362 . S
C1546 C1549 1.409 . S
C1547 H1539 0.930 . S
C1547 C1548 1.355 . S
C1547 C1549 1.415 . S
C1548 C1547 1.355 . S
C1548 C1550 1.419 . S
C1549 C1544 1.425 . S
C1549 C1546 1.409 . S
C1549 C1547 1.415 . S
C1550 H1540 0.930 . S
C1550 C1548 1.419 . S
C1550 C1551 1.362 . S
C1551 H1541 0.930 . S
C1551 C1544 1.409 . S
C1551 C1550 1.362 . S
H1552 C1558 0.930 . S
H1553 C1561 0.930 . S
H1554 C1562 0.930 . S
H1555 C1563 0.930 . S
H1556 C1566 0.930 . S
H1557 C1567 0.930 . S
C1558 H1552 0.930 . S
C1558 C1559 1.355 . S
C1558 C1560 1.415 . S
C1559 C1558 1.355 . S
C1559 C1561 1.419 . S
C1560 C1558 1.415 . S
C1560 C1565 1.425 . S
C1560 C1567 1.409 . S
C1561 H1553 0.930 . S
C1561 C1559 1.419 . S
C1561 C1562 1.362 . S
C1562 H1554 0.930 . S
C1562 C1561 1.362 . S
C1562 C1565 1.409 . S
C1563 H1555 0.930 . S
C1563 C1564 1.355 . S
C1563 C1565 1.415 . S
C1564 C1563 1.355 . S
C1564 C1566 1.419 . S
C1565 C1560 1.425 . S
C1565 C1562 1.409 . S
C1565 C1563 1.415 . S
C1566 H1556 0.930 . S
C1566 C1564 1.419 . S
C1566 C1567 1.362 . S
C1567 H1557 0.930 . S
C1567 C1560 1.409 . S
C1567 C1566 1.362 . S
H1568 C1574 0.930 . S
H1569 C1577 0.930 . S
H1570 C1578 0.930 . S
H1571 C1579 0.930 . S
H1572 C1582 0.930 . S
H1573 C1583 0.930 . S
C1574 H1568 0.930 . S
C1574 C1575 1.355 . S
C1574 C1576 1.415 . S
C1575 C1574 1.355 . S
C1575 C1577 1.419 . S
C1576 C1574 1.415 . S
C1576 C1581 1.425 1_545 S
C1576 C1583 1.409 . S
C1577 H1569 0.930 . S
C1577 C1575 1.419 . S
C1577 C1578 1.362 1_545 S
C1578 H1570 0.930 . S
C1578 C1577 1.362 1_565 S
C1578 C1581 1.409 . S
C1579 H1571 0.930 . S
C1579 C1580 1.355 . S
C1579 C1581 1.415 . S
C1580 C1579 1.355 . S
C1580 C1582 1.419 . S
C1581 C1576 1.425 1_565 S
C1581 C1578 1.409 . S
C1581 C1579 1.415 . S
C1582 H1572 0.930 . S
C1582 C1580 1.419 . S
C1582 C1583 1.362 1_565 S
C1583 H1573 0.930 . S
C1583 C1576 1.409 . S
C1583 C1582 1.362 1_545 S
H1584 C1590 0.930 . S
H1585 C1593 0.930 . S
H1586 C1594 0.930 . S
H1587 C1595 0.930 . S
H1588 C1598 0.930 . S
H1589 C1599 0.930 . S
C1590 H1584 0.930 . S
C1590 C1591 1.355 . S
C1590 C1592 1.415 . S
C1591 C1590 1.355 . S
C1591 C1593 1.419 . S
C1592 C1590 1.415 . S
C1592 C1597 1.425 . S
C1592 C1599 1.409 . S
C1593 H1585 0.930 . S
C1593 C1591 1.419 . S
C1593 C1594 1.362 . S
C1594 H1586 0.930 . S
C1594 C1593 1.362 . S
C1594 C1597 1.409 . S
C1595 H1587 0.930 . S
C1595 C1596 1.355 . S
C1595 C1597 1.415 . S
C1596 C1595 1.355 . S
C1596 C1598 1.419 . S
C1597 C1592 1.425 . S
C1597 C1594 1.409 . S
C1597 C1595 1.415 . S
C1598 H1588 0.930 . S
C1598 C1596 1.419 . S
C1598 C1599 1.362 . S
C1599 H1589 0.930 . S
C1599 C1592 1.409 . S
C1599 C1598 1.362 . S
H1600 C1606 0.930 . S
H1601 C1609 0.930 . S
H1602 C1610 0.930 . S
H1603 C1611 0.930 . S
H1604 C1614 0.930 . S
H1605 C1615 0.930 . S
C1606 H1600 0.930 . S
C1606 C1607 1.355 . S
C1606 C1608 1.415 1_545 S
C1607 C1606 1.355 . S
C1607 C1609 1.419 . S
C1608 C1606 1.415 1_565 S
C1608 C1613 1.425 1_565 S
C1608 C1615 1.409 . S
C1609 H1601 0.930 . S
C1609 C1607 1.419 . S
C1609 C1610 1.362 . S
C1610 H1602 0.930 . S
C1610 C1609 1.362 . S
C1610 C1613 1.409 . S
C1611 H1603 0.930 . S
C1611 C1612 1.355 . S
C1611 C1613 1.415 1_565 S
C1612 C1611 1.355 . S
C1612 C1614 1.419 . S
C1613 C1608 1.425 1_545 S
C1613 C1610 1.409 . S
C1613 C1611 1.415 1_545 S
C1614 H1604 0.930 . S
C1614 C1612 1.419 . S
C1614 C1615 1.362 . S
C1615 H1605 0.930 . S
C1615 C1608 1.409 . S
C1615 C1614 1.362 . S
H1616 C1622 0.930 . S
H1617 C1625 0.930 . S
H1618 C1626 0.930 . S
H1619 C1627 0.930 . S
H1620 C1630 0.930 . S
H1621 C1631 0.930 . S
C1622 H1616 0.930 . S
C1622 C1623 1.355 . S
C1622 C1624 1.415 1_554 S
C1623 C1622 1.355 . S
C1623 C1625 1.419 . S
C1624 C1622 1.415 1_556 S
C1624 C1629 1.425 1_556 S
C1624 C1631 1.409 . S
C1625 H1617 0.930 . S
C1625 C1623 1.419 . S
C1625 C1626 1.362 . S
C1626 H1618 0.930 . S
C1626 C1625 1.362 . S
C1626 C1629 1.409 . S
C1627 H1619 0.930 . S
C1627 C1628 1.355 . S
C1627 C1629 1.415 1_556 S
C1628 C1627 1.355 . S
C1628 C1630 1.419 . S
C1629 C1624 1.425 1_554 S
C1629 C1626 1.409 . S
C1629 C1627 1.415 1_554 S
C1630 H1620 0.930 . S
C1630 C1628 1.419 . S
C1630 C1631 1.362 . S
C1631 H1621 0.930 . S
C1631 C1624 1.409 . S
C1631 C1630 1.362 . S
H1632 C1638 0.930 . S
H1633 C1641 0.930 . S
H1634 C1642 0.930 . S
H1635 C1643 0.930 . S
H1636 C1646 0.930 . S
H1637 C1647 0.930 . S
C1638 H1632 0.930 . S
C1638 C1639 1.355 . S
C1638 C1640 1.415 . S
C1639 C1638 1.355 . S
C1639 C1641 1.419 . S
C1640 C1638 1.415 . S
C1640 C1645 1.425 1_565 S
C1640 C1647 1.409 . S
C1641 H1633 0.930 . S
C1641 C1639 1.419 . S
C1641 C1642 1.362 1_565 S
C1642 H1634 0.930 . S
C1642 C1641 1.362 1_545 S
C1642 C1645 1.409 . S
C1643 H1635 0.930 . S
C1643 C1644 1.355 . S
C1643 C1645 1.415 . S
C1644 C1643 1.355 . S
C1644 C1646 1.419 . S
C1645 C1640 1.425 1_545 S
C1645 C1642 1.409 . S
C1645 C1643 1.415 . S
C1646 H1636 0.930 . S
C1646 C1644 1.419 . S
C1646 C1647 1.362 1_545 S
C1647 H1637 0.930 . S
C1647 C1640 1.409 . S
C1647 C1646 1.362 1_565 S
H1648 C1654 0.930 . S
H1649 C1657 0.930 . S
H1650 C1658 0.930 . S
H1651 C1659 0.930 . S
H1652 C1662 0.930 . S
H1653 C1663 0.930 . S
C1654 H1648 0.930 . S
C1654 C1655 1.355 . S
C1654 C1656 1.415 . S
C1655 C1654 1.355 . S
C1655 C1657 1.419 . S
C1656 C1654 1.415 . S
C1656 C1661 1.425 . S
C1656 C1663 1.409 . S
C1657 H1649 0.930 . S
C1657 C1655 1.419 . S
C1657 C1658 1.362 . S
C1658 H1650 0.930 . S
C1658 C1657 1.362 . S
C1658 C1661 1.409 . S
C1659 H1651 0.930 . S
C1659 C1660 1.355 . S
C1659 C1661 1.415 . S
C1660 C1659 1.355 . S
C1660 C1662 1.419 . S
C1661 C1656 1.425 . S
C1661 C1658 1.409 . S
C1661 C1659 1.415 . S
C1662 H1652 0.930 . S
C1662 C1660 1.419 . S
C1662 C1663 1.362 . S
C1663 H1653 0.930 . S
C1663 C1656 1.409 . S
C1663 C1662 1.362 . S
H1664 C1670 0.930 . S
H1665 C1673 0.930 . S
H1666 C1674 0.930 . S
H1667 C1675 0.930 . S
H1668 C1678 0.930 . S
H1669 C1679 0.930 . S
C1670 H1664 0.930 . S
C1670 C1671 1.355 . S
C1670 C1672 1.415 . S
C1671 C1670 1.355 . S
C1671 C1673 1.419 . S
C1672 C1670 1.415 . S
C1672 C1677 1.425 1_545 S
C1672 C1679 1.409 . S
C1673 H1665 0.930 . S
C1673 C1671 1.419 . S
C1673 C1674 1.362 1_545 S
C1674 H1666 0.930 . S
C1674 C1673 1.362 1_565 S
C1674 C1677 1.409 . S
C1675 H1667 0.930 . S
C1675 C1676 1.355 . S
C1675 C1677 1.415 . S
C1676 C1675 1.355 . S
C1676 C1678 1.419 . S
C1677 C1672 1.425 1_565 S
C1677 C1674 1.409 . S
C1677 C1675 1.415 . S
C1678 H1668 0.930 . S
C1678 C1676 1.419 . S
C1678 C1679 1.362 1_565 S
C1679 H1669 0.930 . S
C1679 C1672 1.409 . S
C1679 C1678 1.362 1_545 S
H1680 C1686 0.930 . S
H1681 C1689 0.930 . S
H1682 C1690 0.930 . S
H1683 C1691 0.930 . S
H1684 C1694 0.930 . S
H1685 C1695 0.930 . S
C1686 H1680 0.930 . S
C1686 C1687 1.355 . S
C1686 C1688 1.418 . S
C1687 C1686 1.355 . S
C1687 C1689 1.419 . S
C1688 C1686 1.418 . S
C1688 C1693 1.425 1_556 S
C1688 C1695 1.406 1_556 S
C1689 H1681 0.930 . S
C1689 C1687 1.419 . S
C1689 C1690 1.362 . S
C1690 H1682 0.930 . S
C1690 C1689 1.362 . S
C1690 C1693 1.406 1_556 S
C1691 H1683 0.930 . S
C1691 C1692 1.355 . S
C1691 C1693 1.418 . S
C1692 C1691 1.355 . S
C1692 C1694 1.419 . S
C1693 C1688 1.425 1_554 S
C1693 C1690 1.406 1_554 S
C1693 C1691 1.418 . S
C1694 H1684 0.930 . S
C1694 C1692 1.419 . S
C1694 C1695 1.362 . S
C1695 H1685 0.930 . S
C1695 C1688 1.406 1_554 S
C1695 C1694 1.362 . S
H1696 C1702 0.930 . S
H1697 C1705 0.930 . S
H1698 C1706 0.930 . S
H1699 C1707 0.930 . S
H1700 C1710 0.930 . S
H1701 C1711 0.930 . S
C1702 H1696 0.930 . S
C1702 C1703 1.355 . S
C1702 C1704 1.415 . S
C1703 C1702 1.355 . S
C1703 C1705 1.419 . S
C1704 C1702 1.415 . S
C1704 C1709 1.425 . S
C1704 C1711 1.409 . S
C1705 H1697 0.930 . S
C1705 C1703 1.419 . S
C1705 C1706 1.362 . S
C1706 H1698 0.930 . S
C1706 C1705 1.362 . S
C1706 C1709 1.409 . S
C1707 H1699 0.930 . S
C1707 C1708 1.355 . S
C1707 C1709 1.415 . S
C1708 C1707 1.355 . S
C1708 C1710 1.419 . S
C1709 C1704 1.425 . S
C1709 C1706 1.409 . S
C1709 C1707 1.415 . S
C1710 H1700 0.930 . S
C1710 C1708 1.419 . S
C1710 C1711 1.362 . S
C1711 H1701 0.930 . S
C1711 C1704 1.409 . S
C1711 C1710 1.362 . S
H1712 C1718 0.930 . S
H1713 C1721 0.943 . S
H1714 C1722 0.930 . S
H1715 C1723 0.930 . S
H1716 C1726 0.943 . S
H1717 C1727 0.930 . S
C1718 H1712 0.930 . S
C1718 C1719 1.355 . S
C1718 C1720 1.415 . S
C1719 C1718 1.355 . S
C1719 C1721 1.375 1_556 S
C1720 C1718 1.415 . S
C1720 C1725 1.425 1_556 S
C1720 C1727 1.409 . S
C1721 H1713 0.943 . S
C1721 C1719 1.375 1_554 S
C1721 C1722 1.395 . S
C1722 H1714 0.930 . S
C1722 C1721 1.395 . S
C1722 C1725 1.409 . S
C1723 H1715 0.930 . S
C1723 C1724 1.355 . S
C1723 C1725 1.415 . S
C1724 C1723 1.355 . S
C1724 C1726 1.375 1_554 S
C1725 C1720 1.425 1_554 S
C1725 C1722 1.409 . S
C1725 C1723 1.415 . S
C1726 H1716 0.943 . S
C1726 C1724 1.375 1_556 S
C1726 C1727 1.395 . S
C1727 H1717 0.930 . S
C1727 C1720 1.409 . S
C1727 C1726 1.395 . S
H1728 C1734 0.930 . S
H1729 C1737 0.930 . S
H1730 C1738 0.930 . S
H1731 C1739 0.930 . S
H1732 C1742 0.930 . S
H1733 C1743 0.930 . S
C1734 H1728 0.930 . S
C1734 C1735 1.355 . S
C1734 C1736 1.415 . S
C1735 C1734 1.355 . S
C1735 C1737 1.419 . S
C1736 C1734 1.415 . S
C1736 C1741 1.425 . S
C1736 C1743 1.409 . S
C1737 H1729 0.930 . S
C1737 C1735 1.419 . S
C1737 C1738 1.362 . S
C1738 H1730 0.930 . S
C1738 C1737 1.362 . S
C1738 C1741 1.409 . S
C1739 H1731 0.930 . S
C1739 C1740 1.355 . S
C1739 C1741 1.415 . S
C1740 C1739 1.355 . S
C1740 C1742 1.419 . S
C1741 C1736 1.425 . S
C1741 C1738 1.409 . S
C1741 C1739 1.415 . S
C1742 H1732 0.930 . S
C1742 C1740 1.419 . S
C1742 C1743 1.362 . S
C1743 H1733 0.930 . S
C1743 C1736 1.409 . S
C1743 C1742 1.362 . S
H1744 C1750 0.930 . S
H1745 C1753 0.930 . S
H1746 C1754 0.930 . S
H1747 C1755 0.930 . S
H1748 C1758 0.930 . S
H1749 C1759 0.930 . S
C1750 H1744 0.930 . S
C1750 C1751 1.355 . S
C1750 C1752 1.415 . S
C1751 C1750 1.355 . S
C1751 C1753 1.419 . S
C1752 C1750 1.415 . S
C1752 C1757 1.425 . S
C1752 C1759 1.409 . S
C1753 H1745 0.930 . S
C1753 C1751 1.419 . S
C1753 C1754 1.362 . S
C1754 H1746 0.930 . S
C1754 C1753 1.362 . S
C1754 C1757 1.409 . S
C1755 H1747 0.930 . S
C1755 C1756 1.355 . S
C1755 C1757 1.415 . S
C1756 C1755 1.355 . S
C1756 C1758 1.419 . S
C1757 C1752 1.425 . S
C1757 C1754 1.409 . S
C1757 C1755 1.415 . S
C1758 H1748 0.930 . S
C1758 C1756 1.419 . S
C1758 C1759 1.362 . S
C1759 H1749 0.930 . S
C1759 C1752 1.409 . S
C1759 C1758 1.362 . S
H1760 C1766 0.930 . S
H1761 C1769 0.930 . S
H1762 C1770 0.930 . S
H1763 C1771 0.930 . S
H1764 C1774 0.930 . S
H1765 C1775 0.930 . S
C1766 H1760 0.930 . S
C1766 C1767 1.355 . S
C1766 C1768 1.415 . S
C1767 C1766 1.355 . S
C1767 C1769 1.419 . S
C1768 C1766 1.415 . S
C1768 C1773 1.425 . S
C1768 C1775 1.409 . S
C1769 H1761 0.930 . S
C1769 C1767 1.419 . S
C1769 C1770 1.362 . S
C1770 H1762 0.930 . S
C1770 C1769 1.362 . S
C1770 C1773 1.409 . S
C1771 H1763 0.930 . S
C1771 C1772 1.355 . S
C1771 C1773 1.415 . S
C1772 C1771 1.355 . S
C1772 C1774 1.419 . S
C1773 C1768 1.425 . S
C1773 C1770 1.409 . S
C1773 C1771 1.415 . S
C1774 H1764 0.930 . S
C1774 C1772 1.419 . S
C1774 C1775 1.362 . S
C1775 H1765 0.930 . S
C1775 C1768 1.409 . S
C1775 C1774 1.362 . S
H1776 C1782 0.930 . S
H1777 C1785 0.942 . S
H1778 C1786 0.930 . S
H1779 C1787 0.930 . S
H1780 C1790 0.942 . S
H1781 C1791 0.930 . S
C1782 H1776 0.930 . S
C1782 C1783 1.355 . S
C1782 C1784 1.415 . S
C1783 C1782 1.355 . S
C1783 C1785 1.378 1_556 S
C1784 C1782 1.415 . S
C1784 C1789 1.425 1_556 S
C1784 C1791 1.409 . S
C1785 H1777 0.942 . S
C1785 C1783 1.378 1_554 S
C1785 C1786 1.392 . S
C1786 H1778 0.930 . S
C1786 C1785 1.392 . S
C1786 C1789 1.409 . S
C1787 H1779 0.930 . S
C1787 C1788 1.355 . S
C1787 C1789 1.415 . S
C1788 C1787 1.355 . S
C1788 C1790 1.378 1_554 S
C1789 C1784 1.425 1_554 S
C1789 C1786 1.409 . S
C1789 C1787 1.415 . S
C1790 H1780 0.942 . S
C1790 C1788 1.378 1_556 S
C1790 C1791 1.392 . S
C1791 H1781 0.930 . S
C1791 C1784 1.409 . S
C1791 C1790 1.392 . S
H1792 C1798 0.930 . S
H1793 C1801 0.930 . S
H1794 C1802 0.930 . S
H1795 C1803 0.930 . S
H1796 C1806 0.930 . S
H1797 C1807 0.930 . S
C1798 H1792 0.930 . S
C1798 C1799 1.355 . S
C1798 C1800 1.415 . S
C1799 C1798 1.355 . S
C1799 C1801 1.419 . S
C1800 C1798 1.415 . S
C1800 C1805 1.425 . S
C1800 C1807 1.409 . S
C1801 H1793 0.930 . S
C1801 C1799 1.419 . S
C1801 C1802 1.362 . S
C1802 H1794 0.930 . S
C1802 C1801 1.362 . S
C1802 C1805 1.409 . S
C1803 H1795 0.930 . S
C1803 C1804 1.355 . S
C1803 C1805 1.415 . S
C1804 C1803 1.355 . S
C1804 C1806 1.419 . S
C1805 C1800 1.425 . S
C1805 C1802 1.409 . S
C1805 C1803 1.415 . S
C1806 H1796 0.930 . S
C1806 C1804 1.419 . S
C1806 C1807 1.362 . S
C1807 H1797 0.930 . S
C1807 C1800 1.409 . S
C1807 C1806 1.362 . S
H1808 C1814 0.930 . S
H1809 C1817 0.930 . S
H1810 C1818 0.930 . S
H1811 C1819 0.930 . S
H1812 C1822 0.930 . S
H1813 C1823 0.930 . S
C1814 H1808 0.930 . S
C1814 C1815 1.355 . S
C1814 C1816 1.415 . S
C1815 C1814 1.355 . S
C1815 C1817 1.419 . S
C1816 C1814 1.415 . S
C1816 C1821 1.425 . S
C1816 C1823 1.409 . S
C1817 H1809 0.930 . S
C1817 C1815 1.419 . S
C1817 C1818 1.362 . S
C1818 H1810 0.930 . S
C1818 C1817 1.362 . S
C1818 C1821 1.409 . S
C1819 H1811 0.930 . S
C1819 C1820 1.355 . S
C1819 C1821 1.415 . S
C1820 C1819 1.355 . S
C1820 C1822 1.419 . S
C1821 C1816 1.425 . S
C1821 C1818 1.409 . S
C1821 C1819 1.415 . S
C1822 H1812 0.930 . S
C1822 C1820 1.419 . S
C1822 C1823 1.362 . S
C1823 H1813 0.930 . S
C1823 C1816 1.409 . S
C1823 C1822 1.362 . S
H1824 C1830 0.930 . S
H1825 C1833 0.930 1_565 S
H1826 C1834 0.930 . S
H1827 C1835 0.930 . S
H1828 C1838 0.930 . S
H1829 C1839 0.930 . S
C1830 H1824 0.930 . S
C1830 C1831 1.355 . S
C1830 C1832 1.415 . S
C1831 C1830 1.355 . S
C1831 C1833 1.419 . S
C1832 C1830 1.415 . S
C1832 C1837 1.425 . S
C1832 C1839 1.409 . S
C1833 H1825 0.930 1_545 S
C1833 C1831 1.419 . S
C1833 C1834 1.362 . S
C1834 H1826 0.930 . S
C1834 C1833 1.362 . S
C1834 C1837 1.409 . S
C1835 H1827 0.930 . S
C1835 C1836 1.355 . S
C1835 C1837 1.415 . S
C1836 C1835 1.355 . S
C1836 C1838 1.419 . S
C1837 C1832 1.425 . S
C1837 C1834 1.409 . S
C1837 C1835 1.415 . S
C1838 H1828 0.930 . S
C1838 C1836 1.419 . S
C1838 C1839 1.362 . S
C1839 H1829 0.930 . S
C1839 C1832 1.409 . S
C1839 C1838 1.362 . S
H1840 C1846 0.930 . S
H1841 C1849 0.930 . S
H1842 C1850 0.930 . S
H1843 C1851 0.930 . S
H1844 C1854 0.930 . S
H1845 C1855 0.930 . S
C1846 H1840 0.930 . S
C1846 C1847 1.355 . S
C1846 C1848 1.415 . S
C1847 C1846 1.355 . S
C1847 C1849 1.419 . S
C1848 C1846 1.415 . S
C1848 C1853 1.425 . S
C1848 C1855 1.409 . S
C1849 H1841 0.930 . S
C1849 C1847 1.419 . S
C1849 C1850 1.362 . S
C1850 H1842 0.930 . S
C1850 C1849 1.362 . S
C1850 C1853 1.409 . S
C1851 H1843 0.930 . S
C1851 C1852 1.355 . S
C1851 C1853 1.415 . S
C1852 C1851 1.355 . S
C1852 C1854 1.419 . S
C1853 C1848 1.425 . S
C1853 C1850 1.409 . S
C1853 C1851 1.415 . S
C1854 H1844 0.930 . S
C1854 C1852 1.419 . S
C1854 C1855 1.362 . S
C1855 H1845 0.930 . S
C1855 C1848 1.409 . S
C1855 C1854 1.362 . S
H1856 C1862 0.930 . S
H1857 C1865 0.930 1_545 S
H1858 C1866 0.930 . S
H1859 C1867 0.930 . S
H1860 C1870 0.930 . S
H1861 C1871 0.930 . S
C1862 H1856 0.930 . S
C1862 C1863 1.355 . S
C1862 C1864 1.415 . S
C1863 C1862 1.355 . S
C1863 C1865 1.419 . S
C1864 C1862 1.415 . S
C1864 C1869 1.425 . S
C1864 C1871 1.409 . S
C1865 H1857 0.930 1_565 S
C1865 C1863 1.419 . S
C1865 C1866 1.362 . S
C1866 H1858 0.930 . S
C1866 C1865 1.362 . S
C1866 C1869 1.409 . S
C1867 H1859 0.930 . S
C1867 C1868 1.355 . S
C1867 C1869 1.415 . S
C1868 C1867 1.355 . S
C1868 C1870 1.419 . S
C1869 C1864 1.425 . S
C1869 C1866 1.409 . S
C1869 C1867 1.415 . S
C1870 H1860 0.930 . S
C1870 C1868 1.419 . S
C1870 C1871 1.362 . S
C1871 H1861 0.930 . S
C1871 C1864 1.409 . S
C1871 C1870 1.362 . S
H1872 C1878 0.930 . S
H1873 C1881 0.930 . S
H1874 C1882 0.930 . S
H1875 C1883 0.930 . S
H1876 C1886 0.930 . S
H1877 C1887 0.930 . S
C1878 H1872 0.930 . S
C1878 C1879 1.355 . S
C1878 C1880 1.415 . S
C1879 C1878 1.355 . S
C1879 C1881 1.419 . S
C1880 C1878 1.415 . S
C1880 C1885 1.425 . S
C1880 C1887 1.409 . S
C1881 H1873 0.930 . S
C1881 C1879 1.419 . S
C1881 C1882 1.362 . S
C1882 H1874 0.930 . S
C1882 C1881 1.362 . S
C1882 C1885 1.409 . S
C1883 H1875 0.930 . S
C1883 C1884 1.355 . S
C1883 C1885 1.415 . S
C1884 C1883 1.355 . S
C1884 C1886 1.419 . S
C1885 C1880 1.425 . S
C1885 C1882 1.409 . S
C1885 C1883 1.415 . S
C1886 H1876 0.930 . S
C1886 C1884 1.419 . S
C1886 C1887 1.362 . S
C1887 H1877 0.930 . S
C1887 C1880 1.409 . S
C1887 C1886 1.362 . S
H1888 C1894 0.930 . S
H1889 C1897 0.930 . S
H1890 C1898 0.930 . S
H1891 C1899 0.930 . S
H1892 C1902 0.930 . S
H1893 C1903 0.930 . S
C1894 H1888 0.930 . S
C1894 C1895 1.355 . S
C1894 C1896 1.415 . S
C1895 C1894 1.355 . S
C1895 C1897 1.419 . S
C1896 C1894 1.415 . S
C1896 C1901 1.425 . S
C1896 C1903 1.409 . S
C1897 H1889 0.930 . S
C1897 C1895 1.419 . S
C1897 C1898 1.362 . S
C1898 H1890 0.930 . S
C1898 C1897 1.362 . S
C1898 C1901 1.409 . S
C1899 H1891 0.930 . S
C1899 C1900 1.355 . S
C1899 C1901 1.415 . S
C1900 C1899 1.355 . S
C1900 C1902 1.419 . S
C1901 C1896 1.425 . S
C1901 C1898 1.409 . S
C1901 C1899 1.415 . S
C1902 H1892 0.930 . S
C1902 C1900 1.419 . S
C1902 C1903 1.362 . S
C1903 H1893 0.930 . S
C1903 C1896 1.409 . S
C1903 C1902 1.362 . S
H1904 C1910 0.930 . S
H1905 C1913 0.930 . S
H1906 C1914 0.930 . S
H1907 C1915 0.930 . S
H1908 C1918 0.930 . S
H1909 C1919 0.930 . S
C1910 H1904 0.930 . S
C1910 C1911 1.355 . S
C1910 C1912 1.415 . S
C1911 C1910 1.355 . S
C1911 C1913 1.419 . S
C1912 C1910 1.415 . S
C1912 C1917 1.425 . S
C1912 C1919 1.409 . S
C1913 H1905 0.930 . S
C1913 C1911 1.419 . S
C1913 C1914 1.362 . S
C1914 H1906 0.930 . S
C1914 C1913 1.362 . S
C1914 C1917 1.409 . S
C1915 H1907 0.930 . S
C1915 C1916 1.355 . S
C1915 C1917 1.415 . S
C1916 C1915 1.355 . S
C1916 C1918 1.419 . S
C1917 C1912 1.425 . S
C1917 C1914 1.409 . S
C1917 C1915 1.415 . S
C1918 H1908 0.930 . S
C1918 C1916 1.419 . S
C1918 C1919 1.362 . S
C1919 H1909 0.930 . S
C1919 C1912 1.409 . S
C1919 C1918 1.362 . S
H1920 C1926 0.930 . S
H1921 C1929 0.930 . S
H1922 C1930 0.930 . S
H1923 C1931 0.930 . S
H1924 C1934 0.930 . S
H1925 C1935 0.930 . S
C1926 H1920 0.930 . S
C1926 C1927 1.355 . S
C1926 C1928 1.415 . S
C1927 C1926 1.355 . S
C1927 C1929 1.419 . S
C1928 C1926 1.415 . S
C1928 C1933 1.425 . S
C1928 C1935 1.409 . S
C1929 H1921 0.930 . S
C1929 C1927 1.419 . S
C1929 C1930 1.362 . S
C1930 H1922 0.930 . S
C1930 C1929 1.362 . S
C1930 C1933 1.409 . S
C1931 H1923 0.930 . S
C1931 C1932 1.355 . S
C1931 C1933 1.415 . S
C1932 C1931 1.355 . S
C1932 C1934 1.419 . S
C1933 C1928 1.425 . S
C1933 C1930 1.409 . S
C1933 C1931 1.415 . S
C1934 H1924 0.930 . S
C1934 C1932 1.419 . S
C1934 C1935 1.362 . S
C1935 H1925 0.930 . S
C1935 C1928 1.409 . S
C1935 C1934 1.362 . S
H1936 C1942 0.930 . S
H1937 C1945 0.930 . S
H1938 C1946 0.930 . S
H1939 C1947 0.930 . S
H1940 C1950 0.930 . S
H1941 C1951 0.930 . S
C1942 H1936 0.930 . S
C1942 C1943 1.355 . S
C1942 C1944 1.415 . S
C1943 C1942 1.355 . S
C1943 C1945 1.419 . S
C1944 C1942 1.415 . S
C1944 C1949 1.425 . S
C1944 C1951 1.409 . S
C1945 H1937 0.930 . S
C1945 C1943 1.419 . S
C1945 C1946 1.362 . S
C1946 H1938 0.930 . S
C1946 C1945 1.362 . S
C1946 C1949 1.409 . S
C1947 H1939 0.930 . S
C1947 C1948 1.355 . S
C1947 C1949 1.415 . S
C1948 C1947 1.355 . S
C1948 C1950 1.419 . S
C1949 C1944 1.425 . S
C1949 C1946 1.409 . S
C1949 C1947 1.415 . S
C1950 H1940 0.930 . S
C1950 C1948 1.419 . S
C1950 C1951 1.362 . S
C1951 H1941 0.930 . S
C1951 C1944 1.409 . S
C1951 C1950 1.362 . S
H1952 C1958 0.930 . S
H1953 C1961 0.930 . S
H1954 C1962 0.930 . S
H1955 C1963 0.930 . S
H1956 C1966 0.930 . S
H1957 C1967 0.930 . S
C1958 H1952 0.930 . S
C1958 C1959 1.355 . S
C1958 C1960 1.415 . S
C1959 C1958 1.355 . S
C1959 C1961 1.419 . S
C1960 C1958 1.415 . S
C1960 C1965 1.425 . S
C1960 C1967 1.409 . S
C1961 H1953 0.930 . S
C1961 C1959 1.419 . S
C1961 C1962 1.362 . S
C1962 H1954 0.930 . S
C1962 C1961 1.362 . S
C1962 C1965 1.409 . S
C1963 H1955 0.930 . S
C1963 C1964 1.355 . S
C1963 C1965 1.415 . S
C1964 C1963 1.355 . S
C1964 C1966 1.419 . S
C1965 C1960 1.425 . S
C1965 C1962 1.409 . S
C1965 C1963 1.415 . S
C1966 H1956 0.930 . S
C1966 C1964 1.419 . S
C1966 C1967 1.362 . S
C1967 H1957 0.930 . S
C1967 C1960 1.409 . S
C1967 C1966 1.362 . S
H1968 C1974 0.930 . S
H1969 C1977 0.930 . S
H1970 C1978 0.930 . S
H1971 C1979 0.930 . S
H1972 C1982 0.930 . S
H1973 C1983 0.930 . S
C1974 H1968 0.930 . S
C1974 C1975 1.355 . S
C1974 C1976 1.415 . S
C1975 C1974 1.355 . S
C1975 C1977 1.419 . S
C1976 C1974 1.415 . S
C1976 C1981 1.425 . S
C1976 C1983 1.409 . S
C1977 H1969 0.930 . S
C1977 C1975 1.419 . S
C1977 C1978 1.362 . S
C1978 H1970 0.930 . S
C1978 C1977 1.362 . S
C1978 C1981 1.409 . S
C1979 H1971 0.930 . S
C1979 C1980 1.355 . S
C1979 C1981 1.415 . S
C1980 C1979 1.355 . S
C1980 C1982 1.419 . S
C1981 C1976 1.425 . S
C1981 C1978 1.409 . S
C1981 C1979 1.415 . S
C1982 H1972 0.930 . S
C1982 C1980 1.419 . S
C1982 C1983 1.362 . S
C1983 H1973 0.930 . S
C1983 C1976 1.409 . S
C1983 C1982 1.362 . S
H1984 C1990 0.930 . S
H1985 C1993 0.930 . S
H1986 C1994 0.930 . S
H1987 C1995 0.930 . S
H1988 C1998 0.930 . S
H1989 C1999 0.930 . S
C1990 H1984 0.930 . S
C1990 C1991 1.355 . S
C1990 C1992 1.415 . S
C1991 C1990 1.355 . S
C1991 C1993 1.419 . S
C1992 C1990 1.415 . S
C1992 C1997 1.425 . S
C1992 C1999 1.409 . S
C1993 H1985 0.930 . S
C1993 C1991 1.419 . S
C1993 C1994 1.362 . S
C1994 H1986 0.930 . S
C1994 C1993 1.362 . S
C1994 C1997 1.409 . S
C1995 H1987 0.930 . S
C1995 C1996 1.355 . S
C1995 C1997 1.415 . S
C1996 C1995 1.355 . S
C1996 C1998 1.419 . S
C1997 C1992 1.425 . S
C1997 C1994 1.409 . S
C1997 C1995 1.415 . S
C1998 H1988 0.930 . S
C1998 C1996 1.419 . S
C1998 C1999 1.362 . S
C1999 H1989 0.930 . S
C1999 C1992 1.409 . S
C1999 C1998 1.362 . S
H2000 C2006 0.930 . S
H2001 C2009 0.930 . S
H2002 C2010 0.930 . S
H2003 C2011 0.930 . S
H2004 C2014 0.930 . S
H2005 C2015 0.930 . S
C2006 H2000 0.930 . S
C2006 C2007 1.355 . S
C2006 C2008 1.415 . S
C2007 C2006 1.355 . S
C2007 C2009 1.419 . S
C2008 C2006 1.415 . S
C2008 C2013 1.425 . S
C2008 C2015 1.409 . S
C2009 H2001 0.930 . S
C2009 C2007 1.419 . S
C2009 C2010 1.362 . S
C2010 H2002 0.930 . S
C2010 C2009 1.362 . S
C2010 C2013 1.409 . S
C2011 H2003 0.930 . S
C2011 C2012 1.355 . S
C2011 C2013 1.415 . S
C2012 C2011 1.355 . S
C2012 C2014 1.419 . S
C2013 C2008 1.425 . S
C2013 C2010 1.409 . S
C2013 C2011 1.415 . S
C2014 H2004 0.930 . S
C2014 C2012 1.419 . S
C2014 C2015 1.362 . S
C2015 H2005 0.930 . S
C2015 C2008 1.409 . S
C2015 C2014 1.362 . S
H2016 C2022 0.930 . S
H2017 C2025 0.930 . S
H2018 C2026 0.930 . S
H2019 C2027 0.930 . S
H2020 C2030 0.930 . S
H2021 C2031 0.930 . S
C2022 H2016 0.930 . S
C2022 C2023 1.355 . S
C2022 C2024 1.415 . S
C2023 C2022 1.355 . S
C2023 C2025 1.419 . S
C2024 C2022 1.415 . S
C2024 C2029 1.425 . S
C2024 C2031 1.409 . S
C2025 H2017 0.930 . S
C2025 C2023 1.419 . S
C2025 C2026 1.362 . S
C2026 H2018 0.930 . S
C2026 C2025 1.362 . S
C2026 C2029 1.409 . S
C2027 H2019 0.930 . S
C2027 C2028 1.355 . S
C2027 C2029 1.415 . S
C2028 C2027 1.355 . S
C2028 C2030 1.419 . S
C2029 C2024 1.425 . S
C2029 C2026 1.409 . S
C2029 C2027 1.415 . S
C2030 H2020 0.930 . S
C2030 C2028 1.419 . S
C2030 C2031 1.362 . S
C2031 H2021 0.930 . S
C2031 C2024 1.409 . S
C2031 C2030 1.362 . S
H2032 C2038 0.930 . S
H2033 C2041 0.930 . S
H2034 C2042 0.930 . S
H2035 C2043 0.930 . S
H2036 C2046 0.930 . S
H2037 C2047 0.930 . S
C2038 H2032 0.930 . S
C2038 C2039 1.355 . S
C2038 C2040 1.415 . S
C2039 C2038 1.355 . S
C2039 C2041 1.419 . S
C2040 C2038 1.415 . S
C2040 C2045 1.425 . S
C2040 C2047 1.409 . S
C2041 H2033 0.930 . S
C2041 C2039 1.419 . S
C2041 C2042 1.362 . S
C2042 H2034 0.930 . S
C2042 C2041 1.362 . S
C2042 C2045 1.409 . S
C2043 H2035 0.930 . S
C2043 C2044 1.355 . S
C2043 C2045 1.415 . S
C2044 C2043 1.355 . S
C2044 C2046 1.419 . S
C2045 C2040 1.425 . S
C2045 C2042 1.409 . S
C2045 C2043 1.415 . S
C2046 H2036 0.930 . S
C2046 C2044 1.419 . S
C2046 C2047 1.362 . S
C2047 H2037 0.930 . S
C2047 C2040 1.409 . S
C2047 C2046 1.362 . S
H2048 C2054 0.930 . S
H2049 C2057 0.930 . S
H2050 C2058 0.930 . S
H2051 C2059 0.930 . S
H2052 C2062 0.930 . S
H2053 C2063 0.930 . S
C2054 H2048 0.930 . S
C2054 C2055 1.355 . S
C2054 C2056 1.415 . S
C2055 C2054 1.355 . S
C2055 C2057 1.419 . S
C2056 C2054 1.415 . S
C2056 C2061 1.425 . S
C2056 C2063 1.409 . S
C2057 H2049 0.930 . S
C2057 C2055 1.419 . S
C2057 C2058 1.362 . S
C2058 H2050 0.930 . S
C2058 C2057 1.362 . S
C2058 C2061 1.409 . S
C2059 H2051 0.930 . S
C2059 C2060 1.355 . S
C2059 C2061 1.415 . S
C2060 C2059 1.355 . S
C2060 C2062 1.419 . S
C2061 C2056 1.425 . S
C2061 C2058 1.409 . S
C2061 C2059 1.415 . S
C2062 H2052 0.930 . S
C2062 C2060 1.419 . S
C2062 C2063 1.362 . S
C2063 H2053 0.930 . S
C2063 C2056 1.409 . S
C2063 C2062 1.362 . S
H2064 C2070 0.930 . S
H2065 C2073 0.930 . S
H2066 C2074 0.930 . S
H2067 C2075 0.930 . S
H2068 C2078 0.930 . S
H2069 C2079 0.930 . S
C2070 H2064 0.930 . S
C2070 C2071 1.355 . S
C2070 C2072 1.415 . S
C2071 C2070 1.355 . S
C2071 C2073 1.419 . S
C2072 C2070 1.415 . S
C2072 C2077 1.425 . S
C2072 C2079 1.409 . S
C2073 H2065 0.930 . S
C2073 C2071 1.419 . S
C2073 C2074 1.362 . S
C2074 H2066 0.930 . S
C2074 C2073 1.362 . S
C2074 C2077 1.409 . S
C2075 H2067 0.930 . S
C2075 C2076 1.355 . S
C2075 C2077 1.415 . S
C2076 C2075 1.355 . S
C2076 C2078 1.419 . S
C2077 C2072 1.425 . S
C2077 C2074 1.409 . S
C2077 C2075 1.415 . S
C2078 H2068 0.930 . S
C2078 C2076 1.419 . S
C2078 C2079 1.362 . S
C2079 H2069 0.930 . S
C2079 C2072 1.409 . S
C2079 C2078 1.362 . S
H2080 C2086 0.930 . S
H2081 C2089 0.930 . S
H2082 C2090 0.930 . S
H2083 C2091 0.930 . S
H2084 C2094 0.930 . S
H2085 C2095 0.930 . S
C2086 H2080 0.930 . S
C2086 C2087 1.355 . S
C2086 C2088 1.415 . S
C2087 C2086 1.355 . S
C2087 C2089 1.419 . S
C2088 C2086 1.415 . S
C2088 C2093 1.425 . S
C2088 C2095 1.409 . S
C2089 H2081 0.930 . S
C2089 C2087 1.419 . S
C2089 C2090 1.362 . S
C2090 H2082 0.930 . S
C2090 C2089 1.362 . S
C2090 C2093 1.409 . S
C2091 H2083 0.930 . S
C2091 C2092 1.355 . S
C2091 C2093 1.415 . S
C2092 C2091 1.355 . S
C2092 C2094 1.419 . S
C2093 C2088 1.425 . S
C2093 C2090 1.409 . S
C2093 C2091 1.415 . S
C2094 H2084 0.930 . S
C2094 C2092 1.419 . S
C2094 C2095 1.362 . S
C2095 H2085 0.930 . S
C2095 C2088 1.409 . S
C2095 C2094 1.362 . S
H2096 C2102 0.930 1_655 S
H2097 C2105 0.936 . S
H2098 C2106 0.930 . S
H2099 C2107 0.930 1_455 S
H2100 C2110 0.936 . S
H2101 C2111 0.930 . S
C2102 H2096 0.930 1_455 S
C2102 C2103 1.355 . S
C2102 C2104 1.415 1_455 S
C2103 C2102 1.355 . S
C2103 C2105 1.399 1_565 S
C2104 C2102 1.415 1_655 S
C2104 C2109 1.425 1_665 S
C2104 C2111 1.409 . S
C2105 H2097 0.936 . S
C2105 C2103 1.399 1_545 S
C2105 C2106 1.377 . S
C2106 H2098 0.930 . S
C2106 C2105 1.377 . S
C2106 C2109 1.409 . S
C2107 H2099 0.930 1_655 S
C2107 C2108 1.355 . S
C2107 C2109 1.415 1_655 S
C2108 C2107 1.355 . S
C2108 C2110 1.399 1_545 S
C2109 C2104 1.425 1_445 S
C2109 C2106 1.409 . S
C2109 C2107 1.415 1_455 S
C2110 H2100 0.936 . S
C2110 C2108 1.399 1_565 S
C2110 C2111 1.377 . S
C2111 H2101 0.930 . S
C2111 C2104 1.409 . S
C2111 C2110 1.377 . S
H2112 C2118 0.930 . S
H2113 C2121 0.930 . S
H2114 C2122 0.930 . S
H2115 C2123 0.930 . S
H2116 C2126 0.930 . S
H2117 C2127 0.930 . S
C2118 H2112 0.930 . S
C2118 C2119 1.355 . S
C2118 C2120 1.415 . S
C2119 C2118 1.355 . S
C2119 C2121 1.419 . S
C2120 C2118 1.415 . S
C2120 C2125 1.425 . S
C2120 C2127 1.409 . S
C2121 H2113 0.930 . S
C2121 C2119 1.419 . S
C2121 C2122 1.362 . S
C2122 H2114 0.930 . S
C2122 C2121 1.362 . S
C2122 C2125 1.409 . S
C2123 H2115 0.930 . S
C2123 C2124 1.355 . S
C2123 C2125 1.415 . S
C2124 C2123 1.355 . S
C2124 C2126 1.419 . S
C2125 C2120 1.425 . S
C2125 C2122 1.409 . S
C2125 C2123 1.415 . S
C2126 H2116 0.930 . S
C2126 C2124 1.419 . S
C2126 C2127 1.362 . S
C2127 H2117 0.930 . S
C2127 C2120 1.409 . S
C2127 C2126 1.362 . S
H2128 C2134 0.930 . S
H2129 C2137 0.930 . S
H2130 C2138 0.930 . S
H2131 C2139 0.930 . S
H2132 C2142 0.930 . S
H2133 C2143 0.930 . S
C2134 H2128 0.930 . S
C2134 C2135 1.355 . S
C2134 C2136 1.415 . S
C2135 C2134 1.355 . S
C2135 C2137 1.419 . S
C2136 C2134 1.415 . S
C2136 C2141 1.425 1_544 S
C2136 C2143 1.409 . S
C2137 H2129 0.930 . S
C2137 C2135 1.419 . S
C2137 C2138 1.362 1_544 S
C2138 H2130 0.930 . S
C2138 C2137 1.362 1_566 S
C2138 C2141 1.409 . S
C2139 H2131 0.930 . S
C2139 C2140 1.355 . S
C2139 C2141 1.415 . S
C2140 C2139 1.355 . S
C2140 C2142 1.419 . S
C2141 C2136 1.425 1_566 S
C2141 C2138 1.409 . S
C2141 C2139 1.415 . S
C2142 H2132 0.930 . S
C2142 C2140 1.419 . S
C2142 C2143 1.362 1_566 S
C2143 H2133 0.930 . S
C2143 C2136 1.409 . S
C2143 C2142 1.362 1_544 S
H2144 C2150 0.930 . S
H2145 C2153 0.930 . S
H2146 C2154 0.930 . S
H2147 C2155 0.930 . S
H2148 C2158 0.930 . S
H2149 C2159 0.930 . S
C2150 H2144 0.930 . S
C2150 C2151 1.355 . S
C2150 C2152 1.415 . S
C2151 C2150 1.355 . S
C2151 C2153 1.419 . S
C2152 C2150 1.415 . S
C2152 C2157 1.425 . S
C2152 C2159 1.409 . S
C2153 H2145 0.930 . S
C2153 C2151 1.419 . S
C2153 C2154 1.362 . S
C2154 H2146 0.930 . S
C2154 C2153 1.362 . S
C2154 C2157 1.409 . S
C2155 H2147 0.930 . S
C2155 C2156 1.355 . S
C2155 C2157 1.415 . S
C2156 C2155 1.355 . S
C2156 C2158 1.419 . S
C2157 C2152 1.425 . S
C2157 C2154 1.409 . S
C2157 C2155 1.415 . S
C2158 H2148 0.930 . S
C2158 C2156 1.419 . S
C2158 C2159 1.362 . S
C2159 H2149 0.930 . S
C2159 C2152 1.409 . S
C2159 C2158 1.362 . S
H2160 C2166 0.930 . S
H2161 C2169 0.930 . S
H2162 C2170 0.930 . S
H2163 C2171 0.930 . S
H2164 C2174 0.930 . S
H2165 C2175 0.930 . S
C2166 H2160 0.930 . S
C2166 C2167 1.355 . S
C2166 C2168 1.415 1_545 S
C2167 C2166 1.355 . S
C2167 C2169 1.419 . S
C2168 C2166 1.415 1_565 S
C2168 C2173 1.425 1_565 S
C2168 C2175 1.409 . S
C2169 H2161 0.930 . S
C2169 C2167 1.419 . S
C2169 C2170 1.362 . S
C2170 H2162 0.930 . S
C2170 C2169 1.362 . S
C2170 C2173 1.409 . S
C2171 H2163 0.930 . S
C2171 C2172 1.355 . S
C2171 C2173 1.415 1_565 S
C2172 C2171 1.355 . S
C2172 C2174 1.419 . S
C2173 C2168 1.425 1_545 S
C2173 C2170 1.409 . S
C2173 C2171 1.415 1_545 S
C2174 H2164 0.930 . S
C2174 C2172 1.419 . S
C2174 C2175 1.362 . S
C2175 H2165 0.930 . S
C2175 C2168 1.409 . S
C2175 C2174 1.362 . S
H2176 C2182 0.930 . S
H2177 C2185 0.930 . S
H2178 C2186 0.930 . S
H2179 C2187 0.930 . S
H2180 C2190 0.930 . S
H2181 C2191 0.930 . S
C2182 H2176 0.930 . S
C2182 C2183 1.355 . S
C2182 C2184 1.415 . S
C2183 C2182 1.355 . S
C2183 C2185 1.419 . S
C2184 C2182 1.415 . S
C2184 C2189 1.425 . S
C2184 C2191 1.409 . S
C2185 H2177 0.930 . S
C2185 C2183 1.419 . S
C2185 C2186 1.362 . S
C2186 H2178 0.930 . S
C2186 C2185 1.362 . S
C2186 C2189 1.409 . S
C2187 H2179 0.930 . S
C2187 C2188 1.355 . S
C2187 C2189 1.415 . S
C2188 C2187 1.355 . S
C2188 C2190 1.419 . S
C2189 C2184 1.425 . S
C2189 C2186 1.409 . S
C2189 C2187 1.415 . S
C2190 H2180 0.930 . S
C2190 C2188 1.419 . S
C2190 C2191 1.362 . S
C2191 H2181 0.930 . S
C2191 C2184 1.409 . S
C2191 C2190 1.362 . S
H2192 C2198 0.930 . S
H2193 C2201 0.930 . S
H2194 C2202 0.930 1_556 S
H2195 C2203 0.930 . S
H2196 C2206 0.930 . S
H2197 C2207 0.930 1_554 S
C2198 H2192 0.930 . S
C2198 C2199 1.355 1_545 S
C2198 C2200 1.415 . S
C2199 C2198 1.355 1_565 S
C2199 C2201 1.419 . S
C2200 C2198 1.415 . S
C2200 C2205 1.425 1_644 S
C2200 C2207 1.409 1_554 S
C2201 H2193 0.930 . S
C2201 C2199 1.419 . S
C2201 C2202 1.362 1_655 S
C2202 H2194 0.930 1_554 S
C2202 C2201 1.362 1_455 S
C2202 C2205 1.409 1_554 S
C2203 H2195 0.930 . S
C2203 C2204 1.355 1_565 S
C2203 C2205 1.415 . S
C2204 C2203 1.355 1_545 S
C2204 C2206 1.419 . S
C2205 C2200 1.425 1_466 S
C2205 C2202 1.409 1_556 S
C2205 C2203 1.415 . S
C2206 H2196 0.930 . S
C2206 C2204 1.419 . S
C2206 C2207 1.362 1_455 S
C2207 H2197 0.930 1_556 S
C2207 C2200 1.409 1_556 S
C2207 C2206 1.362 1_655 S
H2208 C2214 0.930 . S
H2209 C2217 0.930 . S
H2210 C2218 0.930 . S
H2211 C2219 0.930 . S
H2212 C2222 0.930 . S
H2213 C2223 0.930 . S
C2214 H2208 0.930 . S
C2214 C2215 1.355 . S
C2214 C2216 1.415 . S
C2215 C2214 1.355 . S
C2215 C2217 1.419 . S
C2216 C2214 1.415 . S
C2216 C2221 1.425 . S
C2216 C2223 1.409 . S
C2217 H2209 0.930 . S
C2217 C2215 1.419 . S
C2217 C2218 1.362 . S
C2218 H2210 0.930 . S
C2218 C2217 1.362 . S
C2218 C2221 1.409 . S
C2219 H2211 0.930 . S
C2219 C2220 1.355 . S
C2219 C2221 1.415 . S
C2220 C2219 1.355 . S
C2220 C2222 1.419 . S
C2221 C2216 1.425 . S
C2221 C2218 1.409 . S
C2221 C2219 1.415 . S
C2222 H2212 0.930 . S
C2222 C2220 1.419 . S
C2222 C2223 1.362 . S
C2223 H2213 0.930 . S
C2223 C2216 1.409 . S
C2223 C2222 1.362 . S
H2224 C2230 0.930 . S
H2225 C2233 0.930 . S
H2226 C2234 0.930 . S
H2227 C2235 0.930 . S
H2228 C2238 0.930 . S
H2229 C2239 0.930 . S
C2230 H2224 0.930 . S
C2230 C2231 1.355 . S
C2230 C2232 1.415 . S
C2231 C2230 1.355 . S
C2231 C2233 1.419 . S
C2232 C2230 1.415 . S
C2232 C2237 1.425 . S
C2232 C2239 1.409 . S
C2233 H2225 0.930 . S
C2233 C2231 1.419 . S
C2233 C2234 1.362 . S
C2234 H2226 0.930 . S
C2234 C2233 1.362 . S
C2234 C2237 1.409 . S
C2235 H2227 0.930 . S
C2235 C2236 1.355 . S
C2235 C2237 1.415 . S
C2236 C2235 1.355 . S
C2236 C2238 1.419 . S
C2237 C2232 1.425 . S
C2237 C2234 1.409 . S
C2237 C2235 1.415 . S
C2238 H2228 0.930 . S
C2238 C2236 1.419 . S
C2238 C2239 1.362 . S
C2239 H2229 0.930 . S
C2239 C2232 1.409 . S
C2239 C2238 1.362 . S
H2240 C2246 0.930 . S
H2241 C2249 0.930 . S
H2242 C2250 0.930 . S
H2243 C2251 0.930 . S
H2244 C2254 0.930 . S
H2245 C2255 0.930 . S
C2246 H2240 0.930 . S
C2246 C2247 1.355 . S
C2246 C2248 1.415 . S
C2247 C2246 1.355 . S
C2247 C2249 1.419 . S
C2248 C2246 1.415 . S
C2248 C2253 1.425 . S
C2248 C2255 1.409 . S
C2249 H2241 0.930 . S
C2249 C2247 1.419 . S
C2249 C2250 1.362 . S
C2250 H2242 0.930 . S
C2250 C2249 1.362 . S
C2250 C2253 1.409 . S
C2251 H2243 0.930 . S
C2251 C2252 1.355 . S
C2251 C2253 1.415 . S
C2252 C2251 1.355 . S
C2252 C2254 1.419 . S
C2253 C2248 1.425 . S
C2253 C2250 1.409 . S
C2253 C2251 1.415 . S
C2254 H2244 0.930 . S
C2254 C2252 1.419 . S
C2254 C2255 1.362 . S
C2255 H2245 0.930 . S
C2255 C2248 1.409 . S
C2255 C2254 1.362 . S
H2256 C2262 0.930 . S
H2257 C2265 0.930 . S
H2258 C2266 0.930 . S
H2259 C2267 0.930 . S
H2260 C2270 0.930 . S
H2261 C2271 0.930 . S
C2262 H2256 0.930 . S
C2262 C2263 1.355 . S
C2262 C2264 1.415 . S
C2263 C2262 1.355 . S
C2263 C2265 1.419 . S
C2264 C2262 1.415 . S
C2264 C2269 1.425 . S
C2264 C2271 1.409 . S
C2265 H2257 0.930 . S
C2265 C2263 1.419 . S
C2265 C2266 1.362 . S
C2266 H2258 0.930 . S
C2266 C2265 1.362 . S
C2266 C2269 1.409 . S
C2267 H2259 0.930 . S
C2267 C2268 1.355 . S
C2267 C2269 1.415 . S
C2268 C2267 1.355 . S
C2268 C2270 1.419 . S
C2269 C2264 1.425 . S
C2269 C2266 1.409 . S
C2269 C2267 1.415 . S
C2270 H2260 0.930 . S
C2270 C2268 1.419 . S
C2270 C2271 1.362 . S
C2271 H2261 0.930 . S
C2271 C2264 1.409 . S
C2271 C2270 1.362 . S
H2272 C2278 0.930 . S
H2273 C2281 0.930 . S
H2274 C2282 0.930 . S
H2275 C2283 0.930 . S
H2276 C2286 0.930 . S
H2277 C2287 0.930 . S
C2278 H2272 0.930 . S
C2278 C2279 1.355 . S
C2278 C2280 1.415 1_556 S
C2279 C2278 1.355 . S
C2279 C2281 1.419 . S
C2280 C2278 1.415 1_554 S
C2280 C2285 1.425 1_554 S
C2280 C2287 1.409 . S
C2281 H2273 0.930 . S
C2281 C2279 1.419 . S
C2281 C2282 1.362 . S
C2282 H2274 0.930 . S
C2282 C2281 1.362 . S
C2282 C2285 1.409 . S
C2283 H2275 0.930 . S
C2283 C2284 1.355 . S
C2283 C2285 1.415 1_554 S
C2284 C2283 1.355 . S
C2284 C2286 1.419 . S
C2285 C2280 1.425 1_556 S
C2285 C2282 1.409 . S
C2285 C2283 1.415 1_556 S
C2286 H2276 0.930 . S
C2286 C2284 1.419 . S
C2286 C2287 1.362 . S
C2287 H2277 0.930 . S
C2287 C2280 1.409 . S
C2287 C2286 1.362 . S
H2288 C2294 0.930 1_655 S
H2289 C2297 0.930 . S
H2290 C2298 0.930 . S
H2291 C2299 0.930 1_455 S
H2292 C2302 0.930 . S
H2293 C2303 0.930 . S
C2294 H2288 0.930 1_455 S
C2294 C2295 1.355 . S
C2294 C2296 1.415 1_455 S
C2295 C2294 1.355 . S
C2295 C2297 1.419 . S
C2296 C2294 1.415 1_655 S
C2296 C2301 1.425 1_655 S
C2296 C2303 1.409 . S
C2297 H2289 0.930 . S
C2297 C2295 1.419 . S
C2297 C2298 1.362 . S
C2298 H2290 0.930 . S
C2298 C2297 1.362 . S
C2298 C2301 1.409 . S
C2299 H2291 0.930 1_655 S
C2299 C2300 1.355 . S
C2299 C2301 1.415 1_655 S
C2300 C2299 1.355 . S
C2300 C2302 1.419 . S
C2301 C2296 1.425 1_455 S
C2301 C2298 1.409 . S
C2301 C2299 1.415 1_455 S
C2302 H2292 0.930 . S
C2302 C2300 1.419 . S
C2302 C2303 1.362 . S
C2303 H2293 0.930 . S
C2303 C2296 1.409 . S
C2303 C2302 1.362 . S
H2304 C2310 0.930 1_655 S
H2305 C2313 0.930 . S
H2306 C2314 0.930 . S
H2307 C2315 0.930 1_455 S
H2308 C2318 0.930 . S
H2309 C2319 0.930 . S
C2310 H2304 0.930 1_455 S
C2310 C2311 1.355 . S
C2310 C2312 1.415 1_455 S
C2311 C2310 1.355 . S
C2311 C2313 1.419 . S
C2312 C2310 1.415 1_655 S
C2312 C2317 1.425 1_654 S
C2312 C2319 1.409 . S
C2313 H2305 0.930 . S
C2313 C2311 1.419 . S
C2313 C2314 1.362 1_554 S
C2314 H2306 0.930 . S
C2314 C2313 1.362 1_556 S
C2314 C2317 1.409 . S
C2315 H2307 0.930 1_655 S
C2315 C2316 1.355 . S
C2315 C2317 1.415 1_655 S
C2316 C2315 1.355 . S
C2316 C2318 1.419 . S
C2317 C2312 1.425 1_456 S
C2317 C2314 1.409 . S
C2317 C2315 1.415 1_455 S
C2318 H2308 0.930 . S
C2318 C2316 1.419 . S
C2318 C2319 1.362 1_556 S
C2319 H2309 0.930 . S
C2319 C2312 1.409 . S
C2319 C2318 1.362 1_554 S
H2320 C2326 0.930 . S
H2321 C2329 0.930 . S
H2322 C2330 0.930 . S
H2323 C2331 0.930 . S
H2324 C2334 0.930 . S
H2325 C2335 0.930 . S
C2326 H2320 0.930 . S
C2326 C2327 1.355 . S
C2326 C2328 1.415 . S
C2327 C2326 1.355 . S
C2327 C2329 1.419 . S
C2328 C2326 1.415 . S
C2328 C2333 1.425 . S
C2328 C2335 1.409 . S
C2329 H2321 0.930 . S
C2329 C2327 1.419 . S
C2329 C2330 1.362 . S
C2330 H2322 0.930 . S
C2330 C2329 1.362 . S
C2330 C2333 1.409 . S
C2331 H2323 0.930 . S
C2331 C2332 1.355 . S
C2331 C2333 1.415 . S
C2332 C2331 1.355 . S
C2332 C2334 1.419 . S
C2333 C2328 1.425 . S
C2333 C2330 1.409 . S
C2333 C2331 1.415 . S
C2334 H2324 0.930 . S
C2334 C2332 1.419 . S
C2334 C2335 1.362 . S
C2335 H2325 0.930 . S
C2335 C2328 1.409 . S
C2335 C2334 1.362 . S
C1063 N13 1.326 . S
C1068 C909 1.322 . S
C1079 N46 1.327 1_655 S
C1084 C282 1.320 . S
C1095 C843 1.315 . S
C1100 N79 1.329 . S
C1111 C348 1.278 . S
C1116 N112 1.359 . S
C1127 C975 1.349 . S
C1132 N145 1.325 . S
C1143 N178 1.323 . S
C1148 C480 1.350 . S
C1159 N211 1.341 . S
C1164 C1041 1.295 . S
C1175 C414 1.278 . S
C1180 N244 1.358 1_655 S
C1191 N277 1.335 . S
C1196 C645 1.340 . S
C1207 N310 1.361 1_455 S
C1212 C18 1.281 . S
C1223 N343 1.347 . S
C1228 C579 1.286 . S
C1239 C84 1.350 . S
C1244 N376 1.323 . S
C1255 N409 1.345 . S
C1260 C711 1.325 . S
C1271 N442 1.325 . S
C1276 C216 1.323 . S
C1287 C777 1.305 . S
C1292 N475 1.355 . S
C1303 N508 1.322 1_455 S
C1308 C150 1.331 . S
C1319 N541 1.319 . S
C1324 C381 1.347 . S
C1335 C810 1.344 . S
C1340 N574 1.319 . S
C1351 C315 1.341 . S
C1356 N607 1.319 . S
C1367 N640 1.331 1_455 S
C1372 C876 1.344 . S
C1383 N673 1.360 . S
C1388 C447 1.279 . S
C1399 C1008 1.279 . S
C1404 N706 1.355 1_455 S
C1415 N739 1.351 . S
C1420 C513 1.282 . S
C1431 C942 1.285 . S
C1436 N772 1.349 . S
C1447 N805 1.361 . S
C1452 C117 1.288 . S
C1463 C546 1.342 . S
C1468 N838 1.319 . S
C1479 N871 1.354 . S
C1484 C51 1.279 . S
C1495 C612 1.348 . S
C1500 N904 1.327 1_655 S
C1511 N937 1.322 . S
C1516 C183 1.331 . S
C1527 C744 1.281 . S
C1532 N970 1.361 1_655 S
C1543 C249 1.347 . S
C1548 N1003 1.329 . S
C1559 N1036 1.358 . S
C1564 C678 1.278 . S
C1575 N2 1.507 . S
C1580 N134 1.549 . S
C1591 N35 1.513 . S
C1596 N167 1.563 . S
C1607 N200 1.577 . S
C1612 N68 1.547 . S
C1623 N101 1.509 . S
C1628 N233 1.557 . S
C1639 N266 1.518 . S
C1644 N398 1.516 . S
C1655 N299 1.550 . S
C1660 N431 1.576 . S
C1671 N332 1.515 . S
C1676 N464 1.519 . S
C1687 N365 1.507 . S
C1692 N497 1.551 . S
C1703 N530 1.515 . S
C1708 N662 1.519 . S
C1719 N695 1.568 . S
C1724 N563 1.565 . S
C1735 N728 1.573 . S
C1740 N596 1.525 . S
C1751 N761 1.508 . S
C1756 N629 1.555 . S
C1767 N926 1.525 . S
C1772 N794 1.511 . S
C1783 N827 1.549 . S
C1788 N959 1.576 . S
C1799 N860 1.511 . S
C1804 N992 1.560 . S
C1815 N1025 1.538 . S
C1820 N893 1.577 . S
C1831 C186 0.788 . S
C1836 C21 0.845 . S
C1847 C219 0.788 . S
C1852 C54 0.845 . S
C1863 C252 0.801 . S
C1868 C87 0.830 . S
C1879 C153 0.794 . S
C1884 C120 0.842 . S
C1895 C450 0.845 . S
C1900 C285 0.788 . S
C1911 C483 0.827 . S
C1916 C318 0.811 . S
C1927 C351 0.822 . S
C1932 C516 0.816 . S
C1943 C384 0.839 . S
C1948 C417 0.793 . S
C1959 C714 0.806 . S
C1964 C549 0.831 . S
C1975 C582 0.814 . S
C1980 C747 0.817 . S
C1991 C780 0.845 . S
C1996 C615 0.788 . S
C2007 C648 0.827 . S
C2012 C681 0.803 . S
C2023 C978 0.805 . S
C2028 C813 0.832 . S
C2039 C846 0.818 . S
C2044 C1011 0.812 . S
C2055 C879 0.844 . S
C2060 C1044 0.791 . S
C2071 C945 0.845 . S
C2076 C912 0.788 . S
C2087 C799 1.886 . S
C2092 C7 1.886 . S
C2103 C40 1.881 . S
C2108 C304 1.881 . S
C2119 C73 1.899 . S
C2124 C865 1.899 . S
C2135 C106 1.884 . S
C2140 C370 1.884 . S
C2151 C139 1.898 . S
C2156 C931 1.898 . S
C2167 C436 1.888 . S
C2172 C172 1.888 . S
C2183 C997 1.886 . S
C2188 C205 1.886 . S
C2199 C502 1.904 . S
C2204 C238 1.904 . S
C2215 C271 1.884 . S
C2220 C535 1.884 . S
C2231 C601 1.884 . S
C2236 C337 1.884 . S
C2247 C403 1.904 . S
C2252 C667 1.904 . S
C2263 C469 1.901 . S
C2268 C733 1.901 . S
C2279 C832 1.901 . S
C2284 C568 1.901 . S
C2295 C898 1.875 . S
C2300 C634 1.875 . S
C2311 C964 1.880 . S
C2316 C700 1.880 . S
C2327 C766 1.883 . S
C2332 C1030 1.883 . S
